# Generated by pormake.
# Topology ctn, (3,4)-cn, num edge types: 1
# Building blocks:
#     Node 0, Type 0, BuildingBlock: PAMTOO_clean_linker_0, # of connection points: 3
#     Node 1, Type 0, BuildingBlock: PAMTOO_clean_linker_0, # of connection points: 3
#     Node 2, Type 0, BuildingBlock: PAMTOO_clean_linker_0, # of connection points: 3
#     Node 3, Type 0, BuildingBlock: PAMTOO_clean_linker_0, # of connection points: 3
#     Node 4, Type 0, BuildingBlock: PAMTOO_clean_linker_0, # of connection points: 3
#     Node 5, Type 0, BuildingBlock: PAMTOO_clean_linker_0, # of connection points: 3
#     Node 6, Type 0, BuildingBlock: PAMTOO_clean_linker_0, # of connection points: 3
#     Node 7, Type 0, BuildingBlock: PAMTOO_clean_linker_0, # of connection points: 3
#     Node 8, Type 0, BuildingBlock: PAMTOO_clean_linker_0, # of connection points: 3
#     Node 9, Type 0, BuildingBlock: PAMTOO_clean_linker_0, # of connection points: 3
#     Node 10, Type 0, BuildingBlock: PAMTOO_clean_linker_0, # of connection points: 3
#     Node 11, Type 0, BuildingBlock: PAMTOO_clean_linker_0, # of connection points: 3
#     Node 12, Type 0, BuildingBlock: PAMTOO_clean_linker_0, # of connection points: 3
#     Node 13, Type 0, BuildingBlock: PAMTOO_clean_linker_0, # of connection points: 3
#     Node 14, Type 0, BuildingBlock: PAMTOO_clean_linker_0, # of connection points: 3
#     Node 15, Type 0, BuildingBlock: PAMTOO_clean_linker_0, # of connection points: 3
#     Node 16, Type 1, BuildingBlock: UXUYUI_clean_sbu_0, # of connection points: 4
#     Node 17, Type 1, BuildingBlock: UXUYUI_clean_sbu_0, # of connection points: 4
#     Node 18, Type 1, BuildingBlock: UXUYUI_clean_sbu_0, # of connection points: 4
#     Node 19, Type 1, BuildingBlock: UXUYUI_clean_sbu_0, # of connection points: 4
#     Node 20, Type 1, BuildingBlock: UXUYUI_clean_sbu_0, # of connection points: 4
#     Node 21, Type 1, BuildingBlock: UXUYUI_clean_sbu_0, # of connection points: 4
#     Node 22, Type 1, BuildingBlock: UXUYUI_clean_sbu_0, # of connection points: 4
#     Node 23, Type 1, BuildingBlock: UXUYUI_clean_sbu_0, # of connection points: 4
#     Node 24, Type 1, BuildingBlock: UXUYUI_clean_sbu_0, # of connection points: 4
#     Node 25, Type 1, BuildingBlock: UXUYUI_clean_sbu_0, # of connection points: 4
#     Node 26, Type 1, BuildingBlock: UXUYUI_clean_sbu_0, # of connection points: 4
#     Node 27, Type 1, BuildingBlock: UXUYUI_clean_sbu_0, # of connection points: 4
#     Edge 28, Type (0, 1), BuildingBlock: UVAHIK_clean_linker_0, # of connection points: 2
#     Edge 29, Type (0, 1), BuildingBlock: UVAHIK_clean_linker_0, # of connection points: 2
#     Edge 30, Type (0, 1), BuildingBlock: UVAHIK_clean_linker_0, # of connection points: 2
#     Edge 31, Type (0, 1), BuildingBlock: UVAHIK_clean_linker_0, # of connection points: 2
#     Edge 32, Type (0, 1), BuildingBlock: UVAHIK_clean_linker_0, # of connection points: 2
#     Edge 33, Type (0, 1), BuildingBlock: UVAHIK_clean_linker_0, # of connection points: 2
#     Edge 34, Type (0, 1), BuildingBlock: UVAHIK_clean_linker_0, # of connection points: 2
#     Edge 35, Type (0, 1), BuildingBlock: UVAHIK_clean_linker_0, # of connection points: 2
#     Edge 36, Type (0, 1), BuildingBlock: UVAHIK_clean_linker_0, # of connection points: 2
#     Edge 37, Type (0, 1), BuildingBlock: UVAHIK_clean_linker_0, # of connection points: 2
#     Edge 38, Type (0, 1), BuildingBlock: UVAHIK_clean_linker_0, # of connection points: 2
#     Edge 39, Type (0, 1), BuildingBlock: UVAHIK_clean_linker_0, # of connection points: 2
#     Edge 40, Type (0, 1), BuildingBlock: UVAHIK_clean_linker_0, # of connection points: 2
#     Edge 41, Type (0, 1), BuildingBlock: UVAHIK_clean_linker_0, # of connection points: 2
#     Edge 42, Type (0, 1), BuildingBlock: UVAHIK_clean_linker_0, # of connection points: 2
#     Edge 43, Type (0, 1), BuildingBlock: UVAHIK_clean_linker_0, # of connection points: 2
#     Edge 44, Type (0, 1), BuildingBlock: UVAHIK_clean_linker_0, # of connection points: 2
#     Edge 45, Type (0, 1), BuildingBlock: UVAHIK_clean_linker_0, # of connection points: 2
#     Edge 46, Type (0, 1), BuildingBlock: UVAHIK_clean_linker_0, # of connection points: 2
#     Edge 47, Type (0, 1), BuildingBlock: UVAHIK_clean_linker_0, # of connection points: 2
#     Edge 48, Type (0, 1), BuildingBlock: UVAHIK_clean_linker_0, # of connection points: 2
#     Edge 49, Type (0, 1), BuildingBlock: UVAHIK_clean_linker_0, # of connection points: 2
#     Edge 50, Type (0, 1), BuildingBlock: UVAHIK_clean_linker_0, # of connection points: 2
#     Edge 51, Type (0, 1), BuildingBlock: UVAHIK_clean_linker_0, # of connection points: 2
#     Edge 52, Type (0, 1), BuildingBlock: UVAHIK_clean_linker_0, # of connection points: 2
#     Edge 53, Type (0, 1), BuildingBlock: UVAHIK_clean_linker_0, # of connection points: 2
#     Edge 54, Type (0, 1), BuildingBlock: UVAHIK_clean_linker_0, # of connection points: 2
#     Edge 55, Type (0, 1), BuildingBlock: UVAHIK_clean_linker_0, # of connection points: 2
#     Edge 56, Type (0, 1), BuildingBlock: UVAHIK_clean_linker_0, # of connection points: 2
#     Edge 57, Type (0, 1), BuildingBlock: UVAHIK_clean_linker_0, # of connection points: 2
#     Edge 58, Type (0, 1), BuildingBlock: UVAHIK_clean_linker_0, # of connection points: 2
#     Edge 59, Type (0, 1), BuildingBlock: UVAHIK_clean_linker_0, # of connection points: 2
#     Edge 60, Type (0, 1), BuildingBlock: UVAHIK_clean_linker_0, # of connection points: 2
#     Edge 61, Type (0, 1), BuildingBlock: UVAHIK_clean_linker_0, # of connection points: 2
#     Edge 62, Type (0, 1), BuildingBlock: UVAHIK_clean_linker_0, # of connection points: 2
#     Edge 63, Type (0, 1), BuildingBlock: UVAHIK_clean_linker_0, # of connection points: 2
#     Edge 64, Type (0, 1), BuildingBlock: UVAHIK_clean_linker_0, # of connection points: 2
#     Edge 65, Type (0, 1), BuildingBlock: UVAHIK_clean_linker_0, # of connection points: 2
#     Edge 66, Type (0, 1), BuildingBlock: UVAHIK_clean_linker_0, # of connection points: 2
#     Edge 67, Type (0, 1), BuildingBlock: UVAHIK_clean_linker_0, # of connection points: 2
#     Edge 68, Type (0, 1), BuildingBlock: UVAHIK_clean_linker_0, # of connection points: 2
#     Edge 69, Type (0, 1), BuildingBlock: UVAHIK_clean_linker_0, # of connection points: 2
#     Edge 70, Type (0, 1), BuildingBlock: UVAHIK_clean_linker_0, # of connection points: 2
#     Edge 71, Type (0, 1), BuildingBlock: UVAHIK_clean_linker_0, # of connection points: 2
#     Edge 72, Type (0, 1), BuildingBlock: UVAHIK_clean_linker_0, # of connection points: 2
#     Edge 73, Type (0, 1), BuildingBlock: UVAHIK_clean_linker_0, # of connection points: 2
#     Edge 74, Type (0, 1), BuildingBlock: UVAHIK_clean_linker_0, # of connection points: 2
#     Edge 75, Type (0, 1), BuildingBlock: UVAHIK_clean_linker_0, # of connection points: 2
# Relax obj value: 0.062
# Max RMSD: 0.182
# Mean RMSD: 0.116
data_MOF--net-ctn--node1-UXUYUI_clean_sbu_0--node2-PAMTOO_clean_linker_0--edge1-UVAHIK_clean_linker_0
_symmetry_space_group_name_H-M    P1
_symmetry_Int_Tables_number       1
_symmetry_cell_setting            triclinic
loop_
_symmetry_equiv_pos_as_xyz
'x, y, z'
_cell_length_a     82.841799
_cell_length_b     83.33915
_cell_length_c     84.73414
_cell_angle_alpha  85.318213
_cell_angle_beta   92.37587
_cell_angle_gamma 97.110243
loop_
_atom_site_label
_atom_site_type_symbol
_atom_site_fract_x
_atom_site_fract_y
_atom_site_fract_z
_atom_type_partial_charge
H0 H 0.01251 0.06008 0.05292 0.0
H1 H 0.03584 0.01779 0.06779 0.0
H2 H 0.05068 0.04658 0.02545 0.0
H3 H 0.04765 0.01262 0.02276 0.0
C4 C 0.05229 0.00826 0.03466 0.0
O5 O 0.05562 0.02108 0.0441 0.0
H6 H 0.04279 0.99922 0.04026 0.0
C7 C 0.02124 0.05187 0.05086 0.0
C8 C 0.03128 0.05506 0.0377 0.0
C9 C 0.02279 0.03851 0.0618 0.0
C10 C 0.03452 0.02819 0.0595 0.0
C11 C 0.04446 0.03113 0.04636 0.0
C12 C 0.04293 0.04456 0.03559 0.0
H13 H 0.30196 0.70351 0.25793 0.0
H14 H 0.27212 0.71732 0.21741 0.0
H15 H 0.31468 0.74872 0.23035 0.0
H16 H 0.28789 0.76608 0.21959 0.0
C17 C 0.28128 0.75749 0.21148 0.0
O18 O 0.2901 0.74469 0.21015 0.0
H19 H 0.26923 0.75283 0.21648 0.0
C20 C 0.29944 0.71207 0.24808 0.0
C21 C 0.30995 0.72656 0.2455 0.0
C22 C 0.28573 0.70853 0.23803 0.0
C23 C 0.28265 0.71971 0.22526 0.0
C24 C 0.29304 0.73417 0.22261 0.0
C25 C 0.30664 0.73757 0.23267 0.0
H26 H 0.9724 0.48541 0.09769 0.0
H27 H 0.95885 0.46661 0.05248 0.0
H28 H 0.99919 0.45012 0.07953 0.0
H29 H 0.00275 0.45774 0.0446 0.0
C30 C 0.9905 0.45217 0.04063 0.0
O31 O 0.98125 0.4471 0.0537 0.0
H32 H 0.98453 0.46142 0.03306 0.0
C33 C 0.97447 0.47777 0.08841 0.0
C34 C 0.98719 0.46796 0.09034 0.0
C35 C 0.96413 0.4775 0.07479 0.0
C36 C 0.9665 0.46698 0.06316 0.0
C37 C 0.97909 0.45715 0.06496 0.0
C38 C 0.98938 0.45765 0.07847 0.0
H39 H 0.70783 0.81277 0.25627 0.0
H40 H 0.69359 0.76645 0.23753 0.0
H41 H 0.73766 0.795 0.22265 0.0
H42 H 0.71176 0.78089 0.19848 0.0
C43 C 0.71146 0.76825 0.20401 0.0
O44 O 0.71838 0.7683 0.21911 0.0
H45 H 0.69849 0.76296 0.20465 0.0
C46 C 0.71016 0.80349 0.24872 0.0
C47 C 0.72423 0.80576 0.23964 0.0
C48 C 0.69904 0.78934 0.24819 0.0
C49 C 0.70208 0.77736 0.23833 0.0
C50 C 0.71585 0.77961 0.22899 0.0
C51 C 0.72692 0.79367 0.22973 0.0
H52 H 0.07628 0.9702 0.50447 0.0
H53 H 0.03291 0.9575 0.47619 0.0
H54 H 0.06591 0.9992 0.4616 0.0
H55 H 0.03145 0.00442 0.45943 0.0
C56 C 0.02596 0.99206 0.4566 0.0
O57 O 0.03808 0.98231 0.45543 0.0
H58 H 0.01781 0.98702 0.46639 0.0
C59 C 0.06872 0.9724 0.49397 0.0
C60 C 0.07321 0.98589 0.48327 0.0
C61 C 0.05433 0.96192 0.49152 0.0
C62 C 0.04406 0.96537 0.47839 0.0
C63 C 0.04818 0.97895 0.46786 0.0
C64 C 0.06277 0.98902 0.47015 0.0
H65 H 0.21155 0.75866 0.80422 0.0
H66 H 0.22765 0.72173 0.77803 0.0
H67 H 0.25404 0.73614 0.82017 0.0
H68 H 0.27557 0.72889 0.7959 0.0
C69 C 0.26668 0.72104 0.78882 0.0
O70 O 0.25252 0.71701 0.79703 0.0
H71 H 0.26408 0.72794 0.77737 0.0
C72 C 0.22008 0.75008 0.80271 0.0
C73 C 0.23303 0.74867 0.8138 0.0
C74 C 0.21796 0.74042 0.78976 0.0
C75 C 0.22902 0.72926 0.78795 0.0
C76 C 0.24206 0.72788 0.79882 0.0
C77 C 0.24405 0.73753 0.81171 0.0
H78 H 0.96004 0.56408 0.50957 0.0
H79 H 0.97871 0.53818 0.47367 0.0
H80 H 0.00788 0.57917 0.49164 0.0
H81 H 0.01324 0.57782 0.45814 0.0
C82 C 0.00731 0.56526 0.45681 0.0
O83 O 0.00631 0.55684 0.47152 0.0
H84 H 0.99493 0.56617 0.4514 0.0
C85 C 0.96969 0.56244 0.50182 0.0
C86 C 0.98422 0.57313 0.502 0.0
C87 C 0.96748 0.54972 0.49169 0.0
C88 C 0.98003 0.54789 0.48155 0.0
C89 C 0.9945 0.55851 0.48158 0.0
C90 C 0.99666 0.57096 0.49188 0.0
H91 H 0.7868 0.8025 0.84926 0.0
H92 H 0.825 0.77884 0.83147 0.0
H93 H 0.80557 0.81705 0.8029 0.0
H94 H 0.81121 0.78908 0.78573 0.0
C95 C 0.82178 0.78507 0.79286 0.0
O96 O 0.8263 0.79581 0.80427 0.0
H97 H 0.81805 0.77274 0.79858 0.0
C98 C 0.79509 0.80122 0.84002 0.0
C99 C 0.79496 0.81146 0.82596 0.0
C100 C 0.80581 0.78929 0.84219 0.0
C101 C 0.81648 0.78776 0.83007 0.0
C102 C 0.81628 0.79772 0.81598 0.0
C103 C 0.80565 0.80956 0.81397 0.0
H104 H 0.28831 0.30486 0.34763 0.0
H105 H 0.32709 0.28169 0.33022 0.0
H106 H 0.30724 0.31947 0.30138 0.0
H107 H 0.31357 0.29254 0.28357 0.0
C108 C 0.32349 0.28788 0.29121 0.0
O109 O 0.3281 0.29833 0.30284 0.0
H110 H 0.31869 0.2757 0.29666 0.0
C111 C 0.29689 0.30379 0.33858 0.0
C112 C 0.29653 0.31378 0.32437 0.0
C113 C 0.30778 0.29204 0.34089 0.0
C114 C 0.31842 0.29046 0.32873 0.0
C115 C 0.31803 0.30021 0.31452 0.0
C116 C 0.30721 0.31188 0.31239 0.0
H117 H 0.47276 0.98654 0.59849 0.0
H118 H 0.45818 0.96634 0.55405 0.0
H119 H 0.49856 0.95005 0.58119 0.0
H120 H 0.50295 0.95725 0.54656 0.0
C121 C 0.49057 0.95228 0.54233 0.0
O122 O 0.48092 0.94725 0.55511 0.0
H123 H 0.48525 0.96211 0.53495 0.0
C124 C 0.47416 0.97815 0.58965 0.0
C125 C 0.48679 0.96824 0.59165 0.0
C126 C 0.4638 0.97777 0.57605 0.0
C127 C 0.46612 0.96711 0.56451 0.0
C128 C 0.47871 0.95731 0.56635 0.0
C129 C 0.48898 0.95786 0.57987 0.0
H130 H 0.21271 0.31 0.76042 0.0
H131 H 0.19652 0.26446 0.74076 0.0
H132 H 0.23931 0.29363 0.72342 0.0
H133 H 0.21435 0.2805 0.69984 0.0
C134 C 0.2123 0.26788 0.70543 0.0
O135 O 0.21966 0.26702 0.72033 0.0
H136 H 0.19893 0.26452 0.70642 0.0
C137 C 0.21442 0.30086 0.75245 0.0
C138 C 0.22756 0.30351 0.74219 0.0
C139 C 0.20309 0.28684 0.7521 0.0
C140 C 0.20502 0.27541 0.74122 0.0
C141 C 0.21799 0.27798 0.73086 0.0
C142 C 0.22924 0.29193 0.7314 0.0
H143 H 0.80093 0.20409 0.75849 0.0
H144 H 0.77081 0.21699 0.7179 0.0
H145 H 0.81288 0.24921 0.73044 0.0
H146 H 0.7843 0.26522 0.72092 0.0
C147 C 0.77858 0.25693 0.71207 0.0
O148 O 0.78812 0.24473 0.71059 0.0
H149 H 0.76639 0.25163 0.71635 0.0
C150 C 0.79831 0.2125 0.74855 0.0
C151 C 0.80862 0.22712 0.74582 0.0
C152 C 0.78466 0.20862 0.73854 0.0
C153 C 0.78134 0.21962 0.72569 0.0
C154 C 0.79143 0.23425 0.72295 0.0
C155 C 0.80505 0.23795 0.73292 0.0
H156 H 0.51293 0.56145 0.55175 0.0
H157 H 0.53635 0.51962 0.56874 0.0
H158 H 0.55103 0.54656 0.52537 0.0
H159 H 0.54605 0.5114 0.52449 0.0
C160 C 0.55147 0.50785 0.53631 0.0
O161 O 0.55547 0.52134 0.54475 0.0
H162 H 0.54229 0.49922 0.54286 0.0
C163 C 0.52182 0.55318 0.55046 0.0
C164 C 0.53179 0.55563 0.53726 0.0
C165 C 0.52339 0.54035 0.56206 0.0
C166 C 0.53482 0.52959 0.55998 0.0
C167 C 0.54462 0.53179 0.54671 0.0
C168 C 0.54328 0.54492 0.53552 0.0
H169 H 0.57573 0.46716 0.00232 0.0
H170 H 0.52979 0.45826 0.97686 0.0
H171 H 0.56314 0.50013 0.9632 0.0
H172 H 0.52964 0.50649 0.9611 0.0
C173 C 0.52342 0.49422 0.95889 0.0
O174 O 0.53485 0.48389 0.957 0.0
H175 H 0.51592 0.48965 0.96929 0.0
C176 C 0.56735 0.47052 0.9928 0.0
C177 C 0.57134 0.4848 0.98303 0.0
C178 C 0.55234 0.46088 0.99079 0.0
C179 C 0.54134 0.46561 0.97875 0.0
C180 C 0.54529 0.47971 0.96885 0.0
C181 C 0.56022 0.48928 0.971 0.0
H182 H 0.71349 0.25921 0.30399 0.0
H183 H 0.72836 0.22117 0.27853 0.0
H184 H 0.75572 0.23621 0.31996 0.0
H185 H 0.77604 0.22968 0.29382 0.0
C186 C 0.76728 0.22058 0.28802 0.0
O187 O 0.75369 0.21674 0.29708 0.0
H188 H 0.76383 0.22604 0.27612 0.0
C189 C 0.72179 0.25037 0.30265 0.0
C190 C 0.73481 0.24895 0.31366 0.0
C191 C 0.7193 0.2404 0.28996 0.0
C192 C 0.73005 0.22893 0.28828 0.0
C193 C 0.74327 0.22765 0.29895 0.0
C194 C 0.74562 0.23758 0.31162 0.0
H195 H 0.45949 0.06544 0.00866 0.0
H196 H 0.478 0.03899 0.9731 0.0
H197 H 0.50721 0.08028 0.99034 0.0
H198 H 0.5123 0.07845 0.95692 0.0
C199 C 0.50649 0.06581 0.95579 0.0
O200 O 0.50554 0.05762 0.9706 0.0
H201 H 0.49409 0.06652 0.95034 0.0
C202 C 0.46908 0.0637 1.0009 0.0
C203 C 0.48364 0.07437 1.00093 0.0
C204 C 0.46679 0.05083 0.99093 0.0
C205 C 0.47932 0.04884 0.98082 0.0
C206 C 0.49378 0.05947 0.98065 0.0
C207 C 0.49599 0.07208 0.99075 0.0
Li208 Li 0.26915 0.90604 0.99833 0.0
Li209 Li 0.2554 0.88356 0.01508 0.0
Li210 Li 0.25171 0.88507 0.98616 0.0
Li211 Li 0.23973 0.90365 0.00204 0.0
C212 C 0.27758 0.87035 0.99251 0.0
N213 N 0.28726 0.84451 0.97837 0.0
C214 C 0.27506 0.85469 0.99997 0.0
C215 C 0.28508 0.87286 0.97787 0.0
C216 C 0.28005 0.8418 0.99263 0.0
C217 C 0.28985 0.85964 0.97091 0.0
C218 C 0.26145 0.90739 0.03374 0.0
C219 C 0.25408 0.90252 0.06111 0.0
N220 N 0.26991 0.90647 0.06566 0.0
C221 C 0.27765 0.91143 0.03869 0.0
C222 C 0.24955 0.90295 0.04503 0.0
C223 C 0.28168 0.91089 0.05488 0.0
C224 C 0.2882 0.93616 0.00155 0.0
N225 N 0.28838 0.92111 0.99649 0.0
C226 C 0.31606 0.92765 0.98905 0.0
C227 C 0.30193 0.91668 0.99038 0.0
C228 C 0.31629 0.94323 0.99429 0.0
C229 C 0.30213 0.94745 1.00062 0.0
H230 H 0.27724 0.93932 0.00639 0.0
H231 H 0.3018 0.9046 0.98663 0.0
C232 C 0.24479 0.85959 0.0395 0.0
N233 N 0.2578 0.86957 0.03376 0.0
C234 C 0.2464 0.84977 0.0535 0.0
C235 C 0.27484 0.86048 0.05526 0.0
C236 C 0.2727 0.87 0.04117 0.0
C237 C 0.26156 0.85023 0.06168 0.0
H238 H 0.23315 0.85925 0.03322 0.0
H239 H 0.28288 0.8779 0.0362 0.0
C240 C 0.25765 0.92304 0.97438 0.0
N241 N 0.2713 0.9524 0.96032 0.0
C242 C 0.25203 0.93745 0.97785 0.0
C243 C 0.27017 0.92355 0.96372 0.0
C244 C 0.25908 0.95217 0.97061 0.0
C245 C 0.27694 0.93852 0.95676 0.0
C246 C 0.21847 0.87719 0.00233 0.0
C247 C 0.2097 0.87365 0.98833 0.0
C248 C 0.21013 0.87883 0.01601 0.0
C249 C 0.1927 0.8719 0.98824 0.0
C250 C 0.19313 0.87703 0.01542 0.0
N251 N 0.18484 0.87363 0.00166 0.0
C252 C 0.24386 0.85602 0.97124 0.0
C253 C 0.25159 0.87896 0.95357 0.0
C254 C 0.24247 0.84588 0.9588 0.0
N255 N 0.24852 0.87219 0.96844 0.0
C256 C 0.25042 0.86926 0.94078 0.0
C257 C 0.24593 0.85244 0.94332 0.0
H258 H 0.24143 0.85099 0.9832 0.0
H259 H 0.25524 0.89185 0.95167 0.0
C260 C 0.22109 0.92419 0.01667 0.0
N261 N 0.22161 0.91542 0.0039 0.0
C262 C 0.20774 0.93246 0.01866 0.0
C263 C 0.19581 0.92275 0.99417 0.0
C264 C 0.2095 0.91485 0.99255 0.0
C265 C 0.19479 0.93164 0.00741 0.0
H266 H 0.23102 0.92473 0.02535 0.0
H267 H 0.21041 0.90811 0.98231 0.0
O268 O 0.27243 0.88308 0.99932 0.0
O269 O 0.25731 0.90754 0.01793 0.0
O270 O 0.25117 0.90854 0.98164 0.0
O271 O 0.23512 0.87918 0.00261 0.0
H272 H 0.26917 0.85247 0.01122 0.0
H273 H 0.28683 0.88483 0.97176 0.0
H274 H 0.27812 0.82961 0.99825 0.0
H275 H 0.29551 0.86139 0.95952 0.0
H276 H 0.24501 0.89899 0.06997 0.0
H277 H 0.28706 0.91473 0.03014 0.0
H278 H 0.23698 0.89965 0.04141 0.0
H279 H 0.29417 0.91392 0.05888 0.0
H280 H 0.3268 0.92388 0.98428 0.0
H281 H 0.30181 0.95939 0.0047 0.0
H282 H 0.2359 0.84181 0.05779 0.0
H283 H 0.28671 0.8614 0.06118 0.0
H284 H 0.24242 0.93731 0.98613 0.0
H285 H 0.27488 0.91255 0.9611 0.0
H286 H 0.25489 0.96343 0.97322 0.0
H287 H 0.28673 0.93911 0.9486 0.0
H288 H 0.21593 0.87245 0.97761 0.0
H289 H 0.21671 0.8817 0.02691 0.0
H290 H 0.18576 0.86923 0.97747 0.0
H291 H 0.18652 0.87839 0.02588 0.0
H292 H 0.23869 0.83305 0.9613 0.0
H293 H 0.25337 0.87485 0.9291 0.0
H294 H 0.20741 0.93915 0.02905 0.0
H295 H 0.18618 0.92204 0.98511 0.0
Li296 Li 0.13319 0.49219 0.30054 0.0
Li297 Li 0.15232 0.47635 0.28902 0.0
Li298 Li 0.15317 0.50656 0.28161 0.0
Li299 Li 0.13145 0.48681 0.27175 0.0
C300 C 0.16413 0.49941 0.31677 0.0
N301 N 0.17786 0.50848 0.34549 0.0
C302 C 0.16957 0.4878 0.32791 0.0
C303 C 0.16594 0.51569 0.32016 0.0
C304 C 0.1764 0.49261 0.34239 0.0
C305 C 0.17283 0.52002 0.33476 0.0
C306 C 0.12571 0.45533 0.29646 0.0
C307 C 0.12488 0.42683 0.29285 0.0
N308 N 0.12109 0.42327 0.30831 0.0
C309 C 0.12169 0.4514 0.31228 0.0
C310 C 0.1272 0.44296 0.28662 0.0
C311 C 0.11944 0.43511 0.31806 0.0
C312 C 0.10549 0.49947 0.31489 0.0
N313 N 0.12054 0.49497 0.3183 0.0
C314 C 0.11701 0.4964 0.346 0.0
C315 C 0.12628 0.49308 0.33352 0.0
C316 C 0.1016 0.50155 0.34279 0.0
C317 C 0.09578 0.50286 0.32698 0.0
H318 H 0.10115 0.50075 0.30269 0.0
H319 H 0.13805 0.48906 0.33605 0.0
C320 C 0.17722 0.45806 0.28228 0.0
N321 N 0.16575 0.45923 0.29302 0.0
C322 C 0.18766 0.44608 0.28465 0.0
C323 C 0.17431 0.43666 0.30909 0.0
C324 C 0.1642 0.44889 0.30629 0.0
C325 C 0.18629 0.43518 0.29821 0.0
H326 H 0.17836 0.46652 0.27191 0.0
H327 H 0.15526 0.45024 0.31485 0.0
C328 C 0.12497 0.52239 0.28245 0.0
N329 N 0.11618 0.5531 0.28425 0.0
C330 C 0.11643 0.52969 0.26981 0.0
C331 C 0.12883 0.53063 0.29607 0.0
C332 C 0.11217 0.54525 0.27092 0.0
C333 C 0.12433 0.54616 0.29675 0.0
C334 C 0.15543 0.48618 0.25226 0.0
C335 C 0.15929 0.49928 0.24113 0.0
C336 C 0.15159 0.47058 0.24721 0.0
C337 C 0.15899 0.49656 0.22506 0.0
C338 C 0.15141 0.46837 0.23103 0.0
N339 N 0.15506 0.4813 0.22038 0.0
C340 C 0.18163 0.52907 0.28337 0.0
C341 C 0.1609 0.53751 0.26564 0.0
C342 C 0.19145 0.54373 0.27999 0.0
N343 N 0.16658 0.52637 0.27639 0.0
C344 C 0.17028 0.55232 0.26192 0.0
C345 C 0.18574 0.55565 0.26922 0.0
H346 H 0.18596 0.51988 0.29168 0.0
H347 H 0.14911 0.53486 0.25987 0.0
C348 C 0.10627 0.46956 0.25354 0.0
N349 N 0.117 0.48326 0.25395 0.0
C350 C 0.09553 0.46733 0.24051 0.0
C351 C 0.10718 0.4933 0.22859 0.0
C352 C 0.11761 0.49505 0.24185 0.0
C353 C 0.09584 0.47935 0.22782 0.0
H354 H 0.10592 0.46045 0.2634 0.0
H355 H 0.12622 0.50586 0.24253 0.0
O356 O 0.15747 0.49488 0.30251 0.0
O357 O 0.128 0.4712 0.29062 0.0
O358 O 0.12932 0.50718 0.2815 0.0
O359 O 0.15537 0.48863 0.26801 0.0
H360 H 0.16843 0.47518 0.32548 0.0
H361 H 0.16224 0.52494 0.31157 0.0
H362 H 0.18055 0.48372 0.35115 0.0
H363 H 0.17426 0.53257 0.33754 0.0
H364 H 0.1261 0.41714 0.28539 0.0
H365 H 0.12042 0.46081 0.32004 0.0
H366 H 0.1302 0.44579 0.27433 0.0
H367 H 0.1164 0.43189 0.33029 0.0
H368 H 0.12184 0.49493 0.35804 0.0
H369 H 0.08404 0.5069 0.32394 0.0
H370 H 0.19664 0.4453 0.2759 0.0
H371 H 0.173 0.42868 0.31982 0.0
H372 H 0.11319 0.52344 0.25923 0.0
H373 H 0.13505 0.52503 0.3061 0.0
H374 H 0.10564 0.55108 0.26119 0.0
H375 H 0.12727 0.55267 0.30723 0.0
H376 H 0.16236 0.51142 0.24485 0.0
H377 H 0.1487 0.46031 0.25568 0.0
H378 H 0.16184 0.5066 0.2163 0.0
H379 H 0.14835 0.45637 0.22694 0.0
H380 H 0.20325 0.5458 0.28595 0.0
H381 H 0.16555 0.561 0.25328 0.0
H382 H 0.08686 0.45649 0.24054 0.0
H383 H 0.10806 0.50278 0.21902 0.0
Li384 Li 0.76749 0.61799 0.03605 0.0
Li385 Li 0.78107 0.63684 0.0535 0.0
Li386 Li 0.78681 0.64017 0.02561 0.0
Li387 Li 0.79754 0.61782 0.04364 0.0
C388 C 0.74999 0.64223 0.03181 0.0
N389 N 0.71729 0.64285 0.02421 0.0
C390 C 0.73907 0.6437 0.04362 0.0
C391 C 0.74427 0.64118 0.01613 0.0
C392 C 0.72259 0.64398 0.03953 0.0
C393 C 0.7277 0.64148 0.01253 0.0
C394 C 0.77514 0.6093 0.07272 0.0
C395 C 0.78348 0.59934 0.09895 0.0
N396 N 0.76908 0.60238 0.10453 0.0
C397 C 0.76041 0.61228 0.07871 0.0
C398 C 0.78677 0.60276 0.0829 0.0
C399 C 0.7576 0.60872 0.09483 0.0
C400 C 0.74837 0.59491 0.01833 0.0
N401 N 0.74815 0.60401 0.03091 0.0
C402 C 0.72031 0.5937 0.03528 0.0
C403 C 0.73457 0.60335 0.03954 0.0
C404 C 0.72013 0.58438 0.02219 0.0
C405 C 0.73444 0.58494 0.01375 0.0
H406 H 0.75936 0.59542 0.01179 0.0
H407 H 0.7347 0.6104 0.04967 0.0
C408 C 0.77141 0.66334 0.06717 0.0
N409 N 0.77859 0.64967 0.07099 0.0
C410 C 0.76872 0.67351 0.07882 0.0
C411 C 0.78138 0.65572 0.09819 0.0
C412 C 0.78399 0.64597 0.08609 0.0
C413 C 0.77354 0.66964 0.09461 0.0
H414 H 0.76771 0.66634 0.05502 0.0
H415 H 0.79038 0.63552 0.08879 0.0
C416 C 0.79128 0.6163 0.00725 0.0
N417 N 0.80205 0.61639 0.9768 0.0
C418 C 0.80695 0.61263 0.00477 0.0
C419 C 0.78103 0.61985 0.99424 0.0
C420 C 0.81217 0.61277 0.98928 0.0
C421 C 0.78672 0.6199 0.97895 0.0
C422 C 0.81039 0.6527 0.0532 0.0
C423 C 0.80881 0.66912 0.04974 0.0
C424 C 0.81909 0.64775 0.06684 0.0
C425 C 0.81588 0.68037 0.06012 0.0
C426 C 0.826 0.65938 0.07691 0.0
N427 N 0.82425 0.6753 0.07338 0.0
C428 C 0.78116 0.66703 0.00487 0.0
C429 C 0.80501 0.65576 0.99935 0.0
C430 C 0.78365 0.67858 0.99206 0.0
N431 N 0.79161 0.65575 0.0081 0.0
C432 C 0.8079 0.66701 0.9863 0.0
C433 C 0.79709 0.67858 0.98249 0.0
H434 H 0.77083 0.66706 0.01224 0.0
H435 H 0.81344 0.64701 0.00246 0.0
C436 C 0.81018 0.58827 0.0507 0.0
N437 N 0.81445 0.60445 0.04754 0.0
C438 C 0.82214 0.57783 0.05324 0.0
C439 C 0.84268 0.6009 0.04911 0.0
C440 C 0.8303 0.61092 0.04673 0.0
C441 C 0.83868 0.58408 0.05238 0.0
H442 H 0.79745 0.58349 0.05123 0.0
H443 H 0.83332 0.62382 0.04402 0.0
O444 O 0.76616 0.64175 0.03559 0.0
O445 O 0.77811 0.6126 0.05697 0.0
O446 O 0.78599 0.61636 0.02233 0.0
O447 O 0.80314 0.64147 0.04344 0.0
H448 H 0.74321 0.64433 0.05585 0.0
H449 H 0.75254 0.6401 0.00685 0.0
H450 H 0.714 0.64501 0.04856 0.0
H451 H 0.72311 0.6406 1.00045 0.0
H452 H 0.79238 0.59431 0.10697 0.0
H453 H 0.7514 0.61757 0.07107 0.0
H454 H 0.79827 0.60045 0.0785 0.0
H455 H 0.7463 0.61108 0.09964 0.0
H456 H 0.70959 0.59342 0.04224 0.0
H457 H 0.73479 0.57795 0.00356 0.0
H458 H 0.76263 0.68413 0.07555 0.0
H459 H 0.78558 0.6525 0.11017 0.0
H460 H 0.81502 0.6098 0.01467 0.0
H461 H 0.76884 0.62262 0.99594 0.0
H462 H 0.82429 0.61002 0.98719 0.0
H463 H 0.77895 0.62272 0.96878 0.0
H464 H 0.80203 0.67309 0.03924 0.0
H465 H 0.82029 0.63505 0.06972 0.0
H466 H 0.81468 0.69311 0.05767 0.0
H467 H 0.83269 0.65573 0.08756 0.0
H468 H 0.77499 0.68724 0.98952 0.0
H469 H 0.81856 0.66678 0.97938 0.0
H470 H 0.81844 0.56502 0.05597 0.0
H471 H 0.85522 0.60626 0.04808 0.0
Li472 Li 0.87036 0.03262 0.25761 0.0
Li473 Li 0.88979 0.01563 0.27062 0.0
Li474 Li 0.88898 0.02146 0.24174 0.0
Li475 Li 0.8673 0.00323 0.25501 0.0
C476 C 0.89694 0.05247 0.2617 0.0
N477 N 0.90003 0.08436 0.26923 0.0
C478 C 0.90014 0.05625 0.27738 0.0
C479 C 0.89541 0.06491 0.24983 0.0
C480 C 0.90166 0.07245 0.28095 0.0
C481 C 0.89697 0.08095 0.25388 0.0
C482 C 0.85312 0.00667 0.28173 0.0
C483 C 0.83977 0.98272 0.29589 0.0
N484 N 0.82572 0.98968 0.2953 0.0
C485 C 0.83855 0.01359 0.28127 0.0
C486 C 0.85376 0.99113 0.28912 0.0
C487 C 0.82484 0.0048 0.28821 0.0
C488 C 0.85216 0.05875 0.24758 0.0
N489 N 0.85925 0.05092 0.26022 0.0
C490 C 0.85133 0.06955 0.27759 0.0
C491 C 0.8589 0.05597 0.27504 0.0
C492 C 0.84401 0.07803 0.26475 0.0
C493 C 0.84445 0.07242 0.24958 0.0
H494 H 0.85256 0.05446 0.23594 0.0
H495 H 0.86454 0.04941 0.28489 0.0
C496 C 0.92016 0.01714 0.28721 0.0
N497 N 0.9039 0.01278 0.28871 0.0
C498 C 0.93087 0.01493 0.30015 0.0
C499 C 0.90787 0.00408 0.31601 0.0
C500 C 0.89761 0.00649 0.30276 0.0
C501 C 0.92476 0.00827 0.3148 0.0
H502 H 0.9248 0.02225 0.2759 0.0
H503 H 0.88463 0.0034 0.30371 0.0
C504 C 0.86321 0.02187 0.22228 0.0
N505 N 0.8609 0.02324 0.18959 0.0
C506 C 0.85688 0.00813 0.2146 0.0
C507 C 0.86825 0.03634 0.21334 0.0
C508 C 0.85583 0.00907 0.19806 0.0
C509 C 0.86703 0.03677 0.19682 0.0
C510 C 0.90284 0.99206 0.25945 0.0
C511 C 0.91839 0.99627 0.25347 0.0
C512 C 0.9003 0.97972 0.2716 0.0
C513 C 0.93121 0.98811 0.25984 0.0
C514 C 0.91344 0.97188 0.27769 0.0
N515 N 0.92849 0.97621 0.27173 0.0
C516 C 0.91355 0.03715 0.22133 0.0
C517 C 0.89965 0.01248 0.21307 0.0
C518 C 0.92344 0.03868 0.20819 0.0
N519 N 0.90192 0.02422 0.22346 0.0
C520 C 0.90906 0.01367 0.19966 0.0
C521 C 0.92119 0.02686 0.19714 0.0
H522 H 0.91529 0.04615 0.22993 0.0
H523 H 0.8906 0.00212 0.21531 0.0
C524 C 0.83619 0.98429 0.2528 0.0
N525 N 0.85256 0.98401 0.25279 0.0
C526 C 0.8256 0.97001 0.25152 0.0
C527 C 0.8489 0.95561 0.24934 0.0
C528 C 0.85902 0.9701 0.2509 0.0
C529 C 0.83192 0.95534 0.24983 0.0
H530 H 0.83136 0.9956 0.25393 0.0
H531 H 0.87205 0.97028 0.25049 0.0
O532 O 0.89498 0.03666 0.25803 0.0
O533 O 0.86665 0.01503 0.2749 0.0
O534 O 0.86454 0.02113 0.23846 0.0
O535 O 0.89021 1.00015 0.25363 0.0
H536 H 0.90126 0.04676 0.28672 0.0
H537 H 0.89284 0.06218 0.23765 0.0
H538 H 0.90405 0.07555 0.29304 0.0
H539 H 0.8957 0.0907 0.24484 0.0
H540 H 0.84006 0.97065 0.30156 0.0
H541 H 0.83778 0.02554 0.2755 0.0
H542 H 0.86487 0.98552 0.28943 0.0
H543 H 0.81347 0.00998 0.28791 0.0
H544 H 0.85108 0.07326 0.28952 0.0
H545 H 0.83912 0.07865 0.23932 0.0
H546 H 0.94381 0.01822 0.29864 0.0
H547 H 0.90258 0.99921 0.32713 0.0
H548 H 0.85293 0.99683 0.22133 0.0
H549 H 0.87329 0.04704 0.21909 0.0
H550 H 0.85102 0.99851 0.19196 0.0
H551 H 0.871 0.04784 0.18975 0.0
H552 H 0.9206 0.00584 0.24412 0.0
H553 H 0.88836 0.97637 0.27642 0.0
H554 H 0.94333 0.99129 0.25538 0.0
H555 H 0.91168 0.96239 0.28717 0.0
H556 H 0.93268 0.04903 0.20663 0.0
H557 H 0.90713 0.00418 0.19153 0.0
H558 H 0.81264 0.97046 0.25208 0.0
H559 H 0.85437 0.94477 0.24761 0.0
Li560 Li 0.28375 0.13959 0.55163 0.0
Li561 Li 0.26995 0.1202 0.53351 0.0
Li562 Li 0.2991 0.11957 0.54087 0.0
Li563 Li 0.28921 0.14216 0.52374 0.0
C564 C 0.27239 0.11069 0.56846 0.0
N565 N 0.25652 0.10168 0.59645 0.0
C566 C 0.2557 0.11154 0.56919 0.0
C567 C 0.28098 0.10509 0.58193 0.0
C568 C 0.24791 0.10699 0.58346 0.0
C569 C 0.27274 0.10063 0.59597 0.0
C570 C 0.26393 0.15717 0.52573 0.0
C571 C 0.25222 0.17064 0.50253 0.0
N572 N 0.25644 0.18517 0.50876 0.0
C573 C 0.26812 0.17222 0.53192 0.0
C574 C 0.25587 0.15634 0.51094 0.0
C575 C 0.26423 0.18624 0.52315 0.0
C576 C 0.29126 0.15922 0.57867 0.0
N577 N 0.27956 0.15114 0.56953 0.0
C578 C 0.25866 0.15962 0.58448 0.0
C579 C 0.26351 0.15138 0.57214 0.0
C580 C 0.27045 0.16795 0.59418 0.0
C581 C 0.28695 0.16769 0.59113 0.0
H582 H 0.30393 0.15941 0.57627 0.0
H583 H 0.2544 0.14537 0.5644 0.0
C584 C 0.25008 0.09044 0.52949 0.0
N585 N 0.25013 0.10677 0.52924 0.0
C586 C 0.23586 0.08056 0.52554 0.0
C587 C 0.22175 0.10437 0.52221 0.0
C588 C 0.23632 0.11381 0.52591 0.0
C589 C 0.2214 0.08748 0.52174 0.0
H590 H 0.26119 0.08514 0.53242 0.0
H591 H 0.2366 0.12679 0.5262 0.0
C592 C 0.31805 0.14666 0.55255 0.0
N593 N 0.34373 0.15248 0.57401 0.0
C594 C 0.32961 0.16022 0.54997 0.0
C595 C 0.31958 0.13602 0.56601 0.0
C596 C 0.34249 0.16298 0.56098 0.0
C597 C 0.33264 0.13917 0.57672 0.0
C598 C 0.28268 0.10702 0.50998 0.0
C599 C 0.28923 0.09228 0.51153 0.0
C600 C 0.27 0.1092 0.49889 0.0
C601 C 0.28286 0.07989 0.50207 0.0
C602 C 0.26396 0.0965 0.48967 0.0
N603 N 0.27046 0.08223 0.49144 0.0
C604 C 0.31177 0.09101 0.55284 0.0
C605 C 0.33097 0.1106 0.53983 0.0
C606 C 0.32353 0.08042 0.5559 0.0
N607 N 0.31567 0.10573 0.54492 0.0
C608 C 0.34315 0.10043 0.54272 0.0
C609 C 0.33948 0.08508 0.55081 0.0
H610 H 0.29947 0.08746 0.55671 0.0
H611 H 0.33369 0.12237 0.5335 0.0
C612 C 0.30093 0.17289 0.50886 0.0
N613 N 0.29435 0.15755 0.50616 0.0
C614 C 0.30374 0.18463 0.49621 0.0
C615 C 0.29319 0.16449 0.47825 0.0
C616 C 0.29066 0.15315 0.49123 0.0
C617 C 0.29973 0.18053 0.48063 0.0
H618 H 0.30374 0.17605 0.52088 0.0
H619 H 0.28548 0.1409 0.48939 0.0
O620 O 0.28028 0.11516 0.55462 0.0
O621 O 0.26807 0.14336 0.53391 0.0
O622 O 0.3056 0.14363 0.54168 0.0
O623 O 0.28869 0.11925 0.51923 0.0
H624 H 0.24885 0.11588 0.55893 0.0
H625 H 0.29386 0.10412 0.58156 0.0
H626 H 0.23502 0.1077 0.58421 0.0
H627 H 0.27925 0.0963 0.60649 0.0
H628 H 0.24609 0.1702 0.49102 0.0
H629 H 0.27452 0.17311 0.54326 0.0
H630 H 0.25268 0.14481 0.5059 0.0
H631 H 0.26747 0.19798 0.52776 0.0
H632 H 0.24579 0.1598 0.58614 0.0
H633 H 0.29646 0.17393 0.59832 0.0
H634 H 0.23635 0.06767 0.52519 0.0
H635 H 0.21088 0.11027 0.51983 0.0
H636 H 0.32866 0.16851 0.53954 0.0
H637 H 0.31074 0.12551 0.5682 0.0
H638 H 0.35152 0.17344 0.55914 0.0
H639 H 0.33395 0.13105 0.5872 0.0
H640 H 0.2991 0.0904 0.51996 0.0
H641 H 0.26462 0.12043 0.49766 0.0
H642 H 0.28779 0.0684 0.50319 0.0
H643 H 0.25404 0.09797 0.48117 0.0
H644 H 0.32022 0.06877 0.5623 0.0
H645 H 0.35524 0.10443 0.53844 0.0
H646 H 0.309 0.19677 0.49862 0.0
H647 H 0.28969 0.16078 0.46652 0.0
Li648 Li 0.38888 0.5164 0.77131 0.0
Li649 Li 0.36982 0.53338 0.75731 0.0
Li650 Li 0.36656 0.50313 0.75475 0.0
Li651 Li 0.38815 0.52133 0.74136 0.0
C652 C 0.36009 0.50944 0.78871 0.0
N653 N 0.35048 0.49773 0.81876 0.0
C654 C 0.35388 0.5196 0.79867 0.0
C655 C 0.36117 0.49326 0.79396 0.0
C656 C 0.34916 0.51347 0.81385 0.0
C657 C 0.35631 0.48758 0.80921 0.0
C658 C 0.3982 0.55305 0.75976 0.0
C659 C 0.40144 0.58097 0.74916 0.0
N660 N 0.40598 0.58569 0.76385 0.0
C661 C 0.4031 0.55816 0.77471 0.0
C662 C 0.39754 0.56452 0.74684 0.0
C663 C 0.40691 0.57472 0.77655 0.0
C664 C 0.41643 0.507 0.78882 0.0
N665 N 0.4025 0.51389 0.78983 0.0
C666 C 0.4081 0.51731 0.81733 0.0
C667 C 0.39834 0.51925 0.80366 0.0
C668 C 0.42243 0.50999 0.81673 0.0
C669 C 0.42662 0.5049 0.8022 0.0
H670 H 0.4196 0.50308 0.77761 0.0
H671 H 0.38755 0.52523 0.80405 0.0
C672 C 0.34804 0.55673 0.74816 0.0
N673 N 0.3588 0.55183 0.75955 0.0
C674 C 0.33999 0.57023 0.74998 0.0
C675 C 0.35419 0.57329 0.77524 0.0
C676 C 0.36188 0.55973 0.77296 0.0
C677 C 0.34302 0.57872 0.76369 0.0
H678 H 0.34558 0.55009 0.73772 0.0
H679 H 0.37031 0.55545 0.78194 0.0
C680 C 0.39366 0.48531 0.75545 0.0
N681 N 0.40075 0.45366 0.75669 0.0
C682 C 0.39769 0.4787 0.7417 0.0
C683 C 0.39359 0.47591 0.76989 0.0
C684 C 0.40112 0.46266 0.74255 0.0
C685 C 0.39712 0.45992 0.77026 0.0
C686 C 0.36121 0.52392 0.72231 0.0
C687 C 0.3535 0.51149 0.71355 0.0
C688 C 0.36596 0.53917 0.71468 0.0
C689 C 0.35095 0.51446 0.69722 0.0
C690 C 0.36321 0.54166 0.69833 0.0
N691 N 0.35584 0.52935 0.69001 0.0
C692 C 0.33851 0.48069 0.76186 0.0
C693 C 0.35484 0.47359 0.74185 0.0
C694 C 0.32805 0.46629 0.76077 0.0
N695 N 0.35178 0.48389 0.75269 0.0
C696 C 0.3447 0.4591 0.74031 0.0
C697 C 0.33117 0.45521 0.74997 0.0
H698 H 0.33603 0.48929 0.77006 0.0
H699 H 0.36513 0.47666 0.73431 0.0
C700 C 0.41496 0.53469 0.72288 0.0
N701 N 0.40115 0.52402 0.72307 0.0
C702 C 0.42502 0.53639 0.70986 0.0
C703 C 0.40638 0.51617 0.69744 0.0
C704 C 0.39679 0.51475 0.71075 0.0
C705 C 0.42075 0.52704 0.69692 0.0
H706 H 0.41827 0.54176 0.73293 0.0
H707 H 0.386 0.50604 0.71136 0.0
O708 O 0.36493 0.5153 0.77386 0.0
O709 O 0.39424 0.5369 0.75777 0.0
O710 O 0.39028 0.50103 0.75482 0.0
O711 O 0.36397 0.52117 0.73828 0.0
H712 H 0.35276 0.53209 0.79476 0.0
H713 H 0.36547 0.48511 0.78627 0.0
H714 H 0.34442 0.52123 0.82171 0.0
H715 H 0.3571 0.47508 0.81341 0.0
H716 H 0.40089 0.58998 0.73928 0.0
H717 H 0.4038 0.54945 0.78482 0.0
H718 H 0.3941 0.56077 0.73514 0.0
H719 H 0.41058 0.57885 0.78808 0.0
H720 H 0.40461 0.52174 0.82821 0.0
H721 H 0.43754 0.49916 0.80123 0.0
H722 H 0.33129 0.57379 0.74087 0.0
H723 H 0.35709 0.57953 0.78591 0.0
H724 H 0.39803 0.48583 0.73046 0.0
H725 H 0.39107 0.48093 0.78074 0.0
H726 H 0.4041 0.45736 0.73196 0.0
H727 H 0.39705 0.4525 0.78135 0.0
H728 H 0.34957 0.49967 0.71927 0.0
H729 H 0.37171 0.54898 0.7213 0.0
H730 H 0.34508 0.50492 0.69029 0.0
H731 H 0.36691 0.55339 0.69227 0.0
H732 H 0.31757 0.46393 0.76821 0.0
H733 H 0.34759 0.45091 0.73184 0.0
H734 H 0.43597 0.54496 0.70988 0.0
H735 H 0.40279 0.50854 0.68782 0.0
Li736 Li 0.76849 0.40677 0.49878 0.0
Li737 Li 0.75551 0.38424 0.5161 0.0
Li738 Li 0.75228 0.38505 0.48621 0.0
Li739 Li 0.73809 0.40283 0.5012 0.0
C740 C 0.78865 0.38431 0.49952 0.0
N741 N 0.82218 0.38678 0.49876 0.0
C742 C 0.79779 0.38059 0.51327 0.0
C743 C 0.79655 0.38908 0.48533 0.0
C744 C 0.81473 0.38195 0.51265 0.0
C745 C 0.81352 0.39032 0.4852 0.0
C746 C 0.75279 0.4123 0.53246 0.0
C747 C 0.73516 0.4125 0.55438 0.0
N748 N 0.74737 0.42128 0.5623 0.0
C749 C 0.76511 0.42149 0.54075 0.0
C750 C 0.73765 0.4079 0.53927 0.0
C751 C 0.76215 0.42584 0.55585 0.0
C752 C 0.78978 0.4328 0.48435 0.0
N753 N 0.78741 0.42224 0.49737 0.0
C754 C 0.81292 0.43275 0.50892 0.0
C755 C 0.79853 0.42213 0.5096 0.0
C756 C 0.81584 0.44377 0.49559 0.0
C757 C 0.80398 0.44373 0.48321 0.0
H758 H 0.78066 0.43272 0.47485 0.0
H759 H 0.79631 0.4136 0.51982 0.0
C760 C 0.75122 0.35519 0.53603 0.0
N761 N 0.75812 0.3709 0.53515 0.0
C762 C 0.75294 0.34519 0.5499 0.0
C763 C 0.76917 0.3676 0.56155 0.0
C764 C 0.76714 0.37714 0.54747 0.0
C765 C 0.76199 0.35138 0.56293 0.0
H766 H 0.74438 0.35043 0.52593 0.0
H767 H 0.7729 0.38951 0.54633 0.0
C768 C 0.74769 0.41077 0.46611 0.0
N769 N 0.74031 0.41409 0.43401 0.0
C770 C 0.73201 0.41351 0.46074 0.0
C771 C 0.75966 0.40991 0.45517 0.0
C772 C 0.72851 0.41512 0.44445 0.0
C773 C 0.75567 0.41155 0.43899 0.0
C774 C 0.72068 0.37075 0.50625 0.0
C775 C 0.71046 0.36387 0.49441 0.0
C776 C 0.71558 0.36915 0.52189 0.0
C777 C 0.69517 0.35586 0.49834 0.0
C778 C 0.70021 0.36103 0.52535 0.0
N779 N 0.69039 0.35463 0.5136 0.0
C780 C 0.76259 0.36251 0.46687 0.0
C781 C 0.7377 0.37202 0.45813 0.0
C782 C 0.76196 0.35274 0.45418 0.0
N783 N 0.75061 0.37195 0.46856 0.0
C784 C 0.73659 0.36246 0.44524 0.0
C785 C 0.74882 0.35262 0.44313 0.0
H786 H 0.77259 0.36246 0.47546 0.0
H787 H 0.72823 0.37949 0.45979 0.0
C788 C 0.72142 0.42866 0.5082 0.0
N789 N 0.71922 0.41372 0.50252 0.0
C790 C 0.70808 0.43692 0.51029 0.0
C791 C 0.69046 0.41452 0.50014 0.0
C792 C 0.70415 0.40672 0.4982 0.0
C793 C 0.69231 0.42976 0.50642 0.0
H794 H 0.73356 0.43404 0.51137 0.0
H795 H 0.7027 0.39511 0.49324 0.0
O796 O 0.77207 0.38334 0.49995 0.0
O797 O 0.75553 0.4079 0.51767 0.0
O798 O 0.7513 0.40906 0.48201 0.0
O799 O 0.73571 0.37862 0.50258 0.0
H800 H 0.79187 0.3768 0.52433 0.0
H801 H 0.78966 0.39192 0.47457 0.0
H802 H 0.82196 0.37921 0.52323 0.0
H803 H 0.81979 0.39412 0.47434 0.0
H804 H 0.7235 0.40916 0.55978 0.0
H805 H 0.77684 0.42518 0.5356 0.0
H806 H 0.72784 0.40122 0.53288 0.0
H807 H 0.77161 0.43286 0.56242 0.0
H808 H 0.82178 0.43214 0.51865 0.0
H809 H 0.80557 0.45216 0.47281 0.0
H810 H 0.74744 0.33268 0.55032 0.0
H811 H 0.77617 0.37294 0.5713 0.0
H812 H 0.72262 0.41429 0.46903 0.0
H813 H 0.77186 0.40787 0.45913 0.0
H814 H 0.71641 0.41717 0.44012 0.0
H815 H 0.76479 0.4108 0.43039 0.0
H816 H 0.71424 0.36481 0.48229 0.0
H817 H 0.72347 0.37391 0.53131 0.0
H818 H 0.6871 0.3506 0.48927 0.0
H819 H 0.69612 0.35975 0.5374 0.0
H820 H 0.77152 0.34515 0.45321 0.0
H821 H 0.72632 0.3629 0.43695 0.0
H822 H 0.71007 0.44861 0.51524 0.0
H823 H 0.67856 0.40871 0.49669 0.0
Li824 Li 0.65246 0.9757 0.78969 0.0
Li825 Li 0.63344 0.99164 0.80115 0.0
Li826 Li 0.63167 0.98613 0.77228 0.0
Li827 Li 0.6535 0.00583 0.78221 0.0
C828 C 0.62619 0.95477 0.79714 0.0
N829 N 0.62239 0.92273 0.80909 0.0
C830 C 0.62291 0.95083 0.81313 0.0
C831 C 0.62733 0.94242 0.78718 0.0
C832 C 0.62107 0.93455 0.81895 0.0
C833 C 0.62545 0.9263 0.79346 0.0
C834 C 0.66405 0.99985 0.81717 0.0
C835 C 0.67096 0.02171 0.83417 0.0
N836 N 0.67698 0.01118 0.84535 0.0
C837 C 0.67049 0.98929 0.82876 0.0
C838 C 0.66445 0.01623 0.81983 0.0
C839 C 0.67689 0.99523 0.84295 0.0
C840 C 0.67584 0.95566 0.78255 0.0
N841 N 0.6656 0.95837 0.79391 0.0
C842 C 0.67467 0.9368 0.81105 0.0
C843 C 0.6649 0.94929 0.808 0.0
C844 C 0.68535 0.93367 0.79952 0.0
C845 C 0.68583 0.94331 0.7851 0.0
H846 H 0.6764 0.96321 0.77156 0.0
H847 H 0.65681 0.95178 0.81693 0.0
C848 C 0.60573 0.99899 0.81537 0.0
N849 N 0.62078 0.99452 0.81885 0.0
C850 C 0.59599 0.00242 0.82741 0.0
C851 C 0.61717 0.99605 0.84652 0.0
C852 C 0.62648 0.99268 0.83409 0.0
C853 C 0.60177 0.00117 0.84324 0.0
H854 H 0.60143 1.00023 0.80315 0.0
H855 H 0.63825 0.98866 0.83666 0.0
C856 C 0.65608 0.98557 0.75287 0.0
N857 N 0.65662 0.98106 0.72097 0.0
C858 C 0.66123 0.99859 0.74207 0.0
C859 C 0.65141 0.97022 0.74749 0.0
C860 C 0.66137 0.99607 0.72597 0.0
C861 C 0.6517 0.9682 0.7313 0.0
C862 C 0.62497 0.02171 0.78184 0.0
C863 C 0.61736 0.02838 0.76826 0.0
C864 C 0.62748 0.03054 0.79524 0.0
C865 C 0.61271 0.04394 0.7682 0.0
C866 C 0.62264 0.04605 0.79472 0.0
N867 N 0.61544 0.05239 0.78131 0.0
C868 C 0.60538 0.9695 0.75511 0.0
C869 C 0.61865 0.99319 0.74158 0.0
C870 C 0.59454 0.96697 0.74221 0.0
N871 N 0.61713 0.98244 0.75455 0.0
C872 C 0.60823 0.99102 0.72837 0.0
C873 C 0.59594 0.9778 0.72859 0.0
H874 H 0.60435 0.96121 0.76562 0.0
H875 H 0.62792 0.00352 0.74155 0.0
C876 C 0.68187 0.02848 0.78426 0.0
N877 N 0.66698 0.02562 0.77696 0.0
C878 C 0.69168 0.04315 0.78092 0.0
C879 C 0.67088 0.05142 0.76222 0.0
C880 C 0.66151 0.03659 0.76591 0.0
C881 C 0.68614 0.05492 0.76987 0.0
H882 H 0.68607 0.01941 0.79279 0.0
H883 H 0.6499 0.0338 0.75986 0.0
O884 O 0.62814 0.97063 0.79126 0.0
O885 O 0.65772 0.99419 0.80321 0.0
O886 O 0.65563 0.98786 0.76864 0.0
O887 O 0.62963 0.00648 0.78208 0.0
H888 H 0.62193 0.96023 0.82099 0.0
H889 H 0.62972 0.94526 0.77475 0.0
H890 H 0.61863 0.93132 0.83132 0.0
H891 H 0.6264 0.91662 0.78591 0.0
H892 H 0.67131 0.03435 0.83637 0.0
H893 H 0.67047 0.97663 0.82687 0.0
H894 H 0.65999 0.02469 0.81085 0.0
H895 H 0.68181 0.98716 0.85206 0.0
H896 H 0.67378 0.92961 0.82229 0.0
H897 H 0.69407 0.94155 0.77597 0.0
H898 H 0.58424 0.00645 0.82432 0.0
H899 H 0.62196 0.99464 0.85857 0.0
H900 H 0.66499 0.01052 0.74604 0.0
H901 H 0.6475 0.96001 0.75571 0.0
H902 H 0.66524 0.00605 0.71746 0.0
H903 H 0.64801 0.95641 0.72696 0.0
H904 H 0.61512 0.02166 0.75785 0.0
H905 H 0.63289 0.02542 0.806 0.0
H906 H 0.60691 0.04929 0.75772 0.0
H907 H 0.62454 0.05302 0.80501 0.0
H908 H 0.58526 0.95659 0.74281 0.0
H909 H 0.60957 0.99979 0.7182 0.0
H910 H 0.70333 0.04536 0.78714 0.0
H911 H 0.6663 0.05997 0.75336 0.0
Li912 Li 0.02185 0.26772 0.88767 0.0
Li913 Li 0.00644 0.28022 0.90781 0.0
Li914 Li 0.00775 0.24994 0.90783 0.0
Li915 Li 0.99252 0.26381 0.88778 0.0
C916 C 0.04203 0.27277 0.91257 0.0
N917 N 0.07496 0.28331 0.91467 0.0
C918 C 0.04742 0.28859 0.91637 0.0
C919 C 0.0534 0.26226 0.90997 0.0
C920 C 0.06412 0.2937 0.91736 0.0
C921 C 0.07 0.26784 0.91104 0.0
C922 C 0.99962 0.29223 0.87201 0.0
C923 C 0.9805 0.31006 0.86109 0.0
N924 N 0.98353 0.30623 0.84628 0.0
C925 C 0.00263 0.28853 0.85669 0.0
C926 C 0.98853 0.30311 0.87426 0.0
C927 C 0.99433 0.29572 0.84383 0.0
C928 C 0.04149 0.25961 0.86405 0.0
N929 N 0.04012 0.27111 0.87425 0.0
C930 C 0.06442 0.28675 0.86465 0.0
C931 C 0.05108 0.28467 0.87452 0.0
C932 C 0.06629 0.27489 0.8542 0.0
C933 C 0.05455 0.26122 0.85395 0.0
H934 H 0.03238 0.24919 0.86369 0.0
H935 H 0.04946 0.29388 0.88239 0.0
C936 C 0.00173 0.29405 0.93605 0.0
N937 N 0.00588 0.29771 0.92071 0.0
C938 C 1.00066 0.30641 0.94599 0.0
C939 C 0.00864 0.32608 0.92429 0.0
C940 C 0.00939 0.31332 0.91471 0.0
C941 C 0.00409 0.32268 0.94013 0.0
H942 H 0.99909 0.28149 0.9405 0.0
H943 H 0.01275 0.31585 0.90247 0.0
C944 C 0.00774 0.23126 0.88492 0.0
N945 N 0.00864 0.19812 0.88626 0.0
C946 C 0.99346 0.22079 0.8825 0.0
C947 C 0.02247 0.22485 0.88797 0.0
C948 C 0.99417 0.20408 0.88322 0.0
C949 C 0.02267 0.20807 0.88863 0.0
C950 C 0.9723 0.26004 0.91207 0.0
C951 C 0.96299 0.24589 0.90758 0.0
C952 C 0.96459 0.27236 0.91765 0.0
C953 C 0.94608 0.24433 0.9087 0.0
C954 C 0.94765 0.27033 0.91862 0.0
N955 N 0.93882 0.25647 0.91416 0.0
C956 C 0.02305 0.22973 0.93068 0.0
C957 C 0.9969 0.21832 0.92204 0.0
C958 C 0.02514 0.2156 0.94019 0.0
N959 N 0.0092 0.23075 0.92167 0.0
C960 C 0.99852 0.20391 0.93125 0.0
C961 C 0.01285 0.20234 0.94043 0.0
H962 H 0.03254 0.23985 0.93042 0.0
H963 H 0.98597 0.21939 0.91488 0.0
C964 C 0.97455 0.25326 0.86095 0.0
N965 N 0.97385 0.26237 0.87344 0.0
C966 C 0.96145 0.25123 0.85013 0.0
C967 C 0.94739 0.26873 0.86467 0.0
C968 C 0.9608 0.27043 0.87521 0.0
C969 C 0.94751 0.25882 0.85204 0.0
H970 H 0.98534 0.24757 0.85935 0.0
H971 H 0.96076 0.27817 0.88482 0.0
O972 O 0.02572 0.2676 0.9114 0.0
O973 O 0.00729 0.28498 0.88476 0.0
O974 O 0.00728 0.24767 0.88452 0.0
O975 O 0.98889 0.26179 0.91112 0.0
H976 H 0.03883 0.29688 0.91847 0.0
H977 H 0.04948 0.24998 0.90705 0.0
H978 H 0.06845 0.30593 0.92023 0.0
H979 H 0.07892 0.25987 0.90895 0.0
H980 H 0.9718 0.31842 0.86264 0.0
H981 H 0.01113 0.28006 0.85479 0.0
H982 H 0.98599 0.30599 0.88607 0.0
H983 H 0.99644 0.2929 0.83191 0.0
H984 H 0.07303 0.29761 0.86503 0.0
H985 H 0.05554 0.25173 0.84616 0.0
H986 H 0.9973 0.30326 0.95817 0.0
H987 H 0.01129 0.33846 0.91929 0.0
H988 H 0.98189 0.22544 0.88036 0.0
H989 H 0.03362 0.23273 0.88993 0.0
H990 H 0.98321 0.19584 0.88145 0.0
H991 H 0.03398 0.20296 0.89106 0.0
H992 H 0.96869 0.23638 0.90294 0.0
H993 H 0.97156 0.28345 0.92107 0.0
H994 H 0.93872 0.2335 0.90514 0.0
H995 H 0.94152 0.27979 0.92288 0.0
H996 H 0.03625 0.21512 0.94731 0.0
H997 H 0.98879 0.19399 0.93088 0.0
H998 H 0.96228 0.24387 0.8403 0.0
H999 H 0.93693 0.27486 0.86659 0.0
Li1000 Li 0.52214 0.76986 0.38933 0.0
Li1001 Li 0.50708 0.78134 0.40802 0.0
Li1002 Li 0.5087 0.75095 0.40961 0.0
Li1003 Li 0.49277 0.76565 0.38821 0.0
C1004 C 0.5428 0.77186 0.41466 0.0
N1005 N 0.57629 0.77734 0.41844 0.0
C1006 C 0.5512 0.78681 0.40943 0.0
C1007 C 0.55147 0.75969 0.42182 0.0
C1008 C 0.56812 0.78934 0.41143 0.0
C1009 C 0.56838 0.7627 0.42363 0.0
C1010 C 0.50719 0.80273 0.38394 0.0
C1011 C 0.49343 0.82631 0.38606 0.0
N1012 N 0.50764 0.836 0.38334 0.0
C1013 C 0.52165 0.81294 0.38108 0.0
C1014 C 0.49294 0.80947 0.38636 0.0
C1015 C 0.52163 0.82972 0.38084 0.0
C1016 C 0.53931 0.78156 0.36185 0.0
N1017 N 0.54044 0.77228 0.37572 0.0
C1018 C 0.56607 0.765 0.36859 0.0
C1019 C 0.55339 0.76388 0.37912 0.0
C1020 C 0.56532 0.77464 0.35425 0.0
C1021 C 0.55168 0.78298 0.35094 0.0
H1022 H 0.52859 0.78759 0.3591 0.0
H1023 H 0.55375 0.75599 0.38985 0.0
C1024 C 0.49236 0.79792 0.4302 0.0
N1025 N 0.50573 0.79877 0.42125 0.0
C1026 C 0.49062 0.81016 0.4401 0.0
C1027 C 0.51654 0.82392 0.43155 0.0
C1028 C 0.51777 0.81141 0.42182 0.0
C1029 C 0.50282 0.8234 0.44088 0.0
H1030 H 0.48307 0.78766 0.42979 0.0
H1031 H 0.5283 0.81188 0.41467 0.0
C1032 C 0.51525 0.74209 0.37566 0.0
N1033 N 0.53148 0.72877 0.3531 0.0
C1034 C 0.51218 0.74608 0.35957 0.0
C1035 C 0.52646 0.73125 0.3803 0.0
C1036 C 0.52055 0.73924 0.34834 0.0
C1037 C 0.53456 0.72466 0.36871 0.0
C1038 C 0.47302 0.75808 0.41196 0.0
C1039 C 0.46729 0.74185 0.41605 0.0
C1040 C 0.46192 0.7692 0.40794 0.0
C1041 C 0.45053 0.73697 0.41584 0.0
C1042 C 0.44526 0.76384 0.40785 0.0
N1043 N 0.43996 0.74797 0.41175 0.0
C1044 C 0.51597 0.73205 0.43763 0.0
C1045 C 0.50411 0.71714 0.41652 0.0
C1046 C 0.51763 0.71771 0.44697 0.0
N1047 N 0.50957 0.73147 0.42264 0.0
C1048 C 0.5053 0.70252 0.42552 0.0
C1049 C 0.51235 0.70271 0.44087 0.0
H1050 H 0.52007 0.74365 0.44222 0.0
H1051 H 0.49898 0.71709 0.40457 0.0
C1052 C 0.46982 0.77501 0.36444 0.0
N1053 N 0.47414 0.76253 0.37439 0.0
C1054 C 0.45635 0.77263 0.35405 0.0
C1055 C 0.45213 0.74454 0.36428 0.0
C1056 C 0.46573 0.74746 0.37439 0.0
C1057 C 0.44729 0.75721 0.35387 0.0
H1058 H 0.47695 0.78678 0.36441 0.0
H1059 H 0.46962 0.73768 0.38225 0.0
O1060 O 0.52622 0.76915 0.41284 0.0
O1061 O 0.50698 0.78624 0.3844 0.0
O1062 O 0.50752 0.749 0.38682 0.0
O1063 O 0.4894 0.76303 0.4118 0.0
H1064 H 0.54477 0.79623 0.40359 0.0
H1065 H 0.54525 0.74797 0.42578 0.0
H1066 H 0.57476 0.80083 0.40734 0.0
H1067 H 0.57523 0.75337 0.42911 0.0
H1068 H 0.48251 0.83167 0.38802 0.0
H1069 H 0.53282 0.808 0.37922 0.0
H1070 H 0.48165 0.80179 0.38858 0.0
H1071 H 0.53275 0.83775 0.37873 0.0
H1072 H 0.57634 0.75837 0.37169 0.0
H1073 H 0.55037 0.79024 0.33987 0.0
H1074 H 0.47997 0.80911 0.44727 0.0
H1075 H 0.52616 0.83398 0.43164 0.0
H1076 H 0.50356 0.7545 0.35582 0.0
H1077 H 0.52907 0.72817 0.39272 0.0
H1078 H 0.5184 0.74228 0.33584 0.0
H1079 H 0.54336 0.71635 0.37212 0.0
H1080 H 0.47568 0.73309 0.41927 0.0
H1081 H 0.46611 0.78181 0.4048 0.0
H1082 H 0.44594 0.72442 0.4189 0.0
H1083 H 0.43654 0.7723 0.40464 0.0
H1084 H 0.52296 0.71833 0.45883 0.0
H1085 H 0.50116 0.69119 0.42039 0.0
H1086 H 0.4533 0.78267 0.34603 0.0
H1087 H 0.44545 0.73251 0.3647 0.0
Li1088 Li 0.01403 0.77591 0.63822 0.0
Li1089 Li 0.99679 0.76175 0.65909 0.0
Li1090 Li 0.02688 0.75937 0.65877 0.0
Li1091 Li 0.00786 0.74538 0.63993 0.0
C1092 C 0.01879 0.79516 0.66232 0.0
N1093 N 0.02484 0.82841 0.66362 0.0
C1094 C 0.00661 0.8039 0.66682 0.0
C1095 C 0.03413 0.80331 0.65873 0.0
C1096 C 0.00988 0.82071 0.66735 0.0
C1097 C 0.03693 0.82013 0.65937 0.0
C1098 C 0.97664 0.76099 0.63143 0.0
C1099 C 0.9506 0.7449 0.62824 0.0
N1100 N 0.94397 0.75847 0.62265 0.0
C1101 C 0.96963 0.77473 0.62542 0.0
C1102 C 0.96711 0.74591 0.63266 0.0
C1103 C 0.95307 0.77323 0.62114 0.0
C1104 C 0.02815 0.79542 0.61247 0.0
N1105 N 0.01699 0.79482 0.62388 0.0
C1106 C 0.01027 0.8211 0.61455 0.0
C1107 C 0.00797 0.80722 0.625 0.0
C1108 C 0.02186 0.82217 0.60274 0.0
C1109 C 0.0308 0.80903 0.60175 0.0
H1110 H 0.03492 0.78527 0.61161 0.0
H1111 H 0.999 0.80635 0.63402 0.0
C1112 C 0.97776 0.75444 0.68636 0.0
N1113 N 0.97894 0.76338 0.67221 0.0
C1114 C 0.96504 0.75568 0.69635 0.0
C1115 C 0.9552 0.77559 0.67721 0.0
C1116 C 0.96806 0.7739 0.66757 0.0
C1117 C 0.95353 0.76639 0.69183 0.0
H1118 H 0.98676 0.74641 0.68996 0.0
H1119 H 0.96959 0.78133 0.65656 0.0
C1120 C 0.04455 0.75726 0.63317 0.0
N1121 N 0.07664 0.753 0.62914 0.0
C1122 C 0.04854 0.74225 0.62938 0.0
C1123 C 0.05686 0.77016 0.63466 0.0
C1124 C 0.06484 0.74032 0.62744 0.0
C1125 C 0.07302 0.76775 0.63266 0.0
C1126 C 0.00283 0.72669 0.66895 0.0
C1127 C 0.01365 0.71631 0.67578 0.0
C1128 C 0.9862 0.72121 0.668 0.0
C1129 C 0.0077 0.70049 0.68121 0.0
C1130 C 0.98072 0.70531 0.67357 0.0
N1131 N 0.99149 0.69536 0.67998 0.0
C1132 C 0.05137 0.76891 0.68163 0.0
C1133 C 0.05442 0.74445 0.67028 0.0
C1134 C 0.0656 0.76781 0.69087 0.0
N1135 N 0.04615 0.75738 0.67151 0.0
C1136 C 0.06876 0.74292 0.67921 0.0
C1137 C 0.07457 0.75472 0.68969 0.0
H1138 H 0.04443 0.77892 0.6826 0.0
H1139 H 0.0499 0.73533 0.6623 0.0
C1140 C 0.99625 0.72891 0.61328 0.0
N1141 N 0.00388 0.72698 0.6277 0.0
C1142 C 0.99393 0.71617 0.60338 0.0
C1143 C 0.00748 0.69969 0.62329 0.0
C1144 C 0.00949 0.71274 0.63282 0.0
C1145 C 0.9997 0.70134 0.60829 0.0
H1146 H 0.99223 0.74048 0.60934 0.0
H1147 H 0.01597 0.71163 0.64409 0.0
O1148 O 0.01574 0.77872 0.66155 0.0
O1149 O 0.99285 0.76226 0.63567 0.0
O1150 O 0.02866 0.75932 0.63529 0.0
O1151 O 0.00848 0.74221 0.66354 0.0
H1152 H 0.99473 0.79781 0.66983 0.0
H1153 H 0.04376 0.79673 0.65547 0.0
H1154 H 1.00053 0.82763 0.67072 0.0
H1155 H 0.04872 0.82659 0.65652 0.0
H1156 H 0.94308 0.73331 0.62918 0.0
H1157 H 0.97685 0.78646 0.62419 0.0
H1158 H 0.97241 0.73507 0.63679 0.0
H1159 H 0.94746 0.78379 0.6166 0.0
H1160 H 0.00318 0.83097 0.61586 0.0
H1161 H 0.03963 0.80916 0.59264 0.0
H1162 H 0.9642 0.74825 0.70746 0.0
H1163 H 0.94689 0.7843 0.67338 0.0
H1164 H 0.03919 0.73217 0.62803 0.0
H1165 H 0.05399 0.78192 0.63733 0.0
H1166 H 0.06811 0.72874 0.62461 0.0
H1167 H 0.08267 0.77761 0.63388 0.0
H1168 H 0.02653 0.72039 0.6768 0.0
H1169 H 0.9776 0.7292 0.66322 0.0
H1170 H 0.01596 0.6923 0.68641 0.0
H1171 H 0.96788 0.70092 0.67287 0.0
H1172 H 0.06941 0.77703 0.69901 0.0
H1173 H 0.07531 0.7327 0.67776 0.0
H1174 H 0.98812 0.71808 0.59181 0.0
H1175 H 0.01207 0.68846 0.62758 0.0
Li1176 Li 0.51457 0.27552 0.1381 0.0
Li1177 Li 0.49873 0.26081 0.15937 0.0
Li1178 Li 0.52831 0.25952 0.15936 0.0
Li1179 Li 0.50989 0.24551 0.14071 0.0
C1180 C 0.52765 0.29198 0.16425 0.0
N1181 N 0.55005 0.31814 0.17096 0.0
C1182 C 0.5256 0.30082 0.17719 0.0
C1183 C 0.5411 0.29643 0.15473 0.0
C1184 C 0.53705 0.31401 0.18039 0.0
C1185 C 0.55229 0.30969 0.15831 0.0
C1186 C 0.47786 0.26349 0.13563 0.0
C1187 C 0.44942 0.2529 0.13561 0.0
N1188 N 0.44545 0.26825 0.13567 0.0
C1189 C 0.4735 0.27917 0.13554 0.0
C1190 C 0.46574 0.25025 0.13554 0.0
C1191 C 0.45705 0.28132 0.13562 0.0
C1192 C 0.52161 0.29223 0.10872 0.0
N1193 N 0.51667 0.29415 0.12346 0.0
C1194 C 0.51531 0.32238 0.11675 0.0
C1195 C 0.51338 0.3088 0.12763 0.0
C1196 C 0.52074 0.32083 0.10152 0.0
C1197 C 0.52383 0.30549 0.09753 0.0
H1198 H 0.52381 0.28037 0.10568 0.0
H1199 H 0.50935 0.30995 0.13941 0.0
C1200 C 0.4721 0.24975 0.1797 0.0
N1201 N 0.48108 0.26291 0.17259 0.0
C1202 C 0.4594 0.25173 0.18944 0.0
C1203 C 0.46545 0.28077 0.1844 0.0
C1204 C 0.47805 0.27822 0.1748 0.0
C1205 C 0.45594 0.26741 0.19192 0.0
H1206 H 0.47479 0.23772 0.17792 0.0
H1207 H 0.48547 0.28849 0.16909 0.0
C1208 C 0.54229 0.25101 0.13158 0.0
N1209 N 0.56574 0.23312 0.12235 0.0
C1210 C 0.54692 0.23802 0.14148 0.0
C1211 C 0.54966 0.25497 0.11701 0.0
C1212 C 0.55877 0.22911 0.13661 0.0
C1213 C 0.56147 0.24576 0.11254 0.0
C1214 C 0.50697 0.22532 0.16718 0.0
C1215 C 0.51837 0.21609 0.17488 0.0
C1216 C 0.49185 0.21763 0.16229 0.0
C1217 C 0.51445 0.19931 0.17748 0.0
C1218 C 0.4884 0.20083 0.16509 0.0
N1219 N 0.49968 0.19209 0.17257 0.0
C1220 C 0.54637 0.25248 0.18745 0.0
C1221 C 0.56235 0.26522 0.16633 0.0
C1222 C 0.5603 0.25121 0.1971 0.0
N1223 N 0.54766 0.25918 0.17232 0.0
C1224 C 0.57658 0.26439 0.17562 0.0
C1225 C 0.57566 0.25714 0.19116 0.0
H1226 H 0.5345 0.24795 0.19194 0.0
H1227 H 0.56306 0.27048 0.15425 0.0
C1228 C 0.49698 0.22885 0.11466 0.0
N1229 N 0.50653 0.22726 0.128 0.0
C1230 C 0.49464 0.21651 0.10428 0.0
C1231 C 0.51191 0.20104 0.12158 0.0
C1232 C 0.51396 0.21369 0.13158 0.0
C1233 C 0.50224 0.20239 0.10763 0.0
H1234 H 0.4914 0.23985 0.11193 0.0
H1235 H 0.52161 0.21264 0.14214 0.0
O1236 O 0.51654 0.279 0.16105 0.0
O1237 O 0.49392 0.26112 0.13598 0.0
O1238 O 0.53071 0.25993 0.13614 0.0
O1239 O 0.51061 0.24177 0.16446 0.0
H1240 H 0.51525 0.2975 0.18468 0.0
H1241 H 0.5429 0.28974 0.14466 0.0
H1242 H 0.53562 0.32096 0.19036 0.0
H1243 H 0.56275 0.31327 0.15104 0.0
H1244 H 0.43991 0.24276 0.13561 0.0
H1245 H 0.48273 0.28954 0.13565 0.0
H1246 H 0.46889 0.23805 0.13539 0.0
H1247 H 0.45351 0.29338 0.13569 0.0
H1248 H 0.51289 0.33402 0.12032 0.0
H1249 H 0.52776 0.30373 0.08583 0.0
H1250 H 0.45228 0.24108 0.19487 0.0
H1251 H 0.46337 0.29307 0.18614 0.0
H1252 H 0.54137 0.23478 0.15279 0.0
H1253 H 0.54635 0.26505 0.10922 0.0
H1254 H 0.56241 0.21899 0.14415 0.0
H1255 H 0.56726 0.24868 0.10128 0.0
H1256 H 0.53016 0.22177 0.17872 0.0
H1257 H 0.48295 0.22453 0.15618 0.0
H1258 H 0.52318 0.19202 0.18337 0.0
H1259 H 0.47677 0.19473 0.16128 0.0
H1260 H 0.55909 0.24572 0.20909 0.0
H1261 H 0.58821 0.26901 0.17059 0.0
H1262 H 0.48727 0.2182 0.09355 0.0
H1263 H 0.51784 0.19031 0.12478 0.0
C1264 C 0.25014 0.76678 0.83194 0.0
C1265 C 0.23487 0.75878 0.82755 0.0
C1266 C 0.25167 0.77681 0.84451 0.0
C1267 C 0.22723 0.79984 0.86825 0.0
H1268 H 0.26496 0.80124 0.89697 0.0
C1269 C 0.23889 0.847 0.91492 0.0
C1270 C 0.245 0.84179 0.92995 0.0
C1271 C 0.23802 0.83699 0.90238 0.0
C1272 C 0.25427 0.8009 0.88914 0.0
H1273 H 0.20937 0.75453 0.83327 0.0
H1274 H 0.21204 0.77178 0.85532 0.0
H1275 H 0.26258 0.78311 0.87562 0.0
H1276 H 0.25526 0.822 0.94345 0.0
H1277 H 0.25325 0.80436 0.92175 0.0
H1278 H 0.21867 0.81725 0.88203 0.0
C1279 C 0.22278 0.7707 0.84881 0.0
C1280 C 0.25301 0.79065 0.87676 0.0
C1281 C 0.22124 0.76076 0.8362 0.0
C1282 C 0.25026 0.82633 0.9321 0.0
C1283 C 0.24933 0.81629 0.91958 0.0
C1284 C 0.22846 0.81003 0.88066 0.0
C1285 C 0.23798 0.77898 0.85304 0.0
C1286 C 0.23945 0.78996 0.86618 0.0
C1287 C 0.24318 0.82148 0.90456 0.0
C1288 C 0.24198 0.8107 0.89127 0.0
H1289 H 0.26083 0.7656 0.82539 0.0
H1290 H 0.26353 0.78315 0.84731 0.0
H1291 H 0.21672 0.79981 0.86021 0.0
H1292 H 0.23457 0.85876 0.91286 0.0
H1293 H 0.23341 0.84148 0.89093 0.0
C1294 C 0.00917 0.54555 0.43608 0.0
C1295 C 0.01702 0.55683 0.44615 0.0
C1296 C 0.01815 0.53811 0.42579 0.0
C1297 C 0.05966 0.52895 0.41842 0.0
H1298 H 0.04346 0.52722 0.37492 0.0
C1299 C 0.09934 0.51524 0.36779 0.0
C1300 C 0.09186 0.506 0.35575 0.0
C1301 C 0.09007 0.52019 0.37951 0.0
C1302 C 0.04805 0.52736 0.38707 0.0
H1303 H 0.04037 0.56853 0.45412 0.0
H1304 H 0.05616 0.55564 0.43604 0.0
H1305 H 0.02754 0.53794 0.39425 0.0
H1306 H 0.06884 0.49421 0.34691 0.0
H1307 H 0.05267 0.50272 0.36743 0.0
H1308 H 0.08022 0.51845 0.41121 0.0
C1309 C 0.04307 0.55256 0.43602 0.0
C1310 C 0.03892 0.53353 0.39815 0.0
C1311 C 0.03406 0.56003 0.44628 0.0
C1312 C 0.07493 0.50153 0.35589 0.0
C1313 C 0.06567 0.50643 0.36764 0.0
C1314 C 0.06878 0.52273 0.40734 0.0
C1315 C 0.03519 0.54168 0.4255 0.0
C1316 C 0.04466 0.53449 0.41393 0.0
C1317 C 0.0731 0.51597 0.3795 0.0
C1318 C 0.06314 0.52196 0.3915 0.0
H1319 H 0.99605 0.54266 0.43602 0.0
H1320 H 0.01176 0.52956 0.41804 0.0
H1321 H 0.06431 0.52933 0.43054 0.0
H1322 H 0.11232 0.51907 0.36789 0.0
H1323 H 0.09618 0.52772 0.38831 0.0
C1324 C 0.80383 0.78414 0.8718 0.0
C1325 C 0.80572 0.77828 0.85696 0.0
C1326 C 0.80361 0.77373 0.88562 0.0
C1327 C 0.81605 0.73464 0.90214 0.0
H1328 H 0.78316 0.73655 0.93294 0.0
C1329 C 0.80378 0.68553 0.95392 0.0
C1330 C 0.7996 0.69048 0.96852 0.0
C1331 C 0.80527 0.69656 0.94056 0.0
C1332 C 0.79259 0.736 0.9246 0.0
H1333 H 0.80864 0.75676 0.84508 0.0
H1334 H 0.80846 0.7387 0.8692 0.0
H1335 H 0.78439 0.75527 0.90927 0.0
H1336 H 0.79431 0.71102 0.9807 0.0
H1337 H 0.79715 0.73033 0.95749 0.0
H1338 H 0.82433 0.71543 0.91747 0.0
C1339 C 0.80733 0.75139 0.87014 0.0
C1340 C 0.79326 0.74673 0.91101 0.0
C1341 C 0.80746 0.76177 0.85632 0.0
C1342 C 0.7973 0.70678 0.96955 0.0
C1343 C 0.79888 0.71784 0.95623 0.0
C1344 C 0.81545 0.72397 0.91578 0.0
C1345 C 0.80536 0.75724 0.88494 0.0
C1346 C 0.80494 0.74611 0.89958 0.0
C1347 C 0.80271 0.71284 0.94151 0.0
C1348 C 0.80366 0.72446 0.92716 0.0
H1349 H 0.80273 0.79683 0.87278 0.0
H1350 H 0.80227 0.77864 0.89688 0.0
H1351 H 0.82534 0.73402 0.89365 0.0
H1352 H 0.80544 0.673 0.95272 0.0
H1353 H 0.808 0.69222 0.92939 0.0
C1354 C 0.00371 0.98055 0.43808 0.0
C1355 C 0.01619 0.99295 0.44127 0.0
C1356 C 0.99437 0.98148 0.42398 0.0
C1357 C 0.9939 0.002 0.38348 0.0
H1358 H 0.9472 0.99045 0.38577 0.0
C1359 C 0.9491 0.01755 0.33192 0.0
C1360 C 0.93588 0.00583 0.3288 0.0
C1361 C 0.95932 0.01541 0.34529 0.0
C1362 C 0.96024 0.99352 0.38488 0.0
H1363 H 0.02927 0.01564 0.43205 0.0
H1364 H 0.01282 0.01748 0.40748 0.0
H1365 H 0.96435 0.98763 0.40964 0.0
H1366 H 0.92332 0.98245 0.33706 0.0
H1367 H 0.9411 0.97876 0.36039 0.0
H1368 H 0.98973 0.00804 0.35871 0.0
C1369 C 0.01022 0.007 0.41581 0.0
C1370 C 0.97008 0.9919 0.39857 0.0
C1371 C 0.01956 0.00604 0.42991 0.0
C1372 C 0.93322 0.99185 0.33927 0.0
C1373 C 0.94342 0.98972 0.35264 0.0
C1374 C 0.98404 0.00365 0.36978 0.0
C1375 C 0.9974 0.99481 0.41275 0.0
C1376 C 0.98702 0.99616 0.39805 0.0
C1377 C 0.95654 0.00152 0.35585 0.0
C1378 C 0.96709 0.99947 0.37033 0.0
H1379 H 1.00111 0.9702 0.44658 0.0
H1380 H 0.9848 0.97174 0.42186 0.0
H1381 H 0.00692 0.00517 0.38261 0.0
H1382 H 0.95137 0.02856 0.32423 0.0
H1383 H 0.96918 0.02484 0.34754 0.0
C1384 C 0.2332 0.26189 0.68662 0.0
C1385 C 0.21917 0.25659 0.69523 0.0
C1386 C 0.23938 0.25155 0.67682 0.0
C1387 C 0.22677 0.21521 0.65513 0.0
H1388 H 0.2732 0.21487 0.65121 0.0
C1389 C 0.25236 0.17086 0.6166 0.0
C1390 C 0.2655 0.17721 0.60708 0.0
C1391 C 0.24724 0.17986 0.62827 0.0
C1392 C 0.2602 0.21493 0.65207 0.0
H1393 H 0.20112 0.23616 0.70117 0.0
H1394 H 0.21192 0.21798 0.6841 0.0
H1395 H 0.26336 0.23177 0.67006 0.0
H1396 H 0.28359 0.19802 0.60242 0.0
H1397 H 0.27465 0.21373 0.62274 0.0
H1398 H 0.22358 0.19852 0.63704 0.0
C1399 C 0.21794 0.23024 0.68457 0.0
C1400 C 0.25456 0.22461 0.66288 0.0
C1401 C 0.21178 0.24059 0.69438 0.0
C1402 C 0.27357 0.19267 0.60969 0.0
C1403 C 0.26844 0.20168 0.62135 0.0
C1404 C 0.2324 0.20554 0.64433 0.0
C1405 C 0.23171 0.23565 0.67553 0.0
C1406 C 0.23777 0.22493 0.66448 0.0
C1407 C 0.25512 0.19544 0.6307 0.0
C1408 C 0.24919 0.20534 0.6426 0.0
H1409 H 0.23922 0.27413 0.68729 0.0
H1410 H 0.24994 0.25615 0.66995 0.0
H1411 H 0.21377 0.21536 0.65586 0.0
H1412 H 0.24604 0.15888 0.61508 0.0
H1413 H 0.23712 0.17457 0.63544 0.0
C1414 C 0.50987 0.5522 0.58362 0.0
C1415 C 0.51325 0.53845 0.57635 0.0
C1416 C 0.49991 0.5506 0.59668 0.0
C1417 C 0.48437 0.52226 0.62947 0.0
H1418 H 0.45058 0.55055 0.62987 0.0
C1419 C 0.44829 0.52855 0.68524 0.0
C1420 C 0.43136 0.52833 0.68307 0.0
C1421 C 0.45824 0.52938 0.6722 0.0
C1422 C 0.45991 0.54251 0.62989 0.0
H1423 H 0.5089 0.51218 0.57733 0.0
H1424 H 0.49172 0.50939 0.60041 0.0
H1425 H 0.46807 0.55254 0.60712 0.0
H1426 H 0.41159 0.52905 0.66555 0.0
H1427 H 0.42899 0.53059 0.64274 0.0
H1428 H 0.47621 0.51227 0.65229 0.0
C1429 C 0.49682 0.52141 0.59591 0.0
C1430 C 0.47 0.54374 0.61694 0.0
C1431 C 0.5067 0.52302 0.58273 0.0
C1432 C 0.42459 0.52909 0.66758 0.0
C1433 C 0.43455 0.53009 0.65454 0.0
C1434 C 0.47438 0.52114 0.64252 0.0
C1435 C 0.4932 0.5352 0.60292 0.0
C1436 C 0.48235 0.53365 0.6166 0.0
C1437 C 0.45147 0.53019 0.65671 0.0
C1438 C 0.46204 0.53127 0.64285 0.0
H1439 H 0.51502 0.56426 0.5793 0.0
H1440 H 0.49757 0.56143 0.60201 0.0
H1441 H 0.49386 0.51439 0.62957 0.0
H1442 H 0.45383 0.52783 0.69705 0.0
H1443 H 0.47125 0.52957 0.67423 0.0
C1444 C 0.79008 0.27724 0.69057 0.0
C1445 C 0.77696 0.26638 0.69632 0.0
C1446 C 0.78871 0.28605 0.67591 0.0
C1447 C 0.76439 0.28665 0.63818 0.0
H1448 H 0.78257 0.33191 0.63411 0.0
C1449 C 0.75088 0.33013 0.58379 0.0
C1450 C 0.76397 0.34103 0.57787 0.0
C1451 C 0.75266 0.32067 0.59801 0.0
C1452 C 0.77759 0.31923 0.635 0.0
H1453 H 0.7523 0.25576 0.69119 0.0
H1454 H 0.74971 0.27135 0.6657 0.0
H1455 H 0.78531 0.31606 0.65934 0.0
H1456 H 0.78933 0.35016 0.5821 0.0
H1457 H 0.79238 0.33375 0.60695 0.0
H1458 H 0.75654 0.28991 0.61385 0.0
C1459 C 0.76113 0.27303 0.67241 0.0
C1460 C 0.77917 0.31014 0.64946 0.0
C1461 C 0.76254 0.2642 0.68705 0.0
C1462 C 0.77891 0.34212 0.58646 0.0
C1463 C 0.78067 0.3327 0.60069 0.0
C1464 C 0.76276 0.29577 0.62373 0.0
C1465 C 0.77418 0.28412 0.66669 0.0
C1466 C 0.77259 0.29373 0.65123 0.0
C1467 C 0.76755 0.32192 0.60667 0.0
C1468 C 0.76935 0.31216 0.62198 0.0
H1469 H 0.8014 0.27891 0.69745 0.0
H1470 H 0.7991 0.29425 0.67174 0.0
H1471 H 0.7594 0.27398 0.63905 0.0
H1472 H 0.73914 0.32915 0.5776 0.0
H1473 H 0.74226 0.31263 0.6024 0.0
C1474 C 0.51469 0.96952 0.60452 0.0
C1475 C 0.49778 0.96884 0.60594 0.0
C1476 C 0.52506 0.97001 0.61796 0.0
C1477 C 0.5267 0.97889 0.66032 0.0
H1478 H 0.56497 0.95622 0.66201 0.0
C1479 C 0.56768 0.97202 0.7169 0.0
C1480 C 0.58451 0.97557 0.71476 0.0
C1481 C 0.55687 0.97062 0.70381 0.0
C1482 C 0.55438 0.96268 0.66166 0.0
H1483 H 0.47845 0.96793 0.62256 0.0
H1484 H 0.49648 0.96846 0.64607 0.0
H1485 H 0.54645 0.95484 0.63891 0.0
H1486 H 0.60326 0.98002 0.6973 0.0
H1487 H 0.58439 0.97751 0.67445 0.0
H1488 H 0.53461 0.98654 0.68322 0.0
C1489 C 0.50181 0.96899 0.63456 0.0
C1490 C 0.54378 0.96196 0.6484 0.0
C1491 C 0.49145 0.96864 0.62109 0.0
C1492 C 0.59034 0.9774 0.6993 0.0
C1493 C 0.57955 0.97584 0.68623 0.0
C1494 C 0.53723 0.97949 0.67365 0.0
C1495 C 0.51877 0.96969 0.63317 0.0
C1496 C 0.52985 0.97015 0.64749 0.0
C1497 C 0.56269 0.97257 0.68834 0.0
C1498 C 0.55123 0.97148 0.67442 0.0
H1499 H 0.51994 0.96991 0.59298 0.0
H1500 H 0.53805 0.97088 0.61637 0.0
H1501 H 0.51626 0.98557 0.65996 0.0
H1502 H 0.56283 0.97066 0.72867 0.0
H1503 H 0.54395 0.96797 0.7058 0.0
C1504 C 0.8328 0.21889 0.76191 0.0
C1505 C 0.82308 0.231 0.75645 0.0
C1506 C 0.84614 0.22237 0.77222 0.0
C1507 C 0.87486 0.25598 0.78637 0.0
H1508 H 0.88197 0.22479 0.82173 0.0
C1509 C 0.92419 0.26895 0.83576 0.0
C1510 C 0.93313 0.25615 0.84106 0.0
C1511 C 0.91061 0.2663 0.82551 0.0
C1512 C 0.88026 0.23355 0.81182 0.0
H1513 H 0.8198 0.2563 0.75753 0.0
H1514 H 0.84317 0.2624 0.7755 0.0
H1515 H 0.8587 0.21942 0.80359 0.0
H1516 H 0.93464 0.23048 0.83989 0.0
H1517 H 0.91125 0.22594 0.82179 0.0
H1518 H 0.89652 0.27007 0.79458 0.0
C1519 C 0.84053 0.25024 0.77167 0.0
C1520 C 0.86692 0.23047 0.80143 0.0
C1521 C 0.82715 0.24675 0.76137 0.0
C1522 C 0.92816 0.24065 0.83588 0.0
C1523 C 0.91462 0.238 0.82566 0.0
C1524 C 0.88825 0.25905 0.79677 0.0
C1525 C 0.85011 0.23806 0.7773 0.0
C1526 C 0.86412 0.24159 0.78852 0.0
C1527 C 0.90564 0.25077 0.82037 0.0
C1528 C 0.89117 0.24781 0.80956 0.0
H1529 H 0.83019 0.20671 0.75811 0.0
H1530 H 0.85345 0.21279 0.7761 0.0
H1531 H 0.87313 0.26471 0.77645 0.0
H1532 H 0.92778 0.28107 0.83941 0.0
H1533 H 0.90389 0.27637 0.82176 0.0
C1534 C 0.47774 0.93199 0.52365 0.0
C1535 C 0.49149 0.93827 0.53241 0.0
C1536 C 0.47858 0.91918 0.51415 0.0
C1537 C 0.50326 0.88618 0.50765 0.0
H1538 H 0.48189 0.88763 0.46605 0.0
C1539 C 0.51486 0.8431 0.46037 0.0
C1540 C 0.50131 0.83648 0.45148 0.0
C1541 C 0.5134 0.85527 0.47046 0.0
C1542 C 0.48777 0.88695 0.4777 0.0
H1543 H 0.51679 0.93596 0.53845 0.0
H1544 H 0.51842 0.91378 0.52166 0.0
H1545 H 0.47974 0.90915 0.4834 0.0
H1546 H 0.47564 0.83763 0.44608 0.0
H1547 H 0.47305 0.85873 0.46384 0.0
H1548 H 0.51141 0.86404 0.50186 0.0
C1549 C 0.50691 0.91858 0.52222 0.0
C1550 C 0.48652 0.89928 0.48767 0.0
C1551 C 0.50604 0.93135 0.53175 0.0
C1552 C 0.48628 0.84236 0.45288 0.0
C1553 C 0.48483 0.85457 0.46293 0.0
C1554 C 0.50454 0.87388 0.49766 0.0
C1555 C 0.49322 0.91239 0.51322 0.0
C1556 C 0.49428 0.89908 0.50275 0.0
C1557 C 0.49837 0.86115 0.47186 0.0
C1558 C 0.49685 0.87414 0.48255 0.0
H1559 H 0.46636 0.93707 0.52412 0.0
H1560 H 0.46774 0.91454 0.5076 0.0
H1561 H 0.50917 0.88549 0.51928 0.0
H1562 H 0.52658 0.83873 0.4597 0.0
H1563 H 0.52411 0.8602 0.47705 0.0
C1564 C 0.19133 0.28839 0.7787 0.0
C1565 C 0.18913 0.28446 0.76286 0.0
C1566 C 0.1781 0.28699 0.78863 0.0
C1567 C 0.13341 0.28588 0.78741 0.0
H1568 H 0.13737 0.26972 0.83145 0.0
C1569 C 0.07818 0.27238 0.82786 0.0
C1570 C 0.08035 0.27666 0.84359 0.0
C1571 C 0.09145 0.27345 0.81802 0.0
C1572 C 0.13613 0.27444 0.81923 0.0
H1573 H 0.17127 0.27579 0.74511 0.0
H1574 H 0.1482 0.27304 0.76253 0.0
H1575 H 0.16048 0.27074 0.81432 0.0
H1576 H 0.0982 0.28552 0.86127 0.0
H1577 H 0.12136 0.28764 0.84399 0.0
H1578 H 0.10906 0.28958 0.79231 0.0
C1579 C 0.16016 0.27741 0.76721 0.0
C1580 C 0.14936 0.275 0.8094 0.0
C1581 C 0.17341 0.2788 0.75727 0.0
C1582 C 0.09609 0.28225 0.84918 0.0
C1583 C 0.10939 0.28328 0.83934 0.0
C1584 C 0.12017 0.28531 0.79723 0.0
C1585 C 0.16232 0.28162 0.78296 0.0
C1586 C 0.14816 0.28074 0.79337 0.0
C1587 C 0.10723 0.27882 0.82366 0.0
C1588 C 0.12137 0.27959 0.81326 0.0
H1589 H 0.20331 0.29261 0.78343 0.0
H1590 H 0.18019 0.29046 0.80065 0.0
H1591 H 0.13216 0.29063 0.77519 0.0
H1592 H 0.06619 0.26821 0.82312 0.0
H1593 H 0.08937 0.26978 0.80606 0.0
C1594 C 0.51499 0.57301 0.51948 0.0
C1595 C 0.53035 0.56965 0.52558 0.0
C1596 C 0.51349 0.58685 0.50932 0.0
C1597 C 0.53333 0.62782 0.50016 0.0
H1598 H 0.50635 0.62684 0.46168 0.0
C1599 C 0.5296 0.68517 0.45791 0.0
C1600 C 0.51455 0.68732 0.45031 0.0
C1601 C 0.53184 0.67056 0.46654 0.0
C1602 C 0.51375 0.62738 0.4725 0.0
H1603 H 0.55619 0.57795 0.5257 0.0
H1604 H 0.55355 0.60231 0.50802 0.0
H1605 H 0.50972 0.60159 0.47748 0.0
H1606 H 0.48997 0.67603 0.44596 0.0
H1607 H 0.49366 0.65068 0.46145 0.0
H1608 H 0.537 0.65357 0.49559 0.0
C1609 C 0.5427 0.59419 0.51109 0.0
C1610 C 0.51574 0.61289 0.48149 0.0
C1611 C 0.54422 0.58022 0.52108 0.0
C1612 C 0.50174 0.67462 0.45159 0.0
C1613 C 0.50391 0.66007 0.4604 0.0
C1614 C 0.53119 0.64233 0.4913 0.0
C1615 C 0.52731 0.59771 0.50523 0.0
C1616 C 0.52555 0.61298 0.4954 0.0
C1617 C 0.51902 0.65782 0.46796 0.0
C1618 C 0.52137 0.64232 0.47734 0.0
H1619 H 0.50412 0.56499 0.5227 0.0
H1620 H 0.50147 0.58932 0.50505 0.0
H1621 H 0.54077 0.62825 0.51098 0.0
H1622 H 0.53975 0.6947 0.45692 0.0
H1623 H 0.54373 0.6692 0.47191 0.0
C1624 C 0.85099 0.78081 0.78916 0.0
C1625 C 0.83587 0.78413 0.78243 0.0
C1626 C 0.86388 0.77916 0.77949 0.0
C1627 C 0.87233 0.76912 0.73939 0.0
H1628 H 0.91604 0.78926 0.74877 0.0
C1629 C 0.92442 0.77031 0.696 0.0
C1630 C 0.94003 0.76818 0.70238 0.0
C1631 C 0.91181 0.77225 0.70586 0.0
C1632 C 0.90395 0.78337 0.7461 0.0
H1633 H 0.8222 0.788 0.76039 0.0
H1634 H 0.8447 0.78515 0.74346 0.0
H1635 H 0.89393 0.79275 0.76585 0.0
H1636 H 0.95455 0.76653 0.72423 0.0
H1637 H 0.93243 0.76941 0.74145 0.0
H1638 H 0.88231 0.75958 0.71976 0.0
C1639 C 0.84663 0.78386 0.7562 0.0
C1640 C 0.89128 0.78541 0.75587 0.0
C1641 C 0.8338 0.78561 0.76587 0.0
C1642 C 0.94265 0.76794 0.7189 0.0
C1643 C 0.93001 0.76983 0.72877 0.0
C1644 C 0.88501 0.767 0.72967 0.0
C1645 C 0.8618 0.78056 0.7629 0.0
C1646 C 0.87532 0.77835 0.75259 0.0
C1647 C 0.91443 0.77204 0.72238 0.0
C1648 C 0.90097 0.77415 0.73286 0.0
H1649 H 0.85278 0.77936 0.80191 0.0
H1650 H 0.87535 0.77641 0.78501 0.0
H1651 H 0.86022 0.7633 0.7367 0.0
H1652 H 0.9219 0.77037 0.68335 0.0
H1653 H 0.90003 0.77412 0.70049 0.0
C1654 C 0.03413 0.94277 0.50749 0.0
C1655 C 0.0502 0.9474 0.50269 0.0
C1656 C 0.03048 0.92936 0.51834 0.0
C1657 C 0.04958 0.9042 0.54981 0.0
H1658 H 0.01188 0.87265 0.5433 0.0
C1659 C 0.04045 0.84294 0.58688 0.0
C1660 C 0.02463 0.83685 0.59151 0.0
C1661 C 0.0431 0.85663 0.57623 0.0
C1662 C 0.02233 0.88146 0.54541 0.0
H1663 H 0.07491 0.94118 0.50512 0.0
H1664 H 0.06855 0.91795 0.52411 0.0
H1665 H 0.01723 0.89617 0.52428 0.0
H1666 H 0.99914 0.84039 0.58846 0.0
H1667 H 0.00382 0.86454 0.57018 0.0
H1668 H 0.0547 0.88962 0.57094 0.0
C1669 C 0.05883 0.92484 0.51969 0.0
C1670 C 0.0254 0.89492 0.53449 0.0
C1671 C 0.06246 0.93817 0.50881 0.0
C1672 C 0.01151 0.84485 0.58528 0.0
C1673 C 0.01417 0.85858 0.57464 0.0
C1674 C 0.04648 0.89081 0.56074 0.0
C1675 C 0.04282 0.92034 0.52466 0.0
C1676 C 0.03915 0.90635 0.5365 0.0
C1677 C 0.03 0.86463 0.56998 0.0
C1678 C 0.03291 0.87919 0.55861 0.0
H1679 H 0.02443 0.94972 0.50313 0.0
H1680 H 0.01805 0.92626 0.52205 0.0
H1681 H 0.06011 0.91295 0.55184 0.0
H1682 H 0.05086 0.8372 0.59158 0.0
H1683 H 0.05544 0.86082 0.57276 0.0
C1684 C 0.19441 0.72805 0.77342 0.0
C1685 C 0.20409 0.74193 0.77831 0.0
C1686 C 0.18087 0.72952 0.76323 0.0
C1687 C 0.15219 0.75878 0.74916 0.0
H1688 H 0.14039 0.72861 0.71691 0.0
C1689 C 0.10071 0.76719 0.70223 0.0
C1690 C 0.08981 0.75332 0.69937 0.0
C1691 C 0.11494 0.76589 0.71144 0.0
C1692 C 0.14347 0.73705 0.72594 0.0
H1693 H 0.20755 0.76821 0.77591 0.0
H1694 H 0.18412 0.7708 0.75792 0.0
H1695 H 0.16491 0.72625 0.73347 0.0
H1696 H 0.08536 0.72718 0.70417 0.0
H1697 H 0.1103 0.72493 0.72004 0.0
H1698 H 0.1308 0.76963 0.74152 0.0
C1699 C 0.1867 0.75877 0.76226 0.0
C1700 C 0.15751 0.73569 0.73546 0.0
C1701 C 0.20016 0.7573 0.77253 0.0
C1702 C 0.09358 0.7381 0.70588 0.0
C1703 C 0.10787 0.73679 0.71501 0.0
C1704 C 0.13823 0.7602 0.73957 0.0
C1705 C 0.17677 0.7449 0.75761 0.0
C1706 C 0.16202 0.74651 0.74723 0.0
C1707 C 0.11867 0.75068 0.71794 0.0
C1708 C 0.13368 0.74932 0.72791 0.0
H1709 H 0.19705 0.71605 0.77782 0.0
H1710 H 0.17338 0.71858 0.76009 0.0
H1711 H 0.1551 0.76714 0.75829 0.0
H1712 H 0.09836 0.77907 0.69718 0.0
H1713 H 0.12315 0.77678 0.71332 0.0
C1714 C 1.00092 0.59028 0.52126 0.0
C1715 C 0.98625 0.58662 0.51263 0.0
C1716 C 0.00264 0.60276 0.53151 0.0
C1717 C 0.98524 0.63978 0.54001 0.0
H1718 H 0.006 0.63287 0.58146 0.0
C1719 C 0.98373 0.68431 0.5885 0.0
C1720 C 0.99809 0.68789 0.59762 0.0
C1721 C 0.98239 0.67191 0.57818 0.0
C1722 C 1.00033 0.63507 0.56986 0.0
H1723 H 0.962 0.59345 0.50773 0.0
H1724 H 0.96491 0.61502 0.52577 0.0
H1725 H 0.00372 0.61152 0.56316 0.0
H1726 H 0.02239 0.68135 0.60291 0.0
H1727 H 0.02006 0.65975 0.58492 0.0
H1728 H 0.98186 0.66333 0.54669 0.0
C1729 C 0.97513 0.60832 0.52456 0.0
C1730 C 0.99904 0.62283 0.55937 0.0
C1731 C 0.9734 0.59583 0.51435 0.0
C1732 C 0.01105 0.67873 0.59625 0.0
C1733 C 0.00972 0.66635 0.58592 0.0
C1734 C 0.98655 0.65202 0.55049 0.0
C1735 C 0.98974 0.6119 0.5333 0.0
C1736 C 0.99143 0.62503 0.54434 0.0
C1737 C 0.9954 0.66282 0.57672 0.0
C1738 C 0.99407 0.6498 0.56556 0.0
H1739 H 0.011 0.58334 0.52027 0.0
H1740 H 0.01411 0.60532 0.53796 0.0
H1741 H 0.97954 0.64196 0.52843 0.0
H1742 H 0.97344 0.69099 0.58944 0.0
H1743 H 0.97109 0.66934 0.57147 0.0
C1744 C 0.73925 0.82788 0.25499 0.0
C1745 C 0.73595 0.82077 0.24053 0.0
C1746 C 0.74978 0.84225 0.25579 0.0
C1747 C 0.76921 0.8774 0.23053 0.0
H1748 H 0.79604 0.88441 0.26849 0.0
C1749 C 0.80567 0.93964 0.24069 0.0
C1750 C 0.82095 0.93986 0.24862 0.0
C1751 C 0.79543 0.92508 0.23961 0.0
C1752 C 0.78881 0.88262 0.2577 0.0
H1753 H 0.74139 0.82327 0.21555 0.0
H1754 H 0.76037 0.84786 0.21709 0.0
H1755 H 0.77883 0.85888 0.26648 0.0
H1756 H 0.83727 0.92479 0.26178 0.0
H1757 H 0.81988 0.89946 0.25918 0.0
H1758 H 0.77976 0.90088 0.22148 0.0
C1759 C 0.75445 0.84256 0.22777 0.0
C1760 C 0.77869 0.86802 0.25665 0.0
C1761 C 0.74374 0.82828 0.22693 0.0
C1762 C 0.82572 0.92512 0.25536 0.0
C1763 C 0.81559 0.91056 0.2541 0.0
C1764 C 0.7795 0.89193 0.2315 0.0
C1765 C 0.75753 0.84981 0.2422 0.0
C1766 C 0.76866 0.86523 0.2431 0.0
C1767 C 0.80027 0.91033 0.24627 0.0
C1768 C 0.78939 0.89478 0.24513 0.0
H1769 H 0.73373 0.82234 0.26578 0.0
H1770 H 0.75163 0.84754 0.26708 0.0
H1771 H 0.76153 0.87582 0.21999 0.0
H1772 H 0.80163 0.95068 0.23516 0.0
H1773 H 0.78364 0.92546 0.23368 0.0
C1774 C 0.78912 0.20227 0.29484 0.0
C1775 C 0.77499 0.20547 0.28605 0.0
C1776 C 0.79638 0.18834 0.29276 0.0
C1777 C 0.78817 0.14753 0.27791 0.0
H1778 H 0.83511 0.15137 0.27512 0.0
C1779 C 0.82131 0.09535 0.25907 0.0
C1780 C 0.836 0.09263 0.26719 0.0
C1781 C 0.81376 0.10903 0.26145 0.0
C1782 C 0.82201 0.15003 0.27606 0.0
H1783 H 0.75697 0.19647 0.26868 0.0
H1784 H 0.76967 0.17209 0.26492 0.0
H1785 H 0.82203 0.17522 0.27938 0.0
H1786 H 0.85435 0.10234 0.28404 0.0
H1787 H 0.84101 0.12597 0.28844 0.0
H1788 H 0.78814 0.12233 0.27463 0.0
C1789 C 0.77518 0.18032 0.27341 0.0
C1790 C 0.81451 0.16372 0.27851 0.0
C1791 C 0.76796 0.19429 0.27547 0.0
C1792 C 0.84295 0.10394 0.27772 0.0
C1793 C 0.8354 0.11761 0.2801 0.0
C1794 C 0.79567 0.13383 0.2755 0.0
C1795 C 0.78955 0.17725 0.28195 0.0
C1796 C 0.7975 0.16263 0.27946 0.0
C1797 C 0.82071 0.12033 0.272 0.0
C1798 C 0.81269 0.13491 0.27454 0.0
H1799 H 0.79462 0.21061 0.30325 0.0
H1800 H 0.80728 0.18619 0.29972 0.0
H1801 H 0.77506 0.14624 0.2788 0.0
H1802 H 0.81553 0.08681 0.251 0.0
H1803 H 0.80255 0.11083 0.25488 0.0
C1804 C 0.44327 0.03483 0.00527 0.0
C1805 C 0.4513 0.03963 0.99102 0.0
C1806 C 0.42855 0.02465 0.00532 0.0
C1807 C 0.40413 0.99387 0.98321 0.0
H1808 H 0.36798 0.00526 0.00587 0.0
C1809 C 0.3404 0.95724 0.97965 0.0
C1810 C 0.33135 0.95486 0.99347 0.0
C1811 C 0.3548 0.96793 0.97902 0.0
C1812 C 0.378 0.00175 0.99966 0.0
H1813 H 0.44998 0.03739 0.96563 0.0
H1814 H 0.4245 0.01924 0.96585 0.0
H1815 H 0.39374 0.02293 0.00563 0.0
H1816 H 0.33031 0.96163 0.01752 0.0
H1817 H 0.35563 0.97995 0.01661 0.0
H1818 H 0.38865 0.97251 0.97755 0.0
C1819 C 0.42968 0.02341 0.97696 0.0
C1820 C 0.39274 0.01192 0.99949 0.0
C1821 C 0.44431 0.03376 0.97686 0.0
C1822 C 0.33694 0.9634 0.00664 0.0
C1823 C 0.35144 0.97394 0.00608 0.0
C1824 C 0.38946 0.98359 0.98353 0.0
C1825 C 0.4216 0.01885 0.99117 0.0
C1826 C 0.40595 0.00808 0.99126 0.0
C1827 C 0.36059 0.97633 0.99227 0.0
C1828 C 0.37618 0.98739 0.99176 0.0
H1829 H 0.44843 0.03881 0.01645 0.0
H1830 H 0.42269 0.02112 0.01649 0.0
H1831 H 0.41419 0.99053 0.97692 0.0
H1832 H 0.33625 0.95094 0.96927 0.0
H1833 H 0.36132 0.96968 0.96808 0.0
C1834 C 0.28248 0.33594 0.33414 0.0
C1835 C 0.2849 0.32606 0.32199 0.0
C1836 C 0.27166 0.3476 0.33183 0.0
C1837 C 0.23622 0.35841 0.30727 0.0
H1838 H 0.24898 0.40145 0.32127 0.0
C1839 C 0.19152 0.40664 0.30674 0.0
C1840 C 0.19745 0.42252 0.30111 0.0
C1841 C 0.20205 0.39474 0.30947 0.0
C1842 C 0.24527 0.3895 0.31723 0.0
H1843 H 0.27766 0.32047 0.29797 0.0
H1844 H 0.25886 0.3409 0.2939 0.0
H1845 H 0.26765 0.3809 0.32557 0.0
H1846 H 0.21914 0.43842 0.29415 0.0
H1847 H 0.23749 0.41764 0.2988 0.0
H1848 H 0.21392 0.36707 0.29876 0.0
C1849 C 0.26528 0.3396 0.30523 0.0
C1850 C 0.2559 0.37769 0.31983 0.0
C1851 C 0.27617 0.32801 0.30751 0.0
C1852 C 0.21416 0.42626 0.29833 0.0
C1853 C 0.2247 0.4144 0.30116 0.0
C1854 C 0.22555 0.37019 0.30475 0.0
C1855 C 0.26294 0.34956 0.31735 0.0
C1856 C 0.25152 0.36203 0.31483 0.0
C1857 C 0.21877 0.3985 0.30673 0.0
C1858 C 0.22999 0.38589 0.30964 0.0
H1859 H 0.28911 0.33481 0.34538 0.0
H1860 H 0.27001 0.355 0.34143 0.0
H1861 H 0.23244 0.34641 0.3034 0.0
H1862 H 0.17869 0.40335 0.30888 0.0
H1863 H 0.19713 0.38264 0.31388 0.0
C1864 C 0.10259 0.99009 0.49251 0.0
C1865 C 0.08872 0.99662 0.48593 0.0
C1866 C 0.11694 1.00013 0.49566 0.0
C1867 C 0.13264 0.04333 0.50073 0.0
H1868 H 0.17444 0.02745 0.49803 0.0
C1869 C 0.1949 0.08331 0.506 0.0
C1870 C 0.2061 0.07722 0.51722 0.0
C1871 C 0.18056 0.07372 0.50179 0.0
C1872 C 0.16283 0.03199 0.49887 0.0
H1873 H 0.07933 0.01901 0.47727 0.0
H1874 H 0.10459 0.03638 0.48191 0.0
H1875 H 0.14963 0.01048 0.4906 0.0
H1876 H 0.21068 0.05617 0.53287 0.0
H1877 H 0.18598 0.0393 0.52495 0.0
H1878 H 0.14609 0.06508 0.50854 0.0
C1879 C 0.10423 0.02351 0.48512 0.0
C1880 C 0.14857 0.02225 0.49472 0.0
C1881 C 0.08976 0.01347 0.4822 0.0
C1882 C 0.20259 0.06122 0.52398 0.0
C1883 C 0.18839 0.05155 0.51953 0.0
C1884 C 0.14693 0.05318 0.5046 0.0
C1885 C 0.11798 0.01699 0.49205 0.0
C1886 C 0.13324 0.0277 0.49576 0.0
C1887 C 0.17723 0.05774 0.50844 0.0
C1888 C 0.16213 0.04753 0.50386 0.0
H1889 H 0.10241 0.97715 0.49527 0.0
H1890 H 0.12712 0.99461 0.50121 0.0
H1891 H 0.12111 0.04789 0.50198 0.0
H1892 H 0.19728 0.09541 0.50026 0.0
H1893 H 0.17219 0.0787 0.4931 0.0
C1894 C 0.76833 0.18366 0.72891 0.0
C1895 C 0.77396 0.19308 0.7415 0.0
C1896 C 0.75859 0.16884 0.73176 0.0
C1897 C 0.73151 0.14555 0.76126 0.0
H1898 H 0.74003 0.10855 0.73933 0.0
C1899 C 0.68879 0.08521 0.76462 0.0
C1900 C 0.69613 0.0708 0.76639 0.0
C1901 C 0.69815 0.10016 0.76142 0.0
C1902 C 0.73756 0.11874 0.74562 0.0
H1903 H 0.77347 0.19448 0.76691 0.0
H1904 H 0.75668 0.16854 0.77192 0.0
H1905 H 0.75663 0.13461 0.73418 0.0
H1906 H 0.71907 0.06082 0.766 0.0
H1907 H 0.73545 0.08697 0.76064 0.0
H1908 H 0.71264 0.12963 0.7729 0.0
C1909 C 0.75971 0.17264 0.75982 0.0
C1910 C 0.74695 0.13372 0.74253 0.0
C1911 C 0.76948 0.18743 0.75698 0.0
C1912 C 0.71306 0.07171 0.76485 0.0
C1913 C 0.72242 0.08667 0.76161 0.0
C1914 C 0.7221 0.13059 0.76431 0.0
C1915 C 0.75421 0.16315 0.74726 0.0
C1916 C 0.74406 0.14729 0.75035 0.0
C1917 C 0.71508 0.10108 0.75988 0.0
C1918 C 0.72503 0.117 0.75655 0.0
H1919 H 0.77167 0.18762 0.71686 0.0
H1920 H 0.75441 0.16189 0.7218 0.0
H1921 H 0.72888 0.1558 0.76736 0.0
H1922 H 0.6758 0.08495 0.76589 0.0
H1923 H 0.6921 0.11102 0.76001 0.0
C1924 C 0.44165 0.99177 0.58651 0.0
C1925 C 0.4508 0.98867 0.57372 0.0
C1926 C 0.42953 0.00211 0.58428 0.0
C1927 C 0.40257 0.01952 0.55349 0.0
H1928 H 0.39879 0.05128 0.58371 0.0
C1929 C 0.34846 0.05732 0.55158 0.0
C1930 C 0.35215 0.07393 0.55378 0.0
C1931 C 0.3604 0.04684 0.55422 0.0
C1932 C 0.39975 0.04253 0.57513 0.0
H1933 H 0.45452 0.99433 0.54857 0.0
H1934 H 0.43328 0.01216 0.54468 0.0
H1935 H 0.41992 0.03321 0.58784 0.0
H1936 H 0.37122 0.0925 0.56069 0.0
H1937 H 0.39211 0.07421 0.56519 0.0
H1938 H 0.38253 0.02894 0.54068 0.0
C1939 C 0.43536 0.00643 0.5564 0.0
C1940 C 0.41174 0.03207 0.57758 0.0
C1941 C 0.44751 0.99617 0.55864 0.0
C1942 C 0.36803 0.0798 0.55876 0.0
C1943 C 0.37995 0.06929 0.56149 0.0
C1944 C 0.39053 0.0299 0.5511 0.0
C1945 C 0.42623 0.00953 0.56919 0.0
C1946 C 0.41332 0.02048 0.56675 0.0
C1947 C 0.37628 0.0527 0.5592 0.0
C1948 C 0.389 0.04156 0.56186 0.0
H1949 H 0.44368 0.98603 0.59824 0.0
H1950 H 0.42257 0.0041 0.59433 0.0
H1951 H 0.40338 0.01063 0.54501 0.0
H1952 H 0.33639 0.05244 0.54761 0.0
H1953 H 0.35715 0.03409 0.55248 0.0
C1954 C 0.56706 0.48349 0.53829 0.0
C1955 C 0.5665 0.50002 0.53381 0.0
C1956 C 0.58076 0.4761 0.53532 0.0
C1957 C 0.62446 0.48483 0.52705 0.0
H1958 H 0.6182 0.44241 0.51046 0.0
C1959 C 0.67803 0.45476 0.50555 0.0
C1960 C 0.67786 0.43798 0.50919 0.0
C1961 C 0.66448 0.46248 0.50836 0.0
C1962 C 0.62018 0.45417 0.51527 0.0
H1963 H 0.57962 0.52174 0.52258 0.0
H1964 H 0.60369 0.50885 0.51742 0.0
H1965 H 0.5946 0.45557 0.516 0.0
H1966 H 0.66342 0.4162 0.51887 0.0
H1967 H 0.63986 0.42964 0.52389 0.0
H1968 H 0.65004 0.48337 0.52646 0.0
C1969 C 0.59363 0.50165 0.5234 0.0
C1970 C 0.60664 0.46172 0.51843 0.0
C1971 C 0.57988 0.50902 0.52631 0.0
C1972 C 0.66384 0.4291 0.51569 0.0
C1973 C 0.65032 0.43681 0.51856 0.0
C1974 C 0.63801 0.47724 0.52395 0.0
C1975 C 0.59419 0.48508 0.52779 0.0
C1976 C 0.60862 0.47712 0.52438 0.0
C1977 C 0.65045 0.4536 0.51493 0.0
C1978 C 0.63605 0.4618 0.51805 0.0
H1979 H 0.55685 0.47626 0.54401 0.0
H1980 H 0.58088 0.46336 0.53899 0.0
H1981 H 0.62638 0.49661 0.5318 0.0
H1982 H 0.68857 0.46191 0.50034 0.0
H1983 H 0.66492 0.47537 0.50518 0.0
C1984 C 0.75234 0.26674 0.33184 0.0
C1985 C 0.73689 0.25924 0.32729 0.0
C1986 C 0.75408 0.27689 0.34433 0.0
C1987 C 0.73045 0.30149 0.36708 0.0
H1988 H 0.76654 0.30039 0.39763 0.0
C1989 C 0.73278 0.33388 0.42484 0.0
C1990 C 0.74779 0.34215 0.42963 0.0
C1991 C 0.7318 0.32397 0.41223 0.0
C1992 C 0.75649 0.30097 0.38909 0.0
H1993 H 0.71128 0.25601 0.33268 0.0
H1994 H 0.71432 0.27359 0.35445 0.0
H1995 H 0.76427 0.28256 0.37596 0.0
H1996 H 0.77352 0.34661 0.42471 0.0
H1997 H 0.77181 0.32923 0.40273 0.0
H1998 H 0.72261 0.31981 0.38023 0.0
C1999 C 0.72504 0.27197 0.34816 0.0
C2000 C 0.7552 0.29075 0.37667 0.0
C2001 C 0.7233 0.26187 0.33569 0.0
C2002 C 0.76181 0.34024 0.42149 0.0
C2003 C 0.76083 0.33028 0.40889 0.0
C2004 C 0.73173 0.31166 0.3795 0.0
C2005 C 0.74042 0.27973 0.35255 0.0
C2006 C 0.7421 0.29082 0.36557 0.0
C2007 C 0.74581 0.32204 0.4041 0.0
C2008 C 0.74471 0.31146 0.3907 0.0
H2009 H 0.76302 0.26507 0.3255 0.0
H2010 H 0.76608 0.28281 0.3473 0.0
H2011 H 0.72039 0.30209 0.35857 0.0
H2012 H 0.7218 0.33485 0.43102 0.0
H2013 H 0.72009 0.31758 0.40901 0.0
C2014 C 0.53336 0.06057 0.94553 0.0
C2015 C 0.51633 0.0573 0.94531 0.0
C2016 C 0.54248 0.05302 0.93545 0.0
C2017 C 0.53869 0.03355 0.89782 0.0
H2018 H 0.57997 0.0187 0.91135 0.0
C2019 C 0.57504 0.00116 0.85622 0.0
C2020 C 0.59196 0.00567 0.85613 0.0
C2021 C 0.56571 0.00615 0.86786 0.0
C2022 C 0.56854 0.02291 0.90735 0.0
H2023 H 0.49548 0.04294 0.93519 0.0
H2024 H 0.51139 0.02969 0.91752 0.0
H2025 H 0.56389 0.02978 0.93041 0.0
H2026 H 0.61235 0.01887 0.86826 0.0
H2027 H 0.59607 0.02769 0.88849 0.0
H2028 H 0.54341 0.02699 0.87473 0.0
C2029 C 0.51769 0.03836 0.9252 0.0
C2030 C 0.55932 0.02925 0.91827 0.0
C2031 C 0.50859 0.04587 0.93532 0.0
C2032 C 0.59937 0.01502 0.86812 0.0
C2033 C 0.59003 0.02006 0.87973 0.0
C2034 C 0.54792 0.02728 0.88689 0.0
C2035 C 0.53473 0.04199 0.92501 0.0
C2036 C 0.54432 0.0347 0.91361 0.0
C2037 C 0.57305 0.01583 0.87966 0.0
C2038 C 0.563 0.02194 0.89149 0.0
H2039 H 0.53957 0.06919 0.95331 0.0
H2040 H 0.55557 0.05615 0.93554 0.0
H2041 H 0.52732 0.03789 0.89378 0.0
H2042 H 0.569 0.99375 0.84729 0.0
H2043 H 0.55271 0.00241 0.86762 0.0
C2044 C 0.30554 0.2872 0.37052 0.0
C2045 C 0.30784 0.28124 0.3558 0.0
C2046 C 0.30539 0.27697 0.38446 0.0
C2047 C 0.31908 0.23878 0.40171 0.0
H2048 H 0.28481 0.23898 0.43147 0.0
C2049 C 0.30716 0.18867 0.45236 0.0
C2050 C 0.30204 0.19289 0.46693 0.0
C2051 C 0.30862 0.20004 0.43929 0.0
C2052 C 0.29463 0.23894 0.42344 0.0
H2053 H 0.31158 0.2597 0.34431 0.0
H2054 H 0.31164 0.24201 0.36864 0.0
H2055 H 0.28601 0.25781 0.40785 0.0
H2056 H 0.2946 0.21254 0.47912 0.0
H2057 H 0.29769 0.23251 0.45648 0.0
H2058 H 0.32781 0.22002 0.41728 0.0
C2059 C 0.31009 0.25464 0.36938 0.0
C2060 C 0.29528 0.24971 0.40987 0.0
C2061 C 0.31009 0.26481 0.35543 0.0
C2062 C 0.29873 0.20889 0.46815 0.0
C2063 C 0.30029 0.2203 0.45508 0.0
C2064 C 0.31852 0.2281 0.41533 0.0
C2065 C 0.30769 0.26059 0.38404 0.0
C2066 C 0.30741 0.24964 0.39879 0.0
C2067 C 0.30512 0.21598 0.44043 0.0
C2068 C 0.30619 0.22791 0.42631 0.0
H2069 H 0.30402 0.29982 0.37131 0.0
H2070 H 0.30369 0.28193 0.39561 0.0
H2071 H 0.32872 0.23861 0.39349 0.0
H2072 H 0.31004 0.17654 0.45103 0.0
H2073 H 0.31219 0.19619 0.42817 0.0
C2074 C 0.51987 0.50185 0.92968 0.0
C2075 C 0.51291 0.49551 0.94404 0.0
C2076 C 0.5102 0.50313 0.91582 0.0
C2077 C 0.4679 0.50568 0.90179 0.0
H2078 H 0.48261 0.49293 0.86233 0.0
C2079 C 0.42601 0.50241 0.84581 0.0
C2080 C 0.43294 0.50782 0.83118 0.0
C2081 C 0.43584 0.50062 0.85949 0.0
C2082 C 0.4784 0.49674 0.8732 0.0
H2083 H 0.49046 0.4855 0.95526 0.0
H2084 H 0.4735 0.48776 0.93105 0.0
H2085 H 0.49967 0.49049 0.88637 0.0
H2086 H 0.45564 0.51568 0.81944 0.0
H2087 H 0.47282 0.51276 0.84333 0.0
H2088 H 0.44674 0.51213 0.88867 0.0
C2089 C 0.48641 0.49184 0.93051 0.0
C2090 C 0.48818 0.49531 0.88698 0.0
C2091 C 0.4961 0.49047 0.94433 0.0
C2092 C 0.44995 0.5113 0.8305 0.0
C2093 C 0.45979 0.50959 0.84421 0.0
C2094 C 0.45817 0.5072 0.88801 0.0
C2095 C 0.49335 0.49818 0.9161 0.0
C2096 C 0.48301 0.49973 0.90143 0.0
C2097 C 0.45285 0.50428 0.85889 0.0
C2098 C 0.46327 0.50271 0.87354 0.0
H2099 H 0.53281 0.50584 0.92922 0.0
H2100 H 0.51587 0.50822 0.90494 0.0
H2101 H 0.46369 0.50943 0.9127 0.0
H2102 H 0.41296 0.49939 0.84667 0.0
H2103 H 0.43009 0.49621 0.87052 0.0
C2104 C 0.73024 0.76576 0.18183 0.0
C2105 C 0.72033 0.75827 0.19404 0.0
C2106 C 0.73771 0.7564 0.17201 0.0
C2107 C 0.74995 0.71566 0.16868 0.0
H2108 H 0.74604 0.72714 0.12353 0.0
C2109 C 0.76326 0.67292 0.12147 0.0
C2110 C 0.77003 0.67995 0.10723 0.0
C2111 C 0.75867 0.68267 0.13278 0.0
C2112 C 0.74752 0.72389 0.1361 0.0
H2113 H 0.71101 0.73531 0.20607 0.0
H2114 H 0.72408 0.71884 0.18886 0.0
H2115 H 0.73556 0.74381 0.14204 0.0
H2116 H 0.7781 0.7027 0.09402 0.0
H2117 H 0.77042 0.71973 0.11384 0.0
H2118 H 0.7619 0.6957 0.16272 0.0
C2119 C 0.72607 0.73193 0.18686 0.0
C2120 C 0.74146 0.73346 0.14672 0.0
C2121 C 0.71853 0.74131 0.19665 0.0
C2122 C 0.77266 0.69693 0.10478 0.0
C2123 C 0.7682 0.70668 0.11612 0.0
C2124 C 0.75611 0.70612 0.15804 0.0
C2125 C 0.73553 0.73937 0.17427 0.0
C2126 C 0.74254 0.72942 0.16312 0.0
C2127 C 0.76086 0.69968 0.13014 0.0
C2128 C 0.7549 0.71008 0.1416 0.0
H2129 H 0.73198 0.77884 0.17972 0.0
H2130 H 0.74514 0.76249 0.16257 0.0
H2131 H 0.7511 0.71234 0.18126 0.0
H2132 H 0.76095 0.65986 0.12361 0.0
H2133 H 0.75289 0.67684 0.14334 0.0
C2134 C 0.99536 0.0357 0.07368 0.0
C2135 C 0.01225 0.03563 0.07569 0.0
C2136 C 0.98545 0.03397 0.0868 0.0
C2137 C 0.98506 0.02191 0.1302 0.0
H2138 H 0.94835 0.04679 0.12835 0.0
C2139 C 0.94863 0.03107 0.18504 0.0
C2140 C 0.93162 0.02804 0.18321 0.0
C2141 C 0.95849 0.03166 0.17195 0.0
C2142 C 0.9585 0.0397 0.12899 0.0
H2143 H 0.03207 0.0336 0.09292 0.0
H2144 H 0.01489 0.0311 0.11592 0.0
H2145 H 0.96558 0.04829 0.10556 0.0
H2146 H 0.91155 0.02352 0.1663 0.0
H2147 H 0.92879 0.02485 0.14335 0.0
H2148 H 0.97813 0.01377 0.1539 0.0
C2149 C 0.00916 0.03206 0.10422 0.0
C2150 C 0.96835 0.04046 0.11589 0.0
C2151 C 0.01905 0.03354 0.09106 0.0
C2152 C 0.92464 0.02581 0.16803 0.0
C2153 C 0.93448 0.02665 0.15492 0.0
C2154 C 0.97533 0.02134 0.14338 0.0
C2155 C 0.99223 0.0324 0.10227 0.0
C2156 C 0.98174 0.03152 0.11628 0.0
C2157 C 0.9515 0.02948 0.15677 0.0
C2158 C 0.96193 0.03019 0.14287 0.0
H2159 H 0.98981 0.03711 0.06192 0.0
H2160 H 0.97245 0.03389 0.08476 0.0
H2161 H 0.99507 0.01464 0.13089 0.0
H2162 H 0.95432 0.03271 0.19663 0.0
H2163 H 0.97158 0.03397 0.17367 0.0
C2164 C 0.26412 0.77191 0.19092 0.0
C2165 C 0.2791 0.76644 0.1955 0.0
C2166 C 0.26223 0.78073 0.17634 0.0
C2167 C 0.28593 0.8053 0.14469 0.0
H2168 H 0.24542 0.7982 0.12023 0.0
C2169 C 0.27784 0.83302 0.08047 0.0
C2170 C 0.26348 0.84018 0.07684 0.0
C2171 C 0.27975 0.82385 0.09484 0.0
C2172 C 0.25675 0.8004 0.12699 0.0
H2173 H 0.30402 0.76639 0.18876 0.0
H2174 H 0.30064 0.78133 0.16307 0.0
H2175 H 0.24881 0.78243 0.14542 0.0
H2176 H 0.23994 0.84337 0.08567 0.0
H2177 H 0.2432 0.82711 0.11058 0.0
H2178 H 0.2939 0.82314 0.1261 0.0
C2179 C 0.29035 0.77893 0.17074 0.0
C2180 C 0.2587 0.7914 0.14145 0.0
C2181 C 0.29226 0.77022 0.18537 0.0
C2182 C 0.25104 0.83781 0.08791 0.0
C2183 C 0.25291 0.82853 0.10222 0.0
C2184 C 0.28402 0.81421 0.13017 0.0
C2185 C 0.2753 0.78432 0.16603 0.0
C2186 C 0.2733 0.79377 0.15053 0.0
C2187 C 0.26731 0.82151 0.10587 0.0
C2188 C 0.2694 0.81189 0.12119 0.0
H2189 H 0.25389 0.76946 0.19867 0.0
H2190 H 0.25057 0.78497 0.17328 0.0
H2191 H 0.29723 0.80768 0.15146 0.0
H2192 H 0.28756 0.83433 0.07213 0.0
H2193 H 0.2909 0.8184 0.09724 0.0
C2194 C 0.00343 0.48345 0.11114 0.0
C2195 C 0.9982 0.46858 0.10469 0.0
C2196 C 0.01365 0.48407 0.12467 0.0
C2197 C 0.0433 0.46176 0.14809 0.0
H2198 H 0.03465 0.48881 0.18114 0.0
C2199 C 0.08013 0.4624 0.2077 0.0
C2200 C 0.08426 0.47753 0.21398 0.0
C2201 C 0.06932 0.4608 0.19463 0.0
C2202 C 0.03737 0.48134 0.17195 0.0
H2203 H 0.99959 0.44267 0.10759 0.0
H2204 H 0.01761 0.44381 0.13111 0.0
H2205 H 0.01654 0.48705 0.15778 0.0
H2206 H 0.07997 0.50279 0.21153 0.0
H2207 H 0.06158 0.50012 0.18855 0.0
H2208 H 0.06426 0.45622 0.16213 0.0
C2209 C 0.01387 0.455 0.12558 0.0
C2210 C 0.02696 0.48032 0.15857 0.0
C2211 C 0.00356 0.45436 0.11208 0.0
C2212 C 0.07726 0.491 0.2069 0.0
C2213 C 0.06651 0.48941 0.19382 0.0
C2214 C 0.05377 0.46284 0.16144 0.0
C2215 C 0.01898 0.46986 0.13205 0.0
C2216 C 0.02985 0.47059 0.14644 0.0
C2217 C 0.06239 0.4743 0.18751 0.0
C2218 C 0.05099 0.47272 0.17351 0.0
H2219 H 0.99981 0.49468 0.1056 0.0
H2220 H 0.01759 0.49574 0.12921 0.0
H2221 H 0.04596 0.4543 0.13886 0.0
H2222 H 0.0854 0.4518 0.21275 0.0
H2223 H 0.06629 0.44894 0.19018 0.0
C2224 C 0.32801 0.74552 0.26205 0.0
C2225 C 0.32435 0.73013 0.25623 0.0
C2226 C 0.34129 0.7487 0.27255 0.0
C2227 C 0.36894 0.72779 0.30052 0.0
H2228 H 0.39562 0.76951 0.29759 0.0
C2229 C 0.43005 0.73967 0.3353 0.0
C2230 C 0.43305 0.7543 0.34271 0.0
C2231 C 0.4167 0.73691 0.32483 0.0
C2232 C 0.38818 0.75785 0.29864 0.0
H2233 H 0.33199 0.70617 0.25644 0.0
H2234 H 0.35529 0.71175 0.27452 0.0
H2235 H 0.37267 0.76437 0.27894 0.0
H2236 H 0.42419 0.77742 0.34498 0.0
H2237 H 0.40104 0.77266 0.32649 0.0
H2238 H 0.38461 0.72123 0.32009 0.0
C2239 C 0.34769 0.72126 0.27133 0.0
C2240 C 0.37501 0.75491 0.28798 0.0
C2241 C 0.33437 0.71807 0.26093 0.0
C2242 C 0.42241 0.76612 0.33931 0.0
C2243 C 0.40911 0.76339 0.32874 0.0
C2244 C 0.38216 0.7307 0.3111 0.0
C2245 C 0.35126 0.73658 0.27738 0.0
C2246 C 0.36524 0.73982 0.28876 0.0
C2247 C 0.4061 0.74874 0.32142 0.0
C2248 C 0.39194 0.74575 0.31027 0.0
H2249 H 0.32039 0.755 0.25876 0.0
H2250 H 0.34352 0.76055 0.27712 0.0
H2251 H 0.3615 0.71614 0.3017 0.0
H2252 H 0.43815 0.73042 0.33739 0.0
H2253 H 0.41483 0.72559 0.31919 0.0
C2254 C 0.00648 0.43776 0.0227 0.0
C2255 C 0.99215 0.43811 0.03091 0.0
C2256 C 0.00787 0.42526 0.01298 0.0
C2257 C 0.99118 0.38342 0.00586 0.0
H2258 H 0.00891 0.39395 0.96413 0.0
C2259 C 0.9894 0.33538 0.96025 0.0
C2260 C 0.00278 0.336 0.95046 0.0
C2261 C 0.98815 0.34786 0.97003 0.0
C2262 C 0.00415 0.39074 0.97583 0.0
H2263 H 0.96774 0.4261 0.03475 0.0
H2264 H 0.97027 0.40406 0.01798 0.0
H2265 H 0.00681 0.41558 0.98138 0.0
H2266 H 0.02544 0.35008 0.94339 0.0
H2267 H 0.02346 0.37173 0.96067 0.0
H2268 H 0.98874 0.35859 1.00049 0.0
C2269 C 0.98054 0.41329 0.01932 0.0
C2270 C 0.00291 0.40316 0.98569 0.0
C2271 C 0.9791 0.42589 0.02893 0.0
C2272 C 0.01489 0.34937 0.95067 0.0
C2273 C 0.01371 0.36179 0.96055 0.0
C2274 C 0.99255 0.37098 0.99606 0.0
C2275 C 0.99493 0.41286 0.01121 0.0
C2276 C 0.99637 0.39964 1.0008 0.0
C2277 C 1.00031 0.36122 0.97036 0.0
C2278 C 0.99901 0.37447 0.98088 0.0
H2279 H 0.0166 0.44721 0.02376 0.0
H2280 H 0.01912 0.42523 0.00692 0.0
H2281 H 0.98628 0.38032 0.01752 0.0
H2282 H 0.97976 0.32534 0.96018 0.0
H2283 H 0.97749 0.34713 0.97716 0.0
C2284 C 0.67544 0.80032 0.25942 0.0
C2285 C 0.6843 0.7872 0.25795 0.0
C2286 C 0.66213 0.79863 0.26925 0.0
C2287 C 0.63196 0.76848 0.28957 0.0
H2288 H 0.62879 0.80301 0.31691 0.0
C2289 C 0.58621 0.76217 0.34012 0.0
C2290 C 0.57858 0.77584 0.34274 0.0
C2291 C 0.5988 0.76335 0.32944 0.0
C2292 C 0.62935 0.79335 0.30921 0.0
H2293 H 0.68591 0.76193 0.26547 0.0
H2294 H 0.66255 0.75896 0.28261 0.0
H2295 H 0.65108 0.80534 0.2987 0.0
H2296 H 0.57826 0.8015 0.33611 0.0
H2297 H 0.59988 0.80347 0.3172 0.0
H2298 H 0.61018 0.7565 0.30006 0.0
C2299 C 0.66588 0.77053 0.27605 0.0
C2300 C 0.64215 0.79469 0.29878 0.0
C2301 C 0.67925 0.77223 0.26623 0.0
C2302 C 0.58375 0.79069 0.3343 0.0
C2303 C 0.5963 0.79186 0.32359 0.0
C2304 C 0.61911 0.76716 0.29998 0.0
C2305 C 0.6573 0.78378 0.27781 0.0
C2306 C 0.6436 0.78228 0.28883 0.0
C2307 C 0.60404 0.77823 0.32108 0.0
C2308 C 0.61764 0.77959 0.30993 0.0
H2309 H 0.6788 0.81192 0.25294 0.0
H2310 H 0.65557 0.80898 0.27011 0.0
H2311 H 0.63265 0.7588 0.28193 0.0
H2312 H 0.58238 0.75048 0.34624 0.0
H2313 H 0.60458 0.75264 0.32792 0.0
C2314 C 0.01425 0.07421 0.02222 0.0
C2315 C 0.02967 0.06946 0.02639 0.0
C2316 C 0.01274 0.08816 0.01224 0.0
C2317 C 0.03634 0.12672 0.99732 0.0
H2318 H 0.99975 0.12853 0.96743 0.0
C2319 C 0.03034 0.18116 0.95141 0.0
C2320 C 0.01504 0.18693 0.95001 0.0
C2321 C 0.03238 0.16665 0.96032 0.0
C2322 C 0.00997 0.12822 0.9758 0.0
H2323 H 0.05559 0.0756 0.02307 0.0
H2324 H 0.05292 0.0996 0.00519 0.0
H2325 H 0.00301 0.10327 0.98322 0.0
H2326 H 0.98993 0.18195 0.95716 0.0
H2327 H 0.99346 0.15648 0.97244 0.0
H2328 H 0.04335 0.15167 0.98971 0.0
C2329 C 0.04199 0.09272 0.00993 0.0
C2330 C 0.01183 0.11377 0.98489 0.0
C2331 C 0.04351 0.07881 0.02001 0.0
C2332 C 0.00182 0.17777 0.95773 0.0
C2333 C 0.00384 0.16318 0.96652 0.0
C2334 C 0.03455 0.14113 0.98813 0.0
C2335 C 0.02659 0.09767 0.00603 0.0
C2336 C 0.02497 0.11286 0.99587 0.0
C2337 C 0.01914 0.15748 0.96792 0.0
C2338 C 0.02128 0.14206 0.97736 0.0
H2339 H 0.0033 0.06717 0.0267 0.0
H2340 H 1.00069 0.09167 0.00966 0.0
H2341 H 0.04644 0.12658 0.00584 0.0
H2342 H 0.04072 0.18772 0.94539 0.0
H2343 H 0.04427 0.16245 0.96105 0.0
C2344 C 0.3486 0.27499 0.28623 0.0
C2345 C 0.33788 0.28637 0.28142 0.0
C2346 C 0.3618 0.27333 0.27699 0.0
C2347 C 0.38775 0.29443 0.24523 0.0
H2348 H 0.39677 0.25098 0.23851 0.0
C2349 C 0.43233 0.2818 0.19827 0.0
C2350 C 0.44263 0.26981 0.20242 0.0
C2351 C 0.41984 0.28405 0.20817 0.0
C2352 C 0.39455 0.2632 0.24041 0.0
H2353 H 0.3329 0.30549 0.26371 0.0
H2354 H 0.35588 0.30252 0.24739 0.0
H2355 H 0.3747 0.25466 0.25548 0.0
H2356 H 0.44803 0.25102 0.22041 0.0
H2357 H 0.42626 0.25495 0.23766 0.0
H2358 H 0.40758 0.30296 0.2301 0.0
C2359 C 0.35411 0.29484 0.25827 0.0
C2360 C 0.3819 0.26531 0.25016 0.0
C2361 C 0.34091 0.29648 0.26752 0.0
C2362 C 0.44015 0.26017 0.21673 0.0
C2363 C 0.42767 0.26243 0.22662 0.0
C2364 C 0.40042 0.29232 0.23548 0.0
C2365 C 0.36463 0.28313 0.26281 0.0
C2366 C 0.37831 0.28095 0.25266 0.0
C2367 C 0.41734 0.27438 0.22246 0.0
C2368 C 0.40396 0.27667 0.23293 0.0
H2369 H 0.34665 0.26728 0.29707 0.0
H2370 H 0.36984 0.26442 0.28098 0.0
H2371 H 0.38546 0.30664 0.24708 0.0
H2372 H 0.43376 0.28928 0.18724 0.0
H2373 H 0.41195 0.2932 0.20448 0.0
C2374 C 0.5597 0.4351 0.00504 0.0
C2375 C 0.54818 0.44599 1.00139 0.0
C2376 C 0.55597 0.42129 0.01534 0.0
C2377 C 0.52955 0.4051 0.04799 0.0
H2378 H 0.5413 0.36352 0.03808 0.0
C2379 C 0.51182 0.34624 0.0877 0.0
C2380 C 0.52331 0.33512 0.08986 0.0
C2381 C 0.51424 0.3596 0.07658 0.0
C2382 C 0.53811 0.37507 0.04114 0.0
H2383 H 0.52375 0.451 0.00567 0.0
H2384 H 0.51722 0.42683 0.02373 0.0
H2385 H 0.54666 0.38708 0.0192 0.0
H2386 H 0.54651 0.32949 0.08232 0.0
H2387 H 0.5509 0.35289 0.06317 0.0
H2388 H 0.52133 0.39323 0.07006 0.0
C2389 C 0.52914 0.429 0.01862 0.0
C2390 C 0.54114 0.38856 0.03028 0.0
C2391 C 0.53282 0.44275 0.00819 0.0
C2392 C 0.53732 0.33771 0.08075 0.0
C2393 C 0.5398 0.35111 0.06973 0.0
C2394 C 0.52663 0.39164 0.05891 0.0
C2395 C 0.54069 0.41815 0.02232 0.0
C2396 C 0.53697 0.40372 0.03362 0.0
C2397 C 0.52827 0.36221 0.06745 0.0
C2398 C 0.53095 0.37646 0.05566 0.0
H2399 H 0.57159 0.43723 0.99988 0.0
H2400 H 0.56516 0.41322 0.01807 0.0
H2401 H 0.52638 0.41668 0.05097 0.0
H2402 H 0.50082 0.34446 0.09443 0.0
H2403 H 0.50498 0.36775 0.07499 0.0
C2404 C 0.70222 0.25735 0.27206 0.0
C2405 C 0.70537 0.24199 0.27863 0.0
C2406 C 0.68867 0.25898 0.26195 0.0
C2407 C 0.65711 0.23551 0.23753 0.0
H2408 H 0.63382 0.27263 0.24093 0.0
C2409 C 0.59291 0.24069 0.20945 0.0
C2410 C 0.59066 0.25552 0.20102 0.0
C2411 C 0.60717 0.23904 0.21852 0.0
C2412 C 0.64028 0.26228 0.23977 0.0
H2413 H 0.69691 0.21629 0.27978 0.0
H2414 H 0.67298 0.21911 0.26248 0.0
H2415 H 0.6582 0.26962 0.25745 0.0
H2416 H 0.60145 0.2803 0.19561 0.0
H2417 H 0.62634 0.27747 0.21164 0.0
H2418 H 0.63881 0.22801 0.22012 0.0
C2419 C 0.68115 0.2299 0.26478 0.0
C2420 C 0.65431 0.26056 0.24918 0.0
C2421 C 0.69483 0.22826 0.27474 0.0
C2422 C 0.60291 0.26871 0.20193 0.0
C2423 C 0.61708 0.26712 0.21116 0.0
C2424 C 0.64296 0.23714 0.22826 0.0
C2425 C 0.67782 0.24531 0.25834 0.0
C2426 C 0.66294 0.24716 0.24818 0.0
C2427 C 0.61938 0.25225 0.2195 0.0
C2428 C 0.63443 0.25055 0.22927 0.0
H2429 H 0.71028 0.26811 0.2747 0.0
H2430 H 0.68674 0.271 0.25695 0.0
H2431 H 0.66355 0.22518 0.23622 0.0
H2432 H 0.58373 0.23029 0.20885 0.0
H2433 H 0.60858 0.22748 0.22492 0.0
C2434 C 0.47294 0.09693 0.01373 0.0
C2435 C 0.48584 0.08793 0.01151 0.0
C2436 C 0.47488 0.10945 0.0239 0.0
C2437 C 0.5005 0.12471 0.05759 0.0
H2438 H 0.48107 0.16428 0.04637 0.0
C2439 C 0.51367 0.18113 0.09354 0.0
C2440 C 0.50037 0.18929 0.09653 0.0
C2441 C 0.51197 0.16885 0.08309 0.0
C2442 C 0.48643 0.15324 0.04974 0.0
H2443 H 0.51093 0.08511 0.01826 0.0
H2444 H 0.51445 0.10723 0.03571 0.0
H2445 H 0.47819 0.14287 0.02812 0.0
H2446 H 0.47477 0.19076 0.09096 0.0
H2447 H 0.47185 0.1694 0.07264 0.0
H2448 H 0.50881 0.13515 0.07918 0.0
C2449 C 0.50274 0.10444 0.02975 0.0
C2450 C 0.48477 0.14096 0.03929 0.0
C2451 C 0.50079 0.09188 0.01959 0.0
C2452 C 0.48533 0.1849 0.08876 0.0
C2453 C 0.48364 0.17264 0.07827 0.0
C2454 C 0.5022 0.13702 0.06801 0.0
C2455 C 0.48979 0.11334 0.03208 0.0
C2456 C 0.49176 0.12652 0.0431 0.0
C2457 C 0.49694 0.16447 0.07533 0.0
C2458 C 0.49516 0.15141 0.06422 0.0
H2459 H 0.46133 0.09436 0.00752 0.0
H2460 H 0.4646 0.11594 0.02553 0.0
H2461 H 0.5058 0.11366 0.06103 0.0
H2462 H 0.52551 0.1844 0.09907 0.0
H2463 H 0.52251 0.16295 0.0809 0.0
C2464 C 0.24466 0.32456 0.7572 0.0
C2465 C 0.23926 0.31852 0.74264 0.0
C2466 C 0.25509 0.33904 0.75767 0.0
C2467 C 0.2684 0.37678 0.73339 0.0
H2468 H 0.30323 0.38139 0.76532 0.0
C2469 C 0.31615 0.4336 0.73404 0.0
C2470 C 0.32051 0.43961 0.74886 0.0
C2471 C 0.30643 0.41874 0.73304 0.0
C2472 C 0.29345 0.38035 0.75643 0.0
H2473 H 0.24074 0.32291 0.71713 0.0
H2474 H 0.25923 0.34803 0.71795 0.0
H2475 H 0.28631 0.35541 0.76389 0.0
H2476 H 0.3181 0.43468 0.77423 0.0
H2477 H 0.30092 0.40888 0.77247 0.0
H2478 H 0.27555 0.40173 0.72596 0.0
C2479 C 0.25521 0.34166 0.72901 0.0
C2480 C 0.28376 0.36545 0.75561 0.0
C2481 C 0.24477 0.32716 0.72854 0.0
C2482 C 0.31483 0.43047 0.76263 0.0
C2483 C 0.30515 0.41559 0.76163 0.0
C2484 C 0.27812 0.39166 0.73421 0.0
C2485 C 0.2604 0.34782 0.74358 0.0
C2486 C 0.27106 0.36351 0.74413 0.0
C2487 C 0.30088 0.40953 0.74682 0.0
C2488 C 0.2907 0.39364 0.74579 0.0
H2489 H 0.24079 0.3181 0.76828 0.0
H2490 H 0.25872 0.34351 0.76909 0.0
H2491 H 0.25857 0.37577 0.72456 0.0
H2492 H 0.32019 0.44042 0.72319 0.0
H2493 H 0.30345 0.41435 0.72146 0.0
C2494 C 0.27776 0.69511 0.79883 0.0
C2495 C 0.27398 0.70589 0.786 0.0
C2496 C 0.28484 0.68118 0.79634 0.0
C2497 C 0.29168 0.65417 0.7651 0.0
H2498 H 0.32516 0.64063 0.79481 0.0
C2499 C 0.33165 0.60434 0.75326 0.0
C2500 C 0.33454 0.59306 0.76603 0.0
C2501 C 0.32395 0.61794 0.75557 0.0
C2502 C 0.31572 0.64417 0.78649 0.0
H2503 H 0.27484 0.71076 0.76053 0.0
H2504 H 0.28748 0.68661 0.75614 0.0
H2505 H 0.31242 0.66468 0.79908 0.0
H2506 H 0.33112 0.58709 0.79118 0.0
H2507 H 0.3179 0.6109 0.79521 0.0
H2508 H 0.29518 0.63371 0.75243 0.0
C2509 C 0.28466 0.68867 0.76812 0.0
C2510 C 0.30838 0.65794 0.78895 0.0
C2511 C 0.2775 0.70255 0.77062 0.0
C2512 C 0.32941 0.59567 0.78113 0.0
C2513 C 0.32179 0.60931 0.78345 0.0
C2514 C 0.29909 0.64044 0.7626 0.0
C2515 C 0.28843 0.6778 0.78095 0.0
C2516 C 0.29623 0.66311 0.77831 0.0
C2517 C 0.31903 0.62063 0.77072 0.0
C2518 C 0.31117 0.63526 0.77329 0.0
H2519 H 0.27521 0.69749 0.81081 0.0
H2520 H 0.28737 0.673 0.80648 0.0
H2521 H 0.2822 0.65763 0.7568 0.0
H2522 H 0.33564 0.60284 0.74151 0.0
H2523 H 0.32215 0.62655 0.74555 0.0
C2524 C 0.94425 0.53324 0.50595 0.0
C2525 C 0.95203 0.5385 0.49168 0.0
C2526 C 0.92948 0.52314 0.50594 0.0
C2527 C 0.90385 0.4939 0.48269 0.0
H2528 H 0.86922 0.504 0.50824 0.0
C2529 C 0.83919 0.45874 0.48023 0.0
C2530 C 0.83117 0.45513 0.49463 0.0
C2531 C 0.85376 0.46918 0.47945 0.0
C2532 C 0.87881 0.50087 0.50119 0.0
H2533 H 0.95032 0.53716 0.46618 0.0
H2534 H 0.92464 0.51927 0.46623 0.0
H2535 H 0.89514 0.52137 0.5078 0.0
H2536 H 0.83211 0.46 0.51945 0.0
H2537 H 0.85771 0.47771 0.51821 0.0
H2538 H 0.88767 0.47324 0.47628 0.0
C2539 C 0.93006 0.52296 0.47742 0.0
C2540 C 0.89365 0.51086 0.50092 0.0
C2541 C 0.94479 0.53317 0.47741 0.0
C2542 C 0.83804 0.46231 0.5082 0.0
C2543 C 0.85264 0.47267 0.50744 0.0
C2544 C 0.88904 0.48382 0.48305 0.0
C2545 C 0.92219 0.51795 0.49168 0.0
C2546 C 0.90635 0.50745 0.49172 0.0
C2547 C 0.8607 0.47623 0.49306 0.0
C2548 C 0.87635 0.48715 0.49235 0.0
H2549 H 0.94963 0.53682 0.51719 0.0
H2550 H 0.92383 0.51926 0.51714 0.0
H2551 H 0.91348 0.49088 0.47561 0.0
H2552 H 0.83435 0.4533 0.46958 0.0
H2553 H 0.85952 0.4718 0.46814 0.0
C2554 C 0.78879 0.83953 0.81659 0.0
C2555 C 0.78357 0.82401 0.82369 0.0
C2556 C 0.77806 0.85125 0.81422 0.0
C2557 C 0.73929 0.86227 0.82775 0.0
H2558 H 0.74009 0.88924 0.7882 0.0
C2559 C 0.70382 0.91805 0.81749 0.0
C2560 C 0.69611 0.92063 0.80256 0.0
C2561 C 0.71424 0.90606 0.82022 0.0
C2562 C 0.73962 0.88173 0.79926 0.0
H2563 H 0.76288 0.80864 0.83375 0.0
H2564 H 0.74416 0.82912 0.82965 0.0
H2565 H 0.75862 0.86865 0.79263 0.0
H2566 H 0.69301 0.91229 0.77891 0.0
H2567 H 0.71119 0.89141 0.78367 0.0
H2568 H 0.72011 0.8752 0.83428 0.0
C2569 C 0.75663 0.83228 0.8261 0.0
C2570 C 0.75038 0.87006 0.80188 0.0
C2571 C 0.76737 0.82054 0.82846 0.0
C2572 C 0.69896 0.91082 0.79047 0.0
C2573 C 0.70938 0.89885 0.7932 0.0
C2574 C 0.72855 0.87398 0.82515 0.0
C2575 C 0.76183 0.84776 0.8189 0.0
C2576 C 0.75036 0.86018 0.81615 0.0
C2577 C 0.71721 0.89637 0.80808 0.0
C2578 C 0.72858 0.88385 0.81087 0.0
H2579 H 0.80126 0.84269 0.81301 0.0
H2580 H 0.78254 0.86313 0.80888 0.0
H2581 H 0.73906 0.85497 0.83893 0.0
H2582 H 0.7021 0.92554 0.827 0.0
H2583 H 0.72025 0.90463 0.83176 0.0
C2584 C 0.58735 0.51197 0.98623 0.0
C2585 C 0.58697 0.49513 0.98566 0.0
C2586 C 0.60196 0.52161 0.98946 0.0
C2587 C 0.64343 0.51886 0.00705 0.0
H2588 H 0.65227 0.56251 0.98722 0.0
C2589 C 0.70563 0.55812 0.01366 0.0
C2590 C 0.70507 0.57416 0.01736 0.0
C2591 C 0.69139 0.54843 0.00932 0.0
C2592 C 0.64991 0.55037 0.99291 0.0
H2593 H 0.60165 0.47524 0.98749 0.0
H2594 H 0.62724 0.49206 0.99274 0.0
H2595 H 0.62724 0.54563 0.98012 0.0
H2596 H 0.68927 0.59277 0.01914 0.0
H2597 H 0.66438 0.57586 0.01148 0.0
H2598 H 0.66625 0.5236 0.01967 0.0
C2599 C 0.6162 0.49782 0.99114 0.0
C2600 C 0.63555 0.5407 0.98889 0.0
C2601 C 0.60156 0.48817 0.98807 0.0
C2602 C 0.69003 0.58039 0.01648 0.0
C2603 C 0.67582 0.57077 0.01196 0.0
C2604 C 0.65786 0.52847 0.01094 0.0
C2605 C 0.61658 0.51465 0.99204 0.0
C2606 C 0.63207 0.52484 0.99598 0.0
C2607 C 0.67634 0.55467 0.00842 0.0
C2608 C 0.6612 0.54436 0.00398 0.0
H2609 H 0.57625 0.51763 0.9846 0.0
H2610 H 0.6017 0.53446 0.99031 0.0
H2611 H 0.64106 0.50683 0.01298 0.0
H2612 H 0.71704 0.55297 0.01434 0.0
H2613 H 0.69216 0.5361 0.00655 0.0
C2614 C 0.26888 0.68393 0.22822 0.0
C2615 C 0.27475 0.69314 0.24089 0.0
C2616 C 0.25891 0.66924 0.23099 0.0
C2617 C 0.2318 0.64601 0.26055 0.0
H2618 H 0.23951 0.60908 0.2381 0.0
C2619 C 0.18858 0.58597 0.26418 0.0
C2620 C 0.1958 0.57148 0.26565 0.0
C2621 C 0.19801 0.60088 0.26091 0.0
C2622 C 0.23727 0.61925 0.24453 0.0
H2623 H 0.27445 0.69432 0.26635 0.0
H2624 H 0.25727 0.66859 0.27119 0.0
H2625 H 0.25634 0.63501 0.23299 0.0
H2626 H 0.21857 0.56133 0.26466 0.0
H2627 H 0.23507 0.58738 0.25921 0.0
H2628 H 0.21294 0.63018 0.27232 0.0
C2629 C 0.26028 0.67276 0.25911 0.0
C2630 C 0.24678 0.63416 0.24147 0.0
C2631 C 0.27028 0.68742 0.25635 0.0
C2632 C 0.21266 0.57227 0.26375 0.0
C2633 C 0.22209 0.58718 0.26045 0.0
C2634 C 0.22226 0.63112 0.26358 0.0
C2635 C 0.25454 0.66346 0.24647 0.0
C2636 C 0.24419 0.6477 0.24948 0.0
C2637 C 0.21487 0.60167 0.25901 0.0
C2638 C 0.22491 0.61755 0.25565 0.0
H2639 H 0.27221 0.68794 0.21619 0.0
H2640 H 0.25455 0.66245 0.22098 0.0
H2641 H 0.22938 0.65624 0.26681 0.0
H2642 H 0.17565 0.58581 0.26574 0.0
H2643 H 0.19205 0.61179 0.25973 0.0
C2644 C 0.93577 0.48288 0.06588 0.0
C2645 C 0.95105 0.48833 0.07267 0.0
C2646 C 0.92359 0.49316 0.06374 0.0
C2647 C 0.91038 0.52987 0.07808 0.0
H2648 H 0.88549 0.53178 0.03834 0.0
C2649 C 0.86635 0.57795 0.06285 0.0
C2650 C 0.85161 0.5731 0.05474 0.0
C2651 C 0.87846 0.56762 0.06504 0.0
C2652 C 0.89216 0.53125 0.0496 0.0
H2653 H 0.96551 0.50903 0.08229 0.0
H2654 H 0.9442 0.52682 0.07876 0.0
H2655 H 0.90643 0.51359 0.0423 0.0
H2656 H 0.83825 0.55355 0.04239 0.0
H2657 H 0.8591 0.53538 0.04665 0.0
H2658 H 0.89603 0.54738 0.08548 0.0
C2659 C 0.9416 0.51453 0.07525 0.0
C2660 C 0.90419 0.52083 0.05184 0.0
C2661 C 0.95381 0.5043 0.0773 0.0
C2662 C 0.84933 0.55763 0.04888 0.0
C2663 C 0.86141 0.54728 0.05113 0.0
C2664 C 0.89828 0.54022 0.07588 0.0
C2665 C 0.92637 0.50909 0.06841 0.0
C2666 C 0.91346 0.52005 0.06609 0.0
C2667 C 0.87615 0.55213 0.05923 0.0
C2668 C 0.88903 0.54108 0.06159 0.0
H2669 H 0.93311 0.47059 0.0624 0.0
H2670 H 0.9119 0.48854 0.05862 0.0
H2671 H 0.91717 0.52938 0.08927 0.0
H2672 H 0.86848 0.58969 0.06767 0.0
H2673 H 0.88972 0.57185 0.07116 0.0
C2674 C 0.08283 0.00965 0.03177 0.0
C2675 C 0.06744 1.00043 0.03247 0.0
C2676 C 0.09666 0.00234 0.02903 0.0
C2677 C 0.10972 0.96768 0.01111 0.0
H2678 H 0.14867 0.97567 0.03767 0.0
C2679 C 0.16453 0.93168 0.00741 0.0
C2680 C 0.18023 0.93985 0.00961 0.0
C2681 C 0.1508 0.93921 0.00999 0.0
C2682 C 0.138 0.97349 0.02997 0.0
H2683 H 0.05431 0.97661 0.02997 0.0
H2684 H 0.07848 0.9638 0.02508 0.0
H2685 H 0.12473 0.98867 0.04248 0.0
H2686 H 0.1939 0.96246 0.01581 0.0
H2687 H 0.16999 0.9758 0.01991 0.0
H2688 H 0.12298 0.95276 0.99838 0.0
C2689 C 0.07988 0.97661 0.02692 0.0
C2690 C 0.12426 0.9809 0.03278 0.0
C2691 C 0.06608 0.98389 0.02984 0.0
C2692 C 0.18193 0.9558 0.01422 0.0
C2693 C 0.16821 0.96341 0.01663 0.0
C2694 C 0.12351 0.96039 0.00818 0.0
C2695 C 0.09532 0.98575 0.02654 0.0
C2696 C 0.10996 0.97802 0.02343 0.0
C2697 C 0.15245 0.95518 0.01466 0.0
C2698 C 0.13782 0.96314 0.01761 0.0
H2699 H 0.0842 0.02254 0.03327 0.0
H2700 H 0.10837 0.00973 0.02854 0.0
H2701 H 0.09892 0.96541 0.00358 0.0
H2702 H 0.16286 0.9193 0.00406 0.0
H2703 H 0.1389 0.93238 0.00861 0.0
loop_
_geom_bond_atom_site_label_1
_geom_bond_atom_site_label_2
_geom_bond_distance
_geom_bond_site_symmetry_2
_ccdc_geom_bond_type
H0 C7 0.929 . S
H1 C10 0.930 . S
H2 C12 0.929 . S
H3 C4 0.969 1_565 S
C4 H3 0.969 1_545 S
C4 O5 1.550 . S
C4 H6 0.973 . S
O5 C4 1.550 . S
O5 C11 1.412 . S
H6 C4 0.973 . S
C7 H0 0.929 . S
C7 C8 1.400 . S
C7 C9 1.364 . S
C8 C7 1.400 . S
C8 C12 1.377 . S
C9 C7 1.364 . S
C9 C10 1.374 . S
C10 H1 0.930 . S
C10 C9 1.374 . S
C10 C11 1.383 . S
C11 O5 1.412 . S
C11 C10 1.383 . S
C11 C12 1.394 . S
C12 H2 0.929 . S
C12 C8 1.377 . S
C12 C11 1.394 . S
H13 C20 0.929 . S
H14 C23 0.930 . S
H15 C25 0.929 . S
H16 C17 0.969 . S
C17 H16 0.969 . S
C17 O18 1.550 . S
C17 H19 0.973 . S
O18 C17 1.550 . S
O18 C24 1.412 . S
H19 C17 0.973 . S
C20 H13 0.929 . S
C20 C21 1.400 . S
C20 C22 1.364 . S
C21 C20 1.400 . S
C21 C25 1.377 . S
C22 C20 1.364 . S
C22 C23 1.374 . S
C23 H14 0.930 . S
C23 C22 1.374 . S
C23 C24 1.383 . S
C24 O18 1.412 . S
C24 C23 1.383 . S
C24 C25 1.394 . S
C25 H15 0.929 . S
C25 C21 1.377 . S
C25 C24 1.394 . S
H26 C33 0.929 . S
H27 C36 0.930 . S
H28 C38 0.929 1_455 S
H29 C30 0.969 . S
C30 H29 0.969 . S
C30 O31 1.550 . S
C30 H32 0.973 . S
O31 C30 1.550 . S
O31 C37 1.412 . S
H32 C30 0.973 . S
C33 H26 0.929 . S
C33 C34 1.400 . S
C33 C35 1.364 . S
C34 C33 1.400 . S
C34 C38 1.377 . S
C35 C33 1.364 . S
C35 C36 1.374 . S
C36 H27 0.930 . S
C36 C35 1.374 . S
C36 C37 1.383 . S
C37 O31 1.412 . S
C37 C36 1.383 . S
C37 C38 1.394 . S
C38 H28 0.929 1_655 S
C38 C34 1.377 . S
C38 C37 1.394 . S
H39 C46 0.929 . S
H40 C49 0.930 . S
H41 C51 0.929 . S
H42 C43 0.969 . S
C43 H42 0.969 . S
C43 O44 1.550 . S
C43 H45 0.973 . S
O44 C43 1.550 . S
O44 C50 1.412 . S
H45 C43 0.973 . S
C46 H39 0.929 . S
C46 C47 1.400 . S
C46 C48 1.364 . S
C47 C46 1.400 . S
C47 C51 1.377 . S
C48 C46 1.364 . S
C48 C49 1.374 . S
C49 H40 0.930 . S
C49 C48 1.374 . S
C49 C50 1.383 . S
C50 O44 1.412 . S
C50 C49 1.383 . S
C50 C51 1.394 . S
C51 H41 0.929 . S
C51 C47 1.377 . S
C51 C50 1.394 . S
H52 C59 0.929 . S
H53 C62 0.930 . S
H54 C64 0.929 1_545 S
H55 C56 0.969 . S
C56 H55 0.969 . S
C56 O57 1.550 . S
C56 H58 0.973 . S
O57 C56 1.550 . S
O57 C63 1.412 . S
H58 C56 0.973 . S
C59 H52 0.929 . S
C59 C60 1.400 . S
C59 C61 1.364 . S
C60 C59 1.400 . S
C60 C64 1.377 . S
C61 C59 1.364 . S
C61 C62 1.374 . S
C62 H53 0.930 . S
C62 C61 1.374 . S
C62 C63 1.383 . S
C63 O57 1.412 . S
C63 C62 1.383 . S
C63 C64 1.394 . S
C64 H54 0.929 1_565 S
C64 C60 1.377 . S
C64 C63 1.394 . S
H65 C72 0.929 . S
H66 C75 0.930 . S
H67 C77 0.929 . S
H68 C69 0.969 . S
C69 H68 0.969 . S
C69 O70 1.550 . S
C69 H71 0.973 . S
O70 C69 1.550 . S
O70 C76 1.412 . S
H71 C69 0.973 . S
C72 H65 0.929 . S
C72 C73 1.400 . S
C72 C74 1.364 . S
C73 C72 1.400 . S
C73 C77 1.377 . S
C74 C72 1.364 . S
C74 C75 1.374 . S
C75 H66 0.930 . S
C75 C74 1.374 . S
C75 C76 1.383 . S
C76 O70 1.412 . S
C76 C75 1.383 . S
C76 C77 1.394 . S
C77 H67 0.929 . S
C77 C73 1.377 . S
C77 C76 1.394 . S
H78 C85 0.929 . S
H79 C88 0.930 . S
H80 C90 0.929 1_455 S
H81 C82 0.969 . S
C82 H81 0.969 . S
C82 O83 1.550 . S
C82 H84 0.973 . S
O83 C82 1.550 . S
O83 C89 1.412 1_455 S
H84 C82 0.973 . S
C85 H78 0.929 . S
C85 C86 1.400 . S
C85 C87 1.364 . S
C86 C85 1.400 . S
C86 C90 1.377 . S
C87 C85 1.364 . S
C87 C88 1.374 . S
C88 H79 0.930 . S
C88 C87 1.374 . S
C88 C89 1.383 . S
C89 O83 1.412 1_655 S
C89 C88 1.383 . S
C89 C90 1.394 . S
C90 H80 0.929 1_655 S
C90 C86 1.377 . S
C90 C89 1.394 . S
H91 C98 0.929 . S
H92 C101 0.930 . S
H93 C103 0.929 . S
H94 C95 0.969 . S
C95 H94 0.969 . S
C95 O96 1.550 . S
C95 H97 0.973 . S
O96 C95 1.550 . S
O96 C102 1.412 . S
H97 C95 0.973 . S
C98 H91 0.929 . S
C98 C99 1.400 . S
C98 C100 1.364 . S
C99 C98 1.400 . S
C99 C103 1.377 . S
C100 C98 1.364 . S
C100 C101 1.374 . S
C101 H92 0.930 . S
C101 C100 1.374 . S
C101 C102 1.383 . S
C102 O96 1.412 . S
C102 C101 1.383 . S
C102 C103 1.394 . S
C103 H93 0.929 . S
C103 C99 1.377 . S
C103 C102 1.394 . S
H104 C111 0.929 . S
H105 C114 0.930 . S
H106 C116 0.929 . S
H107 C108 0.969 . S
C108 H107 0.969 . S
C108 O109 1.550 . S
C108 H110 0.973 . S
O109 C108 1.550 . S
O109 C115 1.412 . S
H110 C108 0.973 . S
C111 H104 0.929 . S
C111 C112 1.400 . S
C111 C113 1.364 . S
C112 C111 1.400 . S
C112 C116 1.377 . S
C113 C111 1.364 . S
C113 C114 1.374 . S
C114 H105 0.930 . S
C114 C113 1.374 . S
C114 C115 1.383 . S
C115 O109 1.412 . S
C115 C114 1.383 . S
C115 C116 1.394 . S
C116 H106 0.929 . S
C116 C112 1.377 . S
C116 C115 1.394 . S
H117 C124 0.929 . S
H118 C127 0.930 . S
H119 C129 0.929 . S
H120 C121 0.969 . S
C121 H120 0.969 . S
C121 O122 1.550 . S
C121 H123 0.973 . S
O122 C121 1.550 . S
O122 C128 1.412 . S
H123 C121 0.973 . S
C124 H117 0.929 . S
C124 C125 1.400 . S
C124 C126 1.364 . S
C125 C124 1.400 . S
C125 C129 1.377 . S
C126 C124 1.364 . S
C126 C127 1.374 . S
C127 H118 0.930 . S
C127 C126 1.374 . S
C127 C128 1.383 . S
C128 O122 1.412 . S
C128 C127 1.383 . S
C128 C129 1.394 . S
C129 H119 0.929 . S
C129 C125 1.377 . S
C129 C128 1.394 . S
H130 C137 0.929 . S
H131 C140 0.930 . S
H132 C142 0.929 . S
H133 C134 0.969 . S
C134 H133 0.969 . S
C134 O135 1.550 . S
C134 H136 0.973 . S
O135 C134 1.550 . S
O135 C141 1.412 . S
H136 C134 0.973 . S
C137 H130 0.929 . S
C137 C138 1.400 . S
C137 C139 1.364 . S
C138 C137 1.400 . S
C138 C142 1.377 . S
C139 C137 1.364 . S
C139 C140 1.374 . S
C140 H131 0.930 . S
C140 C139 1.374 . S
C140 C141 1.383 . S
C141 O135 1.412 . S
C141 C140 1.383 . S
C141 C142 1.394 . S
C142 H132 0.929 . S
C142 C138 1.377 . S
C142 C141 1.394 . S
H143 C150 0.929 . S
H144 C153 0.930 . S
H145 C155 0.929 . S
H146 C147 0.969 . S
C147 H146 0.969 . S
C147 O148 1.550 . S
C147 H149 0.973 . S
O148 C147 1.550 . S
O148 C154 1.412 . S
H149 C147 0.973 . S
C150 H143 0.929 . S
C150 C151 1.400 . S
C150 C152 1.364 . S
C151 C150 1.400 . S
C151 C155 1.377 . S
C152 C150 1.364 . S
C152 C153 1.374 . S
C153 H144 0.930 . S
C153 C152 1.374 . S
C153 C154 1.383 . S
C154 O148 1.412 . S
C154 C153 1.383 . S
C154 C155 1.394 . S
C155 H145 0.929 . S
C155 C151 1.377 . S
C155 C154 1.394 . S
H156 C163 0.929 . S
H157 C166 0.930 . S
H158 C168 0.929 . S
H159 C160 0.969 . S
C160 H159 0.969 . S
C160 O161 1.550 . S
C160 H162 0.973 . S
O161 C160 1.550 . S
O161 C167 1.412 . S
H162 C160 0.973 . S
C163 H156 0.929 . S
C163 C164 1.400 . S
C163 C165 1.364 . S
C164 C163 1.400 . S
C164 C168 1.377 . S
C165 C163 1.364 . S
C165 C166 1.374 . S
C166 H157 0.930 . S
C166 C165 1.374 . S
C166 C167 1.383 . S
C167 O161 1.412 . S
C167 C166 1.383 . S
C167 C168 1.394 . S
C168 H158 0.929 . S
C168 C164 1.377 . S
C168 C167 1.394 . S
H169 C176 0.915 1_554 S
H170 C179 0.930 . S
H171 C181 0.929 . S
H172 C173 0.969 . S
C173 H172 0.969 . S
C173 O174 1.550 . S
C173 H175 0.973 . S
O174 C173 1.550 . S
O174 C180 1.412 . S
H175 C173 0.973 . S
C176 H169 0.915 1_556 S
C176 C177 1.400 . S
C176 C178 1.364 . S
C177 C176 1.400 . S
C177 C181 1.377 . S
C178 C176 1.364 . S
C178 C179 1.374 . S
C179 H170 0.930 . S
C179 C178 1.374 . S
C179 C180 1.383 . S
C180 O174 1.412 . S
C180 C179 1.383 . S
C180 C181 1.394 . S
C181 H171 0.929 . S
C181 C177 1.377 . S
C181 C180 1.394 . S
H182 C189 0.929 . S
H183 C192 0.930 . S
H184 C194 0.929 . S
H185 C186 0.969 . S
C186 H185 0.969 . S
C186 O187 1.550 . S
C186 H188 0.973 . S
O187 C186 1.550 . S
O187 C193 1.412 . S
H188 C186 0.973 . S
C189 H182 0.929 . S
C189 C190 1.400 . S
C189 C191 1.364 . S
C190 C189 1.400 . S
C190 C194 1.377 . S
C191 C189 1.364 . S
C191 C192 1.374 . S
C192 H183 0.930 . S
C192 C191 1.374 . S
C192 C193 1.383 . S
C193 O187 1.412 . S
C193 C192 1.383 . S
C193 C194 1.394 . S
C194 H184 0.929 . S
C194 C190 1.377 . S
C194 C193 1.394 . S
H195 C202 0.929 . S
H196 C205 0.930 . S
H197 C207 0.929 . S
H198 C199 0.969 . S
C199 H198 0.969 . S
C199 O200 1.550 . S
C199 H201 0.973 . S
O200 C199 1.550 . S
O200 C206 1.412 . S
H201 C199 0.973 . S
C202 H195 0.929 . S
C202 C203 1.400 . S
C202 C204 1.364 1_554 S
C203 C202 1.400 . S
C203 C207 1.377 1_554 S
C204 C202 1.364 1_556 S
C204 C205 1.374 . S
C205 H196 0.930 . S
C205 C204 1.374 . S
C205 C206 1.383 . S
C206 O200 1.412 . S
C206 C205 1.383 . S
C206 C207 1.394 . S
C207 H197 0.929 . S
C207 C203 1.377 1_556 S
C207 C206 1.394 . S
Li208 N225 1.990 . S
Li208 O268 1.956 . S
Li208 O269 1.970 1_556 S
Li208 O270 1.961 . S
Li209 N233 1.990 . S
Li209 O268 1.972 1_554 S
Li209 O269 1.956 . S
Li209 O271 1.961 . S
Li210 N255 1.990 . S
Li210 O268 1.959 . S
Li210 O270 1.956 . S
Li210 O271 1.970 1_556 S
Li211 N261 1.990 . S
Li211 O269 1.961 . S
Li211 O270 1.970 1_554 S
Li211 O271 1.956 . S
C212 C214 1.348 1_556 S
C212 C215 1.356 . S
C212 O268 1.324 . S
N213 C216 1.314 1_556 S
N213 C217 1.279 . S
C214 C212 1.348 1_554 S
C214 C216 1.353 . S
C214 H272 0.929 . S
C215 C212 1.356 . S
C215 C217 1.358 . S
C215 H273 0.930 . S
C216 N213 1.314 1_554 S
C216 C214 1.353 . S
C216 H274 0.930 . S
C217 N213 1.279 . S
C217 C215 1.358 . S
C217 H275 0.930 . S
C218 C221 1.348 . S
C218 C222 1.356 . S
C218 O269 1.325 . S
C219 N220 1.279 . S
C219 C222 1.358 . S
C219 H276 0.930 . S
N220 C219 1.279 . S
N220 C223 1.314 . S
C221 C218 1.348 . S
C221 C223 1.353 . S
C221 H277 0.929 . S
C222 C218 1.356 . S
C222 C219 1.358 . S
C222 H278 0.930 . S
C223 N220 1.314 . S
C223 C221 1.353 . S
C223 H279 0.930 . S
C224 N225 1.314 . S
C224 C229 1.353 . S
C224 H230 0.930 . S
N225 Li208 1.990 . S
N225 C224 1.314 . S
N225 C227 1.279 . S
C226 C227 1.358 . S
C226 C228 1.356 . S
C226 H280 0.931 . S
C227 N225 1.279 . S
C227 C226 1.358 . S
C227 H231 0.930 1_556 S
C228 C226 1.356 . S
C228 C229 1.348 . S
C229 C224 1.353 . S
C229 C228 1.348 . S
C229 H281 0.929 . S
H230 C224 0.930 . S
H231 C227 0.930 1_554 S
C232 N233 1.314 . S
C232 C234 1.353 . S
C232 H238 0.930 . S
N233 Li209 1.990 . S
N233 C232 1.314 . S
N233 C236 1.279 . S
C234 C232 1.353 . S
C234 C237 1.348 . S
C234 H282 0.929 . S
C235 C236 1.358 . S
C235 C237 1.356 . S
C235 H283 0.930 . S
C236 N233 1.279 . S
C236 C235 1.358 . S
C236 H239 0.930 . S
C237 C234 1.348 . S
C237 C235 1.356 . S
H238 C232 0.930 . S
H239 C236 0.930 . S
C240 C242 1.348 . S
C240 C243 1.356 . S
C240 O270 1.325 . S
N241 C244 1.314 . S
N241 C245 1.279 . S
C242 C240 1.348 . S
C242 C244 1.353 . S
C242 H284 0.929 . S
C243 C240 1.356 . S
C243 C245 1.358 . S
C243 H285 0.930 . S
C244 N241 1.314 . S
C244 C242 1.353 . S
C244 H286 0.930 . S
C245 N241 1.279 . S
C245 C243 1.358 . S
C245 H287 0.930 . S
C246 C247 1.348 1_554 S
C246 C248 1.356 . S
C246 O271 1.325 . S
C247 C246 1.348 1_556 S
C247 C249 1.353 . S
C247 H288 0.929 . S
C248 C246 1.356 . S
C248 C250 1.358 . S
C248 H289 0.930 . S
C249 C247 1.353 . S
C249 N251 1.314 1_556 S
C249 H290 0.930 . S
C250 C248 1.358 . S
C250 N251 1.279 . S
C250 H291 0.930 . S
N251 C249 1.314 1_554 S
N251 C250 1.279 . S
C252 C254 1.353 . S
C252 N255 1.314 . S
C252 H258 0.930 . S
C253 N255 1.279 . S
C253 C256 1.358 . S
C253 H259 0.930 . S
C254 C252 1.353 . S
C254 C257 1.348 . S
C254 H292 0.929 . S
N255 Li210 1.990 . S
N255 C252 1.314 . S
N255 C253 1.279 . S
C256 C253 1.358 . S
C256 C257 1.356 . S
C256 H293 0.930 . S
C257 C254 1.348 . S
C257 C256 1.356 . S
H258 C252 0.930 . S
H259 C253 0.930 . S
C260 N261 1.314 . S
C260 C262 1.353 . S
C260 H266 0.930 . S
N261 Li211 1.990 . S
N261 C260 1.314 . S
N261 C264 1.279 . S
C262 C260 1.353 . S
C262 C265 1.348 . S
C262 H294 0.929 . S
C263 C264 1.358 . S
C263 C265 1.356 . S
C263 H295 0.933 . S
C264 N261 1.279 . S
C264 C263 1.358 . S
C264 H267 0.917 1_554 S
C265 C262 1.348 . S
C265 C263 1.356 . S
H266 C260 0.930 . S
H267 C264 0.917 1_556 S
O268 Li208 1.956 . S
O268 Li209 1.972 1_556 S
O268 Li210 1.959 . S
O268 C212 1.324 . S
O269 Li208 1.970 1_554 S
O269 Li209 1.956 . S
O269 Li211 1.961 . S
O269 C218 1.325 . S
O270 Li208 1.961 . S
O270 Li210 1.956 . S
O270 Li211 1.970 1_556 S
O270 C240 1.325 . S
O271 Li209 1.961 . S
O271 Li210 1.970 1_554 S
O271 Li211 1.956 . S
O271 C246 1.325 . S
H272 C214 0.929 . S
H273 C215 0.930 . S
H274 C216 0.930 . S
H275 C217 0.930 . S
H276 C219 0.930 . S
H277 C221 0.929 . S
H278 C222 0.930 . S
H279 C223 0.930 . S
H280 C226 0.931 . S
H281 C229 0.929 . S
H282 C234 0.929 . S
H283 C235 0.930 . S
H284 C242 0.929 . S
H285 C243 0.930 . S
H286 C244 0.930 . S
H287 C245 0.930 . S
H288 C247 0.929 . S
H289 C248 0.930 . S
H290 C249 0.930 . S
H291 C250 0.930 . S
H292 C254 0.929 . S
H293 C256 0.930 . S
H294 C262 0.929 . S
H295 C263 0.933 . S
Li296 N313 1.990 . S
Li296 O356 1.956 . S
Li296 O357 1.970 . S
Li296 O358 1.961 . S
Li297 N321 1.990 . S
Li297 O356 1.970 . S
Li297 O357 1.956 . S
Li297 O359 1.961 . S
Li298 N343 1.990 . S
Li298 O356 1.961 . S
Li298 O358 1.956 . S
Li298 O359 1.970 . S
Li299 N349 1.990 . S
Li299 O357 1.961 . S
Li299 O358 1.970 . S
Li299 O359 1.956 . S
C300 C302 1.348 . S
C300 C303 1.356 . S
C300 O356 1.325 . S
N301 C304 1.314 . S
N301 C305 1.279 . S
C302 C300 1.348 . S
C302 C304 1.353 . S
C302 H360 0.929 . S
C303 C300 1.356 . S
C303 C305 1.358 . S
C303 H361 0.930 . S
C304 N301 1.314 . S
C304 C302 1.353 . S
C304 H362 0.930 . S
C305 N301 1.279 . S
C305 C303 1.358 . S
C305 H363 0.930 . S
C306 C309 1.348 . S
C306 C310 1.356 . S
C306 O357 1.325 . S
C307 N308 1.279 . S
C307 C310 1.358 . S
C307 H364 0.930 . S
N308 C307 1.279 . S
N308 C311 1.314 . S
C309 C306 1.348 . S
C309 C311 1.353 . S
C309 H365 0.929 . S
C310 C306 1.356 . S
C310 C307 1.358 . S
C310 H366 0.930 . S
C311 N308 1.314 . S
C311 C309 1.353 . S
C311 H367 0.930 . S
C312 N313 1.314 . S
C312 C317 1.353 . S
C312 H318 0.930 . S
N313 Li296 1.990 . S
N313 C312 1.314 . S
N313 C315 1.279 . S
C314 C315 1.358 . S
C314 C316 1.356 . S
C314 H368 0.930 . S
C315 N313 1.279 . S
C315 C314 1.358 . S
C315 H319 0.930 . S
C316 C314 1.356 . S
C316 C317 1.348 . S
C317 C312 1.353 . S
C317 C316 1.348 . S
C317 H369 0.929 . S
H318 C312 0.930 . S
H319 C315 0.930 . S
C320 N321 1.314 . S
C320 C322 1.353 . S
C320 H326 0.930 . S
N321 Li297 1.990 . S
N321 C320 1.314 . S
N321 C324 1.279 . S
C322 C320 1.353 . S
C322 C325 1.348 . S
C322 H370 0.929 . S
C323 C324 1.358 . S
C323 C325 1.356 . S
C323 H371 0.930 . S
C324 N321 1.279 . S
C324 C323 1.358 . S
C324 H327 0.930 . S
C325 C322 1.348 . S
C325 C323 1.356 . S
H326 C320 0.930 . S
H327 C324 0.930 . S
C328 C330 1.348 . S
C328 C331 1.356 . S
C328 O358 1.325 . S
N329 C332 1.314 . S
N329 C333 1.279 . S
C330 C328 1.348 . S
C330 C332 1.353 . S
C330 H372 0.929 . S
C331 C328 1.356 . S
C331 C333 1.358 . S
C331 H373 0.930 . S
C332 N329 1.314 . S
C332 C330 1.353 . S
C332 H374 0.930 . S
C333 N329 1.279 . S
C333 C331 1.358 . S
C333 H375 0.930 . S
C334 C335 1.348 . S
C334 C336 1.356 . S
C334 O359 1.325 . S
C335 C334 1.348 . S
C335 C337 1.353 . S
C335 H376 0.929 . S
C336 C334 1.356 . S
C336 C338 1.358 . S
C336 H377 0.930 . S
C337 C335 1.353 . S
C337 N339 1.314 . S
C337 H378 0.930 . S
C338 C336 1.358 . S
C338 N339 1.279 . S
C338 H379 0.930 . S
N339 C337 1.314 . S
N339 C338 1.279 . S
C340 C342 1.353 . S
C340 N343 1.314 . S
C340 H346 0.930 . S
C341 N343 1.279 . S
C341 C344 1.358 . S
C341 H347 0.930 . S
C342 C340 1.353 . S
C342 C345 1.348 . S
C342 H380 0.929 . S
N343 Li298 1.990 . S
N343 C340 1.314 . S
N343 C341 1.279 . S
C344 C341 1.358 . S
C344 C345 1.356 . S
C344 H381 0.930 . S
C345 C342 1.348 . S
C345 C344 1.356 . S
H346 C340 0.930 . S
H347 C341 0.930 . S
C348 N349 1.314 . S
C348 C350 1.353 . S
C348 H354 0.930 . S
N349 Li299 1.990 . S
N349 C348 1.314 . S
N349 C352 1.279 . S
C350 C348 1.353 . S
C350 C353 1.348 . S
C350 H382 0.929 . S
C351 C352 1.358 . S
C351 C353 1.356 . S
C351 H383 0.930 . S
C352 N349 1.279 . S
C352 C351 1.358 . S
C352 H355 0.930 . S
C353 C350 1.348 . S
C353 C351 1.356 . S
H354 C348 0.930 . S
H355 C352 0.930 . S
O356 Li296 1.956 . S
O356 Li297 1.970 . S
O356 Li298 1.961 . S
O356 C300 1.325 . S
O357 Li296 1.970 . S
O357 Li297 1.956 . S
O357 Li299 1.961 . S
O357 C306 1.325 . S
O358 Li296 1.961 . S
O358 Li298 1.956 . S
O358 Li299 1.970 . S
O358 C328 1.325 . S
O359 Li297 1.961 . S
O359 Li298 1.970 . S
O359 Li299 1.956 . S
O359 C334 1.325 . S
H360 C302 0.929 . S
H361 C303 0.930 . S
H362 C304 0.930 . S
H363 C305 0.930 . S
H364 C307 0.930 . S
H365 C309 0.929 . S
H366 C310 0.930 . S
H367 C311 0.930 . S
H368 C314 0.930 . S
H369 C317 0.929 . S
H370 C322 0.929 . S
H371 C323 0.930 . S
H372 C330 0.929 . S
H373 C331 0.930 . S
H374 C332 0.930 . S
H375 C333 0.930 . S
H376 C335 0.929 . S
H377 C336 0.930 . S
H378 C337 0.930 . S
H379 C338 0.930 . S
H380 C342 0.929 . S
H381 C344 0.930 . S
H382 C350 0.929 . S
H383 C351 0.930 . S
Li384 N401 1.990 . S
Li384 O444 1.956 . S
Li384 O445 1.970 . S
Li384 O446 1.961 . S
Li385 N409 1.990 . S
Li385 O444 1.970 . S
Li385 O445 1.956 . S
Li385 O447 1.961 . S
Li386 N431 1.990 . S
Li386 O444 1.961 . S
Li386 O446 1.956 . S
Li386 O447 1.970 . S
Li387 N437 1.990 . S
Li387 O445 1.961 . S
Li387 O446 1.970 . S
Li387 O447 1.956 . S
C388 C390 1.348 . S
C388 C391 1.356 . S
C388 O444 1.325 . S
N389 C392 1.314 . S
N389 C393 1.279 . S
C390 C388 1.348 . S
C390 C392 1.353 . S
C390 H448 0.929 . S
C391 C388 1.356 . S
C391 C393 1.358 . S
C391 H449 0.930 . S
C392 N389 1.314 . S
C392 C390 1.353 . S
C392 H450 0.930 . S
C393 N389 1.279 . S
C393 C391 1.358 . S
C393 H451 0.930 . S
C394 C397 1.348 . S
C394 C398 1.356 . S
C394 O445 1.325 . S
C395 N396 1.279 . S
C395 C398 1.358 . S
C395 H452 0.930 . S
N396 C395 1.279 . S
N396 C399 1.314 . S
C397 C394 1.348 . S
C397 C399 1.353 . S
C397 H453 0.929 . S
C398 C394 1.356 . S
C398 C395 1.358 . S
C398 H454 0.930 . S
C399 N396 1.314 . S
C399 C397 1.353 . S
C399 H455 0.930 . S
C400 N401 1.314 . S
C400 C405 1.353 . S
C400 H406 0.930 . S
N401 Li384 1.990 . S
N401 C400 1.314 . S
N401 C403 1.279 . S
C402 C403 1.358 . S
C402 C404 1.356 . S
C402 H456 0.930 . S
C403 N401 1.279 . S
C403 C402 1.358 . S
C403 H407 0.930 . S
C404 C402 1.356 . S
C404 C405 1.348 . S
C405 C400 1.353 . S
C405 C404 1.348 . S
C405 H457 0.929 . S
H406 C400 0.930 . S
H407 C403 0.930 . S
C408 N409 1.314 . S
C408 C410 1.353 . S
C408 H414 0.930 . S
N409 Li385 1.990 . S
N409 C408 1.314 . S
N409 C412 1.279 . S
C410 C408 1.353 . S
C410 C413 1.348 . S
C410 H458 0.929 . S
C411 C412 1.358 . S
C411 C413 1.356 . S
C411 H459 0.930 . S
C412 N409 1.279 . S
C412 C411 1.358 . S
C412 H415 0.930 . S
C413 C410 1.348 . S
C413 C411 1.356 . S
H414 C408 0.930 . S
H415 C412 0.930 . S
C416 C418 1.348 . S
C416 C419 1.374 . S
C416 O446 1.325 . S
N417 C420 1.314 . S
N417 C421 1.279 . S
C418 C416 1.348 . S
C418 C420 1.353 1_554 S
C418 H460 0.929 . S
C419 C416 1.374 . S
C419 C421 1.338 1_554 S
C419 H461 0.925 . S
C420 N417 1.314 . S
C420 C418 1.353 1_556 S
C420 H462 0.930 . S
C421 N417 1.279 . S
C421 C419 1.338 1_556 S
C421 H463 0.930 . S
C422 C423 1.348 . S
C422 C424 1.356 . S
C422 O447 1.325 . S
C423 C422 1.348 . S
C423 C425 1.353 . S
C423 H464 0.929 . S
C424 C422 1.356 . S
C424 C426 1.358 . S
C424 H465 0.930 . S
C425 C423 1.353 . S
C425 N427 1.314 . S
C425 H466 0.930 . S
C426 C424 1.358 . S
C426 N427 1.279 . S
C426 H467 0.930 . S
N427 C425 1.314 . S
N427 C426 1.279 . S
C428 C430 1.353 1_554 S
C428 N431 1.314 . S
C428 H434 0.930 . S
C429 N431 1.279 1_556 S
C429 C432 1.358 . S
C429 H435 0.930 . S
C430 C428 1.353 1_556 S
C430 C433 1.348 . S
C430 H468 0.929 . S
N431 Li386 1.990 . S
N431 C428 1.314 . S
N431 C429 1.279 1_554 S
C432 C429 1.358 . S
C432 C433 1.356 . S
C432 H469 0.930 . S
C433 C430 1.348 . S
C433 C432 1.356 . S
H434 C428 0.930 . S
H435 C429 0.930 . S
C436 N437 1.314 . S
C436 C438 1.353 . S
C436 H442 0.930 . S
N437 Li387 1.990 . S
N437 C436 1.314 . S
N437 C440 1.279 . S
C438 C436 1.353 . S
C438 C441 1.348 . S
C438 H470 0.929 . S
C439 C440 1.358 . S
C439 C441 1.356 . S
C439 H471 0.930 . S
C440 N437 1.279 . S
C440 C439 1.358 . S
C440 H443 0.930 . S
C441 C438 1.348 . S
C441 C439 1.356 . S
H442 C436 0.930 . S
H443 C440 0.930 . S
O444 Li384 1.956 . S
O444 Li385 1.970 . S
O444 Li386 1.961 . S
O444 C388 1.325 . S
O445 Li384 1.970 . S
O445 Li385 1.956 . S
O445 Li387 1.961 . S
O445 C394 1.325 . S
O446 Li384 1.961 . S
O446 Li386 1.956 . S
O446 Li387 1.970 . S
O446 C416 1.325 . S
O447 Li385 1.961 . S
O447 Li386 1.970 . S
O447 Li387 1.956 . S
O447 C422 1.325 . S
H448 C390 0.929 . S
H449 C391 0.930 . S
H450 C392 0.930 . S
H451 C393 0.930 . S
H452 C395 0.930 . S
H453 C397 0.929 . S
H454 C398 0.930 . S
H455 C399 0.930 . S
H456 C402 0.930 . S
H457 C405 0.929 . S
H458 C410 0.929 . S
H459 C411 0.930 . S
H460 C418 0.929 . S
H461 C419 0.925 . S
H462 C420 0.930 . S
H463 C421 0.930 . S
H464 C423 0.929 . S
H465 C424 0.930 . S
H466 C425 0.930 . S
H467 C426 0.930 . S
H468 C430 0.929 . S
H469 C432 0.930 . S
H470 C438 0.929 . S
H471 C439 0.930 . S
Li472 N489 1.990 . S
Li472 O532 1.956 . S
Li472 O533 1.970 . S
Li472 O534 1.961 . S
Li473 N497 1.990 . S
Li473 O532 1.970 . S
Li473 O533 1.956 . S
Li473 O535 1.961 . S
Li474 N519 1.990 . S
Li474 O532 1.961 . S
Li474 O534 1.956 . S
Li474 O535 1.970 . S
Li475 N525 1.990 1_545 S
Li475 O533 1.961 . S
Li475 O534 1.970 . S
Li475 O535 1.956 . S
C476 C478 1.348 . S
C476 C479 1.356 . S
C476 O532 1.325 . S
N477 C480 1.314 . S
N477 C481 1.279 . S
C478 C476 1.348 . S
C478 C480 1.353 . S
C478 H536 0.929 . S
C479 C476 1.356 . S
C479 C481 1.358 . S
C479 H537 0.930 . S
C480 N477 1.314 . S
C480 C478 1.353 . S
C480 H538 0.930 . S
C481 N477 1.279 . S
C481 C479 1.358 . S
C481 H539 0.930 . S
C482 C485 1.348 . S
C482 C486 1.356 1_545 S
C482 O533 1.325 . S
C483 N484 1.279 1_565 S
C483 C486 1.358 . S
C483 H540 0.930 . S
N484 C483 1.279 1_545 S
N484 C487 1.314 . S
C485 C482 1.348 . S
C485 C487 1.353 . S
C485 H541 0.929 . S
C486 C482 1.356 1_565 S
C486 C483 1.358 . S
C486 H542 0.930 . S
C487 N484 1.314 . S
C487 C485 1.353 . S
C487 H543 0.930 . S
C488 N489 1.314 . S
C488 C493 1.353 . S
C488 H494 0.930 . S
N489 Li472 1.990 . S
N489 C488 1.314 . S
N489 C491 1.279 . S
C490 C491 1.358 . S
C490 C492 1.356 . S
C490 H544 0.930 . S
C491 N489 1.279 . S
C491 C490 1.358 . S
C491 H495 0.930 . S
C492 C490 1.356 . S
C492 C493 1.348 . S
C493 C488 1.353 . S
C493 C492 1.348 . S
C493 H545 0.929 . S
H494 C488 0.930 . S
H495 C491 0.930 . S
C496 N497 1.314 . S
C496 C498 1.353 . S
C496 H502 0.930 . S
N497 Li473 1.990 . S
N497 C496 1.314 . S
N497 C500 1.279 . S
C498 C496 1.353 . S
C498 C501 1.348 . S
C498 H546 0.929 . S
C499 C500 1.358 . S
C499 C501 1.356 . S
C499 H547 0.930 . S
C500 N497 1.279 . S
C500 C499 1.358 . S
C500 H503 0.930 . S
C501 C498 1.348 . S
C501 C499 1.356 . S
H502 C496 0.930 . S
H503 C500 0.930 . S
C504 C506 1.348 . S
C504 C507 1.356 . S
C504 O534 1.325 . S
N505 C508 1.314 . S
N505 C509 1.279 . S
C506 C504 1.348 . S
C506 C508 1.353 . S
C506 H548 0.929 1_545 S
C507 C504 1.356 . S
C507 C509 1.358 . S
C507 H549 0.930 . S
C508 N505 1.314 . S
C508 C506 1.353 . S
C508 H550 0.930 . S
C509 N505 1.279 . S
C509 C507 1.358 . S
C509 H551 0.930 . S
C510 C511 1.348 . S
C510 C512 1.356 . S
C510 O535 1.325 1_565 S
C511 C510 1.348 . S
C511 C513 1.353 . S
C511 H552 0.929 . S
C512 C510 1.356 . S
C512 C514 1.358 . S
C512 H553 0.930 . S
C513 C511 1.353 . S
C513 N515 1.314 . S
C513 H554 0.930 . S
C514 C512 1.358 . S
C514 N515 1.279 . S
C514 H555 0.930 . S
N515 C513 1.314 . S
N515 C514 1.279 . S
C516 C518 1.353 . S
C516 N519 1.314 . S
C516 H522 0.930 . S
C517 N519 1.279 . S
C517 C520 1.358 . S
C517 H523 0.930 . S
C518 C516 1.353 . S
C518 C521 1.348 . S
C518 H556 0.929 . S
N519 Li474 1.990 . S
N519 C516 1.314 . S
N519 C517 1.279 . S
C520 C517 1.358 . S
C520 C521 1.356 . S
C520 H557 0.930 . S
C521 C518 1.348 . S
C521 C520 1.356 . S
H522 C516 0.930 . S
H523 C517 0.930 . S
C524 N525 1.314 . S
C524 C526 1.353 . S
C524 H530 0.930 . S
N525 Li475 1.990 1_565 S
N525 C524 1.314 . S
N525 C528 1.279 . S
C526 C524 1.353 . S
C526 C529 1.348 . S
C526 H558 0.929 . S
C527 C528 1.358 . S
C527 C529 1.356 . S
C527 H559 0.930 . S
C528 N525 1.279 . S
C528 C527 1.358 . S
C528 H531 0.930 . S
C529 C526 1.348 . S
C529 C527 1.356 . S
H530 C524 0.930 . S
H531 C528 0.930 . S
O532 Li472 1.956 . S
O532 Li473 1.970 . S
O532 Li474 1.961 . S
O532 C476 1.325 . S
O533 Li472 1.970 . S
O533 Li473 1.956 . S
O533 Li475 1.961 . S
O533 C482 1.325 . S
O534 Li472 1.961 . S
O534 Li474 1.956 . S
O534 Li475 1.970 . S
O534 C504 1.325 . S
O535 Li473 1.961 . S
O535 Li474 1.970 . S
O535 Li475 1.956 . S
O535 C510 1.325 1_545 S
H536 C478 0.929 . S
H537 C479 0.930 . S
H538 C480 0.930 . S
H539 C481 0.930 . S
H540 C483 0.930 . S
H541 C485 0.929 . S
H542 C486 0.930 . S
H543 C487 0.930 . S
H544 C490 0.930 . S
H545 C493 0.929 . S
H546 C498 0.929 . S
H547 C499 0.930 . S
H548 C506 0.929 1_565 S
H549 C507 0.930 . S
H550 C508 0.930 . S
H551 C509 0.930 . S
H552 C511 0.929 . S
H553 C512 0.930 . S
H554 C513 0.930 . S
H555 C514 0.930 . S
H556 C518 0.929 . S
H557 C520 0.930 . S
H558 C526 0.929 . S
H559 C527 0.930 . S
Li560 N577 1.990 . S
Li560 O620 1.956 . S
Li560 O621 1.970 . S
Li560 O622 1.961 . S
Li561 N585 1.990 . S
Li561 O620 1.970 . S
Li561 O621 1.956 . S
Li561 O623 1.961 . S
Li562 N607 1.990 . S
Li562 O620 1.961 . S
Li562 O622 1.956 . S
Li562 O623 1.970 . S
Li563 N613 1.990 . S
Li563 O621 1.961 . S
Li563 O622 1.970 . S
Li563 O623 1.956 . S
C564 C566 1.348 . S
C564 C567 1.356 . S
C564 O620 1.325 . S
N565 C568 1.314 . S
N565 C569 1.279 . S
C566 C564 1.348 . S
C566 C568 1.353 . S
C566 H624 0.929 . S
C567 C564 1.356 . S
C567 C569 1.358 . S
C567 H625 0.930 . S
C568 N565 1.314 . S
C568 C566 1.353 . S
C568 H626 0.930 . S
C569 N565 1.279 . S
C569 C567 1.358 . S
C569 H627 0.930 . S
C570 C573 1.348 . S
C570 C574 1.356 . S
C570 O621 1.325 . S
C571 N572 1.279 . S
C571 C574 1.358 . S
C571 H628 0.930 . S
N572 C571 1.279 . S
N572 C575 1.314 . S
C573 C570 1.348 . S
C573 C575 1.353 . S
C573 H629 0.929 . S
C574 C570 1.356 . S
C574 C571 1.358 . S
C574 H630 0.930 . S
C575 N572 1.314 . S
C575 C573 1.353 . S
C575 H631 0.930 . S
C576 N577 1.314 . S
C576 C581 1.353 . S
C576 H582 0.930 . S
N577 Li560 1.990 . S
N577 C576 1.314 . S
N577 C579 1.279 . S
C578 C579 1.358 . S
C578 C580 1.356 . S
C578 H632 0.930 . S
C579 N577 1.279 . S
C579 C578 1.358 . S
C579 H583 0.930 . S
C580 C578 1.356 . S
C580 C581 1.348 . S
C581 C576 1.353 . S
C581 C580 1.348 . S
C581 H633 0.929 . S
H582 C576 0.930 . S
H583 C579 0.930 . S
C584 N585 1.314 . S
C584 C586 1.353 . S
C584 H590 0.930 . S
N585 Li561 1.990 . S
N585 C584 1.314 . S
N585 C588 1.279 . S
C586 C584 1.353 . S
C586 C589 1.348 . S
C586 H634 0.929 . S
C587 C588 1.358 . S
C587 C589 1.356 . S
C587 H635 0.930 . S
C588 N585 1.279 . S
C588 C587 1.358 . S
C588 H591 0.930 . S
C589 C586 1.348 . S
C589 C587 1.356 . S
H590 C584 0.930 . S
H591 C588 0.930 . S
C592 C594 1.348 . S
C592 C595 1.356 . S
C592 O622 1.325 . S
N593 C596 1.314 . S
N593 C597 1.279 . S
C594 C592 1.348 . S
C594 C596 1.353 . S
C594 H636 0.929 . S
C595 C592 1.356 . S
C595 C597 1.358 . S
C595 H637 0.930 . S
C596 N593 1.314 . S
C596 C594 1.353 . S
C596 H638 0.930 . S
C597 N593 1.279 . S
C597 C595 1.358 . S
C597 H639 0.930 . S
C598 C599 1.348 . S
C598 C600 1.356 . S
C598 O623 1.325 . S
C599 C598 1.348 . S
C599 C601 1.353 . S
C599 H640 0.929 . S
C600 C598 1.356 . S
C600 C602 1.358 . S
C600 H641 0.930 . S
C601 C599 1.353 . S
C601 N603 1.314 . S
C601 H642 0.930 . S
C602 C600 1.358 . S
C602 N603 1.279 . S
C602 H643 0.930 . S
N603 C601 1.314 . S
N603 C602 1.279 . S
C604 C606 1.353 . S
C604 N607 1.314 . S
C604 H610 0.930 . S
C605 N607 1.279 . S
C605 C608 1.358 . S
C605 H611 0.930 . S
C606 C604 1.353 . S
C606 C609 1.348 . S
C606 H644 0.929 . S
N607 Li562 1.990 . S
N607 C604 1.314 . S
N607 C605 1.279 . S
C608 C605 1.358 . S
C608 C609 1.356 . S
C608 H645 0.930 . S
C609 C606 1.348 . S
C609 C608 1.356 . S
H610 C604 0.930 . S
H611 C605 0.930 . S
C612 N613 1.314 . S
C612 C614 1.353 . S
C612 H618 0.930 . S
N613 Li563 1.990 . S
N613 C612 1.314 . S
N613 C616 1.279 . S
C614 C612 1.353 . S
C614 C617 1.348 . S
C614 H646 0.929 . S
C615 C616 1.358 . S
C615 C617 1.356 . S
C615 H647 0.930 . S
C616 N613 1.279 . S
C616 C615 1.358 . S
C616 H619 0.930 . S
C617 C614 1.348 . S
C617 C615 1.356 . S
H618 C612 0.930 . S
H619 C616 0.930 . S
O620 Li560 1.956 . S
O620 Li561 1.970 . S
O620 Li562 1.961 . S
O620 C564 1.325 . S
O621 Li560 1.970 . S
O621 Li561 1.956 . S
O621 Li563 1.961 . S
O621 C570 1.325 . S
O622 Li560 1.961 . S
O622 Li562 1.956 . S
O622 Li563 1.970 . S
O622 C592 1.325 . S
O623 Li561 1.961 . S
O623 Li562 1.970 . S
O623 Li563 1.956 . S
O623 C598 1.325 . S
H624 C566 0.929 . S
H625 C567 0.930 . S
H626 C568 0.930 . S
H627 C569 0.930 . S
H628 C571 0.930 . S
H629 C573 0.929 . S
H630 C574 0.930 . S
H631 C575 0.930 . S
H632 C578 0.930 . S
H633 C581 0.929 . S
H634 C586 0.929 . S
H635 C587 0.930 . S
H636 C594 0.929 . S
H637 C595 0.930 . S
H638 C596 0.930 . S
H639 C597 0.930 . S
H640 C599 0.929 . S
H641 C600 0.930 . S
H642 C601 0.930 . S
H643 C602 0.930 . S
H644 C606 0.929 . S
H645 C608 0.930 . S
H646 C614 0.929 . S
H647 C615 0.930 . S
Li648 N665 1.990 . S
Li648 O708 1.956 . S
Li648 O709 1.970 . S
Li648 O710 1.961 . S
Li649 N673 1.990 . S
Li649 O708 1.970 . S
Li649 O709 1.956 . S
Li649 O711 1.961 . S
Li650 N695 1.990 . S
Li650 O708 1.961 . S
Li650 O710 1.956 . S
Li650 O711 1.970 . S
Li651 N701 1.990 . S
Li651 O709 1.961 . S
Li651 O710 1.970 . S
Li651 O711 1.956 . S
C652 C654 1.348 . S
C652 C655 1.356 . S
C652 O708 1.325 . S
N653 C656 1.314 . S
N653 C657 1.279 . S
C654 C652 1.348 . S
C654 C656 1.353 . S
C654 H712 0.929 . S
C655 C652 1.356 . S
C655 C657 1.358 . S
C655 H713 0.930 . S
C656 N653 1.314 . S
C656 C654 1.353 . S
C656 H714 0.930 . S
C657 N653 1.279 . S
C657 C655 1.358 . S
C657 H715 0.930 . S
C658 C661 1.348 . S
C658 C662 1.356 . S
C658 O709 1.325 . S
C659 N660 1.279 . S
C659 C662 1.358 . S
C659 H716 0.930 . S
N660 C659 1.279 . S
N660 C663 1.314 . S
C661 C658 1.348 . S
C661 C663 1.353 . S
C661 H717 0.929 . S
C662 C658 1.356 . S
C662 C659 1.358 . S
C662 H718 0.930 . S
C663 N660 1.314 . S
C663 C661 1.353 . S
C663 H719 0.930 . S
C664 N665 1.314 . S
C664 C669 1.353 . S
C664 H670 0.930 . S
N665 Li648 1.990 . S
N665 C664 1.314 . S
N665 C667 1.279 . S
C666 C667 1.358 . S
C666 C668 1.356 . S
C666 H720 0.930 . S
C667 N665 1.279 . S
C667 C666 1.358 . S
C667 H671 0.930 . S
C668 C666 1.356 . S
C668 C669 1.348 . S
C669 C664 1.353 . S
C669 C668 1.348 . S
C669 H721 0.929 . S
H670 C664 0.930 . S
H671 C667 0.930 . S
C672 N673 1.314 . S
C672 C674 1.353 . S
C672 H678 0.930 . S
N673 Li649 1.990 . S
N673 C672 1.314 . S
N673 C676 1.279 . S
C674 C672 1.353 . S
C674 C677 1.348 . S
C674 H722 0.929 . S
C675 C676 1.358 . S
C675 C677 1.356 . S
C675 H723 0.930 . S
C676 N673 1.279 . S
C676 C675 1.358 . S
C676 H679 0.930 . S
C677 C674 1.348 . S
C677 C675 1.356 . S
H678 C672 0.930 . S
H679 C676 0.930 . S
C680 C682 1.348 . S
C680 C683 1.356 . S
C680 O710 1.325 . S
N681 C684 1.314 . S
N681 C685 1.279 . S
C682 C680 1.348 . S
C682 C684 1.353 . S
C682 H724 0.929 . S
C683 C680 1.356 . S
C683 C685 1.358 . S
C683 H725 0.930 . S
C684 N681 1.314 . S
C684 C682 1.353 . S
C684 H726 0.930 . S
C685 N681 1.279 . S
C685 C683 1.358 . S
C685 H727 0.930 . S
C686 C687 1.348 . S
C686 C688 1.356 . S
C686 O711 1.325 . S
C687 C686 1.348 . S
C687 C689 1.353 . S
C687 H728 0.929 . S
C688 C686 1.356 . S
C688 C690 1.358 . S
C688 H729 0.930 . S
C689 C687 1.353 . S
C689 N691 1.314 . S
C689 H730 0.930 . S
C690 C688 1.358 . S
C690 N691 1.279 . S
C690 H731 0.930 . S
N691 C689 1.314 . S
N691 C690 1.279 . S
C692 C694 1.353 . S
C692 N695 1.314 . S
C692 H698 0.930 . S
C693 N695 1.279 . S
C693 C696 1.358 . S
C693 H699 0.930 . S
C694 C692 1.353 . S
C694 C697 1.348 . S
C694 H732 0.929 . S
N695 Li650 1.990 . S
N695 C692 1.314 . S
N695 C693 1.279 . S
C696 C693 1.358 . S
C696 C697 1.356 . S
C696 H733 0.930 . S
C697 C694 1.348 . S
C697 C696 1.356 . S
H698 C692 0.930 . S
H699 C693 0.930 . S
C700 N701 1.314 . S
C700 C702 1.353 . S
C700 H706 0.930 . S
N701 Li651 1.990 . S
N701 C700 1.314 . S
N701 C704 1.279 . S
C702 C700 1.353 . S
C702 C705 1.348 . S
C702 H734 0.929 . S
C703 C704 1.358 . S
C703 C705 1.356 . S
C703 H735 0.930 . S
C704 N701 1.279 . S
C704 C703 1.358 . S
C704 H707 0.930 . S
C705 C702 1.348 . S
C705 C703 1.356 . S
H706 C700 0.930 . S
H707 C704 0.930 . S
O708 Li648 1.956 . S
O708 Li649 1.970 . S
O708 Li650 1.961 . S
O708 C652 1.325 . S
O709 Li648 1.970 . S
O709 Li649 1.956 . S
O709 Li651 1.961 . S
O709 C658 1.325 . S
O710 Li648 1.961 . S
O710 Li650 1.956 . S
O710 Li651 1.970 . S
O710 C680 1.325 . S
O711 Li649 1.961 . S
O711 Li650 1.970 . S
O711 Li651 1.956 . S
O711 C686 1.325 . S
H712 C654 0.929 . S
H713 C655 0.930 . S
H714 C656 0.930 . S
H715 C657 0.930 . S
H716 C659 0.930 . S
H717 C661 0.929 . S
H718 C662 0.930 . S
H719 C663 0.930 . S
H720 C666 0.930 . S
H721 C669 0.929 . S
H722 C674 0.929 . S
H723 C675 0.930 . S
H724 C682 0.929 . S
H725 C683 0.930 . S
H726 C684 0.930 . S
H727 C685 0.930 . S
H728 C687 0.929 . S
H729 C688 0.930 . S
H730 C689 0.930 . S
H731 C690 0.930 . S
H732 C694 0.929 . S
H733 C696 0.930 . S
H734 C702 0.929 . S
H735 C703 0.930 . S
Li736 N753 1.990 . S
Li736 O796 1.956 . S
Li736 O797 1.970 . S
Li736 O798 1.961 . S
Li737 N761 1.990 . S
Li737 O796 1.970 . S
Li737 O797 1.956 . S
Li737 O799 1.961 . S
Li738 N783 1.990 . S
Li738 O796 1.961 . S
Li738 O798 1.956 . S
Li738 O799 1.970 . S
Li739 N789 1.990 . S
Li739 O797 1.961 . S
Li739 O798 1.970 . S
Li739 O799 1.956 . S
C740 C742 1.348 . S
C740 C743 1.356 . S
C740 O796 1.325 . S
N741 C744 1.314 . S
N741 C745 1.279 . S
C742 C740 1.348 . S
C742 C744 1.353 . S
C742 H800 0.929 . S
C743 C740 1.356 . S
C743 C745 1.358 . S
C743 H801 0.930 . S
C744 N741 1.314 . S
C744 C742 1.353 . S
C744 H802 0.930 . S
C745 N741 1.279 . S
C745 C743 1.358 . S
C745 H803 0.930 . S
C746 C749 1.348 . S
C746 C750 1.356 . S
C746 O797 1.325 . S
C747 N748 1.279 . S
C747 C750 1.358 . S
C747 H804 0.930 . S
N748 C747 1.279 . S
N748 C751 1.314 . S
C749 C746 1.348 . S
C749 C751 1.353 . S
C749 H805 0.929 . S
C750 C746 1.356 . S
C750 C747 1.358 . S
C750 H806 0.930 . S
C751 N748 1.314 . S
C751 C749 1.353 . S
C751 H807 0.930 . S
C752 N753 1.314 . S
C752 C757 1.353 . S
C752 H758 0.930 . S
N753 Li736 1.990 . S
N753 C752 1.314 . S
N753 C755 1.279 . S
C754 C755 1.358 . S
C754 C756 1.356 . S
C754 H808 0.930 . S
C755 N753 1.279 . S
C755 C754 1.358 . S
C755 H759 0.930 . S
C756 C754 1.356 . S
C756 C757 1.348 . S
C757 C752 1.353 . S
C757 C756 1.348 . S
C757 H809 0.929 . S
H758 C752 0.930 . S
H759 C755 0.930 . S
C760 N761 1.314 . S
C760 C762 1.353 . S
C760 H766 0.930 . S
N761 Li737 1.990 . S
N761 C760 1.314 . S
N761 C764 1.279 . S
C762 C760 1.353 . S
C762 C765 1.348 . S
C762 H810 0.929 . S
C763 C764 1.358 . S
C763 C765 1.356 . S
C763 H811 0.930 . S
C764 N761 1.279 . S
C764 C763 1.358 . S
C764 H767 0.930 . S
C765 C762 1.348 . S
C765 C763 1.356 . S
H766 C760 0.930 . S
H767 C764 0.930 . S
C768 C770 1.348 . S
C768 C771 1.356 . S
C768 O798 1.325 . S
N769 C772 1.314 . S
N769 C773 1.279 . S
C770 C768 1.348 . S
C770 C772 1.353 . S
C770 H812 0.929 . S
C771 C768 1.356 . S
C771 C773 1.358 . S
C771 H813 0.930 . S
C772 N769 1.314 . S
C772 C770 1.353 . S
C772 H814 0.930 . S
C773 N769 1.279 . S
C773 C771 1.358 . S
C773 H815 0.930 . S
C774 C775 1.348 . S
C774 C776 1.356 . S
C774 O799 1.325 . S
C775 C774 1.348 . S
C775 C777 1.353 . S
C775 H816 0.929 . S
C776 C774 1.356 . S
C776 C778 1.358 . S
C776 H817 0.930 . S
C777 C775 1.353 . S
C777 N779 1.314 . S
C777 H818 0.930 . S
C778 C776 1.358 . S
C778 N779 1.279 . S
C778 H819 0.930 . S
N779 C777 1.314 . S
N779 C778 1.279 . S
C780 C782 1.353 . S
C780 N783 1.314 . S
C780 H786 0.930 . S
C781 N783 1.279 . S
C781 C784 1.358 . S
C781 H787 0.930 . S
C782 C780 1.353 . S
C782 C785 1.348 . S
C782 H820 0.929 . S
N783 Li738 1.990 . S
N783 C780 1.314 . S
N783 C781 1.279 . S
C784 C781 1.358 . S
C784 C785 1.356 . S
C784 H821 0.930 . S
C785 C782 1.348 . S
C785 C784 1.356 . S
H786 C780 0.930 . S
H787 C781 0.930 . S
C788 N789 1.314 . S
C788 C790 1.353 . S
C788 H794 0.930 . S
N789 Li739 1.990 . S
N789 C788 1.314 . S
N789 C792 1.279 . S
C790 C788 1.353 . S
C790 C793 1.348 . S
C790 H822 0.929 . S
C791 C792 1.358 . S
C791 C793 1.356 . S
C791 H823 0.930 . S
C792 N789 1.279 . S
C792 C791 1.358 . S
C792 H795 0.930 . S
C793 C790 1.348 . S
C793 C791 1.356 . S
H794 C788 0.930 . S
H795 C792 0.930 . S
O796 Li736 1.956 . S
O796 Li737 1.970 . S
O796 Li738 1.961 . S
O796 C740 1.325 . S
O797 Li736 1.970 . S
O797 Li737 1.956 . S
O797 Li739 1.961 . S
O797 C746 1.325 . S
O798 Li736 1.961 . S
O798 Li738 1.956 . S
O798 Li739 1.970 . S
O798 C768 1.325 . S
O799 Li737 1.961 . S
O799 Li738 1.970 . S
O799 Li739 1.956 . S
O799 C774 1.325 . S
H800 C742 0.929 . S
H801 C743 0.930 . S
H802 C744 0.930 . S
H803 C745 0.930 . S
H804 C747 0.930 . S
H805 C749 0.929 . S
H806 C750 0.930 . S
H807 C751 0.930 . S
H808 C754 0.930 . S
H809 C757 0.929 . S
H810 C762 0.929 . S
H811 C763 0.930 . S
H812 C770 0.929 . S
H813 C771 0.930 . S
H814 C772 0.930 . S
H815 C773 0.930 . S
H816 C775 0.929 . S
H817 C776 0.930 . S
H818 C777 0.930 . S
H819 C778 0.930 . S
H820 C782 0.929 . S
H821 C784 0.930 . S
H822 C790 0.929 . S
H823 C791 0.930 . S
Li824 N841 1.990 . S
Li824 O884 1.956 . S
Li824 O885 1.970 1_565 S
Li824 O886 1.961 . S
Li825 N849 1.990 . S
Li825 O884 1.970 1_545 S
Li825 O885 1.956 . S
Li825 O887 1.961 . S
Li826 N871 1.990 . S
Li826 O884 1.961 . S
Li826 O886 1.956 . S
Li826 O887 1.970 1_565 S
Li827 N877 1.990 . S
Li827 O885 1.961 . S
Li827 O886 1.970 1_545 S
Li827 O887 1.956 . S
C828 C830 1.348 . S
C828 C831 1.356 . S
C828 O884 1.325 . S
N829 C832 1.314 . S
N829 C833 1.279 . S
C830 C828 1.348 . S
C830 C832 1.353 . S
C830 H888 0.929 . S
C831 C828 1.356 . S
C831 C833 1.358 . S
C831 H889 0.930 . S
C832 N829 1.314 . S
C832 C830 1.353 . S
C832 H890 0.930 . S
C833 N829 1.279 . S
C833 C831 1.358 . S
C833 H891 0.930 . S
C834 C837 1.348 1_545 S
C834 C838 1.356 . S
C834 O885 1.325 . S
C835 N836 1.279 . S
C835 C838 1.358 . S
C835 H892 0.930 . S
N836 C835 1.279 . S
N836 C839 1.314 . S
C837 C834 1.348 1_565 S
C837 C839 1.353 1_565 S
C837 H893 0.929 . S
C838 C834 1.356 . S
C838 C835 1.358 . S
C838 H894 0.930 . S
C839 N836 1.314 . S
C839 C837 1.353 1_545 S
C839 H895 0.930 1_545 S
C840 N841 1.314 . S
C840 C845 1.353 . S
C840 H846 0.930 . S
N841 Li824 1.990 . S
N841 C840 1.314 . S
N841 C843 1.279 . S
C842 C843 1.358 . S
C842 C844 1.356 . S
C842 H896 0.930 . S
C843 N841 1.279 . S
C843 C842 1.358 . S
C843 H847 0.930 . S
C844 C842 1.356 . S
C844 C845 1.348 . S
C845 C840 1.353 . S
C845 C844 1.348 . S
C845 H897 0.929 . S
H846 C840 0.930 . S
H847 C843 0.930 . S
C848 N849 1.314 . S
C848 C850 1.353 . S
C848 H854 0.930 . S
N849 Li825 1.990 . S
N849 C848 1.314 . S
N849 C852 1.279 . S
C850 C848 1.353 . S
C850 C853 1.348 . S
C850 H898 0.929 . S
C851 C852 1.358 . S
C851 C853 1.356 . S
C851 H899 0.930 . S
C852 N849 1.279 . S
C852 C851 1.358 . S
C852 H855 0.930 . S
C853 C850 1.348 . S
C853 C851 1.356 . S
H854 C848 0.930 . S
H855 C852 0.930 . S
C856 C858 1.348 1_565 S
C856 C859 1.356 . S
C856 O886 1.325 . S
N857 C860 1.314 1_565 S
N857 C861 1.279 . S
C858 C856 1.348 1_545 S
C858 C860 1.353 . S
C858 H900 0.929 . S
C859 C856 1.356 . S
C859 C861 1.358 . S
C859 H901 0.930 . S
C860 N857 1.314 1_545 S
C860 C858 1.353 . S
C860 H902 0.930 . S
C861 N857 1.279 . S
C861 C859 1.358 . S
C861 H903 0.930 . S
C862 C863 1.348 . S
C862 C864 1.356 . S
C862 O887 1.325 . S
C863 C862 1.348 . S
C863 C865 1.353 . S
C863 H904 0.929 . S
C864 C862 1.356 . S
C864 C866 1.358 . S
C864 H905 0.930 . S
C865 C863 1.353 . S
C865 N867 1.314 . S
C865 H906 0.930 . S
C866 C864 1.358 . S
C866 N867 1.279 . S
C866 H907 0.930 . S
N867 C865 1.314 . S
N867 C866 1.279 . S
C868 C870 1.353 . S
C868 N871 1.314 . S
C868 H874 0.930 . S
C869 N871 1.279 . S
C869 C872 1.358 . S
C869 H875 0.930 . S
C870 C868 1.353 . S
C870 C873 1.348 . S
C870 H908 0.929 . S
N871 Li826 1.990 . S
N871 C868 1.314 . S
N871 C869 1.279 . S
C872 C869 1.358 . S
C872 C873 1.356 . S
C872 H909 0.930 . S
C873 C870 1.348 . S
C873 C872 1.356 . S
H874 C868 0.930 . S
H875 C869 0.930 . S
C876 N877 1.314 . S
C876 C878 1.353 . S
C876 H882 0.930 . S
N877 Li827 1.990 . S
N877 C876 1.314 . S
N877 C880 1.279 . S
C878 C876 1.353 . S
C878 C881 1.348 . S
C878 H910 0.929 . S
C879 C880 1.358 . S
C879 C881 1.356 . S
C879 H911 0.930 . S
C880 N877 1.279 . S
C880 C879 1.358 . S
C880 H883 0.930 . S
C881 C878 1.348 . S
C881 C879 1.356 . S
H882 C876 0.930 . S
H883 C880 0.930 . S
O884 Li824 1.956 . S
O884 Li825 1.970 1_565 S
O884 Li826 1.961 . S
O884 C828 1.325 . S
O885 Li824 1.970 1_545 S
O885 Li825 1.956 . S
O885 Li827 1.961 . S
O885 C834 1.325 . S
O886 Li824 1.961 . S
O886 Li826 1.956 . S
O886 Li827 1.970 1_565 S
O886 C856 1.325 . S
O887 Li825 1.961 . S
O887 Li826 1.970 1_545 S
O887 Li827 1.956 . S
O887 C862 1.325 . S
H888 C830 0.929 . S
H889 C831 0.930 . S
H890 C832 0.930 . S
H891 C833 0.930 . S
H892 C835 0.930 . S
H893 C837 0.929 . S
H894 C838 0.930 . S
H895 C839 0.930 1_565 S
H896 C842 0.930 . S
H897 C845 0.929 . S
H898 C850 0.929 . S
H899 C851 0.930 . S
H900 C858 0.929 . S
H901 C859 0.930 . S
H902 C860 0.930 . S
H903 C861 0.930 . S
H904 C863 0.929 . S
H905 C864 0.930 . S
H906 C865 0.930 . S
H907 C866 0.930 . S
H908 C870 0.929 . S
H909 C872 0.930 . S
H910 C878 0.929 . S
H911 C879 0.930 . S
Li912 N929 1.990 . S
Li912 O972 1.956 . S
Li912 O973 1.961 1_455 S
Li912 O974 2.000 . S
Li913 N937 2.000 . S
Li913 O972 1.932 1_655 S
Li913 O973 1.955 . S
Li913 O975 1.988 . S
Li914 N959 1.990 . S
Li914 O972 1.961 . S
Li914 O974 1.956 . S
Li914 O975 1.970 1_455 S
Li915 N965 1.990 . S
Li915 O973 1.968 . S
Li915 O974 1.917 1_655 S
Li915 O975 1.956 . S
C916 C918 1.348 . S
C916 C919 1.356 . S
C916 O972 1.325 . S
N917 C920 1.314 . S
N917 C921 1.279 . S
C918 C916 1.348 . S
C918 C920 1.353 . S
C918 H976 0.929 . S
C919 C916 1.356 . S
C919 C921 1.358 . S
C919 H977 0.930 . S
C920 N917 1.314 . S
C920 C918 1.353 . S
C920 H978 0.930 . S
C921 N917 1.279 . S
C921 C919 1.358 . S
C921 H979 0.930 . S
C922 C925 1.348 1_655 S
C922 C926 1.356 . S
C922 O973 1.327 . S
C923 N924 1.279 . S
C923 C926 1.358 . S
C923 H980 0.930 . S
N924 C923 1.279 . S
N924 C927 1.314 1_655 S
C925 C922 1.348 1_455 S
C925 C927 1.353 . S
C925 H981 0.929 . S
C926 C922 1.356 . S
C926 C923 1.358 . S
C926 H982 0.930 . S
C927 N924 1.314 1_455 S
C927 C925 1.353 . S
C927 H983 0.930 . S
C928 N929 1.314 . S
C928 C933 1.353 . S
C928 H934 0.930 . S
N929 Li912 1.990 . S
N929 C928 1.314 . S
N929 C931 1.279 . S
C930 C931 1.358 . S
C930 C932 1.356 . S
C930 H984 0.930 . S
C931 N929 1.279 . S
C931 C930 1.358 . S
C931 H935 0.930 . S
C932 C930 1.356 . S
C932 C933 1.348 . S
C933 C928 1.353 . S
C933 C932 1.348 . S
C933 H985 0.929 . S
H934 C928 0.930 . S
H935 C931 0.930 . S
C936 N937 1.314 . S
C936 C938 1.353 . S
C936 H942 0.930 . S
N937 Li913 2.000 . S
N937 C936 1.314 . S
N937 C940 1.277 1_655 S
C938 C936 1.353 . S
C938 C941 1.348 . S
C938 H986 0.929 . S
C939 C940 1.357 . S
C939 C941 1.352 1_455 S
C939 H987 0.931 . S
C940 N937 1.277 1_455 S
C940 C939 1.357 . S
C940 H943 0.940 . S
C941 C938 1.348 . S
C941 C939 1.352 1_655 S
H942 C936 0.930 . S
H943 C940 0.940 . S
C944 C946 1.348 1_455 S
C944 C947 1.356 . S
C944 O974 1.338 . S
N945 C948 1.314 1_455 S
N945 C949 1.279 . S
C946 C944 1.348 1_655 S
C946 C948 1.353 . S
C946 H988 0.929 . S
C947 C944 1.356 . S
C947 C949 1.358 . S
C947 H989 0.930 . S
C948 N945 1.314 1_655 S
C948 C946 1.353 . S
C948 H990 0.930 . S
C949 N945 1.279 . S
C949 C947 1.358 . S
C949 H991 0.930 . S
C950 C951 1.348 . S
C950 C952 1.356 . S
C950 O975 1.325 . S
C951 C950 1.348 . S
C951 C953 1.353 . S
C951 H992 0.929 . S
C952 C950 1.356 . S
C952 C954 1.358 . S
C952 H993 0.930 . S
C953 C951 1.353 . S
C953 N955 1.314 . S
C953 H994 0.930 . S
C954 C952 1.358 . S
C954 N955 1.279 . S
C954 H995 0.930 . S
N955 C953 1.314 . S
N955 C954 1.279 . S
C956 C958 1.353 . S
C956 N959 1.314 . S
C956 H962 0.930 . S
C957 N959 1.280 . S
C957 C960 1.357 . S
C957 H963 0.929 1_455 S
C958 C956 1.353 . S
C958 C961 1.348 . S
C958 H996 0.929 . S
N959 Li914 1.990 . S
N959 C956 1.314 . S
N959 C957 1.280 . S
C960 C957 1.357 . S
C960 C961 1.359 . S
C960 H997 0.929 1_455 S
C961 C958 1.348 . S
C961 C960 1.359 . S
H962 C956 0.930 . S
H963 C957 0.929 1_655 S
C964 N965 1.314 . S
C964 C966 1.353 . S
C964 H970 0.930 . S
N965 Li915 1.990 . S
N965 C964 1.314 . S
N965 C968 1.279 . S
C966 C964 1.353 . S
C966 C969 1.348 . S
C966 H998 0.929 . S
C967 C968 1.358 . S
C967 C969 1.356 . S
C967 H999 0.930 . S
C968 N965 1.279 . S
C968 C967 1.358 . S
C968 H971 0.930 . S
C969 C966 1.348 . S
C969 C967 1.356 . S
H970 C964 0.930 . S
H971 C968 0.930 . S
O972 Li912 1.956 . S
O972 Li913 1.932 1_455 S
O972 Li914 1.961 . S
O972 C916 1.325 . S
O973 Li912 1.961 1_655 S
O973 Li913 1.955 . S
O973 Li915 1.968 . S
O973 C922 1.327 . S
O974 Li912 2.000 . S
O974 Li914 1.956 . S
O974 Li915 1.917 1_455 S
O974 C944 1.338 . S
O975 Li913 1.988 . S
O975 Li914 1.970 1_655 S
O975 Li915 1.956 . S
O975 C950 1.325 . S
H976 C918 0.929 . S
H977 C919 0.930 . S
H978 C920 0.930 . S
H979 C921 0.930 . S
H980 C923 0.930 . S
H981 C925 0.929 . S
H982 C926 0.930 . S
H983 C927 0.930 . S
H984 C930 0.930 . S
H985 C933 0.929 . S
H986 C938 0.929 . S
H987 C939 0.931 . S
H988 C946 0.929 . S
H989 C947 0.930 . S
H990 C948 0.930 . S
H991 C949 0.930 . S
H992 C951 0.929 . S
H993 C952 0.930 . S
H994 C953 0.930 . S
H995 C954 0.930 . S
H996 C958 0.929 . S
H997 C960 0.929 1_655 S
H998 C966 0.929 . S
H999 C967 0.930 . S
Li1000 N1017 1.990 . S
Li1000 O1060 1.956 . S
Li1000 O1061 1.970 . S
Li1000 O1062 1.961 . S
Li1001 N1025 1.990 . S
Li1001 O1060 1.970 . S
Li1001 O1061 1.956 . S
Li1001 O1063 1.961 . S
Li1002 N1047 1.990 . S
Li1002 O1060 1.961 . S
Li1002 O1062 1.956 . S
Li1002 O1063 1.970 . S
Li1003 N1053 1.990 . S
Li1003 O1061 1.961 . S
Li1003 O1062 1.970 . S
Li1003 O1063 1.956 . S
C1004 C1006 1.348 . S
C1004 C1007 1.356 . S
C1004 O1060 1.325 . S
N1005 C1008 1.314 . S
N1005 C1009 1.279 . S
C1006 C1004 1.348 . S
C1006 C1008 1.353 . S
C1006 H1064 0.929 . S
C1007 C1004 1.356 . S
C1007 C1009 1.358 . S
C1007 H1065 0.930 . S
C1008 N1005 1.314 . S
C1008 C1006 1.353 . S
C1008 H1066 0.930 . S
C1009 N1005 1.279 . S
C1009 C1007 1.358 . S
C1009 H1067 0.930 . S
C1010 C1013 1.348 . S
C1010 C1014 1.356 . S
C1010 O1061 1.325 . S
C1011 N1012 1.279 . S
C1011 C1014 1.358 . S
C1011 H1068 0.930 . S
N1012 C1011 1.279 . S
N1012 C1015 1.314 . S
C1013 C1010 1.348 . S
C1013 C1015 1.353 . S
C1013 H1069 0.929 . S
C1014 C1010 1.356 . S
C1014 C1011 1.358 . S
C1014 H1070 0.930 . S
C1015 N1012 1.314 . S
C1015 C1013 1.353 . S
C1015 H1071 0.930 . S
C1016 N1017 1.314 . S
C1016 C1021 1.353 . S
C1016 H1022 0.930 . S
N1017 Li1000 1.990 . S
N1017 C1016 1.314 . S
N1017 C1019 1.279 . S
C1018 C1019 1.358 . S
C1018 C1020 1.356 . S
C1018 H1072 0.930 . S
C1019 N1017 1.279 . S
C1019 C1018 1.358 . S
C1019 H1023 0.930 . S
C1020 C1018 1.356 . S
C1020 C1021 1.348 . S
C1021 C1016 1.353 . S
C1021 C1020 1.348 . S
C1021 H1073 0.929 . S
H1022 C1016 0.930 . S
H1023 C1019 0.930 . S
C1024 N1025 1.314 . S
C1024 C1026 1.353 . S
C1024 H1030 0.930 . S
N1025 Li1001 1.990 . S
N1025 C1024 1.314 . S
N1025 C1028 1.279 . S
C1026 C1024 1.353 . S
C1026 C1029 1.348 . S
C1026 H1074 0.929 . S
C1027 C1028 1.358 . S
C1027 C1029 1.356 . S
C1027 H1075 0.930 . S
C1028 N1025 1.279 . S
C1028 C1027 1.358 . S
C1028 H1031 0.930 . S
C1029 C1026 1.348 . S
C1029 C1027 1.356 . S
H1030 C1024 0.930 . S
H1031 C1028 0.930 . S
C1032 C1034 1.348 . S
C1032 C1035 1.356 . S
C1032 O1062 1.325 . S
N1033 C1036 1.314 . S
N1033 C1037 1.279 . S
C1034 C1032 1.348 . S
C1034 C1036 1.353 . S
C1034 H1076 0.929 . S
C1035 C1032 1.356 . S
C1035 C1037 1.358 . S
C1035 H1077 0.930 . S
C1036 N1033 1.314 . S
C1036 C1034 1.353 . S
C1036 H1078 0.930 . S
C1037 N1033 1.279 . S
C1037 C1035 1.358 . S
C1037 H1079 0.930 . S
C1038 C1039 1.348 . S
C1038 C1040 1.356 . S
C1038 O1063 1.325 . S
C1039 C1038 1.348 . S
C1039 C1041 1.353 . S
C1039 H1080 0.929 . S
C1040 C1038 1.356 . S
C1040 C1042 1.358 . S
C1040 H1081 0.930 . S
C1041 C1039 1.353 . S
C1041 N1043 1.314 . S
C1041 H1082 0.930 . S
C1042 C1040 1.358 . S
C1042 N1043 1.279 . S
C1042 H1083 0.930 . S
N1043 C1041 1.314 . S
N1043 C1042 1.279 . S
C1044 C1046 1.353 . S
C1044 N1047 1.314 . S
C1044 H1050 0.930 . S
C1045 N1047 1.279 . S
C1045 C1048 1.358 . S
C1045 H1051 0.930 . S
C1046 C1044 1.353 . S
C1046 C1049 1.348 . S
C1046 H1084 0.929 . S
N1047 Li1002 1.990 . S
N1047 C1044 1.314 . S
N1047 C1045 1.279 . S
C1048 C1045 1.358 . S
C1048 C1049 1.356 . S
C1048 H1085 0.930 . S
C1049 C1046 1.348 . S
C1049 C1048 1.356 . S
H1050 C1044 0.930 . S
H1051 C1045 0.930 . S
C1052 N1053 1.314 . S
C1052 C1054 1.353 . S
C1052 H1058 0.930 . S
N1053 Li1003 1.990 . S
N1053 C1052 1.314 . S
N1053 C1056 1.279 . S
C1054 C1052 1.353 . S
C1054 C1057 1.348 . S
C1054 H1086 0.929 . S
C1055 C1056 1.358 . S
C1055 C1057 1.356 . S
C1055 H1087 0.930 . S
C1056 N1053 1.279 . S
C1056 C1055 1.358 . S
C1056 H1059 0.930 . S
C1057 C1054 1.348 . S
C1057 C1055 1.356 . S
H1058 C1052 0.930 . S
H1059 C1056 0.930 . S
O1060 Li1000 1.956 . S
O1060 Li1001 1.970 . S
O1060 Li1002 1.961 . S
O1060 C1004 1.325 . S
O1061 Li1000 1.970 . S
O1061 Li1001 1.956 . S
O1061 Li1003 1.961 . S
O1061 C1010 1.325 . S
O1062 Li1000 1.961 . S
O1062 Li1002 1.956 . S
O1062 Li1003 1.970 . S
O1062 C1032 1.325 . S
O1063 Li1001 1.961 . S
O1063 Li1002 1.970 . S
O1063 Li1003 1.956 . S
O1063 C1038 1.325 . S
H1064 C1006 0.929 . S
H1065 C1007 0.930 . S
H1066 C1008 0.930 . S
H1067 C1009 0.930 . S
H1068 C1011 0.930 . S
H1069 C1013 0.929 . S
H1070 C1014 0.930 . S
H1071 C1015 0.930 . S
H1072 C1018 0.930 . S
H1073 C1021 0.929 . S
H1074 C1026 0.929 . S
H1075 C1027 0.930 . S
H1076 C1034 0.929 . S
H1077 C1035 0.930 . S
H1078 C1036 0.930 . S
H1079 C1037 0.930 . S
H1080 C1039 0.929 . S
H1081 C1040 0.930 . S
H1082 C1041 0.930 . S
H1083 C1042 0.930 . S
H1084 C1046 0.929 . S
H1085 C1048 0.930 . S
H1086 C1054 0.929 . S
H1087 C1055 0.930 . S
Li1088 N1105 1.990 . S
Li1088 O1148 1.956 . S
Li1088 O1149 2.003 . S
Li1088 O1150 1.961 . S
Li1089 N1113 1.990 1_455 S
Li1089 O1148 1.970 . S
Li1089 O1149 1.959 . S
Li1089 O1151 1.961 . S
Li1090 N1135 1.990 . S
Li1090 O1148 1.961 . S
Li1090 O1150 1.956 . S
Li1090 O1151 1.970 . S
Li1091 N1141 1.990 . S
Li1091 O1149 1.989 . S
Li1091 O1150 1.970 . S
Li1091 O1151 1.956 . S
C1092 C1094 1.348 . S
C1092 C1095 1.356 . S
C1092 O1148 1.325 . S
N1093 C1096 1.314 . S
N1093 C1097 1.279 . S
C1094 C1092 1.348 . S
C1094 C1096 1.353 . S
C1094 H1152 0.929 . S
C1095 C1092 1.356 . S
C1095 C1097 1.358 . S
C1095 H1153 0.930 . S
C1096 N1093 1.314 . S
C1096 C1094 1.353 . S
C1096 H1154 0.930 . S
C1097 N1093 1.279 . S
C1097 C1095 1.358 . S
C1097 H1155 0.930 . S
C1098 C1101 1.348 . S
C1098 C1102 1.356 . S
C1098 O1149 1.288 1_655 S
C1099 N1100 1.279 . S
C1099 C1102 1.358 . S
C1099 H1156 0.930 . S
N1100 C1099 1.279 . S
N1100 C1103 1.314 . S
C1101 C1098 1.348 . S
C1101 C1103 1.353 . S
C1101 H1157 0.929 . S
C1102 C1098 1.356 . S
C1102 C1099 1.358 . S
C1102 H1158 0.930 . S
C1103 N1100 1.314 . S
C1103 C1101 1.353 . S
C1103 H1159 0.930 . S
C1104 N1105 1.314 . S
C1104 C1109 1.353 . S
C1104 H1110 0.930 . S
N1105 Li1088 1.990 . S
N1105 C1104 1.314 . S
N1105 C1107 1.279 . S
C1106 C1107 1.358 . S
C1106 C1108 1.356 . S
C1106 H1160 0.930 . S
C1107 N1105 1.279 . S
C1107 C1106 1.358 . S
C1107 H1111 0.930 . S
C1108 C1106 1.356 . S
C1108 C1109 1.348 . S
C1109 C1104 1.353 . S
C1109 C1108 1.348 . S
C1109 H1161 0.929 . S
H1110 C1104 0.930 . S
H1111 C1107 0.930 . S
C1112 N1113 1.314 . S
C1112 C1114 1.353 . S
C1112 H1118 0.930 . S
N1113 Li1089 1.990 1_655 S
N1113 C1112 1.314 . S
N1113 C1116 1.279 . S
C1114 C1112 1.353 . S
C1114 C1117 1.348 . S
C1114 H1162 0.929 . S
C1115 C1116 1.358 . S
C1115 C1117 1.356 . S
C1115 H1163 0.930 . S
C1116 N1113 1.279 . S
C1116 C1115 1.358 . S
C1116 H1119 0.930 . S
C1117 C1114 1.348 . S
C1117 C1115 1.356 . S
H1118 C1112 0.930 . S
H1119 C1116 0.930 . S
C1120 C1122 1.348 . S
C1120 C1123 1.356 . S
C1120 O1150 1.325 . S
N1121 C1124 1.314 . S
N1121 C1125 1.279 . S
C1122 C1120 1.348 . S
C1122 C1124 1.353 . S
C1122 H1164 0.929 . S
C1123 C1120 1.356 . S
C1123 C1125 1.358 . S
C1123 H1165 0.930 . S
C1124 N1121 1.314 . S
C1124 C1122 1.353 . S
C1124 H1166 0.930 . S
C1125 N1121 1.279 . S
C1125 C1123 1.358 . S
C1125 H1167 0.930 . S
C1126 C1127 1.348 . S
C1126 C1128 1.358 1_455 S
C1126 O1151 1.325 . S
C1127 C1126 1.348 . S
C1127 C1129 1.353 . S
C1127 H1168 0.929 . S
C1128 C1126 1.358 1_655 S
C1128 C1130 1.358 . S
C1128 H1169 0.927 . S
C1129 C1127 1.353 . S
C1129 N1131 1.314 . S
C1129 H1170 0.930 . S
C1130 C1128 1.358 . S
C1130 N1131 1.279 1_655 S
C1130 H1171 0.930 . S
N1131 C1129 1.314 . S
N1131 C1130 1.279 1_455 S
C1132 C1134 1.353 . S
C1132 N1135 1.314 . S
C1132 H1138 0.930 . S
C1133 N1135 1.279 . S
C1133 C1136 1.358 . S
C1133 H1139 0.930 . S
C1134 C1132 1.353 . S
C1134 C1137 1.348 . S
C1134 H1172 0.929 . S
N1135 Li1090 1.990 . S
N1135 C1132 1.314 . S
N1135 C1133 1.279 . S
C1136 C1133 1.358 . S
C1136 C1137 1.356 . S
C1136 H1173 0.930 . S
C1137 C1134 1.348 . S
C1137 C1136 1.356 . S
H1138 C1132 0.930 . S
H1139 C1133 0.930 . S
C1140 N1141 1.314 . S
C1140 C1142 1.355 . S
C1140 H1146 0.930 . S
N1141 Li1091 1.990 . S
N1141 C1140 1.314 . S
N1141 C1144 1.279 . S
C1142 C1140 1.355 . S
C1142 C1145 1.353 . S
C1142 H1174 0.922 1_455 S
C1143 C1144 1.358 . S
C1143 C1145 1.356 . S
C1143 H1175 0.930 . S
C1144 N1141 1.279 . S
C1144 C1143 1.358 . S
C1144 H1147 0.930 . S
C1145 C1142 1.353 . S
C1145 C1143 1.356 . S
H1146 C1140 0.930 . S
H1147 C1144 0.930 . S
O1148 Li1088 1.956 . S
O1148 Li1089 1.970 . S
O1148 Li1090 1.961 . S
O1148 C1092 1.325 . S
O1149 Li1088 2.003 . S
O1149 Li1089 1.959 . S
O1149 Li1091 1.989 . S
O1149 C1098 1.288 1_455 S
O1150 Li1088 1.961 . S
O1150 Li1090 1.956 . S
O1150 Li1091 1.970 . S
O1150 C1120 1.325 . S
O1151 Li1089 1.961 . S
O1151 Li1090 1.970 . S
O1151 Li1091 1.956 . S
O1151 C1126 1.325 . S
H1152 C1094 0.929 . S
H1153 C1095 0.930 . S
H1154 C1096 0.930 . S
H1155 C1097 0.930 . S
H1156 C1099 0.930 . S
H1157 C1101 0.929 . S
H1158 C1102 0.930 . S
H1159 C1103 0.930 . S
H1160 C1106 0.930 . S
H1161 C1109 0.929 . S
H1162 C1114 0.929 . S
H1163 C1115 0.930 . S
H1164 C1122 0.929 . S
H1165 C1123 0.930 . S
H1166 C1124 0.930 . S
H1167 C1125 0.930 . S
H1168 C1127 0.929 . S
H1169 C1128 0.927 . S
H1170 C1129 0.930 . S
H1171 C1130 0.930 . S
H1172 C1134 0.929 . S
H1173 C1136 0.930 . S
H1174 C1142 0.922 1_655 S
H1175 C1143 0.930 . S
Li1176 N1193 1.990 . S
Li1176 O1236 1.956 . S
Li1176 O1237 1.970 . S
Li1176 O1238 1.961 . S
Li1177 N1201 1.990 . S
Li1177 O1236 1.970 . S
Li1177 O1237 1.956 . S
Li1177 O1239 1.961 . S
Li1178 N1223 1.990 . S
Li1178 O1236 1.961 . S
Li1178 O1238 1.956 . S
Li1178 O1239 1.970 . S
Li1179 N1229 1.990 . S
Li1179 O1237 1.961 . S
Li1179 O1238 1.970 . S
Li1179 O1239 1.956 . S
C1180 C1182 1.348 . S
C1180 C1183 1.356 . S
C1180 O1236 1.325 . S
N1181 C1184 1.314 . S
N1181 C1185 1.279 . S
C1182 C1180 1.348 . S
C1182 C1184 1.353 . S
C1182 H1240 0.929 . S
C1183 C1180 1.356 . S
C1183 C1185 1.358 . S
C1183 H1241 0.930 . S
C1184 N1181 1.314 . S
C1184 C1182 1.353 . S
C1184 H1242 0.930 . S
C1185 N1181 1.279 . S
C1185 C1183 1.358 . S
C1185 H1243 0.930 . S
C1186 C1189 1.348 . S
C1186 C1190 1.356 . S
C1186 O1237 1.325 . S
C1187 N1188 1.279 . S
C1187 C1190 1.358 . S
C1187 H1244 0.930 . S
N1188 C1187 1.279 . S
N1188 C1191 1.314 . S
C1189 C1186 1.348 . S
C1189 C1191 1.353 . S
C1189 H1245 0.929 . S
C1190 C1186 1.356 . S
C1190 C1187 1.358 . S
C1190 H1246 0.930 . S
C1191 N1188 1.314 . S
C1191 C1189 1.353 . S
C1191 H1247 0.930 . S
C1192 N1193 1.314 . S
C1192 C1197 1.353 . S
C1192 H1198 0.930 . S
N1193 Li1176 1.990 . S
N1193 C1192 1.314 . S
N1193 C1195 1.279 . S
C1194 C1195 1.358 . S
C1194 C1196 1.356 . S
C1194 H1248 0.930 . S
C1195 N1193 1.279 . S
C1195 C1194 1.358 . S
C1195 H1199 0.930 . S
C1196 C1194 1.356 . S
C1196 C1197 1.348 . S
C1197 C1192 1.353 . S
C1197 C1196 1.348 . S
C1197 H1249 0.929 . S
H1198 C1192 0.930 . S
H1199 C1195 0.930 . S
C1200 N1201 1.314 . S
C1200 C1202 1.353 . S
C1200 H1206 0.930 . S
N1201 Li1177 1.990 . S
N1201 C1200 1.314 . S
N1201 C1204 1.279 . S
C1202 C1200 1.353 . S
C1202 C1205 1.348 . S
C1202 H1250 0.929 . S
C1203 C1204 1.358 . S
C1203 C1205 1.356 . S
C1203 H1251 0.930 . S
C1204 N1201 1.279 . S
C1204 C1203 1.358 . S
C1204 H1207 0.930 . S
C1205 C1202 1.348 . S
C1205 C1203 1.356 . S
H1206 C1200 0.930 . S
H1207 C1204 0.930 . S
C1208 C1210 1.348 . S
C1208 C1211 1.356 . S
C1208 O1238 1.325 . S
N1209 C1212 1.314 . S
N1209 C1213 1.279 . S
C1210 C1208 1.348 . S
C1210 C1212 1.353 . S
C1210 H1252 0.929 . S
C1211 C1208 1.356 . S
C1211 C1213 1.358 . S
C1211 H1253 0.930 . S
C1212 N1209 1.314 . S
C1212 C1210 1.353 . S
C1212 H1254 0.930 . S
C1213 N1209 1.279 . S
C1213 C1211 1.358 . S
C1213 H1255 0.930 . S
C1214 C1215 1.348 . S
C1214 C1216 1.356 . S
C1214 O1239 1.325 . S
C1215 C1214 1.348 . S
C1215 C1217 1.353 . S
C1215 H1256 0.929 . S
C1216 C1214 1.356 . S
C1216 C1218 1.358 . S
C1216 H1257 0.930 . S
C1217 C1215 1.353 . S
C1217 N1219 1.314 . S
C1217 H1258 0.930 . S
C1218 C1216 1.358 . S
C1218 N1219 1.279 . S
C1218 H1259 0.930 . S
N1219 C1217 1.314 . S
N1219 C1218 1.279 . S
C1220 C1222 1.353 . S
C1220 N1223 1.314 . S
C1220 H1226 0.930 . S
C1221 N1223 1.279 . S
C1221 C1224 1.358 . S
C1221 H1227 0.930 . S
C1222 C1220 1.353 . S
C1222 C1225 1.348 . S
C1222 H1260 0.929 . S
N1223 Li1178 1.990 . S
N1223 C1220 1.314 . S
N1223 C1221 1.279 . S
C1224 C1221 1.358 . S
C1224 C1225 1.356 . S
C1224 H1261 0.930 . S
C1225 C1222 1.348 . S
C1225 C1224 1.356 . S
H1226 C1220 0.930 . S
H1227 C1221 0.930 . S
C1228 N1229 1.314 . S
C1228 C1230 1.353 . S
C1228 H1234 0.930 . S
N1229 Li1179 1.990 . S
N1229 C1228 1.314 . S
N1229 C1232 1.279 . S
C1230 C1228 1.353 . S
C1230 C1233 1.348 . S
C1230 H1262 0.929 . S
C1231 C1232 1.358 . S
C1231 C1233 1.356 . S
C1231 H1263 0.930 . S
C1232 N1229 1.279 . S
C1232 C1231 1.358 . S
C1232 H1235 0.930 . S
C1233 C1230 1.348 . S
C1233 C1231 1.356 . S
H1234 C1228 0.930 . S
H1235 C1232 0.930 . S
O1236 Li1176 1.956 . S
O1236 Li1177 1.970 . S
O1236 Li1178 1.961 . S
O1236 C1180 1.325 . S
O1237 Li1176 1.970 . S
O1237 Li1177 1.956 . S
O1237 Li1179 1.961 . S
O1237 C1186 1.325 . S
O1238 Li1176 1.961 . S
O1238 Li1178 1.956 . S
O1238 Li1179 1.970 . S
O1238 C1208 1.325 . S
O1239 Li1177 1.961 . S
O1239 Li1178 1.970 . S
O1239 Li1179 1.956 . S
O1239 C1214 1.325 . S
H1240 C1182 0.929 . S
H1241 C1183 0.930 . S
H1242 C1184 0.930 . S
H1243 C1185 0.930 . S
H1244 C1187 0.930 . S
H1245 C1189 0.929 . S
H1246 C1190 0.930 . S
H1247 C1191 0.930 . S
H1248 C1194 0.930 . S
H1249 C1197 0.929 . S
H1250 C1202 0.929 . S
H1251 C1203 0.930 . S
H1252 C1210 0.929 . S
H1253 C1211 0.930 . S
H1254 C1212 0.930 . S
H1255 C1213 0.930 . S
H1256 C1215 0.929 . S
H1257 C1216 0.930 . S
H1258 C1217 0.930 . S
H1259 C1218 0.930 . S
H1260 C1222 0.929 . S
H1261 C1224 0.930 . S
H1262 C1230 0.929 . S
H1263 C1231 0.930 . S
C1264 C1265 1.349 . S
C1264 C1266 1.327 . S
C1264 H1289 0.950 . S
C1265 C1264 1.349 . S
C1265 C1281 1.349 . S
C1266 C1264 1.327 . S
C1266 C1285 1.429 . S
C1266 H1290 0.950 . S
C1267 C1284 1.574 . S
C1267 C1286 1.368 . S
C1267 H1291 0.949 . S
H1268 C1272 0.949 . S
C1269 C1270 1.349 . S
C1269 C1271 1.327 . S
C1269 H1292 0.950 . S
C1270 C1269 1.349 . S
C1270 C1282 1.349 . S
C1271 C1269 1.327 . S
C1271 C1287 1.429 . S
C1271 H1293 0.950 . S
C1272 H1268 0.949 . S
C1272 C1280 1.574 . S
C1272 C1288 1.368 . S
H1273 C1281 0.950 . S
H1274 C1279 0.950 . S
H1275 C1280 0.949 . S
H1276 C1282 0.950 . S
H1277 C1283 0.950 . S
H1278 C1284 0.949 . S
C1279 H1274 0.950 . S
C1279 C1281 1.327 . S
C1279 C1285 1.429 . S
C1280 C1272 1.574 . S
C1280 H1275 0.949 . S
C1280 C1286 1.368 . S
C1281 C1265 1.349 . S
C1281 H1273 0.950 . S
C1281 C1279 1.327 . S
C1282 C1270 1.349 . S
C1282 H1276 0.950 . S
C1282 C1283 1.327 . S
C1283 H1277 0.950 . S
C1283 C1282 1.327 . S
C1283 C1287 1.429 . S
C1284 C1267 1.574 . S
C1284 H1278 0.949 . S
C1284 C1288 1.368 . S
C1285 C1266 1.429 . S
C1285 C1279 1.429 . S
C1285 C1286 1.523 . S
C1286 C1267 1.368 . S
C1286 C1280 1.368 . S
C1286 C1285 1.523 . S
C1287 C1271 1.429 . S
C1287 C1283 1.429 . S
C1287 C1288 1.523 . S
C1288 C1272 1.368 . S
C1288 C1284 1.368 . S
C1288 C1287 1.523 . S
H1289 C1264 0.950 . S
H1290 C1266 0.950 . S
H1291 C1267 0.949 . S
H1292 C1269 0.950 . S
H1293 C1271 0.950 . S
C1294 C1295 1.349 . S
C1294 C1296 1.327 . S
C1294 H1319 0.950 . S
C1295 C1294 1.349 . S
C1295 C1311 1.349 . S
C1296 C1294 1.327 . S
C1296 C1315 1.429 . S
C1296 H1320 0.950 . S
C1297 C1314 1.574 . S
C1297 C1316 1.368 . S
C1297 H1321 0.949 . S
H1298 C1302 0.949 . S
C1299 C1300 1.349 . S
C1299 C1301 1.327 . S
C1299 H1322 0.950 . S
C1300 C1299 1.349 . S
C1300 C1312 1.349 . S
C1301 C1299 1.327 . S
C1301 C1317 1.429 . S
C1301 H1323 0.950 . S
C1302 H1298 0.949 . S
C1302 C1310 1.574 . S
C1302 C1318 1.368 . S
H1303 C1311 0.950 . S
H1304 C1309 0.950 . S
H1305 C1310 0.949 . S
H1306 C1312 0.950 . S
H1307 C1313 0.950 . S
H1308 C1314 0.949 . S
C1309 H1304 0.950 . S
C1309 C1311 1.327 . S
C1309 C1315 1.429 . S
C1310 C1302 1.574 . S
C1310 H1305 0.949 . S
C1310 C1316 1.368 . S
C1311 C1295 1.349 . S
C1311 H1303 0.950 . S
C1311 C1309 1.327 . S
C1312 C1300 1.349 . S
C1312 H1306 0.950 . S
C1312 C1313 1.327 . S
C1313 H1307 0.950 . S
C1313 C1312 1.327 . S
C1313 C1317 1.429 . S
C1314 C1297 1.574 . S
C1314 H1308 0.949 . S
C1314 C1318 1.368 . S
C1315 C1296 1.429 . S
C1315 C1309 1.429 . S
C1315 C1316 1.523 . S
C1316 C1297 1.368 . S
C1316 C1310 1.368 . S
C1316 C1315 1.523 . S
C1317 C1301 1.429 . S
C1317 C1313 1.429 . S
C1317 C1318 1.523 . S
C1318 C1302 1.368 . S
C1318 C1314 1.368 . S
C1318 C1317 1.523 . S
H1319 C1294 0.950 . S
H1320 C1296 0.950 . S
H1321 C1297 0.949 . S
H1322 C1299 0.950 . S
H1323 C1301 0.950 . S
C1324 C1325 1.349 . S
C1324 C1326 1.327 . S
C1324 H1349 0.950 . S
C1325 C1324 1.349 . S
C1325 C1341 1.349 . S
C1326 C1324 1.327 . S
C1326 C1345 1.429 . S
C1326 H1350 0.950 . S
C1327 C1344 1.574 . S
C1327 C1346 1.368 . S
C1327 H1351 0.949 . S
H1328 C1332 0.949 . S
C1329 C1330 1.349 . S
C1329 C1331 1.327 . S
C1329 H1352 0.950 . S
C1330 C1329 1.349 . S
C1330 C1342 1.349 . S
C1331 C1329 1.327 . S
C1331 C1347 1.429 . S
C1331 H1353 0.950 . S
C1332 H1328 0.949 . S
C1332 C1340 1.574 . S
C1332 C1348 1.368 . S
H1333 C1341 0.950 . S
H1334 C1339 0.950 . S
H1335 C1340 0.949 . S
H1336 C1342 0.950 . S
H1337 C1343 0.950 . S
H1338 C1344 0.949 . S
C1339 H1334 0.950 . S
C1339 C1341 1.327 . S
C1339 C1345 1.429 . S
C1340 C1332 1.574 . S
C1340 H1335 0.949 . S
C1340 C1346 1.368 . S
C1341 C1325 1.349 . S
C1341 H1333 0.950 . S
C1341 C1339 1.327 . S
C1342 C1330 1.349 . S
C1342 H1336 0.950 . S
C1342 C1343 1.327 . S
C1343 H1337 0.950 . S
C1343 C1342 1.327 . S
C1343 C1347 1.429 . S
C1344 C1327 1.574 . S
C1344 H1338 0.949 . S
C1344 C1348 1.368 . S
C1345 C1326 1.429 . S
C1345 C1339 1.429 . S
C1345 C1346 1.523 . S
C1346 C1327 1.368 . S
C1346 C1340 1.368 . S
C1346 C1345 1.523 . S
C1347 C1331 1.429 . S
C1347 C1343 1.429 . S
C1347 C1348 1.523 . S
C1348 C1332 1.368 . S
C1348 C1344 1.368 . S
C1348 C1347 1.523 . S
H1349 C1324 0.950 . S
H1350 C1326 0.950 . S
H1351 C1327 0.949 . S
H1352 C1329 0.950 . S
H1353 C1331 0.950 . S
C1354 C1355 1.349 1_655 S
C1354 C1356 1.327 . S
C1354 H1379 0.950 . S
C1355 C1354 1.349 1_455 S
C1355 C1371 1.344 . S
C1356 C1354 1.327 . S
C1356 C1375 1.429 . S
C1356 H1380 0.950 . S
C1357 C1374 1.574 . S
C1357 C1376 1.368 1_545 S
C1357 H1381 0.949 . S
H1358 C1362 0.949 . S
C1359 C1360 1.349 . S
C1359 C1361 1.327 . S
C1359 H1382 0.950 . S
C1360 C1359 1.349 . S
C1360 C1372 1.349 1_545 S
C1361 C1359 1.327 . S
C1361 C1377 1.429 . S
C1361 H1383 0.950 . S
C1362 H1358 0.949 . S
C1362 C1370 1.574 . S
C1362 C1378 1.342 1_565 S
H1363 C1371 0.953 1_545 S
H1364 C1369 0.950 . S
H1365 C1370 0.949 . S
H1366 C1372 0.950 . S
H1367 C1373 0.950 . S
H1368 C1374 0.949 . S
C1369 H1364 0.950 . S
C1369 C1371 1.328 1_545 S
C1369 C1375 1.429 1_445 S
C1370 C1362 1.574 . S
C1370 H1365 0.949 . S
C1370 C1376 1.368 . S
C1371 C1355 1.344 . S
C1371 H1363 0.953 1_565 S
C1371 C1369 1.328 1_565 S
C1372 C1360 1.349 1_565 S
C1372 H1366 0.950 . S
C1372 C1373 1.327 . S
C1373 H1367 0.950 . S
C1373 C1372 1.327 . S
C1373 C1377 1.429 1_565 S
C1374 C1357 1.574 . S
C1374 H1368 0.949 . S
C1374 C1378 1.390 . S
C1375 C1356 1.429 . S
C1375 C1369 1.429 1_665 S
C1375 C1376 1.523 . S
C1376 C1357 1.368 1_565 S
C1376 C1370 1.368 . S
C1376 C1375 1.523 . S
C1377 C1361 1.429 . S
C1377 C1373 1.429 1_545 S
C1377 C1378 1.529 . S
C1378 C1362 1.342 1_545 S
C1378 C1374 1.390 . S
C1378 C1377 1.529 . S
H1379 C1354 0.950 . S
H1380 C1356 0.950 . S
H1381 C1357 0.949 . S
H1382 C1359 0.950 . S
H1383 C1361 0.950 . S
C1384 C1385 1.349 . S
C1384 C1386 1.327 . S
C1384 H1409 0.950 . S
C1385 C1384 1.349 . S
C1385 C1401 1.349 . S
C1386 C1384 1.327 . S
C1386 C1405 1.429 . S
C1386 H1410 0.950 . S
C1387 C1404 1.574 . S
C1387 C1406 1.368 . S
C1387 H1411 0.949 . S
H1388 C1392 0.949 . S
C1389 C1390 1.349 . S
C1389 C1391 1.327 . S
C1389 H1412 0.950 . S
C1390 C1389 1.349 . S
C1390 C1402 1.349 . S
C1391 C1389 1.327 . S
C1391 C1407 1.429 . S
C1391 H1413 0.950 . S
C1392 H1388 0.949 . S
C1392 C1400 1.574 . S
C1392 C1408 1.368 . S
H1393 C1401 0.950 . S
H1394 C1399 0.950 . S
H1395 C1400 0.949 . S
H1396 C1402 0.950 . S
H1397 C1403 0.950 . S
H1398 C1404 0.949 . S
C1399 H1394 0.950 . S
C1399 C1401 1.327 . S
C1399 C1405 1.429 . S
C1400 C1392 1.574 . S
C1400 H1395 0.949 . S
C1400 C1406 1.368 . S
C1401 C1385 1.349 . S
C1401 H1393 0.950 . S
C1401 C1399 1.327 . S
C1402 C1390 1.349 . S
C1402 H1396 0.950 . S
C1402 C1403 1.327 . S
C1403 H1397 0.950 . S
C1403 C1402 1.327 . S
C1403 C1407 1.429 . S
C1404 C1387 1.574 . S
C1404 H1398 0.949 . S
C1404 C1408 1.368 . S
C1405 C1386 1.429 . S
C1405 C1399 1.429 . S
C1405 C1406 1.523 . S
C1406 C1387 1.368 . S
C1406 C1400 1.368 . S
C1406 C1405 1.523 . S
C1407 C1391 1.429 . S
C1407 C1403 1.429 . S
C1407 C1408 1.523 . S
C1408 C1392 1.368 . S
C1408 C1404 1.368 . S
C1408 C1407 1.523 . S
H1409 C1384 0.950 . S
H1410 C1386 0.950 . S
H1411 C1387 0.949 . S
H1412 C1389 0.950 . S
H1413 C1391 0.950 . S
C1414 C1415 1.349 . S
C1414 C1416 1.327 . S
C1414 H1439 0.950 . S
C1415 C1414 1.349 . S
C1415 C1431 1.349 . S
C1416 C1414 1.327 . S
C1416 C1435 1.429 . S
C1416 H1440 0.950 . S
C1417 C1434 1.574 . S
C1417 C1436 1.368 . S
C1417 H1441 0.949 . S
H1418 C1422 0.949 . S
C1419 C1420 1.349 . S
C1419 C1421 1.327 . S
C1419 H1442 0.950 . S
C1420 C1419 1.349 . S
C1420 C1432 1.349 . S
C1421 C1419 1.327 . S
C1421 C1437 1.429 . S
C1421 H1443 0.950 . S
C1422 H1418 0.949 . S
C1422 C1430 1.574 . S
C1422 C1438 1.368 . S
H1423 C1431 0.950 . S
H1424 C1429 0.950 . S
H1425 C1430 0.949 . S
H1426 C1432 0.950 . S
H1427 C1433 0.950 . S
H1428 C1434 0.949 . S
C1429 H1424 0.950 . S
C1429 C1431 1.327 . S
C1429 C1435 1.429 . S
C1430 C1422 1.574 . S
C1430 H1425 0.949 . S
C1430 C1436 1.368 . S
C1431 C1415 1.349 . S
C1431 H1423 0.950 . S
C1431 C1429 1.327 . S
C1432 C1420 1.349 . S
C1432 H1426 0.950 . S
C1432 C1433 1.327 . S
C1433 H1427 0.950 . S
C1433 C1432 1.327 . S
C1433 C1437 1.429 . S
C1434 C1417 1.574 . S
C1434 H1428 0.949 . S
C1434 C1438 1.368 . S
C1435 C1416 1.429 . S
C1435 C1429 1.429 . S
C1435 C1436 1.523 . S
C1436 C1417 1.368 . S
C1436 C1430 1.368 . S
C1436 C1435 1.523 . S
C1437 C1421 1.429 . S
C1437 C1433 1.429 . S
C1437 C1438 1.523 . S
C1438 C1422 1.368 . S
C1438 C1434 1.368 . S
C1438 C1437 1.523 . S
H1439 C1414 0.950 . S
H1440 C1416 0.950 . S
H1441 C1417 0.949 . S
H1442 C1419 0.950 . S
H1443 C1421 0.950 . S
C1444 C1445 1.349 . S
C1444 C1446 1.327 . S
C1444 H1469 0.950 . S
C1445 C1444 1.349 . S
C1445 C1461 1.349 . S
C1446 C1444 1.327 . S
C1446 C1465 1.429 . S
C1446 H1470 0.950 . S
C1447 C1464 1.574 . S
C1447 C1466 1.368 . S
C1447 H1471 0.949 . S
H1448 C1452 0.949 . S
C1449 C1450 1.349 . S
C1449 C1451 1.327 . S
C1449 H1472 0.950 . S
C1450 C1449 1.349 . S
C1450 C1462 1.349 . S
C1451 C1449 1.327 . S
C1451 C1467 1.429 . S
C1451 H1473 0.950 . S
C1452 H1448 0.949 . S
C1452 C1460 1.574 . S
C1452 C1468 1.368 . S
H1453 C1461 0.950 . S
H1454 C1459 0.950 . S
H1455 C1460 0.949 . S
H1456 C1462 0.950 . S
H1457 C1463 0.950 . S
H1458 C1464 0.949 . S
C1459 H1454 0.950 . S
C1459 C1461 1.327 . S
C1459 C1465 1.429 . S
C1460 C1452 1.574 . S
C1460 H1455 0.949 . S
C1460 C1466 1.368 . S
C1461 C1445 1.349 . S
C1461 H1453 0.950 . S
C1461 C1459 1.327 . S
C1462 C1450 1.349 . S
C1462 H1456 0.950 . S
C1462 C1463 1.327 . S
C1463 H1457 0.950 . S
C1463 C1462 1.327 . S
C1463 C1467 1.429 . S
C1464 C1447 1.574 . S
C1464 H1458 0.949 . S
C1464 C1468 1.368 . S
C1465 C1446 1.429 . S
C1465 C1459 1.429 . S
C1465 C1466 1.523 . S
C1466 C1447 1.368 . S
C1466 C1460 1.368 . S
C1466 C1465 1.523 . S
C1467 C1451 1.429 . S
C1467 C1463 1.429 . S
C1467 C1468 1.523 . S
C1468 C1452 1.368 . S
C1468 C1464 1.368 . S
C1468 C1467 1.523 . S
H1469 C1444 0.950 . S
H1470 C1446 0.950 . S
H1471 C1447 0.949 . S
H1472 C1449 0.950 . S
H1473 C1451 0.950 . S
C1474 C1475 1.349 . S
C1474 C1476 1.327 . S
C1474 H1499 0.950 . S
C1475 C1474 1.349 . S
C1475 C1491 1.349 . S
C1476 C1474 1.327 . S
C1476 C1495 1.429 . S
C1476 H1500 0.950 . S
C1477 C1494 1.574 . S
C1477 C1496 1.368 . S
C1477 H1501 0.949 . S
H1478 C1482 0.949 . S
C1479 C1480 1.349 . S
C1479 C1481 1.327 . S
C1479 H1502 0.992 . S
C1480 C1479 1.349 . S
C1480 C1492 1.349 . S
C1481 C1479 1.327 . S
C1481 C1497 1.429 . S
C1481 H1503 0.950 . S
C1482 H1478 0.949 . S
C1482 C1490 1.574 . S
C1482 C1498 1.368 . S
H1483 C1491 0.950 . S
H1484 C1489 0.950 . S
H1485 C1490 0.949 . S
H1486 C1492 0.950 . S
H1487 C1493 0.950 . S
H1488 C1494 0.949 . S
C1489 H1484 0.950 . S
C1489 C1491 1.327 . S
C1489 C1495 1.429 . S
C1490 C1482 1.574 . S
C1490 H1485 0.949 . S
C1490 C1496 1.368 . S
C1491 C1475 1.349 . S
C1491 H1483 0.950 . S
C1491 C1489 1.327 . S
C1492 C1480 1.349 . S
C1492 H1486 0.950 . S
C1492 C1493 1.327 . S
C1493 H1487 0.950 . S
C1493 C1492 1.327 . S
C1493 C1497 1.429 . S
C1494 C1477 1.574 . S
C1494 H1488 0.949 . S
C1494 C1498 1.368 . S
C1495 C1476 1.429 . S
C1495 C1489 1.429 . S
C1495 C1496 1.523 . S
C1496 C1477 1.368 . S
C1496 C1490 1.368 . S
C1496 C1495 1.523 . S
C1497 C1481 1.429 . S
C1497 C1493 1.429 . S
C1497 C1498 1.523 . S
C1498 C1482 1.368 . S
C1498 C1494 1.368 . S
C1498 C1497 1.523 . S
H1499 C1474 0.950 . S
H1500 C1476 0.950 . S
H1501 C1477 0.949 . S
H1502 C1479 0.992 . S
H1503 C1481 0.950 . S
C1504 C1505 1.349 . S
C1504 C1506 1.327 . S
C1504 H1529 0.950 . S
C1505 C1504 1.349 . S
C1505 C1521 1.349 . S
C1506 C1504 1.327 . S
C1506 C1525 1.429 . S
C1506 H1530 0.950 . S
C1507 C1524 1.574 . S
C1507 C1526 1.368 . S
C1507 H1531 0.949 . S
H1508 C1512 0.949 . S
C1509 C1510 1.349 . S
C1509 C1511 1.327 . S
C1509 H1532 0.950 . S
C1510 C1509 1.349 . S
C1510 C1522 1.349 . S
C1511 C1509 1.327 . S
C1511 C1527 1.429 . S
C1511 H1533 0.950 . S
C1512 H1508 0.949 . S
C1512 C1520 1.574 . S
C1512 C1528 1.368 . S
H1513 C1521 0.950 . S
H1514 C1519 0.950 . S
H1515 C1520 0.949 . S
H1516 C1522 0.950 . S
H1517 C1523 0.950 . S
H1518 C1524 0.949 . S
C1519 H1514 0.950 . S
C1519 C1521 1.327 . S
C1519 C1525 1.429 . S
C1520 C1512 1.574 . S
C1520 H1515 0.949 . S
C1520 C1526 1.368 . S
C1521 C1505 1.349 . S
C1521 H1513 0.950 . S
C1521 C1519 1.327 . S
C1522 C1510 1.349 . S
C1522 H1516 0.950 . S
C1522 C1523 1.327 . S
C1523 H1517 0.950 . S
C1523 C1522 1.327 . S
C1523 C1527 1.429 . S
C1524 C1507 1.574 . S
C1524 H1518 0.949 . S
C1524 C1528 1.368 . S
C1525 C1506 1.429 . S
C1525 C1519 1.429 . S
C1525 C1526 1.523 . S
C1526 C1507 1.368 . S
C1526 C1520 1.368 . S
C1526 C1525 1.523 . S
C1527 C1511 1.429 . S
C1527 C1523 1.429 . S
C1527 C1528 1.523 . S
C1528 C1512 1.368 . S
C1528 C1524 1.368 . S
C1528 C1527 1.523 . S
H1529 C1504 0.950 . S
H1530 C1506 0.950 . S
H1531 C1507 0.949 . S
H1532 C1509 0.950 . S
H1533 C1511 0.950 . S
C1534 C1535 1.349 . S
C1534 C1536 1.327 . S
C1534 H1559 0.950 . S
C1535 C1534 1.349 . S
C1535 C1551 1.349 . S
C1536 C1534 1.327 . S
C1536 C1555 1.429 . S
C1536 H1560 0.950 . S
C1537 C1554 1.574 . S
C1537 C1556 1.368 . S
C1537 H1561 0.949 . S
H1538 C1542 0.949 . S
C1539 C1540 1.349 . S
C1539 C1541 1.327 . S
C1539 H1562 0.950 . S
C1540 C1539 1.349 . S
C1540 C1552 1.349 . S
C1541 C1539 1.327 . S
C1541 C1557 1.429 . S
C1541 H1563 0.950 . S
C1542 H1538 0.949 . S
C1542 C1550 1.574 . S
C1542 C1558 1.368 . S
H1543 C1551 0.950 . S
H1544 C1549 0.950 . S
H1545 C1550 0.949 . S
H1546 C1552 0.950 . S
H1547 C1553 0.950 . S
H1548 C1554 0.949 . S
C1549 H1544 0.950 . S
C1549 C1551 1.327 . S
C1549 C1555 1.429 . S
C1550 C1542 1.574 . S
C1550 H1545 0.949 . S
C1550 C1556 1.368 . S
C1551 C1535 1.349 . S
C1551 H1543 0.950 . S
C1551 C1549 1.327 . S
C1552 C1540 1.349 . S
C1552 H1546 0.950 . S
C1552 C1553 1.327 . S
C1553 H1547 0.950 . S
C1553 C1552 1.327 . S
C1553 C1557 1.429 . S
C1554 C1537 1.574 . S
C1554 H1548 0.949 . S
C1554 C1558 1.368 . S
C1555 C1536 1.429 . S
C1555 C1549 1.429 . S
C1555 C1556 1.523 . S
C1556 C1537 1.368 . S
C1556 C1550 1.368 . S
C1556 C1555 1.523 . S
C1557 C1541 1.429 . S
C1557 C1553 1.429 . S
C1557 C1558 1.523 . S
C1558 C1542 1.368 . S
C1558 C1554 1.368 . S
C1558 C1557 1.523 . S
H1559 C1534 0.950 . S
H1560 C1536 0.950 . S
H1561 C1537 0.949 . S
H1562 C1539 0.950 . S
H1563 C1541 0.950 . S
C1564 C1565 1.349 . S
C1564 C1566 1.327 . S
C1564 H1589 0.950 . S
C1565 C1564 1.349 . S
C1565 C1581 1.349 . S
C1566 C1564 1.327 . S
C1566 C1585 1.429 . S
C1566 H1590 0.950 . S
C1567 C1584 1.574 . S
C1567 C1586 1.368 . S
C1567 H1591 0.949 . S
H1568 C1572 0.949 . S
C1569 C1570 1.349 . S
C1569 C1571 1.327 . S
C1569 H1592 0.950 . S
C1570 C1569 1.349 . S
C1570 C1582 1.349 . S
C1571 C1569 1.327 . S
C1571 C1587 1.429 . S
C1571 H1593 0.950 . S
C1572 H1568 0.949 . S
C1572 C1580 1.574 . S
C1572 C1588 1.368 . S
H1573 C1581 0.950 . S
H1574 C1579 0.950 . S
H1575 C1580 0.949 . S
H1576 C1582 0.950 . S
H1577 C1583 0.950 . S
H1578 C1584 0.949 . S
C1579 H1574 0.950 . S
C1579 C1581 1.327 . S
C1579 C1585 1.429 . S
C1580 C1572 1.574 . S
C1580 H1575 0.949 . S
C1580 C1586 1.368 . S
C1581 C1565 1.349 . S
C1581 H1573 0.950 . S
C1581 C1579 1.327 . S
C1582 C1570 1.349 . S
C1582 H1576 0.950 . S
C1582 C1583 1.327 . S
C1583 H1577 0.950 . S
C1583 C1582 1.327 . S
C1583 C1587 1.429 . S
C1584 C1567 1.574 . S
C1584 H1578 0.949 . S
C1584 C1588 1.368 . S
C1585 C1566 1.429 . S
C1585 C1579 1.429 . S
C1585 C1586 1.523 . S
C1586 C1567 1.368 . S
C1586 C1580 1.368 . S
C1586 C1585 1.523 . S
C1587 C1571 1.429 . S
C1587 C1583 1.429 . S
C1587 C1588 1.523 . S
C1588 C1572 1.368 . S
C1588 C1584 1.368 . S
C1588 C1587 1.523 . S
H1589 C1564 0.950 . S
H1590 C1566 0.950 . S
H1591 C1567 0.949 . S
H1592 C1569 0.950 . S
H1593 C1571 0.950 . S
C1594 C1595 1.349 . S
C1594 C1596 1.327 . S
C1594 H1619 0.950 . S
C1595 C1594 1.349 . S
C1595 C1611 1.349 . S
C1596 C1594 1.327 . S
C1596 C1615 1.429 . S
C1596 H1620 0.950 . S
C1597 C1614 1.574 . S
C1597 C1616 1.368 . S
C1597 H1621 0.949 . S
H1598 C1602 0.949 . S
C1599 C1600 1.349 . S
C1599 C1601 1.327 . S
C1599 H1622 0.950 . S
C1600 C1599 1.349 . S
C1600 C1612 1.349 . S
C1601 C1599 1.327 . S
C1601 C1617 1.429 . S
C1601 H1623 0.950 . S
C1602 H1598 0.949 . S
C1602 C1610 1.574 . S
C1602 C1618 1.368 . S
H1603 C1611 0.950 . S
H1604 C1609 0.950 . S
H1605 C1610 0.949 . S
H1606 C1612 0.950 . S
H1607 C1613 0.950 . S
H1608 C1614 0.949 . S
C1609 H1604 0.950 . S
C1609 C1611 1.327 . S
C1609 C1615 1.429 . S
C1610 C1602 1.574 . S
C1610 H1605 0.949 . S
C1610 C1616 1.368 . S
C1611 C1595 1.349 . S
C1611 H1603 0.950 . S
C1611 C1609 1.327 . S
C1612 C1600 1.349 . S
C1612 H1606 0.950 . S
C1612 C1613 1.327 . S
C1613 H1607 0.950 . S
C1613 C1612 1.327 . S
C1613 C1617 1.429 . S
C1614 C1597 1.574 . S
C1614 H1608 0.949 . S
C1614 C1618 1.368 . S
C1615 C1596 1.429 . S
C1615 C1609 1.429 . S
C1615 C1616 1.523 . S
C1616 C1597 1.368 . S
C1616 C1610 1.368 . S
C1616 C1615 1.523 . S
C1617 C1601 1.429 . S
C1617 C1613 1.429 . S
C1617 C1618 1.523 . S
C1618 C1602 1.368 . S
C1618 C1614 1.368 . S
C1618 C1617 1.523 . S
H1619 C1594 0.950 . S
H1620 C1596 0.950 . S
H1621 C1597 0.949 . S
H1622 C1599 0.950 . S
H1623 C1601 0.950 . S
C1624 C1625 1.349 . S
C1624 C1626 1.327 . S
C1624 H1649 0.950 . S
C1625 C1624 1.349 . S
C1625 C1641 1.349 . S
C1626 C1624 1.327 . S
C1626 C1645 1.429 . S
C1626 H1650 0.950 . S
C1627 C1644 1.574 . S
C1627 C1646 1.368 . S
C1627 H1651 0.949 . S
H1628 C1632 0.949 . S
C1629 C1630 1.349 . S
C1629 C1631 1.327 . S
C1629 H1652 0.950 . S
C1630 C1629 1.349 . S
C1630 C1642 1.349 . S
C1631 C1629 1.327 . S
C1631 C1647 1.429 . S
C1631 H1653 0.950 . S
C1632 H1628 0.949 . S
C1632 C1640 1.574 . S
C1632 C1648 1.368 . S
H1633 C1641 0.950 . S
H1634 C1639 0.950 . S
H1635 C1640 0.949 . S
H1636 C1642 0.950 . S
H1637 C1643 0.950 . S
H1638 C1644 0.949 . S
C1639 H1634 0.950 . S
C1639 C1641 1.327 . S
C1639 C1645 1.429 . S
C1640 C1632 1.574 . S
C1640 H1635 0.949 . S
C1640 C1646 1.368 . S
C1641 C1625 1.349 . S
C1641 H1633 0.950 . S
C1641 C1639 1.327 . S
C1642 C1630 1.349 . S
C1642 H1636 0.950 . S
C1642 C1643 1.327 . S
C1643 H1637 0.950 . S
C1643 C1642 1.327 . S
C1643 C1647 1.429 . S
C1644 C1627 1.574 . S
C1644 H1638 0.949 . S
C1644 C1648 1.368 . S
C1645 C1626 1.429 . S
C1645 C1639 1.429 . S
C1645 C1646 1.523 . S
C1646 C1627 1.368 . S
C1646 C1640 1.368 . S
C1646 C1645 1.523 . S
C1647 C1631 1.429 . S
C1647 C1643 1.429 . S
C1647 C1648 1.523 . S
C1648 C1632 1.368 . S
C1648 C1644 1.368 . S
C1648 C1647 1.523 . S
H1649 C1624 0.950 . S
H1650 C1626 0.950 . S
H1651 C1627 0.949 . S
H1652 C1629 0.950 . S
H1653 C1631 0.950 . S
C1654 C1655 1.349 . S
C1654 C1656 1.327 . S
C1654 H1679 0.950 . S
C1655 C1654 1.349 . S
C1655 C1671 1.349 . S
C1656 C1654 1.327 . S
C1656 C1675 1.429 . S
C1656 H1680 0.950 . S
C1657 C1674 1.574 . S
C1657 C1676 1.368 . S
C1657 H1681 0.949 . S
H1658 C1662 0.949 . S
C1659 C1660 1.349 . S
C1659 C1661 1.327 . S
C1659 H1682 0.950 . S
C1660 C1659 1.349 . S
C1660 C1672 1.349 . S
C1661 C1659 1.327 . S
C1661 C1677 1.429 . S
C1661 H1683 0.950 . S
C1662 H1658 0.949 . S
C1662 C1670 1.574 . S
C1662 C1678 1.368 . S
H1663 C1671 0.950 . S
H1664 C1669 0.950 . S
H1665 C1670 0.949 . S
H1666 C1672 0.950 . S
H1667 C1673 0.950 . S
H1668 C1674 0.949 . S
C1669 H1664 0.950 . S
C1669 C1671 1.327 . S
C1669 C1675 1.429 . S
C1670 C1662 1.574 . S
C1670 H1665 0.949 . S
C1670 C1676 1.368 . S
C1671 C1655 1.349 . S
C1671 H1663 0.950 . S
C1671 C1669 1.327 . S
C1672 C1660 1.349 . S
C1672 H1666 0.950 . S
C1672 C1673 1.327 . S
C1673 H1667 0.950 . S
C1673 C1672 1.327 . S
C1673 C1677 1.429 . S
C1674 C1657 1.574 . S
C1674 H1668 0.949 . S
C1674 C1678 1.368 . S
C1675 C1656 1.429 . S
C1675 C1669 1.429 . S
C1675 C1676 1.523 . S
C1676 C1657 1.368 . S
C1676 C1670 1.368 . S
C1676 C1675 1.523 . S
C1677 C1661 1.429 . S
C1677 C1673 1.429 . S
C1677 C1678 1.523 . S
C1678 C1662 1.368 . S
C1678 C1674 1.368 . S
C1678 C1677 1.523 . S
H1679 C1654 0.950 . S
H1680 C1656 0.950 . S
H1681 C1657 0.949 . S
H1682 C1659 0.950 . S
H1683 C1661 0.950 . S
C1684 C1685 1.349 . S
C1684 C1686 1.327 . S
C1684 H1709 0.950 . S
C1685 C1684 1.349 . S
C1685 C1701 1.349 . S
C1686 C1684 1.327 . S
C1686 C1705 1.429 . S
C1686 H1710 0.950 . S
C1687 C1704 1.574 . S
C1687 C1706 1.368 . S
C1687 H1711 0.949 . S
H1688 C1692 0.949 . S
C1689 C1690 1.349 . S
C1689 C1691 1.327 . S
C1689 H1712 0.950 . S
C1690 C1689 1.349 . S
C1690 C1702 1.349 . S
C1691 C1689 1.327 . S
C1691 C1707 1.429 . S
C1691 H1713 0.950 . S
C1692 H1688 0.949 . S
C1692 C1700 1.574 . S
C1692 C1708 1.368 . S
H1693 C1701 0.950 . S
H1694 C1699 0.950 . S
H1695 C1700 0.949 . S
H1696 C1702 0.950 . S
H1697 C1703 0.950 . S
H1698 C1704 0.949 . S
C1699 H1694 0.950 . S
C1699 C1701 1.327 . S
C1699 C1705 1.429 . S
C1700 C1692 1.574 . S
C1700 H1695 0.949 . S
C1700 C1706 1.368 . S
C1701 C1685 1.349 . S
C1701 H1693 0.950 . S
C1701 C1699 1.327 . S
C1702 C1690 1.349 . S
C1702 H1696 0.950 . S
C1702 C1703 1.327 . S
C1703 H1697 0.950 . S
C1703 C1702 1.327 . S
C1703 C1707 1.429 . S
C1704 C1687 1.574 . S
C1704 H1698 0.949 . S
C1704 C1708 1.368 . S
C1705 C1686 1.429 . S
C1705 C1699 1.429 . S
C1705 C1706 1.523 . S
C1706 C1687 1.368 . S
C1706 C1700 1.368 . S
C1706 C1705 1.523 . S
C1707 C1691 1.429 . S
C1707 C1703 1.429 . S
C1707 C1708 1.523 . S
C1708 C1692 1.368 . S
C1708 C1704 1.368 . S
C1708 C1707 1.523 . S
H1709 C1684 0.950 . S
H1710 C1686 0.950 . S
H1711 C1687 0.949 . S
H1712 C1689 0.950 . S
H1713 C1691 0.950 . S
C1714 C1715 1.349 . S
C1714 C1716 1.327 . S
C1714 H1739 0.950 1_655 S
C1715 C1714 1.349 . S
C1715 C1731 1.349 . S
C1716 C1714 1.327 . S
C1716 C1735 1.429 . S
C1716 H1740 0.950 1_655 S
C1717 C1734 1.574 . S
C1717 C1736 1.368 . S
C1717 H1741 0.949 . S
H1718 C1722 0.949 . S
C1719 C1720 1.351 1_655 S
C1719 C1721 1.327 . S
C1719 H1742 0.950 . S
C1720 C1719 1.351 1_455 S
C1720 C1732 1.346 . S
C1721 C1719 1.327 . S
C1721 C1737 1.429 . S
C1721 H1743 0.950 . S
C1722 H1718 0.949 . S
C1722 C1730 1.574 . S
C1722 C1738 1.368 1_455 S
H1723 C1731 0.950 . S
H1724 C1729 0.950 . S
H1725 C1730 0.949 . S
H1726 C1732 0.950 . S
H1727 C1733 0.950 . S
H1728 C1734 0.949 . S
C1729 H1724 0.950 . S
C1729 C1731 1.327 . S
C1729 C1735 1.429 . S
C1730 C1722 1.574 . S
C1730 H1725 0.949 . S
C1730 C1736 1.368 1_455 S
C1731 C1715 1.349 . S
C1731 H1723 0.950 . S
C1731 C1729 1.327 . S
C1732 C1720 1.346 . S
C1732 H1726 0.950 . S
C1732 C1733 1.327 . S
C1733 H1727 0.950 . S
C1733 C1732 1.327 . S
C1733 C1737 1.429 1_455 S
C1734 C1717 1.574 . S
C1734 H1728 0.949 . S
C1734 C1738 1.368 . S
C1735 C1716 1.429 . S
C1735 C1729 1.429 . S
C1735 C1736 1.523 . S
C1736 C1717 1.368 . S
C1736 C1730 1.368 1_655 S
C1736 C1735 1.523 . S
C1737 C1721 1.429 . S
C1737 C1733 1.429 1_655 S
C1737 C1738 1.523 . S
C1738 C1722 1.368 1_655 S
C1738 C1734 1.368 . S
C1738 C1737 1.523 . S
H1739 C1714 0.950 1_455 S
H1740 C1716 0.950 1_455 S
H1741 C1717 0.949 . S
H1742 C1719 0.950 . S
H1743 C1721 0.950 . S
C1744 C1745 1.349 . S
C1744 C1746 1.327 . S
C1744 H1769 0.950 . S
C1745 C1744 1.349 . S
C1745 C1761 1.349 . S
C1746 C1744 1.327 . S
C1746 C1765 1.429 . S
C1746 H1770 0.950 . S
C1747 C1764 1.574 . S
C1747 C1766 1.368 . S
C1747 H1771 0.949 . S
H1748 C1752 0.949 . S
C1749 C1750 1.349 . S
C1749 C1751 1.327 . S
C1749 H1772 0.950 . S
C1750 C1749 1.349 . S
C1750 C1762 1.349 . S
C1751 C1749 1.327 . S
C1751 C1767 1.429 . S
C1751 H1773 0.950 . S
C1752 H1748 0.949 . S
C1752 C1760 1.574 . S
C1752 C1768 1.368 . S
H1753 C1761 0.950 . S
H1754 C1759 0.950 . S
H1755 C1760 0.949 . S
H1756 C1762 0.950 . S
H1757 C1763 0.950 . S
H1758 C1764 0.949 . S
C1759 H1754 0.950 . S
C1759 C1761 1.327 . S
C1759 C1765 1.429 . S
C1760 C1752 1.574 . S
C1760 H1755 0.949 . S
C1760 C1766 1.368 . S
C1761 C1745 1.349 . S
C1761 H1753 0.950 . S
C1761 C1759 1.327 . S
C1762 C1750 1.349 . S
C1762 H1756 0.950 . S
C1762 C1763 1.327 . S
C1763 H1757 0.950 . S
C1763 C1762 1.327 . S
C1763 C1767 1.429 . S
C1764 C1747 1.574 . S
C1764 H1758 0.949 . S
C1764 C1768 1.368 . S
C1765 C1746 1.429 . S
C1765 C1759 1.429 . S
C1765 C1766 1.523 . S
C1766 C1747 1.368 . S
C1766 C1760 1.368 . S
C1766 C1765 1.523 . S
C1767 C1751 1.429 . S
C1767 C1763 1.429 . S
C1767 C1768 1.523 . S
C1768 C1752 1.368 . S
C1768 C1764 1.368 . S
C1768 C1767 1.523 . S
H1769 C1744 0.950 . S
H1770 C1746 0.950 . S
H1771 C1747 0.949 . S
H1772 C1749 0.950 . S
H1773 C1751 0.950 . S
C1774 C1775 1.349 . S
C1774 C1776 1.327 . S
C1774 H1799 0.950 . S
C1775 C1774 1.349 . S
C1775 C1791 1.349 . S
C1776 C1774 1.327 . S
C1776 C1795 1.429 . S
C1776 H1800 0.950 . S
C1777 C1794 1.574 . S
C1777 C1796 1.368 . S
C1777 H1801 0.949 . S
H1778 C1782 0.949 . S
C1779 C1780 1.349 . S
C1779 C1781 1.327 . S
C1779 H1802 0.950 . S
C1780 C1779 1.349 . S
C1780 C1792 1.349 . S
C1781 C1779 1.327 . S
C1781 C1797 1.429 . S
C1781 H1803 0.950 . S
C1782 H1778 0.949 . S
C1782 C1790 1.574 . S
C1782 C1798 1.368 . S
H1783 C1791 0.950 . S
H1784 C1789 0.950 . S
H1785 C1790 0.949 . S
H1786 C1792 0.950 . S
H1787 C1793 0.950 . S
H1788 C1794 0.949 . S
C1789 H1784 0.950 . S
C1789 C1791 1.327 . S
C1789 C1795 1.429 . S
C1790 C1782 1.574 . S
C1790 H1785 0.949 . S
C1790 C1796 1.368 . S
C1791 C1775 1.349 . S
C1791 H1783 0.950 . S
C1791 C1789 1.327 . S
C1792 C1780 1.349 . S
C1792 H1786 0.950 . S
C1792 C1793 1.327 . S
C1793 H1787 0.950 . S
C1793 C1792 1.327 . S
C1793 C1797 1.429 . S
C1794 C1777 1.574 . S
C1794 H1788 0.949 . S
C1794 C1798 1.368 . S
C1795 C1776 1.429 . S
C1795 C1789 1.429 . S
C1795 C1796 1.523 . S
C1796 C1777 1.368 . S
C1796 C1790 1.368 . S
C1796 C1795 1.523 . S
C1797 C1781 1.429 . S
C1797 C1793 1.429 . S
C1797 C1798 1.523 . S
C1798 C1782 1.368 . S
C1798 C1794 1.368 . S
C1798 C1797 1.523 . S
H1799 C1774 0.950 . S
H1800 C1776 0.950 . S
H1801 C1777 0.949 . S
H1802 C1779 0.950 . S
H1803 C1781 0.950 . S
C1804 C1805 1.349 1_554 S
C1804 C1806 1.327 . S
C1804 H1829 0.950 . S
C1805 C1804 1.349 1_556 S
C1805 C1821 1.349 . S
C1806 C1804 1.327 . S
C1806 C1825 1.429 1_554 S
C1806 H1830 0.950 . S
C1807 C1824 1.574 . S
C1807 C1826 1.368 1_565 S
C1807 H1831 0.949 . S
H1808 C1812 0.949 . S
C1809 C1810 1.349 . S
C1809 C1811 1.327 . S
C1809 H1832 0.950 . S
C1810 C1809 1.349 . S
C1810 C1822 1.349 1_556 S
C1811 C1809 1.327 . S
C1811 C1827 1.429 . S
C1811 H1833 0.950 . S
C1812 H1808 0.949 . S
C1812 C1820 1.574 1_565 S
C1812 C1828 1.368 1_554 S
H1813 C1821 0.950 . S
H1814 C1819 0.950 . S
H1815 C1820 0.949 . S
H1816 C1822 0.950 . S
H1817 C1823 0.950 . S
H1818 C1824 0.949 . S
C1819 H1814 0.950 . S
C1819 C1821 1.327 . S
C1819 C1825 1.429 . S
C1820 C1812 1.574 1_545 S
C1820 H1815 0.949 . S
C1820 C1826 1.368 1_554 S
C1821 C1805 1.349 . S
C1821 H1813 0.950 . S
C1821 C1819 1.327 . S
C1822 C1810 1.349 1_554 S
C1822 H1816 0.950 . S
C1822 C1823 1.327 . S
C1823 H1817 0.950 . S
C1823 C1822 1.327 . S
C1823 C1827 1.429 1_554 S
C1824 C1807 1.574 . S
C1824 H1818 0.949 . S
C1824 C1828 1.368 . S
C1825 C1806 1.429 1_556 S
C1825 C1819 1.429 . S
C1825 C1826 1.523 . S
C1826 C1807 1.368 1_545 S
C1826 C1820 1.368 1_556 S
C1826 C1825 1.523 . S
C1827 C1811 1.429 . S
C1827 C1823 1.429 1_556 S
C1827 C1828 1.523 . S
C1828 C1812 1.368 1_556 S
C1828 C1824 1.368 . S
C1828 C1827 1.523 . S
H1829 C1804 0.950 . S
H1830 C1806 0.950 . S
H1831 C1807 0.949 . S
H1832 C1809 0.950 . S
H1833 C1811 0.950 . S
C1834 C1835 1.349 . S
C1834 C1836 1.327 . S
C1834 H1859 0.950 . S
C1835 C1834 1.349 . S
C1835 C1851 1.349 . S
C1836 C1834 1.327 . S
C1836 C1855 1.429 . S
C1836 H1860 0.950 . S
C1837 C1854 1.574 . S
C1837 C1856 1.368 . S
C1837 H1861 0.949 . S
H1838 C1842 0.949 . S
C1839 C1840 1.349 . S
C1839 C1841 1.327 . S
C1839 H1862 0.950 . S
C1840 C1839 1.349 . S
C1840 C1852 1.349 . S
C1841 C1839 1.327 . S
C1841 C1857 1.429 . S
C1841 H1863 0.950 . S
C1842 H1838 0.949 . S
C1842 C1850 1.574 . S
C1842 C1858 1.368 . S
H1843 C1851 0.950 . S
H1844 C1849 0.950 . S
H1845 C1850 0.949 . S
H1846 C1852 0.950 . S
H1847 C1853 0.950 . S
H1848 C1854 0.949 . S
C1849 H1844 0.950 . S
C1849 C1851 1.327 . S
C1849 C1855 1.429 . S
C1850 C1842 1.574 . S
C1850 H1845 0.949 . S
C1850 C1856 1.368 . S
C1851 C1835 1.349 . S
C1851 H1843 0.950 . S
C1851 C1849 1.327 . S
C1852 C1840 1.349 . S
C1852 H1846 0.950 . S
C1852 C1853 1.327 . S
C1853 H1847 0.950 . S
C1853 C1852 1.327 . S
C1853 C1857 1.429 . S
C1854 C1837 1.574 . S
C1854 H1848 0.949 . S
C1854 C1858 1.368 . S
C1855 C1836 1.429 . S
C1855 C1849 1.429 . S
C1855 C1856 1.523 . S
C1856 C1837 1.368 . S
C1856 C1850 1.368 . S
C1856 C1855 1.523 . S
C1857 C1841 1.429 . S
C1857 C1853 1.429 . S
C1857 C1858 1.523 . S
C1858 C1842 1.368 . S
C1858 C1854 1.368 . S
C1858 C1857 1.523 . S
H1859 C1834 0.950 . S
H1860 C1836 0.950 . S
H1861 C1837 0.949 . S
H1862 C1839 0.950 . S
H1863 C1841 0.950 . S
C1864 C1865 1.364 . S
C1864 C1866 1.350 . S
C1864 H1889 0.950 . S
C1865 C1864 1.364 . S
C1865 C1881 1.322 1_565 S
C1866 C1864 1.350 . S
C1866 C1885 1.374 1_565 S
C1866 H1890 0.984 . S
C1867 C1884 1.574 . S
C1867 C1886 1.368 . S
C1867 H1891 0.949 . S
H1868 C1872 0.949 . S
C1869 C1870 1.349 . S
C1869 C1871 1.327 . S
C1869 H1892 0.950 . S
C1870 C1869 1.349 . S
C1870 C1882 1.349 . S
C1871 C1869 1.327 . S
C1871 C1887 1.429 . S
C1871 H1893 0.950 . S
C1872 H1868 0.949 . S
C1872 C1880 1.574 . S
C1872 C1888 1.368 . S
H1873 C1881 0.950 . S
H1874 C1879 0.950 . S
H1875 C1880 0.949 . S
H1876 C1882 0.950 . S
H1877 C1883 0.950 . S
H1878 C1884 0.949 . S
C1879 H1874 0.950 . S
C1879 C1881 1.327 . S
C1879 C1885 1.429 . S
C1880 C1872 1.574 . S
C1880 H1875 0.949 . S
C1880 C1886 1.368 . S
C1881 C1865 1.322 1_545 S
C1881 H1873 0.950 . S
C1881 C1879 1.327 . S
C1882 C1870 1.349 . S
C1882 H1876 0.950 . S
C1882 C1883 1.327 . S
C1883 H1877 0.950 . S
C1883 C1882 1.327 . S
C1883 C1887 1.429 . S
C1884 C1867 1.574 . S
C1884 H1878 0.949 . S
C1884 C1888 1.368 . S
C1885 C1866 1.374 1_545 S
C1885 C1879 1.429 . S
C1885 C1886 1.523 . S
C1886 C1867 1.368 . S
C1886 C1880 1.368 . S
C1886 C1885 1.523 . S
C1887 C1871 1.429 . S
C1887 C1883 1.429 . S
C1887 C1888 1.523 . S
C1888 C1872 1.368 . S
C1888 C1884 1.368 . S
C1888 C1887 1.523 . S
H1889 C1864 0.950 . S
H1890 C1866 0.984 . S
H1891 C1867 0.949 . S
H1892 C1869 0.950 . S
H1893 C1871 0.950 . S
C1894 C1895 1.349 . S
C1894 C1896 1.327 . S
C1894 H1919 0.950 . S
C1895 C1894 1.349 . S
C1895 C1911 1.349 . S
C1896 C1894 1.327 . S
C1896 C1915 1.429 . S
C1896 H1920 0.950 . S
C1897 C1914 1.574 . S
C1897 C1916 1.368 . S
C1897 H1921 0.949 . S
H1898 C1902 0.949 . S
C1899 C1900 1.349 . S
C1899 C1901 1.327 . S
C1899 H1922 0.950 . S
C1900 C1899 1.349 . S
C1900 C1912 1.349 . S
C1901 C1899 1.327 . S
C1901 C1917 1.429 . S
C1901 H1923 0.950 . S
C1902 H1898 0.949 . S
C1902 C1910 1.574 . S
C1902 C1918 1.368 . S
H1903 C1911 0.950 . S
H1904 C1909 0.950 . S
H1905 C1910 0.949 . S
H1906 C1912 0.950 . S
H1907 C1913 0.950 . S
H1908 C1914 0.949 . S
C1909 H1904 0.950 . S
C1909 C1911 1.327 . S
C1909 C1915 1.429 . S
C1910 C1902 1.574 . S
C1910 H1905 0.949 . S
C1910 C1916 1.368 . S
C1911 C1895 1.349 . S
C1911 H1903 0.950 . S
C1911 C1909 1.327 . S
C1912 C1900 1.349 . S
C1912 H1906 0.950 . S
C1912 C1913 1.327 . S
C1913 H1907 0.950 . S
C1913 C1912 1.327 . S
C1913 C1917 1.429 . S
C1914 C1897 1.574 . S
C1914 H1908 0.949 . S
C1914 C1918 1.368 . S
C1915 C1896 1.429 . S
C1915 C1909 1.429 . S
C1915 C1916 1.523 . S
C1916 C1897 1.368 . S
C1916 C1910 1.368 . S
C1916 C1915 1.523 . S
C1917 C1901 1.429 . S
C1917 C1913 1.429 . S
C1917 C1918 1.523 . S
C1918 C1902 1.368 . S
C1918 C1914 1.368 . S
C1918 C1917 1.523 . S
H1919 C1894 0.950 . S
H1920 C1896 0.950 . S
H1921 C1897 0.949 . S
H1922 C1899 0.950 . S
H1923 C1901 0.950 . S
C1924 C1925 1.349 . S
C1924 C1926 1.327 1_565 S
C1924 H1949 0.950 . S
C1925 C1924 1.349 . S
C1925 C1941 1.349 . S
C1926 C1924 1.327 1_545 S
C1926 C1945 1.429 . S
C1926 H1950 0.950 . S
C1927 C1944 1.574 . S
C1927 C1946 1.368 . S
C1927 H1951 0.949 . S
H1928 C1932 0.949 . S
C1929 C1930 1.349 . S
C1929 C1931 1.327 . S
C1929 H1952 0.950 . S
C1930 C1929 1.349 . S
C1930 C1942 1.349 . S
C1931 C1929 1.327 . S
C1931 C1947 1.429 . S
C1931 H1953 0.950 . S
C1932 H1928 0.949 . S
C1932 C1940 1.574 . S
C1932 C1948 1.368 . S
H1933 C1941 0.950 . S
H1934 C1939 0.950 . S
H1935 C1940 0.949 . S
H1936 C1942 0.950 . S
H1937 C1943 0.950 . S
H1938 C1944 0.949 . S
C1939 H1934 0.950 . S
C1939 C1941 1.327 . S
C1939 C1945 1.429 1_565 S
C1940 C1932 1.574 . S
C1940 H1935 0.949 . S
C1940 C1946 1.368 . S
C1941 C1925 1.349 . S
C1941 H1933 0.950 . S
C1941 C1939 1.327 . S
C1942 C1930 1.349 . S
C1942 H1936 0.950 . S
C1942 C1943 1.327 . S
C1943 H1937 0.950 . S
C1943 C1942 1.327 . S
C1943 C1947 1.429 . S
C1944 C1927 1.574 . S
C1944 H1938 0.949 . S
C1944 C1948 1.368 . S
C1945 C1926 1.429 . S
C1945 C1939 1.429 1_545 S
C1945 C1946 1.523 . S
C1946 C1927 1.368 . S
C1946 C1940 1.368 . S
C1946 C1945 1.523 . S
C1947 C1931 1.429 . S
C1947 C1943 1.429 . S
C1947 C1948 1.523 . S
C1948 C1932 1.368 . S
C1948 C1944 1.368 . S
C1948 C1947 1.523 . S
H1949 C1924 0.950 . S
H1950 C1926 0.950 . S
H1951 C1927 0.949 . S
H1952 C1929 0.950 . S
H1953 C1931 0.950 . S
C1954 C1955 1.349 . S
C1954 C1956 1.327 . S
C1954 H1979 0.950 . S
C1955 C1954 1.349 . S
C1955 C1971 1.349 . S
C1956 C1954 1.327 . S
C1956 C1975 1.429 . S
C1956 H1980 0.950 . S
C1957 C1974 1.574 . S
C1957 C1976 1.368 . S
C1957 H1981 0.949 . S
H1958 C1962 0.949 . S
C1959 C1960 1.349 . S
C1959 C1961 1.327 . S
C1959 H1982 0.950 . S
C1960 C1959 1.349 . S
C1960 C1972 1.349 . S
C1961 C1959 1.327 . S
C1961 C1977 1.429 . S
C1961 H1983 0.950 . S
C1962 H1958 0.949 . S
C1962 C1970 1.574 . S
C1962 C1978 1.368 . S
H1963 C1971 0.950 . S
H1964 C1969 0.950 . S
H1965 C1970 0.949 . S
H1966 C1972 0.950 . S
H1967 C1973 0.950 . S
H1968 C1974 0.949 . S
C1969 H1964 0.950 . S
C1969 C1971 1.327 . S
C1969 C1975 1.429 . S
C1970 C1962 1.574 . S
C1970 H1965 0.949 . S
C1970 C1976 1.368 . S
C1971 C1955 1.349 . S
C1971 H1963 0.950 . S
C1971 C1969 1.327 . S
C1972 C1960 1.349 . S
C1972 H1966 0.950 . S
C1972 C1973 1.327 . S
C1973 H1967 0.950 . S
C1973 C1972 1.327 . S
C1973 C1977 1.429 . S
C1974 C1957 1.574 . S
C1974 H1968 0.949 . S
C1974 C1978 1.368 . S
C1975 C1956 1.429 . S
C1975 C1969 1.429 . S
C1975 C1976 1.523 . S
C1976 C1957 1.368 . S
C1976 C1970 1.368 . S
C1976 C1975 1.523 . S
C1977 C1961 1.429 . S
C1977 C1973 1.429 . S
C1977 C1978 1.523 . S
C1978 C1962 1.368 . S
C1978 C1974 1.368 . S
C1978 C1977 1.523 . S
H1979 C1954 0.950 . S
H1980 C1956 0.950 . S
H1981 C1957 0.949 . S
H1982 C1959 0.950 . S
H1983 C1961 0.950 . S
C1984 C1985 1.349 . S
C1984 C1986 1.327 . S
C1984 H2009 0.950 . S
C1985 C1984 1.349 . S
C1985 C2001 1.349 . S
C1986 C1984 1.327 . S
C1986 C2005 1.429 . S
C1986 H2010 0.950 . S
C1987 C2004 1.574 . S
C1987 C2006 1.368 . S
C1987 H2011 0.949 . S
H1988 C1992 0.949 . S
C1989 C1990 1.349 . S
C1989 C1991 1.327 . S
C1989 H2012 0.950 . S
C1990 C1989 1.349 . S
C1990 C2002 1.349 . S
C1991 C1989 1.327 . S
C1991 C2007 1.429 . S
C1991 H2013 0.950 . S
C1992 H1988 0.949 . S
C1992 C2000 1.574 . S
C1992 C2008 1.368 . S
H1993 C2001 0.950 . S
H1994 C1999 0.950 . S
H1995 C2000 0.949 . S
H1996 C2002 0.950 . S
H1997 C2003 0.950 . S
H1998 C2004 0.949 . S
C1999 H1994 0.950 . S
C1999 C2001 1.327 . S
C1999 C2005 1.429 . S
C2000 C1992 1.574 . S
C2000 H1995 0.949 . S
C2000 C2006 1.368 . S
C2001 C1985 1.349 . S
C2001 H1993 0.950 . S
C2001 C1999 1.327 . S
C2002 C1990 1.349 . S
C2002 H1996 0.950 . S
C2002 C2003 1.327 . S
C2003 H1997 0.950 . S
C2003 C2002 1.327 . S
C2003 C2007 1.429 . S
C2004 C1987 1.574 . S
C2004 H1998 0.949 . S
C2004 C2008 1.368 . S
C2005 C1986 1.429 . S
C2005 C1999 1.429 . S
C2005 C2006 1.523 . S
C2006 C1987 1.368 . S
C2006 C2000 1.368 . S
C2006 C2005 1.523 . S
C2007 C1991 1.429 . S
C2007 C2003 1.429 . S
C2007 C2008 1.523 . S
C2008 C1992 1.368 . S
C2008 C2004 1.368 . S
C2008 C2007 1.523 . S
H2009 C1984 0.950 . S
H2010 C1986 0.950 . S
H2011 C1987 0.949 . S
H2012 C1989 0.950 . S
H2013 C1991 0.950 . S
C2014 C2015 1.349 . S
C2014 C2016 1.327 . S
C2014 H2039 0.950 . S
C2015 C2014 1.349 . S
C2015 C2031 1.349 . S
C2016 C2014 1.327 . S
C2016 C2035 1.429 . S
C2016 H2040 0.950 . S
C2017 C2034 1.574 . S
C2017 C2036 1.368 . S
C2017 H2041 0.949 . S
H2018 C2022 0.949 . S
C2019 C2020 1.349 1_565 S
C2019 C2021 1.321 1_565 S
C2019 H2042 0.950 . S
C2020 C2019 1.349 1_545 S
C2020 C2032 1.349 . S
C2021 C2019 1.321 1_545 S
C2021 C2037 1.445 . S
C2021 H2043 0.940 1_545 S
C2022 H2018 0.949 . S
C2022 C2030 1.574 . S
C2022 C2038 1.368 . S
H2023 C2031 0.950 . S
H2024 C2029 0.950 . S
H2025 C2030 0.949 . S
H2026 C2032 0.950 . S
H2027 C2033 0.950 . S
H2028 C2034 0.949 1_565 S
C2029 H2024 0.950 . S
C2029 C2031 1.327 . S
C2029 C2035 1.429 . S
C2030 C2022 1.574 . S
C2030 H2025 0.949 . S
C2030 C2036 1.368 . S
C2031 C2015 1.349 . S
C2031 H2023 0.950 . S
C2031 C2029 1.327 . S
C2032 C2020 1.349 . S
C2032 H2026 0.950 . S
C2032 C2033 1.327 . S
C2033 H2027 0.950 . S
C2033 C2032 1.327 . S
C2033 C2037 1.429 . S
C2034 C2017 1.574 . S
C2034 H2028 0.949 1_545 S
C2034 C2038 1.368 . S
C2035 C2016 1.429 . S
C2035 C2029 1.429 . S
C2035 C2036 1.523 . S
C2036 C2017 1.368 . S
C2036 C2030 1.368 . S
C2036 C2035 1.523 . S
C2037 C2021 1.445 . S
C2037 C2033 1.429 . S
C2037 C2038 1.523 . S
C2038 C2022 1.368 . S
C2038 C2034 1.368 . S
C2038 C2037 1.523 . S
H2039 C2014 0.950 . S
H2040 C2016 0.950 . S
H2041 C2017 0.949 . S
H2042 C2019 0.950 . S
H2043 C2021 0.940 1_565 S
C2044 C2045 1.349 . S
C2044 C2046 1.327 . S
C2044 H2069 0.950 . S
C2045 C2044 1.349 . S
C2045 C2061 1.349 . S
C2046 C2044 1.327 . S
C2046 C2065 1.429 . S
C2046 H2070 0.950 . S
C2047 C2064 1.574 . S
C2047 C2066 1.368 . S
C2047 H2071 0.949 . S
H2048 C2052 0.949 . S
C2049 C2050 1.349 . S
C2049 C2051 1.327 . S
C2049 H2072 0.950 . S
C2050 C2049 1.349 . S
C2050 C2062 1.349 . S
C2051 C2049 1.327 . S
C2051 C2067 1.429 . S
C2051 H2073 0.950 . S
C2052 H2048 0.949 . S
C2052 C2060 1.574 . S
C2052 C2068 1.368 . S
H2053 C2061 0.950 . S
H2054 C2059 0.950 . S
H2055 C2060 0.949 . S
H2056 C2062 0.950 . S
H2057 C2063 0.950 . S
H2058 C2064 0.949 . S
C2059 H2054 0.950 . S
C2059 C2061 1.327 . S
C2059 C2065 1.429 . S
C2060 C2052 1.574 . S
C2060 H2055 0.949 . S
C2060 C2066 1.368 . S
C2061 C2045 1.349 . S
C2061 H2053 0.950 . S
C2061 C2059 1.327 . S
C2062 C2050 1.349 . S
C2062 H2056 0.950 . S
C2062 C2063 1.327 . S
C2063 H2057 0.950 . S
C2063 C2062 1.327 . S
C2063 C2067 1.429 . S
C2064 C2047 1.574 . S
C2064 H2058 0.949 . S
C2064 C2068 1.368 . S
C2065 C2046 1.429 . S
C2065 C2059 1.429 . S
C2065 C2066 1.523 . S
C2066 C2047 1.368 . S
C2066 C2060 1.368 . S
C2066 C2065 1.523 . S
C2067 C2051 1.429 . S
C2067 C2063 1.429 . S
C2067 C2068 1.523 . S
C2068 C2052 1.368 . S
C2068 C2064 1.368 . S
C2068 C2067 1.523 . S
H2069 C2044 0.950 . S
H2070 C2046 0.950 . S
H2071 C2047 0.949 . S
H2072 C2049 0.950 . S
H2073 C2051 0.950 . S
C2074 C2075 1.349 . S
C2074 C2076 1.327 . S
C2074 H2099 0.950 . S
C2075 C2074 1.349 . S
C2075 C2091 1.349 . S
C2076 C2074 1.327 . S
C2076 C2095 1.429 . S
C2076 H2100 0.950 . S
C2077 C2094 1.574 . S
C2077 C2096 1.368 . S
C2077 H2101 0.949 . S
H2078 C2082 0.949 . S
C2079 C2080 1.349 . S
C2079 C2081 1.327 . S
C2079 H2102 0.950 . S
C2080 C2079 1.349 . S
C2080 C2092 1.349 . S
C2081 C2079 1.327 . S
C2081 C2097 1.429 . S
C2081 H2103 0.950 . S
C2082 H2078 0.949 . S
C2082 C2090 1.574 . S
C2082 C2098 1.368 . S
H2083 C2091 0.950 . S
H2084 C2089 0.950 . S
H2085 C2090 0.949 . S
H2086 C2092 0.950 . S
H2087 C2093 0.950 . S
H2088 C2094 0.949 . S
C2089 H2084 0.950 . S
C2089 C2091 1.327 . S
C2089 C2095 1.429 . S
C2090 C2082 1.574 . S
C2090 H2085 0.949 . S
C2090 C2096 1.368 . S
C2091 C2075 1.349 . S
C2091 H2083 0.950 . S
C2091 C2089 1.327 . S
C2092 C2080 1.349 . S
C2092 H2086 0.950 . S
C2092 C2093 1.327 . S
C2093 H2087 0.950 . S
C2093 C2092 1.327 . S
C2093 C2097 1.429 . S
C2094 C2077 1.574 . S
C2094 H2088 0.949 . S
C2094 C2098 1.368 . S
C2095 C2076 1.429 . S
C2095 C2089 1.429 . S
C2095 C2096 1.523 . S
C2096 C2077 1.368 . S
C2096 C2090 1.368 . S
C2096 C2095 1.523 . S
C2097 C2081 1.429 . S
C2097 C2093 1.429 . S
C2097 C2098 1.523 . S
C2098 C2082 1.368 . S
C2098 C2094 1.368 . S
C2098 C2097 1.523 . S
H2099 C2074 0.950 . S
H2100 C2076 0.950 . S
H2101 C2077 0.949 . S
H2102 C2079 0.950 . S
H2103 C2081 0.950 . S
C2104 C2105 1.349 . S
C2104 C2106 1.327 . S
C2104 H2129 0.950 . S
C2105 C2104 1.349 . S
C2105 C2121 1.349 . S
C2106 C2104 1.327 . S
C2106 C2125 1.429 . S
C2106 H2130 0.950 . S
C2107 C2124 1.574 . S
C2107 C2126 1.368 . S
C2107 H2131 0.949 . S
H2108 C2112 0.949 . S
C2109 C2110 1.349 . S
C2109 C2111 1.327 . S
C2109 H2132 0.950 . S
C2110 C2109 1.349 . S
C2110 C2122 1.349 . S
C2111 C2109 1.327 . S
C2111 C2127 1.429 . S
C2111 H2133 0.950 . S
C2112 H2108 0.949 . S
C2112 C2120 1.574 . S
C2112 C2128 1.368 . S
H2113 C2121 0.950 . S
H2114 C2119 0.950 . S
H2115 C2120 0.949 . S
H2116 C2122 0.950 . S
H2117 C2123 0.950 . S
H2118 C2124 0.949 . S
C2119 H2114 0.950 . S
C2119 C2121 1.327 . S
C2119 C2125 1.429 . S
C2120 C2112 1.574 . S
C2120 H2115 0.949 . S
C2120 C2126 1.368 . S
C2121 C2105 1.349 . S
C2121 H2113 0.950 . S
C2121 C2119 1.327 . S
C2122 C2110 1.349 . S
C2122 H2116 0.950 . S
C2122 C2123 1.327 . S
C2123 H2117 0.950 . S
C2123 C2122 1.327 . S
C2123 C2127 1.429 . S
C2124 C2107 1.574 . S
C2124 H2118 0.949 . S
C2124 C2128 1.368 . S
C2125 C2106 1.429 . S
C2125 C2119 1.429 . S
C2125 C2126 1.523 . S
C2126 C2107 1.368 . S
C2126 C2120 1.368 . S
C2126 C2125 1.523 . S
C2127 C2111 1.429 . S
C2127 C2123 1.429 . S
C2127 C2128 1.523 . S
C2128 C2112 1.368 . S
C2128 C2124 1.368 . S
C2128 C2127 1.523 . S
H2129 C2104 0.950 . S
H2130 C2106 0.950 . S
H2131 C2107 0.949 . S
H2132 C2109 0.950 . S
H2133 C2111 0.950 . S
C2134 C2135 1.349 1_655 S
C2134 C2136 1.327 . S
C2134 H2159 0.950 . S
C2135 C2134 1.349 1_455 S
C2135 C2151 1.349 . S
C2136 C2134 1.327 . S
C2136 C2155 1.429 . S
C2136 H2160 0.950 . S
C2137 C2154 1.574 . S
C2137 C2156 1.368 . S
C2137 H2161 0.949 . S
H2138 C2142 0.949 . S
C2139 C2140 1.349 . S
C2139 C2141 1.327 . S
C2139 H2162 0.950 . S
C2140 C2139 1.349 . S
C2140 C2152 1.349 . S
C2141 C2139 1.327 . S
C2141 C2157 1.429 . S
C2141 H2163 0.950 . S
C2142 H2138 0.949 . S
C2142 C2150 1.574 . S
C2142 C2158 1.368 . S
H2143 C2151 0.950 . S
H2144 C2149 0.950 . S
H2145 C2150 0.949 . S
H2146 C2152 0.950 . S
H2147 C2153 0.950 . S
H2148 C2154 0.949 . S
C2149 H2144 0.950 . S
C2149 C2151 1.327 1_655 S
C2149 C2155 1.429 . S
C2150 C2142 1.574 . S
C2150 H2145 0.949 . S
C2150 C2156 1.368 . S
C2151 C2135 1.349 . S
C2151 H2143 0.950 . S
C2151 C2149 1.327 1_455 S
C2152 C2140 1.349 . S
C2152 H2146 0.950 . S
C2152 C2153 1.327 . S
C2153 H2147 0.950 . S
C2153 C2152 1.327 . S
C2153 C2157 1.429 . S
C2154 C2137 1.574 . S
C2154 H2148 0.949 . S
C2154 C2158 1.368 . S
C2155 C2136 1.429 . S
C2155 C2149 1.429 . S
C2155 C2156 1.523 . S
C2156 C2137 1.368 . S
C2156 C2150 1.368 . S
C2156 C2155 1.523 . S
C2157 C2141 1.429 . S
C2157 C2153 1.429 . S
C2157 C2158 1.523 . S
C2158 C2142 1.368 . S
C2158 C2154 1.368 . S
C2158 C2157 1.523 . S
H2159 C2134 0.950 . S
H2160 C2136 0.950 . S
H2161 C2137 0.949 . S
H2162 C2139 0.950 . S
H2163 C2141 0.950 . S
C2164 C2165 1.349 . S
C2164 C2166 1.327 . S
C2164 H2189 0.950 . S
C2165 C2164 1.349 . S
C2165 C2181 1.349 . S
C2166 C2164 1.327 . S
C2166 C2185 1.429 . S
C2166 H2190 0.950 . S
C2167 C2184 1.574 . S
C2167 C2186 1.368 . S
C2167 H2191 0.949 . S
H2168 C2172 0.949 . S
C2169 C2170 1.349 . S
C2169 C2171 1.327 . S
C2169 H2192 0.950 . S
C2170 C2169 1.349 . S
C2170 C2182 1.349 . S
C2171 C2169 1.327 . S
C2171 C2187 1.429 . S
C2171 H2193 0.950 . S
C2172 H2168 0.949 . S
C2172 C2180 1.574 . S
C2172 C2188 1.368 . S
H2173 C2181 0.950 . S
H2174 C2179 0.950 . S
H2175 C2180 0.949 . S
H2176 C2182 0.950 . S
H2177 C2183 0.950 . S
H2178 C2184 0.949 . S
C2179 H2174 0.950 . S
C2179 C2181 1.327 . S
C2179 C2185 1.429 . S
C2180 C2172 1.574 . S
C2180 H2175 0.949 . S
C2180 C2186 1.368 . S
C2181 C2165 1.349 . S
C2181 H2173 0.950 . S
C2181 C2179 1.327 . S
C2182 C2170 1.349 . S
C2182 H2176 0.950 . S
C2182 C2183 1.327 . S
C2183 H2177 0.950 . S
C2183 C2182 1.327 . S
C2183 C2187 1.429 . S
C2184 C2167 1.574 . S
C2184 H2178 0.949 . S
C2184 C2188 1.368 . S
C2185 C2166 1.429 . S
C2185 C2179 1.429 . S
C2185 C2186 1.523 . S
C2186 C2167 1.368 . S
C2186 C2180 1.368 . S
C2186 C2185 1.523 . S
C2187 C2171 1.429 . S
C2187 C2183 1.429 . S
C2187 C2188 1.523 . S
C2188 C2172 1.368 . S
C2188 C2184 1.368 . S
C2188 C2187 1.523 . S
H2189 C2164 0.950 . S
H2190 C2166 0.950 . S
H2191 C2167 0.949 . S
H2192 C2169 0.950 . S
H2193 C2171 0.950 . S
C2194 C2195 1.349 . S
C2194 C2196 1.327 . S
C2194 H2219 0.950 . S
C2195 C2194 1.349 . S
C2195 C2211 1.349 . S
C2196 C2194 1.327 . S
C2196 C2215 1.429 . S
C2196 H2220 0.950 . S
C2197 C2214 1.574 . S
C2197 C2216 1.368 . S
C2197 H2221 0.949 . S
H2198 C2202 0.949 . S
C2199 C2200 1.349 . S
C2199 C2201 1.327 . S
C2199 H2222 0.950 . S
C2200 C2199 1.349 . S
C2200 C2212 1.349 . S
C2201 C2199 1.327 . S
C2201 C2217 1.429 . S
C2201 H2223 0.950 . S
C2202 H2198 0.949 . S
C2202 C2210 1.574 . S
C2202 C2218 1.368 . S
H2203 C2211 0.950 . S
H2204 C2209 0.950 . S
H2205 C2210 0.949 . S
H2206 C2212 0.950 . S
H2207 C2213 0.950 . S
H2208 C2214 0.949 . S
C2209 H2204 0.950 . S
C2209 C2211 1.327 . S
C2209 C2215 1.429 . S
C2210 C2202 1.574 . S
C2210 H2205 0.949 . S
C2210 C2216 1.368 . S
C2211 C2195 1.349 . S
C2211 H2203 0.950 . S
C2211 C2209 1.327 . S
C2212 C2200 1.349 . S
C2212 H2206 0.950 . S
C2212 C2213 1.327 . S
C2213 H2207 0.950 . S
C2213 C2212 1.327 . S
C2213 C2217 1.429 . S
C2214 C2197 1.574 . S
C2214 H2208 0.949 . S
C2214 C2218 1.368 . S
C2215 C2196 1.429 . S
C2215 C2209 1.429 . S
C2215 C2216 1.523 . S
C2216 C2197 1.368 . S
C2216 C2210 1.368 . S
C2216 C2215 1.523 . S
C2217 C2201 1.429 . S
C2217 C2213 1.429 . S
C2217 C2218 1.523 . S
C2218 C2202 1.368 . S
C2218 C2214 1.368 . S
C2218 C2217 1.523 . S
H2219 C2194 0.950 . S
H2220 C2196 0.950 . S
H2221 C2197 0.949 . S
H2222 C2199 0.950 . S
H2223 C2201 0.950 . S
C2224 C2225 1.349 . S
C2224 C2226 1.327 . S
C2224 H2249 0.950 . S
C2225 C2224 1.349 . S
C2225 C2241 1.349 . S
C2226 C2224 1.327 . S
C2226 C2245 1.429 . S
C2226 H2250 0.950 . S
C2227 C2244 1.574 . S
C2227 C2246 1.368 . S
C2227 H2251 0.949 . S
H2228 C2232 0.949 . S
C2229 C2230 1.349 . S
C2229 C2231 1.327 . S
C2229 H2252 0.950 . S
C2230 C2229 1.349 . S
C2230 C2242 1.349 . S
C2231 C2229 1.327 . S
C2231 C2247 1.429 . S
C2231 H2253 0.950 . S
C2232 H2228 0.949 . S
C2232 C2240 1.574 . S
C2232 C2248 1.368 . S
H2233 C2241 0.950 . S
H2234 C2239 0.950 . S
H2235 C2240 0.949 . S
H2236 C2242 0.950 . S
H2237 C2243 0.950 . S
H2238 C2244 0.949 . S
C2239 H2234 0.950 . S
C2239 C2241 1.327 . S
C2239 C2245 1.429 . S
C2240 C2232 1.574 . S
C2240 H2235 0.949 . S
C2240 C2246 1.368 . S
C2241 C2225 1.349 . S
C2241 H2233 0.950 . S
C2241 C2239 1.327 . S
C2242 C2230 1.349 . S
C2242 H2236 0.950 . S
C2242 C2243 1.327 . S
C2243 H2237 0.950 . S
C2243 C2242 1.327 . S
C2243 C2247 1.429 . S
C2244 C2227 1.574 . S
C2244 H2238 0.949 . S
C2244 C2248 1.368 . S
C2245 C2226 1.429 . S
C2245 C2239 1.429 . S
C2245 C2246 1.523 . S
C2246 C2227 1.368 . S
C2246 C2240 1.368 . S
C2246 C2245 1.523 . S
C2247 C2231 1.429 . S
C2247 C2243 1.429 . S
C2247 C2248 1.523 . S
C2248 C2232 1.368 . S
C2248 C2244 1.368 . S
C2248 C2247 1.523 . S
H2249 C2224 0.950 . S
H2250 C2226 0.950 . S
H2251 C2227 0.949 . S
H2252 C2229 0.950 . S
H2253 C2231 0.950 . S
C2254 C2255 1.349 . S
C2254 C2256 1.327 . S
C2254 H2279 0.920 1_655 S
C2255 C2254 1.349 . S
C2255 C2271 1.349 . S
C2256 C2254 1.327 . S
C2256 C2275 1.429 . S
C2256 H2280 0.950 1_655 S
C2257 C2274 1.574 1_554 S
C2257 C2276 1.379 . S
C2257 H2281 0.949 . S
H2258 C2262 0.949 . S
C2259 C2260 1.349 . S
C2259 C2261 1.327 . S
C2259 H2282 0.950 . S
C2260 C2259 1.349 . S
C2260 C2272 1.349 1_655 S
C2261 C2259 1.327 . S
C2261 C2277 1.429 . S
C2261 H2283 0.950 . S
C2262 H2258 0.949 . S
C2262 C2270 1.574 . S
C2262 C2278 1.368 1_455 S
H2263 C2271 0.950 . S
H2264 C2269 0.950 . S
H2265 C2270 0.949 . S
H2266 C2272 0.950 . S
H2267 C2273 0.950 . S
H2268 C2274 0.949 . S
C2269 H2264 0.950 . S
C2269 C2271 1.327 . S
C2269 C2275 1.429 . S
C2270 C2262 1.574 . S
C2270 H2265 0.949 . S
C2270 C2276 1.321 1_456 S
C2271 C2255 1.349 . S
C2271 H2263 0.950 . S
C2271 C2269 1.327 . S
C2272 C2260 1.349 1_455 S
C2272 H2266 0.950 . S
C2272 C2273 1.327 . S
C2273 H2267 0.950 . S
C2273 C2272 1.327 . S
C2273 C2277 1.429 1_455 S
C2274 C2257 1.574 1_556 S
C2274 H2268 0.949 . S
C2274 C2278 1.368 . S
C2275 C2256 1.429 . S
C2275 C2269 1.429 . S
C2275 C2276 1.577 . S
C2276 C2257 1.379 . S
C2276 C2270 1.321 1_654 S
C2276 C2275 1.577 . S
C2277 C2261 1.429 . S
C2277 C2273 1.429 1_655 S
C2277 C2278 1.523 . S
C2278 C2262 1.368 1_655 S
C2278 C2274 1.368 . S
C2278 C2277 1.523 . S
H2279 C2254 0.920 1_455 S
H2280 C2256 0.950 1_455 S
H2281 C2257 0.949 . S
H2282 C2259 0.950 . S
H2283 C2261 0.950 . S
C2284 C2285 1.349 . S
C2284 C2286 1.327 . S
C2284 H2309 0.950 . S
C2285 C2284 1.349 . S
C2285 C2301 1.349 . S
C2286 C2284 1.327 . S
C2286 C2305 1.429 . S
C2286 H2310 0.950 . S
C2287 C2304 1.574 . S
C2287 C2306 1.368 . S
C2287 H2311 0.949 . S
H2288 C2292 0.949 . S
C2289 C2290 1.349 . S
C2289 C2291 1.327 . S
C2289 H2312 0.950 . S
C2290 C2289 1.349 . S
C2290 C2302 1.349 . S
C2291 C2289 1.327 . S
C2291 C2307 1.429 . S
C2291 H2313 0.950 . S
C2292 H2288 0.949 . S
C2292 C2300 1.574 . S
C2292 C2308 1.368 . S
H2293 C2301 0.950 . S
H2294 C2299 0.950 . S
H2295 C2300 0.949 . S
H2296 C2302 0.950 . S
H2297 C2303 0.950 . S
H2298 C2304 0.949 . S
C2299 H2294 0.950 . S
C2299 C2301 1.327 . S
C2299 C2305 1.429 . S
C2300 C2292 1.574 . S
C2300 H2295 0.949 . S
C2300 C2306 1.368 . S
C2301 C2285 1.349 . S
C2301 H2293 0.950 . S
C2301 C2299 1.327 . S
C2302 C2290 1.349 . S
C2302 H2296 0.950 . S
C2302 C2303 1.327 . S
C2303 H2297 0.950 . S
C2303 C2302 1.327 . S
C2303 C2307 1.429 . S
C2304 C2287 1.574 . S
C2304 H2298 0.949 . S
C2304 C2308 1.368 . S
C2305 C2286 1.429 . S
C2305 C2299 1.429 . S
C2305 C2306 1.523 . S
C2306 C2287 1.368 . S
C2306 C2300 1.368 . S
C2306 C2305 1.523 . S
C2307 C2291 1.429 . S
C2307 C2303 1.429 . S
C2307 C2308 1.523 . S
C2308 C2292 1.368 . S
C2308 C2304 1.368 . S
C2308 C2307 1.523 . S
H2309 C2284 0.950 . S
H2310 C2286 0.950 . S
H2311 C2287 0.949 . S
H2312 C2289 0.950 . S
H2313 C2291 0.950 . S
C2314 C2315 1.342 . S
C2314 C2316 1.331 1_554 S
C2314 H2339 0.953 1_554 S
C2315 C2314 1.342 . S
C2315 C2331 1.349 . S
C2316 C2314 1.331 1_556 S
C2316 C2335 1.429 . S
C2316 H2340 0.950 . S
C2317 C2334 1.574 . S
C2317 C2336 1.368 . S
C2317 H2341 0.949 1_556 S
H2318 C2322 0.949 1_655 S
C2319 C2320 1.349 . S
C2319 C2321 1.327 . S
C2319 H2342 0.950 . S
C2320 C2319 1.349 . S
C2320 C2332 1.349 1_455 S
C2321 C2319 1.327 . S
C2321 C2337 1.429 . S
C2321 H2343 0.950 . S
C2322 H2318 0.949 1_455 S
C2322 C2330 1.574 . S
C2322 C2338 1.368 . S
H2323 C2331 0.950 . S
H2324 C2329 0.950 . S
H2325 C2330 0.933 1_655 S
H2326 C2332 0.950 . S
H2327 C2333 0.950 . S
H2328 C2334 0.949 . S
C2329 H2324 0.950 . S
C2329 C2331 1.327 . S
C2329 C2335 1.429 1_554 S
C2330 C2322 1.574 . S
C2330 H2325 0.933 1_455 S
C2330 C2336 1.368 . S
C2331 C2315 1.349 . S
C2331 H2323 0.950 . S
C2331 C2329 1.327 . S
C2332 C2320 1.349 1_655 S
C2332 H2326 0.950 . S
C2332 C2333 1.327 . S
C2333 H2327 0.950 . S
C2333 C2332 1.327 . S
C2333 C2337 1.429 1_655 S
C2334 C2317 1.574 . S
C2334 H2328 0.949 . S
C2334 C2338 1.368 . S
C2335 C2316 1.429 . S
C2335 C2329 1.429 1_556 S
C2335 C2336 1.523 . S
C2336 C2317 1.368 . S
C2336 C2330 1.368 . S
C2336 C2335 1.523 . S
C2337 C2321 1.429 . S
C2337 C2333 1.429 1_455 S
C2337 C2338 1.523 . S
C2338 C2322 1.368 . S
C2338 C2334 1.368 . S
C2338 C2337 1.523 . S
H2339 C2314 0.953 1_556 S
H2340 C2316 0.950 . S
H2341 C2317 0.949 1_554 S
H2342 C2319 0.950 . S
H2343 C2321 0.950 . S
C2344 C2345 1.349 . S
C2344 C2346 1.327 . S
C2344 H2369 0.950 . S
C2345 C2344 1.349 . S
C2345 C2361 1.349 . S
C2346 C2344 1.327 . S
C2346 C2365 1.429 . S
C2346 H2370 0.950 . S
C2347 C2364 1.574 . S
C2347 C2366 1.368 . S
C2347 H2371 0.949 . S
H2348 C2352 0.949 . S
C2349 C2350 1.349 . S
C2349 C2351 1.327 . S
C2349 H2372 0.950 . S
C2350 C2349 1.349 . S
C2350 C2362 1.349 . S
C2351 C2349 1.327 . S
C2351 C2367 1.429 . S
C2351 H2373 0.950 . S
C2352 H2348 0.949 . S
C2352 C2360 1.574 . S
C2352 C2368 1.368 . S
H2353 C2361 0.950 . S
H2354 C2359 0.950 . S
H2355 C2360 0.949 . S
H2356 C2362 0.950 . S
H2357 C2363 0.950 . S
H2358 C2364 0.949 . S
C2359 H2354 0.950 . S
C2359 C2361 1.327 . S
C2359 C2365 1.429 . S
C2360 C2352 1.574 . S
C2360 H2355 0.949 . S
C2360 C2366 1.368 . S
C2361 C2345 1.349 . S
C2361 H2353 0.950 . S
C2361 C2359 1.327 . S
C2362 C2350 1.349 . S
C2362 H2356 0.950 . S
C2362 C2363 1.327 . S
C2363 H2357 0.950 . S
C2363 C2362 1.327 . S
C2363 C2367 1.429 . S
C2364 C2347 1.574 . S
C2364 H2358 0.949 . S
C2364 C2368 1.368 . S
C2365 C2346 1.429 . S
C2365 C2359 1.429 . S
C2365 C2366 1.523 . S
C2366 C2347 1.368 . S
C2366 C2360 1.368 . S
C2366 C2365 1.523 . S
C2367 C2351 1.429 . S
C2367 C2363 1.429 . S
C2367 C2368 1.523 . S
C2368 C2352 1.368 . S
C2368 C2364 1.368 . S
C2368 C2367 1.523 . S
H2369 C2344 0.950 . S
H2370 C2346 0.950 . S
H2371 C2347 0.949 . S
H2372 C2349 0.950 . S
H2373 C2351 0.950 . S
C2374 C2375 1.349 . S
C2374 C2376 1.327 1_556 S
C2374 H2399 0.950 . S
C2375 C2374 1.349 . S
C2375 C2391 1.349 1_556 S
C2376 C2374 1.327 1_554 S
C2376 C2395 1.429 . S
C2376 H2400 0.950 . S
C2377 C2394 1.574 . S
C2377 C2396 1.368 . S
C2377 H2401 0.949 . S
H2378 C2382 0.949 . S
C2379 C2380 1.349 . S
C2379 C2381 1.327 . S
C2379 H2402 0.950 . S
C2380 C2379 1.349 . S
C2380 C2392 1.349 . S
C2381 C2379 1.327 . S
C2381 C2397 1.429 . S
C2381 H2403 0.950 . S
C2382 H2378 0.949 . S
C2382 C2390 1.574 . S
C2382 C2398 1.368 . S
H2383 C2391 0.950 . S
H2384 C2389 0.950 . S
H2385 C2390 0.949 . S
H2386 C2392 0.950 . S
H2387 C2393 0.950 . S
H2388 C2394 0.949 . S
C2389 H2384 0.950 . S
C2389 C2391 1.327 . S
C2389 C2395 1.429 . S
C2390 C2382 1.574 . S
C2390 H2385 0.949 . S
C2390 C2396 1.368 . S
C2391 C2375 1.349 1_554 S
C2391 H2383 0.950 . S
C2391 C2389 1.327 . S
C2392 C2380 1.349 . S
C2392 H2386 0.950 . S
C2392 C2393 1.327 . S
C2393 H2387 0.950 . S
C2393 C2392 1.327 . S
C2393 C2397 1.429 . S
C2394 C2377 1.574 . S
C2394 H2388 0.949 . S
C2394 C2398 1.368 . S
C2395 C2376 1.429 . S
C2395 C2389 1.429 . S
C2395 C2396 1.523 . S
C2396 C2377 1.368 . S
C2396 C2390 1.368 . S
C2396 C2395 1.523 . S
C2397 C2381 1.429 . S
C2397 C2393 1.429 . S
C2397 C2398 1.523 . S
C2398 C2382 1.368 . S
C2398 C2394 1.368 . S
C2398 C2397 1.523 . S
H2399 C2374 0.950 . S
H2400 C2376 0.950 . S
H2401 C2377 0.949 . S
H2402 C2379 0.950 . S
H2403 C2381 0.950 . S
C2404 C2405 1.349 . S
C2404 C2406 1.327 . S
C2404 H2429 0.950 . S
C2405 C2404 1.349 . S
C2405 C2421 1.349 . S
C2406 C2404 1.327 . S
C2406 C2425 1.429 . S
C2406 H2430 0.950 . S
C2407 C2424 1.574 . S
C2407 C2426 1.368 . S
C2407 H2431 0.949 . S
H2408 C2412 0.949 . S
C2409 C2410 1.349 . S
C2409 C2411 1.327 . S
C2409 H2432 0.950 . S
C2410 C2409 1.349 . S
C2410 C2422 1.349 . S
C2411 C2409 1.327 . S
C2411 C2427 1.429 . S
C2411 H2433 0.950 . S
C2412 H2408 0.949 . S
C2412 C2420 1.574 . S
C2412 C2428 1.368 . S
H2413 C2421 0.950 . S
H2414 C2419 0.950 . S
H2415 C2420 0.949 . S
H2416 C2422 0.950 . S
H2417 C2423 0.950 . S
H2418 C2424 0.949 . S
C2419 H2414 0.950 . S
C2419 C2421 1.327 . S
C2419 C2425 1.429 . S
C2420 C2412 1.574 . S
C2420 H2415 0.949 . S
C2420 C2426 1.368 . S
C2421 C2405 1.349 . S
C2421 H2413 0.950 . S
C2421 C2419 1.327 . S
C2422 C2410 1.349 . S
C2422 H2416 0.950 . S
C2422 C2423 1.327 . S
C2423 H2417 0.950 . S
C2423 C2422 1.327 . S
C2423 C2427 1.429 . S
C2424 C2407 1.574 . S
C2424 H2418 0.949 . S
C2424 C2428 1.368 . S
C2425 C2406 1.429 . S
C2425 C2419 1.429 . S
C2425 C2426 1.523 . S
C2426 C2407 1.368 . S
C2426 C2420 1.368 . S
C2426 C2425 1.523 . S
C2427 C2411 1.429 . S
C2427 C2423 1.429 . S
C2427 C2428 1.523 . S
C2428 C2412 1.368 . S
C2428 C2424 1.368 . S
C2428 C2427 1.523 . S
H2429 C2404 0.950 . S
H2430 C2406 0.950 . S
H2431 C2407 0.949 . S
H2432 C2409 0.950 . S
H2433 C2411 0.950 . S
C2434 C2435 1.349 . S
C2434 C2436 1.327 . S
C2434 H2459 0.950 . S
C2435 C2434 1.349 . S
C2435 C2451 1.349 . S
C2436 C2434 1.327 . S
C2436 C2455 1.429 . S
C2436 H2460 0.950 . S
C2437 C2454 1.574 . S
C2437 C2456 1.368 . S
C2437 H2461 0.949 . S
H2438 C2442 0.949 . S
C2439 C2440 1.349 . S
C2439 C2441 1.327 . S
C2439 H2462 0.950 . S
C2440 C2439 1.349 . S
C2440 C2452 1.349 . S
C2441 C2439 1.327 . S
C2441 C2457 1.429 . S
C2441 H2463 0.950 . S
C2442 H2438 0.949 . S
C2442 C2450 1.574 . S
C2442 C2458 1.368 . S
H2443 C2451 0.950 . S
H2444 C2449 0.950 . S
H2445 C2450 0.949 . S
H2446 C2452 0.950 . S
H2447 C2453 0.950 . S
H2448 C2454 0.949 . S
C2449 H2444 0.950 . S
C2449 C2451 1.327 . S
C2449 C2455 1.429 . S
C2450 C2442 1.574 . S
C2450 H2445 0.949 . S
C2450 C2456 1.368 . S
C2451 C2435 1.349 . S
C2451 H2443 0.950 . S
C2451 C2449 1.327 . S
C2452 C2440 1.349 . S
C2452 H2446 0.950 . S
C2452 C2453 1.327 . S
C2453 H2447 0.950 . S
C2453 C2452 1.327 . S
C2453 C2457 1.429 . S
C2454 C2437 1.574 . S
C2454 H2448 0.949 . S
C2454 C2458 1.368 . S
C2455 C2436 1.429 . S
C2455 C2449 1.429 . S
C2455 C2456 1.523 . S
C2456 C2437 1.368 . S
C2456 C2450 1.368 . S
C2456 C2455 1.523 . S
C2457 C2441 1.429 . S
C2457 C2453 1.429 . S
C2457 C2458 1.523 . S
C2458 C2442 1.368 . S
C2458 C2454 1.368 . S
C2458 C2457 1.523 . S
H2459 C2434 0.950 . S
H2460 C2436 0.950 . S
H2461 C2437 0.949 . S
H2462 C2439 0.950 . S
H2463 C2441 0.950 . S
C2464 C2465 1.349 . S
C2464 C2466 1.327 . S
C2464 H2489 0.950 . S
C2465 C2464 1.349 . S
C2465 C2481 1.349 . S
C2466 C2464 1.327 . S
C2466 C2485 1.429 . S
C2466 H2490 0.950 . S
C2467 C2484 1.574 . S
C2467 C2486 1.368 . S
C2467 H2491 0.949 . S
H2468 C2472 0.949 . S
C2469 C2470 1.349 . S
C2469 C2471 1.327 . S
C2469 H2492 0.950 . S
C2470 C2469 1.349 . S
C2470 C2482 1.349 . S
C2471 C2469 1.327 . S
C2471 C2487 1.429 . S
C2471 H2493 0.950 . S
C2472 H2468 0.949 . S
C2472 C2480 1.574 . S
C2472 C2488 1.368 . S
H2473 C2481 0.950 . S
H2474 C2479 0.950 . S
H2475 C2480 0.949 . S
H2476 C2482 0.950 . S
H2477 C2483 0.950 . S
H2478 C2484 0.949 . S
C2479 H2474 0.950 . S
C2479 C2481 1.327 . S
C2479 C2485 1.429 . S
C2480 C2472 1.574 . S
C2480 H2475 0.949 . S
C2480 C2486 1.368 . S
C2481 C2465 1.349 . S
C2481 H2473 0.950 . S
C2481 C2479 1.327 . S
C2482 C2470 1.349 . S
C2482 H2476 0.950 . S
C2482 C2483 1.327 . S
C2483 H2477 0.950 . S
C2483 C2482 1.327 . S
C2483 C2487 1.429 . S
C2484 C2467 1.574 . S
C2484 H2478 0.949 . S
C2484 C2488 1.368 . S
C2485 C2466 1.429 . S
C2485 C2479 1.429 . S
C2485 C2486 1.523 . S
C2486 C2467 1.368 . S
C2486 C2480 1.368 . S
C2486 C2485 1.523 . S
C2487 C2471 1.429 . S
C2487 C2483 1.429 . S
C2487 C2488 1.523 . S
C2488 C2472 1.368 . S
C2488 C2484 1.368 . S
C2488 C2487 1.523 . S
H2489 C2464 0.950 . S
H2490 C2466 0.950 . S
H2491 C2467 0.949 . S
H2492 C2469 0.950 . S
H2493 C2471 0.950 . S
C2494 C2495 1.349 . S
C2494 C2496 1.327 . S
C2494 H2519 0.950 . S
C2495 C2494 1.349 . S
C2495 C2511 1.349 . S
C2496 C2494 1.327 . S
C2496 C2515 1.429 . S
C2496 H2520 0.950 . S
C2497 C2514 1.574 . S
C2497 C2516 1.368 . S
C2497 H2521 0.949 . S
H2498 C2502 0.949 . S
C2499 C2500 1.349 . S
C2499 C2501 1.327 . S
C2499 H2522 0.950 . S
C2500 C2499 1.349 . S
C2500 C2512 1.349 . S
C2501 C2499 1.327 . S
C2501 C2517 1.429 . S
C2501 H2523 0.950 . S
C2502 H2498 0.949 . S
C2502 C2510 1.574 . S
C2502 C2518 1.368 . S
H2503 C2511 0.950 . S
H2504 C2509 0.950 . S
H2505 C2510 0.949 . S
H2506 C2512 0.950 . S
H2507 C2513 0.950 . S
H2508 C2514 0.949 . S
C2509 H2504 0.950 . S
C2509 C2511 1.327 . S
C2509 C2515 1.429 . S
C2510 C2502 1.574 . S
C2510 H2505 0.949 . S
C2510 C2516 1.368 . S
C2511 C2495 1.349 . S
C2511 H2503 0.950 . S
C2511 C2509 1.327 . S
C2512 C2500 1.349 . S
C2512 H2506 0.950 . S
C2512 C2513 1.327 . S
C2513 H2507 0.950 . S
C2513 C2512 1.327 . S
C2513 C2517 1.429 . S
C2514 C2497 1.574 . S
C2514 H2508 0.949 . S
C2514 C2518 1.368 . S
C2515 C2496 1.429 . S
C2515 C2509 1.429 . S
C2515 C2516 1.523 . S
C2516 C2497 1.368 . S
C2516 C2510 1.368 . S
C2516 C2515 1.523 . S
C2517 C2501 1.429 . S
C2517 C2513 1.429 . S
C2517 C2518 1.523 . S
C2518 C2502 1.368 . S
C2518 C2514 1.368 . S
C2518 C2517 1.523 . S
H2519 C2494 0.950 . S
H2520 C2496 0.950 . S
H2521 C2497 0.949 . S
H2522 C2499 0.950 . S
H2523 C2501 0.950 . S
C2524 C2525 1.349 . S
C2524 C2526 1.327 . S
C2524 H2549 0.950 . S
C2525 C2524 1.349 . S
C2525 C2541 1.349 . S
C2526 C2524 1.327 . S
C2526 C2545 1.429 . S
C2526 H2550 0.950 . S
C2527 C2544 1.574 . S
C2527 C2546 1.368 . S
C2527 H2551 0.949 . S
H2528 C2532 0.949 . S
C2529 C2530 1.349 . S
C2529 C2531 1.327 . S
C2529 H2552 0.950 . S
C2530 C2529 1.349 . S
C2530 C2542 1.349 . S
C2531 C2529 1.327 . S
C2531 C2547 1.429 . S
C2531 H2553 0.950 . S
C2532 H2528 0.949 . S
C2532 C2540 1.574 . S
C2532 C2548 1.368 . S
H2533 C2541 0.950 . S
H2534 C2539 0.950 . S
H2535 C2540 0.949 . S
H2536 C2542 0.950 . S
H2537 C2543 0.950 . S
H2538 C2544 0.949 . S
C2539 H2534 0.950 . S
C2539 C2541 1.327 . S
C2539 C2545 1.429 . S
C2540 C2532 1.574 . S
C2540 H2535 0.949 . S
C2540 C2546 1.368 . S
C2541 C2525 1.349 . S
C2541 H2533 0.950 . S
C2541 C2539 1.327 . S
C2542 C2530 1.349 . S
C2542 H2536 0.950 . S
C2542 C2543 1.327 . S
C2543 H2537 0.950 . S
C2543 C2542 1.327 . S
C2543 C2547 1.429 . S
C2544 C2527 1.574 . S
C2544 H2538 0.949 . S
C2544 C2548 1.368 . S
C2545 C2526 1.429 . S
C2545 C2539 1.429 . S
C2545 C2546 1.523 . S
C2546 C2527 1.368 . S
C2546 C2540 1.368 . S
C2546 C2545 1.523 . S
C2547 C2531 1.429 . S
C2547 C2543 1.429 . S
C2547 C2548 1.523 . S
C2548 C2532 1.368 . S
C2548 C2544 1.368 . S
C2548 C2547 1.523 . S
H2549 C2524 0.950 . S
H2550 C2526 0.950 . S
H2551 C2527 0.949 . S
H2552 C2529 0.950 . S
H2553 C2531 0.950 . S
C2554 C2555 1.349 . S
C2554 C2556 1.327 . S
C2554 H2579 0.950 . S
C2555 C2554 1.349 . S
C2555 C2571 1.349 . S
C2556 C2554 1.327 . S
C2556 C2575 1.429 . S
C2556 H2580 0.950 . S
C2557 C2574 1.574 . S
C2557 C2576 1.368 . S
C2557 H2581 0.949 . S
H2558 C2562 0.949 . S
C2559 C2560 1.349 . S
C2559 C2561 1.327 . S
C2559 H2582 0.950 . S
C2560 C2559 1.349 . S
C2560 C2572 1.349 . S
C2561 C2559 1.327 . S
C2561 C2577 1.429 . S
C2561 H2583 0.950 . S
C2562 H2558 0.949 . S
C2562 C2570 1.574 . S
C2562 C2578 1.368 . S
H2563 C2571 0.950 . S
H2564 C2569 0.950 . S
H2565 C2570 0.949 . S
H2566 C2572 0.950 . S
H2567 C2573 0.950 . S
H2568 C2574 0.949 . S
C2569 H2564 0.950 . S
C2569 C2571 1.327 . S
C2569 C2575 1.429 . S
C2570 C2562 1.574 . S
C2570 H2565 0.949 . S
C2570 C2576 1.368 . S
C2571 C2555 1.349 . S
C2571 H2563 0.950 . S
C2571 C2569 1.327 . S
C2572 C2560 1.349 . S
C2572 H2566 0.950 . S
C2572 C2573 1.327 . S
C2573 H2567 0.950 . S
C2573 C2572 1.327 . S
C2573 C2577 1.429 . S
C2574 C2557 1.574 . S
C2574 H2568 0.949 . S
C2574 C2578 1.368 . S
C2575 C2556 1.429 . S
C2575 C2569 1.429 . S
C2575 C2576 1.523 . S
C2576 C2557 1.368 . S
C2576 C2570 1.368 . S
C2576 C2575 1.523 . S
C2577 C2561 1.429 . S
C2577 C2573 1.429 . S
C2577 C2578 1.523 . S
C2578 C2562 1.368 . S
C2578 C2574 1.368 . S
C2578 C2577 1.523 . S
H2579 C2554 0.950 . S
H2580 C2556 0.950 . S
H2581 C2557 0.949 . S
H2582 C2559 0.950 . S
H2583 C2561 0.950 . S
C2584 C2585 1.349 . S
C2584 C2586 1.327 . S
C2584 H2609 0.950 . S
C2585 C2584 1.349 . S
C2585 C2601 1.378 . S
C2586 C2584 1.327 . S
C2586 C2605 1.429 . S
C2586 H2610 0.950 . S
C2587 C2604 1.574 . S
C2587 C2606 1.398 . S
C2587 H2611 0.949 . S
H2588 C2592 0.949 . S
C2589 C2590 1.349 . S
C2589 C2591 1.327 . S
C2589 H2612 0.950 . S
C2590 C2589 1.349 . S
C2590 C2602 1.349 . S
C2591 C2589 1.327 . S
C2591 C2607 1.429 . S
C2591 H2613 0.950 . S
C2592 H2588 0.949 . S
C2592 C2600 1.574 . S
C2592 C2608 1.368 1_556 S
H2593 C2601 0.933 1_554 S
H2594 C2599 0.950 . S
H2595 C2600 0.949 . S
H2596 C2602 0.950 . S
H2597 C2603 0.950 1_556 S
H2598 C2604 0.949 . S
C2599 H2594 0.950 . S
C2599 C2601 1.317 1_554 S
C2599 C2605 1.429 1_554 S
C2600 C2592 1.574 . S
C2600 H2595 0.949 . S
C2600 C2606 1.347 1_556 S
C2601 C2585 1.378 . S
C2601 H2593 0.933 1_556 S
C2601 C2599 1.317 1_556 S
C2602 C2590 1.349 . S
C2602 H2596 0.950 . S
C2602 C2603 1.327 . S
C2603 H2597 0.950 1_554 S
C2603 C2602 1.327 . S
C2603 C2607 1.429 . S
C2604 C2587 1.574 . S
C2604 H2598 0.949 . S
C2604 C2608 1.368 . S
C2605 C2586 1.429 . S
C2605 C2599 1.429 1_556 S
C2605 C2606 1.513 1_556 S
C2606 C2587 1.398 . S
C2606 C2600 1.347 1_554 S
C2606 C2605 1.513 1_554 S
C2607 C2591 1.429 . S
C2607 C2603 1.429 . S
C2607 C2608 1.523 . S
C2608 C2592 1.368 1_554 S
C2608 C2604 1.368 . S
C2608 C2607 1.523 . S
H2609 C2584 0.950 . S
H2610 C2586 0.950 . S
H2611 C2587 0.949 . S
H2612 C2589 0.950 . S
H2613 C2591 0.950 . S
C2614 C2615 1.349 . S
C2614 C2616 1.327 . S
C2614 H2639 0.950 . S
C2615 C2614 1.349 . S
C2615 C2631 1.349 . S
C2616 C2614 1.327 . S
C2616 C2635 1.429 . S
C2616 H2640 0.950 . S
C2617 C2634 1.574 . S
C2617 C2636 1.368 . S
C2617 H2641 0.949 . S
H2618 C2622 0.949 . S
C2619 C2620 1.349 . S
C2619 C2621 1.327 . S
C2619 H2642 0.950 . S
C2620 C2619 1.349 . S
C2620 C2632 1.349 . S
C2621 C2619 1.327 . S
C2621 C2637 1.429 . S
C2621 H2643 0.950 . S
C2622 H2618 0.949 . S
C2622 C2630 1.574 . S
C2622 C2638 1.368 . S
H2623 C2631 0.950 . S
H2624 C2629 0.950 . S
H2625 C2630 0.949 . S
H2626 C2632 0.950 . S
H2627 C2633 0.950 . S
H2628 C2634 0.949 . S
C2629 H2624 0.950 . S
C2629 C2631 1.327 . S
C2629 C2635 1.429 . S
C2630 C2622 1.574 . S
C2630 H2625 0.949 . S
C2630 C2636 1.368 . S
C2631 C2615 1.349 . S
C2631 H2623 0.950 . S
C2631 C2629 1.327 . S
C2632 C2620 1.349 . S
C2632 H2626 0.950 . S
C2632 C2633 1.327 . S
C2633 H2627 0.950 . S
C2633 C2632 1.327 . S
C2633 C2637 1.429 . S
C2634 C2617 1.574 . S
C2634 H2628 0.949 . S
C2634 C2638 1.368 . S
C2635 C2616 1.429 . S
C2635 C2629 1.429 . S
C2635 C2636 1.523 . S
C2636 C2617 1.368 . S
C2636 C2630 1.368 . S
C2636 C2635 1.523 . S
C2637 C2621 1.429 . S
C2637 C2633 1.429 . S
C2637 C2638 1.523 . S
C2638 C2622 1.368 . S
C2638 C2634 1.368 . S
C2638 C2637 1.523 . S
H2639 C2614 0.950 . S
H2640 C2616 0.950 . S
H2641 C2617 0.949 . S
H2642 C2619 0.950 . S
H2643 C2621 0.950 . S
C2644 C2645 1.349 . S
C2644 C2646 1.327 . S
C2644 H2669 0.950 . S
C2645 C2644 1.349 . S
C2645 C2661 1.349 . S
C2646 C2644 1.327 . S
C2646 C2665 1.429 . S
C2646 H2670 0.950 . S
C2647 C2664 1.574 . S
C2647 C2666 1.368 . S
C2647 H2671 0.949 . S
H2648 C2652 0.949 . S
C2649 C2650 1.349 . S
C2649 C2651 1.327 . S
C2649 H2672 0.950 . S
C2650 C2649 1.349 . S
C2650 C2662 1.349 . S
C2651 C2649 1.327 . S
C2651 C2667 1.429 . S
C2651 H2673 0.950 . S
C2652 H2648 0.949 . S
C2652 C2660 1.574 . S
C2652 C2668 1.368 . S
H2653 C2661 0.950 . S
H2654 C2659 0.950 . S
H2655 C2660 0.949 . S
H2656 C2662 0.950 . S
H2657 C2663 0.950 . S
H2658 C2664 0.949 . S
C2659 H2654 0.950 . S
C2659 C2661 1.327 . S
C2659 C2665 1.429 . S
C2660 C2652 1.574 . S
C2660 H2655 0.949 . S
C2660 C2666 1.368 . S
C2661 C2645 1.349 . S
C2661 H2653 0.950 . S
C2661 C2659 1.327 . S
C2662 C2650 1.349 . S
C2662 H2656 0.950 . S
C2662 C2663 1.327 . S
C2663 H2657 0.950 . S
C2663 C2662 1.327 . S
C2663 C2667 1.429 . S
C2664 C2647 1.574 . S
C2664 H2658 0.949 . S
C2664 C2668 1.368 . S
C2665 C2646 1.429 . S
C2665 C2659 1.429 . S
C2665 C2666 1.523 . S
C2666 C2647 1.368 . S
C2666 C2660 1.368 . S
C2666 C2665 1.523 . S
C2667 C2651 1.429 . S
C2667 C2663 1.429 . S
C2667 C2668 1.523 . S
C2668 C2652 1.368 . S
C2668 C2664 1.368 . S
C2668 C2667 1.523 . S
H2669 C2644 0.950 . S
H2670 C2646 0.950 . S
H2671 C2647 0.949 . S
H2672 C2649 0.950 . S
H2673 C2651 0.950 . S
C2674 C2675 1.338 1_545 S
C2674 C2676 1.341 . S
C2674 H2699 0.950 . S
C2675 C2674 1.338 1_565 S
C2675 C2691 1.380 . S
C2676 C2674 1.341 . S
C2676 C2695 1.407 1_545 S
C2676 H2700 0.959 . S
C2677 C2694 1.574 . S
C2677 C2696 1.368 . S
C2677 H2701 0.949 . S
H2678 C2682 0.949 1_556 S
C2679 C2680 1.349 . S
C2679 C2681 1.327 . S
C2679 H2702 0.950 . S
C2680 C2679 1.349 . S
C2680 C2692 1.349 1_554 S
C2681 C2679 1.327 . S
C2681 C2697 1.429 . S
C2681 H2703 0.950 . S
C2682 H2678 0.949 1_554 S
C2682 C2690 1.574 . S
C2682 C2698 1.368 . S
H2683 C2691 0.950 . S
H2684 C2689 0.950 . S
H2685 C2690 0.949 . S
H2686 C2692 0.950 . S
H2687 C2693 0.960 . S
H2688 C2694 0.949 . S
C2689 H2684 0.950 . S
C2689 C2691 1.327 . S
C2689 C2695 1.429 . S
C2690 C2682 1.574 . S
C2690 H2685 0.949 . S
C2690 C2696 1.368 . S
C2691 C2675 1.380 . S
C2691 H2683 0.950 . S
C2691 C2689 1.327 . S
C2692 C2680 1.349 1_556 S
C2692 H2686 0.950 . S
C2692 C2693 1.333 . S
C2693 H2687 0.960 . S
C2693 C2692 1.333 . S
C2693 C2697 1.413 1_556 S
C2694 C2677 1.574 . S
C2694 H2688 0.949 . S
C2694 C2698 1.368 . S
C2695 C2676 1.407 1_565 S
C2695 C2689 1.429 . S
C2695 C2696 1.523 . S
C2696 C2677 1.368 . S
C2696 C2690 1.368 . S
C2696 C2695 1.523 . S
C2697 C2681 1.429 . S
C2697 C2693 1.413 1_554 S
C2697 C2698 1.523 . S
C2698 C2682 1.368 . S
C2698 C2694 1.368 . S
C2698 C2697 1.523 . S
H2699 C2674 0.950 . S
H2700 C2676 0.959 . S
H2701 C2677 0.949 . S
H2702 C2679 0.950 . S
H2703 C2681 0.950 . S
C1270 C257 1.910 . S
C1265 C73 1.911 . S
C1300 C316 1.197 . S
C1295 C82 1.147 . S
C1325 C100 1.935 . S
C1330 C433 1.932 . S
C1360 C501 1.267 . S
C1355 C56 1.236 . S
C1390 C580 1.321 . S
C1385 C134 1.293 . S
C1420 C705 1.881 . S
C1415 C165 1.866 . S
C1445 C147 1.076 . S
C1450 C765 1.105 . S
C1480 C873 1.901 . S
C1475 C125 1.903 . S
C1505 C151 1.381 . S
C1510 C969 1.382 . S
C1540 C1029 1.414 . S
C1535 C121 1.370 . S
C1565 C139 1.894 . S
C1570 C932 1.901 . S
C1600 C1049 1.205 . S
C1595 C164 1.205 . S
C1625 C95 1.230 . S
C1630 C1117 1.278 . S
C1655 C61 1.508 . S
C1660 C1108 1.518 . S
C1685 C74 1.394 . S
C1690 C1137 1.400 . S
C1715 C86 1.864 . S
C1720 C1145 1.865 . S
C1745 C47 1.352 . S
C1750 C529 1.351 . S
C1775 C186 1.243 . S
C1780 C492 1.289 . S
C1810 C228 1.516 . S
C1805 C204 1.518 . S
C1840 C325 1.994 . S
C1835 C112 1.998 . S
C1865 C60 1.354 . S
C1870 C589 1.338 . S
C1900 C881 1.419 . S
C1895 C152 1.409 . S
C1930 C609 2.058 . S
C1925 C126 2.052 . S
C1960 C793 1.221 . S
C1955 C160 1.209 . S
C1990 C785 1.910 . S
C1985 C190 1.911 . S
C2015 C199 1.147 . S
C2020 C853 1.196 . S
C2045 C113 1.935 . S
C2050 C617 1.932 . S
C2080 C668 1.267 . S
C2075 C173 1.236 . S
C2105 C43 1.292 . S
C2110 C413 1.320 . S
C2140 C521 1.881 . S
C2135 C9 1.866 . S
C2170 C237 1.105 . S
C2165 C17 1.076 . S
C2200 C353 1.901 . S
C2195 C34 1.902 1_455 S
C2225 C21 1.381 . S
C2230 C1057 1.382 . S
C2255 C30 1.370 . S
C2260 C941 1.414 . S
C2285 C48 1.894 . S
C2290 C1020 1.901 . S
C2315 C8 1.205 . S
C2320 C961 1.205 . S
C2350 C1205 1.278 . S
C2345 C108 1.230 . S
C2380 C1196 1.518 . S
C2375 C178 1.508 . S
C2410 C1225 1.400 . S
C2405 C191 1.394 . S
C2435 C203 1.864 . S
C2440 C1233 1.865 . S
C2465 C138 1.352 . S
C2470 C697 1.351 . S
C2500 C677 1.290 . S
C2495 C69 1.243 . S
C2530 C756 1.516 . S
C2525 C87 1.518 . S
C2560 C844 1.994 . S
C2555 C99 2.000 . S
C2585 C177 1.341 . S
C2590 C404 1.338 . S
C2620 C345 1.419 . S
C2615 C22 1.411 . S
C2645 C35 2.052 . S
C2650 C441 2.058 . S
C2680 C265 1.220 . S
C2675 C4 1.196 1_565 S
