# Generated by pormake.
# Topology pth, (4,4)-cn, num edge types: 1
# Building blocks:
#     Node 0, Type 0, BuildingBlock: QUQFOY_clean_sbu_3, # of connection points: 4
#     Node 1, Type 0, BuildingBlock: QUQFOY_clean_sbu_3, # of connection points: 4
#     Node 2, Type 0, BuildingBlock: QUQFOY_clean_sbu_3, # of connection points: 4
#     Node 3, Type 1, BuildingBlock: MUDLON_clean_linker_0, # of connection points: 4
#     Node 4, Type 1, BuildingBlock: MUDLON_clean_linker_0, # of connection points: 4
#     Node 5, Type 1, BuildingBlock: MUDLON_clean_linker_0, # of connection points: 4
#     Edge 6, Type (0, 1), BuildingBlock: OJICUG_clean_linker_0, # of connection points: 2
#     Edge 7, Type (0, 1), BuildingBlock: OJICUG_clean_linker_0, # of connection points: 2
#     Edge 8, Type (0, 1), BuildingBlock: OJICUG_clean_linker_0, # of connection points: 2
#     Edge 9, Type (0, 1), BuildingBlock: OJICUG_clean_linker_0, # of connection points: 2
#     Edge 10, Type (0, 1), BuildingBlock: OJICUG_clean_linker_0, # of connection points: 2
#     Edge 11, Type (0, 1), BuildingBlock: OJICUG_clean_linker_0, # of connection points: 2
#     Edge 12, Type (0, 1), BuildingBlock: OJICUG_clean_linker_0, # of connection points: 2
#     Edge 13, Type (0, 1), BuildingBlock: OJICUG_clean_linker_0, # of connection points: 2
#     Edge 14, Type (0, 1), BuildingBlock: OJICUG_clean_linker_0, # of connection points: 2
#     Edge 15, Type (0, 1), BuildingBlock: OJICUG_clean_linker_0, # of connection points: 2
#     Edge 16, Type (0, 1), BuildingBlock: OJICUG_clean_linker_0, # of connection points: 2
#     Edge 17, Type (0, 1), BuildingBlock: OJICUG_clean_linker_0, # of connection points: 2
# Relax obj value: 0.040
# Max RMSD: 0.099
# Mean RMSD: 0.090
data_MOF--net-pth--node1-QUQFOY_clean_sbu_3--node2-MUDLON_clean_linker_0--edge1-OJICUG_clean_linker_0
_symmetry_space_group_name_H-M    P1
_symmetry_Int_Tables_number       1
_symmetry_cell_setting            triclinic
loop_
_symmetry_equiv_pos_as_xyz
'x, y, z'
_cell_length_a     27.183185
_cell_length_b     27.033173
_cell_length_c     56.408187
_cell_angle_alpha  90.031771
_cell_angle_beta   90.76275
_cell_angle_gamma 120.8009
loop_
_atom_site_label
_atom_site_type_symbol
_atom_site_fract_x
_atom_site_fract_y
_atom_site_fract_z
_atom_type_partial_charge
C0 C 0.95486 0.12376 0.06228 0.0
O1 O 0.91805 0.12177 0.04766 0.0
Cd2 Cd 0.90694 0.07558 0.00983 0.0
O3 O 0.97755 0.09324 0.05906 0.0
Cd4 Cd 0.96734 0.01475 0.03307 0.0
C5 C 0.04776 0.12092 -0.00437 0.0
O6 O 0.87199 0.97498 0.01441 0.0
O7 O 0.93202 0.95638 -0.00236 0.0
O8 O 0.93514 0.94985 0.06624 0.0
C9 C 0.88197 0.94877 -0.00184 0.0
O10 O 0.00269 0.12377 0.99269 0.0
C11 C 0.97517 0.93873 0.06592 0.0
O12 O 0.04864 0.08506 0.01004 0.0
O13 O 0.01319 0.96387 0.05022 0.0
C14 C 0.15171 0.0509 0.39454 0.0
O15 O 0.18519 0.08585 0.37921 0.0
Cd16 Cd 0.14775 0.10621 0.34393 0.0
O17 O 0.09801 0.03059 0.3927 0.0
Cd18 Cd 0.02672 0.03807 0.36799 0.0
C19 C 0.05067 0.96626 0.32576 0.0
O20 O 0.08035 0.13604 0.35173 0.0
O21 O 0.00147 0.07386 0.33384 0.0
O22 O -0.00237 0.0661 0.40308 0.0
C23 C 0.04316 0.12526 0.33548 0.0
O24 O 0.09697 0.01428 0.32311 0.0
C25 C 0.94528 0.02662 0.40223 0.0
O26 O 0.01605 0.95967 0.34221 0.0
O27 O 0.92976 0.99028 0.38527 0.0
C28 C 0.94949 0.07627 0.67074 0.0
O29 O 0.9585 0.11004 0.68806 0.0
Cd30 Cd 0.00877 0.1107 0.7238 0.0
O31 O 0.96959 0.04286 0.67121 0.0
Cd32 Cd 0.02814 0.01865 0.69697 0.0
C33 C 0.92664 0.96724 0.73855 0.0
O34 O 0.09497 0.11166 0.71546 0.0
O35 O 0.08612 0.03573 0.73239 0.0
O36 O 0.09422 0.03529 0.66586 0.0
C37 C 0.11161 0.09026 0.73151 0.0
O38 O 0.946 0.02016 0.74339 0.0
C39 C 0.0842 0.98417 0.66418 0.0
O40 O 0.94463 0.95202 0.7208 0.0
O41 O 0.04584 0.94676 0.67755 0.0
H42 H 0.89146 0.69837 0.21813 0.0
N43 N 0.96682 0.68213 0.19516 0.0
H44 H 0.90966 0.76206 0.25223 0.0
H45 H 0.06764 0.74116 0.22085 0.0
H46 H 0.08537 0.80234 0.25518 0.0
H47 H 0.06081 0.78336 0.18107 0.0
H48 H 0.06465 0.84185 0.14739 0.0
H49 H 0.88773 0.65418 0.1615 0.0
H50 H 0.89136 0.71239 0.12755 0.0
H51 H 0.9061 0.57169 0.20605 0.0
H52 H 0.07339 0.70264 0.18303 0.0
H53 H 0.93816 0.50228 0.20784 0.0
H54 H 0.10689 0.63489 0.18605 0.0
H55 H 0.99275 0.30794 0.22019 0.0
H56 H 0.98002 0.24797 0.25443 0.0
H57 H 0.1632 0.34281 0.26724 0.0
H58 H 0.17487 0.40486 0.23355 0.0
H59 H 0.14489 0.34345 0.18247 0.0
H60 H 0.10982 0.2758 0.14935 0.0
H61 H 0.96179 0.29551 0.14272 0.0
H62 H -0.00577 0.35773 0.17745 0.0
H63 H 0.02383 0.40914 0.23413 0.0
H64 H -0.00364 0.4805 0.23128 0.0
H65 H 0.10192 0.55233 0.16959 0.0
N66 N 0.09418 0.39384 0.20301 0.0
H67 H 0.13202 0.48164 0.17315 0.0
C68 C 0.97782 0.71472 0.21685 0.0
C69 C 0.93364 0.72048 0.2264 0.0
C70 C 0.94406 0.75658 0.24594 0.0
C71 C -0.0009 0.78762 0.25632 0.0
C72 C 0.04272 0.77982 0.24735 0.0
C73 C 0.03241 0.74422 0.22773 0.0
C74 C 0.97362 0.71426 0.17384 0.0
C75 C 0.02403 0.76691 0.16925 0.0
C76 C 0.02626 0.80035 0.14992 0.0
C77 C 0.97813 0.78195 0.13496 0.0
C78 C 0.92885 0.72806 0.13898 0.0
C79 C 0.92676 0.69463 0.15822 0.0
C80 C 0.9871 0.64225 0.19458 0.0
C81 C 0.94979 0.58539 0.20143 0.0
C82 C 0.9685 0.54606 0.2027 0.0
C83 C 0.02549 0.56309 0.19744 0.0
C84 C 0.06263 0.62 0.19005 0.0
C85 C 0.04354 0.65908 0.18846 0.0
C86 C 0.08491 0.36121 0.22445 0.0
C87 C 0.03002 0.3164 0.23063 0.0
C88 C 0.02295 0.28179 0.25012 0.0
C89 C 0.07068 0.28993 0.2635 0.0
C90 C 0.12539 0.33565 0.25758 0.0
C91 C 0.13227 0.37101 0.23828 0.0
C92 C 0.07318 0.35674 0.18225 0.0
C93 C 0.10489 0.33301 0.17379 0.0
C94 C 0.0848 0.29464 0.15461 0.0
C95 C 0.033 0.28022 0.14284 0.0
C96 C 0.00131 0.3044 0.15134 0.0
C97 C 0.02047 0.34118 0.17108 0.0
C98 C 0.07996 0.43882 0.20351 0.0
C99 C 0.04173 0.4398 0.21993 0.0
C100 C 0.02539 0.4809 0.21821 0.0
C101 C 0.04592 0.52167 0.19993 0.0
C102 C 0.0854 0.52191 0.18401 0.0
C103 C 0.10253 0.48134 0.18595 0.0
H104 H 0.77107 0.14011 0.55582 0.0
N105 N 0.70498 0.04615 0.53009 0.0
H106 H 0.83033 0.14916 0.59055 0.0
H107 H 0.7067 0.95771 0.55283 0.0
H108 H 0.76415 0.96582 0.58773 0.0
H109 H 0.69047 0.94584 0.51133 0.0
H110 H 0.74447 0.93838 0.47856 0.0
H111 H 0.77326 0.12904 0.50099 0.0
H112 H 0.82641 0.12192 0.46781 0.0
H113 H 0.65526 0.1077 0.52461 0.0
H114 H 0.61834 0.93498 0.53743 0.0
H115 H 0.55314 0.07456 0.52645 0.0
H116 H 0.51639 0.90155 0.53993 0.0
H117 H 0.28772 0.01426 0.54499 0.0
H118 H 0.23902 0.02636 0.57793 0.0
H119 H 0.18498 0.85383 0.60139 0.0
H120 H 0.23201 0.84085 0.56706 0.0
H121 H 0.19515 0.85293 0.50581 0.0
H122 H 0.16343 0.88367 0.47091 0.0
H123 H 0.31674 0.0518 0.476 0.0
H124 H 0.34852 0.02061 0.51027 0.0
H125 H 0.37726 0.01232 0.55447 0.0
H126 H 0.47753 0.0403 0.55486 0.0
H127 H 0.43523 0.88599 0.51546 0.0
N128 N 0.28809 0.91604 0.53267 0.0
H129 H 0.33387 0.85712 0.51577 0.0
C130 C 0.7344 0.04846 0.55181 0.0
C131 C 0.76901 0.10193 0.56296 0.0
C132 C 0.80264 0.10691 0.5828 0.0
C133 C 0.80223 0.05824 0.59185 0.0
C134 C 0.76617 0.00431 0.58099 0.0
C135 C 0.73269 -0.00054 0.56112 0.0
C136 C 0.72843 0.03833 0.50871 0.0
C137 C 0.71939 0.9843 0.50174 0.0
C138 C 0.75011 0.98002 0.4829 0.0
C139 C 0.79031 0.02969 0.47084 0.0
C140 C 0.79657 0.08303 0.47705 0.0
C141 C 0.76601 0.08719 0.49583 0.0
C142 C 0.64443 0.02409 0.5309 0.0
C143 C 0.62498 0.06264 0.52789 0.0
C144 C 0.56672 0.04365 0.52916 0.0
C145 C 0.52655 0.98543 0.53357 0.0
C146 C 0.54613 0.94658 0.53636 0.0
C147 C 0.60459 0.96572 0.53503 0.0
C148 C 0.2632 0.92613 0.55329 0.0
C149 C 0.26543 0.97873 0.55703 0.0
C150 C 0.2379 0.98589 0.57622 0.0
C151 C 0.20817 0.9412 0.59253 0.0
C152 C 0.20686 0.88895 0.58906 0.0
C153 C 0.23409 0.88159 0.5696 0.0
C154 C 0.27408 0.93398 0.5107 0.0
C155 C 0.22223 0.89605 0.4991 0.0
C156 C 0.20402 0.91391 0.47933 0.0
C157 C 0.23737 0.9704 0.47078 0.0
C158 C 0.29031 0.00784 0.48193 0.0
C159 C 0.30853 0.98991 0.50165 0.0
C160 C 0.34746 0.93201 0.53516 0.0
C161 C 0.38894 0.98374 0.54626 0.0
C162 C 0.44671 0.00017 0.54624 0.0
C163 C 0.46457 0.96567 0.53501 0.0
C164 C 0.42295 0.91332 0.52447 0.0
C165 C 0.36507 0.89681 0.52457 0.0
H166 H 0.65281 0.84404 0.87648 0.0
N167 N 0.62997 0.74382 0.85774 0.0
H168 H 0.70849 0.89083 0.9127 0.0
H169 H 0.6711 0.69716 0.88986 0.0
H170 H 0.7257 0.743 0.92606 0.0
H171 H 0.73155 0.7451 0.85427 0.0
H172 H 0.80217 0.7908 0.82325 0.0
H173 H 0.6175 0.78598 0.81685 0.0
H174 H 0.68804 0.83019 0.78509 0.0
H175 H 0.52934 0.69663 0.87884 0.0
H176 H 0.63548 0.65232 0.83852 0.0
H177 H 0.45974 0.59473 0.88406 0.0
H178 H 0.56451 0.55137 0.84193 0.0
H179 H 0.23922 0.31201 0.87581 0.0
H180 H 0.17305 0.26861 0.90807 0.0
H181 H 0.29768 0.24381 0.9463 0.0
H182 H 0.36317 0.2852 0.91298 0.0
H183 H 0.34459 0.23084 0.85406 0.0
H184 H 0.29637 0.17686 0.8178 0.0
H185 H 0.23672 0.29491 0.8039 0.0
H186 H 0.28657 0.34935 0.83915 0.0
H187 H 0.3206 0.40889 0.87215 0.0
H188 H 0.38889 0.51069 0.86704 0.0
H189 H 0.52723 0.47525 0.86761 0.0
N190 N 0.3445 0.32163 0.87198 0.0
H191 H 0.45742 0.37252 0.87055 0.0
C192 C 0.65784 0.76738 0.88039 0.0
C193 C 0.668 0.82158 0.88745 0.0
C194 C 0.69951 0.84802 0.90816 0.0
C195 C 0.72169 0.82066 0.92213 0.0
C196 C 0.70974 0.76542 0.9155 0.0
C197 C 0.67819 0.73901 0.89486 0.0
C198 C 0.66945 0.76343 0.83822 0.0
C199 C 0.72128 0.76335 0.83933 0.0
C200 C 0.76152 0.78896 0.82147 0.0
C201 C 0.75035 0.81391 0.80192 0.0
C202 C 0.69727 0.81075 0.79997 0.0
C203 C 0.65725 0.7859 0.81808 0.0
C204 C 0.58774 0.68289 0.85828 0.0
C205 C 0.53706 0.66497 0.8707 0.0
C206 C 0.4971 0.60653 0.87353 0.0
C207 C 0.50623 0.56426 0.86348 0.0
C208 C 0.55639 0.58231 0.85046 0.0
C209 C 0.59704 0.64074 0.84817 0.0
C210 C 0.30622 0.30121 0.8918 0.0
C211 C 0.25272 0.29754 0.89105 0.0
C212 C 0.21486 0.27306 0.90978 0.0
C213 C 0.22978 0.25243 0.92988 0.0
C214 C 0.28426 0.25824 0.93096 0.0
C215 C 0.32193 0.28226 0.91205 0.0
C216 C 0.31926 0.29394 0.84954 0.0
C217 C 0.32176 0.24536 0.84292 0.0
C218 C 0.29381 0.2144 0.82231 0.0
C219 C 0.26224 0.23126 0.80796 0.0
C220 C 0.26123 0.28104 0.81427 0.0
C221 C 0.2896 0.31219 0.83473 0.0
C222 C 0.38394 0.38283 0.87121 0.0
C223 C 0.36548 0.42282 0.87086 0.0
C224 C 0.40497 0.4815 0.86826 0.0
C225 C 0.46397 0.50174 0.86666 0.0
C226 C 0.48223 0.46154 0.86803 0.0
C227 C 0.44253 0.40279 0.87002 0.0
C228 C 0.93445 0.16813 0.09681 0.0
C229 C 0.97395 0.16368 0.08263 0.0
H230 H 0.92136 0.20556 0.12759 0.0
C231 C 0.03256 0.1978 0.08798 0.0
H232 H 0.88893 0.1418 0.09303 0.0
C233 C 0.05162 0.23634 0.10708 0.0
C234 C 0.01234 0.24019 0.1219 0.0
H235 H 0.06383 0.19554 0.07703 0.0
H236 H 0.09735 0.26345 0.10994 0.0
C237 C 0.95333 0.20523 0.11649 0.0
C238 C 0.84635 0.98259 0.41924 0.0
C239 C 0.90487 0.02508 0.41996 0.0
H240 H 0.76378 0.95073 0.43476 0.0
C241 C 0.92505 0.06794 0.43766 0.0
H242 H 0.82956 0.949 0.4058 0.0
C243 C 0.88772 0.06899 0.45403 0.0
C244 C 0.8291 0.02721 0.45321 0.0
H245 H 0.96988 0.10118 0.43884 0.0
H246 H 0.905 0.10246 0.46754 0.0
C247 C 0.80878 0.98352 0.4358 0.0
C248 C 0.88958 0.93472 0.77893 0.0
C249 C 0.88349 0.92401 0.7544 0.0
H250 H 0.85234 0.90727 0.8131 0.0
C251 C 0.83428 0.87477 0.74545 0.0
H252 H 0.92719 0.97243 0.78622 0.0
C253 C 0.79063 0.83813 0.76086 0.0
C254 C 0.79673 0.84953 0.78537 0.0
H255 H 0.82856 0.86605 0.72656 0.0
H256 H 0.75207 0.80131 0.75368 0.0
C257 C 0.84695 0.89749 0.79428 0.0
C258 C 0.02391 0.89061 0.085 0.0
C259 C 0.97642 0.89796 0.08305 0.0
H260 H 0.06173 0.84782 0.10295 0.0
C261 C 0.92943 0.866 0.09785 0.0
H262 H 0.06072 0.91462 0.07381 0.0
C263 C 0.92988 0.82779 0.11431 0.0
C264 C 0.97745 0.82074 0.11651 0.0
H265 H 0.89214 0.87058 0.09681 0.0
H266 H 0.89334 0.80467 0.12573 0.0
C267 C 0.02455 0.85255 0.10169 0.0
C268 C 0.23244 0.04783 0.41534 0.0
C269 C 0.17441 0.03177 0.41426 0.0
H270 H 0.29765 0.04014 0.43372 0.0
C271 C 0.13746 -0.00456 0.43187 0.0
H272 H 0.26198 0.07547 0.40199 0.0
C273 C 0.15791 0.97544 0.45006 0.0
C274 C 0.2158 0.99107 0.45108 0.0
H275 H 0.09254 0.98233 0.43166 0.0
H276 H 0.1284 0.94831 0.46353 0.0
C277 C 0.2529 0.02765 0.43355 0.0
C278 C 0.16133 0.10091 0.77036 0.0
C279 C 0.15336 0.12649 0.75015 0.0
H280 H 0.20086 0.11367 0.80455 0.0
C281 C 0.18407 0.18676 0.74838 0.0
H282 H 0.13817 0.05453 0.77228 0.0
C283 C 0.22098 0.22082 0.76676 0.0
C284 C 0.2275 0.19531 0.78739 0.0
H285 H 0.17917 0.20767 0.73291 0.0
H286 H 0.244 0.26719 0.76488 0.0
C287 C 0.19772 0.13489 0.78881 0.0
C288 C 0.90522 0.03771 0.63073 0.0
C289 C 0.9135 0.07367 0.65026 0.0
H290 H 0.86447 0.00531 0.59698 0.0
C291 C 0.8855 0.1053 0.6503 0.0
H292 H 0.9263 0.01291 0.63004 0.0
C293 C 0.84945 0.10044 0.63137 0.0
C294 C 0.84066 0.06389 0.61199 0.0
H295 H 0.89074 0.13323 0.66509 0.0
H296 H 0.82766 0.12455 0.63212 0.0
C297 C 0.86934 0.03295 0.61184 0.0
C298 C 0.85025 0.88114 0.96366 0.0
C299 C 0.83896 0.9138 0.97967 0.0
H300 H 0.82228 0.82655 0.933 0.0
C301 C 0.7876 0.91412 0.9772 0.0
H302 H 0.88943 0.87998 0.96508 0.0
C303 C 0.74892 0.88331 0.9587 0.0
C304 C 0.7607 0.85123 0.94253 0.0
H305 H 0.7778 0.93896 0.98927 0.0
H306 H 0.70987 0.88463 0.95701 0.0
C307 C 0.81156 0.85015 0.94535 0.0
C308 C 0.07628 0.92769 0.2909 0.0
C309 C 0.03743 0.91877 0.30894 0.0
H310 H 0.09424 0.89417 0.26017 0.0
C311 C 0.98609 0.8653 0.31007 0.0
H312 H 0.1162 0.96832 0.28937 0.0
C313 C 0.97369 0.82209 0.29325 0.0
C314 C 0.01247 0.83157 0.27506 0.0
H315 H 0.95529 0.85703 0.32375 0.0
H316 H 0.93382 0.78132 0.29448 0.0
C317 C 0.06391 0.88483 0.27419 0.0
C318 C 0.17144 0.01434 0.6406 0.0
C319 C 0.11698 0.9704 0.6475 0.0
H320 H 0.24385 0.03895 0.61889 0.0
C321 C 0.09422 0.91507 0.63765 0.0
H322 H 0.19055 0.05718 0.64824 0.0
C323 C 0.12435 0.90481 0.62022 0.0
C324 C 0.17812 0.94955 0.61266 0.0
H325 H 0.05229 0.88043 0.64272 0.0
H326 H 0.10454 0.86248 0.61208 0.0
C327 C 0.20187 0.00391 0.62364 0.0
C328 C 0.13878 0.14198 0.97615 0.0
C329 C 0.09831 0.15799 0.98111 0.0
H330 H 0.21121 0.15831 0.9557 0.0
C331 C 0.10436 0.208 0.97074 0.0
H332 H 0.13508 0.10351 0.98382 0.0
C333 C 0.14862 0.24013 0.95501 0.0
C334 C 0.18735 0.22246 0.94894 0.0
H335 H 0.07429 0.22192 0.97449 0.0
H336 H 0.15177 0.27829 0.94729 0.0
C337 C 0.18262 0.17365 0.9601 0.0
C338 C 0.01594 0.15028 0.29698 0.0
C339 C 0.05031 0.16834 0.31763 0.0
H340 H -0.00341 0.17365 0.26361 0.0
C341 C 0.09138 0.22702 0.32065 0.0
H342 H 0.98427 0.10526 0.29398 0.0
C343 C 0.09771 0.26687 0.30329 0.0
C344 C 0.06346 0.24863 0.28251 0.0
H345 H 0.11836 0.24215 0.33643 0.0
H346 H 0.12914 0.31194 0.30625 0.0
C347 C 0.02272 0.18974 0.27959 0.0
loop_
_geom_bond_atom_site_label_1
_geom_bond_atom_site_label_2
_geom_bond_distance
_geom_bond_site_symmetry_2
_ccdc_geom_bond_type
C0 O1 1.306 1_455 S
C0 O3 1.160 . S
O1 C0 1.306 1_655 S
O1 Cd2 2.228 . S
Cd2 O1 2.228 . S
Cd2 O6 2.273 1_545 S
Cd2 O10 2.277 1_655 S
O3 C0 1.160 . S
O3 Cd4 2.203 . S
Cd4 O3 2.203 . S
Cd4 O6 2.411 1_445 S
Cd4 O7 2.333 1_445 S
Cd4 O8 2.352 1_445 S
Cd4 O12 2.277 . S
Cd4 O13 2.356 1_545 S
C5 O10 1.209 . S
C5 O12 1.226 . S
O6 Cd2 2.273 1_565 S
O6 Cd4 2.411 1_665 S
O6 C9 1.320 . S
O7 Cd4 2.333 1_665 S
O7 C9 1.214 . S
O8 Cd4 2.352 1_665 S
O8 C11 1.258 1_655 S
C9 O6 1.320 . S
C9 O7 1.214 . S
O10 Cd2 2.277 1_455 S
O10 C5 1.209 . S
C11 O8 1.258 1_455 S
C11 O13 1.282 . S
O12 Cd4 2.277 . S
O12 C5 1.226 . S
O13 Cd4 2.356 1_565 S
O13 C11 1.282 . S
C14 O15 1.306 . S
C14 O17 1.160 1_545 S
O15 C14 1.306 . S
O15 Cd16 2.228 . S
Cd16 O15 2.228 . S
Cd16 O20 2.273 . S
Cd16 O24 2.277 1_545 S
O17 C14 1.160 1_565 S
O17 Cd18 2.203 1_465 S
Cd18 O17 2.203 1_645 S
Cd18 O20 2.411 1_655 S
Cd18 O21 2.333 . S
Cd18 O22 2.352 . S
Cd18 O26 2.277 1_545 S
Cd18 O27 2.356 1_545 S
C19 O24 1.209 . S
C19 O26 1.226 1_455 S
O20 Cd16 2.273 . S
O20 Cd18 2.411 1_455 S
O20 C23 1.320 . S
O21 Cd18 2.333 . S
O21 C23 1.214 1_655 S
O22 Cd18 2.352 . S
O22 C25 1.258 . S
C23 O20 1.320 . S
C23 O21 1.214 1_455 S
O24 Cd16 2.277 1_565 S
O24 C19 1.209 . S
C25 O22 1.258 . S
C25 O27 1.282 1_545 S
O26 Cd18 2.277 1_565 S
O26 C19 1.226 1_655 S
O27 Cd18 2.356 1_565 S
O27 C25 1.282 1_565 S
C28 O29 1.306 . S
C28 O31 1.160 1_545 S
O29 C28 1.306 . S
O29 Cd30 2.228 . S
Cd30 O29 2.228 . S
Cd30 O34 2.273 1_655 S
Cd30 O38 2.277 1_545 S
O31 C28 1.160 1_565 S
O31 Cd32 2.203 1_665 S
Cd32 O31 2.203 1_445 S
Cd32 O34 2.411 . S
Cd32 O35 2.333 . S
Cd32 O36 2.352 . S
Cd32 O40 2.277 1_445 S
Cd32 O41 2.356 1_545 S
C33 O38 1.209 . S
C33 O40 1.226 . S
O34 Cd30 2.273 1_455 S
O34 Cd32 2.411 . S
O34 C37 1.320 . S
O35 Cd32 2.333 . S
O35 C37 1.214 . S
O36 Cd32 2.352 . S
O36 C39 1.258 . S
C37 O34 1.320 . S
C37 O35 1.214 . S
O38 Cd30 2.277 1_565 S
O38 C33 1.209 . S
C39 O36 1.258 . S
C39 O41 1.282 1_545 S
O40 Cd32 2.277 1_665 S
O40 C33 1.226 . S
O41 Cd32 2.356 1_565 S
O41 C39 1.282 1_565 S
H42 C69 0.929 . S
N43 C68 1.433 . S
N43 C74 1.435 . S
N43 C80 1.423 . S
H44 C70 0.930 . S
H45 C73 0.931 . S
H46 C72 0.929 . S
H47 C75 0.930 . S
H48 C76 0.932 . S
H49 C79 0.929 . S
H50 C78 0.931 . S
H51 C81 0.929 . S
H52 C85 0.932 . S
H53 C82 0.931 . S
H54 C84 0.929 . S
H55 C87 0.929 . S
H56 C88 0.930 . S
H57 C90 0.929 . S
H58 C91 0.931 . S
H59 C93 0.930 . S
H60 C94 0.932 . S
H61 C96 0.931 . S
H62 C97 0.929 . S
H63 C99 0.929 . S
H64 C100 0.931 . S
H65 C102 0.929 . S
N66 C86 1.433 . S
N66 C92 1.435 . S
N66 C98 1.423 . S
H67 C103 0.932 . S
C68 N43 1.433 . S
C68 C69 1.363 1_455 S
C68 C73 1.370 . S
C69 H42 0.929 . S
C69 C68 1.363 1_655 S
C69 C70 1.385 . S
C70 H44 0.930 . S
C70 C69 1.385 . S
C70 C71 1.357 1_655 S
C71 C70 1.357 1_455 S
C71 C72 1.406 . S
C72 H46 0.929 . S
C72 C71 1.406 . S
C72 C73 1.391 . S
C73 H45 0.931 . S
C73 C68 1.370 . S
C73 C72 1.391 . S
C74 N43 1.435 . S
C74 C75 1.358 . S
C74 C79 1.371 1_455 S
C75 H47 0.930 . S
C75 C74 1.358 . S
C75 C76 1.405 . S
C76 H48 0.932 . S
C76 C75 1.405 . S
C76 C77 1.383 . S
C77 C76 1.383 . S
C77 C78 1.393 1_455 S
C78 H50 0.931 . S
C78 C77 1.393 1_655 S
C78 C79 1.382 . S
C79 H49 0.929 . S
C79 C74 1.371 1_655 S
C79 C78 1.382 . S
C80 N43 1.423 . S
C80 C81 1.362 1_455 S
C80 C85 1.388 . S
C81 H51 0.929 . S
C81 C80 1.362 1_655 S
C81 C82 1.376 . S
C82 H53 0.931 . S
C82 C81 1.376 . S
C82 C83 1.396 . S
C83 C82 1.396 . S
C83 C84 1.348 1_655 S
C83 C101 1.472 . S
C84 H54 0.929 . S
C84 C83 1.348 1_455 S
C84 C85 1.443 . S
C85 H52 0.932 . S
C85 C80 1.388 . S
C85 C84 1.443 . S
C86 N66 1.433 . S
C86 C87 1.363 1_455 S
C86 C91 1.370 . S
C87 H55 0.929 . S
C87 C86 1.363 1_655 S
C87 C88 1.385 . S
C88 H56 0.930 . S
C88 C87 1.385 . S
C88 C89 1.357 1_655 S
C89 C88 1.357 1_455 S
C89 C90 1.406 . S
C90 H57 0.929 . S
C90 C89 1.406 . S
C90 C91 1.391 . S
C91 H58 0.931 . S
C91 C86 1.370 . S
C91 C90 1.391 . S
C92 N66 1.435 . S
C92 C93 1.358 . S
C92 C97 1.371 1_455 S
C93 H59 0.930 . S
C93 C92 1.358 . S
C93 C94 1.405 . S
C94 H60 0.932 . S
C94 C93 1.405 . S
C94 C95 1.383 . S
C95 C94 1.383 . S
C95 C96 1.393 1_455 S
C96 H61 0.931 . S
C96 C95 1.393 1_655 S
C96 C97 1.382 . S
C97 H62 0.929 . S
C97 C92 1.371 1_655 S
C97 C96 1.382 . S
C98 N66 1.423 . S
C98 C99 1.362 1_455 S
C98 C103 1.388 . S
C99 H63 0.929 . S
C99 C98 1.362 1_655 S
C99 C100 1.376 . S
C100 H64 0.931 . S
C100 C99 1.376 . S
C100 C101 1.396 . S
C101 C83 1.472 . S
C101 C100 1.396 . S
C101 C102 1.348 1_655 S
C102 H65 0.929 . S
C102 C101 1.348 1_455 S
C102 C103 1.443 . S
C103 H67 0.932 . S
C103 C98 1.388 . S
C103 C102 1.443 . S
H104 C131 0.929 . S
N105 C130 1.433 . S
N105 C136 1.435 . S
N105 C142 1.423 . S
H106 C132 0.930 . S
H107 C135 0.931 1_565 S
H108 C134 0.929 . S
H109 C137 0.930 . S
H110 C138 0.932 . S
H111 C141 0.929 . S
H112 C140 0.931 . S
H113 C143 0.929 . S
H114 C147 0.932 1_565 S
H115 C144 0.931 . S
H116 C146 0.929 . S
H117 C149 0.929 . S
H118 C150 0.930 . S
H119 C152 0.929 . S
H120 C153 0.931 1_565 S
H121 C155 0.930 . S
H122 C156 0.932 . S
H123 C158 0.931 . S
H124 C159 0.929 . S
H125 C161 0.929 . S
H126 C162 0.931 . S
H127 C164 0.929 . S
N128 C148 1.433 . S
N128 C154 1.435 . S
N128 C160 1.423 . S
H129 C165 0.932 1_565 S
C130 N105 1.433 . S
C130 C131 1.363 . S
C130 C135 1.370 . S
C131 H104 0.929 . S
C131 C130 1.363 . S
C131 C132 1.385 . S
C132 H106 0.930 . S
C132 C131 1.385 . S
C132 C133 1.357 . S
C133 C132 1.357 . S
C133 C134 1.406 1_545 S
C134 H108 0.929 . S
C134 C133 1.406 1_565 S
C134 C135 1.391 1_565 S
C135 H107 0.931 1_545 S
C135 C130 1.370 . S
C135 C134 1.391 1_545 S
C136 N105 1.435 . S
C136 C137 1.358 1_545 S
C136 C141 1.371 . S
C137 H109 0.930 . S
C137 C136 1.358 1_565 S
C137 C138 1.405 . S
C138 H110 0.932 . S
C138 C137 1.405 . S
C138 C139 1.383 1_565 S
C139 C138 1.383 1_545 S
C139 C140 1.393 . S
C140 H112 0.931 . S
C140 C139 1.393 . S
C140 C141 1.382 . S
C141 H111 0.929 . S
C141 C136 1.371 . S
C141 C140 1.382 . S
C142 N105 1.423 . S
C142 C143 1.362 . S
C142 C147 1.388 . S
C143 H113 0.929 . S
C143 C142 1.362 . S
C143 C144 1.376 . S
C144 H115 0.931 . S
C144 C143 1.376 . S
C144 C145 1.396 . S
C145 C144 1.396 . S
C145 C146 1.348 . S
C145 C163 1.472 . S
C146 H116 0.929 . S
C146 C145 1.348 . S
C146 C147 1.443 . S
C147 H114 0.932 1_545 S
C147 C142 1.388 . S
C147 C146 1.443 . S
C148 N128 1.433 . S
C148 C149 1.363 . S
C148 C153 1.370 . S
C149 H117 0.929 . S
C149 C148 1.363 . S
C149 C150 1.385 . S
C150 H118 0.930 . S
C150 C149 1.385 . S
C150 C151 1.357 . S
C151 C150 1.357 . S
C151 C152 1.406 1_545 S
C152 H119 0.929 . S
C152 C151 1.406 1_565 S
C152 C153 1.391 1_565 S
C153 H120 0.931 1_545 S
C153 C148 1.370 . S
C153 C152 1.391 1_545 S
C154 N128 1.435 . S
C154 C155 1.358 1_545 S
C154 C159 1.371 . S
C155 H121 0.930 . S
C155 C154 1.358 1_565 S
C155 C156 1.405 . S
C156 H122 0.932 . S
C156 C155 1.405 . S
C156 C157 1.383 1_565 S
C157 C156 1.383 1_545 S
C157 C158 1.393 . S
C158 H123 0.931 . S
C158 C157 1.393 . S
C158 C159 1.382 . S
C159 H124 0.929 . S
C159 C154 1.371 . S
C159 C158 1.382 . S
C160 N128 1.423 . S
C160 C161 1.362 . S
C160 C165 1.388 . S
C161 H125 0.929 . S
C161 C160 1.362 . S
C161 C162 1.376 . S
C162 H126 0.931 . S
C162 C161 1.376 . S
C162 C163 1.396 . S
C163 C145 1.472 . S
C163 C162 1.396 . S
C163 C164 1.348 . S
C164 H127 0.929 . S
C164 C163 1.348 . S
C164 C165 1.443 . S
C165 H129 0.932 1_545 S
C165 C160 1.388 . S
C165 C164 1.443 . S
H166 C193 0.929 . S
N167 C192 1.433 . S
N167 C198 1.435 . S
N167 C204 1.423 . S
H168 C194 0.930 . S
H169 C197 0.931 . S
H170 C196 0.929 . S
H171 C199 0.930 . S
H172 C200 0.932 . S
H173 C203 0.929 . S
H174 C202 0.931 . S
H175 C205 0.929 . S
H176 C209 0.932 . S
H177 C206 0.931 . S
H178 C208 0.929 . S
H179 C211 0.929 . S
H180 C212 0.930 . S
H181 C214 0.929 . S
H182 C215 0.931 . S
H183 C217 0.930 . S
H184 C218 0.932 . S
H185 C220 0.931 . S
H186 C221 0.929 . S
H187 C223 0.929 . S
H188 C224 0.931 . S
H189 C226 0.929 . S
N190 C210 1.433 . S
N190 C216 1.435 . S
N190 C222 1.423 . S
H191 C227 0.932 . S
C192 N167 1.433 . S
C192 C193 1.363 . S
C192 C197 1.370 . S
C193 H166 0.929 . S
C193 C192 1.363 . S
C193 C194 1.385 . S
C194 H168 0.930 . S
C194 C193 1.385 . S
C194 C195 1.357 . S
C195 C194 1.357 . S
C195 C196 1.406 . S
C196 H170 0.929 . S
C196 C195 1.406 . S
C196 C197 1.391 . S
C197 H169 0.931 . S
C197 C192 1.370 . S
C197 C196 1.391 . S
C198 N167 1.435 . S
C198 C199 1.358 . S
C198 C203 1.371 . S
C199 H171 0.930 . S
C199 C198 1.358 . S
C199 C200 1.405 . S
C200 H172 0.932 . S
C200 C199 1.405 . S
C200 C201 1.383 . S
C201 C200 1.383 . S
C201 C202 1.393 . S
C202 H174 0.931 . S
C202 C201 1.393 . S
C202 C203 1.382 . S
C203 H173 0.929 . S
C203 C198 1.371 . S
C203 C202 1.382 . S
C204 N167 1.423 . S
C204 C205 1.362 . S
C204 C209 1.388 . S
C205 H175 0.929 . S
C205 C204 1.362 . S
C205 C206 1.376 . S
C206 H177 0.931 . S
C206 C205 1.376 . S
C206 C207 1.396 . S
C207 C206 1.396 . S
C207 C208 1.348 . S
C207 C225 1.472 . S
C208 H178 0.929 . S
C208 C207 1.348 . S
C208 C209 1.443 . S
C209 H176 0.932 . S
C209 C204 1.388 . S
C209 C208 1.443 . S
C210 N190 1.433 . S
C210 C211 1.363 . S
C210 C215 1.370 . S
C211 H179 0.929 . S
C211 C210 1.363 . S
C211 C212 1.385 . S
C212 H180 0.930 . S
C212 C211 1.385 . S
C212 C213 1.357 . S
C213 C212 1.357 . S
C213 C214 1.406 . S
C214 H181 0.929 . S
C214 C213 1.406 . S
C214 C215 1.391 . S
C215 H182 0.931 . S
C215 C210 1.370 . S
C215 C214 1.391 . S
C216 N190 1.435 . S
C216 C217 1.358 . S
C216 C221 1.371 . S
C217 H183 0.930 . S
C217 C216 1.358 . S
C217 C218 1.405 . S
C218 H184 0.932 . S
C218 C217 1.405 . S
C218 C219 1.383 . S
C219 C218 1.383 . S
C219 C220 1.393 . S
C220 H185 0.931 . S
C220 C219 1.393 . S
C220 C221 1.382 . S
C221 H186 0.929 . S
C221 C216 1.371 . S
C221 C220 1.382 . S
C222 N190 1.423 . S
C222 C223 1.362 . S
C222 C227 1.388 . S
C223 H187 0.929 . S
C223 C222 1.362 . S
C223 C224 1.376 . S
C224 H188 0.931 . S
C224 C223 1.376 . S
C224 C225 1.396 . S
C225 C207 1.472 . S
C225 C224 1.396 . S
C225 C226 1.348 . S
C226 H189 0.929 . S
C226 C225 1.348 . S
C226 C227 1.443 . S
C227 H191 0.932 . S
C227 C222 1.388 . S
C227 C226 1.443 . S
C228 C229 1.387 1_655 S
C228 H232 0.950 . S
C228 C237 1.390 . S
C229 C228 1.387 1_455 S
C229 C231 1.387 . S
H230 C237 0.950 . S
C231 C229 1.387 . S
C231 C233 1.390 . S
C231 H235 0.950 . S
H232 C228 0.950 . S
C233 C231 1.390 . S
C233 C234 1.387 . S
C233 H236 0.950 . S
C234 C233 1.387 . S
C234 C237 1.387 1_455 S
H235 C231 0.950 . S
H236 C233 0.950 . S
C237 C228 1.390 . S
C237 H230 0.950 . S
C237 C234 1.387 1_655 S
C238 C239 1.387 1_565 S
C238 H242 0.950 . S
C238 C247 1.390 . S
C239 C238 1.387 1_545 S
C239 C241 1.387 . S
H240 C247 0.950 . S
C241 C239 1.387 . S
C241 C243 1.390 . S
C241 H245 0.950 . S
H242 C238 0.950 . S
C243 C241 1.390 . S
C243 C244 1.387 . S
C243 H246 0.950 . S
C244 C243 1.387 . S
C244 C247 1.387 1_545 S
H245 C241 0.950 . S
H246 C243 0.950 . S
C247 C238 1.390 . S
C247 H240 0.950 . S
C247 C244 1.387 1_565 S
C248 C249 1.387 . S
C248 H252 0.950 . S
C248 C257 1.390 . S
C249 C248 1.387 . S
C249 C251 1.387 . S
H250 C257 0.950 . S
C251 C249 1.387 . S
C251 C253 1.390 . S
C251 H255 0.950 . S
H252 C248 0.950 . S
C253 C251 1.390 . S
C253 C254 1.387 . S
C253 H256 0.950 . S
C254 C253 1.387 . S
C254 C257 1.387 . S
H255 C251 0.950 . S
H256 C253 0.950 . S
C257 C248 1.390 . S
C257 H250 0.950 . S
C257 C254 1.387 . S
C258 C259 1.387 . S
C258 H262 0.950 . S
C258 C267 1.390 . S
C259 C258 1.387 . S
C259 C261 1.387 . S
H260 C267 0.950 . S
C261 C259 1.387 . S
C261 C263 1.390 . S
C261 H265 0.950 1_455 S
H262 C258 0.950 . S
C263 C261 1.390 . S
C263 C264 1.387 . S
C263 H266 0.950 1_455 S
C264 C263 1.387 . S
C264 C267 1.387 . S
H265 C261 0.950 1_655 S
H266 C263 0.950 1_655 S
C267 C258 1.390 . S
C267 H260 0.950 . S
C267 C264 1.387 . S
C268 C269 1.387 . S
C268 H272 0.950 . S
C268 C277 1.390 . S
C269 C268 1.387 . S
C269 C271 1.387 1_545 S
H270 C277 0.950 . S
C271 C269 1.387 1_565 S
C271 C273 1.390 . S
C271 H275 0.950 . S
H272 C268 0.950 . S
C273 C271 1.390 . S
C273 C274 1.387 1_565 S
C273 H276 0.950 . S
C274 C273 1.387 1_545 S
C274 C277 1.387 . S
H275 C271 0.950 . S
H276 C273 0.950 . S
C277 C268 1.390 . S
C277 H270 0.950 . S
C277 C274 1.387 . S
C278 C279 1.387 . S
C278 H282 0.950 . S
C278 C287 1.390 . S
C279 C278 1.387 . S
C279 C281 1.387 . S
H280 C287 0.950 . S
C281 C279 1.387 . S
C281 C283 1.390 . S
C281 H285 0.950 . S
H282 C278 0.950 . S
C283 C281 1.390 . S
C283 C284 1.387 . S
C283 H286 0.950 . S
C284 C283 1.387 . S
C284 C287 1.387 . S
H285 C281 0.950 . S
H286 C283 0.950 . S
C287 C278 1.390 . S
C287 H280 0.950 . S
C287 C284 1.387 . S
C288 C289 1.387 1_565 S
C288 H292 0.950 . S
C288 C297 1.390 . S
C289 C288 1.387 1_545 S
C289 C291 1.387 . S
H290 C297 0.950 . S
C291 C289 1.387 . S
C291 C293 1.390 . S
C291 H295 0.950 . S
H292 C288 0.950 . S
C293 C291 1.390 . S
C293 C294 1.387 . S
C293 H296 0.950 . S
C294 C293 1.387 . S
C294 C297 1.387 1_545 S
H295 C291 0.950 . S
H296 C293 0.950 . S
C297 C288 1.390 . S
C297 H290 0.950 . S
C297 C294 1.387 1_565 S
C298 C299 1.387 . S
C298 H302 0.950 . S
C298 C307 1.390 . S
C299 C298 1.387 . S
C299 C301 1.387 . S
H300 C307 0.950 . S
C301 C299 1.387 . S
C301 C303 1.390 . S
C301 H305 0.950 . S
H302 C298 0.950 . S
C303 C301 1.390 . S
C303 C304 1.387 . S
C303 H306 0.950 . S
C304 C303 1.387 . S
C304 C307 1.387 . S
H305 C301 0.950 . S
H306 C303 0.950 . S
C307 C298 1.390 . S
C307 H300 0.950 . S
C307 C304 1.387 . S
C308 C309 1.387 . S
C308 H312 0.950 . S
C308 C317 1.390 . S
C309 C308 1.387 . S
C309 C311 1.387 . S
H310 C317 0.950 . S
C311 C309 1.387 . S
C311 C313 1.390 . S
C311 H315 0.950 1_455 S
H312 C308 0.950 . S
C313 C311 1.390 . S
C313 C314 1.387 . S
C313 H316 0.950 . S
C314 C313 1.387 . S
C314 C317 1.387 . S
H315 C311 0.950 1_655 S
H316 C313 0.950 . S
C317 C308 1.390 . S
C317 H310 0.950 . S
C317 C314 1.387 . S
C318 C319 1.387 . S
C318 H322 0.950 . S
C318 C327 1.390 . S
C319 C318 1.387 . S
C319 C321 1.387 1_545 S
H320 C327 0.950 . S
C321 C319 1.387 1_565 S
C321 C323 1.390 . S
C321 H325 0.950 . S
H322 C318 0.950 . S
C323 C321 1.390 . S
C323 C324 1.387 1_565 S
C323 H326 0.950 . S
C324 C323 1.387 1_545 S
C324 C327 1.387 . S
H325 C321 0.950 . S
H326 C323 0.950 . S
C327 C318 1.390 . S
C327 H320 0.950 . S
C327 C324 1.387 . S
C328 C329 1.387 . S
C328 H332 0.950 . S
C328 C337 1.390 . S
C329 C328 1.387 . S
C329 C331 1.387 . S
H330 C337 0.950 . S
C331 C329 1.387 . S
C331 C333 1.390 . S
C331 H335 0.950 1_556 S
H332 C328 0.950 . S
C333 C331 1.390 . S
C333 C334 1.387 . S
C333 H336 0.950 . S
C334 C333 1.387 . S
C334 C337 1.387 . S
H335 C331 0.950 1_554 S
H336 C333 0.950 . S
C337 C328 1.390 . S
C337 H330 0.950 . S
C337 C334 1.387 . S
C338 C339 1.387 . S
C338 H342 0.950 . S
C338 C347 1.390 . S
C339 C338 1.387 . S
C339 C341 1.387 . S
H340 C347 0.950 . S
C341 C339 1.387 . S
C341 C343 1.390 . S
C341 H345 0.950 . S
H342 C338 0.950 . S
C343 C341 1.390 . S
C343 C344 1.387 . S
C343 H346 0.950 . S
C344 C343 1.387 . S
C344 C347 1.387 . S
H345 C341 0.950 . S
H346 C343 0.950 . S
C347 C338 1.390 . S
C347 H340 0.950 . S
C347 C344 1.387 . S
C234 C95 1.421 . S
C229 C0 1.427 . S
C239 C25 1.448 . S
C244 C139 1.447 . S
C249 C33 1.479 . S
C254 C201 1.491 . S
C259 C11 1.416 . S
C264 C77 1.415 . S
C274 C157 1.434 . S
C269 C14 1.438 . S
C279 C37 1.487 . S
C284 C219 1.492 . S
C294 C133 1.581 . S
C289 C28 1.677 . S
C299 C9 1.725 1_556 S
C304 C195 1.630 . S
C314 C71 1.633 . S
C309 C19 1.756 . S
C324 C151 1.595 . S
C319 C39 1.697 . S
C334 C213 1.625 . S
C329 C5 1.722 1_556 S
C339 C23 1.753 . S
C344 C89 1.650 . S
