# Generated by pormake.
# Topology zzz, (3,6)-cn, num edge types: 1
# Building blocks:
#     Node 0, Type 0, BuildingBlock: VETTIZ_charged_linker_0, # of connection points: 3
#     Node 1, Type 0, BuildingBlock: VETTIZ_charged_linker_0, # of connection points: 3
#     Node 2, Type 0, BuildingBlock: VETTIZ_charged_linker_0, # of connection points: 3
#     Node 3, Type 0, BuildingBlock: VETTIZ_charged_linker_0, # of connection points: 3
#     Node 4, Type 0, BuildingBlock: VETTIZ_charged_linker_0, # of connection points: 3
#     Node 5, Type 0, BuildingBlock: VETTIZ_charged_linker_0, # of connection points: 3
#     Node 6, Type 0, BuildingBlock: VETTIZ_charged_linker_0, # of connection points: 3
#     Node 7, Type 0, BuildingBlock: VETTIZ_charged_linker_0, # of connection points: 3
#     Node 8, Type 1, BuildingBlock: FUNLAD_clean_sbu_0, # of connection points: 6
#     Node 9, Type 1, BuildingBlock: FUNLAD_clean_sbu_0, # of connection points: 6
#     Node 10, Type 1, BuildingBlock: FUNLAD_clean_sbu_0, # of connection points: 6
#     Node 11, Type 1, BuildingBlock: FUNLAD_clean_sbu_0, # of connection points: 6
#     Edge 12, Type (0, 1), BuildingBlock: UVAHIK_clean_linker_0, # of connection points: 2
#     Edge 13, Type (0, 1), BuildingBlock: UVAHIK_clean_linker_0, # of connection points: 2
#     Edge 14, Type (0, 1), BuildingBlock: UVAHIK_clean_linker_0, # of connection points: 2
#     Edge 15, Type (0, 1), BuildingBlock: UVAHIK_clean_linker_0, # of connection points: 2
#     Edge 16, Type (0, 1), BuildingBlock: UVAHIK_clean_linker_0, # of connection points: 2
#     Edge 17, Type (0, 1), BuildingBlock: UVAHIK_clean_linker_0, # of connection points: 2
#     Edge 18, Type (0, 1), BuildingBlock: UVAHIK_clean_linker_0, # of connection points: 2
#     Edge 19, Type (0, 1), BuildingBlock: UVAHIK_clean_linker_0, # of connection points: 2
#     Edge 20, Type (0, 1), BuildingBlock: UVAHIK_clean_linker_0, # of connection points: 2
#     Edge 21, Type (0, 1), BuildingBlock: UVAHIK_clean_linker_0, # of connection points: 2
#     Edge 22, Type (0, 1), BuildingBlock: UVAHIK_clean_linker_0, # of connection points: 2
#     Edge 23, Type (0, 1), BuildingBlock: UVAHIK_clean_linker_0, # of connection points: 2
#     Edge 24, Type (0, 1), BuildingBlock: UVAHIK_clean_linker_0, # of connection points: 2
#     Edge 25, Type (0, 1), BuildingBlock: UVAHIK_clean_linker_0, # of connection points: 2
#     Edge 26, Type (0, 1), BuildingBlock: UVAHIK_clean_linker_0, # of connection points: 2
#     Edge 27, Type (0, 1), BuildingBlock: UVAHIK_clean_linker_0, # of connection points: 2
#     Edge 28, Type (0, 1), BuildingBlock: UVAHIK_clean_linker_0, # of connection points: 2
#     Edge 29, Type (0, 1), BuildingBlock: UVAHIK_clean_linker_0, # of connection points: 2
#     Edge 30, Type (0, 1), BuildingBlock: UVAHIK_clean_linker_0, # of connection points: 2
#     Edge 31, Type (0, 1), BuildingBlock: UVAHIK_clean_linker_0, # of connection points: 2
#     Edge 32, Type (0, 1), BuildingBlock: UVAHIK_clean_linker_0, # of connection points: 2
#     Edge 33, Type (0, 1), BuildingBlock: UVAHIK_clean_linker_0, # of connection points: 2
#     Edge 34, Type (0, 1), BuildingBlock: UVAHIK_clean_linker_0, # of connection points: 2
#     Edge 35, Type (0, 1), BuildingBlock: UVAHIK_clean_linker_0, # of connection points: 2
# Relax obj value: 0.295
# Max RMSD: 0.223
# Mean RMSD: 0.194
data_MOF--net-zzz--node1-FUNLAD_clean_sbu_0--node2-VETTIZ_charged_linker_0--edge1-UVAHIK_clean_linker_0
_symmetry_space_group_name_H-M    P1
_symmetry_Int_Tables_number       1
_symmetry_cell_setting            triclinic
loop_
_symmetry_equiv_pos_as_xyz
'x, y, z'
_cell_length_a     70.638876
_cell_length_b     75.307388
_cell_length_c     27.782897
_cell_angle_alpha  87.394539
_cell_angle_beta   87.632532
_cell_angle_gamma 92.233885
loop_
_atom_site_label
_atom_site_type_symbol
_atom_site_fract_x
_atom_site_fract_y
_atom_site_fract_z
_atom_type_partial_charge
C0 C 0.82769 0.46097 0.31182 0.0
C1 C 0.84407 0.45523 0.33413 0.0
C2 C 0.85396 0.4411 0.31497 0.0
C3 C 0.83224 0.43945 0.25026 0.0
C4 C 0.82182 0.45261 0.27037 0.0
C5 C 0.80436 0.45624 0.2425 0.0
H6 H 0.75116 0.43758 0.05092 0.0
C7 C 0.82313 0.43402 0.20626 0.0
C8 C 0.80643 0.44338 0.20199 0.0
H9 H 0.73977 0.47554 0.15923 0.0
H10 H 0.76838 0.46765 0.19934 0.0
H11 H 0.79158 0.44908 0.0329 0.0
H12 H 0.76716 0.40552 0.12211 0.0
H13 H 0.78668 0.39776 0.08861 0.0
H14 H 0.76718 0.40697 0.0574 0.0
H15 H 0.78678 0.42779 0.00887 0.0
H16 H 0.80927 0.43344 0.03394 0.0
C17 C 0.80574 0.47587 0.22326 0.0
C18 C 0.78671 0.45142 0.27604 0.0
C19 C 0.86023 0.39932 0.0852 0.0
C20 C 0.85653 0.39448 0.03805 0.0
C21 C 0.83781 0.39532 0.02243 0.0
C22 C 0.82357 0.4025 0.05134 0.0
C23 C 0.82805 0.40894 0.09634 0.0
C24 C 0.84587 0.40654 0.11353 0.0
C25 C 0.84806 0.41406 0.16234 0.0
C26 C 0.82911 0.4227 0.1696 0.0
C27 C 0.81753 0.41971 0.13078 0.0
C28 C 0.86488 0.42798 0.15867 0.0
C29 C 0.85047 0.39839 0.19959 0.0
C30 C 0.75467 0.44396 0.08378 0.0
C31 C 0.74313 0.45696 0.10251 0.0
C32 C 0.74847 0.46542 0.14438 0.0
C33 C 0.76502 0.46078 0.16759 0.0
C34 C 0.77648 0.44774 0.14823 0.0
C35 C 0.77125 0.43971 0.10672 0.0
C36 C 0.78572 0.42724 0.08876 0.0
C37 C 0.80019 0.4285 0.12734 0.0
C38 C 0.79472 0.44043 0.16237 0.0
C39 C 0.79375 0.43459 0.03848 0.0
C40 C 0.77627 0.40834 0.08881 0.0
H41 H 0.85647 0.42277 0.26 0.0
H42 H 0.81969 0.47164 0.32633 0.0
H43 H 0.7889 0.43913 0.29858 0.0
H44 H 0.77387 0.44843 0.25611 0.0
H45 H 0.7838 0.46227 0.30075 0.0
H46 H 0.82054 0.47978 0.21067 0.0
H47 H 0.80148 0.48494 0.25187 0.0
H48 H 0.79708 0.47835 0.19168 0.0
H49 H 0.87438 0.39886 0.09859 0.0
H50 H 0.83438 0.39121 0.98687 0.0
H51 H 0.80981 0.40346 0.03669 0.0
H52 H 0.86389 0.437 0.12612 0.0
H53 H 0.87865 0.42138 0.15591 0.0
H54 H 0.86531 0.43664 0.18953 0.0
H55 H 0.84586 0.38536 0.18567 0.0
H56 H 0.84155 0.39964 0.23297 0.0
H57 H 0.8655 0.39736 0.20924 0.0
H58 H 0.86663 0.43653 0.33151 0.0
C59 C 0.84812 0.4332 0.2733 0.0
C60 C 0.9372 0.82016 0.0203 0.0
C61 C 0.93763 0.83777 0.03559 0.0
C62 C 0.93074 0.84085 0.08275 0.0
C63 C 0.92743 0.80919 0.1012 0.0
C64 C 0.93229 0.80608 0.05383 0.0
C65 C 0.93349 0.78649 0.04571 0.0
H66 H 0.94817 0.70416 0.13844 0.0
C67 C 0.92719 0.79209 0.12931 0.0
C68 C 0.93061 0.77867 0.09722 0.0
H69 H 0.93964 0.72095 0.9901 0.0
H70 H 0.93216 0.75013 0.01455 0.0
H71 H 0.97052 0.73952 0.16718 0.0
H72 H 0.91041 0.72626 0.18477 0.0
H73 H 0.91942 0.73379 0.23908 0.0
H74 H 0.92799 0.71373 0.21478 0.0
H75 H 0.96126 0.72324 0.21219 0.0
H76 H 0.96208 0.74669 0.22309 0.0
C77 C 0.95353 0.78317 0.02397 0.0
C78 C 0.91711 0.78082 0.01339 0.0
C79 C 0.92831 0.79452 0.31018 0.0
C80 C 0.93483 0.78301 0.34625 0.0
C81 C 0.93913 0.76551 0.33493 0.0
C82 C 0.93722 0.75976 0.28768 0.0
C83 C 0.93168 0.77188 0.25124 0.0
C84 C 0.9274 0.78894 0.26315 0.0
C85 C 0.92476 0.80105 0.21991 0.0
C86 C 0.92733 0.78833 0.17974 0.0
C87 C 0.93113 0.77115 0.19797 0.0
C88 C 0.94058 0.81614 0.21825 0.0
C89 C 0.90429 0.80766 0.22292 0.0
C90 C 0.94457 0.71413 0.11137 0.0
C91 C 0.94503 0.71036 0.06205 0.0
C92 C 0.94002 0.72364 0.02804 0.0
C93 C 0.9356 0.74058 0.0422 0.0
C94 C 0.93636 0.7445 0.09087 0.0
C95 C 0.94008 0.7313 0.12497 0.0
C96 C 0.93931 0.7381 0.17534 0.0
C97 C 0.93418 0.75736 0.16541 0.0
C98 C 0.93314 0.76105 0.11555 0.0
C99 C 0.95924 0.73676 0.196 0.0
C100 C 0.92352 0.7274 0.20547 0.0
H101 H 0.92076 0.82991 0.15087 0.0
H102 H 0.94161 0.81733 0.98377 0.0
H103 H 0.90605 0.79092 0.01136 0.0
H104 H 0.90946 0.76844 0.02784 0.0
H105 H 0.92239 0.77885 0.97587 0.0
H106 H 0.96459 0.78975 0.04517 0.0
H107 H 0.9552 0.78861 0.98613 0.0
H108 H 0.95679 0.76899 0.02396 0.0
H109 H 0.92571 0.80826 0.31734 0.0
H110 H 0.94446 0.75651 0.36223 0.0
H111 H 0.94087 0.74637 0.28086 0.0
H112 H 0.95205 0.81327 0.24339 0.0
H113 H 0.93478 0.82904 0.22821 0.0
H114 H 0.94812 0.8179 0.18252 0.0
H115 H 0.89405 0.79661 0.23519 0.0
H116 H 0.89945 0.81257 0.18759 0.0
H117 H 0.90302 0.81836 0.24896 0.0
H118 H 0.9307 0.85415 0.09597 0.0
C119 C 0.92535 0.82668 0.11523 0.0
C120 C 0.80446 0.00376 0.07697 0.0
C121 C 0.81268 0.00786 0.0303 0.0
C122 C 0.80274 0.0182 0.9973 0.0
C123 C 0.77687 0.02045 0.05626 0.0
C124 C 0.78638 0.01015 0.08914 0.0
C125 C 0.77473 0.00696 0.13618 0.0
H126 H 0.69353 0.02556 0.26583 0.0
C127 C 0.75875 0.02542 0.07917 0.0
C128 C 0.75726 0.01774 0.12648 0.0
H129 H 0.73623 0.99005 0.31314 0.0
H130 H 0.75448 0.99635 0.23698 0.0
H131 H 0.72129 0.05619 0.21902 0.0
H132 H 0.69088 0.01123 0.16657 0.0
H133 H 0.69006 0.02773 0.12044 0.0
H134 H 0.67963 0.03153 0.17922 0.0
H135 H 0.69624 0.05581 0.21059 0.0
H136 H 0.71318 0.0635 0.16295 0.0
C137 C 0.7861 0.01433 0.1776 0.0
C138 C 0.76963 0.98686 0.14293 0.0
C139 C 0.71316 0.06134 0.98046 0.0
C140 C 0.6951 0.06772 0.99176 0.0
C141 C 0.68818 0.0665 0.04018 0.0
C142 C 0.69845 0.05819 0.07607 0.0
C143 C 0.71585 0.05082 0.06369 0.0
C144 C 0.72324 0.05297 0.01696 0.0
C145 C 0.7421 0.0445 0.01098 0.0
C146 C 0.74427 0.03618 0.06138 0.0
C147 C 0.72876 0.0398 0.09167 0.0
C148 C 0.75739 0.05949 0.99781 0.0
C149 C 0.74021 0.03016 0.97292 0.0
C150 C 0.70696 0.01929 0.26049 0.0
C151 C 0.71356 0.00758 0.296 0.0
C152 C 0.73083 0.99923 0.2864 0.0
C153 C 0.74137 0.00289 0.24222 0.0
C154 C 0.73437 0.01476 0.20702 0.0
C155 C 0.71733 0.02257 0.217 0.0
C156 C 0.71101 0.03404 0.17597 0.0
C157 C 0.72701 0.0321 0.13915 0.0
C158 C 0.74097 0.02093 0.15692 0.0
C159 C 0.7102 0.0534 0.19273 0.0
C160 C 0.69187 0.02592 0.15962 0.0
H161 H 0.77835 0.03236 0.98292 0.0
H162 H 0.81182 0.99571 0.10289 0.0
H163 H 0.76492 0.98148 0.10856 0.0
H164 H 0.75779 0.98391 0.16955 0.0
H165 H 0.78209 0.97942 0.15429 0.0
H166 H 0.79161 0.02813 0.16795 0.0
H167 H 0.79839 0.00601 0.18503 0.0
H168 H 0.77737 0.01496 0.21128 0.0
H169 H 0.71903 0.06228 0.94376 0.0
H170 H 0.67426 0.07105 0.05009 0.0
H171 H 0.69202 0.05724 0.11175 0.0
H172 H 0.75301 0.07254 0.01079 0.0
H173 H 0.76011 0.06116 0.95817 0.0
H174 H 0.77094 0.05716 0.01526 0.0
H175 H 0.72613 0.02297 0.97718 0.0
H176 H 0.75063 0.01968 0.97647 0.0
H177 H 0.74156 0.03626 0.93572 0.0
H178 H 0.80883 0.02149 0.96139 0.0
C179 C 0.78503 0.02455 0.00999 0.0
C180 C 0.58291 0.69852 0.32638 0.0
C181 C 0.58599 0.68043 0.33805 0.0
C182 C 0.58914 0.66878 0.30063 0.0
C183 C 0.58328 0.69214 0.24151 0.0
C184 C 0.58214 0.70418 0.27743 0.0
C185 C 0.57999 0.72289 0.25649 0.0
H186 H 0.56775 0.77595 0.05491 0.0
C187 C 0.5796 0.70133 0.19528 0.0
C188 C 0.57825 0.71954 0.203 0.0
H189 H 0.57682 0.79321 0.1985 0.0
H190 H 0.57776 0.76234 0.22834 0.0
H191 H 0.59735 0.74422 0.05274 0.0
H192 H 0.53778 0.74685 0.08739 0.0
H193 H 0.54052 0.72553 0.06588 0.0
H194 H 0.54653 0.74486 0.02652 0.0
H195 H 0.57986 0.74983 0.01004 0.0
H196 H 0.58524 0.72705 0.02375 0.0
C197 C 0.59824 0.73397 0.26596 0.0
C198 C 0.56174 0.73038 0.27872 0.0
C199 C 0.56031 0.664 0.05709 0.0
C200 C 0.55322 0.6682 0.01163 0.0
C201 C 0.55297 0.6862 0.99547 0.0
C202 C 0.55915 0.69977 0.02484 0.0
C203 C 0.56549 0.69531 0.07103 0.0
C204 C 0.56625 0.67765 0.08604 0.0
C205 C 0.57303 0.67524 0.13634 0.0
C206 C 0.57532 0.69449 0.15009 0.0
C207 C 0.57099 0.70613 0.11172 0.0
C208 C 0.59226 0.66591 0.13382 0.0
C209 C 0.55718 0.6648 0.16734 0.0
C210 C 0.57026 0.77311 0.09265 0.0
C211 C 0.57268 0.78695 0.12418 0.0
C212 C 0.57514 0.78271 0.17346 0.0
C213 C 0.57584 0.76483 0.19055 0.0
C214 C 0.57389 0.75113 0.15804 0.0
C215 C 0.57084 0.75548 0.11014 0.0
C216 C 0.5679 0.73944 0.08086 0.0
C217 C 0.57105 0.72469 0.11807 0.0
C218 C 0.57449 0.73146 0.16347 0.0
C219 C 0.58328 0.74011 0.03937 0.0
C220 C 0.54721 0.7391 0.0639 0.0
H221 H 0.58979 0.66488 0.22599 0.0
H222 H 0.5809 0.70783 0.35454 0.0
H223 H 0.54974 0.72039 0.27826 0.0
H224 H 0.55725 0.74234 0.25856 0.0
H225 H 0.56368 0.73376 0.31677 0.0
H226 H 0.61097 0.72581 0.26208 0.0
H227 H 0.59774 0.73888 0.30308 0.0
H228 H 0.60088 0.74535 0.23985 0.0
H229 H 0.56053 0.65033 0.07089 0.0
H230 H 0.54786 0.6898 0.96027 0.0
H231 H 0.55852 0.71322 0.01069 0.0
H232 H 0.59874 0.66634 0.09656 0.0
H233 H 0.59053 0.65168 0.14616 0.0
H234 H 0.60304 0.67257 0.15554 0.0
H235 H 0.5432 0.6707 0.1616 0.0
H236 H 0.55922 0.6649 0.20636 0.0
H237 H 0.55612 0.65068 0.15748 0.0
H238 H 0.59157 0.65486 0.30868 0.0
C239 C 0.58786 0.67455 0.2526 0.0
C240 C 0.2898 0.55853 0.24349 0.0
C241 C 0.2972 0.56565 0.28531 0.0
C242 C 0.28687 0.57853 0.30931 0.0
C243 C 0.26189 0.57613 0.25279 0.0
C244 C 0.27217 0.56401 0.22783 0.0
C245 C 0.26174 0.55752 0.18519 0.0
H246 H 0.18164 0.55813 0.05703 0.0
C247 C 0.24359 0.57812 0.22987 0.0
C248 C 0.24343 0.56747 0.18965 0.0
H249 H 0.23126 0.52785 0.02984 0.0
H250 H 0.24645 0.54096 0.09757 0.0
H251 H 0.17845 0.5486 0.16058 0.0
H252 H 0.20294 0.59594 0.08802 0.0
H253 H 0.18831 0.60211 0.1371 0.0
H254 H 0.17819 0.58934 0.09059 0.0
H255 H 0.16442 0.56743 0.14828 0.0
H256 H 0.17667 0.56476 0.20378 0.0
C257 C 0.25818 0.53715 0.19239 0.0
C258 C 0.27355 0.56339 0.13869 0.0
C259 C 0.19127 0.60917 0.31856 0.0
C260 C 0.17149 0.60862 0.3133 0.0
C261 C 0.16457 0.60375 0.26851 0.0
C262 C 0.17677 0.59778 0.23222 0.0
C263 C 0.19606 0.5961 0.24103 0.0
C264 C 0.20313 0.60228 0.28298 0.0
C265 C 0.22355 0.59788 0.28841 0.0
C266 C 0.22729 0.58743 0.24369 0.0
C267 C 0.2112 0.5866 0.21592 0.0
C268 C 0.22482 0.58619 0.33567 0.0
C269 C 0.23557 0.61557 0.28675 0.0
C270 C 0.19595 0.55463 0.06509 0.0
C271 C 0.20547 0.54228 0.03779 0.0
C272 C 0.22377 0.53748 0.05036 0.0
C273 C 0.23251 0.54509 0.08961 0.0
C274 C 0.22262 0.55728 0.11713 0.0
C275 C 0.2046 0.56175 0.10462 0.0
C276 C 0.19536 0.57357 0.13987 0.0
C277 C 0.21114 0.5763 0.17442 0.0
C278 C 0.22712 0.56675 0.1612 0.0
C279 C 0.17777 0.56322 0.16434 0.0
C280 C 0.19081 0.59119 0.11269 0.0
H281 H 0.26228 0.59353 0.31352 0.0
H282 H 0.29743 0.5488 0.22371 0.0
H283 H 0.2796 0.57717 0.14114 0.0
H284 H 0.26503 0.56376 0.1063 0.0
H285 H 0.28554 0.55451 0.13281 0.0
H286 H 0.25449 0.53336 0.23091 0.0
H287 H 0.271 0.52996 0.18159 0.0
H288 H 0.24608 0.53209 0.1724 0.0
H289 H 0.19735 0.61339 0.35149 0.0
H290 H 0.14953 0.60313 0.26247 0.0
H291 H 0.17049 0.59367 0.19986 0.0
H292 H 0.21196 0.57724 0.34198 0.0
H293 H 0.22598 0.59454 0.36744 0.0
H294 H 0.23667 0.5771 0.33499 0.0
H295 H 0.22928 0.62589 0.26306 0.0
H296 H 0.25006 0.61423 0.27103 0.0
H297 H 0.23645 0.62093 0.32321 0.0
H298 H 0.29187 0.58407 0.34197 0.0
C299 C 0.26947 0.5839 0.29304 0.0
C300 C 0.09999 0.17914 0.35554 0.0
C301 C 0.09817 0.16142 0.34152 0.0
C302 C 0.10465 0.15742 0.2947 0.0
C303 C 0.11063 0.18871 0.27412 0.0
C304 C 0.10609 0.19258 0.32117 0.0
C305 C 0.10691 0.21233 0.32808 0.0
H306 H 0.10256 0.29563 0.22978 0.0
C307 C 0.11254 0.20559 0.24501 0.0
C308 C 0.11048 0.21953 0.27617 0.0
H309 H 0.10923 0.27905 0.37907 0.0
H310 H 0.11209 0.24875 0.35699 0.0
H311 H 0.13632 0.26919 0.18549 0.0
H312 H 0.07529 0.26194 0.20322 0.0
H313 H 0.08289 0.25393 0.1475 0.0
H314 H 0.08623 0.27728 0.15805 0.0
H315 H 0.12034 0.2833 0.15458 0.0
H316 H 0.12641 0.26224 0.13163 0.0
C317 C 0.1238 0.21675 0.36013 0.0
C318 C 0.08743 0.21763 0.34942 0.0
C319 C 0.11224 0.20205 0.06434 0.0
C320 C 0.10719 0.21386 0.02718 0.0
C321 C 0.1043 0.23176 0.03729 0.0
C322 C 0.10627 0.23766 0.08438 0.0
C323 C 0.11047 0.22535 0.1218 0.0
C324 C 0.11324 0.20785 0.11112 0.0
C325 C 0.11447 0.19582 0.15515 0.0
C326 C 0.11288 0.20902 0.19441 0.0
C327 C 0.11082 0.22639 0.17504 0.0
C328 C 0.13417 0.1875 0.15361 0.0
C329 C 0.09736 0.18204 0.1568 0.0
C330 C 0.1046 0.2854 0.25755 0.0
C331 C 0.10562 0.28972 0.30628 0.0
C332 C 0.10854 0.27611 0.34135 0.0
C333 C 0.11008 0.25849 0.3286 0.0
C334 C 0.10857 0.25428 0.28029 0.0
C335 C 0.10645 0.26761 0.24529 0.0
C336 C 0.10635 0.26037 0.19542 0.0
C337 C 0.10918 0.24068 0.20665 0.0
C338 C 0.10976 0.23724 0.25673 0.0
C339 C 0.12317 0.26925 0.16478 0.0
C340 C 0.08675 0.2636 0.17448 0.0
H341 H 0.11534 0.16707 0.22594 0.0
H342 H 0.09584 0.18257 0.39178 0.0
H343 H 0.07574 0.21194 0.3285 0.0
H344 H 0.08574 0.23212 0.34857 0.0
H345 H 0.08526 0.21257 0.3875 0.0
H346 H 0.13366 0.20563 0.36317 0.0
H347 H 0.11882 0.21958 0.39736 0.0
H348 H 0.13271 0.22827 0.34483 0.0
H349 H 0.1137 0.18806 0.05803 0.0
H350 H 0.10007 0.24101 0.0091 0.0
H351 H 0.10375 0.25137 0.09026 0.0
H352 H 0.14543 0.19762 0.1412 0.0
H353 H 0.13457 0.1765 0.12831 0.0
H354 H 0.13833 0.18244 0.18946 0.0
H355 H 0.08632 0.18579 0.1312 0.0
H356 H 0.08962 0.18101 0.19234 0.0
H357 H 0.10193 0.16863 0.14744 0.0
H358 H 0.1036 0.14397 0.28258 0.0
C359 C 0.11111 0.17094 0.26127 0.0
C360 C 0.31646 0.99424 0.11261 0.0
C361 C 0.33449 0.98885 0.09599 0.0
C362 C 0.34516 0.97837 0.12705 0.0
C363 C 0.32039 0.97838 0.18969 0.0
C364 C 0.30958 0.98867 0.15982 0.0
C365 C 0.29053 0.99213 0.18445 0.0
H366 H 0.23471 0.98326 0.3939 0.0
C367 C 0.30982 0.97473 0.23617 0.0
C368 C 0.29217 0.98269 0.23409 0.0
H369 H 0.21907 0.00802 0.25906 0.0
H370 H 0.24973 0.0011 0.22186 0.0
H371 H 0.25083 0.94964 0.34826 0.0
H372 H 0.27757 0.99829 0.39145 0.0
H373 H 0.29201 0.98102 0.4099 0.0
H374 H 0.26793 0.9813 0.43391 0.0
H375 H 0.25431 0.95392 0.41033 0.0
H376 H 0.27214 0.94369 0.37368 0.0
C377 C 0.27476 0.98339 0.1556 0.0
C378 C 0.28881 0.01238 0.18807 0.0
C379 C 0.34265 0.94126 0.36911 0.0
C380 C 0.33782 0.93703 0.41796 0.0
C381 C 0.31963 0.94095 0.43635 0.0
C382 C 0.30673 0.94945 0.40685 0.0
C383 C 0.31211 0.95421 0.35846 0.0
C384 C 0.32972 0.94985 0.34038 0.0
C385 C 0.33339 0.95636 0.2889 0.0
C386 C 0.31507 0.96546 0.27886 0.0
C387 C 0.3027 0.96418 0.31956 0.0
C388 C 0.33591 0.93983 0.25814 0.0
C389 C 0.35073 0.96978 0.28701 0.0
C390 C 0.23791 0.98738 0.35646 0.0
C391 C 0.22464 0.99644 0.32967 0.0
C392 C 0.22917 0.0011 0.28057 0.0
C393 C 0.24693 0.99708 0.2591 0.0
C394 C 0.26012 0.988 0.2868 0.0
C395 C 0.25522 0.98317 0.33455 0.0
C396 C 0.27011 0.97288 0.35878 0.0
C397 C 0.28495 0.97228 0.31823 0.0
C398 C 0.2794 0.98134 0.27579 0.0
C399 C 0.26151 0.95407 0.37401 0.0
C400 C 0.27729 0.98376 0.40098 0.0
H401 H 0.34732 0.96519 0.19458 0.0
H402 H 0.30789 0.00221 0.08929 0.0
H403 H 0.30177 0.01834 0.20335 0.0
H404 H 0.27675 0.01578 0.21189 0.0
H405 H 0.28712 0.01889 0.15188 0.0
H406 H 0.27866 0.96984 0.1455 0.0
H407 H 0.27249 0.99138 0.12187 0.0
H408 H 0.26116 0.98161 0.17654 0.0
H409 H 0.35664 0.93884 0.35398 0.0
H410 H 0.31553 0.93777 0.47384 0.0
H411 H 0.29325 0.95233 0.42324 0.0
H412 H 0.32735 0.92811 0.27391 0.0
H413 H 0.35095 0.93605 0.25593 0.0
H414 H 0.33078 0.94177 0.22126 0.0
H415 H 0.35167 0.97682 0.32125 0.0
H416 H 0.34986 0.9806 0.25903 0.0
H417 H 0.36424 0.96295 0.28121 0.0
H418 H 0.35907 0.97421 0.11539 0.0
C419 C 0.33827 0.97314 0.17335 0.0
C420 C 0.45639 0.29851 0.0382 0.0
C421 C 0.45347 0.3166 0.0261 0.0
C422 C 0.45051 0.32841 0.06321 0.0
C423 C 0.45618 0.3052 0.12287 0.0
C424 C 0.45716 0.293 0.0873 0.0
C425 C 0.45909 0.27433 0.10879 0.0
H426 H 0.46984 0.22201 0.31287 0.0
C427 C 0.45975 0.29614 0.16933 0.0
C428 C 0.46087 0.27786 0.16219 0.0
H429 H 0.46148 0.20397 0.16984 0.0
H430 H 0.46111 0.23476 0.13844 0.0
H431 H 0.50051 0.25034 0.28006 0.0
H432 H 0.44098 0.25416 0.31282 0.0
H433 H 0.45325 0.27135 0.34134 0.0
H434 H 0.45821 0.24856 0.3562 0.0
H435 H 0.49163 0.25305 0.34046 0.0
H436 H 0.49817 0.27194 0.29994 0.0
C437 C 0.47724 0.26656 0.08685 0.0
C438 C 0.44074 0.26339 0.09957 0.0
C439 C 0.47949 0.33382 0.30645 0.0
C440 C 0.48643 0.32968 0.35211 0.0
C441 C 0.4863 0.31172 0.36889 0.0
C442 C 0.4799 0.29812 0.33992 0.0
C443 C 0.47374 0.3025 0.2935 0.0
C444 C 0.47333 0.32013 0.2779 0.0
C445 C 0.46662 0.32242 0.2275 0.0
C446 C 0.46405 0.30312 0.21433 0.0
C447 C 0.46813 0.29159 0.25311 0.0
C448 C 0.48262 0.33255 0.19628 0.0
C449 C 0.44754 0.33201 0.22965 0.0
C450 C 0.46764 0.22469 0.27489 0.0
C451 C 0.4652 0.2107 0.24394 0.0
C452 C 0.46312 0.21464 0.19437 0.0
C453 C 0.46276 0.23246 0.17641 0.0
C454 C 0.46469 0.24636 0.20839 0.0
C455 C 0.46745 0.24223 0.25657 0.0
C456 C 0.47057 0.25838 0.28525 0.0
C457 C 0.46781 0.27299 0.24739 0.0
C458 C 0.46439 0.26604 0.20215 0.0
C459 C 0.49119 0.25849 0.3027 0.0
C460 C 0.45505 0.25816 0.32637 0.0
H461 H 0.44998 0.33258 0.13767 0.0
H462 H 0.45827 0.28908 0.0103 0.0
H463 H 0.42808 0.27158 0.1044 0.0
H464 H 0.43823 0.25184 0.12515 0.0
H465 H 0.441 0.25874 0.06218 0.0
H466 H 0.48935 0.27644 0.08706 0.0
H467 H 0.47526 0.26305 0.04892 0.0
H468 H 0.48157 0.25462 0.10738 0.0
H469 H 0.47954 0.34744 0.29222 0.0
H470 H 0.49127 0.30819 0.40428 0.0
H471 H 0.48023 0.28472 0.35457 0.0
H472 H 0.49649 0.32647 0.20221 0.0
H473 H 0.48391 0.34671 0.20576 0.0
H474 H 0.48057 0.33235 0.15727 0.0
H475 H 0.44111 0.33192 0.26691 0.0
H476 H 0.43664 0.32533 0.20834 0.0
H477 H 0.44946 0.34616 0.21658 0.0
H478 H 0.44819 0.34234 0.05483 0.0
C479 C 0.45179 0.3228 0.11134 0.0
C480 C 0.03105 0.97697 0.76075 0.0
N481 N 0.00481 0.96522 0.63325 0.0
C482 C 0.01671 0.95144 0.63395 0.0
C483 C 0.01132 0.93522 0.6153 0.0
C484 C 0.99356 0.93306 0.59483 0.0
C485 C 0.98164 0.94763 0.59387 0.0
C486 C 0.98754 0.96363 0.61356 0.0
Zn487 Zn 0.01363 0.98783 0.66601 0.0
C488 C 0.98454 0.99974 0.7383 0.0
N489 N 0.03402 0.03266 0.74112 0.0
C490 C 0.0513 0.03408 0.76084 0.0
C491 C 0.02229 0.04657 0.74029 0.0
C492 C 0.0279 0.06277 0.75871 0.0
C493 C 0.0457 0.06478 0.77911 0.0
C494 C 0.0574 0.05005 0.78034 0.0
Zn495 Zn 0.02511 0.01006 0.70837 0.0
O496 O 0.02332 0.97171 0.72319 0.0
C497 C 0.05415 0.99815 0.63583 0.0
O498 O 0.03432 0.9935 0.76538 0.0
H499 H 0.00861 0.04523 0.72447 0.0
H500 H 0.03037 0.9529 0.6498 0.0
H501 H 0.06042 0.02288 0.76107 0.0
O502 O 0.04038 0.98745 0.62793 0.0
O503 O 0.05215 0.00913 0.66912 0.0
H504 H 0.97827 0.97473 0.61345 0.0
O505 O 0.01533 0.02616 0.65152 0.0
O506 O 0.00431 0.00444 0.60899 0.0
O507 O 0.99826 0.01051 0.74634 0.0
O508 O 0.98668 0.98871 0.7052 0.0
C509 C 0.00739 0.02096 0.6142 0.0
H510 H 0.0209 0.92438 0.6179 0.0
H511 H 0.96793 0.94675 0.57792 0.0
H512 H 0.01847 0.07373 0.75592 0.0
H513 H 0.07112 0.05079 0.7963 0.0
C514 C 0.49968 0.97617 0.64032 0.0
N515 N 0.50812 0.03158 0.61821 0.0
C516 C 0.50942 0.02865 0.57022 0.0
C517 C 0.50465 0.04179 0.53625 0.0
C518 C 0.49845 0.05819 0.55163 0.0
C519 C 0.49712 0.06081 0.60146 0.0
C520 C 0.50206 0.04729 0.63423 0.0
Zn521 Zn 0.51595 0.01191 0.66623 0.0
C522 C 0.4879 0.00483 0.74884 0.0
N523 N 0.53238 0.96948 0.76188 0.0
C524 C 0.53798 0.95358 0.74611 0.0
C525 C 0.5313 0.97256 0.80979 0.0
C526 C 0.53578 0.95937 0.84394 0.0
C527 C 0.54138 0.94273 0.82887 0.0
C528 C 0.54255 0.93997 0.7791 0.0
Zn529 Zn 0.52464 0.98918 0.71385 0.0
O530 O 0.50034 0.99273 0.62878 0.0
C531 C 0.55263 0.99626 0.63108 0.0
O532 O 0.50901 0.97046 0.67554 0.0
H533 H 0.52682 0.98528 0.82166 0.0
H534 H 0.51422 0.01606 0.55816 0.0
H535 H 0.5387 0.95137 0.70789 0.0
O536 O 0.54072 0.00808 0.62191 0.0
O537 O 0.54958 0.98577 0.66812 0.0
H538 H 0.5012 0.04939 0.6725 0.0
O539 O 0.54006 0.00842 0.75173 0.0
O540 O 0.53181 0.03061 0.70402 0.0
O541 O 0.49961 0.99281 0.75787 0.0
O542 O 0.49121 0.01548 0.71225 0.0
C543 C 0.54093 0.02494 0.73967 0.0
H544 H 0.50565 0.03906 0.49831 0.0
H545 H 0.49264 0.0733 0.61501 0.0
H546 H 0.53494 0.96225 0.88179 0.0
H547 H 0.54656 0.92731 0.76573 0.0
C548 C 0.53269 0.47855 0.60853 0.0
N549 N 0.4812 0.50387 0.62982 0.0
C550 C 0.48317 0.5061 0.58091 0.0
C551 C 0.46741 0.50883 0.55332 0.0
C552 C 0.44946 0.50974 0.57622 0.0
C553 C 0.44773 0.50759 0.6267 0.0
C554 C 0.46387 0.50446 0.65296 0.0
Zn555 Zn 0.50542 0.50037 0.66709 0.0
C556 C 0.5047 0.46718 0.7273 0.0
N557 N 0.55801 0.49338 0.73511 0.0
C558 C 0.57567 0.49735 0.71505 0.0
C559 C 0.55554 0.48733 0.78196 0.0
C560 C 0.57109 0.48479 0.81033 0.0
C561 C 0.58945 0.48878 0.79075 0.0
C562 C 0.5917 0.49526 0.74255 0.0
Zn563 Zn 0.53388 0.49674 0.69753 0.0
O564 O 0.51626 0.48483 0.61152 0.0
C565 C 0.53444 0.52987 0.63693 0.0
O566 O 0.5444 0.48174 0.64084 0.0
H567 H 0.54142 0.48457 0.79766 0.0
H568 H 0.49705 0.50599 0.56309 0.0
H569 H 0.57733 0.5022 0.67781 0.0
O570 O 0.51753 0.52401 0.63225 0.0
O571 O 0.54547 0.52085 0.66262 0.0
H572 H 0.46258 0.50268 0.69182 0.0
O573 O 0.52298 0.51169 0.75417 0.0
O574 O 0.49533 0.51589 0.72326 0.0
O575 O 0.5218 0.47273 0.73068 0.0
O576 O 0.4935 0.47657 0.70312 0.0
C577 C 0.50682 0.51853 0.75641 0.0
H578 H 0.4693 0.5107 0.51449 0.0
H579 H 0.43405 0.50824 0.64551 0.0
H580 H 0.56876 0.48003 0.84757 0.0
H581 H 0.60568 0.49845 0.72622 0.0
C582 C 0.039 0.52138 0.6351 0.0
N583 N 0.03753 0.46591 0.62994 0.0
C584 C 0.03594 0.46803 0.58137 0.0
C585 C 0.04259 0.45522 0.55074 0.0
C586 C 0.05104 0.44007 0.57016 0.0
C587 C 0.05259 0.43828 0.62043 0.0
C588 C 0.04569 0.4514 0.64976 0.0
Zn589 Zn 0.0272 0.48494 0.67346 0.0
C590 C 0.0536 0.49468 0.74955 0.0
N591 N 0.00525 0.52521 0.76194 0.0
C592 C 0.99802 0.53988 0.74033 0.0
C593 C 0.00643 0.52361 0.81073 0.0
C594 C 1.00057 0.53728 0.83966 0.0
C595 C 0.99352 0.55278 0.81814 0.0
C596 C 0.99206 0.55385 0.76781 0.0
Zn597 Zn 0.01549 0.50592 0.7192 0.0
O598 O 0.04035 0.50498 0.62732 0.0
C599 C 0.98916 0.49635 0.64293 0.0
O600 O 0.02929 0.52591 0.67176 0.0
H601 H 0.01227 0.51186 0.82719 0.0
H602 H 0.02947 0.47969 0.56625 0.0
H603 H 0.99714 0.54088 0.70154 0.0
O604 O 1.0024 0.48596 0.63315 0.0
O605 O 0.99074 0.50653 0.67796 0.0
H606 H 0.04676 0.44993 0.68845 0.0
O607 O 1.00213 0.48567 0.7655 0.0
O608 O 0.01363 0.46503 0.72051 0.0
O609 O 0.04023 0.50489 0.75972 0.0
O610 O 0.05207 0.48451 0.71446 0.0
C611 C 0.00371 0.46931 0.7571 0.0
H612 H 0.0413 0.45726 0.5122 0.0
H613 H 0.05879 0.42672 0.63705 0.0
H614 H 1.00208 0.53595 0.87827 0.0
H615 H 0.98643 0.56542 0.74975 0.0
C616 C 0.20588 0.0087 0.39825 0.0
C617 C 0.20615 0.00038 0.35392 0.0
C618 C 0.18891 0.00994 0.42557 0.0
C619 C 0.14256 0.98668 0.44817 0.0
H620 H 0.1297 0.0284 0.51743 0.0
C621 C 0.07219 0.98877 0.56204 0.0
C622 C 0.07177 0.99844 0.60421 0.0
C623 C 0.08823 0.9896 0.53052 0.0
C624 C 0.13316 0.01652 0.49901 0.0
H625 H 0.18873 0.98724 0.3029 0.0
H626 H 0.15895 0.98928 0.35086 0.0
H627 H 0.15772 0.02949 0.46281 0.0
H628 H 0.08819 0.01645 0.64641 0.0
H629 H 0.11644 0.01744 0.59241 0.0
H630 H 0.1185 0.97346 0.48522 0.0
C631 C 0.17193 0.99487 0.36441 0.0
C632 C 0.14921 0.0172 0.46734 0.0
C633 C 0.18892 0.99387 0.33667 0.0
C634 C 0.08798 0.00883 0.61428 0.0
C635 C 0.10416 0.00952 0.58293 0.0
C636 C 0.12665 0.98592 0.48021 0.0
C637 C 0.17177 0.00265 0.40965 0.0
C638 C 0.15414 0.00229 0.4415 0.0
C639 C 0.10451 -2e-05 0.54035 0.0
C640 C 0.12166 0.00082 0.50623 0.0
H641 H 0.21896 0.01378 0.41253 0.0
H642 H 0.18938 0.0159 0.46028 0.0
H643 H 0.1461 0.97484 0.42959 0.0
H644 H 0.05993 0.98076 0.55269 0.0
H645 H 0.08764 0.98233 0.49787 0.0
C646 C 0.47873 0.18037 0.25041 0.0
C647 C 0.46497 0.19223 0.2648 0.0
C648 C 0.4808 0.16436 0.27722 0.0
C649 C 0.47147 0.14595 0.40179 0.0
H650 H 0.48586 0.10128 0.34981 0.0
C651 C 0.47791 0.08305 0.52489 0.0
C652 C 0.49354 0.07249 0.51596 0.0
C653 C 0.47353 0.0967 0.49189 0.0
C654 C 0.48199 0.11371 0.36487 0.0
H655 H 0.44174 0.19624 0.31588 0.0
H656 H 0.4449 0.16821 0.36163 0.0
H657 H 0.47929 0.1264 0.29488 0.0
H658 H 0.51681 0.06808 0.46503 0.0
H659 H 0.50919 0.09192 0.40756 0.0
H660 H 0.47434 0.13346 0.47159 0.0
C661 C 0.45449 0.17136 0.33074 0.0
C662 C 0.47821 0.1281 0.33338 0.0
C663 C 0.45254 0.18733 0.3043 0.0
C664 C 0.50453 0.07579 0.47282 0.0
C665 C 0.50015 0.08946 0.4398 0.0
C666 C 0.47522 0.13162 0.43315 0.0
C667 C 0.46909 0.15997 0.3187 0.0
C668 C 0.47285 0.14439 0.3515 0.0
C669 C 0.48468 0.10019 0.4491 0.0
C670 C 0.4805 0.1153 0.41518 0.0
H671 H 0.48858 0.18395 0.22032 0.0
H672 H 0.49223 0.15593 0.26699 0.0
H673 H 0.46786 0.15841 0.41713 0.0
H674 H 0.46893 0.08067 0.55727 0.0
H675 H 0.46132 0.10449 0.49984 0.0
C676 C 0.319 0.541 0.30688 0.0
C677 C 0.31492 0.55917 0.30623 0.0
C678 C 0.33412 0.53464 0.33289 0.0
C679 C 0.35785 0.54226 0.44114 0.0
H680 H 0.40159 0.51897 0.3889 0.0
C681 C 0.4219 0.52823 0.55695 0.0
C682 C 0.43286 0.51359 0.54725 0.0
C683 C 0.40726 0.53284 0.52699 0.0
C684 C 0.38931 0.5251 0.40444 0.0
H685 H 0.32466 0.58504 0.32923 0.0
H686 H 0.35039 0.57375 0.37611 0.0
H687 H 0.37694 0.52846 0.33535 0.0
H688 H 0.43682 0.49187 0.49995 0.0
H689 H 0.41064 0.49924 0.44905 0.0
H690 H 0.36952 0.53848 0.5103 0.0
C691 C 0.34179 0.5645 0.35665 0.0
C692 C 0.37529 0.53064 0.37354 0.0
C693 C 0.32698 0.57091 0.33001 0.0
C694 C 0.4286 0.5033 0.50794 0.0
C695 C 0.4137 0.50767 0.47854 0.0
C696 C 0.37161 0.5364 0.47219 0.0
C697 C 0.34523 0.5463 0.35914 0.0
C698 C 0.35962 0.5395 0.39161 0.0
C699 C 0.40297 0.52268 0.48715 0.0
C700 C 0.38772 0.52798 0.45427 0.0
H701 H 0.30998 0.53154 0.28936 0.0
H702 H 0.33657 0.52052 0.3344 0.0
H703 H 0.34573 0.5489 0.45588 0.0
H704 H 0.4251 0.5365 0.5867 0.0
H705 H 0.39969 0.5447 0.53446 0.0
C706 C 0.08726 0.3176 0.30846 0.0
C707 C 0.10306 0.30808 0.32198 0.0
C708 C 0.08309 0.33349 0.33031 0.0
C709 C 0.09113 0.35521 0.44429 0.0
H710 H 0.06939 0.39607 0.38093 0.0
C711 C 0.07528 0.41807 0.54689 0.0
C712 C 0.05807 0.42617 0.53827 0.0
C713 C 0.08169 0.40473 0.51761 0.0
C714 C 0.07531 0.38469 0.39921 0.0
H715 H 0.12772 0.30839 0.36583 0.0
H716 H 0.12068 0.33617 0.40323 0.0
H717 H 0.07935 0.37128 0.33328 0.0
H718 H 0.0341 0.42655 0.49194 0.0
H719 H 0.04521 0.40319 0.44107 0.0
H720 H 0.08688 0.36836 0.5102 0.0
C721 C 0.11118 0.33118 0.37689 0.0
C722 C 0.08103 0.3705 0.37188 0.0
C723 C 0.11528 0.31533 0.35529 0.0
C724 C 0.04754 0.42074 0.49924 0.0
C725 C 0.05393 0.40736 0.47 0.0
C726 C 0.08541 0.36934 0.47153 0.0
C727 C 0.0947 0.34015 0.36593 0.0
C728 C 0.08903 0.35559 0.39413 0.0
C729 C 0.07102 0.39909 0.47904 0.0
C730 C 0.07741 0.38426 0.44942 0.0
H731 H 0.07755 0.31226 0.2831 0.0
H732 H 0.07025 0.34003 0.32114 0.0
H733 H 0.09682 0.34377 0.46284 0.0
H734 H 0.08391 0.42215 0.57609 0.0
H735 H 0.09508 0.39889 0.5251 0.0
C736 C 0.84807 0.01157 0.02456 0.0
C737 C 0.83153 0.00185 0.01392 0.0
C738 C 0.86521 0.00929 0.99852 0.0
C739 C 0.88213 0.9945 0.87879 0.0
H740 H 0.93189 0.00052 0.93087 0.0
C741 C 0.9516 0.98728 0.76248 0.0
C742 C 0.96676 0.99946 0.76932 0.0
C743 C 0.93534 0.98652 0.79347 0.0
C744 C 0.9181 0.99896 0.9156 0.0
H745 H 0.82002 0.98168 0.96918 0.0
H746 H 0.84995 0.9771 0.9251 0.0
H747 H 0.90369 0.00011 0.9848 0.0
H748 H 0.97648 0.02052 0.81425 0.0
H749 H 0.9482 0.01931 0.86768 0.0
H750 H 0.89651 0.99345 0.8096 0.0
C751 C 0.84976 0.98676 0.95278 0.0
C752 C 0.90188 0.99871 0.94663 0.0
C753 C 0.83266 0.98913 0.9786 0.0
C754 C 0.96513 0.01095 0.80775 0.0
C755 C 0.94894 0.01015 0.83877 0.0
C756 C 0.89833 0.99469 0.84783 0.0
C757 C 0.86615 0.99725 0.9611 0.0
C758 C 0.88362 0.99658 0.92868 0.0
C759 C 0.93382 0.99788 0.83228 0.0
C760 C 0.91656 0.99706 0.86568 0.0
H761 H 0.84745 0.02178 0.05075 0.0
H762 H 0.8774 0.01775 0.00583 0.0
H763 H 0.86838 0.99321 0.86321 0.0
H764 H 0.95237 0.97816 0.73349 0.0
H765 H 0.9241 0.97679 0.78753 0.0
C766 C 0.58332 0.81079 0.0625 0.0
C767 C 0.57243 0.8056 0.10461 0.0
C768 C 0.58131 0.82744 0.03954 0.0
C769 C 0.54596 0.86112 0.02291 0.0
H770 H 0.5881 0.88865 0.95926 0.0
C771 C 0.53488 0.92577 0.90849 0.0
C772 C 0.54572 0.92832 0.86489 0.0
C773 C 0.5388 0.91215 0.9421 0.0
C774 C 0.57615 0.88105 0.97647 0.0
H775 H 0.55144 0.814 0.15685 0.0
H776 H 0.54785 0.8433 0.11656 0.0
H777 H 0.59424 0.86294 0.01211 0.0
H778 H 0.56943 0.91859 0.82305 0.0
H779 H 0.57591 0.89457 0.88093 0.0
H780 H 0.52783 0.87887 0.98628 0.0
C781 C 0.55789 0.83438 0.10124 0.0
C782 C 0.57968 0.86636 0.00694 0.0
C783 C 0.56006 0.81772 0.12455 0.0
C784 C 0.56064 0.91692 0.85594 0.0
C785 C 0.56453 0.90328 0.88952 0.0
C786 C 0.54241 0.87578 0.99229 0.0
C787 C 0.56825 0.83929 0.05794 0.0
C788 C 0.56462 0.85605 0.02994 0.0
C789 C 0.55363 0.90067 0.93301 0.0
C790 C 0.55746 0.88578 0.96807 0.0
H791 H 0.59303 0.80172 0.04649 0.0
H792 H 0.58938 0.83069 0.00609 0.0
H793 H 0.53402 0.85332 0.0395 0.0
H794 H 0.52313 0.93413 0.91643 0.0
H795 H 0.53021 0.91066 0.97536 0.0
C796 C 0.71287 0.4485 0.06441 0.0
C797 C 0.72594 0.46184 0.07707 0.0
C798 C 0.6976 0.45274 0.03633 0.0
C799 C 0.6836 0.48454 0.94352 0.0
H800 H 0.6328 0.465 0.97507 0.0
C801 C 0.61987 0.49986 0.82483 0.0
C802 C 0.60598 0.48619 0.82115 0.0
C803 C 0.63452 0.49784 0.85687 0.0
C804 C 0.64695 0.47037 0.96526 0.0
H805 H 0.73325 0.49007 0.07091 0.0
H806 H 0.70654 0.49751 0.0209 0.0
H807 H 0.65788 0.45996 0.03111 0.0
H808 H 0.59697 0.45942 0.84617 0.0
H809 H 0.62278 0.45559 0.90057 0.0
H810 H 0.67293 0.49441 0.8769 0.0
C811 C 0.70811 0.4838 0.03306 0.0
C812 C 0.66127 0.46758 0.99763 0.0
C813 C 0.72325 0.47958 0.06192 0.0
C814 C 0.60736 0.47027 0.84882 0.0
C815 C 0.62209 0.46815 0.88029 0.0
C816 C 0.66932 0.48715 0.91077 0.0
C817 C 0.69523 0.47038 0.01968 0.0
C818 C 0.67977 0.47449 0.98692 0.0
C819 C 0.63569 0.48202 0.88547 0.0
C820 C 0.65083 0.47993 0.92097 0.0
H821 H 0.71466 0.43473 0.07568 0.0
H822 H 0.68797 0.44212 0.02628 0.0
H823 H 0.69781 0.48987 0.93414 0.0
H824 H 0.61903 0.51233 0.80417 0.0
H825 H 0.6446 0.50888 0.86013 0.0
C826 C 0.94424 0.67674 0.067 0.0
C827 C 0.95114 0.693 0.04475 0.0
C828 C 0.94861 0.66058 0.04667 0.0
C829 C 0.96174 0.64342 0.92873 0.0
H830 H 0.97777 0.60154 0.99983 0.0
C831 C 0.99339 0.58551 0.83078 0.0
C832 C 0.98829 0.56803 0.84753 0.0
C833 C 0.98833 0.59996 0.85754 0.0
C834 C 0.97306 0.61305 0.97957 0.0
H835 H 0.96921 0.70498 0.98608 0.0
H836 H 0.9767 0.67702 0.95083 0.0
H837 H 0.97 0.62817 0.04301 0.0
H838 H 0.974 0.55203 0.90599 0.0
H839 H 0.965 0.57738 0.95279 0.0
H840 H 0.96467 0.62853 0.86544 0.0
C841 C 0.96755 0.67669 0.98315 0.0
C842 C 0.96864 0.62829 0.00431 0.0
C843 C 0.96326 0.69272 0.00339 0.0
C844 C 0.97824 0.56534 0.89222 0.0
C845 C 0.97311 0.57986 0.91905 0.0
C846 C 0.96605 0.62825 0.90415 0.0
C847 C 0.95992 0.66047 0.00378 0.0
C848 C 0.9633 0.64374 0.97894 0.0
C849 C 0.97795 0.59736 0.90177 0.0
C850 C 0.97213 0.61298 0.92904 0.0
H851 H 0.93487 0.67655 0.09889 0.0
H852 H 0.94256 0.64826 0.0634 0.0
H853 H 0.95723 0.65498 0.90828 0.0
H854 H 1.00151 0.58805 0.79707 0.0
H855 H 0.99272 0.61323 0.84365 0.0
C856 C 0.07113 0.15204 0.39969 0.0
C857 C 0.08743 0.14758 0.37269 0.0
C858 C 0.05933 0.1388 0.42324 0.0
C859 C 0.04376 0.09265 0.41498 0.0
H860 H 0.02963 0.09393 0.55093 0.0
C861 C 0.01521 0.03144 0.53 0.0
C862 C 0.00573 0.0341 0.57423 0.0
C863 C 0.02071 0.04601 0.49895 0.0
C864 C 0.03291 0.09353 0.5126 0.0
H865 H 0.10461 0.12565 0.35189 0.0
H866 H 0.0836 0.10252 0.39194 0.0
H867 H 0.04941 0.11801 0.51229 0.0
H868 H 0.99233 0.05339 0.61826 0.0
H869 H 1.00054 0.07867 0.56243 0.0
H870 H 0.02715 0.06829 0.41485 0.0
C871 C 0.07999 0.11632 0.3943 0.0
C872 C 0.04446 0.10729 0.4907 0.0
C873 C 0.09198 0.12957 0.37143 0.0
C874 C 0.99965 0.05109 0.58419 0.0
C875 C 0.00469 0.06559 0.55259 0.0
C876 C 0.03191 0.07901 0.43666 0.0
C877 C 0.06341 0.12082 0.41968 0.0
C878 C 0.0503 0.10677 0.44202 0.0
C879 C 0.01647 0.0634 0.51136 0.0
C880 C 0.02663 0.07908 0.48605 0.0
H881 H 0.06692 0.16569 0.40086 0.0
H882 H 0.0466 0.14256 0.44266 0.0
H883 H 0.04789 0.09214 0.37709 0.0
H884 H 0.02028 0.01846 0.522 0.0
H885 H 0.02978 0.04371 0.46768 0.0
C886 C 0.35527 0.93854 0.49425 0.0
C887 C 0.35261 0.9306 0.45012 0.0
C888 C 0.37166 0.93569 0.51943 0.0
C889 C 0.42099 0.92814 0.4897 0.0
H890 H 0.42572 0.93216 0.62734 0.0
C891 C 0.47944 0.96961 0.57143 0.0
C892 C 0.48676 0.96408 0.6156 0.0
C893 C 0.46514 0.95949 0.5512 0.0
C894 C 0.42472 0.93065 0.58893 0.0
H895 H 0.364 0.91191 0.40051 0.0
H896 H 0.39271 0.90697 0.44449 0.0
H897 H 0.39497 0.92386 0.59605 0.0
H898 H 0.48555 0.94317 0.67213 0.0
H899 H 0.46023 0.92554 0.63689 0.0
H900 H 0.45052 0.93576 0.48238 0.0
C901 C 0.38227 0.91565 0.45912 0.0
C902 C 0.40709 0.92605 0.57101 0.0
C903 C 0.36586 0.91849 0.43396 0.0
C904 C 0.48017 0.94775 0.63798 0.0
C905 C 0.46565 0.93771 0.61799 0.0
C906 C 0.43858 0.9328 0.5076 0.0
C907 C 0.38573 0.92483 0.50098 0.0
C908 C 0.40488 0.92546 0.52105 0.0
C909 C 0.45772 0.94369 0.57494 0.0
C910 C 0.44044 0.93482 0.55718 0.0
H911 H 0.34544 0.94806 0.5075 0.0
H912 H 0.37395 0.94311 0.55131 0.0
H913 H 0.41979 0.92793 0.45099 0.0
H914 H 0.48428 0.9821 0.55326 0.0
H915 H 0.45917 0.96456 0.51827 0.0
C916 C 0.48646 0.3608 0.38018 0.0
C917 C 0.49469 0.34411 0.38035 0.0
C918 C 0.49546 0.37511 0.40116 0.0
C919 C 0.5281 0.3878 0.49149 0.0
H920 H 0.53208 0.43248 0.41578 0.0
C921 C 0.55007 0.45262 0.57856 0.0
C922 C 0.53677 0.46576 0.57125 0.0
C923 C 0.55058 0.43806 0.549 0.0
C924 C 0.53116 0.4201 0.43733 0.0
H925 H 0.51849 0.32919 0.40462 0.0
H926 H 0.53391 0.35424 0.44297 0.0
H927 H 0.52069 0.40549 0.37901 0.0
H928 H 0.51487 0.47494 0.52481 0.0
H929 H 0.5157 0.44976 0.47367 0.0
H930 H 0.53744 0.40255 0.5507 0.0
C931 C 0.5206 0.35617 0.42582 0.0
C932 C 0.52463 0.40468 0.4163 0.0
C933 C 0.51168 0.34183 0.40423 0.0
C934 C 0.52519 0.46494 0.53148 0.0
C935 C 0.52577 0.45052 0.50192 0.0
C936 C 0.53447 0.40328 0.51274 0.0
C937 C 0.51277 0.37301 0.42336 0.0
C938 C 0.52243 0.38855 0.44367 0.0
C939 C 0.53792 0.43656 0.51148 0.0
C940 C 0.5354 0.41972 0.48633 0.0
H941 H 0.47317 0.3629 0.36311 0.0
H942 H 0.4889 0.38788 0.39988 0.0
H943 H 0.52651 0.37549 0.51329 0.0
H944 H 0.55916 0.45293 0.60899 0.0
H945 H 0.56026 0.42761 0.55683 0.0
C946 C 0.16374 0.603 0.40193 0.0
C947 C 0.15818 0.60942 0.35641 0.0
C948 C 0.15033 0.59895 0.43935 0.0
C949 C 0.09897 0.5983 0.47708 0.0
H950 H 0.1097 0.5505 0.52324 0.0
C951 C 0.0516 0.5527 0.61535 0.0
C952 C 0.04965 0.53481 0.60306 0.0
C953 C 0.06362 0.56473 0.58744 0.0
C954 C 0.10648 0.56384 0.51071 0.0
H955 H 0.13422 0.61916 0.31785 0.0
H956 H 0.11068 0.61085 0.38223 0.0
H957 H 0.13353 0.56784 0.47461 0.0
H958 H 0.05769 0.51586 0.55005 0.0
H959 H 0.07845 0.53674 0.50171 0.0
H960 H 0.07143 0.59367 0.5124 0.0
C961 C 0.12551 0.60907 0.38882 0.0
C962 C 0.12026 0.57393 0.48339 0.0
C963 C 0.13904 0.61356 0.35152 0.0
C964 C 0.05908 0.52946 0.56098 0.0
C965 C 0.07102 0.54141 0.5333 0.0
C966 C 0.08509 0.58812 0.50486 0.0
C967 C 0.13094 0.60073 0.43208 0.0
C968 C 0.11666 0.59121 0.46567 0.0
C969 C 0.07386 0.559 0.547 0.0
C970 C 0.08864 0.57065 0.52095 0.0
H971 H 0.17819 0.59954 0.40802 0.0
H972 H 0.15505 0.59307 0.47288 0.0
H973 H 0.0958 0.61158 0.46402 0.0
H974 H 0.04443 0.55723 0.64748 0.0
H975 H 0.06557 0.57824 0.5987 0.0
C976 C 0.94216 0.87018 0.00918 0.0
C977 C 0.94754 0.85248 0.00556 0.0
C978 C 0.95351 0.88423 0.98786 0.0
C979 C 1.00285 0.89432 0.93749 0.0
H980 H 0.98096 0.93771 0.88945 0.0
C981 C 0.0345 0.94617 0.79354 0.0
C982 C 0.03175 0.96415 0.80202 0.0
C983 C 0.02819 0.93293 0.82789 0.0
C984 C 0.98727 0.92577 0.90356 0.0
H985 H 0.96876 0.83581 0.97404 0.0
H986 H 0.98754 0.86007 0.9339 0.0
H987 H 0.96027 0.91362 0.92481 0.0
H988 H 0.02201 0.98256 0.85447 0.0
H989 H 0.01055 0.95932 0.91417 0.0
H990 H 0.02979 0.9063 0.91264 0.0
C991 C 0.97505 0.8632 0.95521 0.0
C992 C 0.97542 0.91192 0.92386 0.0
C993 C 0.96393 0.84918 0.97739 0.0
C994 C 0.02449 0.9688 0.84733 0.0
C995 C 0.01778 0.95553 0.88126 0.0
C996 C 0.01466 0.90806 0.91615 0.0
C997 C 0.97032 0.88095 0.96134 0.0
C998 C 0.98301 0.89592 0.94077 0.0
C999 C 0.01874 0.93752 0.87067 0.0
C1000 C 0.00693 0.92385 0.89889 0.0
H1001 H 0.92945 0.87328 0.02968 0.0
H1002 H 0.94935 0.89767 0.99365 0.0
H1003 H 0.00932 0.88242 0.95117 0.0
H1004 H 0.03995 0.9423 0.75869 0.0
H1005 H 0.02901 0.91912 0.81892 0.0
C1006 C 0.68088 0.06333 0.91194 0.0
C1007 C 0.6823 0.07331 0.95328 0.0
C1008 C 0.66579 0.06553 0.88161 0.0
C1009 C 0.61641 0.0752 0.89577 0.0
H1010 H 0.61626 0.06643 0.75933 0.0
C1011 C 0.56134 0.05284 0.74086 0.0
C1012 C 0.5538 0.03705 0.76445 0.0
C1013 C 0.57569 0.06288 0.76156 0.0
C1014 C 0.61602 0.06924 0.79724 0.0
H1015 H 0.67028 0.09491 0.99189 0.0
H1016 H 0.64372 0.09852 0.93922 0.0
H1017 H 0.64597 0.07523 0.79555 0.0
H1018 H 0.55444 0.01999 0.82929 0.0
H1019 H 0.57916 0.03767 0.86575 0.0
H1020 H 0.5867 0.0682 0.89804 0.0
C1021 C 0.65415 0.08884 0.93078 0.0
C1022 C 0.63303 0.07416 0.81798 0.0
C1023 C 0.66933 0.08673 0.96095 0.0
C1024 C 0.56003 0.03206 0.81025 0.0
C1025 C 0.5741 0.04225 0.83124 0.0
C1026 C 0.59947 0.07013 0.87513 0.0
C1027 C 0.65178 0.0777 0.89209 0.0
C1028 C 0.6335 0.07657 0.86779 0.0
C1029 C 0.58241 0.05749 0.80658 0.0
C1030 C 0.59925 0.06648 0.82607 0.0
H1031 H 0.69049 0.05279 0.90508 0.0
H1032 H 0.66428 0.05664 0.8523 0.0
H1033 H 0.61631 0.0768 0.93433 0.0
H1034 H 0.55684 0.05696 0.70541 0.0
H1035 H 0.58186 0.0746 0.74191 0.0
C1036 C 0.55373 0.63721 0.98267 0.0
C1037 C 0.54518 0.65375 0.98304 0.0
C1038 C 0.54491 0.62282 0.96161 0.0
C1039 C 0.51598 0.59291 0.94722 0.0
H1040 H 0.50264 0.59482 0.81322 0.0
C1041 C 0.51462 0.53225 0.83317 0.0
C1042 C 0.50295 0.53143 0.79359 0.0
C1043 C 0.51429 0.54678 0.86242 0.0
C1044 C 0.50577 0.59414 0.85108 0.0
H1045 H 0.52105 0.66833 0.95951 0.0
H1046 H 0.50595 0.64316 0.92098 0.0
H1047 H 0.51355 0.62198 0.85017 0.0
H1048 H 0.4806 0.5444 0.75598 0.0
H1049 H 0.47989 0.56985 0.80764 0.0
H1050 H 0.50865 0.56509 0.94818 0.0
C1051 C 0.51936 0.64141 0.9378 0.0
C1052 C 0.51213 0.60969 0.87205 0.0
C1053 C 0.52809 0.65582 0.95949 0.0
C1054 C 0.48978 0.5447 0.78623 0.0
C1055 C 0.4895 0.55934 0.81551 0.0
C1056 C 0.50945 0.57744 0.92649 0.0
C1057 C 0.52748 0.62469 0.93983 0.0
C1058 C 0.51796 0.60904 0.91973 0.0
C1059 C 0.50228 0.56084 0.85277 0.0
C1060 C 0.50499 0.57773 0.87763 0.0
H1061 H 0.56711 0.63528 0.99946 0.0
H1062 H 0.55169 0.61015 0.96256 0.0
H1063 H 0.52006 0.59218 0.98441 0.0
H1064 H 0.52485 0.52217 0.83991 0.0
H1065 H 0.52445 0.54752 0.89048 0.0
C1066 C 0.87269 0.39936 0.95638 0.0
C1067 C 0.87263 0.39156 0.00338 0.0
C1068 C 0.88931 0.40063 0.9273 0.0
C1069 C 0.93938 0.40727 0.94418 0.0
H1070 H 0.94204 0.40977 0.80434 0.0
C1071 C 0.99088 0.43798 0.77293 0.0
C1072 C 0.99317 0.45548 0.78808 0.0
C1073 C 0.97925 0.42542 0.79996 0.0
C1074 C 0.94172 0.40883 0.84338 0.0
H1075 H 0.88955 0.37716 0.05437 0.0
H1076 H 0.91873 0.37976 0.00373 0.0
H1077 H 0.91507 0.39412 0.84752 0.0
H1078 H 0.98586 0.47327 0.84459 0.0
H1079 H 0.96569 0.4514 0.89169 0.0
H1080 H 0.96555 0.4227 0.94004 0.0
C1081 C 0.9059 0.38506 0.98981 0.0
C1082 C 0.92622 0.39997 0.86808 0.0
C1083 C 0.8892 0.38363 0.01882 0.0
C1084 C 0.98433 0.45992 0.83185 0.0
C1085 C 0.97289 0.44734 0.85905 0.0
C1086 C 0.9548 0.4162 0.9195 0.0
C1087 C 0.90629 0.39424 0.94458 0.0
C1088 C 0.92454 0.39969 0.91869 0.0
C1089 C 0.96991 0.43007 0.84293 0.0
C1090 C 0.95576 0.41766 0.86887 0.0
H1091 H 0.86036 0.40582 0.94327 0.0
H1092 H 0.88915 0.40794 0.89284 0.0
H1093 H 0.93845 0.40742 0.98317 0.0
H1094 H 0.99754 0.43414 0.73936 0.0
H1095 H 0.97728 0.41218 0.78683 0.0
C1096 C 0.08301 0.20572 0.96861 0.0
C1097 C 0.10205 0.2062 0.98116 0.0
C1098 C 0.07649 0.19333 0.93643 0.0
C1099 C 0.09037 0.15977 0.8493 0.0
H1100 H 0.04929 0.13108 0.91384 0.0
C1101 C 0.07105 0.08825 0.79411 0.0
C1102 C 0.05193 0.08217 0.79835 0.0
C1103 C 0.07672 0.10473 0.81139 0.0
C1104 C 0.06049 0.13906 0.89455 0.0
H1105 H 0.12956 0.19542 0.9668 0.0
H1106 H 0.11832 0.17411 0.90959 0.0
H1107 H 0.05954 0.15892 0.9471 0.0
H1108 H 0.02387 0.08882 0.82504 0.0
H1109 H 0.03352 0.11769 0.85263 0.0
H1110 H 0.09132 0.1399 0.79663 0.0
C1111 C 0.10838 0.18317 0.92465 0.0
C1112 C 0.06637 0.15507 0.91374 0.0
C1113 C 0.11485 0.19541 0.95725 0.0
C1114 C 0.03867 0.09307 0.82029 0.0
C1115 C 0.04429 0.10962 0.83692 0.0
C1116 C 0.0843 0.14382 0.82962 0.0
C1117 C 0.08896 0.18136 0.91593 0.0
C1118 C 0.0815 0.16552 0.89169 0.0
C1119 C 0.06341 0.11568 0.83297 0.0
C1120 C 0.06942 0.13311 0.85235 0.0
H1121 H 0.07283 0.21371 0.98707 0.0
H1122 H 0.06148 0.19234 0.92992 0.0
H1123 H 0.10207 0.16757 0.83153 0.0
H1124 H 0.08168 0.0804 0.77689 0.0
H1125 H 0.09162 0.10875 0.80829 0.0
C1126 C 0.3493 0.97963 0.01868 0.0
C1127 C 0.34299 0.99344 0.04684 0.0
C1128 C 0.36214 0.98311 0.97944 0.0
C1129 C 0.39921 0.01712 0.934 0.0
H1130 H 0.40471 0.98412 0.83168 0.0
C1131 C 0.4599 0.02128 0.78114 0.0
C1132 C 0.47016 0.00565 0.77945 0.0
C1133 C 0.44305 0.0217 0.80981 0.0
C1134 C 0.40332 0.99348 0.85996 0.0
H1135 H 0.34424 0.02191 0.05397 0.0
H1136 H 0.36608 0.02825 0.98373 0.0
H1137 H 0.37624 0.98216 0.88455 0.0
H1138 H 0.47056 0.97816 0.80616 0.0
H1139 H 0.44097 0.97876 0.85462 0.0
H1140 H 0.42634 0.02855 0.90816 0.0
C1141 C 0.36152 0.01458 0.99281 0.0
C1142 C 0.38703 0.99232 0.89065 0.0
C1143 C 0.34869 0.01103 0.03256 0.0
C1144 C 0.4631 0.99045 0.80675 0.0
C1145 C 0.44608 0.99075 0.83434 0.0
C1146 C 0.41535 0.01851 0.90253 0.0
C1147 C 0.36899 0.00058 0.96667 0.0
C1148 C 0.38494 0.00373 0.92924 0.0
C1149 C 0.43587 0.00636 0.83628 0.0
C1150 C 0.41781 0.00638 0.86604 0.0
H1151 H 0.34531 0.96591 0.02916 0.0
H1152 H 0.36756 0.97184 0.96124 0.0
H1153 H 0.39841 0.02606 0.96336 0.0
H1154 H 0.46496 0.03322 0.76058 0.0
H1155 H 0.43545 0.0339 0.81064 0.0
C1156 C 0.47352 0.32438 0.95186 0.0
C1157 C 0.4557 0.32431 0.97611 0.0
C1158 C 0.47818 0.33689 0.91397 0.0
C1159 C 0.46 0.37236 0.83246 0.0
H1160 H 0.50577 0.39835 0.86515 0.0
C1161 C 0.47919 0.44451 0.75734 0.0
C1162 C 0.49848 0.44954 0.74963 0.0
C1163 C 0.47372 0.42781 0.77909 0.0
C1164 C 0.49317 0.39114 0.85457 0.0
H1165 H 0.42812 0.33587 0.97675 0.0
H1166 H 0.43606 0.35745 0.91002 0.0
H1167 H 0.49678 0.37034 0.90788 0.0
H1168 H 0.52713 0.44068 0.75679 0.0
H1169 H 0.51771 0.4116 0.79272 0.0
H1170 H 0.45637 0.39329 0.77912 0.0
C1171 C 0.44651 0.34799 0.92023 0.0
C1172 C 0.48801 0.375 0.87921 0.0
C1173 C 0.44192 0.33559 0.95836 0.0
C1174 C 0.51213 0.43737 0.76295 0.0
C1175 C 0.5067 0.42066 0.78386 0.0
C1176 C 0.4653 0.38847 0.80724 0.0
C1177 C 0.46502 0.34943 0.89949 0.0
C1178 C 0.4713 0.36548 0.86883 0.0
C1179 C 0.48744 0.41568 0.79298 0.0
C1180 C 0.48189 0.39818 0.81828 0.0
H1181 H 0.48445 0.31597 0.96516 0.0
H1182 H 0.49248 0.33753 0.89816 0.0
H1183 H 0.44702 0.36532 0.8237 0.0
H1184 H 0.46833 0.45359 0.74739 0.0
H1185 H 0.45876 0.42459 0.78596 0.0
C1186 C 0.19133 0.51543 1.00081 0.0
C1187 C 0.19548 0.53384 0.99846 0.0
C1188 C 0.17865 0.50797 0.96916 0.0
C1189 C 0.13925 0.50177 0.92857 0.0
H1190 H 0.13787 0.51499 0.7922 0.0
C1191 C 0.07075 0.5025 0.82313 0.0
C1192 C 0.07102 0.49527 0.77738 0.0
C1193 C 0.08737 0.50413 0.84842 0.0
C1194 C 0.13819 0.511 0.83011 0.0
H1195 H 0.19063 0.55875 0.95987 0.0
H1196 H 0.16887 0.5457 0.90376 0.0
H1197 H 0.16573 0.52345 0.83702 0.0
H1198 H 0.0889 0.48387 0.72247 0.0
H1199 H 0.11814 0.48715 0.76644 0.0
H1200 H 0.11137 0.49006 0.92221 0.0
C1201 C 0.1753 0.53702 0.93003 0.0
C1202 C 0.15406 0.51591 0.85575 0.0
C1203 C 0.1877 0.5445 0.96214 0.0
C1204 C 0.08824 0.48944 0.75774 0.0
C1205 C 0.10497 0.49139 0.78273 0.0
C1206 C 0.12327 0.49712 0.90312 0.0
C1207 C 0.17018 0.51878 0.93418 0.0
C1208 C 0.15462 0.5116 0.90542 0.0
C1209 C 0.10469 0.49883 0.82822 0.0
C1210 C 0.12245 0.50195 0.85384 0.0
H1211 H 0.19702 0.50699 0.02888 0.0
H1212 H 0.17498 0.49386 0.973 0.0
H1213 H 0.1392 0.49842 0.96692 0.0
H1214 H 0.0577 0.50708 0.83926 0.0
H1215 H 0.08677 0.51007 0.88322 0.0
C1216 C 0.92703 0.80108 0.41697 0.0
C1217 C 0.94007 0.79082 0.39205 0.0
C1218 C 0.9333 0.81347 0.4494 0.0
C1219 C 0.97452 0.84283 0.45871 0.0
H1220 H 0.94967 0.85717 0.57689 0.0
C1221 C 1.00107 0.9051 0.55273 0.0
C1222 C 0.98762 0.91566 0.57519 0.0
C1223 C 0.99577 0.88852 0.53583 0.0
C1224 C 0.95665 0.85348 0.54361 0.0
H1225 H 0.96958 0.78434 0.38443 0.0
H1226 H 0.98057 0.80593 0.44138 0.0
H1227 H 0.93959 0.82928 0.54204 0.0
H1228 H 0.95787 0.91683 0.59719 0.0
H1229 H 0.94845 0.88837 0.56544 0.0
H1230 H 0.9909 0.86724 0.45839 0.0
C1231 C 0.96553 0.80445 0.43565 0.0
C1232 C 0.95097 0.83741 0.52395 0.0
C1233 C 0.95922 0.79193 0.40358 0.0
C1234 C 0.96862 0.90923 0.57962 0.0
C1235 C 0.96326 0.8927 0.56212 0.0
C1236 C 0.98002 0.85895 0.47793 0.0
C1237 C 0.95274 0.81593 0.45705 0.0
C1238 C 0.95981 0.83196 0.48117 0.0
C1239 C 0.97678 0.88208 0.54006 0.0
C1240 C 0.97113 0.86458 0.52054 0.0
H1241 H 0.91221 0.80055 0.40833 0.0
H1242 H 0.92311 0.82214 0.46521 0.0
H1243 H 0.98131 0.83923 0.42506 0.0
H1244 H 0.01578 0.90964 0.54783 0.0
H1245 H 0.00668 0.8807 0.51972 0.0
C1246 C 0.6933 0.01865 0.36343 0.0
C1247 C 0.70164 0.00421 0.34146 0.0
C1248 C 0.67861 0.01588 0.3985 0.0
C1249 C 0.65399 0.98667 0.48937 0.0
H1250 H 0.60878 0.00908 0.44621 0.0
C1251 C 0.58174 0.98062 0.6016 0.0
C1252 C 0.57013 0.99539 0.5995 0.0
C1253 C 0.59817 0.98013 0.57131 0.0
C1254 C 0.62128 0.00295 0.45951 0.0
H1255 H 0.70207 0.97546 0.34234 0.0
H1256 H 0.67655 0.97059 0.40538 0.0
H1257 H 0.63758 0.01116 0.39505 0.0
H1258 H 0.56712 0.02143 0.56479 0.0
H1259 H 0.59575 0.02095 0.51403 0.0
H1260 H 0.63794 0.9791 0.55487 0.0
C1261 C 0.68136 0.98406 0.39452 0.0
C1262 C 0.63778 0.00403 0.42979 0.0
C1263 C 0.69602 0.98685 0.35868 0.0
C1264 C 0.57552 0.00972 0.567 0.0
C1265 C 0.59199 0.00935 0.53742 0.0
C1266 C 0.63748 0.98585 0.51973 0.0
C1267 C 0.67204 0.99859 0.41332 0.0
C1268 C 0.65438 0.99611 0.44452 0.0
C1269 C 0.60352 0.9945 0.53855 0.0
C1270 C 0.62092 0.99423 0.50553 0.0
H1271 H 0.69746 0.0322 0.35156 0.0
H1272 H 0.67187 0.02731 0.41283 0.0
H1273 H 0.66662 0.98046 0.50162 0.0
H1274 H 0.57801 0.96935 0.62622 0.0
H1275 H 0.60648 0.96837 0.57316 0.0
C1276 C 0.56585 0.67255 0.41208 0.0
C1277 C 0.58368 0.67257 0.38786 0.0
C1278 C 0.56114 0.66004 0.44992 0.0
C1279 C 0.57908 0.62468 0.53186 0.0
H1280 H 0.53361 0.59847 0.49803 0.0
C1281 C 0.55992 0.55263 0.60753 0.0
C1282 C 0.54063 0.54748 0.61445 0.0
C1283 C 0.56538 0.56932 0.58571 0.0
C1284 C 0.54611 0.60574 0.50895 0.0
H1285 H 0.61122 0.66092 0.38723 0.0
H1286 H 0.60318 0.63934 0.45395 0.0
H1287 H 0.54266 0.62646 0.45528 0.0
H1288 H 0.51197 0.55609 0.60587 0.0
H1289 H 0.52137 0.58517 0.56988 0.0
H1290 H 0.58253 0.60387 0.58562 0.0
C1291 C 0.59277 0.64885 0.4437 0.0
C1292 C 0.55131 0.62186 0.48429 0.0
C1293 C 0.59741 0.66123 0.40557 0.0
C1294 C 0.52696 0.5595 0.60028 0.0
C1295 C 0.53239 0.57622 0.57935 0.0
C1296 C 0.57373 0.6086 0.55714 0.0
C1297 C 0.57426 0.64747 0.46443 0.0
C1298 C 0.56792 0.63146 0.49507 0.0
C1299 C 0.55167 0.58131 0.57101 0.0
C1300 C 0.55724 0.5988 0.54569 0.0
H1301 H 0.55496 0.68101 0.39881 0.0
H1302 H 0.54684 0.65944 0.46571 0.0
H1303 H 0.59198 0.63178 0.5409 0.0
H1304 H 0.57078 0.54366 0.61816 0.0
H1305 H 0.58036 0.57262 0.57945 0.0
C1306 C 0.85768 0.48234 0.37074 0.0
C1307 C 0.85192 0.46427 0.37551 0.0
C1308 C 0.86926 0.48983 0.40483 0.0
C1309 C 0.90695 0.49411 0.45389 0.0
H1310 H 0.90377 0.48282 0.59169 0.0
C1311 C 0.97234 0.48862 0.56883 0.0
C1312 C 0.97205 0.49635 0.61393 0.0
C1313 C 0.95613 0.48809 0.54176 0.0
C1314 C 0.90474 0.4863 0.55338 0.0
H1315 H 0.85236 0.44022 0.42111 0.0
H1316 H 0.87226 0.45332 0.48106 0.0
H1317 H 0.87639 0.47633 0.54311 0.0
H1318 H 0.95453 0.50967 0.66592 0.0
H1319 H 0.92596 0.50836 0.61875 0.0
H1320 H 0.93554 0.50333 0.46375 0.0
C1321 C 0.86796 0.46173 0.45112 0.0
C1322 C 0.88913 0.48251 0.52558 0.0
C1323 C 0.85662 0.4542 0.41678 0.0
C1324 C 0.9552 0.50366 0.63124 0.0
C1325 C 0.93885 0.50286 0.6044 0.0
C1326 C 0.9226 0.49769 0.48155 0.0
C1327 C 0.87503 0.47941 0.44453 0.0
C1328 C 0.89022 0.48603 0.47537 0.0
C1329 C 0.93918 0.49506 0.55939 0.0
C1330 C 0.92181 0.49344 0.53137 0.0
H1331 H 0.85436 0.49031 0.33899 0.0
H1332 H 0.8744 0.50353 0.39905 0.0
H1333 H 0.90832 0.4968 0.41525 0.0
H1334 H 0.9851 0.48292 0.55443 0.0
H1335 H 0.95674 0.4818 0.50744 0.0
loop_
_geom_bond_atom_site_label_1
_geom_bond_atom_site_label_2
_geom_bond_distance
_geom_bond_site_symmetry_2
_ccdc_geom_bond_type
C0 C1 1.391 . S
C0 C4 1.391 . S
C0 H42 0.948 . S
C1 C0 1.391 . S
C1 C2 1.391 . S
C2 C1 1.391 . S
C2 H58 0.947 . S
C2 C59 1.392 . S
C3 C4 1.391 . S
C3 C7 1.397 . S
C3 C59 1.419 . S
C4 C0 1.391 . S
C4 C3 1.391 . S
C4 C5 1.399 . S
C5 C4 1.399 . S
C5 C8 1.396 . S
C5 C17 1.453 . S
C5 C18 1.684 . S
H6 C30 0.948 . S
C7 C3 1.397 . S
C7 C8 1.394 . S
C7 C26 1.723 . S
C8 C5 1.396 . S
C8 C7 1.394 . S
C8 C38 1.723 . S
H9 C32 0.947 . S
H10 C33 0.948 . S
H11 C39 0.982 . S
H12 C40 0.979 1_554 S
H13 C40 0.980 . S
H14 C40 0.983 . S
H15 C39 0.979 1_556 S
H16 C39 0.977 1_556 S
C17 C5 1.453 . S
C17 H46 0.982 . S
C17 H47 0.979 . S
C17 H48 0.977 . S
C18 C5 1.684 . S
C18 H43 0.979 . S
C18 H44 0.980 . S
C18 H45 0.983 . S
C19 C20 1.391 1_554 S
C19 C24 1.391 . S
C19 H49 0.948 . S
C20 C19 1.391 1_556 S
C20 C21 1.391 . S
C21 C20 1.391 . S
C21 C22 1.392 . S
C21 H50 0.947 . S
C22 C21 1.392 . S
C22 C23 1.419 1_556 S
C22 H51 0.948 . S
C23 C22 1.419 1_554 S
C23 C24 1.391 . S
C23 C27 1.397 . S
C24 C19 1.391 . S
C24 C23 1.391 . S
C24 C25 1.399 . S
C25 C24 1.399 . S
C25 C26 1.396 . S
C25 C28 1.453 . S
C25 C29 1.684 . S
C26 C7 1.723 . S
C26 C25 1.396 . S
C26 C27 1.394 . S
C27 C23 1.397 . S
C27 C26 1.394 . S
C27 C37 1.723 . S
C28 C25 1.453 . S
C28 H52 0.982 . S
C28 H53 0.979 . S
C28 H54 0.977 . S
C29 C25 1.684 . S
C29 H55 0.979 . S
C29 H56 0.980 . S
C29 H57 0.983 . S
C30 H6 0.948 . S
C30 C31 1.391 . S
C30 C35 1.391 . S
C31 C30 1.391 . S
C31 C32 1.391 . S
C32 H9 0.947 . S
C32 C31 1.391 . S
C32 C33 1.392 . S
C33 H10 0.948 . S
C33 C32 1.392 . S
C33 C34 1.419 . S
C34 C33 1.419 . S
C34 C35 1.391 . S
C34 C38 1.397 . S
C35 C30 1.391 . S
C35 C34 1.391 . S
C35 C36 1.399 . S
C36 C35 1.399 . S
C36 C37 1.396 . S
C36 C39 1.453 . S
C36 C40 1.684 1_554 S
C37 C27 1.723 . S
C37 C36 1.396 . S
C37 C38 1.394 . S
C38 C8 1.723 . S
C38 C34 1.397 . S
C38 C37 1.394 . S
C39 H11 0.982 . S
C39 H15 0.979 1_554 S
C39 H16 0.977 1_554 S
C39 C36 1.453 . S
C40 H12 0.979 1_556 S
C40 H13 0.980 . S
C40 H14 0.983 . S
C40 C36 1.684 1_556 S
H41 C59 0.948 . S
H42 C0 0.948 . S
H43 C18 0.979 . S
H44 C18 0.980 . S
H45 C18 0.983 . S
H46 C17 0.982 . S
H47 C17 0.979 . S
H48 C17 0.977 . S
H49 C19 0.948 . S
H50 C21 0.947 . S
H51 C22 0.948 . S
H52 C28 0.982 . S
H53 C28 0.979 . S
H54 C28 0.977 . S
H55 C29 0.979 . S
H56 C29 0.980 . S
H57 C29 0.983 . S
H58 C2 0.947 . S
C59 C2 1.392 . S
C59 C3 1.419 . S
C59 H41 0.948 . S
C60 C61 1.391 . S
C60 C64 1.391 . S
C60 H102 0.948 . S
C61 C60 1.391 . S
C61 C62 1.391 . S
C62 C61 1.391 . S
C62 H118 0.947 . S
C62 C119 1.392 . S
C63 C64 1.391 . S
C63 C67 1.397 . S
C63 C119 1.419 . S
C64 C60 1.391 . S
C64 C63 1.391 . S
C64 C65 1.399 . S
C65 C64 1.399 . S
C65 C68 1.396 . S
C65 C77 1.453 . S
C65 C78 1.684 . S
H66 C90 0.948 1_554 S
C67 C63 1.397 . S
C67 C68 1.394 . S
C67 C86 1.723 1_556 S
C68 C65 1.396 . S
C68 C67 1.394 . S
C68 C98 1.723 . S
H69 C92 0.947 . S
H70 C93 0.948 . S
H71 C99 0.982 . S
H72 C100 0.979 . S
H73 C100 0.980 . S
H74 C100 0.983 . S
H75 C99 0.979 . S
H76 C99 0.977 . S
C77 C65 1.453 . S
C77 H106 0.982 . S
C77 H107 0.979 . S
C77 H108 0.977 . S
C78 C65 1.684 . S
C78 H103 0.979 . S
C78 H104 0.980 . S
C78 H105 0.983 . S
C79 C80 1.391 . S
C79 C84 1.391 . S
C79 H109 0.948 . S
C80 C79 1.391 . S
C80 C81 1.391 . S
C81 C80 1.391 . S
C81 C82 1.392 . S
C81 H110 0.947 . S
C82 C81 1.392 . S
C82 C83 1.419 . S
C82 H111 0.948 . S
C83 C82 1.419 . S
C83 C84 1.391 . S
C83 C87 1.397 . S
C84 C79 1.391 . S
C84 C83 1.391 . S
C84 C85 1.399 . S
C85 C84 1.399 . S
C85 C86 1.396 . S
C85 C88 1.453 . S
C85 C89 1.684 . S
C86 C67 1.723 1_554 S
C86 C85 1.396 . S
C86 C87 1.394 . S
C87 C83 1.397 . S
C87 C86 1.394 . S
C87 C97 1.723 . S
C88 C85 1.453 . S
C88 H112 0.982 . S
C88 H113 0.979 . S
C88 H114 0.977 . S
C89 C85 1.684 . S
C89 H115 0.979 . S
C89 H116 0.980 . S
C89 H117 0.983 . S
C90 H66 0.948 1_556 S
C90 C91 1.391 . S
C90 C95 1.391 1_556 S
C91 C90 1.391 . S
C91 C92 1.391 . S
C92 H69 0.947 . S
C92 C91 1.391 . S
C92 C93 1.392 . S
C93 H70 0.948 . S
C93 C92 1.392 . S
C93 C94 1.419 . S
C94 C93 1.419 . S
C94 C95 1.391 1_556 S
C94 C98 1.397 . S
C95 C90 1.391 1_554 S
C95 C94 1.391 1_554 S
C95 C96 1.399 . S
C96 C95 1.399 . S
C96 C97 1.396 . S
C96 C99 1.453 . S
C96 C100 1.684 . S
C97 C87 1.723 . S
C97 C96 1.396 . S
C97 C98 1.394 1_554 S
C98 C68 1.723 . S
C98 C94 1.397 . S
C98 C97 1.394 1_556 S
C99 H71 0.982 . S
C99 H75 0.979 . S
C99 H76 0.977 . S
C99 C96 1.453 . S
C100 H72 0.979 . S
C100 H73 0.980 . S
C100 H74 0.983 . S
C100 C96 1.684 . S
H101 C119 0.948 . S
H102 C60 0.948 . S
H103 C78 0.979 . S
H104 C78 0.980 . S
H105 C78 0.983 . S
H106 C77 0.982 . S
H107 C77 0.979 . S
H108 C77 0.977 . S
H109 C79 0.948 . S
H110 C81 0.947 . S
H111 C82 0.948 . S
H112 C88 0.982 . S
H113 C88 0.979 . S
H114 C88 0.977 . S
H115 C89 0.979 . S
H116 C89 0.980 . S
H117 C89 0.983 . S
H118 C62 0.947 . S
C119 C62 1.392 . S
C119 C63 1.419 . S
C119 H101 0.948 . S
C120 C121 1.391 . S
C120 C124 1.391 . S
C120 H162 0.948 . S
C121 C120 1.391 . S
C121 C122 1.391 1_554 S
C122 C121 1.391 1_556 S
C122 H178 0.947 . S
C122 C179 1.392 . S
C123 C124 1.399 . S
C123 C127 1.392 1_565 S
C123 C179 1.429 1_554 S
C124 C120 1.391 . S
C124 C123 1.399 . S
C124 C125 1.399 . S
C125 C124 1.399 . S
C125 C128 1.387 1_565 S
C125 C137 1.453 1_565 S
C125 C138 1.684 . S
H126 C150 0.948 . S
C127 C123 1.392 1_545 S
C127 C128 1.390 . S
C127 C146 1.722 . S
C128 C125 1.387 1_545 S
C128 C127 1.390 . S
C128 C158 1.725 . S
H129 C152 0.947 . S
H130 C153 0.948 . S
H131 C159 0.982 . S
H132 C160 0.979 . S
H133 C160 0.980 . S
H134 C160 0.983 . S
H135 C159 0.979 . S
H136 C159 0.977 . S
C137 C125 1.453 1_545 S
C137 H166 0.982 . S
C137 H167 0.979 . S
C137 H168 0.977 . S
C138 C125 1.684 . S
C138 H163 0.979 . S
C138 H164 0.980 . S
C138 H165 0.983 . S
C139 C140 1.391 . S
C139 C144 1.391 . S
C139 H169 0.948 . S
C140 C139 1.391 . S
C140 C141 1.391 . S
C141 C140 1.391 . S
C141 C142 1.392 1_556 S
C141 H170 0.947 . S
C142 C141 1.392 1_554 S
C142 C143 1.422 . S
C142 H171 0.948 . S
C143 C142 1.422 . S
C143 C144 1.403 1_554 S
C143 C147 1.395 1_565 S
C144 C139 1.391 . S
C144 C143 1.403 1_556 S
C144 C145 1.399 . S
C145 C144 1.399 . S
C145 C146 1.387 1_566 S
C145 C148 1.453 1_565 S
C145 C149 1.684 . S
C146 C127 1.722 . S
C146 C145 1.387 1_544 S
C146 C147 1.396 . S
C147 C143 1.395 1_545 S
C147 C146 1.396 . S
C147 C157 1.719 . S
C148 C145 1.453 1_545 S
C148 H172 0.982 . S
C148 H173 0.979 . S
C148 H174 0.977 . S
C149 C145 1.684 . S
C149 H175 0.979 . S
C149 H176 0.980 . S
C149 H177 0.983 . S
C150 H126 0.948 . S
C150 C151 1.391 . S
C150 C155 1.391 . S
C151 C150 1.391 . S
C151 C152 1.391 . S
C152 H129 0.947 . S
C152 C151 1.391 . S
C152 C153 1.392 . S
C153 H130 0.948 . S
C153 C152 1.392 . S
C153 C154 1.425 . S
C154 C153 1.425 . S
C154 C155 1.397 . S
C154 C158 1.398 1_565 S
C155 C150 1.391 . S
C155 C154 1.397 . S
C155 C156 1.399 . S
C156 C155 1.399 . S
C156 C157 1.392 1_565 S
C156 C159 1.453 1_565 S
C156 C160 1.684 . S
C157 C147 1.719 . S
C157 C156 1.392 1_545 S
C157 C158 1.392 . S
C158 C128 1.725 . S
C158 C154 1.398 1_545 S
C158 C157 1.392 . S
C159 H131 0.982 . S
C159 H135 0.979 . S
C159 H136 0.977 . S
C159 C156 1.453 1_545 S
C160 H132 0.979 . S
C160 H133 0.980 . S
C160 H134 0.983 . S
C160 C156 1.684 . S
H161 C179 0.948 . S
H162 C120 0.948 . S
H163 C138 0.979 . S
H164 C138 0.980 . S
H165 C138 0.983 . S
H166 C137 0.982 . S
H167 C137 0.979 . S
H168 C137 0.977 . S
H169 C139 0.948 . S
H170 C141 0.947 . S
H171 C142 0.948 . S
H172 C148 0.982 . S
H173 C148 0.979 . S
H174 C148 0.977 . S
H175 C149 0.979 . S
H176 C149 0.980 . S
H177 C149 0.983 . S
H178 C122 0.947 . S
C179 C122 1.392 . S
C179 C123 1.429 1_556 S
C179 H161 0.948 . S
C180 C181 1.391 . S
C180 C184 1.391 . S
C180 H222 0.948 . S
C181 C180 1.391 . S
C181 C182 1.391 . S
C182 C181 1.391 . S
C182 H238 0.947 . S
C182 C239 1.392 . S
C183 C184 1.391 . S
C183 C187 1.397 . S
C183 C239 1.419 . S
C184 C180 1.391 . S
C184 C183 1.391 . S
C184 C185 1.399 . S
C185 C184 1.399 . S
C185 C188 1.396 . S
C185 C197 1.453 . S
C185 C198 1.684 . S
H186 C210 0.948 1_556 S
C187 C183 1.397 . S
C187 C188 1.394 . S
C187 C206 1.723 . S
C188 C185 1.396 . S
C188 C187 1.394 . S
C188 C218 1.723 . S
H189 C212 0.947 . S
H190 C213 0.948 . S
H191 C219 0.982 . S
H192 C220 0.979 . S
H193 C220 0.980 . S
H194 C220 0.983 . S
H195 C219 0.979 . S
H196 C219 0.977 . S
C197 C185 1.453 . S
C197 H226 0.982 . S
C197 H227 0.979 . S
C197 H228 0.977 . S
C198 C185 1.684 . S
C198 H223 0.979 . S
C198 H224 0.980 . S
C198 H225 0.983 . S
C199 C200 1.391 . S
C199 C204 1.391 1_556 S
C199 H229 0.948 . S
C200 C199 1.391 . S
C200 C201 1.391 . S
C201 C200 1.391 . S
C201 C202 1.392 . S
C201 H230 0.947 . S
C202 C201 1.392 . S
C202 C203 1.419 . S
C202 H231 0.948 . S
C203 C202 1.419 . S
C203 C204 1.391 1_556 S
C203 C207 1.397 1_556 S
C204 C199 1.391 1_554 S
C204 C203 1.391 1_554 S
C204 C205 1.399 . S
C205 C204 1.399 . S
C205 C206 1.396 . S
C205 C208 1.453 . S
C205 C209 1.684 . S
C206 C187 1.723 . S
C206 C205 1.396 . S
C206 C207 1.394 . S
C207 C203 1.397 1_554 S
C207 C206 1.394 . S
C207 C217 1.723 . S
C208 C205 1.453 . S
C208 H232 0.982 . S
C208 H233 0.979 . S
C208 H234 0.977 . S
C209 C205 1.684 . S
C209 H235 0.979 . S
C209 H236 0.980 . S
C209 H237 0.983 . S
C210 H186 0.948 1_554 S
C210 C211 1.391 . S
C210 C215 1.391 . S
C211 C210 1.391 . S
C211 C212 1.391 . S
C212 H189 0.947 . S
C212 C211 1.391 . S
C212 C213 1.392 . S
C213 H190 0.948 . S
C213 C212 1.392 . S
C213 C214 1.419 . S
C214 C213 1.419 . S
C214 C215 1.391 . S
C214 C218 1.397 . S
C215 C210 1.391 . S
C215 C214 1.391 . S
C215 C216 1.399 1_554 S
C216 C215 1.399 1_556 S
C216 C217 1.396 1_556 S
C216 C219 1.453 . S
C216 C220 1.684 . S
C217 C207 1.723 . S
C217 C216 1.396 1_554 S
C217 C218 1.394 . S
C218 C188 1.723 . S
C218 C214 1.397 . S
C218 C217 1.394 . S
C219 H191 0.982 . S
C219 H195 0.979 . S
C219 H196 0.977 . S
C219 C216 1.453 . S
C220 H192 0.979 . S
C220 H193 0.980 . S
C220 H194 0.983 . S
C220 C216 1.684 . S
H221 C239 0.948 . S
H222 C180 0.948 . S
H223 C198 0.979 . S
H224 C198 0.980 . S
H225 C198 0.983 . S
H226 C197 0.982 . S
H227 C197 0.979 . S
H228 C197 0.977 . S
H229 C199 0.948 . S
H230 C201 0.947 . S
H231 C202 0.948 . S
H232 C208 0.982 . S
H233 C208 0.979 . S
H234 C208 0.977 . S
H235 C209 0.979 . S
H236 C209 0.980 . S
H237 C209 0.983 . S
H238 C182 0.947 . S
C239 C182 1.392 . S
C239 C183 1.419 . S
C239 H221 0.948 . S
C240 C241 1.391 . S
C240 C244 1.391 . S
C240 H282 0.948 . S
C241 C240 1.391 . S
C241 C242 1.391 . S
C242 C241 1.391 . S
C242 H298 0.947 . S
C242 C299 1.392 . S
C243 C244 1.391 . S
C243 C247 1.397 . S
C243 C299 1.419 . S
C244 C240 1.391 . S
C244 C243 1.391 . S
C244 C245 1.399 . S
C245 C244 1.399 . S
C245 C248 1.396 . S
C245 C257 1.453 . S
C245 C258 1.684 . S
H246 C270 0.948 . S
C247 C243 1.397 . S
C247 C248 1.394 . S
C247 C266 1.723 . S
C248 C245 1.396 . S
C248 C247 1.394 . S
C248 C278 1.723 . S
H249 C272 0.947 . S
H250 C273 0.948 . S
H251 C279 0.982 . S
H252 C280 0.979 . S
H253 C280 0.980 . S
H254 C280 0.983 . S
H255 C279 0.979 . S
H256 C279 0.977 . S
C257 C245 1.453 . S
C257 H286 0.982 . S
C257 H287 0.979 . S
C257 H288 0.977 . S
C258 C245 1.684 . S
C258 H283 0.979 . S
C258 H284 0.980 . S
C258 H285 0.983 . S
C259 C260 1.391 . S
C259 C264 1.391 . S
C259 H289 0.948 . S
C260 C259 1.391 . S
C260 C261 1.391 . S
C261 C260 1.391 . S
C261 C262 1.392 . S
C261 H290 0.947 . S
C262 C261 1.392 . S
C262 C263 1.419 . S
C262 H291 0.948 . S
C263 C262 1.419 . S
C263 C264 1.391 . S
C263 C267 1.397 . S
C264 C259 1.391 . S
C264 C263 1.391 . S
C264 C265 1.399 . S
C265 C264 1.399 . S
C265 C266 1.396 . S
C265 C268 1.453 . S
C265 C269 1.684 . S
C266 C247 1.723 . S
C266 C265 1.396 . S
C266 C267 1.394 . S
C267 C263 1.397 . S
C267 C266 1.394 . S
C267 C277 1.723 . S
C268 C265 1.453 . S
C268 H292 0.982 . S
C268 H293 0.979 . S
C268 H294 0.977 . S
C269 C265 1.684 . S
C269 H295 0.979 . S
C269 H296 0.980 . S
C269 H297 0.983 . S
C270 H246 0.948 . S
C270 C271 1.391 . S
C270 C275 1.391 . S
C271 C270 1.391 . S
C271 C272 1.391 . S
C272 H249 0.947 . S
C272 C271 1.391 . S
C272 C273 1.392 . S
C273 H250 0.948 . S
C273 C272 1.392 . S
C273 C274 1.419 . S
C274 C273 1.419 . S
C274 C275 1.391 . S
C274 C278 1.397 . S
C275 C270 1.391 . S
C275 C274 1.391 . S
C275 C276 1.399 . S
C276 C275 1.399 . S
C276 C277 1.396 . S
C276 C279 1.453 . S
C276 C280 1.684 . S
C277 C267 1.723 . S
C277 C276 1.396 . S
C277 C278 1.394 . S
C278 C248 1.723 . S
C278 C274 1.397 . S
C278 C277 1.394 . S
C279 H251 0.982 . S
C279 H255 0.979 . S
C279 H256 0.977 . S
C279 C276 1.453 . S
C280 H252 0.979 . S
C280 H253 0.980 . S
C280 H254 0.983 . S
C280 C276 1.684 . S
H281 C299 0.948 . S
H282 C240 0.948 . S
H283 C258 0.979 . S
H284 C258 0.980 . S
H285 C258 0.983 . S
H286 C257 0.982 . S
H287 C257 0.979 . S
H288 C257 0.977 . S
H289 C259 0.948 . S
H290 C261 0.947 . S
H291 C262 0.948 . S
H292 C268 0.982 . S
H293 C268 0.979 . S
H294 C268 0.977 . S
H295 C269 0.979 . S
H296 C269 0.980 . S
H297 C269 0.983 . S
H298 C242 0.947 . S
C299 C242 1.392 . S
C299 C243 1.419 . S
C299 H281 0.948 . S
C300 C301 1.391 . S
C300 C304 1.391 . S
C300 H342 0.948 . S
C301 C300 1.391 . S
C301 C302 1.391 . S
C302 C301 1.391 . S
C302 H358 0.947 . S
C302 C359 1.392 . S
C303 C304 1.391 . S
C303 C307 1.397 . S
C303 C359 1.419 . S
C304 C300 1.391 . S
C304 C303 1.391 . S
C304 C305 1.399 . S
C305 C304 1.399 . S
C305 C308 1.396 . S
C305 C317 1.453 . S
C305 C318 1.684 . S
H306 C330 0.948 . S
C307 C303 1.397 . S
C307 C308 1.394 . S
C307 C326 1.723 . S
C308 C305 1.396 . S
C308 C307 1.394 . S
C308 C338 1.723 . S
H309 C332 0.947 . S
H310 C333 0.948 . S
H311 C339 0.982 . S
H312 C340 0.979 . S
H313 C340 0.980 . S
H314 C340 0.983 . S
H315 C339 0.979 . S
H316 C339 0.977 . S
C317 C305 1.453 . S
C317 H346 0.982 . S
C317 H347 0.979 . S
C317 H348 0.977 . S
C318 C305 1.684 . S
C318 H343 0.979 . S
C318 H344 0.980 . S
C318 H345 0.983 . S
C319 C320 1.391 . S
C319 C324 1.391 . S
C319 H349 0.948 . S
C320 C319 1.391 . S
C320 C321 1.391 . S
C321 C320 1.391 . S
C321 C322 1.392 . S
C321 H350 0.947 . S
C322 C321 1.392 . S
C322 C323 1.419 . S
C322 H351 0.948 . S
C323 C322 1.419 . S
C323 C324 1.391 . S
C323 C327 1.397 . S
C324 C319 1.391 . S
C324 C323 1.391 . S
C324 C325 1.399 . S
C325 C324 1.399 . S
C325 C326 1.396 . S
C325 C328 1.453 . S
C325 C329 1.684 . S
C326 C307 1.723 . S
C326 C325 1.396 . S
C326 C327 1.394 . S
C327 C323 1.397 . S
C327 C326 1.394 . S
C327 C337 1.723 . S
C328 C325 1.453 . S
C328 H352 0.982 . S
C328 H353 0.979 . S
C328 H354 0.977 . S
C329 C325 1.684 . S
C329 H355 0.979 . S
C329 H356 0.980 . S
C329 H357 0.983 . S
C330 H306 0.948 . S
C330 C331 1.391 . S
C330 C335 1.391 . S
C331 C330 1.391 . S
C331 C332 1.391 . S
C332 H309 0.947 . S
C332 C331 1.391 . S
C332 C333 1.392 . S
C333 H310 0.948 . S
C333 C332 1.392 . S
C333 C334 1.419 . S
C334 C333 1.419 . S
C334 C335 1.391 . S
C334 C338 1.397 . S
C335 C330 1.391 . S
C335 C334 1.391 . S
C335 C336 1.399 . S
C336 C335 1.399 . S
C336 C337 1.396 . S
C336 C339 1.453 . S
C336 C340 1.684 . S
C337 C327 1.723 . S
C337 C336 1.396 . S
C337 C338 1.394 . S
C338 C308 1.723 . S
C338 C334 1.397 . S
C338 C337 1.394 . S
C339 H311 0.982 . S
C339 H315 0.979 . S
C339 H316 0.977 . S
C339 C336 1.453 . S
C340 H312 0.979 . S
C340 H313 0.980 . S
C340 H314 0.983 . S
C340 C336 1.684 . S
H341 C359 0.948 . S
H342 C300 0.948 . S
H343 C318 0.979 . S
H344 C318 0.980 . S
H345 C318 0.983 . S
H346 C317 0.982 . S
H347 C317 0.979 . S
H348 C317 0.977 . S
H349 C319 0.948 . S
H350 C321 0.947 . S
H351 C322 0.948 . S
H352 C328 0.982 . S
H353 C328 0.979 . S
H354 C328 0.977 . S
H355 C329 0.979 . S
H356 C329 0.980 . S
H357 C329 0.983 . S
H358 C302 0.947 . S
C359 C302 1.392 . S
C359 C303 1.419 . S
C359 H341 0.948 . S
C360 C361 1.391 . S
C360 C364 1.391 . S
C360 H402 0.948 . S
C361 C360 1.391 . S
C361 C362 1.391 . S
C362 C361 1.391 . S
C362 H418 0.947 . S
C362 C419 1.392 . S
C363 C364 1.400 . S
C363 C367 1.398 1_545 S
C363 C419 1.422 . S
C364 C360 1.391 . S
C364 C363 1.400 . S
C364 C365 1.399 . S
C365 C364 1.399 . S
C365 C368 1.390 1_545 S
C365 C377 1.453 1_545 S
C365 C378 1.684 . S
H366 C390 0.948 . S
C367 C363 1.398 1_565 S
C367 C368 1.395 . S
C367 C386 1.723 . S
C368 C365 1.390 1_565 S
C368 C367 1.395 . S
C368 C398 1.718 . S
H369 C392 0.947 . S
H370 C393 0.948 . S
H371 C399 0.982 . S
H372 C400 0.979 . S
H373 C400 0.980 . S
H374 C400 0.983 . S
H375 C399 0.979 . S
H376 C399 0.977 . S
C377 C365 1.453 1_565 S
C377 H406 0.982 . S
C377 H407 0.979 . S
C377 H408 0.977 . S
C378 C365 1.684 . S
C378 H403 0.979 . S
C378 H404 0.980 . S
C378 H405 0.983 . S
C379 C380 1.391 . S
C379 C384 1.391 . S
C379 H409 0.948 . S
C380 C379 1.391 . S
C380 C381 1.391 . S
C381 C380 1.391 . S
C381 C382 1.392 . S
C381 H410 0.947 . S
C382 C381 1.392 . S
C382 C383 1.429 . S
C382 H411 0.948 . S
C383 C382 1.429 . S
C383 C384 1.396 . S
C383 C387 1.394 1_545 S
C384 C379 1.391 . S
C384 C383 1.396 . S
C384 C385 1.399 . S
C385 C384 1.399 . S
C385 C386 1.390 1_545 S
C385 C388 1.453 1_545 S
C385 C389 1.684 . S
C386 C367 1.723 . S
C386 C385 1.390 1_565 S
C386 C387 1.389 . S
C387 C383 1.394 1_565 S
C387 C386 1.389 . S
C387 C397 1.724 . S
C388 C385 1.453 1_565 S
C388 H412 0.982 . S
C388 H413 0.979 . S
C388 H414 0.977 . S
C389 C385 1.684 . S
C389 H415 0.979 . S
C389 H416 0.980 . S
C389 H417 0.983 . S
C390 H366 0.948 . S
C390 C391 1.391 . S
C390 C395 1.391 . S
C391 C390 1.391 . S
C391 C392 1.391 . S
C392 H369 0.947 . S
C392 C391 1.391 . S
C392 C393 1.392 . S
C393 H370 0.948 . S
C393 C392 1.392 . S
C393 C394 1.426 . S
C394 C393 1.426 . S
C394 C395 1.403 . S
C394 C398 1.392 1_545 S
C395 C390 1.391 . S
C395 C394 1.403 . S
C395 C396 1.399 . S
C396 C395 1.399 . S
C396 C397 1.385 1_545 S
C396 C399 1.453 1_545 S
C396 C400 1.684 . S
C397 C387 1.724 . S
C397 C396 1.385 1_565 S
C397 C398 1.394 . S
C398 C368 1.718 . S
C398 C394 1.392 1_565 S
C398 C397 1.394 . S
C399 H371 0.982 . S
C399 H375 0.979 . S
C399 H376 0.977 . S
C399 C396 1.453 1_565 S
C400 H372 0.979 . S
C400 H373 0.980 . S
C400 H374 0.983 . S
C400 C396 1.684 . S
H401 C419 0.948 . S
H402 C360 0.948 . S
H403 C378 0.979 . S
H404 C378 0.980 . S
H405 C378 0.983 . S
H406 C377 0.982 . S
H407 C377 0.979 . S
H408 C377 0.977 . S
H409 C379 0.948 . S
H410 C381 0.947 . S
H411 C382 0.948 . S
H412 C388 0.982 . S
H413 C388 0.979 . S
H414 C388 0.977 . S
H415 C389 0.979 . S
H416 C389 0.980 . S
H417 C389 0.983 . S
H418 C362 0.947 . S
C419 C362 1.392 . S
C419 C363 1.422 . S
C419 H401 0.948 . S
C420 C421 1.391 . S
C420 C424 1.391 . S
C420 H462 0.948 . S
C421 C420 1.391 . S
C421 C422 1.391 . S
C422 C421 1.391 . S
C422 H478 0.947 . S
C422 C479 1.392 . S
C423 C424 1.391 . S
C423 C427 1.397 . S
C423 C479 1.419 . S
C424 C420 1.391 . S
C424 C423 1.391 . S
C424 C425 1.399 . S
C425 C424 1.399 . S
C425 C428 1.396 . S
C425 C437 1.453 . S
C425 C438 1.684 . S
H426 C450 0.948 . S
C427 C423 1.397 . S
C427 C428 1.394 . S
C427 C446 1.723 . S
C428 C425 1.396 . S
C428 C427 1.394 . S
C428 C458 1.723 . S
H429 C452 0.947 . S
H430 C453 0.948 . S
H431 C459 0.982 . S
H432 C460 0.979 . S
H433 C460 0.980 . S
H434 C460 0.983 . S
H435 C459 0.979 . S
H436 C459 0.977 . S
C437 C425 1.453 . S
C437 H466 0.982 . S
C437 H467 0.979 . S
C437 H468 0.977 . S
C438 C425 1.684 . S
C438 H463 0.979 . S
C438 H464 0.980 . S
C438 H465 0.983 . S
C439 C440 1.391 . S
C439 C444 1.391 . S
C439 H469 0.948 . S
C440 C439 1.391 . S
C440 C441 1.391 . S
C441 C440 1.391 . S
C441 C442 1.392 . S
C441 H470 0.947 . S
C442 C441 1.392 . S
C442 C443 1.419 . S
C442 H471 0.948 . S
C443 C442 1.419 . S
C443 C444 1.391 . S
C443 C447 1.397 . S
C444 C439 1.391 . S
C444 C443 1.391 . S
C444 C445 1.399 . S
C445 C444 1.399 . S
C445 C446 1.396 . S
C445 C448 1.453 . S
C445 C449 1.684 . S
C446 C427 1.723 . S
C446 C445 1.396 . S
C446 C447 1.394 . S
C447 C443 1.397 . S
C447 C446 1.394 . S
C447 C457 1.723 . S
C448 C445 1.453 . S
C448 H472 0.982 . S
C448 H473 0.979 . S
C448 H474 0.977 . S
C449 C445 1.684 . S
C449 H475 0.979 . S
C449 H476 0.980 . S
C449 H477 0.983 . S
C450 H426 0.948 . S
C450 C451 1.391 . S
C450 C455 1.391 . S
C451 C450 1.391 . S
C451 C452 1.391 . S
C452 H429 0.947 . S
C452 C451 1.391 . S
C452 C453 1.392 . S
C453 H430 0.948 . S
C453 C452 1.392 . S
C453 C454 1.419 . S
C454 C453 1.419 . S
C454 C455 1.391 . S
C454 C458 1.397 . S
C455 C450 1.391 . S
C455 C454 1.391 . S
C455 C456 1.399 . S
C456 C455 1.399 . S
C456 C457 1.396 . S
C456 C459 1.453 . S
C456 C460 1.684 . S
C457 C447 1.723 . S
C457 C456 1.396 . S
C457 C458 1.394 . S
C458 C428 1.723 . S
C458 C454 1.397 . S
C458 C457 1.394 . S
C459 H431 0.982 . S
C459 H435 0.979 . S
C459 H436 0.977 . S
C459 C456 1.453 . S
C460 H432 0.979 . S
C460 H433 0.980 . S
C460 H434 0.983 . S
C460 C456 1.684 . S
H461 C479 0.948 . S
H462 C420 0.948 . S
H463 C438 0.979 . S
H464 C438 0.980 . S
H465 C438 0.983 . S
H466 C437 0.982 . S
H467 C437 0.979 . S
H468 C437 0.977 . S
H469 C439 0.948 . S
H470 C441 0.947 . S
H471 C442 0.948 . S
H472 C448 0.982 . S
H473 C448 0.979 . S
H474 C448 0.977 . S
H475 C449 0.979 . S
H476 C449 0.980 . S
H477 C449 0.983 . S
H478 C422 0.947 . S
C479 C422 1.392 . S
C479 C423 1.419 . S
C479 H461 0.948 . S
C480 O496 1.251 . S
C480 O498 1.254 . S
N481 C482 1.333 . S
N481 C486 1.307 1_455 S
N481 Zn487 2.020 . S
C482 N481 1.333 . S
C482 C483 1.379 1_455 S
C482 H500 0.952 . S
C483 C482 1.379 1_655 S
C483 C484 1.390 . S
C483 H510 0.953 . S
C484 C483 1.390 . S
C484 C485 1.357 . S
C485 C484 1.357 . S
C485 C486 1.370 . S
C485 H511 0.950 . S
C486 N481 1.307 1_655 S
C486 C485 1.370 . S
C486 H504 0.948 . S
Zn487 N481 2.020 . S
Zn487 O496 2.039 . S
Zn487 O502 2.034 . S
Zn487 O506 2.025 1_565 S
Zn487 O508 2.024 1_455 S
C488 O507 1.246 . S
C488 O508 1.249 1_545 S
N489 C490 1.307 . S
N489 C491 1.333 . S
N489 Zn495 2.020 . S
C490 N489 1.307 . S
C490 C494 1.370 . S
C490 H501 0.948 . S
C491 N489 1.333 . S
C491 C492 1.379 . S
C491 H499 0.952 . S
C492 C491 1.379 . S
C492 C493 1.390 . S
C492 H512 0.949 . S
C493 C492 1.390 . S
C493 C494 1.357 . S
C494 C490 1.370 . S
C494 C493 1.357 . S
C494 H513 0.950 . S
Zn495 N489 2.020 . S
Zn495 O498 2.025 1_545 S
Zn495 O503 2.024 . S
Zn495 O505 2.039 . S
Zn495 O507 2.034 1_455 S
O496 C480 1.251 . S
O496 Zn487 2.039 . S
C497 O502 1.246 . S
C497 O503 1.249 1_565 S
O498 C480 1.254 . S
O498 Zn495 2.025 1_565 S
H499 C491 0.952 . S
H500 C482 0.952 . S
H501 C490 0.948 . S
O502 Zn487 2.034 . S
O502 C497 1.246 . S
O503 Zn495 2.024 . S
O503 C497 1.249 1_545 S
H504 C486 0.948 . S
O505 Zn495 2.039 . S
O505 C509 1.251 . S
O506 Zn487 2.025 1_545 S
O506 C509 1.254 . S
O507 C488 1.246 . S
O507 Zn495 2.034 1_655 S
O508 Zn487 2.024 1_655 S
O508 C488 1.249 1_565 S
C509 O505 1.251 . S
C509 O506 1.254 . S
H510 C483 0.953 . S
H511 C485 0.950 . S
H512 C492 0.949 . S
H513 C494 0.950 . S
C514 O530 1.251 1_565 S
C514 O532 1.254 . S
N515 C516 1.333 . S
N515 C520 1.307 . S
N515 Zn521 2.020 . S
C516 N515 1.333 . S
C516 C517 1.379 . S
C516 H534 0.952 . S
C517 C516 1.379 . S
C517 C518 1.390 . S
C517 H544 0.949 . S
C518 C517 1.390 . S
C518 C519 1.357 . S
C519 C518 1.357 . S
C519 C520 1.370 . S
C519 H545 0.950 . S
C520 N515 1.307 . S
C520 C519 1.370 . S
C520 H538 0.948 . S
Zn521 N515 2.020 . S
Zn521 O530 2.039 . S
Zn521 O536 2.034 . S
Zn521 O540 2.025 . S
Zn521 O542 2.024 . S
C522 O541 1.246 1_545 S
C522 O542 1.249 . S
N523 C524 1.307 . S
N523 C525 1.333 . S
N523 Zn529 2.020 . S
C524 N523 1.307 . S
C524 C528 1.370 . S
C524 H535 0.948 . S
C525 N523 1.333 . S
C525 C526 1.379 . S
C525 H533 0.952 . S
C526 C525 1.379 . S
C526 C527 1.390 . S
C526 H546 0.949 . S
C527 C526 1.390 . S
C527 C528 1.357 . S
C528 C524 1.370 . S
C528 C527 1.357 . S
C528 H547 0.950 . S
Zn529 N523 2.020 . S
Zn529 O532 2.025 . S
Zn529 O537 2.024 . S
Zn529 O539 2.039 . S
Zn529 O541 2.034 . S
O530 C514 1.251 1_545 S
O530 Zn521 2.039 . S
C531 O536 1.246 1_565 S
C531 O537 1.249 . S
O532 C514 1.254 . S
O532 Zn529 2.025 . S
H533 C525 0.952 . S
H534 C516 0.952 . S
H535 C524 0.948 . S
O536 Zn521 2.034 . S
O536 C531 1.246 1_545 S
O537 Zn529 2.024 . S
O537 C531 1.249 . S
H538 C520 0.948 . S
O539 Zn529 2.039 . S
O539 C543 1.251 1_565 S
O540 Zn521 2.025 . S
O540 C543 1.254 . S
O541 C522 1.246 1_565 S
O541 Zn529 2.034 . S
O542 Zn521 2.024 . S
O542 C522 1.249 . S
C543 O539 1.251 1_545 S
C543 O540 1.254 . S
H544 C517 0.949 . S
H545 C519 0.950 . S
H546 C526 0.949 . S
H547 C528 0.950 . S
C548 O564 1.251 . S
C548 O566 1.254 . S
N549 C550 1.333 . S
N549 C554 1.307 . S
N549 Zn555 2.020 . S
C550 N549 1.333 . S
C550 C551 1.379 . S
C550 H568 0.952 . S
C551 C550 1.379 . S
C551 C552 1.390 . S
C551 H578 0.949 . S
C552 C551 1.390 . S
C552 C553 1.357 . S
C553 C552 1.357 . S
C553 C554 1.370 . S
C553 H579 0.950 . S
C554 N549 1.307 . S
C554 C553 1.370 . S
C554 H572 0.948 . S
Zn555 N549 2.020 . S
Zn555 O564 2.039 . S
Zn555 O570 2.034 . S
Zn555 O574 2.025 . S
Zn555 O576 2.024 . S
C556 O575 1.246 . S
C556 O576 1.249 . S
N557 C558 1.307 . S
N557 C559 1.333 . S
N557 Zn563 2.020 . S
C558 N557 1.307 . S
C558 C562 1.370 . S
C558 H569 0.948 . S
C559 N557 1.333 . S
C559 C560 1.379 . S
C559 H567 0.952 . S
C560 C559 1.379 . S
C560 C561 1.390 . S
C560 H580 0.949 . S
C561 C560 1.390 . S
C561 C562 1.357 . S
C562 C558 1.370 . S
C562 C561 1.357 . S
C562 H581 0.950 . S
Zn563 N557 2.020 . S
Zn563 O566 2.025 . S
Zn563 O571 2.024 . S
Zn563 O573 2.039 . S
Zn563 O575 2.034 . S
O564 C548 1.251 . S
O564 Zn555 2.039 . S
C565 O570 1.246 . S
C565 O571 1.249 . S
O566 C548 1.254 . S
O566 Zn563 2.025 . S
H567 C559 0.952 . S
H568 C550 0.952 . S
H569 C558 0.948 . S
O570 Zn555 2.034 . S
O570 C565 1.246 . S
O571 Zn563 2.024 . S
O571 C565 1.249 . S
H572 C554 0.948 . S
O573 Zn563 2.039 . S
O573 C577 1.251 . S
O574 Zn555 2.025 . S
O574 C577 1.254 . S
O575 C556 1.246 . S
O575 Zn563 2.034 . S
O576 Zn555 2.024 . S
O576 C556 1.249 . S
C577 O573 1.251 . S
C577 O574 1.254 . S
H578 C551 0.949 . S
H579 C553 0.950 . S
H580 C560 0.949 . S
H581 C562 0.950 . S
C582 O598 1.251 . S
C582 O600 1.254 . S
N583 C584 1.333 . S
N583 C588 1.307 . S
N583 Zn589 2.020 . S
C584 N583 1.333 . S
C584 C585 1.379 . S
C584 H602 0.952 . S
C585 C584 1.379 . S
C585 C586 1.390 . S
C585 H612 0.949 . S
C586 C585 1.390 . S
C586 C587 1.357 . S
C587 C586 1.357 . S
C587 C588 1.370 . S
C587 H613 0.950 . S
C588 N583 1.307 . S
C588 C587 1.370 . S
C588 H606 0.948 . S
Zn589 N583 2.020 . S
Zn589 O598 2.039 . S
Zn589 O604 2.034 . S
Zn589 O608 2.054 . S
Zn589 O610 2.024 . S
C590 O609 1.246 . S
C590 O610 1.249 . S
N591 C592 1.307 . S
N591 C593 1.333 1_455 S
N591 Zn597 2.020 . S
C592 N591 1.307 . S
C592 C596 1.370 . S
C592 H603 0.948 . S
C593 N591 1.333 1_655 S
C593 C594 1.379 . S
C593 H601 0.952 . S
C594 C593 1.379 . S
C594 C595 1.390 . S
C594 H614 0.949 . S
C595 C594 1.390 . S
C595 C596 1.357 1_655 S
C596 C592 1.370 . S
C596 C595 1.357 1_455 S
C596 H615 0.950 . S
Zn597 N591 2.020 . S
Zn597 O600 2.025 . S
Zn597 O605 2.024 1_455 S
Zn597 O607 2.039 1_455 S
Zn597 O609 2.034 . S
O598 C582 1.251 . S
O598 Zn589 2.039 . S
C599 O604 1.246 1_655 S
C599 O605 1.249 . S
O600 C582 1.254 . S
O600 Zn597 2.025 . S
H601 C593 0.952 . S
H602 C584 0.952 . S
H603 C592 0.948 . S
O604 Zn589 2.034 . S
O604 C599 1.246 1_455 S
O605 Zn597 2.024 1_655 S
O605 C599 1.249 . S
H606 C588 0.948 . S
O607 Zn597 2.039 1_655 S
O607 C611 1.251 . S
O608 Zn589 2.054 . S
O608 C611 1.232 1_455 S
O609 C590 1.246 . S
O609 Zn597 2.034 . S
O610 Zn589 2.024 . S
O610 C590 1.249 . S
C611 O607 1.251 . S
C611 O608 1.232 1_655 S
H612 C585 0.949 . S
H613 C587 0.950 . S
H614 C594 0.949 . S
H615 C596 0.950 . S
C616 C617 1.329 1_545 S
C616 C618 1.327 . S
C616 H641 0.950 . S
C617 C616 1.329 1_565 S
C617 C633 1.368 . S
C618 C616 1.327 . S
C618 C637 1.429 1_545 S
C618 H642 0.950 . S
C619 C636 1.574 . S
C619 C638 1.368 . S
C619 H643 0.949 . S
H620 C624 0.949 . S
C621 C622 1.349 . S
C621 C623 1.327 . S
C621 H644 0.950 . S
C622 C621 1.349 . S
C622 C634 1.349 1_565 S
C623 C621 1.327 . S
C623 C639 1.429 . S
C623 H645 0.950 . S
C624 H620 0.949 . S
C624 C632 1.574 . S
C624 C640 1.368 1_545 S
H625 C633 0.950 . S
H626 C631 0.950 . S
H627 C632 0.949 . S
H628 C634 0.950 . S
H629 C635 0.950 . S
H630 C636 0.949 . S
C631 H626 0.950 . S
C631 C633 1.327 . S
C631 C637 1.429 . S
C632 C624 1.574 . S
C632 H627 0.949 . S
C632 C638 1.368 1_545 S
C633 C617 1.368 . S
C633 H625 0.950 . S
C633 C631 1.327 . S
C634 C622 1.349 1_545 S
C634 H628 0.950 . S
C634 C635 1.327 . S
C635 H629 0.950 . S
C635 C634 1.327 . S
C635 C639 1.429 1_545 S
C636 C619 1.574 . S
C636 H630 0.949 . S
C636 C640 1.368 . S
C637 C618 1.429 1_565 S
C637 C631 1.429 . S
C637 C638 1.523 . S
C638 C619 1.368 . S
C638 C632 1.368 1_565 S
C638 C637 1.523 . S
C639 C623 1.429 . S
C639 C635 1.429 1_565 S
C639 C640 1.523 . S
C640 C624 1.368 1_565 S
C640 C636 1.368 . S
C640 C639 1.523 . S
H641 C616 0.950 . S
H642 C618 0.950 . S
H643 C619 0.949 . S
H644 C621 0.950 . S
H645 C623 0.950 . S
C646 C647 1.349 . S
C646 C648 1.327 . S
C646 H671 0.950 . S
C647 C646 1.349 . S
C647 C663 1.349 . S
C648 C646 1.327 . S
C648 C667 1.429 . S
C648 H672 0.950 . S
C649 C666 1.574 . S
C649 C668 1.368 . S
C649 H673 0.949 . S
H650 C654 0.949 . S
C651 C652 1.349 . S
C651 C653 1.327 . S
C651 H674 0.950 . S
C652 C651 1.349 . S
C652 C664 1.349 . S
C653 C651 1.327 . S
C653 C669 1.429 . S
C653 H675 0.950 . S
C654 H650 0.949 . S
C654 C662 1.574 . S
C654 C670 1.368 . S
H655 C663 0.950 . S
H656 C661 0.950 . S
H657 C662 0.949 . S
H658 C664 0.950 . S
H659 C665 0.950 . S
H660 C666 0.949 . S
C661 H656 0.950 . S
C661 C663 1.327 . S
C661 C667 1.429 . S
C662 C654 1.574 . S
C662 H657 0.949 . S
C662 C668 1.368 . S
C663 C647 1.349 . S
C663 H655 0.950 . S
C663 C661 1.327 . S
C664 C652 1.349 . S
C664 H658 0.950 . S
C664 C665 1.327 . S
C665 H659 0.950 . S
C665 C664 1.327 . S
C665 C669 1.429 . S
C666 C649 1.574 . S
C666 H660 0.949 . S
C666 C670 1.368 . S
C667 C648 1.429 . S
C667 C661 1.429 . S
C667 C668 1.523 . S
C668 C649 1.368 . S
C668 C662 1.368 . S
C668 C667 1.523 . S
C669 C653 1.429 . S
C669 C665 1.429 . S
C669 C670 1.523 . S
C670 C654 1.368 . S
C670 C666 1.368 . S
C670 C669 1.523 . S
H671 C646 0.950 . S
H672 C648 0.950 . S
H673 C649 0.949 . S
H674 C651 0.950 . S
H675 C653 0.950 . S
C676 C677 1.349 . S
C676 C678 1.327 . S
C676 H701 0.950 . S
C677 C676 1.349 . S
C677 C693 1.349 . S
C678 C676 1.327 . S
C678 C697 1.429 . S
C678 H702 0.950 . S
C679 C696 1.574 . S
C679 C698 1.368 . S
C679 H703 0.949 . S
H680 C684 0.949 . S
C681 C682 1.349 . S
C681 C683 1.327 . S
C681 H704 0.950 . S
C682 C681 1.349 . S
C682 C694 1.349 . S
C683 C681 1.327 . S
C683 C699 1.429 . S
C683 H705 0.950 . S
C684 H680 0.949 . S
C684 C692 1.574 . S
C684 C700 1.368 . S
H685 C693 0.950 . S
H686 C691 0.950 . S
H687 C692 0.949 . S
H688 C694 0.950 . S
H689 C695 0.950 . S
H690 C696 0.949 . S
C691 H686 0.950 . S
C691 C693 1.327 . S
C691 C697 1.429 . S
C692 C684 1.574 . S
C692 H687 0.949 . S
C692 C698 1.368 . S
C693 C677 1.349 . S
C693 H685 0.950 . S
C693 C691 1.327 . S
C694 C682 1.349 . S
C694 H688 0.950 . S
C694 C695 1.327 . S
C695 H689 0.950 . S
C695 C694 1.327 . S
C695 C699 1.429 . S
C696 C679 1.574 . S
C696 H690 0.949 . S
C696 C700 1.368 . S
C697 C678 1.429 . S
C697 C691 1.429 . S
C697 C698 1.523 . S
C698 C679 1.368 . S
C698 C692 1.368 . S
C698 C697 1.523 . S
C699 C683 1.429 . S
C699 C695 1.429 . S
C699 C700 1.523 . S
C700 C684 1.368 . S
C700 C696 1.368 . S
C700 C699 1.523 . S
H701 C676 0.950 . S
H702 C678 0.950 . S
H703 C679 0.949 . S
H704 C681 0.950 . S
H705 C683 0.950 . S
C706 C707 1.349 . S
C706 C708 1.327 . S
C706 H731 0.950 . S
C707 C706 1.349 . S
C707 C723 1.349 . S
C708 C706 1.327 . S
C708 C727 1.429 . S
C708 H732 0.950 . S
C709 C726 1.574 . S
C709 C728 1.368 . S
C709 H733 0.949 . S
H710 C714 0.949 . S
C711 C712 1.349 . S
C711 C713 1.327 . S
C711 H734 0.950 . S
C712 C711 1.349 . S
C712 C724 1.349 . S
C713 C711 1.327 . S
C713 C729 1.429 . S
C713 H735 0.950 . S
C714 H710 0.949 . S
C714 C722 1.574 . S
C714 C730 1.368 . S
H715 C723 0.950 . S
H716 C721 0.950 . S
H717 C722 0.949 . S
H718 C724 0.950 . S
H719 C725 0.950 . S
H720 C726 0.949 . S
C721 H716 0.950 . S
C721 C723 1.327 . S
C721 C727 1.429 . S
C722 C714 1.574 . S
C722 H717 0.949 . S
C722 C728 1.368 . S
C723 C707 1.349 . S
C723 H715 0.950 . S
C723 C721 1.327 . S
C724 C712 1.349 . S
C724 H718 0.950 . S
C724 C725 1.327 . S
C725 H719 0.950 . S
C725 C724 1.327 . S
C725 C729 1.429 . S
C726 C709 1.574 . S
C726 H720 0.949 . S
C726 C730 1.368 . S
C727 C708 1.429 . S
C727 C721 1.429 . S
C727 C728 1.523 . S
C728 C709 1.368 . S
C728 C722 1.368 . S
C728 C727 1.523 . S
C729 C713 1.429 . S
C729 C725 1.429 . S
C729 C730 1.523 . S
C730 C714 1.368 . S
C730 C726 1.368 . S
C730 C729 1.523 . S
H731 C706 0.950 . S
H732 C708 0.950 . S
H733 C709 0.949 . S
H734 C711 0.950 . S
H735 C713 0.950 . S
C736 C737 1.378 . S
C736 C738 1.327 . S
C736 H761 0.950 1_556 S
C737 C736 1.378 . S
C737 C753 1.319 1_545 S
C738 C736 1.327 . S
C738 C757 1.429 . S
C738 H762 0.950 . S
C739 C756 1.574 . S
C739 C758 1.368 1_565 S
C739 H763 0.949 . S
H740 C744 0.949 . S
C741 C742 1.349 1_565 S
C741 C743 1.327 . S
C741 H764 0.950 . S
C742 C741 1.349 1_545 S
C742 C754 1.349 . S
C743 C741 1.327 . S
C743 C759 1.429 1_565 S
C743 H765 0.950 . S
C744 H740 0.949 . S
C744 C752 1.574 . S
C744 C760 1.368 . S
H745 C753 0.950 . S
H746 C751 0.950 . S
H747 C752 0.949 . S
H748 C754 0.950 . S
H749 C755 0.950 . S
H750 C756 0.949 . S
C751 H746 0.950 . S
C751 C753 1.327 . S
C751 C757 1.429 1_565 S
C752 C744 1.574 . S
C752 H747 0.949 . S
C752 C758 1.368 . S
C753 C737 1.319 1_565 S
C753 H745 0.950 . S
C753 C751 1.327 . S
C754 C742 1.349 . S
C754 H748 0.950 . S
C754 C755 1.327 . S
C755 H749 0.950 . S
C755 C754 1.327 . S
C755 C759 1.429 . S
C756 C739 1.574 . S
C756 H750 0.949 . S
C756 C760 1.368 1_565 S
C757 C738 1.429 . S
C757 C751 1.429 1_545 S
C757 C758 1.523 . S
C758 C739 1.368 1_545 S
C758 C752 1.368 . S
C758 C757 1.523 . S
C759 C743 1.429 1_545 S
C759 C755 1.429 . S
C759 C760 1.523 . S
C760 C744 1.368 . S
C760 C756 1.368 1_545 S
C760 C759 1.523 . S
H761 C736 0.950 1_554 S
H762 C738 0.950 . S
H763 C739 0.949 . S
H764 C741 0.950 . S
H765 C743 0.950 . S
C766 C767 1.349 1_556 S
C766 C768 1.327 . S
C766 H791 0.950 . S
C767 C766 1.349 1_554 S
C767 C783 1.349 . S
C768 C766 1.327 . S
C768 C787 1.429 . S
C768 H792 0.950 . S
C769 C786 1.574 . S
C769 C788 1.368 . S
C769 H793 0.949 . S
H770 C774 0.949 . S
C771 C772 1.349 . S
C771 C773 1.327 . S
C771 H794 0.950 . S
C772 C771 1.349 . S
C772 C784 1.349 . S
C773 C771 1.327 . S
C773 C789 1.429 . S
C773 H795 0.950 . S
C774 H770 0.949 . S
C774 C782 1.574 . S
C774 C790 1.368 . S
H775 C783 0.950 . S
H776 C781 0.950 . S
H777 C782 0.949 . S
H778 C784 0.950 . S
H779 C785 0.950 . S
H780 C786 0.949 . S
C781 H776 0.950 . S
C781 C783 1.327 1_556 S
C781 C787 1.429 . S
C782 C774 1.574 . S
C782 H777 0.949 . S
C782 C788 1.368 . S
C783 C767 1.349 . S
C783 H775 0.950 . S
C783 C781 1.327 1_554 S
C784 C772 1.349 . S
C784 H778 0.950 . S
C784 C785 1.327 . S
C785 H779 0.950 . S
C785 C784 1.327 . S
C785 C789 1.429 . S
C786 C769 1.574 . S
C786 H780 0.949 . S
C786 C790 1.368 . S
C787 C768 1.429 . S
C787 C781 1.429 . S
C787 C788 1.523 . S
C788 C769 1.368 . S
C788 C782 1.368 . S
C788 C787 1.523 . S
C789 C773 1.429 . S
C789 C785 1.429 . S
C789 C790 1.523 . S
C790 C774 1.368 . S
C790 C786 1.368 . S
C790 C789 1.523 . S
H791 C766 0.950 . S
H792 C768 0.950 . S
H793 C769 0.949 . S
H794 C771 0.950 . S
H795 C773 0.950 . S
C796 C797 1.349 . S
C796 C798 1.327 . S
C796 H821 0.950 . S
C797 C796 1.349 . S
C797 C813 1.349 . S
C798 C796 1.327 . S
C798 C817 1.429 1_554 S
C798 H822 0.950 . S
C799 C816 1.574 . S
C799 C818 1.368 . S
C799 H823 0.949 . S
H800 C804 0.949 . S
C801 C802 1.349 . S
C801 C803 1.327 . S
C801 H824 0.950 . S
C802 C801 1.349 . S
C802 C814 1.349 . S
C803 C801 1.327 . S
C803 C819 1.429 . S
C803 H825 0.950 . S
C804 H800 0.949 . S
C804 C812 1.574 . S
C804 C820 1.368 . S
H805 C813 0.950 . S
H806 C811 0.950 . S
H807 C812 0.949 . S
H808 C814 0.950 . S
H809 C815 0.950 . S
H810 C816 0.949 . S
C811 H806 0.950 . S
C811 C813 1.327 1_556 S
C811 C817 1.429 . S
C812 C804 1.574 . S
C812 H807 0.949 . S
C812 C818 1.368 . S
C813 C797 1.349 . S
C813 H805 0.950 . S
C813 C811 1.327 1_554 S
C814 C802 1.349 . S
C814 H808 0.950 . S
C814 C815 1.327 . S
C815 H809 0.950 . S
C815 C814 1.327 . S
C815 C819 1.429 . S
C816 C799 1.574 . S
C816 H810 0.949 . S
C816 C820 1.368 . S
C817 C798 1.429 1_556 S
C817 C811 1.429 . S
C817 C818 1.523 . S
C818 C799 1.368 . S
C818 C812 1.368 . S
C818 C817 1.523 . S
C819 C803 1.429 . S
C819 C815 1.429 . S
C819 C820 1.523 . S
C820 C804 1.368 . S
C820 C816 1.368 . S
C820 C819 1.523 . S
H821 C796 0.950 . S
H822 C798 0.950 . S
H823 C799 0.949 . S
H824 C801 0.950 . S
H825 C803 0.950 . S
C826 C827 1.349 . S
C826 C828 1.327 . S
C826 H851 0.950 . S
C827 C826 1.349 . S
C827 C843 1.349 . S
C828 C826 1.327 . S
C828 C847 1.429 . S
C828 H852 0.950 . S
C829 C846 1.574 . S
C829 C848 1.368 . S
C829 H853 0.949 . S
H830 C834 0.949 . S
C831 C832 1.349 . S
C831 C833 1.327 . S
C831 H854 0.950 . S
C832 C831 1.349 . S
C832 C844 1.349 . S
C833 C831 1.327 . S
C833 C849 1.429 . S
C833 H855 0.950 . S
C834 H830 0.949 . S
C834 C842 1.574 . S
C834 C850 1.368 . S
H835 C843 0.950 . S
H836 C841 0.950 . S
H837 C842 0.949 . S
H838 C844 0.950 . S
H839 C845 0.950 . S
H840 C846 0.949 . S
C841 H836 0.950 . S
C841 C843 1.327 . S
C841 C847 1.429 . S
C842 C834 1.574 . S
C842 H837 0.949 . S
C842 C848 1.368 . S
C843 C827 1.349 . S
C843 H835 0.950 . S
C843 C841 1.327 . S
C844 C832 1.349 . S
C844 H838 0.950 . S
C844 C845 1.327 . S
C845 H839 0.950 . S
C845 C844 1.327 . S
C845 C849 1.429 . S
C846 C829 1.574 . S
C846 H840 0.949 . S
C846 C850 1.368 . S
C847 C828 1.429 . S
C847 C841 1.429 . S
C847 C848 1.523 . S
C848 C829 1.368 . S
C848 C842 1.368 . S
C848 C847 1.523 . S
C849 C833 1.429 . S
C849 C845 1.429 . S
C849 C850 1.523 . S
C850 C834 1.368 . S
C850 C846 1.368 . S
C850 C849 1.523 . S
H851 C826 0.950 . S
H852 C828 0.950 . S
H853 C829 0.949 . S
H854 C831 0.950 . S
H855 C833 0.950 . S
C856 C857 1.349 . S
C856 C858 1.327 . S
C856 H881 0.950 . S
C857 C856 1.349 . S
C857 C873 1.349 . S
C858 C856 1.327 . S
C858 C877 1.429 . S
C858 H882 0.950 . S
C859 C876 1.574 . S
C859 C878 1.368 . S
C859 H883 0.949 . S
H860 C864 0.949 . S
C861 C862 1.349 . S
C861 C863 1.327 . S
C861 H884 0.950 . S
C862 C861 1.349 . S
C862 C874 1.349 . S
C863 C861 1.327 . S
C863 C879 1.429 . S
C863 H885 0.950 . S
C864 H860 0.949 . S
C864 C872 1.574 . S
C864 C880 1.368 . S
H865 C873 0.950 . S
H866 C871 0.950 . S
H867 C872 0.949 . S
H868 C874 0.950 . S
H869 C875 0.950 . S
H870 C876 0.949 . S
C871 H866 0.950 . S
C871 C873 1.327 . S
C871 C877 1.429 . S
C872 C864 1.574 . S
C872 H867 0.949 . S
C872 C878 1.368 . S
C873 C857 1.349 . S
C873 H865 0.950 . S
C873 C871 1.327 . S
C874 C862 1.349 . S
C874 H868 0.950 . S
C874 C875 1.327 . S
C875 H869 0.950 . S
C875 C874 1.327 . S
C875 C879 1.429 . S
C876 C859 1.574 . S
C876 H870 0.949 . S
C876 C880 1.368 . S
C877 C858 1.429 . S
C877 C871 1.429 . S
C877 C878 1.523 . S
C878 C859 1.368 . S
C878 C872 1.368 . S
C878 C877 1.523 . S
C879 C863 1.429 . S
C879 C875 1.429 . S
C879 C880 1.523 . S
C880 C864 1.368 . S
C880 C876 1.368 . S
C880 C879 1.523 . S
H881 C856 0.950 . S
H882 C858 0.950 . S
H883 C859 0.949 . S
H884 C861 0.950 . S
H885 C863 0.950 . S
C886 C887 1.377 . S
C886 C888 1.327 . S
C886 H911 0.950 . S
C887 C886 1.377 . S
C887 C903 1.318 1_545 S
C888 C886 1.327 . S
C888 C907 1.429 1_545 S
C888 H912 0.950 . S
C889 C906 1.574 . S
C889 C908 1.368 . S
C889 H913 0.949 . S
H890 C894 0.949 . S
C891 C892 1.349 . S
C891 C893 1.327 . S
C891 H914 0.950 . S
C892 C891 1.349 . S
C892 C904 1.349 1_565 S
C893 C891 1.327 . S
C893 C909 1.429 . S
C893 H915 0.950 . S
C894 H890 0.949 . S
C894 C902 1.574 . S
C894 C910 1.368 1_545 S
H895 C903 0.950 . S
H896 C901 0.950 . S
H897 C902 0.949 . S
H898 C904 0.950 . S
H899 C905 0.950 . S
H900 C906 0.949 . S
C901 H896 0.950 . S
C901 C903 1.327 . S
C901 C907 1.429 . S
C902 C894 1.574 . S
C902 H897 0.949 . S
C902 C908 1.368 1_545 S
C903 C887 1.318 1_565 S
C903 H895 0.950 . S
C903 C901 1.327 . S
C904 C892 1.349 1_545 S
C904 H898 0.950 . S
C904 C905 1.327 . S
C905 H899 0.950 . S
C905 C904 1.327 . S
C905 C909 1.429 1_545 S
C906 C889 1.574 . S
C906 H900 0.949 . S
C906 C910 1.368 . S
C907 C888 1.429 1_565 S
C907 C901 1.429 . S
C907 C908 1.523 . S
C908 C889 1.368 . S
C908 C902 1.368 1_565 S
C908 C907 1.523 . S
C909 C893 1.429 . S
C909 C905 1.429 1_565 S
C909 C910 1.523 . S
C910 C894 1.368 1_565 S
C910 C906 1.368 . S
C910 C909 1.523 . S
H911 C886 0.950 . S
H912 C888 0.950 . S
H913 C889 0.949 . S
H914 C891 0.950 . S
H915 C893 0.950 . S
C916 C917 1.349 . S
C916 C918 1.327 . S
C916 H941 0.950 . S
C917 C916 1.349 . S
C917 C933 1.349 . S
C918 C916 1.327 . S
C918 C937 1.429 . S
C918 H942 0.950 . S
C919 C936 1.574 . S
C919 C938 1.368 . S
C919 H943 0.949 . S
H920 C924 0.949 . S
C921 C922 1.349 . S
C921 C923 1.327 . S
C921 H944 0.950 . S
C922 C921 1.349 . S
C922 C934 1.349 . S
C923 C921 1.327 . S
C923 C939 1.429 . S
C923 H945 0.950 . S
C924 H920 0.949 . S
C924 C932 1.574 . S
C924 C940 1.368 . S
H925 C933 0.950 . S
H926 C931 0.950 . S
H927 C932 0.949 . S
H928 C934 0.950 . S
H929 C935 0.950 . S
H930 C936 0.949 . S
C931 H926 0.950 . S
C931 C933 1.327 . S
C931 C937 1.429 . S
C932 C924 1.574 . S
C932 H927 0.949 . S
C932 C938 1.368 . S
C933 C917 1.349 . S
C933 H925 0.950 . S
C933 C931 1.327 . S
C934 C922 1.349 . S
C934 H928 0.950 . S
C934 C935 1.327 . S
C935 H929 0.950 . S
C935 C934 1.327 . S
C935 C939 1.429 . S
C936 C919 1.574 . S
C936 H930 0.949 . S
C936 C940 1.368 . S
C937 C918 1.429 . S
C937 C931 1.429 . S
C937 C938 1.523 . S
C938 C919 1.368 . S
C938 C932 1.368 . S
C938 C937 1.523 . S
C939 C923 1.429 . S
C939 C935 1.429 . S
C939 C940 1.523 . S
C940 C924 1.368 . S
C940 C936 1.368 . S
C940 C939 1.523 . S
H941 C916 0.950 . S
H942 C918 0.950 . S
H943 C919 0.949 . S
H944 C921 0.950 . S
H945 C923 0.950 . S
C946 C947 1.349 . S
C946 C948 1.327 . S
C946 H971 0.950 . S
C947 C946 1.349 . S
C947 C963 1.349 . S
C948 C946 1.327 . S
C948 C967 1.429 . S
C948 H972 0.950 . S
C949 C966 1.574 . S
C949 C968 1.368 . S
C949 H973 0.949 . S
H950 C954 0.949 . S
C951 C952 1.349 . S
C951 C953 1.327 . S
C951 H974 0.950 . S
C952 C951 1.349 . S
C952 C964 1.349 . S
C953 C951 1.327 . S
C953 C969 1.429 . S
C953 H975 0.950 . S
C954 H950 0.949 . S
C954 C962 1.574 . S
C954 C970 1.368 . S
H955 C963 0.950 . S
H956 C961 0.950 . S
H957 C962 0.949 . S
H958 C964 0.950 . S
H959 C965 0.950 . S
H960 C966 0.949 . S
C961 H956 0.950 . S
C961 C963 1.327 . S
C961 C967 1.429 . S
C962 C954 1.574 . S
C962 H957 0.949 . S
C962 C968 1.368 . S
C963 C947 1.349 . S
C963 H955 0.950 . S
C963 C961 1.327 . S
C964 C952 1.349 . S
C964 H958 0.950 . S
C964 C965 1.327 . S
C965 H959 0.950 . S
C965 C964 1.327 . S
C965 C969 1.429 . S
C966 C949 1.574 . S
C966 H960 0.949 . S
C966 C970 1.368 . S
C967 C948 1.429 . S
C967 C961 1.429 . S
C967 C968 1.523 . S
C968 C949 1.368 . S
C968 C962 1.368 . S
C968 C967 1.523 . S
C969 C953 1.429 . S
C969 C965 1.429 . S
C969 C970 1.523 . S
C970 C954 1.368 . S
C970 C966 1.368 . S
C970 C969 1.523 . S
H971 C946 0.950 . S
H972 C948 0.950 . S
H973 C949 0.949 . S
H974 C951 0.950 . S
H975 C953 0.950 . S
C976 C977 1.349 . S
C976 C978 1.327 . S
C976 H1001 0.950 . S
C977 C976 1.349 . S
C977 C993 1.349 . S
C978 C976 1.327 . S
C978 C997 1.429 . S
C978 H1002 0.950 . S
C979 C996 1.574 . S
C979 C998 1.368 . S
C979 H1003 0.949 . S
H980 C984 0.949 . S
C981 C982 1.349 . S
C981 C983 1.327 . S
C981 H1004 0.950 . S
C982 C981 1.349 . S
C982 C994 1.354 . S
C983 C981 1.327 . S
C983 C999 1.429 1_455 S
C983 H1005 0.950 . S
C984 H980 0.949 . S
C984 C992 1.574 . S
C984 C1000 1.368 . S
H985 C993 0.950 . S
H986 C991 0.950 . S
H987 C992 0.949 . S
H988 C994 0.948 1_655 S
H989 C995 0.950 . S
H990 C996 0.949 1_455 S
C991 H986 0.950 . S
C991 C993 1.327 . S
C991 C997 1.429 . S
C992 C984 1.574 . S
C992 H987 0.949 . S
C992 C998 1.368 . S
C993 C977 1.349 . S
C993 H985 0.950 . S
C993 C991 1.327 . S
C994 C982 1.354 . S
C994 H988 0.948 1_455 S
C994 C995 1.324 1_455 S
C995 H989 0.950 . S
C995 C994 1.324 1_655 S
C995 C999 1.429 . S
C996 C979 1.574 . S
C996 H990 0.949 1_655 S
C996 C1000 1.368 . S
C997 C978 1.429 . S
C997 C991 1.429 . S
C997 C998 1.523 . S
C998 C979 1.368 . S
C998 C992 1.368 . S
C998 C997 1.523 . S
C999 C983 1.429 1_655 S
C999 C995 1.429 . S
C999 C1000 1.523 . S
C1000 C984 1.368 . S
C1000 C996 1.368 . S
C1000 C999 1.523 . S
H1001 C976 0.950 . S
H1002 C978 0.950 . S
H1003 C979 0.949 . S
H1004 C981 0.950 . S
H1005 C983 0.950 . S
C1006 C1007 1.375 . S
C1006 C1008 1.327 . S
C1006 H1031 0.950 . S
C1007 C1006 1.375 . S
C1007 C1023 1.321 1_565 S
C1008 C1006 1.327 . S
C1008 C1027 1.429 1_565 S
C1008 H1032 0.950 . S
C1009 C1026 1.574 . S
C1009 C1028 1.368 . S
C1009 H1033 0.949 . S
H1010 C1014 0.949 . S
C1011 C1012 1.349 . S
C1011 C1013 1.327 . S
C1011 H1034 0.950 . S
C1012 C1011 1.349 . S
C1012 C1024 1.349 1_545 S
C1013 C1011 1.327 . S
C1013 C1029 1.429 . S
C1013 H1035 0.950 . S
C1014 H1010 0.949 . S
C1014 C1022 1.574 . S
C1014 C1030 1.368 1_565 S
H1015 C1023 0.950 . S
H1016 C1021 0.950 . S
H1017 C1022 0.949 . S
H1018 C1024 0.950 . S
H1019 C1025 0.950 . S
H1020 C1026 0.949 . S
C1021 H1016 0.950 . S
C1021 C1023 1.327 . S
C1021 C1027 1.429 . S
C1022 C1014 1.574 . S
C1022 H1017 0.949 . S
C1022 C1028 1.368 1_565 S
C1023 C1007 1.321 1_545 S
C1023 H1015 0.950 . S
C1023 C1021 1.327 . S
C1024 C1012 1.349 1_565 S
C1024 H1018 0.950 . S
C1024 C1025 1.327 . S
C1025 H1019 0.950 . S
C1025 C1024 1.327 . S
C1025 C1029 1.429 1_565 S
C1026 C1009 1.574 . S
C1026 H1020 0.949 . S
C1026 C1030 1.368 . S
C1027 C1008 1.429 1_545 S
C1027 C1021 1.429 . S
C1027 C1028 1.523 . S
C1028 C1009 1.368 . S
C1028 C1022 1.368 1_545 S
C1028 C1027 1.523 . S
C1029 C1013 1.429 . S
C1029 C1025 1.429 1_545 S
C1029 C1030 1.523 . S
C1030 C1014 1.368 1_545 S
C1030 C1026 1.368 . S
C1030 C1029 1.523 . S
H1031 C1006 0.950 . S
H1032 C1008 0.950 . S
H1033 C1009 0.949 . S
H1034 C1011 0.950 . S
H1035 C1013 0.950 . S
C1036 C1037 1.349 . S
C1036 C1038 1.327 . S
C1036 H1061 0.950 . S
C1037 C1036 1.349 . S
C1037 C1053 1.349 . S
C1038 C1036 1.327 . S
C1038 C1057 1.429 . S
C1038 H1062 0.950 . S
C1039 C1056 1.574 . S
C1039 C1058 1.368 . S
C1039 H1063 0.949 . S
H1040 C1044 0.949 . S
C1041 C1042 1.349 . S
C1041 C1043 1.327 . S
C1041 H1064 0.950 . S
C1042 C1041 1.349 . S
C1042 C1054 1.349 . S
C1043 C1041 1.327 . S
C1043 C1059 1.429 . S
C1043 H1065 0.950 . S
C1044 H1040 0.949 . S
C1044 C1052 1.574 . S
C1044 C1060 1.368 . S
H1045 C1053 0.950 . S
H1046 C1051 0.950 . S
H1047 C1052 0.949 . S
H1048 C1054 0.950 . S
H1049 C1055 0.950 . S
H1050 C1056 0.949 . S
C1051 H1046 0.950 . S
C1051 C1053 1.327 . S
C1051 C1057 1.429 . S
C1052 C1044 1.574 . S
C1052 H1047 0.949 . S
C1052 C1058 1.368 . S
C1053 C1037 1.349 . S
C1053 H1045 0.950 . S
C1053 C1051 1.327 . S
C1054 C1042 1.349 . S
C1054 H1048 0.950 . S
C1054 C1055 1.327 . S
C1055 H1049 0.950 . S
C1055 C1054 1.327 . S
C1055 C1059 1.429 . S
C1056 C1039 1.574 . S
C1056 H1050 0.949 . S
C1056 C1060 1.368 . S
C1057 C1038 1.429 . S
C1057 C1051 1.429 . S
C1057 C1058 1.523 . S
C1058 C1039 1.368 . S
C1058 C1052 1.368 . S
C1058 C1057 1.523 . S
C1059 C1043 1.429 . S
C1059 C1055 1.429 . S
C1059 C1060 1.523 . S
C1060 C1044 1.368 . S
C1060 C1056 1.368 . S
C1060 C1059 1.523 . S
H1061 C1036 0.950 . S
H1062 C1038 0.950 . S
H1063 C1039 0.949 . S
H1064 C1041 0.950 . S
H1065 C1043 0.950 . S
C1066 C1067 1.349 . S
C1066 C1068 1.327 . S
C1066 H1091 0.950 1_556 S
C1067 C1066 1.349 . S
C1067 C1083 1.349 . S
C1068 C1066 1.327 . S
C1068 C1087 1.429 . S
C1068 H1092 0.950 . S
C1069 C1086 1.574 . S
C1069 C1088 1.368 . S
C1069 H1093 0.949 . S
H1070 C1074 0.949 . S
C1071 C1072 1.349 . S
C1071 C1073 1.327 . S
C1071 H1094 0.950 . S
C1072 C1071 1.349 . S
C1072 C1084 1.349 . S
C1073 C1071 1.327 . S
C1073 C1089 1.429 . S
C1073 H1095 0.950 . S
C1074 H1070 0.949 . S
C1074 C1082 1.574 . S
C1074 C1090 1.368 . S
H1075 C1083 0.950 . S
H1076 C1081 0.950 . S
H1077 C1082 0.949 . S
H1078 C1084 0.950 . S
H1079 C1085 0.950 . S
H1080 C1086 0.949 . S
C1081 H1076 0.950 . S
C1081 C1083 1.327 . S
C1081 C1087 1.429 . S
C1082 C1074 1.574 . S
C1082 H1077 0.949 . S
C1082 C1088 1.368 . S
C1083 C1067 1.349 . S
C1083 H1075 0.950 . S
C1083 C1081 1.327 . S
C1084 C1072 1.349 . S
C1084 H1078 0.950 . S
C1084 C1085 1.327 . S
C1085 H1079 0.950 . S
C1085 C1084 1.327 . S
C1085 C1089 1.429 . S
C1086 C1069 1.574 . S
C1086 H1080 0.949 . S
C1086 C1090 1.368 . S
C1087 C1068 1.429 . S
C1087 C1081 1.429 . S
C1087 C1088 1.523 . S
C1088 C1069 1.368 . S
C1088 C1082 1.368 . S
C1088 C1087 1.523 . S
C1089 C1073 1.429 . S
C1089 C1085 1.429 . S
C1089 C1090 1.523 . S
C1090 C1074 1.368 . S
C1090 C1086 1.368 . S
C1090 C1089 1.523 . S
H1091 C1066 0.950 1_554 S
H1092 C1068 0.950 . S
H1093 C1069 0.949 . S
H1094 C1071 0.950 . S
H1095 C1073 0.950 . S
C1096 C1097 1.349 . S
C1096 C1098 1.327 . S
C1096 H1121 0.950 . S
C1097 C1096 1.349 . S
C1097 C1113 1.349 . S
C1098 C1096 1.327 . S
C1098 C1117 1.429 . S
C1098 H1122 0.950 . S
C1099 C1116 1.575 . S
C1099 C1118 1.366 1_556 S
C1099 H1123 0.950 . S
H1100 C1104 0.949 . S
C1101 C1102 1.349 . S
C1101 C1103 1.327 . S
C1101 H1124 0.950 . S
C1102 C1101 1.349 . S
C1102 C1114 1.349 . S
C1103 C1101 1.327 . S
C1103 C1119 1.429 . S
C1103 H1125 0.950 . S
C1104 H1100 0.949 . S
C1104 C1112 1.574 . S
C1104 C1120 1.368 1_554 S
H1105 C1113 0.950 . S
H1106 C1111 0.950 . S
H1107 C1112 0.949 . S
H1108 C1114 0.950 . S
H1109 C1115 0.950 1_554 S
H1110 C1116 0.949 . S
C1111 H1106 0.950 . S
C1111 C1113 1.327 . S
C1111 C1117 1.429 . S
C1112 C1104 1.574 . S
C1112 H1107 0.949 . S
C1112 C1118 1.368 . S
C1113 C1097 1.349 . S
C1113 H1105 0.950 . S
C1113 C1111 1.327 . S
C1114 C1102 1.349 . S
C1114 H1108 0.950 . S
C1114 C1115 1.327 . S
C1115 H1109 0.950 1_556 S
C1115 C1114 1.327 . S
C1115 C1119 1.429 . S
C1116 C1099 1.575 . S
C1116 H1110 0.949 . S
C1116 C1120 1.368 . S
C1117 C1098 1.429 . S
C1117 C1111 1.429 . S
C1117 C1118 1.523 . S
C1118 C1099 1.366 1_554 S
C1118 C1112 1.368 . S
C1118 C1117 1.523 . S
C1119 C1103 1.429 . S
C1119 C1115 1.429 . S
C1119 C1120 1.523 . S
C1120 C1104 1.368 1_556 S
C1120 C1116 1.368 . S
C1120 C1119 1.523 . S
H1121 C1096 0.950 . S
H1122 C1098 0.950 . S
H1123 C1099 0.950 . S
H1124 C1101 0.950 . S
H1125 C1103 0.950 . S
C1126 C1127 1.332 1_565 S
C1126 C1128 1.327 1_554 S
C1126 H1151 0.950 . S
C1127 C1126 1.332 1_545 S
C1127 C1143 1.365 . S
C1128 C1126 1.327 1_556 S
C1128 C1147 1.429 1_565 S
C1128 H1152 0.950 . S
C1129 C1146 1.574 . S
C1129 C1148 1.368 . S
C1129 H1153 0.949 . S
H1130 C1134 0.949 . S
C1131 C1132 1.349 . S
C1131 C1133 1.327 . S
C1131 H1154 0.950 . S
C1132 C1131 1.349 . S
C1132 C1144 1.349 1_545 S
C1133 C1131 1.327 . S
C1133 C1149 1.429 . S
C1133 H1155 0.950 . S
C1134 H1130 0.949 . S
C1134 C1142 1.574 . S
C1134 C1150 1.368 1_565 S
H1135 C1143 0.950 . S
H1136 C1141 0.950 . S
H1137 C1142 0.949 . S
H1138 C1144 0.950 . S
H1139 C1145 0.950 . S
H1140 C1146 0.949 . S
C1141 H1136 0.950 . S
C1141 C1143 1.327 . S
C1141 C1147 1.429 1_554 S
C1142 C1134 1.574 . S
C1142 H1137 0.949 . S
C1142 C1148 1.368 1_565 S
C1143 C1127 1.365 . S
C1143 H1135 0.950 . S
C1143 C1141 1.327 . S
C1144 C1132 1.349 1_565 S
C1144 H1138 0.950 . S
C1144 C1145 1.327 . S
C1145 H1139 0.950 . S
C1145 C1144 1.327 . S
C1145 C1149 1.429 1_565 S
C1146 C1129 1.574 . S
C1146 H1140 0.949 . S
C1146 C1150 1.368 . S
C1147 C1128 1.429 1_545 S
C1147 C1141 1.429 1_556 S
C1147 C1148 1.523 . S
C1148 C1129 1.368 . S
C1148 C1142 1.368 1_545 S
C1148 C1147 1.523 . S
C1149 C1133 1.429 . S
C1149 C1145 1.429 1_545 S
C1149 C1150 1.523 . S
C1150 C1134 1.368 1_545 S
C1150 C1146 1.368 . S
C1150 C1149 1.523 . S
H1151 C1126 0.950 . S
H1152 C1128 0.950 . S
H1153 C1129 0.949 . S
H1154 C1131 0.950 . S
H1155 C1133 0.950 . S
C1156 C1157 1.349 . S
C1156 C1158 1.327 . S
C1156 H1181 0.950 . S
C1157 C1156 1.349 . S
C1157 C1173 1.349 . S
C1158 C1156 1.327 . S
C1158 C1177 1.429 1_554 S
C1158 H1182 0.950 . S
C1159 C1176 1.574 . S
C1159 C1178 1.368 . S
C1159 H1183 0.949 . S
H1160 C1164 0.949 . S
C1161 C1162 1.349 . S
C1161 C1163 1.327 . S
C1161 H1184 0.950 . S
C1162 C1161 1.349 . S
C1162 C1174 1.349 . S
C1163 C1161 1.327 . S
C1163 C1179 1.429 . S
C1163 H1185 0.950 . S
C1164 H1160 0.949 . S
C1164 C1172 1.574 . S
C1164 C1180 1.368 . S
H1165 C1173 0.950 1_556 S
H1166 C1171 0.950 . S
H1167 C1172 0.949 1_554 S
H1168 C1174 0.950 . S
H1169 C1175 0.950 . S
H1170 C1176 0.949 . S
C1171 H1166 0.950 . S
C1171 C1173 1.327 1_556 S
C1171 C1177 1.429 . S
C1172 C1164 1.574 . S
C1172 H1167 0.949 1_556 S
C1172 C1178 1.368 . S
C1173 C1157 1.349 . S
C1173 H1165 0.950 1_554 S
C1173 C1171 1.327 1_554 S
C1174 C1162 1.349 . S
C1174 H1168 0.950 . S
C1174 C1175 1.327 . S
C1175 H1169 0.950 . S
C1175 C1174 1.327 . S
C1175 C1179 1.429 . S
C1176 C1159 1.574 . S
C1176 H1170 0.949 . S
C1176 C1180 1.368 . S
C1177 C1158 1.429 1_556 S
C1177 C1171 1.429 . S
C1177 C1178 1.523 . S
C1178 C1159 1.368 . S
C1178 C1172 1.368 . S
C1178 C1177 1.523 . S
C1179 C1163 1.429 . S
C1179 C1175 1.429 . S
C1179 C1180 1.523 . S
C1180 C1164 1.368 . S
C1180 C1176 1.368 . S
C1180 C1179 1.523 . S
H1181 C1156 0.950 . S
H1182 C1158 0.950 . S
H1183 C1159 0.949 . S
H1184 C1161 0.950 . S
H1185 C1163 0.950 . S
C1186 C1187 1.341 1_556 S
C1186 C1188 1.340 . S
C1186 H1211 0.945 1_556 S
C1187 C1186 1.341 1_554 S
C1187 C1203 1.349 . S
C1188 C1186 1.340 . S
C1188 C1207 1.429 . S
C1188 H1212 0.950 . S
C1189 C1206 1.574 . S
C1189 C1208 1.368 . S
C1189 H1213 0.949 . S
H1190 C1194 0.949 . S
C1191 C1192 1.349 . S
C1191 C1193 1.327 . S
C1191 H1214 0.950 . S
C1192 C1191 1.349 . S
C1192 C1204 1.349 . S
C1193 C1191 1.327 . S
C1193 C1209 1.429 . S
C1193 H1215 0.950 . S
C1194 H1190 0.949 . S
C1194 C1202 1.574 . S
C1194 C1210 1.368 . S
H1195 C1203 0.950 . S
H1196 C1201 0.950 . S
H1197 C1202 0.949 . S
H1198 C1204 0.950 . S
H1199 C1205 0.950 . S
H1200 C1206 0.949 . S
C1201 H1196 0.950 . S
C1201 C1203 1.327 1_556 S
C1201 C1207 1.429 . S
C1202 C1194 1.574 . S
C1202 H1197 0.949 . S
C1202 C1208 1.368 . S
C1203 C1187 1.349 . S
C1203 H1195 0.950 . S
C1203 C1201 1.327 1_554 S
C1204 C1192 1.349 . S
C1204 H1198 0.950 . S
C1204 C1205 1.327 . S
C1205 H1199 0.950 . S
C1205 C1204 1.327 . S
C1205 C1209 1.429 . S
C1206 C1189 1.574 . S
C1206 H1200 0.949 . S
C1206 C1210 1.368 . S
C1207 C1188 1.429 . S
C1207 C1201 1.429 . S
C1207 C1208 1.523 . S
C1208 C1189 1.368 . S
C1208 C1202 1.368 . S
C1208 C1207 1.523 . S
C1209 C1193 1.429 . S
C1209 C1205 1.429 . S
C1209 C1210 1.523 . S
C1210 C1194 1.368 . S
C1210 C1206 1.368 . S
C1210 C1209 1.523 . S
H1211 C1186 0.945 1_554 S
H1212 C1188 0.950 . S
H1213 C1189 0.949 . S
H1214 C1191 0.950 . S
H1215 C1193 0.950 . S
C1216 C1217 1.349 . S
C1216 C1218 1.327 . S
C1216 H1241 0.950 . S
C1217 C1216 1.349 . S
C1217 C1233 1.349 . S
C1218 C1216 1.327 . S
C1218 C1237 1.429 . S
C1218 H1242 0.950 . S
C1219 C1236 1.574 . S
C1219 C1238 1.368 . S
C1219 H1243 0.949 . S
H1220 C1224 0.949 . S
C1221 C1222 1.349 . S
C1221 C1223 1.327 . S
C1221 H1244 0.950 1_655 S
C1222 C1221 1.349 . S
C1222 C1234 1.349 . S
C1223 C1221 1.327 . S
C1223 C1239 1.429 . S
C1223 H1245 0.950 . S
C1224 H1220 0.949 . S
C1224 C1232 1.574 . S
C1224 C1240 1.368 . S
H1225 C1233 0.950 . S
H1226 C1231 0.950 . S
H1227 C1232 0.949 . S
H1228 C1234 0.950 . S
H1229 C1235 0.950 . S
H1230 C1236 0.949 . S
C1231 H1226 0.950 . S
C1231 C1233 1.327 . S
C1231 C1237 1.429 . S
C1232 C1224 1.574 . S
C1232 H1227 0.949 . S
C1232 C1238 1.368 . S
C1233 C1217 1.349 . S
C1233 H1225 0.950 . S
C1233 C1231 1.327 . S
C1234 C1222 1.349 . S
C1234 H1228 0.950 . S
C1234 C1235 1.327 . S
C1235 H1229 0.950 . S
C1235 C1234 1.327 . S
C1235 C1239 1.429 . S
C1236 C1219 1.574 . S
C1236 H1230 0.949 . S
C1236 C1240 1.368 . S
C1237 C1218 1.429 . S
C1237 C1231 1.429 . S
C1237 C1238 1.523 . S
C1238 C1219 1.368 . S
C1238 C1232 1.368 . S
C1238 C1237 1.523 . S
C1239 C1223 1.429 . S
C1239 C1235 1.429 . S
C1239 C1240 1.523 . S
C1240 C1224 1.368 . S
C1240 C1236 1.368 . S
C1240 C1239 1.523 . S
H1241 C1216 0.950 . S
H1242 C1218 0.950 . S
H1243 C1219 0.949 . S
H1244 C1221 0.950 1_455 S
H1245 C1223 0.950 . S
C1246 C1247 1.343 1_545 S
C1246 C1248 1.327 . S
C1246 H1271 0.950 . S
C1247 C1246 1.343 1_565 S
C1247 C1263 1.355 . S
C1248 C1246 1.327 . S
C1248 C1267 1.392 1_545 S
C1248 H1272 0.950 . S
C1249 C1266 1.574 . S
C1249 C1268 1.368 . S
C1249 H1273 0.949 . S
H1250 C1254 0.949 . S
C1251 C1252 1.349 . S
C1251 C1253 1.327 . S
C1251 H1274 0.950 . S
C1252 C1251 1.349 . S
C1252 C1264 1.349 1_565 S
C1253 C1251 1.327 . S
C1253 C1269 1.429 . S
C1253 H1275 0.950 . S
C1254 H1250 0.949 . S
C1254 C1262 1.574 . S
C1254 C1270 1.368 1_545 S
H1255 C1263 0.950 . S
H1256 C1261 0.950 . S
H1257 C1262 0.949 . S
H1258 C1264 0.950 . S
H1259 C1265 0.950 . S
H1260 C1266 0.949 . S
C1261 H1256 0.950 . S
C1261 C1263 1.327 . S
C1261 C1267 1.469 . S
C1262 C1254 1.574 . S
C1262 H1257 0.949 . S
C1262 C1268 1.368 1_545 S
C1263 C1247 1.355 . S
C1263 H1255 0.950 . S
C1263 C1261 1.327 . S
C1264 C1252 1.349 1_545 S
C1264 H1258 0.950 . S
C1264 C1265 1.327 . S
C1265 H1259 0.950 . S
C1265 C1264 1.327 . S
C1265 C1269 1.429 1_545 S
C1266 C1249 1.574 . S
C1266 H1260 0.949 . S
C1266 C1270 1.368 . S
C1267 C1248 1.392 1_565 S
C1267 C1261 1.469 . S
C1267 C1268 1.522 . S
C1268 C1249 1.368 . S
C1268 C1262 1.368 1_565 S
C1268 C1267 1.522 . S
C1269 C1253 1.429 . S
C1269 C1265 1.429 1_565 S
C1269 C1270 1.523 . S
C1270 C1254 1.368 1_565 S
C1270 C1266 1.368 . S
C1270 C1269 1.523 . S
H1271 C1246 0.950 . S
H1272 C1248 0.950 . S
H1273 C1249 0.949 . S
H1274 C1251 0.950 . S
H1275 C1253 0.950 . S
C1276 C1277 1.349 . S
C1276 C1278 1.327 . S
C1276 H1301 0.950 . S
C1277 C1276 1.349 . S
C1277 C1293 1.349 . S
C1278 C1276 1.327 . S
C1278 C1297 1.429 . S
C1278 H1302 0.950 . S
C1279 C1296 1.574 . S
C1279 C1298 1.368 . S
C1279 H1303 0.949 . S
H1280 C1284 0.949 . S
C1281 C1282 1.349 . S
C1281 C1283 1.327 . S
C1281 H1304 0.950 . S
C1282 C1281 1.349 . S
C1282 C1294 1.349 . S
C1283 C1281 1.327 . S
C1283 C1299 1.429 . S
C1283 H1305 0.950 . S
C1284 H1280 0.949 . S
C1284 C1292 1.574 . S
C1284 C1300 1.368 . S
H1285 C1293 0.950 . S
H1286 C1291 0.950 . S
H1287 C1292 0.949 . S
H1288 C1294 0.950 . S
H1289 C1295 0.950 . S
H1290 C1296 0.949 . S
C1291 H1286 0.950 . S
C1291 C1293 1.327 . S
C1291 C1297 1.429 . S
C1292 C1284 1.574 . S
C1292 H1287 0.949 . S
C1292 C1298 1.368 . S
C1293 C1277 1.349 . S
C1293 H1285 0.950 . S
C1293 C1291 1.327 . S
C1294 C1282 1.349 . S
C1294 H1288 0.950 . S
C1294 C1295 1.327 . S
C1295 H1289 0.950 . S
C1295 C1294 1.327 . S
C1295 C1299 1.429 . S
C1296 C1279 1.574 . S
C1296 H1290 0.949 . S
C1296 C1300 1.368 . S
C1297 C1278 1.429 . S
C1297 C1291 1.429 . S
C1297 C1298 1.523 . S
C1298 C1279 1.368 . S
C1298 C1292 1.368 . S
C1298 C1297 1.523 . S
C1299 C1283 1.429 . S
C1299 C1295 1.429 . S
C1299 C1300 1.523 . S
C1300 C1284 1.368 . S
C1300 C1296 1.368 . S
C1300 C1299 1.523 . S
H1301 C1276 0.950 . S
H1302 C1278 0.950 . S
H1303 C1279 0.949 . S
H1304 C1281 0.950 . S
H1305 C1283 0.950 . S
C1306 C1307 1.349 . S
C1306 C1308 1.327 . S
C1306 H1331 0.950 . S
C1307 C1306 1.349 . S
C1307 C1323 1.349 . S
C1308 C1306 1.327 . S
C1308 C1327 1.429 . S
C1308 H1332 0.950 . S
C1309 C1326 1.574 . S
C1309 C1328 1.368 . S
C1309 H1333 0.949 . S
H1310 C1314 0.949 . S
C1311 C1312 1.349 . S
C1311 C1313 1.327 . S
C1311 H1334 0.950 . S
C1312 C1311 1.349 . S
C1312 C1324 1.349 . S
C1313 C1311 1.327 . S
C1313 C1329 1.429 . S
C1313 H1335 0.950 . S
C1314 H1310 0.949 . S
C1314 C1322 1.574 . S
C1314 C1330 1.368 . S
H1315 C1323 0.950 . S
H1316 C1321 0.950 . S
H1317 C1322 0.949 . S
H1318 C1324 0.950 . S
H1319 C1325 0.950 . S
H1320 C1326 0.949 . S
C1321 H1316 0.950 . S
C1321 C1323 1.327 . S
C1321 C1327 1.429 . S
C1322 C1314 1.574 . S
C1322 H1317 0.949 . S
C1322 C1328 1.368 . S
C1323 C1307 1.349 . S
C1323 H1315 0.950 . S
C1323 C1321 1.327 . S
C1324 C1312 1.349 . S
C1324 H1318 0.950 . S
C1324 C1325 1.327 . S
C1325 H1319 0.950 . S
C1325 C1324 1.327 . S
C1325 C1329 1.429 . S
C1326 C1309 1.574 . S
C1326 H1320 0.949 . S
C1326 C1330 1.368 . S
C1327 C1308 1.429 . S
C1327 C1321 1.429 . S
C1327 C1328 1.523 . S
C1328 C1309 1.368 . S
C1328 C1322 1.368 . S
C1328 C1327 1.523 . S
C1329 C1313 1.429 . S
C1329 C1325 1.429 . S
C1329 C1330 1.523 . S
C1330 C1314 1.368 . S
C1330 C1326 1.368 . S
C1330 C1329 1.523 . S
H1331 C1306 0.950 . S
H1332 C1308 0.950 . S
H1333 C1309 0.949 . S
H1334 C1311 0.950 . S
H1335 C1313 0.950 . S
C617 C391 1.838 1_565 S
C622 C497 1.829 . S
C652 C518 1.696 . S
C647 C451 1.708 . S
C682 C552 1.444 . S
C677 C241 1.354 . S
C712 C586 1.676 . S
C707 C331 1.556 . S
C742 C488 1.830 . S
C737 C121 1.728 1_546 S
C767 C211 1.665 . S
C772 C527 1.702 . S
C797 C31 1.470 . S
C802 C561 1.444 . S
C827 C91 1.612 . S
C832 C595 1.676 . S
C862 C509 0.457 . S
C857 C301 0.884 . S
C892 C514 0.191 . S
C887 C380 0.137 . S
C922 C548 0.291 . S
C917 C440 0.257 . S
C947 C260 0.482 . S
C952 C582 0.229 . S
C977 C61 0.698 . S
C982 C480 0.457 . S
C1012 C543 0.191 . S
C1007 C140 0.481 . S
C1042 C577 0.291 . S
C1037 C200 0.446 . S
C1067 C20 0.273 . S
C1072 C611 0.229 . S
C1097 C320 1.643 . S
C1102 C493 1.699 . S
C1127 C361 1.881 . S
C1132 C522 2.096 . S
C1162 C556 1.839 . S
C1157 C421 1.664 . S
C1192 C590 1.855 . S
C1187 C271 1.834 . S
C1217 C80 1.692 . S
C1222 C484 1.708 . S
C1252 C531 2.096 . S
C1247 C151 2.066 . S
C1282 C565 1.838 . S
C1277 C181 1.617 . S
C1307 C1 1.670 . S
C1312 C599 1.855 . S
