# Generated by pormake.
# Topology rtl, (3,6)-cn, num edge types: 1
# Building blocks:
#     Node 0, Type 0, BuildingBlock: MIDCAF_clean_linker_0, # of connection points: 3
#     Node 1, Type 0, BuildingBlock: MIDCAF_clean_linker_0, # of connection points: 3
#     Node 2, Type 0, BuildingBlock: MIDCAF_clean_linker_0, # of connection points: 3
#     Node 3, Type 0, BuildingBlock: MIDCAF_clean_linker_0, # of connection points: 3
#     Node 4, Type 1, BuildingBlock: KUMBUR_clean_sbu_1, # of connection points: 6
#     Node 5, Type 1, BuildingBlock: KUMBUR_clean_sbu_1, # of connection points: 6
#     Edge 6, Type (0, 1), BuildingBlock: TEMPAE_clean_linker_10, # of connection points: 2
#     Edge 7, Type (0, 1), BuildingBlock: TEMPAE_clean_linker_10, # of connection points: 2
#     Edge 8, Type (0, 1), BuildingBlock: TEMPAE_clean_linker_10, # of connection points: 2
#     Edge 9, Type (0, 1), BuildingBlock: TEMPAE_clean_linker_10, # of connection points: 2
#     Edge 10, Type (0, 1), BuildingBlock: TEMPAE_clean_linker_10, # of connection points: 2
#     Edge 11, Type (0, 1), BuildingBlock: TEMPAE_clean_linker_10, # of connection points: 2
#     Edge 12, Type (0, 1), BuildingBlock: TEMPAE_clean_linker_10, # of connection points: 2
#     Edge 13, Type (0, 1), BuildingBlock: TEMPAE_clean_linker_10, # of connection points: 2
#     Edge 14, Type (0, 1), BuildingBlock: TEMPAE_clean_linker_10, # of connection points: 2
#     Edge 15, Type (0, 1), BuildingBlock: TEMPAE_clean_linker_10, # of connection points: 2
#     Edge 16, Type (0, 1), BuildingBlock: TEMPAE_clean_linker_10, # of connection points: 2
#     Edge 17, Type (0, 1), BuildingBlock: TEMPAE_clean_linker_10, # of connection points: 2
# Relax obj value: 0.018
# Max RMSD: 0.095
# Mean RMSD: 0.057
data_MOF--net-rtl--node1-KUMBUR_clean_sbu_1--node2-MIDCAF_clean_linker_0--edge1-TEMPAE_clean_linker_10
_symmetry_space_group_name_H-M    P1
_symmetry_Int_Tables_number       1
_symmetry_cell_setting            triclinic
loop_
_symmetry_equiv_pos_as_xyz
'x, y, z'
_cell_length_a     39.62085
_cell_length_b     40.688439
_cell_length_c     35.048993
_cell_angle_alpha  80.577028
_cell_angle_beta   99.407266
_cell_angle_gamma 89.453496
loop_
_atom_site_label
_atom_site_type_symbol
_atom_site_fract_x
_atom_site_fract_y
_atom_site_fract_z
_atom_type_partial_charge
C0 C 0.18999 0.92875 0.11246 0.0
C1 C 0.20805 0.91994 0.15075 0.0
C2 C 0.23988 0.90275 0.15679 0.0
C3 C 0.25278 0.89336 0.12505 0.0
H4 H 0.31568 0.81741 0.09762 0.0
H5 H 0.352 0.76659 0.10571 0.0
H6 H 0.33573 0.77119 0.9803 0.0
H7 H 0.30035 0.82174 0.9717 0.0
H8 H 0.23475 0.85698 0.92225 0.0
H9 H 0.20225 0.87377 0.85699 0.0
H10 H 0.17009 0.96563 0.88975 0.0
H11 H 0.20148 0.94786 0.95608 0.0
H12 H 0.18801 0.92662 0.05173 0.0
H13 H 0.16537 0.94199 0.10717 0.0
H14 H 0.25409 0.89548 0.1862 0.0
H15 H 0.27693 0.87929 0.13068 0.0
N16 N 0.27081 0.8647 0.05914 0.0
N17 N 0.26372 0.86483 0.99139 0.0
N18 N 0.23059 0.90177 0.01578 0.0
C19 C 0.27979 0.85231 0.02823 0.0
C20 C 0.23928 0.88954 0.98481 0.0
C21 C 0.24621 0.88957 0.05306 0.0
C22 C 0.30465 0.82358 0.03404 0.0
C23 C 0.32023 0.80787 0.07174 0.0
C24 C 0.34103 0.77888 0.07644 0.0
C25 C 0.34622 0.76505 0.04359 0.0
C26 C 0.33178 0.78132 1.00604 0.0
C27 C 0.31147 0.81033 1.00126 0.0
C28 C 0.22071 0.90106 0.94446 0.0
C29 C 0.2209 0.88086 0.91558 0.0
C30 C 0.20234 0.89063 0.87791 0.0
C31 C 0.1835 0.92116 0.86779 0.0
C32 C 0.18377 0.94168 0.89656 0.0
C33 C 0.20195 0.93161 0.93456 0.0
C34 C 0.23429 0.90148 0.08667 0.0
C35 C 0.20307 0.9199 0.08076 0.0
C36 C 0.59451 0.65973 0.49873 0.0
C37 C 0.60317 0.67462 0.46272 0.0
C38 C 0.62447 0.70202 0.46175 0.0
C39 C 0.63736 0.71397 0.49621 0.0
H40 H 0.72985 0.74784 0.55457 0.0
H41 H 0.77568 0.78615 0.54987 0.0
H42 H 0.74591 0.83186 0.64309 0.0
H43 H 0.70097 0.7914 0.64942 0.0
H44 H 0.67116 0.71773 0.71271 0.0
H45 H 0.65178 0.69114 0.77271 0.0
H46 H 0.56922 0.64772 0.70331 0.0
H47 H 0.58866 0.67349 0.64379 0.0
H48 H 0.60011 0.65968 0.56048 0.0
H49 H 0.5781 0.63857 0.50025 0.0
H50 H 0.63194 0.71364 0.43446 0.0
H51 H 0.6541 0.73486 0.49444 0.0
N52 N 0.66916 0.73278 0.56944 0.0
N53 N 0.67052 0.73293 0.63668 0.0
N54 N 0.63142 0.70032 0.60282 0.0
C55 C 0.68286 0.74383 0.60295 0.0
C56 C 0.6447 0.71102 0.63673 0.0
C57 C 0.64336 0.71115 0.56905 0.0
C58 C 0.71157 0.76679 0.60211 0.0
C59 C 0.7331 0.76597 0.57421 0.0
C60 C 0.75929 0.78832 0.57126 0.0
C61 C 0.76426 0.81291 0.59539 0.0
C62 C 0.74311 0.81329 0.62405 0.0
C63 C 0.71722 0.79021 0.62762 0.0
C64 C 0.63175 0.6975 0.67335 0.0
C65 C 0.64873 0.70271 0.71026 0.0
C66 C 0.63757 0.68757 0.74464 0.0
C67 C 0.60922 0.66698 0.74276 0.0
C68 C 0.5916 0.66282 0.70582 0.0
C69 C 0.60273 0.67779 0.67162 0.0
C70 C 0.62896 0.69897 0.53238 0.0
C71 C 0.60709 0.67189 0.53317 0.0
C72 C 0.80641 0.05948 0.95372 0.0
C73 C 0.80632 0.08159 0.91815 0.0
C74 C 0.79471 0.11489 0.91601 0.0
C75 C 0.7837 0.12559 0.94793 0.0
H76 H 0.72032 0.1974 0.97656 0.0
H77 H 0.68203 0.24644 0.96888 0.0
H78 H 0.67235 0.22307 0.09105 0.0
H79 H 0.71097 0.17437 0.09925 0.0
H80 H 0.77097 0.13017 0.15608 0.0
H81 H 0.80322 0.11126 0.2214 0.0
H82 H 0.87059 0.05126 0.17314 0.0
H83 H 0.83803 0.06965 0.10769 0.0
H84 H 0.79769 0.05314 0.01326 0.0
H85 H 0.81414 0.03349 0.95697 0.0
H86 H 0.79505 0.13345 0.89023 0.0
H87 H 0.77529 0.15142 0.94511 0.0
N88 N 0.75231 0.14174 0.01279 0.0
N89 N 0.75963 0.13997 0.08081 0.0
N90 N 0.79111 0.10257 0.05477 0.0
C91 C 0.74392 0.15363 0.04417 0.0
C92 C 0.78335 0.11456 0.08641 0.0
C93 C 0.77561 0.11599 0.01792 0.0
C94 C 0.71893 0.18205 0.03861 0.0
C95 C 0.70987 0.20251 1.00176 0.0
C96 C 0.68804 0.23059 0.9973 0.0
C97 C 0.67436 0.23834 0.02938 0.0
C98 C 0.68243 0.21739 0.06585 0.0
C99 C 0.7047 0.18966 0.07051 0.0
C100 C 0.80189 0.10152 0.12646 0.0
C101 C 0.79254 0.11281 0.15927 0.0
C102 C 0.81115 0.10213 0.19677 0.0
C103 C 0.83959 0.07993 0.20242 0.0
C104 C 0.8486 0.06813 0.16979 0.0
C105 C 0.82995 0.07878 0.13223 0.0
C106 C 0.78516 0.10378 0.98354 0.0
C107 C 0.7966 0.07061 0.98617 0.0
C108 C 0.42646 0.33858 0.57598 0.0
C109 C 0.42117 0.32062 0.61229 0.0
C110 C 0.4056 0.28964 0.61282 0.0
C111 C 0.39404 0.27778 0.57794 0.0
H112 H 0.29487 0.25229 0.51711 0.0
H113 H 0.24731 0.21599 0.52135 0.0
H114 H 0.27745 0.16613 0.4315 0.0
H115 H 0.3241 0.20479 0.42542 0.0
H116 H 0.3532 0.2792 0.36061 0.0
H117 H 0.36912 0.30796 0.29958 0.0
H118 H 0.44693 0.35918 0.36608 0.0
H119 H 0.43098 0.33108 0.42673 0.0
H120 H 0.41893 0.34137 0.51358 0.0
H121 H 0.43795 0.3627 0.57426 0.0
H122 H 0.40179 0.27469 0.64021 0.0
H123 H 0.38145 0.25419 0.57949 0.0
N124 N 0.35773 0.26309 0.50428 0.0
N125 N 0.35387 0.26555 0.43629 0.0
N126 N 0.39397 0.29723 0.47031 0.0
C127 C 0.34284 0.25328 0.47045 0.0
C128 C 0.37953 0.28767 0.43605 0.0
C129 C 0.38342 0.28486 0.50457 0.0
C130 C 0.31343 0.23117 0.47123 0.0
C131 C 0.29133 0.23364 0.49815 0.0
C132 C 0.26413 0.21243 0.50084 0.0
C133 C 0.25871 0.18726 0.47754 0.0
C134 C 0.28052 0.18519 0.44988 0.0
C135 C 0.30741 0.20721 0.44647 0.0
C136 C 0.39053 0.30297 0.39874 0.0
C137 C 0.37383 0.29645 0.36225 0.0
C138 C 0.38301 0.31285 0.32724 0.0
C139 C 0.409 0.33617 0.32798 0.0
C140 C 0.42631 0.3419 0.36445 0.0
C141 C 0.41722 0.32556 0.39931 0.0
C142 C 0.39826 0.29628 0.54161 0.0
C143 C 0.41533 0.32644 0.54108 0.0
Tb144 Tb 0.03203 0.96418 0.51361 0.0
C145 C 0.96424 0.10513 0.49895 0.0
N146 N 0.99032 0.09248 0.52814 0.0
C147 C 0.0169 0.14546 0.52146 0.0
C148 C 0.96458 0.1378 0.47814 0.0
C149 C 0.01508 0.11299 0.54157 0.0
C150 C 0.99212 0.15756 0.48882 0.0
C151 C 0.90509 0.10107 0.46889 0.0
C152 C 0.93486 0.08715 0.49428 0.0
C153 C 0.90648 0.13212 0.44498 0.0
C154 C 0.93623 0.15051 0.44963 0.0
Tb155 Tb 0.98471 0.03818 0.55643 0.0
N156 N 0.93413 0.05794 0.51893 0.0
C157 C 0.87431 0.08463 0.47081 0.0
C158 C 0.90363 0.04463 0.52501 0.0
C159 C 0.87335 0.0569 0.50003 0.0
H160 H 0.03406 0.10394 0.56715 0.0
H161 H 0.84931 0.04546 0.50386 0.0
H162 H 0.98279 0.89849 0.50853 0.0
H163 H 0.16918 0.96178 0.56137 0.0
H164 H 0.90302 0.02488 0.54945 0.0
H165 H 0.85077 0.09453 0.45192 0.0
H166 H 0.11484 0.98073 0.51732 0.0
H167 H 0.03734 0.16114 0.53121 0.0
H168 H 0.88406 0.14304 0.4247 0.0
H169 H 0.93625 0.17535 0.43282 0.0
H170 H 0.98231 0.84108 0.54421 0.0
H171 H 0.99335 0.18284 0.47365 0.0
H172 H 0.17073 0.91143 0.61207 0.0
N173 N 0.02958 0.9098 0.54257 0.0
C174 C 0.05732 0.89721 0.56917 0.0
C175 C 1.00337 0.85678 0.55199 0.0
C176 C 0.05828 0.86451 0.59027 0.0
C177 C 1.00364 0.8895 0.53202 0.0
C178 C 0.03035 0.84453 0.58207 0.0
N179 N 0.08505 0.94555 0.54735 0.0
C180 C 0.11477 0.96066 0.54152 0.0
C181 C 0.11676 0.90286 0.59632 0.0
C182 C 0.08613 0.91599 0.57195 0.0
C183 C 0.1466 0.92066 0.59397 0.0
C184 C 0.1458 0.94916 0.56552 0.0
H185 H 0.03012 0.81917 0.5974 0.0
H186 H 0.0889 0.82739 0.63401 0.0
H187 H 0.14019 0.86118 0.63953 0.0
O188 O 0.06361 0.95067 0.47515 0.0
O189 O 0.03085 0.96342 0.57624 0.0
O190 O 0.03461 0.0177 0.58705 0.0
O191 O 0.00799 0.94747 0.46224 0.0
O192 O 0.06061 0.01035 0.51165 0.0
O193 O 0.03538 0.05123 0.53999 0.0
O194 O 0.97921 0.02339 0.61611 0.0
O195 O 0.96141 0.02086 0.50309 0.0
O196 O 0.01017 0.01167 0.48027 0.0
O197 O 0.96164 0.07165 0.58434 0.0
O198 O 0.96422 0.98794 0.56651 0.0
O199 O 0.97861 0.95555 0.52143 0.0
C200 C 0.044 0.98594 0.59678 0.0
C201 C 0.04046 0.93132 0.41429 0.0
C202 C 0.07048 0.92838 0.35934 0.0
C203 C 0.04472 0.90853 0.34384 0.0
C204 C 0.01488 0.91159 0.39812 0.0
C205 C 0.01715 0.90014 0.3632 0.0
C206 C 0.06851 0.93961 0.39483 0.0
C207 C 0.05969 0.03986 0.52291 0.0
C208 C 0.03731 0.94345 0.451 0.0
C209 C 0.08783 0.85227 0.61703 0.0
C210 C 0.11704 0.8715 0.62017 0.0
C211 C 0.97726 0.01823 0.47385 0.0
C212 C 0.97133 0.0668 0.65282 0.0
C213 C 0.95097 0.07703 0.71234 0.0
C214 C 0.97114 0.10553 0.71173 0.0
C215 C 0.99202 0.09448 0.6538 0.0
C216 C 0.95188 0.05751 0.68271 0.0
C217 C 0.99197 0.11361 0.6833 0.0
C218 C 0.96098 0.9616 0.54865 0.0
C219 C 0.96406 0.05153 0.61736 0.0
H220 H 0.046 0.89952 0.31665 0.0
H221 H 0.99319 0.90483 0.41263 0.0
H222 H 0.99742 0.88477 0.35103 0.0
H223 H 0.08835 0.95502 0.40682 0.0
H224 H 0.97034 0.1224 0.73242 0.0
H225 H 0.00686 0.10223 0.63076 0.0
H226 H 0.93651 0.03573 0.68164 0.0
H227 H 0.00712 0.13561 0.68327 0.0
Tb228 Tb 0.47123 0.48925 0.99479 0.0
C229 C 0.61618 0.54183 0.05026 0.0
N230 N 0.60307 0.5126 0.06486 0.0
C231 C 0.65667 0.4839 0.06676 0.0
C232 C 0.64998 0.5431 0.04248 0.0
C233 C 0.62287 0.48384 0.07355 0.0
C234 C 0.67027 0.51363 0.05099 0.0
C235 C 0.60732 0.60102 0.0255 0.0
C236 C 0.59509 0.57036 0.04184 0.0
C237 C 0.64095 0.60244 0.01754 0.0
C238 C 0.66225 0.57357 0.0261 0.0
Tb239 Tb 0.54754 0.51543 0.07449 0.0
N240 N 0.5623 0.56779 0.0488 0.0
C241 C 0.58538 0.62931 0.01772 0.0
C242 C 0.54177 0.59577 0.04387 0.0
C243 C 0.55263 0.62674 0.0275 0.0
H244 H 0.61297 0.46101 0.08677 0.0
H245 H 0.5359 0.64871 0.02301 0.0
H246 H 0.40884 0.54746 0.97589 0.0
H247 H 0.47392 0.35682 0.04981 0.0
H248 H 0.51752 0.59477 0.05359 0.0
H249 H 0.59374 0.65334 1.00507 0.0
H250 H 0.49716 0.40919 0.02159 0.0
H251 H 0.67225 0.46103 0.07384 0.0
H252 H 0.65074 0.62575 1.00481 0.0
H253 H 0.68811 0.57504 0.01977 0.0
H254 H 0.34808 0.55119 0.98317 0.0
H255 H 0.69642 0.51357 0.04557 0.0
H256 H 0.41382 0.35573 0.06093 0.0
N257 N 0.41464 0.49552 0.99848 0.0
C258 C 0.39913 0.46748 0.01234 0.0
C259 C 0.36219 0.5275 0.99163 0.0
C260 C 0.36451 0.46843 0.01702 0.0
C261 C 0.39671 0.52534 0.98783 0.0
C262 C 0.34603 0.49895 1.0064 0.0
N263 N 0.45205 0.43843 0.01918 0.0
C264 C 0.47152 0.40954 0.02738 0.0
C265 C 0.40366 0.4083 0.03835 0.0
C266 C 0.4184 0.43786 0.02281 0.0
C267 C 0.42411 0.37896 0.04878 0.0
C268 C 0.4581 0.37953 0.04281 0.0
H269 H 0.31935 0.50075 0.00951 0.0
H270 H 0.32311 0.43931 0.03654 0.0
H271 H 0.35745 0.38667 0.05533 0.0
O272 O 0.47975 0.46456 0.94843 0.0
O273 O 0.46466 0.47831 0.05679 0.0
O274 O 0.51952 0.47106 0.0919 0.0
O275 O 0.44121 0.50395 0.93946 0.0
O276 O 0.52257 0.46567 1.00135 0.0
O277 O 0.54922 0.46345 0.06574 0.0
O278 O 0.54364 0.54019 0.12291 0.0
O279 O 0.55379 0.52328 0.01228 0.0
O280 O 0.49875 0.53444 0.98086 0.0
O281 O 0.58242 0.50103 0.12626 0.0
O282 O 0.49569 0.5375 0.07082 0.0
O283 O 0.47049 0.54045 1.00602 0.0
C284 C 0.48633 0.46771 0.08927 0.0
C285 C 0.43149 0.46297 0.89857 0.0
C286 C 0.4206 0.4355 0.84105 0.0
C287 C 0.38568 0.43495 0.84401 0.0
C288 C 0.39653 0.46161 0.90139 0.0
C289 C 0.37383 0.44765 0.87421 0.0
C290 C 0.44354 0.44929 0.86866 0.0
C291 C 0.54476 0.452 0.03224 0.0
C292 C 0.45496 0.48144 0.92383 0.0
C293 C 0.34964 0.43906 0.03252 0.0
C294 C 0.36919 0.40908 0.04322 0.0
C295 C 0.5317 0.53586 0.98101 0.0
C296 C 0.5832 0.52424 0.18551 0.0
C297 C 0.58869 0.55248 0.24233 0.0
C298 C 0.61143 0.52678 0.26369 0.0
C299 C 0.606 0.49879 0.20758 0.0
C300 C 0.57419 0.55107 0.20322 0.0
C301 C 0.61988 0.50005 0.24643 0.0
C302 C 0.47225 0.54981 0.04048 0.0
C303 C 0.56937 0.52212 0.14429 0.0
H304 H 0.36758 0.42451 0.82296 0.0
H305 H 0.38655 0.47202 0.92399 0.0
H306 H 0.34687 0.44709 0.87624 0.0
H307 H 0.47041 0.45046 0.866 0.0
H308 H 0.62268 0.52745 0.29389 0.0
H309 H 0.61314 0.47775 0.19485 0.0
H310 H 0.55673 0.57094 0.18662 0.0
H311 H 0.63738 0.48033 0.26316 0.0
C312 C 0.21241 0.15024 0.45131 0.0
C313 C 0.2306 0.16342 0.48294 0.0
C314 C 0.18514 0.12887 0.45643 0.0
C315 C 0.17474 0.12173 0.49366 0.0
C316 C 0.19313 0.1347 0.52567 0.0
C317 C 0.22129 0.15442 0.52017 0.0
C318 C 0.16742 0.11446 0.42172 0.0
C319 C 0.18298 0.12799 0.56591 0.0
C320 C 0.08328 0.09456 0.49739 0.0
C321 C 0.08879 0.06148 0.51647 0.0
C322 C 0.111 0.11473 0.49028 0.0
C323 C 0.14485 0.10066 0.49978 0.0
C324 C 0.15031 0.06689 0.51791 0.0
C325 C 0.1224 0.04847 0.52788 0.0
C326 C 0.104 0.15105 0.47281 0.0
C327 C 0.18529 0.04966 0.52536 0.0
H328 H 0.21902 0.15691 0.42231 0.0
H329 H 0.23587 0.16301 0.54534 0.0
H330 H 0.15819 0.08917 0.43082 0.0
H331 H 0.14503 0.13084 0.40673 0.0
H332 H 0.18472 0.113 0.40005 0.0
H333 H 0.19686 0.14361 0.58611 0.0
H334 H 0.15505 0.13282 0.56372 0.0
H335 H 0.1887 0.10146 0.57915 0.0
H336 H 0.05735 0.10457 0.48769 0.0
H337 H 0.12707 0.02396 0.54512 0.0
H338 H 0.10859 0.15534 0.44207 0.0
H339 H 0.12155 0.1669 0.48932 0.0
H340 H 0.07718 0.15921 0.47291 0.0
H341 H 0.19232 0.04639 0.49678 0.0
H342 H 0.18588 0.02469 0.54394 0.0
H343 H 0.20522 0.06475 0.53948 0.0
C344 C 0.39969 0.72874 0.06301 0.0
C345 C 0.36466 0.73257 0.0479 0.0
C346 C 0.41773 0.69865 0.06364 0.0
C347 C 0.40002 0.67174 0.04958 0.0
C348 C 0.36437 0.67531 0.03552 0.0
C349 C 0.34722 0.70582 0.03446 0.0
C350 C 0.45589 0.69608 0.07785 0.0
C351 C 0.34444 0.64707 0.02095 0.0
C352 C 0.44692 0.60615 0.01039 0.0
C353 C 0.4526 0.58025 0.0427 0.0
C354 C 0.43073 0.63638 0.01268 0.0
C355 C 0.41884 0.64036 0.04768 0.0
C356 C 0.42395 0.61399 0.08016 0.0
C357 C 0.44137 0.58442 0.07751 0.0
C358 C 0.42671 0.66418 0.97777 0.0
C359 C 0.41092 0.61699 0.11762 0.0
H360 H 0.41312 0.74966 0.07301 0.0
H361 H 0.32007 0.70892 0.02284 0.0
H362 H 0.46268 0.67392 0.10104 0.0
H363 H 0.46933 0.69275 0.05326 0.0
H364 H 0.46553 0.71858 0.08965 0.0
H365 H 0.31655 0.65332 0.01297 0.0
H366 H 0.35383 0.64084 0.99477 0.0
H367 H 0.34844 0.6244 0.04381 0.0
H368 H 0.45622 0.60319 0.98367 0.0
H369 H 0.44589 0.56437 0.10249 0.0
H370 H 0.43844 0.68701 0.98667 0.0
H371 H 0.39916 0.67034 0.96663 0.0
H372 H 0.43879 0.65757 0.95344 0.0
H373 H 0.4242 0.63711 0.13128 0.0
H374 H 0.415 0.59345 0.13917 0.0
H375 H 0.38317 0.62391 0.11116 0.0
C376 C 0.79921 0.84849 0.55227 0.0
C377 C 0.79128 0.83784 0.58988 0.0
C378 C 0.82671 0.86902 0.54651 0.0
C379 C 0.84588 0.88089 0.57886 0.0
C380 C 0.83649 0.87249 0.61647 0.0
C381 C 0.8098 0.85049 0.62173 0.0
C382 C 0.83513 0.87784 0.50563 0.0
C383 C 0.85394 0.88753 0.65084 0.0
C384 C 0.93726 0.90751 0.57512 0.0
C385 C 0.93191 0.94048 0.55583 0.0
C386 C 0.90942 0.88752 0.58199 0.0
C387 C 0.87571 0.90198 0.57297 0.0
C388 C 0.87055 0.93591 0.55526 0.0
C389 C 0.89851 0.95396 0.5449 0.0
C390 C 0.91601 0.85078 0.59761 0.0
C391 C 0.83582 0.95369 0.54653 0.0
H392 H 0.78408 0.8405 0.527 0.0
H393 H 0.80384 0.84292 0.65089 0.0
H394 H 0.82642 0.90396 0.49331 0.0
H395 H 0.86317 0.87584 0.50614 0.0
H396 H 0.82229 0.86157 0.48556 0.0
H397 H 0.84412 0.87797 0.67834 0.0
H398 H 0.88197 0.8824 0.65586 0.0
H399 H 0.84974 0.91503 0.64419 0.0
H400 H 0.96311 0.89735 0.58482 0.0
H401 H 0.89403 0.97857 0.52783 0.0
H402 H 0.90023 0.83598 0.5779 0.0
H403 H 0.90849 0.84446 0.62695 0.0
H404 H 0.94336 0.84305 0.6001 0.0
H405 H 0.82622 0.95725 0.51452 0.0
H406 H 0.8381 0.97895 0.55467 0.0
H407 H 0.81668 0.94018 0.56234 0.0
C408 C 0.66687 0.30015 0.01324 0.0
C409 C 0.65339 0.2693 0.02561 0.0
C410 C 0.64869 0.33002 0.01273 0.0
C411 C 0.61593 0.32886 0.02398 0.0
C412 C 0.60164 0.29765 0.03505 0.0
C413 C 0.62081 0.26817 0.03628 0.0
C414 C 0.66512 0.36278 1.00167 0.0
C415 C 0.5663 0.29544 0.04593 0.0
C416 C 0.58372 0.40254 0.0635 0.0
C417 C 0.56366 0.42086 0.02993 0.0
C418 C 0.60131 0.3729 0.06176 0.0
C419 C 0.59742 0.36032 0.02602 0.0
C420 C 0.57632 0.37803 0.9923 0.0
C421 C 0.56029 0.40842 0.99444 0.0
C422 C 0.62414 0.35508 0.09821 0.0
C423 C 0.57055 0.36487 0.95397 0.0
H424 H 0.69224 0.30091 1.00536 0.0
H425 H 0.61039 0.2442 0.04561 0.0
H426 H 0.64822 0.37876 0.97718 0.0
H427 H 0.66867 0.37636 0.02697 0.0
H428 H 0.6904 0.35937 0.99276 0.0
H429 H 0.55828 0.26927 0.05203 0.0
H430 H 0.56558 0.30703 0.07232 0.0
H431 H 0.54736 0.3095 0.02179 0.0
H432 H 0.58561 0.41116 0.09138 0.0
H433 H 0.54453 0.42208 0.96838 0.0
H434 H 0.65033 0.35122 0.09195 0.0
H435 H 0.61427 0.33013 0.1074 0.0
H436 H 0.62586 0.36912 0.12306 0.0
H437 H 0.59464 0.36566 0.94164 0.0
H438 H 0.5503 0.37958 0.93194 0.0
H439 H 0.56315 0.33847 0.9588 0.0
C440 C 0.20763 0.94582 0.21103 0.0
C441 C 0.19204 0.92614 0.18434 0.0
C442 C 0.19184 0.95192 0.24254 0.0
C443 C 0.16042 0.93697 0.24803 0.0
C444 C 0.14483 0.91694 0.22106 0.0
C445 C 0.16065 0.91212 0.18936 0.0
C446 C 0.20889 0.9741 0.26994 0.0
C447 C 0.11153 0.90023 0.22587 0.0
C448 C 0.1277 0.91513 0.34415 0.0
C449 C 0.09896 0.93683 0.33749 0.0
C450 C 0.15026 0.91705 0.31688 0.0
C451 C 0.14364 0.94113 0.28216 0.0
C452 C 0.1165 0.96516 0.2774 0.0
C453 C 0.09422 0.96252 0.30503 0.0
C454 C 0.17908 0.8912 0.32335 0.0
C455 C 0.10915 0.99183 0.24144 0.0
H456 H 0.23187 0.95681 0.20689 0.0
H457 H 0.14875 0.89679 0.16873 0.0
H458 H 0.18988 0.99161 0.27659 0.0
H459 H 0.22069 0.95857 0.29807 0.0
H460 H 0.22926 0.98872 0.25749 0.0
H461 H 0.10324 0.88487 0.20281 0.0
H462 H 0.11426 0.88394 0.25495 0.0
H463 H 0.09103 0.91931 0.22467 0.0
H464 H 0.13111 0.89515 0.36921 0.0
H465 H 0.07182 0.97918 0.29992 0.0
H466 H 0.20303 0.90294 0.31662 0.0
H467 H 0.17252 0.87296 0.30321 0.0
H468 H 0.1839 0.87749 0.35396 0.0
H469 H 0.1332 0.00321 0.23438 0.0
H470 H 0.0913 0.01179 0.24531 0.0
H471 H 0.09738 0.98052 0.21593 0.0
C472 C 0.59734 0.6646 0.81145 0.0
C473 C 0.59858 0.64881 0.77897 0.0
C474 C 0.58689 0.64749 0.84551 0.0
C475 C 0.57764 0.61383 0.84707 0.0
C476 C 0.57893 0.59777 0.81443 0.0
C477 C 0.58947 0.61541 0.78087 0.0
C478 C 0.58554 0.66544 0.87971 0.0
C479 C 0.56902 0.56196 0.81487 0.0
C480 C 0.5787 0.55696 0.94465 0.0
C481 C 0.54382 0.55647 0.94744 0.0
C482 C 0.59021 0.57636 0.91272 0.0
C483 C 0.56619 0.59529 0.88258 0.0
C484 C 0.53097 0.59505 0.88533 0.0
C485 C 0.52023 0.57574 0.91777 0.0
C486 C 0.628 0.57607 0.91085 0.0
C487 C 0.50455 0.61489 0.85379 0.0
H488 H 0.604 0.6905 0.81001 0.0
H489 H 0.59087 0.60288 0.75613 0.0
H490 H 0.55919 0.66538 0.88661 0.0
H491 H 0.60256 0.65224 0.9062 0.0
H492 H 0.59339 0.69167 0.87376 0.0
H493 H 0.57194 0.55298 0.78727 0.0
H494 H 0.58503 0.54557 0.8398 0.0
H495 H 0.54197 0.55935 0.81915 0.0
H496 H 0.59701 0.54184 0.96714 0.0
H497 H 0.4932 0.57566 0.91969 0.0
H498 H 0.63714 0.6019 0.90753 0.0
H499 H 0.63263 0.56558 0.88478 0.0
H500 H 0.64344 0.56112 0.93745 0.0
H501 H 0.51006 0.64178 0.85085 0.0
H502 H 0.4781 0.61161 0.86013 0.0
H503 H 0.50574 0.60724 0.82506 0.0
C504 C 0.87154 0.03636 0.25532 0.0
C505 C 0.86014 0.06966 0.24215 0.0
C506 C 0.89103 0.02642 0.29276 0.0
C507 C 0.89936 0.05039 0.31752 0.0
C508 C 0.88797 0.08404 0.30443 0.0
C509 C 0.86851 0.09326 0.26689 0.0
C510 C 0.90234 0.99023 0.30601 0.0
C511 C 0.89655 0.11033 0.33 0.0
C512 C 0.92198 0.02318 0.42758 0.0
C513 C 0.95777 0.02436 0.43361 0.0
C514 C 0.90268 0.031 0.38986 0.0
C515 C 0.91963 0.0403 0.3574 0.0
C516 C 0.95584 0.04089 0.36323 0.0
C517 C 0.97454 0.03265 0.40133 0.0
C518 C 0.86414 0.02984 0.38487 0.0
C519 C 0.97478 0.05085 0.32933 0.0
H520 H 0.86479 0.01793 0.23653 0.0
H521 H 0.86021 0.11912 0.25668 0.0
H522 H 0.9306 0.98792 0.31452 0.0
H523 H 0.89124 0.97991 0.33235 0.0
H524 H 0.89444 0.97486 0.28287 0.0
H525 H 0.88533 0.13531 0.31565 0.0
H526 H 0.887 0.10332 0.35816 0.0
H527 H 0.92474 0.11206 0.33715 0.0
H528 H 0.90896 0.01621 0.45242 0.0
H529 H 1.00222 0.03355 0.40592 0.0
H530 H 0.85462 0.01342 0.36341 0.0
H531 H 0.85256 0.05513 0.37305 0.0
H532 H 0.85509 0.02062 0.41295 0.0
H533 H 0.96937 0.03339 0.30807 0.0
H534 H 1.00292 0.05093 0.33898 0.0
H535 H 0.96575 0.07611 0.31358 0.0
C536 C 0.40708 0.33121 0.67652 0.0
C537 C 0.4294 0.33523 0.64899 0.0
C538 C 0.41247 0.34699 0.70956 0.0
C539 C 0.44058 0.36791 0.7151 0.0
C540 C 0.46403 0.37114 0.68837 0.0
C541 C 0.45827 0.35462 0.65573 0.0
C542 C 0.38699 0.34252 0.73754 0.0
C543 C 0.49468 0.39268 0.69373 0.0
C544 C 0.41824 0.43559 0.76968 0.0
C545 C 0.43222 0.42204 0.80844 0.0
C546 C 0.42351 0.41962 0.73849 0.0
C547 C 0.44266 0.38897 0.74639 0.0
C548 C 0.45905 0.37655 0.78525 0.0
C549 C 0.4537 0.39338 0.81591 0.0
C550 C 0.40641 0.43428 0.6974 0.0
C551 C 0.47985 0.34413 0.79504 0.0
H552 H 0.38443 0.31676 0.67152 0.0
H553 H 0.47612 0.3573 0.63517 0.0
H554 H 0.40049 0.3353 0.76817 0.0
H555 H 0.37271 0.36647 0.73576 0.0
H556 H 0.36824 0.32324 0.73098 0.0
H557 H 0.50971 0.39371 0.66947 0.0
H558 H 0.48636 0.41843 0.69547 0.0
H559 H 0.51167 0.38279 0.72178 0.0
H560 H 0.40191 0.458 0.76397 0.0
H561 H 0.46451 0.38295 0.84597 0.0
H562 H 0.38505 0.41849 0.68773 0.0
H563 H 0.4248 0.43471 0.67662 0.0
H564 H 0.39597 0.46004 0.69554 0.0
H565 H 0.46227 0.32308 0.79704 0.0
H566 H 0.49733 0.34218 0.82361 0.0
H567 H 0.49517 0.34135 0.7719 0.0
C568 C 0.59675 0.6262 0.42709 0.0
C569 C 0.59189 0.6604 0.4266 0.0
C570 C 0.58996 0.61272 0.39242 0.0
C571 C 0.57762 0.63393 0.35641 0.0
C572 C 0.57073 0.66817 0.35612 0.0
C573 C 0.57827 0.6811 0.39124 0.0
C574 C 0.59787 0.57607 0.39406 0.0
C575 C 0.55638 0.69126 0.31859 0.0
C576 C 0.60863 0.60052 0.27371 0.0
C577 C 0.58159 0.58064 0.26189 0.0
C578 C 0.60638 0.62062 0.3021 0.0
C579 C 0.57631 0.62066 0.31909 0.0
C580 C 0.5476 0.60323 0.30426 0.0
C581 C 0.55065 0.58316 0.27581 0.0
C582 C 0.63752 0.63902 0.31671 0.0
C583 C 0.51479 0.60322 0.32087 0.0
H584 H 0.60745 0.6102 0.45436 0.0
H585 H 0.57399 0.7075 0.391 0.0
H586 H 0.57515 0.56404 0.38018 0.0
H587 H 0.61887 0.57301 0.37733 0.0
H588 H 0.60572 0.56273 0.42459 0.0
H589 H 0.55124 0.71697 0.32359 0.0
H590 H 0.57455 0.69233 0.29751 0.0
H591 H 0.53218 0.68154 0.30466 0.0
H592 H 0.63253 0.59841 0.26283 0.0
H593 H 0.52981 0.56756 0.26673 0.0
H594 H 0.64913 0.62649 0.3466 0.0
H595 H 0.63029 0.66499 0.31875 0.0
H596 H 0.65719 0.63967 0.29739 0.0
H597 H 0.51738 0.58443 0.34805 0.0
H598 H 0.49276 0.59666 0.29986 0.0
H599 H 0.50917 0.62785 0.32856 0.0
C600 C 0.8447 0.04448 0.8904 0.0
C601 C 0.82032 0.07105 0.88442 0.0
C602 C 0.86157 0.03789 0.86005 0.0
C603 C 0.85609 0.05984 0.82374 0.0
C604 C 0.82975 0.08494 0.81636 0.0
C605 C 0.81127 0.08918 0.8462 0.0
C606 C 0.88674 0.00852 0.86776 0.0
C607 C 0.82181 0.10856 0.77771 0.0
C608 C 0.93564 0.08003 0.77874 0.0
C609 C 0.92783 0.06917 0.74236 0.0
C610 C 0.91248 0.07712 0.8052 0.0
C611 C 0.88161 0.06049 0.79682 0.0
C612 C 0.87465 0.04681 0.76189 0.0
C613 C 0.89723 0.0522 0.73455 0.0
C614 C 0.92061 0.09315 0.84147 0.0
C615 C 0.84314 0.02702 0.75304 0.0
H616 H 0.85208 0.02947 0.91908 0.0
H617 H 0.79069 0.10795 0.83966 0.0
H618 H 0.88707 0.99759 0.8408 0.0
H619 H 0.91286 0.01671 0.87757 0.0
H620 H 0.88042 0.9888 0.89117 0.0
H621 H 0.80843 0.13187 0.78078 0.0
H622 H 0.84527 0.11541 0.76524 0.0
H623 H 0.80464 0.0964 0.75636 0.0
H624 H 0.95968 0.09163 0.78653 0.0
H625 H 0.89018 0.04368 0.70677 0.0
H626 H 0.92474 0.07371 0.86807 0.0
H627 H 0.89881 0.10969 0.84368 0.0
H628 H 0.9439 0.10813 0.84151 0.0
H629 H 0.83927 0.00936 0.77955 0.0
H630 H 0.84482 0.01274 0.72892 0.0
H631 H 0.82025 0.04409 0.74413 0.0
C632 C 0.42098 0.3392 0.25919 0.0
C633 C 0.41773 0.35516 0.29106 0.0
C634 C 0.43057 0.35686 0.22488 0.0
C635 C 0.43694 0.39128 0.22239 0.0
C636 C 0.43297 0.40764 0.25413 0.0
C637 C 0.42341 0.38941 0.288 0.0
C638 C 0.43476 0.33852 0.19173 0.0
C639 C 0.43926 0.44437 0.25251 0.0
C640 C 0.49653 0.43073 0.15484 0.0
C641 C 0.47342 0.44768 0.12283 0.0
C642 C 0.48494 0.41194 0.18709 0.0
C643 C 0.44934 0.40996 0.18746 0.0
C644 C 0.42585 0.42681 0.15518 0.0
C645 C 0.43817 0.44557 0.12334 0.0
C646 C 0.51086 0.39451 0.22102 0.0
C647 C 0.38769 0.4252 0.15435 0.0
H648 H 0.41689 0.3127 0.26146 0.0
H649 H 0.42031 0.40205 0.31221 0.0
H650 H 0.41955 0.35146 0.1638 0.0
H651 H 0.46198 0.3384 0.18778 0.0
H652 H 0.42671 0.31232 0.19716 0.0
H653 H 0.43455 0.45347 0.27945 0.0
H654 H 0.46609 0.44934 0.24868 0.0
H655 H 0.4224 0.45901 0.22685 0.0
H656 H 0.52383 0.43215 0.15485 0.0
H657 H 0.42012 0.45892 0.09907 0.0
H658 H 0.50623 0.36742 0.22633 0.0
H659 H 0.50806 0.40424 0.24816 0.0
H660 H 0.53761 0.39792 0.21579 0.0
H661 H 0.37983 0.39906 0.15485 0.0
H662 H 0.3729 0.4409 0.12785 0.0
H663 H 0.38077 0.43346 0.18079 0.0
C664 C 0.17557 0.92296 0.79473 0.0
C665 C 0.16328 0.93108 0.82757 0.0
C666 C 0.15626 0.93083 0.75691 0.0
C667 C 0.12411 0.94788 0.75152 0.0
C668 C 0.1117 0.95666 0.78431 0.0
C669 C 0.13128 0.94792 0.82193 0.0
C670 C 0.17035 0.92109 0.72264 0.0
C671 C 0.07755 0.97494 0.77971 0.0
C672 C 0.08901 0.99711 0.65095 0.0
C673 C 0.06555 0.97522 0.63542 0.0
C674 C 0.10847 0.98836 0.68853 0.0
C675 C 0.10389 0.95718 0.71139 0.0
C676 C 0.0803 0.93488 0.69576 0.0
C677 C 0.0617 0.94401 0.65768 0.0
C678 C 0.13375 0.0126 0.70386 0.0
C679 C 0.0744 0.90159 0.71942 0.0
H680 H 0.20051 0.91059 0.79846 0.0
H681 H 0.12116 0.95383 0.84701 0.0
H682 H 0.15193 0.90556 0.70679 0.0
H683 H 0.17387 0.94375 0.7015 0.0
H684 H 0.19526 0.90696 0.73191 0.0
H685 H 0.07253 0.98178 0.80774 0.0
H686 H 0.07639 0.99802 0.75767 0.0
H687 H 0.05675 0.95905 0.76882 0.0
H688 H 0.09222 0.02115 0.63358 0.0
H689 H 0.04341 0.92712 0.64579 0.0
H690 H 0.15978 0.00062 0.71171 0.0
H691 H 0.1269 0.01969 0.73095 0.0
H692 H 0.13458 0.03562 0.68212 0.0
H693 H 0.09841 0.88597 0.72624 0.0
H694 H 0.05398 0.88785 0.7037 0.0
H695 H 0.06715 0.90518 0.74778 0.0
loop_
_geom_bond_atom_site_label_1
_geom_bond_atom_site_label_2
_geom_bond_distance
_geom_bond_site_symmetry_2
_ccdc_geom_bond_type
C0 C1 1.384 . S
C0 H13 0.947 . S
C0 C35 1.382 . S
C1 C0 1.384 . S
C1 C2 1.378 . S
C2 C1 1.378 . S
C2 C3 1.378 . S
C2 H14 0.952 . S
C3 C2 1.378 . S
C3 H15 0.950 . S
C3 C34 1.383 . S
H4 C23 0.947 . S
H5 C24 0.946 . S
H6 C26 0.953 . S
H7 C27 0.945 . S
H8 C29 0.952 . S
H9 C30 0.949 . S
H10 C32 0.950 . S
H11 C33 0.948 . S
H12 C35 0.951 . S
H13 C0 0.947 . S
H14 C2 0.952 . S
H15 C3 0.950 . S
N16 C19 1.382 . S
N16 C21 1.363 . S
N17 C19 1.371 1_556 S
N17 C20 1.372 . S
N18 C20 1.361 1_554 S
N18 C21 1.377 . S
C19 N16 1.382 . S
C19 N17 1.371 1_554 S
C19 C22 1.480 . S
C20 N17 1.372 . S
C20 N18 1.361 1_556 S
C20 C28 1.457 . S
C21 N16 1.363 . S
C21 N18 1.377 . S
C21 C34 1.479 . S
C22 C19 1.480 . S
C22 C23 1.383 . S
C22 C27 1.385 1_554 S
C23 H4 0.947 . S
C23 C22 1.383 . S
C23 C24 1.388 . S
C24 H5 0.946 . S
C24 C23 1.388 . S
C24 C25 1.384 . S
C25 C24 1.384 . S
C25 C26 1.377 1_554 S
C26 H6 0.953 . S
C26 C25 1.377 1_556 S
C26 C27 1.369 . S
C27 H7 0.945 . S
C27 C22 1.385 1_556 S
C27 C26 1.369 . S
C28 C20 1.457 . S
C28 C29 1.372 . S
C28 C33 1.364 . S
C29 H8 0.952 . S
C29 C28 1.372 . S
C29 C30 1.389 . S
C30 H9 0.949 . S
C30 C29 1.389 . S
C30 C31 1.387 . S
C31 C30 1.387 . S
C31 C32 1.372 . S
C32 H10 0.950 . S
C32 C31 1.372 . S
C32 C33 1.379 . S
C33 H11 0.948 . S
C33 C28 1.364 . S
C33 C32 1.379 . S
C34 C3 1.383 . S
C34 C21 1.479 . S
C34 C35 1.398 . S
C35 C0 1.382 . S
C35 H12 0.951 . S
C35 C34 1.398 . S
C36 C37 1.384 . S
C36 H49 0.947 . S
C36 C71 1.382 . S
C37 C36 1.384 . S
C37 C38 1.378 . S
C38 C37 1.378 . S
C38 C39 1.378 . S
C38 H50 0.952 . S
C39 C38 1.378 . S
C39 H51 0.950 . S
C39 C70 1.383 . S
H40 C59 0.947 . S
H41 C60 0.946 . S
H42 C62 0.953 . S
H43 C63 0.945 . S
H44 C65 0.952 . S
H45 C66 0.949 . S
H46 C68 0.950 . S
H47 C69 0.948 . S
H48 C71 0.951 . S
H49 C36 0.947 . S
H50 C38 0.952 . S
H51 C39 0.950 . S
N52 C55 1.382 . S
N52 C57 1.363 . S
N53 C55 1.371 . S
N53 C56 1.372 . S
N54 C56 1.361 . S
N54 C57 1.377 . S
C55 N52 1.382 . S
C55 N53 1.371 . S
C55 C58 1.480 . S
C56 N53 1.372 . S
C56 N54 1.361 . S
C56 C64 1.457 . S
C57 N52 1.363 . S
C57 N54 1.377 . S
C57 C70 1.479 . S
C58 C55 1.480 . S
C58 C59 1.383 . S
C58 C63 1.385 . S
C59 H40 0.947 . S
C59 C58 1.383 . S
C59 C60 1.388 . S
C60 H41 0.946 . S
C60 C59 1.388 . S
C60 C61 1.384 . S
C61 C60 1.384 . S
C61 C62 1.377 . S
C62 H42 0.953 . S
C62 C61 1.377 . S
C62 C63 1.369 . S
C63 H43 0.945 . S
C63 C58 1.385 . S
C63 C62 1.369 . S
C64 C56 1.457 . S
C64 C65 1.372 . S
C64 C69 1.364 . S
C65 H44 0.952 . S
C65 C64 1.372 . S
C65 C66 1.389 . S
C66 H45 0.949 . S
C66 C65 1.389 . S
C66 C67 1.387 . S
C67 C66 1.387 . S
C67 C68 1.372 . S
C68 H46 0.950 . S
C68 C67 1.372 . S
C68 C69 1.379 . S
C69 H47 0.948 . S
C69 C64 1.364 . S
C69 C68 1.379 . S
C70 C39 1.383 . S
C70 C57 1.479 . S
C70 C71 1.398 . S
C71 C36 1.382 . S
C71 H48 0.951 . S
C71 C70 1.398 . S
C72 C73 1.384 . S
C72 H85 0.947 . S
C72 C107 1.382 . S
C73 C72 1.384 . S
C73 C74 1.378 . S
C74 C73 1.378 . S
C74 C75 1.378 . S
C74 H86 0.952 . S
C75 C74 1.378 . S
C75 H87 0.950 . S
C75 C106 1.383 . S
H76 C95 0.947 . S
H77 C96 0.946 . S
H78 C98 0.953 . S
H79 C99 0.945 . S
H80 C101 0.952 . S
H81 C102 0.949 . S
H82 C104 0.950 . S
H83 C105 0.948 . S
H84 C107 0.951 1_554 S
H85 C72 0.947 . S
H86 C74 0.952 . S
H87 C75 0.950 . S
N88 C91 1.382 . S
N88 C93 1.363 . S
N89 C91 1.371 . S
N89 C92 1.372 . S
N90 C92 1.361 . S
N90 C93 1.377 . S
C91 N88 1.382 . S
C91 N89 1.371 . S
C91 C94 1.480 . S
C92 N89 1.372 . S
C92 N90 1.361 . S
C92 C100 1.457 . S
C93 N88 1.363 . S
C93 N90 1.377 . S
C93 C106 1.479 1_554 S
C94 C91 1.480 . S
C94 C95 1.383 1_554 S
C94 C99 1.385 . S
C95 H76 0.947 . S
C95 C94 1.383 1_556 S
C95 C96 1.388 . S
C96 H77 0.946 . S
C96 C95 1.388 . S
C96 C97 1.384 1_556 S
C97 C96 1.384 1_554 S
C97 C98 1.377 . S
C98 H78 0.953 . S
C98 C97 1.377 . S
C98 C99 1.369 . S
C99 H79 0.945 . S
C99 C94 1.385 . S
C99 C98 1.369 . S
C100 C92 1.457 . S
C100 C101 1.372 . S
C100 C105 1.364 . S
C101 H80 0.952 . S
C101 C100 1.372 . S
C101 C102 1.389 . S
C102 H81 0.949 . S
C102 C101 1.389 . S
C102 C103 1.387 . S
C103 C102 1.387 . S
C103 C104 1.372 . S
C104 H82 0.950 . S
C104 C103 1.372 . S
C104 C105 1.379 . S
C105 H83 0.948 . S
C105 C100 1.364 . S
C105 C104 1.379 . S
C106 C75 1.383 . S
C106 C93 1.479 1_556 S
C106 C107 1.398 . S
C107 C72 1.382 . S
C107 H84 0.951 1_556 S
C107 C106 1.398 . S
C108 C109 1.384 . S
C108 H121 0.947 . S
C108 C143 1.382 . S
C109 C108 1.384 . S
C109 C110 1.378 . S
C110 C109 1.378 . S
C110 C111 1.378 . S
C110 H122 0.952 . S
C111 C110 1.378 . S
C111 H123 0.950 . S
C111 C142 1.383 . S
H112 C131 0.947 . S
H113 C132 0.946 . S
H114 C134 0.953 . S
H115 C135 0.945 . S
H116 C137 0.952 . S
H117 C138 0.949 . S
H118 C140 0.950 . S
H119 C141 0.948 . S
H120 C143 0.951 . S
H121 C108 0.947 . S
H122 C110 0.952 . S
H123 C111 0.950 . S
N124 C127 1.382 . S
N124 C129 1.363 . S
N125 C127 1.371 . S
N125 C128 1.372 . S
N126 C128 1.361 . S
N126 C129 1.377 . S
C127 N124 1.382 . S
C127 N125 1.371 . S
C127 C130 1.480 . S
C128 N125 1.372 . S
C128 N126 1.361 . S
C128 C136 1.457 . S
C129 N124 1.363 . S
C129 N126 1.377 . S
C129 C142 1.479 . S
C130 C127 1.480 . S
C130 C131 1.383 . S
C130 C135 1.385 . S
C131 H112 0.947 . S
C131 C130 1.383 . S
C131 C132 1.388 . S
C132 H113 0.946 . S
C132 C131 1.388 . S
C132 C133 1.384 . S
C133 C132 1.384 . S
C133 C134 1.377 . S
C134 H114 0.953 . S
C134 C133 1.377 . S
C134 C135 1.369 . S
C135 H115 0.945 . S
C135 C130 1.385 . S
C135 C134 1.369 . S
C136 C128 1.457 . S
C136 C137 1.372 . S
C136 C141 1.364 . S
C137 H116 0.952 . S
C137 C136 1.372 . S
C137 C138 1.389 . S
C138 H117 0.949 . S
C138 C137 1.389 . S
C138 C139 1.387 . S
C139 C138 1.387 . S
C139 C140 1.372 . S
C140 H118 0.950 . S
C140 C139 1.372 . S
C140 C141 1.379 . S
C141 H119 0.948 . S
C141 C136 1.364 . S
C141 C140 1.379 . S
C142 C111 1.383 . S
C142 C129 1.479 . S
C142 C143 1.398 . S
C143 C108 1.382 . S
C143 H120 0.951 . S
C143 C142 1.398 . S
Tb144 N173 2.617 . S
Tb144 N179 2.572 . S
Tb144 O188 2.465 . S
Tb144 O189 2.387 . S
Tb144 O191 2.428 . S
Tb144 O192 2.308 1_565 S
Tb144 O196 2.349 1_455 S
Tb144 O199 2.393 1_455 S
Tb144 C208 2.802 . S
C145 N146 1.379 . S
C145 C148 1.416 . S
C145 C152 1.424 . S
N146 C145 1.379 . S
N146 C149 1.334 1_655 S
N146 Tb155 2.617 . S
C147 C149 1.390 1_655 S
C147 C150 1.339 . S
C147 H167 0.930 1_655 S
C148 C145 1.416 . S
C148 C150 1.416 . S
C148 C154 1.448 . S
C149 N146 1.334 1_455 S
C149 C147 1.390 1_455 S
C149 H160 0.930 . S
C150 C147 1.339 . S
C150 C148 1.416 . S
C150 H171 0.930 . S
C151 C152 1.413 . S
C151 C153 1.427 . S
C151 C157 1.416 . S
C152 C145 1.424 . S
C152 C151 1.413 . S
C152 N156 1.361 . S
C153 C151 1.427 . S
C153 C154 1.328 . S
C153 H168 0.929 . S
C154 C148 1.448 . S
C154 C153 1.328 . S
C154 H169 0.930 . S
Tb155 N146 2.617 . S
Tb155 N156 2.572 . S
Tb155 O190 2.349 1_655 S
Tb155 O193 2.393 1_655 S
Tb155 O194 2.465 . S
Tb155 O195 2.387 . S
Tb155 O197 2.428 . S
Tb155 O198 2.308 1_545 S
Tb155 C219 2.802 . S
N156 C152 1.361 . S
N156 Tb155 2.572 . S
N156 C158 1.340 . S
C157 C151 1.416 . S
C157 C159 1.332 . S
C157 H165 0.931 . S
C158 N156 1.340 . S
C158 C159 1.407 . S
C158 H164 0.930 . S
C159 C157 1.332 . S
C159 C158 1.407 . S
C159 H161 0.929 . S
H160 C149 0.930 . S
H161 C159 0.929 . S
H162 C177 0.930 1_655 S
H163 C184 0.929 . S
H164 C158 0.930 . S
H165 C157 0.931 . S
H166 C180 0.930 . S
H167 C147 0.930 1_455 S
H168 C153 0.929 . S
H169 C154 0.930 . S
H170 C175 0.930 1_655 S
H171 C150 0.930 . S
H172 C183 0.931 . S
N173 Tb144 2.617 . S
N173 C174 1.379 . S
N173 C177 1.334 . S
C174 N173 1.379 . S
C174 C176 1.416 . S
C174 C182 1.424 . S
C175 H170 0.930 1_455 S
C175 C177 1.390 . S
C175 C178 1.339 . S
C176 C174 1.416 . S
C176 C178 1.416 . S
C176 C209 1.448 . S
C177 H162 0.930 1_455 S
C177 N173 1.334 . S
C177 C175 1.390 . S
C178 C175 1.339 . S
C178 C176 1.416 . S
C178 H185 0.930 . S
N179 Tb144 2.572 . S
N179 C180 1.340 . S
N179 C182 1.361 . S
C180 H166 0.930 . S
C180 N179 1.340 . S
C180 C184 1.407 . S
C181 C182 1.413 . S
C181 C183 1.416 . S
C181 C210 1.427 . S
C182 C174 1.424 . S
C182 N179 1.361 . S
C182 C181 1.413 . S
C183 H172 0.931 . S
C183 C181 1.416 . S
C183 C184 1.332 . S
C184 H163 0.929 . S
C184 C180 1.407 . S
C184 C183 1.332 . S
H185 C178 0.930 . S
H186 C209 0.930 . S
H187 C210 0.929 . S
O188 Tb144 2.465 . S
O188 C208 1.264 . S
O189 Tb144 2.387 . S
O189 C200 1.264 . S
O190 Tb155 2.349 1_455 S
O190 C200 1.243 1_545 S
O191 Tb144 2.428 . S
O191 C208 1.256 . S
O192 Tb144 2.308 1_545 S
O192 C207 1.266 . S
O193 Tb155 2.393 1_455 S
O193 C207 1.248 . S
O194 Tb155 2.465 . S
O194 C219 1.264 . S
O195 Tb155 2.387 . S
O195 C211 1.264 . S
O196 Tb144 2.349 1_655 S
O196 C211 1.243 1_565 S
O197 Tb155 2.428 . S
O197 C219 1.256 . S
O198 Tb155 2.308 1_565 S
O198 C218 1.266 . S
O199 Tb144 2.393 1_655 S
O199 C218 1.248 . S
C200 O189 1.264 . S
C200 O190 1.243 1_565 S
C201 C204 1.399 . S
C201 C206 1.383 . S
C201 C208 1.496 . S
C202 C203 1.399 . S
C202 C206 1.389 . S
C203 C202 1.399 . S
C203 C205 1.380 . S
C203 H220 0.929 . S
C204 C201 1.399 . S
C204 C205 1.392 . S
C204 H221 0.929 . S
C205 C203 1.380 . S
C205 C204 1.392 . S
C205 H222 0.929 . S
C206 C201 1.383 . S
C206 C202 1.389 . S
C206 H223 0.931 . S
C207 O192 1.266 . S
C207 O193 1.248 . S
C208 Tb144 2.802 . S
C208 O188 1.264 . S
C208 O191 1.256 . S
C208 C201 1.496 . S
C209 C176 1.448 . S
C209 H186 0.930 . S
C209 C210 1.328 . S
C210 C181 1.427 . S
C210 H187 0.929 . S
C210 C209 1.328 . S
C211 O195 1.264 . S
C211 O196 1.243 1_545 S
C212 C215 1.399 . S
C212 C216 1.383 . S
C212 C219 1.496 . S
C213 C214 1.399 . S
C213 C216 1.389 . S
C214 C213 1.399 . S
C214 C217 1.380 . S
C214 H224 0.929 . S
C215 C212 1.399 . S
C215 C217 1.392 . S
C215 H225 0.929 . S
C216 C212 1.383 . S
C216 C213 1.389 . S
C216 H226 0.931 . S
C217 C214 1.380 . S
C217 C215 1.392 . S
C217 H227 0.929 . S
C218 O198 1.266 . S
C218 O199 1.248 . S
C219 Tb155 2.802 . S
C219 O194 1.264 . S
C219 O197 1.256 . S
C219 C212 1.496 . S
H220 C203 0.929 . S
H221 C204 0.929 . S
H222 C205 0.929 . S
H223 C206 0.931 . S
H224 C214 0.929 . S
H225 C215 0.929 . S
H226 C216 0.931 . S
H227 C217 0.929 . S
Tb228 N257 2.617 . S
Tb228 N263 2.572 1_556 S
Tb228 O272 2.465 . S
Tb228 O273 2.387 1_556 S
Tb228 O275 2.428 . S
Tb228 O276 2.308 1_556 S
Tb228 O280 2.349 . S
Tb228 O283 2.402 . S
Tb228 C292 2.802 . S
C229 N230 1.379 . S
C229 C232 1.416 . S
C229 C236 1.424 . S
N230 C229 1.379 . S
N230 C233 1.334 . S
N230 Tb239 2.617 . S
C231 C233 1.390 . S
C231 C234 1.339 . S
C231 H251 0.930 . S
C232 C229 1.416 . S
C232 C234 1.416 . S
C232 C238 1.448 . S
C233 N230 1.334 . S
C233 C231 1.390 . S
C233 H244 0.930 . S
C234 C231 1.339 . S
C234 C232 1.416 . S
C234 H255 0.930 . S
C235 C236 1.413 . S
C235 C237 1.427 . S
C235 C241 1.416 . S
C236 C229 1.424 . S
C236 C235 1.413 . S
C236 N240 1.361 . S
C237 C235 1.427 . S
C237 C238 1.328 . S
C237 H252 0.929 . S
C238 C232 1.448 . S
C238 C237 1.328 . S
C238 H253 0.930 . S
Tb239 N230 2.617 . S
Tb239 N240 2.572 . S
Tb239 O274 2.349 . S
Tb239 O277 2.393 . S
Tb239 O278 2.465 . S
Tb239 O279 2.387 1_554 S
Tb239 O281 2.428 . S
Tb239 O282 2.308 . S
Tb239 C303 2.802 . S
N240 C236 1.361 . S
N240 Tb239 2.572 . S
N240 C242 1.340 . S
C241 C235 1.416 . S
C241 C243 1.332 . S
C241 H249 0.931 . S
C242 N240 1.340 . S
C242 C243 1.407 . S
C242 H248 0.930 . S
C243 C241 1.332 . S
C243 C242 1.407 . S
C243 H245 0.929 . S
H244 C233 0.930 . S
H245 C243 0.929 . S
H246 C261 0.930 . S
H247 C268 0.929 . S
H248 C242 0.930 . S
H249 C241 0.931 . S
H250 C264 0.930 . S
H251 C231 0.930 . S
H252 C237 0.929 . S
H253 C238 0.930 . S
H254 C259 0.930 . S
H255 C234 0.930 . S
H256 C267 0.931 . S
N257 Tb228 2.617 . S
N257 C258 1.379 1_556 S
N257 C261 1.334 . S
C258 N257 1.379 1_554 S
C258 C260 1.416 . S
C258 C266 1.424 . S
C259 H254 0.930 . S
C259 C261 1.390 . S
C259 C262 1.339 1_556 S
C260 C258 1.416 . S
C260 C262 1.416 . S
C260 C293 1.448 . S
C261 H246 0.930 . S
C261 N257 1.334 . S
C261 C259 1.390 . S
C262 C259 1.339 1_554 S
C262 C260 1.416 . S
C262 H269 0.930 . S
N263 Tb228 2.572 1_554 S
N263 C264 1.340 . S
N263 C266 1.361 . S
C264 H250 0.930 . S
C264 N263 1.340 . S
C264 C268 1.407 . S
C265 C266 1.413 . S
C265 C267 1.416 . S
C265 C294 1.427 . S
C266 C258 1.424 . S
C266 N263 1.361 . S
C266 C265 1.413 . S
C267 H256 0.931 . S
C267 C265 1.416 . S
C267 C268 1.332 . S
C268 H247 0.929 . S
C268 C264 1.407 . S
C268 C267 1.332 . S
H269 C262 0.930 . S
H270 C293 0.930 . S
H271 C294 0.929 . S
O272 Tb228 2.465 . S
O272 C292 1.264 . S
O273 Tb228 2.387 1_554 S
O273 C284 1.264 . S
O274 Tb239 2.349 . S
O274 C284 1.243 . S
O275 Tb228 2.428 . S
O275 C292 1.256 . S
O276 Tb228 2.308 1_554 S
O276 C291 1.266 . S
O277 Tb239 2.393 . S
O277 C291 1.248 . S
O278 Tb239 2.465 . S
O278 C303 1.264 . S
O279 Tb239 2.387 1_556 S
O279 C295 1.264 . S
O280 Tb228 2.349 . S
O280 C295 1.243 . S
O281 Tb239 2.428 . S
O281 C303 1.256 . S
O282 Tb239 2.308 . S
O282 C302 1.266 . S
O283 Tb228 2.402 . S
O283 C302 1.228 1_556 S
C284 O273 1.264 . S
C284 O274 1.243 . S
C285 C288 1.399 . S
C285 C290 1.383 . S
C285 C292 1.496 . S
C286 C287 1.399 . S
C286 C290 1.389 . S
C287 C286 1.399 . S
C287 C289 1.380 . S
C287 H304 0.929 . S
C288 C285 1.399 . S
C288 C289 1.392 . S
C288 H305 0.929 . S
C289 C287 1.380 . S
C289 C288 1.392 . S
C289 H306 0.929 . S
C290 C285 1.383 . S
C290 C286 1.389 . S
C290 H307 0.931 . S
C291 O276 1.266 . S
C291 O277 1.248 . S
C292 Tb228 2.802 . S
C292 O272 1.264 . S
C292 O275 1.256 . S
C292 C285 1.496 . S
C293 C260 1.448 . S
C293 H270 0.930 . S
C293 C294 1.328 . S
C294 C265 1.427 . S
C294 H271 0.929 . S
C294 C293 1.328 . S
C295 O279 1.264 . S
C295 O280 1.243 . S
C296 C299 1.399 . S
C296 C300 1.383 . S
C296 C303 1.496 . S
C297 C298 1.399 . S
C297 C300 1.389 . S
C298 C297 1.399 . S
C298 C301 1.380 . S
C298 H308 0.929 . S
C299 C296 1.399 . S
C299 C301 1.392 . S
C299 H309 0.929 . S
C300 C296 1.383 . S
C300 C297 1.389 . S
C300 H310 0.931 . S
C301 C298 1.380 . S
C301 C299 1.392 . S
C301 H311 0.929 . S
C302 O282 1.266 . S
C302 O283 1.228 1_554 S
C303 Tb239 2.802 . S
C303 O278 1.264 . S
C303 O281 1.256 . S
C303 C296 1.496 . S
H304 C287 0.929 . S
H305 C288 0.929 . S
H306 C289 0.929 . S
H307 C290 0.931 . S
H308 C298 0.929 . S
H309 C299 0.929 . S
H310 C300 0.931 . S
H311 C301 0.929 . S
C312 C313 1.391 . S
C312 C314 1.394 . S
C312 H328 0.931 . S
C313 C312 1.391 . S
C313 C317 1.376 . S
C314 C312 1.394 . S
C314 C315 1.369 . S
C314 C318 1.531 . S
C315 C314 1.369 . S
C315 C316 1.410 . S
C315 C323 1.503 . S
C316 C315 1.410 . S
C316 C317 1.392 . S
C316 C319 1.511 . S
C317 C313 1.376 . S
C317 C316 1.392 . S
C317 H329 0.929 . S
C318 C314 1.531 . S
C318 H330 0.960 . S
C318 H331 0.962 . S
C318 H332 0.960 . S
C319 C316 1.511 . S
C319 H333 0.961 . S
C319 H334 0.961 . S
C319 H335 0.961 . S
C320 C321 1.370 . S
C320 C322 1.363 . S
C320 H336 0.931 . S
C321 C320 1.370 . S
C321 C325 1.408 . S
C322 C320 1.363 . S
C322 C323 1.370 . S
C322 C326 1.524 . S
C323 C315 1.503 . S
C323 C322 1.370 . S
C323 C324 1.403 . S
C324 C323 1.403 . S
C324 C325 1.404 . S
C324 C327 1.539 . S
C325 C321 1.408 . S
C325 C324 1.404 . S
C325 H337 0.930 . S
C326 C322 1.524 . S
C326 H338 0.956 . S
C326 H339 0.961 . S
C326 H340 0.961 . S
C327 C324 1.539 . S
C327 H341 0.958 . S
C327 H342 0.961 . S
C327 H343 0.960 . S
H328 C312 0.931 . S
H329 C317 0.929 . S
H330 C318 0.960 . S
H331 C318 0.962 . S
H332 C318 0.960 . S
H333 C319 0.961 . S
H334 C319 0.961 . S
H335 C319 0.961 . S
H336 C320 0.931 . S
H337 C325 0.930 . S
H338 C326 0.956 . S
H339 C326 0.961 . S
H340 C326 0.961 . S
H341 C327 0.958 . S
H342 C327 0.961 . S
H343 C327 0.960 . S
C344 C345 1.391 . S
C344 C346 1.394 . S
C344 H360 0.931 . S
C345 C344 1.391 . S
C345 C349 1.376 . S
C346 C344 1.394 . S
C346 C347 1.369 . S
C346 C350 1.531 . S
C347 C346 1.369 . S
C347 C348 1.410 . S
C347 C355 1.503 . S
C348 C347 1.410 . S
C348 C349 1.392 . S
C348 C351 1.511 . S
C349 C345 1.376 . S
C349 C348 1.392 . S
C349 H361 0.929 . S
C350 C346 1.531 . S
C350 H362 0.960 . S
C350 H363 0.962 . S
C350 H364 0.960 . S
C351 C348 1.511 . S
C351 H365 0.961 1_554 S
C351 H366 0.961 . S
C351 H367 0.961 . S
C352 C353 1.370 . S
C352 C354 1.363 . S
C352 H368 0.931 1_554 S
C353 C352 1.370 . S
C353 C357 1.408 . S
C354 C352 1.363 . S
C354 C355 1.370 . S
C354 C358 1.524 1_554 S
C355 C347 1.503 . S
C355 C354 1.370 . S
C355 C356 1.403 . S
C356 C355 1.403 . S
C356 C357 1.404 . S
C356 C359 1.539 . S
C357 C353 1.408 . S
C357 C356 1.404 . S
C357 H369 0.930 . S
C358 C354 1.524 1_556 S
C358 H370 0.956 . S
C358 H371 0.961 . S
C358 H372 0.961 . S
C359 C356 1.539 . S
C359 H373 0.958 . S
C359 H374 0.961 . S
C359 H375 0.960 . S
H360 C344 0.931 . S
H361 C349 0.929 . S
H362 C350 0.960 . S
H363 C350 0.962 . S
H364 C350 0.960 . S
H365 C351 0.961 1_556 S
H366 C351 0.961 . S
H367 C351 0.961 . S
H368 C352 0.931 1_556 S
H369 C357 0.930 . S
H370 C358 0.956 . S
H371 C358 0.961 . S
H372 C358 0.961 . S
H373 C359 0.958 . S
H374 C359 0.961 . S
H375 C359 0.960 . S
C376 C377 1.391 . S
C376 C378 1.394 . S
C376 H392 0.931 . S
C377 C376 1.391 . S
C377 C381 1.376 . S
C378 C376 1.394 . S
C378 C379 1.369 . S
C378 C382 1.531 . S
C379 C378 1.369 . S
C379 C380 1.410 . S
C379 C387 1.503 . S
C380 C379 1.410 . S
C380 C381 1.392 . S
C380 C383 1.511 . S
C381 C377 1.376 . S
C381 C380 1.392 . S
C381 H393 0.929 . S
C382 C378 1.531 . S
C382 H394 0.960 . S
C382 H395 0.962 . S
C382 H396 0.960 . S
C383 C380 1.511 . S
C383 H397 0.961 . S
C383 H398 0.961 . S
C383 H399 0.961 . S
C384 C385 1.370 . S
C384 C386 1.363 . S
C384 H400 0.931 . S
C385 C384 1.370 . S
C385 C389 1.408 . S
C386 C384 1.363 . S
C386 C387 1.370 . S
C386 C390 1.524 . S
C387 C379 1.503 . S
C387 C386 1.370 . S
C387 C388 1.403 . S
C388 C387 1.403 . S
C388 C389 1.404 . S
C388 C391 1.539 . S
C389 C385 1.408 . S
C389 C388 1.404 . S
C389 H401 0.930 . S
C390 C386 1.524 . S
C390 H402 0.956 . S
C390 H403 0.961 . S
C390 H404 0.961 . S
C391 C388 1.539 . S
C391 H405 0.958 . S
C391 H406 0.961 . S
C391 H407 0.960 . S
H392 C376 0.931 . S
H393 C381 0.929 . S
H394 C382 0.960 . S
H395 C382 0.962 . S
H396 C382 0.960 . S
H397 C383 0.961 . S
H398 C383 0.961 . S
H399 C383 0.961 . S
H400 C384 0.931 . S
H401 C389 0.930 . S
H402 C390 0.956 . S
H403 C390 0.961 . S
H404 C390 0.961 . S
H405 C391 0.958 . S
H406 C391 0.961 . S
H407 C391 0.960 . S
C408 C409 1.391 . S
C408 C410 1.394 . S
C408 H424 0.931 1_554 S
C409 C408 1.391 . S
C409 C413 1.376 . S
C410 C408 1.394 . S
C410 C411 1.369 . S
C410 C414 1.531 1_554 S
C411 C410 1.369 . S
C411 C412 1.410 . S
C411 C419 1.503 . S
C412 C411 1.410 . S
C412 C413 1.392 . S
C412 C415 1.511 . S
C413 C409 1.376 . S
C413 C412 1.392 . S
C413 H425 0.929 . S
C414 C410 1.531 1_556 S
C414 H426 0.960 . S
C414 H427 0.962 1_556 S
C414 H428 0.960 . S
C415 C412 1.511 . S
C415 H429 0.961 . S
C415 H430 0.961 . S
C415 H431 0.961 . S
C416 C417 1.370 . S
C416 C418 1.363 . S
C416 H432 0.931 . S
C417 C416 1.370 . S
C417 C421 1.408 1_554 S
C418 C416 1.363 . S
C418 C419 1.370 . S
C418 C422 1.524 . S
C419 C411 1.503 . S
C419 C418 1.370 . S
C419 C420 1.403 1_554 S
C420 C419 1.403 1_556 S
C420 C421 1.404 . S
C420 C423 1.539 . S
C421 C417 1.408 1_556 S
C421 C420 1.404 . S
C421 H433 0.930 . S
C422 C418 1.524 . S
C422 H434 0.956 . S
C422 H435 0.961 . S
C422 H436 0.961 . S
C423 C420 1.539 . S
C423 H437 0.958 . S
C423 H438 0.961 . S
C423 H439 0.960 . S
H424 C408 0.931 1_556 S
H425 C413 0.929 . S
H426 C414 0.960 . S
H427 C414 0.962 1_554 S
H428 C414 0.960 . S
H429 C415 0.961 . S
H430 C415 0.961 . S
H431 C415 0.961 . S
H432 C416 0.931 . S
H433 C421 0.930 . S
H434 C422 0.956 . S
H435 C422 0.961 . S
H436 C422 0.961 . S
H437 C423 0.958 . S
H438 C423 0.961 . S
H439 C423 0.960 . S
C440 C441 1.391 . S
C440 C442 1.394 . S
C440 H456 0.931 . S
C441 C440 1.391 . S
C441 C445 1.376 . S
C442 C440 1.394 . S
C442 C443 1.369 . S
C442 C446 1.531 . S
C443 C442 1.369 . S
C443 C444 1.410 . S
C443 C451 1.503 . S
C444 C443 1.410 . S
C444 C445 1.392 . S
C444 C447 1.511 . S
C445 C441 1.376 . S
C445 C444 1.392 . S
C445 H457 0.929 . S
C446 C442 1.531 . S
C446 H458 0.960 . S
C446 H459 0.962 . S
C446 H460 0.960 . S
C447 C444 1.511 . S
C447 H461 0.961 . S
C447 H462 0.961 . S
C447 H463 0.961 . S
C448 C449 1.370 . S
C448 C450 1.363 . S
C448 H464 0.931 . S
C449 C448 1.370 . S
C449 C453 1.408 . S
C450 C448 1.363 . S
C450 C451 1.370 . S
C450 C454 1.524 . S
C451 C443 1.503 . S
C451 C450 1.370 . S
C451 C452 1.403 . S
C452 C451 1.403 . S
C452 C453 1.404 . S
C452 C455 1.539 . S
C453 C449 1.408 . S
C453 C452 1.404 . S
C453 H465 0.930 . S
C454 C450 1.524 . S
C454 H466 0.956 . S
C454 H467 0.961 . S
C454 H468 0.961 . S
C455 C452 1.539 . S
C455 H469 0.958 1_565 S
C455 H470 0.961 1_565 S
C455 H471 0.960 . S
H456 C440 0.931 . S
H457 C445 0.929 . S
H458 C446 0.960 . S
H459 C446 0.962 . S
H460 C446 0.960 . S
H461 C447 0.961 . S
H462 C447 0.961 . S
H463 C447 0.961 . S
H464 C448 0.931 . S
H465 C453 0.930 . S
H466 C454 0.956 . S
H467 C454 0.961 . S
H468 C454 0.961 . S
H469 C455 0.958 1_545 S
H470 C455 0.961 1_545 S
H471 C455 0.960 . S
C472 C473 1.391 . S
C472 C474 1.394 . S
C472 H488 0.931 . S
C473 C472 1.391 . S
C473 C477 1.376 . S
C474 C472 1.394 . S
C474 C475 1.369 . S
C474 C478 1.531 . S
C475 C474 1.369 . S
C475 C476 1.410 . S
C475 C483 1.503 . S
C476 C475 1.410 . S
C476 C477 1.392 . S
C476 C479 1.511 . S
C477 C473 1.376 . S
C477 C476 1.392 . S
C477 H489 0.929 . S
C478 C474 1.531 . S
C478 H490 0.960 . S
C478 H491 0.962 . S
C478 H492 0.960 . S
C479 C476 1.511 . S
C479 H493 0.961 . S
C479 H494 0.961 . S
C479 H495 0.961 . S
C480 C481 1.370 . S
C480 C482 1.363 . S
C480 H496 0.931 . S
C481 C480 1.370 . S
C481 C485 1.408 . S
C482 C480 1.363 . S
C482 C483 1.370 . S
C482 C486 1.524 . S
C483 C475 1.503 . S
C483 C482 1.370 . S
C483 C484 1.403 . S
C484 C483 1.403 . S
C484 C485 1.404 . S
C484 C487 1.539 . S
C485 C481 1.408 . S
C485 C484 1.404 . S
C485 H497 0.930 . S
C486 C482 1.524 . S
C486 H498 0.956 . S
C486 H499 0.961 . S
C486 H500 0.961 . S
C487 C484 1.539 . S
C487 H501 0.958 . S
C487 H502 0.961 . S
C487 H503 0.960 . S
H488 C472 0.931 . S
H489 C477 0.929 . S
H490 C478 0.960 . S
H491 C478 0.962 . S
H492 C478 0.960 . S
H493 C479 0.961 . S
H494 C479 0.961 . S
H495 C479 0.961 . S
H496 C480 0.931 . S
H497 C485 0.930 . S
H498 C486 0.956 . S
H499 C486 0.961 . S
H500 C486 0.961 . S
H501 C487 0.958 . S
H502 C487 0.961 . S
H503 C487 0.960 . S
C504 C505 1.391 . S
C504 C506 1.394 . S
C504 H520 0.931 . S
C505 C504 1.391 . S
C505 C509 1.376 . S
C506 C504 1.394 . S
C506 C507 1.369 . S
C506 C510 1.531 1_545 S
C507 C506 1.369 . S
C507 C508 1.410 . S
C507 C515 1.503 . S
C508 C507 1.410 . S
C508 C509 1.392 . S
C508 C511 1.511 . S
C509 C505 1.376 . S
C509 C508 1.392 . S
C509 H521 0.929 . S
C510 C506 1.531 1_565 S
C510 H522 0.960 . S
C510 H523 0.962 . S
C510 H524 0.960 . S
C511 C508 1.511 . S
C511 H525 0.961 . S
C511 H526 0.961 . S
C511 H527 0.961 . S
C512 C513 1.370 . S
C512 C514 1.363 . S
C512 H528 0.931 . S
C513 C512 1.370 . S
C513 C517 1.408 . S
C514 C512 1.363 . S
C514 C515 1.370 . S
C514 C518 1.524 . S
C515 C507 1.503 . S
C515 C514 1.370 . S
C515 C516 1.403 . S
C516 C515 1.403 . S
C516 C517 1.404 . S
C516 C519 1.539 . S
C517 C513 1.408 . S
C517 C516 1.404 . S
C517 H529 0.930 . S
C518 C514 1.524 . S
C518 H530 0.956 . S
C518 H531 0.961 . S
C518 H532 0.961 . S
C519 C516 1.539 . S
C519 H533 0.958 . S
C519 H534 0.961 . S
C519 H535 0.960 . S
H520 C504 0.931 . S
H521 C509 0.929 . S
H522 C510 0.960 . S
H523 C510 0.962 . S
H524 C510 0.960 . S
H525 C511 0.961 . S
H526 C511 0.961 . S
H527 C511 0.961 . S
H528 C512 0.931 . S
H529 C517 0.930 . S
H530 C518 0.956 . S
H531 C518 0.961 . S
H532 C518 0.961 . S
H533 C519 0.958 . S
H534 C519 0.961 . S
H535 C519 0.960 . S
C536 C537 1.391 . S
C536 C538 1.394 . S
C536 H552 0.931 . S
C537 C536 1.391 . S
C537 C541 1.376 . S
C538 C536 1.394 . S
C538 C539 1.369 . S
C538 C542 1.531 . S
C539 C538 1.369 . S
C539 C540 1.410 . S
C539 C547 1.503 . S
C540 C539 1.410 . S
C540 C541 1.392 . S
C540 C543 1.511 . S
C541 C537 1.376 . S
C541 C540 1.392 . S
C541 H553 0.929 . S
C542 C538 1.531 . S
C542 H554 0.960 . S
C542 H555 0.962 . S
C542 H556 0.960 . S
C543 C540 1.511 . S
C543 H557 0.961 . S
C543 H558 0.961 . S
C543 H559 0.961 . S
C544 C545 1.370 . S
C544 C546 1.363 . S
C544 H560 0.931 . S
C545 C544 1.370 . S
C545 C549 1.408 . S
C546 C544 1.363 . S
C546 C547 1.370 . S
C546 C550 1.524 . S
C547 C539 1.503 . S
C547 C546 1.370 . S
C547 C548 1.403 . S
C548 C547 1.403 . S
C548 C549 1.404 . S
C548 C551 1.539 . S
C549 C545 1.408 . S
C549 C548 1.404 . S
C549 H561 0.930 . S
C550 C546 1.524 . S
C550 H562 0.956 . S
C550 H563 0.961 . S
C550 H564 0.961 . S
C551 C548 1.539 . S
C551 H565 0.958 . S
C551 H566 0.961 . S
C551 H567 0.960 . S
H552 C536 0.931 . S
H553 C541 0.929 . S
H554 C542 0.960 . S
H555 C542 0.962 . S
H556 C542 0.960 . S
H557 C543 0.961 . S
H558 C543 0.961 . S
H559 C543 0.961 . S
H560 C544 0.931 . S
H561 C549 0.930 . S
H562 C550 0.956 . S
H563 C550 0.961 . S
H564 C550 0.961 . S
H565 C551 0.958 . S
H566 C551 0.961 . S
H567 C551 0.960 . S
C568 C569 1.391 . S
C568 C570 1.394 . S
C568 H584 0.931 . S
C569 C568 1.391 . S
C569 C573 1.376 . S
C570 C568 1.394 . S
C570 C571 1.369 . S
C570 C574 1.531 . S
C571 C570 1.369 . S
C571 C572 1.410 . S
C571 C579 1.503 . S
C572 C571 1.410 . S
C572 C573 1.392 . S
C572 C575 1.511 . S
C573 C569 1.376 . S
C573 C572 1.392 . S
C573 H585 0.929 . S
C574 C570 1.531 . S
C574 H586 0.960 . S
C574 H587 0.962 . S
C574 H588 0.960 . S
C575 C572 1.511 . S
C575 H589 0.961 . S
C575 H590 0.961 . S
C575 H591 0.961 . S
C576 C577 1.370 . S
C576 C578 1.363 . S
C576 H592 0.931 . S
C577 C576 1.370 . S
C577 C581 1.408 . S
C578 C576 1.363 . S
C578 C579 1.370 . S
C578 C582 1.524 . S
C579 C571 1.503 . S
C579 C578 1.370 . S
C579 C580 1.403 . S
C580 C579 1.403 . S
C580 C581 1.404 . S
C580 C583 1.539 . S
C581 C577 1.408 . S
C581 C580 1.404 . S
C581 H593 0.930 . S
C582 C578 1.524 . S
C582 H594 0.956 . S
C582 H595 0.961 . S
C582 H596 0.961 . S
C583 C580 1.539 . S
C583 H597 0.958 . S
C583 H598 0.961 . S
C583 H599 0.960 . S
H584 C568 0.931 . S
H585 C573 0.929 . S
H586 C574 0.960 . S
H587 C574 0.962 . S
H588 C574 0.960 . S
H589 C575 0.961 . S
H590 C575 0.961 . S
H591 C575 0.961 . S
H592 C576 0.931 . S
H593 C581 0.930 . S
H594 C582 0.956 . S
H595 C582 0.961 . S
H596 C582 0.961 . S
H597 C583 0.958 . S
H598 C583 0.961 . S
H599 C583 0.960 . S
C600 C601 1.391 . S
C600 C602 1.394 . S
C600 H616 0.931 . S
C601 C600 1.391 . S
C601 C605 1.376 . S
C602 C600 1.394 . S
C602 C603 1.369 . S
C602 C606 1.531 . S
C603 C602 1.369 . S
C603 C604 1.410 . S
C603 C611 1.503 . S
C604 C603 1.410 . S
C604 C605 1.392 . S
C604 C607 1.511 . S
C605 C601 1.376 . S
C605 C604 1.392 . S
C605 H617 0.929 . S
C606 C602 1.531 . S
C606 H618 0.960 . S
C606 H619 0.962 . S
C606 H620 0.960 . S
C607 C604 1.511 . S
C607 H621 0.961 . S
C607 H622 0.961 . S
C607 H623 0.961 . S
C608 C609 1.370 . S
C608 C610 1.363 . S
C608 H624 0.931 . S
C609 C608 1.370 . S
C609 C613 1.408 . S
C610 C608 1.363 . S
C610 C611 1.370 . S
C610 C614 1.524 . S
C611 C603 1.503 . S
C611 C610 1.370 . S
C611 C612 1.403 . S
C612 C611 1.403 . S
C612 C613 1.404 . S
C612 C615 1.539 . S
C613 C609 1.408 . S
C613 C612 1.404 . S
C613 H625 0.930 . S
C614 C610 1.524 . S
C614 H626 0.956 . S
C614 H627 0.961 . S
C614 H628 0.961 . S
C615 C612 1.539 . S
C615 H629 0.958 1_545 S
C615 H630 0.961 . S
C615 H631 0.960 . S
H616 C600 0.931 . S
H617 C605 0.929 . S
H618 C606 0.960 . S
H619 C606 0.962 . S
H620 C606 0.960 . S
H621 C607 0.961 . S
H622 C607 0.961 . S
H623 C607 0.961 . S
H624 C608 0.931 . S
H625 C613 0.930 . S
H626 C614 0.956 . S
H627 C614 0.961 . S
H628 C614 0.961 . S
H629 C615 0.958 1_565 S
H630 C615 0.961 . S
H631 C615 0.960 . S
C632 C633 1.391 . S
C632 C634 1.394 . S
C632 H648 0.931 . S
C633 C632 1.391 . S
C633 C637 1.376 . S
C634 C632 1.394 . S
C634 C635 1.369 . S
C634 C638 1.531 . S
C635 C634 1.369 . S
C635 C636 1.410 . S
C635 C643 1.503 . S
C636 C635 1.410 . S
C636 C637 1.392 . S
C636 C639 1.511 . S
C637 C633 1.376 . S
C637 C636 1.392 . S
C637 H649 0.929 . S
C638 C634 1.531 . S
C638 H650 0.960 . S
C638 H651 0.962 . S
C638 H652 0.960 . S
C639 C636 1.511 . S
C639 H653 0.961 . S
C639 H654 0.961 . S
C639 H655 0.961 . S
C640 C641 1.370 . S
C640 C642 1.363 . S
C640 H656 0.931 . S
C641 C640 1.370 . S
C641 C645 1.408 . S
C642 C640 1.363 . S
C642 C643 1.370 . S
C642 C646 1.524 . S
C643 C635 1.503 . S
C643 C642 1.370 . S
C643 C644 1.403 . S
C644 C643 1.403 . S
C644 C645 1.404 . S
C644 C647 1.539 . S
C645 C641 1.408 . S
C645 C644 1.404 . S
C645 H657 0.930 . S
C646 C642 1.524 . S
C646 H658 0.956 . S
C646 H659 0.961 . S
C646 H660 0.961 . S
C647 C644 1.539 . S
C647 H661 0.958 . S
C647 H662 0.961 . S
C647 H663 0.960 . S
H648 C632 0.931 . S
H649 C637 0.929 . S
H650 C638 0.960 . S
H651 C638 0.962 . S
H652 C638 0.960 . S
H653 C639 0.961 . S
H654 C639 0.961 . S
H655 C639 0.961 . S
H656 C640 0.931 . S
H657 C645 0.930 . S
H658 C646 0.956 . S
H659 C646 0.961 . S
H660 C646 0.961 . S
H661 C647 0.958 . S
H662 C647 0.961 . S
H663 C647 0.960 . S
C664 C665 1.391 . S
C664 C666 1.394 . S
C664 H680 0.931 . S
C665 C664 1.391 . S
C665 C669 1.376 . S
C666 C664 1.394 . S
C666 C667 1.369 . S
C666 C670 1.531 . S
C667 C666 1.369 . S
C667 C668 1.410 . S
C667 C675 1.503 . S
C668 C667 1.410 . S
C668 C669 1.392 . S
C668 C671 1.511 . S
C669 C665 1.376 . S
C669 C668 1.392 . S
C669 H681 0.929 . S
C670 C666 1.531 . S
C670 H682 0.960 . S
C670 H683 0.962 . S
C670 H684 0.960 . S
C671 C668 1.511 . S
C671 H685 0.961 . S
C671 H686 0.961 . S
C671 H687 0.961 . S
C672 C673 1.370 . S
C672 C674 1.363 . S
C672 H688 0.931 1_565 S
C673 C672 1.370 . S
C673 C677 1.408 . S
C674 C672 1.363 . S
C674 C675 1.370 . S
C674 C678 1.524 1_565 S
C675 C667 1.503 . S
C675 C674 1.370 . S
C675 C676 1.403 . S
C676 C675 1.403 . S
C676 C677 1.404 . S
C676 C679 1.539 . S
C677 C673 1.408 . S
C677 C676 1.404 . S
C677 H689 0.930 . S
C678 C674 1.524 1_545 S
C678 H690 0.956 1_545 S
C678 H691 0.961 . S
C678 H692 0.961 . S
C679 C676 1.539 . S
C679 H693 0.958 . S
C679 H694 0.961 . S
C679 H695 0.960 . S
H680 C664 0.931 . S
H681 C669 0.929 . S
H682 C670 0.960 . S
H683 C670 0.962 . S
H684 C670 0.960 . S
H685 C671 0.961 . S
H686 C671 0.961 . S
H687 C671 0.961 . S
H688 C672 0.931 1_545 S
H689 C677 0.930 . S
H690 C678 0.956 1_565 S
H691 C678 0.961 . S
H692 C678 0.961 . S
H693 C679 0.958 . S
H694 C679 0.961 . S
H695 C679 0.960 . S
C321 C207 1.629 . S
C313 C133 1.642 . S
C345 C25 1.626 . S
C353 C302 1.624 . S
C377 C61 1.635 . S
C385 C218 1.632 . S
C409 C97 1.603 . S
C417 C291 1.623 . S
C449 C202 1.420 . S
C441 C1 1.556 . S
C481 C295 1.612 . S
C473 C67 1.588 . S
C505 C103 1.555 . S
C513 C211 1.617 . S
C537 C109 1.533 . S
C545 C286 1.422 . S
C577 C297 1.417 . S
C569 C37 1.539 . S
C609 C213 1.433 . S
C601 C73 1.556 . S
C641 C284 1.610 . S
C633 C139 1.601 . S
C665 C31 1.598 . S
C673 C200 1.618 . S
