# Generated by pormake.
# Topology bwt, (3,3)-cn, num edge types: 1
# Building blocks:
#     Node 0, Type 0, BuildingBlock: OLANEW_clean_sbu_2, # of connection points: 3
#     Node 1, Type 0, BuildingBlock: OLANEW_clean_sbu_2, # of connection points: 3
#     Node 2, Type 0, BuildingBlock: OLANEW_clean_sbu_2, # of connection points: 3
#     Node 3, Type 0, BuildingBlock: OLANEW_clean_sbu_2, # of connection points: 3
#     Node 4, Type 0, BuildingBlock: OLANEW_clean_sbu_2, # of connection points: 3
#     Node 5, Type 0, BuildingBlock: OLANEW_clean_sbu_2, # of connection points: 3
#     Node 6, Type 0, BuildingBlock: OLANEW_clean_sbu_2, # of connection points: 3
#     Node 7, Type 0, BuildingBlock: OLANEW_clean_sbu_2, # of connection points: 3
#     Node 8, Type 0, BuildingBlock: OLANEW_clean_sbu_2, # of connection points: 3
#     Node 9, Type 0, BuildingBlock: OLANEW_clean_sbu_2, # of connection points: 3
#     Node 10, Type 0, BuildingBlock: OLANEW_clean_sbu_2, # of connection points: 3
#     Node 11, Type 0, BuildingBlock: OLANEW_clean_sbu_2, # of connection points: 3
#     Node 12, Type 0, BuildingBlock: OLANEW_clean_sbu_2, # of connection points: 3
#     Node 13, Type 0, BuildingBlock: OLANEW_clean_sbu_2, # of connection points: 3
#     Node 14, Type 0, BuildingBlock: OLANEW_clean_sbu_2, # of connection points: 3
#     Node 15, Type 0, BuildingBlock: OLANEW_clean_sbu_2, # of connection points: 3
#     Node 16, Type 0, BuildingBlock: OLANEW_clean_sbu_2, # of connection points: 3
#     Node 17, Type 0, BuildingBlock: OLANEW_clean_sbu_2, # of connection points: 3
#     Node 18, Type 0, BuildingBlock: OLANEW_clean_sbu_2, # of connection points: 3
#     Node 19, Type 0, BuildingBlock: OLANEW_clean_sbu_2, # of connection points: 3
#     Node 20, Type 0, BuildingBlock: OLANEW_clean_sbu_2, # of connection points: 3
#     Node 21, Type 0, BuildingBlock: OLANEW_clean_sbu_2, # of connection points: 3
#     Node 22, Type 0, BuildingBlock: OLANEW_clean_sbu_2, # of connection points: 3
#     Node 23, Type 0, BuildingBlock: OLANEW_clean_sbu_2, # of connection points: 3
#     Node 24, Type 1, BuildingBlock: MIDCAF_clean_linker_0, # of connection points: 3
#     Node 25, Type 1, BuildingBlock: MIDCAF_clean_linker_0, # of connection points: 3
#     Node 26, Type 1, BuildingBlock: MIDCAF_clean_linker_0, # of connection points: 3
#     Node 27, Type 1, BuildingBlock: MIDCAF_clean_linker_0, # of connection points: 3
#     Node 28, Type 1, BuildingBlock: MIDCAF_clean_linker_0, # of connection points: 3
#     Node 29, Type 1, BuildingBlock: MIDCAF_clean_linker_0, # of connection points: 3
#     Node 30, Type 1, BuildingBlock: MIDCAF_clean_linker_0, # of connection points: 3
#     Node 31, Type 1, BuildingBlock: MIDCAF_clean_linker_0, # of connection points: 3
#     Node 32, Type 1, BuildingBlock: MIDCAF_clean_linker_0, # of connection points: 3
#     Node 33, Type 1, BuildingBlock: MIDCAF_clean_linker_0, # of connection points: 3
#     Node 34, Type 1, BuildingBlock: MIDCAF_clean_linker_0, # of connection points: 3
#     Node 35, Type 1, BuildingBlock: MIDCAF_clean_linker_0, # of connection points: 3
#     Node 36, Type 1, BuildingBlock: MIDCAF_clean_linker_0, # of connection points: 3
#     Node 37, Type 1, BuildingBlock: MIDCAF_clean_linker_0, # of connection points: 3
#     Node 38, Type 1, BuildingBlock: MIDCAF_clean_linker_0, # of connection points: 3
#     Node 39, Type 1, BuildingBlock: MIDCAF_clean_linker_0, # of connection points: 3
#     Node 40, Type 1, BuildingBlock: MIDCAF_clean_linker_0, # of connection points: 3
#     Node 41, Type 1, BuildingBlock: MIDCAF_clean_linker_0, # of connection points: 3
#     Node 42, Type 1, BuildingBlock: MIDCAF_clean_linker_0, # of connection points: 3
#     Node 43, Type 1, BuildingBlock: MIDCAF_clean_linker_0, # of connection points: 3
#     Node 44, Type 1, BuildingBlock: MIDCAF_clean_linker_0, # of connection points: 3
#     Node 45, Type 1, BuildingBlock: MIDCAF_clean_linker_0, # of connection points: 3
#     Node 46, Type 1, BuildingBlock: MIDCAF_clean_linker_0, # of connection points: 3
#     Node 47, Type 1, BuildingBlock: MIDCAF_clean_linker_0, # of connection points: 3
#     Edge 48, Type (0, 1), BuildingBlock: AJUNOK_clean_linker_0, # of connection points: 2
#     Edge 49, Type (0, 1), BuildingBlock: AJUNOK_clean_linker_0, # of connection points: 2
#     Edge 50, Type (0, 1), BuildingBlock: AJUNOK_clean_linker_0, # of connection points: 2
#     Edge 51, Type (0, 1), BuildingBlock: AJUNOK_clean_linker_0, # of connection points: 2
#     Edge 52, Type (0, 1), BuildingBlock: AJUNOK_clean_linker_0, # of connection points: 2
#     Edge 53, Type (0, 1), BuildingBlock: AJUNOK_clean_linker_0, # of connection points: 2
#     Edge 54, Type (0, 1), BuildingBlock: AJUNOK_clean_linker_0, # of connection points: 2
#     Edge 55, Type (0, 1), BuildingBlock: AJUNOK_clean_linker_0, # of connection points: 2
#     Edge 56, Type (0, 1), BuildingBlock: AJUNOK_clean_linker_0, # of connection points: 2
#     Edge 57, Type (0, 1), BuildingBlock: AJUNOK_clean_linker_0, # of connection points: 2
#     Edge 58, Type (0, 1), BuildingBlock: AJUNOK_clean_linker_0, # of connection points: 2
#     Edge 59, Type (0, 1), BuildingBlock: AJUNOK_clean_linker_0, # of connection points: 2
#     Edge 60, Type (0, 1), BuildingBlock: AJUNOK_clean_linker_0, # of connection points: 2
#     Edge 61, Type (0, 1), BuildingBlock: AJUNOK_clean_linker_0, # of connection points: 2
#     Edge 62, Type (0, 1), BuildingBlock: AJUNOK_clean_linker_0, # of connection points: 2
#     Edge 63, Type (0, 1), BuildingBlock: AJUNOK_clean_linker_0, # of connection points: 2
#     Edge 64, Type (0, 1), BuildingBlock: AJUNOK_clean_linker_0, # of connection points: 2
#     Edge 65, Type (0, 1), BuildingBlock: AJUNOK_clean_linker_0, # of connection points: 2
#     Edge 66, Type (0, 1), BuildingBlock: AJUNOK_clean_linker_0, # of connection points: 2
#     Edge 67, Type (0, 1), BuildingBlock: AJUNOK_clean_linker_0, # of connection points: 2
#     Edge 68, Type (0, 1), BuildingBlock: AJUNOK_clean_linker_0, # of connection points: 2
#     Edge 69, Type (0, 1), BuildingBlock: AJUNOK_clean_linker_0, # of connection points: 2
#     Edge 70, Type (0, 1), BuildingBlock: AJUNOK_clean_linker_0, # of connection points: 2
#     Edge 71, Type (0, 1), BuildingBlock: AJUNOK_clean_linker_0, # of connection points: 2
#     Edge 72, Type (0, 1), BuildingBlock: AJUNOK_clean_linker_0, # of connection points: 2
#     Edge 73, Type (0, 1), BuildingBlock: AJUNOK_clean_linker_0, # of connection points: 2
#     Edge 74, Type (0, 1), BuildingBlock: AJUNOK_clean_linker_0, # of connection points: 2
#     Edge 75, Type (0, 1), BuildingBlock: AJUNOK_clean_linker_0, # of connection points: 2
#     Edge 76, Type (0, 1), BuildingBlock: AJUNOK_clean_linker_0, # of connection points: 2
#     Edge 77, Type (0, 1), BuildingBlock: AJUNOK_clean_linker_0, # of connection points: 2
#     Edge 78, Type (0, 1), BuildingBlock: AJUNOK_clean_linker_0, # of connection points: 2
#     Edge 79, Type (0, 1), BuildingBlock: AJUNOK_clean_linker_0, # of connection points: 2
#     Edge 80, Type (0, 1), BuildingBlock: AJUNOK_clean_linker_0, # of connection points: 2
#     Edge 81, Type (0, 1), BuildingBlock: AJUNOK_clean_linker_0, # of connection points: 2
#     Edge 82, Type (0, 1), BuildingBlock: AJUNOK_clean_linker_0, # of connection points: 2
#     Edge 83, Type (0, 1), BuildingBlock: AJUNOK_clean_linker_0, # of connection points: 2
#     Edge 84, Type (0, 1), BuildingBlock: AJUNOK_clean_linker_0, # of connection points: 2
#     Edge 85, Type (0, 1), BuildingBlock: AJUNOK_clean_linker_0, # of connection points: 2
#     Edge 86, Type (0, 1), BuildingBlock: AJUNOK_clean_linker_0, # of connection points: 2
#     Edge 87, Type (0, 1), BuildingBlock: AJUNOK_clean_linker_0, # of connection points: 2
#     Edge 88, Type (0, 1), BuildingBlock: AJUNOK_clean_linker_0, # of connection points: 2
#     Edge 89, Type (0, 1), BuildingBlock: AJUNOK_clean_linker_0, # of connection points: 2
#     Edge 90, Type (0, 1), BuildingBlock: AJUNOK_clean_linker_0, # of connection points: 2
#     Edge 91, Type (0, 1), BuildingBlock: AJUNOK_clean_linker_0, # of connection points: 2
#     Edge 92, Type (0, 1), BuildingBlock: AJUNOK_clean_linker_0, # of connection points: 2
#     Edge 93, Type (0, 1), BuildingBlock: AJUNOK_clean_linker_0, # of connection points: 2
#     Edge 94, Type (0, 1), BuildingBlock: AJUNOK_clean_linker_0, # of connection points: 2
#     Edge 95, Type (0, 1), BuildingBlock: AJUNOK_clean_linker_0, # of connection points: 2
#     Edge 96, Type (0, 1), BuildingBlock: AJUNOK_clean_linker_0, # of connection points: 2
#     Edge 97, Type (0, 1), BuildingBlock: AJUNOK_clean_linker_0, # of connection points: 2
#     Edge 98, Type (0, 1), BuildingBlock: AJUNOK_clean_linker_0, # of connection points: 2
#     Edge 99, Type (0, 1), BuildingBlock: AJUNOK_clean_linker_0, # of connection points: 2
#     Edge 100, Type (0, 1), BuildingBlock: AJUNOK_clean_linker_0, # of connection points: 2
#     Edge 101, Type (0, 1), BuildingBlock: AJUNOK_clean_linker_0, # of connection points: 2
#     Edge 102, Type (0, 1), BuildingBlock: AJUNOK_clean_linker_0, # of connection points: 2
#     Edge 103, Type (0, 1), BuildingBlock: AJUNOK_clean_linker_0, # of connection points: 2
#     Edge 104, Type (0, 1), BuildingBlock: AJUNOK_clean_linker_0, # of connection points: 2
#     Edge 105, Type (0, 1), BuildingBlock: AJUNOK_clean_linker_0, # of connection points: 2
#     Edge 106, Type (0, 1), BuildingBlock: AJUNOK_clean_linker_0, # of connection points: 2
#     Edge 107, Type (0, 1), BuildingBlock: AJUNOK_clean_linker_0, # of connection points: 2
#     Edge 108, Type (0, 1), BuildingBlock: AJUNOK_clean_linker_0, # of connection points: 2
#     Edge 109, Type (0, 1), BuildingBlock: AJUNOK_clean_linker_0, # of connection points: 2
#     Edge 110, Type (0, 1), BuildingBlock: AJUNOK_clean_linker_0, # of connection points: 2
#     Edge 111, Type (0, 1), BuildingBlock: AJUNOK_clean_linker_0, # of connection points: 2
#     Edge 112, Type (0, 1), BuildingBlock: AJUNOK_clean_linker_0, # of connection points: 2
#     Edge 113, Type (0, 1), BuildingBlock: AJUNOK_clean_linker_0, # of connection points: 2
#     Edge 114, Type (0, 1), BuildingBlock: AJUNOK_clean_linker_0, # of connection points: 2
#     Edge 115, Type (0, 1), BuildingBlock: AJUNOK_clean_linker_0, # of connection points: 2
#     Edge 116, Type (0, 1), BuildingBlock: AJUNOK_clean_linker_0, # of connection points: 2
#     Edge 117, Type (0, 1), BuildingBlock: AJUNOK_clean_linker_0, # of connection points: 2
#     Edge 118, Type (0, 1), BuildingBlock: AJUNOK_clean_linker_0, # of connection points: 2
#     Edge 119, Type (0, 1), BuildingBlock: AJUNOK_clean_linker_0, # of connection points: 2
# Relax obj value: 0.143
# Max RMSD: 0.143
# Mean RMSD: 0.093
data_MOF--net-bwt--node1-OLANEW_clean_sbu_2--node2-MIDCAF_clean_linker_0--edge1-AJUNOK_clean_linker_0
_symmetry_space_group_name_H-M    P1
_symmetry_Int_Tables_number       1
_symmetry_cell_setting            triclinic
loop_
_symmetry_equiv_pos_as_xyz
'x, y, z'
_cell_length_a     56.677667
_cell_length_b     56.708464
_cell_length_c     56.694139
_cell_angle_alpha  93.728131
_cell_angle_beta   93.644019
_cell_angle_gamma 93.767154
loop_
_atom_site_label
_atom_site_type_symbol
_atom_site_fract_x
_atom_site_fract_y
_atom_site_fract_z
_atom_type_partial_charge
O0 O 0.25065 0.57172 0.32591 0.0
Cd1 Cd 0.24196 0.58295 0.28551 0.0
O2 O 0.28631 0.58882 0.32354 0.0
Cd3 Cd 0.29845 0.61086 0.29635 0.0
O4 O 0.3216 0.58526 0.28132 0.0
C5 C 0.34231 0.58853 0.29125 0.0
O6 O 0.34729 0.60696 0.30637 0.0
C7 C 0.27193 0.57601 0.33431 0.0
C8 C 0.19415 0.57365 0.2689 0.0
O9 O 0.20639 0.55811 0.27826 0.0
O10 O 0.2046 0.59407 0.267 0.0
O11 O 0.24208 0.389 0.73098 0.0
Cd12 Cd 0.24181 0.37363 0.69003 0.0
O13 O 0.20471 0.37547 0.72884 0.0
Cd14 Cd 0.19256 0.35298 0.69747 0.0
O15 O 0.1681 0.3793 0.68624 0.0
C16 C 0.15193 0.37995 0.70066 0.0
O17 O 0.15081 0.36399 0.71638 0.0
C18 C 0.22201 0.38785 0.73969 0.0
C19 C 0.2848 0.38982 0.67316 0.0
O20 O 0.27153 0.40312 0.68461 0.0
O21 O 0.27721 0.36821 0.66832 0.0
O22 O 0.73419 0.98566 0.67871 0.0
Cd23 Cd 0.73677 0.98698 0.72142 0.0
O24 O 0.76828 0.96989 0.68227 0.0
Cd25 Cd 0.77368 0.96757 0.72111 0.0
O26 O 0.80714 0.98975 0.72972 0.0
C27 C 0.81901 0.98381 0.71232 0.0
O28 O 0.8102 0.96615 0.69764 0.0
C29 C 0.75248 0.97875 0.66947 0.0
C30 C 0.69342 -0.00216 0.73747 0.0
O31 O 0.70244 0.00858 0.72075 0.0
O32 O 0.70519 0.98228 0.74737 0.0
O33 O 0.75496 0.0124 0.26518 0.0
Cd34 Cd 0.7606 0.00491 0.30739 0.0
O35 O 0.72382 0.02016 0.283 0.0
Cd36 Cd 0.69308 0.02585 0.30211 0.0
O37 O 0.67072 0.99377 0.29881 0.0
C38 C 0.64928 -0.00155 0.29741 0.0
O39 O 0.64426 0.02049 0.30193 0.0
C40 C 0.73328 0.01639 0.26353 0.0
C41 C 0.806 0.99039 0.31563 0.0
O42 O 0.79095 0.97963 0.30018 0.0
O43 O 0.79924 0.00778 0.32842 0.0
O44 O 0.32287 0.24882 0.57146 0.0
Cd45 Cd 0.28246 0.24179 0.58295 0.0
O46 O 0.32222 0.28487 0.58822 0.0
Cd47 Cd 0.29633 0.29899 0.6109 0.0
O48 O 0.27933 0.32212 0.5867 0.0
C49 C 0.2918 0.34154 0.58768 0.0
O50 O 0.30974 0.34522 0.60358 0.0
C51 C 0.33212 0.26983 0.57529 0.0
C52 C 0.26617 0.19413 0.57337 0.0
O53 O 0.27527 0.20663 0.55787 0.0
O54 O 0.26414 0.20433 0.59387 0.0
O55 O 0.26554 0.75185 0.01357 0.0
Cd56 Cd 0.30707 0.75977 0.00549 0.0
O57 O 0.28031 0.71832 0.01896 0.0
Cd58 Cd 0.30989 0.69689 0.02274 0.0
O59 O 0.30207 0.67259 0.99143 0.0
C60 C 0.29183 0.65456 -0.00072 0.0
O61 O 0.29089 0.65388 0.02233 0.0
C62 C 0.26217 0.73 0.01671 0.0
C63 C 0.31474 0.80577 0.99171 0.0
O64 O 0.30078 0.79012 0.97972 0.0
O65 O 0.32566 0.79974 0.01062 0.0
O66 O 0.73374 0.24582 0.39139 0.0
Cd67 Cd 0.69242 0.24299 0.37349 0.0
O68 O 0.72606 0.21097 0.37416 0.0
Cd69 Cd 0.70342 0.18612 0.35122 0.0
O70 O 0.69244 0.16824 0.38158 0.0
C71 C 0.69284 0.14606 0.37837 0.0
O72 O 0.69447 0.13702 0.35667 0.0
C73 C 0.73982 0.22497 0.38783 0.0
C74 C 0.67386 0.28467 0.38992 0.0
O75 O 0.68454 0.27097 0.40333 0.0
O76 O 0.66953 0.2775 0.36813 0.0
O77 O 0.67746 0.73267 0.9846 0.0
Cd78 Cd 0.71917 0.73765 0.98632 0.0
O79 O 0.67917 0.76676 0.96752 0.0
Cd80 Cd 0.71327 0.77843 0.95469 0.0
O81 O 0.71981 0.80383 0.98513 0.0
C82 C 0.71339 0.82391 0.97999 0.0
O83 O 0.70692 0.82721 0.95789 0.0
C84 C 0.66774 0.75057 0.97747 0.0
C85 C 0.73566 0.6947 -0.00404 0.0
O86 O 0.72357 0.70616 0.01054 0.0
O87 O 0.74078 0.70403 0.97679 0.0
O88 O 0.56679 0.32482 0.24655 0.0
Cd89 Cd 0.57776 0.28399 0.24036 0.0
O90 O 0.58664 0.31814 0.279 0.0
Cd91 Cd 0.60984 0.29701 0.29936 0.0
O92 O 0.58831 0.2789 0.32389 0.0
C93 C 0.58278 0.29532 0.33826 0.0
O94 O 0.59263 0.31678 0.3371 0.0
C95 C 0.57296 0.33109 0.26795 0.0
C96 C 0.57124 0.2661 0.19329 0.0
O97 O 0.55564 0.278 0.20294 0.0
O98 O 0.58998 0.26231 0.2058 0.0
O99 O 0.01004 0.26474 0.75533 0.0
Cd100 Cd 0.0026 0.3067 0.76081 0.0
O101 O 0.02259 0.28419 0.72678 0.0
Cd102 Cd 0.02669 0.29893 0.69348 0.0
O103 O 0.99372 0.29615 0.67248 0.0
C104 C -0.00345 0.29815 0.65083 0.0
O105 O 0.01745 0.30615 0.64488 0.0
C106 C 0.01601 0.26433 0.73426 0.0
C107 C 0.9891 0.31569 0.80609 0.0
O108 O 0.97867 0.29899 0.7923 0.0
O109 O 0.00565 0.32886 0.79833 0.0
O110 O 0.39348 0.73396 0.24757 0.0
Cd111 Cd 0.38179 0.6912 0.24326 0.0
O112 O 0.37431 0.72603 0.21369 0.0
Cd113 Cd 0.3513 0.70244 0.18984 0.0
O114 O 0.37976 0.69078 0.16909 0.0
C115 C 0.37754 0.70109 0.15008 0.0
O116 O 0.3591 0.71353 0.14644 0.0
C117 C 0.38797 0.74032 0.22716 0.0
C118 C 0.39168 0.6722 0.28623 0.0
O119 O 0.40764 0.68378 0.2759 0.0
O120 O 0.37104 0.66842 0.27567 0.0
O121 O 0.98364 0.67626 0.72985 0.0
Cd122 Cd 0.98397 0.71928 0.73588 0.0
O123 O 0.96706 0.68324 0.76259 0.0
Cd124 Cd 0.95061 0.70764 0.78585 0.0
O125 O 0.9856 0.71376 0.80332 0.0
C126 C 0.98485 0.72121 0.82466 0.0
O127 O 0.96535 0.73037 0.83099 0.0
C128 C 0.97674 0.66882 0.74894 0.0
C129 C -0.00201 0.73653 0.69425 0.0
O130 O 0.01056 0.72273 0.70583 0.0
O131 O 0.97938 0.74375 0.70321 0.0
O132 O 0.73792 0.413 0.66381 0.0
Cd133 Cd 0.7491 0.41798 0.70753 0.0
O134 O 0.71754 0.43738 0.6828 0.0
Cd135 Cd 0.69839 0.46531 0.69777 0.0
O136 O 0.67278 0.44155 0.71265 0.0
C137 C 0.65492 0.44224 0.69835 0.0
O138 O 0.65508 0.45833 0.68269 0.0
C139 C 0.72136 0.42689 0.66318 0.0
C140 C 0.79728 0.422 0.72342 0.0
O141 O 0.78807 0.4049 0.70934 0.0
O142 O 0.784 0.43834 0.72988 0.0
O143 O 0.74752 0.6034 0.25814 0.0
Cd144 Cd 0.74854 0.60334 0.30253 0.0
O145 O 0.76902 0.57915 0.27555 0.0
Cd146 Cd 0.79184 0.55299 0.28669 0.0
O147 O 0.81633 0.58401 0.29051 0.0
C148 C 0.83691 0.57959 0.29784 0.0
O149 O 0.83959 0.55898 0.30665 0.0
C150 C 0.76203 0.58747 0.25633 0.0
C151 C 0.70376 0.59746 0.31785 0.0
O152 O 0.71293 0.61755 0.31274 0.0
O153 O 0.71626 0.57941 0.31664 0.0
O154 O 0.2561 0.01304 0.3131 0.0
Cd155 Cd 0.25391 -0.00135 0.27063 0.0
O156 O 0.23319 0.98187 0.30384 0.0
Cd157 Cd 0.20775 0.95252 0.30047 0.0
O158 O 0.18683 0.97195 0.27603 0.0
C159 C 0.17637 0.98923 0.28498 0.0
O160 O 0.18424 -0.0017 0.30613 0.0
C161 C 0.24085 -0.00208 0.3195 0.0
C162 C 0.29738 0.9892 0.25447 0.0
O163 O 0.2913 0.01038 0.25807 0.0
O164 O 0.2827 0.9719 0.25831 0.0
O165 O 0.24012 0.97488 0.72246 0.0
Cd166 Cd 0.23205 0.99229 0.68479 0.0
O167 O 0.26398 0.0052 0.71833 0.0
Cd168 Cd 0.29268 0.03181 0.72213 0.0
O169 O 0.32216 0.03276 0.70013 0.0
C170 C 0.333 0.0139 0.69868 0.0
O171 O 0.32059 0.99344 0.69822 0.0
C172 C 0.2585 0.98759 0.73004 0.0
C173 C 0.18536 0.00249 0.67733 0.0
O174 O 0.19148 0.98117 0.67717 0.0
O175 O 0.20166 0.01935 0.68122 0.0
O176 O 0.66168 0.73603 0.4101 0.0
Cd177 Cd 0.70478 0.74805 0.41075 0.0
O178 O 0.68304 0.71605 0.43321 0.0
Cd179 Cd 0.69129 0.694 0.46119 0.0
O180 O 0.70211 0.67266 0.43156 0.0
C181 C 0.71108 0.65395 0.43731 0.0
O182 O 0.71957 0.65326 0.45935 0.0
C183 C 0.66275 0.71965 0.42416 0.0
C184 C 0.72008 0.79616 0.42016 0.0
O185 O 0.70806 0.78848 0.40101 0.0
O186 O 0.72455 0.78107 0.43547 0.0
O187 O 0.72054 0.23679 0.97558 0.0
Cd188 Cd 0.68245 0.23144 0.994 0.0
O189 O 0.71824 0.26209 0.00531 0.0
Cd190 Cd 0.72884 0.29195 0.0291 0.0
O191 O 0.71022 0.3167 0.00927 0.0
C192 C 0.7027 0.33335 0.02174 0.0
O193 O 0.70041 0.33029 0.0443 0.0
C194 C 0.72952 0.25479 0.98802 0.0
C195 C 0.67483 0.18485 0.00493 0.0
O196 O 0.67309 0.19063 0.9835 0.0
O197 O 0.67948 0.20129 0.02153 0.0
O198 O 0.25625 0.74916 0.60519 0.0
Cd199 Cd 0.30047 0.74916 0.60739 0.0
O200 O 0.27352 0.77174 0.5816 0.0
Cd201 Cd 0.28188 0.79682 0.5563 0.0
O202 O 0.30726 0.81987 0.57896 0.0
C203 C 0.29762 0.83145 0.59525 0.0
O204 O 0.28465 0.81932 0.60928 0.0
C205 C 0.25453 0.76491 0.59048 0.0
C206 C 0.31772 0.70499 0.59966 0.0
O207 O 0.31069 0.71187 0.6198 0.0
O208 O 0.31719 0.71932 0.58305 0.0
O209 O 0.31123 0.25457 0.01311 0.0
Cd210 Cd 0.26857 0.25243 0.00088 0.0
O211 O 0.30143 0.23155 0.98192 0.0
Cd212 Cd 0.29954 0.20694 0.95167 0.0
O213 O 0.28057 0.18675 0.97678 0.0
C214 C 0.28025 0.16491 0.97097 0.0
O215 O 0.28892 0.15835 0.95079 0.0
C216 C 0.31721 0.23924 -0.00214 0.0
C217 C 0.25296 0.29563 0.98962 0.0
O218 O 0.25843 0.29114 0.01101 0.0
O219 O 0.25443 0.2793 0.97311 0.0
O220 O 0.41617 0.66503 0.73771 0.0
Cd221 Cd 0.4206 0.7083 0.74925 0.0
O222 O 0.43896 0.67901 0.71196 0.0
Cd223 Cd 0.45943 0.7084 0.69923 0.0
O224 O 0.44157 0.72618 0.67113 0.0
C225 C 0.43042 0.70945 0.65824 0.0
O226 O 0.43063 0.6885 0.66613 0.0
C227 C 0.42715 0.66151 0.7191 0.0
C228 C 0.4221 0.72455 0.79746 0.0
O229 O 0.40471 0.7113 0.78746 0.0
O230 O 0.43957 0.72982 0.78506 0.0
O231 O 0.97039 0.719 0.24453 0.0
Cd232 Cd 0.99119 0.6828 0.23285 0.0
O233 O 0.0025 0.7155 0.26573 0.0
Cd234 Cd 0.03387 0.72227 0.28871 0.0
O235 O 0.03038 0.70222 0.31901 0.0
C236 C 0.01206 0.70772 0.32923 0.0
O237 O -0.0031 0.72004 0.3177 0.0
C238 C 0.98433 0.72692 0.26193 0.0
C239 C 0.00272 0.6762 0.18561 0.0
O240 O 0.98126 0.67553 0.1914 0.0
O241 O 0.01923 0.68035 0.2022 0.0
O242 O 0.60436 0.25402 0.74858 0.0
Cd243 Cd 0.60713 0.29828 0.74853 0.0
O244 O 0.58925 0.27431 0.77645 0.0
Cd245 Cd 0.56203 0.28073 0.79923 0.0
O246 O 0.57426 0.30913 0.82435 0.0
C247 C 0.5921 0.30221 0.83586 0.0
O248 O 0.60975 0.29535 0.82377 0.0
C249 C 0.59275 0.25436 0.76687 0.0
C250 C 0.59525 0.31439 0.70477 0.0
O251 O 0.6147 0.30497 0.70971 0.0
O252 O 0.58068 0.31652 0.72109 0.0
O253 O 0.01201 0.31498 0.2575 0.0
Cd254 Cd -0.00236 0.27285 0.25479 0.0
O255 O 0.98213 0.30516 0.23291 0.0
Cd256 Cd 0.95422 0.30205 0.20581 0.0
O257 O 0.97088 0.27383 0.18637 0.0
C258 C 0.98931 0.28075 0.17634 0.0
O259 O 0.00321 0.29797 0.18739 0.0
C260 C -0.00232 0.32099 0.24138 0.0
C261 C 0.98819 0.25643 0.29811 0.0
O262 O 0.00913 0.26273 0.29274 0.0
O263 O 0.97083 0.25825 0.2828 0.0
C264 C 0.31714 0.60369 0.54549 0.0
C265 C 0.3191 0.60569 0.57035 0.0
C266 C 0.32163 0.58488 0.5824 0.0
C267 C 0.32154 0.56264 0.56948 0.0
H268 H 0.31843 0.48505 0.5695 0.0
H269 H 0.31242 0.44517 0.58298 0.0
H270 H 0.316 0.41551 0.51129 0.0
H271 H 0.32295 0.45489 0.49794 0.0
H272 H 0.30746 0.48609 0.45284 0.0
H273 H 0.30149 0.49318 0.4104 0.0
H274 H 0.3138 0.56838 0.42792 0.0
H275 H 0.3198 0.5617 0.46913 0.0
H276 H 0.31397 0.58197 0.51383 0.0
H277 H 0.31618 0.61916 0.5353 0.0
H278 H 0.32318 0.58565 0.60157 0.0
H279 H 0.32356 0.54685 0.57897 0.0
N280 N 0.31995 0.51694 0.53831 0.0
N281 N 0.3178 0.49894 0.49933 0.0
N282 N 0.31652 0.53975 0.50555 0.0
C283 C 0.31979 0.49705 0.52326 0.0
C284 C 0.31624 0.52037 0.49037 0.0
C285 C 0.31836 0.53851 0.52937 0.0
C286 C 0.32028 0.47324 0.53248 0.0
C287 C 0.31833 0.47002 0.55668 0.0
C288 C 0.31472 0.44721 0.56438 0.0
C289 C 0.31263 0.42737 0.54793 0.0
C290 C 0.31706 0.43049 0.52427 0.0
C291 C 0.32084 0.45317 0.51662 0.0
C292 C 0.31409 0.52331 0.46449 0.0
C293 C 0.30927 0.50406 0.44745 0.0
C294 C 0.30592 0.50805 0.42324 0.0
C295 C 0.30779 0.53129 0.41589 0.0
C296 C 0.31302 0.55024 0.43292 0.0
C297 C 0.31614 0.54635 0.45675 0.0
C298 C 0.31857 0.56104 0.54448 0.0
C299 C 0.31621 0.58198 0.53293 0.0
C300 C 0.23583 0.56321 0.93266 0.0
C301 C 0.24404 0.56722 0.95668 0.0
C302 C 0.24194 0.54793 0.9711 0.0
C303 C 0.23741 0.52481 0.96112 0.0
H304 H 0.24178 0.45115 0.97817 0.0
H305 H 0.24579 0.41404 -0.00149 0.0
H306 H 0.22205 0.3737 0.9332 0.0
H307 H 0.22101 0.40903 0.91276 0.0
H308 H 0.206 0.42613 0.87174 0.0
H309 H 0.19602 0.41469 0.83057 0.0
H310 H 0.21144 0.48655 0.8126 0.0
H311 H 0.22053 0.49884 0.85493 0.0
H312 H 0.22465 0.53751 0.90404 0.0
H313 H 0.23582 0.57754 0.92097 0.0
H314 H 0.24498 0.55037 0.99015 0.0
H315 H 0.23829 0.51036 0.97266 0.0
N316 N 0.23332 0.47707 0.93946 0.0
N317 N 0.22614 0.45102 0.90582 0.0
N318 N 0.22491 0.49162 0.90191 0.0
C319 C 0.23119 0.45451 0.92947 0.0
C320 C 0.2227 0.4691 0.89192 0.0
C321 C 0.23025 0.49578 0.92571 0.0
C322 C 0.23207 0.43324 0.94354 0.0
C323 C 0.23783 0.43425 0.96822 0.0
C324 C 0.23971 0.41312 0.97995 0.0
C325 C 0.23531 0.39102 0.96705 0.0
C326 C 0.22668 0.39043 0.94333 0.0
C327 C 0.22613 0.41096 0.93155 0.0
C328 C 0.21465 0.4634 0.86669 0.0
C329 C 0.20675 0.43986 0.85935 0.0
C330 C 0.20046 0.43329 0.83573 0.0
C331 C 0.2028 0.44977 0.81861 0.0
C332 C 0.20921 0.47366 0.82572 0.0
C333 C 0.21481 0.48053 0.84978 0.0
C334 C 0.23235 0.52048 0.93663 0.0
C335 C 0.22978 0.54006 0.92281 0.0
C336 C 0.739 0.90771 0.46209 0.0
C337 C 0.7416 0.89906 0.43868 0.0
C338 C 0.74531 0.91635 0.42193 0.0
C339 C 0.74867 0.94093 0.42931 0.0
H340 H 0.74201 0.01889 0.41547 0.0
H341 H 0.73093 0.05471 0.3969 0.0
H342 H 0.75392 0.09707 0.46109 0.0
H343 H 0.76502 0.06164 0.4799 0.0
H344 H 0.76232 0.03853 0.52985 0.0
H345 H 0.76541 0.03999 0.57345 0.0
H346 H 0.77872 0.96597 0.5707 0.0
H347 H 0.77506 0.96403 0.52773 0.0
H348 H 0.74299 0.93609 0.48826 0.0
H349 H 0.73247 0.89646 0.47519 0.0
H350 H 0.74618 0.91103 0.40335 0.0
H351 H 0.75166 0.95371 0.41623 0.0
N352 N 0.75295 0.9931 0.45108 0.0
N353 N 0.76131 0.01785 0.48626 0.0
N354 N 0.75996 0.97687 0.48765 0.0
C355 C 0.7565 0.01539 0.46234 0.0
C356 C 0.76327 -0.00133 0.49903 0.0
C357 C 0.75466 0.97359 0.46389 0.0
C358 C 0.75376 0.03716 0.4494 0.0
C359 C 0.74522 0.03582 0.42551 0.0
C360 C 0.73903 0.0563 0.41482 0.0
C361 C 0.74138 0.07837 0.42782 0.0
C362 C 0.75199 0.08016 0.45084 0.0
C363 C 0.75806 0.05974 0.4616 0.0
C364 C 0.76808 0.00104 0.52521 0.0
C365 C 0.76636 0.02268 0.53855 0.0
C366 C 0.76837 0.02364 0.56343 0.0
C367 C 0.77256 0.00311 0.57517 0.0
C368 C 0.77587 0.98206 0.56191 0.0
C369 C 0.77344 0.98095 0.53727 0.0
C370 C 0.74925 0.94853 0.45362 0.0
C371 C 0.74411 0.93133 0.46958 0.0
C372 C 0.67685 0.91031 0.04415 0.0
C373 C 0.67986 0.90719 0.02001 0.0
C374 C 0.68161 0.92699 0.00634 0.0
C375 C 0.68205 0.94993 0.01729 0.0
H376 H 0.67592 0.02803 0.01029 0.0
H377 H 0.67218 0.06726 0.99441 0.0
H378 H 0.68532 0.10036 0.0651 0.0
H379 H 0.68985 0.06231 0.08069 0.0
H380 H 0.6778 0.03323 0.12374 0.0
H381 H 0.67903 0.03341 0.16667 0.0
H382 H 0.69911 0.96132 0.16349 0.0
H383 H 0.6967 0.96046 0.12008 0.0
H384 H 0.67661 0.93441 0.07411 0.0
H385 H 0.67591 0.89522 0.05496 0.0
H386 H 0.68427 0.92472 0.98759 0.0
H387 H 0.68441 0.96503 0.00671 0.0
N388 N 0.68385 -0.00255 0.04417 0.0
N389 N 0.68768 0.01829 0.08164 0.0
N390 N 0.68715 0.97718 0.079 0.0
C391 C 0.68556 0.01853 0.05757 0.0
C392 C 0.68841 -0.00231 0.09245 0.0
C393 C 0.68463 0.97665 0.05506 0.0
C394 C 0.68349 0.0418 0.04682 0.0
C395 C 0.67821 0.04374 0.02236 0.0
C396 C 0.67583 0.06614 0.01327 0.0
C397 C 0.67888 0.08694 0.02849 0.0
C398 C 0.68344 0.08478 0.05282 0.0
C399 C 0.68597 0.06275 0.06178 0.0
C400 C 0.68798 -0.00283 0.1185 0.0
C401 C 0.68203 0.01721 0.13203 0.0
C402 C 0.68219 0.01716 0.15659 0.0
C403 C 0.68938 -0.00251 0.16828 0.0
C404 C 0.6934 0.97666 0.15485 0.0
C405 C 0.69257 0.97645 0.13006 0.0
C406 C 0.68122 0.95307 0.04201 0.0
C407 C 0.67775 0.93292 0.05509 0.0
C408 C 0.54484 0.30494 0.6014 0.0
C409 C 0.56745 0.31653 0.60573 0.0
C410 C 0.57939 0.32436 0.58628 0.0
C411 C 0.56719 0.32382 0.56372 0.0
H412 H 0.56763 0.32055 0.48456 0.0
H413 H 0.58061 0.31609 0.44446 0.0
H414 H 0.50729 0.31317 0.41694 0.0
H415 H 0.49518 0.32118 0.45587 0.0
H416 H 0.45167 0.30802 0.48662 0.0
H417 H 0.40928 0.30061 0.49307 0.0
H418 H 0.42514 0.31412 0.56838 0.0
H419 H 0.46663 0.3213 0.5623 0.0
H420 H 0.5142 0.29831 0.57802 0.0
H421 H 0.53592 0.29668 0.61541 0.0
H422 H 0.59737 0.33226 0.58879 0.0
H423 H 0.57614 0.33094 0.54915 0.0
N424 N 0.53654 0.32028 0.51732 0.0
N425 N 0.49752 0.319 0.49978 0.0
N426 N 0.50386 0.31737 0.54057 0.0
C427 C 0.5214 0.32065 0.4976 0.0
C428 C 0.48862 0.31756 0.52126 0.0
C429 C 0.52769 0.3185 0.53895 0.0
C430 C 0.53029 0.32082 0.47356 0.0
C431 C 0.55447 0.31979 0.46977 0.0
C432 C 0.56184 0.31689 0.44667 0.0
C433 C 0.5451 0.31398 0.42692 0.0
C434 C 0.52112 0.3162 0.43098 0.0
C435 C 0.51396 0.32017 0.4538 0.0
C436 C 0.46267 0.31511 0.52398 0.0
C437 C 0.44597 0.30976 0.50449 0.0
C438 C 0.42176 0.30558 0.50812 0.0
C439 C 0.41401 0.307 0.53122 0.0
C440 C 0.43056 0.31332 0.55036 0.0
C441 C 0.45448 0.31716 0.54684 0.0
C442 C 0.54296 0.31596 0.56079 0.0
C443 C 0.5324 0.30568 0.57972 0.0
C444 C 0.05154 0.67671 0.08363 0.0
C445 C 0.02702 0.67369 0.0864 0.0
C446 C 0.01171 0.67103 0.06552 0.0
C447 C 0.02087 0.67154 0.04288 0.0
H448 H 0.00645 0.67634 0.96374 0.0
H449 H 0.98824 0.68154 0.92396 0.0
H450 H 0.05548 0.67274 0.89415 0.0
H451 H 0.07361 0.66756 0.93289 0.0
H452 H 0.11872 0.68555 0.95944 0.0
H453 H 0.16184 0.69196 0.96038 0.0
H454 H 0.16686 0.67938 0.03466 0.0
H455 H 0.12383 0.67334 0.03413 0.0
H456 H 0.07949 0.68085 0.06088 0.0
H457 H 0.06433 0.67785 0.09872 0.0
H458 H 0.9927 0.66907 0.06649 0.0
H459 H 0.00873 0.66923 0.02723 0.0
N460 N 0.04329 0.67379 -0.0039 0.0
N461 N 0.07846 0.67578 0.9762 0.0
N462 N 0.08057 0.67736 0.01734 0.0
C463 C 0.05448 0.67376 0.9754 0.0
C464 C 0.09165 0.67745 -0.00311 0.0
C465 C 0.05646 0.67557 0.01732 0.0
C466 C 0.04163 0.67235 0.9517 0.0
C467 C 0.01715 0.67499 0.94862 0.0
C468 C 0.00672 0.67777 0.92593 0.0
C469 C 0.02077 0.67792 0.90635 0.0
C470 C 0.0445 0.67295 0.90914 0.0
C471 C 0.05484 0.6702 0.9315 0.0
C472 C 0.11779 0.6793 -0.00313 0.0
C473 C 0.12898 0.68375 0.97592 0.0
C474 C 0.15362 0.68717 0.9763 0.0
C475 C 0.16739 0.68586 -0.00248 0.0
C476 C 0.15644 0.68003 0.01804 0.0
C477 C 0.13183 0.67696 0.01779 0.0
C478 C 0.04548 0.67522 0.04064 0.0
C479 C 0.06046 0.67804 0.06147 0.0
C480 C 0.94272 0.23731 0.39459 0.0
C481 C 0.96705 0.23535 0.39276 0.0
C482 C 0.98138 0.23305 0.41368 0.0
C483 C 0.97088 0.23025 0.43544 0.0
H484 H 0.97476 0.23769 0.51425 0.0
H485 H 0.98988 0.24971 0.55491 0.0
H486 H 0.9225 0.22749 0.58035 0.0
H487 H 0.90719 0.21508 0.5399 0.0
H488 H 0.85431 0.20932 0.49884 0.0
H489 H 0.81255 0.20268 0.482 0.0
H490 H 0.83868 0.20839 0.41251 0.0
H491 H 0.87696 0.20652 0.42723 0.0
H492 H 0.91329 0.23441 0.41544 0.0
H493 H 0.93129 0.24106 0.37943 0.0
H494 H 0.00039 0.23249 0.41307 0.0
H495 H 0.98202 0.22769 0.45117 0.0
N496 N 0.94289 0.22595 0.48022 0.0
N497 N 0.90512 0.2159 0.49443 0.0
N498 N 0.90975 0.21754 0.45409 0.0
C499 C 0.92902 0.22189 0.49877 0.0
C500 C 0.89543 0.21351 0.47176 0.0
C501 C 0.93306 0.22384 0.45762 0.0
C502 C 0.93952 0.2258 0.52361 0.0
C503 C 0.96325 0.23479 0.52847 0.0
C504 C 0.97204 0.24152 0.55176 0.0
C505 C 0.9573 0.23938 0.5706 0.0
C506 C 0.93417 0.22911 0.56604 0.0
C507 C 0.92541 0.22221 0.54282 0.0
C508 C 0.86957 0.20805 0.46459 0.0
C509 C 0.85068 0.20719 0.4798 0.0
C510 C 0.82672 0.20369 0.47009 0.0
C511 C 0.8215 0.20217 0.44512 0.0
C512 C 0.84074 0.20524 0.43105 0.0
C513 C 0.86371 0.20588 0.44015 0.0
C514 C 0.94603 0.22954 0.43632 0.0
C515 C 0.93236 0.23377 0.41562 0.0
C516 C 0.45996 0.74684 0.90526 0.0
C517 C 0.43551 0.74417 0.89942 0.0
C518 C 0.42006 0.74469 0.91796 0.0
C519 C 0.4292 0.74772 0.94191 0.0
H520 H 0.41524 0.74446 0.01848 0.0
H521 H 0.39613 0.73516 0.0543 0.0
H522 H 0.46339 0.75004 0.09499 0.0
H523 H 0.48109 0.76245 0.06039 0.0
H524 H 0.53062 0.7592 0.03724 0.0
H525 H 0.5742 0.76237 0.03795 0.0
H526 H 0.57005 0.78721 0.96763 0.0
H527 H 0.52723 0.78207 0.96587 0.0
H528 H 0.48807 0.75166 0.93208 0.0
H529 H 0.47229 0.74626 0.89141 0.0
H530 H 0.40107 0.74228 0.91398 0.0
H531 H 0.41698 0.74796 0.95584 0.0
N532 N 0.45189 0.7523 0.99212 0.0
N533 N 0.48675 0.76095 0.01702 0.0
N534 N 0.48862 0.75935 0.97599 0.0
C535 C 0.46293 0.75586 0.01446 0.0
C536 C 0.49968 0.76295 -0.00201 0.0
C537 C 0.46484 0.75401 0.97265 0.0
C538 C 0.44992 0.75335 0.03626 0.0
C539 C 0.42567 0.7464 0.03526 0.0
C540 C 0.41482 0.74078 0.0559 0.0
C541 C 0.42822 0.74077 0.07785 0.0
C542 C 0.45197 0.74984 0.079 0.0
C543 C 0.46248 0.75647 0.05864 0.0
C544 C 0.52554 0.76924 0.00098 0.0
C545 C 0.53909 0.76556 0.02204 0.0
C546 C 0.56396 0.7678 0.0227 0.0
C547 C 0.57521 0.7742 0.00246 0.0
C548 C 0.56161 0.78164 0.98317 0.0
C549 C 0.53708 0.77833 0.98205 0.0
C550 C 0.45393 0.75036 0.94765 0.0
C551 C 0.46899 0.74987 0.9288 0.0
C552 C 0.6034 0.54666 0.31262 0.0
C553 C 0.60471 0.57121 0.31742 0.0
C554 C 0.58384 0.58258 0.32131 0.0
C555 C 0.56198 0.56915 0.32119 0.0
H556 H 0.48516 0.56886 0.31739 0.0
H557 H 0.44543 0.58191 0.31014 0.0
H558 H 0.4154 0.51141 0.3191 0.0
H559 H 0.45497 0.498 0.3256 0.0
H560 H 0.48627 0.45149 0.30929 0.0
H561 H 0.4939 0.40952 0.30396 0.0
H562 H 0.56936 0.42983 0.30978 0.0
H563 H 0.56171 0.46944 0.31829 0.0
H564 H 0.582 0.51439 0.30909 0.0
H565 H 0.61928 0.53759 0.30948 0.0
H566 H 0.58457 0.60159 0.32509 0.0
H567 H 0.54617 0.57814 0.32473 0.0
N568 N 0.517 0.53789 0.32032 0.0
N569 N 0.49895 0.49895 0.31881 0.0
N570 N 0.53976 0.50518 0.31645 0.0
C571 C 0.49713 0.52289 0.32076 0.0
C572 C 0.52035 0.48998 0.31676 0.0
C573 C 0.53853 0.52897 0.31816 0.0
C574 C 0.47333 0.53221 0.32138 0.0
C575 C 0.47013 0.55621 0.31825 0.0
C576 C 0.44733 0.56374 0.31422 0.0
C577 C 0.42741 0.54751 0.31375 0.0
C578 C 0.4305 0.52417 0.31921 0.0
C579 C 0.45323 0.51652 0.32281 0.0
C580 C 0.52336 0.46405 0.31426 0.0
C581 C 0.50443 0.44653 0.31006 0.0
C582 C 0.50894 0.42232 0.30658 0.0
C583 C 0.53252 0.41526 0.30671 0.0
C584 C 0.55093 0.43331 0.31075 0.0
C585 C 0.54649 0.4568 0.31507 0.0
C586 C 0.56086 0.54427 0.3172 0.0
C587 C 0.58189 0.53339 0.31253 0.0
C588 C 0.0829 0.05105 0.68234 0.0
C589 C 0.08595 0.02708 0.67537 0.0
C590 C 0.06478 0.01214 0.67051 0.0
C591 C 0.0422 0.02125 0.6714 0.0
H592 H 0.96423 0.00764 0.67844 0.0
H593 H 0.92526 0.98996 0.68542 0.0
H594 H 0.89381 0.05466 0.6682 0.0
H595 H 0.93272 0.07281 0.66275 0.0
H596 H 0.96007 0.11923 0.68866 0.0
H597 H 0.96088 0.16076 0.69549 0.0
H598 H 0.03386 0.16612 0.67542 0.0
H599 H 0.03309 0.1241 0.67162 0.0
H600 H 0.06016 0.07886 0.68695 0.0
H601 H 0.09734 0.06359 0.68865 0.0
H602 H 0.06491 0.99356 0.66549 0.0
H603 H 0.02652 0.00933 0.66741 0.0
N604 N -0.00427 0.04369 0.67376 0.0
N605 N 0.97591 0.07887 0.67615 0.0
N606 N 0.0171 0.08085 0.67845 0.0
C607 C 0.97513 0.05492 0.67348 0.0
C608 C -0.00332 0.09201 0.67846 0.0
C609 C 0.01694 0.05675 0.67624 0.0
C610 C 0.95168 0.04194 0.67139 0.0
C611 C 0.94897 0.01797 0.67591 0.0
C612 C 0.92659 0.00785 0.67977 0.0
C613 C 0.90677 0.0216 0.67894 0.0
C614 C 0.90904 0.04429 0.67066 0.0
C615 C 0.93136 0.05454 0.66733 0.0
C616 C -0.00314 0.11819 0.68067 0.0
C617 C 0.97644 0.12949 0.68622 0.0
C618 C 0.97707 0.15417 0.69 0.0
C619 C -0.00188 0.16873 0.68786 0.0
C620 C 0.01766 0.15688 0.67963 0.0
C621 C 0.01728 0.13219 0.67689 0.0
C622 C 0.04005 0.04559 0.67655 0.0
C623 C 0.06078 0.06013 0.68213 0.0
C624 C 0.39196 0.94462 0.23048 0.0
C625 C 0.39264 0.96913 0.23526 0.0
C626 C 0.41445 0.98255 0.23537 0.0
C627 C 0.43547 0.97121 0.2314 0.0
H628 H 0.51326 0.97455 0.23834 0.0
H629 H 0.55399 0.98938 0.25059 0.0
H630 H 0.57916 0.92221 0.22759 0.0
H631 H 0.53863 0.90714 0.21502 0.0
H632 H 0.4982 0.85476 0.20967 0.0
H633 H 0.48171 0.81283 0.20333 0.0
H634 H 0.41192 0.83813 0.20939 0.0
H635 H 0.42627 0.87653 0.20716 0.0
H636 H 0.41086 0.91435 0.22354 0.0
H637 H 0.37535 0.93393 0.23033 0.0
H638 H 0.41533 0.00157 0.23914 0.0
H639 H 0.45214 0.98175 0.23185 0.0
N640 N 0.47897 0.94285 0.22578 0.0
N641 N 0.49332 0.90507 0.21651 0.0
N642 N 0.45289 0.90962 0.21759 0.0
C643 C 0.4976 0.92896 0.22226 0.0
C644 C 0.47068 0.89534 0.21402 0.0
C645 C 0.45631 0.93301 0.22334 0.0
C646 C 0.52248 0.9394 0.22616 0.0
C647 C 0.52743 0.96303 0.23534 0.0
C648 C 0.55074 0.97163 0.24221 0.0
C649 C 0.56949 0.95684 0.23995 0.0
C650 C 0.5649 0.93389 0.22933 0.0
C651 C 0.54163 0.92528 0.22236 0.0
C652 C 0.46373 0.86953 0.20864 0.0
C653 C 0.47918 0.85089 0.20771 0.0
C654 C 0.4697 0.82689 0.20441 0.0
C655 C 0.44477 0.82148 0.20316 0.0
C656 C 0.43047 0.84047 0.20621 0.0
C657 C 0.43933 0.86346 0.20658 0.0
C658 C 0.43479 0.94637 0.22723 0.0
C659 C 0.41257 0.93343 0.22664 0.0
C660 C 0.90486 0.46 0.7458 0.0
C661 C 0.89904 0.43558 0.74311 0.0
C662 C 0.91752 0.42011 0.74359 0.0
C663 C 0.94146 0.42921 0.74677 0.0
H664 H 0.01717 0.41522 0.74624 0.0
H665 H 0.05185 0.3951 0.73753 0.0
H666 H 0.09427 0.46182 0.74768 0.0
H667 H 0.06054 0.48051 0.76097 0.0
H668 H 0.03784 0.53091 0.76365 0.0
H669 H 0.03931 0.57448 0.76907 0.0
H670 H 0.96297 0.57007 0.77094 0.0
H671 H 0.96186 0.52821 0.76856 0.0
H672 H 0.93171 0.48807 0.75083 0.0
H673 H 0.89102 0.47231 0.74519 0.0
H674 H 0.91347 0.40114 0.74114 0.0
H675 H 0.95537 0.417 0.74702 0.0
N676 N 0.99169 0.45192 0.75204 0.0
N677 N 0.01658 0.48701 0.75998 0.0
N678 N 0.97549 0.48855 0.75793 0.0
C679 C 0.01401 0.46307 0.75551 0.0
C680 C -0.00262 0.49985 0.76133 0.0
C681 C 0.97219 0.46477 0.75331 0.0
C682 C 0.03561 0.44987 0.75276 0.0
C683 C 0.03401 0.4255 0.74665 0.0
C684 C 0.05409 0.41407 0.74045 0.0
C685 C 0.07589 0.42704 0.73782 0.0
C686 C 0.07799 0.45082 0.74737 0.0
C687 C 0.05823 0.46193 0.75497 0.0
C688 C -0.00029 0.52596 0.76586 0.0
C689 C 0.02157 0.53948 0.76618 0.0
C690 C 0.02242 0.56439 0.76922 0.0
C691 C 0.00138 0.576 0.77177 0.0
C692 C 0.97982 0.56217 0.77105 0.0
C693 C 0.97907 0.53775 0.76886 0.0
C694 C 0.94722 0.4539 0.74955 0.0
C695 C 0.9284 0.469 0.74897 0.0
C696 C 0.66888 0.38671 0.44491 0.0
C697 C 0.673 0.38417 0.42083 0.0
C698 C 0.6776 0.40473 0.40867 0.0
C699 C 0.67981 0.42726 0.42124 0.0
H700 H 0.6721 0.50321 0.42055 0.0
H701 H 0.67149 0.54217 0.40455 0.0
H702 H 0.68326 0.5756 0.4752 0.0
H703 H 0.68406 0.5369 0.49147 0.0
H704 H 0.67996 0.50396 0.53697 0.0
H705 H 0.68245 0.49748 0.5797 0.0
H706 H 0.6914 0.42345 0.56329 0.0
H707 H 0.68992 0.4296 0.52159 0.0
H708 H 0.6699 0.40896 0.47625 0.0
H709 H 0.6642 0.3714 0.45459 0.0
H710 H 0.68039 0.40332 0.38992 0.0
H711 H 0.68375 0.44291 0.41183 0.0
N712 N 0.67994 0.47335 0.45198 0.0
N713 N 0.68264 0.49168 0.49081 0.0
N714 N 0.68362 0.45073 0.48481 0.0
C715 C 0.68067 0.4934 0.46688 0.0
C716 C 0.68415 0.47025 0.49988 0.0
C717 C 0.68135 0.45184 0.461 0.0
C718 C 0.67853 0.51687 0.45727 0.0
C719 C 0.67433 0.51881 0.43276 0.0
C720 C 0.67374 0.541 0.42355 0.0
C721 C 0.67721 0.56156 0.43869 0.0
C722 C 0.68022 0.55981 0.46326 0.0
C723 C 0.68093 0.53765 0.4725 0.0
C724 C 0.68489 0.46735 0.52575 0.0
C725 C 0.68231 0.48631 0.54255 0.0
C726 C 0.68333 0.48258 0.56689 0.0
C727 C 0.68644 0.45979 0.5745 0.0
C728 C 0.68826 0.44097 0.55773 0.0
C729 C 0.68772 0.44468 0.53377 0.0
C730 C 0.67798 0.42915 0.44604 0.0
C731 C 0.67218 0.40851 0.45741 0.0
C732 C 0.76608 0.59873 0.04403 0.0
C733 C 0.75371 0.59944 0.02181 0.0
C734 C 0.74448 0.57759 0.01019 0.0
C735 C 0.74607 0.55622 0.02159 0.0
H736 H 0.75383 0.47905 0.01639 0.0
H737 H 0.74542 0.43833 -4e-05 0.0
H738 H 0.75252 0.41339 0.07012 0.0
H739 H 0.76109 0.4539 0.08687 0.0
H740 H 0.77435 0.49115 0.13257 0.0
H741 H 0.78164 0.504 0.17495 0.0
H742 H 0.79318 0.57628 0.15666 0.0
H743 H 0.78292 0.56455 0.11574 0.0
H744 H 0.77505 0.57932 0.07337 0.0
H745 H 0.77524 0.61442 0.05308 0.0
H746 H 0.73503 0.5769 0.99298 0.0
H747 H 0.73856 0.53976 0.01254 0.0
N748 N 0.75478 0.51279 0.04932 0.0
N749 N 0.76475 0.49876 0.08678 0.0
N750 N 0.7624 0.53911 0.08268 0.0
C751 C 0.75864 0.49438 0.06324 0.0
C752 C 0.76687 0.52122 0.09649 0.0
C753 C 0.75669 0.5354 0.05918 0.0
C754 C 0.75726 0.46978 0.05295 0.0
C755 C 0.75414 0.46489 0.02831 0.0
C756 C 0.74979 0.44165 0.01882 0.0
C757 C 0.74824 0.42318 0.03389 0.0
C758 C 0.75375 0.42764 0.05829 0.0
C759 C 0.75827 0.45084 0.06781 0.0
C760 C 0.77634 0.52702 0.12108 0.0
C761 C 0.77843 0.50976 0.13775 0.0
C762 C 0.78321 0.51695 0.1618 0.0
C763 C 0.7865 0.54123 0.16865 0.0
C764 C 0.78969 0.55755 0.15154 0.0
C765 C 0.7833 0.55079 0.1281 0.0
C766 C 0.756 0.55657 0.04503 0.0
C767 C 0.76629 0.57813 0.05575 0.0
C768 C 0.23781 0.08405 0.53185 0.0
C769 C 0.24913 0.09163 0.55399 0.0
C770 C 0.25693 0.07428 0.5689 0.0
C771 C 0.25551 0.05014 0.56055 0.0
H772 H 0.25004 0.97343 0.57568 0.0
H773 H 0.25449 0.93841 0.59588 0.0
H774 H 0.23908 0.89663 0.52898 0.0
H775 H 0.23851 0.93169 0.50907 0.0
H776 H 0.23142 0.95295 0.46094 0.0
H777 H 0.22342 0.95166 0.41763 0.0
H778 H 0.21413 0.02668 0.42271 0.0
H779 H 0.22504 0.02881 0.46443 0.0
H780 H 0.22952 0.05623 0.50546 0.0
H781 H 0.22998 0.09653 0.52054 0.0
H782 H 0.26508 0.07944 0.58643 0.0
H783 H 0.26217 0.03713 0.57196 0.0
N784 N 0.24833 -0.00065 0.53891 0.0
N785 N 0.24067 0.97465 0.50375 0.0
N786 N 0.2419 0.01552 0.50234 0.0
C787 C 0.24549 0.97718 0.52757 0.0
C788 C 0.23865 0.99373 0.49107 0.0
C789 C 0.24653 0.01873 0.52609 0.0
C790 C 0.24579 0.95559 0.54064 0.0
C791 C 0.24866 0.95659 0.56536 0.0
C792 C 0.2511 0.93585 0.57706 0.0
C793 C 0.25066 0.91351 0.56424 0.0
C794 C 0.24335 0.91282 0.53985 0.0
C795 C 0.24221 0.9334 0.52811 0.0
C796 C 0.23036 0.99125 0.46585 0.0
C797 C 0.22786 0.96915 0.45266 0.0
C798 C 0.22271 0.96826 0.42808 0.0
C799 C 0.21952 0.98941 0.41705 0.0
C800 C 0.21766 0.0104 0.4309 0.0
C801 C 0.22422 0.01161 0.45482 0.0
C802 C 0.24671 0.0433 0.5371 0.0
C803 C 0.23738 0.06062 0.52325 0.0
C804 C 0.31503 0.90834 0.93732 0.0
C805 C 0.31242 0.90305 0.96099 0.0
C806 C 0.30819 0.92254 0.977 0.0
C807 C 0.30576 0.9456 0.96917 0.0
H808 H 0.31447 0.02564 0.98444 0.0
H809 H 0.31411 0.0647 0.0056 0.0
H810 H 0.30395 0.0966 0.93909 0.0
H811 H 0.30363 0.05816 0.91787 0.0
H812 H 0.30287 0.03075 0.8706 0.0
H813 H 0.30116 0.0278 0.8271 0.0
H814 H 0.30324 0.95191 0.82728 0.0
H815 H 0.30305 0.95429 0.8699 0.0
H816 H 0.31263 0.93252 0.91071 0.0
H817 H 0.32144 0.89616 0.92435 0.0
H818 H 0.3064 0.92027 -0.00442 0.0
H819 H 0.30282 0.96 0.98191 0.0
N820 N 0.30545 0.99426 0.94786 0.0
N821 N 0.30288 0.01423 0.91261 0.0
N822 N 0.30135 0.97315 0.91078 0.0
C823 C 0.305 0.01498 0.93661 0.0
C824 C 0.30126 0.99343 0.89959 0.0
C825 C 0.30351 0.97305 0.93472 0.0
C826 C 0.30819 0.03856 0.9496 0.0
C827 C 0.3126 0.04102 0.97432 0.0
C828 C 0.31296 0.06334 0.98641 0.0
C829 C 0.30889 0.08326 0.97387 0.0
C830 C 0.30729 0.0813 0.94904 0.0
C831 C 0.30661 0.05913 0.93699 0.0
C832 C 0.30215 0.99265 0.87366 0.0
C833 C 0.30297 0.01345 0.86131 0.0
C834 C 0.30258 0.01188 0.83655 0.0
C835 C 0.30166 0.98955 0.82419 0.0
C836 C 0.30363 0.96923 0.83664 0.0
C837 C 0.30315 0.97065 0.86105 0.0
C838 C 0.30641 0.9496 0.94497 0.0
C839 C 0.31093 0.93042 0.92939 0.0
C840 C 0.44383 0.67536 0.3855 0.0
C841 C 0.41911 0.67457 0.38474 0.0
C842 C 0.40769 0.67737 0.40591 0.0
C843 C 0.42109 0.68002 0.4278 0.0
H844 H 0.42028 0.67837 0.50564 0.0
H845 H 0.40774 0.68128 0.5462 0.0
H846 H 0.47911 0.67059 0.57249 0.0
H847 H 0.49242 0.67258 0.5332 0.0
H848 H 0.53673 0.67932 0.50327 0.0
H849 H 0.57948 0.68119 0.49683 0.0
H850 H 0.5634 0.69553 0.42389 0.0
H851 H 0.52186 0.69367 0.42994 0.0
H852 H 0.47619 0.67846 0.40662 0.0
H853 H 0.45294 0.67367 0.36928 0.0
H854 H 0.38854 0.67714 0.40552 0.0
H855 H 0.41201 0.68173 0.44399 0.0
N856 N 0.45188 0.6801 0.47266 0.0
N857 N 0.49067 0.68258 0.49087 0.0
N858 N 0.48488 0.68421 0.45003 0.0
C859 C 0.46676 0.68024 0.49263 0.0
C860 C 0.49985 0.68458 0.4696 0.0
C861 C 0.46105 0.68205 0.45116 0.0
C862 C 0.45764 0.67716 0.51626 0.0
C863 C 0.43337 0.67733 0.52023 0.0
C864 C 0.42611 0.6785 0.54349 0.0
C865 C 0.44306 0.67896 0.56284 0.0
C866 C 0.46618 0.67344 0.55826 0.0
C867 C 0.47375 0.67413 0.53551 0.0
C868 C 0.52577 0.68617 0.46706 0.0
C869 C 0.54247 0.68278 0.48588 0.0
C870 C 0.56685 0.68371 0.4822 0.0
C871 C 0.57467 0.68791 0.45964 0.0
C872 C 0.55792 0.69148 0.44122 0.0
C873 C 0.53396 0.69063 0.44483 0.0
C874 C 0.44601 0.68028 0.42856 0.0
C875 C 0.4571 0.67824 0.40703 0.0
C876 C 0.93917 0.31048 0.90527 0.0
C877 C 0.96375 0.31167 0.90307 0.0
C878 C 0.97882 0.31018 0.92365 0.0
C879 C 0.96938 0.30774 0.94579 0.0
H880 H 0.98434 0.31556 0.02591 0.0
H881 H 0.0027 0.3169 0.06653 0.0
H882 H 0.93327 0.29703 0.09062 0.0
H883 H 0.91601 0.29871 0.05311 0.0
H884 H 0.87175 0.30697 0.02977 0.0
H885 H 0.82842 0.3022 0.02917 0.0
H886 H 0.82433 0.2958 0.95281 0.0
H887 H 0.86721 0.29965 0.95301 0.0
H888 H 0.91077 0.30797 0.92775 0.0
H889 H 0.92686 0.31098 0.88992 0.0
H890 H -0.00213 0.31148 0.92285 0.0
H891 H 0.98136 0.30673 0.9613 0.0
N892 N 0.9472 0.30644 0.99191 0.0
N893 N 0.91209 0.30434 0.01176 0.0
N894 N 0.90986 0.30385 0.97083 0.0
C895 C 0.93606 0.30582 0.01251 0.0
C896 C 0.89887 0.30348 0.99125 0.0
C897 C 0.9339 0.30537 0.97083 0.0
C898 C 0.94873 0.30698 0.03611 0.0
C899 C 0.97334 0.31205 0.04039 0.0
C900 C 0.98384 0.31264 0.06367 0.0
C901 C 0.96979 0.3075 0.08262 0.0
C902 C 0.94522 0.30262 0.07761 0.0
C903 C 0.93499 0.30289 0.05523 0.0
C904 C 0.8729 0.30313 0.99134 0.0
C905 C 0.8616 0.30488 0.01282 0.0
C906 C 0.8369 0.30267 0.01258 0.0
C907 C 0.8235 0.29883 0.9909 0.0
C908 C 0.83462 0.29909 0.96962 0.0
C909 C 0.85913 0.3009 0.9698 0.0
C910 C 0.94474 0.30704 0.94778 0.0
C911 C 0.92986 0.30843 0.92717 0.0
C912 C 0.04442 0.76177 0.60057 0.0
C913 C 0.02062 0.75348 0.59924 0.0
C914 C 0.00878 0.7469 0.577 0.0
C915 C 0.02095 0.74854 0.55623 0.0
H916 H 0.01599 0.75128 0.48021 0.0
H917 H -0.00016 0.74101 0.44025 0.0
H918 H 0.06881 0.75736 0.41421 0.0
H919 H 0.0855 0.76468 0.45453 0.0
H920 H 0.13288 0.77427 0.49186 0.0
H921 H 0.17524 0.7825 0.50491 0.0
H922 H 0.15616 0.79565 0.57677 0.0
H923 H 0.11558 0.78419 0.56507 0.0
H924 H 0.07511 0.76918 0.58227 0.0
H925 H 0.05394 0.76645 0.6176 0.0
H926 H 0.99042 0.74004 0.57578 0.0
H927 H 0.01164 0.74329 0.53924 0.0
N928 N 0.04913 0.75576 0.51394 0.0
N929 N 0.08647 0.7655 0.49948 0.0
N930 N 0.08261 0.76374 0.54 0.0
C931 C 0.06284 0.75944 0.49532 0.0
C932 C 0.09635 0.76788 0.52193 0.0
C933 C 0.05915 0.75792 0.53649 0.0
C934 C 0.05221 0.7576 0.47072 0.0
C935 C 0.02772 0.75262 0.46594 0.0
C936 C 0.01827 0.74731 0.44273 0.0
C937 C 0.03308 0.74745 0.42375 0.0
C938 C 0.05701 0.75582 0.42842 0.0
C939 C 0.06662 0.76015 0.45164 0.0
C940 C 0.12108 0.77716 0.52761 0.0
C941 C 0.13791 0.7789 0.51042 0.0
C942 C 0.16193 0.78423 0.5177 0.0
C943 C 0.1686 0.78877 0.54194 0.0
C944 C 0.15123 0.79169 0.55805 0.0
C945 C 0.12797 0.78454 0.55131 0.0
C946 C 0.04516 0.75628 0.55768 0.0
C947 C 0.05657 0.76301 0.58017 0.0
C948 C 0.52879 0.24527 0.0859 0.0
C949 C 0.55302 0.25024 0.09203 0.0
C950 C 0.56813 0.25539 0.07388 0.0
C951 C 0.55909 0.25449 0.05003 0.0
H952 H 0.57386 0.2458 0.97376 0.0
H953 H 0.59458 0.24825 0.93774 0.0
H954 H 0.52694 0.2504 0.89772 0.0
H955 H 0.50693 0.24449 0.93248 0.0
H956 H 0.4599 0.22721 0.95348 0.0
H957 H 0.41654 0.21898 0.95152 0.0
H958 H 0.41874 0.22206 0.02785 0.0
H959 H 0.46074 0.23174 0.03017 0.0
H960 H 0.50112 0.23967 0.05904 0.0
H961 H 0.5163 0.24263 0.09933 0.0
H962 H 0.58687 0.25983 0.07807 0.0
H963 H 0.57102 0.25831 0.03637 0.0
N964 N 0.53694 0.24819 -6e-05 0.0
N965 N 0.50187 0.23998 0.97521 0.0
N966 N 0.50035 0.24162 0.0161 0.0
C967 C 0.5257 0.24493 0.97775 0.0
C968 C 0.48914 0.23813 0.99433 0.0
C969 C 0.52404 0.24659 0.01933 0.0
C970 C 0.53882 0.24585 0.95617 0.0
C971 C 0.56362 0.24659 0.95708 0.0
C972 C 0.57552 0.24845 0.93634 0.0
C973 C 0.56287 0.25117 0.91456 0.0
C974 C 0.5379 0.24851 0.91371 0.0
C975 C 0.52613 0.24561 0.93408 0.0
C976 C 0.46366 0.23085 0.99201 0.0
C977 C 0.45105 0.22595 0.96978 0.0
C978 C 0.42647 0.22072 0.96859 0.0
C979 C 0.41472 0.22006 0.98962 0.0
C980 C 0.42768 0.22248 0.01151 0.0
C981 C 0.45173 0.22842 0.01274 0.0
C982 C 0.53483 0.24855 0.04409 0.0
C983 C 0.51995 0.24406 0.06249 0.0
C984 C 0.38818 0.44613 0.6672 0.0
C985 C 0.38426 0.42268 0.67316 0.0
C986 C 0.40422 0.41008 0.67928 0.0
C987 C 0.42719 0.42187 0.68173 0.0
H988 H 0.50492 0.42077 0.67116 0.0
H989 H 0.54439 0.40559 0.6712 0.0
H990 H 0.57626 0.4769 0.68269 0.0
H991 H 0.53728 0.49228 0.68287 0.0
H992 H 0.50541 0.53678 0.68163 0.0
H993 H 0.49888 0.57947 0.68571 0.0
H994 H 0.42385 0.56227 0.68823 0.0
H995 H 0.42992 0.52076 0.68548 0.0
H996 H 0.41143 0.47662 0.66768 0.0
H997 H 0.37392 0.45584 0.65993 0.0
H998 H 0.40205 0.39159 0.68297 0.0
H999 H 0.44233 0.41215 0.68674 0.0
N1000 N 0.47442 0.45188 0.68051 0.0
N1001 N 0.49264 0.49074 0.68236 0.0
N1002 N 0.45194 0.48473 0.68477 0.0
C1003 C 0.4944 0.46687 0.68059 0.0
C1004 C 0.47133 0.49974 0.68436 0.0
C1005 C 0.45297 0.46096 0.68259 0.0
C1006 C 0.51791 0.45765 0.67772 0.0
C1007 C 0.52032 0.43326 0.6733 0.0
C1008 C 0.54281 0.42455 0.67291 0.0
C1009 C 0.56302 0.44012 0.67708 0.0
C1010 C 0.56072 0.46463 0.67941 0.0
C1011 C 0.53836 0.47334 0.67981 0.0
C1012 C 0.46833 0.52536 0.68422 0.0
C1013 C 0.48757 0.54224 0.68305 0.0
C1014 C 0.4839 0.56649 0.68505 0.0
C1015 C 0.46097 0.57359 0.68787 0.0
C1016 C 0.4417 0.55686 0.6865 0.0
C1017 C 0.44532 0.53305 0.68512 0.0
C1018 C 0.43006 0.44641 0.67886 0.0
C1019 C 0.41016 0.45807 0.67127 0.0
C1020 C 0.90505 0.93967 0.31321 0.0
C1021 C 0.90319 0.96419 0.31434 0.0
C1022 C 0.92356 0.97926 0.31229 0.0
C1023 C 0.94555 0.96973 0.30915 0.0
H1024 H 0.02551 0.98474 0.31095 0.0
H1025 H 0.06562 0.00271 0.31072 0.0
H1026 H 0.09165 0.93275 0.31417 0.0
H1027 H 0.05332 0.9155 0.30738 0.0
H1028 H 0.0287 0.87214 0.30778 0.0
H1029 H 0.02822 0.82894 0.3067 0.0
H1030 H 0.95206 0.82421 0.29446 0.0
H1031 H 0.95229 0.86703 0.29546 0.0
H1032 H 0.92719 0.91112 0.30939 0.0
H1033 H 0.88951 0.92773 0.31447 0.0
H1034 H 0.92236 -0.00174 0.31263 0.0
H1035 H 0.961 0.98164 0.30747 0.0
N1036 N 0.99145 0.94733 0.30628 0.0
N1037 N 0.01099 0.91218 0.30252 0.0
N1038 N 0.97006 0.91006 0.30295 0.0
C1039 C 0.01198 0.93614 0.30488 0.0
C1040 C 0.99039 0.89901 0.30171 0.0
C1041 C 0.97025 0.93411 0.30517 0.0
C1042 C 0.03586 0.94865 0.30743 0.0
C1043 C 0.04013 0.97341 0.31022 0.0
C1044 C 0.06349 0.98371 0.31053 0.0
C1045 C 0.08291 0.96929 0.30903 0.0
C1046 C 0.07805 0.94484 0.31106 0.0
C1047 C 0.05531 0.93467 0.30818 0.0
C1048 C 0.99044 0.87301 0.30153 0.0
C1049 C 0.0118 0.8619 0.30515 0.0
C1050 C 0.01158 0.83726 0.30495 0.0
C1051 C 0.99002 0.82346 0.30105 0.0
C1052 C 0.96878 0.83456 0.29829 0.0
C1053 C 0.96898 0.85908 0.29841 0.0
C1054 C 0.94736 0.94503 0.30802 0.0
C1055 C 0.92675 0.93021 0.31011 0.0
C1056 C 0.42796 0.05674 0.75734 0.0
C1057 C 0.42355 0.03262 0.75027 0.0
C1058 C 0.44204 0.01745 0.75231 0.0
C1059 C 0.46506 0.02661 0.75953 0.0
H1060 H 0.53897 0.01095 0.75175 0.0
H1061 H 0.57561 0.99089 0.74483 0.0
H1062 H 0.61732 0.05552 0.76798 0.0
H1063 H 0.58192 0.07525 0.77497 0.0
H1064 H 0.56185 0.11784 0.76837 0.0
H1065 H 0.57343 0.15847 0.77172 0.0
H1066 H 0.50602 0.17462 0.79842 0.0
H1067 H 0.49294 0.13189 0.79267 0.0
H1068 H 0.45383 0.08483 0.7687 0.0
H1069 H 0.41393 0.06877 0.75591 0.0
H1070 H 0.43886 -0.00131 0.74729 0.0
H1071 H 0.47915 0.01462 0.76003 0.0
N1072 N 0.51338 0.04788 0.76583 0.0
N1073 N 0.53927 0.08131 0.77496 0.0
N1074 N 0.49863 0.08526 0.77503 0.0
C1075 C 0.53595 0.0579 0.76881 0.0
C1076 C 0.52108 0.09525 0.77787 0.0
C1077 C 0.49462 0.06149 0.76928 0.0
C1078 C 0.5573 0.04464 0.76435 0.0
C1079 C 0.55599 0.02073 0.75554 0.0
C1080 C 0.57686 0.00929 0.75153 0.0
C1081 C 0.59919 0.02158 0.75659 0.0
C1082 C 0.60036 0.04547 0.76466 0.0
C1083 C 0.57985 0.05679 0.76855 0.0
C1084 C 0.52666 0.12122 0.78099 0.0
C1085 C 0.5492 0.12958 0.77523 0.0
C1086 C 0.55608 0.15331 0.77746 0.0
C1087 C 0.54139 0.16999 0.78686 0.0
C1088 C 0.51813 0.16219 0.79178 0.0
C1089 C 0.51071 0.13778 0.78865 0.0
C1090 C 0.4699 0.0511 0.76485 0.0
C1091 C 0.45091 0.06592 0.7645 0.0
C1092 C 0.91272 0.54201 0.24439 0.0
C1093 C 0.91513 0.5666 0.24951 0.0
C1094 C 0.93706 0.57899 0.24791 0.0
C1095 C 0.95685 0.56684 0.24254 0.0
H1096 H 0.03632 0.57258 0.2552 0.0
H1097 H 0.07869 0.58635 0.26228 0.0
H1098 H 0.09777 0.52062 0.22833 0.0
H1099 H 0.05709 0.50631 0.22358 0.0
H1100 H 0.0285 0.46411 0.21997 0.0
H1101 H 0.02645 0.4216 0.2155 0.0
H1102 H 0.95046 0.41875 0.21854 0.0
H1103 H 0.95203 0.46239 0.22126 0.0
H1104 H 0.93032 0.51067 0.23622 0.0
H1105 H 0.89589 0.53215 0.24589 0.0
H1106 H 0.9391 0.59797 0.25199 0.0
H1107 H 0.97375 0.57683 0.24216 0.0
N1108 N -0.00123 0.53998 0.23946 0.0
N1109 N 0.01476 0.5036 0.23154 0.0
N1110 N 0.97375 0.50513 0.23046 0.0
C1111 C 0.01815 0.52721 0.23708 0.0
C1112 C 0.99289 0.49245 0.22802 0.0
C1113 C 0.97644 0.52886 0.23609 0.0
C1114 C 0.0431 0.53791 0.23967 0.0
C1115 C 0.04972 0.56104 0.24964 0.0
C1116 C 0.07397 0.56898 0.25354 0.0
C1117 C 0.09186 0.55396 0.24724 0.0
C1118 C 0.08481 0.53203 0.23513 0.0
C1119 C 0.06112 0.52389 0.23208 0.0
C1120 C 0.9905 0.4667 0.2219 0.0
C1121 C 0.01116 0.45476 0.21907 0.0
C1122 C 0.01004 0.43035 0.21629 0.0
C1123 C 0.9885 0.41725 0.21766 0.0
C1124 C 0.96734 0.42877 0.21791 0.0
C1125 C 0.96833 0.45361 0.21985 0.0
C1126 C 0.95501 0.54205 0.23894 0.0
C1127 C 0.93252 0.52979 0.2391 0.0
C1128 C 0.15389 0.58648 0.25506 0.0
C1129 C 0.16836 0.5685 0.26219 0.0
C1130 C 0.12909 0.58214 0.25083 0.0
C1131 C 0.1178 0.55972 0.25387 0.0
H1132 H 0.16172 0.60408 0.25286 0.0
H1133 H 0.11878 0.59628 0.24482 0.0
S1134 S 0.14766 0.5068 0.27272 0.0
N1135 N 0.16949 0.52712 0.27084 0.0
N1136 N 0.12323 0.51994 0.26621 0.0
C1137 C 0.13218 0.5419 0.26163 0.0
C1138 C 0.15731 0.54597 0.26475 0.0
C1139 C 0.32663 0.38268 0.66301 0.0
C1140 C 0.30948 0.39847 0.66947 0.0
C1141 C 0.35103 0.39004 0.66471 0.0
C1142 C 0.35904 0.41311 0.67385 0.0
H1143 H 0.32125 0.36445 0.6571 0.0
H1144 H 0.36357 0.37769 0.65879 0.0
S1145 S 0.32111 0.4607 0.69387 0.0
N1146 N 0.3023 0.43887 0.68266 0.0
N1147 N 0.34749 0.45042 0.69213 0.0
C1148 C 0.34186 0.42844 0.68132 0.0
C1149 C 0.3173 0.42186 0.67715 0.0
C1150 C 0.65089 -0.00068 0.72522 0.0
C1151 C 0.66913 0.00168 0.7434 0.0
C1152 C 0.6275 0.00354 0.72997 0.0
C1153 C 0.6218 0.01063 0.753 0.0
H1154 H 0.65482 0.99453 0.70714 0.0
H1155 H 0.61414 0.00268 0.71534 0.0
S1156 S 0.66319 0.01887 0.80677 0.0
N1157 N 0.68005 0.01105 0.78525 0.0
N1158 N 0.63601 0.01869 0.79432 0.0
C1159 C 0.6398 0.01207 0.77147 0.0
C1160 C 0.66356 0.00778 0.76663 0.0
C1161 C 0.83915 0.97198 0.29665 0.0
C1162 C 0.83098 0.98418 0.31659 0.0
C1163 C 0.86278 0.96662 0.29593 0.0
C1164 C 0.87929 0.97312 0.31512 0.0
H1165 H 0.82725 0.96664 0.28123 0.0
H1166 H 0.86818 0.95695 0.28027 0.0
S1167 S 0.8669 0.00407 0.37224 0.0
N1168 N 0.84117 0.00196 0.35653 0.0
N1169 N 0.88589 0.99171 0.3551 0.0
C1170 C 0.87153 0.98528 0.33532 0.0
C1171 C 0.84727 0.99081 0.33608 0.0
C1172 C 0.25301 0.15365 0.58603 0.0
C1173 C 0.26021 0.16827 0.56817 0.0
C1174 C 0.24989 0.12879 0.58182 0.0
C1175 C 0.25417 0.1177 0.55967 0.0
H1176 H 0.24999 0.16141 0.60346 0.0
H1177 H 0.24387 0.11827 0.59583 0.0
S1178 S 0.27336 0.14794 0.50707 0.0
N1179 N 0.27005 0.16965 0.52709 0.0
N1180 N 0.26741 0.12341 0.52026 0.0
C1181 C 0.26184 0.13223 0.54196 0.0
C1182 C 0.26385 0.15735 0.54584 0.0
C1183 C 0.31966 0.85006 0.00029 0.0
C1184 C 0.3172 0.83022 0.98395 0.0
C1185 C 0.31846 0.87323 0.99277 0.0
C1186 C 0.31432 0.87771 0.96854 0.0
H1187 H 0.32186 0.84767 0.01909 0.0
H1188 H 0.3208 0.88758 0.00638 0.0
S1189 S 0.30844 0.83006 0.91876 0.0
N1190 N 0.31321 0.81585 0.94279 0.0
N1191 N 0.30775 0.85805 0.92834 0.0
C1192 C 0.31218 0.8573 0.9521 0.0
C1193 C 0.31447 0.83401 0.95987 0.0
C1194 C 0.65923 0.32524 0.38427 0.0
C1195 C 0.67143 0.30965 0.39835 0.0
C1196 C 0.66048 0.34984 0.39056 0.0
C1197 C 0.67484 0.35958 0.41049 0.0
H1198 H 0.64867 0.31841 0.36839 0.0
H1199 H 0.64989 0.36114 0.38016 0.0
S1200 S 0.7108 0.32672 0.45256 0.0
N1201 N 0.69674 0.30602 0.43415 0.0
N1202 N 0.70312 0.35198 0.44266 0.0
C1203 C 0.688 0.3442 0.42372 0.0
C1204 C 0.685 0.31932 0.41874 0.0
C1205 C 0.7448 0.66539 0.02463 0.0
C1206 C 0.74225 0.67086 0.00101 0.0
C1207 C 0.7475 0.6423 0.03053 0.0
C1208 C 0.74914 0.62344 0.0132 0.0
H1209 H 0.74384 0.67896 0.03885 0.0
H1210 H 0.7477 0.6394 0.04921 0.0
S1211 S 0.74008 0.62879 0.94803 0.0
N1212 N 0.73876 0.65603 0.95977 0.0
N1213 N 0.74545 0.6123 0.97054 0.0
C1214 C 0.74614 0.62876 0.98913 0.0
C1215 C 0.74272 0.65258 0.98316 0.0
C1216 C 0.58004 0.27471 0.15242 0.0
C1217 C 0.56899 0.25965 0.16774 0.0
C1218 C 0.57625 0.27068 0.12773 0.0
C1219 C 0.56142 0.25127 0.11761 0.0
H1220 H 0.59087 0.29031 0.1596 0.0
H1221 H 0.58387 0.2836 0.11663 0.0
S1222 S 0.53108 0.20476 0.15054 0.0
N1223 N 0.54395 0.22386 0.17147 0.0
N1224 N 0.53838 0.21497 0.12517 0.0
C1225 C 0.55182 0.23504 0.13298 0.0
C1226 C 0.55508 0.23961 0.15806 0.0
C1227 C 0.96662 0.32996 0.83979 0.0
C1228 C 0.98478 0.31699 0.83123 0.0
C1229 C 0.96098 0.32909 0.86343 0.0
C1230 C 0.97285 0.31469 0.87916 0.0
H1231 H 0.95646 0.34046 0.82807 0.0
H1232 H 0.94679 0.33947 0.86926 0.0
S1233 S 0.02296 0.27833 0.86439 0.0
N1234 N 0.01566 0.29064 0.83962 0.0
N1235 N 0.00468 0.28797 0.88389 0.0
C1236 C 0.99173 0.30226 0.87065 0.0
C1237 C -0.00235 0.30355 0.84665 0.0
C1238 C 0.39222 0.69071 0.32649 0.0
C1239 C 0.39484 0.67027 0.31179 0.0
C1240 C 0.39777 0.69129 0.35091 0.0
C1241 C 0.40614 0.6714 0.36129 0.0
H1242 H 0.38684 0.70673 0.31887 0.0
H1243 H 0.39711 0.70785 0.36144 0.0
S1244 S 0.41359 0.61284 0.331 0.0
N1245 N 0.40458 0.62908 0.30941 0.0
N1246 N 0.41478 0.63016 0.35567 0.0
C1247 C 0.40738 0.65038 0.34699 0.0
C1248 C 0.40185 0.64979 0.32205 0.0
C1249 C 0.00129 0.76358 0.66134 0.0
C1250 C 0.00279 0.74092 0.66974 0.0
C1251 C 0.00541 0.76748 0.63769 0.0
C1252 C 0.01016 0.74862 0.62167 0.0
H1253 H -0.00234 0.77843 0.67326 0.0
H1254 H 0.00568 0.78538 0.63206 0.0
S1255 S 0.01492 0.68595 0.63484 0.0
N1256 N 0.00921 0.69947 0.66032 0.0
N1257 N 0.01545 0.70662 0.61562 0.0
C1258 C 0.01072 0.72581 0.62972 0.0
C1259 C 0.00749 0.72202 0.65387 0.0
C1260 C 0.83795 0.4313 0.71178 0.0
C1261 C 0.82312 0.42406 0.72921 0.0
C1262 C 0.86266 0.43314 0.71597 0.0
C1263 C 0.87359 0.42753 0.73768 0.0
H1264 H 0.83034 0.43606 0.69486 0.0
H1265 H 0.87334 0.43991 0.70239 0.0
S1266 S 0.84252 0.40554 0.78857 0.0
N1267 N 0.82087 0.40983 0.76865 0.0
N1268 N 0.86754 0.41293 0.77646 0.0
C1269 C 0.85895 0.4192 0.75501 0.0
C1270 C 0.83362 0.4176 0.75081 0.0
C1271 C 0.66859 0.58369 0.33913 0.0
C1272 C 0.67817 0.59457 0.32004 0.0
C1273 C 0.64404 0.57861 0.33926 0.0
C1274 C 0.62854 0.58372 0.32009 0.0
H1275 H 0.68012 0.57847 0.35358 0.0
H1276 H 0.63725 0.56913 0.35368 0.0
S1277 S 0.64567 0.61257 0.26619 0.0
N1278 N 0.67084 0.61125 0.28218 0.0
N1279 N 0.62479 0.60088 0.28187 0.0
C1280 C 0.638 0.59554 0.30141 0.0
C1281 C 0.66287 0.6011 0.30154 0.0
C1282 C 0.33217 0.99368 0.22959 0.0
C1283 C 0.32197 0.98525 0.24971 0.0
C1284 C 0.35605 0.99032 0.22564 0.0
C1285 C 0.37042 0.97919 0.24214 0.0
H1286 H 0.32145 0.00217 0.21656 0.0
H1287 H 0.36297 -0.00457 0.2092 0.0
S1288 S 0.3525 0.95697 0.2989 0.0
N1289 N 0.32811 0.96682 0.28678 0.0
N1290 N 0.37321 0.96199 0.28026 0.0
C1291 C 0.36062 0.97227 0.26299 0.0
C1292 C 0.33629 0.97483 0.26651 0.0
C1293 C 0.15401 0.03099 0.67564 0.0
C1294 C 0.16009 0.00755 0.67425 0.0
C1295 C 0.13041 0.03654 0.67457 0.0
C1296 C 0.11111 0.01905 0.67351 0.0
H1297 H 0.16763 0.04546 0.67749 0.0
H1298 H 0.12805 0.05518 0.67422 0.0
S1299 S 0.11863 0.95397 0.66388 0.0
N1300 N 0.14588 0.9663 0.66686 0.0
N1301 N 0.10127 0.97609 0.66701 0.0
C1302 C 0.11728 -0.00491 0.67048 0.0
C1303 C 0.14171 0.98956 0.67052 0.0
C1304 C 0.72608 0.83738 0.406 0.0
C1305 C 0.72808 0.82184 0.4244 0.0
C1306 C 0.73146 0.86207 0.41015 0.0
C1307 C 0.73973 0.87231 0.43282 0.0
H1308 H 0.71947 0.83056 0.38836 0.0
H1309 H 0.72811 0.87315 0.39564 0.0
S1310 S 0.7529 0.83824 0.48585 0.0
N1311 N 0.7406 0.81819 0.46565 0.0
N1312 N 0.75475 0.86314 0.47244 0.0
C1313 C 0.7444 0.85624 0.45057 0.0
C1314 C 0.73752 0.83147 0.44669 0.0
C1315 C 0.65781 0.14247 0.00095 0.0
C1316 C 0.6756 0.15979 0.01004 0.0
C1317 C 0.65919 0.1185 0.00597 0.0
C1318 C 0.67867 0.11123 0.01976 0.0
H1319 H 0.64254 0.14758 0.99048 0.0
H1320 H 0.64467 0.10581 -0.0003 0.0
S1321 S 0.73166 0.14947 0.04363 0.0
N1322 N 0.71408 0.16783 0.03115 0.0
N1323 N 0.71744 0.12303 0.03942 0.0
C1324 C 0.69717 0.12836 0.0274 0.0
C1325 C 0.69542 0.15258 0.0229 0.0
C1326 C 0.30375 0.6691 0.57574 0.0
C1327 C 0.31951 0.67964 0.59388 0.0
C1328 C 0.30193 0.64476 0.57076 0.0
C1329 C 0.31739 0.62986 0.58208 0.0
H1330 H 0.29201 0.67971 0.56572 0.0
H1331 H 0.28885 0.63767 0.5569 0.0
S1332 S 0.35915 0.64862 0.63427 0.0
N1333 N 0.34797 0.67344 0.62651 0.0
N1334 N 0.34684 0.62737 0.61512 0.0
C1335 C 0.33249 0.64 0.60143 0.0
C1336 C 0.33325 0.66503 0.60754 0.0
C1337 C 0.23685 0.33481 0.00026 0.0
C1338 C 0.24805 0.31991 0.98414 0.0
C1339 C 0.23374 0.35864 -0.00414 0.0
C1340 C 0.24276 0.36832 0.97576 0.0
H1341 H 0.22998 0.32784 0.01601 0.0
H1342 H 0.22364 0.36917 0.00766 0.0
S1343 S 0.27664 0.33776 0.93046 0.0
N1344 N 0.26863 0.31689 0.94788 0.0
N1345 N 0.26671 0.36228 0.94209 0.0
C1346 C 0.25587 0.35403 0.96096 0.0
C1347 C 0.25726 0.32959 0.96429 0.0
C1348 C 0.43278 0.71345 0.838 0.0
C1349 C 0.42354 0.73008 0.82338 0.0
C1350 C 0.43472 0.71757 0.86271 0.0
C1351 C 0.42746 0.73851 0.87393 0.0
H1352 H 0.439 0.69723 0.83022 0.0
H1353 H 0.44291 0.70461 0.87317 0.0
S1354 S 0.40037 0.78722 0.8434 0.0
N1355 N 0.40585 0.76794 0.82159 0.0
N1356 N 0.40931 0.77571 0.86826 0.0
C1357 C 0.41719 0.75501 0.85949 0.0
C1358 C 0.41535 0.75083 0.83413 0.0
C1359 C 0.02786 0.68756 0.15331 0.0
C1360 C 0.00814 0.67434 0.16034 0.0
C1361 C 0.03253 0.68813 0.12945 0.0
C1362 C 0.01869 0.67428 0.11127 0.0
H1363 H 0.03938 0.69841 0.16631 0.0
H1364 H 0.04732 0.69986 0.1254 0.0
S1365 S 0.96426 0.63636 0.12092 0.0
N1366 N 0.9737 0.64769 0.14769 0.0
N1367 N 0.98337 0.64705 0.10276 0.0
C1368 C -0.00144 0.66087 0.11818 0.0
C1369 C 0.99328 0.66111 0.14269 0.0
C1370 C 0.60618 0.31736 0.66304 0.0
C1371 C 0.5894 0.32049 0.68019 0.0
C1372 C 0.59979 0.31774 0.63874 0.0
C1373 C 0.57654 0.32193 0.63089 0.0
H1374 H 0.624 0.31298 0.66827 0.0
H1375 H 0.61262 0.31319 0.62613 0.0
S1376 S 0.52757 0.33694 0.66853 0.0
N1377 N 0.54934 0.33093 0.68748 0.0
N1378 N 0.53841 0.3347 0.64225 0.0
C1379 C 0.5607 0.32844 0.64804 0.0
C1380 C 0.56677 0.3269 0.6726 0.0
C1381 C 0.00036 0.25627 0.34112 0.0
C1382 C 0.98453 0.24792 0.32172 0.0
C1383 C -0.00394 0.25061 0.3643 0.0
C1384 C 0.97619 0.23574 0.36863 0.0
H1385 H 0.01536 0.26849 0.33859 0.0
H1386 H 0.00739 0.25917 0.3789 0.0
S1387 S 0.93328 0.20398 0.32321 0.0
N1388 N 0.95016 0.22145 0.30802 0.0
N1389 N 0.94417 0.20815 0.35097 0.0
C1390 C 0.96233 0.22464 0.3489 0.0
C1391 C 0.96578 0.23154 0.32559 0.0
C1392 C 0.26849 0.54428 0.36329 0.0
C1393 C 0.28188 0.56295 0.35408 0.0
C1394 C 0.27812 0.53161 0.38165 0.0
C1395 C 0.30144 0.53718 0.39134 0.0
H1396 H 0.25026 0.53982 0.35675 0.0
H1397 H 0.26668 0.51868 0.38951 0.0
S1398 S 0.3452 0.58186 0.37129 0.0
N1399 N 0.32065 0.58471 0.35482 0.0
N1400 N 0.33876 0.56005 0.38823 0.0
C1401 C 0.3157 0.55416 0.38077 0.0
C1402 C 0.30585 0.56742 0.36259 0.0
C1403 C 0.23477 0.41981 0.77158 0.0
C1404 C 0.2167 0.40473 0.75939 0.0
C1405 C 0.22944 0.43711 0.78881 0.0
C1406 C 0.20596 0.43986 0.79457 0.0
H1407 H 0.25317 0.41799 0.76814 0.0
H1408 H 0.24397 0.44719 0.79903 0.0
S1409 S 0.15211 0.40498 0.76811 0.0
N1410 N 0.17416 0.39396 0.75446 0.0
N1411 N 0.16442 0.42677 0.78646 0.0
C1412 C 0.18762 0.42568 0.78191 0.0
C1413 C 0.19299 0.40789 0.76461 0.0
C1414 C 0.73966 0.98791 0.62816 0.0
C1415 C 0.75798 0.9857 0.64559 0.0
C1416 C 0.74466 -0.00446 0.60588 0.0
C1417 C 0.76805 0.00139 0.60032 0.0
H1418 H 0.72141 0.98325 0.63158 0.0
H1419 H 0.73019 -0.00416 0.59247 0.0
S1420 S 0.82214 0.00203 0.64081 0.0
N1421 N 0.80034 0.99261 0.65657 0.0
N1422 N 0.80959 0.00646 0.61449 0.0
C1423 C 0.78648 0.00038 0.61785 0.0
C1424 C 0.78145 0.99262 0.64055 0.0
C1425 C 0.70044 -0.00323 0.2355 0.0
C1426 C 0.72002 0.01356 0.23998 0.0
C1427 C 0.69055 0.99078 0.21218 0.0
C1428 C 0.69978 0.0018 0.1929 0.0
H1429 H 0.69336 0.98758 0.24995 0.0
H1430 H 0.67573 0.97763 0.20925 0.0
S1431 S 0.75179 0.04505 0.1947 0.0
N1432 N 0.74874 0.03991 0.22274 0.0
N1433 N 0.73037 0.02853 0.1794 0.0
C1434 C 0.71955 0.01803 0.19715 0.0
C1435 C 0.72955 0.02405 0.22057 0.0
C1436 C 0.35933 0.30323 0.56488 0.0
C1437 C 0.35206 0.27886 0.56185 0.0
C1438 C 0.37773 0.313 0.55259 0.0
C1439 C 0.38976 0.29885 0.53674 0.0
H1440 H 0.35118 0.31496 0.57733 0.0
H1441 H 0.38365 0.33147 0.55666 0.0
S1442 S 0.37619 0.23495 0.51997 0.0
N1443 N 0.35721 0.24129 0.54002 0.0
N1444 N 0.39174 0.26002 0.51665 0.0
C1445 C 0.3816 0.27498 0.53206 0.0
C1446 C 0.36293 0.26483 0.54482 0.0
C1447 C 0.21921 0.73091 0.00477 0.0
C1448 C 0.23807 0.71785 0.01273 0.0
C1449 C 0.19674 0.71992 -0.00159 0.0
C1450 C 0.19216 0.6955 -0.00013 0.0
H1451 H 0.22176 0.74983 0.00326 0.0
H1452 H 0.18258 0.7308 0.99305 0.0
S1453 S 0.23453 0.65286 0.0198 0.0
N1454 N 0.25006 0.67876 0.02218 0.0
N1455 N 0.2077 0.65821 0.00941 0.0
C1456 C 0.2106 0.682 0.00753 0.0
C1457 C 0.23357 0.69317 0.01424 0.0
C1458 C 0.75903 0.21843 0.4279 0.0
C1459 C 0.75905 0.21589 0.40294 0.0
C1460 C 0.77794 0.21115 0.44252 0.0
C1461 C 0.79699 0.20024 0.43253 0.0
H1462 H 0.74487 0.22714 0.43612 0.0
H1463 H 0.7784 0.21579 0.46137 0.0
S1464 S 0.80173 0.18385 0.36854 0.0
N1465 N 0.77891 0.20047 0.36927 0.0
N1466 N 0.80957 0.17995 0.39645 0.0
C1467 C 0.79421 0.1934 0.40787 0.0
C1468 C 0.77684 0.20339 0.39302 0.0
C1469 C 0.64198 0.77046 0.00489 0.0
C1470 C 0.64432 0.75531 0.98461 0.0
C1471 C 0.61951 0.77629 0.0115 0.0
C1472 C 0.59906 0.76676 -0.00201 0.0
H1473 H 0.65761 0.77805 0.01543 0.0
H1474 H 0.61815 0.7886 0.02671 0.0
S1475 S 0.59639 0.72507 0.9445 0.0
N1476 N 0.62499 0.73115 0.95131 0.0
N1477 N 0.5827 0.73977 0.965 0.0
C1478 C 0.6015 0.75071 0.97841 0.0
C1479 C 0.6242 0.74565 0.97126 0.0
C1480 C 0.57347 0.36545 0.29803 0.0
C1481 C 0.56102 0.35017 0.28055 0.0
C1482 C 0.56262 0.38442 0.30881 0.0
C1483 C 0.53944 0.3902 0.30129 0.0
H1484 H 0.59186 0.36304 0.3031 0.0
H1485 H 0.57319 0.39526 0.3225 0.0
S1486 S 0.49642 0.34819 0.26444 0.0
N1487 N 0.52212 0.33634 0.26268 0.0
N1488 N 0.50205 0.37324 0.28105 0.0
C1489 C 0.52572 0.37275 0.28635 0.0
C1490 C 0.53662 0.35272 0.27614 0.0
C1491 C 0.02848 0.23023 0.70905 0.0
C1492 C 0.01042 0.24247 0.71863 0.0
C1493 C 0.024 0.20722 0.69835 0.0
C1494 C 0.00099 0.19515 0.69612 0.0
H1495 H 0.04658 0.23789 0.71112 0.0
H1496 H 0.03956 0.19899 0.69308 0.0
S1497 S 0.94663 0.22273 0.71627 0.0
N1498 N 0.96854 0.24275 0.72437 0.0
N1499 N 0.95909 0.20067 0.70264 0.0
C1500 C 0.98231 0.20859 0.70433 0.0
C1501 C 0.98728 0.23182 0.71595 0.0
C1502 C 0.42765 0.75973 0.22063 0.0
C1503 C 0.40272 0.75931 0.21729 0.0
C1504 C 0.4423 0.77856 0.21338 0.0
C1505 C 0.43243 0.797 0.20149 0.0
H1506 H 0.43581 0.74601 0.23004 0.0
H1507 H 0.46104 0.77946 0.2187 0.0
S1508 S 0.36874 0.80095 0.18335 0.0
N1509 N 0.36916 0.77828 0.20021 0.0
N1510 N 0.39677 0.80903 0.18012 0.0
C1511 C 0.40793 0.79386 0.19398 0.0
C1512 C 0.3929 0.77649 0.20385 0.0
C1513 C 0.00441 0.63627 0.74774 0.0
C1514 C 0.98474 0.64628 0.75744 0.0
C1515 C 0.01198 0.61452 0.7546 0.0
C1516 C 0.00043 0.60222 0.7718 0.0
H1517 H 0.01346 0.64478 0.73397 0.0
H1518 H 0.0256 0.60647 0.74492 0.0
S1519 S 0.94903 0.6209 0.80344 0.0
N1520 N 0.95397 0.64191 0.78515 0.0
N1521 N 0.97083 0.60328 0.80092 0.0
C1522 C 0.98276 0.61355 0.78376 0.0
C1523 C 0.97401 0.63485 0.77569 0.0
C1524 C 0.68781 0.43016 0.63231 0.0
C1525 C 0.71171 0.43502 0.64056 0.0
C1526 C 0.67868 0.43996 0.61169 0.0
C1527 C 0.69306 0.45551 0.59936 0.0
H1528 H 0.67645 0.41835 0.64149 0.0
H1529 H 0.66065 0.43477 0.6049 0.0
S1530 S 0.75695 0.47198 0.61298 0.0
N1531 N 0.74978 0.45409 0.63361 0.0
N1532 N 0.73222 0.47465 0.59665 0.0
C1533 C 0.71674 0.4606 0.60779 0.0
C1534 C 0.72622 0.44961 0.6278 0.0
C1535 C 0.78746 0.56185 0.23299 0.0
C1536 C 0.76897 0.57735 0.23325 0.0
C1537 C 0.79245 0.54882 0.21237 0.0
C1538 C 0.7789 0.55078 0.19131 0.0
H1539 H 0.79854 0.55984 0.24874 0.0
H1540 H 0.80737 0.5378 0.21274 0.0
S1541 S 0.72997 0.58993 0.18087 0.0
N1542 N 0.73907 0.59595 0.20905 0.0
N1543 N 0.746 0.56853 0.17126 0.0
C1544 C 0.7601 0.56582 0.19113 0.0
C1545 C 0.75601 0.58022 0.2117 0.0
C1546 C 0.21543 0.98156 0.35016 0.0
C1547 C 0.23345 -0.00191 0.34415 0.0
C1548 C 0.21093 0.97836 0.37377 0.0
C1549 C 0.2244 0.99161 0.39213 0.0
H1550 H 0.2048 0.97068 0.33671 0.0
H1551 H 0.19694 0.96554 0.37767 0.0
S1552 S 0.27139 0.03932 0.38659 0.0
N1553 N 0.26213 0.03052 0.35901 0.0
N1554 N 0.25608 0.02211 0.40329 0.0
C1555 C 0.24205 0.00858 0.38652 0.0
C1556 C 0.24574 0.0127 0.36256 0.0
C1557 C 0.29465 0.99437 0.75799 0.0
C1558 C 0.27183 0.98322 0.7524 0.0
C1559 C 0.30473 -0.00365 0.78129 0.0
C1560 C 0.29249 0.98643 0.79935 0.0
H1561 H 0.30453 0.00223 0.74453 0.0
H1562 H 0.32185 0.00594 0.78525 0.0
S1563 S 0.23571 0.94944 0.79293 0.0
N1564 N 0.24019 0.95718 0.7659 0.0
N1565 N 0.25829 0.96218 0.8099 0.0
C1566 C 0.27091 0.97307 0.79355 0.0
C1567 C 0.26095 0.97073 0.76988 0.0
C1568 C 0.62782 0.68976 0.42315 0.0
C1569 C 0.64145 0.70945 0.43426 0.0
C1570 C 0.60748 0.68062 0.43335 0.0
C1571 C 0.60002 0.69117 0.45465 0.0
H1572 H 0.63254 0.68179 0.40637 0.0
H1573 H 0.59656 0.66631 0.42368 0.0
S1574 S 0.63194 0.74122 0.49141 0.0
N1575 N 0.6477 0.73774 0.46812 0.0
N1576 N 0.60979 0.72058 0.4876 0.0
C1577 C 0.61474 0.7096 0.46666 0.0
C1578 C 0.63523 0.71891 0.45618 0.0
C1579 C 0.75697 0.29077 0.98766 0.0
C1580 C 0.75299 0.26602 0.98413 0.0
C1581 C 0.77995 0.3016 0.99089 0.0
C1582 C 0.79944 0.28791 0.9899 0.0
H1583 H 0.7422 0.30163 0.98855 0.0
H1584 H 0.78265 0.32053 0.99441 0.0
S1585 S 0.79904 0.22317 0.97704 0.0
N1586 N 0.77071 0.2286 0.97645 0.0
N1587 N 0.814 0.24901 0.98321 0.0
C1588 C 0.79585 0.26342 0.98484 0.0
C1589 C 0.77254 0.25244 0.98132 0.0
C1590 C 0.23119 0.79358 0.56885 0.0
C1591 C 0.23155 0.77312 0.58176 0.0
C1592 C 0.21134 0.79799 0.55422 0.0
C1593 C 0.1913 0.78206 0.55228 0.0
H1594 H 0.24632 0.80629 0.56997 0.0
H1595 H 0.21143 0.81411 0.54494 0.0
S1596 S 0.17982 0.73104 0.58862 0.0
N1597 N 0.20717 0.74137 0.59724 0.0
N1598 N 0.17136 0.74717 0.56686 0.0
C1599 C 0.19088 0.7624 0.56624 0.0
C1600 C 0.21038 0.75891 0.58225 0.0
C1601 C 0.36018 0.24991 0.00419 0.0
C1602 C 0.34186 0.23254 -0.00262 0.0
C1603 C 0.38355 0.2458 0.00016 0.0
C1604 C 0.38955 0.2239 0.99004 0.0
H1605 H 0.35638 0.26721 0.01167 0.0
H1606 H 0.39721 0.25983 0.00526 0.0
S1607 S 0.34891 0.17102 0.97337 0.0
N1608 N 0.33169 0.19148 0.98308 0.0
N1609 N 0.37605 0.18382 0.97543 0.0
C1610 C 0.37176 0.20585 0.98433 0.0
C1611 C 0.34779 0.2101 0.98832 0.0
C1612 C 0.43562 0.62031 0.72532 0.0
C1613 C 0.43116 0.63744 0.70925 0.0
C1614 C 0.44791 0.6007 0.71874 0.0
C1615 C 0.4562 0.5976 0.69594 0.0
H1616 H 0.4307 0.62262 0.74344 0.0
H1617 H 0.45038 0.58737 0.73136 0.0
S1618 S 0.44229 0.63261 0.64501 0.0
N1619 N 0.42903 0.64504 0.66728 0.0
N1620 N 0.45695 0.61141 0.65647 0.0
C1621 C 0.45117 0.61398 0.6794 0.0
C1622 C 0.43698 0.63287 0.68555 0.0
C1623 C -0.00139 0.76852 0.26342 0.0
C1624 C 0.98358 0.75127 0.27246 0.0
C1625 C 0.00168 0.79144 0.27397 0.0
C1626 C 0.98974 0.79806 0.294 0.0
H1627 H 0.00832 0.76416 0.24804 0.0
H1628 H 0.01294 0.80435 0.26585 0.0
S1629 S 0.94589 0.76071 0.32332 0.0
N1630 N 0.95444 0.74299 0.30155 0.0
N1631 N 0.9613 0.7863 0.32212 0.0
C1632 C 0.97418 0.78123 0.30322 0.0
C1633 C 0.97066 0.75776 0.29216 0.0
C1634 C 0.59005 0.21669 0.78667 0.0
C1635 C 0.57902 0.2336 0.77382 0.0
C1636 C 0.57645 0.19837 0.79571 0.0
C1637 C 0.55172 0.19495 0.78997 0.0
H1638 H 0.60915 0.21772 0.78991 0.0
H1639 H 0.58572 0.18513 0.80486 0.0
S1640 S 0.51471 0.24073 0.76599 0.0
N1641 N 0.54223 0.25051 0.76248 0.0
N1642 N 0.5165 0.21509 0.77816 0.0
C1643 C 0.54037 0.2138 0.78028 0.0
C1644 C 0.55423 0.23301 0.77192 0.0
C1645 C 0.98424 0.35049 0.21344 0.0
C1646 C -0.00216 0.34548 0.23401 0.0
C1647 C 0.98013 0.37379 0.20853 0.0
C1648 C 0.98972 0.39271 0.22399 0.0
H1649 H 0.97663 0.33643 0.201 0.0
H1650 H 0.96985 0.37704 0.19243 0.0
S1651 S 0.03025 0.38987 0.27756 0.0
N1652 N 0.02446 0.36197 0.26743 0.0
N1653 N 0.01453 0.40554 0.25966 0.0
C1654 C 0.00405 0.38809 0.24409 0.0
C1655 C 0.00906 0.36454 0.24852 0.0
C1656 C 0.3619 0.5576 0.31134 0.0
C1657 C 0.35905 0.56997 0.29078 0.0
C1658 C 0.38399 0.54983 0.31857 0.0
C1659 C 0.40371 0.55403 0.30519 0.0
H1660 H 0.34762 0.55604 0.32309 0.0
H1661 H 0.38598 0.54179 0.33534 0.0
S1662 S 0.40319 0.579 0.24634 0.0
N1663 N 0.37586 0.58103 0.25446 0.0
N1664 N 0.4177 0.56686 0.26811 0.0
C1665 C 0.40021 0.56373 0.28315 0.0
C1666 C 0.37764 0.57133 0.27574 0.0
C1667 C 0.1371 0.41841 0.71324 0.0
C1668 C 0.13333 0.39672 0.69984 0.0
C1669 C 0.11859 0.42818 0.72512 0.0
C1670 C 0.09537 0.41677 0.72382 0.0
H1671 H 0.15498 0.42638 0.71698 0.0
H1672 H 0.12349 0.44383 0.73667 0.0
S1673 S 0.07679 0.36148 0.6855 0.0
N1674 N 0.10517 0.36645 0.68168 0.0
N1675 N 0.07015 0.38356 0.70371 0.0
C1676 C 0.09134 0.39623 0.70784 0.0
C1677 C 0.11025 0.38685 0.69557 0.0
C1678 C 0.8565 0.98018 0.69419 0.0
C1679 C 0.84248 0.99465 0.70777 0.0
C1680 C 0.87665 0.98924 0.68445 0.0
C1681 C 0.88456 0.01307 0.6888 0.0
H1682 H 0.85139 0.96154 0.69012 0.0
H1683 H 0.88596 0.97739 0.67316 0.0
S1684 S 0.85664 0.05858 0.72589 0.0
N1685 N 0.83859 0.03441 0.7261 0.0
N1686 N 0.87858 0.05092 0.70985 0.0
C1687 C 0.87173 0.02779 0.70365 0.0
C1688 C 0.8503 0.0187 0.71286 0.0
C1689 C 0.61632 0.96734 0.29044 0.0
C1690 C 0.63273 0.98333 0.28144 0.0
C1691 C 0.59656 0.95761 0.27612 0.0
C1692 C 0.59267 0.96387 0.25262 0.0
H1693 H 0.61797 0.96351 0.30893 0.0
H1694 H 0.58347 0.94624 0.28387 0.0
S1695 S 0.63222 0.00352 0.22065 0.0
N1696 N 0.6455 0.00334 0.24743 0.0
N1697 N 0.60788 0.98574 0.22062 0.0
C1698 C 0.60987 0.97872 0.24308 0.0
C1699 C 0.63015 0.98823 0.25753 0.0
C1700 C 0.30725 0.36113 0.55437 0.0
C1701 C 0.28906 0.35885 0.56995 0.0
C1702 C 0.31458 0.38332 0.54692 0.0
C1703 C 0.30374 0.40379 0.55471 0.0
H1704 H 0.31762 0.34621 0.55013 0.0
H1705 H 0.32976 0.38463 0.53627 0.0
S1706 S 0.25104 0.40553 0.59035 0.0
N1707 N 0.25711 0.37739 0.58871 0.0
N1708 N 0.27103 0.41944 0.57527 0.0
C1709 C 0.28371 0.40109 0.56803 0.0
C1710 C 0.27608 0.37841 0.57521 0.0
C1711 C 0.26535 0.63348 0.96592 0.0
C1712 C 0.28335 0.63328 0.98418 0.0
C1713 C 0.25266 0.61217 0.95687 0.0
C1714 C 0.25753 0.59011 0.96595 0.0
H1715 H 0.26003 0.65017 0.95978 0.0
H1716 H 0.23834 0.61321 0.94349 0.0
S1717 S 0.30564 0.58141 0.01208 0.0
N1718 N 0.30727 0.61009 0.00905 0.0
N1719 N 0.28399 0.57037 0.99295 0.0
C1720 C 0.2767 0.59018 0.98327 0.0
C1721 C 0.28954 0.61165 0.992 0.0
C1722 C 0.72826 0.13629 0.40184 0.0
C1723 C 0.70347 0.13333 0.39743 0.0
C1724 C 0.74074 0.11886 0.41257 0.0
C1725 C 0.72859 0.09819 0.41916 0.0
H1726 H 0.73819 0.15114 0.39513 0.0
H1727 H 0.75992 0.1209 0.41449 0.0
S1728 S 0.66353 0.08545 0.41727 0.0
N1729 N 0.66704 0.11079 0.4046 0.0
N1730 N 0.6905 0.07787 0.42474 0.0
C1731 C 0.70371 0.09641 0.41716 0.0
C1732 C 0.69106 0.11413 0.40634 0.0
C1733 C 0.72175 0.86124 0.00398 0.0
C1734 C 0.70655 0.84098 -0.00187 0.0
C1735 C 0.71257 0.88274 0.01059 0.0
C1736 C 0.68802 0.88446 0.01148 0.0
H1737 H 0.74051 0.86097 0.00138 0.0
H1738 H 0.72468 0.89832 0.01446 0.0
S1739 S 0.64145 0.83519 0.00168 0.0
N1740 N 0.66649 0.82276 -0.00283 0.0
N1741 N 0.64891 0.86359 0.00871 0.0
C1742 C 0.67283 0.86384 0.00775 0.0
C1743 C 0.6823 0.84186 0.00154 0.0
C1744 C 0.57918 0.28425 0.37875 0.0
C1745 C 0.56799 0.29107 0.35785 0.0
C1746 C 0.57132 0.29142 0.40079 0.0
C1747 C 0.55226 0.30617 0.40278 0.0
H1748 H 0.59536 0.2751 0.37817 0.0
H1749 H 0.5808 0.28576 0.41636 0.0
S1750 S 0.51504 0.32549 0.35173 0.0
N1751 N 0.53465 0.30919 0.33946 0.0
N1752 N 0.5215 0.32584 0.38058 0.0
C1753 C 0.53998 0.31172 0.38147 0.0
C1754 C 0.54731 0.30314 0.3591 0.0
C1755 C 0.9642 0.28841 0.61932 0.0
C1756 C 0.98278 0.28127 0.63403 0.0
C1757 C 0.95498 0.27372 0.59959 0.0
C1758 C 0.9645 0.25189 0.59387 0.0
H1759 H 0.9577 0.30582 0.62231 0.0
H1760 H 0.94133 0.28012 0.58787 0.0
S1761 S 0.01091 0.22423 0.62973 0.0
N1762 N 0.00796 0.24996 0.64423 0.0
N1763 N 0.99195 0.22296 0.60615 0.0
C1764 C 0.98207 0.24401 0.60952 0.0
C1765 C 0.99081 0.2586 0.62999 0.0
C1766 C 0.39109 0.69673 0.11038 0.0
C1767 C 0.3967 0.70367 0.13425 0.0
C1768 C 0.40189 0.70851 0.09265 0.0
C1769 C 0.41832 0.72826 0.098 0.0
H1770 H 0.3768 0.68334 0.10532 0.0
H1771 H 0.39665 0.70225 0.07453 0.0
S1772 S 0.44244 0.7497 0.159 0.0
N1773 N 0.42307 0.72755 0.16309 0.0
N1774 N 0.44156 0.75216 0.1301 0.0
C1775 C 0.42552 0.73404 0.12226 0.0
C1776 C 0.41528 0.72096 0.14027 0.0
C1777 C 0.01638 0.71864 0.8565 0.0
C1778 C -0.00288 0.70796 0.8422 0.0
C1779 C 0.02414 0.70832 0.87708 0.0
C1780 C 0.01248 0.68742 0.88405 0.0
H1781 H 0.02471 0.73549 0.8524 0.0
H1782 H 0.03875 0.71723 0.88817 0.0
S1783 S 0.96097 0.6534 0.85238 0.0
N1784 N 0.96729 0.67513 0.83529 0.0
N1785 N 0.9808 0.65668 0.87513 0.0
C1786 C 0.99356 0.67639 0.86952 0.0
C1787 C 0.98627 0.68639 0.84814 0.0
C1788 C 0.61779 0.43424 0.71589 0.0
C1789 C 0.63344 0.42692 0.69923 0.0
C1790 C 0.59411 0.43661 0.70867 0.0
C1791 C 0.58573 0.43122 0.6849 0.0
H1792 H 0.62452 0.44196 0.7332 0.0
H1793 H 0.5829 0.44484 0.72114 0.0
S1794 S 0.61884 0.40298 0.63763 0.0
N1795 N 0.63791 0.40673 0.66104 0.0
N1796 N 0.59387 0.41322 0.64628 0.0
C1797 C 0.60034 0.41981 0.66939 0.0
C1798 C 0.62411 0.41645 0.67726 0.0
C1799 C 0.87948 0.58984 0.29809 0.0
C1800 C 0.85702 0.59015 0.28629 0.0
C1801 C 0.89894 0.58411 0.28548 0.0
C1802 C 0.89621 0.57845 0.26091 0.0
H1803 H 0.88135 0.59076 0.31728 0.0
H1804 H 0.91559 0.58178 0.29526 0.0
S1805 S 0.84316 0.5858 0.2213 0.0
N1806 N 0.83507 0.59268 0.24825 0.0
N1807 N 0.87087 0.57856 0.22472 0.0
C1808 C 0.87472 0.58216 0.24863 0.0
C1809 C 0.85538 0.58949 0.26137 0.0
C1810 C 0.14029 0.96509 0.27909 0.0
C1811 C 0.15065 0.98805 0.28032 0.0
C1812 C 0.12066 0.95986 0.29124 0.0
C1813 C 0.10681 0.97753 0.30094 0.0
H1814 H 0.14941 0.95019 0.27212 0.0
H1815 H 0.11625 0.94114 0.29107 0.0
S1816 S 0.12277 0.04259 0.29975 0.0
N1817 N 0.14478 0.02977 0.28751 0.0
N1818 N 0.10415 0.02074 0.30652 0.0
C1819 C 0.11519 0.00149 0.29861 0.0
C1820 C 0.13729 0.00658 0.2883 0.0
C1821 C 0.35754 0.02451 0.73565 0.0
C1822 C 0.35612 0.01567 0.7118 0.0
C1823 C 0.3794 0.02884 0.74851 0.0
C1824 C 0.40051 0.02427 0.73794 0.0
H1825 H 0.34164 0.02879 0.74423 0.0
H1826 H 0.37986 0.03644 0.76659 0.0
S1827 S 0.4061 0.0007 0.67608 0.0
N1828 N 0.37726 0.0021 0.67817 0.0
N1829 N 0.41865 0.01009 0.70241 0.0
C1830 C 0.39921 0.01465 0.71431 0.0
C1831 C 0.37689 0.01038 0.70117 0.0
C1832 C 0.67595 0.62677 0.4335 0.0
C1833 C 0.69901 0.63204 0.42664 0.0
C1834 C 0.66756 0.60332 0.43528 0.0
C1835 C 0.68163 0.58474 0.42908 0.0
H1836 H 0.66573 0.64075 0.44066 0.0
H1837 H 0.65106 0.59979 0.44349 0.0
S1838 S 0.73946 0.58966 0.40213 0.0
N1839 N 0.73324 0.61739 0.40831 0.0
N1840 N 0.71691 0.57294 0.41046 0.0
C1841 C 0.70284 0.58987 0.4183 0.0
C1842 C 0.7117 0.61377 0.41721 0.0
C1843 C 0.69873 0.37589 0.02801 0.0
C1844 C 0.70858 0.35749 0.01521 0.0
C1845 C 0.71166 0.39752 0.03317 0.0
C1846 C 0.73458 0.40126 0.02546 0.0
H1847 H 0.68224 0.3727 0.03635 0.0
H1848 H 0.70429 0.41094 0.04444 0.0
S1849 S 0.76384 0.36233 0.98325 0.0
N1850 N 0.73902 0.34711 0.98835 0.0
N1851 N 0.76416 0.3875 -0.00033 0.0
C1852 C 0.7431 0.38444 0.00967 0.0
C1853 C 0.7296 0.36262 0.0038 0.0
C1854 C 0.27945 0.85479 0.56511 0.0
C1855 C 0.288 0.85359 0.58856 0.0
C1856 C 0.26625 0.87311 0.55829 0.0
C1857 C 0.26127 0.89212 0.57431 0.0
H1858 H 0.28225 0.84094 0.5517 0.0
H1859 H 0.26104 0.87191 0.53969 0.0
S1860 S 0.28047 0.89646 0.63909 0.0
N1861 N 0.29146 0.87205 0.62844 0.0
N1862 N 0.2661 0.90699 0.61628 0.0
C1863 C 0.26992 0.89089 0.59838 0.0
C1864 C 0.28353 0.87172 0.60526 0.0
C1865 C 0.3018 0.14454 0.00028 0.0
C1866 C 0.27945 0.1477 0.98906 0.0
C1867 C 0.31199 0.1228 -0.00328 0.0
C1868 C 0.29825 0.10336 0.98545 0.0
H1869 H 0.31304 0.15975 0.00753 0.0
H1870 H 0.33077 0.12172 0.00107 0.0
S1871 S 0.23402 0.09996 0.96844 0.0
N1872 N 0.241 0.12831 0.97615 0.0
N1873 N 0.25872 0.08644 0.97261 0.0
C1874 C 0.27382 0.10507 0.98118 0.0
C1875 C 0.26426 0.1275 0.98324 0.0
C1876 C 0.41172 0.69574 0.61872 0.0
C1877 C 0.42962 0.70972 0.63252 0.0
C1878 C 0.41583 0.68599 0.59604 0.0
C1879 C 0.43822 0.68955 0.58675 0.0
H1880 H 0.3952 0.69079 0.62629 0.0
H1881 H 0.40188 0.67461 0.5864 0.0
S1882 S 0.49062 0.72533 0.61681 0.0
N1883 N 0.46958 0.72767 0.6353 0.0
N1884 N 0.47809 0.70923 0.59357 0.0
C1885 C 0.45573 0.70461 0.60028 0.0
C1886 C 0.45113 0.715 0.6228 0.0
C1887 C 0.03623 0.70941 0.36692 0.0
C1888 C 0.01385 0.71053 0.35521 0.0
C1889 C 0.04184 0.72135 0.38892 0.0
C1890 C 0.02533 0.73487 0.40035 0.0
H1891 H 0.05026 0.70082 0.35836 0.0
H1892 H 0.05956 0.72005 0.3968 0.0
S1893 S 0.96182 0.73712 0.37965 0.0
N1894 N 0.97317 0.72065 0.35873 0.0
N1895 N 0.984 0.74516 0.39948 0.0
C1896 C 0.00193 0.73393 0.38984 0.0
C1897 C -0.00392 0.721 0.36756 0.0
C1898 C 0.56765 0.27069 0.85286 0.0
C1899 C 0.58669 0.28795 0.8556 0.0
C1900 C 0.5624 0.25642 0.8711 0.0
C1901 C 0.57454 0.26023 0.89366 0.0
H1902 H 0.55669 0.26791 0.83649 0.0
H1903 H 0.54787 0.24304 0.86762 0.0
S1904 S 0.62919 0.3004 0.9077 0.0
N1905 N 0.62063 0.30526 0.88019 0.0
N1906 N 0.60949 0.28035 0.91593 0.0
C1907 C 0.59491 0.27636 0.89592 0.0
C1908 C 0.60099 0.29002 0.87666 0.0
C1909 C 0.96441 0.2929 0.14432 0.0
C1910 C 0.98558 0.28311 0.15097 0.0
C1911 C 0.96286 0.30605 0.12487 0.0
C1912 C 0.9792 0.30437 0.10731 0.0
H1913 H 0.94991 0.29342 0.15589 0.0
H1914 H 0.94739 0.31615 0.12275 0.0
S1915 S 0.03966 0.28335 0.11733 0.0
N1916 N 0.02604 0.27673 0.14125 0.0
N1917 N 0.01988 0.29534 0.09994 0.0
C1918 C 0.00092 0.29462 0.11344 0.0
C1919 C 0.00427 0.2844 0.13576 0.0
loop_
_geom_bond_atom_site_label_1
_geom_bond_atom_site_label_2
_geom_bond_distance
_geom_bond_site_symmetry_2
_ccdc_geom_bond_type
O0 Cd1 2.300 . S
O0 C7 1.275 . S
Cd1 O0 2.300 . S
Cd1 O9 2.381 . S
Cd1 O10 2.378 . S
O2 Cd3 2.385 . S
O2 C7 1.255 . S
Cd3 O2 2.385 . S
Cd3 O4 2.317 . S
O4 Cd3 2.317 . S
O4 C5 1.232 . S
C5 O4 1.232 . S
C5 O6 1.218 . S
O6 C5 1.218 . S
C7 O0 1.275 . S
C7 O2 1.255 . S
C8 O9 1.258 . S
C8 O10 1.256 . S
O9 Cd1 2.381 . S
O9 C8 1.258 . S
O10 Cd1 2.378 . S
O10 C8 1.256 . S
O11 Cd12 2.300 . S
O11 C18 1.275 . S
Cd12 O11 2.300 . S
Cd12 O20 2.381 . S
Cd12 O21 2.378 . S
O13 Cd14 2.385 . S
O13 C18 1.255 . S
Cd14 O13 2.385 . S
Cd14 O15 2.317 . S
O15 Cd14 2.317 . S
O15 C16 1.232 . S
C16 O15 1.232 . S
C16 O17 1.218 . S
O17 C16 1.218 . S
C18 O11 1.275 . S
C18 O13 1.255 . S
C19 O20 1.258 . S
C19 O21 1.256 . S
O20 Cd12 2.381 . S
O20 C19 1.258 . S
O21 Cd12 2.378 . S
O21 C19 1.256 . S
O22 Cd23 2.300 . S
O22 C29 1.275 . S
Cd23 O22 2.300 . S
Cd23 O31 2.381 1_565 S
Cd23 O32 2.378 . S
O24 Cd25 2.385 . S
O24 C29 1.255 . S
Cd25 O24 2.385 . S
Cd25 O26 2.317 . S
O26 Cd25 2.317 . S
O26 C27 1.232 . S
C27 O26 1.232 . S
C27 O28 1.218 . S
O28 C27 1.218 . S
C29 O22 1.275 . S
C29 O24 1.255 . S
C30 O31 1.258 . S
C30 O32 1.256 1_545 S
O31 Cd23 2.381 1_545 S
O31 C30 1.258 . S
O32 Cd23 2.378 . S
O32 C30 1.256 1_565 S
O33 Cd34 2.300 . S
O33 C40 1.275 . S
Cd34 O33 2.300 . S
Cd34 O42 2.381 1_545 S
Cd34 O43 2.378 . S
O35 Cd36 2.385 . S
O35 C40 1.255 . S
Cd36 O35 2.385 . S
Cd36 O37 2.317 . S
O37 Cd36 2.317 . S
O37 C38 1.232 . S
C38 O37 1.232 . S
C38 O39 1.218 . S
O39 C38 1.218 . S
C40 O33 1.275 . S
C40 O35 1.255 . S
C41 O42 1.258 . S
C41 O43 1.256 1_565 S
O42 Cd34 2.381 1_565 S
O42 C41 1.258 . S
O43 Cd34 2.378 . S
O43 C41 1.256 1_545 S
O44 Cd45 2.300 . S
O44 C51 1.275 . S
Cd45 O44 2.300 . S
Cd45 O53 2.381 . S
Cd45 O54 2.378 . S
O46 Cd47 2.385 . S
O46 C51 1.255 . S
Cd47 O46 2.385 . S
Cd47 O48 2.317 . S
O48 Cd47 2.317 . S
O48 C49 1.232 . S
C49 O48 1.232 . S
C49 O50 1.218 . S
O50 C49 1.218 . S
C51 O44 1.275 . S
C51 O46 1.255 . S
C52 O53 1.258 . S
C52 O54 1.256 . S
O53 Cd45 2.381 . S
O53 C52 1.258 . S
O54 Cd45 2.378 . S
O54 C52 1.256 . S
O55 Cd56 2.300 . S
O55 C62 1.275 . S
Cd56 O55 2.300 . S
Cd56 O64 2.381 1_554 S
Cd56 O65 2.378 . S
O57 Cd58 2.385 . S
O57 C62 1.255 . S
Cd58 O57 2.385 . S
Cd58 O59 2.317 . S
O59 Cd58 2.317 . S
O59 C60 1.232 . S
C60 O59 1.232 . S
C60 O61 1.218 . S
O61 C60 1.218 . S
C62 O55 1.275 . S
C62 O57 1.255 . S
C63 O64 1.258 . S
C63 O65 1.256 1_556 S
O64 Cd56 2.381 1_556 S
O64 C63 1.258 . S
O65 Cd56 2.378 . S
O65 C63 1.256 1_554 S
O66 Cd67 2.300 . S
O66 C73 1.275 . S
Cd67 O66 2.300 . S
Cd67 O75 2.381 . S
Cd67 O76 2.378 . S
O68 Cd69 2.385 . S
O68 C73 1.255 . S
Cd69 O68 2.385 . S
Cd69 O70 2.317 . S
O70 Cd69 2.317 . S
O70 C71 1.232 . S
C71 O70 1.232 . S
C71 O72 1.218 . S
O72 C71 1.218 . S
C73 O66 1.275 . S
C73 O68 1.255 . S
C74 O75 1.258 . S
C74 O76 1.256 . S
O75 Cd67 2.381 . S
O75 C74 1.258 . S
O76 Cd67 2.378 . S
O76 C74 1.256 . S
O77 Cd78 2.300 . S
O77 C84 1.275 . S
Cd78 O77 2.300 . S
Cd78 O86 2.381 1_556 S
Cd78 O87 2.378 . S
O79 Cd80 2.385 . S
O79 C84 1.255 . S
Cd80 O79 2.385 . S
Cd80 O81 2.317 . S
O81 Cd80 2.317 . S
O81 C82 1.232 . S
C82 O81 1.232 . S
C82 O83 1.218 . S
O83 C82 1.218 . S
C84 O77 1.275 . S
C84 O79 1.255 . S
C85 O86 1.258 . S
C85 O87 1.256 1_554 S
O86 Cd78 2.381 1_554 S
O86 C85 1.258 . S
O87 Cd78 2.378 . S
O87 C85 1.256 1_556 S
O88 Cd89 2.300 . S
O88 C95 1.275 . S
Cd89 O88 2.300 . S
Cd89 O97 2.381 . S
Cd89 O98 2.378 . S
O90 Cd91 2.385 . S
O90 C95 1.255 . S
Cd91 O90 2.385 . S
Cd91 O92 2.317 . S
O92 Cd91 2.317 . S
O92 C93 1.232 . S
C93 O92 1.232 . S
C93 O94 1.218 . S
O94 C93 1.218 . S
C95 O88 1.275 . S
C95 O90 1.255 . S
C96 O97 1.258 . S
C96 O98 1.256 . S
O97 Cd89 2.381 . S
O97 C96 1.258 . S
O98 Cd89 2.378 . S
O98 C96 1.256 . S
O99 Cd100 2.300 . S
O99 C106 1.275 . S
Cd100 O99 2.300 . S
Cd100 O108 2.381 1_455 S
Cd100 O109 2.378 . S
O101 Cd102 2.385 . S
O101 C106 1.255 . S
Cd102 O101 2.385 . S
Cd102 O103 2.317 . S
O103 Cd102 2.317 . S
O103 C104 1.232 . S
C104 O103 1.232 . S
C104 O105 1.218 . S
O105 C104 1.218 . S
C106 O99 1.275 . S
C106 O101 1.255 . S
C107 O108 1.258 . S
C107 O109 1.256 1_655 S
O108 Cd100 2.381 1_655 S
O108 C107 1.258 . S
O109 Cd100 2.378 . S
O109 C107 1.256 1_455 S
O110 Cd111 2.300 . S
O110 C117 1.275 . S
Cd111 O110 2.300 . S
Cd111 O119 2.381 . S
Cd111 O120 2.378 . S
O112 Cd113 2.385 . S
O112 C117 1.255 . S
Cd113 O112 2.385 . S
Cd113 O114 2.317 . S
O114 Cd113 2.317 . S
O114 C115 1.232 . S
C115 O114 1.232 . S
C115 O116 1.218 . S
O116 C115 1.218 . S
C117 O110 1.275 . S
C117 O112 1.255 . S
C118 O119 1.258 . S
C118 O120 1.256 . S
O119 Cd111 2.381 . S
O119 C118 1.258 . S
O120 Cd111 2.378 . S
O120 C118 1.256 . S
O121 Cd122 2.300 . S
O121 C128 1.275 . S
Cd122 O121 2.300 . S
Cd122 O130 2.381 1_655 S
Cd122 O131 2.378 . S
O123 Cd124 2.385 . S
O123 C128 1.255 . S
Cd124 O123 2.385 . S
Cd124 O125 2.317 . S
O125 Cd124 2.317 . S
O125 C126 1.232 . S
C126 O125 1.232 . S
C126 O127 1.218 . S
O127 C126 1.218 . S
C128 O121 1.275 . S
C128 O123 1.255 . S
C129 O130 1.258 . S
C129 O131 1.256 1_455 S
O130 Cd122 2.381 1_455 S
O130 C129 1.258 . S
O131 Cd122 2.378 . S
O131 C129 1.256 1_655 S
O132 Cd133 2.300 . S
O132 C139 1.275 . S
Cd133 O132 2.300 . S
Cd133 O141 2.381 . S
Cd133 O142 2.378 . S
O134 Cd135 2.385 . S
O134 C139 1.255 . S
Cd135 O134 2.385 . S
Cd135 O136 2.317 . S
O136 Cd135 2.317 . S
O136 C137 1.232 . S
C137 O136 1.232 . S
C137 O138 1.218 . S
O138 C137 1.218 . S
C139 O132 1.275 . S
C139 O134 1.255 . S
C140 O141 1.258 . S
C140 O142 1.256 . S
O141 Cd133 2.381 . S
O141 C140 1.258 . S
O142 Cd133 2.378 . S
O142 C140 1.256 . S
O143 Cd144 2.300 . S
O143 C150 1.275 . S
Cd144 O143 2.300 . S
Cd144 O152 2.381 . S
Cd144 O153 2.378 . S
O145 Cd146 2.385 . S
O145 C150 1.255 . S
Cd146 O145 2.385 . S
Cd146 O147 2.317 . S
O147 Cd146 2.317 . S
O147 C148 1.232 . S
C148 O147 1.232 . S
C148 O149 1.218 . S
O149 C148 1.218 . S
C150 O143 1.275 . S
C150 O145 1.255 . S
C151 O152 1.258 . S
C151 O153 1.256 . S
O152 Cd144 2.381 . S
O152 C151 1.258 . S
O153 Cd144 2.378 . S
O153 C151 1.256 . S
O154 Cd155 2.300 1_545 S
O154 C161 1.275 . S
Cd155 O154 2.300 1_565 S
Cd155 O163 2.381 1_565 S
Cd155 O164 2.378 . S
O156 Cd157 2.385 . S
O156 C161 1.255 1_565 S
Cd157 O156 2.385 . S
Cd157 O158 2.317 . S
O158 Cd157 2.317 . S
O158 C159 1.232 . S
C159 O158 1.232 . S
C159 O160 1.218 . S
O160 C159 1.218 . S
C161 O154 1.275 . S
C161 O156 1.255 1_545 S
C162 O163 1.258 1_565 S
C162 O164 1.256 . S
O163 Cd155 2.381 1_545 S
O163 C162 1.258 1_545 S
O164 Cd155 2.378 . S
O164 C162 1.256 . S
O165 Cd166 2.300 1_565 S
O165 C172 1.275 . S
Cd166 O165 2.300 1_545 S
Cd166 O174 2.381 1_545 S
Cd166 O175 2.378 . S
O167 Cd168 2.385 . S
O167 C172 1.255 1_545 S
Cd168 O167 2.385 . S
Cd168 O169 2.317 . S
O169 Cd168 2.317 . S
O169 C170 1.232 . S
C170 O169 1.232 . S
C170 O171 1.218 . S
O171 C170 1.218 . S
C172 O165 1.275 . S
C172 O167 1.255 1_565 S
C173 O174 1.258 1_545 S
C173 O175 1.256 . S
O174 Cd166 2.381 1_565 S
O174 C173 1.258 1_565 S
O175 Cd166 2.378 . S
O175 C173 1.256 . S
O176 Cd177 2.300 . S
O176 C183 1.275 . S
Cd177 O176 2.300 . S
Cd177 O185 2.381 . S
Cd177 O186 2.378 . S
O178 Cd179 2.385 . S
O178 C183 1.255 . S
Cd179 O178 2.385 . S
Cd179 O180 2.317 . S
O180 Cd179 2.317 . S
O180 C181 1.232 . S
C181 O180 1.232 . S
C181 O182 1.218 . S
O182 C181 1.218 . S
C183 O176 1.275 . S
C183 O178 1.255 . S
C184 O185 1.258 . S
C184 O186 1.256 . S
O185 Cd177 2.381 . S
O185 C184 1.258 . S
O186 Cd177 2.378 . S
O186 C184 1.256 . S
O187 Cd188 2.300 1_556 S
O187 C194 1.275 . S
Cd188 O187 2.300 1_554 S
Cd188 O196 2.381 1_554 S
Cd188 O197 2.378 . S
O189 Cd190 2.385 . S
O189 C194 1.255 1_554 S
Cd190 O189 2.385 . S
Cd190 O191 2.317 . S
O191 Cd190 2.317 . S
O191 C192 1.232 . S
C192 O191 1.232 . S
C192 O193 1.218 . S
O193 C192 1.218 . S
C194 O187 1.275 . S
C194 O189 1.255 1_556 S
C195 O196 1.258 1_554 S
C195 O197 1.256 . S
O196 Cd188 2.381 1_556 S
O196 C195 1.258 1_556 S
O197 Cd188 2.378 . S
O197 C195 1.256 . S
O198 Cd199 2.300 . S
O198 C205 1.275 . S
Cd199 O198 2.300 . S
Cd199 O207 2.381 . S
Cd199 O208 2.378 . S
O200 Cd201 2.385 . S
O200 C205 1.255 . S
Cd201 O200 2.385 . S
Cd201 O202 2.317 . S
O202 Cd201 2.317 . S
O202 C203 1.232 . S
C203 O202 1.232 . S
C203 O204 1.218 . S
O204 C203 1.218 . S
C205 O198 1.275 . S
C205 O200 1.255 . S
C206 O207 1.258 . S
C206 O208 1.256 . S
O207 Cd199 2.381 . S
O207 C206 1.258 . S
O208 Cd199 2.378 . S
O208 C206 1.256 . S
O209 Cd210 2.300 1_554 S
O209 C216 1.275 . S
Cd210 O209 2.300 1_556 S
Cd210 O218 2.381 1_556 S
Cd210 O219 2.378 . S
O211 Cd212 2.385 . S
O211 C216 1.255 1_556 S
Cd212 O211 2.385 . S
Cd212 O213 2.317 . S
O213 Cd212 2.317 . S
O213 C214 1.232 . S
C214 O213 1.232 . S
C214 O215 1.218 . S
O215 C214 1.218 . S
C216 O209 1.275 . S
C216 O211 1.255 1_554 S
C217 O218 1.258 1_556 S
C217 O219 1.256 . S
O218 Cd210 2.381 1_554 S
O218 C217 1.258 1_554 S
O219 Cd210 2.378 . S
O219 C217 1.256 . S
O220 Cd221 2.300 . S
O220 C227 1.275 . S
Cd221 O220 2.300 . S
Cd221 O229 2.381 . S
Cd221 O230 2.378 . S
O222 Cd223 2.385 . S
O222 C227 1.255 . S
Cd223 O222 2.385 . S
Cd223 O224 2.317 . S
O224 Cd223 2.317 . S
O224 C225 1.232 . S
C225 O224 1.232 . S
C225 O226 1.218 . S
O226 C225 1.218 . S
C227 O220 1.275 . S
C227 O222 1.255 . S
C228 O229 1.258 . S
C228 O230 1.256 . S
O229 Cd221 2.381 . S
O229 C228 1.258 . S
O230 Cd221 2.378 . S
O230 C228 1.256 . S
O231 Cd232 2.300 1_655 S
O231 C238 1.275 . S
Cd232 O231 2.300 1_455 S
Cd232 O240 2.381 1_455 S
Cd232 O241 2.378 . S
O233 Cd234 2.385 . S
O233 C238 1.255 1_455 S
Cd234 O233 2.385 . S
Cd234 O235 2.317 . S
O235 Cd234 2.317 . S
O235 C236 1.232 . S
C236 O235 1.232 . S
C236 O237 1.218 . S
O237 C236 1.218 . S
C238 O231 1.275 . S
C238 O233 1.255 1_655 S
C239 O240 1.258 1_455 S
C239 O241 1.256 . S
O240 Cd232 2.381 1_655 S
O240 C239 1.258 1_655 S
O241 Cd232 2.378 . S
O241 C239 1.256 . S
O242 Cd243 2.300 . S
O242 C249 1.275 . S
Cd243 O242 2.300 . S
Cd243 O251 2.381 . S
Cd243 O252 2.378 . S
O244 Cd245 2.385 . S
O244 C249 1.255 . S
Cd245 O244 2.385 . S
Cd245 O246 2.317 . S
O246 Cd245 2.317 . S
O246 C247 1.232 . S
C247 O246 1.232 . S
C247 O248 1.218 . S
O248 C247 1.218 . S
C249 O242 1.275 . S
C249 O244 1.255 . S
C250 O251 1.258 . S
C250 O252 1.256 . S
O251 Cd243 2.381 . S
O251 C250 1.258 . S
O252 Cd243 2.378 . S
O252 C250 1.256 . S
O253 Cd254 2.300 1_455 S
O253 C260 1.275 . S
Cd254 O253 2.300 1_655 S
Cd254 O262 2.381 1_655 S
Cd254 O263 2.378 . S
O255 Cd256 2.385 . S
O255 C260 1.255 1_655 S
Cd256 O255 2.385 . S
Cd256 O257 2.317 . S
O257 Cd256 2.317 . S
O257 C258 1.232 . S
C258 O257 1.232 . S
C258 O259 1.218 . S
O259 C258 1.218 . S
C260 O253 1.275 . S
C260 O255 1.255 1_455 S
C261 O262 1.258 1_655 S
C261 O263 1.256 . S
O262 Cd254 2.381 1_455 S
O262 C261 1.258 1_455 S
O263 Cd254 2.378 . S
O263 C261 1.256 . S
C264 C265 1.384 . S
C264 H277 0.947 . S
C264 C299 1.382 . S
C265 C264 1.384 . S
C265 C266 1.378 . S
C266 C265 1.378 . S
C266 C267 1.378 . S
C266 H278 0.952 . S
C267 C266 1.378 . S
C267 H279 0.950 . S
C267 C298 1.383 . S
H268 C287 0.947 . S
H269 C288 0.946 . S
H270 C290 0.953 . S
H271 C291 0.945 . S
H272 C293 0.952 . S
H273 C294 0.949 . S
H274 C296 0.950 . S
H275 C297 0.948 . S
H276 C299 0.951 . S
H277 C264 0.947 . S
H278 C266 0.952 . S
H279 C267 0.950 . S
N280 C283 1.382 . S
N280 C285 1.363 . S
N281 C283 1.371 . S
N281 C284 1.372 . S
N282 C284 1.361 . S
N282 C285 1.377 . S
C283 N280 1.382 . S
C283 N281 1.371 . S
C283 C286 1.480 . S
C284 N281 1.372 . S
C284 N282 1.361 . S
C284 C292 1.457 . S
C285 N280 1.363 . S
C285 N282 1.377 . S
C285 C298 1.479 . S
C286 C283 1.480 . S
C286 C287 1.383 . S
C286 C291 1.385 . S
C287 H268 0.947 . S
C287 C286 1.383 . S
C287 C288 1.388 . S
C288 H269 0.946 . S
C288 C287 1.388 . S
C288 C289 1.384 . S
C289 C288 1.384 . S
C289 C290 1.377 . S
C290 H270 0.953 . S
C290 C289 1.377 . S
C290 C291 1.369 . S
C291 H271 0.945 . S
C291 C286 1.385 . S
C291 C290 1.369 . S
C292 C284 1.457 . S
C292 C293 1.372 . S
C292 C297 1.364 . S
C293 H272 0.952 . S
C293 C292 1.372 . S
C293 C294 1.389 . S
C294 H273 0.949 . S
C294 C293 1.389 . S
C294 C295 1.387 . S
C295 C294 1.387 . S
C295 C296 1.372 . S
C296 H274 0.950 . S
C296 C295 1.372 . S
C296 C297 1.379 . S
C297 H275 0.948 . S
C297 C292 1.364 . S
C297 C296 1.379 . S
C298 C267 1.383 . S
C298 C285 1.479 . S
C298 C299 1.398 . S
C299 C264 1.382 . S
C299 H276 0.951 . S
C299 C298 1.398 . S
C300 C301 1.384 . S
C300 H313 0.947 . S
C300 C335 1.382 . S
C301 C300 1.384 . S
C301 C302 1.378 . S
C302 C301 1.378 . S
C302 C303 1.378 . S
C302 H314 0.952 . S
C303 C302 1.378 . S
C303 H315 0.950 . S
C303 C334 1.383 . S
H304 C323 0.947 . S
H305 C324 0.946 1_554 S
H306 C326 0.953 . S
H307 C327 0.945 . S
H308 C329 0.952 . S
H309 C330 0.949 . S
H310 C332 0.950 . S
H311 C333 0.948 . S
H312 C335 0.951 . S
H313 C300 0.947 . S
H314 C302 0.952 . S
H315 C303 0.950 . S
N316 C319 1.382 . S
N316 C321 1.363 . S
N317 C319 1.371 . S
N317 C320 1.372 . S
N318 C320 1.361 . S
N318 C321 1.377 . S
C319 N316 1.382 . S
C319 N317 1.371 . S
C319 C322 1.480 . S
C320 N317 1.372 . S
C320 N318 1.361 . S
C320 C328 1.457 . S
C321 N316 1.363 . S
C321 N318 1.377 . S
C321 C334 1.479 . S
C322 C319 1.480 . S
C322 C323 1.383 . S
C322 C327 1.385 . S
C323 H304 0.947 . S
C323 C322 1.383 . S
C323 C324 1.388 . S
C324 H305 0.946 1_556 S
C324 C323 1.388 . S
C324 C325 1.384 . S
C325 C324 1.384 . S
C325 C326 1.377 . S
C326 H306 0.953 . S
C326 C325 1.377 . S
C326 C327 1.369 . S
C327 H307 0.945 . S
C327 C322 1.385 . S
C327 C326 1.369 . S
C328 C320 1.457 . S
C328 C329 1.372 . S
C328 C333 1.364 . S
C329 H308 0.952 . S
C329 C328 1.372 . S
C329 C330 1.389 . S
C330 H309 0.949 . S
C330 C329 1.389 . S
C330 C331 1.387 . S
C331 C330 1.387 . S
C331 C332 1.372 . S
C332 H310 0.950 . S
C332 C331 1.372 . S
C332 C333 1.379 . S
C333 H311 0.948 . S
C333 C328 1.364 . S
C333 C332 1.379 . S
C334 C303 1.383 . S
C334 C321 1.479 . S
C334 C335 1.398 . S
C335 C300 1.382 . S
C335 H312 0.951 . S
C335 C334 1.398 . S
C336 C337 1.384 . S
C336 H349 0.947 . S
C336 C371 1.382 . S
C337 C336 1.384 . S
C337 C338 1.378 . S
C338 C337 1.378 . S
C338 C339 1.378 . S
C338 H350 0.952 . S
C339 C338 1.378 . S
C339 H351 0.950 . S
C339 C370 1.383 . S
H340 C359 0.947 . S
H341 C360 0.946 . S
H342 C362 0.953 . S
H343 C363 0.945 . S
H344 C365 0.952 . S
H345 C366 0.949 . S
H346 C368 0.950 . S
H347 C369 0.948 . S
H348 C371 0.951 . S
H349 C336 0.947 . S
H350 C338 0.952 . S
H351 C339 0.950 . S
N352 C355 1.382 1_565 S
N352 C357 1.363 . S
N353 C355 1.371 . S
N353 C356 1.372 . S
N354 C356 1.361 1_565 S
N354 C357 1.377 . S
C355 N352 1.382 1_545 S
C355 N353 1.371 . S
C355 C358 1.480 . S
C356 N353 1.372 . S
C356 N354 1.361 1_545 S
C356 C364 1.457 . S
C357 N352 1.363 . S
C357 N354 1.377 . S
C357 C370 1.479 . S
C358 C355 1.480 . S
C358 C359 1.383 . S
C358 C363 1.385 . S
C359 H340 0.947 . S
C359 C358 1.383 . S
C359 C360 1.388 . S
C360 H341 0.946 . S
C360 C359 1.388 . S
C360 C361 1.384 . S
C361 C360 1.384 . S
C361 C362 1.377 . S
C362 H342 0.953 . S
C362 C361 1.377 . S
C362 C363 1.369 . S
C363 H343 0.945 . S
C363 C358 1.385 . S
C363 C362 1.369 . S
C364 C356 1.457 . S
C364 C365 1.372 . S
C364 C369 1.364 1_545 S
C365 H344 0.952 . S
C365 C364 1.372 . S
C365 C366 1.389 . S
C366 H345 0.949 . S
C366 C365 1.389 . S
C366 C367 1.387 . S
C367 C366 1.387 . S
C367 C368 1.372 1_545 S
C368 H346 0.950 . S
C368 C367 1.372 1_565 S
C368 C369 1.379 . S
C369 H347 0.948 . S
C369 C364 1.364 1_565 S
C369 C368 1.379 . S
C370 C339 1.383 . S
C370 C357 1.479 . S
C370 C371 1.398 . S
C371 C336 1.382 . S
C371 H348 0.951 . S
C371 C370 1.398 . S
C372 C373 1.384 . S
C372 H385 0.947 . S
C372 C407 1.382 . S
C373 C372 1.384 . S
C373 C374 1.378 . S
C374 C373 1.378 . S
C374 C375 1.378 . S
C374 H386 0.952 1_554 S
C375 C374 1.378 . S
C375 H387 0.950 . S
C375 C406 1.383 . S
H376 C395 0.947 . S
H377 C396 0.946 . S
H378 C398 0.953 . S
H379 C399 0.945 . S
H380 C401 0.952 . S
H381 C402 0.949 . S
H382 C404 0.950 . S
H383 C405 0.948 . S
H384 C407 0.951 . S
H385 C372 0.947 . S
H386 C374 0.952 1_556 S
H387 C375 0.950 . S
N388 C391 1.369 1_565 S
N388 C393 1.376 . S
N389 C391 1.371 . S
N389 C392 1.372 . S
N390 C392 1.361 1_565 S
N390 C393 1.377 . S
C391 N388 1.369 1_545 S
C391 N389 1.371 . S
C391 C394 1.480 . S
C392 N389 1.372 . S
C392 N390 1.361 1_545 S
C392 C400 1.457 . S
C393 N388 1.376 . S
C393 N390 1.377 . S
C393 C406 1.479 . S
C394 C391 1.480 . S
C394 C395 1.383 . S
C394 C399 1.385 . S
C395 H376 0.947 . S
C395 C394 1.383 . S
C395 C396 1.388 . S
C396 H377 0.946 . S
C396 C395 1.388 . S
C396 C397 1.384 . S
C397 C396 1.384 . S
C397 C398 1.377 . S
C398 H378 0.953 . S
C398 C397 1.377 . S
C398 C399 1.369 . S
C399 H379 0.945 . S
C399 C394 1.385 . S
C399 C398 1.369 . S
C400 C392 1.457 . S
C400 C401 1.372 . S
C400 C405 1.364 1_545 S
C401 H380 0.952 . S
C401 C400 1.372 . S
C401 C402 1.389 . S
C402 H381 0.949 . S
C402 C401 1.389 . S
C402 C403 1.387 . S
C403 C402 1.387 . S
C403 C404 1.372 1_545 S
C404 H382 0.950 . S
C404 C403 1.372 1_565 S
C404 C405 1.379 . S
C405 H383 0.948 . S
C405 C400 1.364 1_565 S
C405 C404 1.379 . S
C406 C375 1.383 . S
C406 C393 1.479 . S
C406 C407 1.398 . S
C407 C372 1.382 . S
C407 H384 0.951 . S
C407 C406 1.398 . S
C408 C409 1.384 . S
C408 H421 0.947 . S
C408 C443 1.382 . S
C409 C408 1.384 . S
C409 C410 1.378 . S
C410 C409 1.378 . S
C410 C411 1.378 . S
C410 H422 0.952 . S
C411 C410 1.378 . S
C411 H423 0.950 . S
C411 C442 1.383 . S
H412 C431 0.947 . S
H413 C432 0.946 . S
H414 C434 0.953 . S
H415 C435 0.945 . S
H416 C437 0.952 . S
H417 C438 0.949 . S
H418 C440 0.950 . S
H419 C441 0.948 . S
H420 C443 0.951 . S
H421 C408 0.947 . S
H422 C410 0.952 . S
H423 C411 0.950 . S
N424 C427 1.382 . S
N424 C429 1.363 . S
N425 C427 1.371 . S
N425 C428 1.372 . S
N426 C428 1.361 . S
N426 C429 1.377 . S
C427 N424 1.382 . S
C427 N425 1.371 . S
C427 C430 1.480 . S
C428 N425 1.372 . S
C428 N426 1.361 . S
C428 C436 1.457 . S
C429 N424 1.363 . S
C429 N426 1.377 . S
C429 C442 1.479 . S
C430 C427 1.480 . S
C430 C431 1.383 . S
C430 C435 1.385 . S
C431 H412 0.947 . S
C431 C430 1.383 . S
C431 C432 1.388 . S
C432 H413 0.946 . S
C432 C431 1.388 . S
C432 C433 1.384 . S
C433 C432 1.384 . S
C433 C434 1.377 . S
C434 H414 0.953 . S
C434 C433 1.377 . S
C434 C435 1.369 . S
C435 H415 0.945 . S
C435 C430 1.385 . S
C435 C434 1.369 . S
C436 C428 1.457 . S
C436 C437 1.372 . S
C436 C441 1.364 . S
C437 H416 0.952 . S
C437 C436 1.372 . S
C437 C438 1.389 . S
C438 H417 0.949 . S
C438 C437 1.389 . S
C438 C439 1.387 . S
C439 C438 1.387 . S
C439 C440 1.372 . S
C440 H418 0.950 . S
C440 C439 1.372 . S
C440 C441 1.379 . S
C441 H419 0.948 . S
C441 C436 1.364 . S
C441 C440 1.379 . S
C442 C411 1.383 . S
C442 C429 1.479 . S
C442 C443 1.398 . S
C443 C408 1.382 . S
C443 H420 0.951 . S
C443 C442 1.398 . S
C444 C445 1.384 . S
C444 H457 0.947 . S
C444 C479 1.382 . S
C445 C444 1.384 . S
C445 C446 1.378 . S
C446 C445 1.378 . S
C446 C447 1.378 . S
C446 H458 0.965 . S
C447 C446 1.378 . S
C447 H459 0.950 . S
C447 C478 1.383 . S
H448 C467 0.947 . S
H449 C468 0.946 1_655 S
H450 C470 0.953 . S
H451 C471 0.945 . S
H452 C473 0.952 . S
H453 C474 0.949 . S
H454 C476 0.950 . S
H455 C477 0.948 . S
H456 C479 0.951 . S
H457 C444 0.947 . S
H458 C446 0.965 . S
H459 C447 0.950 . S
N460 C463 1.416 . S
N460 C465 1.332 1_556 S
N461 C463 1.371 . S
N461 C464 1.372 . S
N462 C464 1.361 1_554 S
N462 C465 1.377 . S
C463 N460 1.416 . S
C463 N461 1.371 . S
C463 C466 1.480 . S
C464 N461 1.372 . S
C464 N462 1.361 1_556 S
C464 C472 1.458 1_556 S
C465 N460 1.332 1_554 S
C465 N462 1.377 . S
C465 C478 1.479 . S
C466 C463 1.480 . S
C466 C467 1.383 . S
C466 C471 1.385 . S
C467 H448 0.947 . S
C467 C466 1.383 . S
C467 C468 1.388 . S
C468 H449 0.946 1_455 S
C468 C467 1.388 . S
C468 C469 1.384 . S
C469 C468 1.384 . S
C469 C470 1.377 . S
C470 H450 0.953 . S
C470 C469 1.377 . S
C470 C471 1.369 . S
C471 H451 0.945 . S
C471 C466 1.385 . S
C471 C470 1.369 . S
C472 C464 1.458 1_554 S
C472 C473 1.342 1_554 S
C472 C477 1.393 . S
C473 H452 0.952 . S
C473 C472 1.342 1_556 S
C473 C474 1.389 . S
C474 H453 0.949 . S
C474 C473 1.389 . S
C474 C475 1.387 1_556 S
C475 C474 1.387 1_554 S
C475 C476 1.372 . S
C476 H454 0.950 . S
C476 C475 1.372 . S
C476 C477 1.379 . S
C477 H455 0.948 . S
C477 C472 1.393 . S
C477 C476 1.379 . S
C478 C447 1.383 . S
C478 C465 1.479 . S
C478 C479 1.398 . S
C479 C444 1.382 . S
C479 H456 0.951 . S
C479 C478 1.398 . S
C480 C481 1.384 . S
C480 H493 0.947 . S
C480 C515 1.382 . S
C481 C480 1.384 . S
C481 C482 1.378 . S
C482 C481 1.378 . S
C482 C483 1.378 . S
C482 H494 0.952 1_655 S
C483 C482 1.378 . S
C483 H495 0.950 . S
C483 C514 1.383 . S
H484 C503 0.947 . S
H485 C504 0.946 . S
H486 C506 0.953 . S
H487 C507 0.945 . S
H488 C509 0.952 . S
H489 C510 0.949 . S
H490 C512 0.950 . S
H491 C513 0.948 . S
H492 C515 0.951 . S
H493 C480 0.947 . S
H494 C482 0.952 1_455 S
H495 C483 0.950 . S
N496 C499 1.382 . S
N496 C501 1.363 . S
N497 C499 1.371 . S
N497 C500 1.372 . S
N498 C500 1.361 . S
N498 C501 1.377 . S
C499 N496 1.382 . S
C499 N497 1.371 . S
C499 C502 1.480 . S
C500 N497 1.372 . S
C500 N498 1.361 . S
C500 C508 1.457 . S
C501 N496 1.363 . S
C501 N498 1.377 . S
C501 C514 1.479 . S
C502 C499 1.480 . S
C502 C503 1.383 . S
C502 C507 1.385 . S
C503 H484 0.947 . S
C503 C502 1.383 . S
C503 C504 1.388 . S
C504 H485 0.946 . S
C504 C503 1.388 . S
C504 C505 1.384 . S
C505 C504 1.384 . S
C505 C506 1.377 . S
C506 H486 0.953 . S
C506 C505 1.377 . S
C506 C507 1.369 . S
C507 H487 0.945 . S
C507 C502 1.385 . S
C507 C506 1.369 . S
C508 C500 1.457 . S
C508 C509 1.372 . S
C508 C513 1.364 . S
C509 H488 0.952 . S
C509 C508 1.372 . S
C509 C510 1.389 . S
C510 H489 0.949 . S
C510 C509 1.389 . S
C510 C511 1.387 . S
C511 C510 1.387 . S
C511 C512 1.372 . S
C512 H490 0.950 . S
C512 C511 1.372 . S
C512 C513 1.379 . S
C513 H491 0.948 . S
C513 C508 1.364 . S
C513 C512 1.379 . S
C514 C483 1.383 . S
C514 C501 1.479 . S
C514 C515 1.398 . S
C515 C480 1.382 . S
C515 H492 0.951 . S
C515 C514 1.398 . S
C516 C517 1.384 . S
C516 H529 0.947 . S
C516 C551 1.382 . S
C517 C516 1.384 . S
C517 C518 1.378 . S
C518 C517 1.378 . S
C518 C519 1.378 . S
C518 H530 0.952 . S
C519 C518 1.378 . S
C519 H531 0.950 . S
C519 C550 1.383 . S
H520 C539 0.947 . S
H521 C540 0.946 . S
H522 C542 0.953 . S
H523 C543 0.945 . S
H524 C545 0.952 . S
H525 C546 0.949 . S
H526 C548 0.950 . S
H527 C549 0.948 . S
H528 C551 0.951 . S
H529 C516 0.947 . S
H530 C518 0.952 . S
H531 C519 0.950 . S
N532 C535 1.382 1_556 S
N532 C537 1.363 . S
N533 C535 1.371 . S
N533 C536 1.372 . S
N534 C536 1.361 1_556 S
N534 C537 1.377 . S
C535 N532 1.382 1_554 S
C535 N533 1.371 . S
C535 C538 1.480 . S
C536 N533 1.372 . S
C536 N534 1.361 1_554 S
C536 C544 1.457 . S
C537 N532 1.363 . S
C537 N534 1.377 . S
C537 C550 1.479 . S
C538 C535 1.480 . S
C538 C539 1.383 . S
C538 C543 1.385 . S
C539 H520 0.947 . S
C539 C538 1.383 . S
C539 C540 1.388 . S
C540 H521 0.946 . S
C540 C539 1.388 . S
C540 C541 1.384 . S
C541 C540 1.384 . S
C541 C542 1.377 . S
C542 H522 0.953 . S
C542 C541 1.377 . S
C542 C543 1.369 . S
C543 H523 0.945 . S
C543 C538 1.385 . S
C543 C542 1.369 . S
C544 C536 1.457 . S
C544 C545 1.372 . S
C544 C549 1.364 1_554 S
C545 H524 0.952 . S
C545 C544 1.372 . S
C545 C546 1.389 . S
C546 H525 0.949 . S
C546 C545 1.389 . S
C546 C547 1.387 . S
C547 C546 1.387 . S
C547 C548 1.372 1_554 S
C548 H526 0.950 . S
C548 C547 1.372 1_556 S
C548 C549 1.379 . S
C549 H527 0.948 . S
C549 C544 1.364 1_556 S
C549 C548 1.379 . S
C550 C519 1.383 . S
C550 C537 1.479 . S
C550 C551 1.398 . S
C551 C516 1.382 . S
C551 H528 0.951 . S
C551 C550 1.398 . S
C552 C553 1.384 . S
C552 H565 0.947 . S
C552 C587 1.382 . S
C553 C552 1.384 . S
C553 C554 1.378 . S
C554 C553 1.378 . S
C554 C555 1.378 . S
C554 H566 0.952 . S
C555 C554 1.378 . S
C555 H567 0.950 . S
C555 C586 1.383 . S
H556 C575 0.947 . S
H557 C576 0.946 . S
H558 C578 0.953 . S
H559 C579 0.945 . S
H560 C581 0.952 . S
H561 C582 0.949 . S
H562 C584 0.950 . S
H563 C585 0.948 . S
H564 C587 0.951 . S
H565 C552 0.947 . S
H566 C554 0.952 . S
H567 C555 0.950 . S
N568 C571 1.382 . S
N568 C573 1.363 . S
N569 C571 1.371 . S
N569 C572 1.372 . S
N570 C572 1.361 . S
N570 C573 1.377 . S
C571 N568 1.382 . S
C571 N569 1.371 . S
C571 C574 1.480 . S
C572 N569 1.372 . S
C572 N570 1.361 . S
C572 C580 1.457 . S
C573 N568 1.363 . S
C573 N570 1.377 . S
C573 C586 1.479 . S
C574 C571 1.480 . S
C574 C575 1.383 . S
C574 C579 1.385 . S
C575 H556 0.947 . S
C575 C574 1.383 . S
C575 C576 1.388 . S
C576 H557 0.946 . S
C576 C575 1.388 . S
C576 C577 1.384 . S
C577 C576 1.384 . S
C577 C578 1.377 . S
C578 H558 0.953 . S
C578 C577 1.377 . S
C578 C579 1.369 . S
C579 H559 0.945 . S
C579 C574 1.385 . S
C579 C578 1.369 . S
C580 C572 1.457 . S
C580 C581 1.372 . S
C580 C585 1.364 . S
C581 H560 0.952 . S
C581 C580 1.372 . S
C581 C582 1.389 . S
C582 H561 0.949 . S
C582 C581 1.389 . S
C582 C583 1.387 . S
C583 C582 1.387 . S
C583 C584 1.372 . S
C584 H562 0.950 . S
C584 C583 1.372 . S
C584 C585 1.379 . S
C585 H563 0.948 . S
C585 C580 1.364 . S
C585 C584 1.379 . S
C586 C555 1.383 . S
C586 C573 1.479 . S
C586 C587 1.398 . S
C587 C552 1.382 . S
C587 H564 0.951 . S
C587 C586 1.398 . S
C588 C589 1.384 . S
C588 H601 0.947 . S
C588 C623 1.382 . S
C589 C588 1.384 . S
C589 C590 1.378 . S
C590 C589 1.378 . S
C590 C591 1.378 . S
C590 H602 0.976 . S
C591 C590 1.378 . S
C591 H603 0.950 . S
C591 C622 1.383 . S
H592 C611 0.947 . S
H593 C612 0.946 1_565 S
H594 C614 0.953 . S
H595 C615 0.945 . S
H596 C617 0.952 . S
H597 C618 0.949 . S
H598 C620 0.950 . S
H599 C621 0.948 . S
H600 C623 0.951 . S
H601 C588 0.947 . S
H602 C590 0.976 . S
H603 C591 0.950 . S
N604 C607 1.416 . S
N604 C609 1.332 1_655 S
N605 C607 1.371 . S
N605 C608 1.372 . S
N606 C608 1.361 1_455 S
N606 C609 1.377 . S
C607 N604 1.416 . S
C607 N605 1.371 . S
C607 C610 1.480 . S
C608 N605 1.372 . S
C608 N606 1.361 1_655 S
C608 C616 1.458 1_655 S
C609 N604 1.332 1_455 S
C609 N606 1.377 . S
C609 C622 1.479 . S
C610 C607 1.480 . S
C610 C611 1.383 . S
C610 C615 1.385 . S
C611 H592 0.947 . S
C611 C610 1.383 . S
C611 C612 1.388 . S
C612 H593 0.946 1_545 S
C612 C611 1.388 . S
C612 C613 1.384 . S
C613 C612 1.384 . S
C613 C614 1.377 . S
C614 H594 0.953 . S
C614 C613 1.377 . S
C614 C615 1.369 . S
C615 H595 0.945 . S
C615 C610 1.385 . S
C615 C614 1.369 . S
C616 C608 1.458 1_455 S
C616 C617 1.341 1_455 S
C616 C621 1.394 . S
C617 H596 0.952 . S
C617 C616 1.341 1_655 S
C617 C618 1.389 . S
C618 H597 0.949 . S
C618 C617 1.389 . S
C618 C619 1.387 1_655 S
C619 C618 1.387 1_455 S
C619 C620 1.372 . S
C620 H598 0.950 . S
C620 C619 1.372 . S
C620 C621 1.379 . S
C621 H599 0.948 . S
C621 C616 1.394 . S
C621 C620 1.379 . S
C622 C591 1.383 . S
C622 C609 1.479 . S
C622 C623 1.398 . S
C623 C588 1.382 . S
C623 H600 0.951 . S
C623 C622 1.398 . S
C624 C625 1.384 . S
C624 H637 0.947 . S
C624 C659 1.382 . S
C625 C624 1.384 . S
C625 C626 1.378 . S
C626 C625 1.378 . S
C626 C627 1.378 . S
C626 H638 0.952 1_565 S
C627 C626 1.378 . S
C627 H639 0.950 . S
C627 C658 1.383 . S
H628 C647 0.947 . S
H629 C648 0.946 . S
H630 C650 0.953 . S
H631 C651 0.945 . S
H632 C653 0.952 . S
H633 C654 0.949 . S
H634 C656 0.950 . S
H635 C657 0.948 . S
H636 C659 0.951 . S
H637 C624 0.947 . S
H638 C626 0.952 1_545 S
H639 C627 0.950 . S
N640 C643 1.382 . S
N640 C645 1.363 . S
N641 C643 1.371 . S
N641 C644 1.372 . S
N642 C644 1.361 . S
N642 C645 1.377 . S
C643 N640 1.382 . S
C643 N641 1.371 . S
C643 C646 1.480 . S
C644 N641 1.372 . S
C644 N642 1.361 . S
C644 C652 1.457 . S
C645 N640 1.363 . S
C645 N642 1.377 . S
C645 C658 1.479 . S
C646 C643 1.480 . S
C646 C647 1.383 . S
C646 C651 1.385 . S
C647 H628 0.947 . S
C647 C646 1.383 . S
C647 C648 1.388 . S
C648 H629 0.946 . S
C648 C647 1.388 . S
C648 C649 1.384 . S
C649 C648 1.384 . S
C649 C650 1.377 . S
C650 H630 0.953 . S
C650 C649 1.377 . S
C650 C651 1.369 . S
C651 H631 0.945 . S
C651 C646 1.385 . S
C651 C650 1.369 . S
C652 C644 1.457 . S
C652 C653 1.372 . S
C652 C657 1.364 . S
C653 H632 0.952 . S
C653 C652 1.372 . S
C653 C654 1.389 . S
C654 H633 0.949 . S
C654 C653 1.389 . S
C654 C655 1.387 . S
C655 C654 1.387 . S
C655 C656 1.372 . S
C656 H634 0.950 . S
C656 C655 1.372 . S
C656 C657 1.379 . S
C657 H635 0.948 . S
C657 C652 1.364 . S
C657 C656 1.379 . S
C658 C627 1.383 . S
C658 C645 1.479 . S
C658 C659 1.398 . S
C659 C624 1.382 . S
C659 H636 0.951 . S
C659 C658 1.398 . S
C660 C661 1.384 . S
C660 H673 0.947 . S
C660 C695 1.382 . S
C661 C660 1.384 . S
C661 C662 1.378 . S
C662 C661 1.378 . S
C662 C663 1.378 . S
C662 H674 0.952 . S
C663 C662 1.378 . S
C663 H675 0.950 . S
C663 C694 1.383 . S
H664 C683 0.947 . S
H665 C684 0.946 . S
H666 C686 0.953 . S
H667 C687 0.945 . S
H668 C689 0.952 . S
H669 C690 0.949 . S
H670 C692 0.950 . S
H671 C693 0.948 . S
H672 C695 0.951 . S
H673 C660 0.947 . S
H674 C662 0.952 . S
H675 C663 0.950 . S
N676 C679 1.382 1_655 S
N676 C681 1.363 . S
N677 C679 1.371 . S
N677 C680 1.372 . S
N678 C680 1.361 1_655 S
N678 C681 1.377 . S
C679 N676 1.382 1_455 S
C679 N677 1.371 . S
C679 C682 1.480 . S
C680 N677 1.372 . S
C680 N678 1.361 1_455 S
C680 C688 1.457 . S
C681 N676 1.363 . S
C681 N678 1.377 . S
C681 C694 1.479 . S
C682 C679 1.480 . S
C682 C683 1.383 . S
C682 C687 1.385 . S
C683 H664 0.947 . S
C683 C682 1.383 . S
C683 C684 1.388 . S
C684 H665 0.946 . S
C684 C683 1.388 . S
C684 C685 1.384 . S
C685 C684 1.384 . S
C685 C686 1.377 . S
C686 H666 0.953 . S
C686 C685 1.377 . S
C686 C687 1.369 . S
C687 H667 0.945 . S
C687 C682 1.385 . S
C687 C686 1.369 . S
C688 C680 1.457 . S
C688 C689 1.372 . S
C688 C693 1.364 1_455 S
C689 H668 0.952 . S
C689 C688 1.372 . S
C689 C690 1.389 . S
C690 H669 0.949 . S
C690 C689 1.389 . S
C690 C691 1.387 . S
C691 C690 1.387 . S
C691 C692 1.372 1_455 S
C692 H670 0.950 . S
C692 C691 1.372 1_655 S
C692 C693 1.379 . S
C693 H671 0.948 . S
C693 C688 1.364 1_655 S
C693 C692 1.379 . S
C694 C663 1.383 . S
C694 C681 1.479 . S
C694 C695 1.398 . S
C695 C660 1.382 . S
C695 H672 0.951 . S
C695 C694 1.398 . S
C696 C697 1.384 . S
C696 H709 0.947 . S
C696 C731 1.382 . S
C697 C696 1.384 . S
C697 C698 1.378 . S
C698 C697 1.378 . S
C698 C699 1.378 . S
C698 H710 0.952 . S
C699 C698 1.378 . S
C699 H711 0.950 . S
C699 C730 1.383 . S
H700 C719 0.947 . S
H701 C720 0.946 . S
H702 C722 0.953 . S
H703 C723 0.945 . S
H704 C725 0.952 . S
H705 C726 0.949 . S
H706 C728 0.950 . S
H707 C729 0.948 . S
H708 C731 0.951 . S
H709 C696 0.947 . S
H710 C698 0.952 . S
H711 C699 0.950 . S
N712 C715 1.382 . S
N712 C717 1.363 . S
N713 C715 1.371 . S
N713 C716 1.372 . S
N714 C716 1.361 . S
N714 C717 1.377 . S
C715 N712 1.382 . S
C715 N713 1.371 . S
C715 C718 1.480 . S
C716 N713 1.372 . S
C716 N714 1.361 . S
C716 C724 1.457 . S
C717 N712 1.363 . S
C717 N714 1.377 . S
C717 C730 1.479 . S
C718 C715 1.480 . S
C718 C719 1.383 . S
C718 C723 1.385 . S
C719 H700 0.947 . S
C719 C718 1.383 . S
C719 C720 1.388 . S
C720 H701 0.946 . S
C720 C719 1.388 . S
C720 C721 1.384 . S
C721 C720 1.384 . S
C721 C722 1.377 . S
C722 H702 0.953 . S
C722 C721 1.377 . S
C722 C723 1.369 . S
C723 H703 0.945 . S
C723 C718 1.385 . S
C723 C722 1.369 . S
C724 C716 1.457 . S
C724 C725 1.372 . S
C724 C729 1.364 . S
C725 H704 0.952 . S
C725 C724 1.372 . S
C725 C726 1.389 . S
C726 H705 0.949 . S
C726 C725 1.389 . S
C726 C727 1.387 . S
C727 C726 1.387 . S
C727 C728 1.372 . S
C728 H706 0.950 . S
C728 C727 1.372 . S
C728 C729 1.379 . S
C729 H707 0.948 . S
C729 C724 1.364 . S
C729 C728 1.379 . S
C730 C699 1.383 . S
C730 C717 1.479 . S
C730 C731 1.398 . S
C731 C696 1.382 . S
C731 H708 0.951 . S
C731 C730 1.398 . S
C732 C733 1.384 . S
C732 H745 0.947 . S
C732 C767 1.382 . S
C733 C732 1.384 . S
C733 C734 1.378 . S
C734 C733 1.378 . S
C734 C735 1.378 . S
C734 H746 0.952 1_554 S
C735 C734 1.378 . S
C735 H747 0.950 . S
C735 C766 1.383 . S
H736 C755 0.947 . S
H737 C756 0.946 . S
H738 C758 0.953 . S
H739 C759 0.945 . S
H740 C761 0.952 . S
H741 C762 0.949 . S
H742 C764 0.950 . S
H743 C765 0.948 . S
H744 C767 0.951 . S
H745 C732 0.947 . S
H746 C734 0.952 1_556 S
H747 C735 0.950 . S
N748 C751 1.382 . S
N748 C753 1.363 . S
N749 C751 1.371 . S
N749 C752 1.372 . S
N750 C752 1.361 . S
N750 C753 1.377 . S
C751 N748 1.382 . S
C751 N749 1.371 . S
C751 C754 1.480 . S
C752 N749 1.372 . S
C752 N750 1.361 . S
C752 C760 1.457 . S
C753 N748 1.363 . S
C753 N750 1.377 . S
C753 C766 1.479 . S
C754 C751 1.480 . S
C754 C755 1.383 . S
C754 C759 1.385 . S
C755 H736 0.947 . S
C755 C754 1.383 . S
C755 C756 1.388 . S
C756 H737 0.946 . S
C756 C755 1.388 . S
C756 C757 1.384 . S
C757 C756 1.384 . S
C757 C758 1.377 . S
C758 H738 0.953 . S
C758 C757 1.377 . S
C758 C759 1.369 . S
C759 H739 0.945 . S
C759 C754 1.385 . S
C759 C758 1.369 . S
C760 C752 1.457 . S
C760 C761 1.372 . S
C760 C765 1.364 . S
C761 H740 0.952 . S
C761 C760 1.372 . S
C761 C762 1.389 . S
C762 H741 0.949 . S
C762 C761 1.389 . S
C762 C763 1.387 . S
C763 C762 1.387 . S
C763 C764 1.372 . S
C764 H742 0.950 . S
C764 C763 1.372 . S
C764 C765 1.379 . S
C765 H743 0.948 . S
C765 C760 1.364 . S
C765 C764 1.379 . S
C766 C735 1.383 . S
C766 C753 1.479 . S
C766 C767 1.398 . S
C767 C732 1.382 . S
C767 H744 0.951 . S
C767 C766 1.398 . S
C768 C769 1.384 . S
C768 H781 0.947 . S
C768 C803 1.382 . S
C769 C768 1.384 . S
C769 C770 1.378 . S
C770 C769 1.378 . S
C770 C771 1.378 . S
C770 H782 0.952 . S
C771 C770 1.378 . S
C771 H783 0.950 . S
C771 C802 1.383 . S
H772 C791 0.947 . S
H773 C792 0.946 . S
H774 C794 0.953 . S
H775 C795 0.945 . S
H776 C797 0.952 . S
H777 C798 0.949 . S
H778 C800 0.950 . S
H779 C801 0.948 . S
H780 C803 0.951 . S
H781 C768 0.947 . S
H782 C770 0.952 . S
H783 C771 0.950 . S
N784 C787 1.382 1_545 S
N784 C789 1.363 . S
N785 C787 1.371 . S
N785 C788 1.372 . S
N786 C788 1.361 1_545 S
N786 C789 1.377 . S
C787 N784 1.382 1_565 S
C787 N785 1.371 . S
C787 C790 1.480 . S
C788 N785 1.372 . S
C788 N786 1.361 1_565 S
C788 C796 1.457 . S
C789 N784 1.363 . S
C789 N786 1.377 . S
C789 C802 1.479 . S
C790 C787 1.480 . S
C790 C791 1.383 . S
C790 C795 1.385 . S
C791 H772 0.947 . S
C791 C790 1.383 . S
C791 C792 1.388 . S
C792 H773 0.946 . S
C792 C791 1.388 . S
C792 C793 1.384 . S
C793 C792 1.384 . S
C793 C794 1.377 . S
C794 H774 0.953 . S
C794 C793 1.377 . S
C794 C795 1.369 . S
C795 H775 0.945 . S
C795 C790 1.385 . S
C795 C794 1.369 . S
C796 C788 1.457 . S
C796 C797 1.372 . S
C796 C801 1.364 1_565 S
C797 H776 0.952 . S
C797 C796 1.372 . S
C797 C798 1.389 . S
C798 H777 0.949 . S
C798 C797 1.389 . S
C798 C799 1.387 . S
C799 C798 1.387 . S
C799 C800 1.372 1_565 S
C800 H778 0.950 . S
C800 C799 1.372 1_545 S
C800 C801 1.379 . S
C801 H779 0.948 . S
C801 C796 1.364 1_545 S
C801 C800 1.379 . S
C802 C771 1.383 . S
C802 C789 1.479 . S
C802 C803 1.398 . S
C803 C768 1.382 . S
C803 H780 0.951 . S
C803 C802 1.398 . S
C804 C805 1.384 . S
C804 H817 0.947 . S
C804 C839 1.382 . S
C805 C804 1.384 . S
C805 C806 1.378 . S
C806 C805 1.378 . S
C806 C807 1.378 . S
C806 H818 0.956 . S
C807 C806 1.378 . S
C807 H819 0.950 . S
C807 C838 1.383 . S
H808 C827 0.947 . S
H809 C828 0.946 1_554 S
H810 C830 0.953 . S
H811 C831 0.945 . S
H812 C833 0.952 . S
H813 C834 0.949 . S
H814 C836 0.950 . S
H815 C837 0.948 . S
H816 C839 0.951 . S
H817 C804 0.947 . S
H818 C806 0.956 . S
H819 C807 0.950 . S
N820 C823 1.384 . S
N820 C825 1.361 1_545 S
N821 C823 1.371 . S
N821 C824 1.376 . S
N822 C824 1.356 1_565 S
N822 C825 1.377 . S
C823 N820 1.384 . S
C823 N821 1.371 . S
C823 C826 1.480 . S
C824 N821 1.376 . S
C824 N822 1.356 1_545 S
C824 C832 1.457 1_545 S
C825 N820 1.361 1_565 S
C825 N822 1.377 . S
C825 C838 1.479 . S
C826 C823 1.480 . S
C826 C827 1.383 . S
C826 C831 1.385 . S
C827 H808 0.947 . S
C827 C826 1.383 . S
C827 C828 1.388 . S
C828 H809 0.946 1_556 S
C828 C827 1.388 . S
C828 C829 1.384 . S
C829 C828 1.384 . S
C829 C830 1.377 . S
C830 H810 0.953 . S
C830 C829 1.377 . S
C830 C831 1.369 . S
C831 H811 0.945 . S
C831 C826 1.385 . S
C831 C830 1.369 . S
C832 C824 1.457 1_565 S
C832 C833 1.372 1_565 S
C832 C837 1.364 . S
C833 H812 0.952 . S
C833 C832 1.372 1_545 S
C833 C834 1.389 . S
C834 H813 0.949 . S
C834 C833 1.389 . S
C834 C835 1.387 1_545 S
C835 C834 1.387 1_565 S
C835 C836 1.372 . S
C836 H814 0.950 . S
C836 C835 1.372 . S
C836 C837 1.379 . S
C837 H815 0.948 . S
C837 C832 1.364 . S
C837 C836 1.379 . S
C838 C807 1.383 . S
C838 C825 1.479 . S
C838 C839 1.398 . S
C839 C804 1.382 . S
C839 H816 0.951 . S
C839 C838 1.398 . S
C840 C841 1.384 . S
C840 H853 0.947 . S
C840 C875 1.382 . S
C841 C840 1.384 . S
C841 C842 1.378 . S
C842 C841 1.378 . S
C842 C843 1.378 . S
C842 H854 0.952 . S
C843 C842 1.378 . S
C843 H855 0.950 . S
C843 C874 1.383 . S
H844 C863 0.947 . S
H845 C864 0.946 . S
H846 C866 0.953 . S
H847 C867 0.945 . S
H848 C869 0.952 . S
H849 C870 0.949 . S
H850 C872 0.950 . S
H851 C873 0.948 . S
H852 C875 0.951 . S
H853 C840 0.947 . S
H854 C842 0.952 . S
H855 C843 0.950 . S
N856 C859 1.382 . S
N856 C861 1.363 . S
N857 C859 1.371 . S
N857 C860 1.372 . S
N858 C860 1.361 . S
N858 C861 1.377 . S
C859 N856 1.382 . S
C859 N857 1.371 . S
C859 C862 1.480 . S
C860 N857 1.372 . S
C860 N858 1.361 . S
C860 C868 1.457 . S
C861 N856 1.363 . S
C861 N858 1.377 . S
C861 C874 1.479 . S
C862 C859 1.480 . S
C862 C863 1.383 . S
C862 C867 1.385 . S
C863 H844 0.947 . S
C863 C862 1.383 . S
C863 C864 1.388 . S
C864 H845 0.946 . S
C864 C863 1.388 . S
C864 C865 1.384 . S
C865 C864 1.384 . S
C865 C866 1.377 . S
C866 H846 0.953 . S
C866 C865 1.377 . S
C866 C867 1.369 . S
C867 H847 0.945 . S
C867 C862 1.385 . S
C867 C866 1.369 . S
C868 C860 1.457 . S
C868 C869 1.372 . S
C868 C873 1.364 . S
C869 H848 0.952 . S
C869 C868 1.372 . S
C869 C870 1.389 . S
C870 H849 0.949 . S
C870 C869 1.389 . S
C870 C871 1.387 . S
C871 C870 1.387 . S
C871 C872 1.372 . S
C872 H850 0.950 . S
C872 C871 1.372 . S
C872 C873 1.379 . S
C873 H851 0.948 . S
C873 C868 1.364 . S
C873 C872 1.379 . S
C874 C843 1.383 . S
C874 C861 1.479 . S
C874 C875 1.398 . S
C875 C840 1.382 . S
C875 H852 0.951 . S
C875 C874 1.398 . S
C876 C877 1.384 . S
C876 H889 0.947 . S
C876 C911 1.382 . S
C877 C876 1.384 . S
C877 C878 1.378 . S
C878 C877 1.378 . S
C878 C879 1.378 . S
C878 H890 0.964 . S
C879 C878 1.378 . S
C879 H891 0.950 . S
C879 C910 1.383 . S
H880 C899 0.947 . S
H881 C900 0.946 1_455 S
H882 C902 0.953 . S
H883 C903 0.945 . S
H884 C905 0.952 . S
H885 C906 0.949 . S
H886 C908 0.950 . S
H887 C909 0.948 . S
H888 C911 0.951 . S
H889 C876 0.947 . S
H890 C878 0.964 . S
H891 C879 0.950 . S
N892 C895 1.384 . S
N892 C897 1.362 1_554 S
N893 C895 1.371 . S
N893 C896 1.377 . S
N894 C896 1.355 1_556 S
N894 C897 1.377 . S
C895 N892 1.384 . S
C895 N893 1.371 . S
C895 C898 1.480 . S
C896 N893 1.377 . S
C896 N894 1.355 1_554 S
C896 C904 1.457 1_554 S
C897 N892 1.362 1_556 S
C897 N894 1.377 . S
C897 C910 1.479 . S
C898 C895 1.480 . S
C898 C899 1.383 . S
C898 C903 1.385 . S
C899 H880 0.947 . S
C899 C898 1.383 . S
C899 C900 1.388 . S
C900 H881 0.946 1_655 S
C900 C899 1.388 . S
C900 C901 1.384 . S
C901 C900 1.384 . S
C901 C902 1.377 . S
C902 H882 0.953 . S
C902 C901 1.377 . S
C902 C903 1.369 . S
C903 H883 0.945 . S
C903 C898 1.385 . S
C903 C902 1.369 . S
C904 C896 1.457 1_556 S
C904 C905 1.372 1_556 S
C904 C909 1.364 . S
C905 H884 0.952 . S
C905 C904 1.372 1_554 S
C905 C906 1.389 . S
C906 H885 0.949 . S
C906 C905 1.389 . S
C906 C907 1.387 1_554 S
C907 C906 1.387 1_556 S
C907 C908 1.372 . S
C908 H886 0.950 . S
C908 C907 1.372 . S
C908 C909 1.379 . S
C909 H887 0.948 . S
C909 C904 1.364 . S
C909 C908 1.379 . S
C910 C879 1.383 . S
C910 C897 1.479 . S
C910 C911 1.398 . S
C911 C876 1.382 . S
C911 H888 0.951 . S
C911 C910 1.398 . S
C912 C913 1.384 . S
C912 H925 0.947 . S
C912 C947 1.382 . S
C913 C912 1.384 . S
C913 C914 1.378 . S
C914 C913 1.378 . S
C914 C915 1.378 . S
C914 H926 0.952 1_455 S
C915 C914 1.378 . S
C915 H927 0.950 . S
C915 C946 1.383 . S
H916 C935 0.947 . S
H917 C936 0.946 . S
H918 C938 0.953 . S
H919 C939 0.945 . S
H920 C941 0.952 . S
H921 C942 0.949 . S
H922 C944 0.950 . S
H923 C945 0.948 . S
H924 C947 0.951 . S
H925 C912 0.947 . S
H926 C914 0.952 1_655 S
H927 C915 0.950 . S
N928 C931 1.382 . S
N928 C933 1.363 . S
N929 C931 1.371 . S
N929 C932 1.372 . S
N930 C932 1.361 . S
N930 C933 1.377 . S
C931 N928 1.382 . S
C931 N929 1.371 . S
C931 C934 1.480 . S
C932 N929 1.372 . S
C932 N930 1.361 . S
C932 C940 1.457 . S
C933 N928 1.363 . S
C933 N930 1.377 . S
C933 C946 1.479 . S
C934 C931 1.480 . S
C934 C935 1.383 . S
C934 C939 1.385 . S
C935 H916 0.947 . S
C935 C934 1.383 . S
C935 C936 1.388 . S
C936 H917 0.946 . S
C936 C935 1.388 . S
C936 C937 1.384 . S
C937 C936 1.384 . S
C937 C938 1.377 . S
C938 H918 0.953 . S
C938 C937 1.377 . S
C938 C939 1.369 . S
C939 H919 0.945 . S
C939 C934 1.385 . S
C939 C938 1.369 . S
C940 C932 1.457 . S
C940 C941 1.372 . S
C940 C945 1.364 . S
C941 H920 0.952 . S
C941 C940 1.372 . S
C941 C942 1.389 . S
C942 H921 0.949 . S
C942 C941 1.389 . S
C942 C943 1.387 . S
C943 C942 1.387 . S
C943 C944 1.372 . S
C944 H922 0.950 . S
C944 C943 1.372 . S
C944 C945 1.379 . S
C945 H923 0.948 . S
C945 C940 1.364 . S
C945 C944 1.379 . S
C946 C915 1.383 . S
C946 C933 1.479 . S
C946 C947 1.398 . S
C947 C912 1.382 . S
C947 H924 0.951 . S
C947 C946 1.398 . S
C948 C949 1.384 . S
C948 H961 0.947 . S
C948 C983 1.382 . S
C949 C948 1.384 . S
C949 C950 1.378 . S
C950 C949 1.378 . S
C950 C951 1.378 . S
C950 H962 0.952 . S
C951 C950 1.378 . S
C951 H963 0.950 . S
C951 C982 1.383 . S
H952 C971 0.947 . S
H953 C972 0.946 . S
H954 C974 0.953 . S
H955 C975 0.945 . S
H956 C977 0.952 . S
H957 C978 0.949 . S
H958 C980 0.950 . S
H959 C981 0.948 . S
H960 C983 0.951 . S
H961 C948 0.947 . S
H962 C950 0.952 . S
H963 C951 0.950 . S
N964 C967 1.382 1_554 S
N964 C969 1.363 . S
N965 C967 1.371 . S
N965 C968 1.372 . S
N966 C968 1.361 1_554 S
N966 C969 1.377 . S
C967 N964 1.382 1_556 S
C967 N965 1.371 . S
C967 C970 1.480 . S
C968 N965 1.372 . S
C968 N966 1.361 1_556 S
C968 C976 1.457 . S
C969 N964 1.363 . S
C969 N966 1.377 . S
C969 C982 1.479 . S
C970 C967 1.480 . S
C970 C971 1.383 . S
C970 C975 1.385 . S
C971 H952 0.947 . S
C971 C970 1.383 . S
C971 C972 1.388 . S
C972 H953 0.946 . S
C972 C971 1.388 . S
C972 C973 1.384 . S
C973 C972 1.384 . S
C973 C974 1.377 . S
C974 H954 0.953 . S
C974 C973 1.377 . S
C974 C975 1.369 . S
C975 H955 0.945 . S
C975 C970 1.385 . S
C975 C974 1.369 . S
C976 C968 1.457 . S
C976 C977 1.372 . S
C976 C981 1.364 1_556 S
C977 H956 0.952 . S
C977 C976 1.372 . S
C977 C978 1.389 . S
C978 H957 0.949 . S
C978 C977 1.389 . S
C978 C979 1.387 . S
C979 C978 1.387 . S
C979 C980 1.372 1_556 S
C980 H958 0.950 . S
C980 C979 1.372 1_554 S
C980 C981 1.379 . S
C981 H959 0.948 . S
C981 C976 1.364 1_554 S
C981 C980 1.379 . S
C982 C951 1.383 . S
C982 C969 1.479 . S
C982 C983 1.398 . S
C983 C948 1.382 . S
C983 H960 0.951 . S
C983 C982 1.398 . S
C984 C985 1.384 . S
C984 H997 0.947 . S
C984 C1019 1.382 . S
C985 C984 1.384 . S
C985 C986 1.378 . S
C986 C985 1.378 . S
C986 C987 1.378 . S
C986 H998 0.952 . S
C987 C986 1.378 . S
C987 H999 0.950 . S
C987 C1018 1.383 . S
H988 C1007 0.947 . S
H989 C1008 0.946 . S
H990 C1010 0.953 . S
H991 C1011 0.945 . S
H992 C1013 0.952 . S
H993 C1014 0.949 . S
H994 C1016 0.950 . S
H995 C1017 0.948 . S
H996 C1019 0.951 . S
H997 C984 0.947 . S
H998 C986 0.952 . S
H999 C987 0.950 . S
N1000 C1003 1.382 . S
N1000 C1005 1.363 . S
N1001 C1003 1.371 . S
N1001 C1004 1.372 . S
N1002 C1004 1.361 . S
N1002 C1005 1.377 . S
C1003 N1000 1.382 . S
C1003 N1001 1.371 . S
C1003 C1006 1.480 . S
C1004 N1001 1.372 . S
C1004 N1002 1.361 . S
C1004 C1012 1.457 . S
C1005 N1000 1.363 . S
C1005 N1002 1.377 . S
C1005 C1018 1.479 . S
C1006 C1003 1.480 . S
C1006 C1007 1.383 . S
C1006 C1011 1.385 . S
C1007 H988 0.947 . S
C1007 C1006 1.383 . S
C1007 C1008 1.388 . S
C1008 H989 0.946 . S
C1008 C1007 1.388 . S
C1008 C1009 1.384 . S
C1009 C1008 1.384 . S
C1009 C1010 1.377 . S
C1010 H990 0.953 . S
C1010 C1009 1.377 . S
C1010 C1011 1.369 . S
C1011 H991 0.945 . S
C1011 C1006 1.385 . S
C1011 C1010 1.369 . S
C1012 C1004 1.457 . S
C1012 C1013 1.372 . S
C1012 C1017 1.364 . S
C1013 H992 0.952 . S
C1013 C1012 1.372 . S
C1013 C1014 1.389 . S
C1014 H993 0.949 . S
C1014 C1013 1.389 . S
C1014 C1015 1.387 . S
C1015 C1014 1.387 . S
C1015 C1016 1.372 . S
C1016 H994 0.950 . S
C1016 C1015 1.372 . S
C1016 C1017 1.379 . S
C1017 H995 0.948 . S
C1017 C1012 1.364 . S
C1017 C1016 1.379 . S
C1018 C987 1.383 . S
C1018 C1005 1.479 . S
C1018 C1019 1.398 . S
C1019 C984 1.382 . S
C1019 H996 0.951 . S
C1019 C1018 1.398 . S
C1020 C1021 1.384 . S
C1020 H1033 0.947 . S
C1020 C1055 1.382 . S
C1021 C1020 1.384 . S
C1021 C1022 1.378 . S
C1022 C1021 1.378 . S
C1022 C1023 1.378 . S
C1022 H1034 0.957 . S
C1023 C1022 1.378 . S
C1023 H1035 0.950 . S
C1023 C1054 1.383 . S
H1024 C1043 0.947 . S
H1025 C1044 0.946 1_545 S
H1026 C1046 0.953 . S
H1027 C1047 0.945 . S
H1028 C1049 0.952 . S
H1029 C1050 0.949 . S
H1030 C1052 0.950 . S
H1031 C1053 0.948 . S
H1032 C1055 0.951 . S
H1033 C1020 0.947 . S
H1034 C1022 0.957 . S
H1035 C1023 0.950 . S
N1036 C1039 1.384 . S
N1036 C1041 1.361 1_455 S
N1037 C1039 1.371 . S
N1037 C1040 1.377 . S
N1038 C1040 1.355 1_655 S
N1038 C1041 1.377 . S
C1039 N1036 1.384 . S
C1039 N1037 1.371 . S
C1039 C1042 1.480 . S
C1040 N1037 1.377 . S
C1040 N1038 1.355 1_455 S
C1040 C1048 1.457 1_455 S
C1041 N1036 1.361 1_655 S
C1041 N1038 1.377 . S
C1041 C1054 1.479 . S
C1042 C1039 1.480 . S
C1042 C1043 1.383 . S
C1042 C1047 1.385 . S
C1043 H1024 0.947 . S
C1043 C1042 1.383 . S
C1043 C1044 1.388 . S
C1044 H1025 0.946 1_565 S
C1044 C1043 1.388 . S
C1044 C1045 1.384 . S
C1045 C1044 1.384 . S
C1045 C1046 1.377 . S
C1046 H1026 0.953 . S
C1046 C1045 1.377 . S
C1046 C1047 1.369 . S
C1047 H1027 0.945 . S
C1047 C1042 1.385 . S
C1047 C1046 1.369 . S
C1048 C1040 1.457 1_655 S
C1048 C1049 1.372 1_655 S
C1048 C1053 1.364 . S
C1049 H1028 0.952 . S
C1049 C1048 1.372 1_455 S
C1049 C1050 1.389 . S
C1050 H1029 0.949 . S
C1050 C1049 1.389 . S
C1050 C1051 1.387 1_455 S
C1051 C1050 1.387 1_655 S
C1051 C1052 1.372 . S
C1052 H1030 0.950 . S
C1052 C1051 1.372 . S
C1052 C1053 1.379 . S
C1053 H1031 0.948 . S
C1053 C1048 1.364 . S
C1053 C1052 1.379 . S
C1054 C1023 1.383 . S
C1054 C1041 1.479 . S
C1054 C1055 1.398 . S
C1055 C1020 1.382 . S
C1055 H1032 0.951 . S
C1055 C1054 1.398 . S
C1056 C1057 1.384 . S
C1056 H1069 0.947 . S
C1056 C1091 1.382 . S
C1057 C1056 1.384 . S
C1057 C1058 1.378 . S
C1058 C1057 1.378 . S
C1058 C1059 1.378 . S
C1058 H1070 0.952 . S
C1059 C1058 1.378 . S
C1059 H1071 0.950 . S
C1059 C1090 1.383 . S
H1060 C1079 0.947 . S
H1061 C1080 0.946 1_565 S
H1062 C1082 0.953 . S
H1063 C1083 0.945 . S
H1064 C1085 0.952 . S
H1065 C1086 0.949 . S
H1066 C1088 0.950 . S
H1067 C1089 0.948 . S
H1068 C1091 0.951 . S
H1069 C1056 0.947 . S
H1070 C1058 0.952 . S
H1071 C1059 0.950 . S
N1072 C1075 1.382 . S
N1072 C1077 1.363 . S
N1073 C1075 1.371 . S
N1073 C1076 1.372 . S
N1074 C1076 1.361 . S
N1074 C1077 1.377 . S
C1075 N1072 1.382 . S
C1075 N1073 1.371 . S
C1075 C1078 1.480 . S
C1076 N1073 1.372 . S
C1076 N1074 1.361 . S
C1076 C1084 1.457 . S
C1077 N1072 1.363 . S
C1077 N1074 1.377 . S
C1077 C1090 1.479 . S
C1078 C1075 1.480 . S
C1078 C1079 1.383 . S
C1078 C1083 1.385 . S
C1079 H1060 0.947 . S
C1079 C1078 1.383 . S
C1079 C1080 1.388 . S
C1080 H1061 0.946 1_545 S
C1080 C1079 1.388 . S
C1080 C1081 1.384 . S
C1081 C1080 1.384 . S
C1081 C1082 1.377 . S
C1082 H1062 0.953 . S
C1082 C1081 1.377 . S
C1082 C1083 1.369 . S
C1083 H1063 0.945 . S
C1083 C1078 1.385 . S
C1083 C1082 1.369 . S
C1084 C1076 1.457 . S
C1084 C1085 1.372 . S
C1084 C1089 1.364 . S
C1085 H1064 0.952 . S
C1085 C1084 1.372 . S
C1085 C1086 1.389 . S
C1086 H1065 0.949 . S
C1086 C1085 1.389 . S
C1086 C1087 1.387 . S
C1087 C1086 1.387 . S
C1087 C1088 1.372 . S
C1088 H1066 0.950 . S
C1088 C1087 1.372 . S
C1088 C1089 1.379 . S
C1089 H1067 0.948 . S
C1089 C1084 1.364 . S
C1089 C1088 1.379 . S
C1090 C1059 1.383 . S
C1090 C1077 1.479 . S
C1090 C1091 1.398 . S
C1091 C1056 1.382 . S
C1091 H1068 0.951 . S
C1091 C1090 1.398 . S
C1092 C1093 1.384 . S
C1092 H1105 0.947 . S
C1092 C1127 1.382 . S
C1093 C1092 1.384 . S
C1093 C1094 1.378 . S
C1094 C1093 1.378 . S
C1094 C1095 1.378 . S
C1094 H1106 0.952 . S
C1095 C1094 1.378 . S
C1095 H1107 0.950 . S
C1095 C1126 1.383 . S
H1096 C1115 0.947 . S
H1097 C1116 0.946 . S
H1098 C1118 0.953 . S
H1099 C1119 0.945 . S
H1100 C1121 0.952 . S
H1101 C1122 0.949 . S
H1102 C1124 0.950 . S
H1103 C1125 0.948 . S
H1104 C1127 0.951 . S
H1105 C1092 0.947 . S
H1106 C1094 0.952 . S
H1107 C1095 0.950 . S
N1108 C1111 1.382 . S
N1108 C1113 1.363 1_455 S
N1109 C1111 1.371 . S
N1109 C1112 1.372 1_455 S
N1110 C1112 1.361 . S
N1110 C1113 1.377 . S
C1111 N1108 1.382 . S
C1111 N1109 1.371 . S
C1111 C1114 1.480 . S
C1112 N1109 1.372 1_655 S
C1112 N1110 1.361 . S
C1112 C1120 1.457 . S
C1113 N1108 1.363 1_655 S
C1113 N1110 1.377 . S
C1113 C1126 1.479 . S
C1114 C1111 1.480 . S
C1114 C1115 1.383 . S
C1114 C1119 1.385 . S
C1115 H1096 0.947 . S
C1115 C1114 1.383 . S
C1115 C1116 1.388 . S
C1116 H1097 0.946 . S
C1116 C1115 1.388 . S
C1116 C1117 1.384 . S
C1117 C1116 1.384 . S
C1117 C1118 1.377 . S
C1118 H1098 0.953 . S
C1118 C1117 1.377 . S
C1118 C1119 1.369 . S
C1119 H1099 0.945 . S
C1119 C1114 1.385 . S
C1119 C1118 1.369 . S
C1120 C1112 1.457 . S
C1120 C1121 1.372 1_655 S
C1120 C1125 1.364 . S
C1121 H1100 0.952 . S
C1121 C1120 1.372 1_455 S
C1121 C1122 1.389 . S
C1122 H1101 0.949 . S
C1122 C1121 1.389 . S
C1122 C1123 1.387 1_455 S
C1123 C1122 1.387 1_655 S
C1123 C1124 1.372 . S
C1124 H1102 0.950 . S
C1124 C1123 1.372 . S
C1124 C1125 1.379 . S
C1125 H1103 0.948 . S
C1125 C1120 1.364 . S
C1125 C1124 1.379 . S
C1126 C1095 1.383 . S
C1126 C1113 1.479 . S
C1126 C1127 1.398 . S
C1127 C1092 1.382 . S
C1127 H1104 0.951 . S
C1127 C1126 1.398 . S
C1128 C1129 1.369 . S
C1128 C1130 1.419 . S
C1128 H1132 0.930 . S
C1129 C1128 1.369 . S
C1129 C1138 1.429 . S
C1130 C1128 1.419 . S
C1130 C1131 1.363 . S
C1130 H1133 0.929 . S
C1131 C1130 1.363 . S
C1131 C1137 1.428 . S
H1132 C1128 0.930 . S
H1133 C1130 0.929 . S
S1134 N1135 1.613 . S
S1134 N1136 1.610 . S
N1135 S1134 1.613 . S
N1135 C1138 1.350 . S
N1136 S1134 1.610 . S
N1136 C1137 1.351 . S
C1137 C1131 1.428 . S
C1137 N1136 1.351 . S
C1137 C1138 1.434 . S
C1138 C1129 1.429 . S
C1138 N1135 1.350 . S
C1138 C1137 1.434 . S
C1139 C1140 1.369 . S
C1139 C1141 1.419 . S
C1139 H1143 0.930 . S
C1140 C1139 1.369 . S
C1140 C1149 1.429 . S
C1141 C1139 1.419 . S
C1141 C1142 1.363 . S
C1141 H1144 0.929 . S
C1142 C1141 1.363 . S
C1142 C1148 1.428 . S
H1143 C1139 0.930 . S
H1144 C1141 0.929 . S
S1145 N1146 1.613 . S
S1145 N1147 1.610 . S
N1146 S1145 1.613 . S
N1146 C1149 1.350 . S
N1147 S1145 1.610 . S
N1147 C1148 1.351 . S
C1148 C1142 1.428 . S
C1148 N1147 1.351 . S
C1148 C1149 1.434 . S
C1149 C1140 1.429 . S
C1149 N1146 1.350 . S
C1149 C1148 1.434 . S
C1150 C1151 1.369 . S
C1150 C1152 1.419 . S
C1150 H1154 0.930 . S
C1151 C1150 1.369 . S
C1151 C1160 1.429 . S
C1152 C1150 1.419 . S
C1152 C1153 1.363 . S
C1152 H1155 0.929 . S
C1153 C1152 1.363 . S
C1153 C1159 1.428 . S
H1154 C1150 0.930 . S
H1155 C1152 0.929 . S
S1156 N1157 1.613 . S
S1156 N1158 1.610 . S
N1157 S1156 1.613 . S
N1157 C1160 1.350 . S
N1158 S1156 1.610 . S
N1158 C1159 1.351 . S
C1159 C1153 1.428 . S
C1159 N1158 1.351 . S
C1159 C1160 1.434 . S
C1160 C1151 1.429 . S
C1160 N1157 1.350 . S
C1160 C1159 1.434 . S
C1161 C1162 1.369 . S
C1161 C1163 1.419 . S
C1161 H1165 0.930 . S
C1162 C1161 1.369 . S
C1162 C1171 1.429 . S
C1163 C1161 1.419 . S
C1163 C1164 1.363 . S
C1163 H1166 0.929 . S
C1164 C1163 1.363 . S
C1164 C1170 1.428 . S
H1165 C1161 0.930 . S
H1166 C1163 0.929 . S
S1167 N1168 1.613 . S
S1167 N1169 1.610 1_545 S
N1168 S1167 1.613 . S
N1168 C1171 1.350 1_545 S
N1169 S1167 1.610 1_565 S
N1169 C1170 1.351 . S
C1170 C1164 1.428 . S
C1170 N1169 1.351 . S
C1170 C1171 1.434 . S
C1171 C1162 1.429 . S
C1171 N1168 1.350 1_565 S
C1171 C1170 1.434 . S
C1172 C1173 1.369 . S
C1172 C1174 1.419 . S
C1172 H1176 0.930 . S
C1173 C1172 1.369 . S
C1173 C1182 1.429 . S
C1174 C1172 1.419 . S
C1174 C1175 1.363 . S
C1174 H1177 0.929 . S
C1175 C1174 1.363 . S
C1175 C1181 1.428 . S
H1176 C1172 0.930 . S
H1177 C1174 0.929 . S
S1178 N1179 1.613 . S
S1178 N1180 1.610 . S
N1179 S1178 1.613 . S
N1179 C1182 1.350 . S
N1180 S1178 1.610 . S
N1180 C1181 1.351 . S
C1181 C1175 1.428 . S
C1181 N1180 1.351 . S
C1181 C1182 1.434 . S
C1182 C1173 1.429 . S
C1182 N1179 1.350 . S
C1182 C1181 1.434 . S
C1183 C1184 1.369 1_554 S
C1183 C1185 1.430 . S
C1183 H1187 0.930 . S
C1184 C1183 1.369 1_556 S
C1184 C1193 1.429 . S
C1185 C1183 1.430 . S
C1185 C1186 1.321 1_554 S
C1185 H1188 0.963 . S
C1186 C1185 1.321 1_556 S
C1186 C1192 1.428 . S
H1187 C1183 0.930 . S
H1188 C1185 0.963 . S
S1189 N1190 1.613 . S
S1189 N1191 1.610 . S
N1190 S1189 1.613 . S
N1190 C1193 1.350 . S
N1191 S1189 1.610 . S
N1191 C1192 1.351 . S
C1192 C1186 1.428 . S
C1192 N1191 1.351 . S
C1192 C1193 1.434 . S
C1193 C1184 1.429 . S
C1193 N1190 1.350 . S
C1193 C1192 1.434 . S
C1194 C1195 1.369 . S
C1194 C1196 1.419 . S
C1194 H1198 0.930 . S
C1195 C1194 1.369 . S
C1195 C1204 1.429 . S
C1196 C1194 1.419 . S
C1196 C1197 1.363 . S
C1196 H1199 0.929 . S
C1197 C1196 1.363 . S
C1197 C1203 1.428 . S
H1198 C1194 0.930 . S
H1199 C1196 0.929 . S
S1200 N1201 1.613 . S
S1200 N1202 1.610 . S
N1201 S1200 1.613 . S
N1201 C1204 1.350 . S
N1202 S1200 1.610 . S
N1202 C1203 1.351 . S
C1203 C1197 1.428 . S
C1203 N1202 1.351 . S
C1203 C1204 1.434 . S
C1204 C1195 1.429 . S
C1204 N1201 1.350 . S
C1204 C1203 1.434 . S
C1205 C1206 1.369 . S
C1205 C1207 1.419 . S
C1205 H1209 0.930 . S
C1206 C1205 1.369 . S
C1206 C1215 1.429 1_554 S
C1207 C1205 1.419 . S
C1207 C1208 1.363 . S
C1207 H1210 0.929 . S
C1208 C1207 1.363 . S
C1208 C1214 1.428 1_554 S
H1209 C1205 0.930 . S
H1210 C1207 0.929 . S
S1211 N1212 1.613 . S
S1211 N1213 1.610 . S
N1212 S1211 1.613 . S
N1212 C1215 1.350 . S
N1213 S1211 1.610 . S
N1213 C1214 1.351 . S
C1214 C1208 1.428 1_556 S
C1214 N1213 1.351 . S
C1214 C1215 1.434 . S
C1215 C1206 1.429 1_556 S
C1215 N1212 1.350 . S
C1215 C1214 1.434 . S
C1216 C1217 1.369 . S
C1216 C1218 1.419 . S
C1216 H1220 0.930 . S
C1217 C1216 1.369 . S
C1217 C1226 1.429 . S
C1218 C1216 1.419 . S
C1218 C1219 1.363 . S
C1218 H1221 0.929 . S
C1219 C1218 1.363 . S
C1219 C1225 1.428 . S
H1220 C1216 0.930 . S
H1221 C1218 0.929 . S
S1222 N1223 1.613 . S
S1222 N1224 1.610 . S
N1223 S1222 1.613 . S
N1223 C1226 1.350 . S
N1224 S1222 1.610 . S
N1224 C1225 1.351 . S
C1225 C1219 1.428 . S
C1225 N1224 1.351 . S
C1225 C1226 1.434 . S
C1226 C1217 1.429 . S
C1226 N1223 1.350 . S
C1226 C1225 1.434 . S
C1227 C1228 1.369 . S
C1227 C1229 1.419 . S
C1227 H1231 0.930 . S
C1228 C1227 1.369 . S
C1228 C1237 1.429 1_655 S
C1229 C1227 1.419 . S
C1229 C1230 1.363 . S
C1229 H1232 0.929 . S
C1230 C1229 1.363 . S
C1230 C1236 1.428 . S
H1231 C1227 0.930 . S
H1232 C1229 0.929 . S
S1233 N1234 1.613 . S
S1233 N1235 1.610 . S
N1234 S1233 1.613 . S
N1234 C1237 1.350 . S
N1235 S1233 1.610 . S
N1235 C1236 1.351 1_455 S
C1236 C1230 1.428 . S
C1236 N1235 1.351 1_655 S
C1236 C1237 1.434 1_655 S
C1237 C1228 1.429 1_455 S
C1237 N1234 1.350 . S
C1237 C1236 1.434 1_455 S
C1238 C1239 1.369 . S
C1238 C1240 1.419 . S
C1238 H1242 0.930 . S
C1239 C1238 1.369 . S
C1239 C1248 1.429 . S
C1240 C1238 1.419 . S
C1240 C1241 1.363 . S
C1240 H1243 0.929 . S
C1241 C1240 1.363 . S
C1241 C1247 1.428 . S
H1242 C1238 0.930 . S
H1243 C1240 0.929 . S
S1244 N1245 1.613 . S
S1244 N1246 1.610 . S
N1245 S1244 1.613 . S
N1245 C1248 1.350 . S
N1246 S1244 1.610 . S
N1246 C1247 1.351 . S
C1247 C1241 1.428 . S
C1247 N1246 1.351 . S
C1247 C1248 1.434 . S
C1248 C1239 1.429 . S
C1248 N1245 1.350 . S
C1248 C1247 1.434 . S
C1249 C1250 1.369 . S
C1249 C1251 1.419 . S
C1249 H1253 0.930 . S
C1250 C1249 1.369 . S
C1250 C1259 1.429 . S
C1251 C1249 1.419 . S
C1251 C1252 1.363 . S
C1251 H1254 0.929 . S
C1252 C1251 1.363 . S
C1252 C1258 1.428 . S
H1253 C1249 0.930 . S
H1254 C1251 0.929 . S
S1255 N1256 1.613 . S
S1255 N1257 1.610 . S
N1256 S1255 1.613 . S
N1256 C1259 1.350 . S
N1257 S1255 1.610 . S
N1257 C1258 1.351 . S
C1258 C1252 1.428 . S
C1258 N1257 1.351 . S
C1258 C1259 1.434 . S
C1259 C1250 1.429 . S
C1259 N1256 1.350 . S
C1259 C1258 1.434 . S
C1260 C1261 1.369 . S
C1260 C1262 1.419 . S
C1260 H1264 0.930 . S
C1261 C1260 1.369 . S
C1261 C1270 1.429 . S
C1262 C1260 1.419 . S
C1262 C1263 1.363 . S
C1262 H1265 0.929 . S
C1263 C1262 1.363 . S
C1263 C1269 1.428 . S
H1264 C1260 0.930 . S
H1265 C1262 0.929 . S
S1266 N1267 1.613 . S
S1266 N1268 1.610 . S
N1267 S1266 1.613 . S
N1267 C1270 1.350 . S
N1268 S1266 1.610 . S
N1268 C1269 1.351 . S
C1269 C1263 1.428 . S
C1269 N1268 1.351 . S
C1269 C1270 1.434 . S
C1270 C1261 1.429 . S
C1270 N1267 1.350 . S
C1270 C1269 1.434 . S
C1271 C1272 1.369 . S
C1271 C1273 1.419 . S
C1271 H1275 0.930 . S
C1272 C1271 1.369 . S
C1272 C1281 1.429 . S
C1273 C1271 1.419 . S
C1273 C1274 1.363 . S
C1273 H1276 0.929 . S
C1274 C1273 1.363 . S
C1274 C1280 1.428 . S
H1275 C1271 0.930 . S
H1276 C1273 0.929 . S
S1277 N1278 1.613 . S
S1277 N1279 1.610 . S
N1278 S1277 1.613 . S
N1278 C1281 1.350 . S
N1279 S1277 1.610 . S
N1279 C1280 1.351 . S
C1280 C1274 1.428 . S
C1280 N1279 1.351 . S
C1280 C1281 1.434 . S
C1281 C1272 1.429 . S
C1281 N1278 1.350 . S
C1281 C1280 1.434 . S
C1282 C1283 1.369 . S
C1282 C1284 1.419 . S
C1282 H1286 0.930 1_565 S
C1283 C1282 1.369 . S
C1283 C1292 1.429 . S
C1284 C1282 1.419 . S
C1284 C1285 1.363 . S
C1284 H1287 0.929 1_565 S
C1285 C1284 1.363 . S
C1285 C1291 1.428 . S
H1286 C1282 0.930 1_545 S
H1287 C1284 0.929 1_545 S
S1288 N1289 1.613 . S
S1288 N1290 1.610 . S
N1289 S1288 1.613 . S
N1289 C1292 1.350 . S
N1290 S1288 1.610 . S
N1290 C1291 1.351 . S
C1291 C1285 1.428 . S
C1291 N1290 1.351 . S
C1291 C1292 1.434 . S
C1292 C1283 1.429 . S
C1292 N1289 1.350 . S
C1292 C1291 1.434 . S
C1293 C1294 1.369 . S
C1293 C1295 1.419 . S
C1293 H1297 0.930 . S
C1294 C1293 1.369 . S
C1294 C1303 1.429 1_545 S
C1295 C1293 1.419 . S
C1295 C1296 1.363 . S
C1295 H1298 0.929 . S
C1296 C1295 1.363 . S
C1296 C1302 1.428 1_545 S
H1297 C1293 0.930 . S
H1298 C1295 0.929 . S
S1299 N1300 1.613 . S
S1299 N1301 1.610 . S
N1300 S1299 1.613 . S
N1300 C1303 1.350 . S
N1301 S1299 1.610 . S
N1301 C1302 1.351 . S
C1302 C1296 1.428 1_565 S
C1302 N1301 1.351 . S
C1302 C1303 1.434 . S
C1303 C1294 1.429 1_565 S
C1303 N1300 1.350 . S
C1303 C1302 1.434 . S
C1304 C1305 1.369 . S
C1304 C1306 1.419 . S
C1304 H1308 0.930 . S
C1305 C1304 1.369 . S
C1305 C1314 1.429 . S
C1306 C1304 1.419 . S
C1306 C1307 1.363 . S
C1306 H1309 0.929 . S
C1307 C1306 1.363 . S
C1307 C1313 1.428 . S
H1308 C1304 0.930 . S
H1309 C1306 0.929 . S
S1310 N1311 1.613 . S
S1310 N1312 1.610 . S
N1311 S1310 1.613 . S
N1311 C1314 1.350 . S
N1312 S1310 1.610 . S
N1312 C1313 1.351 . S
C1313 C1307 1.428 . S
C1313 N1312 1.351 . S
C1313 C1314 1.434 . S
C1314 C1305 1.429 . S
C1314 N1311 1.350 . S
C1314 C1313 1.434 . S
C1315 C1316 1.369 . S
C1315 C1317 1.419 . S
C1315 H1319 0.930 1_554 S
C1316 C1315 1.369 . S
C1316 C1325 1.429 . S
C1317 C1315 1.419 . S
C1317 C1318 1.363 . S
C1317 H1320 0.929 . S
C1318 C1317 1.363 . S
C1318 C1324 1.428 . S
H1319 C1315 0.930 1_556 S
H1320 C1317 0.929 . S
S1321 N1322 1.613 . S
S1321 N1323 1.610 . S
N1322 S1321 1.613 . S
N1322 C1325 1.350 . S
N1323 S1321 1.610 . S
N1323 C1324 1.351 . S
C1324 C1318 1.428 . S
C1324 N1323 1.351 . S
C1324 C1325 1.434 . S
C1325 C1316 1.429 . S
C1325 N1322 1.350 . S
C1325 C1324 1.434 . S
C1326 C1327 1.369 . S
C1326 C1328 1.419 . S
C1326 H1330 0.930 . S
C1327 C1326 1.369 . S
C1327 C1336 1.429 . S
C1328 C1326 1.419 . S
C1328 C1329 1.363 . S
C1328 H1331 0.929 . S
C1329 C1328 1.363 . S
C1329 C1335 1.428 . S
H1330 C1326 0.930 . S
H1331 C1328 0.929 . S
S1332 N1333 1.613 . S
S1332 N1334 1.610 . S
N1333 S1332 1.613 . S
N1333 C1336 1.350 . S
N1334 S1332 1.610 . S
N1334 C1335 1.351 . S
C1335 C1329 1.428 . S
C1335 N1334 1.351 . S
C1335 C1336 1.434 . S
C1336 C1327 1.429 . S
C1336 N1333 1.350 . S
C1336 C1335 1.434 . S
C1337 C1338 1.369 1_554 S
C1337 C1339 1.419 . S
C1337 H1341 0.930 . S
C1338 C1337 1.369 1_556 S
C1338 C1347 1.429 . S
C1339 C1337 1.419 . S
C1339 C1340 1.363 1_554 S
C1339 H1342 0.929 . S
C1340 C1339 1.363 1_556 S
C1340 C1346 1.428 . S
H1341 C1337 0.930 . S
H1342 C1339 0.929 . S
S1343 N1344 1.613 . S
S1343 N1345 1.610 . S
N1344 S1343 1.613 . S
N1344 C1347 1.350 . S
N1345 S1343 1.610 . S
N1345 C1346 1.351 . S
C1346 C1340 1.428 . S
C1346 N1345 1.351 . S
C1346 C1347 1.434 . S
C1347 C1338 1.429 . S
C1347 N1344 1.350 . S
C1347 C1346 1.434 . S
C1348 C1349 1.369 . S
C1348 C1350 1.419 . S
C1348 H1352 0.930 . S
C1349 C1348 1.369 . S
C1349 C1358 1.429 . S
C1350 C1348 1.419 . S
C1350 C1351 1.363 . S
C1350 H1353 0.929 . S
C1351 C1350 1.363 . S
C1351 C1357 1.428 . S
H1352 C1348 0.930 . S
H1353 C1350 0.929 . S
S1354 N1355 1.613 . S
S1354 N1356 1.610 . S
N1355 S1354 1.613 . S
N1355 C1358 1.350 . S
N1356 S1354 1.610 . S
N1356 C1357 1.351 . S
C1357 C1351 1.428 . S
C1357 N1356 1.351 . S
C1357 C1358 1.434 . S
C1358 C1349 1.429 . S
C1358 N1355 1.350 . S
C1358 C1357 1.434 . S
C1359 C1360 1.369 . S
C1359 C1361 1.419 . S
C1359 H1363 0.930 . S
C1360 C1359 1.369 . S
C1360 C1369 1.429 1_455 S
C1361 C1359 1.419 . S
C1361 C1362 1.363 . S
C1361 H1364 0.929 . S
C1362 C1361 1.363 . S
C1362 C1368 1.466 . S
H1363 C1359 0.930 . S
H1364 C1361 0.929 . S
S1365 N1366 1.613 . S
S1365 N1367 1.610 . S
N1366 S1365 1.613 . S
N1366 C1369 1.350 . S
N1367 S1365 1.610 . S
N1367 C1368 1.323 1_655 S
C1368 C1362 1.466 . S
C1368 N1367 1.323 1_455 S
C1368 C1369 1.423 1_455 S
C1369 C1360 1.429 1_655 S
C1369 N1366 1.350 . S
C1369 C1368 1.423 1_655 S
C1370 C1371 1.369 . S
C1370 C1372 1.419 . S
C1370 H1374 0.930 . S
C1371 C1370 1.369 . S
C1371 C1380 1.429 . S
C1372 C1370 1.419 . S
C1372 C1373 1.363 . S
C1372 H1375 0.929 . S
C1373 C1372 1.363 . S
C1373 C1379 1.428 . S
H1374 C1370 0.930 . S
H1375 C1372 0.929 . S
S1376 N1377 1.613 . S
S1376 N1378 1.610 . S
N1377 S1376 1.613 . S
N1377 C1380 1.350 . S
N1378 S1376 1.610 . S
N1378 C1379 1.351 . S
C1379 C1373 1.428 . S
C1379 N1378 1.351 . S
C1379 C1380 1.434 . S
C1380 C1371 1.429 . S
C1380 N1377 1.350 . S
C1380 C1379 1.434 . S
C1381 C1382 1.369 1_455 S
C1381 C1383 1.419 . S
C1381 H1385 0.930 . S
C1382 C1381 1.369 1_655 S
C1382 C1391 1.429 . S
C1383 C1381 1.419 . S
C1383 C1384 1.363 1_455 S
C1383 H1386 0.929 . S
C1384 C1383 1.363 1_655 S
C1384 C1390 1.428 . S
H1385 C1381 0.930 . S
H1386 C1383 0.929 . S
S1387 N1388 1.613 . S
S1387 N1389 1.610 . S
N1388 S1387 1.613 . S
N1388 C1391 1.350 . S
N1389 S1387 1.610 . S
N1389 C1390 1.351 . S
C1390 C1384 1.428 . S
C1390 N1389 1.351 . S
C1390 C1391 1.434 . S
C1391 C1382 1.429 . S
C1391 N1388 1.350 . S
C1391 C1390 1.434 . S
C1392 C1393 1.369 . S
C1392 C1394 1.419 . S
C1392 H1396 0.930 . S
C1393 C1392 1.369 . S
C1393 C1402 1.429 . S
C1394 C1392 1.419 . S
C1394 C1395 1.363 . S
C1394 H1397 0.929 . S
C1395 C1394 1.363 . S
C1395 C1401 1.428 . S
H1396 C1392 0.930 . S
H1397 C1394 0.929 . S
S1398 N1399 1.613 . S
S1398 N1400 1.610 . S
N1399 S1398 1.613 . S
N1399 C1402 1.350 . S
N1400 S1398 1.610 . S
N1400 C1401 1.351 . S
C1401 C1395 1.428 . S
C1401 N1400 1.351 . S
C1401 C1402 1.434 . S
C1402 C1393 1.429 . S
C1402 N1399 1.350 . S
C1402 C1401 1.434 . S
C1403 C1404 1.369 . S
C1403 C1405 1.419 . S
C1403 H1407 0.930 . S
C1404 C1403 1.369 . S
C1404 C1413 1.429 . S
C1405 C1403 1.419 . S
C1405 C1406 1.363 . S
C1405 H1408 0.929 . S
C1406 C1405 1.363 . S
C1406 C1412 1.428 . S
H1407 C1403 0.930 . S
H1408 C1405 0.929 . S
S1409 N1410 1.613 . S
S1409 N1411 1.610 . S
N1410 S1409 1.613 . S
N1410 C1413 1.350 . S
N1411 S1409 1.610 . S
N1411 C1412 1.351 . S
C1412 C1406 1.428 . S
C1412 N1411 1.351 . S
C1412 C1413 1.434 . S
C1413 C1404 1.429 . S
C1413 N1410 1.350 . S
C1413 C1412 1.434 . S
C1414 C1415 1.369 . S
C1414 C1416 1.419 1_565 S
C1414 H1418 0.930 . S
C1415 C1414 1.369 . S
C1415 C1424 1.429 . S
C1416 C1414 1.419 1_545 S
C1416 C1417 1.363 . S
C1416 H1419 0.929 . S
C1417 C1416 1.363 . S
C1417 C1423 1.428 . S
H1418 C1414 0.930 . S
H1419 C1416 0.929 . S
S1420 N1421 1.613 1_545 S
S1420 N1422 1.610 . S
N1421 S1420 1.613 1_565 S
N1421 C1424 1.350 . S
N1422 S1420 1.610 . S
N1422 C1423 1.351 . S
C1423 C1417 1.428 . S
C1423 N1422 1.351 . S
C1423 C1424 1.434 1_545 S
C1424 C1415 1.429 . S
C1424 N1421 1.350 . S
C1424 C1423 1.434 1_565 S
C1425 C1426 1.369 . S
C1425 C1427 1.419 1_545 S
C1425 H1429 0.930 1_545 S
C1426 C1425 1.369 . S
C1426 C1435 1.429 . S
C1427 C1425 1.419 1_565 S
C1427 C1428 1.363 1_565 S
C1427 H1430 0.929 . S
C1428 C1427 1.363 1_545 S
C1428 C1434 1.428 . S
H1429 C1425 0.930 1_565 S
H1430 C1427 0.929 . S
S1431 N1432 1.613 . S
S1431 N1433 1.610 . S
N1432 S1431 1.613 . S
N1432 C1435 1.350 . S
N1433 S1431 1.610 . S
N1433 C1434 1.351 . S
C1434 C1428 1.428 . S
C1434 N1433 1.351 . S
C1434 C1435 1.434 . S
C1435 C1426 1.429 . S
C1435 N1432 1.350 . S
C1435 C1434 1.434 . S
C1436 C1437 1.369 . S
C1436 C1438 1.419 . S
C1436 H1440 0.930 . S
C1437 C1436 1.369 . S
C1437 C1446 1.429 . S
C1438 C1436 1.419 . S
C1438 C1439 1.363 . S
C1438 H1441 0.929 . S
C1439 C1438 1.363 . S
C1439 C1445 1.428 . S
H1440 C1436 0.930 . S
H1441 C1438 0.929 . S
S1442 N1443 1.613 . S
S1442 N1444 1.610 . S
N1443 S1442 1.613 . S
N1443 C1446 1.350 . S
N1444 S1442 1.610 . S
N1444 C1445 1.351 . S
C1445 C1439 1.428 . S
C1445 N1444 1.351 . S
C1445 C1446 1.434 . S
C1446 C1437 1.429 . S
C1446 N1443 1.350 . S
C1446 C1445 1.434 . S
C1447 C1448 1.369 . S
C1447 C1449 1.419 . S
C1447 H1451 0.930 . S
C1448 C1447 1.369 . S
C1448 C1457 1.429 . S
C1449 C1447 1.419 . S
C1449 C1450 1.363 . S
C1449 H1452 0.929 1_554 S
C1450 C1449 1.363 . S
C1450 C1456 1.428 . S
H1451 C1447 0.930 . S
H1452 C1449 0.929 1_556 S
S1453 N1454 1.613 . S
S1453 N1455 1.610 . S
N1454 S1453 1.613 . S
N1454 C1457 1.350 . S
N1455 S1453 1.610 . S
N1455 C1456 1.351 . S
C1456 C1450 1.428 . S
C1456 N1455 1.351 . S
C1456 C1457 1.434 . S
C1457 C1448 1.429 . S
C1457 N1454 1.350 . S
C1457 C1456 1.434 . S
C1458 C1459 1.369 . S
C1458 C1460 1.419 . S
C1458 H1462 0.930 . S
C1459 C1458 1.369 . S
C1459 C1468 1.429 . S
C1460 C1458 1.419 . S
C1460 C1461 1.363 . S
C1460 H1463 0.929 . S
C1461 C1460 1.363 . S
C1461 C1467 1.428 . S
H1462 C1458 0.930 . S
H1463 C1460 0.929 . S
S1464 N1465 1.613 . S
S1464 N1466 1.610 . S
N1465 S1464 1.613 . S
N1465 C1468 1.350 . S
N1466 S1464 1.610 . S
N1466 C1467 1.351 . S
C1467 C1461 1.428 . S
C1467 N1466 1.351 . S
C1467 C1468 1.434 . S
C1468 C1459 1.429 . S
C1468 N1465 1.350 . S
C1468 C1467 1.434 . S
C1469 C1470 1.369 1_554 S
C1469 C1471 1.419 . S
C1469 H1473 0.930 . S
C1470 C1469 1.369 1_556 S
C1470 C1479 1.429 . S
C1471 C1469 1.419 . S
C1471 C1472 1.363 . S
C1471 H1474 0.929 . S
C1472 C1471 1.363 . S
C1472 C1478 1.428 1_554 S
H1473 C1469 0.930 . S
H1474 C1471 0.929 . S
S1475 N1476 1.613 . S
S1475 N1477 1.610 . S
N1476 S1475 1.613 . S
N1476 C1479 1.350 . S
N1477 S1475 1.610 . S
N1477 C1478 1.351 . S
C1478 C1472 1.428 1_556 S
C1478 N1477 1.351 . S
C1478 C1479 1.434 . S
C1479 C1470 1.429 . S
C1479 N1476 1.350 . S
C1479 C1478 1.434 . S
C1480 C1481 1.369 . S
C1480 C1482 1.419 . S
C1480 H1484 0.930 . S
C1481 C1480 1.369 . S
C1481 C1490 1.429 . S
C1482 C1480 1.419 . S
C1482 C1483 1.363 . S
C1482 H1485 0.929 . S
C1483 C1482 1.363 . S
C1483 C1489 1.428 . S
H1484 C1480 0.930 . S
H1485 C1482 0.929 . S
S1486 N1487 1.613 . S
S1486 N1488 1.610 . S
N1487 S1486 1.613 . S
N1487 C1490 1.350 . S
N1488 S1486 1.610 . S
N1488 C1489 1.351 . S
C1489 C1483 1.428 . S
C1489 N1488 1.351 . S
C1489 C1490 1.434 . S
C1490 C1481 1.429 . S
C1490 N1487 1.350 . S
C1490 C1489 1.434 . S
C1491 C1492 1.369 . S
C1491 C1493 1.419 . S
C1491 H1495 0.930 . S
C1492 C1491 1.369 . S
C1492 C1501 1.429 1_455 S
C1493 C1491 1.419 . S
C1493 C1494 1.363 . S
C1493 H1496 0.929 . S
C1494 C1493 1.363 . S
C1494 C1500 1.428 1_455 S
H1495 C1491 0.930 . S
H1496 C1493 0.929 . S
S1497 N1498 1.613 . S
S1497 N1499 1.610 . S
N1498 S1497 1.613 . S
N1498 C1501 1.350 . S
N1499 S1497 1.610 . S
N1499 C1500 1.351 . S
C1500 C1494 1.428 1_655 S
C1500 N1499 1.351 . S
C1500 C1501 1.434 . S
C1501 C1492 1.429 1_655 S
C1501 N1498 1.350 . S
C1501 C1500 1.434 . S
C1502 C1503 1.369 . S
C1502 C1504 1.419 . S
C1502 H1506 0.930 . S
C1503 C1502 1.369 . S
C1503 C1512 1.429 . S
C1504 C1502 1.419 . S
C1504 C1505 1.363 . S
C1504 H1507 0.929 . S
C1505 C1504 1.363 . S
C1505 C1511 1.428 . S
H1506 C1502 0.930 . S
H1507 C1504 0.929 . S
S1508 N1509 1.613 . S
S1508 N1510 1.610 . S
N1509 S1508 1.613 . S
N1509 C1512 1.350 . S
N1510 S1508 1.610 . S
N1510 C1511 1.351 . S
C1511 C1505 1.428 . S
C1511 N1510 1.351 . S
C1511 C1512 1.434 . S
C1512 C1503 1.429 . S
C1512 N1509 1.350 . S
C1512 C1511 1.434 . S
C1513 C1514 1.369 1_455 S
C1513 C1515 1.419 . S
C1513 H1517 0.930 . S
C1514 C1513 1.369 1_655 S
C1514 C1523 1.429 . S
C1515 C1513 1.419 . S
C1515 C1516 1.363 . S
C1515 H1518 0.929 . S
C1516 C1515 1.363 . S
C1516 C1522 1.428 1_455 S
H1517 C1513 0.930 . S
H1518 C1515 0.929 . S
S1519 N1520 1.613 . S
S1519 N1521 1.610 . S
N1520 S1519 1.613 . S
N1520 C1523 1.350 . S
N1521 S1519 1.610 . S
N1521 C1522 1.351 . S
C1522 C1516 1.428 1_655 S
C1522 N1521 1.351 . S
C1522 C1523 1.434 . S
C1523 C1514 1.429 . S
C1523 N1520 1.350 . S
C1523 C1522 1.434 . S
C1524 C1525 1.369 . S
C1524 C1526 1.419 . S
C1524 H1528 0.930 . S
C1525 C1524 1.369 . S
C1525 C1534 1.429 . S
C1526 C1524 1.419 . S
C1526 C1527 1.363 . S
C1526 H1529 0.929 . S
C1527 C1526 1.363 . S
C1527 C1533 1.428 . S
H1528 C1524 0.930 . S
H1529 C1526 0.929 . S
S1530 N1531 1.613 . S
S1530 N1532 1.610 . S
N1531 S1530 1.613 . S
N1531 C1534 1.350 . S
N1532 S1530 1.610 . S
N1532 C1533 1.351 . S
C1533 C1527 1.428 . S
C1533 N1532 1.351 . S
C1533 C1534 1.434 . S
C1534 C1525 1.429 . S
C1534 N1531 1.350 . S
C1534 C1533 1.434 . S
C1535 C1536 1.369 . S
C1535 C1537 1.419 . S
C1535 H1539 0.930 . S
C1536 C1535 1.369 . S
C1536 C1545 1.429 . S
C1537 C1535 1.419 . S
C1537 C1538 1.363 . S
C1537 H1540 0.929 . S
C1538 C1537 1.363 . S
C1538 C1544 1.428 . S
H1539 C1535 0.930 . S
H1540 C1537 0.929 . S
S1541 N1542 1.613 . S
S1541 N1543 1.610 . S
N1542 S1541 1.613 . S
N1542 C1545 1.350 . S
N1543 S1541 1.610 . S
N1543 C1544 1.351 . S
C1544 C1538 1.428 . S
C1544 N1543 1.351 . S
C1544 C1545 1.434 . S
C1545 C1536 1.429 . S
C1545 N1542 1.350 . S
C1545 C1544 1.434 . S
C1546 C1547 1.369 1_565 S
C1546 C1548 1.419 . S
C1546 H1550 0.930 . S
C1547 C1546 1.369 1_545 S
C1547 C1556 1.429 . S
C1548 C1546 1.419 . S
C1548 C1549 1.363 . S
C1548 H1551 0.929 . S
C1549 C1548 1.363 . S
C1549 C1555 1.428 1_565 S
H1550 C1546 0.930 . S
H1551 C1548 0.929 . S
S1552 N1553 1.613 . S
S1552 N1554 1.610 . S
N1553 S1552 1.613 . S
N1553 C1556 1.350 . S
N1554 S1552 1.610 . S
N1554 C1555 1.351 . S
C1555 C1549 1.428 1_545 S
C1555 N1554 1.351 . S
C1555 C1556 1.434 . S
C1556 C1547 1.429 . S
C1556 N1553 1.350 . S
C1556 C1555 1.434 . S
C1557 C1558 1.369 . S
C1557 C1559 1.419 1_565 S
C1557 H1561 0.930 1_565 S
C1558 C1557 1.369 . S
C1558 C1567 1.429 . S
C1559 C1557 1.419 1_545 S
C1559 C1560 1.363 1_545 S
C1559 H1562 0.929 . S
C1560 C1559 1.363 1_565 S
C1560 C1566 1.428 . S
H1561 C1557 0.930 1_545 S
H1562 C1559 0.929 . S
S1563 N1564 1.613 . S
S1563 N1565 1.610 . S
N1564 S1563 1.613 . S
N1564 C1567 1.350 . S
N1565 S1563 1.610 . S
N1565 C1566 1.351 . S
C1566 C1560 1.428 . S
C1566 N1565 1.351 . S
C1566 C1567 1.434 . S
C1567 C1558 1.429 . S
C1567 N1564 1.350 . S
C1567 C1566 1.434 . S
C1568 C1569 1.369 . S
C1568 C1570 1.419 . S
C1568 H1572 0.930 . S
C1569 C1568 1.369 . S
C1569 C1578 1.429 . S
C1570 C1568 1.419 . S
C1570 C1571 1.363 . S
C1570 H1573 0.929 . S
C1571 C1570 1.363 . S
C1571 C1577 1.428 . S
H1572 C1568 0.930 . S
H1573 C1570 0.929 . S
S1574 N1575 1.613 . S
S1574 N1576 1.610 . S
N1575 S1574 1.613 . S
N1575 C1578 1.350 . S
N1576 S1574 1.610 . S
N1576 C1577 1.351 . S
C1577 C1571 1.428 . S
C1577 N1576 1.351 . S
C1577 C1578 1.434 . S
C1578 C1569 1.429 . S
C1578 N1575 1.350 . S
C1578 C1577 1.434 . S
C1579 C1580 1.369 . S
C1579 C1581 1.419 . S
C1579 H1583 0.930 . S
C1580 C1579 1.369 . S
C1580 C1589 1.429 . S
C1581 C1579 1.419 . S
C1581 C1582 1.363 . S
C1581 H1584 0.931 . S
C1582 C1581 1.363 . S
C1582 C1588 1.428 . S
H1583 C1579 0.930 . S
H1584 C1581 0.931 . S
S1585 N1586 1.613 . S
S1585 N1587 1.610 . S
N1586 S1585 1.613 . S
N1586 C1589 1.350 . S
N1587 S1585 1.610 . S
N1587 C1588 1.351 . S
C1588 C1582 1.428 . S
C1588 N1587 1.351 . S
C1588 C1589 1.434 . S
C1589 C1580 1.429 . S
C1589 N1586 1.350 . S
C1589 C1588 1.434 . S
C1590 C1591 1.369 . S
C1590 C1592 1.419 . S
C1590 H1594 0.930 . S
C1591 C1590 1.369 . S
C1591 C1600 1.429 . S
C1592 C1590 1.419 . S
C1592 C1593 1.363 . S
C1592 H1595 0.929 . S
C1593 C1592 1.363 . S
C1593 C1599 1.428 . S
H1594 C1590 0.930 . S
H1595 C1592 0.929 . S
S1596 N1597 1.613 . S
S1596 N1598 1.610 . S
N1597 S1596 1.613 . S
N1597 C1600 1.350 . S
N1598 S1596 1.610 . S
N1598 C1599 1.351 . S
C1599 C1593 1.428 . S
C1599 N1598 1.351 . S
C1599 C1600 1.434 . S
C1600 C1591 1.429 . S
C1600 N1597 1.350 . S
C1600 C1599 1.434 . S
C1601 C1602 1.369 . S
C1601 C1603 1.419 . S
C1601 H1605 0.930 . S
C1602 C1601 1.369 . S
C1602 C1611 1.412 1_554 S
C1603 C1601 1.419 . S
C1603 C1604 1.363 1_554 S
C1603 H1606 0.929 . S
C1604 C1603 1.363 1_556 S
C1604 C1610 1.428 . S
H1605 C1601 0.930 . S
H1606 C1603 0.929 . S
S1607 N1608 1.613 . S
S1607 N1609 1.610 . S
N1608 S1607 1.613 . S
N1608 C1611 1.352 . S
N1609 S1607 1.610 . S
N1609 C1610 1.351 . S
C1610 C1604 1.428 . S
C1610 N1609 1.351 . S
C1610 C1611 1.450 . S
C1611 C1602 1.412 1_556 S
C1611 N1608 1.352 . S
C1611 C1610 1.450 . S
C1612 C1613 1.369 . S
C1612 C1614 1.419 . S
C1612 H1616 0.930 . S
C1613 C1612 1.369 . S
C1613 C1622 1.429 . S
C1614 C1612 1.419 . S
C1614 C1615 1.363 . S
C1614 H1617 0.929 . S
C1615 C1614 1.363 . S
C1615 C1621 1.428 . S
H1616 C1612 0.930 . S
H1617 C1614 0.929 . S
S1618 N1619 1.613 . S
S1618 N1620 1.610 . S
N1619 S1618 1.613 . S
N1619 C1622 1.350 . S
N1620 S1618 1.610 . S
N1620 C1621 1.351 . S
C1621 C1615 1.428 . S
C1621 N1620 1.351 . S
C1621 C1622 1.434 . S
C1622 C1613 1.429 . S
C1622 N1619 1.350 . S
C1622 C1621 1.434 . S
C1623 C1624 1.369 . S
C1623 C1625 1.419 1_655 S
C1623 H1627 0.930 1_655 S
C1624 C1623 1.369 . S
C1624 C1633 1.429 . S
C1625 C1623 1.419 1_455 S
C1625 C1626 1.363 1_455 S
C1625 H1628 0.929 . S
C1626 C1625 1.363 1_655 S
C1626 C1632 1.428 . S
H1627 C1623 0.930 1_455 S
H1628 C1625 0.929 . S
S1629 N1630 1.613 . S
S1629 N1631 1.610 . S
N1630 S1629 1.613 . S
N1630 C1633 1.350 . S
N1631 S1629 1.610 . S
N1631 C1632 1.351 . S
C1632 C1626 1.428 . S
C1632 N1631 1.351 . S
C1632 C1633 1.434 . S
C1633 C1624 1.429 . S
C1633 N1630 1.350 . S
C1633 C1632 1.434 . S
C1634 C1635 1.369 . S
C1634 C1636 1.419 . S
C1634 H1638 0.930 . S
C1635 C1634 1.369 . S
C1635 C1644 1.429 . S
C1636 C1634 1.419 . S
C1636 C1637 1.363 . S
C1636 H1639 0.929 . S
C1637 C1636 1.363 . S
C1637 C1643 1.428 . S
H1638 C1634 0.930 . S
H1639 C1636 0.929 . S
S1640 N1641 1.613 . S
S1640 N1642 1.610 . S
N1641 S1640 1.613 . S
N1641 C1644 1.350 . S
N1642 S1640 1.610 . S
N1642 C1643 1.351 . S
C1643 C1637 1.428 . S
C1643 N1642 1.351 . S
C1643 C1644 1.434 . S
C1644 C1635 1.429 . S
C1644 N1641 1.350 . S
C1644 C1643 1.434 . S
C1645 C1646 1.369 1_655 S
C1645 C1647 1.419 . S
C1645 H1649 0.930 . S
C1646 C1645 1.369 1_455 S
C1646 C1655 1.429 . S
C1647 C1645 1.419 . S
C1647 C1648 1.363 . S
C1647 H1650 0.929 . S
C1648 C1647 1.363 . S
C1648 C1654 1.428 1_655 S
H1649 C1645 0.930 . S
H1650 C1647 0.929 . S
S1651 N1652 1.613 . S
S1651 N1653 1.610 . S
N1652 S1651 1.613 . S
N1652 C1655 1.350 . S
N1653 S1651 1.610 . S
N1653 C1654 1.351 . S
C1654 C1648 1.428 1_455 S
C1654 N1653 1.351 . S
C1654 C1655 1.434 . S
C1655 C1646 1.429 . S
C1655 N1652 1.350 . S
C1655 C1654 1.434 . S
C1656 C1657 1.369 . S
C1656 C1658 1.419 . S
C1656 H1660 0.930 . S
C1657 C1656 1.369 . S
C1657 C1666 1.429 . S
C1658 C1656 1.419 . S
C1658 C1659 1.363 . S
C1658 H1661 0.929 . S
C1659 C1658 1.363 . S
C1659 C1665 1.428 . S
H1660 C1656 0.930 . S
H1661 C1658 0.929 . S
S1662 N1663 1.613 . S
S1662 N1664 1.610 . S
N1663 S1662 1.613 . S
N1663 C1666 1.350 . S
N1664 S1662 1.610 . S
N1664 C1665 1.351 . S
C1665 C1659 1.428 . S
C1665 N1664 1.351 . S
C1665 C1666 1.434 . S
C1666 C1657 1.429 . S
C1666 N1663 1.350 . S
C1666 C1665 1.434 . S
C1667 C1668 1.369 . S
C1667 C1669 1.419 . S
C1667 H1671 0.930 . S
C1668 C1667 1.369 . S
C1668 C1677 1.429 . S
C1669 C1667 1.419 . S
C1669 C1670 1.363 . S
C1669 H1672 0.929 . S
C1670 C1669 1.363 . S
C1670 C1676 1.428 . S
H1671 C1667 0.930 . S
H1672 C1669 0.929 . S
S1673 N1674 1.613 . S
S1673 N1675 1.610 . S
N1674 S1673 1.613 . S
N1674 C1677 1.350 . S
N1675 S1673 1.610 . S
N1675 C1676 1.351 . S
C1676 C1670 1.428 . S
C1676 N1675 1.351 . S
C1676 C1677 1.434 . S
C1677 C1668 1.429 . S
C1677 N1674 1.350 . S
C1677 C1676 1.434 . S
C1678 C1679 1.369 1_565 S
C1678 C1680 1.419 . S
C1678 H1682 0.930 . S
C1679 C1678 1.369 1_545 S
C1679 C1688 1.429 . S
C1680 C1678 1.419 . S
C1680 C1681 1.363 1_565 S
C1680 H1683 0.929 . S
C1681 C1680 1.363 1_545 S
C1681 C1687 1.428 . S
H1682 C1678 0.930 . S
H1683 C1680 0.929 . S
S1684 N1685 1.613 . S
S1684 N1686 1.610 . S
N1685 S1684 1.613 . S
N1685 C1688 1.350 . S
N1686 S1684 1.610 . S
N1686 C1687 1.351 . S
C1687 C1681 1.428 . S
C1687 N1686 1.351 . S
C1687 C1688 1.434 . S
C1688 C1679 1.429 . S
C1688 N1685 1.350 . S
C1688 C1687 1.434 . S
C1689 C1690 1.369 . S
C1689 C1691 1.419 . S
C1689 H1693 0.930 . S
C1690 C1689 1.369 . S
C1690 C1699 1.429 . S
C1691 C1689 1.419 . S
C1691 C1692 1.363 . S
C1691 H1694 0.929 . S
C1692 C1691 1.363 . S
C1692 C1698 1.428 . S
H1693 C1689 0.930 . S
H1694 C1691 0.929 . S
S1695 N1696 1.613 . S
S1695 N1697 1.610 1_545 S
N1696 S1695 1.613 . S
N1696 C1699 1.350 1_545 S
N1697 S1695 1.610 1_565 S
N1697 C1698 1.351 . S
C1698 C1692 1.428 . S
C1698 N1697 1.351 . S
C1698 C1699 1.434 . S
C1699 C1690 1.429 . S
C1699 N1696 1.350 1_565 S
C1699 C1698 1.434 . S
C1700 C1701 1.369 . S
C1700 C1702 1.419 . S
C1700 H1704 0.930 . S
C1701 C1700 1.369 . S
C1701 C1710 1.429 . S
C1702 C1700 1.419 . S
C1702 C1703 1.363 . S
C1702 H1705 0.929 . S
C1703 C1702 1.363 . S
C1703 C1709 1.428 . S
H1704 C1700 0.930 . S
H1705 C1702 0.929 . S
S1706 N1707 1.613 . S
S1706 N1708 1.610 . S
N1707 S1706 1.613 . S
N1707 C1710 1.350 . S
N1708 S1706 1.610 . S
N1708 C1709 1.351 . S
C1709 C1703 1.428 . S
C1709 N1708 1.351 . S
C1709 C1710 1.434 . S
C1710 C1701 1.429 . S
C1710 N1707 1.350 . S
C1710 C1709 1.434 . S
C1711 C1712 1.369 . S
C1711 C1713 1.419 . S
C1711 H1715 0.930 . S
C1712 C1711 1.369 . S
C1712 C1721 1.429 . S
C1713 C1711 1.419 . S
C1713 C1714 1.363 . S
C1713 H1716 0.929 . S
C1714 C1713 1.363 . S
C1714 C1720 1.428 . S
H1715 C1711 0.930 . S
H1716 C1713 0.929 . S
S1717 N1718 1.613 . S
S1717 N1719 1.610 . S
N1718 S1717 1.613 . S
N1718 C1721 1.350 1_554 S
N1719 S1717 1.610 . S
N1719 C1720 1.351 1_554 S
C1720 C1714 1.428 . S
C1720 N1719 1.351 1_556 S
C1720 C1721 1.434 . S
C1721 C1712 1.429 . S
C1721 N1718 1.350 1_556 S
C1721 C1720 1.434 . S
C1722 C1723 1.369 . S
C1722 C1724 1.419 . S
C1722 H1726 0.930 . S
C1723 C1722 1.369 . S
C1723 C1732 1.429 . S
C1724 C1722 1.419 . S
C1724 C1725 1.363 . S
C1724 H1727 0.929 . S
C1725 C1724 1.363 . S
C1725 C1731 1.428 . S
H1726 C1722 0.930 . S
H1727 C1724 0.929 . S
S1728 N1729 1.613 . S
S1728 N1730 1.610 . S
N1729 S1728 1.613 . S
N1729 C1732 1.350 . S
N1730 S1728 1.610 . S
N1730 C1731 1.351 . S
C1731 C1725 1.428 . S
C1731 N1730 1.351 . S
C1731 C1732 1.434 . S
C1732 C1723 1.429 . S
C1732 N1729 1.350 . S
C1732 C1731 1.434 . S
C1733 C1734 1.369 . S
C1733 C1735 1.419 . S
C1733 H1737 0.930 . S
C1734 C1733 1.369 . S
C1734 C1743 1.429 . S
C1735 C1733 1.419 . S
C1735 C1736 1.363 . S
C1735 H1738 0.929 . S
C1736 C1735 1.363 . S
C1736 C1742 1.428 . S
H1737 C1733 0.930 . S
H1738 C1735 0.929 . S
S1739 N1740 1.613 . S
S1739 N1741 1.610 . S
N1740 S1739 1.613 . S
N1740 C1743 1.350 . S
N1741 S1739 1.610 . S
N1741 C1742 1.351 . S
C1742 C1736 1.428 . S
C1742 N1741 1.351 . S
C1742 C1743 1.434 . S
C1743 C1734 1.429 . S
C1743 N1740 1.350 . S
C1743 C1742 1.434 . S
C1744 C1745 1.369 . S
C1744 C1746 1.419 . S
C1744 H1748 0.930 . S
C1745 C1744 1.369 . S
C1745 C1754 1.429 . S
C1746 C1744 1.419 . S
C1746 C1747 1.363 . S
C1746 H1749 0.929 . S
C1747 C1746 1.363 . S
C1747 C1753 1.428 . S
H1748 C1744 0.930 . S
H1749 C1746 0.929 . S
S1750 N1751 1.613 . S
S1750 N1752 1.610 . S
N1751 S1750 1.613 . S
N1751 C1754 1.350 . S
N1752 S1750 1.610 . S
N1752 C1753 1.351 . S
C1753 C1747 1.428 . S
C1753 N1752 1.351 . S
C1753 C1754 1.434 . S
C1754 C1745 1.429 . S
C1754 N1751 1.350 . S
C1754 C1753 1.434 . S
C1755 C1756 1.369 . S
C1755 C1757 1.419 . S
C1755 H1759 0.930 . S
C1756 C1755 1.369 . S
C1756 C1765 1.429 . S
C1757 C1755 1.419 . S
C1757 C1758 1.363 . S
C1757 H1760 0.929 . S
C1758 C1757 1.363 . S
C1758 C1764 1.428 . S
H1759 C1755 0.930 . S
H1760 C1757 0.929 . S
S1761 N1762 1.613 . S
S1761 N1763 1.610 . S
N1762 S1761 1.613 . S
N1762 C1765 1.350 1_455 S
N1763 S1761 1.610 . S
N1763 C1764 1.351 1_455 S
C1764 C1758 1.428 . S
C1764 N1763 1.351 1_655 S
C1764 C1765 1.434 . S
C1765 C1756 1.429 . S
C1765 N1762 1.350 1_655 S
C1765 C1764 1.434 . S
C1766 C1767 1.369 . S
C1766 C1768 1.419 . S
C1766 H1770 0.930 . S
C1767 C1766 1.369 . S
C1767 C1776 1.429 . S
C1768 C1766 1.419 . S
C1768 C1769 1.363 . S
C1768 H1771 0.929 . S
C1769 C1768 1.363 . S
C1769 C1775 1.428 . S
H1770 C1766 0.930 . S
H1771 C1768 0.929 . S
S1772 N1773 1.613 . S
S1772 N1774 1.610 . S
N1773 S1772 1.613 . S
N1773 C1776 1.350 . S
N1774 S1772 1.610 . S
N1774 C1775 1.351 . S
C1775 C1769 1.428 . S
C1775 N1774 1.351 . S
C1775 C1776 1.434 . S
C1776 C1767 1.429 . S
C1776 N1773 1.350 . S
C1776 C1775 1.434 . S
C1777 C1778 1.369 . S
C1777 C1779 1.419 . S
C1777 H1781 0.930 . S
C1778 C1777 1.369 . S
C1778 C1787 1.429 1_455 S
C1779 C1777 1.419 . S
C1779 C1780 1.363 . S
C1779 H1782 0.929 . S
C1780 C1779 1.363 . S
C1780 C1786 1.428 1_455 S
H1781 C1777 0.930 . S
H1782 C1779 0.929 . S
S1783 N1784 1.613 . S
S1783 N1785 1.610 . S
N1784 S1783 1.613 . S
N1784 C1787 1.350 . S
N1785 S1783 1.610 . S
N1785 C1786 1.351 . S
C1786 C1780 1.428 1_655 S
C1786 N1785 1.351 . S
C1786 C1787 1.434 . S
C1787 C1778 1.429 1_655 S
C1787 N1784 1.350 . S
C1787 C1786 1.434 . S
C1788 C1789 1.369 . S
C1788 C1790 1.419 . S
C1788 H1792 0.930 . S
C1789 C1788 1.369 . S
C1789 C1798 1.429 . S
C1790 C1788 1.419 . S
C1790 C1791 1.363 . S
C1790 H1793 0.929 . S
C1791 C1790 1.363 . S
C1791 C1797 1.428 . S
H1792 C1788 0.930 . S
H1793 C1790 0.929 . S
S1794 N1795 1.613 . S
S1794 N1796 1.610 . S
N1795 S1794 1.613 . S
N1795 C1798 1.350 . S
N1796 S1794 1.610 . S
N1796 C1797 1.351 . S
C1797 C1791 1.428 . S
C1797 N1796 1.351 . S
C1797 C1798 1.434 . S
C1798 C1789 1.429 . S
C1798 N1795 1.350 . S
C1798 C1797 1.434 . S
C1799 C1800 1.369 . S
C1799 C1801 1.419 . S
C1799 H1803 0.930 . S
C1800 C1799 1.369 . S
C1800 C1809 1.429 . S
C1801 C1799 1.419 . S
C1801 C1802 1.363 . S
C1801 H1804 0.929 . S
C1802 C1801 1.363 . S
C1802 C1808 1.428 . S
H1803 C1799 0.930 . S
H1804 C1801 0.929 . S
S1805 N1806 1.613 . S
S1805 N1807 1.610 . S
N1806 S1805 1.613 . S
N1806 C1809 1.350 . S
N1807 S1805 1.610 . S
N1807 C1808 1.351 . S
C1808 C1802 1.428 . S
C1808 N1807 1.351 . S
C1808 C1809 1.434 . S
C1809 C1800 1.429 . S
C1809 N1806 1.350 . S
C1809 C1808 1.434 . S
C1810 C1811 1.369 . S
C1810 C1812 1.419 . S
C1810 H1814 0.930 . S
C1811 C1810 1.369 . S
C1811 C1820 1.429 1_565 S
C1812 C1810 1.419 . S
C1812 C1813 1.363 . S
C1812 H1815 0.929 . S
C1813 C1812 1.363 . S
C1813 C1819 1.428 1_565 S
H1814 C1810 0.930 . S
H1815 C1812 0.929 . S
S1816 N1817 1.613 . S
S1816 N1818 1.610 . S
N1817 S1816 1.613 . S
N1817 C1820 1.350 . S
N1818 S1816 1.610 . S
N1818 C1819 1.351 . S
C1819 C1813 1.428 1_545 S
C1819 N1818 1.351 . S
C1819 C1820 1.434 . S
C1820 C1811 1.429 1_545 S
C1820 N1817 1.350 . S
C1820 C1819 1.434 . S
C1821 C1822 1.369 . S
C1821 C1823 1.419 . S
C1821 H1825 0.930 . S
C1822 C1821 1.369 . S
C1822 C1831 1.429 . S
C1823 C1821 1.419 . S
C1823 C1824 1.363 . S
C1823 H1826 0.929 . S
C1824 C1823 1.363 . S
C1824 C1830 1.428 . S
H1825 C1821 0.930 . S
H1826 C1823 0.929 . S
S1827 N1828 1.613 . S
S1827 N1829 1.610 . S
N1828 S1827 1.613 . S
N1828 C1831 1.350 . S
N1829 S1827 1.610 . S
N1829 C1830 1.351 . S
C1830 C1824 1.428 . S
C1830 N1829 1.351 . S
C1830 C1831 1.434 . S
C1831 C1822 1.429 . S
C1831 N1828 1.350 . S
C1831 C1830 1.434 . S
C1832 C1833 1.369 . S
C1832 C1834 1.419 . S
C1832 H1836 0.930 . S
C1833 C1832 1.369 . S
C1833 C1842 1.429 . S
C1834 C1832 1.419 . S
C1834 C1835 1.363 . S
C1834 H1837 0.929 . S
C1835 C1834 1.363 . S
C1835 C1841 1.428 . S
H1836 C1832 0.930 . S
H1837 C1834 0.929 . S
S1838 N1839 1.613 . S
S1838 N1840 1.610 . S
N1839 S1838 1.613 . S
N1839 C1842 1.350 . S
N1840 S1838 1.610 . S
N1840 C1841 1.351 . S
C1841 C1835 1.428 . S
C1841 N1840 1.351 . S
C1841 C1842 1.434 . S
C1842 C1833 1.429 . S
C1842 N1839 1.350 . S
C1842 C1841 1.434 . S
C1843 C1844 1.369 . S
C1843 C1845 1.419 . S
C1843 H1847 0.930 . S
C1844 C1843 1.369 . S
C1844 C1853 1.429 . S
C1845 C1843 1.419 . S
C1845 C1846 1.363 . S
C1845 H1848 0.929 . S
C1846 C1845 1.363 . S
C1846 C1852 1.428 . S
H1847 C1843 0.930 . S
H1848 C1845 0.929 . S
S1849 N1850 1.621 . S
S1849 N1851 1.610 1_556 S
N1850 S1849 1.621 . S
N1850 C1853 1.332 1_556 S
N1851 S1849 1.610 1_554 S
N1851 C1852 1.351 . S
C1852 C1846 1.428 . S
C1852 N1851 1.351 . S
C1852 C1853 1.434 . S
C1853 C1844 1.429 . S
C1853 N1850 1.332 1_554 S
C1853 C1852 1.434 . S
C1854 C1855 1.369 . S
C1854 C1856 1.419 . S
C1854 H1858 0.930 . S
C1855 C1854 1.369 . S
C1855 C1864 1.429 . S
C1856 C1854 1.419 . S
C1856 C1857 1.363 . S
C1856 H1859 0.929 . S
C1857 C1856 1.363 . S
C1857 C1863 1.428 . S
H1858 C1854 0.930 . S
H1859 C1856 0.929 . S
S1860 N1861 1.613 . S
S1860 N1862 1.610 . S
N1861 S1860 1.613 . S
N1861 C1864 1.350 . S
N1862 S1860 1.610 . S
N1862 C1863 1.351 . S
C1863 C1857 1.428 . S
C1863 N1862 1.351 . S
C1863 C1864 1.434 . S
C1864 C1855 1.429 . S
C1864 N1861 1.350 . S
C1864 C1863 1.434 . S
C1865 C1866 1.369 . S
C1865 C1867 1.419 . S
C1865 H1869 0.934 . S
C1866 C1865 1.369 . S
C1866 C1875 1.429 . S
C1867 C1865 1.419 . S
C1867 C1868 1.363 . S
C1867 H1870 0.929 . S
C1868 C1867 1.363 . S
C1868 C1874 1.428 . S
H1869 C1865 0.934 . S
H1870 C1867 0.929 . S
S1871 N1872 1.613 . S
S1871 N1873 1.610 . S
N1872 S1871 1.613 . S
N1872 C1875 1.350 . S
N1873 S1871 1.610 . S
N1873 C1874 1.351 . S
C1874 C1868 1.428 . S
C1874 N1873 1.351 . S
C1874 C1875 1.434 . S
C1875 C1866 1.429 . S
C1875 N1872 1.350 . S
C1875 C1874 1.434 . S
C1876 C1877 1.369 . S
C1876 C1878 1.419 . S
C1876 H1880 0.930 . S
C1877 C1876 1.369 . S
C1877 C1886 1.429 . S
C1878 C1876 1.419 . S
C1878 C1879 1.363 . S
C1878 H1881 0.929 . S
C1879 C1878 1.363 . S
C1879 C1885 1.428 . S
H1880 C1876 0.930 . S
H1881 C1878 0.929 . S
S1882 N1883 1.613 . S
S1882 N1884 1.610 . S
N1883 S1882 1.613 . S
N1883 C1886 1.350 . S
N1884 S1882 1.610 . S
N1884 C1885 1.351 . S
C1885 C1879 1.428 . S
C1885 N1884 1.351 . S
C1885 C1886 1.434 . S
C1886 C1877 1.429 . S
C1886 N1883 1.350 . S
C1886 C1885 1.434 . S
C1887 C1888 1.369 . S
C1887 C1889 1.419 . S
C1887 H1891 0.930 . S
C1888 C1887 1.369 . S
C1888 C1897 1.429 1_455 S
C1889 C1887 1.419 . S
C1889 C1890 1.363 . S
C1889 H1892 0.929 . S
C1890 C1889 1.363 . S
C1890 C1896 1.428 . S
H1891 C1887 0.930 . S
H1892 C1889 0.929 . S
S1893 N1894 1.613 . S
S1893 N1895 1.610 . S
N1894 S1893 1.613 . S
N1894 C1897 1.350 . S
N1895 S1893 1.610 . S
N1895 C1896 1.351 1_655 S
C1896 C1890 1.428 . S
C1896 N1895 1.351 1_455 S
C1896 C1897 1.434 1_455 S
C1897 C1888 1.429 1_655 S
C1897 N1894 1.350 . S
C1897 C1896 1.434 1_655 S
C1898 C1899 1.369 . S
C1898 C1900 1.419 . S
C1898 H1902 0.930 . S
C1899 C1898 1.369 . S
C1899 C1908 1.429 . S
C1900 C1898 1.419 . S
C1900 C1901 1.363 . S
C1900 H1903 0.929 . S
C1901 C1900 1.363 . S
C1901 C1907 1.428 . S
H1902 C1898 0.930 . S
H1903 C1900 0.929 . S
S1904 N1905 1.613 . S
S1904 N1906 1.610 . S
N1905 S1904 1.613 . S
N1905 C1908 1.350 . S
N1906 S1904 1.610 . S
N1906 C1907 1.351 . S
C1907 C1901 1.428 . S
C1907 N1906 1.351 . S
C1907 C1908 1.434 . S
C1908 C1899 1.429 . S
C1908 N1905 1.350 . S
C1908 C1907 1.434 . S
C1909 C1910 1.369 . S
C1909 C1911 1.419 . S
C1909 H1913 0.930 . S
C1910 C1909 1.369 . S
C1910 C1919 1.429 1_655 S
C1911 C1909 1.419 . S
C1911 C1912 1.363 . S
C1911 H1914 0.929 . S
C1912 C1911 1.363 . S
C1912 C1918 1.428 1_655 S
H1913 C1909 0.930 . S
H1914 C1911 0.929 . S
S1915 N1916 1.613 . S
S1915 N1917 1.610 . S
N1916 S1915 1.613 . S
N1916 C1919 1.350 . S
N1917 S1915 1.610 . S
N1917 C1918 1.351 . S
C1918 C1912 1.428 1_455 S
C1918 N1917 1.351 . S
C1918 C1919 1.434 . S
C1919 C1910 1.429 1_455 S
C1919 N1916 1.350 . S
C1919 C1918 1.434 . S
C1131 C1117 1.871 . S
C1129 C8 1.893 . S
C1142 C985 1.651 . S
C1140 C19 1.607 . S
C1153 C1081 1.499 . S
C1151 C30 1.526 . S
C1164 C1021 2.023 . S
C1162 C41 1.981 . S
C1175 C769 1.894 . S
C1173 C52 1.893 . S
C1184 C63 1.982 . S
C1186 C805 2.028 . S
C1197 C697 1.652 . S
C1195 C74 1.607 . S
C1206 C85 1.522 . S
C1208 C733 1.520 . S
C1219 C949 1.894 . S
C1217 C96 1.894 . S
C1228 C107 1.973 . S
C1230 C877 2.026 . S
C1239 C118 1.613 . S
C1241 C841 1.655 . S
C1252 C913 1.516 . S
C1250 C129 1.521 . S
C1263 C661 1.900 . S
C1261 C140 1.882 . S
C1272 C151 1.569 . S
C1274 C553 1.647 . S
C1285 C625 1.526 . S
C1283 C162 1.503 . S
C1294 C173 1.928 . S
C1296 C589 2.022 . S
C1307 C337 1.899 . S
C1305 C184 1.877 . S
C1318 C397 2.002 . S
C1316 C195 1.925 . S
C1327 C206 1.577 . S
C1329 C265 1.645 . S
C1338 C217 1.505 . S
C1340 C325 1.484 . S
C1349 C228 1.877 . S
C1351 C517 1.906 . S
C1360 C239 1.929 . S
C1362 C445 2.021 . S
C1373 C409 1.641 . S
C1371 C250 1.566 . S
C1382 C261 1.507 . S
C1384 C481 1.522 . S
C1395 C295 1.360 . S
C1393 C7 1.419 . S
C1406 C331 1.409 . S
C1404 C18 1.502 . S
C1415 C29 1.381 . S
C1417 C367 1.343 . S
C1426 C40 1.107 . S
C1428 C403 1.073 . S
C1439 C439 1.352 . S
C1437 C51 1.409 . S
C1448 C62 1.104 . S
C1450 C475 1.098 . S
C1461 C511 1.418 . S
C1459 C73 1.506 . S
C1472 C547 1.335 . S
C1470 C84 1.384 . S
C1483 C583 1.359 . S
C1481 C95 1.410 . S
C1492 C106 1.101 . S
C1494 C619 1.097 . S
C1503 C117 1.503 . S
C1505 C655 1.416 . S
C1514 C128 1.379 . S
C1516 C691 1.335 . S
C1525 C139 1.258 . S
C1527 C727 1.329 . S
C1536 C150 1.286 . S
C1538 C763 1.369 . S
C1547 C161 1.233 . S
C1549 C799 1.293 . S
C1558 C172 1.015 . S
C1560 C835 1.068 . S
C1569 C183 1.259 . S
C1571 C871 1.333 . S
C1582 C907 1.066 . S
C1580 C194 1.008 . S
C1593 C943 1.371 . S
C1591 C205 1.289 . S
C1604 C979 1.303 . S
C1602 C216 1.232 . S
C1615 C1015 1.328 . S
C1613 C227 1.263 . S
C1624 C238 1.020 . S
C1626 C1051 1.069 . S
C1635 C249 1.278 . S
C1637 C1087 1.452 . S
C1646 C260 1.234 . S
C1648 C1123 1.353 . S
C1657 C5 1.526 . S
C1659 C577 1.816 . S
C1670 C685 1.781 . S
C1668 C16 1.505 . S
C1679 C27 1.340 1_545 S
C1681 C613 1.519 . S
C1692 C649 2.182 . S
C1690 C38 1.917 1_565 S
C1701 C49 1.526 . S
C1703 C289 1.821 . S
C1712 C60 1.931 1_556 S
C1714 C301 2.111 . S
C1723 C71 1.518 . S
C1725 C361 1.776 . S
C1734 C82 1.326 1_554 S
C1736 C373 1.502 . S
C1747 C433 1.819 . S
C1745 C93 1.522 . S
C1758 C505 2.183 . S
C1756 C104 1.918 1_655 S
C1767 C115 1.509 . S
C1769 C541 1.781 . S
C1778 C126 1.326 1_455 S
C1780 C469 1.531 . S
C1791 C1009 1.760 . S
C1789 C137 1.361 . S
C1802 C1093 1.783 . S
C1800 C148 1.208 . S
C1811 C159 1.168 . S
C1813 C1045 1.470 . S
C1824 C1057 2.174 . S
C1822 C170 1.533 . S
C1833 C181 1.380 . S
C1835 C721 1.758 . S
C1844 C192 1.516 . S
C1846 C757 2.099 . S
C1855 C203 1.228 . S
C1857 C793 1.704 . S
C1868 C829 1.471 . S
C1866 C214 1.170 . S
C1879 C865 1.757 . S
C1877 C225 1.367 . S
C1890 C937 2.101 . S
C1888 C236 1.526 . S
C1899 C247 1.235 . S
C1901 C973 1.705 . S
C1912 C901 1.476 . S
C1910 C258 1.167 . S
