# Generated by pormake.
# Topology ctn, (3,4)-cn, num edge types: 1
# Building blocks:
#     Node 0, Type 0, BuildingBlock: VETTIZ_charged_linker_0, # of connection points: 3
#     Node 1, Type 0, BuildingBlock: VETTIZ_charged_linker_0, # of connection points: 3
#     Node 2, Type 0, BuildingBlock: VETTIZ_charged_linker_0, # of connection points: 3
#     Node 3, Type 0, BuildingBlock: VETTIZ_charged_linker_0, # of connection points: 3
#     Node 4, Type 0, BuildingBlock: VETTIZ_charged_linker_0, # of connection points: 3
#     Node 5, Type 0, BuildingBlock: VETTIZ_charged_linker_0, # of connection points: 3
#     Node 6, Type 0, BuildingBlock: VETTIZ_charged_linker_0, # of connection points: 3
#     Node 7, Type 0, BuildingBlock: VETTIZ_charged_linker_0, # of connection points: 3
#     Node 8, Type 0, BuildingBlock: VETTIZ_charged_linker_0, # of connection points: 3
#     Node 9, Type 0, BuildingBlock: VETTIZ_charged_linker_0, # of connection points: 3
#     Node 10, Type 0, BuildingBlock: VETTIZ_charged_linker_0, # of connection points: 3
#     Node 11, Type 0, BuildingBlock: VETTIZ_charged_linker_0, # of connection points: 3
#     Node 12, Type 0, BuildingBlock: VETTIZ_charged_linker_0, # of connection points: 3
#     Node 13, Type 0, BuildingBlock: VETTIZ_charged_linker_0, # of connection points: 3
#     Node 14, Type 0, BuildingBlock: VETTIZ_charged_linker_0, # of connection points: 3
#     Node 15, Type 0, BuildingBlock: VETTIZ_charged_linker_0, # of connection points: 3
#     Node 16, Type 1, BuildingBlock: QUQFOY_clean_sbu_1, # of connection points: 4
#     Node 17, Type 1, BuildingBlock: QUQFOY_clean_sbu_1, # of connection points: 4
#     Node 18, Type 1, BuildingBlock: QUQFOY_clean_sbu_1, # of connection points: 4
#     Node 19, Type 1, BuildingBlock: QUQFOY_clean_sbu_1, # of connection points: 4
#     Node 20, Type 1, BuildingBlock: QUQFOY_clean_sbu_1, # of connection points: 4
#     Node 21, Type 1, BuildingBlock: QUQFOY_clean_sbu_1, # of connection points: 4
#     Node 22, Type 1, BuildingBlock: QUQFOY_clean_sbu_1, # of connection points: 4
#     Node 23, Type 1, BuildingBlock: QUQFOY_clean_sbu_1, # of connection points: 4
#     Node 24, Type 1, BuildingBlock: QUQFOY_clean_sbu_1, # of connection points: 4
#     Node 25, Type 1, BuildingBlock: QUQFOY_clean_sbu_1, # of connection points: 4
#     Node 26, Type 1, BuildingBlock: QUQFOY_clean_sbu_1, # of connection points: 4
#     Node 27, Type 1, BuildingBlock: QUQFOY_clean_sbu_1, # of connection points: 4
#     Edge 28, Type (0, 1), BuildingBlock: TEMPAE_clean_linker_10, # of connection points: 2
#     Edge 29, Type (0, 1), BuildingBlock: TEMPAE_clean_linker_10, # of connection points: 2
#     Edge 30, Type (0, 1), BuildingBlock: TEMPAE_clean_linker_10, # of connection points: 2
#     Edge 31, Type (0, 1), BuildingBlock: TEMPAE_clean_linker_10, # of connection points: 2
#     Edge 32, Type (0, 1), BuildingBlock: TEMPAE_clean_linker_10, # of connection points: 2
#     Edge 33, Type (0, 1), BuildingBlock: TEMPAE_clean_linker_10, # of connection points: 2
#     Edge 34, Type (0, 1), BuildingBlock: TEMPAE_clean_linker_10, # of connection points: 2
#     Edge 35, Type (0, 1), BuildingBlock: TEMPAE_clean_linker_10, # of connection points: 2
#     Edge 36, Type (0, 1), BuildingBlock: TEMPAE_clean_linker_10, # of connection points: 2
#     Edge 37, Type (0, 1), BuildingBlock: TEMPAE_clean_linker_10, # of connection points: 2
#     Edge 38, Type (0, 1), BuildingBlock: TEMPAE_clean_linker_10, # of connection points: 2
#     Edge 39, Type (0, 1), BuildingBlock: TEMPAE_clean_linker_10, # of connection points: 2
#     Edge 40, Type (0, 1), BuildingBlock: TEMPAE_clean_linker_10, # of connection points: 2
#     Edge 41, Type (0, 1), BuildingBlock: TEMPAE_clean_linker_10, # of connection points: 2
#     Edge 42, Type (0, 1), BuildingBlock: TEMPAE_clean_linker_10, # of connection points: 2
#     Edge 43, Type (0, 1), BuildingBlock: TEMPAE_clean_linker_10, # of connection points: 2
#     Edge 44, Type (0, 1), BuildingBlock: TEMPAE_clean_linker_10, # of connection points: 2
#     Edge 45, Type (0, 1), BuildingBlock: TEMPAE_clean_linker_10, # of connection points: 2
#     Edge 46, Type (0, 1), BuildingBlock: TEMPAE_clean_linker_10, # of connection points: 2
#     Edge 47, Type (0, 1), BuildingBlock: TEMPAE_clean_linker_10, # of connection points: 2
#     Edge 48, Type (0, 1), BuildingBlock: TEMPAE_clean_linker_10, # of connection points: 2
#     Edge 49, Type (0, 1), BuildingBlock: TEMPAE_clean_linker_10, # of connection points: 2
#     Edge 50, Type (0, 1), BuildingBlock: TEMPAE_clean_linker_10, # of connection points: 2
#     Edge 51, Type (0, 1), BuildingBlock: TEMPAE_clean_linker_10, # of connection points: 2
#     Edge 52, Type (0, 1), BuildingBlock: TEMPAE_clean_linker_10, # of connection points: 2
#     Edge 53, Type (0, 1), BuildingBlock: TEMPAE_clean_linker_10, # of connection points: 2
#     Edge 54, Type (0, 1), BuildingBlock: TEMPAE_clean_linker_10, # of connection points: 2
#     Edge 55, Type (0, 1), BuildingBlock: TEMPAE_clean_linker_10, # of connection points: 2
#     Edge 56, Type (0, 1), BuildingBlock: TEMPAE_clean_linker_10, # of connection points: 2
#     Edge 57, Type (0, 1), BuildingBlock: TEMPAE_clean_linker_10, # of connection points: 2
#     Edge 58, Type (0, 1), BuildingBlock: TEMPAE_clean_linker_10, # of connection points: 2
#     Edge 59, Type (0, 1), BuildingBlock: TEMPAE_clean_linker_10, # of connection points: 2
#     Edge 60, Type (0, 1), BuildingBlock: TEMPAE_clean_linker_10, # of connection points: 2
#     Edge 61, Type (0, 1), BuildingBlock: TEMPAE_clean_linker_10, # of connection points: 2
#     Edge 62, Type (0, 1), BuildingBlock: TEMPAE_clean_linker_10, # of connection points: 2
#     Edge 63, Type (0, 1), BuildingBlock: TEMPAE_clean_linker_10, # of connection points: 2
#     Edge 64, Type (0, 1), BuildingBlock: TEMPAE_clean_linker_10, # of connection points: 2
#     Edge 65, Type (0, 1), BuildingBlock: TEMPAE_clean_linker_10, # of connection points: 2
#     Edge 66, Type (0, 1), BuildingBlock: TEMPAE_clean_linker_10, # of connection points: 2
#     Edge 67, Type (0, 1), BuildingBlock: TEMPAE_clean_linker_10, # of connection points: 2
#     Edge 68, Type (0, 1), BuildingBlock: TEMPAE_clean_linker_10, # of connection points: 2
#     Edge 69, Type (0, 1), BuildingBlock: TEMPAE_clean_linker_10, # of connection points: 2
#     Edge 70, Type (0, 1), BuildingBlock: TEMPAE_clean_linker_10, # of connection points: 2
#     Edge 71, Type (0, 1), BuildingBlock: TEMPAE_clean_linker_10, # of connection points: 2
#     Edge 72, Type (0, 1), BuildingBlock: TEMPAE_clean_linker_10, # of connection points: 2
#     Edge 73, Type (0, 1), BuildingBlock: TEMPAE_clean_linker_10, # of connection points: 2
#     Edge 74, Type (0, 1), BuildingBlock: TEMPAE_clean_linker_10, # of connection points: 2
#     Edge 75, Type (0, 1), BuildingBlock: TEMPAE_clean_linker_10, # of connection points: 2
# Relax obj value: 0.036
# Max RMSD: 0.142
# Mean RMSD: 0.065
data_MOF--net-ctn--node1-QUQFOY_clean_sbu_1--node2-VETTIZ_charged_linker_0--edge1-TEMPAE_clean_linker_10
_symmetry_space_group_name_H-M    P1
_symmetry_Int_Tables_number       1
_symmetry_cell_setting            triclinic
loop_
_symmetry_equiv_pos_as_xyz
'x, y, z'
_cell_length_a     67.600707
_cell_length_b     67.538972
_cell_length_c     67.736337
_cell_angle_alpha  92.819092
_cell_angle_beta   90.05202
_cell_angle_gamma 94.514134
loop_
_atom_site_label
_atom_site_type_symbol
_atom_site_fract_x
_atom_site_fract_y
_atom_site_fract_z
_atom_type_partial_charge
C0 C 0.06575 0.14728 0.02622 0.0
C1 C 0.05151 0.16136 0.02548 0.0
C2 C 0.03903 0.16412 0.0419 0.0
C3 C 0.05406 0.13824 0.05871 0.0
C4 C 0.06677 0.13594 0.04293 0.0
C5 C 0.08046 0.11979 0.04587 0.0
H6 H 0.10516 0.04282 0.09874 0.0
C7 C 0.0581 0.12345 0.07321 0.0
C8 C 0.07372 0.1127 0.06591 0.0
H9 H 0.13053 0.06249 0.0438 0.0
H10 H 0.11047 0.09052 0.04515 0.0
H11 H 0.10567 0.0858 0.12055 0.0
H12 H 0.06044 0.0498 0.08773 0.0
H13 H 0.04939 0.0596 0.10913 0.0
H14 H 0.06931 0.04372 0.1115 0.0
H15 H 0.09155 0.06549 0.13131 0.0
H16 H 0.08311 0.09026 0.13212 0.0
C17 C 0.10207 0.12931 0.04654 0.0
C18 C 0.07626 0.1035 0.02914 0.0
C19 C 0.01228 0.11388 0.132 0.0
C20 C 0.01151 0.10034 0.14715 0.0
C21 C 0.02696 0.08764 0.14879 0.0
C22 C 0.04241 0.08776 0.13506 0.0
C23 C 0.04238 0.10058 0.11936 0.0
C24 C 0.02784 0.11377 0.11835 0.0
C25 C 0.03044 0.1265 0.10079 0.0
C26 C 0.04862 0.11835 0.09117 0.0
C27 C 0.05534 0.10299 0.10198 0.0
C28 C 0.03459 0.14845 0.10845 0.0
C29 C 0.01169 0.12246 0.08756 0.0
C30 C 0.10637 0.05317 0.087 0.0
C31 C 0.11933 0.05034 0.07108 0.0
C32 C 0.12075 0.06438 0.0563 0.0
C33 C 0.10895 0.08056 0.05701 0.0
C34 C 0.09546 0.0827 0.07259 0.0
C35 C 0.09465 0.06936 0.08745 0.0
C36 C 0.07946 0.07393 0.10285 0.0
C37 C 0.07108 0.09205 0.09462 0.0
C38 C 0.08036 0.09701 0.07679 0.0
C39 C 0.09035 0.07902 0.12283 0.0
C40 C 0.06382 0.05587 0.10304 0.0
H41 H 0.03017 0.15537 0.07033 0.0
H42 H 0.07572 0.14495 0.01396 0.0
H43 H 0.06007 0.1012 0.0259 0.0
H44 H 0.08062 0.08878 0.03298 0.0
H45 H 0.08387 0.10777 0.01527 0.0
H46 H 0.10279 0.14458 0.0536 0.0
H47 H 0.1083 0.13044 0.03143 0.0
H48 H 0.11198 0.12114 0.0556 0.0
H49 H 0.00078 0.12401 0.13052 0.0
H50 H 0.02667 0.07695 0.16022 0.0
H51 H 0.05344 0.07741 0.13685 0.0
H52 H 0.04223 0.1495 0.12307 0.0
H53 H 0.02059 0.15593 0.11025 0.0
H54 H 0.04474 0.15714 0.09874 0.0
H55 H 0.00665 0.10635 0.08682 0.0
H56 H 0.01421 0.12624 0.07207 0.0
H57 H 0.99926 0.13073 0.09353 0.0
H58 H 0.02776 0.17465 0.04169 0.0
C59 C 0.04031 0.15275 0.0585 0.0
C60 C 0.252 0.66542 0.23351 0.0
C61 C 0.23283 0.66258 0.22538 0.0
C62 C 0.22533 0.67793 0.21492 0.0
C63 C 0.25606 0.69842 0.22072 0.0
C64 C 0.26325 0.68338 0.23109 0.0
C65 C 0.28361 0.68895 0.23945 0.0
H66 H 0.36305 0.75576 0.25085 0.0
C67 C 0.27154 0.71516 0.22105 0.0
C68 C 0.28766 0.70969 0.23204 0.0
H69 H 0.3529 0.69871 0.27674 0.0
H70 H 0.32133 0.69302 0.25992 0.0
H71 H 0.32002 0.76889 0.25916 0.0
H72 H 0.34459 0.74191 0.20672 0.0
H73 H 0.32981 0.76049 0.19927 0.0
H74 H 0.35115 0.76726 0.21488 0.0
H75 H 0.33704 0.78247 0.24351 0.0
H76 H 0.31067 0.78041 0.23884 0.0
C77 C 0.28232 0.6891 0.26235 0.0
C78 C 0.2979 0.67426 0.23018 0.0
C79 C 0.26077 0.77686 0.18377 0.0
C80 C 0.27294 0.79421 0.18031 0.0
C81 C 0.29178 0.79699 0.18945 0.0
C82 C 0.29857 0.78257 0.20141 0.0
C83 C 0.28644 0.76509 0.20426 0.0
C84 C 0.26783 0.76254 0.19563 0.0
C85 C 0.25715 0.74285 0.19994 0.0
C86 C 0.27249 0.73396 0.21246 0.0
C87 C 0.2896 0.74706 0.21497 0.0
C88 C 0.23821 0.74689 0.21185 0.0
C89 C 0.25322 0.73082 0.18006 0.0
C90 C 0.35405 0.74195 0.25254 0.0
C91 C 0.36033 0.72752 0.26485 0.0
C92 C 0.34823 0.7099 0.26719 0.0
C93 C 0.32991 0.7067 0.25749 0.0
C94 C 0.32352 0.72141 0.24553 0.0
C95 C 0.3355 0.73868 0.24321 0.0
C96 C 0.32575 0.75302 0.23073 0.0
C97 C 0.30594 0.74152 0.22609 0.0
C98 C 0.30486 0.72298 0.23465 0.0
C99 C 0.32329 0.77232 0.24354 0.0
C100 C 0.33844 0.75605 0.21193 0.0
H101 H 0.23037 0.70693 0.20437 0.0
H102 H 0.25798 0.65404 0.24197 0.0
H103 H 0.29453 0.67114 0.21419 0.0
H104 H 0.3136 0.68014 0.23076 0.0
H105 H 0.29643 0.65987 0.23751 0.0
H106 H 0.2672 0.69208 0.26763 0.0
H107 H 0.2858 0.67458 0.26796 0.0
H108 H 0.29219 0.7011 0.26968 0.0
H109 H 0.24615 0.77432 0.17714 0.0
H110 H 0.30159 0.81005 0.18682 0.0
H111 H 0.31314 0.78545 0.20769 0.0
H112 H 0.24087 0.76027 0.22205 0.0
H113 H 0.22574 0.74954 0.20187 0.0
H114 H 0.23344 0.73473 0.22153 0.0
H115 H 0.26588 0.7334 0.16977 0.0
H116 H 0.25176 0.71459 0.18167 0.0
H117 H 0.23969 0.73527 0.17267 0.0
H118 H 0.21057 0.67601 0.20851 0.0
C119 C 0.23686 0.69582 0.21251 0.0
C120 C 0.9354 0.39323 0.02806 0.0
C121 C 0.92445 0.39166 0.01032 0.0
C122 C 0.9102 0.40545 0.00738 0.0
C123 C 0.91904 0.42254 0.0389 0.0
C124 C 0.93237 0.40853 0.04206 0.0
C125 C 0.94327 0.41226 0.06134 0.0
H126 H 0.96811 0.47316 0.14049 0.0
C127 C 0.9206 0.43724 0.05589 0.0
C128 C 0.9346 0.4311 0.06914 0.0
H129 H 0.99011 0.41628 0.12399 0.0
H130 H 0.96688 0.41186 0.09685 0.0
H131 H 0.92077 0.45868 0.13256 0.0
H132 H 0.96634 0.48835 0.09785 0.0
H133 H 0.94446 0.50013 0.09437 0.0
H134 H 0.95516 0.5004 0.11875 0.0
H135 H 0.92947 0.48423 0.13757 0.0
H136 H 0.90972 0.47717 0.12003 0.0
C137 C 0.93774 0.39451 0.0745 0.0
C138 C 0.96573 0.41575 0.05677 0.0
C139 C 0.88415 0.50019 0.05457 0.0
C140 C 0.8842 0.51727 0.06735 0.0
C141 C 0.89508 0.51796 0.08516 0.0
C142 C 0.90605 0.50209 0.08999 0.0
C143 C 0.90633 0.48539 0.07678 0.0
C144 C 0.89529 0.48452 0.05954 0.0
C145 C 0.89757 0.46571 0.04717 0.0
C146 C 0.91188 0.45549 0.05978 0.0
C147 C 0.91704 0.46715 0.07706 0.0
C148 C 0.87705 0.45383 0.04537 0.0
C149 C 0.90681 0.47155 0.02714 0.0
C150 C 0.96761 0.45957 0.13125 0.0
C151 C 0.98103 0.44509 0.13426 0.0
C152 C 0.98009 0.42774 0.12178 0.0
C153 C 0.96657 0.42521 0.10605 0.0
C154 C 0.95395 0.44027 0.1026 0.0
C155 C 0.95425 0.45687 0.11536 0.0
C156 C 0.93988 0.47138 0.10921 0.0
C157 C 0.93111 0.46082 0.09051 0.0
C158 C 0.93959 0.44275 0.08667 0.0
C159 C 0.92415 0.47318 0.12567 0.0
C160 C 0.95191 0.4912 0.10491 0.0
H161 H 0.89657 0.43103 0.01839 0.0
H162 H 0.9467 0.3832 0.03082 0.0
H163 H 0.96812 0.42431 0.04323 0.0
H164 H 0.97419 0.42471 0.06844 0.0
H165 H 0.97256 0.40142 0.05423 0.0
H166 H 0.92259 0.38757 0.07099 0.0
H167 H 0.94825 0.38275 0.07235 0.0
H168 H 0.93717 0.39906 0.0904 0.0
H169 H 0.87611 0.49928 0.04068 0.0
H170 H 0.89514 0.53083 0.09535 0.0
H171 H 0.91413 0.50358 0.10368 0.0
H172 H 0.86836 0.4557 0.05919 0.0
H173 H 0.86821 0.45897 0.03305 0.0
H174 H 0.87819 0.43764 0.04329 0.0
H175 H 0.91858 0.48393 0.02939 0.0
H176 H 0.91422 0.45942 0.01947 0.0
H177 H 0.89542 0.47658 0.01711 0.0
H178 H 0.90126 0.40444 0.99404 0.0
C179 C 0.90743 0.42086 0.02157 0.0
C180 C 0.6739 0.79543 0.29144 0.0
C181 C 0.66361 0.77656 0.29183 0.0
C182 C 0.66816 0.76163 0.27763 0.0
C183 C 0.69213 0.78479 0.26247 0.0
C184 C 0.68791 0.79923 0.27668 0.0
C185 C 0.6992 0.81888 0.27365 0.0
H186 H 0.76266 0.87566 0.21904 0.0
C187 C 0.70646 0.79405 0.24851 0.0
C188 C 0.71054 0.81404 0.25497 0.0
H189 H 0.73562 0.89153 0.27477 0.0
H190 H 0.7184 0.85887 0.27528 0.0
H191 H 0.72411 0.85107 0.19913 0.0
H192 H 0.77383 0.83328 0.23174 0.0
H193 H 0.76932 0.8158 0.21188 0.0
H194 H 0.77593 0.84144 0.20695 0.0
H195 H 0.74821 0.84975 0.18829 0.0
H196 H 0.73035 0.82839 0.188 0.0
C197 C 0.68401 0.83445 0.27033 0.0
C198 C 0.71323 0.82389 0.29165 0.0
C199 C 0.73107 0.75354 0.18944 0.0
C200 C 0.74307 0.75864 0.17316 0.0
C201 C 0.75075 0.7786 0.17191 0.0
C202 C 0.74684 0.79306 0.18658 0.0
C203 C 0.73491 0.78771 0.2027 0.0
C204 C 0.72705 0.76829 0.20385 0.0
C205 C 0.71365 0.7657 0.22145 0.0
C206 C 0.71533 0.78662 0.23094 0.0
C207 C 0.72789 0.7994 0.21991 0.0
C208 C 0.69235 0.75938 0.21379 0.0
C209 C 0.72236 0.75064 0.23489 0.0
C210 C 0.75275 0.87211 0.23115 0.0
C211 C 0.75029 0.88609 0.24682 0.0
C212 C 0.73767 0.8809 0.26257 0.0
C213 C 0.72776 0.86193 0.26285 0.0
C214 C 0.73065 0.84792 0.2473 0.0
C215 C 0.74298 0.85309 0.2318 0.0
C216 C 0.74505 0.83593 0.21712 0.0
C217 C 0.73197 0.81961 0.22642 0.0
C218 C 0.72346 0.82681 0.24395 0.0
C219 C 0.73667 0.84147 0.19699 0.0
C220 C 0.76716 0.83132 0.21668 0.0
H221 H 0.68516 0.75373 0.25253 0.0
H222 H 0.67052 0.80732 0.3019 0.0
H223 H 0.71764 0.81017 0.29835 0.0
H224 H 0.72743 0.83189 0.28758 0.0
H225 H 0.70596 0.8328 0.30337 0.0
H226 H 0.67134 0.82781 0.26108 0.0
H227 H 0.67791 0.84 0.28459 0.0
H228 H 0.69023 0.84728 0.26224 0.0
H229 H 0.72485 0.73844 0.19098 0.0
H230 H 0.75949 0.78324 0.15933 0.0
H231 H 0.7531 0.80792 0.18466 0.0
H232 H 0.68962 0.76574 0.19928 0.0
H233 H 0.68987 0.74295 0.21177 0.0
H234 H 0.68075 0.76499 0.22357 0.0
H235 H 0.73876 0.75355 0.23615 0.0
H236 H 0.71678 0.75165 0.25018 0.0
H237 H 0.71916 0.73516 0.22876 0.0
H238 H 0.66049 0.74694 0.27771 0.0
C239 C 0.68244 0.76562 0.26302 0.0
C240 C 0.05067 0.9321 0.49926 0.0
C241 C 0.03193 0.92208 0.50153 0.0
C242 C 0.01616 0.92613 0.48916 0.0
C243 C 0.03784 0.95033 0.47266 0.0
C244 C 0.05322 0.9463 0.48494 0.0
C245 C 0.07175 0.95949 0.4817 0.0
H246 H 0.11857 0.03535 0.43448 0.0
C247 C 0.04522 0.96645 0.45996 0.0
C248 C 0.06502 0.97199 0.46533 0.0
H249 H 0.1401 0.00339 0.48301 0.0
H250 H 0.11006 0.98198 0.48228 0.0
H251 H 0.07806 0.04046 0.45223 0.0
H252 H 0.09559 0.99591 0.40962 0.0
H253 H 0.07332 0.00475 0.40143 0.0
H254 H 0.0951 0.02175 0.40466 0.0
H255 H 0.08057 0.04535 0.42654 0.0
H256 H 0.05756 0.03477 0.43653 0.0
C257 C 0.0767 0.97212 0.50111 0.0
C258 C 0.08824 0.94615 0.47463 0.0
C259 C 7e-05 0.99114 0.40801 0.0
C260 C 0.00237 0.00677 0.39495 0.0
C261 C 0.02059 0.01853 0.39496 0.0
C262 C 0.03623 0.01464 0.4074 0.0
C263 C 0.03364 0.99902 0.4203 0.0
C264 C 0.01572 0.98771 0.42063 0.0
C265 C 0.01528 0.9725 0.43617 0.0
C266 C 0.03607 0.97627 0.44475 0.0
C267 C 0.04677 0.99171 0.43528 0.0
C268 C 0.9991 0.97738 0.45151 0.0
C269 C 0.01199 0.95159 0.42575 0.0
C270 C 0.11687 0.02376 0.44498 0.0
C271 C 0.13193 0.02114 0.45877 0.0
C272 C 0.12903 0.00562 0.47195 0.0
C273 C 0.11139 0.99331 0.4717 0.0
C274 C 0.09625 0.99664 0.45836 0.0
C275 C 0.09916 0.01156 0.4452 0.0
C276 C 0.08103 0.01354 0.43277 0.0
C277 C 0.06676 0.99739 0.44076 0.0
C278 C 0.07582 0.98751 0.45565 0.0
C279 C 0.0739 0.03461 0.43702 0.0
C280 C 0.08642 0.00889 0.41091 0.0
H281 H 0.00653 0.94257 0.46556 0.0
H282 H 0.0629 0.92939 0.50886 0.0
H283 H 0.08215 0.93417 0.46393 0.0
H284 H 0.10031 0.9543 0.46668 0.0
H285 H 0.09469 0.93892 0.48726 0.0
H286 H 0.06314 0.97428 0.51 0.0
H287 H 0.08719 0.96487 0.51052 0.0
H288 H 0.0829 0.98739 0.49842 0.0
H289 H 0.98642 0.98165 0.40843 0.0
H290 H 0.02277 0.03099 0.38552 0.0
H291 H 0.04967 0.02411 0.40661 0.0
H292 H 0.99658 0.99348 0.45215 0.0
H293 H 0.98469 0.96898 0.44777 0.0
H294 H 0.00338 0.97439 0.46677 0.0
H295 H 0.02142 0.95054 0.41234 0.0
H296 H 0.0161 0.93961 0.43508 0.0
H297 H 0.99627 0.9484 0.42102 0.0
H298 H 0.00161 0.91845 0.4908 0.0
C299 C 0.01906 0.94011 0.4746 0.0
C300 C 0.2623 0.7009 0.8012 0.0
C301 C 0.26191 0.68701 0.78496 0.0
C302 C 0.2477 0.68847 0.76986 0.0
C303 C 0.23489 0.7169 0.78737 0.0
C304 C 0.24849 0.71526 0.80231 0.0
C305 C 0.24563 0.72946 0.81966 0.0
H306 H 0.19659 0.80393 0.86188 0.0
C307 C 0.22264 0.73342 0.79321 0.0
C308 C 0.22878 0.74068 0.8122 0.0
H309 H 0.24034 0.77017 0.88846 0.0
H310 H 0.24388 0.75124 0.85762 0.0
H311 H 0.17271 0.76549 0.8395 0.0
H312 H 0.21752 0.80927 0.82081 0.0
H313 H 0.20238 0.80289 0.80003 0.0
H314 H 0.19186 0.81423 0.82193 0.0
H315 H 0.16871 0.79127 0.83728 0.0
H316 H 0.16543 0.77368 0.81653 0.0
C317 C 0.23946 0.71714 0.83776 0.0
C318 C 0.26492 0.74319 0.82276 0.0
C319 C 0.16927 0.75394 0.74696 0.0
C320 C 0.15634 0.76933 0.74829 0.0
C321 C 0.15825 0.78326 0.76453 0.0
C322 C 0.172 0.78136 0.77962 0.0
C323 C 0.1841 0.7654 0.77855 0.0
C324 C 0.18309 0.75237 0.76215 0.0
C325 C 0.19788 0.73688 0.76323 0.0
C326 C 0.20749 0.7425 0.78323 0.0
C327 C 0.19909 0.75903 0.79222 0.0
C328 C 0.18638 0.7161 0.7629 0.0
C329 C 0.21272 0.73978 0.74604 0.0
C330 C 0.20692 0.79245 0.86093 0.0
C331 C 0.21818 0.78838 0.87745 0.0
C332 C 0.2314 0.77331 0.87587 0.0
C333 C 0.23341 0.76237 0.85798 0.0
C334 C 0.22178 0.7663 0.84163 0.0
C335 C 0.20876 0.78107 0.84328 0.0
C336 C 0.19699 0.78254 0.82463 0.0
C337 C 0.2049 0.76599 0.81164 0.0
C338 C 0.21954 0.75672 0.82161 0.0
C339 C 0.17475 0.77815 0.82959 0.0
C340 C 0.20225 0.80331 0.81639 0.0
H341 H 0.22389 0.7036 0.75902 0.0
H342 H 0.27296 0.70061 0.81308 0.0
H343 H 0.27058 0.74851 0.80837 0.0
H344 H 0.26276 0.75671 0.83208 0.0
H345 H 0.27671 0.73515 0.82956 0.0
H346 H 0.23327 0.70184 0.83323 0.0
H347 H 0.25231 0.71568 0.84767 0.0
H348 H 0.22743 0.72358 0.84643 0.0
H349 H 0.16827 0.74297 0.73473 0.0
H350 H 0.14894 0.7956 0.76568 0.0
H351 H 0.17246 0.79227 0.7917 0.0
H352 H 0.17205 0.71672 0.77089 0.0
H353 H 0.18299 0.71038 0.74751 0.0
H354 H 0.19438 0.70504 0.77056 0.0
H355 H 0.21669 0.75588 0.74413 0.0
H356 H 0.22695 0.73336 0.74861 0.0
H357 H 0.20622 0.73327 0.73189 0.0
H358 H 0.24646 0.67779 0.7574 0.0
C359 C 0.23437 0.7034 0.7709 0.0
C360 C 0.88468 0.52747 0.48128 0.0
C361 C 0.88156 0.50863 0.47151 0.0
C362 C 0.89395 0.50374 0.45554 0.0
C363 C 0.91192 0.5362 0.4593 0.0
C364 C 0.8999 0.54088 0.47504 0.0
C365 C 0.90544 0.56123 0.4843 0.0
H366 H 0.9662 0.64555 0.48706 0.0
C367 C 0.92612 0.55357 0.45649 0.0
C368 C 0.92238 0.56827 0.47107 0.0
H369 H 0.9207 0.62733 0.52882 0.0
H370 H 0.91166 0.59791 0.50836 0.0
H371 H 0.94192 0.63222 0.44767 0.0
H372 H 0.98321 0.6026 0.48196 0.0
H373 H 0.98954 0.59956 0.45687 0.0
H374 H 0.99007 0.62418 0.46827 0.0
H375 H 0.96822 0.63758 0.44553 0.0
H376 H 0.95504 0.61778 0.43073 0.0
C377 C 0.88745 0.57389 0.48248 0.0
C378 C 0.91241 0.55885 0.50585 0.0
C379 C 0.97806 0.55101 0.40254 0.0
C380 C 0.9927 0.56513 0.39595 0.0
C381 C 0.99379 0.58462 0.40461 0.0
C382 C 0.9811 0.58973 0.42002 0.0
C383 C 0.96709 0.57525 0.42689 0.0
C384 C 0.96536 0.55643 0.41781 0.0
C385 C 0.94883 0.54334 0.42635 0.0
C386 C 0.94137 0.55724 0.44246 0.0
C387 C 0.95234 0.57579 0.44288 0.0
C388 C 0.93305 0.53793 0.40994 0.0
C389 C 0.95788 0.52521 0.43496 0.0
C390 C 0.95433 0.6352 0.49185 0.0
C391 C 0.94426 0.6388 0.50968 0.0
C392 C 0.9286 0.62511 0.51509 0.0
C393 C 0.92351 0.60785 0.5033 0.0
C394 C 0.93432 0.60406 0.48601 0.0
C395 C 0.9493 0.61772 0.48043 0.0
C396 C 0.95972 0.61081 0.46205 0.0
C397 C 0.9488 0.59054 0.45781 0.0
C398 C 0.93391 0.58675 0.47184 0.0
C399 C 0.95625 0.62534 0.44559 0.0
C400 C 0.98184 0.60926 0.46736 0.0
H401 H 0.91801 0.51282 0.43716 0.0
H402 H 0.87534 0.53186 0.49346 0.0
H403 H 0.91802 0.544 0.50771 0.0
H404 H 0.92505 0.56953 0.51032 0.0
H405 H 0.90008 0.56046 0.51649 0.0
H406 H 0.88034 0.57119 0.46767 0.0
H407 H 0.87606 0.57007 0.49377 0.0
H408 H 0.8916 0.59004 0.48384 0.0
H409 H 0.97674 0.53589 0.3963 0.0
H410 H 0.0045 0.59598 0.39948 0.0
H411 H 0.98282 0.60473 0.42612 0.0
H412 H 0.93227 0.55028 0.39974 0.0
H413 H 0.93662 0.5245 0.40093 0.0
H414 H 0.91785 0.53556 0.41581 0.0
H415 H 0.97236 0.5298 0.4423 0.0
H416 H 0.9486 0.51826 0.44652 0.0
H417 H 0.96052 0.51375 0.42313 0.0
H418 H 0.89207 0.48923 0.44792 0.0
C419 C 0.90906 0.51743 0.44936 0.0
C420 C 0.80378 0.78596 0.86475 0.0
C421 C 0.78767 0.78439 0.87779 0.0
C422 C 0.77039 0.79381 0.87354 0.0
C423 C 0.78523 0.80558 0.84328 0.0
C424 C 0.80218 0.79642 0.84759 0.0
C425 C 0.81747 0.79836 0.83158 0.0
H426 H 0.84346 0.82815 0.74076 0.0
C427 C 0.78803 0.81435 0.82382 0.0
C428 C 0.80682 0.81001 0.81684 0.0
H429 H 0.87824 0.79832 0.78201 0.0
H430 H 0.85177 0.79889 0.80582 0.0
H431 H 0.82855 0.85951 0.7733 0.0
H432 H 0.80122 0.80405 0.7486 0.0
H433 H 0.78292 0.82118 0.75008 0.0
H434 H 0.80442 0.82609 0.7348 0.0
H435 H 0.81802 0.85723 0.74889 0.0
H436 H 0.80325 0.86271 0.77035 0.0
C437 C 0.83617 0.81041 0.8404 0.0
C438 C 0.8211 0.77718 0.82319 0.0
C439 C 0.73549 0.85532 0.7964 0.0
C440 C 0.73426 0.86567 0.77897 0.0
C441 C 0.74888 0.86355 0.76433 0.0
C442 C 0.76492 0.85211 0.7674 0.0
C443 C 0.76642 0.84267 0.78531 0.0
C444 C 0.75161 0.84396 0.79924 0.0
C445 C 0.75554 0.83269 0.81727 0.0
C446 C 0.77561 0.82523 0.81222 0.0
C447 C 0.78191 0.83114 0.7935 0.0
C448 C 0.75674 0.84751 0.8355 0.0
C449 C 0.73914 0.81541 0.81852 0.0
C450 C 0.84524 0.82167 0.75492 0.0
C451 C 0.86283 0.81308 0.75956 0.0
C452 C 0.86483 0.80511 0.77821 0.0
C453 C 0.84941 0.80537 0.79196 0.0
C454 C 0.8318 0.81378 0.78705 0.0
C455 C 0.83003 0.822 0.76891 0.0
C456 C 0.81061 0.83116 0.76673 0.0
C457 C 0.80084 0.82657 0.78634 0.0
C458 C 0.81328 0.81627 0.79807 0.0
C459 C 0.81517 0.85381 0.76456 0.0
C460 C 0.79912 0.82024 0.74907 0.0
H461 H 0.75557 0.81128 0.85393 0.0
H462 H 0.81711 0.77857 0.86747 0.0
H463 H 0.80698 0.76751 0.82244 0.0
H464 H 0.82672 0.77693 0.8079 0.0
H465 H 0.8316 0.77004 0.83269 0.0
H466 H 0.83214 0.8213 0.8523 0.0
H467 H 0.8465 0.80048 0.84692 0.0
H468 H 0.84424 0.81956 0.82945 0.0
H469 H 0.72462 0.8567 0.80802 0.0
H470 H 0.74809 0.87104 0.75061 0.0
H471 H 0.77571 0.85135 0.75584 0.0
H472 H 0.76525 0.86165 0.83191 0.0
H473 H 0.7417 0.85115 0.84034 0.0
H474 H 0.76457 0.84202 0.84817 0.0
H475 H 0.73328 0.81034 0.80361 0.0
H476 H 0.74469 0.80197 0.82458 0.0
H477 H 0.72642 0.82002 0.82754 0.0
H478 H 0.75783 0.79282 0.88345 0.0
C479 C 0.76911 0.80447 0.85639 0.0
C480 C 0.29798 0.28399 0.36787 0.0
C481 C 0.28154 0.28211 0.38046 0.0
C482 C 0.26429 0.29142 0.37586 0.0
C483 C 0.27987 0.30378 0.34617 0.0
C484 C 0.29677 0.29467 0.35081 0.0
C485 C 0.31249 0.29692 0.33527 0.0
H486 H 0.34119 0.32871 0.24596 0.0
C487 C 0.28318 0.31285 0.32691 0.0
C488 C 0.3022 0.30871 0.3204 0.0
H489 H 0.37464 0.2977 0.28739 0.0
H490 H 0.34746 0.29768 0.3104 0.0
H491 H 0.32494 0.35919 0.27876 0.0
H492 H 0.29927 0.30415 0.25164 0.0
H493 H 0.28038 0.32061 0.2534 0.0
H494 H 0.30206 0.32676 0.23871 0.0
H495 H 0.31568 0.35734 0.25385 0.0
H496 H 0.2998 0.3623 0.2746 0.0
C497 C 0.33088 0.30896 0.34473 0.0
C498 C 0.31646 0.27587 0.32674 0.0
C499 C 0.23146 0.35429 0.29844 0.0
C500 C 0.2308 0.36482 0.28105 0.0
C501 C 0.24584 0.36279 0.26684 0.0
C502 C 0.26176 0.35134 0.27031 0.0
C503 C 0.26273 0.34176 0.28819 0.0
C504 C 0.24749 0.34289 0.30168 0.0
C505 C 0.25086 0.3313 0.31966 0.0
C506 C 0.27108 0.32391 0.31512 0.0
C507 C 0.27795 0.33013 0.29669 0.0
C508 C 0.2515 0.34582 0.3381 0.0
C509 C 0.23441 0.31399 0.3202 0.0
C510 C 0.34255 0.32184 0.25997 0.0
C511 C 0.35998 0.31312 0.2649 0.0
C512 C 0.36139 0.30463 0.28338 0.0
C513 C 0.34554 0.30454 0.29666 0.0
C514 C 0.3281 0.3131 0.29146 0.0
C515 C 0.3269 0.32178 0.27349 0.0
C516 C 0.30751 0.33085 0.27086 0.0
C517 C 0.29711 0.32578 0.29003 0.0
C518 C 0.30921 0.3153 0.30194 0.0
C519 C 0.31204 0.35359 0.26928 0.0
C520 C 0.29667 0.32024 0.25264 0.0
H521 H 0.24987 0.30906 0.35607 0.0
H522 H 0.31129 0.27666 0.37082 0.0
H523 H 0.30246 0.26602 0.32578 0.0
H524 H 0.32219 0.27584 0.31149 0.0
H525 H 0.32698 0.26878 0.33625 0.0
H526 H 0.32642 0.31986 0.35642 0.0
H527 H 0.34092 0.29902 0.35167 0.0
H528 H 0.33939 0.31808 0.33406 0.0
H529 H 0.2202 0.35554 0.3097 0.0
H530 H 0.24548 0.37035 0.25313 0.0
H531 H 0.27289 0.35069 0.25907 0.0
H532 H 0.26033 0.35994 0.33505 0.0
H533 H 0.23633 0.34955 0.3424 0.0
H534 H 0.2587 0.34 0.35098 0.0
H535 H 0.22912 0.30907 0.30505 0.0
H536 H 0.23973 0.3005 0.32636 0.0
H537 H 0.22137 0.31851 0.32877 0.0
H538 H 0.25146 0.29016 0.38543 0.0
C539 C 0.2634 0.30233 0.35882 0.0
C540 C 0.44174 0.89456 0.52988 0.0
C541 C 0.43013 0.89226 0.51257 0.0
C542 C 0.41563 0.9058 0.50965 0.0
C543 C 0.42535 0.92393 0.54041 0.0
C544 C 0.43902 0.91024 0.54353 0.0
C545 C 0.45051 0.91469 0.56238 0.0
H546 H 0.47465 0.97651 0.64124 0.0
C547 C 0.42719 0.93906 0.55701 0.0
C548 C 0.44175 0.93354 0.56999 0.0
H549 H 0.49878 0.92083 0.62413 0.0
H550 H 0.47575 0.91592 0.59684 0.0
H551 H 0.42753 0.96097 0.63268 0.0
H552 H 0.47285 0.99189 0.59862 0.0
H553 H 0.45059 0.00271 0.59431 0.0
H554 H 0.46075 0.00385 0.61899 0.0
H555 H 0.43638 0.98637 0.63839 0.0
H556 H 0.41657 0.97996 0.62079 0.0
C557 C 0.44573 0.89726 0.57615 0.0
C558 C 0.47278 0.91841 0.55705 0.0
C559 C 0.38893 0.00077 0.55561 0.0
C560 C 0.38888 0.01807 0.56805 0.0
C561 C 0.40031 0.01945 0.58555 0.0
C562 C 0.41188 0.00403 0.59039 0.0
C563 C 0.41219 0.98708 0.57751 0.0
C564 C 0.40066 0.98556 0.56057 0.0
C565 C 0.40307 0.96663 0.54846 0.0
C566 C 0.41809 0.95711 0.56085 0.0
C567 C 0.42342 0.96918 0.57782 0.0
C568 C 0.3828 0.95422 0.54751 0.0
C569 C 0.41152 0.97224 0.52805 0.0
C570 C 0.47467 0.9631 0.63179 0.0
C571 C 0.48851 0.94901 0.63476 0.0
C572 C 0.48834 0.93192 0.62199 0.0
C573 C 0.47493 0.92911 0.60618 0.0
C574 C 0.46166 0.94365 0.60294 0.0
C575 C 0.46147 0.96016 0.61579 0.0
C576 C 0.44665 0.97425 0.60968 0.0
C577 C 0.438 0.96342 0.59106 0.0
C578 C 0.44696 0.94561 0.58719 0.0
C579 C 0.43096 0.97568 0.62622 0.0
C580 C 0.45813 0.99432 0.60526 0.0
H581 H 0.40207 0.93153 0.52034 0.0
H582 H 0.45325 0.88473 0.53256 0.0
H583 H 0.47457 0.92612 0.54295 0.0
H584 H 0.4813 0.92827 0.56801 0.0
H585 H 0.47994 0.90419 0.55519 0.0
H586 H 0.43037 0.89039 0.5736 0.0
H587 H 0.45603 0.88538 0.57354 0.0
H588 H 0.44612 0.90209 0.59199 0.0
H589 H 0.38049 0.99934 0.54194 0.0
H590 H 0.40034 0.03252 0.59548 0.0
H591 H 0.42035 0.00602 0.60384 0.0
H592 H 0.37446 0.95621 0.56153 0.0
H593 H 0.37343 0.95878 0.53531 0.0
H594 H 0.38432 0.93806 0.54576 0.0
H595 H 0.42296 0.98499 0.52971 0.0
H596 H 0.41912 0.96021 0.52043 0.0
H597 H 0.39964 0.97664 0.51822 0.0
H598 H 0.40623 0.90424 0.49662 0.0
C599 C 0.41317 0.9216 0.52348 0.0
C600 C 0.17011 0.2987 0.78269 0.0
C601 C 0.15986 0.28001 0.78472 0.0
C602 C 0.16487 0.26378 0.77234 0.0
C603 C 0.18973 0.28509 0.75607 0.0
C604 C 0.18482 0.3009 0.76833 0.0
C605 C 0.19653 0.31999 0.76394 0.0
H606 H 0.26998 0.36817 0.71336 0.0
C607 C 0.20533 0.29263 0.74242 0.0
C608 C 0.20928 0.31308 0.74697 0.0
H609 H 0.23302 0.39221 0.75917 0.0
H610 H 0.21423 0.36042 0.76075 0.0
H611 H 0.23509 0.34548 0.68932 0.0
H612 H 0.27498 0.32564 0.73216 0.0
H613 H 0.27328 0.30809 0.71198 0.0
H614 H 0.28225 0.33336 0.70805 0.0
H615 H 0.25903 0.33791 0.68236 0.0
H616 H 0.23743 0.32036 0.6826 0.0
C617 C 0.18188 0.33502 0.75743 0.0
C618 C 0.20908 0.32695 0.78253 0.0
C619 C 0.23343 0.2462 0.68989 0.0
C620 C 0.24696 0.24953 0.67434 0.0
C621 C 0.25623 0.26885 0.67263 0.0
C622 C 0.25213 0.28445 0.68595 0.0
C623 C 0.23838 0.28094 0.70111 0.0
C624 C 0.22922 0.26211 0.7029 0.0
C625 C 0.21414 0.26158 0.71928 0.0
C626 C 0.21582 0.28319 0.72691 0.0
C627 C 0.2302 0.29437 0.71628 0.0
C628 C 0.19346 0.25528 0.71007 0.0
C629 C 0.22086 0.24756 0.73494 0.0
C630 C 0.2578 0.3665 0.72369 0.0
C631 C 0.253 0.38254 0.73628 0.0
C632 C 0.23687 0.38001 0.74929 0.0
C633 C 0.22611 0.36151 0.75029 0.0
C634 C 0.23148 0.34539 0.73807 0.0
C635 C 0.24679 0.34815 0.72474 0.0
C636 C 0.24986 0.32955 0.71238 0.0
C637 C 0.23438 0.31496 0.72106 0.0
C638 C 0.22381 0.32429 0.73618 0.0
C639 C 0.24528 0.33342 0.6905 0.0
C640 C 0.27123 0.32379 0.71615 0.0
H641 H 0.18294 0.25332 0.74907 0.0
H642 H 0.16633 0.31155 0.79171 0.0
H643 H 0.21504 0.31406 0.78948 0.0
H644 H 0.22226 0.3369 0.77923 0.0
H645 H 0.19998 0.33456 0.79376 0.0
H646 H 0.16861 0.32726 0.7499 0.0
H647 H 0.17658 0.34391 0.77032 0.0
H648 H 0.18834 0.34521 0.74643 0.0
H649 H 0.22602 0.23162 0.6918 0.0
H650 H 0.26625 0.2722 0.66058 0.0
H651 H 0.25961 0.29874 0.68369 0.0
H652 H 0.19212 0.26128 0.69516 0.0
H653 H 0.1909 0.23884 0.70838 0.0
H654 H 0.18118 0.26121 0.71866 0.0
H655 H 0.23722 0.24962 0.73718 0.0
H656 H 0.21445 0.25055 0.74967 0.0
H657 H 0.21703 0.23174 0.73023 0.0
H658 H 0.15719 0.24922 0.77368 0.0
C659 C 0.17981 0.2662 0.75808 0.0
C660 C 0.74607 0.16927 0.73681 0.0
C661 C 0.7265 0.16659 0.7297 0.0
C662 C 0.71846 0.18208 0.71992 0.0
C663 C 0.74955 0.20233 0.72415 0.0
C664 C 0.75723 0.18719 0.73399 0.0
C665 C 0.778 0.19262 0.74133 0.0
H666 H 0.85809 0.25903 0.74899 0.0
C667 C 0.76512 0.21892 0.72368 0.0
C668 C 0.78177 0.21334 0.73378 0.0
H669 H 0.84881 0.20228 0.77562 0.0
H670 H 0.81661 0.19658 0.76006 0.0
H671 H 0.81507 0.27253 0.75869 0.0
H672 H 0.83818 0.24481 0.70589 0.0
H673 H 0.82256 0.26268 0.69846 0.0
H674 H 0.84442 0.27049 0.71303 0.0
H675 H 0.83232 0.2855 0.74278 0.0
H676 H 0.80594 0.28428 0.73837 0.0
C677 C 0.77787 0.19279 0.76427 0.0
C678 C 0.79173 0.17783 0.73131 0.0
C679 C 0.75305 0.28012 0.68623 0.0
C680 C 0.76534 0.29697 0.68142 0.0
C681 C 0.78469 0.29964 0.68948 0.0
C682 C 0.79183 0.28551 0.70158 0.0
C683 C 0.7796 0.26842 0.70562 0.0
C684 C 0.7605 0.26602 0.69809 0.0
C685 C 0.74988 0.24657 0.70321 0.0
C686 C 0.76578 0.23763 0.71494 0.0
C687 C 0.78312 0.25053 0.71639 0.0
C688 C 0.73173 0.25107 0.71614 0.0
C689 C 0.74467 0.23431 0.68368 0.0
C690 C 0.84914 0.24528 0.75112 0.0
C691 C 0.85584 0.23096 0.76331 0.0
C692 C 0.8438 0.21341 0.76619 0.0
C693 C 0.82512 0.21021 0.75722 0.0
C694 C 0.81829 0.22485 0.74546 0.0
C695 C 0.83023 0.24203 0.74253 0.0
C696 C 0.82003 0.25628 0.73032 0.0
C697 C 0.79996 0.24491 0.72669 0.0
C698 C 0.79917 0.22646 0.73542 0.0
C699 C 0.81829 0.27578 0.74302 0.0
C700 C 0.83187 0.25892 0.71093 0.0
H701 H 0.72302 0.21115 0.70944 0.0
H702 H 0.75245 0.15777 0.74479 0.0
H703 H 0.78768 0.17488 0.71546 0.0
H704 H 0.80749 0.18352 0.73132 0.0
H705 H 0.79042 0.16337 0.73854 0.0
H706 H 0.763 0.1956 0.77033 0.0
H707 H 0.78185 0.17835 0.76967 0.0
H708 H 0.78795 0.20492 0.77113 0.0
H709 H 0.73806 0.27766 0.68048 0.0
H710 H 0.79463 0.31227 0.68582 0.0
H711 H 0.80678 0.28825 0.70696 0.0
H712 H 0.73514 0.26453 0.72607 0.0
H713 H 0.71877 0.25382 0.70685 0.0
H714 H 0.72737 0.23909 0.72618 0.0
H715 H 0.75666 0.23667 0.6726 0.0
H716 H 0.74328 0.21812 0.68549 0.0
H717 H 0.73073 0.23874 0.6771 0.0
H718 H 0.70337 0.18028 0.71434 0.0
C719 C 0.72991 0.19993 0.71705 0.0
C720 C 0.56803 0.64691 0.53333 0.0
C721 C 0.55354 0.66072 0.53264 0.0
C722 C 0.5412 0.66342 0.54919 0.0
C723 C 0.55673 0.63778 0.56591 0.0
C724 C 0.56935 0.63565 0.55005 0.0
C725 C 0.58322 0.61962 0.5528 0.0
H726 H 0.6076 0.54124 0.60353 0.0
C727 C 0.56094 0.62289 0.58027 0.0
C728 C 0.5766 0.61232 0.57279 0.0
H729 H 0.63389 0.56316 0.54986 0.0
H730 H 0.61388 0.59119 0.55203 0.0
H731 H 0.60832 0.58369 0.6268 0.0
H732 H 0.56289 0.54913 0.59286 0.0
H733 H 0.55204 0.55817 0.61473 0.0
H734 H 0.57185 0.54205 0.61625 0.0
H735 H 0.59393 0.56319 0.63693 0.0
H736 H 0.58575 0.58806 0.63839 0.0
C737 C 0.60477 0.62934 0.55349 0.0
C738 C 0.57912 0.60345 0.53595 0.0
C739 C 0.51529 0.6125 0.63903 0.0
C740 C 0.51438 0.5986 0.65386 0.0
C741 C 0.52966 0.58563 0.65509 0.0
C742 C 0.54507 0.58589 0.6413 0.0
C743 C 0.54517 0.59911 0.62594 0.0
C744 C 0.53077 0.6125 0.6253 0.0
C745 C 0.53335 0.62551 0.60795 0.0
C746 C 0.55145 0.61745 0.59811 0.0
C747 C 0.55812 0.60182 0.60859 0.0
C748 C 0.5376 0.64733 0.61594 0.0
C749 C 0.51452 0.62173 0.59478 0.0
C750 C 0.60903 0.55211 0.59227 0.0
C751 C 0.6222 0.5499 0.57642 0.0
C752 C 0.62393 0.56457 0.56228 0.0
C753 C 0.61215 0.58075 0.56346 0.0
C754 C 0.59839 0.58226 0.57887 0.0
C755 C 0.59737 0.56838 0.59324 0.0
C756 C 0.58213 0.57257 0.60871 0.0
C757 C 0.57387 0.59101 0.60102 0.0
C758 C 0.58326 0.59644 0.58339 0.0
C759 C 0.59293 0.57699 0.62884 0.0
C760 C 0.56638 0.55458 0.60834 0.0
H761 H 0.53274 0.65467 0.57774 0.0
H762 H 0.57793 0.64468 0.52099 0.0
H763 H 0.56289 0.6007 0.53309 0.0
H764 H 0.58409 0.58886 0.53942 0.0
H765 H 0.58625 0.60812 0.52198 0.0
H766 H 0.60532 0.64484 0.55997 0.0
H767 H 0.61124 0.62994 0.53844 0.0
H768 H 0.61459 0.62161 0.56308 0.0
H769 H 0.50392 0.62283 0.63784 0.0
H770 H 0.52926 0.57464 0.66624 0.0
H771 H 0.55596 0.57534 0.64278 0.0
H772 H 0.54578 0.6481 0.63026 0.0
H773 H 0.52362 0.65467 0.61844 0.0
H774 H 0.54732 0.65629 0.60606 0.0
H775 H 0.50917 0.6057 0.59413 0.0
H776 H 0.51708 0.62533 0.57925 0.0
H777 H 0.50227 0.63029 0.60072 0.0
H778 H 0.52976 0.67378 0.54903 0.0
C779 C 0.54281 0.65214 0.56582 0.0
C780 C 0.55975 0.43121 0.00061 0.0
C781 C 0.54231 0.41855 0.00155 0.0
C782 C 0.52775 0.41901 0.98668 0.0
C783 C 0.54749 0.44541 0.97117 0.0
C784 C 0.56201 0.44442 0.98539 0.0
C785 C 0.57936 0.45932 0.98276 0.0
H786 H 0.62222 0.53624 0.9342 0.0
C787 C 0.55398 0.46162 0.95818 0.0
C788 C 0.5727 0.46972 0.96487 0.0
H789 H 0.6442 0.50836 0.98522 0.0
H790 H 0.61577 0.48481 0.98418 0.0
H791 H 0.58032 0.53835 0.94985 0.0
H792 H 0.60364 0.49473 0.9098 0.0
H793 H 0.581 0.50144 0.90014 0.0
H794 H 0.60129 0.52014 0.90411 0.0
H795 H 0.58273 0.54231 0.92396 0.0
H796 H 0.56061 0.52987 0.934 0.0
C797 C 0.58116 0.47349 0.00153 0.0
C798 C 0.59791 0.44777 0.97829 0.0
C799 C 0.50799 0.4815 0.90441 0.0
C800 C 0.50907 0.49738 0.89162 0.0
C801 C 0.52649 0.51039 0.89177 0.0
C802 C 0.5424 0.50769 0.90435 0.0
C803 C 0.54087 0.49202 0.91726 0.0
C804 C 0.52386 0.47927 0.9172 0.0
C805 C 0.52444 0.46416 0.93277 0.0
C806 C 0.54463 0.46995 0.9421 0.0
C807 C 0.55422 0.48618 0.93283 0.0
C808 C 0.50725 0.4674 0.94742 0.0
C809 C 0.52352 0.4432 0.92232 0.0
C810 C 0.62094 0.52508 0.94517 0.0
C811 C 0.63572 0.52418 0.9597 0.0
C812 C 0.63339 0.50923 0.97355 0.0
C813 C 0.61668 0.49563 0.97308 0.0
C814 C 0.60188 0.49706 0.95881 0.0
C815 C 0.60415 0.51154 0.94512 0.0
C816 C 0.58642 0.51134 0.93163 0.0
C817 C 0.57331 0.49414 0.93936 0.0
C818 C 0.58248 0.48588 0.95524 0.0
C819 C 0.57701 0.53149 0.93481 0.0
C820 C 0.59332 0.5068 0.91022 0.0
H821 H 0.51855 0.43219 0.96076 0.0
H822 H 0.57134 0.43099 0.01164 0.0
H823 H 0.59386 0.43376 0.96936 0.0
H824 H 0.60905 0.45606 0.96929 0.0
H825 H 0.60503 0.4437 0.99214 0.0
H826 H 0.56629 0.47579 0.00791 0.0
H827 H 0.59016 0.46734 0.01315 0.0
H828 H 0.58753 0.4886 0.99853 0.0
H829 H 0.49502 0.47103 0.90464 0.0
H830 H 0.52774 0.52303 0.88249 0.0
H831 H 0.55514 0.51814 0.90376 0.0
H832 H 0.50488 0.48348 0.94957 0.0
H833 H 0.49311 0.45961 0.94186 0.0
H834 H 0.51024 0.46259 0.96239 0.0
H835 H 0.53222 0.44343 0.90838 0.0
H836 H 0.53014 0.43214 0.93123 0.0
H837 H 0.50799 0.43777 0.91847 0.0
H838 H 0.51413 0.40946 0.98713 0.0
C839 C 0.53027 0.43234 0.97148 0.0
C840 C 0.76343 0.20608 0.29092 0.0
C841 C 0.76484 0.1951 0.27286 0.0
C842 C 0.75198 0.1986 0.25722 0.0
C843 C 0.73633 0.22316 0.27791 0.0
C844 C 0.74915 0.21992 0.29311 0.0
C845 C 0.74536 0.23226 0.31158 0.0
H846 H 0.68964 0.29741 0.36053 0.0
C847 C 0.72289 0.2381 0.28526 0.0
C848 C 0.72818 0.24352 0.30497 0.0
H849 H 0.74051 0.27009 0.38226 0.0
H850 H 0.7444 0.25314 0.3504 0.0
H851 H 0.66986 0.2579 0.33433 0.0
H852 H 0.70824 0.3094 0.32153 0.0
H853 H 0.69471 0.30307 0.2997 0.0
H854 H 0.6818 0.31021 0.32198 0.0
H855 H 0.66255 0.28293 0.33573 0.0
H856 H 0.66099 0.26815 0.31291 0.0
C857 C 0.73922 0.21794 0.32811 0.0
C858 C 0.76417 0.24633 0.31632 0.0
C859 C 0.66693 0.25769 0.24165 0.0
C860 C 0.6522 0.27116 0.24468 0.0
C861 C 0.65247 0.28301 0.26244 0.0
C862 C 0.66646 0.28086 0.27724 0.0
C863 C 0.68051 0.26679 0.27433 0.0
C864 C 0.68097 0.25587 0.25658 0.0
C865 C 0.69763 0.24229 0.25589 0.0
C866 C 0.70673 0.2466 0.27633 0.0
C867 C 0.69641 0.26074 0.28711 0.0
C868 C 0.68846 0.22058 0.25313 0.0
C869 C 0.71211 0.24886 0.23931 0.0
C870 C 0.70141 0.28753 0.35844 0.0
C871 C 0.71464 0.28482 0.37388 0.0
C872 C 0.73014 0.27232 0.37052 0.0
C873 C 0.73235 0.26251 0.35203 0.0
C874 C 0.71898 0.26533 0.33669 0.0
C875 C 0.70395 0.27781 0.34 0.0
C876 C 0.69166 0.27973 0.3218 0.0
C877 C 0.70155 0.26599 0.30711 0.0
C878 C 0.71741 0.2575 0.31595 0.0
C879 C 0.67006 0.2719 0.3263 0.0
C880 C 0.69403 0.30171 0.31591 0.0
H881 H 0.72834 0.21448 0.24723 0.0
H882 H 0.77284 0.20353 0.30335 0.0
H883 H 0.77177 0.25094 0.30252 0.0
H884 H 0.76079 0.26043 0.3241 0.0
H885 H 0.77498 0.23894 0.32523 0.0
H886 H 0.7298 0.2048 0.32201 0.0
H887 H 0.75246 0.21239 0.33508 0.0
H888 H 0.73012 0.22471 0.33972 0.0
H889 H 0.66724 0.24833 0.22823 0.0
H890 H 0.64173 0.29393 0.26499 0.0
H891 H 0.66561 0.2901 0.29049 0.0
H892 H 0.67479 0.21835 0.26216 0.0
H893 H 0.68432 0.21685 0.23744 0.0
H894 H 0.69835 0.20957 0.25811 0.0
H895 H 0.71281 0.26525 0.23794 0.0
H896 H 0.72758 0.24565 0.24231 0.0
H897 H 0.70734 0.24175 0.22477 0.0
H898 H 0.75287 0.19045 0.24311 0.0
C899 C 0.73778 0.2126 0.25963 0.0
C900 C 0.37467 0.0451 0.97608 0.0
C901 C 0.37174 0.02551 0.968 0.0
C902 C 0.38503 0.01893 0.95348 0.0
C903 C 0.4042 0.05081 0.9562 0.0
C904 C 0.391 0.05733 0.97017 0.0
C905 C 0.39703 0.0779 0.97858 0.0
H906 H 0.4639 0.15763 0.98386 0.0
C907 C 0.4201 0.06685 0.95417 0.0
C908 C 0.416 0.08272 0.96727 0.0
H909 H 0.41139 0.14623 0.01944 0.0
H910 H 0.4029 0.11599 0.00022 0.0
H911 H 0.44424 0.14011 0.94066 0.0
H912 H 0.47771 0.11607 0.98661 0.0
H913 H 0.48556 0.10506 0.96432 0.0
H914 H 0.4894 0.13167 0.96862 0.0
H915 H 0.46992 0.14753 0.94567 0.0
H916 H 0.46256 0.12633 0.92935 0.0
C917 C 0.38067 0.09161 0.97335 0.0
C918 C 0.40088 0.07668 0.00109 0.0
C919 C 0.4774 0.05651 0.90742 0.0
C920 C 0.49496 0.06817 0.90334 0.0
C921 C 0.49822 0.08727 0.91275 0.0
C922 C 0.48434 0.09454 0.92601 0.0
C923 C 0.46708 0.08254 0.93016 0.0
C924 C 0.46382 0.06389 0.9209 0.0
C925 C 0.44498 0.05296 0.92762 0.0
C926 C 0.43744 0.06819 0.94238 0.0
C927 C 0.45042 0.08548 0.94376 0.0
C928 C 0.43094 0.04899 0.90955 0.0
C929 C 0.45049 0.03395 0.93763 0.0
C930 C 0.45055 0.14867 0.98756 0.0
C931 C 0.43835 0.15451 0.00329 0.0
C932 C 0.42095 0.14242 0.00726 0.0
C933 C 0.41615 0.12463 0.99622 0.0
C934 C 0.42901 0.11859 0.98124 0.0
C935 C 0.44577 0.13061 0.97699 0.0
C936 C 0.4583 0.12123 0.96133 0.0
C937 C 0.44629 0.10155 0.957 0.0
C938 C 0.42913 0.10017 0.96863 0.0
C939 C 0.459 0.13446 0.94327 0.0
C940 C 0.47889 0.11842 0.97049 0.0
H941 H 0.41085 0.02555 0.93656 0.0
H942 H 0.36465 0.05078 0.98706 0.0
H943 H 0.40539 0.06177 0.0047 0.0
H944 H 0.41331 0.08712 0.00659 0.0
H945 H 0.38736 0.07942 0.0098 0.0
H946 H 0.37514 0.08807 0.958 0.0
H947 H 0.36781 0.08968 0.98347 0.0
H948 H 0.38602 0.10749 0.97369 0.0
H949 H 0.47425 0.04189 0.90031 0.0
H950 H 0.51172 0.09649 0.91016 0.0
H951 H 0.48775 0.10912 0.93273 0.0
H952 H 0.43169 0.06206 0.90012 0.0
H953 H 0.43511 0.03597 0.90025 0.0
H954 H 0.41518 0.04658 0.9137 0.0
H955 H 0.46534 0.03629 0.94486 0.0
H956 H 0.44028 0.02967 0.94969 0.0
H957 H 0.45097 0.02121 0.92668 0.0
H958 H 0.38332 0.00385 0.94715 0.0
C959 C 0.40115 0.0315 0.94748 0.0
O960 O 0.23896 0.87334 0.01369 0.0
Cd961 Cd 0.24809 0.89323 0.03641 0.0
Cd962 Cd 0.22029 0.91441 0.02058 0.0
O963 O 0.21314 0.88838 0.00395 0.0
O964 O 0.26439 0.87775 0.0534 0.0
O965 O 0.23679 0.89034 0.06375 0.0
C966 C 0.25168 0.88015 0.06729 0.0
C967 C 0.19559 0.93305 0.03403 0.0
C968 C 0.22391 0.87379 0.00254 0.0
C969 C 0.26291 0.93054 0.0181 0.0
O970 O 0.24514 0.93173 0.01248 0.0
O971 O 0.26724 0.91671 0.02896 0.0
O972 O 0.19849 0.93145 0.01525 0.0
O973 O 0.20617 0.92314 0.04532 0.0
O974 O 0.14804 0.53168 0.27189 0.0
Cd975 Cd 0.12958 0.50797 0.28089 0.0
Cd976 Cd 0.10637 0.51858 0.25267 0.0
O977 O 0.13128 0.53555 0.24466 0.0
O978 O 0.14639 0.49043 0.29503 0.0
O979 O 0.13101 0.48135 0.26674 0.0
C980 C 0.1426 0.47717 0.28088 0.0
C981 C 0.08744 0.5006 0.22828 0.0
C982 C 0.14632 0.54007 0.25565 0.0
C983 C 0.092 0.52383 0.2941 0.0
O984 O 0.09031 0.52868 0.27635 0.0
O985 O 0.10616 0.51381 0.29908 0.0
O986 O 0.08805 0.51972 0.23002 0.0
O987 O 0.09816 0.49153 0.24019 0.0
O988 O 0.77424 0.68509 0.99506 0.0
Cd989 Cd 0.76447 0.66432 0.01503 0.0
Cd990 Cd 0.78977 0.6433 0.99359 0.0
O991 O 0.79746 0.66914 0.9798 0.0
O992 O 0.74851 0.68067 0.03313 0.0
O993 O 0.77486 0.66641 0.04309 0.0
C994 C 0.76061 0.67759 0.04713 0.0
C995 C 0.81227 0.62602 0.0104 0.0
C996 C 0.788 0.68457 0.98231 0.0
C997 C 0.74758 0.62777 0.99181 0.0
O998 O 0.76448 0.62699 0.98378 0.0
O999 O 0.74483 0.64077 0.00554 0.0
O1000 O 0.81175 0.62552 0.99132 0.0
O1001 O 0.80049 0.6372 0.01999 0.0
O1002 O 0.89781 0.02336 0.28003 0.0
Cd1003 Cd 0.88273 0.02953 0.25506 0.0
Cd1004 Cd 0.85914 0.04663 0.28069 0.0
O1005 O 0.88191 0.04296 0.3004 0.0
O1006 O 0.902 0.02734 0.23314 0.0
O1007 O 0.88956 0.0556 0.24275 0.0
C1008 C 0.90142 0.04622 0.23138 0.0
C1009 C 0.84632 0.07751 0.27904 0.0
C1010 C 0.89572 0.03152 0.29709 0.0
C1011 C 0.84228 0.00997 0.25743 0.0
O1012 O 0.84002 0.02228 0.27191 0.0
O1013 O 0.85821 0.01098 0.24749 0.0
O1014 O 0.84208 0.06618 0.29347 0.0
O1015 O 0.85837 0.07147 0.26567 0.0
O1016 O 0.27148 0.17907 0.49542 0.0
Cd1017 Cd 0.26334 0.1575 0.51516 0.0
Cd1018 Cd 0.28854 0.13805 0.49242 0.0
O1019 O 0.29459 0.16428 0.47875 0.0
O1020 O 0.2478 0.17286 0.53456 0.0
O1021 O 0.27502 0.15896 0.54269 0.0
C1022 C 0.26067 0.16963 0.5478 0.0
C1023 C 0.31205 0.12219 0.50933 0.0
C1024 C 0.28467 0.17929 0.48206 0.0
C1025 C 0.24692 0.12085 0.49181 0.0
O1026 O 0.2636 0.12076 0.48323 0.0
O1027 O 0.24414 0.13356 0.5058 0.0
O1028 O 0.31142 0.12138 0.49024 0.0
O1029 O 0.29976 0.13288 0.51882 0.0
O1030 O 0.39847 0.5183 0.78302 0.0
Cd1031 Cd 0.3832 0.52696 0.7589 0.0
Cd1032 Cd 0.3605 0.54035 0.78702 0.0
O1033 O 0.38406 0.53684 0.80557 0.0
O1034 O 0.40238 0.52531 0.73686 0.0
O1035 O 0.3913 0.55364 0.7482 0.0
C1036 C 0.40271 0.54438 0.73625 0.0
C1037 C 0.34575 0.57009 0.78614 0.0
C1038 C 0.39747 0.5254 0.80068 0.0
C1039 C 0.3437 0.50589 0.76108 0.0
O1040 O 0.34279 0.51533 0.7777 0.0
O1041 O 0.35818 0.50974 0.74963 0.0
O1042 O 0.34173 0.558 0.8 0.0
O1043 O 0.35883 0.56569 0.77308 0.0
O1044 O 0.72778 0.36794 0.50999 0.0
Cd1045 Cd 0.74106 0.38706 0.53152 0.0
Cd1046 Cd 0.71838 0.41337 0.51559 0.0
O1047 O 0.7091 0.38931 0.497 0.0
O1048 O 0.75497 0.36951 0.54851 0.0
O1049 O 0.7309 0.38742 0.55953 0.0
C1050 C 0.74391 0.37497 0.56293 0.0
C1051 C 0.69554 0.43332 0.53048 0.0
C1052 C 0.71521 0.372 0.49715 0.0
C1053 C 0.76226 0.4226 0.51383 0.0
O1054 O 0.7453 0.42801 0.5095 0.0
O1055 O 0.7638 0.40675 0.52283 0.0
O1056 O 0.69895 0.43338 0.51177 0.0
O1057 O 0.70465 0.42122 0.54081 0.0
O1058 O 0.65021 0.03339 0.78073 0.0
Cd1059 Cd 0.63378 0.00923 0.79106 0.0
Cd1060 Cd 0.60759 0.01587 0.76294 0.0
O1061 O 0.6302 0.03645 0.75556 0.0
O1062 O 0.652 0.9914 0.80277 0.0
O1063 O 0.63403 0.98317 0.77576 0.0
C1064 C 0.64698 0.97861 0.78849 0.0
C1065 C 0.58953 -0.00029 0.73674 0.0
C1066 C 0.64599 0.04195 0.76517 0.0
C1067 C 0.5948 0.02002 0.80567 0.0
O1068 O 0.59067 0.02161 0.78756 0.0
O1069 O 0.61159 0.01469 0.81075 0.0
O1070 O 0.58843 0.01832 0.74121 0.0
O1071 O 0.60128 0.99008 0.74703 0.0
O1072 O 0.97289 0.27811 0.90852 0.0
Cd1073 Cd 0.98607 0.25555 0.89313 0.0
Cd1074 Cd 0.00348 0.28571 0.87578 0.0
O1075 O 0.99456 0.30227 0.90007 0.0
O1076 O 0.98283 0.23216 0.90998 0.0
O1077 O 0.012 0.24738 0.9031 0.0
C1078 C 0.00184 0.23378 0.91235 0.0
C1079 C 0.03623 0.28597 0.86543 0.0
C1080 C 0.97986 0.29613 0.91041 0.0
C1081 C 0.97335 0.25988 0.85229 0.0
O1082 O 0.98229 0.27711 0.8545 0.0
O1083 O 0.97485 0.24727 0.86542 0.0
O1084 O 0.02566 0.3006 0.86221 0.0
O1085 O 0.02835 0.27154 0.87536 0.0
O1086 O 0.47476 0.77505 0.41289 0.0
Cd1087 Cd 0.48753 0.7519 0.39809 0.0
Cd1088 Cd 0.50608 0.78121 0.38033 0.0
O1089 O 0.49719 0.79842 0.40418 0.0
O1090 O 0.48409 0.72894 0.41549 0.0
O1091 O 0.51335 0.74386 0.40835 0.0
C1092 C 0.50311 0.73056 0.41791 0.0
C1093 C 0.53899 0.7809 0.37052 0.0
C1094 C 0.48224 0.79291 0.41449 0.0
C1095 C 0.47566 0.75565 0.3569 0.0
O1096 O 0.48509 0.77267 0.35883 0.0
O1097 O 0.47652 0.74332 0.37039 0.0
O1098 O 0.52868 0.79563 0.36691 0.0
O1099 O 0.53073 0.76667 0.38043 0.0
O1100 O 0.98253 0.77589 0.66476 0.0
Cd1101 Cd 0.0048 0.76661 0.64675 0.0
Cd1102 Cd 0.99043 0.79377 0.62182 0.0
O1103 O 0.97301 0.79937 0.64615 0.0
O1104 O 0.02291 0.75326 0.66391 0.0
O1105 O 0.03203 0.78086 0.64883 0.0
C1106 C 0.03645 0.76715 0.66037 0.0
C1107 C 0.00011 0.82043 0.60248 0.0
C1108 C 0.97155 0.78993 0.66192 0.0
C1109 C 0.98862 0.75008 0.60816 0.0
O1110 O 0.98476 0.76773 0.60497 0.0
O1111 O 0.99705 0.74621 0.6241 0.0
O1112 O 0.98208 0.81281 0.60268 0.0
O1113 O 0.0128 0.81343 0.61401 0.0
O1114 O 0.47859 0.27986 0.16672 0.0
Cd1115 Cd 0.49968 0.27194 0.14667 0.0
Cd1116 Cd 0.48669 0.30159 0.12611 0.0
O1117 O 0.47086 0.30646 0.15171 0.0
O1118 O 0.51898 0.25716 0.16094 0.0
O1119 O 0.52675 0.2864 0.14828 0.0
C1120 C 0.53204 0.27169 0.15804 0.0
C1121 C 0.50104 0.32866 0.10989 0.0
C1122 C 0.46889 0.29519 0.16618 0.0
C1123 C 0.48097 0.25998 0.10784 0.0
O1124 O 0.47752 0.27811 0.10685 0.0
O1125 O 0.4903 0.25421 0.12249 0.0
O1126 O 0.48209 0.32486 0.11049 0.0
O1127 O 0.51203 0.31749 0.11938 0.0
C1128 C 0.21104 0.79025 0.91356 0.0
C1129 C 0.21633 0.79993 0.8963 0.0
C1130 C 0.20996 0.80102 0.93172 0.0
C1131 C 0.21485 0.82181 0.93261 0.0
C1132 C 0.21993 0.83165 0.9151 0.0
C1133 C 0.22037 0.82058 0.89708 0.0
C1134 C 0.20399 0.79012 0.94999 0.0
C1135 C 0.22565 0.85374 0.91552 0.0
C1136 C 0.20231 0.85621 0.97602 0.0
C1137 C 0.22043 0.85847 0.98629 0.0
C1138 C 0.19988 0.84345 0.95904 0.0
C1139 C 0.21611 0.83316 0.95197 0.0
C1140 C 0.23418 0.83485 0.96269 0.0
C1141 C 0.23604 0.84729 0.97985 0.0
C1142 C 0.18021 0.84155 0.94827 0.0
C1143 C 0.25195 0.82437 0.95546 0.0
H1144 H 0.20774 0.77426 0.9128 0.0
H1145 H 0.22453 0.82795 0.88366 0.0
H1146 H 0.21681 0.79053 0.96027 0.0
H1147 H 0.19201 0.79754 0.95788 0.0
H1148 H 0.19878 0.77433 0.94645 0.0
H1149 H 0.22874 0.85916 0.90052 0.0
H1150 H 0.21362 0.86204 0.92223 0.0
H1151 H 0.2391 0.85727 0.92483 0.0
H1152 H 0.19015 0.86471 0.98102 0.0
H1153 H 0.25012 0.84902 0.98766 0.0
H1154 H 0.17535 0.82565 0.94494 0.0
H1155 H 0.18182 0.8488 0.93396 0.0
H1156 H 0.16844 0.84855 0.95694 0.0
H1157 H 0.24795 0.80819 0.95308 0.0
H1158 H 0.26464 0.82656 0.96598 0.0
H1159 H 0.25685 0.83008 0.94103 0.0
C1160 C 0.00108 0.5461 0.36469 0.0
C1161 C 0.00708 0.55945 0.3805 0.0
C1162 C 0.01473 0.54002 0.35051 0.0
C1163 C 0.03475 0.54781 0.35193 0.0
C1164 C 0.04086 0.56154 0.3676 0.0
C1165 C 0.027 0.56703 0.38181 0.0
C1166 C 0.00775 0.52516 0.33409 0.0
C1167 C 0.06206 0.57037 0.36942 0.0
C1168 C 0.07474 0.51977 0.32639 0.0
C1169 C 0.07741 0.52993 0.30893 0.0
C1170 C 0.06068 0.52526 0.34042 0.0
C1171 C 0.04937 0.54155 0.33704 0.0
C1172 C 0.05214 0.55198 0.31952 0.0
C1173 C 0.06601 0.54591 0.30557 0.0
C1174 C 0.05785 0.51358 0.3588 0.0
C1175 C 0.04061 0.56967 0.31561 0.0
H1176 H 0.98567 0.5404 0.36335 0.0
H1177 H 0.03189 0.57705 0.39414 0.0
H1178 H 0.01026 0.53177 0.31955 0.0
H1179 H 0.01647 0.51192 0.33429 0.0
H1180 H 0.99176 0.52021 0.33534 0.0
H1181 H 0.06421 0.58145 0.38205 0.0
H1182 H 0.07212 0.55841 0.37142 0.0
H1183 H 0.06658 0.5777 0.35564 0.0
H1184 H 0.08343 0.50731 0.32897 0.0
H1185 H 0.06812 0.55389 0.29213 0.0
H1186 H 0.04214 0.50759 0.35987 0.0
H1187 H 0.06118 0.52348 0.37213 0.0
H1188 H 0.06749 0.50101 0.35896 0.0
H1189 H 0.02447 0.56519 0.31539 0.0
H1190 H 0.04471 0.57629 0.30135 0.0
H1191 H 0.04333 0.58127 0.3277 0.0
C1192 C 0.80517 0.77357 0.90751 0.0
C1193 C 0.7885 0.77187 0.89504 0.0
C1194 C 0.80667 0.76078 0.92307 0.0
C1195 C 0.79127 0.74579 0.92596 0.0
C1196 C 0.77427 0.74421 0.91357 0.0
C1197 C 0.77304 0.75737 0.89833 0.0
C1198 C 0.82484 0.76311 0.93621 0.0
C1199 C 0.75762 0.72827 0.91605 0.0
C1200 C 0.80099 0.69847 0.95092 0.0
C1201 C 0.79152 0.70129 0.96913 0.0
C1202 C 0.80171 0.71319 0.93698 0.0
C1203 C 0.79302 0.73126 0.94151 0.0
C1204 C 0.78455 0.73468 0.96034 0.0
C1205 C 0.78376 0.71959 0.97388 0.0
C1206 C 0.81076 0.70894 0.91698 0.0
C1207 C 0.77547 0.75391 0.96584 0.0
H1208 H 0.81707 0.78489 0.90503 0.0
H1209 H 0.76026 0.75588 0.88853 0.0
H1210 H 0.8204 0.76464 0.95194 0.0
H1211 H 0.83317 0.74962 0.9345 0.0
H1212 H 0.83494 0.77624 0.93271 0.0
H1213 H 0.74531 0.72925 0.90534 0.0
H1214 H 0.76337 0.71337 0.91399 0.0
H1215 H 0.75155 0.72944 0.93123 0.0
H1216 H 0.80698 0.68435 0.94713 0.0
H1217 H 0.77658 0.72194 0.98801 0.0
H1218 H 0.82175 0.72126 0.91328 0.0
H1219 H 0.79899 0.7079 0.90546 0.0
H1220 H 0.8182 0.69484 0.91632 0.0
H1221 H 0.78584 0.76683 0.96239 0.0
H1222 H 0.77158 0.75514 0.98176 0.0
H1223 H 0.76179 0.75485 0.957 0.0
C1224 C 0.99007 0.01768 0.36249 0.0
C1225 C 0.98591 0.01084 0.38141 0.0
C1226 C 0.9748 0.02167 0.3496 0.0
C1227 C 0.95481 0.01815 0.35547 0.0
C1228 C 0.95042 0.01111 0.37442 0.0
C1229 C 0.966 0.00783 0.38727 0.0
C1230 C 0.98009 0.0295 0.32961 0.0
C1231 C 0.92925 0.00676 0.38102 0.0
C1232 C 0.9155 0.04272 0.32734 0.0
C1233 C 0.90972 0.02779 0.31293 0.0
C1234 C 0.93008 0.03975 0.34145 0.0
C1235 C 0.93855 0.02122 0.34144 0.0
C1236 C 0.93212 0.00584 0.32741 0.0
C1237 C 0.918 0.00942 0.31313 0.0
C1238 C 0.93695 0.05667 0.35585 0.0
C1239 C 0.94037 0.98569 0.32728 0.0
H1240 H 0.0053 0.01967 0.35754 0.0
H1241 H 0.96252 0.00296 0.40195 0.0
H1242 H 0.97479 0.01841 0.31777 0.0
H1243 H 0.97261 0.04327 0.32736 0.0
H1244 H 0.99634 0.03281 0.32787 0.0
H1245 H 0.92834 0.00113 0.39616 0.0
H1246 H 0.92115 0.0204 0.38075 0.0
H1247 H 0.9215 0.9955 0.37064 0.0
H1248 H 0.90919 0.05697 0.32708 0.0
H1249 H 0.91338 0.9978 0.30209 0.0
H1250 H 0.9529 0.06103 0.35339 0.0
H1251 H 0.93548 0.05191 0.37125 0.0
H1252 H 0.92843 0.06993 0.35431 0.0
H1253 H 0.95638 0.98714 0.32357 0.0
H1254 H 0.93264 0.97487 0.31642 0.0
H1255 H 0.93905 0.97959 0.34218 0.0
C1256 C 0.269 0.23313 0.64967 0.0
C1257 C 0.25049 0.23354 0.65904 0.0
C1258 C 0.27157 0.22061 0.63289 0.0
C1259 C 0.25546 0.20761 0.62571 0.0
C1260 C 0.23732 0.20656 0.63617 0.0
C1261 C 0.23494 0.21974 0.65251 0.0
C1262 C 0.29106 0.22247 0.62199 0.0
C1263 C 0.21998 0.19243 0.62934 0.0
C1264 C 0.25132 0.1973 0.57037 0.0
C1265 C 0.25934 0.17886 0.56787 0.0
C1266 C 0.2502 0.20683 0.5891 0.0
C1267 C 0.25666 0.19735 0.60587 0.0
C1268 C 0.26442 0.1785 0.60351 0.0
C1269 C 0.26602 0.1696 0.58441 0.0
C1270 C 0.24235 0.22718 0.59088 0.0
C1271 C 0.27079 0.16768 0.62112 0.0
H1272 H 0.28135 0.24319 0.65496 0.0
H1273 H 0.22052 0.21986 0.65946 0.0
H1274 H 0.29648 0.20762 0.61859 0.0
H1275 H 0.28886 0.22937 0.60769 0.0
H1276 H 0.30271 0.23176 0.63053 0.0
H1277 H 0.20841 0.19079 0.64092 0.0
H1278 H 0.21313 0.1981 0.61606 0.0
H1279 H 0.22497 0.17754 0.62514 0.0
H1280 H 0.24633 0.20455 0.55754 0.0
H1281 H 0.27209 0.15525 0.58245 0.0
H1282 H 0.25351 0.23797 0.59835 0.0
H1283 H 0.22878 0.22669 0.60008 0.0
H1284 H 0.2387 0.23279 0.57628 0.0
H1285 H 0.28292 0.17665 0.62923 0.0
H1286 H 0.27599 0.15288 0.61681 0.0
H1287 H 0.25821 0.16561 0.63153 0.0
C1288 C 0.49905 0.59227 0.68684 0.0
C1289 C 0.49678 0.59622 0.66687 0.0
C1290 C 0.48257 0.58668 0.69843 0.0
C1291 C 0.46337 0.58503 0.68984 0.0
C1292 C 0.46085 0.59041 0.67012 0.0
C1293 C 0.47761 0.5959 0.65884 0.0
C1294 C 0.48586 0.58121 0.71947 0.0
C1295 C 0.44061 0.58897 0.66047 0.0
C1296 C 0.42833 0.54445 0.70987 0.0
C1297 C 0.41673 0.55519 0.72304 0.0
C1298 C 0.44316 0.5541 0.69861 0.0
C1299 C 0.4465 0.57506 0.70054 0.0
C1300 C 0.43437 0.58611 0.71325 0.0
C1301 C 0.41959 0.57602 0.7244 0.0
C1302 C 0.4557 0.54177 0.68513 0.0
C1303 C 0.43744 0.60848 0.71556 0.0
H1304 H 0.51381 0.59287 0.69321 0.0
H1305 H 0.47573 0.5988 0.64338 0.0
H1306 H 0.47541 0.58845 0.72958 0.0
H1307 H 0.48293 0.56489 0.72052 0.0
H1308 H 0.50127 0.58553 0.72463 0.0
H1309 H 0.44079 0.59659 0.64629 0.0
H1310 H 0.43552 0.5731 0.65743 0.0
H1311 H 0.42961 0.59554 0.67045 0.0
H1312 H 0.42615 0.52836 0.70864 0.0
H1313 H 0.41067 0.58441 0.73456 0.0
H1314 H 0.47139 0.54357 0.69018 0.0
H1315 H 0.4553 0.54696 0.66986 0.0
H1316 H 0.45066 0.52569 0.68474 0.0
H1317 H 0.45199 0.6128 0.72276 0.0
H1318 H 0.42564 0.61498 0.72461 0.0
H1319 H 0.43776 0.61507 0.70087 0.0
C1320 C 0.74821 0.30305 0.64979 0.0
C1321 C 0.75875 0.31071 0.66669 0.0
C1322 C 0.74387 0.31534 0.63456 0.0
C1323 C 0.75046 0.33577 0.63611 0.0
C1324 C 0.76019 0.34384 0.65354 0.0
C1325 C 0.76418 0.33121 0.66867 0.0
C1326 C 0.73336 0.30616 0.61624 0.0
C1327 C 0.76742 0.36556 0.65574 0.0
C1328 C 0.76303 0.35691 0.58664 0.0
C1329 C 0.74609 0.36673 0.58254 0.0
C1330 C 0.76496 0.34757 0.60444 0.0
C1331 C 0.74947 0.34786 0.61846 0.0
C1332 C 0.73262 0.35835 0.61477 0.0
C1333 C 0.73116 0.36778 0.59682 0.0
C1334 C 0.78329 0.33674 0.6079 0.0
C1335 C 0.7158 0.3589 0.62937 0.0
H1336 H 0.74417 0.28722 0.64794 0.0
H1337 H 0.772 0.33732 0.68184 0.0
H1338 H 0.72115 0.31518 0.61199 0.0
H1339 H 0.74395 0.30589 0.60375 0.0
H1340 H 0.72711 0.2907 0.61833 0.0
H1341 H 0.77226 0.37003 0.6711 0.0
H1342 H 0.78017 0.36854 0.64572 0.0
H1343 H 0.75562 0.37503 0.65141 0.0
H1344 H 0.77474 0.35626 0.57576 0.0
H1345 H 0.71805 0.37538 0.59372 0.0
H1346 H 0.77915 0.32054 0.60835 0.0
H1347 H 0.79014 0.34173 0.62236 0.0
H1348 H 0.79457 0.33914 0.59616 0.0
H1349 H 0.70809 0.34383 0.63001 0.0
H1350 H 0.70478 0.36939 0.62529 0.0
H1351 H 0.72156 0.36327 0.64442 0.0
C1352 C 0.52393 0.95101 0.64559 0.0
C1353 C 0.50393 0.9528 0.65028 0.0
C1354 C 0.53895 0.95643 0.65955 0.0
C1355 C 0.53378 0.96365 0.67866 0.0
C1356 C 0.51354 0.96456 0.68376 0.0
C1357 C 0.49884 0.95925 0.66944 0.0
C1358 C 0.56036 0.95549 0.65349 0.0
C1359 C 0.50746 0.97196 0.70409 0.0
C1360 C 0.57187 0.96933 0.72028 0.0
C1361 C 0.57692 0.98987 0.72078 0.0
C1362 C 0.55807 0.9604 0.70638 0.0
C1363 C 0.54945 0.97231 0.69259 0.0
C1364 C 0.5552 0.99291 0.69254 0.0
C1365 C 0.56876 0.00145 0.70673 0.0
C1366 C 0.55214 0.93841 0.70692 0.0
C1367 C 0.54662 0.00607 0.67784 0.0
H1368 H 0.52789 0.94619 0.63071 0.0
H1369 H 0.48336 0.96041 0.67312 0.0
H1370 H 0.56748 0.9708 0.65272 0.0
H1371 H 0.56866 0.94788 0.66462 0.0
H1372 H 0.56182 0.94759 0.63884 0.0
H1373 H 0.49116 0.96978 0.70631 0.0
H1374 H 0.51501 0.96416 0.71563 0.0
H1375 H 0.51207 0.98805 0.70624 0.0
H1376 H 0.57811 0.96037 0.7312 0.0
H1377 H 0.57277 0.01732 0.70697 0.0
H1378 H 0.55371 0.93105 0.69207 0.0
H1379 H 0.53628 0.93613 0.7111 0.0
H1380 H 0.56117 0.93101 0.71766 0.0
H1381 H 0.54865 -7e-05 0.66255 0.0
H1382 H 0.55358 0.02154 0.67904 0.0
H1383 H 0.53043 0.0065 0.6803 0.0
C1384 C 0.89273 0.2373 0.76446 0.0
C1385 C 0.8746 0.23489 0.77436 0.0
C1386 C 0.9106 0.24077 0.77511 0.0
C1387 C 0.9101 0.24237 0.79603 0.0
C1388 C 0.89171 0.24015 0.806 0.0
C1389 C 0.87419 0.2362 0.79502 0.0
C1390 C 0.92998 0.2426 0.76406 0.0
C1391 C 0.8905 0.24219 0.82828 0.0
C1392 C 0.95333 0.2355 0.82988 0.0
C1393 C 0.95946 0.25527 0.83557 0.0
C1394 C 0.93816 0.23106 0.81583 0.0
C1395 C 0.92863 0.24675 0.80774 0.0
C1396 C 0.93542 0.26673 0.81272 0.0
C1397 C 0.95094 0.27074 0.82642 0.0
C1398 C 0.93166 0.20957 0.81045 0.0
C1399 C 0.92539 0.28388 0.80471 0.0
H1400 H 0.89289 0.23617 0.74844 0.0
H1401 H 0.86005 0.23444 0.80255 0.0
H1402 H 0.93771 0.25751 0.76728 0.0
H1403 H 0.93987 0.23148 0.76909 0.0
H1404 H 0.92784 0.24037 0.74781 0.0
H1405 H 0.87496 0.24051 0.83366 0.0
H1406 H 0.89897 0.23078 0.83497 0.0
H1407 H 0.8973 0.25697 0.83363 0.0
H1408 H 0.96004 0.2235 0.83677 0.0
H1409 H 0.95559 0.28605 0.83081 0.0
H1410 H 0.92991 0.20718 0.7942 0.0
H1411 H 0.91701 0.20564 0.81719 0.0
H1412 H 0.94237 0.19931 0.81572 0.0
H1413 H 0.92388 0.28209 0.78841 0.0
H1414 H 0.93362 0.29845 0.80855 0.0
H1415 H 0.9102 0.28409 0.81088 0.0
C1416 C 0.43981 0.85801 0.50306 0.0
C1417 C 0.43409 0.87645 0.49734 0.0
C1418 C 0.44654 0.84407 0.48916 0.0
C1419 C 0.44699 0.84837 0.46894 0.0
C1420 C 0.44001 0.86633 0.46287 0.0
C1421 C 0.43385 0.88027 0.47717 0.0
C1422 C 0.45404 0.82515 0.49625 0.0
C1423 C 0.43977 0.87118 0.44135 0.0
C1424 C 0.48469 0.82372 0.43655 0.0
C1425 C 0.47319 0.80732 0.42809 0.0
C1426 C 0.47631 0.83723 0.44986 0.0
C1427 C 0.45583 0.83453 0.45434 0.0
C1428 C 0.44405 0.81828 0.44542 0.0
C1429 C 0.45294 0.80469 0.4326 0.0
C1430 C 0.48944 0.85414 0.45944 0.0
C1431 C 0.42207 0.81524 0.44944 0.0
H1432 H 0.43954 0.85467 0.51855 0.0
H1433 H 0.42961 0.89449 0.47255 0.0
H1434 H 0.44616 0.812 0.48847 0.0
H1435 H 0.47005 0.82477 0.49275 0.0
H1436 H 0.45211 0.82378 0.51243 0.0
H1437 H 0.43179 0.88461 0.43887 0.0
H1438 H 0.45522 0.87382 0.43601 0.0
H1439 H 0.43262 0.85847 0.43226 0.0
H1440 H 0.50036 0.82573 0.43312 0.0
H1441 H 0.44397 0.79213 0.42588 0.0
H1442 H 0.48913 0.85315 0.47575 0.0
H1443 H 0.48381 0.86859 0.45604 0.0
H1444 H 0.50508 0.85409 0.45443 0.0
H1445 H 0.41957 0.81256 0.4653 0.0
H1446 H 0.41482 0.80247 0.44047 0.0
H1447 H 0.41473 0.82884 0.44618 0.0
C1448 C 0.12494 0.2685 0.79293 0.0
C1449 C 0.14328 0.27796 0.79897 0.0
C1450 C 0.10835 0.26876 0.80535 0.0
C1451 C 0.11024 0.27863 0.82428 0.0
C1452 C 0.12897 0.28731 0.83084 0.0
C1453 C 0.14527 0.28694 0.81806 0.0
C1454 C 0.0886 0.25939 0.79779 0.0
C1455 C 0.13162 0.29776 0.851 0.0
C1456 C 0.06351 0.29979 0.8441 0.0
C1457 C 0.05621 0.28508 0.8567 0.0
C1458 C 0.08136 0.2981 0.83388 0.0
C1459 C 0.09225 0.28133 0.83641 0.0
C1460 C 0.08542 0.26684 0.84973 0.0
C1461 C 0.06742 0.26885 0.85969 0.0
C1462 C 0.08817 0.3139 0.81981 0.0
C1463 C 0.09678 0.24889 0.85296 0.0
H1464 H 0.1233 0.26171 0.77812 0.0
H1465 H 0.15952 0.29406 0.82285 0.0
H1466 H 0.08185 0.24912 0.80865 0.0
H1467 H 0.07826 0.27113 0.79591 0.0
H1468 H 0.08994 0.251 0.78339 0.0
H1469 H 0.14748 0.30186 0.85465 0.0
H1470 H 0.12364 0.31151 0.85151 0.0
H1471 H 0.12511 0.28818 0.86256 0.0
H1472 H 0.05496 0.3124 0.84173 0.0
H1473 H 0.06191 0.25744 0.86946 0.0
H1474 H 0.08833 0.30726 0.80449 0.0
H1475 H 0.10354 0.31992 0.8235 0.0
H1476 H 0.07843 0.32641 0.82016 0.0
H1477 H 0.09663 0.23931 0.83917 0.0
H1478 H 0.09038 0.23989 0.86504 0.0
H1479 H 0.11252 0.25356 0.85657 0.0
C1480 C 0.54553 0.69122 0.51556 0.0
C1481 C 0.55022 0.67134 0.51437 0.0
C1482 C 0.53981 0.70063 0.49871 0.0
C1483 C 0.53891 0.68995 0.48017 0.0
C1484 C 0.5447 0.67025 0.47866 0.0
C1485 C 0.55021 0.66114 0.4958 0.0
C1486 C 0.5338 0.72169 0.50092 0.0
C1487 C 0.54411 0.65845 0.45912 0.0
C1488 C 0.50092 0.706 0.44431 0.0
C1489 C 0.51264 0.71852 0.43232 0.0
C1490 C 0.50941 0.69618 0.45957 0.0
C1491 C 0.53016 0.69881 0.46284 0.0
C1492 C 0.5422 0.71073 0.45026 0.0
C1493 C 0.53328 0.72053 0.43517 0.0
C1494 C 0.49605 0.68359 0.47269 0.0
C1495 C 0.5644 0.71368 0.45316 0.0
H1496 H 0.54587 0.6993 0.5298 0.0
H1497 H 0.55364 0.64572 0.49475 0.0
H1498 H 0.5419 0.73116 0.49018 0.0
H1499 H 0.51772 0.72185 0.49766 0.0
H1500 H 0.5367 0.7284 0.51605 0.0
H1501 H 0.55136 0.64431 0.46 0.0
H1502 H 0.52846 0.65486 0.45443 0.0
H1503 H 0.55154 0.66732 0.4475 0.0
H1504 H 0.48497 0.70434 0.4422 0.0
H1505 H 0.54245 0.73012 0.42591 0.0
H1506 H 0.49669 0.69019 0.48803 0.0
H1507 H 0.5012 0.66843 0.47314 0.0
H1508 H 0.48035 0.68233 0.46761 0.0
H1509 H 0.56782 0.72216 0.46735 0.0
H1510 H 0.57183 0.72188 0.44104 0.0
H1511 H 0.57079 0.69911 0.45401 0.0
C1512 C 0.8747 0.80389 0.72576 0.0
C1513 C 0.87891 0.8119 0.7449 0.0
C1514 C 0.88998 0.80126 0.71212 0.0
C1515 C 0.90985 0.80709 0.71773 0.0
C1516 C 0.91409 0.81581 0.73685 0.0
C1517 C 0.89855 0.81796 0.75029 0.0
C1518 C 0.88492 0.79164 0.69196 0.0
C1519 C 0.93506 0.82252 0.74322 0.0
C1520 C 0.95046 0.78113 0.69092 0.0
C1521 C 0.95643 0.7948 0.67675 0.0
C1522 C 0.93537 0.78501 0.7044 0.0
C1523 C 0.92627 0.80314 0.70391 0.0
C1524 C 0.93254 0.81723 0.68997 0.0
C1525 C 0.94745 0.81281 0.67642 0.0
C1526 C 0.92888 0.76951 0.71891 0.0
C1527 C 0.92339 0.83687 0.68926 0.0
H1528 H 0.85951 0.79905 0.72168 0.0
H1529 H 0.90174 0.82433 0.76506 0.0
H1530 H 0.89082 0.80136 0.68024 0.0
H1531 H 0.89204 0.77742 0.69008 0.0
H1532 H 0.86867 0.78856 0.68971 0.0
H1533 H 0.93568 0.83025 0.75809 0.0
H1534 H 0.94405 0.80949 0.74354 0.0
H1535 H 0.94208 0.8327 0.73242 0.0
H1536 H 0.95726 0.76713 0.69118 0.0
H1537 H 0.95208 0.8235 0.66558 0.0
H1538 H 0.91295 0.76468 0.71658 0.0
H1539 H 0.93054 0.77593 0.73426 0.0
H1540 H 0.93756 0.75622 0.71743 0.0
H1541 H 0.90736 0.83426 0.68562 0.0
H1542 H 0.93058 0.84658 0.67813 0.0
H1543 H 0.92457 0.84487 0.70397 0.0
C1544 C 0.01575 0.9118 0.53273 0.0
C1545 C 0.02869 0.90784 0.51719 0.0
C1546 C 0.01243 0.89837 0.54774 0.0
C1547 C 0.0219 0.88037 0.54679 0.0
C1548 C 0.03516 0.87644 0.53116 0.0
C1549 C 0.0386 0.89041 0.51663 0.0
C1550 C 0.99852 0.90326 0.56439 0.0
C1551 C 0.04513 0.85721 0.52937 0.0
C1552 C 0.0227 0.84923 0.59206 0.0
C1553 C 0.00597 0.83593 0.58856 0.0
C1554 C 0.02803 0.86399 0.57868 0.0
C1555 C 0.01665 0.86499 0.56123 0.0
C1556 C -4e-05 0.85132 0.55752 0.0
C1557 C 0.99469 0.83714 0.57135 0.0
C1558 C 0.04565 0.87864 0.5833 0.0
C1559 C 0.98771 0.85158 0.53887 0.0
H1560 H 0.00832 0.92547 0.53316 0.0
H1561 H 0.04862 0.88749 0.50453 0.0
H1562 H 0.98506 0.89274 0.56352 0.0
H1563 H 0.00574 0.90156 0.57887 0.0
H1564 H 0.99384 0.91864 0.56394 0.0
H1565 H 0.05566 0.85683 0.5168 0.0
H1566 H 0.0533 0.85494 0.54318 0.0
H1567 H 0.03372 0.84454 0.52721 0.0
H1568 H 0.0314 0.84833 0.60539 0.0
H1569 H 0.98187 0.8267 0.56848 0.0
H1570 H 0.0409 0.89402 0.58385 0.0
H1571 H 0.05685 0.87768 0.57141 0.0
H1572 H 0.05279 0.87601 0.59761 0.0
H1573 H 0.98094 0.86597 0.53826 0.0
H1574 H 0.97567 0.83939 0.53788 0.0
H1575 H 0.99735 0.85016 0.5257 0.0
C1576 C 0.12138 0.77534 0.73968 0.0
C1577 C 0.14023 0.77035 0.73347 0.0
C1578 C 0.1057 0.77566 0.7262 0.0
C1579 C 0.1088 0.77057 0.70599 0.0
C1580 C 0.12782 0.76578 0.6995 0.0
C1581 C 0.14335 0.76579 0.71332 0.0
C1582 C 0.08563 0.78088 0.73372 0.0
C1583 C 0.13163 0.76019 0.67807 0.0
C1584 C 0.06167 0.75067 0.67921 0.0
C1585 C 0.05612 0.76755 0.67002 0.0
C1586 C 0.07936 0.75118 0.6901 0.0
C1587 C 0.09169 0.7691 0.69204 0.0
C1588 C 0.08659 0.78599 0.68213 0.0
C1589 C 0.06888 0.78498 0.67112 0.0
C1590 C 0.08438 0.73278 0.70024 0.0
C1591 C 0.09931 0.80539 0.68398 0.0
H1592 H 0.11866 0.7785 0.75524 0.0
H1593 H 0.15792 0.76217 0.70834 0.0
H1594 H 0.08016 0.79294 0.72514 0.0
H1595 H 0.07474 0.76777 0.73168 0.0
H1596 H 0.08603 0.78577 0.74963 0.0
H1597 H 0.1475 0.75791 0.67523 0.0
H1598 H 0.12258 0.74626 0.67362 0.0
H1599 H 0.12706 0.77192 0.66852 0.0
H1600 H 0.05198 0.73708 0.67823 0.0
H1601 H 0.06465 0.79807 0.66404 0.0
H1602 H 0.08335 0.73539 0.71649 0.0
H1603 H 0.09985 0.7294 0.69686 0.0
H1604 H 0.07425 0.71957 0.69573 0.0
H1605 H 0.09864 0.81173 0.69937 0.0
H1606 H 0.0944 0.81647 0.67382 0.0
H1607 H 0.11505 0.80291 0.68084 0.0
C1608 C 0.93693 0.66646 0.53402 0.0
C1609 C 0.95082 0.65607 0.52317 0.0
C1610 C 0.94309 0.68197 0.54771 0.0
C1611 C 0.9636 0.68741 0.55037 0.0
C1612 C 0.97768 0.67733 0.53915 0.0
C1613 C 0.97113 0.66166 0.52582 0.0
C1614 C 0.92767 0.69234 0.55954 0.0
C1615 C -0.00033 0.68289 0.54144 0.0
C1616 C 0.97851 0.73849 0.57382 0.0
C1617 C 0.9828 0.73396 0.59328 0.0
C1618 C 0.97246 0.72344 0.55962 0.0
C1619 C 0.97036 0.70345 0.56512 0.0
C1620 C 0.97469 0.69877 0.58473 0.0
C1621 C 0.98104 0.7141 0.59855 0.0
C1622 C 0.96831 0.72892 0.53875 0.0
C1623 C 0.97237 0.67762 0.59115 0.0
H1624 H 0.92122 0.66244 0.53185 0.0
H1625 H 0.982 0.65349 0.51781 0.0
H1626 H 0.93015 0.69073 0.57556 0.0
H1627 H 0.92904 0.70848 0.55697 0.0
H1628 H 0.91231 0.6863 0.55571 0.0
H1629 H 0.00862 0.67424 0.53087 0.0
H1630 H 0.00297 0.69896 0.53911 0.0
H1631 H 0.00448 0.68025 0.55668 0.0
H1632 H 0.97998 0.75382 0.56964 0.0
H1633 H 0.98422 0.71054 0.61361 0.0
H1634 H 0.95264 0.72435 0.53475 0.0
H1635 H 0.97777 0.72084 0.52823 0.0
H1636 H 0.9711 0.74513 0.53679 0.0
H1637 H 0.95682 0.67139 0.58872 0.0
H1638 H 0.97622 0.67651 0.60699 0.0
H1639 H 0.98199 0.66822 0.5821 0.0
C1640 C 0.76164 0.91794 0.23149 0.0
C1641 C 0.76192 0.90556 0.24746 0.0
C1642 C 0.77323 0.93615 0.23183 0.0
C1643 C 0.7857 0.94172 0.24831 0.0
C1644 C 0.78592 0.92925 0.2645 0.0
C1645 C 0.77386 0.91139 0.26395 0.0
C1646 C 0.77231 0.94929 0.21452 0.0
C1647 C 0.79931 0.93447 0.28217 0.0
C1648 C 0.8322 0.97606 0.24284 0.0
C1649 C 0.82701 0.99343 0.25309 0.0
C1650 C 0.81863 0.95931 0.24058 0.0
C1651 C 0.79929 0.9601 0.24841 0.0
C1652 C 0.79361 0.97796 0.25779 0.0
C1653 C 0.80763 0.99437 0.26024 0.0
C1654 C 0.82536 0.94043 0.23077 0.0
C1655 C 0.77296 0.9795 0.26588 0.0
H1656 H 0.75228 0.9134 0.2188 0.0
H1657 H 0.77419 0.90166 0.27619 0.0
H1658 H 0.76905 0.96452 0.21975 0.0
H1659 H 0.78691 0.95055 0.20703 0.0
H1660 H 0.76083 0.94347 0.20352 0.0
H1661 H 0.79756 0.92321 0.29358 0.0
H1662 H 0.81503 0.9357 0.27736 0.0
H1663 H 0.7961 0.94912 0.28901 0.0
H1664 H 0.84718 0.97521 0.23734 0.0
H1665 H 0.8035 0.00784 0.268 0.0
H1666 H 0.81493 0.93479 0.21878 0.0
H1667 H 0.82539 0.92876 0.24175 0.0
H1668 H 0.8405 0.94261 0.22447 0.0
H1669 H 0.7617 0.97392 0.25459 0.0
H1670 H 0.77021 0.99501 0.27064 0.0
H1671 H 0.77079 0.97007 0.27879 0.0
C1672 C 0.77268 0.16059 0.26222 0.0
C1673 C 0.77892 0.17932 0.27087 0.0
C1674 C 0.78503 0.14484 0.26219 0.0
C1675 C 0.80408 0.14792 0.27105 0.0
C1676 C 0.81082 0.16703 0.279 0.0
C1677 C 0.79814 0.18251 0.27884 0.0
C1678 C 0.7773 0.12466 0.25357 0.0
C1679 C 0.83107 0.17092 0.28845 0.0
C1680 C 0.82383 0.10248 0.29236 0.0
C1681 C 0.83681 0.0964 0.27752 0.0
C1682 C 0.81346 0.11947 0.29059 0.0
C1683 C 0.81613 0.13071 0.27356 0.0
C1684 C 0.82963 0.12501 0.25877 0.0
C1685 C 0.83984 0.10788 0.26092 0.0
C1686 C 0.79924 0.12511 0.30674 0.0
C1687 C 0.83291 0.13668 0.24046 0.0
H1688 H 0.75778 0.15796 0.25622 0.0
H1689 H 0.80315 0.19705 0.28528 0.0
H1690 H 0.78819 0.1187 0.24306 0.0
H1691 H 0.77522 0.1141 0.26557 0.0
H1692 H 0.76291 0.12515 0.24575 0.0
H1693 H 0.83481 0.18697 0.29222 0.0
H1694 H 0.83158 0.1627 0.30221 0.0
H1695 H 0.84264 0.16542 0.27844 0.0
H1696 H 0.82145 0.09374 0.30526 0.0
H1697 H 0.84986 0.10329 0.24941 0.0
H1698 H 0.78392 0.12432 0.3007 0.0
H1699 H 0.80303 0.14065 0.31234 0.0
H1700 H 0.79942 0.11522 0.31936 0.0
H1701 H 0.81898 0.13586 0.23168 0.0
H1702 H 0.84483 0.13104 0.23096 0.0
H1703 H 0.83685 0.1526 0.2446 0.0
C1704 C 0.34482 0.99804 0.96226 0.0
C1705 C 0.35539 0.01181 0.97528 0.0
C1706 C 0.32965 0.98478 0.96914 0.0
C1707 C 0.32474 0.98557 0.98945 0.0
C1708 C 0.33517 -0.00044 0.00264 0.0
C1709 C 0.3505 0.01236 0.99543 0.0
C1710 C 0.31897 0.96985 0.9547 0.0
C1711 C 0.3302 0.00095 0.02438 0.0
C1712 C 0.27406 0.96307 0.00414 0.0
C1713 C 0.27875 0.94488 0.01132 0.0
C1714 C 0.28893 0.97657 0.99714 0.0
C1715 C 0.30887 0.97156 0.99701 0.0
C1716 C 0.31369 0.95321 0.00419 0.0
C1717 C 0.29857 0.94016 0.01145 0.0
C1718 C 0.28333 0.9962 0.98994 0.0
C1719 C 0.33477 0.94725 0.004 0.0
H1720 H 0.3483 0.99767 0.94664 0.0
H1721 H 0.35884 0.02264 0.0057 0.0
H1722 H 0.32049 0.95455 0.95944 0.0
H1723 H 0.30289 0.97209 0.95452 0.0
H1724 H 0.32478 0.97099 0.93943 0.0
H1725 H 0.33918 0.01322 0.0325 0.0
H1726 H 0.31426 0.00335 0.02634 0.0
H1727 H 0.33282 0.98677 0.03118 0.0
H1728 H 0.25876 0.96682 0.00411 0.0
H1729 H 0.30225 0.92604 0.01683 0.0
H1730 H 0.28751 0.99748 0.9742 0.0
H1731 H 0.29162 0.00865 0.99846 0.0
H1732 H 0.26719 0.99797 0.99139 0.0
H1733 H 0.34057 0.94714 0.98868 0.0
H1734 H 0.33597 0.93232 0.00988 0.0
H1735 H 0.34444 0.95827 0.01299 0.0
C1736 C 0.2209 0.39785 0.27123 0.0
C1737 C 0.21546 0.37909 0.27846 0.0
C1738 C 0.20722 0.41232 0.27041 0.0
C1739 C 0.1876 0.408 0.2771 0.0
C1740 C 0.18175 0.38887 0.2837 0.0
C1741 C 0.19577 0.37461 0.28431 0.0
C1742 C 0.21405 0.43256 0.26326 0.0
C1743 C 0.16093 0.38371 0.29086 0.0
C1744 C 0.16348 0.45359 0.29684 0.0
C1745 C 0.15216 0.45819 0.28056 0.0
C1746 C 0.17433 0.43674 0.29619 0.0
C1747 C 0.17392 0.42419 0.27882 0.0
C1748 C 0.16183 0.42822 0.26265 0.0
C1749 C 0.15104 0.44519 0.26372 0.0
C1750 C 0.18696 0.4329 0.31381 0.0
C1751 C 0.161 0.41513 0.24391 0.0
H1752 H 0.23614 0.40157 0.26696 0.0
H1753 H 0.19139 0.36006 0.28966 0.0
H1754 H 0.20378 0.43692 0.25175 0.0
H1755 H 0.2139 0.44384 0.27573 0.0
H1756 H 0.22928 0.43299 0.25707 0.0
H1757 H 0.15818 0.36764 0.29359 0.0
H1758 H 0.15839 0.3924 0.30483 0.0
H1759 H 0.14991 0.38776 0.27991 0.0
H1760 H 0.16428 0.46346 0.30998 0.0
H1761 H 0.14228 0.44863 0.25111 0.0
H1762 H 0.20288 0.43472 0.30978 0.0
H1763 H 0.18379 0.41739 0.31828 0.0
H1764 H 0.18444 0.44318 0.32671 0.0
H1765 H 0.1755 0.41676 0.23627 0.0
H1766 H 0.14925 0.41898 0.2336 0.0
H1767 H 0.15825 0.39926 0.24737 0.0
C1768 C 0.16828 0.02878 0.46592 0.0
C1769 C 0.14992 0.03531 0.46049 0.0
C1770 C 0.18476 0.04234 0.46989 0.0
C1771 C 0.18299 0.06287 0.46786 0.0
C1772 C 0.16487 0.06948 0.46131 0.0
C1773 C 0.14849 0.05566 0.45795 0.0
C1774 C 0.2038 0.03478 0.47708 0.0
C1775 C 0.16255 0.09124 0.45858 0.0
C1776 C 0.21576 0.10033 0.49903 0.0
C1777 C 0.23068 0.10597 0.48562 0.0
C1778 C 0.20035 0.08604 0.49349 0.0
C1779 C 0.1996 0.07759 0.47393 0.0
C1780 C 0.21452 0.08336 0.46026 0.0
C1781 C 0.23005 0.09733 0.46636 0.0
C1782 C 0.18491 0.07994 0.50861 0.0
C1783 C 0.2139 0.07501 0.43916 0.0
H1784 H 0.16971 0.01307 0.46748 0.0
H1785 H 0.13437 0.061 0.45406 0.0
H1786 H 0.21643 0.04006 0.46777 0.0
H1787 H 0.20701 0.04076 0.4924 0.0
H1788 H 0.20305 0.01828 0.47696 0.0
H1789 H 0.14826 0.09366 0.4513 0.0
H1790 H 0.16317 0.09946 0.47318 0.0
H1791 H 0.17489 0.09773 0.44957 0.0
H1792 H 0.21631 0.10687 0.51398 0.0
H1793 H 0.24152 0.10178 0.45593 0.0
H1794 H 0.18421 0.06361 0.51008 0.0
H1795 H 0.17006 0.08363 0.50366 0.0
H1796 H 0.18807 0.0874 0.52338 0.0
H1797 H 0.21404 0.05859 0.43882 0.0
H1798 H 0.2266 0.08113 0.43035 0.0
H1799 H 0.1999 0.07843 0.43195 0.0
C1800 C 0.72231 0.12952 0.72874 0.0
C1801 C 0.71445 0.14784 0.73299 0.0
C1802 C 0.71155 0.11162 0.73289 0.0
C1803 C 0.69263 0.11214 0.74171 0.0
C1804 C 0.6845 0.1306 0.74575 0.0
C1805 C 0.69549 0.14826 0.74122 0.0
C1806 C 0.72055 0.0922 0.72809 0.0
C1807 C 0.66443 0.13173 0.75534 0.0
C1808 C 0.65642 0.06628 0.73982 0.0
C1809 C 0.65891 0.05906 0.75866 0.0
C1810 C 0.66766 0.08329 0.73391 0.0
C1811 C 0.68152 0.09343 0.74725 0.0
C1812 C 0.68438 0.08602 0.76615 0.0
C1813 C 0.67312 0.06883 0.77158 0.0
C1814 C 0.66445 0.0906 0.71352 0.0
C1815 C 0.69894 0.09655 0.78082 0.0
H1816 H 0.73692 0.12922 0.72221 0.0
H1817 H 0.68951 0.16245 0.74468 0.0
H1818 H 0.72288 0.08449 0.7419 0.0
H1819 H 0.71025 0.08224 0.71863 0.0
H1820 H 0.73499 0.09434 0.72038 0.0
H1821 H 0.66008 0.14723 0.75713 0.0
H1822 H 0.65292 0.12276 0.74636 0.0
H1823 H 0.66461 0.12534 0.77012 0.0
H1824 H 0.64555 0.05873 0.72971 0.0
H1825 H 0.67508 0.06337 0.78619 0.0
H1826 H 0.67877 0.09224 0.70555 0.0
H1827 H 0.65858 0.10549 0.71474 0.0
H1828 H 0.65389 0.08041 0.70455 0.0
H1829 H 0.71399 0.09804 0.77427 0.0
H1830 H 0.69972 0.08861 0.79474 0.0
H1831 H 0.69458 0.1118 0.78447 0.0
C1832 C 0.35834 0.03127 0.55449 0.0
C1833 C 0.37757 0.03487 0.56231 0.0
C1834 C 0.34809 0.04679 0.54748 0.0
C1835 C 0.35731 0.06638 0.54825 0.0
C1836 C 0.37645 0.07023 0.55673 0.0
C1837 C 0.38636 0.05442 0.56368 0.0
C1838 C 0.32762 0.0421 0.53867 0.0
C1839 C 0.38678 0.09091 0.55776 0.0
C1840 C 0.33913 0.09911 0.50928 0.0
C1841 C 0.3254 0.1099 0.5199 0.0
C1842 C 0.35018 0.08546 0.51854 0.0
C1843 C 0.3474 0.08248 0.53892 0.0
C1844 C 0.33421 0.09395 0.54993 0.0
C1845 C 0.32338 0.10758 0.54029 0.0
C1846 C 0.36422 0.07363 0.5063 0.0
C1847 C 0.3309 0.09121 0.5717 0.0
H1848 H 0.35138 0.01623 0.55366 0.0
H1849 H 0.40129 0.05726 0.56953 0.0
H1850 H 0.31697 0.05182 0.54585 0.0
H1851 H 0.32791 0.0451 0.52271 0.0
H1852 H 0.32207 0.02634 0.54028 0.0
H1853 H 0.40088 0.09172 0.5663 0.0
H1854 H 0.39013 0.09565 0.54259 0.0
H1855 H 0.37696 0.10167 0.56467 0.0
H1856 H 0.34086 0.10089 0.49354 0.0
H1857 H 0.3128 0.11587 0.5486 0.0
H1858 H 0.35876 0.05769 0.50554 0.0
H1859 H 0.37913 0.07478 0.51332 0.0
H1860 H 0.36574 0.07873 0.49099 0.0
H1861 H 0.32349 0.07622 0.5738 0.0
H1862 H 0.32155 0.10249 0.5785 0.0
H1863 H 0.34529 0.09211 0.57969 0.0
C1864 C 0.65312 0.5332 0.56811 0.0
C1865 C 0.63316 0.53177 0.5738 0.0
C1866 C 0.66299 0.51609 0.56341 0.0
C1867 C 0.65258 0.49711 0.56431 0.0
C1868 C 0.63271 0.49555 0.57095 0.0
C1869 C 0.62323 0.51292 0.57565 0.0
C1870 C 0.68427 0.51837 0.55659 0.0
C1871 C 0.6211 0.4756 0.57203 0.0
C1872 C 0.67067 0.45836 0.52782 0.0
C1873 C 0.68265 0.4478 0.53976 0.0
C1874 C 0.6602 0.47392 0.53582 0.0
C1875 C 0.66187 0.47919 0.55627 0.0
C1876 C 0.67329 0.46808 0.56859 0.0
C1877 C 0.68351 0.45242 0.56018 0.0
C1878 C 0.64798 0.48523 0.52222 0.0
C1879 C 0.67541 0.47329 0.59045 0.0
H1880 H 0.66091 0.54775 0.56694 0.0
H1881 H 0.60774 0.51174 0.57989 0.0
H1882 H 0.69348 0.50867 0.56487 0.0
H1883 H 0.68504 0.51363 0.54071 0.0
H1884 H 0.6908 0.53396 0.55853 0.0
H1885 H 0.60667 0.47679 0.57967 0.0
H1886 H 0.61814 0.4691 0.55685 0.0
H1887 H 0.62979 0.46512 0.57987 0.0
H1888 H 0.66982 0.45476 0.51205 0.0
H1889 H 0.6928 0.44435 0.56947 0.0
H1890 H 0.65455 0.50077 0.52159 0.0
H1891 H 0.63267 0.48587 0.52798 0.0
H1892 H 0.64716 0.47841 0.50695 0.0
H1893 H 0.68387 0.48798 0.59275 0.0
H1894 H 0.68325 0.46211 0.59826 0.0
H1895 H 0.66062 0.47454 0.59727 0.0
C1896 C 0.72915 0.30702 0.40151 0.0
C1897 C 0.71274 0.29569 0.39318 0.0
C1898 C 0.7274 0.31838 0.4192 0.0
C1899 C 0.70884 0.31811 0.42893 0.0
C1900 C 0.69233 0.30625 0.42084 0.0
C1901 C 0.69442 0.29532 0.4029 0.0
C1902 C 0.7453 0.33106 0.42721 0.0
C1903 C 0.67245 0.30529 0.43103 0.0
C1904 C 0.71361 0.33728 0.48232 0.0
C1905 C 0.7098 0.35726 0.48078 0.0
C1906 C 0.71199 0.32391 0.46577 0.0
C1907 C 0.70679 0.33083 0.44722 0.0
C1908 C 0.70173 0.35066 0.44585 0.0
C1909 C 0.70312 0.3636 0.46271 0.0
C1910 C 0.717 0.30273 0.46791 0.0
C1911 C 0.6963 0.35865 0.42629 0.0
H1912 H 0.74325 0.30744 0.39386 0.0
H1913 H 0.68177 0.28641 0.39648 0.0
H1914 H 0.74205 0.34693 0.42816 0.0
H1915 H 0.74879 0.32687 0.44238 0.0
H1916 H 0.75864 0.32955 0.41786 0.0
H1917 H 0.66142 0.29446 0.4234 0.0
H1918 H 0.67413 0.30103 0.44652 0.0
H1919 H 0.66652 0.32016 0.43158 0.0
H1920 H 0.71859 0.33224 0.4963 0.0
H1921 H 0.70017 0.37903 0.4614 0.0
H1922 H 0.73155 0.30054 0.46091 0.0
H1923 H 0.70577 0.29219 0.46023 0.0
H1924 H 0.71786 0.29895 0.48365 0.0
H1925 H 0.70951 0.35937 0.41656 0.0
H1926 H 0.69093 0.37376 0.42805 0.0
H1927 H 0.68464 0.34859 0.41867 0.0
C1928 C 0.52022 0.07303 0.87658 0.0
C1929 C 0.50991 0.06039 0.88955 0.0
C1930 C 0.53439 0.06589 0.86354 0.0
C1931 C 0.53807 0.04554 0.86319 0.0
C1932 C 0.52772 0.03267 0.87617 0.0
C1933 C 0.51389 0.04028 0.88933 0.0
C1934 C 0.54531 0.0801 0.85001 0.0
C1935 C 0.53111 0.01082 0.87603 0.0
C1936 C 0.56007 0.02523 0.8157 0.0
C1937 C 0.58016 0.02517 0.82083 0.0
C1938 C 0.5461 0.03124 0.82956 0.0
C1939 C 0.55247 0.03769 0.84888 0.0
C1940 C 0.57267 0.03735 0.85427 0.0
C1941 C 0.58627 0.0309 0.8402 0.0
C1942 C 0.52459 0.03103 0.82342 0.0
C1943 C 0.58002 0.04441 0.87467 0.0
H1944 H 0.51703 0.08849 0.87641 0.0
H1945 H 0.50629 0.03047 0.89954 0.0
H1946 H 0.56157 0.0797 0.85199 0.0
H1947 H 0.54181 0.07549 0.83437 0.0
H1948 H 0.54138 0.09566 0.85277 0.0
H1949 H 0.52175 0.00279 0.887 0.0
H1950 H 0.5278 0.00378 0.86112 0.0
H1951 H 0.54692 0.00893 0.87929 0.0
H1952 H 0.55525 0.02064 0.80079 0.0
H1953 H 0.60182 0.03097 0.84418 0.0
H1954 H 0.51992 0.04643 0.82402 0.0
H1955 H 0.51503 0.02245 0.83381 0.0
H1956 H 0.5219 0.02444 0.80821 0.0
H1957 H 0.57754 0.06037 0.87729 0.0
H1958 H 0.59606 0.04254 0.8767 0.0
H1959 H 0.57154 0.03613 0.88607 0.0
C1960 C 0.29859 0.27102 0.41032 0.0
C1961 C 0.28211 0.26936 0.39759 0.0
C1962 C 0.30012 0.25779 0.42548 0.0
C1963 C 0.28495 0.2424 0.42772 0.0
C1964 C 0.26807 0.24097 0.41518 0.0
C1965 C 0.2668 0.25456 0.40033 0.0
C1966 C 0.31817 0.25998 0.43879 0.0
C1967 C 0.25166 0.22465 0.417 0.0
C1968 C 0.29631 0.1945 0.45078 0.0
C1969 C 0.28705 0.19642 0.46922 0.0
C1970 C 0.29627 0.20965 0.43734 0.0
C1971 C 0.287 0.22724 0.4426 0.0
C1972 C 0.27858 0.2297 0.46159 0.0
C1973 C 0.27859 0.2142 0.47463 0.0
C1974 C 0.30529 0.20643 0.41716 0.0
C1975 C 0.26889 0.24839 0.46785 0.0
H1976 H 0.31037 0.28257 0.40827 0.0
H1977 H 0.25417 0.25312 0.39033 0.0
H1978 H 0.31359 0.26058 0.45452 0.0
H1979 H 0.32691 0.24684 0.43645 0.0
H1980 H 0.32793 0.27356 0.436 0.0
H1981 H 0.23928 0.22596 0.40646 0.0
H1982 H 0.25766 0.20995 0.41417 0.0
H1983 H 0.24565 0.22497 0.43223 0.0
H1984 H 0.30283 0.18079 0.44648 0.0
H1985 H 0.27155 0.21585 0.48893 0.0
H1986 H 0.31614 0.21905 0.41401 0.0
H1987 H 0.2935 0.20581 0.40569 0.0
H1988 H 0.3129 0.19244 0.41579 0.0
H1989 H 0.27896 0.26173 0.46506 0.0
H1990 H 0.26481 0.2488 0.48374 0.0
H1991 H 0.25525 0.24936 0.45895 0.0
C1992 C 0.47237 0.49664 0.88488 0.0
C1993 C 0.49199 0.50077 0.87856 0.0
C1994 C 0.45619 0.49999 0.87282 0.0
C1995 C 0.45966 0.50823 0.85423 0.0
C1996 C 0.47936 0.51259 0.84779 0.0
C1997 C 0.49525 0.50852 0.85987 0.0
C1998 C 0.43538 0.49471 0.87999 0.0
C1999 C 0.48367 0.52167 0.82815 0.0
C2000 C 0.42079 0.50228 0.81353 0.0
C2001 C 0.41234 0.52058 0.81527 0.0
C2002 C 0.4357 0.49778 0.8266 0.0
C2003 C 0.44274 0.51218 0.84136 0.0
C2004 C 0.43413 0.53063 0.8433 0.0
C2005 C 0.41879 0.5345 0.83038 0.0
C2006 C 0.44409 0.47771 0.82445 0.0
C2007 C 0.44159 0.54655 0.85854 0.0
H2008 H 0.46956 0.49102 0.8994 0.0
H2009 H 0.51027 0.51138 0.85457 0.0
H2010 H 0.42717 0.50828 0.88155 0.0
H2011 H 0.42722 0.48441 0.86898 0.0
H2012 H 0.43522 0.4876 0.89443 0.0
H2013 H 0.49981 0.52502 0.82572 0.0
H2014 H 0.47768 0.51139 0.81593 0.0
H2015 H 0.47619 0.53566 0.82732 0.0
H2016 H 0.41567 0.49143 0.80194 0.0
H2017 H 0.41236 0.54872 0.83162 0.0
H2018 H 0.4435 0.47047 0.83881 0.0
H2019 H 0.45991 0.47959 0.82007 0.0
H2020 H 0.43595 0.46765 0.8132 0.0
H2021 H 0.44071 0.54067 0.87354 0.0
H2022 H 0.43305 0.55993 0.85837 0.0
H2023 H 0.45744 0.55108 0.85572 0.0
C2024 C 0.73218 0.72879 0.15092 0.0
C2025 C 0.74696 0.74361 0.15704 0.0
C2026 C 0.73502 0.71583 0.13451 0.0
C2027 C 0.75283 0.71808 0.1236 0.0
C2028 C 0.76813 0.7324 0.13014 0.0
C2029 C 0.76512 0.74476 0.14694 0.0
C2030 C 0.71854 0.7004 0.12825 0.0
C2031 C 0.78723 0.7355 0.11875 0.0
C2032 C 0.76591 0.67947 0.08385 0.0
C2033 C 0.7585 0.68743 0.06687 0.0
C2034 C 0.76377 0.689 0.10258 0.0
C2035 C 0.75457 0.70715 0.10416 0.0
C2036 C 0.74725 0.71527 0.08699 0.0
C2037 C 0.74907 0.70517 0.06862 0.0
C2038 C 0.77124 0.67964 0.12065 0.0
C2039 C 0.73777 0.73482 0.08795 0.0
H2040 H 0.71802 0.72776 0.15843 0.0
H2041 H 0.77689 0.75571 0.15184 0.0
H2042 H 0.71131 0.70492 0.11466 0.0
H2043 H 0.72455 0.68582 0.12475 0.0
H2044 H 0.70704 0.6985 0.13987 0.0
H2045 H 0.7982 0.74626 0.12656 0.0
H2046 H 0.79403 0.72121 0.11609 0.0
H2047 H 0.78403 0.7412 0.10408 0.0
H2048 H 0.7731 0.66568 0.08252 0.0
H2049 H 0.74348 0.71144 0.05548 0.0
H2050 H 0.75899 0.67734 0.1314 0.0
H2051 H 0.78299 0.68973 0.12809 0.0
H2052 H 0.77735 0.66512 0.11699 0.0
H2053 H 0.72445 0.73377 0.09749 0.0
H2054 H 0.73327 0.73931 0.07314 0.0
H2055 H 0.74829 0.74673 0.09465 0.0
C2056 C 0.99621 0.09481 0.18027 0.0
C2057 C 0.9939 0.09799 0.16013 0.0
C2058 C 0.97981 0.08915 0.19194 0.0
C2059 C 0.96067 0.08662 0.18324 0.0
C2060 C 0.95807 0.09121 0.1633 0.0
C2061 C 0.97475 0.09683 0.15195 0.0
C2062 C 0.98318 0.08456 0.21322 0.0
C2063 C 0.93789 0.0888 0.15352 0.0
C2064 C 0.92687 0.04596 0.20484 0.0
C2065 C 0.91496 0.05682 0.21759 0.0
C2066 C 0.94135 0.05557 0.19314 0.0
C2067 C 0.94402 0.0766 0.19421 0.0
C2068 C 0.93154 0.08771 0.20645 0.0
C2069 C 0.9171 0.07767 0.21803 0.0
C2070 C 0.95428 0.04316 0.18015 0.0
C2071 C 0.9339 0.11015 0.20787 0.0
H2072 H 0.01097 0.09604 0.18672 0.0
H2073 H 0.97286 0.09914 0.13636 0.0
H2074 H 0.97246 0.09184 0.223 0.0
H2075 H 0.98072 0.06829 0.21486 0.0
H2076 H 0.99847 0.0895 0.21835 0.0
H2077 H 0.9379 0.09587 0.13905 0.0
H2078 H 0.93329 0.07274 0.15102 0.0
H2079 H 0.92661 0.09534 0.16319 0.0
H2080 H 0.92523 0.02985 0.20432 0.0
H2081 H 0.90794 0.08616 0.22786 0.0
H2082 H 0.96993 0.04555 0.18526 0.0
H2083 H 0.95379 0.04779 0.16468 0.0
H2084 H 0.94965 0.02702 0.1803 0.0
H2085 H 0.94828 0.11519 0.2151 0.0
H2086 H 0.9218 0.11661 0.21651 0.0
H2087 H 0.93416 0.11613 0.1929 0.0
C2088 C 0.27092 0.82915 0.16976 0.0
C2089 C 0.2667 0.80862 0.1661 0.0
C2090 C 0.267 0.84267 0.15543 0.0
C2091 C 0.25864 0.83546 0.13704 0.0
C2092 C 0.25343 0.81486 0.13366 0.0
C2093 C 0.25758 0.8017 0.14819 0.0
C2094 C 0.27267 0.86454 0.1596 0.0
C2095 C 0.24448 0.80657 0.11424 0.0
C2096 C 0.2383 0.86917 0.09988 0.0
C2097 C 0.25393 0.87066 0.0863 0.0
C2098 C 0.23983 0.85836 0.11696 0.0
C2099 C 0.25741 0.84896 0.12049 0.0
C2100 C 0.27353 0.85121 0.10726 0.0
C2101 C 0.27157 0.86198 0.09033 0.0
C2102 C 0.22236 0.85629 0.13077 0.0
C2103 C 0.29261 0.84156 0.11056 0.0
H2104 H 0.27767 0.83462 0.1837 0.0
H2105 H 0.25447 0.78586 0.14511 0.0
H2106 H 0.28552 0.86928 0.15029 0.0
H2107 H 0.26028 0.87349 0.15572 0.0
H2108 H 0.27677 0.868 0.17535 0.0
H2109 H 0.23946 0.79054 0.11469 0.0
H2110 H 0.23164 0.81486 0.11023 0.0
H2111 H 0.25564 0.8084 0.10234 0.0
H2112 H 0.22463 0.87587 0.09685 0.0
H2113 H 0.28379 0.86324 0.08001 0.0
H2114 H 0.22722 0.85979 0.14629 0.0
H2115 H 0.21582 0.84068 0.12989 0.0
H2116 H 0.21063 0.86616 0.1271 0.0
H2117 H 0.29854 0.84572 0.12559 0.0
H2118 H 0.30418 0.84584 0.09959 0.0
H2119 H 0.28968 0.82514 0.10951 0.0
C2120 C 0.01669 0.44585 0.14407 0.0
C2121 C 0.99703 0.44888 0.14923 0.0
C2122 C 0.03239 0.45171 0.15714 0.0
C2123 C 0.02827 0.46076 0.1758 0.0
C2124 C 0.00836 0.46283 0.18152 0.0
C2125 C 0.99296 0.45694 0.1681 0.0
C2126 C 0.05342 0.44937 0.15047 0.0
C2127 C 0.00339 0.47224 0.2014 0.0
C2128 C 0.06821 0.46939 0.2155 0.0
C2129 C 0.07391 0.48963 0.21372 0.0
C2130 C 0.0536 0.45956 0.20299 0.0
C2131 C 0.04474 0.47025 0.18832 0.0
C2132 C 0.05106 0.49046 0.18598 0.0
C2133 C 0.06551 0.49992 0.19876 0.0
C2134 C 0.04715 0.438 0.2059 0.0
C2135 C 0.04216 0.50231 0.17032 0.0
H2136 H 0.01992 0.43981 0.1294 0.0
H2137 H 0.97774 0.45905 0.1722 0.0
H2138 H 0.06089 0.46421 0.14777 0.0
H2139 H 0.062 0.4428 0.16212 0.0
H2140 H 0.05399 0.43986 0.13665 0.0
H2141 H 0.98721 0.47073 0.20442 0.0
H2142 H 0.01128 0.46538 0.21336 0.0
H2143 H 0.00843 0.48829 0.20191 0.0
H2144 H 0.07463 0.46141 0.22711 0.0
H2145 H 0.06998 0.51554 0.19723 0.0
H2146 H 0.04779 0.42916 0.19171 0.0
H2147 H 0.03151 0.43667 0.21094 0.0
H2148 H 0.05649 0.43144 0.21699 0.0
H2149 H 0.04343 0.49467 0.15555 0.0
H2150 H 0.04947 0.5176 0.16981 0.0
H2151 H 0.02613 0.50341 0.17327 0.0
C2152 C 0.3776 0.73313 0.29711 0.0
C2153 C 0.37872 0.73136 0.2765 0.0
C2154 C 0.39479 0.73694 0.30864 0.0
C2155 C 0.41353 0.73853 0.29928 0.0
C2156 C 0.41473 0.73648 0.27841 0.0
C2157 C 0.3972 0.73317 0.2672 0.0
C2158 C 0.39285 0.73947 0.33083 0.0
C2159 C 0.43449 0.73765 0.26801 0.0
C2160 C 0.45413 0.76654 0.33029 0.0
C2161 C 0.46201 0.75104 0.33999 0.0
C2162 C 0.43889 0.76263 0.31627 0.0
C2163 C 0.43172 0.74271 0.31154 0.0
C2164 C 0.44059 0.72694 0.32026 0.0
C2165 C 0.45547 0.7313 0.33461 0.0
C2166 C 0.42956 0.77987 0.30759 0.0
C2167 C 0.43367 0.70549 0.31517 0.0
H2168 H 0.36319 0.73181 0.30416 0.0
H2169 H 0.39789 0.73168 0.25121 0.0
H2170 H 0.40076 0.728 0.33808 0.0
H2171 H 0.39984 0.7542 0.3361 0.0
H2172 H 0.37713 0.73828 0.33569 0.0
H2173 H 0.43287 0.73516 0.25173 0.0
H2174 H 0.44248 0.75244 0.2712 0.0
H2175 H 0.44389 0.72638 0.27362 0.0
H2176 H 0.45909 0.78183 0.33445 0.0
H2177 H 0.46168 0.71928 0.34194 0.0
H2178 H 0.4142 0.78051 0.31324 0.0
H2179 H 0.42857 0.77782 0.29127 0.0
H2180 H 0.43799 0.79434 0.31144 0.0
H2181 H 0.41871 0.7021 0.32146 0.0
H2182 H 0.44386 0.69506 0.32107 0.0
H2183 H 0.43243 0.70278 0.29891 0.0
C2184 C 0.93455 0.35776 -9e-05 0.0
C2185 C 0.92893 0.3764 0.99469 0.0
C2186 C 0.94184 0.34438 0.98577 0.0
C2187 C 0.9429 0.34943 0.96576 0.0
C2188 C 0.936 0.36759 0.96013 0.0
C2189 C 0.92932 0.38098 0.9747 0.0
C2190 C 0.94926 0.32524 0.99241 0.0
C2191 C 0.93637 0.37323 0.93883 0.0
C2192 C 0.9816 0.32618 0.9335 0.0
C2193 C 0.97042 0.30999 0.92428 0.0
C2194 C 0.9728 0.33915 0.94706 0.0
C2195 C 0.95222 0.33615 0.95098 0.0
C2196 C 0.94076 0.32012 0.94127 0.0
C2197 C 0.95008 0.30704 0.92825 0.0
C2198 C 0.9856 0.3558 0.9575 0.0
C2199 C 0.91869 0.31681 0.94462 0.0
H2200 H 0.93378 0.3538 0.01522 0.0
H2201 H 0.92518 0.39536 0.97046 0.0
H2202 H 0.94163 0.31231 0.98405 0.0
H2203 H 0.96536 0.32507 0.98927 0.0
H2204 H 0.94692 0.32331 0.00845 0.0
H2205 H 0.92837 0.3867 0.9366 0.0
H2206 H 0.95196 0.37618 0.93401 0.0
H2207 H 0.92957 0.36079 0.92915 0.0
H2208 H 0.99735 0.32841 0.93048 0.0
H2209 H 0.94136 0.29464 0.92092 0.0
H2210 H 0.98482 0.35424 0.97373 0.0
H2211 H 0.98001 0.37035 0.95442 0.0
H2212 H 0.00138 0.35598 0.95291 0.0
H2213 H 0.91577 0.31356 0.96029 0.0
H2214 H 0.91175 0.30432 0.93508 0.0
H2215 H 0.91137 0.33051 0.94164 0.0
C2216 C 0.64898 0.7808 0.32559 0.0
C2217 C 0.64706 0.77327 0.30595 0.0
C2218 C 0.63253 0.78068 0.3382 0.0
C2219 C 0.61372 0.77291 0.33094 0.0
C2220 C 0.61194 0.76421 0.3115 0.0
C2221 C 0.62865 0.76448 0.29923 0.0
C2222 C 0.63506 0.78988 0.35891 0.0
C2223 C 0.59213 0.75576 0.30321 0.0
C2224 C 0.56968 0.76294 0.36483 0.0
C2225 C 0.55914 0.77973 0.36226 0.0
C2226 C 0.58785 0.76076 0.35525 0.0
C2227 C 0.59559 0.77569 0.3428 0.0
C2228 C 0.58539 0.79301 0.34079 0.0
C2229 C 0.56732 0.79483 0.35056 0.0
C2230 C 0.59841 0.74217 0.35787 0.0
C2231 C 0.5932 0.80932 0.3277 0.0
H2232 H 0.66327 0.78737 0.33091 0.0
H2233 H 0.62704 0.75881 0.28402 0.0
H2234 H 0.62784 0.80408 0.35999 0.0
H2235 H 0.62774 0.77997 0.36976 0.0
H2236 H 0.65094 0.79298 0.36309 0.0
H2237 H 0.59359 0.74786 0.28856 0.0
H2238 H 0.58475 0.74527 0.3135 0.0
H2239 H 0.58229 0.76797 0.30154 0.0
H2240 H 0.56348 0.75122 0.37389 0.0
H2241 H 0.55931 0.80788 0.34856 0.0
H2242 H 0.6142 0.74608 0.36187 0.0
H2243 H 0.59816 0.73316 0.34372 0.0
H2244 H 0.59143 0.73287 0.36945 0.0
H2245 H 0.60863 0.81458 0.33201 0.0
H2246 H 0.58397 0.82224 0.32847 0.0
H2247 H 0.59354 0.80345 0.31213 0.0
C2248 C 0.04867 0.16242 0.98862 0.0
C2249 C 0.04866 0.17233 0.00733 0.0
C2250 C 0.04341 0.17189 0.97161 0.0
C2251 C 0.03784 0.19166 0.97339 0.0
C2252 C 0.03882 0.20208 0.99207 0.0
C2253 C 0.04431 0.19231 0.00878 0.0
C2254 C 0.04277 0.16038 0.95191 0.0
C2255 C 0.03305 0.22321 0.99459 0.0
C2256 C 0.03211 0.22319 0.92908 0.0
C2257 C 0.01144 0.22137 0.92638 0.0
C2258 C 0.04108 0.21298 0.94383 0.0
C2259 C 0.02907 0.20084 0.95625 0.0
C2260 C 0.00829 0.1984 0.95311 0.0
C2261 C -0.00025 0.20861 0.93817 0.0
C2262 C 0.06331 0.21573 0.94657 0.0
C2263 C 0.99495 0.18562 0.96608 0.0
H2264 H 0.05188 0.14693 0.98736 0.0
H2265 H 0.04468 0.20019 0.02313 0.0
H2266 H 0.0271 0.15683 0.94725 0.0
H2267 H 0.05013 0.16943 0.94039 0.0
H2268 H 0.05004 0.14623 0.95255 0.0
H2269 H 0.03609 0.2297 0.00978 0.0
H2270 H 0.0412 0.23274 0.98393 0.0
H2271 H 0.01698 0.22357 0.99143 0.0
H2272 H 0.04125 0.23296 0.91996 0.0
H2273 H 0.98379 0.20709 0.93618 0.0
H2274 H 0.06959 0.20109 0.94725 0.0
H2275 H 0.06689 0.22408 0.96081 0.0
H2276 H 0.0707 0.22399 0.93448 0.0
H2277 H 2e-05 0.1704 0.9662 0.0
H2278 H 0.97922 0.18453 0.9611 0.0
H2279 H 0.99572 0.19193 0.98152 0.0
C2280 C 0.39606 0.31776 0.25678 0.0
C2281 C 0.37649 0.31235 0.25065 0.0
C2282 C 0.41191 0.31628 0.24358 0.0
C2283 C 0.40805 0.30895 0.22391 0.0
C2284 C 0.38828 0.30369 0.21759 0.0
C2285 C 0.37271 0.30557 0.23103 0.0
C2286 C 0.43278 0.3223 0.25074 0.0
C2287 C 0.38361 0.29559 0.19679 0.0
C2288 C 0.44588 0.31762 0.18329 0.0
C2289 C 0.45442 0.29933 0.18191 0.0
C2290 C 0.43116 0.3212 0.19733 0.0
C2291 C 0.42469 0.30604 0.21007 0.0
C2292 C 0.43354 0.28772 0.20903 0.0
C2293 C 0.4484 0.28463 0.19505 0.0
C2294 C 0.42225 0.34103 0.19823 0.0
C2295 C 0.42689 0.27113 0.22228 0.0
H2296 H 0.39895 0.3232 0.27192 0.0
H2297 H 0.35758 0.3012 0.22635 0.0
H2298 H 0.4417 0.30918 0.24999 0.0
H2299 H 0.44004 0.33343 0.24102 0.0
H2300 H 0.43315 0.32868 0.26618 0.0
H2301 H 0.3674 0.29262 0.19412 0.0
H2302 H 0.38966 0.30626 0.18596 0.0
H2303 H 0.39082 0.28154 0.19391 0.0
H2304 H 0.45055 0.3291 0.17327 0.0
H2305 H 0.45489 0.27044 0.19405 0.0
H2306 H 0.42307 0.34768 0.21354 0.0
H2307 H 0.40632 0.33892 0.19404 0.0
H2308 H 0.42984 0.3517 0.1882 0.0
H2309 H 0.42813 0.27646 0.23801 0.0
H2310 H 0.43572 0.25802 0.22003 0.0
H2311 H 0.41104 0.26633 0.21933 0.0
C2312 C 0.53099 0.3859 0.01539 0.0
C2313 C 0.53893 0.4056 0.01846 0.0
C2314 C 0.52673 0.37388 0.03139 0.0
C2315 C 0.53042 0.38182 0.05091 0.0
C2316 C 0.53894 0.40152 0.05409 0.0
C2317 C 0.5431 0.41319 0.03781 0.0
C2318 C 0.51776 0.35287 0.02742 0.0
C2319 C 0.54296 0.41053 0.07468 0.0
C2320 C 0.49732 0.35771 0.08939 0.0
C2321 C 0.50963 0.34422 0.09714 0.0
C2322 C 0.50421 0.37063 0.07492 0.0
C2323 C 0.52388 0.36995 0.06795 0.0
C2324 C 0.53672 0.35707 0.07641 0.0
C2325 C 0.52945 0.34437 0.09101 0.0
C2326 C 0.49013 0.38434 0.06644 0.0
C2327 C 0.5578 0.356 0.06935 0.0
H2328 H 0.52801 0.37991 0.00045 0.0
H2329 H 0.54904 0.42849 0.04027 0.0
H2330 H 0.52655 0.34225 0.03497 0.0
H2331 H 0.50251 0.35139 0.0335 0.0
H2332 H 0.51703 0.34854 0.01139 0.0
H2333 H 0.55118 0.42543 0.07457 0.0
H2334 H 0.52871 0.41203 0.08251 0.0
H2335 H 0.55166 0.40066 0.08331 0.0
H2336 H 0.48203 0.35777 0.09419 0.0
H2337 H 0.53901 0.33392 0.09693 0.0
H2338 H 0.48699 0.37981 0.05071 0.0
H2339 H 0.49699 0.39983 0.0669 0.0
H2340 H 0.47583 0.38413 0.07452 0.0
H2341 H 0.55772 0.34962 0.05394 0.0
H2342 H 0.56641 0.34667 0.07871 0.0
H2343 H 0.56552 0.37112 0.06927 0.0
C2344 C 0.61659 0.27458 0.23639 0.0
C2345 C 0.63604 0.27229 0.22994 0.0
C2346 C 0.60098 0.27526 0.22291 0.0
C2347 C 0.60477 0.27322 0.2024 0.0
C2348 C 0.62433 0.27098 0.1957 0.0
C2349 C 0.63978 0.27064 0.20956 0.0
C2350 C 0.58033 0.27774 0.23067 0.0
C2351 C 0.62887 0.26859 0.17394 0.0
C2352 C 0.55885 0.25414 0.17327 0.0
C2353 C 0.5521 0.27182 0.16676 0.0
C2354 C 0.5767 0.25424 0.18381 0.0
C2355 C 0.58792 0.27251 0.1882 0.0
C2356 C 0.5817 0.29028 0.18082 0.0
C2357 C 0.56388 0.2897 0.17003 0.0
C2358 C 0.583 0.23492 0.19114 0.0
C2359 C 0.59317 0.31007 0.18536 0.0
H2360 H 0.61342 0.27542 0.25207 0.0
H2361 H 0.65478 0.2691 0.20442 0.0
H2362 H 0.57402 0.29046 0.22383 0.0
H2363 H 0.57047 0.26424 0.22662 0.0
H2364 H 0.5801 0.28031 0.24699 0.0
H2365 H 0.64496 0.26767 0.17111 0.0
H2366 H 0.6207 0.25487 0.16753 0.0
H2367 H 0.62374 0.28126 0.16604 0.0
H2368 H 0.54989 0.24023 0.17057 0.0
H2369 H 0.55872 0.30341 0.16503 0.0
H2370 H 0.58139 0.23493 0.20744 0.0
H2371 H 0.59885 0.23328 0.18772 0.0
H2372 H 0.57396 0.2218 0.18451 0.0
H2373 H 0.5918 0.31427 0.20131 0.0
H2374 H 0.58768 0.32208 0.17668 0.0
H2375 H 0.60918 0.30907 0.18225 0.0
C2376 C 0.43021 0.18377 0.02532 0.0
C2377 C 0.44446 0.17217 0.01652 0.0
C2378 C 0.43566 0.19899 0.03957 0.0
C2379 C 0.4559 0.20306 0.04473 0.0
C2380 C 0.47047 0.19217 0.03518 0.0
C2381 C 0.46456 0.17667 0.02141 0.0
C2382 C 0.41968 0.21015 0.04967 0.0
C2383 C 0.49226 0.19638 0.04002 0.0
C2384 C 0.47197 0.2518 0.07251 0.0
C2385 C 0.47417 0.24556 0.09177 0.0
C2386 C 0.46607 0.23812 0.05698 0.0
C2387 C 0.46178 0.21787 0.06097 0.0
C2388 C 0.46357 0.21158 0.08048 0.0
C2389 C 0.47002 0.22548 0.09562 0.0
C2390 C 0.46483 0.24524 0.03626 0.0
C2391 C 0.45871 0.19016 0.08537 0.0
H2392 H 0.4147 0.18073 0.02135 0.0
H2393 H 0.47573 0.16766 0.01504 0.0
H2394 H 0.4195 0.2073 0.06567 0.0
H2395 H 0.42286 0.22639 0.04837 0.0
H2396 H 0.40471 0.20571 0.0434 0.0
H2397 H 0.50182 0.18802 0.0298 0.0
H2398 H 0.49666 0.21251 0.03929 0.0
H2399 H 0.49515 0.19219 0.05532 0.0
H2400 H 0.47534 0.26732 0.0695 0.0
H2401 H 0.47156 0.22068 0.11055 0.0
H2402 H 0.44969 0.24158 0.03013 0.0
H2403 H 0.47523 0.23746 0.02651 0.0
H2404 H 0.46849 0.26152 0.03568 0.0
H2405 H 0.4434 0.18515 0.08038 0.0
H2406 H 0.45991 0.18793 0.10145 0.0
H2407 H 0.46892 0.18052 0.07739 0.0
C2408 C 0.28612 0.40124 0.73961 0.0
C2409 C 0.2656 0.40145 0.7369 0.0
C2410 C 0.2982 0.41901 0.74214 0.0
C2411 C 0.28955 0.4374 0.74158 0.0
C2412 C 0.26894 0.43769 0.73801 0.0
C2413 C 0.25714 0.41965 0.73594 0.0
C2414 C 0.32006 0.41807 0.74626 0.0
C2415 C 0.2593 0.45702 0.73689 0.0
C2416 C 0.31701 0.48053 0.77044 0.0
C2417 C 0.32856 0.48954 0.75568 0.0
C2418 C 0.30388 0.46382 0.76594 0.0
C2419 C 0.30195 0.4562 0.74613 0.0
C2420 C 0.31288 0.46577 0.73101 0.0
C2421 C 0.32625 0.48222 0.73601 0.0
C2422 C 0.29271 0.45383 0.78252 0.0
C2423 C 0.31084 0.45831 0.70968 0.0
H2424 H 0.2926 0.38713 0.74055 0.0
H2425 H 0.24126 0.41975 0.73369 0.0
H2426 H 0.32902 0.42677 0.7355 0.0
H2427 H 0.32373 0.42483 0.76121 0.0
H2428 H 0.32456 0.40258 0.7455 0.0
H2429 H 0.24353 0.45467 0.7321 0.0
H2430 H 0.25993 0.46503 0.7516 0.0
H2431 H 0.26747 0.46678 0.72642 0.0
H2432 H 0.31878 0.48608 0.78568 0.0
H2433 H 0.33502 0.48926 0.72452 0.0
H2434 H 0.29736 0.43854 0.78369 0.0
H2435 H 0.27655 0.45252 0.77937 0.0
H2436 H 0.29534 0.46206 0.79701 0.0
H2437 H 0.31686 0.44353 0.70778 0.0
H2438 H 0.31885 0.46856 0.69951 0.0
H2439 H 0.29496 0.4564 0.70529 0.0
C2440 C 0.28223 0.66296 0.80179 0.0
C2441 C 0.2757 0.6707 0.78423 0.0
C2442 C 0.29507 0.64763 0.80144 0.0
C2443 C 0.30081 0.63902 0.7831 0.0
C2444 C 0.29427 0.64654 0.7653 0.0
C2445 C 0.28216 0.66255 0.76608 0.0
C2446 C 0.30214 0.64038 0.82079 0.0
C2447 C 0.29956 0.6373 0.74544 0.0
C2448 C 0.34432 0.60648 0.78205 0.0
C2449 C 0.33457 0.58774 0.78461 0.0
C2450 C 0.33354 0.62342 0.7815 0.0
C2451 C 0.31254 0.62128 0.78269 0.0
C2452 C 0.30268 0.60217 0.78447 0.0
C2453 C 0.31386 0.58569 0.78585 0.0
C2454 C 0.34461 0.64363 0.7804 0.0
C2455 C 0.28031 0.59913 0.78505 0.0
H2456 H 0.27706 0.66853 0.81596 0.0
H2457 H 0.27769 0.66854 0.75238 0.0
H2458 H 0.29525 0.6252 0.823 0.0
H2459 H 0.31846 0.63949 0.82054 0.0
H2460 H 0.29835 0.65021 0.83363 0.0
H2461 H 0.29343 0.64501 0.73296 0.0
H2462 H 0.3159 0.63763 0.74384 0.0
H2463 H 0.29372 0.62146 0.74436 0.0
H2464 H 0.36038 0.60796 0.78118 0.0
H2465 H 0.30639 0.57108 0.7876 0.0
H2466 H 0.34156 0.65293 0.79386 0.0
H2467 H 0.33938 0.65137 0.76755 0.0
H2468 H 0.3609 0.6427 0.77914 0.0
H2469 H 0.27472 0.60638 0.79876 0.0
H2470 H 0.27495 0.58314 0.78459 0.0
H2471 H 0.27375 0.60616 0.77237 0.0
C2472 C 0.85353 0.48284 0.46379 0.0
C2473 C 0.86525 0.49436 0.47785 0.0
C2474 C 0.83732 0.47024 0.46958 0.0
C2475 C 0.83257 0.46937 0.48988 0.0
C2476 C 0.84454 0.48063 0.50417 0.0
C2477 C 0.86085 0.49284 0.49799 0.0
C2478 C 0.82499 0.45823 0.45395 0.0
C2479 C 0.83984 0.48016 0.52595 0.0
C2480 C 0.77916 0.45435 0.50285 0.0
C2481 C 0.78031 0.43463 0.50802 0.0
C2482 C 0.79611 0.46587 0.49706 0.0
C2483 C 0.81457 0.45733 0.49612 0.0
C2484 C 0.81584 0.43741 0.50123 0.0
C2485 C 0.79869 0.42633 0.50728 0.0
C2486 C 0.79429 0.48719 0.49201 0.0
C2487 C 0.83524 0.42777 0.50012 0.0
H2488 H 0.85668 0.48408 0.4482 0.0
H2489 H 0.87007 0.50136 0.50898 0.0
H2490 H 0.82352 0.44231 0.45748 0.0
H2491 H 0.80982 0.46339 0.45368 0.0
H2492 H 0.8315 0.4595 0.43897 0.0
H2493 H 0.85092 0.48946 0.5352 0.0
H2494 H 0.82498 0.48562 0.52871 0.0
H2495 H 0.83929 0.46468 0.53078 0.0
H2496 H 0.76501 0.46086 0.50349 0.0
H2497 H 0.79964 0.41104 0.51113 0.0
H2498 H 0.79893 0.48934 0.47651 0.0
H2499 H 0.80432 0.49728 0.50162 0.0
H2500 H 0.7789 0.49166 0.49381 0.0
H2501 H 0.84114 0.42817 0.48485 0.0
H2502 H 0.83366 0.41206 0.50442 0.0
H2503 H 0.84641 0.43616 0.50996 0.0
C2504 C 0.724 0.89874 0.76962 0.0
C2505 C 0.71883 0.87996 0.7769 0.0
C2506 C 0.71045 0.91341 0.7699 0.0
C2507 C 0.69127 0.90926 0.77779 0.0
C2508 C 0.68558 0.89003 0.78423 0.0
C2509 C 0.69944 0.87558 0.78369 0.0
C2510 C 0.71707 0.93373 0.76282 0.0
C2511 C 0.66523 0.88502 0.79263 0.0
C2512 C 0.66927 0.95447 0.80135 0.0
C2513 C 0.65661 0.9597 0.7864 0.0
C2514 C 0.68001 0.9376 0.799 0.0
C2515 C 0.67811 0.9257 0.78121 0.0
C2516 C 0.66478 0.93044 0.76634 0.0
C2517 C 0.65413 0.9474 0.76913 0.0
C2518 C 0.69396 0.93297 0.81529 0.0
C2519 C 0.66238 0.91808 0.74719 0.0
H2520 H 0.739 0.90237 0.76458 0.0
H2521 H 0.69524 0.86099 0.78905 0.0
H2522 H 0.70596 0.93869 0.75246 0.0
H2523 H 0.71829 0.94468 0.77561 0.0
H2524 H 0.73167 0.93395 0.75529 0.0
H2525 H 0.66233 0.86885 0.79477 0.0
H2526 H 0.66388 0.89316 0.80713 0.0
H2527 H 0.65359 0.88983 0.78277 0.0
H2528 H 0.67114 0.9638 0.81481 0.0
H2529 H 0.64435 0.95135 0.75751 0.0
H2530 H 0.7095 0.93456 0.80995 0.0
H2531 H 0.69086 0.91736 0.81948 0.0
H2532 H 0.69275 0.94295 0.82869 0.0
H2533 H 0.6763 0.91974 0.73855 0.0
H2534 H 0.65002 0.92254 0.738 0.0
H2535 H 0.65962 0.90209 0.75015 0.0
C2536 C 0.65052 0.5593 0.9577 0.0
C2537 C 0.65293 0.53933 0.96127 0.0
C2538 C 0.66618 0.57401 0.96083 0.0
C2539 C 0.68453 0.56871 0.96817 0.0
C2540 C 0.68729 0.54854 0.97124 0.0
C2541 C 0.67154 0.53407 0.96749 0.0
C2542 C 0.66286 0.59533 0.95696 0.0
C2543 C 0.70659 0.54234 0.97928 0.0
C2544 C 0.73093 0.60404 0.96641 0.0
C2545 C 0.73116 0.61316 0.98547 0.0
C2546 C 0.71556 0.58987 0.96036 0.0
C2547 C 0.70041 0.58436 0.97389 0.0
C2548 C 0.7006 0.59352 0.99316 0.0
C2549 C 0.71586 0.60801 0.99863 0.0
C2550 C 0.71553 0.58079 0.93954 0.0
C2551 C 0.68492 0.58772 0.00813 0.0
H2552 H 0.63619 0.56364 0.95313 0.0
H2553 H 0.67374 0.51863 0.96981 0.0
H2554 H 0.66277 0.60421 0.97117 0.0
H2555 H 0.67512 0.60198 0.94793 0.0
H2556 H 0.64858 0.59666 0.94918 0.0
H2557 H 0.70656 0.52596 0.98018 0.0
H2558 H 0.71915 0.54757 0.96985 0.0
H2559 H 0.70934 0.54935 0.9943 0.0
H2560 H 0.74268 0.60814 0.95615 0.0
H2561 H 0.71609 0.61494 0.01342 0.0
H2562 H 0.70128 0.58291 0.93209 0.0
H2563 H 0.71682 0.56454 0.93986 0.0
H2564 H 0.72789 0.58737 0.93057 0.0
H2565 H 0.67002 0.59038 0.00244 0.0
H2566 H 0.68732 0.59614 0.02255 0.0
H2567 H 0.68487 0.5716 0.01063 0.0
C2568 C 0.20104 0.64434 0.23504 0.0
C2569 C 0.22058 0.64384 0.22832 0.0
C2570 C 0.18964 0.62675 0.239 0.0
C2571 C 0.19798 0.60825 0.23597 0.0
C2572 C 0.21759 0.60764 0.22882 0.0
C2573 C 0.22871 0.62548 0.22518 0.0
C2574 C 0.16882 0.62798 0.24677 0.0
C2575 C 0.22685 0.58817 0.22516 0.0
C2576 C 0.17433 0.56548 0.26419 0.0
C2577 C 0.16104 0.55617 0.25008 0.0
C2578 C 0.18682 0.5822 0.25965 0.0
C2579 C 0.18614 0.58959 0.24048 0.0
C2580 C 0.17341 0.57973 0.22593 0.0
C2581 C 0.16092 0.56319 0.23093 0.0
C2582 C 0.20016 0.59242 0.27558 0.0
C2583 C 0.17251 0.58702 0.20524 0.0
H2584 H 0.19484 0.65855 0.23769 0.0
H2585 H 0.24379 0.6251 0.21981 0.0
H2586 H 0.15807 0.61923 0.23675 0.0
H2587 H 0.16754 0.62142 0.26146 0.0
H2588 H 0.16453 0.64353 0.24823 0.0
H2589 H 0.24208 0.59025 0.21907 0.0
H2590 H 0.22754 0.58039 0.23916 0.0
H2591 H 0.21755 0.5783 0.21466 0.0
H2592 H 0.17447 0.56015 0.27903 0.0
H2593 H 0.1508 0.55597 0.2199 0.0
H2594 H 0.19558 0.60763 0.27901 0.0
H2595 H 0.21572 0.59398 0.27035 0.0
H2596 H 0.19967 0.58422 0.28941 0.0
H2597 H 0.16659 0.60189 0.20569 0.0
H2598 H 0.16294 0.5768 0.19526 0.0
H2599 H 0.18762 0.58868 0.19885 0.0
C2600 C 0.88288 0.5539 0.06379 0.0
C2601 C 0.87359 0.53458 0.06168 0.0
C2602 C 0.87363 0.57025 0.05711 0.0
C2603 C 0.85465 0.56718 0.04814 0.0
C2604 C 0.84493 0.5478 0.04657 0.0
C2605 C 0.85454 0.53174 0.05332 0.0
C2606 C 0.88448 0.59066 0.05898 0.0
C2607 C 0.82461 0.54395 0.03723 0.0
C2608 C 0.8223 0.60987 0.04099 0.0
C2609 C 0.82489 0.61287 0.02077 0.0
C2610 C 0.8324 0.59547 0.05032 0.0
C2611 C 0.84543 0.58392 0.03918 0.0
C2612 C 0.84878 0.58755 0.01901 0.0
C2613 C 0.83845 0.60194 0.01005 0.0
C2614 C 0.82847 0.59204 0.07187 0.0
C2615 C 0.86271 0.57568 0.00667 0.0
H2616 H 0.89769 0.55616 0.07005 0.0
H2617 H 0.8472 0.51687 0.05191 0.0
H2618 H 0.88823 0.59586 0.04405 0.0
H2619 H 0.87486 0.60148 0.0661 0.0
H2620 H 0.89841 0.5908 0.06771 0.0
H2621 H 0.81861 0.52824 0.0382 0.0
H2622 H 0.81408 0.55374 0.04451 0.0
H2623 H 0.82537 0.5475 0.02141 0.0
H2624 H 0.81183 0.61824 0.04936 0.0
H2625 H 0.84062 0.60425 0.99445 0.0
H2626 H 0.84265 0.59229 0.08016 0.0
H2627 H 0.82064 0.57711 0.07331 0.0
H2628 H 0.81926 0.60335 0.07885 0.0
H2629 H 0.87744 0.57615 0.01396 0.0
H2630 H 0.86472 0.58126 0.99158 0.0
H2631 H 0.85679 0.55987 0.00529 0.0
C2632 C 0.15026 0.0335 0.06299 0.0
C2633 C 0.13046 0.03225 0.06923 0.0
C2634 C 0.16035 0.01631 0.05949 0.0
C2635 C 0.15037 0.99741 0.06223 0.0
C2636 C 0.13065 0.99609 0.0693 0.0
C2637 C 0.12092 0.01353 0.07271 0.0
C2638 C 0.18144 0.01835 0.05208 0.0
C2639 C 0.11952 0.97622 0.07238 0.0
C2640 C 0.16908 0.95601 0.02938 0.0
C2641 C 0.18184 0.94733 0.04217 0.0
C2642 C 0.15812 0.97177 0.03599 0.0
C2643 C 0.16 0.97912 0.05589 0.0
C2644 C 0.17206 0.96978 0.06915 0.0
C2645 C 0.18283 0.95391 0.06214 0.0
C2646 C 0.14524 0.98117 0.02141 0.0
C2647 C 0.17436 0.97716 0.09049 0.0
H2648 H 0.15778 0.04795 0.06058 0.0
H2649 H 0.10555 0.01244 0.07735 0.0
H2650 H 0.19113 0.00997 0.06129 0.0
H2651 H 0.18201 0.01189 0.03673 0.0
H2652 H 0.18758 0.03411 0.0522 0.0
H2653 H 0.10513 0.97781 0.07997 0.0
H2654 H 0.11655 0.96821 0.05785 0.0
H2655 H 0.12857 0.96685 0.0812 0.0
H2656 H 0.16812 0.95089 0.01396 0.0
H2657 H 0.19271 0.9473 0.07208 0.0
H2658 H 0.15139 0.9966 0.01907 0.0
H2659 H 0.13003 0.98205 0.02733 0.0
H2660 H 0.14427 0.97279 0.00687 0.0
H2661 H 0.18255 0.99208 0.09128 0.0
H2662 H 0.18257 0.96704 0.09935 0.0
H2663 H 0.15962 0.97878 0.09729 0.0
loop_
_geom_bond_atom_site_label_1
_geom_bond_atom_site_label_2
_geom_bond_distance
_geom_bond_site_symmetry_2
_ccdc_geom_bond_type
C0 C1 1.391 . S
C0 C4 1.391 . S
C0 H42 0.948 . S
C1 C0 1.391 . S
C1 C2 1.391 . S
C2 C1 1.391 . S
C2 H58 0.947 . S
C2 C59 1.392 . S
C3 C4 1.391 . S
C3 C7 1.397 . S
C3 C59 1.419 . S
C4 C0 1.391 . S
C4 C3 1.391 . S
C4 C5 1.399 . S
C5 C4 1.399 . S
C5 C8 1.396 . S
C5 C17 1.453 . S
C5 C18 1.684 . S
H6 C30 0.948 . S
C7 C3 1.397 . S
C7 C8 1.394 . S
C7 C26 1.723 . S
C8 C5 1.396 . S
C8 C7 1.394 . S
C8 C38 1.723 . S
H9 C32 0.947 . S
H10 C33 0.948 . S
H11 C39 0.982 . S
H12 C40 0.979 . S
H13 C40 0.980 . S
H14 C40 0.983 . S
H15 C39 0.979 . S
H16 C39 0.977 . S
C17 C5 1.453 . S
C17 H46 0.982 . S
C17 H47 0.979 . S
C17 H48 0.977 . S
C18 C5 1.684 . S
C18 H43 0.979 . S
C18 H44 0.980 . S
C18 H45 0.983 . S
C19 C20 1.391 . S
C19 C24 1.391 . S
C19 H49 0.948 . S
C20 C19 1.391 . S
C20 C21 1.391 . S
C21 C20 1.391 . S
C21 C22 1.392 . S
C21 H50 0.947 . S
C22 C21 1.392 . S
C22 C23 1.419 . S
C22 H51 0.948 . S
C23 C22 1.419 . S
C23 C24 1.391 . S
C23 C27 1.397 . S
C24 C19 1.391 . S
C24 C23 1.391 . S
C24 C25 1.399 . S
C25 C24 1.399 . S
C25 C26 1.396 . S
C25 C28 1.453 . S
C25 C29 1.684 . S
C26 C7 1.723 . S
C26 C25 1.396 . S
C26 C27 1.394 . S
C27 C23 1.397 . S
C27 C26 1.394 . S
C27 C37 1.723 . S
C28 C25 1.453 . S
C28 H52 0.982 . S
C28 H53 0.979 . S
C28 H54 0.977 . S
C29 C25 1.684 . S
C29 H55 0.979 . S
C29 H56 0.980 . S
C29 H57 0.983 . S
C30 H6 0.948 . S
C30 C31 1.391 . S
C30 C35 1.391 . S
C31 C30 1.391 . S
C31 C32 1.391 . S
C32 H9 0.947 . S
C32 C31 1.391 . S
C32 C33 1.392 . S
C33 H10 0.948 . S
C33 C32 1.392 . S
C33 C34 1.419 . S
C34 C33 1.419 . S
C34 C35 1.391 . S
C34 C38 1.397 . S
C35 C30 1.391 . S
C35 C34 1.391 . S
C35 C36 1.399 . S
C36 C35 1.399 . S
C36 C37 1.396 . S
C36 C39 1.453 . S
C36 C40 1.684 . S
C37 C27 1.723 . S
C37 C36 1.396 . S
C37 C38 1.394 . S
C38 C8 1.723 . S
C38 C34 1.397 . S
C38 C37 1.394 . S
C39 H11 0.982 . S
C39 H15 0.979 . S
C39 H16 0.977 . S
C39 C36 1.453 . S
C40 H12 0.979 . S
C40 H13 0.980 . S
C40 H14 0.983 . S
C40 C36 1.684 . S
H41 C59 0.948 . S
H42 C0 0.948 . S
H43 C18 0.979 . S
H44 C18 0.980 . S
H45 C18 0.983 . S
H46 C17 0.982 . S
H47 C17 0.979 . S
H48 C17 0.977 . S
H49 C19 0.948 . S
H50 C21 0.947 . S
H51 C22 0.948 . S
H52 C28 0.982 . S
H53 C28 0.979 . S
H54 C28 0.977 . S
H55 C29 0.979 . S
H56 C29 0.980 . S
H57 C29 0.983 . S
H58 C2 0.947 . S
C59 C2 1.392 . S
C59 C3 1.419 . S
C59 H41 0.948 . S
C60 C61 1.391 . S
C60 C64 1.391 . S
C60 H102 0.948 . S
C61 C60 1.391 . S
C61 C62 1.391 . S
C62 C61 1.391 . S
C62 H118 0.947 . S
C62 C119 1.392 . S
C63 C64 1.391 . S
C63 C67 1.397 . S
C63 C119 1.419 . S
C64 C60 1.391 . S
C64 C63 1.391 . S
C64 C65 1.399 . S
C65 C64 1.399 . S
C65 C68 1.396 . S
C65 C77 1.453 . S
C65 C78 1.684 . S
H66 C90 0.948 . S
C67 C63 1.397 . S
C67 C68 1.394 . S
C67 C86 1.723 . S
C68 C65 1.396 . S
C68 C67 1.394 . S
C68 C98 1.723 . S
H69 C92 0.947 . S
H70 C93 0.948 . S
H71 C99 0.982 . S
H72 C100 0.979 . S
H73 C100 0.980 . S
H74 C100 0.983 . S
H75 C99 0.979 . S
H76 C99 0.977 . S
C77 C65 1.453 . S
C77 H106 0.982 . S
C77 H107 0.979 . S
C77 H108 0.977 . S
C78 C65 1.684 . S
C78 H103 0.979 . S
C78 H104 0.980 . S
C78 H105 0.983 . S
C79 C80 1.391 . S
C79 C84 1.391 . S
C79 H109 0.948 . S
C80 C79 1.391 . S
C80 C81 1.391 . S
C81 C80 1.391 . S
C81 C82 1.392 . S
C81 H110 0.947 . S
C82 C81 1.392 . S
C82 C83 1.419 . S
C82 H111 0.948 . S
C83 C82 1.419 . S
C83 C84 1.391 . S
C83 C87 1.397 . S
C84 C79 1.391 . S
C84 C83 1.391 . S
C84 C85 1.399 . S
C85 C84 1.399 . S
C85 C86 1.396 . S
C85 C88 1.453 . S
C85 C89 1.684 . S
C86 C67 1.723 . S
C86 C85 1.396 . S
C86 C87 1.394 . S
C87 C83 1.397 . S
C87 C86 1.394 . S
C87 C97 1.723 . S
C88 C85 1.453 . S
C88 H112 0.982 . S
C88 H113 0.979 . S
C88 H114 0.977 . S
C89 C85 1.684 . S
C89 H115 0.979 . S
C89 H116 0.980 . S
C89 H117 0.983 . S
C90 H66 0.948 . S
C90 C91 1.391 . S
C90 C95 1.391 . S
C91 C90 1.391 . S
C91 C92 1.391 . S
C92 H69 0.947 . S
C92 C91 1.391 . S
C92 C93 1.392 . S
C93 H70 0.948 . S
C93 C92 1.392 . S
C93 C94 1.419 . S
C94 C93 1.419 . S
C94 C95 1.391 . S
C94 C98 1.397 . S
C95 C90 1.391 . S
C95 C94 1.391 . S
C95 C96 1.399 . S
C96 C95 1.399 . S
C96 C97 1.396 . S
C96 C99 1.453 . S
C96 C100 1.684 . S
C97 C87 1.723 . S
C97 C96 1.396 . S
C97 C98 1.394 . S
C98 C68 1.723 . S
C98 C94 1.397 . S
C98 C97 1.394 . S
C99 H71 0.982 . S
C99 H75 0.979 . S
C99 H76 0.977 . S
C99 C96 1.453 . S
C100 H72 0.979 . S
C100 H73 0.980 . S
C100 H74 0.983 . S
C100 C96 1.684 . S
H101 C119 0.948 . S
H102 C60 0.948 . S
H103 C78 0.979 . S
H104 C78 0.980 . S
H105 C78 0.983 . S
H106 C77 0.982 . S
H107 C77 0.979 . S
H108 C77 0.977 . S
H109 C79 0.948 . S
H110 C81 0.947 . S
H111 C82 0.948 . S
H112 C88 0.982 . S
H113 C88 0.979 . S
H114 C88 0.977 . S
H115 C89 0.979 . S
H116 C89 0.980 . S
H117 C89 0.983 . S
H118 C62 0.947 . S
C119 C62 1.392 . S
C119 C63 1.419 . S
C119 H101 0.948 . S
C120 C121 1.391 . S
C120 C124 1.391 . S
C120 H162 0.948 . S
C121 C120 1.391 . S
C121 C122 1.391 . S
C122 C121 1.391 . S
C122 H178 0.947 . S
C122 C179 1.392 . S
C123 C124 1.391 . S
C123 C127 1.397 . S
C123 C179 1.419 . S
C124 C120 1.391 . S
C124 C123 1.391 . S
C124 C125 1.399 . S
C125 C124 1.399 . S
C125 C128 1.396 . S
C125 C137 1.453 . S
C125 C138 1.684 . S
H126 C150 0.948 . S
C127 C123 1.397 . S
C127 C128 1.394 . S
C127 C146 1.723 . S
C128 C125 1.396 . S
C128 C127 1.394 . S
C128 C158 1.723 . S
H129 C152 0.947 . S
H130 C153 0.948 . S
H131 C159 0.982 . S
H132 C160 0.979 . S
H133 C160 0.980 . S
H134 C160 0.983 . S
H135 C159 0.979 . S
H136 C159 0.977 . S
C137 C125 1.453 . S
C137 H166 0.982 . S
C137 H167 0.979 . S
C137 H168 0.977 . S
C138 C125 1.684 . S
C138 H163 0.979 . S
C138 H164 0.980 . S
C138 H165 0.983 . S
C139 C140 1.391 . S
C139 C144 1.391 . S
C139 H169 0.948 . S
C140 C139 1.391 . S
C140 C141 1.391 . S
C141 C140 1.391 . S
C141 C142 1.392 . S
C141 H170 0.947 . S
C142 C141 1.392 . S
C142 C143 1.419 . S
C142 H171 0.948 . S
C143 C142 1.419 . S
C143 C144 1.391 . S
C143 C147 1.397 . S
C144 C139 1.391 . S
C144 C143 1.391 . S
C144 C145 1.399 . S
C145 C144 1.399 . S
C145 C146 1.396 . S
C145 C148 1.453 . S
C145 C149 1.684 . S
C146 C127 1.723 . S
C146 C145 1.396 . S
C146 C147 1.394 . S
C147 C143 1.397 . S
C147 C146 1.394 . S
C147 C157 1.723 . S
C148 C145 1.453 . S
C148 H172 0.982 . S
C148 H173 0.979 . S
C148 H174 0.977 . S
C149 C145 1.684 . S
C149 H175 0.979 . S
C149 H176 0.980 . S
C149 H177 0.983 . S
C150 H126 0.948 . S
C150 C151 1.391 . S
C150 C155 1.391 . S
C151 C150 1.391 . S
C151 C152 1.391 . S
C152 H129 0.947 . S
C152 C151 1.391 . S
C152 C153 1.392 . S
C153 H130 0.948 . S
C153 C152 1.392 . S
C153 C154 1.419 . S
C154 C153 1.419 . S
C154 C155 1.391 . S
C154 C158 1.397 . S
C155 C150 1.391 . S
C155 C154 1.391 . S
C155 C156 1.399 . S
C156 C155 1.399 . S
C156 C157 1.396 . S
C156 C159 1.453 . S
C156 C160 1.684 . S
C157 C147 1.723 . S
C157 C156 1.396 . S
C157 C158 1.394 . S
C158 C128 1.723 . S
C158 C154 1.397 . S
C158 C157 1.394 . S
C159 H131 0.982 . S
C159 H135 0.979 . S
C159 H136 0.977 . S
C159 C156 1.453 . S
C160 H132 0.979 . S
C160 H133 0.980 . S
C160 H134 0.983 . S
C160 C156 1.684 . S
H161 C179 0.948 . S
H162 C120 0.948 . S
H163 C138 0.979 . S
H164 C138 0.980 . S
H165 C138 0.983 . S
H166 C137 0.982 . S
H167 C137 0.979 . S
H168 C137 0.977 . S
H169 C139 0.948 . S
H170 C141 0.947 . S
H171 C142 0.948 . S
H172 C148 0.982 . S
H173 C148 0.979 . S
H174 C148 0.977 . S
H175 C149 0.979 . S
H176 C149 0.980 . S
H177 C149 0.983 . S
H178 C122 0.947 . S
C179 C122 1.392 . S
C179 C123 1.419 . S
C179 H161 0.948 . S
C180 C181 1.391 . S
C180 C184 1.391 . S
C180 H222 0.948 . S
C181 C180 1.391 . S
C181 C182 1.391 . S
C182 C181 1.391 . S
C182 H238 0.947 . S
C182 C239 1.392 . S
C183 C184 1.391 . S
C183 C187 1.397 . S
C183 C239 1.419 . S
C184 C180 1.391 . S
C184 C183 1.391 . S
C184 C185 1.399 . S
C185 C184 1.399 . S
C185 C188 1.396 . S
C185 C197 1.453 . S
C185 C198 1.684 . S
H186 C210 0.948 . S
C187 C183 1.397 . S
C187 C188 1.394 . S
C187 C206 1.723 . S
C188 C185 1.396 . S
C188 C187 1.394 . S
C188 C218 1.723 . S
H189 C212 0.947 . S
H190 C213 0.948 . S
H191 C219 0.982 . S
H192 C220 0.979 . S
H193 C220 0.980 . S
H194 C220 0.983 . S
H195 C219 0.979 . S
H196 C219 0.977 . S
C197 C185 1.453 . S
C197 H226 0.982 . S
C197 H227 0.979 . S
C197 H228 0.977 . S
C198 C185 1.684 . S
C198 H223 0.979 . S
C198 H224 0.980 . S
C198 H225 0.983 . S
C199 C200 1.391 . S
C199 C204 1.391 . S
C199 H229 0.948 . S
C200 C199 1.391 . S
C200 C201 1.391 . S
C201 C200 1.391 . S
C201 C202 1.392 . S
C201 H230 0.947 . S
C202 C201 1.392 . S
C202 C203 1.419 . S
C202 H231 0.948 . S
C203 C202 1.419 . S
C203 C204 1.391 . S
C203 C207 1.397 . S
C204 C199 1.391 . S
C204 C203 1.391 . S
C204 C205 1.399 . S
C205 C204 1.399 . S
C205 C206 1.396 . S
C205 C208 1.453 . S
C205 C209 1.684 . S
C206 C187 1.723 . S
C206 C205 1.396 . S
C206 C207 1.394 . S
C207 C203 1.397 . S
C207 C206 1.394 . S
C207 C217 1.723 . S
C208 C205 1.453 . S
C208 H232 0.982 . S
C208 H233 0.979 . S
C208 H234 0.977 . S
C209 C205 1.684 . S
C209 H235 0.979 . S
C209 H236 0.980 . S
C209 H237 0.983 . S
C210 H186 0.948 . S
C210 C211 1.391 . S
C210 C215 1.391 . S
C211 C210 1.391 . S
C211 C212 1.391 . S
C212 H189 0.947 . S
C212 C211 1.391 . S
C212 C213 1.392 . S
C213 H190 0.948 . S
C213 C212 1.392 . S
C213 C214 1.419 . S
C214 C213 1.419 . S
C214 C215 1.391 . S
C214 C218 1.397 . S
C215 C210 1.391 . S
C215 C214 1.391 . S
C215 C216 1.399 . S
C216 C215 1.399 . S
C216 C217 1.396 . S
C216 C219 1.453 . S
C216 C220 1.684 . S
C217 C207 1.723 . S
C217 C216 1.396 . S
C217 C218 1.394 . S
C218 C188 1.723 . S
C218 C214 1.397 . S
C218 C217 1.394 . S
C219 H191 0.982 . S
C219 H195 0.979 . S
C219 H196 0.977 . S
C219 C216 1.453 . S
C220 H192 0.979 . S
C220 H193 0.980 . S
C220 H194 0.983 . S
C220 C216 1.684 . S
H221 C239 0.948 . S
H222 C180 0.948 . S
H223 C198 0.979 . S
H224 C198 0.980 . S
H225 C198 0.983 . S
H226 C197 0.982 . S
H227 C197 0.979 . S
H228 C197 0.977 . S
H229 C199 0.948 . S
H230 C201 0.947 . S
H231 C202 0.948 . S
H232 C208 0.982 . S
H233 C208 0.979 . S
H234 C208 0.977 . S
H235 C209 0.979 . S
H236 C209 0.980 . S
H237 C209 0.983 . S
H238 C182 0.947 . S
C239 C182 1.392 . S
C239 C183 1.419 . S
C239 H221 0.948 . S
C240 C241 1.391 . S
C240 C244 1.391 . S
C240 H282 0.948 . S
C241 C240 1.391 . S
C241 C242 1.391 . S
C242 C241 1.391 . S
C242 H298 0.947 . S
C242 C299 1.392 . S
C243 C244 1.391 . S
C243 C247 1.397 . S
C243 C299 1.419 . S
C244 C240 1.391 . S
C244 C243 1.391 . S
C244 C245 1.399 . S
C245 C244 1.399 . S
C245 C248 1.396 . S
C245 C257 1.453 . S
C245 C258 1.684 . S
H246 C270 0.948 . S
C247 C243 1.397 . S
C247 C248 1.394 . S
C247 C266 1.723 . S
C248 C245 1.396 . S
C248 C247 1.394 . S
C248 C278 1.723 . S
H249 C272 0.947 . S
H250 C273 0.948 . S
H251 C279 0.982 . S
H252 C280 0.979 . S
H253 C280 0.980 . S
H254 C280 0.983 1_545 S
H255 C279 0.979 . S
H256 C279 0.977 . S
C257 C245 1.453 . S
C257 H286 0.982 . S
C257 H287 0.979 . S
C257 H288 0.977 . S
C258 C245 1.684 . S
C258 H283 0.979 . S
C258 H284 0.980 . S
C258 H285 0.983 . S
C259 C260 1.391 . S
C259 C264 1.391 . S
C259 H289 0.948 . S
C260 C259 1.391 . S
C260 C261 1.391 . S
C261 C260 1.391 . S
C261 C262 1.392 . S
C261 H290 0.947 . S
C262 C261 1.392 . S
C262 C263 1.419 . S
C262 H291 0.948 . S
C263 C262 1.419 . S
C263 C264 1.391 . S
C263 C267 1.397 . S
C264 C259 1.391 . S
C264 C263 1.391 . S
C264 C265 1.399 . S
C265 C264 1.399 . S
C265 C266 1.396 . S
C265 C268 1.453 . S
C265 C269 1.684 . S
C266 C247 1.723 . S
C266 C265 1.396 . S
C266 C267 1.394 . S
C267 C263 1.397 . S
C267 C266 1.394 . S
C267 C277 1.723 . S
C268 C265 1.453 . S
C268 H292 0.982 . S
C268 H293 0.979 . S
C268 H294 0.977 . S
C269 C265 1.684 . S
C269 H295 0.979 . S
C269 H296 0.980 . S
C269 H297 0.983 . S
C270 H246 0.948 . S
C270 C271 1.380 1_545 S
C270 C275 1.391 1_545 S
C271 C270 1.380 1_565 S
C271 C272 1.437 . S
C272 H249 0.947 . S
C272 C271 1.437 . S
C272 C273 1.392 . S
C273 H250 0.948 . S
C273 C272 1.392 . S
C273 C274 1.419 . S
C274 C273 1.419 . S
C274 C275 1.391 . S
C274 C278 1.397 . S
C275 C270 1.391 1_565 S
C275 C274 1.391 . S
C275 C276 1.399 . S
C276 C275 1.399 . S
C276 C277 1.396 . S
C276 C279 1.453 1_565 S
C276 C280 1.684 . S
C277 C267 1.723 . S
C277 C276 1.396 . S
C277 C278 1.394 . S
C278 C248 1.723 . S
C278 C274 1.397 . S
C278 C277 1.394 . S
C279 H251 0.982 . S
C279 H255 0.979 . S
C279 H256 0.977 . S
C279 C276 1.453 1_545 S
C280 H252 0.979 . S
C280 H253 0.980 . S
C280 H254 0.983 1_565 S
C280 C276 1.684 . S
H281 C299 0.948 . S
H282 C240 0.948 . S
H283 C258 0.979 . S
H284 C258 0.980 . S
H285 C258 0.983 . S
H286 C257 0.982 . S
H287 C257 0.979 . S
H288 C257 0.977 . S
H289 C259 0.948 . S
H290 C261 0.947 . S
H291 C262 0.948 . S
H292 C268 0.982 . S
H293 C268 0.979 . S
H294 C268 0.977 . S
H295 C269 0.979 . S
H296 C269 0.980 . S
H297 C269 0.983 . S
H298 C242 0.947 . S
C299 C242 1.392 . S
C299 C243 1.419 . S
C299 H281 0.948 . S
C300 C301 1.391 . S
C300 C304 1.391 . S
C300 H342 0.948 . S
C301 C300 1.391 . S
C301 C302 1.391 . S
C302 C301 1.391 . S
C302 H358 0.947 . S
C302 C359 1.392 . S
C303 C304 1.391 . S
C303 C307 1.397 . S
C303 C359 1.419 . S
C304 C300 1.391 . S
C304 C303 1.391 . S
C304 C305 1.399 . S
C305 C304 1.399 . S
C305 C308 1.396 . S
C305 C317 1.453 . S
C305 C318 1.684 . S
H306 C330 0.948 . S
C307 C303 1.397 . S
C307 C308 1.394 . S
C307 C326 1.723 . S
C308 C305 1.396 . S
C308 C307 1.394 . S
C308 C338 1.723 . S
H309 C332 0.947 . S
H310 C333 0.948 . S
H311 C339 0.982 . S
H312 C340 0.979 . S
H313 C340 0.980 . S
H314 C340 0.983 . S
H315 C339 0.979 . S
H316 C339 0.977 . S
C317 C305 1.453 . S
C317 H346 0.982 . S
C317 H347 0.979 . S
C317 H348 0.977 . S
C318 C305 1.684 . S
C318 H343 0.979 . S
C318 H344 0.980 . S
C318 H345 0.983 . S
C319 C320 1.391 . S
C319 C324 1.391 . S
C319 H349 0.948 . S
C320 C319 1.391 . S
C320 C321 1.391 . S
C321 C320 1.391 . S
C321 C322 1.392 . S
C321 H350 0.947 . S
C322 C321 1.392 . S
C322 C323 1.419 . S
C322 H351 0.948 . S
C323 C322 1.419 . S
C323 C324 1.391 . S
C323 C327 1.397 . S
C324 C319 1.391 . S
C324 C323 1.391 . S
C324 C325 1.399 . S
C325 C324 1.399 . S
C325 C326 1.396 . S
C325 C328 1.453 . S
C325 C329 1.684 . S
C326 C307 1.723 . S
C326 C325 1.396 . S
C326 C327 1.394 . S
C327 C323 1.397 . S
C327 C326 1.394 . S
C327 C337 1.723 . S
C328 C325 1.453 . S
C328 H352 0.982 . S
C328 H353 0.979 . S
C328 H354 0.977 . S
C329 C325 1.684 . S
C329 H355 0.979 . S
C329 H356 0.980 . S
C329 H357 0.983 . S
C330 H306 0.948 . S
C330 C331 1.391 . S
C330 C335 1.391 . S
C331 C330 1.391 . S
C331 C332 1.391 . S
C332 H309 0.947 . S
C332 C331 1.391 . S
C332 C333 1.392 . S
C333 H310 0.948 . S
C333 C332 1.392 . S
C333 C334 1.419 . S
C334 C333 1.419 . S
C334 C335 1.391 . S
C334 C338 1.397 . S
C335 C330 1.391 . S
C335 C334 1.391 . S
C335 C336 1.399 . S
C336 C335 1.399 . S
C336 C337 1.396 . S
C336 C339 1.453 . S
C336 C340 1.684 . S
C337 C327 1.723 . S
C337 C336 1.396 . S
C337 C338 1.394 . S
C338 C308 1.723 . S
C338 C334 1.397 . S
C338 C337 1.394 . S
C339 H311 0.982 . S
C339 H315 0.979 . S
C339 H316 0.977 . S
C339 C336 1.453 . S
C340 H312 0.979 . S
C340 H313 0.980 . S
C340 H314 0.983 . S
C340 C336 1.684 . S
H341 C359 0.948 . S
H342 C300 0.948 . S
H343 C318 0.979 . S
H344 C318 0.980 . S
H345 C318 0.983 . S
H346 C317 0.982 . S
H347 C317 0.979 . S
H348 C317 0.977 . S
H349 C319 0.948 . S
H350 C321 0.947 . S
H351 C322 0.948 . S
H352 C328 0.982 . S
H353 C328 0.979 . S
H354 C328 0.977 . S
H355 C329 0.979 . S
H356 C329 0.980 . S
H357 C329 0.983 . S
H358 C302 0.947 . S
C359 C302 1.392 . S
C359 C303 1.419 . S
C359 H341 0.948 . S
C360 C361 1.391 . S
C360 C364 1.391 . S
C360 H402 0.948 . S
C361 C360 1.391 . S
C361 C362 1.391 . S
C362 C361 1.391 . S
C362 H418 0.947 . S
C362 C419 1.392 . S
C363 C364 1.391 . S
C363 C367 1.397 . S
C363 C419 1.419 . S
C364 C360 1.391 . S
C364 C363 1.391 . S
C364 C365 1.399 . S
C365 C364 1.399 . S
C365 C368 1.396 . S
C365 C377 1.453 . S
C365 C378 1.684 . S
H366 C390 0.948 . S
C367 C363 1.397 . S
C367 C368 1.394 . S
C367 C386 1.723 . S
C368 C365 1.396 . S
C368 C367 1.394 . S
C368 C398 1.723 . S
H369 C392 0.947 . S
H370 C393 0.948 . S
H371 C399 0.982 . S
H372 C400 0.979 . S
H373 C400 0.980 . S
H374 C400 0.983 . S
H375 C399 0.979 . S
H376 C399 0.977 . S
C377 C365 1.453 . S
C377 H406 0.982 . S
C377 H407 0.979 . S
C377 H408 0.977 . S
C378 C365 1.684 . S
C378 H403 0.979 . S
C378 H404 0.980 . S
C378 H405 0.983 . S
C379 C380 1.391 . S
C379 C384 1.391 . S
C379 H409 0.948 . S
C380 C379 1.391 . S
C380 C381 1.391 . S
C381 C380 1.391 . S
C381 C382 1.392 . S
C381 H410 0.947 . S
C382 C381 1.392 . S
C382 C383 1.419 . S
C382 H411 0.948 . S
C383 C382 1.419 . S
C383 C384 1.391 . S
C383 C387 1.397 . S
C384 C379 1.391 . S
C384 C383 1.391 . S
C384 C385 1.399 . S
C385 C384 1.399 . S
C385 C386 1.396 . S
C385 C388 1.453 . S
C385 C389 1.684 . S
C386 C367 1.723 . S
C386 C385 1.396 . S
C386 C387 1.394 . S
C387 C383 1.397 . S
C387 C386 1.394 . S
C387 C397 1.723 . S
C388 C385 1.453 . S
C388 H412 0.982 . S
C388 H413 0.979 . S
C388 H414 0.977 . S
C389 C385 1.684 . S
C389 H415 0.979 . S
C389 H416 0.980 . S
C389 H417 0.983 . S
C390 H366 0.948 . S
C390 C391 1.391 . S
C390 C395 1.391 . S
C391 C390 1.391 . S
C391 C392 1.391 . S
C392 H369 0.947 . S
C392 C391 1.391 . S
C392 C393 1.392 . S
C393 H370 0.948 . S
C393 C392 1.392 . S
C393 C394 1.419 . S
C394 C393 1.419 . S
C394 C395 1.391 . S
C394 C398 1.397 . S
C395 C390 1.391 . S
C395 C394 1.391 . S
C395 C396 1.399 . S
C396 C395 1.399 . S
C396 C397 1.396 . S
C396 C399 1.453 . S
C396 C400 1.684 . S
C397 C387 1.723 . S
C397 C396 1.396 . S
C397 C398 1.394 . S
C398 C368 1.723 . S
C398 C394 1.397 . S
C398 C397 1.394 . S
C399 H371 0.982 . S
C399 H375 0.979 . S
C399 H376 0.977 . S
C399 C396 1.453 . S
C400 H372 0.979 . S
C400 H373 0.980 . S
C400 H374 0.983 . S
C400 C396 1.684 . S
H401 C419 0.948 . S
H402 C360 0.948 . S
H403 C378 0.979 . S
H404 C378 0.980 . S
H405 C378 0.983 . S
H406 C377 0.982 . S
H407 C377 0.979 . S
H408 C377 0.977 . S
H409 C379 0.948 . S
H410 C381 0.947 . S
H411 C382 0.948 . S
H412 C388 0.982 . S
H413 C388 0.979 . S
H414 C388 0.977 . S
H415 C389 0.979 . S
H416 C389 0.980 . S
H417 C389 0.983 . S
H418 C362 0.947 . S
C419 C362 1.392 . S
C419 C363 1.419 . S
C419 H401 0.948 . S
C420 C421 1.391 . S
C420 C424 1.391 . S
C420 H462 0.948 . S
C421 C420 1.391 . S
C421 C422 1.391 . S
C422 C421 1.391 . S
C422 H478 0.947 . S
C422 C479 1.392 . S
C423 C424 1.391 . S
C423 C427 1.397 . S
C423 C479 1.419 . S
C424 C420 1.391 . S
C424 C423 1.391 . S
C424 C425 1.399 . S
C425 C424 1.399 . S
C425 C428 1.396 . S
C425 C437 1.453 . S
C425 C438 1.684 . S
H426 C450 0.948 . S
C427 C423 1.397 . S
C427 C428 1.394 . S
C427 C446 1.723 . S
C428 C425 1.396 . S
C428 C427 1.394 . S
C428 C458 1.723 . S
H429 C452 0.947 . S
H430 C453 0.948 . S
H431 C459 0.982 . S
H432 C460 0.979 . S
H433 C460 0.980 . S
H434 C460 0.983 . S
H435 C459 0.979 . S
H436 C459 0.977 . S
C437 C425 1.453 . S
C437 H466 0.982 . S
C437 H467 0.979 . S
C437 H468 0.977 . S
C438 C425 1.684 . S
C438 H463 0.979 . S
C438 H464 0.980 . S
C438 H465 0.983 . S
C439 C440 1.391 . S
C439 C444 1.391 . S
C439 H469 0.948 . S
C440 C439 1.391 . S
C440 C441 1.391 . S
C441 C440 1.391 . S
C441 C442 1.392 . S
C441 H470 0.947 . S
C442 C441 1.392 . S
C442 C443 1.419 . S
C442 H471 0.948 . S
C443 C442 1.419 . S
C443 C444 1.391 . S
C443 C447 1.397 . S
C444 C439 1.391 . S
C444 C443 1.391 . S
C444 C445 1.399 . S
C445 C444 1.399 . S
C445 C446 1.396 . S
C445 C448 1.453 . S
C445 C449 1.684 . S
C446 C427 1.723 . S
C446 C445 1.396 . S
C446 C447 1.394 . S
C447 C443 1.397 . S
C447 C446 1.394 . S
C447 C457 1.723 . S
C448 C445 1.453 . S
C448 H472 0.982 . S
C448 H473 0.979 . S
C448 H474 0.977 . S
C449 C445 1.684 . S
C449 H475 0.979 . S
C449 H476 0.980 . S
C449 H477 0.983 . S
C450 H426 0.948 . S
C450 C451 1.391 . S
C450 C455 1.391 . S
C451 C450 1.391 . S
C451 C452 1.391 . S
C452 H429 0.947 . S
C452 C451 1.391 . S
C452 C453 1.392 . S
C453 H430 0.948 . S
C453 C452 1.392 . S
C453 C454 1.419 . S
C454 C453 1.419 . S
C454 C455 1.391 . S
C454 C458 1.397 . S
C455 C450 1.391 . S
C455 C454 1.391 . S
C455 C456 1.399 . S
C456 C455 1.399 . S
C456 C457 1.396 . S
C456 C459 1.453 . S
C456 C460 1.684 . S
C457 C447 1.723 . S
C457 C456 1.396 . S
C457 C458 1.394 . S
C458 C428 1.723 . S
C458 C454 1.397 . S
C458 C457 1.394 . S
C459 H431 0.982 . S
C459 H435 0.979 . S
C459 H436 0.977 . S
C459 C456 1.453 . S
C460 H432 0.979 . S
C460 H433 0.980 . S
C460 H434 0.983 . S
C460 C456 1.684 . S
H461 C479 0.948 . S
H462 C420 0.948 . S
H463 C438 0.979 . S
H464 C438 0.980 . S
H465 C438 0.983 . S
H466 C437 0.982 . S
H467 C437 0.979 . S
H468 C437 0.977 . S
H469 C439 0.948 . S
H470 C441 0.947 . S
H471 C442 0.948 . S
H472 C448 0.982 . S
H473 C448 0.979 . S
H474 C448 0.977 . S
H475 C449 0.979 . S
H476 C449 0.980 . S
H477 C449 0.983 . S
H478 C422 0.947 . S
C479 C422 1.392 . S
C479 C423 1.419 . S
C479 H461 0.948 . S
C480 C481 1.391 . S
C480 C484 1.391 . S
C480 H522 0.948 . S
C481 C480 1.391 . S
C481 C482 1.391 . S
C482 C481 1.391 . S
C482 H538 0.947 . S
C482 C539 1.392 . S
C483 C484 1.391 . S
C483 C487 1.397 . S
C483 C539 1.419 . S
C484 C480 1.391 . S
C484 C483 1.391 . S
C484 C485 1.399 . S
C485 C484 1.399 . S
C485 C488 1.396 . S
C485 C497 1.453 . S
C485 C498 1.684 . S
H486 C510 0.948 . S
C487 C483 1.397 . S
C487 C488 1.394 . S
C487 C506 1.723 . S
C488 C485 1.396 . S
C488 C487 1.394 . S
C488 C518 1.723 . S
H489 C512 0.947 . S
H490 C513 0.948 . S
H491 C519 0.982 . S
H492 C520 0.979 . S
H493 C520 0.980 . S
H494 C520 0.983 . S
H495 C519 0.979 . S
H496 C519 0.977 . S
C497 C485 1.453 . S
C497 H526 0.982 . S
C497 H527 0.979 . S
C497 H528 0.977 . S
C498 C485 1.684 . S
C498 H523 0.979 . S
C498 H524 0.980 . S
C498 H525 0.983 . S
C499 C500 1.391 . S
C499 C504 1.391 . S
C499 H529 0.948 . S
C500 C499 1.391 . S
C500 C501 1.391 . S
C501 C500 1.391 . S
C501 C502 1.392 . S
C501 H530 0.947 . S
C502 C501 1.392 . S
C502 C503 1.419 . S
C502 H531 0.948 . S
C503 C502 1.419 . S
C503 C504 1.391 . S
C503 C507 1.397 . S
C504 C499 1.391 . S
C504 C503 1.391 . S
C504 C505 1.399 . S
C505 C504 1.399 . S
C505 C506 1.396 . S
C505 C508 1.453 . S
C505 C509 1.684 . S
C506 C487 1.723 . S
C506 C505 1.396 . S
C506 C507 1.394 . S
C507 C503 1.397 . S
C507 C506 1.394 . S
C507 C517 1.723 . S
C508 C505 1.453 . S
C508 H532 0.982 . S
C508 H533 0.979 . S
C508 H534 0.977 . S
C509 C505 1.684 . S
C509 H535 0.979 . S
C509 H536 0.980 . S
C509 H537 0.983 . S
C510 H486 0.948 . S
C510 C511 1.391 . S
C510 C515 1.391 . S
C511 C510 1.391 . S
C511 C512 1.391 . S
C512 H489 0.947 . S
C512 C511 1.391 . S
C512 C513 1.392 . S
C513 H490 0.948 . S
C513 C512 1.392 . S
C513 C514 1.419 . S
C514 C513 1.419 . S
C514 C515 1.391 . S
C514 C518 1.397 . S
C515 C510 1.391 . S
C515 C514 1.391 . S
C515 C516 1.399 . S
C516 C515 1.399 . S
C516 C517 1.396 . S
C516 C519 1.453 . S
C516 C520 1.684 . S
C517 C507 1.723 . S
C517 C516 1.396 . S
C517 C518 1.394 . S
C518 C488 1.723 . S
C518 C514 1.397 . S
C518 C517 1.394 . S
C519 H491 0.982 . S
C519 H495 0.979 . S
C519 H496 0.977 . S
C519 C516 1.453 . S
C520 H492 0.979 . S
C520 H493 0.980 . S
C520 H494 0.983 . S
C520 C516 1.684 . S
H521 C539 0.948 . S
H522 C480 0.948 . S
H523 C498 0.979 . S
H524 C498 0.980 . S
H525 C498 0.983 . S
H526 C497 0.982 . S
H527 C497 0.979 . S
H528 C497 0.977 . S
H529 C499 0.948 . S
H530 C501 0.947 . S
H531 C502 0.948 . S
H532 C508 0.982 . S
H533 C508 0.979 . S
H534 C508 0.977 . S
H535 C509 0.979 . S
H536 C509 0.980 . S
H537 C509 0.983 . S
H538 C482 0.947 . S
C539 C482 1.392 . S
C539 C483 1.419 . S
C539 H521 0.948 . S
C540 C541 1.391 . S
C540 C544 1.391 . S
C540 H582 0.948 . S
C541 C540 1.391 . S
C541 C542 1.391 . S
C542 C541 1.391 . S
C542 H598 0.947 . S
C542 C599 1.392 . S
C543 C544 1.391 . S
C543 C547 1.397 . S
C543 C599 1.419 . S
C544 C540 1.391 . S
C544 C543 1.391 . S
C544 C545 1.399 . S
C545 C544 1.399 . S
C545 C548 1.396 . S
C545 C557 1.453 . S
C545 C558 1.684 . S
H546 C570 0.948 . S
C547 C543 1.397 . S
C547 C548 1.394 . S
C547 C566 1.723 . S
C548 C545 1.396 . S
C548 C547 1.394 . S
C548 C578 1.723 . S
H549 C572 0.947 . S
H550 C573 0.948 . S
H551 C579 0.982 . S
H552 C580 0.979 . S
H553 C580 0.980 . S
H554 C580 0.983 . S
H555 C579 0.979 . S
H556 C579 0.977 . S
C557 C545 1.453 . S
C557 H586 0.982 . S
C557 H587 0.979 . S
C557 H588 0.977 . S
C558 C545 1.684 . S
C558 H583 0.979 . S
C558 H584 0.980 . S
C558 H585 0.983 . S
C559 C560 1.391 . S
C559 C564 1.391 . S
C559 H589 0.948 . S
C560 C559 1.391 . S
C560 C561 1.391 . S
C561 C560 1.391 . S
C561 C562 1.392 . S
C561 H590 0.947 . S
C562 C561 1.392 . S
C562 C563 1.419 . S
C562 H591 0.948 . S
C563 C562 1.419 . S
C563 C564 1.391 . S
C563 C567 1.397 . S
C564 C559 1.391 . S
C564 C563 1.391 . S
C564 C565 1.399 . S
C565 C564 1.399 . S
C565 C566 1.396 . S
C565 C568 1.453 . S
C565 C569 1.684 . S
C566 C547 1.723 . S
C566 C565 1.396 . S
C566 C567 1.394 . S
C567 C563 1.397 . S
C567 C566 1.394 . S
C567 C577 1.723 . S
C568 C565 1.453 . S
C568 H592 0.982 . S
C568 H593 0.979 . S
C568 H594 0.977 . S
C569 C565 1.684 . S
C569 H595 0.979 . S
C569 H596 0.980 . S
C569 H597 0.983 . S
C570 H546 0.948 . S
C570 C571 1.391 . S
C570 C575 1.391 . S
C571 C570 1.391 . S
C571 C572 1.391 . S
C572 H549 0.947 . S
C572 C571 1.391 . S
C572 C573 1.392 . S
C573 H550 0.948 . S
C573 C572 1.392 . S
C573 C574 1.419 . S
C574 C573 1.419 . S
C574 C575 1.391 . S
C574 C578 1.397 . S
C575 C570 1.391 . S
C575 C574 1.391 . S
C575 C576 1.399 . S
C576 C575 1.399 . S
C576 C577 1.396 . S
C576 C579 1.453 . S
C576 C580 1.684 . S
C577 C567 1.723 . S
C577 C576 1.396 . S
C577 C578 1.394 . S
C578 C548 1.723 . S
C578 C574 1.397 . S
C578 C577 1.394 . S
C579 H551 0.982 . S
C579 H555 0.979 . S
C579 H556 0.977 . S
C579 C576 1.453 . S
C580 H552 0.979 . S
C580 H553 0.980 . S
C580 H554 0.983 . S
C580 C576 1.684 . S
H581 C599 0.948 . S
H582 C540 0.948 . S
H583 C558 0.979 . S
H584 C558 0.980 . S
H585 C558 0.983 . S
H586 C557 0.982 . S
H587 C557 0.979 . S
H588 C557 0.977 . S
H589 C559 0.948 . S
H590 C561 0.947 . S
H591 C562 0.948 . S
H592 C568 0.982 . S
H593 C568 0.979 . S
H594 C568 0.977 . S
H595 C569 0.979 . S
H596 C569 0.980 . S
H597 C569 0.983 . S
H598 C542 0.947 . S
C599 C542 1.392 . S
C599 C543 1.419 . S
C599 H581 0.948 . S
C600 C601 1.391 . S
C600 C604 1.391 . S
C600 H642 0.948 . S
C601 C600 1.391 . S
C601 C602 1.391 . S
C602 C601 1.391 . S
C602 H658 0.947 . S
C602 C659 1.392 . S
C603 C604 1.391 . S
C603 C607 1.397 . S
C603 C659 1.419 . S
C604 C600 1.391 . S
C604 C603 1.391 . S
C604 C605 1.399 . S
C605 C604 1.399 . S
C605 C608 1.396 . S
C605 C617 1.453 . S
C605 C618 1.684 . S
H606 C630 0.948 . S
C607 C603 1.397 . S
C607 C608 1.394 . S
C607 C626 1.723 . S
C608 C605 1.396 . S
C608 C607 1.394 . S
C608 C638 1.723 . S
H609 C632 0.947 . S
H610 C633 0.948 . S
H611 C639 0.982 . S
H612 C640 0.979 . S
H613 C640 0.980 . S
H614 C640 0.983 . S
H615 C639 0.979 . S
H616 C639 0.977 . S
C617 C605 1.453 . S
C617 H646 0.982 . S
C617 H647 0.979 . S
C617 H648 0.977 . S
C618 C605 1.684 . S
C618 H643 0.979 . S
C618 H644 0.980 . S
C618 H645 0.983 . S
C619 C620 1.391 . S
C619 C624 1.391 . S
C619 H649 0.948 . S
C620 C619 1.391 . S
C620 C621 1.391 . S
C621 C620 1.391 . S
C621 C622 1.392 . S
C621 H650 0.947 . S
C622 C621 1.392 . S
C622 C623 1.419 . S
C622 H651 0.948 . S
C623 C622 1.419 . S
C623 C624 1.391 . S
C623 C627 1.397 . S
C624 C619 1.391 . S
C624 C623 1.391 . S
C624 C625 1.399 . S
C625 C624 1.399 . S
C625 C626 1.396 . S
C625 C628 1.453 . S
C625 C629 1.684 . S
C626 C607 1.723 . S
C626 C625 1.396 . S
C626 C627 1.394 . S
C627 C623 1.397 . S
C627 C626 1.394 . S
C627 C637 1.723 . S
C628 C625 1.453 . S
C628 H652 0.982 . S
C628 H653 0.979 . S
C628 H654 0.977 . S
C629 C625 1.684 . S
C629 H655 0.979 . S
C629 H656 0.980 . S
C629 H657 0.983 . S
C630 H606 0.948 . S
C630 C631 1.391 . S
C630 C635 1.391 . S
C631 C630 1.391 . S
C631 C632 1.391 . S
C632 H609 0.947 . S
C632 C631 1.391 . S
C632 C633 1.392 . S
C633 H610 0.948 . S
C633 C632 1.392 . S
C633 C634 1.419 . S
C634 C633 1.419 . S
C634 C635 1.391 . S
C634 C638 1.397 . S
C635 C630 1.391 . S
C635 C634 1.391 . S
C635 C636 1.399 . S
C636 C635 1.399 . S
C636 C637 1.396 . S
C636 C639 1.453 . S
C636 C640 1.684 . S
C637 C627 1.723 . S
C637 C636 1.396 . S
C637 C638 1.394 . S
C638 C608 1.723 . S
C638 C634 1.397 . S
C638 C637 1.394 . S
C639 H611 0.982 . S
C639 H615 0.979 . S
C639 H616 0.977 . S
C639 C636 1.453 . S
C640 H612 0.979 . S
C640 H613 0.980 . S
C640 H614 0.983 . S
C640 C636 1.684 . S
H641 C659 0.948 . S
H642 C600 0.948 . S
H643 C618 0.979 . S
H644 C618 0.980 . S
H645 C618 0.983 . S
H646 C617 0.982 . S
H647 C617 0.979 . S
H648 C617 0.977 . S
H649 C619 0.948 . S
H650 C621 0.947 . S
H651 C622 0.948 . S
H652 C628 0.982 . S
H653 C628 0.979 . S
H654 C628 0.977 . S
H655 C629 0.979 . S
H656 C629 0.980 . S
H657 C629 0.983 . S
H658 C602 0.947 . S
C659 C602 1.392 . S
C659 C603 1.419 . S
C659 H641 0.948 . S
C660 C661 1.391 . S
C660 C664 1.391 . S
C660 H702 0.948 . S
C661 C660 1.391 . S
C661 C662 1.391 . S
C662 C661 1.391 . S
C662 H718 0.947 . S
C662 C719 1.392 . S
C663 C664 1.391 . S
C663 C667 1.397 . S
C663 C719 1.419 . S
C664 C660 1.391 . S
C664 C663 1.391 . S
C664 C665 1.399 . S
C665 C664 1.399 . S
C665 C668 1.396 . S
C665 C677 1.453 . S
C665 C678 1.684 . S
H666 C690 0.948 . S
C667 C663 1.397 . S
C667 C668 1.394 . S
C667 C686 1.723 . S
C668 C665 1.396 . S
C668 C667 1.394 . S
C668 C698 1.723 . S
H669 C692 0.947 . S
H670 C693 0.948 . S
H671 C699 0.982 . S
H672 C700 0.979 . S
H673 C700 0.980 . S
H674 C700 0.983 . S
H675 C699 0.979 . S
H676 C699 0.977 . S
C677 C665 1.453 . S
C677 H706 0.982 . S
C677 H707 0.979 . S
C677 H708 0.977 . S
C678 C665 1.684 . S
C678 H703 0.979 . S
C678 H704 0.980 . S
C678 H705 0.983 . S
C679 C680 1.391 . S
C679 C684 1.391 . S
C679 H709 0.948 . S
C680 C679 1.391 . S
C680 C681 1.391 . S
C681 C680 1.391 . S
C681 C682 1.392 . S
C681 H710 0.947 . S
C682 C681 1.392 . S
C682 C683 1.419 . S
C682 H711 0.948 . S
C683 C682 1.419 . S
C683 C684 1.391 . S
C683 C687 1.397 . S
C684 C679 1.391 . S
C684 C683 1.391 . S
C684 C685 1.399 . S
C685 C684 1.399 . S
C685 C686 1.396 . S
C685 C688 1.453 . S
C685 C689 1.684 . S
C686 C667 1.723 . S
C686 C685 1.396 . S
C686 C687 1.394 . S
C687 C683 1.397 . S
C687 C686 1.394 . S
C687 C697 1.723 . S
C688 C685 1.453 . S
C688 H712 0.982 . S
C688 H713 0.979 . S
C688 H714 0.977 . S
C689 C685 1.684 . S
C689 H715 0.979 . S
C689 H716 0.980 . S
C689 H717 0.983 . S
C690 H666 0.948 . S
C690 C691 1.391 . S
C690 C695 1.391 . S
C691 C690 1.391 . S
C691 C692 1.391 . S
C692 H669 0.947 . S
C692 C691 1.391 . S
C692 C693 1.392 . S
C693 H670 0.948 . S
C693 C692 1.392 . S
C693 C694 1.419 . S
C694 C693 1.419 . S
C694 C695 1.391 . S
C694 C698 1.397 . S
C695 C690 1.391 . S
C695 C694 1.391 . S
C695 C696 1.399 . S
C696 C695 1.399 . S
C696 C697 1.396 . S
C696 C699 1.453 . S
C696 C700 1.684 . S
C697 C687 1.723 . S
C697 C696 1.396 . S
C697 C698 1.394 . S
C698 C668 1.723 . S
C698 C694 1.397 . S
C698 C697 1.394 . S
C699 H671 0.982 . S
C699 H675 0.979 . S
C699 H676 0.977 . S
C699 C696 1.453 . S
C700 H672 0.979 . S
C700 H673 0.980 . S
C700 H674 0.983 . S
C700 C696 1.684 . S
H701 C719 0.948 . S
H702 C660 0.948 . S
H703 C678 0.979 . S
H704 C678 0.980 . S
H705 C678 0.983 . S
H706 C677 0.982 . S
H707 C677 0.979 . S
H708 C677 0.977 . S
H709 C679 0.948 . S
H710 C681 0.947 . S
H711 C682 0.948 . S
H712 C688 0.982 . S
H713 C688 0.979 . S
H714 C688 0.977 . S
H715 C689 0.979 . S
H716 C689 0.980 . S
H717 C689 0.983 . S
H718 C662 0.947 . S
C719 C662 1.392 . S
C719 C663 1.419 . S
C719 H701 0.948 . S
C720 C721 1.391 . S
C720 C724 1.391 . S
C720 H762 0.948 . S
C721 C720 1.391 . S
C721 C722 1.391 . S
C722 C721 1.391 . S
C722 H778 0.947 . S
C722 C779 1.392 . S
C723 C724 1.391 . S
C723 C727 1.397 . S
C723 C779 1.419 . S
C724 C720 1.391 . S
C724 C723 1.391 . S
C724 C725 1.399 . S
C725 C724 1.399 . S
C725 C728 1.396 . S
C725 C737 1.453 . S
C725 C738 1.684 . S
H726 C750 0.948 . S
C727 C723 1.397 . S
C727 C728 1.394 . S
C727 C746 1.723 . S
C728 C725 1.396 . S
C728 C727 1.394 . S
C728 C758 1.723 . S
H729 C752 0.947 . S
H730 C753 0.948 . S
H731 C759 0.982 . S
H732 C760 0.979 . S
H733 C760 0.980 . S
H734 C760 0.983 . S
H735 C759 0.979 . S
H736 C759 0.977 . S
C737 C725 1.453 . S
C737 H766 0.982 . S
C737 H767 0.979 . S
C737 H768 0.977 . S
C738 C725 1.684 . S
C738 H763 0.979 . S
C738 H764 0.980 . S
C738 H765 0.983 . S
C739 C740 1.391 . S
C739 C744 1.391 . S
C739 H769 0.948 . S
C740 C739 1.391 . S
C740 C741 1.391 . S
C741 C740 1.391 . S
C741 C742 1.392 . S
C741 H770 0.947 . S
C742 C741 1.392 . S
C742 C743 1.419 . S
C742 H771 0.948 . S
C743 C742 1.419 . S
C743 C744 1.391 . S
C743 C747 1.397 . S
C744 C739 1.391 . S
C744 C743 1.391 . S
C744 C745 1.399 . S
C745 C744 1.399 . S
C745 C746 1.396 . S
C745 C748 1.453 . S
C745 C749 1.684 . S
C746 C727 1.723 . S
C746 C745 1.396 . S
C746 C747 1.394 . S
C747 C743 1.397 . S
C747 C746 1.394 . S
C747 C757 1.723 . S
C748 C745 1.453 . S
C748 H772 0.982 . S
C748 H773 0.979 . S
C748 H774 0.977 . S
C749 C745 1.684 . S
C749 H775 0.979 . S
C749 H776 0.980 . S
C749 H777 0.983 . S
C750 H726 0.948 . S
C750 C751 1.391 . S
C750 C755 1.391 . S
C751 C750 1.391 . S
C751 C752 1.391 . S
C752 H729 0.947 . S
C752 C751 1.391 . S
C752 C753 1.392 . S
C753 H730 0.948 . S
C753 C752 1.392 . S
C753 C754 1.419 . S
C754 C753 1.419 . S
C754 C755 1.391 . S
C754 C758 1.397 . S
C755 C750 1.391 . S
C755 C754 1.391 . S
C755 C756 1.399 . S
C756 C755 1.399 . S
C756 C757 1.396 . S
C756 C759 1.453 . S
C756 C760 1.684 . S
C757 C747 1.723 . S
C757 C756 1.396 . S
C757 C758 1.394 . S
C758 C728 1.723 . S
C758 C754 1.397 . S
C758 C757 1.394 . S
C759 H731 0.982 . S
C759 H735 0.979 . S
C759 H736 0.977 . S
C759 C756 1.453 . S
C760 H732 0.979 . S
C760 H733 0.980 . S
C760 H734 0.983 . S
C760 C756 1.684 . S
H761 C779 0.948 . S
H762 C720 0.948 . S
H763 C738 0.979 . S
H764 C738 0.980 . S
H765 C738 0.983 . S
H766 C737 0.982 . S
H767 C737 0.979 . S
H768 C737 0.977 . S
H769 C739 0.948 . S
H770 C741 0.947 . S
H771 C742 0.948 . S
H772 C748 0.982 . S
H773 C748 0.979 . S
H774 C748 0.977 . S
H775 C749 0.979 . S
H776 C749 0.980 . S
H777 C749 0.983 . S
H778 C722 0.947 . S
C779 C722 1.392 . S
C779 C723 1.419 . S
C779 H761 0.948 . S
C780 C781 1.391 . S
C780 C784 1.391 . S
C780 H822 0.948 . S
C781 C780 1.391 . S
C781 C782 1.391 . S
C782 C781 1.391 . S
C782 H838 0.947 . S
C782 C839 1.392 . S
C783 C784 1.391 . S
C783 C787 1.397 . S
C783 C839 1.419 . S
C784 C780 1.391 . S
C784 C783 1.391 . S
C784 C785 1.399 . S
C785 C784 1.399 . S
C785 C788 1.396 . S
C785 C797 1.453 . S
C785 C798 1.684 . S
H786 C810 0.948 . S
C787 C783 1.397 . S
C787 C788 1.394 . S
C787 C806 1.723 . S
C788 C785 1.396 . S
C788 C787 1.394 . S
C788 C818 1.723 . S
H789 C812 0.947 . S
H790 C813 0.948 . S
H791 C819 0.982 . S
H792 C820 0.979 . S
H793 C820 0.980 . S
H794 C820 0.983 . S
H795 C819 0.979 . S
H796 C819 0.977 . S
C797 C785 1.453 . S
C797 H826 0.982 . S
C797 H827 0.979 . S
C797 H828 0.977 . S
C798 C785 1.684 . S
C798 H823 0.979 . S
C798 H824 0.980 . S
C798 H825 0.983 . S
C799 C800 1.391 . S
C799 C804 1.391 . S
C799 H829 0.948 . S
C800 C799 1.391 . S
C800 C801 1.391 . S
C801 C800 1.391 . S
C801 C802 1.392 . S
C801 H830 0.947 . S
C802 C801 1.392 . S
C802 C803 1.419 . S
C802 H831 0.948 . S
C803 C802 1.419 . S
C803 C804 1.391 . S
C803 C807 1.397 . S
C804 C799 1.391 . S
C804 C803 1.391 . S
C804 C805 1.399 . S
C805 C804 1.399 . S
C805 C806 1.396 . S
C805 C808 1.453 . S
C805 C809 1.684 . S
C806 C787 1.723 . S
C806 C805 1.396 . S
C806 C807 1.394 . S
C807 C803 1.397 . S
C807 C806 1.394 . S
C807 C817 1.723 . S
C808 C805 1.453 . S
C808 H832 0.982 . S
C808 H833 0.979 . S
C808 H834 0.977 . S
C809 C805 1.684 . S
C809 H835 0.979 . S
C809 H836 0.980 . S
C809 H837 0.983 . S
C810 H786 0.948 . S
C810 C811 1.391 . S
C810 C815 1.391 . S
C811 C810 1.391 . S
C811 C812 1.391 . S
C812 H789 0.947 . S
C812 C811 1.391 . S
C812 C813 1.392 . S
C813 H790 0.948 . S
C813 C812 1.392 . S
C813 C814 1.419 . S
C814 C813 1.419 . S
C814 C815 1.391 . S
C814 C818 1.397 . S
C815 C810 1.391 . S
C815 C814 1.391 . S
C815 C816 1.399 . S
C816 C815 1.399 . S
C816 C817 1.396 . S
C816 C819 1.453 . S
C816 C820 1.684 . S
C817 C807 1.723 . S
C817 C816 1.396 . S
C817 C818 1.394 . S
C818 C788 1.723 . S
C818 C814 1.397 . S
C818 C817 1.394 . S
C819 H791 0.982 . S
C819 H795 0.979 . S
C819 H796 0.977 . S
C819 C816 1.453 . S
C820 H792 0.979 . S
C820 H793 0.980 . S
C820 H794 0.983 . S
C820 C816 1.684 . S
H821 C839 0.948 . S
H822 C780 0.948 . S
H823 C798 0.979 . S
H824 C798 0.980 . S
H825 C798 0.983 . S
H826 C797 0.982 . S
H827 C797 0.979 . S
H828 C797 0.977 . S
H829 C799 0.948 . S
H830 C801 0.947 . S
H831 C802 0.948 . S
H832 C808 0.982 . S
H833 C808 0.979 . S
H834 C808 0.977 . S
H835 C809 0.979 . S
H836 C809 0.980 . S
H837 C809 0.983 . S
H838 C782 0.947 . S
C839 C782 1.392 . S
C839 C783 1.419 . S
C839 H821 0.948 . S
C840 C841 1.391 . S
C840 C844 1.391 . S
C840 H882 0.948 . S
C841 C840 1.391 . S
C841 C842 1.391 . S
C842 C841 1.391 . S
C842 H898 0.947 . S
C842 C899 1.392 . S
C843 C844 1.391 . S
C843 C847 1.397 . S
C843 C899 1.419 . S
C844 C840 1.391 . S
C844 C843 1.391 . S
C844 C845 1.399 . S
C845 C844 1.399 . S
C845 C848 1.396 . S
C845 C857 1.453 . S
C845 C858 1.684 . S
H846 C870 0.948 . S
C847 C843 1.397 . S
C847 C848 1.394 . S
C847 C866 1.723 . S
C848 C845 1.396 . S
C848 C847 1.394 . S
C848 C878 1.723 . S
H849 C872 0.947 . S
H850 C873 0.948 . S
H851 C879 0.982 . S
H852 C880 0.979 . S
H853 C880 0.980 . S
H854 C880 0.983 . S
H855 C879 0.979 . S
H856 C879 0.977 . S
C857 C845 1.453 . S
C857 H886 0.982 . S
C857 H887 0.979 . S
C857 H888 0.977 . S
C858 C845 1.684 . S
C858 H883 0.979 . S
C858 H884 0.980 . S
C858 H885 0.983 . S
C859 C860 1.391 . S
C859 C864 1.391 . S
C859 H889 0.948 . S
C860 C859 1.391 . S
C860 C861 1.391 . S
C861 C860 1.391 . S
C861 C862 1.392 . S
C861 H890 0.947 . S
C862 C861 1.392 . S
C862 C863 1.419 . S
C862 H891 0.948 . S
C863 C862 1.419 . S
C863 C864 1.391 . S
C863 C867 1.397 . S
C864 C859 1.391 . S
C864 C863 1.391 . S
C864 C865 1.399 . S
C865 C864 1.399 . S
C865 C866 1.396 . S
C865 C868 1.453 . S
C865 C869 1.684 . S
C866 C847 1.723 . S
C866 C865 1.396 . S
C866 C867 1.394 . S
C867 C863 1.397 . S
C867 C866 1.394 . S
C867 C877 1.723 . S
C868 C865 1.453 . S
C868 H892 0.982 . S
C868 H893 0.979 . S
C868 H894 0.977 . S
C869 C865 1.684 . S
C869 H895 0.979 . S
C869 H896 0.980 . S
C869 H897 0.983 . S
C870 H846 0.948 . S
C870 C871 1.391 . S
C870 C875 1.391 . S
C871 C870 1.391 . S
C871 C872 1.391 . S
C872 H849 0.947 . S
C872 C871 1.391 . S
C872 C873 1.392 . S
C873 H850 0.948 . S
C873 C872 1.392 . S
C873 C874 1.419 . S
C874 C873 1.419 . S
C874 C875 1.391 . S
C874 C878 1.397 . S
C875 C870 1.391 . S
C875 C874 1.391 . S
C875 C876 1.399 . S
C876 C875 1.399 . S
C876 C877 1.396 . S
C876 C879 1.453 . S
C876 C880 1.684 . S
C877 C867 1.723 . S
C877 C876 1.396 . S
C877 C878 1.394 . S
C878 C848 1.723 . S
C878 C874 1.397 . S
C878 C877 1.394 . S
C879 H851 0.982 . S
C879 H855 0.979 . S
C879 H856 0.977 . S
C879 C876 1.453 . S
C880 H852 0.979 . S
C880 H853 0.980 . S
C880 H854 0.983 . S
C880 C876 1.684 . S
H881 C899 0.948 . S
H882 C840 0.948 . S
H883 C858 0.979 . S
H884 C858 0.980 . S
H885 C858 0.983 . S
H886 C857 0.982 . S
H887 C857 0.979 . S
H888 C857 0.977 . S
H889 C859 0.948 . S
H890 C861 0.947 . S
H891 C862 0.948 . S
H892 C868 0.982 . S
H893 C868 0.979 . S
H894 C868 0.977 . S
H895 C869 0.979 . S
H896 C869 0.980 . S
H897 C869 0.983 . S
H898 C842 0.947 . S
C899 C842 1.392 . S
C899 C843 1.419 . S
C899 H881 0.948 . S
C900 C901 1.391 . S
C900 C904 1.391 . S
C900 H942 0.948 . S
C901 C900 1.391 . S
C901 C902 1.391 . S
C902 C901 1.391 . S
C902 H958 0.947 . S
C902 C959 1.392 . S
C903 C904 1.391 . S
C903 C907 1.397 . S
C903 C959 1.419 . S
C904 C900 1.391 . S
C904 C903 1.391 . S
C904 C905 1.399 . S
C905 C904 1.399 . S
C905 C908 1.396 . S
C905 C917 1.453 . S
C905 C918 1.684 . S
H906 C930 0.948 . S
C907 C903 1.397 . S
C907 C908 1.394 . S
C907 C926 1.723 . S
C908 C905 1.396 . S
C908 C907 1.394 . S
C908 C938 1.723 . S
H909 C932 0.947 1_554 S
H910 C933 0.948 . S
H911 C939 0.982 . S
H912 C940 0.979 . S
H913 C940 0.980 . S
H914 C940 0.983 . S
H915 C939 0.979 . S
H916 C939 0.977 . S
C917 C905 1.453 . S
C917 H946 0.982 . S
C917 H947 0.979 . S
C917 H948 0.977 . S
C918 C905 1.684 . S
C918 H943 1.002 . S
C918 H944 0.980 . S
C918 H945 0.976 1_556 S
C919 C920 1.391 . S
C919 C924 1.391 . S
C919 H949 0.948 . S
C920 C919 1.391 . S
C920 C921 1.391 . S
C921 C920 1.391 . S
C921 C922 1.392 . S
C921 H950 0.947 . S
C922 C921 1.392 . S
C922 C923 1.419 . S
C922 H951 0.948 . S
C923 C922 1.419 . S
C923 C924 1.391 . S
C923 C927 1.397 . S
C924 C919 1.391 . S
C924 C923 1.391 . S
C924 C925 1.399 . S
C925 C924 1.399 . S
C925 C926 1.396 . S
C925 C928 1.453 . S
C925 C929 1.684 . S
C926 C907 1.723 . S
C926 C925 1.396 . S
C926 C927 1.394 . S
C927 C923 1.397 . S
C927 C926 1.394 . S
C927 C937 1.723 . S
C928 C925 1.453 . S
C928 H952 0.982 . S
C928 H953 0.979 . S
C928 H954 0.977 . S
C929 C925 1.684 . S
C929 H955 0.979 . S
C929 H956 0.980 . S
C929 H957 0.983 . S
C930 H906 0.948 . S
C930 C931 1.391 . S
C930 C935 1.391 . S
C931 C930 1.391 . S
C931 C932 1.391 . S
C932 H909 0.947 1_556 S
C932 C931 1.391 . S
C932 C933 1.392 . S
C933 H910 0.948 . S
C933 C932 1.392 . S
C933 C934 1.419 . S
C934 C933 1.419 . S
C934 C935 1.391 . S
C934 C938 1.397 . S
C935 C930 1.391 . S
C935 C934 1.391 . S
C935 C936 1.399 . S
C936 C935 1.399 . S
C936 C937 1.396 . S
C936 C939 1.453 . S
C936 C940 1.684 . S
C937 C927 1.723 . S
C937 C936 1.396 . S
C937 C938 1.394 . S
C938 C908 1.723 . S
C938 C934 1.397 . S
C938 C937 1.394 . S
C939 H911 0.982 . S
C939 H915 0.979 . S
C939 H916 0.977 . S
C939 C936 1.453 . S
C940 H912 0.979 . S
C940 H913 0.980 . S
C940 H914 0.983 . S
C940 C936 1.684 . S
H941 C959 0.948 . S
H942 C900 0.948 . S
H943 C918 1.002 . S
H944 C918 0.980 . S
H945 C918 0.976 1_554 S
H946 C917 0.982 . S
H947 C917 0.979 . S
H948 C917 0.977 . S
H949 C919 0.948 . S
H950 C921 0.947 . S
H951 C922 0.948 . S
H952 C928 0.982 . S
H953 C928 0.979 . S
H954 C928 0.977 . S
H955 C929 0.979 . S
H956 C929 0.980 . S
H957 C929 0.983 . S
H958 C902 0.947 . S
C959 C902 1.392 . S
C959 C903 1.419 . S
C959 H941 0.948 . S
O960 Cd961 2.223 . S
O960 C968 1.315 . S
Cd961 O960 2.223 . S
Cd961 O964 2.297 . S
Cd961 O965 2.439 . S
Cd961 O971 2.240 . S
Cd962 O963 2.240 . S
Cd962 O970 2.223 . S
Cd962 O972 2.297 . S
Cd962 O973 2.439 . S
O963 Cd962 2.240 . S
O963 C968 1.279 . S
O964 Cd961 2.297 . S
O964 C966 1.247 . S
O965 Cd961 2.439 . S
O965 C966 1.208 . S
C966 O964 1.247 . S
C966 O965 1.208 . S
C967 O972 1.247 . S
C967 O973 1.208 . S
C968 O960 1.315 . S
C968 O963 1.279 . S
C969 O970 1.315 . S
C969 O971 1.279 . S
O970 Cd962 2.223 . S
O970 C969 1.315 . S
O971 Cd961 2.240 . S
O971 C969 1.279 . S
O972 Cd962 2.297 . S
O972 C967 1.247 . S
O973 Cd962 2.439 . S
O973 C967 1.208 . S
O974 Cd975 2.223 . S
O974 C982 1.315 . S
Cd975 O974 2.223 . S
Cd975 O978 2.297 . S
Cd975 O979 2.439 . S
Cd975 O985 2.240 . S
Cd976 O977 2.240 . S
Cd976 O984 2.223 . S
Cd976 O986 2.297 . S
Cd976 O987 2.439 . S
O977 Cd976 2.240 . S
O977 C982 1.279 . S
O978 Cd975 2.297 . S
O978 C980 1.247 . S
O979 Cd975 2.439 . S
O979 C980 1.208 . S
C980 O978 1.247 . S
C980 O979 1.208 . S
C981 O986 1.247 . S
C981 O987 1.208 . S
C982 O974 1.315 . S
C982 O977 1.279 . S
C983 O984 1.315 . S
C983 O985 1.279 . S
O984 Cd976 2.223 . S
O984 C983 1.315 . S
O985 Cd975 2.240 . S
O985 C983 1.279 . S
O986 Cd976 2.297 . S
O986 C981 1.247 . S
O987 Cd976 2.439 . S
O987 C981 1.208 . S
O988 Cd989 2.223 1_556 S
O988 C996 1.315 . S
Cd989 O988 2.223 1_554 S
Cd989 O992 2.297 . S
Cd989 O993 2.439 . S
Cd989 O999 2.240 . S
Cd990 O991 2.240 . S
Cd990 O998 2.223 . S
Cd990 O1000 2.297 1_556 S
Cd990 O1001 2.439 1_556 S
O991 Cd990 2.240 . S
O991 C996 1.279 . S
O992 Cd989 2.297 . S
O992 C994 1.247 . S
O993 Cd989 2.439 . S
O993 C994 1.208 . S
C994 O992 1.247 . S
C994 O993 1.208 . S
C995 O1000 1.247 . S
C995 O1001 1.208 . S
C996 O988 1.315 . S
C996 O991 1.279 . S
C997 O998 1.315 . S
C997 O999 1.279 1_556 S
O998 Cd990 2.223 . S
O998 C997 1.315 . S
O999 Cd989 2.240 . S
O999 C997 1.279 1_554 S
O1000 Cd990 2.297 1_554 S
O1000 C995 1.247 . S
O1001 Cd990 2.439 1_554 S
O1001 C995 1.208 . S
O1002 Cd1003 2.223 . S
O1002 C1010 1.315 . S
Cd1003 O1002 2.223 . S
Cd1003 O1006 2.297 . S
Cd1003 O1007 2.439 . S
Cd1003 O1013 2.240 . S
Cd1004 O1005 2.240 . S
Cd1004 O1012 2.223 . S
Cd1004 O1014 2.297 . S
Cd1004 O1015 2.439 . S
O1005 Cd1004 2.240 . S
O1005 C1010 1.279 . S
O1006 Cd1003 2.297 . S
O1006 C1008 1.247 . S
O1007 Cd1003 2.439 . S
O1007 C1008 1.208 . S
C1008 O1006 1.247 . S
C1008 O1007 1.208 . S
C1009 O1014 1.247 . S
C1009 O1015 1.208 . S
C1010 O1002 1.315 . S
C1010 O1005 1.279 . S
C1011 O1012 1.315 . S
C1011 O1013 1.279 . S
O1012 Cd1004 2.223 . S
O1012 C1011 1.315 . S
O1013 Cd1003 2.240 . S
O1013 C1011 1.279 . S
O1014 Cd1004 2.297 . S
O1014 C1009 1.247 . S
O1015 Cd1004 2.439 . S
O1015 C1009 1.208 . S
O1016 Cd1017 2.223 . S
O1016 C1024 1.315 . S
Cd1017 O1016 2.223 . S
Cd1017 O1020 2.297 . S
Cd1017 O1021 2.439 . S
Cd1017 O1027 2.240 . S
Cd1018 O1019 2.240 . S
Cd1018 O1026 2.223 . S
Cd1018 O1028 2.297 . S
Cd1018 O1029 2.439 . S
O1019 Cd1018 2.240 . S
O1019 C1024 1.279 . S
O1020 Cd1017 2.297 . S
O1020 C1022 1.247 . S
O1021 Cd1017 2.439 . S
O1021 C1022 1.208 . S
C1022 O1020 1.247 . S
C1022 O1021 1.208 . S
C1023 O1028 1.247 . S
C1023 O1029 1.208 . S
C1024 O1016 1.315 . S
C1024 O1019 1.279 . S
C1025 O1026 1.315 . S
C1025 O1027 1.279 . S
O1026 Cd1018 2.223 . S
O1026 C1025 1.315 . S
O1027 Cd1017 2.240 . S
O1027 C1025 1.279 . S
O1028 Cd1018 2.297 . S
O1028 C1023 1.247 . S
O1029 Cd1018 2.439 . S
O1029 C1023 1.208 . S
O1030 Cd1031 2.223 . S
O1030 C1038 1.315 . S
Cd1031 O1030 2.223 . S
Cd1031 O1034 2.297 . S
Cd1031 O1035 2.439 . S
Cd1031 O1041 2.240 . S
Cd1032 O1033 2.240 . S
Cd1032 O1040 2.223 . S
Cd1032 O1042 2.297 . S
Cd1032 O1043 2.439 . S
O1033 Cd1032 2.240 . S
O1033 C1038 1.279 . S
O1034 Cd1031 2.297 . S
O1034 C1036 1.247 . S
O1035 Cd1031 2.439 . S
O1035 C1036 1.208 . S
C1036 O1034 1.247 . S
C1036 O1035 1.208 . S
C1037 O1042 1.247 . S
C1037 O1043 1.208 . S
C1038 O1030 1.315 . S
C1038 O1033 1.279 . S
C1039 O1040 1.315 . S
C1039 O1041 1.279 . S
O1040 Cd1032 2.223 . S
O1040 C1039 1.315 . S
O1041 Cd1031 2.240 . S
O1041 C1039 1.279 . S
O1042 Cd1032 2.297 . S
O1042 C1037 1.247 . S
O1043 Cd1032 2.439 . S
O1043 C1037 1.208 . S
O1044 Cd1045 2.223 . S
O1044 C1052 1.315 . S
Cd1045 O1044 2.223 . S
Cd1045 O1048 2.297 . S
Cd1045 O1049 2.439 . S
Cd1045 O1055 2.240 . S
Cd1046 O1047 2.240 . S
Cd1046 O1054 2.223 . S
Cd1046 O1056 2.297 . S
Cd1046 O1057 2.439 . S
O1047 Cd1046 2.240 . S
O1047 C1052 1.279 . S
O1048 Cd1045 2.297 . S
O1048 C1050 1.247 . S
O1049 Cd1045 2.439 . S
O1049 C1050 1.208 . S
C1050 O1048 1.247 . S
C1050 O1049 1.208 . S
C1051 O1056 1.247 . S
C1051 O1057 1.208 . S
C1052 O1044 1.315 . S
C1052 O1047 1.279 . S
C1053 O1054 1.315 . S
C1053 O1055 1.279 . S
O1054 Cd1046 2.223 . S
O1054 C1053 1.315 . S
O1055 Cd1045 2.240 . S
O1055 C1053 1.279 . S
O1056 Cd1046 2.297 . S
O1056 C1051 1.247 . S
O1057 Cd1046 2.439 . S
O1057 C1051 1.208 . S
O1058 Cd1059 2.223 1_545 S
O1058 C1066 1.315 . S
Cd1059 O1058 2.223 1_565 S
Cd1059 O1062 2.297 . S
Cd1059 O1063 2.439 . S
Cd1059 O1069 2.240 1_565 S
Cd1060 O1061 2.240 . S
Cd1060 O1068 2.223 . S
Cd1060 O1070 2.297 . S
Cd1060 O1071 2.439 1_545 S
O1061 Cd1060 2.240 . S
O1061 C1066 1.279 . S
O1062 Cd1059 2.297 . S
O1062 C1064 1.247 . S
O1063 Cd1059 2.439 . S
O1063 C1064 1.208 . S
C1064 O1062 1.247 . S
C1064 O1063 1.208 . S
C1065 O1070 1.247 1_565 S
C1065 O1071 1.208 . S
C1066 O1058 1.315 . S
C1066 O1061 1.279 . S
C1067 O1068 1.315 . S
C1067 O1069 1.279 . S
O1068 Cd1060 2.223 . S
O1068 C1067 1.315 . S
O1069 Cd1059 2.240 1_545 S
O1069 C1067 1.279 . S
O1070 Cd1060 2.297 . S
O1070 C1065 1.247 1_545 S
O1071 Cd1060 2.439 1_565 S
O1071 C1065 1.208 . S
O1072 Cd1073 2.223 . S
O1072 C1080 1.315 . S
Cd1073 O1072 2.223 . S
Cd1073 O1076 2.297 1_655 S
Cd1073 O1077 2.439 1_655 S
Cd1073 O1083 2.240 . S
Cd1074 O1075 2.240 . S
Cd1074 O1082 2.223 1_455 S
Cd1074 O1084 2.297 . S
Cd1074 O1085 2.439 . S
O1075 Cd1074 2.240 . S
O1075 C1080 1.279 1_455 S
O1076 Cd1073 2.297 1_455 S
O1076 C1078 1.247 . S
O1077 Cd1073 2.439 1_455 S
O1077 C1078 1.208 . S
C1078 O1076 1.247 . S
C1078 O1077 1.208 . S
C1079 O1084 1.247 . S
C1079 O1085 1.208 . S
C1080 O1072 1.315 . S
C1080 O1075 1.279 1_655 S
C1081 O1082 1.315 . S
C1081 O1083 1.279 . S
O1082 Cd1074 2.223 1_655 S
O1082 C1081 1.315 . S
O1083 Cd1073 2.240 . S
O1083 C1081 1.279 . S
O1084 Cd1074 2.297 . S
O1084 C1079 1.247 . S
O1085 Cd1074 2.439 . S
O1085 C1079 1.208 . S
O1086 Cd1087 2.223 . S
O1086 C1094 1.315 . S
Cd1087 O1086 2.223 . S
Cd1087 O1090 2.297 . S
Cd1087 O1091 2.439 . S
Cd1087 O1097 2.240 . S
Cd1088 O1089 2.240 . S
Cd1088 O1096 2.223 . S
Cd1088 O1098 2.297 . S
Cd1088 O1099 2.439 . S
O1089 Cd1088 2.240 . S
O1089 C1094 1.279 . S
O1090 Cd1087 2.297 . S
O1090 C1092 1.247 . S
O1091 Cd1087 2.439 . S
O1091 C1092 1.208 . S
C1092 O1090 1.247 . S
C1092 O1091 1.208 . S
C1093 O1098 1.247 . S
C1093 O1099 1.208 . S
C1094 O1086 1.315 . S
C1094 O1089 1.279 . S
C1095 O1096 1.315 . S
C1095 O1097 1.279 . S
O1096 Cd1088 2.223 . S
O1096 C1095 1.315 . S
O1097 Cd1087 2.240 . S
O1097 C1095 1.279 . S
O1098 Cd1088 2.297 . S
O1098 C1093 1.247 . S
O1099 Cd1088 2.439 . S
O1099 C1093 1.208 . S
O1100 Cd1101 2.223 1_655 S
O1100 C1108 1.315 . S
Cd1101 O1100 2.223 1_455 S
Cd1101 O1104 2.297 . S
Cd1101 O1105 2.439 . S
Cd1101 O1111 2.240 . S
Cd1102 O1103 2.240 . S
Cd1102 O1110 2.223 . S
Cd1102 O1112 2.297 1_655 S
Cd1102 O1113 2.439 1_655 S
O1103 Cd1102 2.240 . S
O1103 C1108 1.279 . S
O1104 Cd1101 2.297 . S
O1104 C1106 1.247 . S
O1105 Cd1101 2.439 . S
O1105 C1106 1.208 . S
C1106 O1104 1.247 . S
C1106 O1105 1.208 . S
C1107 O1112 1.247 . S
C1107 O1113 1.208 . S
C1108 O1100 1.315 . S
C1108 O1103 1.279 . S
C1109 O1110 1.315 . S
C1109 O1111 1.279 1_655 S
O1110 Cd1102 2.223 . S
O1110 C1109 1.315 . S
O1111 Cd1101 2.240 . S
O1111 C1109 1.279 1_455 S
O1112 Cd1102 2.297 1_455 S
O1112 C1107 1.247 . S
O1113 Cd1102 2.439 1_455 S
O1113 C1107 1.208 . S
O1114 Cd1115 2.223 . S
O1114 C1122 1.315 . S
Cd1115 O1114 2.223 . S
Cd1115 O1118 2.297 . S
Cd1115 O1119 2.439 . S
Cd1115 O1125 2.240 . S
Cd1116 O1117 2.240 . S
Cd1116 O1124 2.223 . S
Cd1116 O1126 2.297 . S
Cd1116 O1127 2.439 . S
O1117 Cd1116 2.240 . S
O1117 C1122 1.279 . S
O1118 Cd1115 2.297 . S
O1118 C1120 1.247 . S
O1119 Cd1115 2.439 . S
O1119 C1120 1.208 . S
C1120 O1118 1.247 . S
C1120 O1119 1.208 . S
C1121 O1126 1.247 . S
C1121 O1127 1.208 . S
C1122 O1114 1.315 . S
C1122 O1117 1.279 . S
C1123 O1124 1.315 . S
C1123 O1125 1.279 . S
O1124 Cd1116 2.223 . S
O1124 C1123 1.315 . S
O1125 Cd1115 2.240 . S
O1125 C1123 1.279 . S
O1126 Cd1116 2.297 . S
O1126 C1121 1.247 . S
O1127 Cd1116 2.439 . S
O1127 C1121 1.208 . S
C1128 C1129 1.391 . S
C1128 C1130 1.394 . S
C1128 H1144 0.931 . S
C1129 C1128 1.391 . S
C1129 C1133 1.376 . S
C1130 C1128 1.394 . S
C1130 C1131 1.369 . S
C1130 C1134 1.531 . S
C1131 C1130 1.369 . S
C1131 C1132 1.410 . S
C1131 C1139 1.503 . S
C1132 C1131 1.410 . S
C1132 C1133 1.392 . S
C1132 C1135 1.511 . S
C1133 C1129 1.376 . S
C1133 C1132 1.392 . S
C1133 H1145 0.929 . S
C1134 C1130 1.531 . S
C1134 H1146 0.960 . S
C1134 H1147 0.962 . S
C1134 H1148 0.960 . S
C1135 C1132 1.511 . S
C1135 H1149 0.961 . S
C1135 H1150 0.961 . S
C1135 H1151 0.961 . S
C1136 C1137 1.370 . S
C1136 C1138 1.363 . S
C1136 H1152 0.968 . S
C1137 C1136 1.370 . S
C1137 C1141 1.408 . S
C1138 C1136 1.363 . S
C1138 C1139 1.370 . S
C1138 C1142 1.524 . S
C1139 C1131 1.503 . S
C1139 C1138 1.370 . S
C1139 C1140 1.403 . S
C1140 C1139 1.403 . S
C1140 C1141 1.404 . S
C1140 C1143 1.539 . S
C1141 C1137 1.408 . S
C1141 C1140 1.404 . S
C1141 H1153 0.930 . S
C1142 C1138 1.524 . S
C1142 H1154 0.956 . S
C1142 H1155 0.961 . S
C1142 H1156 0.961 . S
C1143 C1140 1.539 . S
C1143 H1157 0.958 . S
C1143 H1158 0.961 . S
C1143 H1159 0.960 . S
H1144 C1128 0.931 . S
H1145 C1133 0.929 . S
H1146 C1134 0.960 . S
H1147 C1134 0.962 . S
H1148 C1134 0.960 . S
H1149 C1135 0.961 . S
H1150 C1135 0.961 . S
H1151 C1135 0.961 . S
H1152 C1136 0.968 . S
H1153 C1141 0.930 . S
H1154 C1142 0.956 . S
H1155 C1142 0.961 . S
H1156 C1142 0.961 . S
H1157 C1143 0.958 . S
H1158 C1143 0.961 . S
H1159 C1143 0.960 . S
C1160 C1161 1.391 . S
C1160 C1162 1.394 . S
C1160 H1176 0.931 . S
C1161 C1160 1.391 . S
C1161 C1165 1.376 1_655 S
C1162 C1160 1.394 . S
C1162 C1163 1.369 1_655 S
C1162 C1166 1.531 . S
C1163 C1162 1.369 1_455 S
C1163 C1164 1.410 . S
C1163 C1171 1.503 . S
C1164 C1163 1.410 . S
C1164 C1165 1.392 . S
C1164 C1167 1.511 . S
C1165 C1161 1.376 1_455 S
C1165 C1164 1.392 . S
C1165 H1177 0.929 . S
C1166 C1162 1.531 . S
C1166 H1178 0.960 1_655 S
C1166 H1179 0.962 . S
C1166 H1180 0.960 . S
C1167 C1164 1.511 . S
C1167 H1181 0.961 . S
C1167 H1182 0.961 . S
C1167 H1183 0.961 . S
C1168 C1169 1.370 . S
C1168 C1170 1.363 . S
C1168 H1184 0.931 . S
C1169 C1168 1.370 . S
C1169 C1173 1.408 . S
C1170 C1168 1.363 . S
C1170 C1171 1.370 . S
C1170 C1174 1.524 . S
C1171 C1163 1.503 . S
C1171 C1170 1.370 . S
C1171 C1172 1.403 . S
C1172 C1171 1.403 . S
C1172 C1173 1.404 . S
C1172 C1175 1.539 . S
C1173 C1169 1.408 . S
C1173 C1172 1.404 . S
C1173 H1185 0.930 . S
C1174 C1170 1.524 . S
C1174 H1186 0.956 . S
C1174 H1187 0.961 . S
C1174 H1188 0.961 . S
C1175 C1172 1.539 . S
C1175 H1189 0.958 . S
C1175 H1190 0.961 . S
C1175 H1191 0.960 . S
H1176 C1160 0.931 . S
H1177 C1165 0.929 . S
H1178 C1166 0.960 1_455 S
H1179 C1166 0.962 . S
H1180 C1166 0.960 . S
H1181 C1167 0.961 . S
H1182 C1167 0.961 . S
H1183 C1167 0.961 . S
H1184 C1168 0.931 . S
H1185 C1173 0.930 . S
H1186 C1174 0.956 . S
H1187 C1174 0.961 . S
H1188 C1174 0.961 . S
H1189 C1175 0.958 . S
H1190 C1175 0.961 . S
H1191 C1175 0.960 . S
C1192 C1193 1.391 . S
C1192 C1194 1.394 . S
C1192 H1208 0.931 . S
C1193 C1192 1.391 . S
C1193 C1197 1.376 . S
C1194 C1192 1.394 . S
C1194 C1195 1.369 . S
C1194 C1198 1.531 . S
C1195 C1194 1.369 . S
C1195 C1196 1.410 . S
C1195 C1203 1.503 . S
C1196 C1195 1.410 . S
C1196 C1197 1.392 . S
C1196 C1199 1.511 . S
C1197 C1193 1.376 . S
C1197 C1196 1.392 . S
C1197 H1209 0.929 . S
C1198 C1194 1.531 . S
C1198 H1210 0.960 . S
C1198 H1211 0.962 . S
C1198 H1212 0.960 . S
C1199 C1196 1.511 . S
C1199 H1213 0.961 . S
C1199 H1214 0.961 . S
C1199 H1215 0.961 . S
C1200 C1201 1.370 . S
C1200 C1202 1.363 . S
C1200 H1216 0.931 . S
C1201 C1200 1.370 . S
C1201 C1205 1.408 . S
C1202 C1200 1.363 . S
C1202 C1203 1.370 . S
C1202 C1206 1.524 . S
C1203 C1195 1.503 . S
C1203 C1202 1.370 . S
C1203 C1204 1.403 . S
C1204 C1203 1.403 . S
C1204 C1205 1.404 . S
C1204 C1207 1.539 . S
C1205 C1201 1.408 . S
C1205 C1204 1.404 . S
C1205 H1217 0.930 . S
C1206 C1202 1.524 . S
C1206 H1218 0.956 . S
C1206 H1219 0.961 . S
C1206 H1220 0.961 . S
C1207 C1204 1.539 . S
C1207 H1221 0.958 . S
C1207 H1222 0.961 . S
C1207 H1223 0.960 . S
H1208 C1192 0.931 . S
H1209 C1197 0.929 . S
H1210 C1198 0.960 . S
H1211 C1198 0.962 . S
H1212 C1198 0.960 . S
H1213 C1199 0.961 . S
H1214 C1199 0.961 . S
H1215 C1199 0.961 . S
H1216 C1200 0.931 . S
H1217 C1205 0.930 . S
H1218 C1206 0.956 . S
H1219 C1206 0.961 . S
H1220 C1206 0.961 . S
H1221 C1207 0.958 . S
H1222 C1207 0.961 . S
H1223 C1207 0.960 . S
C1224 C1225 1.391 . S
C1224 C1226 1.394 1_455 S
C1224 H1240 0.931 . S
C1225 C1224 1.391 . S
C1225 C1229 1.376 1_455 S
C1226 C1224 1.394 1_655 S
C1226 C1227 1.369 . S
C1226 C1230 1.531 . S
C1227 C1226 1.369 . S
C1227 C1228 1.410 . S
C1227 C1235 1.503 1_565 S
C1228 C1227 1.410 . S
C1228 C1229 1.392 . S
C1228 C1231 1.511 . S
C1229 C1225 1.376 1_655 S
C1229 C1228 1.392 . S
C1229 H1241 0.929 . S
C1230 C1226 1.531 . S
C1230 H1242 0.960 . S
C1230 H1243 0.962 1_565 S
C1230 H1244 0.960 . S
C1231 C1228 1.511 . S
C1231 H1245 0.961 . S
C1231 H1246 0.990 . S
C1231 H1247 0.961 . S
C1232 C1233 1.370 . S
C1232 C1234 1.363 . S
C1232 H1248 0.931 . S
C1233 C1232 1.370 . S
C1233 C1237 1.408 . S
C1234 C1232 1.363 . S
C1234 C1235 1.370 . S
C1234 C1238 1.524 . S
C1235 C1227 1.503 1_545 S
C1235 C1234 1.370 . S
C1235 C1236 1.403 1_545 S
C1236 C1235 1.403 1_565 S
C1236 C1237 1.404 1_565 S
C1236 C1239 1.539 . S
C1237 C1233 1.408 . S
C1237 C1236 1.404 1_545 S
C1237 H1249 0.930 1_545 S
C1238 C1234 1.524 . S
C1238 H1250 0.956 . S
C1238 H1251 0.961 . S
C1238 H1252 0.961 . S
C1239 C1236 1.539 . S
C1239 H1253 0.958 . S
C1239 H1254 0.961 . S
C1239 H1255 0.960 . S
H1240 C1224 0.931 . S
H1241 C1229 0.929 . S
H1242 C1230 0.960 . S
H1243 C1230 0.962 1_545 S
H1244 C1230 0.960 . S
H1245 C1231 0.961 . S
H1246 C1231 0.990 . S
H1247 C1231 0.961 . S
H1248 C1232 0.931 . S
H1249 C1237 0.930 1_565 S
H1250 C1238 0.956 . S
H1251 C1238 0.961 . S
H1252 C1238 0.961 . S
H1253 C1239 0.958 . S
H1254 C1239 0.961 . S
H1255 C1239 0.960 . S
C1256 C1257 1.391 . S
C1256 C1258 1.394 . S
C1256 H1272 0.931 . S
C1257 C1256 1.391 . S
C1257 C1261 1.376 . S
C1258 C1256 1.394 . S
C1258 C1259 1.369 . S
C1258 C1262 1.531 . S
C1259 C1258 1.369 . S
C1259 C1260 1.410 . S
C1259 C1267 1.503 . S
C1260 C1259 1.410 . S
C1260 C1261 1.392 . S
C1260 C1263 1.511 . S
C1261 C1257 1.376 . S
C1261 C1260 1.392 . S
C1261 H1273 0.929 . S
C1262 C1258 1.531 . S
C1262 H1274 0.960 . S
C1262 H1275 0.962 . S
C1262 H1276 0.960 . S
C1263 C1260 1.511 . S
C1263 H1277 0.961 . S
C1263 H1278 0.961 . S
C1263 H1279 0.961 . S
C1264 C1265 1.370 . S
C1264 C1266 1.363 . S
C1264 H1280 0.931 . S
C1265 C1264 1.370 . S
C1265 C1269 1.408 . S
C1266 C1264 1.363 . S
C1266 C1267 1.370 . S
C1266 C1270 1.524 . S
C1267 C1259 1.503 . S
C1267 C1266 1.370 . S
C1267 C1268 1.403 . S
C1268 C1267 1.403 . S
C1268 C1269 1.404 . S
C1268 C1271 1.539 . S
C1269 C1265 1.408 . S
C1269 C1268 1.404 . S
C1269 H1281 0.930 . S
C1270 C1266 1.524 . S
C1270 H1282 0.956 . S
C1270 H1283 0.961 . S
C1270 H1284 0.961 . S
C1271 C1268 1.539 . S
C1271 H1285 0.958 . S
C1271 H1286 0.961 . S
C1271 H1287 0.960 . S
H1272 C1256 0.931 . S
H1273 C1261 0.929 . S
H1274 C1262 0.960 . S
H1275 C1262 0.962 . S
H1276 C1262 0.960 . S
H1277 C1263 0.961 . S
H1278 C1263 0.961 . S
H1279 C1263 0.961 . S
H1280 C1264 0.931 . S
H1281 C1269 0.930 . S
H1282 C1270 0.956 . S
H1283 C1270 0.961 . S
H1284 C1270 0.961 . S
H1285 C1271 0.958 . S
H1286 C1271 0.961 . S
H1287 C1271 0.960 . S
C1288 C1289 1.391 . S
C1288 C1290 1.394 . S
C1288 H1304 0.931 . S
C1289 C1288 1.391 . S
C1289 C1293 1.376 . S
C1290 C1288 1.394 . S
C1290 C1291 1.369 . S
C1290 C1294 1.531 . S
C1291 C1290 1.369 . S
C1291 C1292 1.410 . S
C1291 C1299 1.503 . S
C1292 C1291 1.410 . S
C1292 C1293 1.392 . S
C1292 C1295 1.511 . S
C1293 C1289 1.376 . S
C1293 C1292 1.392 . S
C1293 H1305 0.929 . S
C1294 C1290 1.531 . S
C1294 H1306 0.960 . S
C1294 H1307 0.962 . S
C1294 H1308 0.960 . S
C1295 C1292 1.511 . S
C1295 H1309 0.961 . S
C1295 H1310 0.961 . S
C1295 H1311 0.961 . S
C1296 C1297 1.370 . S
C1296 C1298 1.363 . S
C1296 H1312 0.931 . S
C1297 C1296 1.370 . S
C1297 C1301 1.408 . S
C1298 C1296 1.363 . S
C1298 C1299 1.370 . S
C1298 C1302 1.524 . S
C1299 C1291 1.503 . S
C1299 C1298 1.370 . S
C1299 C1300 1.403 . S
C1300 C1299 1.403 . S
C1300 C1301 1.404 . S
C1300 C1303 1.539 . S
C1301 C1297 1.408 . S
C1301 C1300 1.404 . S
C1301 H1313 0.930 . S
C1302 C1298 1.524 . S
C1302 H1314 0.956 . S
C1302 H1315 0.961 . S
C1302 H1316 0.961 . S
C1303 C1300 1.539 . S
C1303 H1317 0.958 . S
C1303 H1318 0.961 . S
C1303 H1319 0.960 . S
H1304 C1288 0.931 . S
H1305 C1293 0.929 . S
H1306 C1294 0.960 . S
H1307 C1294 0.962 . S
H1308 C1294 0.960 . S
H1309 C1295 0.961 . S
H1310 C1295 0.961 . S
H1311 C1295 0.961 . S
H1312 C1296 0.931 . S
H1313 C1301 0.930 . S
H1314 C1302 0.956 . S
H1315 C1302 0.961 . S
H1316 C1302 0.961 . S
H1317 C1303 0.958 . S
H1318 C1303 0.961 . S
H1319 C1303 0.960 . S
C1320 C1321 1.391 . S
C1320 C1322 1.394 . S
C1320 H1336 0.931 . S
C1321 C1320 1.391 . S
C1321 C1325 1.376 . S
C1322 C1320 1.394 . S
C1322 C1323 1.369 . S
C1322 C1326 1.531 . S
C1323 C1322 1.369 . S
C1323 C1324 1.410 . S
C1323 C1331 1.503 . S
C1324 C1323 1.410 . S
C1324 C1325 1.392 . S
C1324 C1327 1.511 . S
C1325 C1321 1.376 . S
C1325 C1324 1.392 . S
C1325 H1337 0.929 . S
C1326 C1322 1.531 . S
C1326 H1338 0.960 . S
C1326 H1339 0.962 . S
C1326 H1340 0.960 . S
C1327 C1324 1.511 . S
C1327 H1341 0.961 . S
C1327 H1342 0.961 . S
C1327 H1343 0.961 . S
C1328 C1329 1.370 . S
C1328 C1330 1.363 . S
C1328 H1344 0.931 . S
C1329 C1328 1.370 . S
C1329 C1333 1.408 . S
C1330 C1328 1.363 . S
C1330 C1331 1.370 . S
C1330 C1334 1.524 . S
C1331 C1323 1.503 . S
C1331 C1330 1.370 . S
C1331 C1332 1.403 . S
C1332 C1331 1.403 . S
C1332 C1333 1.404 . S
C1332 C1335 1.539 . S
C1333 C1329 1.408 . S
C1333 C1332 1.404 . S
C1333 H1345 0.930 . S
C1334 C1330 1.524 . S
C1334 H1346 0.956 . S
C1334 H1347 0.961 . S
C1334 H1348 0.961 . S
C1335 C1332 1.539 . S
C1335 H1349 0.958 . S
C1335 H1350 0.961 . S
C1335 H1351 0.960 . S
H1336 C1320 0.931 . S
H1337 C1325 0.929 . S
H1338 C1326 0.960 . S
H1339 C1326 0.962 . S
H1340 C1326 0.960 . S
H1341 C1327 0.961 . S
H1342 C1327 0.961 . S
H1343 C1327 0.961 . S
H1344 C1328 0.931 . S
H1345 C1333 0.930 . S
H1346 C1334 0.956 . S
H1347 C1334 0.961 . S
H1348 C1334 0.961 . S
H1349 C1335 0.958 . S
H1350 C1335 0.961 . S
H1351 C1335 0.960 . S
C1352 C1353 1.391 . S
C1352 C1354 1.394 . S
C1352 H1368 0.931 . S
C1353 C1352 1.391 . S
C1353 C1357 1.376 . S
C1354 C1352 1.394 . S
C1354 C1355 1.369 . S
C1354 C1358 1.531 . S
C1355 C1354 1.369 . S
C1355 C1356 1.410 . S
C1355 C1363 1.503 . S
C1356 C1355 1.410 . S
C1356 C1357 1.392 . S
C1356 C1359 1.511 . S
C1357 C1353 1.376 . S
C1357 C1356 1.392 . S
C1357 H1369 0.929 . S
C1358 C1354 1.531 . S
C1358 H1370 0.960 . S
C1358 H1371 0.962 . S
C1358 H1372 0.960 . S
C1359 C1356 1.511 . S
C1359 H1373 0.961 . S
C1359 H1374 0.961 . S
C1359 H1375 0.961 . S
C1360 C1361 1.370 . S
C1360 C1362 1.363 . S
C1360 H1376 0.931 . S
C1361 C1360 1.370 . S
C1361 C1365 1.408 . S
C1362 C1360 1.363 . S
C1362 C1363 1.370 . S
C1362 C1366 1.524 . S
C1363 C1355 1.503 . S
C1363 C1362 1.370 . S
C1363 C1364 1.403 . S
C1364 C1363 1.403 . S
C1364 C1365 1.404 . S
C1364 C1367 1.539 . S
C1365 C1361 1.408 . S
C1365 C1364 1.404 . S
C1365 H1377 0.930 1_565 S
C1366 C1362 1.524 . S
C1366 H1378 0.956 . S
C1366 H1379 0.961 . S
C1366 H1380 0.961 . S
C1367 C1364 1.539 . S
C1367 H1381 0.958 1_565 S
C1367 H1382 0.961 1_565 S
C1367 H1383 0.960 . S
H1368 C1352 0.931 . S
H1369 C1357 0.929 . S
H1370 C1358 0.960 . S
H1371 C1358 0.962 . S
H1372 C1358 0.960 . S
H1373 C1359 0.961 . S
H1374 C1359 0.961 . S
H1375 C1359 0.961 . S
H1376 C1360 0.931 . S
H1377 C1365 0.930 1_545 S
H1378 C1366 0.956 . S
H1379 C1366 0.961 . S
H1380 C1366 0.961 . S
H1381 C1367 0.958 1_545 S
H1382 C1367 0.961 1_545 S
H1383 C1367 0.960 . S
C1384 C1385 1.391 . S
C1384 C1386 1.394 . S
C1384 H1400 0.931 . S
C1385 C1384 1.391 . S
C1385 C1389 1.376 . S
C1386 C1384 1.394 . S
C1386 C1387 1.369 . S
C1386 C1390 1.531 . S
C1387 C1386 1.369 . S
C1387 C1388 1.410 . S
C1387 C1395 1.503 . S
C1388 C1387 1.410 . S
C1388 C1389 1.392 . S
C1388 C1391 1.511 . S
C1389 C1385 1.376 . S
C1389 C1388 1.392 . S
C1389 H1401 0.929 . S
C1390 C1386 1.531 . S
C1390 H1402 0.960 . S
C1390 H1403 0.962 . S
C1390 H1404 0.960 . S
C1391 C1388 1.511 . S
C1391 H1405 0.961 . S
C1391 H1406 0.961 . S
C1391 H1407 0.961 . S
C1392 C1393 1.370 . S
C1392 C1394 1.363 . S
C1392 H1408 0.931 . S
C1393 C1392 1.370 . S
C1393 C1397 1.408 . S
C1394 C1392 1.363 . S
C1394 C1395 1.370 . S
C1394 C1398 1.524 . S
C1395 C1387 1.503 . S
C1395 C1394 1.370 . S
C1395 C1396 1.403 . S
C1396 C1395 1.403 . S
C1396 C1397 1.404 . S
C1396 C1399 1.539 . S
C1397 C1393 1.408 . S
C1397 C1396 1.404 . S
C1397 H1409 0.930 . S
C1398 C1394 1.524 . S
C1398 H1410 0.956 . S
C1398 H1411 0.961 . S
C1398 H1412 0.961 . S
C1399 C1396 1.539 . S
C1399 H1413 0.958 . S
C1399 H1414 0.961 . S
C1399 H1415 0.960 . S
H1400 C1384 0.931 . S
H1401 C1389 0.929 . S
H1402 C1390 0.960 . S
H1403 C1390 0.962 . S
H1404 C1390 0.960 . S
H1405 C1391 0.961 . S
H1406 C1391 0.961 . S
H1407 C1391 0.961 . S
H1408 C1392 0.931 . S
H1409 C1397 0.930 . S
H1410 C1398 0.956 . S
H1411 C1398 0.961 . S
H1412 C1398 0.961 . S
H1413 C1399 0.958 . S
H1414 C1399 0.961 . S
H1415 C1399 0.960 . S
C1416 C1417 1.391 . S
C1416 C1418 1.394 . S
C1416 H1432 0.931 . S
C1417 C1416 1.391 . S
C1417 C1421 1.376 . S
C1418 C1416 1.394 . S
C1418 C1419 1.369 . S
C1418 C1422 1.531 . S
C1419 C1418 1.369 . S
C1419 C1420 1.410 . S
C1419 C1427 1.503 . S
C1420 C1419 1.410 . S
C1420 C1421 1.392 . S
C1420 C1423 1.511 . S
C1421 C1417 1.376 . S
C1421 C1420 1.392 . S
C1421 H1433 0.929 . S
C1422 C1418 1.531 . S
C1422 H1434 0.960 . S
C1422 H1435 0.962 . S
C1422 H1436 0.960 . S
C1423 C1420 1.511 . S
C1423 H1437 0.961 . S
C1423 H1438 0.961 . S
C1423 H1439 0.961 . S
C1424 C1425 1.370 . S
C1424 C1426 1.363 . S
C1424 H1440 0.931 . S
C1425 C1424 1.370 . S
C1425 C1429 1.408 . S
C1426 C1424 1.363 . S
C1426 C1427 1.370 . S
C1426 C1430 1.524 . S
C1427 C1419 1.503 . S
C1427 C1426 1.370 . S
C1427 C1428 1.403 . S
C1428 C1427 1.403 . S
C1428 C1429 1.404 . S
C1428 C1431 1.539 . S
C1429 C1425 1.408 . S
C1429 C1428 1.404 . S
C1429 H1441 0.930 . S
C1430 C1426 1.524 . S
C1430 H1442 0.956 . S
C1430 H1443 0.961 . S
C1430 H1444 0.961 . S
C1431 C1428 1.539 . S
C1431 H1445 0.958 . S
C1431 H1446 0.961 . S
C1431 H1447 0.960 . S
H1432 C1416 0.931 . S
H1433 C1421 0.929 . S
H1434 C1422 0.960 . S
H1435 C1422 0.962 . S
H1436 C1422 0.960 . S
H1437 C1423 0.961 . S
H1438 C1423 0.961 . S
H1439 C1423 0.961 . S
H1440 C1424 0.931 . S
H1441 C1429 0.930 . S
H1442 C1430 0.956 . S
H1443 C1430 0.961 . S
H1444 C1430 0.961 . S
H1445 C1431 0.958 . S
H1446 C1431 0.961 . S
H1447 C1431 0.960 . S
C1448 C1449 1.391 . S
C1448 C1450 1.394 . S
C1448 H1464 0.931 . S
C1449 C1448 1.391 . S
C1449 C1453 1.376 . S
C1450 C1448 1.394 . S
C1450 C1451 1.369 . S
C1450 C1454 1.531 . S
C1451 C1450 1.369 . S
C1451 C1452 1.410 . S
C1451 C1459 1.503 . S
C1452 C1451 1.410 . S
C1452 C1453 1.392 . S
C1452 C1455 1.511 . S
C1453 C1449 1.376 . S
C1453 C1452 1.392 . S
C1453 H1465 0.929 . S
C1454 C1450 1.531 . S
C1454 H1466 0.960 . S
C1454 H1467 0.962 . S
C1454 H1468 0.960 . S
C1455 C1452 1.511 . S
C1455 H1469 0.961 . S
C1455 H1470 0.961 . S
C1455 H1471 0.961 . S
C1456 C1457 1.370 . S
C1456 C1458 1.363 . S
C1456 H1472 0.931 . S
C1457 C1456 1.370 . S
C1457 C1461 1.408 . S
C1458 C1456 1.363 . S
C1458 C1459 1.370 . S
C1458 C1462 1.524 . S
C1459 C1451 1.503 . S
C1459 C1458 1.370 . S
C1459 C1460 1.403 . S
C1460 C1459 1.403 . S
C1460 C1461 1.404 . S
C1460 C1463 1.539 . S
C1461 C1457 1.408 . S
C1461 C1460 1.404 . S
C1461 H1473 0.930 . S
C1462 C1458 1.524 . S
C1462 H1474 0.956 . S
C1462 H1475 0.961 . S
C1462 H1476 0.961 . S
C1463 C1460 1.539 . S
C1463 H1477 0.958 . S
C1463 H1478 0.961 . S
C1463 H1479 0.960 . S
H1464 C1448 0.931 . S
H1465 C1453 0.929 . S
H1466 C1454 0.960 . S
H1467 C1454 0.962 . S
H1468 C1454 0.960 . S
H1469 C1455 0.961 . S
H1470 C1455 0.961 . S
H1471 C1455 0.961 . S
H1472 C1456 0.931 . S
H1473 C1461 0.930 . S
H1474 C1462 0.956 . S
H1475 C1462 0.961 . S
H1476 C1462 0.961 . S
H1477 C1463 0.958 . S
H1478 C1463 0.961 . S
H1479 C1463 0.960 . S
C1480 C1481 1.391 . S
C1480 C1482 1.394 . S
C1480 H1496 0.931 . S
C1481 C1480 1.391 . S
C1481 C1485 1.376 . S
C1482 C1480 1.394 . S
C1482 C1483 1.369 . S
C1482 C1486 1.531 . S
C1483 C1482 1.369 . S
C1483 C1484 1.410 . S
C1483 C1491 1.503 . S
C1484 C1483 1.410 . S
C1484 C1485 1.392 . S
C1484 C1487 1.511 . S
C1485 C1481 1.376 . S
C1485 C1484 1.392 . S
C1485 H1497 0.929 . S
C1486 C1482 1.531 . S
C1486 H1498 0.960 . S
C1486 H1499 0.962 . S
C1486 H1500 0.960 . S
C1487 C1484 1.511 . S
C1487 H1501 0.961 . S
C1487 H1502 0.961 . S
C1487 H1503 0.961 . S
C1488 C1489 1.370 . S
C1488 C1490 1.363 . S
C1488 H1504 0.931 . S
C1489 C1488 1.370 . S
C1489 C1493 1.408 . S
C1490 C1488 1.363 . S
C1490 C1491 1.370 . S
C1490 C1494 1.524 . S
C1491 C1483 1.503 . S
C1491 C1490 1.370 . S
C1491 C1492 1.403 . S
C1492 C1491 1.403 . S
C1492 C1493 1.404 . S
C1492 C1495 1.539 . S
C1493 C1489 1.408 . S
C1493 C1492 1.404 . S
C1493 H1505 0.930 . S
C1494 C1490 1.524 . S
C1494 H1506 0.956 . S
C1494 H1507 0.961 . S
C1494 H1508 0.961 . S
C1495 C1492 1.539 . S
C1495 H1509 0.958 . S
C1495 H1510 0.961 . S
C1495 H1511 0.960 . S
H1496 C1480 0.931 . S
H1497 C1485 0.929 . S
H1498 C1486 0.960 . S
H1499 C1486 0.962 . S
H1500 C1486 0.960 . S
H1501 C1487 0.961 . S
H1502 C1487 0.961 . S
H1503 C1487 0.961 . S
H1504 C1488 0.931 . S
H1505 C1493 0.930 . S
H1506 C1494 0.956 . S
H1507 C1494 0.961 . S
H1508 C1494 0.961 . S
H1509 C1495 0.958 . S
H1510 C1495 0.961 . S
H1511 C1495 0.960 . S
C1512 C1513 1.391 . S
C1512 C1514 1.394 . S
C1512 H1528 0.931 . S
C1513 C1512 1.391 . S
C1513 C1517 1.376 . S
C1514 C1512 1.394 . S
C1514 C1515 1.369 . S
C1514 C1518 1.531 . S
C1515 C1514 1.369 . S
C1515 C1516 1.410 . S
C1515 C1523 1.503 . S
C1516 C1515 1.410 . S
C1516 C1517 1.392 . S
C1516 C1519 1.511 . S
C1517 C1513 1.376 . S
C1517 C1516 1.392 . S
C1517 H1529 0.929 . S
C1518 C1514 1.531 . S
C1518 H1530 0.960 . S
C1518 H1531 0.962 . S
C1518 H1532 0.960 . S
C1519 C1516 1.511 . S
C1519 H1533 0.961 . S
C1519 H1534 0.961 . S
C1519 H1535 0.961 . S
C1520 C1521 1.370 . S
C1520 C1522 1.363 . S
C1520 H1536 0.931 . S
C1521 C1520 1.370 . S
C1521 C1525 1.408 . S
C1522 C1520 1.363 . S
C1522 C1523 1.370 . S
C1522 C1526 1.524 . S
C1523 C1515 1.503 . S
C1523 C1522 1.370 . S
C1523 C1524 1.403 . S
C1524 C1523 1.403 . S
C1524 C1525 1.404 . S
C1524 C1527 1.539 . S
C1525 C1521 1.408 . S
C1525 C1524 1.404 . S
C1525 H1537 0.930 . S
C1526 C1522 1.524 . S
C1526 H1538 0.956 . S
C1526 H1539 0.961 . S
C1526 H1540 0.961 . S
C1527 C1524 1.539 . S
C1527 H1541 0.958 . S
C1527 H1542 0.961 . S
C1527 H1543 0.960 . S
H1528 C1512 0.931 . S
H1529 C1517 0.929 . S
H1530 C1518 0.960 . S
H1531 C1518 0.962 . S
H1532 C1518 0.960 . S
H1533 C1519 0.961 . S
H1534 C1519 0.961 . S
H1535 C1519 0.961 . S
H1536 C1520 0.931 . S
H1537 C1525 0.930 . S
H1538 C1526 0.956 . S
H1539 C1526 0.961 . S
H1540 C1526 0.961 . S
H1541 C1527 0.958 . S
H1542 C1527 0.961 . S
H1543 C1527 0.960 . S
C1544 C1545 1.391 . S
C1544 C1546 1.394 . S
C1544 H1560 0.931 . S
C1545 C1544 1.391 . S
C1545 C1549 1.376 . S
C1546 C1544 1.394 . S
C1546 C1547 1.369 . S
C1546 C1550 1.531 . S
C1547 C1546 1.369 . S
C1547 C1548 1.410 . S
C1547 C1555 1.503 . S
C1548 C1547 1.410 . S
C1548 C1549 1.392 . S
C1548 C1551 1.511 . S
C1549 C1545 1.376 . S
C1549 C1548 1.392 . S
C1549 H1561 0.929 . S
C1550 C1546 1.531 . S
C1550 H1562 0.960 . S
C1550 H1563 0.962 . S
C1550 H1564 0.960 . S
C1551 C1548 1.511 . S
C1551 H1565 0.961 . S
C1551 H1566 0.961 . S
C1551 H1567 0.961 . S
C1552 C1553 1.370 . S
C1552 C1554 1.363 . S
C1552 H1568 0.931 . S
C1553 C1552 1.370 . S
C1553 C1557 1.408 . S
C1554 C1552 1.363 . S
C1554 C1555 1.370 . S
C1554 C1558 1.524 . S
C1555 C1547 1.503 . S
C1555 C1554 1.370 . S
C1555 C1556 1.403 . S
C1556 C1555 1.403 . S
C1556 C1557 1.404 . S
C1556 C1559 1.539 . S
C1557 C1553 1.408 . S
C1557 C1556 1.404 . S
C1557 H1569 0.930 . S
C1558 C1554 1.524 . S
C1558 H1570 0.956 . S
C1558 H1571 0.961 . S
C1558 H1572 0.961 . S
C1559 C1556 1.539 . S
C1559 H1573 0.958 . S
C1559 H1574 0.961 . S
C1559 H1575 0.960 . S
H1560 C1544 0.931 . S
H1561 C1549 0.929 . S
H1562 C1550 0.960 . S
H1563 C1550 0.962 . S
H1564 C1550 0.960 . S
H1565 C1551 0.961 . S
H1566 C1551 0.961 . S
H1567 C1551 0.961 . S
H1568 C1552 0.931 . S
H1569 C1557 0.930 . S
H1570 C1558 0.956 . S
H1571 C1558 0.961 . S
H1572 C1558 0.961 . S
H1573 C1559 0.958 . S
H1574 C1559 0.961 . S
H1575 C1559 0.960 . S
C1576 C1577 1.391 . S
C1576 C1578 1.394 . S
C1576 H1592 0.931 . S
C1577 C1576 1.391 . S
C1577 C1581 1.376 . S
C1578 C1576 1.394 . S
C1578 C1579 1.369 . S
C1578 C1582 1.531 . S
C1579 C1578 1.369 . S
C1579 C1580 1.410 . S
C1579 C1587 1.503 . S
C1580 C1579 1.410 . S
C1580 C1581 1.392 . S
C1580 C1583 1.511 . S
C1581 C1577 1.376 . S
C1581 C1580 1.392 . S
C1581 H1593 0.929 . S
C1582 C1578 1.531 . S
C1582 H1594 0.960 . S
C1582 H1595 0.962 . S
C1582 H1596 0.960 . S
C1583 C1580 1.511 . S
C1583 H1597 0.961 . S
C1583 H1598 0.961 . S
C1583 H1599 0.961 . S
C1584 C1585 1.370 . S
C1584 C1586 1.363 . S
C1584 H1600 0.931 . S
C1585 C1584 1.370 . S
C1585 C1589 1.408 . S
C1586 C1584 1.363 . S
C1586 C1587 1.370 . S
C1586 C1590 1.524 . S
C1587 C1579 1.503 . S
C1587 C1586 1.370 . S
C1587 C1588 1.403 . S
C1588 C1587 1.403 . S
C1588 C1589 1.404 . S
C1588 C1591 1.539 . S
C1589 C1585 1.408 . S
C1589 C1588 1.404 . S
C1589 H1601 0.930 . S
C1590 C1586 1.524 . S
C1590 H1602 0.956 . S
C1590 H1603 0.961 . S
C1590 H1604 0.961 . S
C1591 C1588 1.539 . S
C1591 H1605 0.958 . S
C1591 H1606 0.961 . S
C1591 H1607 0.960 . S
H1592 C1576 0.931 . S
H1593 C1581 0.929 . S
H1594 C1582 0.960 . S
H1595 C1582 0.962 . S
H1596 C1582 0.960 . S
H1597 C1583 0.961 . S
H1598 C1583 0.961 . S
H1599 C1583 0.961 . S
H1600 C1584 0.931 . S
H1601 C1589 0.930 . S
H1602 C1590 0.956 . S
H1603 C1590 0.961 . S
H1604 C1590 0.961 . S
H1605 C1591 0.958 . S
H1606 C1591 0.961 . S
H1607 C1591 0.960 . S
C1608 C1609 1.391 . S
C1608 C1610 1.394 . S
C1608 H1624 0.931 . S
C1609 C1608 1.391 . S
C1609 C1613 1.376 . S
C1610 C1608 1.394 . S
C1610 C1611 1.369 . S
C1610 C1614 1.531 . S
C1611 C1610 1.369 . S
C1611 C1612 1.410 . S
C1611 C1619 1.503 . S
C1612 C1611 1.410 . S
C1612 C1613 1.392 . S
C1612 C1615 1.511 . S
C1613 C1609 1.376 . S
C1613 C1612 1.392 . S
C1613 H1625 0.929 . S
C1614 C1610 1.531 . S
C1614 H1626 0.960 . S
C1614 H1627 0.962 . S
C1614 H1628 0.960 . S
C1615 C1612 1.511 . S
C1615 H1629 0.961 . S
C1615 H1630 0.961 . S
C1615 H1631 0.961 1_655 S
C1616 C1617 1.370 . S
C1616 C1618 1.363 . S
C1616 H1632 0.931 . S
C1617 C1616 1.370 . S
C1617 C1621 1.408 . S
C1618 C1616 1.363 . S
C1618 C1619 1.370 . S
C1618 C1622 1.524 . S
C1619 C1611 1.503 . S
C1619 C1618 1.370 . S
C1619 C1620 1.403 . S
C1620 C1619 1.403 . S
C1620 C1621 1.404 . S
C1620 C1623 1.539 . S
C1621 C1617 1.408 . S
C1621 C1620 1.404 . S
C1621 H1633 0.930 . S
C1622 C1618 1.524 . S
C1622 H1634 0.956 . S
C1622 H1635 0.961 . S
C1622 H1636 0.961 . S
C1623 C1620 1.539 . S
C1623 H1637 0.958 . S
C1623 H1638 0.961 . S
C1623 H1639 0.960 . S
H1624 C1608 0.931 . S
H1625 C1613 0.929 . S
H1626 C1614 0.960 . S
H1627 C1614 0.962 . S
H1628 C1614 0.960 . S
H1629 C1615 0.961 . S
H1630 C1615 0.961 . S
H1631 C1615 0.961 1_455 S
H1632 C1616 0.931 . S
H1633 C1621 0.930 . S
H1634 C1622 0.956 . S
H1635 C1622 0.961 . S
H1636 C1622 0.961 . S
H1637 C1623 0.958 . S
H1638 C1623 0.961 . S
H1639 C1623 0.960 . S
C1640 C1641 1.391 . S
C1640 C1642 1.394 . S
C1640 H1656 0.931 . S
C1641 C1640 1.391 . S
C1641 C1645 1.376 . S
C1642 C1640 1.394 . S
C1642 C1643 1.369 . S
C1642 C1646 1.531 . S
C1643 C1642 1.369 . S
C1643 C1644 1.410 . S
C1643 C1651 1.503 . S
C1644 C1643 1.410 . S
C1644 C1645 1.392 . S
C1644 C1647 1.511 . S
C1645 C1641 1.376 . S
C1645 C1644 1.392 . S
C1645 H1657 0.929 . S
C1646 C1642 1.531 . S
C1646 H1658 0.960 . S
C1646 H1659 0.962 . S
C1646 H1660 0.960 . S
C1647 C1644 1.511 . S
C1647 H1661 0.961 . S
C1647 H1662 0.961 . S
C1647 H1663 0.961 . S
C1648 C1649 1.370 1_565 S
C1648 C1650 1.363 . S
C1648 H1664 0.931 . S
C1649 C1648 1.370 1_545 S
C1649 C1653 1.408 . S
C1650 C1648 1.363 . S
C1650 C1651 1.370 . S
C1650 C1654 1.524 . S
C1651 C1643 1.503 . S
C1651 C1650 1.370 . S
C1651 C1652 1.403 . S
C1652 C1651 1.403 . S
C1652 C1653 1.404 1_565 S
C1652 C1655 1.550 . S
C1653 C1649 1.408 . S
C1653 C1652 1.404 1_545 S
C1653 H1665 0.930 . S
C1654 C1650 1.524 . S
C1654 H1666 0.956 . S
C1654 H1667 0.961 . S
C1654 H1668 0.961 . S
C1655 C1652 1.550 . S
C1655 H1669 0.956 1_565 S
C1655 H1670 0.934 1_565 S
C1655 H1671 0.979 . S
H1656 C1640 0.931 . S
H1657 C1645 0.929 . S
H1658 C1646 0.960 . S
H1659 C1646 0.962 . S
H1660 C1646 0.960 . S
H1661 C1647 0.961 . S
H1662 C1647 0.961 . S
H1663 C1647 0.961 . S
H1664 C1648 0.931 . S
H1665 C1653 0.930 . S
H1666 C1654 0.956 . S
H1667 C1654 0.961 . S
H1668 C1654 0.961 . S
H1669 C1655 0.956 1_545 S
H1670 C1655 0.934 1_545 S
H1671 C1655 0.979 . S
C1672 C1673 1.391 . S
C1672 C1674 1.394 . S
C1672 H1688 0.931 . S
C1673 C1672 1.391 . S
C1673 C1677 1.376 . S
C1674 C1672 1.394 . S
C1674 C1675 1.369 . S
C1674 C1678 1.531 . S
C1675 C1674 1.369 . S
C1675 C1676 1.410 . S
C1675 C1683 1.503 . S
C1676 C1675 1.410 . S
C1676 C1677 1.392 . S
C1676 C1679 1.511 . S
C1677 C1673 1.376 . S
C1677 C1676 1.392 . S
C1677 H1689 0.929 . S
C1678 C1674 1.531 . S
C1678 H1690 0.960 . S
C1678 H1691 0.962 . S
C1678 H1692 0.960 . S
C1679 C1676 1.511 . S
C1679 H1693 0.961 . S
C1679 H1694 0.961 . S
C1679 H1695 0.961 . S
C1680 C1681 1.370 . S
C1680 C1682 1.363 . S
C1680 H1696 0.931 . S
C1681 C1680 1.370 . S
C1681 C1685 1.408 . S
C1682 C1680 1.363 . S
C1682 C1683 1.370 . S
C1682 C1686 1.524 . S
C1683 C1675 1.503 . S
C1683 C1682 1.370 . S
C1683 C1684 1.403 . S
C1684 C1683 1.403 . S
C1684 C1685 1.404 . S
C1684 C1687 1.539 . S
C1685 C1681 1.408 . S
C1685 C1684 1.404 . S
C1685 H1697 0.930 . S
C1686 C1682 1.524 . S
C1686 H1698 0.956 . S
C1686 H1699 0.961 . S
C1686 H1700 0.961 . S
C1687 C1684 1.539 . S
C1687 H1701 0.958 . S
C1687 H1702 0.961 . S
C1687 H1703 0.960 . S
H1688 C1672 0.931 . S
H1689 C1677 0.929 . S
H1690 C1678 0.960 . S
H1691 C1678 0.962 . S
H1692 C1678 0.960 . S
H1693 C1679 0.961 . S
H1694 C1679 0.961 . S
H1695 C1679 0.961 . S
H1696 C1680 0.931 . S
H1697 C1685 0.930 . S
H1698 C1686 0.956 . S
H1699 C1686 0.961 . S
H1700 C1686 0.961 . S
H1701 C1687 0.958 . S
H1702 C1687 0.961 . S
H1703 C1687 0.960 . S
C1704 C1705 1.391 . S
C1704 C1706 1.408 . S
C1704 H1720 0.931 . S
C1705 C1704 1.391 . S
C1705 C1709 1.376 . S
C1706 C1704 1.408 . S
C1706 C1707 1.365 1_545 S
C1706 C1710 1.520 1_545 S
C1707 C1706 1.365 1_565 S
C1707 C1708 1.410 1_565 S
C1707 C1715 1.503 . S
C1708 C1707 1.410 1_545 S
C1708 C1709 1.392 . S
C1708 C1711 1.511 1_556 S
C1709 C1705 1.376 . S
C1709 C1708 1.392 . S
C1709 H1721 0.929 . S
C1710 C1706 1.520 1_565 S
C1710 H1722 0.960 . S
C1710 H1723 0.962 . S
C1710 H1724 0.960 . S
C1711 C1708 1.511 1_554 S
C1711 H1725 0.961 . S
C1711 H1726 0.961 . S
C1711 H1727 0.961 1_545 S
C1712 C1713 1.370 . S
C1712 C1714 1.363 . S
C1712 H1728 0.931 . S
C1713 C1712 1.370 . S
C1713 C1717 1.408 . S
C1714 C1712 1.363 . S
C1714 C1715 1.370 1_554 S
C1714 C1718 1.532 1_565 S
C1715 C1707 1.503 . S
C1715 C1714 1.370 1_556 S
C1715 C1716 1.403 . S
C1716 C1715 1.403 . S
C1716 C1717 1.404 1_556 S
C1716 C1719 1.539 . S
C1717 C1713 1.408 . S
C1717 C1716 1.404 1_554 S
C1717 H1729 0.930 . S
C1718 C1714 1.532 1_545 S
C1718 H1730 0.899 1_554 S
C1718 H1731 0.982 . S
C1718 H1732 0.993 . S
C1719 C1716 1.539 . S
C1719 H1733 0.958 . S
C1719 H1734 0.961 . S
C1719 H1735 0.960 . S
H1720 C1704 0.931 . S
H1721 C1709 0.929 . S
H1722 C1710 0.960 . S
H1723 C1710 0.962 . S
H1724 C1710 0.960 . S
H1725 C1711 0.961 . S
H1726 C1711 0.961 . S
H1727 C1711 0.961 1_565 S
H1728 C1712 0.931 . S
H1729 C1717 0.930 . S
H1730 C1718 0.899 1_556 S
H1731 C1718 0.982 . S
H1732 C1718 0.993 . S
H1733 C1719 0.958 . S
H1734 C1719 0.961 . S
H1735 C1719 0.960 . S
C1736 C1737 1.391 . S
C1736 C1738 1.394 . S
C1736 H1752 0.931 . S
C1737 C1736 1.391 . S
C1737 C1741 1.376 . S
C1738 C1736 1.394 . S
C1738 C1739 1.369 . S
C1738 C1742 1.531 . S
C1739 C1738 1.369 . S
C1739 C1740 1.410 . S
C1739 C1747 1.503 . S
C1740 C1739 1.410 . S
C1740 C1741 1.392 . S
C1740 C1743 1.511 . S
C1741 C1737 1.376 . S
C1741 C1740 1.392 . S
C1741 H1753 0.929 . S
C1742 C1738 1.531 . S
C1742 H1754 0.960 . S
C1742 H1755 0.962 . S
C1742 H1756 0.960 . S
C1743 C1740 1.511 . S
C1743 H1757 0.961 . S
C1743 H1758 0.961 . S
C1743 H1759 0.961 . S
C1744 C1745 1.370 . S
C1744 C1746 1.363 . S
C1744 H1760 0.931 . S
C1745 C1744 1.370 . S
C1745 C1749 1.408 . S
C1746 C1744 1.363 . S
C1746 C1747 1.370 . S
C1746 C1750 1.524 . S
C1747 C1739 1.503 . S
C1747 C1746 1.370 . S
C1747 C1748 1.403 . S
C1748 C1747 1.403 . S
C1748 C1749 1.404 . S
C1748 C1751 1.539 . S
C1749 C1745 1.408 . S
C1749 C1748 1.404 . S
C1749 H1761 0.930 . S
C1750 C1746 1.524 . S
C1750 H1762 0.956 . S
C1750 H1763 0.961 . S
C1750 H1764 0.961 . S
C1751 C1748 1.539 . S
C1751 H1765 0.958 . S
C1751 H1766 0.961 . S
C1751 H1767 0.960 . S
H1752 C1736 0.931 . S
H1753 C1741 0.929 . S
H1754 C1742 0.960 . S
H1755 C1742 0.962 . S
H1756 C1742 0.960 . S
H1757 C1743 0.961 . S
H1758 C1743 0.961 . S
H1759 C1743 0.961 . S
H1760 C1744 0.931 . S
H1761 C1749 0.930 . S
H1762 C1750 0.956 . S
H1763 C1750 0.961 . S
H1764 C1750 0.961 . S
H1765 C1751 0.958 . S
H1766 C1751 0.961 . S
H1767 C1751 0.960 . S
C1768 C1769 1.391 . S
C1768 C1770 1.394 . S
C1768 H1784 0.931 . S
C1769 C1768 1.391 . S
C1769 C1773 1.376 . S
C1770 C1768 1.394 . S
C1770 C1771 1.369 . S
C1770 C1774 1.531 . S
C1771 C1770 1.369 . S
C1771 C1772 1.410 . S
C1771 C1779 1.503 . S
C1772 C1771 1.410 . S
C1772 C1773 1.392 . S
C1772 C1775 1.511 . S
C1773 C1769 1.376 . S
C1773 C1772 1.392 . S
C1773 H1785 0.929 . S
C1774 C1770 1.531 . S
C1774 H1786 0.960 . S
C1774 H1787 0.962 . S
C1774 H1788 0.960 . S
C1775 C1772 1.511 . S
C1775 H1789 0.961 . S
C1775 H1790 0.961 . S
C1775 H1791 0.961 . S
C1776 C1777 1.370 . S
C1776 C1778 1.363 . S
C1776 H1792 0.931 . S
C1777 C1776 1.370 . S
C1777 C1781 1.408 . S
C1778 C1776 1.363 . S
C1778 C1779 1.370 . S
C1778 C1782 1.524 . S
C1779 C1771 1.503 . S
C1779 C1778 1.370 . S
C1779 C1780 1.403 . S
C1780 C1779 1.403 . S
C1780 C1781 1.404 . S
C1780 C1783 1.539 . S
C1781 C1777 1.408 . S
C1781 C1780 1.404 . S
C1781 H1793 0.930 . S
C1782 C1778 1.524 . S
C1782 H1794 0.956 . S
C1782 H1795 0.961 . S
C1782 H1796 0.961 . S
C1783 C1780 1.539 . S
C1783 H1797 0.958 . S
C1783 H1798 0.961 . S
C1783 H1799 0.960 . S
H1784 C1768 0.931 . S
H1785 C1773 0.929 . S
H1786 C1774 0.960 . S
H1787 C1774 0.962 . S
H1788 C1774 0.960 . S
H1789 C1775 0.961 . S
H1790 C1775 0.961 . S
H1791 C1775 0.961 . S
H1792 C1776 0.931 . S
H1793 C1781 0.930 . S
H1794 C1782 0.956 . S
H1795 C1782 0.961 . S
H1796 C1782 0.961 . S
H1797 C1783 0.958 . S
H1798 C1783 0.961 . S
H1799 C1783 0.960 . S
C1800 C1801 1.391 . S
C1800 C1802 1.394 . S
C1800 H1816 0.931 . S
C1801 C1800 1.391 . S
C1801 C1805 1.376 . S
C1802 C1800 1.394 . S
C1802 C1803 1.369 . S
C1802 C1806 1.531 . S
C1803 C1802 1.369 . S
C1803 C1804 1.410 . S
C1803 C1811 1.503 . S
C1804 C1803 1.410 . S
C1804 C1805 1.392 . S
C1804 C1807 1.511 . S
C1805 C1801 1.376 . S
C1805 C1804 1.392 . S
C1805 H1817 0.929 . S
C1806 C1802 1.531 . S
C1806 H1818 0.960 . S
C1806 H1819 0.962 . S
C1806 H1820 0.960 . S
C1807 C1804 1.511 . S
C1807 H1821 0.961 . S
C1807 H1822 0.961 . S
C1807 H1823 0.961 . S
C1808 C1809 1.370 . S
C1808 C1810 1.363 . S
C1808 H1824 0.931 . S
C1809 C1808 1.370 . S
C1809 C1813 1.408 . S
C1810 C1808 1.363 . S
C1810 C1811 1.370 . S
C1810 C1814 1.524 . S
C1811 C1803 1.503 . S
C1811 C1810 1.370 . S
C1811 C1812 1.403 . S
C1812 C1811 1.403 . S
C1812 C1813 1.404 . S
C1812 C1815 1.539 . S
C1813 C1809 1.408 . S
C1813 C1812 1.404 . S
C1813 H1825 0.930 . S
C1814 C1810 1.524 . S
C1814 H1826 0.956 . S
C1814 H1827 0.961 . S
C1814 H1828 0.961 . S
C1815 C1812 1.539 . S
C1815 H1829 0.958 . S
C1815 H1830 0.961 . S
C1815 H1831 0.960 . S
H1816 C1800 0.931 . S
H1817 C1805 0.929 . S
H1818 C1806 0.960 . S
H1819 C1806 0.962 . S
H1820 C1806 0.960 . S
H1821 C1807 0.961 . S
H1822 C1807 0.961 . S
H1823 C1807 0.961 . S
H1824 C1808 0.931 . S
H1825 C1813 0.930 . S
H1826 C1814 0.956 . S
H1827 C1814 0.961 . S
H1828 C1814 0.961 . S
H1829 C1815 0.958 . S
H1830 C1815 0.961 . S
H1831 C1815 0.960 . S
C1832 C1833 1.391 . S
C1832 C1834 1.394 1_565 S
C1832 H1848 0.931 . S
C1833 C1832 1.391 . S
C1833 C1837 1.376 1_565 S
C1834 C1832 1.394 1_545 S
C1834 C1835 1.369 . S
C1834 C1838 1.531 . S
C1835 C1834 1.369 . S
C1835 C1836 1.410 . S
C1835 C1843 1.503 . S
C1836 C1835 1.410 . S
C1836 C1837 1.392 . S
C1836 C1839 1.511 . S
C1837 C1833 1.376 1_545 S
C1837 C1836 1.392 . S
C1837 H1849 0.929 . S
C1838 C1834 1.531 . S
C1838 H1850 0.960 . S
C1838 H1851 0.962 . S
C1838 H1852 0.960 . S
C1839 C1836 1.511 . S
C1839 H1853 0.961 . S
C1839 H1854 0.961 . S
C1839 H1855 0.961 . S
C1840 C1841 1.370 . S
C1840 C1842 1.363 . S
C1840 H1856 0.931 . S
C1841 C1840 1.370 . S
C1841 C1845 1.408 . S
C1842 C1840 1.363 . S
C1842 C1843 1.370 . S
C1842 C1846 1.524 . S
C1843 C1835 1.503 . S
C1843 C1842 1.370 . S
C1843 C1844 1.403 . S
C1844 C1843 1.403 . S
C1844 C1845 1.404 . S
C1844 C1847 1.539 . S
C1845 C1841 1.408 . S
C1845 C1844 1.404 . S
C1845 H1857 0.930 . S
C1846 C1842 1.524 . S
C1846 H1858 0.956 . S
C1846 H1859 0.961 . S
C1846 H1860 0.961 . S
C1847 C1844 1.539 . S
C1847 H1861 0.958 . S
C1847 H1862 0.961 . S
C1847 H1863 0.960 . S
H1848 C1832 0.931 . S
H1849 C1837 0.929 . S
H1850 C1838 0.960 . S
H1851 C1838 0.962 . S
H1852 C1838 0.960 . S
H1853 C1839 0.961 . S
H1854 C1839 0.961 . S
H1855 C1839 0.961 . S
H1856 C1840 0.931 . S
H1857 C1845 0.930 . S
H1858 C1846 0.956 . S
H1859 C1846 0.961 . S
H1860 C1846 0.961 . S
H1861 C1847 0.958 . S
H1862 C1847 0.961 . S
H1863 C1847 0.960 . S
C1864 C1865 1.391 . S
C1864 C1866 1.394 . S
C1864 H1880 0.931 . S
C1865 C1864 1.391 . S
C1865 C1869 1.376 . S
C1866 C1864 1.394 . S
C1866 C1867 1.369 . S
C1866 C1870 1.531 . S
C1867 C1866 1.369 . S
C1867 C1868 1.410 . S
C1867 C1875 1.503 . S
C1868 C1867 1.410 . S
C1868 C1869 1.392 . S
C1868 C1871 1.511 . S
C1869 C1865 1.376 . S
C1869 C1868 1.392 . S
C1869 H1881 0.929 . S
C1870 C1866 1.531 . S
C1870 H1882 0.960 . S
C1870 H1883 0.962 . S
C1870 H1884 0.960 . S
C1871 C1868 1.511 . S
C1871 H1885 0.961 . S
C1871 H1886 0.961 . S
C1871 H1887 0.961 . S
C1872 C1873 1.370 . S
C1872 C1874 1.363 . S
C1872 H1888 0.931 . S
C1873 C1872 1.370 . S
C1873 C1877 1.408 . S
C1874 C1872 1.363 . S
C1874 C1875 1.370 . S
C1874 C1878 1.524 . S
C1875 C1867 1.503 . S
C1875 C1874 1.370 . S
C1875 C1876 1.403 . S
C1876 C1875 1.403 . S
C1876 C1877 1.404 . S
C1876 C1879 1.539 . S
C1877 C1873 1.408 . S
C1877 C1876 1.404 . S
C1877 H1889 0.930 . S
C1878 C1874 1.524 . S
C1878 H1890 0.956 . S
C1878 H1891 0.961 . S
C1878 H1892 0.961 . S
C1879 C1876 1.539 . S
C1879 H1893 0.958 . S
C1879 H1894 0.961 . S
C1879 H1895 0.960 . S
H1880 C1864 0.931 . S
H1881 C1869 0.929 . S
H1882 C1870 0.960 . S
H1883 C1870 0.962 . S
H1884 C1870 0.960 . S
H1885 C1871 0.961 . S
H1886 C1871 0.961 . S
H1887 C1871 0.961 . S
H1888 C1872 0.931 . S
H1889 C1877 0.930 . S
H1890 C1878 0.956 . S
H1891 C1878 0.961 . S
H1892 C1878 0.961 . S
H1893 C1879 0.958 . S
H1894 C1879 0.961 . S
H1895 C1879 0.960 . S
C1896 C1897 1.391 . S
C1896 C1898 1.394 . S
C1896 H1912 0.931 . S
C1897 C1896 1.391 . S
C1897 C1901 1.376 . S
C1898 C1896 1.394 . S
C1898 C1899 1.369 . S
C1898 C1902 1.531 . S
C1899 C1898 1.369 . S
C1899 C1900 1.410 . S
C1899 C1907 1.503 . S
C1900 C1899 1.410 . S
C1900 C1901 1.392 . S
C1900 C1903 1.511 . S
C1901 C1897 1.376 . S
C1901 C1900 1.392 . S
C1901 H1913 0.929 . S
C1902 C1898 1.531 . S
C1902 H1914 0.960 . S
C1902 H1915 0.962 . S
C1902 H1916 0.960 . S
C1903 C1900 1.511 . S
C1903 H1917 0.961 . S
C1903 H1918 0.961 . S
C1903 H1919 0.961 . S
C1904 C1905 1.370 . S
C1904 C1906 1.363 . S
C1904 H1920 0.931 . S
C1905 C1904 1.370 . S
C1905 C1909 1.408 . S
C1906 C1904 1.363 . S
C1906 C1907 1.370 . S
C1906 C1910 1.524 . S
C1907 C1899 1.503 . S
C1907 C1906 1.370 . S
C1907 C1908 1.403 . S
C1908 C1907 1.403 . S
C1908 C1909 1.404 . S
C1908 C1911 1.539 . S
C1909 C1905 1.408 . S
C1909 C1908 1.404 . S
C1909 H1921 0.930 . S
C1910 C1906 1.524 . S
C1910 H1922 0.956 . S
C1910 H1923 0.961 . S
C1910 H1924 0.961 . S
C1911 C1908 1.539 . S
C1911 H1925 0.958 . S
C1911 H1926 0.961 . S
C1911 H1927 0.960 . S
H1912 C1896 0.931 . S
H1913 C1901 0.929 . S
H1914 C1902 0.960 . S
H1915 C1902 0.962 . S
H1916 C1902 0.960 . S
H1917 C1903 0.961 . S
H1918 C1903 0.961 . S
H1919 C1903 0.961 . S
H1920 C1904 0.931 . S
H1921 C1909 0.930 . S
H1922 C1910 0.956 . S
H1923 C1910 0.961 . S
H1924 C1910 0.961 . S
H1925 C1911 0.958 . S
H1926 C1911 0.961 . S
H1927 C1911 0.960 . S
C1928 C1929 1.391 . S
C1928 C1930 1.394 . S
C1928 H1944 0.931 . S
C1929 C1928 1.391 . S
C1929 C1933 1.376 . S
C1930 C1928 1.394 . S
C1930 C1931 1.369 . S
C1930 C1934 1.531 . S
C1931 C1930 1.369 . S
C1931 C1932 1.410 . S
C1931 C1939 1.503 . S
C1932 C1931 1.410 . S
C1932 C1933 1.392 . S
C1932 C1935 1.511 . S
C1933 C1929 1.376 . S
C1933 C1932 1.392 . S
C1933 H1945 0.929 . S
C1934 C1930 1.531 . S
C1934 H1946 0.960 . S
C1934 H1947 0.962 . S
C1934 H1948 0.960 . S
C1935 C1932 1.511 . S
C1935 H1949 0.961 . S
C1935 H1950 0.961 . S
C1935 H1951 0.961 . S
C1936 C1937 1.370 . S
C1936 C1938 1.363 . S
C1936 H1952 0.931 . S
C1937 C1936 1.370 . S
C1937 C1941 1.408 . S
C1938 C1936 1.363 . S
C1938 C1939 1.370 . S
C1938 C1942 1.524 . S
C1939 C1931 1.503 . S
C1939 C1938 1.370 . S
C1939 C1940 1.403 . S
C1940 C1939 1.403 . S
C1940 C1941 1.404 . S
C1940 C1943 1.539 . S
C1941 C1937 1.408 . S
C1941 C1940 1.404 . S
C1941 H1953 0.930 . S
C1942 C1938 1.524 . S
C1942 H1954 0.956 . S
C1942 H1955 0.961 . S
C1942 H1956 0.961 . S
C1943 C1940 1.539 . S
C1943 H1957 0.958 . S
C1943 H1958 0.961 . S
C1943 H1959 0.960 . S
H1944 C1928 0.931 . S
H1945 C1933 0.929 . S
H1946 C1934 0.960 . S
H1947 C1934 0.962 . S
H1948 C1934 0.960 . S
H1949 C1935 0.961 . S
H1950 C1935 0.961 . S
H1951 C1935 0.961 . S
H1952 C1936 0.931 . S
H1953 C1941 0.930 . S
H1954 C1942 0.956 . S
H1955 C1942 0.961 . S
H1956 C1942 0.961 . S
H1957 C1943 0.958 . S
H1958 C1943 0.961 . S
H1959 C1943 0.960 . S
C1960 C1961 1.391 . S
C1960 C1962 1.394 . S
C1960 H1976 0.931 . S
C1961 C1960 1.391 . S
C1961 C1965 1.376 . S
C1962 C1960 1.394 . S
C1962 C1963 1.369 . S
C1962 C1966 1.531 . S
C1963 C1962 1.369 . S
C1963 C1964 1.410 . S
C1963 C1971 1.503 . S
C1964 C1963 1.410 . S
C1964 C1965 1.392 . S
C1964 C1967 1.511 . S
C1965 C1961 1.376 . S
C1965 C1964 1.392 . S
C1965 H1977 0.929 . S
C1966 C1962 1.531 . S
C1966 H1978 0.960 . S
C1966 H1979 0.962 . S
C1966 H1980 0.960 . S
C1967 C1964 1.511 . S
C1967 H1981 0.961 . S
C1967 H1982 0.961 . S
C1967 H1983 0.961 . S
C1968 C1969 1.370 . S
C1968 C1970 1.363 . S
C1968 H1984 0.931 . S
C1969 C1968 1.370 . S
C1969 C1973 1.408 . S
C1970 C1968 1.363 . S
C1970 C1971 1.370 . S
C1970 C1974 1.524 . S
C1971 C1963 1.503 . S
C1971 C1970 1.370 . S
C1971 C1972 1.403 . S
C1972 C1971 1.403 . S
C1972 C1973 1.404 . S
C1972 C1975 1.539 . S
C1973 C1969 1.408 . S
C1973 C1972 1.404 . S
C1973 H1985 0.930 . S
C1974 C1970 1.524 . S
C1974 H1986 0.956 . S
C1974 H1987 0.961 . S
C1974 H1988 0.961 . S
C1975 C1972 1.539 . S
C1975 H1989 0.958 . S
C1975 H1990 0.961 . S
C1975 H1991 0.960 . S
H1976 C1960 0.931 . S
H1977 C1965 0.929 . S
H1978 C1966 0.960 . S
H1979 C1966 0.962 . S
H1980 C1966 0.960 . S
H1981 C1967 0.961 . S
H1982 C1967 0.961 . S
H1983 C1967 0.961 . S
H1984 C1968 0.931 . S
H1985 C1973 0.930 . S
H1986 C1974 0.956 . S
H1987 C1974 0.961 . S
H1988 C1974 0.961 . S
H1989 C1975 0.958 . S
H1990 C1975 0.961 . S
H1991 C1975 0.960 . S
C1992 C1993 1.391 . S
C1992 C1994 1.394 . S
C1992 H2008 0.931 . S
C1993 C1992 1.391 . S
C1993 C1997 1.376 . S
C1994 C1992 1.394 . S
C1994 C1995 1.369 . S
C1994 C1998 1.531 . S
C1995 C1994 1.369 . S
C1995 C1996 1.410 . S
C1995 C2003 1.503 . S
C1996 C1995 1.410 . S
C1996 C1997 1.392 . S
C1996 C1999 1.511 . S
C1997 C1993 1.376 . S
C1997 C1996 1.392 . S
C1997 H2009 0.929 . S
C1998 C1994 1.531 . S
C1998 H2010 0.960 . S
C1998 H2011 0.962 . S
C1998 H2012 0.960 . S
C1999 C1996 1.511 . S
C1999 H2013 0.961 . S
C1999 H2014 0.961 . S
C1999 H2015 0.961 . S
C2000 C2001 1.370 . S
C2000 C2002 1.363 . S
C2000 H2016 0.931 . S
C2001 C2000 1.370 . S
C2001 C2005 1.408 . S
C2002 C2000 1.363 . S
C2002 C2003 1.370 . S
C2002 C2006 1.524 . S
C2003 C1995 1.503 . S
C2003 C2002 1.370 . S
C2003 C2004 1.403 . S
C2004 C2003 1.403 . S
C2004 C2005 1.404 . S
C2004 C2007 1.539 . S
C2005 C2001 1.408 . S
C2005 C2004 1.404 . S
C2005 H2017 0.930 . S
C2006 C2002 1.524 . S
C2006 H2018 0.956 . S
C2006 H2019 0.961 . S
C2006 H2020 0.961 . S
C2007 C2004 1.539 . S
C2007 H2021 0.958 . S
C2007 H2022 0.961 . S
C2007 H2023 0.960 . S
H2008 C1992 0.931 . S
H2009 C1997 0.929 . S
H2010 C1998 0.960 . S
H2011 C1998 0.962 . S
H2012 C1998 0.960 . S
H2013 C1999 0.961 . S
H2014 C1999 0.961 . S
H2015 C1999 0.961 . S
H2016 C2000 0.931 . S
H2017 C2005 0.930 . S
H2018 C2006 0.956 . S
H2019 C2006 0.961 . S
H2020 C2006 0.961 . S
H2021 C2007 0.958 . S
H2022 C2007 0.961 . S
H2023 C2007 0.960 . S
C2024 C2025 1.391 . S
C2024 C2026 1.394 . S
C2024 H2040 0.931 . S
C2025 C2024 1.391 . S
C2025 C2029 1.376 . S
C2026 C2024 1.394 . S
C2026 C2027 1.369 . S
C2026 C2030 1.531 . S
C2027 C2026 1.369 . S
C2027 C2028 1.410 . S
C2027 C2035 1.503 . S
C2028 C2027 1.410 . S
C2028 C2029 1.392 . S
C2028 C2031 1.511 . S
C2029 C2025 1.376 . S
C2029 C2028 1.392 . S
C2029 H2041 0.929 . S
C2030 C2026 1.531 . S
C2030 H2042 0.960 . S
C2030 H2043 0.962 . S
C2030 H2044 0.960 . S
C2031 C2028 1.511 . S
C2031 H2045 0.961 . S
C2031 H2046 0.961 . S
C2031 H2047 0.961 . S
C2032 C2033 1.370 . S
C2032 C2034 1.363 . S
C2032 H2048 0.931 . S
C2033 C2032 1.370 . S
C2033 C2037 1.408 . S
C2034 C2032 1.363 . S
C2034 C2035 1.370 . S
C2034 C2038 1.524 . S
C2035 C2027 1.503 . S
C2035 C2034 1.370 . S
C2035 C2036 1.403 . S
C2036 C2035 1.403 . S
C2036 C2037 1.404 . S
C2036 C2039 1.539 . S
C2037 C2033 1.408 . S
C2037 C2036 1.404 . S
C2037 H2049 0.930 . S
C2038 C2034 1.524 . S
C2038 H2050 0.956 . S
C2038 H2051 0.961 . S
C2038 H2052 0.961 . S
C2039 C2036 1.539 . S
C2039 H2053 0.958 . S
C2039 H2054 0.961 . S
C2039 H2055 0.960 . S
H2040 C2024 0.931 . S
H2041 C2029 0.929 . S
H2042 C2030 0.960 . S
H2043 C2030 0.962 . S
H2044 C2030 0.960 . S
H2045 C2031 0.961 . S
H2046 C2031 0.961 . S
H2047 C2031 0.961 . S
H2048 C2032 0.931 . S
H2049 C2037 0.930 . S
H2050 C2038 0.956 . S
H2051 C2038 0.961 . S
H2052 C2038 0.961 . S
H2053 C2039 0.958 . S
H2054 C2039 0.961 . S
H2055 C2039 0.960 . S
C2056 C2057 1.391 . S
C2056 C2058 1.394 . S
C2056 H2072 0.931 . S
C2057 C2056 1.391 . S
C2057 C2061 1.376 . S
C2058 C2056 1.394 . S
C2058 C2059 1.369 1_455 S
C2058 C2062 1.531 . S
C2059 C2058 1.369 1_655 S
C2059 C2060 1.417 . S
C2059 C2067 1.503 . S
C2060 C2059 1.417 . S
C2060 C2061 1.366 1_655 S
C2060 C2063 1.530 . S
C2061 C2057 1.376 . S
C2061 C2060 1.366 1_455 S
C2061 H2073 0.929 . S
C2062 C2058 1.531 . S
C2062 H2074 0.960 1_455 S
C2062 H2075 0.962 . S
C2062 H2076 0.960 . S
C2063 C2060 1.530 . S
C2063 H2077 0.961 . S
C2063 H2078 0.961 . S
C2063 H2079 0.961 . S
C2064 C2065 1.370 . S
C2064 C2066 1.363 . S
C2064 H2080 0.931 . S
C2065 C2064 1.370 . S
C2065 C2069 1.408 . S
C2066 C2064 1.363 . S
C2066 C2067 1.370 . S
C2066 C2070 1.524 . S
C2067 C2059 1.503 . S
C2067 C2066 1.370 . S
C2067 C2068 1.403 . S
C2068 C2067 1.403 . S
C2068 C2069 1.404 . S
C2068 C2071 1.539 . S
C2069 C2065 1.408 . S
C2069 C2068 1.404 . S
C2069 H2081 0.930 . S
C2070 C2066 1.524 . S
C2070 H2082 0.956 1_655 S
C2070 H2083 0.961 1_655 S
C2070 H2084 0.961 . S
C2071 C2068 1.539 . S
C2071 H2085 0.958 . S
C2071 H2086 0.961 . S
C2071 H2087 0.960 . S
H2072 C2056 0.931 . S
H2073 C2061 0.929 . S
H2074 C2062 0.960 1_655 S
H2075 C2062 0.962 . S
H2076 C2062 0.960 . S
H2077 C2063 0.961 . S
H2078 C2063 0.961 . S
H2079 C2063 0.961 . S
H2080 C2064 0.931 . S
H2081 C2069 0.930 . S
H2082 C2070 0.956 1_455 S
H2083 C2070 0.961 1_455 S
H2084 C2070 0.961 . S
H2085 C2071 0.958 . S
H2086 C2071 0.961 . S
H2087 C2071 0.960 . S
C2088 C2089 1.391 . S
C2088 C2090 1.394 . S
C2088 H2104 0.931 . S
C2089 C2088 1.391 . S
C2089 C2093 1.376 . S
C2090 C2088 1.394 . S
C2090 C2091 1.369 . S
C2090 C2094 1.531 . S
C2091 C2090 1.369 . S
C2091 C2092 1.410 . S
C2091 C2099 1.503 . S
C2092 C2091 1.410 . S
C2092 C2093 1.392 . S
C2092 C2095 1.511 . S
C2093 C2089 1.376 . S
C2093 C2092 1.392 . S
C2093 H2105 0.929 . S
C2094 C2090 1.531 . S
C2094 H2106 0.960 . S
C2094 H2107 0.962 . S
C2094 H2108 0.960 . S
C2095 C2092 1.511 . S
C2095 H2109 0.961 . S
C2095 H2110 0.961 . S
C2095 H2111 0.961 . S
C2096 C2097 1.370 . S
C2096 C2098 1.363 . S
C2096 H2112 0.931 . S
C2097 C2096 1.370 . S
C2097 C2101 1.408 . S
C2098 C2096 1.363 . S
C2098 C2099 1.370 . S
C2098 C2102 1.524 . S
C2099 C2091 1.503 . S
C2099 C2098 1.370 . S
C2099 C2100 1.403 . S
C2100 C2099 1.403 . S
C2100 C2101 1.404 . S
C2100 C2103 1.539 . S
C2101 C2097 1.408 . S
C2101 C2100 1.404 . S
C2101 H2113 0.930 . S
C2102 C2098 1.524 . S
C2102 H2114 0.956 . S
C2102 H2115 0.961 . S
C2102 H2116 0.961 . S
C2103 C2100 1.539 . S
C2103 H2117 0.958 . S
C2103 H2118 0.961 . S
C2103 H2119 0.960 . S
H2104 C2088 0.931 . S
H2105 C2093 0.929 . S
H2106 C2094 0.960 . S
H2107 C2094 0.962 . S
H2108 C2094 0.960 . S
H2109 C2095 0.961 . S
H2110 C2095 0.961 . S
H2111 C2095 0.961 . S
H2112 C2096 0.931 . S
H2113 C2101 0.930 . S
H2114 C2102 0.956 . S
H2115 C2102 0.961 . S
H2116 C2102 0.961 . S
H2117 C2103 0.958 . S
H2118 C2103 0.961 . S
H2119 C2103 0.960 . S
C2120 C2121 1.391 . S
C2120 C2122 1.375 1_655 S
C2120 H2136 0.931 . S
C2121 C2120 1.391 . S
C2121 C2125 1.376 . S
C2122 C2120 1.375 1_455 S
C2122 C2123 1.366 1_455 S
C2122 C2126 1.553 . S
C2123 C2122 1.366 1_655 S
C2123 C2124 1.410 . S
C2123 C2131 1.503 1_655 S
C2124 C2123 1.410 . S
C2124 C2125 1.392 . S
C2124 C2127 1.511 . S
C2125 C2121 1.376 . S
C2125 C2124 1.392 . S
C2125 H2137 0.929 . S
C2126 C2122 1.553 . S
C2126 H2138 0.960 . S
C2126 H2139 0.962 . S
C2126 H2140 0.960 . S
C2127 C2124 1.511 . S
C2127 H2141 0.961 . S
C2127 H2142 0.961 . S
C2127 H2143 0.961 . S
C2128 C2129 1.370 . S
C2128 C2130 1.363 . S
C2128 H2144 0.931 . S
C2129 C2128 1.370 . S
C2129 C2133 1.408 . S
C2130 C2128 1.363 . S
C2130 C2131 1.370 . S
C2130 C2134 1.524 . S
C2131 C2123 1.503 1_455 S
C2131 C2130 1.370 . S
C2131 C2132 1.403 . S
C2132 C2131 1.403 . S
C2132 C2133 1.404 . S
C2132 C2135 1.539 . S
C2133 C2129 1.408 . S
C2133 C2132 1.404 . S
C2133 H2145 0.930 . S
C2134 C2130 1.524 . S
C2134 H2146 0.956 . S
C2134 H2147 0.961 1_455 S
C2134 H2148 0.961 . S
C2135 C2132 1.539 . S
C2135 H2149 0.958 . S
C2135 H2150 0.961 . S
C2135 H2151 0.960 . S
H2136 C2120 0.931 . S
H2137 C2125 0.929 . S
H2138 C2126 0.960 . S
H2139 C2126 0.962 . S
H2140 C2126 0.960 . S
H2141 C2127 0.961 . S
H2142 C2127 0.961 . S
H2143 C2127 0.961 . S
H2144 C2128 0.931 . S
H2145 C2133 0.930 . S
H2146 C2134 0.956 . S
H2147 C2134 0.961 1_655 S
H2148 C2134 0.961 . S
H2149 C2135 0.958 . S
H2150 C2135 0.961 . S
H2151 C2135 0.960 . S
C2152 C2153 1.391 . S
C2152 C2154 1.394 . S
C2152 H2168 0.931 . S
C2153 C2152 1.391 . S
C2153 C2157 1.376 . S
C2154 C2152 1.394 . S
C2154 C2155 1.369 . S
C2154 C2158 1.531 . S
C2155 C2154 1.369 . S
C2155 C2156 1.410 . S
C2155 C2163 1.503 . S
C2156 C2155 1.410 . S
C2156 C2157 1.392 . S
C2156 C2159 1.511 . S
C2157 C2153 1.376 . S
C2157 C2156 1.392 . S
C2157 H2169 0.929 . S
C2158 C2154 1.531 . S
C2158 H2170 0.960 . S
C2158 H2171 0.962 . S
C2158 H2172 0.960 . S
C2159 C2156 1.511 . S
C2159 H2173 0.961 . S
C2159 H2174 0.961 . S
C2159 H2175 0.961 . S
C2160 C2161 1.370 . S
C2160 C2162 1.363 . S
C2160 H2176 0.931 . S
C2161 C2160 1.370 . S
C2161 C2165 1.408 . S
C2162 C2160 1.363 . S
C2162 C2163 1.370 . S
C2162 C2166 1.524 . S
C2163 C2155 1.503 . S
C2163 C2162 1.370 . S
C2163 C2164 1.403 . S
C2164 C2163 1.403 . S
C2164 C2165 1.404 . S
C2164 C2167 1.539 . S
C2165 C2161 1.408 . S
C2165 C2164 1.404 . S
C2165 H2177 0.930 . S
C2166 C2162 1.524 . S
C2166 H2178 0.956 . S
C2166 H2179 0.961 . S
C2166 H2180 0.961 . S
C2167 C2164 1.539 . S
C2167 H2181 0.958 . S
C2167 H2182 0.961 . S
C2167 H2183 0.960 . S
H2168 C2152 0.931 . S
H2169 C2157 0.929 . S
H2170 C2158 0.960 . S
H2171 C2158 0.962 . S
H2172 C2158 0.960 . S
H2173 C2159 0.961 . S
H2174 C2159 0.961 . S
H2175 C2159 0.961 . S
H2176 C2160 0.931 . S
H2177 C2165 0.930 . S
H2178 C2166 0.956 . S
H2179 C2166 0.961 . S
H2180 C2166 0.961 . S
H2181 C2167 0.958 . S
H2182 C2167 0.961 . S
H2183 C2167 0.960 . S
C2184 C2185 1.391 . S
C2184 C2186 1.394 . S
C2184 H2200 0.931 . S
C2185 C2184 1.391 . S
C2185 C2189 1.376 1_554 S
C2186 C2184 1.394 . S
C2186 C2187 1.369 1_554 S
C2186 C2190 1.531 . S
C2187 C2186 1.369 1_556 S
C2187 C2188 1.410 . S
C2187 C2195 1.503 . S
C2188 C2187 1.410 . S
C2188 C2189 1.392 . S
C2188 C2191 1.511 . S
C2189 C2185 1.376 1_556 S
C2189 C2188 1.392 . S
C2189 H2201 0.929 . S
C2190 C2186 1.531 . S
C2190 H2202 0.952 1_554 S
C2190 H2203 0.962 . S
C2190 H2204 0.960 . S
C2191 C2188 1.511 . S
C2191 H2205 0.961 . S
C2191 H2206 0.961 . S
C2191 H2207 0.961 . S
C2192 C2193 1.370 . S
C2192 C2194 1.363 . S
C2192 H2208 0.931 . S
C2193 C2192 1.370 . S
C2193 C2197 1.408 . S
C2194 C2192 1.363 . S
C2194 C2195 1.370 . S
C2194 C2198 1.524 . S
C2195 C2187 1.503 . S
C2195 C2194 1.370 . S
C2195 C2196 1.403 . S
C2196 C2195 1.403 . S
C2196 C2197 1.404 . S
C2196 C2199 1.539 . S
C2197 C2193 1.408 . S
C2197 C2196 1.404 . S
C2197 H2209 0.930 . S
C2198 C2194 1.524 . S
C2198 H2210 0.956 . S
C2198 H2211 0.961 . S
C2198 H2212 0.961 . S
C2199 C2196 1.539 . S
C2199 H2213 0.958 . S
C2199 H2214 0.961 . S
C2199 H2215 0.960 . S
H2200 C2184 0.931 . S
H2201 C2189 0.929 . S
H2202 C2190 0.952 1_556 S
H2203 C2190 0.962 . S
H2204 C2190 0.960 . S
H2205 C2191 0.961 . S
H2206 C2191 0.961 . S
H2207 C2191 0.961 . S
H2208 C2192 0.931 . S
H2209 C2197 0.930 . S
H2210 C2198 0.956 . S
H2211 C2198 0.961 . S
H2212 C2198 0.961 . S
H2213 C2199 0.958 . S
H2214 C2199 0.961 . S
H2215 C2199 0.960 . S
C2216 C2217 1.391 . S
C2216 C2218 1.394 . S
C2216 H2232 0.931 . S
C2217 C2216 1.391 . S
C2217 C2221 1.376 . S
C2218 C2216 1.394 . S
C2218 C2219 1.369 . S
C2218 C2222 1.531 . S
C2219 C2218 1.369 . S
C2219 C2220 1.410 . S
C2219 C2227 1.503 . S
C2220 C2219 1.410 . S
C2220 C2221 1.392 . S
C2220 C2223 1.511 . S
C2221 C2217 1.376 . S
C2221 C2220 1.392 . S
C2221 H2233 0.929 . S
C2222 C2218 1.531 . S
C2222 H2234 0.960 . S
C2222 H2235 0.962 . S
C2222 H2236 0.960 . S
C2223 C2220 1.511 . S
C2223 H2237 0.961 . S
C2223 H2238 0.961 . S
C2223 H2239 0.961 . S
C2224 C2225 1.370 . S
C2224 C2226 1.363 . S
C2224 H2240 0.931 . S
C2225 C2224 1.370 . S
C2225 C2229 1.408 . S
C2226 C2224 1.363 . S
C2226 C2227 1.370 . S
C2226 C2230 1.524 . S
C2227 C2219 1.503 . S
C2227 C2226 1.370 . S
C2227 C2228 1.403 . S
C2228 C2227 1.403 . S
C2228 C2229 1.404 . S
C2228 C2231 1.539 . S
C2229 C2225 1.408 . S
C2229 C2228 1.404 . S
C2229 H2241 0.930 . S
C2230 C2226 1.524 . S
C2230 H2242 0.956 . S
C2230 H2243 0.961 . S
C2230 H2244 0.961 . S
C2231 C2228 1.539 . S
C2231 H2245 0.958 . S
C2231 H2246 0.961 . S
C2231 H2247 0.960 . S
H2232 C2216 0.931 . S
H2233 C2221 0.929 . S
H2234 C2222 0.960 . S
H2235 C2222 0.962 . S
H2236 C2222 0.960 . S
H2237 C2223 0.961 . S
H2238 C2223 0.961 . S
H2239 C2223 0.961 . S
H2240 C2224 0.931 . S
H2241 C2229 0.930 . S
H2242 C2230 0.956 . S
H2243 C2230 0.961 . S
H2244 C2230 0.961 . S
H2245 C2231 0.958 . S
H2246 C2231 0.961 . S
H2247 C2231 0.960 . S
C2248 C2249 1.391 . S
C2248 C2250 1.394 . S
C2248 H2264 0.931 . S
C2249 C2248 1.391 . S
C2249 C2253 1.376 . S
C2250 C2248 1.394 . S
C2250 C2251 1.369 . S
C2250 C2254 1.531 1_554 S
C2251 C2250 1.369 . S
C2251 C2252 1.410 . S
C2251 C2259 1.503 1_554 S
C2252 C2251 1.410 . S
C2252 C2253 1.392 . S
C2252 C2255 1.511 . S
C2253 C2249 1.376 . S
C2253 C2252 1.392 . S
C2253 H2265 0.929 . S
C2254 C2250 1.531 1_556 S
C2254 H2266 0.960 . S
C2254 H2267 0.962 . S
C2254 H2268 0.960 . S
C2255 C2252 1.511 . S
C2255 H2269 0.961 . S
C2255 H2270 0.961 . S
C2255 H2271 0.961 . S
C2256 C2257 1.370 . S
C2256 C2258 1.363 . S
C2256 H2272 0.931 . S
C2257 C2256 1.370 . S
C2257 C2261 1.408 . S
C2258 C2256 1.363 . S
C2258 C2259 1.370 . S
C2258 C2262 1.524 . S
C2259 C2251 1.503 1_556 S
C2259 C2258 1.370 . S
C2259 C2260 1.403 . S
C2260 C2259 1.403 . S
C2260 C2261 1.404 . S
C2260 C2263 1.539 . S
C2261 C2257 1.408 . S
C2261 C2260 1.404 . S
C2261 H2273 0.930 . S
C2262 C2258 1.524 . S
C2262 H2274 0.956 . S
C2262 H2275 0.961 . S
C2262 H2276 0.961 . S
C2263 C2260 1.539 . S
C2263 H2277 0.958 . S
C2263 H2278 0.961 . S
C2263 H2279 0.960 1_556 S
H2264 C2248 0.931 . S
H2265 C2253 0.929 . S
H2266 C2254 0.960 . S
H2267 C2254 0.962 . S
H2268 C2254 0.960 . S
H2269 C2255 0.961 . S
H2270 C2255 0.961 . S
H2271 C2255 0.961 . S
H2272 C2256 0.931 . S
H2273 C2261 0.930 . S
H2274 C2262 0.956 . S
H2275 C2262 0.961 . S
H2276 C2262 0.961 . S
H2277 C2263 0.958 . S
H2278 C2263 0.961 . S
H2279 C2263 0.960 1_554 S
C2280 C2281 1.391 . S
C2280 C2282 1.394 . S
C2280 H2296 0.931 . S
C2281 C2280 1.391 . S
C2281 C2285 1.376 . S
C2282 C2280 1.394 . S
C2282 C2283 1.369 . S
C2282 C2286 1.531 . S
C2283 C2282 1.369 . S
C2283 C2284 1.410 . S
C2283 C2291 1.503 . S
C2284 C2283 1.410 . S
C2284 C2285 1.392 . S
C2284 C2287 1.511 . S
C2285 C2281 1.376 . S
C2285 C2284 1.392 . S
C2285 H2297 0.929 . S
C2286 C2282 1.531 . S
C2286 H2298 0.960 . S
C2286 H2299 0.962 . S
C2286 H2300 0.960 . S
C2287 C2284 1.511 . S
C2287 H2301 0.961 . S
C2287 H2302 0.961 . S
C2287 H2303 0.961 . S
C2288 C2289 1.370 . S
C2288 C2290 1.363 . S
C2288 H2304 0.931 . S
C2289 C2288 1.370 . S
C2289 C2293 1.408 . S
C2290 C2288 1.363 . S
C2290 C2291 1.370 . S
C2290 C2294 1.524 . S
C2291 C2283 1.503 . S
C2291 C2290 1.370 . S
C2291 C2292 1.403 . S
C2292 C2291 1.403 . S
C2292 C2293 1.404 . S
C2292 C2295 1.539 . S
C2293 C2289 1.408 . S
C2293 C2292 1.404 . S
C2293 H2305 0.930 . S
C2294 C2290 1.524 . S
C2294 H2306 0.956 . S
C2294 H2307 0.961 . S
C2294 H2308 0.961 . S
C2295 C2292 1.539 . S
C2295 H2309 0.958 . S
C2295 H2310 0.961 . S
C2295 H2311 0.960 . S
H2296 C2280 0.931 . S
H2297 C2285 0.929 . S
H2298 C2286 0.960 . S
H2299 C2286 0.962 . S
H2300 C2286 0.960 . S
H2301 C2287 0.961 . S
H2302 C2287 0.961 . S
H2303 C2287 0.961 . S
H2304 C2288 0.931 . S
H2305 C2293 0.930 . S
H2306 C2294 0.956 . S
H2307 C2294 0.961 . S
H2308 C2294 0.961 . S
H2309 C2295 0.958 . S
H2310 C2295 0.961 . S
H2311 C2295 0.960 . S
C2312 C2313 1.391 . S
C2312 C2314 1.394 . S
C2312 H2328 0.931 . S
C2313 C2312 1.391 . S
C2313 C2317 1.376 . S
C2314 C2312 1.394 . S
C2314 C2315 1.369 1_556 S
C2314 C2318 1.531 . S
C2315 C2314 1.369 1_554 S
C2315 C2316 1.410 . S
C2315 C2323 1.503 . S
C2316 C2315 1.410 . S
C2316 C2317 1.392 1_554 S
C2316 C2319 1.511 . S
C2317 C2313 1.376 . S
C2317 C2316 1.392 1_556 S
C2317 H2329 0.929 . S
C2318 C2314 1.531 . S
C2318 H2330 0.960 1_556 S
C2318 H2331 0.962 . S
C2318 H2332 0.960 . S
C2319 C2316 1.511 . S
C2319 H2333 0.961 . S
C2319 H2334 0.961 . S
C2319 H2335 0.961 . S
C2320 C2321 1.370 . S
C2320 C2322 1.363 . S
C2320 H2336 0.931 . S
C2321 C2320 1.370 . S
C2321 C2325 1.408 . S
C2322 C2320 1.363 . S
C2322 C2323 1.370 . S
C2322 C2326 1.524 . S
C2323 C2315 1.503 . S
C2323 C2322 1.370 . S
C2323 C2324 1.403 . S
C2324 C2323 1.403 . S
C2324 C2325 1.404 . S
C2324 C2327 1.539 . S
C2325 C2321 1.408 . S
C2325 C2324 1.404 . S
C2325 H2337 0.930 . S
C2326 C2322 1.524 . S
C2326 H2338 0.956 . S
C2326 H2339 0.961 . S
C2326 H2340 0.961 . S
C2327 C2324 1.539 . S
C2327 H2341 0.958 . S
C2327 H2342 0.961 . S
C2327 H2343 0.960 . S
H2328 C2312 0.931 . S
H2329 C2317 0.929 . S
H2330 C2318 0.960 1_554 S
H2331 C2318 0.962 . S
H2332 C2318 0.960 . S
H2333 C2319 0.961 . S
H2334 C2319 0.961 . S
H2335 C2319 0.961 . S
H2336 C2320 0.931 . S
H2337 C2325 0.930 . S
H2338 C2326 0.956 . S
H2339 C2326 0.961 . S
H2340 C2326 0.961 . S
H2341 C2327 0.958 . S
H2342 C2327 0.961 . S
H2343 C2327 0.960 . S
C2344 C2345 1.391 . S
C2344 C2346 1.394 . S
C2344 H2360 0.931 . S
C2345 C2344 1.391 . S
C2345 C2349 1.376 . S
C2346 C2344 1.394 . S
C2346 C2347 1.369 . S
C2346 C2350 1.531 . S
C2347 C2346 1.369 . S
C2347 C2348 1.410 . S
C2347 C2355 1.503 . S
C2348 C2347 1.410 . S
C2348 C2349 1.392 . S
C2348 C2351 1.511 . S
C2349 C2345 1.376 . S
C2349 C2348 1.392 . S
C2349 H2361 0.929 . S
C2350 C2346 1.531 . S
C2350 H2362 0.960 . S
C2350 H2363 0.962 . S
C2350 H2364 0.960 . S
C2351 C2348 1.511 . S
C2351 H2365 0.961 . S
C2351 H2366 0.961 . S
C2351 H2367 0.961 . S
C2352 C2353 1.370 . S
C2352 C2354 1.363 . S
C2352 H2368 0.931 . S
C2353 C2352 1.370 . S
C2353 C2357 1.408 . S
C2354 C2352 1.363 . S
C2354 C2355 1.370 . S
C2354 C2358 1.524 . S
C2355 C2347 1.503 . S
C2355 C2354 1.370 . S
C2355 C2356 1.403 . S
C2356 C2355 1.403 . S
C2356 C2357 1.404 . S
C2356 C2359 1.539 . S
C2357 C2353 1.408 . S
C2357 C2356 1.404 . S
C2357 H2369 0.930 . S
C2358 C2354 1.524 . S
C2358 H2370 0.956 . S
C2358 H2371 0.961 . S
C2358 H2372 0.961 . S
C2359 C2356 1.539 . S
C2359 H2373 0.958 . S
C2359 H2374 0.961 . S
C2359 H2375 0.960 . S
H2360 C2344 0.931 . S
H2361 C2349 0.929 . S
H2362 C2350 0.960 . S
H2363 C2350 0.962 . S
H2364 C2350 0.960 . S
H2365 C2351 0.961 . S
H2366 C2351 0.961 . S
H2367 C2351 0.961 . S
H2368 C2352 0.931 . S
H2369 C2357 0.930 . S
H2370 C2358 0.956 . S
H2371 C2358 0.961 . S
H2372 C2358 0.961 . S
H2373 C2359 0.958 . S
H2374 C2359 0.961 . S
H2375 C2359 0.960 . S
C2376 C2377 1.391 . S
C2376 C2378 1.394 . S
C2376 H2392 0.931 . S
C2377 C2376 1.391 . S
C2377 C2381 1.376 . S
C2378 C2376 1.394 . S
C2378 C2379 1.369 . S
C2378 C2382 1.531 . S
C2379 C2378 1.369 . S
C2379 C2380 1.410 . S
C2379 C2387 1.503 . S
C2380 C2379 1.410 . S
C2380 C2381 1.392 . S
C2380 C2383 1.511 . S
C2381 C2377 1.376 . S
C2381 C2380 1.392 . S
C2381 H2393 0.929 1_554 S
C2382 C2378 1.531 . S
C2382 H2394 0.960 . S
C2382 H2395 0.962 . S
C2382 H2396 0.960 . S
C2383 C2380 1.511 . S
C2383 H2397 0.961 . S
C2383 H2398 0.961 . S
C2383 H2399 0.961 . S
C2384 C2385 1.370 . S
C2384 C2386 1.363 . S
C2384 H2400 0.931 . S
C2385 C2384 1.370 . S
C2385 C2389 1.408 . S
C2386 C2384 1.363 . S
C2386 C2387 1.370 . S
C2386 C2390 1.524 . S
C2387 C2379 1.503 . S
C2387 C2386 1.370 . S
C2387 C2388 1.403 . S
C2388 C2387 1.403 . S
C2388 C2389 1.404 . S
C2388 C2391 1.539 . S
C2389 C2385 1.408 . S
C2389 C2388 1.404 . S
C2389 H2401 0.930 . S
C2390 C2386 1.524 . S
C2390 H2402 0.956 . S
C2390 H2403 0.961 . S
C2390 H2404 0.961 . S
C2391 C2388 1.539 . S
C2391 H2405 0.958 . S
C2391 H2406 0.961 . S
C2391 H2407 0.960 . S
H2392 C2376 0.931 . S
H2393 C2381 0.929 1_556 S
H2394 C2382 0.960 . S
H2395 C2382 0.962 . S
H2396 C2382 0.960 . S
H2397 C2383 0.961 . S
H2398 C2383 0.961 . S
H2399 C2383 0.961 . S
H2400 C2384 0.931 . S
H2401 C2389 0.930 . S
H2402 C2390 0.956 . S
H2403 C2390 0.961 . S
H2404 C2390 0.961 . S
H2405 C2391 0.958 . S
H2406 C2391 0.961 . S
H2407 C2391 0.960 . S
C2408 C2409 1.391 . S
C2408 C2410 1.394 . S
C2408 H2424 0.931 . S
C2409 C2408 1.391 . S
C2409 C2413 1.376 . S
C2410 C2408 1.394 . S
C2410 C2411 1.369 . S
C2410 C2414 1.531 . S
C2411 C2410 1.369 . S
C2411 C2412 1.410 . S
C2411 C2419 1.503 . S
C2412 C2411 1.410 . S
C2412 C2413 1.392 . S
C2412 C2415 1.511 . S
C2413 C2409 1.376 . S
C2413 C2412 1.392 . S
C2413 H2425 0.929 . S
C2414 C2410 1.531 . S
C2414 H2426 0.960 . S
C2414 H2427 0.962 . S
C2414 H2428 0.960 . S
C2415 C2412 1.511 . S
C2415 H2429 0.961 . S
C2415 H2430 0.961 . S
C2415 H2431 0.961 . S
C2416 C2417 1.370 . S
C2416 C2418 1.363 . S
C2416 H2432 0.931 . S
C2417 C2416 1.370 . S
C2417 C2421 1.408 . S
C2418 C2416 1.363 . S
C2418 C2419 1.370 . S
C2418 C2422 1.524 . S
C2419 C2411 1.503 . S
C2419 C2418 1.370 . S
C2419 C2420 1.403 . S
C2420 C2419 1.403 . S
C2420 C2421 1.404 . S
C2420 C2423 1.539 . S
C2421 C2417 1.408 . S
C2421 C2420 1.404 . S
C2421 H2433 0.930 . S
C2422 C2418 1.524 . S
C2422 H2434 0.956 . S
C2422 H2435 0.961 . S
C2422 H2436 0.961 . S
C2423 C2420 1.539 . S
C2423 H2437 0.958 . S
C2423 H2438 0.961 . S
C2423 H2439 0.960 . S
H2424 C2408 0.931 . S
H2425 C2413 0.929 . S
H2426 C2414 0.960 . S
H2427 C2414 0.962 . S
H2428 C2414 0.960 . S
H2429 C2415 0.961 . S
H2430 C2415 0.961 . S
H2431 C2415 0.961 . S
H2432 C2416 0.931 . S
H2433 C2421 0.930 . S
H2434 C2422 0.956 . S
H2435 C2422 0.961 . S
H2436 C2422 0.961 . S
H2437 C2423 0.958 . S
H2438 C2423 0.961 . S
H2439 C2423 0.960 . S
C2440 C2441 1.391 . S
C2440 C2442 1.394 . S
C2440 H2456 0.931 . S
C2441 C2440 1.391 . S
C2441 C2445 1.376 . S
C2442 C2440 1.394 . S
C2442 C2443 1.369 . S
C2442 C2446 1.531 . S
C2443 C2442 1.369 . S
C2443 C2444 1.410 . S
C2443 C2451 1.503 . S
C2444 C2443 1.410 . S
C2444 C2445 1.392 . S
C2444 C2447 1.511 . S
C2445 C2441 1.376 . S
C2445 C2444 1.392 . S
C2445 H2457 0.929 . S
C2446 C2442 1.531 . S
C2446 H2458 0.960 . S
C2446 H2459 0.962 . S
C2446 H2460 0.960 . S
C2447 C2444 1.511 . S
C2447 H2461 0.961 . S
C2447 H2462 0.961 . S
C2447 H2463 0.961 . S
C2448 C2449 1.370 . S
C2448 C2450 1.363 . S
C2448 H2464 0.931 . S
C2449 C2448 1.370 . S
C2449 C2453 1.408 . S
C2450 C2448 1.363 . S
C2450 C2451 1.370 . S
C2450 C2454 1.524 . S
C2451 C2443 1.503 . S
C2451 C2450 1.370 . S
C2451 C2452 1.403 . S
C2452 C2451 1.403 . S
C2452 C2453 1.404 . S
C2452 C2455 1.539 . S
C2453 C2449 1.408 . S
C2453 C2452 1.404 . S
C2453 H2465 0.930 . S
C2454 C2450 1.524 . S
C2454 H2466 0.956 . S
C2454 H2467 0.961 . S
C2454 H2468 0.961 . S
C2455 C2452 1.539 . S
C2455 H2469 0.958 . S
C2455 H2470 0.961 . S
C2455 H2471 0.960 . S
H2456 C2440 0.931 . S
H2457 C2445 0.929 . S
H2458 C2446 0.960 . S
H2459 C2446 0.962 . S
H2460 C2446 0.960 . S
H2461 C2447 0.961 . S
H2462 C2447 0.961 . S
H2463 C2447 0.961 . S
H2464 C2448 0.931 . S
H2465 C2453 0.930 . S
H2466 C2454 0.956 . S
H2467 C2454 0.961 . S
H2468 C2454 0.961 . S
H2469 C2455 0.958 . S
H2470 C2455 0.961 . S
H2471 C2455 0.960 . S
C2472 C2473 1.391 . S
C2472 C2474 1.394 . S
C2472 H2488 0.931 . S
C2473 C2472 1.391 . S
C2473 C2477 1.376 . S
C2474 C2472 1.394 . S
C2474 C2475 1.369 . S
C2474 C2478 1.531 . S
C2475 C2474 1.369 . S
C2475 C2476 1.410 . S
C2475 C2483 1.503 . S
C2476 C2475 1.410 . S
C2476 C2477 1.392 . S
C2476 C2479 1.511 . S
C2477 C2473 1.376 . S
C2477 C2476 1.392 . S
C2477 H2489 0.929 . S
C2478 C2474 1.531 . S
C2478 H2490 0.960 . S
C2478 H2491 0.962 . S
C2478 H2492 0.960 . S
C2479 C2476 1.511 . S
C2479 H2493 0.961 . S
C2479 H2494 0.961 . S
C2479 H2495 0.961 . S
C2480 C2481 1.370 . S
C2480 C2482 1.363 . S
C2480 H2496 0.931 . S
C2481 C2480 1.370 . S
C2481 C2485 1.408 . S
C2482 C2480 1.363 . S
C2482 C2483 1.370 . S
C2482 C2486 1.524 . S
C2483 C2475 1.503 . S
C2483 C2482 1.370 . S
C2483 C2484 1.403 . S
C2484 C2483 1.403 . S
C2484 C2485 1.404 . S
C2484 C2487 1.539 . S
C2485 C2481 1.408 . S
C2485 C2484 1.404 . S
C2485 H2497 0.930 . S
C2486 C2482 1.524 . S
C2486 H2498 0.956 . S
C2486 H2499 0.961 . S
C2486 H2500 0.961 . S
C2487 C2484 1.539 . S
C2487 H2501 0.958 . S
C2487 H2502 0.961 . S
C2487 H2503 0.960 . S
H2488 C2472 0.931 . S
H2489 C2477 0.929 . S
H2490 C2478 0.960 . S
H2491 C2478 0.962 . S
H2492 C2478 0.960 . S
H2493 C2479 0.961 . S
H2494 C2479 0.961 . S
H2495 C2479 0.961 . S
H2496 C2480 0.931 . S
H2497 C2485 0.930 . S
H2498 C2486 0.956 . S
H2499 C2486 0.961 . S
H2500 C2486 0.961 . S
H2501 C2487 0.958 . S
H2502 C2487 0.961 . S
H2503 C2487 0.960 . S
C2504 C2505 1.391 . S
C2504 C2506 1.394 . S
C2504 H2520 0.931 . S
C2505 C2504 1.391 . S
C2505 C2509 1.376 . S
C2506 C2504 1.394 . S
C2506 C2507 1.369 . S
C2506 C2510 1.531 . S
C2507 C2506 1.369 . S
C2507 C2508 1.410 . S
C2507 C2515 1.503 . S
C2508 C2507 1.410 . S
C2508 C2509 1.392 . S
C2508 C2511 1.511 . S
C2509 C2505 1.376 . S
C2509 C2508 1.392 . S
C2509 H2521 0.929 . S
C2510 C2506 1.531 . S
C2510 H2522 0.960 . S
C2510 H2523 0.962 . S
C2510 H2524 0.960 . S
C2511 C2508 1.511 . S
C2511 H2525 0.961 . S
C2511 H2526 0.961 . S
C2511 H2527 0.961 . S
C2512 C2513 1.370 . S
C2512 C2514 1.363 . S
C2512 H2528 0.931 . S
C2513 C2512 1.370 . S
C2513 C2517 1.408 . S
C2514 C2512 1.363 . S
C2514 C2515 1.370 . S
C2514 C2518 1.524 . S
C2515 C2507 1.503 . S
C2515 C2514 1.370 . S
C2515 C2516 1.403 . S
C2516 C2515 1.403 . S
C2516 C2517 1.404 . S
C2516 C2519 1.539 . S
C2517 C2513 1.408 . S
C2517 C2516 1.404 . S
C2517 H2529 0.930 . S
C2518 C2514 1.524 . S
C2518 H2530 0.956 . S
C2518 H2531 0.961 . S
C2518 H2532 0.961 . S
C2519 C2516 1.539 . S
C2519 H2533 0.958 . S
C2519 H2534 0.961 . S
C2519 H2535 0.960 . S
H2520 C2504 0.931 . S
H2521 C2509 0.929 . S
H2522 C2510 0.960 . S
H2523 C2510 0.962 . S
H2524 C2510 0.960 . S
H2525 C2511 0.961 . S
H2526 C2511 0.961 . S
H2527 C2511 0.961 . S
H2528 C2512 0.931 . S
H2529 C2517 0.930 . S
H2530 C2518 0.956 . S
H2531 C2518 0.961 . S
H2532 C2518 0.961 . S
H2533 C2519 0.958 . S
H2534 C2519 0.961 . S
H2535 C2519 0.960 . S
C2536 C2537 1.391 . S
C2536 C2538 1.394 . S
C2536 H2552 0.931 . S
C2537 C2536 1.391 . S
C2537 C2541 1.376 . S
C2538 C2536 1.394 . S
C2538 C2539 1.369 . S
C2538 C2542 1.531 . S
C2539 C2538 1.369 . S
C2539 C2540 1.410 . S
C2539 C2547 1.503 . S
C2540 C2539 1.410 . S
C2540 C2541 1.392 . S
C2540 C2543 1.511 . S
C2541 C2537 1.376 . S
C2541 C2540 1.392 . S
C2541 H2553 0.929 . S
C2542 C2538 1.531 . S
C2542 H2554 0.960 . S
C2542 H2555 0.962 . S
C2542 H2556 0.960 . S
C2543 C2540 1.511 . S
C2543 H2557 0.961 . S
C2543 H2558 0.961 . S
C2543 H2559 0.961 . S
C2544 C2545 1.370 . S
C2544 C2546 1.363 . S
C2544 H2560 0.931 . S
C2545 C2544 1.370 . S
C2545 C2549 1.408 . S
C2546 C2544 1.363 . S
C2546 C2547 1.370 . S
C2546 C2550 1.524 . S
C2547 C2539 1.503 . S
C2547 C2546 1.370 . S
C2547 C2548 1.403 . S
C2548 C2547 1.403 . S
C2548 C2549 1.404 . S
C2548 C2551 1.539 . S
C2549 C2545 1.408 . S
C2549 C2548 1.404 . S
C2549 H2561 0.930 1_556 S
C2550 C2546 1.524 . S
C2550 H2562 0.956 . S
C2550 H2563 0.961 . S
C2550 H2564 0.961 . S
C2551 C2548 1.539 . S
C2551 H2565 0.958 1_556 S
C2551 H2566 0.961 1_556 S
C2551 H2567 0.960 . S
H2552 C2536 0.931 . S
H2553 C2541 0.929 . S
H2554 C2542 0.960 . S
H2555 C2542 0.962 . S
H2556 C2542 0.960 . S
H2557 C2543 0.961 . S
H2558 C2543 0.961 . S
H2559 C2543 0.961 . S
H2560 C2544 0.931 . S
H2561 C2549 0.930 1_554 S
H2562 C2550 0.956 . S
H2563 C2550 0.961 . S
H2564 C2550 0.961 . S
H2565 C2551 0.958 1_554 S
H2566 C2551 0.961 1_554 S
H2567 C2551 0.960 . S
C2568 C2569 1.391 . S
C2568 C2570 1.394 . S
C2568 H2584 0.931 . S
C2569 C2568 1.391 . S
C2569 C2573 1.376 . S
C2570 C2568 1.394 . S
C2570 C2571 1.369 . S
C2570 C2574 1.531 . S
C2571 C2570 1.369 . S
C2571 C2572 1.410 . S
C2571 C2579 1.503 . S
C2572 C2571 1.410 . S
C2572 C2573 1.392 . S
C2572 C2575 1.511 . S
C2573 C2569 1.376 . S
C2573 C2572 1.392 . S
C2573 H2585 0.929 . S
C2574 C2570 1.531 . S
C2574 H2586 0.960 . S
C2574 H2587 0.962 . S
C2574 H2588 0.960 . S
C2575 C2572 1.511 . S
C2575 H2589 0.961 . S
C2575 H2590 0.961 . S
C2575 H2591 0.961 . S
C2576 C2577 1.370 . S
C2576 C2578 1.363 . S
C2576 H2592 0.931 . S
C2577 C2576 1.370 . S
C2577 C2581 1.408 . S
C2578 C2576 1.363 . S
C2578 C2579 1.370 . S
C2578 C2582 1.524 . S
C2579 C2571 1.503 . S
C2579 C2578 1.370 . S
C2579 C2580 1.403 . S
C2580 C2579 1.403 . S
C2580 C2581 1.404 . S
C2580 C2583 1.539 . S
C2581 C2577 1.408 . S
C2581 C2580 1.404 . S
C2581 H2593 0.930 . S
C2582 C2578 1.524 . S
C2582 H2594 0.956 . S
C2582 H2595 0.961 . S
C2582 H2596 0.961 . S
C2583 C2580 1.539 . S
C2583 H2597 0.958 . S
C2583 H2598 0.961 . S
C2583 H2599 0.960 . S
H2584 C2568 0.931 . S
H2585 C2573 0.929 . S
H2586 C2574 0.960 . S
H2587 C2574 0.962 . S
H2588 C2574 0.960 . S
H2589 C2575 0.961 . S
H2590 C2575 0.961 . S
H2591 C2575 0.961 . S
H2592 C2576 0.931 . S
H2593 C2581 0.930 . S
H2594 C2582 0.956 . S
H2595 C2582 0.961 . S
H2596 C2582 0.961 . S
H2597 C2583 0.958 . S
H2598 C2583 0.961 . S
H2599 C2583 0.960 . S
C2600 C2601 1.391 . S
C2600 C2602 1.394 . S
C2600 H2616 0.931 . S
C2601 C2600 1.391 . S
C2601 C2605 1.376 . S
C2602 C2600 1.394 . S
C2602 C2603 1.369 . S
C2602 C2606 1.531 . S
C2603 C2602 1.369 . S
C2603 C2604 1.410 . S
C2603 C2611 1.503 . S
C2604 C2603 1.410 . S
C2604 C2605 1.392 . S
C2604 C2607 1.511 . S
C2605 C2601 1.376 . S
C2605 C2604 1.392 . S
C2605 H2617 0.929 . S
C2606 C2602 1.531 . S
C2606 H2618 0.960 . S
C2606 H2619 0.962 . S
C2606 H2620 0.960 . S
C2607 C2604 1.511 . S
C2607 H2621 0.961 . S
C2607 H2622 0.961 . S
C2607 H2623 0.961 . S
C2608 C2609 1.370 . S
C2608 C2610 1.363 . S
C2608 H2624 0.931 . S
C2609 C2608 1.370 . S
C2609 C2613 1.408 . S
C2610 C2608 1.363 . S
C2610 C2611 1.370 . S
C2610 C2614 1.524 . S
C2611 C2603 1.503 . S
C2611 C2610 1.370 . S
C2611 C2612 1.403 . S
C2612 C2611 1.403 . S
C2612 C2613 1.404 . S
C2612 C2615 1.539 . S
C2613 C2609 1.408 . S
C2613 C2612 1.404 . S
C2613 H2625 0.930 . S
C2614 C2610 1.524 . S
C2614 H2626 0.956 . S
C2614 H2627 0.961 . S
C2614 H2628 0.961 . S
C2615 C2612 1.539 . S
C2615 H2629 0.954 1_554 S
C2615 H2630 0.961 1_554 S
C2615 H2631 0.960 . S
H2616 C2600 0.931 . S
H2617 C2605 0.929 . S
H2618 C2606 0.960 . S
H2619 C2606 0.962 . S
H2620 C2606 0.960 . S
H2621 C2607 0.961 . S
H2622 C2607 0.961 . S
H2623 C2607 0.961 . S
H2624 C2608 0.931 . S
H2625 C2613 0.930 . S
H2626 C2614 0.956 . S
H2627 C2614 0.961 . S
H2628 C2614 0.961 . S
H2629 C2615 0.954 1_556 S
H2630 C2615 0.961 1_556 S
H2631 C2615 0.960 . S
C2632 C2633 1.391 . S
C2632 C2634 1.394 . S
C2632 H2648 0.931 . S
C2633 C2632 1.391 . S
C2633 C2637 1.376 . S
C2634 C2632 1.394 . S
C2634 C2635 1.369 . S
C2634 C2638 1.531 . S
C2635 C2634 1.369 . S
C2635 C2636 1.410 . S
C2635 C2643 1.503 . S
C2636 C2635 1.410 . S
C2636 C2637 1.392 . S
C2636 C2639 1.511 . S
C2637 C2633 1.376 . S
C2637 C2636 1.392 . S
C2637 H2649 0.929 . S
C2638 C2634 1.531 . S
C2638 H2650 0.960 . S
C2638 H2651 0.962 . S
C2638 H2652 0.960 . S
C2639 C2636 1.511 . S
C2639 H2653 0.961 . S
C2639 H2654 0.961 . S
C2639 H2655 0.961 . S
C2640 C2641 1.370 . S
C2640 C2642 1.363 1_565 S
C2640 H2656 0.931 . S
C2641 C2640 1.370 . S
C2641 C2645 1.408 . S
C2642 C2640 1.363 1_545 S
C2642 C2643 1.370 . S
C2642 C2646 1.524 . S
C2643 C2635 1.503 . S
C2643 C2642 1.370 . S
C2643 C2644 1.403 1_545 S
C2644 C2643 1.403 1_565 S
C2644 C2645 1.404 . S
C2644 C2647 1.539 . S
C2645 C2641 1.408 . S
C2645 C2644 1.404 . S
C2645 H2657 0.930 . S
C2646 C2642 1.524 . S
C2646 H2658 0.956 . S
C2646 H2659 0.961 . S
C2646 H2660 0.961 . S
C2647 C2644 1.539 . S
C2647 H2661 0.958 . S
C2647 H2662 0.961 . S
C2647 H2663 0.960 1_565 S
H2648 C2632 0.931 . S
H2649 C2637 0.929 . S
H2650 C2638 0.960 . S
H2651 C2638 0.962 . S
H2652 C2638 0.960 . S
H2653 C2639 0.961 . S
H2654 C2639 0.961 . S
H2655 C2639 0.961 . S
H2656 C2640 0.931 . S
H2657 C2645 0.930 . S
H2658 C2646 0.956 . S
H2659 C2646 0.961 . S
H2660 C2646 0.961 . S
H2661 C2647 0.958 . S
H2662 C2647 0.961 . S
H2663 C2647 0.960 1_545 S
C1137 C968 1.621 1_556 S
C1129 C331 1.561 . S
C1169 C983 1.727 . S
C1161 C380 1.726 . S
C1193 C421 1.669 . S
C1201 C996 1.697 . S
C1233 C1010 1.579 . S
C1225 C260 1.638 . S
C1265 C1022 1.642 . S
C1257 C620 1.669 . S
C1297 C1036 1.395 . S
C1289 C740 1.350 . S
C1321 C680 1.755 . S
C1329 C1050 1.746 . S
C1361 C1065 1.519 . S
C1353 C571 1.478 . S
C1385 C691 1.669 . S
C1393 C1081 1.667 . S
C1425 C1094 1.553 . S
C1417 C541 1.541 . S
C1449 C601 1.533 . S
C1457 C1079 1.565 . S
C1489 C1092 1.584 . S
C1481 C721 1.503 . S
C1513 C451 1.824 . S
C1521 C1108 1.836 . S
C1545 C241 1.647 . S
C1553 C1107 1.608 . S
C1577 C320 1.689 . S
C1585 C1106 1.698 . S
C1609 C391 1.553 . S
C1617 C1109 1.642 . S
C1641 C211 1.660 . S
C1649 C1011 1.688 . S
C1673 C841 1.458 . S
C1681 C1009 1.489 . S
C1713 C969 1.573 . S
C1705 C901 1.501 . S
C1745 C980 1.755 . S
C1737 C500 1.752 . S
C1769 C271 1.614 1_545 S
C1777 C1025 1.636 . S
C1809 C1066 1.888 . S
C1801 C661 1.876 . S
C1841 C1023 1.571 . S
C1833 C560 1.470 . S
C1873 C1051 1.564 . S
C1865 C751 1.522 . S
C1905 C1052 1.626 . S
C1897 C871 1.598 . S
C1929 C920 1.671 . S
C1937 C1067 1.746 . S
C1961 C481 1.672 . S
C1969 C1024 1.698 . S
C2001 C1038 1.578 . S
C1993 C800 1.595 . S
C2025 C200 1.662 . S
C2033 C994 1.650 . S
C2065 C1008 1.393 . S
C2057 C20 1.332 . S
C2097 C966 1.729 . S
C2089 C80 1.723 . S
C2129 C981 1.518 . S
C2121 C151 1.436 . S
C2153 C91 1.630 . S
C2161 C1095 1.675 . S
C2185 C121 1.546 . S
C2193 C1080 1.550 . S
C2217 C181 1.581 . S
C2225 C1093 1.544 . S
C2249 C1 1.437 . S
C2257 C1078 1.570 . S
C2289 C1122 1.839 . S
C2281 C511 1.816 . S
C2321 C1121 1.617 . S
C2313 C781 1.651 . S
C2353 C1120 1.698 . S
C2345 C860 1.691 . S
C2377 C931 1.552 1_554 S
C2385 C1123 1.642 . S
C2409 C631 1.673 . S
C2417 C1039 1.693 . S
C2449 C1037 1.480 . S
C2441 C301 1.484 . S
C2481 C1053 1.571 . S
C2473 C361 1.508 . S
C2513 C1064 1.760 . S
C2505 C440 1.740 . S
C2537 C811 1.623 . S
C2545 C997 1.624 . S
C2577 C982 1.887 . S
C2569 C61 1.847 . S
C2601 C140 1.480 . S
C2609 C995 1.552 . S
C2641 C967 1.557 . S
C2633 C31 1.473 . S
