# Generated by pormake.
# Topology tsx, (6,3)-cn, num edge types: 1
# Building blocks:
#     Node 0, Type 0, BuildingBlock: FUNLAD_clean_sbu_0, # of connection points: 6
#     Node 1, Type 0, BuildingBlock: FUNLAD_clean_sbu_0, # of connection points: 6
#     Node 2, Type 1, BuildingBlock: ESEHIV_clean_linker_0, # of connection points: 3
#     Node 3, Type 1, BuildingBlock: ESEHIV_clean_linker_0, # of connection points: 3
#     Node 4, Type 1, BuildingBlock: ESEHIV_clean_linker_0, # of connection points: 3
#     Node 5, Type 1, BuildingBlock: ESEHIV_clean_linker_0, # of connection points: 3
#     Edge 6, Type (0, 1), BuildingBlock: XIVTED_clean_linker_0, # of connection points: 2
#     Edge 7, Type (0, 1), BuildingBlock: XIVTED_clean_linker_0, # of connection points: 2
#     Edge 8, Type (0, 1), BuildingBlock: XIVTED_clean_linker_0, # of connection points: 2
#     Edge 9, Type (0, 1), BuildingBlock: XIVTED_clean_linker_0, # of connection points: 2
#     Edge 10, Type (0, 1), BuildingBlock: XIVTED_clean_linker_0, # of connection points: 2
#     Edge 11, Type (0, 1), BuildingBlock: XIVTED_clean_linker_0, # of connection points: 2
#     Edge 12, Type (0, 1), BuildingBlock: XIVTED_clean_linker_0, # of connection points: 2
#     Edge 13, Type (0, 1), BuildingBlock: XIVTED_clean_linker_0, # of connection points: 2
#     Edge 14, Type (0, 1), BuildingBlock: XIVTED_clean_linker_0, # of connection points: 2
#     Edge 15, Type (0, 1), BuildingBlock: XIVTED_clean_linker_0, # of connection points: 2
#     Edge 16, Type (0, 1), BuildingBlock: XIVTED_clean_linker_0, # of connection points: 2
#     Edge 17, Type (0, 1), BuildingBlock: XIVTED_clean_linker_0, # of connection points: 2
# Relax obj value: 0.164
# Max RMSD: 0.154
# Mean RMSD: 0.079
data_MOF--net-tsx--node1-FUNLAD_clean_sbu_0--node2-ESEHIV_clean_linker_0--edge1-XIVTED_clean_linker_0
_symmetry_space_group_name_H-M    P1
_symmetry_Int_Tables_number       1
_symmetry_cell_setting            triclinic
loop_
_symmetry_equiv_pos_as_xyz
'x, y, z'
_cell_length_a     17.852649
_cell_length_b     19.793665
_cell_length_c     40.91467
_cell_angle_alpha  91.015106
_cell_angle_beta   92.088214
_cell_angle_gamma 89.64822
loop_
_atom_site_label
_atom_site_type_symbol
_atom_site_fract_x
_atom_site_fract_y
_atom_site_fract_z
_atom_type_partial_charge
C0 C 0.94596 0.86073 -0.00641 0.0
N1 N 0.03389 0.9761 0.07086 0.0
C2 C 0.96507 0.97976 0.08407 0.0
C3 C 0.95861 0.98532 0.11781 0.0
C4 C 0.02352 0.98551 0.13804 0.0
C5 C 0.0938 0.98011 0.12398 0.0
C6 C 0.09778 0.97608 0.09002 0.0
Zn7 Zn 0.03931 0.97181 0.02144 0.0
C8 C 0.15988 0.88267 -0.00178 0.0
N9 N 0.04336 0.96429 0.91794 0.0
C10 C 0.97776 0.95936 0.90019 0.0
C11 C 0.11026 0.96749 0.90318 0.0
C12 C 0.11278 0.96604 0.86913 0.0
C13 C 0.0457 0.96236 0.85012 0.0
C14 C 0.97756 0.95905 0.86618 0.0
Zn15 Zn 0.03972 0.96833 0.96742 0.0
O16 O 0.96543 0.89128 0.02 0.0
C17 C 0.91666 0.05514 -0.01045 0.0
O18 O 0.96891 0.88143 0.96651 0.0
H19 H 0.16176 0.97146 0.91781 0.0
H20 H 0.91497 0.97867 0.06842 0.0
H21 H 0.92521 0.95652 0.91241 0.0
O22 O 0.94686 0.04251 0.01741 0.0
O23 O 0.94494 0.03 0.96411 0.0
H24 H 0.15184 0.97342 0.07896 0.0
O25 O 0.10986 0.05557 0.96901 0.0
O26 O 0.11586 0.0515 0.02271 0.0
O27 O 0.13463 0.90544 0.97116 0.0
O28 O 0.12947 0.90072 0.0246 0.0
C29 C 0.13543 0.07827 -0.00357 0.0
H30 H 0.90355 0.98884 0.12804 0.0
H31 H 0.14493 0.98043 0.13908 0.0
H32 H 0.16673 0.9677 0.85793 0.0
H33 H 0.9242 0.95767 0.85276 0.0
C34 C 0.39182 0.40431 0.49159 0.0
N35 N 0.48779 0.51056 0.57068 0.0
C36 C 0.4242 0.49556 0.5863 0.0
C37 C 0.42652 0.48652 0.62 0.0
C38 C 0.49482 0.49351 0.63776 0.0
C39 C 0.55927 0.5106 0.62117 0.0
C40 C 0.55453 0.51866 0.58736 0.0
Zn41 Zn 0.48307 0.51616 0.52123 0.0
C42 C 0.60652 0.43633 0.49125 0.0
N43 N 0.47308 0.5238 0.41757 0.0
C44 C 0.40489 0.52233 0.40163 0.0
C45 C 0.53723 0.53091 0.40109 0.0
C46 C 0.53429 0.53693 0.36719 0.0
C47 C 0.46454 0.53685 0.35007 0.0
C48 C 0.39926 0.52934 0.36779 0.0
Zn49 Zn 0.47879 0.5183 0.46709 0.0
O50 O 0.41651 0.42959 0.51852 0.0
C51 C 0.35732 0.60047 0.49615 0.0
O52 O 0.40789 0.43159 0.46488 0.0
H53 H 0.59083 0.53219 0.41427 0.0
H54 H 0.37174 0.48965 0.57252 0.0
H55 H 0.35458 0.5165 0.41521 0.0
O56 O 0.38619 0.58058 0.52318 0.0
O57 O 0.3853 0.5806 0.46961 0.0
H58 H 0.60438 0.53025 0.57435 0.0
O59 O 0.54876 0.60557 0.46979 0.0
O60 O 0.54927 0.60262 0.52342 0.0
O61 O 0.57379 0.45646 0.46514 0.0
O62 O 0.58047 0.45299 0.51877 0.0
C63 C 0.5687 0.63092 0.49749 0.0
H64 H 0.37542 0.47431 0.63205 0.0
H65 H 0.61305 0.51599 0.63405 0.0
H66 H 0.58631 0.5411 0.35461 0.0
H67 H 0.34419 0.52988 0.35581 0.0
H68 H 0.94527 0.13019 0.38383 0.0
H69 H 0.0925 0.95784 0.38597 0.0
H70 H 0.04287 0.06342 0.47511 0.0
C71 C 0.98205 0.09584 0.39723 0.0
C72 C 0.99017 0.1029 0.43131 0.0
C73 C 0.01873 0.04348 0.38063 0.0
C74 C 0.06425 -0.00149 0.39866 0.0
C75 C 0.07322 0.00491 0.43285 0.0
C76 C 0.03564 0.05738 0.44901 0.0
H77 H 0.89649 0.95029 0.60317 0.0
H78 H 0.08832 0.0808 0.60332 0.0
H79 H 0.96087 0.04036 0.51415 0.0
C80 C 0.93284 0.98399 0.59057 0.0
C81 C 0.9203 0.99359 0.55695 0.0
C82 C 0.99294 0.01534 0.60776 0.0
C83 C 0.04208 0.05534 0.59051 0.0
C84 C 0.03116 0.0642 0.55673 0.0
C85 C 0.96972 0.03379 0.5401 0.0
H86 H 0.44047 0.53723 0.88523 0.0
H87 H 0.54741 0.3429 0.88289 0.0
H88 H 0.47774 0.42845 0.9743 0.0
C89 C 0.46149 0.49301 0.89797 0.0
C90 C 0.45689 0.49004 0.93201 0.0
C91 C 0.49256 0.43954 0.88013 0.0
C92 C 0.51966 0.3825 0.89661 0.0
C93 C 0.51592 0.37859 0.93082 0.0
C94 C 0.48212 0.43177 0.9482 0.0
H95 H 0.39404 0.4604 0.1016 0.0
H96 H 0.56833 0.61013 0.10209 0.0
H97 H 0.51656 0.49402 0.01511 0.0
C98 C 0.43538 0.48911 0.08905 0.0
C99 C 0.4477 0.47391 0.05608 0.0
C100 C 0.47968 0.53725 0.10628 0.0
C101 C 0.53477 0.57157 0.08954 0.0
C102 C 0.54851 0.55567 0.05679 0.0
C103 C 0.50464 0.50705 0.04009 0.0
H104 H 0.26628 0.08424 0.03165 0.0
H105 H 0.29814 0.47052 0.04111 0.0
H106 H 0.12338 0.19996 0.96616 0.0
H107 H 0.50075 0.35215 0.0354 0.0
H108 H 0.22612 0.37332 0.01902 0.0
H109 H 0.34885 0.18232 0.03928 0.0
C110 C 0.25294 0.13027 0.01865 0.0
C111 C 0.18845 0.13459 -0.00174 0.0
C112 C 0.28649 0.36924 0.02207 0.0
C113 C 0.28074 0.24653 0.00752 0.0
C114 C 0.32726 0.42419 0.03476 0.0
C115 C 0.40509 0.41889 0.03965 0.0
C116 C 0.32376 0.30814 0.01563 0.0
C117 C 0.44075 0.35795 0.03154 0.0
C118 C 0.30002 0.1858 0.02287 0.0
C119 C 0.17306 0.19501 0.98193 0.0
N120 N 0.39955 0.30426 0.02042 0.0
N121 N 0.21819 0.24949 0.98747 0.0
H122 H 0.17942 0.77315 0.03776 0.0
H123 H 0.49877 0.62069 0.92561 0.0
H124 H 0.27527 0.87556 0.95718 0.0
H125 H 0.35096 0.49536 0.97883 0.0
H126 H 0.44127 0.72091 0.94981 0.0
H127 H 0.26611 0.67783 0.02891 0.0
C128 C 0.22004 0.77624 0.01882 0.0
C129 C 0.22012 0.83171 -0.00206 0.0
C130 C 0.42195 0.6715 0.95659 0.0
C131 C 0.31855 0.72398 0.98783 0.0
C132 C 0.45447 0.61437 0.9427 0.0
C133 C 0.42881 0.54981 0.9501 0.0
C134 C 0.36293 0.66422 0.97793 0.0
C135 C 0.37257 0.54432 0.97291 0.0
C136 C 0.26891 0.72184 0.01365 0.0
C137 C 0.27311 0.83331 0.97357 0.0
N138 N 0.34066 0.60096 0.98582 0.0
N139 N 0.31991 0.78006 0.96908 0.0
H140 H 0.95758 0.76369 0.0386 0.0
H141 H 0.5493 0.62051 -0.00169 0.0
H142 H 0.82623 0.82325 0.9533 0.0
H143 H 0.69255 0.56104 0.07984 0.0
H144 H 0.65471 0.68185 0.97586 0.0
H145 H 0.86791 0.67505 0.04819 0.0
C146 C 0.90994 0.75731 0.02165 0.0
C147 C 0.89835 0.80098 -0.00457 0.0
C148 C 0.66329 0.65457 -0.00159 0.0
C149 C 0.79409 0.70079 0.00663 0.0
C150 C 0.60333 0.61964 0.01108 0.0
C151 C 0.61236 0.58697 0.04107 0.0
C152 C 0.73239 0.65628 0.016 0.0
C153 C 0.68308 0.58696 0.05696 0.0
C154 C 0.85866 0.70674 0.0271 0.0
C155 C 0.83657 0.79039 0.97388 0.0
N156 N 0.74014 0.62158 0.04436 0.0
N157 N 0.78557 0.74194 0.98033 0.0
H158 H 0.81315 0.04954 0.9396 0.0
H159 H 0.60611 0.38703 0.9865 0.0
H160 H 0.86186 0.15214 0.03179 0.0
H161 H 0.51836 0.2439 0.9143 0.0
H162 H 0.69371 0.30053 0.00675 0.0
H163 H 0.70176 0.11934 0.93182 0.0
C164 C 0.80024 0.08688 0.95828 0.0
C165 C 0.84732 0.09577 0.98618 0.0
C166 C 0.65425 0.2877 0.98692 0.0
C167 C 0.71942 0.17638 0.97736 0.0
C168 C 0.60385 0.33692 0.97544 0.0
C169 C 0.5559 0.32304 0.94817 0.0
C170 C 0.65709 0.22464 0.97074 0.0
C171 C 0.55571 0.25731 0.9348 0.0
C172 C 0.73616 0.1264 0.95395 0.0
C173 C 0.82716 0.14411 0.00983 0.0
N174 N 0.60648 0.21099 0.94582 0.0
N175 N 0.76515 0.18355 0.00464 0.0
H176 H 0.66319 0.68417 0.45308 0.0
H177 H 0.77539 0.98997 0.57496 0.0
H178 H 0.5708 0.72161 0.54776 0.0
H179 H 0.9217 0.91624 0.50057 0.0
H180 H 0.67883 0.91186 0.55434 0.0
H181 H 0.73963 0.78684 0.46081 0.0
C182 C 0.6585 0.71435 0.47527 0.0
C183 C 0.61173 0.69408 0.50007 0.0
C184 C 0.73168 0.91342 0.54219 0.0
C185 C 0.69693 0.81116 0.50866 0.0
C186 C 0.78662 0.95801 0.5539 0.0
C187 C 0.85706 0.95827 0.53989 0.0
C188 C 0.74742 0.86851 0.51639 0.0
C189 C 0.86835 0.91705 0.51222 0.0
C190 C 0.70191 0.77268 0.47963 0.0
C191 C 0.60718 0.73484 0.52828 0.0
N192 N 0.81442 0.87271 0.50166 0.0
N193 N 0.64934 0.79129 0.53182 0.0
H194 H 0.65597 0.33716 0.53289 0.0
H195 H 0.00223 0.23795 0.42286 0.0
H196 H 0.71008 0.43915 0.44454 0.0
H197 H 0.88123 0.08999 0.4757 0.0
H198 H 0.91906 0.3264 0.44388 0.0
H199 H 0.76234 0.25956 0.52466 0.0
C200 C 0.69095 0.34379 0.51212 0.0
C201 C 0.67406 0.39381 0.4891 0.0
C202 C 0.91184 0.27474 0.45143 0.0
C203 C 0.79532 0.30694 0.48 0.0
C204 C 0.95914 0.22456 0.43953 0.0
C205 C 0.94865 0.15713 0.44795 0.0
C206 C 0.85376 0.25712 0.47181 0.0
C207 C 0.892 0.14178 0.46941 0.0
C208 C 0.75119 0.2996 0.50742 0.0
C209 C 0.72078 0.40053 0.46257 0.0
N210 N 0.84611 0.19149 0.48052 0.0
N211 N 0.77928 0.35751 0.45872 0.0
H212 H 0.26347 0.37749 0.45496 0.0
H213 H 0.18097 0.04344 0.55425 0.0
H214 H 0.41117 0.29641 0.53042 0.0
H215 H 0.00424 0.17678 0.52018 0.0
H216 H 0.27303 0.11737 0.53031 0.0
H217 H 0.17483 0.28501 0.46394 0.0
C218 C 0.27786 0.3393 0.4728 0.0
C219 C 0.34402 0.34433 0.4922 0.0
C220 C 0.21399 0.12988 0.52765 0.0
C221 C 0.24459 0.23939 0.50221 0.0
C222 C 0.16173 0.08799 0.54134 0.0
C223 C 0.0854 0.10462 0.53922 0.0
C224 C 0.18964 0.18874 0.51177 0.0
C225 C 0.06278 0.16242 0.52208 0.0
C226 C 0.22735 0.28711 0.47803 0.0
C227 C 0.36027 0.29432 0.51521 0.0
N228 N 0.11489 0.2029 0.50909 0.0
N229 N 0.31081 0.24395 0.51963 0.0
H230 H 0.26426 0.62778 0.44446 0.0
H231 H 0.04655 0.9473 0.49229 0.0
H232 H 0.31935 0.69456 0.54344 0.0
H233 H 0.20573 0.94708 0.41538 0.0
H234 H 0.10886 0.84628 0.51496 0.0
H235 H 0.19362 0.73197 0.43572 0.0
C236 C 0.25995 0.66362 0.46465 0.0
C237 C 0.29878 0.65319 0.49454 0.0
C238 C 0.13028 0.86939 0.49342 0.0
C239 C 0.21811 0.77201 0.48453 0.0
C240 C 0.09505 0.92691 0.48048 0.0
C241 C 0.11903 0.95416 0.45111 0.0
C242 C 0.18893 0.83931 0.47653 0.0
C243 C 0.18307 0.92616 0.43718 0.0
C244 C 0.21996 0.72297 0.45955 0.0
C245 C 0.29039 0.70104 0.51999 0.0
N246 N 0.21461 0.8693 0.44953 0.0
N247 N 0.25158 0.75948 0.51428 0.0
H248 H 0.0789 0.89998 0.18437 0.0
H249 H 0.00825 0.14289 0.33459 0.0
H250 H 0.95533 0.0862 0.17212 0.0
H251 H 0.00905 0.92574 0.3442 0.0
H252 H 0.00197 0.12785 0.27513 0.0
H253 H 0.06999 0.91299 0.24389 0.0
C254 C 0.05001 0.94355 0.19435 0.0
C255 C 0.01784 0.99219 0.17369 0.0
C256 C 0.00311 0.08369 0.2904 0.0
C257 C 0.00815 0.00772 0.24107 0.0
C258 C 0.00632 0.09211 0.32432 0.0
C259 C 0.0101 0.03549 0.34455 0.0
C260 C 0.0051 0.01834 0.27668 0.0
C261 C 0.00848 0.97092 0.32968 0.0
C262 C 0.04453 0.95075 0.22811 0.0
C263 C 0.98055 0.04766 0.18749 0.0
N264 N 0.00706 0.9641 0.29663 0.0
N265 N 0.97737 0.05441 0.22049 0.0
H266 H 0.14147 0.03119 0.81131 0.0
H267 H 0.88485 0.00294 0.65321 0.0
H268 H 0.95051 0.89754 0.80578 0.0
H269 H 0.1255 0.00725 0.64448 0.0
H270 H 0.90305 0.98328 0.7115 0.0
H271 H 0.13369 0.03988 0.75173 0.0
C272 C 0.09854 0.00296 0.79772 0.0
C273 C 0.04595 0.96413 0.81384 0.0
C274 C 0.9517 0.98832 0.69667 0.0
C275 C 0.03573 0.97602 0.74598 0.0
C276 C 0.94156 -0.00081 0.66334 0.0
C277 C 0.00374 0.006 0.64359 0.0
C278 C 0.02437 0.98598 0.71064 0.0
C279 C 0.0758 0.00314 0.65865 0.0
C280 C 0.09406 0.00838 0.76376 0.0
C281 C 0.9909 0.92971 0.79472 0.0
N282 N 0.0842 0.99378 0.69141 0.0
N283 N 0.98656 0.93728 0.76184 0.0
H284 H 0.4327 0.3907 0.671 0.0
H285 H 0.54586 0.54609 0.84685 0.0
H286 H 0.56602 0.57063 0.68533 0.0
H287 H 0.45531 0.34574 0.83253 0.0
H288 H 0.55089 0.55727 0.78763 0.0
H289 H 0.43695 0.37456 0.73015 0.0
C290 C 0.46274 0.42685 0.68666 0.0
C291 C 0.49875 0.48227 0.67338 0.0
C292 C 0.5303 0.51069 0.7974 0.0
C293 C 0.50415 0.46402 0.74087 0.0
C294 C 0.52704 0.50447 0.83114 0.0
C295 C 0.49955 0.44511 0.84444 0.0
C296 C 0.50527 0.4574 0.7768 0.0
C297 C 0.477 0.39224 0.82314 0.0
C298 C 0.46559 0.41737 0.72034 0.0
C299 C 0.53788 0.52704 0.69463 0.0
N300 N 0.47977 0.39982 0.79028 0.0
N301 N 0.53913 0.51718 0.72738 0.0
H302 H 0.36509 0.47732 0.30547 0.0
H303 H 0.59274 0.563 0.15197 0.0
H304 H 0.55381 0.61335 0.31204 0.0
H305 H 0.35316 0.53223 0.14305 0.0
H306 H 0.58356 0.57216 0.21092 0.0
H307 H 0.36273 0.48696 0.24603 0.0
C308 C 0.40549 0.50983 0.29459 0.0
C309 C 0.46018 0.54416 0.31398 0.0
C310 C 0.53294 0.56415 0.19598 0.0
C311 C 0.45861 0.55377 0.24595 0.0
C312 C 0.53786 0.5594 0.16219 0.0
C313 C 0.47348 0.54714 0.1422 0.0
C314 C 0.46359 0.55495 0.21012 0.0
C315 C 0.40452 0.5406 0.15737 0.0
C316 C 0.40412 0.51504 0.26064 0.0
C317 C 0.51185 0.5845 0.29821 0.0
N318 N 0.40151 0.54379 0.1905 0.0
N319 N 0.51033 0.58755 0.26511 0.0
loop_
_geom_bond_atom_site_label_1
_geom_bond_atom_site_label_2
_geom_bond_distance
_geom_bond_site_symmetry_2
_ccdc_geom_bond_type
C0 O16 1.251 . S
C0 O18 1.254 1_554 S
N1 C2 1.333 1_445 S
N1 C6 1.307 . S
N1 Zn7 2.020 . S
C2 N1 1.333 1_665 S
C2 C3 1.379 . S
C2 H20 0.952 . S
C3 C2 1.379 . S
C3 C4 1.390 1_665 S
C3 H30 0.949 . S
C4 C3 1.390 1_445 S
C4 C5 1.357 . S
C5 C4 1.357 . S
C5 C6 1.370 . S
C5 H31 0.950 . S
C6 N1 1.307 . S
C6 C5 1.370 . S
C6 H24 0.948 . S
Zn7 N1 2.020 . S
Zn7 O16 2.039 1_445 S
Zn7 O22 2.034 1_455 S
Zn7 O26 2.025 . S
Zn7 O28 2.024 1_545 S
C8 O27 1.246 1_554 S
C8 O28 1.249 . S
N9 C10 1.307 1_445 S
N9 C11 1.333 . S
N9 Zn15 2.020 . S
C10 N9 1.307 1_665 S
C10 C14 1.370 . S
C10 H21 0.948 . S
C11 N9 1.333 . S
C11 C12 1.379 . S
C11 H19 0.952 . S
C12 C11 1.379 . S
C12 C13 1.390 . S
C12 H32 0.949 . S
C13 C12 1.390 . S
C13 C14 1.357 1_445 S
C14 C10 1.370 . S
C14 C13 1.357 1_665 S
C14 H33 0.950 . S
Zn15 N9 2.020 . S
Zn15 O18 2.025 1_445 S
Zn15 O23 2.024 1_455 S
Zn15 O25 2.039 . S
Zn15 O27 2.034 1_545 S
O16 C0 1.251 . S
O16 Zn7 2.039 1_665 S
C17 O22 1.246 . S
C17 O23 1.249 1_554 S
O18 C0 1.254 1_556 S
O18 Zn15 2.025 1_665 S
H19 C11 0.952 . S
H20 C2 0.952 . S
H21 C10 0.948 . S
O22 Zn7 2.034 1_655 S
O22 C17 1.246 . S
O23 Zn15 2.024 1_655 S
O23 C17 1.249 1_556 S
H24 C6 0.948 . S
O25 Zn15 2.039 . S
O25 C29 1.251 1_556 S
O26 Zn7 2.025 . S
O26 C29 1.254 . S
O27 C8 1.246 1_556 S
O27 Zn15 2.034 1_565 S
O28 Zn7 2.024 1_565 S
O28 C8 1.249 . S
C29 O25 1.251 1_554 S
C29 O26 1.254 . S
H30 C3 0.949 . S
H31 C5 0.950 . S
H32 C12 0.949 . S
H33 C14 0.950 . S
C34 O50 1.251 . S
C34 O52 1.254 . S
N35 C36 1.333 . S
N35 C40 1.307 . S
N35 Zn41 2.020 . S
C36 N35 1.333 . S
C36 C37 1.379 . S
C36 H54 0.952 . S
C37 C36 1.379 . S
C37 C38 1.390 . S
C37 H64 0.949 . S
C38 C37 1.390 . S
C38 C39 1.357 . S
C39 C38 1.357 . S
C39 C40 1.370 . S
C39 H65 0.950 . S
C40 N35 1.307 . S
C40 C39 1.370 . S
C40 H58 0.948 . S
Zn41 N35 2.020 . S
Zn41 O50 2.039 . S
Zn41 O56 2.034 . S
Zn41 O60 2.025 . S
Zn41 O62 2.024 . S
C42 O61 1.246 . S
C42 O62 1.249 . S
N43 C44 1.307 . S
N43 C45 1.333 . S
N43 Zn49 2.020 . S
C44 N43 1.307 . S
C44 C48 1.370 . S
C44 H55 0.948 . S
C45 N43 1.333 . S
C45 C46 1.379 . S
C45 H53 0.952 . S
C46 C45 1.379 . S
C46 C47 1.390 . S
C46 H66 0.949 . S
C47 C46 1.390 . S
C47 C48 1.357 . S
C48 C44 1.370 . S
C48 C47 1.357 . S
C48 H67 0.950 . S
Zn49 N43 2.020 . S
Zn49 O52 2.025 . S
Zn49 O57 2.024 . S
Zn49 O59 2.039 . S
Zn49 O61 2.034 . S
O50 C34 1.251 . S
O50 Zn41 2.039 . S
C51 O56 1.246 . S
C51 O57 1.249 . S
O52 C34 1.254 . S
O52 Zn49 2.025 . S
H53 C45 0.952 . S
H54 C36 0.952 . S
H55 C44 0.948 . S
O56 Zn41 2.034 . S
O56 C51 1.246 . S
O57 Zn49 2.024 . S
O57 C51 1.249 . S
H58 C40 0.948 . S
O59 Zn49 2.039 . S
O59 C63 1.251 . S
O60 Zn41 2.025 . S
O60 C63 1.254 . S
O61 C42 1.246 . S
O61 Zn49 2.034 . S
O62 Zn41 2.024 . S
O62 C42 1.249 . S
C63 O59 1.251 . S
C63 O60 1.254 . S
H64 C37 0.949 . S
H65 C39 0.950 . S
H66 C46 0.949 . S
H67 C48 0.950 . S
H68 C71 0.931 . S
H69 C74 0.928 . S
H70 C76 0.930 . S
C71 H68 0.931 . S
C71 C72 1.413 . S
C71 C73 1.358 1_545 S
C72 C71 1.413 . S
C72 C76 1.429 1_645 S
C73 C71 1.358 1_565 S
C73 C74 1.374 1_655 S
C74 H69 0.928 . S
C74 C73 1.374 1_455 S
C74 C75 1.404 . S
C75 C74 1.404 . S
C75 C76 1.391 . S
C76 H70 0.930 . S
C76 C72 1.429 1_465 S
C76 C75 1.391 . S
H77 C80 0.931 . S
H78 C83 0.928 . S
H79 C85 0.930 . S
C80 H77 0.931 . S
C80 C81 1.413 . S
C80 C82 1.360 1_665 S
C81 C80 1.413 . S
C81 C85 1.429 1_665 S
C82 C80 1.360 1_445 S
C82 C83 1.372 . S
C83 H78 0.928 . S
C83 C82 1.372 . S
C83 C84 1.404 . S
C84 C83 1.404 . S
C84 C85 1.391 . S
C85 H79 0.930 . S
C85 C81 1.429 1_445 S
C85 C84 1.391 . S
H86 C89 0.931 . S
H87 C92 0.928 . S
H88 C94 0.930 1_554 S
C89 H86 0.931 . S
C89 C90 1.413 . S
C89 C91 1.360 . S
C90 C89 1.413 . S
C90 C94 1.429 . S
C91 C89 1.360 . S
C91 C92 1.372 . S
C92 H87 0.928 . S
C92 C91 1.372 . S
C92 C93 1.404 . S
C93 C92 1.404 . S
C93 C94 1.391 . S
C94 H88 0.930 1_556 S
C94 C90 1.429 . S
C94 C93 1.391 . S
H95 C98 0.931 . S
H96 C101 0.928 . S
H97 C103 0.930 . S
C98 H95 0.931 . S
C98 C99 1.413 . S
C98 C100 1.360 . S
C99 C98 1.413 . S
C99 C103 1.429 . S
C100 C98 1.360 . S
C100 C101 1.372 . S
C101 H96 0.928 . S
C101 C100 1.372 . S
C101 C102 1.404 . S
C102 C101 1.404 . S
C102 C103 1.391 . S
C103 H97 0.930 . S
C103 C99 1.429 . S
C103 C102 1.391 . S
H104 C110 0.930 . S
H105 C114 0.930 1_556 S
H106 C119 0.929 . S
H107 C117 0.929 . S
H108 C112 0.929 1_556 S
H109 C118 0.929 . S
C110 H104 0.930 . S
C110 C111 1.367 . S
C110 C118 1.378 . S
C111 C110 1.367 . S
C111 C119 1.433 1_554 S
C112 H108 0.929 1_554 S
C112 C114 1.378 . S
C112 C116 1.350 . S
C113 C116 1.463 . S
C113 C118 1.350 . S
C113 N121 1.427 1_554 S
C114 H105 0.930 1_554 S
C114 C112 1.378 . S
C114 C115 1.367 . S
C115 C114 1.367 . S
C115 C117 1.433 . S
C116 C112 1.350 . S
C116 C113 1.463 . S
C116 N120 1.427 . S
C117 H107 0.929 . S
C117 C115 1.433 . S
C117 N120 1.384 . S
C118 H109 0.929 . S
C118 C110 1.378 . S
C118 C113 1.350 . S
C119 H106 0.929 . S
C119 C111 1.433 1_556 S
C119 N121 1.384 . S
N120 C116 1.427 . S
N120 C117 1.384 . S
N121 C113 1.427 1_556 S
N121 C119 1.384 . S
H122 C128 0.930 . S
H123 C132 0.930 . S
H124 C137 0.929 . S
H125 C135 0.929 . S
H126 C130 0.929 . S
H127 C136 0.929 . S
C128 H122 0.930 . S
C128 C129 1.367 . S
C128 C136 1.378 . S
C129 C128 1.367 . S
C129 C137 1.433 1_554 S
C130 H126 0.929 . S
C130 C132 1.378 . S
C130 C134 1.350 . S
C131 C134 1.463 . S
C131 C136 1.350 1_556 S
C131 N139 1.427 . S
C132 H123 0.930 . S
C132 C130 1.378 . S
C132 C133 1.367 . S
C133 C132 1.367 . S
C133 C135 1.433 . S
C134 C130 1.350 . S
C134 C131 1.463 . S
C134 N138 1.427 . S
C135 H125 0.929 . S
C135 C133 1.433 . S
C135 N138 1.384 . S
C136 H127 0.929 . S
C136 C128 1.378 . S
C136 C131 1.350 1_554 S
C137 H124 0.929 . S
C137 C129 1.433 1_556 S
C137 N139 1.384 . S
N138 C134 1.427 . S
N138 C135 1.384 . S
N139 C131 1.427 . S
N139 C137 1.384 . S
H140 C146 0.930 . S
H141 C150 0.930 1_556 S
H142 C155 0.929 . S
H143 C153 0.929 . S
H144 C148 0.901 1_556 S
H145 C154 0.929 . S
C146 H140 0.930 . S
C146 C147 1.367 . S
C146 C154 1.378 . S
C147 C146 1.367 . S
C147 C155 1.433 1_554 S
C148 H144 0.901 1_554 S
C148 C150 1.384 . S
C148 C152 1.371 . S
C149 C152 1.463 . S
C149 C154 1.350 . S
C149 N157 1.427 1_554 S
C150 H141 0.930 1_554 S
C150 C148 1.384 . S
C150 C151 1.367 . S
C151 C150 1.367 . S
C151 C153 1.433 . S
C152 C148 1.371 . S
C152 C149 1.463 . S
C152 N156 1.427 . S
C153 H143 0.929 . S
C153 C151 1.433 . S
C153 N156 1.384 . S
C154 H145 0.929 . S
C154 C146 1.378 . S
C154 C149 1.350 . S
C155 H142 0.929 . S
C155 C147 1.433 1_556 S
C155 N157 1.384 . S
N156 C152 1.427 . S
N156 C153 1.384 . S
N157 C149 1.427 1_556 S
N157 C155 1.384 . S
H158 C164 0.930 . S
H159 C168 0.930 1_554 S
H160 C173 0.929 . S
H161 C171 0.929 . S
H162 C166 0.929 . S
H163 C172 0.929 . S
C164 H158 0.930 . S
C164 C165 1.367 1_556 S
C164 C172 1.378 . S
C165 C164 1.367 1_554 S
C165 C173 1.433 . S
C166 H162 0.929 . S
C166 C168 1.378 1_554 S
C166 C170 1.350 1_554 S
C167 C170 1.463 . S
C167 C172 1.350 . S
C167 N175 1.427 1_556 S
C168 H159 0.930 1_556 S
C168 C166 1.378 1_556 S
C168 C169 1.367 . S
C169 C168 1.367 . S
C169 C171 1.433 . S
C170 C166 1.350 1_556 S
C170 C167 1.463 . S
C170 N174 1.427 . S
C171 H161 0.929 . S
C171 C169 1.433 . S
C171 N174 1.384 . S
C172 H163 0.929 . S
C172 C164 1.378 . S
C172 C167 1.350 . S
C173 H160 0.929 . S
C173 C165 1.433 . S
C173 N175 1.384 . S
N174 C170 1.427 . S
N174 C171 1.384 . S
N175 C167 1.427 1_554 S
N175 C173 1.384 . S
H176 C182 0.930 . S
H177 C186 0.930 . S
H178 C191 0.929 . S
H179 C189 0.929 . S
H180 C184 0.929 . S
H181 C190 0.929 . S
C182 H176 0.930 . S
C182 C183 1.367 . S
C182 C190 1.378 . S
C183 C182 1.367 . S
C183 C191 1.433 . S
C184 H180 0.929 . S
C184 C186 1.378 . S
C184 C188 1.350 . S
C185 C188 1.463 . S
C185 C190 1.350 . S
C185 N193 1.427 . S
C186 H177 0.930 . S
C186 C184 1.378 . S
C186 C187 1.367 . S
C187 C186 1.367 . S
C187 C189 1.433 . S
C188 C184 1.350 . S
C188 C185 1.463 . S
C188 N192 1.427 . S
C189 H179 0.929 . S
C189 C187 1.433 . S
C189 N192 1.384 . S
C190 H181 0.929 . S
C190 C182 1.378 . S
C190 C185 1.350 . S
C191 H178 0.929 . S
C191 C183 1.433 . S
C191 N193 1.384 . S
N192 C188 1.427 . S
N192 C189 1.384 . S
N193 C185 1.427 . S
N193 C191 1.384 . S
H194 C200 0.930 . S
H195 C204 0.930 . S
H196 C209 0.929 . S
H197 C207 0.929 . S
H198 C202 0.929 . S
H199 C208 0.929 . S
C200 H194 0.930 . S
C200 C201 1.367 . S
C200 C208 1.378 . S
C201 C200 1.367 . S
C201 C209 1.433 . S
C202 H198 0.929 . S
C202 C204 1.378 . S
C202 C206 1.350 . S
C203 C206 1.463 . S
C203 C208 1.350 . S
C203 N211 1.427 . S
C204 H195 0.930 . S
C204 C202 1.378 . S
C204 C205 1.367 . S
C205 C204 1.367 . S
C205 C207 1.433 . S
C206 C202 1.350 . S
C206 C203 1.463 . S
C206 N210 1.427 . S
C207 H197 0.929 . S
C207 C205 1.433 . S
C207 N210 1.384 . S
C208 H199 0.929 . S
C208 C200 1.378 . S
C208 C203 1.350 . S
C209 H196 0.929 . S
C209 C201 1.433 . S
C209 N211 1.384 . S
N210 C206 1.427 . S
N210 C207 1.384 . S
N211 C203 1.427 . S
N211 C209 1.384 . S
H212 C218 0.930 . S
H213 C222 0.930 . S
H214 C227 0.929 . S
H215 C225 0.929 . S
H216 C220 0.929 . S
H217 C226 0.929 . S
C218 H212 0.930 . S
C218 C219 1.367 . S
C218 C226 1.378 . S
C219 C218 1.367 . S
C219 C227 1.433 . S
C220 H216 0.929 . S
C220 C222 1.378 . S
C220 C224 1.350 . S
C221 C224 1.463 . S
C221 C226 1.350 . S
C221 N229 1.427 . S
C222 H213 0.930 . S
C222 C220 1.378 . S
C222 C223 1.367 . S
C223 C222 1.367 . S
C223 C225 1.433 . S
C224 C220 1.350 . S
C224 C221 1.463 . S
C224 N228 1.427 . S
C225 H215 0.929 . S
C225 C223 1.433 . S
C225 N228 1.384 . S
C226 H217 0.929 . S
C226 C218 1.378 . S
C226 C221 1.350 . S
C227 H214 0.929 . S
C227 C219 1.433 . S
C227 N229 1.384 . S
N228 C224 1.427 . S
N228 C225 1.384 . S
N229 C221 1.427 . S
N229 C227 1.384 . S
H230 C236 0.930 . S
H231 C240 0.930 . S
H232 C245 0.929 . S
H233 C243 0.929 . S
H234 C238 0.929 . S
H235 C244 0.929 . S
C236 H230 0.930 . S
C236 C237 1.367 . S
C236 C244 1.378 . S
C237 C236 1.367 . S
C237 C245 1.433 . S
C238 H234 0.929 . S
C238 C240 1.378 . S
C238 C242 1.350 . S
C239 C242 1.463 . S
C239 C244 1.350 . S
C239 N247 1.427 . S
C240 H231 0.930 . S
C240 C238 1.378 . S
C240 C241 1.367 . S
C241 C240 1.367 . S
C241 C243 1.433 . S
C242 C238 1.350 . S
C242 C239 1.463 . S
C242 N246 1.427 . S
C243 H233 0.929 . S
C243 C241 1.433 . S
C243 N246 1.384 . S
C244 H235 0.929 . S
C244 C236 1.378 . S
C244 C239 1.350 . S
C245 H232 0.929 . S
C245 C237 1.433 . S
C245 N247 1.384 . S
N246 C242 1.427 . S
N246 C243 1.384 . S
N247 C239 1.427 . S
N247 C245 1.384 . S
H248 C254 0.930 . S
H249 C258 0.930 . S
H250 C263 0.929 . S
H251 C261 0.929 . S
H252 C256 0.929 . S
H253 C262 0.929 . S
C254 H248 0.930 . S
C254 C255 1.367 1_565 S
C254 C262 1.378 . S
C255 C254 1.367 1_545 S
C255 C263 1.433 1_455 S
C256 H252 0.929 . S
C256 C258 1.378 . S
C256 C260 1.350 1_655 S
C257 C260 1.462 . S
C257 C262 1.350 1_545 S
C257 N265 1.427 1_455 S
C258 H249 0.930 . S
C258 C256 1.378 . S
C258 C259 1.367 . S
C259 C258 1.367 . S
C259 C261 1.433 1_645 S
C260 C256 1.350 1_455 S
C260 C257 1.462 . S
C260 N264 1.427 1_545 S
C261 H251 0.929 . S
C261 C259 1.433 1_465 S
C261 N264 1.384 . S
C262 H253 0.929 . S
C262 C254 1.378 . S
C262 C257 1.350 1_565 S
C263 H250 0.929 . S
C263 C255 1.433 1_655 S
C263 N265 1.384 . S
N264 C260 1.427 1_565 S
N264 C261 1.384 . S
N265 C257 1.427 1_655 S
N265 C263 1.384 . S
H266 C272 0.930 . S
H267 C276 0.930 . S
H268 C281 0.929 . S
H269 C279 0.929 . S
H270 C274 0.929 . S
H271 C280 0.929 . S
C272 H266 0.930 . S
C272 C273 1.367 . S
C272 C280 1.378 . S
C273 C272 1.367 . S
C273 C281 1.433 1_445 S
C274 H270 0.929 . S
C274 C276 1.378 . S
C274 C278 1.350 1_665 S
C275 C278 1.463 . S
C275 C280 1.350 . S
C275 N283 1.427 1_445 S
C276 H267 0.930 . S
C276 C274 1.378 . S
C276 C277 1.367 1_665 S
C277 C276 1.367 1_445 S
C277 C279 1.433 . S
C278 C274 1.350 1_445 S
C278 C275 1.463 . S
C278 N282 1.427 . S
C279 H269 0.929 . S
C279 C277 1.433 . S
C279 N282 1.384 . S
C280 H271 0.929 . S
C280 C272 1.378 . S
C280 C275 1.350 . S
C281 H268 0.929 . S
C281 C273 1.433 1_665 S
C281 N283 1.384 . S
N282 C278 1.427 . S
N282 C279 1.384 . S
N283 C275 1.427 1_665 S
N283 C281 1.384 . S
H284 C290 0.930 . S
H285 C294 0.930 . S
H286 C299 0.929 . S
H287 C297 0.929 . S
H288 C292 0.929 . S
H289 C298 0.929 . S
C290 H284 0.930 . S
C290 C291 1.367 . S
C290 C298 1.378 . S
C291 C290 1.367 . S
C291 C299 1.433 . S
C292 H288 0.929 . S
C292 C294 1.378 . S
C292 C296 1.350 . S
C293 C296 1.463 . S
C293 C298 1.350 . S
C293 N301 1.427 . S
C294 H285 0.930 . S
C294 C292 1.378 . S
C294 C295 1.367 . S
C295 C294 1.367 . S
C295 C297 1.433 . S
C296 C292 1.350 . S
C296 C293 1.463 . S
C296 N300 1.427 . S
C297 H287 0.929 . S
C297 C295 1.433 . S
C297 N300 1.384 . S
C298 H289 0.929 . S
C298 C290 1.378 . S
C298 C293 1.350 . S
C299 H286 0.929 . S
C299 C291 1.433 . S
C299 N301 1.384 . S
N300 C296 1.427 . S
N300 C297 1.384 . S
N301 C293 1.427 . S
N301 C299 1.384 . S
H302 C308 0.930 . S
H303 C312 0.930 . S
H304 C317 0.929 . S
H305 C315 0.929 . S
H306 C310 0.929 . S
H307 C316 0.929 . S
C308 H302 0.930 . S
C308 C309 1.367 . S
C308 C316 1.378 . S
C309 C308 1.367 . S
C309 C317 1.433 . S
C310 H306 0.929 . S
C310 C312 1.378 . S
C310 C314 1.350 . S
C311 C314 1.463 . S
C311 C316 1.350 . S
C311 N319 1.427 . S
C312 H303 0.930 . S
C312 C310 1.378 . S
C312 C313 1.367 . S
C313 C312 1.367 . S
C313 C315 1.433 . S
C314 C310 1.350 . S
C314 C311 1.463 . S
C314 N318 1.427 . S
C315 H305 0.929 . S
C315 C313 1.433 . S
C315 N318 1.384 . S
C316 H307 0.929 . S
C316 C308 1.378 . S
C316 C311 1.350 . S
C317 H304 0.929 . S
C317 C309 1.433 . S
C317 N319 1.384 . S
N318 C314 1.427 . S
N318 C315 1.384 . S
N319 C311 1.427 . S
N319 C317 1.384 . S
C115 C99 1.361 . S
C111 C29 1.367 . S
C129 C8 1.377 . S
C133 C90 1.359 . S
C147 C0 1.370 . S
C151 C102 1.362 . S
C165 C17 1.362 . S
C169 C93 1.359 . S
C183 C63 1.373 . S
C187 C81 1.352 . S
C201 C42 1.377 . S
C205 C72 1.356 . S
C223 C84 1.351 . S
C219 C34 1.375 . S
C241 C75 1.360 . S
C237 C51 1.364 . S
C255 C4 1.490 . S
C259 C73 1.491 1_545 S
C273 C13 1.489 . S
C277 C82 1.490 . S
C295 C91 1.492 . S
C291 C38 1.490 . S
C309 C47 1.486 . S
C313 C100 1.490 . S
