# Generated by pormake.
# Topology ctn, (3,4)-cn, num edge types: 1
# Building blocks:
#     Node 0, Type 0, BuildingBlock: BETDAH_clean_linker_0, # of connection points: 3
#     Node 1, Type 0, BuildingBlock: BETDAH_clean_linker_0, # of connection points: 3
#     Node 2, Type 0, BuildingBlock: BETDAH_clean_linker_0, # of connection points: 3
#     Node 3, Type 0, BuildingBlock: BETDAH_clean_linker_0, # of connection points: 3
#     Node 4, Type 0, BuildingBlock: BETDAH_clean_linker_0, # of connection points: 3
#     Node 5, Type 0, BuildingBlock: BETDAH_clean_linker_0, # of connection points: 3
#     Node 6, Type 0, BuildingBlock: BETDAH_clean_linker_0, # of connection points: 3
#     Node 7, Type 0, BuildingBlock: BETDAH_clean_linker_0, # of connection points: 3
#     Node 8, Type 0, BuildingBlock: BETDAH_clean_linker_0, # of connection points: 3
#     Node 9, Type 0, BuildingBlock: BETDAH_clean_linker_0, # of connection points: 3
#     Node 10, Type 0, BuildingBlock: BETDAH_clean_linker_0, # of connection points: 3
#     Node 11, Type 0, BuildingBlock: BETDAH_clean_linker_0, # of connection points: 3
#     Node 12, Type 0, BuildingBlock: BETDAH_clean_linker_0, # of connection points: 3
#     Node 13, Type 0, BuildingBlock: BETDAH_clean_linker_0, # of connection points: 3
#     Node 14, Type 0, BuildingBlock: BETDAH_clean_linker_0, # of connection points: 3
#     Node 15, Type 0, BuildingBlock: BETDAH_clean_linker_0, # of connection points: 3
#     Node 16, Type 1, BuildingBlock: UXUYUI_clean_sbu_0, # of connection points: 4
#     Node 17, Type 1, BuildingBlock: UXUYUI_clean_sbu_0, # of connection points: 4
#     Node 18, Type 1, BuildingBlock: UXUYUI_clean_sbu_0, # of connection points: 4
#     Node 19, Type 1, BuildingBlock: UXUYUI_clean_sbu_0, # of connection points: 4
#     Node 20, Type 1, BuildingBlock: UXUYUI_clean_sbu_0, # of connection points: 4
#     Node 21, Type 1, BuildingBlock: UXUYUI_clean_sbu_0, # of connection points: 4
#     Node 22, Type 1, BuildingBlock: UXUYUI_clean_sbu_0, # of connection points: 4
#     Node 23, Type 1, BuildingBlock: UXUYUI_clean_sbu_0, # of connection points: 4
#     Node 24, Type 1, BuildingBlock: UXUYUI_clean_sbu_0, # of connection points: 4
#     Node 25, Type 1, BuildingBlock: UXUYUI_clean_sbu_0, # of connection points: 4
#     Node 26, Type 1, BuildingBlock: UXUYUI_clean_sbu_0, # of connection points: 4
#     Node 27, Type 1, BuildingBlock: UXUYUI_clean_sbu_0, # of connection points: 4
#     Edge 28, Type (0, 1), BuildingBlock: XUDNAN_clean_linker_2, # of connection points: 2
#     Edge 29, Type (0, 1), BuildingBlock: XUDNAN_clean_linker_2, # of connection points: 2
#     Edge 30, Type (0, 1), BuildingBlock: XUDNAN_clean_linker_2, # of connection points: 2
#     Edge 31, Type (0, 1), BuildingBlock: XUDNAN_clean_linker_2, # of connection points: 2
#     Edge 32, Type (0, 1), BuildingBlock: XUDNAN_clean_linker_2, # of connection points: 2
#     Edge 33, Type (0, 1), BuildingBlock: XUDNAN_clean_linker_2, # of connection points: 2
#     Edge 34, Type (0, 1), BuildingBlock: XUDNAN_clean_linker_2, # of connection points: 2
#     Edge 35, Type (0, 1), BuildingBlock: XUDNAN_clean_linker_2, # of connection points: 2
#     Edge 36, Type (0, 1), BuildingBlock: XUDNAN_clean_linker_2, # of connection points: 2
#     Edge 37, Type (0, 1), BuildingBlock: XUDNAN_clean_linker_2, # of connection points: 2
#     Edge 38, Type (0, 1), BuildingBlock: XUDNAN_clean_linker_2, # of connection points: 2
#     Edge 39, Type (0, 1), BuildingBlock: XUDNAN_clean_linker_2, # of connection points: 2
#     Edge 40, Type (0, 1), BuildingBlock: XUDNAN_clean_linker_2, # of connection points: 2
#     Edge 41, Type (0, 1), BuildingBlock: XUDNAN_clean_linker_2, # of connection points: 2
#     Edge 42, Type (0, 1), BuildingBlock: XUDNAN_clean_linker_2, # of connection points: 2
#     Edge 43, Type (0, 1), BuildingBlock: XUDNAN_clean_linker_2, # of connection points: 2
#     Edge 44, Type (0, 1), BuildingBlock: XUDNAN_clean_linker_2, # of connection points: 2
#     Edge 45, Type (0, 1), BuildingBlock: XUDNAN_clean_linker_2, # of connection points: 2
#     Edge 46, Type (0, 1), BuildingBlock: XUDNAN_clean_linker_2, # of connection points: 2
#     Edge 47, Type (0, 1), BuildingBlock: XUDNAN_clean_linker_2, # of connection points: 2
#     Edge 48, Type (0, 1), BuildingBlock: XUDNAN_clean_linker_2, # of connection points: 2
#     Edge 49, Type (0, 1), BuildingBlock: XUDNAN_clean_linker_2, # of connection points: 2
#     Edge 50, Type (0, 1), BuildingBlock: XUDNAN_clean_linker_2, # of connection points: 2
#     Edge 51, Type (0, 1), BuildingBlock: XUDNAN_clean_linker_2, # of connection points: 2
#     Edge 52, Type (0, 1), BuildingBlock: XUDNAN_clean_linker_2, # of connection points: 2
#     Edge 53, Type (0, 1), BuildingBlock: XUDNAN_clean_linker_2, # of connection points: 2
#     Edge 54, Type (0, 1), BuildingBlock: XUDNAN_clean_linker_2, # of connection points: 2
#     Edge 55, Type (0, 1), BuildingBlock: XUDNAN_clean_linker_2, # of connection points: 2
#     Edge 56, Type (0, 1), BuildingBlock: XUDNAN_clean_linker_2, # of connection points: 2
#     Edge 57, Type (0, 1), BuildingBlock: XUDNAN_clean_linker_2, # of connection points: 2
#     Edge 58, Type (0, 1), BuildingBlock: XUDNAN_clean_linker_2, # of connection points: 2
#     Edge 59, Type (0, 1), BuildingBlock: XUDNAN_clean_linker_2, # of connection points: 2
#     Edge 60, Type (0, 1), BuildingBlock: XUDNAN_clean_linker_2, # of connection points: 2
#     Edge 61, Type (0, 1), BuildingBlock: XUDNAN_clean_linker_2, # of connection points: 2
#     Edge 62, Type (0, 1), BuildingBlock: XUDNAN_clean_linker_2, # of connection points: 2
#     Edge 63, Type (0, 1), BuildingBlock: XUDNAN_clean_linker_2, # of connection points: 2
#     Edge 64, Type (0, 1), BuildingBlock: XUDNAN_clean_linker_2, # of connection points: 2
#     Edge 65, Type (0, 1), BuildingBlock: XUDNAN_clean_linker_2, # of connection points: 2
#     Edge 66, Type (0, 1), BuildingBlock: XUDNAN_clean_linker_2, # of connection points: 2
#     Edge 67, Type (0, 1), BuildingBlock: XUDNAN_clean_linker_2, # of connection points: 2
#     Edge 68, Type (0, 1), BuildingBlock: XUDNAN_clean_linker_2, # of connection points: 2
#     Edge 69, Type (0, 1), BuildingBlock: XUDNAN_clean_linker_2, # of connection points: 2
#     Edge 70, Type (0, 1), BuildingBlock: XUDNAN_clean_linker_2, # of connection points: 2
#     Edge 71, Type (0, 1), BuildingBlock: XUDNAN_clean_linker_2, # of connection points: 2
#     Edge 72, Type (0, 1), BuildingBlock: XUDNAN_clean_linker_2, # of connection points: 2
#     Edge 73, Type (0, 1), BuildingBlock: XUDNAN_clean_linker_2, # of connection points: 2
#     Edge 74, Type (0, 1), BuildingBlock: XUDNAN_clean_linker_2, # of connection points: 2
#     Edge 75, Type (0, 1), BuildingBlock: XUDNAN_clean_linker_2, # of connection points: 2
# Relax obj value: 0.051
# Max RMSD: 0.165
# Mean RMSD: 0.106
data_MOF--net-ctn--node1-UXUYUI_clean_sbu_0--node2-BETDAH_clean_linker_0--edge1-XUDNAN_clean_linker_2
_symmetry_space_group_name_H-M    P1
_symmetry_Int_Tables_number       1
_symmetry_cell_setting            triclinic
loop_
_symmetry_equiv_pos_as_xyz
'x, y, z'
_cell_length_a     66.898701
_cell_length_b     67.031728
_cell_length_c     67.864032
_cell_angle_alpha  98.07186
_cell_angle_beta   90.383389
_cell_angle_gamma 94.596003
loop_
_atom_site_label
_atom_site_type_symbol
_atom_site_fract_x
_atom_site_fract_y
_atom_site_fract_z
_atom_type_partial_charge
H0 H 0.07008 0.02213 0.09059 0.0
H1 H 0.09768 0.04458 0.04026 0.0
H2 H 0.04034 0.06368 0.05917 0.0
C3 C 0.0697 0.03152 0.07884 0.0
C4 C 0.05307 0.04284 0.07667 0.0
C5 C 0.08596 0.03231 0.06591 0.0
C6 C 0.08532 0.0441 0.05049 0.0
C7 C 0.06907 0.05536 0.0479 0.0
C8 C 0.05291 0.05486 0.06107 0.0
N9 N 0.06975 0.06644 0.03149 0.0
C10 C 0.05754 0.08134 0.02759 0.0
H11 H 0.33458 0.6945 0.26049 0.0
H12 H 0.33717 0.75742 0.25359 0.0
H13 H 0.28718 0.71744 0.22885 0.0
C14 C 0.32813 0.70688 0.25472 0.0
C15 C 0.3096 0.70346 0.24426 0.0
C16 C 0.33838 0.72621 0.25786 0.0
C17 C 0.32972 0.74229 0.2508 0.0
C18 C 0.31149 0.73917 0.24018 0.0
C19 C 0.30145 0.71974 0.23682 0.0
N20 N 0.30285 0.75618 0.23452 0.0
C21 C 0.2962 0.75738 0.2153 0.0
H22 H 0.02369 0.4578 0.06083 0.0
H23 H 0.97706 0.49698 0.0793 0.0
H24 H 0.96866 0.45282 0.02693 0.0
C25 C 0.00899 0.46291 0.05857 0.0
C26 C 0.99721 0.45371 0.04212 0.0
C27 C 1.00182 0.4783 0.07235 0.0
C28 C 0.98291 0.48526 0.06881 0.0
C29 C 0.97096 0.47597 0.05235 0.0
C30 C 0.97805 0.46002 0.03943 0.0
N31 N 0.95106 0.48091 0.04922 0.0
C32 C 0.94476 0.50036 0.0513 0.0
H33 H 0.77577 0.80997 0.20395 0.0
H34 H 0.73785 0.76045 0.22043 0.0
H35 H 0.73956 0.81852 0.25653 0.0
C36 C 0.76491 0.80414 0.21393 0.0
C37 C 0.75875 0.81684 0.23079 0.0
C38 C 0.75749 0.78377 0.21014 0.0
C39 C 0.74363 0.77619 0.22318 0.0
C40 C 0.73682 0.78859 0.23962 0.0
C41 C 0.74431 0.80903 0.24344 0.0
N42 N 0.72315 0.7794 0.25225 0.0
C43 C 0.71127 0.78917 0.26668 0.0
H44 H 0.06837 0.00778 0.45275 0.0
H45 H 0.07362 0.965 0.494 0.0
H46 H 0.02341 0.95832 0.453 0.0
C47 C 0.06274 0.99424 0.45866 0.0
C48 C 0.04471 0.98383 0.4509 0.0
C49 C 0.0734 0.98756 0.47412 0.0
C50 C 0.0656 0.97025 0.48206 0.0
C51 C 0.04755 0.95961 0.47434 0.0
C52 C 0.03741 0.9664 0.4587 0.0
N53 N 0.03887 0.94218 0.48185 0.0
C54 C 0.04611 0.93367 0.4978 0.0
H55 H 0.28174 0.72319 0.835 0.0
H56 H 0.22315 0.73456 0.81397 0.0
H57 H 0.2549 0.68717 0.78263 0.0
C58 C 0.26915 0.71939 0.82466 0.0
C59 C 0.27033 0.70383 0.80858 0.0
C60 C 0.25222 0.73082 0.82665 0.0
C61 C 0.23633 0.72612 0.81251 0.0
C62 C 0.23728 0.71026 0.79672 0.0
C63 C 0.25417 0.69923 0.795 0.0
N64 N 0.22165 0.70478 0.78222 0.0
C65 C 0.20636 0.71668 0.77839 0.0
H66 H 0.95558 0.55764 0.51377 0.0
H67 H 1.00605 0.55564 0.47467 0.0
H68 H 0.9653 0.50296 0.47485 0.0
C69 C 0.96445 0.5493 0.50268 0.0
C70 C 0.95822 0.52903 0.49542 0.0
C71 C 0.98183 0.55907 0.49557 0.0
C72 C 0.99256 0.54848 0.4802 0.0
C73 C 0.98633 0.52831 0.47255 0.0
C74 C 0.96947 0.5187 0.48043 0.0
N75 N 0.99689 0.51689 0.45737 0.0
C76 C 0.01122 0.52484 0.4452 0.0
H77 H 0.84164 0.75618 0.8123 0.0
H78 H 0.84052 0.80716 0.78033 0.0
H79 H 0.79747 0.79956 0.82557 0.0
C80 C 0.83514 0.76988 0.80968 0.0
C81 C 0.81848 0.77634 0.82085 0.0
C82 C 0.8434 0.78094 0.79507 0.0
C83 C 0.83473 0.79858 0.79175 0.0
C84 C 0.81818 0.80521 0.80243 0.0
C85 C 0.81 0.79411 0.81699 0.0
N86 N 0.81076 0.82345 0.79819 0.0
C87 C 0.79226 0.83051 0.80341 0.0
H88 H 0.33445 0.25524 0.30707 0.0
H89 H 0.31163 0.30523 0.28295 0.0
H90 H 0.28198 0.28142 0.33177 0.0
C91 C 0.32347 0.26631 0.30721 0.0
C92 C 0.30812 0.26657 0.32124 0.0
C93 C 0.3248 0.27994 0.29316 0.0
C94 C 0.31094 0.29482 0.29383 0.0
C95 C 0.2955 0.29536 0.30795 0.0
C96 C 0.29426 0.28124 0.32142 0.0
N97 N 0.28015 0.30893 0.30862 0.0
C98 C 0.27961 0.32578 0.29878 0.0
H99 H 0.51804 0.95987 0.57432 0.0
H100 H 0.47507 0.99678 0.60484 0.0
H101 H 0.46037 0.9639 0.54689 0.0
C102 C 0.50346 0.9659 0.57467 0.0
C103 C 0.48992 0.96024 0.55849 0.0
C104 C 0.49838 0.9793 0.59131 0.0
C105 C 0.47937 0.98678 0.59187 0.0
C106 C 0.46576 0.9815 0.57588 0.0
C107 C 0.47103 0.96823 0.55913 0.0
N108 N 0.44637 0.9886 0.57782 0.0
C109 C 0.43672 0.9972 0.56329 0.0
H110 H 0.27005 0.32531 0.69259 0.0
H111 H 0.24166 0.27314 0.71454 0.0
H112 H 0.25629 0.32784 0.75479 0.0
C113 C 0.26338 0.31829 0.70469 0.0
C114 C 0.26385 0.32928 0.72398 0.0
C115 C 0.25529 0.29809 0.70095 0.0
C116 C 0.24779 0.28877 0.71698 0.0
C117 C 0.24781 0.29951 0.73626 0.0
C118 C 0.25587 0.31976 0.73978 0.0
N119 N 0.24161 0.28897 0.75217 0.0
C120 C 0.22535 0.29366 0.76413 0.0
H121 H 0.83225 0.18996 0.76253 0.0
H122 H 0.83556 0.2366 0.7246 0.0
H123 H 0.78798 0.18907 0.71619 0.0
C124 C 0.8265 0.19642 0.75008 0.0
C125 C 0.80898 0.18724 0.74004 0.0
C126 C 0.83633 0.21417 0.74464 0.0
C127 C 0.82813 0.22301 0.72902 0.0
C128 C 0.81057 0.21389 0.71884 0.0
C129 C 0.80127 0.19612 0.7244 0.0
N130 N 0.80174 0.22166 0.7027 0.0
C131 C 0.80766 0.23962 0.69551 0.0
H132 H 0.57196 0.516 0.59216 0.0
H133 H 0.59232 0.53316 0.53656 0.0
H134 H 0.55224 0.56967 0.57177 0.0
C135 C 0.572 0.52631 0.5812 0.0
C136 C 0.56059 0.54332 0.58424 0.0
C137 C 0.58333 0.52244 0.56392 0.0
C138 C 0.58349 0.53589 0.54987 0.0
C139 C 0.57253 0.55291 0.55257 0.0
C140 C 0.56101 0.55665 0.56977 0.0
N141 N 0.57369 0.56556 0.5374 0.0
C142 C 0.56371 0.58284 0.53641 0.0
H143 H 0.57877 0.50169 0.95045 0.0
H144 H 0.58229 0.47496 1.00464 0.0
H145 H 0.53023 0.46144 0.96629 0.0
C146 C 0.57213 0.4923 0.96085 0.0
C147 C 0.55332 0.48176 0.95626 0.0
C148 C 0.58287 0.48986 0.97821 0.0
C149 C 0.57432 0.47684 0.99117 0.0
C150 C 0.55515 0.4668 0.98692 0.0
C151 C 0.5449 0.46939 0.96956 0.0
N152 N 0.54513 0.45441 0.99977 0.0
C153 C 0.55371 0.44514 0.01449 0.0
H154 H 0.77419 0.21451 0.34121 0.0
H155 H 0.72312 0.23434 0.31259 0.0
H156 H 0.74928 0.18055 0.28684 0.0
C157 C 0.76301 0.21229 0.32932 0.0
C158 C 0.76357 0.19571 0.31414 0.0
C159 C 0.74855 0.22644 0.32888 0.0
C160 C 0.73446 0.22374 0.31298 0.0
C161 C 0.73482 0.2072 0.29776 0.0
C162 C 0.74935 0.19339 0.29849 0.0
N163 N 0.72086 0.20373 0.2815 0.0
C164 C 0.7056 0.21589 0.27817 0.0
H165 H 0.44692 0.06382 0.03096 0.0
H166 H 0.49338 0.06676 0.98741 0.0
H167 H 0.45487 0.01239 0.98697 0.0
C168 C 0.45499 0.0567 0.01845 0.0
C169 C 0.44883 0.03677 0.00995 0.0
C170 C 0.47099 0.06777 0.01036 0.0
C171 C 0.48096 0.05851 0.99366 0.0
C172 C 0.47504 0.0385 0.98526 0.0
C173 C 0.45911 0.02788 0.99347 0.0
N174 N 0.48456 0.02826 0.9686 0.0
C175 C 0.50041 0.03613 0.95815 0.0
Li176 Li 0.27922 0.89373 0.03393 0.0
Li177 Li 0.2623 0.86667 0.05071 0.0
Li178 Li 0.25711 0.86789 0.01381 0.0
Li179 Li 0.24172 0.89221 0.03907 0.0
C180 C 0.30232 0.86339 0.0266 0.0
N181 N 0.34338 0.86288 0.02264 0.0
C182 C 0.31402 0.8578 0.04175 0.0
C183 C 0.31149 0.86846 0.00933 0.0
C184 C 0.33475 0.85769 0.03949 0.0
C185 C 0.33226 0.86819 0.00764 0.0
C186 C 0.26386 0.90073 0.07946 0.0
C187 C 0.24604 0.90176 0.11032 0.0
N188 N 0.26318 0.90942 0.12047 0.0
C189 C 0.28124 0.90886 0.09018 0.0
C190 C 0.24606 0.89736 0.08959 0.0
C191 C 0.28062 0.91305 0.11091 0.0
C192 C 0.3027 0.92669 0.02175 0.0
N193 N 0.30268 0.91231 0.03402 0.0
C194 C 0.33506 0.92574 0.04717 0.0
C195 C 0.31844 0.91159 0.04661 0.0
C196 C 0.33548 0.94081 0.03466 0.0
C197 C 0.31903 0.94107 0.02175 0.0
H198 H 0.28987 0.92724 0.01215 0.0
H199 H 0.31804 0.90015 0.05636 0.0
C200 C 0.25366 0.83134 0.06897 0.0
N201 N 0.26516 0.84919 0.0706 0.0
C202 C 0.25555 0.81813 0.083 0.0
C203 C 0.28133 0.84172 0.09999 0.0
C204 C 0.27893 0.85446 0.08565 0.0
C205 C 0.26954 0.82325 0.09883 0.0
H206 H 0.24302 0.82731 0.05672 0.0
H207 H 0.28837 0.86838 0.08633 0.0
C208 C 0.25307 0.90065 0.99614 0.0
N209 N 0.24422 0.90561 0.95738 0.0
C210 C 0.2339 0.90528 0.99097 0.0
C211 C 0.26781 0.89879 0.98164 0.0
C212 C 0.2297 0.90769 0.97128 0.0
C213 C 0.26302 0.90127 0.96211 0.0
C214 C 0.21711 0.85697 0.03798 0.0
C215 C 0.20316 0.85257 0.02225 0.0
C216 C 0.21085 0.85586 0.05743 0.0
C217 C 0.18307 0.84755 0.02627 0.0
C218 C 0.19063 0.85079 0.06086 0.0
N219 N 0.17727 0.8468 0.04534 0.0
C220 C 0.26831 0.8385 0.98233 0.0
C221 C 0.23825 0.85288 0.97568 0.0
C222 C 0.26729 0.8268 0.96352 0.0
N223 N 0.25404 0.85142 0.98798 0.0
C224 C 0.23662 0.84145 0.95675 0.0
C225 C 0.25137 0.82827 0.95031 0.0
H226 H 0.28062 0.83737 0.99238 0.0
H227 H 0.22695 0.86306 0.98045 0.0
C228 C 0.22603 0.92679 0.05856 0.0
N229 N 0.22037 0.90973 0.04582 0.0
C230 C 0.21263 0.9415 0.06368 0.0
C231 C 0.18759 0.92116 0.04228 0.0
C232 C 0.20147 0.9066 0.03779 0.0
C233 C 0.19321 0.93912 0.05517 0.0
H234 H 0.24119 0.92925 0.06448 0.0
H235 H 0.19733 0.89324 0.0273 0.0
O236 O 0.28202 0.86388 0.02867 0.0
O237 O 0.26421 0.89642 0.05914 0.0
O238 O 0.25739 0.89802 0.0153 0.0
O239 O 0.23685 0.86191 0.03429 0.0
H240 H 0.30719 0.85365 0.05513 0.0
H241 H 0.30266 0.87261 0.99738 0.0
H242 H 0.34399 0.8535 0.05114 0.0
H243 H 0.33955 0.87221 0.9944 0.0
H244 H 0.23237 0.89917 0.11834 0.0
H245 H 0.29509 0.91179 0.0826 0.0
H246 H 0.23235 0.89166 0.08151 0.0
H247 H 0.294 0.9192 0.1194 0.0
H248 H 0.34749 0.92483 0.05723 0.0
H249 H 0.31854 0.95258 0.01208 0.0
H250 H 0.24602 0.80415 0.08154 0.0
H251 H 0.29263 0.84614 0.11162 0.0
H252 H 0.22234 0.90686 1.00198 0.0
H253 H 0.28277 0.89542 0.9854 0.0
H254 H 0.21489 0.91116 0.96706 0.0
H255 H 0.27425 0.89975 0.95072 0.0
H256 H 0.20774 0.85316 0.0071 0.0
H257 H 0.22149 0.85868 0.06975 0.0
H258 H 0.1721 0.84426 0.01424 0.0
H259 H 0.18559 0.84994 0.07585 0.0
H260 H 0.27912 0.81703 0.95924 0.0
H261 H 0.22386 0.84288 0.94731 0.0
H262 H 0.21766 0.9548 0.074 0.0
H263 H 0.17294 0.91871 0.03509 0.0
Li264 Li 0.14391 0.51368 0.27799 0.0
Li265 Li 0.16652 0.49076 0.25982 0.0
Li266 Li 0.17057 0.52796 0.25702 0.0
Li267 Li 0.14244 0.50563 0.24028 0.0
C268 C 0.18064 0.52507 0.29886 0.0
N269 N 0.19483 0.54713 0.33442 0.0
C270 C 0.18836 0.5153 0.31379 0.0
C271 C 0.18053 0.54611 0.30193 0.0
C272 C 0.19534 0.5267 0.3317 0.0
C273 C 0.18766 0.55699 0.32002 0.0
C274 C 0.134 0.46756 0.26356 0.0
C275 C 0.13185 0.43206 0.2506 0.0
N276 N 0.13014 0.4275 0.26946 0.0
C277 C 0.13209 0.46254 0.28279 0.0
C278 C 0.13375 0.45223 0.2473 0.0
C279 C 0.1302 0.44219 0.28547 0.0
C280 C 0.10981 0.52672 0.29866 0.0
N281 N 0.12762 0.51883 0.30114 0.0
C282 C 0.12115 0.51826 0.33574 0.0
C283 C 0.13336 0.51438 0.31919 0.0
C284 C 0.10289 0.52685 0.33371 0.0
C285 C 0.09727 0.53103 0.31483 0.0
H286 H 0.10536 0.52972 0.28408 0.0
H287 H 0.14731 0.50765 0.32074 0.0
C288 C 0.1913 0.45813 0.24666 0.0
N289 N 0.1815 0.46768 0.26233 0.0
C290 C 0.20393 0.443 0.24949 0.0
C291 C 0.19602 0.4477 0.28441 0.0
C292 C 0.18326 0.46238 0.28085 0.0
C293 C 0.20675 0.43803 0.26867 0.0
H294 H 0.18984 0.46267 0.2321 0.0
H295 H 0.17512 0.46995 0.29299 0.0
C296 C 0.13615 0.55166 0.26012 0.0
N297 N 0.12493 0.59088 0.2653 0.0
C298 C 0.12934 0.56015 0.24389 0.0
C299 C 0.13685 0.56306 0.27906 0.0
C300 C 0.12386 0.58002 0.24678 0.0
C301 C 0.13122 0.58286 0.28136 0.0
C302 C 0.17326 0.5012 0.21566 0.0
C303 C 0.18148 0.51669 0.20565 0.0
C304 C 0.16629 0.48263 0.20482 0.0
C305 C 0.18237 0.51341 0.1849 0.0
C306 C 0.16741 0.47995 0.18408 0.0
N307 N 0.17535 0.49527 0.17463 0.0
C308 C 0.20889 0.54891 0.26086 0.0
C309 C 0.18514 0.56602 0.24503 0.0
C310 C 0.22397 0.56406 0.25862 0.0
N311 N 0.1899 0.55015 0.25413 0.0
C312 C 0.19976 0.58156 0.24253 0.0
C313 C 0.21954 0.58065 0.24925 0.0
H314 H 0.21234 0.53604 0.26788 0.0
H315 H 0.17013 0.56646 0.2393 0.0
C316 C 0.1082 0.48907 0.21584 0.0
N317 N 0.12458 0.50265 0.21743 0.0
C318 C 0.09423 0.48836 0.20021 0.0
C319 C 0.11434 0.51544 0.18805 0.0
C320 C 0.12795 0.51551 0.20376 0.0
C321 C 0.09703 0.50195 0.18626 0.0
H322 H 0.1057 0.47914 0.22699 0.0
H323 H 0.14099 0.52625 0.20535 0.0
O324 O 0.17372 0.5141 0.2812 0.0
O325 O 0.13633 0.48739 0.26068 0.0
O326 O 0.14142 0.53211 0.25754 0.0
O327 O 0.17204 0.50421 0.23595 0.0
H328 H 0.18893 0.4991 0.31169 0.0
H329 H 0.17525 0.55405 0.29041 0.0
H330 H 0.20121 0.51929 0.34341 0.0
H331 H 0.18758 0.57328 0.32255 0.0
H332 H 0.13173 0.42003 0.23816 0.0
H333 H 0.13228 0.47423 0.29553 0.0
H334 H 0.13508 0.45586 0.23231 0.0
H335 H 0.12884 0.43808 0.30029 0.0
H336 H 0.12606 0.51478 0.35002 0.0
H337 H 0.08315 0.53729 0.31248 0.0
H338 H 0.21208 0.43591 0.23703 0.0
H339 H 0.19776 0.44416 0.29939 0.0
H340 H 0.12839 0.55159 0.22917 0.0
H341 H 0.1414 0.55666 0.29196 0.0
H342 H 0.11872 0.58678 0.2343 0.0
H343 H 0.13176 0.59182 0.29594 0.0
H344 H 0.18703 0.53112 0.2138 0.0
H345 H 0.15993 0.47048 0.21233 0.0
H346 H 0.18861 0.52529 0.17695 0.0
H347 H 0.16195 0.4657 0.1755 0.0
H348 H 0.23893 0.5628 0.26424 0.0
H349 H 0.19573 0.59387 0.23493 0.0
H350 H 0.08104 0.47779 0.19948 0.0
H351 H 0.11726 0.52598 0.17749 0.0
Li352 Li 0.76256 0.62956 0.99633 0.0
Li353 Li 0.7785 0.66002 0.01957 0.0
Li354 Li 0.7834 0.65585 0.9825 0.0
Li355 Li 0.79936 0.63434 1.00265 0.0
C356 C 0.73863 0.66264 0.99603 0.0
N357 N 0.69868 0.66968 0.99292 0.0
C358 C 0.72797 0.66908 0.01308 0.0
C359 C 0.72906 0.6601 0.97737 0.0
C360 C 0.70776 0.67247 0.01121 0.0
C361 C 0.70883 0.66364 0.97612 0.0
C362 C 0.78462 0.61819 0.03362 0.0
C363 C 0.80544 0.61247 0.06109 0.0
N364 N 0.80123 0.59219 0.05607 0.0
C365 C 0.78041 0.59731 0.02878 0.0
C366 C 0.79715 0.62588 0.04994 0.0
C367 C 0.78898 0.58441 0.04032 0.0
C368 C 0.74189 0.59143 0.98219 0.0
N369 N 0.73966 0.60979 0.993 0.0
C370 C 0.70602 0.59888 1.00092 0.0
C371 C 0.72219 0.61365 1.00241 0.0
C372 C 0.70798 0.57972 0.99007 0.0
C373 C 0.72622 0.57611 0.98058 0.0
H374 H 0.75603 0.58852 0.97516 0.0
H375 H 0.72091 0.62801 0.01153 0.0
C376 C 0.78346 0.69677 0.04722 0.0
N377 N 0.77543 0.67727 0.04404 0.0
C378 C 0.78286 0.70814 0.06617 0.0
C379 C 0.76534 0.67925 0.07791 0.0
C380 C 0.76616 0.66854 0.05881 0.0
C381 C 0.77412 0.69919 0.08192 0.0
H382 H 0.79083 0.70331 0.03522 0.0
H383 H 0.75986 0.65302 0.05585 0.0
C384 C 0.78306 0.61976 0.95708 0.0
N385 N 0.7799 0.60814 0.91643 0.0
C386 C 0.79964 0.61306 0.94644 0.0
C387 C 0.76481 0.62028 0.94713 0.0
C388 C 0.79776 0.60733 0.92587 0.0
C389 C 0.76353 0.61442 0.92655 0.0
C390 C 0.82123 0.67127 0.99668 0.0
C391 C 0.83097 0.6587 0.9823 0.0
C392 C 0.82924 0.69112 1.00262 0.0
C393 C 0.84861 0.66622 0.97407 0.0
C394 C 0.84692 0.69808 0.99403 0.0
N395 N 0.85615 0.68559 0.98005 0.0
C396 C 0.77404 0.68684 0.96053 0.0
C397 C 0.79896 0.66706 0.9453 0.0
C398 C 0.77476 0.69867 0.94509 0.0
N399 N 0.78587 0.67124 0.96032 0.0
C400 C 0.80027 0.67862 0.92959 0.0
C401 C 0.78794 0.69461 0.92925 0.0
H402 H 0.76401 0.69016 0.97277 0.0
H403 H 0.80843 0.65478 0.94543 0.0
C404 C 0.82275 0.60024 1.00115 0.0
N405 N 0.82233 0.62025 0.00805 0.0
C406 C 0.83805 0.5893 0.00733 0.0
C407 C 0.85257 0.61991 0.02701 0.0
C408 C 0.83696 0.63022 0.02055 0.0
C409 C 0.85311 0.59905 0.02072 0.0
H410 H 0.81075 0.5926 0.99148 0.0
H411 H 0.83615 0.64608 0.02603 0.0
O412 O 0.75844 0.65931 0.9976 0.0
O413 O 0.77696 0.63102 0.0221 0.0
O414 O 0.78469 0.62564 0.97719 0.0
O415 O 0.80383 0.66431 1.00481 0.0
H416 H 0.73519 0.67128 0.02762 0.0
H417 H 0.73719 0.65558 0.96398 0.0
H418 H 0.69929 0.67732 0.02429 0.0
H419 H 0.70122 0.66167 0.96178 0.0
H420 H 0.81531 0.61819 0.07366 0.0
H421 H 0.77083 0.59114 0.01612 0.0
H422 H 0.8007 0.64201 0.05375 0.0
H423 H 0.78596 0.56821 0.03669 0.0
H424 H 0.69235 0.60219 0.00875 0.0
H425 H 0.72837 0.56155 0.97205 0.0
H426 H 0.78987 0.72343 0.06865 0.0
H427 H 0.75817 0.67188 0.08954 0.0
H428 H 0.81383 0.61239 0.95398 0.0
H429 H 0.75178 0.62507 0.95522 0.0
H430 H 0.81049 0.60223 0.91741 0.0
H431 H 0.74951 0.61481 0.91863 0.0
H432 H 0.82492 0.64335 0.97745 0.0
H433 H 0.82186 0.70106 0.01371 0.0
H434 H 0.85627 0.65666 0.96289 0.0
H435 H 0.85328 0.71342 0.99847 0.0
H436 H 0.76522 0.71104 0.9457 0.0
H437 H 0.81058 0.67483 0.91767 0.0
H438 H 0.83761 0.57322 1.00227 0.0
H439 H 0.86395 0.62819 0.03706 0.0
Li440 Li 0.89806 0.036 0.26746 0.0
Li441 Li 0.92366 0.01453 0.28055 0.0
Li442 Li 0.9207 0.01913 0.24347 0.0
Li443 Li 0.8953 0.99919 0.25899 0.0
C444 C 0.9328 0.05984 0.27326 0.0
N445 N 0.9413 0.10073 0.28562 0.0
C446 C 0.93994 0.06671 0.29263 0.0
C447 C 0.93025 0.07374 0.2601 0.0
C448 C 0.94408 0.08745 0.29861 0.0
C449 C 0.93455 0.09436 0.26665 0.0
C450 C 0.87971 0.00589 0.29489 0.0
C451 C 0.86767 0.98069 0.315 0.0
N452 N 0.84852 0.985 0.31165 0.0
C453 C 0.85994 0.01017 0.29173 0.0
C454 C 0.88367 0.99112 0.30667 0.0
C455 C 0.84436 0.99939 0.3003 0.0
C456 C 0.86756 0.06295 0.26388 0.0
N457 N 0.88306 0.05907 0.27546 0.0
C458 C 0.87558 0.08613 0.30059 0.0
C459 C 0.88715 0.07024 0.29357 0.0
C460 C 0.85928 0.09041 0.28909 0.0
C461 C 0.85548 0.07862 0.27039 0.0
H462 H 0.86416 0.05348 0.24983 0.0
H463 H 0.89915 0.06652 0.30279 0.0
C464 C 0.9581 1.00357 0.30116 0.0
N465 N 0.94052 0.0125 0.30304 0.0
C466 C 0.96992 1.0024 0.31804 0.0
C467 C 0.94552 0.02001 0.33834 0.0
C468 C 0.93405 0.02054 0.32117 0.0
C469 C 0.96372 0.01086 0.33692 0.0
H470 H 0.96301 0.99744 0.28656 0.0
H471 H 0.92001 0.02755 0.32224 0.0
C472 C 0.88747 0.02275 0.22235 0.0
N473 N 0.88124 0.0289 0.18343 0.0
C474 C 0.88078 0.00654 0.20794 0.0
C475 C 0.89078 0.04211 0.217 0.0
C476 C 0.87776 0.00995 0.18833 0.0
C477 C 0.88761 0.0449 0.19724 0.0
C478 C 0.92415 0.97384 0.25008 0.0
C479 C 0.91562 0.96531 0.23166 0.0
C480 C 0.93228 0.96142 0.26243 0.0
C481 C 0.91531 0.94444 0.2259 0.0
C482 C 0.93172 0.94062 0.25612 0.0
N483 N 0.92331 0.93263 0.23814 0.0
C484 C 0.95188 0.03675 0.22086 0.0
C485 C 0.93176 0.00978 0.20244 0.0
C486 C 0.96308 0.03962 0.20393 0.0
N487 N 0.93637 0.02215 0.21981 0.0
C488 C 0.94236 0.01228 0.18514 0.0
C489 C 0.95819 0.02745 0.18567 0.0
H490 H 0.95553 0.04626 0.23483 0.0
H491 H 0.91975 0.99799 0.20186 0.0
C492 C 0.85781 0.97824 0.24634 0.0
N493 N 0.87539 0.97618 0.25575 0.0
C494 C 0.84246 0.9626 0.24429 0.0
C495 C 0.86338 0.94298 0.26187 0.0
C496 C 0.87824 0.95908 0.26377 0.0
C497 C 0.84516 0.94462 0.25203 0.0
H498 H 0.85556 0.99219 0.24067 0.0
H499 H 0.89188 0.95805 0.27201 0.0
O500 O 0.92843 0.03961 0.26722 0.0
O501 O 0.89509 0.01581 0.28612 0.0
O502 O 0.89072 0.01968 0.24158 0.0
O503 O 0.92452 0.99423 0.25602 0.0
H504 H 0.94215 0.05617 0.30297 0.0
H505 H 0.92506 0.06868 0.24498 0.0
H506 H 0.9495 0.09298 0.3136 0.0
H507 H 0.93256 0.10529 0.25664 0.0
H508 H 0.87048 0.96912 0.32406 0.0
H509 H 0.85666 0.02151 0.28255 0.0
H510 H 0.89891 0.98757 0.30913 0.0
H511 H 0.82896 1.00243 0.29788 0.0
H512 H 0.8793 0.09485 0.31499 0.0
H513 H 0.84288 0.08098 0.26114 0.0
H514 H 0.98395 0.99538 0.31631 0.0
H515 H 0.94014 0.02659 0.35262 0.0
H516 H 0.87824 0.99142 0.21175 0.0
H517 H 0.89571 0.05485 0.22798 0.0
H518 H 0.87273 0.99752 0.177 0.0
H519 H 0.8902 0.0598 0.19288 0.0
H520 H 0.90892 0.97462 0.22212 0.0
H521 H 0.93877 0.96771 0.27681 0.0
H522 H 0.90862 0.93762 0.21175 0.0
H523 H 0.93791 0.93081 0.26554 0.0
H524 H 0.97514 0.05152 0.20503 0.0
H525 H 0.93827 1.0023 0.1715 0.0
H526 H 0.82866 0.96454 0.23661 0.0
H527 H 0.86593 0.92957 0.26846 0.0
Li528 Li 0.2719 0.15393 0.52153 0.0
Li529 Li 0.25425 0.12399 0.50092 0.0
Li530 Li 0.29143 0.12675 0.50546 0.0
Li531 Li 0.2757 0.14832 0.4847 0.0
C532 C 0.27182 0.12051 0.54444 0.0
N533 N 0.27464 0.11109 0.58267 0.0
C534 C 0.25475 0.11317 0.55378 0.0
C535 C 0.29037 0.12274 0.55444 0.0
C536 C 0.25647 0.10859 0.57315 0.0
C537 C 0.29148 0.11797 0.57378 0.0
C538 C 0.23552 0.15587 0.48769 0.0
C539 C 0.2153 0.1446 0.45806 0.0
N540 N 0.20494 0.16133 0.46191 0.0
C541 C 0.22469 0.17293 0.49136 0.0
C542 C 0.23081 0.14156 0.47092 0.0
C543 C 0.20927 0.17543 0.47815 0.0
C544 C 0.27758 0.19324 0.5429 0.0
N545 N 0.26943 0.17423 0.54417 0.0
C546 C 0.25721 0.18513 0.57668 0.0
C547 C 0.25929 0.16997 0.56058 0.0
C548 C 0.26538 0.20495 0.57575 0.0
C549 C 0.27574 0.20888 0.55857 0.0
H550 H 0.2854 0.19629 0.52961 0.0
H551 H 0.25247 0.15492 0.5611 0.0
C552 C 0.22926 0.08812 0.48718 0.0
N553 N 0.23036 0.10601 0.49954 0.0
C554 C 0.21214 0.0746 0.48676 0.0
C555 C 0.19764 0.09814 0.51182 0.0
C556 C 0.21494 0.11129 0.51159 0.0
C557 C 0.19611 0.07945 0.49936 0.0
H558 H 0.24178 0.08424 0.47784 0.0
H559 H 0.21621 0.12564 0.52124 0.0
C560 C 0.31492 0.16477 0.5131 0.0
N561 N 0.35202 0.18149 0.52796 0.0
C562 C 0.32931 0.17183 0.50033 0.0
C563 C 0.3193 0.16651 0.53346 0.0
C564 C 0.34802 0.18014 0.50812 0.0
C565 C 0.33816 0.17493 0.54068 0.0
C566 C 0.2876 0.11178 0.46515 0.0
C567 C 0.30584 0.12287 0.46296 0.0
C568 C 0.28219 0.09433 0.45178 0.0
C569 C 0.31842 0.11629 0.44746 0.0
C570 C 0.29518 0.08823 0.43645 0.0
N571 N 0.31288 0.09925 0.43463 0.0
C572 C 0.30846 0.09225 0.51462 0.0
C573 C 0.33282 0.11657 0.5052 0.0
C574 C 0.32328 0.07936 0.51759 0.0
N575 N 0.31342 0.11054 0.50873 0.0
C576 C 0.34814 0.10412 0.50792 0.0
C577 C 0.34349 0.08524 0.51431 0.0
H578 H 0.2929 0.08768 0.51708 0.0
H579 H 0.33648 0.13099 0.50021 0.0
C580 C 0.28786 0.18101 0.46364 0.0
N581 N 0.27884 0.16189 0.46155 0.0
C582 C 0.29126 0.1909 0.44695 0.0
C583 C 0.27562 0.16142 0.42634 0.0
C584 C 0.27254 0.15212 0.44338 0.0
C585 C 0.28533 0.18102 0.42789 0.0
H586 H 0.2927 0.18848 0.47825 0.0
H587 H 0.26532 0.13696 0.44207 0.0
O588 O 0.27037 0.12497 0.52543 0.0
O589 O 0.25071 0.1533 0.50045 0.0
O590 O 0.29651 0.15664 0.50569 0.0
O591 O 0.275 0.11797 0.48019 0.0
H592 H 0.24031 0.11116 0.54621 0.0
H593 H 0.30383 0.12785 0.54729 0.0
H594 H 0.24336 0.10304 0.5806 0.0
H595 H 0.30574 0.11967 0.58169 0.0
H596 H 0.21152 0.13367 0.44501 0.0
H597 H 0.22818 0.18415 0.50428 0.0
H598 H 0.23907 0.12829 0.4678 0.0
H599 H 0.20076 0.18857 0.48079 0.0
H600 H 0.24883 0.1815 0.58949 0.0
H601 H 0.28241 0.22389 0.55727 0.0
H602 H 0.21166 0.06029 0.47704 0.0
H603 H 0.18556 0.1026 0.52159 0.0
H604 H 0.32612 0.17081 0.48455 0.0
H605 H 0.30819 0.16166 0.54363 0.0
H606 H 0.35933 0.18555 0.49839 0.0
H607 H 0.34175 0.17633 0.5564 0.0
H608 H 0.31023 0.13645 0.47306 0.0
H609 H 0.26809 0.08559 0.45318 0.0
H610 H 0.33258 0.12476 0.44562 0.0
H611 H 0.29117 0.07475 0.426 0.0
H612 H 0.3189 0.06483 0.52219 0.0
H613 H 0.3635 0.10938 0.50533 0.0
H614 H 0.29895 0.2059 0.44892 0.0
H615 H 0.27044 0.1533 0.41206 0.0
Li616 Li 0.43074 0.52362 0.79092 0.0
Li617 Li 0.40697 0.54584 0.77849 0.0
Li618 Li 0.40391 0.50792 0.76775 0.0
Li619 Li 0.431 0.52968 0.75467 0.0
C620 C 0.39844 0.52164 0.81445 0.0
N621 N 0.39346 0.51801 0.85422 0.0
C622 C 0.39333 0.53816 0.82785 0.0
C623 C 0.40082 0.50321 0.82125 0.0
C624 C 0.39091 0.53604 0.84791 0.0
C625 C 0.39831 0.5017 0.84142 0.0
C626 C 0.44281 0.56908 0.78651 0.0
C627 C 0.45092 0.60354 0.78093 0.0
N628 N 0.45459 0.60901 0.80076 0.0
C629 C 0.44687 0.57501 0.80681 0.0
C630 C 0.44505 0.58343 0.77342 0.0
C631 C 0.45273 0.59527 0.81374 0.0
C632 C 0.46241 0.50571 0.80686 0.0
N633 N 0.44815 0.51866 0.81236 0.0
C634 C 0.45898 0.52161 0.84651 0.0
C635 C 0.44647 0.52691 0.83175 0.0
C636 C 0.47331 0.50766 0.84128 0.0
C637 C 0.4751 0.49993 0.82109 0.0
H638 H 0.4638 0.49961 0.79137 0.0
H639 H 0.43524 0.53735 0.83588 0.0
C640 C 0.37585 0.56994 0.77135 0.0
N641 N 0.39144 0.56922 0.78414 0.0
C642 C 0.3644 0.58661 0.77325 0.0
C643 C 0.38411 0.60107 0.80244 0.0
C644 C 0.3955 0.58423 0.79973 0.0
C645 C 0.36859 0.60253 0.78882 0.0
H646 H 0.37236 0.55763 0.75947 0.0
H647 H 0.40755 0.58322 0.81009 0.0
C648 C 0.43292 0.48372 0.75992 0.0
N649 N 0.43159 0.44258 0.74738 0.0
C650 C 0.43566 0.47643 0.73988 0.0
C651 C 0.42976 0.47009 0.77362 0.0
C652 C 0.43487 0.45558 0.73382 0.0
C653 C 0.42907 0.44936 0.76698 0.0
C654 C 0.39852 0.53707 0.73354 0.0
C655 C 0.38924 0.52432 0.71745 0.0
C656 C 0.40484 0.55702 0.73143 0.0
C657 C 0.38675 0.53167 0.69938 0.0
C658 C 0.40208 0.56381 0.71314 0.0
N659 N 0.39319 0.55109 0.69761 0.0
C660 C 0.37254 0.4784 0.7752 0.0
C661 C 0.38387 0.47486 0.74201 0.0
C662 C 0.35812 0.46206 0.77039 0.0
N663 N 0.38501 0.48453 0.76105 0.0
C664 C 0.36948 0.45868 0.73648 0.0
C665 C 0.35625 0.4522 0.75073 0.0
H666 H 0.37345 0.48644 0.79015 0.0
H667 H 0.39398 0.47988 0.73102 0.0
C668 C 0.46532 0.54593 0.73631 0.0
N669 N 0.44814 0.53367 0.73242 0.0
C670 C 0.4782 0.54986 0.72091 0.0
C671 C 0.45593 0.52794 0.69772 0.0
C672 C 0.44336 0.52457 0.71357 0.0
C673 C 0.47357 0.5409 0.70125 0.0
H674 H 0.46905 0.5527 0.75142 0.0
H675 H 0.42976 0.51469 0.71078 0.0
O676 O 0.40091 0.52347 0.79476 0.0
O677 O 0.43708 0.54928 0.77948 0.0
O678 O 0.43325 0.50407 0.76608 0.0
O679 O 0.40141 0.53009 0.75128 0.0
H680 H 0.39124 0.55246 0.82285 0.0
H681 H 0.40467 0.49024 0.81109 0.0
H682 H 0.38702 0.54872 0.85845 0.0
H683 H 0.40023 0.48756 0.84689 0.0
H684 H 0.45264 0.6148 0.77096 0.0
H685 H 0.44531 0.56415 0.81713 0.0
H686 H 0.44248 0.57909 0.75762 0.0
H687 H 0.45577 0.60007 0.82944 0.0
H688 H 0.45701 0.52788 0.86191 0.0
H689 H 0.48617 0.48942 0.81631 0.0
H690 H 0.35237 0.58707 0.76259 0.0
H691 H 0.38773 0.61305 0.81468 0.0
H692 H 0.4382 0.48674 0.7291 0.0
H693 H 0.42786 0.47547 0.78921 0.0
H694 H 0.43684 0.44973 0.71833 0.0
H695 H 0.42653 0.43864 0.77741 0.0
H696 H 0.38401 0.50892 0.71884 0.0
H697 H 0.41167 0.56718 0.74383 0.0
H698 H 0.37968 0.52193 0.68678 0.0
H699 H 0.40697 0.57921 0.71131 0.0
H700 H 0.34808 0.45766 0.78176 0.0
H701 H 0.36864 0.45138 0.72118 0.0
H702 H 0.49179 0.55967 0.72442 0.0
H703 H 0.45169 0.52078 0.68281 0.0
Li704 Li 0.78231 0.39741 0.53118 0.0
Li705 Li 0.77125 0.37091 0.55063 0.0
Li706 Li 0.76285 0.36784 0.51303 0.0
Li707 Li 0.74693 0.39211 0.53809 0.0
C708 C 0.80866 0.37088 0.52165 0.0
N709 N 0.84809 0.37716 0.51069 0.0
C710 C 0.82415 0.3714 0.53567 0.0
C711 C 0.81319 0.37339 0.50203 0.0
C712 C 0.84401 0.37463 0.52983 0.0
C713 C 0.83323 0.37659 0.49679 0.0
C714 C 0.76507 0.40526 0.57718 0.0
C715 C 0.74266 0.4023 0.6045 0.0
N716 N 0.75618 0.41409 0.61701 0.0
C717 C 0.77869 0.41745 0.59028 0.0
C718 C 0.74689 0.39769 0.58433 0.0
C719 C 0.77394 0.42169 0.61037 0.0
C720 C 0.80777 0.42519 0.51176 0.0
N721 N 0.80469 0.41674 0.52869 0.0
C722 C 0.8346 0.4347 0.54358 0.0
C723 C 0.81773 0.42117 0.54441 0.0
C724 C 0.83807 0.44403 0.52645 0.0
C725 C 0.82434 0.43902 0.51036 0.0
H726 H 0.79736 0.42118 0.4993 0.0
H727 H 0.81519 0.41388 0.55752 0.0
C728 C 0.7697 0.33759 0.57273 0.0
N729 N 0.77845 0.35643 0.57174 0.0
C730 C 0.7748 0.32703 0.58818 0.0
C731 C 0.79818 0.35525 0.60106 0.0
C732 C 0.79258 0.36528 0.58541 0.0
C733 C 0.78921 0.33585 0.6027 0.0
H734 H 0.75872 0.33074 0.56152 0.0
H735 H 0.79961 0.38011 0.58408 0.0
C736 C 0.75521 0.41547 0.5082 0.0
N737 N 0.74627 0.45314 0.50034 0.0
C738 C 0.75952 0.43252 0.52242 0.0
C739 C 0.74636 0.41759 0.48998 0.0
C740 C 0.75488 0.45143 0.51817 0.0
C741 C 0.74195 0.43676 0.48629 0.0
C742 C 0.72717 0.35192 0.53798 0.0
C743 C 0.71524 0.34416 0.52123 0.0
C744 C 0.72053 0.34877 0.55688 0.0
C745 C 0.69662 0.33389 0.52371 0.0
C746 C 0.70183 0.33841 0.55874 0.0
N747 N 0.69034 0.33128 0.54226 0.0
C748 C 0.77103 0.33461 0.48371 0.0
C749 C 0.7455 0.35444 0.47497 0.0
C750 C 0.76913 0.32252 0.46508 0.0
N751 N 0.75936 0.35027 0.48821 0.0
C752 C 0.74302 0.34271 0.45626 0.0
C753 C 0.75507 0.3266 0.45094 0.0
H754 H 0.78207 0.33171 0.49445 0.0
H755 H 0.73638 0.36695 0.47895 0.0
C756 C 0.72264 0.42396 0.55421 0.0
N757 N 0.72237 0.40549 0.54285 0.0
C758 C 0.70532 0.4345 0.55606 0.0
C759 C 0.68756 0.40659 0.53504 0.0
C760 C 0.70526 0.39681 0.5333 0.0
C761 C 0.68742 0.42595 0.5462 0.0
H762 H 0.73649 0.43085 0.56135 0.0
H763 H 0.70542 0.38251 0.52384 0.0
O764 O 0.78913 0.36837 0.52718 0.0
O765 O 0.76966 0.40071 0.55753 0.0
O766 O 0.75935 0.39674 0.51211 0.0
O767 O 0.74557 0.3618 0.53575 0.0
H768 H 0.82086 0.36955 0.55092 0.0
H769 H 0.80133 0.37315 0.49105 0.0
H770 H 0.85616 0.3752 0.54054 0.0
H771 H 0.83697 0.3787 0.4817 0.0
H772 H 0.72862 0.39653 0.6102 0.0
H773 H 0.79282 0.42351 0.58501 0.0
H774 H 0.73606 0.38857 0.57435 0.0
H775 H 0.78438 0.43104 0.62068 0.0
H776 H 0.84494 0.43758 0.55618 0.0
H777 H 0.8262 0.44588 0.4969 0.0
H778 H 0.7673 0.31223 0.58886 0.0
H779 H 0.80962 0.36254 0.61162 0.0
H780 H 0.76633 0.43119 0.53663 0.0
H781 H 0.74291 0.40455 0.47881 0.0
H782 H 0.75812 0.46474 0.52906 0.0
H783 H 0.73509 0.43862 0.47225 0.0
H784 H 0.7202 0.34622 0.50648 0.0
H785 H 0.72977 0.35404 0.56999 0.0
H786 H 0.68717 0.32799 0.51088 0.0
H787 H 0.69649 0.33595 0.57328 0.0
H788 H 0.77893 0.31046 0.46164 0.0
H789 H 0.73174 0.34626 0.44607 0.0
H790 H 0.70622 0.44948 0.56454 0.0
H791 H 0.67418 0.39909 0.5274 0.0
Li792 Li 0.65982 0.98477 0.78131 0.0
Li793 Li 0.63868 0.01124 0.79655 0.0
Li794 Li 0.63824 1.00071 0.75918 0.0
Li795 Li 0.66689 0.02154 0.77612 0.0
C796 C 0.62133 0.96525 0.78041 0.0
N797 N 0.60441 0.92618 0.77986 0.0
C798 C 0.61056 0.9599 0.79673 0.0
C799 C 0.6233 0.95078 0.76374 0.0
C800 C 0.60217 0.94006 0.79618 0.0
C801 C 0.61469 0.9311 0.76376 0.0
C802 C 0.67179 0.01305 0.82113 0.0
C803 C 0.6799 0.03658 0.85092 0.0
N804 N 0.67948 0.0209 0.86168 0.0
C805 C 0.67171 0.99716 0.83245 0.0
C806 C 0.67615 0.03291 0.8304 0.0
C807 C 0.67552 1.00144 0.85293 0.0
C808 C 0.69094 0.95857 0.77754 0.0
N809 N 0.67252 0.96086 0.78549 0.0
C810 C 0.67442 0.93104 0.80096 0.0
C811 C 0.66415 0.94746 0.797 0.0
C812 C 0.6936 0.9284 0.79315 0.0
C813 C 0.70175 0.94239 0.78113 0.0
H814 H 0.69744 0.9696 0.76872 0.0
H815 H 0.64975 0.94978 0.80362 0.0
C816 C 0.61132 0.03523 0.81936 0.0
N817 N 0.62257 0.01919 0.81922 0.0
C818 C 0.59931 0.04104 0.83562 0.0
C819 C 0.61037 0.01351 0.85121 0.0
C820 C 0.62216 0.00825 0.83466 0.0
C821 C 0.59869 0.03011 0.85185 0.0
H822 H 0.61138 0.04337 0.80671 0.0
H823 H 0.63077 0.99523 0.83404 0.0
C824 C 0.67084 0.98878 0.73732 0.0
N825 N 0.67787 0.97336 0.69827 0.0
C826 C 0.67701 1.00176 0.72372 0.0
C827 C 0.66865 0.96792 0.73116 0.0
C828 C 0.68036 0.99369 0.70402 0.0
C829 C 0.67218 0.96043 0.71133 0.0
C830 C 0.63911 0.04878 0.77487 0.0
C831 C 0.63259 0.05676 0.75822 0.0
C832 C 0.64635 0.06187 0.7917 0.0
C833 C 0.6338 0.07771 0.75855 0.0
C834 C 0.64734 0.08273 0.79146 0.0
N835 N 0.64113 0.09016 0.77502 0.0
C836 C 0.60464 0.98487 0.7334 0.0
C837 C 0.62715 0.00923 0.72129 0.0
C838 C 0.59194 0.98418 0.71679 0.0
N839 N 0.62184 0.99733 0.73538 0.0
C840 C 0.61479 0.00923 0.70463 0.0
C841 C 0.59679 0.99678 0.70235 0.0
H842 H 0.60037 0.97597 0.74501 0.0
H843 H 0.64065 0.01932 0.72337 0.0
C844 C 0.70386 0.04473 0.78559 0.0
N845 N 0.68766 0.0422 0.77303 0.0
C846 C 0.71946 0.05942 0.78356 0.0
C847 C 0.70152 0.06859 0.75559 0.0
C848 C 0.68628 0.0537 0.75816 0.0
C849 C 0.71846 0.07158 0.76835 0.0
H850 H 0.70474 0.03521 0.79713 0.0
H851 H 0.67344 0.05117 0.74812 0.0
O852 O 0.62984 0.98455 0.78079 0.0
O853 O 0.66802 0.00912 0.80104 0.0
O854 O 0.66744 0.99642 0.75668 0.0
O855 O 0.6384 0.02829 0.77472 0.0
H856 H 0.60873 0.97093 0.80968 0.0
H857 H 0.63122 0.95477 0.75085 0.0
H858 H 0.59387 0.93569 0.80874 0.0
H859 H 0.61613 0.91975 0.75096 0.0
H860 H 0.68321 0.05189 0.85828 0.0
H861 H 0.66848 0.9817 0.82556 0.0
H862 H 0.67683 0.04538 0.82186 0.0
H863 H 0.67531 0.98928 0.86188 0.0
H864 H 0.66743 0.92061 0.81017 0.0
H865 H 0.7166 0.94124 0.77506 0.0
H866 H 0.59025 0.05366 0.83524 0.0
H867 H 0.61045 1.00466 0.86339 0.0
H868 H 0.67905 0.01791 0.72829 0.0
H869 H 0.66446 0.9576 0.74159 0.0
H870 H 0.68497 1.00358 0.69329 0.0
H871 H 0.67046 0.94432 0.70635 0.0
H872 H 0.62664 0.04693 0.74517 0.0
H873 H 0.65108 0.05597 0.80482 0.0
H874 H 0.62891 0.08408 0.74572 0.0
H875 H 0.65301 0.09301 0.80437 0.0
H876 H 0.57804 0.97458 0.71571 0.0
H877 H 0.61909 0.01914 0.69381 0.0
H878 H 0.73213 0.06128 0.79385 0.0
H879 H 0.70023 0.07735 0.74346 0.0
Li880 Li 0.04947 0.25492 0.88083 0.0
Li881 Li 0.0257 0.27128 0.90582 0.0
Li882 Li 0.02845 0.23517 0.90231 0.0
Li883 Li 0.01114 0.24942 0.87696 0.0
C884 C 0.06044 0.24982 0.92422 0.0
N885 N 0.08016 0.23297 0.95289 0.0
C886 C 0.05461 0.25321 0.94406 0.0
C887 C 0.07635 0.23797 0.91894 0.0
C888 C 0.06475 0.24451 0.95834 0.0
C889 C 0.08613 0.22957 0.93367 0.0
C890 C 0.03002 0.29533 0.87916 0.0
C891 C 0.01374 0.32645 0.88288 0.0
N892 N 0.032 0.33709 0.88499 0.0
C893 C 0.04861 0.30657 0.88132 0.0
C894 C 0.01243 0.30533 0.87992 0.0
C895 C 0.0493 0.32767 0.88427 0.0
C896 C 0.07453 0.25533 0.8471 0.0
N897 N 0.07412 0.25962 0.86728 0.0
C898 C 0.1078 0.27482 0.86822 0.0
C899 C 0.09037 0.26895 0.87792 0.0
C900 C 0.10856 0.27107 0.84732 0.0
C901 C 0.09171 0.26085 0.83678 0.0
H902 H 0.0613 0.24813 0.83897 0.0
H903 H 0.08957 0.27243 0.89394 0.0
C904 C 0.00629 0.30377 0.92806 0.0
N905 N 0.02402 0.29553 0.92423 0.0
C906 C 1.00572 0.32214 0.94057 0.0
C907 C 0.04154 0.32282 0.94565 0.0
C908 C 0.04145 0.3046 0.9328 0.0
C909 C 0.02353 0.33202 0.94955 0.0
H910 H 0.99264 0.29636 0.92107 0.0
H911 H 0.05537 0.29774 0.92951 0.0
C912 C 0.03461 0.20935 0.86889 0.0
N913 N 0.04004 0.1686 0.86122 0.0
C914 C 0.01857 0.19503 0.87054 0.0
C915 C 0.05339 0.20298 0.86322 0.0
C916 C 0.02164 0.17449 0.86666 0.0
C917 C 0.05583 0.1823 0.85942 0.0
C918 C 0.9836 0.24446 0.90335 0.0
C919 C 0.97585 0.22479 0.90508 0.0
C920 C 0.97061 0.25864 0.89897 0.0
C921 C 0.95523 0.21971 0.90261 0.0
C922 C 0.95009 0.25296 0.89654 0.0
N923 N 0.94289 0.23378 0.89843 0.0
C924 C 0.01688 0.21509 0.93491 0.0
C925 C 0.04161 0.19851 0.91567 0.0
C926 C 0.01671 0.20092 0.94822 0.0
N927 N 0.02894 0.21352 0.91878 0.0
C928 C 0.04197 0.18402 0.92865 0.0
C929 C 0.02933 0.18503 0.94518 0.0
H930 H 0.00753 0.22759 0.93763 0.0
H931 H 0.05177 0.19793 0.90337 0.0
C932 C 0.98852 0.26134 0.84576 0.0
N933 N 0.98983 0.24621 0.857 0.0
C934 C 0.9726 0.26083 0.8322 0.0
C935 C 0.95996 0.22871 0.84132 0.0
C936 C 0.97625 0.22978 0.85459 0.0
C937 C 0.95777 0.24454 0.83007 0.0
H938 H 0.99979 0.27396 0.84739 0.0
H939 H 0.97771 0.2177 0.86334 0.0
O940 O 0.0503 0.25766 0.90995 0.0
O941 O 0.02904 0.27466 0.87698 0.0
O942 O 0.03195 0.22951 0.87257 0.0
O943 O 1.00377 0.24976 0.90572 0.0
H944 H 0.04223 0.26225 0.94833 0.0
H945 H 0.08089 0.23505 0.9036 0.0
H946 H 0.06033 0.24689 0.97374 0.0
H947 H 0.09839 0.22026 0.9298 0.0
H948 H 1.00025 0.33437 0.88364 0.0
H949 H 0.06237 0.29912 0.88096 0.0
H950 H 0.99789 0.2969 0.87858 0.0
H951 H 0.06359 0.33655 0.88605 0.0
H952 H 0.12048 0.28241 0.877 0.0
H953 H 0.09151 0.25782 0.82068 0.0
H954 H 0.99149 0.32869 0.9428 0.0
H955 H 0.05562 0.32955 0.95246 0.0
H956 H 1.004 0.19973 0.87502 0.0
H957 H 0.06595 0.21391 0.86187 0.0
H958 H 0.00939 0.16323 0.868 0.0
H959 H 0.07028 0.17713 0.85508 0.0
H960 H 0.98562 0.21342 0.90797 0.0
H961 H 0.97632 0.27374 0.89697 0.0
H962 H 0.94907 0.20454 0.90388 0.0
H963 H 0.93991 0.26376 0.89303 0.0
H964 H 0.00707 0.20267 0.961 0.0
H965 H 0.052 0.1721 0.92568 0.0
H966 H 0.97194 0.27313 0.8235 0.0
H967 H 0.94893 0.21587 0.84033 0.0
Li968 Li 0.54538 0.76283 0.39736 0.0
Li969 Li 0.5228 0.77873 0.4234 0.0
Li970 Li 0.52973 0.7428 0.42058 0.0
Li971 Li 0.50913 0.75247 0.39499 0.0
C972 C 0.56927 0.7698 0.428 0.0
N973 N 0.61065 0.77547 0.428 0.0
C974 C 0.57879 0.78931 0.42957 0.0
C975 C 0.58081 0.75318 0.42644 0.0
C976 C 0.59973 0.79186 0.42954 0.0
C977 C 0.6017 0.75636 0.42647 0.0
C978 C 0.51506 0.78585 0.37775 0.0
C979 C 0.48861 0.80053 0.36181 0.0
N980 N 0.49717 0.79549 0.34386 0.0
C981 C 0.5236 0.78083 0.35914 0.0
C982 C 0.49745 0.79582 0.37911 0.0
C983 C 0.51433 0.78585 0.34219 0.0
C984 C 0.57853 0.75496 0.3713 0.0
N985 N 0.56845 0.7695 0.38205 0.0
C986 C 0.58966 0.79549 0.37004 0.0
C987 C 0.5737 0.78945 0.38161 0.0
C988 C 0.60026 0.78087 0.35852 0.0
C989 C 0.59455 0.76033 0.3594 0.0
H990 H 0.57389 0.7392 0.37162 0.0
H991 H 0.56531 0.8007 0.39016 0.0
C992 C 0.53291 0.81042 0.4545 0.0
N993 N 0.51831 0.80292 0.44082 0.0
C994 C 0.53138 0.82895 0.46644 0.0
C995 C 0.49915 0.83118 0.45099 0.0
C996 C 0.50141 0.81264 0.43915 0.0
C997 C 0.51449 0.83976 0.46453 0.0
H998 H 0.5459 0.80213 0.45598 0.0
H999 H 0.48982 0.80616 0.42845 0.0
C1000 C 0.53247 0.71484 0.38802 0.0
N1001 N 0.5338 0.67333 0.38183 0.0
C1002 C 0.51518 0.7023 0.38195 0.0
C1003 C 0.55048 0.70626 0.39078 0.0
C1004 C 0.51616 0.68135 0.37892 0.0
C1005 C 0.55082 0.68525 0.38765 0.0
C1006 C 0.49378 0.74386 0.4366 0.0
C1007 C 0.48099 0.72677 0.42968 0.0
C1008 C 0.49751 0.74921 0.45701 0.0
C1009 C 0.47226 0.71512 0.44337 0.0
C1010 C 0.48853 0.73713 0.47022 0.0
N1011 N 0.47621 0.72048 0.46318 0.0
C1012 C 0.54446 0.72789 0.45455 0.0
C1013 C 0.523 0.70353 0.43423 0.0
C1014 C 0.5466 0.71444 0.46829 0.0
N1015 N 0.53294 0.72225 0.43778 0.0
C1016 C 0.52477 0.68957 0.44754 0.0
C1017 C 0.53667 0.69494 0.46491 0.0
H1018 H 0.5518 0.74299 0.45745 0.0
H1019 H 0.51321 0.69952 0.42137 0.0
C1020 C 0.49183 0.73971 0.35701 0.0
N1021 N 0.48726 0.74611 0.37622 0.0
C1022 C 0.47701 0.73723 0.3421 0.0
C1023 C 0.45276 0.74707 0.36711 0.0
C1024 C 0.46815 0.74958 0.38156 0.0
C1025 C 0.45722 0.74122 0.34702 0.0
H1026 H 0.50718 0.73714 0.35318 0.0
H1027 H 0.46499 0.7549 0.39693 0.0
O1028 O 0.54877 0.76691 0.42733 0.0
O1029 O 0.52349 0.78042 0.39444 0.0
O1030 O 0.53186 0.73539 0.39087 0.0
O1031 O 0.50285 0.75515 0.42342 0.0
H1032 H 0.57014 0.80234 0.43036 0.0
H1033 H 0.57371 0.73798 0.42512 0.0
H1034 H 0.60728 0.80687 0.4306 0.0
H1035 H 0.6108 0.74362 0.42523 0.0
H1036 H 0.4749 0.80811 0.36264 0.0
H1037 H 0.53701 0.77279 0.3577 0.0
H1038 H 0.49049 0.7996 0.39332 0.0
H1039 H 0.52072 0.78194 0.32769 0.0
H1040 H 0.59361 0.81148 0.37014 0.0
H1041 H 0.602 0.74848 0.35056 0.0
H1042 H 0.54335 0.83482 0.47701 0.0
H1043 H 0.48587 0.83901 0.44911 0.0
H1044 H 0.50108 0.70862 0.37986 0.0
H1045 H 0.56403 0.71571 0.39532 0.0
H1046 H 0.50287 0.67147 0.37433 0.0
H1047 H 0.56463 0.67841 0.38982 0.0
H1048 H 0.47805 0.72241 0.41389 0.0
H1049 H 0.50743 0.76239 0.46255 0.0
H1050 H 0.46243 0.70177 0.43824 0.0
H1051 H 0.4914 0.74097 0.48606 0.0
H1052 H 0.55604 0.71926 0.48139 0.0
H1053 H 0.51647 0.67489 0.44448 0.0
H1054 H 0.48104 0.73251 0.32682 0.0
H1055 H 0.43773 0.75048 0.37149 0.0
Li1056 Li 0.02989 0.78609 0.63436 0.0
Li1057 Li 0.00791 0.76893 0.65581 0.0
Li1058 Li 0.04383 0.7666 0.65786 0.0
Li1059 Li 0.02337 0.74759 0.62846 0.0
C1060 C 0.02904 0.81162 0.66703 0.0
N1061 N 0.02905 0.85326 0.672 0.0
C1062 C 0.01097 0.82071 0.66688 0.0
C1063 C 0.04712 0.82373 0.66984 0.0
C1064 C 0.01128 0.84178 0.66939 0.0
C1065 C 0.04682 0.84475 0.67228 0.0
C1066 C 0.98429 0.76848 0.62321 0.0
C1067 C 0.95265 0.75039 0.61223 0.0
N1068 N 0.94342 0.7678 0.61653 0.0
C1069 C 0.97452 0.78623 0.62735 0.0
C1070 C 0.9733 0.75043 0.61545 0.0
C1071 C 0.95385 0.78556 0.62395 0.0
C1072 C 0.05301 0.81969 0.62144 0.0
N1073 N 0.03492 0.80871 0.61961 0.0
C1074 C 0.02466 0.8275 0.59423 0.0
C1075 C 0.02081 0.81239 0.60634 0.0
C1076 C 0.0433 0.83901 0.59567 0.0
C1077 C 0.05745 0.83504 0.60976 0.0
H1078 H 0.06419 0.81636 0.63177 0.0
H1079 H 0.00673 0.80318 0.60469 0.0
C1080 C 0.98575 0.78122 0.69054 0.0
N1081 N 0.98451 0.76916 0.67261 0.0
C1082 C 0.97029 0.78012 0.70425 0.0
C1083 C 0.95248 0.7542 0.68089 0.0
C1084 C 0.96827 0.75578 0.66767 0.0
C1085 C 0.9534 0.76631 0.6996 0.0
H1086 H 0.99909 0.79121 0.69453 0.0
H1087 H 0.96789 0.74566 0.65382 0.0
C1088 C 0.06891 0.76049 0.62837 0.0
N1089 N 0.10831 0.75094 0.62905 0.0
C1090 C 0.07386 0.74112 0.62057 0.0
C1091 C 0.08402 0.77504 0.6364 0.0
C1092 C 0.09386 0.73659 0.62106 0.0
C1093 C 0.10383 0.7699 0.63666 0.0
C1094 C 0.01285 0.73473 0.67078 0.0
C1095 C 0.01677 0.74168 0.69093 0.0
C1096 C 0.99845 0.71861 0.66523 0.0
C1097 C 1.00601 0.73247 0.70526 0.0
C1098 C 0.98802 0.70979 0.68002 0.0
N1099 N 0.99197 0.71686 0.69955 0.0
C1100 C 0.07143 0.77912 0.6904 0.0
C1101 C 0.07369 0.74569 0.67432 0.0
C1102 C 0.08657 0.77684 0.70403 0.0
N1103 N 0.06541 0.76371 0.67583 0.0
C1104 C 0.08887 0.74274 0.68762 0.0
C1105 C 0.09551 0.75842 0.70281 0.0
H1106 H 0.06429 0.79311 0.69166 0.0
H1107 H 0.06831 0.73351 0.66289 0.0
C1108 C 0.01527 0.72656 0.58991 0.0
N1109 N 0.02036 0.72411 0.60879 0.0
C1110 C 0.01261 0.70986 0.57503 0.0
C1111 C 0.02087 0.68841 0.59918 0.0
C1112 C 0.02324 0.70554 0.61365 0.0
C1113 C 0.01542 0.69039 0.57952 0.0
H1114 H 0.01304 0.74152 0.58649 0.0
H1115 H 0.02748 0.70405 0.62875 0.0
O1116 O 0.02904 0.791 0.66428 0.0
O1117 O 1.00454 0.76883 0.62641 0.0
O1118 O 0.04936 0.76509 0.62837 0.0
O1119 O 0.02275 0.74399 0.65655 0.0
H1120 H 0.99683 0.81161 0.66489 0.0
H1121 H 0.06129 0.817 0.66975 0.0
H1122 H 0.9974 0.84899 0.66926 0.0
H1123 H 0.06071 0.85429 0.6743 0.0
H1124 H 0.94394 0.7365 0.60638 0.0
H1125 H 0.98282 0.80039 0.63303 0.0
H1126 H 0.98056 0.73653 0.61225 0.0
H1127 H 0.94609 0.79917 0.62715 0.0
H1128 H 0.01338 0.82963 0.58338 0.0
H1129 H 0.07192 0.8436 0.6117 0.0
H1130 H 0.97191 0.78949 0.71861 0.0
H1131 H 0.93977 0.7434 0.67653 0.0
H1132 H 0.06238 0.72969 0.61429 0.0
H1133 H 0.08042 0.79 0.64277 0.0
H1134 H 0.0979 0.72164 0.61514 0.0
H1135 H 0.11564 0.78095 0.64299 0.0
H1136 H 0.02779 0.75424 0.69544 0.0
H1137 H 0.99515 0.71318 0.64968 0.0
H1138 H 0.00876 0.73778 0.72092 0.0
H1139 H 0.97673 0.69739 0.67596 0.0
H1140 H 0.09124 0.78941 0.71536 0.0
H1141 H 0.09498 0.72815 0.6863 0.0
H1142 H 0.00808 0.71218 0.56023 0.0
H1143 H 0.02353 0.67382 0.60334 0.0
Li1144 Li 0.52487 0.29345 0.1458 0.0
Li1145 Li 0.5015 0.27778 0.16911 0.0
Li1146 Li 0.53754 0.27228 0.1689 0.0
Li1147 Li 0.51609 0.25745 0.14137 0.0
C1148 C 0.51817 0.31635 0.18357 0.0
N1149 N 0.50407 0.35276 0.19924 0.0
C1150 C 0.50322 0.32451 0.17345 0.0
C1151 C 0.52593 0.32669 0.20165 0.0
C1152 C 0.4963 0.34294 0.18162 0.0
C1153 C 0.51861 0.34509 0.20933 0.0
C1154 C 0.48282 0.26917 0.12798 0.0
C1155 C 0.45287 0.24638 0.12269 0.0
N1156 N 0.45373 0.24734 0.10283 0.0
C1157 C 0.48336 0.26997 0.10752 0.0
C1158 C 0.46744 0.25729 0.13565 0.0
C1159 C 0.46854 0.25881 0.09505 0.0
C1160 C 0.53114 0.31206 0.11138 0.0
N1161 N 0.53194 0.31609 0.13158 0.0
C1162 C 0.54415 0.35043 0.12985 0.0
C1163 C 0.53863 0.33478 0.14092 0.0
C1164 C 0.54309 0.34681 0.10892 0.0
C1165 C 0.53657 0.32721 0.09974 0.0
H1166 H 0.52664 0.29691 0.10426 0.0
H1167 H 0.53994 0.33759 0.15695 0.0
C1168 C 0.47707 0.26939 0.20099 0.0
N1169 N 0.47827 0.28053 0.18571 0.0
C1170 C 0.45973 0.26851 0.21232 0.0
C1171 C 0.44552 0.2916 0.19288 0.0
C1172 C 0.46305 0.29175 0.18164 0.0
C1173 C 0.44357 0.27947 0.20813 0.0
H1174 H 0.48937 0.26069 0.20399 0.0
H1175 H 0.46417 0.30025 0.16922 0.0
C1176 C 0.56201 0.28016 0.13757 0.0
N1177 N 0.60015 0.29764 0.13264 0.0
C1178 C 0.57381 0.27212 0.12199 0.0
C1179 C 0.56961 0.29711 0.15067 0.0
C1180 C 0.59306 0.28116 0.11975 0.0
C1181 C 0.58892 0.30572 0.14792 0.0
C1182 C 0.52106 0.23358 0.17115 0.0
C1183 C 0.53665 0.22637 0.15927 0.0
C1184 C 0.51248 0.22188 0.18488 0.0
C1185 C 0.5435 0.20764 0.16143 0.0
C1186 C 0.51974 0.20321 0.18659 0.0
N1187 N 0.53498 0.19654 0.17494 0.0
C1188 C 0.55927 0.27529 0.20552 0.0
C1189 C 0.57564 0.25856 0.1779 0.0
C1190 C 0.57501 0.27246 0.21828 0.0
N1191 N 0.55984 0.26837 0.18573 0.0
C1192 C 0.59168 0.25541 0.19009 0.0
C1193 C 0.59154 0.26234 0.21063 0.0
H1194 H 0.54647 0.2829 0.21142 0.0
H1195 H 0.57581 0.25309 0.16215 0.0
C1196 C 0.52097 0.233 0.10426 0.0
N1197 N 0.51072 0.23407 0.12155 0.0
C1198 C 0.51752 0.21621 0.08955 0.0
C1199 C 0.4929 0.20196 0.11062 0.0
C1200 C 0.49694 0.21896 0.12498 0.0
C1201 C 0.50326 0.20035 0.09255 0.0
H1202 H 0.53187 0.24522 0.10192 0.0
H1203 H 0.48897 0.22017 0.13886 0.0
O1204 O 0.52509 0.29824 0.176 0.0
O1205 O 0.49751 0.27953 0.14039 0.0
O1206 O 0.5431 0.27144 0.13982 0.0
O1207 O 0.51402 0.25188 0.16931 0.0
H1208 H 0.49711 0.31678 0.15938 0.0
H1209 H 0.5375 0.32055 0.20967 0.0
H1210 H 0.48475 0.34944 0.17394 0.0
H1211 H 0.52449 0.35326 0.22332 0.0
H1212 H 0.44096 0.23704 0.12842 0.0
H1213 H 0.49515 0.27899 0.10129 0.0
H1214 H 0.46695 0.25617 0.15137 0.0
H1215 H 0.46883 0.25923 0.07918 0.0
H1216 H 0.54904 0.36524 0.13766 0.0
H1217 H 0.536 0.32347 0.08369 0.0
H1218 H 0.45878 0.25899 0.22398 0.0
H1219 H 0.43327 0.30006 0.18907 0.0
H1220 H 0.56816 0.259 0.11174 0.0
H1221 H 0.56077 0.30356 0.16284 0.0
H1222 H 0.60236 0.27509 0.10775 0.0
H1223 H 0.59498 0.31883 0.15793 0.0
H1224 H 0.5434 0.23506 0.14843 0.0
H1225 H 0.5003 0.22711 0.19411 0.0
H1226 H 0.55558 0.20191 0.15234 0.0
H1227 H 0.51324 0.19402 0.19718 0.0
H1228 H 0.57407 0.27784 0.23403 0.0
H1229 H 0.60417 0.24779 0.18341 0.0
H1230 H 0.52615 0.2156 0.07608 0.0
H1231 H 0.48156 0.19035 0.11356 0.0
H1232 H 0.26251 0.73264 0.86642 0.0
H1233 H 0.23991 0.76825 0.82372 0.0
H1234 H 0.23743 0.79684 0.85053 0.0
H1235 H 0.23115 0.75063 0.9067 0.0
H1236 H 0.25015 0.75101 0.92573 0.0
H1237 H 0.25058 0.73338 0.90314 0.0
H1238 H 0.28692 0.74716 0.89685 0.0
H1239 H 0.28662 0.76482 0.91945 0.0
H1240 H 0.29236 0.77383 0.89616 0.0
H1241 H 0.23727 0.82159 0.88186 0.0
H1242 H 0.23927 0.8408 0.91564 0.0
H1243 H 0.26134 0.78912 0.93845 0.0
C1244 C 0.25721 0.74652 0.86269 0.0
C1245 C 0.25132 0.74814 0.84293 0.0
C1246 C 0.24425 0.76652 0.83875 0.0
C1247 C 0.24289 0.7829 0.85387 0.0
C1248 C 0.24864 0.78075 0.87317 0.0
C1249 C 0.25566 0.76305 0.87766 0.0
C1250 C 0.26053 0.76465 0.89974 0.0
C1251 C 0.24731 0.74899 0.90939 0.0
C1252 C 0.28294 0.76249 0.90325 0.0
C1253 C 0.25516 0.786 0.90692 0.0
C1254 C 0.24837 0.79501 0.89133 0.0
C1255 C 0.24248 0.81466 0.89421 0.0
C1256 C 0.24353 0.82541 0.91353 0.0
C1257 C 0.25034 0.81652 0.92986 0.0
C1258 C 0.25625 0.7965 0.92635 0.0
H1259 H 0.03932 0.5019 0.42794 0.0
H1260 H 0.0144 0.5597 0.4291 0.0
H1261 H 0.0366 0.56749 0.40151 0.0
H1262 H 0.09103 0.51882 0.41607 0.0
H1263 H 0.09459 0.49558 0.40007 0.0
H1264 H 0.07791 0.49545 0.4208 0.0
H1265 H 0.04911 0.47866 0.39685 0.0
H1266 H 0.06566 0.47884 0.37607 0.0
H1267 H 0.04241 0.49067 0.37586 0.0
H1268 H 0.05981 0.56762 0.37218 0.0
H1269 H 0.08287 0.56078 0.34417 0.0
H1270 H 0.09266 0.50275 0.36232 0.0
C1271 C 0.03889 0.51635 0.42259 0.0
C1272 C 0.02547 0.53038 0.43062 0.0
C1273 C 0.02485 0.54895 0.42315 0.0
C1274 C 0.03735 0.55343 0.40751 0.0
C1275 C 0.05033 0.53915 0.39964 0.0
C1276 C 0.05128 0.52104 0.40703 0.0
C1277 C 0.06586 0.50791 0.39545 0.0
C1278 C 0.08339 0.50423 0.4089 0.0
C1279 C 0.05511 0.48784 0.38547 0.0
C1280 C 0.07278 0.52129 0.38018 0.0
C1281 C 0.06369 0.53926 0.38286 0.0
C1282 C 0.06713 0.55367 0.37006 0.0
C1283 C 0.08015 0.5496 0.35412 0.0
C1284 C 0.08963 0.53126 0.35107 0.0
C1285 C 0.08593 0.51704 0.36443 0.0
H1286 H 0.8388 0.75705 0.84738 0.0
H1287 H 0.77878 0.76864 0.8297 0.0
H1288 H 0.76463 0.74928 0.85541 0.0
H1289 H 0.82619 0.70569 0.85633 0.0
H1290 H 0.84312 0.70761 0.87741 0.0
H1291 H 0.84861 0.7227 0.85785 0.0
H1292 H 0.85098 0.75519 0.88368 0.0
H1293 H 0.8455 0.74021 0.90333 0.0
H1294 H 0.83018 0.76041 0.89983 0.0
H1295 H 0.75689 0.72855 0.88311 0.0
H1296 H 0.75616 0.70788 0.91049 0.0
H1297 H 0.82112 0.70909 0.90985 0.0
C1298 C 0.82266 0.75539 0.84874 0.0
C1299 C 0.80995 0.76452 0.83643 0.0
C1300 C 0.78892 0.76214 0.83906 0.0
C1301 C 0.7807 0.75103 0.85357 0.0
C1302 C 0.79365 0.74225 0.86537 0.0
C1303 C 0.81418 0.74427 0.8631 0.0
C1304 C 0.82478 0.73329 0.8777 0.0
C1305 C 0.83636 0.71632 0.86666 0.0
C1306 C 0.83868 0.74817 0.89198 0.0
C1307 C 0.807 0.72476 0.88854 0.0
C1308 C 0.78919 0.73016 0.88121 0.0
C1309 C 0.77076 0.72427 0.88896 0.0
C1310 C 0.77051 0.7126 0.90462 0.0
C1311 C 0.78856 0.70685 0.91244 0.0
C1312 C 0.80703 0.71302 0.90413 0.0
H1313 H 0.02778 0.96277 0.41615 0.0
H1314 H 0.03543 0.02269 0.45037 0.0
H1315 H 0.016 0.03607 0.4248 0.0
H1316 H 0.03249 0.97921 0.36765 0.0
H1317 H 0.01391 0.96025 0.35585 0.0
H1318 H 0.02836 0.95529 0.37686 0.0
H1319 H 0.9956 0.94732 0.3954 0.0
H1320 H 0.98104 0.95223 0.37445 0.0
H1321 H 0.9773 0.96578 0.39884 0.0
H1322 H 0.99481 0.04279 0.3962 0.0
H1323 H 0.97446 0.04269 0.36566 0.0
H1324 H 0.98129 0.97874 0.34916 0.0
C1325 C 0.0253 0.97869 0.41825 0.0
C1326 C 0.03314 0.99171 0.43525 0.0
C1327 C 0.02974 0.01249 0.43738 0.0
C1328 C 0.01865 0.02021 0.42298 0.0
C1329 C 0.01116 0.00701 0.40641 0.0
C1330 C 0.01442 0.98671 0.40387 0.0
C1331 C 1.00487 0.97587 0.38454 0.0
C1332 C 0.02087 0.96714 0.37039 0.0
C1333 C 0.98874 0.95933 0.38856 0.0
C1334 C 0.99561 0.9932 0.37669 0.0
C1335 C 0.99934 0.011 0.38961 0.0
C1336 C 0.99187 0.02896 0.38592 0.0
C1337 C 0.98027 0.02875 0.36859 0.0
C1338 C 0.97634 0.01074 0.35503 0.0
C1339 C 0.98425 0.99278 0.35914 0.0
H1340 H 0.26311 0.25835 0.68898 0.0
H1341 H 0.24672 0.31227 0.66613 0.0
H1342 H 0.24749 0.29435 0.63187 0.0
H1343 H 0.29672 0.24241 0.65047 0.0
H1344 H 0.28932 0.21584 0.64956 0.0
H1345 H 0.28726 0.23276 0.6724 0.0
H1346 H 0.24953 0.22099 0.67396 0.0
H1347 H 0.25148 0.20396 0.65115 0.0
H1348 H 0.23321 0.22246 0.65305 0.0
H1349 H 0.25084 0.27095 0.60002 0.0
H1350 H 0.25547 0.24326 0.57278 0.0
H1351 H 0.26892 0.20418 0.61615 0.0
C1352 C 0.25942 0.26634 0.67681 0.0
C1353 C 0.25497 0.28682 0.68033 0.0
C1354 C 0.25051 0.29672 0.66387 0.0
C1355 C 0.25079 0.28663 0.64433 0.0
C1356 C 0.25542 0.26655 0.64141 0.0
C1357 C 0.25954 0.25645 0.65718 0.0
C1358 C 0.26418 0.23489 0.64989 0.0
C1359 C 0.28564 0.23127 0.65594 0.0
C1360 C 0.24867 0.21968 0.65746 0.0
C1361 C 0.26212 0.2345 0.62757 0.0
C1362 C 0.2571 0.25295 0.62301 0.0
C1363 C 0.25473 0.25643 0.6034 0.0
C1364 C 0.25753 0.24064 0.58803 0.0
C1365 C 0.2626 0.22155 0.59229 0.0
C1366 C 0.26485 0.21852 0.61239 0.0
H1367 H 0.53661 0.51566 0.60189 0.0
H1368 H 0.55654 0.57948 0.60783 0.0
H1369 H 0.53621 0.58581 0.63799 0.0
H1370 H 0.48596 0.522 0.61787 0.0
H1371 H 0.48445 0.50044 0.63111 0.0
H1372 H 0.50051 0.5009 0.60994 0.0
H1373 H 0.53088 0.49472 0.63153 0.0
H1374 H 0.51491 0.49419 0.65274 0.0
H1375 H 0.53706 0.51156 0.65425 0.0
H1376 H 0.51425 0.5851 0.668 0.0
H1377 H 0.49165 0.57758 0.6951 0.0
H1378 H 0.48585 0.51421 0.66973 0.0
C1379 C 0.53682 0.53096 0.6096 0.0
C1380 C 0.54822 0.54709 0.60243 0.0
C1381 C 0.54779 0.56691 0.61285 0.0
C1382 C 0.53636 0.57064 0.63007 0.0
C1383 C 0.52533 0.55441 0.63671 0.0
C1384 C 0.5254 0.53497 0.62677 0.0
C1385 C 0.51214 0.52022 0.63698 0.0
C1386 C 0.49473 0.51031 0.62315 0.0
C1387 C 0.52449 0.50423 0.64431 0.0
C1388 C 0.50465 0.53439 0.65428 0.0
C1389 C 0.51249 0.55404 0.65387 0.0
C1390 C 0.50802 0.56977 0.66845 0.0
C1391 C 0.49524 0.56533 0.68386 0.0
C1392 C 0.48696 0.54531 0.68462 0.0
C1393 C 0.49173 0.5297 0.6695 0.0
H1394 H 0.80501 0.23903 0.65596 0.0
H1395 H 0.81343 0.27913 0.71173 0.0
H1396 H 0.81171 0.30877 0.69369 0.0
H1397 H 0.83334 0.27194 0.62443 0.0
H1398 H 0.81603 0.26465 0.60372 0.0
H1399 H 0.82022 0.2471 0.62085 0.0
H1400 H 0.78204 0.24322 0.62717 0.0
H1401 H 0.77776 0.26092 0.61027 0.0
H1402 H 0.76912 0.26539 0.63549 0.0
H1403 H 0.80593 0.33365 0.66961 0.0
H1404 H 0.79749 0.35178 0.64181 0.0
H1405 H 0.79325 0.29508 0.60168 0.0
C1406 C 0.80705 0.25412 0.66424 0.0
C1407 C 0.80972 0.25702 0.68508 0.0
C1408 C 0.81174 0.27679 0.69566 0.0
C1409 C 0.81071 0.29364 0.68554 0.0
C1410 C 0.80766 0.29031 0.6649 0.0
C1411 C 0.80603 0.27101 0.65436 0.0
C1412 C 0.80162 0.27137 0.63249 0.0
C1413 C 0.81883 0.26329 0.61961 0.0
C1414 C 0.78144 0.25953 0.62598 0.0
C1415 C 0.80059 0.29383 0.63237 0.0
C1416 C 0.80424 0.30453 0.65115 0.0
C1417 C 0.80333 0.32543 0.65479 0.0
C1418 C 0.7986 0.33562 0.63885 0.0
C1419 C 0.79476 0.32495 0.61944 0.0
C1420 C 0.79592 0.30375 0.61629 0.0
H1421 H 0.52007 0.95538 0.61175 0.0
H1422 H 0.50956 0.01785 0.60847 0.0
H1423 H 0.534 0.02905 0.63607 0.0
H1424 H 0.52419 0.96086 0.66523 0.0
H1425 H 0.54352 0.94363 0.6654 0.0
H1426 H 0.52566 0.94052 0.645 0.0
H1427 H 0.55475 0.94209 0.6201 0.0
H1428 H 0.5727 0.94521 0.64043 0.0
H1429 H 0.57317 0.9635 0.62331 0.0
H1430 H 0.55995 0.03351 0.66346 0.0
H1431 H 0.58422 0.03093 0.69038 0.0
H1432 H 0.57709 0.96551 0.67702 0.0
C1433 C 0.52304 0.97141 0.61681 0.0
C1434 C 0.513 0.98579 0.60798 0.0
C1435 C 0.51702 0.00662 0.61514 0.0
C1436 C 0.53093 0.01311 0.63072 0.0
C1437 C 0.54056 0.99857 0.63912 0.0
C1438 C 0.53669 0.97814 0.63256 0.0
C1439 C 0.54866 0.96565 0.64461 0.0
C1440 C 0.53467 0.95185 0.65572 0.0
C1441 C 0.56318 0.95339 0.63132 0.0
C1442 C 0.55989 0.98225 0.65894 0.0
C1443 C 0.55512 1.00112 0.65537 0.0
C1444 C 0.56378 0.01882 0.66642 0.0
C1445 C 0.57762 0.0172 0.68161 0.0
C1446 C 0.58255 0.99804 0.68576 0.0
C1447 C 0.5735 0.98035 0.67425 0.0
H1448 H 0.86774 0.19449 0.75665 0.0
H1449 H 0.84704 0.25436 0.75782 0.0
H1450 H 0.87667 0.26891 0.77854 0.0
H1451 H 0.88459 0.20086 0.80671 0.0
H1452 H 0.90605 0.1864 0.80183 0.0
H1453 H 0.88416 0.18097 0.78582 0.0
H1454 H 0.90589 0.18612 0.75519 0.0
H1455 H 0.92789 0.19146 0.7711 0.0
H1456 H 0.92134 0.20943 0.75522 0.0
H1457 H 0.90735 0.27649 0.8013 0.0
H1458 H 0.93701 0.27675 0.82312 0.0
H1459 H 0.93779 0.21182 0.80663 0.0
C1460 C 0.86945 0.21069 0.76118 0.0
C1461 C 0.855 0.22328 0.75562 0.0
C1462 C 0.85798 0.24443 0.76168 0.0
C1463 C 0.87472 0.25281 0.77356 0.0
C1464 C 0.88841 0.23987 0.77913 0.0
C1465 C 0.88602 0.21928 0.77299 0.0
C1466 C 0.9025 0.20856 0.78146 0.0
C1467 C 0.8938 0.1933 0.79474 0.0
C1468 C 0.91516 0.19829 0.76475 0.0
C1469 C 0.91441 0.2263 0.79363 0.0
C1470 C 0.90609 0.24423 0.79204 0.0
C1471 C 0.91413 0.26255 0.80243 0.0
C1472 C 0.9311 0.26255 0.81472 0.0
C1473 C 0.93997 0.24434 0.81657 0.0
C1474 C 0.93141 0.22602 0.80574 0.0
H1475 H 0.46802 0.926 0.54022 0.0
H1476 H 0.52512 0.96123 0.53848 0.0
H1477 H 0.53667 0.93511 0.51274 0.0
H1478 H 0.48735 0.87861 0.53599 0.0
H1479 H 0.46736 0.86516 0.52033 0.0
H1480 H 0.46259 0.88749 0.53708 0.0
H1481 H 0.44933 0.90376 0.50765 0.0
H1482 H 0.45391 0.88138 0.4908 0.0
H1483 H 0.46488 0.90574 0.4863 0.0
H1484 H 0.54324 0.90415 0.48968 0.0
H1485 H 0.54404 0.87056 0.4696 0.0
H1486 H 0.48267 0.85503 0.4857 0.0
C1487 C 0.48274 0.92843 0.53402 0.0
C1488 C 0.49568 0.94566 0.54131 0.0
C1489 C 0.51502 0.9481 0.53317 0.0
C1490 C 0.52168 0.93338 0.5185 0.0
C1491 C 0.5088 0.91633 0.51202 0.0
C1492 C 0.48968 0.91381 0.51935 0.0
C1493 C 0.47932 0.89348 0.51057 0.0
C1494 C 0.47384 0.88042 0.52697 0.0
C1495 C 0.46076 0.89627 0.49809 0.0
C1496 C 0.49578 0.88484 0.49752 0.0
C1497 C 0.5126 0.89835 0.49854 0.0
C1498 C 0.5301 0.89351 0.4886 0.0
C1499 C 0.53045 0.87435 0.47736 0.0
C1500 C 0.51344 0.86019 0.4761 0.0
C1501 C 0.49581 0.86564 0.48619 0.0
H1502 H 0.19459 0.26535 0.76542 0.0
H1503 H 0.21825 0.32504 0.79237 0.0
H1504 H 0.1903 0.32621 0.81634 0.0
H1505 H 0.14143 0.27392 0.77048 0.0
H1506 H 0.1345 0.24876 0.77596 0.0
H1507 H 0.1557 0.25324 0.76047 0.0
H1508 H 0.17834 0.23728 0.78407 0.0
H1509 H 0.15725 0.23285 0.79968 0.0
H1510 H 0.1797 0.24718 0.81021 0.0
H1511 H 0.16053 0.31996 0.83821 0.0
H1512 H 0.13088 0.3075 0.85575 0.0
H1513 H 0.12682 0.25155 0.81455 0.0
C1514 C 0.19365 0.27876 0.77621 0.0
C1515 C 0.2083 0.29522 0.77708 0.0
C1516 C 0.20694 0.31241 0.79148 0.0
C1517 C 0.19118 0.31315 0.80512 0.0
C1518 C 0.17699 0.29655 0.80406 0.0
C1519 C 0.17803 0.27971 0.7899 0.0
C1520 C 0.16123 0.26367 0.79224 0.0
C1521 C 0.14739 0.25967 0.77369 0.0
C1522 C 0.16964 0.24409 0.79683 0.0
C1523 C 0.15064 0.274 0.81005 0.0
C1524 C 0.15995 0.29295 0.81664 0.0
C1525 C 0.15312 0.30517 0.83314 0.0
C1526 C 0.13633 0.29787 0.84311 0.0
C1527 C 0.12649 0.27849 0.83662 0.0
C1528 C 0.13382 0.2665 0.81979 0.0
H1529 H 0.55509 0.58838 0.49907 0.0
H1530 H 0.55662 0.61777 0.56015 0.0
H1531 H 0.54791 0.64969 0.54865 0.0
H1532 H 0.57831 0.62916 0.47849 0.0
H1533 H 0.56358 0.62483 0.45573 0.0
H1534 H 0.56777 0.60403 0.46895 0.0
H1535 H 0.52942 0.59541 0.47066 0.0
H1536 H 0.5251 0.61611 0.45729 0.0
H1537 H 0.5137 0.6147 0.4811 0.0
H1538 H 0.5415 0.67897 0.52985 0.0
H1539 H 0.53722 0.70286 0.50582 0.0
H1540 H 0.54068 0.65405 0.45698 0.0
C1541 C 0.55308 0.60145 0.51002 0.0
C1542 C 0.55612 0.60073 0.53047 0.0
C1543 C 0.55397 0.6181 0.54444 0.0
C1544 C 0.5491 0.63623 0.53801 0.0
C1545 C 0.5465 0.6366 0.5176 0.0
C1546 C 0.5483 0.61958 0.50384 0.0
C1547 C 0.5459 0.62413 0.48274 0.0
C1548 C 0.56503 0.62031 0.47078 0.0
C1549 C 0.52743 0.61186 0.47234 0.0
C1550 C 0.54277 0.64644 0.48667 0.0
C1551 C 0.54306 0.65337 0.50686 0.0
C1552 C 0.54114 0.67364 0.51403 0.0
C1553 C 0.53888 0.68715 0.50023 0.0
C1554 C 0.53862 0.6804 0.47945 0.0
C1555 C 0.54049 0.65969 0.47272 0.0
H1556 H 0.87516 0.80433 0.78234 0.0
H1557 H 0.85044 0.74204 0.77916 0.0
H1558 H 0.87705 0.73125 0.75588 0.0
H1559 H 0.88549 0.802 0.73126 0.0
H1560 H 0.90825 0.81848 0.73486 0.0
H1561 H 0.88868 0.821 0.7529 0.0
H1562 H 0.91384 0.81647 0.78081 0.0
H1563 H 0.93353 0.81401 0.76286 0.0
H1564 H 0.92796 0.79447 0.77821 0.0
H1565 H 0.90512 0.72762 0.73103 0.0
H1566 H 0.93251 0.73129 0.7073 0.0
H1567 H 0.9375 0.79626 0.72544 0.0
C1568 C 0.87532 0.78838 0.77686 0.0
C1569 C 0.8606 0.77405 0.78267 0.0
C1570 C 0.86166 0.75331 0.77525 0.0
C1571 C 0.87666 0.74705 0.76189 0.0
C1572 C 0.89054 0.76167 0.75608 0.0
C1573 C 0.89004 0.78191 0.76342 0.0
C1574 C 0.90602 0.79477 0.75411 0.0
C1575 C 0.89654 0.80995 0.7426 0.0
C1576 C 0.92124 0.80556 0.76994 0.0
C1577 C 0.91545 0.77865 0.74014 0.0
C1578 C 0.90641 0.75964 0.74159 0.0
C1579 C 0.9123 0.74244 0.72982 0.0
C1580 C 0.92778 0.74471 0.71623 0.0
C1581 C 0.93717 0.76409 0.71434 0.0
C1582 C 0.93087 0.78121 0.72662 0.0
H1583 H 0.02008 0.92024 0.52411 0.0
H1584 H 0.08207 0.92046 0.50616 0.0
H1585 H 0.08873 0.89749 0.53074 0.0
H1586 H 0.02934 0.91817 0.57749 0.0
H1587 H 0.00701 0.9017 0.57947 0.0
H1588 H 0.00777 0.91941 0.56176 0.0
H1589 H 0.99815 0.89001 0.53342 0.0
H1590 H 0.99753 0.87221 0.55099 0.0
H1591 H 0.01333 0.8688 0.52957 0.0
H1592 H 0.0877 0.8724 0.55545 0.0
H1593 H 0.07961 0.84791 0.57869 0.0
H1594 H 0.0182 0.86471 0.58117 0.0
C1595 C 0.03514 0.91575 0.52572 0.0
C1596 C 0.0507 0.9222 0.51357 0.0
C1597 C 0.0701 0.9158 0.51562 0.0
C1598 C 0.07396 0.90275 0.52948 0.0
C1599 C 0.05821 0.89635 0.54112 0.0
C1600 C 0.03921 0.90277 0.53948 0.0
C1601 C 0.02469 0.89301 0.55308 0.0
C1602 C 0.01674 0.90903 0.56889 0.0
C1603 C 0.00741 0.88025 0.54104 0.0
C1604 C 0.03836 0.87978 0.56236 0.0
C1605 C 0.05765 0.882 0.55535 0.0
C1606 C 0.07271 0.87078 0.56124 0.0
C1607 C 0.06796 0.85696 0.5746 0.0
C1608 C 0.04827 0.85437 0.58203 0.0
C1609 C 0.03337 0.86612 0.57578 0.0
H1610 H 0.19405 0.71367 0.74031 0.0
H1611 H 0.18159 0.74119 0.80009 0.0
H1612 H 0.15213 0.75607 0.78716 0.0
H1613 H 0.17961 0.75481 0.71465 0.0
H1614 H 0.16878 0.73792 0.6936 0.0
H1615 H 0.18924 0.73051 0.70759 0.0
H1616 H 0.16776 0.698 0.71342 0.0
H1617 H 0.14722 0.70536 0.69955 0.0
H1618 H 0.14354 0.70009 0.72466 0.0
H1619 H 0.12316 0.76653 0.76746 0.0
H1620 H 0.09734 0.77199 0.74304 0.0
H1621 H 0.1294 0.73783 0.69603 0.0
C1622 C 0.18521 0.72306 0.75059 0.0
C1623 C 0.18996 0.72653 0.7711 0.0
C1624 C 0.1781 0.73859 0.78428 0.0
C1625 C 0.1614 0.74703 0.77705 0.0
C1626 C 0.15692 0.7432 0.75666 0.0
C1627 C 0.16856 0.73154 0.74362 0.0
C1628 C 0.16031 0.72918 0.7225 0.0
C1629 C 0.17538 0.73868 0.70878 0.0
C1630 C 0.15435 0.70683 0.71458 0.0
C1631 C 0.14205 0.74113 0.72565 0.0
C1632 C 0.14038 0.74917 0.74542 0.0
C1633 C 0.12446 0.76045 0.75192 0.0
C1634 C 0.1099 0.76357 0.73789 0.0
C1635 C 0.1113 0.75543 0.71753 0.0
C1636 C 0.12771 0.74413 0.71146 0.0
H1637 H 0.98075 0.57587 0.53495 0.0
H1638 H 0.99888 0.59008 0.47684 0.0
H1639 H 0.01035 0.62481 0.49205 0.0
H1640 H 0.96115 0.62355 0.55163 0.0
H1641 H 0.96945 0.62421 0.57705 0.0
H1642 H 0.96349 0.6003 0.56164 0.0
H1643 H 0.99886 0.58955 0.56885 0.0
H1644 H 1.00498 0.61347 0.58421 0.0
H1645 H 0.02071 0.60537 0.56364 0.0
H1646 H 0.01961 0.65827 0.51379 0.0
H1647 H 0.02527 0.68774 0.53995 0.0
H1648 H 0.99915 0.65199 0.58338 0.0
C1649 C 0.98694 0.58627 0.52531 0.0
C1650 C 0.98887 0.58011 0.50462 0.0
C1651 C 0.99746 0.59424 0.49274 0.0
C1652 C 1.00393 0.61407 0.50124 0.0
C1653 C 1.00167 0.61961 0.52164 0.0
C1654 C 0.99331 0.60612 0.53349 0.0
C1655 C 0.99216 0.61591 0.55494 0.0
C1656 C 0.97026 0.616 0.56171 0.0
C1657 C 1.00494 0.60545 0.56872 0.0
C1658 C 1.00114 0.63707 0.55334 0.0
C1659 C 0.00662 0.63889 0.53403 0.0
C1660 C 0.01527 0.65703 0.52893 0.0
C1661 C 0.01829 0.67375 0.54391 0.0
C1662 C 0.01258 0.67235 0.56381 0.0
C1663 C 1.00394 0.65363 0.56845 0.0
H1664 H 0.79858 0.82989 0.22941 0.0
H1665 H 0.7401 0.85149 0.24289 0.0
H1666 H 0.75577 0.88654 0.25009 0.0
H1667 H 0.82627 0.8642 0.26744 0.0
H1668 H 0.84797 0.86741 0.25226 0.0
H1669 H 0.83212 0.84414 0.24829 0.0
H1670 H 0.82717 0.84834 0.21124 0.0
H1671 H 0.84303 0.87161 0.21508 0.0
H1672 H 0.81797 0.87129 0.20505 0.0
H1673 H 0.77797 0.91947 0.25481 0.0
H1674 H 0.8049 0.94731 0.25804 0.0
H1675 H 0.84881 0.90393 0.24175 0.0
C1676 C 0.78903 0.842 0.23375 0.0
C1677 C 0.76807 0.83795 0.23547 0.0
C1678 C 0.75618 0.85421 0.24157 0.0
C1679 C 0.76495 0.87416 0.24561 0.0
C1680 C 0.78564 0.87761 0.24363 0.0
C1681 C 0.79753 0.86194 0.23795 0.0
C1682 C 0.8194 0.8696 0.23708 0.0
C1683 C 0.83219 0.86082 0.25217 0.0
C1684 C 0.82735 0.86494 0.21585 0.0
C1685 C 0.818 0.89208 0.24302 0.0
C1686 C 0.7984 0.89642 0.24667 0.0
C1687 C 0.79336 0.91621 0.25203 0.0
C1688 C 0.80875 0.93194 0.25372 0.0
C1689 C 0.82897 0.92782 0.25016 0.0
C1690 C 0.83355 0.90756 0.24479 0.0
H1691 H 0.78492 0.17755 0.28289 0.0
H1692 H 0.77657 0.17953 0.3465 0.0
H1693 H 0.8008 0.15368 0.34719 0.0
H1694 H 0.78797 0.1242 0.27192 0.0
H1695 H 0.80683 0.12591 0.25326 0.0
H1696 H 0.78951 0.14519 0.2579 0.0
H1697 H 0.81924 0.17263 0.26455 0.0
H1698 H 0.83666 0.15344 0.25988 0.0
H1699 H 0.83808 0.17037 0.28305 0.0
H1700 H 0.82482 0.12642 0.34065 0.0
H1701 H 0.84724 0.10043 0.32765 0.0
H1702 H 0.84046 0.11655 0.2683 0.0
C1703 C 0.78813 0.17253 0.29698 0.0
C1704 C 0.77879 0.18064 0.31467 0.0
C1705 C 0.78368 0.17379 0.3328 0.0
C1706 C 0.79736 0.15901 0.33332 0.0
C1707 C 0.80612 0.15124 0.3156 0.0
C1708 C 0.80178 0.15783 0.29778 0.0
C1709 C 0.81308 0.14686 0.2808 0.0
C1710 C 0.79847 0.13483 0.26504 0.0
C1711 C 0.82763 0.16171 0.27153 0.0
C1712 C 0.8243 0.1329 0.29181 0.0
C1713 C 0.82011 0.1357 0.31187 0.0
C1714 C 0.82837 0.12426 0.325 0.0
C1715 C 0.84125 0.10959 0.31745 0.0
C1716 C 0.84588 0.10643 0.29692 0.0
C1717 C 0.83721 0.11838 0.28403 0.0
H1718 H 0.41874 0.01242 0.98897 0.0
H1719 H 0.44032 0.03425 0.04918 0.0
H1720 H 0.41322 0.01267 0.06228 0.0
H1721 H 0.36566 0.00893 0.99985 0.0
H1722 H 0.36031 0.98622 0.98241 0.0
H1723 H 0.38074 1.00416 0.97804 0.0
H1724 H 0.4052 0.97587 0.97575 0.0
H1725 H 0.38488 0.95786 0.98019 0.0
H1726 H 0.40695 0.96139 0.99608 0.0
H1727 H 0.38467 0.98708 0.06853 0.0
H1728 H 0.35618 0.96105 0.06757 0.0
H1729 H 0.35393 0.95579 1.00311 0.0
C1730 C 0.41779 0.0127 0.00493 0.0
C1731 C 0.43172 0.025 0.01806 0.0
C1732 C 0.42973 0.02512 0.03885 0.0
C1733 C 0.41445 0.01281 0.0464 0.0
C1734 C 0.40123 1.00058 0.03299 0.0
C1735 C 0.40268 1.00057 0.01269 0.0
C1736 C 0.38686 0.98584 1.00136 0.0
C1737 C 0.37254 0.99696 0.98973 0.0
C1738 C 0.39656 0.96926 0.98753 0.0
C1739 C 0.37636 0.97736 0.01843 0.0
C1740 C 0.38484 0.98603 0.03657 0.0
C1741 C 0.37788 0.98026 0.05441 0.0
C1742 C 0.36179 0.96535 0.0537 0.0
C1743 C 0.35278 0.95636 0.03527 0.0
C1744 C 0.36027 0.96253 0.01746 0.0
H1745 H 0.25055 0.33099 0.27235 0.0
H1746 H 0.29741 0.36278 0.31177 0.0
H1747 H 0.28532 0.39552 0.30608 0.0
H1748 H 0.25024 0.36941 0.23687 0.0
H1749 H 0.22339 0.36566 0.23351 0.0
H1750 H 0.23743 0.34502 0.23854 0.0
H1751 H 0.215 0.34035 0.26877 0.0
H1752 H 0.20108 0.36111 0.26403 0.0
H1753 H 0.21286 0.36146 0.28806 0.0
H1754 H 0.26524 0.42418 0.30007 0.0
H1755 H 0.24029 0.44722 0.29184 0.0
H1756 H 0.20694 0.39734 0.2551 0.0
C1757 C 0.25867 0.34492 0.27913 0.0
C1758 C 0.27516 0.34456 0.29213 0.0
C1759 C 0.28504 0.3629 0.30141 0.0
C1760 C 0.2782 0.38152 0.29833 0.0
C1761 C 0.26153 0.38145 0.28583 0.0
C1762 C 0.25207 0.36365 0.27609 0.0
C1763 C 0.23371 0.36775 0.26446 0.0
C1764 C 0.23636 0.3616 0.24201 0.0
C1765 C 0.21454 0.35703 0.27178 0.0
C1766 C 0.23393 0.39054 0.2697 0.0
C1767 C 0.25015 0.39812 0.28202 0.0
C1768 C 0.25275 0.41848 0.2901 0.0
C1769 C 0.23849 0.43143 0.28544 0.0
C1770 C 0.2219 0.42405 0.2727 0.0
C1771 C 0.21971 0.40338 0.26459 0.0
H1772 H 0.10422 1.00334 0.45298 0.0
H1773 H 0.08525 0.99853 0.51325 0.0
H1774 H 0.11526 0.02049 0.52638 0.0
H1775 H 0.15808 1.0039 0.46261 0.0
H1776 H 0.16436 0.02188 0.44577 0.0
H1777 H 0.14212 1.00475 0.44128 0.0
H1778 H 0.12062 0.03514 0.44061 0.0
H1779 H 0.14276 0.05236 0.44519 0.0
H1780 H 0.12175 0.05499 0.46158 0.0
H1781 H 0.14612 0.04517 0.5328 0.0
H1782 H 0.1763 0.06888 0.53206 0.0
H1783 H 0.17501 0.05743 0.46752 0.0
C1784 C 0.10642 0.0068 0.46895 0.0
C1785 C 0.09234 0.99921 0.4821 0.0
C1786 C 0.09591 1.00396 0.5029 0.0
C1787 C 0.11286 0.01653 0.51048 0.0
C1788 C 0.1262 0.02409 0.49708 0.0
C1789 C 0.12326 0.01923 0.47675 0.0
C1790 C 0.13954 0.02967 0.4655 0.0
C1791 C 0.15175 0.01412 0.45306 0.0
C1792 C 0.13063 0.04388 0.45246 0.0
C1793 C 0.15197 0.04144 0.48266 0.0
C1794 C 0.14403 0.03803 0.50076 0.0
C1795 C 0.15253 0.04781 0.51871 0.0
C1796 C 0.16959 0.06136 0.51813 0.0
C1797 C 0.17805 0.065 0.49974 0.0
C1798 C 0.16908 0.05477 0.48182 0.0
H1799 H 0.76843 0.17707 0.74247 0.0
H1800 H 0.82655 0.1544 0.75029 0.0
H1801 H 0.80979 0.1228 0.75918 0.0
H1802 H 0.74368 0.15547 0.78253 0.0
H1803 H 0.72013 0.14946 0.76912 0.0
H1804 H 0.73672 0.17056 0.76398 0.0
H1805 H 0.7367 0.15542 0.72668 0.0
H1806 H 0.72012 0.13428 0.73171 0.0
H1807 H 0.74367 0.12999 0.71973 0.0
H1808 H 0.78666 0.09327 0.76642 0.0
H1809 H 0.75891 0.06802 0.77142 0.0
H1810 H 0.71587 0.1099 0.75871 0.0
C1811 C 0.77767 0.16544 0.74595 0.0
C1812 C 0.79885 0.1683 0.74571 0.0
C1813 C 0.81033 0.15274 0.75064 0.0
C1814 C 0.80094 0.13467 0.7556 0.0
C1815 C 0.78005 0.13234 0.75558 0.0
C1816 C 0.76855 0.1473 0.75089 0.0
C1817 C 0.74636 0.14092 0.75174 0.0
C1818 C 0.73613 0.15494 0.7678 0.0
C1819 C 0.73612 0.1401 0.73124 0.0
C1820 C 0.74716 0.11996 0.75749 0.0
C1821 C 0.76674 0.11533 0.7597 0.0
C1822 C 0.77127 0.09677 0.76483 0.0
C1823 C 0.75538 0.08257 0.76776 0.0
C1824 C 0.73517 0.08695 0.76554 0.0
C1825 C 0.73112 0.10597 0.76035 0.0
H1826 H 0.40052 0.01006 0.5724 0.0
H1827 H 0.44692 0.01032 0.52825 0.0
H1828 H 0.4276 0.03233 0.50996 0.0
H1829 H 0.35775 0.00972 0.53852 0.0
H1830 H 0.34442 0.02614 0.55621 0.0
H1831 H 0.36139 0.00954 0.56484 0.0
H1832 H 0.38081 0.04025 0.5861 0.0
H1833 H 0.36398 0.05693 0.57746 0.0
H1834 H 0.39062 0.06133 0.57426 0.0
H1835 H 0.40356 0.05576 0.49762 0.0
H1836 H 0.37683 0.07778 0.49172 0.0
H1837 H 0.34663 0.06234 0.54461 0.0
C1838 C 0.40639 0.01452 0.55868 0.0
C1839 C 0.42496 0.00844 0.55146 0.0
C1840 C 0.43253 0.01474 0.53376 0.0
C1841 C 0.42168 0.02724 0.52336 0.0
C1842 C 0.4034 0.03322 0.53098 0.0
C1843 C 0.39579 0.02696 0.54821 0.0
C1844 C 0.3762 0.03599 0.55371 0.0
C1845 C 0.35892 0.01935 0.55328 0.0
C1846 C 0.37802 0.04942 0.57409 0.0
C1847 C 0.37397 0.04846 0.537 0.0
C1848 C 0.38976 0.04667 0.52401 0.0
C1849 C 0.39111 0.05719 0.50767 0.0
C1850 C 0.37591 0.06978 0.50453 0.0
C1851 C 0.35955 0.07181 0.51766 0.0
C1852 C 0.35871 0.06092 0.53408 0.0
H1853 H 0.61229 0.50966 0.58745 0.0
H1854 H 0.58073 0.49473 0.53062 0.0
H1855 H 0.60264 0.46723 0.52094 0.0
H1856 H 0.66045 0.50261 0.56914 0.0
H1857 H 0.66957 0.49149 0.5898 0.0
H1858 H 0.65007 0.50859 0.5935 0.0
H1859 H 0.62708 0.48143 0.6079 0.0
H1860 H 0.64661 0.4643 0.60445 0.0
H1861 H 0.62204 0.45675 0.59357 0.0
H1862 H 0.62985 0.44416 0.51579 0.0
H1863 H 0.65973 0.42527 0.51599 0.0
H1864 H 0.6737 0.45354 0.57669 0.0
C1865 C 0.6097 0.5002 0.57322 0.0
C1866 C 0.59477 0.50423 0.55978 0.0
C1867 C 0.59209 0.49187 0.54109 0.0
C1868 C 0.60444 0.47622 0.53548 0.0
C1869 C 0.61942 0.473 0.54875 0.0
C1870 C 0.62202 0.48445 0.56732 0.0
C1871 C 0.64004 0.4784 0.57819 0.0
C1872 C 0.65597 0.49634 0.58293 0.0
C1873 C 0.63355 0.4697 0.59715 0.0
C1874 C 0.64735 0.46214 0.56263 0.0
C1875 C 0.63513 0.45927 0.54584 0.0
C1876 C 0.63929 0.44593 0.52903 0.0
C1877 C 0.65632 0.43511 0.52938 0.0
C1878 C 0.66909 0.43745 0.54649 0.0
C1879 C 0.66439 0.45125 0.56334 0.0
H1880 H 0.75403 0.22739 0.36936 0.0
H1881 H 0.74294 0.26571 0.32459 0.0
H1882 H 0.74312 0.29522 0.35084 0.0
H1883 H 0.72343 0.25201 0.40745 0.0
H1884 H 0.74031 0.24934 0.42755 0.0
H1885 H 0.73908 0.23116 0.40527 0.0
H1886 H 0.77736 0.23793 0.40092 0.0
H1887 H 0.7787 0.25615 0.42318 0.0
H1888 H 0.78788 0.26341 0.40009 0.0
H1889 H 0.74527 0.32075 0.38185 0.0
H1890 H 0.74857 0.34039 0.4154 0.0
H1891 H 0.7578 0.2855 0.44028 0.0
C1892 C 0.75175 0.24201 0.36505 0.0
C1893 C 0.74843 0.24418 0.34485 0.0
C1894 C 0.74525 0.26356 0.33994 0.0
C1895 C 0.74544 0.28046 0.35475 0.0
C1896 C 0.74881 0.27778 0.37446 0.0
C1897 C 0.75185 0.25904 0.37966 0.0
C1898 C 0.75509 0.26029 0.40197 0.0
C1899 C 0.73848 0.24744 0.41109 0.0
C1900 C 0.776 0.25408 0.40682 0.0
C1901 C 0.75349 0.28269 0.40849 0.0
C1902 C 0.74987 0.29248 0.39238 0.0
C1903 C 0.74796 0.31321 0.3946 0.0
C1904 C 0.74972 0.32422 0.41379 0.0
C1905 C 0.75329 0.31456 0.43064 0.0
C1906 C 0.75524 0.29345 0.4278 0.0
H1907 H 0.51886 0.00816 0.93465 0.0
H1908 H 0.51733 0.07279 0.95112 0.0
H1909 H 0.54347 0.07867 0.92617 0.0
H1910 H 0.57246 0.00792 0.92596 0.0
H1911 H 0.56929 0.98801 0.90512 0.0
H1912 H 0.55138 0.98925 0.92487 0.0
H1913 H 0.52261 0.98963 0.89917 0.0
H1914 H 0.54042 0.98843 0.87937 0.0
H1915 H 0.52399 0.00863 0.88277 0.0
H1916 H 0.56895 0.07695 0.89822 0.0
H1917 H 0.59165 0.06812 0.87028 0.0
H1918 H 0.57555 1.00441 0.87219 0.0
C1919 C 0.52427 0.02354 0.93312 0.0
C1920 C 0.51641 0.04008 0.94474 0.0
C1921 C 0.52344 0.06 0.94233 0.0
C1922 C 0.53821 0.06342 0.92823 0.0
C1923 C 0.54563 0.0467 0.91678 0.0
C1924 C 0.53889 0.02715 0.91916 0.0
C1925 C 0.5487 0.01176 0.90471 0.0
C1926 C 0.5612 0.99846 0.91583 0.0
C1927 C 0.53299 0.99886 0.89067 0.0
C1928 C 0.56195 0.02564 0.89366 0.0
C1929 C 0.56004 0.04574 0.90082 0.0
C1930 C 0.57057 0.06126 0.89257 0.0
C1931 C 0.58334 0.05609 0.87661 0.0
C1932 C 0.58547 0.03556 0.86903 0.0
C1933 C 0.57459 0.02023 0.87781 0.0
H1934 H 0.29729 0.27101 0.36089 0.0
H1935 H 0.31366 0.22622 0.31234 0.0
H1936 H 0.31015 0.19999 0.33439 0.0
H1937 H 0.3223 0.25109 0.40023 0.0
H1938 H 0.30289 0.25627 0.41808 0.0
H1939 H 0.30704 0.27181 0.39865 0.0
H1940 H 0.26982 0.26429 0.38732 0.0
H1941 H 0.26554 0.24876 0.40675 0.0
H1942 H 0.2596 0.23842 0.38122 0.0
H1943 H 0.3047 0.17841 0.36145 0.0
H1944 H 0.29756 0.16291 0.39173 0.0
H1945 H 0.28347 0.22114 0.42275 0.0
C1946 C 0.30005 0.25568 0.35485 0.0
C1947 C 0.30597 0.25082 0.33484 0.0
C1948 C 0.30955 0.23052 0.32767 0.0
C1949 C 0.30745 0.21543 0.34005 0.0
C1950 C 0.30167 0.22075 0.35964 0.0
C1951 C 0.29798 0.24035 0.36703 0.0
C1952 C 0.29177 0.24191 0.38865 0.0
C1953 C 0.3069 0.25611 0.4022 0.0
C1954 C 0.27041 0.24875 0.39112 0.0
C1955 C 0.29252 0.22012 0.3922 0.0
C1956 C 0.29828 0.2082 0.37525 0.0
C1957 C 0.30008 0.18758 0.37479 0.0
C1958 C 0.29583 0.17887 0.39207 0.0
C1959 C 0.28977 0.19069 0.40968 0.0
C1960 C 0.2882 0.21166 0.40965 0.0
H1961 H 0.54114 0.51496 0.9409 0.0
H1962 H 0.54134 0.44973 0.92866 0.0
H1963 H 0.52187 0.44955 0.89758 0.0
H1964 H 0.49076 0.51705 0.92406 0.0
H1965 H 0.49562 0.53998 0.91323 0.0
H1966 H 0.51085 0.53537 0.93384 0.0
H1967 H 0.54287 0.53988 0.91315 0.0
H1968 H 0.52774 0.54463 0.8925 0.0
H1969 H 0.5446 0.52481 0.88913 0.0
H1970 H 0.5017 0.45605 0.8686 0.0
H1971 H 0.48138 0.46877 0.84338 0.0
H1972 H 0.49303 0.52991 0.87424 0.0
C1973 C 0.5373 0.50073 0.93147 0.0
C1974 C 0.54279 0.48234 0.93705 0.0
C1975 C 0.53724 0.46394 0.92459 0.0
C1976 C 0.52623 0.46371 0.90692 0.0
C1977 C 0.52074 0.482 0.90195 0.0
C1978 C 0.52602 0.50019 0.91381 0.0
C1979 C 0.51734 0.51753 0.90534 0.0
C1980 C 0.50278 0.5281 0.91999 0.0
C1981 C 0.53414 0.5326 0.89969 0.0
C1982 C 0.5063 0.50619 0.88697 0.0
C1983 C 0.50864 0.48573 0.88528 0.0
C1984 C 0.49985 0.47206 0.86969 0.0
C1985 C 0.4884 0.47945 0.85537 0.0
C1986 C 0.48569 0.50035 0.85672 0.0
C1987 C 0.49474 0.51385 0.87284 0.0
H1988 H 0.75727 0.78863 0.1705 0.0
H1989 H 0.77253 0.74745 0.21111 0.0
H1990 H 0.78063 0.72242 0.18264 0.0
H1991 H 0.73282 0.75175 0.1346 0.0
H1992 H 0.74157 0.76289 0.11323 0.0
H1993 H 0.73911 0.77864 0.13671 0.0
H1994 H 0.77637 0.79226 0.13571 0.0
H1995 H 0.77893 0.77664 0.11213 0.0
H1996 H 0.79555 0.77472 0.13267 0.0
H1997 H 0.78437 0.70088 0.15024 0.0
H1998 H 0.78412 0.68405 0.11554 0.0
H1999 H 0.76612 0.73863 0.0952 0.0
C2000 C 0.76279 0.77452 0.17333 0.0
C2001 C 0.76439 0.76995 0.19297 0.0
C2002 C 0.7712 0.75118 0.19616 0.0
C2003 C 0.77589 0.73692 0.1801 0.0
C2004 C 0.7737 0.74163 0.1609 0.0
C2005 C 0.76741 0.75998 0.15738 0.0
C2006 C 0.76513 0.7606 0.13519 0.0
C2007 C 0.74336 0.76364 0.12962 0.0
C2008 C 0.77988 0.77703 0.12854 0.0
C2009 C 0.77071 0.73959 0.12687 0.0
C2010 C 0.77573 0.72901 0.14201 0.0
C2011 C 0.78061 0.70905 0.13824 0.0
C2012 C 0.78027 0.69957 0.11848 0.0
C2013 C 0.77501 0.70997 0.10266 0.0
C2014 C 0.7704 0.73036 0.10696 0.0
H2015 H 0.05417 0.04281 0.11738 0.0
H2016 H 0.01286 0.04016 0.06732 0.0
H2017 H 0.98428 0.03702 0.08984 0.0
H2018 H 0.02625 0.00621 0.14208 0.0
H2019 H 0.03213 0.01918 0.16679 0.0
H2020 H 0.04934 0.02204 0.14689 0.0
H2021 H 0.04821 0.06092 0.15386 0.0
H2022 H 0.031 0.05819 0.17379 0.0
H2023 H 0.02437 0.0717 0.15385 0.0
H2024 H 0.96014 0.03252 0.11757 0.0
H2025 H 0.94223 0.02817 0.14858 0.0
H2026 H 0.99909 0.03383 0.18081 0.0
C2027 C 0.03912 0.04154 0.11112 0.0
C2028 C 0.03582 0.04176 0.09049 0.0
C2029 C 0.01583 0.04031 0.08304 0.0
C2030 C 0.99948 0.0384 0.09572 0.0
C2031 C 1.00329 0.03807 0.1159 0.0
C2032 C 0.02261 0.03971 0.12359 0.0
C2033 C 0.02258 0.03874 0.14582 0.0
C2034 C 0.0332 0.02045 0.15067 0.0
C2035 C 0.03211 0.05857 0.15752 0.0
C2036 C 1.00022 0.03609 0.1494 0.0
C2037 C 0.98937 0.03571 0.13193 0.0
C2038 C 0.9685 0.03287 0.13134 0.0
C2039 C 0.95845 0.0303 0.14902 0.0
C2040 C 0.96921 0.03064 0.16716 0.0
C2041 C 0.99041 0.03373 0.16727 0.0
H2042 H 0.29168 0.79471 0.20697 0.0
H2043 H 0.28848 0.73178 0.18077 0.0
H2044 H 0.28031 0.74156 0.14779 0.0
H2045 H 0.25101 0.80954 0.17784 0.0
H2046 H 0.2634 0.83405 0.1759 0.0
H2047 H 0.26816 0.8218 0.19725 0.0
H2048 H 0.30627 0.82503 0.1904 0.0
H2049 H 0.30162 0.8372 0.16899 0.0
H2050 H 0.31518 0.81483 0.16635 0.0
H2051 H 0.27353 0.75883 0.11751 0.0
H2052 H 0.26879 0.7817 0.0926 0.0
H2053 H 0.27614 0.8333 0.1392 0.0
C2054 C 0.28905 0.78302 0.19427 0.0
C2055 C 0.29051 0.76253 0.1962 0.0
C2056 C 0.28725 0.74755 0.17942 0.0
C2057 C 0.28264 0.75299 0.16071 0.0
C2058 C 0.2814 0.77344 0.15921 0.0
C2059 C 0.28448 0.7882 0.17559 0.0
C2060 C 0.28276 0.80911 0.17005 0.0
C2061 C 0.26529 0.81922 0.1809 0.0
C2062 C 0.30264 0.82232 0.17419 0.0
C2063 C 0.27838 0.80392 0.14794 0.0
C2064 C 0.27758 0.78329 0.14194 0.0
C2065 C 0.27399 0.775 0.1221 0.0
C2066 C 0.27121 0.78812 0.10806 0.0
C2067 C 0.27204 0.80935 0.11388 0.0
C2068 C 0.27561 0.81721 0.13416 0.0
H2069 H 0.0213 0.45646 0.09657 0.0
H2070 H 0.00997 0.5179 0.08952 0.0
H2071 H 0.03225 0.53072 0.11866 0.0
H2072 H 0.02345 0.46384 0.15068 0.0
H2073 H 0.04317 0.44719 0.15173 0.0
H2074 H 0.02557 0.44304 0.13106 0.0
H2075 H 0.05499 0.44441 0.10651 0.0
H2076 H 0.07267 0.44862 0.12707 0.0
H2077 H 0.07292 0.46622 0.10927 0.0
H2078 H 0.05763 0.5367 0.14737 0.0
H2079 H 0.08251 0.53543 0.17414 0.0
H2080 H 0.07705 0.4699 0.1622 0.0
C2081 C 0.02346 0.47264 0.10115 0.0
C2082 C 0.01398 0.48621 0.09067 0.0
C2083 C 0.01697 0.50723 0.09737 0.0
C2084 C 0.02967 0.51463 0.11384 0.0
C2085 C 0.0391 0.5008 0.12356 0.0
C2086 C 0.03598 0.48022 0.11753 0.0
C2087 C 0.04809 0.46849 0.13021 0.0
C2088 C 0.03424 0.45484 0.1416 0.0
C2089 C 0.06305 0.45622 0.1175 0.0
C2090 C 0.05878 0.48568 0.14421 0.0
C2091 C 0.05341 0.5042 0.14014 0.0
C2092 C 0.06183 0.52227 0.15072 0.0
C2093 C 0.07606 0.52139 0.16582 0.0
C2094 C 0.08176 0.50256 0.17029 0.0
C2095 C 0.07285 0.48451 0.15933 0.0
H2096 H 0.34917 0.71438 0.29347 0.0
H2097 H 0.37225 0.74613 0.24587 0.0
H2098 H 0.40518 0.75285 0.26325 0.0
H2099 H 0.37461 0.74786 0.3333 0.0
H2100 H 0.37955 0.72816 0.34779 0.0
H2101 H 0.35798 0.7251 0.33129 0.0
H2102 H 0.36996 0.69151 0.31348 0.0
H2103 H 0.39155 0.69444 0.32996 0.0
H2104 H 0.39482 0.69127 0.30339 0.0
H2105 H 0.43546 0.75619 0.28562 0.0
H2106 H 0.461 0.757 0.3122 0.0
H2107 H 0.41834 0.72383 0.34595 0.0
C2108 C 0.36124 0.72257 0.28665 0.0
C2109 C 0.3582 0.72972 0.26831 0.0
C2110 C 0.37424 0.74065 0.25998 0.0
C2111 C 0.393 0.74446 0.26969 0.0
C2112 C 0.39548 0.73735 0.28781 0.0
C2113 C 0.38005 0.72671 0.29628 0.0
C2114 C 0.38657 0.72133 0.3162 0.0
C2115 C 0.37392 0.73121 0.33315 0.0
C2116 C 0.38567 0.69827 0.31572 0.0
C2117 C 0.40806 0.73063 0.31759 0.0
C2118 C 0.4129 0.73965 0.30096 0.0
C2119 C 0.43187 0.74914 0.2987 0.0
C2120 C 0.4463 0.74943 0.31382 0.0
C2121 C 0.44169 0.74041 0.33109 0.0
C2122 C 0.42226 0.73095 0.33297 0.0
H2123 H 0.97833 0.41648 0.02829 0.0
H2124 H 0.03344 0.45416 0.02382 0.0
H2125 H 0.04624 0.42721 0.99963 0.0
H2126 H 1.0015 0.36939 0.02586 0.0
H2127 H 0.98118 0.35479 0.01156 0.0
H2128 H 0.97634 0.37715 0.02828 0.0
H2129 H 0.96008 0.3918 0.99923 0.0
H2130 H 0.96492 0.3695 0.98242 0.0
H2131 H 0.97416 0.39411 0.97699 0.0
H2132 H 0.05242 0.39661 0.97508 0.0
H2133 H 0.05246 0.36401 0.95325 0.0
H2134 H 0.99409 0.34538 0.97542 0.0
C2135 C 0.99305 0.41906 0.02213 0.0
C2136 C 1.0049 0.4374 0.02782 0.0
C2137 C 0.0242 0.44015 0.01969 0.0
C2138 C 0.03154 0.42498 0.00591 0.0
C2139 C 0.01946 0.40708 1.00058 0.0
C2140 C 1.0007 0.40397 0.00855 0.0
C2141 C 0.99092 0.38319 1.00066 0.0
C2142 C 0.98728 0.37038 0.0176 0.0
C2143 C 0.97136 0.38475 0.98914 0.0
C2144 C 0.00704 0.37515 0.98686 0.0
C2145 C 0.02332 0.3892 0.98695 0.0
C2146 C 0.03985 0.38539 0.97506 0.0
C2147 C 0.03979 0.3667 0.96281 0.0
C2148 C 0.02338 0.35187 0.96264 0.0
C2149 C 0.00682 0.35632 0.97493 0.0
H2150 H 0.70114 0.76882 0.29694 0.0
H2151 H 0.68705 0.82001 0.26851 0.0
H2152 H 0.65796 0.82503 0.29073 0.0
H2153 H 0.65201 0.74871 0.30079 0.0
H2154 H 0.65534 0.74036 0.32462 0.0
H2155 H 0.67633 0.74243 0.30839 0.0
H2156 H 0.69643 0.76636 0.33621 0.0
H2157 H 0.67557 0.76416 0.35265 0.0
H2158 H 0.68568 0.78876 0.34794 0.0
H2159 H 0.6286 0.82207 0.31383 0.0
H2160 H 0.60195 0.81233 0.33638 0.0
H2161 H 0.63567 0.76313 0.3501 0.0
C2162 C 0.69224 0.78145 0.29587 0.0
C2163 C 0.69638 0.79434 0.28143 0.0
C2164 C 0.68419 0.8103 0.27984 0.0
C2165 C 0.66766 0.81317 0.29233 0.0
C2166 C 0.66365 0.79991 0.30623 0.0
C2167 C 0.67572 0.78446 0.30818 0.0
C2168 C 0.6675 0.7715 0.32333 0.0
C2169 C 0.6625 0.74945 0.3137 0.0
C2170 C 0.68216 0.77278 0.34109 0.0
C2171 C 0.64866 0.78174 0.32934 0.0
C2172 C 0.64676 0.79817 0.31942 0.0
C2173 C 0.63012 0.80945 0.32191 0.0
C2174 C 0.61508 0.80382 0.33487 0.0
C2175 C 0.61668 0.78703 0.34524 0.0
C2176 C 0.63384 0.77597 0.34239 0.0
H2177 H 0.07799 0.10829 0.00826 0.0
H2178 H 0.01829 0.08987 0.02663 0.0
H2179 H 1.00435 0.11552 0.0084 0.0
H2180 H 0.07155 0.16241 0.01067 0.0
H2181 H 0.0865 0.16476 0.98898 0.0
H2182 H 0.09153 0.14616 1.00473 0.0
H2183 H 0.08754 0.11811 0.97422 0.0
H2184 H 0.08231 0.13656 0.95842 0.0
H2185 H 0.06469 0.11495 0.95947 0.0
H2186 H 0.99714 0.1422 0.9864 0.0
H2187 H 0.99704 0.16742 0.96311 0.0
H2188 H 0.0618 0.16803 0.95924 0.0
C2189 C 0.06202 0.10998 0.00874 0.0
C2190 C 0.04915 0.09746 0.019 0.0
C2191 C 0.02833 0.09962 0.01903 0.0
C2192 C 0.02034 0.11408 0.00869 0.0
C2193 C 0.03345 0.12611 0.99841 0.0
C2194 C 0.05388 0.12423 0.99847 0.0
C2195 C 0.06472 0.13826 0.98564 0.0
C2196 C 0.07944 0.15382 0.99826 0.0
C2197 C 0.07544 0.12625 0.96842 0.0
C2198 C 0.04722 0.14821 0.97809 0.0
C2199 C 0.02932 0.14112 0.98569 0.0
C2200 C 0.01111 0.14794 0.98052 0.0
C2201 C 0.01122 0.16235 0.96732 0.0
C2202 C 0.02941 0.1698 0.95929 0.0
C2203 C 0.0476 0.16255 0.96488 0.0
H2204 H 0.35181 0.30867 0.27982 0.0
H2205 H 0.33207 0.24473 0.27043 0.0
H2206 H 0.35923 0.23832 0.2467 0.0
H2207 H 0.36717 0.31137 0.2275 0.0
H2208 H 0.38862 0.32892 0.23488 0.0
H2209 H 0.36665 0.32899 0.25012 0.0
H2210 H 0.3885 0.32413 0.28044 0.0
H2211 H 0.41049 0.32389 0.26529 0.0
H2212 H 0.40377 0.303 0.27867 0.0
H2213 H 0.39 0.23787 0.22681 0.0
H2214 H 0.42181 0.24393 0.20956 0.0
H2215 H 0.42187 0.30823 0.22986 0.0
C2216 C 0.353 0.29343 0.27242 0.0
C2217 C 0.33989 0.27716 0.27713 0.0
C2218 C 0.34207 0.25738 0.26729 0.0
C2219 C 0.35742 0.25357 0.25371 0.0
C2220 C 0.37045 0.26974 0.24985 0.0
C2221 C 0.36834 0.28932 0.25865 0.0
C2222 C 0.38499 0.30372 0.25221 0.0
C2223 C 0.37634 0.31917 0.24048 0.0
C2224 C 0.39769 0.3143 0.27023 0.0
C2225 C 0.39694 0.28905 0.23882 0.0
C2226 C 0.38819 0.26954 0.23774 0.0
C2227 C 0.39686 0.25311 0.22729 0.0
C2228 C 0.41497 0.25667 0.21764 0.0
C2229 C 0.4242 0.2765 0.21832 0.0
C2230 C 0.41496 0.29294 0.22892 0.0
H2231 H 0.5324 0.4106 0.01877 0.0
H2232 H 0.58231 0.4514 0.04421 0.0
H2233 H 0.58589 0.4301 0.07108 0.0
H2234 H 0.51047 0.40151 0.06437 0.0
H2235 H 0.50266 0.37533 0.05592 0.0
H2236 H 0.50504 0.3931 0.03833 0.0
H2237 H 0.52951 0.3708 0.01764 0.0
H2238 H 0.52714 0.35291 0.03514 0.0
H2239 H 0.55158 0.36386 0.02956 0.0
H2240 H 0.58279 0.40444 0.09585 0.0
H2241 H 0.57384 0.37709 0.1159 0.0
H2242 H 0.5252 0.35395 0.0742 0.0
C2243 C 0.54426 0.41485 0.02989 0.0
C2244 C 0.55725 0.4324 0.02948 0.0
C2245 C 0.57239 0.43782 0.0443 0.0
C2246 C 0.57446 0.42584 0.05957 0.0
C2247 C 0.56122 0.4086 0.05969 0.0
C2248 C 0.54645 0.40313 0.04516 0.0
C2249 C 0.5337 0.38436 0.04885 0.0
C2250 C 0.51167 0.38885 0.05206 0.0
C2251 C 0.5356 0.36696 0.03178 0.0
C2252 C 0.54343 0.38011 0.06785 0.0
C2253 C 0.55932 0.39417 0.07388 0.0
C2254 C 0.57037 0.39338 0.09121 0.0
C2255 C 0.56506 0.37784 0.10261 0.0
C2256 C 0.54877 0.36326 0.09672 0.0
C2257 C 0.53791 0.36457 0.07904 0.0
H2258 H 0.67935 0.20179 0.24839 0.0
H2259 H 0.6949 0.25318 0.29351 0.0
H2260 H 0.66681 0.27083 0.28159 0.0
H2261 H 0.66655 0.22985 0.20971 0.0
H2262 H 0.64612 0.21201 0.19981 0.0
H2263 H 0.66697 0.20349 0.21232 0.0
H2264 H 0.6426 0.18796 0.23667 0.0
H2265 H 0.62166 0.19638 0.22418 0.0
H2266 H 0.62545 0.20367 0.25061 0.0
H2267 H 0.63715 0.28284 0.26391 0.0
H2268 H 0.60886 0.28839 0.24226 0.0
H2269 H 0.61276 0.22861 0.20906 0.0
C2270 C 0.67671 0.21673 0.25578 0.0
C2271 C 0.68906 0.22623 0.27185 0.0
C2272 C 0.68542 0.24575 0.2812 0.0
C2273 C 0.66955 0.25582 0.27451 0.0
C2274 C 0.65758 0.24607 0.2585 0.0
C2275 C 0.66099 0.22693 0.2493 0.0
C2276 C 0.64622 0.2198 0.23226 0.0
C2277 C 0.65712 0.21607 0.21235 0.0
C2278 C 0.63321 0.20083 0.23617 0.0
C2279 C 0.63398 0.23794 0.23318 0.0
C2280 C 0.64069 0.25293 0.24843 0.0
C2281 C 0.63174 0.27114 0.25201 0.0
C2282 C 0.61558 0.27411 0.23968 0.0
C2283 C 0.60849 0.25897 0.2239 0.0
C2284 C 0.61789 0.24064 0.22078 0.0
H2285 H 0.47542 0.08357 0.04999 0.0
H2286 H 0.47986 0.10025 0.99057 0.0
H2287 H 0.48887 0.13579 0.00502 0.0
H2288 H 0.45342 0.12798 0.07274 0.0
H2289 H 0.46711 0.12956 0.09595 0.0
H2290 H 0.46138 0.10538 0.08094 0.0
H2291 H 0.49911 0.09913 0.08034 0.0
H2292 H 0.50495 0.12326 0.09541 0.0
H2293 H 0.51696 0.1175 0.07183 0.0
H2294 H 0.49623 0.16979 0.02604 0.0
H2295 H 0.50257 0.19942 0.05187 0.0
H2296 H 0.4944 0.16041 0.09768 0.0
C2297 C 0.47822 0.09471 0.04002 0.0
C2298 C 0.47693 0.08909 0.01912 0.0
C2299 C 0.48097 0.10412 0.0066 0.0
C2300 C 0.48599 0.12437 0.01468 0.0
C2301 C 0.48702 0.12939 0.03532 0.0
C2302 C 0.48337 0.11497 0.04783 0.0
C2303 C 0.48558 0.12433 0.06949 0.0
C2304 C 0.46568 0.12165 0.08042 0.0
C2305 C 0.50267 0.11553 0.07987 0.0
C2306 C 0.49088 0.1463 0.06723 0.0
C2307 C 0.4916 0.1489 0.04741 0.0
C2308 C 0.49589 0.16789 0.04161 0.0
C2309 C 0.49962 0.18464 0.05644 0.0
C2310 C 0.49916 0.18238 0.07692 0.0
C2311 C 0.4947 0.16283 0.08224 0.0
H2312 H 0.29095 0.34684 0.75357 0.0
H2313 H 0.25893 0.35924 0.70139 0.0
H2314 H 0.27815 0.39245 0.7035 0.0
H2315 H 0.29456 0.39967 0.77982 0.0
H2316 H 0.31932 0.39776 0.78966 0.0
H2317 H 0.30187 0.37562 0.7851 0.0
H2318 H 0.32788 0.35716 0.76278 0.0
H2319 H 0.34531 0.37928 0.76709 0.0
H2320 H 0.33808 0.36839 0.742 0.0
H2321 H 0.30295 0.42261 0.70902 0.0
H2322 H 0.33011 0.44929 0.71932 0.0
H2323 H 0.34563 0.4185 0.76871 0.0
C2324 C 0.28763 0.35678 0.74293 0.0
C2325 C 0.27346 0.35038 0.72726 0.0
C2326 C 0.26983 0.36371 0.71339 0.0
C2327 C 0.28063 0.38264 0.7145 0.0
C2328 C 0.29493 0.38822 0.7297 0.0
C2329 C 0.29828 0.37585 0.74386 0.0
C2330 C 0.31508 0.38529 0.75819 0.0
C2331 C 0.30724 0.38986 0.77946 0.0
C2332 C 0.33262 0.37172 0.75746 0.0
C2333 C 0.32089 0.40464 0.7496 0.0
C2334 C 0.30904 0.40597 0.73316 0.0
C2335 C 0.31216 0.42187 0.72202 0.0
C2336 C 0.32771 0.43687 0.72789 0.0
C2337 C 0.33993 0.43599 0.74481 0.0
C2338 C 0.33635 0.41968 0.75586 0.0
H2339 H 0.2888 0.67987 0.83205 0.0
H2340 H 0.2927 0.70296 0.77554 0.0
H2341 H 0.32041 0.68166 0.76579 0.0
H2342 H 0.34379 0.67441 0.83823 0.0
H2343 H 0.33938 0.65123 0.84874 0.0
H2344 H 0.32159 0.67019 0.85249 0.0
H2345 H 0.29327 0.64358 0.83773 0.0
H2346 H 0.31096 0.62461 0.8338 0.0
H2347 H 0.29598 0.6298 0.81323 0.0
H2348 H 0.34444 0.65533 0.7603 0.0
H2349 H 0.3648 0.62615 0.75996 0.0
H2350 H 0.34655 0.61974 0.82007 0.0
C2351 C 0.29596 0.68081 0.81791 0.0
C2352 C 0.28879 0.69316 0.80457 0.0
C2353 C 0.29809 0.69366 0.78595 0.0
C2354 C 0.31383 0.68164 0.78031 0.0
C2355 C 0.32021 0.66919 0.79347 0.0
C2356 C 0.31175 0.66877 0.81197 0.0
C2357 C 0.3206 0.65288 0.82258 0.0
C2358 C 0.33202 0.66277 0.84164 0.0
C2359 C 0.30423 0.63677 0.82709 0.0
C2360 C 0.33487 0.64413 0.80693 0.0
C2361 C 0.33443 0.65391 0.79033 0.0
C2362 C 0.34518 0.64778 0.77333 0.0
C2363 C 0.35663 0.63115 0.77323 0.0
C2364 C 0.35735 0.62086 0.79002 0.0
C2365 C 0.34652 0.62761 0.80719 0.0
H2366 H 0.93018 0.50034 0.4757 0.0
H2367 H 0.94561 0.53359 0.53421 0.0
H2368 H 0.91611 0.51644 0.54805 0.0
H2369 H 0.87659 0.49941 0.47964 0.0
H2370 H 0.87208 0.47395 0.46693 0.0
H2371 H 0.89394 0.4895 0.46128 0.0
H2372 H 0.91676 0.46215 0.46938 0.0
H2373 H 0.89498 0.44648 0.47496 0.0
H2374 H 0.91493 0.45327 0.49323 0.0
H2375 H 0.8849 0.49568 0.55566 0.0
H2376 H 0.85504 0.47191 0.55678 0.0
H2377 H 0.86139 0.45012 0.49392 0.0
C2378 C 0.92752 0.50396 0.49146 0.0
C2379 C 0.94028 0.51857 0.50376 0.0
C2380 C 0.93592 0.52289 0.52428 0.0
C2381 C 0.91924 0.51309 0.53236 0.0
C2382 C 0.90707 0.49883 0.51982 0.0
C2383 C 0.91106 0.49416 0.49984 0.0
C2384 C 0.89592 0.47778 0.48974 0.0
C2385 C 0.88392 0.48564 0.47343 0.0
C2386 C 0.90627 0.4588 0.48134 0.0
C2387 C 0.88281 0.47397 0.50718 0.0
C2388 C 0.88944 0.48637 0.52435 0.0
C2389 C 0.87967 0.48577 0.54234 0.0
C2390 C 0.86277 0.47205 0.54284 0.0
C2391 C 0.85582 0.45888 0.5255 0.0
C2392 C 0.86606 0.46003 0.50743 0.0
H2393 H 0.77545 0.84766 0.77482 0.0
H2394 H 0.77001 0.83891 0.83661 0.0
H2395 H 0.74211 0.86147 0.8403 0.0
H2396 H 0.76847 0.8992 0.78181 0.0
H2397 H 0.75449 0.8989 0.75896 0.0
H2398 H 0.77224 0.88041 0.7607 0.0
H2399 H 0.74447 0.85151 0.75043 0.0
H2400 H 0.72664 0.86994 0.74848 0.0
H2401 H 0.72159 0.85072 0.76429 0.0
H2402 H 0.71672 0.88732 0.83757 0.0
H2403 H 0.69603 0.91385 0.82897 0.0
H2404 H 0.71821 0.9053 0.76865 0.0
C2405 C 0.768 0.85014 0.78897 0.0
C2406 C 0.77446 0.84143 0.80538 0.0
C2407 C 0.7649 0.84529 0.82384 0.0
C2408 C 0.74913 0.85809 0.82604 0.0
C2409 C 0.74324 0.8668 0.80959 0.0
C2410 C 0.75234 0.86286 0.79138 0.0
C2411 C 0.74417 0.87498 0.77635 0.0
C2412 C 0.76084 0.88921 0.76904 0.0
C2413 C 0.73359 0.86095 0.75885 0.0
C2414 C 0.72932 0.88671 0.789 0.0
C2415 C 0.72885 0.88168 0.80808 0.0
C2416 C 0.71679 0.89115 0.8226 0.0
C2417 C 0.70499 0.90616 0.81752 0.0
C2418 C 0.70535 0.91168 0.79808 0.0
C2419 C 0.71762 0.9016 0.78367 0.0
H2420 H 0.59499 0.52962 0.97571 0.0
H2421 H 0.61686 0.47394 0.98965 0.0
H2422 H 0.65115 0.49086 0.99442 0.0
H2423 H 0.63731 0.54542 0.94837 0.0
H2424 H 0.63683 0.57189 0.95782 0.0
H2425 H 0.61397 0.55556 0.95601 0.0
H2426 H 0.60779 0.5662 0.99352 0.0
H2427 H 0.6306 0.58263 0.99544 0.0
H2428 H 0.62696 0.56347 0.01153 0.0
H2429 H 0.68344 0.51342 0.99579 0.0
H2430 H 0.71081 0.54057 0.99622 0.0
H2431 H 0.66778 0.58191 0.98242 0.0
C2432 C 0.60699 0.52101 0.97981 0.0
C2433 C 0.60325 0.50043 0.98229 0.0
C2434 C 0.61933 0.48975 0.98786 0.0
C2435 C 0.63887 0.49921 0.99048 0.0
C2436 C 0.64208 0.51943 0.98769 0.0
C2437 C 0.62654 0.53028 0.98271 0.0
C2438 C 0.63398 0.55188 0.98072 0.0
C2439 C 0.6303 0.55645 0.95947 0.0
C2440 C 0.62426 0.56693 0.99623 0.0
C2441 C 0.65618 0.55145 0.98515 0.0
C2442 C 0.66056 0.53256 0.98902 0.0
C2443 C 0.68014 0.5283 0.99292 0.0
C2444 C 0.69561 0.54378 0.99301 0.0
C2445 C 0.69144 0.56336 0.98939 0.0
C2446 C 0.67141 0.56716 0.98545 0.0
H2447 H 0.26955 0.6935 0.25 0.0
H2448 H 0.32518 0.66712 0.23316 0.0
H2449 H 0.3079 0.63294 0.23149 0.0
H2450 H 0.25272 0.65796 0.28134 0.0
H2451 H 0.22661 0.65723 0.27435 0.0
H2452 H 0.24293 0.67966 0.27295 0.0
H2453 H 0.23318 0.67823 0.23573 0.0
H2454 H 0.21673 0.65583 0.23705 0.0
H2455 H 0.23612 0.6555 0.21872 0.0
H2456 H 0.2851 0.6017 0.23324 0.0
H2457 H 0.25817 0.57544 0.23773 0.0
H2458 H 0.21724 0.62195 0.25368 0.0
C2459 C 0.27799 0.68052 0.24558 0.0
C2460 C 0.29873 0.68298 0.24169 0.0
C2461 C 0.30933 0.6656 0.23635 0.0
C2462 C 0.29963 0.64613 0.23528 0.0
C2463 C 0.27928 0.64424 0.23955 0.0
C2464 C 0.26853 0.66094 0.2445 0.0
C2465 C 0.24697 0.65468 0.24914 0.0
C2466 C 0.24203 0.66287 0.27073 0.0
C2467 C 0.23239 0.66146 0.23427 0.0
C2468 C 0.24735 0.63186 0.24623 0.0
C2469 C 0.26612 0.62618 0.24063 0.0
C2470 C 0.27032 0.60597 0.23756 0.0
C2471 C 0.25495 0.59116 0.2403 0.0
C2472 C 0.23558 0.59659 0.24612 0.0
C2473 C 0.2318 0.61726 0.249 0.0
H2474 H 0.92653 0.51018 0.01904 0.0
H2475 H 0.9393 0.53051 0.08158 0.0
H2476 H 0.91843 0.55938 0.08026 0.0
H2477 H 0.92586 0.56056 1.0033 0.0
H2478 H 0.90556 0.55247 0.98566 0.0
H2479 H 0.92284 0.5347 0.99135 0.0
H2480 H 0.89306 0.51097 1.00086 0.0
H2481 H 0.87572 0.52872 0.99538 0.0
H2482 H 0.87589 0.52053 0.01956 0.0
H2483 H 0.89406 0.58443 0.07236 0.0
H2484 H 0.8689 0.60402 0.05878 0.0
H2485 H 0.8725 0.5674 1.00102 0.0
C2486 C 0.92525 0.52101 0.03232 0.0
C2487 C 0.93464 0.51849 0.05036 0.0
C2488 C 0.93237 0.53251 0.0676 0.0
C2489 C 0.92053 0.54886 0.06695 0.0
C2490 C 0.91115 0.55082 0.04894 0.0
C2491 C 0.91349 0.53733 0.0319 0.0
C2492 C 0.9011 0.54219 0.01467 0.0
C2493 C 0.91465 0.54782 0.99775 0.0
C2494 C 0.88552 0.52455 0.00719 0.0
C2495 C 0.89111 0.56035 0.0247 0.0
C2496 C 0.89717 0.56516 0.04443 0.0
C2497 C 0.88945 0.58095 0.05686 0.0
C2498 C 0.87521 0.59209 0.04894 0.0
C2499 C 0.86875 0.58745 0.02872 0.0
C2500 C 0.87696 0.57134 0.01653 0.0
H2501 H 0.08867 0.99139 0.06604 0.0
H2502 H 0.12425 0.04887 0.0704 0.0
H2503 H 0.15528 0.03125 0.06988 0.0
H2504 H 0.12316 0.96631 0.09635 0.0
H2505 H 0.11887 0.94223 0.08076 0.0
H2506 H 0.09935 0.95941 0.0836 0.0
H2507 H 0.09717 0.95803 0.04532 0.0
H2508 H 0.11682 0.94105 0.04237 0.0
H2509 H 0.11943 0.96438 0.03191 0.0
H2510 H 0.18212 0.00781 0.06555 0.0
H2511 H 0.2038 0.97985 0.05939 0.0
H2512 H 0.15162 0.93667 0.05856 0.0
C2513 C 0.10303 1.00021 0.06742 0.0
C2514 C 0.10414 0.0215 0.06841 0.0
C2515 C 0.12314 0.03257 0.06969 0.0
C2516 C 0.14082 0.02269 0.06941 0.0
C2517 C 0.1393 1.00169 0.06785 0.0
C2518 C 0.12095 0.99052 0.06705 0.0
C2519 C 0.12374 0.968 0.06432 0.0
C2520 C 0.11581 0.95842 0.08233 0.0
C2521 C 0.11369 0.95724 0.04482 0.0
C2522 C 0.14646 0.96835 0.06332 0.0
C2523 C 0.15504 0.98798 0.0655 0.0
C2524 C 0.17563 0.99235 0.06424 0.0
C2525 C 0.18787 0.97627 0.06086 0.0
C2526 C 0.17961 0.95589 0.05886 0.0
C2527 C 0.15852 0.95199 0.06006 0.0
loop_
_geom_bond_atom_site_label_1
_geom_bond_atom_site_label_2
_geom_bond_distance
_geom_bond_site_symmetry_2
_ccdc_geom_bond_type
H0 C3 0.929 . S
H1 C6 0.929 . S
H2 C8 0.930 . S
C3 H0 0.929 . S
C3 C4 1.398 . S
C3 C5 1.396 . S
C4 C3 1.398 . S
C4 C8 1.407 . S
C5 C3 1.396 . S
C5 C6 1.394 . S
C6 H1 0.929 . S
C6 C5 1.394 . S
C6 C7 1.382 . S
C7 C6 1.382 . S
C7 C8 1.392 . S
C7 N9 1.420 . S
C8 H2 0.930 . S
C8 C4 1.407 . S
C8 C7 1.392 . S
N9 C7 1.420 . S
N9 C10 1.244 . S
C10 N9 1.244 . S
H11 C14 0.929 . S
H12 C17 0.929 . S
H13 C19 0.930 . S
C14 H11 0.929 . S
C14 C15 1.398 . S
C14 C16 1.396 . S
C15 C14 1.398 . S
C15 C19 1.407 . S
C16 C14 1.396 . S
C16 C17 1.394 . S
C17 H12 0.929 . S
C17 C16 1.394 . S
C17 C18 1.382 . S
C18 C17 1.382 . S
C18 C19 1.392 . S
C18 N20 1.420 . S
C19 H13 0.930 . S
C19 C15 1.407 . S
C19 C18 1.392 . S
N20 C18 1.420 . S
N20 C21 1.244 . S
C21 N20 1.244 . S
H22 C25 0.929 . S
H23 C28 0.929 . S
H24 C30 0.931 1_556 S
C25 H22 0.929 . S
C25 C26 1.398 1_455 S
C25 C27 1.396 . S
C26 C25 1.398 1_655 S
C26 C30 1.407 . S
C27 C25 1.396 . S
C27 C28 1.394 1_455 S
C28 H23 0.929 . S
C28 C27 1.394 1_655 S
C28 C29 1.382 . S
C29 C28 1.382 . S
C29 C30 1.392 . S
C29 N31 1.420 . S
C30 H24 0.931 1_554 S
C30 C26 1.407 . S
C30 C29 1.392 . S
N31 C29 1.420 . S
N31 C32 1.244 . S
C32 N31 1.244 . S
H33 C36 0.929 . S
H34 C39 0.929 . S
H35 C41 0.930 . S
C36 H33 0.929 . S
C36 C37 1.398 . S
C36 C38 1.396 . S
C37 C36 1.398 . S
C37 C41 1.407 . S
C38 C36 1.396 . S
C38 C39 1.394 . S
C39 H34 0.929 . S
C39 C38 1.394 . S
C39 C40 1.382 . S
C40 C39 1.382 . S
C40 C41 1.392 . S
C40 N42 1.420 . S
C41 H35 0.930 . S
C41 C37 1.407 . S
C41 C40 1.392 . S
N42 C40 1.420 . S
N42 C43 1.244 . S
C43 N42 1.244 . S
H44 C47 0.948 . S
H45 C50 0.929 . S
H46 C52 0.930 . S
C47 H44 0.948 . S
C47 C48 1.398 . S
C47 C49 1.396 . S
C48 C47 1.398 . S
C48 C52 1.407 . S
C49 C47 1.396 . S
C49 C50 1.394 . S
C50 H45 0.929 . S
C50 C49 1.394 . S
C50 C51 1.382 . S
C51 C50 1.382 . S
C51 C52 1.392 . S
C51 N53 1.420 . S
C52 H46 0.930 . S
C52 C48 1.407 . S
C52 C51 1.392 . S
N53 C51 1.420 . S
N53 C54 1.244 . S
C54 N53 1.244 . S
H55 C58 0.929 . S
H56 C61 0.929 . S
H57 C63 0.930 . S
C58 H55 0.929 . S
C58 C59 1.398 . S
C58 C60 1.396 . S
C59 C58 1.398 . S
C59 C63 1.407 . S
C60 C58 1.396 . S
C60 C61 1.394 . S
C61 H56 0.929 . S
C61 C60 1.394 . S
C61 C62 1.382 . S
C62 C61 1.382 . S
C62 C63 1.392 . S
C62 N64 1.420 . S
C63 H57 0.930 . S
C63 C59 1.407 . S
C63 C62 1.392 . S
N64 C62 1.420 . S
N64 C65 1.244 . S
C65 N64 1.244 . S
H66 C69 0.929 . S
H67 C72 0.929 1_455 S
H68 C74 0.930 . S
C69 H66 0.929 . S
C69 C70 1.398 . S
C69 C71 1.396 . S
C70 C69 1.398 . S
C70 C74 1.407 . S
C71 C69 1.396 . S
C71 C72 1.394 . S
C72 H67 0.929 1_655 S
C72 C71 1.394 . S
C72 C73 1.382 . S
C73 C72 1.382 . S
C73 C74 1.392 . S
C73 N75 1.420 1_655 S
C74 H68 0.930 . S
C74 C70 1.407 . S
C74 C73 1.392 . S
N75 C73 1.420 1_455 S
N75 C76 1.244 . S
C76 N75 1.244 . S
H77 C80 0.929 . S
H78 C83 0.929 . S
H79 C85 0.930 . S
C80 H77 0.929 . S
C80 C81 1.398 . S
C80 C82 1.396 . S
C81 C80 1.398 . S
C81 C85 1.407 . S
C82 C80 1.396 . S
C82 C83 1.394 . S
C83 H78 0.929 . S
C83 C82 1.394 . S
C83 C84 1.382 . S
C84 C83 1.382 . S
C84 C85 1.392 . S
C84 N86 1.420 . S
C85 H79 0.930 . S
C85 C81 1.407 . S
C85 C84 1.392 . S
N86 C84 1.420 . S
N86 C87 1.244 . S
C87 N86 1.244 . S
H88 C91 0.929 . S
H89 C94 0.929 . S
H90 C96 0.930 . S
C91 H88 0.929 . S
C91 C92 1.398 . S
C91 C93 1.396 . S
C92 C91 1.398 . S
C92 C96 1.407 . S
C93 C91 1.396 . S
C93 C94 1.394 . S
C94 H89 0.929 . S
C94 C93 1.394 . S
C94 C95 1.382 . S
C95 C94 1.382 . S
C95 C96 1.392 . S
C95 N97 1.420 . S
C96 H90 0.930 . S
C96 C92 1.407 . S
C96 C95 1.392 . S
N97 C95 1.420 . S
N97 C98 1.244 . S
C98 N97 1.244 . S
H99 C102 0.929 . S
H100 C105 0.929 1_545 S
H101 C107 0.930 . S
C102 H99 0.929 . S
C102 C103 1.398 . S
C102 C104 1.396 . S
C103 C102 1.398 . S
C103 C107 1.407 . S
C104 C102 1.396 . S
C104 C105 1.394 . S
C105 H100 0.929 1_565 S
C105 C104 1.394 . S
C105 C106 1.382 . S
C106 C105 1.382 . S
C106 C107 1.392 . S
C106 N108 1.420 1_565 S
C107 H101 0.930 . S
C107 C103 1.407 . S
C107 C106 1.392 . S
N108 C106 1.420 1_545 S
N108 C109 1.244 . S
C109 N108 1.244 . S
H110 C113 0.929 . S
H111 C116 0.929 . S
H112 C118 0.930 . S
C113 H110 0.929 . S
C113 C114 1.398 . S
C113 C115 1.396 . S
C114 C113 1.398 . S
C114 C118 1.407 . S
C115 C113 1.396 . S
C115 C116 1.394 . S
C116 H111 0.929 . S
C116 C115 1.394 . S
C116 C117 1.382 . S
C117 C116 1.382 . S
C117 C118 1.392 . S
C117 N119 1.420 . S
C118 H112 0.930 . S
C118 C114 1.407 . S
C118 C117 1.392 . S
N119 C117 1.420 . S
N119 C120 1.244 . S
C120 N119 1.244 . S
H121 C124 0.929 . S
H122 C127 0.929 . S
H123 C129 0.930 . S
C124 H121 0.929 . S
C124 C125 1.398 . S
C124 C126 1.396 . S
C125 C124 1.398 . S
C125 C129 1.407 . S
C126 C124 1.396 . S
C126 C127 1.394 . S
C127 H122 0.929 . S
C127 C126 1.394 . S
C127 C128 1.382 . S
C128 C127 1.382 . S
C128 C129 1.392 . S
C128 N130 1.420 . S
C129 H123 0.930 . S
C129 C125 1.407 . S
C129 C128 1.392 . S
N130 C128 1.420 . S
N130 C131 1.244 . S
C131 N130 1.244 . S
H132 C135 0.929 . S
H133 C138 0.929 . S
H134 C140 0.930 . S
C135 H132 0.929 . S
C135 C136 1.398 . S
C135 C137 1.396 . S
C136 C135 1.398 . S
C136 C140 1.407 . S
C137 C135 1.396 . S
C137 C138 1.394 . S
C138 H133 0.929 . S
C138 C137 1.394 . S
C138 C139 1.382 . S
C139 C138 1.382 . S
C139 C140 1.392 . S
C139 N141 1.420 . S
C140 H134 0.930 . S
C140 C136 1.407 . S
C140 C139 1.392 . S
N141 C139 1.420 . S
N141 C142 1.244 . S
C142 N141 1.244 . S
H143 C146 0.929 . S
H144 C149 0.929 . S
H145 C151 0.930 . S
C146 H143 0.929 . S
C146 C147 1.398 . S
C146 C148 1.396 . S
C147 C146 1.398 . S
C147 C151 1.407 . S
C148 C146 1.396 . S
C148 C149 1.394 1_556 S
C149 H144 0.929 . S
C149 C148 1.394 1_554 S
C149 C150 1.382 . S
C150 C149 1.382 . S
C150 C151 1.392 1_554 S
C150 N152 1.420 . S
C151 H145 0.930 . S
C151 C147 1.407 . S
C151 C150 1.392 1_556 S
N152 C150 1.420 . S
N152 C153 1.244 . S
C153 N152 1.244 . S
H154 C157 0.929 . S
H155 C160 0.929 . S
H156 C162 0.930 . S
C157 H154 0.929 . S
C157 C158 1.398 . S
C157 C159 1.396 . S
C158 C157 1.398 . S
C158 C162 1.407 . S
C159 C157 1.396 . S
C159 C160 1.394 . S
C160 H155 0.929 . S
C160 C159 1.394 . S
C160 C161 1.382 . S
C161 C160 1.382 . S
C161 C162 1.392 . S
C161 N163 1.420 . S
C162 H156 0.930 . S
C162 C158 1.407 . S
C162 C161 1.392 . S
N163 C161 1.420 . S
N163 C164 1.244 . S
C164 N163 1.244 . S
H165 C168 0.929 1_554 S
H166 C171 0.929 . S
H167 C173 0.930 1_565 S
C168 H165 0.929 1_556 S
C168 C169 1.398 . S
C168 C170 1.396 . S
C169 C168 1.398 . S
C169 C173 1.407 . S
C170 C168 1.396 . S
C170 C171 1.394 . S
C171 H166 0.929 . S
C171 C170 1.394 . S
C171 C172 1.382 . S
C172 C171 1.382 . S
C172 C173 1.392 . S
C172 N174 1.420 . S
C173 H167 0.930 1_545 S
C173 C169 1.407 . S
C173 C172 1.392 . S
N174 C172 1.420 . S
N174 C175 1.244 . S
C175 N174 1.244 . S
Li176 N193 1.990 . S
Li176 O236 1.956 . S
Li176 O237 1.970 . S
Li176 O238 1.961 . S
Li177 N201 1.990 . S
Li177 O236 1.970 . S
Li177 O237 1.956 . S
Li177 O239 1.961 . S
Li178 N223 1.990 1_554 S
Li178 O236 1.961 . S
Li178 O238 1.956 . S
Li178 O239 1.970 . S
Li179 N229 1.990 . S
Li179 O237 1.961 . S
Li179 O238 1.970 . S
Li179 O239 1.956 . S
C180 C182 1.348 . S
C180 C183 1.356 . S
C180 O236 1.325 . S
N181 C184 1.314 . S
N181 C185 1.279 . S
C182 C180 1.348 . S
C182 C184 1.353 . S
C182 H240 0.929 . S
C183 C180 1.356 . S
C183 C185 1.358 . S
C183 H241 0.930 1_554 S
C184 N181 1.314 . S
C184 C182 1.353 . S
C184 H242 0.930 . S
C185 N181 1.279 . S
C185 C183 1.358 . S
C185 H243 0.930 1_554 S
C186 C189 1.348 . S
C186 C190 1.356 . S
C186 O237 1.325 . S
C187 N188 1.279 . S
C187 C190 1.358 . S
C187 H244 0.930 . S
N188 C187 1.279 . S
N188 C191 1.314 . S
C189 C186 1.348 . S
C189 C191 1.353 . S
C189 H245 0.929 . S
C190 C186 1.356 . S
C190 C187 1.358 . S
C190 H246 0.930 . S
C191 N188 1.314 . S
C191 C189 1.353 . S
C191 H247 0.930 . S
C192 N193 1.314 . S
C192 C197 1.353 . S
C192 H198 0.930 . S
N193 Li176 1.990 . S
N193 C192 1.314 . S
N193 C195 1.279 . S
C194 C195 1.358 . S
C194 C196 1.356 . S
C194 H248 0.930 . S
C195 N193 1.279 . S
C195 C194 1.358 . S
C195 H199 0.930 . S
C196 C194 1.356 . S
C196 C197 1.348 . S
C197 C192 1.353 . S
C197 C196 1.348 . S
C197 H249 0.929 . S
H198 C192 0.930 . S
H199 C195 0.930 . S
C200 N201 1.314 . S
C200 C202 1.353 . S
C200 H206 0.930 . S
N201 Li177 1.990 . S
N201 C200 1.314 . S
N201 C204 1.279 . S
C202 C200 1.353 . S
C202 C205 1.348 . S
C202 H250 0.929 . S
C203 C204 1.358 . S
C203 C205 1.356 . S
C203 H251 0.930 . S
C204 N201 1.279 . S
C204 C203 1.358 . S
C204 H207 0.930 . S
C205 C202 1.348 . S
C205 C203 1.356 . S
H206 C200 0.930 . S
H207 C204 0.930 . S
C208 C210 1.352 . S
C208 C211 1.369 . S
C208 O238 1.309 1_556 S
N209 C212 1.314 . S
N209 C213 1.279 . S
C210 C208 1.352 . S
C210 C212 1.353 . S
C210 H252 0.929 1_556 S
C211 C208 1.369 . S
C211 C213 1.358 . S
C211 H253 0.930 . S
C212 N209 1.314 . S
C212 C210 1.353 . S
C212 H254 0.930 . S
C213 N209 1.279 . S
C213 C211 1.358 . S
C213 H255 0.930 . S
C214 C215 1.348 . S
C214 C216 1.356 . S
C214 O239 1.325 . S
C215 C214 1.348 . S
C215 C217 1.353 . S
C215 H256 0.929 . S
C216 C214 1.356 . S
C216 C218 1.358 . S
C216 H257 0.930 . S
C217 C215 1.353 . S
C217 N219 1.314 . S
C217 H258 0.930 . S
C218 C216 1.358 . S
C218 N219 1.279 . S
C218 H259 0.930 . S
N219 C217 1.314 . S
N219 C218 1.279 . S
C220 C222 1.353 . S
C220 N223 1.314 . S
C220 H226 0.929 1_556 S
C221 N223 1.279 . S
C221 C224 1.358 . S
C221 H227 0.930 . S
C222 C220 1.353 . S
C222 C225 1.348 . S
C222 H260 0.929 . S
N223 Li178 1.990 1_556 S
N223 C220 1.314 . S
N223 C221 1.279 . S
C224 C221 1.358 . S
C224 C225 1.356 . S
C224 H261 0.930 . S
C225 C222 1.348 . S
C225 C224 1.356 . S
H226 C220 0.929 1_554 S
H227 C221 0.930 . S
C228 N229 1.314 . S
C228 C230 1.353 . S
C228 H234 0.930 . S
N229 Li179 1.990 . S
N229 C228 1.314 . S
N229 C232 1.279 . S
C230 C228 1.353 . S
C230 C233 1.348 . S
C230 H262 0.929 . S
C231 C232 1.358 . S
C231 C233 1.356 . S
C231 H263 0.930 . S
C232 N229 1.279 . S
C232 C231 1.358 . S
C232 H235 0.930 . S
C233 C230 1.348 . S
C233 C231 1.356 . S
H234 C228 0.930 . S
H235 C232 0.930 . S
O236 Li176 1.956 . S
O236 Li177 1.970 . S
O236 Li178 1.961 . S
O236 C180 1.325 . S
O237 Li176 1.970 . S
O237 Li177 1.956 . S
O237 Li179 1.961 . S
O237 C186 1.325 . S
O238 Li176 1.961 . S
O238 Li178 1.956 . S
O238 Li179 1.970 . S
O238 C208 1.309 1_554 S
O239 Li177 1.961 . S
O239 Li178 1.970 . S
O239 Li179 1.956 . S
O239 C214 1.325 . S
H240 C182 0.929 . S
H241 C183 0.930 1_556 S
H242 C184 0.930 . S
H243 C185 0.930 1_556 S
H244 C187 0.930 . S
H245 C189 0.929 . S
H246 C190 0.930 . S
H247 C191 0.930 . S
H248 C194 0.930 . S
H249 C197 0.929 . S
H250 C202 0.929 . S
H251 C203 0.930 . S
H252 C210 0.929 1_554 S
H253 C211 0.930 . S
H254 C212 0.930 . S
H255 C213 0.930 . S
H256 C215 0.929 . S
H257 C216 0.930 . S
H258 C217 0.930 . S
H259 C218 0.930 . S
H260 C222 0.929 . S
H261 C224 0.930 . S
H262 C230 0.929 . S
H263 C231 0.930 . S
Li264 N281 1.990 . S
Li264 O324 1.956 . S
Li264 O325 1.970 . S
Li264 O326 1.961 . S
Li265 N289 1.990 . S
Li265 O324 1.970 . S
Li265 O325 1.956 . S
Li265 O327 1.961 . S
Li266 N311 1.990 . S
Li266 O324 1.961 . S
Li266 O326 1.956 . S
Li266 O327 1.970 . S
Li267 N317 1.990 . S
Li267 O325 1.961 . S
Li267 O326 1.970 . S
Li267 O327 1.956 . S
C268 C270 1.348 . S
C268 C271 1.356 . S
C268 O324 1.325 . S
N269 C272 1.314 . S
N269 C273 1.279 . S
C270 C268 1.348 . S
C270 C272 1.353 . S
C270 H328 0.929 . S
C271 C268 1.356 . S
C271 C273 1.358 . S
C271 H329 0.930 . S
C272 N269 1.314 . S
C272 C270 1.353 . S
C272 H330 0.930 . S
C273 N269 1.279 . S
C273 C271 1.358 . S
C273 H331 0.930 . S
C274 C277 1.348 . S
C274 C278 1.356 . S
C274 O325 1.325 . S
C275 N276 1.279 . S
C275 C278 1.358 . S
C275 H332 0.930 . S
N276 C275 1.279 . S
N276 C279 1.314 . S
C277 C274 1.348 . S
C277 C279 1.353 . S
C277 H333 0.929 . S
C278 C274 1.356 . S
C278 C275 1.358 . S
C278 H334 0.930 . S
C279 N276 1.314 . S
C279 C277 1.353 . S
C279 H335 0.930 . S
C280 N281 1.314 . S
C280 C285 1.353 . S
C280 H286 0.930 . S
N281 Li264 1.990 . S
N281 C280 1.314 . S
N281 C283 1.279 . S
C282 C283 1.358 . S
C282 C284 1.356 . S
C282 H336 0.930 . S
C283 N281 1.279 . S
C283 C282 1.358 . S
C283 H287 0.930 . S
C284 C282 1.356 . S
C284 C285 1.348 . S
C285 C280 1.353 . S
C285 C284 1.348 . S
C285 H337 0.929 . S
H286 C280 0.930 . S
H287 C283 0.930 . S
C288 N289 1.314 . S
C288 C290 1.353 . S
C288 H294 0.930 . S
N289 Li265 1.990 . S
N289 C288 1.314 . S
N289 C292 1.279 . S
C290 C288 1.353 . S
C290 C293 1.348 . S
C290 H338 0.929 . S
C291 C292 1.358 . S
C291 C293 1.356 . S
C291 H339 0.930 . S
C292 N289 1.279 . S
C292 C291 1.358 . S
C292 H295 0.930 . S
C293 C290 1.348 . S
C293 C291 1.356 . S
H294 C288 0.930 . S
H295 C292 0.930 . S
C296 C298 1.348 . S
C296 C299 1.356 . S
C296 O326 1.325 . S
N297 C300 1.314 . S
N297 C301 1.279 . S
C298 C296 1.348 . S
C298 C300 1.353 . S
C298 H340 0.929 . S
C299 C296 1.356 . S
C299 C301 1.358 . S
C299 H341 0.930 . S
C300 N297 1.314 . S
C300 C298 1.353 . S
C300 H342 0.930 . S
C301 N297 1.279 . S
C301 C299 1.358 . S
C301 H343 0.930 . S
C302 C303 1.348 . S
C302 C304 1.356 . S
C302 O327 1.325 . S
C303 C302 1.348 . S
C303 C305 1.353 . S
C303 H344 0.929 . S
C304 C302 1.356 . S
C304 C306 1.358 . S
C304 H345 0.930 . S
C305 C303 1.353 . S
C305 N307 1.314 . S
C305 H346 0.930 . S
C306 C304 1.358 . S
C306 N307 1.279 . S
C306 H347 0.930 . S
N307 C305 1.314 . S
N307 C306 1.279 . S
C308 C310 1.353 . S
C308 N311 1.314 . S
C308 H314 0.930 . S
C309 N311 1.279 . S
C309 C312 1.358 . S
C309 H315 0.930 . S
C310 C308 1.353 . S
C310 C313 1.348 . S
C310 H348 0.929 . S
N311 Li266 1.990 . S
N311 C308 1.314 . S
N311 C309 1.279 . S
C312 C309 1.358 . S
C312 C313 1.356 . S
C312 H349 0.930 . S
C313 C310 1.348 . S
C313 C312 1.356 . S
H314 C308 0.930 . S
H315 C309 0.930 . S
C316 N317 1.314 . S
C316 C318 1.353 . S
C316 H322 0.930 . S
N317 Li267 1.990 . S
N317 C316 1.314 . S
N317 C320 1.279 . S
C318 C316 1.353 . S
C318 C321 1.348 . S
C318 H350 0.929 . S
C319 C320 1.358 . S
C319 C321 1.356 . S
C319 H351 0.930 . S
C320 N317 1.279 . S
C320 C319 1.358 . S
C320 H323 0.930 . S
C321 C318 1.348 . S
C321 C319 1.356 . S
H322 C316 0.930 . S
H323 C320 0.930 . S
O324 Li264 1.956 . S
O324 Li265 1.970 . S
O324 Li266 1.961 . S
O324 C268 1.325 . S
O325 Li264 1.970 . S
O325 Li265 1.956 . S
O325 Li267 1.961 . S
O325 C274 1.325 . S
O326 Li264 1.961 . S
O326 Li266 1.956 . S
O326 Li267 1.970 . S
O326 C296 1.325 . S
O327 Li265 1.961 . S
O327 Li266 1.970 . S
O327 Li267 1.956 . S
O327 C302 1.325 . S
H328 C270 0.929 . S
H329 C271 0.930 . S
H330 C272 0.930 . S
H331 C273 0.930 . S
H332 C275 0.930 . S
H333 C277 0.929 . S
H334 C278 0.930 . S
H335 C279 0.930 . S
H336 C282 0.930 . S
H337 C285 0.929 . S
H338 C290 0.929 . S
H339 C291 0.930 . S
H340 C298 0.929 . S
H341 C299 0.930 . S
H342 C300 0.930 . S
H343 C301 0.930 . S
H344 C303 0.929 . S
H345 C304 0.930 . S
H346 C305 0.930 . S
H347 C306 0.930 . S
H348 C310 0.929 . S
H349 C312 0.930 . S
H350 C318 0.929 . S
H351 C319 0.930 . S
Li352 N369 1.994 . S
Li352 O412 1.969 1_556 S
Li352 O413 1.927 1_556 S
Li352 O414 1.997 . S
Li353 N377 1.990 . S
Li353 O412 2.014 . S
Li353 O413 1.956 . S
Li353 O415 1.961 . S
Li354 N399 1.990 . S
Li354 O412 1.924 1_556 S
Li354 O414 1.956 . S
Li354 O415 1.970 1_556 S
Li355 N405 1.990 . S
Li355 O413 1.961 . S
Li355 O414 1.970 1_554 S
Li355 O415 1.956 . S
C356 C358 1.335 1_556 S
C356 C359 1.371 . S
C356 O412 1.317 1_556 S
N357 C360 1.314 1_556 S
N357 C361 1.279 . S
C358 C356 1.335 1_554 S
C358 C360 1.353 . S
C358 H416 0.929 . S
C359 C356 1.371 . S
C359 C361 1.358 . S
C359 H417 0.930 . S
C360 N357 1.314 1_554 S
C360 C358 1.353 . S
C360 H418 0.930 . S
C361 N357 1.279 . S
C361 C359 1.358 . S
C361 H419 0.930 . S
C362 C365 1.348 . S
C362 C366 1.356 . S
C362 O413 1.325 . S
C363 N364 1.279 . S
C363 C366 1.358 . S
C363 H420 0.930 . S
N364 C363 1.279 . S
N364 C367 1.314 . S
C365 C362 1.348 . S
C365 C367 1.353 . S
C365 H421 0.929 . S
C366 C362 1.356 . S
C366 C363 1.358 . S
C366 H422 0.930 . S
C367 N364 1.314 . S
C367 C365 1.353 . S
C367 H423 0.930 . S
C368 N369 1.314 . S
C368 C373 1.353 . S
C368 H374 0.930 . S
N369 Li352 1.994 . S
N369 C368 1.314 . S
N369 C371 1.279 . S
C370 C371 1.358 . S
C370 C372 1.356 . S
C370 H424 0.930 . S
C371 N369 1.279 . S
C371 C370 1.358 . S
C371 H375 0.930 1_556 S
C372 C370 1.356 . S
C372 C373 1.348 . S
C373 C368 1.353 . S
C373 C372 1.348 . S
C373 H425 0.929 . S
H374 C368 0.930 . S
H375 C371 0.930 1_554 S
C376 N377 1.314 . S
C376 C378 1.353 . S
C376 H382 0.930 . S
N377 Li353 1.990 . S
N377 C376 1.314 . S
N377 C380 1.279 . S
C378 C376 1.353 . S
C378 C381 1.348 . S
C378 H426 0.929 . S
C379 C380 1.358 . S
C379 C381 1.356 . S
C379 H427 0.930 . S
C380 N377 1.279 . S
C380 C379 1.358 . S
C380 H383 0.930 . S
C381 C378 1.348 . S
C381 C379 1.356 . S
H382 C376 0.930 . S
H383 C380 0.930 . S
C384 C386 1.348 . S
C384 C387 1.356 . S
C384 O414 1.325 . S
N385 C388 1.314 . S
N385 C389 1.279 . S
C386 C384 1.348 . S
C386 C388 1.353 . S
C386 H428 0.929 . S
C387 C384 1.356 . S
C387 C389 1.358 . S
C387 H429 0.930 . S
C388 N385 1.314 . S
C388 C386 1.353 . S
C388 H430 0.930 . S
C389 N385 1.279 . S
C389 C387 1.358 . S
C389 H431 0.930 . S
C390 C391 1.348 1_554 S
C390 C392 1.356 . S
C390 O415 1.325 . S
C391 C390 1.348 1_556 S
C391 C393 1.353 . S
C391 H432 0.929 . S
C392 C390 1.356 . S
C392 C394 1.358 . S
C392 H433 0.930 . S
C393 C391 1.353 . S
C393 N395 1.314 1_556 S
C393 H434 0.930 . S
C394 C392 1.358 . S
C394 N395 1.279 . S
C394 H435 0.930 . S
N395 C393 1.314 1_554 S
N395 C394 1.279 . S
C396 C398 1.353 . S
C396 N399 1.314 . S
C396 H402 0.930 . S
C397 N399 1.279 . S
C397 C400 1.358 . S
C397 H403 0.930 . S
C398 C396 1.353 . S
C398 C401 1.348 . S
C398 H436 0.929 . S
N399 Li354 1.990 . S
N399 C396 1.314 . S
N399 C397 1.279 . S
C400 C397 1.358 . S
C400 C401 1.356 . S
C400 H437 0.930 . S
C401 C398 1.348 . S
C401 C400 1.356 . S
H402 C396 0.930 . S
H403 C397 0.930 . S
C404 N405 1.314 . S
C404 C406 1.353 . S
C404 H410 0.930 . S
N405 Li355 1.990 . S
N405 C404 1.314 . S
N405 C408 1.279 . S
C406 C404 1.353 . S
C406 C409 1.348 . S
C406 H438 0.929 . S
C407 C408 1.358 . S
C407 C409 1.356 . S
C407 H439 0.930 . S
C408 N405 1.279 . S
C408 C407 1.358 . S
C408 H411 0.930 . S
C409 C406 1.348 . S
C409 C407 1.356 . S
H410 C404 0.930 . S
H411 C408 0.930 . S
O412 Li352 1.969 1_554 S
O412 Li353 2.014 . S
O412 Li354 1.924 1_554 S
O412 C356 1.317 1_554 S
O413 Li352 1.927 1_554 S
O413 Li353 1.956 . S
O413 Li355 1.961 . S
O413 C362 1.325 . S
O414 Li352 1.997 . S
O414 Li354 1.956 . S
O414 Li355 1.970 1_556 S
O414 C384 1.325 . S
O415 Li353 1.961 . S
O415 Li354 1.970 1_554 S
O415 Li355 1.956 . S
O415 C390 1.325 . S
H416 C358 0.929 . S
H417 C359 0.930 . S
H418 C360 0.930 . S
H419 C361 0.930 . S
H420 C363 0.930 . S
H421 C365 0.929 . S
H422 C366 0.930 . S
H423 C367 0.930 . S
H424 C370 0.930 . S
H425 C373 0.929 . S
H426 C378 0.929 . S
H427 C379 0.930 . S
H428 C386 0.929 . S
H429 C387 0.930 . S
H430 C388 0.930 . S
H431 C389 0.930 . S
H432 C391 0.929 . S
H433 C392 0.930 . S
H434 C393 0.930 . S
H435 C394 0.930 . S
H436 C398 0.929 . S
H437 C400 0.930 . S
H438 C406 0.929 . S
H439 C407 0.930 . S
Li440 N457 1.990 . S
Li440 O500 1.956 . S
Li440 O501 1.970 . S
Li440 O502 1.961 . S
Li441 N465 1.990 . S
Li441 O500 1.970 . S
Li441 O501 1.956 . S
Li441 O503 1.961 1_545 S
Li442 N487 1.990 . S
Li442 O500 1.961 . S
Li442 O502 1.956 . S
Li442 O503 1.970 1_545 S
Li443 N493 1.990 . S
Li443 O501 1.961 1_565 S
Li443 O502 1.970 1_565 S
Li443 O503 1.956 . S
C444 C446 1.348 . S
C444 C447 1.356 . S
C444 O500 1.325 . S
N445 C448 1.314 . S
N445 C449 1.279 . S
C446 C444 1.348 . S
C446 C448 1.353 . S
C446 H504 0.929 . S
C447 C444 1.356 . S
C447 C449 1.358 . S
C447 H505 0.930 . S
C448 N445 1.314 . S
C448 C446 1.353 . S
C448 H506 0.930 . S
C449 N445 1.279 . S
C449 C447 1.358 . S
C449 H507 0.930 . S
C450 C453 1.348 . S
C450 C454 1.356 1_545 S
C450 O501 1.325 . S
C451 N452 1.279 1_565 S
C451 C454 1.358 . S
C451 H508 0.930 . S
N452 C451 1.279 1_545 S
N452 C455 1.314 . S
C453 C450 1.348 . S
C453 C455 1.353 . S
C453 H509 0.929 . S
C454 C450 1.356 1_565 S
C454 C451 1.358 . S
C454 H510 0.930 . S
C455 N452 1.314 . S
C455 C453 1.353 . S
C455 H511 0.930 . S
C456 N457 1.314 . S
C456 C461 1.353 . S
C456 H462 0.930 . S
N457 Li440 1.990 . S
N457 C456 1.314 . S
N457 C459 1.279 . S
C458 C459 1.358 . S
C458 C460 1.356 . S
C458 H512 0.930 . S
C459 N457 1.279 . S
C459 C458 1.358 . S
C459 H463 0.930 . S
C460 C458 1.356 . S
C460 C461 1.348 . S
C461 C456 1.353 . S
C461 C460 1.348 . S
C461 H513 0.929 . S
H462 C456 0.930 . S
H463 C459 0.930 . S
C464 N465 1.314 . S
C464 C466 1.353 . S
C464 H470 0.930 . S
N465 Li441 1.990 . S
N465 C464 1.314 . S
N465 C468 1.279 . S
C466 C464 1.353 . S
C466 C469 1.348 . S
C466 H514 0.929 . S
C467 C468 1.358 . S
C467 C469 1.356 . S
C467 H515 0.930 . S
C468 N465 1.279 . S
C468 C467 1.358 . S
C468 H471 0.930 . S
C469 C466 1.348 . S
C469 C467 1.356 . S
H470 C464 0.930 . S
H471 C468 0.930 . S
C472 C474 1.348 . S
C472 C475 1.356 . S
C472 O502 1.325 . S
N473 C476 1.314 . S
N473 C477 1.279 . S
C474 C472 1.348 . S
C474 C476 1.353 . S
C474 H516 0.929 1_545 S
C475 C472 1.356 . S
C475 C477 1.358 . S
C475 H517 0.930 . S
C476 N473 1.314 . S
C476 C474 1.353 . S
C476 H518 0.930 1_545 S
C477 N473 1.279 . S
C477 C475 1.358 . S
C477 H519 0.930 . S
C478 C479 1.348 . S
C478 C480 1.356 . S
C478 O503 1.325 . S
C479 C478 1.348 . S
C479 C481 1.353 . S
C479 H520 0.929 . S
C480 C478 1.356 . S
C480 C482 1.358 . S
C480 H521 0.930 . S
C481 C479 1.353 . S
C481 N483 1.314 . S
C481 H522 0.930 . S
C482 C480 1.358 . S
C482 N483 1.279 . S
C482 H523 0.930 . S
N483 C481 1.314 . S
N483 C482 1.279 . S
C484 C486 1.353 . S
C484 N487 1.314 . S
C484 H490 0.930 . S
C485 N487 1.279 . S
C485 C488 1.358 . S
C485 H491 0.930 . S
C486 C484 1.353 . S
C486 C489 1.348 . S
C486 H524 0.929 . S
N487 Li442 1.990 . S
N487 C484 1.314 . S
N487 C485 1.279 . S
C488 C485 1.358 . S
C488 C489 1.356 . S
C488 H525 0.930 . S
C489 C486 1.348 . S
C489 C488 1.356 . S
H490 C484 0.930 . S
H491 C485 0.930 . S
C492 N493 1.314 . S
C492 C494 1.353 . S
C492 H498 0.930 . S
N493 Li443 1.990 . S
N493 C492 1.314 . S
N493 C496 1.279 . S
C494 C492 1.353 . S
C494 C497 1.348 . S
C494 H526 0.929 . S
C495 C496 1.358 . S
C495 C497 1.356 . S
C495 H527 0.930 . S
C496 N493 1.279 . S
C496 C495 1.358 . S
C496 H499 0.930 . S
C497 C494 1.348 . S
C497 C495 1.356 . S
H498 C492 0.930 . S
H499 C496 0.930 . S
O500 Li440 1.956 . S
O500 Li441 1.970 . S
O500 Li442 1.961 . S
O500 C444 1.325 . S
O501 Li440 1.970 . S
O501 Li441 1.956 . S
O501 Li443 1.961 1_545 S
O501 C450 1.325 . S
O502 Li440 1.961 . S
O502 Li442 1.956 . S
O502 Li443 1.970 1_545 S
O502 C472 1.325 . S
O503 Li441 1.961 1_565 S
O503 Li442 1.970 1_565 S
O503 Li443 1.956 . S
O503 C478 1.325 . S
H504 C446 0.929 . S
H505 C447 0.930 . S
H506 C448 0.930 . S
H507 C449 0.930 . S
H508 C451 0.930 . S
H509 C453 0.929 . S
H510 C454 0.930 . S
H511 C455 0.930 . S
H512 C458 0.930 . S
H513 C461 0.929 . S
H514 C466 0.929 . S
H515 C467 0.930 . S
H516 C474 0.929 1_565 S
H517 C475 0.930 . S
H518 C476 0.930 1_565 S
H519 C477 0.930 . S
H520 C479 0.929 . S
H521 C480 0.930 . S
H522 C481 0.930 . S
H523 C482 0.930 . S
H524 C486 0.929 . S
H525 C488 0.930 . S
H526 C494 0.929 . S
H527 C495 0.930 . S
Li528 N545 1.990 . S
Li528 O588 1.956 . S
Li528 O589 1.970 . S
Li528 O590 1.961 . S
Li529 N553 1.990 . S
Li529 O588 1.970 . S
Li529 O589 1.956 . S
Li529 O591 1.961 . S
Li530 N575 1.990 . S
Li530 O588 1.961 . S
Li530 O590 1.956 . S
Li530 O591 1.970 . S
Li531 N581 1.990 . S
Li531 O589 1.961 . S
Li531 O590 1.970 . S
Li531 O591 1.956 . S
C532 C534 1.348 . S
C532 C535 1.356 . S
C532 O588 1.325 . S
N533 C536 1.314 . S
N533 C537 1.279 . S
C534 C532 1.348 . S
C534 C536 1.353 . S
C534 H592 0.929 . S
C535 C532 1.356 . S
C535 C537 1.358 . S
C535 H593 0.930 . S
C536 N533 1.314 . S
C536 C534 1.353 . S
C536 H594 0.930 . S
C537 N533 1.279 . S
C537 C535 1.358 . S
C537 H595 0.930 . S
C538 C541 1.348 . S
C538 C542 1.356 . S
C538 O589 1.325 . S
C539 N540 1.279 . S
C539 C542 1.358 . S
C539 H596 0.930 . S
N540 C539 1.279 . S
N540 C543 1.314 . S
C541 C538 1.348 . S
C541 C543 1.353 . S
C541 H597 0.929 . S
C542 C538 1.356 . S
C542 C539 1.358 . S
C542 H598 0.930 . S
C543 N540 1.314 . S
C543 C541 1.353 . S
C543 H599 0.930 . S
C544 N545 1.314 . S
C544 C549 1.353 . S
C544 H550 0.930 . S
N545 Li528 1.990 . S
N545 C544 1.314 . S
N545 C547 1.279 . S
C546 C547 1.358 . S
C546 C548 1.356 . S
C546 H600 0.930 . S
C547 N545 1.279 . S
C547 C546 1.358 . S
C547 H551 0.930 . S
C548 C546 1.356 . S
C548 C549 1.348 . S
C549 C544 1.353 . S
C549 C548 1.348 . S
C549 H601 0.929 . S
H550 C544 0.930 . S
H551 C547 0.930 . S
C552 N553 1.314 . S
C552 C554 1.353 . S
C552 H558 0.930 . S
N553 Li529 1.990 . S
N553 C552 1.314 . S
N553 C556 1.279 . S
C554 C552 1.353 . S
C554 C557 1.348 . S
C554 H602 0.929 . S
C555 C556 1.358 . S
C555 C557 1.356 . S
C555 H603 0.930 . S
C556 N553 1.279 . S
C556 C555 1.358 . S
C556 H559 0.930 . S
C557 C554 1.348 . S
C557 C555 1.356 . S
H558 C552 0.930 . S
H559 C556 0.930 . S
C560 C562 1.348 . S
C560 C563 1.356 . S
C560 O590 1.325 . S
N561 C564 1.314 . S
N561 C565 1.279 . S
C562 C560 1.348 . S
C562 C564 1.353 . S
C562 H604 0.929 . S
C563 C560 1.356 . S
C563 C565 1.358 . S
C563 H605 0.930 . S
C564 N561 1.314 . S
C564 C562 1.353 . S
C564 H606 0.930 . S
C565 N561 1.279 . S
C565 C563 1.358 . S
C565 H607 0.930 . S
C566 C567 1.348 . S
C566 C568 1.356 . S
C566 O591 1.325 . S
C567 C566 1.348 . S
C567 C569 1.353 . S
C567 H608 0.929 . S
C568 C566 1.356 . S
C568 C570 1.358 . S
C568 H609 0.930 . S
C569 C567 1.353 . S
C569 N571 1.314 . S
C569 H610 0.930 . S
C570 C568 1.358 . S
C570 N571 1.279 . S
C570 H611 0.930 . S
N571 C569 1.314 . S
N571 C570 1.279 . S
C572 C574 1.353 . S
C572 N575 1.314 . S
C572 H578 0.930 . S
C573 N575 1.279 . S
C573 C576 1.358 . S
C573 H579 0.930 . S
C574 C572 1.353 . S
C574 C577 1.348 . S
C574 H612 0.929 . S
N575 Li530 1.990 . S
N575 C572 1.314 . S
N575 C573 1.279 . S
C576 C573 1.358 . S
C576 C577 1.356 . S
C576 H613 0.930 . S
C577 C574 1.348 . S
C577 C576 1.356 . S
H578 C572 0.930 . S
H579 C573 0.930 . S
C580 N581 1.314 . S
C580 C582 1.353 . S
C580 H586 0.930 . S
N581 Li531 1.990 . S
N581 C580 1.314 . S
N581 C584 1.279 . S
C582 C580 1.353 . S
C582 C585 1.348 . S
C582 H614 0.929 . S
C583 C584 1.358 . S
C583 C585 1.356 . S
C583 H615 0.930 . S
C584 N581 1.279 . S
C584 C583 1.358 . S
C584 H587 0.930 . S
C585 C582 1.348 . S
C585 C583 1.356 . S
H586 C580 0.930 . S
H587 C584 0.930 . S
O588 Li528 1.956 . S
O588 Li529 1.970 . S
O588 Li530 1.961 . S
O588 C532 1.325 . S
O589 Li528 1.970 . S
O589 Li529 1.956 . S
O589 Li531 1.961 . S
O589 C538 1.325 . S
O590 Li528 1.961 . S
O590 Li530 1.956 . S
O590 Li531 1.970 . S
O590 C560 1.325 . S
O591 Li529 1.961 . S
O591 Li530 1.970 . S
O591 Li531 1.956 . S
O591 C566 1.325 . S
H592 C534 0.929 . S
H593 C535 0.930 . S
H594 C536 0.930 . S
H595 C537 0.930 . S
H596 C539 0.930 . S
H597 C541 0.929 . S
H598 C542 0.930 . S
H599 C543 0.930 . S
H600 C546 0.930 . S
H601 C549 0.929 . S
H602 C554 0.929 . S
H603 C555 0.930 . S
H604 C562 0.929 . S
H605 C563 0.930 . S
H606 C564 0.930 . S
H607 C565 0.930 . S
H608 C567 0.929 . S
H609 C568 0.930 . S
H610 C569 0.930 . S
H611 C570 0.930 . S
H612 C574 0.929 . S
H613 C576 0.930 . S
H614 C582 0.929 . S
H615 C583 0.930 . S
Li616 N633 1.990 . S
Li616 O676 1.956 . S
Li616 O677 1.970 . S
Li616 O678 1.961 . S
Li617 N641 1.990 . S
Li617 O676 1.970 . S
Li617 O677 1.956 . S
Li617 O679 1.961 . S
Li618 N663 1.990 . S
Li618 O676 1.961 . S
Li618 O678 1.956 . S
Li618 O679 1.970 . S
Li619 N669 1.990 . S
Li619 O677 1.961 . S
Li619 O678 1.970 . S
Li619 O679 1.956 . S
C620 C622 1.348 . S
C620 C623 1.356 . S
C620 O676 1.325 . S
N621 C624 1.314 . S
N621 C625 1.279 . S
C622 C620 1.348 . S
C622 C624 1.353 . S
C622 H680 0.929 . S
C623 C620 1.356 . S
C623 C625 1.358 . S
C623 H681 0.930 . S
C624 N621 1.314 . S
C624 C622 1.353 . S
C624 H682 0.930 . S
C625 N621 1.279 . S
C625 C623 1.358 . S
C625 H683 0.930 . S
C626 C629 1.348 . S
C626 C630 1.356 . S
C626 O677 1.325 . S
C627 N628 1.279 . S
C627 C630 1.358 . S
C627 H684 0.930 . S
N628 C627 1.279 . S
N628 C631 1.314 . S
C629 C626 1.348 . S
C629 C631 1.353 . S
C629 H685 0.929 . S
C630 C626 1.356 . S
C630 C627 1.358 . S
C630 H686 0.930 . S
C631 N628 1.314 . S
C631 C629 1.353 . S
C631 H687 0.930 . S
C632 N633 1.314 . S
C632 C637 1.353 . S
C632 H638 0.930 . S
N633 Li616 1.990 . S
N633 C632 1.314 . S
N633 C635 1.279 . S
C634 C635 1.358 . S
C634 C636 1.356 . S
C634 H688 0.930 . S
C635 N633 1.279 . S
C635 C634 1.358 . S
C635 H639 0.930 . S
C636 C634 1.356 . S
C636 C637 1.348 . S
C637 C632 1.353 . S
C637 C636 1.348 . S
C637 H689 0.929 . S
H638 C632 0.930 . S
H639 C635 0.930 . S
C640 N641 1.314 . S
C640 C642 1.353 . S
C640 H646 0.930 . S
N641 Li617 1.990 . S
N641 C640 1.314 . S
N641 C644 1.279 . S
C642 C640 1.353 . S
C642 C645 1.348 . S
C642 H690 0.929 . S
C643 C644 1.358 . S
C643 C645 1.356 . S
C643 H691 0.930 . S
C644 N641 1.279 . S
C644 C643 1.358 . S
C644 H647 0.930 . S
C645 C642 1.348 . S
C645 C643 1.356 . S
H646 C640 0.930 . S
H647 C644 0.930 . S
C648 C650 1.348 . S
C648 C651 1.356 . S
C648 O678 1.325 . S
N649 C652 1.314 . S
N649 C653 1.279 . S
C650 C648 1.348 . S
C650 C652 1.353 . S
C650 H692 0.929 . S
C651 C648 1.356 . S
C651 C653 1.358 . S
C651 H693 0.930 . S
C652 N649 1.314 . S
C652 C650 1.353 . S
C652 H694 0.930 . S
C653 N649 1.279 . S
C653 C651 1.358 . S
C653 H695 0.930 . S
C654 C655 1.348 . S
C654 C656 1.356 . S
C654 O679 1.325 . S
C655 C654 1.348 . S
C655 C657 1.353 . S
C655 H696 0.929 . S
C656 C654 1.356 . S
C656 C658 1.358 . S
C656 H697 0.930 . S
C657 C655 1.353 . S
C657 N659 1.314 . S
C657 H698 0.930 . S
C658 C656 1.358 . S
C658 N659 1.279 . S
C658 H699 0.930 . S
N659 C657 1.314 . S
N659 C658 1.279 . S
C660 C662 1.353 . S
C660 N663 1.314 . S
C660 H666 0.930 . S
C661 N663 1.279 . S
C661 C664 1.358 . S
C661 H667 0.930 . S
C662 C660 1.353 . S
C662 C665 1.348 . S
C662 H700 0.929 . S
N663 Li618 1.990 . S
N663 C660 1.314 . S
N663 C661 1.279 . S
C664 C661 1.358 . S
C664 C665 1.356 . S
C664 H701 0.930 . S
C665 C662 1.348 . S
C665 C664 1.356 . S
H666 C660 0.930 . S
H667 C661 0.930 . S
C668 N669 1.314 . S
C668 C670 1.353 . S
C668 H674 0.930 . S
N669 Li619 1.990 . S
N669 C668 1.314 . S
N669 C672 1.279 . S
C670 C668 1.353 . S
C670 C673 1.348 . S
C670 H702 0.929 . S
C671 C672 1.358 . S
C671 C673 1.356 . S
C671 H703 0.930 . S
C672 N669 1.279 . S
C672 C671 1.358 . S
C672 H675 0.930 . S
C673 C670 1.348 . S
C673 C671 1.356 . S
H674 C668 0.930 . S
H675 C672 0.930 . S
O676 Li616 1.956 . S
O676 Li617 1.970 . S
O676 Li618 1.961 . S
O676 C620 1.325 . S
O677 Li616 1.970 . S
O677 Li617 1.956 . S
O677 Li619 1.961 . S
O677 C626 1.325 . S
O678 Li616 1.961 . S
O678 Li618 1.956 . S
O678 Li619 1.970 . S
O678 C648 1.325 . S
O679 Li617 1.961 . S
O679 Li618 1.970 . S
O679 Li619 1.956 . S
O679 C654 1.325 . S
H680 C622 0.929 . S
H681 C623 0.930 . S
H682 C624 0.930 . S
H683 C625 0.930 . S
H684 C627 0.930 . S
H685 C629 0.929 . S
H686 C630 0.930 . S
H687 C631 0.930 . S
H688 C634 0.930 . S
H689 C637 0.929 . S
H690 C642 0.929 . S
H691 C643 0.930 . S
H692 C650 0.929 . S
H693 C651 0.930 . S
H694 C652 0.930 . S
H695 C653 0.930 . S
H696 C655 0.929 . S
H697 C656 0.930 . S
H698 C657 0.930 . S
H699 C658 0.930 . S
H700 C662 0.929 . S
H701 C664 0.930 . S
H702 C670 0.929 . S
H703 C671 0.930 . S
Li704 N721 1.990 . S
Li704 O764 1.956 . S
Li704 O765 1.970 . S
Li704 O766 1.961 . S
Li705 N729 1.990 . S
Li705 O764 1.970 . S
Li705 O765 1.956 . S
Li705 O767 1.961 . S
Li706 N751 1.990 . S
Li706 O764 1.961 . S
Li706 O766 1.956 . S
Li706 O767 1.970 . S
Li707 N757 1.990 . S
Li707 O765 1.961 . S
Li707 O766 1.970 . S
Li707 O767 1.956 . S
C708 C710 1.348 . S
C708 C711 1.356 . S
C708 O764 1.325 . S
N709 C712 1.314 . S
N709 C713 1.279 . S
C710 C708 1.348 . S
C710 C712 1.353 . S
C710 H768 0.929 . S
C711 C708 1.356 . S
C711 C713 1.358 . S
C711 H769 0.930 . S
C712 N709 1.314 . S
C712 C710 1.353 . S
C712 H770 0.930 . S
C713 N709 1.279 . S
C713 C711 1.358 . S
C713 H771 0.930 . S
C714 C717 1.348 . S
C714 C718 1.356 . S
C714 O765 1.325 . S
C715 N716 1.279 . S
C715 C718 1.358 . S
C715 H772 0.930 . S
N716 C715 1.279 . S
N716 C719 1.314 . S
C717 C714 1.348 . S
C717 C719 1.353 . S
C717 H773 0.929 . S
C718 C714 1.356 . S
C718 C715 1.358 . S
C718 H774 0.930 . S
C719 N716 1.314 . S
C719 C717 1.353 . S
C719 H775 0.930 . S
C720 N721 1.314 . S
C720 C725 1.353 . S
C720 H726 0.930 . S
N721 Li704 1.990 . S
N721 C720 1.314 . S
N721 C723 1.279 . S
C722 C723 1.358 . S
C722 C724 1.356 . S
C722 H776 0.930 . S
C723 N721 1.279 . S
C723 C722 1.358 . S
C723 H727 0.930 . S
C724 C722 1.356 . S
C724 C725 1.348 . S
C725 C720 1.353 . S
C725 C724 1.348 . S
C725 H777 0.929 . S
H726 C720 0.930 . S
H727 C723 0.930 . S
C728 N729 1.314 . S
C728 C730 1.353 . S
C728 H734 0.930 . S
N729 Li705 1.990 . S
N729 C728 1.314 . S
N729 C732 1.279 . S
C730 C728 1.353 . S
C730 C733 1.348 . S
C730 H778 0.929 . S
C731 C732 1.358 . S
C731 C733 1.356 . S
C731 H779 0.930 . S
C732 N729 1.279 . S
C732 C731 1.358 . S
C732 H735 0.930 . S
C733 C730 1.348 . S
C733 C731 1.356 . S
H734 C728 0.930 . S
H735 C732 0.930 . S
C736 C738 1.348 . S
C736 C739 1.356 . S
C736 O766 1.325 . S
N737 C740 1.314 . S
N737 C741 1.279 . S
C738 C736 1.348 . S
C738 C740 1.353 . S
C738 H780 0.929 . S
C739 C736 1.356 . S
C739 C741 1.358 . S
C739 H781 0.930 . S
C740 N737 1.314 . S
C740 C738 1.353 . S
C740 H782 0.930 . S
C741 N737 1.279 . S
C741 C739 1.358 . S
C741 H783 0.930 . S
C742 C743 1.348 . S
C742 C744 1.356 . S
C742 O767 1.325 . S
C743 C742 1.348 . S
C743 C745 1.353 . S
C743 H784 0.929 . S
C744 C742 1.356 . S
C744 C746 1.358 . S
C744 H785 0.930 . S
C745 C743 1.353 . S
C745 N747 1.314 . S
C745 H786 0.930 . S
C746 C744 1.358 . S
C746 N747 1.279 . S
C746 H787 0.930 . S
N747 C745 1.314 . S
N747 C746 1.279 . S
C748 C750 1.353 . S
C748 N751 1.314 . S
C748 H754 0.930 . S
C749 N751 1.279 . S
C749 C752 1.358 . S
C749 H755 0.930 . S
C750 C748 1.353 . S
C750 C753 1.348 . S
C750 H788 0.929 . S
N751 Li706 1.990 . S
N751 C748 1.314 . S
N751 C749 1.279 . S
C752 C749 1.358 . S
C752 C753 1.356 . S
C752 H789 0.930 . S
C753 C750 1.348 . S
C753 C752 1.356 . S
H754 C748 0.930 . S
H755 C749 0.930 . S
C756 N757 1.314 . S
C756 C758 1.353 . S
C756 H762 0.930 . S
N757 Li707 1.990 . S
N757 C756 1.314 . S
N757 C760 1.279 . S
C758 C756 1.353 . S
C758 C761 1.348 . S
C758 H790 0.929 . S
C759 C760 1.358 . S
C759 C761 1.356 . S
C759 H791 0.930 . S
C760 N757 1.279 . S
C760 C759 1.358 . S
C760 H763 0.930 . S
C761 C758 1.348 . S
C761 C759 1.356 . S
H762 C756 0.930 . S
H763 C760 0.930 . S
O764 Li704 1.956 . S
O764 Li705 1.970 . S
O764 Li706 1.961 . S
O764 C708 1.325 . S
O765 Li704 1.970 . S
O765 Li705 1.956 . S
O765 Li707 1.961 . S
O765 C714 1.325 . S
O766 Li704 1.961 . S
O766 Li706 1.956 . S
O766 Li707 1.970 . S
O766 C736 1.325 . S
O767 Li705 1.961 . S
O767 Li706 1.970 . S
O767 Li707 1.956 . S
O767 C742 1.325 . S
H768 C710 0.929 . S
H769 C711 0.930 . S
H770 C712 0.930 . S
H771 C713 0.930 . S
H772 C715 0.930 . S
H773 C717 0.929 . S
H774 C718 0.930 . S
H775 C719 0.930 . S
H776 C722 0.930 . S
H777 C725 0.929 . S
H778 C730 0.929 . S
H779 C731 0.930 . S
H780 C738 0.929 . S
H781 C739 0.930 . S
H782 C740 0.930 . S
H783 C741 0.930 . S
H784 C743 0.929 . S
H785 C744 0.930 . S
H786 C745 0.930 . S
H787 C746 0.930 . S
H788 C750 0.929 . S
H789 C752 0.930 . S
H790 C758 0.929 . S
H791 C759 0.930 . S
Li792 N809 1.990 . S
Li792 O852 1.956 . S
Li792 O853 1.970 1_565 S
Li792 O854 1.961 . S
Li793 N817 1.990 . S
Li793 O852 1.970 1_545 S
Li793 O853 1.956 . S
Li793 O855 1.961 . S
Li794 N839 1.990 . S
Li794 O852 1.961 . S
Li794 O854 1.956 . S
Li794 O855 1.970 1_565 S
Li795 N845 1.990 . S
Li795 O853 1.961 . S
Li795 O854 1.970 1_545 S
Li795 O855 1.956 . S
C796 C798 1.348 . S
C796 C799 1.356 . S
C796 O852 1.325 . S
N797 C800 1.314 . S
N797 C801 1.279 . S
C798 C796 1.348 . S
C798 C800 1.353 . S
C798 H856 0.929 . S
C799 C796 1.356 . S
C799 C801 1.358 . S
C799 H857 0.930 . S
C800 N797 1.314 . S
C800 C798 1.353 . S
C800 H858 0.930 . S
C801 N797 1.279 . S
C801 C799 1.358 . S
C801 H859 0.930 . S
C802 C805 1.348 1_545 S
C802 C806 1.356 . S
C802 O853 1.325 . S
C803 N804 1.279 . S
C803 C806 1.358 . S
C803 H860 0.930 . S
N804 C803 1.279 . S
N804 C807 1.314 1_545 S
C805 C802 1.348 1_565 S
C805 C807 1.353 . S
C805 H861 0.929 . S
C806 C802 1.356 . S
C806 C803 1.358 . S
C806 H862 0.930 . S
C807 N804 1.314 1_565 S
C807 C805 1.353 . S
C807 H863 0.930 . S
C808 N809 1.314 . S
C808 C813 1.353 . S
C808 H814 0.930 . S
N809 Li792 1.990 . S
N809 C808 1.314 . S
N809 C811 1.279 . S
C810 C811 1.358 . S
C810 C812 1.356 . S
C810 H864 0.930 . S
C811 N809 1.279 . S
C811 C810 1.358 . S
C811 H815 0.930 . S
C812 C810 1.356 . S
C812 C813 1.348 . S
C813 C808 1.353 . S
C813 C812 1.348 . S
C813 H865 0.929 . S
H814 C808 0.930 . S
H815 C811 0.930 . S
C816 N817 1.314 . S
C816 C818 1.353 . S
C816 H822 0.930 . S
N817 Li793 1.990 . S
N817 C816 1.314 . S
N817 C820 1.279 . S
C818 C816 1.353 . S
C818 C821 1.348 . S
C818 H866 0.929 . S
C819 C820 1.358 . S
C819 C821 1.356 . S
C819 H867 0.930 . S
C820 N817 1.279 . S
C820 C819 1.358 . S
C820 H823 0.930 . S
C821 C818 1.348 . S
C821 C819 1.356 . S
H822 C816 0.930 . S
H823 C820 0.930 . S
C824 C826 1.348 1_565 S
C824 C827 1.356 . S
C824 O854 1.325 . S
N825 C828 1.314 1_565 S
N825 C829 1.279 . S
C826 C824 1.348 1_545 S
C826 C828 1.353 . S
C826 H868 0.929 . S
C827 C824 1.356 . S
C827 C829 1.358 . S
C827 H869 0.930 . S
C828 N825 1.314 1_545 S
C828 C826 1.353 . S
C828 H870 0.930 . S
C829 N825 1.279 . S
C829 C827 1.358 . S
C829 H871 0.930 . S
C830 C831 1.348 . S
C830 C832 1.356 . S
C830 O855 1.325 . S
C831 C830 1.348 . S
C831 C833 1.353 . S
C831 H872 0.929 . S
C832 C830 1.356 . S
C832 C834 1.358 . S
C832 H873 0.930 . S
C833 C831 1.353 . S
C833 N835 1.314 . S
C833 H874 0.930 . S
C834 C832 1.358 . S
C834 N835 1.279 . S
C834 H875 0.930 . S
N835 C833 1.314 . S
N835 C834 1.279 . S
C836 C838 1.353 . S
C836 N839 1.314 . S
C836 H842 0.930 . S
C837 N839 1.279 . S
C837 C840 1.358 . S
C837 H843 0.930 . S
C838 C836 1.353 . S
C838 C841 1.348 . S
C838 H876 0.929 . S
N839 Li794 1.990 . S
N839 C836 1.314 . S
N839 C837 1.279 . S
C840 C837 1.358 . S
C840 C841 1.356 . S
C840 H877 0.930 . S
C841 C838 1.348 . S
C841 C840 1.356 . S
H842 C836 0.930 . S
H843 C837 0.930 . S
C844 N845 1.314 . S
C844 C846 1.353 . S
C844 H850 0.930 . S
N845 Li795 1.990 . S
N845 C844 1.314 . S
N845 C848 1.279 . S
C846 C844 1.353 . S
C846 C849 1.348 . S
C846 H878 0.929 . S
C847 C848 1.358 . S
C847 C849 1.356 . S
C847 H879 0.930 . S
C848 N845 1.279 . S
C848 C847 1.358 . S
C848 H851 0.930 . S
C849 C846 1.348 . S
C849 C847 1.356 . S
H850 C844 0.930 . S
H851 C848 0.930 . S
O852 Li792 1.956 . S
O852 Li793 1.970 1_565 S
O852 Li794 1.961 . S
O852 C796 1.325 . S
O853 Li792 1.970 1_545 S
O853 Li793 1.956 . S
O853 Li795 1.961 . S
O853 C802 1.325 . S
O854 Li792 1.961 . S
O854 Li794 1.956 . S
O854 Li795 1.970 1_565 S
O854 C824 1.325 . S
O855 Li793 1.961 . S
O855 Li794 1.970 1_545 S
O855 Li795 1.956 . S
O855 C830 1.325 . S
H856 C798 0.929 . S
H857 C799 0.930 . S
H858 C800 0.930 . S
H859 C801 0.930 . S
H860 C803 0.930 . S
H861 C805 0.929 . S
H862 C806 0.930 . S
H863 C807 0.930 . S
H864 C810 0.930 . S
H865 C813 0.929 . S
H866 C818 0.929 . S
H867 C819 0.930 . S
H868 C826 0.929 . S
H869 C827 0.930 . S
H870 C828 0.930 . S
H871 C829 0.930 . S
H872 C831 0.929 . S
H873 C832 0.930 . S
H874 C833 0.930 . S
H875 C834 0.930 . S
H876 C838 0.929 . S
H877 C840 0.930 . S
H878 C846 0.929 . S
H879 C847 0.930 . S
Li880 N897 1.990 . S
Li880 O940 1.956 . S
Li880 O941 1.970 . S
Li880 O942 1.961 . S
Li881 N905 1.990 . S
Li881 O940 1.970 . S
Li881 O941 1.956 . S
Li881 O943 1.961 1_455 S
Li882 N927 1.990 . S
Li882 O940 1.961 . S
Li882 O942 1.956 . S
Li882 O943 1.970 1_455 S
Li883 N933 1.990 . S
Li883 O941 1.961 1_655 S
Li883 O942 1.970 1_655 S
Li883 O943 1.956 . S
C884 C886 1.348 . S
C884 C887 1.356 . S
C884 O940 1.325 . S
N885 C888 1.314 . S
N885 C889 1.279 . S
C886 C884 1.348 . S
C886 C888 1.353 . S
C886 H944 0.929 . S
C887 C884 1.356 . S
C887 C889 1.358 . S
C887 H945 0.930 . S
C888 N885 1.314 . S
C888 C886 1.353 . S
C888 H946 0.930 . S
C889 N885 1.279 . S
C889 C887 1.358 . S
C889 H947 0.930 . S
C890 C893 1.348 . S
C890 C894 1.356 1_455 S
C890 O941 1.325 . S
C891 N892 1.279 1_655 S
C891 C894 1.358 . S
C891 H948 0.930 . S
N892 C891 1.279 1_455 S
N892 C895 1.314 . S
C893 C890 1.348 . S
C893 C895 1.353 . S
C893 H949 0.929 . S
C894 C890 1.356 1_655 S
C894 C891 1.358 . S
C894 H950 0.930 . S
C895 N892 1.314 . S
C895 C893 1.353 . S
C895 H951 0.930 . S
C896 N897 1.314 . S
C896 C901 1.353 . S
C896 H902 0.930 . S
N897 Li880 1.990 . S
N897 C896 1.314 . S
N897 C899 1.279 . S
C898 C899 1.358 . S
C898 C900 1.356 . S
C898 H952 0.930 . S
C899 N897 1.279 . S
C899 C898 1.358 . S
C899 H903 0.930 . S
C900 C898 1.356 . S
C900 C901 1.348 . S
C901 C896 1.353 . S
C901 C900 1.348 . S
C901 H953 0.929 . S
H902 C896 0.930 . S
H903 C899 0.930 . S
C904 N905 1.314 . S
C904 C906 1.353 . S
C904 H910 0.930 . S
N905 Li881 1.990 . S
N905 C904 1.314 . S
N905 C908 1.279 . S
C906 C904 1.353 . S
C906 C909 1.348 . S
C906 H954 0.929 1_455 S
C907 C908 1.358 . S
C907 C909 1.356 . S
C907 H955 0.930 . S
C908 N905 1.279 . S
C908 C907 1.358 . S
C908 H911 0.930 . S
C909 C906 1.348 . S
C909 C907 1.356 . S
H910 C904 0.930 . S
H911 C908 0.930 . S
C912 C914 1.348 . S
C912 C915 1.356 . S
C912 O942 1.325 . S
N913 C916 1.314 . S
N913 C917 1.279 . S
C914 C912 1.348 . S
C914 C916 1.353 . S
C914 H956 0.929 1_455 S
C915 C912 1.356 . S
C915 C917 1.358 . S
C915 H957 0.930 . S
C916 N913 1.314 . S
C916 C914 1.353 . S
C916 H958 0.930 1_455 S
C917 N913 1.279 . S
C917 C915 1.358 . S
C917 H959 0.930 . S
C918 C919 1.348 . S
C918 C920 1.356 . S
C918 O943 1.325 . S
C919 C918 1.348 . S
C919 C921 1.353 . S
C919 H960 0.929 . S
C920 C918 1.356 . S
C920 C922 1.358 . S
C920 H961 0.930 . S
C921 C919 1.353 . S
C921 N923 1.314 . S
C921 H962 0.930 . S
C922 C920 1.358 . S
C922 N923 1.279 . S
C922 H963 0.930 . S
N923 C921 1.314 . S
N923 C922 1.279 . S
C924 C926 1.353 . S
C924 N927 1.314 . S
C924 H930 0.930 . S
C925 N927 1.279 . S
C925 C928 1.358 . S
C925 H931 0.930 . S
C926 C924 1.353 . S
C926 C929 1.348 . S
C926 H964 0.929 . S
N927 Li882 1.990 . S
N927 C924 1.314 . S
N927 C925 1.279 . S
C928 C925 1.358 . S
C928 C929 1.356 . S
C928 H965 0.930 . S
C929 C926 1.348 . S
C929 C928 1.356 . S
H930 C924 0.930 . S
H931 C925 0.930 . S
C932 N933 1.314 . S
C932 C934 1.353 . S
C932 H938 0.930 . S
N933 Li883 1.990 . S
N933 C932 1.314 . S
N933 C936 1.279 . S
C934 C932 1.353 . S
C934 C937 1.348 . S
C934 H966 0.929 . S
C935 C936 1.358 . S
C935 C937 1.356 . S
C935 H967 0.930 . S
C936 N933 1.279 . S
C936 C935 1.358 . S
C936 H939 0.930 . S
C937 C934 1.348 . S
C937 C935 1.356 . S
H938 C932 0.930 . S
H939 C936 0.930 . S
O940 Li880 1.956 . S
O940 Li881 1.970 . S
O940 Li882 1.961 . S
O940 C884 1.325 . S
O941 Li880 1.970 . S
O941 Li881 1.956 . S
O941 Li883 1.961 1_455 S
O941 C890 1.325 . S
O942 Li880 1.961 . S
O942 Li882 1.956 . S
O942 Li883 1.970 1_455 S
O942 C912 1.325 . S
O943 Li881 1.961 1_655 S
O943 Li882 1.970 1_655 S
O943 Li883 1.956 . S
O943 C918 1.325 . S
H944 C886 0.929 . S
H945 C887 0.930 . S
H946 C888 0.930 . S
H947 C889 0.930 . S
H948 C891 0.930 . S
H949 C893 0.929 . S
H950 C894 0.930 . S
H951 C895 0.930 . S
H952 C898 0.930 . S
H953 C901 0.929 . S
H954 C906 0.929 1_655 S
H955 C907 0.930 . S
H956 C914 0.929 1_655 S
H957 C915 0.930 . S
H958 C916 0.930 1_655 S
H959 C917 0.930 . S
H960 C919 0.929 . S
H961 C920 0.930 . S
H962 C921 0.930 . S
H963 C922 0.930 . S
H964 C926 0.929 . S
H965 C928 0.930 . S
H966 C934 0.929 . S
H967 C935 0.930 . S
Li968 N985 1.990 . S
Li968 O1028 1.956 . S
Li968 O1029 1.970 . S
Li968 O1030 1.961 . S
Li969 N993 1.990 . S
Li969 O1028 1.970 . S
Li969 O1029 1.956 . S
Li969 O1031 1.961 . S
Li970 N1015 1.990 . S
Li970 O1028 1.961 . S
Li970 O1030 1.956 . S
Li970 O1031 1.970 . S
Li971 N1021 1.990 . S
Li971 O1029 1.961 . S
Li971 O1030 1.970 . S
Li971 O1031 1.956 . S
C972 C974 1.348 . S
C972 C975 1.356 . S
C972 O1028 1.325 . S
N973 C976 1.314 . S
N973 C977 1.279 . S
C974 C972 1.348 . S
C974 C976 1.353 . S
C974 H1032 0.929 . S
C975 C972 1.356 . S
C975 C977 1.358 . S
C975 H1033 0.930 . S
C976 N973 1.314 . S
C976 C974 1.353 . S
C976 H1034 0.930 . S
C977 N973 1.279 . S
C977 C975 1.358 . S
C977 H1035 0.930 . S
C978 C981 1.348 . S
C978 C982 1.356 . S
C978 O1029 1.325 . S
C979 N980 1.279 . S
C979 C982 1.358 . S
C979 H1036 0.930 . S
N980 C979 1.279 . S
N980 C983 1.314 . S
C981 C978 1.348 . S
C981 C983 1.353 . S
C981 H1037 0.929 . S
C982 C978 1.356 . S
C982 C979 1.358 . S
C982 H1038 0.930 . S
C983 N980 1.314 . S
C983 C981 1.353 . S
C983 H1039 0.930 . S
C984 N985 1.314 . S
C984 C989 1.353 . S
C984 H990 0.930 . S
N985 Li968 1.990 . S
N985 C984 1.314 . S
N985 C987 1.279 . S
C986 C987 1.358 . S
C986 C988 1.356 . S
C986 H1040 0.930 . S
C987 N985 1.279 . S
C987 C986 1.358 . S
C987 H991 0.930 . S
C988 C986 1.356 . S
C988 C989 1.348 . S
C989 C984 1.353 . S
C989 C988 1.348 . S
C989 H1041 0.929 . S
H990 C984 0.930 . S
H991 C987 0.930 . S
C992 N993 1.314 . S
C992 C994 1.353 . S
C992 H998 0.930 . S
N993 Li969 1.990 . S
N993 C992 1.314 . S
N993 C996 1.279 . S
C994 C992 1.353 . S
C994 C997 1.348 . S
C994 H1042 0.929 . S
C995 C996 1.358 . S
C995 C997 1.356 . S
C995 H1043 0.930 . S
C996 N993 1.279 . S
C996 C995 1.358 . S
C996 H999 0.930 . S
C997 C994 1.348 . S
C997 C995 1.356 . S
H998 C992 0.930 . S
H999 C996 0.930 . S
C1000 C1002 1.348 . S
C1000 C1003 1.356 . S
C1000 O1030 1.325 . S
N1001 C1004 1.314 . S
N1001 C1005 1.279 . S
C1002 C1000 1.348 . S
C1002 C1004 1.353 . S
C1002 H1044 0.929 . S
C1003 C1000 1.356 . S
C1003 C1005 1.358 . S
C1003 H1045 0.930 . S
C1004 N1001 1.314 . S
C1004 C1002 1.353 . S
C1004 H1046 0.930 . S
C1005 N1001 1.279 . S
C1005 C1003 1.358 . S
C1005 H1047 0.930 . S
C1006 C1007 1.348 . S
C1006 C1008 1.356 . S
C1006 O1031 1.325 . S
C1007 C1006 1.348 . S
C1007 C1009 1.353 . S
C1007 H1048 0.929 . S
C1008 C1006 1.356 . S
C1008 C1010 1.358 . S
C1008 H1049 0.930 . S
C1009 C1007 1.353 . S
C1009 N1011 1.314 . S
C1009 H1050 0.930 . S
C1010 C1008 1.358 . S
C1010 N1011 1.279 . S
C1010 H1051 0.930 . S
N1011 C1009 1.314 . S
N1011 C1010 1.279 . S
C1012 C1014 1.353 . S
C1012 N1015 1.314 . S
C1012 H1018 0.930 . S
C1013 N1015 1.279 . S
C1013 C1016 1.358 . S
C1013 H1019 0.930 . S
C1014 C1012 1.353 . S
C1014 C1017 1.348 . S
C1014 H1052 0.929 . S
N1015 Li970 1.990 . S
N1015 C1012 1.314 . S
N1015 C1013 1.279 . S
C1016 C1013 1.358 . S
C1016 C1017 1.356 . S
C1016 H1053 0.930 . S
C1017 C1014 1.348 . S
C1017 C1016 1.356 . S
H1018 C1012 0.930 . S
H1019 C1013 0.930 . S
C1020 N1021 1.314 . S
C1020 C1022 1.353 . S
C1020 H1026 0.930 . S
N1021 Li971 1.990 . S
N1021 C1020 1.314 . S
N1021 C1024 1.279 . S
C1022 C1020 1.353 . S
C1022 C1025 1.348 . S
C1022 H1054 0.929 . S
C1023 C1024 1.358 . S
C1023 C1025 1.356 . S
C1023 H1055 0.930 . S
C1024 N1021 1.279 . S
C1024 C1023 1.358 . S
C1024 H1027 0.930 . S
C1025 C1022 1.348 . S
C1025 C1023 1.356 . S
H1026 C1020 0.930 . S
H1027 C1024 0.930 . S
O1028 Li968 1.956 . S
O1028 Li969 1.970 . S
O1028 Li970 1.961 . S
O1028 C972 1.325 . S
O1029 Li968 1.970 . S
O1029 Li969 1.956 . S
O1029 Li971 1.961 . S
O1029 C978 1.325 . S
O1030 Li968 1.961 . S
O1030 Li970 1.956 . S
O1030 Li971 1.970 . S
O1030 C1000 1.325 . S
O1031 Li969 1.961 . S
O1031 Li970 1.970 . S
O1031 Li971 1.956 . S
O1031 C1006 1.325 . S
H1032 C974 0.929 . S
H1033 C975 0.930 . S
H1034 C976 0.930 . S
H1035 C977 0.930 . S
H1036 C979 0.930 . S
H1037 C981 0.929 . S
H1038 C982 0.930 . S
H1039 C983 0.930 . S
H1040 C986 0.930 . S
H1041 C989 0.929 . S
H1042 C994 0.929 . S
H1043 C995 0.930 . S
H1044 C1002 0.929 . S
H1045 C1003 0.930 . S
H1046 C1004 0.930 . S
H1047 C1005 0.930 . S
H1048 C1007 0.929 . S
H1049 C1008 0.930 . S
H1050 C1009 0.930 . S
H1051 C1010 0.930 . S
H1052 C1014 0.929 . S
H1053 C1016 0.930 . S
H1054 C1022 0.929 . S
H1055 C1023 0.930 . S
Li1056 N1073 1.990 . S
Li1056 O1116 1.956 . S
Li1056 O1117 1.970 1_455 S
Li1056 O1118 1.961 . S
Li1057 N1081 1.990 . S
Li1057 O1116 1.970 1_655 S
Li1057 O1117 1.956 . S
Li1057 O1119 1.984 . S
Li1058 N1103 1.990 . S
Li1058 O1116 1.961 . S
Li1058 O1118 1.956 . S
Li1058 O1119 1.942 1_455 S
Li1059 N1109 1.987 1_455 S
Li1059 O1117 1.935 1_455 S
Li1059 O1118 2.004 . S
Li1059 O1119 1.953 1_455 S
C1060 C1062 1.348 1_455 S
C1060 C1063 1.356 . S
C1060 O1116 1.325 . S
N1061 C1064 1.314 1_455 S
N1061 C1065 1.279 . S
C1062 C1060 1.348 1_655 S
C1062 C1064 1.353 . S
C1062 H1120 0.929 . S
C1063 C1060 1.356 . S
C1063 C1065 1.358 . S
C1063 H1121 0.930 . S
C1064 N1061 1.314 1_655 S
C1064 C1062 1.353 . S
C1064 H1122 0.930 . S
C1065 N1061 1.279 . S
C1065 C1063 1.358 . S
C1065 H1123 0.930 . S
C1066 C1069 1.348 . S
C1066 C1070 1.356 . S
C1066 O1117 1.325 . S
C1067 N1068 1.279 . S
C1067 C1070 1.358 . S
C1067 H1124 0.930 . S
N1068 C1067 1.279 . S
N1068 C1071 1.314 . S
C1069 C1066 1.348 . S
C1069 C1071 1.353 . S
C1069 H1125 0.929 . S
C1070 C1066 1.356 . S
C1070 C1067 1.358 . S
C1070 H1126 0.930 . S
C1071 N1068 1.314 . S
C1071 C1069 1.353 . S
C1071 H1127 0.930 . S
C1072 N1073 1.314 . S
C1072 C1077 1.353 . S
C1072 H1078 0.930 . S
N1073 Li1056 1.990 . S
N1073 C1072 1.314 . S
N1073 C1075 1.279 . S
C1074 C1075 1.358 . S
C1074 C1076 1.356 . S
C1074 H1128 0.930 . S
C1075 N1073 1.279 . S
C1075 C1074 1.358 . S
C1075 H1079 0.930 . S
C1076 C1074 1.356 . S
C1076 C1077 1.348 . S
C1077 C1072 1.353 . S
C1077 C1076 1.348 . S
C1077 H1129 0.929 . S
H1078 C1072 0.930 . S
H1079 C1075 0.930 . S
C1080 N1081 1.314 . S
C1080 C1082 1.353 . S
C1080 H1086 0.930 . S
N1081 Li1057 1.990 . S
N1081 C1080 1.314 . S
N1081 C1084 1.279 . S
C1082 C1080 1.353 . S
C1082 C1085 1.348 . S
C1082 H1130 0.929 . S
C1083 C1084 1.358 . S
C1083 C1085 1.356 . S
C1083 H1131 0.930 . S
C1084 N1081 1.279 . S
C1084 C1083 1.358 . S
C1084 H1087 0.930 . S
C1085 C1082 1.348 . S
C1085 C1083 1.356 . S
H1086 C1080 0.930 . S
H1087 C1084 0.930 . S
C1088 C1090 1.348 . S
C1088 C1091 1.356 . S
C1088 O1118 1.325 . S
N1089 C1092 1.314 . S
N1089 C1093 1.279 . S
C1090 C1088 1.348 . S
C1090 C1092 1.353 . S
C1090 H1132 0.929 . S
C1091 C1088 1.356 . S
C1091 C1093 1.358 . S
C1091 H1133 0.930 . S
C1092 N1089 1.314 . S
C1092 C1090 1.353 . S
C1092 H1134 0.930 . S
C1093 N1089 1.279 . S
C1093 C1091 1.358 . S
C1093 H1135 0.930 . S
C1094 C1095 1.348 1_655 S
C1094 C1096 1.356 . S
C1094 O1119 1.331 . S
C1095 C1094 1.348 1_455 S
C1095 C1097 1.353 . S
C1095 H1136 0.929 . S
C1096 C1094 1.356 . S
C1096 C1098 1.358 . S
C1096 H1137 0.930 . S
C1097 C1095 1.353 . S
C1097 N1099 1.314 1_455 S
C1097 H1138 0.930 . S
C1098 C1096 1.358 . S
C1098 N1099 1.279 . S
C1098 H1139 0.930 . S
N1099 C1097 1.314 1_655 S
N1099 C1098 1.279 . S
C1100 C1102 1.353 . S
C1100 N1103 1.314 . S
C1100 H1106 0.930 . S
C1101 N1103 1.279 . S
C1101 C1104 1.358 . S
C1101 H1107 0.930 . S
C1102 C1100 1.353 . S
C1102 C1105 1.348 . S
C1102 H1140 0.929 . S
N1103 Li1058 1.990 . S
N1103 C1100 1.314 . S
N1103 C1101 1.279 . S
C1104 C1101 1.358 . S
C1104 C1105 1.356 . S
C1104 H1141 0.930 . S
C1105 C1102 1.348 . S
C1105 C1104 1.356 . S
H1106 C1100 0.930 . S
H1107 C1101 0.930 . S
C1108 N1109 1.314 . S
C1108 C1110 1.353 . S
C1108 H1114 0.930 . S
N1109 Li1059 1.987 1_655 S
N1109 C1108 1.314 . S
N1109 C1112 1.279 . S
C1110 C1108 1.353 . S
C1110 C1113 1.348 . S
C1110 H1142 0.929 . S
C1111 C1112 1.358 . S
C1111 C1113 1.356 . S
C1111 H1143 0.930 . S
C1112 N1109 1.279 . S
C1112 C1111 1.358 . S
C1112 H1115 0.930 . S
C1113 C1110 1.348 . S
C1113 C1111 1.356 . S
H1114 C1108 0.930 . S
H1115 C1112 0.930 . S
O1116 Li1056 1.956 . S
O1116 Li1057 1.970 1_455 S
O1116 Li1058 1.961 . S
O1116 C1060 1.325 . S
O1117 Li1056 1.970 1_655 S
O1117 Li1057 1.956 . S
O1117 Li1059 1.935 1_655 S
O1117 C1066 1.325 . S
O1118 Li1056 1.961 . S
O1118 Li1058 1.956 . S
O1118 Li1059 2.004 . S
O1118 C1088 1.325 . S
O1119 Li1057 1.984 . S
O1119 Li1058 1.942 1_655 S
O1119 Li1059 1.953 1_655 S
O1119 C1094 1.331 . S
H1120 C1062 0.929 . S
H1121 C1063 0.930 . S
H1122 C1064 0.930 . S
H1123 C1065 0.930 . S
H1124 C1067 0.930 . S
H1125 C1069 0.929 . S
H1126 C1070 0.930 . S
H1127 C1071 0.930 . S
H1128 C1074 0.930 . S
H1129 C1077 0.929 . S
H1130 C1082 0.929 . S
H1131 C1083 0.930 . S
H1132 C1090 0.929 . S
H1133 C1091 0.930 . S
H1134 C1092 0.930 . S
H1135 C1093 0.930 . S
H1136 C1095 0.929 . S
H1137 C1096 0.930 . S
H1138 C1097 0.930 . S
H1139 C1098 0.930 . S
H1140 C1102 0.929 . S
H1141 C1104 0.930 . S
H1142 C1110 0.929 . S
H1143 C1111 0.930 . S
Li1144 N1161 1.990 . S
Li1144 O1204 1.956 . S
Li1144 O1205 1.970 . S
Li1144 O1206 1.961 . S
Li1145 N1169 1.990 . S
Li1145 O1204 1.970 . S
Li1145 O1205 1.956 . S
Li1145 O1207 1.961 . S
Li1146 N1191 1.990 . S
Li1146 O1204 1.961 . S
Li1146 O1206 1.956 . S
Li1146 O1207 1.970 . S
Li1147 N1197 1.990 . S
Li1147 O1205 1.961 . S
Li1147 O1206 1.970 . S
Li1147 O1207 1.956 . S
C1148 C1150 1.348 . S
C1148 C1151 1.356 . S
C1148 O1204 1.325 . S
N1149 C1152 1.314 . S
N1149 C1153 1.279 . S
C1150 C1148 1.348 . S
C1150 C1152 1.353 . S
C1150 H1208 0.929 . S
C1151 C1148 1.356 . S
C1151 C1153 1.358 . S
C1151 H1209 0.930 . S
C1152 N1149 1.314 . S
C1152 C1150 1.353 . S
C1152 H1210 0.930 . S
C1153 N1149 1.279 . S
C1153 C1151 1.358 . S
C1153 H1211 0.930 . S
C1154 C1157 1.348 . S
C1154 C1158 1.356 . S
C1154 O1205 1.325 . S
C1155 N1156 1.279 . S
C1155 C1158 1.358 . S
C1155 H1212 0.930 . S
N1156 C1155 1.279 . S
N1156 C1159 1.314 . S
C1157 C1154 1.348 . S
C1157 C1159 1.353 . S
C1157 H1213 0.929 . S
C1158 C1154 1.356 . S
C1158 C1155 1.358 . S
C1158 H1214 0.930 . S
C1159 N1156 1.314 . S
C1159 C1157 1.353 . S
C1159 H1215 0.930 . S
C1160 N1161 1.314 . S
C1160 C1165 1.353 . S
C1160 H1166 0.930 . S
N1161 Li1144 1.990 . S
N1161 C1160 1.314 . S
N1161 C1163 1.279 . S
C1162 C1163 1.358 . S
C1162 C1164 1.356 . S
C1162 H1216 0.930 . S
C1163 N1161 1.279 . S
C1163 C1162 1.358 . S
C1163 H1167 0.930 . S
C1164 C1162 1.356 . S
C1164 C1165 1.348 . S
C1165 C1160 1.353 . S
C1165 C1164 1.348 . S
C1165 H1217 0.929 . S
H1166 C1160 0.930 . S
H1167 C1163 0.930 . S
C1168 N1169 1.314 . S
C1168 C1170 1.353 . S
C1168 H1174 0.930 . S
N1169 Li1145 1.990 . S
N1169 C1168 1.314 . S
N1169 C1172 1.279 . S
C1170 C1168 1.353 . S
C1170 C1173 1.348 . S
C1170 H1218 0.929 . S
C1171 C1172 1.358 . S
C1171 C1173 1.356 . S
C1171 H1219 0.930 . S
C1172 N1169 1.279 . S
C1172 C1171 1.358 . S
C1172 H1175 0.930 . S
C1173 C1170 1.348 . S
C1173 C1171 1.356 . S
H1174 C1168 0.930 . S
H1175 C1172 0.930 . S
C1176 C1178 1.348 . S
C1176 C1179 1.356 . S
C1176 O1206 1.325 . S
N1177 C1180 1.314 . S
N1177 C1181 1.279 . S
C1178 C1176 1.348 . S
C1178 C1180 1.353 . S
C1178 H1220 0.929 . S
C1179 C1176 1.356 . S
C1179 C1181 1.358 . S
C1179 H1221 0.930 . S
C1180 N1177 1.314 . S
C1180 C1178 1.353 . S
C1180 H1222 0.930 . S
C1181 N1177 1.279 . S
C1181 C1179 1.358 . S
C1181 H1223 0.930 . S
C1182 C1183 1.348 . S
C1182 C1184 1.356 . S
C1182 O1207 1.325 . S
C1183 C1182 1.348 . S
C1183 C1185 1.353 . S
C1183 H1224 0.929 . S
C1184 C1182 1.356 . S
C1184 C1186 1.358 . S
C1184 H1225 0.930 . S
C1185 C1183 1.353 . S
C1185 N1187 1.314 . S
C1185 H1226 0.930 . S
C1186 C1184 1.358 . S
C1186 N1187 1.279 . S
C1186 H1227 0.930 . S
N1187 C1185 1.314 . S
N1187 C1186 1.279 . S
C1188 C1190 1.353 . S
C1188 N1191 1.314 . S
C1188 H1194 0.930 . S
C1189 N1191 1.279 . S
C1189 C1192 1.358 . S
C1189 H1195 0.930 . S
C1190 C1188 1.353 . S
C1190 C1193 1.348 . S
C1190 H1228 0.929 . S
N1191 Li1146 1.990 . S
N1191 C1188 1.314 . S
N1191 C1189 1.279 . S
C1192 C1189 1.358 . S
C1192 C1193 1.356 . S
C1192 H1229 0.930 . S
C1193 C1190 1.348 . S
C1193 C1192 1.356 . S
H1194 C1188 0.930 . S
H1195 C1189 0.930 . S
C1196 N1197 1.314 . S
C1196 C1198 1.353 . S
C1196 H1202 0.930 . S
N1197 Li1147 1.990 . S
N1197 C1196 1.314 . S
N1197 C1200 1.279 . S
C1198 C1196 1.353 . S
C1198 C1201 1.348 . S
C1198 H1230 0.929 . S
C1199 C1200 1.358 . S
C1199 C1201 1.356 . S
C1199 H1231 0.930 . S
C1200 N1197 1.279 . S
C1200 C1199 1.358 . S
C1200 H1203 0.930 . S
C1201 C1198 1.348 . S
C1201 C1199 1.356 . S
H1202 C1196 0.930 . S
H1203 C1200 0.930 . S
O1204 Li1144 1.956 . S
O1204 Li1145 1.970 . S
O1204 Li1146 1.961 . S
O1204 C1148 1.325 . S
O1205 Li1144 1.970 . S
O1205 Li1145 1.956 . S
O1205 Li1147 1.961 . S
O1205 C1154 1.325 . S
O1206 Li1144 1.961 . S
O1206 Li1146 1.956 . S
O1206 Li1147 1.970 . S
O1206 C1176 1.325 . S
O1207 Li1145 1.961 . S
O1207 Li1146 1.970 . S
O1207 Li1147 1.956 . S
O1207 C1182 1.325 . S
H1208 C1150 0.929 . S
H1209 C1151 0.930 . S
H1210 C1152 0.930 . S
H1211 C1153 0.930 . S
H1212 C1155 0.930 . S
H1213 C1157 0.929 . S
H1214 C1158 0.930 . S
H1215 C1159 0.930 . S
H1216 C1162 0.930 . S
H1217 C1165 0.929 . S
H1218 C1170 0.929 . S
H1219 C1171 0.930 . S
H1220 C1178 0.929 . S
H1221 C1179 0.930 . S
H1222 C1180 0.930 . S
H1223 C1181 0.930 . S
H1224 C1183 0.929 . S
H1225 C1184 0.930 . S
H1226 C1185 0.930 . S
H1227 C1186 0.930 . S
H1228 C1190 0.929 . S
H1229 C1192 0.930 . S
H1230 C1198 0.929 . S
H1231 C1199 0.930 . S
H1232 C1244 0.930 . S
H1233 C1246 0.930 . S
H1234 C1247 0.930 . S
H1235 C1251 0.959 . S
H1236 C1251 0.959 . S
H1237 C1251 0.961 . S
H1238 C1252 0.960 . S
H1239 C1252 0.961 . S
H1240 C1252 0.959 . S
H1241 C1255 0.929 . S
H1242 C1256 0.931 . S
H1243 C1258 0.930 . S
C1244 H1232 0.930 . S
C1244 C1245 1.399 . S
C1244 C1249 1.399 . S
C1245 C1244 1.399 . S
C1245 C1246 1.376 . S
C1246 H1233 0.930 . S
C1246 C1245 1.376 . S
C1246 C1247 1.388 . S
C1247 H1234 0.930 . S
C1247 C1246 1.388 . S
C1247 C1248 1.390 . S
C1248 C1247 1.390 . S
C1248 C1249 1.394 . S
C1248 C1254 1.465 . S
C1249 C1244 1.399 . S
C1249 C1248 1.394 . S
C1249 C1250 1.516 . S
C1250 C1249 1.516 . S
C1250 C1251 1.502 . S
C1250 C1252 1.561 . S
C1250 C1253 1.526 . S
C1251 H1235 0.959 . S
C1251 H1236 0.959 . S
C1251 H1237 0.961 . S
C1251 C1250 1.502 . S
C1252 H1238 0.960 . S
C1252 H1239 0.961 . S
C1252 H1240 0.959 . S
C1252 C1250 1.561 . S
C1253 C1250 1.526 . S
C1253 C1254 1.396 . S
C1253 C1258 1.390 . S
C1254 C1248 1.465 . S
C1254 C1253 1.396 . S
C1254 C1255 1.399 . S
C1255 H1241 0.929 . S
C1255 C1254 1.399 . S
C1255 C1256 1.385 . S
C1256 H1242 0.931 . S
C1256 C1255 1.385 . S
C1256 C1257 1.389 . S
C1257 C1256 1.389 . S
C1257 C1258 1.387 . S
C1258 H1243 0.930 . S
C1258 C1253 1.390 . S
C1258 C1257 1.387 . S
H1259 C1271 0.930 . S
H1260 C1273 0.930 . S
H1261 C1274 0.930 . S
H1262 C1278 0.959 . S
H1263 C1278 0.959 . S
H1264 C1278 0.961 . S
H1265 C1279 0.960 . S
H1266 C1279 0.961 . S
H1267 C1279 0.959 . S
H1268 C1282 0.929 . S
H1269 C1283 0.931 . S
H1270 C1285 0.930 . S
C1271 H1259 0.930 . S
C1271 C1272 1.399 . S
C1271 C1276 1.399 . S
C1272 C1271 1.399 . S
C1272 C1273 1.376 . S
C1273 H1260 0.930 . S
C1273 C1272 1.376 . S
C1273 C1274 1.388 . S
C1274 H1261 0.930 . S
C1274 C1273 1.388 . S
C1274 C1275 1.390 . S
C1275 C1274 1.390 . S
C1275 C1276 1.394 . S
C1275 C1281 1.465 . S
C1276 C1271 1.399 . S
C1276 C1275 1.394 . S
C1276 C1277 1.516 . S
C1277 C1276 1.516 . S
C1277 C1278 1.502 . S
C1277 C1279 1.561 . S
C1277 C1280 1.526 . S
C1278 H1262 0.959 . S
C1278 H1263 0.959 . S
C1278 H1264 0.961 . S
C1278 C1277 1.502 . S
C1279 H1265 0.960 . S
C1279 H1266 0.961 . S
C1279 H1267 0.959 . S
C1279 C1277 1.561 . S
C1280 C1277 1.526 . S
C1280 C1281 1.396 . S
C1280 C1285 1.390 . S
C1281 C1275 1.465 . S
C1281 C1280 1.396 . S
C1281 C1282 1.399 . S
C1282 H1268 0.929 . S
C1282 C1281 1.399 . S
C1282 C1283 1.385 . S
C1283 H1269 0.931 . S
C1283 C1282 1.385 . S
C1283 C1284 1.389 . S
C1284 C1283 1.389 . S
C1284 C1285 1.387 . S
C1285 H1270 0.930 . S
C1285 C1280 1.390 . S
C1285 C1284 1.387 . S
H1286 C1298 0.930 . S
H1287 C1300 0.930 . S
H1288 C1301 0.930 . S
H1289 C1305 0.959 . S
H1290 C1305 0.959 . S
H1291 C1305 0.961 . S
H1292 C1306 0.960 . S
H1293 C1306 0.961 . S
H1294 C1306 0.959 . S
H1295 C1309 0.929 . S
H1296 C1310 0.931 . S
H1297 C1312 0.930 . S
C1298 H1286 0.930 . S
C1298 C1299 1.399 . S
C1298 C1303 1.399 . S
C1299 C1298 1.399 . S
C1299 C1300 1.376 . S
C1300 H1287 0.930 . S
C1300 C1299 1.376 . S
C1300 C1301 1.388 . S
C1301 H1288 0.930 . S
C1301 C1300 1.388 . S
C1301 C1302 1.390 . S
C1302 C1301 1.390 . S
C1302 C1303 1.394 . S
C1302 C1308 1.465 . S
C1303 C1298 1.399 . S
C1303 C1302 1.394 . S
C1303 C1304 1.516 . S
C1304 C1303 1.516 . S
C1304 C1305 1.502 . S
C1304 C1306 1.561 . S
C1304 C1307 1.526 . S
C1305 H1289 0.959 . S
C1305 H1290 0.959 . S
C1305 H1291 0.961 . S
C1305 C1304 1.502 . S
C1306 H1292 0.960 . S
C1306 H1293 0.961 . S
C1306 H1294 0.959 . S
C1306 C1304 1.561 . S
C1307 C1304 1.526 . S
C1307 C1308 1.396 . S
C1307 C1312 1.390 . S
C1308 C1302 1.465 . S
C1308 C1307 1.396 . S
C1308 C1309 1.399 . S
C1309 H1295 0.929 . S
C1309 C1308 1.399 . S
C1309 C1310 1.385 . S
C1310 H1296 0.931 . S
C1310 C1309 1.385 . S
C1310 C1311 1.389 . S
C1311 C1310 1.389 . S
C1311 C1312 1.387 . S
C1312 H1297 0.930 . S
C1312 C1307 1.390 . S
C1312 C1311 1.387 . S
H1313 C1325 0.930 . S
H1314 C1327 0.930 . S
H1315 C1328 0.930 . S
H1316 C1332 0.959 . S
H1317 C1332 0.959 . S
H1318 C1332 0.961 . S
H1319 C1333 0.960 . S
H1320 C1333 0.961 . S
H1321 C1333 0.959 . S
H1322 C1336 0.929 . S
H1323 C1337 0.931 . S
H1324 C1339 0.930 . S
C1325 H1313 0.930 . S
C1325 C1326 1.399 . S
C1325 C1330 1.399 . S
C1326 C1325 1.399 . S
C1326 C1327 1.376 1_565 S
C1327 H1314 0.930 . S
C1327 C1326 1.376 1_545 S
C1327 C1328 1.388 . S
C1328 H1315 0.930 . S
C1328 C1327 1.388 . S
C1328 C1329 1.390 . S
C1329 C1328 1.390 . S
C1329 C1330 1.394 1_545 S
C1329 C1335 1.476 . S
C1330 C1325 1.399 . S
C1330 C1329 1.394 1_565 S
C1330 C1331 1.516 . S
C1331 C1330 1.516 . S
C1331 C1332 1.502 . S
C1331 C1333 1.561 1_455 S
C1331 C1334 1.516 1_455 S
C1332 H1316 0.959 . S
C1332 H1317 0.959 . S
C1332 H1318 0.961 . S
C1332 C1331 1.502 . S
C1333 H1319 0.960 . S
C1333 H1320 0.961 . S
C1333 H1321 0.959 . S
C1333 C1331 1.561 1_655 S
C1334 C1331 1.516 1_655 S
C1334 C1335 1.398 1_665 S
C1334 C1339 1.399 . S
C1335 C1329 1.476 . S
C1335 C1334 1.398 1_445 S
C1335 C1336 1.388 1_455 S
C1336 H1322 0.929 . S
C1336 C1335 1.388 1_655 S
C1336 C1337 1.385 . S
C1337 H1323 0.931 . S
C1337 C1336 1.385 . S
C1337 C1338 1.389 . S
C1338 C1337 1.389 . S
C1338 C1339 1.387 1_545 S
C1339 H1324 0.930 . S
C1339 C1334 1.399 . S
C1339 C1338 1.387 1_565 S
H1340 C1352 0.930 . S
H1341 C1354 0.930 . S
H1342 C1355 0.930 . S
H1343 C1359 0.959 . S
H1344 C1359 0.959 . S
H1345 C1359 0.961 . S
H1346 C1360 0.960 . S
H1347 C1360 0.961 . S
H1348 C1360 0.959 . S
H1349 C1363 0.929 . S
H1350 C1364 0.931 . S
H1351 C1366 0.930 . S
C1352 H1340 0.930 . S
C1352 C1353 1.399 . S
C1352 C1357 1.399 . S
C1353 C1352 1.399 . S
C1353 C1354 1.376 . S
C1354 H1341 0.930 . S
C1354 C1353 1.376 . S
C1354 C1355 1.388 . S
C1355 H1342 0.930 . S
C1355 C1354 1.388 . S
C1355 C1356 1.390 . S
C1356 C1355 1.390 . S
C1356 C1357 1.394 . S
C1356 C1362 1.465 . S
C1357 C1352 1.399 . S
C1357 C1356 1.394 . S
C1357 C1358 1.516 . S
C1358 C1357 1.516 . S
C1358 C1359 1.502 . S
C1358 C1360 1.561 . S
C1358 C1361 1.526 . S
C1359 H1343 0.959 . S
C1359 H1344 0.959 . S
C1359 H1345 0.961 . S
C1359 C1358 1.502 . S
C1360 H1346 0.960 . S
C1360 H1347 0.961 . S
C1360 H1348 0.959 . S
C1360 C1358 1.561 . S
C1361 C1358 1.526 . S
C1361 C1362 1.396 . S
C1361 C1366 1.390 . S
C1362 C1356 1.465 . S
C1362 C1361 1.396 . S
C1362 C1363 1.399 . S
C1363 H1349 0.929 . S
C1363 C1362 1.399 . S
C1363 C1364 1.385 . S
C1364 H1350 0.931 . S
C1364 C1363 1.385 . S
C1364 C1365 1.389 . S
C1365 C1364 1.389 . S
C1365 C1366 1.387 . S
C1366 H1351 0.930 . S
C1366 C1361 1.390 . S
C1366 C1365 1.387 . S
H1367 C1379 0.930 . S
H1368 C1381 0.930 . S
H1369 C1382 0.930 . S
H1370 C1386 0.959 . S
H1371 C1386 0.959 . S
H1372 C1386 0.961 . S
H1373 C1387 0.960 . S
H1374 C1387 0.961 . S
H1375 C1387 0.959 . S
H1376 C1390 0.929 . S
H1377 C1391 0.931 . S
H1378 C1393 0.930 . S
C1379 H1367 0.930 . S
C1379 C1380 1.399 . S
C1379 C1384 1.399 . S
C1380 C1379 1.399 . S
C1380 C1381 1.376 . S
C1381 H1368 0.930 . S
C1381 C1380 1.376 . S
C1381 C1382 1.388 . S
C1382 H1369 0.930 . S
C1382 C1381 1.388 . S
C1382 C1383 1.390 . S
C1383 C1382 1.390 . S
C1383 C1384 1.394 . S
C1383 C1389 1.465 . S
C1384 C1379 1.399 . S
C1384 C1383 1.394 . S
C1384 C1385 1.516 . S
C1385 C1384 1.516 . S
C1385 C1386 1.502 . S
C1385 C1387 1.561 . S
C1385 C1388 1.526 . S
C1386 H1370 0.959 . S
C1386 H1371 0.959 . S
C1386 H1372 0.961 . S
C1386 C1385 1.502 . S
C1387 H1373 0.960 . S
C1387 H1374 0.961 . S
C1387 H1375 0.959 . S
C1387 C1385 1.561 . S
C1388 C1385 1.526 . S
C1388 C1389 1.396 . S
C1388 C1393 1.390 . S
C1389 C1383 1.465 . S
C1389 C1388 1.396 . S
C1389 C1390 1.399 . S
C1390 H1376 0.929 . S
C1390 C1389 1.399 . S
C1390 C1391 1.385 . S
C1391 H1377 0.931 . S
C1391 C1390 1.385 . S
C1391 C1392 1.389 . S
C1392 C1391 1.389 . S
C1392 C1393 1.387 . S
C1393 H1378 0.930 . S
C1393 C1388 1.390 . S
C1393 C1392 1.387 . S
H1394 C1406 0.930 . S
H1395 C1408 0.930 . S
H1396 C1409 0.930 . S
H1397 C1413 0.959 . S
H1398 C1413 0.959 . S
H1399 C1413 0.961 . S
H1400 C1414 0.960 . S
H1401 C1414 0.961 . S
H1402 C1414 0.959 . S
H1403 C1417 0.929 . S
H1404 C1418 0.931 . S
H1405 C1420 0.930 . S
C1406 H1394 0.930 . S
C1406 C1407 1.399 . S
C1406 C1411 1.399 . S
C1407 C1406 1.399 . S
C1407 C1408 1.376 . S
C1408 H1395 0.930 . S
C1408 C1407 1.376 . S
C1408 C1409 1.388 . S
C1409 H1396 0.930 . S
C1409 C1408 1.388 . S
C1409 C1410 1.390 . S
C1410 C1409 1.390 . S
C1410 C1411 1.394 . S
C1410 C1416 1.465 . S
C1411 C1406 1.399 . S
C1411 C1410 1.394 . S
C1411 C1412 1.516 . S
C1412 C1411 1.516 . S
C1412 C1413 1.502 . S
C1412 C1414 1.561 . S
C1412 C1415 1.526 . S
C1413 H1397 0.959 . S
C1413 H1398 0.959 . S
C1413 H1399 0.961 . S
C1413 C1412 1.502 . S
C1414 H1400 0.960 . S
C1414 H1401 0.961 . S
C1414 H1402 0.959 . S
C1414 C1412 1.561 . S
C1415 C1412 1.526 . S
C1415 C1416 1.396 . S
C1415 C1420 1.390 . S
C1416 C1410 1.465 . S
C1416 C1415 1.396 . S
C1416 C1417 1.399 . S
C1417 H1403 0.929 . S
C1417 C1416 1.399 . S
C1417 C1418 1.385 . S
C1418 H1404 0.931 . S
C1418 C1417 1.385 . S
C1418 C1419 1.389 . S
C1419 C1418 1.389 . S
C1419 C1420 1.387 . S
C1420 H1405 0.930 . S
C1420 C1415 1.390 . S
C1420 C1419 1.387 . S
H1421 C1433 0.930 . S
H1422 C1435 0.930 . S
H1423 C1436 0.930 . S
H1424 C1440 0.959 . S
H1425 C1440 0.959 . S
H1426 C1440 0.961 . S
H1427 C1441 0.960 . S
H1428 C1441 0.961 . S
H1429 C1441 0.959 . S
H1430 C1444 0.929 . S
H1431 C1445 0.931 . S
H1432 C1447 0.930 . S
C1433 H1421 0.930 . S
C1433 C1434 1.399 . S
C1433 C1438 1.399 . S
C1434 C1433 1.399 . S
C1434 C1435 1.376 1_565 S
C1435 H1422 0.930 . S
C1435 C1434 1.376 1_545 S
C1435 C1436 1.388 . S
C1436 H1423 0.930 . S
C1436 C1435 1.388 . S
C1436 C1437 1.390 1_545 S
C1437 C1436 1.390 1_565 S
C1437 C1438 1.394 . S
C1437 C1443 1.465 . S
C1438 C1433 1.399 . S
C1438 C1437 1.394 . S
C1438 C1439 1.516 . S
C1439 C1438 1.516 . S
C1439 C1440 1.502 . S
C1439 C1441 1.561 . S
C1439 C1442 1.526 . S
C1440 H1424 0.959 . S
C1440 H1425 0.959 . S
C1440 H1426 0.961 . S
C1440 C1439 1.502 . S
C1441 H1427 0.960 . S
C1441 H1428 0.961 . S
C1441 H1429 0.959 . S
C1441 C1439 1.561 . S
C1442 C1439 1.526 . S
C1442 C1443 1.396 . S
C1442 C1447 1.390 . S
C1443 C1437 1.465 . S
C1443 C1442 1.396 . S
C1443 C1444 1.399 1_565 S
C1444 H1430 0.929 . S
C1444 C1443 1.399 1_545 S
C1444 C1445 1.385 . S
C1445 H1431 0.931 . S
C1445 C1444 1.385 . S
C1445 C1446 1.389 1_545 S
C1446 C1445 1.389 1_565 S
C1446 C1447 1.387 . S
C1447 H1432 0.930 . S
C1447 C1442 1.390 . S
C1447 C1446 1.387 . S
H1448 C1460 0.930 . S
H1449 C1462 0.930 . S
H1450 C1463 0.930 . S
H1451 C1467 0.959 . S
H1452 C1467 0.959 . S
H1453 C1467 0.961 . S
H1454 C1468 0.960 . S
H1455 C1468 0.961 . S
H1456 C1468 0.959 . S
H1457 C1471 0.929 . S
H1458 C1472 0.931 . S
H1459 C1474 0.930 . S
C1460 H1448 0.930 . S
C1460 C1461 1.399 . S
C1460 C1465 1.399 . S
C1461 C1460 1.399 . S
C1461 C1462 1.376 . S
C1462 H1449 0.930 . S
C1462 C1461 1.376 . S
C1462 C1463 1.388 . S
C1463 H1450 0.930 . S
C1463 C1462 1.388 . S
C1463 C1464 1.390 . S
C1464 C1463 1.390 . S
C1464 C1465 1.394 . S
C1464 C1470 1.465 . S
C1465 C1460 1.399 . S
C1465 C1464 1.394 . S
C1465 C1466 1.516 . S
C1466 C1465 1.516 . S
C1466 C1467 1.502 . S
C1466 C1468 1.561 . S
C1466 C1469 1.526 . S
C1467 H1451 0.959 . S
C1467 H1452 0.959 . S
C1467 H1453 0.961 . S
C1467 C1466 1.502 . S
C1468 H1454 0.960 . S
C1468 H1455 0.961 . S
C1468 H1456 0.959 . S
C1468 C1466 1.561 . S
C1469 C1466 1.526 . S
C1469 C1470 1.396 . S
C1469 C1474 1.390 . S
C1470 C1464 1.465 . S
C1470 C1469 1.396 . S
C1470 C1471 1.399 . S
C1471 H1457 0.929 . S
C1471 C1470 1.399 . S
C1471 C1472 1.385 . S
C1472 H1458 0.931 . S
C1472 C1471 1.385 . S
C1472 C1473 1.389 . S
C1473 C1472 1.389 . S
C1473 C1474 1.387 . S
C1474 H1459 0.930 . S
C1474 C1469 1.390 . S
C1474 C1473 1.387 . S
H1475 C1487 0.930 . S
H1476 C1489 0.930 . S
H1477 C1490 0.930 . S
H1478 C1494 0.959 . S
H1479 C1494 0.959 . S
H1480 C1494 0.961 . S
H1481 C1495 0.960 . S
H1482 C1495 0.961 . S
H1483 C1495 0.959 . S
H1484 C1498 0.929 . S
H1485 C1499 0.931 . S
H1486 C1501 0.930 . S
C1487 H1475 0.930 . S
C1487 C1488 1.399 . S
C1487 C1492 1.399 . S
C1488 C1487 1.399 . S
C1488 C1489 1.376 . S
C1489 H1476 0.930 . S
C1489 C1488 1.376 . S
C1489 C1490 1.388 . S
C1490 H1477 0.930 . S
C1490 C1489 1.388 . S
C1490 C1491 1.390 . S
C1491 C1490 1.390 . S
C1491 C1492 1.394 . S
C1491 C1497 1.465 . S
C1492 C1487 1.399 . S
C1492 C1491 1.394 . S
C1492 C1493 1.516 . S
C1493 C1492 1.516 . S
C1493 C1494 1.502 . S
C1493 C1495 1.561 . S
C1493 C1496 1.526 . S
C1494 H1478 0.959 . S
C1494 H1479 0.959 . S
C1494 H1480 0.961 . S
C1494 C1493 1.502 . S
C1495 H1481 0.960 . S
C1495 H1482 0.961 . S
C1495 H1483 0.959 . S
C1495 C1493 1.561 . S
C1496 C1493 1.526 . S
C1496 C1497 1.396 . S
C1496 C1501 1.390 . S
C1497 C1491 1.465 . S
C1497 C1496 1.396 . S
C1497 C1498 1.399 . S
C1498 H1484 0.929 . S
C1498 C1497 1.399 . S
C1498 C1499 1.385 . S
C1499 H1485 0.931 . S
C1499 C1498 1.385 . S
C1499 C1500 1.389 . S
C1500 C1499 1.389 . S
C1500 C1501 1.387 . S
C1501 H1486 0.930 . S
C1501 C1496 1.390 . S
C1501 C1500 1.387 . S
H1502 C1514 0.930 . S
H1503 C1516 0.930 . S
H1504 C1517 0.930 . S
H1505 C1521 0.959 . S
H1506 C1521 0.959 . S
H1507 C1521 0.961 . S
H1508 C1522 0.960 . S
H1509 C1522 0.961 . S
H1510 C1522 0.959 . S
H1511 C1525 0.929 . S
H1512 C1526 0.931 . S
H1513 C1528 0.930 . S
C1514 H1502 0.930 . S
C1514 C1515 1.399 . S
C1514 C1519 1.399 . S
C1515 C1514 1.399 . S
C1515 C1516 1.376 . S
C1516 H1503 0.930 . S
C1516 C1515 1.376 . S
C1516 C1517 1.388 . S
C1517 H1504 0.930 . S
C1517 C1516 1.388 . S
C1517 C1518 1.390 . S
C1518 C1517 1.390 . S
C1518 C1519 1.394 . S
C1518 C1524 1.465 . S
C1519 C1514 1.399 . S
C1519 C1518 1.394 . S
C1519 C1520 1.516 . S
C1520 C1519 1.516 . S
C1520 C1521 1.502 . S
C1520 C1522 1.561 . S
C1520 C1523 1.526 . S
C1521 H1505 0.959 . S
C1521 H1506 0.959 . S
C1521 H1507 0.961 . S
C1521 C1520 1.502 . S
C1522 H1508 0.960 . S
C1522 H1509 0.961 . S
C1522 H1510 0.959 . S
C1522 C1520 1.561 . S
C1523 C1520 1.526 . S
C1523 C1524 1.396 . S
C1523 C1528 1.390 . S
C1524 C1518 1.465 . S
C1524 C1523 1.396 . S
C1524 C1525 1.399 . S
C1525 H1511 0.929 . S
C1525 C1524 1.399 . S
C1525 C1526 1.385 . S
C1526 H1512 0.931 . S
C1526 C1525 1.385 . S
C1526 C1527 1.389 . S
C1527 C1526 1.389 . S
C1527 C1528 1.387 . S
C1528 H1513 0.930 . S
C1528 C1523 1.390 . S
C1528 C1527 1.387 . S
H1529 C1541 0.930 . S
H1530 C1543 0.930 . S
H1531 C1544 0.930 . S
H1532 C1548 0.959 . S
H1533 C1548 0.959 . S
H1534 C1548 0.961 . S
H1535 C1549 0.960 . S
H1536 C1549 0.961 . S
H1537 C1549 0.959 . S
H1538 C1552 0.929 . S
H1539 C1553 0.931 . S
H1540 C1555 0.930 . S
C1541 H1529 0.930 . S
C1541 C1542 1.399 . S
C1541 C1546 1.399 . S
C1542 C1541 1.399 . S
C1542 C1543 1.376 . S
C1543 H1530 0.930 . S
C1543 C1542 1.376 . S
C1543 C1544 1.388 . S
C1544 H1531 0.930 . S
C1544 C1543 1.388 . S
C1544 C1545 1.390 . S
C1545 C1544 1.390 . S
C1545 C1546 1.394 . S
C1545 C1551 1.465 . S
C1546 C1541 1.399 . S
C1546 C1545 1.394 . S
C1546 C1547 1.516 . S
C1547 C1546 1.516 . S
C1547 C1548 1.502 . S
C1547 C1549 1.561 . S
C1547 C1550 1.526 . S
C1548 H1532 0.959 . S
C1548 H1533 0.959 . S
C1548 H1534 0.961 . S
C1548 C1547 1.502 . S
C1549 H1535 0.960 . S
C1549 H1536 0.961 . S
C1549 H1537 0.959 . S
C1549 C1547 1.561 . S
C1550 C1547 1.526 . S
C1550 C1551 1.396 . S
C1550 C1555 1.390 . S
C1551 C1545 1.465 . S
C1551 C1550 1.396 . S
C1551 C1552 1.399 . S
C1552 H1538 0.929 . S
C1552 C1551 1.399 . S
C1552 C1553 1.385 . S
C1553 H1539 0.931 . S
C1553 C1552 1.385 . S
C1553 C1554 1.389 . S
C1554 C1553 1.389 . S
C1554 C1555 1.387 . S
C1555 H1540 0.930 . S
C1555 C1550 1.390 . S
C1555 C1554 1.387 . S
H1556 C1568 0.930 . S
H1557 C1570 0.930 . S
H1558 C1571 0.930 . S
H1559 C1575 0.959 . S
H1560 C1575 0.959 . S
H1561 C1575 0.961 . S
H1562 C1576 0.960 . S
H1563 C1576 0.961 . S
H1564 C1576 0.959 . S
H1565 C1579 0.929 . S
H1566 C1580 0.931 . S
H1567 C1582 0.930 . S
C1568 H1556 0.930 . S
C1568 C1569 1.399 . S
C1568 C1573 1.399 . S
C1569 C1568 1.399 . S
C1569 C1570 1.376 . S
C1570 H1557 0.930 . S
C1570 C1569 1.376 . S
C1570 C1571 1.388 . S
C1571 H1558 0.930 . S
C1571 C1570 1.388 . S
C1571 C1572 1.390 . S
C1572 C1571 1.390 . S
C1572 C1573 1.394 . S
C1572 C1578 1.465 . S
C1573 C1568 1.399 . S
C1573 C1572 1.394 . S
C1573 C1574 1.516 . S
C1574 C1573 1.516 . S
C1574 C1575 1.502 . S
C1574 C1576 1.561 . S
C1574 C1577 1.526 . S
C1575 H1559 0.959 . S
C1575 H1560 0.959 . S
C1575 H1561 0.961 . S
C1575 C1574 1.502 . S
C1576 H1562 0.960 . S
C1576 H1563 0.961 . S
C1576 H1564 0.959 . S
C1576 C1574 1.561 . S
C1577 C1574 1.526 . S
C1577 C1578 1.396 . S
C1577 C1582 1.390 . S
C1578 C1572 1.465 . S
C1578 C1577 1.396 . S
C1578 C1579 1.399 . S
C1579 H1565 0.929 . S
C1579 C1578 1.399 . S
C1579 C1580 1.385 . S
C1580 H1566 0.931 . S
C1580 C1579 1.385 . S
C1580 C1581 1.389 . S
C1581 C1580 1.389 . S
C1581 C1582 1.387 . S
C1582 H1567 0.930 . S
C1582 C1577 1.390 . S
C1582 C1581 1.387 . S
H1583 C1595 0.930 . S
H1584 C1597 0.930 . S
H1585 C1598 0.930 . S
H1586 C1602 0.959 . S
H1587 C1602 0.959 . S
H1588 C1602 0.961 . S
H1589 C1603 0.960 . S
H1590 C1603 0.961 . S
H1591 C1603 0.959 . S
H1592 C1606 0.929 1_655 S
H1593 C1607 0.931 1_655 S
H1594 C1609 0.930 . S
C1595 H1583 0.930 . S
C1595 C1596 1.399 . S
C1595 C1600 1.399 . S
C1596 C1595 1.399 . S
C1596 C1597 1.376 . S
C1597 H1584 0.930 . S
C1597 C1596 1.376 . S
C1597 C1598 1.388 . S
C1598 H1585 0.930 . S
C1598 C1597 1.388 . S
C1598 C1599 1.390 . S
C1599 C1598 1.390 . S
C1599 C1600 1.394 . S
C1599 C1605 1.465 . S
C1600 C1595 1.399 . S
C1600 C1599 1.394 . S
C1600 C1601 1.516 . S
C1601 C1600 1.516 . S
C1601 C1602 1.502 . S
C1601 C1603 1.561 . S
C1601 C1604 1.526 . S
C1602 H1586 0.959 . S
C1602 H1587 0.959 . S
C1602 H1588 0.961 . S
C1602 C1601 1.502 . S
C1603 H1589 0.960 . S
C1603 H1590 0.961 . S
C1603 H1591 0.959 . S
C1603 C1601 1.561 . S
C1604 C1601 1.526 . S
C1604 C1605 1.396 . S
C1604 C1609 1.390 . S
C1605 C1599 1.465 . S
C1605 C1604 1.396 . S
C1605 C1606 1.399 . S
C1606 H1592 0.929 1_455 S
C1606 C1605 1.399 . S
C1606 C1607 1.385 . S
C1607 H1593 0.931 1_455 S
C1607 C1606 1.385 . S
C1607 C1608 1.389 . S
C1608 C1607 1.389 . S
C1608 C1609 1.387 . S
C1609 H1594 0.930 . S
C1609 C1604 1.390 . S
C1609 C1608 1.387 . S
H1610 C1622 0.930 . S
H1611 C1624 0.930 . S
H1612 C1625 0.930 . S
H1613 C1629 0.959 . S
H1614 C1629 0.959 . S
H1615 C1629 0.961 . S
H1616 C1630 0.960 . S
H1617 C1630 0.961 . S
H1618 C1630 0.959 . S
H1619 C1633 0.929 . S
H1620 C1634 0.931 . S
H1621 C1636 0.930 . S
C1622 H1610 0.930 . S
C1622 C1623 1.399 . S
C1622 C1627 1.399 . S
C1623 C1622 1.399 . S
C1623 C1624 1.376 . S
C1624 H1611 0.930 . S
C1624 C1623 1.376 . S
C1624 C1625 1.388 . S
C1625 H1612 0.930 . S
C1625 C1624 1.388 . S
C1625 C1626 1.390 . S
C1626 C1625 1.390 . S
C1626 C1627 1.394 . S
C1626 C1632 1.465 . S
C1627 C1622 1.399 . S
C1627 C1626 1.394 . S
C1627 C1628 1.516 . S
C1628 C1627 1.516 . S
C1628 C1629 1.502 . S
C1628 C1630 1.561 . S
C1628 C1631 1.526 . S
C1629 H1613 0.959 . S
C1629 H1614 0.959 . S
C1629 H1615 0.961 . S
C1629 C1628 1.502 . S
C1630 H1616 0.960 . S
C1630 H1617 0.961 . S
C1630 H1618 0.959 . S
C1630 C1628 1.561 . S
C1631 C1628 1.526 . S
C1631 C1632 1.396 . S
C1631 C1636 1.390 . S
C1632 C1626 1.465 . S
C1632 C1631 1.396 . S
C1632 C1633 1.399 . S
C1633 H1619 0.929 . S
C1633 C1632 1.399 . S
C1633 C1634 1.385 . S
C1634 H1620 0.931 . S
C1634 C1633 1.385 . S
C1634 C1635 1.389 . S
C1635 C1634 1.389 . S
C1635 C1636 1.387 . S
C1636 H1621 0.930 . S
C1636 C1631 1.390 . S
C1636 C1635 1.387 . S
H1637 C1649 0.930 . S
H1638 C1651 0.930 . S
H1639 C1652 0.930 1_455 S
H1640 C1656 0.959 . S
H1641 C1656 0.959 . S
H1642 C1656 0.961 . S
H1643 C1657 0.960 . S
H1644 C1657 0.961 . S
H1645 C1657 0.959 . S
H1646 C1660 0.929 1_455 S
H1647 C1661 0.935 . S
H1648 C1663 0.930 . S
C1649 H1637 0.930 . S
C1649 C1650 1.399 . S
C1649 C1654 1.399 . S
C1650 C1649 1.399 . S
C1650 C1651 1.376 . S
C1651 H1638 0.930 . S
C1651 C1650 1.376 . S
C1651 C1652 1.388 . S
C1652 H1639 0.930 1_655 S
C1652 C1651 1.388 . S
C1652 C1653 1.390 . S
C1653 C1652 1.390 . S
C1653 C1654 1.394 . S
C1653 C1659 1.465 . S
C1654 C1649 1.399 . S
C1654 C1653 1.394 . S
C1654 C1655 1.516 . S
C1655 C1654 1.516 . S
C1655 C1656 1.502 . S
C1655 C1657 1.561 1_655 S
C1655 C1658 1.526 . S
C1656 H1640 0.959 . S
C1656 H1641 0.959 . S
C1656 H1642 0.961 . S
C1656 C1655 1.502 . S
C1657 H1643 0.960 . S
C1657 H1644 0.961 . S
C1657 H1645 0.959 . S
C1657 C1655 1.561 1_455 S
C1658 C1655 1.526 . S
C1658 C1659 1.396 . S
C1658 C1663 1.390 . S
C1659 C1653 1.465 . S
C1659 C1658 1.396 . S
C1659 C1660 1.399 . S
C1660 H1646 0.929 1_655 S
C1660 C1659 1.399 . S
C1660 C1661 1.385 . S
C1661 H1647 0.935 . S
C1661 C1660 1.385 . S
C1661 C1662 1.389 . S
C1662 C1661 1.389 . S
C1662 C1663 1.387 . S
C1663 H1648 0.930 . S
C1663 C1658 1.390 . S
C1663 C1662 1.387 . S
H1664 C1676 0.930 . S
H1665 C1678 0.930 . S
H1666 C1679 0.930 . S
H1667 C1683 0.959 . S
H1668 C1683 0.959 . S
H1669 C1683 0.961 . S
H1670 C1684 0.960 . S
H1671 C1684 0.961 . S
H1672 C1684 0.959 . S
H1673 C1687 0.929 . S
H1674 C1688 0.931 . S
H1675 C1690 0.930 . S
C1676 H1664 0.930 . S
C1676 C1677 1.399 . S
C1676 C1681 1.399 . S
C1677 C1676 1.399 . S
C1677 C1678 1.376 . S
C1678 H1665 0.930 . S
C1678 C1677 1.376 . S
C1678 C1679 1.388 . S
C1679 H1666 0.930 . S
C1679 C1678 1.388 . S
C1679 C1680 1.390 . S
C1680 C1679 1.390 . S
C1680 C1681 1.394 . S
C1680 C1686 1.465 . S
C1681 C1676 1.399 . S
C1681 C1680 1.394 . S
C1681 C1682 1.516 . S
C1682 C1681 1.516 . S
C1682 C1683 1.502 . S
C1682 C1684 1.561 . S
C1682 C1685 1.526 . S
C1683 H1667 0.959 . S
C1683 H1668 0.959 . S
C1683 H1669 0.961 . S
C1683 C1682 1.502 . S
C1684 H1670 0.960 . S
C1684 H1671 0.961 . S
C1684 H1672 0.959 . S
C1684 C1682 1.561 . S
C1685 C1682 1.526 . S
C1685 C1686 1.396 . S
C1685 C1690 1.390 . S
C1686 C1680 1.465 . S
C1686 C1685 1.396 . S
C1686 C1687 1.399 . S
C1687 H1673 0.929 . S
C1687 C1686 1.399 . S
C1687 C1688 1.385 . S
C1688 H1674 0.931 . S
C1688 C1687 1.385 . S
C1688 C1689 1.389 . S
C1689 C1688 1.389 . S
C1689 C1690 1.387 . S
C1690 H1675 0.930 . S
C1690 C1685 1.390 . S
C1690 C1689 1.387 . S
H1691 C1703 0.930 . S
H1692 C1705 0.930 . S
H1693 C1706 0.930 . S
H1694 C1710 0.959 . S
H1695 C1710 0.959 . S
H1696 C1710 0.961 . S
H1697 C1711 0.960 . S
H1698 C1711 0.961 . S
H1699 C1711 0.959 . S
H1700 C1714 0.929 . S
H1701 C1715 0.931 . S
H1702 C1717 0.930 . S
C1703 H1691 0.930 . S
C1703 C1704 1.399 . S
C1703 C1708 1.399 . S
C1704 C1703 1.399 . S
C1704 C1705 1.376 . S
C1705 H1692 0.930 . S
C1705 C1704 1.376 . S
C1705 C1706 1.388 . S
C1706 H1693 0.930 . S
C1706 C1705 1.388 . S
C1706 C1707 1.390 . S
C1707 C1706 1.390 . S
C1707 C1708 1.394 . S
C1707 C1713 1.465 . S
C1708 C1703 1.399 . S
C1708 C1707 1.394 . S
C1708 C1709 1.516 . S
C1709 C1708 1.516 . S
C1709 C1710 1.502 . S
C1709 C1711 1.561 . S
C1709 C1712 1.526 . S
C1710 H1694 0.959 . S
C1710 H1695 0.959 . S
C1710 H1696 0.961 . S
C1710 C1709 1.502 . S
C1711 H1697 0.960 . S
C1711 H1698 0.961 . S
C1711 H1699 0.959 . S
C1711 C1709 1.561 . S
C1712 C1709 1.526 . S
C1712 C1713 1.396 . S
C1712 C1717 1.390 . S
C1713 C1707 1.465 . S
C1713 C1712 1.396 . S
C1713 C1714 1.399 . S
C1714 H1700 0.929 . S
C1714 C1713 1.399 . S
C1714 C1715 1.385 . S
C1715 H1701 0.931 . S
C1715 C1714 1.385 . S
C1715 C1716 1.389 . S
C1716 C1715 1.389 . S
C1716 C1717 1.387 . S
C1717 H1702 0.930 . S
C1717 C1712 1.390 . S
C1717 C1716 1.387 . S
H1718 C1730 0.930 . S
H1719 C1732 0.930 . S
H1720 C1733 0.930 . S
H1721 C1737 0.959 . S
H1722 C1737 0.959 . S
H1723 C1737 0.961 . S
H1724 C1738 0.960 . S
H1725 C1738 0.961 . S
H1726 C1738 0.959 . S
H1727 C1741 0.929 . S
H1728 C1742 0.931 . S
H1729 C1744 0.930 1_556 S
C1730 H1718 0.930 . S
C1730 C1731 1.399 1_565 S
C1730 C1735 1.399 . S
C1731 C1730 1.399 1_545 S
C1731 C1732 1.376 1_556 S
C1732 H1719 0.930 . S
C1732 C1731 1.376 1_554 S
C1732 C1733 1.388 . S
C1733 H1720 0.930 . S
C1733 C1732 1.388 . S
C1733 C1734 1.390 1_545 S
C1734 C1733 1.390 1_565 S
C1734 C1735 1.394 1_554 S
C1734 C1740 1.465 . S
C1735 C1730 1.399 . S
C1735 C1734 1.394 1_556 S
C1735 C1736 1.516 . S
C1736 C1735 1.516 . S
C1736 C1737 1.502 . S
C1736 C1738 1.561 . S
C1736 C1739 1.545 . S
C1737 H1721 0.959 . S
C1737 H1722 0.959 . S
C1737 H1723 0.961 . S
C1737 C1736 1.502 . S
C1738 H1724 0.960 . S
C1738 H1725 0.961 . S
C1738 H1726 0.959 . S
C1738 C1736 1.561 . S
C1739 C1736 1.545 . S
C1739 C1740 1.380 1_556 S
C1739 C1744 1.385 1_556 S
C1740 C1734 1.465 . S
C1740 C1739 1.380 1_554 S
C1740 C1741 1.399 . S
C1741 H1727 0.929 . S
C1741 C1740 1.399 . S
C1741 C1742 1.385 . S
C1742 H1728 0.931 . S
C1742 C1741 1.385 . S
C1742 C1743 1.389 . S
C1743 C1742 1.389 . S
C1743 C1744 1.387 . S
C1744 H1729 0.930 1_554 S
C1744 C1739 1.385 1_554 S
C1744 C1743 1.387 . S
H1745 C1757 0.930 . S
H1746 C1759 0.930 . S
H1747 C1760 0.930 . S
H1748 C1764 0.959 . S
H1749 C1764 0.959 . S
H1750 C1764 0.961 . S
H1751 C1765 0.960 . S
H1752 C1765 0.961 . S
H1753 C1765 0.959 . S
H1754 C1768 0.929 . S
H1755 C1769 0.931 . S
H1756 C1771 0.930 . S
C1757 H1745 0.930 . S
C1757 C1758 1.399 . S
C1757 C1762 1.399 . S
C1758 C1757 1.399 . S
C1758 C1759 1.376 . S
C1759 H1746 0.930 . S
C1759 C1758 1.376 . S
C1759 C1760 1.388 . S
C1760 H1747 0.930 . S
C1760 C1759 1.388 . S
C1760 C1761 1.390 . S
C1761 C1760 1.390 . S
C1761 C1762 1.394 . S
C1761 C1767 1.465 . S
C1762 C1757 1.399 . S
C1762 C1761 1.394 . S
C1762 C1763 1.516 . S
C1763 C1762 1.516 . S
C1763 C1764 1.502 . S
C1763 C1765 1.561 . S
C1763 C1766 1.526 . S
C1764 H1748 0.959 . S
C1764 H1749 0.959 . S
C1764 H1750 0.961 . S
C1764 C1763 1.502 . S
C1765 H1751 0.960 . S
C1765 H1752 0.961 . S
C1765 H1753 0.959 . S
C1765 C1763 1.561 . S
C1766 C1763 1.526 . S
C1766 C1767 1.396 . S
C1766 C1771 1.390 . S
C1767 C1761 1.465 . S
C1767 C1766 1.396 . S
C1767 C1768 1.399 . S
C1768 H1754 0.929 . S
C1768 C1767 1.399 . S
C1768 C1769 1.385 . S
C1769 H1755 0.931 . S
C1769 C1768 1.385 . S
C1769 C1770 1.389 . S
C1770 C1769 1.389 . S
C1770 C1771 1.387 . S
C1771 H1756 0.930 . S
C1771 C1766 1.390 . S
C1771 C1770 1.387 . S
H1772 C1784 0.927 1_565 S
H1773 C1786 0.930 . S
H1774 C1787 0.930 . S
H1775 C1791 0.959 . S
H1776 C1791 0.959 . S
H1777 C1791 0.961 . S
H1778 C1792 0.960 . S
H1779 C1792 0.961 . S
H1780 C1792 0.959 . S
H1781 C1795 0.929 . S
H1782 C1796 0.931 . S
H1783 C1798 0.930 . S
C1784 H1772 0.927 1_545 S
C1784 C1785 1.399 . S
C1784 C1789 1.399 . S
C1785 C1784 1.399 . S
C1785 C1786 1.376 . S
C1786 H1773 0.930 . S
C1786 C1785 1.376 . S
C1786 C1787 1.388 . S
C1787 H1774 0.930 . S
C1787 C1786 1.388 . S
C1787 C1788 1.390 . S
C1788 C1787 1.390 . S
C1788 C1789 1.394 . S
C1788 C1794 1.465 . S
C1789 C1784 1.399 . S
C1789 C1788 1.394 . S
C1789 C1790 1.516 . S
C1790 C1789 1.516 . S
C1790 C1791 1.502 . S
C1790 C1792 1.561 . S
C1790 C1793 1.526 . S
C1791 H1775 0.959 . S
C1791 H1776 0.959 . S
C1791 H1777 0.961 . S
C1791 C1790 1.502 . S
C1792 H1778 0.960 . S
C1792 H1779 0.961 . S
C1792 H1780 0.959 . S
C1792 C1790 1.561 . S
C1793 C1790 1.526 . S
C1793 C1794 1.396 . S
C1793 C1798 1.390 . S
C1794 C1788 1.465 . S
C1794 C1793 1.396 . S
C1794 C1795 1.399 . S
C1795 H1781 0.929 . S
C1795 C1794 1.399 . S
C1795 C1796 1.385 . S
C1796 H1782 0.931 . S
C1796 C1795 1.385 . S
C1796 C1797 1.389 . S
C1797 C1796 1.389 . S
C1797 C1798 1.387 . S
C1798 H1783 0.930 . S
C1798 C1793 1.390 . S
C1798 C1797 1.387 . S
H1799 C1811 0.930 . S
H1800 C1813 0.930 . S
H1801 C1814 0.930 . S
H1802 C1818 0.959 . S
H1803 C1818 0.959 . S
H1804 C1818 0.961 . S
H1805 C1819 0.960 . S
H1806 C1819 0.961 . S
H1807 C1819 0.959 . S
H1808 C1822 0.929 . S
H1809 C1823 0.931 . S
H1810 C1825 0.930 . S
C1811 H1799 0.930 . S
C1811 C1812 1.399 . S
C1811 C1816 1.399 . S
C1812 C1811 1.399 . S
C1812 C1813 1.376 . S
C1813 H1800 0.930 . S
C1813 C1812 1.376 . S
C1813 C1814 1.388 . S
C1814 H1801 0.930 . S
C1814 C1813 1.388 . S
C1814 C1815 1.390 . S
C1815 C1814 1.390 . S
C1815 C1816 1.394 . S
C1815 C1821 1.465 . S
C1816 C1811 1.399 . S
C1816 C1815 1.394 . S
C1816 C1817 1.516 . S
C1817 C1816 1.516 . S
C1817 C1818 1.502 . S
C1817 C1819 1.561 . S
C1817 C1820 1.526 . S
C1818 H1802 0.959 . S
C1818 H1803 0.959 . S
C1818 H1804 0.961 . S
C1818 C1817 1.502 . S
C1819 H1805 0.960 . S
C1819 H1806 0.961 . S
C1819 H1807 0.959 . S
C1819 C1817 1.561 . S
C1820 C1817 1.526 . S
C1820 C1821 1.396 . S
C1820 C1825 1.390 . S
C1821 C1815 1.465 . S
C1821 C1820 1.396 . S
C1821 C1822 1.399 . S
C1822 H1808 0.929 . S
C1822 C1821 1.399 . S
C1822 C1823 1.385 . S
C1823 H1809 0.931 . S
C1823 C1822 1.385 . S
C1823 C1824 1.389 . S
C1824 C1823 1.389 . S
C1824 C1825 1.387 . S
C1825 H1810 0.930 . S
C1825 C1820 1.390 . S
C1825 C1824 1.387 . S
H1826 C1838 0.930 . S
H1827 C1840 0.930 . S
H1828 C1841 0.930 . S
H1829 C1845 0.959 . S
H1830 C1845 0.959 . S
H1831 C1845 0.961 . S
H1832 C1846 0.960 . S
H1833 C1846 0.961 . S
H1834 C1846 0.959 . S
H1835 C1849 0.929 . S
H1836 C1850 0.931 . S
H1837 C1852 0.930 . S
C1838 H1826 0.930 . S
C1838 C1839 1.399 . S
C1838 C1843 1.399 . S
C1839 C1838 1.399 . S
C1839 C1840 1.376 . S
C1840 H1827 0.930 . S
C1840 C1839 1.376 . S
C1840 C1841 1.388 . S
C1841 H1828 0.930 . S
C1841 C1840 1.388 . S
C1841 C1842 1.390 . S
C1842 C1841 1.390 . S
C1842 C1843 1.394 . S
C1842 C1848 1.465 . S
C1843 C1838 1.399 . S
C1843 C1842 1.394 . S
C1843 C1844 1.516 . S
C1844 C1843 1.516 . S
C1844 C1845 1.502 . S
C1844 C1846 1.561 . S
C1844 C1847 1.526 . S
C1845 H1829 0.959 . S
C1845 H1830 0.959 . S
C1845 H1831 0.961 . S
C1845 C1844 1.502 . S
C1846 H1832 0.960 . S
C1846 H1833 0.961 . S
C1846 H1834 0.959 . S
C1846 C1844 1.561 . S
C1847 C1844 1.526 . S
C1847 C1848 1.396 . S
C1847 C1852 1.390 . S
C1848 C1842 1.465 . S
C1848 C1847 1.396 . S
C1848 C1849 1.399 . S
C1849 H1835 0.929 . S
C1849 C1848 1.399 . S
C1849 C1850 1.385 . S
C1850 H1836 0.931 . S
C1850 C1849 1.385 . S
C1850 C1851 1.389 . S
C1851 C1850 1.389 . S
C1851 C1852 1.387 . S
C1852 H1837 0.930 . S
C1852 C1847 1.390 . S
C1852 C1851 1.387 . S
H1853 C1865 0.930 . S
H1854 C1867 0.930 . S
H1855 C1868 0.930 . S
H1856 C1872 0.959 . S
H1857 C1872 0.959 . S
H1858 C1872 0.961 . S
H1859 C1873 0.960 . S
H1860 C1873 0.961 . S
H1861 C1873 0.959 . S
H1862 C1876 0.929 . S
H1863 C1877 0.931 . S
H1864 C1879 0.930 . S
C1865 H1853 0.930 . S
C1865 C1866 1.399 . S
C1865 C1870 1.399 . S
C1866 C1865 1.399 . S
C1866 C1867 1.376 . S
C1867 H1854 0.930 . S
C1867 C1866 1.376 . S
C1867 C1868 1.388 . S
C1868 H1855 0.930 . S
C1868 C1867 1.388 . S
C1868 C1869 1.390 . S
C1869 C1868 1.390 . S
C1869 C1870 1.394 . S
C1869 C1875 1.465 . S
C1870 C1865 1.399 . S
C1870 C1869 1.394 . S
C1870 C1871 1.516 . S
C1871 C1870 1.516 . S
C1871 C1872 1.502 . S
C1871 C1873 1.561 . S
C1871 C1874 1.526 . S
C1872 H1856 0.959 . S
C1872 H1857 0.959 . S
C1872 H1858 0.961 . S
C1872 C1871 1.502 . S
C1873 H1859 0.960 . S
C1873 H1860 0.961 . S
C1873 H1861 0.959 . S
C1873 C1871 1.561 . S
C1874 C1871 1.526 . S
C1874 C1875 1.396 . S
C1874 C1879 1.390 . S
C1875 C1869 1.465 . S
C1875 C1874 1.396 . S
C1875 C1876 1.399 . S
C1876 H1862 0.929 . S
C1876 C1875 1.399 . S
C1876 C1877 1.385 . S
C1877 H1863 0.931 . S
C1877 C1876 1.385 . S
C1877 C1878 1.389 . S
C1878 C1877 1.389 . S
C1878 C1879 1.387 . S
C1879 H1864 0.930 . S
C1879 C1874 1.390 . S
C1879 C1878 1.387 . S
H1880 C1892 0.930 . S
H1881 C1894 0.930 . S
H1882 C1895 0.930 . S
H1883 C1899 0.959 . S
H1884 C1899 0.959 . S
H1885 C1899 0.961 . S
H1886 C1900 0.960 . S
H1887 C1900 0.961 . S
H1888 C1900 0.959 . S
H1889 C1903 0.929 . S
H1890 C1904 0.931 . S
H1891 C1906 0.930 . S
C1892 H1880 0.930 . S
C1892 C1893 1.399 . S
C1892 C1897 1.399 . S
C1893 C1892 1.399 . S
C1893 C1894 1.376 . S
C1894 H1881 0.930 . S
C1894 C1893 1.376 . S
C1894 C1895 1.388 . S
C1895 H1882 0.930 . S
C1895 C1894 1.388 . S
C1895 C1896 1.390 . S
C1896 C1895 1.390 . S
C1896 C1897 1.394 . S
C1896 C1902 1.465 . S
C1897 C1892 1.399 . S
C1897 C1896 1.394 . S
C1897 C1898 1.516 . S
C1898 C1897 1.516 . S
C1898 C1899 1.502 . S
C1898 C1900 1.561 . S
C1898 C1901 1.526 . S
C1899 H1883 0.959 . S
C1899 H1884 0.959 . S
C1899 H1885 0.961 . S
C1899 C1898 1.502 . S
C1900 H1886 0.960 . S
C1900 H1887 0.961 . S
C1900 H1888 0.959 . S
C1900 C1898 1.561 . S
C1901 C1898 1.526 . S
C1901 C1902 1.396 . S
C1901 C1906 1.390 . S
C1902 C1896 1.465 . S
C1902 C1901 1.396 . S
C1902 C1903 1.399 . S
C1903 H1889 0.929 . S
C1903 C1902 1.399 . S
C1903 C1904 1.385 . S
C1904 H1890 0.931 . S
C1904 C1903 1.385 . S
C1904 C1905 1.389 . S
C1905 C1904 1.389 . S
C1905 C1906 1.387 . S
C1906 H1891 0.930 . S
C1906 C1901 1.390 . S
C1906 C1905 1.387 . S
H1907 C1919 0.930 . S
H1908 C1921 0.930 . S
H1909 C1922 0.930 . S
H1910 C1926 0.959 1_545 S
H1911 C1926 0.959 . S
H1912 C1926 0.961 . S
H1913 C1927 0.960 . S
H1914 C1927 0.961 . S
H1915 C1927 0.959 . S
H1916 C1930 0.929 . S
H1917 C1931 0.931 . S
H1918 C1933 0.930 1_565 S
C1919 H1907 0.930 . S
C1919 C1920 1.399 . S
C1919 C1924 1.399 . S
C1920 C1919 1.399 . S
C1920 C1921 1.376 . S
C1921 H1908 0.930 . S
C1921 C1920 1.376 . S
C1921 C1922 1.388 . S
C1922 H1909 0.930 . S
C1922 C1921 1.388 . S
C1922 C1923 1.390 . S
C1923 C1922 1.390 . S
C1923 C1924 1.394 . S
C1923 C1929 1.465 . S
C1924 C1919 1.399 . S
C1924 C1923 1.394 . S
C1924 C1925 1.528 . S
C1925 C1924 1.528 . S
C1925 C1926 1.497 1_545 S
C1925 C1927 1.544 1_545 S
C1925 C1928 1.537 . S
C1926 H1910 0.959 1_565 S
C1926 H1911 0.959 . S
C1926 H1912 0.961 . S
C1926 C1925 1.497 1_565 S
C1927 H1913 0.960 . S
C1927 H1914 0.961 . S
C1927 H1915 0.959 . S
C1927 C1925 1.544 1_565 S
C1928 C1925 1.537 . S
C1928 C1929 1.396 . S
C1928 C1933 1.390 . S
C1929 C1923 1.465 . S
C1929 C1928 1.396 . S
C1929 C1930 1.399 . S
C1930 H1916 0.929 . S
C1930 C1929 1.399 . S
C1930 C1931 1.385 . S
C1931 H1917 0.931 . S
C1931 C1930 1.385 . S
C1931 C1932 1.389 . S
C1932 C1931 1.389 . S
C1932 C1933 1.387 . S
C1933 H1918 0.930 1_545 S
C1933 C1928 1.390 . S
C1933 C1932 1.387 . S
H1934 C1946 0.930 . S
H1935 C1948 0.930 . S
H1936 C1949 0.930 . S
H1937 C1953 0.959 . S
H1938 C1953 0.959 . S
H1939 C1953 0.961 . S
H1940 C1954 0.960 . S
H1941 C1954 0.961 . S
H1942 C1954 0.959 . S
H1943 C1957 0.929 . S
H1944 C1958 0.931 . S
H1945 C1960 0.930 . S
C1946 H1934 0.930 . S
C1946 C1947 1.399 . S
C1946 C1951 1.399 . S
C1947 C1946 1.399 . S
C1947 C1948 1.376 . S
C1948 H1935 0.930 . S
C1948 C1947 1.376 . S
C1948 C1949 1.388 . S
C1949 H1936 0.930 . S
C1949 C1948 1.388 . S
C1949 C1950 1.390 . S
C1950 C1949 1.390 . S
C1950 C1951 1.394 . S
C1950 C1956 1.465 . S
C1951 C1946 1.399 . S
C1951 C1950 1.394 . S
C1951 C1952 1.516 . S
C1952 C1951 1.516 . S
C1952 C1953 1.502 . S
C1952 C1954 1.561 . S
C1952 C1955 1.526 . S
C1953 H1937 0.959 . S
C1953 H1938 0.959 . S
C1953 H1939 0.961 . S
C1953 C1952 1.502 . S
C1954 H1940 0.960 . S
C1954 H1941 0.961 . S
C1954 H1942 0.959 . S
C1954 C1952 1.561 . S
C1955 C1952 1.526 . S
C1955 C1956 1.396 . S
C1955 C1960 1.390 . S
C1956 C1950 1.465 . S
C1956 C1955 1.396 . S
C1956 C1957 1.399 . S
C1957 H1943 0.929 . S
C1957 C1956 1.399 . S
C1957 C1958 1.385 . S
C1958 H1944 0.931 . S
C1958 C1957 1.385 . S
C1958 C1959 1.389 . S
C1959 C1958 1.389 . S
C1959 C1960 1.387 . S
C1960 H1945 0.930 . S
C1960 C1955 1.390 . S
C1960 C1959 1.387 . S
H1961 C1973 0.930 . S
H1962 C1975 0.930 . S
H1963 C1976 0.930 . S
H1964 C1980 0.959 . S
H1965 C1980 0.959 . S
H1966 C1980 0.961 . S
H1967 C1981 0.960 . S
H1968 C1981 0.961 . S
H1969 C1981 0.959 . S
H1970 C1984 0.929 . S
H1971 C1985 0.931 . S
H1972 C1987 0.930 . S
C1973 H1961 0.930 . S
C1973 C1974 1.399 . S
C1973 C1978 1.399 . S
C1974 C1973 1.399 . S
C1974 C1975 1.376 . S
C1975 H1962 0.930 . S
C1975 C1974 1.376 . S
C1975 C1976 1.388 . S
C1976 H1963 0.930 . S
C1976 C1975 1.388 . S
C1976 C1977 1.390 . S
C1977 C1976 1.390 . S
C1977 C1978 1.394 . S
C1977 C1983 1.465 . S
C1978 C1973 1.399 . S
C1978 C1977 1.394 . S
C1978 C1979 1.516 . S
C1979 C1978 1.516 . S
C1979 C1980 1.502 . S
C1979 C1981 1.561 . S
C1979 C1982 1.526 . S
C1980 H1964 0.959 . S
C1980 H1965 0.959 . S
C1980 H1966 0.961 . S
C1980 C1979 1.502 . S
C1981 H1967 0.960 . S
C1981 H1968 0.961 . S
C1981 H1969 0.959 . S
C1981 C1979 1.561 . S
C1982 C1979 1.526 . S
C1982 C1983 1.396 . S
C1982 C1987 1.390 . S
C1983 C1977 1.465 . S
C1983 C1982 1.396 . S
C1983 C1984 1.399 . S
C1984 H1970 0.929 . S
C1984 C1983 1.399 . S
C1984 C1985 1.385 . S
C1985 H1971 0.931 . S
C1985 C1984 1.385 . S
C1985 C1986 1.389 . S
C1986 C1985 1.389 . S
C1986 C1987 1.387 . S
C1987 H1972 0.930 . S
C1987 C1982 1.390 . S
C1987 C1986 1.387 . S
H1988 C2000 0.930 . S
H1989 C2002 0.930 . S
H1990 C2003 0.930 . S
H1991 C2007 0.959 . S
H1992 C2007 0.959 . S
H1993 C2007 0.961 . S
H1994 C2008 0.960 . S
H1995 C2008 0.961 . S
H1996 C2008 0.959 . S
H1997 C2011 0.929 . S
H1998 C2012 0.931 . S
H1999 C2014 0.930 . S
C2000 H1988 0.930 . S
C2000 C2001 1.399 . S
C2000 C2005 1.399 . S
C2001 C2000 1.399 . S
C2001 C2002 1.376 . S
C2002 H1989 0.930 . S
C2002 C2001 1.376 . S
C2002 C2003 1.388 . S
C2003 H1990 0.930 . S
C2003 C2002 1.388 . S
C2003 C2004 1.390 . S
C2004 C2003 1.390 . S
C2004 C2005 1.394 . S
C2004 C2010 1.465 . S
C2005 C2000 1.399 . S
C2005 C2004 1.394 . S
C2005 C2006 1.516 . S
C2006 C2005 1.516 . S
C2006 C2007 1.502 . S
C2006 C2008 1.561 . S
C2006 C2009 1.526 . S
C2007 H1991 0.959 . S
C2007 H1992 0.959 . S
C2007 H1993 0.961 . S
C2007 C2006 1.502 . S
C2008 H1994 0.960 . S
C2008 H1995 0.961 . S
C2008 H1996 0.959 . S
C2008 C2006 1.561 . S
C2009 C2006 1.526 . S
C2009 C2010 1.396 . S
C2009 C2014 1.390 . S
C2010 C2004 1.465 . S
C2010 C2009 1.396 . S
C2010 C2011 1.399 . S
C2011 H1997 0.929 . S
C2011 C2010 1.399 . S
C2011 C2012 1.385 . S
C2012 H1998 0.931 . S
C2012 C2011 1.385 . S
C2012 C2013 1.389 . S
C2013 C2012 1.389 . S
C2013 C2014 1.387 . S
C2014 H1999 0.930 . S
C2014 C2009 1.390 . S
C2014 C2013 1.387 . S
H2015 C2027 0.930 . S
H2016 C2029 0.930 . S
H2017 C2030 0.930 1_655 S
H2018 C2034 0.959 1_565 S
H2019 C2034 0.959 . S
H2020 C2034 0.961 . S
H2021 C2035 0.960 . S
H2022 C2035 0.961 . S
H2023 C2035 0.959 . S
H2024 C2038 0.929 . S
H2025 C2039 0.931 . S
H2026 C2041 0.930 . S
C2027 H2015 0.930 . S
C2027 C2028 1.399 . S
C2027 C2032 1.399 . S
C2028 C2027 1.399 . S
C2028 C2029 1.376 . S
C2029 H2016 0.930 . S
C2029 C2028 1.376 . S
C2029 C2030 1.388 . S
C2030 H2017 0.930 1_455 S
C2030 C2029 1.388 . S
C2030 C2031 1.390 . S
C2031 C2030 1.390 . S
C2031 C2032 1.394 . S
C2031 C2037 1.465 1_455 S
C2032 C2027 1.399 . S
C2032 C2031 1.394 . S
C2032 C2033 1.516 . S
C2033 C2032 1.516 . S
C2033 C2034 1.502 . S
C2033 C2035 1.561 . S
C2033 C2036 1.526 . S
C2034 H2018 0.959 1_545 S
C2034 H2019 0.959 . S
C2034 H2020 0.961 . S
C2034 C2033 1.502 . S
C2035 H2021 0.960 . S
C2035 H2022 0.961 . S
C2035 H2023 0.959 . S
C2035 C2033 1.561 . S
C2036 C2033 1.526 . S
C2036 C2037 1.396 1_455 S
C2036 C2041 1.390 . S
C2037 C2031 1.465 1_655 S
C2037 C2036 1.396 1_655 S
C2037 C2038 1.399 . S
C2038 H2024 0.929 . S
C2038 C2037 1.399 . S
C2038 C2039 1.385 . S
C2039 H2025 0.931 . S
C2039 C2038 1.385 . S
C2039 C2040 1.389 . S
C2040 C2039 1.389 . S
C2040 C2041 1.387 1_655 S
C2041 H2026 0.930 . S
C2041 C2036 1.390 . S
C2041 C2040 1.387 1_455 S
H2042 C2054 0.930 . S
H2043 C2056 0.930 . S
H2044 C2057 0.930 . S
H2045 C2061 0.959 . S
H2046 C2061 0.959 . S
H2047 C2061 0.961 . S
H2048 C2062 0.960 . S
H2049 C2062 0.961 . S
H2050 C2062 0.959 . S
H2051 C2065 0.929 . S
H2052 C2066 0.931 . S
H2053 C2068 0.930 . S
C2054 H2042 0.930 . S
C2054 C2055 1.399 . S
C2054 C2059 1.399 . S
C2055 C2054 1.399 . S
C2055 C2056 1.376 . S
C2056 H2043 0.930 . S
C2056 C2055 1.376 . S
C2056 C2057 1.388 . S
C2057 H2044 0.930 . S
C2057 C2056 1.388 . S
C2057 C2058 1.390 . S
C2058 C2057 1.390 . S
C2058 C2059 1.394 . S
C2058 C2064 1.465 . S
C2059 C2054 1.399 . S
C2059 C2058 1.394 . S
C2059 C2060 1.516 . S
C2060 C2059 1.516 . S
C2060 C2061 1.502 . S
C2060 C2062 1.561 . S
C2060 C2063 1.526 . S
C2061 H2045 0.959 . S
C2061 H2046 0.959 . S
C2061 H2047 0.961 . S
C2061 C2060 1.502 . S
C2062 H2048 0.960 . S
C2062 H2049 0.961 . S
C2062 H2050 0.959 . S
C2062 C2060 1.561 . S
C2063 C2060 1.526 . S
C2063 C2064 1.396 . S
C2063 C2068 1.390 . S
C2064 C2058 1.465 . S
C2064 C2063 1.396 . S
C2064 C2065 1.399 . S
C2065 H2051 0.929 . S
C2065 C2064 1.399 . S
C2065 C2066 1.385 . S
C2066 H2052 0.931 . S
C2066 C2065 1.385 . S
C2066 C2067 1.389 . S
C2067 C2066 1.389 . S
C2067 C2068 1.387 . S
C2068 H2053 0.930 . S
C2068 C2063 1.390 . S
C2068 C2067 1.387 . S
H2069 C2081 0.930 . S
H2070 C2083 0.930 . S
H2071 C2084 0.930 . S
H2072 C2088 0.959 . S
H2073 C2088 0.959 . S
H2074 C2088 0.961 . S
H2075 C2089 0.960 . S
H2076 C2089 0.961 . S
H2077 C2089 0.959 . S
H2078 C2092 0.929 . S
H2079 C2093 0.931 . S
H2080 C2095 0.930 . S
C2081 H2069 0.930 . S
C2081 C2082 1.399 . S
C2081 C2086 1.399 . S
C2082 C2081 1.399 . S
C2082 C2083 1.376 . S
C2083 H2070 0.930 . S
C2083 C2082 1.376 . S
C2083 C2084 1.388 . S
C2084 H2071 0.930 . S
C2084 C2083 1.388 . S
C2084 C2085 1.390 . S
C2085 C2084 1.390 . S
C2085 C2086 1.394 . S
C2085 C2091 1.465 . S
C2086 C2081 1.399 . S
C2086 C2085 1.394 . S
C2086 C2087 1.516 . S
C2087 C2086 1.516 . S
C2087 C2088 1.502 . S
C2087 C2089 1.561 . S
C2087 C2090 1.526 . S
C2088 H2072 0.959 . S
C2088 H2073 0.959 . S
C2088 H2074 0.961 . S
C2088 C2087 1.502 . S
C2089 H2075 0.960 . S
C2089 H2076 0.961 . S
C2089 H2077 0.959 . S
C2089 C2087 1.561 . S
C2090 C2087 1.526 . S
C2090 C2091 1.396 . S
C2090 C2095 1.390 . S
C2091 C2085 1.465 . S
C2091 C2090 1.396 . S
C2091 C2092 1.399 . S
C2092 H2078 0.929 . S
C2092 C2091 1.399 . S
C2092 C2093 1.385 . S
C2093 H2079 0.931 . S
C2093 C2092 1.385 . S
C2093 C2094 1.389 . S
C2094 C2093 1.389 . S
C2094 C2095 1.387 . S
C2095 H2080 0.930 . S
C2095 C2090 1.390 . S
C2095 C2094 1.387 . S
H2096 C2108 0.930 . S
H2097 C2110 0.930 . S
H2098 C2111 0.930 . S
H2099 C2115 0.959 . S
H2100 C2115 0.959 . S
H2101 C2115 0.961 . S
H2102 C2116 0.960 . S
H2103 C2116 0.961 . S
H2104 C2116 0.959 . S
H2105 C2119 0.929 . S
H2106 C2120 0.931 . S
H2107 C2122 0.930 . S
C2108 H2096 0.930 . S
C2108 C2109 1.399 . S
C2108 C2113 1.399 . S
C2109 C2108 1.399 . S
C2109 C2110 1.376 . S
C2110 H2097 0.930 . S
C2110 C2109 1.376 . S
C2110 C2111 1.388 . S
C2111 H2098 0.930 . S
C2111 C2110 1.388 . S
C2111 C2112 1.390 . S
C2112 C2111 1.390 . S
C2112 C2113 1.394 . S
C2112 C2118 1.465 . S
C2113 C2108 1.399 . S
C2113 C2112 1.394 . S
C2113 C2114 1.516 . S
C2114 C2113 1.516 . S
C2114 C2115 1.502 . S
C2114 C2116 1.561 . S
C2114 C2117 1.526 . S
C2115 H2099 0.959 . S
C2115 H2100 0.959 . S
C2115 H2101 0.961 . S
C2115 C2114 1.502 . S
C2116 H2102 0.960 . S
C2116 H2103 0.961 . S
C2116 H2104 0.959 . S
C2116 C2114 1.561 . S
C2117 C2114 1.526 . S
C2117 C2118 1.396 . S
C2117 C2122 1.390 . S
C2118 C2112 1.465 . S
C2118 C2117 1.396 . S
C2118 C2119 1.399 . S
C2119 H2105 0.929 . S
C2119 C2118 1.399 . S
C2119 C2120 1.385 . S
C2120 H2106 0.931 . S
C2120 C2119 1.385 . S
C2120 C2121 1.389 . S
C2121 C2120 1.389 . S
C2121 C2122 1.387 . S
C2122 H2107 0.930 . S
C2122 C2117 1.390 . S
C2122 C2121 1.387 . S
H2123 C2135 0.930 . S
H2124 C2137 0.930 . S
H2125 C2138 0.930 . S
H2126 C2142 0.959 . S
H2127 C2142 0.959 . S
H2128 C2142 0.961 . S
H2129 C2143 0.960 . S
H2130 C2143 0.961 . S
H2131 C2143 0.959 . S
H2132 C2146 0.929 . S
H2133 C2147 0.931 . S
H2134 C2149 0.930 . S
C2135 H2123 0.930 . S
C2135 C2136 1.399 1_455 S
C2135 C2140 1.401 . S
C2136 C2135 1.399 1_655 S
C2136 C2137 1.376 1_554 S
C2137 H2124 0.930 . S
C2137 C2136 1.376 1_556 S
C2137 C2138 1.388 . S
C2138 H2125 0.930 . S
C2138 C2137 1.388 . S
C2138 C2139 1.390 . S
C2139 C2138 1.390 . S
C2139 C2140 1.389 1_656 S
C2139 C2145 1.465 . S
C2140 C2135 1.401 . S
C2140 C2139 1.389 1_454 S
C2140 C2141 1.518 . S
C2141 C2140 1.518 . S
C2141 C2142 1.502 . S
C2141 C2143 1.561 1_455 S
C2141 C2144 1.526 1_554 S
C2142 H2126 0.959 . S
C2142 H2127 0.959 . S
C2142 H2128 0.961 . S
C2142 C2141 1.502 . S
C2143 H2129 0.960 . S
C2143 H2130 0.961 . S
C2143 H2131 0.959 . S
C2143 C2141 1.561 1_655 S
C2144 C2141 1.526 1_556 S
C2144 C2145 1.396 1_455 S
C2144 C2149 1.390 . S
C2145 C2139 1.465 . S
C2145 C2144 1.396 1_655 S
C2145 C2146 1.399 . S
C2146 H2132 0.929 . S
C2146 C2145 1.399 . S
C2146 C2147 1.385 . S
C2147 H2133 0.931 . S
C2147 C2146 1.385 . S
C2147 C2148 1.389 1_655 S
C2148 C2147 1.389 1_455 S
C2148 C2149 1.387 . S
C2149 H2134 0.930 . S
C2149 C2144 1.390 . S
C2149 C2148 1.387 . S
H2150 C2162 0.930 . S
H2151 C2164 0.930 . S
H2152 C2165 0.930 . S
H2153 C2169 0.959 . S
H2154 C2169 0.959 . S
H2155 C2169 0.961 . S
H2156 C2170 0.960 . S
H2157 C2170 0.961 . S
H2158 C2170 0.959 . S
H2159 C2173 0.929 . S
H2160 C2174 0.931 . S
H2161 C2176 0.930 . S
C2162 H2150 0.930 . S
C2162 C2163 1.399 . S
C2162 C2167 1.399 . S
C2163 C2162 1.399 . S
C2163 C2164 1.376 . S
C2164 H2151 0.930 . S
C2164 C2163 1.376 . S
C2164 C2165 1.388 . S
C2165 H2152 0.930 . S
C2165 C2164 1.388 . S
C2165 C2166 1.390 . S
C2166 C2165 1.390 . S
C2166 C2167 1.394 . S
C2166 C2172 1.465 . S
C2167 C2162 1.399 . S
C2167 C2166 1.394 . S
C2167 C2168 1.516 . S
C2168 C2167 1.516 . S
C2168 C2169 1.502 . S
C2168 C2170 1.561 . S
C2168 C2171 1.526 . S
C2169 H2153 0.959 . S
C2169 H2154 0.959 . S
C2169 H2155 0.961 . S
C2169 C2168 1.502 . S
C2170 H2156 0.960 . S
C2170 H2157 0.961 . S
C2170 H2158 0.959 . S
C2170 C2168 1.561 . S
C2171 C2168 1.526 . S
C2171 C2172 1.396 . S
C2171 C2176 1.390 . S
C2172 C2166 1.465 . S
C2172 C2171 1.396 . S
C2172 C2173 1.399 . S
C2173 H2159 0.929 . S
C2173 C2172 1.399 . S
C2173 C2174 1.385 . S
C2174 H2160 0.931 . S
C2174 C2173 1.385 . S
C2174 C2175 1.389 . S
C2175 C2174 1.389 . S
C2175 C2176 1.387 . S
C2176 H2161 0.930 . S
C2176 C2171 1.390 . S
C2176 C2175 1.387 . S
H2177 C2189 0.930 . S
H2178 C2191 0.930 . S
H2179 C2192 0.930 . S
H2180 C2196 0.959 . S
H2181 C2196 0.959 . S
H2182 C2196 0.961 . S
H2183 C2197 0.960 . S
H2184 C2197 0.961 . S
H2185 C2197 0.959 . S
H2186 C2200 0.901 1_554 S
H2187 C2201 0.931 . S
H2188 C2203 0.930 . S
C2189 H2177 0.930 . S
C2189 C2190 1.399 1_556 S
C2189 C2194 1.399 . S
C2190 C2189 1.399 1_554 S
C2190 C2191 1.376 . S
C2191 H2178 0.930 . S
C2191 C2190 1.376 . S
C2191 C2192 1.388 . S
C2192 H2179 0.930 . S
C2192 C2191 1.388 . S
C2192 C2193 1.390 1_554 S
C2193 C2192 1.390 1_556 S
C2193 C2194 1.394 . S
C2193 C2199 1.465 . S
C2194 C2189 1.399 . S
C2194 C2193 1.394 . S
C2194 C2195 1.516 . S
C2195 C2194 1.516 . S
C2195 C2196 1.502 . S
C2195 C2197 1.561 . S
C2195 C2198 1.526 . S
C2196 H2180 0.959 . S
C2196 H2181 0.959 . S
C2196 H2182 0.961 . S
C2196 C2195 1.502 . S
C2197 H2183 0.960 . S
C2197 H2184 0.961 . S
C2197 H2185 0.959 . S
C2197 C2195 1.561 . S
C2198 C2195 1.526 . S
C2198 C2199 1.396 . S
C2198 C2203 1.390 . S
C2199 C2193 1.465 . S
C2199 C2198 1.396 . S
C2199 C2200 1.399 . S
C2200 H2186 0.901 1_556 S
C2200 C2199 1.399 . S
C2200 C2201 1.385 . S
C2201 H2187 0.931 . S
C2201 C2200 1.385 . S
C2201 C2202 1.389 . S
C2202 C2201 1.389 . S
C2202 C2203 1.387 . S
C2203 H2188 0.930 . S
C2203 C2198 1.390 . S
C2203 C2202 1.387 . S
H2204 C2216 0.930 . S
H2205 C2218 0.930 . S
H2206 C2219 0.930 . S
H2207 C2223 0.959 . S
H2208 C2223 0.959 . S
H2209 C2223 0.961 . S
H2210 C2224 0.960 . S
H2211 C2224 0.961 . S
H2212 C2224 0.959 . S
H2213 C2227 0.929 . S
H2214 C2228 0.931 . S
H2215 C2230 0.930 . S
C2216 H2204 0.930 . S
C2216 C2217 1.399 . S
C2216 C2221 1.399 . S
C2217 C2216 1.399 . S
C2217 C2218 1.376 . S
C2218 H2205 0.930 . S
C2218 C2217 1.376 . S
C2218 C2219 1.388 . S
C2219 H2206 0.930 . S
C2219 C2218 1.388 . S
C2219 C2220 1.390 . S
C2220 C2219 1.390 . S
C2220 C2221 1.394 . S
C2220 C2226 1.465 . S
C2221 C2216 1.399 . S
C2221 C2220 1.394 . S
C2221 C2222 1.516 . S
C2222 C2221 1.516 . S
C2222 C2223 1.502 . S
C2222 C2224 1.561 . S
C2222 C2225 1.526 . S
C2223 H2207 0.959 . S
C2223 H2208 0.959 . S
C2223 H2209 0.961 . S
C2223 C2222 1.502 . S
C2224 H2210 0.960 . S
C2224 H2211 0.961 . S
C2224 H2212 0.959 . S
C2224 C2222 1.561 . S
C2225 C2222 1.526 . S
C2225 C2226 1.396 . S
C2225 C2230 1.390 . S
C2226 C2220 1.465 . S
C2226 C2225 1.396 . S
C2226 C2227 1.399 . S
C2227 H2213 0.929 . S
C2227 C2226 1.399 . S
C2227 C2228 1.385 . S
C2228 H2214 0.931 . S
C2228 C2227 1.385 . S
C2228 C2229 1.389 . S
C2229 C2228 1.389 . S
C2229 C2230 1.387 . S
C2230 H2215 0.930 . S
C2230 C2225 1.390 . S
C2230 C2229 1.387 . S
H2231 C2243 0.930 . S
H2232 C2245 0.930 . S
H2233 C2246 0.930 . S
H2234 C2250 0.959 . S
H2235 C2250 0.959 . S
H2236 C2250 0.961 . S
H2237 C2251 0.960 . S
H2238 C2251 0.961 . S
H2239 C2251 0.959 . S
H2240 C2254 0.929 . S
H2241 C2255 0.931 . S
H2242 C2257 0.930 . S
C2243 H2231 0.930 . S
C2243 C2244 1.399 . S
C2243 C2248 1.399 . S
C2244 C2243 1.399 . S
C2244 C2245 1.376 . S
C2245 H2232 0.930 . S
C2245 C2244 1.376 . S
C2245 C2246 1.388 . S
C2246 H2233 0.930 . S
C2246 C2245 1.388 . S
C2246 C2247 1.390 . S
C2247 C2246 1.390 . S
C2247 C2248 1.394 . S
C2247 C2253 1.465 . S
C2248 C2243 1.399 . S
C2248 C2247 1.394 . S
C2248 C2249 1.516 . S
C2249 C2248 1.516 . S
C2249 C2250 1.502 . S
C2249 C2251 1.561 . S
C2249 C2252 1.526 . S
C2250 H2234 0.959 . S
C2250 H2235 0.959 . S
C2250 H2236 0.961 . S
C2250 C2249 1.502 . S
C2251 H2237 0.960 . S
C2251 H2238 0.961 . S
C2251 H2239 0.959 . S
C2251 C2249 1.561 . S
C2252 C2249 1.526 . S
C2252 C2253 1.396 . S
C2252 C2257 1.390 . S
C2253 C2247 1.465 . S
C2253 C2252 1.396 . S
C2253 C2254 1.399 . S
C2254 H2240 0.929 . S
C2254 C2253 1.399 . S
C2254 C2255 1.385 . S
C2255 H2241 0.931 . S
C2255 C2254 1.385 . S
C2255 C2256 1.389 . S
C2256 C2255 1.389 . S
C2256 C2257 1.387 . S
C2257 H2242 0.930 . S
C2257 C2252 1.390 . S
C2257 C2256 1.387 . S
H2258 C2270 0.930 . S
H2259 C2272 0.930 . S
H2260 C2273 0.930 . S
H2261 C2277 0.959 . S
H2262 C2277 0.959 . S
H2263 C2277 0.961 . S
H2264 C2278 0.960 . S
H2265 C2278 0.961 . S
H2266 C2278 0.959 . S
H2267 C2281 0.929 . S
H2268 C2282 0.931 . S
H2269 C2284 0.930 . S
C2270 H2258 0.930 . S
C2270 C2271 1.399 . S
C2270 C2275 1.399 . S
C2271 C2270 1.399 . S
C2271 C2272 1.376 . S
C2272 H2259 0.930 . S
C2272 C2271 1.376 . S
C2272 C2273 1.388 . S
C2273 H2260 0.930 . S
C2273 C2272 1.388 . S
C2273 C2274 1.390 . S
C2274 C2273 1.390 . S
C2274 C2275 1.394 . S
C2274 C2280 1.465 . S
C2275 C2270 1.399 . S
C2275 C2274 1.394 . S
C2275 C2276 1.516 . S
C2276 C2275 1.516 . S
C2276 C2277 1.502 . S
C2276 C2278 1.561 . S
C2276 C2279 1.526 . S
C2277 H2261 0.959 . S
C2277 H2262 0.959 . S
C2277 H2263 0.961 . S
C2277 C2276 1.502 . S
C2278 H2264 0.960 . S
C2278 H2265 0.961 . S
C2278 H2266 0.959 . S
C2278 C2276 1.561 . S
C2279 C2276 1.526 . S
C2279 C2280 1.396 . S
C2279 C2284 1.390 . S
C2280 C2274 1.465 . S
C2280 C2279 1.396 . S
C2280 C2281 1.399 . S
C2281 H2267 0.929 . S
C2281 C2280 1.399 . S
C2281 C2282 1.385 . S
C2282 H2268 0.931 . S
C2282 C2281 1.385 . S
C2282 C2283 1.389 . S
C2283 C2282 1.389 . S
C2283 C2284 1.387 . S
C2284 H2269 0.930 . S
C2284 C2279 1.390 . S
C2284 C2283 1.387 . S
H2285 C2297 0.930 . S
H2286 C2299 0.930 . S
H2287 C2300 0.930 . S
H2288 C2304 0.959 . S
H2289 C2304 0.959 . S
H2290 C2304 0.961 . S
H2291 C2305 0.960 . S
H2292 C2305 0.961 . S
H2293 C2305 0.959 . S
H2294 C2308 0.929 . S
H2295 C2309 0.931 . S
H2296 C2311 0.930 . S
C2297 H2285 0.930 . S
C2297 C2298 1.400 1_554 S
C2297 C2302 1.399 . S
C2298 C2297 1.400 1_556 S
C2298 C2299 1.376 . S
C2299 H2286 0.930 . S
C2299 C2298 1.376 . S
C2299 C2300 1.388 1_556 S
C2300 H2287 0.930 . S
C2300 C2299 1.388 1_554 S
C2300 C2301 1.390 . S
C2301 C2300 1.390 . S
C2301 C2302 1.394 . S
C2301 C2307 1.465 . S
C2302 C2297 1.399 . S
C2302 C2301 1.394 . S
C2302 C2303 1.516 . S
C2303 C2302 1.516 . S
C2303 C2304 1.502 . S
C2303 C2305 1.561 . S
C2303 C2306 1.526 . S
C2304 H2288 0.959 . S
C2304 H2289 0.959 . S
C2304 H2290 0.961 . S
C2304 C2303 1.502 . S
C2305 H2291 0.960 . S
C2305 H2292 0.961 . S
C2305 H2293 0.959 . S
C2305 C2303 1.561 . S
C2306 C2303 1.526 . S
C2306 C2307 1.396 . S
C2306 C2311 1.390 . S
C2307 C2301 1.465 . S
C2307 C2306 1.396 . S
C2307 C2308 1.399 . S
C2308 H2294 0.929 . S
C2308 C2307 1.399 . S
C2308 C2309 1.385 . S
C2309 H2295 0.931 . S
C2309 C2308 1.385 . S
C2309 C2310 1.389 . S
C2310 C2309 1.389 . S
C2310 C2311 1.387 . S
C2311 H2296 0.930 . S
C2311 C2306 1.390 . S
C2311 C2310 1.387 . S
H2312 C2324 0.930 . S
H2313 C2326 0.930 . S
H2314 C2327 0.930 . S
H2315 C2331 0.959 . S
H2316 C2331 0.959 . S
H2317 C2331 0.961 . S
H2318 C2332 0.960 . S
H2319 C2332 0.961 . S
H2320 C2332 0.959 . S
H2321 C2335 0.929 . S
H2322 C2336 0.931 . S
H2323 C2338 0.930 . S
C2324 H2312 0.930 . S
C2324 C2325 1.399 . S
C2324 C2329 1.399 . S
C2325 C2324 1.399 . S
C2325 C2326 1.376 . S
C2326 H2313 0.930 . S
C2326 C2325 1.376 . S
C2326 C2327 1.388 . S
C2327 H2314 0.930 . S
C2327 C2326 1.388 . S
C2327 C2328 1.390 . S
C2328 C2327 1.390 . S
C2328 C2329 1.394 . S
C2328 C2334 1.465 . S
C2329 C2324 1.399 . S
C2329 C2328 1.394 . S
C2329 C2330 1.516 . S
C2330 C2329 1.516 . S
C2330 C2331 1.502 . S
C2330 C2332 1.561 . S
C2330 C2333 1.526 . S
C2331 H2315 0.959 . S
C2331 H2316 0.959 . S
C2331 H2317 0.961 . S
C2331 C2330 1.502 . S
C2332 H2318 0.960 . S
C2332 H2319 0.961 . S
C2332 H2320 0.959 . S
C2332 C2330 1.561 . S
C2333 C2330 1.526 . S
C2333 C2334 1.396 . S
C2333 C2338 1.390 . S
C2334 C2328 1.465 . S
C2334 C2333 1.396 . S
C2334 C2335 1.399 . S
C2335 H2321 0.929 . S
C2335 C2334 1.399 . S
C2335 C2336 1.385 . S
C2336 H2322 0.931 . S
C2336 C2335 1.385 . S
C2336 C2337 1.389 . S
C2337 C2336 1.389 . S
C2337 C2338 1.387 . S
C2338 H2323 0.930 . S
C2338 C2333 1.390 . S
C2338 C2337 1.387 . S
H2339 C2351 0.930 . S
H2340 C2353 0.930 . S
H2341 C2354 0.930 . S
H2342 C2358 0.959 . S
H2343 C2358 0.959 . S
H2344 C2358 0.961 . S
H2345 C2359 0.960 . S
H2346 C2359 0.961 . S
H2347 C2359 0.959 . S
H2348 C2362 0.929 . S
H2349 C2363 0.931 . S
H2350 C2365 0.930 . S
C2351 H2339 0.930 . S
C2351 C2352 1.399 . S
C2351 C2356 1.399 . S
C2352 C2351 1.399 . S
C2352 C2353 1.376 . S
C2353 H2340 0.930 . S
C2353 C2352 1.376 . S
C2353 C2354 1.388 . S
C2354 H2341 0.930 . S
C2354 C2353 1.388 . S
C2354 C2355 1.390 . S
C2355 C2354 1.390 . S
C2355 C2356 1.394 . S
C2355 C2361 1.465 . S
C2356 C2351 1.399 . S
C2356 C2355 1.394 . S
C2356 C2357 1.516 . S
C2357 C2356 1.516 . S
C2357 C2358 1.502 . S
C2357 C2359 1.561 . S
C2357 C2360 1.526 . S
C2358 H2342 0.959 . S
C2358 H2343 0.959 . S
C2358 H2344 0.961 . S
C2358 C2357 1.502 . S
C2359 H2345 0.960 . S
C2359 H2346 0.961 . S
C2359 H2347 0.959 . S
C2359 C2357 1.561 . S
C2360 C2357 1.526 . S
C2360 C2361 1.396 . S
C2360 C2365 1.390 . S
C2361 C2355 1.465 . S
C2361 C2360 1.396 . S
C2361 C2362 1.399 . S
C2362 H2348 0.929 . S
C2362 C2361 1.399 . S
C2362 C2363 1.385 . S
C2363 H2349 0.931 . S
C2363 C2362 1.385 . S
C2363 C2364 1.389 . S
C2364 C2363 1.389 . S
C2364 C2365 1.387 . S
C2365 H2350 0.930 . S
C2365 C2360 1.390 . S
C2365 C2364 1.387 . S
H2366 C2378 0.930 . S
H2367 C2380 0.930 . S
H2368 C2381 0.930 . S
H2369 C2385 0.959 . S
H2370 C2385 0.959 . S
H2371 C2385 0.961 . S
H2372 C2386 0.960 . S
H2373 C2386 0.961 . S
H2374 C2386 0.959 . S
H2375 C2389 0.929 . S
H2376 C2390 0.931 . S
H2377 C2392 0.930 . S
C2378 H2366 0.930 . S
C2378 C2379 1.399 . S
C2378 C2383 1.399 . S
C2379 C2378 1.399 . S
C2379 C2380 1.376 . S
C2380 H2367 0.930 . S
C2380 C2379 1.376 . S
C2380 C2381 1.388 . S
C2381 H2368 0.930 . S
C2381 C2380 1.388 . S
C2381 C2382 1.390 . S
C2382 C2381 1.390 . S
C2382 C2383 1.394 . S
C2382 C2388 1.465 . S
C2383 C2378 1.399 . S
C2383 C2382 1.394 . S
C2383 C2384 1.516 . S
C2384 C2383 1.516 . S
C2384 C2385 1.502 . S
C2384 C2386 1.561 . S
C2384 C2387 1.526 . S
C2385 H2369 0.959 . S
C2385 H2370 0.959 . S
C2385 H2371 0.961 . S
C2385 C2384 1.502 . S
C2386 H2372 0.960 . S
C2386 H2373 0.961 . S
C2386 H2374 0.959 . S
C2386 C2384 1.561 . S
C2387 C2384 1.526 . S
C2387 C2388 1.396 . S
C2387 C2392 1.390 . S
C2388 C2382 1.465 . S
C2388 C2387 1.396 . S
C2388 C2389 1.399 . S
C2389 H2375 0.929 . S
C2389 C2388 1.399 . S
C2389 C2390 1.385 . S
C2390 H2376 0.931 . S
C2390 C2389 1.385 . S
C2390 C2391 1.389 . S
C2391 C2390 1.389 . S
C2391 C2392 1.387 . S
C2392 H2377 0.930 . S
C2392 C2387 1.390 . S
C2392 C2391 1.387 . S
H2393 C2405 0.930 . S
H2394 C2407 0.930 . S
H2395 C2408 0.930 . S
H2396 C2412 0.959 . S
H2397 C2412 0.959 . S
H2398 C2412 0.961 . S
H2399 C2413 0.960 . S
H2400 C2413 0.961 . S
H2401 C2413 0.959 . S
H2402 C2416 0.929 . S
H2403 C2417 0.931 . S
H2404 C2419 0.930 . S
C2405 H2393 0.930 . S
C2405 C2406 1.399 . S
C2405 C2410 1.399 . S
C2406 C2405 1.399 . S
C2406 C2407 1.376 . S
C2407 H2394 0.930 . S
C2407 C2406 1.376 . S
C2407 C2408 1.388 . S
C2408 H2395 0.930 . S
C2408 C2407 1.388 . S
C2408 C2409 1.390 . S
C2409 C2408 1.390 . S
C2409 C2410 1.394 . S
C2409 C2415 1.465 . S
C2410 C2405 1.399 . S
C2410 C2409 1.394 . S
C2410 C2411 1.516 . S
C2411 C2410 1.516 . S
C2411 C2412 1.502 . S
C2411 C2413 1.561 . S
C2411 C2414 1.526 . S
C2412 H2396 0.959 . S
C2412 H2397 0.959 . S
C2412 H2398 0.961 . S
C2412 C2411 1.502 . S
C2413 H2399 0.960 . S
C2413 H2400 0.961 . S
C2413 H2401 0.959 . S
C2413 C2411 1.561 . S
C2414 C2411 1.526 . S
C2414 C2415 1.396 . S
C2414 C2419 1.390 . S
C2415 C2409 1.465 . S
C2415 C2414 1.396 . S
C2415 C2416 1.399 . S
C2416 H2402 0.929 . S
C2416 C2415 1.399 . S
C2416 C2417 1.385 . S
C2417 H2403 0.931 . S
C2417 C2416 1.385 . S
C2417 C2418 1.389 . S
C2418 C2417 1.389 . S
C2418 C2419 1.387 . S
C2419 H2404 0.930 . S
C2419 C2414 1.390 . S
C2419 C2418 1.387 . S
H2420 C2432 0.930 . S
H2421 C2434 0.930 . S
H2422 C2435 0.930 . S
H2423 C2439 0.959 . S
H2424 C2439 0.959 . S
H2425 C2439 0.961 . S
H2426 C2440 0.960 . S
H2427 C2440 0.961 . S
H2428 C2440 0.959 1_554 S
H2429 C2443 0.929 . S
H2430 C2444 0.931 . S
H2431 C2446 0.930 . S
C2432 H2420 0.930 . S
C2432 C2433 1.389 1_556 S
C2432 C2437 1.399 . S
C2433 C2432 1.389 1_554 S
C2433 C2434 1.386 . S
C2434 H2421 0.930 . S
C2434 C2433 1.386 . S
C2434 C2435 1.388 . S
C2435 H2422 0.930 . S
C2435 C2434 1.388 . S
C2435 C2436 1.390 . S
C2436 C2435 1.390 . S
C2436 C2437 1.394 1_554 S
C2436 C2442 1.465 . S
C2437 C2432 1.399 . S
C2437 C2436 1.394 1_556 S
C2437 C2438 1.516 . S
C2438 C2437 1.516 . S
C2438 C2439 1.502 . S
C2438 C2440 1.561 . S
C2438 C2441 1.526 . S
C2439 H2423 0.959 . S
C2439 H2424 0.959 . S
C2439 H2425 0.961 . S
C2439 C2438 1.502 . S
C2440 H2426 0.960 . S
C2440 H2427 0.961 . S
C2440 H2428 0.959 1_556 S
C2440 C2438 1.561 . S
C2441 C2438 1.526 . S
C2441 C2442 1.396 1_556 S
C2441 C2446 1.390 . S
C2442 C2436 1.465 . S
C2442 C2441 1.396 1_554 S
C2442 C2443 1.399 . S
C2443 H2429 0.929 . S
C2443 C2442 1.399 . S
C2443 C2444 1.385 . S
C2444 H2430 0.931 . S
C2444 C2443 1.385 . S
C2444 C2445 1.389 1_554 S
C2445 C2444 1.389 1_556 S
C2445 C2446 1.387 . S
C2446 H2431 0.930 . S
C2446 C2441 1.390 . S
C2446 C2445 1.387 . S
H2447 C2459 0.930 . S
H2448 C2461 0.930 . S
H2449 C2462 0.930 . S
H2450 C2466 0.959 . S
H2451 C2466 0.959 . S
H2452 C2466 0.961 . S
H2453 C2467 0.960 . S
H2454 C2467 0.961 . S
H2455 C2467 0.959 . S
H2456 C2470 0.929 . S
H2457 C2471 0.931 . S
H2458 C2473 0.930 . S
C2459 H2447 0.930 . S
C2459 C2460 1.399 . S
C2459 C2464 1.399 . S
C2460 C2459 1.399 . S
C2460 C2461 1.376 . S
C2461 H2448 0.930 . S
C2461 C2460 1.376 . S
C2461 C2462 1.388 . S
C2462 H2449 0.930 . S
C2462 C2461 1.388 . S
C2462 C2463 1.390 . S
C2463 C2462 1.390 . S
C2463 C2464 1.394 . S
C2463 C2469 1.465 . S
C2464 C2459 1.399 . S
C2464 C2463 1.394 . S
C2464 C2465 1.516 . S
C2465 C2464 1.516 . S
C2465 C2466 1.502 . S
C2465 C2467 1.561 . S
C2465 C2468 1.526 . S
C2466 H2450 0.959 . S
C2466 H2451 0.959 . S
C2466 H2452 0.961 . S
C2466 C2465 1.502 . S
C2467 H2453 0.960 . S
C2467 H2454 0.961 . S
C2467 H2455 0.959 . S
C2467 C2465 1.561 . S
C2468 C2465 1.526 . S
C2468 C2469 1.396 . S
C2468 C2473 1.390 . S
C2469 C2463 1.465 . S
C2469 C2468 1.396 . S
C2469 C2470 1.399 . S
C2470 H2456 0.929 . S
C2470 C2469 1.399 . S
C2470 C2471 1.385 . S
C2471 H2457 0.931 . S
C2471 C2470 1.385 . S
C2471 C2472 1.389 . S
C2472 C2471 1.389 . S
C2472 C2473 1.387 . S
C2473 H2458 0.930 . S
C2473 C2468 1.390 . S
C2473 C2472 1.387 . S
H2474 C2486 0.930 1_556 S
H2475 C2488 0.930 . S
H2476 C2489 0.930 . S
H2477 C2493 0.959 . S
H2478 C2493 0.959 . S
H2479 C2493 0.961 . S
H2480 C2494 0.960 . S
H2481 C2494 0.961 . S
H2482 C2494 0.959 1_554 S
H2483 C2497 0.929 . S
H2484 C2498 0.931 . S
H2485 C2500 0.930 . S
C2486 H2474 0.930 1_554 S
C2486 C2487 1.399 . S
C2486 C2491 1.399 . S
C2487 C2486 1.399 . S
C2487 C2488 1.376 . S
C2488 H2475 0.930 . S
C2488 C2487 1.376 . S
C2488 C2489 1.388 . S
C2489 H2476 0.930 . S
C2489 C2488 1.388 . S
C2489 C2490 1.390 . S
C2490 C2489 1.390 . S
C2490 C2491 1.394 . S
C2490 C2496 1.465 . S
C2491 C2486 1.399 . S
C2491 C2490 1.394 . S
C2491 C2492 1.516 1_554 S
C2492 C2491 1.516 1_556 S
C2492 C2493 1.502 . S
C2492 C2494 1.561 . S
C2492 C2495 1.526 1_556 S
C2493 H2477 0.959 . S
C2493 H2478 0.959 . S
C2493 H2479 0.961 . S
C2493 C2492 1.502 . S
C2494 H2480 0.960 . S
C2494 H2481 0.961 . S
C2494 H2482 0.959 1_556 S
C2494 C2492 1.561 . S
C2495 C2492 1.526 1_554 S
C2495 C2496 1.396 . S
C2495 C2500 1.390 1_554 S
C2496 C2490 1.465 . S
C2496 C2495 1.396 . S
C2496 C2497 1.399 . S
C2497 H2483 0.929 . S
C2497 C2496 1.399 . S
C2497 C2498 1.385 . S
C2498 H2484 0.931 . S
C2498 C2497 1.385 . S
C2498 C2499 1.389 . S
C2499 C2498 1.389 . S
C2499 C2500 1.387 1_554 S
C2500 H2485 0.930 . S
C2500 C2495 1.390 1_556 S
C2500 C2499 1.387 1_556 S
H2501 C2513 0.930 1_565 S
H2502 C2515 0.930 . S
H2503 C2516 0.930 . S
H2504 C2520 0.959 . S
H2505 C2520 0.959 . S
H2506 C2520 0.961 . S
H2507 C2521 0.960 . S
H2508 C2521 0.961 . S
H2509 C2521 0.959 . S
H2510 C2524 0.929 . S
H2511 C2525 0.931 . S
H2512 C2527 0.930 . S
C2513 H2501 0.930 1_545 S
C2513 C2514 1.399 . S
C2513 C2518 1.399 1_545 S
C2514 C2513 1.399 . S
C2514 C2515 1.376 . S
C2515 H2502 0.930 . S
C2515 C2514 1.376 . S
C2515 C2516 1.388 . S
C2516 H2503 0.930 . S
C2516 C2515 1.388 . S
C2516 C2517 1.364 1_545 S
C2517 C2516 1.364 1_565 S
C2517 C2518 1.405 . S
C2517 C2523 1.484 . S
C2518 C2513 1.399 1_565 S
C2518 C2517 1.405 . S
C2518 C2519 1.516 . S
C2519 C2518 1.516 . S
C2519 C2520 1.502 . S
C2519 C2521 1.561 . S
C2519 C2522 1.526 . S
C2520 H2504 0.959 . S
C2520 H2505 0.959 . S
C2520 H2506 0.961 . S
C2520 C2519 1.502 . S
C2521 H2507 0.960 . S
C2521 H2508 0.961 . S
C2521 H2509 0.959 . S
C2521 C2519 1.561 . S
C2522 C2519 1.526 . S
C2522 C2523 1.396 . S
C2522 C2527 1.390 . S
C2523 C2517 1.484 . S
C2523 C2522 1.396 . S
C2523 C2524 1.399 . S
C2524 H2510 0.929 . S
C2524 C2523 1.399 . S
C2524 C2525 1.385 . S
C2525 H2511 0.931 . S
C2525 C2524 1.385 . S
C2525 C2526 1.389 . S
C2526 C2525 1.389 . S
C2526 C2527 1.387 . S
C2527 H2512 0.930 . S
C2527 C2522 1.390 . S
C2527 C2526 1.387 . S
C1257 C225 1.566 . S
C1245 C60 1.575 . S
C1284 C284 1.302 . S
C1272 C76 1.277 . S
C1299 C81 1.710 . S
C1311 C401 1.708 . S
C1338 C469 1.625 . S
C1326 C48 1.625 . S
C1365 C548 1.537 . S
C1353 C115 1.509 . S
C1392 C673 1.587 . S
C1380 C136 1.582 . S
C1407 C131 1.327 . S
C1419 C733 1.336 . S
C1446 C841 1.568 . S
C1434 C104 1.577 . S
C1461 C126 1.560 . S
C1473 C937 1.530 . S
C1500 C997 1.433 . S
C1488 C103 1.426 . S
C1515 C120 1.426 . S
C1527 C900 1.412 . S
C1554 C1017 1.407 . S
C1542 C142 1.411 . S
C1569 C82 1.480 . S
C1581 C1085 1.467 . S
C1596 C54 1.869 . S
C1608 C1076 1.866 . S
C1623 C65 1.403 . S
C1635 C1105 1.406 . S
C1650 C71 1.279 . S
C1662 C1113 1.262 . S
C1677 C37 1.597 . S
C1689 C497 1.588 . S
C1704 C158 2.032 . S
C1716 C460 2.040 . S
C1743 C196 1.394 . S
C1731 C169 1.371 . S
C1770 C293 1.210 . S
C1758 C98 1.243 . S
C1785 C49 1.766 1_545 S
C1797 C557 1.769 . S
C1824 C849 1.423 . S
C1812 C125 1.404 . S
C1851 C577 1.398 . S
C1839 C109 1.394 . S
C1878 C761 1.825 . S
C1866 C137 1.828 . S
C1905 C753 1.564 . S
C1893 C159 1.574 . S
C1920 C175 1.283 . S
C1932 C821 1.304 . S
C1947 C92 1.718 . S
C1959 C585 1.703 . S
C1986 C636 1.599 . S
C1974 C147 1.635 . S
C2001 C38 1.525 . S
C2013 C381 1.507 . S
C2040 C489 1.574 . S
C2028 C4 1.586 . S
C2067 C205 1.316 . S
C2055 C21 1.331 . S
C2094 C321 1.568 . S
C2082 C27 1.579 . S
C2109 C16 1.558 . S
C2121 C1025 1.532 . S
C2136 C26 1.432 . S
C2148 C909 1.411 . S
C2163 C43 1.425 . S
C2175 C988 1.409 . S
C2190 C10 1.411 . S
C2202 C929 1.407 . S
C2229 C1173 1.478 . S
C2217 C93 1.454 . S
C2256 C1164 1.867 . S
C2244 C153 1.856 . S
C2283 C1193 1.413 . S
C2271 C164 1.377 . S
C2298 C170 1.262 . S
C2310 C1201 1.268 . S
C2325 C114 1.595 . S
C2337 C665 1.601 . S
C2364 C645 2.022 . S
C2352 C59 2.041 . S
C2391 C724 1.385 . S
C2379 C70 1.379 . S
C2418 C812 1.210 . S
C2406 C87 1.243 . S
C2433 C148 1.777 1_554 S
C2445 C372 1.773 . S
C2472 C313 1.424 . S
C2460 C15 1.404 . S
C2487 C32 1.380 . S
C2499 C409 1.374 . S
C2526 C233 1.829 . S
C2514 C5 1.839 . S
