# Generated by pormake.
# Topology llj, (12,3)-cn, num edge types: 1
# Building blocks:
#     Node 0, Type 0, BuildingBlock: QEWDON_clean_sbu_0, # of connection points: 12
#     Node 1, Type 0, BuildingBlock: QEWDON_clean_sbu_0, # of connection points: 12
#     Node 2, Type 1, BuildingBlock: KAKCAD_clean_linker_0, # of connection points: 3
#     Node 3, Type 1, BuildingBlock: KAKCAD_clean_linker_0, # of connection points: 3
#     Node 4, Type 1, BuildingBlock: KAKCAD_clean_linker_0, # of connection points: 3
#     Node 5, Type 1, BuildingBlock: KAKCAD_clean_linker_0, # of connection points: 3
#     Node 6, Type 1, BuildingBlock: KAKCAD_clean_linker_0, # of connection points: 3
#     Node 7, Type 1, BuildingBlock: KAKCAD_clean_linker_0, # of connection points: 3
#     Node 8, Type 1, BuildingBlock: KAKCAD_clean_linker_0, # of connection points: 3
#     Node 9, Type 1, BuildingBlock: KAKCAD_clean_linker_0, # of connection points: 3
#     Edge 10, Type (0, 1), BuildingBlock: XUDNAN_clean_linker_2, # of connection points: 2
#     Edge 11, Type (0, 1), BuildingBlock: XUDNAN_clean_linker_2, # of connection points: 2
#     Edge 12, Type (0, 1), BuildingBlock: XUDNAN_clean_linker_2, # of connection points: 2
#     Edge 13, Type (0, 1), BuildingBlock: XUDNAN_clean_linker_2, # of connection points: 2
#     Edge 14, Type (0, 1), BuildingBlock: XUDNAN_clean_linker_2, # of connection points: 2
#     Edge 15, Type (0, 1), BuildingBlock: XUDNAN_clean_linker_2, # of connection points: 2
#     Edge 16, Type (0, 1), BuildingBlock: XUDNAN_clean_linker_2, # of connection points: 2
#     Edge 17, Type (0, 1), BuildingBlock: XUDNAN_clean_linker_2, # of connection points: 2
#     Edge 18, Type (0, 1), BuildingBlock: XUDNAN_clean_linker_2, # of connection points: 2
#     Edge 19, Type (0, 1), BuildingBlock: XUDNAN_clean_linker_2, # of connection points: 2
#     Edge 20, Type (0, 1), BuildingBlock: XUDNAN_clean_linker_2, # of connection points: 2
#     Edge 21, Type (0, 1), BuildingBlock: XUDNAN_clean_linker_2, # of connection points: 2
#     Edge 22, Type (0, 1), BuildingBlock: XUDNAN_clean_linker_2, # of connection points: 2
#     Edge 23, Type (0, 1), BuildingBlock: XUDNAN_clean_linker_2, # of connection points: 2
#     Edge 24, Type (0, 1), BuildingBlock: XUDNAN_clean_linker_2, # of connection points: 2
#     Edge 25, Type (0, 1), BuildingBlock: XUDNAN_clean_linker_2, # of connection points: 2
#     Edge 26, Type (0, 1), BuildingBlock: XUDNAN_clean_linker_2, # of connection points: 2
#     Edge 27, Type (0, 1), BuildingBlock: XUDNAN_clean_linker_2, # of connection points: 2
#     Edge 28, Type (0, 1), BuildingBlock: XUDNAN_clean_linker_2, # of connection points: 2
#     Edge 29, Type (0, 1), BuildingBlock: XUDNAN_clean_linker_2, # of connection points: 2
#     Edge 30, Type (0, 1), BuildingBlock: XUDNAN_clean_linker_2, # of connection points: 2
#     Edge 31, Type (0, 1), BuildingBlock: XUDNAN_clean_linker_2, # of connection points: 2
#     Edge 32, Type (0, 1), BuildingBlock: XUDNAN_clean_linker_2, # of connection points: 2
#     Edge 33, Type (0, 1), BuildingBlock: XUDNAN_clean_linker_2, # of connection points: 2
# Relax obj value: 0.011
# Max RMSD: 0.052
# Mean RMSD: 0.049
data_MOF--net-llj--node1-QEWDON_clean_sbu_0--node2-KAKCAD_clean_linker_0--edge1-XUDNAN_clean_linker_2
_symmetry_space_group_name_H-M    P1
_symmetry_Int_Tables_number       1
_symmetry_cell_setting            triclinic
loop_
_symmetry_equiv_pos_as_xyz
'x, y, z'
_cell_length_a     45.384645
_cell_length_b     45.356233
_cell_length_c     31.610019
_cell_angle_alpha  89.948017
_cell_angle_beta   89.880889
_cell_angle_gamma 90.162593
loop_
_atom_site_label
_atom_site_type_symbol
_atom_site_fract_x
_atom_site_fract_y
_atom_site_fract_z
_atom_type_partial_charge
Zn0 Zn 0.94175 0.05561 0.97519 0.0
Zn1 Zn 0.95014 0.05306 0.07379 0.0
O2 O 0.97234 0.04812 0.02001 0.0
H3 H 0.993 0.05198 0.01502 0.0
C4 C 0.8987 0.01614 0.93355 0.0
O5 O 0.89045 0.0179 0.97334 0.0
Zn6 Zn 0.02898 0.92277 0.05814 0.0
Zn7 Zn 0.03617 0.94309 0.9687 0.0
O8 O 0.00331 0.92995 0.0082 0.0
H9 H 0.98614 0.91854 0.00048 0.0
Zn10 Zn 0.92642 0.96394 0.96704 0.0
O11 O 0.94207 0.97961 0.02204 0.0
Zn12 Zn 0.92968 0.95133 0.06724 0.0
H13 H 0.96024 0.99073 0.02316 0.0
Zn14 Zn 0.05849 0.04593 0.9693 0.0
O15 O 0.04336 0.01498 0.01027 0.0
H16 H 0.03138 0.99803 0.00332 0.0
Zn17 Zn 0.05102 0.03064 0.06742 0.0
C18 C 0.089 0.00406 0.92227 0.0
O19 O 0.09448 0.99717 0.96187 0.0
O20 O 0.90846 0.08374 0.9941 0.0
O21 O 0.9158 0.08052 0.0635 0.0
O22 O 0.07433 0.91989 0.97891 0.0
O23 O 0.06468 0.89816 0.04041 0.0
O24 O 0.90036 0.92722 0.97404 0.0
O25 O 0.90035 0.9205 0.0438 0.0
C26 C 0.00435 0.06206 0.11596 0.0
O27 O 0.084 0.07841 -0.00254 0.0
O28 O 0.07837 0.06642 0.06527 0.0
O29 O 0.02388 0.94581 0.90621 0.0
C30 C 0.9016 0.09066 0.03193 0.0
O31 O 0.96 0.05853 0.91581 0.0
C32 C 0.97692 0.91096 0.10691 0.0
O33 O 0.91469 0.99466 0.92197 0.0
C34 C 0.08122 0.90176 0.00806 0.0
O35 O 0.07358 0.02673 0.91454 0.0
C36 C 0.9181 0.00197 0.11964 0.0
O37 O 0.97778 0.07047 0.11771 0.0
O38 O 0.01123 0.04282 0.0886 0.0
C39 C 0.89174 0.91316 0.00675 0.0
O40 O 0.00374 0.90319 0.10396 0.0
O41 O 0.96787 0.9309 0.08181 0.0
C42 C 0.06386 0.97173 0.10181 0.0
O43 O 0.91239 0.97452 0.11757 0.0
O44 O 0.93479 0.0128 0.09111 0.0
C45 C 0.08944 0.08289 0.03651 0.0
O46 O 0.06991 0.99905 0.10298 0.0
O47 O 0.04427 0.96289 0.07587 0.0
C48 C 0.00872 0.96687 0.89136 0.0
O49 O 0.00154 0.98897 0.91613 0.0
C50 C 0.95733 0.08113 0.8925 0.0
O51 O 0.9403 0.10285 0.90495 0.0
Zn52 Zn 0.45229 0.55566 0.48448 0.0
Zn53 Zn 0.45464 0.54727 0.58065 0.0
O54 O 0.48161 0.54668 0.5309 0.0
H55 H 0.49877 0.5344 0.52726 0.0
C56 C 0.42619 0.48524 0.38742 0.0
O57 O 0.42494 0.50224 0.42097 0.0
Zn58 Zn 0.53326 0.45928 0.5891 0.0
Zn59 Zn 0.54478 0.45842 0.49071 0.0
O60 O 0.513 0.4666 0.53423 0.0
H61 H 0.49696 0.48025 0.5302 0.0
Zn62 Zn 0.43275 0.4416 0.45349 0.0
O63 O 0.43803 0.47173 0.50063 0.0
Zn64 Zn 0.42987 0.45015 0.55402 0.0
H65 H 0.44733 0.49085 0.49826 0.0
Zn66 Zn 0.56172 0.56516 0.48256 0.0
O67 O 0.56047 0.53445 0.52901 0.0
H68 H 0.55875 0.51338 0.52522 0.0
Zn69 Zn 0.56032 0.55733 0.58216 0.0
C70 C 0.60057 0.53002 0.43665 0.0
O71 O 0.61014 0.52877 0.47581 0.0
O72 O 0.41928 0.58419 0.50338 0.0
O73 O 0.42348 0.57831 0.57305 0.0
O74 O 0.57545 0.42863 0.51224 0.0
O75 O 0.56556 0.42869 0.58124 0.0
O76 O 0.41194 0.40265 0.47111 0.0
O77 O 0.41292 0.41003 0.54061 0.0
C78 C 0.50542 0.55934 0.63247 0.0
O79 O 0.57797 0.60519 0.50392 0.0
O80 O 0.58033 0.59679 0.57346 0.0
O81 O 0.53027 0.45273 0.42933 0.0
C82 C 0.41135 0.5904 0.54109 0.0
O83 O 0.46942 0.55662 0.42364 0.0
C84 C 0.47652 0.44071 0.62301 0.0
O85 O 0.42919 0.45761 0.39234 0.0
C86 C 0.58014 0.41904 0.54953 0.0
O87 O 0.57906 0.54686 0.42816 0.0
C88 C 0.4103 0.49957 0.59687 0.0
O89 O 0.47792 0.5546 0.63417 0.0
O90 O 0.51758 0.56147 0.59642 0.0
C91 C 0.40661 0.39405 0.50878 0.0
O92 O 0.5036 0.44379 0.63208 0.0
O93 O 0.46835 0.44748 0.58575 0.0
C94 C 0.5696 0.50777 0.63153 0.0
O95 O 0.4012 0.47371 0.58899 0.0
O96 O 0.43496 0.50751 0.58139 0.0
C97 C 0.58491 0.61323 0.54129 0.0
O98 O 0.57964 0.53378 0.62815 0.0
O99 O 0.5515 0.49872 0.60374 0.0
C100 C 0.5087 0.43515 0.42459 0.0
O101 O 0.49724 0.42239 0.45817 0.0
C102 C 0.49328 0.57095 0.41881 0.0
O103 O 0.50442 0.58507 0.45138 0.0
C104 C 0.34794 0.35361 0.88326 0.0
C105 C 0.37759 0.35247 0.87009 0.0
C106 C 0.33936 0.34194 0.92237 0.0
C107 C 0.36028 0.32924 0.94939 0.0
C108 C 0.38977 0.32762 0.93609 0.0
C109 C 0.39831 0.33893 0.8968 0.0
C110 C 0.35182 0.31938 0.99244 0.0
C111 C 0.32736 0.3009 -0.001 0.0
C112 C 0.31926 0.29197 0.04014 0.0
C113 C 0.33594 0.30216 0.07479 0.0
C114 C 0.36046 0.32072 0.06861 0.0
C115 C 0.36815 0.32913 0.02729 0.0
C116 C 0.37784 0.33216 0.10493 0.0
C117 C 0.36378 0.34236 0.14179 0.0
C118 C 0.40868 0.33451 0.10191 0.0
C119 C 0.42495 0.34783 0.1341 0.0
C120 C 0.41081 0.35889 0.17028 0.0
C121 C 0.29362 0.27186 0.04682 0.0
C122 C 0.26786 0.27486 0.02249 0.0
C123 C 0.29478 0.24928 0.07733 0.0
C124 C 0.27088 0.23019 0.08327 0.0
C125 C 0.24527 0.23307 0.05869 0.0
C126 C 0.24403 0.25564 0.02825 0.0
C127 C 0.38013 0.35552 0.17422 0.0
H128 H 0.33142 0.36422 0.8639 0.0
H129 H 0.31654 0.34376 0.93213 0.0
H130 H 0.40629 0.31766 0.95622 0.0
H131 H 0.42118 0.33699 0.88741 0.0
H132 H 0.31512 0.29294 0.9719 0.0
H133 H 0.38643 0.34416 0.02219 0.0
H134 H 0.32981 0.29572 0.10662 0.0
H135 H 0.34004 0.34115 0.14496 0.0
H136 H 0.42028 0.3263 0.07437 0.0
H137 H 0.44864 0.34956 0.13061 0.0
H138 H 0.26596 0.29228 -0.00079 0.0
H139 H 0.31441 0.24594 0.09613 0.0
H140 H 0.36865 0.36397 0.20171 0.0
H141 H 0.22446 0.25866 0.00919 0.0
H142 H 0.2727 0.21274 0.10653 0.0
C143 C 0.65373 0.38 0.88832 0.0
C144 C 0.65313 0.41041 0.88011 0.0
C145 C 0.66767 0.36923 0.92439 0.0
C146 C 0.681 0.38873 0.95307 0.0
C147 C 0.68121 0.41909 0.94418 0.0
C148 C 0.66754 0.42984 0.90779 0.0
C149 C 0.69269 0.37752 0.99356 0.0
C150 C 0.71066 0.3524 0.99445 0.0
C151 C 0.71994 0.34039 0.03312 0.0
C152 C 0.71101 0.3539 0.07102 0.0
C153 C 0.69299 0.37902 0.07061 0.0
C154 C 0.68413 0.39082 0.03167 0.0
C155 C 0.68266 0.39227 0.11087 0.0
C156 C 0.67379 0.37412 0.14467 0.0
C157 C 0.6817 0.42306 0.11594 0.0
C158 C 0.67269 0.43538 0.15433 0.0
C159 C 0.66465 0.41715 0.1884 0.0
C160 C 0.73802 0.31316 0.0343 0.0
C161 C 0.7321 0.28958 0.00664 0.0
C162 C 0.76054 0.31006 0.06442 0.0
C163 C 0.77601 0.28366 0.0679 0.0
C164 C 0.76953 0.25989 0.04105 0.0
C165 C 0.74784 0.26323 0.00985 0.0
C166 C 0.66499 0.38643 0.18305 0.0
H167 H 0.64296 0.3646 0.86717 0.0
H168 H 0.66703 0.34575 0.93071 0.0
H169 H 0.69151 0.43452 0.96576 0.0
H170 H 0.66724 0.4534 0.90214 0.0
H171 H 0.71749 0.34234 0.96494 0.0
H172 H 0.66941 0.4096 0.03101 0.0
H173 H 0.71775 0.34459 0.10103 0.0
H174 H 0.67358 0.35035 0.14146 0.0
H175 H 0.68859 0.43762 0.09059 0.0
H176 H 0.6729 0.45914 0.15778 0.0
H177 H 0.71468 0.29111 0.9834 0.0
H178 H 0.76613 0.328 0.08555 0.0
H179 H 0.65845 0.37188 0.20862 0.0
H180 H 0.74239 0.24514 0.9889 0.0
H181 H 0.79304 0.28179 0.09172 0.0
C182 C 0.62763 0.63113 0.16508 0.0
C183 C 0.62177 0.60099 0.17171 0.0
C184 C 0.64534 0.64032 0.13123 0.0
C185 C 0.65748 0.61955 0.10328 0.0
C186 C 0.65286 0.58938 0.11122 0.0
C187 C 0.63524 0.5802 0.14506 0.0
C188 C 0.67221 0.62924 0.06361 0.0
C189 C 0.69282 0.65248 0.06333 0.0
C190 C 0.70523 0.66247 0.02499 0.0
C191 C 0.69625 0.64925 0.98678 0.0
C192 C 0.67573 0.62607 0.98667 0.0
C193 C 0.66407 0.61608 0.02519 0.0
C194 C 0.66468 0.61341 0.94643 0.0
C195 C 0.6546 0.63197 0.91399 0.0
C196 C 0.6617 0.58275 0.94174 0.0
C197 C 0.64766 0.57094 0.90628 0.0
C198 C 0.63598 0.58955 0.87491 0.0
C199 C 0.72702 0.68709 0.02419 0.0
C200 C 0.72316 0.71236 0.04944 0.0
C201 C 0.75119 0.68606 0.99637 0.0
C202 C 0.77013 0.71019 0.99223 0.0
C203 C 0.7655 0.73595 0.01595 0.0
C204 C 0.74228 0.73655 0.04542 0.0
C205 C 0.6403 0.62018 0.87868 0.0
H206 H 0.61743 0.64773 0.18485 0.0
H207 H 0.64828 0.66371 0.12567 0.0
H208 H 0.66231 0.57285 0.09056 0.0
H209 H 0.63173 0.55681 0.1499 0.0
H210 H 0.69941 0.6625 0.09296 0.0
H211 H 0.64739 0.59892 0.02502 0.0
H212 H 0.7049 0.65726 0.95691 0.0
H213 H 0.65635 0.6557 0.91697 0.0
H214 H 0.66964 0.56793 0.96605 0.0
H215 H 0.64529 0.54723 0.90397 0.0
H216 H 0.70468 0.71395 0.07103 0.0
H217 H 0.75526 0.6667 0.97722 0.0
H218 H 0.6313 0.63523 0.85548 0.0
H219 H 0.73811 0.75617 0.06396 0.0
H220 H 0.78818 0.70888 0.96984 0.0
C221 C 0.34763 0.61289 0.14228 0.0
C222 C 0.37498 0.59918 0.13548 0.0
C223 C 0.33465 0.62978 0.11029 0.0
C224 C 0.34893 0.63343 0.0711 0.0
C225 C 0.37697 0.62084 0.06533 0.0
C226 C 0.38971 0.60372 0.097 0.0
C227 C 0.33445 0.64912 0.03544 0.0
C228 C 0.31792 0.67491 0.04197 0.0
C229 C 0.30583 0.69008 0.00742 0.0
C230 C 0.31032 0.67946 0.96618 0.0
C231 C 0.32594 0.65324 0.95913 0.0
C232 C 0.33747 0.63809 0.99412 0.0
C233 C 0.33034 0.64147 0.91553 0.0
C234 C 0.30835 0.64418 0.88445 0.0
C235 C 0.35652 0.62667 0.90498 0.0
C236 C 0.36022 0.61404 0.86516 0.0
C237 C 0.33822 0.61652 0.83407 0.0
C238 C 0.2881 0.71696 0.01372 0.0
C239 C 0.26125 0.71562 0.03571 0.0
C240 C 0.29652 0.74336 0.994 0.0
C241 C 0.27775 0.76767 0.9945 0.0
C242 C 0.24983 0.76586 0.01385 0.0
C243 C 0.24216 0.73982 0.03559 0.0
C244 C 0.31234 0.63207 0.84414 0.0
H245 H 0.33577 0.60956 0.17168 0.0
H246 H 0.313 0.63903 0.11572 0.0
H247 H 0.38899 0.62388 0.036 0.0
H248 H 0.41102 0.59376 0.09127 0.0
H249 H 0.31507 0.68366 0.07361 0.0
H250 H 0.34853 0.61723 0.98935 0.0
H251 H 0.30144 0.69169 0.93967 0.0
H252 H 0.28775 0.65515 0.8914 0.0
H253 H 0.37429 0.62463 0.92759 0.0
H254 H 0.38024 0.6018 0.85928 0.0
H255 H 0.25432 0.69534 0.05093 0.0
H256 H 0.3173 0.74488 0.97718 0.0
H257 H 0.29504 0.63487 0.82097 0.0
H258 H 0.2208 0.73749 0.05055 0.0
H259 H 0.28478 0.7876 0.97847 0.0
C260 C 0.85672 0.81199 0.36678 0.0
C261 C 0.88569 0.81993 0.35556 0.0
C262 C 0.84905 0.80734 0.40904 0.0
C263 C 0.87033 0.80967 0.44119 0.0
C264 C 0.89982 0.8149 0.4295 0.0
C265 C 0.90735 0.82034 0.38735 0.0
C266 C 0.86133 0.80961 0.48659 0.0
C267 C 0.83704 0.79291 0.50059 0.0
C268 C 0.82601 0.79626 0.54181 0.0
C269 C 0.84023 0.81535 0.57005 0.0
C270 C 0.86527 0.83129 0.55724 0.0
C271 C 0.87536 0.8286 0.51543 0.0
C272 C 0.88056 0.85147 0.58691 0.0
C273 C 0.86447 0.87013 0.61378 0.0
C274 C 0.91151 0.8524 0.58811 0.0
C275 C 0.92606 0.87148 0.61571 0.0
C276 C 0.90999 0.89005 0.64274 0.0
C277 C 0.7981 0.78166 0.55383 0.0
C278 C 0.77398 0.79869 0.56704 0.0
C279 C 0.79455 0.75116 0.54844 0.0
C280 C 0.76703 0.73801 0.55484 0.0
C281 C 0.74255 0.75529 0.56589 0.0
C282 C 0.74632 0.78564 0.5726 0.0
C283 C 0.87904 0.88925 0.64139 0.0
H284 H 0.83958 0.81051 0.34312 0.0
H285 H 0.82608 0.80348 0.41645 0.0
H286 H 0.91703 0.81598 0.45312 0.0
H287 H 0.92991 0.8264 0.38027 0.0
H288 H 0.82587 0.77811 0.47901 0.0
H289 H 0.89339 0.8425 0.50495 0.0
H290 H 0.83184 0.81761 0.60202 0.0
H291 H 0.8406 0.87015 0.61323 0.0
H292 H 0.92451 0.83812 0.568 0.0
H293 H 0.94993 0.87174 0.61582 0.0
H294 H 0.77621 0.82232 0.57102 0.0
H295 H 0.81288 0.73766 0.53822 0.0
H296 H 0.86604 0.90302 0.66223 0.0
H297 H 0.72771 0.79935 0.58105 0.0
H298 H 0.76454 0.71459 0.54908 0.0
C299 C 0.17279 0.85712 0.35604 0.0
C300 C 0.16227 0.88539 0.34625 0.0
C301 C 0.18257 0.85054 0.39669 0.0
C302 C 0.18268 0.87222 0.4285 0.0
C303 C 0.17323 0.90084 0.41832 0.0
C304 C 0.16298 0.90732 0.37771 0.0
C305 C 0.19135 0.86435 0.47241 0.0
C306 C 0.21355 0.84336 0.47938 0.0
C307 C 0.21944 0.83275 0.52017 0.0
C308 C 0.20381 0.84442 0.55455 0.0
C309 C 0.18226 0.86612 0.54847 0.0
C310 C 0.17608 0.87602 0.50739 0.0
C311 C 0.16596 0.87775 0.58538 0.0
C312 C 0.1545 0.85824 0.61575 0.0
C313 C 0.16379 0.90826 0.59224 0.0
C314 C 0.15221 0.919 0.63026 0.0
C315 C 0.14254 0.89934 0.66183 0.0
C316 C 0.24041 0.80811 0.52655 0.0
C317 C 0.24082 0.78428 0.49814 0.0
C318 C 0.25906 0.80744 0.56201 0.0
C319 C 0.27722 0.78317 0.56935 0.0
C320 C 0.27725 0.75924 0.54119 0.0
C321 C 0.25914 0.76017 0.50529 0.0
C322 C 0.14283 0.86892 0.65352 0.0
H323 H 0.17306 0.83983 0.33245 0.0
H324 H 0.18922 0.8281 0.40337 0.0
H325 H 0.17339 0.91819 0.44183 0.0
H326 H 0.15478 0.92928 0.37145 0.0
H327 H 0.22613 0.83495 0.45288 0.0
H328 H 0.1585 0.89178 0.50271 0.0
H329 H 0.20803 0.83625 0.58619 0.0
H330 H 0.15537 0.83462 0.61079 0.0
H331 H 0.17251 0.92373 0.56924 0.0
H332 H 0.15239 0.94255 0.63587 0.0
H333 H 0.22633 0.7838 0.47097 0.0
H334 H 0.25958 0.82564 0.58416 0.0
H335 H 0.13493 0.85329 0.6769 0.0
H336 H 0.25849 0.74184 0.48336 0.0
H337 H 0.2913 0.78314 0.59698 0.0
C338 C 0.0812 0.17546 0.65081 0.0
C339 C 0.07455 0.14519 0.64863 0.0
C340 C 0.09555 0.18954 0.61714 0.0
C341 C 0.103 0.17364 0.58059 0.0
C342 C 0.09638 0.14339 0.57856 0.0
C343 C 0.08238 0.12931 0.61226 0.0
C344 C 0.11753 0.18821 0.54422 0.0
C345 C 0.14332 0.20493 0.54972 0.0
C346 C 0.15902 0.21561 0.5144 0.0
C347 C 0.14802 0.21016 0.47359 0.0
C348 C 0.12261 0.19309 0.46781 0.0
C349 C 0.10716 0.18276 0.50325 0.0
C350 C 0.11491 0.18217 0.42522 0.0
C351 C 0.11441 0.20106 0.38993 0.0
C352 C 0.11004 0.15188 0.41945 0.0
C353 C 0.10528 0.14054 0.37923 0.0
C354 C 0.10526 0.15921 0.34382 0.0
C355 C 0.18826 0.22989 0.51963 0.0
C356 C 0.19347 0.24994 0.55268 0.0
C357 C 0.21145 0.22307 0.49169 0.0
C358 C 0.23894 0.23647 0.49603 0.0
C359 C 0.24403 0.25664 0.52878 0.0
C360 C 0.22115 0.26312 0.5573 0.0
C361 C 0.10932 0.18966 0.34943 0.0
H362 H 0.07559 0.18813 0.6787 0.0
H363 H 0.10044 0.21288 0.61937 0.0
H364 H 0.10222 0.13055 0.55092 0.0
H365 H 0.07734 0.10602 0.60965 0.0
H366 H 0.15211 0.20795 0.58128 0.0
H367 H 0.08748 0.16949 0.49885 0.0
H368 H 0.16012 0.21784 0.44609 0.0
H369 H 0.11811 0.22452 0.39367 0.0
H370 H 0.11075 0.13673 0.44595 0.0
H371 H 0.10168 0.11704 0.3758 0.0
H372 H 0.17605 0.25578 0.57456 0.0
H373 H 0.20851 0.20708 0.46662 0.0
H374 H 0.10921 0.20444 0.3225 0.0
H375 H 0.22449 0.27887 0.5826 0.0
H376 H 0.25635 0.23082 0.474 0.0
C377 C 0.7916 0.11378 0.67535 0.0
C378 C 0.82219 0.11194 0.68143 0.0
C379 C 0.7801 0.11963 0.63534 0.0
C380 C 0.79892 0.12381 0.60049 0.0
C381 C 0.82951 0.12146 0.60635 0.0
C382 C 0.84104 0.11557 0.64645 0.0
C383 C 0.78664 0.13216 0.55874 0.0
C384 C 0.76451 0.15356 0.55647 0.0
C385 C 0.75335 0.16296 0.51739 0.0
C386 C 0.7644 0.15045 0.47994 0.0
C387 C 0.78658 0.12885 0.48168 0.0
C388 C 0.79759 0.11989 0.52118 0.0
C389 C 0.79959 0.11672 0.44239 0.0
C390 C 0.7817 0.1051 0.41016 0.0
C391 C 0.83031 0.11688 0.43701 0.0
C392 C 0.84291 0.10627 0.39976 0.0
C393 C 0.82509 0.09485 0.36741 0.0
C394 C 0.73181 0.18746 0.51684 0.0
C395 C 0.70797 0.18718 0.54524 0.0
C396 C 0.73716 0.21289 0.49258 0.0
C397 C 0.72023 0.23829 0.49888 0.0
C398 C 0.69771 0.2386 0.52953 0.0
C399 C 0.6911 0.21245 0.55149 0.0
C400 C 0.79441 0.09394 0.37304 0.0
H401 H 0.77647 0.1104 0.70147 0.0
H402 H 0.75641 0.12087 0.63167 0.0
H403 H 0.84458 0.12497 0.5802 0.0
H404 H 0.86472 0.11444 0.65022 0.0
H405 H 0.75684 0.164 0.5853 0.0
H406 H 0.81463 0.10321 0.52264 0.0
H407 H 0.75625 0.15795 0.44958 0.0
H408 H 0.75797 0.10459 0.41375 0.0
H409 H 0.84457 0.12586 0.46127 0.0
H410 H 0.86663 0.10722 0.396 0.0
H411 H 0.70316 0.16772 0.56395 0.0
H412 H 0.75556 0.21375 0.47072 0.0
H413 H 0.78029 0.08543 0.34828 0.0
H414 H 0.67341 0.21178 0.57453 0.0
H415 H 0.72584 0.25812 0.48149 0.0
H416 H 0.1218 0.11894 0.98401 0.0
H417 H 0.10382 0.10126 0.1166 0.0
H418 H 0.14003 0.13934 0.1369 0.0
H419 H 0.19855 0.12876 0.99434 0.0
H420 H 0.20109 0.15795 0.95576 0.0
H421 H 0.1723 0.13075 0.9517 0.0
H422 H 0.13298 0.17208 0.95196 0.0
H423 H 0.16169 0.19946 0.95589 0.0
H424 H 0.13247 0.19846 0.99459 0.0
H425 H 0.18069 0.17728 0.1426 0.0
H426 H 0.22137 0.21311 0.13323 0.0
H427 H 0.21266 0.20578 0.99697 0.0
C428 C 0.12518 0.12326 0.01734 0.0
C429 C 0.10989 0.10702 0.04871 0.0
C430 C 0.11522 0.11333 0.09196 0.0
C431 C 0.13576 0.13497 0.10382 0.0
C432 C 0.15079 0.15019 0.07206 0.0
C433 C 0.14562 0.14473 0.02971 0.0
C434 C 0.16534 0.16346 0.00176 0.0
C435 C 0.18551 0.14407 0.97429 0.0
C436 C 0.14702 0.18462 0.97445 0.0
C437 C 0.18274 0.18001 0.03498 0.0
C438 C 0.17398 0.17213 0.07534 0.0
C439 C 0.18759 0.18376 0.11114 0.0
C440 C 0.21079 0.20394 0.10551 0.0
C441 C 0.22014 0.21231 0.06439 0.0
C442 C 0.20572 0.20021 0.0288 0.0
H443 H 0.87329 0.12631 0.97454 0.0
H444 H 0.87557 0.10276 0.10778 0.0
H445 H 0.83852 0.14075 0.12307 0.0
H446 H 0.86954 0.20218 0.98962 0.0
H447 H 0.84486 0.20949 0.94628 0.0
H448 H 0.86879 0.17796 0.94443 0.0
H449 H 0.82383 0.14372 0.93306 0.0
H450 H 0.7996 0.17511 0.93479 0.0
H451 H 0.79367 0.14449 0.97023 0.0
H452 H 0.80569 0.1841 0.12561 0.0
H453 H 0.77773 0.23008 0.11476 0.0
H454 H 0.79621 0.22606 0.98017 0.0
C455 C 0.86555 0.12875 0.00677 0.0
C456 C 0.87737 0.11159 0.03996 0.0
C457 C 0.86694 0.11571 0.08183 0.0
C458 C 0.84578 0.13715 0.09085 0.0
C459 C 0.83514 0.1542 0.05766 0.0
C460 C 0.84446 0.15019 0.01641 0.0
C461 C 0.83098 0.17294 0.98719 0.0
C462 C 0.85498 0.19175 0.96564 0.0
C463 C 0.81081 0.15817 0.95439 0.0
C464 C 0.81336 0.19085 0.01875 0.0
C465 C 0.8159 0.17944 0.05913 0.0
C466 C 0.80318 0.19308 0.09409 0.0
C467 C 0.78757 0.21924 0.08769 0.0
C468 C 0.78486 0.23147 0.04668 0.0
C469 C 0.79761 0.21687 0.01173 0.0
H470 H 0.86642 0.87723 0.06799 0.0
H471 H 0.87212 0.89057 0.93197 0.0
H472 H 0.84036 0.84743 0.92064 0.0
H473 H 0.86788 0.79813 0.06553 0.0
H474 H 0.84162 0.79341 0.10787 0.0
H475 H 0.86457 0.82586 0.10609 0.0
H476 H 0.81821 0.8589 0.10828 0.0
H477 H 0.79505 0.82658 0.1101 0.0
H478 H 0.78971 0.85381 0.06928 0.0
H479 H 0.8094 0.80268 0.92287 0.0
H480 H 0.77934 0.75878 0.93895 0.0
H481 H 0.79216 0.77358 0.07334 0.0
C482 C 0.86088 0.87115 0.03585 0.0
C483 C 0.87187 0.88744 0.0009 0.0
C484 C 0.86407 0.87862 0.95935 0.0
C485 C 0.846 0.85407 0.95249 0.0
C486 C 0.83569 0.8385 0.98743 0.0
C487 C 0.84265 0.84664 0.02832 0.0
C488 C 0.82849 0.82578 0.06009 0.0
C489 C 0.85205 0.80985 0.08644 0.0
C490 C 0.80656 0.84225 0.08862 0.0
C491 C 0.81272 0.80462 0.0305 0.0
C492 C 0.81731 0.81247 0.98876 0.0
C493 C 0.80559 0.79627 0.95541 0.0
C494 C 0.78869 0.77128 0.96486 0.0
C495 C 0.78356 0.76266 0.00733 0.0
C496 C 0.7956 0.77974 0.04059 0.0
H497 H 0.10822 0.86518 0.06645 0.0
H498 H 0.11597 0.89861 0.93806 0.0
H499 H 0.16126 0.87005 0.92797 0.0
H500 H 0.18724 0.86387 0.08932 0.0
H501 H 0.18518 0.83 0.11905 0.0
H502 H 0.15396 0.85444 0.11754 0.0
H503 H 0.12111 0.81178 0.09018 0.0
H504 H 0.1522 0.78722 0.09154 0.0
H505 H 0.13186 0.79207 0.04312 0.0
H506 H 0.20361 0.83637 0.92956 0.0
H507 H 0.24114 0.79864 0.94243 0.0
H508 H 0.20785 0.78668 0.0704 0.0
C509 C 0.11955 0.86658 0.03632 0.0
C510 C 0.10861 0.88442 0.00314 0.0
C511 C 0.12406 0.88552 0.96415 0.0
C512 C 0.14982 0.86929 0.95803 0.0
C513 C 0.15999 0.85197 0.9912 0.0
C514 C 0.14546 0.85041 0.02959 0.0
C515 C 0.16083 0.82915 0.05934 0.0
C516 C 0.17249 0.84534 0.09864 0.0
C517 C 0.14027 0.80354 0.07176 0.0
C518 C 0.18589 0.8187 0.03123 0.0
C519 C 0.18496 0.83238 0.99222 0.0
C520 C 0.20491 0.82578 0.96019 0.0
C521 C 0.22636 0.80442 0.96802 0.0
C522 C 0.22791 0.78987 0.00769 0.0
C523 C 0.20737 0.79734 0.03976 0.0
H524 H 0.62936 0.62404 0.59653 0.0
H525 H 0.5777 0.66444 0.49705 0.0
H526 H 0.6086 0.70936 0.50151 0.0
H527 H 0.64832 0.69255 0.65682 0.0
H528 H 0.68521 0.67972 0.66679 0.0
H529 H 0.65534 0.65362 0.66215 0.0
H530 H 0.68395 0.62622 0.60315 0.0
H531 H 0.71372 0.65224 0.60733 0.0
H532 H 0.69605 0.64633 0.55701 0.0
H533 H 0.64779 0.74738 0.51155 0.0
H534 H 0.69516 0.77357 0.52077 0.0
H535 H 0.72366 0.70655 0.60939 0.0
C536 C 0.62398 0.64277 0.57676 0.0
C537 C 0.6009 0.64118 0.54702 0.0
C538 C 0.59515 0.66552 0.52034 0.0
C539 C 0.61245 0.69111 0.52285 0.0
C540 C 0.63555 0.69177 0.55186 0.0
C541 C 0.64149 0.66812 0.57812 0.0
C542 C 0.67008 0.67253 0.60191 0.0
C543 C 0.66439 0.67475 0.64976 0.0
C544 C 0.69225 0.64787 0.5917 0.0
C545 C 0.67989 0.70185 0.58373 0.0
C546 C 0.65921 0.713 0.55594 0.0
C547 C 0.66396 0.73909 0.53364 0.0
C548 C 0.69085 0.75383 0.53912 0.0
C549 C 0.7128 0.74206 0.56593 0.0
C550 C 0.70704 0.71603 0.589 0.0
H551 H 0.38959 0.63058 0.48437 0.0
H552 H 0.38086 0.60043 0.61415 0.0
H553 H 0.3453 0.64022 0.62846 0.0
H554 H 0.38668 0.70692 0.50572 0.0
H555 H 0.3654 0.71604 0.45947 0.0
H556 H 0.38926 0.68441 0.45889 0.0
H557 H 0.34527 0.65089 0.4381 0.0
H558 H 0.32129 0.68247 0.43828 0.0
H559 H 0.31248 0.65078 0.4704 0.0
H560 H 0.31286 0.6849 0.62951 0.0
H561 H 0.2832 0.72958 0.61598 0.0
H562 H 0.31251 0.72981 0.48524 0.0
C563 C 0.37996 0.63213 0.51566 0.0
C564 C 0.38829 0.61269 0.54838 0.0
C565 C 0.37521 0.61548 0.58891 0.0
C566 C 0.35488 0.63789 0.59726 0.0
C567 C 0.34769 0.65715 0.56458 0.0
C568 C 0.35957 0.65432 0.52448 0.0
C569 C 0.34846 0.67815 0.49511 0.0
C570 C 0.37397 0.69752 0.47886 0.0
C571 C 0.33082 0.66476 0.4583 0.0
C572 C 0.32872 0.695 0.52508 0.0
C573 C 0.32861 0.68257 0.56501 0.0
C574 C 0.3126 0.69474 0.59831 0.0
C575 C 0.29604 0.72019 0.59044 0.0
C576 C 0.29558 0.73301 0.54959 0.0
C577 C 0.3122 0.72022 0.51663 0.0
H578 H 0.37238 0.36303 0.4528 0.0
H579 H 0.40247 0.36382 0.58309 0.0
H580 H 0.36773 0.32383 0.60034 0.0
H581 H 0.29954 0.35619 0.47503 0.0
H582 H 0.29006 0.33196 0.43196 0.0
H583 H 0.32121 0.35628 0.42714 0.0
H584 H 0.35528 0.31198 0.41093 0.0
H585 H 0.32409 0.28743 0.41506 0.0
H586 H 0.35634 0.28119 0.44699 0.0
H587 H 0.32451 0.29057 0.60662 0.0
H588 H 0.2774 0.26345 0.6 0.0
H589 H 0.27525 0.2838 0.46596 0.0
C590 C 0.37242 0.35401 0.48453 0.0
C591 C 0.39015 0.36646 0.51654 0.0
C592 C 0.38908 0.35459 0.55802 0.0
C593 C 0.36948 0.3318 0.56814 0.0
C594 C 0.35129 0.32092 0.53637 0.0
C595 C 0.35285 0.33128 0.49524 0.0
C596 C 0.32875 0.31798 0.46818 0.0
C597 C 0.30872 0.34204 0.44952 0.0
C598 C 0.34191 0.29848 0.43322 0.0
C599 C 0.31267 0.29966 0.501 0.0
C600 C 0.32624 0.30137 0.54001 0.0
C601 C 0.31402 0.28847 0.57606 0.0
C602 C 0.28718 0.27338 0.57213 0.0
C603 C 0.27296 0.2714 0.53246 0.0
C604 C 0.28607 0.28445 0.49646 0.0
H605 H 0.60896 0.38745 0.48821 0.0
H606 H 0.59879 0.39495 0.62448 0.0
H607 H 0.63021 0.35113 0.63401 0.0
H608 H 0.6038 0.31073 0.48329 0.0
H609 H 0.63077 0.30627 0.44187 0.0
H610 H 0.61011 0.33997 0.44564 0.0
H611 H 0.65862 0.37009 0.44917 0.0
H612 H 0.67951 0.33648 0.44506 0.0
H613 H 0.6857 0.36119 0.48879 0.0
H614 H 0.65922 0.30447 0.62859 0.0
H615 H 0.68523 0.25885 0.60884 0.0
H616 H 0.676 0.28129 0.47601 0.0
C617 C 0.61375 0.38027 0.52014 0.0
C618 C 0.6014 0.39471 0.55562 0.0
C619 C 0.60798 0.3843 0.5968 0.0
C620 C 0.62584 0.35944 0.60255 0.0
C621 C 0.63703 0.34533 0.56683 0.0
C622 C 0.63144 0.35548 0.52644 0.0
C623 C 0.64484 0.33541 0.49331 0.0
C624 C 0.62095 0.32233 0.46434 0.0
C625 C 0.66858 0.35177 0.46757 0.0
C626 C 0.65831 0.31202 0.52138 0.0
C627 C 0.6537 0.31829 0.56368 0.0
C628 C 0.66312 0.29942 0.5956 0.0
C629 C 0.67762 0.27342 0.58402 0.0
C630 C 0.68247 0.26641 0.54086 0.0
C631 C 0.67285 0.28618 0.50924 0.0
H632 H 0.00468 0.1178 0.14965 0.0
H633 H 0.05213 0.03544 0.14915 0.0
H634 H 0.09003 0.05655 0.19549 0.0
H635 H 0.06947 0.16884 0.16273 0.0
H636 H 0.04983 0.19195 0.19955 0.0
H637 H 0.03011 0.17299 0.15818 0.0
H638 H 0.99583 0.14871 0.21402 0.0
H639 H 0.01517 0.16777 0.25536 0.0
H640 H 0.01188 0.12817 0.25702 0.0
H641 H 0.11918 0.08379 0.24723 0.0
H642 H 0.13383 0.1123 0.31009 0.0
H643 H 0.06541 0.17623 0.28373 0.0
C644 C 0.02356 0.1046 0.15843 0.0
C645 C 0.02676 0.07545 0.14354 0.0
C646 C 0.0508 0.05836 0.1573 0.0
C647 C 0.07215 0.07015 0.18417 0.0
C648 C 0.06878 0.09911 0.19768 0.0
C649 C 0.04484 0.11602 0.18595 0.0
C650 C 0.04396 0.14466 0.21055 0.0
C651 C 0.04863 0.17118 0.18098 0.0
C652 C 0.01501 0.14747 0.23573 0.0
C653 C 0.07022 0.1404 0.23943 0.0
C654 C 0.08478 0.11443 0.23028 0.0
C655 C 0.10825 0.10435 0.25447 0.0
C656 C 0.11632 0.12058 0.29014 0.0
C657 C 0.10064 0.1463 0.30156 0.0
C658 C 0.07804 0.15693 0.27508 0.0
H659 H 0.87907 0.9856 0.18329 0.0
H660 H 0.92727 0.06075 0.13421 0.0
H661 H 0.90694 0.09205 0.18912 0.0
H662 H 0.81314 0.02681 0.21388 0.0
H663 H 0.80716 0.00602 0.26178 0.0
H664 H 0.82481 0.98891 0.217 0.0
H665 H 0.8695 0.97523 0.2638 0.0
H666 H 0.85198 0.99223 0.30872 0.0
H667 H 0.88838 0.00379 0.29279 0.0
H668 H 0.88392 0.11523 0.25061 0.0
H669 H 0.85834 0.12929 0.31648 0.0
H670 H 0.823 0.04067 0.32785 0.0
C671 C 0.88523 0.00868 0.18397 0.0
C672 C 0.90503 0.02063 0.1536 0.0
C673 C 0.9124 0.05086 0.15617 0.0
C674 C 0.90081 0.069 0.18762 0.0
C675 C 0.88156 0.05666 0.2168 0.0
C676 C 0.87366 0.02726 0.21549 0.0
C677 C 0.85291 0.01978 0.2518 0.0
C678 C 0.82271 0.00979 0.2351 0.0
C679 C 0.86652 0.99637 0.281 0.0
C680 C 0.85087 0.04955 0.27369 0.0
C681 C 0.86764 0.07042 0.25269 0.0
C682 C 0.87049 0.09923 0.26726 0.0
C683 C 0.85599 0.10699 0.30464 0.0
C684 C 0.83872 0.0861 0.32686 0.0
C685 C 0.83582 0.05709 0.31099 0.0
H686 H 0.99173 0.87016 0.16743 0.0
H687 H 0.91739 0.91917 0.11833 0.0
H688 H 0.88523 0.89702 0.17173 0.0
H689 H 0.94971 0.80291 0.19573 0.0
H690 H 0.97076 0.79688 0.24324 0.0
H691 H 0.98769 0.81453 0.19819 0.0
H692 H 0.00208 0.85916 0.24499 0.0
H693 H 0.98522 0.8417 0.29011 0.0
H694 H 0.97386 0.87815 0.27443 0.0
H695 H 0.86224 0.87394 0.23444 0.0
H696 H 0.8497 0.85144 0.30265 0.0
H697 H 0.93783 0.81439 0.31039 0.0
C698 C 0.9686 0.87595 0.16748 0.0
C699 C 0.95716 0.89661 0.13825 0.0
C700 C 0.92684 0.90365 0.13992 0.0
C701 C 0.90826 0.89097 0.17024 0.0
C702 C 0.92028 0.87104 0.19874 0.0
C703 C 0.9497 0.8634 0.19763 0.0
C704 C 0.9573 0.84269 0.23362 0.0
C705 C 0.96693 0.81246 0.21667 0.0
C706 C 0.98101 0.85625 0.26249 0.0
C707 C 0.92773 0.84074 0.25583 0.0
C708 C 0.90667 0.85704 0.23485 0.0
C709 C 0.8783 0.8605 0.25073 0.0
C710 C 0.87133 0.84733 0.28951 0.0
C711 C 0.89257 0.83066 0.31206 0.0
C712 C 0.921 0.82695 0.29428 0.0
H713 H 0.10808 0.98635 0.15643 0.0
H714 H 0.05539 0.91194 0.1154 0.0
H715 H 0.07889 0.88062 0.16832 0.0
H716 H 0.17526 0.94385 0.18337 0.0
H717 H 0.18272 0.96651 0.22895 0.0
H718 H 0.16459 0.98211 0.18348 0.0
H719 H 0.12141 0.99912 0.23127 0.0
H720 H 0.13922 0.98343 0.27676 0.0
H721 H 0.10223 0.97234 0.26338 0.0
H722 H 0.10335 0.85907 0.23127 0.0
H723 H 0.12775 0.8484 0.29891 0.0
H724 H 0.16592 0.93638 0.29896 0.0
C725 C 0.10181 0.96332 0.15782 0.0
C726 C 0.07975 0.95164 0.13095 0.0
C727 C 0.07217 0.92151 0.13467 0.0
C728 C 0.08554 0.90344 0.16492 0.0
C729 C 0.10664 0.91585 0.19133 0.0
C730 C 0.11492 0.94506 0.18795 0.0
C731 C 0.13646 0.95359 0.22237 0.0
C732 C 0.16655 0.962 0.2034 0.0
C733 C 0.12407 0.97859 0.25007 0.0
C734 C 0.13812 0.92483 0.24653 0.0
C735 C 0.12102 0.90328 0.22777 0.0
C736 C 0.11738 0.87551 0.24578 0.0
C737 C 0.13149 0.86964 0.28418 0.0
C738 C 0.14909 0.89142 0.30418 0.0
C739 C 0.15263 0.91925 0.28463 0.0
H740 H 0.0786 0.00955 0.83688 0.0
H741 H 0.12305 0.95507 0.93005 0.0
H742 H 0.13973 0.9218 0.87342 0.0
H743 H 0.05419 0.95049 0.77058 0.0
H744 H 0.06029 0.96974 0.72141 0.0
H745 H 0.05153 0.99005 0.76878 0.0
H746 H 0.09897 0.02123 0.76107 0.0
H747 H 0.10778 0.00182 0.71303 0.0
H748 H 0.13404 0.00302 0.75572 0.0
H749 H 0.15157 0.89457 0.8083 0.0
H750 H 0.16066 0.87589 0.73647 0.0
H751 H 0.10888 0.94759 0.68425 0.0
C752 C 0.09189 0.99065 0.84534 0.0
C753 C 0.0995 0.98485 0.88788 0.0
C754 C 0.11687 0.95989 0.8977 0.0
C755 C 0.1264 0.94081 0.86582 0.0
C756 C 0.11834 0.94699 0.82434 0.0
C757 C 0.10171 0.97137 0.81385 0.0
C758 C 0.09671 0.97311 0.76652 0.0
C759 C 0.06371 0.97071 0.75617 0.0
C760 C 0.11019 0.00148 0.748 0.0
C761 C 0.1134 0.94596 0.75213 0.0
C762 C 0.12545 0.93119 0.78619 0.0
C763 C 0.14214 0.90577 0.78131 0.0
C764 C 0.14699 0.89523 0.74039 0.0
C765 C 0.13524 0.9101 0.70481 0.0
C766 C 0.11812 0.93577 0.71087 0.0
H767 H 0.95607 0.12523 0.8331 0.0
H768 H 0.00169 0.04461 0.86699 0.0
H769 H 0.03448 0.05058 0.80552 0.0
H770 H 0.96226 0.11651 0.71778 0.0
H771 H 0.96821 0.15538 0.70923 0.0
H772 H 0.94625 0.14302 0.75343 0.0
H773 H 0.98006 0.17219 0.80456 0.0
H774 H 0.00229 0.18445 0.76069 0.0
H775 H 0.01917 0.16527 0.80429 0.0
H776 H 0.06438 0.0669 0.7435 0.0
H777 H 0.08954 0.09264 0.68468 0.0
H778 H 0.02571 0.1635 0.69227 0.0
C779 C 0.97269 0.10863 0.82726 0.0
C780 C 0.97581 0.08406 0.85426 0.0
C781 C 0.99818 0.06308 0.84594 0.0
C782 C 0.01711 0.0664 0.81126 0.0
C783 C 0.01354 0.09097 0.78541 0.0
C784 C 0.99189 0.11171 0.79289 0.0
C785 C 0.99378 0.13688 0.76154 0.0
C786 C 0.96598 0.13801 0.73384 0.0
C787 C -0.00085 0.16643 0.78413 0.0
C788 C 0.02045 0.12749 0.73614 0.0
C789 C 0.03125 0.10075 0.75009 0.0
C790 C 0.05603 0.08775 0.73204 0.0
C791 C 0.07013 0.10249 0.6987 0.0
C792 C 0.05954 0.13002 0.68408 0.0
C793 C 0.03439 0.14261 0.70311 0.0
H794 H 0.91197 0.01857 0.84914 0.0
H795 H 0.8615 0.0627 0.9471 0.0
H796 H 0.841 0.09649 0.89365 0.0
H797 H 0.92488 0.08606 0.77948 0.0
H798 H 0.92216 0.06256 0.73386 0.0
H799 H 0.93642 0.04826 0.78296 0.0
H800 H 0.89448 0.00644 0.77712 0.0
H801 H 0.88152 0.02371 0.72947 0.0
H802 H 0.85679 0.01821 0.77349 0.0
H803 H 0.82141 0.12131 0.82872 0.0
H804 H 0.80437 0.13525 0.75728 0.0
H805 H 0.86667 0.0739 0.7019 0.0
C806 C 0.89707 0.03572 0.85951 0.0
C807 C 0.88841 0.03804 0.90231 0.0
C808 C 0.86863 0.0606 0.91454 0.0
C809 C 0.85692 0.07998 0.88441 0.0
C810 C 0.86536 0.0766 0.84229 0.0
C811 C 0.88516 0.05518 0.82988 0.0
C812 C 0.88849 0.05431 0.78225 0.0
C813 C 0.91985 0.06326 0.76885 0.0
C814 C 0.87983 0.02388 0.76454 0.0
C815 C 0.86648 0.07766 0.7697 0.0
C816 C 0.85376 0.09065 0.80477 0.0
C817 C 0.8315 0.11156 0.80103 0.0
C818 C 0.82181 0.11914 0.76037 0.0
C819 C 0.83421 0.10565 0.72406 0.0
C820 C 0.85716 0.085 0.72897 0.0
H821 H 0.01695 0.922 0.83499 0.0
H822 H 0.97042 0.00463 0.85194 0.0
H823 H 0.9456 0.99714 0.78357 0.0
H824 H 0.02211 0.92281 0.7165 0.0
H825 H 0.01485 0.88381 0.71388 0.0
H826 H 0.034 0.89892 0.75881 0.0
H827 H 0.99494 0.87523 0.80851 0.0
H828 H 0.9756 0.86059 0.76362 0.0
H829 H 0.95653 0.88376 0.80095 0.0
H830 H 0.92057 0.97778 0.7189 0.0
H831 H 0.89706 0.94734 0.66359 0.0
H832 H 0.95736 0.87595 0.69196 0.0
C833 C 0.00215 0.93899 0.82383 0.0
C834 C 0.99623 0.96432 0.84838 0.0
C835 C 0.97611 0.98557 0.83312 0.0
C836 C 0.96171 0.98143 0.7944 0.0
C837 C 0.96741 0.95584 0.77157 0.0
C838 C 0.98722 0.93496 0.78568 0.0
C839 C 0.98655 0.90759 0.75832 0.0
C840 C 0.01615 0.90305 0.73555 0.0
C841 C 0.97788 0.8802 0.78441 0.0
C842 C 0.96259 0.91599 0.72745 0.0
C843 C 0.95218 0.94408 0.73512 0.0
C844 C 0.92874 0.95587 0.71235 0.0
C845 C 0.9154 0.93836 0.68124 0.0
C846 C 0.92545 0.90932 0.67341 0.0
C847 C 0.9496 0.89828 0.69655 0.0
H848 H 0.55413 0.59231 0.65178 0.0
H849 H 0.49572 0.52477 0.70138 0.0
H850 H 0.52558 0.52206 0.76655 0.0
H851 H 0.62227 0.56104 0.6957 0.0
H852 H 0.63795 0.59678 0.70662 0.0
H853 H 0.61277 0.59219 0.66309 0.0
H854 H 0.57962 0.63337 0.6938 0.0
H855 H 0.60462 0.63801 0.73738 0.0
H856 H 0.56624 0.63027 0.74739 0.0
H857 H 0.56006 0.52839 0.82717 0.0
H858 H 0.5953 0.54505 0.88123 0.0
H859 H 0.63295 0.60723 0.7914 0.0
C860 C 0.54787 0.57682 0.67629 0.0
C861 C 0.52295 0.55848 0.67155 0.0
C862 C 0.51485 0.53893 0.70452 0.0
C863 C 0.53179 0.53707 0.74142 0.0
C864 C 0.55664 0.55501 0.74481 0.0
C865 C 0.56465 0.57457 0.71323 0.0
C866 C 0.59173 0.59215 0.72553 0.0
C867 C 0.61772 0.58511 0.69598 0.0
C868 C 0.58513 0.62542 0.72608 0.0
C869 C 0.59697 0.58025 0.76967 0.0
C870 C 0.57675 0.55851 0.77984 0.0
C871 C 0.57624 0.54514 0.81947 0.0
C872 C 0.59655 0.55463 0.84989 0.0
C873 C 0.61709 0.57738 0.84064 0.0
C874 C 0.61752 0.58989 0.79961 0.0
H875 H 0.43126 0.53719 0.65569 0.0
H876 H 0.35015 0.50376 0.603 0.0
H877 H 0.3218 0.53392 0.65428 0.0
H878 H 0.41062 0.53661 0.75897 0.0
H879 H 0.42926 0.57005 0.77432 0.0
H880 H 0.44292 0.54881 0.73052 0.0
H881 H 0.43893 0.59414 0.67996 0.0
H882 H 0.42737 0.61538 0.72515 0.0
H883 H 0.40493 0.61459 0.67837 0.0
H884 H 0.30322 0.56374 0.71671 0.0
H885 H 0.29575 0.59084 0.7834 0.0
H886 H 0.3898 0.60867 0.78942 0.0
C887 C 0.40768 0.53766 0.65318 0.0
C888 C 0.39298 0.51931 0.62427 0.0
C889 C 0.36182 0.5182 0.62454 0.0
C890 C 0.3456 0.53532 0.65337 0.0
C891 C 0.36098 0.55342 0.68143 0.0
C892 C 0.39139 0.55489 0.68117 0.0
C893 C 0.40296 0.57414 0.71648 0.0
C894 C 0.42258 0.55632 0.74685 0.0
C895 C 0.41951 0.60114 0.69888 0.0
C896 C 0.3743 0.58292 0.73727 0.0
C897 C 0.35031 0.57081 0.71673 0.0
C898 C 0.32179 0.57392 0.73246 0.0
C899 C 0.31777 0.58958 0.77034 0.0
C900 C 0.34213 0.60214 0.792 0.0
C901 C 0.37062 0.59917 0.77433 0.0
H902 H 0.48697 0.43304 0.70783 0.0
H903 H 0.41922 0.42216 0.61288 0.0
H904 H 0.38646 0.39962 0.66541 0.0
H905 H 0.47483 0.36573 0.76124 0.0
H906 H 0.48079 0.38038 0.81353 0.0
H907 H 0.49864 0.3972 0.76864 0.0
H908 H 0.47591 0.44767 0.78808 0.0
H909 H 0.45815 0.43116 0.83335 0.0
H910 H 0.43657 0.45074 0.7947 0.0
H911 H 0.36231 0.375 0.72718 0.0
H912 H 0.34718 0.35273 0.79496 0.0
H913 H 0.42944 0.38183 0.85163 0.0
C914 C 0.46514 0.42617 0.69807 0.0
C915 C 0.45576 0.42934 0.65561 0.0
C916 C 0.42702 0.42008 0.64461 0.0
C917 C 0.40818 0.40717 0.6745 0.0
C918 C 0.4183 0.40392 0.71571 0.0
C919 C 0.44596 0.41346 0.72773 0.0
C920 C 0.45152 0.40709 0.77409 0.0
C921 C 0.47801 0.38636 0.77967 0.0
C922 C 0.45578 0.43588 0.79903 0.0
C923 C 0.42283 0.39193 0.78592 0.0
C924 C 0.40401 0.39035 0.75175 0.0
C925 C 0.37665 0.37648 0.75441 0.0
C926 C 0.36819 0.36402 0.79318 0.0
C927 C 0.38693 0.36563 0.82895 0.0
C928 C 0.41462 0.37989 0.82498 0.0
H929 H 0.62269 0.50585 0.67233 0.0
H930 H 0.53343 0.47279 0.67687 0.0
H931 H 0.54542 0.44245 0.73921 0.0
H932 H 0.66048 0.44105 0.70813 0.0
H933 H 0.68607 0.46095 0.7411 0.0
H934 H 0.67084 0.47834 0.69483 0.0
H935 H 0.65158 0.52159 0.74099 0.0
H936 H 0.66703 0.50435 0.78724 0.0
H937 H 0.6285 0.51362 0.78602 0.0
H938 H 0.56734 0.41567 0.79997 0.0
H939 H 0.59671 0.39638 0.85951 0.0
H940 H 0.67092 0.45041 0.82009 0.0
C941 C 0.60592 0.49178 0.68616 0.0
C942 C 0.57763 0.48957 0.66805 0.0
C943 C 0.55581 0.47218 0.68792 0.0
C944 C 0.56229 0.45569 0.72404 0.0
C945 C 0.5906 0.45764 0.74053 0.0
C946 C 0.61196 0.47558 0.72275 0.0
C947 C 0.64016 0.47484 0.74822 0.0
C948 C 0.6659 0.46309 0.72147 0.0
C949 C 0.64722 0.50542 0.76669 0.0
C950 C 0.63141 0.45323 0.7826 0.0
C951 C 0.60274 0.44358 0.77743 0.0
C952 C 0.58979 0.4231 0.80455 0.0
C953 C 0.60665 0.41216 0.83802 0.0
C954 C 0.63599 0.4219 0.84412 0.0
C955 C 0.64845 0.44279 0.81616 0.0
H956 H 0.5898 0.52945 0.35089 0.0
H957 H 0.63932 0.48529 0.44979 0.0
H958 H 0.6596 0.45091 0.39719 0.0
H959 H 0.57255 0.46601 0.28829 0.0
H960 H 0.57796 0.4847 0.2385 0.0
H961 H 0.56662 0.50518 0.28448 0.0
H962 H 0.61241 0.54019 0.27596 0.0
H963 H 0.62221 0.51988 0.22905 0.0
H964 H 0.64844 0.52419 0.27134 0.0
H965 H 0.6744 0.4213 0.33496 0.0
H966 H 0.68517 0.39955 0.26517 0.0
H967 H 0.628 0.46388 0.20553 0.0
C968 C 0.60514 0.51276 0.36139 0.0
C969 C 0.61319 0.51024 0.40439 0.0
C970 C 0.63301 0.48782 0.41697 0.0
C971 C 0.64459 0.46809 0.38738 0.0
C972 C 0.63638 0.47126 0.34527 0.0
C973 C 0.6174 0.49318 0.33209 0.0
C974 C 0.61313 0.49233 0.2846 0.0
C975 C 0.58064 0.48671 0.27331 0.0
C976 C 0.62473 0.52082 0.26398 0.0
C977 C 0.63235 0.46621 0.27333 0.0
C978 C 0.64544 0.45439 0.30891 0.0
C979 C 0.6643 0.43029 0.3068 0.0
C980 C 0.67016 0.41802 0.26711 0.0
C981 C 0.65733 0.42997 0.2301 0.0
C982 C 0.63818 0.45439 0.23334 0.0
H983 H 0.54062 0.60486 0.39595 0.0
H984 H 0.48165 0.53685 0.3491 0.0
H985 H 0.50876 0.53634 0.28123 0.0
H986 H 0.54615 0.64446 0.29818 0.0
H987 H 0.58432 0.65424 0.30544 0.0
H988 H 0.56088 0.64862 0.35078 0.0
H989 H 0.59674 0.60881 0.38016 0.0
H990 H 0.62044 0.6157 0.33543 0.0
H991 H 0.60778 0.57887 0.34627 0.0
H992 H 0.5426 0.54324 0.21867 0.0
H993 H 0.57918 0.55834 0.16493 0.0
H994 H 0.61573 0.62211 0.25285 0.0
C995 C 0.53341 0.5898 0.37148 0.0
C996 C 0.50899 0.57091 0.37779 0.0
C997 C 0.50018 0.55164 0.34487 0.0
C998 C 0.51553 0.5511 0.30629 0.0
C999 C 0.53953 0.57005 0.30116 0.0
C1000 C 0.54836 0.5891 0.33281 0.0
C1001 C 0.57424 0.6079 0.31886 0.0
C1002 C 0.56588 0.64075 0.31827 0.0
C1003 C 0.60137 0.60246 0.34686 0.0
C1004 C 0.57885 0.59622 0.27454 0.0
C1005 C 0.55862 0.5744 0.26494 0.0
C1006 C 0.55853 0.56032 0.22582 0.0
C1007 C 0.57957 0.56889 0.19564 0.0
C1008 C 0.60042 0.59135 0.20469 0.0
C1009 C 0.59997 0.60506 0.24481 0.0
H1010 H 0.41334 0.54239 0.36715 0.0
H1011 H 0.43173 0.45707 0.31126 0.0
H1012 H 0.42504 0.47824 0.24003 0.0
H1013 H 0.35592 0.56133 0.2995 0.0
H1014 H 0.36513 0.59996 0.29649 0.0
H1015 H 0.37496 0.57899 0.34264 0.0
H1016 H 0.42969 0.59422 0.3332 0.0
H1017 H 0.42006 0.61546 0.28704 0.0
H1018 H 0.44795 0.58733 0.28353 0.0
H1019 H 0.41314 0.50799 0.17543 0.0
H1020 H 0.39504 0.54345 0.12214 0.0
H1021 H 0.38235 0.60885 0.22047 0.0
C1022 C 0.41633 0.52822 0.33994 0.0
C1023 C 0.4233 0.49808 0.3447 0.0
C1024 C 0.42669 0.48024 0.30831 0.0
C1025 C 0.42296 0.49211 0.26773 0.0
C1026 C 0.41573 0.52185 0.26419 0.0
C1027 C 0.41242 0.53965 0.29931 0.0
C1028 C 0.40266 0.57037 0.28709 0.0
C1029 C 0.3729 0.5781 0.30764 0.0
C1030 C 0.42651 0.5932 0.29837 0.0
C1031 C 0.39986 0.56677 0.23969 0.0
C1032 C 0.40813 0.5388 0.22704 0.0
C1033 C 0.40684 0.53002 0.18489 0.0
C1034 C 0.39659 0.55028 0.15489 0.0
C1035 C 0.38736 0.5788 0.16733 0.0
C1036 C 0.38921 0.58714 0.21024 0.0
H1037 H 0.46495 0.39611 0.40419 0.0
H1038 H 0.52629 0.45894 0.34873 0.0
H1039 H 0.5075 0.44662 0.27759 0.0
H1040 H 0.47017 0.34136 0.32332 0.0
H1041 H 0.43164 0.3317 0.32553 0.0
H1042 H 0.44983 0.34564 0.37198 0.0
H1043 H 0.411 0.38725 0.37822 0.0
H1044 H 0.39262 0.37315 0.332 0.0
H1045 H 0.40444 0.41107 0.33356 0.0
H1046 H 0.48273 0.42659 0.21256 0.0
H1047 H 0.45308 0.40109 0.15819 0.0
H1048 H 0.40746 0.35202 0.25648 0.0
C1049 C 0.47448 0.4073 0.37713 0.0
C1050 C 0.49718 0.42839 0.38199 0.0
C1051 C 0.50894 0.44262 0.34575 0.0
C1052 C 0.49844 0.43576 0.30523 0.0
C1053 C 0.47616 0.41469 0.30158 0.0
C1054 C 0.46418 0.40083 0.33657 0.0
C1055 C 0.44021 0.37925 0.32414 0.0
C1056 C 0.44847 0.34761 0.337 0.0
C1057 C 0.41031 0.38824 0.3431 0.0
C1058 C 0.44062 0.38305 0.27658 0.0
C1059 C 0.46151 0.40358 0.26422 0.0
C1060 C 0.46633 0.41046 0.22183 0.0
C1061 C 0.44951 0.39577 0.19122 0.0
C1062 C 0.42806 0.37454 0.20316 0.0
C1063 C 0.4235 0.36833 0.24646 0.0
loop_
_geom_bond_atom_site_label_1
_geom_bond_atom_site_label_2
_geom_bond_distance
_geom_bond_site_symmetry_2
_ccdc_geom_bond_type
Zn0 O2 1.933 1_556 S
Zn0 O20 1.985 . S
Zn0 O31 1.955 . S
Zn1 O2 1.911 . S
Zn1 O21 1.970 . S
Zn1 O37 1.945 . S
Zn1 O44 1.981 . S
O2 Zn0 1.933 1_554 S
O2 Zn1 1.911 . S
O2 H3 0.841 1_655 S
H3 O2 0.841 1_455 S
C4 O5 1.246 . S
C4 O33 1.276 1_545 S
O5 C4 1.246 . S
Zn6 O8 1.911 . S
Zn6 O23 1.970 . S
Zn6 O40 1.945 . S
Zn6 O47 1.981 . S
Zn7 O8 1.933 1_556 S
Zn7 O22 1.985 . S
Zn7 O29 1.955 . S
O8 Zn6 1.911 . S
O8 Zn7 1.933 1_554 S
O8 H9 0.841 1_455 S
H9 O8 0.841 1_655 S
Zn10 O11 1.933 1_556 S
Zn10 O24 1.985 . S
Zn10 O33 1.955 . S
O11 Zn10 1.933 1_554 S
O11 Zn12 1.911 . S
O11 H13 0.841 1_565 S
Zn12 O11 1.911 . S
Zn12 O25 1.970 . S
Zn12 O41 1.981 . S
Zn12 O43 1.945 . S
H13 O11 0.841 1_545 S
Zn14 O15 1.933 1_556 S
Zn14 O27 1.985 . S
Zn14 O35 1.955 . S
O15 Zn14 1.933 1_554 S
O15 H16 0.841 1_545 S
O15 Zn17 1.911 . S
H16 O15 0.841 1_565 S
Zn17 O15 1.911 . S
Zn17 O28 1.970 . S
Zn17 O38 1.981 . S
Zn17 O46 1.945 . S
C18 O19 1.246 . S
C18 O35 1.276 1_565 S
O19 C18 1.246 . S
O20 Zn0 1.985 . S
O20 C30 1.245 1_556 S
O21 Zn1 1.970 . S
O21 C30 1.263 . S
O22 Zn7 1.985 . S
O22 C34 1.245 1_556 S
O23 Zn6 1.970 . S
O23 C34 1.263 . S
O24 Zn10 1.985 . S
O24 C39 1.245 1_556 S
O25 Zn12 1.970 . S
O25 C39 1.263 . S
C26 O37 1.262 1_455 S
C26 O38 1.245 . S
O27 Zn14 1.985 . S
O27 C45 1.245 1_556 S
O28 Zn17 1.970 . S
O28 C45 1.263 . S
O29 Zn7 1.955 . S
O29 C48 1.276 1_455 S
C30 O20 1.245 1_554 S
C30 O21 1.263 . S
O31 Zn0 1.955 . S
O31 C50 1.276 1_655 S
C32 O40 1.262 1_655 S
C32 O41 1.245 . S
O33 C4 1.276 1_565 S
O33 Zn10 1.955 . S
C34 O22 1.245 1_554 S
C34 O23 1.263 . S
O35 Zn14 1.955 . S
O35 C18 1.276 1_545 S
C36 O43 1.262 1_545 S
C36 O44 1.245 . S
O37 Zn1 1.945 . S
O37 C26 1.262 1_655 S
O38 Zn17 1.981 . S
O38 C26 1.245 . S
C39 O24 1.245 1_554 S
C39 O25 1.263 . S
O40 Zn6 1.945 . S
O40 C32 1.262 1_455 S
O41 Zn12 1.981 . S
O41 C32 1.245 . S
C42 O46 1.262 1_565 S
C42 O47 1.245 . S
O43 Zn12 1.945 . S
O43 C36 1.262 1_565 S
O44 Zn1 1.981 . S
O44 C36 1.245 . S
C45 O27 1.245 1_554 S
C45 O28 1.263 . S
O46 Zn17 1.945 . S
O46 C42 1.262 1_545 S
O47 Zn6 1.981 . S
O47 C42 1.245 . S
C48 O29 1.276 1_655 S
C48 O49 1.246 . S
O49 C48 1.246 . S
C50 O31 1.276 1_455 S
C50 O51 1.246 . S
O51 C50 1.246 . S
Zn52 O54 1.933 . S
Zn52 O72 1.985 . S
Zn52 O83 1.955 . S
Zn53 O54 1.911 . S
Zn53 O73 1.970 . S
Zn53 O89 1.945 . S
Zn53 O96 1.981 . S
O54 Zn52 1.933 . S
O54 Zn53 1.911 . S
O54 H55 0.841 . S
H55 O54 0.841 . S
C56 O57 1.246 . S
C56 O85 1.276 . S
O57 C56 1.246 . S
Zn58 O60 1.911 . S
Zn58 O75 1.970 . S
Zn58 O92 1.945 . S
Zn58 O99 1.981 . S
Zn59 O60 1.933 . S
Zn59 O74 1.985 . S
Zn59 O81 1.955 . S
O60 Zn58 1.911 . S
O60 Zn59 1.933 . S
O60 H61 0.841 . S
H61 O60 0.841 . S
Zn62 O63 1.933 . S
Zn62 O76 1.985 . S
Zn62 O85 1.955 . S
O63 Zn62 1.933 . S
O63 Zn64 1.911 . S
O63 H65 0.841 . S
Zn64 O63 1.911 . S
Zn64 O77 1.970 . S
Zn64 O93 1.981 . S
Zn64 O95 1.945 . S
H65 O63 0.841 . S
Zn66 O67 1.933 . S
Zn66 O79 1.985 . S
Zn66 O87 1.955 . S
O67 Zn66 1.933 . S
O67 H68 0.841 . S
O67 Zn69 1.911 . S
H68 O67 0.841 . S
Zn69 O67 1.911 . S
Zn69 O80 1.970 . S
Zn69 O90 1.981 . S
Zn69 O98 1.945 . S
C70 O71 1.246 . S
C70 O87 1.276 . S
O71 C70 1.246 . S
O72 Zn52 1.985 . S
O72 C82 1.245 . S
O73 Zn53 1.970 . S
O73 C82 1.263 . S
O74 Zn59 1.985 . S
O74 C86 1.245 . S
O75 Zn58 1.970 . S
O75 C86 1.263 . S
O76 Zn62 1.985 . S
O76 C91 1.245 . S
O77 Zn64 1.970 . S
O77 C91 1.263 . S
C78 O89 1.262 . S
C78 O90 1.245 . S
O79 Zn66 1.985 . S
O79 C97 1.245 . S
O80 Zn69 1.970 . S
O80 C97 1.263 . S
O81 Zn59 1.955 . S
O81 C100 1.276 . S
C82 O72 1.245 . S
C82 O73 1.263 . S
O83 Zn52 1.955 . S
O83 C102 1.276 . S
C84 O92 1.262 . S
C84 O93 1.245 . S
O85 C56 1.276 . S
O85 Zn62 1.955 . S
C86 O74 1.245 . S
C86 O75 1.263 . S
O87 Zn66 1.955 . S
O87 C70 1.276 . S
C88 O95 1.262 . S
C88 O96 1.245 . S
O89 Zn53 1.945 . S
O89 C78 1.262 . S
O90 Zn69 1.981 . S
O90 C78 1.245 . S
C91 O76 1.245 . S
C91 O77 1.263 . S
O92 Zn58 1.945 . S
O92 C84 1.262 . S
O93 Zn64 1.981 . S
O93 C84 1.245 . S
C94 O98 1.262 . S
C94 O99 1.245 . S
O95 Zn64 1.945 . S
O95 C88 1.262 . S
O96 Zn53 1.981 . S
O96 C88 1.245 . S
C97 O79 1.245 . S
C97 O80 1.263 . S
O98 Zn69 1.945 . S
O98 C94 1.262 . S
O99 Zn58 1.981 . S
O99 C94 1.245 . S
C100 O81 1.276 . S
C100 O101 1.246 . S
O101 C100 1.246 . S
C102 O83 1.276 . S
C102 O103 1.246 . S
O103 C102 1.246 . S
C104 C105 1.386 . S
C104 C106 1.397 . S
C104 H128 0.931 . S
C105 C104 1.386 . S
C105 C109 1.397 . S
C106 C104 1.397 . S
C106 C107 1.384 . S
C106 H129 0.930 . S
C107 C106 1.384 . S
C107 C108 1.377 . S
C107 C110 1.481 . S
C108 C107 1.377 . S
C108 C109 1.389 . S
C108 H130 0.929 . S
C109 C105 1.397 . S
C109 C108 1.389 . S
C109 H131 0.931 . S
C110 C107 1.481 . S
C110 C111 1.387 . S
C110 C115 1.390 1_556 S
C111 C110 1.387 . S
C111 C112 1.401 1_556 S
C111 H132 0.930 . S
C112 C111 1.401 1_554 S
C112 C113 1.376 . S
C112 C121 1.511 . S
C113 C112 1.376 . S
C113 C114 1.392 . S
C113 H134 0.931 . S
C114 C113 1.392 . S
C114 C115 1.361 . S
C114 C116 1.500 . S
C115 C110 1.390 1_554 S
C115 C114 1.361 . S
C115 H133 0.931 . S
C116 C114 1.500 . S
C116 C117 1.371 . S
C116 C118 1.365 . S
C117 C116 1.371 . S
C117 C127 1.386 . S
C117 H135 0.931 . S
C118 C116 1.365 . S
C118 C119 1.409 . S
C118 H136 0.929 . S
C119 C118 1.409 . S
C119 C120 1.380 . S
C119 H137 0.930 . S
C120 C119 1.380 . S
C120 C127 1.357 . S
C121 C112 1.511 . S
C121 C122 1.341 1_554 S
C121 C123 1.371 . S
C122 C121 1.341 1_556 S
C122 C126 1.394 . S
C122 H138 0.930 . S
C123 C121 1.371 . S
C123 C124 1.392 . S
C123 H139 0.931 . S
C124 C123 1.392 . S
C124 C125 1.331 . S
C124 H142 0.932 . S
C125 C124 1.331 . S
C125 C126 1.336 1_554 S
C126 C122 1.394 . S
C126 C125 1.336 1_556 S
C126 H141 0.929 . S
C127 C117 1.386 . S
C127 C120 1.357 . S
C127 H140 0.928 . S
H128 C104 0.931 . S
H129 C106 0.930 . S
H130 C108 0.929 . S
H131 C109 0.931 . S
H132 C111 0.930 . S
H133 C115 0.931 . S
H134 C113 0.931 . S
H135 C117 0.931 . S
H136 C118 0.929 . S
H137 C119 0.930 . S
H138 C122 0.930 . S
H139 C123 0.931 . S
H140 C127 0.928 . S
H141 C126 0.929 . S
H142 C124 0.932 . S
C143 C144 1.386 . S
C143 C145 1.397 . S
C143 H167 0.931 . S
C144 C143 1.386 . S
C144 C148 1.397 . S
C145 C143 1.397 . S
C145 C146 1.384 . S
C145 H168 0.930 . S
C146 C145 1.384 . S
C146 C147 1.377 . S
C146 C149 1.481 . S
C147 C146 1.377 . S
C147 C148 1.389 . S
C147 H169 0.929 . S
C148 C144 1.397 . S
C148 C147 1.389 . S
C148 H170 0.931 . S
C149 C146 1.481 . S
C149 C150 1.387 . S
C149 C154 1.390 1_556 S
C150 C149 1.387 . S
C150 C151 1.401 1_556 S
C150 H171 0.930 . S
C151 C150 1.401 1_554 S
C151 C152 1.376 . S
C151 C160 1.511 . S
C152 C151 1.376 . S
C152 C153 1.392 . S
C152 H173 0.931 . S
C153 C152 1.392 . S
C153 C154 1.361 . S
C153 C155 1.500 . S
C154 C149 1.390 1_554 S
C154 C153 1.361 . S
C154 H172 0.931 . S
C155 C153 1.500 . S
C155 C156 1.371 . S
C155 C157 1.365 . S
C156 C155 1.371 . S
C156 C166 1.386 . S
C156 H174 0.931 . S
C157 C155 1.365 . S
C157 C158 1.409 . S
C157 H175 0.929 . S
C158 C157 1.409 . S
C158 C159 1.380 . S
C158 H176 0.930 . S
C159 C158 1.380 . S
C159 C166 1.357 . S
C160 C151 1.511 . S
C160 C161 1.341 1_554 S
C160 C162 1.371 . S
C161 C160 1.341 1_556 S
C161 C165 1.394 . S
C161 H177 0.930 . S
C162 C160 1.371 . S
C162 C163 1.392 . S
C162 H178 0.931 . S
C163 C162 1.392 . S
C163 C164 1.331 . S
C163 H181 0.932 . S
C164 C163 1.331 . S
C164 C165 1.336 1_554 S
C165 C161 1.394 . S
C165 C164 1.336 1_556 S
C165 H180 0.929 . S
C166 C156 1.386 . S
C166 C159 1.357 . S
C166 H179 0.928 . S
H167 C143 0.931 . S
H168 C145 0.930 . S
H169 C147 0.929 . S
H170 C148 0.931 . S
H171 C150 0.930 . S
H172 C154 0.931 . S
H173 C152 0.931 . S
H174 C156 0.931 . S
H175 C157 0.929 . S
H176 C158 0.930 . S
H177 C161 0.930 . S
H178 C162 0.931 . S
H179 C166 0.928 . S
H180 C165 0.929 . S
H181 C163 0.932 . S
C182 C183 1.386 . S
C182 C184 1.397 . S
C182 H206 0.931 . S
C183 C182 1.386 . S
C183 C187 1.397 . S
C184 C182 1.397 . S
C184 C185 1.384 . S
C184 H207 0.930 . S
C185 C184 1.384 . S
C185 C186 1.377 . S
C185 C188 1.481 . S
C186 C185 1.377 . S
C186 C187 1.389 . S
C186 H208 0.929 . S
C187 C183 1.397 . S
C187 C186 1.389 . S
C187 H209 0.931 . S
C188 C185 1.481 . S
C188 C189 1.387 . S
C188 C193 1.390 . S
C189 C188 1.387 . S
C189 C190 1.401 . S
C189 H210 0.930 . S
C190 C189 1.401 . S
C190 C191 1.376 1_554 S
C190 C199 1.511 . S
C191 C190 1.376 1_556 S
C191 C192 1.392 . S
C191 H212 0.931 . S
C192 C191 1.392 . S
C192 C193 1.361 1_556 S
C192 C194 1.500 . S
C193 C188 1.390 . S
C193 C192 1.361 1_554 S
C193 H211 0.931 . S
C194 C192 1.500 . S
C194 C195 1.371 . S
C194 C196 1.365 . S
C195 C194 1.371 . S
C195 C205 1.386 . S
C195 H213 0.931 . S
C196 C194 1.365 . S
C196 C197 1.409 . S
C196 H214 0.929 . S
C197 C196 1.409 . S
C197 C198 1.380 . S
C197 H215 0.930 . S
C198 C197 1.380 . S
C198 C205 1.357 . S
C199 C190 1.511 . S
C199 C200 1.341 . S
C199 C201 1.371 1_554 S
C200 C199 1.341 . S
C200 C204 1.394 . S
C200 H216 0.930 . S
C201 C199 1.371 1_556 S
C201 C202 1.392 . S
C201 H217 0.931 . S
C202 C201 1.392 . S
C202 C203 1.331 1_556 S
C202 H220 0.932 . S
C203 C202 1.331 1_554 S
C203 C204 1.336 . S
C204 C200 1.394 . S
C204 C203 1.336 . S
C204 H219 0.929 . S
C205 C195 1.386 . S
C205 C198 1.357 . S
C205 H218 0.928 . S
H206 C182 0.931 . S
H207 C184 0.930 . S
H208 C186 0.929 . S
H209 C187 0.931 . S
H210 C189 0.930 . S
H211 C193 0.931 . S
H212 C191 0.931 . S
H213 C195 0.931 . S
H214 C196 0.929 . S
H215 C197 0.930 . S
H216 C200 0.930 . S
H217 C201 0.931 . S
H218 C205 0.928 . S
H219 C204 0.929 . S
H220 C202 0.932 . S
C221 C222 1.386 . S
C221 C223 1.397 . S
C221 H245 0.931 . S
C222 C221 1.386 . S
C222 C226 1.397 . S
C223 C221 1.397 . S
C223 C224 1.384 . S
C223 H246 0.930 . S
C224 C223 1.384 . S
C224 C225 1.377 . S
C224 C227 1.481 . S
C225 C224 1.377 . S
C225 C226 1.389 . S
C225 H247 0.929 . S
C226 C222 1.397 . S
C226 C225 1.389 . S
C226 H248 0.931 . S
C227 C224 1.481 . S
C227 C228 1.387 . S
C227 C232 1.390 . S
C228 C227 1.387 . S
C228 C229 1.401 . S
C228 H249 0.930 . S
C229 C228 1.401 . S
C229 C230 1.376 1_554 S
C229 C238 1.511 . S
C230 C229 1.376 1_556 S
C230 C231 1.392 . S
C230 H251 0.931 . S
C231 C230 1.392 . S
C231 C232 1.361 1_556 S
C231 C233 1.500 . S
C232 C227 1.390 . S
C232 C231 1.361 1_554 S
C232 H250 0.931 . S
C233 C231 1.500 . S
C233 C234 1.371 . S
C233 C235 1.365 . S
C234 C233 1.371 . S
C234 C244 1.386 . S
C234 H252 0.931 . S
C235 C233 1.365 . S
C235 C236 1.409 . S
C235 H253 0.929 . S
C236 C235 1.409 . S
C236 C237 1.380 . S
C236 H254 0.930 . S
C237 C236 1.380 . S
C237 C244 1.357 . S
C238 C229 1.511 . S
C238 C239 1.341 . S
C238 C240 1.371 1_554 S
C239 C238 1.341 . S
C239 C243 1.394 . S
C239 H255 0.930 . S
C240 C238 1.371 1_556 S
C240 C241 1.392 . S
C240 H256 0.931 . S
C241 C240 1.392 . S
C241 C242 1.331 1_556 S
C241 H259 0.932 . S
C242 C241 1.331 1_554 S
C242 C243 1.336 . S
C243 C239 1.394 . S
C243 C242 1.336 . S
C243 H258 0.929 . S
C244 C234 1.386 . S
C244 C237 1.357 . S
C244 H257 0.928 . S
H245 C221 0.931 . S
H246 C223 0.930 . S
H247 C225 0.929 . S
H248 C226 0.931 . S
H249 C228 0.930 . S
H250 C232 0.931 . S
H251 C230 0.931 . S
H252 C234 0.931 . S
H253 C235 0.929 . S
H254 C236 0.930 . S
H255 C239 0.930 . S
H256 C240 0.931 . S
H257 C244 0.928 . S
H258 C243 0.929 . S
H259 C241 0.932 . S
C260 C261 1.386 . S
C260 C262 1.397 . S
C260 H284 0.931 . S
C261 C260 1.386 . S
C261 C265 1.397 . S
C262 C260 1.397 . S
C262 C263 1.384 . S
C262 H285 0.930 . S
C263 C262 1.384 . S
C263 C264 1.377 . S
C263 C266 1.481 . S
C264 C263 1.377 . S
C264 C265 1.389 . S
C264 H286 0.929 . S
C265 C261 1.397 . S
C265 C264 1.389 . S
C265 H287 0.931 . S
C266 C263 1.481 . S
C266 C267 1.387 . S
C266 C271 1.390 . S
C267 C266 1.387 . S
C267 C268 1.401 . S
C267 H288 0.930 . S
C268 C267 1.401 . S
C268 C269 1.376 . S
C268 C277 1.511 . S
C269 C268 1.376 . S
C269 C270 1.392 . S
C269 H290 0.931 . S
C270 C269 1.392 . S
C270 C271 1.361 . S
C270 C272 1.500 . S
C271 C266 1.390 . S
C271 C270 1.361 . S
C271 H289 0.931 . S
C272 C270 1.500 . S
C272 C273 1.371 . S
C272 C274 1.365 . S
C273 C272 1.371 . S
C273 C283 1.386 . S
C273 H291 0.931 . S
C274 C272 1.365 . S
C274 C275 1.409 . S
C274 H292 0.929 . S
C275 C274 1.409 . S
C275 C276 1.380 . S
C275 H293 0.930 . S
C276 C275 1.380 . S
C276 C283 1.357 . S
C277 C268 1.511 . S
C277 C278 1.341 . S
C277 C279 1.371 . S
C278 C277 1.341 . S
C278 C282 1.394 . S
C278 H294 0.930 . S
C279 C277 1.371 . S
C279 C280 1.392 . S
C279 H295 0.931 . S
C280 C279 1.392 . S
C280 C281 1.331 . S
C280 H298 0.932 . S
C281 C280 1.331 . S
C281 C282 1.336 . S
C282 C278 1.394 . S
C282 C281 1.336 . S
C282 H297 0.929 . S
C283 C273 1.386 . S
C283 C276 1.357 . S
C283 H296 0.928 . S
H284 C260 0.931 . S
H285 C262 0.930 . S
H286 C264 0.929 . S
H287 C265 0.931 . S
H288 C267 0.930 . S
H289 C271 0.931 . S
H290 C269 0.931 . S
H291 C273 0.931 . S
H292 C274 0.929 . S
H293 C275 0.930 . S
H294 C278 0.930 . S
H295 C279 0.931 . S
H296 C283 0.928 . S
H297 C282 0.929 . S
H298 C280 0.932 . S
C299 C300 1.386 . S
C299 C301 1.397 . S
C299 H323 0.931 . S
C300 C299 1.386 . S
C300 C304 1.397 . S
C301 C299 1.397 . S
C301 C302 1.384 . S
C301 H324 0.930 . S
C302 C301 1.384 . S
C302 C303 1.377 . S
C302 C305 1.481 . S
C303 C302 1.377 . S
C303 C304 1.389 . S
C303 H325 0.929 . S
C304 C300 1.397 . S
C304 C303 1.389 . S
C304 H326 0.931 . S
C305 C302 1.481 . S
C305 C306 1.387 . S
C305 C310 1.390 . S
C306 C305 1.387 . S
C306 C307 1.401 . S
C306 H327 0.930 . S
C307 C306 1.401 . S
C307 C308 1.376 . S
C307 C316 1.511 . S
C308 C307 1.376 . S
C308 C309 1.392 . S
C308 H329 0.931 . S
C309 C308 1.392 . S
C309 C310 1.361 . S
C309 C311 1.500 . S
C310 C305 1.390 . S
C310 C309 1.361 . S
C310 H328 0.931 . S
C311 C309 1.500 . S
C311 C312 1.371 . S
C311 C313 1.365 . S
C312 C311 1.371 . S
C312 C322 1.386 . S
C312 H330 0.931 . S
C313 C311 1.365 . S
C313 C314 1.409 . S
C313 H331 0.929 . S
C314 C313 1.409 . S
C314 C315 1.380 . S
C314 H332 0.930 . S
C315 C314 1.380 . S
C315 C322 1.357 . S
C316 C307 1.511 . S
C316 C317 1.341 . S
C316 C318 1.371 . S
C317 C316 1.341 . S
C317 C321 1.394 . S
C317 H333 0.930 . S
C318 C316 1.371 . S
C318 C319 1.392 . S
C318 H334 0.931 . S
C319 C318 1.392 . S
C319 C320 1.331 . S
C319 H337 0.932 . S
C320 C319 1.331 . S
C320 C321 1.336 . S
C321 C317 1.394 . S
C321 C320 1.336 . S
C321 H336 0.929 . S
C322 C312 1.386 . S
C322 C315 1.357 . S
C322 H335 0.928 . S
H323 C299 0.931 . S
H324 C301 0.930 . S
H325 C303 0.929 . S
H326 C304 0.931 . S
H327 C306 0.930 . S
H328 C310 0.931 . S
H329 C308 0.931 . S
H330 C312 0.931 . S
H331 C313 0.929 . S
H332 C314 0.930 . S
H333 C317 0.930 . S
H334 C318 0.931 . S
H335 C322 0.928 . S
H336 C321 0.929 . S
H337 C319 0.932 . S
C338 C339 1.386 . S
C338 C340 1.397 . S
C338 H362 0.931 . S
C339 C338 1.386 . S
C339 C343 1.397 . S
C340 C338 1.397 . S
C340 C341 1.384 . S
C340 H363 0.930 . S
C341 C340 1.384 . S
C341 C342 1.377 . S
C341 C344 1.481 . S
C342 C341 1.377 . S
C342 C343 1.389 . S
C342 H364 0.929 . S
C343 C339 1.397 . S
C343 C342 1.389 . S
C343 H365 0.931 . S
C344 C341 1.481 . S
C344 C345 1.387 . S
C344 C349 1.390 . S
C345 C344 1.387 . S
C345 C346 1.401 . S
C345 H366 0.930 . S
C346 C345 1.401 . S
C346 C347 1.376 . S
C346 C355 1.511 . S
C347 C346 1.376 . S
C347 C348 1.392 . S
C347 H368 0.931 . S
C348 C347 1.392 . S
C348 C349 1.361 . S
C348 C350 1.500 . S
C349 C344 1.390 . S
C349 C348 1.361 . S
C349 H367 0.931 . S
C350 C348 1.500 . S
C350 C351 1.371 . S
C350 C352 1.365 . S
C351 C350 1.371 . S
C351 C361 1.386 . S
C351 H369 0.931 . S
C352 C350 1.365 . S
C352 C353 1.409 . S
C352 H370 0.929 . S
C353 C352 1.409 . S
C353 C354 1.380 . S
C353 H371 0.930 . S
C354 C353 1.380 . S
C354 C361 1.357 . S
C355 C346 1.511 . S
C355 C356 1.341 . S
C355 C357 1.371 . S
C356 C355 1.341 . S
C356 C360 1.394 . S
C356 H372 0.930 . S
C357 C355 1.371 . S
C357 C358 1.392 . S
C357 H373 0.931 . S
C358 C357 1.392 . S
C358 C359 1.331 . S
C358 H376 0.932 . S
C359 C358 1.331 . S
C359 C360 1.336 . S
C360 C356 1.394 . S
C360 C359 1.336 . S
C360 H375 0.929 . S
C361 C351 1.386 . S
C361 C354 1.357 . S
C361 H374 0.928 . S
H362 C338 0.931 . S
H363 C340 0.930 . S
H364 C342 0.929 . S
H365 C343 0.931 . S
H366 C345 0.930 . S
H367 C349 0.931 . S
H368 C347 0.931 . S
H369 C351 0.931 . S
H370 C352 0.929 . S
H371 C353 0.930 . S
H372 C356 0.930 . S
H373 C357 0.931 . S
H374 C361 0.928 . S
H375 C360 0.929 . S
H376 C358 0.932 . S
C377 C378 1.386 . S
C377 C379 1.397 . S
C377 H401 0.931 . S
C378 C377 1.386 . S
C378 C382 1.397 . S
C379 C377 1.397 . S
C379 C380 1.384 . S
C379 H402 0.930 . S
C380 C379 1.384 . S
C380 C381 1.377 . S
C380 C383 1.481 . S
C381 C380 1.377 . S
C381 C382 1.389 . S
C381 H403 0.929 . S
C382 C378 1.397 . S
C382 C381 1.389 . S
C382 H404 0.931 . S
C383 C380 1.481 . S
C383 C384 1.387 . S
C383 C388 1.390 . S
C384 C383 1.387 . S
C384 C385 1.401 . S
C384 H405 0.930 . S
C385 C384 1.401 . S
C385 C386 1.376 . S
C385 C394 1.511 . S
C386 C385 1.376 . S
C386 C387 1.392 . S
C386 H407 0.931 . S
C387 C386 1.392 . S
C387 C388 1.361 . S
C387 C389 1.500 . S
C388 C383 1.390 . S
C388 C387 1.361 . S
C388 H406 0.931 . S
C389 C387 1.500 . S
C389 C390 1.371 . S
C389 C391 1.365 . S
C390 C389 1.371 . S
C390 C400 1.386 . S
C390 H408 0.931 . S
C391 C389 1.365 . S
C391 C392 1.409 . S
C391 H409 0.929 . S
C392 C391 1.409 . S
C392 C393 1.380 . S
C392 H410 0.930 . S
C393 C392 1.380 . S
C393 C400 1.357 . S
C394 C385 1.511 . S
C394 C395 1.341 . S
C394 C396 1.371 . S
C395 C394 1.341 . S
C395 C399 1.394 . S
C395 H411 0.930 . S
C396 C394 1.371 . S
C396 C397 1.392 . S
C396 H412 0.931 . S
C397 C396 1.392 . S
C397 C398 1.331 . S
C397 H415 0.932 . S
C398 C397 1.331 . S
C398 C399 1.336 . S
C399 C395 1.394 . S
C399 C398 1.336 . S
C399 H414 0.929 . S
C400 C390 1.386 . S
C400 C393 1.357 . S
C400 H413 0.928 . S
H401 C377 0.931 . S
H402 C379 0.930 . S
H403 C381 0.929 . S
H404 C382 0.931 . S
H405 C384 0.930 . S
H406 C388 0.931 . S
H407 C386 0.931 . S
H408 C390 0.931 . S
H409 C391 0.929 . S
H410 C392 0.930 . S
H411 C395 0.930 . S
H412 C396 0.931 . S
H413 C400 0.928 . S
H414 C399 0.929 . S
H415 C397 0.932 . S
H416 C428 0.930 . S
H417 C430 0.930 . S
H418 C431 0.930 . S
H419 C435 0.959 . S
H420 C435 0.959 . S
H421 C435 0.961 . S
H422 C436 0.960 . S
H423 C436 0.961 . S
H424 C436 0.959 . S
H425 C439 0.929 . S
H426 C440 0.931 . S
H427 C442 0.930 . S
C428 H416 0.930 . S
C428 C429 1.399 1_556 S
C428 C433 1.399 1_556 S
C429 C428 1.399 1_554 S
C429 C430 1.376 . S
C430 H417 0.930 . S
C430 C429 1.376 . S
C430 C431 1.388 . S
C431 H418 0.930 . S
C431 C430 1.388 . S
C431 C432 1.390 . S
C432 C431 1.390 . S
C432 C433 1.394 . S
C432 C438 1.465 . S
C433 C428 1.399 1_554 S
C433 C432 1.394 . S
C433 C434 1.516 1_554 S
C434 C433 1.516 1_556 S
C434 C435 1.502 . S
C434 C436 1.561 . S
C434 C437 1.526 1_556 S
C435 H419 0.959 . S
C435 H420 0.959 . S
C435 H421 0.961 . S
C435 C434 1.502 . S
C436 H422 0.960 . S
C436 H423 0.961 . S
C436 H424 0.959 . S
C436 C434 1.561 . S
C437 C434 1.526 1_554 S
C437 C438 1.396 . S
C437 C442 1.390 1_554 S
C438 C432 1.465 . S
C438 C437 1.396 . S
C438 C439 1.399 . S
C439 H425 0.929 . S
C439 C438 1.399 . S
C439 C440 1.385 . S
C440 H426 0.931 . S
C440 C439 1.385 . S
C440 C441 1.389 . S
C441 C440 1.389 . S
C441 C442 1.387 1_554 S
C442 H427 0.930 . S
C442 C437 1.390 1_556 S
C442 C441 1.387 1_556 S
H443 C455 0.930 . S
H444 C457 0.930 . S
H445 C458 0.930 . S
H446 C462 0.959 . S
H447 C462 0.959 . S
H448 C462 0.961 . S
H449 C463 0.960 . S
H450 C463 0.961 . S
H451 C463 0.959 . S
H452 C466 0.929 . S
H453 C467 0.931 . S
H454 C469 0.930 . S
C455 H443 0.930 . S
C455 C456 1.399 1_556 S
C455 C460 1.396 1_556 S
C456 C455 1.399 1_554 S
C456 C457 1.376 . S
C457 H444 0.930 . S
C457 C456 1.376 . S
C457 C458 1.388 . S
C458 H445 0.930 . S
C458 C457 1.388 . S
C458 C459 1.390 . S
C459 C458 1.390 . S
C459 C460 1.407 . S
C459 C465 1.465 . S
C460 C455 1.396 1_554 S
C460 C459 1.407 . S
C460 C461 1.507 1_554 S
C461 C460 1.507 1_556 S
C461 C462 1.502 . S
C461 C463 1.561 . S
C461 C464 1.522 1_556 S
C462 H446 0.959 . S
C462 H447 0.959 . S
C462 H448 0.961 . S
C462 C461 1.502 . S
C463 H449 0.960 . S
C463 H450 0.961 . S
C463 H451 0.959 . S
C463 C461 1.561 . S
C464 C461 1.522 1_554 S
C464 C465 1.402 . S
C464 C469 1.388 1_554 S
C465 C459 1.465 . S
C465 C464 1.402 . S
C465 C466 1.399 . S
C466 H452 0.929 . S
C466 C465 1.399 . S
C466 C467 1.385 . S
C467 H453 0.931 . S
C467 C466 1.385 . S
C467 C468 1.389 . S
C468 C467 1.389 . S
C468 C469 1.387 1_554 S
C469 H454 0.930 . S
C469 C464 1.388 1_556 S
C469 C468 1.387 1_556 S
H470 C482 0.930 . S
H471 C484 0.930 . S
H472 C485 0.930 . S
H473 C489 0.959 . S
H474 C489 0.959 . S
H475 C489 0.961 . S
H476 C490 0.960 . S
H477 C490 0.961 . S
H478 C490 0.959 . S
H479 C493 0.929 . S
H480 C494 0.931 . S
H481 C496 0.930 . S
C482 H470 0.930 . S
C482 C483 1.399 . S
C482 C487 1.399 . S
C483 C482 1.399 . S
C483 C484 1.376 1_554 S
C484 H471 0.930 . S
C484 C483 1.376 1_556 S
C484 C485 1.388 . S
C485 H472 0.930 . S
C485 C484 1.388 . S
C485 C486 1.390 1_556 S
C486 C485 1.390 1_554 S
C486 C487 1.394 . S
C486 C492 1.465 . S
C487 C482 1.399 . S
C487 C486 1.394 . S
C487 C488 1.516 . S
C488 C487 1.516 . S
C488 C489 1.502 . S
C488 C490 1.561 . S
C488 C491 1.526 . S
C489 H473 0.959 . S
C489 H474 0.959 . S
C489 H475 0.961 . S
C489 C488 1.502 . S
C490 H476 0.960 . S
C490 H477 0.961 . S
C490 H478 0.959 . S
C490 C488 1.561 . S
C491 C488 1.526 . S
C491 C492 1.396 . S
C491 C496 1.390 . S
C492 C486 1.465 . S
C492 C491 1.396 . S
C492 C493 1.399 1_554 S
C493 H479 0.929 . S
C493 C492 1.399 1_556 S
C493 C494 1.385 . S
C494 H480 0.931 . S
C494 C493 1.385 . S
C494 C495 1.389 1_556 S
C495 C494 1.389 1_554 S
C495 C496 1.387 . S
C496 H481 0.930 . S
C496 C491 1.390 . S
C496 C495 1.387 . S
H497 C509 0.930 . S
H498 C511 0.930 . S
H499 C512 0.930 . S
H500 C516 0.959 . S
H501 C516 0.959 . S
H502 C516 0.961 . S
H503 C517 0.960 . S
H504 C517 0.961 . S
H505 C517 0.959 . S
H506 C520 0.929 . S
H507 C521 0.931 . S
H508 C523 0.930 . S
C509 H497 0.930 . S
C509 C510 1.399 . S
C509 C514 1.399 . S
C510 C509 1.399 . S
C510 C511 1.376 1_554 S
C511 H498 0.930 . S
C511 C510 1.376 1_556 S
C511 C512 1.388 . S
C512 H499 0.930 . S
C512 C511 1.388 . S
C512 C513 1.390 1_556 S
C513 C512 1.390 1_554 S
C513 C514 1.394 . S
C513 C519 1.465 . S
C514 C509 1.399 . S
C514 C513 1.394 . S
C514 C515 1.516 . S
C515 C514 1.516 . S
C515 C516 1.502 . S
C515 C517 1.561 . S
C515 C518 1.526 . S
C516 H500 0.959 . S
C516 H501 0.959 . S
C516 H502 0.961 . S
C516 C515 1.502 . S
C517 H503 0.960 . S
C517 H504 0.961 . S
C517 H505 0.959 . S
C517 C515 1.561 . S
C518 C515 1.526 . S
C518 C519 1.396 . S
C518 C523 1.390 . S
C519 C513 1.465 . S
C519 C518 1.396 . S
C519 C520 1.399 1_554 S
C520 H506 0.929 . S
C520 C519 1.399 1_556 S
C520 C521 1.385 . S
C521 H507 0.931 . S
C521 C520 1.385 . S
C521 C522 1.389 1_556 S
C522 C521 1.389 1_554 S
C522 C523 1.387 . S
C523 H508 0.930 . S
C523 C518 1.390 . S
C523 C522 1.387 . S
H524 C536 0.930 . S
H525 C538 0.930 . S
H526 C539 0.930 . S
H527 C543 0.959 . S
H528 C543 0.959 . S
H529 C543 0.961 . S
H530 C544 0.960 . S
H531 C544 0.961 . S
H532 C544 0.959 . S
H533 C547 0.929 . S
H534 C548 0.931 . S
H535 C550 0.930 . S
C536 H524 0.930 . S
C536 C537 1.399 . S
C536 C541 1.399 . S
C537 C536 1.399 . S
C537 C538 1.376 . S
C538 H525 0.930 . S
C538 C537 1.376 . S
C538 C539 1.388 . S
C539 H526 0.930 . S
C539 C538 1.388 . S
C539 C540 1.390 . S
C540 C539 1.390 . S
C540 C541 1.394 . S
C540 C546 1.465 . S
C541 C536 1.399 . S
C541 C540 1.394 . S
C541 C542 1.516 . S
C542 C541 1.516 . S
C542 C543 1.502 . S
C542 C544 1.561 . S
C542 C545 1.526 . S
C543 H527 0.959 . S
C543 H528 0.959 . S
C543 H529 0.961 . S
C543 C542 1.502 . S
C544 H530 0.960 . S
C544 H531 0.961 . S
C544 H532 0.959 . S
C544 C542 1.561 . S
C545 C542 1.526 . S
C545 C546 1.396 . S
C545 C550 1.390 . S
C546 C540 1.465 . S
C546 C545 1.396 . S
C546 C547 1.399 . S
C547 H533 0.929 . S
C547 C546 1.399 . S
C547 C548 1.385 . S
C548 H534 0.931 . S
C548 C547 1.385 . S
C548 C549 1.389 . S
C549 C548 1.389 . S
C549 C550 1.387 . S
C550 H535 0.930 . S
C550 C545 1.390 . S
C550 C549 1.387 . S
H551 C563 0.930 . S
H552 C565 0.930 . S
H553 C566 0.930 . S
H554 C570 0.959 . S
H555 C570 0.959 . S
H556 C570 0.961 . S
H557 C571 0.960 . S
H558 C571 0.961 . S
H559 C571 0.959 . S
H560 C574 0.929 . S
H561 C575 0.931 . S
H562 C577 0.930 . S
C563 H551 0.930 . S
C563 C564 1.399 . S
C563 C568 1.399 . S
C564 C563 1.399 . S
C564 C565 1.376 . S
C565 H552 0.930 . S
C565 C564 1.376 . S
C565 C566 1.388 . S
C566 H553 0.930 . S
C566 C565 1.388 . S
C566 C567 1.390 . S
C567 C566 1.390 . S
C567 C568 1.394 . S
C567 C573 1.465 . S
C568 C563 1.399 . S
C568 C567 1.394 . S
C568 C569 1.516 . S
C569 C568 1.516 . S
C569 C570 1.502 . S
C569 C571 1.561 . S
C569 C572 1.526 . S
C570 H554 0.959 . S
C570 H555 0.959 . S
C570 H556 0.961 . S
C570 C569 1.502 . S
C571 H557 0.960 . S
C571 H558 0.961 . S
C571 H559 0.959 . S
C571 C569 1.561 . S
C572 C569 1.526 . S
C572 C573 1.396 . S
C572 C577 1.390 . S
C573 C567 1.465 . S
C573 C572 1.396 . S
C573 C574 1.399 . S
C574 H560 0.929 . S
C574 C573 1.399 . S
C574 C575 1.385 . S
C575 H561 0.931 . S
C575 C574 1.385 . S
C575 C576 1.389 . S
C576 C575 1.389 . S
C576 C577 1.387 . S
C577 H562 0.930 . S
C577 C572 1.390 . S
C577 C576 1.387 . S
H578 C590 0.930 . S
H579 C592 0.930 . S
H580 C593 0.930 . S
H581 C597 0.959 . S
H582 C597 0.959 . S
H583 C597 0.961 . S
H584 C598 0.960 . S
H585 C598 0.961 . S
H586 C598 0.959 . S
H587 C601 0.929 . S
H588 C602 0.931 . S
H589 C604 0.930 . S
C590 H578 0.930 . S
C590 C591 1.399 . S
C590 C595 1.399 . S
C591 C590 1.399 . S
C591 C592 1.376 . S
C592 H579 0.930 . S
C592 C591 1.376 . S
C592 C593 1.388 . S
C593 H580 0.930 . S
C593 C592 1.388 . S
C593 C594 1.390 . S
C594 C593 1.390 . S
C594 C595 1.394 . S
C594 C600 1.465 . S
C595 C590 1.399 . S
C595 C594 1.394 . S
C595 C596 1.516 . S
C596 C595 1.516 . S
C596 C597 1.502 . S
C596 C598 1.561 . S
C596 C599 1.526 . S
C597 H581 0.959 . S
C597 H582 0.959 . S
C597 H583 0.961 . S
C597 C596 1.502 . S
C598 H584 0.960 . S
C598 H585 0.961 . S
C598 H586 0.959 . S
C598 C596 1.561 . S
C599 C596 1.526 . S
C599 C600 1.396 . S
C599 C604 1.390 . S
C600 C594 1.465 . S
C600 C599 1.396 . S
C600 C601 1.399 . S
C601 H587 0.929 . S
C601 C600 1.399 . S
C601 C602 1.385 . S
C602 H588 0.931 . S
C602 C601 1.385 . S
C602 C603 1.389 . S
C603 C602 1.389 . S
C603 C604 1.387 . S
C604 H589 0.930 . S
C604 C599 1.390 . S
C604 C603 1.387 . S
H605 C617 0.930 . S
H606 C619 0.930 . S
H607 C620 0.930 . S
H608 C624 0.959 . S
H609 C624 0.959 . S
H610 C624 0.961 . S
H611 C625 0.960 . S
H612 C625 0.961 . S
H613 C625 0.959 . S
H614 C628 0.929 . S
H615 C629 0.931 . S
H616 C631 0.930 . S
C617 H605 0.930 . S
C617 C618 1.399 . S
C617 C622 1.399 . S
C618 C617 1.399 . S
C618 C619 1.376 . S
C619 H606 0.930 . S
C619 C618 1.376 . S
C619 C620 1.388 . S
C620 H607 0.930 . S
C620 C619 1.388 . S
C620 C621 1.390 . S
C621 C620 1.390 . S
C621 C622 1.394 . S
C621 C627 1.465 . S
C622 C617 1.399 . S
C622 C621 1.394 . S
C622 C623 1.516 . S
C623 C622 1.516 . S
C623 C624 1.502 . S
C623 C625 1.561 . S
C623 C626 1.526 . S
C624 H608 0.959 . S
C624 H609 0.959 . S
C624 H610 0.961 . S
C624 C623 1.502 . S
C625 H611 0.960 . S
C625 H612 0.961 . S
C625 H613 0.959 . S
C625 C623 1.561 . S
C626 C623 1.526 . S
C626 C627 1.396 . S
C626 C631 1.390 . S
C627 C621 1.465 . S
C627 C626 1.396 . S
C627 C628 1.399 . S
C628 H614 0.929 . S
C628 C627 1.399 . S
C628 C629 1.385 . S
C629 H615 0.931 . S
C629 C628 1.385 . S
C629 C630 1.389 . S
C630 C629 1.389 . S
C630 C631 1.387 . S
C631 H616 0.930 . S
C631 C626 1.390 . S
C631 C630 1.387 . S
H632 C644 0.930 1_655 S
H633 C646 0.930 . S
H634 C647 0.930 . S
H635 C651 0.959 1_455 S
H636 C651 0.959 . S
H637 C651 0.961 . S
H638 C652 0.960 . S
H639 C652 0.961 . S
H640 C652 0.959 . S
H641 C655 0.929 . S
H642 C656 0.931 . S
H643 C658 0.930 . S
C644 H632 0.930 1_455 S
C644 C645 1.399 . S
C644 C649 1.399 . S
C645 C644 1.399 . S
C645 C646 1.376 . S
C646 H633 0.930 . S
C646 C645 1.376 . S
C646 C647 1.388 . S
C647 H634 0.930 . S
C647 C646 1.388 . S
C647 C648 1.390 . S
C648 C647 1.390 . S
C648 C649 1.394 . S
C648 C654 1.465 . S
C649 C644 1.399 . S
C649 C648 1.394 . S
C649 C650 1.516 . S
C650 C649 1.516 . S
C650 C651 1.502 1_455 S
C650 C652 1.561 1_455 S
C650 C653 1.526 . S
C651 H635 0.959 1_655 S
C651 H636 0.959 . S
C651 H637 0.961 . S
C651 C650 1.502 1_655 S
C652 H638 0.960 . S
C652 H639 0.961 . S
C652 H640 0.959 . S
C652 C650 1.561 1_655 S
C653 C650 1.526 . S
C653 C654 1.396 . S
C653 C658 1.390 . S
C654 C648 1.465 . S
C654 C653 1.396 . S
C654 C655 1.399 . S
C655 H641 0.929 . S
C655 C654 1.399 . S
C655 C656 1.385 . S
C656 H642 0.931 . S
C656 C655 1.385 . S
C656 C657 1.389 . S
C657 C656 1.389 . S
C657 C658 1.387 . S
C658 H643 0.930 . S
C658 C653 1.390 . S
C658 C657 1.387 . S
H659 C671 0.930 1_565 S
H660 C673 0.930 . S
H661 C674 0.930 . S
H662 C678 0.959 1_545 S
H663 C678 0.959 . S
H664 C678 0.961 . S
H665 C679 0.960 . S
H666 C679 0.961 . S
H667 C679 0.959 . S
H668 C682 0.929 . S
H669 C683 0.931 . S
H670 C685 0.930 . S
C671 H659 0.930 1_545 S
C671 C672 1.399 . S
C671 C676 1.399 . S
C672 C671 1.399 . S
C672 C673 1.376 . S
C673 H660 0.930 . S
C673 C672 1.376 . S
C673 C674 1.388 . S
C674 H661 0.930 . S
C674 C673 1.388 . S
C674 C675 1.390 . S
C675 C674 1.390 . S
C675 C676 1.394 . S
C675 C681 1.465 . S
C676 C671 1.399 . S
C676 C675 1.394 . S
C676 C677 1.516 . S
C677 C676 1.516 . S
C677 C678 1.502 1_545 S
C677 C679 1.561 1_545 S
C677 C680 1.526 . S
C678 H662 0.959 1_565 S
C678 H663 0.959 . S
C678 H664 0.961 . S
C678 C677 1.502 1_565 S
C679 H665 0.960 . S
C679 H666 0.961 . S
C679 H667 0.959 . S
C679 C677 1.561 1_565 S
C680 C677 1.526 . S
C680 C681 1.396 . S
C680 C685 1.390 . S
C681 C675 1.465 . S
C681 C680 1.396 . S
C681 C682 1.399 . S
C682 H668 0.929 . S
C682 C681 1.399 . S
C682 C683 1.385 . S
C683 H669 0.931 . S
C683 C682 1.385 . S
C683 C684 1.389 . S
C684 C683 1.389 . S
C684 C685 1.387 . S
C685 H670 0.930 . S
C685 C680 1.390 . S
C685 C684 1.387 . S
H686 C698 0.930 . S
H687 C700 0.930 . S
H688 C701 0.930 . S
H689 C705 0.959 . S
H690 C705 0.959 . S
H691 C705 0.961 . S
H692 C706 0.960 . S
H693 C706 0.961 . S
H694 C706 0.959 . S
H695 C709 0.929 . S
H696 C710 0.931 . S
H697 C712 0.930 . S
C698 H686 0.930 . S
C698 C699 1.399 . S
C698 C703 1.399 . S
C699 C698 1.399 . S
C699 C700 1.376 . S
C700 H687 0.930 . S
C700 C699 1.376 . S
C700 C701 1.388 . S
C701 H688 0.930 . S
C701 C700 1.388 . S
C701 C702 1.390 . S
C702 C701 1.390 . S
C702 C703 1.394 . S
C702 C708 1.465 . S
C703 C698 1.399 . S
C703 C702 1.394 . S
C703 C704 1.516 . S
C704 C703 1.516 . S
C704 C705 1.502 . S
C704 C706 1.561 1_655 S
C704 C707 1.526 . S
C705 H689 0.959 . S
C705 H690 0.959 . S
C705 H691 0.961 . S
C705 C704 1.502 . S
C706 H692 0.960 . S
C706 H693 0.961 . S
C706 H694 0.959 . S
C706 C704 1.561 1_455 S
C707 C704 1.526 . S
C707 C708 1.396 . S
C707 C712 1.390 . S
C708 C702 1.465 . S
C708 C707 1.396 . S
C708 C709 1.399 . S
C709 H695 0.929 . S
C709 C708 1.399 . S
C709 C710 1.385 . S
C710 H696 0.931 . S
C710 C709 1.385 . S
C710 C711 1.389 . S
C711 C710 1.389 . S
C711 C712 1.387 . S
C712 H697 0.930 . S
C712 C707 1.390 . S
C712 C711 1.387 . S
H713 C725 0.930 1_545 S
H714 C727 0.930 . S
H715 C728 0.930 . S
H716 C732 0.930 1_565 S
H717 C732 0.977 . S
H718 C732 0.984 . S
H719 C733 0.960 . S
H720 C733 0.961 . S
H721 C733 0.959 . S
H722 C736 0.929 . S
H723 C737 0.931 . S
H724 C739 0.930 . S
C725 H713 0.930 1_565 S
C725 C726 1.399 . S
C725 C730 1.399 . S
C726 C725 1.399 . S
C726 C727 1.376 . S
C727 H714 0.930 . S
C727 C726 1.376 . S
C727 C728 1.388 . S
C728 H715 0.930 . S
C728 C727 1.388 . S
C728 C729 1.390 . S
C729 C728 1.390 . S
C729 C730 1.394 . S
C729 C735 1.465 . S
C730 C725 1.399 . S
C730 C729 1.394 . S
C730 C731 1.516 . S
C731 C730 1.516 . S
C731 C732 1.490 1_565 S
C731 C733 1.561 1_565 S
C731 C734 1.526 . S
C732 H716 0.930 1_545 S
C732 H717 0.977 . S
C732 H718 0.984 . S
C732 C731 1.490 1_545 S
C733 H719 0.960 . S
C733 H720 0.961 . S
C733 H721 0.959 . S
C733 C731 1.561 1_545 S
C734 C731 1.526 . S
C734 C735 1.396 . S
C734 C739 1.390 . S
C735 C729 1.465 . S
C735 C734 1.396 . S
C735 C736 1.399 . S
C736 H722 0.929 . S
C736 C735 1.399 . S
C736 C737 1.385 . S
C737 H723 0.931 . S
C737 C736 1.385 . S
C737 C738 1.389 . S
C738 C737 1.389 . S
C738 C739 1.387 . S
C739 H724 0.930 . S
C739 C734 1.390 . S
C739 C738 1.387 . S
H740 C752 0.930 . S
H741 C754 0.930 . S
H742 C755 0.930 . S
H743 C759 0.959 . S
H744 C759 0.959 . S
H745 C759 0.962 . S
H746 C760 0.960 . S
H747 C760 0.961 . S
H748 C760 0.959 . S
H749 C763 0.929 . S
H750 C764 0.931 . S
H751 C766 0.930 . S
C752 H740 0.930 . S
C752 C753 1.399 . S
C752 C757 1.399 . S
C753 C752 1.399 . S
C753 C754 1.376 . S
C754 H741 0.930 . S
C754 C753 1.376 . S
C754 C755 1.388 . S
C755 H742 0.930 . S
C755 C754 1.388 . S
C755 C756 1.390 . S
C756 C755 1.390 . S
C756 C757 1.394 . S
C756 C762 1.465 . S
C757 C752 1.399 . S
C757 C756 1.394 . S
C757 C758 1.516 . S
C758 C757 1.516 . S
C758 C759 1.502 . S
C758 C760 1.561 1_565 S
C758 C761 1.526 . S
C759 H743 0.959 . S
C759 H744 0.959 . S
C759 H745 0.962 . S
C759 C758 1.502 . S
C760 H746 0.960 . S
C760 H747 0.961 . S
C760 H748 0.959 . S
C760 C758 1.561 1_545 S
C761 C758 1.526 . S
C761 C762 1.396 . S
C761 C766 1.390 . S
C762 C756 1.465 . S
C762 C761 1.396 . S
C762 C763 1.399 . S
C763 H749 0.929 . S
C763 C762 1.399 . S
C763 C764 1.385 . S
C764 H750 0.931 . S
C764 C763 1.385 . S
C764 C765 1.389 . S
C765 C764 1.389 . S
C765 C766 1.387 . S
C766 H751 0.930 . S
C766 C761 1.390 . S
C766 C765 1.387 . S
H767 C779 0.930 . S
H768 C781 0.930 . S
H769 C782 0.930 . S
H770 C786 0.959 1_655 S
H771 C786 0.959 . S
H772 C786 0.961 . S
H773 C787 0.960 . S
H774 C787 0.961 . S
H775 C787 0.959 . S
H776 C790 0.929 . S
H777 C791 0.931 . S
H778 C793 0.930 . S
C779 H767 0.930 . S
C779 C780 1.399 . S
C779 C784 1.399 . S
C780 C779 1.399 . S
C780 C781 1.376 . S
C781 H768 0.930 . S
C781 C780 1.376 . S
C781 C782 1.388 . S
C782 H769 0.930 . S
C782 C781 1.388 . S
C782 C783 1.390 . S
C783 C782 1.390 . S
C783 C784 1.394 . S
C783 C789 1.465 . S
C784 C779 1.399 . S
C784 C783 1.394 . S
C784 C785 1.516 . S
C785 C784 1.516 . S
C785 C786 1.502 . S
C785 C787 1.561 . S
C785 C788 1.526 . S
C786 H770 0.959 1_455 S
C786 H771 0.959 . S
C786 H772 0.961 . S
C786 C785 1.502 . S
C787 H773 0.960 . S
C787 H774 0.961 . S
C787 H775 0.959 . S
C787 C785 1.561 . S
C788 C785 1.526 . S
C788 C789 1.396 . S
C788 C793 1.390 . S
C789 C783 1.465 . S
C789 C788 1.396 . S
C789 C790 1.399 . S
C790 H776 0.929 . S
C790 C789 1.399 . S
C790 C791 1.385 . S
C791 H777 0.931 . S
C791 C790 1.385 . S
C791 C792 1.389 . S
C792 C791 1.389 . S
C792 C793 1.387 . S
C793 H778 0.930 . S
C793 C788 1.390 . S
C793 C792 1.387 . S
H794 C806 0.930 1_565 S
H795 C808 0.930 . S
H796 C809 0.930 . S
H797 C813 0.959 1_545 S
H798 C813 0.959 . S
H799 C813 0.961 . S
H800 C814 0.960 . S
H801 C814 0.961 . S
H802 C814 0.959 1_545 S
H803 C817 0.929 . S
H804 C818 0.931 . S
H805 C820 0.930 . S
C806 H794 0.930 1_545 S
C806 C807 1.399 . S
C806 C811 1.399 . S
C807 C806 1.399 . S
C807 C808 1.376 . S
C808 H795 0.930 . S
C808 C807 1.376 . S
C808 C809 1.388 . S
C809 H796 0.930 . S
C809 C808 1.388 . S
C809 C810 1.390 . S
C810 C809 1.390 . S
C810 C811 1.394 . S
C810 C816 1.465 . S
C811 C806 1.399 . S
C811 C810 1.394 . S
C811 C812 1.516 . S
C812 C811 1.516 . S
C812 C813 1.502 1_545 S
C812 C814 1.561 1_545 S
C812 C815 1.526 . S
C813 H797 0.959 1_565 S
C813 H798 0.959 . S
C813 H799 0.961 . S
C813 C812 1.502 1_565 S
C814 H800 0.960 . S
C814 H801 0.961 . S
C814 H802 0.959 1_565 S
C814 C812 1.561 1_565 S
C815 C812 1.526 . S
C815 C816 1.396 . S
C815 C820 1.390 . S
C816 C810 1.465 . S
C816 C815 1.396 . S
C816 C817 1.399 . S
C817 H803 0.929 . S
C817 C816 1.399 . S
C817 C818 1.385 . S
C818 H804 0.931 . S
C818 C817 1.385 . S
C818 C819 1.389 . S
C819 C818 1.389 . S
C819 C820 1.387 . S
C820 H805 0.930 . S
C820 C815 1.390 . S
C820 C819 1.387 . S
H821 C833 0.930 . S
H822 C835 0.930 . S
H823 C836 0.930 . S
H824 C840 0.960 . S
H825 C840 0.959 . S
H826 C840 0.961 . S
H827 C841 0.960 . S
H828 C841 0.961 . S
H829 C841 0.959 . S
H830 C844 0.929 . S
H831 C845 0.931 . S
H832 C847 0.930 . S
C833 H821 0.930 . S
C833 C834 1.399 . S
C833 C838 1.399 . S
C834 C833 1.399 . S
C834 C835 1.376 . S
C835 H822 0.930 . S
C835 C834 1.376 . S
C835 C836 1.388 . S
C836 H823 0.930 . S
C836 C835 1.388 . S
C836 C837 1.390 . S
C837 C836 1.390 . S
C837 C838 1.394 . S
C837 C843 1.465 . S
C838 C833 1.399 . S
C838 C837 1.394 . S
C838 C839 1.516 . S
C839 C838 1.516 . S
C839 C840 1.500 1_655 S
C839 C841 1.561 . S
C839 C842 1.526 . S
C840 H824 0.960 . S
C840 H825 0.959 . S
C840 H826 0.961 . S
C840 C839 1.500 1_455 S
C841 H827 0.960 . S
C841 H828 0.961 . S
C841 H829 0.959 . S
C841 C839 1.561 . S
C842 C839 1.526 . S
C842 C843 1.396 . S
C842 C847 1.390 . S
C843 C837 1.465 . S
C843 C842 1.396 . S
C843 C844 1.399 . S
C844 H830 0.929 . S
C844 C843 1.399 . S
C844 C845 1.385 . S
C845 H831 0.931 . S
C845 C844 1.385 . S
C845 C846 1.389 . S
C846 C845 1.389 . S
C846 C847 1.387 . S
C847 H832 0.930 . S
C847 C842 1.390 . S
C847 C846 1.387 . S
H848 C860 0.930 . S
H849 C862 0.930 . S
H850 C863 0.930 . S
H851 C867 0.959 . S
H852 C867 0.959 . S
H853 C867 0.961 . S
H854 C868 0.960 . S
H855 C868 0.961 . S
H856 C868 0.959 . S
H857 C871 0.929 . S
H858 C872 0.931 . S
H859 C874 0.930 . S
C860 H848 0.930 . S
C860 C861 1.399 . S
C860 C865 1.399 . S
C861 C860 1.399 . S
C861 C862 1.376 . S
C862 H849 0.930 . S
C862 C861 1.376 . S
C862 C863 1.388 . S
C863 H850 0.930 . S
C863 C862 1.388 . S
C863 C864 1.390 . S
C864 C863 1.390 . S
C864 C865 1.394 . S
C864 C870 1.465 . S
C865 C860 1.399 . S
C865 C864 1.394 . S
C865 C866 1.516 . S
C866 C865 1.516 . S
C866 C867 1.502 . S
C866 C868 1.561 . S
C866 C869 1.526 . S
C867 H851 0.959 . S
C867 H852 0.959 . S
C867 H853 0.961 . S
C867 C866 1.502 . S
C868 H854 0.960 . S
C868 H855 0.961 . S
C868 H856 0.959 . S
C868 C866 1.561 . S
C869 C866 1.526 . S
C869 C870 1.396 . S
C869 C874 1.390 . S
C870 C864 1.465 . S
C870 C869 1.396 . S
C870 C871 1.399 . S
C871 H857 0.929 . S
C871 C870 1.399 . S
C871 C872 1.385 . S
C872 H858 0.931 . S
C872 C871 1.385 . S
C872 C873 1.389 . S
C873 C872 1.389 . S
C873 C874 1.387 . S
C874 H859 0.930 . S
C874 C869 1.390 . S
C874 C873 1.387 . S
H875 C887 0.930 . S
H876 C889 0.930 . S
H877 C890 0.930 . S
H878 C894 0.959 . S
H879 C894 0.959 . S
H880 C894 0.961 . S
H881 C895 0.960 . S
H882 C895 0.961 . S
H883 C895 0.959 . S
H884 C898 0.929 . S
H885 C899 0.931 . S
H886 C901 0.930 . S
C887 H875 0.930 . S
C887 C888 1.399 . S
C887 C892 1.399 . S
C888 C887 1.399 . S
C888 C889 1.376 . S
C889 H876 0.930 . S
C889 C888 1.376 . S
C889 C890 1.388 . S
C890 H877 0.930 . S
C890 C889 1.388 . S
C890 C891 1.390 . S
C891 C890 1.390 . S
C891 C892 1.394 . S
C891 C897 1.465 . S
C892 C887 1.399 . S
C892 C891 1.394 . S
C892 C893 1.516 . S
C893 C892 1.516 . S
C893 C894 1.502 . S
C893 C895 1.561 . S
C893 C896 1.526 . S
C894 H878 0.959 . S
C894 H879 0.959 . S
C894 H880 0.961 . S
C894 C893 1.502 . S
C895 H881 0.960 . S
C895 H882 0.961 . S
C895 H883 0.959 . S
C895 C893 1.561 . S
C896 C893 1.526 . S
C896 C897 1.396 . S
C896 C901 1.390 . S
C897 C891 1.465 . S
C897 C896 1.396 . S
C897 C898 1.399 . S
C898 H884 0.929 . S
C898 C897 1.399 . S
C898 C899 1.385 . S
C899 H885 0.931 . S
C899 C898 1.385 . S
C899 C900 1.389 . S
C900 C899 1.389 . S
C900 C901 1.387 . S
C901 H886 0.930 . S
C901 C896 1.390 . S
C901 C900 1.387 . S
H902 C914 0.930 . S
H903 C916 0.930 . S
H904 C917 0.930 . S
H905 C921 0.959 . S
H906 C921 0.959 . S
H907 C921 0.961 . S
H908 C922 0.960 . S
H909 C922 0.961 . S
H910 C922 0.959 . S
H911 C925 0.929 . S
H912 C926 0.931 . S
H913 C928 0.930 . S
C914 H902 0.930 . S
C914 C915 1.399 . S
C914 C919 1.399 . S
C915 C914 1.399 . S
C915 C916 1.376 . S
C916 H903 0.930 . S
C916 C915 1.376 . S
C916 C917 1.388 . S
C917 H904 0.930 . S
C917 C916 1.388 . S
C917 C918 1.390 . S
C918 C917 1.390 . S
C918 C919 1.394 . S
C918 C924 1.465 . S
C919 C914 1.399 . S
C919 C918 1.394 . S
C919 C920 1.516 . S
C920 C919 1.516 . S
C920 C921 1.502 . S
C920 C922 1.561 . S
C920 C923 1.526 . S
C921 H905 0.959 . S
C921 H906 0.959 . S
C921 H907 0.961 . S
C921 C920 1.502 . S
C922 H908 0.960 . S
C922 H909 0.961 . S
C922 H910 0.959 . S
C922 C920 1.561 . S
C923 C920 1.526 . S
C923 C924 1.396 . S
C923 C928 1.390 . S
C924 C918 1.465 . S
C924 C923 1.396 . S
C924 C925 1.399 . S
C925 H911 0.929 . S
C925 C924 1.399 . S
C925 C926 1.385 . S
C926 H912 0.931 . S
C926 C925 1.385 . S
C926 C927 1.389 . S
C927 C926 1.389 . S
C927 C928 1.387 . S
C928 H913 0.930 . S
C928 C923 1.390 . S
C928 C927 1.387 . S
H929 C941 0.930 . S
H930 C943 0.930 . S
H931 C944 0.930 . S
H932 C948 0.959 . S
H933 C948 0.959 . S
H934 C948 0.961 . S
H935 C949 0.960 . S
H936 C949 0.961 . S
H937 C949 0.959 . S
H938 C952 0.929 . S
H939 C953 0.931 . S
H940 C955 0.930 . S
C941 H929 0.930 . S
C941 C942 1.399 . S
C941 C946 1.399 . S
C942 C941 1.399 . S
C942 C943 1.376 . S
C943 H930 0.930 . S
C943 C942 1.376 . S
C943 C944 1.388 . S
C944 H931 0.930 . S
C944 C943 1.388 . S
C944 C945 1.390 . S
C945 C944 1.390 . S
C945 C946 1.394 . S
C945 C951 1.465 . S
C946 C941 1.399 . S
C946 C945 1.394 . S
C946 C947 1.516 . S
C947 C946 1.516 . S
C947 C948 1.502 . S
C947 C949 1.561 . S
C947 C950 1.526 . S
C948 H932 0.959 . S
C948 H933 0.959 . S
C948 H934 0.961 . S
C948 C947 1.502 . S
C949 H935 0.960 . S
C949 H936 0.961 . S
C949 H937 0.959 . S
C949 C947 1.561 . S
C950 C947 1.526 . S
C950 C951 1.396 . S
C950 C955 1.390 . S
C951 C945 1.465 . S
C951 C950 1.396 . S
C951 C952 1.399 . S
C952 H938 0.929 . S
C952 C951 1.399 . S
C952 C953 1.385 . S
C953 H939 0.931 . S
C953 C952 1.385 . S
C953 C954 1.389 . S
C954 C953 1.389 . S
C954 C955 1.387 . S
C955 H940 0.930 . S
C955 C950 1.390 . S
C955 C954 1.387 . S
H956 C968 0.930 . S
H957 C970 0.930 . S
H958 C971 0.930 . S
H959 C975 0.959 . S
H960 C975 0.959 . S
H961 C975 0.961 . S
H962 C976 0.960 . S
H963 C976 0.961 . S
H964 C976 0.959 . S
H965 C979 0.929 . S
H966 C980 0.931 . S
H967 C982 0.930 . S
C968 H956 0.930 . S
C968 C969 1.399 . S
C968 C973 1.399 . S
C969 C968 1.399 . S
C969 C970 1.376 . S
C970 H957 0.930 . S
C970 C969 1.376 . S
C970 C971 1.388 . S
C971 H958 0.930 . S
C971 C970 1.388 . S
C971 C972 1.390 . S
C972 C971 1.390 . S
C972 C973 1.394 . S
C972 C978 1.465 . S
C973 C968 1.399 . S
C973 C972 1.394 . S
C973 C974 1.516 . S
C974 C973 1.516 . S
C974 C975 1.502 . S
C974 C976 1.561 . S
C974 C977 1.526 . S
C975 H959 0.959 . S
C975 H960 0.959 . S
C975 H961 0.961 . S
C975 C974 1.502 . S
C976 H962 0.960 . S
C976 H963 0.961 . S
C976 H964 0.959 . S
C976 C974 1.561 . S
C977 C974 1.526 . S
C977 C978 1.396 . S
C977 C982 1.390 . S
C978 C972 1.465 . S
C978 C977 1.396 . S
C978 C979 1.399 . S
C979 H965 0.929 . S
C979 C978 1.399 . S
C979 C980 1.385 . S
C980 H966 0.931 . S
C980 C979 1.385 . S
C980 C981 1.389 . S
C981 C980 1.389 . S
C981 C982 1.387 . S
C982 H967 0.930 . S
C982 C977 1.390 . S
C982 C981 1.387 . S
H983 C995 0.930 . S
H984 C997 0.930 . S
H985 C998 0.930 . S
H986 C1002 0.959 . S
H987 C1002 0.959 . S
H988 C1002 0.961 . S
H989 C1003 0.960 . S
H990 C1003 0.961 . S
H991 C1003 0.959 . S
H992 C1006 0.929 . S
H993 C1007 0.931 . S
H994 C1009 0.930 . S
C995 H983 0.930 . S
C995 C996 1.399 . S
C995 C1000 1.399 . S
C996 C995 1.399 . S
C996 C997 1.376 . S
C997 H984 0.930 . S
C997 C996 1.376 . S
C997 C998 1.388 . S
C998 H985 0.930 . S
C998 C997 1.388 . S
C998 C999 1.390 . S
C999 C998 1.390 . S
C999 C1000 1.394 . S
C999 C1005 1.465 . S
C1000 C995 1.399 . S
C1000 C999 1.394 . S
C1000 C1001 1.516 . S
C1001 C1000 1.516 . S
C1001 C1002 1.502 . S
C1001 C1003 1.561 . S
C1001 C1004 1.526 . S
C1002 H986 0.959 . S
C1002 H987 0.959 . S
C1002 H988 0.961 . S
C1002 C1001 1.502 . S
C1003 H989 0.960 . S
C1003 H990 0.961 . S
C1003 H991 0.959 . S
C1003 C1001 1.561 . S
C1004 C1001 1.526 . S
C1004 C1005 1.396 . S
C1004 C1009 1.390 . S
C1005 C999 1.465 . S
C1005 C1004 1.396 . S
C1005 C1006 1.399 . S
C1006 H992 0.929 . S
C1006 C1005 1.399 . S
C1006 C1007 1.385 . S
C1007 H993 0.931 . S
C1007 C1006 1.385 . S
C1007 C1008 1.389 . S
C1008 C1007 1.389 . S
C1008 C1009 1.387 . S
C1009 H994 0.930 . S
C1009 C1004 1.390 . S
C1009 C1008 1.387 . S
H1010 C1022 0.930 . S
H1011 C1024 0.930 . S
H1012 C1025 0.930 . S
H1013 C1029 0.959 . S
H1014 C1029 0.959 . S
H1015 C1029 0.961 . S
H1016 C1030 0.960 . S
H1017 C1030 0.961 . S
H1018 C1030 0.959 . S
H1019 C1033 0.929 . S
H1020 C1034 0.931 . S
H1021 C1036 0.930 . S
C1022 H1010 0.930 . S
C1022 C1023 1.399 . S
C1022 C1027 1.399 . S
C1023 C1022 1.399 . S
C1023 C1024 1.376 . S
C1024 H1011 0.930 . S
C1024 C1023 1.376 . S
C1024 C1025 1.388 . S
C1025 H1012 0.930 . S
C1025 C1024 1.388 . S
C1025 C1026 1.390 . S
C1026 C1025 1.390 . S
C1026 C1027 1.394 . S
C1026 C1032 1.465 . S
C1027 C1022 1.399 . S
C1027 C1026 1.394 . S
C1027 C1028 1.516 . S
C1028 C1027 1.516 . S
C1028 C1029 1.502 . S
C1028 C1030 1.561 . S
C1028 C1031 1.526 . S
C1029 H1013 0.959 . S
C1029 H1014 0.959 . S
C1029 H1015 0.961 . S
C1029 C1028 1.502 . S
C1030 H1016 0.960 . S
C1030 H1017 0.961 . S
C1030 H1018 0.959 . S
C1030 C1028 1.561 . S
C1031 C1028 1.526 . S
C1031 C1032 1.396 . S
C1031 C1036 1.390 . S
C1032 C1026 1.465 . S
C1032 C1031 1.396 . S
C1032 C1033 1.399 . S
C1033 H1019 0.929 . S
C1033 C1032 1.399 . S
C1033 C1034 1.385 . S
C1034 H1020 0.931 . S
C1034 C1033 1.385 . S
C1034 C1035 1.389 . S
C1035 C1034 1.389 . S
C1035 C1036 1.387 . S
C1036 H1021 0.930 . S
C1036 C1031 1.390 . S
C1036 C1035 1.387 . S
H1037 C1049 0.930 . S
H1038 C1051 0.930 . S
H1039 C1052 0.930 . S
H1040 C1056 0.959 . S
H1041 C1056 0.959 . S
H1042 C1056 0.961 . S
H1043 C1057 0.960 . S
H1044 C1057 0.961 . S
H1045 C1057 0.959 . S
H1046 C1060 0.929 . S
H1047 C1061 0.931 . S
H1048 C1063 0.930 . S
C1049 H1037 0.930 . S
C1049 C1050 1.399 . S
C1049 C1054 1.399 . S
C1050 C1049 1.399 . S
C1050 C1051 1.376 . S
C1051 H1038 0.930 . S
C1051 C1050 1.376 . S
C1051 C1052 1.388 . S
C1052 H1039 0.930 . S
C1052 C1051 1.388 . S
C1052 C1053 1.390 . S
C1053 C1052 1.390 . S
C1053 C1054 1.394 . S
C1053 C1059 1.465 . S
C1054 C1049 1.399 . S
C1054 C1053 1.394 . S
C1054 C1055 1.516 . S
C1055 C1054 1.516 . S
C1055 C1056 1.502 . S
C1055 C1057 1.561 . S
C1055 C1058 1.526 . S
C1056 H1040 0.959 . S
C1056 H1041 0.959 . S
C1056 H1042 0.961 . S
C1056 C1055 1.502 . S
C1057 H1043 0.960 . S
C1057 H1044 0.961 . S
C1057 H1045 0.959 . S
C1057 C1055 1.561 . S
C1058 C1055 1.526 . S
C1058 C1059 1.396 . S
C1058 C1063 1.390 . S
C1059 C1053 1.465 . S
C1059 C1058 1.396 . S
C1059 C1060 1.399 . S
C1060 H1046 0.929 . S
C1060 C1059 1.399 . S
C1060 C1061 1.385 . S
C1061 H1047 0.931 . S
C1061 C1060 1.385 . S
C1061 C1062 1.389 . S
C1062 C1061 1.389 . S
C1062 C1063 1.387 . S
C1063 H1048 0.930 . S
C1063 C1058 1.390 . S
C1063 C1062 1.387 . S
C429 C45 1.647 . S
C441 C125 1.613 . S
C456 C30 1.643 . S
C468 C164 1.619 . S
C483 C39 1.606 . S
C495 C203 1.649 . S
C522 C242 1.653 . S
C510 C34 1.601 . S
C537 C97 1.604 . S
C549 C281 1.644 . S
C576 C320 1.618 . S
C564 C82 1.643 . S
C603 C359 1.630 . S
C591 C91 1.649 . S
C630 C398 1.642 . S
C618 C86 1.636 . S
C657 C354 1.515 . S
C645 C26 1.530 . S
C684 C393 1.515 . S
C672 C36 1.531 . S
C711 C261 1.513 . S
C699 C32 1.525 . S
C738 C300 1.514 . S
C726 C42 1.533 . S
C753 C18 1.543 . S
C765 C315 1.640 . S
C792 C339 1.615 . S
C780 C50 1.611 . S
C807 C4 1.571 . S
C819 C378 1.630 . S
C834 C48 1.608 . S
C846 C276 1.610 . S
C873 C198 1.529 . S
C861 C78 1.490 . S
C888 C88 1.443 . S
C900 C237 1.562 . S
C927 C105 1.554 . S
C915 C84 1.477 . S
C954 C144 1.549 . S
C942 C94 1.463 . S
C981 C159 1.646 . S
C969 C70 1.534 . S
C1008 C183 1.617 . S
C996 C102 1.611 . S
C1023 C56 1.592 . S
C1035 C222 1.632 . S
C1050 C100 1.577 . S
C1062 C120 1.636 . S
