# Generated by pormake.
# Topology pyr, (3,6)-cn, num edge types: 1
# Building blocks:
#     Node 0, Type 0, BuildingBlock: BETDIP_clean_linker_0, # of connection points: 3
#     Node 1, Type 0, BuildingBlock: BETDIP_clean_linker_0, # of connection points: 3
#     Node 2, Type 0, BuildingBlock: BETDIP_clean_linker_0, # of connection points: 3
#     Node 3, Type 0, BuildingBlock: BETDIP_clean_linker_0, # of connection points: 3
#     Node 4, Type 0, BuildingBlock: BETDIP_clean_linker_0, # of connection points: 3
#     Node 5, Type 0, BuildingBlock: BETDIP_clean_linker_0, # of connection points: 3
#     Node 6, Type 0, BuildingBlock: BETDIP_clean_linker_0, # of connection points: 3
#     Node 7, Type 0, BuildingBlock: BETDIP_clean_linker_0, # of connection points: 3
#     Node 8, Type 1, BuildingBlock: BETFAJ_clean_sbu_0, # of connection points: 6
#     Node 9, Type 1, BuildingBlock: BETFAJ_clean_sbu_0, # of connection points: 6
#     Node 10, Type 1, BuildingBlock: BETFAJ_clean_sbu_0, # of connection points: 6
#     Node 11, Type 1, BuildingBlock: BETFAJ_clean_sbu_0, # of connection points: 6
#     Edge 12, Type (0, 1), BuildingBlock: ZUJKAS_clean_linker_0, # of connection points: 2
#     Edge 13, Type (0, 1), BuildingBlock: ZUJKAS_clean_linker_0, # of connection points: 2
#     Edge 14, Type (0, 1), BuildingBlock: ZUJKAS_clean_linker_0, # of connection points: 2
#     Edge 15, Type (0, 1), BuildingBlock: ZUJKAS_clean_linker_0, # of connection points: 2
#     Edge 16, Type (0, 1), BuildingBlock: ZUJKAS_clean_linker_0, # of connection points: 2
#     Edge 17, Type (0, 1), BuildingBlock: ZUJKAS_clean_linker_0, # of connection points: 2
#     Edge 18, Type (0, 1), BuildingBlock: ZUJKAS_clean_linker_0, # of connection points: 2
#     Edge 19, Type (0, 1), BuildingBlock: ZUJKAS_clean_linker_0, # of connection points: 2
#     Edge 20, Type (0, 1), BuildingBlock: ZUJKAS_clean_linker_0, # of connection points: 2
#     Edge 21, Type (0, 1), BuildingBlock: ZUJKAS_clean_linker_0, # of connection points: 2
#     Edge 22, Type (0, 1), BuildingBlock: ZUJKAS_clean_linker_0, # of connection points: 2
#     Edge 23, Type (0, 1), BuildingBlock: ZUJKAS_clean_linker_0, # of connection points: 2
#     Edge 24, Type (0, 1), BuildingBlock: ZUJKAS_clean_linker_0, # of connection points: 2
#     Edge 25, Type (0, 1), BuildingBlock: ZUJKAS_clean_linker_0, # of connection points: 2
#     Edge 26, Type (0, 1), BuildingBlock: ZUJKAS_clean_linker_0, # of connection points: 2
#     Edge 27, Type (0, 1), BuildingBlock: ZUJKAS_clean_linker_0, # of connection points: 2
#     Edge 28, Type (0, 1), BuildingBlock: ZUJKAS_clean_linker_0, # of connection points: 2
#     Edge 29, Type (0, 1), BuildingBlock: ZUJKAS_clean_linker_0, # of connection points: 2
#     Edge 30, Type (0, 1), BuildingBlock: ZUJKAS_clean_linker_0, # of connection points: 2
#     Edge 31, Type (0, 1), BuildingBlock: ZUJKAS_clean_linker_0, # of connection points: 2
#     Edge 32, Type (0, 1), BuildingBlock: ZUJKAS_clean_linker_0, # of connection points: 2
#     Edge 33, Type (0, 1), BuildingBlock: ZUJKAS_clean_linker_0, # of connection points: 2
#     Edge 34, Type (0, 1), BuildingBlock: ZUJKAS_clean_linker_0, # of connection points: 2
#     Edge 35, Type (0, 1), BuildingBlock: ZUJKAS_clean_linker_0, # of connection points: 2
# Relax obj value: 0.100
# Max RMSD: 0.175
# Mean RMSD: 0.137
data_MOF--net-pyr--node1-BETFAJ_clean_sbu_0--node2-BETDIP_clean_linker_0--edge1-ZUJKAS_clean_linker_0
_symmetry_space_group_name_H-M    P1
_symmetry_Int_Tables_number       1
_symmetry_cell_setting            triclinic
loop_
_symmetry_equiv_pos_as_xyz
'x, y, z'
_cell_length_a     49.274456
_cell_length_b     50.896212
_cell_length_c     48.082439
_cell_angle_alpha  92.233408
_cell_angle_beta   87.032011
_cell_angle_gamma 105.07383
loop_
_atom_site_label
_atom_site_type_symbol
_atom_site_fract_x
_atom_site_fract_y
_atom_site_fract_z
_atom_type_partial_charge
H0 H 0.29197 0.30108 0.22926 0.0
H1 H 0.34787 0.27717 0.1681 0.0
H2 H 0.32602 0.23409 0.24516 0.0
H3 H 0.31658 0.34467 0.21042 0.0
C4 C 0.31148 0.3372 0.18933 0.0
C5 C 0.30585 0.28835 0.22298 0.0
C6 C 0.30709 0.26696 0.23992 0.0
C7 C 0.32126 0.29252 0.19744 0.0
C8 C 0.33751 0.27465 0.18859 0.0
C9 C 0.33973 0.25341 0.20564 0.0
C10 C 0.32483 0.25025 0.23166 0.0
N11 N 0.31861 0.31308 0.17938 0.0
H12 H 0.24871 0.87001 0.66305 0.0
H13 H 0.25809 0.82749 0.58557 0.0
H14 H 0.32979 0.85986 0.63507 0.0
H15 H 0.21171 0.81577 0.58615 0.0
C16 C 0.20496 0.83155 0.59826 0.0
C17 C 0.26198 0.86246 0.64775 0.0
C18 C 0.29084 0.86697 0.65181 0.0
C19 C 0.24985 0.84808 0.62419 0.0
C20 C 0.26687 0.83814 0.60424 0.0
C21 C 0.29573 0.84223 0.60812 0.0
C22 C 0.30755 0.85677 0.63189 0.0
N23 N 0.22082 0.84542 0.62072 0.0
H24 H 0.69116 0.40503 0.8413 0.0
H25 H 0.62014 0.33454 0.83898 0.0
H26 H 0.68278 0.34138 0.89979 0.0
H27 H 0.60854 0.35222 0.80153 0.0
C28 C 0.62126 0.37273 0.79795 0.0
C29 C 0.67975 0.38546 0.84936 0.0
C30 C 0.68996 0.37506 0.87227 0.0
C31 C 0.65462 0.37128 0.83698 0.0
C32 C 0.63963 0.34576 0.84779 0.0
C33 C 0.64948 0.33483 0.87078 0.0
C34 C 0.67462 0.3498 0.88267 0.0
N35 N 0.64525 0.38386 0.8143 0.0
H36 H 0.81634 0.64382 0.34771 0.0
H37 H 0.88593 0.71499 0.33998 0.0
H38 H 0.82529 0.70975 0.40817 0.0
H39 H 0.89218 0.69921 0.29765 0.0
C40 C 0.88229 0.67754 0.29645 0.0
C41 C 0.82753 0.66383 0.35532 0.0
C42 C 0.81789 0.67494 0.37989 0.0
C43 C 0.85176 0.67808 0.3405 0.0
C44 C 0.86673 0.70389 0.35057 0.0
C45 C 0.85739 0.71527 0.37519 0.0
C46 C 0.83297 0.70068 0.38963 0.0
N47 N 0.86065 0.66524 0.31616 0.0
H48 H 0.6663 0.78735 0.89656 0.0
H49 H 0.72542 0.76965 0.83461 0.0
H50 H 0.69895 0.84337 0.83059 0.0
H51 H 0.69929 0.72422 0.84712 0.0
C52 C 0.70336 0.72916 0.86897 0.0
C53 C 0.6793 0.79287 0.87774 0.0
C54 C 0.68001 0.8172 0.86443 0.0
C55 C 0.69517 0.77541 0.86683 0.0
C56 C 0.71244 0.78265 0.84271 0.0
C57 C 0.71397 0.80714 0.8295 0.0
C58 C 0.69733 0.82409 0.84024 0.0
N59 N 0.69535 0.75184 0.88166 0.0
H60 H 0.75387 0.18418 0.39924 0.0
H61 H 0.74456 0.21878 0.48099 0.0
H62 H 0.69338 0.23111 0.41581 0.0
H63 H 0.78825 0.21644 0.4853 0.0
C64 C 0.79052 0.19882 0.47286 0.0
C65 C 0.74376 0.19624 0.41331 0.0
C66 C 0.72214 0.20669 0.40414 0.0
C67 C 0.75258 0.20115 0.44065 0.0
C68 C 0.73894 0.21585 0.45944 0.0
C69 C 0.71738 0.22648 0.45065 0.0
C70 C 0.70925 0.22198 0.42295 0.0
N71 N 0.77482 0.19048 0.44865 0.0
H72 H 0.32105 0.66054 0.21469 0.0
H73 H 0.39292 0.73018 0.21497 0.0
H74 H 0.32777 0.72462 0.15713 0.0
H75 H 0.40453 0.71314 0.25285 0.0
C76 C 0.39161 0.69279 0.25686 0.0
C77 C 0.33247 0.67993 0.20624 0.0
C78 C 0.32128 0.69078 0.18427 0.0
C79 C 0.35797 0.69398 0.21801 0.0
C80 C 0.37291 0.71939 0.2069 0.0
C81 C 0.36234 0.73065 0.18458 0.0
C82 C 0.33635 0.71616 0.1739 0.0
N83 N 0.36761 0.68149 0.24058 0.0
H84 H 0.13061 0.33334 0.71909 0.0
H85 H 0.19468 0.40868 0.71119 0.0
H86 H 0.19158 0.34419 0.65032 0.0
H87 H 0.1878 0.41168 0.75712 0.0
C88 C 0.16534 0.40325 0.76078 0.0
C89 C 0.14888 0.34575 0.70799 0.0
C90 C 0.15922 0.33582 0.68306 0.0
C91 C 0.16187 0.37174 0.71871 0.0
C92 C 0.1852 0.38812 0.70395 0.0
C93 C 0.19605 0.37837 0.67922 0.0
C94 C 0.18289 0.3522 0.66896 0.0
N95 N 0.15053 0.38112 0.74388 0.0
Sm96 Sm 0.01678 0.03904 0.49908 0.0
Sm97 Sm 0.01296 1.01126 0.55532 0.0
C98 C 0.01855 0.07332 0.45875 0.0
C99 C 0.04133 0.09576 0.44795 0.0
C100 C 0.03547 0.11585 0.43195 0.0
C101 C 0.05746 0.13664 0.42098 0.0
C102 C 0.08567 0.13751 0.42576 0.0
C103 C 0.09124 0.11756 0.44244 0.0
C104 C 0.06929 0.09702 0.45355 0.0
C105 C 0.05773 1.01243 0.50606 0.0
C106 C 0.04804 0.07339 0.55371 0.0
C107 C 0.01113 0.97805 0.59676 0.0
C108 C 0.98812 0.95768 0.61027 0.0
C109 C 0.99191 0.94728 0.63589 0.0
C110 C 0.96903 0.93051 0.65047 0.0
C111 C 0.942 0.92403 0.63966 0.0
C112 C 0.93861 0.93374 0.6134 0.0
C113 C 0.96148 0.95046 0.59886 0.0
C114 C 0.97152 0.03716 0.54783 0.0
C115 C 0.98247 0.97664 0.50042 0.0
O116 O 0.00885 0.07704 0.48404 0.0
O117 O 0.02247 0.04901 0.4544 0.0
O118 O 0.0485 0.02659 0.52434 0.0
O119 O 0.04721 1.01398 0.48222 0.0
O120 O 0.03553 0.07416 0.53019 0.0
O121 O 0.04697 0.05007 0.56536 0.0
O122 O 0.01809 0.9724 0.57102 0.0
O123 O 0.00945 1.00316 0.60047 0.0
O124 O 0.98106 1.0231 0.52978 0.0
O125 O 0.98213 0.03621 0.57173 0.0
O126 O 0.99484 0.97598 0.52408 0.0
O127 O 0.98338 0.99991 0.48868 0.0
H128 H 0.01394 0.11532 0.42772 0.0
H129 H 0.05237 0.1519 0.40863 0.0
H130 H 0.11262 0.11722 0.44624 0.0
H131 H 0.07418 0.08174 0.4661 0.0
H132 H 0.01236 0.95276 0.64499 0.0
H133 H 0.9724 0.92305 0.67046 0.0
H134 H 0.91806 0.92943 0.60463 0.0
H135 H 0.95819 0.95856 0.57916 0.0
Sm136 Sm 0.53215 0.0426 0.04697 0.0
Sm137 Sm 0.48252 0.027 1.01422 0.0
C138 C 0.57733 0.06549 0.07519 0.0
C139 C 0.58798 0.08805 0.09516 0.0
C140 C 0.61459 0.10583 0.09009 0.0
C141 C 0.62692 0.12474 0.11062 0.0
C142 C 0.61297 0.12593 0.13675 0.0
C143 C 0.58557 0.10914 0.14107 0.0
C144 C 0.57314 0.0905 0.12044 0.0
C145 C 0.5007 0.98988 0.05743 0.0
C146 C 0.47896 0.06536 0.0694 0.0
C147 C 0.43343 1.00878 0.99087 0.0
C148 C 0.4241 1.00078 0.96266 0.0
C149 C 0.44334 0.99684 0.9414 0.0
C150 C 0.43431 0.98934 0.9145 0.0
C151 C 0.40594 0.98582 0.90847 0.0
C152 C 0.38683 0.99003 0.92987 0.0
C153 C 0.39587 0.99744 0.95678 0.0
C154 C 0.52277 0.07081 0.99193 0.0
C155 C 0.53533 1.005 0.99274 0.0
O156 O 0.5746 0.07164 0.04949 0.0
O157 O 0.55699 0.04527 0.0843 0.0
O158 O 0.49059 1.01016 0.05515 0.0
O159 O 0.52779 0.9971 0.05356 0.0
O160 O 0.50523 0.06563 0.07352 0.0
O161 O 0.46522 0.05116 0.04872 0.0
O162 O 0.44646 0.99293 1.00238 0.0
O163 O 0.44545 0.03462 0.99491 0.0
O164 O 0.51553 0.06776 1.01746 0.0
O165 O 0.50902 0.05008 0.97737 0.0
O166 O 0.5077 0.998 0.99554 0.0
O167 O 0.55007 0.02613 1.0069 0.0
H168 H 0.62632 0.1044 0.07064 0.0
H169 H 0.64778 0.13776 0.10633 0.0
H170 H 0.57422 0.10919 0.16096 0.0
H171 H 0.55245 0.07719 0.12485 0.0
H172 H 0.46531 0.99958 0.94563 0.0
H173 H 0.44955 0.98653 0.89837 0.0
H174 H 0.36479 0.98715 0.92592 0.0
H175 H 0.38082 1.00049 0.97302 0.0
Sm176 Sm 0.50864 0.51207 0.50951 0.0
Sm177 Sm 0.50115 0.55639 0.54968 0.0
C178 C 0.52904 0.476 0.48024 0.0
C179 C 0.54519 0.45709 0.48784 0.0
C180 C 0.56287 0.46329 0.51045 0.0
C181 C 0.57684 0.44459 0.51884 0.0
C182 C 0.57369 0.41946 0.50451 0.0
C183 C 0.55618 0.41349 0.4816 0.0
C184 C 0.54193 0.43213 0.47345 0.0
C185 C 0.4557 0.50327 0.53384 0.0
C186 C 0.52555 0.51052 0.57609 0.0
C187 C 0.4821 0.59349 0.57855 0.0
C188 C 0.47047 0.61582 0.57064 0.0
C189 C 0.45056 0.61184 0.54994 0.0
C190 C 0.4405 0.63348 0.54186 0.0
C191 C 0.45036 0.65948 0.55416 0.0
C192 C 0.4705 0.66347 0.57464 0.0
C193 C 0.48042 0.64177 0.58284 0.0
C194 C 0.55411 0.56485 0.52537 0.0
C195 C 0.48367 0.55778 0.48316 0.0
O196 O 0.54211 0.50187 0.48201 0.0
O197 O 0.50312 0.47066 0.4904 0.0
O198 O 0.47834 0.51227 0.54621 0.0
O199 O 0.46043 0.49759 0.50774 0.0
O200 O 0.52932 0.503 0.54973 0.0
O201 O 0.51195 0.52931 0.58239 0.0
O202 O 0.46672 0.56873 0.57373 0.0
O203 O 0.5088 0.59648 0.57203 0.0
O204 O 0.53145 0.55619 0.51301 0.0
O205 O 0.54941 0.57038 0.55149 0.0
O206 O 0.48118 0.56635 0.50938 0.0
O207 O 0.49608 0.53809 0.47693 0.0
H208 H 0.56579 0.48254 0.52179 0.0
H209 H 0.5899 0.44975 0.53671 0.0
H210 H 0.55375 0.39458 0.46971 0.0
H211 H 0.52833 0.42704 0.45596 0.0
H212 H 0.44282 0.59207 0.53989 0.0
H213 H 0.42512 0.62992 0.5259 0.0
H214 H 0.47814 0.68324 0.58472 0.0
H215 H 0.49592 0.64526 0.59869 0.0
Sm216 Sm 0.01012 0.50237 0.03296 0.0
Sm217 Sm 1.00561 0.55895 1.01815 0.0
C218 C 0.02626 0.45706 0.0379 0.0
C219 C 0.0493 0.44867 0.05004 0.0
C220 C 0.05214 0.42228 0.04468 0.0
C221 C 0.0747 0.41432 0.05497 0.0
C222 C 0.09494 0.43273 0.07072 0.0
C223 C 0.09177 0.45917 0.07628 0.0
C224 C 0.0691 0.46705 0.06604 0.0
C225 C 0.9829 0.52751 0.07272 0.0
C226 C 0.06201 0.55709 0.04898 0.0
C227 C 0.98969 0.60417 1.01207 0.0
C228 C 0.96575 0.61198 1.00094 0.0
C229 C 0.93874 0.59405 1.00159 0.0
C230 C 0.91616 0.60186 0.99111 0.0
C231 C 0.92022 0.62772 0.97973 0.0
C232 C 0.94738 0.64552 0.979 0.0
C233 C 0.96993 0.6377 0.98953 0.0
C234 C 0.0335 0.53398 0.9789 0.0
C235 C 0.95363 0.50442 1.00264 0.0
O236 O 0.03337 0.47282 1.01645 0.0
O237 O 0.00829 0.46457 0.05541 0.0
O238 O 1.00487 0.53868 0.05872 0.0
O239 O 0.975 0.50152 0.06706 0.0
O240 O 0.05422 0.53037 0.04405 0.0
O241 O 0.04538 0.5727 0.04352 0.0
O242 O 0.98449 0.59006 0.0348 0.0
O243 O 1.00622 0.59545 0.99387 0.0
O244 O 0.01114 0.52274 0.99231 0.0
O245 O 0.04151 0.55986 0.98506 0.0
O246 O 0.96114 0.53099 1.00833 0.0
O247 O 0.97061 0.48891 1.00718 0.0
H248 H 0.03699 0.40785 0.03236 0.0
H249 H 0.0762 0.39369 0.0507 0.0
H250 H 0.10709 0.47395 0.08807 0.0
H251 H 0.06716 0.48753 0.07036 0.0
H252 H 0.9351 0.57406 1.01026 0.0
H253 H 0.89558 0.58756 0.99167 0.0
H254 H 0.95114 0.66569 0.97069 0.0
H255 H 0.99063 0.6518 0.98889 0.0
H256 H 0.31869 0.25554 0.29269 0.0
H257 H 0.28476 0.24049 0.33176 0.0
H258 H 0.21723 0.24687 0.28091 0.0
H259 H 0.25093 0.26246 0.24231 0.0
H260 H 0.21012 0.26528 0.3334 0.0
H261 H 0.23416 0.1644 0.33473 0.0
H262 H 0.26355 0.19307 0.3407 0.0
H263 H 0.24762 0.18822 0.30743 0.0
C264 C 0.29661 0.2539 0.29004 0.0
C265 C 0.28741 0.26012 0.2645 0.0
C266 C 0.27726 0.24522 0.31227 0.0
C267 C 0.24839 0.24208 0.30907 0.0
C268 C 0.23938 0.24916 0.28388 0.0
H269 H 0.08862 0.15746 0.37326 0.0
H270 H 0.12925 0.18712 0.34916 0.0
C271 C 0.25868 0.25812 0.26184 0.0
C272 C 0.22713 0.23025 0.3312 0.0
H273 H 0.19865 0.17168 0.36625 0.0
C274 C 0.2078 0.24492 0.3408 0.0
C275 C 0.22406 0.20361 0.34076 0.0
C276 C 0.24326 0.18626 0.33025 0.0
C277 C 0.18503 0.23337 0.35905 0.0
C278 C 0.18165 0.20658 0.36795 0.0
C279 C 0.20154 0.19231 0.35938 0.0
C280 C 0.15626 0.19196 0.38403 0.0
C281 C 0.16432 0.24951 0.36824 0.0
C282 C 0.15801 0.18527 0.41174 0.0
C283 C 0.13466 0.16864 0.4258 0.0
C284 C 0.10933 0.158 0.41217 0.0
C285 C 0.10754 0.16555 0.3846 0.0
C286 C 0.13079 0.18242 0.37071 0.0
H287 H 0.1726 0.27148 0.36382 0.0
H288 H 0.14461 0.24156 0.35698 0.0
H289 H 0.15896 0.24724 0.39089 0.0
H290 H 0.17759 0.19245 0.42227 0.0
H291 H 0.13667 0.16369 0.44716 0.0
H292 H 0.32875 0.8541 0.68483 0.0
H293 H 0.34932 0.87862 0.72662 0.0
H294 H 0.302 0.93793 0.71777 0.0
H295 H 0.28151 0.91369 0.6757 0.0
H296 H 0.38087 0.93467 0.73261 0.0
H297 H 0.28144 0.91008 0.79804 0.0
H298 H 0.28571 0.89185 0.76583 0.0
H299 H 0.27998 0.92524 0.76519 0.0
C300 C 0.32291 0.87251 0.69161 0.0
C301 C 0.30345 0.88194 0.67703 0.0
C302 C 0.3346 0.88641 0.71552 0.0
C303 C 0.32691 0.90986 0.72535 0.0
C304 C 0.3078 0.91959 0.7107 0.0
H305 H 0.37007 1.00553 0.87867 0.0
H306 H 0.35222 0.98969 0.83273 0.0
C307 C 0.29609 0.9057 0.68676 0.0
C308 C 0.33884 0.92394 0.7511 0.0
H309 H 0.3216 0.93798 0.81864 0.0
C310 C 0.36795 0.93551 0.75143 0.0
C311 C 0.32183 0.92504 0.77547 0.0
C312 C 0.29052 0.91224 0.77636 0.0
C313 C 0.3806 0.94813 0.77566 0.0
C314 C 0.36368 0.94862 0.80025 0.0
C315 C 0.33448 0.93755 0.79972 0.0
C316 C 0.37589 0.95939 0.82712 0.0
C317 C 0.41189 0.96094 0.77467 0.0
C318 C 0.39499 0.94749 0.83917 0.0
C319 C 0.40515 0.95643 0.86537 0.0
C320 C 0.39616 0.97726 0.88011 0.0
C321 C 0.37715 0.98926 0.86791 0.0
C322 C 0.36706 0.98035 0.84165 0.0
H323 H 0.42012 0.96608 0.75306 0.0
H324 H 0.41723 0.97972 0.78801 0.0
H325 H 0.42279 0.94631 0.78241 0.0
H326 H 0.40149 0.93079 0.82861 0.0
H327 H 0.41941 0.9465 0.87444 0.0
H328 H 0.5776 0.35517 0.76377 0.0
H329 H 0.56309 0.37927 0.72647 0.0
H330 H 0.63111 0.44978 0.74352 0.0
H331 H 0.64601 0.42545 0.78064 0.0
H332 H 0.54469 0.42432 0.72716 0.0
H333 H 0.64226 0.44192 0.66013 0.0
H334 H 0.63564 0.4192 0.68901 0.0
H335 H 0.64796 0.45537 0.69502 0.0
C336 C 0.5896 0.37578 0.7595 0.0
C337 C 0.61308 0.38822 0.7752 0.0
C338 C 0.58123 0.38962 0.73812 0.0
C339 C 0.59613 0.41637 0.7316 0.0
C340 C 0.61952 0.42899 0.74747 0.0
H341 H 0.52543 0.523 0.6324 0.0
H342 H 0.54273 0.50113 0.66969 0.0
C343 C 0.62795 0.41508 0.76892 0.0
C344 C 0.58659 0.43096 0.70875 0.0
H345 H 0.60778 0.46365 0.64721 0.0
C346 C 0.55857 0.43292 0.70972 0.0
C347 C 0.60435 0.44194 0.68556 0.0
C348 C 0.63414 0.43932 0.68211 0.0
C349 C 0.54801 0.44558 0.6886 0.0
C350 C 0.56599 0.45728 0.66582 0.0
C351 C 0.59393 0.45506 0.66467 0.0
C352 C 0.55606 0.47132 0.64278 0.0
C353 C 0.51735 0.44558 0.69059 0.0
C354 C 0.55844 0.4627 0.61478 0.0
C355 C 0.54872 0.4754 0.59325 0.0
C356 C 0.53643 0.49725 0.599 0.0
C357 C 0.53449 0.50614 0.627 0.0
C358 C 0.54428 0.49347 0.64851 0.0
H359 H 0.50484 0.42937 0.70435 0.0
H360 H 0.51533 0.46544 0.69955 0.0
H361 H 0.50815 0.44261 0.66974 0.0
H362 H 0.56749 0.44579 0.60955 0.0
H363 H 0.55059 0.46783 0.57209 0.0
H364 H 0.86115 0.62302 0.2841 0.0
H365 H 0.87699 0.59631 0.24618 0.0
H366 H 0.93906 0.6681 0.21869 0.0
H367 H 0.92341 0.69496 0.25671 0.0
H368 H 0.87961 0.60481 0.1873 0.0
H369 H 0.98459 0.61144 0.22827 0.0
H370 H 0.95621 0.61914 0.24954 0.0
H371 H 0.97638 0.6436 0.22545 0.0
C372 C 0.87819 0.63314 0.27002 0.0
C373 C 0.8912 0.66108 0.27341 0.0
C374 C 0.88717 0.61784 0.24835 0.0
C375 C 0.90941 0.63016 0.22988 0.0
C376 C 0.92216 0.65812 0.23301 0.0
H377 H 1.00064 0.58073 0.08879 0.0
H378 H 0.98101 0.60459 0.12655 0.0
C379 C 0.91315 0.67344 0.25462 0.0
C380 C 0.91922 0.61384 0.20724 0.0
H381 H 0.97654 0.59289 0.18251 0.0
C382 C 0.90073 0.60201 0.18628 0.0
C383 C 0.94676 0.61023 0.20608 0.0
C384 C 0.96711 0.62154 0.22864 0.0
C385 C 0.90935 0.58734 0.16367 0.0
C386 C 0.93703 0.58402 0.16234 0.0
C387 C 0.95535 0.59553 0.18354 0.0
C388 C 0.94783 0.56943 0.13875 0.0
C389 C 0.88911 0.57627 0.14097 0.0
C390 C 0.93568 0.54168 0.13308 0.0
C391 C 0.9468 0.52798 0.11134 0.0
C392 C 0.97034 0.54181 0.09513 0.0
C393 C 0.98239 0.56957 0.10085 0.0
C394 C 0.97126 0.58322 0.12246 0.0
H395 H 0.87137 0.58605 0.1417 0.0
H396 H 0.9 0.57932 0.12009 0.0
H397 H 0.8802 0.55409 0.14362 0.0
H398 H 0.91792 0.53051 0.14575 0.0
H399 H 0.93721 0.50655 0.10744 0.0
H400 H 0.32874 0.19878 0.21669 0.0
H401 H 0.35502 0.16663 0.20036 0.0
H402 H 0.41192 0.2293 0.15237 0.0
H403 H 0.38776 0.26252 0.17124 0.0
H404 H 0.36043 0.14701 0.15305 0.0
H405 H 0.46834 0.19795 0.18294 0.0
H406 H 0.43855 0.21016 0.19529 0.0
H407 H 0.45552 0.21984 0.1617 0.0
C408 C 0.34746 0.20621 0.20355 0.0
C409 C 0.35614 0.23363 0.1957 0.0
C410 C 0.3623 0.18753 0.19383 0.0
C411 C 0.38586 0.19548 0.17544 0.0
C412 C 0.39443 0.2227 0.16724 0.0
H413 H 0.43647 0.08636 0.05537 0.0
H414 H 0.41447 0.11688 0.08297 0.0
C415 C 0.38008 0.24164 0.17761 0.0
C416 C 0.39998 0.17481 0.16331 0.0
H417 H 0.46417 0.16321 0.14659 0.0
C418 C 0.38312 0.15047 0.15208 0.0
C419 C 0.42957 0.17879 0.16246 0.0
C420 C 0.44895 0.20297 0.17656 0.0
C421 C 0.39493 0.13054 0.13932 0.0
C422 C 0.42457 0.13562 0.13627 0.0
C423 C 0.44146 0.15946 0.1484 0.0
C424 C 0.43836 0.11707 0.1196 0.0
C425 C 0.37533 0.10412 0.12963 0.0
C426 C 0.46023 0.10796 0.13036 0.0
C427 C 0.47354 0.09107 0.11417 0.0
C428 C 0.4649 0.0827 0.08711 0.0
C429 C 0.44316 0.09194 0.07639 0.0
C430 C 0.43039 0.10928 0.09226 0.0
H431 H 0.35543 0.09928 0.14262 0.0
H432 H 0.36974 0.10608 0.10789 0.0
H433 H 0.3851 0.08683 0.13042 0.0
H434 H 0.46697 0.11388 0.15129 0.0
H435 H 0.49039 0.08439 0.12287 0.0
H436 H 0.17823 0.8664 0.62555 0.0
H437 H 0.14651 0.88957 0.60586 0.0
H438 H 0.14879 0.84429 0.52841 0.0
H439 H 0.18098 0.82098 0.54809 0.0
H440 H 0.16409 0.90087 0.52327 0.0
H441 H 0.064 0.86806 0.58539 0.0
H442 H 0.09394 0.87826 0.60676 0.0
H443 H 0.09033 0.84901 0.58361 0.0
C444 C 0.17157 0.86094 0.60451 0.0
C445 C 0.18221 0.84209 0.58817 0.0
C446 C 0.15322 0.87403 0.59338 0.0
C447 C 0.14511 0.86842 0.5658 0.0
C448 C 0.15468 0.84869 0.54983 0.0
H449 H 0.06861 0.97274 0.47104 0.0
H450 H 0.08862 0.93552 0.4829 0.0
C451 C 0.17296 0.83542 0.56105 0.0
C452 C 0.12978 0.88582 0.55291 0.0
H453 H 0.07226 0.91108 0.56276 0.0
C454 C 0.14372 0.90274 0.53143 0.0
C455 C 0.10332 0.88822 0.56377 0.0
C456 C 0.0869 0.86971 0.58598 0.0
C457 C 0.13266 0.92322 0.52164 0.0
C458 C 0.10679 0.92641 0.53341 0.0
C459 C 0.09222 0.90865 0.55398 0.0
C460 C 0.09525 0.94903 0.52583 0.0
C461 C 0.14942 0.94217 0.49992 0.0
C462 C 0.09224 0.96875 0.54613 0.0
C463 C 0.0808 0.98992 0.53945 0.0
C464 C 0.07209 0.99159 0.51239 0.0
C465 C 0.07542 0.97202 0.49199 0.0
C466 C 0.08682 0.95079 0.49871 0.0
H467 H 0.17139 0.94035 0.49714 0.0
H468 H 0.1393 0.93716 0.47963 0.0
H469 H 0.14995 0.96365 0.50562 0.0
H470 H 0.09864 0.96766 0.56718 0.0
H471 H 0.07833 1.0047 0.55557 0.0
H472 H 0.69957 0.38425 0.92796 0.0
H473 H 0.74327 0.40787 0.94987 0.0
H474 H 0.78493 0.42322 0.86878 0.0
H475 H 0.74094 0.4003 0.84679 0.0
H476 H 0.7916 0.39713 0.9509 0.0
H477 H 0.81077 0.49741 0.9025 0.0
H478 H 0.77807 0.47164 0.89936 0.0
H479 H 0.80815 0.47046 0.87685 0.0
C480 C 0.71799 0.39279 0.91475 0.0
C481 C 0.7166 0.39041 0.88554 0.0
C482 C 0.74307 0.40637 0.92734 0.0
C483 C 0.76761 0.4179 0.91115 0.0
C484 C 0.76629 0.41538 0.88193 0.0
H485 H 0.9362 0.45401 0.9773 0.0
H486 H 0.89172 0.43366 0.9554 0.0
C487 C 0.74107 0.40209 0.8693 0.0
C488 C 0.79462 0.43141 0.92495 0.0
H489 H 0.84905 0.48922 0.92622 0.0
C490 C 0.80401 0.41735 0.94554 0.0
C491 C 0.81089 0.45804 0.91854 0.0
C492 C 0.80132 0.47538 0.89833 0.0
C493 C 0.82906 0.42879 0.95942 0.0
C494 C 0.84605 0.45484 0.95201 0.0
C495 C 0.83644 0.46913 0.93179 0.0
C496 C 0.87367 0.46762 0.96504 0.0
C497 C 0.83657 0.41298 0.98246 0.0
C498 C 0.87925 0.49411 0.97695 0.0
C499 C 0.90507 0.50608 0.98913 0.0
C500 C 0.92602 0.49186 0.98981 0.0
C501 C 0.92051 0.46549 0.97762 0.0
C502 C 0.89486 0.45369 0.96517 0.0
H503 H 0.81762 0.3985 0.99164 0.0
H504 H 0.85098 0.4009 0.97382 0.0
H505 H 0.84717 0.42673 0.99936 0.0
H506 H 0.86348 0.5055 0.97707 0.0
H507 H 0.90848 0.5264 0.99821 0.0
H508 H 0.76787 0.64706 0.35828 0.0
H509 H 0.72412 0.62503 0.38392 0.0
H510 H 0.7652 0.64722 0.4616 0.0
H511 H 0.80905 0.66911 0.43618 0.0
H512 H 0.71207 0.58272 0.424 0.0
H513 H 0.69719 0.68067 0.46862 0.0
H514 H 0.72163 0.67902 0.43973 0.0
H515 H 0.73065 0.67448 0.47463 0.0
C516 C 0.76769 0.64693 0.3808 0.0
C517 C 0.79184 0.66005 0.39522 0.0
C518 C 0.74267 0.63443 0.3954 0.0
C519 C 0.74137 0.63491 0.42462 0.0
C520 C 0.76566 0.64713 0.43905 0.0
H521 H 0.60465 0.58611 0.5486 0.0
H522 H 0.65085 0.60081 0.5244 0.0
C523 C 0.79066 0.65965 0.4245 0.0
C524 C 0.71439 0.62329 0.44004 0.0
H525 H 0.66516 0.64047 0.48452 0.0
C526 C 0.70175 0.59529 0.43722 0.0
C527 C 0.70105 0.63982 0.45723 0.0
C528 C 0.71314 0.67021 0.46013 0.0
C529 C 0.6762 0.58328 0.45151 0.0
C530 C 0.66283 0.59984 0.46862 0.0
C531 C 0.67555 0.62781 0.47148 0.0
C532 C 0.63526 0.58884 0.48331 0.0
C533 C 0.66399 0.55293 0.44852 0.0
C534 C 0.61124 0.5772 0.46821 0.0
C535 C 0.58488 0.5688 0.48197 0.0
C536 C 0.58211 0.57211 0.51104 0.0
C537 C 0.60621 0.58336 0.52617 0.0
C538 C 0.63257 0.59174 0.5124 0.0
H539 H 0.68021 0.54235 0.44113 0.0
H540 H 0.65431 0.54421 0.46861 0.0
H541 H 0.64738 0.54875 0.43301 0.0
H542 H 0.61276 0.57531 0.4457 0.0
H543 H 0.5666 0.56029 0.4698 0.0
H544 H 0.29191 0.32361 0.13672 0.0
H545 H 0.25838 0.34238 0.11332 0.0
H546 H 0.25557 0.39687 0.1838 0.0
H547 H 0.28946 0.37858 0.20698 0.0
H548 H 0.20483 0.34054 0.13197 0.0
H549 H 0.26491 0.44802 0.11971 0.0
H550 H 0.28139 0.42169 0.1281 0.0
H551 H 0.26329 0.4371 0.15492 0.0
C552 C 0.28449 0.3399 0.147 0.0
C553 C 0.2933 0.34974 0.17364 0.0
C554 C 0.26532 0.35057 0.13364 0.0
C555 C 0.25476 0.3713 0.14663 0.0
C556 C 0.26393 0.38139 0.17306 0.0
H557 H 0.11885 0.44491 0.12149 0.0
H558 H 0.15836 0.43028 0.13865 0.0
C559 C 0.28316 0.37082 0.18635 0.0
C560 C 0.23258 0.38093 0.1336 0.0
H561 H 0.2153 0.43802 0.11371 0.0
C562 C 0.20724 0.3618 0.12766 0.0
C563 C 0.23573 0.40871 0.12813 0.0
C564 C 0.2629 0.43003 0.13279 0.0
C565 C 0.18469 0.3698 0.1171 0.0
C566 C 0.18768 0.39761 0.11208 0.0
C567 C 0.21308 0.41672 0.11771 0.0
C568 C 0.1645 0.40721 0.10119 0.0
C569 C 0.15753 0.34855 0.11211 0.0
C570 C 0.15525 0.39944 0.07429 0.0
C571 C 0.13285 0.40791 0.06434 0.0
C572 C 0.11926 0.42434 0.08112 0.0
C573 C 0.12898 0.43248 0.10792 0.0
C574 C 0.15146 0.42406 0.11782 0.0
H575 H 0.15666 0.32916 0.1224 0.0
H576 H 0.13918 0.35601 0.11986 0.0
H577 H 0.15562 0.34423 0.08939 0.0
H578 H 0.1654 0.38683 0.06098 0.0
H579 H 0.12632 0.40174 0.04339 0.0
H580 H 0.62419 0.28679 0.84298 0.0
H581 H 0.60186 0.24221 0.86294 0.0
H582 H 0.61832 0.27679 0.94551 0.0
H583 H 0.6399 0.32129 0.92588 0.0
H584 H 0.62534 0.21048 0.89569 0.0
H585 H 0.53578 0.23656 0.95439 0.0
H586 H 0.55655 0.25813 0.92795 0.0
H587 H 0.56927 0.25887 0.96246 0.0
C588 C 0.62261 0.28503 0.86541 0.0
C589 C 0.63396 0.30783 0.88271 0.0
C590 C 0.61 0.25942 0.87682 0.0
C591 C 0.60802 0.25598 0.90585 0.0
C592 C 0.61903 0.27878 0.92313 0.0
H593 H 0.54591 0.11972 1.01868 0.0
H594 H 0.56735 0.16396 0.99764 0.0
C595 C 0.6317 0.30429 0.91177 0.0
C596 C 0.59549 0.2285 0.91811 0.0
H597 H 0.54464 0.19425 0.96453 0.0
C598 C 0.60755 0.20691 0.91057 0.0
C599 C 0.57235 0.22365 0.93774 0.0
C600 C 0.55753 0.24544 0.94595 0.0
C601 C 0.59764 0.18103 0.92248 0.0
C602 C 0.57451 0.17618 0.94216 0.0
C603 C 0.56239 0.19777 0.9496 0.0
C604 C 0.56234 0.14889 0.95499 0.0
C605 C 0.61267 0.15936 0.91444 0.0
C606 C 0.55218 0.12543 0.93824 0.0
C607 C 0.54003 0.1001 0.95026 0.0
C608 C 0.53742 0.0975 0.97939 0.0
C609 C 0.54766 0.12092 0.99619 0.0
C610 C 0.55986 0.14629 0.98414 0.0
H611 H 0.63444 0.16835 0.90613 0.0
H612 H 0.61364 0.14672 0.93248 0.0
H613 H 0.60112 0.14587 0.89787 0.0
H614 H 0.55312 0.12677 0.91578 0.0
H615 H 0.5322 0.08259 0.93665 0.0
H616 H 0.87692 0.76226 0.34633 0.0
H617 H 0.89973 0.80776 0.3652 0.0
H618 H 0.89492 0.77507 0.44722 0.0
H619 H 0.8723 0.72966 0.42857 0.0
H620 H 0.87491 0.83585 0.41153 0.0
H621 H 0.97897 0.81983 0.43362 0.0
H622 H 0.95587 0.7988 0.40885 0.0
H623 H 0.94882 0.79384 0.44555 0.0
C624 C 0.88112 0.76476 0.3683 0.0
C625 C 0.87285 0.74246 0.386 0.0
C626 C 0.89397 0.79072 0.37905 0.0
C627 C 0.89913 0.79465 0.40753 0.0
C628 C 0.89134 0.77236 0.42513 0.0
H629 H 0.96957 0.9258 0.52196 0.0
H630 H 0.94841 0.88252 0.49836 0.0
C631 C 0.87829 0.7465 0.41448 0.0
C632 C 0.91159 0.82221 0.41927 0.0
H633 H 0.96889 0.86017 0.45241 0.0
C634 C 0.89557 0.84135 0.42026 0.0
C635 C 0.93842 0.82911 0.43073 0.0
C636 C 0.9567 0.80945 0.42952 0.0
C637 C 0.90534 0.86705 0.43327 0.0
C638 C 0.93214 0.87392 0.44498 0.0
C639 C 0.94833 0.85486 0.4435 0.0
C640 C 0.94363 0.90049 0.45944 0.0
C641 C 0.88644 0.88616 0.43525 0.0
C642 C 0.9479 0.92504 0.44545 0.0
C643 C 0.95979 0.9499 0.45898 0.0
C644 C 0.96799 0.95062 0.48665 0.0
C645 C 0.96353 0.926 0.50064 0.0
C646 C 0.95147 0.90121 0.48717 0.0
H647 H 0.86411 0.87522 0.43215 0.0
H648 H 0.8878 0.89708 0.45579 0.0
H649 H 0.89311 0.9015 0.4188 0.0
H650 H 0.94261 0.92495 0.42386 0.0
H651 H 0.9632 0.96846 0.44753 0.0
H652 H 0.34893 0.86539 0.58703 0.0
H653 H 0.38072 0.84197 0.56189 0.0
H654 H 0.31414 0.76769 0.56045 0.0
H655 H 0.28244 0.79083 0.58552 0.0
H656 H 0.39374 0.80055 0.58691 0.0
H657 H 0.35214 0.76399 0.48409 0.0
H658 H 0.34198 0.7912 0.50372 0.0
H659 H 0.32507 0.75618 0.51115 0.0
C660 C 0.34096 0.8442 0.58079 0.0
C661 C 0.31331 0.82984 0.58848 0.0
C662 C 0.35904 0.83095 0.56625 0.0
C663 C 0.3497 0.80319 0.55902 0.0
C664 C 0.32159 0.78929 0.56512 0.0
H665 H 0.39519 0.65803 0.54981 0.0
H666 H 0.37513 0.69652 0.54426 0.0
C667 C 0.30351 0.80252 0.57962 0.0
C668 C 0.37016 0.78749 0.55015 0.0
H669 H 0.37957 0.73693 0.50501 0.0
C670 C 0.39124 0.78719 0.56856 0.0
C671 C 0.36673 0.77007 0.52627 0.0
C672 C 0.3454 0.77057 0.50505 0.0
C673 C 0.40741 0.7683 0.56507 0.0
C674 C 0.40277 0.74967 0.5421 0.0
C675 C 0.38302 0.75122 0.52261 0.0
C676 C 0.41539 0.72628 0.5403 0.0
C677 C 0.42767 0.76707 0.58722 0.0
C678 C 0.44467 0.73016 0.5389 0.0
C679 C 0.45618 0.70823 0.54243 0.0
C680 C 0.43854 0.68207 0.5469 0.0
C681 C 0.40927 0.67796 0.54631 0.0
C682 C 0.39779 0.69991 0.54309 0.0
H683 H 0.42496 0.77969 0.60602 0.0
H684 H 0.42486 0.74579 0.59368 0.0
H685 H 0.44957 0.77474 0.57873 0.0
H686 H 0.45858 0.75031 0.53622 0.0
H687 H 0.47884 0.7118 0.54233 0.0
H688 H 0.70614 0.83059 0.78112 0.0
H689 H 0.74115 0.84693 0.7433 0.0
H690 H 0.80311 0.82038 0.78704 0.0
H691 H 0.76849 0.80416 0.82473 0.0
H692 H 0.79063 0.88619 0.74721 0.0
H693 H 0.81222 0.7894 0.70901 0.0
H694 H 0.7818 0.79056 0.73117 0.0
H695 H 0.81546 0.79423 0.74596 0.0
C696 C 0.7272 0.82811 0.78254 0.0
C697 C 0.73449 0.81588 0.80579 0.0
C698 C 0.7471 0.83732 0.7609 0.0
C699 C 0.77456 0.83435 0.76211 0.0
C700 C 0.78183 0.82212 0.78526 0.0
H701 H 0.9308 0.93013 0.69539 0.0
H702 H 0.88871 0.90743 0.72272 0.0
C703 C 0.762 0.8129 0.80683 0.0
C704 C 0.79635 0.84586 0.74036 0.0
H705 H 0.84748 0.83041 0.69707 0.0
C706 C 0.80279 0.87393 0.73594 0.0
C707 C 0.81193 0.82978 0.72536 0.0
C708 C 0.80482 0.79927 0.72788 0.0
C709 C 0.82533 0.88658 0.71798 0.0
C710 C 0.84215 0.8708 0.70453 0.0
C711 C 0.83482 0.84252 0.70778 0.0
C712 C 0.86808 0.8835 0.68797 0.0
C713 C 0.8311 0.9168 0.71379 0.0
C714 C 0.87088 0.87674 0.6596 0.0
C715 C 0.89514 0.88943 0.64394 0.0
C716 C 0.91709 0.90893 0.65649 0.0
C717 C 0.91446 0.91502 0.68512 0.0
C718 C 0.89025 0.90234 0.70071 0.0
H719 H 0.81201 0.92419 0.71862 0.0
H720 H 0.84761 0.92777 0.72799 0.0
H721 H 0.83868 0.92206 0.69205 0.0
H722 H 0.85409 0.86201 0.64948 0.0
H723 H 0.89668 0.88407 0.622 0.0
H724 H 0.75521 0.20692 0.35638 0.0
H725 H 0.73987 0.19836 0.30846 0.0
H726 H 0.65371 0.18813 0.33778 0.0
H727 H 0.66856 0.19563 0.38581 0.0
H728 H 0.69218 0.14633 0.29201 0.0
H729 H 0.67399 0.24716 0.27121 0.0
H730 H 0.69915 0.24325 0.29577 0.0
H731 H 0.66222 0.23231 0.30456 0.0
C732 C 0.73297 0.20262 0.3527 0.0
C733 C 0.71311 0.20193 0.37496 0.0
C734 C 0.72432 0.19802 0.32532 0.0
C735 C 0.69577 0.193 0.31976 0.0
C736 C 0.6759 0.19241 0.34178 0.0
H737 H 0.59135 0.15372 0.17886 0.0
H738 H 0.61369 0.1722 0.22213 0.0
C739 C 0.68446 0.19677 0.36916 0.0
C740 C 0.68641 0.18671 0.2911 0.0
H741 H 0.65999 0.21221 0.23701 0.0
C742 C 0.68539 0.16074 0.27978 0.0
C743 C 0.67731 0.20558 0.27562 0.0
C744 C 0.67825 0.23375 0.2872 0.0
C745 C 0.67475 0.15279 0.25343 0.0
C746 C 0.66579 0.17172 0.23769 0.0
C747 C 0.6671 0.19785 0.249 0.0
C748 C 0.65374 0.16413 0.21006 0.0
C749 C 0.67216 0.12382 0.24325 0.0
C750 C 0.66925 0.15465 0.18848 0.0
C751 C 0.65639 0.14351 0.164 0.0
C752 C 0.62787 0.14213 0.16042 0.0
C753 C 0.61311 0.1538 0.1812 0.0
C754 C 0.62592 0.1646 0.20585 0.0
H755 H 0.67284 0.11025 0.26061 0.0
H756 H 0.65223 0.1155 0.23243 0.0
H757 H 0.68997 0.12333 0.22832 0.0
H758 H 0.69099 0.15476 0.19105 0.0
H759 H 0.66845 0.13463 0.14863 0.0
H760 H 0.36552 0.64108 0.2761 0.0
H761 H 0.37969 0.61752 0.3143 0.0
H762 H 0.44961 0.68702 0.32877 0.0
H763 H 0.43576 0.71037 0.29044 0.0
H764 H 0.4662 0.64083 0.32973 0.0
H765 H 0.36964 0.62914 0.39754 0.0
H766 H 0.36314 0.61462 0.36313 0.0
H767 H 0.37688 0.6508 0.36778 0.0
C768 C 0.38385 0.65138 0.28747 0.0
C769 C 0.39944 0.67774 0.28017 0.0
C770 C 0.39187 0.63793 0.30954 0.0
C771 C 0.41557 0.65051 0.32499 0.0
C772 C 0.43121 0.67674 0.31746 0.0
H773 H 0.46049 0.60182 0.48642 0.0
H774 H 0.44417 0.62379 0.44843 0.0
C775 C 0.42322 0.69014 0.29548 0.0
C776 C 0.42468 0.63637 0.34845 0.0
H777 H 0.40303 0.60645 0.41133 0.0
C778 C 0.45231 0.63333 0.34754 0.0
C779 C 0.40692 0.62684 0.37211 0.0
C780 C 0.37758 0.6307 0.37545 0.0
C781 C 0.46246 0.62093 0.36914 0.0
C782 C 0.44443 0.61062 0.39241 0.0
C783 C 0.41691 0.61398 0.39353 0.0
C784 C 0.45385 0.59668 0.41583 0.0
C785 C 0.49276 0.61966 0.36709 0.0
C786 C 0.46438 0.57368 0.41062 0.0
C787 C 0.47386 0.5611 0.43237 0.0
C788 C 0.47286 0.57093 0.46013 0.0
C789 C 0.46171 0.59359 0.46542 0.0
C790 C 0.45229 0.60622 0.44361 0.0
H791 H 0.50568 0.63515 0.3528 0.0
H792 H 0.50218 0.62287 0.38783 0.0
H793 H 0.49381 0.59932 0.3587 0.0
H794 H 0.46522 0.5653 0.38965 0.0
H795 H 0.482 0.5436 0.42733 0.0
H796 H 0.18769 0.44806 0.7922 0.0
H797 H 0.1644 0.46917 0.82978 0.0
H798 H 0.08742 0.40666 0.81886 0.0
H799 H 0.1105 0.38552 0.78106 0.0
H800 H 0.10963 0.48581 0.82348 0.0
H801 H 0.10659 0.41052 0.9054 0.0
H802 H 0.13202 0.4154 0.87635 0.0
H803 H 0.09605 0.3978 0.87105 0.0
C804 C 0.16582 0.43878 0.79789 0.0
C805 C 0.15091 0.41519 0.78376 0.0
C806 C 0.15258 0.45085 0.81929 0.0
C807 C 0.12431 0.43933 0.82712 0.0
C808 C 0.10934 0.41567 0.81319 0.0
H809 H 0.01419 0.48222 0.95828 0.0
H810 H 0.03593 0.45944 0.92097 0.0
C811 C 0.12253 0.40369 0.79159 0.0
C812 C 0.11037 0.45256 0.84945 0.0
H813 H 0.08577 0.44644 0.91717 0.0
C814 C 0.10437 0.47727 0.84399 0.0
C815 C 0.10346 0.44118 0.87602 0.0
C816 C 0.10991 0.41482 0.88282 0.0
C817 C 0.09136 0.49089 0.86444 0.0
C818 C 0.08495 0.47983 0.8913 0.0
C819 C 0.09079 0.45495 0.89663 0.0
C820 C 0.07206 0.49368 0.91411 0.0
C821 C 0.08404 0.51664 0.85682 0.0
C822 C 0.08539 0.52033 0.923 0.0
C823 C 0.07288 0.53346 0.94413 0.0
C824 C 0.04704 0.52001 0.95701 0.0
C825 C 0.03408 0.4931 0.94862 0.0
C826 C 0.04648 0.48007 0.92735 0.0
H827 H 0.08259 0.51783 0.83394 0.0
H828 H 0.06374 0.51805 0.8671 0.0
H829 H 0.10077 0.53449 0.86374 0.0
H830 H 0.10551 0.53097 0.91363 0.0
H831 H 0.08345 0.5541 0.95042 0.0
H832 H 0.64886 0.84435 0.83682 0.0
H833 H 0.62353 0.87678 0.8564 0.0
H834 H 0.64929 0.86534 0.93847 0.0
H835 H 0.67453 0.83283 0.91907 0.0
H836 H 0.5934 0.86438 0.93785 0.0
H837 H 0.65892 0.95456 0.88295 0.0
H838 H 0.64372 0.92631 0.86023 0.0
H839 H 0.66923 0.92313 0.88444 0.0
C840 C 0.64923 0.84886 0.85902 0.0
C841 C 0.66376 0.8361 0.87639 0.0
C842 C 0.63483 0.86744 0.87016 0.0
C843 C 0.63495 0.87383 0.89882 0.0
C844 C 0.64901 0.86076 0.91627 0.0
H845 H 0.59189 1.00936 0.98762 0.0
H846 H 0.61536 0.9776 0.96357 0.0
C847 C 0.6633 0.84209 0.90518 0.0
C848 C 0.62016 0.89388 0.91076 0.0
H849 H 0.61821 0.96036 0.90837 0.0
C850 C 0.5988 0.88537 0.93141 0.0
C851 C 0.62751 0.92133 0.90256 0.0
C852 C 0.65127 0.93202 0.88153 0.0
C853 C 0.58447 0.90351 0.944 0.0
C854 C 0.59131 0.93078 0.93528 0.0
C855 C 0.61279 0.93936 0.91476 0.0
C856 C 0.57713 0.95095 0.94804 0.0
C857 C 0.56266 0.89348 0.96704 0.0
C858 C 0.54797 0.94694 0.94658 0.0
C859 C 0.53446 0.965 0.96039 0.0
C860 C 0.54994 0.98755 0.97572 0.0
C861 C 0.57933 0.99218 0.97607 0.0
C862 C 0.59279 0.97404 0.96234 0.0
H863 H 0.56497 0.87438 0.97591 0.0
H864 H 0.56408 0.90905 0.98411 0.0
H865 H 0.54137 0.88924 0.95859 0.0
H866 H 0.53558 0.92959 0.93511 0.0
H867 H 0.51182 0.96097 0.95948 0.0
H868 H 0.81969 0.20693 0.51999 0.0
H869 H 0.85242 0.18163 0.53478 0.0
H870 H 0.83913 0.13215 0.45936 0.0
H871 H 0.80647 0.15713 0.44451 0.0
H872 H 0.83815 0.12143 0.54019 0.0
H873 H 0.92694 0.16241 0.46455 0.0
H874 H 0.9001 0.17992 0.47394 0.0
H875 H 0.89275 0.15113 0.45015 0.0
C876 C 0.82392 0.19073 0.50656 0.0
C877 C 0.81064 0.18397 0.48117 0.0
C878 C 0.84251 0.17636 0.51501 0.0
C879 C 0.84827 0.15532 0.49798 0.0
C880 C 0.83513 0.14861 0.47256 0.0
H881 H 0.94633 0.03908 0.49932 0.0
H882 H 0.91604 0.06833 0.48895 0.0
C883 C 0.81642 0.16282 0.46419 0.0
C884 C 0.86723 0.13957 0.50708 0.0
H885 H 0.92946 0.12425 0.49013 0.0
C886 C 0.85826 0.12216 0.5295 0.0
C887 C 0.89329 0.14067 0.4929 0.0
C888 C 0.90406 0.15968 0.46916 0.0
C889 C 0.87435 0.10495 0.53756 0.0
C890 C 0.9003 0.10577 0.52313 0.0
C891 C 0.9095 0.12366 0.50107 0.0
C892 C 0.91792 0.08768 0.52996 0.0
C893 C 0.86294 0.08537 0.5607 0.0
C894 C 0.92901 0.08901 0.55642 0.0
C895 C 0.9461 0.07215 0.56246 0.0
C896 C 0.95255 0.05403 0.54199 0.0
C897 C 0.94153 0.05282 0.51549 0.0
C898 C 0.92434 0.06953 0.50953 0.0
H899 H 0.83996 0.0825 0.56469 0.0
H900 H 0.86699 0.0652 0.55573 0.0
H901 H 0.87357 0.09354 0.58017 0.0
H902 H 0.92479 0.10332 0.57225 0.0
H903 H 0.95461 0.07362 0.58295 0.0
H904 H 0.30214 0.63581 0.1719 0.0
H905 H 0.25888 0.61198 0.149 0.0
H906 H 0.23527 0.68754 0.1455 0.0
H907 H 0.27827 0.71142 0.16832 0.0
H908 H 0.20261 0.6056 0.16294 0.0
H909 H 0.22975 0.66179 0.06476 0.0
H910 H 0.25512 0.66327 0.09092 0.0
H911 H 0.23036 0.68379 0.09492 0.0
C912 C 0.28765 0.64736 0.16647 0.0
C913 C 0.29404 0.6757 0.17175 0.0
C914 C 0.26292 0.63368 0.15322 0.0
C915 C 0.24396 0.64797 0.14482 0.0
C916 C 0.24984 0.67608 0.15092 0.0
H917 H 0.08384 0.61068 0.06439 0.0
H918 H 0.12768 0.63119 0.08747 0.0
C919 C 0.27453 0.68975 0.16407 0.0
C920 C 0.21803 0.63361 0.12985 0.0
H921 H 0.1827 0.63458 0.07052 0.0
C922 C 0.19838 0.61181 0.14263 0.0
C923 C 0.21235 0.64155 0.10325 0.0
C924 C 0.23312 0.66369 0.08751 0.0
C925 C 0.17301 0.59843 0.13007 0.0
C926 C 0.16717 0.60667 0.10367 0.0
C927 C 0.18698 0.62823 0.09075 0.0
C928 C 0.1404 0.59372 0.08938 0.0
C929 C 0.15228 0.57613 0.14562 0.0
C930 C 0.13288 0.56578 0.08219 0.0
C931 C 0.10768 0.55391 0.06887 0.0
C932 C 0.08937 0.56969 0.06227 0.0
C933 C 0.09724 0.59776 0.0691 0.0
C934 C 0.12241 0.60959 0.08236 0.0
H935 H 0.15646 0.57693 0.16817 0.0
H936 H 0.13037 0.57747 0.14335 0.0
H937 H 0.15399 0.55607 0.13694 0.0
H938 H 0.1466 0.55311 0.08671 0.0
H939 H 0.10259 0.53233 0.06377 0.0
H940 H 0.20623 0.38467 0.62295 0.0
H941 H 0.24983 0.40928 0.59879 0.0
H942 H 0.28688 0.43527 0.67782 0.0
H943 H 0.24381 0.4099 0.70215 0.0
H944 H 0.27986 0.46435 0.6009 0.0
H945 H 0.34249 0.39749 0.63833 0.0
H946 H 0.30457 0.38872 0.64133 0.0
H947 H 0.32491 0.41277 0.66557 0.0
C948 C 0.22371 0.39549 0.6352 0.0
C949 C 0.22164 0.39507 0.66449 0.0
C950 C 0.24851 0.40971 0.62136 0.0
C951 C 0.2717 0.4237 0.63653 0.0
C952 C 0.26937 0.42419 0.66574 0.0
H953 H 0.44362 0.50825 0.58937 0.0
H954 H 0.39813 0.49129 0.61421 0.0
C955 C 0.24463 0.40992 0.6796 0.0
C956 C 0.29855 0.43715 0.62177 0.0
H957 H 0.36745 0.43607 0.6133 0.0
C958 C 0.29903 0.45818 0.60355 0.0
C959 C 0.32346 0.42895 0.62524 0.0
C960 C 0.32391 0.40559 0.64346 0.0
C961 C 0.32394 0.47152 0.58897 0.0
C962 C 0.34882 0.46333 0.59252 0.0
C963 C 0.34833 0.44237 0.61078 0.0
C964 C 0.37558 0.47576 0.5771 0.0
C965 C 0.32357 0.4945 0.57022 0.0
C966 C 0.37788 0.47275 0.548 0.0
C967 C 0.40384 0.48236 0.53377 0.0
C968 C 0.42789 0.495 0.54847 0.0
C969 C 0.42541 0.49856 0.57752 0.0
C970 C 0.39947 0.4889 0.59173 0.0
H971 H 0.30497 0.50265 0.57501 0.0
H972 H 0.34295 0.51136 0.57216 0.0
H973 H 0.32271 0.4869 0.54826 0.0
H974 H 0.35978 0.46223 0.53639 0.0
H975 H 0.40521 0.47934 0.51137 0.0
H976 H 0.72146 0.73763 0.92256 0.0
H977 H 0.75597 0.71814 0.9433 0.0
H978 H 0.76217 0.67145 0.86751 0.0
H979 H 0.72735 0.69058 0.8468 0.0
H980 H 0.76068 0.64193 0.91558 0.0
H981 H 0.83993 0.74191 0.9206 0.0
H982 H 0.80673 0.74136 0.93815 0.0
H983 H 0.80861 0.73632 0.90097 0.0
C984 C 0.72997 0.72302 0.91041 0.0
C985 C 0.72193 0.71571 0.88297 0.0
C986 C 0.74979 0.71203 0.92223 0.0
C987 C 0.76199 0.69376 0.90674 0.0
C988 C 0.7531 0.68562 0.87976 0.0
H989 H 0.9194 0.65501 0.93201 0.0
H990 H 0.88022 0.66996 0.91467 0.0
C991 C 0.73325 0.69654 0.86797 0.0
C992 C 0.78471 0.68376 0.91817 0.0
H993 H 0.85174 0.70485 0.94058 0.0
C994 C 0.78058 0.65565 0.92112 0.0
C995 C 0.8108 0.70172 0.92493 0.0
C996 C 0.817 0.73199 0.9208 0.0
C997 C 0.80181 0.645 0.93086 0.0
C998 C 0.82766 0.66302 0.93821 0.0
C999 C 0.83182 0.69111 0.93512 0.0
C1000 C 0.85099 0.6532 0.94855 0.0
C1001 C 0.79666 0.61454 0.93252 0.0
C1002 C 0.84758 0.63896 0.97344 0.0
C1003 C 0.86996 0.63043 0.98343 0.0
C1004 C 0.89623 0.6362 0.96882 0.0
C1005 C 0.89954 0.65051 0.9439 0.0
C1006 C 0.87715 0.65896 0.93391 0.0
H1007 H 0.77894 0.60351 0.91965 0.0
H1008 H 0.81576 0.60796 0.92555 0.0
H1009 H 0.79126 0.6085 0.95445 0.0
H1010 H 0.82776 0.63484 0.98539 0.0
H1011 H 0.86686 0.61984 1.00291 0.0
H1012 H 0.39433 0.77741 0.21049 0.0
H1013 H 0.41783 0.82103 0.18952 0.0
H1014 H 0.38839 0.78873 0.10916 0.0
H1015 H 0.36666 0.74482 0.12945 0.0
H1016 H 0.43911 0.81733 0.10218 0.0
H1017 H 0.38417 0.88011 0.1688 0.0
H1018 H 0.40352 0.86264 0.18867 0.0
H1019 H 0.37419 0.84344 0.16929 0.0
C1020 C 0.3931 0.77942 0.18829 0.0
C1021 C 0.37803 0.75736 0.17192 0.0
C1022 C 0.4062 0.80469 0.17633 0.0
C1023 C 0.40434 0.80877 0.14772 0.0
C1024 C 0.39 0.78654 0.13129 0.0
H1025 H 0.44367 0.96944 0.0693 0.0
H1026 H 0.41985 0.92558 0.09026 0.0
C1027 C 0.37722 0.7613 0.14311 0.0
C1028 C 0.41773 0.83574 0.13453 0.0
H1029 H 0.42215 0.90415 0.13938 0.0
C1030 C 0.43524 0.83624 0.11037 0.0
C1031 C 0.41247 0.86065 0.14459 0.0
C1032 C 0.39233 0.86173 0.16908 0.0
C1033 C 0.44775 0.86057 0.09637 0.0
C1034 C 0.4436 0.88566 0.1072 0.0
C1035 C 0.42574 0.88516 0.13109 0.0
C1036 C 0.45791 0.91251 0.09427 0.0
C1037 C 0.4647 0.85886 0.06961 0.0
C1038 C 0.4873 0.92025 0.08971 0.0
C1039 C 0.50081 0.94506 0.07742 0.0
C1040 C 0.48549 0.96327 0.0698 0.0
C1041 C 0.45612 0.95588 0.07479 0.0
C1042 C 0.4425 0.9308 0.08688 0.0
H1043 H 0.45799 0.83838 0.05941 0.0
H1044 H 0.4627 0.87427 0.05466 0.0
H1045 H 0.48721 0.86246 0.0743 0.0
H1046 H 0.49997 0.90719 0.09591 0.0
H1047 H 0.52348 0.95011 0.07421 0.0
H1048 H 0.14581 0.32128 0.62934 0.0
H1049 H 0.12712 0.27546 0.60972 0.0
H1050 H 0.12467 0.24205 0.69119 0.0
H1051 H 0.14306 0.28799 0.71101 0.0
H1052 H 0.15147 0.23321 0.6091 0.0
H1053 H 0.04692 0.20453 0.66495 0.0
H1054 H 0.06846 0.23913 0.66441 0.0
H1055 H 0.076 0.21515 0.68739 0.0
C1056 C 0.14109 0.30417 0.6431 0.0
C1057 C 0.14588 0.30819 0.67171 0.0
C1058 C 0.1304 0.27802 0.63188 0.0
C1059 C 0.12424 0.25534 0.64901 0.0
C1060 C 0.12868 0.25929 0.67767 0.0
H1061 H 0.06693 0.08145 0.60678 0.0
H1062 H 0.08734 0.12506 0.63063 0.0
C1063 C 0.13922 0.28553 0.68896 0.0
C1064 C 0.11448 0.22757 0.63646 0.0
H1065 H 0.06019 0.16996 0.63729 0.0
C1066 C 0.1315 0.2194 0.61527 0.0
C1067 C 0.08847 0.20952 0.6446 0.0
C1068 C 0.06875 0.21754 0.6664 0.0
C1069 C 0.12317 0.19374 0.60192 0.0
C1070 C 0.09707 0.17586 0.60985 0.0
C1071 C 0.08027 0.18374 0.63137 0.0
C1072 C 0.08618 0.14943 0.59508 0.0
C1073 C 0.14236 0.18589 0.57948 0.0
C1074 C 0.07887 0.14879 0.56722 0.0
C1075 C 0.06716 0.12401 0.55358 0.0
C1076 C 0.06255 0.09936 0.56757 0.0
C1077 C 0.07038 0.10004 0.59537 0.0
C1078 C 0.08192 0.12491 0.60906 0.0
H1079 H 0.16423 0.19893 0.58044 0.0
H1080 H 0.1427 0.16428 0.58121 0.0
H1081 H 0.13446 0.18827 0.55877 0.0
H1082 H 0.08168 0.16753 0.55619 0.0
H1083 H 0.06135 0.12424 0.53219 0.0
H1084 H 0.66164 0.22486 0.45745 0.0
H1085 H 0.64111 0.25809 0.48284 0.0
H1086 H 0.72252 0.29925 0.51314 0.0
H1087 H 0.74343 0.26658 0.48709 0.0
H1088 H 0.64111 0.28028 0.54037 0.0
H1089 H 0.70074 0.35374 0.46174 0.0
H1090 H 0.69658 0.31758 0.45741 0.0
H1091 H 0.72056 0.33699 0.48205 0.0
C1092 C 0.6751 0.24081 0.46978 0.0
C1093 C 0.70421 0.24349 0.46984 0.0
C1094 C 0.66331 0.25955 0.48451 0.0
C1095 C 0.68042 0.2812 0.49952 0.0
C1096 C 0.70908 0.28272 0.50146 0.0
H1097 H 0.62753 0.43082 0.52229 0.0
H1098 H 0.65481 0.39853 0.53098 0.0
C1099 C 0.72093 0.26401 0.48665 0.0
C1100 C 0.66892 0.30406 0.50932 0.0
H1101 H 0.66731 0.36743 0.49056 0.0
C1102 C 0.64714 0.29959 0.52995 0.0
C1103 C 0.67698 0.32918 0.49566 0.0
C1104 C 0.69986 0.33479 0.47286 0.0
C1105 C 0.63235 0.31931 0.53647 0.0
C1106 C 0.6392 0.34369 0.52147 0.0
C1107 C 0.66211 0.34874 0.50208 0.0
C1108 C 0.62105 0.36276 0.52257 0.0
C1109 C 0.60918 0.31357 0.55889 0.0
C1110 C 0.5928 0.35334 0.5156 0.0
C1111 C 0.577 0.37174 0.51099 0.0
C1112 C 0.58932 0.39992 0.51276 0.0
C1113 C 0.61726 0.40926 0.52099 0.0
C1114 C 0.63295 0.39084 0.52591 0.0
H1115 H 0.61371 0.30043 0.57502 0.0
H1116 H 0.60623 0.33264 0.56911 0.0
H1117 H 0.58919 0.30247 0.54948 0.0
H1118 H 0.58335 0.33182 0.5122 0.0
H1119 H 0.55538 0.36385 0.50521 0.0
loop_
_geom_bond_atom_site_label_1
_geom_bond_atom_site_label_2
_geom_bond_distance
_geom_bond_site_symmetry_2
_ccdc_geom_bond_type
H0 C5 0.930 . S
H1 C8 0.930 . S
H2 C10 0.930 . S
H3 C4 1.016 . S
C4 H3 1.016 . S
C4 N11 1.286 . S
C5 H0 0.930 . S
C5 C6 1.397 . S
C5 C7 1.361 . S
C6 C5 1.397 . S
C6 C10 1.390 . S
C7 C5 1.361 . S
C7 C8 1.393 . S
C7 N11 1.413 . S
C8 H1 0.930 . S
C8 C7 1.393 . S
C8 C9 1.399 . S
C9 C8 1.399 . S
C9 C10 1.381 . S
C10 H2 0.930 . S
C10 C6 1.390 . S
C10 C9 1.381 . S
N11 C4 1.286 . S
N11 C7 1.413 . S
H12 C17 0.930 . S
H13 C20 0.930 . S
H14 C22 0.930 . S
H15 C16 1.016 . S
C16 H15 1.016 . S
C16 N23 1.286 . S
C17 H12 0.930 . S
C17 C18 1.397 . S
C17 C19 1.361 . S
C18 C17 1.397 . S
C18 C22 1.390 . S
C19 C17 1.361 . S
C19 C20 1.393 . S
C19 N23 1.413 . S
C20 H13 0.930 . S
C20 C19 1.393 . S
C20 C21 1.399 . S
C21 C20 1.399 . S
C21 C22 1.381 . S
C22 H14 0.930 . S
C22 C18 1.390 . S
C22 C21 1.381 . S
N23 C16 1.286 . S
N23 C19 1.413 . S
H24 C29 0.930 . S
H25 C32 0.930 . S
H26 C34 0.930 . S
H27 C28 1.016 . S
C28 H27 1.016 . S
C28 N35 1.286 . S
C29 H24 0.930 . S
C29 C30 1.397 . S
C29 C31 1.361 . S
C30 C29 1.397 . S
C30 C34 1.390 . S
C31 C29 1.361 . S
C31 C32 1.393 . S
C31 N35 1.413 . S
C32 H25 0.930 . S
C32 C31 1.393 . S
C32 C33 1.399 . S
C33 C32 1.399 . S
C33 C34 1.381 . S
C34 H26 0.930 . S
C34 C30 1.390 . S
C34 C33 1.381 . S
N35 C28 1.286 . S
N35 C31 1.413 . S
H36 C41 0.930 . S
H37 C44 0.930 . S
H38 C46 0.930 . S
H39 C40 1.016 . S
C40 H39 1.016 . S
C40 N47 1.286 . S
C41 H36 0.930 . S
C41 C42 1.397 . S
C41 C43 1.361 . S
C42 C41 1.397 . S
C42 C46 1.390 . S
C43 C41 1.361 . S
C43 C44 1.393 . S
C43 N47 1.413 . S
C44 H37 0.930 . S
C44 C43 1.393 . S
C44 C45 1.399 . S
C45 C44 1.399 . S
C45 C46 1.381 . S
C46 H38 0.930 . S
C46 C42 1.390 . S
C46 C45 1.381 . S
N47 C40 1.286 . S
N47 C43 1.413 . S
H48 C53 0.930 . S
H49 C56 0.930 . S
H50 C58 0.930 . S
H51 C52 1.016 . S
C52 H51 1.016 . S
C52 N59 1.286 . S
C53 H48 0.930 . S
C53 C54 1.397 . S
C53 C55 1.361 . S
C54 C53 1.397 . S
C54 C58 1.390 . S
C55 C53 1.361 . S
C55 C56 1.393 . S
C55 N59 1.413 . S
C56 H49 0.930 . S
C56 C55 1.393 . S
C56 C57 1.399 . S
C57 C56 1.399 . S
C57 C58 1.381 . S
C58 H50 0.930 . S
C58 C54 1.390 . S
C58 C57 1.381 . S
N59 C52 1.286 . S
N59 C55 1.413 . S
H60 C65 0.930 . S
H61 C68 0.930 . S
H62 C70 0.930 . S
H63 C64 1.016 . S
C64 H63 1.016 . S
C64 N71 1.286 . S
C65 H60 0.930 . S
C65 C66 1.397 . S
C65 C67 1.361 . S
C66 C65 1.397 . S
C66 C70 1.390 . S
C67 C65 1.361 . S
C67 C68 1.393 . S
C67 N71 1.413 . S
C68 H61 0.930 . S
C68 C67 1.393 . S
C68 C69 1.399 . S
C69 C68 1.399 . S
C69 C70 1.381 . S
C70 H62 0.930 . S
C70 C66 1.390 . S
C70 C69 1.381 . S
N71 C64 1.286 . S
N71 C67 1.413 . S
H72 C77 0.930 . S
H73 C80 0.930 . S
H74 C82 0.930 . S
H75 C76 1.016 . S
C76 H75 1.016 . S
C76 N83 1.286 . S
C77 H72 0.930 . S
C77 C78 1.397 . S
C77 C79 1.361 . S
C78 C77 1.397 . S
C78 C82 1.390 . S
C79 C77 1.361 . S
C79 C80 1.393 . S
C79 N83 1.413 . S
C80 H73 0.930 . S
C80 C79 1.393 . S
C80 C81 1.399 . S
C81 C80 1.399 . S
C81 C82 1.381 . S
C82 H74 0.930 . S
C82 C78 1.390 . S
C82 C81 1.381 . S
N83 C76 1.286 . S
N83 C79 1.413 . S
H84 C89 0.930 . S
H85 C92 0.930 . S
H86 C94 0.930 . S
H87 C88 1.016 . S
C88 H87 1.016 . S
C88 N95 1.286 . S
C89 H84 0.930 . S
C89 C90 1.397 . S
C89 C91 1.361 . S
C90 C89 1.397 . S
C90 C94 1.390 . S
C91 C89 1.361 . S
C91 C92 1.393 . S
C91 N95 1.413 . S
C92 H85 0.930 . S
C92 C91 1.393 . S
C92 C93 1.399 . S
C93 C92 1.399 . S
C93 C94 1.381 . S
C94 H86 0.930 . S
C94 C90 1.390 . S
C94 C93 1.381 . S
N95 C88 1.286 . S
N95 C91 1.413 . S
Sm96 C98 2.846 . S
Sm96 O116 2.543 . S
Sm96 O117 2.450 . S
Sm96 O118 2.681 1_545 S
Sm96 O119 2.464 1_545 S
Sm96 O120 2.396 . S
Sm96 O124 2.386 1_455 S
Sm96 O127 2.408 1_445 S
Sm97 C107 2.846 . S
Sm97 O118 2.386 1_655 S
Sm97 O121 2.408 1_665 S
Sm97 O122 2.543 . S
Sm97 O123 2.450 . S
Sm97 O124 2.681 1_565 S
Sm97 O125 2.464 1_565 S
Sm97 O126 2.396 . S
C98 Sm96 2.846 . S
C98 C99 1.506 . S
C98 O116 1.261 . S
C98 O117 1.242 . S
C99 C98 1.506 . S
C99 C100 1.358 . S
C99 C104 1.382 . S
C100 C99 1.358 . S
C100 C101 1.385 . S
C100 H128 0.930 . S
C101 C100 1.385 . S
C101 C102 1.395 . S
C101 H129 0.929 . S
C102 C101 1.395 . S
C102 C103 1.335 . S
C103 C102 1.335 . S
C103 C104 1.398 . S
C103 H130 0.930 . S
C104 C99 1.382 . S
C104 C103 1.398 . S
C104 H131 0.929 . S
C105 O118 1.271 . S
C105 O119 1.251 . S
C106 O120 1.252 . S
C106 O121 1.272 . S
C107 Sm97 2.846 . S
C107 C108 1.506 . S
C107 O122 1.261 . S
C107 O123 1.242 . S
C108 C107 1.506 . S
C108 C109 1.358 . S
C108 C113 1.382 . S
C109 C108 1.358 . S
C109 C110 1.385 . S
C109 H132 0.930 . S
C110 C109 1.385 . S
C110 C111 1.395 . S
C110 H133 0.929 . S
C111 C110 1.395 . S
C111 C112 1.335 . S
C112 C111 1.335 . S
C112 C113 1.398 . S
C112 H134 0.930 . S
C113 C108 1.382 . S
C113 C112 1.398 . S
C113 H135 0.929 . S
C114 O124 1.271 . S
C114 O125 1.251 . S
C115 O126 1.252 . S
C115 O127 1.272 . S
O116 Sm96 2.543 . S
O116 C98 1.261 . S
O117 Sm96 2.450 . S
O117 C98 1.242 . S
O118 Sm96 2.681 1_565 S
O118 Sm97 2.386 1_455 S
O118 C105 1.271 . S
O119 Sm96 2.464 1_565 S
O119 C105 1.251 . S
O120 Sm96 2.396 . S
O120 C106 1.252 . S
O121 Sm97 2.408 1_445 S
O121 C106 1.272 . S
O122 Sm97 2.543 . S
O122 C107 1.261 . S
O123 Sm97 2.450 . S
O123 C107 1.242 . S
O124 Sm96 2.386 1_655 S
O124 Sm97 2.681 1_545 S
O124 C114 1.271 . S
O125 Sm97 2.464 1_545 S
O125 C114 1.251 . S
O126 Sm97 2.396 . S
O126 C115 1.252 . S
O127 Sm96 2.408 1_665 S
O127 C115 1.272 . S
H128 C100 0.930 . S
H129 C101 0.929 . S
H130 C103 0.930 . S
H131 C104 0.929 . S
H132 C109 0.930 . S
H133 C110 0.929 . S
H134 C112 0.930 . S
H135 C113 0.929 . S
Sm136 C138 2.846 . S
Sm136 O156 2.543 . S
Sm136 O157 2.450 . S
Sm136 O158 2.681 1_545 S
Sm136 O159 2.464 1_545 S
Sm136 O160 2.396 . S
Sm136 O164 2.381 1_554 S
Sm136 O167 2.408 1_544 S
Sm137 C147 2.846 1_545 S
Sm137 O158 2.386 1_546 S
Sm137 O161 2.408 1_556 S
Sm137 O162 2.543 1_545 S
Sm137 O163 2.449 1_545 S
Sm137 O164 2.684 . S
Sm137 O165 2.464 . S
Sm137 O166 2.396 1_545 S
C138 Sm136 2.846 . S
C138 C139 1.506 . S
C138 O156 1.261 . S
C138 O157 1.242 . S
C139 C138 1.506 . S
C139 C140 1.358 . S
C139 C144 1.382 . S
C140 C139 1.358 . S
C140 C141 1.385 . S
C140 H168 0.930 . S
C141 C140 1.385 . S
C141 C142 1.395 . S
C141 H169 0.929 . S
C142 C141 1.395 . S
C142 C143 1.335 . S
C143 C142 1.335 . S
C143 C144 1.398 . S
C143 H170 0.930 . S
C144 C139 1.382 . S
C144 C143 1.398 . S
C144 H171 0.929 . S
C145 O158 1.271 . S
C145 O159 1.251 . S
C146 O160 1.252 . S
C146 O161 1.272 . S
C147 Sm137 2.846 1_565 S
C147 C148 1.506 . S
C147 O162 1.261 . S
C147 O163 1.270 . S
C148 C147 1.506 . S
C148 C149 1.358 . S
C148 C153 1.382 . S
C149 C148 1.358 . S
C149 C150 1.385 . S
C149 H172 0.930 . S
C150 C149 1.385 . S
C150 C151 1.395 . S
C150 H173 0.929 . S
C151 C150 1.395 . S
C151 C152 1.335 . S
C152 C151 1.335 . S
C152 C153 1.398 . S
C152 H174 0.930 . S
C153 C148 1.382 . S
C153 C152 1.398 . S
C153 H175 0.929 . S
C154 O164 1.278 . S
C154 O165 1.251 . S
C155 O166 1.252 . S
C155 O167 1.272 . S
O156 Sm136 2.543 . S
O156 C138 1.261 . S
O157 Sm136 2.450 . S
O157 C138 1.242 . S
O158 Sm136 2.681 1_565 S
O158 Sm137 2.386 1_564 S
O158 C145 1.271 . S
O159 Sm136 2.464 1_565 S
O159 C145 1.251 . S
O160 Sm136 2.396 . S
O160 C146 1.252 . S
O161 Sm137 2.408 1_554 S
O161 C146 1.272 . S
O162 Sm137 2.543 1_565 S
O162 C147 1.261 . S
O163 Sm137 2.449 1_565 S
O163 C147 1.270 . S
O164 Sm136 2.381 1_556 S
O164 Sm137 2.684 . S
O164 C154 1.278 . S
O165 Sm137 2.464 . S
O165 C154 1.251 . S
O166 Sm137 2.396 1_565 S
O166 C155 1.252 . S
O167 Sm136 2.408 1_566 S
O167 C155 1.272 . S
H168 C140 0.930 . S
H169 C141 0.929 . S
H170 C143 0.930 . S
H171 C144 0.929 . S
H172 C149 0.930 . S
H173 C150 0.929 . S
H174 C152 0.930 . S
H175 C153 0.929 . S
Sm176 C178 2.846 . S
Sm176 O196 2.543 . S
Sm176 O197 2.450 . S
Sm176 O198 2.681 . S
Sm176 O199 2.464 . S
Sm176 O200 2.396 . S
Sm176 O204 2.386 . S
Sm176 O207 2.408 . S
Sm177 C187 2.846 . S
Sm177 O198 2.386 . S
Sm177 O201 2.408 . S
Sm177 O202 2.543 . S
Sm177 O203 2.450 . S
Sm177 O204 2.681 . S
Sm177 O205 2.464 . S
Sm177 O206 2.396 . S
C178 Sm176 2.846 . S
C178 C179 1.506 . S
C178 O196 1.261 . S
C178 O197 1.242 . S
C179 C178 1.506 . S
C179 C180 1.358 . S
C179 C184 1.382 . S
C180 C179 1.358 . S
C180 C181 1.385 . S
C180 H208 0.930 . S
C181 C180 1.385 . S
C181 C182 1.395 . S
C181 H209 0.929 . S
C182 C181 1.395 . S
C182 C183 1.335 . S
C183 C182 1.335 . S
C183 C184 1.398 . S
C183 H210 0.930 . S
C184 C179 1.382 . S
C184 C183 1.398 . S
C184 H211 0.929 . S
C185 O198 1.271 . S
C185 O199 1.251 . S
C186 O200 1.252 . S
C186 O201 1.272 . S
C187 Sm177 2.846 . S
C187 C188 1.506 . S
C187 O202 1.261 . S
C187 O203 1.242 . S
C188 C187 1.506 . S
C188 C189 1.358 . S
C188 C193 1.382 . S
C189 C188 1.358 . S
C189 C190 1.385 . S
C189 H212 0.930 . S
C190 C189 1.385 . S
C190 C191 1.395 . S
C190 H213 0.929 . S
C191 C190 1.395 . S
C191 C192 1.335 . S
C192 C191 1.335 . S
C192 C193 1.398 . S
C192 H214 0.930 . S
C193 C188 1.382 . S
C193 C192 1.398 . S
C193 H215 0.929 . S
C194 O204 1.271 . S
C194 O205 1.251 . S
C195 O206 1.252 . S
C195 O207 1.272 . S
O196 Sm176 2.543 . S
O196 C178 1.261 . S
O197 Sm176 2.450 . S
O197 C178 1.242 . S
O198 Sm176 2.681 . S
O198 Sm177 2.386 . S
O198 C185 1.271 . S
O199 Sm176 2.464 . S
O199 C185 1.251 . S
O200 Sm176 2.396 . S
O200 C186 1.252 . S
O201 Sm177 2.408 . S
O201 C186 1.272 . S
O202 Sm177 2.543 . S
O202 C187 1.261 . S
O203 Sm177 2.450 . S
O203 C187 1.242 . S
O204 Sm176 2.386 . S
O204 Sm177 2.681 . S
O204 C194 1.271 . S
O205 Sm177 2.464 . S
O205 C194 1.251 . S
O206 Sm177 2.396 . S
O206 C195 1.252 . S
O207 Sm176 2.408 . S
O207 C195 1.272 . S
H208 C180 0.930 . S
H209 C181 0.929 . S
H210 C183 0.930 . S
H211 C184 0.929 . S
H212 C189 0.930 . S
H213 C190 0.929 . S
H214 C192 0.930 . S
H215 C193 0.929 . S
Sm216 C218 2.846 . S
Sm216 O236 2.543 . S
Sm216 O237 2.450 . S
Sm216 O238 2.681 1_455 S
Sm216 O239 2.464 1_455 S
Sm216 O240 2.396 . S
Sm216 O244 2.386 1_554 S
Sm216 O247 2.408 1_454 S
Sm217 C227 2.846 1_455 S
Sm217 O238 2.386 1_456 S
Sm217 O241 2.408 1_556 S
Sm217 O242 2.543 1_455 S
Sm217 O243 2.450 1_455 S
Sm217 O244 2.681 . S
Sm217 O245 2.464 . S
Sm217 O246 2.396 1_455 S
C218 Sm216 2.846 . S
C218 C219 1.506 . S
C218 O236 1.261 . S
C218 O237 1.242 . S
C219 C218 1.506 . S
C219 C220 1.358 . S
C219 C224 1.382 . S
C220 C219 1.358 . S
C220 C221 1.385 . S
C220 H248 0.930 . S
C221 C220 1.385 . S
C221 C222 1.395 . S
C221 H249 0.929 . S
C222 C221 1.395 . S
C222 C223 1.335 . S
C223 C222 1.335 . S
C223 C224 1.398 . S
C223 H250 0.930 . S
C224 C219 1.382 . S
C224 C223 1.398 . S
C224 H251 0.929 . S
C225 O238 1.271 . S
C225 O239 1.251 . S
C226 O240 1.252 . S
C226 O241 1.272 . S
C227 Sm217 2.846 1_655 S
C227 C228 1.506 . S
C227 O242 1.261 . S
C227 O243 1.242 . S
C228 C227 1.506 . S
C228 C229 1.358 . S
C228 C233 1.382 . S
C229 C228 1.358 . S
C229 C230 1.385 . S
C229 H252 0.930 . S
C230 C229 1.385 . S
C230 C231 1.395 . S
C230 H253 0.929 . S
C231 C230 1.395 . S
C231 C232 1.335 . S
C232 C231 1.335 . S
C232 C233 1.398 . S
C232 H254 0.930 . S
C233 C228 1.382 . S
C233 C232 1.398 . S
C233 H255 0.929 . S
C234 O244 1.271 . S
C234 O245 1.251 . S
C235 O246 1.252 . S
C235 O247 1.272 . S
O236 Sm216 2.543 . S
O236 C218 1.261 . S
O237 Sm216 2.450 . S
O237 C218 1.242 . S
O238 Sm216 2.681 1_655 S
O238 Sm217 2.386 1_654 S
O238 C225 1.271 . S
O239 Sm216 2.464 1_655 S
O239 C225 1.251 . S
O240 Sm216 2.396 . S
O240 C226 1.252 . S
O241 Sm217 2.408 1_554 S
O241 C226 1.272 . S
O242 Sm217 2.543 1_655 S
O242 C227 1.261 . S
O243 Sm217 2.450 1_655 S
O243 C227 1.242 . S
O244 Sm216 2.386 1_556 S
O244 Sm217 2.681 . S
O244 C234 1.271 . S
O245 Sm217 2.464 . S
O245 C234 1.251 . S
O246 Sm217 2.396 1_655 S
O246 C235 1.252 . S
O247 Sm216 2.408 1_656 S
O247 C235 1.272 . S
H248 C220 0.930 . S
H249 C221 0.929 . S
H250 C223 0.930 . S
H251 C224 0.929 . S
H252 C229 0.930 . S
H253 C230 0.929 . S
H254 C232 0.930 . S
H255 C233 0.929 . S
H256 C264 0.929 . S
H257 C266 0.930 . S
H258 C268 0.930 . S
H259 C271 0.929 . S
H260 C274 0.930 . S
H261 C276 0.960 . S
H262 C276 0.960 . S
H263 C276 0.960 . S
C264 H256 0.929 . S
C264 C265 1.377 . S
C264 C266 1.384 . S
C265 C264 1.377 . S
C265 C271 1.390 . S
C266 H257 0.930 . S
C266 C264 1.384 . S
C266 C267 1.372 . S
C267 C266 1.372 . S
C267 C268 1.400 . S
C267 C272 1.490 . S
C268 H258 0.930 . S
C268 C267 1.400 . S
C268 C271 1.386 . S
H269 C285 0.930 . S
H270 C286 0.931 . S
C271 H259 0.929 . S
C271 C265 1.390 . S
C271 C268 1.386 . S
C272 C267 1.490 . S
C272 C274 1.395 . S
C272 C275 1.403 . S
H273 C279 0.930 . S
C274 H260 0.930 . S
C274 C272 1.395 . S
C274 C277 1.403 . S
C275 C272 1.403 . S
C275 C276 1.524 . S
C275 C279 1.400 . S
C276 H261 0.960 . S
C276 H262 0.960 . S
C276 H263 0.960 . S
C276 C275 1.524 . S
C277 C274 1.403 . S
C277 C278 1.392 . S
C277 C281 1.495 . S
C278 C277 1.392 . S
C278 C279 1.385 . S
C278 C280 1.478 . S
C279 H273 0.930 . S
C279 C275 1.400 . S
C279 C278 1.385 . S
C280 C278 1.478 . S
C280 C282 1.381 . S
C280 C286 1.383 . S
C281 C277 1.495 . S
C281 H287 0.959 . S
C281 H288 0.961 . S
C281 H289 0.960 . S
C282 C280 1.381 . S
C282 C283 1.394 . S
C282 H290 0.930 . S
C283 C282 1.394 . S
C283 C284 1.383 . S
C283 H291 0.929 . S
C284 C283 1.383 . S
C284 C285 1.377 . S
C285 H269 0.930 . S
C285 C284 1.377 . S
C285 C286 1.379 . S
C286 H270 0.931 . S
C286 C280 1.383 . S
C286 C285 1.379 . S
H287 C281 0.959 . S
H288 C281 0.961 . S
H289 C281 0.960 . S
H290 C282 0.930 . S
H291 C283 0.929 . S
H292 C300 0.929 . S
H293 C302 0.930 . S
H294 C304 0.930 . S
H295 C307 0.929 . S
H296 C310 0.930 . S
H297 C312 0.960 . S
H298 C312 0.960 . S
H299 C312 0.960 . S
C300 H292 0.929 . S
C300 C301 1.377 . S
C300 C302 1.384 . S
C301 C300 1.377 . S
C301 C307 1.390 . S
C302 H293 0.930 . S
C302 C300 1.384 . S
C302 C303 1.372 . S
C303 C302 1.372 . S
C303 C304 1.400 . S
C303 C308 1.490 . S
C304 H294 0.930 . S
C304 C303 1.400 . S
C304 C307 1.386 . S
H305 C321 0.930 . S
H306 C322 0.931 . S
C307 H295 0.929 . S
C307 C301 1.390 . S
C307 C304 1.386 . S
C308 C303 1.490 . S
C308 C310 1.395 . S
C308 C311 1.403 . S
H309 C315 0.930 . S
C310 H296 0.930 . S
C310 C308 1.395 . S
C310 C313 1.403 . S
C311 C308 1.403 . S
C311 C312 1.524 . S
C311 C315 1.400 . S
C312 H297 0.960 . S
C312 H298 0.960 . S
C312 H299 0.960 . S
C312 C311 1.524 . S
C313 C310 1.403 . S
C313 C314 1.392 . S
C313 C317 1.495 . S
C314 C313 1.392 . S
C314 C315 1.385 . S
C314 C316 1.478 . S
C315 H309 0.930 . S
C315 C311 1.400 . S
C315 C314 1.385 . S
C316 C314 1.478 . S
C316 C318 1.381 . S
C316 C322 1.383 . S
C317 C313 1.495 . S
C317 H323 0.959 . S
C317 H324 0.961 . S
C317 H325 0.960 . S
C318 C316 1.381 . S
C318 C319 1.394 . S
C318 H326 0.930 . S
C319 C318 1.394 . S
C319 C320 1.383 . S
C319 H327 0.929 . S
C320 C319 1.383 . S
C320 C321 1.377 . S
C321 H305 0.930 . S
C321 C320 1.377 . S
C321 C322 1.379 . S
C322 H306 0.931 . S
C322 C316 1.383 . S
C322 C321 1.379 . S
H323 C317 0.959 . S
H324 C317 0.961 . S
H325 C317 0.960 . S
H326 C318 0.930 . S
H327 C319 0.929 . S
H328 C336 0.929 . S
H329 C338 0.930 . S
H330 C340 0.930 . S
H331 C343 0.929 . S
H332 C346 0.930 . S
H333 C348 0.960 . S
H334 C348 0.960 . S
H335 C348 0.960 . S
C336 H328 0.929 . S
C336 C337 1.377 . S
C336 C338 1.384 . S
C337 C336 1.377 . S
C337 C343 1.390 . S
C338 H329 0.930 . S
C338 C336 1.384 . S
C338 C339 1.372 . S
C339 C338 1.372 . S
C339 C340 1.400 . S
C339 C344 1.490 . S
C340 H330 0.930 . S
C340 C339 1.400 . S
C340 C343 1.386 . S
H341 C357 0.930 . S
H342 C358 0.931 . S
C343 H331 0.929 . S
C343 C337 1.390 . S
C343 C340 1.386 . S
C344 C339 1.490 . S
C344 C346 1.395 . S
C344 C347 1.403 . S
H345 C351 0.930 . S
C346 H332 0.930 . S
C346 C344 1.395 . S
C346 C349 1.403 . S
C347 C344 1.403 . S
C347 C348 1.524 . S
C347 C351 1.400 . S
C348 H333 0.960 . S
C348 H334 0.960 . S
C348 H335 0.960 . S
C348 C347 1.524 . S
C349 C346 1.403 . S
C349 C350 1.392 . S
C349 C353 1.495 . S
C350 C349 1.392 . S
C350 C351 1.385 . S
C350 C352 1.478 . S
C351 H345 0.930 . S
C351 C347 1.400 . S
C351 C350 1.385 . S
C352 C350 1.478 . S
C352 C354 1.381 . S
C352 C358 1.383 . S
C353 C349 1.495 . S
C353 H359 0.959 . S
C353 H360 0.961 . S
C353 H361 0.960 . S
C354 C352 1.381 . S
C354 C355 1.394 . S
C354 H362 0.930 . S
C355 C354 1.394 . S
C355 C356 1.383 . S
C355 H363 0.929 . S
C356 C355 1.383 . S
C356 C357 1.377 . S
C357 H341 0.930 . S
C357 C356 1.377 . S
C357 C358 1.379 . S
C358 H342 0.931 . S
C358 C352 1.383 . S
C358 C357 1.379 . S
H359 C353 0.959 . S
H360 C353 0.961 . S
H361 C353 0.960 . S
H362 C354 0.930 . S
H363 C355 0.929 . S
H364 C372 0.929 . S
H365 C374 0.930 . S
H366 C376 0.930 . S
H367 C379 0.929 . S
H368 C382 0.930 . S
H369 C384 0.960 . S
H370 C384 0.960 . S
H371 C384 0.960 . S
C372 H364 0.929 . S
C372 C373 1.377 . S
C372 C374 1.384 . S
C373 C372 1.377 . S
C373 C379 1.390 . S
C374 H365 0.930 . S
C374 C372 1.384 . S
C374 C375 1.372 . S
C375 C374 1.372 . S
C375 C376 1.400 . S
C375 C380 1.490 . S
C376 H366 0.930 . S
C376 C375 1.400 . S
C376 C379 1.386 . S
H377 C393 0.930 . S
H378 C394 0.931 . S
C379 H367 0.929 . S
C379 C373 1.390 . S
C379 C376 1.386 . S
C380 C375 1.490 . S
C380 C382 1.395 . S
C380 C383 1.403 . S
H381 C387 0.930 . S
C382 H368 0.930 . S
C382 C380 1.395 . S
C382 C385 1.403 . S
C383 C380 1.403 . S
C383 C384 1.524 . S
C383 C387 1.400 . S
C384 H369 0.960 . S
C384 H370 0.960 . S
C384 H371 0.960 . S
C384 C383 1.524 . S
C385 C382 1.403 . S
C385 C386 1.392 . S
C385 C389 1.495 . S
C386 C385 1.392 . S
C386 C387 1.385 . S
C386 C388 1.478 . S
C387 H381 0.930 . S
C387 C383 1.400 . S
C387 C386 1.385 . S
C388 C386 1.478 . S
C388 C390 1.381 . S
C388 C394 1.383 . S
C389 C385 1.495 . S
C389 H395 0.959 . S
C389 H396 0.961 . S
C389 H397 0.960 . S
C390 C388 1.381 . S
C390 C391 1.394 . S
C390 H398 0.930 . S
C391 C390 1.394 . S
C391 C392 1.383 . S
C391 H399 0.929 . S
C392 C391 1.383 . S
C392 C393 1.377 . S
C393 H377 0.930 . S
C393 C392 1.377 . S
C393 C394 1.379 . S
C394 H378 0.931 . S
C394 C388 1.383 . S
C394 C393 1.379 . S
H395 C389 0.959 . S
H396 C389 0.961 . S
H397 C389 0.960 . S
H398 C390 0.930 . S
H399 C391 0.929 . S
H400 C408 0.929 . S
H401 C410 0.930 . S
H402 C412 0.930 . S
H403 C415 0.929 . S
H404 C418 0.930 . S
H405 C420 0.960 . S
H406 C420 0.960 . S
H407 C420 0.960 . S
C408 H400 0.929 . S
C408 C409 1.377 . S
C408 C410 1.384 . S
C409 C408 1.377 . S
C409 C415 1.390 . S
C410 H401 0.930 . S
C410 C408 1.384 . S
C410 C411 1.372 . S
C411 C410 1.372 . S
C411 C412 1.400 . S
C411 C416 1.490 . S
C412 H402 0.930 . S
C412 C411 1.400 . S
C412 C415 1.386 . S
H413 C429 0.930 . S
H414 C430 0.931 . S
C415 H403 0.929 . S
C415 C409 1.390 . S
C415 C412 1.386 . S
C416 C411 1.490 . S
C416 C418 1.395 . S
C416 C419 1.403 . S
H417 C423 0.930 . S
C418 H404 0.930 . S
C418 C416 1.395 . S
C418 C421 1.403 . S
C419 C416 1.403 . S
C419 C420 1.524 . S
C419 C423 1.400 . S
C420 H405 0.960 . S
C420 H406 0.960 . S
C420 H407 0.960 . S
C420 C419 1.524 . S
C421 C418 1.403 . S
C421 C422 1.392 . S
C421 C425 1.495 . S
C422 C421 1.392 . S
C422 C423 1.385 . S
C422 C424 1.478 . S
C423 H417 0.930 . S
C423 C419 1.400 . S
C423 C422 1.385 . S
C424 C422 1.478 . S
C424 C426 1.381 . S
C424 C430 1.383 . S
C425 C421 1.495 . S
C425 H431 0.959 . S
C425 H432 0.961 . S
C425 H433 0.960 . S
C426 C424 1.381 . S
C426 C427 1.394 . S
C426 H434 0.930 . S
C427 C426 1.394 . S
C427 C428 1.383 . S
C427 H435 0.929 . S
C428 C427 1.383 . S
C428 C429 1.377 . S
C429 H413 0.930 . S
C429 C428 1.377 . S
C429 C430 1.379 . S
C430 H414 0.931 . S
C430 C424 1.383 . S
C430 C429 1.379 . S
H431 C425 0.959 . S
H432 C425 0.961 . S
H433 C425 0.960 . S
H434 C426 0.930 . S
H435 C427 0.929 . S
H436 C444 0.929 . S
H437 C446 0.930 . S
H438 C448 0.930 . S
H439 C451 0.929 . S
H440 C454 0.930 . S
H441 C456 0.960 . S
H442 C456 0.960 . S
H443 C456 0.960 . S
C444 H436 0.929 . S
C444 C445 1.377 . S
C444 C446 1.384 . S
C445 C444 1.377 . S
C445 C451 1.390 . S
C446 H437 0.930 . S
C446 C444 1.384 . S
C446 C447 1.372 . S
C447 C446 1.372 . S
C447 C448 1.400 . S
C447 C452 1.490 . S
C448 H438 0.930 . S
C448 C447 1.400 . S
C448 C451 1.386 . S
H449 C465 0.930 . S
H450 C466 0.931 . S
C451 H439 0.929 . S
C451 C445 1.390 . S
C451 C448 1.386 . S
C452 C447 1.490 . S
C452 C454 1.395 . S
C452 C455 1.403 . S
H453 C459 0.930 . S
C454 H440 0.930 . S
C454 C452 1.395 . S
C454 C457 1.403 . S
C455 C452 1.403 . S
C455 C456 1.524 . S
C455 C459 1.400 . S
C456 H441 0.960 . S
C456 H442 0.960 . S
C456 H443 0.960 . S
C456 C455 1.524 . S
C457 C454 1.403 . S
C457 C458 1.392 . S
C457 C461 1.495 . S
C458 C457 1.392 . S
C458 C459 1.385 . S
C458 C460 1.478 . S
C459 H453 0.930 . S
C459 C455 1.400 . S
C459 C458 1.385 . S
C460 C458 1.478 . S
C460 C462 1.381 . S
C460 C466 1.383 . S
C461 C457 1.495 . S
C461 H467 0.959 . S
C461 H468 0.961 . S
C461 H469 0.960 . S
C462 C460 1.381 . S
C462 C463 1.394 . S
C462 H470 0.930 . S
C463 C462 1.394 . S
C463 C464 1.383 . S
C463 H471 0.929 1_565 S
C464 C463 1.383 . S
C464 C465 1.377 . S
C465 H449 0.930 . S
C465 C464 1.377 . S
C465 C466 1.379 . S
C466 H450 0.931 . S
C466 C460 1.383 . S
C466 C465 1.379 . S
H467 C461 0.959 . S
H468 C461 0.961 . S
H469 C461 0.960 . S
H470 C462 0.930 . S
H471 C463 0.929 1_545 S
H472 C480 0.929 . S
H473 C482 0.930 . S
H474 C484 0.930 . S
H475 C487 0.929 . S
H476 C490 0.930 . S
H477 C492 0.960 . S
H478 C492 0.960 . S
H479 C492 0.960 . S
C480 H472 0.929 . S
C480 C481 1.377 . S
C480 C482 1.384 . S
C481 C480 1.377 . S
C481 C487 1.390 . S
C482 H473 0.930 . S
C482 C480 1.384 . S
C482 C483 1.372 . S
C483 C482 1.372 . S
C483 C484 1.400 . S
C483 C488 1.490 . S
C484 H474 0.930 . S
C484 C483 1.400 . S
C484 C487 1.386 . S
H485 C501 0.930 . S
H486 C502 0.931 . S
C487 H475 0.929 . S
C487 C481 1.390 . S
C487 C484 1.386 . S
C488 C483 1.490 . S
C488 C490 1.395 . S
C488 C491 1.403 . S
H489 C495 0.930 . S
C490 H476 0.930 . S
C490 C488 1.395 . S
C490 C493 1.403 . S
C491 C488 1.403 . S
C491 C492 1.524 . S
C491 C495 1.400 . S
C492 H477 0.960 . S
C492 H478 0.960 . S
C492 H479 0.960 . S
C492 C491 1.524 . S
C493 C490 1.403 . S
C493 C494 1.392 . S
C493 C497 1.495 . S
C494 C493 1.392 . S
C494 C495 1.385 . S
C494 C496 1.478 . S
C495 H489 0.930 . S
C495 C491 1.400 . S
C495 C494 1.385 . S
C496 C494 1.478 . S
C496 C498 1.381 . S
C496 C502 1.383 . S
C497 C493 1.495 . S
C497 H503 0.959 . S
C497 H504 0.961 . S
C497 H505 0.960 . S
C498 C496 1.381 . S
C498 C499 1.394 . S
C498 H506 0.930 . S
C499 C498 1.394 . S
C499 C500 1.383 . S
C499 H507 0.929 . S
C500 C499 1.383 . S
C500 C501 1.377 . S
C501 H485 0.930 . S
C501 C500 1.377 . S
C501 C502 1.379 . S
C502 H486 0.931 . S
C502 C496 1.383 . S
C502 C501 1.379 . S
H503 C497 0.959 . S
H504 C497 0.961 . S
H505 C497 0.960 . S
H506 C498 0.930 . S
H507 C499 0.929 . S
H508 C516 0.929 . S
H509 C518 0.930 . S
H510 C520 0.930 . S
H511 C523 0.929 . S
H512 C526 0.930 . S
H513 C528 0.960 . S
H514 C528 0.960 . S
H515 C528 0.960 . S
C516 H508 0.929 . S
C516 C517 1.377 . S
C516 C518 1.384 . S
C517 C516 1.377 . S
C517 C523 1.390 . S
C518 H509 0.930 . S
C518 C516 1.384 . S
C518 C519 1.372 . S
C519 C518 1.372 . S
C519 C520 1.400 . S
C519 C524 1.490 . S
C520 H510 0.930 . S
C520 C519 1.400 . S
C520 C523 1.386 . S
H521 C537 0.930 . S
H522 C538 0.931 . S
C523 H511 0.929 . S
C523 C517 1.390 . S
C523 C520 1.386 . S
C524 C519 1.490 . S
C524 C526 1.395 . S
C524 C527 1.403 . S
H525 C531 0.930 . S
C526 H512 0.930 . S
C526 C524 1.395 . S
C526 C529 1.403 . S
C527 C524 1.403 . S
C527 C528 1.524 . S
C527 C531 1.400 . S
C528 H513 0.960 . S
C528 H514 0.960 . S
C528 H515 0.960 . S
C528 C527 1.524 . S
C529 C526 1.403 . S
C529 C530 1.392 . S
C529 C533 1.495 . S
C530 C529 1.392 . S
C530 C531 1.385 . S
C530 C532 1.478 . S
C531 H525 0.930 . S
C531 C527 1.400 . S
C531 C530 1.385 . S
C532 C530 1.478 . S
C532 C534 1.381 . S
C532 C538 1.383 . S
C533 C529 1.495 . S
C533 H539 0.959 . S
C533 H540 0.961 . S
C533 H541 0.960 . S
C534 C532 1.381 . S
C534 C535 1.394 . S
C534 H542 0.930 . S
C535 C534 1.394 . S
C535 C536 1.383 . S
C535 H543 0.929 . S
C536 C535 1.383 . S
C536 C537 1.377 . S
C537 H521 0.930 . S
C537 C536 1.377 . S
C537 C538 1.379 . S
C538 H522 0.931 . S
C538 C532 1.383 . S
C538 C537 1.379 . S
H539 C533 0.959 . S
H540 C533 0.961 . S
H541 C533 0.960 . S
H542 C534 0.930 . S
H543 C535 0.929 . S
H544 C552 0.929 . S
H545 C554 0.930 . S
H546 C556 0.930 . S
H547 C559 0.929 . S
H548 C562 0.930 . S
H549 C564 0.960 . S
H550 C564 0.960 . S
H551 C564 0.960 . S
C552 H544 0.929 . S
C552 C553 1.377 . S
C552 C554 1.384 . S
C553 C552 1.377 . S
C553 C559 1.390 . S
C554 H545 0.930 . S
C554 C552 1.384 . S
C554 C555 1.372 . S
C555 C554 1.372 . S
C555 C556 1.400 . S
C555 C560 1.490 . S
C556 H546 0.930 . S
C556 C555 1.400 . S
C556 C559 1.386 . S
H557 C573 0.930 . S
H558 C574 0.931 . S
C559 H547 0.929 . S
C559 C553 1.390 . S
C559 C556 1.386 . S
C560 C555 1.490 . S
C560 C562 1.395 . S
C560 C563 1.403 . S
H561 C567 0.930 . S
C562 H548 0.930 . S
C562 C560 1.395 . S
C562 C565 1.403 . S
C563 C560 1.403 . S
C563 C564 1.524 . S
C563 C567 1.400 . S
C564 H549 0.960 . S
C564 H550 0.960 . S
C564 H551 0.960 . S
C564 C563 1.524 . S
C565 C562 1.403 . S
C565 C566 1.392 . S
C565 C569 1.495 . S
C566 C565 1.392 . S
C566 C567 1.385 . S
C566 C568 1.478 . S
C567 H561 0.930 . S
C567 C563 1.400 . S
C567 C566 1.385 . S
C568 C566 1.478 . S
C568 C570 1.381 . S
C568 C574 1.383 . S
C569 C565 1.495 . S
C569 H575 0.959 . S
C569 H576 0.961 . S
C569 H577 0.960 . S
C570 C568 1.381 . S
C570 C571 1.394 . S
C570 H578 0.930 . S
C571 C570 1.394 . S
C571 C572 1.383 . S
C571 H579 0.929 . S
C572 C571 1.383 . S
C572 C573 1.377 . S
C573 H557 0.930 . S
C573 C572 1.377 . S
C573 C574 1.379 . S
C574 H558 0.931 . S
C574 C568 1.383 . S
C574 C573 1.379 . S
H575 C569 0.959 . S
H576 C569 0.961 . S
H577 C569 0.960 . S
H578 C570 0.930 . S
H579 C571 0.929 . S
H580 C588 0.929 . S
H581 C590 0.930 . S
H582 C592 0.930 . S
H583 C595 0.929 . S
H584 C598 0.930 . S
H585 C600 0.960 . S
H586 C600 0.960 . S
H587 C600 0.960 . S
C588 H580 0.929 . S
C588 C589 1.377 . S
C588 C590 1.384 . S
C589 C588 1.377 . S
C589 C595 1.390 . S
C590 H581 0.930 . S
C590 C588 1.384 . S
C590 C591 1.372 . S
C591 C590 1.372 . S
C591 C592 1.400 . S
C591 C596 1.490 . S
C592 H582 0.930 . S
C592 C591 1.400 . S
C592 C595 1.386 . S
H593 C609 0.930 . S
H594 C610 0.931 . S
C595 H583 0.929 . S
C595 C589 1.390 . S
C595 C592 1.386 . S
C596 C591 1.490 . S
C596 C598 1.395 . S
C596 C599 1.403 . S
H597 C603 0.930 . S
C598 H584 0.930 . S
C598 C596 1.395 . S
C598 C601 1.403 . S
C599 C596 1.403 . S
C599 C600 1.524 . S
C599 C603 1.400 . S
C600 H585 0.960 . S
C600 H586 0.960 . S
C600 H587 0.960 . S
C600 C599 1.524 . S
C601 C598 1.403 . S
C601 C602 1.392 . S
C601 C605 1.495 . S
C602 C601 1.392 . S
C602 C603 1.385 . S
C602 C604 1.478 . S
C603 H597 0.930 . S
C603 C599 1.400 . S
C603 C602 1.385 . S
C604 C602 1.478 . S
C604 C606 1.381 . S
C604 C610 1.383 . S
C605 C601 1.495 . S
C605 H611 0.959 . S
C605 H612 0.961 . S
C605 H613 0.960 . S
C606 C604 1.381 . S
C606 C607 1.394 . S
C606 H614 0.930 . S
C607 C606 1.394 . S
C607 C608 1.383 . S
C607 H615 0.929 . S
C608 C607 1.383 . S
C608 C609 1.377 . S
C609 H593 0.930 . S
C609 C608 1.377 . S
C609 C610 1.379 . S
C610 H594 0.931 . S
C610 C604 1.383 . S
C610 C609 1.379 . S
H611 C605 0.959 . S
H612 C605 0.961 . S
H613 C605 0.960 . S
H614 C606 0.930 . S
H615 C607 0.929 . S
H616 C624 0.929 . S
H617 C626 0.930 . S
H618 C628 0.930 . S
H619 C631 0.929 . S
H620 C634 0.930 . S
H621 C636 0.960 . S
H622 C636 0.960 . S
H623 C636 0.960 . S
C624 H616 0.929 . S
C624 C625 1.377 . S
C624 C626 1.384 . S
C625 C624 1.377 . S
C625 C631 1.390 . S
C626 H617 0.930 . S
C626 C624 1.384 . S
C626 C627 1.372 . S
C627 C626 1.372 . S
C627 C628 1.400 . S
C627 C632 1.490 . S
C628 H618 0.930 . S
C628 C627 1.400 . S
C628 C631 1.386 . S
H629 C645 0.930 . S
H630 C646 0.931 . S
C631 H619 0.929 . S
C631 C625 1.390 . S
C631 C628 1.386 . S
C632 C627 1.490 . S
C632 C634 1.395 . S
C632 C635 1.403 . S
H633 C639 0.930 . S
C634 H620 0.930 . S
C634 C632 1.395 . S
C634 C637 1.403 . S
C635 C632 1.403 . S
C635 C636 1.524 . S
C635 C639 1.400 . S
C636 H621 0.960 . S
C636 H622 0.960 . S
C636 H623 0.960 . S
C636 C635 1.524 . S
C637 C634 1.403 . S
C637 C638 1.392 . S
C637 C641 1.495 . S
C638 C637 1.392 . S
C638 C639 1.385 . S
C638 C640 1.478 . S
C639 H633 0.930 . S
C639 C635 1.400 . S
C639 C638 1.385 . S
C640 C638 1.478 . S
C640 C642 1.381 . S
C640 C646 1.383 . S
C641 C637 1.495 . S
C641 H647 0.959 . S
C641 H648 0.961 . S
C641 H649 0.960 . S
C642 C640 1.381 . S
C642 C643 1.394 . S
C642 H650 0.930 . S
C643 C642 1.394 . S
C643 C644 1.383 . S
C643 H651 0.929 . S
C644 C643 1.383 . S
C644 C645 1.377 . S
C645 H629 0.930 . S
C645 C644 1.377 . S
C645 C646 1.379 . S
C646 H630 0.931 . S
C646 C640 1.383 . S
C646 C645 1.379 . S
H647 C641 0.959 . S
H648 C641 0.961 . S
H649 C641 0.960 . S
H650 C642 0.930 . S
H651 C643 0.929 . S
H652 C660 0.929 . S
H653 C662 0.930 . S
H654 C664 0.930 . S
H655 C667 0.929 . S
H656 C670 0.930 . S
H657 C672 0.960 . S
H658 C672 0.960 . S
H659 C672 0.960 . S
C660 H652 0.929 . S
C660 C661 1.377 . S
C660 C662 1.384 . S
C661 C660 1.377 . S
C661 C667 1.390 . S
C662 H653 0.930 . S
C662 C660 1.384 . S
C662 C663 1.372 . S
C663 C662 1.372 . S
C663 C664 1.400 . S
C663 C668 1.490 . S
C664 H654 0.930 . S
C664 C663 1.400 . S
C664 C667 1.386 . S
H665 C681 0.930 . S
H666 C682 0.931 . S
C667 H655 0.929 . S
C667 C661 1.390 . S
C667 C664 1.386 . S
C668 C663 1.490 . S
C668 C670 1.395 . S
C668 C671 1.403 . S
H669 C675 0.930 . S
C670 H656 0.930 . S
C670 C668 1.395 . S
C670 C673 1.403 . S
C671 C668 1.403 . S
C671 C672 1.524 . S
C671 C675 1.400 . S
C672 H657 0.960 . S
C672 H658 0.960 . S
C672 H659 0.960 . S
C672 C671 1.524 . S
C673 C670 1.403 . S
C673 C674 1.392 . S
C673 C677 1.495 . S
C674 C673 1.392 . S
C674 C675 1.385 . S
C674 C676 1.478 . S
C675 H669 0.930 . S
C675 C671 1.400 . S
C675 C674 1.385 . S
C676 C674 1.478 . S
C676 C678 1.381 . S
C676 C682 1.383 . S
C677 C673 1.495 . S
C677 H683 0.959 . S
C677 H684 0.961 . S
C677 H685 0.960 . S
C678 C676 1.381 . S
C678 C679 1.394 . S
C678 H686 0.930 . S
C679 C678 1.394 . S
C679 C680 1.383 . S
C679 H687 0.929 . S
C680 C679 1.383 . S
C680 C681 1.377 . S
C681 H665 0.930 . S
C681 C680 1.377 . S
C681 C682 1.379 . S
C682 H666 0.931 . S
C682 C676 1.383 . S
C682 C681 1.379 . S
H683 C677 0.959 . S
H684 C677 0.961 . S
H685 C677 0.960 . S
H686 C678 0.930 . S
H687 C679 0.929 . S
H688 C696 0.929 . S
H689 C698 0.930 . S
H690 C700 0.930 . S
H691 C703 0.929 . S
H692 C706 0.930 . S
H693 C708 0.960 . S
H694 C708 0.960 . S
H695 C708 0.960 . S
C696 H688 0.929 . S
C696 C697 1.377 . S
C696 C698 1.384 . S
C697 C696 1.377 . S
C697 C703 1.390 . S
C698 H689 0.930 . S
C698 C696 1.384 . S
C698 C699 1.372 . S
C699 C698 1.372 . S
C699 C700 1.400 . S
C699 C704 1.490 . S
C700 H690 0.930 . S
C700 C699 1.400 . S
C700 C703 1.386 . S
H701 C717 0.930 . S
H702 C718 0.931 . S
C703 H691 0.929 . S
C703 C697 1.390 . S
C703 C700 1.386 . S
C704 C699 1.490 . S
C704 C706 1.395 . S
C704 C707 1.403 . S
H705 C711 0.930 . S
C706 H692 0.930 . S
C706 C704 1.395 . S
C706 C709 1.403 . S
C707 C704 1.403 . S
C707 C708 1.524 . S
C707 C711 1.400 . S
C708 H693 0.960 . S
C708 H694 0.960 . S
C708 H695 0.960 . S
C708 C707 1.524 . S
C709 C706 1.403 . S
C709 C710 1.392 . S
C709 C713 1.495 . S
C710 C709 1.392 . S
C710 C711 1.385 . S
C710 C712 1.478 . S
C711 H705 0.930 . S
C711 C707 1.400 . S
C711 C710 1.385 . S
C712 C710 1.478 . S
C712 C714 1.381 . S
C712 C718 1.383 . S
C713 C709 1.495 . S
C713 H719 0.959 . S
C713 H720 0.961 . S
C713 H721 0.960 . S
C714 C712 1.381 . S
C714 C715 1.394 . S
C714 H722 0.930 . S
C715 C714 1.394 . S
C715 C716 1.383 . S
C715 H723 0.929 . S
C716 C715 1.383 . S
C716 C717 1.377 . S
C717 H701 0.930 . S
C717 C716 1.377 . S
C717 C718 1.379 . S
C718 H702 0.931 . S
C718 C712 1.383 . S
C718 C717 1.379 . S
H719 C713 0.959 . S
H720 C713 0.961 . S
H721 C713 0.960 . S
H722 C714 0.930 . S
H723 C715 0.929 . S
H724 C732 0.929 . S
H725 C734 0.930 . S
H726 C736 0.930 . S
H727 C739 0.929 . S
H728 C742 0.930 . S
H729 C744 0.960 . S
H730 C744 0.960 . S
H731 C744 0.960 . S
C732 H724 0.929 . S
C732 C733 1.377 . S
C732 C734 1.384 . S
C733 C732 1.377 . S
C733 C739 1.390 . S
C734 H725 0.930 . S
C734 C732 1.384 . S
C734 C735 1.372 . S
C735 C734 1.372 . S
C735 C736 1.400 . S
C735 C740 1.490 . S
C736 H726 0.930 . S
C736 C735 1.400 . S
C736 C739 1.386 . S
H737 C753 0.930 . S
H738 C754 0.931 . S
C739 H727 0.929 . S
C739 C733 1.390 . S
C739 C736 1.386 . S
C740 C735 1.490 . S
C740 C742 1.395 . S
C740 C743 1.403 . S
H741 C747 0.930 . S
C742 H728 0.930 . S
C742 C740 1.395 . S
C742 C745 1.403 . S
C743 C740 1.403 . S
C743 C744 1.524 . S
C743 C747 1.400 . S
C744 H729 0.960 . S
C744 H730 0.960 . S
C744 H731 0.960 . S
C744 C743 1.524 . S
C745 C742 1.403 . S
C745 C746 1.392 . S
C745 C749 1.495 . S
C746 C745 1.392 . S
C746 C747 1.385 . S
C746 C748 1.478 . S
C747 H741 0.930 . S
C747 C743 1.400 . S
C747 C746 1.385 . S
C748 C746 1.478 . S
C748 C750 1.381 . S
C748 C754 1.383 . S
C749 C745 1.495 . S
C749 H755 0.959 . S
C749 H756 0.961 . S
C749 H757 0.960 . S
C750 C748 1.381 . S
C750 C751 1.394 . S
C750 H758 0.930 . S
C751 C750 1.394 . S
C751 C752 1.383 . S
C751 H759 0.929 . S
C752 C751 1.383 . S
C752 C753 1.377 . S
C753 H737 0.930 . S
C753 C752 1.377 . S
C753 C754 1.379 . S
C754 H738 0.931 . S
C754 C748 1.383 . S
C754 C753 1.379 . S
H755 C749 0.959 . S
H756 C749 0.961 . S
H757 C749 0.960 . S
H758 C750 0.930 . S
H759 C751 0.929 . S
H760 C768 0.929 . S
H761 C770 0.930 . S
H762 C772 0.930 . S
H763 C775 0.929 . S
H764 C778 0.930 . S
H765 C780 0.960 . S
H766 C780 0.960 . S
H767 C780 0.960 . S
C768 H760 0.929 . S
C768 C769 1.377 . S
C768 C770 1.384 . S
C769 C768 1.377 . S
C769 C775 1.390 . S
C770 H761 0.930 . S
C770 C768 1.384 . S
C770 C771 1.372 . S
C771 C770 1.372 . S
C771 C772 1.400 . S
C771 C776 1.490 . S
C772 H762 0.930 . S
C772 C771 1.400 . S
C772 C775 1.386 . S
H773 C789 0.930 . S
H774 C790 0.931 . S
C775 H763 0.929 . S
C775 C769 1.390 . S
C775 C772 1.386 . S
C776 C771 1.490 . S
C776 C778 1.395 . S
C776 C779 1.403 . S
H777 C783 0.930 . S
C778 H764 0.930 . S
C778 C776 1.395 . S
C778 C781 1.403 . S
C779 C776 1.403 . S
C779 C780 1.524 . S
C779 C783 1.400 . S
C780 H765 0.960 . S
C780 H766 0.960 . S
C780 H767 0.960 . S
C780 C779 1.524 . S
C781 C778 1.403 . S
C781 C782 1.392 . S
C781 C785 1.495 . S
C782 C781 1.392 . S
C782 C783 1.385 . S
C782 C784 1.478 . S
C783 H777 0.930 . S
C783 C779 1.400 . S
C783 C782 1.385 . S
C784 C782 1.478 . S
C784 C786 1.381 . S
C784 C790 1.383 . S
C785 C781 1.495 . S
C785 H791 0.959 . S
C785 H792 0.961 . S
C785 H793 0.960 . S
C786 C784 1.381 . S
C786 C787 1.394 . S
C786 H794 0.930 . S
C787 C786 1.394 . S
C787 C788 1.383 . S
C787 H795 0.929 . S
C788 C787 1.383 . S
C788 C789 1.377 . S
C789 H773 0.930 . S
C789 C788 1.377 . S
C789 C790 1.379 . S
C790 H774 0.931 . S
C790 C784 1.383 . S
C790 C789 1.379 . S
H791 C785 0.959 . S
H792 C785 0.961 . S
H793 C785 0.960 . S
H794 C786 0.930 . S
H795 C787 0.929 . S
H796 C804 0.929 . S
H797 C806 0.930 . S
H798 C808 0.930 . S
H799 C811 0.929 . S
H800 C814 0.930 . S
H801 C816 0.960 . S
H802 C816 0.960 . S
H803 C816 0.960 . S
C804 H796 0.929 . S
C804 C805 1.377 . S
C804 C806 1.384 . S
C805 C804 1.377 . S
C805 C811 1.390 . S
C806 H797 0.930 . S
C806 C804 1.384 . S
C806 C807 1.372 . S
C807 C806 1.372 . S
C807 C808 1.400 . S
C807 C812 1.490 . S
C808 H798 0.930 . S
C808 C807 1.400 . S
C808 C811 1.386 . S
H809 C825 0.930 . S
H810 C826 0.931 . S
C811 H799 0.929 . S
C811 C805 1.390 . S
C811 C808 1.386 . S
C812 C807 1.490 . S
C812 C814 1.395 . S
C812 C815 1.403 . S
H813 C819 0.930 . S
C814 H800 0.930 . S
C814 C812 1.395 . S
C814 C817 1.403 . S
C815 C812 1.403 . S
C815 C816 1.524 . S
C815 C819 1.400 . S
C816 H801 0.960 . S
C816 H802 0.960 . S
C816 H803 0.960 . S
C816 C815 1.524 . S
C817 C814 1.403 . S
C817 C818 1.392 . S
C817 C821 1.495 . S
C818 C817 1.392 . S
C818 C819 1.385 . S
C818 C820 1.478 . S
C819 H813 0.930 . S
C819 C815 1.400 . S
C819 C818 1.385 . S
C820 C818 1.478 . S
C820 C822 1.381 . S
C820 C826 1.383 . S
C821 C817 1.495 . S
C821 H827 0.959 . S
C821 H828 0.961 . S
C821 H829 0.960 . S
C822 C820 1.381 . S
C822 C823 1.394 . S
C822 H830 0.930 . S
C823 C822 1.394 . S
C823 C824 1.383 . S
C823 H831 0.929 . S
C824 C823 1.383 . S
C824 C825 1.377 . S
C825 H809 0.930 . S
C825 C824 1.377 . S
C825 C826 1.379 . S
C826 H810 0.931 . S
C826 C820 1.383 . S
C826 C825 1.379 . S
H827 C821 0.959 . S
H828 C821 0.961 . S
H829 C821 0.960 . S
H830 C822 0.930 . S
H831 C823 0.929 . S
H832 C840 0.929 . S
H833 C842 0.930 . S
H834 C844 0.930 . S
H835 C847 0.929 . S
H836 C850 0.930 . S
H837 C852 0.960 . S
H838 C852 0.960 . S
H839 C852 0.960 . S
C840 H832 0.929 . S
C840 C841 1.377 . S
C840 C842 1.384 . S
C841 C840 1.377 . S
C841 C847 1.390 . S
C842 H833 0.930 . S
C842 C840 1.384 . S
C842 C843 1.372 . S
C843 C842 1.372 . S
C843 C844 1.400 . S
C843 C848 1.490 . S
C844 H834 0.930 . S
C844 C843 1.400 . S
C844 C847 1.386 . S
H845 C861 0.930 . S
H846 C862 0.931 . S
C847 H835 0.929 . S
C847 C841 1.390 . S
C847 C844 1.386 . S
C848 C843 1.490 . S
C848 C850 1.395 . S
C848 C851 1.403 . S
H849 C855 0.930 . S
C850 H836 0.930 . S
C850 C848 1.395 . S
C850 C853 1.403 . S
C851 C848 1.403 . S
C851 C852 1.524 . S
C851 C855 1.400 . S
C852 H837 0.960 . S
C852 H838 0.960 . S
C852 H839 0.960 . S
C852 C851 1.524 . S
C853 C850 1.403 . S
C853 C854 1.392 . S
C853 C857 1.495 . S
C854 C853 1.392 . S
C854 C855 1.385 . S
C854 C856 1.478 . S
C855 H849 0.930 . S
C855 C851 1.400 . S
C855 C854 1.385 . S
C856 C854 1.478 . S
C856 C858 1.381 . S
C856 C862 1.383 . S
C857 C853 1.495 . S
C857 H863 0.959 . S
C857 H864 0.961 . S
C857 H865 0.960 . S
C858 C856 1.381 . S
C858 C859 1.394 . S
C858 H866 0.930 . S
C859 C858 1.394 . S
C859 C860 1.383 . S
C859 H867 0.929 . S
C860 C859 1.383 . S
C860 C861 1.377 . S
C861 H845 0.930 . S
C861 C860 1.377 . S
C861 C862 1.379 . S
C862 H846 0.931 . S
C862 C856 1.383 . S
C862 C861 1.379 . S
H863 C857 0.959 . S
H864 C857 0.961 . S
H865 C857 0.960 . S
H866 C858 0.930 . S
H867 C859 0.929 . S
H868 C876 0.929 . S
H869 C878 0.930 . S
H870 C880 0.930 . S
H871 C883 0.929 . S
H872 C886 0.930 . S
H873 C888 0.960 . S
H874 C888 0.960 . S
H875 C888 0.960 . S
C876 H868 0.929 . S
C876 C877 1.377 . S
C876 C878 1.384 . S
C877 C876 1.377 . S
C877 C883 1.390 . S
C878 H869 0.930 . S
C878 C876 1.384 . S
C878 C879 1.372 . S
C879 C878 1.372 . S
C879 C880 1.400 . S
C879 C884 1.490 . S
C880 H870 0.930 . S
C880 C879 1.400 . S
C880 C883 1.386 . S
H881 C897 0.930 . S
H882 C898 0.931 . S
C883 H871 0.929 . S
C883 C877 1.390 . S
C883 C880 1.386 . S
C884 C879 1.490 . S
C884 C886 1.395 . S
C884 C887 1.403 . S
H885 C891 0.930 . S
C886 H872 0.930 . S
C886 C884 1.395 . S
C886 C889 1.403 . S
C887 C884 1.403 . S
C887 C888 1.524 . S
C887 C891 1.400 . S
C888 H873 0.960 . S
C888 H874 0.960 . S
C888 H875 0.960 . S
C888 C887 1.524 . S
C889 C886 1.403 . S
C889 C890 1.392 . S
C889 C893 1.495 . S
C890 C889 1.392 . S
C890 C891 1.385 . S
C890 C892 1.478 . S
C891 H885 0.930 . S
C891 C887 1.400 . S
C891 C890 1.385 . S
C892 C890 1.478 . S
C892 C894 1.381 . S
C892 C898 1.383 . S
C893 C889 1.495 . S
C893 H899 0.959 . S
C893 H900 0.961 . S
C893 H901 0.960 . S
C894 C892 1.381 . S
C894 C895 1.394 . S
C894 H902 0.930 . S
C895 C894 1.394 . S
C895 C896 1.383 . S
C895 H903 0.929 . S
C896 C895 1.383 . S
C896 C897 1.377 . S
C897 H881 0.930 . S
C897 C896 1.377 . S
C897 C898 1.379 . S
C898 H882 0.931 . S
C898 C892 1.383 . S
C898 C897 1.379 . S
H899 C893 0.959 . S
H900 C893 0.961 . S
H901 C893 0.960 . S
H902 C894 0.930 . S
H903 C895 0.929 . S
H904 C912 0.929 . S
H905 C914 0.930 . S
H906 C916 0.930 . S
H907 C919 0.929 . S
H908 C922 0.930 . S
H909 C924 0.960 . S
H910 C924 0.960 . S
H911 C924 0.960 . S
C912 H904 0.929 . S
C912 C913 1.377 . S
C912 C914 1.384 . S
C913 C912 1.377 . S
C913 C919 1.390 . S
C914 H905 0.930 . S
C914 C912 1.384 . S
C914 C915 1.372 . S
C915 C914 1.372 . S
C915 C916 1.400 . S
C915 C920 1.490 . S
C916 H906 0.930 . S
C916 C915 1.400 . S
C916 C919 1.386 . S
H917 C933 0.930 . S
H918 C934 0.931 . S
C919 H907 0.929 . S
C919 C913 1.390 . S
C919 C916 1.386 . S
C920 C915 1.490 . S
C920 C922 1.395 . S
C920 C923 1.403 . S
H921 C927 0.930 . S
C922 H908 0.930 . S
C922 C920 1.395 . S
C922 C925 1.403 . S
C923 C920 1.403 . S
C923 C924 1.524 . S
C923 C927 1.400 . S
C924 H909 0.960 . S
C924 H910 0.960 . S
C924 H911 0.960 . S
C924 C923 1.524 . S
C925 C922 1.403 . S
C925 C926 1.392 . S
C925 C929 1.495 . S
C926 C925 1.392 . S
C926 C927 1.385 . S
C926 C928 1.478 . S
C927 H921 0.930 . S
C927 C923 1.400 . S
C927 C926 1.385 . S
C928 C926 1.478 . S
C928 C930 1.381 . S
C928 C934 1.383 . S
C929 C925 1.495 . S
C929 H935 0.959 . S
C929 H936 0.961 . S
C929 H937 0.960 . S
C930 C928 1.381 . S
C930 C931 1.394 . S
C930 H938 0.930 . S
C931 C930 1.394 . S
C931 C932 1.383 . S
C931 H939 0.929 . S
C932 C931 1.383 . S
C932 C933 1.377 . S
C933 H917 0.930 . S
C933 C932 1.377 . S
C933 C934 1.379 . S
C934 H918 0.931 . S
C934 C928 1.383 . S
C934 C933 1.379 . S
H935 C929 0.959 . S
H936 C929 0.961 . S
H937 C929 0.960 . S
H938 C930 0.930 . S
H939 C931 0.929 . S
H940 C948 0.929 . S
H941 C950 0.930 . S
H942 C952 0.930 . S
H943 C955 0.929 . S
H944 C958 0.930 . S
H945 C960 0.960 . S
H946 C960 0.960 . S
H947 C960 0.960 . S
C948 H940 0.929 . S
C948 C949 1.377 . S
C948 C950 1.384 . S
C949 C948 1.377 . S
C949 C955 1.390 . S
C950 H941 0.930 . S
C950 C948 1.384 . S
C950 C951 1.372 . S
C951 C950 1.372 . S
C951 C952 1.400 . S
C951 C956 1.490 . S
C952 H942 0.930 . S
C952 C951 1.400 . S
C952 C955 1.386 . S
H953 C969 0.930 . S
H954 C970 0.931 . S
C955 H943 0.929 . S
C955 C949 1.390 . S
C955 C952 1.386 . S
C956 C951 1.490 . S
C956 C958 1.395 . S
C956 C959 1.403 . S
H957 C963 0.930 . S
C958 H944 0.930 . S
C958 C956 1.395 . S
C958 C961 1.403 . S
C959 C956 1.403 . S
C959 C960 1.524 . S
C959 C963 1.400 . S
C960 H945 0.960 . S
C960 H946 0.960 . S
C960 H947 0.960 . S
C960 C959 1.524 . S
C961 C958 1.403 . S
C961 C962 1.392 . S
C961 C965 1.495 . S
C962 C961 1.392 . S
C962 C963 1.385 . S
C962 C964 1.478 . S
C963 H957 0.930 . S
C963 C959 1.400 . S
C963 C962 1.385 . S
C964 C962 1.478 . S
C964 C966 1.381 . S
C964 C970 1.383 . S
C965 C961 1.495 . S
C965 H971 0.959 . S
C965 H972 0.961 . S
C965 H973 0.960 . S
C966 C964 1.381 . S
C966 C967 1.394 . S
C966 H974 0.930 . S
C967 C966 1.394 . S
C967 C968 1.383 . S
C967 H975 0.929 . S
C968 C967 1.383 . S
C968 C969 1.377 . S
C969 H953 0.930 . S
C969 C968 1.377 . S
C969 C970 1.379 . S
C970 H954 0.931 . S
C970 C964 1.383 . S
C970 C969 1.379 . S
H971 C965 0.959 . S
H972 C965 0.961 . S
H973 C965 0.960 . S
H974 C966 0.930 . S
H975 C967 0.929 . S
H976 C984 0.929 . S
H977 C986 0.930 . S
H978 C988 0.930 . S
H979 C991 0.929 . S
H980 C994 0.930 . S
H981 C996 0.960 . S
H982 C996 0.960 . S
H983 C996 0.960 . S
C984 H976 0.929 . S
C984 C985 1.377 . S
C984 C986 1.384 . S
C985 C984 1.377 . S
C985 C991 1.390 . S
C986 H977 0.930 . S
C986 C984 1.384 . S
C986 C987 1.372 . S
C987 C986 1.372 . S
C987 C988 1.400 . S
C987 C992 1.490 . S
C988 H978 0.930 . S
C988 C987 1.400 . S
C988 C991 1.386 . S
H989 C1005 0.930 . S
H990 C1006 0.931 . S
C991 H979 0.929 . S
C991 C985 1.390 . S
C991 C988 1.386 . S
C992 C987 1.490 . S
C992 C994 1.395 . S
C992 C995 1.403 . S
H993 C999 0.930 . S
C994 H980 0.930 . S
C994 C992 1.395 . S
C994 C997 1.403 . S
C995 C992 1.403 . S
C995 C996 1.524 . S
C995 C999 1.400 . S
C996 H981 0.960 . S
C996 H982 0.960 . S
C996 H983 0.960 . S
C996 C995 1.524 . S
C997 C994 1.403 . S
C997 C998 1.392 . S
C997 C1001 1.495 . S
C998 C997 1.392 . S
C998 C999 1.385 . S
C998 C1000 1.478 . S
C999 H993 0.930 . S
C999 C995 1.400 . S
C999 C998 1.385 . S
C1000 C998 1.478 . S
C1000 C1002 1.381 . S
C1000 C1006 1.383 . S
C1001 C997 1.495 . S
C1001 H1007 0.959 . S
C1001 H1008 0.961 . S
C1001 H1009 0.960 . S
C1002 C1000 1.381 . S
C1002 C1003 1.394 . S
C1002 H1010 0.930 . S
C1003 C1002 1.394 . S
C1003 C1004 1.383 . S
C1003 H1011 0.929 . S
C1004 C1003 1.383 . S
C1004 C1005 1.377 . S
C1005 H989 0.930 . S
C1005 C1004 1.377 . S
C1005 C1006 1.379 . S
C1006 H990 0.931 . S
C1006 C1000 1.383 . S
C1006 C1005 1.379 . S
H1007 C1001 0.959 . S
H1008 C1001 0.961 . S
H1009 C1001 0.960 . S
H1010 C1002 0.930 . S
H1011 C1003 0.929 . S
H1012 C1020 0.929 . S
H1013 C1022 0.930 . S
H1014 C1024 0.930 . S
H1015 C1027 0.929 . S
H1016 C1030 0.930 . S
H1017 C1032 0.960 . S
H1018 C1032 0.960 . S
H1019 C1032 0.960 . S
C1020 H1012 0.929 . S
C1020 C1021 1.377 . S
C1020 C1022 1.384 . S
C1021 C1020 1.377 . S
C1021 C1027 1.390 . S
C1022 H1013 0.930 . S
C1022 C1020 1.384 . S
C1022 C1023 1.372 . S
C1023 C1022 1.372 . S
C1023 C1024 1.400 . S
C1023 C1028 1.490 . S
C1024 H1014 0.930 . S
C1024 C1023 1.400 . S
C1024 C1027 1.386 . S
H1025 C1041 0.930 . S
H1026 C1042 0.931 . S
C1027 H1015 0.929 . S
C1027 C1021 1.390 . S
C1027 C1024 1.386 . S
C1028 C1023 1.490 . S
C1028 C1030 1.395 . S
C1028 C1031 1.403 . S
H1029 C1035 0.930 . S
C1030 H1016 0.930 . S
C1030 C1028 1.395 . S
C1030 C1033 1.403 . S
C1031 C1028 1.403 . S
C1031 C1032 1.524 . S
C1031 C1035 1.400 . S
C1032 H1017 0.960 . S
C1032 H1018 0.960 . S
C1032 H1019 0.960 . S
C1032 C1031 1.524 . S
C1033 C1030 1.403 . S
C1033 C1034 1.392 . S
C1033 C1037 1.495 . S
C1034 C1033 1.392 . S
C1034 C1035 1.385 . S
C1034 C1036 1.478 . S
C1035 H1029 0.930 . S
C1035 C1031 1.400 . S
C1035 C1034 1.385 . S
C1036 C1034 1.478 . S
C1036 C1038 1.381 . S
C1036 C1042 1.383 . S
C1037 C1033 1.495 . S
C1037 H1043 0.959 . S
C1037 H1044 0.961 . S
C1037 H1045 0.960 . S
C1038 C1036 1.381 . S
C1038 C1039 1.394 . S
C1038 H1046 0.930 . S
C1039 C1038 1.394 . S
C1039 C1040 1.383 . S
C1039 H1047 0.929 . S
C1040 C1039 1.383 . S
C1040 C1041 1.377 . S
C1041 H1025 0.930 . S
C1041 C1040 1.377 . S
C1041 C1042 1.379 . S
C1042 H1026 0.931 . S
C1042 C1036 1.383 . S
C1042 C1041 1.379 . S
H1043 C1037 0.959 . S
H1044 C1037 0.961 . S
H1045 C1037 0.960 . S
H1046 C1038 0.930 . S
H1047 C1039 0.929 . S
H1048 C1056 0.929 . S
H1049 C1058 0.930 . S
H1050 C1060 0.930 . S
H1051 C1063 0.929 . S
H1052 C1066 0.930 . S
H1053 C1068 0.960 . S
H1054 C1068 0.960 . S
H1055 C1068 0.960 . S
C1056 H1048 0.929 . S
C1056 C1057 1.377 . S
C1056 C1058 1.384 . S
C1057 C1056 1.377 . S
C1057 C1063 1.390 . S
C1058 H1049 0.930 . S
C1058 C1056 1.384 . S
C1058 C1059 1.372 . S
C1059 C1058 1.372 . S
C1059 C1060 1.400 . S
C1059 C1064 1.490 . S
C1060 H1050 0.930 . S
C1060 C1059 1.400 . S
C1060 C1063 1.386 . S
H1061 C1077 0.930 . S
H1062 C1078 0.931 . S
C1063 H1051 0.929 . S
C1063 C1057 1.390 . S
C1063 C1060 1.386 . S
C1064 C1059 1.490 . S
C1064 C1066 1.395 . S
C1064 C1067 1.403 . S
H1065 C1071 0.930 . S
C1066 H1052 0.930 . S
C1066 C1064 1.395 . S
C1066 C1069 1.403 . S
C1067 C1064 1.403 . S
C1067 C1068 1.524 . S
C1067 C1071 1.400 . S
C1068 H1053 0.960 . S
C1068 H1054 0.960 . S
C1068 H1055 0.960 . S
C1068 C1067 1.524 . S
C1069 C1066 1.403 . S
C1069 C1070 1.392 . S
C1069 C1073 1.495 . S
C1070 C1069 1.392 . S
C1070 C1071 1.385 . S
C1070 C1072 1.478 . S
C1071 H1065 0.930 . S
C1071 C1067 1.400 . S
C1071 C1070 1.385 . S
C1072 C1070 1.478 . S
C1072 C1074 1.381 . S
C1072 C1078 1.383 . S
C1073 C1069 1.495 . S
C1073 H1079 0.959 . S
C1073 H1080 0.961 . S
C1073 H1081 0.960 . S
C1074 C1072 1.381 . S
C1074 C1075 1.394 . S
C1074 H1082 0.930 . S
C1075 C1074 1.394 . S
C1075 C1076 1.383 . S
C1075 H1083 0.929 . S
C1076 C1075 1.383 . S
C1076 C1077 1.377 . S
C1077 H1061 0.930 . S
C1077 C1076 1.377 . S
C1077 C1078 1.379 . S
C1078 H1062 0.931 . S
C1078 C1072 1.383 . S
C1078 C1077 1.379 . S
H1079 C1073 0.959 . S
H1080 C1073 0.961 . S
H1081 C1073 0.960 . S
H1082 C1074 0.930 . S
H1083 C1075 0.929 . S
H1084 C1092 0.929 . S
H1085 C1094 0.930 . S
H1086 C1096 0.930 . S
H1087 C1099 0.929 . S
H1088 C1102 0.930 . S
H1089 C1104 0.960 . S
H1090 C1104 0.960 . S
H1091 C1104 0.960 . S
C1092 H1084 0.929 . S
C1092 C1093 1.377 . S
C1092 C1094 1.384 . S
C1093 C1092 1.377 . S
C1093 C1099 1.390 . S
C1094 H1085 0.930 . S
C1094 C1092 1.384 . S
C1094 C1095 1.372 . S
C1095 C1094 1.372 . S
C1095 C1096 1.400 . S
C1095 C1100 1.490 . S
C1096 H1086 0.930 . S
C1096 C1095 1.400 . S
C1096 C1099 1.386 . S
H1097 C1113 0.930 . S
H1098 C1114 0.931 . S
C1099 H1087 0.929 . S
C1099 C1093 1.390 . S
C1099 C1096 1.386 . S
C1100 C1095 1.490 . S
C1100 C1102 1.395 . S
C1100 C1103 1.403 . S
H1101 C1107 0.930 . S
C1102 H1088 0.930 . S
C1102 C1100 1.395 . S
C1102 C1105 1.403 . S
C1103 C1100 1.403 . S
C1103 C1104 1.524 . S
C1103 C1107 1.400 . S
C1104 H1089 0.960 . S
C1104 H1090 0.960 . S
C1104 H1091 0.960 . S
C1104 C1103 1.524 . S
C1105 C1102 1.403 . S
C1105 C1106 1.392 . S
C1105 C1109 1.495 . S
C1106 C1105 1.392 . S
C1106 C1107 1.385 . S
C1106 C1108 1.478 . S
C1107 H1101 0.930 . S
C1107 C1103 1.400 . S
C1107 C1106 1.385 . S
C1108 C1106 1.478 . S
C1108 C1110 1.381 . S
C1108 C1114 1.383 . S
C1109 C1105 1.495 . S
C1109 H1115 0.959 . S
C1109 H1116 0.961 . S
C1109 H1117 0.960 . S
C1110 C1108 1.381 . S
C1110 C1111 1.394 . S
C1110 H1118 0.930 . S
C1111 C1110 1.394 . S
C1111 C1112 1.383 . S
C1111 H1119 0.929 . S
C1112 C1111 1.383 . S
C1112 C1113 1.377 . S
C1113 H1097 0.930 . S
C1113 C1112 1.377 . S
C1113 C1114 1.379 . S
C1114 H1098 0.931 . S
C1114 C1108 1.383 . S
C1114 C1113 1.379 . S
H1115 C1109 0.959 . S
H1116 C1109 0.961 . S
H1117 C1109 0.960 . S
H1118 C1110 0.930 . S
H1119 C1111 0.929 . S
C265 C6 1.083 . S
C284 C102 1.112 . S
C301 C18 1.285 . S
C320 C151 1.290 . S
C356 C186 2.557 . S
C337 C28 2.608 . S
C373 C40 1.614 . S
C392 C225 1.575 . S
C428 C146 2.478 . S
C409 C9 2.411 . S
C464 C105 0.836 . S
C445 C16 0.892 . S
C500 C235 1.838 . S
C481 C30 1.869 . S
C536 C194 1.159 . S
C517 C42 1.158 . S
C553 C4 1.518 . S
C572 C222 1.535 . S
C608 C154 2.511 . S
C589 C33 2.590 . S
C625 C45 2.043 . S
C644 C115 2.022 . S
C661 C21 0.949 . S
C680 C191 0.958 . S
C716 C111 1.103 . S
C697 C57 1.111 . S
C733 C66 1.303 . S
C752 C142 1.262 . S
C769 C76 2.662 . S
C788 C195 2.604 . S
C805 C88 1.537 . S
C824 C234 1.495 . S
C841 C54 2.391 . S
C860 C155 2.465 . S
C896 C114 0.942 . S
C877 C64 1.012 . S
C932 C226 1.719 . S
C913 C78 1.769 . S
C968 C185 1.193 . S
C949 C93 1.192 . S
C985 C52 1.470 . S
C1004 C231 1.515 . S
C1040 C145 2.478 . S
C1021 C81 2.577 . S
C1076 C106 1.993 . S
C1057 C90 2.015 . S
C1093 C69 0.952 . S
C1112 C182 0.982 . S
