# Generated by pormake.
# Topology ctn, (3,4)-cn, num edge types: 1
# Building blocks:
#     Node 0, Type 0, BuildingBlock: ESEHIV_clean_linker_0, # of connection points: 3
#     Node 1, Type 0, BuildingBlock: ESEHIV_clean_linker_0, # of connection points: 3
#     Node 2, Type 0, BuildingBlock: ESEHIV_clean_linker_0, # of connection points: 3
#     Node 3, Type 0, BuildingBlock: ESEHIV_clean_linker_0, # of connection points: 3
#     Node 4, Type 0, BuildingBlock: ESEHIV_clean_linker_0, # of connection points: 3
#     Node 5, Type 0, BuildingBlock: ESEHIV_clean_linker_0, # of connection points: 3
#     Node 6, Type 0, BuildingBlock: ESEHIV_clean_linker_0, # of connection points: 3
#     Node 7, Type 0, BuildingBlock: ESEHIV_clean_linker_0, # of connection points: 3
#     Node 8, Type 0, BuildingBlock: ESEHIV_clean_linker_0, # of connection points: 3
#     Node 9, Type 0, BuildingBlock: ESEHIV_clean_linker_0, # of connection points: 3
#     Node 10, Type 0, BuildingBlock: ESEHIV_clean_linker_0, # of connection points: 3
#     Node 11, Type 0, BuildingBlock: ESEHIV_clean_linker_0, # of connection points: 3
#     Node 12, Type 0, BuildingBlock: ESEHIV_clean_linker_0, # of connection points: 3
#     Node 13, Type 0, BuildingBlock: ESEHIV_clean_linker_0, # of connection points: 3
#     Node 14, Type 0, BuildingBlock: ESEHIV_clean_linker_0, # of connection points: 3
#     Node 15, Type 0, BuildingBlock: ESEHIV_clean_linker_0, # of connection points: 3
#     Node 16, Type 1, BuildingBlock: NAHDIM_clean_sbu_0, # of connection points: 4
#     Node 17, Type 1, BuildingBlock: NAHDIM_clean_sbu_0, # of connection points: 4
#     Node 18, Type 1, BuildingBlock: NAHDIM_clean_sbu_0, # of connection points: 4
#     Node 19, Type 1, BuildingBlock: NAHDIM_clean_sbu_0, # of connection points: 4
#     Node 20, Type 1, BuildingBlock: NAHDIM_clean_sbu_0, # of connection points: 4
#     Node 21, Type 1, BuildingBlock: NAHDIM_clean_sbu_0, # of connection points: 4
#     Node 22, Type 1, BuildingBlock: NAHDIM_clean_sbu_0, # of connection points: 4
#     Node 23, Type 1, BuildingBlock: NAHDIM_clean_sbu_0, # of connection points: 4
#     Node 24, Type 1, BuildingBlock: NAHDIM_clean_sbu_0, # of connection points: 4
#     Node 25, Type 1, BuildingBlock: NAHDIM_clean_sbu_0, # of connection points: 4
#     Node 26, Type 1, BuildingBlock: NAHDIM_clean_sbu_0, # of connection points: 4
#     Node 27, Type 1, BuildingBlock: NAHDIM_clean_sbu_0, # of connection points: 4
#     Edge 28, Type (0, 1), BuildingBlock: CIFDUS_clean_linker_0, # of connection points: 2
#     Edge 29, Type (0, 1), BuildingBlock: CIFDUS_clean_linker_0, # of connection points: 2
#     Edge 30, Type (0, 1), BuildingBlock: CIFDUS_clean_linker_0, # of connection points: 2
#     Edge 31, Type (0, 1), BuildingBlock: CIFDUS_clean_linker_0, # of connection points: 2
#     Edge 32, Type (0, 1), BuildingBlock: CIFDUS_clean_linker_0, # of connection points: 2
#     Edge 33, Type (0, 1), BuildingBlock: CIFDUS_clean_linker_0, # of connection points: 2
#     Edge 34, Type (0, 1), BuildingBlock: CIFDUS_clean_linker_0, # of connection points: 2
#     Edge 35, Type (0, 1), BuildingBlock: CIFDUS_clean_linker_0, # of connection points: 2
#     Edge 36, Type (0, 1), BuildingBlock: CIFDUS_clean_linker_0, # of connection points: 2
#     Edge 37, Type (0, 1), BuildingBlock: CIFDUS_clean_linker_0, # of connection points: 2
#     Edge 38, Type (0, 1), BuildingBlock: CIFDUS_clean_linker_0, # of connection points: 2
#     Edge 39, Type (0, 1), BuildingBlock: CIFDUS_clean_linker_0, # of connection points: 2
#     Edge 40, Type (0, 1), BuildingBlock: CIFDUS_clean_linker_0, # of connection points: 2
#     Edge 41, Type (0, 1), BuildingBlock: CIFDUS_clean_linker_0, # of connection points: 2
#     Edge 42, Type (0, 1), BuildingBlock: CIFDUS_clean_linker_0, # of connection points: 2
#     Edge 43, Type (0, 1), BuildingBlock: CIFDUS_clean_linker_0, # of connection points: 2
#     Edge 44, Type (0, 1), BuildingBlock: CIFDUS_clean_linker_0, # of connection points: 2
#     Edge 45, Type (0, 1), BuildingBlock: CIFDUS_clean_linker_0, # of connection points: 2
#     Edge 46, Type (0, 1), BuildingBlock: CIFDUS_clean_linker_0, # of connection points: 2
#     Edge 47, Type (0, 1), BuildingBlock: CIFDUS_clean_linker_0, # of connection points: 2
#     Edge 48, Type (0, 1), BuildingBlock: CIFDUS_clean_linker_0, # of connection points: 2
#     Edge 49, Type (0, 1), BuildingBlock: CIFDUS_clean_linker_0, # of connection points: 2
#     Edge 50, Type (0, 1), BuildingBlock: CIFDUS_clean_linker_0, # of connection points: 2
#     Edge 51, Type (0, 1), BuildingBlock: CIFDUS_clean_linker_0, # of connection points: 2
#     Edge 52, Type (0, 1), BuildingBlock: CIFDUS_clean_linker_0, # of connection points: 2
#     Edge 53, Type (0, 1), BuildingBlock: CIFDUS_clean_linker_0, # of connection points: 2
#     Edge 54, Type (0, 1), BuildingBlock: CIFDUS_clean_linker_0, # of connection points: 2
#     Edge 55, Type (0, 1), BuildingBlock: CIFDUS_clean_linker_0, # of connection points: 2
#     Edge 56, Type (0, 1), BuildingBlock: CIFDUS_clean_linker_0, # of connection points: 2
#     Edge 57, Type (0, 1), BuildingBlock: CIFDUS_clean_linker_0, # of connection points: 2
#     Edge 58, Type (0, 1), BuildingBlock: CIFDUS_clean_linker_0, # of connection points: 2
#     Edge 59, Type (0, 1), BuildingBlock: CIFDUS_clean_linker_0, # of connection points: 2
#     Edge 60, Type (0, 1), BuildingBlock: CIFDUS_clean_linker_0, # of connection points: 2
#     Edge 61, Type (0, 1), BuildingBlock: CIFDUS_clean_linker_0, # of connection points: 2
#     Edge 62, Type (0, 1), BuildingBlock: CIFDUS_clean_linker_0, # of connection points: 2
#     Edge 63, Type (0, 1), BuildingBlock: CIFDUS_clean_linker_0, # of connection points: 2
#     Edge 64, Type (0, 1), BuildingBlock: CIFDUS_clean_linker_0, # of connection points: 2
#     Edge 65, Type (0, 1), BuildingBlock: CIFDUS_clean_linker_0, # of connection points: 2
#     Edge 66, Type (0, 1), BuildingBlock: CIFDUS_clean_linker_0, # of connection points: 2
#     Edge 67, Type (0, 1), BuildingBlock: CIFDUS_clean_linker_0, # of connection points: 2
#     Edge 68, Type (0, 1), BuildingBlock: CIFDUS_clean_linker_0, # of connection points: 2
#     Edge 69, Type (0, 1), BuildingBlock: CIFDUS_clean_linker_0, # of connection points: 2
#     Edge 70, Type (0, 1), BuildingBlock: CIFDUS_clean_linker_0, # of connection points: 2
#     Edge 71, Type (0, 1), BuildingBlock: CIFDUS_clean_linker_0, # of connection points: 2
#     Edge 72, Type (0, 1), BuildingBlock: CIFDUS_clean_linker_0, # of connection points: 2
#     Edge 73, Type (0, 1), BuildingBlock: CIFDUS_clean_linker_0, # of connection points: 2
#     Edge 74, Type (0, 1), BuildingBlock: CIFDUS_clean_linker_0, # of connection points: 2
#     Edge 75, Type (0, 1), BuildingBlock: CIFDUS_clean_linker_0, # of connection points: 2
# Relax obj value: 0.002
# Max RMSD: 0.032
# Mean RMSD: 0.018
data_MOF--net-ctn--node1-NAHDIM_clean_sbu_0--node2-ESEHIV_clean_linker_0--edge1-CIFDUS_clean_linker_0
_symmetry_space_group_name_H-M    P1
_symmetry_Int_Tables_number       1
_symmetry_cell_setting            triclinic
loop_
_symmetry_equiv_pos_as_xyz
'x, y, z'
_cell_length_a     44.696999
_cell_length_b     45.008332
_cell_length_c     44.369304
_cell_angle_alpha  91.337413
_cell_angle_beta   90.133132
_cell_angle_gamma 92.418321
loop_
_atom_site_label
_atom_site_type_symbol
_atom_site_fract_x
_atom_site_fract_y
_atom_site_fract_z
_atom_type_partial_charge
H0 H 0.01204 0.08419 0.07337 0.0
H1 H 0.05426 1.0003 0.07838 0.0
H2 H 0.07662 0.05992 0.00667 0.0
C3 C 0.02751 0.06836 0.0644 0.0
C4 C 0.04342 0.075 0.03797 0.0
C5 C 0.03131 0.04156 0.07931 0.0
C6 C 0.05164 0.02133 0.06748 0.0
C7 C 0.06799 0.02766 0.04117 0.0
C8 C 0.06364 0.05453 0.02655 0.0
H9 H 0.30337 0.68322 0.25516 0.0
H10 H 0.32258 0.76725 0.21329 0.0
H11 H 0.25947 0.7038 0.17237 0.0
C12 C 0.29963 0.69856 0.23719 0.0
C13 C 0.27968 0.69019 0.21367 0.0
C14 C 0.31516 0.72642 0.2373 0.0
C15 C 0.31013 0.74608 0.21382 0.0
C16 C 0.29034 0.73795 0.19015 0.0
C17 C 0.27519 0.71001 0.19031 0.0
H18 H 0.96307 0.51123 0.06834 0.0
H19 H 0.00652 0.42825 0.05582 0.0
H20 H 0.94342 0.456 0.98993 0.0
C21 C 0.96643 0.49103 0.05523 0.0
C22 C 0.95075 0.48604 0.02798 0.0
C23 C 0.98677 0.47043 0.06544 0.0
C24 C 0.99149 0.44464 0.04782 0.0
C25 C 0.97579 0.4392 0.02061 0.0
C26 C 0.95564 0.46012 0.01084 0.0
H27 H 0.6841 0.76252 0.19396 0.0
H28 H 0.75531 0.82611 0.17322 0.0
H29 H 0.70207 0.83827 0.25291 0.0
C30 C 0.69745 0.78256 0.1996 0.0
C31 C 0.6908 0.79908 0.22575 0.0
C32 C 0.72033 0.79249 0.18013 0.0
C33 C 0.737 0.81881 0.18762 0.0
C34 C 0.73081 0.83537 0.21394 0.0
C35 C 0.70744 0.82545 0.23279 0.0
H36 H 0.99719 0.95122 0.4534 0.0
H37 H 0.04442 0.03361 0.43358 0.0
H38 H 0.07268 0.98188 0.50785 0.0
C39 C 0.01478 0.96783 0.45872 0.0
C40 C 0.03442 0.96343 0.48291 0.0
C41 C 0.01822 0.99305 0.44074 0.0
C42 C 0.04166 0.01403 0.44723 0.0
C43 C 0.06158 0.01002 0.47119 0.0
C44 C 0.05783 0.98465 0.48887 0.0
H45 H 0.1807 0.77413 0.77725 0.0
H46 H 0.25456 0.72616 0.80997 0.0
H47 H 0.2037 0.69225 0.73288 0.0
C48 C 0.19492 0.75524 0.77537 0.0
C49 C 0.18913 0.73328 0.75289 0.0
C50 C 0.2185 0.75281 0.79585 0.0
C51 C 0.23668 0.72821 0.7937 0.0
C52 C 0.23183 0.70627 0.77086 0.0
C53 C 0.20793 0.70906 0.75044 0.0
H54 H 0.94735 0.54036 0.51496 0.0
H55 H 0.01764 0.58123 0.46241 0.0
H56 H 0.972 0.50051 0.43004 0.0
C57 C 0.96118 0.54041 0.49493 0.0
C58 C 0.95716 0.51747 0.47308 0.0
C59 C 0.98264 0.56365 0.49105 0.0
C60 C 1.00062 0.56363 0.46512 0.0
C61 C 0.99734 0.54061 0.44318 0.0
C62 C 0.97544 0.51771 0.44734 0.0
H63 H 0.76746 0.80034 0.84047 0.0
H64 H 0.81082 0.82957 0.75931 0.0
H65 H 0.8392 0.75087 0.80266 0.0
C66 C 0.78414 0.79727 0.8231 0.0
C67 C 0.80264 0.77285 0.82417 0.0
C68 C 0.78694 0.81782 0.79986 0.0
C69 C 0.80837 0.81365 0.7772 0.0
C70 C 0.82768 0.78983 0.77843 0.0
C71 C 0.82475 0.7696 0.80203 0.0
H72 H 0.23917 0.27056 0.30836 0.0
H73 H 0.29457 0.30595 0.23767 0.0
H74 H 0.32085 0.22879 0.28574 0.0
C75 C 0.25905 0.2695 0.29447 0.0
C76 C 0.2797 0.24766 0.29984 0.0
C77 C 0.26427 0.29057 0.2721 0.0
C78 C 0.2905 0.28948 0.25476 0.0
C79 C 0.31119 0.26711 0.25914 0.0
C80 C 0.30561 0.24646 0.28211 0.0
H81 H 0.45483 0.98923 0.58171 0.0
H82 H 0.51875 0.92933 0.54419 0.0
H83 H 0.44167 0.95094 0.49284 0.0
C84 C 0.46268 0.97538 0.56332 0.0
C85 C 0.44539 0.97222 0.53684 0.0
C86 C 0.48928 0.95992 0.56651 0.0
C87 C 0.49817 0.94108 0.54262 0.0
C88 C 0.48101 0.93774 0.51615 0.0
C89 C 0.45487 0.95351 0.51335 0.0
H90 H 0.17131 0.26206 0.6993 0.0
H91 H 0.24752 0.31811 0.67634 0.0
H92 H 0.19961 0.33494 0.75866 0.0
C93 C 0.1863 0.28102 0.70465 0.0
C94 C 0.18258 0.2976 0.73152 0.0
C95 C 0.2099 0.28818 0.68498 0.0
C96 C 0.22976 0.31231 0.692 0.0
C97 C 0.22603 0.3296 0.71842 0.0
C98 C 0.20252 0.32188 0.73814 0.0
H99 H 0.79222 0.18268 0.76291 0.0
H100 H 0.82702 0.25797 0.71405 0.0
H101 H 0.74374 0.21418 0.68695 0.0
C102 C 0.79016 0.19822 0.7448 0.0
C103 C 0.76516 0.19572 0.72545 0.0
C104 C 0.81265 0.22058 0.74078 0.0
C105 C 0.80979 0.24068 0.71726 0.0
C106 C 0.785 0.23856 0.69774 0.0
C107 C 0.76286 0.216 0.70203 0.0
H108 H 0.51004 0.58755 0.57976 0.0
H109 H 0.57242 0.52189 0.60362 0.0
H110 H 0.58703 0.57332 0.52408 0.0
C111 C 0.53026 0.57589 0.57492 0.0
C112 C 0.54746 0.58331 0.54948 0.0
C113 C 0.53923 0.55399 0.59465 0.0
C114 C 0.56535 0.53874 0.58837 0.0
C115 C 0.58255 0.54537 0.56271 0.0
C116 C 0.57351 0.56779 0.54355 0.0
H117 H 0.49797 0.434 0.95552 0.0
H118 H 0.55906 0.50508 0.9297 0.0
H119 H 0.57715 0.45567 0.00885 0.0
C120 C 0.51829 0.44743 0.95981 0.0
C121 C 0.53641 0.44191 0.98495 0.0
C122 C 0.52663 0.46989 0.93966 0.0
C123 C 0.55265 0.48767 0.94522 0.0
C124 C 0.57066 0.48285 0.97039 0.0
C125 C 0.56269 0.45975 0.98988 0.0
H126 H 0.67857 0.27472 0.31383 0.0
H127 H 0.75584 0.22428 0.33114 0.0
H128 H 0.69602 0.19755 0.25842 0.0
C129 C 0.69235 0.25618 0.30812 0.0
C130 C 0.68395 0.23671 0.28401 0.0
C131 C 0.71806 0.25173 0.32535 0.0
C132 C 0.73601 0.22785 0.31782 0.0
C133 C 0.72843 0.20832 0.29355 0.0
C134 C 0.70223 0.2128 0.27685 0.0
H135 H 0.43778 0.03165 0.01377 0.0
H136 H 0.5195 0.05534 0.96798 0.0
H137 H 0.45973 0.98598 0.93109 0.0
C138 C 0.45287 0.02834 0.99501 0.0
C139 C 0.44559 0.00662 0.97268 0.0
C140 C 0.47928 0.0461 0.99326 0.0
C141 C 0.49887 0.04186 0.969 0.0
C142 C 0.49234 0.01977 0.94664 0.0
C143 C 0.46554 0.00233 0.94868 0.0
C144 C 0.19675 0.91469 0.00187 0.0
O145 O 0.19955 0.91013 0.97269 0.0
O146 O 0.23564 0.84937 0.97098 0.0
Zn147 Zn 0.24767 0.8759 0.00664 0.0
O148 O 0.28461 0.90091 0.99665 0.0
C149 C 0.26456 0.82297 0.03679 0.0
O150 O 0.26582 0.81244 0.00899 0.0
O151 O 0.21443 0.90238 0.01976 0.0
C152 C 0.30792 0.88869 0.98684 0.0
O153 O 0.30738 0.85966 0.98286 0.0
C154 C 0.23994 0.85619 0.94365 0.0
O155 O 0.25109 0.88282 0.93744 0.0
O156 O 0.25741 0.84975 0.0414 0.0
C157 C 0.16413 0.43248 0.25584 0.0
O158 O 0.13563 0.42486 0.25215 0.0
O159 O 0.11392 0.49066 0.29005 0.0
Zn160 Zn 0.14202 0.49189 0.25424 0.0
O161 O 0.16493 0.53143 0.25485 0.0
C162 C 0.09181 0.49084 0.21165 0.0
O163 O 0.0769 0.50086 0.23497 0.0
O164 O 0.17206 0.45992 0.2576 0.0
C165 C 0.18114 0.53951 0.23278 0.0
O166 O 0.18248 0.52187 0.20884 0.0
C167 C 0.1031 0.51455 0.30035 0.0
O168 O 0.10991 0.53969 0.28703 0.0
O169 O 0.1194 0.48568 0.21474 0.0
C170 C 0.81618 0.59322 0.99754 0.0
O171 O 0.81403 0.60009 0.96902 0.0
O172 O 0.77096 0.6523 0.96902 0.0
Zn173 Zn 0.76176 0.62686 0.00556 0.0
O174 O 0.72544 0.5992 0.99781 0.0
C175 C 0.75246 0.68079 0.04224 0.0
O176 O 0.75722 0.69491 0.01701 0.0
O177 O 0.79678 0.60225 0.01612 0.0
C178 C 0.69933 0.60765 0.0041 0.0
O179 O 0.69619 0.63454 0.0155 0.0
C180 C 0.74976 0.65998 0.95208 0.0
O181 O 0.72224 0.65082 0.95824 0.0
O182 O 0.75346 0.65261 0.04222 0.0
C183 C 0.85401 0.0884 0.26968 0.0
O184 O 0.88321 0.09275 0.26802 0.0
O185 O 0.89655 0.02187 0.2959 0.0
Zn186 Zn 0.86934 0.02732 0.26017 0.0
O187 O 0.84304 0.99042 0.25276 0.0
C188 C 0.91969 0.02358 0.21918 0.0
O189 O 0.93068 0.00739 0.24049 0.0
O190 O 0.84285 0.06201 0.26736 0.0
C191 C 0.83004 0.98709 0.22732 0.0
O192 O 0.83428 0.00771 0.2071 0.0
C193 C 0.88665 0.01165 0.3206 0.0
O194 O 0.85786 0.00502 0.3231 0.0
O195 O 0.89419 0.03459 0.22292 0.0
C196 C 0.31073 0.08095 0.51474 0.0
O197 O 0.2872 0.0667 0.50274 0.0
O198 O 0.28143 0.15554 0.47319 0.0
Zn199 Zn 0.27331 0.13199 0.51095 0.0
O200 O 0.23722 0.1032 0.50591 0.0
C201 C 0.25258 0.18338 0.54561 0.0
O202 O 0.23978 0.19049 0.52025 0.0
O203 O 0.3099 0.1088 0.51993 0.0
C204 C 0.21025 0.11096 0.50406 0.0
O205 O 0.20462 0.13935 0.50535 0.0
C206 C 0.26663 0.15187 0.44877 0.0
O207 O 0.24441 0.13186 0.44729 0.0
O208 O 0.26755 0.16001 0.54651 0.0
C209 C 0.31412 0.55162 0.75934 0.0
O210 O 0.30316 0.52577 0.74914 0.0
O211 O 0.39195 0.51451 0.80319 0.0
Zn212 Zn 0.36835 0.5187 0.76444 0.0
O213 O 0.34304 0.48097 0.75726 0.0
C214 C 0.42232 0.53502 0.72937 0.0
O215 O 0.43404 0.54398 0.75537 0.0
O216 O 0.34144 0.55398 0.7676 0.0
C217 C 0.35307 0.45841 0.74347 0.0
O218 O 0.38086 0.4594 0.73388 0.0
C219 C 0.41434 0.498 0.80403 0.0
O220 O 0.42251 0.48399 0.77929 0.0
O221 O 0.39555 0.52427 0.72841 0.0
C222 C 0.71532 0.43657 0.52608 0.0
O223 O 0.7386 0.45126 0.5149 0.0
O224 O 0.74868 0.36403 0.48072 0.0
Zn225 Zn 0.7543 0.38714 0.51983 0.0
O226 O 0.789 0.41675 0.51586 0.0
C227 C 0.75417 0.33138 0.55017 0.0
O228 O 0.74018 0.32216 0.52539 0.0
O229 O 0.7167 0.40874 0.52991 0.0
C230 C 0.8138 0.41012 0.50407 0.0
O231 O 0.81752 0.38263 0.49466 0.0
C232 C 0.74337 0.37593 0.45569 0.0
O233 O 0.7414 0.40494 0.45474 0.0
O234 O 0.76257 0.35865 0.55307 0.0
C235 C 0.67433 0.94935 0.77888 0.0
O236 O 0.67708 0.96933 0.8009 0.0
O237 O 0.60826 0.99631 0.79453 0.0
Zn238 Zn 0.63276 0.99096 0.75627 0.0
O239 O 0.66356 0.0251 0.752 0.0
C240 C 0.58223 0.00321 0.71699 0.0
O241 O 0.57606 0.02302 0.73802 0.0
O242 O 0.65591 0.9534 0.75765 0.0
C243 C 0.65862 0.04947 0.73932 0.0
O244 O 0.63207 0.05349 0.72777 0.0
C245 C 0.60481 0.02203 0.80625 0.0
O246 O 0.61788 0.04527 0.7937 0.0
O247 O 0.60496 0.98745 0.72004 0.0
C248 C 0.01211 0.21152 0.93173 0.0
O249 O 0.00663 0.23565 0.94762 0.0
O250 O 0.96475 0.24264 0.8568 0.0
Zn251 Zn 0.00314 0.24946 0.88031 0.0
O252 O 0.99921 0.28489 0.90861 0.0
C253 C 0.03351 0.25437 0.82279 0.0
O254 O 0.00732 0.24471 0.81219 0.0
O255 O 0.01167 0.21237 0.90311 0.0
C256 C 0.02206 0.29874 0.92003 0.0
O257 O 0.04885 0.2896 0.91342 0.0
C258 C 0.93939 0.23624 0.8684 0.0
O259 O 0.93725 0.23388 0.89779 0.0
O260 O 0.03701 0.25797 0.85113 0.0
C261 C 0.51405 0.70349 0.42509 0.0
O262 O 0.49622 0.72369 0.43565 0.0
O263 O 0.4771 0.73226 0.35165 0.0
Zn264 Zn 0.51486 0.74255 0.37543 0.0
O265 O 0.50925 0.77629 0.40573 0.0
C266 C 0.54409 0.76943 0.32434 0.0
O267 O 0.51716 0.77904 0.31964 0.0
O268 O 0.52513 0.70644 0.39889 0.0
C269 C 0.51286 0.80399 0.4012 0.0
O270 O 0.52033 0.81313 0.37426 0.0
C271 C 0.45554 0.74945 0.34835 0.0
O272 O 0.45704 0.77603 0.36127 0.0
O273 O 0.54857 0.75312 0.34679 0.0
C274 C 0.98482 0.82358 0.5824 0.0
O275 O 0.95765 0.81204 0.58615 0.0
O276 O 0.96356 0.77607 0.64423 0.0
Zn277 Zn 0.99974 0.77259 0.61686 0.0
O278 O 0.99352 0.73875 0.58658 0.0
C279 C 0.03378 0.76066 0.67053 0.0
O280 O 0.00717 0.76162 0.68289 0.0
O281 O 0.00682 0.81075 0.59388 0.0
C282 C 0.99385 0.71178 0.59439 0.0
O283 O 0.99733 0.70587 0.62302 0.0
C284 C 0.93652 0.76882 0.63746 0.0
O285 O 0.93007 0.75818 0.61028 0.0
O286 O 0.0364 0.76482 0.64236 0.0
C287 C 0.4963 0.29093 0.07078 0.0
O288 O 0.48106 0.26715 0.06069 0.0
O289 O 0.46809 0.25484 0.1485 0.0
Zn290 Zn 0.50451 0.25306 0.12116 0.0
O291 O 0.50007 0.2182 0.0918 0.0
C292 C 0.54796 0.26085 0.17057 0.0
O293 O 0.52807 0.27826 0.18251 0.0
O294 O 0.50825 0.29062 0.09683 0.0
C295 C 0.50124 0.19118 0.09922 0.0
O296 O 0.50476 0.18487 0.12773 0.0
C297 C 0.46592 0.24098 0.17313 0.0
O298 O 0.48773 0.2242 0.18129 0.0
O299 O 0.54269 0.2484 0.14498 0.0
H300 H 0.22084 0.74433 0.85598 0.0
H301 H 0.22665 0.81255 0.78946 0.0
H302 H 0.23371 0.85081 0.82931 0.0
H303 H 0.23817 0.86473 0.88314 0.0
H304 H 0.23009 0.79642 0.9497 0.0
H305 H 0.22381 0.75839 0.90986 0.0
C306 C 0.22387 0.76759 0.85033 0.0
C307 C 0.2235 0.77573 0.81998 0.0
C308 C 0.22732 0.78942 0.87334 0.0
C309 C 0.2269 0.80589 0.81277 0.0
C310 C 0.23093 0.82771 0.8355 0.0
C311 C 0.23498 0.84153 0.88892 0.0
C312 C 0.23466 0.83347 0.91935 0.0
C313 C 0.23111 0.81974 0.86589 0.0
C314 C 0.23031 0.8033 0.92647 0.0
C315 C 0.22683 0.78148 0.9037 0.0
H316 H 0.02363 0.49333 0.41621 0.0
H317 H 0.01427 0.58792 0.40856 0.0
H318 H 0.04612 0.58813 0.36395 0.0
H319 H 0.07649 0.56155 0.32704 0.0
H320 H 0.08529 0.4668 0.33404 0.0
H321 H 0.0534 0.46654 0.37869 0.0
C322 C 0.02831 0.51395 0.40462 0.0
C323 C 0.01659 0.54058 0.41583 0.0
C324 C 0.04648 0.51389 0.37881 0.0
C325 C 0.0233 0.56717 0.40074 0.0
C326 C 0.04137 0.56728 0.37509 0.0
C327 C 0.07143 0.5408 0.33827 0.0
C328 C 0.08333 0.51424 0.32716 0.0
C329 C 0.05311 0.5408 0.36395 0.0
C330 C 0.07647 0.48758 0.34206 0.0
C331 C 0.05823 0.48741 0.36763 0.0
H332 H 0.75023 0.7476 0.84318 0.0
H333 H 0.84547 0.74816 0.85891 0.0
H334 H 0.83781 0.71271 0.89954 0.0
H335 H 0.80364 0.68259 0.93156 0.0
H336 H 0.70836 0.68264 0.91501 0.0
H337 H 0.71648 0.71693 0.87398 0.0
C338 C 0.7693 0.7401 0.85563 0.0
C339 C 0.79834 0.75066 0.84822 0.0
C340 C 0.76472 0.71985 0.87889 0.0
C341 C 0.8229 0.74025 0.86411 0.0
C342 C 0.81851 0.72009 0.88742 0.0
C343 C 0.78468 0.69005 0.91892 0.0
C344 C 0.75542 0.68008 0.92651 0.0
C345 C 0.78947 0.70987 0.89515 0.0
C346 C 0.73112 0.68991 0.90978 0.0
C347 C 0.73571 0.70958 0.88626 0.0
H348 H 0.95746 0.98437 0.4397 0.0
H349 H 0.03229 0.01193 0.38418 0.0
H350 H 0.9983 0.02053 0.34244 0.0
H351 H 0.94737 0.02017 0.32159 0.0
H352 H 0.87251 0.99192 0.37681 0.0
H353 H 0.90649 0.9834 0.41858 0.0
C354 C 0.96636 0.99198 0.41837 0.0
C355 C 0.9974 0.99756 0.41515 0.0
C356 C 0.94667 0.99679 0.39437 0.0
C357 C 0.00848 0.00783 0.38745 0.0
C358 C 0.98906 0.01262 0.3635 0.0
C359 C 0.93844 0.01218 0.34276 0.0
C360 C 0.90738 0.00675 0.346 0.0
C361 C 0.95812 0.00725 0.36672 0.0
C362 C 0.89628 0.99632 0.37362 0.0
C363 C 0.91572 0.99142 0.39757 0.0
H364 H 0.25699 0.25536 0.6696 0.0
H365 H 0.17096 0.28138 0.63807 0.0
H366 H 0.17705 0.25219 0.59129 0.0
H367 H 0.20677 0.21878 0.55974 0.0
H368 H 0.29108 0.18963 0.59318 0.0
H369 H 0.28588 0.22044 0.63884 0.0
C370 C 0.23971 0.2546 0.65236 0.0
C371 C 0.21368 0.27048 0.65693 0.0
C372 C 0.24308 0.23722 0.62598 0.0
C373 C 0.19115 0.26922 0.63481 0.0
C374 C 0.19467 0.25261 0.60815 0.0
C375 C 0.22404 0.21932 0.57699 0.0
C376 C 0.24935 0.20215 0.57307 0.0
C377 C 0.22052 0.23647 0.60351 0.0
C378 C 0.27136 0.20265 0.59575 0.0
C379 C 0.26843 0.22028 0.62182 0.0
H380 H 0.47909 0.54434 0.59959 0.0
H381 H 0.56047 0.55109 0.65212 0.0
H382 H 0.53154 0.54576 0.69858 0.0
H383 H 0.48289 0.5411 0.72432 0.0
H384 H 0.40162 0.53308 0.6715 0.0
H385 H 0.43068 0.53723 0.62514 0.0
C386 C 0.49044 0.54457 0.62124 0.0
C387 C 0.52181 0.54822 0.62249 0.0
C388 C 0.47368 0.54151 0.64779 0.0
C389 C 0.53633 0.54808 0.6506 0.0
C390 C 0.51979 0.54525 0.67716 0.0
C391 C 0.47155 0.54031 0.70266 0.0
C392 C 0.44013 0.53706 0.70138 0.0
C393 C 0.48843 0.54229 0.67604 0.0
C394 C 0.42579 0.53562 0.67312 0.0
C395 C 0.44237 0.538 0.64659 0.0
H396 H 0.76676 0.22613 0.64011 0.0
H397 H 0.79692 0.29878 0.69935 0.0
H398 H 0.79119 0.33376 0.65866 0.0
H399 H 0.77608 0.34392 0.60667 0.0
H400 H 0.74414 0.27122 0.54828 0.0
H401 H 0.75169 0.23619 0.5884 0.0
C402 C 0.77182 0.24965 0.64424 0.0
C403 C 0.78215 0.25978 0.6728 0.0
C404 C 0.76805 0.26968 0.62092 0.0
C405 C 0.78923 0.29029 0.67751 0.0
C406 C 0.78577 0.31036 0.6543 0.0
C407 C 0.77086 0.3204 0.60269 0.0
C408 C 0.7595 0.31026 0.5745 0.0
C409 C 0.77503 0.30032 0.62597 0.0
C410 C 0.75281 0.2797 0.56977 0.0
C411 C 0.75713 0.2596 0.5927 0.0
H412 H 0.49865 0.00965 0.60277 0.0
H413 H 0.52131 0.91742 0.59428 0.0
H414 H 0.55292 0.92311 0.63891 0.0
H415 H 0.57406 0.95405 0.68079 0.0
H416 H 0.5477 0.0447 0.69211 0.0
H417 H 0.51706 0.03956 0.64641 0.0
C418 C 0.51004 0.99058 0.61084 0.0
C419 C 0.50767 0.96322 0.59468 0.0
C420 C 0.52752 0.99367 0.63719 0.0
C421 C 0.52317 0.93901 0.60554 0.0
C422 C 0.54111 0.94213 0.63133 0.0
C423 C 0.56163 0.97267 0.67319 0.0
C424 C 0.56328 0.99976 0.68966 0.0
C425 C 0.54355 0.96937 0.64727 0.0
C426 C 0.54674 0.02359 0.67983 0.0
C427 C 0.52927 0.02069 0.65367 0.0
H428 H 0.81439 0.21692 0.80207 0.0
H429 H 0.87101 0.22948 0.72435 0.0
H430 H 0.91499 0.23536 0.75693 0.0
H431 H 0.93734 0.23759 0.80729 0.0
H432 H 0.88124 0.22465 0.88537 0.0
H433 H 0.83715 0.21795 0.8528 0.0
C434 C 0.8364 0.22063 0.79228 0.0
C435 C 0.83937 0.22293 0.76083 0.0
C436 C 0.86168 0.22396 0.81117 0.0
C437 C 0.86803 0.22807 0.7485 0.0
C438 C 0.89322 0.2313 0.7671 0.0
C439 C 0.9155 0.23328 0.81726 0.0
C440 C 0.91264 0.23172 0.84877 0.0
C441 C 0.89029 0.22948 0.79845 0.0
C442 C 0.88412 0.22601 0.8612 0.0
C443 C 0.85888 0.22218 0.84259 0.0
H444 H 0.49208 0.87938 0.52066 0.0
H445 H 0.48838 0.94977 0.45673 0.0
H446 H 0.49903 0.91475 0.41545 0.0
H447 H 0.50747 0.86376 0.39745 0.0
H448 H 0.50855 0.79286 0.46126 0.0
H449 H 0.50085 0.82837 0.50265 0.0
C450 C 0.49401 0.88702 0.4977 0.0
C451 C 0.48965 0.91701 0.49162 0.0
C452 C 0.49941 0.86665 0.47408 0.0
C453 C 0.49166 0.9267 0.46181 0.0
C454 C 0.4977 0.90671 0.43826 0.0
C455 C 0.50616 0.8561 0.42042 0.0
C456 C 0.50856 0.8257 0.42622 0.0
C457 C 0.50129 0.87657 0.4441 0.0
C458 C 0.50662 0.81611 0.45612 0.0
C459 C 0.50229 0.83641 0.47984 0.0
H460 H 0.12478 0.28122 0.71752 0.0
H461 H 0.18492 0.29635 0.79309 0.0
H462 H 0.14415 0.28472 0.82796 0.0
H463 H 0.09141 0.27025 0.83704 0.0
H464 H 0.03164 0.25387 0.76131 0.0
H465 H 0.07239 0.26558 0.72653 0.0
C466 C 0.12906 0.28164 0.7416 0.0
C467 C 0.15786 0.28975 0.75263 0.0
C468 C 0.10559 0.27468 0.76154 0.0
C469 C 0.16287 0.29062 0.78396 0.0
C470 C 0.13961 0.28381 0.80394 0.0
C471 C 0.08728 0.26923 0.81293 0.0
C472 C 0.05847 0.26123 0.80185 0.0
C473 C 0.11085 0.27589 0.79299 0.0
C474 C 0.05358 0.25993 0.77052 0.0
C475 C 0.07687 0.26665 0.75056 0.0
H476 H 0.55206 0.58644 0.48807 0.0
H477 H 0.52372 0.63615 0.56669 0.0
H478 H 0.50973 0.67674 0.535 0.0
H479 H 0.5067 0.69887 0.48533 0.0
H480 H 0.5384 0.65124 0.40699 0.0
H481 H 0.55058 0.60939 0.43837 0.0
C482 C 0.54315 0.60626 0.49838 0.0
C483 C 0.5388 0.60797 0.52982 0.0
C484 C 0.5359 0.63001 0.4801 0.0
C485 C 0.52673 0.63376 0.54256 0.0
C486 C 0.51896 0.65719 0.52448 0.0
C487 C 0.51618 0.6793 0.47507 0.0
C488 C 0.52153 0.67811 0.44387 0.0
C489 C 0.52353 0.65559 0.49327 0.0
C490 C 0.53412 0.65272 0.43098 0.0
C491 C 0.54103 0.62877 0.4489 0.0
H492 H 0.82122 0.78638 0.71747 0.0
H493 H 0.88723 0.78518 0.78835 0.0
H494 H 0.92687 0.7792 0.75101 0.0
H495 H 0.94269 0.77405 0.69827 0.0
H496 H 0.87648 0.7723 0.62728 0.0
H497 H 0.837 0.77962 0.66448 0.0
C498 C 0.84433 0.78492 0.72461 0.0
C499 C 0.85142 0.78633 0.75551 0.0
C500 C 0.86691 0.78088 0.70302 0.0
C501 C 0.88132 0.78404 0.76464 0.0
C502 C 0.90395 0.78068 0.74332 0.0
C503 C 0.91963 0.77534 0.69093 0.0
C504 C 0.91256 0.77278 0.66003 0.0
C505 C 0.89701 0.77902 0.71246 0.0
C506 C 0.88252 0.77413 0.65093 0.0
C507 C 0.85993 0.77839 0.67218 0.0
H508 H 0.98207 0.93849 0.50364 0.0
H509 H 0.07766 0.92858 0.50545 0.0
H510 H 0.07097 0.88517 0.53718 0.0
H511 H 0.03783 0.84938 0.56372 0.0
H512 H 0.94214 0.85875 0.56036 0.0
H513 H 0.94906 0.9027 0.52968 0.0
C514 C 0.00144 0.92667 0.51069 0.0
C515 C 0.03032 0.93684 0.50209 0.0
C516 C 0.99743 0.90155 0.52867 0.0
C517 C 0.05519 0.92151 0.51199 0.0
C518 C 0.05138 0.89656 0.53001 0.0
C519 C 0.0185 0.8611 0.55637 0.0
C520 C 0.98951 0.85071 0.56438 0.0
C521 C 0.02259 0.88634 0.53847 0.0
C522 C 0.96472 0.86614 0.55452 0.0
C523 C 0.96863 0.89133 0.53694 0.0
H524 H 0.13255 0.74407 0.76971 0.0
H525 H 0.18656 0.72741 0.69127 0.0
H526 H 0.14322 0.7343 0.6585 0.0
H527 H 0.09012 0.74671 0.65238 0.0
H528 H 0.03668 0.76241 0.73169 0.0
H529 H 0.07969 0.75451 0.76382 0.0
C530 C 0.13483 0.74203 0.74541 0.0
C531 C 0.16271 0.73554 0.73287 0.0
C532 C 0.10995 0.746 0.72688 0.0
C533 C 0.16526 0.73233 0.70141 0.0
C534 C 0.14055 0.73643 0.68271 0.0
C535 C 0.08794 0.74842 0.67668 0.0
C536 C 0.06022 0.75534 0.68956 0.0
C537 C 0.11281 0.74356 0.6952 0.0
C538 C 0.05769 0.75715 0.72112 0.0
C539 C 0.0823 0.75265 0.73958 0.0
H540 H 0.98555 0.62316 0.48164 0.0
H541 H 0.98657 0.5588 0.55209 0.0
H542 H 0.98989 0.59886 0.59027 0.0
H543 H 0.99218 0.65214 0.60364 0.0
H544 H 0.99045 0.71661 0.53318 0.0
H545 H 0.98778 0.67659 0.49507 0.0
C546 C 0.9868 0.61797 0.50535 0.0
C547 C 0.98587 0.5881 0.51404 0.0
C548 C 0.98844 0.64111 0.52718 0.0
C549 C 0.98704 0.58164 0.54486 0.0
C550 C 0.989 0.60452 0.56668 0.0
C551 C 0.99119 0.65748 0.57996 0.0
C552 C 0.99153 0.68738 0.57135 0.0
C553 C 0.98958 0.63434 0.55812 0.0
C554 C 0.99018 0.69381 0.54051 0.0
C555 C 0.98872 0.67093 0.51865 0.0
H556 H 0.74766 0.87995 0.17658 0.0
H557 H 0.75453 0.85253 0.26875 0.0
H558 H 0.78562 0.89716 0.2812 0.0
H559 H 0.81172 0.94346 0.26557 0.0
H560 H 0.80456 0.97072 0.17325 0.0
H561 H 0.77299 0.92652 0.16117 0.0
C562 C 0.75611 0.88368 0.19935 0.0
C563 C 0.7489 0.86292 0.22167 0.0
C564 C 0.774 0.9093 0.20631 0.0
C565 C 0.75956 0.86831 0.25122 0.0
C566 C 0.77747 0.89372 0.25831 0.0
C567 C 0.80327 0.93973 0.24281 0.0
C568 C 0.81061 0.96035 0.22035 0.0
C569 C 0.78496 0.9143 0.23599 0.0
C570 C 0.79929 0.95525 0.191 0.0
C571 C 0.78123 0.92995 0.18403 0.0
H572 H 0.78923 0.2091 0.29107 0.0
H573 H 0.71091 0.15045 0.28016 0.0
H574 H 0.74276 0.10825 0.27138 0.0
H575 H 0.79292 0.08775 0.26854 0.0
H576 H 0.8711 0.14666 0.28003 0.0
H577 H 0.83921 0.18888 0.28728 0.0
C578 C 0.77912 0.18706 0.28689 0.0
C579 C 0.74772 0.18295 0.28641 0.0
C580 C 0.79754 0.16288 0.28218 0.0
C581 C 0.73499 0.15431 0.28038 0.0
C582 C 0.7532 0.13012 0.27559 0.0
C583 C 0.803 0.10981 0.27265 0.0
C584 C 0.83441 0.11394 0.27388 0.0
C585 C 0.78451 0.1341 0.27671 0.0
C586 C 0.84704 0.14276 0.27902 0.0
C587 C 0.82881 0.16697 0.28316 0.0
H588 H 0.43651 0.94692 0.96289 0.0
H589 H 0.39032 0.02641 0.98655 0.0
H590 H 0.34362 0.99708 0.99242 0.0
H591 H 0.31619 0.9488 0.99225 0.0
H592 H 0.36211 0.86917 0.96833 0.0
H593 H 0.40846 0.89867 0.96076 0.0
C594 C 0.41613 0.95784 0.96897 0.0
C595 C 0.41696 0.98876 0.9745 0.0
C596 C 0.3893 0.94083 0.97231 0.0
C597 C 0.39041 0.00256 0.98265 0.0
C598 C 0.36366 0.98584 0.98588 0.0
C599 C 0.33629 0.93787 0.98527 0.0
C600 C 0.33566 0.90679 0.98102 0.0
C601 C 0.3629 0.95493 0.98106 0.0
C602 C 0.36193 0.89305 0.97186 0.0
C603 C 0.38849 0.9099 0.96753 0.0
H604 H 0.27486 0.35029 0.26714 0.0
H605 H 0.20385 0.28236 0.26615 0.0
H606 H 0.16667 0.32014 0.26058 0.0
H607 H 0.15422 0.37248 0.25718 0.0
H608 H 0.22506 0.44073 0.25913 0.0
H609 H 0.26235 0.40288 0.26301 0.0
C610 C 0.25126 0.34381 0.26537 0.0
C611 C 0.2421 0.31362 0.26709 0.0
C612 C 0.22996 0.36569 0.26249 0.0
C613 C 0.21142 0.30551 0.26515 0.0
C614 C 0.19017 0.32707 0.26191 0.0
C615 C 0.17781 0.37911 0.25838 0.0
C616 C 0.18676 0.40944 0.25791 0.0
C617 C 0.19915 0.35725 0.2608 0.0
C618 C 0.21747 0.41757 0.25954 0.0
C619 C 0.23886 0.39592 0.26172 0.0
H620 H 0.12005 1.00024 0.48335 0.0
H621 H 0.05811 0.07042 0.47388 0.0
H622 H 0.09848 0.10772 0.48354 0.0
H623 H 0.15139 0.12045 0.49415 0.0
H624 H 0.21362 0.05038 0.50322 0.0
H625 H 0.17308 0.01304 0.49455 0.0
C626 C 0.11537 0.0237 0.48368 0.0
C627 C 0.08613 0.03254 0.47783 0.0
C628 C 0.13873 0.04505 0.48917 0.0
C629 C 0.08048 0.06304 0.47795 0.0
C630 C 0.10353 0.08438 0.48361 0.0
C631 C 0.15612 0.09702 0.49433 0.0
C632 C 0.18555 0.08829 0.49934 0.0
C633 C 0.13275 0.07565 0.48912 0.0
C634 C 0.19121 0.05778 0.49939 0.0
C635 C 0.16803 0.03638 0.49443 0.0
H636 H 0.77253 0.13746 0.73855 0.0
H637 H 0.70454 0.20012 0.72056 0.0
H638 H 0.66589 0.16039 0.72264 0.0
H639 H 0.65134 0.10779 0.72863 0.0
H640 H 0.71871 0.04528 0.74898 0.0
H641 H 0.75758 0.08511 0.74732 0.0
C642 C 0.74923 0.14253 0.73554 0.0
C643 C 0.74156 0.17174 0.7291 0.0
C644 C 0.72698 0.11959 0.73709 0.0
C645 C 0.71121 0.17777 0.72495 0.0
C646 C 0.68903 0.15508 0.72628 0.0
C647 C 0.67453 0.10285 0.73265 0.0
C648 C 0.68214 0.07358 0.73867 0.0
C649 C 0.69668 0.12587 0.73202 0.0
C650 C 0.71226 0.06763 0.74424 0.0
C651 C 0.7345 0.09039 0.74328 0.0
H652 H 0.43612 0.0307 0.54897 0.0
H653 H 0.39145 0.94916 0.51689 0.0
H654 H 0.3458 0.9755 0.50766 0.0
H655 H 0.31908 0.02183 0.50715 0.0
H656 H 0.36355 0.10373 0.53882 0.0
H657 H 0.40864 0.0771 0.5499 0.0
C658 C 0.41625 0.0187 0.54031 0.0
C659 C 0.41718 0.98809 0.53347 0.0
C660 C 0.3901 0.03405 0.53482 0.0
C661 C 0.39138 0.97281 0.52198 0.0
C662 C 0.36526 0.98783 0.51676 0.0
C663 C 0.33859 0.0339 0.51653 0.0
C664 C 0.33792 0.06476 0.522 0.0
C665 C 0.36447 0.0185 0.52277 0.0
C666 C 0.36343 0.07997 0.53427 0.0
C667 C 0.38926 0.06476 0.54065 0.0
H668 H 0.59045 0.48577 0.56537 0.0
H669 H 0.63673 0.56889 0.54479 0.0
H670 H 0.68157 0.54253 0.53136 0.0
H671 H 0.70752 0.49602 0.52503 0.0
H672 H 0.66185 0.41272 0.54625 0.0
H673 H 0.617 0.43905 0.56011 0.0
C674 C 0.61047 0.49811 0.55826 0.0
C675 C 0.61017 0.52923 0.55593 0.0
C676 C 0.63626 0.48281 0.55062 0.0
C677 C 0.63619 0.54489 0.54634 0.0
C678 C 0.6619 0.52985 0.53878 0.0
C679 C 0.68778 0.48356 0.53266 0.0
C680 C 0.68807 0.45242 0.53451 0.0
C681 C 0.66213 0.49882 0.54067 0.0
C682 C 0.66227 0.43671 0.54459 0.0
C683 C 0.6366 0.45175 0.55253 0.0
H684 H 0.71675 0.31221 0.32944 0.0
H685 H 0.73572 0.23514 0.38116 0.0
H686 H 0.74607 0.26684 0.42565 0.0
H687 H 0.74815 0.31609 0.4503 0.0
H688 H 0.72848 0.39333 0.39908 0.0
H689 H 0.71971 0.36185 0.35405 0.0
C690 C 0.72304 0.30237 0.3505 0.0
C691 C 0.72545 0.27135 0.35196 0.0
C692 C 0.7287 0.32071 0.3761 0.0
C693 C 0.73406 0.25897 0.3793 0.0
C694 C 0.73978 0.27706 0.40481 0.0
C695 C 0.742 0.32611 0.42929 0.0
C696 C 0.73886 0.35704 0.42814 0.0
C697 C 0.73697 0.30791 0.40353 0.0
C698 C 0.731 0.36959 0.40066 0.0
C699 C 0.72596 0.3516 0.37488 0.0
H700 H 0.52336 0.06192 0.91474 0.0
H701 H 0.50839 0.9669 0.92085 0.0
H702 H 0.54171 0.95909 0.87813 0.0
H703 H 0.57503 0.97927 0.83875 0.0
H704 H 0.59069 0.07436 0.83373 0.0
H705 H 0.55767 0.08197 0.87656 0.0
C706 C 0.52766 0.03947 0.90701 0.0
C707 C 0.51326 0.01507 0.92102 0.0
C708 C 0.54706 0.0351 0.88259 0.0
C709 C 0.51877 0.98615 0.91026 0.0
C710 C 0.53799 0.98163 0.88592 0.0
C711 C 0.57128 0.00165 0.84707 0.0
C712 C 0.58534 0.02617 0.83292 0.0
C713 C 0.5522 0.00595 0.87182 0.0
C714 C 0.58022 0.05502 0.84409 0.0
C715 C 0.56128 0.05945 0.86862 0.0
H716 H 0.31603 0.23688 0.34701 0.0
H717 H 0.23025 0.21147 0.30762 0.0
H718 H 0.21903 0.17867 0.34973 0.0
H719 H 0.23289 0.15866 0.39858 0.0
H720 H 0.31755 0.1862 0.43954 0.0
H721 H 0.32995 0.21672 0.39611 0.0
C722 C 0.29507 0.22385 0.34759 0.0
C723 C 0.27403 0.22635 0.32431 0.0
C724 C 0.2885 0.20563 0.37224 0.0
C725 C 0.24672 0.20981 0.32539 0.0
C726 C 0.24031 0.19112 0.34944 0.0
C727 C 0.25412 0.17122 0.39796 0.0
C728 C 0.27425 0.17012 0.42228 0.0
C729 C 0.2609 0.18909 0.37314 0.0
C730 C 0.30157 0.18674 0.42119 0.0
C731 C 0.30873 0.20415 0.39632 0.0
H732 H 0.46901 0.48633 0.93482 0.0
H733 H 0.54569 0.46239 0.88236 0.0
H734 H 0.51758 0.4685 0.83565 0.0
H735 H 0.4713 0.4807 0.80983 0.0
H736 H 0.39531 0.50783 0.86182 0.0
H737 H 0.42296 0.50066 0.90862 0.0
C738 C 0.47938 0.48244 0.91309 0.0
C739 C 0.50919 0.47379 0.9118 0.0
C740 C 0.46327 0.48666 0.88635 0.0
C741 C 0.52272 0.46908 0.88368 0.0
C742 C 0.50667 0.47255 0.85706 0.0
C743 C 0.46077 0.485 0.83141 0.0
C744 C 0.43125 0.49459 0.83237 0.0
C745 C 0.47695 0.48134 0.85812 0.0
C746 C 0.41805 0.50047 0.86049 0.0
C747 C 0.43381 0.49629 0.88725 0.0
H748 H 0.72344 0.73252 0.17201 0.0
H749 H 0.73121 0.815 0.12442 0.0
H750 H 0.74204 0.78784 0.07771 0.0
H751 H 0.74915 0.7407 0.05032 0.0
H752 H 0.74089 0.65812 0.09781 0.0
H753 H 0.73009 0.68528 0.14447 0.0
C754 C 0.72725 0.74452 0.15136 0.0
C755 C 0.7266 0.77574 0.15175 0.0
C756 C 0.73335 0.72876 0.12453 0.0
C757 C 0.73199 0.79099 0.12485 0.0
C758 C 0.73802 0.77547 0.09808 0.0
C759 C 0.74499 0.72861 0.07085 0.0
C760 C 0.74587 0.69741 0.0705 0.0
C761 C 0.7388 0.74436 0.09766 0.0
C762 C 0.74039 0.68214 0.09737 0.0
C763 C 0.7342 0.69765 0.12411 0.0
H764 H 0.97298 0.05286 0.09117 0.0
H765 H 0.05093 0.01535 0.1305 0.0
H766 H 0.0231 0.00572 0.17679 0.0
H767 H 0.97704 0.00925 0.20668 0.0
H768 H 0.90002 0.04901 0.16794 0.0
H769 H 0.92737 0.05705 0.12112 0.0
C770 C 0.98406 0.04288 0.10995 0.0
C771 C 0.0141 0.03494 0.10726 0.0
C772 C 0.96814 0.03797 0.13673 0.0
C773 C 0.02775 0.02137 0.13169 0.0
C774 C 0.01192 0.01606 0.15831 0.0
C775 C 0.96622 0.01965 0.18799 0.0
C776 C 0.93652 0.02853 0.19088 0.0
C777 C 0.98215 0.02442 0.16114 0.0
C778 C 0.92289 0.04205 0.16643 0.0
C779 C 0.93849 0.04661 0.13959 0.0
H780 H 0.28976 0.7237 0.13047 0.0
H781 H 0.28143 0.7977 0.19298 0.0
H782 H 0.27321 0.83079 0.15102 0.0
H783 H 0.2673 0.83831 0.0966 0.0
H784 H 0.27574 0.76391 0.03438 0.0
H785 H 0.28476 0.73134 0.07626 0.0
C786 C 0.28593 0.74704 0.13491 0.0
C787 C 0.28599 0.75821 0.16476 0.0
C788 C 0.28119 0.76584 0.11075 0.0
C789 C 0.28163 0.78861 0.17016 0.0
C790 C 0.2768 0.80749 0.14621 0.0
C791 C 0.27114 0.81498 0.09219 0.0
C792 C 0.27072 0.80359 0.06237 0.0
C793 C 0.27639 0.7963 0.11641 0.0
C794 C 0.2759 0.77332 0.05708 0.0
C795 C 0.28105 0.75462 0.08102 0.0
H796 H 0.04542 0.46188 0.07887 0.0
H797 H 0.96297 0.49037 0.1184 0.0
H798 H 0.98817 0.49948 0.16676 0.0
H799 H 0.03345 0.49921 0.19798 0.0
H800 H 0.11596 0.47025 0.1589 0.0
H801 H 0.09083 0.46122 0.1104 0.0
C802 C 0.03293 0.46985 0.09814 0.0
C803 C 0.00236 0.47555 0.09492 0.0
C804 C 0.04755 0.47495 0.12601 0.0
C805 C 0.9866 0.48622 0.12007 0.0
C806 C 1.00096 0.49128 0.14781 0.0
C807 C 0.04599 0.49092 0.17888 0.0
C808 C 0.07658 0.48543 0.18216 0.0
C809 C 0.03142 0.48578 0.15104 0.0
C810 C 0.0924 0.47469 0.15709 0.0
C811 C 0.07804 0.4695 0.1293 0.0
H812 H 0.35845 0.69192 0.2587 0.0
H813 H 0.32308 0.7793 0.26842 0.0
H814 H 0.36279 0.79388 0.30449 0.0
H815 H 0.4087 0.78237 0.33171 0.0
H816 H 0.44435 0.69506 0.32118 0.0
H817 H 0.4032 0.67983 0.2873 0.0
C818 C 0.35916 0.71399 0.26909 0.0
C819 C 0.33787 0.73449 0.26091 0.0
C820 C 0.38218 0.72229 0.28957 0.0
C821 C 0.33938 0.7632 0.27417 0.0
C822 C 0.36203 0.77152 0.29483 0.0
C823 C 0.40739 0.75995 0.32216 0.0
C824 C 0.42969 0.73996 0.32893 0.0
C825 C 0.38377 0.75137 0.30243 0.0
C826 C 0.4276 0.71099 0.31629 0.0
C827 C 0.40405 0.70221 0.29689 0.0
H828 H 0.02796 0.41332 0.00556 0.0
H829 H 0.93207 0.40263 0.99524 0.0
H830 H 0.9379 0.35821 0.96358 0.0
H831 H 0.97012 0.32298 0.93798 0.0
H832 H 0.0661 0.33337 0.94801 0.0
H833 H 0.06031 0.37709 0.98079 0.0
C834 C 0.00836 0.40107 0.99661 0.0
C835 C 0.97965 0.41139 0.00258 0.0
C836 C 0.01187 0.37552 0.97831 0.0
C837 C 0.95445 0.39542 0.99061 0.0
C838 C 0.95775 0.36994 0.9726 0.0
C839 C 0.9898 0.33474 0.94736 0.0
C840 C 0.0185 0.32491 0.94043 0.0
C841 C 0.98634 0.35992 0.9661 0.0
C842 C 0.04373 0.34044 0.95288 0.0
C843 C 0.04045 0.36548 0.97166 0.0
H844 H 0.6402 0.82779 0.23733 0.0
H845 H 0.68576 0.74816 0.25741 0.0
H846 H 0.64457 0.73202 0.29051 0.0
H847 H 0.59555 0.74086 0.3137 0.0
H848 H 0.54856 0.81898 0.29052 0.0
H849 H 0.59021 0.83547 0.2586 0.0
C850 C 0.64098 0.80696 0.24906 0.0
C851 C 0.66584 0.78922 0.24533 0.0
C852 C 0.61699 0.7976 0.26738 0.0
C853 C 0.66671 0.76207 0.26016 0.0
C854 C 0.64324 0.75292 0.27903 0.0
C855 C 0.5945 0.76149 0.30166 0.0
C856 C 0.56913 0.77876 0.30455 0.0
C857 C 0.61827 0.77053 0.28284 0.0
C858 C 0.56784 0.80526 0.28856 0.0
C859 C 0.59166 0.81475 0.27038 0.0
H860 H 0.03763 0.08314 0.97763 0.0
H861 H 0.03871 0.13056 0.06334 0.0
H862 H 0.02891 0.17676 0.03808 0.0
H863 H 0.01958 0.20365 0.9918 0.0
H864 H 0.01948 0.15655 0.9059 0.0
H865 H 0.02973 0.11039 0.9311 0.0
C866 C 0.03608 0.10365 0.99075 0.0
C867 C 0.03875 0.10332 0.02235 0.0
C868 C 0.03059 0.13021 0.97607 0.0
C869 C 0.03628 0.13006 0.03903 0.0
C870 C 0.03083 0.15654 0.0246 0.0
C871 C 0.02179 0.18331 0.97855 0.0
C872 C 0.01866 0.18359 0.94701 0.0
C873 C 0.02776 0.15685 0.99316 0.0
C874 C 0.02176 0.15701 0.93022 0.0
C875 C 0.02762 0.13057 0.94461 0.0
H876 H 0.36731 0.24985 0.27426 0.0
H877 H 0.31565 0.27875 0.19874 0.0
H878 H 0.359 0.27455 0.16607 0.0
H879 H 0.41135 0.26135 0.15831 0.0
H880 H 0.46159 0.2286 0.23283 0.0
H881 H 0.41881 0.23488 0.26615 0.0
C882 C 0.36527 0.25489 0.25059 0.0
C883 C 0.33802 0.26479 0.23925 0.0
C884 C 0.39007 0.25153 0.23156 0.0
C885 C 0.33633 0.27173 0.2085 0.0
C886 C 0.3611 0.26904 0.1896 0.0
C887 C 0.41294 0.25563 0.18185 0.0
C888 C 0.43966 0.24456 0.19304 0.0
C889 C 0.38806 0.25886 0.20084 0.0
C890 C 0.44126 0.23703 0.22356 0.0
C891 C 0.41682 0.2407 0.24268 0.0
H892 H 0.51274 0.38664 0.96988 0.0
H893 H 0.54262 0.44105 0.04648 0.0
H894 H 0.53313 0.3993 0.0797 0.0
H895 H 0.51726 0.34689 0.08697 0.0
H896 H 0.48507 0.29352 0.01058 0.0
H897 H 0.49397 0.33549 0.97756 0.0
C898 C 0.5167 0.38962 0.9939 0.0
C899 C 0.52862 0.41701 0.0055 0.0
C900 C 0.51078 0.36564 0.01301 0.0
C901 C 0.53402 0.42012 0.03672 0.0
C902 C 0.52843 0.39628 0.05583 0.0
C903 C 0.51213 0.34448 0.06311 0.0
C904 C 0.50067 0.31703 0.05128 0.0
C905 C 0.51707 0.36884 0.04419 0.0
C906 C 0.49389 0.31437 0.02034 0.0
C907 C 0.49903 0.33837 0.00138 0.0
H908 H 0.6741 0.22975 0.22322 0.0
H909 H 0.63017 0.25385 0.30633 0.0
H910 H 0.58501 0.26452 0.27854 0.0
H911 H 0.5578 0.26732 0.23074 0.0
H912 H 0.60008 0.24011 0.14788 0.0
H913 H 0.64581 0.22995 0.17551 0.0
C914 C 0.65455 0.23695 0.23533 0.0
C915 C 0.65586 0.24137 0.26686 0.0
C916 C 0.62829 0.24255 0.21925 0.0
C917 C 0.63023 0.25096 0.28203 0.0
C918 C 0.60423 0.25689 0.26618 0.0
C919 C 0.57707 0.25928 0.21871 0.0
C920 C 0.57564 0.25473 0.18729 0.0
C921 C 0.60307 0.25299 0.23479 0.0
C922 C 0.60063 0.24384 0.17208 0.0
C923 C 0.62679 0.23804 0.18787 0.0
H924 H 0.49154 0.1048 0.98484 0.0
H925 H 0.48066 0.03963 0.05404 0.0
H926 H 0.48742 0.07866 0.0931 0.0
H927 H 0.49452 0.13153 0.10748 0.0
H928 H 0.50306 0.19702 0.03813 0.0
H929 H 0.4991 0.15776 0.99929 0.0
C930 C 0.49105 0.09921 0.0085 0.0
C931 C 0.48576 0.06949 0.01666 0.0
C932 C 0.49427 0.12184 0.03078 0.0
C933 C 0.48468 0.06244 0.04733 0.0
C934 C 0.4885 0.08472 0.06961 0.0
C935 C 0.49562 0.13722 0.08388 0.0
C936 C 0.49904 0.16719 0.07578 0.0
C937 C 0.49296 0.11454 0.06161 0.0
C938 C 0.5003 0.17415 0.04505 0.0
C939 C 0.49811 0.1517 0.02278 0.0
H940 H 0.28657 0.33519 0.71087 0.0
H941 H 0.21052 0.38388 0.74086 0.0
H942 H 0.24317 0.42748 0.75218 0.0
H943 H 0.29307 0.45217 0.75278 0.0
H944 H 0.36898 0.40432 0.72098 0.0
H945 H 0.33653 0.3602 0.71078 0.0
C946 C 0.27709 0.35541 0.71963 0.0
C947 C 0.24613 0.35613 0.72513 0.0
C948 C 0.29594 0.38062 0.7257 0.0
C949 C 0.23432 0.38246 0.73689 0.0
C950 C 0.25294 0.40752 0.74318 0.0
C951 C 0.30257 0.43207 0.7437 0.0
C952 C 0.33342 0.43157 0.7377 0.0
C953 C 0.28377 0.40686 0.73766 0.0
C954 C 0.34529 0.40536 0.72578 0.0
C955 C 0.32676 0.3801 0.71994 0.0
H956 H 0.21527 0.648 0.75951 0.0
H957 H 0.29267 0.70622 0.77794 0.0
H958 H 0.32478 0.66368 0.77683 0.0
H959 H 0.33101 0.60984 0.77062 0.0
H960 H 0.25372 0.55191 0.75066 0.0
H961 H 0.22164 0.59442 0.75206 0.0
C962 C 0.2392 0.65146 0.7629 0.0
C963 C 0.25144 0.68033 0.76889 0.0
C964 C 0.25763 0.6269 0.76202 0.0
C965 C 0.28251 0.68424 0.77371 0.0
C966 C 0.30096 0.65992 0.77295 0.0
C967 C 0.30714 0.6065 0.76664 0.0
C968 C 0.29484 0.57766 0.76062 0.0
C969 C 0.28876 0.63112 0.76724 0.0
C970 C 0.26386 0.57381 0.75533 0.0
C971 C 0.24544 0.59814 0.75613 0.0
H972 H 0.90048 0.52367 0.49382 0.0
H973 H 0.96047 0.45771 0.46087 0.0
H974 H 0.9214 0.41873 0.4672 0.0
H975 H 0.8703 0.40333 0.48262 0.0
H976 H 0.81112 0.46951 0.51691 0.0
H977 H 0.85003 0.5083 0.51006 0.0
C978 C 0.90519 0.50073 0.48837 0.0
C979 C 0.93344 0.49367 0.47696 0.0
C980 C 0.88279 0.47841 0.4924 0.0
C981 C 0.93884 0.46385 0.46938 0.0
C982 C 0.91657 0.44151 0.47317 0.0
C983 C 0.86592 0.42623 0.48863 0.0
C984 C 0.8378 0.43343 0.50028 0.0
C985 C 0.88846 0.44853 0.4847 0.0
C986 C 0.83255 0.46325 0.50796 0.0
C987 C 0.85478 0.48551 0.50401 0.0
H988 H 0.75188 0.83674 0.75445 0.0
H989 H 0.77921 0.8573 0.84608 0.0
H990 H 0.74682 0.89973 0.84777 0.0
H991 H 0.71049 0.93076 0.8234 0.0
H992 H 0.68157 0.90941 0.73228 0.0
H993 H 0.71462 0.86754 0.73023 0.0
C994 C 0.75081 0.85069 0.77465 0.0
C995 C 0.76789 0.84402 0.80008 0.0
C996 C 0.73174 0.87479 0.77563 0.0
C997 C 0.76612 0.86198 0.82629 0.0
C998 C 0.74764 0.88623 0.82726 0.0
C999 C 0.71137 0.91695 0.80308 0.0
C1000 C 0.69358 0.92329 0.77804 0.0
C1001 C 0.73026 0.89277 0.80211 0.0
C1002 C 0.69493 0.90502 0.75195 0.0
C1003 C 0.71391 0.8811 0.7507 0.0
H1004 H 0.57413 0.54282 0.97563 0.0
H1005 H 0.62774 0.4656 0.97881 0.0
H1006 H 0.67269 0.49743 0.98877 0.0
H1007 H 0.69656 0.54737 0.99686 0.0
H1008 H 0.64206 0.62425 0.99652 0.0
H1009 H 0.59766 0.5925 0.98514 0.0
C1010 C 0.59573 0.53307 0.97838 0.0
C1011 C 0.59781 0.50205 0.97635 0.0
C1012 C 0.62125 0.55143 0.98465 0.0
C1013 C 0.62573 0.48949 0.98037 0.0
C1014 C 0.65137 0.50766 0.98599 0.0
C1015 C 0.67497 0.55713 0.99421 0.0
C1016 C 0.67261 0.58811 0.99742 0.0
C1017 C 0.64939 0.53867 0.98822 0.0
C1018 C 0.64445 0.60045 0.99426 0.0
C1019 C 0.61905 0.58233 0.98769 0.0
H1020 H 0.24858 0.6638 0.25914 0.0
H1021 H 0.27484 0.65053 0.1665 0.0
H1022 H 0.24689 0.60268 0.16426 0.0
H1023 H 0.2144 0.56501 0.18833 0.0
H1024 H 0.18712 0.5786 0.28073 0.0
H1025 H 0.21607 0.62582 0.28337 0.0
C1026 C 0.24836 0.65025 0.23859 0.0
C1027 C 0.2637 0.66063 0.21303 0.0
C1028 C 0.23198 0.6229 0.23737 0.0
C1029 C 0.26298 0.64308 0.1864 0.0
C1030 C 0.24707 0.61572 0.18512 0.0
C1031 C 0.2148 0.57825 0.20907 0.0
C1032 C 0.1986 0.56823 0.23427 0.0
C1033 C 0.23133 0.60549 0.2104 0.0
C1034 C 0.19933 0.58577 0.26094 0.0
C1035 C 0.21592 0.61279 0.26251 0.0
H1036 H 0.90852 0.51292 0.06173 0.0
H1037 H 0.94294 0.50677 0.97115 0.0
H1038 H 0.90466 0.53964 0.95375 0.0
H1039 H 0.86068 0.56926 0.96407 0.0
H1040 H 0.82648 0.5753 0.05486 0.0
H1041 H 0.86559 0.54367 0.07234 0.0
C1042 C 0.9079 0.5191 0.03826 0.0
C1043 C 0.92852 0.50736 0.01778 0.0
C1044 C 0.88581 0.53795 0.0284 0.0
C1045 C 0.92711 0.51522 0.98733 0.0
C1046 C 0.90529 0.5341 0.97737 0.0
C1047 C 0.86182 0.56374 0.9877 0.0
C1048 C 0.84056 0.57461 0.00805 0.0
C1049 C 0.88436 0.54541 0.99766 0.0
C1050 C 0.84246 0.56723 0.03862 0.0
C1051 C 0.86484 0.54912 0.04869 0.0
H1052 H 0.10822 0.99676 0.07274 0.0
H1053 H 0.07698 0.01091 0.98231 0.0
H1054 H 0.1139 0.97728 0.9622 0.0
H1055 H 0.15536 0.94415 0.97022 0.0
H1056 H 0.18614 0.92964 0.06081 0.0
H1057 H 0.14884 0.96277 0.08086 0.0
C1058 C 0.10924 0.99222 0.04865 0.0
C1059 C 0.08987 0.00641 0.02909 0.0
C1060 C 0.13046 0.97277 0.03723 0.0
C1061 C 0.09185 0.00061 0.99788 0.0
C1062 C 0.11287 0.98126 0.98635 0.0
C1063 C 0.1539 0.94817 0.99436 0.0
C1064 C 0.17362 0.93442 0.01392 0.0
C1065 C 0.13239 0.96731 0.0058 0.0
C1066 C 0.17132 0.93991 0.04516 0.0
C1067 C 0.14997 0.95888 0.05669 0.0
loop_
_geom_bond_atom_site_label_1
_geom_bond_atom_site_label_2
_geom_bond_distance
_geom_bond_site_symmetry_2
_ccdc_geom_bond_type
H0 C3 0.942 . S
H1 C6 0.928 . S
H2 C8 0.930 . S
C3 H0 0.942 . S
C3 C4 1.413 . S
C3 C5 1.360 . S
C4 C3 1.413 . S
C4 C8 1.429 . S
C5 C3 1.360 . S
C5 C6 1.372 . S
C6 H1 0.928 . S
C6 C5 1.372 . S
C6 C7 1.404 . S
C7 C6 1.404 . S
C7 C8 1.391 . S
C8 H2 0.930 . S
C8 C4 1.429 . S
C8 C7 1.391 . S
H9 C12 0.931 . S
H10 C15 0.928 . S
H11 C17 0.930 . S
C12 H9 0.931 . S
C12 C13 1.413 . S
C12 C14 1.360 . S
C13 C12 1.413 . S
C13 C17 1.429 . S
C14 C12 1.360 . S
C14 C15 1.372 . S
C15 H10 0.928 . S
C15 C14 1.372 . S
C15 C16 1.404 . S
C16 C15 1.404 . S
C16 C17 1.391 . S
C17 H11 0.930 . S
C17 C13 1.429 . S
C17 C16 1.391 . S
H18 C21 0.931 . S
H19 C24 0.928 1_455 S
H20 C26 0.930 1_556 S
C21 H18 0.931 . S
C21 C22 1.413 . S
C21 C23 1.360 . S
C22 C21 1.413 . S
C22 C26 1.429 . S
C23 C21 1.360 . S
C23 C24 1.372 . S
C24 H19 0.928 1_655 S
C24 C23 1.372 . S
C24 C25 1.404 . S
C25 C24 1.404 . S
C25 C26 1.391 . S
C26 H20 0.930 1_554 S
C26 C22 1.429 . S
C26 C25 1.391 . S
H27 C30 0.931 . S
H28 C33 0.928 . S
H29 C35 0.930 . S
C30 H27 0.931 . S
C30 C31 1.413 . S
C30 C32 1.360 . S
C31 C30 1.413 . S
C31 C35 1.429 . S
C32 C30 1.360 . S
C32 C33 1.372 . S
C33 H28 0.928 . S
C33 C32 1.372 . S
C33 C34 1.404 . S
C34 C33 1.404 . S
C34 C35 1.391 . S
C35 H29 0.930 . S
C35 C31 1.429 . S
C35 C34 1.391 . S
H36 C39 0.933 1_655 S
H37 C42 0.928 1_545 S
H38 C44 0.930 . S
C39 H36 0.933 1_455 S
C39 C40 1.413 . S
C39 C41 1.360 . S
C40 C39 1.413 . S
C40 C44 1.429 . S
C41 C39 1.360 . S
C41 C42 1.372 . S
C42 H37 0.928 1_565 S
C42 C41 1.372 . S
C42 C43 1.404 . S
C43 C42 1.404 . S
C43 C44 1.391 . S
C44 H38 0.930 . S
C44 C40 1.429 . S
C44 C43 1.391 . S
H45 C48 0.931 . S
H46 C51 0.928 . S
H47 C53 0.930 . S
C48 H45 0.931 . S
C48 C49 1.413 . S
C48 C50 1.360 . S
C49 C48 1.413 . S
C49 C53 1.429 . S
C50 C48 1.360 . S
C50 C51 1.372 . S
C51 H46 0.928 . S
C51 C50 1.372 . S
C51 C52 1.404 . S
C52 C51 1.404 . S
C52 C53 1.391 . S
C53 H47 0.930 . S
C53 C49 1.429 . S
C53 C52 1.391 . S
H54 C57 0.931 . S
H55 C60 0.928 1_455 S
H56 C62 0.930 . S
C57 H54 0.931 . S
C57 C58 1.413 . S
C57 C59 1.360 . S
C58 C57 1.413 . S
C58 C62 1.429 . S
C59 C57 1.360 . S
C59 C60 1.372 . S
C60 H55 0.928 1_655 S
C60 C59 1.372 . S
C60 C61 1.404 . S
C61 C60 1.404 . S
C61 C62 1.391 . S
C62 H56 0.930 . S
C62 C58 1.429 . S
C62 C61 1.391 . S
H63 C66 0.931 . S
H64 C69 0.928 . S
H65 C71 0.930 . S
C66 H63 0.931 . S
C66 C67 1.413 . S
C66 C68 1.360 . S
C67 C66 1.413 . S
C67 C71 1.429 . S
C68 C66 1.360 . S
C68 C69 1.372 . S
C69 H64 0.928 . S
C69 C68 1.372 . S
C69 C70 1.404 . S
C70 C69 1.404 . S
C70 C71 1.391 . S
C71 H65 0.930 . S
C71 C67 1.429 . S
C71 C70 1.391 . S
H72 C75 0.931 . S
H73 C78 0.928 . S
H74 C80 0.930 . S
C75 H72 0.931 . S
C75 C76 1.413 . S
C75 C77 1.360 . S
C76 C75 1.413 . S
C76 C80 1.429 . S
C77 C75 1.360 . S
C77 C78 1.372 . S
C78 H73 0.928 . S
C78 C77 1.372 . S
C78 C79 1.404 . S
C79 C78 1.404 . S
C79 C80 1.391 . S
C80 H74 0.930 . S
C80 C76 1.429 . S
C80 C79 1.391 . S
H81 C84 0.931 1_545 S
H82 C87 0.928 . S
H83 C89 0.930 . S
C84 H81 0.931 1_565 S
C84 C85 1.413 . S
C84 C86 1.360 . S
C85 C84 1.413 . S
C85 C89 1.429 . S
C86 C84 1.360 . S
C86 C87 1.372 . S
C87 H82 0.928 . S
C87 C86 1.372 . S
C87 C88 1.404 . S
C88 C87 1.404 . S
C88 C89 1.391 . S
C89 H83 0.930 . S
C89 C85 1.429 . S
C89 C88 1.391 . S
H90 C93 0.931 . S
H91 C96 0.928 . S
H92 C98 0.930 . S
C93 H90 0.931 . S
C93 C94 1.413 . S
C93 C95 1.360 . S
C94 C93 1.413 . S
C94 C98 1.429 . S
C95 C93 1.360 . S
C95 C96 1.372 . S
C96 H91 0.928 . S
C96 C95 1.372 . S
C96 C97 1.404 . S
C97 C96 1.404 . S
C97 C98 1.391 . S
C98 H92 0.930 . S
C98 C94 1.429 . S
C98 C97 1.391 . S
H99 C102 0.931 . S
H100 C105 0.928 . S
H101 C107 0.930 . S
C102 H99 0.931 . S
C102 C103 1.413 . S
C102 C104 1.360 . S
C103 C102 1.413 . S
C103 C107 1.429 . S
C104 C102 1.360 . S
C104 C105 1.372 . S
C105 H100 0.928 . S
C105 C104 1.372 . S
C105 C106 1.404 . S
C106 C105 1.404 . S
C106 C107 1.391 . S
C107 H101 0.930 . S
C107 C103 1.429 . S
C107 C106 1.391 . S
H108 C111 0.931 . S
H109 C114 0.928 . S
H110 C116 0.930 . S
C111 H108 0.931 . S
C111 C112 1.413 . S
C111 C113 1.360 . S
C112 C111 1.413 . S
C112 C116 1.429 . S
C113 C111 1.360 . S
C113 C114 1.372 . S
C114 H109 0.928 . S
C114 C113 1.372 . S
C114 C115 1.404 . S
C115 C114 1.404 . S
C115 C116 1.391 . S
C116 H110 0.930 . S
C116 C112 1.429 . S
C116 C115 1.391 . S
H117 C120 0.931 . S
H118 C123 0.928 . S
H119 C125 0.949 . S
C120 H117 0.931 . S
C120 C121 1.413 . S
C120 C122 1.360 . S
C121 C120 1.413 . S
C121 C125 1.429 . S
C122 C120 1.360 . S
C122 C123 1.372 . S
C123 H118 0.928 . S
C123 C122 1.372 . S
C123 C124 1.404 . S
C124 C123 1.404 . S
C124 C125 1.391 . S
C125 H119 0.949 . S
C125 C121 1.429 . S
C125 C124 1.391 . S
H126 C129 0.931 . S
H127 C132 0.928 . S
H128 C134 0.930 . S
C129 H126 0.931 . S
C129 C130 1.413 . S
C129 C131 1.360 . S
C130 C129 1.413 . S
C130 C134 1.429 . S
C131 C129 1.360 . S
C131 C132 1.372 . S
C132 H127 0.928 . S
C132 C131 1.372 . S
C132 C133 1.404 . S
C133 C132 1.404 . S
C133 C134 1.391 . S
C134 H128 0.930 . S
C134 C130 1.429 . S
C134 C133 1.391 . S
H135 C138 0.931 1_554 S
H136 C141 0.928 . S
H137 C143 0.921 1_565 S
C138 H135 0.931 1_556 S
C138 C139 1.413 . S
C138 C140 1.360 . S
C139 C138 1.413 . S
C139 C143 1.429 . S
C140 C138 1.360 . S
C140 C141 1.372 . S
C141 H136 0.928 . S
C141 C140 1.372 . S
C141 C142 1.404 . S
C142 C141 1.404 . S
C142 C143 1.391 . S
C143 H137 0.921 1_545 S
C143 C139 1.429 . S
C143 C142 1.391 . S
C144 O145 1.160 1_554 S
C144 O151 1.185 . S
O145 C144 1.160 1_556 S
O146 Zn147 1.899 1_556 S
O146 C154 1.284 . S
Zn147 O146 1.899 1_554 S
Zn147 O148 2.032 . S
Zn147 O151 2.086 . S
Zn147 O156 1.977 . S
O148 Zn147 2.032 . S
O148 C152 1.278 . S
C149 O150 1.203 . S
C149 O156 1.267 . S
O150 C149 1.203 . S
O151 C144 1.185 . S
O151 Zn147 2.086 . S
C152 O148 1.278 . S
C152 O153 1.211 . S
O153 C152 1.211 . S
C154 O146 1.284 . S
C154 O155 1.273 . S
O155 C154 1.273 . S
O156 Zn147 1.977 . S
O156 C149 1.267 . S
C157 O158 1.160 . S
C157 O164 1.185 . S
O158 C157 1.160 . S
O159 Zn160 1.899 . S
O159 C167 1.284 . S
Zn160 O159 1.899 . S
Zn160 O161 2.032 . S
Zn160 O164 2.086 . S
Zn160 O169 1.977 . S
O161 Zn160 2.032 . S
O161 C165 1.278 . S
C162 O163 1.203 . S
C162 O169 1.267 . S
O163 C162 1.203 . S
O164 C157 1.185 . S
O164 Zn160 2.086 . S
C165 O161 1.278 . S
C165 O166 1.211 . S
O166 C165 1.211 . S
C167 O159 1.284 . S
C167 O168 1.273 . S
O168 C167 1.273 . S
O169 Zn160 1.977 . S
O169 C162 1.267 . S
C170 O171 1.160 1_554 S
C170 O177 1.185 . S
O171 C170 1.160 1_556 S
O172 Zn173 1.899 1_556 S
O172 C180 1.284 . S
Zn173 O172 1.899 1_554 S
Zn173 O174 2.032 1_554 S
Zn173 O177 2.086 . S
Zn173 O182 1.977 . S
O174 Zn173 2.032 1_556 S
O174 C178 1.278 . S
C175 O176 1.203 . S
C175 O182 1.267 . S
O176 C175 1.203 . S
O177 C170 1.185 . S
O177 Zn173 2.086 . S
C178 O174 1.278 . S
C178 O179 1.211 1_556 S
O179 C178 1.211 1_554 S
C180 O172 1.284 . S
C180 O181 1.273 . S
O181 C180 1.273 . S
O182 Zn173 1.977 . S
O182 C175 1.267 . S
C183 O184 1.160 . S
C183 O190 1.185 . S
O184 C183 1.160 . S
O185 Zn186 1.899 . S
O185 C193 1.295 . S
Zn186 O185 1.899 . S
Zn186 O187 2.032 1_545 S
Zn186 O190 2.086 . S
Zn186 O195 1.977 . S
O187 Zn186 2.032 1_565 S
O187 C191 1.278 . S
C188 O189 1.194 1_545 S
C188 O195 1.267 . S
O189 C188 1.194 1_565 S
O190 C183 1.185 . S
O190 Zn186 2.086 . S
C191 O187 1.278 . S
C191 O192 1.211 . S
O192 C191 1.211 . S
C193 O185 1.295 . S
C193 O194 1.262 1_545 S
O194 C193 1.262 1_565 S
O195 Zn186 1.977 . S
O195 C188 1.267 . S
C196 O197 1.160 . S
C196 O203 1.185 . S
O197 C196 1.160 . S
O198 Zn199 1.899 . S
O198 C206 1.284 . S
Zn199 O198 1.899 . S
Zn199 O200 2.032 . S
Zn199 O203 2.086 . S
Zn199 O208 1.977 . S
O200 Zn199 2.032 . S
O200 C204 1.278 . S
C201 O202 1.203 . S
C201 O208 1.267 . S
O202 C201 1.203 . S
O203 C196 1.185 . S
O203 Zn199 2.086 . S
C204 O200 1.278 . S
C204 O205 1.211 . S
O205 C204 1.211 . S
C206 O198 1.284 . S
C206 O207 1.273 . S
O207 C206 1.273 . S
O208 Zn199 1.977 . S
O208 C201 1.267 . S
C209 O210 1.160 . S
C209 O216 1.185 . S
O210 C209 1.160 . S
O211 Zn212 1.899 . S
O211 C219 1.284 . S
Zn212 O211 1.899 . S
Zn212 O213 2.032 . S
Zn212 O216 2.086 . S
Zn212 O221 1.977 . S
O213 Zn212 2.032 . S
O213 C217 1.278 . S
C214 O215 1.203 . S
C214 O221 1.267 . S
O215 C214 1.203 . S
O216 C209 1.185 . S
O216 Zn212 2.086 . S
C217 O213 1.278 . S
C217 O218 1.211 . S
O218 C217 1.211 . S
C219 O211 1.284 . S
C219 O220 1.273 . S
O220 C219 1.273 . S
O221 Zn212 1.977 . S
O221 C214 1.267 . S
C222 O223 1.160 . S
C222 O229 1.185 . S
O223 C222 1.160 . S
O224 Zn225 1.899 . S
O224 C232 1.284 . S
Zn225 O224 1.899 . S
Zn225 O226 2.032 . S
Zn225 O229 2.086 . S
Zn225 O234 1.977 . S
O226 Zn225 2.032 . S
O226 C230 1.278 . S
C227 O228 1.203 . S
C227 O234 1.267 . S
O228 C227 1.203 . S
O229 C222 1.185 . S
O229 Zn225 2.086 . S
C230 O226 1.278 . S
C230 O231 1.211 . S
O231 C230 1.211 . S
C232 O224 1.284 . S
C232 O233 1.273 . S
O233 C232 1.273 . S
O234 Zn225 1.977 . S
O234 C227 1.267 . S
C235 O236 1.160 . S
C235 O242 1.185 . S
O236 C235 1.160 . S
O237 Zn238 1.899 . S
O237 C245 1.284 1_565 S
Zn238 O237 1.899 . S
Zn238 O239 2.032 1_565 S
Zn238 O242 2.086 . S
Zn238 O247 1.977 . S
O239 Zn238 2.032 1_545 S
O239 C243 1.278 . S
C240 O241 1.203 1_565 S
C240 O247 1.267 . S
O241 C240 1.203 1_545 S
O242 C235 1.185 . S
O242 Zn238 2.086 . S
C243 O239 1.278 . S
C243 O244 1.211 . S
O244 C243 1.211 . S
C245 O237 1.284 1_545 S
C245 O246 1.273 . S
O246 C245 1.273 . S
O247 Zn238 1.977 . S
O247 C240 1.267 . S
C248 O249 1.160 1_455 S
C248 O255 1.185 . S
O249 C248 1.160 1_655 S
O250 Zn251 1.899 1_655 S
O250 C258 1.284 . S
Zn251 O250 1.899 1_455 S
Zn251 O252 2.032 1_455 S
Zn251 O255 2.086 . S
Zn251 O260 1.977 . S
O252 Zn251 2.032 1_655 S
O252 C256 1.276 1_655 S
C253 O254 1.203 . S
C253 O260 1.267 . S
O254 C253 1.203 . S
O255 C248 1.185 . S
O255 Zn251 2.086 . S
C256 O252 1.276 1_455 S
C256 O257 1.218 . S
O257 C256 1.218 . S
C258 O250 1.284 . S
C258 O259 1.273 . S
O259 C258 1.273 . S
O260 Zn251 1.977 . S
O260 C253 1.267 . S
C261 O262 1.160 . S
C261 O268 1.185 . S
O262 C261 1.160 . S
O263 Zn264 1.899 . S
O263 C271 1.284 . S
Zn264 O263 1.899 . S
Zn264 O265 2.032 . S
Zn264 O268 2.086 . S
Zn264 O273 1.977 . S
O265 Zn264 2.032 . S
O265 C269 1.278 . S
C266 O267 1.203 . S
C266 O273 1.267 . S
O267 C266 1.203 . S
O268 C261 1.185 . S
O268 Zn264 2.086 . S
C269 O265 1.278 . S
C269 O270 1.211 . S
O270 C269 1.211 . S
C271 O263 1.284 . S
C271 O272 1.273 . S
O272 C271 1.273 . S
O273 Zn264 1.977 . S
O273 C266 1.267 . S
C274 O275 1.160 1_455 S
C274 O281 1.185 . S
O275 C274 1.160 1_655 S
O276 Zn277 1.899 1_655 S
O276 C284 1.284 . S
Zn277 O276 1.899 1_455 S
Zn277 O278 2.032 1_455 S
Zn277 O281 2.086 . S
Zn277 O286 1.977 . S
O278 Zn277 2.032 1_655 S
O278 C282 1.281 . S
C279 O280 1.203 . S
C279 O286 1.267 . S
O280 C279 1.203 . S
O281 C274 1.185 . S
O281 Zn277 2.086 . S
C282 O278 1.281 . S
C282 O283 1.203 1_655 S
O283 C282 1.203 1_455 S
C284 O276 1.284 . S
C284 O285 1.273 . S
O285 C284 1.273 . S
O286 Zn277 1.977 . S
O286 C279 1.267 . S
C287 O288 1.160 . S
C287 O294 1.185 . S
O288 C287 1.160 . S
O289 Zn290 1.899 . S
O289 C297 1.284 . S
Zn290 O289 1.899 . S
Zn290 O291 2.032 . S
Zn290 O294 2.086 . S
Zn290 O299 1.977 . S
O291 Zn290 2.032 . S
O291 C295 1.278 . S
C292 O293 1.203 . S
C292 O299 1.267 . S
O293 C292 1.203 . S
O294 C287 1.185 . S
O294 Zn290 2.086 . S
C295 O291 1.278 . S
C295 O296 1.211 . S
O296 C295 1.211 . S
C297 O289 1.284 . S
C297 O298 1.273 . S
O298 C297 1.273 . S
O299 Zn290 1.977 . S
O299 C292 1.267 . S
H300 C306 0.930 . S
H301 C309 0.930 . S
H302 C310 0.930 . S
H303 C311 0.930 . S
H304 C314 0.930 . S
H305 C315 0.930 . S
C306 H300 0.930 . S
C306 C307 1.355 . S
C306 C308 1.415 . S
C307 C306 1.355 . S
C307 C309 1.419 . S
C308 C306 1.415 . S
C308 C313 1.425 . S
C308 C315 1.409 . S
C309 H301 0.930 . S
C309 C307 1.419 . S
C309 C310 1.362 . S
C310 H302 0.930 . S
C310 C309 1.362 . S
C310 C313 1.409 . S
C311 H303 0.930 . S
C311 C312 1.355 . S
C311 C313 1.415 . S
C312 C311 1.355 . S
C312 C314 1.419 . S
C313 C308 1.425 . S
C313 C310 1.409 . S
C313 C311 1.415 . S
C314 H304 0.930 . S
C314 C312 1.419 . S
C314 C315 1.362 . S
C315 H305 0.930 . S
C315 C308 1.409 . S
C315 C314 1.362 . S
H316 C322 0.930 . S
H317 C325 0.930 . S
H318 C326 0.930 1_655 S
H319 C327 0.930 . S
H320 C330 0.930 . S
H321 C331 0.930 . S
C322 H316 0.930 . S
C322 C323 1.355 . S
C322 C324 1.415 . S
C323 C322 1.355 . S
C323 C325 1.419 1_455 S
C324 C322 1.415 . S
C324 C329 1.425 . S
C324 C331 1.409 . S
C325 H317 0.930 . S
C325 C323 1.419 1_655 S
C325 C326 1.362 1_655 S
C326 H318 0.930 1_455 S
C326 C325 1.362 1_455 S
C326 C329 1.409 . S
C327 H319 0.930 . S
C327 C328 1.355 . S
C327 C329 1.415 . S
C328 C327 1.355 . S
C328 C330 1.419 . S
C329 C324 1.425 . S
C329 C326 1.409 . S
C329 C327 1.415 . S
C330 H320 0.930 . S
C330 C328 1.419 . S
C330 C331 1.362 . S
C331 H321 0.930 . S
C331 C324 1.409 . S
C331 C330 1.362 . S
H332 C338 0.930 . S
H333 C341 0.930 . S
H334 C342 0.930 . S
H335 C343 0.930 . S
H336 C346 0.930 . S
H337 C347 0.930 . S
C338 H332 0.930 . S
C338 C339 1.355 . S
C338 C340 1.415 . S
C339 C338 1.355 . S
C339 C341 1.419 . S
C340 C338 1.415 . S
C340 C345 1.425 . S
C340 C347 1.409 . S
C341 H333 0.930 . S
C341 C339 1.419 . S
C341 C342 1.362 . S
C342 H334 0.930 . S
C342 C341 1.362 . S
C342 C345 1.409 . S
C343 H335 0.930 . S
C343 C344 1.355 . S
C343 C345 1.415 . S
C344 C343 1.355 . S
C344 C346 1.419 . S
C345 C340 1.425 . S
C345 C342 1.409 . S
C345 C343 1.415 . S
C346 H336 0.930 . S
C346 C344 1.419 . S
C346 C347 1.362 . S
C347 H337 0.930 . S
C347 C340 1.409 . S
C347 C346 1.362 . S
H348 C354 0.930 . S
H349 C357 0.930 . S
H350 C358 0.930 . S
H351 C359 0.930 1_545 S
H352 C362 0.930 . S
H353 C363 0.930 . S
C354 H348 0.930 . S
C354 C355 1.355 1_655 S
C354 C356 1.415 . S
C355 C354 1.355 1_455 S
C355 C357 1.419 . S
C356 C354 1.415 . S
C356 C361 1.425 . S
C356 C363 1.409 . S
C357 H349 0.930 . S
C357 C355 1.419 . S
C357 C358 1.362 . S
C358 H350 0.930 . S
C358 C357 1.362 . S
C358 C361 1.409 1_455 S
C359 H351 0.930 1_565 S
C359 C360 1.354 1_565 S
C359 C361 1.415 . S
C360 C359 1.354 1_545 S
C360 C362 1.418 1_545 S
C361 C356 1.425 . S
C361 C358 1.409 1_655 S
C361 C359 1.415 . S
C362 H352 0.930 . S
C362 C360 1.418 1_565 S
C362 C363 1.362 . S
C363 H353 0.930 . S
C363 C356 1.409 . S
C363 C362 1.362 . S
H364 C370 0.930 . S
H365 C373 0.930 . S
H366 C374 0.930 . S
H367 C375 0.930 . S
H368 C378 0.930 . S
H369 C379 0.930 . S
C370 H364 0.930 . S
C370 C371 1.355 . S
C370 C372 1.415 . S
C371 C370 1.355 . S
C371 C373 1.419 . S
C372 C370 1.415 . S
C372 C377 1.425 . S
C372 C379 1.409 . S
C373 H365 0.930 . S
C373 C371 1.419 . S
C373 C374 1.362 . S
C374 H366 0.930 . S
C374 C373 1.362 . S
C374 C377 1.409 . S
C375 H367 0.930 . S
C375 C376 1.355 . S
C375 C377 1.415 . S
C376 C375 1.355 . S
C376 C378 1.419 . S
C377 C372 1.425 . S
C377 C374 1.409 . S
C377 C375 1.415 . S
C378 H368 0.930 . S
C378 C376 1.419 . S
C378 C379 1.362 . S
C379 H369 0.930 . S
C379 C372 1.409 . S
C379 C378 1.362 . S
H380 C386 0.930 . S
H381 C389 0.930 . S
H382 C390 0.930 . S
H383 C391 0.930 . S
H384 C394 0.930 . S
H385 C395 0.930 . S
C386 H380 0.930 . S
C386 C387 1.355 . S
C386 C388 1.415 . S
C387 C386 1.355 . S
C387 C389 1.419 . S
C388 C386 1.415 . S
C388 C393 1.425 . S
C388 C395 1.409 . S
C389 H381 0.930 . S
C389 C387 1.419 . S
C389 C390 1.362 . S
C390 H382 0.930 . S
C390 C389 1.362 . S
C390 C393 1.409 . S
C391 H383 0.930 . S
C391 C392 1.355 . S
C391 C393 1.415 . S
C392 C391 1.355 . S
C392 C394 1.419 . S
C393 C388 1.425 . S
C393 C390 1.409 . S
C393 C391 1.415 . S
C394 H384 0.930 . S
C394 C392 1.419 . S
C394 C395 1.362 . S
C395 H385 0.930 . S
C395 C388 1.409 . S
C395 C394 1.362 . S
H396 C402 0.930 . S
H397 C405 0.930 . S
H398 C406 0.930 . S
H399 C407 0.930 . S
H400 C410 0.930 . S
H401 C411 0.930 . S
C402 H396 0.930 . S
C402 C403 1.355 . S
C402 C404 1.415 . S
C403 C402 1.355 . S
C403 C405 1.419 . S
C404 C402 1.415 . S
C404 C409 1.425 . S
C404 C411 1.409 . S
C405 H397 0.930 . S
C405 C403 1.419 . S
C405 C406 1.362 . S
C406 H398 0.930 . S
C406 C405 1.362 . S
C406 C409 1.409 . S
C407 H399 0.930 . S
C407 C408 1.355 . S
C407 C409 1.415 . S
C408 C407 1.355 . S
C408 C410 1.419 . S
C409 C404 1.425 . S
C409 C406 1.409 . S
C409 C407 1.415 . S
C410 H400 0.930 . S
C410 C408 1.419 . S
C410 C411 1.362 . S
C411 H401 0.930 . S
C411 C404 1.409 . S
C411 C410 1.362 . S
H412 C418 0.930 1_545 S
H413 C421 0.930 . S
H414 C422 0.930 . S
H415 C423 0.930 . S
H416 C426 0.930 . S
H417 C427 0.930 . S
C418 H412 0.930 1_565 S
C418 C419 1.355 . S
C418 C420 1.415 . S
C419 C418 1.355 . S
C419 C421 1.419 . S
C420 C418 1.415 . S
C420 C425 1.425 . S
C420 C427 1.409 1_565 S
C421 H413 0.930 . S
C421 C419 1.419 . S
C421 C422 1.362 . S
C422 H414 0.930 . S
C422 C421 1.362 . S
C422 C425 1.409 . S
C423 H415 0.930 . S
C423 C424 1.355 . S
C423 C425 1.415 . S
C424 C423 1.355 . S
C424 C426 1.419 1_565 S
C425 C420 1.425 . S
C425 C422 1.409 . S
C425 C423 1.415 . S
C426 H416 0.930 . S
C426 C424 1.419 1_545 S
C426 C427 1.362 . S
C427 H417 0.930 . S
C427 C420 1.409 1_545 S
C427 C426 1.362 . S
H428 C434 0.930 . S
H429 C437 0.930 . S
H430 C438 0.930 . S
H431 C439 0.930 . S
H432 C442 0.930 . S
H433 C443 0.930 . S
C434 H428 0.930 . S
C434 C435 1.355 . S
C434 C436 1.415 . S
C435 C434 1.355 . S
C435 C437 1.419 . S
C436 C434 1.415 . S
C436 C441 1.425 . S
C436 C443 1.409 . S
C437 H429 0.930 . S
C437 C435 1.419 . S
C437 C438 1.362 . S
C438 H430 0.930 . S
C438 C437 1.362 . S
C438 C441 1.409 . S
C439 H431 0.930 . S
C439 C440 1.355 . S
C439 C441 1.415 . S
C440 C439 1.355 . S
C440 C442 1.419 . S
C441 C436 1.425 . S
C441 C438 1.409 . S
C441 C439 1.415 . S
C442 H432 0.930 . S
C442 C440 1.419 . S
C442 C443 1.362 . S
C443 H433 0.930 . S
C443 C436 1.409 . S
C443 C442 1.362 . S
H444 C450 0.930 . S
H445 C453 0.930 . S
H446 C454 0.930 . S
H447 C455 0.930 . S
H448 C458 0.930 . S
H449 C459 0.930 . S
C450 H444 0.930 . S
C450 C451 1.355 . S
C450 C452 1.415 . S
C451 C450 1.355 . S
C451 C453 1.419 . S
C452 C450 1.415 . S
C452 C457 1.425 . S
C452 C459 1.409 . S
C453 H445 0.930 . S
C453 C451 1.419 . S
C453 C454 1.362 . S
C454 H446 0.930 . S
C454 C453 1.362 . S
C454 C457 1.409 . S
C455 H447 0.930 . S
C455 C456 1.355 . S
C455 C457 1.415 . S
C456 C455 1.355 . S
C456 C458 1.419 . S
C457 C452 1.425 . S
C457 C454 1.409 . S
C457 C455 1.415 . S
C458 H448 0.930 . S
C458 C456 1.419 . S
C458 C459 1.362 . S
C459 H449 0.930 . S
C459 C452 1.409 . S
C459 C458 1.362 . S
H460 C466 0.930 . S
H461 C469 0.930 . S
H462 C470 0.930 . S
H463 C471 0.930 . S
H464 C474 0.930 . S
H465 C475 0.930 . S
C466 H460 0.930 . S
C466 C467 1.355 . S
C466 C468 1.415 . S
C467 C466 1.355 . S
C467 C469 1.419 . S
C468 C466 1.415 . S
C468 C473 1.425 . S
C468 C475 1.409 . S
C469 H461 0.930 . S
C469 C467 1.419 . S
C469 C470 1.362 . S
C470 H462 0.930 . S
C470 C469 1.362 . S
C470 C473 1.409 . S
C471 H463 0.930 . S
C471 C472 1.355 . S
C471 C473 1.415 . S
C472 C471 1.355 . S
C472 C474 1.419 . S
C473 C468 1.425 . S
C473 C470 1.409 . S
C473 C471 1.415 . S
C474 H464 0.930 . S
C474 C472 1.419 . S
C474 C475 1.362 . S
C475 H465 0.930 . S
C475 C468 1.409 . S
C475 C474 1.362 . S
H476 C482 0.930 . S
H477 C485 0.930 . S
H478 C486 0.930 . S
H479 C487 0.930 . S
H480 C490 0.930 . S
H481 C491 0.930 . S
C482 H476 0.930 . S
C482 C483 1.355 . S
C482 C484 1.415 . S
C483 C482 1.355 . S
C483 C485 1.419 . S
C484 C482 1.415 . S
C484 C489 1.425 . S
C484 C491 1.409 . S
C485 H477 0.930 . S
C485 C483 1.419 . S
C485 C486 1.362 . S
C486 H478 0.930 . S
C486 C485 1.362 . S
C486 C489 1.409 . S
C487 H479 0.930 . S
C487 C488 1.355 . S
C487 C489 1.415 . S
C488 C487 1.355 . S
C488 C490 1.419 . S
C489 C484 1.425 . S
C489 C486 1.409 . S
C489 C487 1.415 . S
C490 H480 0.930 . S
C490 C488 1.419 . S
C490 C491 1.362 . S
C491 H481 0.930 . S
C491 C484 1.409 . S
C491 C490 1.362 . S
H492 C498 0.930 . S
H493 C501 0.930 . S
H494 C502 0.930 . S
H495 C503 0.930 . S
H496 C506 0.930 . S
H497 C507 0.930 . S
C498 H492 0.930 . S
C498 C499 1.355 . S
C498 C500 1.415 . S
C499 C498 1.355 . S
C499 C501 1.419 . S
C500 C498 1.415 . S
C500 C505 1.425 . S
C500 C507 1.409 . S
C501 H493 0.930 . S
C501 C499 1.419 . S
C501 C502 1.362 . S
C502 H494 0.930 . S
C502 C501 1.362 . S
C502 C505 1.409 . S
C503 H495 0.930 . S
C503 C504 1.355 . S
C503 C505 1.415 . S
C504 C503 1.355 . S
C504 C506 1.419 . S
C505 C500 1.425 . S
C505 C502 1.409 . S
C505 C503 1.415 . S
C506 H496 0.930 . S
C506 C504 1.419 . S
C506 C507 1.362 . S
C507 H497 0.930 . S
C507 C500 1.409 . S
C507 C506 1.362 . S
H508 C514 0.930 1_655 S
H509 C517 0.930 . S
H510 C518 0.930 . S
H511 C519 0.930 . S
H512 C522 0.930 . S
H513 C523 0.930 . S
C514 H508 0.930 1_455 S
C514 C515 1.355 . S
C514 C516 1.415 . S
C515 C514 1.355 . S
C515 C517 1.419 . S
C516 C514 1.415 . S
C516 C521 1.425 . S
C516 C523 1.409 1_455 S
C517 H509 0.930 . S
C517 C515 1.419 . S
C517 C518 1.362 . S
C518 H510 0.930 . S
C518 C517 1.362 . S
C518 C521 1.409 . S
C519 H511 0.930 . S
C519 C520 1.355 . S
C519 C521 1.415 . S
C520 C519 1.355 . S
C520 C522 1.419 1_455 S
C521 C516 1.425 . S
C521 C518 1.409 . S
C521 C519 1.415 . S
C522 H512 0.930 . S
C522 C520 1.419 1_655 S
C522 C523 1.362 . S
C523 H513 0.930 . S
C523 C516 1.409 1_655 S
C523 C522 1.362 . S
H524 C530 0.930 . S
H525 C533 0.930 . S
H526 C534 0.930 . S
H527 C535 0.930 . S
H528 C538 0.930 . S
H529 C539 0.930 . S
C530 H524 0.930 . S
C530 C531 1.355 . S
C530 C532 1.415 . S
C531 C530 1.355 . S
C531 C533 1.419 . S
C532 C530 1.415 . S
C532 C537 1.425 . S
C532 C539 1.409 . S
C533 H525 0.930 . S
C533 C531 1.419 . S
C533 C534 1.362 . S
C534 H526 0.930 . S
C534 C533 1.362 . S
C534 C537 1.409 . S
C535 H527 0.930 . S
C535 C536 1.355 . S
C535 C537 1.415 . S
C536 C535 1.355 . S
C536 C538 1.419 . S
C537 C532 1.425 . S
C537 C534 1.409 . S
C537 C535 1.415 . S
C538 H528 0.930 . S
C538 C536 1.419 . S
C538 C539 1.362 . S
C539 H529 0.930 . S
C539 C532 1.409 . S
C539 C538 1.362 . S
H540 C546 0.930 . S
H541 C549 0.930 . S
H542 C550 0.930 . S
H543 C551 0.930 . S
H544 C554 0.930 . S
H545 C555 0.930 . S
C546 H540 0.930 . S
C546 C547 1.355 . S
C546 C548 1.415 . S
C547 C546 1.355 . S
C547 C549 1.419 . S
C548 C546 1.415 . S
C548 C553 1.425 . S
C548 C555 1.409 . S
C549 H541 0.930 . S
C549 C547 1.419 . S
C549 C550 1.362 . S
C550 H542 0.930 . S
C550 C549 1.362 . S
C550 C553 1.409 . S
C551 H543 0.930 . S
C551 C552 1.355 . S
C551 C553 1.415 . S
C552 C551 1.355 . S
C552 C554 1.419 . S
C553 C548 1.425 . S
C553 C550 1.409 . S
C553 C551 1.415 . S
C554 H544 0.930 . S
C554 C552 1.419 . S
C554 C555 1.362 . S
C555 H545 0.930 . S
C555 C548 1.409 . S
C555 C554 1.362 . S
H556 C562 0.930 . S
H557 C565 0.930 . S
H558 C566 0.930 . S
H559 C567 0.930 . S
H560 C570 0.930 . S
H561 C571 0.930 . S
C562 H556 0.930 . S
C562 C563 1.355 . S
C562 C564 1.415 . S
C563 C562 1.355 . S
C563 C565 1.419 . S
C564 C562 1.415 . S
C564 C569 1.425 . S
C564 C571 1.409 . S
C565 H557 0.930 . S
C565 C563 1.419 . S
C565 C566 1.362 . S
C566 H558 0.930 . S
C566 C565 1.362 . S
C566 C569 1.409 . S
C567 H559 0.930 . S
C567 C568 1.355 . S
C567 C569 1.415 . S
C568 C567 1.355 . S
C568 C570 1.419 . S
C569 C564 1.425 . S
C569 C566 1.409 . S
C569 C567 1.415 . S
C570 H560 0.930 . S
C570 C568 1.419 . S
C570 C571 1.362 . S
C571 H561 0.930 . S
C571 C564 1.409 . S
C571 C570 1.362 . S
H572 C578 0.930 . S
H573 C581 0.930 . S
H574 C582 0.930 . S
H575 C583 0.930 . S
H576 C586 0.930 . S
H577 C587 0.930 . S
C578 H572 0.930 . S
C578 C579 1.355 . S
C578 C580 1.415 . S
C579 C578 1.355 . S
C579 C581 1.419 . S
C580 C578 1.415 . S
C580 C585 1.425 . S
C580 C587 1.409 . S
C581 H573 0.930 . S
C581 C579 1.419 . S
C581 C582 1.362 . S
C582 H574 0.930 . S
C582 C581 1.362 . S
C582 C585 1.409 . S
C583 H575 0.930 . S
C583 C584 1.355 . S
C583 C585 1.415 . S
C584 C583 1.355 . S
C584 C586 1.419 . S
C585 C580 1.425 . S
C585 C582 1.409 . S
C585 C583 1.415 . S
C586 H576 0.930 . S
C586 C584 1.419 . S
C586 C587 1.362 . S
C587 H577 0.930 . S
C587 C580 1.409 . S
C587 C586 1.362 . S
H588 C594 0.930 . S
H589 C597 0.930 . S
H590 C598 0.930 . S
H591 C599 0.930 . S
H592 C602 0.930 . S
H593 C603 0.930 . S
C594 H588 0.930 . S
C594 C595 1.355 1_565 S
C594 C596 1.415 . S
C595 C594 1.355 1_545 S
C595 C597 1.419 . S
C596 C594 1.415 . S
C596 C601 1.425 . S
C596 C603 1.409 . S
C597 H589 0.930 . S
C597 C595 1.419 . S
C597 C598 1.362 . S
C598 H590 0.930 . S
C598 C597 1.362 . S
C598 C601 1.409 1_545 S
C599 H591 0.930 . S
C599 C600 1.355 . S
C599 C601 1.415 . S
C600 C599 1.355 . S
C600 C602 1.419 . S
C601 C596 1.425 . S
C601 C598 1.409 1_565 S
C601 C599 1.415 . S
C602 H592 0.930 . S
C602 C600 1.419 . S
C602 C603 1.362 . S
C603 H593 0.930 . S
C603 C596 1.409 . S
C603 C602 1.362 . S
H604 C610 0.930 . S
H605 C613 0.930 . S
H606 C614 0.930 . S
H607 C615 0.930 . S
H608 C618 0.930 . S
H609 C619 0.930 . S
C610 H604 0.930 . S
C610 C611 1.355 . S
C610 C612 1.415 . S
C611 C610 1.355 . S
C611 C613 1.419 . S
C612 C610 1.415 . S
C612 C617 1.425 . S
C612 C619 1.409 . S
C613 H605 0.930 . S
C613 C611 1.419 . S
C613 C614 1.362 . S
C614 H606 0.930 . S
C614 C613 1.362 . S
C614 C617 1.409 . S
C615 H607 0.930 . S
C615 C616 1.355 . S
C615 C617 1.415 . S
C616 C615 1.355 . S
C616 C618 1.419 . S
C617 C612 1.425 . S
C617 C614 1.409 . S
C617 C615 1.415 . S
C618 H608 0.930 . S
C618 C616 1.419 . S
C618 C619 1.362 . S
C619 H609 0.930 . S
C619 C612 1.409 . S
C619 C618 1.362 . S
H620 C626 0.930 1_565 S
H621 C629 0.930 . S
H622 C630 0.930 . S
H623 C631 0.930 . S
H624 C634 0.930 . S
H625 C635 0.930 . S
C626 H620 0.930 1_545 S
C626 C627 1.355 . S
C626 C628 1.415 . S
C627 C626 1.355 . S
C627 C629 1.419 . S
C628 C626 1.415 . S
C628 C633 1.425 . S
C628 C635 1.409 . S
C629 H621 0.930 . S
C629 C627 1.419 . S
C629 C630 1.362 . S
C630 H622 0.930 . S
C630 C629 1.362 . S
C630 C633 1.409 . S
C631 H623 0.930 . S
C631 C632 1.355 . S
C631 C633 1.415 . S
C632 C631 1.355 . S
C632 C634 1.419 . S
C633 C628 1.425 . S
C633 C630 1.409 . S
C633 C631 1.415 . S
C634 H624 0.930 . S
C634 C632 1.419 . S
C634 C635 1.362 . S
C635 H625 0.930 . S
C635 C628 1.409 . S
C635 C634 1.362 . S
H636 C642 0.930 . S
H637 C645 0.930 . S
H638 C646 0.930 . S
H639 C647 0.930 . S
H640 C650 0.930 . S
H641 C651 0.930 . S
C642 H636 0.930 . S
C642 C643 1.355 . S
C642 C644 1.415 . S
C643 C642 1.355 . S
C643 C645 1.419 . S
C644 C642 1.415 . S
C644 C649 1.425 . S
C644 C651 1.409 . S
C645 H637 0.930 . S
C645 C643 1.419 . S
C645 C646 1.362 . S
C646 H638 0.930 . S
C646 C645 1.362 . S
C646 C649 1.409 . S
C647 H639 0.930 . S
C647 C648 1.355 . S
C647 C649 1.415 . S
C648 C647 1.355 . S
C648 C650 1.419 . S
C649 C644 1.425 . S
C649 C646 1.409 . S
C649 C647 1.415 . S
C650 H640 0.930 . S
C650 C648 1.419 . S
C650 C651 1.362 . S
C651 H641 0.930 . S
C651 C644 1.409 . S
C651 C650 1.362 . S
H652 C658 0.930 . S
H653 C661 0.930 . S
H654 C662 0.940 . S
H655 C663 0.930 . S
H656 C666 0.930 . S
H657 C667 0.930 . S
C658 H652 0.930 . S
C658 C659 1.355 . S
C658 C660 1.415 . S
C659 C658 1.355 . S
C659 C661 1.419 1_545 S
C660 C658 1.415 . S
C660 C665 1.425 . S
C660 C667 1.409 . S
C661 H653 0.930 . S
C661 C659 1.419 1_565 S
C661 C662 1.371 . S
C662 H654 0.940 . S
C662 C661 1.371 . S
C662 C665 1.391 1_565 S
C663 H655 0.930 . S
C663 C664 1.355 . S
C663 C665 1.415 . S
C664 C663 1.355 . S
C664 C666 1.419 . S
C665 C660 1.425 . S
C665 C662 1.391 1_545 S
C665 C663 1.415 . S
C666 H656 0.930 . S
C666 C664 1.419 . S
C666 C667 1.362 . S
C667 H657 0.930 . S
C667 C660 1.409 . S
C667 C666 1.362 . S
H668 C674 0.930 . S
H669 C677 0.930 . S
H670 C678 0.930 . S
H671 C679 0.930 . S
H672 C682 0.930 . S
H673 C683 0.930 . S
C674 H668 0.930 . S
C674 C675 1.355 . S
C674 C676 1.415 . S
C675 C674 1.355 . S
C675 C677 1.419 . S
C676 C674 1.415 . S
C676 C681 1.425 . S
C676 C683 1.409 . S
C677 H669 0.930 . S
C677 C675 1.419 . S
C677 C678 1.362 . S
C678 H670 0.930 . S
C678 C677 1.362 . S
C678 C681 1.409 . S
C679 H671 0.930 . S
C679 C680 1.355 . S
C679 C681 1.415 . S
C680 C679 1.355 . S
C680 C682 1.419 . S
C681 C676 1.425 . S
C681 C678 1.409 . S
C681 C679 1.415 . S
C682 H672 0.930 . S
C682 C680 1.419 . S
C682 C683 1.362 . S
C683 H673 0.930 . S
C683 C676 1.409 . S
C683 C682 1.362 . S
H684 C690 0.930 . S
H685 C693 0.930 . S
H686 C694 0.930 . S
H687 C695 0.930 . S
H688 C698 0.930 . S
H689 C699 0.930 . S
C690 H684 0.930 . S
C690 C691 1.355 . S
C690 C692 1.415 . S
C691 C690 1.355 . S
C691 C693 1.419 . S
C692 C690 1.415 . S
C692 C697 1.425 . S
C692 C699 1.409 . S
C693 H685 0.930 . S
C693 C691 1.419 . S
C693 C694 1.362 . S
C694 H686 0.930 . S
C694 C693 1.362 . S
C694 C697 1.409 . S
C695 H687 0.930 . S
C695 C696 1.355 . S
C695 C697 1.415 . S
C696 C695 1.355 . S
C696 C698 1.419 . S
C697 C692 1.425 . S
C697 C694 1.409 . S
C697 C695 1.415 . S
C698 H688 0.930 . S
C698 C696 1.419 . S
C698 C699 1.362 . S
C699 H689 0.930 . S
C699 C692 1.409 . S
C699 C698 1.362 . S
H700 C706 0.930 . S
H701 C709 0.951 . S
H702 C710 0.930 . S
H703 C711 0.956 . S
H704 C714 0.930 . S
H705 C715 0.930 . S
C706 H700 0.930 . S
C706 C707 1.355 . S
C706 C708 1.415 . S
C707 C706 1.355 . S
C707 C709 1.387 1_545 S
C708 C706 1.415 . S
C708 C713 1.425 . S
C708 C715 1.409 . S
C709 H701 0.951 . S
C709 C707 1.387 1_565 S
C709 C710 1.374 . S
C710 H702 0.930 . S
C710 C709 1.374 . S
C710 C713 1.409 1_565 S
C711 H703 0.956 . S
C711 C712 1.337 1_565 S
C711 C713 1.406 1_565 S
C712 C711 1.337 1_545 S
C712 C714 1.419 . S
C713 C708 1.425 . S
C713 C710 1.409 1_545 S
C713 C711 1.406 1_545 S
C714 H704 0.930 . S
C714 C712 1.419 . S
C714 C715 1.362 . S
C715 H705 0.930 . S
C715 C708 1.409 . S
C715 C714 1.362 . S
H716 C722 0.930 . S
H717 C725 0.930 . S
H718 C726 0.930 . S
H719 C727 0.930 . S
H720 C730 0.930 . S
H721 C731 0.930 . S
C722 H716 0.930 . S
C722 C723 1.355 . S
C722 C724 1.415 . S
C723 C722 1.355 . S
C723 C725 1.419 . S
C724 C722 1.415 . S
C724 C729 1.425 . S
C724 C731 1.409 . S
C725 H717 0.930 . S
C725 C723 1.419 . S
C725 C726 1.362 . S
C726 H718 0.930 . S
C726 C725 1.362 . S
C726 C729 1.409 . S
C727 H719 0.930 . S
C727 C728 1.355 . S
C727 C729 1.415 . S
C728 C727 1.355 . S
C728 C730 1.419 . S
C729 C724 1.425 . S
C729 C726 1.409 . S
C729 C727 1.415 . S
C730 H720 0.930 . S
C730 C728 1.419 . S
C730 C731 1.362 . S
C731 H721 0.930 . S
C731 C724 1.409 . S
C731 C730 1.362 . S
H732 C738 0.930 . S
H733 C741 0.930 . S
H734 C742 0.930 . S
H735 C743 0.930 . S
H736 C746 0.930 . S
H737 C747 0.930 . S
C738 H732 0.930 . S
C738 C739 1.355 . S
C738 C740 1.415 . S
C739 C738 1.355 . S
C739 C741 1.419 . S
C740 C738 1.415 . S
C740 C745 1.425 . S
C740 C747 1.409 . S
C741 H733 0.930 . S
C741 C739 1.419 . S
C741 C742 1.362 . S
C742 H734 0.930 . S
C742 C741 1.362 . S
C742 C745 1.409 . S
C743 H735 0.930 . S
C743 C744 1.355 . S
C743 C745 1.415 . S
C744 C743 1.355 . S
C744 C746 1.419 . S
C745 C740 1.425 . S
C745 C742 1.409 . S
C745 C743 1.415 . S
C746 H736 0.930 . S
C746 C744 1.419 . S
C746 C747 1.362 . S
C747 H737 0.930 . S
C747 C740 1.409 . S
C747 C746 1.362 . S
H748 C754 0.930 . S
H749 C757 0.930 . S
H750 C758 0.930 . S
H751 C759 0.930 . S
H752 C762 0.930 . S
H753 C763 0.930 . S
C754 H748 0.930 . S
C754 C755 1.355 . S
C754 C756 1.415 . S
C755 C754 1.355 . S
C755 C757 1.419 . S
C756 C754 1.415 . S
C756 C761 1.425 . S
C756 C763 1.409 . S
C757 H749 0.930 . S
C757 C755 1.419 . S
C757 C758 1.362 . S
C758 H750 0.930 . S
C758 C757 1.362 . S
C758 C761 1.409 . S
C759 H751 0.930 . S
C759 C760 1.355 . S
C759 C761 1.415 . S
C760 C759 1.355 . S
C760 C762 1.419 . S
C761 C756 1.425 . S
C761 C758 1.409 . S
C761 C759 1.415 . S
C762 H752 0.930 . S
C762 C760 1.419 . S
C762 C763 1.362 . S
C763 H753 0.930 . S
C763 C756 1.409 . S
C763 C762 1.362 . S
H764 C770 0.930 . S
H765 C773 0.930 . S
H766 C774 0.930 . S
H767 C775 0.930 . S
H768 C778 0.930 . S
H769 C779 0.930 . S
C770 H764 0.930 . S
C770 C771 1.355 1_655 S
C770 C772 1.415 . S
C771 C770 1.355 1_455 S
C771 C773 1.419 . S
C772 C770 1.415 . S
C772 C777 1.425 . S
C772 C779 1.409 . S
C773 H765 0.930 . S
C773 C771 1.419 . S
C773 C774 1.362 . S
C774 H766 0.930 . S
C774 C773 1.362 . S
C774 C777 1.409 1_455 S
C775 H767 0.930 . S
C775 C776 1.355 . S
C775 C777 1.415 . S
C776 C775 1.355 . S
C776 C778 1.419 . S
C777 C772 1.425 . S
C777 C774 1.409 1_655 S
C777 C775 1.415 . S
C778 H768 0.930 . S
C778 C776 1.419 . S
C778 C779 1.362 . S
C779 H769 0.930 . S
C779 C772 1.409 . S
C779 C778 1.362 . S
H780 C786 0.930 . S
H781 C789 0.930 . S
H782 C790 0.930 . S
H783 C791 0.930 . S
H784 C794 0.930 . S
H785 C795 0.930 . S
C786 H780 0.930 . S
C786 C787 1.355 . S
C786 C788 1.415 . S
C787 C786 1.355 . S
C787 C789 1.419 . S
C788 C786 1.415 . S
C788 C793 1.425 . S
C788 C795 1.409 . S
C789 H781 0.930 . S
C789 C787 1.419 . S
C789 C790 1.362 . S
C790 H782 0.930 . S
C790 C789 1.362 . S
C790 C793 1.409 . S
C791 H783 0.930 . S
C791 C792 1.355 . S
C791 C793 1.415 . S
C792 C791 1.355 . S
C792 C794 1.419 . S
C793 C788 1.425 . S
C793 C790 1.409 . S
C793 C791 1.415 . S
C794 H784 0.930 . S
C794 C792 1.419 . S
C794 C795 1.362 . S
C795 H785 0.930 . S
C795 C788 1.409 . S
C795 C794 1.362 . S
H796 C802 0.930 . S
H797 C805 0.930 . S
H798 C806 0.930 . S
H799 C807 0.930 . S
H800 C810 0.930 . S
H801 C811 0.930 . S
C802 H796 0.930 . S
C802 C803 1.355 . S
C802 C804 1.415 . S
C803 C802 1.355 . S
C803 C805 1.419 1_455 S
C804 C802 1.415 . S
C804 C809 1.425 . S
C804 C811 1.409 . S
C805 H797 0.930 . S
C805 C803 1.419 1_655 S
C805 C806 1.362 . S
C806 H798 0.930 . S
C806 C805 1.362 . S
C806 C809 1.409 1_655 S
C807 H799 0.930 . S
C807 C808 1.355 . S
C807 C809 1.415 . S
C808 C807 1.355 . S
C808 C810 1.419 . S
C809 C804 1.425 . S
C809 C806 1.409 1_455 S
C809 C807 1.415 . S
C810 H800 0.930 . S
C810 C808 1.419 . S
C810 C811 1.362 . S
C811 H801 0.930 . S
C811 C804 1.409 . S
C811 C810 1.362 . S
H812 C818 0.930 . S
H813 C821 0.930 . S
H814 C822 0.930 . S
H815 C823 0.930 . S
H816 C826 0.930 . S
H817 C827 0.930 . S
C818 H812 0.930 . S
C818 C819 1.355 . S
C818 C820 1.415 . S
C819 C818 1.355 . S
C819 C821 1.419 . S
C820 C818 1.415 . S
C820 C825 1.425 . S
C820 C827 1.409 . S
C821 H813 0.930 . S
C821 C819 1.419 . S
C821 C822 1.362 . S
C822 H814 0.930 . S
C822 C821 1.362 . S
C822 C825 1.409 . S
C823 H815 0.930 . S
C823 C824 1.355 . S
C823 C825 1.415 . S
C824 C823 1.355 . S
C824 C826 1.419 . S
C825 C820 1.425 . S
C825 C822 1.409 . S
C825 C823 1.415 . S
C826 H816 0.930 . S
C826 C824 1.419 . S
C826 C827 1.362 . S
C827 H817 0.930 . S
C827 C820 1.409 . S
C827 C826 1.362 . S
H828 C834 0.905 1_455 S
H829 C837 0.930 . S
H830 C838 0.930 . S
H831 C839 0.930 . S
H832 C842 0.930 . S
H833 C843 0.930 . S
C834 H828 0.905 1_655 S
C834 C835 1.379 . S
C834 C836 1.414 . S
C835 C834 1.379 . S
C835 C837 1.419 . S
C836 C834 1.414 . S
C836 C841 1.425 . S
C836 C843 1.409 1_655 S
C837 H829 0.930 . S
C837 C835 1.419 . S
C837 C838 1.362 . S
C838 H830 0.930 . S
C838 C837 1.362 . S
C838 C841 1.409 . S
C839 H831 0.930 . S
C839 C840 1.355 . S
C839 C841 1.415 . S
C840 C839 1.355 . S
C840 C842 1.419 1_655 S
C841 C836 1.425 . S
C841 C838 1.409 . S
C841 C839 1.415 . S
C842 H832 0.930 . S
C842 C840 1.419 1_455 S
C842 C843 1.362 . S
C843 H833 0.930 . S
C843 C836 1.409 1_455 S
C843 C842 1.362 . S
H844 C850 0.930 . S
H845 C853 0.930 . S
H846 C854 0.930 . S
H847 C855 0.930 . S
H848 C858 0.930 . S
H849 C859 0.930 . S
C850 H844 0.930 . S
C850 C851 1.355 . S
C850 C852 1.415 . S
C851 C850 1.355 . S
C851 C853 1.419 . S
C852 C850 1.415 . S
C852 C857 1.425 . S
C852 C859 1.409 . S
C853 H845 0.930 . S
C853 C851 1.419 . S
C853 C854 1.362 . S
C854 H846 0.930 . S
C854 C853 1.362 . S
C854 C857 1.409 . S
C855 H847 0.930 . S
C855 C856 1.355 . S
C855 C857 1.415 . S
C856 C855 1.355 . S
C856 C858 1.419 . S
C857 C852 1.425 . S
C857 C854 1.409 . S
C857 C855 1.415 . S
C858 H848 0.930 . S
C858 C856 1.419 . S
C858 C859 1.362 . S
C859 H849 0.930 . S
C859 C852 1.409 . S
C859 C858 1.362 . S
H860 C866 0.930 . S
H861 C869 0.930 . S
H862 C870 0.930 . S
H863 C871 0.930 . S
H864 C874 0.930 . S
H865 C875 0.930 . S
C866 H860 0.930 . S
C866 C867 1.355 1_556 S
C866 C868 1.415 . S
C867 C866 1.355 1_554 S
C867 C869 1.419 . S
C868 C866 1.415 . S
C868 C873 1.425 . S
C868 C875 1.409 . S
C869 H861 0.930 . S
C869 C867 1.419 . S
C869 C870 1.362 . S
C870 H862 0.930 . S
C870 C869 1.362 . S
C870 C873 1.409 1_554 S
C871 H863 0.930 . S
C871 C872 1.355 . S
C871 C873 1.415 . S
C872 C871 1.355 . S
C872 C874 1.419 . S
C873 C868 1.425 . S
C873 C870 1.409 1_556 S
C873 C871 1.415 . S
C874 H864 0.930 . S
C874 C872 1.419 . S
C874 C875 1.362 . S
C875 H865 0.930 . S
C875 C868 1.409 . S
C875 C874 1.362 . S
H876 C882 0.930 . S
H877 C885 0.930 . S
H878 C886 0.930 . S
H879 C887 0.930 . S
H880 C890 0.930 . S
H881 C891 0.930 . S
C882 H876 0.930 . S
C882 C883 1.355 . S
C882 C884 1.415 . S
C883 C882 1.355 . S
C883 C885 1.419 . S
C884 C882 1.415 . S
C884 C889 1.425 . S
C884 C891 1.409 . S
C885 H877 0.930 . S
C885 C883 1.419 . S
C885 C886 1.362 . S
C886 H878 0.930 . S
C886 C885 1.362 . S
C886 C889 1.409 . S
C887 H879 0.930 . S
C887 C888 1.355 . S
C887 C889 1.415 . S
C888 C887 1.355 . S
C888 C890 1.419 . S
C889 C884 1.425 . S
C889 C886 1.409 . S
C889 C887 1.415 . S
C890 H880 0.930 . S
C890 C888 1.419 . S
C890 C891 1.362 . S
C891 H881 0.930 . S
C891 C884 1.409 . S
C891 C890 1.362 . S
H892 C898 0.954 . S
H893 C901 0.930 . S
H894 C902 0.930 . S
H895 C903 0.930 . S
H896 C906 0.930 . S
H897 C907 0.930 . S
C898 H892 0.954 . S
C898 C899 1.354 1_556 S
C898 C900 1.392 1_556 S
C899 C898 1.354 1_554 S
C899 C901 1.426 . S
C900 C898 1.392 1_554 S
C900 C905 1.425 . S
C900 C907 1.409 . S
C901 H893 0.930 . S
C901 C899 1.426 . S
C901 C902 1.362 . S
C902 H894 0.930 . S
C902 C901 1.362 . S
C902 C905 1.409 . S
C903 H895 0.930 . S
C903 C904 1.355 . S
C903 C905 1.415 . S
C904 C903 1.355 . S
C904 C906 1.419 . S
C905 C900 1.425 . S
C905 C902 1.409 . S
C905 C903 1.415 . S
C906 H896 0.930 . S
C906 C904 1.419 . S
C906 C907 1.362 . S
C907 H897 0.930 . S
C907 C900 1.409 . S
C907 C906 1.362 . S
H908 C914 0.930 . S
H909 C917 0.930 . S
H910 C918 0.930 . S
H911 C919 0.930 . S
H912 C922 0.930 . S
H913 C923 0.930 . S
C914 H908 0.930 . S
C914 C915 1.355 . S
C914 C916 1.415 . S
C915 C914 1.355 . S
C915 C917 1.419 . S
C916 C914 1.415 . S
C916 C921 1.425 . S
C916 C923 1.409 . S
C917 H909 0.930 . S
C917 C915 1.419 . S
C917 C918 1.362 . S
C918 H910 0.930 . S
C918 C917 1.362 . S
C918 C921 1.409 . S
C919 H911 0.930 . S
C919 C920 1.355 . S
C919 C921 1.415 . S
C920 C919 1.355 . S
C920 C922 1.419 . S
C921 C916 1.425 . S
C921 C918 1.409 . S
C921 C919 1.415 . S
C922 H912 0.930 . S
C922 C920 1.419 . S
C922 C923 1.362 . S
C923 H913 0.930 . S
C923 C916 1.409 . S
C923 C922 1.362 . S
H924 C930 0.930 1_556 S
H925 C933 0.930 . S
H926 C934 0.930 . S
H927 C935 0.930 . S
H928 C938 0.930 . S
H929 C939 0.930 . S
C930 H924 0.930 1_554 S
C930 C931 1.355 . S
C930 C932 1.415 . S
C931 C930 1.355 . S
C931 C933 1.419 . S
C932 C930 1.415 . S
C932 C937 1.425 . S
C932 C939 1.409 . S
C933 H925 0.930 . S
C933 C931 1.419 . S
C933 C934 1.362 . S
C934 H926 0.930 . S
C934 C933 1.362 . S
C934 C937 1.409 . S
C935 H927 0.930 . S
C935 C936 1.355 . S
C935 C937 1.415 . S
C936 C935 1.355 . S
C936 C938 1.419 . S
C937 C932 1.425 . S
C937 C934 1.409 . S
C937 C935 1.415 . S
C938 H928 0.930 . S
C938 C936 1.419 . S
C938 C939 1.362 . S
C939 H929 0.930 . S
C939 C932 1.409 . S
C939 C938 1.362 . S
H940 C946 0.930 . S
H941 C949 0.930 . S
H942 C950 0.930 . S
H943 C951 0.930 . S
H944 C954 0.930 . S
H945 C955 0.930 . S
C946 H940 0.930 . S
C946 C947 1.355 . S
C946 C948 1.415 . S
C947 C946 1.355 . S
C947 C949 1.419 . S
C948 C946 1.415 . S
C948 C953 1.425 . S
C948 C955 1.409 . S
C949 H941 0.930 . S
C949 C947 1.419 . S
C949 C950 1.362 . S
C950 H942 0.930 . S
C950 C949 1.362 . S
C950 C953 1.409 . S
C951 H943 0.930 . S
C951 C952 1.355 . S
C951 C953 1.415 . S
C952 C951 1.355 . S
C952 C954 1.419 . S
C953 C948 1.425 . S
C953 C950 1.409 . S
C953 C951 1.415 . S
C954 H944 0.930 . S
C954 C952 1.419 . S
C954 C955 1.362 . S
C955 H945 0.930 . S
C955 C948 1.409 . S
C955 C954 1.362 . S
H956 C962 0.930 . S
H957 C965 0.930 . S
H958 C966 0.930 . S
H959 C967 0.930 . S
H960 C970 0.930 . S
H961 C971 0.930 . S
C962 H956 0.930 . S
C962 C963 1.355 . S
C962 C964 1.415 . S
C963 C962 1.355 . S
C963 C965 1.419 . S
C964 C962 1.415 . S
C964 C969 1.425 . S
C964 C971 1.409 . S
C965 H957 0.930 . S
C965 C963 1.419 . S
C965 C966 1.362 . S
C966 H958 0.930 . S
C966 C965 1.362 . S
C966 C969 1.409 . S
C967 H959 0.930 . S
C967 C968 1.355 . S
C967 C969 1.415 . S
C968 C967 1.355 . S
C968 C970 1.419 . S
C969 C964 1.425 . S
C969 C966 1.409 . S
C969 C967 1.415 . S
C970 H960 0.930 . S
C970 C968 1.419 . S
C970 C971 1.362 . S
C971 H961 0.930 . S
C971 C964 1.409 . S
C971 C970 1.362 . S
H972 C978 0.930 . S
H973 C981 0.930 . S
H974 C982 0.930 . S
H975 C983 0.930 . S
H976 C986 0.930 . S
H977 C987 0.930 . S
C978 H972 0.930 . S
C978 C979 1.355 . S
C978 C980 1.415 . S
C979 C978 1.355 . S
C979 C981 1.419 . S
C980 C978 1.415 . S
C980 C985 1.425 . S
C980 C987 1.409 . S
C981 H973 0.930 . S
C981 C979 1.419 . S
C981 C982 1.362 . S
C982 H974 0.930 . S
C982 C981 1.362 . S
C982 C985 1.409 . S
C983 H975 0.930 . S
C983 C984 1.355 . S
C983 C985 1.415 . S
C984 C983 1.355 . S
C984 C986 1.419 . S
C985 C980 1.425 . S
C985 C982 1.409 . S
C985 C983 1.415 . S
C986 H976 0.930 . S
C986 C984 1.419 . S
C986 C987 1.362 . S
C987 H977 0.930 . S
C987 C980 1.409 . S
C987 C986 1.362 . S
H988 C994 0.930 . S
H989 C997 0.930 . S
H990 C998 0.930 . S
H991 C999 0.930 . S
H992 C1002 0.930 . S
H993 C1003 0.930 . S
C994 H988 0.930 . S
C994 C995 1.355 . S
C994 C996 1.415 . S
C995 C994 1.355 . S
C995 C997 1.419 . S
C996 C994 1.415 . S
C996 C1001 1.425 . S
C996 C1003 1.409 . S
C997 H989 0.930 . S
C997 C995 1.419 . S
C997 C998 1.362 . S
C998 H990 0.930 . S
C998 C997 1.362 . S
C998 C1001 1.409 . S
C999 H991 0.930 . S
C999 C1000 1.355 . S
C999 C1001 1.415 . S
C1000 C999 1.355 . S
C1000 C1002 1.419 . S
C1001 C996 1.425 . S
C1001 C998 1.409 . S
C1001 C999 1.415 . S
C1002 H992 0.930 . S
C1002 C1000 1.419 . S
C1002 C1003 1.362 . S
C1003 H993 0.930 . S
C1003 C996 1.409 . S
C1003 C1002 1.362 . S
H1004 C1010 0.930 . S
H1005 C1013 0.930 . S
H1006 C1014 0.930 . S
H1007 C1015 0.930 . S
H1008 C1018 0.930 . S
H1009 C1019 0.930 . S
C1010 H1004 0.930 . S
C1010 C1011 1.355 . S
C1010 C1012 1.415 . S
C1011 C1010 1.355 . S
C1011 C1013 1.419 . S
C1012 C1010 1.415 . S
C1012 C1017 1.425 . S
C1012 C1019 1.409 . S
C1013 H1005 0.930 . S
C1013 C1011 1.419 . S
C1013 C1014 1.362 . S
C1014 H1006 0.930 . S
C1014 C1013 1.362 . S
C1014 C1017 1.409 . S
C1015 H1007 0.930 . S
C1015 C1016 1.355 . S
C1015 C1017 1.415 . S
C1016 C1015 1.355 . S
C1016 C1018 1.419 . S
C1017 C1012 1.425 . S
C1017 C1014 1.409 . S
C1017 C1015 1.415 . S
C1018 H1008 0.930 . S
C1018 C1016 1.419 . S
C1018 C1019 1.362 . S
C1019 H1009 0.930 . S
C1019 C1012 1.409 . S
C1019 C1018 1.362 . S
H1020 C1026 0.930 . S
H1021 C1029 0.930 . S
H1022 C1030 0.930 . S
H1023 C1031 0.930 . S
H1024 C1034 0.930 . S
H1025 C1035 0.930 . S
C1026 H1020 0.930 . S
C1026 C1027 1.355 . S
C1026 C1028 1.415 . S
C1027 C1026 1.355 . S
C1027 C1029 1.419 . S
C1028 C1026 1.415 . S
C1028 C1033 1.425 . S
C1028 C1035 1.409 . S
C1029 H1021 0.930 . S
C1029 C1027 1.419 . S
C1029 C1030 1.362 . S
C1030 H1022 0.930 . S
C1030 C1029 1.362 . S
C1030 C1033 1.409 . S
C1031 H1023 0.930 . S
C1031 C1032 1.355 . S
C1031 C1033 1.415 . S
C1032 C1031 1.355 . S
C1032 C1034 1.419 . S
C1033 C1028 1.425 . S
C1033 C1030 1.409 . S
C1033 C1031 1.415 . S
C1034 H1024 0.930 . S
C1034 C1032 1.419 . S
C1034 C1035 1.362 . S
C1035 H1025 0.930 . S
C1035 C1028 1.409 . S
C1035 C1034 1.362 . S
H1036 C1042 0.930 . S
H1037 C1045 0.930 1_556 S
H1038 C1046 0.930 . S
H1039 C1047 0.930 1_556 S
H1040 C1050 0.930 . S
H1041 C1051 0.930 . S
C1042 H1036 0.930 . S
C1042 C1043 1.355 . S
C1042 C1044 1.415 . S
C1043 C1042 1.355 . S
C1043 C1045 1.419 . S
C1044 C1042 1.415 . S
C1044 C1049 1.425 . S
C1044 C1051 1.409 . S
C1045 H1037 0.930 1_554 S
C1045 C1043 1.419 . S
C1045 C1046 1.362 1_554 S
C1046 H1038 0.930 . S
C1046 C1045 1.362 1_556 S
C1046 C1049 1.409 1_556 S
C1047 H1039 0.930 1_554 S
C1047 C1048 1.355 . S
C1047 C1049 1.415 . S
C1048 C1047 1.355 . S
C1048 C1050 1.419 . S
C1049 C1044 1.425 . S
C1049 C1046 1.409 1_554 S
C1049 C1047 1.415 . S
C1050 H1040 0.930 . S
C1050 C1048 1.419 . S
C1050 C1051 1.362 . S
C1051 H1041 0.930 . S
C1051 C1044 1.409 . S
C1051 C1050 1.362 . S
H1052 C1058 0.930 . S
H1053 C1061 0.930 . S
H1054 C1062 0.930 1_556 S
H1055 C1063 0.911 1_556 S
H1056 C1066 0.930 . S
H1057 C1067 0.930 1_545 S
C1058 H1052 0.930 . S
C1058 C1059 1.355 . S
C1058 C1060 1.415 1_545 S
C1059 C1058 1.355 . S
C1059 C1061 1.419 1_545 S
C1060 C1058 1.415 1_565 S
C1060 C1065 1.425 . S
C1060 C1067 1.409 . S
C1061 H1053 0.930 . S
C1061 C1059 1.419 1_565 S
C1061 C1062 1.362 . S
C1062 H1054 0.930 1_554 S
C1062 C1061 1.362 . S
C1062 C1065 1.409 . S
C1063 H1055 0.911 1_554 S
C1063 C1064 1.355 . S
C1063 C1065 1.415 . S
C1064 C1063 1.355 . S
C1064 C1066 1.419 . S
C1065 C1060 1.425 . S
C1065 C1062 1.409 . S
C1065 C1063 1.415 . S
C1066 H1056 0.930 . S
C1066 C1064 1.419 . S
C1066 C1067 1.362 . S
C1067 H1057 0.930 1_565 S
C1067 C1060 1.409 . S
C1067 C1066 1.362 . S
C312 C154 1.424 . S
C307 C50 1.439 . S
C328 C167 1.567 . S
C323 C61 1.570 1_455 S
C339 C67 1.470 . S
C344 C180 1.440 . S
C360 C193 1.501 . S
C355 C41 1.509 . S
C376 C201 1.471 . S
C371 C95 1.488 . S
C392 C214 1.442 . S
C387 C113 1.437 . S
C403 C106 1.504 . S
C408 C227 1.469 . S
C424 C240 1.475 . S
C419 C86 1.509 . S
C435 C104 1.447 . S
C440 C258 1.444 . S
C456 C269 1.511 . S
C451 C88 1.530 . S
C467 C94 1.466 . S
C472 C253 1.424 . S
C488 C261 1.443 . S
C483 C112 1.472 . S
C499 C70 1.497 . S
C504 C284 1.488 . S
C515 C40 1.504 . S
C520 C274 1.457 . S
C531 C49 1.502 . S
C536 C279 1.456 . S
C547 C59 1.557 . S
C552 C282 1.551 . S
C563 C34 1.439 . S
C568 C191 1.414 . S
C579 C133 1.437 . S
C584 C183 1.394 . S
C600 C152 1.503 1_556 S
C595 C139 1.550 . S
C616 C157 1.518 . S
C611 C77 1.517 . S
C627 C43 1.518 1_545 S
C632 C204 1.509 . S
C648 C243 1.521 . S
C643 C103 1.525 . S
C664 C196 1.467 . S
C659 C85 1.509 1_545 S
C680 C222 1.409 . S
C675 C115 1.460 . S
C696 C232 1.430 . S
C691 C131 1.439 . S
C707 C142 1.578 . S
C712 C245 1.547 . S
C723 C76 1.471 . S
C728 C206 1.474 . S
C744 C219 1.503 . S
C739 C122 1.509 . S
C755 C32 1.490 . S
C760 C175 1.483 . S
C776 C188 1.433 . S
C771 C5 1.437 . S
C792 C149 1.460 . S
C787 C16 1.506 . S
C808 C162 1.502 . S
C803 C23 1.509 1_455 S
C819 C14 1.446 . S
C824 C271 1.452 . S
C835 C25 1.529 1_556 S
C840 C256 1.486 1_655 S
C851 C31 1.470 . S
C856 C266 1.437 . S
C867 C4 1.471 . S
C872 C248 1.427 . S
C888 C297 1.479 . S
C883 C79 1.493 . S
C904 C287 1.483 . S
C899 C121 1.500 1_554 S
C920 C292 1.499 . S
C915 C130 1.510 . S
C931 C140 1.555 1_554 S
C936 C295 1.531 . S
C947 C97 1.447 . S
C952 C217 1.396 . S
C968 C209 1.426 . S
C963 C52 1.429 . S
C984 C230 1.550 . S
C979 C58 1.555 . S
C1000 C235 1.498 . S
C995 C68 1.518 . S
C1011 C124 1.513 . S
C1016 C178 1.463 . S
C1032 C165 1.501 . S
C1027 C13 1.528 . S
C1043 C22 1.512 . S
C1048 C170 1.509 . S
C1064 C144 1.462 . S
C1059 C7 1.468 . S
