# Generated by pormake.
# Topology anh, (6,3)-cn, num edge types: 1
# Building blocks:
#     Node 0, Type 0, BuildingBlock: MIFKUJ_clean_sbu_0, # of connection points: 6
#     Node 1, Type 0, BuildingBlock: MIFKUJ_clean_sbu_0, # of connection points: 6
#     Node 2, Type 0, BuildingBlock: MIFKUJ_clean_sbu_0, # of connection points: 6
#     Node 3, Type 1, BuildingBlock: KAKCAD_clean_linker_0, # of connection points: 3
#     Node 4, Type 1, BuildingBlock: KAKCAD_clean_linker_0, # of connection points: 3
#     Node 5, Type 1, BuildingBlock: KAKCAD_clean_linker_0, # of connection points: 3
#     Node 6, Type 1, BuildingBlock: KAKCAD_clean_linker_0, # of connection points: 3
#     Node 7, Type 1, BuildingBlock: KAKCAD_clean_linker_0, # of connection points: 3
#     Node 8, Type 1, BuildingBlock: KAKCAD_clean_linker_0, # of connection points: 3
#     Edge 9, Type (0, 1), BuildingBlock: AJUNOK_clean_linker_0, # of connection points: 2
#     Edge 10, Type (0, 1), BuildingBlock: AJUNOK_clean_linker_0, # of connection points: 2
#     Edge 11, Type (0, 1), BuildingBlock: AJUNOK_clean_linker_0, # of connection points: 2
#     Edge 12, Type (0, 1), BuildingBlock: AJUNOK_clean_linker_0, # of connection points: 2
#     Edge 13, Type (0, 1), BuildingBlock: AJUNOK_clean_linker_0, # of connection points: 2
#     Edge 14, Type (0, 1), BuildingBlock: AJUNOK_clean_linker_0, # of connection points: 2
#     Edge 15, Type (0, 1), BuildingBlock: AJUNOK_clean_linker_0, # of connection points: 2
#     Edge 16, Type (0, 1), BuildingBlock: AJUNOK_clean_linker_0, # of connection points: 2
#     Edge 17, Type (0, 1), BuildingBlock: AJUNOK_clean_linker_0, # of connection points: 2
#     Edge 18, Type (0, 1), BuildingBlock: AJUNOK_clean_linker_0, # of connection points: 2
#     Edge 19, Type (0, 1), BuildingBlock: AJUNOK_clean_linker_0, # of connection points: 2
#     Edge 20, Type (0, 1), BuildingBlock: AJUNOK_clean_linker_0, # of connection points: 2
#     Edge 21, Type (0, 1), BuildingBlock: AJUNOK_clean_linker_0, # of connection points: 2
#     Edge 22, Type (0, 1), BuildingBlock: AJUNOK_clean_linker_0, # of connection points: 2
#     Edge 23, Type (0, 1), BuildingBlock: AJUNOK_clean_linker_0, # of connection points: 2
#     Edge 24, Type (0, 1), BuildingBlock: AJUNOK_clean_linker_0, # of connection points: 2
#     Edge 25, Type (0, 1), BuildingBlock: AJUNOK_clean_linker_0, # of connection points: 2
#     Edge 26, Type (0, 1), BuildingBlock: AJUNOK_clean_linker_0, # of connection points: 2
# Relax obj value: 0.134
# Max RMSD: 0.185
# Mean RMSD: 0.149
data_MOF--net-anh--node1-MIFKUJ_clean_sbu_0--node2-KAKCAD_clean_linker_0--edge1-AJUNOK_clean_linker_0
_symmetry_space_group_name_H-M    P1
_symmetry_Int_Tables_number       1
_symmetry_cell_setting            triclinic
loop_
_symmetry_equiv_pos_as_xyz
'x, y, z'
_cell_length_a     29.831374
_cell_length_b     29.924212
_cell_length_c     50.169022
_cell_angle_alpha  93.836836
_cell_angle_beta   90.811069
_cell_angle_gamma 120.01563
loop_
_atom_site_label
_atom_site_type_symbol
_atom_site_fract_x
_atom_site_fract_y
_atom_site_fract_z
_atom_type_partial_charge
Zn0 Zn 0.0553 0.58196 0.1625 0.0
Zn1 Zn 0.91164 0.47641 0.14913 0.0
C2 C 0.14037 0.57082 0.18122 0.0
O3 O 0.14505 0.60741 0.19899 0.0
C4 C 0.85799 0.53601 0.14946 0.0
O5 O 0.88169 0.55223 0.12728 0.0
O6 O 0.10348 0.65833 0.16985 0.0
O7 O 0.02582 0.57061 0.12512 0.0
O8 O 0.94505 0.50662 0.11505 0.0
C9 C 0.13705 0.68022 0.1527 0.0
O10 O 0.13541 0.65275 0.13077 0.0
O11 O 0.10226 0.55089 0.16396 0.0
C12 C 0.86376 0.36428 0.14256 0.0
O13 O 0.91068 0.37331 0.14868 0.0
O14 O 0.85696 0.4024 0.13981 0.0
O15 O 0.95549 0.47358 0.17933 0.0
O16 O 0.00404 0.55674 0.19082 0.0
O17 O 0.86818 0.50719 0.16282 0.0
C18 C 0.98776 0.54384 0.10837 0.0
C19 C 0.98746 0.51026 0.19583 0.0
Zn20 Zn 0.57108 0.07889 0.49303 0.0
Zn21 Zn 0.50221 0.91539 0.49614 0.0
C22 C 0.68598 0.13007 0.49544 0.0
O23 O 0.6829 0.09684 0.51218 0.0
C24 C 0.39367 0.86071 0.47804 0.0
O25 O 0.41186 0.88942 0.45786 0.0
O26 O 0.53559 0.11824 0.48457 0.0
O27 O 0.54429 0.01005 0.47458 0.0
O28 O 0.51829 0.93276 0.45744 0.0
C29 C 0.49001 0.11046 0.48683 0.0
O30 O 0.45416 0.0668 0.49541 0.0
O31 O 0.64486 0.12659 0.48552 0.0
C32 C 0.51513 0.83 0.48882 0.0
O33 O 0.48524 0.82428 0.46785 0.0
O34 O 0.5314 0.87029 0.50494 0.0
O35 O 0.5301 0.97975 0.52367 0.0
O36 O 0.56548 0.06488 0.53151 0.0
O37 O 0.42464 0.86817 0.49772 0.0
C38 C 0.53652 0.98011 0.45399 0.0
C39 C 0.54757 0.02017 0.54011 0.0
Zn40 Zn 0.56721 0.49006 0.84625 0.0
Zn41 Zn 0.4806 0.55634 0.84052 0.0
C42 C 0.533 0.37944 0.84326 0.0
O43 O 0.48656 0.37344 0.83947 0.0
C44 C 0.53312 0.64977 0.81698 0.0
O45 O 0.50485 0.61672 0.79676 0.0
O46 O 0.64185 0.54677 0.84682 0.0
O47 O 0.53304 0.48449 0.81034 0.0
O48 O 0.48027 0.51636 0.80667 0.0
C49 C 0.66667 0.54071 0.82784 0.0
O50 O 0.64148 0.50115 0.8099 0.0
O51 O 0.57177 0.42502 0.84692 0.0
C52 C 0.41296 0.5958 0.85006 0.0
O53 O 0.45415 0.63065 0.86465 0.0
O54 O 0.41305 0.55676 0.83844 0.0
O55 O 0.48376 0.53057 0.87606 0.0
O56 O 0.53289 0.49465 0.8799 0.0
O57 O 0.53435 0.63213 0.83918 0.0
C58 C 0.50213 0.49262 0.79661 0.0
C59 C 0.50262 0.50904 0.88976 0.0
C60 C 0.57616 0.07327 0.33245 0.0
C61 C 0.55869 0.02553 0.34334 0.0
C62 C 0.56973 0.07502 0.3049 0.0
C63 C 0.54591 0.02907 0.2878 0.0
C64 C 0.53041 0.98173 0.29867 0.0
C65 C 0.53647 0.97996 0.32606 0.0
C66 C 0.53566 0.02953 0.2588 0.0
C67 C 0.57283 0.06701 0.24357 0.0
C68 C 0.56371 0.06504 0.21584 0.0
C69 C 0.51696 0.02524 0.20328 0.0
C70 C 0.47901 0.98801 0.21837 0.0
C71 C 0.48853 0.99099 0.24609 0.0
C72 C 0.42939 0.94542 0.20561 0.0
C73 C 0.40129 0.95475 0.18616 0.0
C74 C 0.40858 0.8952 0.21392 0.0
C75 C 0.36 0.85572 0.20387 0.0
C76 C 0.33131 0.86532 0.18506 0.0
C77 C 0.60354 0.10463 0.20015 0.0
C78 C 0.62347 0.1573 0.20802 0.0
C79 C 0.62326 0.09025 0.17798 0.0
C80 C 0.66357 0.12819 0.16441 0.0
C81 C 0.68382 0.18084 0.17257 0.0
C82 C 0.66298 0.19508 0.19422 0.0
C83 C 0.35256 0.9149 0.17592 0.0
H84 H 0.59431 0.10913 0.34523 0.0
H85 H 0.58213 0.11211 0.29711 0.0
H86 H 0.513 0.94573 0.28599 0.0
H87 H 0.52239 0.94254 0.33381 0.0
H88 H 0.60958 0.09682 0.25309 0.0
H89 H 0.45876 0.96328 0.25796 0.0
H90 H 0.51027 0.02335 0.18183 0.0
H91 H 0.41617 0.99314 0.17952 0.0
H92 H 0.42973 0.88644 0.22841 0.0
H93 H 0.34468 0.81752 0.21087 0.0
H94 H 0.60863 0.1692 0.22498 0.0
H95 H 0.60852 0.04976 0.17168 0.0
H96 H 0.33091 0.92312 0.16146 0.0
H97 H 0.67831 0.23553 0.20091 0.0
H98 H 0.67917 0.11653 0.14772 0.0
C99 C 0.45883 0.48454 0.66705 0.0
C100 C 0.4847 0.46363 0.68057 0.0
C101 C 0.45854 0.48435 0.63918 0.0
C102 C 0.48438 0.46349 0.62425 0.0
C103 C 0.50892 0.4412 0.63781 0.0
C104 C 0.50864 0.44084 0.66561 0.0
C105 C 0.48687 0.46599 0.59474 0.0
C106 C 0.49295 0.50991 0.58301 0.0
C107 C 0.49689 0.51316 0.55524 0.0
C108 C 0.49474 0.47195 0.53902 0.0
C109 C 0.4889 0.42806 0.55051 0.0
C110 C 0.48479 0.42518 0.57821 0.0
C111 C 0.48855 0.38528 0.534 0.0
C112 C 0.44806 0.35456 0.51477 0.0
C113 C 0.52698 0.37258 0.53907 0.0
C114 C 0.52446 0.32912 0.52556 0.0
C115 C 0.48306 0.2972 0.50703 0.0
C116 C 0.50359 0.56001 0.54346 0.0
C117 C 0.4712 0.57994 0.55051 0.0
C118 C 0.54296 0.58582 0.52575 0.0
C119 C 0.5501 0.6312 0.51552 0.0
C120 C 0.51761 0.65081 0.5227 0.0
C121 C 0.47802 0.62484 0.54009 0.0
C122 C 0.44497 0.31027 0.50155 0.0
H123 H 0.44 0.50233 0.67807 0.0
H124 H 0.43836 0.5009 0.62937 0.0
H125 H 0.5296 0.42515 0.62707 0.0
H126 H 0.52792 0.42341 0.67544 0.0
H127 H 0.49624 0.54246 0.59554 0.0
H128 H 0.47942 0.39063 0.58678 0.0
H129 H 0.49786 0.47409 0.51758 0.0
H130 H 0.41787 0.36368 0.51079 0.0
H131 H 0.55837 0.39576 0.55392 0.0
H132 H 0.55386 0.31929 0.53033 0.0
H133 H 0.44036 0.56055 0.56395 0.0
H134 H 0.56869 0.57141 0.52021 0.0
H135 H 0.41261 0.28587 0.48743 0.0
H136 H 0.45247 0.63948 0.54567 0.0
H137 H 0.58076 0.6509 0.50204 0.0
C138 C 0.07142 0.62077 0.9895 0.0
C139 C 0.02054 0.59 -0.00262 0.0
C140 C 0.08081 0.63115 0.96282 0.0
C141 C 0.03959 0.61024 0.94331 0.0
C142 C 0.98875 0.57871 0.95116 0.0
C143 C 0.97933 0.56884 0.97792 0.0
C144 C 0.04959 0.62055 0.91481 0.0
C145 C 0.09264 0.62172 0.90328 0.0
C146 C 0.10128 0.62943 0.87609 0.0
C147 C 0.06541 0.63457 0.85999 0.0
C148 C 0.02283 0.63474 0.87152 0.0
C149 C 0.0155 0.62815 0.89885 0.0
C150 C 0.98303 0.63812 0.85544 0.0
C151 C 0.97006 0.67607 0.86306 0.0
C152 C 0.95075 0.59724 0.83655 0.0
C153 C 0.90362 0.59165 0.82735 0.0
C154 C 0.88845 0.62729 0.83669 0.0
C155 C 0.14818 0.63181 0.86522 0.0
C156 C 0.19644 0.66405 0.87893 0.0
C157 C 0.14464 0.59827 0.84328 0.0
C158 C 0.18829 0.59506 0.83618 0.0
C159 C 0.23609 0.62587 0.85069 0.0
C160 C 0.23985 0.66105 0.8718 0.0
C161 C 0.92328 0.67086 0.85364 0.0
H162 H 0.10411 0.63654 0.00395 0.0
H163 H 0.12039 0.65586 0.95754 0.0
H164 H 0.95617 0.5611 0.93659 0.0
H165 H 0.93974 0.54488 0.98341 0.0
H166 H 0.11901 0.61523 0.91529 0.0
H167 H 0.98237 0.62802 0.90755 0.0
H168 H 0.07112 0.6395 0.83886 0.0
H169 H 0.99446 0.70781 0.87774 0.0
H170 H 0.95969 0.56713 0.83077 0.0
H171 H 0.8773 0.55709 0.81474 0.0
H172 H 0.20011 0.69026 0.89591 0.0
H173 H 0.10769 0.57276 0.83256 0.0
H174 H 0.91282 0.69911 0.86098 0.0
H175 H 0.2758 0.68451 0.88373 0.0
H176 H 0.18441 0.56755 0.81985 0.0
C177 C 0.98643 0.44762 0.31755 0.0
C178 C 0.03052 0.47403 0.30282 0.0
C179 C 0.99142 0.44502 0.34497 0.0
C180 C 0.0407 0.46867 0.35834 0.0
C181 C 0.08495 0.49428 0.34346 0.0
C182 C 0.07988 0.49712 0.31595 0.0
C183 C 0.04506 0.4691 0.38791 0.0
C184 C 0.01019 0.42573 0.40076 0.0
C185 C 0.00737 0.42812 0.42874 0.0
C186 C 0.04365 0.47361 0.44418 0.0
C187 C 0.08027 0.5166 0.43153 0.0
C188 C 0.0804 0.51432 0.40351 0.0
C189 C 0.11712 0.5657 0.4469 0.0
C190 C 0.11094 0.609 0.44563 0.0
C191 C 0.16273 0.57179 0.45895 0.0
C192 C 0.20326 0.62124 0.4679 0.0
C193 C 0.19861 0.66519 0.46489 0.0
C194 C 0.96312 0.38478 0.44095 0.0
C195 C 0.91386 0.35973 0.4275 0.0
C196 C 0.96885 0.36826 0.46574 0.0
C197 C 0.92618 0.3272 0.4766 0.0
C198 C 0.87725 0.30201 0.46279 0.0
C199 C 0.87181 0.31869 0.4381 0.0
C200 C 0.15116 0.65831 0.45481 0.0
H201 H 0.9479 0.43072 0.30807 0.0
H202 H 0.95645 0.42614 0.35585 0.0
H203 H 0.12344 0.51258 0.35313 0.0
H204 H 0.11445 0.51786 0.30497 0.0
H205 H 0.98377 0.39026 0.38876 0.0
H206 H 0.10709 0.54857 0.39394 0.0
H207 H 0.042 0.4766 0.46575 0.0
H208 H 0.07596 0.60495 0.43631 0.0
H209 H 0.1683 0.53879 0.45982 0.0
H210 H 0.23939 0.62539 0.47558 0.0
H211 H 0.90739 0.37215 0.40876 0.0
H212 H 0.00621 0.38675 0.47663 0.0
H213 H 0.14606 0.69134 0.45284 0.0
H214 H 0.83472 0.3 0.4269 0.0
H215 H 0.9313 0.31574 0.49591 0.0
C216 C 0.51998 0.97363 0.66913 0.0
C217 C 0.55558 0.0162 0.65588 0.0
C218 C 0.52161 0.97608 0.69707 0.0
C219 C 0.55861 0.0213 0.71232 0.0
C220 C 0.59427 0.06382 0.69908 0.0
C221 C 0.59284 0.06125 0.67115 0.0
C222 C 0.55991 0.02402 0.74198 0.0
C223 C 0.55544 0.98251 0.75531 0.0
C224 C 0.55585 0.98398 0.78333 0.0
C225 C 0.56078 0.02785 0.79828 0.0
C226 C 0.56505 0.0699 0.78513 0.0
C227 C 0.56489 0.06764 0.75701 0.0
C228 C 0.5672 0.11554 0.80012 0.0
C229 C 0.5309 0.10914 0.81925 0.0
C230 C 0.60215 0.16574 0.79324 0.0
C231 C 0.5993 0.20832 0.80422 0.0
C232 C 0.56151 0.20176 0.8224 0.0
C233 C 0.5512 0.93881 0.79612 0.0
C234 C 0.51036 0.88914 0.78743 0.0
C235 C 0.59125 0.9438 0.8134 0.0
C236 C 0.59243 0.89957 0.82008 0.0
C237 C 0.55361 0.85019 0.80948 0.0
C238 C 0.51151 0.84528 0.79408 0.0
C239 C 0.52788 0.15185 0.83017 0.0
H240 H 0.49005 0.93889 0.65793 0.0
H241 H 0.49318 0.94295 0.70676 0.0
H242 H 0.62357 0.09893 0.71031 0.0
H243 H 0.62095 0.09457 0.66146 0.0
H244 H 0.55254 0.94906 0.74382 0.0
H245 H 0.56677 0.0992 0.7467 0.0
H246 H 0.56086 0.02902 0.81992 0.0
H247 H 0.50318 0.07086 0.82475 0.0
H248 H 0.63069 0.17188 0.77865 0.0
H249 H 0.62517 0.24608 0.79747 0.0
H250 H 0.47893 0.88438 0.77422 0.0
H251 H 0.62328 0.98178 0.82019 0.0
H252 H 0.49838 0.14572 0.84415 0.0
H253 H 0.48072 0.80744 0.78609 0.0
H254 H 0.62509 0.90407 0.83211 0.0
C255 C 0.47527 0.46224 0.0185 0.0
C256 C 0.47033 0.49826 0.00397 0.0
C257 C 0.47476 0.46529 0.0464 0.0
C258 C 0.46905 0.5043 0.06035 0.0
C259 C 0.46285 0.53956 0.04583 0.0
C260 C 0.46384 0.5368 0.01794 0.0
C261 C 0.47244 0.51001 0.09002 0.0
C262 C 0.51251 0.50862 0.10415 0.0
C263 C 0.51836 0.51706 0.13216 0.0
C264 C 0.48261 0.52575 0.14632 0.0
C265 C 0.44162 0.52628 0.13231 0.0
C266 C 0.43723 0.51899 0.10425 0.0
C267 C 0.40271 0.53453 0.14628 0.0
C268 C 0.36362 0.49475 0.15971 0.0
C269 C 0.40001 0.57926 0.14275 0.0
C270 C 0.35812 0.58358 0.15178 0.0
C271 C 0.31759 0.54279 0.16403 0.0
C272 C 0.56418 0.51949 0.14559 0.0
C273 C 0.57261 0.47746 0.14148 0.0
C274 C 0.60404 0.5666 0.15799 0.0
C275 C 0.65283 0.57263 0.16431 0.0
C276 C 0.66225 0.53149 0.15851 0.0
C277 C 0.62103 0.48327 0.14806 0.0
C278 C 0.32118 0.49873 0.16841 0.0
H279 H 0.48004 0.43195 0.00827 0.0
H280 H 0.47918 0.43734 0.0571 0.0
H281 H 0.45919 0.57051 0.0561 0.0
H282 H 0.46131 0.56596 0.00742 0.0
H283 H 0.54077 0.50316 0.09322 0.0
H284 H 0.4058 0.51968 0.0935 0.0
H285 H 0.48681 0.53235 0.16795 0.0
H286 H 0.36467 0.45962 0.16229 0.0
H287 H 0.42946 0.61008 0.13214 0.0
H288 H 0.3562 0.61786 0.14808 0.0
H289 H 0.54255 0.4409 0.13174 0.0
H290 H 0.59859 0.59972 0.16105 0.0
H291 H 0.29063 0.46696 0.17801 0.0
H292 H 0.62718 0.45096 0.1433 0.0
H293 H 0.68382 0.61005 0.17262 0.0
C294 C 0.23284 0.59529 0.19059 0.0
C295 C 0.18327 0.55926 0.17892 0.0
C296 C 0.27573 0.58887 0.18636 0.0
C297 C 0.27067 0.54569 0.17071 0.0
H298 H 0.23917 0.62991 0.20229 0.0
H299 H 0.31341 0.61843 0.19501 0.0
S300 S 0.14919 0.4384 0.13702 0.0
N301 N 0.13143 0.47756 0.15193 0.0
N302 N 0.21205 0.46529 0.14429 0.0
C303 C 0.2211 0.5083 0.15979 0.0
C304 C 0.17745 0.51514 0.1638 0.0
C305 C 0.73783 0.21823 0.48007 0.0
C306 C 0.73651 0.17419 0.48923 0.0
C307 C 0.78394 0.26002 0.47275 0.0
C308 C 0.83077 0.25945 0.4739 0.0
H309 H 0.70279 0.22054 0.47839 0.0
H310 H 0.7827 0.29284 0.46569 0.0
S311 S 0.84877 0.154 0.49708 0.0
N312 N 0.78643 0.13317 0.50003 0.0
N313 N 0.87339 0.21158 0.48545 0.0
C314 C 0.83051 0.21635 0.48371 0.0
C315 C 0.78332 0.17373 0.49151 0.0
C316 C 0.55373 0.73649 0.83878 0.0
C317 C 0.55054 0.7054 0.81559 0.0
C318 C 0.55759 0.78499 0.83698 0.0
C319 C 0.55853 0.80381 0.81196 0.0
H320 H 0.54988 0.72196 0.85831 0.0
H321 H 0.55688 0.80647 0.85507 0.0
S322 S 0.5612 0.74234 0.74583 0.0
N323 N 0.55589 0.7006 0.76725 0.0
N324 N 0.56319 0.79145 0.76398 0.0
C325 C 0.55968 0.77515 0.78892 0.0
C326 C 0.55577 0.72604 0.79071 0.0
C327 C 0.7732 0.50604 0.17093 0.0
C328 C 0.81248 0.54192 0.15567 0.0
C329 C 0.72557 0.50457 0.17297 0.0
C330 C 0.71567 0.5395 0.16026 0.0
H331 H 0.77801 0.47691 0.18018 0.0
H332 H 0.69555 0.47468 0.18379 0.0
S333 S 0.80728 0.64437 0.12024 0.0
N334 N 0.8395 0.61582 0.1294 0.0
N335 N 0.75024 0.61315 0.13337 0.0
C336 C 0.75569 0.57757 0.14635 0.0
C337 C 0.80398 0.57874 0.14402 0.0
C338 C 0.32398 0.7798 0.49604 0.0
C339 C 0.34054 0.81456 0.47588 0.0
C340 C 0.27719 0.73234 0.49282 0.0
C341 C 0.2449 0.71791 0.46942 0.0
H342 H 0.34811 0.7884 0.51413 0.0
H343 H 0.2667 0.70626 0.50853 0.0
S344 S 0.26916 0.79512 0.41088 0.0
N345 N 0.31939 0.83155 0.43199 0.0
N346 N 0.23223 0.74226 0.42589 0.0
C347 C 0.26003 0.7529 0.44949 0.0
C348 C 0.30759 0.80121 0.45274 0.0
C349 C 0.49837 0.28425 0.83292 0.0
C350 C 0.54058 0.33383 0.84093 0.0
C351 C 0.50514 0.24132 0.82813 0.0
C352 C 0.55439 0.24619 0.83114 0.0
H353 H 0.4599 0.27866 0.8295 0.0
H354 H 0.47185 0.20445 0.82095 0.0
S355 S 0.67661 0.36567 0.85482 0.0
N356 N 0.63289 0.38406 0.85385 0.0
N357 N 0.64522 0.30323 0.84495 0.0
C358 C 0.5965 0.29486 0.84034 0.0
C359 C 0.5897 0.33865 0.84524 0.0
C360 C 0.4897 0.73677 0.48245 0.0
C361 C 0.52225 0.78641 0.49551 0.0
C362 C 0.49012 0.69319 0.49065 0.0
C363 C 0.52365 0.69785 0.51186 0.0
H364 H 0.46192 0.73095 0.46653 0.0
H365 H 0.46284 0.65536 0.48094 0.0
S366 S 0.6201 0.81878 0.55097 0.0
N367 N 0.59162 0.83772 0.5296 0.0
N368 N 0.59246 0.75533 0.5447 0.0
C369 C 0.55823 0.74718 0.52422 0.0
C370 C 0.55757 0.79165 0.51609 0.0
C371 C 0.75253 0.59587 0.85265 0.0
C372 C 0.72397 0.57141 0.82835 0.0
C373 C 0.80634 0.61672 0.85472 0.0
C374 C 0.83371 0.61435 0.83251 0.0
H375 H 0.73295 0.5962 0.87062 0.0
H376 H 0.8261 0.632 0.87428 0.0
S377 S 0.77827 0.56329 0.76325 0.0
N378 N 0.72781 0.55196 0.78083 0.0
N379 N 0.82918 0.59216 0.78469 0.0
C380 C 0.80616 0.5937 0.80765 0.0
C381 C 0.75128 0.57207 0.80557 0.0
C382 C 0.19513 0.75199 0.18663 0.0
C383 C 0.18279 0.73211 0.15965 0.0
C384 C 0.24249 0.79648 0.19448 0.0
C385 C 0.27894 0.82313 0.17564 0.0
H386 H 0.16926 0.7317 0.20205 0.0
H387 H 0.25137 0.80929 0.21559 0.0
S388 S 0.26333 0.79072 0.10229 0.0
N389 N 0.20921 0.74516 0.11379 0.0
N390 N 0.29835 0.8291 0.12874 0.0
C391 C 0.26596 0.80569 0.14847 0.0
C392 C 0.21784 0.76005 0.14043 0.0
C393 C 0.43901 0.15479 0.49719 0.0
C394 C 0.48182 0.15528 0.48543 0.0
C395 C 0.43736 0.20068 0.5021 0.0
C396 C 0.47844 0.24833 0.49541 0.0
H397 H 0.40833 0.11958 0.50437 0.0
H398 H 0.40567 0.19945 0.51294 0.0
S399 S 0.59394 0.26923 0.45938 0.0
N400 N 0.56209 0.2066 0.46323 0.0
N401 N 0.55911 0.29255 0.47316 0.0
C402 C 0.51891 0.24864 0.48145 0.0
C403 C 0.52048 0.2021 0.4762 0.0
C404 C 0.31724 0.56076 0.84577 0.0
C405 C 0.36799 0.60324 0.84681 0.0
C406 C 0.27433 0.56815 0.84552 0.0
C407 C 0.28088 0.6182 0.84598 0.0
H408 H 0.31072 0.52184 0.84642 0.0
H409 H 0.23598 0.53469 0.84631 0.0
S410 S 0.40563 0.74104 0.84347 0.0
N411 N 0.42228 0.69625 0.84488 0.0
N412 N 0.34172 0.71004 0.8438 0.0
C413 C 0.33136 0.66054 0.84507 0.0
C414 C 0.37492 0.65308 0.84565 0.0
C415 C 0.76776 0.30604 0.14167 0.0
C416 C 0.81772 0.31237 0.14477 0.0
C417 C 0.72398 0.26172 0.14922 0.0
C418 C 0.72832 0.22168 0.1597 0.0
H419 H 0.76252 0.33676 0.13478 0.0
H420 H 0.68671 0.25973 0.14794 0.0
S421 S 0.84846 0.21548 0.16884 0.0
N422 N 0.86786 0.27197 0.15677 0.0
N423 N 0.78504 0.18845 0.17072 0.0
C424 C 0.77711 0.22541 0.16102 0.0
C425 C 0.82196 0.2708 0.15355 0.0
C426 C 0.96889 0.51739 0.05932 0.0
C427 C 0.99405 0.5566 0.08025 0.0
C428 C 0.97721 0.52857 0.03253 0.0
C429 C 0.01057 0.57941 0.02579 0.0
H430 H 0.94377 0.47758 0.06365 0.0
H431 H 0.95832 0.49696 0.01702 0.0
S432 S 0.0802 0.69688 0.07323 0.0
N433 N 0.05026 0.64882 0.09249 0.0
N434 N 0.06499 0.66994 0.0422 0.0
C435 C 0.03428 0.61923 0.04656 0.0
C436 C 0.02621 0.6078 0.07377 0.0
C437 C 0.57003 0.97654 0.40933 0.0
C438 C 0.54939 -0.00124 0.42719 0.0
C439 C 0.57621 0.98824 0.38262 0.0
C440 C 0.56093 0.02178 0.37265 0.0
H441 H 0.58037 0.94893 0.41589 0.0
H442 H 0.59132 0.96938 0.36941 0.0
S443 S 0.50503 0.0902 0.41167 0.0
N444 N 0.51514 0.05689 0.43354 0.0
N445 N 0.52519 0.07793 0.38309 0.0
C446 C 0.54201 0.04577 0.39063 0.0
C447 C 0.5365 0.03437 0.41797 0.0
C448 C 0.44928 0.46251 0.7532 0.0
C449 C 0.49715 0.48094 0.76732 0.0
C450 C 0.44517 0.4558 0.72514 0.0
C451 C 0.48895 0.468 0.71026 0.0
H452 H 0.41489 0.45357 0.76393 0.0
H453 H 0.40755 0.44135 0.71501 0.0
S454 S 0.62407 0.52296 0.73778 0.0
N455 N 0.58955 0.51407 0.76437 0.0
N456 N 0.58217 0.50264 0.71178 0.0
C457 C 0.53709 0.48699 0.7242 0.0
C458 C 0.54111 0.4932 0.7527 0.0
C459 C 0.55172 0.05764 0.58656 0.0
C460 C 0.54746 0.01633 0.56941 0.0
C461 C 0.55402 0.05693 0.61436 0.0
C462 C 0.55245 0.01501 0.62625 0.0
H463 H 0.55319 0.09101 0.57848 0.0
H464 H 0.55677 0.08947 0.62665 0.0
S465 S 0.54363 0.89796 0.59047 0.0
N466 N 0.54257 0.93249 0.56638 0.0
N467 N 0.54776 0.93155 0.61883 0.0
C468 C 0.54813 0.97328 0.60943 0.0
C469 C 0.54545 0.97385 0.58098 0.0
C470 C 0.5237 0.49549 0.93596 0.0
C471 C 0.4912 0.503 0.91845 0.0
C472 C 0.51599 0.49302 0.96343 0.0
C473 C 0.47528 0.49763 0.97452 0.0
H474 H 0.55632 0.49287 0.92857 0.0
H475 H 0.54308 0.48889 0.97618 0.0
S476 S 0.37569 0.51201 0.9371 0.0
N477 N 0.41442 0.51149 0.91405 0.0
N478 N 0.39955 0.50587 0.96562 0.0
C479 C 0.44136 0.50331 0.95717 0.0
C480 C 0.44937 0.50618 0.92919 0.0
C481 C 0.03724 0.54018 0.24013 0.0
C482 C 0.00179 0.49902 0.22196 0.0
C483 C 0.04833 0.53142 0.26583 0.0
C484 C 0.02432 0.4812 0.27437 0.0
H485 H 0.05566 0.57978 0.23479 0.0
H486 H 0.07417 0.56447 0.27949 0.0
S487 S 0.93366 0.35931 0.23376 0.0
N488 N 0.9463 0.40537 0.21375 0.0
N489 N 0.96741 0.38928 0.26212 0.0
C490 C 0.99089 0.43941 0.25608 0.0
C491 C 0.97963 0.4482 0.22986 0.0
loop_
_geom_bond_atom_site_label_1
_geom_bond_atom_site_label_2
_geom_bond_distance
_geom_bond_site_symmetry_2
_ccdc_geom_bond_type
Zn0 O6 1.969 . S
Zn0 O7 1.965 . S
Zn0 O11 2.024 . S
Zn0 O16 1.969 . S
Zn1 O8 1.969 . S
Zn1 O14 1.969 . S
Zn1 O15 1.965 . S
Zn1 O17 2.024 . S
C2 O3 1.229 . S
C2 O11 1.058 . S
O3 C2 1.229 . S
C4 O5 1.229 . S
C4 O17 1.058 . S
O5 C4 1.229 . S
O6 Zn0 1.969 . S
O6 C9 1.267 . S
O7 Zn0 1.965 . S
O7 C18 1.260 1_455 S
O8 Zn1 1.969 . S
O8 C18 1.258 . S
C9 O6 1.267 . S
C9 O10 1.228 . S
O10 C9 1.228 . S
O11 Zn0 2.024 . S
O11 C2 1.058 . S
C12 O13 1.228 . S
C12 O14 1.267 . S
O13 C12 1.228 . S
O14 Zn1 1.969 . S
O14 C12 1.267 . S
O15 Zn1 1.965 . S
O15 C19 1.260 1_655 S
O16 Zn0 1.969 . S
O16 C19 1.258 . S
O17 Zn1 2.024 . S
O17 C4 1.058 . S
C18 O7 1.260 1_655 S
C18 O8 1.258 . S
C19 O15 1.260 1_455 S
C19 O16 1.258 . S
Zn20 O26 1.969 . S
Zn20 O27 1.965 . S
Zn20 O31 2.024 . S
Zn20 O36 1.969 . S
Zn21 O28 1.969 . S
Zn21 O34 1.969 . S
Zn21 O35 1.965 . S
Zn21 O37 2.024 . S
C22 O23 1.229 . S
C22 O31 1.058 . S
O23 C22 1.229 . S
C24 O25 1.229 . S
C24 O37 1.058 . S
O25 C24 1.229 . S
O26 Zn20 1.969 . S
O26 C29 1.267 . S
O27 Zn20 1.965 . S
O27 C38 1.260 . S
O28 Zn21 1.969 . S
O28 C38 1.258 1_565 S
C29 O26 1.267 . S
C29 O30 1.228 . S
O30 C29 1.228 . S
O31 Zn20 2.024 . S
O31 C22 1.058 . S
C32 O33 1.228 . S
C32 O34 1.267 . S
O33 C32 1.228 . S
O34 Zn21 1.969 . S
O34 C32 1.267 . S
O35 Zn21 1.965 . S
O35 C39 1.260 1_565 S
O36 Zn20 1.969 . S
O36 C39 1.258 . S
O37 Zn21 2.024 . S
O37 C24 1.058 . S
C38 O27 1.260 . S
C38 O28 1.258 1_545 S
C39 O35 1.260 1_545 S
C39 O36 1.258 . S
Zn40 O46 1.969 . S
Zn40 O47 1.965 . S
Zn40 O51 2.024 . S
Zn40 O56 1.969 . S
Zn41 O48 1.969 . S
Zn41 O54 1.969 . S
Zn41 O55 1.965 . S
Zn41 O57 2.024 . S
C42 O43 1.229 . S
C42 O51 1.058 . S
O43 C42 1.229 . S
C44 O45 1.229 . S
C44 O57 1.058 . S
O45 C44 1.229 . S
O46 Zn40 1.969 . S
O46 C49 1.267 . S
O47 Zn40 1.965 . S
O47 C58 1.260 . S
O48 Zn41 1.969 . S
O48 C58 1.258 . S
C49 O46 1.267 . S
C49 O50 1.228 . S
O50 C49 1.228 . S
O51 Zn40 2.024 . S
O51 C42 1.058 . S
C52 O53 1.228 . S
C52 O54 1.267 . S
O53 C52 1.228 . S
O54 Zn41 1.969 . S
O54 C52 1.267 . S
O55 Zn41 1.965 . S
O55 C59 1.260 . S
O56 Zn40 1.969 . S
O56 C59 1.258 . S
O57 Zn41 2.024 . S
O57 C44 1.058 . S
C58 O47 1.260 . S
C58 O48 1.258 . S
C59 O55 1.260 . S
C59 O56 1.258 . S
C60 C61 1.386 . S
C60 C62 1.397 . S
C60 H84 0.931 . S
C61 C60 1.386 . S
C61 C65 1.397 1_545 S
C62 C60 1.397 . S
C62 C63 1.384 . S
C62 H85 0.930 . S
C63 C62 1.384 . S
C63 C64 1.377 1_545 S
C63 C66 1.481 . S
C64 C63 1.377 1_565 S
C64 C65 1.389 . S
C64 H86 0.929 . S
C65 C61 1.397 1_565 S
C65 C64 1.389 . S
C65 H87 0.931 . S
C66 C63 1.481 . S
C66 C67 1.387 . S
C66 C71 1.390 1_545 S
C67 C66 1.387 . S
C67 C68 1.401 . S
C67 H88 0.930 . S
C68 C67 1.401 . S
C68 C69 1.376 . S
C68 C77 1.511 . S
C69 C68 1.376 . S
C69 C70 1.392 1_545 S
C69 H90 0.931 . S
C70 C69 1.392 1_565 S
C70 C71 1.361 . S
C70 C72 1.500 . S
C71 C66 1.390 1_565 S
C71 C70 1.361 . S
C71 H89 0.931 . S
C72 C70 1.500 . S
C72 C73 1.371 . S
C72 C74 1.365 . S
C73 C72 1.371 . S
C73 C83 1.386 . S
C73 H91 0.931 . S
C74 C72 1.365 . S
C74 C75 1.409 . S
C74 H92 0.929 . S
C75 C74 1.409 . S
C75 C76 1.380 . S
C75 H93 0.930 . S
C76 C75 1.380 . S
C76 C83 1.357 . S
C77 C68 1.511 . S
C77 C78 1.341 . S
C77 C79 1.371 . S
C78 C77 1.341 . S
C78 C82 1.394 . S
C78 H94 0.930 . S
C79 C77 1.371 . S
C79 C80 1.392 . S
C79 H95 0.931 . S
C80 C79 1.392 . S
C80 C81 1.331 . S
C80 H98 0.932 . S
C81 C80 1.331 . S
C81 C82 1.336 . S
C82 C78 1.394 . S
C82 C81 1.336 . S
C82 H97 0.929 . S
C83 C73 1.386 . S
C83 C76 1.357 . S
C83 H96 0.928 . S
H84 C60 0.931 . S
H85 C62 0.930 . S
H86 C64 0.929 . S
H87 C65 0.931 . S
H88 C67 0.930 . S
H89 C71 0.931 . S
H90 C69 0.931 . S
H91 C73 0.931 . S
H92 C74 0.929 . S
H93 C75 0.930 . S
H94 C78 0.930 . S
H95 C79 0.931 . S
H96 C83 0.928 . S
H97 C82 0.929 . S
H98 C80 0.932 . S
C99 C100 1.386 . S
C99 C101 1.397 . S
C99 H123 0.931 . S
C100 C99 1.386 . S
C100 C104 1.397 . S
C101 C99 1.397 . S
C101 C102 1.384 . S
C101 H124 0.930 . S
C102 C101 1.384 . S
C102 C103 1.377 . S
C102 C105 1.481 . S
C103 C102 1.377 . S
C103 C104 1.389 . S
C103 H125 0.929 . S
C104 C100 1.397 . S
C104 C103 1.389 . S
C104 H126 0.931 . S
C105 C102 1.481 . S
C105 C106 1.387 . S
C105 C110 1.390 . S
C106 C105 1.387 . S
C106 C107 1.401 . S
C106 H127 0.930 . S
C107 C106 1.401 . S
C107 C108 1.376 . S
C107 C116 1.511 . S
C108 C107 1.376 . S
C108 C109 1.392 . S
C108 H129 0.931 . S
C109 C108 1.392 . S
C109 C110 1.361 . S
C109 C111 1.500 . S
C110 C105 1.390 . S
C110 C109 1.361 . S
C110 H128 0.931 . S
C111 C109 1.500 . S
C111 C112 1.371 . S
C111 C113 1.365 . S
C112 C111 1.371 . S
C112 C122 1.386 . S
C112 H130 0.931 . S
C113 C111 1.365 . S
C113 C114 1.409 . S
C113 H131 0.929 . S
C114 C113 1.409 . S
C114 C115 1.380 . S
C114 H132 0.930 . S
C115 C114 1.380 . S
C115 C122 1.357 . S
C116 C107 1.511 . S
C116 C117 1.341 . S
C116 C118 1.371 . S
C117 C116 1.341 . S
C117 C121 1.394 . S
C117 H133 0.930 . S
C118 C116 1.371 . S
C118 C119 1.392 . S
C118 H134 0.931 . S
C119 C118 1.392 . S
C119 C120 1.331 . S
C119 H137 0.932 . S
C120 C119 1.331 . S
C120 C121 1.336 . S
C121 C117 1.394 . S
C121 C120 1.336 . S
C121 H136 0.929 . S
C122 C112 1.386 . S
C122 C115 1.357 . S
C122 H135 0.928 . S
H123 C99 0.931 . S
H124 C101 0.930 . S
H125 C103 0.929 . S
H126 C104 0.931 . S
H127 C106 0.930 . S
H128 C110 0.931 . S
H129 C108 0.931 . S
H130 C112 0.931 . S
H131 C113 0.929 . S
H132 C114 0.930 . S
H133 C117 0.930 . S
H134 C118 0.931 . S
H135 C122 0.928 . S
H136 C121 0.929 . S
H137 C119 0.932 . S
C138 C139 1.365 1_556 S
C138 C140 1.440 . S
C138 H162 0.909 1_556 S
C139 C138 1.365 1_554 S
C139 C143 1.397 1_454 S
C140 C138 1.440 . S
C140 C141 1.384 . S
C140 H163 0.930 . S
C141 C140 1.384 . S
C141 C142 1.377 1_455 S
C141 C144 1.481 . S
C142 C141 1.377 1_655 S
C142 C143 1.389 . S
C142 H164 0.929 . S
C143 C139 1.397 1_656 S
C143 C142 1.389 . S
C143 H165 0.931 1_556 S
C144 C141 1.481 . S
C144 C145 1.387 . S
C144 C149 1.390 1_455 S
C145 C144 1.387 . S
C145 C146 1.401 . S
C145 H166 0.930 . S
C146 C145 1.401 . S
C146 C147 1.376 . S
C146 C155 1.511 . S
C147 C146 1.376 . S
C147 C148 1.392 1_455 S
C147 H168 0.931 . S
C148 C147 1.392 1_655 S
C148 C149 1.361 . S
C148 C150 1.500 . S
C149 C144 1.390 1_655 S
C149 C148 1.361 . S
C149 H167 0.931 . S
C150 C148 1.500 . S
C150 C151 1.371 . S
C150 C152 1.365 . S
C151 C150 1.371 . S
C151 C161 1.386 . S
C151 H169 0.931 . S
C152 C150 1.365 . S
C152 C153 1.409 . S
C152 H170 0.929 . S
C153 C152 1.409 . S
C153 C154 1.380 . S
C153 H171 0.930 . S
C154 C153 1.380 . S
C154 C161 1.357 . S
C155 C146 1.511 . S
C155 C156 1.341 . S
C155 C157 1.371 . S
C156 C155 1.341 . S
C156 C160 1.394 . S
C156 H172 0.930 . S
C157 C155 1.371 . S
C157 C158 1.392 . S
C157 H173 0.931 . S
C158 C157 1.392 . S
C158 C159 1.331 . S
C158 H176 0.932 . S
C159 C158 1.331 . S
C159 C160 1.336 . S
C160 C156 1.394 . S
C160 C159 1.336 . S
C160 H175 0.929 . S
C161 C151 1.386 . S
C161 C154 1.357 . S
C161 H174 0.928 . S
H162 C138 0.909 1_554 S
H163 C140 0.930 . S
H164 C142 0.929 . S
H165 C143 0.931 1_554 S
H166 C145 0.930 . S
H167 C149 0.931 . S
H168 C147 0.931 . S
H169 C151 0.931 . S
H170 C152 0.929 . S
H171 C153 0.930 . S
H172 C156 0.930 . S
H173 C157 0.931 . S
H174 C161 0.928 . S
H175 C160 0.929 . S
H176 C158 0.932 . S
C177 C178 1.386 1_655 S
C177 C179 1.397 . S
C177 H201 0.931 . S
C178 C177 1.386 1_455 S
C178 C182 1.397 . S
C179 C177 1.397 . S
C179 C180 1.384 1_655 S
C179 H202 0.930 . S
C180 C179 1.384 1_455 S
C180 C181 1.377 . S
C180 C183 1.481 . S
C181 C180 1.377 . S
C181 C182 1.389 . S
C181 H203 0.929 . S
C182 C178 1.397 . S
C182 C181 1.389 . S
C182 H204 0.931 . S
C183 C180 1.481 . S
C183 C184 1.387 1_455 S
C183 C188 1.390 . S
C184 C183 1.387 1_655 S
C184 C185 1.401 . S
C184 H205 0.930 . S
C185 C184 1.401 . S
C185 C186 1.376 1_655 S
C185 C194 1.511 . S
C186 C185 1.376 1_455 S
C186 C187 1.392 . S
C186 H207 0.931 . S
C187 C186 1.392 . S
C187 C188 1.361 . S
C187 C189 1.500 . S
C188 C183 1.390 . S
C188 C187 1.361 . S
C188 H206 0.931 . S
C189 C187 1.500 . S
C189 C190 1.371 . S
C189 C191 1.365 . S
C190 C189 1.371 . S
C190 C200 1.386 . S
C190 H208 0.931 . S
C191 C189 1.365 . S
C191 C192 1.409 . S
C191 H209 0.929 . S
C192 C191 1.409 . S
C192 C193 1.380 . S
C192 H210 0.930 . S
C193 C192 1.380 . S
C193 C200 1.357 . S
C194 C185 1.511 . S
C194 C195 1.341 . S
C194 C196 1.371 . S
C195 C194 1.341 . S
C195 C199 1.394 . S
C195 H211 0.930 . S
C196 C194 1.371 . S
C196 C197 1.392 . S
C196 H212 0.931 . S
C197 C196 1.392 . S
C197 C198 1.331 . S
C197 H215 0.932 . S
C198 C197 1.331 . S
C198 C199 1.336 . S
C199 C195 1.394 . S
C199 C198 1.336 . S
C199 H214 0.929 . S
C200 C190 1.386 . S
C200 C193 1.357 . S
C200 H213 0.928 . S
H201 C177 0.931 . S
H202 C179 0.930 . S
H203 C181 0.929 . S
H204 C182 0.931 . S
H205 C184 0.930 . S
H206 C188 0.931 . S
H207 C186 0.931 . S
H208 C190 0.931 . S
H209 C191 0.929 . S
H210 C192 0.930 . S
H211 C195 0.930 . S
H212 C196 0.931 . S
H213 C200 0.928 . S
H214 C199 0.929 . S
H215 C197 0.932 . S
C216 C217 1.386 1_565 S
C216 C218 1.397 . S
C216 H240 0.931 . S
C217 C216 1.386 1_545 S
C217 C221 1.397 . S
C218 C216 1.397 . S
C218 C219 1.384 1_565 S
C218 H241 0.930 . S
C219 C218 1.384 1_545 S
C219 C220 1.377 . S
C219 C222 1.481 . S
C220 C219 1.377 . S
C220 C221 1.389 . S
C220 H242 0.929 . S
C221 C217 1.397 . S
C221 C220 1.389 . S
C221 H243 0.931 . S
C222 C219 1.481 . S
C222 C223 1.387 1_545 S
C222 C227 1.390 . S
C223 C222 1.387 1_565 S
C223 C224 1.401 . S
C223 H244 0.930 . S
C224 C223 1.401 . S
C224 C225 1.376 1_565 S
C224 C233 1.511 . S
C225 C224 1.376 1_545 S
C225 C226 1.392 . S
C225 H246 0.931 . S
C226 C225 1.392 . S
C226 C227 1.361 . S
C226 C228 1.500 . S
C227 C222 1.390 . S
C227 C226 1.361 . S
C227 H245 0.931 . S
C228 C226 1.500 . S
C228 C229 1.371 . S
C228 C230 1.365 . S
C229 C228 1.371 . S
C229 C239 1.386 . S
C229 H247 0.931 . S
C230 C228 1.365 . S
C230 C231 1.409 . S
C230 H248 0.929 . S
C231 C230 1.409 . S
C231 C232 1.380 . S
C231 H249 0.930 . S
C232 C231 1.380 . S
C232 C239 1.357 . S
C233 C224 1.511 . S
C233 C234 1.341 . S
C233 C235 1.371 . S
C234 C233 1.341 . S
C234 C238 1.394 . S
C234 H250 0.930 . S
C235 C233 1.371 . S
C235 C236 1.392 . S
C235 H251 0.931 . S
C236 C235 1.392 . S
C236 C237 1.331 . S
C236 H254 0.932 . S
C237 C236 1.331 . S
C237 C238 1.336 . S
C238 C234 1.394 . S
C238 C237 1.336 . S
C238 H253 0.929 . S
C239 C229 1.386 . S
C239 C232 1.357 . S
C239 H252 0.928 . S
H240 C216 0.931 . S
H241 C218 0.930 . S
H242 C220 0.929 . S
H243 C221 0.931 . S
H244 C223 0.930 . S
H245 C227 0.931 . S
H246 C225 0.931 . S
H247 C229 0.931 . S
H248 C230 0.929 . S
H249 C231 0.930 . S
H250 C234 0.930 . S
H251 C235 0.931 . S
H252 C239 0.928 . S
H253 C238 0.929 . S
H254 C236 0.932 . S
C255 C256 1.386 1_554 S
C255 C257 1.397 . S
C255 H279 0.931 1_554 S
C256 C255 1.386 1_556 S
C256 C260 1.397 1_556 S
C257 C255 1.397 . S
C257 C258 1.384 . S
C257 H280 0.930 . S
C258 C257 1.384 . S
C258 C259 1.377 . S
C258 C261 1.481 . S
C259 C258 1.377 . S
C259 C260 1.389 . S
C259 H281 0.929 . S
C260 C256 1.397 1_554 S
C260 C259 1.389 . S
C260 H282 0.931 1_554 S
C261 C258 1.481 . S
C261 C262 1.387 . S
C261 C266 1.390 . S
C262 C261 1.387 . S
C262 C263 1.401 . S
C262 H283 0.930 . S
C263 C262 1.401 . S
C263 C264 1.376 . S
C263 C272 1.511 . S
C264 C263 1.376 . S
C264 C265 1.392 . S
C264 H285 0.931 . S
C265 C264 1.392 . S
C265 C266 1.361 . S
C265 C267 1.500 . S
C266 C261 1.390 . S
C266 C265 1.361 . S
C266 H284 0.931 . S
C267 C265 1.500 . S
C267 C268 1.371 . S
C267 C269 1.365 . S
C268 C267 1.371 . S
C268 C278 1.386 . S
C268 H286 0.931 . S
C269 C267 1.365 . S
C269 C270 1.409 . S
C269 H287 0.929 . S
C270 C269 1.409 . S
C270 C271 1.380 . S
C270 H288 0.930 . S
C271 C270 1.380 . S
C271 C278 1.357 . S
C272 C263 1.511 . S
C272 C273 1.341 . S
C272 C274 1.371 . S
C273 C272 1.341 . S
C273 C277 1.394 . S
C273 H289 0.930 . S
C274 C272 1.371 . S
C274 C275 1.392 . S
C274 H290 0.931 . S
C275 C274 1.392 . S
C275 C276 1.331 . S
C275 H293 0.932 . S
C276 C275 1.331 . S
C276 C277 1.336 . S
C277 C273 1.394 . S
C277 C276 1.336 . S
C277 H292 0.929 . S
C278 C268 1.386 . S
C278 C271 1.357 . S
C278 H291 0.928 . S
H279 C255 0.931 1_556 S
H280 C257 0.930 . S
H281 C259 0.929 . S
H282 C260 0.931 1_556 S
H283 C262 0.930 . S
H284 C266 0.931 . S
H285 C264 0.931 . S
H286 C268 0.931 . S
H287 C269 0.929 . S
H288 C270 0.930 . S
H289 C273 0.930 . S
H290 C274 0.931 . S
H291 C278 0.928 . S
H292 C277 0.929 . S
H293 C275 0.932 . S
C294 C295 1.369 . S
C294 C296 1.419 . S
C294 H298 0.930 . S
C295 C294 1.369 . S
C295 C304 1.429 . S
C296 C294 1.419 . S
C296 C297 1.363 . S
C296 H299 0.929 . S
C297 C296 1.363 . S
C297 C303 1.428 . S
H298 C294 0.930 . S
H299 C296 0.929 . S
S300 N301 1.613 . S
S300 N302 1.610 . S
N301 S300 1.613 . S
N301 C304 1.350 . S
N302 S300 1.610 . S
N302 C303 1.351 . S
C303 C297 1.428 . S
C303 N302 1.351 . S
C303 C304 1.434 . S
C304 C295 1.429 . S
C304 N301 1.350 . S
C304 C303 1.434 . S
C305 C306 1.369 . S
C305 C307 1.419 . S
C305 H309 0.930 . S
C306 C305 1.369 . S
C306 C315 1.429 . S
C307 C305 1.419 . S
C307 C308 1.363 . S
C307 H310 0.929 . S
C308 C307 1.363 . S
C308 C314 1.428 . S
H309 C305 0.930 . S
H310 C307 0.929 . S
S311 N312 1.613 . S
S311 N313 1.610 . S
N312 S311 1.613 . S
N312 C315 1.350 . S
N313 S311 1.610 . S
N313 C314 1.351 . S
C314 C308 1.428 . S
C314 N313 1.351 . S
C314 C315 1.434 . S
C315 C306 1.429 . S
C315 N312 1.350 . S
C315 C314 1.434 . S
C316 C317 1.369 . S
C316 C318 1.419 . S
C316 H320 0.930 . S
C317 C316 1.369 . S
C317 C326 1.429 . S
C318 C316 1.419 . S
C318 C319 1.363 . S
C318 H321 0.929 . S
C319 C318 1.363 . S
C319 C325 1.428 . S
H320 C316 0.930 . S
H321 C318 0.929 . S
S322 N323 1.613 . S
S322 N324 1.610 . S
N323 S322 1.613 . S
N323 C326 1.350 . S
N324 S322 1.610 . S
N324 C325 1.351 . S
C325 C319 1.428 . S
C325 N324 1.351 . S
C325 C326 1.434 . S
C326 C317 1.429 . S
C326 N323 1.350 . S
C326 C325 1.434 . S
C327 C328 1.369 . S
C327 C329 1.419 . S
C327 H331 0.930 . S
C328 C327 1.369 . S
C328 C337 1.429 . S
C329 C327 1.419 . S
C329 C330 1.363 . S
C329 H332 0.929 . S
C330 C329 1.363 . S
C330 C336 1.428 . S
H331 C327 0.930 . S
H332 C329 0.929 . S
S333 N334 1.613 . S
S333 N335 1.610 . S
N334 S333 1.613 . S
N334 C337 1.350 . S
N335 S333 1.610 . S
N335 C336 1.351 . S
C336 C330 1.428 . S
C336 N335 1.351 . S
C336 C337 1.434 . S
C337 C328 1.429 . S
C337 N334 1.350 . S
C337 C336 1.434 . S
C338 C339 1.369 . S
C338 C340 1.419 . S
C338 H342 0.930 . S
C339 C338 1.369 . S
C339 C348 1.429 . S
C340 C338 1.419 . S
C340 C341 1.363 . S
C340 H343 0.929 . S
C341 C340 1.363 . S
C341 C347 1.428 . S
H342 C338 0.930 . S
H343 C340 0.929 . S
S344 N345 1.613 . S
S344 N346 1.610 . S
N345 S344 1.613 . S
N345 C348 1.350 . S
N346 S344 1.610 . S
N346 C347 1.351 . S
C347 C341 1.428 . S
C347 N346 1.351 . S
C347 C348 1.434 . S
C348 C339 1.429 . S
C348 N345 1.350 . S
C348 C347 1.434 . S
C349 C350 1.369 . S
C349 C351 1.419 . S
C349 H353 0.930 . S
C350 C349 1.369 . S
C350 C359 1.429 . S
C351 C349 1.419 . S
C351 C352 1.363 . S
C351 H354 0.929 . S
C352 C351 1.363 . S
C352 C358 1.428 . S
H353 C349 0.930 . S
H354 C351 0.929 . S
S355 N356 1.613 . S
S355 N357 1.610 . S
N356 S355 1.613 . S
N356 C359 1.350 . S
N357 S355 1.610 . S
N357 C358 1.351 . S
C358 C352 1.428 . S
C358 N357 1.351 . S
C358 C359 1.434 . S
C359 C350 1.429 . S
C359 N356 1.350 . S
C359 C358 1.434 . S
C360 C361 1.369 . S
C360 C362 1.419 . S
C360 H364 0.930 . S
C361 C360 1.369 . S
C361 C370 1.429 . S
C362 C360 1.419 . S
C362 C363 1.363 . S
C362 H365 0.929 . S
C363 C362 1.363 . S
C363 C369 1.428 . S
H364 C360 0.930 . S
H365 C362 0.929 . S
S366 N367 1.613 . S
S366 N368 1.610 . S
N367 S366 1.613 . S
N367 C370 1.350 . S
N368 S366 1.610 . S
N368 C369 1.351 . S
C369 C363 1.428 . S
C369 N368 1.351 . S
C369 C370 1.434 . S
C370 C361 1.429 . S
C370 N367 1.350 . S
C370 C369 1.434 . S
C371 C372 1.369 . S
C371 C373 1.419 . S
C371 H375 0.930 . S
C372 C371 1.369 . S
C372 C381 1.429 . S
C373 C371 1.419 . S
C373 C374 1.363 . S
C373 H376 0.929 . S
C374 C373 1.363 . S
C374 C380 1.428 . S
H375 C371 0.930 . S
H376 C373 0.929 . S
S377 N378 1.613 . S
S377 N379 1.610 . S
N378 S377 1.613 . S
N378 C381 1.350 . S
N379 S377 1.610 . S
N379 C380 1.351 . S
C380 C374 1.428 . S
C380 N379 1.351 . S
C380 C381 1.434 . S
C381 C372 1.429 . S
C381 N378 1.350 . S
C381 C380 1.434 . S
C382 C383 1.369 . S
C382 C384 1.419 . S
C382 H386 0.930 . S
C383 C382 1.369 . S
C383 C392 1.429 . S
C384 C382 1.419 . S
C384 C385 1.363 . S
C384 H387 0.929 . S
C385 C384 1.363 . S
C385 C391 1.428 . S
H386 C382 0.930 . S
H387 C384 0.929 . S
S388 N389 1.613 . S
S388 N390 1.610 . S
N389 S388 1.613 . S
N389 C392 1.350 . S
N390 S388 1.610 . S
N390 C391 1.351 . S
C391 C385 1.428 . S
C391 N390 1.351 . S
C391 C392 1.434 . S
C392 C383 1.429 . S
C392 N389 1.350 . S
C392 C391 1.434 . S
C393 C394 1.369 . S
C393 C395 1.419 . S
C393 H397 0.930 . S
C394 C393 1.369 . S
C394 C403 1.429 . S
C395 C393 1.419 . S
C395 C396 1.363 . S
C395 H398 0.929 . S
C396 C395 1.363 . S
C396 C402 1.428 . S
H397 C393 0.930 . S
H398 C395 0.929 . S
S399 N400 1.613 . S
S399 N401 1.610 . S
N400 S399 1.613 . S
N400 C403 1.350 . S
N401 S399 1.610 . S
N401 C402 1.351 . S
C402 C396 1.428 . S
C402 N401 1.351 . S
C402 C403 1.434 . S
C403 C394 1.429 . S
C403 N400 1.350 . S
C403 C402 1.434 . S
C404 C405 1.369 . S
C404 C406 1.419 . S
C404 H408 0.930 . S
C405 C404 1.369 . S
C405 C414 1.429 . S
C406 C404 1.419 . S
C406 C407 1.363 . S
C406 H409 0.929 . S
C407 C406 1.363 . S
C407 C413 1.428 . S
H408 C404 0.930 . S
H409 C406 0.929 . S
S410 N411 1.613 . S
S410 N412 1.610 . S
N411 S410 1.613 . S
N411 C414 1.350 . S
N412 S410 1.610 . S
N412 C413 1.351 . S
C413 C407 1.428 . S
C413 N412 1.351 . S
C413 C414 1.434 . S
C414 C405 1.429 . S
C414 N411 1.350 . S
C414 C413 1.434 . S
C415 C416 1.369 . S
C415 C417 1.419 . S
C415 H419 0.930 . S
C416 C415 1.369 . S
C416 C425 1.429 . S
C417 C415 1.419 . S
C417 C418 1.363 . S
C417 H420 0.929 . S
C418 C417 1.363 . S
C418 C424 1.428 . S
H419 C415 0.930 . S
H420 C417 0.929 . S
S421 N422 1.613 . S
S421 N423 1.610 . S
N422 S421 1.613 . S
N422 C425 1.350 . S
N423 S421 1.610 . S
N423 C424 1.351 . S
C424 C418 1.428 . S
C424 N423 1.351 . S
C424 C425 1.434 . S
C425 C416 1.429 . S
C425 N422 1.350 . S
C425 C424 1.434 . S
C426 C427 1.369 1_655 S
C426 C428 1.419 . S
C426 H430 0.930 . S
C427 C426 1.369 1_455 S
C427 C436 1.429 . S
C428 C426 1.419 . S
C428 C429 1.363 1_655 S
C428 H431 0.929 . S
C429 C428 1.363 1_455 S
C429 C435 1.428 . S
H430 C426 0.930 . S
H431 C428 0.929 . S
S432 N433 1.613 . S
S432 N434 1.610 . S
N433 S432 1.613 . S
N433 C436 1.350 . S
N434 S432 1.610 . S
N434 C435 1.351 . S
C435 C429 1.428 . S
C435 N434 1.351 . S
C435 C436 1.434 . S
C436 C427 1.429 . S
C436 N433 1.350 . S
C436 C435 1.434 . S
C437 C438 1.369 . S
C437 C439 1.419 . S
C437 H441 0.930 . S
C438 C437 1.369 . S
C438 C447 1.429 1_545 S
C439 C437 1.419 . S
C439 C440 1.363 . S
C439 H442 0.929 . S
C440 C439 1.363 . S
C440 C446 1.428 1_545 S
H441 C437 0.930 . S
H442 C439 0.929 . S
S443 N444 1.613 . S
S443 N445 1.610 . S
N444 S443 1.613 . S
N444 C447 1.350 . S
N445 S443 1.610 . S
N445 C446 1.351 . S
C446 C440 1.428 1_565 S
C446 N445 1.351 . S
C446 C447 1.434 . S
C447 C438 1.429 1_565 S
C447 N444 1.350 . S
C447 C446 1.434 . S
C448 C449 1.369 . S
C448 C450 1.419 . S
C448 H452 0.930 . S
C449 C448 1.369 . S
C449 C458 1.429 . S
C450 C448 1.419 . S
C450 C451 1.363 . S
C450 H453 0.929 . S
C451 C450 1.363 . S
C451 C457 1.428 . S
H452 C448 0.930 . S
H453 C450 0.929 . S
S454 N455 1.613 . S
S454 N456 1.610 . S
N455 S454 1.613 . S
N455 C458 1.350 . S
N456 S454 1.610 . S
N456 C457 1.351 . S
C457 C451 1.428 . S
C457 N456 1.351 . S
C457 C458 1.434 . S
C458 C449 1.429 . S
C458 N455 1.350 . S
C458 C457 1.434 . S
C459 C460 1.369 . S
C459 C461 1.419 . S
C459 H463 0.930 . S
C460 C459 1.369 . S
C460 C469 1.429 1_545 S
C461 C459 1.419 . S
C461 C462 1.363 . S
C461 H464 0.929 . S
C462 C461 1.363 . S
C462 C468 1.428 1_545 S
H463 C459 0.930 . S
H464 C461 0.929 . S
S465 N466 1.613 . S
S465 N467 1.610 . S
N466 S465 1.613 . S
N466 C469 1.350 . S
N467 S465 1.610 . S
N467 C468 1.351 . S
C468 C462 1.428 1_565 S
C468 N467 1.351 . S
C468 C469 1.434 . S
C469 C460 1.429 1_565 S
C469 N466 1.350 . S
C469 C468 1.434 . S
C470 C471 1.369 . S
C470 C472 1.419 . S
C470 H474 0.930 . S
C471 C470 1.369 . S
C471 C480 1.429 . S
C472 C470 1.419 . S
C472 C473 1.363 . S
C472 H475 0.929 . S
C473 C472 1.363 . S
C473 C479 1.428 . S
H474 C470 0.930 . S
H475 C472 0.929 . S
S476 N477 1.613 . S
S476 N478 1.610 . S
N477 S476 1.613 . S
N477 C480 1.350 . S
N478 S476 1.610 . S
N478 C479 1.351 . S
C479 C473 1.428 . S
C479 N478 1.351 . S
C479 C480 1.434 . S
C480 C471 1.429 . S
C480 N477 1.350 . S
C480 C479 1.434 . S
C481 C482 1.369 . S
C481 C483 1.419 . S
C481 H485 0.930 . S
C482 C481 1.369 . S
C482 C491 1.429 1_655 S
C483 C481 1.419 . S
C483 C484 1.356 1_655 S
C483 H486 0.929 . S
C484 C483 1.356 1_455 S
C484 C490 1.435 . S
H485 C481 0.930 . S
H486 C483 0.929 . S
S487 N488 1.613 . S
S487 N489 1.610 . S
N488 S487 1.613 . S
N488 C491 1.350 . S
N489 S487 1.610 . S
N489 C490 1.351 . S
C490 C484 1.435 . S
C490 N489 1.351 . S
C490 C491 1.434 . S
C491 C482 1.429 1_455 S
C491 N488 1.350 . S
C491 C490 1.434 . S
C295 C2 1.465 . S
C297 C271 1.527 . S
C306 C22 1.444 . S
C308 C198 1.524 . S
C317 C44 1.502 . S
C319 C237 1.558 . S
C328 C4 1.638 . S
C330 C276 1.687 . S
C341 C193 1.695 . S
C339 C24 1.670 . S
C352 C232 1.642 . S
C350 C42 1.579 . S
C361 C32 1.442 . S
C363 C120 1.410 . S
C372 C49 1.384 . S
C374 C154 1.372 . S
C383 C9 1.354 . S
C385 C76 1.350 . S
C396 C115 1.358 . S
C394 C29 1.315 . S
C407 C159 1.389 . S
C405 C52 1.342 . S
C416 C12 1.355 . S
C418 C81 1.380 . S
C429 C139 1.447 . S
C427 C18 1.438 1_455 S
C438 C38 1.428 . S
C440 C61 1.445 . S
C449 C58 1.421 . S
C451 C100 1.447 . S
C462 C217 1.510 . S
C460 C39 1.496 . S
C473 C256 1.503 . S
C471 C59 1.482 . S
C482 C19 1.475 1_655 S
C484 C178 1.503 . S
