# Generated by pormake.
# Topology eea, (3,6)-cn, num edge types: 1
# Building blocks:
#     Node 0, Type 0, BuildingBlock: BELTOD_clean_linker_0, # of connection points: 3
#     Node 1, Type 0, BuildingBlock: BELTOD_clean_linker_0, # of connection points: 3
#     Node 2, Type 0, BuildingBlock: BELTOD_clean_linker_0, # of connection points: 3
#     Node 3, Type 0, BuildingBlock: BELTOD_clean_linker_0, # of connection points: 3
#     Node 4, Type 0, BuildingBlock: BELTOD_clean_linker_0, # of connection points: 3
#     Node 5, Type 0, BuildingBlock: BELTOD_clean_linker_0, # of connection points: 3
#     Node 6, Type 0, BuildingBlock: BELTOD_clean_linker_0, # of connection points: 3
#     Node 7, Type 0, BuildingBlock: BELTOD_clean_linker_0, # of connection points: 3
#     Node 8, Type 0, BuildingBlock: BELTOD_clean_linker_0, # of connection points: 3
#     Node 9, Type 0, BuildingBlock: BELTOD_clean_linker_0, # of connection points: 3
#     Node 10, Type 0, BuildingBlock: BELTOD_clean_linker_0, # of connection points: 3
#     Node 11, Type 0, BuildingBlock: BELTOD_clean_linker_0, # of connection points: 3
#     Node 12, Type 0, BuildingBlock: BELTOD_clean_linker_0, # of connection points: 3
#     Node 13, Type 0, BuildingBlock: BELTOD_clean_linker_0, # of connection points: 3
#     Node 14, Type 0, BuildingBlock: BELTOD_clean_linker_0, # of connection points: 3
#     Node 15, Type 0, BuildingBlock: BELTOD_clean_linker_0, # of connection points: 3
#     Node 16, Type 0, BuildingBlock: BELTOD_clean_linker_0, # of connection points: 3
#     Node 17, Type 0, BuildingBlock: BELTOD_clean_linker_0, # of connection points: 3
#     Node 18, Type 1, BuildingBlock: KUMBOL_clean_sbu_0, # of connection points: 6
#     Node 19, Type 1, BuildingBlock: KUMBOL_clean_sbu_0, # of connection points: 6
#     Node 20, Type 1, BuildingBlock: KUMBOL_clean_sbu_0, # of connection points: 6
#     Node 21, Type 1, BuildingBlock: KUMBOL_clean_sbu_0, # of connection points: 6
#     Node 22, Type 1, BuildingBlock: KUMBOL_clean_sbu_0, # of connection points: 6
#     Node 23, Type 1, BuildingBlock: KUMBOL_clean_sbu_0, # of connection points: 6
#     Node 24, Type 1, BuildingBlock: KUMBOL_clean_sbu_0, # of connection points: 6
#     Node 25, Type 1, BuildingBlock: KUMBOL_clean_sbu_0, # of connection points: 6
#     Node 26, Type 1, BuildingBlock: KUMBOL_clean_sbu_0, # of connection points: 6
#     Edge 27, Type (0, 1), BuildingBlock: OJICUG_clean_linker_0, # of connection points: 2
#     Edge 28, Type (0, 1), BuildingBlock: OJICUG_clean_linker_0, # of connection points: 2
#     Edge 29, Type (0, 1), BuildingBlock: OJICUG_clean_linker_0, # of connection points: 2
#     Edge 30, Type (0, 1), BuildingBlock: OJICUG_clean_linker_0, # of connection points: 2
#     Edge 31, Type (0, 1), BuildingBlock: OJICUG_clean_linker_0, # of connection points: 2
#     Edge 32, Type (0, 1), BuildingBlock: OJICUG_clean_linker_0, # of connection points: 2
#     Edge 33, Type (0, 1), BuildingBlock: OJICUG_clean_linker_0, # of connection points: 2
#     Edge 34, Type (0, 1), BuildingBlock: OJICUG_clean_linker_0, # of connection points: 2
#     Edge 35, Type (0, 1), BuildingBlock: OJICUG_clean_linker_0, # of connection points: 2
#     Edge 36, Type (0, 1), BuildingBlock: OJICUG_clean_linker_0, # of connection points: 2
#     Edge 37, Type (0, 1), BuildingBlock: OJICUG_clean_linker_0, # of connection points: 2
#     Edge 38, Type (0, 1), BuildingBlock: OJICUG_clean_linker_0, # of connection points: 2
#     Edge 39, Type (0, 1), BuildingBlock: OJICUG_clean_linker_0, # of connection points: 2
#     Edge 40, Type (0, 1), BuildingBlock: OJICUG_clean_linker_0, # of connection points: 2
#     Edge 41, Type (0, 1), BuildingBlock: OJICUG_clean_linker_0, # of connection points: 2
#     Edge 42, Type (0, 1), BuildingBlock: OJICUG_clean_linker_0, # of connection points: 2
#     Edge 43, Type (0, 1), BuildingBlock: OJICUG_clean_linker_0, # of connection points: 2
#     Edge 44, Type (0, 1), BuildingBlock: OJICUG_clean_linker_0, # of connection points: 2
#     Edge 45, Type (0, 1), BuildingBlock: OJICUG_clean_linker_0, # of connection points: 2
#     Edge 46, Type (0, 1), BuildingBlock: OJICUG_clean_linker_0, # of connection points: 2
#     Edge 47, Type (0, 1), BuildingBlock: OJICUG_clean_linker_0, # of connection points: 2
#     Edge 48, Type (0, 1), BuildingBlock: OJICUG_clean_linker_0, # of connection points: 2
#     Edge 49, Type (0, 1), BuildingBlock: OJICUG_clean_linker_0, # of connection points: 2
#     Edge 50, Type (0, 1), BuildingBlock: OJICUG_clean_linker_0, # of connection points: 2
#     Edge 51, Type (0, 1), BuildingBlock: OJICUG_clean_linker_0, # of connection points: 2
#     Edge 52, Type (0, 1), BuildingBlock: OJICUG_clean_linker_0, # of connection points: 2
#     Edge 53, Type (0, 1), BuildingBlock: OJICUG_clean_linker_0, # of connection points: 2
#     Edge 54, Type (0, 1), BuildingBlock: OJICUG_clean_linker_0, # of connection points: 2
#     Edge 55, Type (0, 1), BuildingBlock: OJICUG_clean_linker_0, # of connection points: 2
#     Edge 56, Type (0, 1), BuildingBlock: OJICUG_clean_linker_0, # of connection points: 2
#     Edge 57, Type (0, 1), BuildingBlock: OJICUG_clean_linker_0, # of connection points: 2
#     Edge 58, Type (0, 1), BuildingBlock: OJICUG_clean_linker_0, # of connection points: 2
#     Edge 59, Type (0, 1), BuildingBlock: OJICUG_clean_linker_0, # of connection points: 2
#     Edge 60, Type (0, 1), BuildingBlock: OJICUG_clean_linker_0, # of connection points: 2
#     Edge 61, Type (0, 1), BuildingBlock: OJICUG_clean_linker_0, # of connection points: 2
#     Edge 62, Type (0, 1), BuildingBlock: OJICUG_clean_linker_0, # of connection points: 2
#     Edge 63, Type (0, 1), BuildingBlock: OJICUG_clean_linker_0, # of connection points: 2
#     Edge 64, Type (0, 1), BuildingBlock: OJICUG_clean_linker_0, # of connection points: 2
#     Edge 65, Type (0, 1), BuildingBlock: OJICUG_clean_linker_0, # of connection points: 2
#     Edge 66, Type (0, 1), BuildingBlock: OJICUG_clean_linker_0, # of connection points: 2
#     Edge 67, Type (0, 1), BuildingBlock: OJICUG_clean_linker_0, # of connection points: 2
#     Edge 68, Type (0, 1), BuildingBlock: OJICUG_clean_linker_0, # of connection points: 2
#     Edge 69, Type (0, 1), BuildingBlock: OJICUG_clean_linker_0, # of connection points: 2
#     Edge 70, Type (0, 1), BuildingBlock: OJICUG_clean_linker_0, # of connection points: 2
#     Edge 71, Type (0, 1), BuildingBlock: OJICUG_clean_linker_0, # of connection points: 2
#     Edge 72, Type (0, 1), BuildingBlock: OJICUG_clean_linker_0, # of connection points: 2
#     Edge 73, Type (0, 1), BuildingBlock: OJICUG_clean_linker_0, # of connection points: 2
#     Edge 74, Type (0, 1), BuildingBlock: OJICUG_clean_linker_0, # of connection points: 2
#     Edge 75, Type (0, 1), BuildingBlock: OJICUG_clean_linker_0, # of connection points: 2
#     Edge 76, Type (0, 1), BuildingBlock: OJICUG_clean_linker_0, # of connection points: 2
#     Edge 77, Type (0, 1), BuildingBlock: OJICUG_clean_linker_0, # of connection points: 2
#     Edge 78, Type (0, 1), BuildingBlock: OJICUG_clean_linker_0, # of connection points: 2
#     Edge 79, Type (0, 1), BuildingBlock: OJICUG_clean_linker_0, # of connection points: 2
#     Edge 80, Type (0, 1), BuildingBlock: OJICUG_clean_linker_0, # of connection points: 2
# Relax obj value: 0.007
# Max RMSD: 0.090
# Mean RMSD: 0.079
data_MOF--net-eea--node1-KUMBOL_clean_sbu_0--node2-BELTOD_clean_linker_0--edge1-OJICUG_clean_linker_0
_symmetry_space_group_name_H-M    P1
_symmetry_Int_Tables_number       1
_symmetry_cell_setting            triclinic
loop_
_symmetry_equiv_pos_as_xyz
'x, y, z'
_cell_length_a     44.096241
_cell_length_b     45.115067
_cell_length_c     65.471899
_cell_angle_alpha  90.420816
_cell_angle_beta   89.914147
_cell_angle_gamma 120.00476
loop_
_atom_site_label
_atom_site_type_symbol
_atom_site_fract_x
_atom_site_fract_y
_atom_site_fract_z
_atom_type_partial_charge
P0 P 0.29244 0.14327 0.40812 0.0
H1 H 0.30575 0.10811 0.37478 0.0
H2 H 0.27638 0.04833 0.3636 0.0
H3 H 0.1966 0.02287 0.40928 0.0
H4 H 0.22681 0.08279 0.42102 0.0
H5 H 0.32082 0.21322 0.39414 0.0
H6 H 0.29388 0.24619 0.38306 0.0
H7 H 0.19132 0.15902 0.39392 0.0
H8 H 0.2185 0.12596 0.40486 0.0
H9 H 0.29246 0.09481 0.43776 0.0
H10 H 0.30833 0.19726 0.43824 0.0
O11 O 0.33257 0.16178 0.39808 0.0
H12 H 0.30874 0.10072 0.47378 0.0
H13 H 0.32522 0.20346 0.4743 0.0
C14 C 0.26861 0.09982 0.39884 0.0
C15 C 0.2819 0.08982 0.38239 0.0
C16 C 0.2651 0.05573 0.37595 0.0
C17 C 0.23436 0.03125 0.38563 0.0
C18 C 0.22016 0.04148 0.40153 0.0
C19 C 0.23737 0.07558 0.4082 0.0
C20 C 0.27173 0.16694 0.40002 0.0
C21 C 0.29254 0.20106 0.39404 0.0
C22 C 0.27709 0.21997 0.38783 0.0
C23 C 0.24045 0.20516 0.3876 0.0
C24 C 0.2196 0.17095 0.39369 0.0
C25 C 0.23515 0.15206 0.40001 0.0
C26 C 0.29814 0.14523 0.43541 0.0
C27 C 0.29841 0.11822 0.44572 0.0
C28 C 0.30787 0.12165 0.46633 0.0
C29 C 0.31815 0.15251 0.47685 0.0
C30 C 0.31745 0.1794 0.46655 0.0
C31 C 0.30753 0.17576 0.446 0.0
P32 P 0.90596 0.11195 0.43011 0.0
H33 H 0.85533 0.04183 0.44045 0.0
H34 H 0.8082 0.99438 0.42128 0.0
H35 H 0.8323 0.05946 0.36868 0.0
H36 H 0.87872 0.10727 0.38812 0.0
H37 H 0.94665 0.11417 0.39459 0.0
H38 H 0.99176 0.16099 0.37461 0.0
H39 H 0.97789 0.23344 0.41135 0.0
H40 H 0.93126 0.18643 0.43007 0.0
H41 H 0.8346 0.094 0.4434 0.0
H42 H 0.9408 0.15926 0.46397 0.0
O43 O 0.92906 0.09556 0.4402 0.0
H44 H 0.81283 0.10711 0.4742 0.0
H45 H 0.91942 0.17503 0.49413 0.0
C46 C 0.87079 0.07795 0.41567 0.0
C47 C 0.85035 0.04596 0.42483 0.0
C48 C 0.82338 0.01894 0.41392 0.0
C49 C 0.81673 0.02331 0.39351 0.0
C50 C 0.8371 0.05543 0.38436 0.0
C51 C 0.86367 0.08271 0.39545 0.0
C52 C 0.93574 0.14672 0.41395 0.0
C53 C 0.95292 0.14015 0.39804 0.0
C54 C 0.97903 0.16706 0.38676 0.0
C55 C 0.98908 0.20128 0.39146 0.0
C56 C 0.9708 0.20756 0.40701 0.0
C57 C 0.94424 0.18055 0.41802 0.0
C58 C 0.88944 0.12556 0.45134 0.0
C59 C 0.85337 0.11166 0.45437 0.0
C60 C 0.84087 0.11957 0.47205 0.0
C61 C 0.8642 0.14215 0.48696 0.0
C62 C 0.90044 0.1569 0.48341 0.0
C63 C 0.91283 0.1483 0.46596 0.0
P64 P 0.8597 0.73096 0.40958 0.0
H65 H 0.83633 0.73309 0.36827 0.0
H66 H 0.80016 0.75514 0.35426 0.0
H67 H 0.80152 0.80013 0.413 0.0
H68 H 0.83873 0.77905 0.42662 0.0
H69 H 0.90737 0.70546 0.41665 0.0
H70 H 0.9658 0.72213 0.40462 0.0
H71 H 0.96895 0.80623 0.37155 0.0
H72 H 0.91072 0.79033 0.38486 0.0
H73 H 0.79675 0.70701 0.43399 0.0
H74 H 0.90562 0.74137 0.44559 0.0
O75 O 0.83768 0.69149 0.39974 0.0
H76 H 0.78306 0.69038 0.46955 0.0
H77 H 0.89179 0.72209 0.48076 0.0
C78 C 0.83972 0.75384 0.39859 0.0
C79 C 0.82937 0.74826 0.37802 0.0
C80 C 0.80836 0.76061 0.37008 0.0
C81 C 0.79716 0.77882 0.38258 0.0
C82 C 0.80956 0.78627 0.40287 0.0
C83 C 0.83077 0.77403 0.41075 0.0
C84 C 0.90481 0.74696 0.40206 0.0
C85 C 0.92089 0.72798 0.40719 0.0
C86 C 0.95424 0.73726 0.39993 0.0
C87 C 0.97221 0.7653 0.38675 0.0
C88 C 0.95618 0.78467 0.38177 0.0
C89 C 0.92277 0.77555 0.38936 0.0
C90 C 0.85216 0.72528 0.43691 0.0
C91 C 0.81784 0.71124 0.44423 0.0
C92 C 0.80995 0.70117 0.46461 0.0
C93 C 0.83607 0.70393 0.47817 0.0
C94 C 0.87084 0.71953 0.47098 0.0
C95 C 0.8788 0.73029 0.45063 0.0
P96 P 0.13356 0.26612 0.614 0.0
H97 H 0.07927 0.28094 0.60241 0.0
H98 H 0.02071 0.26202 0.61536 0.0
H99 H 0.0277 0.18787 0.65344 0.0
H100 H 0.08591 0.2059 0.6396 0.0
H101 H 0.17718 0.24597 0.58993 0.0
H102 H 0.21803 0.22704 0.60027 0.0
H103 H 0.18301 0.21854 0.66254 0.0
H104 H 0.14348 0.23935 0.65248 0.0
H105 H 0.18345 0.3315 0.59569 0.0
H106 H 0.10208 0.23283 0.57442 0.0
O107 O 0.15165 0.30101 0.62886 0.0
H108 H 0.19443 0.35255 0.56081 0.0
H109 H 0.11305 0.25395 0.53906 0.0
C110 C 0.08726 0.24496 0.61992 0.0
C111 C 0.06794 0.25994 0.61311 0.0
C112 C 0.03455 0.24944 0.62083 0.0
C113 C 0.01971 0.22396 0.63588 0.0
C114 C 0.03831 0.20763 0.64193 0.0
C115 C 0.07183 0.2181 0.63405 0.0
C116 C 0.15639 0.24335 0.62032 0.0
C117 C 0.17745 0.23928 0.60573 0.0
C118 C 0.20093 0.22853 0.61163 0.0
C119 C 0.20338 0.22115 0.63216 0.0
C120 C 0.1812 0.22363 0.64659 0.0
C121 C 0.15832 0.23517 0.64077 0.0
C122 C 0.14144 0.28076 0.58777 0.0
C123 C 0.1677 0.31435 0.58352 0.0
C124 C 0.17393 0.32644 0.56349 0.0
C125 C 0.15429 0.30514 0.5471 0.0
C126 C 0.12861 0.27105 0.55131 0.0
C127 C 0.1222 0.259 0.5715 0.0
P128 P 0.81516 0.90446 0.58009 0.0
H129 H 0.87042 0.97063 0.59515 0.0
H130 H 0.86963 0.01521 0.61602 0.0
H131 H 0.75679 0.95505 0.61958 0.0
H132 H 0.75778 0.91056 0.5984 0.0
H133 H 0.79681 0.83443 0.57023 0.0
H134 H 0.79355 0.78801 0.59087 0.0
H135 H 0.81464 0.85043 0.64518 0.0
H136 H 0.81858 0.89689 0.62443 0.0
H137 H 0.82103 0.92613 0.53787 0.0
H138 H 0.73979 0.85517 0.57793 0.0
O139 O 0.85485 0.9198 0.56983 0.0
H140 H 0.77879 0.90945 0.51009 0.0
H141 H 0.69679 0.83911 0.55035 0.0
C142 C 0.81412 0.93759 0.59495 0.0
C143 C 0.84548 0.9671 0.60027 0.0
C144 C 0.845 0.99244 0.61237 0.0
C145 C 0.81313 0.98861 0.61948 0.0
C146 C 0.7817 0.9589 0.61412 0.0
C147 C 0.78224 0.93347 0.60204 0.0
C148 C 0.80738 0.86887 0.59581 0.0
C149 C 0.80004 0.83783 0.58663 0.0
C150 C 0.79809 0.81129 0.59846 0.0
C151 C 0.80384 0.81554 0.61968 0.0
C152 C 0.81039 0.84648 0.62886 0.0
C153 C 0.81235 0.87299 0.61701 0.0
C154 C 0.7836 0.89145 0.5598 0.0
C155 C 0.79402 0.90692 0.54067 0.0
C156 C 0.7697 0.89761 0.52486 0.0
C157 C 0.73431 0.87298 0.52798 0.0
C158 C 0.7239 0.85779 0.54733 0.0
C159 C 0.74839 0.86703 0.56313 0.0
P160 P 0.13315 0.85287 0.61361 0.0
H161 H 0.14887 0.88617 0.65346 0.0
H162 H 0.18017 0.94647 0.66412 0.0
H163 H 0.18957 0.97702 0.60107 0.0
H164 H 0.15702 0.91685 0.59048 0.0
H165 H 0.08525 0.78007 0.6093 0.0
H166 H 0.02704 0.74169 0.62244 0.0
H167 H 0.02596 0.82742 0.65176 0.0
H168 H 0.08332 0.86601 0.63714 0.0
H169 H 0.19562 0.87984 0.58865 0.0
H170 H 0.08413 0.81813 0.57894 0.0
O171 O 0.1569 0.83883 0.62557 0.0
H172 H 0.20576 0.87283 0.55259 0.0
H173 H 0.09437 0.80978 0.54308 0.0
C174 C 0.15098 0.89699 0.62119 0.0
C175 C 0.15699 0.90584 0.64196 0.0
C176 C 0.17477 0.9402 0.64804 0.0
C177 C 0.18739 0.96619 0.63337 0.0
C178 C 0.18023 0.95733 0.61262 0.0
C179 C 0.16173 0.92294 0.60659 0.0
C180 C 0.08859 0.82594 0.622 0.0
C181 C 0.07222 0.79069 0.61825 0.0
C182 C 0.03905 0.76866 0.62614 0.0
C183 C 0.02179 0.78121 0.63858 0.0
C184 C 0.0382 0.81675 0.64217 0.0
C185 C 0.07124 0.83892 0.63387 0.0
C186 C 0.13919 0.84922 0.58659 0.0
C187 C 0.17332 0.86487 0.57876 0.0
C188 C 0.1791 0.86096 0.55817 0.0
C189 C 0.15083 0.84068 0.54514 0.0
C190 C 0.11658 0.82539 0.5529 0.0
C191 C 0.11076 0.83003 0.57342 0.0
P192 P 0.96201 0.47903 0.74 0.0
H193 H 0.98834 0.43501 0.7257 0.0
H194 H 0.95953 0.3747 0.71588 0.0
H195 H 0.85875 0.36472 0.72903 0.0
H196 H 0.88793 0.42549 0.73858 0.0
H197 H 0.93512 0.48526 0.70095 0.0
H198 H 0.90303 0.51379 0.69024 0.0
H199 H 0.89798 0.5409 0.75308 0.0
H200 H 0.92999 0.51231 0.76368 0.0
H201 H 0.94292 0.43015 0.77393 0.0
H202 H 0.00597 0.53907 0.76493 0.0
O203 O 0.99925 0.49971 0.72684 0.0
H204 H 0.96291 0.43717 0.80922 0.0
H205 H 0.02518 0.54655 0.80054 0.0
C206 C 0.94021 0.43475 0.73247 0.0
C207 C 0.96005 0.41992 0.72631 0.0
C208 C 0.94353 0.38538 0.72087 0.0
C209 C 0.90684 0.36494 0.72169 0.0
C210 C 0.887 0.37992 0.72798 0.0
C211 C 0.90363 0.41457 0.73347 0.0
C212 C 0.93535 0.49714 0.73303 0.0
C213 C 0.92675 0.49706 0.71243 0.0
C214 C 0.90821 0.51311 0.70635 0.0
C215 C 0.8982 0.52972 0.72082 0.0
C216 C 0.90576 0.52864 0.74158 0.0
C217 C 0.9241 0.51235 0.74765 0.0
C218 C 0.97327 0.4841 0.76673 0.0
C219 C 0.96074 0.45567 0.77959 0.0
C220 C 0.97202 0.45976 0.7999 0.0
C221 C 0.99589 0.49242 0.80775 0.0
C222 C 0.00736 0.52096 0.79493 0.0
C223 C 0.99622 0.51678 0.7746 0.0
P224 P 0.57717 0.43552 0.76807 0.0
H225 H 0.57117 0.41794 0.72454 0.0
H226 H 0.52458 0.37197 0.70441 0.0
H227 H 0.45807 0.33902 0.75772 0.0
H228 H 0.5045 0.38544 0.7776 0.0
H229 H 0.653 0.46698 0.76493 0.0
H230 H 0.69693 0.51429 0.74496 0.0
H231 H 0.61628 0.53041 0.71902 0.0
H232 H 0.57215 0.48287 0.73949 0.0
H233 H 0.59465 0.44294 0.81147 0.0
H234 H 0.52838 0.46179 0.77169 0.0
O235 O 0.59575 0.41382 0.77705 0.0
H236 H 0.57287 0.45991 0.84095 0.0
H237 H 0.50599 0.47854 0.80131 0.0
C238 C 0.54097 0.40576 0.75243 0.0
C239 C 0.54623 0.40144 0.73175 0.0
C240 C 0.51968 0.37487 0.72031 0.0
C241 C 0.48756 0.3518 0.72945 0.0
C242 C 0.4822 0.35668 0.7501 0.0
C243 C 0.50878 0.38326 0.76151 0.0
C244 C 0.60927 0.47116 0.7535 0.0
C245 C 0.64464 0.48052 0.75491 0.0
C246 C 0.66976 0.50749 0.74333 0.0
C247 C 0.66008 0.52583 0.73012 0.0
C248 C 0.62459 0.5168 0.72904 0.0
C249 C 0.59937 0.48966 0.74067 0.0
C250 C 0.56265 0.45054 0.78945 0.0
C251 C 0.57534 0.45071 0.80907 0.0
C252 C 0.56273 0.46028 0.82596 0.0
C253 C 0.5373 0.47011 0.82354 0.0
C254 C 0.52561 0.47117 0.8037 0.0
C255 C 0.53826 0.46149 0.78677 0.0
P256 P 0.52971 0.0647 0.74375 0.0
H257 H 0.46051 0.04933 0.75642 0.0
H258 H 0.42021 0.06737 0.74443 0.0
H259 H 0.50008 0.1403 0.70424 0.0
H260 H 0.54115 0.12333 0.71723 0.0
H261 H 0.59471 0.08359 0.76666 0.0
H262 H 0.65427 0.10184 0.75532 0.0
H263 H 0.62608 0.11147 0.69377 0.0
H264 H 0.56588 0.09166 0.70487 0.0
H265 H 0.49442 0.99727 0.763 0.0
H266 H 0.54843 0.10267 0.78303 0.0
O267 O 0.51223 0.02918 0.72943 0.0
H268 H 0.48183 0.97853 0.79828 0.0
H269 H 0.53604 0.08378 0.81884 0.0
C270 C 0.50407 0.08485 0.73783 0.0
C271 C 0.46983 0.06986 0.74543 0.0
C272 C 0.4465 0.07985 0.73826 0.0
C273 C 0.45651 0.10477 0.72296 0.0
C274 C 0.49139 0.12099 0.716 0.0
C275 C 0.51493 0.11108 0.72335 0.0
C276 C 0.57571 0.0874 0.73682 0.0
C277 C 0.60131 0.09068 0.75086 0.0
C278 C 0.63544 0.10096 0.74437 0.0
C279 C 0.64473 0.10842 0.72375 0.0
C280 C 0.61966 0.10649 0.70982 0.0
C281 C 0.58533 0.09558 0.71625 0.0
C282 C 0.52261 0.05145 0.77028 0.0
C283 C 0.50383 0.0165 0.77498 0.0
C284 C 0.49642 0.00574 0.79525 0.0
C285 C 0.50773 0.02963 0.81141 0.0
C286 C 0.5271 0.06473 0.80674 0.0
C287 C 0.53414 0.07555 0.78631 0.0
P288 P 0.8071 0.60397 0.94594 0.0
H289 H 0.78468 0.61435 0.98587 0.0
H290 H 0.72698 0.59557 1.00071 0.0
H291 H 0.67806 0.5302 0.94835 0.0
H292 H 0.73615 0.54961 0.93329 0.0
H293 H 0.8785 0.62542 0.93496 0.0
H294 H 0.92024 0.60827 0.9455 0.0
H295 H 0.84231 0.53201 0.98522 0.0
H296 H 0.79979 0.54861 0.97373 0.0
H297 H 0.78111 0.63836 0.91968 0.0
H298 H 0.82686 0.5741 0.91137 0.0
O299 O 0.82754 0.64473 0.95375 0.0
H300 H 0.78871 0.65204 0.88323 0.0
H301 H 0.83539 0.58846 0.87509 0.0
C302 C 0.76474 0.58385 0.9583 0.0
C303 C 0.76162 0.5956 0.97766 0.0
C304 C 0.72863 0.58491 0.98614 0.0
C305 C 0.69801 0.56173 0.97559 0.0
C306 C 0.70122 0.54805 0.95684 0.0
C307 C 0.73438 0.55916 0.9482 0.0
C308 C 0.83587 0.58804 0.9533 0.0
C309 C 0.87014 0.60465 0.94573 0.0
C310 C 0.8942 0.59505 0.952 0.0
C311 C 0.88494 0.56898 0.96646 0.0
C312 C 0.85032 0.552 0.97395 0.0
C313 C 0.82598 0.56152 0.96744 0.0
C314 C 0.80407 0.60581 0.91841 0.0
C315 C 0.7921 0.6266 0.90995 0.0
C316 C 0.79645 0.63441 0.88909 0.0
C317 C 0.8132 0.62179 0.87634 0.0
C318 C 0.82294 0.59903 0.8846 0.0
C319 C 0.81807 0.59083 0.9054 0.0
P320 P 0.48383 0.24157 0.91474 0.0
H321 H 0.48949 0.25423 0.95916 0.0
H322 H 0.48855 0.29894 0.98 0.0
H323 H 0.46874 0.34101 0.9259 0.0
H324 H 0.46932 0.29605 0.90522 0.0
H325 H 0.53909 0.23182 0.93167 0.0
H326 H 0.53877 0.18619 0.95145 0.0
H327 H 0.42558 0.13071 0.95054 0.0
H328 H 0.42618 0.17653 0.93028 0.0
H329 H 0.48637 0.22648 0.87164 0.0
H330 H 0.40916 0.22064 0.91444 0.0
O331 O 0.523 0.26336 0.90364 0.0
H332 H 0.44401 0.21026 0.84385 0.0
H333 H 0.36649 0.20448 0.88657 0.0
C334 C 0.47885 0.27147 0.93068 0.0
C335 C 0.48431 0.27267 0.95183 0.0
C336 C 0.48402 0.29841 0.96371 0.0
C337 C 0.47851 0.32349 0.95461 0.0
C338 C 0.47244 0.32176 0.93344 0.0
C339 C 0.47286 0.29611 0.92159 0.0
C340 C 0.48269 0.20726 0.92919 0.0
C341 C 0.51417 0.20976 0.93558 0.0
C342 C 0.51393 0.18375 0.94708 0.0
C343 C 0.48212 0.15479 0.95262 0.0
C344 C 0.4505 0.15248 0.9463 0.0
C345 C 0.45081 0.17866 0.93477 0.0
C346 C 0.45106 0.22542 0.89498 0.0
C347 C 0.46022 0.22154 0.87507 0.0
C348 C 0.43604 0.2124 0.85919 0.0
C349 C 0.40214 0.20668 0.863 0.0
C350 C 0.39243 0.20877 0.88319 0.0
C351 C 0.41678 0.2181 0.89909 0.0
P352 P 0.80691 0.18616 0.95022 0.0
H353 H 0.87646 0.22781 0.96785 0.0
H354 H 0.91073 0.28796 0.97723 0.0
H355 H 0.82528 0.30292 0.95879 0.0
H356 H 0.7905 0.24184 0.94976 0.0
H357 H 0.7823 0.15115 0.98892 0.0
H358 H 0.72394 0.11645 1.00354 0.0
H359 H 0.67888 0.13987 0.95196 0.0
H360 H 0.73766 0.17461 0.93727 0.0
H361 H 0.84627 0.23469 0.91745 0.0
H362 H 0.76766 0.12814 0.92266 0.0
O363 O 0.82834 0.16683 0.95859 0.0
H364 H 0.85366 0.22616 0.88141 0.0
H365 H 0.77468 0.11944 0.88638 0.0
C366 C 0.8308 0.23029 0.9583 0.0
C367 C 0.86484 0.24382 0.96599 0.0
C368 C 0.8846 0.27841 0.97118 0.0
C369 C 0.8709 0.30038 0.96859 0.0
C370 C 0.83649 0.28663 0.96111 0.0
C371 C 0.81663 0.25181 0.95592 0.0
C372 C 0.76412 0.16459 0.96174 0.0
C373 C 0.75993 0.14906 0.9808 0.0
C374 C 0.72662 0.12934 0.98918 0.0
C375 C 0.6969 0.12521 0.97879 0.0
C376 C 0.70138 0.14273 0.96033 0.0
C377 C 0.73484 0.16231 0.95184 0.0
C378 C 0.80597 0.18214 0.92275 0.0
C379 C 0.82975 0.20966 0.91073 0.0
C380 C 0.83398 0.20474 0.89003 0.0
C381 C 0.8149 0.17206 0.88099 0.0
C382 C 0.79005 0.14486 0.89291 0.0
C383 C 0.78574 0.14986 0.9136 0.0
P384 P 0.62229 0.80927 0.08749 0.0
H385 H 0.59852 0.77795 0.04769 0.0
H386 H 0.56969 0.71861 0.03555 0.0
H387 H 0.56078 0.684 0.09773 0.0
H388 H 0.58865 0.74331 0.10988 0.0
H389 H 0.6534 0.87901 0.07256 0.0
H390 H 0.62879 0.91201 0.05799 0.0
H391 H 0.52441 0.82618 0.06638 0.0
H392 H 0.54947 0.79299 0.08076 0.0
H393 H 0.65314 0.78312 0.11652 0.0
H394 H 0.61205 0.8521 0.11795 0.0
O395 O 0.66127 0.82388 0.07643 0.0
H396 H 0.67266 0.7982 0.15198 0.0
H397 H 0.63249 0.86796 0.15319 0.0
C398 C 0.59618 0.76514 0.07965 0.0
C399 C 0.58976 0.75755 0.05876 0.0
C400 C 0.57321 0.72367 0.05183 0.0
C401 C 0.56325 0.69678 0.0657 0.0
C402 C 0.56856 0.70434 0.08671 0.0
C403 C 0.58464 0.73828 0.09366 0.0
C404 C 0.6033 0.83344 0.07744 0.0
C405 C 0.62523 0.86723 0.07121 0.0
C406 C 0.61107 0.88613 0.06299 0.0
C407 C 0.5746 0.87171 0.06097 0.0
C408 C 0.55261 0.83785 0.06745 0.0
C409 C 0.56687 0.81894 0.07576 0.0
C410 C 0.63053 0.81593 0.11464 0.0
C411 C 0.64746 0.8008 0.12462 0.0
C412 C 0.65867 0.80946 0.14488 0.0
C413 C 0.65401 0.83419 0.15535 0.0
C414 C 0.63638 0.8488 0.14547 0.0
C415 C 0.6246 0.83964 0.12532 0.0
P416 P 0.25248 0.77246 0.10384 0.0
H417 H 0.24711 0.71163 0.08479 0.0
H418 H 0.20168 0.66492 0.06492 0.0
H419 H 0.13949 0.71461 0.06672 0.0
H420 H 0.18491 0.76093 0.08743 0.0
H421 H 0.32863 0.81194 0.10447 0.0
H422 H 0.37174 0.85829 0.08357 0.0
H423 H 0.28868 0.85935 0.04933 0.0
H424 H 0.24512 0.81211 0.07034 0.0
H425 H 0.24003 0.75352 0.1467 0.0
H426 H 0.2222 0.81795 0.10597 0.0
O427 O 0.27444 0.75542 0.11473 0.0
H428 H 0.21418 0.76879 0.17461 0.0
H429 H 0.19421 0.83207 0.13376 0.0
C430 C 0.21919 0.7395 0.08794 0.0
C431 C 0.2237 0.71254 0.08098 0.0
C432 C 0.19772 0.68589 0.06939 0.0
C433 C 0.16676 0.68586 0.06415 0.0
C434 C 0.1627 0.71348 0.07073 0.0
C435 C 0.18876 0.74011 0.0825 0.0
C436 C 0.28359 0.80822 0.08883 0.0
C437 C 0.31948 0.82188 0.09244 0.0
C438 C 0.3442 0.84832 0.08038 0.0
C439 C 0.33361 0.86209 0.06459 0.0
C440 C 0.29757 0.8491 0.06134 0.0
C441 C 0.27271 0.82218 0.07332 0.0
C442 C 0.23343 0.78485 0.12425 0.0
C443 C 0.23043 0.77095 0.14371 0.0
C444 C 0.21512 0.77941 0.15969 0.0
C445 C 0.20167 0.80149 0.15654 0.0
C446 C 0.2046 0.81533 0.1369 0.0
C447 C 0.22043 0.80713 0.12092 0.0
P448 P 0.2032 0.40231 0.07827 0.0
H449 H 0.16563 0.3882 0.03964 0.0
H450 H 0.12726 0.4073 0.02518 0.0
H451 H 0.15352 0.47937 0.07494 0.0
H452 H 0.19178 0.45974 0.0896 0.0
H453 H 0.25069 0.37642 0.08402 0.0
H454 H 0.30896 0.39334 0.07166 0.0
H455 H 0.31144 0.47765 0.03918 0.0
H456 H 0.25318 0.46134 0.0528 0.0
H457 H 0.14368 0.38414 0.10513 0.0
H458 H 0.25326 0.41708 0.11245 0.0
O459 O 0.18122 0.36115 0.07127 0.0
H460 H 0.13408 0.36967 0.14145 0.0
H461 H 0.24348 0.40152 0.14846 0.0
C462 C 0.18102 0.42202 0.06594 0.0
C463 C 0.16355 0.40841 0.04737 0.0
C464 C 0.14155 0.41929 0.03911 0.0
C465 C 0.137 0.44448 0.04907 0.0
C466 C 0.15652 0.45991 0.06693 0.0
C467 C 0.17831 0.44867 0.07534 0.0
C468 C 0.24763 0.41775 0.06957 0.0
C469 C 0.2639 0.39885 0.07446 0.0
C470 C 0.2972 0.40835 0.06707 0.0
C471 C 0.31501 0.43662 0.05404 0.0
C472 C 0.29876 0.45587 0.04925 0.0
C473 C 0.26534 0.44652 0.05699 0.0
C474 C 0.19914 0.40161 0.10587 0.0
C475 C 0.16588 0.38914 0.11461 0.0
C476 C 0.16038 0.38077 0.13539 0.0
C477 C 0.18795 0.38408 0.14777 0.0
C478 C 0.22164 0.39831 0.13925 0.0
C479 C 0.22722 0.40722 0.11856 0.0
P480 P 0.46627 0.93507 0.27992 0.0
H481 H 0.44102 0.95099 0.31704 0.0
H482 H 0.38271 0.93129 0.33097 0.0
H483 H 0.33725 0.8588 0.2812 0.0
H484 H 0.39622 0.87888 0.26717 0.0
H485 H 0.51682 0.95166 0.31295 0.0
H486 H 0.55343 0.92785 0.32299 0.0
H487 H 0.50181 0.8472 0.27804 0.0
H488 H 0.46455 0.87097 0.2683 0.0
H489 H 0.42435 0.94605 0.24913 0.0
H490 H 0.51567 0.93452 0.25024 0.0
O491 O 0.48878 0.97567 0.28796 0.0
H492 H 0.43597 0.9634 0.21328 0.0
H493 H 0.52674 0.95069 0.21453 0.0
C494 C 0.4229 0.91712 0.29073 0.0
C495 C 0.4186 0.9308 0.30908 0.0
C496 C 0.38522 0.91949 0.31708 0.0
C497 C 0.35533 0.89384 0.30705 0.0
C498 C 0.3598 0.87863 0.28928 0.0
C499 C 0.39341 0.89021 0.28117 0.0
C500 C 0.48855 0.91357 0.28951 0.0
C501 C 0.51306 0.92866 0.30535 0.0
C502 C 0.53418 0.91512 0.31101 0.0
C503 C 0.53119 0.88611 0.30098 0.0
C504 C 0.5049 0.86964 0.28603 0.0
C505 C 0.48363 0.88323 0.28041 0.0
C506 C 0.46846 0.93791 0.25234 0.0
C507 C 0.44605 0.94587 0.24148 0.0
C508 C 0.4528 0.9559 0.22095 0.0
C509 C 0.48247 0.9587 0.21101 0.0
C510 C 0.5039 0.94923 0.22173 0.0
C511 C 0.4972 0.93936 0.24217 0.0
P512 P 0.14847 0.5732 0.24441 0.0
H513 H 0.15076 0.58426 0.28893 0.0
H514 H 0.14756 0.62769 0.30975 0.0
H515 H 0.13361 0.67294 0.25519 0.0
H516 H 0.13631 0.62904 0.23443 0.0
H517 H 0.20505 0.5641 0.26014 0.0
H518 H 0.20591 0.52033 0.28137 0.0
H519 H 0.09284 0.46675 0.28427 0.0
H520 H 0.09224 0.5105 0.26265 0.0
H521 H 0.14715 0.55132 0.20232 0.0
H522 H 0.07436 0.55412 0.24525 0.0
O523 O 0.1868 0.59479 0.23239 0.0
H524 H 0.10236 0.53052 0.17573 0.0
H525 H 0.02895 0.53257 0.21877 0.0
C526 C 0.14341 0.60325 0.26013 0.0
C527 C 0.14654 0.60319 0.28143 0.0
C528 C 0.1449 0.62817 0.29333 0.0
C529 C 0.14031 0.65372 0.28411 0.0
C530 C 0.13662 0.6533 0.26277 0.0
C531 C 0.13834 0.62836 0.25089 0.0
C532 C 0.14856 0.54009 0.25946 0.0
C533 C 0.18043 0.54278 0.26518 0.0
C534 C 0.18089 0.51791 0.27751 0.0
C535 C 0.14943 0.49003 0.28452 0.0
C536 C 0.11749 0.48764 0.27889 0.0
C537 C 0.11709 0.51261 0.26654 0.0
C538 C 0.11424 0.55495 0.22556 0.0
C539 C 0.12138 0.54717 0.20605 0.0
C540 C 0.0956 0.53498 0.19091 0.0
C541 C 0.06207 0.53003 0.1951 0.0
C542 C 0.05465 0.53663 0.21497 0.0
C543 C 0.08053 0.54885 0.23012 0.0
P544 P 0.47572 0.51638 0.28363 0.0
H545 H 0.52735 0.55155 0.31605 0.0
H546 H 0.56046 0.61123 0.32677 0.0
H547 H 0.50295 0.63641 0.28348 0.0
H548 H 0.47061 0.57641 0.27232 0.0
H549 H 0.42538 0.44386 0.28088 0.0
H550 H 0.36664 0.40829 0.29404 0.0
H551 H 0.36982 0.49773 0.32085 0.0
H552 H 0.42801 0.53357 0.30626 0.0
H553 H 0.53402 0.56158 0.25777 0.0
H554 H 0.43159 0.47304 0.24913 0.0
O555 O 0.49688 0.49747 0.29306 0.0
H556 H 0.54723 0.55945 0.22191 0.0
H557 H 0.44543 0.46941 0.2135 0.0
C558 C 0.49674 0.55966 0.29328 0.0
C559 C 0.52165 0.56982 0.30894 0.0
C560 C 0.54046 0.60403 0.31516 0.0
C561 C 0.53452 0.62876 0.30595 0.0
C562 C 0.50862 0.61818 0.29067 0.0
C563 C 0.48991 0.58389 0.28439 0.0
C564 C 0.43093 0.49146 0.29215 0.0
C565 C 0.41316 0.45597 0.28916 0.0
C566 C 0.37969 0.43553 0.29713 0.0
C567 C 0.36344 0.44992 0.30891 0.0
C568 C 0.38126 0.48569 0.31176 0.0
C569 C 0.41468 0.50628 0.30341 0.0
C570 C 0.48171 0.51762 0.25628 0.0
C571 C 0.5141 0.54189 0.24812 0.0
C572 C 0.52185 0.54034 0.22759 0.0
C573 C 0.49767 0.5139 0.21478 0.0
C574 C 0.46466 0.4903 0.22281 0.0
C575 C 0.45677 0.49217 0.24336 0.0
Gd576 Gd 0.51825 0.02653 0.03651 0.0
Gd577 Gd 0.4879 0.97486 0.98853 0.0
C578 C 0.38072 0.8775 0.98684 0.0
C579 C 0.39638 0.83336 0.98195 0.0
C580 C 0.44164 0.89331 0.98368 0.0
C581 C 0.41653 0.9026 0.98658 0.0
C582 C 0.43188 0.85867 0.98078 0.0
C583 C 0.37082 0.84276 0.98502 0.0
C584 C 0.35595 0.88815 0.98832 0.0
C585 C 0.36714 0.92309 0.98868 0.0
N586 N 0.42708 0.93638 0.98803 0.0
C587 C 0.40299 0.94699 0.98821 0.0
H588 H 0.41125 0.97388 0.9886 0.0
C589 C 0.50089 0.91104 0.97678 0.0
N590 N 0.47554 0.91845 0.98241 0.0
C591 C 0.49259 0.87705 0.97383 0.0
C592 C 0.45799 0.85068 0.97613 0.0
H593 H 0.52771 0.93135 0.97514 0.0
H594 H 0.34346 0.82306 0.98539 0.0
H595 H 0.59658 0.03121 0.04068 0.0
H596 H 0.32818 0.86969 0.98864 0.0
H597 H 0.34819 0.93164 0.98938 0.0
H598 H 0.38834 0.80655 0.97998 0.0
H599 H 0.47332 0.06693 0.04543 0.0
H600 H 0.67597 0.1366 0.04432 0.0
H601 H 0.65877 0.07535 0.04318 0.0
H602 H 0.61028 0.1949 0.0482 0.0
H603 H 0.51287 0.87121 0.96985 0.0
H604 H 0.45158 0.82438 0.97377 0.0
H605 H 0.65761 0.18111 0.046 0.0
H606 H 0.48488 0.12601 0.05041 0.0
N607 N 0.57836 0.06686 0.03976 0.0
C608 C 0.64853 0.11728 0.0432 0.0
C609 C 0.63892 0.08275 0.04263 0.0
C610 C 0.62251 0.12639 0.04299 0.0
C611 C 0.5872 0.10022 0.04141 0.0
C612 C 0.6035 0.05773 0.04121 0.0
N613 N 0.52709 0.08189 0.0421 0.0
C614 C 0.56069 0.10799 0.04269 0.0
C615 C 0.50645 0.12131 0.04819 0.0
C616 C 0.54087 0.14862 0.04802 0.0
C617 C 0.5 0.08788 0.04542 0.0
C618 C 0.56855 0.14212 0.04551 0.0
H619 H 0.5458 0.17449 0.05021 0.0
O620 O 0.49096 0.01898 0.06536 0.0
O621 O 0.47635 0.98063 0.02078 0.0
O622 O 0.47338 0.01694 0.99058 0.0
O623 O 0.51484 0.05923 0.01202 0.0
O624 O 0.46 0.00687 0.03909 0.0
O625 O 0.53609 0.01208 0.0636 0.0
O626 O 0.51338 0.98207 0.95904 0.0
O627 O 0.53052 0.01953 1.00459 0.0
O628 O 0.53621 0.98746 0.03446 0.0
O629 O 0.49935 0.94429 0.01151 0.0
O630 O 0.54561 0.99374 0.98453 0.0
O631 O 0.46829 0.98861 0.96187 0.0
C632 C 0.44945 0.97987 0.0279 0.0
C633 C 0.60369 0.16848 0.04622 0.0
C634 C 0.63063 0.16062 0.04495 0.0
C635 C 0.51247 0.01253 0.07543 0.0
C636 C 0.52477 0.03001 0.09529 0.0
C637 C 0.54814 0.06535 0.0962 0.0
C638 C 0.51315 0.0112 0.11352 0.0
C639 C 0.52519 0.02761 0.13263 0.0
C640 C 0.55989 0.08181 0.11504 0.0
C641 C 0.5486 0.06317 0.13312 0.0
C642 C 0.49164 0.04922 0.99702 0.0
C643 C 0.55672 0.01933 0.99698 0.0
C644 C 0.49112 0.988 0.94946 0.0
C645 C 0.47741 0.96964 0.92992 0.0
C646 C 0.4556 0.93401 0.92974 0.0
C647 C 0.4862 0.98766 0.91131 0.0
C648 C 0.4731 0.97006 0.89256 0.0
C649 C 0.44289 0.91642 0.91132 0.0
C650 C 0.45158 0.93416 0.8929 0.0
C651 C 0.5223 0.95598 0.02681 0.0
H652 H 0.55729 0.08019 0.08237 0.0
H653 H 0.49531 0.98381 0.11279 0.0
H654 H 0.57785 0.10914 0.11563 0.0
H655 H 0.55798 0.07669 0.14752 0.0
H656 H 0.44848 0.91978 0.94382 0.0
H657 H 0.50275 0.01526 0.9115 0.0
H658 H 0.42628 0.88886 0.91131 0.0
H659 H 0.44168 0.91959 0.87887 0.0
Gd660 Gd 0.98198 0.49646 0.02935 0.0
Gd661 Gd 0.03779 0.51244 0.98375 0.0
C662 C 0.13628 0.50304 0.98459 0.0
C663 C 0.18238 0.56212 0.98029 0.0
C664 C 0.12131 0.5475 0.98074 0.0
C665 C 0.11108 0.51355 0.98382 0.0
C666 C 0.15702 0.57211 0.97848 0.0
C667 C 0.17202 0.52762 0.98336 0.0
C668 C 0.12475 0.46804 0.98586 0.0
C669 C 0.0889 0.44451 0.98548 0.0
N670 N 0.07632 0.49049 0.98465 0.0
C671 C 0.06494 0.45622 0.98458 0.0
H672 H 0.03736 0.43771 0.98445 0.0
C673 C 0.10461 0.58859 0.97344 0.0
N674 N 0.0961 0.55613 0.97887 0.0
C675 C 0.13968 0.61397 0.97111 0.0
C676 C 0.16605 0.6058 0.97389 0.0
H677 H 0.08437 0.59514 0.97142 0.0
H678 H 0.19178 0.52009 0.98416 0.0
H679 H 0.98483 0.57237 0.02972 0.0
H680 H 0.14324 0.4589 0.98657 0.0
H681 H 0.07968 0.41734 0.98602 0.0
H682 H 0.20998 0.5807 0.97881 0.0
H683 H 0.93392 0.4139 0.04147 0.0
H684 H 0.87989 0.55409 0.02912 0.0
H685 H 0.94379 0.59435 0.02924 0.0
H686 H 0.81052 0.43229 0.03593 0.0
H687 H 0.14635 0.6398 0.96722 0.0
H688 H 0.19319 0.62548 0.97203 0.0
H689 H 0.83024 0.4934 0.03126 0.0
H690 H 0.87158 0.37029 0.04602 0.0
N691 N 0.94476 0.51994 0.02928 0.0
C692 C 0.89782 0.54424 0.02935 0.0
C693 C 0.93385 0.56703 0.02946 0.0
C694 C 0.88538 0.50903 0.03022 0.0
C695 C 0.90986 0.49757 0.03038 0.0
C696 C 0.95708 0.5544 0.02973 0.0
N697 N 0.92332 0.45376 0.03435 0.0
C698 C 0.89877 0.46333 0.03299 0.0
C699 C 0.87884 0.39634 0.04226 0.0
C700 C 0.85307 0.40541 0.03984 0.0
C701 C 0.91409 0.42108 0.03973 0.0
C702 C 0.8629 0.43939 0.03549 0.0
H703 H 0.82578 0.38623 0.04187 0.0
O704 O 0.98534 0.47813 0.05934 0.0
O705 O 0.02864 0.49697 0.01623 0.0
O706 O 0.99467 0.45681 0.98644 0.0
O707 O 0.94977 0.45626 1.00566 0.0
O708 O 0.99848 0.45714 0.03556 0.0
O709 O 0.99602 0.5303 0.05565 0.0
O710 O 0.03485 0.52962 0.95328 0.0
O711 O 0.9911 0.5119 0.99691 0.0
O712 O 0.0264 0.5521 0.02735 0.0
O713 O 0.07025 0.55134 0.00774 0.0
O714 O 0.02125 0.55173 0.97759 0.0
O715 O 0.02349 0.47752 0.95796 0.0
C716 C 0.02655 0.471 0.0247 0.0
C717 C 0.83823 0.45035 0.03426 0.0
C718 C 0.84946 0.48513 0.03161 0.0
C719 C 0.99258 0.50673 0.0684 0.0
C720 C 0.9737 0.50375 0.08739 0.0
C721 C 0.93991 0.49937 0.0874 0.0
C722 C 0.99028 0.50556 0.10593 0.0
C723 C 0.9736 0.50339 0.12461 0.0
C724 C 0.92307 0.49715 0.10592 0.0
C725 C 0.93985 0.49932 0.12447 0.0
C726 C 0.96149 0.44201 0.9924 0.0
C727 C 0.99337 0.53801 0.98859 0.0
C728 C 0.02777 0.50071 0.94468 0.0
C729 C 0.04817 0.50309 0.92639 0.0
C730 C 0.08152 0.50666 0.92805 0.0
C731 C 0.03402 0.50177 0.90699 0.0
C732 C 0.05294 0.50377 0.88919 0.0
C733 C 0.10049 0.50873 0.91053 0.0
C734 C 0.08635 0.50723 0.89122 0.0
C735 C 0.05963 0.56567 0.02159 0.0
H736 H 0.9267 0.49785 0.0732 0.0
H737 H 0.01662 0.50941 0.10579 0.0
H738 H 0.89702 0.49386 0.10591 0.0
H739 H 0.9264 0.49759 0.13865 0.0
H740 H 0.09283 0.50768 0.94283 0.0
H741 H 0.00843 0.49951 0.90582 0.0
H742 H 0.12616 0.5113 0.91191 0.0
H743 H 0.1014 0.50825 0.87788 0.0
Gd744 Gd 0.49126 0.513 0.99185 0.0
Gd745 Gd 0.52419 0.4918 0.03831 0.0
C746 C 0.63247 0.50183 0.03999 0.0
C747 C 0.61808 0.44238 0.04166 0.0
C748 C 0.5718 0.45674 0.04099 0.0
C749 C 0.59645 0.49109 0.0398 0.0
C750 C 0.58229 0.43201 0.04245 0.0
C751 C 0.64314 0.47725 0.04041 0.0
C752 C 0.65666 0.53694 0.04037 0.0
C753 C 0.64466 0.56027 0.04136 0.0
N754 N 0.58519 0.51411 0.03963 0.0
C755 C 0.60864 0.54834 0.04124 0.0
H756 H 0.59979 0.5667 0.04184 0.0
C757 C 0.51244 0.41459 0.04573 0.0
N758 N 0.53752 0.44771 0.04192 0.0
C759 C 0.52152 0.38908 0.04717 0.0
C760 C 0.55656 0.39774 0.04525 0.0
H761 H 0.48529 0.40773 0.04707 0.0
H762 H 0.67069 0.48498 0.04033 0.0
H763 H 0.41558 0.43813 0.98848 0.0
H764 H 0.68457 0.54626 0.04044 0.0
H765 H 0.66313 0.58748 0.04207 0.0
H766 H 0.62667 0.42374 0.04254 0.0
H767 H 0.53055 0.5964 0.98143 0.0
H768 H 0.331 0.45881 0.9872 0.0
H769 H 0.35233 0.41747 0.98726 0.0
H770 H 0.38934 0.58112 0.98262 0.0
H771 H 0.50149 0.36276 0.0497 0.0
H772 H 0.56353 0.37795 0.04644 0.0
H773 H 0.34508 0.52009 0.98575 0.0
H774 H 0.5147 0.64125 0.97661 0.0
N775 N 0.43029 0.49082 0.98981 0.0
C776 C 0.35888 0.46808 0.98777 0.0
C777 C 0.37082 0.44468 0.98773 0.0
C778 C 0.38314 0.50317 0.98775 0.0
C779 C 0.41913 0.51383 0.98861 0.0
C780 C 0.40682 0.45656 0.98843 0.0
N781 N 0.4781 0.55686 0.98657 0.0
C782 C 0.44388 0.54802 0.98689 0.0
C783 C 0.49452 0.61515 0.97958 0.0
C784 C 0.45948 0.60673 0.98087 0.0
C785 C 0.50339 0.58968 0.98227 0.0
C786 C 0.43357 0.57272 0.98425 0.0
H787 H 0.45265 0.62647 0.97874 0.0
O788 O 0.51679 0.53292 0.96274 0.0
O789 O 0.53537 0.51092 1.00659 0.0
O790 O 0.53774 0.54753 0.03776 0.0
O791 O 0.49722 0.55098 0.0164 0.0
O792 O 0.54876 0.55266 0.9885 0.0
O793 O 0.47397 0.48059 0.96479 0.0
O794 O 0.49859 0.471 0.06727 0.0
O795 O 0.4801 0.4944 0.02377 0.0
O796 O 0.47722 0.45695 0.99285 0.0
O797 O 0.5198 0.45562 0.01324 0.0
O798 O 0.46682 0.45207 0.04146 0.0
O799 O 0.54313 0.52243 0.06606 0.0
C800 C 0.56108 0.53764 0.99959 0.0
C801 C 0.3978 0.5625 0.98442 0.0
C802 C 0.37261 0.52776 0.9862 0.0
C803 C 0.49629 0.50467 0.95286 0.0
C804 C 0.48299 0.50818 0.93303 0.0
C805 C 0.45846 0.51918 0.93161 0.0
C806 C 0.49531 0.50036 0.9152 0.0
C807 C 0.48321 0.50326 0.89583 0.0
C808 C 0.44641 0.52233 0.91247 0.0
C809 C 0.45866 0.51446 0.89468 0.0
C810 C 0.52069 0.56306 0.03136 0.0
C811 C 0.45452 0.46738 0.0306 0.0
C812 C 0.5206 0.49796 0.07771 0.0
C813 C 0.53449 0.49139 0.09646 0.0
C814 C 0.55689 0.47778 0.09545 0.0
C815 C 0.52473 0.49821 0.1156 0.0
C816 C 0.53714 0.49131 0.13377 0.0
C817 C 0.56916 0.47071 0.11331 0.0
C818 C 0.55932 0.47726 0.13234 0.0
C819 C 0.4958 0.44266 0.99866 0.0
H820 H 0.44868 0.52528 0.94524 0.0
H821 H 0.51467 0.49234 0.91646 0.0
H822 H 0.42741 0.53076 0.91142 0.0
H823 H 0.4485 0.51663 0.88006 0.0
H824 H 0.56473 0.47245 0.08089 0.0
H825 H 0.5078 0.5092 0.11628 0.0
H826 H 0.58623 0.45993 0.11242 0.0
H827 H 0.56879 0.47092 0.14593 0.0
Gd828 Gd 0.18484 0.36297 0.37041 0.0
Gd829 Gd 0.15266 0.31169 0.32225 0.0
C830 C 0.04494 0.21511 0.31899 0.0
C831 C 0.06001 0.17071 0.3134 0.0
C832 C 0.10573 0.23041 0.31602 0.0
C833 C 0.08086 0.23992 0.31913 0.0
C834 C 0.09564 0.1958 0.31257 0.0
C835 C 0.03469 0.18036 0.31664 0.0
C836 C 0.02044 0.22608 0.32057 0.0
C837 C 0.03201 0.26108 0.32137 0.0
N838 N 0.09175 0.27371 0.32112 0.0
C839 C 0.06796 0.28469 0.32133 0.0
H840 H 0.07651 0.31164 0.32209 0.0
C841 C 0.16497 0.24778 0.3094 0.0
N842 N 0.13977 0.25535 0.31513 0.0
C843 C 0.15632 0.21381 0.30589 0.0
C844 C 0.12156 0.18762 0.30777 0.0
H845 H 0.19193 0.26785 0.30803 0.0
H846 H 0.00723 0.16087 0.31672 0.0
H847 H 0.2614 0.3644 0.37496 0.0
H848 H 0.9926 0.20785 0.32059 0.0
H849 H 0.01329 0.26991 0.32213 0.0
H850 H 0.05173 0.14393 0.31101 0.0
H851 H 0.14286 0.4063 0.37923 0.0
H852 H 0.34396 0.46872 0.37716 0.0
H853 H 0.32429 0.40685 0.377 0.0
H854 H 0.28247 0.53125 0.3802 0.0
H855 H 0.17648 0.20785 0.30179 0.0
H856 H 0.1149 0.16134 0.30499 0.0
H857 H 0.32808 0.51506 0.37814 0.0
H858 H 0.15687 0.4663 0.3835 0.0
N859 N 0.24538 0.40163 0.3733 0.0
C860 C 0.31625 0.45015 0.37623 0.0
C861 C 0.30525 0.41527 0.37622 0.0
C862 C 0.29126 0.4606 0.3758 0.0
C863 C 0.25555 0.43537 0.3745 0.0
C864 C 0.26949 0.39123 0.37507 0.0
N865 N 0.19602 0.41922 0.37559 0.0
C866 C 0.23002 0.44447 0.37579 0.0
C867 C 0.1777 0.46053 0.38128 0.0
C868 C 0.21255 0.48694 0.3807 0.0
C869 C 0.16986 0.42657 0.37893 0.0
C870 C 0.23928 0.47906 0.3782 0.0
H871 H 0.21856 0.51321 0.38258 0.0
O872 O 0.15916 0.35755 0.39966 0.0
O873 O 0.14178 0.31819 0.35455 0.0
O874 O 0.13882 0.35389 0.32536 0.0
O875 O 0.1824 0.39614 0.34572 0.0
O876 O 0.12698 0.34496 0.37361 0.0
O877 O 0.20183 0.34701 0.39721 0.0
O878 O 0.18033 0.32306 0.2933 0.0
O879 O 0.19655 0.35529 0.33847 0.0
O880 O 0.19991 0.32173 0.36816 0.0
O881 O 0.16189 0.27949 0.34501 0.0
O882 O 0.20969 0.32782 0.31846 0.0
O883 O 0.13254 0.325 0.29559 0.0
C884 C 0.11553 0.31838 0.36195 0.0
C885 C 0.27481 0.50449 0.37853 0.0
C886 C 0.30077 0.49527 0.37733 0.0
C887 C 0.17975 0.34946 0.40942 0.0
C888 C 0.19391 0.36711 0.42909 0.0
C889 C 0.22066 0.40143 0.42945 0.0
C890 C 0.1806 0.34966 0.44766 0.0
C891 C 0.19386 0.3666 0.46656 0.0
C892 C 0.23411 0.41823 0.44801 0.0
C893 C 0.22093 0.40106 0.4664 0.0
C894 C 0.15857 0.38633 0.33109 0.0
C895 C 0.22194 0.35339 0.33098 0.0
C896 C 0.15735 0.3277 0.28356 0.0
C897 C 0.14671 0.31125 0.2633 0.0
C898 C 0.12693 0.27551 0.26154 0.0
C899 C 0.15781 0.33133 0.24548 0.0
C900 C 0.14994 0.3156 0.22603 0.0
C901 C 0.1188 0.25988 0.2423 0.0
C902 C 0.13044 0.27971 0.22466 0.0
C903 C 0.185 0.29034 0.36021 0.0
H904 H 0.23119 0.41521 0.41539 0.0
H905 H 0.15967 0.32321 0.44737 0.0
H906 H 0.25491 0.4447 0.44816 0.0
H907 H 0.23229 0.41474 0.48054 0.0
H908 H 0.11809 0.2597 0.27502 0.0
H909 H 0.17328 0.35897 0.24675 0.0
H910 H 0.10366 0.23226 0.24105 0.0
H911 H 0.12402 0.26702 0.20988 0.0
Gd912 Gd 0.6427 0.83142 0.36311 0.0
Gd913 Gd 0.69433 0.84382 0.31617 0.0
C914 C 0.71082 0.76361 0.28254 0.0
C915 C 0.76336 0.77027 0.29884 0.0
C916 C 0.73951 0.80651 0.30897 0.0
C917 C 0.71247 0.78976 0.29524 0.0
C918 C 0.76602 0.79779 0.31044 0.0
C919 C 0.73577 0.75318 0.28489 0.0
C920 C 0.68516 0.74987 0.26727 0.0
C921 C 0.66316 0.76344 0.26435 0.0
N922 N 0.6893 0.80097 0.2932 0.0
C923 C 0.6661 0.78962 0.27725 0.0
H924 H 0.64919 0.80012 0.2747 0.0
C925 C 0.77077 0.85418 0.33076 0.0
N926 N 0.74137 0.83319 0.31968 0.0
C927 C 0.79783 0.84669 0.33267 0.0
C928 C 0.7951 0.81791 0.32284 0.0
H929 H 0.77332 0.87645 0.33854 0.0
H930 H 0.7347 0.73284 0.27547 0.0
H931 H 0.63151 0.89932 0.35828 0.0
H932 H 0.68303 0.72977 0.25717 0.0
H933 H 0.64403 0.75387 0.25212 0.0
H934 H 0.78318 0.76286 0.29999 0.0
H935 H 0.60586 0.75304 0.38368 0.0
H936 H 0.52185 0.86457 0.35668 0.0
H937 H 0.58331 0.91177 0.35575 0.0
H938 H 0.46944 0.7448 0.37048 0.0
H939 H 0.82064 0.86298 0.34189 0.0
H940 H 0.81603 0.8121 0.32441 0.0
H941 H 0.47943 0.80187 0.36146 0.0
H942 H 0.54693 0.70395 0.3898 0.0
N943 N 0.59793 0.84535 0.36027 0.0
C944 C 0.54294 0.85891 0.35785 0.0
C945 C 0.57758 0.88561 0.35737 0.0
C946 C 0.53597 0.82536 0.36061 0.0
C947 C 0.56443 0.81944 0.36209 0.0
C948 C 0.60489 0.87838 0.35874 0.0
N949 N 0.58718 0.78391 0.37046 0.0
C950 C 0.55884 0.78753 0.36723 0.0
C951 C 0.54986 0.72717 0.38321 0.0
C952 C 0.52034 0.72961 0.37844 0.0
C953 C 0.58326 0.75502 0.3796 0.0
C954 C 0.52461 0.7604 0.37092 0.0
H955 H 0.4945 0.70814 0.38147 0.0
O956 O 0.66571 0.83085 0.39246 0.0
O957 O 0.69077 0.83451 0.34951 0.0
O958 O 0.65446 0.78724 0.31876 0.0
O959 O 0.61323 0.78406 0.34309 0.0
O960 O 0.66244 0.79515 0.3699 0.0
O961 O 0.641 0.86114 0.38892 0.0
O962 O 0.74189 0.88548 0.30314 0.0
O963 O 0.65426 0.85255 0.33183 0.0
O964 O 0.67939 0.88751 0.3566 0.0
O965 O 0.72427 0.88571 0.33967 0.0
O966 O 0.64362 0.83411 0.30205 0.0
O967 O 0.6919 0.87384 0.29098 0.0
C968 C 0.68929 0.8087 0.35805 0.0
C969 C 0.49596 0.76545 0.36798 0.0
C970 C 0.50165 0.79794 0.36286 0.0
C971 C 0.65527 0.84972 0.40156 0.0
C972 C 0.63753 0.83707 0.42122 0.0
C973 C 0.60114 0.81525 0.42235 0.0
C974 C 0.65761 0.84644 0.43913 0.0
C975 C 0.64171 0.83394 0.45817 0.0
C976 C 0.58518 0.80257 0.44121 0.0
C977 C 0.60533 0.81168 0.45906 0.0
C978 C 0.62392 0.77081 0.32844 0.0
C979 C 0.63188 0.84285 0.31756 0.0
C980 C 0.72556 0.89127 0.28863 0.0
C981 C 0.73954 0.89436 0.2677 0.0
C982 C 0.77592 0.91364 0.26472 0.0
C983 C 0.71733 0.87995 0.25057 0.0
C984 C 0.73147 0.88559 0.23074 0.0
C985 C 0.78996 0.91869 0.24511 0.0
C986 C 0.76793 0.905 0.2282 0.0
C987 C 0.71272 0.90173 0.35154 0.0
H988 H 0.5851 0.80802 0.40873 0.0
H989 H 0.68576 0.86309 0.43818 0.0
H990 H 0.55713 0.78565 0.442 0.0
H991 H 0.59248 0.80175 0.47355 0.0
H992 H 0.79352 0.92513 0.27759 0.0
H993 H 0.68918 0.86525 0.25251 0.0
H994 H 0.81803 0.9336 0.243 0.0
H995 H 0.77937 0.90949 0.21309 0.0
Gd996 Gd 0.1463 0.83911 0.32282 0.0
Gd997 Gd 0.18035 0.81853 0.36916 0.0
C998 C 0.2862 0.82316 0.37133 0.0
C999 C 0.26903 0.76307 0.37397 0.0
C1000 C 0.22475 0.78012 0.37268 0.0
C1001 C 0.25057 0.814 0.37107 0.0
C1002 C 0.23366 0.75428 0.37458 0.0
C1003 C 0.29526 0.79746 0.37233 0.0
C1004 C 0.31163 0.85791 0.37116 0.0
C1005 C 0.30122 0.88248 0.3715 0.0
N1006 N 0.24087 0.83815 0.37034 0.0
C1007 C 0.26554 0.87207 0.37138 0.0
H1008 H 0.25788 0.89129 0.37151 0.0
C1009 C 0.1647 0.73995 0.37718 0.0
N1010 N 0.19089 0.77261 0.37336 0.0
C1011 C 0.1722 0.71341 0.37906 0.0
C1012 C 0.20679 0.72053 0.37753 0.0
H1013 H 0.13786 0.73412 0.37829 0.0
H1014 H 0.32248 0.80397 0.37235 0.0
H1015 H 0.07098 0.76398 0.31984 0.0
H1016 H 0.33928 0.86603 0.37125 0.0
H1017 H 0.32065 0.90944 0.37174 0.0
H1018 H 0.27639 0.74355 0.37522 0.0
H1019 H 0.18491 0.92289 0.3132 0.0
H1020 H 0.98581 0.7839 0.31997 0.0
H1021 H 0.00757 0.74288 0.31932 0.0
H1022 H 0.04322 0.9063 0.31645 0.0
H1023 H 0.15129 0.68749 0.38167 0.0
H1024 H 0.21254 0.69994 0.37905 0.0
H1025 H 0.99939 0.84507 0.31916 0.0
H1026 H 0.1685 0.9676 0.30984 0.0
N1027 N 0.08529 0.81655 0.3213 0.0
C1028 C 0.01375 0.79334 0.32017 0.0
C1029 C 0.02593 0.77012 0.31975 0.0
C1030 C 0.0378 0.82849 0.32018 0.0
C1031 C 0.07387 0.8394 0.32054 0.0
C1032 C 0.06198 0.78224 0.32004 0.0
N1033 N 0.13269 0.88285 0.31835 0.0
C1034 C 0.09839 0.8737 0.31903 0.0
C1035 C 0.14852 0.9413 0.3125 0.0
C1036 C 0.11341 0.93252 0.31415 0.0
C1037 C 0.1577 0.91592 0.31434 0.0
C1038 C 0.08776 0.89828 0.31712 0.0
H1039 H 0.10634 0.9522 0.31263 0.0
O1040 O 0.17297 0.85868 0.29403 0.0
O1041 O 0.1908 0.83738 0.3373 0.0
O1042 O 0.19574 0.87469 0.36757 0.0
O1043 O 0.15351 0.87738 0.34741 0.0
O1044 O 0.2035 0.8788 0.31885 0.0
O1045 O 0.12715 0.80798 0.29519 0.0
O1046 O 0.15366 0.801 0.39817 0.0
O1047 O 0.13605 0.82104 0.3548 0.0
O1048 O 0.13315 0.78328 0.32385 0.0
O1049 O 0.17612 0.78244 0.34417 0.0
O1050 O 0.12298 0.7791 0.37276 0.0
O1051 O 0.20218 0.8494 0.39668 0.0
C1052 C 0.21617 0.86406 0.32992 0.0
C1053 C 0.05193 0.88778 0.31769 0.0
C1054 C 0.02698 0.85292 0.31924 0.0
C1055 C 0.15118 0.83151 0.2837 0.0
C1056 C 0.14023 0.83756 0.26374 0.0
C1057 C 0.12075 0.85424 0.26205 0.0
C1058 C 0.15141 0.82818 0.24601 0.0
C1059 C 0.14387 0.83593 0.22656 0.0
C1060 C 0.11294 0.86183 0.24276 0.0
C1061 C 0.12464 0.85299 0.22509 0.0
C1062 C 0.17895 0.89048 0.36119 0.0
C1063 C 0.11053 0.79419 0.36184 0.0
C1064 C 0.17773 0.82691 0.40845 0.0
C1065 C 0.18902 0.81834 0.42753 0.0
C1066 C 0.20823 0.80123 0.42712 0.0
C1067 C 0.17864 0.82546 0.44638 0.0
C1068 C 0.18658 0.81468 0.46471 0.0
C1069 C 0.21639 0.79074 0.44529 0.0
C1070 C 0.20538 0.79713 0.46399 0.0
C1071 C 0.15221 0.76942 0.32954 0.0
H1072 H 0.11201 0.86173 0.27558 0.0
H1073 H 0.16688 0.81568 0.24739 0.0
H1074 H 0.09803 0.87484 0.2415 0.0
H1075 H 0.11841 0.8592 0.2103 0.0
H1076 H 0.21652 0.79563 0.41279 0.0
H1077 H 0.16363 0.83852 0.44677 0.0
H1078 H 0.23104 0.77737 0.44486 0.0
H1079 H 0.21183 0.78866 0.47793 0.0
Gd1080 Gd 0.84625 0.6889 0.70154 0.0
Gd1081 Gd 0.81259 0.63753 0.65357 0.0
C1082 C 0.70529 0.54029 0.65197 0.0
C1083 C 0.72064 0.49633 0.64534 0.0
C1084 C 0.76606 0.55617 0.64769 0.0
C1085 C 0.74111 0.56538 0.65148 0.0
C1086 C 0.75612 0.52165 0.64401 0.0
C1087 C 0.69526 0.50564 0.64937 0.0
C1088 C 0.68064 0.55091 0.65448 0.0
C1089 C 0.69191 0.58583 0.65563 0.0
N1090 N 0.75177 0.59909 0.65367 0.0
C1091 C 0.72773 0.60972 0.65487 0.0
H1092 H 0.73606 0.6366 0.65584 0.0
C1093 C 0.82505 0.57409 0.63985 0.0
N1094 N 0.79997 0.58132 0.64635 0.0
C1095 C 0.81654 0.54023 0.63606 0.0
C1096 C 0.78199 0.51381 0.63844 0.0
H1097 H 0.85183 0.59437 0.63807 0.0
H1098 H 0.6679 0.48595 0.64988 0.0
H1099 H 0.92252 0.68909 0.70499 0.0
H1100 H 0.65288 0.53246 0.65502 0.0
H1101 H 0.67303 0.59437 0.65715 0.0
H1102 H 0.71248 0.46961 0.64277 0.0
H1103 H 0.80571 0.73311 0.71153 0.0
H1104 H 0.00606 0.7929 0.70696 0.0
H1105 H 0.98555 0.73087 0.70649 0.0
H1106 H 0.94624 0.85689 0.71154 0.0
H1107 H 0.83662 0.53452 0.63136 0.0
H1108 H 0.77543 0.48761 0.63545 0.0
H1109 H 0.99112 0.83985 0.70863 0.0
H1110 H 0.82071 0.79339 0.71618 0.0
N1111 N 0.90706 0.72684 0.70399 0.0
C1112 C 0.97825 0.77462 0.70629 0.0
C1113 C 0.96677 0.73965 0.70609 0.0
C1114 C 0.95363 0.78555 0.70638 0.0
C1115 C 0.91776 0.76068 0.70539 0.0
C1116 C 0.93088 0.71598 0.70524 0.0
N1117 N 0.85852 0.74538 0.7072 0.0
C1118 C 0.89265 0.77027 0.70713 0.0
C1119 C 0.8412 0.78725 0.71359 0.0
C1120 C 0.87618 0.81333 0.71271 0.0
C1121 C 0.83281 0.75317 0.71103 0.0
C1122 C 0.90248 0.80498 0.70973 0.0
H1123 H 0.88263 0.83971 0.71474 0.0
O1124 O 0.82252 0.68536 0.73129 0.0
O1125 O 0.8028 0.644 0.68609 0.0
O1126 O 0.7984 0.67948 0.657 0.0
O1127 O 0.84214 0.72175 0.67732 0.0
O1128 O 0.7885 0.67078 0.7054 0.0
O1129 O 0.86191 0.67044 0.72769 0.0
O1130 O 0.83881 0.64856 0.62414 0.0
O1131 O 0.85668 0.68163 0.6693 0.0
O1132 O 0.86154 0.64792 0.69879 0.0
O1133 O 0.82324 0.60564 0.67578 0.0
O1134 O 0.8697 0.65447 0.64901 0.0
O1135 O 0.79064 0.64958 0.62725 0.0
C1136 C 0.7767 0.64387 0.69398 0.0
C1137 C 0.93814 0.83004 0.70975 0.0
C1138 C 0.96369 0.82034 0.70807 0.0
C1139 C 0.84151 0.67464 0.74038 0.0
C1140 C 0.85714 0.69061 0.76018 0.0
C1141 C 0.8864 0.72364 0.76104 0.0
C1142 C 0.84357 0.6721 0.77838 0.0
C1143 C 0.85976 0.68624 0.7973 0.0
C1144 C 0.90231 0.73789 0.77976 0.0
C1145 C 0.88929 0.7193 0.79776 0.0
C1146 C 0.81768 0.7118 0.66306 0.0
C1147 C 0.88204 0.68015 0.66145 0.0
C1148 C 0.81486 0.65213 0.61476 0.0
C1149 C 0.80302 0.63431 0.59491 0.0
C1150 C 0.78409 0.59849 0.59408 0.0
C1151 C 0.81145 0.65311 0.57661 0.0
C1152 C 0.80117 0.63612 0.55748 0.0
C1153 C 0.77415 0.5815 0.57532 0.0
C1154 C 0.78274 0.60003 0.55719 0.0
C1155 C 0.84641 0.61647 0.69094 0.0
H1156 H 0.89713 0.73823 0.74723 0.0
H1157 H 0.82107 0.64646 0.77775 0.0
H1158 H 0.92497 0.76337 0.78031 0.0
H1159 H 0.90214 0.73087 0.8121 0.0
H1160 H 0.77722 0.58363 0.60791 0.0
H1161 H 0.82566 0.68083 0.57735 0.0
H1162 H 0.7599 0.5538 0.57481 0.0
H1163 H 0.77524 0.5859 0.5429 0.0
Gd1164 Gd 0.3061 0.15966 0.69818 0.0
Gd1165 Gd 0.36066 0.17278 0.65242 0.0
C1166 C 0.45721 0.16041 0.65448 0.0
C1167 C 0.5045 0.219 0.65024 0.0
C1168 C 0.44391 0.20594 0.65003 0.0
C1169 C 0.43271 0.17175 0.65321 0.0
C1170 C 0.47987 0.22986 0.64801 0.0
C1171 C 0.49318 0.18433 0.6535 0.0
C1172 C 0.44477 0.12527 0.65611 0.0
C1173 C 0.40875 0.10239 0.65564 0.0
N1174 N 0.39777 0.14933 0.65388 0.0
C1175 C 0.3855 0.1149 0.65424 0.0
H1176 H 0.35773 0.09693 0.65403 0.0
C1177 C 0.42887 0.24802 0.64201 0.0
N1178 N 0.41941 0.21546 0.64777 0.0
C1179 C 0.46424 0.27275 0.63996 0.0
C1180 C 0.4899 0.26374 0.64323 0.0
H1181 H 0.40912 0.25512 0.63961 0.0
H1182 H 0.5124 0.17615 0.65469 0.0
H1183 H 0.3094 0.2357 0.69459 0.0
H1184 H 0.46271 0.11552 0.65721 0.0
H1185 H 0.39885 0.07512 0.65649 0.0
H1186 H 0.53228 0.23705 0.64896 0.0
H1187 H 0.25859 0.07858 0.71322 0.0
H1188 H 0.2052 0.21876 0.698 0.0
H1189 H 0.26886 0.25813 0.69425 0.0
H1190 H 0.13597 0.09848 0.71078 0.0
H1191 H 0.47169 0.29872 0.63588 0.0
H1192 H 0.51728 0.28291 0.64156 0.0
H1193 H 0.15564 0.15894 0.70366 0.0
H1194 H 0.1969 0.03633 0.72066 0.0
N1195 N 0.26925 0.18362 0.69773 0.0
C1196 C 0.22289 0.20864 0.698 0.0
C1197 C 0.25881 0.23095 0.69597 0.0
C1198 C 0.21035 0.17367 0.70061 0.0
C1199 C 0.23455 0.16185 0.70058 0.0
C1200 C 0.28177 0.21802 0.69617 0.0
N1201 N 0.24786 0.11812 0.70544 0.0
C1202 C 0.22348 0.12796 0.70451 0.0
C1203 C 0.20397 0.06197 0.71604 0.0
C1204 C 0.17827 0.07125 0.71417 0.0
C1205 C 0.2389 0.08599 0.71183 0.0
C1206 C 0.18793 0.10475 0.70866 0.0
H1207 H 0.15124 0.05265 0.7175 0.0
O1208 O 0.31278 0.14437 0.72841 0.0
O1209 O 0.35194 0.15852 0.68505 0.0
O1210 O 0.31596 0.11773 0.65519 0.0
O1211 O 0.2725 0.11791 0.67569 0.0
O1212 O 0.32109 0.11943 0.70463 0.0
O1213 O 0.32205 0.19576 0.72347 0.0
O1214 O 0.35668 0.18957 0.62209 0.0
O1215 O 0.31415 0.17278 0.66533 0.0
O1216 O 0.34989 0.21496 0.69441 0.0
O1217 O 0.3937 0.21247 0.67592 0.0
O1218 O 0.34426 0.21192 0.64556 0.0
O1219 O 0.34899 0.13863 0.62638 0.0
C1220 C 0.34903 0.13232 0.69368 0.0
C1221 C 0.16345 0.11599 0.70783 0.0
C1222 C 0.17465 0.1504 0.70379 0.0
C1223 C 0.32072 0.17369 0.7367 0.0
C1224 C 0.30443 0.17242 0.75642 0.0
C1225 C 0.26928 0.16386 0.75799 0.0
C1226 C 0.3248 0.17962 0.77408 0.0
C1227 C 0.31058 0.17867 0.79345 0.0
C1228 C 0.25476 0.16254 0.7772 0.0
C1229 C 0.27521 0.16985 0.79487 0.0
C1230 C 0.28313 0.10351 0.66182 0.0
C1231 C 0.31612 0.19833 0.65638 0.0
C1232 C 0.35156 0.16143 0.61328 0.0
C1233 C 0.37244 0.16583 0.5949 0.0
C1234 C 0.40775 0.17481 0.59635 0.0
C1235 C 0.35714 0.1623 0.57561 0.0
C1236 C 0.37709 0.16821 0.55776 0.0
C1237 C 0.42767 0.1806 0.5787 0.0
C1238 C 0.41255 0.1775 0.55949 0.0
C1239 C 0.38314 0.22788 0.68902 0.0
H1240 H 0.25318 0.15818 0.74446 0.0
H1241 H 0.35179 0.18559 0.77268 0.0
H1242 H 0.22761 0.15593 0.7784 0.0
H1243 H 0.26354 0.1691 0.80956 0.0
H1244 H 0.41993 0.17753 0.61107 0.0
H1245 H 0.32992 0.15566 0.57452 0.0
H1246 H 0.45494 0.18759 0.5799 0.0
H1247 H 0.42844 0.18196 0.54599 0.0
Gd1248 Gd 0.81417 0.17015 0.65862 0.0
Gd1249 Gd 0.8493 0.15182 0.7052 0.0
C1250 C 0.95649 0.15939 0.70692 0.0
C1251 C 0.94083 0.09983 0.71065 0.0
C1252 C 0.89549 0.11544 0.70927 0.0
C1253 C 0.92065 0.14943 0.70699 0.0
C1254 C 0.90527 0.09029 0.71154 0.0
C1255 C 0.96641 0.13433 0.70832 0.0
C1256 C 0.98128 0.19429 0.70603 0.0
C1257 C 0.97009 0.21826 0.70598 0.0
N1258 N 0.91013 0.17295 0.70588 0.0
C1259 C 0.93423 0.2071 0.70621 0.0
H1260 H 0.92602 0.22593 0.70601 0.0
C1261 C 0.83586 0.07449 0.7145 0.0
N1262 N 0.86143 0.10717 0.71015 0.0
C1263 C 0.84423 0.0486 0.71678 0.0
C1264 C 0.87905 0.05645 0.71507 0.0
H1265 H 0.80888 0.0682 0.7157 0.0
H1266 H 0.9938 0.14145 0.70811 0.0
H1267 H 0.73873 0.09487 0.6591 0.0
H1268 H 0.00907 0.20299 0.70586 0.0
H1269 H 0.98904 0.24535 0.70566 0.0
H1270 H 0.94887 0.08085 0.71217 0.0
H1271 H 0.85213 0.25251 0.64563 0.0
H1272 H 0.65354 0.11463 0.65726 0.0
H1273 H 0.67533 0.07375 0.65906 0.0
H1274 H 0.71056 0.23618 0.64845 0.0
H1275 H 0.82383 0.02262 0.71981 0.0
H1276 H 0.88547 0.03636 0.71688 0.0
H1277 H 0.66696 0.17546 0.65366 0.0
H1278 H 0.83543 0.29651 0.6398 0.0
N1279 N 0.75307 0.14746 0.65804 0.0
C1280 C 0.68147 0.12411 0.65734 0.0
C1281 C 0.69368 0.10095 0.6583 0.0
C1282 C 0.70548 0.15915 0.65588 0.0
C1283 C 0.74157 0.17013 0.65611 0.0
C1284 C 0.72974 0.11309 0.65831 0.0
N1285 N 0.80028 0.21332 0.65256 0.0
C1286 C 0.76599 0.2042 0.65334 0.0
C1287 C 0.81565 0.27069 0.64371 0.0
C1288 C 0.78063 0.26213 0.64554 0.0
C1289 C 0.82501 0.24571 0.64701 0.0
C1290 C 0.7552 0.2284 0.65006 0.0
H1291 H 0.77342 0.28148 0.6429 0.0
O1292 O 0.84093 0.18678 0.62955 0.0
O1293 O 0.85912 0.16891 0.67296 0.0
O1294 O 0.86394 0.20758 0.70318 0.0
O1295 O 0.82338 0.21115 0.68184 0.0
O1296 O 0.87106 0.20994 0.6543 0.0
O1297 O 0.79272 0.13824 0.63142 0.0
O1298 O 0.82463 0.13377 0.73473 0.0
O1299 O 0.80478 0.15408 0.69103 0.0
O1300 O 0.80098 0.11439 0.66067 0.0
O1301 O 0.84461 0.11465 0.68081 0.0
O1302 O 0.792 0.11277 0.70947 0.0
O1303 O 0.87003 0.18448 0.73206 0.0
C1304 C 0.88419 0.19562 0.66537 0.0
C1305 C 0.71938 0.21792 0.65072 0.0
C1306 C 0.69455 0.18335 0.65366 0.0
C1307 C 0.81732 0.16024 0.61953 0.0
C1308 C 0.80654 0.16747 0.59982 0.0
C1309 C 0.78634 0.18345 0.59894 0.0
C1310 C 0.81849 0.16006 0.58164 0.0
C1311 C 0.81122 0.16937 0.56249 0.0
C1312 C 0.77871 0.19253 0.58013 0.0
C1313 C 0.79124 0.18588 0.56206 0.0
C1314 C 0.84793 0.22378 0.69622 0.0
C1315 C 0.77935 0.12784 0.6987 0.0
C1316 C 0.84741 0.16136 0.74438 0.0
C1317 C 0.8612 0.15598 0.76356 0.0
C1318 C 0.88696 0.14645 0.76334 0.0
C1319 C 0.84772 0.15954 0.78232 0.0
C1320 C 0.85968 0.15333 0.80086 0.0
C1321 C 0.89906 0.1404 0.78164 0.0
C1322 C 0.88553 0.14373 0.80027 0.0
C1323 C 0.8204 0.10097 0.66639 0.0
H1324 H 0.77687 0.18929 0.61276 0.0
H1325 H 0.8335 0.14708 0.58257 0.0
H1326 H 0.76342 0.20525 0.57955 0.0
H1327 H 0.78572 0.1943 0.54782 0.0
H1328 H 0.89763 0.14361 0.74907 0.0
H1329 H 0.82752 0.16656 0.78243 0.0
H1330 H 0.919 0.1331 0.78138 0.0
H1331 H 0.89565 0.13921 0.81425 0.0
C1332 C 0.35922 0.92058 0.04907 0.0
C1333 C 0.36057 0.89045 0.0521 0.0
H1334 H 0.38666 0.97271 0.03888 0.0
C1335 C 0.38969 0.88879 0.0448 0.0
H1336 H 0.33721 0.92265 0.05463 0.0
C1337 C 0.41779 0.91727 0.03578 0.0
C1338 C 0.41732 0.948 0.03374 0.0
H1339 H 0.39128 0.86578 0.04671 0.0
H1340 H 0.4405 0.9156 0.0313 0.0
C1341 C 0.38751 0.9492 0.04013 0.0
C1342 C 0.07533 0.42493 0.03836 0.0
C1343 C 0.10957 0.45203 0.04185 0.0
H1344 H 0.02242 0.40998 0.03032 0.0
C1345 C 0.11671 0.4858 0.03896 0.0
H1346 H 0.0689 0.39868 0.04073 0.0
C1347 C 0.09011 0.49221 0.03261 0.0
C1348 C 0.05587 0.46497 0.02927 0.0
H1349 H 0.14284 0.50717 0.04156 0.0
H1350 H 0.09614 0.51843 0.03076 0.0
C1351 C 0.04872 0.43136 0.03245 0.0
C1352 C 0.52364 0.64709 0.04309 0.0
C1353 C 0.55003 0.6614 0.05806 0.0
H1354 H 0.49261 0.60425 0.02352 0.0
C1355 C 0.56543 0.64252 0.06484 0.0
H1356 H 0.51112 0.66102 0.03774 0.0
C1357 C 0.55555 0.61047 0.05634 0.0
C1358 C 0.52973 0.59636 0.04099 0.0
H1359 H 0.58604 0.65307 0.07624 0.0
H1360 H 0.56864 0.59707 0.06164 0.0
C1361 C 0.51327 0.6147 0.03483 0.0
C1362 C 0.87939 0.35562 0.98379 0.0
C1363 C 0.89305 0.33749 0.97338 0.0
H1364 H 0.89006 0.40312 0.99758 0.0
C1365 C 0.92869 0.35481 0.96809 0.0
H1366 H 0.85202 0.34305 0.98803 0.0
C1367 C 0.95051 0.38889 0.97383 0.0
C1368 C 0.93732 0.40669 0.98501 0.0
H1369 H 0.9399 0.34191 0.95962 0.0
H1370 H 0.97792 0.40098 0.96977 0.0
C1371 C 0.9013 0.38993 0.98948 0.0
C1372 C 0.63486 0.52112 0.98498 0.0
C1373 C 0.66318 0.55471 0.98319 0.0
H1374 H 0.5803 0.48919 0.99211 0.0
C1375 C 0.65782 0.5822 0.98791 0.0
H1376 H 0.63824 0.49946 0.98142 0.0
C1377 C 0.62476 0.57636 0.99374 0.0
C1378 C 0.5965 0.54289 0.99563 0.0
H1379 H 0.67901 0.60836 0.98644 0.0
H1380 H 0.62118 0.59808 0.99667 0.0
C1381 C 0.60183 0.51525 0.99127 0.0
C1382 C 0.50647 0.1359 0.98098 0.0
C1383 C 0.48236 0.12734 0.96491 0.0
H1384 H 0.52855 0.1183 1.00344 0.0
C1385 C 0.45977 0.09257 0.96019 0.0
H1386 H 0.52386 0.16238 0.98525 0.0
C1387 C 0.46208 0.067 0.97091 0.0
C1388 C 0.487 0.07573 0.98658 0.0
H1389 H 0.44107 0.08514 0.9478 0.0
H1390 H 0.44483 0.0405 0.96663 0.0
C1391 C 0.50887 0.11048 0.99159 0.0
C1392 C 0.6342 0.10724 0.9873 0.0
C1393 C 0.66142 0.09961 0.98598 0.0
H1394 H 0.57926 0.08766 0.99252 0.0
C1395 C 0.65415 0.06621 0.99023 0.0
H1396 H 0.63915 0.1328 0.98408 0.0
C1397 C 0.62016 0.0406 0.99481 0.0
C1398 C 0.59288 0.04799 0.99582 0.0
H1399 H 0.67448 0.05948 0.98908 0.0
H1400 H 0.61498 0.01471 0.99711 0.0
C1401 C 0.60012 0.0816 0.99231 0.0
C1402 C 0.94682 0.58671 0.97645 0.0
C1403 C 0.91184 0.56048 0.97371 0.0
H1404 H 0.99965 0.5999 0.98327 0.0
C1405 C 0.9035 0.52641 0.97713 0.0
H1406 H 0.95425 0.61329 0.97441 0.0
C1407 C 0.9297 0.51885 0.98257 0.0
C1408 C 0.96463 0.54524 0.98491 0.0
H1409 H 0.87697 0.50552 0.97501 0.0
H1410 H 0.92281 0.49239 0.98452 0.0
C1411 C 0.97288 0.57914 0.98169 0.0
C1412 C 0.45811 0.36501 0.96354 0.0
C1413 C 0.4813 0.35262 0.96682 0.0
H1414 H 0.44422 0.40293 0.97112 0.0
C1415 C 0.50848 0.36942 0.98113 0.0
H1416 H 0.43673 0.35243 0.95273 0.0
C1417 C 0.51283 0.39834 0.99162 0.0
C1418 C 0.48995 0.41104 0.98818 0.0
H1419 H 0.52717 0.36093 0.98375 0.0
H1420 H 0.53474 0.41118 1.00204 0.0
C1421 C 0.46236 0.3939 0.97412 0.0
C1422 C 0.10316 0.64359 0.0567 0.0
C1423 C 0.13885 0.6567 0.05221 0.0
H1424 H 0.05013 0.60478 0.05055 0.0
C1425 C 0.14785 0.64058 0.03683 0.0
H1426 H 0.09523 0.65507 0.0686 0.0
C1427 C 0.12211 0.61143 0.02681 0.0
C1428 C 0.0865 0.59786 0.03154 0.0
H1429 H 0.17494 0.65024 0.03264 0.0
H1430 H 0.1304 0.59918 0.01564 0.0
C1431 C 0.07728 0.61454 0.04645 0.0
C1432 C 0.37716 0.47951 0.04315 0.0
C1433 C 0.35016 0.4453 0.04564 0.0
H1434 H 0.43154 0.51353 0.03625 0.0
C1435 C 0.35758 0.419 0.04109 0.0
H1436 H 0.37265 0.5005 0.04656 0.0
C1437 C 0.39127 0.42653 0.03555 0.0
C1438 C 0.41834 0.46052 0.0337 0.0
H1439 H 0.33743 0.39236 0.04215 0.0
H1440 H 0.3963 0.40564 0.03289 0.0
C1441 C 0.41095 0.48704 0.03725 0.0
C1442 C 0.53196 0.87847 0.03847 0.0
C1443 C 0.55992 0.89245 0.05254 0.0
H1444 H 0.49788 0.88738 0.01934 0.0
C1445 C 0.57448 0.92693 0.05834 0.0
H1446 H 0.52021 0.85197 0.03366 0.0
C1447 C 0.56204 0.94719 0.05003 0.0
C1448 C 0.53462 0.93361 0.03563 0.0
H1449 H 0.59553 0.93835 0.06944 0.0
H1450 H 0.57422 0.97365 0.05495 0.0
C1451 C 0.51943 0.89886 0.03009 0.0
C1452 C 0.04947 0.2274 0.37611 0.0
C1453 C 0.02003 0.23027 0.38135 0.0
H1454 H 0.10257 0.25284 0.36575 0.0
C1455 C 0.02161 0.26189 0.37824 0.0
H1456 H 0.04973 0.20383 0.37856 0.0
C1457 C 0.05235 0.29021 0.37119 0.0
C1458 C 0.08186 0.28738 0.36654 0.0
H1459 H 0.99936 0.26503 0.38164 0.0
H1460 H 0.05326 0.31454 0.36964 0.0
C1461 C 0.07998 0.2556 0.36878 0.0
C1462 C 0.77266 0.81889 0.38079 0.0
C1463 C 0.77096 0.78799 0.37491 0.0
H1464 H 0.74824 0.84986 0.37966 0.0
C1465 C 0.74283 0.76493 0.36242 0.0
H1466 H 0.7939 0.83732 0.39031 0.0
C1467 C 0.71695 0.77234 0.35625 0.0
C1468 C 0.71898 0.80323 0.36203 0.0
H1469 H 0.7401 0.74056 0.35795 0.0
H1470 H 0.69505 0.7537 0.34718 0.0
C1471 C 0.7468 0.8263 0.37452 0.0
C1472 C 0.18435 0.97544 0.37311 0.0
C1473 C 0.21903 0.9948 0.38009 0.0
H1474 H 0.14434 0.92692 0.36138 0.0
C1475 C 0.23977 0.97941 0.3815 0.0
H1476 H 0.16797 0.98695 0.37191 0.0
C1477 C 0.22629 0.94529 0.37585 0.0
C1478 C 0.19192 0.92594 0.36833 0.0
H1479 H 0.26653 0.99388 0.38699 0.0
H1480 H 0.2432 0.93442 0.37694 0.0
C1481 C 0.17096 0.94127 0.36706 0.0
C1482 C 0.56628 0.67502 0.33229 0.0
C1483 C 0.55615 0.66549 0.31183 0.0
H1484 H 0.5967 0.71572 0.35335 0.0
C1485 C 0.56808 0.69126 0.29694 0.0
H1486 H 0.55739 0.65597 0.3442 0.0
C1487 C 0.58988 0.72561 0.30239 0.0
C1488 C 0.60027 0.73483 0.32275 0.0
H1489 H 0.56118 0.68489 0.28101 0.0
H1490 H 0.59837 0.74496 0.2907 0.0
C1491 C 0.58829 0.70932 0.33765 0.0
C1492 C 0.29258 0.85118 0.31627 0.0
C1493 C 0.31983 0.88529 0.31429 0.0
H1494 H 0.23824 0.81748 0.32332 0.0
C1495 C 0.31284 0.91184 0.31871 0.0
H1496 H 0.29721 0.83021 0.31301 0.0
C1497 C 0.27932 0.90459 0.32446 0.0
C1498 C 0.25212 0.87064 0.32643 0.0
H1499 H 0.33311 0.93836 0.31709 0.0
H1500 H 0.2745 0.92561 0.32716 0.0
C1501 C 0.25899 0.8439 0.32238 0.0
C1502 C 0.12632 0.42855 0.29391 0.0
C1503 C 0.15013 0.46344 0.29741 0.0
H1504 H 0.11013 0.37683 0.30182 0.0
C1505 C 0.17549 0.47273 0.31285 0.0
H1506 H 0.10668 0.42055 0.282 0.0
C1507 C 0.17768 0.4477 0.32411 0.0
C1508 C 0.15444 0.41278 0.32026 0.0
H1509 H 0.19389 0.4994 0.31614 0.0
H1510 H 0.19813 0.45584 0.3355 0.0
C1511 C 0.12846 0.40348 0.3052 0.0
C1512 C 0.31881 0.39405 0.32429 0.0
C1513 C 0.32815 0.42731 0.31797 0.0
H1514 H 0.27758 0.3447 0.33335 0.0
C1515 C 0.30274 0.43754 0.31916 0.0
H1516 H 0.33779 0.38551 0.32436 0.0
C1517 C 0.26831 0.41425 0.32514 0.0
C1518 C 0.25883 0.38043 0.32992 0.0
H1519 H 0.30882 0.46284 0.31441 0.0
H1520 H 0.24872 0.42203 0.32478 0.0
C1521 C 0.28444 0.37074 0.32976 0.0
C1522 C 0.54597 0.83948 0.30699 0.0
C1523 C 0.55673 0.87448 0.3054 0.0
H1524 H 0.56162 0.80204 0.31247 0.0
C1525 C 0.59251 0.89872 0.30791 0.0
H1526 H 0.51868 0.82018 0.30511 0.0
C1527 C 0.61675 0.88832 0.31238 0.0
C1528 C 0.60571 0.85352 0.31465 0.0
H1529 H 0.60188 0.9258 0.30624 0.0
H1530 H 0.64417 0.90745 0.31403 0.0
C1531 C 0.57037 0.8291 0.3114 0.0
C1532 C 0.16722 0.69784 0.31179 0.0
C1533 C 0.14159 0.68193 0.29654 0.0
H1534 H 0.19098 0.738 0.33385 0.0
C1535 C 0.11849 0.69422 0.29269 0.0
H1536 H 0.18582 0.68938 0.31487 0.0
C1537 C 0.12132 0.7222 0.3037 0.0
C1538 C 0.14742 0.73848 0.3187 0.0
H1539 H 0.0983 0.68228 0.28112 0.0
H1540 H 0.10335 0.73127 0.30025 0.0
C1541 C 0.17018 0.72582 0.32268 0.0
C1542 C 0.75532 0.97453 0.38983 0.0
C1543 C 0.78918 0.99399 0.38178 0.0
H1544 H 0.70434 0.93051 0.38635 0.0
C1545 C 0.79709 0.98414 0.36303 0.0
H1546 H 0.74856 0.9817 0.40424 0.0
C1547 C 0.77197 0.95453 0.35291 0.0
C1548 C 0.73827 0.93466 0.36117 0.0
H1549 H 0.8231 0.99863 0.35658 0.0
H1550 H 0.7791 0.94694 0.33878 0.0
C1551 C 0.72999 0.94535 0.37953 0.0
C1552 C 0.03423 0.80749 0.37531 0.0
C1553 C 0.0071 0.77346 0.37819 0.0
H1554 H 0.08841 0.84096 0.3677 0.0
C1555 C 0.01403 0.74683 0.37365 0.0
H1556 H 0.03009 0.82872 0.3787 0.0
C1557 C 0.04739 0.75392 0.36766 0.0
C1558 C 0.07459 0.78776 0.36537 0.0
H1559 H 0.99375 0.72029 0.37501 0.0
H1560 H 0.05207 0.7328 0.365 0.0
C1561 C 0.06768 0.81457 0.36899 0.0
C1562 C 0.23889 0.2597 0.3884 0.0
C1563 C 0.22443 0.22584 0.38139 0.0
H1564 H 0.23774 0.30622 0.38749 0.0
C1565 C 0.1954 0.21247 0.36813 0.0
H1566 H 0.26076 0.27051 0.39898 0.0
C1567 C 0.18193 0.23306 0.3615 0.0
C1568 C 0.19727 0.26736 0.368 0.0
H1569 H 0.18368 0.1864 0.3625 0.0
H1570 H 0.15973 0.22216 0.3512 0.0
C1571 C 0.22548 0.28015 0.38184 0.0
C1572 C 0.68754 0.58596 0.71675 0.0
C1573 C 0.68739 0.5548 0.71813 0.0
H1574 H 0.71609 0.63866 0.70774 0.0
C1575 C 0.71518 0.55234 0.70934 0.0
H1576 H 0.66667 0.58879 0.72348 0.0
C1577 C 0.74347 0.58087 0.70056 0.0
C1578 C 0.74436 0.61239 0.69997 0.0
H1579 H 0.7156 0.52855 0.70981 0.0
H1580 H 0.76519 0.57845 0.69497 0.0
C1581 C 0.71585 0.61453 0.70782 0.0
C1582 C 0.39541 0.08563 0.71066 0.0
C1583 C 0.43 0.11235 0.71392 0.0
H1584 H 0.34313 0.07125 0.7016 0.0
C1585 C 0.43837 0.14594 0.70893 0.0
H1586 H 0.38805 0.05935 0.71382 0.0
C1587 C 0.41247 0.15264 0.70159 0.0
C1588 C 0.37784 0.12582 0.69885 0.0
H1589 H 0.46463 0.16719 0.71132 0.0
H1590 H 0.41931 0.17883 0.69862 0.0
C1591 C 0.36967 0.09233 0.70345 0.0
C1592 C 0.90446 0.30854 0.72293 0.0
C1593 C 0.88972 0.32807 0.71629 0.0
H1594 H 0.90281 0.26063 0.72206 0.0
C1595 C 0.85938 0.31234 0.70407 0.0
H1596 H 0.92731 0.31965 0.73278 0.0
C1597 C 0.84497 0.27809 0.69796 0.0
C1598 C 0.86076 0.25905 0.70389 0.0
H1599 H 0.84736 0.32676 0.69876 0.0
H1600 H 0.82178 0.26674 0.68844 0.0
C1601 C 0.89019 0.27451 0.71684 0.0
C1602 C 0.19997 0.01775 0.65442 0.0
C1603 C 0.2106 0.0022 0.63961 0.0
H1604 H 0.21392 0.06259 0.67232 0.0
C1605 C 0.24448 0.0206 0.63151 0.0
H1606 H 0.17382 0.00405 0.66076 0.0
C1607 C 0.26783 0.05358 0.63859 0.0
C1608 C 0.2576 0.06911 0.65373 0.0
H1609 H 0.25329 0.00901 0.62014 0.0
H1610 H 0.29403 0.06666 0.63231 0.0
C1611 C 0.22308 0.05112 0.66116 0.0
C1612 C 0.97899 0.24274 0.65003 0.0
C1613 C 0.98583 0.21604 0.64569 0.0
H1614 H 0.94163 0.2569 0.65989 0.0
C1615 C 0.95973 0.18222 0.65017 0.0
H1616 H 0.99869 0.26915 0.64734 0.0
C1617 C 0.92696 0.17528 0.65772 0.0
C1618 C 0.91993 0.20208 0.66113 0.0
H1619 H 0.96406 0.16103 0.64703 0.0
H1620 H 0.90675 0.14895 0.66006 0.0
C1621 C 0.94643 0.23581 0.65745 0.0
C1622 C 0.78173 0.75389 0.62836 0.0
C1623 C 0.80548 0.78879 0.63189 0.0
H1624 H 0.76666 0.70213 0.63557 0.0
C1625 C 0.83217 0.79807 0.64646 0.0
H1626 H 0.76068 0.74595 0.61738 0.0
C1627 C 0.8356 0.77305 0.65688 0.0
C1628 C 0.81235 0.73813 0.65305 0.0
H1629 H 0.85126 0.82471 0.6493 0.0
H1630 H 0.85716 0.78121 0.66751 0.0
C1631 C 0.78511 0.7288 0.63884 0.0
C1632 C 0.97881 0.72373 0.65295 0.0
C1633 C 0.98686 0.75703 0.64754 0.0
H1634 H 0.93904 0.67339 0.66157 0.0
C1635 C 0.96061 0.766 0.64966 0.0
H1636 H 0.99847 0.71607 0.65228 0.0
C1637 C 0.9267 0.74162 0.6558 0.0
C1638 C 0.91852 0.70791 0.6598 0.0
H1639 H 0.96565 0.79127 0.64558 0.0
H1640 H 0.90649 0.74858 0.65624 0.0
C1641 C 0.94491 0.69933 0.65859 0.0
C1642 C 0.22424 0.18264 0.64616 0.0
C1643 C 0.23166 0.21474 0.6388 0.0
H1644 H 0.24529 0.15179 0.65701 0.0
C1645 C 0.26661 0.24124 0.63777 0.0
H1646 H 0.19743 0.16181 0.647 0.0
C1647 C 0.29376 0.23588 0.64406 0.0
C1648 C 0.28656 0.20384 0.6514 0.0
H1649 H 0.2729 0.26622 0.63217 0.0
H1650 H 0.32051 0.25682 0.64307 0.0
C1651 C 0.25156 0.17704 0.65205 0.0
C1652 C 0.83809 0.03144 0.64799 0.0
C1653 C 0.81299 0.01562 0.63246 0.0
H1654 H 0.86017 0.0706 0.67075 0.0
C1655 C 0.78878 0.02669 0.62898 0.0
H1656 H 0.85675 0.02313 0.65126 0.0
C1657 C 0.79045 0.05384 0.64037 0.0
C1658 C 0.81629 0.07032 0.65549 0.0
H1659 H 0.76926 0.01511 0.61702 0.0
H1660 H 0.77197 0.06233 0.637 0.0
C1661 C 0.83978 0.05848 0.65933 0.0
C1662 C 0.47077 0.30248 0.70533 0.0
C1663 C 0.46071 0.3214 0.71796 0.0
H1664 H 0.45438 0.2581 0.68657 0.0
C1665 C 0.42484 0.30999 0.72034 0.0
H1666 H 0.49814 0.31017 0.70345 0.0
C1667 C 0.39962 0.28 0.71062 0.0
C1668 C 0.40972 0.26074 0.69832 0.0
H1669 H 0.41623 0.32416 0.7298 0.0
H1670 H 0.37222 0.27176 0.71296 0.0
C1671 C 0.44561 0.2725 0.69567 0.0
C1672 C 0.70564 0.14632 0.7102 0.0
C1673 C 0.679 0.11394 0.71647 0.0
H1674 H 0.75889 0.17651 0.70004 0.0
C1675 C 0.68523 0.08635 0.7161 0.0
H1676 H 0.70139 0.16798 0.71045 0.0
C1677 C 0.71753 0.09096 0.70965 0.0
C1678 C 0.74441 0.1233 0.70352 0.0
H1679 H 0.66503 0.06116 0.72086 0.0
H1680 H 0.72166 0.06921 0.70967 0.0
C1681 C 0.73833 0.15109 0.70409 0.0
C1682 C 0.89599 0.58384 0.72183 0.0
C1683 C 0.88272 0.55056 0.71406 0.0
H1684 H 0.89522 0.63055 0.72066 0.0
C1685 C 0.85622 0.53836 0.69913 0.0
H1686 H 0.9167 0.59411 0.73317 0.0
C1687 C 0.84365 0.55935 0.69189 0.0
C1688 C 0.85784 0.59312 0.69918 0.0
H1689 H 0.84526 0.51263 0.69303 0.0
H1690 H 0.82306 0.54916 0.68053 0.0
C1691 C 0.88378 0.60486 0.71447 0.0
C1692 C 0.46835 0.96715 0.17474 0.0
C1693 C 0.4931 0.97452 0.19036 0.0
H1694 H 0.45902 0.97785 0.14418 0.0
C1695 C 0.52844 0.99844 0.18645 0.0
H1696 H 0.44095 0.94874 0.1772 0.0
C1697 C 0.53872 0.01497 0.16764 0.0
C1698 C 0.51401 0.0081 0.15213 0.0
H1699 H 0.54821 0.00519 0.19815 0.0
H1700 H 0.56615 0.03338 0.16528 0.0
C1701 C 0.47873 0.98361 0.15578 0.0
C1702 C 0.01559 0.53585 0.17646 0.0
C1703 C 0.03581 0.51984 0.17844 0.0
H1704 H 0.97998 0.54316 0.15781 0.0
C1705 C 0.03261 0.49585 0.16354 0.0
H1706 H 0.0177 0.55471 0.18756 0.0
C1707 C 0.01118 0.48942 0.14649 0.0
C1708 C 0.99236 0.50672 0.144 0.0
H1709 H 0.04725 0.48255 0.16483 0.0
H1710 H 0.00992 0.47144 0.13499 0.0
C1711 C 0.994 0.52929 0.15942 0.0
C1712 C 0.48347 0.49777 0.1775 0.0
C1713 C 0.50786 0.50967 0.19366 0.0
H1714 H 0.47332 0.48231 0.14606 0.0
C1715 C 0.54209 0.5164 0.1897 0.0
H1716 H 0.45698 0.49263 0.1799 0.0
C1717 C 0.55162 0.51112 0.17025 0.0
C1718 C 0.52712 0.49856 0.15419 0.0
H1719 H 0.56152 0.52503 0.20175 0.0
H1720 H 0.5783 0.51681 0.16785 0.0
C1721 C 0.49298 0.49225 0.15801 0.0
C1722 C 0.98839 0.47645 0.84497 0.0
C1723 C 0.00993 0.49647 0.82889 0.0
H1724 H 0.98502 0.46269 0.87645 0.0
C1725 C 0.04546 0.51964 0.83301 0.0
H1726 H 0.96083 0.45863 0.84242 0.0
C1727 C 0.0592 0.52238 0.85259 0.0
C1728 C 0.03784 0.50188 0.86857 0.0
H1729 H 0.06296 0.53519 0.82098 0.0
H1730 H 0.08665 0.54056 0.85518 0.0
C1731 C 1.00218 0.47909 0.86456 0.0
C1732 C 0.51435 0.45815 0.8594 0.0
C1733 C 0.52259 0.47833 0.84177 0.0
H1734 H 0.49488 0.44969 0.88998 0.0
C1735 C 0.51689 0.50634 0.84183 0.0
H1736 H 0.51772 0.43597 0.85973 0.0
C1737 C 0.50386 0.51433 0.85927 0.0
C1738 C 0.49613 0.4944 0.87701 0.0
H1739 H 0.52325 0.52256 0.82855 0.0
H1740 H 0.50058 0.53656 0.85899 0.0
C1741 C 0.50126 0.46605 0.87677 0.0
C1742 C 0.52382 0.02991 0.84856 0.0
C1743 C 0.49854 0.01738 0.83287 0.0
H1744 H 0.53592 0.02465 0.87964 0.0
C1745 C 0.46437 0.99141 0.83754 0.0
H1746 H 0.55041 0.04987 0.84544 0.0
C1747 C 0.45599 0.97725 0.85706 0.0
C1748 C 0.4816 0.98835 0.87253 0.0
H1749 H 0.44407 0.98169 0.82595 0.0
H1750 H 0.42938 0.95714 0.85994 0.0
C1751 C 0.51547 0.01548 0.86817 0.0
C1752 C 0.16642 0.35207 0.52236 0.0
C1753 C 0.16089 0.31902 0.52589 0.0
H1754 H 0.1801 0.39242 0.501 0.0
C1755 C 0.16342 0.30043 0.50924 0.0
H1756 H 0.16387 0.36683 0.53468 0.0
C1757 C 0.17295 0.31527 0.48978 0.0
C1758 C 0.18006 0.34899 0.48653 0.0
H1759 H 0.15941 0.27495 0.51143 0.0
H1760 H 0.17609 0.30084 0.47749 0.0
C1761 C 0.17578 0.36678 0.503 0.0
C1762 C 0.68259 0.82875 0.50789 0.0
C1763 C 0.70868 0.86311 0.51098 0.0
H1764 H 0.6409 0.79256 0.48869 0.0
C1765 C 0.71099 0.88793 0.4972 0.0
H1766 H 0.6803 0.80893 0.51808 0.0
C1767 C 0.68873 0.87848 0.48032 0.0
C1768 C 0.66341 0.84405 0.47692 0.0
H1769 H 0.73019 0.91473 0.49938 0.0
H1770 H 0.69144 0.89811 0.46983 0.0
C1771 C 0.66008 0.81933 0.49105 0.0
C1772 C 0.17806 0.86138 0.51072 0.0
C1773 C 0.15746 0.83409 0.52386 0.0
H1774 H 0.20279 0.87644 0.48136 0.0
C1775 C 0.14506 0.80038 0.51703 0.0
H1776 H 0.18791 0.88758 0.51569 0.0
C1777 C 0.15416 0.79408 0.49766 0.0
C1778 C 0.17514 0.82136 0.48463 0.0
H1779 H 0.12938 0.77896 0.52695 0.0
H1780 H 0.14509 0.76791 0.49291 0.0
C1781 C 0.18647 0.85503 0.49115 0.0
C1782 C 0.66698 0.82452 0.19139 0.0
C1783 C 0.67069 0.84714 0.17562 0.0
H1784 H 0.68284 0.81916 0.22156 0.0
C1785 C 0.6927 0.88247 0.17876 0.0
H1786 H 0.65014 0.79717 0.18935 0.0
C1787 C 0.71168 0.89487 0.19691 0.0
C1788 C 0.70862 0.87229 0.21247 0.0
H1789 H 0.69635 0.90045 0.16681 0.0
H1790 H 0.7293 0.92216 0.19867 0.0
C1791 C 0.68551 0.83705 0.20978 0.0
C1792 C 0.18908 0.84285 0.17591 0.0
C1793 C 0.18495 0.80994 0.17378 0.0
H1794 H 0.17925 0.87682 0.19422 0.0
C1795 C 0.16558 0.7853 0.18872 0.0
H1796 H 0.20412 0.86265 0.16491 0.0
C1797 C 0.15196 0.79367 0.20566 0.0
C1798 C 0.15675 0.8267 0.20795 0.0
H1799 H 0.16094 0.75942 0.18741 0.0
H1800 H 0.13759 0.77425 0.217 0.0
C1801 C 0.17495 0.85106 0.19275 0.0
C1802 C 0.16067 0.37595 0.18277 0.0
C1803 C 0.18087 0.36942 0.16873 0.0
H1804 H 0.13577 0.36464 0.21224 0.0
C1805 C 0.19251 0.34671 0.17431 0.0
H1806 H 0.15135 0.39332 0.1789 0.0
C1807 C 0.18313 0.32998 0.19313 0.0
C1808 C 0.16248 0.33604 0.20701 0.0
H1809 H 0.20777 0.34084 0.16377 0.0
H1810 H 0.19157 0.31181 0.19673 0.0
C1811 C 0.1519 0.35971 0.20185 0.0
C1812 C 0.85844 0.64754 0.84878 0.0
C1813 C 0.82372 0.63511 0.8552 0.0
H1814 H 0.89694 0.67351 0.82556 0.0
C1815 C 0.80027 0.63785 0.84184 0.0
H1816 H 0.87726 0.64618 0.85878 0.0
C1817 C 0.81151 0.65319 0.82264 0.0
C1818 C 0.8466 0.66676 0.81664 0.0
H1819 H 0.77336 0.62847 0.84635 0.0
H1820 H 0.79312 0.65556 0.8128 0.0
C1821 C 0.86979 0.6634 0.82982 0.0
C1822 C 0.3901 0.22021 0.82808 0.0
C1823 C 0.37782 0.20018 0.84574 0.0
H1824 H 0.37832 0.22979 0.79807 0.0
C1825 C 0.34256 0.1741 0.84662 0.0
H1826 H 0.41692 0.24101 0.82715 0.0
C1827 C 0.32036 0.16748 0.82983 0.0
C1828 C 0.33301 0.18694 0.81193 0.0
H1829 H 0.33244 0.15825 0.86005 0.0
H1830 H 0.29363 0.14649 0.83065 0.0
C1831 C 0.36796 0.21376 0.81142 0.0
C1832 C 0.8266 0.13709 0.85553 0.0
C1833 C 0.82324 0.1659 0.85985 0.0
H1834 H 0.84041 0.11044 0.8336 0.0
C1835 C 0.83022 0.1897 0.84421 0.0
H1836 H 0.82185 0.11844 0.86725 0.0
C1837 C 0.8411 0.18518 0.82489 0.0
C1838 C 0.84556 0.15694 0.82083 0.0
H1839 H 0.82765 0.21204 0.84699 0.0
H1840 H 0.84709 0.20439 0.81333 0.0
C1841 C 0.83767 0.13271 0.8363 0.0
C1842 C 0.3145 0.13204 0.51282 0.0
C1843 C 0.33196 0.15737 0.49799 0.0
H1844 H 0.31503 0.11577 0.54344 0.0
C1845 C 0.3638 0.18673 0.50316 0.0
H1846 H 0.28987 0.10921 0.50924 0.0
C1847 C 0.3783 0.19033 0.52261 0.0
C1848 C 0.36106 0.16484 0.53736 0.0
H1849 H 0.378 0.2065 0.49198 0.0
H1850 H 0.40306 0.21305 0.52611 0.0
C1851 C 0.32879 0.13586 0.53238 0.0
C1852 C 0.81886 0.14954 0.50654 0.0
C1853 C 0.85082 0.14959 0.50625 0.0
H1854 H 0.78078 0.15426 0.52424 0.0
C1855 C 0.8696 0.15627 0.52471 0.0
H1856 H 0.80373 0.14511 0.49271 0.0
C1857 C 0.85703 0.16296 0.54277 0.0
C1858 C 0.82484 0.16245 0.54312 0.0
H1859 H 0.89397 0.15598 0.52538 0.0
H1860 H 0.87288 0.16883 0.55642 0.0
C1861 C 0.80591 0.15548 0.5247 0.0
C1862 C 0.84988 0.7022 0.51574 0.0
C1863 C 0.82657 0.68837 0.49906 0.0
H1864 H 0.86058 0.69673 0.54703 0.0
C1865 C 0.79429 0.65829 0.50228 0.0
H1866 H 0.87478 0.72556 0.51409 0.0
C1867 C 0.7858 0.64232 0.5213 0.0
C1868 C 0.80951 0.65537 0.53777 0.0
H1869 H 0.77569 0.64626 0.48993 0.0
H1870 H 0.76057 0.61935 0.52298 0.0
C1871 C 0.84151 0.68588 0.53481 0.0
loop_
_geom_bond_atom_site_label_1
_geom_bond_atom_site_label_2
_geom_bond_distance
_geom_bond_site_symmetry_2
_ccdc_geom_bond_type
P0 O11 1.490 . S
P0 C14 1.812 . S
P0 C20 1.803 . S
P0 C26 1.819 . S
H1 C15 0.941 . S
H2 C16 0.939 . S
H3 C18 0.940 . S
H4 C19 0.940 . S
H5 C21 0.939 . S
H6 C22 0.942 . S
H7 C24 0.940 . S
H8 C25 0.939 . S
H9 C27 0.941 . S
H10 C31 0.939 . S
O11 P0 1.490 . S
H12 C28 0.939 . S
H13 C30 0.940 . S
C14 P0 1.812 . S
C14 C15 1.389 . S
C14 C19 1.391 . S
C15 H1 0.941 . S
C15 C14 1.389 . S
C15 C16 1.397 . S
C16 H2 0.939 . S
C16 C15 1.397 . S
C16 C17 1.378 . S
C17 C16 1.378 . S
C17 C18 1.378 . S
C18 H3 0.940 . S
C18 C17 1.378 . S
C18 C19 1.396 . S
C19 H4 0.940 . S
C19 C14 1.391 . S
C19 C18 1.396 . S
C20 P0 1.803 . S
C20 C21 1.378 . S
C20 C25 1.400 . S
C21 H5 0.939 . S
C21 C20 1.378 . S
C21 C22 1.361 . S
C22 H6 0.942 . S
C22 C21 1.361 . S
C22 C23 1.369 . S
C23 C22 1.369 . S
C23 C24 1.404 . S
C24 H7 0.940 . S
C24 C23 1.404 . S
C24 C25 1.389 . S
C25 H8 0.939 . S
C25 C20 1.400 . S
C25 C24 1.389 . S
C26 P0 1.819 . S
C26 C27 1.391 . S
C26 C31 1.391 . S
C27 H9 0.941 . S
C27 C26 1.391 . S
C27 C28 1.396 . S
C28 H12 0.939 . S
C28 C27 1.396 . S
C28 C29 1.397 . S
C29 C28 1.397 . S
C29 C30 1.385 . S
C30 H13 0.940 . S
C30 C29 1.385 . S
C30 C31 1.388 . S
C31 H10 0.939 . S
C31 C26 1.391 . S
C31 C30 1.388 . S
P32 O43 1.490 . S
P32 C46 1.812 . S
P32 C52 1.803 . S
P32 C58 1.819 . S
H33 C47 0.941 . S
H34 C48 0.939 . S
H35 C50 0.940 . S
H36 C51 0.940 . S
H37 C53 0.939 . S
H38 C54 0.942 1_455 S
H39 C56 0.940 . S
H40 C57 0.939 . S
H41 C59 0.941 . S
H42 C63 0.939 . S
O43 P32 1.490 . S
H44 C60 0.939 . S
H45 C62 0.940 . S
C46 P32 1.812 . S
C46 C47 1.389 . S
C46 C51 1.391 . S
C47 H33 0.941 . S
C47 C46 1.389 . S
C47 C48 1.397 . S
C48 H34 0.939 . S
C48 C47 1.397 . S
C48 C49 1.378 . S
C49 C48 1.378 . S
C49 C50 1.378 . S
C50 H35 0.940 . S
C50 C49 1.378 . S
C50 C51 1.396 . S
C51 H36 0.940 . S
C51 C46 1.391 . S
C51 C50 1.396 . S
C52 P32 1.803 . S
C52 C53 1.378 . S
C52 C57 1.400 . S
C53 H37 0.939 . S
C53 C52 1.378 . S
C53 C54 1.361 . S
C54 H38 0.942 1_655 S
C54 C53 1.361 . S
C54 C55 1.369 . S
C55 C54 1.369 . S
C55 C56 1.404 . S
C56 H39 0.940 . S
C56 C55 1.404 . S
C56 C57 1.389 . S
C57 H40 0.939 . S
C57 C52 1.400 . S
C57 C56 1.389 . S
C58 P32 1.819 . S
C58 C59 1.391 . S
C58 C63 1.391 . S
C59 H41 0.941 . S
C59 C58 1.391 . S
C59 C60 1.396 . S
C60 H44 0.939 . S
C60 C59 1.396 . S
C60 C61 1.397 . S
C61 C60 1.397 . S
C61 C62 1.385 . S
C62 H45 0.940 . S
C62 C61 1.385 . S
C62 C63 1.388 . S
C63 H42 0.939 . S
C63 C58 1.391 . S
C63 C62 1.388 . S
P64 O75 1.490 . S
P64 C78 1.812 . S
P64 C84 1.803 . S
P64 C90 1.819 . S
H65 C79 0.941 . S
H66 C80 0.939 . S
H67 C82 0.940 . S
H68 C83 0.940 . S
H69 C85 0.939 . S
H70 C86 0.942 . S
H71 C88 0.940 . S
H72 C89 0.939 . S
H73 C91 0.941 . S
H74 C95 0.939 . S
O75 P64 1.490 . S
H76 C92 0.939 . S
H77 C94 0.940 . S
C78 P64 1.812 . S
C78 C79 1.389 . S
C78 C83 1.391 . S
C79 H65 0.941 . S
C79 C78 1.389 . S
C79 C80 1.397 . S
C80 H66 0.939 . S
C80 C79 1.397 . S
C80 C81 1.378 . S
C81 C80 1.378 . S
C81 C82 1.378 . S
C82 H67 0.940 . S
C82 C81 1.378 . S
C82 C83 1.396 . S
C83 H68 0.940 . S
C83 C78 1.391 . S
C83 C82 1.396 . S
C84 P64 1.803 . S
C84 C85 1.378 . S
C84 C89 1.400 . S
C85 H69 0.939 . S
C85 C84 1.378 . S
C85 C86 1.361 . S
C86 H70 0.942 . S
C86 C85 1.361 . S
C86 C87 1.369 . S
C87 C86 1.369 . S
C87 C88 1.404 . S
C88 H71 0.940 . S
C88 C87 1.404 . S
C88 C89 1.389 . S
C89 H72 0.939 . S
C89 C84 1.400 . S
C89 C88 1.389 . S
C90 P64 1.819 . S
C90 C91 1.391 . S
C90 C95 1.391 . S
C91 H73 0.941 . S
C91 C90 1.391 . S
C91 C92 1.396 . S
C92 H76 0.939 . S
C92 C91 1.396 . S
C92 C93 1.397 . S
C93 C92 1.397 . S
C93 C94 1.385 . S
C94 H77 0.940 . S
C94 C93 1.385 . S
C94 C95 1.388 . S
C95 H74 0.939 . S
C95 C90 1.391 . S
C95 C94 1.388 . S
P96 O107 1.490 . S
P96 C110 1.812 . S
P96 C116 1.803 . S
P96 C122 1.819 . S
H97 C111 0.941 . S
H98 C112 0.939 . S
H99 C114 0.940 . S
H100 C115 0.940 . S
H101 C117 0.939 . S
H102 C118 0.942 . S
H103 C120 0.940 . S
H104 C121 0.939 . S
H105 C123 0.941 . S
H106 C127 0.939 . S
O107 P96 1.490 . S
H108 C124 0.939 . S
H109 C126 0.940 . S
C110 P96 1.812 . S
C110 C111 1.389 . S
C110 C115 1.391 . S
C111 H97 0.941 . S
C111 C110 1.389 . S
C111 C112 1.397 . S
C112 H98 0.939 . S
C112 C111 1.397 . S
C112 C113 1.378 . S
C113 C112 1.378 . S
C113 C114 1.378 . S
C114 H99 0.940 . S
C114 C113 1.378 . S
C114 C115 1.396 . S
C115 H100 0.940 . S
C115 C110 1.391 . S
C115 C114 1.396 . S
C116 P96 1.803 . S
C116 C117 1.378 . S
C116 C121 1.400 . S
C117 H101 0.939 . S
C117 C116 1.378 . S
C117 C118 1.361 . S
C118 H102 0.942 . S
C118 C117 1.361 . S
C118 C119 1.369 . S
C119 C118 1.369 . S
C119 C120 1.404 . S
C120 H103 0.940 . S
C120 C119 1.404 . S
C120 C121 1.389 . S
C121 H104 0.939 . S
C121 C116 1.400 . S
C121 C120 1.389 . S
C122 P96 1.819 . S
C122 C123 1.391 . S
C122 C127 1.391 . S
C123 H105 0.941 . S
C123 C122 1.391 . S
C123 C124 1.396 . S
C124 H108 0.939 . S
C124 C123 1.396 . S
C124 C125 1.397 . S
C125 C124 1.397 . S
C125 C126 1.385 . S
C126 H109 0.940 . S
C126 C125 1.385 . S
C126 C127 1.388 . S
C127 H106 0.939 . S
C127 C122 1.391 . S
C127 C126 1.388 . S
P128 O139 1.490 . S
P128 C142 1.812 . S
P128 C148 1.803 . S
P128 C154 1.819 . S
H129 C143 0.941 . S
H130 C144 0.939 . S
H131 C146 0.940 . S
H132 C147 0.940 . S
H133 C149 0.939 . S
H134 C150 0.942 . S
H135 C152 0.940 . S
H136 C153 0.939 . S
H137 C155 0.941 . S
H138 C159 0.939 . S
O139 P128 1.490 . S
H140 C156 0.939 . S
H141 C158 0.940 . S
C142 P128 1.812 . S
C142 C143 1.389 . S
C142 C147 1.391 . S
C143 H129 0.941 . S
C143 C142 1.389 . S
C143 C144 1.397 . S
C144 H130 0.939 . S
C144 C143 1.397 . S
C144 C145 1.378 . S
C145 C144 1.378 . S
C145 C146 1.378 . S
C146 H131 0.940 . S
C146 C145 1.378 . S
C146 C147 1.396 . S
C147 H132 0.940 . S
C147 C142 1.391 . S
C147 C146 1.396 . S
C148 P128 1.803 . S
C148 C149 1.378 . S
C148 C153 1.400 . S
C149 H133 0.939 . S
C149 C148 1.378 . S
C149 C150 1.361 . S
C150 H134 0.942 . S
C150 C149 1.361 . S
C150 C151 1.369 . S
C151 C150 1.369 . S
C151 C152 1.404 . S
C152 H135 0.940 . S
C152 C151 1.404 . S
C152 C153 1.389 . S
C153 H136 0.939 . S
C153 C148 1.400 . S
C153 C152 1.389 . S
C154 P128 1.819 . S
C154 C155 1.391 . S
C154 C159 1.391 . S
C155 H137 0.941 . S
C155 C154 1.391 . S
C155 C156 1.396 . S
C156 H140 0.939 . S
C156 C155 1.396 . S
C156 C157 1.397 . S
C157 C156 1.397 . S
C157 C158 1.385 . S
C158 H141 0.940 . S
C158 C157 1.385 . S
C158 C159 1.388 . S
C159 H138 0.939 . S
C159 C154 1.391 . S
C159 C158 1.388 . S
P160 O171 1.490 . S
P160 C174 1.812 . S
P160 C180 1.803 . S
P160 C186 1.819 . S
H161 C175 0.941 . S
H162 C176 0.939 . S
H163 C178 0.940 . S
H164 C179 0.940 . S
H165 C181 0.939 . S
H166 C182 0.942 . S
H167 C184 0.940 . S
H168 C185 0.939 . S
H169 C187 0.941 . S
H170 C191 0.939 . S
O171 P160 1.490 . S
H172 C188 0.939 . S
H173 C190 0.940 . S
C174 P160 1.812 . S
C174 C175 1.389 . S
C174 C179 1.391 . S
C175 H161 0.941 . S
C175 C174 1.389 . S
C175 C176 1.397 . S
C176 H162 0.939 . S
C176 C175 1.397 . S
C176 C177 1.378 . S
C177 C176 1.378 . S
C177 C178 1.378 . S
C178 H163 0.940 . S
C178 C177 1.378 . S
C178 C179 1.396 . S
C179 H164 0.940 . S
C179 C174 1.391 . S
C179 C178 1.396 . S
C180 P160 1.803 . S
C180 C181 1.378 . S
C180 C185 1.400 . S
C181 H165 0.939 . S
C181 C180 1.378 . S
C181 C182 1.361 . S
C182 H166 0.942 . S
C182 C181 1.361 . S
C182 C183 1.369 . S
C183 C182 1.369 . S
C183 C184 1.404 . S
C184 H167 0.940 . S
C184 C183 1.404 . S
C184 C185 1.389 . S
C185 H168 0.939 . S
C185 C180 1.400 . S
C185 C184 1.389 . S
C186 P160 1.819 . S
C186 C187 1.391 . S
C186 C191 1.391 . S
C187 H169 0.941 . S
C187 C186 1.391 . S
C187 C188 1.396 . S
C188 H172 0.939 . S
C188 C187 1.396 . S
C188 C189 1.397 . S
C189 C188 1.397 . S
C189 C190 1.385 . S
C190 H173 0.940 . S
C190 C189 1.385 . S
C190 C191 1.388 . S
C191 H170 0.939 . S
C191 C186 1.391 . S
C191 C190 1.388 . S
P192 O203 1.490 . S
P192 C206 1.812 . S
P192 C212 1.803 . S
P192 C218 1.819 . S
H193 C207 0.941 . S
H194 C208 0.939 . S
H195 C210 0.940 . S
H196 C211 0.940 . S
H197 C213 0.939 . S
H198 C214 0.942 . S
H199 C216 0.940 . S
H200 C217 0.939 . S
H201 C219 0.941 . S
H202 C223 0.939 . S
O203 P192 1.490 . S
H204 C220 0.939 . S
H205 C222 0.940 . S
C206 P192 1.812 . S
C206 C207 1.389 . S
C206 C211 1.391 . S
C207 H193 0.941 . S
C207 C206 1.389 . S
C207 C208 1.397 . S
C208 H194 0.939 . S
C208 C207 1.397 . S
C208 C209 1.378 . S
C209 C208 1.378 . S
C209 C210 1.378 . S
C210 H195 0.940 . S
C210 C209 1.378 . S
C210 C211 1.396 . S
C211 H196 0.940 . S
C211 C206 1.391 . S
C211 C210 1.396 . S
C212 P192 1.803 . S
C212 C213 1.378 . S
C212 C217 1.400 . S
C213 H197 0.939 . S
C213 C212 1.378 . S
C213 C214 1.361 . S
C214 H198 0.942 . S
C214 C213 1.361 . S
C214 C215 1.369 . S
C215 C214 1.369 . S
C215 C216 1.404 . S
C216 H199 0.940 . S
C216 C215 1.404 . S
C216 C217 1.389 . S
C217 H200 0.939 . S
C217 C212 1.400 . S
C217 C216 1.389 . S
C218 P192 1.819 . S
C218 C219 1.391 . S
C218 C223 1.391 . S
C219 H201 0.941 . S
C219 C218 1.391 . S
C219 C220 1.396 . S
C220 H204 0.939 . S
C220 C219 1.396 . S
C220 C221 1.397 . S
C221 C220 1.397 . S
C221 C222 1.385 . S
C222 H205 0.940 . S
C222 C221 1.385 . S
C222 C223 1.388 . S
C223 H202 0.939 . S
C223 C218 1.391 . S
C223 C222 1.388 . S
P224 O235 1.490 . S
P224 C238 1.812 . S
P224 C244 1.803 . S
P224 C250 1.819 . S
H225 C239 0.941 . S
H226 C240 0.939 . S
H227 C242 0.940 . S
H228 C243 0.940 . S
H229 C245 0.939 . S
H230 C246 0.942 . S
H231 C248 0.940 . S
H232 C249 0.939 . S
H233 C251 0.941 . S
H234 C255 0.939 . S
O235 P224 1.490 . S
H236 C252 0.939 . S
H237 C254 0.940 . S
C238 P224 1.812 . S
C238 C239 1.389 . S
C238 C243 1.391 . S
C239 H225 0.941 . S
C239 C238 1.389 . S
C239 C240 1.397 . S
C240 H226 0.939 . S
C240 C239 1.397 . S
C240 C241 1.378 . S
C241 C240 1.378 . S
C241 C242 1.378 . S
C242 H227 0.940 . S
C242 C241 1.378 . S
C242 C243 1.396 . S
C243 H228 0.940 . S
C243 C238 1.391 . S
C243 C242 1.396 . S
C244 P224 1.803 . S
C244 C245 1.378 . S
C244 C249 1.400 . S
C245 H229 0.939 . S
C245 C244 1.378 . S
C245 C246 1.361 . S
C246 H230 0.942 . S
C246 C245 1.361 . S
C246 C247 1.369 . S
C247 C246 1.369 . S
C247 C248 1.404 . S
C248 H231 0.940 . S
C248 C247 1.404 . S
C248 C249 1.389 . S
C249 H232 0.939 . S
C249 C244 1.400 . S
C249 C248 1.389 . S
C250 P224 1.819 . S
C250 C251 1.391 . S
C250 C255 1.391 . S
C251 H233 0.941 . S
C251 C250 1.391 . S
C251 C252 1.396 . S
C252 H236 0.939 . S
C252 C251 1.396 . S
C252 C253 1.397 . S
C253 C252 1.397 . S
C253 C254 1.385 . S
C254 H237 0.940 . S
C254 C253 1.385 . S
C254 C255 1.388 . S
C255 H234 0.939 . S
C255 C250 1.391 . S
C255 C254 1.388 . S
P256 O267 1.490 . S
P256 C270 1.812 . S
P256 C276 1.803 . S
P256 C282 1.819 . S
H257 C271 0.941 . S
H258 C272 0.939 . S
H259 C274 0.940 . S
H260 C275 0.940 . S
H261 C277 0.939 . S
H262 C278 0.942 . S
H263 C280 0.940 . S
H264 C281 0.939 . S
H265 C283 0.941 . S
H266 C287 0.939 . S
O267 P256 1.490 . S
H268 C284 0.939 . S
H269 C286 0.940 . S
C270 P256 1.812 . S
C270 C271 1.389 . S
C270 C275 1.391 . S
C271 H257 0.941 . S
C271 C270 1.389 . S
C271 C272 1.397 . S
C272 H258 0.939 . S
C272 C271 1.397 . S
C272 C273 1.378 . S
C273 C272 1.378 . S
C273 C274 1.378 . S
C274 H259 0.940 . S
C274 C273 1.378 . S
C274 C275 1.396 . S
C275 H260 0.940 . S
C275 C270 1.391 . S
C275 C274 1.396 . S
C276 P256 1.803 . S
C276 C277 1.378 . S
C276 C281 1.400 . S
C277 H261 0.939 . S
C277 C276 1.378 . S
C277 C278 1.361 . S
C278 H262 0.942 . S
C278 C277 1.361 . S
C278 C279 1.369 . S
C279 C278 1.369 . S
C279 C280 1.404 . S
C280 H263 0.940 . S
C280 C279 1.404 . S
C280 C281 1.389 . S
C281 H264 0.939 . S
C281 C276 1.400 . S
C281 C280 1.389 . S
C282 P256 1.819 . S
C282 C283 1.391 . S
C282 C287 1.391 . S
C283 H265 0.941 . S
C283 C282 1.391 . S
C283 C284 1.396 . S
C284 H268 0.939 . S
C284 C283 1.396 . S
C284 C285 1.397 . S
C285 C284 1.397 . S
C285 C286 1.385 . S
C286 H269 0.940 . S
C286 C285 1.385 . S
C286 C287 1.388 . S
C287 H266 0.939 . S
C287 C282 1.391 . S
C287 C286 1.388 . S
P288 O299 1.490 . S
P288 C302 1.812 . S
P288 C308 1.803 . S
P288 C314 1.819 . S
H289 C303 0.941 . S
H290 C304 0.939 . S
H291 C306 0.940 . S
H292 C307 0.940 . S
H293 C309 0.939 . S
H294 C310 0.942 . S
H295 C312 0.940 . S
H296 C313 0.939 . S
H297 C315 0.941 . S
H298 C319 0.939 . S
O299 P288 1.490 . S
H300 C316 0.939 . S
H301 C318 0.940 . S
C302 P288 1.812 . S
C302 C303 1.389 . S
C302 C307 1.391 . S
C303 H289 0.941 . S
C303 C302 1.389 . S
C303 C304 1.397 . S
C304 H290 0.939 . S
C304 C303 1.397 . S
C304 C305 1.378 . S
C305 C304 1.378 . S
C305 C306 1.378 . S
C306 H291 0.940 . S
C306 C305 1.378 . S
C306 C307 1.396 . S
C307 H292 0.940 . S
C307 C302 1.391 . S
C307 C306 1.396 . S
C308 P288 1.803 . S
C308 C309 1.378 . S
C308 C313 1.400 . S
C309 H293 0.939 . S
C309 C308 1.378 . S
C309 C310 1.361 . S
C310 H294 0.942 . S
C310 C309 1.361 . S
C310 C311 1.369 . S
C311 C310 1.369 . S
C311 C312 1.404 . S
C312 H295 0.940 . S
C312 C311 1.404 . S
C312 C313 1.389 . S
C313 H296 0.939 . S
C313 C308 1.400 . S
C313 C312 1.389 . S
C314 P288 1.819 . S
C314 C315 1.391 . S
C314 C319 1.391 . S
C315 H297 0.941 . S
C315 C314 1.391 . S
C315 C316 1.396 . S
C316 H300 0.939 . S
C316 C315 1.396 . S
C316 C317 1.397 . S
C317 C316 1.397 . S
C317 C318 1.385 . S
C318 H301 0.940 . S
C318 C317 1.385 . S
C318 C319 1.388 . S
C319 H298 0.939 . S
C319 C314 1.391 . S
C319 C318 1.388 . S
P320 O331 1.490 . S
P320 C334 1.812 . S
P320 C340 1.803 . S
P320 C346 1.819 . S
H321 C335 0.941 . S
H322 C336 0.939 . S
H323 C338 0.940 . S
H324 C339 0.940 . S
H325 C341 0.939 . S
H326 C342 0.942 . S
H327 C344 0.940 . S
H328 C345 0.939 . S
H329 C347 0.941 . S
H330 C351 0.939 . S
O331 P320 1.490 . S
H332 C348 0.939 . S
H333 C350 0.940 . S
C334 P320 1.812 . S
C334 C335 1.389 . S
C334 C339 1.391 . S
C335 H321 0.941 . S
C335 C334 1.389 . S
C335 C336 1.397 . S
C336 H322 0.939 . S
C336 C335 1.397 . S
C336 C337 1.378 . S
C337 C336 1.378 . S
C337 C338 1.378 . S
C338 H323 0.940 . S
C338 C337 1.378 . S
C338 C339 1.396 . S
C339 H324 0.940 . S
C339 C334 1.391 . S
C339 C338 1.396 . S
C340 P320 1.803 . S
C340 C341 1.378 . S
C340 C345 1.400 . S
C341 H325 0.939 . S
C341 C340 1.378 . S
C341 C342 1.361 . S
C342 H326 0.942 . S
C342 C341 1.361 . S
C342 C343 1.369 . S
C343 C342 1.369 . S
C343 C344 1.404 . S
C344 H327 0.940 . S
C344 C343 1.404 . S
C344 C345 1.389 . S
C345 H328 0.939 . S
C345 C340 1.400 . S
C345 C344 1.389 . S
C346 P320 1.819 . S
C346 C347 1.391 . S
C346 C351 1.391 . S
C347 H329 0.941 . S
C347 C346 1.391 . S
C347 C348 1.396 . S
C348 H332 0.939 . S
C348 C347 1.396 . S
C348 C349 1.397 . S
C349 C348 1.397 . S
C349 C350 1.385 . S
C350 H333 0.940 . S
C350 C349 1.385 . S
C350 C351 1.388 . S
C351 H330 0.939 . S
C351 C346 1.391 . S
C351 C350 1.388 . S
P352 O363 1.490 . S
P352 C366 1.812 . S
P352 C372 1.803 . S
P352 C378 1.819 . S
H353 C367 0.941 . S
H354 C368 0.939 . S
H355 C370 0.940 . S
H356 C371 0.940 . S
H357 C373 0.939 . S
H358 C374 0.942 . S
H359 C376 0.940 . S
H360 C377 0.939 . S
H361 C379 0.941 . S
H362 C383 0.939 . S
O363 P352 1.490 . S
H364 C380 0.939 . S
H365 C382 0.940 . S
C366 P352 1.812 . S
C366 C367 1.389 . S
C366 C371 1.391 . S
C367 H353 0.941 . S
C367 C366 1.389 . S
C367 C368 1.397 . S
C368 H354 0.939 . S
C368 C367 1.397 . S
C368 C369 1.378 . S
C369 C368 1.378 . S
C369 C370 1.378 . S
C370 H355 0.940 . S
C370 C369 1.378 . S
C370 C371 1.396 . S
C371 H356 0.940 . S
C371 C366 1.391 . S
C371 C370 1.396 . S
C372 P352 1.803 . S
C372 C373 1.378 . S
C372 C377 1.400 . S
C373 H357 0.939 . S
C373 C372 1.378 . S
C373 C374 1.361 . S
C374 H358 0.942 . S
C374 C373 1.361 . S
C374 C375 1.369 . S
C375 C374 1.369 . S
C375 C376 1.404 . S
C376 H359 0.940 . S
C376 C375 1.404 . S
C376 C377 1.389 . S
C377 H360 0.939 . S
C377 C372 1.400 . S
C377 C376 1.389 . S
C378 P352 1.819 . S
C378 C379 1.391 . S
C378 C383 1.391 . S
C379 H361 0.941 . S
C379 C378 1.391 . S
C379 C380 1.396 . S
C380 H364 0.939 . S
C380 C379 1.396 . S
C380 C381 1.397 . S
C381 C380 1.397 . S
C381 C382 1.385 . S
C382 H365 0.940 . S
C382 C381 1.385 . S
C382 C383 1.388 . S
C383 H362 0.939 . S
C383 C378 1.391 . S
C383 C382 1.388 . S
P384 O395 1.490 . S
P384 C398 1.812 . S
P384 C404 1.803 . S
P384 C410 1.819 . S
H385 C399 0.941 . S
H386 C400 0.939 . S
H387 C402 0.940 . S
H388 C403 0.940 . S
H389 C405 0.939 . S
H390 C406 0.942 . S
H391 C408 0.940 . S
H392 C409 0.939 . S
H393 C411 0.941 . S
H394 C415 0.939 . S
O395 P384 1.490 . S
H396 C412 0.939 . S
H397 C414 0.940 . S
C398 P384 1.812 . S
C398 C399 1.389 . S
C398 C403 1.391 . S
C399 H385 0.941 . S
C399 C398 1.389 . S
C399 C400 1.397 . S
C400 H386 0.939 . S
C400 C399 1.397 . S
C400 C401 1.378 . S
C401 C400 1.378 . S
C401 C402 1.378 . S
C402 H387 0.940 . S
C402 C401 1.378 . S
C402 C403 1.396 . S
C403 H388 0.940 . S
C403 C398 1.391 . S
C403 C402 1.396 . S
C404 P384 1.803 . S
C404 C405 1.378 . S
C404 C409 1.400 . S
C405 H389 0.939 . S
C405 C404 1.378 . S
C405 C406 1.361 . S
C406 H390 0.942 . S
C406 C405 1.361 . S
C406 C407 1.369 . S
C407 C406 1.369 . S
C407 C408 1.404 . S
C408 H391 0.940 . S
C408 C407 1.404 . S
C408 C409 1.389 . S
C409 H392 0.939 . S
C409 C404 1.400 . S
C409 C408 1.389 . S
C410 P384 1.819 . S
C410 C411 1.391 . S
C410 C415 1.391 . S
C411 H393 0.941 . S
C411 C410 1.391 . S
C411 C412 1.396 . S
C412 H396 0.939 . S
C412 C411 1.396 . S
C412 C413 1.397 . S
C413 C412 1.397 . S
C413 C414 1.385 . S
C414 H397 0.940 . S
C414 C413 1.385 . S
C414 C415 1.388 . S
C415 H394 0.939 . S
C415 C410 1.391 . S
C415 C414 1.388 . S
P416 O427 1.490 . S
P416 C430 1.812 . S
P416 C436 1.803 . S
P416 C442 1.819 . S
H417 C431 0.941 . S
H418 C432 0.939 . S
H419 C434 0.940 . S
H420 C435 0.940 . S
H421 C437 0.939 . S
H422 C438 0.942 . S
H423 C440 0.940 . S
H424 C441 0.939 . S
H425 C443 0.941 . S
H426 C447 0.939 . S
O427 P416 1.490 . S
H428 C444 0.939 . S
H429 C446 0.940 . S
C430 P416 1.812 . S
C430 C431 1.389 . S
C430 C435 1.391 . S
C431 H417 0.941 . S
C431 C430 1.389 . S
C431 C432 1.397 . S
C432 H418 0.939 . S
C432 C431 1.397 . S
C432 C433 1.378 . S
C433 C432 1.378 . S
C433 C434 1.378 . S
C434 H419 0.940 . S
C434 C433 1.378 . S
C434 C435 1.396 . S
C435 H420 0.940 . S
C435 C430 1.391 . S
C435 C434 1.396 . S
C436 P416 1.803 . S
C436 C437 1.378 . S
C436 C441 1.400 . S
C437 H421 0.939 . S
C437 C436 1.378 . S
C437 C438 1.361 . S
C438 H422 0.942 . S
C438 C437 1.361 . S
C438 C439 1.369 . S
C439 C438 1.369 . S
C439 C440 1.404 . S
C440 H423 0.940 . S
C440 C439 1.404 . S
C440 C441 1.389 . S
C441 H424 0.939 . S
C441 C436 1.400 . S
C441 C440 1.389 . S
C442 P416 1.819 . S
C442 C443 1.391 . S
C442 C447 1.391 . S
C443 H425 0.941 . S
C443 C442 1.391 . S
C443 C444 1.396 . S
C444 H428 0.939 . S
C444 C443 1.396 . S
C444 C445 1.397 . S
C445 C444 1.397 . S
C445 C446 1.385 . S
C446 H429 0.940 . S
C446 C445 1.385 . S
C446 C447 1.388 . S
C447 H426 0.939 . S
C447 C442 1.391 . S
C447 C446 1.388 . S
P448 O459 1.490 . S
P448 C462 1.812 . S
P448 C468 1.803 . S
P448 C474 1.819 . S
H449 C463 0.941 . S
H450 C464 0.939 . S
H451 C466 0.940 . S
H452 C467 0.940 . S
H453 C469 0.939 . S
H454 C470 0.942 . S
H455 C472 0.940 . S
H456 C473 0.939 . S
H457 C475 0.941 . S
H458 C479 0.939 . S
O459 P448 1.490 . S
H460 C476 0.939 . S
H461 C478 0.940 . S
C462 P448 1.812 . S
C462 C463 1.389 . S
C462 C467 1.391 . S
C463 H449 0.941 . S
C463 C462 1.389 . S
C463 C464 1.397 . S
C464 H450 0.939 . S
C464 C463 1.397 . S
C464 C465 1.378 . S
C465 C464 1.378 . S
C465 C466 1.378 . S
C466 H451 0.940 . S
C466 C465 1.378 . S
C466 C467 1.396 . S
C467 H452 0.940 . S
C467 C462 1.391 . S
C467 C466 1.396 . S
C468 P448 1.803 . S
C468 C469 1.378 . S
C468 C473 1.400 . S
C469 H453 0.939 . S
C469 C468 1.378 . S
C469 C470 1.361 . S
C470 H454 0.942 . S
C470 C469 1.361 . S
C470 C471 1.369 . S
C471 C470 1.369 . S
C471 C472 1.404 . S
C472 H455 0.940 . S
C472 C471 1.404 . S
C472 C473 1.389 . S
C473 H456 0.939 . S
C473 C468 1.400 . S
C473 C472 1.389 . S
C474 P448 1.819 . S
C474 C475 1.391 . S
C474 C479 1.391 . S
C475 H457 0.941 . S
C475 C474 1.391 . S
C475 C476 1.396 . S
C476 H460 0.939 . S
C476 C475 1.396 . S
C476 C477 1.397 . S
C477 C476 1.397 . S
C477 C478 1.385 . S
C478 H461 0.940 . S
C478 C477 1.385 . S
C478 C479 1.388 . S
C479 H458 0.939 . S
C479 C474 1.391 . S
C479 C478 1.388 . S
P480 O491 1.490 . S
P480 C494 1.812 . S
P480 C500 1.803 . S
P480 C506 1.819 . S
H481 C495 0.941 . S
H482 C496 0.939 . S
H483 C498 0.940 . S
H484 C499 0.940 . S
H485 C501 0.939 . S
H486 C502 0.942 . S
H487 C504 0.940 . S
H488 C505 0.939 . S
H489 C507 0.941 . S
H490 C511 0.939 . S
O491 P480 1.490 . S
H492 C508 0.939 . S
H493 C510 0.940 . S
C494 P480 1.812 . S
C494 C495 1.389 . S
C494 C499 1.391 . S
C495 H481 0.941 . S
C495 C494 1.389 . S
C495 C496 1.397 . S
C496 H482 0.939 . S
C496 C495 1.397 . S
C496 C497 1.378 . S
C497 C496 1.378 . S
C497 C498 1.378 . S
C498 H483 0.940 . S
C498 C497 1.378 . S
C498 C499 1.396 . S
C499 H484 0.940 . S
C499 C494 1.391 . S
C499 C498 1.396 . S
C500 P480 1.803 . S
C500 C501 1.378 . S
C500 C505 1.400 . S
C501 H485 0.939 . S
C501 C500 1.378 . S
C501 C502 1.361 . S
C502 H486 0.942 . S
C502 C501 1.361 . S
C502 C503 1.369 . S
C503 C502 1.369 . S
C503 C504 1.404 . S
C504 H487 0.940 . S
C504 C503 1.404 . S
C504 C505 1.389 . S
C505 H488 0.939 . S
C505 C500 1.400 . S
C505 C504 1.389 . S
C506 P480 1.819 . S
C506 C507 1.391 . S
C506 C511 1.391 . S
C507 H489 0.941 . S
C507 C506 1.391 . S
C507 C508 1.396 . S
C508 H492 0.939 . S
C508 C507 1.396 . S
C508 C509 1.397 . S
C509 C508 1.397 . S
C509 C510 1.385 . S
C510 H493 0.940 . S
C510 C509 1.385 . S
C510 C511 1.388 . S
C511 H490 0.939 . S
C511 C506 1.391 . S
C511 C510 1.388 . S
P512 O523 1.490 . S
P512 C526 1.812 . S
P512 C532 1.803 . S
P512 C538 1.819 . S
H513 C527 0.941 . S
H514 C528 0.939 . S
H515 C530 0.940 . S
H516 C531 0.940 . S
H517 C533 0.939 . S
H518 C534 0.942 . S
H519 C536 0.940 . S
H520 C537 0.939 . S
H521 C539 0.941 . S
H522 C543 0.939 . S
O523 P512 1.490 . S
H524 C540 0.939 . S
H525 C542 0.940 . S
C526 P512 1.812 . S
C526 C527 1.389 . S
C526 C531 1.391 . S
C527 H513 0.941 . S
C527 C526 1.389 . S
C527 C528 1.397 . S
C528 H514 0.939 . S
C528 C527 1.397 . S
C528 C529 1.378 . S
C529 C528 1.378 . S
C529 C530 1.378 . S
C530 H515 0.940 . S
C530 C529 1.378 . S
C530 C531 1.396 . S
C531 H516 0.940 . S
C531 C526 1.391 . S
C531 C530 1.396 . S
C532 P512 1.803 . S
C532 C533 1.378 . S
C532 C537 1.400 . S
C533 H517 0.939 . S
C533 C532 1.378 . S
C533 C534 1.361 . S
C534 H518 0.942 . S
C534 C533 1.361 . S
C534 C535 1.369 . S
C535 C534 1.369 . S
C535 C536 1.404 . S
C536 H519 0.940 . S
C536 C535 1.404 . S
C536 C537 1.389 . S
C537 H520 0.939 . S
C537 C532 1.400 . S
C537 C536 1.389 . S
C538 P512 1.819 . S
C538 C539 1.391 . S
C538 C543 1.391 . S
C539 H521 0.941 . S
C539 C538 1.391 . S
C539 C540 1.396 . S
C540 H524 0.939 . S
C540 C539 1.396 . S
C540 C541 1.397 . S
C541 C540 1.397 . S
C541 C542 1.385 . S
C542 H525 0.940 . S
C542 C541 1.385 . S
C542 C543 1.388 . S
C543 H522 0.939 . S
C543 C538 1.391 . S
C543 C542 1.388 . S
P544 O555 1.490 . S
P544 C558 1.812 . S
P544 C564 1.803 . S
P544 C570 1.819 . S
H545 C559 0.941 . S
H546 C560 0.939 . S
H547 C562 0.940 . S
H548 C563 0.940 . S
H549 C565 0.939 . S
H550 C566 0.942 . S
H551 C568 0.940 . S
H552 C569 0.939 . S
H553 C571 0.941 . S
H554 C575 0.939 . S
O555 P544 1.490 . S
H556 C572 0.939 . S
H557 C574 0.940 . S
C558 P544 1.812 . S
C558 C559 1.389 . S
C558 C563 1.391 . S
C559 H545 0.941 . S
C559 C558 1.389 . S
C559 C560 1.397 . S
C560 H546 0.939 . S
C560 C559 1.397 . S
C560 C561 1.378 . S
C561 C560 1.378 . S
C561 C562 1.378 . S
C562 H547 0.940 . S
C562 C561 1.378 . S
C562 C563 1.396 . S
C563 H548 0.940 . S
C563 C558 1.391 . S
C563 C562 1.396 . S
C564 P544 1.803 . S
C564 C565 1.378 . S
C564 C569 1.400 . S
C565 H549 0.939 . S
C565 C564 1.378 . S
C565 C566 1.361 . S
C566 H550 0.942 . S
C566 C565 1.361 . S
C566 C567 1.369 . S
C567 C566 1.369 . S
C567 C568 1.404 . S
C568 H551 0.940 . S
C568 C567 1.404 . S
C568 C569 1.389 . S
C569 H552 0.939 . S
C569 C564 1.400 . S
C569 C568 1.389 . S
C570 P544 1.819 . S
C570 C571 1.391 . S
C570 C575 1.391 . S
C571 H553 0.941 . S
C571 C570 1.391 . S
C571 C572 1.396 . S
C572 H556 0.939 . S
C572 C571 1.396 . S
C572 C573 1.397 . S
C573 C572 1.397 . S
C573 C574 1.385 . S
C574 H557 0.940 . S
C574 C573 1.385 . S
C574 C575 1.388 . S
C575 H554 0.939 . S
C575 C570 1.391 . S
C575 C574 1.388 . S
Gd576 N607 2.661 . S
Gd576 N613 2.601 . S
Gd576 O620 2.545 . S
Gd576 O621 2.606 1_545 S
Gd576 O623 2.429 . S
Gd576 O624 2.545 1_545 S
Gd576 O625 2.412 . S
Gd576 O627 2.362 1_554 S
Gd576 O628 2.324 1_545 S
Gd576 C635 2.828 . S
Gd577 N586 2.661 . S
Gd577 N590 2.601 . S
Gd577 O621 2.362 1_556 S
Gd577 O622 2.324 1_565 S
Gd577 O626 2.545 . S
Gd577 O627 2.606 1_565 S
Gd577 O629 2.429 . S
Gd577 O630 2.545 1_565 S
Gd577 O631 2.412 . S
Gd577 C644 2.828 . S
C578 C581 1.417 . S
C578 C583 1.431 . S
C578 C584 1.412 . S
C579 C582 1.437 . S
C579 C583 1.317 . S
C579 H598 0.929 . S
C580 C581 1.426 . S
C580 C582 1.413 . S
C580 N590 1.359 . S
C581 C578 1.417 . S
C581 C580 1.426 . S
C581 N586 1.350 . S
C582 C579 1.437 . S
C582 C580 1.413 . S
C582 C592 1.391 . S
C583 C578 1.431 . S
C583 C579 1.317 . S
C583 H594 0.930 . S
C584 C578 1.412 . S
C584 C585 1.355 . S
C584 H596 0.930 . S
C585 C584 1.355 . S
C585 C587 1.402 . S
C585 H597 0.930 . S
N586 Gd577 2.661 . S
N586 C581 1.350 . S
N586 C587 1.307 . S
C587 C585 1.402 . S
C587 N586 1.307 . S
C587 H588 0.930 . S
H588 C587 0.930 . S
C589 N590 1.334 . S
C589 C591 1.394 . S
C589 H593 0.930 . S
N590 Gd577 2.601 . S
N590 C580 1.359 . S
N590 C589 1.334 . S
C591 C589 1.394 . S
C591 C592 1.359 . S
C591 H603 0.930 . S
C592 C582 1.391 . S
C592 C591 1.359 . S
C592 H604 0.929 . S
H593 C589 0.930 . S
H594 C583 0.930 . S
H595 C612 0.930 . S
H596 C584 0.930 . S
H597 C585 0.930 . S
H598 C579 0.929 . S
H599 C617 0.930 . S
H600 C608 0.930 . S
H601 C609 0.930 . S
H602 C633 0.929 . S
H603 C591 0.930 . S
H604 C592 0.929 . S
H605 C634 0.930 . S
H606 C615 0.930 . S
N607 Gd576 2.661 . S
N607 C611 1.350 . S
N607 C612 1.307 . S
C608 H600 0.930 . S
C608 C609 1.355 . S
C608 C610 1.412 . S
C609 H601 0.930 . S
C609 C608 1.355 . S
C609 C612 1.402 . S
C610 C608 1.412 . S
C610 C611 1.417 . S
C610 C634 1.431 . S
C611 N607 1.350 . S
C611 C610 1.417 . S
C611 C614 1.426 . S
C612 H595 0.930 . S
C612 N607 1.307 . S
C612 C609 1.402 . S
N613 Gd576 2.601 . S
N613 C614 1.359 . S
N613 C617 1.334 . S
C614 C611 1.426 . S
C614 N613 1.359 . S
C614 C618 1.413 . S
C615 H606 0.930 . S
C615 C616 1.359 . S
C615 C617 1.394 . S
C616 C615 1.359 . S
C616 C618 1.391 . S
C616 H619 0.929 . S
C617 H599 0.930 . S
C617 N613 1.334 . S
C617 C615 1.394 . S
C618 C614 1.413 . S
C618 C616 1.391 . S
C618 C633 1.437 . S
H619 C616 0.929 . S
O620 Gd576 2.545 . S
O620 C635 1.258 . S
O621 Gd576 2.606 1_565 S
O621 Gd577 2.362 1_554 S
O621 C632 1.284 . S
O622 Gd577 2.324 1_545 S
O622 C642 1.254 . S
O623 Gd576 2.429 . S
O623 C642 1.268 1_554 S
O624 Gd576 2.545 1_565 S
O624 C632 1.250 . S
O625 Gd576 2.412 . S
O625 C635 1.252 . S
O626 Gd577 2.545 . S
O626 C644 1.258 . S
O627 Gd576 2.362 1_556 S
O627 Gd577 2.606 1_545 S
O627 C643 1.284 . S
O628 Gd576 2.324 1_565 S
O628 C651 1.254 . S
O629 Gd577 2.429 . S
O629 C651 1.268 1_556 S
O630 Gd577 2.545 1_545 S
O630 C643 1.250 . S
O631 Gd577 2.412 . S
O631 C644 1.252 . S
C632 O621 1.284 . S
C632 O624 1.250 . S
C633 H602 0.929 . S
C633 C618 1.437 . S
C633 C634 1.317 . S
C634 H605 0.930 . S
C634 C610 1.431 . S
C634 C633 1.317 . S
C635 Gd576 2.828 . S
C635 O620 1.258 . S
C635 O625 1.252 . S
C635 C636 1.497 . S
C636 C635 1.497 . S
C636 C637 1.395 . S
C636 C638 1.380 1_545 S
C637 C636 1.395 . S
C637 C640 1.398 . S
C637 H652 0.930 . S
C638 C636 1.380 1_565 S
C638 C639 1.391 . S
C638 H653 0.930 . S
C639 C638 1.391 . S
C639 C641 1.387 1_565 S
C640 C637 1.398 . S
C640 C641 1.380 . S
C640 H654 0.930 . S
C641 C639 1.387 1_545 S
C641 C640 1.380 . S
C641 H655 0.930 . S
C642 O622 1.254 . S
C642 O623 1.268 1_556 S
C643 O627 1.284 . S
C643 O630 1.250 . S
C644 Gd577 2.828 . S
C644 O626 1.258 . S
C644 O631 1.252 . S
C644 C645 1.497 . S
C645 C644 1.497 . S
C645 C646 1.395 . S
C645 C647 1.380 1_565 S
C646 C645 1.395 . S
C646 C649 1.398 . S
C646 H656 0.930 . S
C647 C645 1.380 1_545 S
C647 C648 1.391 . S
C647 H657 0.930 . S
C648 C647 1.391 . S
C648 C650 1.387 1_545 S
C649 C646 1.398 . S
C649 C650 1.380 . S
C649 H658 0.930 . S
C650 C648 1.387 1_565 S
C650 C649 1.380 . S
C650 H659 0.930 . S
C651 O628 1.254 . S
C651 O629 1.268 1_554 S
H652 C637 0.930 . S
H653 C638 0.930 . S
H654 C640 0.930 . S
H655 C641 0.930 . S
H656 C646 0.930 . S
H657 C647 0.930 . S
H658 C649 0.930 . S
H659 C650 0.930 . S
Gd660 N691 2.661 . S
Gd660 N697 2.601 . S
Gd660 O704 2.545 . S
Gd660 O705 2.606 1_655 S
Gd660 O707 2.429 . S
Gd660 O708 2.545 1_655 S
Gd660 O709 2.412 . S
Gd660 O711 2.362 1_554 S
Gd660 O712 2.324 1_655 S
Gd660 C719 2.828 . S
Gd661 N670 2.661 . S
Gd661 N674 2.601 . S
Gd661 O705 2.362 1_556 S
Gd661 O706 2.324 1_455 S
Gd661 O710 2.545 . S
Gd661 O711 2.606 1_455 S
Gd661 O713 2.429 . S
Gd661 O714 2.545 1_455 S
Gd661 O715 2.412 . S
Gd661 C728 2.828 . S
C662 C665 1.417 . S
C662 C667 1.431 . S
C662 C668 1.412 . S
C663 C666 1.437 . S
C663 C667 1.317 . S
C663 H682 0.929 . S
C664 C665 1.426 . S
C664 C666 1.413 . S
C664 N674 1.359 . S
C665 C662 1.417 . S
C665 C664 1.426 . S
C665 N670 1.350 . S
C666 C663 1.437 . S
C666 C664 1.413 . S
C666 C676 1.391 . S
C667 C662 1.431 . S
C667 C663 1.317 . S
C667 H678 0.930 . S
C668 C662 1.412 . S
C668 C669 1.355 . S
C668 H680 0.930 . S
C669 C668 1.355 . S
C669 C671 1.402 . S
C669 H681 0.930 . S
N670 Gd661 2.661 . S
N670 C665 1.350 . S
N670 C671 1.307 . S
C671 C669 1.402 . S
C671 N670 1.307 . S
C671 H672 0.930 . S
H672 C671 0.930 . S
C673 N674 1.334 . S
C673 C675 1.394 . S
C673 H677 0.930 . S
N674 Gd661 2.601 . S
N674 C664 1.359 . S
N674 C673 1.334 . S
C675 C673 1.394 . S
C675 C676 1.359 . S
C675 H687 0.930 . S
C676 C666 1.391 . S
C676 C675 1.359 . S
C676 H688 0.929 . S
H677 C673 0.930 . S
H678 C667 0.930 . S
H679 C696 0.930 . S
H680 C668 0.930 . S
H681 C669 0.930 . S
H682 C663 0.929 . S
H683 C701 0.930 . S
H684 C692 0.930 . S
H685 C693 0.930 . S
H686 C717 0.929 . S
H687 C675 0.930 . S
H688 C676 0.929 . S
H689 C718 0.930 . S
H690 C699 0.930 . S
N691 Gd660 2.661 . S
N691 C695 1.350 . S
N691 C696 1.307 . S
C692 H684 0.930 . S
C692 C693 1.355 . S
C692 C694 1.412 . S
C693 H685 0.930 . S
C693 C692 1.355 . S
C693 C696 1.402 . S
C694 C692 1.412 . S
C694 C695 1.417 . S
C694 C718 1.431 . S
C695 N691 1.350 . S
C695 C694 1.417 . S
C695 C698 1.426 . S
C696 H679 0.930 . S
C696 N691 1.307 . S
C696 C693 1.402 . S
N697 Gd660 2.601 . S
N697 C698 1.359 . S
N697 C701 1.334 . S
C698 C695 1.426 . S
C698 N697 1.359 . S
C698 C702 1.413 . S
C699 H690 0.930 . S
C699 C700 1.359 . S
C699 C701 1.394 . S
C700 C699 1.359 . S
C700 C702 1.391 . S
C700 H703 0.929 . S
C701 H683 0.930 . S
C701 N697 1.334 . S
C701 C699 1.394 . S
C702 C698 1.413 . S
C702 C700 1.391 . S
C702 C717 1.437 . S
H703 C700 0.929 . S
O704 Gd660 2.545 . S
O704 C719 1.258 . S
O705 Gd660 2.606 1_455 S
O705 Gd661 2.362 1_554 S
O705 C716 1.284 . S
O706 Gd661 2.324 1_655 S
O706 C726 1.254 . S
O707 Gd660 2.429 . S
O707 C726 1.268 1_554 S
O708 Gd660 2.545 1_455 S
O708 C716 1.250 . S
O709 Gd660 2.412 . S
O709 C719 1.252 . S
O710 Gd661 2.545 . S
O710 C728 1.258 . S
O711 Gd660 2.362 1_556 S
O711 Gd661 2.606 1_655 S
O711 C727 1.284 . S
O712 Gd660 2.324 1_455 S
O712 C735 1.254 . S
O713 Gd661 2.429 . S
O713 C735 1.268 1_556 S
O714 Gd661 2.545 1_655 S
O714 C727 1.250 . S
O715 Gd661 2.412 . S
O715 C728 1.252 . S
C716 O705 1.284 . S
C716 O708 1.250 . S
C717 H686 0.929 . S
C717 C702 1.437 . S
C717 C718 1.317 . S
C718 H689 0.930 . S
C718 C694 1.431 . S
C718 C717 1.317 . S
C719 Gd660 2.828 . S
C719 O704 1.258 . S
C719 O709 1.252 . S
C719 C720 1.497 . S
C720 C719 1.497 . S
C720 C721 1.395 . S
C720 C722 1.380 1_655 S
C721 C720 1.395 . S
C721 C724 1.398 . S
C721 H736 0.930 . S
C722 C720 1.380 1_455 S
C722 C723 1.391 . S
C722 H737 0.930 . S
C723 C722 1.391 . S
C723 C725 1.387 1_455 S
C724 C721 1.398 . S
C724 C725 1.380 . S
C724 H738 0.930 . S
C725 C723 1.387 1_655 S
C725 C724 1.380 . S
C725 H739 0.930 . S
C726 O706 1.254 . S
C726 O707 1.268 1_556 S
C727 O711 1.284 . S
C727 O714 1.250 . S
C728 Gd661 2.828 . S
C728 O710 1.258 . S
C728 O715 1.252 . S
C728 C729 1.497 . S
C729 C728 1.497 . S
C729 C730 1.395 . S
C729 C731 1.380 1_455 S
C730 C729 1.395 . S
C730 C733 1.398 . S
C730 H740 0.930 . S
C731 C729 1.380 1_655 S
C731 C732 1.391 . S
C731 H741 0.930 . S
C732 C731 1.391 . S
C732 C734 1.387 1_655 S
C733 C730 1.398 . S
C733 C734 1.380 . S
C733 H742 0.930 . S
C734 C732 1.387 1_455 S
C734 C733 1.380 . S
C734 H743 0.930 . S
C735 O712 1.254 . S
C735 O713 1.268 1_554 S
H736 C721 0.930 . S
H737 C722 0.930 . S
H738 C724 0.930 . S
H739 C725 0.930 . S
H740 C730 0.930 . S
H741 C731 0.930 . S
H742 C733 0.930 . S
H743 C734 0.930 . S
Gd744 N775 2.661 . S
Gd744 N781 2.601 . S
Gd744 O788 2.545 . S
Gd744 O789 2.606 . S
Gd744 O791 2.429 . S
Gd744 O792 2.545 . S
Gd744 O793 2.412 . S
Gd744 O795 2.362 1_556 S
Gd744 O796 2.324 . S
Gd744 C803 2.828 . S
Gd745 N754 2.661 . S
Gd745 N758 2.601 . S
Gd745 O789 2.362 1_554 S
Gd745 O790 2.324 . S
Gd745 O794 2.545 . S
Gd745 O795 2.606 . S
Gd745 O797 2.429 . S
Gd745 O798 2.545 . S
Gd745 O799 2.412 . S
Gd745 C812 2.828 . S
C746 C749 1.417 . S
C746 C751 1.431 . S
C746 C752 1.412 . S
C747 C750 1.437 . S
C747 C751 1.317 . S
C747 H766 0.929 . S
C748 C749 1.426 . S
C748 C750 1.413 . S
C748 N758 1.359 . S
C749 C746 1.417 . S
C749 C748 1.426 . S
C749 N754 1.350 . S
C750 C747 1.437 . S
C750 C748 1.413 . S
C750 C760 1.391 . S
C751 C746 1.431 . S
C751 C747 1.317 . S
C751 H762 0.930 . S
C752 C746 1.412 . S
C752 C753 1.355 . S
C752 H764 0.930 . S
C753 C752 1.355 . S
C753 C755 1.402 . S
C753 H765 0.930 . S
N754 Gd745 2.661 . S
N754 C749 1.350 . S
N754 C755 1.307 . S
C755 C753 1.402 . S
C755 N754 1.307 . S
C755 H756 0.930 . S
H756 C755 0.930 . S
C757 N758 1.334 . S
C757 C759 1.394 . S
C757 H761 0.930 . S
N758 Gd745 2.601 . S
N758 C748 1.359 . S
N758 C757 1.334 . S
C759 C757 1.394 . S
C759 C760 1.359 . S
C759 H771 0.930 . S
C760 C750 1.391 . S
C760 C759 1.359 . S
C760 H772 0.929 . S
H761 C757 0.930 . S
H762 C751 0.930 . S
H763 C780 0.930 . S
H764 C752 0.930 . S
H765 C753 0.930 . S
H766 C747 0.929 . S
H767 C785 0.930 . S
H768 C776 0.930 . S
H769 C777 0.930 . S
H770 C801 0.929 . S
H771 C759 0.930 . S
H772 C760 0.929 . S
H773 C802 0.930 . S
H774 C783 0.930 . S
N775 Gd744 2.661 . S
N775 C779 1.350 . S
N775 C780 1.307 . S
C776 H768 0.930 . S
C776 C777 1.355 . S
C776 C778 1.412 . S
C777 H769 0.930 . S
C777 C776 1.355 . S
C777 C780 1.402 . S
C778 C776 1.412 . S
C778 C779 1.417 . S
C778 C802 1.431 . S
C779 N775 1.350 . S
C779 C778 1.417 . S
C779 C782 1.426 . S
C780 H763 0.930 . S
C780 N775 1.307 . S
C780 C777 1.402 . S
N781 Gd744 2.601 . S
N781 C782 1.359 . S
N781 C785 1.334 . S
C782 C779 1.426 . S
C782 N781 1.359 . S
C782 C786 1.413 . S
C783 H774 0.930 . S
C783 C784 1.359 . S
C783 C785 1.394 . S
C784 C783 1.359 . S
C784 C786 1.391 . S
C784 H787 0.929 . S
C785 H767 0.930 . S
C785 N781 1.334 . S
C785 C783 1.394 . S
C786 C782 1.413 . S
C786 C784 1.391 . S
C786 C801 1.437 . S
H787 C784 0.929 . S
O788 Gd744 2.545 . S
O788 C803 1.258 . S
O789 Gd744 2.606 . S
O789 Gd745 2.362 1_556 S
O789 C800 1.284 . S
O790 Gd745 2.324 . S
O790 C810 1.254 . S
O791 Gd744 2.429 . S
O791 C810 1.268 1_556 S
O792 Gd744 2.545 . S
O792 C800 1.250 . S
O793 Gd744 2.412 . S
O793 C803 1.252 . S
O794 Gd745 2.545 . S
O794 C812 1.258 . S
O795 Gd744 2.362 1_554 S
O795 Gd745 2.606 . S
O795 C811 1.284 . S
O796 Gd744 2.324 . S
O796 C819 1.254 . S
O797 Gd745 2.429 . S
O797 C819 1.268 1_554 S
O798 Gd745 2.545 . S
O798 C811 1.250 . S
O799 Gd745 2.412 . S
O799 C812 1.252 . S
C800 O789 1.284 . S
C800 O792 1.250 . S
C801 H770 0.929 . S
C801 C786 1.437 . S
C801 C802 1.317 . S
C802 H773 0.930 . S
C802 C778 1.431 . S
C802 C801 1.317 . S
C803 Gd744 2.828 . S
C803 O788 1.258 . S
C803 O793 1.252 . S
C803 C804 1.497 . S
C804 C803 1.497 . S
C804 C805 1.395 . S
C804 C806 1.380 . S
C805 C804 1.395 . S
C805 C808 1.398 . S
C805 H820 0.930 . S
C806 C804 1.380 . S
C806 C807 1.391 . S
C806 H821 0.930 . S
C807 C806 1.391 . S
C807 C809 1.387 . S
C808 C805 1.398 . S
C808 C809 1.380 . S
C808 H822 0.930 . S
C809 C807 1.387 . S
C809 C808 1.380 . S
C809 H823 0.930 . S
C810 O790 1.254 . S
C810 O791 1.268 1_554 S
C811 O795 1.284 . S
C811 O798 1.250 . S
C812 Gd745 2.828 . S
C812 O794 1.258 . S
C812 O799 1.252 . S
C812 C813 1.497 . S
C813 C812 1.497 . S
C813 C814 1.395 . S
C813 C815 1.380 . S
C814 C813 1.395 . S
C814 C817 1.398 . S
C814 H824 0.930 . S
C815 C813 1.380 . S
C815 C816 1.391 . S
C815 H825 0.930 . S
C816 C815 1.391 . S
C816 C818 1.387 . S
C817 C814 1.398 . S
C817 C818 1.380 . S
C817 H826 0.930 . S
C818 C816 1.387 . S
C818 C817 1.380 . S
C818 H827 0.930 . S
C819 O796 1.254 . S
C819 O797 1.268 1_556 S
H820 C805 0.930 . S
H821 C806 0.930 . S
H822 C808 0.930 . S
H823 C809 0.930 . S
H824 C814 0.930 . S
H825 C815 0.930 . S
H826 C817 0.930 . S
H827 C818 0.930 . S
Gd828 N859 2.661 . S
Gd828 N865 2.601 . S
Gd828 O872 2.545 . S
Gd828 O873 2.606 . S
Gd828 O875 2.429 . S
Gd828 O876 2.545 . S
Gd828 O877 2.412 . S
Gd828 O879 2.362 . S
Gd828 O880 2.324 . S
Gd828 C887 2.828 . S
Gd829 N838 2.661 . S
Gd829 N842 2.601 . S
Gd829 O873 2.362 . S
Gd829 O874 2.324 . S
Gd829 O878 2.545 . S
Gd829 O879 2.606 . S
Gd829 O881 2.429 . S
Gd829 O882 2.545 . S
Gd829 O883 2.412 . S
Gd829 C896 2.828 . S
C830 C833 1.417 . S
C830 C835 1.431 . S
C830 C836 1.412 . S
C831 C834 1.437 . S
C831 C835 1.317 . S
C831 H850 0.929 . S
C832 C833 1.426 . S
C832 C834 1.413 . S
C832 N842 1.359 . S
C833 C830 1.417 . S
C833 C832 1.426 . S
C833 N838 1.350 . S
C834 C831 1.437 . S
C834 C832 1.413 . S
C834 C844 1.391 . S
C835 C830 1.431 . S
C835 C831 1.317 . S
C835 H846 0.930 1_455 S
C836 C830 1.412 . S
C836 C837 1.355 . S
C836 H848 0.930 1_455 S
C837 C836 1.355 . S
C837 C839 1.402 . S
C837 H849 0.930 . S
N838 Gd829 2.661 . S
N838 C833 1.350 . S
N838 C839 1.307 . S
C839 C837 1.402 . S
C839 N838 1.307 . S
C839 H840 0.930 . S
H840 C839 0.930 . S
C841 N842 1.334 . S
C841 C843 1.394 . S
C841 H845 0.930 . S
N842 Gd829 2.601 . S
N842 C832 1.359 . S
N842 C841 1.334 . S
C843 C841 1.394 . S
C843 C844 1.359 . S
C843 H855 0.930 . S
C844 C834 1.391 . S
C844 C843 1.359 . S
C844 H856 0.929 . S
H845 C841 0.930 . S
H846 C835 0.930 1_655 S
H847 C864 0.930 . S
H848 C836 0.930 1_655 S
H849 C837 0.930 . S
H850 C831 0.929 . S
H851 C869 0.930 . S
H852 C860 0.930 . S
H853 C861 0.930 . S
H854 C885 0.929 . S
H855 C843 0.930 . S
H856 C844 0.929 . S
H857 C886 0.930 . S
H858 C867 0.930 . S
N859 Gd828 2.661 . S
N859 C863 1.350 . S
N859 C864 1.307 . S
C860 H852 0.930 . S
C860 C861 1.355 . S
C860 C862 1.412 . S
C861 H853 0.930 . S
C861 C860 1.355 . S
C861 C864 1.402 . S
C862 C860 1.412 . S
C862 C863 1.417 . S
C862 C886 1.431 . S
C863 N859 1.350 . S
C863 C862 1.417 . S
C863 C866 1.426 . S
C864 H847 0.930 . S
C864 N859 1.307 . S
C864 C861 1.402 . S
N865 Gd828 2.601 . S
N865 C866 1.359 . S
N865 C869 1.334 . S
C866 C863 1.426 . S
C866 N865 1.359 . S
C866 C870 1.413 . S
C867 H858 0.930 . S
C867 C868 1.359 . S
C867 C869 1.394 . S
C868 C867 1.359 . S
C868 C870 1.391 . S
C868 H871 0.929 . S
C869 H851 0.930 . S
C869 N865 1.334 . S
C869 C867 1.394 . S
C870 C866 1.413 . S
C870 C868 1.391 . S
C870 C885 1.437 . S
H871 C868 0.929 . S
O872 Gd828 2.545 . S
O872 C887 1.258 . S
O873 Gd828 2.606 . S
O873 Gd829 2.362 . S
O873 C884 1.284 . S
O874 Gd829 2.324 . S
O874 C894 1.254 . S
O875 Gd828 2.429 . S
O875 C894 1.268 . S
O876 Gd828 2.545 . S
O876 C884 1.250 . S
O877 Gd828 2.412 . S
O877 C887 1.252 . S
O878 Gd829 2.545 . S
O878 C896 1.258 . S
O879 Gd828 2.362 . S
O879 Gd829 2.606 . S
O879 C895 1.284 . S
O880 Gd828 2.324 . S
O880 C903 1.254 . S
O881 Gd829 2.429 . S
O881 C903 1.268 . S
O882 Gd829 2.545 . S
O882 C895 1.250 . S
O883 Gd829 2.412 . S
O883 C896 1.252 . S
C884 O873 1.284 . S
C884 O876 1.250 . S
C885 H854 0.929 . S
C885 C870 1.437 . S
C885 C886 1.317 . S
C886 H857 0.930 . S
C886 C862 1.431 . S
C886 C885 1.317 . S
C887 Gd828 2.828 . S
C887 O872 1.258 . S
C887 O877 1.252 . S
C887 C888 1.497 . S
C888 C887 1.497 . S
C888 C889 1.395 . S
C888 C890 1.380 . S
C889 C888 1.395 . S
C889 C892 1.398 . S
C889 H904 0.930 . S
C890 C888 1.380 . S
C890 C891 1.391 . S
C890 H905 0.930 . S
C891 C890 1.391 . S
C891 C893 1.387 . S
C892 C889 1.398 . S
C892 C893 1.380 . S
C892 H906 0.930 . S
C893 C891 1.387 . S
C893 C892 1.380 . S
C893 H907 0.930 . S
C894 O874 1.254 . S
C894 O875 1.268 . S
C895 O879 1.284 . S
C895 O882 1.250 . S
C896 Gd829 2.828 . S
C896 O878 1.258 . S
C896 O883 1.252 . S
C896 C897 1.497 . S
C897 C896 1.497 . S
C897 C898 1.395 . S
C897 C899 1.380 . S
C898 C897 1.395 . S
C898 C901 1.398 . S
C898 H908 0.930 . S
C899 C897 1.380 . S
C899 C900 1.391 . S
C899 H909 0.930 . S
C900 C899 1.391 . S
C900 C902 1.387 . S
C901 C898 1.398 . S
C901 C902 1.380 . S
C901 H910 0.930 . S
C902 C900 1.387 . S
C902 C901 1.380 . S
C902 H911 0.930 . S
C903 O880 1.254 . S
C903 O881 1.268 . S
H904 C889 0.930 . S
H905 C890 0.930 . S
H906 C892 0.930 . S
H907 C893 0.930 . S
H908 C898 0.930 . S
H909 C899 0.930 . S
H910 C901 0.930 . S
H911 C902 0.930 . S
Gd912 N943 2.661 . S
Gd912 N949 2.601 . S
Gd912 O956 2.545 . S
Gd912 O957 2.606 . S
Gd912 O959 2.429 . S
Gd912 O960 2.545 . S
Gd912 O961 2.412 . S
Gd912 O963 2.362 . S
Gd912 O964 2.324 . S
Gd912 C971 2.828 . S
Gd913 N922 2.661 . S
Gd913 N926 2.601 . S
Gd913 O957 2.362 . S
Gd913 O958 2.324 . S
Gd913 O962 2.545 . S
Gd913 O963 2.606 . S
Gd913 O965 2.429 . S
Gd913 O966 2.545 . S
Gd913 O967 2.412 . S
Gd913 C980 2.828 . S
C914 C917 1.417 . S
C914 C919 1.431 . S
C914 C920 1.412 . S
C915 C918 1.437 . S
C915 C919 1.317 . S
C915 H934 0.929 . S
C916 C917 1.426 . S
C916 C918 1.413 . S
C916 N926 1.359 . S
C917 C914 1.417 . S
C917 C916 1.426 . S
C917 N922 1.350 . S
C918 C915 1.437 . S
C918 C916 1.413 . S
C918 C928 1.391 . S
C919 C914 1.431 . S
C919 C915 1.317 . S
C919 H930 0.930 . S
C920 C914 1.412 . S
C920 C921 1.355 . S
C920 H932 0.930 . S
C921 C920 1.355 . S
C921 C923 1.402 . S
C921 H933 0.930 . S
N922 Gd913 2.661 . S
N922 C917 1.350 . S
N922 C923 1.307 . S
C923 C921 1.402 . S
C923 N922 1.307 . S
C923 H924 0.930 . S
H924 C923 0.930 . S
C925 N926 1.334 . S
C925 C927 1.394 . S
C925 H929 0.930 . S
N926 Gd913 2.601 . S
N926 C916 1.359 . S
N926 C925 1.334 . S
C927 C925 1.394 . S
C927 C928 1.359 . S
C927 H939 0.930 . S
C928 C918 1.391 . S
C928 C927 1.359 . S
C928 H940 0.929 . S
H929 C925 0.930 . S
H930 C919 0.930 . S
H931 C948 0.930 . S
H932 C920 0.930 . S
H933 C921 0.930 . S
H934 C915 0.929 . S
H935 C953 0.930 . S
H936 C944 0.930 . S
H937 C945 0.930 . S
H938 C969 0.929 . S
H939 C927 0.930 . S
H940 C928 0.929 . S
H941 C970 0.930 . S
H942 C951 0.930 . S
N943 Gd912 2.661 . S
N943 C947 1.350 . S
N943 C948 1.307 . S
C944 H936 0.930 . S
C944 C945 1.355 . S
C944 C946 1.412 . S
C945 H937 0.930 . S
C945 C944 1.355 . S
C945 C948 1.402 . S
C946 C944 1.412 . S
C946 C947 1.417 . S
C946 C970 1.431 . S
C947 N943 1.350 . S
C947 C946 1.417 . S
C947 C950 1.426 . S
C948 H931 0.930 . S
C948 N943 1.307 . S
C948 C945 1.402 . S
N949 Gd912 2.601 . S
N949 C950 1.359 . S
N949 C953 1.334 . S
C950 C947 1.426 . S
C950 N949 1.359 . S
C950 C954 1.413 . S
C951 H942 0.930 . S
C951 C952 1.359 . S
C951 C953 1.394 . S
C952 C951 1.359 . S
C952 C954 1.391 . S
C952 H955 0.929 . S
C953 H935 0.930 . S
C953 N949 1.334 . S
C953 C951 1.394 . S
C954 C950 1.413 . S
C954 C952 1.391 . S
C954 C969 1.437 . S
H955 C952 0.929 . S
O956 Gd912 2.545 . S
O956 C971 1.258 . S
O957 Gd912 2.606 . S
O957 Gd913 2.362 . S
O957 C968 1.284 . S
O958 Gd913 2.324 . S
O958 C978 1.254 . S
O959 Gd912 2.429 . S
O959 C978 1.268 . S
O960 Gd912 2.545 . S
O960 C968 1.250 . S
O961 Gd912 2.412 . S
O961 C971 1.252 . S
O962 Gd913 2.545 . S
O962 C980 1.258 . S
O963 Gd912 2.362 . S
O963 Gd913 2.606 . S
O963 C979 1.284 . S
O964 Gd912 2.324 . S
O964 C987 1.254 . S
O965 Gd913 2.429 . S
O965 C987 1.268 . S
O966 Gd913 2.545 . S
O966 C979 1.250 . S
O967 Gd913 2.412 . S
O967 C980 1.252 . S
C968 O957 1.284 . S
C968 O960 1.250 . S
C969 H938 0.929 . S
C969 C954 1.437 . S
C969 C970 1.317 . S
C970 H941 0.930 . S
C970 C946 1.431 . S
C970 C969 1.317 . S
C971 Gd912 2.828 . S
C971 O956 1.258 . S
C971 O961 1.252 . S
C971 C972 1.497 . S
C972 C971 1.497 . S
C972 C973 1.395 . S
C972 C974 1.380 . S
C973 C972 1.395 . S
C973 C976 1.398 . S
C973 H988 0.930 . S
C974 C972 1.380 . S
C974 C975 1.391 . S
C974 H989 0.930 . S
C975 C974 1.391 . S
C975 C977 1.387 . S
C976 C973 1.398 . S
C976 C977 1.380 . S
C976 H990 0.930 . S
C977 C975 1.387 . S
C977 C976 1.380 . S
C977 H991 0.930 . S
C978 O958 1.254 . S
C978 O959 1.268 . S
C979 O963 1.284 . S
C979 O966 1.250 . S
C980 Gd913 2.828 . S
C980 O962 1.258 . S
C980 O967 1.252 . S
C980 C981 1.497 . S
C981 C980 1.497 . S
C981 C982 1.395 . S
C981 C983 1.380 . S
C982 C981 1.395 . S
C982 C985 1.398 . S
C982 H992 0.930 . S
C983 C981 1.380 . S
C983 C984 1.391 . S
C983 H993 0.930 . S
C984 C983 1.391 . S
C984 C986 1.387 . S
C985 C982 1.398 . S
C985 C986 1.380 . S
C985 H994 0.930 . S
C986 C984 1.387 . S
C986 C985 1.380 . S
C986 H995 0.930 . S
C987 O964 1.254 . S
C987 O965 1.268 . S
H988 C973 0.930 . S
H989 C974 0.930 . S
H990 C976 0.930 . S
H991 C977 0.930 . S
H992 C982 0.930 . S
H993 C983 0.930 . S
H994 C985 0.930 . S
H995 C986 0.930 . S
Gd996 N1027 2.661 . S
Gd996 N1033 2.601 . S
Gd996 O1040 2.545 . S
Gd996 O1041 2.606 . S
Gd996 O1043 2.429 . S
Gd996 O1044 2.545 . S
Gd996 O1045 2.412 . S
Gd996 O1047 2.362 . S
Gd996 O1048 2.324 . S
Gd996 C1055 2.828 . S
Gd997 N1006 2.661 . S
Gd997 N1010 2.601 . S
Gd997 O1041 2.362 . S
Gd997 O1042 2.324 . S
Gd997 O1046 2.545 . S
Gd997 O1047 2.606 . S
Gd997 O1049 2.429 . S
Gd997 O1050 2.545 . S
Gd997 O1051 2.412 . S
Gd997 C1064 2.828 . S
C998 C1001 1.417 . S
C998 C1003 1.431 . S
C998 C1004 1.412 . S
C999 C1002 1.437 . S
C999 C1003 1.317 . S
C999 H1018 0.929 . S
C1000 C1001 1.426 . S
C1000 C1002 1.413 . S
C1000 N1010 1.359 . S
C1001 C998 1.417 . S
C1001 C1000 1.426 . S
C1001 N1006 1.350 . S
C1002 C999 1.437 . S
C1002 C1000 1.413 . S
C1002 C1012 1.391 . S
C1003 C998 1.431 . S
C1003 C999 1.317 . S
C1003 H1014 0.930 . S
C1004 C998 1.412 . S
C1004 C1005 1.355 . S
C1004 H1016 0.930 . S
C1005 C1004 1.355 . S
C1005 C1007 1.402 . S
C1005 H1017 0.930 . S
N1006 Gd997 2.661 . S
N1006 C1001 1.350 . S
N1006 C1007 1.307 . S
C1007 C1005 1.402 . S
C1007 N1006 1.307 . S
C1007 H1008 0.930 . S
H1008 C1007 0.930 . S
C1009 N1010 1.334 . S
C1009 C1011 1.394 . S
C1009 H1013 0.930 . S
N1010 Gd997 2.601 . S
N1010 C1000 1.359 . S
N1010 C1009 1.334 . S
C1011 C1009 1.394 . S
C1011 C1012 1.359 . S
C1011 H1023 0.930 . S
C1012 C1002 1.391 . S
C1012 C1011 1.359 . S
C1012 H1024 0.929 . S
H1013 C1009 0.930 . S
H1014 C1003 0.930 . S
H1015 C1032 0.930 . S
H1016 C1004 0.930 . S
H1017 C1005 0.930 . S
H1018 C999 0.929 . S
H1019 C1037 0.930 . S
H1020 C1028 0.930 1_655 S
H1021 C1029 0.930 . S
H1022 C1053 0.929 . S
H1023 C1011 0.930 . S
H1024 C1012 0.929 . S
H1025 C1054 0.930 1_655 S
H1026 C1035 0.930 . S
N1027 Gd996 2.661 . S
N1027 C1031 1.350 . S
N1027 C1032 1.307 . S
C1028 H1020 0.930 1_455 S
C1028 C1029 1.355 . S
C1028 C1030 1.412 . S
C1029 H1021 0.930 . S
C1029 C1028 1.355 . S
C1029 C1032 1.402 . S
C1030 C1028 1.412 . S
C1030 C1031 1.417 . S
C1030 C1054 1.431 . S
C1031 N1027 1.350 . S
C1031 C1030 1.417 . S
C1031 C1034 1.426 . S
C1032 H1015 0.930 . S
C1032 N1027 1.307 . S
C1032 C1029 1.402 . S
N1033 Gd996 2.601 . S
N1033 C1034 1.359 . S
N1033 C1037 1.334 . S
C1034 C1031 1.426 . S
C1034 N1033 1.359 . S
C1034 C1038 1.413 . S
C1035 H1026 0.930 . S
C1035 C1036 1.359 . S
C1035 C1037 1.394 . S
C1036 C1035 1.359 . S
C1036 C1038 1.391 . S
C1036 H1039 0.929 . S
C1037 H1019 0.930 . S
C1037 N1033 1.334 . S
C1037 C1035 1.394 . S
C1038 C1034 1.413 . S
C1038 C1036 1.391 . S
C1038 C1053 1.437 . S
H1039 C1036 0.929 . S
O1040 Gd996 2.545 . S
O1040 C1055 1.258 . S
O1041 Gd996 2.606 . S
O1041 Gd997 2.362 . S
O1041 C1052 1.284 . S
O1042 Gd997 2.324 . S
O1042 C1062 1.254 . S
O1043 Gd996 2.429 . S
O1043 C1062 1.268 . S
O1044 Gd996 2.545 . S
O1044 C1052 1.250 . S
O1045 Gd996 2.412 . S
O1045 C1055 1.252 . S
O1046 Gd997 2.545 . S
O1046 C1064 1.258 . S
O1047 Gd996 2.362 . S
O1047 Gd997 2.606 . S
O1047 C1063 1.284 . S
O1048 Gd996 2.324 . S
O1048 C1071 1.254 . S
O1049 Gd997 2.429 . S
O1049 C1071 1.268 . S
O1050 Gd997 2.545 . S
O1050 C1063 1.250 . S
O1051 Gd997 2.412 . S
O1051 C1064 1.252 . S
C1052 O1041 1.284 . S
C1052 O1044 1.250 . S
C1053 H1022 0.929 . S
C1053 C1038 1.437 . S
C1053 C1054 1.317 . S
C1054 H1025 0.930 1_455 S
C1054 C1030 1.431 . S
C1054 C1053 1.317 . S
C1055 Gd996 2.828 . S
C1055 O1040 1.258 . S
C1055 O1045 1.252 . S
C1055 C1056 1.497 . S
C1056 C1055 1.497 . S
C1056 C1057 1.395 . S
C1056 C1058 1.380 . S
C1057 C1056 1.395 . S
C1057 C1060 1.398 . S
C1057 H1072 0.930 . S
C1058 C1056 1.380 . S
C1058 C1059 1.391 . S
C1058 H1073 0.930 . S
C1059 C1058 1.391 . S
C1059 C1061 1.387 . S
C1060 C1057 1.398 . S
C1060 C1061 1.380 . S
C1060 H1074 0.930 . S
C1061 C1059 1.387 . S
C1061 C1060 1.380 . S
C1061 H1075 0.930 . S
C1062 O1042 1.254 . S
C1062 O1043 1.268 . S
C1063 O1047 1.284 . S
C1063 O1050 1.250 . S
C1064 Gd997 2.828 . S
C1064 O1046 1.258 . S
C1064 O1051 1.252 . S
C1064 C1065 1.497 . S
C1065 C1064 1.497 . S
C1065 C1066 1.395 . S
C1065 C1067 1.380 . S
C1066 C1065 1.395 . S
C1066 C1069 1.398 . S
C1066 H1076 0.930 . S
C1067 C1065 1.380 . S
C1067 C1068 1.391 . S
C1067 H1077 0.930 . S
C1068 C1067 1.391 . S
C1068 C1070 1.387 . S
C1069 C1066 1.398 . S
C1069 C1070 1.380 . S
C1069 H1078 0.930 . S
C1070 C1068 1.387 . S
C1070 C1069 1.380 . S
C1070 H1079 0.930 . S
C1071 O1048 1.254 . S
C1071 O1049 1.268 . S
H1072 C1057 0.930 . S
H1073 C1058 0.930 . S
H1074 C1060 0.930 . S
H1075 C1061 0.930 . S
H1076 C1066 0.930 . S
H1077 C1067 0.930 . S
H1078 C1069 0.930 . S
H1079 C1070 0.930 . S
Gd1080 N1111 2.661 . S
Gd1080 N1117 2.601 . S
Gd1080 O1124 2.545 . S
Gd1080 O1125 2.606 . S
Gd1080 O1127 2.429 . S
Gd1080 O1128 2.545 . S
Gd1080 O1129 2.412 . S
Gd1080 O1131 2.362 . S
Gd1080 O1132 2.324 . S
Gd1080 C1139 2.828 . S
Gd1081 N1090 2.661 . S
Gd1081 N1094 2.601 . S
Gd1081 O1125 2.362 . S
Gd1081 O1126 2.324 . S
Gd1081 O1130 2.545 . S
Gd1081 O1131 2.606 . S
Gd1081 O1133 2.429 . S
Gd1081 O1134 2.545 . S
Gd1081 O1135 2.412 . S
Gd1081 C1148 2.828 . S
C1082 C1085 1.417 . S
C1082 C1087 1.431 . S
C1082 C1088 1.412 . S
C1083 C1086 1.437 . S
C1083 C1087 1.317 . S
C1083 H1102 0.929 . S
C1084 C1085 1.426 . S
C1084 C1086 1.413 . S
C1084 N1094 1.359 . S
C1085 C1082 1.417 . S
C1085 C1084 1.426 . S
C1085 N1090 1.350 . S
C1086 C1083 1.437 . S
C1086 C1084 1.413 . S
C1086 C1096 1.391 . S
C1087 C1082 1.431 . S
C1087 C1083 1.317 . S
C1087 H1098 0.930 . S
C1088 C1082 1.412 . S
C1088 C1089 1.355 . S
C1088 H1100 0.930 . S
C1089 C1088 1.355 . S
C1089 C1091 1.402 . S
C1089 H1101 0.930 . S
N1090 Gd1081 2.661 . S
N1090 C1085 1.350 . S
N1090 C1091 1.307 . S
C1091 C1089 1.402 . S
C1091 N1090 1.307 . S
C1091 H1092 0.930 . S
H1092 C1091 0.930 . S
C1093 N1094 1.334 . S
C1093 C1095 1.394 . S
C1093 H1097 0.930 . S
N1094 Gd1081 2.601 . S
N1094 C1084 1.359 . S
N1094 C1093 1.334 . S
C1095 C1093 1.394 . S
C1095 C1096 1.359 . S
C1095 H1107 0.930 . S
C1096 C1086 1.391 . S
C1096 C1095 1.359 . S
C1096 H1108 0.929 . S
H1097 C1093 0.930 . S
H1098 C1087 0.930 . S
H1099 C1116 0.930 . S
H1100 C1088 0.930 . S
H1101 C1089 0.930 . S
H1102 C1083 0.929 . S
H1103 C1121 0.930 . S
H1104 C1112 0.930 1_455 S
H1105 C1113 0.930 . S
H1106 C1137 0.929 . S
H1107 C1095 0.930 . S
H1108 C1096 0.929 . S
H1109 C1138 0.930 1_455 S
H1110 C1119 0.930 . S
N1111 Gd1080 2.661 . S
N1111 C1115 1.350 . S
N1111 C1116 1.307 . S
C1112 H1104 0.930 1_655 S
C1112 C1113 1.355 . S
C1112 C1114 1.412 . S
C1113 H1105 0.930 . S
C1113 C1112 1.355 . S
C1113 C1116 1.402 . S
C1114 C1112 1.412 . S
C1114 C1115 1.417 . S
C1114 C1138 1.431 . S
C1115 N1111 1.350 . S
C1115 C1114 1.417 . S
C1115 C1118 1.426 . S
C1116 H1099 0.930 . S
C1116 N1111 1.307 . S
C1116 C1113 1.402 . S
N1117 Gd1080 2.601 . S
N1117 C1118 1.359 . S
N1117 C1121 1.334 . S
C1118 C1115 1.426 . S
C1118 N1117 1.359 . S
C1118 C1122 1.413 . S
C1119 H1110 0.930 . S
C1119 C1120 1.359 . S
C1119 C1121 1.394 . S
C1120 C1119 1.359 . S
C1120 C1122 1.391 . S
C1120 H1123 0.929 . S
C1121 H1103 0.930 . S
C1121 N1117 1.334 . S
C1121 C1119 1.394 . S
C1122 C1118 1.413 . S
C1122 C1120 1.391 . S
C1122 C1137 1.437 . S
H1123 C1120 0.929 . S
O1124 Gd1080 2.545 . S
O1124 C1139 1.258 . S
O1125 Gd1080 2.606 . S
O1125 Gd1081 2.362 . S
O1125 C1136 1.284 . S
O1126 Gd1081 2.324 . S
O1126 C1146 1.254 . S
O1127 Gd1080 2.429 . S
O1127 C1146 1.268 . S
O1128 Gd1080 2.545 . S
O1128 C1136 1.250 . S
O1129 Gd1080 2.412 . S
O1129 C1139 1.252 . S
O1130 Gd1081 2.545 . S
O1130 C1148 1.258 . S
O1131 Gd1080 2.362 . S
O1131 Gd1081 2.606 . S
O1131 C1147 1.284 . S
O1132 Gd1080 2.324 . S
O1132 C1155 1.254 . S
O1133 Gd1081 2.429 . S
O1133 C1155 1.268 . S
O1134 Gd1081 2.545 . S
O1134 C1147 1.250 . S
O1135 Gd1081 2.412 . S
O1135 C1148 1.252 . S
C1136 O1125 1.284 . S
C1136 O1128 1.250 . S
C1137 H1106 0.929 . S
C1137 C1122 1.437 . S
C1137 C1138 1.317 . S
C1138 H1109 0.930 1_655 S
C1138 C1114 1.431 . S
C1138 C1137 1.317 . S
C1139 Gd1080 2.828 . S
C1139 O1124 1.258 . S
C1139 O1129 1.252 . S
C1139 C1140 1.497 . S
C1140 C1139 1.497 . S
C1140 C1141 1.395 . S
C1140 C1142 1.380 . S
C1141 C1140 1.395 . S
C1141 C1144 1.398 . S
C1141 H1156 0.930 . S
C1142 C1140 1.380 . S
C1142 C1143 1.391 . S
C1142 H1157 0.930 . S
C1143 C1142 1.391 . S
C1143 C1145 1.387 . S
C1144 C1141 1.398 . S
C1144 C1145 1.380 . S
C1144 H1158 0.930 . S
C1145 C1143 1.387 . S
C1145 C1144 1.380 . S
C1145 H1159 0.930 . S
C1146 O1126 1.254 . S
C1146 O1127 1.268 . S
C1147 O1131 1.284 . S
C1147 O1134 1.250 . S
C1148 Gd1081 2.828 . S
C1148 O1130 1.258 . S
C1148 O1135 1.252 . S
C1148 C1149 1.497 . S
C1149 C1148 1.497 . S
C1149 C1150 1.395 . S
C1149 C1151 1.380 . S
C1150 C1149 1.395 . S
C1150 C1153 1.398 . S
C1150 H1160 0.930 . S
C1151 C1149 1.380 . S
C1151 C1152 1.391 . S
C1151 H1161 0.930 . S
C1152 C1151 1.391 . S
C1152 C1154 1.387 . S
C1153 C1150 1.398 . S
C1153 C1154 1.380 . S
C1153 H1162 0.930 . S
C1154 C1152 1.387 . S
C1154 C1153 1.380 . S
C1154 H1163 0.930 . S
C1155 O1132 1.254 . S
C1155 O1133 1.268 . S
H1156 C1141 0.930 . S
H1157 C1142 0.930 . S
H1158 C1144 0.930 . S
H1159 C1145 0.930 . S
H1160 C1150 0.930 . S
H1161 C1151 0.930 . S
H1162 C1153 0.930 . S
H1163 C1154 0.930 . S
Gd1164 N1195 2.661 . S
Gd1164 N1201 2.601 . S
Gd1164 O1208 2.545 . S
Gd1164 O1209 2.606 . S
Gd1164 O1211 2.429 . S
Gd1164 O1212 2.545 . S
Gd1164 O1213 2.412 . S
Gd1164 O1215 2.362 . S
Gd1164 O1216 2.324 . S
Gd1164 C1223 2.828 . S
Gd1165 N1174 2.661 . S
Gd1165 N1178 2.601 . S
Gd1165 O1209 2.362 . S
Gd1165 O1210 2.324 . S
Gd1165 O1214 2.545 . S
Gd1165 O1215 2.606 . S
Gd1165 O1217 2.429 . S
Gd1165 O1218 2.545 . S
Gd1165 O1219 2.412 . S
Gd1165 C1232 2.828 . S
C1166 C1169 1.417 . S
C1166 C1171 1.431 . S
C1166 C1172 1.412 . S
C1167 C1170 1.437 . S
C1167 C1171 1.317 . S
C1167 H1186 0.929 . S
C1168 C1169 1.426 . S
C1168 C1170 1.413 . S
C1168 N1178 1.359 . S
C1169 C1166 1.417 . S
C1169 C1168 1.426 . S
C1169 N1174 1.350 . S
C1170 C1167 1.437 . S
C1170 C1168 1.413 . S
C1170 C1180 1.391 . S
C1171 C1166 1.431 . S
C1171 C1167 1.317 . S
C1171 H1182 0.930 . S
C1172 C1166 1.412 . S
C1172 C1173 1.355 . S
C1172 H1184 0.930 . S
C1173 C1172 1.355 . S
C1173 C1175 1.402 . S
C1173 H1185 0.930 . S
N1174 Gd1165 2.661 . S
N1174 C1169 1.350 . S
N1174 C1175 1.307 . S
C1175 C1173 1.402 . S
C1175 N1174 1.307 . S
C1175 H1176 0.930 . S
H1176 C1175 0.930 . S
C1177 N1178 1.334 . S
C1177 C1179 1.394 . S
C1177 H1181 0.930 . S
N1178 Gd1165 2.601 . S
N1178 C1168 1.359 . S
N1178 C1177 1.334 . S
C1179 C1177 1.394 . S
C1179 C1180 1.359 . S
C1179 H1191 0.930 . S
C1180 C1170 1.391 . S
C1180 C1179 1.359 . S
C1180 H1192 0.929 . S
H1181 C1177 0.930 . S
H1182 C1171 0.930 . S
H1183 C1200 0.930 . S
H1184 C1172 0.930 . S
H1185 C1173 0.930 . S
H1186 C1167 0.929 . S
H1187 C1205 0.930 . S
H1188 C1196 0.930 . S
H1189 C1197 0.930 . S
H1190 C1221 0.929 . S
H1191 C1179 0.930 . S
H1192 C1180 0.929 . S
H1193 C1222 0.930 . S
H1194 C1203 0.930 . S
N1195 Gd1164 2.661 . S
N1195 C1199 1.350 . S
N1195 C1200 1.307 . S
C1196 H1188 0.930 . S
C1196 C1197 1.355 . S
C1196 C1198 1.412 . S
C1197 H1189 0.930 . S
C1197 C1196 1.355 . S
C1197 C1200 1.402 . S
C1198 C1196 1.412 . S
C1198 C1199 1.417 . S
C1198 C1222 1.431 . S
C1199 N1195 1.350 . S
C1199 C1198 1.417 . S
C1199 C1202 1.426 . S
C1200 H1183 0.930 . S
C1200 N1195 1.307 . S
C1200 C1197 1.402 . S
N1201 Gd1164 2.601 . S
N1201 C1202 1.359 . S
N1201 C1205 1.334 . S
C1202 C1199 1.426 . S
C1202 N1201 1.359 . S
C1202 C1206 1.413 . S
C1203 H1194 0.930 . S
C1203 C1204 1.359 . S
C1203 C1205 1.394 . S
C1204 C1203 1.359 . S
C1204 C1206 1.391 . S
C1204 H1207 0.929 . S
C1205 H1187 0.930 . S
C1205 N1201 1.334 . S
C1205 C1203 1.394 . S
C1206 C1202 1.413 . S
C1206 C1204 1.391 . S
C1206 C1221 1.437 . S
H1207 C1204 0.929 . S
O1208 Gd1164 2.545 . S
O1208 C1223 1.258 . S
O1209 Gd1164 2.606 . S
O1209 Gd1165 2.362 . S
O1209 C1220 1.284 . S
O1210 Gd1165 2.324 . S
O1210 C1230 1.254 . S
O1211 Gd1164 2.429 . S
O1211 C1230 1.268 . S
O1212 Gd1164 2.545 . S
O1212 C1220 1.250 . S
O1213 Gd1164 2.412 . S
O1213 C1223 1.252 . S
O1214 Gd1165 2.545 . S
O1214 C1232 1.258 . S
O1215 Gd1164 2.362 . S
O1215 Gd1165 2.606 . S
O1215 C1231 1.284 . S
O1216 Gd1164 2.324 . S
O1216 C1239 1.254 . S
O1217 Gd1165 2.429 . S
O1217 C1239 1.268 . S
O1218 Gd1165 2.545 . S
O1218 C1231 1.250 . S
O1219 Gd1165 2.412 . S
O1219 C1232 1.252 . S
C1220 O1209 1.284 . S
C1220 O1212 1.250 . S
C1221 H1190 0.929 . S
C1221 C1206 1.437 . S
C1221 C1222 1.317 . S
C1222 H1193 0.930 . S
C1222 C1198 1.431 . S
C1222 C1221 1.317 . S
C1223 Gd1164 2.828 . S
C1223 O1208 1.258 . S
C1223 O1213 1.252 . S
C1223 C1224 1.497 . S
C1224 C1223 1.497 . S
C1224 C1225 1.395 . S
C1224 C1226 1.380 . S
C1225 C1224 1.395 . S
C1225 C1228 1.398 . S
C1225 H1240 0.930 . S
C1226 C1224 1.380 . S
C1226 C1227 1.391 . S
C1226 H1241 0.930 . S
C1227 C1226 1.391 . S
C1227 C1229 1.387 . S
C1228 C1225 1.398 . S
C1228 C1229 1.380 . S
C1228 H1242 0.930 . S
C1229 C1227 1.387 . S
C1229 C1228 1.380 . S
C1229 H1243 0.930 . S
C1230 O1210 1.254 . S
C1230 O1211 1.268 . S
C1231 O1215 1.284 . S
C1231 O1218 1.250 . S
C1232 Gd1165 2.828 . S
C1232 O1214 1.258 . S
C1232 O1219 1.252 . S
C1232 C1233 1.497 . S
C1233 C1232 1.497 . S
C1233 C1234 1.395 . S
C1233 C1235 1.380 . S
C1234 C1233 1.395 . S
C1234 C1237 1.398 . S
C1234 H1244 0.930 . S
C1235 C1233 1.380 . S
C1235 C1236 1.391 . S
C1235 H1245 0.930 . S
C1236 C1235 1.391 . S
C1236 C1238 1.387 . S
C1237 C1234 1.398 . S
C1237 C1238 1.380 . S
C1237 H1246 0.930 . S
C1238 C1236 1.387 . S
C1238 C1237 1.380 . S
C1238 H1247 0.930 . S
C1239 O1216 1.254 . S
C1239 O1217 1.268 . S
H1240 C1225 0.930 . S
H1241 C1226 0.930 . S
H1242 C1228 0.930 . S
H1243 C1229 0.930 . S
H1244 C1234 0.930 . S
H1245 C1235 0.930 . S
H1246 C1237 0.930 . S
H1247 C1238 0.930 . S
Gd1248 N1279 2.661 . S
Gd1248 N1285 2.601 . S
Gd1248 O1292 2.545 . S
Gd1248 O1293 2.606 . S
Gd1248 O1295 2.429 . S
Gd1248 O1296 2.545 . S
Gd1248 O1297 2.412 . S
Gd1248 O1299 2.362 . S
Gd1248 O1300 2.324 . S
Gd1248 C1307 2.828 . S
Gd1249 N1258 2.661 . S
Gd1249 N1262 2.601 . S
Gd1249 O1293 2.362 . S
Gd1249 O1294 2.324 . S
Gd1249 O1298 2.545 . S
Gd1249 O1299 2.606 . S
Gd1249 O1301 2.429 . S
Gd1249 O1302 2.545 . S
Gd1249 O1303 2.412 . S
Gd1249 C1316 2.828 . S
C1250 C1253 1.417 . S
C1250 C1255 1.431 . S
C1250 C1256 1.412 . S
C1251 C1254 1.437 . S
C1251 C1255 1.317 . S
C1251 H1270 0.929 . S
C1252 C1253 1.426 . S
C1252 C1254 1.413 . S
C1252 N1262 1.359 . S
C1253 C1250 1.417 . S
C1253 C1252 1.426 . S
C1253 N1258 1.350 . S
C1254 C1251 1.437 . S
C1254 C1252 1.413 . S
C1254 C1264 1.391 . S
C1255 C1250 1.431 . S
C1255 C1251 1.317 . S
C1255 H1266 0.930 1_655 S
C1256 C1250 1.412 . S
C1256 C1257 1.355 . S
C1256 H1268 0.930 1_655 S
C1257 C1256 1.355 . S
C1257 C1259 1.402 . S
C1257 H1269 0.930 . S
N1258 Gd1249 2.661 . S
N1258 C1253 1.350 . S
N1258 C1259 1.307 . S
C1259 C1257 1.402 . S
C1259 N1258 1.307 . S
C1259 H1260 0.930 . S
H1260 C1259 0.930 . S
C1261 N1262 1.334 . S
C1261 C1263 1.394 . S
C1261 H1265 0.930 . S
N1262 Gd1249 2.601 . S
N1262 C1252 1.359 . S
N1262 C1261 1.334 . S
C1263 C1261 1.394 . S
C1263 C1264 1.359 . S
C1263 H1275 0.930 . S
C1264 C1254 1.391 . S
C1264 C1263 1.359 . S
C1264 H1276 0.929 . S
H1265 C1261 0.930 . S
H1266 C1255 0.930 1_455 S
H1267 C1284 0.930 . S
H1268 C1256 0.930 1_455 S
H1269 C1257 0.930 . S
H1270 C1251 0.929 . S
H1271 C1289 0.930 . S
H1272 C1280 0.930 . S
H1273 C1281 0.930 . S
H1274 C1305 0.929 . S
H1275 C1263 0.930 . S
H1276 C1264 0.929 . S
H1277 C1306 0.930 . S
H1278 C1287 0.930 . S
N1279 Gd1248 2.661 . S
N1279 C1283 1.350 . S
N1279 C1284 1.307 . S
C1280 H1272 0.930 . S
C1280 C1281 1.355 . S
C1280 C1282 1.412 . S
C1281 H1273 0.930 . S
C1281 C1280 1.355 . S
C1281 C1284 1.402 . S
C1282 C1280 1.412 . S
C1282 C1283 1.417 . S
C1282 C1306 1.431 . S
C1283 N1279 1.350 . S
C1283 C1282 1.417 . S
C1283 C1286 1.426 . S
C1284 H1267 0.930 . S
C1284 N1279 1.307 . S
C1284 C1281 1.402 . S
N1285 Gd1248 2.601 . S
N1285 C1286 1.359 . S
N1285 C1289 1.334 . S
C1286 C1283 1.426 . S
C1286 N1285 1.359 . S
C1286 C1290 1.413 . S
C1287 H1278 0.930 . S
C1287 C1288 1.359 . S
C1287 C1289 1.394 . S
C1288 C1287 1.359 . S
C1288 C1290 1.391 . S
C1288 H1291 0.929 . S
C1289 H1271 0.930 . S
C1289 N1285 1.334 . S
C1289 C1287 1.394 . S
C1290 C1286 1.413 . S
C1290 C1288 1.391 . S
C1290 C1305 1.437 . S
H1291 C1288 0.929 . S
O1292 Gd1248 2.545 . S
O1292 C1307 1.258 . S
O1293 Gd1248 2.606 . S
O1293 Gd1249 2.362 . S
O1293 C1304 1.284 . S
O1294 Gd1249 2.324 . S
O1294 C1314 1.254 . S
O1295 Gd1248 2.429 . S
O1295 C1314 1.268 . S
O1296 Gd1248 2.545 . S
O1296 C1304 1.250 . S
O1297 Gd1248 2.412 . S
O1297 C1307 1.252 . S
O1298 Gd1249 2.545 . S
O1298 C1316 1.258 . S
O1299 Gd1248 2.362 . S
O1299 Gd1249 2.606 . S
O1299 C1315 1.284 . S
O1300 Gd1248 2.324 . S
O1300 C1323 1.254 . S
O1301 Gd1249 2.429 . S
O1301 C1323 1.268 . S
O1302 Gd1249 2.545 . S
O1302 C1315 1.250 . S
O1303 Gd1249 2.412 . S
O1303 C1316 1.252 . S
C1304 O1293 1.284 . S
C1304 O1296 1.250 . S
C1305 H1274 0.929 . S
C1305 C1290 1.437 . S
C1305 C1306 1.317 . S
C1306 H1277 0.930 . S
C1306 C1282 1.431 . S
C1306 C1305 1.317 . S
C1307 Gd1248 2.828 . S
C1307 O1292 1.258 . S
C1307 O1297 1.252 . S
C1307 C1308 1.497 . S
C1308 C1307 1.497 . S
C1308 C1309 1.395 . S
C1308 C1310 1.380 . S
C1309 C1308 1.395 . S
C1309 C1312 1.398 . S
C1309 H1324 0.930 . S
C1310 C1308 1.380 . S
C1310 C1311 1.391 . S
C1310 H1325 0.930 . S
C1311 C1310 1.391 . S
C1311 C1313 1.387 . S
C1312 C1309 1.398 . S
C1312 C1313 1.380 . S
C1312 H1326 0.930 . S
C1313 C1311 1.387 . S
C1313 C1312 1.380 . S
C1313 H1327 0.930 . S
C1314 O1294 1.254 . S
C1314 O1295 1.268 . S
C1315 O1299 1.284 . S
C1315 O1302 1.250 . S
C1316 Gd1249 2.828 . S
C1316 O1298 1.258 . S
C1316 O1303 1.252 . S
C1316 C1317 1.497 . S
C1317 C1316 1.497 . S
C1317 C1318 1.395 . S
C1317 C1319 1.380 . S
C1318 C1317 1.395 . S
C1318 C1321 1.398 . S
C1318 H1328 0.930 . S
C1319 C1317 1.380 . S
C1319 C1320 1.391 . S
C1319 H1329 0.930 . S
C1320 C1319 1.391 . S
C1320 C1322 1.387 . S
C1321 C1318 1.398 . S
C1321 C1322 1.380 . S
C1321 H1330 0.930 . S
C1322 C1320 1.387 . S
C1322 C1321 1.380 . S
C1322 H1331 0.930 . S
C1323 O1300 1.254 . S
C1323 O1301 1.268 . S
H1324 C1309 0.930 . S
H1325 C1310 0.930 . S
H1326 C1312 0.930 . S
H1327 C1313 0.930 . S
H1328 C1318 0.930 . S
H1329 C1319 0.930 . S
H1330 C1321 0.930 . S
H1331 C1322 0.930 . S
C1332 C1333 1.387 . S
C1332 H1336 0.950 . S
C1332 C1341 1.390 . S
C1333 C1332 1.387 . S
C1333 C1335 1.387 . S
H1334 C1341 0.950 . S
C1335 C1333 1.387 . S
C1335 C1337 1.390 . S
C1335 H1339 0.950 . S
H1336 C1332 0.950 . S
C1337 C1335 1.390 . S
C1337 C1338 1.387 . S
C1337 H1340 0.950 1_554 S
C1338 C1337 1.387 . S
C1338 C1341 1.387 . S
H1339 C1335 0.950 . S
H1340 C1337 0.950 1_556 S
C1341 C1332 1.390 . S
C1341 H1334 0.950 . S
C1341 C1338 1.387 . S
C1342 C1343 1.387 . S
C1342 H1346 0.950 . S
C1342 C1351 1.390 . S
C1343 C1342 1.387 . S
C1343 C1345 1.387 . S
H1344 C1351 0.950 . S
C1345 C1343 1.387 . S
C1345 C1347 1.390 . S
C1345 H1349 0.950 . S
H1346 C1342 0.950 . S
C1347 C1345 1.390 . S
C1347 C1348 1.387 . S
C1347 H1350 0.950 . S
C1348 C1347 1.387 . S
C1348 C1351 1.387 . S
H1349 C1345 0.950 . S
H1350 C1347 0.950 . S
C1351 C1342 1.390 . S
C1351 H1344 0.950 . S
C1351 C1348 1.387 . S
C1352 C1353 1.387 . S
C1352 H1356 0.950 . S
C1352 C1361 1.390 . S
C1353 C1352 1.387 . S
C1353 C1355 1.387 . S
H1354 C1361 0.919 1_556 S
C1355 C1353 1.387 . S
C1355 C1357 1.390 . S
C1355 H1359 0.950 . S
H1356 C1352 0.950 . S
C1357 C1355 1.390 . S
C1357 C1358 1.387 . S
C1357 H1360 0.950 . S
C1358 C1357 1.387 . S
C1358 C1361 1.387 . S
H1359 C1355 0.950 . S
H1360 C1357 0.950 . S
C1361 C1352 1.390 . S
C1361 H1354 0.919 1_554 S
C1361 C1358 1.387 . S
C1362 C1363 1.387 . S
C1362 H1366 0.950 . S
C1362 C1371 1.390 . S
C1363 C1362 1.387 . S
C1363 C1365 1.387 . S
H1364 C1371 0.950 . S
C1365 C1363 1.387 . S
C1365 C1367 1.390 . S
C1365 H1369 0.950 . S
H1366 C1362 0.950 . S
C1367 C1365 1.390 . S
C1367 C1368 1.387 . S
C1367 H1370 0.950 . S
C1368 C1367 1.387 . S
C1368 C1371 1.387 . S
H1369 C1365 0.950 . S
H1370 C1367 0.950 . S
C1371 C1362 1.390 . S
C1371 H1364 0.950 . S
C1371 C1368 1.387 . S
C1372 C1373 1.387 . S
C1372 H1376 0.950 . S
C1372 C1381 1.390 . S
C1373 C1372 1.387 . S
C1373 C1375 1.387 . S
H1374 C1381 0.950 . S
C1375 C1373 1.387 . S
C1375 C1377 1.390 . S
C1375 H1379 0.950 . S
H1376 C1372 0.950 . S
C1377 C1375 1.390 . S
C1377 C1378 1.387 . S
C1377 H1380 0.950 1_556 S
C1378 C1377 1.387 . S
C1378 C1381 1.387 . S
H1379 C1375 0.950 . S
H1380 C1377 0.950 1_554 S
C1381 C1372 1.390 . S
C1381 H1374 0.950 . S
C1381 C1378 1.387 . S
C1382 C1383 1.387 . S
C1382 H1386 0.950 . S
C1382 C1391 1.390 . S
C1383 C1382 1.387 . S
C1383 C1385 1.387 . S
H1384 C1391 0.950 . S
C1385 C1383 1.387 . S
C1385 C1387 1.390 . S
C1385 H1389 0.950 . S
H1386 C1382 0.950 . S
C1387 C1385 1.390 . S
C1387 C1388 1.387 . S
C1387 H1390 0.950 . S
C1388 C1387 1.387 . S
C1388 C1391 1.387 . S
H1389 C1385 0.950 . S
H1390 C1387 0.950 . S
C1391 C1382 1.390 . S
C1391 H1384 0.950 . S
C1391 C1388 1.387 . S
C1392 C1393 1.387 . S
C1392 H1396 0.950 . S
C1392 C1401 1.390 . S
C1393 C1392 1.387 . S
C1393 C1395 1.387 . S
H1394 C1401 0.950 1_554 S
C1395 C1393 1.387 . S
C1395 C1397 1.390 . S
C1395 H1399 0.950 . S
H1396 C1392 0.950 . S
C1397 C1395 1.390 . S
C1397 C1398 1.387 . S
C1397 H1400 0.950 . S
C1398 C1397 1.387 . S
C1398 C1401 1.387 . S
H1399 C1395 0.950 . S
H1400 C1397 0.950 . S
C1401 C1392 1.390 . S
C1401 H1394 0.950 1_556 S
C1401 C1398 1.387 . S
C1402 C1403 1.387 . S
C1402 H1406 0.950 . S
C1402 C1411 1.390 . S
C1403 C1402 1.387 . S
C1403 C1405 1.387 . S
H1404 C1411 0.950 1_554 S
C1405 C1403 1.387 . S
C1405 C1407 1.390 . S
C1405 H1409 0.950 . S
H1406 C1402 0.950 . S
C1407 C1405 1.390 . S
C1407 C1408 1.387 . S
C1407 H1410 0.950 . S
C1408 C1407 1.387 . S
C1408 C1411 1.387 . S
H1409 C1405 0.950 . S
H1410 C1407 0.950 . S
C1411 C1402 1.390 . S
C1411 H1404 0.950 1_556 S
C1411 C1408 1.387 . S
C1412 C1413 1.387 . S
C1412 H1416 0.950 . S
C1412 C1421 1.390 . S
C1413 C1412 1.387 . S
C1413 C1415 1.387 . S
H1414 C1421 0.950 . S
C1415 C1413 1.387 . S
C1415 C1417 1.390 . S
C1415 H1419 0.950 . S
H1416 C1412 0.950 . S
C1417 C1415 1.390 . S
C1417 C1418 1.387 . S
C1417 H1420 0.950 . S
C1418 C1417 1.387 . S
C1418 C1421 1.387 . S
H1419 C1415 0.950 . S
H1420 C1417 0.950 . S
C1421 C1412 1.390 . S
C1421 H1414 0.950 . S
C1421 C1418 1.387 . S
C1422 C1423 1.387 . S
C1422 H1426 0.950 . S
C1422 C1431 1.390 . S
C1423 C1422 1.387 . S
C1423 C1425 1.387 . S
H1424 C1431 0.950 . S
C1425 C1423 1.387 . S
C1425 C1427 1.390 . S
C1425 H1429 0.950 . S
H1426 C1422 0.950 . S
C1427 C1425 1.390 . S
C1427 C1428 1.387 . S
C1427 H1430 0.950 . S
C1428 C1427 1.387 . S
C1428 C1431 1.387 . S
H1429 C1425 0.950 . S
H1430 C1427 0.950 . S
C1431 C1422 1.390 . S
C1431 H1424 0.950 . S
C1431 C1428 1.387 . S
C1432 C1433 1.387 . S
C1432 H1436 0.950 . S
C1432 C1441 1.390 . S
C1433 C1432 1.387 . S
C1433 C1435 1.387 . S
H1434 C1441 0.950 . S
C1435 C1433 1.387 . S
C1435 C1437 1.390 . S
C1435 H1439 0.950 . S
H1436 C1432 0.950 . S
C1437 C1435 1.390 . S
C1437 C1438 1.387 . S
C1437 H1440 0.950 . S
C1438 C1437 1.387 . S
C1438 C1441 1.387 . S
H1439 C1435 0.950 . S
H1440 C1437 0.950 . S
C1441 C1432 1.390 . S
C1441 H1434 0.950 . S
C1441 C1438 1.387 . S
C1442 C1443 1.387 . S
C1442 H1446 0.950 . S
C1442 C1451 1.390 . S
C1443 C1442 1.387 . S
C1443 C1445 1.387 . S
H1444 C1451 0.950 1_556 S
C1445 C1443 1.387 . S
C1445 C1447 1.390 . S
C1445 H1449 0.950 . S
H1446 C1442 0.950 . S
C1447 C1445 1.390 . S
C1447 C1448 1.387 . S
C1447 H1450 0.950 . S
C1448 C1447 1.387 . S
C1448 C1451 1.387 . S
H1449 C1445 0.950 . S
H1450 C1447 0.950 . S
C1451 C1442 1.390 . S
C1451 H1444 0.950 1_554 S
C1451 C1448 1.387 . S
C1452 C1453 1.387 . S
C1452 H1456 0.950 . S
C1452 C1461 1.390 . S
C1453 C1452 1.387 . S
C1453 C1455 1.387 . S
H1454 C1461 0.950 . S
C1455 C1453 1.387 . S
C1455 C1457 1.390 . S
C1455 H1459 0.950 1_455 S
H1456 C1452 0.950 . S
C1457 C1455 1.390 . S
C1457 C1458 1.387 . S
C1457 H1460 0.950 . S
C1458 C1457 1.387 . S
C1458 C1461 1.387 . S
H1459 C1455 0.950 1_655 S
H1460 C1457 0.950 . S
C1461 C1452 1.390 . S
C1461 H1454 0.950 . S
C1461 C1458 1.387 . S
C1462 C1463 1.387 . S
C1462 H1466 0.950 . S
C1462 C1471 1.390 . S
C1463 C1462 1.387 . S
C1463 C1465 1.387 . S
H1464 C1471 0.950 . S
C1465 C1463 1.387 . S
C1465 C1467 1.390 . S
C1465 H1469 0.950 . S
H1466 C1462 0.950 . S
C1467 C1465 1.390 . S
C1467 C1468 1.387 . S
C1467 H1470 0.950 . S
C1468 C1467 1.387 . S
C1468 C1471 1.387 . S
H1469 C1465 0.950 . S
H1470 C1467 0.950 . S
C1471 C1462 1.390 . S
C1471 H1464 0.950 . S
C1471 C1468 1.387 . S
C1472 C1473 1.387 . S
C1472 H1476 0.950 . S
C1472 C1481 1.390 . S
C1473 C1472 1.387 . S
C1473 C1475 1.387 . S
H1474 C1481 0.950 . S
C1475 C1473 1.387 . S
C1475 C1477 1.390 . S
C1475 H1479 0.950 1_565 S
H1476 C1472 0.950 . S
C1477 C1475 1.390 . S
C1477 C1478 1.387 . S
C1477 H1480 0.950 . S
C1478 C1477 1.387 . S
C1478 C1481 1.387 . S
H1479 C1475 0.950 1_545 S
H1480 C1477 0.950 . S
C1481 C1472 1.390 . S
C1481 H1474 0.950 . S
C1481 C1478 1.387 . S
C1482 C1483 1.387 . S
C1482 H1486 0.950 . S
C1482 C1491 1.390 . S
C1483 C1482 1.387 . S
C1483 C1485 1.387 . S
H1484 C1491 0.950 . S
C1485 C1483 1.387 . S
C1485 C1487 1.390 . S
C1485 H1489 0.950 . S
H1486 C1482 0.950 . S
C1487 C1485 1.390 . S
C1487 C1488 1.387 . S
C1487 H1490 0.950 . S
C1488 C1487 1.387 . S
C1488 C1491 1.387 . S
H1489 C1485 0.950 . S
H1490 C1487 0.950 . S
C1491 C1482 1.390 . S
C1491 H1484 0.950 . S
C1491 C1488 1.387 . S
C1492 C1493 1.387 . S
C1492 H1496 0.950 . S
C1492 C1501 1.390 . S
C1493 C1492 1.387 . S
C1493 C1495 1.387 . S
H1494 C1501 0.950 . S
C1495 C1493 1.387 . S
C1495 C1497 1.390 . S
C1495 H1499 0.950 . S
H1496 C1492 0.950 . S
C1497 C1495 1.390 . S
C1497 C1498 1.387 . S
C1497 H1500 0.950 . S
C1498 C1497 1.387 . S
C1498 C1501 1.387 . S
H1499 C1495 0.950 . S
H1500 C1497 0.950 . S
C1501 C1492 1.390 . S
C1501 H1494 0.950 . S
C1501 C1498 1.387 . S
C1502 C1503 1.387 . S
C1502 H1506 0.950 . S
C1502 C1511 1.390 . S
C1503 C1502 1.387 . S
C1503 C1505 1.387 . S
H1504 C1511 0.950 . S
C1505 C1503 1.387 . S
C1505 C1507 1.390 . S
C1505 H1509 0.950 . S
H1506 C1502 0.950 . S
C1507 C1505 1.390 . S
C1507 C1508 1.387 . S
C1507 H1510 0.950 . S
C1508 C1507 1.387 . S
C1508 C1511 1.387 . S
H1509 C1505 0.950 . S
H1510 C1507 0.950 . S
C1511 C1502 1.390 . S
C1511 H1504 0.950 . S
C1511 C1508 1.387 . S
C1512 C1513 1.387 . S
C1512 H1516 0.950 . S
C1512 C1521 1.390 . S
C1513 C1512 1.387 . S
C1513 C1515 1.387 . S
H1514 C1521 0.950 . S
C1515 C1513 1.387 . S
C1515 C1517 1.390 . S
C1515 H1519 0.950 . S
H1516 C1512 0.950 . S
C1517 C1515 1.390 . S
C1517 C1518 1.387 . S
C1517 H1520 0.950 . S
C1518 C1517 1.387 . S
C1518 C1521 1.387 . S
H1519 C1515 0.950 . S
H1520 C1517 0.950 . S
C1521 C1512 1.390 . S
C1521 H1514 0.950 . S
C1521 C1518 1.387 . S
C1522 C1523 1.387 . S
C1522 H1526 0.950 . S
C1522 C1531 1.390 . S
C1523 C1522 1.387 . S
C1523 C1525 1.387 . S
H1524 C1531 0.950 . S
C1525 C1523 1.387 . S
C1525 C1527 1.390 . S
C1525 H1529 0.950 . S
H1526 C1522 0.950 . S
C1527 C1525 1.390 . S
C1527 C1528 1.387 . S
C1527 H1530 0.950 . S
C1528 C1527 1.387 . S
C1528 C1531 1.387 . S
H1529 C1525 0.950 . S
H1530 C1527 0.950 . S
C1531 C1522 1.390 . S
C1531 H1524 0.950 . S
C1531 C1528 1.387 . S
C1532 C1533 1.387 . S
C1532 H1536 0.950 . S
C1532 C1541 1.390 . S
C1533 C1532 1.387 . S
C1533 C1535 1.387 . S
H1534 C1541 0.950 . S
C1535 C1533 1.387 . S
C1535 C1537 1.390 . S
C1535 H1539 0.950 . S
H1536 C1532 0.950 . S
C1537 C1535 1.390 . S
C1537 C1538 1.387 . S
C1537 H1540 0.950 . S
C1538 C1537 1.387 . S
C1538 C1541 1.387 . S
H1539 C1535 0.950 . S
H1540 C1537 0.950 . S
C1541 C1532 1.390 . S
C1541 H1534 0.950 . S
C1541 C1538 1.387 . S
C1542 C1543 1.387 . S
C1542 H1546 0.950 . S
C1542 C1551 1.390 . S
C1543 C1542 1.387 . S
C1543 C1545 1.387 . S
H1544 C1551 0.950 . S
C1545 C1543 1.387 . S
C1545 C1547 1.390 . S
C1545 H1549 0.950 1_565 S
H1546 C1542 0.950 . S
C1547 C1545 1.390 . S
C1547 C1548 1.387 . S
C1547 H1550 0.950 . S
C1548 C1547 1.387 . S
C1548 C1551 1.387 . S
H1549 C1545 0.950 1_545 S
H1550 C1547 0.950 . S
C1551 C1542 1.390 . S
C1551 H1544 0.950 . S
C1551 C1548 1.387 . S
C1552 C1553 1.387 . S
C1552 H1556 0.950 . S
C1552 C1561 1.390 . S
C1553 C1552 1.387 . S
C1553 C1555 1.387 . S
H1554 C1561 0.950 . S
C1555 C1553 1.387 . S
C1555 C1557 1.390 . S
C1555 H1559 0.950 1_455 S
H1556 C1552 0.950 . S
C1557 C1555 1.390 . S
C1557 C1558 1.387 . S
C1557 H1560 0.950 . S
C1558 C1557 1.387 . S
C1558 C1561 1.387 . S
H1559 C1555 0.950 1_655 S
H1560 C1557 0.950 . S
C1561 C1552 1.390 . S
C1561 H1554 0.950 . S
C1561 C1558 1.387 . S
C1562 C1563 1.387 . S
C1562 H1566 0.950 . S
C1562 C1571 1.390 . S
C1563 C1562 1.387 . S
C1563 C1565 1.387 . S
H1564 C1571 0.950 . S
C1565 C1563 1.387 . S
C1565 C1567 1.390 . S
C1565 H1569 0.950 . S
H1566 C1562 0.950 . S
C1567 C1565 1.390 . S
C1567 C1568 1.387 . S
C1567 H1570 0.950 . S
C1568 C1567 1.387 . S
C1568 C1571 1.387 . S
H1569 C1565 0.950 . S
H1570 C1567 0.950 . S
C1571 C1562 1.390 . S
C1571 H1564 0.950 . S
C1571 C1568 1.387 . S
C1572 C1573 1.387 . S
C1572 H1576 0.950 . S
C1572 C1581 1.390 . S
C1573 C1572 1.387 . S
C1573 C1575 1.387 . S
H1574 C1581 0.950 . S
C1575 C1573 1.387 . S
C1575 C1577 1.390 . S
C1575 H1579 0.950 . S
H1576 C1572 0.950 . S
C1577 C1575 1.390 . S
C1577 C1578 1.387 . S
C1577 H1580 0.950 . S
C1578 C1577 1.387 . S
C1578 C1581 1.387 . S
H1579 C1575 0.950 . S
H1580 C1577 0.950 . S
C1581 C1572 1.390 . S
C1581 H1574 0.950 . S
C1581 C1578 1.387 . S
C1582 C1583 1.387 . S
C1582 H1586 0.950 . S
C1582 C1591 1.390 . S
C1583 C1582 1.387 . S
C1583 C1585 1.387 . S
H1584 C1591 0.950 . S
C1585 C1583 1.387 . S
C1585 C1587 1.390 . S
C1585 H1589 0.950 . S
H1586 C1582 0.950 . S
C1587 C1585 1.390 . S
C1587 C1588 1.387 . S
C1587 H1590 0.950 . S
C1588 C1587 1.387 . S
C1588 C1591 1.387 . S
H1589 C1585 0.950 . S
H1590 C1587 0.950 . S
C1591 C1582 1.390 . S
C1591 H1584 0.950 . S
C1591 C1588 1.387 . S
C1592 C1593 1.387 . S
C1592 H1596 0.950 . S
C1592 C1601 1.390 . S
C1593 C1592 1.387 . S
C1593 C1595 1.387 . S
H1594 C1601 0.950 . S
C1595 C1593 1.387 . S
C1595 C1597 1.390 . S
C1595 H1599 0.950 . S
H1596 C1592 0.950 . S
C1597 C1595 1.390 . S
C1597 C1598 1.387 . S
C1597 H1600 0.950 . S
C1598 C1597 1.387 . S
C1598 C1601 1.387 . S
H1599 C1595 0.950 . S
H1600 C1597 0.950 . S
C1601 C1592 1.390 . S
C1601 H1594 0.950 . S
C1601 C1598 1.387 . S
C1602 C1603 1.387 . S
C1602 H1606 0.960 . S
C1602 C1611 1.390 . S
C1603 C1602 1.387 . S
C1603 C1605 1.387 . S
H1604 C1611 0.950 . S
C1605 C1603 1.387 . S
C1605 C1607 1.390 . S
C1605 H1609 0.950 . S
H1606 C1602 0.960 . S
C1607 C1605 1.390 . S
C1607 C1608 1.387 . S
C1607 H1610 0.950 . S
C1608 C1607 1.387 . S
C1608 C1611 1.387 . S
H1609 C1605 0.950 . S
H1610 C1607 0.950 . S
C1611 C1602 1.390 . S
C1611 H1604 0.950 . S
C1611 C1608 1.387 . S
C1612 C1613 1.387 . S
C1612 H1616 0.950 1_655 S
C1612 C1621 1.390 . S
C1613 C1612 1.387 . S
C1613 C1615 1.387 . S
H1614 C1621 0.950 . S
C1615 C1613 1.387 . S
C1615 C1617 1.390 . S
C1615 H1619 0.950 . S
H1616 C1612 0.950 1_455 S
C1617 C1615 1.390 . S
C1617 C1618 1.387 . S
C1617 H1620 0.950 . S
C1618 C1617 1.387 . S
C1618 C1621 1.387 . S
H1619 C1615 0.950 . S
H1620 C1617 0.950 . S
C1621 C1612 1.390 . S
C1621 H1614 0.950 . S
C1621 C1618 1.387 . S
C1622 C1623 1.387 . S
C1622 H1626 0.950 . S
C1622 C1631 1.390 . S
C1623 C1622 1.387 . S
C1623 C1625 1.387 . S
H1624 C1631 0.950 . S
C1625 C1623 1.387 . S
C1625 C1627 1.390 . S
C1625 H1629 0.950 . S
H1626 C1622 0.950 . S
C1627 C1625 1.390 . S
C1627 C1628 1.387 . S
C1627 H1630 0.950 . S
C1628 C1627 1.387 . S
C1628 C1631 1.387 . S
H1629 C1625 0.950 . S
H1630 C1627 0.950 . S
C1631 C1622 1.390 . S
C1631 H1624 0.950 . S
C1631 C1628 1.387 . S
C1632 C1633 1.387 . S
C1632 H1636 0.950 1_655 S
C1632 C1641 1.390 . S
C1633 C1632 1.387 . S
C1633 C1635 1.387 . S
H1634 C1641 0.950 . S
C1635 C1633 1.387 . S
C1635 C1637 1.390 . S
C1635 H1639 0.950 . S
H1636 C1632 0.950 1_455 S
C1637 C1635 1.390 . S
C1637 C1638 1.387 . S
C1637 H1640 0.950 . S
C1638 C1637 1.387 . S
C1638 C1641 1.387 . S
H1639 C1635 0.950 . S
H1640 C1637 0.950 . S
C1641 C1632 1.390 . S
C1641 H1634 0.950 . S
C1641 C1638 1.387 . S
C1642 C1643 1.387 . S
C1642 H1646 0.950 . S
C1642 C1651 1.390 . S
C1643 C1642 1.387 . S
C1643 C1645 1.387 . S
H1644 C1651 0.950 . S
C1645 C1643 1.387 . S
C1645 C1647 1.390 . S
C1645 H1649 0.950 . S
H1646 C1642 0.950 . S
C1647 C1645 1.390 . S
C1647 C1648 1.387 . S
C1647 H1650 0.950 . S
C1648 C1647 1.387 . S
C1648 C1651 1.387 . S
H1649 C1645 0.950 . S
H1650 C1647 0.950 . S
C1651 C1642 1.390 . S
C1651 H1644 0.950 . S
C1651 C1648 1.387 . S
C1652 C1653 1.387 . S
C1652 H1656 0.950 . S
C1652 C1661 1.390 . S
C1653 C1652 1.387 . S
C1653 C1655 1.387 . S
H1654 C1661 0.950 . S
C1655 C1653 1.387 . S
C1655 C1657 1.390 . S
C1655 H1659 0.950 . S
H1656 C1652 0.950 . S
C1657 C1655 1.390 . S
C1657 C1658 1.387 . S
C1657 H1660 0.950 . S
C1658 C1657 1.387 . S
C1658 C1661 1.387 . S
H1659 C1655 0.950 . S
H1660 C1657 0.950 . S
C1661 C1652 1.390 . S
C1661 H1654 0.950 . S
C1661 C1658 1.387 . S
C1662 C1663 1.387 . S
C1662 H1666 0.950 . S
C1662 C1671 1.390 . S
C1663 C1662 1.387 . S
C1663 C1665 1.387 . S
H1664 C1671 0.950 . S
C1665 C1663 1.387 . S
C1665 C1667 1.390 . S
C1665 H1669 0.950 . S
H1666 C1662 0.950 . S
C1667 C1665 1.390 . S
C1667 C1668 1.387 . S
C1667 H1670 0.950 . S
C1668 C1667 1.387 . S
C1668 C1671 1.387 . S
H1669 C1665 0.950 . S
H1670 C1667 0.950 . S
C1671 C1662 1.390 . S
C1671 H1664 0.950 . S
C1671 C1668 1.387 . S
C1672 C1673 1.387 . S
C1672 H1676 0.950 . S
C1672 C1681 1.390 . S
C1673 C1672 1.387 . S
C1673 C1675 1.387 . S
H1674 C1681 0.950 . S
C1675 C1673 1.387 . S
C1675 C1677 1.390 . S
C1675 H1679 0.950 . S
H1676 C1672 0.950 . S
C1677 C1675 1.390 . S
C1677 C1678 1.387 . S
C1677 H1680 0.950 . S
C1678 C1677 1.387 . S
C1678 C1681 1.387 . S
H1679 C1675 0.950 . S
H1680 C1677 0.950 . S
C1681 C1672 1.390 . S
C1681 H1674 0.950 . S
C1681 C1678 1.387 . S
C1682 C1683 1.387 . S
C1682 H1686 0.950 . S
C1682 C1691 1.390 . S
C1683 C1682 1.387 . S
C1683 C1685 1.387 . S
H1684 C1691 0.950 . S
C1685 C1683 1.387 . S
C1685 C1687 1.390 . S
C1685 H1689 0.950 . S
H1686 C1682 0.950 . S
C1687 C1685 1.390 . S
C1687 C1688 1.387 . S
C1687 H1690 0.950 . S
C1688 C1687 1.387 . S
C1688 C1691 1.387 . S
H1689 C1685 0.950 . S
H1690 C1687 0.950 . S
C1691 C1682 1.390 . S
C1691 H1684 0.950 . S
C1691 C1688 1.387 . S
C1692 C1693 1.387 . S
C1692 H1696 0.950 . S
C1692 C1701 1.390 . S
C1693 C1692 1.387 . S
C1693 C1695 1.387 . S
H1694 C1701 0.950 . S
C1695 C1693 1.387 . S
C1695 C1697 1.390 . S
C1695 H1699 0.950 . S
H1696 C1692 0.950 . S
C1697 C1695 1.390 . S
C1697 C1698 1.387 . S
C1697 H1700 0.950 . S
C1698 C1697 1.387 . S
C1698 C1701 1.387 . S
H1699 C1695 0.950 . S
H1700 C1697 0.950 . S
C1701 C1692 1.390 . S
C1701 H1694 0.950 . S
C1701 C1698 1.387 . S
C1702 C1703 1.387 . S
C1702 H1706 0.950 . S
C1702 C1711 1.390 . S
C1703 C1702 1.387 . S
C1703 C1705 1.387 . S
H1704 C1711 0.950 1_655 S
C1705 C1703 1.387 . S
C1705 C1707 1.390 . S
C1705 H1709 0.950 . S
H1706 C1702 0.950 . S
C1707 C1705 1.390 . S
C1707 C1708 1.387 . S
C1707 H1710 0.950 . S
C1708 C1707 1.387 . S
C1708 C1711 1.387 . S
H1709 C1705 0.950 . S
H1710 C1707 0.950 . S
C1711 C1702 1.390 . S
C1711 H1704 0.950 1_455 S
C1711 C1708 1.387 . S
C1712 C1713 1.387 . S
C1712 H1716 0.950 . S
C1712 C1721 1.390 . S
C1713 C1712 1.387 . S
C1713 C1715 1.387 . S
H1714 C1721 0.950 . S
C1715 C1713 1.387 . S
C1715 C1717 1.390 . S
C1715 H1719 0.950 . S
H1716 C1712 0.950 . S
C1717 C1715 1.390 . S
C1717 C1718 1.387 . S
C1717 H1720 0.950 . S
C1718 C1717 1.387 . S
C1718 C1721 1.387 . S
H1719 C1715 0.950 . S
H1720 C1717 0.950 . S
C1721 C1712 1.390 . S
C1721 H1714 0.950 . S
C1721 C1718 1.387 . S
C1722 C1723 1.387 . S
C1722 H1726 0.950 . S
C1722 C1731 1.390 . S
C1723 C1722 1.387 . S
C1723 C1725 1.387 . S
H1724 C1731 0.950 . S
C1725 C1723 1.387 . S
C1725 C1727 1.390 . S
C1725 H1729 0.950 . S
H1726 C1722 0.950 . S
C1727 C1725 1.390 . S
C1727 C1728 1.387 . S
C1727 H1730 0.950 . S
C1728 C1727 1.387 . S
C1728 C1731 1.387 . S
H1729 C1725 0.950 . S
H1730 C1727 0.950 . S
C1731 C1722 1.390 . S
C1731 H1724 0.950 . S
C1731 C1728 1.387 . S
C1732 C1733 1.387 . S
C1732 H1736 0.950 . S
C1732 C1741 1.390 . S
C1733 C1732 1.387 . S
C1733 C1735 1.387 . S
H1734 C1741 0.950 . S
C1735 C1733 1.387 . S
C1735 C1737 1.390 . S
C1735 H1739 0.950 . S
H1736 C1732 0.950 . S
C1737 C1735 1.390 . S
C1737 C1738 1.387 . S
C1737 H1740 0.950 . S
C1738 C1737 1.387 . S
C1738 C1741 1.387 . S
H1739 C1735 0.950 . S
H1740 C1737 0.950 . S
C1741 C1732 1.390 . S
C1741 H1734 0.950 . S
C1741 C1738 1.387 . S
C1742 C1743 1.387 . S
C1742 H1746 0.950 . S
C1742 C1751 1.390 . S
C1743 C1742 1.387 . S
C1743 C1745 1.387 . S
H1744 C1751 0.950 . S
C1745 C1743 1.387 . S
C1745 C1747 1.390 . S
C1745 H1749 0.950 . S
H1746 C1742 0.950 . S
C1747 C1745 1.390 . S
C1747 C1748 1.387 . S
C1747 H1750 0.950 . S
C1748 C1747 1.387 . S
C1748 C1751 1.387 . S
H1749 C1745 0.950 . S
H1750 C1747 0.950 . S
C1751 C1742 1.390 . S
C1751 H1744 0.950 . S
C1751 C1748 1.387 . S
C1752 C1753 1.387 . S
C1752 H1756 0.950 . S
C1752 C1761 1.390 . S
C1753 C1752 1.387 . S
C1753 C1755 1.387 . S
H1754 C1761 0.950 . S
C1755 C1753 1.387 . S
C1755 C1757 1.390 . S
C1755 H1759 0.950 . S
H1756 C1752 0.950 . S
C1757 C1755 1.390 . S
C1757 C1758 1.387 . S
C1757 H1760 0.950 . S
C1758 C1757 1.387 . S
C1758 C1761 1.387 . S
H1759 C1755 0.950 . S
H1760 C1757 0.950 . S
C1761 C1752 1.390 . S
C1761 H1754 0.950 . S
C1761 C1758 1.387 . S
C1762 C1763 1.387 . S
C1762 H1766 0.950 . S
C1762 C1771 1.390 . S
C1763 C1762 1.387 . S
C1763 C1765 1.387 . S
H1764 C1771 0.950 . S
C1765 C1763 1.387 . S
C1765 C1767 1.390 . S
C1765 H1769 0.950 . S
H1766 C1762 0.950 . S
C1767 C1765 1.390 . S
C1767 C1768 1.387 . S
C1767 H1770 0.950 . S
C1768 C1767 1.387 . S
C1768 C1771 1.387 . S
H1769 C1765 0.950 . S
H1770 C1767 0.950 . S
C1771 C1762 1.390 . S
C1771 H1764 0.950 . S
C1771 C1768 1.387 . S
C1772 C1773 1.387 . S
C1772 H1776 0.950 . S
C1772 C1781 1.390 . S
C1773 C1772 1.387 . S
C1773 C1775 1.387 . S
H1774 C1781 0.950 . S
C1775 C1773 1.387 . S
C1775 C1777 1.390 . S
C1775 H1779 0.950 . S
H1776 C1772 0.950 . S
C1777 C1775 1.390 . S
C1777 C1778 1.387 . S
C1777 H1780 0.950 . S
C1778 C1777 1.387 . S
C1778 C1781 1.387 . S
H1779 C1775 0.950 . S
H1780 C1777 0.950 . S
C1781 C1772 1.390 . S
C1781 H1774 0.950 . S
C1781 C1778 1.387 . S
C1782 C1783 1.387 . S
C1782 H1786 0.950 . S
C1782 C1791 1.390 . S
C1783 C1782 1.387 . S
C1783 C1785 1.387 . S
H1784 C1791 0.950 . S
C1785 C1783 1.387 . S
C1785 C1787 1.390 . S
C1785 H1789 0.950 . S
H1786 C1782 0.950 . S
C1787 C1785 1.390 . S
C1787 C1788 1.387 . S
C1787 H1790 0.950 . S
C1788 C1787 1.387 . S
C1788 C1791 1.387 . S
H1789 C1785 0.950 . S
H1790 C1787 0.950 . S
C1791 C1782 1.390 . S
C1791 H1784 0.950 . S
C1791 C1788 1.387 . S
C1792 C1793 1.387 . S
C1792 H1796 0.950 . S
C1792 C1801 1.390 . S
C1793 C1792 1.387 . S
C1793 C1795 1.387 . S
H1794 C1801 0.950 . S
C1795 C1793 1.387 . S
C1795 C1797 1.390 . S
C1795 H1799 0.950 . S
H1796 C1792 0.950 . S
C1797 C1795 1.390 . S
C1797 C1798 1.387 . S
C1797 H1800 0.950 . S
C1798 C1797 1.387 . S
C1798 C1801 1.387 . S
H1799 C1795 0.950 . S
H1800 C1797 0.950 . S
C1801 C1792 1.390 . S
C1801 H1794 0.950 . S
C1801 C1798 1.387 . S
C1802 C1803 1.387 . S
C1802 H1806 0.950 . S
C1802 C1811 1.390 . S
C1803 C1802 1.387 . S
C1803 C1805 1.387 . S
H1804 C1811 0.950 . S
C1805 C1803 1.387 . S
C1805 C1807 1.390 . S
C1805 H1809 0.950 . S
H1806 C1802 0.950 . S
C1807 C1805 1.390 . S
C1807 C1808 1.387 . S
C1807 H1810 0.950 . S
C1808 C1807 1.387 . S
C1808 C1811 1.387 . S
H1809 C1805 0.950 . S
H1810 C1807 0.950 . S
C1811 C1802 1.390 . S
C1811 H1804 0.950 . S
C1811 C1808 1.387 . S
C1812 C1813 1.387 . S
C1812 H1816 0.950 . S
C1812 C1821 1.390 . S
C1813 C1812 1.387 . S
C1813 C1815 1.387 . S
H1814 C1821 0.950 . S
C1815 C1813 1.387 . S
C1815 C1817 1.390 . S
C1815 H1819 0.950 . S
H1816 C1812 0.950 . S
C1817 C1815 1.390 . S
C1817 C1818 1.387 . S
C1817 H1820 0.950 . S
C1818 C1817 1.387 . S
C1818 C1821 1.387 . S
H1819 C1815 0.950 . S
H1820 C1817 0.950 . S
C1821 C1812 1.390 . S
C1821 H1814 0.950 . S
C1821 C1818 1.387 . S
C1822 C1823 1.387 . S
C1822 H1826 0.950 . S
C1822 C1831 1.390 . S
C1823 C1822 1.387 . S
C1823 C1825 1.387 . S
H1824 C1831 0.950 . S
C1825 C1823 1.387 . S
C1825 C1827 1.390 . S
C1825 H1829 0.950 . S
H1826 C1822 0.950 . S
C1827 C1825 1.390 . S
C1827 C1828 1.387 . S
C1827 H1830 0.950 . S
C1828 C1827 1.387 . S
C1828 C1831 1.387 . S
H1829 C1825 0.950 . S
H1830 C1827 0.950 . S
C1831 C1822 1.390 . S
C1831 H1824 0.950 . S
C1831 C1828 1.387 . S
C1832 C1833 1.387 . S
C1832 H1836 0.950 . S
C1832 C1841 1.390 . S
C1833 C1832 1.387 . S
C1833 C1835 1.387 . S
H1834 C1841 0.950 . S
C1835 C1833 1.387 . S
C1835 C1837 1.390 . S
C1835 H1839 0.950 . S
H1836 C1832 0.950 . S
C1837 C1835 1.390 . S
C1837 C1838 1.387 . S
C1837 H1840 0.950 . S
C1838 C1837 1.387 . S
C1838 C1841 1.387 . S
H1839 C1835 0.950 . S
H1840 C1837 0.950 . S
C1841 C1832 1.390 . S
C1841 H1834 0.950 . S
C1841 C1838 1.387 . S
C1842 C1843 1.387 . S
C1842 H1846 0.950 . S
C1842 C1851 1.390 . S
C1843 C1842 1.387 . S
C1843 C1845 1.387 . S
H1844 C1851 0.950 . S
C1845 C1843 1.387 . S
C1845 C1847 1.390 . S
C1845 H1849 0.950 . S
H1846 C1842 0.950 . S
C1847 C1845 1.390 . S
C1847 C1848 1.387 . S
C1847 H1850 0.950 . S
C1848 C1847 1.387 . S
C1848 C1851 1.387 . S
H1849 C1845 0.950 . S
H1850 C1847 0.950 . S
C1851 C1842 1.390 . S
C1851 H1844 0.950 . S
C1851 C1848 1.387 . S
C1852 C1853 1.387 . S
C1852 H1856 0.950 . S
C1852 C1861 1.390 . S
C1853 C1852 1.387 . S
C1853 C1855 1.387 . S
H1854 C1861 0.950 . S
C1855 C1853 1.387 . S
C1855 C1857 1.390 . S
C1855 H1859 0.950 . S
H1856 C1852 0.950 . S
C1857 C1855 1.390 . S
C1857 C1858 1.387 . S
C1857 H1860 0.950 . S
C1858 C1857 1.387 . S
C1858 C1861 1.387 . S
H1859 C1855 0.950 . S
H1860 C1857 0.950 . S
C1861 C1852 1.390 . S
C1861 H1854 0.950 . S
C1861 C1858 1.387 . S
C1862 C1863 1.387 . S
C1862 H1866 0.950 . S
C1862 C1871 1.390 . S
C1863 C1862 1.387 . S
C1863 C1865 1.387 . S
H1864 C1871 0.950 . S
C1865 C1863 1.387 . S
C1865 C1867 1.390 . S
C1865 H1869 0.950 . S
H1866 C1862 0.950 . S
C1867 C1865 1.390 . S
C1867 C1868 1.387 . S
C1867 H1870 0.950 . S
C1868 C1867 1.387 . S
C1868 C1871 1.387 . S
H1869 C1865 0.950 . S
H1870 C1867 0.950 . S
C1871 C1862 1.390 . S
C1871 H1864 0.950 . S
C1871 C1868 1.387 . S
C1333 C439 1.382 . S
C1338 C632 1.368 . S
C1343 C465 1.531 . S
C1348 C716 1.454 . S
C1353 C401 1.513 . S
C1358 C810 1.444 . S
C1363 C369 1.470 . S
C1368 C726 1.416 . S
C1378 C800 1.406 . S
C1373 C305 1.484 . S
C1383 C343 1.352 . S
C1388 C642 1.368 . S
C1398 C643 1.397 . S
C1393 C375 1.479 . S
C1408 C727 1.434 . S
C1403 C311 1.504 . S
C1413 C337 1.436 . S
C1418 C819 1.444 . S
C1423 C433 1.410 . S
C1428 C735 1.413 . S
C1433 C471 1.458 . S
C1438 C811 1.377 . S
C1448 C651 1.401 . S
C1443 C407 1.466 . S
C1458 C884 1.369 . S
C1453 C55 1.383 1_455 S
C1463 C81 1.531 . S
C1468 C968 1.458 . S
C1473 C17 1.513 1_565 S
C1478 C1062 1.445 . S
C1483 C561 1.470 . S
C1488 C978 1.415 . S
C1493 C497 1.485 . S
C1498 C1052 1.403 . S
C1503 C535 1.355 . S
C1508 C894 1.371 . S
C1513 C567 1.479 . S
C1518 C895 1.398 . S
C1523 C503 1.504 . S
C1528 C979 1.432 . S
C1538 C1071 1.444 . S
C1533 C529 1.436 . S
C1543 C49 1.411 1_565 S
C1548 C987 1.415 . S
C1558 C1063 1.378 . S
C1553 C87 1.458 1_455 S
C1563 C23 1.467 . S
C1568 C903 1.398 . S
C1578 C1136 1.368 . S
C1573 C247 1.382 . S
C1583 C273 1.531 . S
C1588 C1220 1.454 . S
C1598 C1314 1.447 . S
C1593 C209 1.512 . S
C1608 C1230 1.415 . S
C1603 C177 1.470 1_545 S
C1618 C1304 1.402 . S
C1613 C113 1.485 1_655 S
C1623 C151 1.355 . S
C1628 C1146 1.371 . S
C1633 C183 1.480 1_655 S
C1638 C1147 1.398 . S
C1643 C119 1.505 . S
C1648 C1231 1.431 . S
C1658 C1323 1.446 . S
C1653 C145 1.438 1_545 S
C1663 C241 1.411 . S
C1668 C1239 1.415 . S
C1673 C279 1.458 . S
C1678 C1315 1.377 . S
C1683 C215 1.466 . S
C1688 C1155 1.399 . S
C1693 C509 1.464 . S
C1698 C639 1.394 . S
C1708 C723 1.359 . S
C1703 C541 1.457 . S
C1713 C573 1.468 . S
C1718 C816 1.369 . S
C1723 C221 1.496 . S
C1728 C732 1.369 . S
C1733 C253 1.451 . S
C1738 C807 1.357 . S
C1748 C648 1.400 . S
C1743 C285 1.460 . S
C1753 C125 1.464 . S
C1758 C891 1.394 . S
C1763 C157 1.455 . S
C1768 C975 1.356 . S
C1773 C189 1.469 . S
C1778 C1068 1.368 . S
C1783 C413 1.496 . S
C1788 C984 1.370 . S
C1798 C1059 1.353 . S
C1793 C445 1.449 . S
C1803 C477 1.462 . S
C1808 C900 1.397 . S
C1813 C317 1.461 . S
C1818 C1143 1.397 . S
C1823 C349 1.458 . S
C1828 C1227 1.360 . S
C1838 C1320 1.371 . S
C1833 C381 1.467 . S
C1843 C29 1.497 . S
C1848 C1236 1.369 . S
C1853 C61 1.451 . S
C1858 C1311 1.357 . S
C1863 C93 1.460 . S
C1868 C1152 1.399 . S
