# Generated by pormake.
# Topology ssc, (4,4)-cn, num edge types: 1
# Building blocks:
#     Node 0, Type 0, BuildingBlock: ESEHIV_clean_sbu_0, # of connection points: 4
#     Node 1, Type 0, BuildingBlock: ESEHIV_clean_sbu_0, # of connection points: 4
#     Node 2, Type 0, BuildingBlock: ESEHIV_clean_sbu_0, # of connection points: 4
#     Node 3, Type 0, BuildingBlock: ESEHIV_clean_sbu_0, # of connection points: 4
#     Node 4, Type 0, BuildingBlock: ESEHIV_clean_sbu_0, # of connection points: 4
#     Node 5, Type 0, BuildingBlock: ESEHIV_clean_sbu_0, # of connection points: 4
#     Node 6, Type 0, BuildingBlock: ESEHIV_clean_sbu_0, # of connection points: 4
#     Node 7, Type 0, BuildingBlock: ESEHIV_clean_sbu_0, # of connection points: 4
#     Node 8, Type 0, BuildingBlock: ESEHIV_clean_sbu_0, # of connection points: 4
#     Node 9, Type 0, BuildingBlock: ESEHIV_clean_sbu_0, # of connection points: 4
#     Node 10, Type 0, BuildingBlock: ESEHIV_clean_sbu_0, # of connection points: 4
#     Node 11, Type 0, BuildingBlock: ESEHIV_clean_sbu_0, # of connection points: 4
#     Node 12, Type 1, BuildingBlock: GIZVER_clean_linker_0, # of connection points: 4
#     Node 13, Type 1, BuildingBlock: GIZVER_clean_linker_0, # of connection points: 4
#     Node 14, Type 1, BuildingBlock: GIZVER_clean_linker_0, # of connection points: 4
#     Node 15, Type 1, BuildingBlock: GIZVER_clean_linker_0, # of connection points: 4
#     Node 16, Type 1, BuildingBlock: GIZVER_clean_linker_0, # of connection points: 4
#     Node 17, Type 1, BuildingBlock: GIZVER_clean_linker_0, # of connection points: 4
#     Node 18, Type 1, BuildingBlock: GIZVER_clean_linker_0, # of connection points: 4
#     Node 19, Type 1, BuildingBlock: GIZVER_clean_linker_0, # of connection points: 4
#     Node 20, Type 1, BuildingBlock: GIZVER_clean_linker_0, # of connection points: 4
#     Node 21, Type 1, BuildingBlock: GIZVER_clean_linker_0, # of connection points: 4
#     Node 22, Type 1, BuildingBlock: GIZVER_clean_linker_0, # of connection points: 4
#     Node 23, Type 1, BuildingBlock: GIZVER_clean_linker_0, # of connection points: 4
#     Edge 24, Type (0, 1), BuildingBlock: XIVTED_clean_linker_0, # of connection points: 2
#     Edge 25, Type (0, 1), BuildingBlock: XIVTED_clean_linker_0, # of connection points: 2
#     Edge 26, Type (0, 1), BuildingBlock: XIVTED_clean_linker_0, # of connection points: 2
#     Edge 27, Type (0, 1), BuildingBlock: XIVTED_clean_linker_0, # of connection points: 2
#     Edge 28, Type (0, 1), BuildingBlock: XIVTED_clean_linker_0, # of connection points: 2
#     Edge 29, Type (0, 1), BuildingBlock: XIVTED_clean_linker_0, # of connection points: 2
#     Edge 30, Type (0, 1), BuildingBlock: XIVTED_clean_linker_0, # of connection points: 2
#     Edge 31, Type (0, 1), BuildingBlock: XIVTED_clean_linker_0, # of connection points: 2
#     Edge 32, Type (0, 1), BuildingBlock: XIVTED_clean_linker_0, # of connection points: 2
#     Edge 33, Type (0, 1), BuildingBlock: XIVTED_clean_linker_0, # of connection points: 2
#     Edge 34, Type (0, 1), BuildingBlock: XIVTED_clean_linker_0, # of connection points: 2
#     Edge 35, Type (0, 1), BuildingBlock: XIVTED_clean_linker_0, # of connection points: 2
#     Edge 36, Type (0, 1), BuildingBlock: XIVTED_clean_linker_0, # of connection points: 2
#     Edge 37, Type (0, 1), BuildingBlock: XIVTED_clean_linker_0, # of connection points: 2
#     Edge 38, Type (0, 1), BuildingBlock: XIVTED_clean_linker_0, # of connection points: 2
#     Edge 39, Type (0, 1), BuildingBlock: XIVTED_clean_linker_0, # of connection points: 2
#     Edge 40, Type (0, 1), BuildingBlock: XIVTED_clean_linker_0, # of connection points: 2
#     Edge 41, Type (0, 1), BuildingBlock: XIVTED_clean_linker_0, # of connection points: 2
#     Edge 42, Type (0, 1), BuildingBlock: XIVTED_clean_linker_0, # of connection points: 2
#     Edge 43, Type (0, 1), BuildingBlock: XIVTED_clean_linker_0, # of connection points: 2
#     Edge 44, Type (0, 1), BuildingBlock: XIVTED_clean_linker_0, # of connection points: 2
#     Edge 45, Type (0, 1), BuildingBlock: XIVTED_clean_linker_0, # of connection points: 2
#     Edge 46, Type (0, 1), BuildingBlock: XIVTED_clean_linker_0, # of connection points: 2
#     Edge 47, Type (0, 1), BuildingBlock: XIVTED_clean_linker_0, # of connection points: 2
#     Edge 48, Type (0, 1), BuildingBlock: XIVTED_clean_linker_0, # of connection points: 2
#     Edge 49, Type (0, 1), BuildingBlock: XIVTED_clean_linker_0, # of connection points: 2
#     Edge 50, Type (0, 1), BuildingBlock: XIVTED_clean_linker_0, # of connection points: 2
#     Edge 51, Type (0, 1), BuildingBlock: XIVTED_clean_linker_0, # of connection points: 2
#     Edge 52, Type (0, 1), BuildingBlock: XIVTED_clean_linker_0, # of connection points: 2
#     Edge 53, Type (0, 1), BuildingBlock: XIVTED_clean_linker_0, # of connection points: 2
#     Edge 54, Type (0, 1), BuildingBlock: XIVTED_clean_linker_0, # of connection points: 2
#     Edge 55, Type (0, 1), BuildingBlock: XIVTED_clean_linker_0, # of connection points: 2
#     Edge 56, Type (0, 1), BuildingBlock: XIVTED_clean_linker_0, # of connection points: 2
#     Edge 57, Type (0, 1), BuildingBlock: XIVTED_clean_linker_0, # of connection points: 2
#     Edge 58, Type (0, 1), BuildingBlock: XIVTED_clean_linker_0, # of connection points: 2
#     Edge 59, Type (0, 1), BuildingBlock: XIVTED_clean_linker_0, # of connection points: 2
#     Edge 60, Type (0, 1), BuildingBlock: XIVTED_clean_linker_0, # of connection points: 2
#     Edge 61, Type (0, 1), BuildingBlock: XIVTED_clean_linker_0, # of connection points: 2
#     Edge 62, Type (0, 1), BuildingBlock: XIVTED_clean_linker_0, # of connection points: 2
#     Edge 63, Type (0, 1), BuildingBlock: XIVTED_clean_linker_0, # of connection points: 2
#     Edge 64, Type (0, 1), BuildingBlock: XIVTED_clean_linker_0, # of connection points: 2
#     Edge 65, Type (0, 1), BuildingBlock: XIVTED_clean_linker_0, # of connection points: 2
#     Edge 66, Type (0, 1), BuildingBlock: XIVTED_clean_linker_0, # of connection points: 2
#     Edge 67, Type (0, 1), BuildingBlock: XIVTED_clean_linker_0, # of connection points: 2
#     Edge 68, Type (0, 1), BuildingBlock: XIVTED_clean_linker_0, # of connection points: 2
#     Edge 69, Type (0, 1), BuildingBlock: XIVTED_clean_linker_0, # of connection points: 2
#     Edge 70, Type (0, 1), BuildingBlock: XIVTED_clean_linker_0, # of connection points: 2
#     Edge 71, Type (0, 1), BuildingBlock: XIVTED_clean_linker_0, # of connection points: 2
# Relax obj value: 0.047
# Max RMSD: 0.291
# Mean RMSD: 0.196
data_MOF--net-ssc--node1-ESEHIV_clean_sbu_0--node2-GIZVER_clean_linker_0--edge1-XIVTED_clean_linker_0
_symmetry_space_group_name_H-M    P1
_symmetry_Int_Tables_number       1
_symmetry_cell_setting            triclinic
loop_
_symmetry_equiv_pos_as_xyz
'x, y, z'
_cell_length_a     33.559583
_cell_length_b     33.608329
_cell_length_c     33.451733
_cell_angle_alpha  90.013295
_cell_angle_beta   93.697274
_cell_angle_gamma 97.291347
loop_
_atom_site_label
_atom_site_type_symbol
_atom_site_fract_x
_atom_site_fract_y
_atom_site_fract_z
_atom_type_partial_charge
Cu0 Cu 0.02067 0.25983 0.12984 0.0
N1 N 0.96765 0.24724 0.14383 0.0
N2 N 0.91325 0.23279 0.17875 0.0
C3 C 0.9532 0.24546 0.18053 0.0
C4 C 0.90221 0.22656 0.13955 0.0
C5 C 0.93579 0.23573 0.11809 0.0
O6 O 0.05819 0.25437 0.17594 0.0
C7 C 0.01728 0.1873 0.08643 0.0
O8 O 0.004 0.17148 0.11974 0.0
H9 H 0.97181 0.25185 0.208 0.0
H10 H 0.93716 0.23331 0.08598 0.0
N11 N 0.02737 0.31307 0.11299 0.0
N12 N 0.0362 0.36749 0.07458 0.0
C13 C 0.03015 0.32695 0.07535 0.0
C14 C 0.03151 0.3458 0.13677 0.0
C15 C 0.0371 0.37942 0.11321 0.0
C16 C 0.09561 0.26602 0.1739 0.0
O17 O 0.10864 0.27933 0.13955 0.0
H18 H 0.02899 0.3077 0.04924 0.0
H19 H 0.03101 0.34515 0.16906 0.0
O20 O 0.02846 0.22492 0.08538 0.0
H21 H 0.87211 0.21577 0.12737 0.0
H22 H 0.04166 0.41024 0.12371 0.0
Cu23 Cu 0.04427 0.7716 0.37532 0.0
N24 N 0.04599 0.82067 0.40199 0.0
N25 N 0.03946 0.86798 0.44732 0.0
C26 C 0.03212 0.82848 0.43767 0.0
C27 C 0.05881 0.88548 0.41645 0.0
C28 C 0.06282 0.85625 0.38866 0.0
O29 O 0.03794 0.72696 0.41232 0.0
C30 C 0.99516 0.73847 0.30808 0.0
O31 O 0.018 0.70947 0.31076 0.0
H32 H 0.01656 0.80573 0.45588 0.0
H33 H 0.0772 0.86055 0.36068 0.0
N34 N 0.09363 0.77203 0.35267 0.0
N35 N 0.14084 0.77051 0.30878 0.0
C36 C 0.1011 0.76967 0.31372 0.0
C37 C 0.12981 0.77512 0.37298 0.0
C38 C 0.15894 0.77405 0.346 0.0
C39 C 0.00649 0.71684 0.43112 0.0
O40 O 0.97556 0.73702 0.42558 0.0
H41 H 0.07784 0.76641 0.2896 0.0
H42 H 0.13456 0.7777 0.40522 0.0
O43 O 1.00103 0.76709 0.33355 0.0
H44 H 0.06972 0.91705 0.41416 0.0
H45 H 0.19089 0.7756 0.35315 0.0
Cu46 Cu 0.50569 0.76787 0.63933 0.0
N47 N 0.51722 0.81874 0.61718 0.0
N48 N 0.52047 0.87177 0.57651 0.0
C49 C 0.50842 0.83196 0.57996 0.0
C50 C 0.53737 0.88371 0.61299 0.0
C51 C 0.53516 0.85111 0.63788 0.0
O52 O 0.50433 0.72469 0.60039 0.0
C53 C 0.58331 0.76846 0.67717 0.0
O54 O 0.59464 0.77804 0.64118 0.0
H55 H 0.49323 0.81285 0.55615 0.0
H56 H 0.54594 0.8509 0.66905 0.0
N57 N 0.45474 0.76486 0.65932 0.0
N58 N 0.4034 0.75332 0.6989 0.0
C59 C 0.4435 0.75387 0.69608 0.0
C60 C 0.42077 0.77173 0.63833 0.0
C61 C 0.38901 0.76449 0.66259 0.0
C62 C 0.52647 0.72413 0.57094 0.0
O63 O 0.5532 0.75516 0.56457 0.0
H64 H 0.46405 0.7451 0.71978 0.0
H65 H 0.41919 0.7807 0.60727 0.0
O66 O 0.54587 0.76189 0.68274 0.0
H67 H 0.55127 0.91372 0.62104 0.0
H68 H 0.35775 0.76695 0.65409 0.0
Cu69 Cu 0.53477 0.25271 0.90236 0.0
N70 N 0.50574 0.24678 0.94827 0.0
N71 N 0.48299 0.26759 0.0051 0.0
C72 C 0.49605 0.2782 0.96881 0.0
C73 C 0.48327 0.22744 0.00683 0.0
C74 C 0.49735 0.21469 0.97173 0.0
O75 O 0.5741 0.30054 0.91043 0.0
C76 C 0.50052 0.24441 0.82167 0.0
O77 O 0.52904 0.22182 0.81693 0.0
H78 H 0.50249 0.30883 0.95883 0.0
H79 H 0.50366 0.18473 0.9652 0.0
N80 N 0.56355 0.20995 0.89275 0.0
N81 N 0.61124 0.17913 0.86633 0.0
C82 C 0.59883 0.21458 0.87529 0.0
C83 C 0.55315 0.17012 0.89551 0.0
C84 C 0.58261 0.15105 0.87942 0.0
C85 C 0.59495 0.31134 0.94285 0.0
O86 O 0.6176 0.34624 0.94416 0.0
H87 H 0.61397 0.24369 0.86785 0.0
H88 H 0.52512 0.15591 0.90613 0.0
O89 O 0.49786 0.26037 0.85586 0.0
H90 H 0.476 0.20883 0.03239 0.0
H91 H 0.5815 0.11903 0.87536 0.0
Cu92 Cu 0.13125 0.02792 0.28977 0.0
N93 N 0.1124 0.03496 0.34002 0.0
N94 N 0.07286 0.03112 0.39148 0.0
C95 C 0.07467 0.02592 0.35155 0.0
C96 C 0.11105 0.04381 0.40536 0.0
C97 C 0.13532 0.04595 0.3736 0.0
O98 O 0.08922 0.02986 0.24744 0.0
C99 C 0.17114 0.10624 0.284 0.0
O100 O 0.13558 0.11603 0.29116 0.0
H101 H 0.0492 0.01577 0.33098 0.0
H102 H 0.16762 0.0541 0.37492 0.0
N103 N 0.14814 0.97729 0.29017 0.0
N104 N 0.18688 0.92793 0.29499 0.0
C105 C 0.18601 0.96793 0.29169 0.0
C106 C 0.12424 0.94224 0.29286 0.0
C107 C 0.148 0.9117 0.29566 0.0
C108 C 0.09807 0.02903 0.21103 0.0
O109 O 0.13574 0.02779 0.20311 0.0
H110 H 0.21228 0.99004 0.29024 0.0
H111 H 0.09182 0.93928 0.29351 0.0
O112 O 0.17576 0.0693 0.28168 0.0
H113 H 0.12097 0.05048 0.43632 0.0
H114 H 0.13745 0.8801 0.29861 0.0
Cu115 Cu 0.23922 0.90585 0.53529 0.0
N116 N 0.24247 0.8838 0.48457 0.0
N117 N 0.24765 0.83961 0.4358 0.0
C118 C 0.2451 0.84522 0.47553 0.0
C119 C 0.24646 0.87613 0.41929 0.0
C120 C 0.24318 0.90329 0.44945 0.0
O121 O 0.24906 0.86616 0.57575 0.0
C122 C 0.31486 0.95466 0.53707 0.0
O123 O 0.3288 0.92117 0.52817 0.0
H124 H 0.24599 0.82195 0.49781 0.0
H125 H 0.24159 0.93508 0.44611 0.0
N126 N 0.18762 0.91998 0.53929 0.0
N127 N 0.13756 0.95708 0.54544 0.0
C128 C 0.1767 0.95719 0.53804 0.0
C129 C 0.15431 0.89545 0.54741 0.0
C130 C 0.12344 0.91827 0.55145 0.0
C131 C 0.24099 0.87052 0.61203 0.0
O132 O 0.22774 0.90378 0.62292 0.0
H133 H 0.19752 0.98394 0.53366 0.0
H134 H 0.153 0.86338 0.55142 0.0
O135 O 0.27756 0.95394 0.54224 0.0
H136 H 0.24762 0.88272 0.38769 0.0
H137 H 0.09326 0.90727 0.55913 0.0
Cu138 Cu 0.39993 0.05222 0.74192 0.0
N139 N 0.42959 0.05175 0.79082 0.0
N140 N 0.48147 0.04938 0.83577 0.0
C141 C 0.46796 0.0443 0.79691 0.0
C142 C 0.4502 0.06045 0.85469 0.0
C143 C 0.41832 0.06201 0.82686 0.0
O144 O 0.434 0.04098 0.69981 0.0
C145 C 0.35368 0.97518 0.74184 0.0
O146 O 0.38866 0.96143 0.74256 0.0
H147 H 0.48545 0.03525 0.77322 0.0
H148 H 0.38919 0.07072 0.8323 0.0
N149 N 0.3832 0.10272 0.73641 0.0
N150 N 0.34608 0.15273 0.74334 0.0
C151 C 0.35156 0.1148 0.75354 0.0
C152 C 0.39878 0.13402 0.71495 0.0
C153 C 0.37571 0.16475 0.71883 0.0
C154 C 0.42774 0.04848 0.66282 0.0
O155 O 0.39559 0.06475 0.65048 0.0
H156 H 0.3328 0.09572 0.77272 0.0
H157 H 0.42446 0.13415 0.69698 0.0
O158 O 0.35253 0.01285 0.74142 0.0
H159 H 0.45046 0.06768 0.88624 0.0
H160 H 0.37939 0.19292 0.70313 0.0
Cu161 Cu 0.28411 0.15373 0.03291 0.0
N162 N 0.28489 0.17533 0.98154 0.0
N163 N 0.28608 0.21867 0.93075 0.0
C164 C 0.28397 0.21383 0.97077 0.0
C165 C 0.28845 0.18169 0.916 0.0
C166 C 0.28783 0.15512 0.94739 0.0
O167 O 0.27031 0.19264 0.07088 0.0
C168 C 0.20833 0.10638 0.02276 0.0
O169 O 0.19563 0.14087 0.01366 0.0
H170 H 0.28125 0.2376 0.99186 0.0
H171 H 0.2896 0.12326 0.94556 0.0
N172 N 0.33537 0.14043 0.04715 0.0
N173 N 0.38646 0.10446 0.05891 0.0
C174 C 0.34707 0.10359 0.0471 0.0
C175 C 0.36841 0.16558 0.05914 0.0
C176 C 0.39998 0.14346 0.06661 0.0
C177 C 0.26997 0.18512 0.10817 0.0
O178 O 0.27843 0.15 0.12096 0.0
H179 H 0.32678 0.07662 0.03943 0.0
H180 H 0.36937 0.19773 0.06235 0.0
O181 O 0.2455 0.10557 0.03245 0.0
H182 H 0.29087 0.17433 0.88483 0.0
H183 H 0.43045 0.15519 0.07687 0.0
Cu184 Cu 0.74705 0.41369 0.03578 0.0
N185 N 0.75316 0.39579 0.98422 0.0
N186 N 0.75301 0.35629 0.93049 0.0
C187 C 0.74977 0.35777 0.97055 0.0
C188 C 0.75849 0.39493 0.91872 0.0
C189 C 0.7584 0.41916 0.9519 0.0
O190 O 0.7571 0.37324 0.07522 0.0
C191 C 0.82185 0.46074 0.05155 0.0
O192 O 0.83553 0.42588 0.04989 0.0
H193 H 0.74529 0.33186 0.9897 0.0
H194 H 0.76129 0.45158 0.95244 0.0
N195 N 0.69439 0.42529 0.03639 0.0
N196 N 0.64129 0.45906 0.0278 0.0
C197 C 0.68186 0.46122 0.02936 0.0
C198 C 0.6608 0.39929 0.0392 0.0
C199 C 0.62795 0.42008 0.03419 0.0
C200 C 0.76192 0.3822 0.11235 0.0
O201 O 0.75966 0.41923 0.12374 0.0
H202 H 0.70231 0.48834 0.02557 0.0
H203 H 0.66025 0.36736 0.04374 0.0
O204 O 0.78413 0.46205 0.04667 0.0
H205 H 0.76182 0.40506 0.88827 0.0
H206 H 0.59674 0.40733 0.03469 0.0
Cu207 Cu 0.89018 0.55697 0.25873 0.0
N208 N 0.92329 0.56112 0.30602 0.0
N209 N 0.97614 0.5593 0.35004 0.0
C210 C 0.96139 0.55256 0.31169 0.0
C211 C 0.94611 0.57272 0.36908 0.0
C212 C 0.91366 0.57392 0.34183 0.0
O213 O 0.92169 0.55104 0.21303 0.0
C214 C 0.81876 0.50668 0.23514 0.0
O215 O 0.81792 0.53126 0.20464 0.0
H216 H 0.97762 0.54089 0.28833 0.0
H217 H 0.88496 0.58342 0.34766 0.0
N218 N 0.86761 0.60458 0.25189 0.0
N219 N 0.82484 0.65058 0.25014 0.0
C220 C 0.83191 0.61375 0.26296 0.0
C221 C 0.88369 0.63646 0.23156 0.0
C222 C 0.85739 0.66467 0.23024 0.0
C223 C 0.9374 0.51979 0.20472 0.0
O224 O 0.9325 0.48839 0.2281 0.0
H225 H 0.8113 0.59339 0.27922 0.0
H226 H 0.91193 0.63833 0.21737 0.0
O227 O 0.84789 0.51221 0.26168 0.0
H228 H 0.94751 0.58126 0.40039 0.0
H229 H 0.86092 0.69238 0.21381 0.0
Cu230 Cu 0.74291 0.67816 0.51929 0.0
N231 N 0.73945 0.70341 0.46971 0.0
N232 N 0.74239 0.74998 0.42176 0.0
C233 C 0.74424 0.74294 0.46167 0.0
C234 C 0.73647 0.71325 0.4043 0.0
C235 C 0.73481 0.68473 0.43389 0.0
O236 O 0.74047 0.71539 0.56335 0.0
C237 C 0.66496 0.63449 0.50685 0.0
O238 O 0.65536 0.66849 0.49211 0.0
H239 H 0.74886 0.7659 0.48474 0.0
H240 H 0.73107 0.65253 0.42967 0.0
N241 N 0.79315 0.6598 0.52385 0.0
N242 N 0.84171 0.61983 0.5264 0.0
C243 C 0.80156 0.62168 0.52487 0.0
C244 C 0.82898 0.68288 0.52459 0.0
C245 C 0.85898 0.65838 0.52627 0.0
C246 C 0.71525 0.74052 0.56522 0.0
O247 O 0.68745 0.74201 0.53596 0.0
H248 H 0.77864 0.59594 0.52472 0.0
H249 H 0.83291 0.7153 0.52344 0.0
O250 O 0.7009 0.63272 0.52079 0.0
H251 H 0.73402 0.70713 0.37243 0.0
H252 H 0.89097 0.66828 0.52665 0.0
Cu253 Cu 0.66206 0.49327 0.76231 0.0
N254 N 0.63333 0.50205 0.80667 0.0
N255 N 0.5839 0.49873 0.84879 0.0
C256 C 0.5946 0.48854 0.81221 0.0
C257 C 0.6175 0.51925 0.86686 0.0
C258 C 0.6479 0.52105 0.8409 0.0
O259 O 0.62819 0.4941 0.71265 0.0
C260 C 0.70784 0.57046 0.76566 0.0
O261 O 0.67262 0.58297 0.76862 0.0
H262 H 0.57497 0.47121 0.78988 0.0
H263 H 0.67855 0.53515 0.84659 0.0
N264 N 0.67803 0.4423 0.76814 0.0
N265 N 0.71559 0.39191 0.77149 0.0
C266 C 0.7153 0.43182 0.76662 0.0
C267 C 0.65397 0.40801 0.7745 0.0
C268 C 0.67702 0.37681 0.77636 0.0
C269 C 0.60168 0.51774 0.70617 0.0
O270 O 0.59678 0.54415 0.7338 0.0
H271 H 0.74142 0.45285 0.7607 0.0
H272 H 0.62181 0.40586 0.77708 0.0
O273 O 0.70963 0.53304 0.76181 0.0
H274 H 0.61995 0.53272 0.89644 0.0
H275 H 0.66621 0.34545 0.78057 0.0
H276 H 0.09574 0.3093 0.68762 0.0
H277 H 0.02673 0.24408 0.58996 0.0
H278 H 0.09149 0.1814 0.67917 0.0
H279 H 0.06921 0.34577 0.6347 0.0
H280 H 0.05785 0.31953 0.58795 0.0
H281 H 0.98996 0.29317 0.6718 0.0
H282 H 0.89983 0.36229 0.62281 0.0
H283 H 0.01505 0.37268 0.57258 0.0
C284 C 0.08343 0.28104 0.67337 0.0
C285 C 0.09576 0.24526 0.68836 0.0
C286 C 0.05768 0.28082 0.6384 0.0
C287 C 0.0444 0.24421 0.61826 0.0
C288 C 0.05579 0.2081 0.63362 0.0
C289 C 0.08046 0.20892 0.66911 0.0
C290 C 0.04963 0.32022 0.61962 0.0
C291 C 0.00649 0.32907 0.61986 0.0
C292 C 0.98021 0.31332 0.64897 0.0
C293 C 0.9413 0.32449 0.64912 0.0
C294 C 0.92914 0.3522 0.62109 0.0
C295 C 0.95568 0.37028 0.59394 0.0
C296 C 0.99418 0.35835 0.59321 0.0
H297 H 0.10695 0.76776 0.83716 0.0
H298 H 0.06059 0.80512 0.94649 0.0
H299 H 0.11799 0.89267 0.86828 0.0
H300 H 0.07672 0.71777 0.87866 0.0
H301 H 0.08879 0.73254 0.92961 0.0
H302 H 0.00311 0.73859 0.85018 0.0
H303 H 0.91437 0.68658 0.92817 0.0
H304 H 0.03857 0.70658 0.97093 0.0
C305 C 0.10011 0.7914 0.85667 0.0
C306 C 0.11376 0.83147 0.84798 0.0
C307 C 0.0796 0.78164 0.8915 0.0
C308 C 0.07387 0.81251 0.91831 0.0
C309 C 0.0869 0.85275 0.90947 0.0
C310 C 0.1058 0.86185 0.87386 0.0
C311 C 0.06929 0.73811 0.90255 0.0
C312 C 0.02547 0.72715 0.91072 0.0
C313 C 0.99514 0.72837 0.87969 0.0
C314 C 0.95481 0.71451 0.88629 0.0
C315 C 0.94509 0.69958 0.92399 0.0
C316 C 0.97507 0.6959 0.95439 0.0
C317 C 0.01519 0.71029 0.94783 0.0
H318 H 0.47729 0.70189 0.08918 0.0
H319 H 0.5308 0.75756 0.19935 0.0
H320 H 0.6028 0.69977 0.1215 0.0
H321 H 0.43675 0.73726 0.12769 0.0
H322 H 0.44846 0.71921 0.17652 0.0
H323 H 0.48534 0.81482 0.12116 0.0
H324 H 0.43622 0.88931 0.20453 0.0
H325 H 0.42163 0.76169 0.21965 0.0
C326 C 0.50371 0.71158 0.10882 0.0
C327 C 0.5407 0.69921 0.10055 0.0
C328 C 0.50006 0.73404 0.14367 0.0
C329 C 0.53385 0.74306 0.17097 0.0
C330 C 0.57116 0.73158 0.16231 0.0
C331 C 0.57449 0.71074 0.12669 0.0
C332 C 0.45868 0.74212 0.15415 0.0
C333 C 0.45699 0.78373 0.17064 0.0
C334 C 0.47099 0.81805 0.14888 0.0
C335 C 0.46458 0.85637 0.16189 0.0
C336 C 0.44368 0.86003 0.19638 0.0
C337 C 0.42732 0.82611 0.21692 0.0
C338 C 0.4349 0.7881 0.20442 0.0
H339 H 0.57538 0.29356 0.33193 0.0
H340 H 0.52001 0.33326 0.43504 0.0
H341 H 0.58046 0.41923 0.35715 0.0
H342 H 0.54103 0.24442 0.37169 0.0
H343 H 0.55446 0.26084 0.42203 0.0
H344 H 0.46462 0.27732 0.35094 0.0
H345 H 0.38085 0.20939 0.42436 0.0
H346 H 0.50733 0.21972 0.4576 0.0
C347 C 0.56628 0.31758 0.34949 0.0
C348 C 0.57942 0.35751 0.33986 0.0
C349 C 0.5435 0.30849 0.38299 0.0
C350 C 0.53499 0.33999 0.40764 0.0
C351 C 0.54751 0.3801 0.39784 0.0
C352 C 0.56865 0.38845 0.36336 0.0
C353 C 0.53398 0.26521 0.39535 0.0
C354 C 0.49073 0.25332 0.40527 0.0
C355 C 0.45859 0.26108 0.37834 0.0
C356 C 0.41877 0.24615 0.38587 0.0
C357 C 0.41134 0.22303 0.4201 0.0
C358 C 0.44304 0.21263 0.44567 0.0
C359 C 0.48265 0.22837 0.43842 0.0
H360 H 0.57255 0.09487 0.18588 0.0
H361 H 0.67807 0.10606 0.26804 0.0
H362 H 0.64479 0.20868 0.20449 0.0
H363 H 0.58199 0.03983 0.22996 0.0
H364 H 0.6311 0.03673 0.21515 0.0
H365 H 0.57073 0.04941 0.30415 0.0
H366 H 0.64998 0.9901 0.38258 0.0
H367 H 0.68069 0.01602 0.26192 0.0
C368 C 0.59694 0.11347 0.20234 0.0
C369 C 0.605 0.15424 0.19266 0.0
C370 C 0.62176 0.09602 0.23133 0.0
C371 C 0.65629 0.11963 0.24899 0.0
C372 C 0.66384 0.1606 0.24003 0.0
C373 C 0.63714 0.1777 0.21331 0.0
C374 C 0.61423 0.05109 0.23751 0.0
C375 C 0.62601 0.03735 0.27923 0.0
C376 C 0.59932 0.03803 0.31004 0.0
C377 C 0.60844 0.02152 0.34757 0.0
C378 C 0.6445 0.00507 0.35438 0.0
C379 C 0.67032 1.00211 0.32356 0.0
C380 C 0.66137 0.01906 0.28619 0.0
H381 H 0.28915 0.32284 0.57983 0.0
H382 H 0.32673 0.433 0.51873 0.0
H383 H 0.41392 0.37009 0.58324 0.0
H384 H 0.23971 0.35209 0.54097 0.0
H385 H 0.25123 0.40309 0.55579 0.0
H386 H 0.2617 0.33712 0.46507 0.0
H387 H 0.20307 0.41492 0.38555 0.0
H388 H 0.22653 0.44707 0.50974 0.0
C389 C 0.31287 0.3445 0.56937 0.0
C390 C 0.35284 0.34215 0.58323 0.0
C391 C 0.30317 0.37606 0.54414 0.0
C392 C 0.33409 0.40658 0.53472 0.0
C393 C 0.3743 0.4039 0.54815 0.0
C394 C 0.38328 0.37088 0.57095 0.0
C395 C 0.25916 0.38038 0.53449 0.0
C396 C 0.24839 0.3923 0.49179 0.0
C397 C 0.24997 0.36537 0.45967 0.0
C398 C 0.23447 0.37414 0.42103 0.0
C399 C 0.2172 0.40965 0.41482 0.0
C400 C 0.21357 0.43586 0.44657 0.0
C401 C 0.22995 0.42737 0.48488 0.0
H402 H 0.94122 0.04969 0.67876 0.0
H403 H 0.82498 0.01797 0.72637 0.0
H404 H 0.8821 0.92895 0.66773 0.0
H405 H 0.91326 0.09985 0.71244 0.0
H406 H 0.86129 0.09348 0.69615 0.0
H407 H 0.92678 0.06538 0.78675 0.0
H408 H 0.85555 0.11898 0.86876 0.0
H409 H 0.82245 0.11879 0.74272 0.0
C410 C 0.91647 0.02723 0.6855 0.0
C411 C 0.91596 0.98776 0.67164 0.0
C412 C 0.8844 0.0382 0.70653 0.0
C413 C 0.85097 0.00934 0.71257 0.0
C414 C 0.85073 0.96958 0.69951 0.0
C415 C 0.88353 0.9591 0.67982 0.0
C416 C 0.88387 0.08178 0.71733 0.0
C417 C 0.87384 0.08834 0.76008 0.0
C418 C 0.90009 0.07903 0.79241 0.0
C419 C 0.89284 0.08918 0.83184 0.0
C420 C 0.85946 0.10883 0.83864 0.0
C421 C 0.83446 0.12036 0.80671 0.0
C422 C 0.84125 0.10923 0.76755 0.0
H423 H 0.27173 0.65216 0.05795 0.0
H424 H 0.19638 0.54264 0.02312 0.0
H425 H 0.14466 0.64096 0.0717 0.0
H426 H 0.30185 0.59372 0.04608 0.0
H427 H 0.27068 0.54638 0.0432 0.0
H428 H 0.26328 0.62807 0.9656 0.0
H429 H 0.32698 0.56883 0.88126 0.0
H430 H 0.31594 0.52155 0.99971 0.0
C431 C 0.24199 0.63557 0.05253 0.0
C432 C 0.20843 0.65185 0.06531 0.0
C433 C 0.23778 0.59653 0.03614 0.0
C434 C 0.19943 0.57374 0.03277 0.0
C435 C 0.1656 0.59009 0.04492 0.0
C436 C 0.17027 0.62955 0.05962 0.0
C437 C 0.27499 0.57683 0.02983 0.0
C438 C 0.28468 0.57287 0.98652 0.0
C439 C 0.27799 0.60252 0.9578 0.0
C440 C 0.29204 0.60006 0.91929 0.0
C441 C 0.31375 0.5687 0.91001 0.0
C442 C 0.32349 0.54089 0.93905 0.0
C443 C 0.30794 0.54255 0.97687 0.0
H444 H 0.7915 0.81458 0.062 0.0
H445 H 0.8269 0.93473 0.02127 0.0
H446 H 0.91457 0.86725 0.07851 0.0
H447 H 0.7414 0.84952 0.03187 0.0
H448 H 0.75254 0.90052 0.04741 0.0
H449 H 0.7638 0.83417 0.95783 0.0
H450 H 0.7126 0.91475 0.87587 0.0
H451 H 0.73284 0.94655 1.00047 0.0
C452 C 0.81492 0.83879 0.05616 0.0
C453 C 0.85455 0.83629 0.07108 0.0
C454 C 0.80488 0.87363 0.03653 0.0
C455 C 0.83493 0.9066 0.03312 0.0
C456 C 0.87482 0.90404 0.0475 0.0
C457 C 0.88445 0.86828 0.06497 0.0
C458 C 0.7611 0.87792 0.02635 0.0
C459 C 0.75237 0.89038 0.98355 0.0
C460 C 0.75404 0.86323 0.95178 0.0
C461 C 0.74067 0.8726 0.91265 0.0
C462 C 0.72563 0.90917 0.90554 0.0
C463 C 0.72179 0.93569 0.937 0.0
C464 C 0.73628 0.92658 0.97584 0.0
H465 H 0.43359 0.50315 0.21316 0.0
H466 H 0.31969 0.47069 0.26486 0.0
H467 H 0.38894 0.37947 0.22926 0.0
H468 H 0.39636 0.55497 0.22973 0.0
H469 H 0.34353 0.53853 0.22441 0.0
H470 H 0.42268 0.53324 0.31078 0.0
H471 H 0.36291 0.60551 0.38759 0.0
H472 H 0.31553 0.58219 0.26659 0.0
C473 C 0.41179 0.48059 0.22539 0.0
C474 C 0.41597 0.43985 0.2205 0.0
C475 C 0.378 0.49215 0.24328 0.0
C476 C 0.34752 0.46225 0.25478 0.0
C477 C 0.35189 0.42145 0.25045 0.0
C478 C 0.38702 0.4109 0.2352 0.0
C479 C 0.37144 0.53592 0.24352 0.0
C480 C 0.36744 0.55254 0.28495 0.0
C481 C 0.39731 0.54911 0.31601 0.0
C482 C 0.39512 0.56751 0.35337 0.0
C483 C 0.36332 0.58962 0.35939 0.0
C484 C 0.33491 0.59561 0.32825 0.0
C485 C 0.33694 0.57686 0.29105 0.0
H486 H 0.78617 0.15842 0.61298 0.0
H487 H 0.70289 0.10879 0.51694 0.0
H488 H 0.68448 0.07369 0.6383 0.0
H489 H 0.75083 0.18347 0.52147 0.0
H490 H 0.7985 0.17911 0.54704 0.0
H491 H 0.76291 0.18069 0.45306 0.0
H492 H 0.82811 0.09118 0.40659 0.0
H493 H 0.81442 0.09775 0.53311 0.0
C494 C 0.76055 0.13723 0.6025 0.0
C495 C 0.7375 0.11527 0.63052 0.0
C496 C 0.74897 0.1341 0.56126 0.0
C497 C 0.71354 0.1092 0.54825 0.0
C498 C 0.69075 0.08651 0.57595 0.0
C499 C 0.70372 0.08886 0.61669 0.0
C500 C 0.77128 0.16154 0.53209 0.0
C501 C 0.78404 0.13935 0.49675 0.0
C502 C 0.77803 0.15426 0.45777 0.0
C503 C 0.7934 0.13655 0.42507 0.0
C504 C 0.81421 0.1033 0.43151 0.0
C505 C 0.82238 0.08932 0.47034 0.0
C506 C 0.80705 0.10739 0.50291 0.0
H507 H 0.08066 0.51701 0.67148 0.0
H508 H 0.18405 0.57292 0.74328 0.0
H509 H 0.1071 0.64513 0.67622 0.0
H510 H 0.11794 0.47522 0.71197 0.0
H511 H 0.16784 0.49472 0.70108 0.0
H512 H 0.10387 0.51071 0.78871 0.0
H513 H 0.18436 0.45891 0.87256 0.0
H514 H 0.20837 0.46416 0.74825 0.0
C515 C 0.09827 0.54373 0.68442 0.0
C516 C 0.08916 0.58154 0.67178 0.0
C517 C 0.13144 0.54023 0.71178 0.0
C518 C 0.15657 0.57525 0.72503 0.0
C519 C 0.14722 0.61322 0.71291 0.0
C520 C 0.11285 0.61596 0.68746 0.0
C521 C 0.1432 0.49894 0.72076 0.0
C522 C 0.15681 0.49217 0.76404 0.0
C523 C 0.13201 0.49866 0.7953 0.0
C524 C 0.1426 0.48759 0.83474 0.0
C525 C 0.17781 0.46981 0.84262 0.0
C526 C 0.20122 0.46042 0.81165 0.0
C527 C 0.19096 0.4723 0.77248 0.0
H528 H 0.08381 0.43854 0.07279 0.0
H529 H 0.0669 0.44735 0.83423 0.0
H530 H 0.0059 0.35355 0.99779 0.0
H531 H 0.15582 0.52135 0.90941 0.0
H532 H 0.03228 0.42438 0.89392 0.0
H533 H 0.09947 0.47908 0.01381 0.0
C534 C 0.06933 0.42891 0.04401 0.0
C535 C 0.04353 0.39268 0.04023 0.0
C536 C 0.05874 0.44649 0.8973 0.0
C537 C 0.06178 0.43858 0.97233 0.0
C538 C 0.07811 0.46009 0.86316 0.0
C539 C 0.11427 0.48617 0.86701 0.0
C540 C 0.07577 0.45908 0.93543 0.0
C541 C 0.12799 0.50119 0.90527 0.0
C542 C 0.07846 0.45191 0.0103 0.0
C543 C 0.02639 0.38101 1.00196 0.0
N544 N 0.10912 0.48692 0.93806 0.0
N545 N 0.03603 0.40374 0.96945 0.0
H546 H 0.99639 0.70395 0.23406 0.0
H547 H 0.81766 0.81769 0.13977 0.0
H548 H 0.92981 0.77947 0.30153 0.0
H549 H 0.91458 0.78794 0.07147 0.0
H550 H 0.84604 0.78427 0.19788 0.0
H551 H 0.95478 0.71672 0.17349 0.0
C552 C 0.97259 0.72265 0.23628 0.0
C553 C 0.96681 0.74111 0.27275 0.0
C554 C 0.86048 0.78407 0.16987 0.0
C555 C 0.91917 0.7555 0.20386 0.0
C556 C 0.84402 0.80269 0.13656 0.0
C557 C 0.86392 0.80563 0.10087 0.0
C558 C 0.89684 0.76796 0.16731 0.0
C559 C 0.89846 0.78635 0.09855 0.0
C560 C 0.94909 0.73008 0.2017 0.0
C561 C 0.93557 0.76506 0.27391 0.0
N562 N 0.91413 0.76866 0.13151 0.0
N563 N 0.913 0.77166 0.23995 0.0
H564 H 0.48203 0.65104 0.58027 0.0
H565 H 0.47203 0.60292 0.34764 0.0
H566 H 0.55463 0.71934 0.49597 0.0
H567 H 0.39257 0.54246 0.43072 0.0
H568 H 0.51619 0.63201 0.40424 0.0
H569 H 0.46243 0.59919 0.52917 0.0
C570 C 0.49417 0.65499 0.5511 0.0
C571 C 0.51923 0.6901 0.54209 0.0
C572 C 0.48973 0.61143 0.41014 0.0
C573 C 0.49653 0.63089 0.4832 0.0
C574 C 0.46489 0.59432 0.37782 0.0
C575 C 0.42855 0.5706 0.38469 0.0
C576 C 0.47786 0.6048 0.44939 0.0
C577 C 0.42031 0.56081 0.42432 0.0
C578 C 0.48303 0.62527 0.52193 0.0
C579 C 0.5347 0.6931 0.50405 0.0
N580 N 0.44432 0.57861 0.45521 0.0
N581 N 0.52247 0.66427 0.47575 0.0
H582 H 0.65219 0.23375 0.8183 0.0
H583 H 0.73515 0.06508 0.69553 0.0
H584 H 0.64534 0.11044 0.85663 0.0
H585 H 0.74715 0.19021 0.66385 0.0
H586 H 0.71628 0.08291 0.76209 0.0
H587 H 0.69876 0.22025 0.76942 0.0
C588 C 0.66064 0.20384 0.81703 0.0
C589 C 0.64351 0.17287 0.84126 0.0
C590 C 0.72396 0.10656 0.74091 0.0
C591 C 0.69719 0.15709 0.78414 0.0
C592 C 0.73505 0.09642 0.70303 0.0
C593 C 0.74174 0.1261 0.67378 0.0
C594 C 0.71918 0.14657 0.74929 0.0
C595 C 0.74188 0.16627 0.68526 0.0
C596 C 0.68734 0.19611 0.78867 0.0
C597 C 0.65647 0.13491 0.83777 0.0
N598 N 0.7297 0.17522 0.72176 0.0
N599 N 0.68201 0.12792 0.8093 0.0
H600 H 0.05171 0.6546 0.43601 0.0
H601 H 0.02715 0.62732 0.66613 0.0
H602 H 0.96234 0.70813 0.49737 0.0
H603 H 0.08868 0.54859 0.5973 0.0
H604 H 0.99556 0.65059 0.6039 0.0
H605 H 0.05929 0.60956 0.49261 0.0
C606 C 0.03338 0.65658 0.46127 0.0
C607 C 0.0069 0.68563 0.46233 0.0
C608 C 0.01515 0.62747 0.60236 0.0
C609 C 0.01587 0.63462 0.52758 0.0
C610 C 0.03296 0.61403 0.63791 0.0
C611 C 0.0607 0.5862 0.63677 0.0
C612 C 0.02601 0.61374 0.56539 0.0
C613 C 0.06739 0.57003 0.59947 0.0
C614 C 0.03757 0.63073 0.49353 0.0
C615 C 0.98339 0.68642 0.49548 0.0
N616 N 0.05094 0.58472 0.5652 0.0
N617 N 0.98906 0.66191 0.52716 0.0
H618 H 0.57216 0.74497 0.75463 0.0
H619 H 0.76901 0.87741 0.83785 0.0
H620 H 0.66356 0.79659 0.67822 0.0
H621 H 0.69337 0.80071 0.91289 0.0
H622 H 0.73748 0.83992 0.77891 0.0
H623 H 0.6205 0.7573 0.81247 0.0
C624 C 0.60255 0.75844 0.74994 0.0
C625 C 0.61361 0.77043 0.7116 0.0
C626 C 0.72855 0.83041 0.80831 0.0
C627 C 0.6691 0.78499 0.77779 0.0
C628 C 0.74685 0.85159 0.84196 0.0
C629 C 0.73364 0.84213 0.88016 0.0
C630 C 0.69612 0.80024 0.81292 0.0
C631 C 0.70449 0.80879 0.88393 0.0
C632 C 0.63025 0.76534 0.78298 0.0
C633 C 0.65357 0.78731 0.70728 0.0
N634 N 0.68596 0.78966 0.85063 0.0
N635 N 0.67964 0.79476 0.74003 0.0
H636 H 0.49024 0.25384 0.08547 0.0
H637 H 0.42723 0.46545 0.14418 0.0
H638 H 0.46524 0.34419 0.99894 0.0
H639 H 0.4646 0.38046 0.23088 0.0
H640 H 0.45045 0.426 0.09103 0.0
H641 H 0.48615 0.3019 0.13917 0.0
C642 C 0.48348 0.28358 0.07763 0.0
C643 C 0.47796 0.29476 0.03738 0.0
C644 C 0.45445 0.4164 0.12177 0.0
C645 C 0.47389 0.35043 0.09907 0.0
C646 C 0.44183 0.43936 0.15225 0.0
C647 C 0.44353 0.42595 0.19198 0.0
C648 C 0.46852 0.37962 0.1311 0.0
C649 C 0.4623 0.39157 0.20054 0.0
C650 C 0.48174 0.31129 0.10841 0.0
C651 C 0.47012 0.3342 0.02937 0.0
N652 N 0.47321 0.3691 0.17028 0.0
N653 N 0.46813 0.36047 0.05987 0.0
H654 H 0.91615 0.27442 0.24837 0.0
H655 H 0.77198 0.1037 0.35062 0.0
H656 H 0.85372 0.17121 0.18452 0.0
H657 H 0.82181 0.2143 0.41025 0.0
H658 H 0.79339 0.13214 0.28691 0.0
H659 H 0.87593 0.25671 0.30592 0.0
C660 C 0.89384 0.24811 0.24653 0.0
C661 C 0.88832 0.22411 0.21186 0.0
C662 C 0.79899 0.15053 0.31376 0.0
C663 C 0.84243 0.20338 0.27743 0.0
C664 C 0.7865 0.13437 0.35003 0.0
C665 C 0.79542 0.15662 0.38568 0.0
C666 C 0.82134 0.18884 0.31337 0.0
C667 C 0.81428 0.1962 0.38339 0.0
C668 C 0.87071 0.23812 0.2792 0.0
C669 C 0.85877 0.19056 0.21068 0.0
N670 N 0.82735 0.21078 0.34799 0.0
N671 N 0.83738 0.18085 0.2432 0.0
H672 H 0.063 0.06549 0.46311 0.0
H673 H 0.82768 0.0188 0.43112 0.0
H674 H 1.00123 0.98536 0.37197 0.0
H675 H 0.88969 0.09967 0.52139 0.0
H676 H 0.8902 0.99038 0.42292 0.0
H677 H 1.0009 0.06299 0.49721 0.0
C678 C 0.03666 0.04668 0.45063 0.0
C679 C 0.03739 0.02623 0.41412 0.0
C680 C 0.88995 0.01356 0.44535 0.0
C681 C 0.96544 0.0242 0.45249 0.0
C682 C 0.85418 0.02958 0.45021 0.0
C683 C 0.85383 0.06228 0.47623 0.0
C684 C 0.92562 0.0308 0.46628 0.0
C685 C 0.88875 0.07479 0.50065 0.0
C686 C 1.00099 0.04545 0.47005 0.0
C687 C 1.00191 0.00276 0.39925 0.0
N688 N 0.92356 0.05978 0.49431 0.0
N689 N 0.96727 0.00292 0.41812 0.0
H690 H 0.20458 0.86094 0.68287 0.0
H691 H 0.22268 0.62736 0.68694 0.0
H692 H 0.27561 0.80142 0.60426 0.0
H693 H 0.13582 0.68334 0.74918 0.0
H694 H 0.25756 0.69374 0.67272 0.0
H695 H 0.19414 0.79962 0.72212 0.0
C696 C 0.21879 0.83529 0.67438 0.0
C697 C 0.24046 0.83613 0.63982 0.0
C698 C 0.23179 0.69157 0.69082 0.0
C699 C 0.22864 0.76578 0.68476 0.0
C700 C 0.21214 0.65362 0.69932 0.0
C701 C 0.17626 0.65002 0.71904 0.0
C702 C 0.21549 0.72602 0.70235 0.0
C703 C 0.1634 0.68499 0.7338 0.0
C704 C 0.21278 0.80025 0.69684 0.0
C705 C 0.25812 0.80191 0.6303 0.0
N706 N 0.18259 0.72159 0.72457 0.0
N707 N 0.25142 0.76799 0.65234 0.0
H708 H 0.55144 0.05153 0.79834 0.0
H709 H 0.66272 0.95546 0.98331 0.0
H710 H 0.50164 0.03358 0.91376 0.0
H711 H 0.71904 0.98746 0.87341 0.0
H712 H 0.608 0.99347 0.96217 0.0
H713 H 0.6158 0.03535 0.82757 0.0
C714 C 0.55392 0.04422 0.82981 0.0
C715 C 0.52064 0.04325 0.85337 0.0
C716 C 0.6327 0.99289 0.94297 0.0
C717 C 0.59477 0.0253 0.88731 0.0
C718 C 0.66432 0.97152 0.95528 0.0
C719 C 0.69531 0.96766 0.92981 0.0
C720 C 0.63176 0.01015 0.90473 0.0
C721 C 0.69531 0.98889 0.89361 0.0
C722 C 0.5909 0.03536 0.84661 0.0
C723 C 0.52627 0.03473 0.89433 0.0
N724 N 0.66363 0.00854 0.88179 0.0
N725 N 0.56242 0.02566 0.90985 0.0
H726 H 0.24268 0.25731 0.09264 0.0
H727 H 0.34613 0.35097 0.29198 0.0
H728 H 0.28533 0.18603 0.18978 0.0
H729 H 0.28151 0.41728 0.20502 0.0
H730 H 0.31059 0.28852 0.26342 0.0
H731 H 0.24428 0.3136 0.13903 0.0
C732 C 0.25191 0.25333 0.12386 0.0
C733 C 0.26479 0.21718 0.13712 0.0
C734 C 0.30294 0.31668 0.2515 0.0
C735 C 0.26706 0.28177 0.1905 0.0
C736 C 0.3228 0.35243 0.26827 0.0
C737 C 0.31735 0.38927 0.25025 0.0
C738 C 0.27762 0.31795 0.21651 0.0
C739 C 0.28688 0.38949 0.21955 0.0
C740 C 0.25265 0.28547 0.15044 0.0
C741 C 0.27573 0.21354 0.17809 0.0
N742 N 0.26909 0.3543 0.20274 0.0
N743 N 0.27741 0.24569 0.20315 0.0
H744 H 0.10498 0.01272 0.13164 0.0
H745 H 0.8671 0.9723 0.08833 0.0
H746 H 0.01799 0.03661 0.21525 0.0
H747 H 0.95182 0.91572 0.02354 0.0
H748 H 0.92309 0.0171 0.12081 0.0
H749 H 0.05022 0.99714 0.07996 0.0
C750 C 0.07445 0.0153 0.13902 0.0
C751 C 0.06597 0.02515 0.17814 0.0
C752 C 0.92935 0.99573 0.09854 0.0
C753 C 0.00326 0.00766 0.11896 0.0
C754 C 0.89735 0.97056 0.07955 0.0
C755 C 0.90499 0.94006 0.05357 0.0
C756 C 0.96909 0.99025 0.09138 0.0
C757 C 0.94481 0.93873 0.04365 0.0
C758 C 0.04324 0.00644 0.10944 0.0
C759 C 0.02586 0.02844 0.18573 0.0
N760 N 0.9755 0.9629 0.06318 0.0
N761 N 0.99597 0.01926 0.15656 0.0
H762 H 0.22095 0.76382 0.45833 0.0
H763 H 0.3266 0.66252 0.28353 0.0
H764 H 0.28443 0.83081 0.36688 0.0
H765 H 0.28371 0.59979 0.38785 0.0
H766 H 0.2972 0.72169 0.30489 0.0
H767 H 0.23171 0.70149 0.42543 0.0
C768 C 0.23719 0.76544 0.43135 0.0
C769 C 0.25213 0.80265 0.41556 0.0
C770 C 0.29354 0.6947 0.32269 0.0
C771 C 0.26418 0.73129 0.37736 0.0
C772 C 0.30982 0.66078 0.31022 0.0
C773 C 0.30772 0.62636 0.33413 0.0
C774 C 0.27509 0.69405 0.3593 0.0
C775 C 0.28616 0.62587 0.36873 0.0
C776 C 0.24306 0.72983 0.41237 0.0
C777 C 0.27216 0.80286 0.37992 0.0
N778 N 0.27114 0.65935 0.38055 0.0
N779 N 0.27786 0.76776 0.36219 0.0
H780 H 0.44371 0.08851 0.59313 0.0
H781 H 0.65741 0.01083 0.59403 0.0
H782 H 0.4841 0.99694 0.67035 0.0
H783 H 0.62936 0.11933 0.53617 0.0
H784 H 0.58588 0.99121 0.602 0.0
H785 H 0.50296 0.08646 0.55418 0.0
C786 C 0.46449 0.06726 0.60122 0.0
C787 C 0.45926 0.04313 0.63517 0.0
C788 C 0.59511 0.01869 0.58633 0.0
C789 C 0.52714 0.04099 0.5913 0.0
C790 C 0.63594 0.02969 0.58149 0.0
C791 C 0.64928 0.06714 0.56528 0.0
C792 C 0.5675 0.04539 0.57496 0.0
C793 C 0.62029 0.09037 0.54922 0.0
C794 C 0.49838 0.06626 0.57916 0.0
C795 C 0.48731 0.01648 0.64471 0.0
N796 N 0.58073 0.07964 0.55541 0.0
N797 N 0.52026 0.01653 0.62325 0.0
H798 H 0.26185 0.22598 0.85207 0.0
H799 H 0.25982 0.46178 0.8729 0.0
H800 H 0.30687 0.29535 0.95778 0.0
H801 H 0.20685 0.39121 0.77077 0.0
H802 H 0.29123 0.40396 0.89773 0.0
H803 H 0.25422 0.28814 0.81638 0.0
C804 C 0.27065 0.25422 0.86772 0.0
C805 C 0.28443 0.25525 0.90834 0.0
C806 C 0.27344 0.40133 0.86945 0.0
C807 C 0.27554 0.32676 0.86746 0.0
C808 C 0.25579 0.43443 0.85512 0.0
C809 C 0.23029 0.43114 0.81998 0.0
C810 C 0.26521 0.36454 0.84868 0.0
C811 C 0.22626 0.39511 0.79799 0.0
C812 C 0.26619 0.28977 0.84726 0.0
C813 C 0.29518 0.29294 0.92688 0.0
N814 N 0.24284 0.36296 0.8131 0.0
N815 N 0.29016 0.3271 0.90643 0.0
H816 H 0.37282 0.03284 0.01964 0.0
H817 H 0.5058 0.92953 0.18278 0.0
H818 H 0.45043 0.09822 0.11169 0.0
H819 H 0.43682 0.86541 0.08451 0.0
H820 H 0.49694 0.99287 0.14947 0.0
H821 H 0.40481 0.97298 0.03577 0.0
C822 C 0.39674 0.03467 0.04311 0.0
C823 C 0.40836 0.07043 0.06487 0.0
C824 C 0.48459 0.96498 0.13458 0.0
C825 C 0.44536 1.00194 0.08347 0.0
C826 C 0.49001 0.92883 0.15345 0.0
C827 C 0.47179 0.8923 0.13644 0.0
C828 C 0.46015 0.96457 0.09881 0.0
C829 C 0.45142 0.89294 0.09855 0.0
C830 C 0.41526 1.00054 0.05212 0.0
C831 C 0.44033 0.07132 0.09425 0.0
N832 N 0.44535 0.92856 0.08141 0.0
N833 N 0.45725 0.03743 0.10311 0.0
H834 H 0.80445 0.53727 0.06249 0.0
H835 H 0.01027 0.63092 0.98006 0.0
H836 H 0.90375 0.4701 0.04643 0.0
H837 H 0.91417 0.69937 0.00451 0.0
H838 H 0.97837 0.57545 0.01859 0.0
H839 H 0.84958 0.59944 0.05559 0.0
C840 C 0.83588 0.53559 0.05798 0.0
C841 C 0.85011 0.49839 0.05402 0.0
C842 C 0.96485 0.60303 0.01668 0.0
C843 C 0.90194 0.56953 0.04565 0.0
C844 C 0.98332 0.63491 0.99497 0.0
C845 C 0.96445 0.66951 0.98861 0.0
C846 C 0.92732 0.60587 0.03213 0.0
C847 C 0.92934 0.67291 0.00829 0.0
C848 C 0.86171 0.57115 0.05415 0.0
C849 C 0.89129 0.49809 0.04898 0.0
N850 N 0.91146 0.64116 0.0285 0.0
N851 N 0.91558 0.53309 0.04413 0.0
H852 H 0.81682 0.72972 0.24131 0.0
H853 H 0.57696 0.68776 0.2299 0.0
H854 H 0.74935 0.61484 0.26437 0.0
H855 H 0.64399 0.7775 0.16026 0.0
H856 H 0.64018 0.67378 0.26494 0.0
H857 H 0.75376 0.75884 0.23302 0.0
C858 C 0.78888 0.71058 0.24484 0.0
C859 C 0.78853 0.66933 0.25219 0.0
C860 C 0.64089 0.69745 0.24293 0.0
C861 C 0.71626 0.70298 0.24403 0.0
C862 C 0.60486 0.70578 0.22337 0.0
C863 C 0.60549 0.73395 0.19244 0.0
C864 C 0.67758 0.71761 0.23148 0.0
C865 C 0.64241 0.75581 0.18421 0.0
C866 C 0.75293 0.72739 0.24048 0.0
C867 C 0.75132 0.64658 0.25826 0.0
N868 N 0.67712 0.74685 0.20329 0.0
N869 N 0.71665 0.66359 0.25353 0.0
H870 H 0.59161 0.62425 0.46471 0.0
H871 H 0.5769 0.3863 0.47579 0.0
H872 H 0.67186 0.5602 0.53871 0.0
H873 H 0.51703 0.45074 0.38349 0.0
H874 H 0.59504 0.44915 0.51362 0.0
H875 H 0.54918 0.56086 0.4491 0.0
C876 C 0.59992 0.59701 0.47834 0.0
C877 C 0.63581 0.59747 0.50246 0.0
C878 C 0.57701 0.44936 0.4856 0.0
C879 C 0.58718 0.52481 0.4847 0.0
C880 C 0.5662 0.41342 0.46427 0.0
C881 C 0.54588 0.41355 0.4263 0.0
C882 C 0.56732 0.4855 0.46875 0.0
C883 C 0.53307 0.44956 0.41253 0.0
C884 C 0.57562 0.56083 0.46939 0.0
C885 C 0.64486 0.56118 0.51939 0.0
N886 N 0.5446 0.48423 0.43341 0.0
N887 N 0.62099 0.52626 0.50979 0.0
H888 H 0.18976 0.85101 0.27182 0.0
H889 H 0.42876 0.8821 0.27703 0.0
H890 H 0.26398 0.95649 0.31998 0.0
H891 H 0.35346 0.78166 0.22009 0.0
H892 H 0.36988 0.90156 0.30779 0.0
H893 H 0.25005 0.81826 0.26655 0.0
C894 C 0.2186 0.86706 0.28195 0.0
C895 C 0.22178 0.90687 0.29569 0.0
C896 C 0.3664 0.87476 0.28927 0.0
C897 C 0.29105 0.86945 0.28949 0.0
C898 C 0.40003 0.86355 0.27185 0.0
C899 C 0.39589 0.8307 0.24529 0.0
C900 C 0.32835 0.85307 0.27987 0.0
C901 C 0.35812 0.80732 0.24018 0.0
C902 C 0.25305 0.84833 0.27882 0.0
C903 C 0.26015 0.92621 0.30815 0.0
N904 N 0.32566 0.81942 0.25664 0.0
N905 N 0.29332 0.90746 0.30438 0.0
H906 H 0.14983 0.02838 0.50733 0.0
H907 H 0.0204 0.13438 0.65574 0.0
H908 H 0.07806 0.96481 0.595 0.0
H909 H 0.08059 0.19587 0.55924 0.0
H910 H 0.03139 0.07014 0.62666 0.0
H911 H 0.11822 0.08844 0.52026 0.0
C912 C 0.12715 0.02698 0.52904 0.0
C913 C 0.11668 0.99157 0.55021 0.0
C914 C 0.04139 0.09757 0.61123 0.0
C915 C 0.07992 0.06005 0.56491 0.0
C916 C 0.03471 0.13418 0.62762 0.0
C917 C 0.0497 0.17037 0.60986 0.0
C918 C 0.06409 0.09724 0.57736 0.0
C919 C 0.06839 0.16859 0.57371 0.0
C920 C 0.10887 0.06118 0.53624 0.0
C921 C 0.08675 0.99129 0.57769 0.0
N922 N 0.07587 0.13267 0.55911 0.0
N923 N 0.06974 0.02508 0.58452 0.0
H924 H 0.81531 0.44273 0.28607 0.0
H925 H 0.57918 0.4119 0.27892 0.0
H926 H 0.74321 0.50021 0.19753 0.0
H927 H 0.65098 0.32779 0.33601 0.0
H928 H 0.6378 0.44084 0.24392 0.0
H929 H 0.75558 0.39709 0.30113 0.0
C930 C 0.78698 0.4455 0.26952 0.0
C931 C 0.78412 0.47573 0.24094 0.0
C932 C 0.64053 0.41541 0.26333 0.0
C933 C 0.7155 0.42383 0.25831 0.0
C934 C 0.60705 0.39885 0.28318 0.0
C935 C 0.61039 0.36763 0.31055 0.0
C936 C 0.6778 0.40124 0.27166 0.0
C937 C 0.64713 0.35179 0.31509 0.0
C938 C 0.7529 0.41933 0.27802 0.0
C939 C 0.74674 0.47758 0.22006 0.0
N940 N 0.67967 0.36933 0.29654 0.0
N941 N 0.71374 0.45247 0.22965 0.0
H942 H 0.71528 0.64986 0.78727 0.0
H943 H 0.95497 0.66814 0.81964 0.0
H944 H 0.78578 0.55652 0.75725 0.0
H945 H 0.88182 0.74258 0.88 0.0
H946 H 0.895 0.63874 0.77901 0.0
H947 H 0.77752 0.69426 0.8046 0.0
C948 C 0.74381 0.63882 0.78378 0.0
C949 C 0.74525 0.59911 0.77137 0.0
C950 C 0.89227 0.6623 0.80037 0.0
C951 C 0.81666 0.65 0.79101 0.0
C952 C 0.92657 0.67948 0.82312 0.0
C953 C 0.9232 0.70775 0.85316 0.0
C954 C 0.85449 0.67363 0.80772 0.0
C955 C 0.88556 0.72086 0.85707 0.0
C956 C 0.77934 0.66424 0.79371 0.0
C957 C 0.78319 0.58668 0.76719 0.0
N958 N 0.85254 0.7033 0.83503 0.0
N959 N 0.81736 0.61191 0.77732 0.0
H960 H 0.51431 0.84733 0.49829 0.0
H961 H 0.60828 0.05325 0.42268 0.0
H962 H 0.52208 0.9526 0.57339 0.0
H963 H 0.54288 0.96564 0.34097 0.0
H964 H 0.57373 0.01975 0.47823 0.0
H965 H 0.52142 0.89061 0.43978 0.0
C966 C 0.51691 0.87949 0.50254 0.0
C967 C 0.51881 0.89636 0.54113 0.0
C968 C 0.56585 0.00863 0.44798 0.0
C969 C 0.52763 0.94612 0.47424 0.0
C970 C 0.58525 0.02802 0.4163 0.0
C971 C 0.57795 0.01238 0.37729 0.0
C972 C 0.54012 0.97263 0.44061 0.0
C973 C 0.5488 0.97887 0.37062 0.0
C974 C 0.52099 0.90424 0.46907 0.0
C975 C 0.52219 0.93837 0.54451 0.0
N976 N 0.53169 0.95944 0.40211 0.0
N977 N 0.52734 0.96183 0.51169 0.0
H978 H 0.50258 0.21861 0.74454 0.0
H979 H 0.32424 0.33763 0.65772 0.0
H980 H 0.43578 0.28772 0.81887 0.0
H981 H 0.40757 0.2885 0.58471 0.0
H982 H 0.35592 0.30873 0.71717 0.0
H983 H 0.46028 0.23439 0.6863 0.0
C984 C 0.4789 0.23702 0.74873 0.0
C985 C 0.47311 0.25225 0.78674 0.0
C986 C 0.36673 0.30354 0.68805 0.0
C987 C 0.42421 0.27033 0.71975 0.0
C988 C 0.34826 0.3195 0.65407 0.0
C989 C 0.36327 0.31524 0.61632 0.0
C990 C 0.40021 0.28295 0.6841 0.0
C991 C 0.39506 0.29228 0.61331 0.0
C992 C 0.45476 0.24608 0.71533 0.0
C993 C 0.4416 0.27563 0.79014 0.0
N994 N 0.41267 0.27727 0.64677 0.0
N995 N 0.41843 0.2841 0.75704 0.0
H996 H 0.04336 0.20899 0.01248 0.0
H997 H 0.88266 0.04951 0.90232 0.0
H998 H 0.9785 0.11094 0.07428 0.0
H999 H 0.96975 0.12666 0.83955 0.0
H1000 H 0.92371 0.06444 0.96495 0.0
H1001 H 0.02357 0.17394 0.94889 0.0
C1002 C 0.02551 0.17979 0.01278 0.0
C1003 C 0.01197 0.16328 0.04877 0.0
C1004 C 0.93455 0.07726 0.93737 0.0
C1005 C 0.98871 0.12315 0.97588 0.0
C1006 C 0.91125 0.06843 0.9016 0.0
C1007 C 0.92296 0.08682 0.86583 0.0
C1008 C 0.96924 0.10555 0.93751 0.0
C1009 C 0.9599 0.11164 0.86649 0.0
C1010 C 0.01426 0.15971 0.9764 0.0
C1011 C 0.98923 0.12513 0.04727 0.0
N1012 N 0.98128 0.12104 0.90193 0.0
N1013 N 0.97768 0.10674 0.0114 0.0
H1014 H 0.21006 0.73847 0.29962 0.0
H1015 H 0.16493 0.71572 0.06493 0.0
H1016 H 0.11459 0.78987 0.23366 0.0
H1017 H 0.2607 0.66519 0.13119 0.0
H1018 H 0.1565 0.75667 0.12347 0.0
H1019 H 0.23805 0.72386 0.23663 0.0
C1020 C 0.19524 0.74719 0.27192 0.0
C1021 C 0.15954 0.76493 0.27194 0.0
C1022 C 0.18008 0.73742 0.12492 0.0
C1023 C 0.19122 0.74776 0.19942 0.0
C1024 C 0.18511 0.7143 0.09137 0.0
C1025 C 0.21308 0.68654 0.09343 0.0
C1026 C 0.20294 0.73239 0.16083 0.0
C1027 C 0.23864 0.68606 0.12829 0.0
C1028 C 0.21123 0.73876 0.23585 0.0
C1029 C 0.14161 0.77533 0.235 0.0
N1030 N 0.23233 0.7079 0.16095 0.0
N1031 N 0.15738 0.76621 0.20024 0.0
H1032 H 0.57802 0.33574 0.01668 0.0
H1033 H 0.59623 0.12203 0.11718 0.0
H1034 H 0.60883 0.23343 0.954 0.0
H1035 H 0.57575 0.22659 0.18379 0.0
H1036 H 0.58892 0.15937 0.055 0.0
H1037 H 0.57153 0.29525 0.07743 0.0
C1038 C 0.5829 0.30455 0.0156 0.0
C1039 C 0.59193 0.28722 0.9797 0.0
C1040 C 0.58531 0.17398 0.08316 0.0
C1041 C 0.58362 0.24042 0.04861 0.0
C1042 C 0.58876 0.1524 0.11866 0.0
C1043 C 0.58698 0.17134 0.15577 0.0
C1044 C 0.58025 0.21484 0.08481 0.0
C1045 C 0.57776 0.211 0.1558 0.0
C1046 C 0.57874 0.28132 0.05009 0.0
C1047 C 0.59879 0.247 0.98004 0.0
N1048 N 0.57543 0.23165 0.12096 0.0
N1049 N 0.59419 0.22484 0.0138 0.0
H1050 H 0.08086 0.23895 0.25 0.0
H1051 H 0.26446 0.38364 0.34755 0.0
H1052 H 0.1735 0.30211 0.1818 0.0
H1053 H 0.1901 0.30007 0.41736 0.0
H1054 H 0.23634 0.34778 0.28674 0.0
H1055 H 0.12424 0.25402 0.31133 0.0
C1056 C 0.11049 0.25552 0.24781 0.0
C1057 C 0.12326 0.26978 0.21066 0.0
C1058 C 0.22735 0.33608 0.31534 0.0
C1059 C 0.17292 0.28746 0.28084 0.0
C1060 C 0.24355 0.35654 0.35013 0.0
C1061 C 0.22965 0.3447 0.38748 0.0
C1062 C 0.19678 0.30365 0.31774 0.0
C1063 C 0.20186 0.30989 0.38912 0.0
C1064 C 0.13531 0.26402 0.28286 0.0
C1065 C 0.16214 0.29077 0.2097 0.0
N1066 N 0.18569 0.29101 0.35464 0.0
N1067 N 0.18522 0.29949 0.24424 0.0
H1068 H 0.02256 0.83403 0.51913 0.0
H1069 H 0.94318 0.02824 0.60549 0.0
H1070 H 0.03056 0.94683 0.4567 0.0
H1071 H 0.95508 0.92119 0.67405 0.0
H1072 H 0.97925 1.00138 0.5523 0.0
H1073 H 0.99988 0.86671 0.57692 0.0
C1074 C 0.01941 0.86562 0.51738 0.0
C1075 C 0.02802 0.88748 0.48255 0.0
C1076 C 0.9745 0.98404 0.57925 0.0
C1077 C 0.00234 0.9254 0.54914 0.0
C1078 C 0.95431 0.99957 0.60982 0.0
C1079 C 0.94576 0.97668 0.64405 0.0
C1080 C 0.98604 0.94536 0.58299 0.0
C1081 C 0.96054 0.93954 0.64787 0.0
C1082 C 0.00673 0.8844 0.55062 0.0
C1083 C 0.02431 0.9287 0.48272 0.0
N1084 N 0.97947 0.92483 0.61751 0.0
N1085 N 0.0114 0.94624 0.51531 0.0
H1086 H 0.42688 0.76191 0.77781 0.0
H1087 H 0.25615 0.59847 0.84367 0.0
H1088 H 0.32742 0.71449 0.69649 0.0
H1089 H 0.33136 0.67546 0.92857 0.0
H1090 H 0.27633 0.64482 0.78995 0.0
H1091 H 0.38949 0.73399 0.834 0.0
C1092 C 0.39703 0.74582 0.77186 0.0
C1093 C 0.38036 0.74013 0.73244 0.0
C1094 C 0.28756 0.65226 0.82047 0.0
C1095 C 0.33733 0.70798 0.79648 0.0
C1096 C 0.27569 0.62602 0.85113 0.0
C1097 C 0.292 0.63341 0.89049 0.0
C1098 C 0.31686 0.6854 0.82917 0.0
C1099 C 0.31785 0.66901 0.89862 0.0
C1100 C 0.37552 0.73019 0.80392 0.0
C1101 C 0.34128 0.71961 0.72641 0.0
N1102 N 0.33026 0.69324 0.86807 0.0
N1103 N 0.32134 0.7037 0.758 0.0
H1104 H 0.51178 0.47914 0.80663 0.0
H1105 H 0.38855 0.52989 0.98956 0.0
H1106 H 0.56503 0.50173 0.92686 0.0
H1107 H 0.33434 0.49782 0.87159 0.0
H1108 H 0.4508 0.50692 0.97065 0.0
H1109 H 0.44537 0.47426 0.83254 0.0
C1110 C 0.50974 0.48254 0.83854 0.0
C1111 C 0.54444 0.49166 0.86435 0.0
C1112 C 0.42504 0.50405 0.94912 0.0
C1113 C 0.46784 0.48664 0.89428 0.0
C1114 C 0.38922 0.51676 0.96008 0.0
C1115 C 0.35628 0.51639 0.93188 0.0
C1116 C 0.42808 0.49122 0.90959 0.0
C1117 C 0.35924 0.49938 0.89401 0.0
C1118 C 0.47158 0.47984 0.85335 0.0
C1119 C 0.53937 0.49582 0.9055 0.0
N1120 N 0.39475 0.48822 0.88371 0.0
N1121 N 0.50184 0.49382 0.91907 0.0
H1122 H 0.75601 0.38689 0.19343 0.0
H1123 H 0.7334 0.15089 0.20734 0.0
H1124 H 0.77843 0.30552 0.10018 0.0
H1125 H 0.68229 0.22737 0.28784 0.0
H1126 H 0.77632 0.20911 0.18406 0.0
H1127 H 0.75309 0.33142 0.24108 0.0
C1128 C 0.76101 0.35753 0.18314 0.0
C1129 C 0.76635 0.35057 0.14255 0.0
C1130 C 0.75711 0.21301 0.20819 0.0
C1131 C 0.76368 0.28715 0.19696 0.0
C1132 C 0.73315 0.17955 0.22213 0.0
C1133 C 0.70343 0.18465 0.24859 0.0
C1134 C 0.75177 0.25145 0.22164 0.0
C1135 C 0.70443 0.22242 0.26682 0.0
C1136 C 0.75952 0.32592 0.21039 0.0
C1137 C 0.77328 0.31205 0.13097 0.0
N1138 N 0.72714 0.25479 0.25197 0.0
N1139 N 0.77122 0.28171 0.15791 0.0
H1140 H 0.04549 0.55984 0.31232 0.0
H1141 H 0.15442 0.45462 0.49353 0.0
H1142 H 0.99576 0.54129 0.42761 0.0
H1143 H 0.21037 0.48837 0.3839 0.0
H1144 H 0.10027 0.49428 0.47387 0.0
H1145 H 0.10902 0.54047 0.34066 0.0
C1146 C 0.04793 0.55178 0.34362 0.0
C1147 C 0.01492 0.55154 0.36737 0.0
C1148 C 0.12476 0.49364 0.45442 0.0
C1149 C 0.08784 0.52944 0.40024 0.0
C1150 C 0.15599 0.47131 0.46586 0.0
C1151 C 0.18677 0.46768 0.44007 0.0
C1152 C 0.12411 0.5122 0.41677 0.0
C1153 C 0.18684 0.48968 0.40435 0.0
C1154 C 0.08437 0.54102 0.35992 0.0
C1155 C 0.02027 0.54181 0.40808 0.0
N1156 N 0.15567 0.51039 0.39346 0.0
N1157 N 0.0558 0.53063 0.42307 0.0
H1158 H 0.75811 0.73831 0.63733 0.0
H1159 H 0.77682 0.97294 0.66181 0.0
H1160 H 0.68559 0.81294 0.56667 0.0
H1161 H 0.84444 0.89646 0.73518 0.0
H1162 H 0.72988 0.91411 0.6396 0.0
H1163 H 0.77709 0.79371 0.68469 0.0
C1164 C 0.74577 0.76624 0.63204 0.0
C1165 C 0.72102 0.77132 0.59748 0.0
C1166 C 0.75419 0.91027 0.66159 0.0
C1167 C 0.74319 0.83529 0.65132 0.0
C1168 C 0.78066 0.94397 0.67467 0.0
C1169 C 0.8147 0.93931 0.69995 0.0
C1170 C 0.76226 0.87182 0.67365 0.0
C1171 C 0.81865 0.90112 0.71538 0.0
C1172 C 0.75656 0.79792 0.65917 0.0
C1173 C 0.70526 0.80791 0.59261 0.0
N1174 N 0.79333 0.86871 0.70129 0.0
N1175 N 0.71731 0.8388 0.61874 0.0
H1176 H 0.60498 0.46908 0.64087 0.0
H1177 H 0.44492 0.40847 0.511 0.0
H1178 H 0.53438 0.55464 0.68829 0.0
H1179 H 0.37848 0.47493 0.5876 0.0
H1180 H 0.50727 0.44793 0.53682 0.0
H1181 H 0.55386 0.45386 0.5865 0.0
C1182 C 0.57896 0.48522 0.63944 0.0
C1183 C 0.5737 0.51262 0.66972 0.0
C1184 C 0.47924 0.45445 0.54786 0.0
C1185 C 0.51443 0.49567 0.60672 0.0
C1186 C 0.44343 0.43258 0.53215 0.0
C1187 C 0.40661 0.43819 0.54756 0.0
C1188 C 0.47817 0.48126 0.58001 0.0
C1189 C 0.4063 0.46963 0.57503 0.0
C1190 C 0.54965 0.47678 0.60792 0.0
C1191 C 0.53953 0.53287 0.66596 0.0
N1192 N 0.44162 0.48921 0.59122 0.0
N1193 N 0.51094 0.52344 0.63556 0.0
H1194 H 0.71841 0.28025 0.9446 0.0
H1195 H 0.82881 0.19063 0.76733 0.0
H1196 H 0.7875 0.35153 0.85965 0.0
H1197 H 0.78009 0.11997 0.86463 0.0
H1198 H 0.79842 0.24764 0.79116 0.0
H1199 H 0.72624 0.2199 0.90649 0.0
C1200 C 0.73513 0.28329 0.91793 0.0
C1201 C 0.75314 0.32104 0.9059 0.0
C1202 C 0.79369 0.21948 0.80687 0.0
C1203 C 0.76189 0.25214 0.86201 0.0
C1204 C 0.81067 0.18673 0.79302 0.0
C1205 C 0.80731 0.15064 0.81434 0.0
C1206 C 0.77323 0.21612 0.84228 0.0
C1207 C 0.78381 0.14748 0.84769 0.0
C1208 C 0.73936 0.24885 0.89606 0.0
C1209 C 0.77323 0.32321 0.87024 0.0
N1210 N 0.76811 0.18001 0.861 0.0
N1211 N 0.7775 0.28922 0.84988 0.0
H1212 H 0.94466 0.57435 0.14432 0.0
H1213 H 0.1558 0.52313 0.09059 0.0
H1214 H 0.99138 0.46769 0.18862 0.0
H1215 H 0.08901 0.60182 0.01897 0.0
H1216 H 0.09413 0.49734 0.12219 0.0
H1217 H 0.99528 0.58136 0.09499 0.0
C1218 C 0.96519 0.55201 0.14328 0.0
C1219 C 0.96419 0.52075 0.17113 0.0
C1220 C 0.0926 0.51923 0.09857 0.0
C1221 C 0.02204 0.52834 0.11403 0.0
C1222 C 0.12775 0.53365 0.08021 0.0
C1223 C 0.12743 0.56464 0.05216 0.0
C1224 C 0.057 0.536 0.08881 0.0
C1225 C 0.09044 0.57786 0.04046 0.0
C1226 C 0.99388 0.55582 0.11474 0.0
C1227 C 0.99129 0.49246 0.16796 0.0
N1228 N 0.05684 0.56401 0.05937 0.0
N1229 N 0.01957 0.49729 0.14035 0.0
H1230 H 0.71893 0.76491 0.34404 0.0
H1231 H 0.72754 0.99793 0.38525 0.0
H1232 H 0.7709 0.82382 0.45356 0.0
H1233 H 0.67879 0.93907 0.27501 0.0
H1234 H 0.75751 0.93757 0.40475 0.0
H1235 H 0.71664 0.83012 0.31336 0.0
C1236 C 0.73035 0.79134 0.36168 0.0
C1237 C 0.74438 0.78843 0.40199 0.0
C1238 C 0.74113 0.93814 0.37583 0.0
C1239 C 0.74134 0.86384 0.36671 0.0
C1240 C 0.72435 0.97274 0.36455 0.0
C1241 C 0.7002 0.97326 0.32873 0.0
C1242 C 0.73327 0.90372 0.35129 0.0
C1243 C 0.69712 0.93994 0.30293 0.0
C1244 C 0.72895 0.82879 0.34399 0.0
C1245 C 0.75872 0.82425 0.42289 0.0
N1246 N 0.71262 0.90618 0.31512 0.0
N1247 N 0.75633 0.86037 0.4052 0.0
H1248 H 0.91868 0.61406 0.55487 0.0
H1249 H 0.88636 0.37544 0.54774 0.0
H1250 H 0.81131 0.544 0.50239 0.0
H1251 H 0.99815 0.44499 0.58951 0.0
H1252 H 0.86145 0.43687 0.5234 0.0
H1253 H 0.95099 0.55313 0.5611 0.0
C1254 C 0.90198 0.58604 0.54416 0.0
C1255 C 0.86192 0.58431 0.5284 0.0
C1256 C 0.89171 0.43873 0.53724 0.0
C1257 C 0.8988 0.51408 0.53598 0.0
C1258 C 0.90596 0.40363 0.55097 0.0
C1259 C 0.94424 0.40522 0.57083 0.0
C1260 C 0.91568 0.47583 0.54393 0.0
C1261 C 0.9685 0.44245 0.57419 0.0
C1262 C 0.92049 0.55115 0.54786 0.0
C1263 C 0.84183 0.54683 0.51553 0.0
N1264 N 0.95357 0.4764 0.56149 0.0
N1265 N 0.86035 0.51325 0.5199 0.0
H1266 H 0.39348 0.9692 0.51696 0.0
H1267 H 0.38504 0.20455 0.50016 0.0
H1268 H 0.2959 0.02916 0.55523 0.0
H1269 H 0.47999 0.145 0.45575 0.0
H1270 H 0.3597 0.14266 0.53365 0.0
H1271 H 0.43232 0.03463 0.50664 0.0
C1272 C 0.38038 0.99608 0.52369 0.0
C1273 C 0.34101 0.99364 0.53624 0.0
C1274 C 0.38653 0.14328 0.51722 0.0
C1275 C 0.38532 0.06866 0.52441 0.0
C1276 C 0.4011 0.17868 0.49829 0.0
C1277 C 0.43434 0.17976 0.47475 0.0
C1278 C 0.40503 0.10852 0.51217 0.0
C1279 C 0.45426 0.1455 0.47359 0.0
C1280 C 0.40258 0.03346 0.51773 0.0
C1281 C 0.32585 0.02953 0.54491 0.0
N1282 N 0.43885 0.11104 0.49136 0.0
N1283 N 0.34783 0.06548 0.53841 0.0
H1284 H 0.34152 0.23282 0.73646 0.0
H1285 H 0.1051 0.19531 0.75229 0.0
H1286 H 0.27434 0.12195 0.77229 0.0
H1287 H 0.16722 0.29459 0.69011 0.0
H1288 H 0.16978 0.18036 0.78252 0.0
H1289 H 0.28123 0.26595 0.74058 0.0
C1290 C 0.31432 0.21543 0.7454 0.0
C1291 C 0.31292 0.17407 0.75247 0.0
C1292 C 0.16915 0.2061 0.76312 0.0
C1293 C 0.24388 0.21209 0.75823 0.0
C1294 C 0.13223 0.21477 0.74604 0.0
C1295 C 0.13089 0.24552 0.71778 0.0
C1296 C 0.2049 0.2282 0.75161 0.0
C1297 C 0.16684 0.27028 0.71135 0.0
C1298 C 0.27997 0.2345 0.74814 0.0
C1299 C 0.27708 0.15361 0.76579 0.0
N1300 N 0.20254 0.26046 0.72732 0.0
N1301 N 0.24389 0.17267 0.76757 0.0
H1302 H 0.13103 0.09545 0.98882 0.0
H1303 H 0.12349 0.85703 0.98468 0.0
H1304 H 0.22239 0.03066 0.04506 0.0
H1305 H 0.05563 0.92362 0.90069 0.0
H1306 H 0.14475 0.91889 0.02343 0.0
H1307 H 0.08965 0.03151 0.9724 0.0
C1308 C 0.14218 0.06785 0.99825 0.0
C1309 C 0.18065 0.06841 0.01763 0.0
C1310 C 0.12428 0.91975 0.99714 0.0
C1311 C 0.13328 0.99519 0.9991 0.0
C1312 C 0.11175 0.88438 0.97534 0.0
C1313 C 0.08799 0.88541 0.9394 0.0
C1314 C 0.11285 0.95624 0.98284 0.0
C1315 C 0.0741 0.92173 0.92822 0.0
C1316 C 0.11851 0.03137 0.98885 0.0
C1317 C 0.19326 0.03166 0.02946 0.0
N1318 N 0.08722 0.95585 0.94951 0.0
N1319 N 0.16984 0.99655 0.01965 0.0
H1320 H 0.71391 0.31665 0.74125 0.0
H1321 H 0.95151 0.34908 0.72669 0.0
H1322 H 0.79411 0.41668 0.7925 0.0
H1323 H 0.86862 0.27783 0.64343 0.0
H1324 H 0.89639 0.35421 0.77033 0.0
H1325 H 0.77232 0.28461 0.72438 0.0
C1326 C 0.74379 0.33149 0.74974 0.0
C1327 C 0.74924 0.36987 0.76741 0.0
C1328 C 0.89056 0.33622 0.74321 0.0
C1329 C 0.81603 0.33327 0.7485 0.0
C1330 C 0.92209 0.33284 0.71863 0.0
C1331 C 0.91435 0.31314 0.68151 0.0
C1332 C 0.85121 0.31981 0.73035 0.0
C1333 C 0.87561 0.29325 0.67192 0.0
C1334 C 0.77708 0.31323 0.74001 0.0
C1335 C 0.78865 0.38762 0.77785 0.0
N1336 N 0.84521 0.29771 0.69584 0.0
N1337 N 0.82055 0.36939 0.76787 0.0
H1338 H 0.56485 0.46212 0.04967 0.0
H1339 H 0.59643 0.69778 0.04438 0.0
H1340 H 0.66301 0.53155 0.99374 0.0
H1341 H 0.49219 0.62814 0.08937 0.0
H1342 H 0.61287 0.63765 0.01129 0.0
H1343 H 0.52998 0.52135 0.05042 0.0
C1344 C 0.57892 0.48956 0.03697 0.0
C1345 C 0.61769 0.492 0.02287 0.0
C1346 C 0.58578 0.63563 0.0275 0.0
C1347 C 0.57798 0.56037 0.0242 0.0
C1348 C 0.57632 0.67004 0.0462 0.0
C1349 C 0.5433 0.66774 0.07012 0.0
C1350 C 0.56245 0.59857 0.03344 0.0
C1351 C 0.51804 0.63118 0.07133 0.0
C1352 C 0.55893 0.52353 0.03748 0.0
C1353 C 0.63399 0.52852 0.00647 0.0
N1354 N 0.52868 0.59779 0.05411 0.0
N1355 N 0.61442 0.56139 0.00826 0.0
H1356 H 0.34483 0.8942 0.75703 0.0
H1357 H 0.11117 0.88984 0.79128 0.0
H1358 H 0.27639 0.99306 0.73352 0.0
H1359 H 0.18229 0.79876 0.83471 0.0
H1360 H 0.16757 0.91942 0.75371 0.0
H1361 H 0.28233 0.85153 0.7703 0.0
C1362 C 0.31667 0.90683 0.7542 0.0
C1363 C 0.31597 0.94752 0.74498 0.0
C1364 C 0.17064 0.89252 0.77085 0.0
C1365 C 0.2445 0.89892 0.76011 0.0
C1366 C 0.13835 0.87549 0.79202 0.0
C1367 C 0.14229 0.84213 0.81647 0.0
C1368 C 0.20731 0.87639 0.77456 0.0
C1369 C 0.17804 0.82452 0.81623 0.0
C1370 C 0.28103 0.88247 0.76183 0.0
C1371 C 0.27852 0.96209 0.74127 0.0
N1372 N 0.20952 0.84235 0.7963 0.0
N1373 N 0.24441 0.93795 0.74924 0.0
H1374 H 0.24557 0.09925 0.25791 0.0
H1375 H 0.34742 0.27608 0.39251 0.0
H1376 H 0.17723 0.18454 0.30945 0.0
H1377 H 0.41275 0.21378 0.31106 0.0
H1378 H 0.28468 0.25241 0.35349 0.0
H1379 H 0.30625 0.14738 0.26812 0.0
C1380 C 0.24324 0.12833 0.27092 0.0
C1381 C 0.20648 0.13748 0.28378 0.0
C1382 C 0.31282 0.24486 0.34334 0.0
C1383 C 0.276 0.19266 0.29604 0.0
C1384 C 0.34865 0.25875 0.3654 0.0
C1385 C 0.38512 0.2465 0.3551 0.0
C1386 C 0.31352 0.21764 0.31155 0.0
C1387 C 0.38519 0.22381 0.31996 0.0
C1388 C 0.2779 0.15594 0.27657 0.0
C1389 C 0.20509 0.17593 0.29972 0.0
N1390 N 0.34978 0.20913 0.30006 0.0
N1391 N 0.23953 0.20178 0.30625 0.0
loop_
_geom_bond_atom_site_label_1
_geom_bond_atom_site_label_2
_geom_bond_distance
_geom_bond_site_symmetry_2
_ccdc_geom_bond_type
Cu0 N1 1.999 1_455 S
Cu0 O6 1.974 . S
Cu0 N11 1.985 . S
Cu0 O20 1.959 1_455 S
N1 Cu0 1.999 1_655 S
N1 C3 1.263 . S
N1 C5 1.389 . S
N2 C3 1.358 . S
N2 C4 1.400 . S
C3 N1 1.263 . S
C3 N2 1.358 . S
C3 H9 0.915 1_655 S
C4 N2 1.400 . S
C4 C5 1.351 . S
C4 H21 0.930 . S
C5 N1 1.389 . S
C5 C4 1.351 . S
C5 H10 0.930 . S
O6 Cu0 1.974 . S
O6 C16 1.282 . S
C7 O8 1.261 1_655 S
C7 O20 1.251 . S
O8 C7 1.261 1_455 S
H9 C3 0.915 1_455 S
H10 C5 0.930 . S
N11 Cu0 1.985 . S
N11 C13 1.335 . S
N11 C14 1.390 . S
N12 C13 1.345 . S
N12 C15 1.336 . S
C13 N11 1.335 . S
C13 N12 1.345 . S
C13 H18 0.930 . S
C14 N11 1.390 . S
C14 C15 1.346 . S
C14 H19 0.930 . S
C15 N12 1.336 . S
C15 C14 1.346 . S
C15 H22 0.929 . S
C16 O6 1.282 . S
C16 O17 1.216 . S
O17 C16 1.216 . S
H18 C13 0.930 . S
H19 C14 0.930 . S
O20 Cu0 1.959 1_655 S
O20 C7 1.251 . S
H21 C4 0.930 . S
H22 C15 0.929 . S
Cu23 N24 1.988 1_455 S
Cu23 O29 1.974 . S
Cu23 N34 1.985 . S
Cu23 O43 1.959 . S
N24 Cu23 1.988 1_655 S
N24 C26 1.270 . S
N24 C28 1.395 . S
N25 C26 1.358 . S
N25 C27 1.400 . S
C26 N24 1.270 . S
C26 N25 1.358 . S
C26 H32 0.930 . S
C27 N25 1.400 . S
C27 C28 1.351 . S
C27 H44 0.930 . S
C28 N24 1.395 . S
C28 C27 1.351 . S
C28 H33 0.930 . S
O29 Cu23 1.974 . S
O29 C39 1.282 . S
C30 O31 1.261 . S
C30 O43 1.251 1_655 S
O31 C30 1.261 . S
H32 C26 0.930 . S
H33 C28 0.930 . S
N34 Cu23 1.985 . S
N34 C36 1.335 . S
N34 C37 1.390 . S
N35 C36 1.345 . S
N35 C38 1.336 . S
C36 N34 1.335 . S
C36 N35 1.345 . S
C36 H41 0.930 . S
C37 N34 1.390 . S
C37 C38 1.346 . S
C37 H42 0.930 . S
C38 N35 1.336 . S
C38 C37 1.346 . S
C38 H45 0.929 . S
C39 O29 1.282 . S
C39 O40 1.216 . S
O40 C39 1.216 . S
H41 C36 0.930 . S
H42 C37 0.930 . S
O43 Cu23 1.959 . S
O43 C30 1.251 1_455 S
H44 C27 0.930 . S
H45 C38 0.929 . S
Cu46 N47 1.999 . S
Cu46 O52 1.974 . S
Cu46 N57 1.985 . S
Cu46 O66 1.959 . S
N47 Cu46 1.999 . S
N47 C49 1.263 . S
N47 C51 1.389 . S
N48 C49 1.358 . S
N48 C50 1.400 . S
C49 N47 1.263 . S
C49 N48 1.358 . S
C49 H55 0.930 . S
C50 N48 1.400 . S
C50 C51 1.351 . S
C50 H67 0.930 . S
C51 N47 1.389 . S
C51 C50 1.351 . S
C51 H56 0.930 . S
O52 Cu46 1.974 . S
O52 C62 1.282 . S
C53 O54 1.261 . S
C53 O66 1.251 . S
O54 C53 1.261 . S
H55 C49 0.930 . S
H56 C51 0.930 . S
N57 Cu46 1.985 . S
N57 C59 1.335 . S
N57 C60 1.390 . S
N58 C59 1.345 . S
N58 C61 1.336 . S
C59 N57 1.335 . S
C59 N58 1.345 . S
C59 H64 0.930 . S
C60 N57 1.390 . S
C60 C61 1.346 . S
C60 H65 0.930 . S
C61 N58 1.336 . S
C61 C60 1.346 . S
C61 H68 0.929 . S
C62 O52 1.282 . S
C62 O63 1.216 . S
O63 C62 1.216 . S
H64 C59 0.930 . S
H65 C60 0.930 . S
O66 Cu46 1.959 . S
O66 C53 1.251 . S
H67 C50 0.930 . S
H68 C61 0.929 . S
Cu69 N70 1.999 . S
Cu69 O75 1.974 . S
Cu69 N80 1.985 . S
Cu69 O89 1.959 . S
N70 Cu69 1.999 . S
N70 C72 1.263 . S
N70 C74 1.389 . S
N71 C72 1.358 . S
N71 C73 1.400 . S
C72 N70 1.263 . S
C72 N71 1.358 . S
C72 H78 0.930 . S
C73 N71 1.400 . S
C73 C74 1.351 . S
C73 H90 0.930 . S
C74 N70 1.389 . S
C74 C73 1.351 . S
C74 H79 0.930 . S
O75 Cu69 1.974 . S
O75 C85 1.282 . S
C76 O77 1.261 . S
C76 O89 1.251 . S
O77 C76 1.261 . S
H78 C72 0.930 . S
H79 C74 0.930 . S
N80 Cu69 1.985 . S
N80 C82 1.335 . S
N80 C83 1.390 . S
N81 C82 1.345 . S
N81 C84 1.336 . S
C82 N80 1.335 . S
C82 N81 1.345 . S
C82 H87 0.930 . S
C83 N80 1.390 . S
C83 C84 1.346 . S
C83 H88 0.930 . S
C84 N81 1.336 . S
C84 C83 1.346 . S
C84 H91 0.929 . S
C85 O75 1.282 . S
C85 O86 1.216 . S
O86 C85 1.216 . S
H87 C82 0.930 . S
H88 C83 0.930 . S
O89 Cu69 1.959 . S
O89 C76 1.251 . S
H90 C73 0.930 . S
H91 C84 0.929 . S
Cu92 N93 1.999 1_565 S
Cu92 O98 1.974 . S
Cu92 N103 1.985 . S
Cu92 O112 1.959 1_565 S
N93 Cu92 1.999 1_545 S
N93 C95 1.263 . S
N93 C97 1.389 . S
N94 C95 1.358 . S
N94 C96 1.400 . S
C95 N93 1.263 . S
C95 N94 1.358 . S
C95 H101 0.930 . S
C96 N94 1.400 . S
C96 C97 1.351 . S
C96 H113 0.930 . S
C97 N93 1.389 . S
C97 C96 1.351 . S
C97 H102 0.930 . S
O98 Cu92 1.974 . S
O98 C108 1.282 . S
C99 O100 1.261 . S
C99 O112 1.251 . S
O100 C99 1.261 . S
H101 C95 0.930 . S
H102 C97 0.930 . S
N103 Cu92 1.985 . S
N103 C105 1.335 . S
N103 C106 1.390 . S
N104 C105 1.345 . S
N104 C107 1.336 . S
C105 N103 1.335 . S
C105 N104 1.345 . S
C105 H110 0.930 . S
C106 N103 1.390 . S
C106 C107 1.346 . S
C106 H111 0.930 . S
C107 N104 1.336 . S
C107 C106 1.346 . S
C107 H114 0.929 . S
C108 O98 1.282 . S
C108 O109 1.216 . S
O109 C108 1.216 . S
H110 C105 0.930 . S
H111 C106 0.930 . S
O112 Cu92 1.959 1_545 S
O112 C99 1.251 . S
H113 C96 0.930 . S
H114 C107 0.929 . S
Cu115 N116 1.999 . S
Cu115 O121 1.974 . S
Cu115 N126 1.985 . S
Cu115 O135 1.959 . S
N116 Cu115 1.999 . S
N116 C118 1.263 . S
N116 C120 1.389 . S
N117 C118 1.358 . S
N117 C119 1.400 . S
C118 N116 1.263 . S
C118 N117 1.358 . S
C118 H124 0.930 . S
C119 N117 1.400 . S
C119 C120 1.351 . S
C119 H136 0.930 . S
C120 N116 1.389 . S
C120 C119 1.351 . S
C120 H125 0.930 . S
O121 Cu115 1.974 . S
O121 C131 1.282 . S
C122 O123 1.261 . S
C122 O135 1.251 . S
O123 C122 1.261 . S
H124 C118 0.930 . S
H125 C120 0.930 . S
N126 Cu115 1.985 . S
N126 C128 1.335 . S
N126 C129 1.390 . S
N127 C128 1.345 1_545 S
N127 C130 1.336 1_545 S
C128 N126 1.335 . S
C128 N127 1.345 1_565 S
C128 H133 0.930 1_565 S
C129 N126 1.390 . S
C129 C130 1.346 . S
C129 H134 0.930 . S
C130 N127 1.336 1_565 S
C130 C129 1.346 . S
C130 H137 0.929 . S
C131 O121 1.282 . S
C131 O132 1.216 . S
O132 C131 1.216 . S
H133 C128 0.930 1_545 S
H134 C129 0.930 . S
O135 Cu115 1.959 . S
O135 C122 1.251 . S
H136 C119 0.930 . S
H137 C130 0.929 . S
Cu138 N139 1.999 . S
Cu138 O144 1.974 . S
Cu138 N149 1.985 . S
Cu138 O158 1.959 . S
N139 Cu138 1.999 . S
N139 C141 1.263 1_545 S
N139 C143 1.389 1_545 S
N140 C141 1.358 . S
N140 C142 1.400 . S
C141 N139 1.263 1_565 S
C141 N140 1.358 . S
C141 H147 0.930 . S
C142 N140 1.400 . S
C142 C143 1.351 . S
C142 H159 0.930 . S
C143 N139 1.389 1_565 S
C143 C142 1.351 . S
C143 H148 0.933 . S
O144 Cu138 1.974 . S
O144 C154 1.282 . S
C145 O146 1.261 . S
C145 O158 1.251 1_565 S
O146 C145 1.261 . S
H147 C141 0.930 . S
H148 C143 0.933 . S
N149 Cu138 1.985 . S
N149 C151 1.335 . S
N149 C152 1.390 . S
N150 C151 1.345 . S
N150 C153 1.336 . S
C151 N149 1.335 . S
C151 N150 1.345 . S
C151 H156 0.930 . S
C152 N149 1.390 . S
C152 C153 1.346 . S
C152 H157 0.930 . S
C153 N150 1.336 . S
C153 C152 1.346 . S
C153 H160 0.929 . S
C154 O144 1.282 . S
C154 O155 1.216 . S
O155 C154 1.216 . S
H156 C151 0.930 . S
H157 C152 0.930 . S
O158 Cu138 1.959 . S
O158 C145 1.251 1_545 S
H159 C142 0.930 . S
H160 C153 0.929 . S
Cu161 N162 1.999 . S
Cu161 O167 1.974 1_556 S
Cu161 N172 1.985 1_556 S
Cu161 O181 1.959 . S
N162 Cu161 1.999 . S
N162 C164 1.263 . S
N162 C166 1.389 . S
N163 C164 1.358 . S
N163 C165 1.400 . S
C164 N162 1.263 . S
C164 N163 1.358 . S
C164 H170 0.930 . S
C165 N163 1.400 . S
C165 C166 1.351 . S
C165 H182 0.930 . S
C166 N162 1.389 . S
C166 C165 1.351 . S
C166 H171 0.930 . S
O167 Cu161 1.974 1_554 S
O167 C177 1.282 . S
C168 O169 1.261 1_556 S
C168 O181 1.251 . S
O169 C168 1.261 1_554 S
H170 C164 0.930 . S
H171 C166 0.930 . S
N172 Cu161 1.985 1_554 S
N172 C174 1.335 . S
N172 C175 1.390 . S
N173 C174 1.345 . S
N173 C176 1.336 . S
C174 N172 1.335 . S
C174 N173 1.345 . S
C174 H179 0.930 1_554 S
C175 N172 1.390 . S
C175 C176 1.346 . S
C175 H180 0.930 . S
C176 N173 1.336 . S
C176 C175 1.346 . S
C176 H183 0.929 . S
C177 O167 1.282 . S
C177 O178 1.216 . S
O178 C177 1.216 . S
H179 C174 0.930 1_556 S
H180 C175 0.930 . S
O181 Cu161 1.959 . S
O181 C168 1.251 . S
H182 C165 0.930 . S
H183 C176 0.929 . S
Cu184 N185 1.999 . S
Cu184 O190 1.974 1_556 S
Cu184 N195 1.985 1_556 S
Cu184 O204 1.959 . S
N185 Cu184 1.999 . S
N185 C187 1.263 . S
N185 C189 1.389 . S
N186 C187 1.358 . S
N186 C188 1.400 . S
C187 N185 1.263 . S
C187 N186 1.358 . S
C187 H193 0.930 . S
C188 N186 1.400 . S
C188 C189 1.351 . S
C188 H205 0.930 . S
C189 N185 1.389 . S
C189 C188 1.351 . S
C189 H194 0.930 . S
O190 Cu184 1.974 1_554 S
O190 C200 1.282 . S
C191 O192 1.261 1_556 S
C191 O204 1.251 . S
O192 C191 1.261 1_554 S
H193 C187 0.930 . S
H194 C189 0.930 . S
N195 Cu184 1.985 1_554 S
N195 C197 1.335 . S
N195 C198 1.390 . S
N196 C197 1.345 . S
N196 C199 1.336 . S
C197 N195 1.335 . S
C197 N196 1.345 . S
C197 H202 0.930 1_554 S
C198 N195 1.390 . S
C198 C199 1.346 . S
C198 H203 0.930 . S
C199 N196 1.336 . S
C199 C198 1.346 . S
C199 H206 0.929 . S
C200 O190 1.282 . S
C200 O201 1.216 . S
O201 C200 1.216 . S
H202 C197 0.930 1_556 S
H203 C198 0.930 . S
O204 Cu184 1.959 . S
O204 C191 1.251 . S
H205 C188 0.930 . S
H206 C199 0.929 . S
Cu207 N208 1.999 . S
Cu207 O213 1.974 . S
Cu207 N218 1.985 . S
Cu207 O227 1.959 . S
N208 Cu207 1.999 . S
N208 C210 1.263 . S
N208 C212 1.389 . S
N209 C210 1.358 . S
N209 C211 1.400 . S
C210 N208 1.263 . S
C210 N209 1.358 . S
C210 H216 0.930 . S
C211 N209 1.400 . S
C211 C212 1.351 . S
C211 H228 0.930 . S
C212 N208 1.389 . S
C212 C211 1.351 . S
C212 H217 0.930 . S
O213 Cu207 1.974 . S
O213 C223 1.282 . S
C214 O215 1.261 . S
C214 O227 1.251 . S
O215 C214 1.261 . S
H216 C210 0.930 . S
H217 C212 0.930 . S
N218 Cu207 1.985 . S
N218 C220 1.335 . S
N218 C221 1.390 . S
N219 C220 1.345 . S
N219 C222 1.336 . S
C220 N218 1.335 . S
C220 N219 1.345 . S
C220 H225 0.930 . S
C221 N218 1.390 . S
C221 C222 1.346 . S
C221 H226 0.930 . S
C222 N219 1.336 . S
C222 C221 1.346 . S
C222 H229 0.929 . S
C223 O213 1.282 . S
C223 O224 1.216 . S
O224 C223 1.216 . S
H225 C220 0.930 . S
H226 C221 0.930 . S
O227 Cu207 1.959 . S
O227 C214 1.251 . S
H228 C211 0.930 . S
H229 C222 0.929 . S
Cu230 N231 1.999 . S
Cu230 O236 1.974 . S
Cu230 N241 1.985 . S
Cu230 O250 1.959 . S
N231 Cu230 1.999 . S
N231 C233 1.263 . S
N231 C235 1.389 . S
N232 C233 1.358 . S
N232 C234 1.400 . S
C233 N231 1.263 . S
C233 N232 1.358 . S
C233 H239 0.930 . S
C234 N232 1.400 . S
C234 C235 1.351 . S
C234 H251 0.930 . S
C235 N231 1.389 . S
C235 C234 1.351 . S
C235 H240 0.930 . S
O236 Cu230 1.974 . S
O236 C246 1.282 . S
C237 O238 1.261 . S
C237 O250 1.251 . S
O238 C237 1.261 . S
H239 C233 0.930 . S
H240 C235 0.930 . S
N241 Cu230 1.985 . S
N241 C243 1.335 . S
N241 C244 1.390 . S
N242 C243 1.345 . S
N242 C245 1.336 . S
C243 N241 1.335 . S
C243 N242 1.345 . S
C243 H248 0.930 . S
C244 N241 1.390 . S
C244 C245 1.346 . S
C244 H249 0.930 . S
C245 N242 1.336 . S
C245 C244 1.346 . S
C245 H252 0.929 . S
C246 O236 1.282 . S
C246 O247 1.216 . S
O247 C246 1.216 . S
H248 C243 0.930 . S
H249 C244 0.930 . S
O250 Cu230 1.959 . S
O250 C237 1.251 . S
H251 C234 0.930 . S
H252 C245 0.929 . S
Cu253 N254 1.999 . S
Cu253 O259 1.974 . S
Cu253 N264 1.985 . S
Cu253 O273 1.959 . S
N254 Cu253 1.999 . S
N254 C256 1.263 . S
N254 C258 1.389 . S
N255 C256 1.358 . S
N255 C257 1.400 . S
C256 N254 1.263 . S
C256 N255 1.358 . S
C256 H262 0.930 . S
C257 N255 1.400 . S
C257 C258 1.351 . S
C257 H274 0.930 . S
C258 N254 1.389 . S
C258 C257 1.351 . S
C258 H263 0.930 . S
O259 Cu253 1.974 . S
O259 C269 1.282 . S
C260 O261 1.261 . S
C260 O273 1.251 . S
O261 C260 1.261 . S
H262 C256 0.930 . S
H263 C258 0.930 . S
N264 Cu253 1.985 . S
N264 C266 1.335 . S
N264 C267 1.390 . S
N265 C266 1.345 . S
N265 C268 1.336 . S
C266 N264 1.335 . S
C266 N265 1.345 . S
C266 H271 0.930 . S
C267 N264 1.390 . S
C267 C268 1.346 . S
C267 H272 0.930 . S
C268 N265 1.336 . S
C268 C267 1.346 . S
C268 H275 0.929 . S
C269 O259 1.282 . S
C269 O270 1.216 . S
O270 C269 1.216 . S
H271 C266 0.930 . S
H272 C267 0.930 . S
O273 Cu253 1.959 . S
O273 C260 1.251 . S
H274 C257 0.930 . S
H275 C268 0.929 . S
H276 C284 0.930 . S
H277 C287 0.930 . S
H278 C289 0.930 . S
H279 C290 0.970 . S
H280 C290 0.970 . S
H281 C292 0.930 . S
H282 C294 0.930 . S
H283 C296 0.930 . S
C284 H276 0.930 . S
C284 C285 1.382 . S
C284 C286 1.426 . S
C285 C284 1.382 . S
C285 C289 1.389 . S
C286 C284 1.426 . S
C286 C287 1.375 . S
C286 C290 1.532 . S
C287 H277 0.930 . S
C287 C286 1.375 . S
C287 C288 1.416 . S
C288 C287 1.416 . S
C288 C289 1.371 . S
C289 H278 0.930 . S
C289 C285 1.389 . S
C289 C288 1.371 . S
C290 H279 0.970 . S
C290 H280 0.970 . S
C290 C286 1.532 . S
C290 C291 1.499 . S
C291 C290 1.499 . S
C291 C292 1.370 . S
C291 C296 1.415 . S
C292 H281 0.930 . S
C292 C291 1.370 . S
C292 C293 1.407 1_455 S
C293 C292 1.407 1_655 S
C293 C294 1.365 . S
C294 H282 0.930 . S
C294 C293 1.365 . S
C294 C295 1.393 . S
C295 C294 1.393 . S
C295 C296 1.387 1_655 S
C296 H283 0.930 . S
C296 C291 1.415 . S
C296 C295 1.387 1_455 S
H297 C305 0.930 . S
H298 C308 0.930 . S
H299 C310 0.930 . S
H300 C311 0.970 . S
H301 C311 0.970 . S
H302 C313 0.930 . S
H303 C315 0.930 . S
H304 C317 0.930 . S
C305 H297 0.930 . S
C305 C306 1.382 . S
C305 C307 1.426 . S
C306 C305 1.382 . S
C306 C310 1.389 . S
C307 C305 1.426 . S
C307 C308 1.375 . S
C307 C311 1.532 . S
C308 H298 0.930 . S
C308 C307 1.375 . S
C308 C309 1.416 . S
C309 C308 1.416 . S
C309 C310 1.371 . S
C310 H299 0.930 . S
C310 C306 1.389 . S
C310 C309 1.371 . S
C311 H300 0.970 . S
C311 H301 0.970 . S
C311 C307 1.532 . S
C311 C312 1.499 . S
C312 C311 1.499 . S
C312 C313 1.370 1_455 S
C312 C317 1.415 1_455 S
C313 H302 0.930 . S
C313 C312 1.370 1_655 S
C313 C314 1.407 . S
C314 C313 1.407 . S
C314 C315 1.365 . S
C315 H303 0.930 . S
C315 C314 1.365 . S
C315 C316 1.393 . S
C316 C315 1.393 . S
C316 C317 1.387 . S
C317 H304 0.930 . S
C317 C312 1.415 1_655 S
C317 C316 1.387 . S
H318 C326 0.930 . S
H319 C329 0.930 . S
H320 C331 0.930 . S
H321 C332 0.970 . S
H322 C332 0.970 . S
H323 C334 0.930 . S
H324 C336 0.930 . S
H325 C338 0.930 . S
C326 H318 0.930 . S
C326 C327 1.382 . S
C326 C328 1.426 . S
C327 C326 1.382 . S
C327 C331 1.389 . S
C328 C326 1.426 . S
C328 C329 1.375 . S
C328 C332 1.532 . S
C329 H319 0.930 . S
C329 C328 1.375 . S
C329 C330 1.416 . S
C330 C329 1.416 . S
C330 C331 1.371 . S
C331 H320 0.930 . S
C331 C327 1.389 . S
C331 C330 1.371 . S
C332 H321 0.970 . S
C332 H322 0.970 . S
C332 C328 1.532 . S
C332 C333 1.499 . S
C333 C332 1.499 . S
C333 C334 1.370 . S
C333 C338 1.415 . S
C334 H323 0.930 . S
C334 C333 1.370 . S
C334 C335 1.407 . S
C335 C334 1.407 . S
C335 C336 1.365 . S
C336 H324 0.930 . S
C336 C335 1.365 . S
C336 C337 1.393 . S
C337 C336 1.393 . S
C337 C338 1.387 . S
C338 H325 0.930 . S
C338 C333 1.415 . S
C338 C337 1.387 . S
H339 C347 0.930 . S
H340 C350 0.930 . S
H341 C352 0.930 . S
H342 C353 0.970 . S
H343 C353 0.970 . S
H344 C355 0.930 . S
H345 C357 0.930 . S
H346 C359 0.930 . S
C347 H339 0.930 . S
C347 C348 1.382 . S
C347 C349 1.426 . S
C348 C347 1.382 . S
C348 C352 1.389 . S
C349 C347 1.426 . S
C349 C350 1.375 . S
C349 C353 1.532 . S
C350 H340 0.930 . S
C350 C349 1.375 . S
C350 C351 1.416 . S
C351 C350 1.416 . S
C351 C352 1.371 . S
C352 H341 0.930 . S
C352 C348 1.389 . S
C352 C351 1.371 . S
C353 H342 0.970 . S
C353 H343 0.970 . S
C353 C349 1.532 . S
C353 C354 1.499 . S
C354 C353 1.499 . S
C354 C355 1.370 . S
C354 C359 1.415 . S
C355 H344 0.930 . S
C355 C354 1.370 . S
C355 C356 1.407 . S
C356 C355 1.407 . S
C356 C357 1.365 . S
C357 H345 0.930 . S
C357 C356 1.365 . S
C357 C358 1.393 . S
C358 C357 1.393 . S
C358 C359 1.387 . S
C359 H346 0.930 . S
C359 C354 1.415 . S
C359 C358 1.387 . S
H360 C368 0.930 . S
H361 C371 0.930 . S
H362 C373 0.930 . S
H363 C374 0.970 1_565 S
H364 C374 0.970 . S
H365 C376 0.930 . S
H366 C378 0.930 . S
H367 C380 0.929 . S
C368 H360 0.930 . S
C368 C369 1.382 . S
C368 C370 1.426 . S
C369 C368 1.382 . S
C369 C373 1.389 . S
C370 C368 1.426 . S
C370 C371 1.375 . S
C370 C374 1.532 . S
C371 H361 0.930 . S
C371 C370 1.375 . S
C371 C372 1.416 . S
C372 C371 1.416 . S
C372 C373 1.371 . S
C373 H362 0.930 . S
C373 C369 1.389 . S
C373 C372 1.371 . S
C374 H363 0.970 1_545 S
C374 H364 0.970 . S
C374 C370 1.532 . S
C374 C375 1.499 . S
C375 C374 1.499 . S
C375 C376 1.370 . S
C375 C380 1.419 . S
C376 H365 0.930 . S
C376 C375 1.370 . S
C376 C377 1.407 1_545 S
C377 C376 1.407 1_565 S
C377 C378 1.365 . S
C378 H366 0.930 . S
C378 C377 1.365 . S
C378 C379 1.393 . S
C379 C378 1.393 . S
C379 C380 1.385 1_565 S
C380 H367 0.929 . S
C380 C375 1.419 . S
C380 C379 1.385 1_545 S
H381 C389 0.930 . S
H382 C392 0.930 . S
H383 C394 0.930 . S
H384 C395 0.970 . S
H385 C395 0.970 . S
H386 C397 0.930 . S
H387 C399 0.930 . S
H388 C401 0.930 . S
C389 H381 0.930 . S
C389 C390 1.382 . S
C389 C391 1.426 . S
C390 C389 1.382 . S
C390 C394 1.389 . S
C391 C389 1.426 . S
C391 C392 1.375 . S
C391 C395 1.532 . S
C392 H382 0.930 . S
C392 C391 1.375 . S
C392 C393 1.416 . S
C393 C392 1.416 . S
C393 C394 1.371 . S
C394 H383 0.930 . S
C394 C390 1.389 . S
C394 C393 1.371 . S
C395 H384 0.970 . S
C395 H385 0.970 . S
C395 C391 1.532 . S
C395 C396 1.499 . S
C396 C395 1.499 . S
C396 C397 1.370 . S
C396 C401 1.415 . S
C397 H386 0.930 . S
C397 C396 1.370 . S
C397 C398 1.407 . S
C398 C397 1.407 . S
C398 C399 1.365 . S
C399 H387 0.930 . S
C399 C398 1.365 . S
C399 C400 1.393 . S
C400 C399 1.393 . S
C400 C401 1.387 . S
C401 H388 0.930 . S
C401 C396 1.415 . S
C401 C400 1.387 . S
H402 C410 0.930 . S
H403 C413 0.930 . S
H404 C415 0.930 . S
H405 C416 0.970 . S
H406 C416 0.970 . S
H407 C418 0.930 . S
H408 C420 0.930 . S
H409 C422 0.930 . S
C410 H402 0.930 . S
C410 C411 1.382 1_545 S
C410 C412 1.426 . S
C411 C410 1.382 1_565 S
C411 C415 1.389 . S
C412 C410 1.426 . S
C412 C413 1.375 . S
C412 C416 1.532 . S
C413 H403 0.930 . S
C413 C412 1.375 . S
C413 C414 1.416 1_545 S
C414 C413 1.416 1_565 S
C414 C415 1.371 . S
C415 H404 0.930 . S
C415 C411 1.389 . S
C415 C414 1.371 . S
C416 H405 0.970 . S
C416 H406 0.970 . S
C416 C412 1.532 . S
C416 C417 1.499 . S
C417 C416 1.499 . S
C417 C418 1.370 . S
C417 C422 1.415 . S
C418 H407 0.930 . S
C418 C417 1.370 . S
C418 C419 1.407 . S
C419 C418 1.407 . S
C419 C420 1.365 . S
C420 H408 0.930 . S
C420 C419 1.365 . S
C420 C421 1.393 . S
C421 C420 1.393 . S
C421 C422 1.387 . S
C422 H409 0.930 . S
C422 C417 1.415 . S
C422 C421 1.387 . S
H423 C431 0.930 . S
H424 C434 0.930 . S
H425 C436 0.930 . S
H426 C437 0.970 . S
H427 C437 0.970 . S
H428 C439 0.930 1_554 S
H429 C441 0.930 . S
H430 C443 0.930 . S
C431 H423 0.930 . S
C431 C432 1.382 . S
C431 C433 1.426 . S
C432 C431 1.382 . S
C432 C436 1.389 . S
C433 C431 1.426 . S
C433 C434 1.375 . S
C433 C437 1.532 . S
C434 H424 0.930 . S
C434 C433 1.375 . S
C434 C435 1.416 . S
C435 C434 1.416 . S
C435 C436 1.371 . S
C436 H425 0.930 . S
C436 C432 1.389 . S
C436 C435 1.371 . S
C437 H426 0.970 . S
C437 H427 0.970 . S
C437 C433 1.532 . S
C437 C438 1.499 . S
C438 C437 1.499 . S
C438 C439 1.370 1_554 S
C438 C443 1.415 . S
C439 H428 0.930 1_556 S
C439 C438 1.370 1_556 S
C439 C440 1.407 . S
C440 C439 1.407 . S
C440 C441 1.365 . S
C441 H429 0.930 . S
C441 C440 1.365 . S
C441 C442 1.393 . S
C442 C441 1.393 . S
C442 C443 1.387 1_556 S
C443 H430 0.930 . S
C443 C438 1.415 . S
C443 C442 1.387 1_554 S
H444 C452 0.930 . S
H445 C455 0.930 . S
H446 C457 0.930 . S
H447 C458 0.970 . S
H448 C458 0.970 . S
H449 C460 0.925 1_554 S
H450 C462 0.930 . S
H451 C464 0.930 1_554 S
C452 H444 0.930 . S
C452 C453 1.382 . S
C452 C454 1.426 . S
C453 C452 1.382 . S
C453 C457 1.389 . S
C454 C452 1.426 . S
C454 C455 1.375 . S
C454 C458 1.532 . S
C455 H445 0.930 . S
C455 C454 1.375 . S
C455 C456 1.416 . S
C456 C455 1.416 . S
C456 C457 1.371 . S
C457 H446 0.930 . S
C457 C453 1.389 . S
C457 C456 1.371 . S
C458 H447 0.970 . S
C458 H448 0.970 . S
C458 C454 1.532 . S
C458 C459 1.499 . S
C459 C458 1.499 . S
C459 C460 1.370 1_554 S
C459 C464 1.415 1_554 S
C460 H449 0.925 1_556 S
C460 C459 1.370 1_556 S
C460 C461 1.407 . S
C461 C460 1.407 . S
C461 C462 1.365 . S
C462 H450 0.930 . S
C462 C461 1.365 . S
C462 C463 1.393 . S
C463 C462 1.393 . S
C463 C464 1.387 . S
C464 H451 0.930 1_556 S
C464 C459 1.415 1_556 S
C464 C463 1.387 . S
H465 C473 0.930 . S
H466 C476 0.930 . S
H467 C478 0.930 . S
H468 C479 0.970 . S
H469 C479 0.970 . S
H470 C481 0.930 . S
H471 C483 0.930 . S
H472 C485 0.930 . S
C473 H465 0.930 . S
C473 C474 1.382 . S
C473 C475 1.426 . S
C474 C473 1.382 . S
C474 C478 1.389 . S
C475 C473 1.426 . S
C475 C476 1.375 . S
C475 C479 1.532 . S
C476 H466 0.930 . S
C476 C475 1.375 . S
C476 C477 1.416 . S
C477 C476 1.416 . S
C477 C478 1.371 . S
C478 H467 0.930 . S
C478 C474 1.389 . S
C478 C477 1.371 . S
C479 H468 0.970 . S
C479 H469 0.970 . S
C479 C475 1.532 . S
C479 C480 1.499 . S
C480 C479 1.499 . S
C480 C481 1.370 . S
C480 C485 1.415 . S
C481 H470 0.930 . S
C481 C480 1.370 . S
C481 C482 1.407 . S
C482 C481 1.407 . S
C482 C483 1.365 . S
C483 H471 0.930 . S
C483 C482 1.365 . S
C483 C484 1.393 . S
C484 C483 1.393 . S
C484 C485 1.387 . S
C485 H472 0.930 . S
C485 C480 1.415 . S
C485 C484 1.387 . S
H486 C494 0.930 . S
H487 C497 0.930 . S
H488 C499 0.930 . S
H489 C500 0.970 . S
H490 C500 0.970 . S
H491 C502 0.930 . S
H492 C504 0.930 . S
H493 C506 0.930 . S
C494 H486 0.930 . S
C494 C495 1.382 . S
C494 C496 1.426 . S
C495 C494 1.382 . S
C495 C499 1.389 . S
C496 C494 1.426 . S
C496 C497 1.375 . S
C496 C500 1.532 . S
C497 H487 0.930 . S
C497 C496 1.375 . S
C497 C498 1.416 . S
C498 C497 1.416 . S
C498 C499 1.371 . S
C499 H488 0.930 . S
C499 C495 1.389 . S
C499 C498 1.371 . S
C500 H489 0.970 . S
C500 H490 0.970 . S
C500 C496 1.532 . S
C500 C501 1.499 . S
C501 C500 1.499 . S
C501 C502 1.370 . S
C501 C506 1.415 . S
C502 H491 0.930 . S
C502 C501 1.370 . S
C502 C503 1.407 . S
C503 C502 1.407 . S
C503 C504 1.365 . S
C504 H492 0.930 . S
C504 C503 1.365 . S
C504 C505 1.393 . S
C505 C504 1.393 . S
C505 C506 1.387 . S
C506 H493 0.930 . S
C506 C501 1.415 . S
C506 C505 1.387 . S
H507 C515 0.930 . S
H508 C518 0.930 . S
H509 C520 0.930 . S
H510 C521 0.970 . S
H511 C521 0.970 . S
H512 C523 0.930 . S
H513 C525 0.930 . S
H514 C527 0.930 . S
C515 H507 0.930 . S
C515 C516 1.382 . S
C515 C517 1.426 . S
C516 C515 1.382 . S
C516 C520 1.389 . S
C517 C515 1.426 . S
C517 C518 1.375 . S
C517 C521 1.532 . S
C518 H508 0.930 . S
C518 C517 1.375 . S
C518 C519 1.416 . S
C519 C518 1.416 . S
C519 C520 1.371 . S
C520 H509 0.930 . S
C520 C516 1.389 . S
C520 C519 1.371 . S
C521 H510 0.970 . S
C521 H511 0.970 . S
C521 C517 1.532 . S
C521 C522 1.499 . S
C522 C521 1.499 . S
C522 C523 1.370 . S
C522 C527 1.415 . S
C523 H512 0.930 . S
C523 C522 1.370 . S
C523 C524 1.407 . S
C524 C523 1.407 . S
C524 C525 1.365 . S
C525 H513 0.930 . S
C525 C524 1.365 . S
C525 C526 1.393 . S
C526 C525 1.393 . S
C526 C527 1.387 . S
C527 H514 0.930 . S
C527 C522 1.415 . S
C527 C526 1.387 . S
H528 C534 0.930 . S
H529 C538 0.930 . S
H530 C543 0.929 . S
H531 C541 0.929 . S
H532 C536 0.929 . S
H533 C542 0.929 . S
C534 H528 0.930 . S
C534 C535 1.367 . S
C534 C542 1.378 1_554 S
C535 C534 1.367 . S
C535 C543 1.433 1_554 S
C536 H532 0.929 . S
C536 C538 1.378 . S
C536 C540 1.350 . S
C537 C540 1.463 . S
C537 C542 1.350 . S
C537 N545 1.427 . S
C538 H529 0.930 . S
C538 C536 1.378 . S
C538 C539 1.367 . S
C539 C538 1.367 . S
C539 C541 1.433 . S
C540 C536 1.350 . S
C540 C537 1.463 . S
C540 N544 1.427 . S
C541 H531 0.929 . S
C541 C539 1.433 . S
C541 N544 1.384 . S
C542 H533 0.929 . S
C542 C534 1.378 1_556 S
C542 C537 1.350 . S
C543 H530 0.929 . S
C543 C535 1.433 1_556 S
C543 N545 1.384 . S
N544 C540 1.427 . S
N544 C541 1.384 . S
N545 C537 1.427 . S
N545 C543 1.384 . S
H546 C552 0.930 . S
H547 C556 0.930 . S
H548 C561 0.929 . S
H549 C559 0.929 . S
H550 C554 0.929 . S
H551 C560 0.929 . S
C552 H546 0.930 . S
C552 C553 1.367 . S
C552 C560 1.378 . S
C553 C552 1.367 . S
C553 C561 1.433 . S
C554 H550 0.929 . S
C554 C556 1.378 . S
C554 C558 1.350 . S
C555 C558 1.463 . S
C555 C560 1.350 . S
C555 N563 1.427 . S
C556 H547 0.930 . S
C556 C554 1.378 . S
C556 C557 1.367 . S
C557 C556 1.367 . S
C557 C559 1.433 . S
C558 C554 1.350 . S
C558 C555 1.463 . S
C558 N562 1.427 . S
C559 H549 0.929 . S
C559 C557 1.433 . S
C559 N562 1.384 . S
C560 H551 0.929 . S
C560 C552 1.378 . S
C560 C555 1.350 . S
C561 H548 0.929 . S
C561 C553 1.433 . S
C561 N563 1.384 . S
N562 C558 1.427 . S
N562 C559 1.384 . S
N563 C555 1.427 . S
N563 C561 1.384 . S
H564 C570 0.930 . S
H565 C574 0.930 . S
H566 C579 0.929 . S
H567 C577 0.929 . S
H568 C572 0.929 . S
H569 C578 0.929 . S
C570 H564 0.930 . S
C570 C571 1.367 . S
C570 C578 1.378 . S
C571 C570 1.367 . S
C571 C579 1.433 . S
C572 H568 0.929 . S
C572 C574 1.378 . S
C572 C576 1.350 . S
C573 C576 1.463 . S
C573 C578 1.350 . S
C573 N581 1.427 . S
C574 H565 0.930 . S
C574 C572 1.378 . S
C574 C575 1.367 . S
C575 C574 1.367 . S
C575 C577 1.433 . S
C576 C572 1.350 . S
C576 C573 1.463 . S
C576 N580 1.427 . S
C577 H567 0.929 . S
C577 C575 1.433 . S
C577 N580 1.384 . S
C578 H569 0.929 . S
C578 C570 1.378 . S
C578 C573 1.350 . S
C579 H566 0.929 . S
C579 C571 1.433 . S
C579 N581 1.384 . S
N580 C576 1.427 . S
N580 C577 1.384 . S
N581 C573 1.427 . S
N581 C579 1.384 . S
H582 C588 0.930 . S
H583 C592 0.930 . S
H584 C597 0.929 . S
H585 C595 0.929 . S
H586 C590 0.929 . S
H587 C596 0.929 . S
C588 H582 0.930 . S
C588 C589 1.367 . S
C588 C596 1.378 . S
C589 C588 1.367 . S
C589 C597 1.433 . S
C590 H586 0.929 . S
C590 C592 1.378 . S
C590 C594 1.350 . S
C591 C594 1.463 . S
C591 C596 1.350 . S
C591 N599 1.427 . S
C592 H583 0.930 . S
C592 C590 1.378 . S
C592 C593 1.367 . S
C593 C592 1.367 . S
C593 C595 1.433 . S
C594 C590 1.350 . S
C594 C591 1.463 . S
C594 N598 1.427 . S
C595 H585 0.929 . S
C595 C593 1.433 . S
C595 N598 1.384 . S
C596 H587 0.929 . S
C596 C588 1.378 . S
C596 C591 1.350 . S
C597 H584 0.929 . S
C597 C589 1.433 . S
C597 N599 1.384 . S
N598 C594 1.427 . S
N598 C595 1.384 . S
N599 C591 1.427 . S
N599 C597 1.384 . S
H600 C606 0.930 . S
H601 C610 0.930 . S
H602 C615 0.929 1_655 S
H603 C613 0.929 . S
H604 C608 0.929 . S
H605 C614 0.929 . S
C606 H600 0.930 . S
C606 C607 1.367 . S
C606 C614 1.378 . S
C607 C606 1.367 . S
C607 C615 1.433 . S
C608 H604 0.929 . S
C608 C610 1.378 . S
C608 C612 1.350 . S
C609 C612 1.463 . S
C609 C614 1.350 . S
C609 N617 1.427 . S
C610 H601 0.930 . S
C610 C608 1.378 . S
C610 C611 1.367 . S
C611 C610 1.367 . S
C611 C613 1.433 . S
C612 C608 1.350 . S
C612 C609 1.463 . S
C612 N616 1.427 . S
C613 H603 0.929 . S
C613 C611 1.433 . S
C613 N616 1.384 . S
C614 H605 0.929 . S
C614 C606 1.378 . S
C614 C609 1.350 . S
C615 H602 0.929 1_455 S
C615 C607 1.433 . S
C615 N617 1.384 . S
N616 C612 1.427 . S
N616 C613 1.384 . S
N617 C609 1.427 . S
N617 C615 1.384 . S
H618 C624 0.930 . S
H619 C628 0.930 . S
H620 C633 0.929 . S
H621 C631 0.929 . S
H622 C626 0.929 . S
H623 C632 0.929 . S
C624 H618 0.930 . S
C624 C625 1.367 . S
C624 C632 1.378 . S
C625 C624 1.367 . S
C625 C633 1.433 . S
C626 H622 0.929 . S
C626 C628 1.378 . S
C626 C630 1.350 . S
C627 C630 1.463 . S
C627 C632 1.350 . S
C627 N635 1.427 . S
C628 H619 0.930 . S
C628 C626 1.378 . S
C628 C629 1.367 . S
C629 C628 1.367 . S
C629 C631 1.433 . S
C630 C626 1.350 . S
C630 C627 1.463 . S
C630 N634 1.427 . S
C631 H621 0.929 . S
C631 C629 1.433 . S
C631 N634 1.384 . S
C632 H623 0.929 . S
C632 C624 1.378 . S
C632 C627 1.350 . S
C633 H620 0.929 . S
C633 C625 1.433 . S
C633 N635 1.384 . S
N634 C630 1.427 . S
N634 C631 1.384 . S
N635 C627 1.427 . S
N635 C633 1.384 . S
H636 C642 0.930 . S
H637 C646 0.930 . S
H638 C651 0.929 . S
H639 C649 0.929 . S
H640 C644 0.929 . S
H641 C650 0.929 . S
C642 H636 0.930 . S
C642 C643 1.367 . S
C642 C650 1.378 . S
C643 C642 1.367 . S
C643 C651 1.433 . S
C644 H640 0.929 . S
C644 C646 1.378 . S
C644 C648 1.350 . S
C645 C648 1.463 . S
C645 C650 1.350 . S
C645 N653 1.427 . S
C646 H637 0.930 . S
C646 C644 1.378 . S
C646 C647 1.367 . S
C647 C646 1.367 . S
C647 C649 1.433 . S
C648 C644 1.350 . S
C648 C645 1.463 . S
C648 N652 1.427 . S
C649 H639 0.929 . S
C649 C647 1.433 . S
C649 N652 1.384 . S
C650 H641 0.929 . S
C650 C642 1.378 . S
C650 C645 1.350 . S
C651 H638 0.929 . S
C651 C643 1.433 . S
C651 N653 1.384 . S
N652 C648 1.427 . S
N652 C649 1.384 . S
N653 C645 1.427 . S
N653 C651 1.384 . S
H654 C660 0.930 . S
H655 C664 0.930 . S
H656 C669 0.929 . S
H657 C667 0.929 . S
H658 C662 0.929 . S
H659 C668 0.929 . S
C660 H654 0.930 . S
C660 C661 1.367 . S
C660 C668 1.378 . S
C661 C660 1.367 . S
C661 C669 1.433 . S
C662 H658 0.929 . S
C662 C664 1.378 . S
C662 C666 1.350 . S
C663 C666 1.463 . S
C663 C668 1.350 . S
C663 N671 1.427 . S
C664 H655 0.930 . S
C664 C662 1.378 . S
C664 C665 1.367 . S
C665 C664 1.367 . S
C665 C667 1.433 . S
C666 C662 1.350 . S
C666 C663 1.463 . S
C666 N670 1.427 . S
C667 H657 0.929 . S
C667 C665 1.433 . S
C667 N670 1.384 . S
C668 H659 0.929 . S
C668 C660 1.378 . S
C668 C663 1.350 . S
C669 H656 0.929 . S
C669 C661 1.433 . S
C669 N671 1.384 . S
N670 C666 1.427 . S
N670 C667 1.384 . S
N671 C663 1.427 . S
N671 C669 1.384 . S
H672 C678 0.944 . S
H673 C682 0.930 1_565 S
H674 C687 0.929 1_565 S
H675 C685 0.929 . S
H676 C680 0.929 1_565 S
H677 C686 0.929 . S
C678 H672 0.944 . S
C678 C679 1.376 . S
C678 C686 1.356 1_455 S
C679 C678 1.376 . S
C679 C687 1.433 1_455 S
C680 H676 0.929 1_545 S
C680 C682 1.378 . S
C680 C684 1.350 . S
C681 C684 1.463 . S
C681 C686 1.350 . S
C681 N689 1.427 . S
C682 H673 0.930 1_545 S
C682 C680 1.378 . S
C682 C683 1.367 . S
C683 C682 1.367 . S
C683 C685 1.433 . S
C684 C680 1.350 . S
C684 C681 1.463 . S
C684 N688 1.427 . S
C685 H675 0.929 . S
C685 C683 1.433 . S
C685 N688 1.384 . S
C686 H677 0.929 . S
C686 C678 1.356 1_655 S
C686 C681 1.350 . S
C687 H674 0.929 1_545 S
C687 C679 1.433 1_655 S
C687 N689 1.384 . S
N688 C684 1.427 . S
N688 C685 1.384 . S
N689 C681 1.427 . S
N689 C687 1.384 . S
H690 C696 0.930 . S
H691 C700 0.930 . S
H692 C705 0.929 . S
H693 C703 0.929 . S
H694 C698 0.929 . S
H695 C704 0.929 . S
C696 H690 0.930 . S
C696 C697 1.367 . S
C696 C704 1.378 . S
C697 C696 1.367 . S
C697 C705 1.433 . S
C698 H694 0.929 . S
C698 C700 1.378 . S
C698 C702 1.350 . S
C699 C702 1.463 . S
C699 C704 1.350 . S
C699 N707 1.427 . S
C700 H691 0.930 . S
C700 C698 1.378 . S
C700 C701 1.367 . S
C701 C700 1.367 . S
C701 C703 1.433 . S
C702 C698 1.350 . S
C702 C699 1.463 . S
C702 N706 1.427 . S
C703 H693 0.929 . S
C703 C701 1.433 . S
C703 N706 1.384 . S
C704 H695 0.929 . S
C704 C696 1.378 . S
C704 C699 1.350 . S
C705 H692 0.929 . S
C705 C697 1.433 . S
C705 N707 1.384 . S
N706 C702 1.427 . S
N706 C703 1.384 . S
N707 C699 1.427 . S
N707 C705 1.384 . S
H708 C714 0.930 1_545 S
H709 C718 0.930 . S
H710 C723 0.929 . S
H711 C721 0.929 . S
H712 C716 0.929 . S
H713 C722 0.938 . S
C714 H708 0.930 1_565 S
C714 C715 1.367 . S
C714 C722 1.378 . S
C715 C714 1.367 . S
C715 C723 1.433 . S
C716 H712 0.929 . S
C716 C718 1.378 . S
C716 C720 1.350 . S
C717 C720 1.463 . S
C717 C722 1.350 . S
C717 N725 1.427 . S
C718 H709 0.930 . S
C718 C716 1.378 . S
C718 C719 1.367 . S
C719 C718 1.367 . S
C719 C721 1.433 . S
C720 C716 1.350 . S
C720 C717 1.463 . S
C720 N724 1.427 . S
C721 H711 0.929 . S
C721 C719 1.433 . S
C721 N724 1.384 . S
C722 H713 0.938 . S
C722 C714 1.378 . S
C722 C717 1.350 . S
C723 H710 0.929 . S
C723 C715 1.433 . S
C723 N725 1.384 . S
N724 C720 1.427 . S
N724 C721 1.384 . S
N725 C717 1.427 . S
N725 C723 1.384 . S
H726 C732 0.930 . S
H727 C736 0.930 . S
H728 C741 0.929 . S
H729 C739 0.929 . S
H730 C734 0.929 . S
H731 C740 0.929 . S
C732 H726 0.930 . S
C732 C733 1.367 . S
C732 C740 1.378 . S
C733 C732 1.367 . S
C733 C741 1.433 . S
C734 H730 0.929 . S
C734 C736 1.378 . S
C734 C738 1.350 . S
C735 C738 1.463 . S
C735 C740 1.350 . S
C735 N743 1.427 . S
C736 H727 0.930 . S
C736 C734 1.378 . S
C736 C737 1.367 . S
C737 C736 1.367 . S
C737 C739 1.433 . S
C738 C734 1.350 . S
C738 C735 1.463 . S
C738 N742 1.427 . S
C739 H729 0.929 . S
C739 C737 1.433 . S
C739 N742 1.384 . S
C740 H731 0.929 . S
C740 C732 1.378 . S
C740 C735 1.350 . S
C741 H728 0.929 . S
C741 C733 1.433 . S
C741 N743 1.384 . S
N742 C738 1.427 . S
N742 C739 1.384 . S
N743 C735 1.427 . S
N743 C741 1.384 . S
H744 C750 0.930 . S
H745 C754 0.930 . S
H746 C759 0.929 . S
H747 C757 0.929 . S
H748 C752 0.929 . S
H749 C758 0.929 . S
C750 H744 0.930 . S
C750 C751 1.367 . S
C750 C758 1.378 . S
C751 C750 1.367 . S
C751 C759 1.433 . S
C752 H748 0.929 . S
C752 C754 1.378 . S
C752 C756 1.350 . S
C753 C756 1.463 . S
C753 C758 1.350 1_655 S
C753 N761 1.427 . S
C754 H745 0.930 . S
C754 C752 1.378 . S
C754 C755 1.367 . S
C755 C754 1.367 . S
C755 C757 1.433 . S
C756 C752 1.350 . S
C756 C753 1.463 . S
C756 N760 1.427 . S
C757 H747 0.929 . S
C757 C755 1.433 . S
C757 N760 1.384 . S
C758 H749 0.929 . S
C758 C750 1.378 . S
C758 C753 1.350 1_455 S
C759 H746 0.929 . S
C759 C751 1.433 . S
C759 N761 1.384 1_455 S
N760 C756 1.427 . S
N760 C757 1.384 . S
N761 C753 1.427 . S
N761 C759 1.384 1_655 S
H762 C768 0.930 . S
H763 C772 0.930 . S
H764 C777 0.929 . S
H765 C775 0.929 . S
H766 C770 0.929 . S
H767 C776 0.929 . S
C768 H762 0.930 . S
C768 C769 1.367 . S
C768 C776 1.378 . S
C769 C768 1.367 . S
C769 C777 1.433 . S
C770 H766 0.929 . S
C770 C772 1.378 . S
C770 C774 1.350 . S
C771 C774 1.463 . S
C771 C776 1.350 . S
C771 N779 1.427 . S
C772 H763 0.930 . S
C772 C770 1.378 . S
C772 C773 1.367 . S
C773 C772 1.367 . S
C773 C775 1.433 . S
C774 C770 1.350 . S
C774 C771 1.463 . S
C774 N778 1.427 . S
C775 H765 0.929 . S
C775 C773 1.433 . S
C775 N778 1.384 . S
C776 H767 0.929 . S
C776 C768 1.378 . S
C776 C771 1.350 . S
C777 H764 0.929 . S
C777 C769 1.433 . S
C777 N779 1.384 . S
N778 C774 1.427 . S
N778 C775 1.384 . S
N779 C771 1.427 . S
N779 C777 1.384 . S
H780 C786 0.930 1_565 S
H781 C790 0.930 . S
H782 C795 0.929 . S
H783 C793 0.929 . S
H784 C788 0.929 . S
H785 C794 0.929 1_565 S
C786 H780 0.930 1_545 S
C786 C787 1.367 . S
C786 C794 1.378 . S
C787 C786 1.367 . S
C787 C795 1.433 . S
C788 H784 0.929 . S
C788 C790 1.378 . S
C788 C792 1.350 . S
C789 C792 1.463 . S
C789 C794 1.350 . S
C789 N797 1.427 . S
C790 H781 0.930 . S
C790 C788 1.378 . S
C790 C791 1.367 . S
C791 C790 1.367 . S
C791 C793 1.433 . S
C792 C788 1.350 . S
C792 C789 1.463 . S
C792 N796 1.427 . S
C793 H783 0.929 . S
C793 C791 1.433 . S
C793 N796 1.384 . S
C794 H785 0.929 1_545 S
C794 C786 1.378 . S
C794 C789 1.350 . S
C795 H782 0.929 . S
C795 C787 1.433 . S
C795 N797 1.384 . S
N796 C792 1.427 . S
N796 C793 1.384 . S
N797 C789 1.427 . S
N797 C795 1.384 . S
H798 C804 0.930 . S
H799 C808 0.930 . S
H800 C813 0.929 . S
H801 C811 0.929 . S
H802 C806 0.929 . S
H803 C812 0.929 . S
C804 H798 0.930 . S
C804 C805 1.367 . S
C804 C812 1.378 . S
C805 C804 1.367 . S
C805 C813 1.433 . S
C806 H802 0.929 . S
C806 C808 1.378 . S
C806 C810 1.350 . S
C807 C810 1.463 . S
C807 C812 1.350 . S
C807 N815 1.427 . S
C808 H799 0.930 . S
C808 C806 1.378 . S
C808 C809 1.367 . S
C809 C808 1.367 . S
C809 C811 1.433 . S
C810 C806 1.350 . S
C810 C807 1.463 . S
C810 N814 1.427 . S
C811 H801 0.929 . S
C811 C809 1.433 . S
C811 N814 1.384 . S
C812 H803 0.929 . S
C812 C804 1.378 . S
C812 C807 1.350 . S
C813 H800 0.929 . S
C813 C805 1.433 . S
C813 N815 1.384 . S
N814 C810 1.427 . S
N814 C811 1.384 . S
N815 C807 1.427 . S
N815 C813 1.384 . S
H816 C822 0.949 . S
H817 C826 0.930 . S
H818 C831 0.929 . S
H819 C829 0.929 . S
H820 C824 0.929 . S
H821 C830 0.929 . S
C822 H816 0.949 . S
C822 C823 1.367 . S
C822 C830 1.378 1_545 S
C823 C822 1.367 . S
C823 C831 1.433 . S
C824 H820 0.929 . S
C824 C826 1.378 . S
C824 C828 1.350 . S
C825 C828 1.463 . S
C825 C830 1.350 . S
C825 N833 1.427 1_565 S
C826 H817 0.930 . S
C826 C824 1.378 . S
C826 C827 1.367 . S
C827 C826 1.367 . S
C827 C829 1.433 . S
C828 C824 1.350 . S
C828 C825 1.463 . S
C828 N832 1.427 . S
C829 H819 0.929 . S
C829 C827 1.433 . S
C829 N832 1.384 . S
C830 H821 0.929 . S
C830 C822 1.378 1_565 S
C830 C825 1.350 . S
C831 H818 0.929 . S
C831 C823 1.433 . S
C831 N833 1.384 . S
N832 C828 1.427 . S
N832 C829 1.384 . S
N833 C825 1.427 1_545 S
N833 C831 1.384 . S
H834 C840 0.930 . S
H835 C844 0.930 . S
H836 C849 0.929 . S
H837 C847 0.929 . S
H838 C842 0.929 . S
H839 C848 0.929 . S
C840 H834 0.930 . S
C840 C841 1.367 . S
C840 C848 1.378 . S
C841 C840 1.367 . S
C841 C849 1.433 . S
C842 H838 0.929 . S
C842 C844 1.378 . S
C842 C846 1.350 . S
C843 C846 1.463 . S
C843 C848 1.350 . S
C843 N851 1.427 . S
C844 H835 0.930 . S
C844 C842 1.378 . S
C844 C845 1.367 . S
C845 C844 1.367 . S
C845 C847 1.433 . S
C846 C842 1.350 . S
C846 C843 1.463 . S
C846 N850 1.427 . S
C847 H837 0.929 . S
C847 C845 1.433 . S
C847 N850 1.384 . S
C848 H839 0.929 . S
C848 C840 1.378 . S
C848 C843 1.350 . S
C849 H836 0.929 . S
C849 C841 1.433 . S
C849 N851 1.384 . S
N850 C846 1.427 . S
N850 C847 1.384 . S
N851 C843 1.427 . S
N851 C849 1.384 . S
H852 C858 0.930 . S
H853 C862 0.930 . S
H854 C867 0.929 . S
H855 C865 0.929 . S
H856 C860 0.929 . S
H857 C866 0.929 . S
C858 H852 0.930 . S
C858 C859 1.367 . S
C858 C866 1.378 . S
C859 C858 1.367 . S
C859 C867 1.433 . S
C860 H856 0.929 . S
C860 C862 1.378 . S
C860 C864 1.350 . S
C861 C864 1.463 . S
C861 C866 1.350 . S
C861 N869 1.427 . S
C862 H853 0.930 . S
C862 C860 1.378 . S
C862 C863 1.367 . S
C863 C862 1.367 . S
C863 C865 1.433 . S
C864 C860 1.350 . S
C864 C861 1.463 . S
C864 N868 1.427 . S
C865 H855 0.929 . S
C865 C863 1.433 . S
C865 N868 1.384 . S
C866 H857 0.929 . S
C866 C858 1.378 . S
C866 C861 1.350 . S
C867 H854 0.929 . S
C867 C859 1.433 . S
C867 N869 1.384 . S
N868 C864 1.427 . S
N868 C865 1.384 . S
N869 C861 1.427 . S
N869 C867 1.384 . S
H870 C876 0.930 . S
H871 C880 0.930 . S
H872 C885 0.929 . S
H873 C883 0.929 . S
H874 C878 0.929 . S
H875 C884 0.929 . S
C876 H870 0.930 . S
C876 C877 1.367 . S
C876 C884 1.378 . S
C877 C876 1.367 . S
C877 C885 1.433 . S
C878 H874 0.929 . S
C878 C880 1.378 . S
C878 C882 1.350 . S
C879 C882 1.463 . S
C879 C884 1.350 . S
C879 N887 1.427 . S
C880 H871 0.930 . S
C880 C878 1.378 . S
C880 C881 1.367 . S
C881 C880 1.367 . S
C881 C883 1.433 . S
C882 C878 1.350 . S
C882 C879 1.463 . S
C882 N886 1.427 . S
C883 H873 0.929 . S
C883 C881 1.433 . S
C883 N886 1.384 . S
C884 H875 0.929 . S
C884 C876 1.378 . S
C884 C879 1.350 . S
C885 H872 0.929 . S
C885 C877 1.433 . S
C885 N887 1.384 . S
N886 C882 1.427 . S
N886 C883 1.384 . S
N887 C879 1.427 . S
N887 C885 1.384 . S
H888 C894 0.930 . S
H889 C898 0.930 . S
H890 C903 0.929 . S
H891 C901 0.929 . S
H892 C896 0.929 . S
H893 C902 0.929 . S
C894 H888 0.930 . S
C894 C895 1.367 . S
C894 C902 1.378 . S
C895 C894 1.367 . S
C895 C903 1.433 . S
C896 H892 0.929 . S
C896 C898 1.378 . S
C896 C900 1.350 . S
C897 C900 1.463 . S
C897 C902 1.350 . S
C897 N905 1.427 . S
C898 H889 0.930 . S
C898 C896 1.378 . S
C898 C899 1.367 . S
C899 C898 1.367 . S
C899 C901 1.433 . S
C900 C896 1.350 . S
C900 C897 1.463 . S
C900 N904 1.427 . S
C901 H891 0.929 . S
C901 C899 1.433 . S
C901 N904 1.384 . S
C902 H893 0.929 . S
C902 C894 1.378 . S
C902 C897 1.350 . S
C903 H890 0.929 . S
C903 C895 1.433 . S
C903 N905 1.384 . S
N904 C900 1.427 . S
N904 C901 1.384 . S
N905 C897 1.427 . S
N905 C903 1.384 . S
H906 C912 0.930 . S
H907 C916 0.930 . S
H908 C921 0.929 . S
H909 C919 0.929 . S
H910 C914 0.929 . S
H911 C920 0.929 . S
C912 H906 0.930 . S
C912 C913 1.367 . S
C912 C920 1.378 . S
C913 C912 1.367 . S
C913 C921 1.433 . S
C914 H910 0.929 . S
C914 C916 1.378 . S
C914 C918 1.350 . S
C915 C918 1.463 . S
C915 C920 1.350 . S
C915 N923 1.427 . S
C916 H907 0.930 . S
C916 C914 1.378 . S
C916 C917 1.367 . S
C917 C916 1.367 . S
C917 C919 1.433 . S
C918 C914 1.350 . S
C918 C915 1.463 . S
C918 N922 1.427 . S
C919 H909 0.929 . S
C919 C917 1.433 . S
C919 N922 1.384 . S
C920 H911 0.929 . S
C920 C912 1.378 . S
C920 C915 1.350 . S
C921 H908 0.929 . S
C921 C913 1.433 . S
C921 N923 1.384 . S
N922 C918 1.427 . S
N922 C919 1.384 . S
N923 C915 1.427 . S
N923 C921 1.384 . S
H924 C930 0.930 . S
H925 C934 0.930 . S
H926 C939 0.929 . S
H927 C937 0.929 . S
H928 C932 0.929 . S
H929 C938 0.929 . S
C930 H924 0.930 . S
C930 C931 1.367 . S
C930 C938 1.378 . S
C931 C930 1.367 . S
C931 C939 1.433 . S
C932 H928 0.929 . S
C932 C934 1.378 . S
C932 C936 1.350 . S
C933 C936 1.463 . S
C933 C938 1.350 . S
C933 N941 1.427 . S
C934 H925 0.930 . S
C934 C932 1.378 . S
C934 C935 1.367 . S
C935 C934 1.367 . S
C935 C937 1.433 . S
C936 C932 1.350 . S
C936 C933 1.463 . S
C936 N940 1.427 . S
C937 H927 0.929 . S
C937 C935 1.433 . S
C937 N940 1.384 . S
C938 H929 0.929 . S
C938 C930 1.378 . S
C938 C933 1.350 . S
C939 H926 0.929 . S
C939 C931 1.433 . S
C939 N941 1.384 . S
N940 C936 1.427 . S
N940 C937 1.384 . S
N941 C933 1.427 . S
N941 C939 1.384 . S
H942 C948 0.930 . S
H943 C952 0.930 . S
H944 C957 0.929 . S
H945 C955 0.929 . S
H946 C950 0.929 . S
H947 C956 0.929 . S
C948 H942 0.930 . S
C948 C949 1.367 . S
C948 C956 1.378 . S
C949 C948 1.367 . S
C949 C957 1.433 . S
C950 H946 0.929 . S
C950 C952 1.378 . S
C950 C954 1.350 . S
C951 C954 1.463 . S
C951 C956 1.350 . S
C951 N959 1.427 . S
C952 H943 0.930 . S
C952 C950 1.378 . S
C952 C953 1.367 . S
C953 C952 1.367 . S
C953 C955 1.433 . S
C954 C950 1.350 . S
C954 C951 1.463 . S
C954 N958 1.427 . S
C955 H945 0.929 . S
C955 C953 1.433 . S
C955 N958 1.384 . S
C956 H947 0.929 . S
C956 C948 1.378 . S
C956 C951 1.350 . S
C957 H944 0.929 . S
C957 C949 1.433 . S
C957 N959 1.384 . S
N958 C954 1.427 . S
N958 C955 1.384 . S
N959 C951 1.427 . S
N959 C957 1.384 . S
H960 C966 0.930 . S
H961 C970 0.930 1_545 S
H962 C975 0.929 . S
H963 C973 0.929 . S
H964 C968 0.929 . S
H965 C974 0.929 . S
C966 H960 0.930 . S
C966 C967 1.367 . S
C966 C974 1.378 . S
C967 C966 1.367 . S
C967 C975 1.433 . S
C968 H964 0.929 . S
C968 C970 1.378 . S
C968 C972 1.350 . S
C969 C972 1.463 . S
C969 C974 1.350 . S
C969 N977 1.427 . S
C970 H961 0.930 1_565 S
C970 C968 1.378 . S
C970 C971 1.367 . S
C971 C970 1.367 . S
C971 C973 1.433 . S
C972 C968 1.350 . S
C972 C969 1.463 . S
C972 N976 1.427 . S
C973 H963 0.929 . S
C973 C971 1.433 . S
C973 N976 1.384 . S
C974 H965 0.929 . S
C974 C966 1.378 . S
C974 C969 1.350 . S
C975 H962 0.929 . S
C975 C967 1.433 . S
C975 N977 1.384 . S
N976 C972 1.427 . S
N976 C973 1.384 . S
N977 C969 1.427 . S
N977 C975 1.384 . S
H978 C984 0.930 . S
H979 C988 0.930 . S
H980 C993 0.929 . S
H981 C991 0.929 . S
H982 C986 0.929 . S
H983 C992 0.929 . S
C984 H978 0.930 . S
C984 C985 1.367 . S
C984 C992 1.378 . S
C985 C984 1.367 . S
C985 C993 1.433 . S
C986 H982 0.929 . S
C986 C988 1.378 . S
C986 C990 1.350 . S
C987 C990 1.463 . S
C987 C992 1.350 . S
C987 N995 1.427 . S
C988 H979 0.930 . S
C988 C986 1.378 . S
C988 C989 1.367 . S
C989 C988 1.367 . S
C989 C991 1.433 . S
C990 C986 1.350 . S
C990 C987 1.463 . S
C990 N994 1.427 . S
C991 H981 0.929 . S
C991 C989 1.433 . S
C991 N994 1.384 . S
C992 H983 0.929 . S
C992 C984 1.378 . S
C992 C987 1.350 . S
C993 H980 0.929 . S
C993 C985 1.433 . S
C993 N995 1.384 . S
N994 C990 1.427 . S
N994 C991 1.384 . S
N995 C987 1.427 . S
N995 C993 1.384 . S
H996 C1002 0.930 . S
H997 C1006 0.930 . S
H998 C1011 0.929 . S
H999 C1009 0.929 . S
H1000 C1004 0.929 . S
H1001 C1010 0.929 . S
C1002 H996 0.930 . S
C1002 C1003 1.367 . S
C1002 C1010 1.378 1_554 S
C1003 C1002 1.367 . S
C1003 C1011 1.433 . S
C1004 H1000 0.929 . S
C1004 C1006 1.378 . S
C1004 C1008 1.350 . S
C1005 C1008 1.463 . S
C1005 C1010 1.350 . S
C1005 N1013 1.427 1_556 S
C1006 H997 0.930 . S
C1006 C1004 1.378 . S
C1006 C1007 1.367 . S
C1007 C1006 1.367 . S
C1007 C1009 1.433 . S
C1008 C1004 1.350 . S
C1008 C1005 1.463 . S
C1008 N1012 1.427 . S
C1009 H999 0.929 . S
C1009 C1007 1.433 . S
C1009 N1012 1.384 . S
C1010 H1001 0.929 . S
C1010 C1002 1.378 1_556 S
C1010 C1005 1.350 . S
C1011 H998 0.929 . S
C1011 C1003 1.433 . S
C1011 N1013 1.384 . S
N1012 C1008 1.427 . S
N1012 C1009 1.384 . S
N1013 C1005 1.427 1_554 S
N1013 C1011 1.384 . S
H1014 C1020 0.930 . S
H1015 C1024 0.930 . S
H1016 C1029 0.929 . S
H1017 C1027 0.929 . S
H1018 C1022 0.929 . S
H1019 C1028 0.929 . S
C1020 H1014 0.930 . S
C1020 C1021 1.367 . S
C1020 C1028 1.378 . S
C1021 C1020 1.367 . S
C1021 C1029 1.433 . S
C1022 H1018 0.929 . S
C1022 C1024 1.378 . S
C1022 C1026 1.350 . S
C1023 C1026 1.463 . S
C1023 C1028 1.350 . S
C1023 N1031 1.427 . S
C1024 H1015 0.930 . S
C1024 C1022 1.378 . S
C1024 C1025 1.367 . S
C1025 C1024 1.367 . S
C1025 C1027 1.433 . S
C1026 C1022 1.350 . S
C1026 C1023 1.463 . S
C1026 N1030 1.427 . S
C1027 H1017 0.929 . S
C1027 C1025 1.433 . S
C1027 N1030 1.384 . S
C1028 H1019 0.929 . S
C1028 C1020 1.378 . S
C1028 C1023 1.350 . S
C1029 H1016 0.929 . S
C1029 C1021 1.433 . S
C1029 N1031 1.384 . S
N1030 C1026 1.427 . S
N1030 C1027 1.384 . S
N1031 C1023 1.427 . S
N1031 C1029 1.384 . S
H1032 C1038 0.930 . S
H1033 C1042 0.930 . S
H1034 C1047 0.929 . S
H1035 C1045 0.929 . S
H1036 C1040 0.929 . S
H1037 C1046 0.929 . S
C1038 H1032 0.930 . S
C1038 C1039 1.367 1_554 S
C1038 C1046 1.378 . S
C1039 C1038 1.367 1_556 S
C1039 C1047 1.433 . S
C1040 H1036 0.929 . S
C1040 C1042 1.378 . S
C1040 C1044 1.350 . S
C1041 C1044 1.463 . S
C1041 C1046 1.350 . S
C1041 N1049 1.427 . S
C1042 H1033 0.930 . S
C1042 C1040 1.378 . S
C1042 C1043 1.367 . S
C1043 C1042 1.367 . S
C1043 C1045 1.433 . S
C1044 C1040 1.350 . S
C1044 C1041 1.463 . S
C1044 N1048 1.427 . S
C1045 H1035 0.929 . S
C1045 C1043 1.433 . S
C1045 N1048 1.384 . S
C1046 H1037 0.929 . S
C1046 C1038 1.378 . S
C1046 C1041 1.350 . S
C1047 H1034 0.929 . S
C1047 C1039 1.433 . S
C1047 N1049 1.384 1_556 S
N1048 C1044 1.427 . S
N1048 C1045 1.384 . S
N1049 C1041 1.427 . S
N1049 C1047 1.384 1_554 S
H1050 C1056 0.930 . S
H1051 C1060 0.930 . S
H1052 C1065 0.929 . S
H1053 C1063 0.929 . S
H1054 C1058 0.929 . S
H1055 C1064 0.929 . S
C1056 H1050 0.930 . S
C1056 C1057 1.367 . S
C1056 C1064 1.378 . S
C1057 C1056 1.367 . S
C1057 C1065 1.433 . S
C1058 H1054 0.929 . S
C1058 C1060 1.378 . S
C1058 C1062 1.350 . S
C1059 C1062 1.463 . S
C1059 C1064 1.350 . S
C1059 N1067 1.427 . S
C1060 H1051 0.930 . S
C1060 C1058 1.378 . S
C1060 C1061 1.367 . S
C1061 C1060 1.367 . S
C1061 C1063 1.433 . S
C1062 C1058 1.350 . S
C1062 C1059 1.463 . S
C1062 N1066 1.427 . S
C1063 H1053 0.929 . S
C1063 C1061 1.433 . S
C1063 N1066 1.384 . S
C1064 H1055 0.929 . S
C1064 C1056 1.378 . S
C1064 C1059 1.350 . S
C1065 H1052 0.929 . S
C1065 C1057 1.433 . S
C1065 N1067 1.384 . S
N1066 C1062 1.427 . S
N1066 C1063 1.384 . S
N1067 C1059 1.427 . S
N1067 C1065 1.384 . S
H1068 C1074 0.930 . S
H1069 C1078 0.930 . S
H1070 C1083 0.929 . S
H1071 C1081 0.929 . S
H1072 C1076 0.929 . S
H1073 C1082 0.929 . S
C1074 H1068 0.930 . S
C1074 C1075 1.367 . S
C1074 C1082 1.378 . S
C1075 C1074 1.367 . S
C1075 C1083 1.433 . S
C1076 H1072 0.929 . S
C1076 C1078 1.378 . S
C1076 C1080 1.350 . S
C1077 C1080 1.463 . S
C1077 C1082 1.350 . S
C1077 N1085 1.427 . S
C1078 H1069 0.930 . S
C1078 C1076 1.378 . S
C1078 C1079 1.367 . S
C1079 C1078 1.367 . S
C1079 C1081 1.433 . S
C1080 C1076 1.350 . S
C1080 C1077 1.463 . S
C1080 N1084 1.427 . S
C1081 H1071 0.929 . S
C1081 C1079 1.433 . S
C1081 N1084 1.384 . S
C1082 H1073 0.929 . S
C1082 C1074 1.378 . S
C1082 C1077 1.350 . S
C1083 H1070 0.929 . S
C1083 C1075 1.433 . S
C1083 N1085 1.384 . S
N1084 C1080 1.427 . S
N1084 C1081 1.384 . S
N1085 C1077 1.427 . S
N1085 C1083 1.384 . S
H1086 C1092 0.930 . S
H1087 C1096 0.930 . S
H1088 C1101 0.929 . S
H1089 C1099 0.929 . S
H1090 C1094 0.929 . S
H1091 C1100 0.929 . S
C1092 H1086 0.930 . S
C1092 C1093 1.367 . S
C1092 C1100 1.378 . S
C1093 C1092 1.367 . S
C1093 C1101 1.433 . S
C1094 H1090 0.929 . S
C1094 C1096 1.378 . S
C1094 C1098 1.350 . S
C1095 C1098 1.463 . S
C1095 C1100 1.350 . S
C1095 N1103 1.427 . S
C1096 H1087 0.930 . S
C1096 C1094 1.378 . S
C1096 C1097 1.367 . S
C1097 C1096 1.367 . S
C1097 C1099 1.433 . S
C1098 C1094 1.350 . S
C1098 C1095 1.463 . S
C1098 N1102 1.427 . S
C1099 H1089 0.929 . S
C1099 C1097 1.433 . S
C1099 N1102 1.384 . S
C1100 H1091 0.929 . S
C1100 C1092 1.378 . S
C1100 C1095 1.350 . S
C1101 H1088 0.929 . S
C1101 C1093 1.433 . S
C1101 N1103 1.384 . S
N1102 C1098 1.427 . S
N1102 C1099 1.384 . S
N1103 C1095 1.427 . S
N1103 C1101 1.384 . S
H1104 C1110 0.930 . S
H1105 C1114 0.930 . S
H1106 C1119 0.929 . S
H1107 C1117 0.929 . S
H1108 C1112 0.929 . S
H1109 C1118 0.929 . S
C1110 H1104 0.930 . S
C1110 C1111 1.367 . S
C1110 C1118 1.378 . S
C1111 C1110 1.367 . S
C1111 C1119 1.433 . S
C1112 H1108 0.929 . S
C1112 C1114 1.378 . S
C1112 C1116 1.350 . S
C1113 C1116 1.463 . S
C1113 C1118 1.350 . S
C1113 N1121 1.427 . S
C1114 H1105 0.930 . S
C1114 C1112 1.378 . S
C1114 C1115 1.367 . S
C1115 C1114 1.367 . S
C1115 C1117 1.433 . S
C1116 C1112 1.350 . S
C1116 C1113 1.463 . S
C1116 N1120 1.427 . S
C1117 H1107 0.929 . S
C1117 C1115 1.433 . S
C1117 N1120 1.384 . S
C1118 H1109 0.929 . S
C1118 C1110 1.378 . S
C1118 C1113 1.350 . S
C1119 H1106 0.929 . S
C1119 C1111 1.433 . S
C1119 N1121 1.384 . S
N1120 C1116 1.427 . S
N1120 C1117 1.384 . S
N1121 C1113 1.427 . S
N1121 C1119 1.384 . S
H1122 C1128 0.930 . S
H1123 C1132 0.930 . S
H1124 C1137 0.929 . S
H1125 C1135 0.929 . S
H1126 C1130 0.929 . S
H1127 C1136 0.929 . S
C1128 H1122 0.930 . S
C1128 C1129 1.367 . S
C1128 C1136 1.378 . S
C1129 C1128 1.367 . S
C1129 C1137 1.433 . S
C1130 H1126 0.929 . S
C1130 C1132 1.378 . S
C1130 C1134 1.350 . S
C1131 C1134 1.463 . S
C1131 C1136 1.350 . S
C1131 N1139 1.427 . S
C1132 H1123 0.930 . S
C1132 C1130 1.378 . S
C1132 C1133 1.367 . S
C1133 C1132 1.367 . S
C1133 C1135 1.433 . S
C1134 C1130 1.350 . S
C1134 C1131 1.463 . S
C1134 N1138 1.427 . S
C1135 H1125 0.929 . S
C1135 C1133 1.433 . S
C1135 N1138 1.384 . S
C1136 H1127 0.929 . S
C1136 C1128 1.378 . S
C1136 C1131 1.350 . S
C1137 H1124 0.929 . S
C1137 C1129 1.433 . S
C1137 N1139 1.384 . S
N1138 C1134 1.427 . S
N1138 C1135 1.384 . S
N1139 C1131 1.427 . S
N1139 C1137 1.384 . S
H1140 C1146 0.930 . S
H1141 C1150 0.930 . S
H1142 C1155 0.929 1_655 S
H1143 C1153 0.929 . S
H1144 C1148 0.929 . S
H1145 C1154 0.929 . S
C1146 H1140 0.930 . S
C1146 C1147 1.367 . S
C1146 C1154 1.378 . S
C1147 C1146 1.367 . S
C1147 C1155 1.433 . S
C1148 H1144 0.929 . S
C1148 C1150 1.378 . S
C1148 C1152 1.350 . S
C1149 C1152 1.463 . S
C1149 C1154 1.350 . S
C1149 N1157 1.427 . S
C1150 H1141 0.930 . S
C1150 C1148 1.378 . S
C1150 C1151 1.367 . S
C1151 C1150 1.367 . S
C1151 C1153 1.433 . S
C1152 C1148 1.350 . S
C1152 C1149 1.463 . S
C1152 N1156 1.427 . S
C1153 H1143 0.929 . S
C1153 C1151 1.433 . S
C1153 N1156 1.384 . S
C1154 H1145 0.929 . S
C1154 C1146 1.378 . S
C1154 C1149 1.350 . S
C1155 H1142 0.929 1_455 S
C1155 C1147 1.433 . S
C1155 N1157 1.384 . S
N1156 C1152 1.427 . S
N1156 C1153 1.384 . S
N1157 C1149 1.427 . S
N1157 C1155 1.384 . S
H1158 C1164 0.930 . S
H1159 C1168 0.930 . S
H1160 C1173 0.929 . S
H1161 C1171 0.929 . S
H1162 C1166 0.929 . S
H1163 C1172 0.929 . S
C1164 H1158 0.930 . S
C1164 C1165 1.367 . S
C1164 C1172 1.378 . S
C1165 C1164 1.367 . S
C1165 C1173 1.433 . S
C1166 H1162 0.929 . S
C1166 C1168 1.378 . S
C1166 C1170 1.350 . S
C1167 C1170 1.463 . S
C1167 C1172 1.350 . S
C1167 N1175 1.427 . S
C1168 H1159 0.930 . S
C1168 C1166 1.378 . S
C1168 C1169 1.367 . S
C1169 C1168 1.367 . S
C1169 C1171 1.433 . S
C1170 C1166 1.350 . S
C1170 C1167 1.463 . S
C1170 N1174 1.427 . S
C1171 H1161 0.929 . S
C1171 C1169 1.433 . S
C1171 N1174 1.384 . S
C1172 H1163 0.929 . S
C1172 C1164 1.378 . S
C1172 C1167 1.350 . S
C1173 H1160 0.929 . S
C1173 C1165 1.433 . S
C1173 N1175 1.384 . S
N1174 C1170 1.427 . S
N1174 C1171 1.384 . S
N1175 C1167 1.427 . S
N1175 C1173 1.384 . S
H1176 C1182 0.930 . S
H1177 C1186 0.930 . S
H1178 C1191 0.929 . S
H1179 C1189 0.929 . S
H1180 C1184 0.929 . S
H1181 C1190 0.929 . S
C1182 H1176 0.930 . S
C1182 C1183 1.367 . S
C1182 C1190 1.378 . S
C1183 C1182 1.367 . S
C1183 C1191 1.433 . S
C1184 H1180 0.929 . S
C1184 C1186 1.378 . S
C1184 C1188 1.350 . S
C1185 C1188 1.463 . S
C1185 C1190 1.350 . S
C1185 N1193 1.427 . S
C1186 H1177 0.930 . S
C1186 C1184 1.378 . S
C1186 C1187 1.367 . S
C1187 C1186 1.367 . S
C1187 C1189 1.433 . S
C1188 C1184 1.350 . S
C1188 C1185 1.463 . S
C1188 N1192 1.427 . S
C1189 H1179 0.929 . S
C1189 C1187 1.433 . S
C1189 N1192 1.384 . S
C1190 H1181 0.929 . S
C1190 C1182 1.378 . S
C1190 C1185 1.350 . S
C1191 H1178 0.929 . S
C1191 C1183 1.433 . S
C1191 N1193 1.384 . S
N1192 C1188 1.427 . S
N1192 C1189 1.384 . S
N1193 C1185 1.427 . S
N1193 C1191 1.384 . S
H1194 C1200 0.930 . S
H1195 C1204 0.930 . S
H1196 C1209 0.929 . S
H1197 C1207 0.929 . S
H1198 C1202 0.929 . S
H1199 C1208 0.929 . S
C1200 H1194 0.930 . S
C1200 C1201 1.367 . S
C1200 C1208 1.378 . S
C1201 C1200 1.367 . S
C1201 C1209 1.433 . S
C1202 H1198 0.929 . S
C1202 C1204 1.378 . S
C1202 C1206 1.350 . S
C1203 C1206 1.463 . S
C1203 C1208 1.350 . S
C1203 N1211 1.427 . S
C1204 H1195 0.930 . S
C1204 C1202 1.378 . S
C1204 C1205 1.367 . S
C1205 C1204 1.367 . S
C1205 C1207 1.433 . S
C1206 C1202 1.350 . S
C1206 C1203 1.463 . S
C1206 N1210 1.427 . S
C1207 H1197 0.929 . S
C1207 C1205 1.433 . S
C1207 N1210 1.384 . S
C1208 H1199 0.929 . S
C1208 C1200 1.378 . S
C1208 C1203 1.350 . S
C1209 H1196 0.929 . S
C1209 C1201 1.433 . S
C1209 N1211 1.384 . S
N1210 C1206 1.427 . S
N1210 C1207 1.384 . S
N1211 C1203 1.427 . S
N1211 C1209 1.384 . S
H1212 C1218 0.930 . S
H1213 C1222 0.930 . S
H1214 C1227 0.929 . S
H1215 C1225 0.929 . S
H1216 C1220 0.929 . S
H1217 C1226 0.929 . S
C1218 H1212 0.930 . S
C1218 C1219 1.367 . S
C1218 C1226 1.378 1_655 S
C1219 C1218 1.367 . S
C1219 C1227 1.433 1_655 S
C1220 H1216 0.929 . S
C1220 C1222 1.378 . S
C1220 C1224 1.350 . S
C1221 C1224 1.463 . S
C1221 C1226 1.350 . S
C1221 N1229 1.427 . S
C1222 H1213 0.930 . S
C1222 C1220 1.378 . S
C1222 C1223 1.367 . S
C1223 C1222 1.367 . S
C1223 C1225 1.433 . S
C1224 C1220 1.350 . S
C1224 C1221 1.463 . S
C1224 N1228 1.427 . S
C1225 H1215 0.929 . S
C1225 C1223 1.433 . S
C1225 N1228 1.384 . S
C1226 H1217 0.929 . S
C1226 C1218 1.378 1_455 S
C1226 C1221 1.350 . S
C1227 H1214 0.929 . S
C1227 C1219 1.433 1_455 S
C1227 N1229 1.384 . S
N1228 C1224 1.427 . S
N1228 C1225 1.384 . S
N1229 C1221 1.427 . S
N1229 C1227 1.384 . S
H1230 C1236 0.930 . S
H1231 C1240 0.930 . S
H1232 C1245 0.929 . S
H1233 C1243 0.929 . S
H1234 C1238 0.929 . S
H1235 C1244 0.929 . S
C1236 H1230 0.930 . S
C1236 C1237 1.367 . S
C1236 C1244 1.378 . S
C1237 C1236 1.367 . S
C1237 C1245 1.433 . S
C1238 H1234 0.929 . S
C1238 C1240 1.378 . S
C1238 C1242 1.350 . S
C1239 C1242 1.463 . S
C1239 C1244 1.350 . S
C1239 N1247 1.427 . S
C1240 H1231 0.930 . S
C1240 C1238 1.378 . S
C1240 C1241 1.367 . S
C1241 C1240 1.367 . S
C1241 C1243 1.433 . S
C1242 C1238 1.350 . S
C1242 C1239 1.463 . S
C1242 N1246 1.427 . S
C1243 H1233 0.929 . S
C1243 C1241 1.433 . S
C1243 N1246 1.384 . S
C1244 H1235 0.929 . S
C1244 C1236 1.378 . S
C1244 C1239 1.350 . S
C1245 H1232 0.929 . S
C1245 C1237 1.433 . S
C1245 N1247 1.384 . S
N1246 C1242 1.427 . S
N1246 C1243 1.384 . S
N1247 C1239 1.427 . S
N1247 C1245 1.384 . S
H1248 C1254 0.930 . S
H1249 C1258 0.930 . S
H1250 C1263 0.929 . S
H1251 C1261 0.929 . S
H1252 C1256 0.929 . S
H1253 C1262 0.929 . S
C1254 H1248 0.930 . S
C1254 C1255 1.367 . S
C1254 C1262 1.378 . S
C1255 C1254 1.367 . S
C1255 C1263 1.433 . S
C1256 H1252 0.929 . S
C1256 C1258 1.378 . S
C1256 C1260 1.350 . S
C1257 C1260 1.463 . S
C1257 C1262 1.350 . S
C1257 N1265 1.427 . S
C1258 H1249 0.930 . S
C1258 C1256 1.378 . S
C1258 C1259 1.367 . S
C1259 C1258 1.367 . S
C1259 C1261 1.433 . S
C1260 C1256 1.350 . S
C1260 C1257 1.463 . S
C1260 N1264 1.427 . S
C1261 H1251 0.929 . S
C1261 C1259 1.433 . S
C1261 N1264 1.384 . S
C1262 H1253 0.929 . S
C1262 C1254 1.378 . S
C1262 C1257 1.350 . S
C1263 H1250 0.929 . S
C1263 C1255 1.433 . S
C1263 N1265 1.384 . S
N1264 C1260 1.427 . S
N1264 C1261 1.384 . S
N1265 C1257 1.427 . S
N1265 C1263 1.384 . S
H1266 C1272 0.930 1_565 S
H1267 C1276 0.930 . S
H1268 C1281 0.929 . S
H1269 C1279 0.929 . S
H1270 C1274 0.929 . S
H1271 C1280 0.929 . S
C1272 H1266 0.930 1_545 S
C1272 C1273 1.367 . S
C1272 C1280 1.378 . S
C1273 C1272 1.367 . S
C1273 C1281 1.433 . S
C1274 H1270 0.929 . S
C1274 C1276 1.378 . S
C1274 C1278 1.350 . S
C1275 C1278 1.463 . S
C1275 C1280 1.350 . S
C1275 N1283 1.427 . S
C1276 H1267 0.930 . S
C1276 C1274 1.378 . S
C1276 C1277 1.367 . S
C1277 C1276 1.367 . S
C1277 C1279 1.433 . S
C1278 C1274 1.350 . S
C1278 C1275 1.463 . S
C1278 N1282 1.427 . S
C1279 H1269 0.929 . S
C1279 C1277 1.433 . S
C1279 N1282 1.384 . S
C1280 H1271 0.929 . S
C1280 C1272 1.378 . S
C1280 C1275 1.350 . S
C1281 H1268 0.929 . S
C1281 C1273 1.433 . S
C1281 N1283 1.384 . S
N1282 C1278 1.427 . S
N1282 C1279 1.384 . S
N1283 C1275 1.427 . S
N1283 C1281 1.384 . S
H1284 C1290 0.930 . S
H1285 C1294 0.930 . S
H1286 C1299 0.929 . S
H1287 C1297 0.929 . S
H1288 C1292 0.929 . S
H1289 C1298 0.929 . S
C1290 H1284 0.930 . S
C1290 C1291 1.367 . S
C1290 C1298 1.378 . S
C1291 C1290 1.367 . S
C1291 C1299 1.433 . S
C1292 H1288 0.929 . S
C1292 C1294 1.378 . S
C1292 C1296 1.350 . S
C1293 C1296 1.463 . S
C1293 C1298 1.350 . S
C1293 N1301 1.427 . S
C1294 H1285 0.930 . S
C1294 C1292 1.378 . S
C1294 C1295 1.367 . S
C1295 C1294 1.367 . S
C1295 C1297 1.433 . S
C1296 C1292 1.350 . S
C1296 C1293 1.463 . S
C1296 N1300 1.427 . S
C1297 H1287 0.929 . S
C1297 C1295 1.433 . S
C1297 N1300 1.384 . S
C1298 H1289 0.929 . S
C1298 C1290 1.378 . S
C1298 C1293 1.350 . S
C1299 H1286 0.929 . S
C1299 C1291 1.433 . S
C1299 N1301 1.384 . S
N1300 C1296 1.427 . S
N1300 C1297 1.384 . S
N1301 C1293 1.427 . S
N1301 C1299 1.384 . S
H1302 C1308 0.930 . S
H1303 C1312 0.930 . S
H1304 C1317 0.929 . S
H1305 C1315 0.929 . S
H1306 C1310 0.929 . S
H1307 C1316 0.929 . S
C1308 H1302 0.930 . S
C1308 C1309 1.367 . S
C1308 C1316 1.378 . S
C1309 C1308 1.367 . S
C1309 C1317 1.433 . S
C1310 H1306 0.929 . S
C1310 C1312 1.378 . S
C1310 C1314 1.350 . S
C1311 C1314 1.463 . S
C1311 C1316 1.350 1_565 S
C1311 N1319 1.427 . S
C1312 H1303 0.930 . S
C1312 C1310 1.378 . S
C1312 C1313 1.367 . S
C1313 C1312 1.367 . S
C1313 C1315 1.433 . S
C1314 C1310 1.350 . S
C1314 C1311 1.463 . S
C1314 N1318 1.427 . S
C1315 H1305 0.929 . S
C1315 C1313 1.433 . S
C1315 N1318 1.384 . S
C1316 H1307 0.929 . S
C1316 C1308 1.378 . S
C1316 C1311 1.350 1_545 S
C1317 H1304 0.929 . S
C1317 C1309 1.433 . S
C1317 N1319 1.384 1_545 S
N1318 C1314 1.427 . S
N1318 C1315 1.384 . S
N1319 C1311 1.427 . S
N1319 C1317 1.384 1_565 S
H1320 C1326 0.930 . S
H1321 C1330 0.930 . S
H1322 C1335 0.929 . S
H1323 C1333 0.929 . S
H1324 C1328 0.929 . S
H1325 C1334 0.929 . S
C1326 H1320 0.930 . S
C1326 C1327 1.367 . S
C1326 C1334 1.378 . S
C1327 C1326 1.367 . S
C1327 C1335 1.433 . S
C1328 H1324 0.929 . S
C1328 C1330 1.378 . S
C1328 C1332 1.350 . S
C1329 C1332 1.463 . S
C1329 C1334 1.350 . S
C1329 N1337 1.427 . S
C1330 H1321 0.930 . S
C1330 C1328 1.378 . S
C1330 C1331 1.367 . S
C1331 C1330 1.367 . S
C1331 C1333 1.433 . S
C1332 C1328 1.350 . S
C1332 C1329 1.463 . S
C1332 N1336 1.427 . S
C1333 H1323 0.929 . S
C1333 C1331 1.433 . S
C1333 N1336 1.384 . S
C1334 H1325 0.929 . S
C1334 C1326 1.378 . S
C1334 C1329 1.350 . S
C1335 H1322 0.929 . S
C1335 C1327 1.433 . S
C1335 N1337 1.384 . S
N1336 C1332 1.427 . S
N1336 C1333 1.384 . S
N1337 C1329 1.427 . S
N1337 C1335 1.384 . S
H1338 C1344 0.930 . S
H1339 C1348 0.930 . S
H1340 C1353 0.929 . S
H1341 C1351 0.929 . S
H1342 C1346 0.929 . S
H1343 C1352 0.929 . S
C1344 H1338 0.930 . S
C1344 C1345 1.367 . S
C1344 C1352 1.378 . S
C1345 C1344 1.367 . S
C1345 C1353 1.433 . S
C1346 H1342 0.929 . S
C1346 C1348 1.378 . S
C1346 C1350 1.350 . S
C1347 C1350 1.463 . S
C1347 C1352 1.350 . S
C1347 N1355 1.427 . S
C1348 H1339 0.930 . S
C1348 C1346 1.378 . S
C1348 C1349 1.367 . S
C1349 C1348 1.367 . S
C1349 C1351 1.433 . S
C1350 C1346 1.350 . S
C1350 C1347 1.463 . S
C1350 N1354 1.427 . S
C1351 H1341 0.929 . S
C1351 C1349 1.433 . S
C1351 N1354 1.384 . S
C1352 H1343 0.929 . S
C1352 C1344 1.378 . S
C1352 C1347 1.350 . S
C1353 H1340 0.929 . S
C1353 C1345 1.433 . S
C1353 N1355 1.384 . S
N1354 C1350 1.427 . S
N1354 C1351 1.384 . S
N1355 C1347 1.427 . S
N1355 C1353 1.384 . S
H1356 C1362 0.930 . S
H1357 C1366 0.930 . S
H1358 C1371 0.929 . S
H1359 C1369 0.929 . S
H1360 C1364 0.929 . S
H1361 C1370 0.929 . S
C1362 H1356 0.930 . S
C1362 C1363 1.367 . S
C1362 C1370 1.378 . S
C1363 C1362 1.367 . S
C1363 C1371 1.433 . S
C1364 H1360 0.929 . S
C1364 C1366 1.378 . S
C1364 C1368 1.350 . S
C1365 C1368 1.463 . S
C1365 C1370 1.350 . S
C1365 N1373 1.427 . S
C1366 H1357 0.930 . S
C1366 C1364 1.378 . S
C1366 C1367 1.367 . S
C1367 C1366 1.367 . S
C1367 C1369 1.433 . S
C1368 C1364 1.350 . S
C1368 C1365 1.463 . S
C1368 N1372 1.427 . S
C1369 H1359 0.929 . S
C1369 C1367 1.433 . S
C1369 N1372 1.384 . S
C1370 H1361 0.929 . S
C1370 C1362 1.378 . S
C1370 C1365 1.350 . S
C1371 H1358 0.929 . S
C1371 C1363 1.433 . S
C1371 N1373 1.384 . S
N1372 C1368 1.427 . S
N1372 C1369 1.384 . S
N1373 C1365 1.427 . S
N1373 C1371 1.384 . S
H1374 C1380 0.930 . S
H1375 C1384 0.930 . S
H1376 C1389 0.929 . S
H1377 C1387 0.929 . S
H1378 C1382 0.929 . S
H1379 C1388 0.929 . S
C1380 H1374 0.930 . S
C1380 C1381 1.367 . S
C1380 C1388 1.378 . S
C1381 C1380 1.367 . S
C1381 C1389 1.433 . S
C1382 H1378 0.929 . S
C1382 C1384 1.378 . S
C1382 C1386 1.350 . S
C1383 C1386 1.463 . S
C1383 C1388 1.350 . S
C1383 N1391 1.427 . S
C1384 H1375 0.930 . S
C1384 C1382 1.378 . S
C1384 C1385 1.367 . S
C1385 C1384 1.367 . S
C1385 C1387 1.433 . S
C1386 C1382 1.350 . S
C1386 C1383 1.463 . S
C1386 N1390 1.427 . S
C1387 H1377 0.929 . S
C1387 C1385 1.433 . S
C1387 N1390 1.384 . S
C1388 H1379 0.929 . S
C1388 C1380 1.378 . S
C1388 C1383 1.350 . S
C1389 H1376 0.929 . S
C1389 C1381 1.433 . S
C1389 N1391 1.384 . S
N1390 C1386 1.427 . S
N1390 C1387 1.384 . S
N1391 C1383 1.427 . S
N1391 C1389 1.384 . S
C539 C524 1.245 . S
C535 N12 1.412 . S
C553 C30 1.465 . S
C557 C453 1.185 . S
C571 C62 1.353 . S
C575 C482 1.245 . S
C593 C495 1.155 . S
C589 N81 1.378 . S
C607 C39 1.360 . S
C611 C516 1.169 . S
C629 C461 1.266 . S
C625 C53 1.450 . S
C647 C474 1.176 . S
C643 N71 1.358 1_554 S
C665 C503 1.247 . S
C661 N2 1.321 . S
C679 N94 1.407 . S
C683 C505 1.232 . S
C701 C519 1.228 . S
C697 C131 1.378 . S
C719 C463 1.196 . S
C715 N140 1.327 . S
C737 C477 1.204 . S
C733 C177 1.355 . S
C751 C108 1.323 . S
C755 C456 1.205 . S
C769 N117 1.365 . S
C773 C484 1.218 . S
C787 C154 1.363 . S
C791 C498 1.183 . S
C809 C526 1.216 . S
C805 N163 1.360 . S
C827 C335 1.224 . S
C823 N173 1.386 . S
C845 C316 1.166 . S
C841 C191 1.393 . S
C863 C330 1.205 . S
C859 N219 1.382 . S
C881 C351 1.266 . S
C877 C237 1.419 . S
C895 N104 1.378 . S
C899 C337 1.212 . S
C913 N127 1.363 . S
C917 C288 1.209 . S
C931 C214 1.441 . S
C935 C348 1.236 . S
C949 C260 1.443 . S
C953 C314 1.243 . S
C971 C377 1.259 . S
C967 N48 1.371 . S
C989 C390 1.156 . S
C985 C76 1.432 . S
C1003 C7 1.390 . S
C1007 C419 1.251 . S
C1021 N35 1.345 . S
C1025 C432 1.161 . S
C1043 C369 1.165 . S
C1039 C85 1.389 . S
C1061 C398 1.270 . S
C1057 C16 1.416 . S
C1075 N25 1.389 . S
C1079 C411 1.177 . S
C1097 C440 1.241 . S
C1093 N58 1.363 . S
C1111 N255 1.414 . S
C1115 C442 1.235 . S
C1129 C200 1.357 . S
C1133 C372 1.209 . S
C1151 C400 1.217 . S
C1147 N209 1.343 1_455 S
C1165 C246 1.326 . S
C1169 C414 1.188 . S
C1187 C393 1.253 . S
C1183 C269 1.366 . S
C1201 N186 1.361 . S
C1205 C421 1.209 . S
C1223 C435 1.230 . S
C1219 C223 1.398 . S
C1241 C379 1.202 . S
C1237 N232 1.351 . S
C1259 C295 1.231 . S
C1255 N242 1.378 . S
C1277 C358 1.211 . S
C1273 C122 1.427 1_545 S
C1291 N150 1.380 . S
C1295 C285 1.182 . S
C1313 C309 1.295 . S
C1309 C168 1.448 . S
C1331 C293 1.244 . S
C1327 N265 1.370 . S
C1345 N196 1.372 . S
C1349 C327 1.132 . S
C1363 C145 1.398 . S
C1367 C306 1.186 . S
C1381 C99 1.425 . S
C1385 C356 1.244 . S
