# Generated by pormake.
# Topology zzz, (3,6)-cn, num edge types: 1
# Building blocks:
#     Node 0, Type 0, BuildingBlock: KAKCAD_clean_linker_0, # of connection points: 3
#     Node 1, Type 0, BuildingBlock: KAKCAD_clean_linker_0, # of connection points: 3
#     Node 2, Type 0, BuildingBlock: KAKCAD_clean_linker_0, # of connection points: 3
#     Node 3, Type 0, BuildingBlock: KAKCAD_clean_linker_0, # of connection points: 3
#     Node 4, Type 0, BuildingBlock: KAKCAD_clean_linker_0, # of connection points: 3
#     Node 5, Type 0, BuildingBlock: KAKCAD_clean_linker_0, # of connection points: 3
#     Node 6, Type 0, BuildingBlock: KAKCAD_clean_linker_0, # of connection points: 3
#     Node 7, Type 0, BuildingBlock: KAKCAD_clean_linker_0, # of connection points: 3
#     Node 8, Type 1, BuildingBlock: VOLQOD_clean_sbu_1, # of connection points: 6
#     Node 9, Type 1, BuildingBlock: VOLQOD_clean_sbu_1, # of connection points: 6
#     Node 10, Type 1, BuildingBlock: VOLQOD_clean_sbu_1, # of connection points: 6
#     Node 11, Type 1, BuildingBlock: VOLQOD_clean_sbu_1, # of connection points: 6
#     Edge 12, Type (0, 1), BuildingBlock: ZUJKAS_clean_linker_0, # of connection points: 2
#     Edge 13, Type (0, 1), BuildingBlock: ZUJKAS_clean_linker_0, # of connection points: 2
#     Edge 14, Type (0, 1), BuildingBlock: ZUJKAS_clean_linker_0, # of connection points: 2
#     Edge 15, Type (0, 1), BuildingBlock: ZUJKAS_clean_linker_0, # of connection points: 2
#     Edge 16, Type (0, 1), BuildingBlock: ZUJKAS_clean_linker_0, # of connection points: 2
#     Edge 17, Type (0, 1), BuildingBlock: ZUJKAS_clean_linker_0, # of connection points: 2
#     Edge 18, Type (0, 1), BuildingBlock: ZUJKAS_clean_linker_0, # of connection points: 2
#     Edge 19, Type (0, 1), BuildingBlock: ZUJKAS_clean_linker_0, # of connection points: 2
#     Edge 20, Type (0, 1), BuildingBlock: ZUJKAS_clean_linker_0, # of connection points: 2
#     Edge 21, Type (0, 1), BuildingBlock: ZUJKAS_clean_linker_0, # of connection points: 2
#     Edge 22, Type (0, 1), BuildingBlock: ZUJKAS_clean_linker_0, # of connection points: 2
#     Edge 23, Type (0, 1), BuildingBlock: ZUJKAS_clean_linker_0, # of connection points: 2
#     Edge 24, Type (0, 1), BuildingBlock: ZUJKAS_clean_linker_0, # of connection points: 2
#     Edge 25, Type (0, 1), BuildingBlock: ZUJKAS_clean_linker_0, # of connection points: 2
#     Edge 26, Type (0, 1), BuildingBlock: ZUJKAS_clean_linker_0, # of connection points: 2
#     Edge 27, Type (0, 1), BuildingBlock: ZUJKAS_clean_linker_0, # of connection points: 2
#     Edge 28, Type (0, 1), BuildingBlock: ZUJKAS_clean_linker_0, # of connection points: 2
#     Edge 29, Type (0, 1), BuildingBlock: ZUJKAS_clean_linker_0, # of connection points: 2
#     Edge 30, Type (0, 1), BuildingBlock: ZUJKAS_clean_linker_0, # of connection points: 2
#     Edge 31, Type (0, 1), BuildingBlock: ZUJKAS_clean_linker_0, # of connection points: 2
#     Edge 32, Type (0, 1), BuildingBlock: ZUJKAS_clean_linker_0, # of connection points: 2
#     Edge 33, Type (0, 1), BuildingBlock: ZUJKAS_clean_linker_0, # of connection points: 2
#     Edge 34, Type (0, 1), BuildingBlock: ZUJKAS_clean_linker_0, # of connection points: 2
#     Edge 35, Type (0, 1), BuildingBlock: ZUJKAS_clean_linker_0, # of connection points: 2
# Relax obj value: 0.359
# Max RMSD: 0.257
# Mean RMSD: 0.208
data_MOF--net-zzz--node1-VOLQOD_clean_sbu_1--node2-KAKCAD_clean_linker_0--edge1-ZUJKAS_clean_linker_0
_symmetry_space_group_name_H-M    P1
_symmetry_Int_Tables_number       1
_symmetry_cell_setting            triclinic
loop_
_symmetry_equiv_pos_as_xyz
'x, y, z'
_cell_length_a     72.540665
_cell_length_b     71.19026
_cell_length_c     28.275011
_cell_angle_alpha  90.251787
_cell_angle_beta   90.155852
_cell_angle_gamma 92.115213
loop_
_atom_site_label
_atom_site_type_symbol
_atom_site_fract_x
_atom_site_fract_y
_atom_site_fract_z
_atom_type_partial_charge
C0 C 0.81595 0.45195 -0.00077 0.0
C1 C 0.82897 0.43908 0.01428 0.0
C2 C 0.80243 0.45804 0.0301 0.0
C3 C 0.80149 0.45132 0.07672 0.0
C4 C 0.81393 0.43774 0.09108 0.0
C5 C 0.82754 0.4317 0.0602 0.0
C6 C 0.78843 0.45946 0.11096 0.0
C7 C 0.77067 0.46417 0.09669 0.0
C8 C 0.7589 0.47349 0.12758 0.0
C9 C 0.76493 0.47795 0.17378 0.0
C10 C 0.78266 0.47312 0.18872 0.0
C11 C 0.79421 0.46385 0.15718 0.0
C12 C 0.79018 0.4788 0.23563 0.0
C13 C 0.79137 0.49784 0.24893 0.0
C14 C 0.79889 0.46554 0.26377 0.0
C15 C 0.8096 0.4713 0.30268 0.0
C16 C 0.81195 0.49048 0.31413 0.0
C17 C 0.74055 0.47876 0.11007 0.0
C18 C 0.7392 0.48858 0.06731 0.0
C19 C 0.72433 0.47242 0.13288 0.0
C20 C 0.70709 0.47498 0.11184 0.0
C21 C 0.7058 0.48417 0.06803 0.0
C22 C 0.72203 0.49133 0.04663 0.0
C23 C 0.80224 0.50364 0.28773 0.0
H24 H 0.81649 0.45767 0.96381 0.0
H25 H 0.7932 0.46862 0.01791 0.0
H26 H 0.8134 0.43207 0.12655 0.0
H27 H 0.8374 0.42183 0.07297 0.0
H28 H 0.76593 0.46059 0.06127 0.0
H29 H 0.80816 0.46093 0.16805 0.0
H30 H 0.75604 0.48539 0.19761 0.0
H31 H 0.7849 0.50834 0.22755 0.0
H32 H 0.7982 0.45078 0.25415 0.0
H33 H 0.81698 0.46079 0.32189 0.0
H34 H 0.75153 0.49363 0.0491 0.0
H35 H 0.72505 0.46472 0.16576 0.0
H36 H 0.80364 0.5185 0.29598 0.0
H37 H 0.72155 0.49831 0.0127 0.0
H38 H 0.69479 0.46944 0.12931 0.0
C39 C 0.04701 0.79589 0.00342 0.0
C40 C 0.05766 0.8108 0.02355 0.0
C41 C 0.03749 0.78291 0.03199 0.0
C42 C 0.0387 0.78417 0.08158 0.0
C43 C 0.05029 0.79837 0.10166 0.0
C44 C 0.05952 0.81161 0.07306 0.0
C45 C 0.02717 0.77137 0.11203 0.0
C46 C 0.02281 0.7528 0.09783 0.0
C47 C 0.01084 0.74112 0.12459 0.0
C48 C 0.00382 0.74778 0.16758 0.0
C49 C 0.00808 0.76632 0.18221 0.0
C50 C 0.01955 0.778 0.15427 0.0
C51 C 0.00022 0.77422 0.22567 0.0
C52 C 0.98685 0.78789 0.22221 0.0
C53 C 0.00815 0.77054 0.26978 0.0
C54 C 0.0035 0.78117 0.30949 0.0
C55 C 0.99077 0.79553 0.30565 0.0
C56 C 0.00507 0.72242 0.10533 0.0
C57 C -0.00144 0.72099 0.05859 0.0
C58 C 0.00712 0.70595 0.13167 0.0
C59 C 0.00358 0.6883 0.11066 0.0
C60 C -0.00234 0.68689 0.06326 0.0
C61 C -0.00515 0.70346 0.03785 0.0
C62 C 0.98204 0.79836 0.26193 0.0
H63 H 0.04558 0.79451 0.96542 0.0
H64 H 0.02862 0.77234 0.01495 0.0
H65 H 0.05197 0.79955 0.13963 0.0
H66 H 0.06748 0.82291 0.09003 0.0
H67 H 0.02866 0.74732 0.06559 0.0
H68 H 0.02216 0.79246 0.16529 0.0
H69 H -0.00546 0.73891 0.18848 0.0
H70 H 0.98079 0.79108 0.18824 0.0
H71 H 0.01867 0.76021 0.27293 0.0
H72 H 0.01035 0.77861 0.34282 0.0
H73 H -0.00327 0.73351 0.03765 0.0
H74 H 0.01215 0.70672 0.16776 0.0
H75 H 0.97235 0.80944 0.25771 0.0
H76 H 0.99051 0.7029 0.00117 0.0
H77 H 0.00575 0.67576 0.13119 0.0
C78 C 0.70356 0.03798 0.99754 0.0
C79 C 0.69205 0.05211 0.01366 0.0
C80 C 0.71799 0.03195 0.02573 0.0
C81 C 0.72118 0.03988 0.07072 0.0
C82 C 0.71032 0.05474 0.08572 0.0
C83 C 0.69593 0.06085 0.05737 0.0
C84 C 0.73448 0.03137 0.10352 0.0
C85 C 0.75173 0.02583 0.08764 0.0
C86 C 0.76359 0.01609 0.11751 0.0
C87 C 0.75805 0.0121 0.16431 0.0
C88 C 0.74076 0.01769 0.18079 0.0
C89 C 0.72919 0.02731 0.15002 0.0
C90 C 0.73363 0.0125 0.22847 0.0
C91 C 0.73446 0.99399 0.24523 0.0
C92 C 0.72349 0.02545 0.25437 0.0
C93 C 0.7131 0.01972 0.2935 0.0
C94 C 0.71278 0.00088 0.30851 0.0
C95 C 0.78147 0.00986 0.09848 0.0
C96 C 0.78209 0.00157 0.05334 0.0
C97 C 0.79807 0.01333 0.12326 0.0
C98 C 0.81501 0.00937 0.10228 0.0
C99 C 0.81563 0.00172 0.0563 0.0
C100 C 0.79892 -0.00243 0.03252 0.0
C101 C 0.72419 0.98826 0.28494 0.0
H102 H 0.70101 0.03116 0.9637 0.0
H103 H 0.72604 0.02041 0.01329 0.0
H104 H 0.7126 0.06123 0.12007 0.0
H105 H 0.68725 0.07173 0.07071 0.0
H106 H 0.75593 0.02912 0.05176 0.0
H107 H 0.71548 0.0308 0.16155 0.0
H108 H 0.76699 0.0044 0.18742 0.0
H109 H 0.74214 0.98367 0.22607 0.0
H110 H 0.72278 0.0399 0.24276 0.0
H111 H 0.70447 0.02992 0.31004 0.0
H112 H 0.7695 -0.00146 0.03356 0.0
H113 H 0.79801 0.01974 0.15806 0.0
H114 H 0.72469 0.97375 0.29604 0.0
H115 H 0.79883 0.99188 0.99694 0.0
H116 H 0.82762 0.01255 0.12178 0.0
C117 C 0.53927 0.71634 0.34163 0.0
C118 C 0.55235 0.70221 0.34078 0.0
C119 C 0.53583 0.72686 0.30104 0.0
C120 C 0.54545 0.72342 0.25914 0.0
C121 C 0.55953 0.71044 0.25932 0.0
C122 C 0.56303 0.69999 0.29984 0.0
C123 C 0.53797 0.72958 0.21349 0.0
C124 C 0.54092 0.74795 0.19644 0.0
C125 C 0.53413 0.75274 0.15153 0.0
C126 C 0.52384 0.73928 0.12495 0.0
C127 C 0.52066 0.72103 0.14218 0.0
C128 C 0.52787 0.71629 0.18631 0.0
C129 C 0.51031 0.70665 0.11376 0.0
C130 C 0.49319 0.71051 0.09333 0.0
C131 C 0.51749 0.68879 0.10757 0.0
C132 C 0.50775 0.67499 0.08162 0.0
C133 C 0.49046 0.67863 0.06165 0.0
C134 C 0.53807 0.7715 0.1308 0.0
C135 C 0.53254 0.78789 0.15368 0.0
C136 C 0.54598 0.77287 0.08563 0.0
C137 C 0.54767 0.79018 0.06285 0.0
C138 C 0.5413 0.80649 0.08453 0.0
C139 C 0.534 0.80525 0.13054 0.0
C140 C 0.48331 0.6966 0.06768 0.0
H141 H 0.53096 0.7185 0.37281 0.0
H142 H 0.52473 0.73663 0.30135 0.0
H143 H 0.56687 0.70738 0.22702 0.0
H144 H 0.57307 0.68913 0.29776 0.0
H145 H 0.54892 0.75819 0.21716 0.0
H146 H 0.52549 0.70218 0.1999 0.0
H147 H 0.51855 0.74294 0.09041 0.0
H148 H 0.48732 0.72417 0.09793 0.0
H149 H 0.5308 0.68555 0.12232 0.0
H150 H 0.51398 0.66154 0.07659 0.0
H151 H 0.52634 0.78713 0.18846 0.0
H152 H 0.55039 0.7604 0.06737 0.0
H153 H 0.47 0.69986 0.05305 0.0
H154 H 0.52907 0.81763 0.14816 0.0
H155 H 0.55317 0.79063 0.02727 0.0
C156 C 0.20015 0.57364 0.30602 0.0
C157 C 0.18274 0.56497 0.2972 0.0
C158 C 0.21553 0.5686 0.27958 0.0
C159 C 0.21375 0.55483 0.24382 0.0
C160 C 0.1962 0.54661 0.23437 0.0
C161 C 0.18091 0.55172 0.2604 0.0
C162 C 0.23006 0.54826 0.2175 0.0
C163 C 0.24673 0.54504 0.24095 0.0
C164 C 0.26138 0.53653 0.2174 0.0
C165 C 0.25896 0.53084 0.16984 0.0
C166 C 0.24247 0.53433 0.14583 0.0
C167 C 0.22837 0.54341 0.16958 0.0
C168 C 0.23852 0.52689 0.09772 0.0
C169 C 0.23099 0.53864 0.06355 0.0
C170 C 0.23849 0.50744 0.0892 0.0
C171 C 0.22943 0.49974 0.04942 0.0
C172 C 0.22034 0.51139 0.01746 0.0
C173 C 0.27872 0.53296 0.24366 0.0
C174 C 0.28592 0.54633 0.27622 0.0
C175 C 0.28777 0.51594 0.23816 0.0
C176 C 0.30335 0.51222 0.26547 0.0
C177 C 0.31013 0.52539 0.29904 0.0
C178 C 0.30137 0.54256 0.30367 0.0
C179 C 0.22202 0.53099 0.0238 0.0
H180 H 0.202 0.58384 0.33433 0.0
H181 H 0.22883 0.57532 0.28746 0.0
H182 H 0.19428 0.53574 0.20773 0.0
H183 H 0.16764 0.54498 0.25221 0.0
H184 H 0.24796 0.54828 0.27833 0.0
H185 H 0.21558 0.54587 0.15108 0.0
H186 H 0.26986 0.52383 0.1514 0.0
H187 H 0.23084 0.55369 0.06942 0.0
H188 H 0.2441 0.49807 0.11521 0.0
H189 H 0.22863 0.48461 0.04513 0.0
H190 H 0.27955 0.55974 0.28069 0.0
H191 H 0.2825 0.50523 0.21385 0.0
H192 H 0.21511 0.54041 0.00021 0.0
H193 H 0.30649 0.55314 0.32857 0.0
H194 H 0.30974 0.4988 0.26133 0.0
C195 C 0.08964 0.18083 0.38963 0.0
C196 C 0.10074 0.16532 0.38264 0.0
C197 C 0.08837 0.19458 0.35496 0.0
C198 C 0.09833 0.19332 0.3125 0.0
C199 C 0.11015 0.17825 0.30648 0.0
C200 C 0.11126 0.16433 0.34109 0.0
C201 C 0.09514 0.20691 0.27361 0.0
C202 C 0.09139 0.22567 0.28404 0.0
C203 C 0.08551 0.23788 0.24872 0.0
C204 C 0.08426 0.23151 0.20168 0.0
C205 C 0.08839 0.21287 0.19024 0.0
C206 C 0.09381 0.20072 0.22644 0.0
C207 C 0.08533 0.20523 0.14173 0.0
C208 C 0.06885 0.20843 0.11728 0.0
C209 C 0.09803 0.19311 0.1216 0.0
C210 C 0.09396 0.18365 0.07922 0.0
C211 C 0.07704 0.18605 0.05605 0.0
C212 C 0.07915 0.25666 0.26258 0.0
C213 C 0.06656 0.25812 0.29994 0.0
C214 C 0.08601 0.27312 0.24058 0.0
C215 C 0.08087 0.29079 0.25706 0.0
C216 C 0.06856 0.2922 0.29522 0.0
C217 C 0.0613 0.27565 0.31599 0.0
C218 C 0.06472 0.1989 0.07495 0.0
H219 H 0.08106 0.18181 0.42078 0.0
H220 H 0.07879 0.20568 0.36063 0.0
H221 H 0.11824 0.17698 0.27457 0.0
H222 H 0.11999 0.15255 0.33489 0.0
H223 H 0.09256 0.23074 0.32016 0.0
H224 H 0.09586 0.18606 0.21819 0.0
H225 H 0.0795 0.24084 0.1744 0.0
H226 H 0.05872 0.21758 0.13204 0.0
H227 H 0.11091 0.19047 0.13947 0.0
H228 H 0.10369 0.17376 0.06589 0.0
H229 H 0.06093 0.24563 0.31722 0.0
H230 H 0.09574 0.27233 0.21172 0.0
H231 H 0.05167 0.20122 0.05766 0.0
H232 H 0.05199 0.27624 0.34579 0.0
H233 H 0.08661 0.30332 0.24024 0.0
C234 C 0.30574 0.95886 0.31278 0.0
C235 C 0.32296 0.96807 0.32084 0.0
C236 C 0.29316 0.96627 0.28086 0.0
C237 C 0.2976 0.98296 0.2563 0.0
C238 C 0.31478 0.99214 0.26461 0.0
C239 C 0.32731 0.98476 0.29625 0.0
C240 C 0.28456 0.99085 0.22169 0.0
C241 C 0.26567 0.99146 0.23156 0.0
C242 C 0.25348 -0.00024 0.1997 0.0
C243 C 0.26042 0.00745 0.15711 0.0
C244 C 0.27936 0.00682 0.14687 0.0
C245 C 0.2912 -0.00158 0.17911 0.0
C246 C 0.28747 0.01459 0.10276 0.0
C247 C 0.28257 0.00677 0.05865 0.0
C248 C 0.30259 0.02744 0.10566 0.0
C249 C 0.31345 0.03138 0.06599 0.0
C250 C 0.3095 0.02246 0.02248 0.0
C251 C 0.23379 0.00102 0.21314 0.0
C252 C 0.22421 0.98521 0.23167 0.0
C253 C 0.22516 0.01837 0.21294 0.0
C254 C 0.20773 0.02007 0.2335 0.0
C255 C 0.19853 0.0044 0.25418 0.0
C256 C 0.20679 0.98686 0.25183 0.0
C257 C 0.29353 0.01063 0.01882 0.0
H258 H 0.30194 0.94605 0.33142 0.0
H259 H 0.28007 0.9588 0.27495 0.0
H260 H 0.31854 0.00516 0.24679 0.0
H261 H 0.34055 0.99206 0.30101 0.0
H262 H 0.26053 0.98611 0.26505 0.0
H263 H 0.30572 -0.0024 0.17061 0.0
H264 H 0.2512 0.01396 0.13236 0.0
H265 H 0.27105 -0.0033 0.05567 0.0
H266 H 0.30667 0.03358 0.13941 0.0
H267 H 0.32569 0.04041 0.07037 0.0
H268 H 0.23051 0.97165 0.23211 0.0
H269 H 0.23228 0.0308 0.19915 0.0
H270 H 0.28996 0.00373 0.98566 0.0
H271 H 0.20021 0.97454 0.26774 0.0
H272 H 0.20165 0.03373 0.23429 0.0
C273 C 0.43767 0.27822 0.02233 0.0
C274 C 0.4514 0.2852 0.99119 0.0
C275 C 0.4423 0.26679 0.06051 0.0
C276 C 0.46068 0.26206 0.06781 0.0
C277 C 0.47407 0.26764 0.0346 0.0
C278 C 0.46951 0.27906 0.99669 0.0
C279 C 0.46683 0.2558 0.11471 0.0
C280 C 0.46514 0.23696 0.12926 0.0
C281 C 0.47257 0.23173 0.1731 0.0
C282 C 0.48125 0.24541 0.20231 0.0
C283 C 0.48269 0.26426 0.18836 0.0
C284 C 0.47543 0.26929 0.14447 0.0
C285 C 0.49183 0.27869 0.21934 0.0
C286 C 0.48857 0.27871 0.26831 0.0
C287 C 0.50359 0.29279 0.20002 0.0
C288 C 0.51158 0.30684 0.22888 0.0
C289 C 0.50807 0.30703 0.2777 0.0
C290 C 0.47223 0.21204 0.18915 0.0
C291 C 0.4561 0.20369 0.20817 0.0
C292 C 0.48894 0.20293 0.19372 0.0
C293 C 0.48977 0.18628 0.21937 0.0
C294 C 0.47392 0.17853 0.2415 0.0
C295 C 0.45692 0.18701 0.23415 0.0
C296 C 0.49662 0.29272 0.29719 0.0
H297 H 0.42353 0.2824 0.01876 0.0
H298 H 0.43182 0.26284 0.08619 0.0
H299 H 0.4884 0.26439 0.04015 0.0
H300 H 0.48056 0.28426 0.97406 0.0
H301 H 0.45867 0.22643 0.10621 0.0
H302 H 0.47637 0.28385 0.13324 0.0
H303 H 0.48714 0.24123 0.23578 0.0
H304 H 0.4794 0.26819 0.28417 0.0
H305 H 0.50665 0.29296 0.16255 0.0
H306 H 0.52054 0.31754 0.21298 0.0
H307 H 0.44313 0.2107 0.2056 0.0
H308 H 0.50156 0.20924 0.17952 0.0
H309 H 0.49343 0.29267 0.33459 0.0
H310 H 0.44448 0.18144 0.25088 0.0
H311 H 0.50299 0.17989 0.22348 0.0
O312 O 0.05515 0.00121 0.63335 0.0
Zn313 Zn 0.04047 -0.00068 0.69408 0.0
O314 O 0.01529 0.99332 0.67998 0.0
Zn315 Zn -0.00052 0.01389 0.68373 0.0
Zn316 Zn 0.0098 0.99515 0.61501 0.0
Zn317 Zn 0.00477 0.97139 0.70836 0.0
O318 O 0.97856 0.00761 0.72926 0.0
O319 O 0.98288 0.97785 0.7485 0.0
O320 O 0.04178 0.02472 0.72594 0.0
O321 O 0.01417 0.03624 0.71146 0.0
O322 O 0.98805 0.01678 0.61184 0.0
O323 O 0.98965 0.01652 0.61083 0.0
O324 O -0.0004 0.96989 0.59173 0.0
O325 O 0.04989 0.979 0.73748 0.0
O326 O -0.00303 0.95277 0.65726 0.0
O327 O 0.02452 0.96082 0.74907 0.0
C328 C 0.05024 0.00251 0.59012 0.0
C329 C 0.97393 0.99286 0.75257 0.0
C330 C 0.99284 0.02664 0.57544 0.0
C331 C 0.03052 0.03806 0.72831 0.0
C332 C -0.00443 0.95438 0.61245 0.0
C333 C 0.04156 0.9649 0.75688 0.0
O334 O 0.03325 0.00126 0.57812 0.0
O335 O 0.50023 0.03505 0.62529 0.0
Zn336 Zn 0.50444 0.01845 0.68261 0.0
O337 O 0.51017 0.99259 0.66256 0.0
Zn338 Zn 0.49154 0.9748 0.68756 0.0
Zn339 Zn 0.51059 0.99094 0.59361 0.0
Zn340 Zn 0.53428 0.98554 0.68601 0.0
O341 O 0.50249 0.95642 0.73272 0.0
O342 O 0.53247 0.96379 0.73175 0.0
O343 O 0.48093 0.01855 0.72203 0.0
O344 O 0.47214 0.98836 0.72326 0.0
O345 O 0.47832 0.9606 0.63512 0.0
O346 O 0.49142 0.97202 0.56992 0.0
O347 O 0.53577 0.98477 0.56846 0.0
O348 O 0.52571 0.03019 0.72101 0.0
O349 O 0.55181 0.97916 0.63346 0.0
O350 O 0.54602 0.00751 0.71997 0.0
C351 C 0.50044 0.0317 0.58093 0.0
C352 C 0.51885 0.95375 0.74695 0.0
C353 C 0.47957 0.96116 0.59023 0.0
C354 C 0.46955 0.0054 0.73447 0.0
C355 C 0.55065 0.98014 0.58862 0.0
C356 C 0.54146 0.024 0.73165 0.0
O357 O 0.50416 0.01553 0.56504 0.0
O358 O 0.46444 0.49529 0.64676 0.0
Zn359 Zn 0.4828 0.49279 0.70053 0.0
O360 O 0.50841 0.49392 0.67644 0.0
Zn361 Zn 0.52079 0.47091 0.69267 0.0
Zn362 Zn 0.50821 0.4971 0.60773 0.0
Zn363 Zn 0.52245 0.515 0.70467 0.0
O364 O 0.54246 0.47567 0.73703 0.0
O365 O 0.54418 0.50675 0.74279 0.0
O366 O 0.47694 0.46774 0.7329 0.0
O367 O 0.50307 0.45277 0.72427 0.0
O368 O 0.52948 0.45777 0.63428 0.0
O369 O 0.52026 0.47558 0.57513 0.0
O370 O 0.52085 0.52162 0.58825 0.0
O371 O 0.47863 0.51417 0.74668 0.0
O372 O 0.53127 0.53383 0.65593 0.0
O373 O 0.50628 0.52868 0.74885 0.0
C374 C 0.46632 0.49687 0.60211 0.0
C375 C 0.55019 0.49071 0.7533 0.0
C376 C 0.52807 0.46101 0.59019 0.0
C377 C 0.48643 0.45316 0.73837 0.0
C378 C 0.52936 0.53472 0.61123 0.0
C379 C 0.48955 0.52724 0.76221 0.0
O380 O 0.48221 0.49752 0.58309 0.0
O381 O 0.98347 0.51157 0.61354 0.0
Zn382 Zn 0.00742 0.51365 0.65129 0.0
O383 O 0.01537 0.48861 0.67129 0.0
Zn384 Zn 0.01658 0.4874 0.74043 0.0
Zn385 Zn -0.00198 0.46916 0.64739 0.0
Zn386 Zn 0.0397 0.4837 0.64597 0.0
O387 O 0.04229 0.48215 0.76382 0.0
O388 O 0.05831 0.47984 0.69751 0.0
O389 O 0.00339 0.53035 0.70834 0.0
O390 O 0.00989 0.5121 0.76918 0.0
O391 O -0.00161 0.46784 0.76554 0.0
O392 O 0.98574 0.45505 0.70086 0.0
O393 O 0.01027 0.45065 0.60466 0.0
O394 O 0.02707 0.52681 0.61083 0.0
O395 O 0.03942 0.4611 0.60266 0.0
O396 O 0.049 0.50586 0.60915 0.0
C397 C 0.97356 0.49741 0.59965 0.0
C398 C 0.05747 0.47968 0.74246 0.0
C399 C 0.9871 0.45613 0.74572 0.0
C400 C 0.00499 0.52778 0.75275 0.0
C401 C 0.02672 0.44933 0.58977 0.0
C402 C 0.04299 0.5218 0.59788 0.0
O403 O 0.97786 0.48072 0.60984 0.0
H404 H 0.19021 0.03244 0.3163 0.0
H405 H 0.16351 0.03369 0.36874 0.0
H406 H 0.14106 0.9822 0.30738 0.0
H407 H 0.16772 0.98085 0.25472 0.0
H408 H 0.1252 0.03397 0.35384 0.0
H409 H 0.14553 0.96969 0.44833 0.0
H410 H 0.16076 0.9822 0.40804 0.0
H411 H 0.14263 0.96671 0.38562 0.0
C412 C 0.17943 0.02157 0.31326 0.0
C413 C 0.1812 0.00645 0.28155 0.0
C414 C 0.16421 0.02226 0.34345 0.0
C415 C 0.15048 0.00784 0.34263 0.0
C416 C 0.15171 0.99325 0.30936 0.0
H417 H 0.04546 0.00391 0.49379 0.0
H418 H 0.06932 0.00639 0.43296 0.0
C419 C 0.16694 0.99251 0.27926 0.0
C420 C 0.13536 0.00765 0.37799 0.0
H421 H 0.11713 0.98239 0.47022 0.0
C422 C 0.12335 0.02267 0.37919 0.0
C423 C 0.13323 0.99307 0.41163 0.0
C424 C 0.1463 0.97708 0.41382 0.0
C425 C 0.1091 0.02336 0.41275 0.0
C426 C 0.10675 0.00857 0.44573 0.0
C427 C 0.11886 0.99365 0.44471 0.0
C428 C 0.09212 0.00835 0.48244 0.0
C429 C 0.09716 0.04025 0.41395 0.0
C430 C 0.09698 0.00829 0.53052 0.0
C431 C 0.0834 0.00668 0.56542 0.0
C432 C 0.0646 0.00502 0.55301 0.0
C433 C 0.05976 0.00526 0.50474 0.0
C434 C 0.07339 0.00682 0.46983 0.0
H435 H 0.10201 0.05137 0.38898 0.0
H436 H 0.08275 0.036 0.4045 0.0
H437 H 0.09712 0.0463 0.45013 0.0
H438 H 0.11136 0.00932 0.54105 0.0
H439 H 0.08767 0.00658 0.60214 0.0
H440 H 0.5007 0.17424 0.30793 0.0
H441 H 0.50367 0.14874 0.36434 0.0
H442 H 0.4537 0.12184 0.31011 0.0
H443 H 0.45062 0.14746 0.253 0.0
H444 H 0.45565 0.12304 0.40985 0.0
H445 H 0.51954 0.09559 0.3327 0.0
H446 H 0.52124 0.12028 0.34593 0.0
H447 H 0.50524 0.11167 0.30148 0.0
C448 C 0.49047 0.16277 0.30737 0.0
C449 C 0.47558 0.16273 0.27535 0.0
C450 C 0.49217 0.14822 0.33979 0.0
C451 C 0.47911 0.13323 0.34085 0.0
C452 C 0.464 0.13325 0.30965 0.0
H453 H 0.49692 0.02833 0.4851 0.0
H454 H 0.49044 0.05275 0.42801 0.0
C455 C 0.46225 0.14788 0.27712 0.0
C456 C 0.48128 0.11768 0.37492 0.0
H457 H 0.51112 0.08431 0.40904 0.0
C458 C 0.46771 0.11446 0.40955 0.0
C459 C 0.49692 0.10639 0.37413 0.0
C460 C 0.51149 0.1085 0.3363 0.0
C461 C 0.46959 0.10052 0.44414 0.0
C462 C 0.4856 0.08975 0.44443 0.0
C463 C 0.49895 0.09272 0.40914 0.0
C464 C 0.48866 0.07494 0.48011 0.0
C465 C 0.45431 0.09728 0.4796 0.0
C466 C 0.48988 0.07929 0.52857 0.0
C467 C 0.49354 0.06527 0.5616 0.0
C468 C 0.49623 0.0467 0.54664 0.0
C469 C 0.49498 0.04246 0.49802 0.0
C470 C 0.49126 0.05642 0.46521 0.0
H471 H 0.44114 0.10308 0.4672 0.0
H472 H 0.452 0.08206 0.48684 0.0
H473 H 0.45821 0.10442 0.51333 0.0
H474 H 0.48831 0.09357 0.5408 0.0
H475 H 0.49449 0.06905 0.59869 0.0
H476 H 0.31342 0.53126 0.39424 0.0
H477 H 0.33989 0.5251 0.44507 0.0
H478 H 0.36914 0.50364 0.32508 0.0
H479 H 0.34272 0.50987 0.27378 0.0
H480 H 0.35859 0.48811 0.4562 0.0
H481 H 0.40334 0.54696 0.38715 0.0
H482 H 0.37852 0.54647 0.38119 0.0
H483 H 0.39198 0.53169 0.34436 0.0
C484 C 0.32553 0.52532 0.3786 0.0
C485 C 0.32605 0.52117 0.32993 0.0
C486 C 0.34057 0.52171 0.40774 0.0
C487 C 0.35647 0.51406 0.3887 0.0
C488 C 0.357 0.50967 0.34029 0.0
H489 H 0.46466 0.49469 0.50564 0.0
H490 H 0.43772 0.49771 0.45478 0.0
C491 C 0.34189 0.51314 0.31114 0.0
C492 C 0.37257 0.51087 0.41954 0.0
H493 H 0.41636 0.52728 0.44396 0.0
C494 C 0.37125 0.49664 0.45364 0.0
C495 C 0.38901 0.52202 0.41588 0.0
C496 C 0.3909 0.53775 0.38043 0.0
C497 C 0.38611 0.49306 0.48389 0.0
C498 C 0.40252 0.50439 0.48071 0.0
C499 C 0.40379 0.51861 0.44643 0.0
C500 C 0.41862 0.50175 0.51228 0.0
C501 C 0.38421 0.47691 0.51812 0.0
C502 C 0.41691 0.50307 0.56166 0.0
C503 C 0.4323 0.50118 0.59099 0.0
C504 C 0.44978 0.49823 0.57145 0.0
C505 C 0.45144 0.49698 0.52196 0.0
C506 C 0.43603 0.49871 0.49276 0.0
H507 H 0.37333 0.46646 0.50667 0.0
H508 H 0.39741 0.46964 0.52195 0.0
H509 H 0.38026 0.48238 0.55333 0.0
H510 H 0.40372 0.50589 0.57754 0.0
H511 H 0.43056 0.50238 0.6289 0.0
H512 H 0.03468 0.30379 0.32227 0.0
H513 H 0.02773 0.33226 0.36642 0.0
H514 H 0.08496 0.3507 0.35952 0.0
H515 H 0.09202 0.32219 0.3153 0.0
H516 H 0.04333 0.34093 0.45409 0.0
H517 H 0.05795 0.3985 0.32608 0.0
H518 H 0.05451 0.37425 0.30796 0.0
H519 H 0.07619 0.38232 0.33303 0.0
C520 C 0.04574 0.31403 0.32961 0.0
C521 C 0.06392 0.31071 0.31551 0.0
C522 C 0.04174 0.3303 0.35472 0.0
C523 C 0.0558 0.34364 0.36602 0.0
C524 C 0.07384 0.34076 0.35041 0.0
H525 H 0.06024 0.4418 0.5507 0.0
H526 H 0.06736 0.41625 0.49634 0.0
C527 C 0.07785 0.32447 0.32514 0.0
C528 C 0.05182 0.35959 0.39783 0.0
H529 H 0.05254 0.40751 0.40572 0.0
C530 C 0.04524 0.35549 0.44342 0.0
C531 C 0.0545 0.37855 0.38396 0.0
C532 C 0.06103 0.38375 0.33497 0.0
C533 C 0.04141 0.36983 0.4757 0.0
C534 C 0.0439 0.3888 0.46172 0.0
C535 C 0.05062 0.39294 0.41627 0.0
C536 C 0.03945 0.4045 0.49382 0.0
C537 C 0.03506 0.36453 0.52483 0.0
C538 C 0.02135 0.40649 0.50991 0.0
C539 C 0.01722 0.42102 0.54108 0.0
C540 C 0.03112 0.43394 0.55657 0.0
C541 C 0.04921 0.43207 0.53971 0.0
C542 C 0.05331 0.41751 0.50853 0.0
H543 H 0.03848 0.34988 0.53377 0.0
H544 H 0.04142 0.37416 0.55177 0.0
H545 H 0.01986 0.36558 0.52691 0.0
H546 H 0.01038 0.39679 0.49829 0.0
H547 H 0.00312 0.4221 0.55299 0.0
H548 H 0.82512 0.97237 -0.00075 0.0
H549 H 0.85299 0.96986 0.95151 0.0
H550 H 0.87445 0.02239 0.00933 0.0
H551 H 0.8465 0.02517 0.05673 0.0
H552 H 0.86477 0.99627 0.8829 0.0
H553 H 0.91827 0.98722 0.02101 0.0
H554 H 0.89394 0.98328 0.03227 0.0
H555 H 0.90373 0.0068 0.03022 0.0
C556 C 0.8358 0.98336 0.00205 0.0
C557 C 0.83351 -0.00098 0.03174 0.0
C558 C 0.85175 0.98185 0.97486 0.0
C559 C 0.86585 0.99587 0.97708 0.0
C560 C 0.86389 0.01124 0.00768 0.0
H561 H 0.95005 0.02135 0.76655 0.0
H562 H 0.92394 0.02191 0.82105 0.0
C563 C 0.8479 0.01279 0.03485 0.0
C564 C 0.88195 0.99501 0.94494 0.0
H565 H 0.92891 0.99269 0.94264 0.0
C566 C 0.87879 0.99543 0.89595 0.0
C567 C 0.90021 0.99377 0.96205 0.0
C568 C 0.90432 0.99257 0.01424 0.0
C569 C 0.89342 0.99493 0.86359 0.0
C570 C 0.91171 0.99417 0.88069 0.0
C571 C 0.91487 0.99343 0.92966 0.0
C572 C 0.92772 0.99394 0.84814 0.0
C573 C 0.88918 0.99499 0.81132 0.0
C574 C 0.93869 0.97815 0.84587 0.0
C575 C 0.95363 0.97775 0.8147 0.0
C576 C 0.95799 0.99324 0.78545 0.0
C577 C 0.94707 0.00914 0.78832 0.0
C578 C 0.93209 0.00948 0.81936 0.0
H579 H 0.87442 0.99134 0.80401 0.0
H580 H 0.89233 0.00923 0.797 0.0
H581 H 0.89781 0.9849 0.79214 0.0
H582 H 0.93558 0.96604 0.86791 0.0
H583 H 0.96177 0.96531 0.81367 0.0
H584 H 0.56871 0.82265 0.03023 0.0
H585 H 0.56626 0.84939 0.97642 0.0
H586 H 0.51033 0.85672 0.0221 0.0
H587 H 0.51264 0.83001 0.0759 0.0
H588 H 0.5185 0.85106 0.91654 0.0
H589 H 0.56018 0.90828 0.00558 0.0
H590 H 0.56919 0.88502 0.00415 0.0
H591 H 0.54898 0.88932 0.03826 0.0
C592 C 0.556 0.83015 0.02931 0.0
C593 C 0.54086 0.82424 0.05726 0.0
C594 C 0.55465 0.84544 -0.00123 0.0
C595 C 0.53815 0.85501 0.99554 0.0
C596 C 0.52322 0.84955 0.02442 0.0
H597 H 0.49294 0.93398 0.79846 0.0
H598 H 0.49802 0.91018 0.85844 0.0
C599 C 0.52461 0.83438 0.0553 0.0
C600 C 0.53589 0.86957 0.95906 0.0
H601 H 0.54823 0.91476 0.92992 0.0
C602 C 0.52494 0.86502 0.91941 0.0
C603 C 0.54455 0.8876 0.9628 0.0
C604 C 0.55635 0.89303 0.00501 0.0
C605 C 0.52246 0.87806 0.88308 0.0
C606 C 0.53072 0.89633 0.88726 0.0
C607 C 0.54185 0.90079 0.92682 0.0
C608 C 0.52774 0.91106 0.8513 0.0
C609 C 0.51136 0.87194 0.84009 0.0
C610 C 0.5428 0.91996 0.82836 0.0
C611 C 0.53996 0.9338 0.79437 0.0
C612 C 0.52198 0.93899 0.78265 0.0
C613 C 0.50696 0.93017 0.8061 0.0
C614 C 0.50982 0.91647 0.84031 0.0
H615 H 0.511 0.85641 0.83565 0.0
H616 H 0.49694 0.87633 0.84435 0.0
H617 H 0.51708 0.87844 0.80738 0.0
H618 H 0.55675 0.91608 0.83648 0.0
H619 H 0.55185 0.94035 0.77714 0.0
H620 H 0.67941 0.45612 0.05603 0.0
H621 H 0.65169 0.45665 0.0064 0.0
H622 H 0.66427 0.51461 0.97176 0.0
H623 H 0.69193 0.51428 0.0217 0.0
H624 H 0.6251 0.50426 0.99547 0.0
H625 H 0.65592 0.45909 0.85763 0.0
H626 H 0.65671 0.45081 0.91761 0.0
H627 H 0.66975 0.47169 0.90144 0.0
C628 C 0.67609 0.46909 0.03859 0.0
C629 C 0.6879 0.48515 0.04263 0.0
C630 C 0.66035 0.46931 0.00992 0.0
C631 C 0.65611 0.48559 0.98498 0.0
C632 C 0.6674 0.50188 0.99053 0.0
H633 H 0.57228 0.51968 0.78766 0.0
H634 H 0.59758 0.51803 0.8444 0.0
C635 C 0.6832 0.50164 0.01892 0.0
C636 C 0.64029 0.4855 0.95175 0.0
H637 H 0.62542 0.46818 0.84491 0.0
C638 C 0.62511 0.49637 0.96257 0.0
C639 C 0.64038 0.47513 0.909 0.0
C640 C 0.65658 0.46359 0.89529 0.0
C641 C 0.6099 0.49703 0.93182 0.0
C642 C 0.61013 0.48695 0.88852 0.0
C643 C 0.62526 0.47592 0.87802 0.0
C644 C 0.59497 0.48787 0.85328 0.0
C645 C 0.59361 0.50825 0.94647 0.0
C646 C 0.58553 0.47137 0.83785 0.0
C647 C 0.57119 0.47222 0.80481 0.0
C648 C 0.56601 0.48961 0.78649 0.0
C649 C 0.57576 0.50606 0.80132 0.0
C650 C 0.59016 0.50517 0.8341 0.0
H651 H 0.59315 0.51026 0.98544 0.0
H652 H 0.59477 0.52237 0.93002 0.0
H653 H 0.58041 0.5013 0.93476 0.0
H654 H 0.58911 0.45784 0.85186 0.0
H655 H 0.564 0.45928 0.79418 0.0
H656 H 0.02105 0.65769 0.067 0.0
H657 H 0.02016 0.62927 0.0178 0.0
H658 H 0.96947 0.64622 0.95358 0.0
H659 H 0.97007 0.67452 0.00324 0.0
H660 H 0.97098 0.6064 0.97584 0.0
H661 H 0.03137 0.63402 0.87344 0.0
H662 H 0.03454 0.63327 0.93648 0.0
H663 H 0.0181 0.64872 0.91166 0.0
C664 C 0.00949 0.65516 0.04322 0.0
C665 C -0.00429 0.66842 0.03873 0.0
C666 C 0.0091 0.63901 0.01483 0.0
C667 C -0.00508 0.63585 0.98155 0.0
C668 C 0.9806 0.6485 0.97884 0.0
H669 H -0.00225 0.5644 0.73182 0.0
H670 H 0.9939 0.59041 0.78742 0.0
C671 C 0.98101 0.66468 0.00707 0.0
C672 C -0.00444 0.61996 0.94768 0.0
H673 H 0.02027 0.60322 0.85498 0.0
C674 C 0.98174 0.60566 0.94941 0.0
C675 C 0.00945 0.61925 0.91276 0.0
C676 C 0.02415 0.63469 0.90798 0.0
C677 C 0.98167 0.59043 0.9176 0.0
C678 C -0.00415 0.58948 0.88351 0.0
C679 C 0.00947 0.60396 0.88131 0.0
C680 C -0.00298 0.57347 0.85008 0.0
C681 C 0.9663 0.57561 0.92027 0.0
C682 C 9e-05 0.55536 0.86692 0.0
C683 C 0.00235 0.54048 0.83531 0.0
C684 C 0.00164 0.54343 0.78613 0.0
C685 C -0.00166 0.56159 0.7694 0.0
C686 C -0.00386 0.57648 0.80111 0.0
H687 H 0.95422 0.5807 0.94 0.0
H688 H 0.96172 0.57111 0.88432 0.0
H689 H 0.97137 0.56312 0.93893 0.0
H690 H 0.00115 0.5528 0.90455 0.0
H691 H 0.0049 0.52671 0.84951 0.0
H692 H 0.0963 0.12809 0.36105 0.0
H693 H 0.0861 0.10297 0.41449 0.0
H694 H 0.09123 0.14117 0.53296 0.0
H695 H 0.10138 0.16649 0.47951 0.0
H696 H 0.09755 0.08577 0.50228 0.0
H697 H 0.03534 0.12902 0.52039 0.0
H698 H 0.05279 0.13405 0.4765 0.0
H699 H 0.05707 0.13997 0.53747 0.0
C700 C 0.09591 0.131 0.39867 0.0
C701 C 0.09933 0.14933 0.41604 0.0
C702 C 0.09004 0.11662 0.42917 0.0
C703 C 0.08756 0.12034 0.47746 0.0
C704 C 0.09278 0.13813 0.49564 0.0
H705 H 0.00676 0.0526 0.63807 0.0
H706 H 0.03379 0.07388 0.6272 0.0
C707 C 0.09853 0.15256 0.4651 0.0
C708 C 0.07682 0.10662 0.50645 0.0
H709 H 0.03365 0.09878 0.55159 0.0
C710 C 0.0837 0.08869 0.51389 0.0
C711 C 0.05876 0.1105 0.52165 0.0
C712 C 0.05042 0.12936 0.51346 0.0
C713 C 0.07266 0.07432 0.53452 0.0
C714 C 0.05427 0.07792 0.54684 0.0
C715 C 0.0478 0.09611 0.54204 0.0
C716 C 0.04068 0.06266 0.55847 0.0
C717 C 0.0805 0.05528 0.54227 0.0
C718 C 0.03565 0.04931 0.52362 0.0
C719 C 0.02041 0.03708 0.53025 0.0
C720 C 0.01021 0.03774 0.57215 0.0
C721 C 0.01532 0.05093 0.60724 0.0
C722 C 0.03052 0.06326 0.60059 0.0
H723 H 0.09581 0.05582 0.54083 0.0
H724 H 0.076 0.04947 0.57693 0.0
H725 H 0.07523 0.04553 0.51433 0.0
H726 H 0.04288 0.04904 0.49016 0.0
H727 H 0.01632 0.02738 0.50217 0.0
H728 H 0.3446 0.98772 0.3841 0.0
H729 H 0.36932 0.97609 0.43295 0.0
H730 H 0.35626 0.91948 0.38536 0.0
H731 H 0.33195 0.93123 0.33406 0.0
H732 H 0.36981 0.95128 0.50471 0.0
H733 H 0.41053 0.92532 0.35261 0.0
H734 H 0.39084 0.93971 0.3445 0.0
H735 H 0.3876 0.91533 0.35964 0.0
C736 C 0.34704 0.97281 0.38366 0.0
C737 C 0.33654 0.96046 0.35446 0.0
C738 C 0.36107 0.96614 0.412 0.0
C739 C 0.36486 0.94696 0.41219 0.0
C740 C 0.35383 0.93439 0.38497 0.0
H741 H 0.45465 0.93338 0.61767 0.0
H742 H 0.42673 0.92282 0.57484 0.0
C743 C 0.3398 0.9411 0.35614 0.0
C744 C 0.3809 0.94072 0.4398 0.0
H745 H 0.4249 0.92611 0.42672 0.0
C746 C 0.38178 0.94543 0.48799 0.0
C747 C 0.39644 0.93307 0.41771 0.0
C748 C 0.39647 0.92815 0.36573 0.0
C749 C 0.39821 0.94424 0.51382 0.0
C750 C 0.41406 0.93743 0.49115 0.0
C751 C 0.41273 0.93127 0.44397 0.0
C752 C 0.43264 0.93976 0.51293 0.0
C753 C 0.39879 0.95182 0.56383 0.0
C754 C 0.44596 0.95146 0.49071 0.0
C755 C 0.46209 0.95713 0.51452 0.0
C756 C 0.4651 0.9514 0.56132 0.0
C757 C 0.45256 0.9383 0.58193 0.0
C758 C 0.43654 0.93236 0.55765 0.0
H759 H 0.38628 0.95965 0.57272 0.0
H760 H 0.39964 0.93996 0.58898 0.0
H761 H 0.41106 0.96137 0.56927 0.0
H762 H 0.44334 0.95725 0.45606 0.0
H763 H 0.47149 0.96712 0.49742 0.0
H764 H 0.50927 0.34457 0.25844 0.0
H765 H 0.51934 0.37034 0.31083 0.0
H766 H 0.53374 0.33042 0.41789 0.0
H767 H 0.5236 0.30451 0.36561 0.0
H768 H 0.51129 0.35722 0.45067 0.0
H769 H 0.56957 0.39114 0.35319 0.0
H770 H 0.54912 0.3881 0.31774 0.0
H771 H 0.56056 0.36778 0.33911 0.0
C772 C 0.51498 0.34126 0.29272 0.0
C773 C 0.51565 0.32253 0.30795 0.0
C774 C 0.5208 0.356 0.32255 0.0
C775 C 0.52759 0.35228 0.36793 0.0
C776 C 0.52866 0.33357 0.38285 0.0
H777 H 0.54493 0.42806 0.60887 0.0
H778 H 0.54825 0.40151 0.55489 0.0
C779 C 0.52277 0.31882 0.3531 0.0
C780 C 0.53166 0.36791 0.40147 0.0
H781 H 0.55614 0.40952 0.41486 0.0
C782 C 0.52133 0.36849 0.44326 0.0
C783 C 0.54468 0.38264 0.39148 0.0
C784 C 0.55674 0.38233 0.34815 0.0
C785 C 0.52311 0.38377 0.47451 0.0
C786 C 0.53581 0.39872 0.46401 0.0
C787 C 0.54646 0.39798 0.42276 0.0
C788 C 0.53719 0.4157 0.4942 0.0
C789 C 0.51079 0.38418 0.51746 0.0
C790 C 0.53084 0.43276 0.47713 0.0
C791 C 0.529 0.44801 0.50777 0.0
C792 C 0.53346 0.4464 0.55602 0.0
C793 C 0.54116 0.42972 0.57207 0.0
C794 C 0.54304 0.4145 0.54134 0.0
H795 H 0.49933 0.37342 0.51539 0.0
H796 H 0.51907 0.38135 0.54954 0.0
H797 H 0.50482 0.39823 0.52176 0.0
H798 H 0.52634 0.43394 0.44073 0.0
H799 H 0.52314 0.46068 0.49412 0.0
H800 H 0.17135 0.59881 0.33252 0.0
H801 H 0.14445 0.60394 0.38336 0.0
H802 H 0.13131 0.54436 0.38162 0.0
H803 H 0.15797 0.53912 0.33209 0.0
H804 H 0.10053 0.56949 0.36222 0.0
H805 H 0.1408 0.58659 0.52617 0.0
H806 H 0.14601 0.59878 0.47179 0.0
H807 H 0.1513 0.5745 0.4775 0.0
C808 C 0.16272 0.58684 0.34323 0.0
C809 C 0.16668 0.56858 0.32793 0.0
C810 C 0.14737 0.58981 0.372 0.0
C811 C 0.13589 0.57452 0.38586 0.0
C812 C 0.13988 0.55636 0.37074 0.0
H813 H 0.07883 0.51694 0.5749 0.0
H814 H 0.09877 0.5367 0.52583 0.0
C815 C 0.15511 0.5534 0.34228 0.0
C816 C 0.11995 0.57671 0.41757 0.0
H817 H 0.11002 0.57596 0.53528 0.0
C818 C 0.10235 0.57159 0.39999 0.0
C819 C 0.12248 0.57954 0.46665 0.0
C820 C 0.14113 0.58516 0.48704 0.0
C821 C 0.08767 0.5672 0.43067 0.0
C822 C 0.09074 0.56813 0.48002 0.0
C823 C 0.10777 0.57526 0.49736 0.0
C824 C 0.07846 0.55761 0.51303 0.0
C825 C 0.06959 0.55971 0.4103 0.0
C826 C 0.06038 0.56291 0.52246 0.0
C827 C 0.04875 0.55147 0.55066 0.0
C828 C 0.05509 0.53459 0.56952 0.0
C829 C 0.07337 0.52971 0.56072 0.0
C830 C 0.08489 0.54109 0.5329 0.0
H831 H 0.06973 0.55923 0.37102 0.0
H832 H 0.06645 0.5453 0.4237 0.0
H833 H 0.05829 0.56876 0.42175 0.0
H834 H 0.05522 0.57569 0.50758 0.0
H835 H 0.03477 0.55567 0.55701 0.0
H836 H 0.04209 0.82556 0.94451 0.0
H837 H 0.05263 0.85275 0.8995 0.0
H838 H 0.10027 0.8598 0.99014 0.0
H839 H 0.09024 0.83179 0.03478 0.0
H840 H 0.07803 0.89193 0.98202 0.0
H841 H 0.09518 0.86399 0.80576 0.0
H842 H 0.07403 0.85352 0.82771 0.0
H843 H 0.09531 0.84975 0.8586 0.0
C844 C 0.05518 0.83233 0.9541 0.0
C845 C 0.06532 0.82631 0.99336 0.0
C846 C 0.06118 0.84798 0.92822 0.0
C847 C 0.07738 0.85809 0.941 0.0
C848 C 0.08782 0.85202 0.97945 0.0
H849 H 0.0786 0.95801 0.75791 0.0
H850 H 0.09412 0.93478 0.80686 0.0
C851 C 0.08195 0.83613 0.00516 0.0
C852 C 0.08165 0.87625 0.91755 0.0
H853 H 0.08225 0.89528 0.80715 0.0
C854 C 0.07965 0.89277 0.94395 0.0
C855 C 0.08407 0.87738 0.86805 0.0
C856 C 0.08747 0.86019 0.83846 0.0
C857 C 0.07774 0.9101 0.92141 0.0
C858 C 0.07775 0.91077 0.87147 0.0
C859 C 0.08202 0.89469 0.84548 0.0
C860 C 0.06956 0.9265 0.8459 0.0
C861 C 0.07432 0.92729 0.95098 0.0
C862 C 0.0507 0.92942 0.85175 0.0
C863 C 0.04183 0.94231 0.82362 0.0
C864 C 0.05165 0.95266 0.78916 0.0
C865 C 0.07073 0.95027 0.7844 0.0
C866 C 0.07959 0.93705 0.81224 0.0
H867 H 0.08076 0.92621 0.98652 0.0
H868 H 0.0798 0.94026 0.93346 0.0
H869 H 0.05925 0.92853 0.95597 0.0
H870 H 0.04264 0.92115 0.87688 0.0
H871 H 0.02715 0.9439 0.82828 0.0
H872 H 0.67865 0.08669 0.99204 0.0
H873 H 0.64996 0.09304 0.94905 0.0
H874 H 0.63871 0.03343 0.93338 0.0
H875 H 0.66703 0.02703 0.97601 0.0
H876 H 0.64012 0.07917 0.85307 0.0
H877 H 0.59038 0.05485 0.98957 0.0
H878 H 0.61391 0.06226 0.00332 0.0
H879 H 0.60872 0.03891 0.98124 0.0
C880 C 0.66996 0.075 0.97951 0.0
C881 C 0.6751 0.05637 0.98703 0.0
C882 C 0.65365 0.07863 0.95507 0.0
C883 C 0.64214 0.06368 0.93882 0.0
C884 C 0.64729 0.04514 0.94634 0.0
H885 H 0.57856 0.02116 0.73133 0.0
H886 H 0.60118 0.03803 0.78058 0.0
C887 C 0.66358 0.04152 0.97018 0.0
C888 C 0.62513 0.06694 0.91169 0.0
H889 H 0.57997 0.05206 0.90806 0.0
C890 C 0.6268 0.07383 0.86547 0.0
C891 C 0.60772 0.06033 0.92824 0.0
C892 C 0.605 0.05385 0.97852 0.0
C893 C 0.6119 0.07229 0.83374 0.0
C894 C 0.59513 0.06349 0.84871 0.0
C895 C 0.5929 0.05862 0.89642 0.0
C896 C 0.58142 0.05575 0.81432 0.0
C897 C 0.6146 0.079 0.78366 0.0
C898 C 0.5627 0.06004 0.81703 0.0
C899 C 0.54961 0.05033 0.78861 0.0
C900 C 0.55507 0.03592 0.75809 0.0
C901 C 0.57389 0.03209 0.75471 0.0
C902 C 0.58689 0.0419 0.78245 0.0
H903 H 0.62472 0.09109 0.78228 0.0
H904 H 0.62015 0.06747 0.76201 0.0
H905 H 0.60139 0.08324 0.76766 0.0
H906 H 0.55819 0.0705 0.84196 0.0
H907 H 0.53518 0.05351 0.79201 0.0
H908 H 0.47035 0.68279 0.98005 0.0
H909 H 0.45784 0.65791 0.92819 0.0
H910 H 0.47677 0.61617 0.02544 0.0
H911 H 0.48796 0.64083 0.07885 0.0
H912 H 0.47808 0.63578 0.88377 0.0
H913 H 0.43055 0.59001 0.98545 0.0
H914 H 0.43747 0.61327 0.00609 0.0
H915 H 0.45126 0.59333 0.01943 0.0
C916 C 0.4712 0.66833 0.9913 0.0
C917 C 0.48043 0.66382 0.03335 0.0
C918 C 0.4641 0.65409 0.96145 0.0
C919 C 0.46617 0.63509 0.97292 0.0
C920 C 0.4745 0.63064 0.01612 0.0
H921 H 0.51031 0.55107 0.81738 0.0
H922 H 0.50006 0.57729 0.86459 0.0
C923 C 0.48131 0.64482 0.04625 0.0
C924 C 0.4628 0.6201 0.93688 0.0
H925 H 0.44967 0.57369 0.92619 0.0
C926 C 0.47132 0.62242 0.89265 0.0
C927 C 0.45368 0.60269 0.94757 0.0
C928 C 0.44255 0.59982 0.99208 0.0
C929 C 0.47259 0.60734 0.86108 0.0
C930 C 0.46562 0.58937 0.87461 0.0
C931 C 0.45544 0.58741 0.91649 0.0
C932 C 0.47108 0.57234 0.84888 0.0
C933 C 0.48229 0.61057 0.81451 0.0
C934 C 0.45804 0.56029 0.82633 0.0
C935 C 0.46388 0.54504 0.79937 0.0
C936 C 0.48281 0.54174 0.7948 0.0
C937 C 0.49565 0.55337 0.81949 0.0
C938 C 0.48983 0.56842 0.8464 0.0
H939 H 0.48111 0.62533 0.80258 0.0
H940 H 0.49718 0.60792 0.81889 0.0
H941 H 0.47658 0.60099 0.78656 0.0
H942 H 0.44347 0.56301 0.82837 0.0
H943 H 0.45366 0.53628 0.78083 0.0
H944 H 0.84938 0.46327 0.95952 0.0
H945 H 0.8759 0.45653 0.91066 0.0
H946 H 0.87155 0.39822 0.95126 0.0
H947 H 0.84463 0.40484 0.00033 0.0
H948 H 0.90744 0.4139 0.95811 0.0
H949 H 0.87716 0.42908 0.78371 0.0
H950 H 0.87352 0.44782 0.82483 0.0
H951 H 0.86321 0.42484 0.83567 0.0
C952 C 0.85376 0.44891 0.95737 0.0
C953 C 0.84472 0.43455 0.98335 0.0
C954 C 0.86896 0.44509 0.92943 0.0
C955 C 0.87544 0.42681 0.92659 0.0
C956 C 0.86662 0.41239 0.9527 0.0
H957 H 0.96364 0.42707 0.71803 0.0
H958 H 0.93779 0.41333 0.76293 0.0
C959 C 0.85132 0.41621 0.98079 0.0
C960 C 0.89203 0.42334 0.898 0.0
H961 H 0.91041 0.43309 0.78981 0.0
C962 C 0.90805 0.41765 0.92098 0.0
C963 C 0.89271 0.42774 0.84934 0.0
C964 C 0.87566 0.4325 0.82185 0.0
C965 C 0.92509 0.41786 0.89748 0.0
C966 C 0.9261 0.42432 0.85025 0.0
C967 C 0.90976 0.42839 0.82623 0.0
C968 C 0.94389 0.42927 0.8268 0.0
C969 C 0.94186 0.41165 0.92395 0.0
C970 C 0.95628 0.44236 0.8482 0.0
C971 C 0.97116 0.4501 0.82281 0.0
C972 C 0.97375 0.44518 0.77514 0.0
C973 C 0.96197 0.43126 0.7546 0.0
C974 C 0.94719 0.42337 0.78023 0.0
H975 H 0.93805 0.40048 0.94984 0.0
H976 H 0.95245 0.40628 0.89959 0.0
H977 H 0.94799 0.42376 0.94413 0.0
H978 H 0.9538 0.44756 0.88357 0.0
H979 H 0.9799 0.46083 0.83969 0.0
H980 H 0.04365 0.16827 0.03888 0.0
H981 H 0.0358 0.14558 0.97619 0.0
H982 H 0.09045 0.15311 0.91824 0.0
H983 H 0.09838 0.17614 0.98049 0.0
H984 H 0.05892 0.15084 0.84904 0.0
H985 H 0.05993 0.09259 0.97944 0.0
H986 H 0.04602 0.11207 0.99489 0.0
H987 H 0.07061 0.11547 0.99106 0.0
C988 C 0.05389 0.16545 0.01222 0.0
C989 C 0.07168 0.17397 0.01481 0.0
C990 C 0.04941 0.15236 0.97665 0.0
C991 C 0.06261 0.14755 0.94299 0.0
C992 C 0.0801 0.15662 0.94405 0.0
H993 H 0.06295 0.04573 0.77534 0.0
H994 H 0.07125 0.07336 0.8233 0.0
C995 C 0.08464 0.16967 0.97977 0.0
C996 C 0.05852 0.13216 0.9087 0.0
H997 H 0.05031 0.08472 0.90182 0.0
C998 C 0.05704 0.13637 0.86042 0.0
C999 C 0.0563 0.11331 0.92377 0.0
C1000 C 0.05842 0.10796 0.97504 0.0
C1001 C 0.05307 0.12216 0.82679 0.0
C1002 C 0.05047 0.10335 0.84206 0.0
C1003 C 0.05223 0.09917 0.89027 0.0
C1004 C 0.04607 0.08764 0.80883 0.0
C1005 C 0.05195 0.12727 0.77519 0.0
C1006 C 0.0292 0.0866 0.78436 0.0
C1007 C 0.02434 0.07076 0.7569 0.0
C1008 C 0.03626 0.05564 0.75362 0.0
C1009 C 0.0534 0.05705 0.77707 0.0
C1010 C 0.05819 0.07284 0.80456 0.0
H1011 H 0.05824 0.14146 0.76822 0.0
H1012 H 0.05897 0.11682 0.75297 0.0
H1013 H 0.03726 0.12727 0.76422 0.0
H1014 H 0.01953 0.09776 0.78774 0.0
H1015 H 0.01106 0.07017 0.73926 0.0
H1016 H 0.32967 0.05362 0.99235 0.0
H1017 H 0.35544 0.05448 0.93649 0.0
H1018 H 0.34657 0.99517 0.90957 0.0
H1019 H 0.32096 0.99416 0.96528 0.0
H1020 H 0.38703 0.03484 0.94622 0.0
H1021 H 0.35295 0.01553 0.77669 0.0
H1022 H 0.34024 0.02314 0.8277 0.0
H1023 H 0.34717 -0.00081 0.82293 0.0
C1024 C 0.33304 0.04081 0.97402 0.0
C1025 C 0.32318 0.02382 0.98329 0.0
C1026 C 0.34776 0.04134 0.94204 0.0
C1027 C 0.35283 0.02495 0.9184 0.0
C1028 C 0.34265 0.00811 0.92644 0.0
H1029 H 0.44222 0.98084 0.76428 0.0
H1030 H 0.41426 0.98778 0.80754 0.0
C1031 C 0.32795 0.00756 0.95835 0.0
C1032 C 0.3697 0.02495 0.88866 0.0
H1033 H 0.38571 0.01179 0.78042 0.0
C1034 C 0.38673 0.0301 0.9097 0.0
C1035 C 0.3693 0.01878 0.84102 0.0
C1036 C 0.35141 0.01403 0.8156 0.0
C1037 C 0.40341 0.02836 0.88518 0.0
C1038 C 0.40303 0.02151 0.83814 0.0
C1039 C 0.38598 0.01697 0.81657 0.0
C1040 C 0.42019 0.01773 0.81178 0.0
C1041 C 0.42136 0.03302 0.91048 0.0
C1042 C 0.43285 0.03231 0.79956 0.0
C1043 C 0.44898 0.0284 0.77473 0.0
C1044 C 0.4527 0.00982 0.76158 0.0
C1045 C 0.4399 0.99531 0.77385 0.0
C1046 C 0.42384 -0.00076 0.79851 0.0
H1047 H 0.41941 0.03471 0.94921 0.0
H1048 H 0.4314 0.02187 0.90428 0.0
H1049 H 0.42742 0.0464 0.89648 0.0
H1050 H 0.43017 0.04673 0.80889 0.0
H1051 H 0.45846 0.03992 0.76567 0.0
H1052 H 0.46586 0.29112 0.90234 0.0
H1053 H 0.46544 0.32011 0.85664 0.0
H1054 H 0.42758 0.34332 0.95654 0.0
H1055 H 0.42885 0.31494 0.00417 0.0
H1056 H 0.44033 0.34117 0.81254 0.0
H1057 H 0.47045 0.38066 0.96611 0.0
H1058 H 0.46815 0.35538 0.96504 0.0
H1059 H 0.44848 0.36923 0.97754 0.0
C1060 C 0.45738 0.30235 0.91461 0.0
C1061 C 0.44774 0.30077 0.95764 0.0
C1062 C 0.45705 0.31889 0.88818 0.0
C1063 C 0.44693 0.33413 0.90394 0.0
C1064 C 0.43592 0.33196 0.94443 0.0
H1065 H 0.45504 0.44989 0.79265 0.0
H1066 H 0.44236 0.42139 0.83139 0.0
C1067 C 0.43644 0.31553 0.97127 0.0
C1068 C 0.44911 0.35261 0.87993 0.0
H1069 H 0.46521 0.3979 0.89703 0.0
C1070 C 0.44559 0.35361 0.83113 0.0
C1071 C 0.4561 0.36886 0.90415 0.0
C1072 C 0.46119 0.36852 0.95597 0.0
C1073 C 0.44922 0.37028 0.80583 0.0
C1074 C 0.45654 0.38632 0.82993 0.0
C1075 C 0.45943 0.38557 0.87887 0.0
C1076 C 0.46324 0.40332 0.80432 0.0
C1077 C 0.4456 0.37057 0.75331 0.0
C1078 C 0.47921 0.40254 0.77677 0.0
C1079 C 0.4866 0.41873 0.75529 0.0
C1080 C 0.4781 0.43606 0.76067 0.0
C1081 C 0.46188 0.43676 0.78774 0.0
C1082 C 0.45461 0.42052 0.80982 0.0
H1083 H 0.43618 0.35873 0.74197 0.0
H1084 H 0.43951 0.38403 0.7428 0.0
H1085 H 0.45885 0.36938 0.73419 0.0
H1086 H 0.4862 0.38944 0.77268 0.0
H1087 H 0.49904 0.41763 0.73452 0.0
H1088 H 0.2142 0.52317 0.92646 0.0
H1089 H 0.18798 0.51405 0.87549 0.0
H1090 H 0.16978 0.47264 0.97756 0.0
H1091 H 0.1957 0.48179 0.029 0.0
H1092 H 0.1658 0.46116 0.87827 0.0
H1093 H 0.13595 0.53011 0.92044 0.0
H1094 H 0.15894 0.53118 0.89677 0.0
H1095 H 0.1548 0.52084 0.95375 0.0
C1096 C 0.20477 0.51194 0.93776 0.0
C1097 C 0.20698 0.50335 0.98207 0.0
C1098 C 0.18982 0.50674 0.90859 0.0
C1099 C 0.17681 0.4929 0.9232 0.0
C1100 C 0.17967 0.48337 0.96572 0.0
H1101 H 0.06204 0.48251 0.83857 0.0
H1102 H 0.09109 0.4836 0.88279 0.0
C1103 C 0.19459 0.48856 0.99495 0.0
C1104 C 0.15938 0.48956 0.89655 0.0
H1105 H 0.11942 0.51048 0.86659 0.0
C1106 C 0.15565 0.47192 0.87553 0.0
C1107 C 0.14605 0.50354 0.8939 0.0
C1108 C 0.14898 0.52245 0.91769 0.0
C1109 C 0.139 0.46801 0.85119 0.0
C1110 C 0.12587 0.48215 0.8477 0.0
C1111 C 0.12954 0.49968 0.86924 0.0
C1112 C 0.10824 0.47927 0.82151 0.0
C1113 C 0.13545 0.44871 0.83011 0.0
C1114 C 0.10824 0.47626 0.77247 0.0
C1115 C 0.09167 0.47565 0.74704 0.0
C1116 C 0.07475 0.47813 0.77017 0.0
C1117 C 0.07478 0.48053 0.81959 0.0
C1118 C 0.09137 0.48118 0.84494 0.0
H1119 H 0.14462 0.43821 0.84575 0.0
H1120 H 0.12088 0.44388 0.83539 0.0
H1121 H 0.13811 0.44928 0.79151 0.0
H1122 H 0.12112 0.47509 0.75356 0.0
H1123 H 0.0922 0.4738 0.70903 0.0
H1124 H 0.01726 0.81294 0.36022 0.0
H1125 H 0.01346 0.83771 0.41878 0.0
H1126 H 0.95445 0.83351 0.39903 0.0
H1127 H 0.95827 0.80892 0.33917 0.0
H1128 H 0.96587 0.86875 0.39616 0.0
H1129 H -0.00256 0.83733 0.55328 0.0
H1130 H 0.01319 0.8372 0.5046 0.0
H1131 H 0.99169 0.8237 0.501 0.0
C1132 C 0.00344 0.81695 0.36917 0.0
C1133 C 0.98805 0.80887 0.34536 0.0
C1134 C 0.00127 0.83111 0.40282 0.0
C1135 C 0.98363 0.83727 0.41414 0.0
C1136 C 0.96818 0.82893 0.39113 0.0
H1137 H 0.97949 0.92105 0.64225 0.0
H1138 H 0.97323 0.89255 0.59531 0.0
C1139 C 0.97037 0.81489 0.35698 0.0
C1140 C 0.9816 0.85345 0.44696 0.0
H1141 H -0.00352 0.87128 0.55319 0.0
C1142 C 0.97231 0.86917 0.43085 0.0
C1143 C 0.98961 0.85395 0.49268 0.0
C1144 C -0.00166 0.83704 0.51406 0.0
C1145 C 0.97166 0.88568 0.45808 0.0
C1146 C 0.98109 0.88674 0.50199 0.0
C1147 C 0.98951 0.87067 0.5192 0.0
C1148 C 0.98323 0.90455 0.52955 0.0
C1149 C 0.96087 0.90179 0.43934 0.0
C1150 C 0.99084 0.92085 0.5083 0.0
C1151 C 0.99417 0.93723 0.53486 0.0
C1152 C 0.99036 0.93756 0.58359 0.0
C1153 C 0.9826 0.92128 0.6048 0.0
C1154 C 0.97903 0.90496 0.57801 0.0
H1155 H 0.94937 0.89662 0.41612 0.0
H1156 H 0.95508 0.91025 0.46844 0.0
H1157 H 0.97011 0.91106 0.41773 0.0
H1158 H -0.00523 0.92077 0.47139 0.0
H1159 H 0.00037 0.94942 0.51748 0.0
H1160 H 0.70059 0.02016 0.38653 0.0
H1161 H 0.67455 0.0117 0.43688 0.0
H1162 H 0.66882 0.95771 0.36748 0.0
H1163 H 0.69375 0.96676 0.31377 0.0
H1164 H 0.63721 0.9712 0.37224 0.0
H1165 H 0.66728 0.9807 0.54998 0.0
H1166 H 0.6707 0.00204 0.51745 0.0
H1167 H 0.68142 0.98092 0.49762 0.0
C1168 C 0.69385 0.00646 0.38176 0.0
C1169 C 0.69928 0.99429 0.34536 0.0
C1170 C 0.6791 0.00147 0.41143 0.0
C1171 C 0.66977 0.98392 0.40671 0.0
C1172 C 0.67577 0.97133 0.37206 0.0
H1173 H 0.58106 0.96038 0.61163 0.0
H1174 H 0.60963 0.95808 0.5664 0.0
C1175 C 0.69027 0.97647 0.34163 0.0
C1176 C 0.65272 0.97952 0.43457 0.0
H1177 H 0.63403 0.98311 0.5448 0.0
C1178 C 0.63665 0.97349 0.41015 0.0
C1179 C 0.65187 0.98205 0.48424 0.0
C1180 C 0.66882 0.98656 0.51379 0.0
C1181 C 0.61969 0.97079 0.43346 0.0
C1182 C 0.6185 0.97505 0.48232 0.0
C1183 C 0.63474 0.98018 0.50719 0.0
C1184 C 0.60055 0.97503 0.50794 0.0
C1185 C 0.60332 0.96325 0.40527 0.0
C1186 C 0.5858 0.9852 0.49025 0.0
C1187 C 0.56931 0.98613 0.51548 0.0
C1188 C 0.56738 0.97739 0.55976 0.0
C1189 C 0.58211 0.96722 0.57756 0.0
C1190 C 0.59848 0.96595 0.55177 0.0
H1191 H 0.60777 0.95416 0.3757 0.0
H1192 H 0.59347 0.95497 0.42766 0.0
H1193 H 0.59605 0.97517 0.38951 0.0
H1194 H 0.58718 0.99293 0.45749 0.0
H1195 H 0.55835 0.99435 0.50118 0.0
H1196 H 0.58279 0.6867 0.38115 0.0
H1197 H 0.58311 0.65973 0.4348 0.0
H1198 H 0.52364 0.65815 0.43879 0.0
H1199 H 0.52321 0.68505 0.38585 0.0
H1200 H 0.53853 0.65131 0.5253 0.0
H1201 H 0.57013 0.60692 0.38742 0.0
H1202 H 0.58345 0.62774 0.40359 0.0
H1203 H 0.56151 0.6298 0.37473 0.0
C1204 C 0.5698 0.68073 0.39397 0.0
C1205 C 0.55298 0.688 0.3791 0.0
C1206 C 0.57 0.66527 0.42441 0.0
C1207 C 0.55338 0.65667 0.43996 0.0
C1208 C 0.53664 0.66452 0.42715 0.0
H1209 H 0.52278 0.54433 0.51925 0.0
H1210 H 0.5307 0.5741 0.4805 0.0
C1211 C 0.53643 0.68001 0.39707 0.0
C1212 C 0.55313 0.63896 0.46753 0.0
H1213 H 0.56324 0.59253 0.46029 0.0
C1214 C 0.54408 0.63848 0.51135 0.0
C1215 C 0.56017 0.62218 0.44888 0.0
C1216 C 0.56922 0.62154 0.40091 0.0
C1217 C 0.54149 0.62164 0.53656 0.0
C1218 C 0.54855 0.60487 0.51794 0.0
C1219 C 0.55797 0.60542 0.47464 0.0
C1220 C 0.54507 0.58637 0.54099 0.0
C1221 C 0.53046 0.62182 0.58175 0.0
C1222 C 0.55096 0.58315 0.58747 0.0
C1223 C 0.54633 0.56615 0.60993 0.0
C1224 C 0.5359 0.55196 0.58608 0.0
C1225 C 0.53079 0.55493 0.53875 0.0
C1226 C 0.53531 0.57196 0.5165 0.0
H1227 H 0.52239 0.63473 0.5851 0.0
H1228 H 0.5208 0.60939 0.58365 0.0
H1229 H 0.54001 0.62138 0.61242 0.0
H1230 H 0.55891 0.59388 0.60666 0.0
H1231 H 0.55065 0.56428 0.64625 0.0
H1232 H 0.81875 0.47497 0.40082 0.0
H1233 H 0.84528 0.48173 0.45253 0.0
H1234 H 0.8638 0.52642 0.35971 0.0
H1235 H 0.83754 0.51947 0.30727 0.0
H1236 H 0.89034 0.50035 0.37708 0.0
H1237 H 0.85987 0.52407 0.54561 0.0
H1238 H 0.84937 0.50257 0.52325 0.0
H1239 H 0.84735 0.52394 0.49025 0.0
C1240 C 0.82831 0.48644 0.39184 0.0
C1241 C 0.82604 0.49665 0.34985 0.0
C1242 C 0.84338 0.49041 0.42167 0.0
C1243 C 0.85644 0.5047 0.41023 0.0
C1244 C 0.85381 0.51543 0.3694 0.0
H1245 H 0.95626 0.53039 0.58127 0.0
H1246 H 0.92804 0.53432 0.53462 0.0
C1247 C 0.83871 0.51152 0.33963 0.0
C1248 C 0.87384 0.50694 0.43777 0.0
H1249 H 0.89105 0.51385 0.5494 0.0
C1250 C 0.89051 0.50358 0.41461 0.0
C1251 C 0.87408 0.51128 0.48666 0.0
C1252 C 0.85673 0.51585 0.51288 0.0
C1253 C 0.90728 0.50361 0.43944 0.0
C1254 C 0.90738 0.50695 0.48873 0.0
C1255 C 0.89088 0.51116 0.51161 0.0
C1256 C 0.92429 0.50481 0.51735 0.0
C1257 C 0.92476 0.49968 0.41297 0.0
C1258 C 0.93136 0.48691 0.52331 0.0
C1259 C 0.94733 0.4846 0.54997 0.0
C1260 C 0.95665 0.50017 0.57119 0.0
C1261 C 0.94949 0.51813 0.56524 0.0
C1262 C 0.93336 0.5204 0.53876 0.0
H1263 H 0.92312 0.50169 0.37426 0.0
H1264 H 0.93639 0.50894 0.42581 0.0
H1265 H 0.92843 0.48489 0.41914 0.0
H1266 H 0.92446 0.47469 0.50738 0.0
H1267 H 0.95239 0.47056 0.55375 0.0
loop_
_geom_bond_atom_site_label_1
_geom_bond_atom_site_label_2
_geom_bond_distance
_geom_bond_site_symmetry_2
_ccdc_geom_bond_type
C0 C1 1.386 . S
C0 C2 1.397 . S
C0 H24 0.931 . S
C1 C0 1.386 . S
C1 C5 1.397 . S
C2 C0 1.397 . S
C2 C3 1.384 . S
C2 H25 0.930 . S
C3 C2 1.384 . S
C3 C4 1.377 . S
C3 C6 1.481 1_556 S
C4 C3 1.377 . S
C4 C5 1.389 . S
C4 H26 0.929 . S
C5 C1 1.397 . S
C5 C4 1.389 . S
C5 H27 0.931 . S
C6 C3 1.481 1_554 S
C6 C7 1.387 1_554 S
C6 C11 1.390 . S
C7 C6 1.387 1_556 S
C7 C8 1.401 1_556 S
C7 H28 0.930 . S
C8 C7 1.401 1_554 S
C8 C9 1.376 . S
C8 C17 1.511 . S
C9 C8 1.376 . S
C9 C10 1.392 . S
C9 H30 0.931 . S
C10 C9 1.392 . S
C10 C11 1.361 . S
C10 C12 1.500 . S
C11 C6 1.390 . S
C11 C10 1.361 . S
C11 H29 0.931 . S
C12 C10 1.500 . S
C12 C13 1.371 . S
C12 C14 1.365 . S
C13 C12 1.371 . S
C13 C23 1.386 . S
C13 H31 0.931 . S
C14 C12 1.365 . S
C14 C15 1.409 . S
C14 H32 0.929 . S
C15 C14 1.409 . S
C15 C16 1.380 . S
C15 H33 0.930 . S
C16 C15 1.380 . S
C16 C23 1.357 . S
C17 C8 1.511 . S
C17 C18 1.341 1_554 S
C17 C19 1.371 . S
C18 C17 1.341 1_556 S
C18 C22 1.394 . S
C18 H34 0.930 . S
C19 C17 1.371 . S
C19 C20 1.392 . S
C19 H35 0.931 . S
C20 C19 1.392 . S
C20 C21 1.331 1_554 S
C20 H38 0.932 . S
C21 C20 1.331 1_556 S
C21 C22 1.336 . S
C22 C18 1.394 . S
C22 C21 1.336 . S
C22 H37 0.929 . S
C23 C13 1.386 . S
C23 C16 1.357 . S
C23 H36 0.928 . S
H24 C0 0.931 . S
H25 C2 0.930 . S
H26 C4 0.929 . S
H27 C5 0.931 . S
H28 C7 0.930 . S
H29 C11 0.931 . S
H30 C9 0.931 . S
H31 C13 0.931 . S
H32 C14 0.929 . S
H33 C15 0.930 . S
H34 C18 0.930 . S
H35 C19 0.931 . S
H36 C23 0.928 . S
H37 C22 0.929 . S
H38 C20 0.932 . S
C39 C40 1.386 . S
C39 C41 1.397 . S
C39 H63 0.931 . S
C40 C39 1.386 . S
C40 C44 1.397 1_656 S
C41 C39 1.397 . S
C41 C42 1.384 1_556 S
C41 H64 0.930 . S
C42 C41 1.384 1_554 S
C42 C43 1.377 1_655 S
C42 C45 1.481 . S
C43 C42 1.377 1_455 S
C43 C44 1.389 . S
C43 H65 0.929 . S
C44 C40 1.397 1_454 S
C44 C43 1.389 . S
C44 H66 0.931 . S
C45 C42 1.481 . S
C45 C46 1.387 . S
C45 C50 1.390 . S
C46 C45 1.387 . S
C46 C47 1.401 . S
C46 H67 0.930 . S
C47 C46 1.401 . S
C47 C48 1.376 . S
C47 C56 1.511 . S
C48 C47 1.376 . S
C48 C49 1.392 . S
C48 H69 0.931 . S
C49 C48 1.392 . S
C49 C50 1.361 . S
C49 C51 1.500 . S
C50 C45 1.390 . S
C50 C49 1.361 . S
C50 H68 0.931 . S
C51 C49 1.500 . S
C51 C52 1.371 . S
C51 C53 1.365 1_655 S
C52 C51 1.371 . S
C52 C62 1.386 . S
C52 H70 0.931 . S
C53 C51 1.365 1_455 S
C53 C54 1.409 . S
C53 H71 0.929 . S
C54 C53 1.409 . S
C54 C55 1.380 1_455 S
C54 H72 0.930 . S
C55 C54 1.380 1_655 S
C55 C62 1.357 . S
C56 C47 1.511 . S
C56 C57 1.341 . S
C56 C58 1.371 . S
C57 C56 1.341 . S
C57 C61 1.394 . S
C57 H73 0.930 . S
C58 C56 1.371 . S
C58 C59 1.392 . S
C58 H74 0.931 . S
C59 C58 1.392 . S
C59 C60 1.331 . S
C59 H77 0.932 . S
C60 C59 1.331 . S
C60 C61 1.336 . S
C61 C57 1.394 . S
C61 C60 1.336 . S
C61 H76 0.929 1_554 S
C62 C52 1.386 . S
C62 C55 1.357 . S
C62 H75 0.928 . S
H63 C39 0.931 . S
H64 C41 0.930 . S
H65 C43 0.929 . S
H66 C44 0.931 . S
H67 C46 0.930 . S
H68 C50 0.931 . S
H69 C48 0.931 . S
H70 C52 0.931 . S
H71 C53 0.929 . S
H72 C54 0.930 . S
H73 C57 0.930 . S
H74 C58 0.931 . S
H75 C62 0.928 . S
H76 C61 0.929 1_556 S
H77 C59 0.932 . S
C78 C79 1.388 . S
C78 C80 1.397 . S
C78 H102 0.931 . S
C79 C78 1.388 . S
C79 C83 1.395 1_565 S
C80 C78 1.397 . S
C80 C81 1.386 . S
C80 H103 0.930 . S
C81 C80 1.386 . S
C81 C82 1.376 1_565 S
C81 C84 1.480 1_556 S
C82 C81 1.376 1_545 S
C82 C83 1.389 . S
C82 H104 0.929 1_556 S
C83 C79 1.395 1_545 S
C83 C82 1.389 . S
C83 H105 0.931 . S
C84 C81 1.480 1_554 S
C84 C85 1.390 . S
C84 C89 1.390 . S
C85 C84 1.390 . S
C85 C86 1.401 . S
C85 H106 0.930 1_554 S
C86 C85 1.401 . S
C86 C87 1.376 . S
C86 C95 1.514 . S
C87 C86 1.376 . S
C87 C88 1.390 . S
C87 H108 0.936 . S
C88 C87 1.390 . S
C88 C89 1.361 . S
C88 C90 1.499 1_565 S
C89 C84 1.390 . S
C89 C88 1.361 . S
C89 H107 0.931 . S
C90 C88 1.499 1_545 S
C90 C91 1.362 1_545 S
C90 C92 1.375 . S
C91 C90 1.362 1_565 S
C91 C101 1.386 . S
C91 H109 0.931 . S
C92 C90 1.375 . S
C92 C93 1.409 . S
C92 H110 0.929 . S
C93 C92 1.409 . S
C93 C94 1.380 . S
C93 H111 0.930 . S
C94 C93 1.380 . S
C94 C101 1.357 1_545 S
C95 C86 1.514 . S
C95 C96 1.341 . S
C95 C97 1.371 1_565 S
C96 C95 1.341 . S
C96 C100 1.394 1_554 S
C96 H112 0.930 1_554 S
C97 C95 1.371 1_545 S
C97 C98 1.392 . S
C97 H113 0.931 . S
C98 C97 1.392 . S
C98 C99 1.318 1_545 S
C98 H116 0.932 . S
C99 C98 1.318 1_565 S
C99 C100 1.349 1_554 S
C100 C96 1.394 1_556 S
C100 C99 1.349 1_556 S
C100 H115 0.929 . S
C101 C91 1.386 . S
C101 C94 1.357 1_565 S
C101 H114 0.928 . S
H102 C78 0.931 . S
H103 C80 0.930 . S
H104 C82 0.929 1_554 S
H105 C83 0.931 . S
H106 C85 0.930 1_556 S
H107 C89 0.931 . S
H108 C87 0.936 . S
H109 C91 0.931 . S
H110 C92 0.929 . S
H111 C93 0.930 . S
H112 C96 0.930 1_556 S
H113 C97 0.931 . S
H114 C101 0.928 . S
H115 C100 0.929 . S
H116 C98 0.932 . S
C117 C118 1.386 . S
C117 C119 1.397 . S
C117 H141 0.931 . S
C118 C117 1.386 . S
C118 C122 1.397 . S
C119 C117 1.397 . S
C119 C120 1.384 . S
C119 H142 0.930 . S
C120 C119 1.384 . S
C120 C121 1.377 . S
C120 C123 1.481 . S
C121 C120 1.377 . S
C121 C122 1.389 . S
C121 H143 0.929 . S
C122 C118 1.397 . S
C122 C121 1.389 . S
C122 H144 0.931 . S
C123 C120 1.481 . S
C123 C124 1.387 . S
C123 C128 1.390 . S
C124 C123 1.387 . S
C124 C125 1.401 . S
C124 H145 0.930 . S
C125 C124 1.401 . S
C125 C126 1.376 . S
C125 C134 1.511 . S
C126 C125 1.376 . S
C126 C127 1.392 . S
C126 H147 0.931 1_554 S
C127 C126 1.392 . S
C127 C128 1.361 . S
C127 C129 1.500 1_554 S
C128 C123 1.390 . S
C128 C127 1.361 . S
C128 H146 0.931 . S
C129 C127 1.500 1_556 S
C129 C130 1.371 . S
C129 C131 1.365 . S
C130 C129 1.371 . S
C130 C140 1.386 . S
C130 H148 0.931 . S
C131 C129 1.365 . S
C131 C132 1.409 . S
C131 H149 0.929 1_556 S
C132 C131 1.409 . S
C132 C133 1.380 . S
C132 H150 0.930 . S
C133 C132 1.380 . S
C133 C140 1.357 . S
C134 C125 1.511 . S
C134 C135 1.341 . S
C134 C136 1.371 1_554 S
C135 C134 1.341 . S
C135 C139 1.394 . S
C135 H151 0.930 . S
C136 C134 1.371 1_556 S
C136 C137 1.392 . S
C136 H152 0.931 . S
C137 C136 1.392 . S
C137 C138 1.331 1_556 S
C137 H155 0.932 . S
C138 C137 1.331 1_554 S
C138 C139 1.336 . S
C139 C135 1.394 . S
C139 C138 1.336 . S
C139 H154 0.929 . S
C140 C130 1.386 . S
C140 C133 1.357 . S
C140 H153 0.928 . S
H141 C117 0.931 . S
H142 C119 0.930 . S
H143 C121 0.929 . S
H144 C122 0.931 . S
H145 C124 0.930 . S
H146 C128 0.931 . S
H147 C126 0.931 1_556 S
H148 C130 0.931 . S
H149 C131 0.929 1_554 S
H150 C132 0.930 . S
H151 C135 0.930 . S
H152 C136 0.931 . S
H153 C140 0.928 . S
H154 C139 0.929 . S
H155 C137 0.932 . S
C156 C157 1.386 . S
C156 C158 1.397 . S
C156 H180 0.931 . S
C157 C156 1.386 . S
C157 C161 1.397 . S
C158 C156 1.397 . S
C158 C159 1.384 . S
C158 H181 0.930 . S
C159 C158 1.384 . S
C159 C160 1.377 . S
C159 C162 1.481 . S
C160 C159 1.377 . S
C160 C161 1.389 . S
C160 H182 0.929 . S
C161 C157 1.397 . S
C161 C160 1.389 . S
C161 H183 0.931 . S
C162 C159 1.481 . S
C162 C163 1.387 . S
C162 C167 1.390 . S
C163 C162 1.387 . S
C163 C164 1.401 . S
C163 H184 0.930 . S
C164 C163 1.401 . S
C164 C165 1.376 . S
C164 C173 1.511 . S
C165 C164 1.376 . S
C165 C166 1.392 . S
C165 H186 0.931 . S
C166 C165 1.392 . S
C166 C167 1.361 . S
C166 C168 1.500 . S
C167 C162 1.390 . S
C167 C166 1.361 . S
C167 H185 0.931 . S
C168 C166 1.500 . S
C168 C169 1.371 . S
C168 C170 1.365 . S
C169 C168 1.371 . S
C169 C179 1.386 . S
C169 H187 0.931 . S
C170 C168 1.365 . S
C170 C171 1.409 . S
C170 H188 0.929 . S
C171 C170 1.409 . S
C171 C172 1.380 . S
C171 H189 0.930 . S
C172 C171 1.380 . S
C172 C179 1.357 . S
C173 C164 1.511 . S
C173 C174 1.341 . S
C173 C175 1.371 . S
C174 C173 1.341 . S
C174 C178 1.394 . S
C174 H190 0.930 . S
C175 C173 1.371 . S
C175 C176 1.392 . S
C175 H191 0.931 . S
C176 C175 1.392 . S
C176 C177 1.331 . S
C176 H194 0.932 . S
C177 C176 1.331 . S
C177 C178 1.336 . S
C178 C174 1.394 . S
C178 C177 1.336 . S
C178 H193 0.929 . S
C179 C169 1.386 . S
C179 C172 1.357 . S
C179 H192 0.928 . S
H180 C156 0.931 . S
H181 C158 0.930 . S
H182 C160 0.929 . S
H183 C161 0.931 . S
H184 C163 0.930 . S
H185 C167 0.931 . S
H186 C165 0.931 . S
H187 C169 0.931 . S
H188 C170 0.929 . S
H189 C171 0.930 . S
H190 C174 0.930 . S
H191 C175 0.931 . S
H192 C179 0.928 . S
H193 C178 0.929 . S
H194 C176 0.932 . S
C195 C196 1.386 . S
C195 C197 1.397 . S
C195 H219 0.931 . S
C196 C195 1.386 . S
C196 C200 1.397 . S
C197 C195 1.397 . S
C197 C198 1.384 . S
C197 H220 0.930 . S
C198 C197 1.384 . S
C198 C199 1.377 . S
C198 C201 1.481 . S
C199 C198 1.377 . S
C199 C200 1.389 . S
C199 H221 0.929 . S
C200 C196 1.397 . S
C200 C199 1.389 . S
C200 H222 0.931 . S
C201 C198 1.481 . S
C201 C202 1.387 . S
C201 C206 1.390 . S
C202 C201 1.387 . S
C202 C203 1.401 . S
C202 H223 0.930 . S
C203 C202 1.401 . S
C203 C204 1.376 . S
C203 C212 1.511 . S
C204 C203 1.376 . S
C204 C205 1.392 . S
C204 H225 0.931 . S
C205 C204 1.392 . S
C205 C206 1.361 . S
C205 C207 1.500 . S
C206 C201 1.390 . S
C206 C205 1.361 . S
C206 H224 0.931 . S
C207 C205 1.500 . S
C207 C208 1.371 . S
C207 C209 1.365 . S
C208 C207 1.371 . S
C208 C218 1.386 . S
C208 H226 0.931 . S
C209 C207 1.365 . S
C209 C210 1.409 . S
C209 H227 0.929 . S
C210 C209 1.409 . S
C210 C211 1.380 . S
C210 H228 0.930 . S
C211 C210 1.380 . S
C211 C218 1.357 . S
C212 C203 1.511 . S
C212 C213 1.341 . S
C212 C214 1.371 . S
C213 C212 1.341 . S
C213 C217 1.394 . S
C213 H229 0.930 . S
C214 C212 1.371 . S
C214 C215 1.392 . S
C214 H230 0.931 . S
C215 C214 1.392 . S
C215 C216 1.331 . S
C215 H233 0.932 . S
C216 C215 1.331 . S
C216 C217 1.336 . S
C217 C213 1.394 . S
C217 C216 1.336 . S
C217 H232 0.929 . S
C218 C208 1.386 . S
C218 C211 1.357 . S
C218 H231 0.928 . S
H219 C195 0.931 . S
H220 C197 0.930 . S
H221 C199 0.929 . S
H222 C200 0.931 . S
H223 C202 0.930 . S
H224 C206 0.931 . S
H225 C204 0.931 . S
H226 C208 0.931 . S
H227 C209 0.929 . S
H228 C210 0.930 . S
H229 C213 0.930 . S
H230 C214 0.931 . S
H231 C218 0.928 . S
H232 C217 0.929 . S
H233 C215 0.932 . S
C234 C235 1.387 1_565 S
C234 C236 1.397 . S
C234 H258 0.931 . S
C235 C234 1.387 1_545 S
C235 C239 1.396 . S
C236 C234 1.397 . S
C236 C237 1.385 1_565 S
C236 H259 0.930 . S
C237 C236 1.385 1_545 S
C237 C238 1.376 . S
C237 C240 1.481 1_545 S
C238 C237 1.376 . S
C238 C239 1.389 . S
C238 H260 0.929 . S
C239 C235 1.396 . S
C239 C238 1.389 . S
C239 H261 0.931 . S
C240 C237 1.481 1_565 S
C240 C241 1.388 . S
C240 C245 1.390 . S
C241 C240 1.388 . S
C241 C242 1.399 . S
C241 H262 0.935 . S
C242 C241 1.399 . S
C242 C243 1.376 . S
C242 C251 1.511 . S
C243 C242 1.376 . S
C243 C244 1.393 1_565 S
C243 H264 0.932 . S
C244 C243 1.393 1_545 S
C244 C245 1.361 1_545 S
C244 C246 1.499 . S
C245 C240 1.390 . S
C245 C244 1.361 1_565 S
C245 H263 0.931 1_565 S
C246 C244 1.499 . S
C246 C247 1.357 1_545 S
C246 C248 1.380 . S
C247 C246 1.357 1_565 S
C247 C257 1.386 . S
C247 H265 0.931 . S
C248 C246 1.380 . S
C248 C249 1.409 . S
C248 H266 0.929 . S
C249 C248 1.409 . S
C249 C250 1.386 . S
C249 H267 0.930 . S
C250 C249 1.386 . S
C250 C257 1.352 1_545 S
C251 C242 1.511 . S
C251 C252 1.341 . S
C251 C253 1.371 1_565 S
C252 C251 1.341 . S
C252 C256 1.394 . S
C252 H268 0.930 . S
C253 C251 1.371 1_545 S
C253 C254 1.392 . S
C253 H269 0.931 . S
C254 C253 1.392 . S
C254 C255 1.322 1_545 S
C254 H272 0.932 . S
C255 C254 1.322 1_565 S
C255 C256 1.347 . S
C256 C252 1.394 . S
C256 C255 1.347 . S
C256 H271 0.929 . S
C257 C247 1.386 . S
C257 C250 1.352 1_565 S
C257 H270 0.928 . S
H258 C234 0.931 . S
H259 C236 0.930 . S
H260 C238 0.929 . S
H261 C239 0.931 . S
H262 C241 0.935 . S
H263 C245 0.931 1_545 S
H264 C243 0.932 . S
H265 C247 0.931 . S
H266 C248 0.929 . S
H267 C249 0.930 . S
H268 C252 0.930 . S
H269 C253 0.931 . S
H270 C257 0.928 . S
H271 C256 0.929 . S
H272 C254 0.932 . S
C273 C274 1.386 . S
C273 C275 1.397 . S
C273 H297 0.931 . S
C274 C273 1.386 . S
C274 C278 1.397 . S
C275 C273 1.397 . S
C275 C276 1.384 . S
C275 H298 0.930 . S
C276 C275 1.384 . S
C276 C277 1.377 . S
C276 C279 1.481 . S
C277 C276 1.377 . S
C277 C278 1.389 . S
C277 H299 0.929 . S
C278 C274 1.397 . S
C278 C277 1.389 . S
C278 H300 0.931 . S
C279 C276 1.481 . S
C279 C280 1.387 . S
C279 C284 1.390 . S
C280 C279 1.387 . S
C280 C281 1.401 . S
C280 H301 0.930 . S
C281 C280 1.401 . S
C281 C282 1.376 . S
C281 C290 1.511 . S
C282 C281 1.376 . S
C282 C283 1.392 . S
C282 H303 0.931 . S
C283 C282 1.392 . S
C283 C284 1.361 . S
C283 C285 1.500 . S
C284 C279 1.390 . S
C284 C283 1.361 . S
C284 H302 0.931 . S
C285 C283 1.500 . S
C285 C286 1.371 . S
C285 C287 1.365 . S
C286 C285 1.371 . S
C286 C296 1.386 . S
C286 H304 0.931 . S
C287 C285 1.365 . S
C287 C288 1.409 . S
C287 H305 0.929 . S
C288 C287 1.409 . S
C288 C289 1.380 . S
C288 H306 0.930 . S
C289 C288 1.380 . S
C289 C296 1.357 . S
C290 C281 1.511 . S
C290 C291 1.341 . S
C290 C292 1.371 . S
C291 C290 1.341 . S
C291 C295 1.394 . S
C291 H307 0.930 . S
C292 C290 1.371 . S
C292 C293 1.392 . S
C292 H308 0.931 . S
C293 C292 1.392 . S
C293 C294 1.331 . S
C293 H311 0.932 . S
C294 C293 1.331 . S
C294 C295 1.336 . S
C295 C291 1.394 . S
C295 C294 1.336 . S
C295 H310 0.929 . S
C296 C286 1.386 . S
C296 C289 1.357 . S
C296 H309 0.928 . S
H297 C273 0.931 . S
H298 C275 0.930 . S
H299 C277 0.929 . S
H300 C278 0.931 . S
H301 C280 0.930 . S
H302 C284 0.931 . S
H303 C282 0.931 . S
H304 C286 0.931 . S
H305 C287 0.929 . S
H306 C288 0.930 . S
H307 C291 0.930 . S
H308 C292 0.931 . S
H309 C296 0.928 . S
H310 C295 0.929 . S
H311 C293 0.932 . S
O312 Zn313 1.954 . S
O312 C328 1.232 . S
Zn313 O312 1.954 . S
Zn313 O314 1.948 . S
Zn313 O320 1.885 1_565 S
Zn313 O325 1.965 . S
O314 Zn313 1.948 . S
O314 Zn315 1.904 1_565 S
O314 Zn316 1.952 . S
O314 Zn317 1.960 . S
Zn315 O314 1.904 1_545 S
Zn315 O318 1.933 1_455 S
Zn315 O321 1.941 . S
Zn315 O322 1.965 . S
Zn316 O314 1.952 . S
Zn316 O323 1.938 1_565 S
Zn316 O324 1.906 . S
Zn316 O334 1.953 . S
Zn317 O314 1.960 . S
Zn317 O319 1.932 1_455 S
Zn317 O326 1.977 . S
Zn317 O327 1.910 . S
O318 Zn315 1.933 1_655 S
O318 C329 1.226 . S
O319 Zn317 1.932 1_655 S
O319 C329 1.307 1_565 S
O320 Zn313 1.885 1_545 S
O320 C331 1.253 . S
O321 Zn315 1.941 . S
O321 C331 1.283 . S
O322 Zn315 1.965 . S
O322 C330 1.303 . S
O323 Zn316 1.938 1_545 S
O323 C330 1.247 . S
O324 Zn316 1.906 . S
O324 C332 1.304 . S
O325 Zn313 1.965 . S
O325 C333 1.311 . S
O326 Zn317 1.977 . S
O326 C332 1.272 . S
O327 Zn317 1.910 . S
O327 C333 1.231 . S
C328 O312 1.232 . S
C328 O334 1.298 . S
C329 O318 1.226 . S
C329 O319 1.307 1_545 S
C330 O322 1.303 . S
C330 O323 1.247 . S
C331 O320 1.253 . S
C331 O321 1.283 . S
C332 O324 1.304 . S
C332 O326 1.272 . S
C333 O325 1.311 . S
C333 O327 1.231 . S
O334 Zn316 1.953 . S
O334 C328 1.298 . S
O335 Zn336 1.953 . S
O335 C351 1.225 . S
Zn336 O335 1.953 . S
Zn336 O337 1.949 . S
Zn336 O343 1.919 . S
Zn336 O348 1.924 . S
O337 Zn336 1.949 . S
O337 Zn338 1.923 1_545 S
O337 Zn339 1.950 . S
O337 Zn340 1.945 1_545 S
Zn338 O337 1.923 1_565 S
Zn338 O341 1.933 . S
Zn338 O344 1.941 . S
Zn338 O345 1.965 . S
Zn339 O337 1.950 . S
Zn339 O346 1.938 . S
Zn339 O347 1.896 1_545 S
Zn339 O357 1.953 . S
Zn340 O337 1.945 1_565 S
Zn340 O342 1.932 . S
Zn340 O349 1.977 . S
Zn340 O350 1.910 1_565 S
O341 Zn338 1.933 . S
O341 C352 1.226 . S
O342 Zn340 1.932 . S
O342 C352 1.307 . S
O343 Zn336 1.919 . S
O343 C354 1.253 . S
O344 Zn338 1.941 . S
O344 C354 1.283 1_565 S
O345 Zn338 1.965 . S
O345 C353 1.303 . S
O346 Zn339 1.938 . S
O346 C353 1.247 1_545 S
O347 Zn339 1.896 1_565 S
O347 C355 1.319 . S
O348 Zn336 1.924 . S
O348 C356 1.311 . S
O349 Zn340 1.977 . S
O349 C355 1.272 . S
O350 Zn340 1.910 1_545 S
O350 C356 1.231 . S
C351 O335 1.225 . S
C351 O357 1.298 . S
C352 O341 1.226 . S
C352 O342 1.307 . S
C353 O345 1.303 . S
C353 O346 1.247 1_565 S
C354 O343 1.253 . S
C354 O344 1.283 1_545 S
C355 O347 1.319 . S
C355 O349 1.272 . S
C356 O348 1.311 . S
C356 O350 1.231 . S
O357 Zn339 1.953 . S
O357 C351 1.298 . S
O358 Zn359 1.953 . S
O358 C374 1.225 . S
Zn359 O358 1.953 . S
Zn359 O360 1.949 . S
Zn359 O366 1.919 . S
Zn359 O371 1.924 . S
O360 Zn359 1.949 . S
O360 Zn361 1.923 . S
O360 Zn362 1.950 . S
O360 Zn363 1.945 . S
Zn361 O360 1.923 . S
Zn361 O364 1.933 . S
Zn361 O367 1.941 . S
Zn361 O368 1.965 . S
Zn362 O360 1.950 . S
Zn362 O369 1.938 . S
Zn362 O370 1.906 . S
Zn362 O380 1.953 . S
Zn363 O360 1.945 . S
Zn363 O365 1.932 . S
Zn363 O372 1.977 . S
Zn363 O373 1.910 . S
O364 Zn361 1.933 . S
O364 C375 1.226 . S
O365 Zn363 1.932 . S
O365 C375 1.307 . S
O366 Zn359 1.919 . S
O366 C377 1.253 . S
O367 Zn361 1.941 . S
O367 C377 1.283 . S
O368 Zn361 1.965 . S
O368 C376 1.303 . S
O369 Zn362 1.938 . S
O369 C376 1.247 . S
O370 Zn362 1.906 . S
O370 C378 1.304 . S
O371 Zn359 1.924 . S
O371 C379 1.311 . S
O372 Zn363 1.977 . S
O372 C378 1.272 . S
O373 Zn363 1.910 . S
O373 C379 1.231 . S
C374 O358 1.225 . S
C374 O380 1.298 . S
C375 O364 1.226 . S
C375 O365 1.307 . S
C376 O368 1.303 . S
C376 O369 1.247 . S
C377 O366 1.253 . S
C377 O367 1.283 . S
C378 O370 1.304 . S
C378 O372 1.272 . S
C379 O371 1.311 . S
C379 O373 1.231 . S
O380 Zn362 1.953 . S
O380 C374 1.298 . S
O381 Zn382 1.953 1_655 S
O381 C397 1.225 . S
Zn382 O381 1.953 1_455 S
Zn382 O383 1.949 . S
Zn382 O389 1.919 . S
Zn382 O394 1.924 . S
O383 Zn382 1.949 . S
O383 Zn384 1.923 . S
O383 Zn385 1.950 1_455 S
O383 Zn386 1.945 . S
Zn384 O383 1.923 . S
Zn384 O387 1.933 . S
Zn384 O390 1.941 . S
Zn384 O391 1.965 1_455 S
Zn385 O383 1.950 1_655 S
Zn385 O392 1.938 . S
Zn385 O393 1.906 1_655 S
Zn385 O403 1.953 . S
Zn386 O383 1.945 . S
Zn386 O388 1.932 . S
Zn386 O395 1.977 . S
Zn386 O396 1.910 . S
O387 Zn384 1.933 . S
O387 C398 1.226 . S
O388 Zn386 1.932 . S
O388 C398 1.307 . S
O389 Zn382 1.919 . S
O389 C400 1.253 . S
O390 Zn384 1.941 . S
O390 C400 1.283 . S
O391 Zn384 1.965 1_655 S
O391 C399 1.303 . S
O392 Zn385 1.938 . S
O392 C399 1.247 . S
O393 Zn385 1.906 1_455 S
O393 C401 1.304 . S
O394 Zn382 1.924 . S
O394 C402 1.311 . S
O395 Zn386 1.977 . S
O395 C401 1.272 . S
O396 Zn386 1.910 . S
O396 C402 1.231 . S
C397 O381 1.225 . S
C397 O403 1.298 . S
C398 O387 1.226 . S
C398 O388 1.307 . S
C399 O391 1.303 . S
C399 O392 1.247 . S
C400 O389 1.253 . S
C400 O390 1.283 . S
C401 O393 1.304 . S
C401 O395 1.272 . S
C402 O394 1.311 . S
C402 O396 1.231 . S
O403 Zn385 1.953 . S
O403 C397 1.298 . S
H404 C412 0.929 . S
H405 C414 0.930 . S
H406 C416 0.930 . S
H407 C419 0.929 . S
H408 C422 0.930 . S
H409 C424 0.960 . S
H410 C424 0.960 . S
H411 C424 0.960 . S
C412 H404 0.929 . S
C412 C413 1.358 1_545 S
C412 C414 1.384 . S
C413 C412 1.358 1_565 S
C413 C419 1.409 . S
C414 H405 0.930 . S
C414 C412 1.384 . S
C414 C415 1.334 1_545 S
C415 C414 1.334 1_565 S
C415 C416 1.440 . S
C415 C420 1.490 . S
C416 H406 0.930 . S
C416 C415 1.440 . S
C416 C419 1.386 . S
H417 C433 0.930 . S
H418 C434 0.931 . S
C419 H407 0.929 . S
C419 C413 1.409 . S
C419 C416 1.386 . S
C420 C415 1.490 . S
C420 C422 1.352 1_565 S
C420 C423 1.443 . S
H421 C427 0.930 . S
C422 H408 0.930 . S
C422 C420 1.352 1_545 S
C422 C425 1.403 . S
C423 C420 1.443 . S
C423 C424 1.524 . S
C423 C427 1.400 . S
C424 H409 0.960 . S
C424 H410 0.960 . S
C424 H411 0.960 . S
C424 C423 1.524 . S
C425 C422 1.403 . S
C425 C426 1.402 . S
C425 C429 1.495 . S
C426 C425 1.402 . S
C426 C427 1.375 1_545 S
C426 C428 1.478 1_545 S
C427 H421 0.930 . S
C427 C423 1.400 . S
C427 C426 1.375 1_565 S
C428 C426 1.478 1_565 S
C428 C430 1.365 1_565 S
C428 C434 1.401 . S
C429 C425 1.495 . S
C429 H435 0.959 . S
C429 H436 0.961 . S
C429 H437 0.960 . S
C430 C428 1.365 1_545 S
C430 C431 1.394 . S
C430 H438 0.930 . S
C431 C430 1.394 . S
C431 C432 1.383 1_545 S
C431 H439 0.929 . S
C432 C431 1.383 1_565 S
C432 C433 1.377 . S
C433 H417 0.930 . S
C433 C432 1.377 . S
C433 C434 1.379 . S
C434 H418 0.931 . S
C434 C428 1.401 . S
C434 C433 1.379 . S
H435 C429 0.959 . S
H436 C429 0.961 . S
H437 C429 0.960 . S
H438 C430 0.930 . S
H439 C431 0.929 . S
H440 C448 0.929 . S
H441 C450 0.930 . S
H442 C452 0.930 . S
H443 C455 0.929 . S
H444 C458 0.930 . S
H445 C460 0.960 . S
H446 C460 0.960 . S
H447 C460 0.960 . S
C448 H440 0.929 . S
C448 C449 1.377 . S
C448 C450 1.384 . S
C449 C448 1.377 . S
C449 C455 1.390 . S
C450 H441 0.930 . S
C450 C448 1.384 . S
C450 C451 1.372 . S
C451 C450 1.372 . S
C451 C452 1.400 . S
C451 C456 1.490 . S
C452 H442 0.930 . S
C452 C451 1.400 . S
C452 C455 1.386 . S
H453 C469 0.930 . S
H454 C470 0.931 . S
C455 H443 0.929 . S
C455 C449 1.390 . S
C455 C452 1.386 . S
C456 C451 1.490 . S
C456 C458 1.395 . S
C456 C459 1.403 . S
H457 C463 0.930 . S
C458 H444 0.930 . S
C458 C456 1.395 . S
C458 C461 1.403 . S
C459 C456 1.403 . S
C459 C460 1.524 . S
C459 C463 1.400 . S
C460 H445 0.960 . S
C460 H446 0.960 . S
C460 H447 0.960 . S
C460 C459 1.524 . S
C461 C458 1.403 . S
C461 C462 1.392 . S
C461 C465 1.495 . S
C462 C461 1.392 . S
C462 C463 1.385 . S
C462 C464 1.478 . S
C463 H457 0.930 . S
C463 C459 1.400 . S
C463 C462 1.385 . S
C464 C462 1.478 . S
C464 C466 1.381 . S
C464 C470 1.383 . S
C465 C461 1.495 . S
C465 H471 0.959 . S
C465 H472 0.961 . S
C465 H473 0.960 . S
C466 C464 1.381 . S
C466 C467 1.394 . S
C466 H474 0.930 . S
C467 C466 1.394 . S
C467 C468 1.383 . S
C467 H475 0.929 . S
C468 C467 1.383 . S
C468 C469 1.377 . S
C469 H453 0.930 . S
C469 C468 1.377 . S
C469 C470 1.379 . S
C470 H454 0.931 . S
C470 C464 1.383 . S
C470 C469 1.379 . S
H471 C465 0.959 . S
H472 C465 0.961 . S
H473 C465 0.960 . S
H474 C466 0.930 . S
H475 C467 0.929 . S
H476 C484 0.929 . S
H477 C486 0.930 . S
H478 C488 0.930 . S
H479 C491 0.929 . S
H480 C494 0.930 . S
H481 C496 0.960 . S
H482 C496 0.960 . S
H483 C496 0.960 . S
C484 H476 0.929 . S
C484 C485 1.377 . S
C484 C486 1.384 . S
C485 C484 1.377 . S
C485 C491 1.390 . S
C486 H477 0.930 . S
C486 C484 1.384 . S
C486 C487 1.372 . S
C487 C486 1.372 . S
C487 C488 1.400 . S
C487 C492 1.490 . S
C488 H478 0.930 . S
C488 C487 1.400 . S
C488 C491 1.386 . S
H489 C505 0.930 . S
H490 C506 0.931 . S
C491 H479 0.929 . S
C491 C485 1.390 . S
C491 C488 1.386 . S
C492 C487 1.490 . S
C492 C494 1.395 . S
C492 C495 1.403 . S
H493 C499 0.930 . S
C494 H480 0.930 . S
C494 C492 1.395 . S
C494 C497 1.403 . S
C495 C492 1.403 . S
C495 C496 1.524 . S
C495 C499 1.400 . S
C496 H481 0.960 . S
C496 H482 0.960 . S
C496 H483 0.960 . S
C496 C495 1.524 . S
C497 C494 1.403 . S
C497 C498 1.392 . S
C497 C501 1.495 . S
C498 C497 1.392 . S
C498 C499 1.385 . S
C498 C500 1.478 . S
C499 H493 0.930 . S
C499 C495 1.400 . S
C499 C498 1.385 . S
C500 C498 1.478 . S
C500 C502 1.381 . S
C500 C506 1.383 . S
C501 C497 1.495 . S
C501 H507 0.959 . S
C501 H508 0.961 . S
C501 H509 0.960 . S
C502 C500 1.381 . S
C502 C503 1.394 . S
C502 H510 0.930 . S
C503 C502 1.394 . S
C503 C504 1.383 . S
C503 H511 0.929 . S
C504 C503 1.383 . S
C504 C505 1.377 . S
C505 H489 0.930 . S
C505 C504 1.377 . S
C505 C506 1.379 . S
C506 H490 0.931 . S
C506 C500 1.383 . S
C506 C505 1.379 . S
H507 C501 0.959 . S
H508 C501 0.961 . S
H509 C501 0.960 . S
H510 C502 0.930 . S
H511 C503 0.929 . S
H512 C520 0.929 . S
H513 C522 0.930 . S
H514 C524 0.930 . S
H515 C527 0.929 . S
H516 C530 0.930 . S
H517 C532 0.960 . S
H518 C532 0.960 . S
H519 C532 0.960 . S
C520 H512 0.929 . S
C520 C521 1.377 . S
C520 C522 1.384 . S
C521 C520 1.377 . S
C521 C527 1.390 . S
C522 H513 0.930 . S
C522 C520 1.384 . S
C522 C523 1.372 . S
C523 C522 1.372 . S
C523 C524 1.400 . S
C523 C528 1.490 . S
C524 H514 0.930 . S
C524 C523 1.400 . S
C524 C527 1.386 . S
H525 C541 0.930 . S
H526 C542 0.931 . S
C527 H515 0.929 . S
C527 C521 1.390 . S
C527 C524 1.386 . S
C528 C523 1.490 . S
C528 C530 1.395 . S
C528 C531 1.403 . S
H529 C535 0.930 . S
C530 H516 0.930 . S
C530 C528 1.395 . S
C530 C533 1.403 . S
C531 C528 1.403 . S
C531 C532 1.524 . S
C531 C535 1.400 . S
C532 H517 0.960 . S
C532 H518 0.960 . S
C532 H519 0.960 . S
C532 C531 1.524 . S
C533 C530 1.403 . S
C533 C534 1.392 . S
C533 C537 1.495 . S
C534 C533 1.392 . S
C534 C535 1.385 . S
C534 C536 1.478 . S
C535 H529 0.930 . S
C535 C531 1.400 . S
C535 C534 1.385 . S
C536 C534 1.478 . S
C536 C538 1.381 . S
C536 C542 1.383 . S
C537 C533 1.495 . S
C537 H543 0.959 . S
C537 H544 0.961 . S
C537 H545 0.960 . S
C538 C536 1.381 . S
C538 C539 1.394 . S
C538 H546 0.930 . S
C539 C538 1.394 . S
C539 C540 1.383 . S
C539 H547 0.929 . S
C540 C539 1.383 . S
C540 C541 1.377 . S
C541 H525 0.930 . S
C541 C540 1.377 . S
C541 C542 1.379 . S
C542 H526 0.931 . S
C542 C536 1.383 . S
C542 C541 1.379 . S
H543 C537 0.959 . S
H544 C537 0.961 . S
H545 C537 0.960 . S
H546 C538 0.930 . S
H547 C539 0.929 . S
H548 C556 0.929 . S
H549 C558 0.930 . S
H550 C560 0.930 . S
H551 C563 0.929 1_554 S
H552 C566 0.930 . S
H553 C568 0.960 . S
H554 C568 0.960 1_565 S
H555 C568 0.960 . S
C556 H548 0.929 . S
C556 C557 1.374 1_556 S
C556 C558 1.384 . S
C557 C556 1.374 1_554 S
C557 C563 1.393 1_564 S
C558 H549 0.930 . S
C558 C556 1.384 . S
C558 C559 1.356 1_565 S
C559 C558 1.356 1_545 S
C559 C560 1.416 . S
C559 C564 1.491 . S
C560 H550 0.930 . S
C560 C559 1.416 . S
C560 C563 1.386 . S
H561 C577 0.930 . S
H562 C578 0.931 . S
C563 H551 0.929 1_556 S
C563 C557 1.393 1_546 S
C563 C560 1.386 . S
C564 C559 1.491 . S
C564 C566 1.386 1_545 S
C564 C567 1.412 . S
H565 C571 0.930 . S
C566 H552 0.930 . S
C566 C564 1.386 1_565 S
C566 C569 1.403 . S
C567 C564 1.412 . S
C567 C568 1.524 . S
C567 C571 1.400 . S
C568 H553 0.960 . S
C568 H554 0.960 1_545 S
C568 H555 0.960 . S
C568 C567 1.524 . S
C569 C566 1.403 . S
C569 C570 1.392 1_565 S
C569 C573 1.495 . S
C570 C569 1.392 1_545 S
C570 C571 1.385 . S
C570 C572 1.478 . S
C571 H565 0.930 . S
C571 C567 1.400 . S
C571 C570 1.385 . S
C572 C570 1.478 . S
C572 C574 1.381 1_545 S
C572 C578 1.383 . S
C573 C569 1.495 . S
C573 H579 0.959 . S
C573 H580 0.961 1_565 S
C573 H581 0.960 . S
C574 C572 1.381 1_565 S
C574 C575 1.394 . S
C574 H582 0.930 . S
C575 C574 1.394 . S
C575 C576 1.383 1_565 S
C575 H583 0.929 . S
C576 C575 1.383 1_545 S
C576 C577 1.377 . S
C577 H561 0.930 . S
C577 C576 1.377 . S
C577 C578 1.379 . S
C578 H562 0.931 . S
C578 C572 1.383 . S
C578 C577 1.379 . S
H579 C573 0.959 . S
H580 C573 0.961 1_545 S
H581 C573 0.960 . S
H582 C574 0.930 . S
H583 C575 0.929 . S
H584 C592 0.929 . S
H585 C594 0.930 . S
H586 C596 0.930 . S
H587 C599 0.929 1_554 S
H588 C602 0.930 . S
H589 C604 0.960 . S
H590 C604 0.960 . S
H591 C604 0.960 . S
C592 H584 0.929 . S
C592 C593 1.377 . S
C592 C594 1.384 . S
C593 C592 1.377 . S
C593 C599 1.390 . S
C594 H585 0.930 . S
C594 C592 1.384 . S
C594 C595 1.372 . S
C595 C594 1.372 . S
C595 C596 1.400 . S
C595 C600 1.490 . S
C596 H586 0.930 . S
C596 C595 1.400 . S
C596 C599 1.386 . S
H597 C613 0.930 . S
H598 C614 0.931 . S
C599 H587 0.929 1_556 S
C599 C593 1.390 . S
C599 C596 1.386 . S
C600 C595 1.490 . S
C600 C602 1.395 . S
C600 C603 1.403 . S
H601 C607 0.930 . S
C602 H588 0.930 . S
C602 C600 1.395 . S
C602 C605 1.403 . S
C603 C600 1.403 . S
C603 C604 1.524 . S
C603 C607 1.400 . S
C604 H589 0.960 . S
C604 H590 0.960 . S
C604 H591 0.960 . S
C604 C603 1.524 . S
C605 C602 1.403 . S
C605 C606 1.392 . S
C605 C609 1.495 . S
C606 C605 1.392 . S
C606 C607 1.385 . S
C606 C608 1.478 . S
C607 H601 0.930 . S
C607 C603 1.400 . S
C607 C606 1.385 . S
C608 C606 1.478 . S
C608 C610 1.381 . S
C608 C614 1.383 . S
C609 C605 1.495 . S
C609 H615 0.959 . S
C609 H616 0.961 . S
C609 H617 0.960 . S
C610 C608 1.381 . S
C610 C611 1.394 . S
C610 H618 0.930 . S
C611 C610 1.394 . S
C611 C612 1.383 . S
C611 H619 0.929 . S
C612 C611 1.383 . S
C612 C613 1.377 . S
C613 H597 0.930 . S
C613 C612 1.377 . S
C613 C614 1.379 . S
C614 H598 0.931 . S
C614 C608 1.383 . S
C614 C613 1.379 . S
H615 C609 0.959 . S
H616 C609 0.961 . S
H617 C609 0.960 . S
H618 C610 0.930 . S
H619 C611 0.929 . S
H620 C628 0.929 . S
H621 C630 0.930 . S
H622 C632 0.930 . S
H623 C635 0.929 . S
H624 C638 0.930 . S
H625 C640 0.960 . S
H626 C640 0.960 . S
H627 C640 0.960 . S
C628 H620 0.929 . S
C628 C629 1.377 . S
C628 C630 1.384 . S
C629 C628 1.377 . S
C629 C635 1.390 . S
C630 H621 0.930 . S
C630 C628 1.384 . S
C630 C631 1.372 . S
C631 C630 1.372 . S
C631 C632 1.400 . S
C631 C636 1.490 . S
C632 H622 0.930 . S
C632 C631 1.400 . S
C632 C635 1.386 . S
H633 C649 0.930 . S
H634 C650 0.931 . S
C635 H623 0.929 . S
C635 C629 1.390 . S
C635 C632 1.386 . S
C636 C631 1.490 . S
C636 C638 1.395 . S
C636 C639 1.403 . S
H637 C643 0.930 . S
C638 H624 0.930 . S
C638 C636 1.395 . S
C638 C641 1.403 . S
C639 C636 1.403 . S
C639 C640 1.524 . S
C639 C643 1.400 . S
C640 H625 0.960 . S
C640 H626 0.960 . S
C640 H627 0.960 . S
C640 C639 1.524 . S
C641 C638 1.403 . S
C641 C642 1.392 . S
C641 C645 1.495 . S
C642 C641 1.392 . S
C642 C643 1.385 . S
C642 C644 1.478 . S
C643 H637 0.930 . S
C643 C639 1.400 . S
C643 C642 1.385 . S
C644 C642 1.478 . S
C644 C646 1.381 . S
C644 C650 1.383 . S
C645 C641 1.495 . S
C645 H651 0.959 . S
C645 H652 0.961 . S
C645 H653 0.960 . S
C646 C644 1.381 . S
C646 C647 1.394 . S
C646 H654 0.930 . S
C647 C646 1.394 . S
C647 C648 1.383 . S
C647 H655 0.929 . S
C648 C647 1.383 . S
C648 C649 1.377 . S
C649 H633 0.930 . S
C649 C648 1.377 . S
C649 C650 1.379 . S
C650 H634 0.931 . S
C650 C644 1.383 . S
C650 C649 1.379 . S
H651 C645 0.959 . S
H652 C645 0.961 . S
H653 C645 0.960 . S
H654 C646 0.930 . S
H655 C647 0.929 . S
H656 C664 0.929 . S
H657 C666 0.930 . S
H658 C668 0.930 . S
H659 C671 0.929 1_554 S
H660 C674 0.930 . S
H661 C676 0.960 . S
H662 C676 0.960 . S
H663 C676 0.960 . S
C664 H656 0.929 . S
C664 C665 1.377 1_455 S
C664 C666 1.384 1_554 S
C665 C664 1.377 1_655 S
C665 C671 1.390 1_554 S
C666 H657 0.930 . S
C666 C664 1.384 1_556 S
C666 C667 1.372 1_455 S
C667 C666 1.372 1_655 S
C667 C668 1.400 . S
C667 C672 1.495 . S
C668 H658 0.930 . S
C668 C667 1.400 . S
C668 C671 1.386 . S
H669 C685 0.930 . S
H670 C686 0.931 . S
C671 H659 0.929 1_556 S
C671 C665 1.390 1_556 S
C671 C668 1.386 . S
C672 C667 1.495 . S
C672 C674 1.382 1_655 S
C672 C675 1.410 . S
H673 C679 0.930 . S
C674 H660 0.930 . S
C674 C672 1.382 1_455 S
C674 C677 1.403 . S
C675 C672 1.410 . S
C675 C676 1.524 . S
C675 C679 1.400 . S
C676 H661 0.960 . S
C676 H662 0.960 . S
C676 H663 0.960 . S
C676 C675 1.524 . S
C677 C674 1.403 . S
C677 C678 1.392 . S
C677 C681 1.495 . S
C678 C677 1.392 . S
C678 C679 1.385 1_455 S
C678 C680 1.478 . S
C679 H673 0.930 . S
C679 C675 1.400 . S
C679 C678 1.385 1_655 S
C680 C678 1.478 . S
C680 C682 1.381 . S
C680 C686 1.383 1_455 S
C681 C677 1.495 . S
C681 H687 0.959 . S
C681 H688 0.961 . S
C681 H689 0.960 . S
C682 C680 1.381 . S
C682 C683 1.394 . S
C682 H690 0.930 . S
C683 C682 1.394 . S
C683 C684 1.383 . S
C683 H691 0.929 . S
C684 C683 1.383 . S
C684 C685 1.377 1_455 S
C685 H669 0.930 . S
C685 C684 1.377 1_655 S
C685 C686 1.379 . S
C686 H670 0.931 . S
C686 C680 1.383 1_655 S
C686 C685 1.379 . S
H687 C681 0.959 . S
H688 C681 0.961 . S
H689 C681 0.960 . S
H690 C682 0.930 . S
H691 C683 0.929 . S
H692 C700 0.929 . S
H693 C702 0.930 . S
H694 C704 0.930 . S
H695 C707 0.929 . S
H696 C710 0.930 . S
H697 C712 0.960 . S
H698 C712 0.960 . S
H699 C712 0.960 . S
C700 H692 0.929 . S
C700 C701 1.377 . S
C700 C702 1.384 . S
C701 C700 1.377 . S
C701 C707 1.390 . S
C702 H693 0.930 . S
C702 C700 1.384 . S
C702 C703 1.372 . S
C703 C702 1.372 . S
C703 C704 1.400 . S
C703 C708 1.490 . S
C704 H694 0.930 . S
C704 C703 1.400 . S
C704 C707 1.386 . S
H705 C721 0.930 . S
H706 C722 0.931 . S
C707 H695 0.929 . S
C707 C701 1.390 . S
C707 C704 1.386 . S
C708 C703 1.490 . S
C708 C710 1.395 . S
C708 C711 1.403 . S
H709 C715 0.930 . S
C710 H696 0.930 . S
C710 C708 1.395 . S
C710 C713 1.403 . S
C711 C708 1.403 . S
C711 C712 1.524 . S
C711 C715 1.400 . S
C712 H697 0.960 . S
C712 H698 0.960 . S
C712 H699 0.960 . S
C712 C711 1.524 . S
C713 C710 1.403 . S
C713 C714 1.392 . S
C713 C717 1.495 . S
C714 C713 1.392 . S
C714 C715 1.385 . S
C714 C716 1.478 . S
C715 H709 0.930 . S
C715 C711 1.400 . S
C715 C714 1.385 . S
C716 C714 1.478 . S
C716 C718 1.381 . S
C716 C722 1.383 . S
C717 C713 1.495 . S
C717 H723 0.959 . S
C717 H724 0.961 . S
C717 H725 0.960 . S
C718 C716 1.381 . S
C718 C719 1.394 . S
C718 H726 0.930 . S
C719 C718 1.394 . S
C719 C720 1.383 . S
C719 H727 0.929 . S
C720 C719 1.383 . S
C720 C721 1.377 . S
C721 H705 0.930 . S
C721 C720 1.377 . S
C721 C722 1.379 . S
C722 H706 0.931 . S
C722 C716 1.383 . S
C722 C721 1.379 . S
H723 C717 0.959 . S
H724 C717 0.961 . S
H725 C717 0.960 . S
H726 C718 0.930 . S
H727 C719 0.929 . S
H728 C736 0.929 . S
H729 C738 0.930 . S
H730 C740 0.930 . S
H731 C743 0.929 . S
H732 C746 0.930 . S
H733 C748 0.956 . S
H734 C748 0.964 1_545 S
H735 C748 0.956 . S
C736 H728 0.929 . S
C736 C737 1.414 . S
C736 C738 1.384 . S
C737 C736 1.414 . S
C737 C743 1.352 1_545 S
C738 H729 0.930 . S
C738 C736 1.384 . S
C738 C739 1.417 . S
C739 C738 1.417 . S
C739 C740 1.358 1_545 S
C739 C744 1.489 . S
C740 H730 0.930 . S
C740 C739 1.358 1_565 S
C740 C743 1.386 . S
H741 C757 0.930 . S
H742 C758 0.931 . S
C743 H731 0.929 . S
C743 C737 1.352 1_565 S
C743 C740 1.386 . S
C744 C739 1.489 . S
C744 C746 1.396 . S
C744 C747 1.400 1_545 S
H745 C751 0.938 . S
C746 H732 0.930 . S
C746 C744 1.396 . S
C746 C749 1.407 . S
C747 C744 1.400 1_565 S
C747 C748 1.524 . S
C747 C751 1.398 . S
C748 H733 0.956 . S
C748 H734 0.964 1_565 S
C748 H735 0.956 . S
C748 C747 1.524 . S
C749 C746 1.407 . S
C749 C750 1.388 1_545 S
C749 C753 1.497 . S
C750 C749 1.388 1_565 S
C750 C751 1.385 . S
C750 C752 1.479 . S
C751 H745 0.938 . S
C751 C747 1.398 . S
C751 C750 1.385 . S
C752 C750 1.479 . S
C752 C754 1.381 1_565 S
C752 C758 1.383 . S
C753 C749 1.497 . S
C753 H759 0.959 . S
C753 H760 0.961 1_545 S
C753 H761 0.960 . S
C754 C752 1.381 1_545 S
C754 C755 1.394 . S
C754 H762 0.930 . S
C755 C754 1.394 . S
C755 C756 1.383 1_545 S
C755 H763 0.929 . S
C756 C755 1.383 1_565 S
C756 C757 1.377 . S
C757 H741 0.930 . S
C757 C756 1.377 . S
C757 C758 1.379 . S
C758 H742 0.931 . S
C758 C752 1.383 . S
C758 C757 1.379 . S
H759 C753 0.959 . S
H760 C753 0.961 1_565 S
H761 C753 0.960 . S
H762 C754 0.930 . S
H763 C755 0.929 . S
H764 C772 0.929 . S
H765 C774 0.930 . S
H766 C776 0.930 . S
H767 C779 0.929 . S
H768 C782 0.930 . S
H769 C784 0.960 . S
H770 C784 0.960 . S
H771 C784 0.960 . S
C772 H764 0.929 . S
C772 C773 1.377 . S
C772 C774 1.384 . S
C773 C772 1.377 . S
C773 C779 1.390 . S
C774 H765 0.930 . S
C774 C772 1.384 . S
C774 C775 1.372 . S
C775 C774 1.372 . S
C775 C776 1.400 . S
C775 C780 1.490 . S
C776 H766 0.930 . S
C776 C775 1.400 . S
C776 C779 1.386 . S
H777 C793 0.930 . S
H778 C794 0.931 . S
C779 H767 0.929 . S
C779 C773 1.390 . S
C779 C776 1.386 . S
C780 C775 1.490 . S
C780 C782 1.395 . S
C780 C783 1.403 . S
H781 C787 0.930 . S
C782 H768 0.930 . S
C782 C780 1.395 . S
C782 C785 1.403 . S
C783 C780 1.403 . S
C783 C784 1.524 . S
C783 C787 1.400 . S
C784 H769 0.960 . S
C784 H770 0.960 . S
C784 H771 0.960 . S
C784 C783 1.524 . S
C785 C782 1.403 . S
C785 C786 1.392 . S
C785 C789 1.495 . S
C786 C785 1.392 . S
C786 C787 1.385 . S
C786 C788 1.478 . S
C787 H781 0.930 . S
C787 C783 1.400 . S
C787 C786 1.385 . S
C788 C786 1.478 . S
C788 C790 1.381 . S
C788 C794 1.383 . S
C789 C785 1.495 . S
C789 H795 0.959 . S
C789 H796 0.961 . S
C789 H797 0.960 . S
C790 C788 1.381 . S
C790 C791 1.394 . S
C790 H798 0.930 . S
C791 C790 1.394 . S
C791 C792 1.383 . S
C791 H799 0.929 . S
C792 C791 1.383 . S
C792 C793 1.377 . S
C793 H777 0.930 . S
C793 C792 1.377 . S
C793 C794 1.379 . S
C794 H778 0.931 . S
C794 C788 1.383 . S
C794 C793 1.379 . S
H795 C789 0.959 . S
H796 C789 0.961 . S
H797 C789 0.960 . S
H798 C790 0.930 . S
H799 C791 0.929 . S
H800 C808 0.929 . S
H801 C810 0.930 . S
H802 C812 0.930 . S
H803 C815 0.929 . S
H804 C818 0.930 . S
H805 C820 0.960 . S
H806 C820 0.960 . S
H807 C820 0.960 . S
C808 H800 0.929 . S
C808 C809 1.377 . S
C808 C810 1.384 . S
C809 C808 1.377 . S
C809 C815 1.390 . S
C810 H801 0.930 . S
C810 C808 1.384 . S
C810 C811 1.372 . S
C811 C810 1.372 . S
C811 C812 1.400 . S
C811 C816 1.490 . S
C812 H802 0.930 . S
C812 C811 1.400 . S
C812 C815 1.386 . S
H813 C829 0.930 . S
H814 C830 0.931 . S
C815 H803 0.929 . S
C815 C809 1.390 . S
C815 C812 1.386 . S
C816 C811 1.490 . S
C816 C818 1.395 . S
C816 C819 1.403 . S
H817 C823 0.930 . S
C818 H804 0.930 . S
C818 C816 1.395 . S
C818 C821 1.403 . S
C819 C816 1.403 . S
C819 C820 1.524 . S
C819 C823 1.400 . S
C820 H805 0.960 . S
C820 H806 0.960 . S
C820 H807 0.960 . S
C820 C819 1.524 . S
C821 C818 1.403 . S
C821 C822 1.392 . S
C821 C825 1.495 . S
C822 C821 1.392 . S
C822 C823 1.385 . S
C822 C824 1.478 . S
C823 H817 0.930 . S
C823 C819 1.400 . S
C823 C822 1.385 . S
C824 C822 1.478 . S
C824 C826 1.381 . S
C824 C830 1.383 . S
C825 C821 1.495 . S
C825 H831 0.959 . S
C825 H832 0.961 . S
C825 H833 0.960 . S
C826 C824 1.381 . S
C826 C827 1.394 . S
C826 H834 0.930 . S
C827 C826 1.394 . S
C827 C828 1.383 . S
C827 H835 0.929 . S
C828 C827 1.383 . S
C828 C829 1.377 . S
C829 H813 0.930 . S
C829 C828 1.377 . S
C829 C830 1.379 . S
C830 H814 0.931 . S
C830 C824 1.383 . S
C830 C829 1.379 . S
H831 C825 0.959 . S
H832 C825 0.961 . S
H833 C825 0.960 . S
H834 C826 0.930 . S
H835 C827 0.929 . S
H836 C844 0.929 . S
H837 C846 0.930 . S
H838 C848 0.930 . S
H839 C851 0.929 . S
H840 C854 0.930 1_655 S
H841 C856 0.960 . S
H842 C856 0.960 . S
H843 C856 0.960 . S
C844 H836 0.929 . S
C844 C845 1.377 . S
C844 C846 1.384 . S
C845 C844 1.377 . S
C845 C851 1.390 1_655 S
C846 H837 0.930 . S
C846 C844 1.384 . S
C846 C847 1.372 1_655 S
C847 C846 1.372 1_455 S
C847 C848 1.400 . S
C847 C852 1.490 . S
C848 H838 0.930 . S
C848 C847 1.400 . S
C848 C851 1.386 . S
H849 C865 0.930 . S
H850 C866 0.931 . S
C851 H839 0.929 . S
C851 C845 1.390 1_455 S
C851 C848 1.386 . S
C852 C847 1.490 . S
C852 C854 1.395 . S
C852 C855 1.403 . S
H853 C859 0.930 . S
C854 H840 0.930 1_455 S
C854 C852 1.395 . S
C854 C857 1.403 . S
C855 C852 1.403 . S
C855 C856 1.524 . S
C855 C859 1.400 . S
C856 H841 0.960 . S
C856 H842 0.960 . S
C856 H843 0.960 . S
C856 C855 1.524 . S
C857 C854 1.403 . S
C857 C858 1.392 . S
C857 C861 1.495 1_455 S
C858 C857 1.392 . S
C858 C859 1.385 . S
C858 C860 1.478 . S
C859 H853 0.930 . S
C859 C855 1.400 . S
C859 C858 1.385 . S
C860 C858 1.478 . S
C860 C862 1.381 . S
C860 C866 1.383 . S
C861 C857 1.495 1_655 S
C861 H867 0.959 . S
C861 H868 0.961 1_655 S
C861 H869 0.960 . S
C862 C860 1.381 . S
C862 C863 1.394 . S
C862 H870 0.930 . S
C863 C862 1.394 . S
C863 C864 1.383 . S
C863 H871 0.929 . S
C864 C863 1.383 . S
C864 C865 1.377 . S
C865 H849 0.930 . S
C865 C864 1.377 . S
C865 C866 1.379 . S
C866 H850 0.931 . S
C866 C860 1.383 . S
C866 C865 1.379 . S
H867 C861 0.959 . S
H868 C861 0.961 1_455 S
H869 C861 0.960 . S
H870 C862 0.930 . S
H871 C863 0.929 . S
H872 C880 0.929 . S
H873 C882 0.930 . S
H874 C884 0.930 . S
H875 C887 0.929 . S
H876 C890 0.930 . S
H877 C892 0.960 . S
H878 C892 0.960 . S
H879 C892 0.960 . S
C880 H872 0.929 . S
C880 C881 1.377 1_545 S
C880 C882 1.384 . S
C881 C880 1.377 1_565 S
C881 C887 1.390 . S
C882 H873 0.930 . S
C882 C880 1.384 . S
C882 C883 1.372 . S
C883 C882 1.372 . S
C883 C884 1.400 1_545 S
C883 C888 1.490 . S
C884 H874 0.930 . S
C884 C883 1.400 1_565 S
C884 C887 1.386 . S
H885 C901 0.930 . S
H886 C902 0.931 . S
C887 H875 0.929 . S
C887 C881 1.390 . S
C887 C884 1.386 . S
C888 C883 1.490 . S
C888 C890 1.395 . S
C888 C891 1.403 1_545 S
H889 C895 0.930 1_565 S
C890 H876 0.930 . S
C890 C888 1.395 . S
C890 C893 1.403 . S
C891 C888 1.403 1_565 S
C891 C892 1.524 . S
C891 C895 1.400 1_565 S
C892 H877 0.960 . S
C892 H878 0.960 . S
C892 H879 0.960 . S
C892 C891 1.524 . S
C893 C890 1.403 . S
C893 C894 1.392 . S
C893 C897 1.495 . S
C894 C893 1.392 . S
C894 C895 1.385 . S
C894 C896 1.478 . S
C895 H889 0.930 1_545 S
C895 C891 1.400 1_545 S
C895 C894 1.385 . S
C896 C894 1.478 . S
C896 C898 1.381 . S
C896 C902 1.383 . S
C897 C893 1.495 . S
C897 H903 0.959 . S
C897 H904 0.961 . S
C897 H905 0.960 . S
C898 C896 1.381 . S
C898 C899 1.394 . S
C898 H906 0.930 . S
C899 C898 1.394 . S
C899 C900 1.383 . S
C899 H907 0.929 . S
C900 C899 1.383 . S
C900 C901 1.377 . S
C901 H885 0.930 . S
C901 C900 1.377 . S
C901 C902 1.379 . S
C902 H886 0.931 . S
C902 C896 1.383 . S
C902 C901 1.379 . S
H903 C897 0.959 . S
H904 C897 0.961 . S
H905 C897 0.960 . S
H906 C898 0.930 . S
H907 C899 0.929 . S
H908 C916 0.929 . S
H909 C918 0.930 . S
H910 C920 0.930 . S
H911 C923 0.929 . S
H912 C926 0.930 . S
H913 C928 0.960 . S
H914 C928 0.960 . S
H915 C928 0.960 . S
C916 H908 0.929 . S
C916 C917 1.377 . S
C916 C918 1.384 . S
C917 C916 1.377 . S
C917 C923 1.390 . S
C918 H909 0.930 . S
C918 C916 1.384 . S
C918 C919 1.372 . S
C919 C918 1.372 . S
C919 C920 1.400 . S
C919 C924 1.490 . S
C920 H910 0.930 . S
C920 C919 1.400 . S
C920 C923 1.386 . S
H921 C937 0.930 . S
H922 C938 0.931 . S
C923 H911 0.929 . S
C923 C917 1.390 . S
C923 C920 1.386 . S
C924 C919 1.490 . S
C924 C926 1.395 . S
C924 C927 1.403 . S
H925 C931 0.930 . S
C926 H912 0.930 . S
C926 C924 1.395 . S
C926 C929 1.403 . S
C927 C924 1.403 . S
C927 C928 1.524 . S
C927 C931 1.400 . S
C928 H913 0.960 . S
C928 H914 0.960 . S
C928 H915 0.960 . S
C928 C927 1.524 . S
C929 C926 1.403 . S
C929 C930 1.392 . S
C929 C933 1.495 . S
C930 C929 1.392 . S
C930 C931 1.385 . S
C930 C932 1.478 . S
C931 H925 0.930 . S
C931 C927 1.400 . S
C931 C930 1.385 . S
C932 C930 1.478 . S
C932 C934 1.381 . S
C932 C938 1.383 . S
C933 C929 1.495 . S
C933 H939 0.959 . S
C933 H940 0.961 . S
C933 H941 0.960 . S
C934 C932 1.381 . S
C934 C935 1.394 . S
C934 H942 0.930 . S
C935 C934 1.394 . S
C935 C936 1.383 . S
C935 H943 0.929 . S
C936 C935 1.383 . S
C936 C937 1.377 . S
C937 H921 0.930 . S
C937 C936 1.377 . S
C937 C938 1.379 . S
C938 H922 0.931 . S
C938 C932 1.383 . S
C938 C937 1.379 . S
H939 C933 0.959 . S
H940 C933 0.961 . S
H941 C933 0.960 . S
H942 C934 0.930 . S
H943 C935 0.929 . S
H944 C952 0.929 . S
H945 C954 0.930 . S
H946 C956 0.930 . S
H947 C959 0.929 . S
H948 C962 0.930 . S
H949 C964 0.960 . S
H950 C964 0.960 . S
H951 C964 0.960 . S
C952 H944 0.929 . S
C952 C953 1.377 . S
C952 C954 1.384 . S
C953 C952 1.377 . S
C953 C959 1.390 . S
C954 H945 0.930 . S
C954 C952 1.384 . S
C954 C955 1.372 . S
C955 C954 1.372 . S
C955 C956 1.400 . S
C955 C960 1.490 . S
C956 H946 0.930 . S
C956 C955 1.400 . S
C956 C959 1.386 . S
H957 C973 0.930 . S
H958 C974 0.931 . S
C959 H947 0.929 . S
C959 C953 1.390 . S
C959 C956 1.386 . S
C960 C955 1.490 . S
C960 C962 1.395 . S
C960 C963 1.403 . S
H961 C967 0.930 . S
C962 H948 0.930 . S
C962 C960 1.395 . S
C962 C965 1.403 . S
C963 C960 1.403 . S
C963 C964 1.524 . S
C963 C967 1.400 . S
C964 H949 0.960 . S
C964 H950 0.960 . S
C964 H951 0.960 . S
C964 C963 1.524 . S
C965 C962 1.403 . S
C965 C966 1.392 . S
C965 C969 1.495 . S
C966 C965 1.392 . S
C966 C967 1.385 . S
C966 C968 1.478 . S
C967 H961 0.930 . S
C967 C963 1.400 . S
C967 C966 1.385 . S
C968 C966 1.478 . S
C968 C970 1.381 . S
C968 C974 1.383 . S
C969 C965 1.495 . S
C969 H975 0.959 . S
C969 H976 0.961 . S
C969 H977 0.960 . S
C970 C968 1.381 . S
C970 C971 1.394 . S
C970 H978 0.930 . S
C971 C970 1.394 . S
C971 C972 1.383 . S
C971 H979 0.929 . S
C972 C971 1.383 . S
C972 C973 1.377 . S
C973 H957 0.930 . S
C973 C972 1.377 . S
C973 C974 1.379 . S
C974 H958 0.931 . S
C974 C968 1.383 . S
C974 C973 1.379 . S
H975 C969 0.959 . S
H976 C969 0.961 . S
H977 C969 0.960 . S
H978 C970 0.930 . S
H979 C971 0.929 . S
H980 C988 0.929 . S
H981 C990 0.930 . S
H982 C992 0.930 1_556 S
H983 C995 0.929 . S
H984 C998 0.930 1_554 S
H985 C1000 0.960 . S
H986 C1000 0.960 1_554 S
H987 C1000 0.960 . S
C988 H980 0.929 . S
C988 C989 1.377 . S
C988 C990 1.384 . S
C989 C988 1.377 . S
C989 C995 1.390 . S
C990 H981 0.930 . S
C990 C988 1.384 . S
C990 C991 1.372 . S
C991 C990 1.372 . S
C991 C992 1.400 . S
C991 C996 1.501 . S
C992 H982 0.930 1_554 S
C992 C991 1.400 . S
C992 C995 1.386 . S
H993 C1009 0.930 . S
H994 C1010 0.931 . S
C995 H983 0.929 . S
C995 C989 1.390 . S
C995 C992 1.386 . S
C996 C991 1.501 . S
C996 C998 1.391 1_554 S
C996 C999 1.396 1_554 S
H997 C1003 0.930 . S
C998 H984 0.930 1_556 S
C998 C996 1.391 1_556 S
C998 C1001 1.403 . S
C999 C996 1.396 1_556 S
C999 C1000 1.524 . S
C999 C1003 1.400 . S
C1000 H985 0.960 . S
C1000 H986 0.960 1_556 S
C1000 H987 0.960 . S
C1000 C999 1.524 . S
C1001 C998 1.403 . S
C1001 C1002 1.392 . S
C1001 C1005 1.495 . S
C1002 C1001 1.392 . S
C1002 C1003 1.385 . S
C1002 C1004 1.478 . S
C1003 H997 0.930 . S
C1003 C999 1.400 . S
C1003 C1002 1.385 . S
C1004 C1002 1.478 . S
C1004 C1006 1.381 . S
C1004 C1010 1.383 . S
C1005 C1001 1.495 . S
C1005 H1011 0.959 . S
C1005 H1012 0.961 . S
C1005 H1013 0.960 . S
C1006 C1004 1.381 . S
C1006 C1007 1.394 . S
C1006 H1014 0.930 . S
C1007 C1006 1.394 . S
C1007 C1008 1.383 . S
C1007 H1015 0.929 . S
C1008 C1007 1.383 . S
C1008 C1009 1.377 . S
C1009 H993 0.930 . S
C1009 C1008 1.377 . S
C1009 C1010 1.379 . S
C1010 H994 0.931 . S
C1010 C1004 1.383 . S
C1010 C1009 1.379 . S
H1011 C1005 0.959 . S
H1012 C1005 0.961 . S
H1013 C1005 0.960 . S
H1014 C1006 0.930 . S
H1015 C1007 0.929 . S
H1016 C1024 0.929 . S
H1017 C1026 0.930 . S
H1018 C1028 0.930 . S
H1019 C1031 0.929 . S
H1020 C1034 0.930 1_554 S
H1021 C1036 0.960 . S
H1022 C1036 0.960 . S
H1023 C1036 0.960 1_565 S
C1024 H1016 0.929 . S
C1024 C1025 1.394 . S
C1024 C1026 1.384 . S
C1025 C1024 1.394 . S
C1025 C1031 1.373 1_545 S
C1026 H1017 0.930 . S
C1026 C1024 1.384 . S
C1026 C1027 1.372 1_554 S
C1027 C1026 1.372 1_556 S
C1027 C1028 1.400 1_545 S
C1027 C1032 1.493 . S
C1028 H1018 0.930 . S
C1028 C1027 1.400 1_565 S
C1028 C1031 1.386 1_556 S
H1029 C1045 0.930 . S
H1030 C1046 0.931 . S
C1031 H1019 0.929 . S
C1031 C1025 1.373 1_565 S
C1031 C1028 1.386 1_554 S
C1032 C1027 1.493 . S
C1032 C1034 1.387 1_545 S
C1032 C1035 1.411 . S
H1033 C1039 0.930 . S
C1034 H1020 0.930 1_556 S
C1034 C1032 1.387 1_565 S
C1034 C1037 1.403 . S
C1035 C1032 1.411 . S
C1035 C1036 1.524 . S
C1035 C1039 1.400 . S
C1036 H1021 0.960 . S
C1036 H1022 0.960 . S
C1036 H1023 0.960 1_545 S
C1036 C1035 1.524 . S
C1037 C1034 1.403 . S
C1037 C1038 1.392 1_565 S
C1037 C1041 1.495 . S
C1038 C1037 1.392 1_545 S
C1038 C1039 1.385 . S
C1038 C1040 1.476 1_545 S
C1039 H1033 0.930 . S
C1039 C1035 1.400 . S
C1039 C1038 1.385 . S
C1040 C1038 1.476 1_565 S
C1040 C1042 1.365 1_565 S
C1040 C1046 1.400 . S
C1041 C1037 1.495 . S
C1041 H1047 0.959 1_556 S
C1041 H1048 0.961 . S
C1041 H1049 0.960 1_565 S
C1042 C1040 1.365 1_545 S
C1042 C1043 1.394 . S
C1042 H1050 0.930 . S
C1043 C1042 1.394 . S
C1043 C1044 1.370 1_545 S
C1043 H1051 0.929 . S
C1044 C1043 1.370 1_565 S
C1044 C1045 1.389 . S
C1045 H1029 0.930 . S
C1045 C1044 1.389 . S
C1045 C1046 1.379 . S
C1046 H1030 0.931 . S
C1046 C1040 1.400 . S
C1046 C1045 1.379 . S
H1047 C1041 0.959 1_554 S
H1048 C1041 0.961 . S
H1049 C1041 0.960 1_545 S
H1050 C1042 0.930 . S
H1051 C1043 0.929 . S
H1052 C1060 0.929 . S
H1053 C1062 0.930 . S
H1054 C1064 0.930 . S
H1055 C1067 0.929 . S
H1056 C1070 0.930 . S
H1057 C1072 0.960 1_554 S
H1058 C1072 0.960 1_554 S
H1059 C1072 0.960 1_554 S
C1060 H1052 0.929 . S
C1060 C1061 1.377 1_556 S
C1060 C1062 1.384 . S
C1061 C1060 1.377 1_554 S
C1061 C1067 1.390 . S
C1062 H1053 0.930 . S
C1062 C1060 1.384 . S
C1062 C1063 1.372 . S
C1063 C1062 1.372 . S
C1063 C1064 1.400 . S
C1063 C1068 1.490 . S
C1064 H1054 0.930 . S
C1064 C1063 1.400 . S
C1064 C1067 1.386 1_556 S
H1065 C1081 0.930 . S
H1066 C1082 0.931 . S
C1067 H1055 0.929 . S
C1067 C1061 1.390 . S
C1067 C1064 1.386 1_554 S
C1068 C1063 1.490 . S
C1068 C1070 1.395 . S
C1068 C1071 1.403 . S
H1069 C1075 0.930 . S
C1070 H1056 0.930 . S
C1070 C1068 1.395 . S
C1070 C1073 1.403 . S
C1071 C1068 1.403 . S
C1071 C1072 1.524 . S
C1071 C1075 1.400 . S
C1072 H1057 0.960 1_556 S
C1072 H1058 0.960 1_556 S
C1072 H1059 0.960 1_556 S
C1072 C1071 1.524 . S
C1073 C1070 1.403 . S
C1073 C1074 1.392 . S
C1073 C1077 1.495 . S
C1074 C1073 1.392 . S
C1074 C1075 1.385 . S
C1074 C1076 1.478 . S
C1075 H1069 0.930 . S
C1075 C1071 1.400 . S
C1075 C1074 1.385 . S
C1076 C1074 1.478 . S
C1076 C1078 1.381 . S
C1076 C1082 1.383 . S
C1077 C1073 1.495 . S
C1077 H1083 0.959 . S
C1077 H1084 0.961 . S
C1077 H1085 0.960 . S
C1078 C1076 1.381 . S
C1078 C1079 1.394 . S
C1078 H1086 0.930 . S
C1079 C1078 1.394 . S
C1079 C1080 1.383 . S
C1079 H1087 0.929 . S
C1080 C1079 1.383 . S
C1080 C1081 1.377 . S
C1081 H1065 0.930 . S
C1081 C1080 1.377 . S
C1081 C1082 1.379 . S
C1082 H1066 0.931 . S
C1082 C1076 1.383 . S
C1082 C1081 1.379 . S
H1083 C1077 0.959 . S
H1084 C1077 0.961 . S
H1085 C1077 0.960 . S
H1086 C1078 0.930 . S
H1087 C1079 0.929 . S
H1088 C1096 0.929 . S
H1089 C1098 0.930 . S
H1090 C1100 0.930 . S
H1091 C1103 0.929 . S
H1092 C1106 0.930 . S
H1093 C1108 0.960 . S
H1094 C1108 0.960 . S
H1095 C1108 0.960 . S
C1096 H1088 0.929 . S
C1096 C1097 1.377 1_556 S
C1096 C1098 1.384 . S
C1097 C1096 1.377 1_554 S
C1097 C1103 1.390 . S
C1098 H1089 0.930 . S
C1098 C1096 1.384 . S
C1098 C1099 1.372 . S
C1099 C1098 1.372 . S
C1099 C1100 1.400 1_556 S
C1099 C1104 1.490 . S
C1100 H1090 0.930 . S
C1100 C1099 1.400 1_554 S
C1100 C1103 1.386 . S
H1101 C1117 0.930 . S
H1102 C1118 0.931 . S
C1103 H1091 0.929 . S
C1103 C1097 1.390 . S
C1103 C1100 1.386 . S
C1104 C1099 1.490 . S
C1104 C1106 1.395 . S
C1104 C1107 1.403 . S
H1105 C1111 0.930 . S
C1106 H1092 0.930 . S
C1106 C1104 1.395 . S
C1106 C1109 1.403 . S
C1107 C1104 1.403 . S
C1107 C1108 1.524 . S
C1107 C1111 1.400 . S
C1108 H1093 0.960 . S
C1108 H1094 0.960 . S
C1108 H1095 0.960 . S
C1108 C1107 1.524 . S
C1109 C1106 1.403 . S
C1109 C1110 1.392 . S
C1109 C1113 1.495 . S
C1110 C1109 1.392 . S
C1110 C1111 1.385 . S
C1110 C1112 1.478 . S
C1111 H1105 0.930 . S
C1111 C1107 1.400 . S
C1111 C1110 1.385 . S
C1112 C1110 1.478 . S
C1112 C1114 1.381 . S
C1112 C1118 1.383 . S
C1113 C1109 1.495 . S
C1113 H1119 0.959 . S
C1113 H1120 0.961 . S
C1113 H1121 0.960 . S
C1114 C1112 1.381 . S
C1114 C1115 1.394 . S
C1114 H1122 0.930 . S
C1115 C1114 1.394 . S
C1115 C1116 1.383 . S
C1115 H1123 0.929 . S
C1116 C1115 1.383 . S
C1116 C1117 1.377 . S
C1117 H1101 0.930 . S
C1117 C1116 1.377 . S
C1117 C1118 1.379 . S
C1118 H1102 0.931 . S
C1118 C1112 1.383 . S
C1118 C1117 1.379 . S
H1119 C1113 0.959 . S
H1120 C1113 0.961 . S
H1121 C1113 0.960 . S
H1122 C1114 0.930 . S
H1123 C1115 0.929 . S
H1124 C1132 0.929 . S
H1125 C1134 0.930 . S
H1126 C1136 0.930 . S
H1127 C1139 0.929 . S
H1128 C1142 0.930 . S
H1129 C1144 0.960 . S
H1130 C1144 0.960 . S
H1131 C1144 0.960 . S
C1132 H1124 0.929 . S
C1132 C1133 1.377 . S
C1132 C1134 1.384 . S
C1133 C1132 1.377 . S
C1133 C1139 1.390 1_655 S
C1134 H1125 0.930 . S
C1134 C1132 1.384 . S
C1134 C1135 1.372 . S
C1135 C1134 1.372 . S
C1135 C1136 1.400 1_655 S
C1135 C1140 1.490 . S
C1136 H1126 0.930 . S
C1136 C1135 1.400 1_455 S
C1136 C1139 1.386 . S
H1137 C1153 0.930 . S
H1138 C1154 0.931 . S
C1139 H1127 0.929 . S
C1139 C1133 1.390 1_455 S
C1139 C1136 1.386 . S
C1140 C1135 1.490 . S
C1140 C1142 1.395 . S
C1140 C1143 1.403 1_655 S
H1141 C1147 0.930 . S
C1142 H1128 0.930 . S
C1142 C1140 1.395 . S
C1142 C1145 1.403 . S
C1143 C1140 1.403 1_455 S
C1143 C1144 1.524 . S
C1143 C1147 1.400 . S
C1144 H1129 0.960 . S
C1144 H1130 0.960 . S
C1144 H1131 0.960 . S
C1144 C1143 1.524 . S
C1145 C1142 1.403 . S
C1145 C1146 1.392 . S
C1145 C1149 1.495 . S
C1146 C1145 1.392 . S
C1146 C1147 1.385 1_655 S
C1146 C1148 1.478 . S
C1147 H1141 0.930 . S
C1147 C1143 1.400 . S
C1147 C1146 1.385 1_455 S
C1148 C1146 1.478 . S
C1148 C1150 1.381 . S
C1148 C1154 1.383 1_655 S
C1149 C1145 1.495 . S
C1149 H1155 0.959 . S
C1149 H1156 0.961 . S
C1149 H1157 0.960 . S
C1150 C1148 1.381 . S
C1150 C1151 1.394 . S
C1150 H1158 0.930 . S
C1151 C1150 1.394 . S
C1151 C1152 1.383 1_655 S
C1151 H1159 0.929 . S
C1152 C1151 1.383 1_455 S
C1152 C1153 1.377 . S
C1153 H1137 0.930 . S
C1153 C1152 1.377 . S
C1153 C1154 1.379 . S
C1154 H1138 0.931 . S
C1154 C1148 1.383 1_455 S
C1154 C1153 1.379 . S
H1155 C1149 0.959 . S
H1156 C1149 0.961 . S
H1157 C1149 0.960 . S
H1158 C1150 0.930 . S
H1159 C1151 0.929 . S
H1160 C1168 0.929 . S
H1161 C1170 0.930 . S
H1162 C1172 0.930 . S
H1163 C1175 0.929 . S
H1164 C1178 0.930 . S
H1165 C1180 0.960 . S
H1166 C1180 0.960 . S
H1167 C1180 0.960 1_565 S
C1168 H1160 0.929 . S
C1168 C1169 1.377 1_545 S
C1168 C1170 1.384 . S
C1169 C1168 1.377 1_565 S
C1169 C1175 1.390 . S
C1170 H1161 0.930 . S
C1170 C1168 1.384 . S
C1170 C1171 1.372 1_545 S
C1171 C1170 1.372 1_565 S
C1171 C1172 1.400 . S
C1171 C1176 1.490 . S
C1172 H1162 0.930 . S
C1172 C1171 1.400 . S
C1172 C1175 1.386 . S
H1173 C1189 0.930 . S
H1174 C1190 0.931 . S
C1175 H1163 0.929 . S
C1175 C1169 1.390 . S
C1175 C1172 1.386 . S
C1176 C1171 1.490 . S
C1176 C1178 1.395 . S
C1176 C1179 1.403 . S
H1177 C1183 0.930 . S
C1178 H1164 0.930 . S
C1178 C1176 1.395 . S
C1178 C1181 1.403 . S
C1179 C1176 1.403 . S
C1179 C1180 1.524 1_565 S
C1179 C1183 1.400 . S
C1180 H1165 0.960 . S
C1180 H1166 0.960 . S
C1180 H1167 0.960 1_545 S
C1180 C1179 1.524 1_545 S
C1181 C1178 1.403 . S
C1181 C1182 1.392 . S
C1181 C1185 1.495 . S
C1182 C1181 1.392 . S
C1182 C1183 1.385 . S
C1182 C1184 1.478 . S
C1183 H1177 0.930 . S
C1183 C1179 1.400 . S
C1183 C1182 1.385 . S
C1184 C1182 1.478 . S
C1184 C1186 1.381 1_565 S
C1184 C1190 1.383 . S
C1185 C1181 1.495 . S
C1185 H1191 0.959 . S
C1185 H1192 0.961 . S
C1185 H1193 0.960 . S
C1186 C1184 1.381 1_545 S
C1186 C1187 1.394 1_545 S
C1186 H1194 0.930 . S
C1187 C1186 1.394 1_565 S
C1187 C1188 1.383 . S
C1187 H1195 0.929 1_565 S
C1188 C1187 1.383 . S
C1188 C1189 1.377 . S
C1189 H1173 0.930 . S
C1189 C1188 1.377 . S
C1189 C1190 1.379 . S
C1190 H1174 0.931 . S
C1190 C1184 1.383 . S
C1190 C1189 1.379 . S
H1191 C1185 0.959 . S
H1192 C1185 0.961 . S
H1193 C1185 0.960 . S
H1194 C1186 0.930 . S
H1195 C1187 0.929 1_545 S
H1196 C1204 0.929 . S
H1197 C1206 0.930 . S
H1198 C1208 0.930 . S
H1199 C1211 0.929 . S
H1200 C1214 0.930 . S
H1201 C1216 0.960 . S
H1202 C1216 0.960 . S
H1203 C1216 0.960 . S
C1204 H1196 0.929 . S
C1204 C1205 1.377 . S
C1204 C1206 1.384 . S
C1205 C1204 1.377 . S
C1205 C1211 1.390 . S
C1206 H1197 0.930 . S
C1206 C1204 1.384 . S
C1206 C1207 1.372 . S
C1207 C1206 1.372 . S
C1207 C1208 1.400 . S
C1207 C1212 1.490 . S
C1208 H1198 0.930 . S
C1208 C1207 1.400 . S
C1208 C1211 1.386 . S
H1209 C1225 0.930 . S
H1210 C1226 0.931 . S
C1211 H1199 0.929 . S
C1211 C1205 1.390 . S
C1211 C1208 1.386 . S
C1212 C1207 1.490 . S
C1212 C1214 1.395 . S
C1212 C1215 1.403 . S
H1213 C1219 0.930 . S
C1214 H1200 0.930 . S
C1214 C1212 1.395 . S
C1214 C1217 1.403 . S
C1215 C1212 1.403 . S
C1215 C1216 1.524 . S
C1215 C1219 1.400 . S
C1216 H1201 0.960 . S
C1216 H1202 0.960 . S
C1216 H1203 0.960 . S
C1216 C1215 1.524 . S
C1217 C1214 1.403 . S
C1217 C1218 1.392 . S
C1217 C1221 1.495 . S
C1218 C1217 1.392 . S
C1218 C1219 1.385 . S
C1218 C1220 1.478 . S
C1219 H1213 0.930 . S
C1219 C1215 1.400 . S
C1219 C1218 1.385 . S
C1220 C1218 1.478 . S
C1220 C1222 1.381 . S
C1220 C1226 1.383 . S
C1221 C1217 1.495 . S
C1221 H1227 0.959 . S
C1221 H1228 0.961 . S
C1221 H1229 0.960 . S
C1222 C1220 1.381 . S
C1222 C1223 1.394 . S
C1222 H1230 0.930 . S
C1223 C1222 1.394 . S
C1223 C1224 1.383 . S
C1223 H1231 0.929 . S
C1224 C1223 1.383 . S
C1224 C1225 1.377 . S
C1225 H1209 0.930 . S
C1225 C1224 1.377 . S
C1225 C1226 1.379 . S
C1226 H1210 0.931 . S
C1226 C1220 1.383 . S
C1226 C1225 1.379 . S
H1227 C1221 0.959 . S
H1228 C1221 0.961 . S
H1229 C1221 0.960 . S
H1230 C1222 0.930 . S
H1231 C1223 0.929 . S
H1232 C1240 0.929 . S
H1233 C1242 0.930 . S
H1234 C1244 0.930 . S
H1235 C1247 0.929 . S
H1236 C1250 0.930 . S
H1237 C1252 0.960 . S
H1238 C1252 0.960 . S
H1239 C1252 0.960 . S
C1240 H1232 0.929 . S
C1240 C1241 1.377 . S
C1240 C1242 1.384 . S
C1241 C1240 1.377 . S
C1241 C1247 1.390 . S
C1242 H1233 0.930 . S
C1242 C1240 1.384 . S
C1242 C1243 1.372 . S
C1243 C1242 1.372 . S
C1243 C1244 1.400 . S
C1243 C1248 1.490 . S
C1244 H1234 0.930 . S
C1244 C1243 1.400 . S
C1244 C1247 1.386 . S
H1245 C1261 0.930 . S
H1246 C1262 0.931 . S
C1247 H1235 0.929 . S
C1247 C1241 1.390 . S
C1247 C1244 1.386 . S
C1248 C1243 1.490 . S
C1248 C1250 1.395 . S
C1248 C1251 1.403 . S
H1249 C1255 0.930 . S
C1250 H1236 0.930 . S
C1250 C1248 1.395 . S
C1250 C1253 1.403 . S
C1251 C1248 1.403 . S
C1251 C1252 1.524 . S
C1251 C1255 1.400 . S
C1252 H1237 0.960 . S
C1252 H1238 0.960 . S
C1252 H1239 0.960 . S
C1252 C1251 1.524 . S
C1253 C1250 1.403 . S
C1253 C1254 1.392 . S
C1253 C1257 1.495 . S
C1254 C1253 1.392 . S
C1254 C1255 1.385 . S
C1254 C1256 1.478 . S
C1255 H1249 0.930 . S
C1255 C1251 1.400 . S
C1255 C1254 1.385 . S
C1256 C1254 1.478 . S
C1256 C1258 1.381 . S
C1256 C1262 1.383 . S
C1257 C1253 1.495 . S
C1257 H1263 0.959 . S
C1257 H1264 0.961 . S
C1257 H1265 0.960 . S
C1258 C1256 1.381 . S
C1258 C1259 1.394 . S
C1258 H1266 0.930 . S
C1259 C1258 1.394 . S
C1259 C1260 1.383 . S
C1259 H1267 0.929 . S
C1260 C1259 1.383 . S
C1260 C1261 1.377 . S
C1261 H1245 0.930 . S
C1261 C1260 1.377 . S
C1261 C1262 1.379 . S
C1262 H1246 0.931 . S
C1262 C1256 1.383 . S
C1262 C1261 1.379 . S
H1263 C1257 0.959 . S
H1264 C1257 0.961 . S
H1265 C1257 0.960 . S
H1266 C1258 0.930 . S
H1267 C1259 0.929 . S
C413 C255 1.577 . S
C432 C328 1.563 . S
C468 C351 1.791 . S
C449 C294 1.770 . S
C504 C374 1.698 . S
C485 C177 1.683 . S
C540 C401 1.602 . S
C521 C216 1.638 . S
C576 C329 1.561 . S
C557 C99 1.546 . S
C593 C138 1.540 1_556 S
C612 C352 1.582 . S
C629 C21 1.386 . S
C648 C375 1.375 . S
C665 C60 1.655 . S
C684 C400 1.654 . S
C720 C330 0.452 . S
C701 C196 0.716 . S
C756 C353 0.730 . S
C737 C235 0.748 . S
C792 C376 0.470 . S
C773 C289 0.572 . S
C809 C157 0.521 . S
C828 C402 0.789 . S
C845 C40 0.403 . S
C864 C333 0.637 . S
C900 C356 0.869 . S
C881 C79 0.454 . S
C936 C379 0.680 . S
C917 C133 0.467 . S
C953 C1 0.590 . S
C972 C399 0.547 . S
C989 C211 1.906 . S
C1008 C331 1.922 . S
C1025 C250 1.791 . S
C1044 C354 1.832 1_565 S
C1080 C377 1.830 . S
C1061 C274 1.816 . S
C1116 C398 1.509 . S
C1097 C172 1.438 . S
C1133 C55 1.849 . S
C1152 C332 1.853 . S
C1188 C355 1.722 . S
C1169 C94 1.735 1_565 S
C1224 C378 1.689 . S
C1205 C118 1.721 . S
C1241 C16 1.925 . S
C1260 C397 2.004 . S
