# Generated by pormake.
# Topology anh, (6,3)-cn, num edge types: 1
# Building blocks:
#     Node 0, Type 0, BuildingBlock: BETDIP_clean_sbu_0, # of connection points: 6
#     Node 1, Type 0, BuildingBlock: BETDIP_clean_sbu_0, # of connection points: 6
#     Node 2, Type 0, BuildingBlock: BETDIP_clean_sbu_0, # of connection points: 6
#     Node 3, Type 1, BuildingBlock: QEWDON_clean_linker_0, # of connection points: 3
#     Node 4, Type 1, BuildingBlock: QEWDON_clean_linker_0, # of connection points: 3
#     Node 5, Type 1, BuildingBlock: QEWDON_clean_linker_0, # of connection points: 3
#     Node 6, Type 1, BuildingBlock: QEWDON_clean_linker_0, # of connection points: 3
#     Node 7, Type 1, BuildingBlock: QEWDON_clean_linker_0, # of connection points: 3
#     Node 8, Type 1, BuildingBlock: QEWDON_clean_linker_0, # of connection points: 3
#     Edge 9, Type (0, 1), BuildingBlock: AJUNOK_clean_linker_0, # of connection points: 2
#     Edge 10, Type (0, 1), BuildingBlock: AJUNOK_clean_linker_0, # of connection points: 2
#     Edge 11, Type (0, 1), BuildingBlock: AJUNOK_clean_linker_0, # of connection points: 2
#     Edge 12, Type (0, 1), BuildingBlock: AJUNOK_clean_linker_0, # of connection points: 2
#     Edge 13, Type (0, 1), BuildingBlock: AJUNOK_clean_linker_0, # of connection points: 2
#     Edge 14, Type (0, 1), BuildingBlock: AJUNOK_clean_linker_0, # of connection points: 2
#     Edge 15, Type (0, 1), BuildingBlock: AJUNOK_clean_linker_0, # of connection points: 2
#     Edge 16, Type (0, 1), BuildingBlock: AJUNOK_clean_linker_0, # of connection points: 2
#     Edge 17, Type (0, 1), BuildingBlock: AJUNOK_clean_linker_0, # of connection points: 2
#     Edge 18, Type (0, 1), BuildingBlock: AJUNOK_clean_linker_0, # of connection points: 2
#     Edge 19, Type (0, 1), BuildingBlock: AJUNOK_clean_linker_0, # of connection points: 2
#     Edge 20, Type (0, 1), BuildingBlock: AJUNOK_clean_linker_0, # of connection points: 2
#     Edge 21, Type (0, 1), BuildingBlock: AJUNOK_clean_linker_0, # of connection points: 2
#     Edge 22, Type (0, 1), BuildingBlock: AJUNOK_clean_linker_0, # of connection points: 2
#     Edge 23, Type (0, 1), BuildingBlock: AJUNOK_clean_linker_0, # of connection points: 2
#     Edge 24, Type (0, 1), BuildingBlock: AJUNOK_clean_linker_0, # of connection points: 2
#     Edge 25, Type (0, 1), BuildingBlock: AJUNOK_clean_linker_0, # of connection points: 2
#     Edge 26, Type (0, 1), BuildingBlock: AJUNOK_clean_linker_0, # of connection points: 2
# Relax obj value: 0.339
# Max RMSD: 0.152
# Mean RMSD: 0.132
data_MOF--net-anh--node1-BETDIP_clean_sbu_0--node2-QEWDON_clean_linker_0--edge1-AJUNOK_clean_linker_0
_symmetry_space_group_name_H-M    P1
_symmetry_Int_Tables_number       1
_symmetry_cell_setting            triclinic
loop_
_symmetry_equiv_pos_as_xyz
'x, y, z'
_cell_length_a     23.708957
_cell_length_b     23.898441
_cell_length_c     35.704089
_cell_angle_alpha  93.380101
_cell_angle_beta   92.934826
_cell_angle_gamma 120.47215
loop_
_atom_site_label
_atom_site_type_symbol
_atom_site_fract_x
_atom_site_fract_y
_atom_site_fract_z
_atom_type_partial_charge
Tb0 Tb 0.27203 0.71099 0.1495 0.0
Tb1 Tb 0.20854 0.57292 0.138 0.0
C2 C 0.346 0.82857 0.17247 0.0
C3 C 0.40912 0.88158 0.16255 0.0
C4 C 0.46165 0.91394 0.19054 0.0
C5 C 0.51694 0.9725 0.18431 0.0
C6 C 0.51997 0.99995 0.15014 0.0
C7 C 0.47068 0.96408 0.12063 0.0
C8 C 0.41547 0.90498 0.12676 0.0
C9 C 0.23807 0.6661 0.07841 0.0
C10 C 0.3615 0.64294 0.13709 0.0
C11 C 1.12391 0.4561 0.11825 0.0
C12 C 1.05239 0.42986 0.11896 0.0
C13 C 1.01805 0.44127 0.08987 0.0
C14 C 0.96625 0.45087 0.09788 0.0
C15 C 0.94968 0.45033 0.13503 0.0
C16 C 0.97411 0.42492 0.16158 0.0
C17 C 1.02482 0.41406 0.15347 0.0
C18 C 0.24129 0.62122 0.21003 0.0
C19 C 1.12087 0.64278 0.13838 0.0
O20 O 0.34685 0.78156 0.18914 0.0
O21 O 0.29626 0.80729 0.14701 0.0
O22 O 0.26258 0.64623 0.10237 0.0
O23 O 0.23784 0.7166 0.09297 0.0
O24 O 0.35878 0.69592 0.14838 0.0
O25 O 0.30564 0.58693 0.1278 0.0
O26 O 1.15275 0.49889 0.09411 0.0
O27 O 1.15788 0.47586 0.15124 0.0
O28 O 0.21528 0.63817 0.18496 0.0
O29 O 0.24942 0.57541 0.19515 0.0
O30 O 1.12646 0.59257 0.1255 0.0
O31 O 1.17302 0.69376 0.15692 0.0
H32 H 0.458 0.89646 0.21816 0.0
H33 H 0.55411 0.99953 0.20769 0.0
H34 H 0.47225 0.98434 0.09408 0.0
H35 H 0.37605 0.88018 0.1043 0.0
H36 H 1.03634 0.45112 0.06238 0.0
H37 H 0.9447 0.46599 0.07617 0.0
H38 H 0.95863 0.41968 0.18984 0.0
H39 H 1.04813 0.40219 0.17602 0.0
Tb40 Tb 0.76665 0.12799 0.48169 0.0
Tb41 Tb 0.68527 0.18685 0.48229 0.0
C42 C 0.80549 1.05181 0.49638 0.0
C43 C 0.76083 0.98047 0.49483 0.0
C44 C 0.73384 0.95328 0.52787 0.0
C45 C 0.67079 0.89861 0.52577 0.0
C46 C 0.63405 0.86999 0.49064 0.0
C47 C 0.66626 0.88996 0.45783 0.0
C48 C 0.72929 0.94462 0.45988 0.0
C49 C 0.74185 0.15878 0.41626 0.0
C50 C 0.60464 1.0338 0.46978 0.0
C51 C 0.63429 0.25319 0.46712 0.0
C52 C 0.65564 0.31963 0.45772 0.0
C53 C 0.63021 0.32853 0.42369 0.0
C54 C 0.63183 0.38707 0.41956 0.0
C55 C 0.65617 0.43549 0.45017 0.0
C56 C 0.69278 0.43092 0.48091 0.0
C57 C 0.69234 0.37316 0.48472 0.0
C58 C 0.70342 0.15181 0.54854 0.0
C59 C 0.84583 0.27927 0.48226 0.0
O60 O 0.7952 1.08557 0.52262 0.0
O61 O 0.81256 1.07682 0.46405 0.0
O62 O 0.70311 0.13355 0.44093 0.0
O63 O 0.79836 0.16569 0.42705 0.0
O64 O 0.66376 1.03933 0.47434 0.0
O65 O 0.60057 1.08704 0.47018 0.0
O66 O 0.64022 0.21529 0.44182 0.0
O67 O 0.65002 0.24647 0.50161 0.0
O68 O 0.74701 0.17941 0.52586 0.0
O69 O 0.64903 0.1461 0.53467 0.0
O70 O 0.78635 0.27264 0.47704 0.0
O71 O 0.85073 0.22806 0.4895 0.0
H72 H 0.75782 0.97869 0.55531 0.0
H73 H 0.64903 0.88189 0.5518 0.0
H74 H 0.64146 0.8677 0.43029 0.0
H75 H 0.74959 0.96293 0.43376 0.0
H76 H 0.60365 0.28835 0.40185 0.0
H77 H 0.60626 0.39074 0.39466 0.0
H78 H 0.71383 0.46789 0.50471 0.0
H79 H 0.71477 0.36848 0.51063 0.0
Tb80 Tb 0.66099 0.57253 0.8269 0.0
Tb81 Tb 0.78428 0.6412 0.79656 0.0
C82 C 0.56572 0.55091 0.86229 0.0
C83 C 0.53204 0.58699 0.85494 0.0
C84 C 0.51395 0.61362 0.88463 0.0
C85 C 0.50147 0.66393 0.87884 0.0
C86 C 0.50879 0.68942 0.84357 0.0
C87 C 0.52414 0.66046 0.81362 0.0
C88 C 0.53421 0.60899 0.81904 0.0
C89 C 0.6496 0.56127 0.75295 0.0
C90 C 0.7203 0.72578 0.80808 0.0
C91 C 0.87894 0.67053 0.75784 0.0
C92 C 0.92675 0.64885 0.75993 0.0
C93 C 0.9387 0.6215 0.72753 0.0
C94 C 0.97524 0.59043 0.73082 0.0
C95 C 0.99864 0.5854 0.76665 0.0
C96 C 0.98949 0.61622 0.79859 0.0
C97 C 0.9536 0.64697 0.79534 0.0
C98 C 0.79265 0.64966 0.87199 0.0
C99 C 0.72247 0.4862 0.80644 0.0
O100 O 0.62643 0.58799 0.87725 0.0
O101 O 0.56095 0.51103 0.83394 0.0
O102 O 0.68737 0.61247 0.77418 0.0
O103 O 0.61502 0.51486 0.7733 0.0
O104 O 0.6813 0.67694 0.82805 0.0
O105 O 0.76163 0.7182 0.78806 0.0
O106 O 0.81876 0.62416 0.74672 0.0
O107 O 0.88156 0.70778 0.7871 0.0
O108 O 0.75623 0.59981 0.84958 0.0
O109 O 0.8298 0.69628 0.85227 0.0
O110 O 0.76419 0.5388 0.7903 0.0
O111 O 0.67995 0.49025 0.8278 0.0
H112 H 0.51319 0.59826 0.91263 0.0
H113 H 0.48851 0.68452 0.90235 0.0
H114 H 0.53244 0.67989 0.78651 0.0
H115 H 0.54979 0.59057 0.79575 0.0
H116 H 0.91775 0.62204 0.69997 0.0
H117 H 0.98278 0.56818 0.70576 0.0
H118 H 1.00951 0.61596 0.82651 0.0
H119 H 0.94506 0.66723 0.8209 0.0
H120 H 0.72193 0.37205 0.31227 0.0
C121 C 0.70031 0.33586 0.28807 0.0
C122 C 0.68708 0.27199 0.29136 0.0
C123 C 0.68844 0.35323 0.25271 0.0
H124 H 0.65581 0.17844 0.26172 0.0
C125 C 0.66431 0.22716 0.25931 0.0
C126 C 0.65285 0.24415 0.22421 0.0
C127 C 0.66237 0.30612 0.22129 0.0
C128 C 0.71569 0.42213 0.24557 0.0
H129 H 0.65395 0.31926 0.19387 0.0
C130 C 0.75677 0.44421 0.21662 0.0
C131 C 0.78541 0.50837 0.20755 0.0
C132 C 0.70326 0.46578 0.26635 0.0
H133 H 0.6717 0.44982 0.28907 0.0
C134 C 0.73167 0.53062 0.25737 0.0
H135 H 0.76927 0.41146 0.20185 0.0
C136 C 0.77332 0.55227 0.22821 0.0
H137 H 0.79683 0.60284 0.22237 0.0
H138 H 0.72223 0.56438 0.27342 0.0
H139 H 0.46539 0.57955 0.6231 0.0
C140 C 0.48411 0.56666 0.59906 0.0
C141 C 0.53596 0.55448 0.60453 0.0
C142 C 0.45864 0.56486 0.5623 0.0
H143 H 0.60362 0.53385 0.5776 0.0
C144 C 0.56297 0.54226 0.57333 0.0
C145 C 0.53771 0.5403 0.53672 0.0
C146 C 0.4846 0.54975 0.53138 0.0
C147 C 0.41543 0.59149 0.55491 0.0
H148 H 0.46573 0.54902 0.5029 0.0
C149 C 0.43704 0.64141 0.53136 0.0
C150 C 0.39949 0.6691 0.52154 0.0
C151 C 0.35516 0.56971 0.57015 0.0
H152 H 0.33751 0.53116 0.58872 0.0
C153 C 0.31718 0.59781 0.56093 0.0
H154 H 0.48543 0.66067 0.5214 0.0
C155 C 0.33945 0.64789 0.53685 0.0
H156 H 0.31075 0.67041 0.53072 0.0
H157 H 0.27073 0.58119 0.57273 0.0
H158 H 0.29293 0.75615 0.93548 0.0
C159 C 0.26365 0.71903 0.91242 0.0
C160 C 0.22752 0.65335 0.91915 0.0
C161 C 0.262 0.73723 0.87617 0.0
H162 H 1.16391 0.55437 0.8951 0.0
C163 C 0.19186 0.6049 0.88926 0.0
C164 C 0.1898 0.62231 0.85244 0.0
C165 C 0.22417 0.68917 0.84664 0.0
C166 C 0.31111 0.80284 0.86707 0.0
H167 H 0.22224 0.70487 0.81903 0.0
C168 C 0.37603 0.81759 0.87013 0.0
C169 C 0.42151 0.86232 0.84787 0.0
C170 C 0.29389 0.84111 0.84648 0.0
H171 H 0.24336 0.82964 0.84321 0.0
C172 C 0.34158 0.89192 0.82796 0.0
H173 H 0.38779 0.7852 0.88426 0.0
C174 C 0.40479 0.901 0.8274 0.0
H175 H 0.43873 0.93466 0.80925 0.0
H176 H 0.32802 0.92062 0.8115 0.0
H177 H 0.1874 0.61901 0.38563 0.0
C178 C 0.23251 0.66228 0.3973 0.0
C179 C 0.2778 0.70056 0.37225 0.0
C180 C 0.24483 0.67984 0.43667 0.0
H181 H 0.36637 0.78926 0.36583 0.0
C182 C 0.33554 0.75883 0.3862 0.0
C183 C 0.35327 0.77847 0.42512 0.0
C184 C 0.307 0.73801 0.45006 0.0
C185 C 0.19182 0.6398 0.46317 0.0
H186 H 0.32054 0.7519 0.47992 0.0
C187 C 1.13731 0.57327 0.45393 0.0
C188 C 1.08747 0.54116 0.47943 0.0
C189 C 0.19372 0.67083 0.49844 0.0
H190 H 0.23082 0.72103 0.50701 0.0
C191 C 1.14669 0.63909 0.52345 0.0
H192 H 1.13289 0.54673 0.42732 0.0
C193 C 1.0945 0.57572 0.51412 0.0
H194 H 1.05876 0.55341 0.53439 0.0
H195 H 1.15013 0.66459 0.55034 0.0
H196 H 0.72479 1.0815 0.72457 0.0
C197 C 0.7215 0.1221 0.73683 0.0
C198 C 0.72104 0.16673 0.71266 0.0
C199 C 0.72038 0.13095 0.77632 0.0
H200 H 0.71838 0.25475 0.70886 0.0
C201 C 0.71956 0.22162 0.72793 0.0
C202 C 0.71878 0.23449 0.76687 0.0
C203 C 0.71716 0.18749 0.79063 0.0
C204 C 0.72714 1.08436 0.80245 0.0
H205 H 0.71441 0.19643 0.82028 0.0
C206 C 0.71596 1.01962 0.79072 0.0
C207 C 0.72473 0.98027 0.81726 0.0
C208 C 0.74871 1.10713 0.84076 0.0
H209 H 0.76168 0.1556 0.85174 0.0
C210 C 0.75674 1.06933 0.86626 0.0
H211 H 0.69961 0.99931 0.76169 0.0
C212 C 0.74499 1.00746 0.85488 0.0
H213 H 0.75341 0.98104 0.87596 0.0
H214 H 0.77344 1.08888 0.89543 0.0
H215 H 0.72514 0.65679 0.04797 0.0
C216 C 0.76523 0.65286 0.06067 0.0
C217 C 0.81112 0.65213 0.03708 0.0
C218 C 0.77254 0.6514 0.10022 0.0
H219 H 0.9008 0.65095 0.03444 0.0
C220 C 0.86551 0.64994 0.05293 0.0
C221 C 0.87543 0.64673 0.09179 0.0
C222 C 0.82779 0.64637 0.11495 0.0
C223 C 0.72572 0.65893 0.12621 0.0
H224 H 0.83383 0.64071 0.14438 0.0
C225 C 0.66182 0.65016 0.11413 0.0
C226 C 0.62338 0.66182 0.14034 0.0
C227 C 0.74767 0.67915 0.16477 0.0
H228 H 0.79565 0.69022 0.17612 0.0
C229 C 0.70968 0.68815 0.19013 0.0
H230 H 0.64235 0.63541 0.08492 0.0
C231 C 0.64895 0.67974 0.17824 0.0
H232 H 0.62167 0.68794 0.19916 0.0
H233 H 0.72828 0.70313 0.21953 0.0
C234 C 0.48786 0.7065 0.14452 0.0
C235 C 0.42814 0.64755 0.13352 0.0
C236 C 0.55015 0.71151 0.14356 0.0
C237 C 0.55741 0.65809 0.13124 0.0
H238 H 0.48675 0.7494 0.15509 0.0
H239 H 0.5934 0.75751 0.15407 0.0
S240 S 0.41801 0.49288 0.09718 0.0
N241 N 0.38181 0.53457 0.10789 0.0
N242 N 0.49782 0.54429 0.10652 0.0
C243 C 0.49845 0.59948 0.11878 0.0
C244 C 0.43462 0.59414 0.11984 0.0
C245 C 0.90562 0.40264 0.47599 0.0
C246 C 0.90808 0.34501 0.47821 0.0
C247 C 0.96287 0.46446 0.47355 0.0
C248 C 1.02636 0.47273 0.4723 0.0
H249 H 0.85895 0.40057 0.47724 0.0
H250 H 0.95768 0.5069 0.47394 0.0
S251 S 1.06154 0.33832 0.47508 0.0
N252 N 0.98122 0.30135 0.47731 0.0
N253 N 1.08709 0.41632 0.47261 0.0
C254 C 1.02942 0.41542 0.47316 0.0
C255 C 0.97118 0.35235 0.47608 0.0
C256 C 0.6817 0.80338 0.83268 0.0
C257 C 0.71657 0.78833 0.80696 0.0
C258 C 0.68136 0.86289 0.83372 0.0
C259 C 0.71475 0.91147 0.80891 0.0
H260 H 0.65633 0.77002 0.85328 0.0
H261 H 0.6567 0.87246 0.85569 0.0
S262 S 0.8127 0.89722 0.73506 0.0
N263 N 0.78484 0.82836 0.75492 0.0
N264 N 0.78343 0.93838 0.75717 0.0
C265 C 0.74815 0.89629 0.78224 0.0
C266 C 0.74923 0.83577 0.78129 0.0
C267 C 1.01532 0.60638 0.09631 0.0
C268 C 1.05745 0.64354 0.1288 0.0
C269 C 0.95673 0.60625 0.08568 0.0
C270 C 0.93601 0.64375 0.10665 0.0
H271 H 1.02852 0.57789 0.07821 0.0
H272 H 0.92728 0.57613 0.06031 0.0
S273 S 1.02947 0.75297 0.19364 0.0
N274 N 1.07445 0.72121 0.1815 0.0
N275 N 0.96532 0.72103 0.16181 0.0
C276 C 0.97784 0.68157 0.13931 0.0
C277 C 1.03808 0.68192 0.15003 0.0
C278 C 0.48528 0.94666 0.47934 0.0
C279 C 0.54228 0.9671 0.45997 0.0
C280 C 0.42594 0.88558 0.46911 0.0
C281 C 0.41951 0.84152 0.43845 0.0
H282 H 0.48643 0.97834 0.5027 0.0
H283 H 0.38409 0.87371 0.48487 0.0
S284 S 0.55336 0.87354 0.37685 0.0
N285 N 0.58655 0.93927 0.40729 0.0
N286 N 0.47894 0.82513 0.38928 0.0
C287 C 0.4769 0.86185 0.41912 0.0
C288 C 0.53679 0.92396 0.42948 0.0
C289 C 0.679 0.36279 0.81336 0.0
C290 C 0.72405 0.42242 0.79919 0.0
C291 C 0.67863 0.30311 0.80465 0.0
C292 C 0.7232 0.29925 0.78104 0.0
H293 H 0.64251 0.3617 0.8309 0.0
H294 H 0.64165 0.25922 0.81551 0.0
S295 S 0.85414 0.44015 0.73824 0.0
N296 N 0.81663 0.47186 0.76119 0.0
N297 N 0.81631 0.36265 0.74588 0.0
C298 C 0.76958 0.35881 0.76787 0.0
C299 C 0.76994 0.41906 0.77653 0.0
C300 C 0.52581 0.83553 0.51591 0.0
C301 C 0.56171 0.82434 0.48912 0.0
C302 C 0.46177 0.7872 0.52138 0.0
C303 C 0.43177 0.72642 0.50008 0.0
H304 H 0.54896 0.88011 0.53479 0.0
H305 H 0.43988 0.79405 0.54582 0.0
S306 S 0.49349 0.68097 0.41761 0.0
N307 N 0.55516 0.75318 0.43508 0.0
N308 N 0.43276 0.665 0.44392 0.0
C309 C 0.461 0.72039 0.468 0.0
C310 C 0.52732 0.76816 0.46332 0.0
C311 C 1.02497 0.5175 0.80448 0.0
C312 C 1.03623 0.55218 0.77246 0.0
C313 C 1.07817 0.53007 0.82961 0.0
C314 C 1.14279 0.57385 0.82143 0.0
H315 H 0.97634 0.49299 0.81428 0.0
H316 H 1.06768 0.51465 0.85758 0.0
S317 S 0.19277 0.63267 0.72834 0.0
N318 N 1.11264 0.60338 0.72542 0.0
N319 N 0.21238 0.6185 0.77037 0.0
C320 C 1.15222 0.58746 0.78365 0.0
C321 C 1.09843 0.57856 0.7592 0.0
C322 C 0.62968 1.09887 0.16492 0.0
C323 C 0.56383 1.07094 0.15041 0.0
C324 C 0.66245 0.16048 0.18517 0.0
C325 C 0.63011 0.19546 0.19121 0.0
H326 H 0.65273 1.0696 0.16505 0.0
H327 H 0.71044 0.17752 0.19967 0.0
S328 S 0.46533 0.15167 0.14908 0.0
N329 N 0.47332 1.08899 0.13551 0.0
N330 N 0.5351 0.2049 0.17395 0.0
C331 C 0.56884 0.173 0.17131 0.0
C332 C 0.53559 1.11043 0.15052 0.0
C333 C 0.66368 0.53728 0.47811 0.0
C334 C 0.62603 0.47606 0.45698 0.0
C335 C 0.63407 0.56128 0.50195 0.0
C336 C 0.56583 0.5258 0.50429 0.0
H337 H 0.71692 0.56273 0.4798 0.0
H338 H 0.66509 0.60503 0.52077 0.0
S339 S 0.44356 0.37322 0.44693 0.0
N340 N 0.51533 0.38779 0.4342 0.0
N341 N 0.46026 0.43438 0.47827 0.0
C342 C 0.52685 0.4704 0.47894 0.0
C343 C 0.55685 0.4454 0.45505 0.0
C344 C 0.52874 0.79908 0.86761 0.0
C345 C 0.50284 0.74754 0.83862 0.0
C346 C 0.51475 0.84928 0.86662 0.0
C347 C 0.47237 0.84809 0.8372 0.0
H348 H 0.55729 0.79892 0.89226 0.0
H349 H 0.52887 0.88333 0.89152 0.0
S350 S 0.40231 0.73208 0.75108 0.0
N351 N 0.4413 0.7047 0.77679 0.0
N352 N 0.4156 0.79943 0.77513 0.0
C353 C 0.45463 0.80284 0.80551 0.0
C354 C 0.46842 0.75143 0.8065 0.0
C355 C 0.85503 0.46979 0.12873 0.0
C356 C 0.91482 0.48385 0.14769 0.0
C357 C 0.81632 0.49192 0.14499 0.0
C358 C 0.83597 0.52742 0.18089 0.0
H359 H 0.83552 0.4371 0.10302 0.0
H360 H 0.76677 0.47298 0.13222 0.0
S361 S 0.99712 0.59375 0.2357 0.0
N362 N 0.99917 0.5494 0.19913 0.0
N363 N 0.92518 0.58893 0.22993 0.0
C364 C 0.90018 0.55089 0.1966 0.0
C365 C 0.93954 0.52853 0.18026 0.0
C366 C 0.27503 0.64129 0.01904 0.0
C367 C 0.22747 0.64723 0.03788 0.0
C368 C 0.27236 0.63781 0.97958 0.0
C369 C 0.22094 0.63805 0.95836 0.0
H370 H 0.31695 0.6444 0.03486 0.0
H371 H 0.31245 0.63883 0.96576 0.0
S372 S 1.08048 0.64406 -0.00537 0.0
N373 N 1.12537 0.64791 0.03271 0.0
N374 N 1.11871 0.63826 0.95851 0.0
C375 C 1.1705 0.63848 0.97687 0.0
C376 C 1.17418 0.64384 0.01681 0.0
C377 C 0.77852 0.24557 0.37176 0.0
C378 C 0.72808 0.1888 0.38493 0.0
C379 C 0.76447 0.27592 0.34316 0.0
C380 C 0.69971 0.25025 0.32704 0.0
H381 H 0.82889 0.26654 0.38359 0.0
H382 H 0.80471 0.31801 0.33251 0.0
S383 S 0.55054 1.10345 0.35222 0.0
N384 N 0.6112 1.10855 0.37994 0.0
N385 N 0.5849 0.16621 0.3269 0.0
C386 C 0.64896 0.19451 0.34069 0.0
C387 C 0.66319 0.16347 0.36936 0.0
C388 C 0.62596 0.61623 0.70229 0.0
C389 C 0.62499 0.56072 0.71427 0.0
C390 C 0.59537 0.61357 0.66699 0.0
C391 C 0.56395 0.55568 0.64259 0.0
H392 H 0.64883 0.66136 0.72065 0.0
H393 H 0.59688 0.65709 0.65855 0.0
S394 S 0.55029 0.39823 0.66033 0.0
N395 N 0.59127 0.44705 0.69892 0.0
N396 N 0.53504 0.44248 0.63227 0.0
C397 C 0.56385 0.50044 0.65401 0.0
C398 C 0.59411 0.50289 0.68999 0.0
C399 C 0.76794 0.20287 0.61197 0.0
C400 C 0.71515 0.14959 0.58973 0.0
C401 C 0.77095 0.20689 0.65173 0.0
C402 C 0.72211 0.15716 0.67081 0.0
H403 H 0.80501 0.24349 0.59863 0.0
H404 H 0.81078 0.25022 0.66773 0.0
S405 S 0.5767 1.0051 0.62536 0.0
N406 N 0.61486 1.04472 0.58968 0.0
N407 N 0.62158 1.05134 0.66396 0.0
C408 C 0.6712 1.10212 0.64878 0.0
C409 C 0.66746 1.09865 0.60842 0.0
C410 C 0.74912 0.60031 0.93246 0.0
C411 C 0.79678 0.65237 0.91421 0.0
C412 C 0.7523 0.60171 0.97217 0.0
C413 C 0.80392 0.65463 -0.0047 0.0
H414 H 0.70921 0.55786 0.91596 0.0
H415 H 0.71512 0.56012 0.98484 0.0
S416 S 0.94099 0.80326 0.96217 0.0
N417 N 0.89662 0.75904 0.92298 0.0
N418 N 0.90339 0.76053 -0.00295 0.0
C419 C 0.85163 0.70697 0.97749 0.0
C420 C 0.84786 0.70612 0.93718 0.0
C421 C 0.20977 0.66075 0.26818 0.0
C422 C 0.25098 0.642 0.25126 0.0
C423 C 0.21726 0.67806 0.30744 0.0
C424 C 0.26717 0.67879 0.33102 0.0
H425 H 1.17094 0.66105 0.2511 0.0
H426 H 0.1844 0.69193 0.31936 0.0
S427 S 0.38971 0.63707 0.30061 0.0
N428 N 0.34395 0.62639 0.26134 0.0
N429 N 0.35924 0.66095 0.33439 0.0
C430 C 0.30914 0.66123 0.3143 0.0
C431 C 0.30069 0.64231 0.27467 0.0
loop_
_geom_bond_atom_site_label_1
_geom_bond_atom_site_label_2
_geom_bond_distance
_geom_bond_site_symmetry_2
_ccdc_geom_bond_type
Tb0 C2 2.809 . S
Tb0 O20 2.484 . S
Tb0 O21 2.440 . S
Tb0 O22 2.658 1_455 S
Tb0 O23 2.409 . S
Tb0 O24 2.378 . S
Tb0 O28 2.325 . S
Tb0 O31 2.341 1_455 S
Tb1 C11 2.809 . S
Tb1 O22 2.325 . S
Tb1 O25 2.341 1_655 S
Tb1 O26 2.484 . S
Tb1 O27 2.440 . S
Tb1 O28 2.658 1_655 S
Tb1 O29 2.409 . S
Tb1 O30 2.378 . S
C2 Tb0 2.809 . S
C2 C3 1.514 . S
C2 O20 1.248 . S
C2 O21 1.266 . S
C3 C2 1.514 . S
C3 C4 1.359 . S
C3 C8 1.348 . S
C4 C3 1.359 . S
C4 C5 1.380 . S
C4 H32 0.929 . S
C5 C4 1.380 . S
C5 C6 1.347 . S
C5 H33 0.931 . S
C6 C5 1.347 . S
C6 C7 1.369 . S
C7 C6 1.369 . S
C7 C8 1.408 . S
C7 H34 0.930 . S
C8 C3 1.348 . S
C8 C7 1.408 . S
C8 H35 0.930 . S
C9 O22 1.281 1_455 S
C9 O23 1.254 . S
C10 O24 1.236 . S
C10 O25 1.266 . S
C11 Tb1 2.809 . S
C11 C12 1.514 . S
C11 O26 1.248 . S
C11 O27 1.266 . S
C12 C11 1.514 . S
C12 C13 1.359 . S
C12 C17 1.348 . S
C13 C12 1.359 . S
C13 C14 1.380 . S
C13 H36 0.929 . S
C14 C13 1.380 . S
C14 C15 1.347 . S
C14 H37 0.931 . S
C15 C14 1.347 . S
C15 C16 1.369 . S
C16 C15 1.369 . S
C16 C17 1.408 . S
C16 H38 0.930 . S
C17 C12 1.348 . S
C17 C16 1.408 . S
C17 H39 0.930 . S
C18 O28 1.281 . S
C18 O29 1.254 1_455 S
C19 O30 1.236 . S
C19 O31 1.266 . S
O20 Tb0 2.484 . S
O20 C2 1.248 . S
O21 Tb0 2.440 . S
O21 C2 1.266 . S
O22 Tb0 2.658 1_655 S
O22 Tb1 2.325 . S
O22 C9 1.281 1_655 S
O23 Tb0 2.409 . S
O23 C9 1.254 . S
O24 Tb0 2.378 . S
O24 C10 1.236 . S
O25 Tb1 2.341 1_455 S
O25 C10 1.266 . S
O26 Tb1 2.484 . S
O26 C11 1.248 . S
O27 Tb1 2.440 . S
O27 C11 1.266 . S
O28 Tb0 2.325 . S
O28 Tb1 2.658 1_455 S
O28 C18 1.281 . S
O29 Tb1 2.409 . S
O29 C18 1.254 1_655 S
O30 Tb1 2.378 . S
O30 C19 1.236 . S
O31 Tb0 2.341 1_655 S
O31 C19 1.266 . S
H32 C4 0.929 . S
H33 C5 0.931 . S
H34 C7 0.930 . S
H35 C8 0.930 . S
H36 C13 0.929 . S
H37 C14 0.931 . S
H38 C16 0.930 . S
H39 C17 0.930 . S
Tb40 C42 2.809 1_545 S
Tb40 O60 2.484 1_545 S
Tb40 O61 2.440 1_545 S
Tb40 O62 2.658 . S
Tb40 O63 2.409 . S
Tb40 O64 2.378 1_545 S
Tb40 O68 2.325 . S
Tb40 O71 2.341 . S
Tb41 C51 2.809 . S
Tb41 O62 2.325 . S
Tb41 O65 2.341 1_545 S
Tb41 O66 2.484 . S
Tb41 O67 2.440 . S
Tb41 O68 2.658 . S
Tb41 O69 2.409 . S
Tb41 O70 2.378 . S
C42 Tb40 2.809 1_565 S
C42 C43 1.514 . S
C42 O60 1.248 . S
C42 O61 1.266 . S
C43 C42 1.514 . S
C43 C44 1.359 . S
C43 C48 1.348 . S
C44 C43 1.359 . S
C44 C45 1.380 . S
C44 H72 0.929 . S
C45 C44 1.380 . S
C45 C46 1.347 . S
C45 H73 0.931 . S
C46 C45 1.347 . S
C46 C47 1.369 . S
C47 C46 1.369 . S
C47 C48 1.408 . S
C47 H74 0.930 . S
C48 C43 1.348 . S
C48 C47 1.408 . S
C48 H75 0.930 . S
C49 O62 1.281 . S
C49 O63 1.254 . S
C50 O64 1.236 . S
C50 O65 1.266 . S
C51 Tb41 2.809 . S
C51 C52 1.514 . S
C51 O66 1.248 . S
C51 O67 1.266 . S
C52 C51 1.514 . S
C52 C53 1.359 . S
C52 C57 1.348 . S
C53 C52 1.359 . S
C53 C54 1.380 . S
C53 H76 0.929 . S
C54 C53 1.380 . S
C54 C55 1.347 . S
C54 H77 0.931 . S
C55 C54 1.347 . S
C55 C56 1.369 . S
C56 C55 1.369 . S
C56 C57 1.408 . S
C56 H78 0.930 . S
C57 C52 1.348 . S
C57 C56 1.408 . S
C57 H79 0.930 . S
C58 O68 1.281 . S
C58 O69 1.254 . S
C59 O70 1.236 . S
C59 O71 1.266 . S
O60 Tb40 2.484 1_565 S
O60 C42 1.248 . S
O61 Tb40 2.440 1_565 S
O61 C42 1.266 . S
O62 Tb40 2.658 . S
O62 Tb41 2.325 . S
O62 C49 1.281 . S
O63 Tb40 2.409 . S
O63 C49 1.254 . S
O64 Tb40 2.378 1_565 S
O64 C50 1.236 . S
O65 Tb41 2.341 1_565 S
O65 C50 1.266 . S
O66 Tb41 2.484 . S
O66 C51 1.248 . S
O67 Tb41 2.440 . S
O67 C51 1.266 . S
O68 Tb40 2.325 . S
O68 Tb41 2.658 . S
O68 C58 1.281 . S
O69 Tb41 2.409 . S
O69 C58 1.254 . S
O70 Tb41 2.378 . S
O70 C59 1.236 . S
O71 Tb40 2.341 . S
O71 C59 1.266 . S
H72 C44 0.929 . S
H73 C45 0.931 . S
H74 C47 0.930 . S
H75 C48 0.930 . S
H76 C53 0.929 . S
H77 C54 0.931 . S
H78 C56 0.930 . S
H79 C57 0.930 . S
Tb80 C82 2.809 . S
Tb80 O100 2.484 . S
Tb80 O101 2.440 . S
Tb80 O102 2.658 . S
Tb80 O103 2.409 . S
Tb80 O104 2.378 . S
Tb80 O108 2.325 . S
Tb80 O111 2.341 . S
Tb81 C91 2.809 . S
Tb81 O102 2.325 . S
Tb81 O105 2.341 . S
Tb81 O106 2.484 . S
Tb81 O107 2.440 . S
Tb81 O108 2.658 . S
Tb81 O109 2.409 . S
Tb81 O110 2.378 . S
C82 Tb80 2.809 . S
C82 C83 1.514 . S
C82 O100 1.248 . S
C82 O101 1.266 . S
C83 C82 1.514 . S
C83 C84 1.359 . S
C83 C88 1.348 . S
C84 C83 1.359 . S
C84 C85 1.380 . S
C84 H112 0.929 . S
C85 C84 1.380 . S
C85 C86 1.347 . S
C85 H113 0.931 . S
C86 C85 1.347 . S
C86 C87 1.369 . S
C87 C86 1.369 . S
C87 C88 1.408 . S
C87 H114 0.930 . S
C88 C83 1.348 . S
C88 C87 1.408 . S
C88 H115 0.930 . S
C89 O102 1.281 . S
C89 O103 1.254 . S
C90 O104 1.236 . S
C90 O105 1.266 . S
C91 Tb81 2.809 . S
C91 C92 1.514 . S
C91 O106 1.248 . S
C91 O107 1.266 . S
C92 C91 1.514 . S
C92 C93 1.359 . S
C92 C97 1.348 . S
C93 C92 1.359 . S
C93 C94 1.380 . S
C93 H116 0.929 . S
C94 C93 1.380 . S
C94 C95 1.347 . S
C94 H117 0.931 . S
C95 C94 1.347 . S
C95 C96 1.369 . S
C96 C95 1.369 . S
C96 C97 1.408 . S
C96 H118 0.930 . S
C97 C92 1.348 . S
C97 C96 1.408 . S
C97 H119 0.930 . S
C98 O108 1.281 . S
C98 O109 1.254 . S
C99 O110 1.236 . S
C99 O111 1.266 . S
O100 Tb80 2.484 . S
O100 C82 1.248 . S
O101 Tb80 2.440 . S
O101 C82 1.266 . S
O102 Tb80 2.658 . S
O102 Tb81 2.325 . S
O102 C89 1.281 . S
O103 Tb80 2.409 . S
O103 C89 1.254 . S
O104 Tb80 2.378 . S
O104 C90 1.236 . S
O105 Tb81 2.341 . S
O105 C90 1.266 . S
O106 Tb81 2.484 . S
O106 C91 1.248 . S
O107 Tb81 2.440 . S
O107 C91 1.266 . S
O108 Tb80 2.325 . S
O108 Tb81 2.658 . S
O108 C98 1.281 . S
O109 Tb81 2.409 . S
O109 C98 1.254 . S
O110 Tb81 2.378 . S
O110 C99 1.236 . S
O111 Tb80 2.341 . S
O111 C99 1.266 . S
H112 C84 0.929 . S
H113 C85 0.931 . S
H114 C87 0.930 . S
H115 C88 0.930 . S
H116 C93 0.929 . S
H117 C94 0.931 . S
H118 C96 0.930 . S
H119 C97 0.930 . S
H120 C121 0.949 . S
C121 H120 0.949 . S
C121 C122 1.395 . S
C121 C123 1.391 . S
C122 C121 1.395 . S
C122 C125 1.390 1_545 S
C123 C121 1.391 . S
C123 C127 1.387 . S
C123 C128 1.491 . S
H124 C125 0.950 . S
C125 C122 1.390 1_565 S
C125 H124 0.950 . S
C125 C126 1.378 . S
C126 C125 1.378 . S
C126 C127 1.409 1_565 S
C127 C123 1.387 . S
C127 C126 1.409 1_545 S
C127 H129 0.951 . S
C128 C123 1.491 . S
C128 C130 1.382 . S
C128 C132 1.404 . S
H129 C127 0.951 . S
C130 C128 1.382 . S
C130 C131 1.390 . S
C130 H135 0.949 . S
C131 C130 1.390 . S
C131 C136 1.399 . S
C132 C128 1.404 . S
C132 H133 0.950 . S
C132 C134 1.375 . S
H133 C132 0.950 . S
C134 C132 1.375 . S
C134 C136 1.382 . S
C134 H138 0.950 . S
H135 C130 0.949 . S
C136 C131 1.399 . S
C136 C134 1.382 . S
C136 H137 0.952 . S
H137 C136 0.952 . S
H138 C134 0.950 . S
H139 C140 0.949 . S
C140 H139 0.949 . S
C140 C141 1.395 . S
C140 C142 1.391 . S
C141 C140 1.395 . S
C141 C144 1.390 . S
C142 C140 1.391 . S
C142 C146 1.387 . S
C142 C147 1.491 . S
H143 C144 0.950 . S
C144 C141 1.390 . S
C144 H143 0.950 . S
C144 C145 1.378 . S
C145 C144 1.378 . S
C145 C146 1.409 . S
C146 C142 1.387 . S
C146 C145 1.409 . S
C146 H148 0.951 . S
C147 C142 1.491 . S
C147 C149 1.382 . S
C147 C151 1.404 . S
H148 C146 0.951 . S
C149 C147 1.382 . S
C149 C150 1.390 . S
C149 H154 0.949 . S
C150 C149 1.390 . S
C150 C155 1.399 . S
C151 C147 1.404 . S
C151 H152 0.950 . S
C151 C153 1.375 . S
H152 C151 0.950 . S
C153 C151 1.375 . S
C153 C155 1.382 . S
C153 H157 0.950 . S
H154 C149 0.949 . S
C155 C150 1.399 . S
C155 C153 1.382 . S
C155 H156 0.952 . S
H156 C155 0.952 . S
H157 C153 0.950 . S
H158 C159 0.949 . S
C159 H158 0.949 . S
C159 C160 1.395 1_455 S
C159 C161 1.391 . S
C160 C159 1.395 1_655 S
C160 C163 1.390 . S
C161 C159 1.391 . S
C161 C165 1.387 1_455 S
C161 C166 1.491 . S
H162 C163 0.950 . S
C163 C160 1.390 . S
C163 H162 0.950 . S
C163 C164 1.378 . S
C164 C163 1.378 . S
C164 C165 1.409 . S
C165 C161 1.387 1_655 S
C165 C164 1.409 . S
C165 H167 0.951 . S
C166 C161 1.491 . S
C166 C168 1.382 . S
C166 C170 1.404 . S
H167 C165 0.951 . S
C168 C166 1.382 . S
C168 C169 1.390 . S
C168 H173 0.949 . S
C169 C168 1.390 . S
C169 C174 1.399 . S
C170 C166 1.404 . S
C170 H171 0.950 . S
C170 C172 1.375 . S
H171 C170 0.950 . S
C172 C170 1.375 . S
C172 C174 1.382 . S
C172 H176 0.950 . S
H173 C168 0.949 . S
C174 C169 1.399 . S
C174 C172 1.382 . S
C174 H175 0.952 . S
H175 C174 0.952 . S
H176 C172 0.950 . S
H177 C178 0.949 1_655 S
C178 H177 0.949 1_455 S
C178 C179 1.395 . S
C178 C180 1.391 . S
C179 C178 1.395 . S
C179 C182 1.390 . S
C180 C178 1.391 . S
C180 C184 1.387 . S
C180 C185 1.491 1_455 S
H181 C182 0.950 . S
C182 C179 1.390 . S
C182 H181 0.950 . S
C182 C183 1.378 . S
C183 C182 1.378 . S
C183 C184 1.409 . S
C184 C180 1.387 . S
C184 C183 1.409 . S
C184 H186 0.951 . S
C185 C180 1.491 1_655 S
C185 C187 1.382 . S
C185 C189 1.404 . S
H186 C184 0.951 . S
C187 C185 1.382 . S
C187 C188 1.390 . S
C187 H192 0.949 . S
C188 C187 1.390 . S
C188 C193 1.399 . S
C189 C185 1.404 . S
C189 H190 0.950 . S
C189 C191 1.375 . S
H190 C189 0.950 . S
C191 C189 1.375 . S
C191 C193 1.382 . S
C191 H195 0.950 . S
H192 C187 0.949 . S
C193 C188 1.399 . S
C193 C191 1.382 . S
C193 H194 0.952 . S
H194 C193 0.952 . S
H195 C191 0.950 . S
H196 C197 0.949 1_565 S
C197 H196 0.949 1_545 S
C197 C198 1.395 . S
C197 C199 1.391 . S
C198 C197 1.395 . S
C198 C201 1.390 . S
C199 C197 1.391 . S
C199 C203 1.387 . S
C199 C204 1.491 1_545 S
H200 C201 0.950 . S
C201 C198 1.390 . S
C201 H200 0.950 . S
C201 C202 1.378 . S
C202 C201 1.378 . S
C202 C203 1.409 . S
C203 C199 1.387 . S
C203 C202 1.409 . S
C203 H205 0.951 . S
C204 C199 1.491 1_565 S
C204 C206 1.382 . S
C204 C208 1.404 . S
H205 C203 0.951 . S
C206 C204 1.382 . S
C206 C207 1.390 . S
C206 H211 0.949 . S
C207 C206 1.390 . S
C207 C212 1.399 . S
C208 C204 1.404 . S
C208 H209 0.950 . S
C208 C210 1.375 . S
H209 C208 0.950 . S
C210 C208 1.375 . S
C210 C212 1.382 . S
C210 H214 0.950 . S
H211 C206 0.949 . S
C212 C207 1.399 . S
C212 C210 1.382 . S
C212 H213 0.952 . S
H213 C212 0.952 . S
H214 C210 0.950 . S
H215 C216 0.949 . S
C216 H215 0.949 . S
C216 C217 1.395 . S
C216 C218 1.391 . S
C217 C216 1.395 . S
C217 C220 1.390 . S
C218 C216 1.391 . S
C218 C222 1.387 . S
C218 C223 1.491 . S
H219 C220 0.950 . S
C220 C217 1.390 . S
C220 H219 0.950 . S
C220 C221 1.378 . S
C221 C220 1.378 . S
C221 C222 1.409 . S
C222 C218 1.387 . S
C222 C221 1.409 . S
C222 H224 0.951 . S
C223 C218 1.491 . S
C223 C225 1.382 . S
C223 C227 1.404 . S
H224 C222 0.951 . S
C225 C223 1.382 . S
C225 C226 1.390 . S
C225 H230 0.949 . S
C226 C225 1.390 . S
C226 C231 1.399 . S
C227 C223 1.404 . S
C227 H228 0.950 . S
C227 C229 1.375 . S
H228 C227 0.950 . S
C229 C227 1.375 . S
C229 C231 1.382 . S
C229 H233 0.950 . S
H230 C225 0.949 . S
C231 C226 1.399 . S
C231 C229 1.382 . S
C231 H232 0.952 . S
H232 C231 0.952 . S
H233 C229 0.950 . S
C234 C235 1.369 . S
C234 C236 1.419 . S
C234 H238 0.930 . S
C235 C234 1.369 . S
C235 C244 1.429 . S
C236 C234 1.419 . S
C236 C237 1.363 . S
C236 H239 0.929 . S
C237 C236 1.363 . S
C237 C243 1.428 . S
H238 C234 0.930 . S
H239 C236 0.929 . S
S240 N241 1.613 . S
S240 N242 1.610 . S
N241 S240 1.613 . S
N241 C244 1.350 . S
N242 S240 1.610 . S
N242 C243 1.351 . S
C243 C237 1.428 . S
C243 N242 1.351 . S
C243 C244 1.434 . S
C244 C235 1.429 . S
C244 N241 1.350 . S
C244 C243 1.434 . S
C245 C246 1.369 . S
C245 C247 1.419 . S
C245 H249 0.930 . S
C246 C245 1.369 . S
C246 C255 1.429 . S
C247 C245 1.419 . S
C247 C248 1.363 . S
C247 H250 0.929 . S
C248 C247 1.363 . S
C248 C254 1.428 . S
H249 C245 0.930 . S
H250 C247 0.929 . S
S251 N252 1.613 . S
S251 N253 1.610 . S
N252 S251 1.613 . S
N252 C255 1.350 . S
N253 S251 1.610 . S
N253 C254 1.351 . S
C254 C248 1.428 . S
C254 N253 1.351 . S
C254 C255 1.434 . S
C255 C246 1.429 . S
C255 N252 1.350 . S
C255 C254 1.434 . S
C256 C257 1.369 . S
C256 C258 1.419 . S
C256 H260 0.930 . S
C257 C256 1.369 . S
C257 C266 1.429 . S
C258 C256 1.419 . S
C258 C259 1.363 . S
C258 H261 0.929 . S
C259 C258 1.363 . S
C259 C265 1.428 . S
H260 C256 0.930 . S
H261 C258 0.929 . S
S262 N263 1.613 . S
S262 N264 1.610 . S
N263 S262 1.613 . S
N263 C266 1.350 . S
N264 S262 1.610 . S
N264 C265 1.351 . S
C265 C259 1.428 . S
C265 N264 1.351 . S
C265 C266 1.434 . S
C266 C257 1.429 . S
C266 N263 1.350 . S
C266 C265 1.434 . S
C267 C268 1.369 . S
C267 C269 1.419 . S
C267 H271 0.930 . S
C268 C267 1.369 . S
C268 C277 1.429 . S
C269 C267 1.419 . S
C269 C270 1.363 . S
C269 H272 0.929 . S
C270 C269 1.363 . S
C270 C276 1.428 . S
H271 C267 0.930 . S
H272 C269 0.929 . S
S273 N274 1.613 . S
S273 N275 1.610 . S
N274 S273 1.613 . S
N274 C277 1.350 . S
N275 S273 1.610 . S
N275 C276 1.351 . S
C276 C270 1.428 . S
C276 N275 1.351 . S
C276 C277 1.434 . S
C277 C268 1.429 . S
C277 N274 1.350 . S
C277 C276 1.434 . S
C278 C279 1.369 . S
C278 C280 1.419 . S
C278 H282 0.930 . S
C279 C278 1.369 . S
C279 C288 1.429 . S
C280 C278 1.419 . S
C280 C281 1.363 . S
C280 H283 0.929 . S
C281 C280 1.363 . S
C281 C287 1.428 . S
H282 C278 0.930 . S
H283 C280 0.929 . S
S284 N285 1.613 . S
S284 N286 1.610 . S
N285 S284 1.613 . S
N285 C288 1.350 . S
N286 S284 1.610 . S
N286 C287 1.351 . S
C287 C281 1.428 . S
C287 N286 1.351 . S
C287 C288 1.434 . S
C288 C279 1.429 . S
C288 N285 1.350 . S
C288 C287 1.434 . S
C289 C290 1.369 . S
C289 C291 1.419 . S
C289 H293 0.930 . S
C290 C289 1.369 . S
C290 C299 1.429 . S
C291 C289 1.419 . S
C291 C292 1.363 . S
C291 H294 0.929 . S
C292 C291 1.363 . S
C292 C298 1.428 . S
H293 C289 0.930 . S
H294 C291 0.929 . S
S295 N296 1.613 . S
S295 N297 1.610 . S
N296 S295 1.613 . S
N296 C299 1.350 . S
N297 S295 1.610 . S
N297 C298 1.351 . S
C298 C292 1.428 . S
C298 N297 1.351 . S
C298 C299 1.434 . S
C299 C290 1.429 . S
C299 N296 1.350 . S
C299 C298 1.434 . S
C300 C301 1.369 . S
C300 C302 1.419 . S
C300 H304 0.930 . S
C301 C300 1.369 . S
C301 C310 1.429 . S
C302 C300 1.419 . S
C302 C303 1.363 . S
C302 H305 0.929 . S
C303 C302 1.363 . S
C303 C309 1.428 . S
H304 C300 0.930 . S
H305 C302 0.929 . S
S306 N307 1.613 . S
S306 N308 1.610 . S
N307 S306 1.613 . S
N307 C310 1.350 . S
N308 S306 1.610 . S
N308 C309 1.351 . S
C309 C303 1.428 . S
C309 N308 1.351 . S
C309 C310 1.434 . S
C310 C301 1.429 . S
C310 N307 1.350 . S
C310 C309 1.434 . S
C311 C312 1.369 . S
C311 C313 1.419 . S
C311 H315 0.930 . S
C312 C311 1.369 . S
C312 C321 1.429 . S
C313 C311 1.419 . S
C313 C314 1.363 . S
C313 H316 0.929 . S
C314 C313 1.363 . S
C314 C320 1.428 . S
H315 C311 0.930 . S
H316 C313 0.929 . S
S317 N318 1.613 . S
S317 N319 1.610 . S
N318 S317 1.613 . S
N318 C321 1.350 . S
N319 S317 1.610 . S
N319 C320 1.351 . S
C320 C314 1.428 . S
C320 N319 1.351 . S
C320 C321 1.434 . S
C321 C312 1.429 . S
C321 N318 1.350 . S
C321 C320 1.434 . S
C322 C323 1.369 . S
C322 C324 1.419 . S
C322 H326 0.930 . S
C323 C322 1.369 . S
C323 C332 1.429 . S
C324 C322 1.419 . S
C324 C325 1.363 . S
C324 H327 0.929 . S
C325 C324 1.363 . S
C325 C331 1.428 . S
H326 C322 0.930 . S
H327 C324 0.929 . S
S328 N329 1.613 . S
S328 N330 1.610 1_565 S
N329 S328 1.613 . S
N329 C332 1.350 . S
N330 S328 1.610 1_545 S
N330 C331 1.351 1_545 S
C331 C325 1.428 . S
C331 N330 1.351 1_565 S
C331 C332 1.434 . S
C332 C323 1.429 . S
C332 N329 1.350 . S
C332 C331 1.434 . S
C333 C334 1.369 . S
C333 C335 1.419 . S
C333 H337 0.930 . S
C334 C333 1.369 . S
C334 C343 1.429 . S
C335 C333 1.419 . S
C335 C336 1.363 . S
C335 H338 0.929 . S
C336 C335 1.363 . S
C336 C342 1.428 . S
H337 C333 0.930 . S
H338 C335 0.929 . S
S339 N340 1.613 . S
S339 N341 1.610 . S
N340 S339 1.613 . S
N340 C343 1.350 . S
N341 S339 1.610 . S
N341 C342 1.351 . S
C342 C336 1.428 . S
C342 N341 1.351 . S
C342 C343 1.434 . S
C343 C334 1.429 . S
C343 N340 1.350 . S
C343 C342 1.434 . S
C344 C345 1.369 . S
C344 C346 1.419 . S
C344 H348 0.930 . S
C345 C344 1.369 . S
C345 C354 1.429 . S
C346 C344 1.419 . S
C346 C347 1.363 . S
C346 H349 0.929 . S
C347 C346 1.363 . S
C347 C353 1.428 . S
H348 C344 0.930 . S
H349 C346 0.929 . S
S350 N351 1.613 . S
S350 N352 1.610 . S
N351 S350 1.613 . S
N351 C354 1.350 . S
N352 S350 1.610 . S
N352 C353 1.351 . S
C353 C347 1.428 . S
C353 N352 1.351 . S
C353 C354 1.434 . S
C354 C345 1.429 . S
C354 N351 1.350 . S
C354 C353 1.434 . S
C355 C356 1.369 . S
C355 C357 1.419 . S
C355 H359 0.930 . S
C356 C355 1.369 . S
C356 C365 1.429 . S
C357 C355 1.419 . S
C357 C358 1.363 . S
C357 H360 0.929 . S
C358 C357 1.363 . S
C358 C364 1.428 . S
H359 C355 0.930 . S
H360 C357 0.929 . S
S361 N362 1.613 . S
S361 N363 1.610 . S
N362 S361 1.613 . S
N362 C365 1.350 . S
N363 S361 1.610 . S
N363 C364 1.351 . S
C364 C358 1.428 . S
C364 N363 1.351 . S
C364 C365 1.434 . S
C365 C356 1.429 . S
C365 N362 1.350 . S
C365 C364 1.434 . S
C366 C367 1.384 . S
C366 C368 1.419 . S
C366 H370 0.930 . S
C367 C366 1.384 . S
C367 C376 1.420 1_455 S
C368 C366 1.419 . S
C368 C369 1.363 1_454 S
C368 H371 0.929 1_554 S
C369 C368 1.363 1_656 S
C369 C375 1.428 . S
H370 C366 0.930 . S
H371 C368 0.929 1_556 S
S372 N373 1.613 1_556 S
S372 N374 1.610 . S
N373 S372 1.613 1_554 S
N373 C376 1.350 . S
N374 S372 1.610 . S
N374 C375 1.351 . S
C375 C369 1.428 . S
C375 N374 1.351 . S
C375 C376 1.434 1_556 S
C376 C367 1.420 1_655 S
C376 N373 1.350 . S
C376 C375 1.434 1_554 S
C377 C378 1.369 1_565 S
C377 C379 1.419 . S
C377 H381 0.930 . S
C378 C377 1.369 1_545 S
C378 C387 1.429 . S
C379 C377 1.419 . S
C379 C380 1.363 1_565 S
C379 H382 0.929 . S
C380 C379 1.363 1_545 S
C380 C386 1.428 . S
H381 C377 0.930 . S
H382 C379 0.929 . S
S383 N384 1.613 . S
S383 N385 1.610 . S
N384 S383 1.613 . S
N384 C387 1.350 . S
N385 S383 1.610 . S
N385 C386 1.351 . S
C386 C380 1.428 . S
C386 N385 1.351 . S
C386 C387 1.434 . S
C387 C378 1.429 . S
C387 N384 1.350 . S
C387 C386 1.434 . S
C388 C389 1.369 . S
C388 C390 1.419 . S
C388 H392 0.930 . S
C389 C388 1.369 . S
C389 C398 1.429 . S
C390 C388 1.419 . S
C390 C391 1.363 . S
C390 H393 0.929 . S
C391 C390 1.363 . S
C391 C397 1.428 . S
H392 C388 0.930 . S
H393 C390 0.929 . S
S394 N395 1.613 . S
S394 N396 1.610 . S
N395 S394 1.613 . S
N395 C398 1.350 . S
N396 S394 1.610 . S
N396 C397 1.351 . S
C397 C391 1.428 . S
C397 N396 1.351 . S
C397 C398 1.434 . S
C398 C389 1.429 . S
C398 N395 1.350 . S
C398 C397 1.434 . S
C399 C400 1.369 . S
C399 C401 1.419 . S
C399 H403 0.930 1_545 S
C400 C399 1.369 . S
C400 C409 1.429 . S
C401 C399 1.419 . S
C401 C402 1.363 . S
C401 H404 0.929 1_545 S
C402 C401 1.363 . S
C402 C408 1.428 . S
H403 C399 0.930 1_565 S
H404 C401 0.929 1_565 S
S405 N406 1.613 . S
S405 N407 1.610 . S
N406 S405 1.613 . S
N406 C409 1.350 . S
N407 S405 1.610 . S
N407 C408 1.351 . S
C408 C402 1.428 . S
C408 N407 1.351 . S
C408 C409 1.434 . S
C409 C400 1.429 . S
C409 N406 1.350 . S
C409 C408 1.434 . S
C410 C411 1.369 . S
C410 C412 1.419 . S
C410 H414 0.930 . S
C411 C410 1.369 . S
C411 C420 1.429 . S
C412 C410 1.419 . S
C412 C413 1.363 1_556 S
C412 H415 0.929 1_556 S
C413 C412 1.363 1_554 S
C413 C419 1.428 . S
H414 C410 0.930 . S
H415 C412 0.929 1_554 S
S416 N417 1.613 . S
S416 N418 1.610 1_556 S
N417 S416 1.613 . S
N417 C420 1.350 . S
N418 S416 1.610 1_554 S
N418 C419 1.351 . S
C419 C413 1.428 . S
C419 N418 1.351 . S
C419 C420 1.434 1_554 S
C420 C411 1.429 . S
C420 N417 1.350 . S
C420 C419 1.434 1_556 S
C421 C422 1.369 . S
C421 C423 1.419 . S
C421 H425 0.930 1_455 S
C422 C421 1.369 . S
C422 C431 1.429 . S
C423 C421 1.419 . S
C423 C424 1.363 . S
C423 H426 0.929 1_455 S
C424 C423 1.363 . S
C424 C430 1.428 . S
H425 C421 0.930 1_655 S
H426 C423 0.929 1_655 S
S427 N428 1.613 . S
S427 N429 1.610 . S
N428 S427 1.613 . S
N428 C431 1.350 . S
N429 S427 1.610 . S
N429 C430 1.351 . S
C430 C424 1.428 . S
C430 N429 1.351 . S
C430 C431 1.434 . S
C431 C422 1.429 . S
C431 N428 1.350 . S
C431 C430 1.434 . S
C235 C10 3.150 . S
C237 C226 3.080 . S
C246 C59 3.207 . S
C248 C188 3.137 . S
C257 C90 3.141 . S
C259 C207 3.074 . S
C268 C19 3.064 . S
C270 C221 3.032 . S
C281 C183 2.996 . S
C279 C50 3.032 . S
C292 C202 3.041 . S
C290 C99 3.075 . S
C301 C46 0.834 . S
C303 C150 0.782 . S
C312 C95 0.549 . S
C314 C164 0.414 . S
C323 C6 0.302 . S
C325 C126 0.222 . S
C336 C145 0.479 . S
C334 C55 0.575 . S
C347 C169 0.750 . S
C345 C86 0.720 . S
C356 C15 0.678 . S
C358 C131 0.701 . S
C369 C160 1.327 . S
C367 C9 1.347 . S
C378 C49 1.190 . S
C380 C122 1.245 . S
C389 C89 1.276 . S
C391 C141 1.275 . S
C402 C198 1.753 . S
C400 C58 1.728 . S
C413 C217 1.777 . S
C411 C98 1.715 . S
C422 C18 1.696 . S
C424 C179 1.835 . S
