# Generated by pormake.
# Topology zzz, (3,6)-cn, num edge types: 1
# Building blocks:
#     Node 0, Type 0, BuildingBlock: BELTOD_clean_linker_0, # of connection points: 3
#     Node 1, Type 0, BuildingBlock: BELTOD_clean_linker_0, # of connection points: 3
#     Node 2, Type 0, BuildingBlock: BELTOD_clean_linker_0, # of connection points: 3
#     Node 3, Type 0, BuildingBlock: BELTOD_clean_linker_0, # of connection points: 3
#     Node 4, Type 0, BuildingBlock: BELTOD_clean_linker_0, # of connection points: 3
#     Node 5, Type 0, BuildingBlock: BELTOD_clean_linker_0, # of connection points: 3
#     Node 6, Type 0, BuildingBlock: BELTOD_clean_linker_0, # of connection points: 3
#     Node 7, Type 0, BuildingBlock: BELTOD_clean_linker_0, # of connection points: 3
#     Node 8, Type 1, BuildingBlock: BETFAJ_clean_sbu_0, # of connection points: 6
#     Node 9, Type 1, BuildingBlock: BETFAJ_clean_sbu_0, # of connection points: 6
#     Node 10, Type 1, BuildingBlock: BETFAJ_clean_sbu_0, # of connection points: 6
#     Node 11, Type 1, BuildingBlock: BETFAJ_clean_sbu_0, # of connection points: 6
#     Edge 12, Type (0, 1), BuildingBlock: XUDNAN_clean_linker_2, # of connection points: 2
#     Edge 13, Type (0, 1), BuildingBlock: XUDNAN_clean_linker_2, # of connection points: 2
#     Edge 14, Type (0, 1), BuildingBlock: XUDNAN_clean_linker_2, # of connection points: 2
#     Edge 15, Type (0, 1), BuildingBlock: XUDNAN_clean_linker_2, # of connection points: 2
#     Edge 16, Type (0, 1), BuildingBlock: XUDNAN_clean_linker_2, # of connection points: 2
#     Edge 17, Type (0, 1), BuildingBlock: XUDNAN_clean_linker_2, # of connection points: 2
#     Edge 18, Type (0, 1), BuildingBlock: XUDNAN_clean_linker_2, # of connection points: 2
#     Edge 19, Type (0, 1), BuildingBlock: XUDNAN_clean_linker_2, # of connection points: 2
#     Edge 20, Type (0, 1), BuildingBlock: XUDNAN_clean_linker_2, # of connection points: 2
#     Edge 21, Type (0, 1), BuildingBlock: XUDNAN_clean_linker_2, # of connection points: 2
#     Edge 22, Type (0, 1), BuildingBlock: XUDNAN_clean_linker_2, # of connection points: 2
#     Edge 23, Type (0, 1), BuildingBlock: XUDNAN_clean_linker_2, # of connection points: 2
#     Edge 24, Type (0, 1), BuildingBlock: XUDNAN_clean_linker_2, # of connection points: 2
#     Edge 25, Type (0, 1), BuildingBlock: XUDNAN_clean_linker_2, # of connection points: 2
#     Edge 26, Type (0, 1), BuildingBlock: XUDNAN_clean_linker_2, # of connection points: 2
#     Edge 27, Type (0, 1), BuildingBlock: XUDNAN_clean_linker_2, # of connection points: 2
#     Edge 28, Type (0, 1), BuildingBlock: XUDNAN_clean_linker_2, # of connection points: 2
#     Edge 29, Type (0, 1), BuildingBlock: XUDNAN_clean_linker_2, # of connection points: 2
#     Edge 30, Type (0, 1), BuildingBlock: XUDNAN_clean_linker_2, # of connection points: 2
#     Edge 31, Type (0, 1), BuildingBlock: XUDNAN_clean_linker_2, # of connection points: 2
#     Edge 32, Type (0, 1), BuildingBlock: XUDNAN_clean_linker_2, # of connection points: 2
#     Edge 33, Type (0, 1), BuildingBlock: XUDNAN_clean_linker_2, # of connection points: 2
#     Edge 34, Type (0, 1), BuildingBlock: XUDNAN_clean_linker_2, # of connection points: 2
#     Edge 35, Type (0, 1), BuildingBlock: XUDNAN_clean_linker_2, # of connection points: 2
# Relax obj value: 0.437
# Max RMSD: 0.258
# Mean RMSD: 0.245
data_MOF--net-zzz--node1-BETFAJ_clean_sbu_0--node2-BELTOD_clean_linker_0--edge1-XUDNAN_clean_linker_2
_symmetry_space_group_name_H-M    P1
_symmetry_Int_Tables_number       1
_symmetry_cell_setting            triclinic
loop_
_symmetry_equiv_pos_as_xyz
'x, y, z'
_cell_length_a     55.849278
_cell_length_b     55.773656
_cell_length_c     17.004653
_cell_angle_alpha  89.719088
_cell_angle_beta   90.083311
_cell_angle_gamma 90.05935
loop_
_atom_site_label
_atom_site_type_symbol
_atom_site_fract_x
_atom_site_fract_y
_atom_site_fract_z
_atom_type_partial_charge
P0 P 0.72762 0.47242 0.41396 0.0
H1 H 0.75447 0.4758 0.56058 0.0
H2 H 0.7954 0.48739 0.58721 0.0
H3 H 0.80018 0.51916 0.35519 0.0
H4 H 0.75945 0.50586 0.32742 0.0
H5 H 0.67742 0.4835 0.44731 0.0
H6 H 0.64405 0.49546 0.36545 0.0
H7 H 0.6922 0.50328 0.16753 0.0
H8 H 0.72576 0.49413 0.25309 0.0
H9 H 0.75941 0.43539 0.47226 0.0
H10 H 0.72624 0.45262 0.24986 0.0
O11 O 0.71494 0.46196 0.49612 0.0
H12 H 0.78901 0.41104 0.40449 0.0
H13 H 0.75655 0.42992 0.18182 0.0
C14 C 0.75347 0.4902 0.44217 0.0
C15 C 0.76395 0.48598 0.51611 0.0
C16 C 0.78768 0.49265 0.53137 0.0
C17 C 0.80166 0.504 0.47321 0.0
C18 C 0.79043 0.50987 0.4011 0.0
C19 C 0.76677 0.50275 0.38546 0.0
C20 C 0.70421 0.4869 0.35606 0.0
C21 C 0.68094 0.48827 0.38666 0.0
C22 C 0.66158 0.49476 0.3387 0.0
C23 C 0.66474 0.49932 0.25766 0.0
C24 C 0.68848 0.49982 0.22889 0.0
C25 C 0.70797 0.49428 0.27805 0.0
C26 C 0.74132 0.44706 0.36616 0.0
C27 C 0.7581 0.43359 0.40902 0.0
C28 C 0.77515 0.41977 0.37013 0.0
C29 C 0.77578 0.41932 0.28751 0.0
C30 C 0.7569 0.4301 0.24548 0.0
C31 C 0.7397 0.44371 0.28464 0.0
P32 P 0.04713 0.72933 0.38976 0.0
H33 H 0.05015 0.75476 0.53841 0.0
H34 H 0.03742 0.79459 0.57633 0.0
H35 H 0.99372 0.799 0.36651 0.0
H36 H 0.00838 0.75987 0.32597 0.0
H37 H 0.06802 0.68928 0.30928 0.0
H38 H 0.05318 0.66042 0.21429 0.0
H39 H 0.9818 0.68917 0.24042 0.0
H40 H 0.99711 0.7185 0.33526 0.0
H41 H 0.09067 0.75583 0.42816 0.0
H42 H 0.04924 0.73935 0.22101 0.0
O43 O 0.06163 0.71547 0.46278 0.0
H44 H 0.11425 0.78483 0.35192 0.0
H45 H 0.07271 0.76784 0.14505 0.0
C46 C 0.02971 0.75376 0.43024 0.0
C47 C 0.03716 0.7639 0.50171 0.0
C48 C 0.02984 0.78697 0.52346 0.0
C49 C 0.01469 0.80059 0.47437 0.0
C50 C 1.00589 0.78958 0.40534 0.0
C51 C 0.01372 0.76671 0.3828 0.0
C52 C 0.03379 0.70628 0.32886 0.0
C53 C 0.04907 0.6892 0.29544 0.0
C54 C 0.04049 0.67253 0.24117 0.0
C55 C 0.01623 0.67234 0.21897 0.0
C56 C 1.00067 0.68898 0.25494 0.0
C57 C 0.00938 0.70579 0.30948 0.0
C58 C 0.06855 0.74506 0.32996 0.0
C59 C 0.08727 0.75774 0.36572 0.0
C60 C 0.10065 0.77435 0.32228 0.0
C61 C 0.09543 0.77847 0.24244 0.0
C62 C 0.07755 0.76469 0.20595 0.0
C63 C 0.06405 0.74835 0.24954 0.0
P64 P 0.77662 0.04533 0.36902 0.0
H65 H 0.75883 0.03142 0.52543 0.0
H66 H 0.72087 0.01378 0.56734 0.0
H67 H 0.70324 0.99913 0.32479 0.0
H68 H 0.74131 0.01647 0.28367 0.0
H69 H 0.82635 0.06 0.36533 0.0
H70 H 0.86047 0.04849 0.2859 0.0
H71 H 0.81795 0.99327 0.17572 0.0
H72 H 0.78341 1.00519 0.25614 0.0
H73 H 0.73876 0.07918 0.40095 0.0
H74 H 0.77937 0.05664 0.19883 0.0
O75 O 0.78651 0.06042 0.44716 0.0
H76 H 0.70992 0.09879 0.315 0.0
H77 H 0.75111 0.07704 0.11242 0.0
C78 C 0.75324 0.02499 0.40127 0.0
C79 C 0.74719 0.02369 0.48135 0.0
C80 C 0.72521 0.01392 0.50529 0.0
C81 C 0.70873 1.00523 0.4496 0.0
C82 C 0.71549 1.00534 0.36971 0.0
C83 C 0.73747 0.0151 0.34592 0.0
C84 C 0.80239 0.0331 0.31847 0.0
C85 C 0.8244 0.045 0.32566 0.0
C86 C 0.84401 0.03837 0.27984 0.0
C87 C 0.84215 0.01976 0.22465 0.0
C88 C 0.82005 1.0077 0.21753 0.0
C89 C 0.80033 0.01432 0.26413 0.0
C90 C 0.76109 0.06628 0.30651 0.0
C91 C 0.74201 0.07932 0.33815 0.0
C92 C 0.72555 0.09065 0.2887 0.0
C93 C 0.72799 0.08923 0.20652 0.0
C94 C 0.74846 0.07807 0.17539 0.0
C95 C 0.76476 0.06648 0.22497 0.0
P96 P 0.45492 0.78105 0.36394 0.0
H97 H 0.45824 0.77246 0.53253 0.0
H98 H 0.47286 0.73839 0.60674 0.0
H99 H 0.50778 0.71148 0.39833 0.0
H100 H 0.49207 0.74566 0.32324 0.0
H101 H 0.43193 0.80891 0.24216 0.0
H102 H 0.44631 0.83663 0.14148 0.0
H103 H 0.51909 0.82394 0.21745 0.0
H104 H 0.50435 0.79582 0.31842 0.0
H105 H 0.41232 0.7574 0.4254 0.0
H106 H 0.45503 0.7555 0.2146 0.0
O107 O 0.4394 0.79886 0.42371 0.0
H108 H 0.39207 0.72048 0.38566 0.0
H109 H 0.43525 0.71858 0.17506 0.0
C110 C 0.47439 0.76205 0.42232 0.0
C111 C 0.46983 0.75982 0.5031 0.0
C112 C 0.47822 0.74004 0.54581 0.0
C113 C 0.49147 0.7218 0.50896 0.0
C114 C 0.49732 0.72485 0.4288 0.0
C115 C 0.48877 0.74471 0.38592 0.0
C116 C 0.46707 0.80003 0.28707 0.0
C117 C 0.45103 0.81195 0.23688 0.0
C118 C 0.45927 0.82805 0.17977 0.0
C119 C 0.48388 0.83275 0.1714 0.0
C120 C 0.50002 0.82065 0.22177 0.0
C121 C 0.49166 0.80453 0.27952 0.0
C122 C 0.43481 0.75945 0.32212 0.0
C123 C 0.41665 0.74957 0.36903 0.0
C124 C 0.40529 0.72832 0.34671 0.0
C125 C 0.41209 0.71653 0.27738 0.0
C126 C 0.42924 0.72738 0.22811 0.0
C127 C 0.44059 0.74857 0.25059 0.0
P128 P 0.30502 0.47138 0.03463 0.0
H129 H 0.28016 0.47037 0.88267 0.0
H130 H 0.2397 0.48268 0.84803 0.0
H131 H 0.23627 0.52495 0.05987 0.0
H132 H 0.27627 0.51151 0.09599 0.0
H133 H 0.35658 0.47286 1.00285 0.0
H134 H 0.39078 0.48313 0.08398 0.0
H135 H 0.34299 0.51074 0.26173 0.0
H136 H 0.30901 0.50223 0.17672 0.0
H137 H 0.26423 0.44016 0.00832 0.0
H138 H 0.30893 0.45848 0.20634 0.0
O139 O 0.31618 0.45412 0.96364 0.0
H140 H 0.23239 0.42819 0.09794 0.0
H141 H 0.27674 0.44753 0.29576 0.0
C142 C 0.2816 0.49003 0.99211 0.0
C143 C 0.27117 0.4831 0.92028 0.0
C144 C 0.24778 0.49011 0.90046 0.0
C145 C 0.23424 0.50434 0.95195 0.0
C146 C 0.24577 0.51338 0.01962 0.0
C147 C 0.26903 0.5061 0.03983 0.0
C148 C 0.32997 0.48607 0.08421 0.0
C149 C 0.35339 0.48175 0.05828 0.0
C150 C 0.3731 0.48733 0.10583 0.0
C151 C 0.36993 0.4968 0.18185 0.0
C152 C 0.34649 0.50333 0.20423 0.0
C153 C 0.32681 0.49842 0.15525 0.0
C154 C 0.28831 0.45201 0.10016 0.0
C155 C 0.26753 0.44107 0.07098 0.0
C156 C 0.24931 0.43415 0.12226 0.0
C157 C 0.2518 0.43787 0.20347 0.0
C158 C 0.27417 0.44493 0.23322 0.0
C159 C 0.29245 0.45179 0.18166 0.0
P160 P 0.07435 0.29246 0.1011 0.0
H161 H 0.06238 0.28242 0.93674 0.0
H162 H 0.04657 0.2468 0.87345 0.0
H163 H 0.02815 0.21707 0.10061 0.0
H164 H 0.04453 0.25294 0.16394 0.0
H165 H 0.0894 0.34205 0.11306 0.0
H166 H 0.07713 0.37515 0.19536 0.0
H167 H 0.01891 0.33238 0.28724 0.0
H168 H 0.03179 0.29869 0.20418 0.0
H169 H 0.10468 0.25096 0.08038 0.0
H170 H 0.08214 0.29544 0.27349 0.0
O171 O 0.09311 0.30274 0.03241 0.0
H172 H 0.11321 0.21846 0.17167 0.0
H173 H 0.09144 0.26326 0.36537 0.0
C174 C 0.05465 0.27058 0.05527 0.0
C175 C 0.05429 0.26865 0.97312 0.0
C176 C 0.04525 0.24804 0.9368 0.0
C177 C 0.03622 0.22871 0.98165 0.0
C178 C 0.03529 0.23131 0.06401 0.0
C179 C 0.04427 0.25208 0.10033 0.0
C180 C 0.06115 0.31801 0.15044 0.0
C181 C 0.07357 0.33986 0.14908 0.0
C182 C 0.06651 0.35891 0.1967 0.0
C183 C 0.04683 0.35669 0.24786 0.0
C184 C 0.03417 0.33477 0.24879 0.0
C185 C 0.04128 0.3156 0.20046 0.0
C186 C 0.0918 0.27518 0.1697 0.0
C187 C 0.10278 0.25419 0.14284 0.0
C188 C 0.10783 0.23561 0.19541 0.0
C189 C 0.10215 0.23804 0.27546 0.0
C190 C 0.09532 0.2607 0.30356 0.0
C191 C 0.08987 0.27913 0.25078 0.0
P192 P 0.2157 0.06048 0.0499 0.0
H193 H 0.22433 0.04403 0.88878 0.0
H194 H 0.25987 0.02753 0.82663 0.0
H195 H 0.29228 0.01701 0.05499 0.0
H196 H 0.25652 0.03388 0.11701 0.0
H197 H 0.164 0.05675 0.02491 0.0
H198 H 0.13105 0.0458 0.10981 0.0
H199 H 0.18153 0.02509 0.29135 0.0
H200 H 0.21437 0.03326 0.20091 0.0
H201 H 0.25375 0.0923 1.00069 0.0
H202 H 0.21826 0.0755 0.21916 0.0
O203 O 0.20319 0.07607 0.97658 0.0
H204 H 0.28897 0.10546 0.07326 0.0
H205 H 0.25387 0.08679 0.2914 0.0
C206 C 0.23757 0.04018 0.00776 0.0
C207 C 0.23869 0.03749 0.9259 0.0
C208 C 0.25923 0.02809 0.89023 0.0
C209 C 0.27924 0.02119 0.93554 0.0
C210 C 0.27746 0.02253 0.01804 0.0
C211 C 0.25678 0.03178 0.05374 0.0
C212 C 0.19181 0.0469 0.10759 0.0
C213 C 0.16804 0.0494 0.08243 0.0
C214 C 0.14901 0.0435 0.13236 0.0
C215 C 0.15314 0.03572 0.21036 0.0
C216 C 0.17713 0.03127 0.23275 0.0
C217 C 0.19617 0.0362 0.18107 0.0
C218 C 0.23396 0.08138 0.10412 0.0
C219 C 0.25314 0.0922 0.06437 0.0
C220 C 0.27338 0.09958 0.10593 0.0
C221 C 0.27465 0.09602 0.18772 0.0
C222 C 0.25375 0.08926 0.2282 0.0
C223 C 0.2334 0.08218 0.18648 0.0
P224 P 0.45693 0.23295 0.08709 0.0
H225 H 0.44756 0.2448 0.9218 0.0
H226 H 0.4633 0.2778 0.84292 0.0
H227 H 0.52102 0.28699 0.00885 0.0
H228 H 0.50582 0.25302 0.08599 0.0
H229 H 0.44532 0.21597 0.24357 0.0
H230 H 0.45408 0.17943 0.31656 0.0
H231 H 0.49701 0.15407 0.1231 0.0
H232 H 0.48818 0.19132 0.04977 0.0
H233 H 0.42801 0.27621 0.07881 0.0
H234 H 0.48325 0.24685 0.22836 0.0
O235 O 0.42983 0.22675 0.05106 0.0
H236 H 0.43981 0.31669 0.11744 0.0
H237 H 0.49482 0.28709 0.26718 0.0
C238 C 0.47538 0.24621 0.01039 0.0
C239 C 0.46433 0.25292 0.93934 0.0
C240 C 0.4732 0.27214 0.89458 0.0
C241 C 0.49311 0.28541 0.92054 0.0
C242 C 0.50543 0.27737 0.98787 0.0
C243 C 0.49693 0.25764 0.03138 0.0
C244 C 0.46679 0.20685 0.14223 0.0
C245 C 0.45716 0.2029 0.21737 0.0
C246 C 0.46216 0.18188 0.25921 0.0
C247 C 0.4765 0.16384 0.22634 0.0
C248 C 0.48595 0.16762 0.15031 0.0
C249 C 0.48111 0.18897 0.10857 0.0
C250 C 0.45467 0.25845 0.15076 0.0
C251 C 0.44154 0.27833 0.12396 0.0
C252 C 0.44843 0.30148 0.14543 0.0
C253 C 0.46848 0.3048 0.19385 0.0
C254 C 0.4794 0.28484 0.22918 0.0
C255 C 0.47249 0.26176 0.20788 0.0
Sm256 Sm 0.01779 1.00688 0.7995 0.0
Sm257 Sm 0.98223 0.02419 0.6621 0.0
C258 C 0.0339 0.98966 0.93405 0.0
C259 C 0.04995 0.97053 0.96142 0.0
C260 C 0.04391 0.95768 0.02941 0.0
C261 C 0.05788 0.93832 0.0539 0.0
C262 C 0.07831 0.93151 0.01107 0.0
C263 C 0.08462 0.94484 0.94372 0.0
C264 C 0.07049 0.96414 0.91887 0.0
C265 C 0.04285 0.01471 0.66071 0.0
C266 C 0.99874 0.96793 0.66552 0.0
C267 C 0.96434 0.04648 0.5389 0.0
C268 C 0.97476 0.06711 0.49614 0.0
C269 C 0.98808 0.06327 0.42725 0.0
C270 C 1.00375 0.08088 0.39936 0.0
C271 C 1.00635 0.10263 0.43986 0.0
C272 C 0.99132 0.10729 0.50421 0.0
C273 C 0.97554 0.0898 0.53159 0.0
C274 C 0.96055 0.00895 0.79937 0.0
C275 C 0.00932 0.06454 0.77416 0.0
O276 O 0.01374 0.98252 0.90194 0.0
O277 O 0.04386 1.0079 0.89752 0.0
O278 O 0.02095 0.01727 0.67434 0.0
O279 O 0.05317 1.00715 0.7248 0.0
O280 O 1.00712 0.97089 0.73814 0.0
O281 O 0.99023 0.98595 0.62314 0.0
O282 O 0.97645 0.02645 0.53329 0.0
O283 O 0.95687 0.05058 0.61073 0.0
O284 O 0.97975 0.0208 0.79392 0.0
O285 O 0.95114 1.00605 0.72998 0.0
O286 O 0.99994 0.05924 0.70472 0.0
O287 O 0.01529 0.04762 0.82565 0.0
H288 H 0.02801 0.96226 0.06254 0.0
H289 H 0.05208 0.92818 0.10489 0.0
H290 H 0.10031 0.9402 0.9097 0.0
H291 H 0.07538 0.97378 0.86581 0.0
H292 H 0.98763 0.04605 0.39805 0.0
H293 H 0.01454 0.07707 0.34806 0.0
H294 H 0.99278 0.12386 0.53681 0.0
H295 H 0.96526 0.09354 0.58409 0.0
Sm296 Sm 0.49994 1.00555 0.75399 0.0
Sm297 Sm 0.48461 0.9745 0.60707 0.0
C298 C 0.51732 0.01952 0.89031 0.0
C299 C 0.53734 0.03521 0.91181 0.0
C300 C 0.5557 0.03984 0.85753 0.0
C301 C 0.5753 0.05391 0.87889 0.0
C302 C 0.57672 0.06379 0.9546 0.0
C303 C 0.55784 0.05985 0.00783 0.0
C304 C 0.53829 0.04558 0.98656 0.0
C305 C 0.49391 0.03518 0.62298 0.0
C306 C 0.54101 0.98765 0.62495 0.0
C307 C 0.46324 0.96078 0.47724 0.0
C308 C 0.44286 0.97286 0.43809 0.0
C309 C 0.44709 0.98827 0.37387 0.0
C310 C 0.42976 1.0049 0.35059 0.0
C311 C 0.40799 1.00642 0.39135 0.0
C312 C 0.40299 0.98978 0.45125 0.0
C313 C 0.42016 0.97295 0.47374 0.0
C314 C 0.49962 0.94863 0.73638 0.0
C315 C 0.44297 0.99668 0.72582 0.0
O316 O 0.52332 0.9992 0.85704 0.0
O317 O 0.49913 0.03015 0.8561 0.0
O318 O 0.49133 0.01289 0.62807 0.0
O319 O 0.50003 0.04314 0.6917 0.0
O320 O 0.53654 0.99544 0.69709 0.0
O321 O 0.52383 0.98099 0.57628 0.0
O322 O 0.48326 0.97303 0.47696 0.0
O323 O 0.45888 0.95063 0.54555 0.0
O324 O 0.48671 0.96725 0.73827 0.0
O325 O 0.50382 0.94235 0.66413 0.0
O326 O 0.44872 0.98918 0.65451 0.0
O327 O 0.45949 1.00189 0.77894 0.0
H328 H 0.55507 0.03223 0.79905 0.0
H329 H 0.58952 0.0568 0.83659 0.0
H330 H 0.55862 0.06703 0.06685 0.0
H331 H 0.52416 0.0423 0.02887 0.0
H332 H 0.46438 0.98856 0.34503 0.0
H333 H 0.4339 0.01745 0.30368 0.0
H334 H 0.38604 0.99024 0.48214 0.0
H335 H 0.41611 0.96095 0.52213 0.0
Sm336 Sm 0.49152 0.50772 0.80094 0.0
Sm337 Sm 0.53081 0.50351 0.6657 0.0
C338 C 0.46541 0.50807 0.93071 0.0
C339 C 0.45065 0.526 0.97067 0.0
C340 C 0.45262 0.55021 0.94947 0.0
C341 C 0.4401 0.56762 0.99103 0.0
C342 C 0.42508 0.56116 0.05417 0.0
C343 C 0.42258 0.5367 0.07356 0.0
C344 C 0.43535 0.51925 0.03218 0.0
C345 C 0.4746 0.50719 0.64823 0.0
C346 C 0.50894 0.55655 0.71453 0.0
C347 C 0.55127 0.50108 0.52612 0.0
C348 C 0.54711 0.48818 0.45187 0.0
C349 C 0.52651 0.49229 0.40611 0.0
C350 C 0.52115 0.47733 0.34286 0.0
C351 C 0.53621 0.45797 0.32452 0.0
C352 C 0.55779 0.45521 0.36647 0.0
C353 C 0.56321 0.47025 0.42921 0.0
C354 C 0.55292 0.51134 0.81036 0.0
C355 C 0.51227 0.45416 0.75238 0.0
O356 O 0.48841 0.51269 0.92951 0.0
O357 O 0.45727 0.50034 0.86318 0.0
O358 O 0.4915 0.4945 0.67505 0.0
O359 O 0.4652 0.52011 0.70366 0.0
O360 O 0.50099 0.54756 0.78187 0.0
O361 O 0.51785 0.54284 0.65843 0.0
O362 O 0.53573 0.51771 0.54498 0.0
O363 O 0.55798 0.48786 0.58628 0.0
O364 O 0.53102 0.50989 0.79485 0.0
O365 O 0.56469 0.50938 0.74508 0.0
O366 O 0.52172 0.46355 0.6876 0.0
O367 O 0.50225 0.46761 0.80726 0.0
H368 H 0.4644 0.55572 0.90211 0.0
H369 H 0.443 0.58623 0.97536 0.0
H370 H 0.41104 0.5311 0.1213 0.0
H371 H 0.43362 0.50058 0.04912 0.0
H372 H 0.51399 0.50635 0.42105 0.0
H373 H 0.50465 0.48024 0.31064 0.0
H374 H 0.56977 0.44042 0.35469 0.0
H375 H 0.57941 0.467 0.46279 0.0
Sm376 Sm 1.00483 0.50089 0.80523 0.0
Sm377 Sm 0.0263 0.53166 0.66312 0.0
C378 C 0.9841 0.48891 0.93897 0.0
C379 C 0.96423 0.47427 0.96925 0.0
C380 C 0.94983 0.48371 0.02876 0.0
C381 C 0.93054 0.47058 0.05814 0.0
C382 C 0.92536 0.44757 0.029 0.0
C383 C 0.9399 0.4381 0.96919 0.0
C384 C 0.95917 0.45138 0.93938 0.0
C385 C 0.01631 0.4715 0.67814 0.0
C386 C 0.96988 0.51655 0.65612 0.0
C387 C 0.0529 0.54628 0.5452 0.0
C388 C 0.07449 0.53459 0.51335 0.0
C389 C 0.07333 0.52302 0.44032 0.0
C390 C 0.09202 0.50826 0.41578 0.0
C391 C 0.11226 0.50481 0.46378 0.0
C392 C 0.1138 0.51701 0.53557 0.0
C393 C 0.09514 0.53181 0.56007 0.0
C394 C 1.00623 0.55769 0.78373 0.0
C395 C 0.06261 0.51009 0.79958 0.0
O396 O 0.97808 0.50803 0.89826 0.0
O397 O 1.00277 0.47756 0.9107 0.0
O398 O 0.01877 0.49365 0.68623 0.0
O399 O 1.0071 0.4631 0.74287 0.0
O400 O 0.97108 0.51122 0.73224 0.0
O401 O 0.98912 0.52219 0.61443 0.0
O402 O 0.0329 0.53442 0.5348 0.0
O403 O 0.05473 0.55549 0.61578 0.0
O404 O 0.01883 0.53901 0.79159 0.0
O405 O 1.00486 0.56383 0.70995 0.0
O406 O 0.06015 0.51627 0.72472 0.0
O407 O 0.04384 0.50611 0.84526 0.0
H408 H 0.95336 0.50142 0.05208 0.0
H409 H 0.91941 0.47873 0.10271 0.0
H410 H 0.93646 0.42041 0.94571 0.0
H411 H 0.97002 0.4438 0.89299 0.0
H412 H 0.05755 0.52467 0.40355 0.0
H413 H 0.09035 0.49903 0.36013 0.0
H414 H 0.12943 0.5151 0.5728 0.0
H415 H 0.09666 0.54046 0.61672 0.0
H416 H 0.1497 1.00803 0.34825 0.0
H417 H 0.10989 0.06012 0.20846 0.0
H418 H 0.07679 0.05774 0.30195 0.0
H419 H 0.0996 0.97287 0.41887 0.0
H420 H 0.11169 0.96949 0.51663 0.0
H421 H 0.13156 0.97293 0.43393 0.0
H422 H 0.15164 0.00939 0.50108 0.0
H423 H 0.13189 1.00603 0.58401 0.0
H424 H 0.1334 0.03425 0.53208 0.0
H425 H 0.04721 0.04964 0.4108 0.0
H426 H 0.02628 0.04095 0.53607 0.0
H427 H 0.08679 0.99825 0.61351 0.0
C428 C 0.13419 0.01906 0.33658 0.0
C429 C 0.13269 0.03377 0.2682 0.0
C430 C 0.11161 0.04776 0.2573 0.0
C431 C 0.09257 0.0468 0.31098 0.0
C432 C 0.09475 0.03216 0.37701 0.0
C433 C 0.11517 0.01884 0.39079 0.0
C434 C 0.1137 1.00607 0.46977 0.0
C435 C 0.11416 0.97872 0.45913 0.0
C436 C 0.13385 0.01444 0.52499 0.0
C437 C 0.08937 0.01448 0.49829 0.0
C438 C 0.07852 0.02912 0.44307 0.0
C439 C 0.05569 0.03858 0.45508 0.0
C440 C 0.04387 0.03341 0.52608 0.0
C441 C 0.05498 0.0191 0.58453 0.0
C442 C 0.07797 0.00944 0.57007 0.0
H443 H 0.48695 0.15849 0.3835 0.0
H444 H 0.47489 0.11748 0.17106 0.0
H445 H 0.47821 0.0798 0.24815 0.0
H446 H 0.53006 0.11801 0.47239 0.0
H447 H 0.51899 0.12285 0.57056 0.0
H448 H 0.51643 0.14623 0.49762 0.0
H449 H 0.47065 0.14813 0.52163 0.0
H450 H 0.47306 0.12465 0.59427 0.0
H451 H 0.45296 0.12125 0.51203 0.0
H452 H 0.48046 0.04628 0.35258 0.0
H453 H 0.48469 0.02063 0.47139 0.0
H454 H 0.49592 0.08397 0.6133 0.0
C455 C 0.48507 0.1416 0.35298 0.0
C456 C 0.48061 0.14102 0.27102 0.0
C457 C 0.47856 0.11845 0.23351 0.0
C458 C 0.48024 0.09694 0.27701 0.0
C459 C 0.4842 0.09822 0.35801 0.0
C460 C 0.48685 0.12003 0.39531 0.0
C461 C 0.49093 0.11671 0.48281 0.0
C462 C 0.51557 0.12653 0.50725 0.0
C463 C 0.47069 0.12838 0.53047 0.0
C464 C 0.49006 0.08962 0.48934 0.0
C465 C 0.48601 0.07919 0.41694 0.0
C466 C 0.48389 0.05434 0.40927 0.0
C467 C 0.48625 0.03987 0.47706 0.0
C468 C 0.49079 0.05026 0.55143 0.0
C469 C 0.49262 0.07547 0.55719 0.0
H470 H 0.37751 0.52798 0.30782 0.0
H471 H 0.40895 0.46654 0.19006 0.0
H472 H 0.44095 0.46536 0.28862 0.0
H473 H 0.43337 0.55529 0.3758 0.0
H474 H 0.42134 0.56366 0.47007 0.0
H475 H 0.40193 0.56196 0.38553 0.0
H476 H 0.37411 0.53231 0.45767 0.0
H477 H 0.39294 0.534 0.54346 0.0
H478 H 0.38647 0.5053 0.49991 0.0
H479 H 0.46794 0.46818 0.40643 0.0
H480 H 0.48741 0.47501 0.53506 0.0
H481 H 0.43763 0.53284 0.58183 0.0
C482 C 0.39109 0.51428 0.30212 0.0
C483 C 0.39047 0.49757 0.23938 0.0
C484 C 0.409 0.48013 0.2352 0.0
C485 C 0.42732 0.47911 0.2917 0.0
C486 C 0.42703 0.49548 0.35315 0.0
C487 C 0.40941 0.51275 0.35885 0.0
C488 C 0.41234 0.52711 0.43397 0.0
C489 C 0.41758 0.55358 0.4152 0.0
C490 C 0.39015 0.52451 0.48687 0.0
C491 C 0.43401 0.51486 0.47026 0.0
C492 C 0.44238 0.49684 0.42214 0.0
C493 C 0.46169 0.48242 0.44419 0.0
C494 C 0.47261 0.48639 0.51748 0.0
C495 C 0.46407 0.50445 0.56848 0.0
C496 C 0.44465 0.51898 0.54394 0.0
H497 H 0.03193 0.35531 0.4039 0.0
H498 H 0.04721 0.40467 0.2121 0.0
H499 H 0.04117 0.43879 0.3011 0.0
H500 H 0.98482 0.39234 0.49396 0.0
H501 H 0.99332 0.38427 0.5929 0.0
H502 H 0.99819 0.36352 0.51362 0.0
H503 H 0.04311 0.36113 0.55067 0.0
H504 H 0.03843 0.38204 0.62955 0.0
H505 H 0.06057 0.3883 0.55518 0.0
H506 H 0.03628 0.46768 0.412 0.0
H507 H 0.02907 0.48952 0.5354 0.0
H508 H 0.0147 0.42242 0.65585 0.0
C509 C 0.03356 0.37328 0.38018 0.0
C510 C 0.04037 0.37714 0.30072 0.0
C511 C 0.04254 0.40107 0.2728 0.0
C512 C 0.03901 0.42065 0.3229 0.0
C513 C 0.03299 0.41621 0.40105 0.0
C514 C 0.02991 0.39317 0.4295 0.0
C515 C 0.02347 0.39355 0.51641 0.0
C516 C 0.99846 0.38278 0.53 0.0
C517 C 0.04254 0.38048 0.56585 0.0
C518 C 0.02368 0.42036 0.53231 0.0
C519 C 0.02935 0.43304 0.46484 0.0
C520 C 0.03151 0.45794 0.46491 0.0
C521 C 0.02746 0.47024 0.53542 0.0
C522 C 0.02116 0.4578 0.60509 0.0
C523 C 0.01931 0.43247 0.60336 0.0
H524 H 0.84264 0.00926 0.06557 0.0
H525 H 0.88942 0.01733 0.26781 0.0
H526 H 0.92464 0.01258 0.18219 0.0
H527 H 0.88026 0.96416 0.96288 0.0
H528 H 0.87353 0.97648 0.8672 0.0
H529 H 0.85185 0.97855 0.9453 0.0
H530 H 0.85023 0.02462 0.92645 0.0
H531 H 0.87196 0.02273 0.84871 0.0
H532 H 0.87754 0.0418 0.93203 0.0
H533 H 0.95488 0.01154 0.07322 0.0
H534 H 0.97785 0.01199 0.94912 0.0
H535 H 0.91206 1.00203 0.81748 0.0
C536 C 0.86026 0.0094 0.09221 0.0
C537 C 0.86315 0.01383 0.1737 0.0
C538 C 0.88664 0.01433 0.2056 0.0
C539 C 0.90681 0.0115 0.15745 0.0
C540 C 0.90335 1.00783 0.07726 0.0
C541 C 0.88068 1.00646 0.04488 0.0
C542 C 0.88203 1.00339 0.95626 0.0
C543 C 0.87128 0.9792 0.93146 0.0
C544 C 0.86971 0.02439 0.91337 0.0
C545 C 0.90896 1.00386 0.94381 0.0
C546 C 0.92092 1.00639 0.0145 0.0
C547 C 0.94574 0.00904 0.01769 0.0
C548 C 0.95867 0.00924 0.94689 0.0
C549 C 0.94686 1.00656 0.87377 0.0
C550 C 0.92168 1.00356 0.87257 0.0
H551 H 0.46406 0.87611 0.12613 0.0
H552 H 0.52271 0.82777 0.07391 0.0
H553 H 0.53507 0.85418 0.96422 0.0
H554 H 0.44832 0.88913 0.92982 0.0
H555 H 0.44125 0.92021 0.94672 0.0
H556 H 0.43827 0.8987 0.02536 0.0
H557 H 0.4665 0.92421 0.11237 0.0
H558 H 0.46958 0.94581 0.03384 0.0
H559 H 0.49583 0.93213 0.0764 0.0
H560 H 0.5386 0.88355 0.85199 0.0
H561 H 0.53389 0.91441 0.74834 0.0
H562 H 0.47372 0.94467 0.87426 0.0
C563 C 0.47961 0.87113 0.09201 0.0
C564 C 0.49242 0.84976 0.10904 0.0
C565 C 0.51278 0.84412 0.06305 0.0
C566 C 0.51988 0.85899 1.00028 0.0
C567 C 0.50663 0.87966 0.98444 0.0
C568 C 0.48704 0.88587 0.0294 0.0
C569 C 0.47536 0.90861 0.9981 0.0
C570 C 0.44926 0.90387 0.97354 0.0
C571 C 0.47692 0.92889 0.0588 0.0
C572 C 0.49104 0.91388 0.92721 0.0
C573 C 0.50903 0.89698 0.92067 0.0
C574 C 0.52483 0.89708 0.85727 0.0
C575 C 0.522 0.91466 0.79862 0.0
C576 C 0.50365 0.93208 0.80371 0.0
C577 C 0.48823 0.93189 0.86966 0.0
H578 H 0.66182 0.52248 0.11141 0.0
H579 H 0.61871 0.48127 0.27706 0.0
H580 H 0.5845 0.48413 0.18761 0.0
H581 H 0.61472 0.56033 0.03106 0.0
H582 H 0.62584 0.5583 0.93187 0.0
H583 H 0.64628 0.55615 0.01372 0.0
H584 H 0.6615 0.51525 0.96243 0.0
H585 H 0.64124 0.51734 0.88032 0.0
H586 H 0.64031 0.49149 0.94431 0.0
H587 H 0.55471 0.48985 0.07639 0.0
H588 H 0.53393 0.49445 0.94828 0.0
H589 H 0.5975 0.52746 0.84981 0.0
C590 C 0.64535 0.51395 0.12972 0.0
C591 C 0.64342 0.50204 0.20349 0.0
C592 C 0.621 0.49139 0.22323 0.0
C593 C 0.60126 0.49268 0.17207 0.0
C594 C 0.60402 0.50431 0.10005 0.0
C595 C 0.6256 0.51449 0.07845 0.0
C596 C 0.62454 0.52397 0.9947 0.0
C597 C 0.62805 0.55131 0.99276 0.0
C598 C 0.64299 0.51125 0.94237 0.0
C599 C 0.59912 0.5172 0.97223 0.0
C600 C 0.58737 0.50635 0.0344 0.0
C601 C 0.56373 0.49841 0.02744 0.0
C602 C 0.552 0.50122 0.95468 0.0
C603 C 0.56405 0.51144 0.8895 0.0
C604 C 0.58783 0.51969 0.89887 0.0
H605 H 0.03048 0.62565 0.18859 0.0
H606 H 0.98352 0.68193 0.10198 0.0
H607 H 0.97273 0.65669 0.98876 0.0
H608 H 0.05394 0.60981 0.00509 0.0
H609 H 0.05563 0.5781 0.02528 0.0
H610 H 0.05742 0.5992 0.10478 0.0
H611 H 0.02178 0.57815 0.17384 0.0
H612 H 0.01989 0.55694 0.09438 0.0
H613 H 0.99397 0.57426 0.12141 0.0
H614 H 0.97038 0.62739 0.87721 0.0
H615 H 0.97624 0.59598 0.77714 0.0
H616 H 0.02472 0.55844 0.93444 0.0
C617 C 0.01774 0.63265 0.14634 0.0
C618 C 1.0078 0.65591 0.15505 0.0
C619 C 0.99108 0.66412 0.09811 0.0
C620 C 0.98492 0.64992 0.03308 0.0
C621 C 0.99547 0.62739 0.02556 0.0
C622 C 0.01141 0.6187 0.08092 0.0
C623 C 0.0213 0.59448 0.05647 0.0
C624 C 0.04869 0.59547 0.04735 0.0
C625 C 0.01378 0.57479 0.11502 0.0
C626 C 0.00897 0.59122 0.97758 0.0
C627 C 0.99399 0.61034 0.96127 0.0
C628 C 0.98179 0.61218 0.88991 0.0
C629 C 0.98525 0.59426 0.83336 0.0
C630 C 1.00075 0.57467 0.84818 0.0
C631 C 0.01242 0.57297 0.92195 0.0
H632 H 0.06216 0.23064 0.36122 0.0
H633 H 0.12761 0.19568 0.28687 0.0
H634 H 0.11122 0.15668 0.33183 0.0
H635 H 0.04807 0.19056 0.53364 0.0
H636 H 0.01655 0.19214 0.51132 0.0
H637 H 0.03572 0.21737 0.49005 0.0
H638 H 0.02116 0.21666 0.34527 0.0
H639 H 1.00258 0.19103 0.36497 0.0
H640 H 0.02481 0.18973 0.28836 0.0
H641 H 0.08496 0.12111 0.36576 0.0
H642 H 0.05248 0.09241 0.39474 0.0
H643 H 1.00403 0.15165 0.43849 0.0
C644 C 0.0737 0.21508 0.35828 0.0
C645 C 0.09636 0.21627 0.32182 0.0
C646 C 0.1103 0.19517 0.31548 0.0
C647 C 0.10112 0.17298 0.34072 0.0
C648 C 0.07807 0.17234 0.37224 0.0
C649 C 0.06473 0.19295 0.38219 0.0
C650 C 0.03945 0.18744 0.40814 0.0
C651 C 0.03467 0.19746 0.49071 0.0
C652 C 0.02094 0.19676 0.34809 0.0
C653 C 0.04035 0.16043 0.4091 0.0
C654 C 0.06279 0.15199 0.38919 0.0
C655 C 0.06743 0.12756 0.38245 0.0
C656 C 0.04875 0.11139 0.39793 0.0
C657 C 0.02566 0.11976 0.41897 0.0
C658 C 0.02154 0.14464 0.42401 0.0
H659 H 0.31337 0.07339 0.12771 0.0
H660 H 0.28835 0.1095 0.33744 0.0
H661 H 0.32355 0.09414 0.41042 0.0
H662 H 0.32784 0.02268 0.21755 0.0
H663 H 0.354 0.01515 0.16126 0.0
H664 H 0.33093 0.03342 0.11804 0.0
H665 H 0.36057 0.06776 0.08754 0.0
H666 H 0.38458 0.0495 0.12588 0.0
H667 H 0.37964 0.07913 0.16438 0.0
H668 H 0.35673 0.06839 0.46528 0.0
H669 H 0.38694 0.03714 0.49486 0.0
H670 H 0.39003 0.01873 0.24782 0.0
C671 C 0.31589 0.07931 0.18771 0.0
C672 C 0.29827 0.09302 0.2265 0.0
C673 C 0.30172 0.09918 0.30642 0.0
C674 C 0.32168 0.09056 0.34822 0.0
C675 C 0.33804 0.07601 0.30894 0.0
C676 C 0.33553 0.07081 0.23 0.0
C677 C 0.35349 0.05227 0.20358 0.0
C678 C 0.34081 0.02956 0.1733 0.0
C679 C 0.3706 0.06279 0.14166 0.0
C680 C 0.36626 0.04741 0.28018 0.0
C681 C 0.35717 0.06127 0.34043 0.0
C682 C 0.36438 0.05792 0.4182 0.0
C683 C 0.38133 0.04002 0.43453 0.0
C684 C 0.39082 0.02578 0.37332 0.0
C685 C 0.3834 0.02977 0.29526 0.0
H686 H 0.45103 0.34859 0.23995 0.0
H687 H 0.5141 0.313 0.14924 0.0
H688 H 0.53609 0.35131 0.15015 0.0
H689 H 0.46017 0.40768 0.139 0.0
H690 H 0.45047 0.42435 0.22371 0.0
H691 H 0.43816 0.39504 0.20471 0.0
H692 H 0.45114 0.38059 0.34372 0.0
H693 H 0.4629 0.40995 0.36338 0.0
H694 H 0.48196 0.38403 0.37345 0.0
H695 H 0.5517 0.39259 0.16388 0.0
H696 H 0.56307 0.43157 0.22073 0.0
H697 H 0.49089 0.43976 0.31131 0.0
C698 C 0.46928 0.34914 0.2186 0.0
C699 C 0.48095 0.32807 0.19434 0.0
C700 C 0.50499 0.32908 0.16843 0.0
C701 C 0.51745 0.3508 0.16732 0.0
C702 C 0.5055 0.3714 0.19097 0.0
C703 C 0.4821 0.37073 0.21761 0.0
C704 C 0.47473 0.39469 0.25124 0.0
C705 C 0.45469 0.40611 0.20168 0.0
C706 C 0.46727 0.39216 0.33808 0.0
C707 C 0.49796 0.40849 0.24242 0.0
C708 C 0.51514 0.39503 0.20455 0.0
C709 C 0.53842 0.40335 0.19364 0.0
C710 C 0.54474 0.42545 0.22646 0.0
C711 C 0.52798 0.4386 0.27141 0.0
C712 C 0.50403 0.43044 0.2762 0.0
H713 H 0.2126 0.46369 0.16784 0.0
H714 H 0.24328 0.41947 0.35234 0.0
H715 H 0.20868 0.42911 0.43851 0.0
H716 H 0.19275 0.51018 0.29876 0.0
H717 H 0.16815 0.51673 0.23335 0.0
H718 H 0.19547 0.50415 0.19596 0.0
H719 H 0.1675 0.4695 0.13554 0.0
H720 H 0.14174 0.48277 0.182 0.0
H721 H 0.14954 0.45202 0.20246 0.0
H722 H 0.17202 0.44728 0.50735 0.0
H723 H 0.13722 0.47139 0.5508 0.0
H724 H 0.13243 0.50354 0.31869 0.0
C725 C 0.21166 0.45529 0.22535 0.0
C726 C 0.23017 0.44026 0.2528 0.0
C727 C 0.22896 0.43066 0.32993 0.0
C728 C 0.20944 0.43608 0.37906 0.0
C729 C 0.19159 0.4513 0.35012 0.0
C730 C 0.19271 0.46079 0.27503 0.0
C731 C 0.17281 0.47844 0.25955 0.0
C732 C 0.18285 0.50385 0.24597 0.0
C733 C 0.15695 0.4702 0.1908 0.0
C734 C 0.15976 0.47706 0.33674 0.0
C735 C 0.1709 0.46158 0.38898 0.0
C736 C 0.16304 0.45919 0.46644 0.0
C737 C 0.14344 0.47308 0.49075 0.0
C738 C 0.13206 0.48915 0.43776 0.0
C739 C 0.14031 0.49092 0.35984 0.0
H740 H 0.09864 0.82392 0.2974 0.0
H741 H 0.11244 0.78077 0.09127 0.0
H742 H 0.11836 0.81762 0.01249 0.0
H743 H 0.063 0.86266 0.21206 0.0
H744 H 0.07227 0.88935 0.2632 0.0
H745 H 0.07631 0.86055 0.30853 0.0
H746 H 0.12171 0.86865 0.32487 0.0
H747 H 0.1178 0.89785 0.28069 0.0
H748 H 0.13934 0.87723 0.24055 0.0
H749 H 0.11277 0.85766 0.9513 0.0
H750 H 0.09724 0.89737 0.9135 0.0
H751 H 0.08849 0.91523 0.15989 0.0
C752 C 0.10427 0.82224 0.23676 0.0
C753 C 0.10537 0.79956 0.20051 0.0
C754 C 0.11167 0.79803 0.12012 0.0
C755 C 0.11517 0.81886 0.0751 0.0
C756 C 0.11257 0.84104 0.11161 0.0
C757 C 0.10766 0.84286 0.19112 0.0
C758 C 0.10192 0.86844 0.21372 0.0
C759 C 0.0769 0.87033 0.25151 0.0
C760 C 0.12136 0.87865 0.26817 0.0
C761 C 0.10263 0.88038 0.13372 0.0
C762 C 0.10938 0.86445 0.07583 0.0
C763 C 0.10825 0.87054 0.9963 0.0
C764 C 0.09944 0.89322 0.97535 0.0
C765 C 0.0917 0.90951 0.03373 0.0
C766 C 0.09424 0.9032 0.11386 0.0
H767 H 0.71165 0.0642 0.08011 0.0
H768 H 0.69683 0.12741 0.21946 0.0
H769 H 0.65762 0.13152 0.15338 0.0
H770 H 0.67845 0.0846 0.89573 0.0
H771 H 0.66852 0.05434 0.87794 0.0
H772 H 0.69723 0.05966 0.92336 0.0
H773 H 0.6849 0.03236 0.04023 0.0
H774 H 0.65613 0.02728 0.99623 0.0
H775 H 0.65804 0.03916 0.09445 0.0
H776 H 0.61731 0.12363 0.09307 0.0
H777 H 0.58043 0.10595 0.03667 0.0
H778 H 0.62254 0.04887 0.93422 0.0
C779 C 0.7008 0.07966 0.09404 0.0
C780 C 0.70742 0.09553 0.15485 0.0
C781 C 0.6921 0.11494 0.17334 0.0
C782 C 0.66986 0.11751 0.13573 0.0
C783 C 0.6634 0.10079 0.07881 0.0
C784 C 0.67868 0.08252 0.05688 0.0
C785 C 0.66659 0.0652 1.00128 0.0
C786 C 0.6784 0.06601 0.91973 0.0
C787 C 0.6664 0.03951 0.03514 0.0
C788 C 0.64171 0.07579 0.9988 0.0
C789 C 0.64024 0.0965 0.0429 0.0
C790 C 0.61839 0.10783 0.05655 0.0
C791 C 0.59754 0.0976 0.0249 0.0
C792 C 0.59876 0.07627 0.9803 0.0
C793 C 0.6212 0.06559 0.96603 0.0
H794 H 0.39964 0.69667 0.13575 0.0
H795 H 0.40844 0.67973 0.38329 0.0
H796 H 0.40395 0.63679 0.35414 0.0
H797 H 0.35801 0.64434 0.08609 0.0
H798 H 0.37246 0.64052 0.99226 0.0
H799 H 0.36997 0.67 0.03456 0.0
H800 H 0.41593 0.67537 0.0231 0.0
H801 H 0.4186 0.64598 0.98161 0.0
H802 H 0.43544 0.65358 0.06851 0.0
H803 H 0.40812 0.59635 0.29617 0.0
H804 H 0.41931 0.56174 0.21476 0.0
H805 H 0.40647 0.60417 1.00412 0.0
C806 C 0.39976 0.68395 0.18406 0.0
C807 C 0.40416 0.69159 0.2618 0.0
C808 C 0.40453 0.67441 0.32346 0.0
C809 C 0.40207 0.64991 0.30743 0.0
C810 C 0.3989 0.64287 0.22961 0.0
C811 C 0.39733 0.65944 0.16897 0.0
C812 C 0.39717 0.64722 0.08967 0.0
C813 C 0.37295 0.65073 0.04822 0.0
C814 C 0.41803 0.65606 0.03776 0.0
C815 C 0.40058 0.62139 0.11498 0.0
C816 C 0.40101 0.61917 0.19592 0.0
C817 C 0.40699 0.59761 0.23279 0.0
C818 C 0.4133 0.578 0.18587 0.0
C819 C 0.4138 0.58016 0.10277 0.0
C820 C 0.40637 0.60191 0.06738 0.0
H821 H 0.82161 0.42837 0.33275 0.0
H822 H 0.78014 0.39595 0.14529 0.0
H823 H 0.81665 0.3937 0.06373 0.0
H824 H 0.85302 0.46571 0.22221 0.0
H825 H 0.88106 0.46371 0.27442 0.0
H826 H 0.85355 0.45755 0.32493 0.0
H827 H 0.86889 0.41558 0.36612 0.0
H828 H 0.89686 0.4217 0.31714 0.0
H829 H 0.87989 0.39528 0.29236 0.0
H830 H 0.85541 0.40259 0.99443 0.0
H831 H 0.89311 0.42033 0.94565 0.0
H832 H 0.90951 0.44513 0.18118 0.0
C833 C 0.82033 0.41959 0.27627 0.0
C834 C 0.79799 0.41214 0.24578 0.0
C835 C 0.79705 0.40178 0.16993 0.0
C836 C 0.81773 0.40031 0.12335 0.0
C837 C 0.83925 0.40894 0.15396 0.0
C838 C 0.84074 0.41797 0.22939 0.0
C839 C 0.86508 0.42885 0.24541 0.0
C840 C 0.86303 0.45552 0.26798 0.0
C841 C 0.87847 0.41449 0.30902 0.0
C842 C 0.87662 0.42579 0.16579 0.0
C843 C 0.86166 0.41391 0.11412 0.0
C844 C 0.86755 0.41129 0.03495 0.0
C845 C 0.88906 0.42139 0.00777 0.0
C846 C 0.90433 0.4341 0.05957 0.0
C847 C 0.89822 0.43563 0.13995 0.0
H848 H 0.04266 0.18151 0.0322 0.0
H849 H 0.01282 0.22379 0.84053 0.0
H850 H 1.0037 0.18675 0.76844 0.0
H851 H 0.06952 0.136 0.9147 0.0
H852 H 0.06219 0.11152 0.97996 0.0
H853 H 0.0662 0.14127 0.01864 0.0
H854 H 0.02401 0.13957 0.08107 0.0
H855 H 0.01993 0.10973 0.04317 0.0
H856 H 0.99846 0.13282 0.02012 0.0
H857 H 0.99939 0.14574 0.71348 0.0
H858 H 0.99713 0.10293 0.68273 0.0
H859 H 0.02782 0.08553 0.91078 0.0
C860 C 0.03385 0.18301 0.97565 0.0
C861 C 0.02874 0.20585 0.94202 0.0
C862 C 0.01744 0.20675 0.86729 0.0
C863 C 0.01204 0.18573 0.82584 0.0
C864 C 0.01777 0.16369 0.85979 0.0
C865 C 0.02815 0.16207 0.93335 0.0
C866 C 0.03234 0.1359 0.95586 0.0
C867 C 0.05916 0.13089 0.96799 0.0
C868 C 0.01781 0.12911 0.02942 0.0
C869 C 0.02282 0.12316 0.88316 0.0
C870 C 0.01465 0.13968 0.82858 0.0
C871 C 1.00552 0.13264 0.75612 0.0
C872 C 1.00436 0.10811 0.73912 0.0
C873 C 0.01212 0.09054 0.79416 0.0
C874 C 0.02163 0.09834 0.86727 0.0
H875 H 0.32599 0.03262 0.97622 0.0
H876 H 0.28431 0.9931 0.80441 0.0
H877 H 0.32136 0.98321 0.73297 0.0
H878 H 0.3692 0.057 0.84224 0.0
H879 H 0.394 0.054 0.90957 0.0
H880 H 0.36406 0.05785 0.94672 0.0
H881 H 0.36882 0.01864 0.02856 0.0
H882 H 0.39869 0.01502 0.9909 0.0
H883 H 0.37702 0.99127 0.97983 0.0
H884 H 0.36254 0.97878 0.67691 0.0
H885 H 0.40536 0.97784 0.6443 0.0
H886 H 0.42151 0.01867 0.85445 0.0
C887 C 0.32467 0.02147 0.92453 0.0
C888 C 0.30204 0.01369 0.89619 0.0
C889 C 0.30124 0.9996 0.82703 0.0
C890 C 0.32225 0.99378 0.78609 0.0
C891 C 0.34412 1.002 0.815 0.0
C892 C 0.34556 0.01535 0.883 0.0
C893 C 0.37144 0.02197 0.9009 0.0
C894 C 0.37488 0.04933 0.8998 0.0
C895 C 0.37949 0.01106 0.97973 0.0
C896 C 0.38428 0.01028 0.83234 0.0
C897 C 0.36808 0.99901 0.78333 0.0
C898 C 0.37538 0.98742 0.71518 0.0
C899 C 0.39985 0.98709 0.6969 0.0
C900 C 0.41702 0.99815 0.7465 0.0
C901 C 0.40898 0.00992 0.81532 0.0
H902 H 0.50065 0.32951 0.98862 0.0
H903 H 0.49891 0.29385 0.76275 0.0
H904 H 0.50558 0.33277 0.69578 0.0
H905 H 0.46846 0.38065 0.93263 0.0
H906 H 0.48569 0.40158 0.99016 0.0
H907 H 0.48357 0.37072 0.02072 0.0
H908 H 0.53037 0.36674 0.01876 0.0
H909 H 0.53155 0.39812 0.99369 0.0
H910 H 0.54644 0.37635 0.93286 0.0
H911 H 0.51171 0.37595 0.65299 0.0
H912 H 0.51423 0.41998 0.63736 0.0
H913 H 0.50934 0.4281 0.89048 0.0
C914 C 0.50224 0.32985 0.92517 0.0
C915 C 0.49955 0.30853 0.88091 0.0
C916 C 0.50103 0.30987 0.79783 0.0
C917 C 0.50487 0.33191 0.75933 0.0
C918 C 0.50705 0.35263 0.80451 0.0
C919 C 0.5058 0.3518 0.88568 0.0
C920 C 0.50735 0.37688 0.9201 0.0
C921 C 0.48493 0.3828 0.96873 0.0
C922 C 0.53028 0.37971 0.96929 0.0
C923 C 0.50876 0.39196 0.8456 0.0
C924 C 0.50923 0.37757 0.77967 0.0
C925 C 0.5113 0.38735 0.70427 0.0
C926 C 0.51281 0.41242 0.69596 0.0
C927 C 0.51184 0.42759 0.7625 0.0
C928 C 0.50986 0.41706 0.83829 0.0
H929 H 0.20728 0.50939 0.81325 0.0
H930 H 0.20041 0.50365 0.06652 0.0
H931 H 0.15666 0.50578 0.05461 0.0
H932 H 0.15655 0.54977 0.78269 0.0
H933 H 0.14681 0.53569 0.69305 0.0
H934 H 0.17802 0.53517 0.72004 0.0
H935 H 0.17826 0.48899 0.71082 0.0
H936 H 0.14703 0.48906 0.68422 0.0
H937 H 0.15707 0.47175 0.76765 0.0
H938 H 0.11379 0.50549 0.01691 0.0
H939 H 0.07391 0.50611 0.95544 0.0
H940 H 0.10693 0.5112 0.72479 0.0
C941 C 0.1966 0.50864 0.86626 0.0
C942 C 0.20762 0.50693 0.94155 0.0
C943 C 0.19271 0.50589 0.00884 0.0
C944 C 0.16772 0.50666 1.00252 0.0
C945 C 0.15752 0.50812 0.92805 0.0
C946 C 0.17138 0.50924 0.8609 0.0
C947 C 0.1555 0.5105 0.78805 0.0
C948 C 0.15946 0.53419 0.74331 0.0
C949 C 0.15973 0.48878 0.73453 0.0
C950 C 0.13069 0.50962 0.82509 0.0
C951 C 0.13241 0.5082 0.90598 0.0
C952 C 0.11218 0.50675 0.95359 0.0
C953 C 0.08953 0.50701 0.9179 0.0
C954 C 0.08707 0.50879 0.83506 0.0
C955 C 0.10808 0.51002 0.7882 0.0
H956 H 0.01214 0.82435 0.61918 0.0
H957 H 1.008 0.83702 0.3668 0.0
H958 H 1.00211 0.87983 0.39065 0.0
H959 H 0.96942 0.86962 0.67937 0.0
H960 H 0.98645 0.87882 0.76415 0.0
H961 H 0.98872 0.84849 0.72891 0.0
H962 H 0.03469 0.85317 0.71726 0.0
H963 H 0.03257 0.88352 0.75239 0.0
H964 H 0.04687 0.87749 0.65961 0.0
H965 H 0.99725 0.92121 0.43897 0.0
H966 H 0.99512 0.95942 0.50884 0.0
H967 H 1.00526 0.9222 0.73161 0.0
C968 C 0.01002 0.83601 0.56865 0.0
C969 C 0.01008 0.82671 0.49076 0.0
C970 C 1.00718 0.84305 0.4271 0.0
C971 C 1.00408 0.86765 0.43994 0.0
C972 C 1.00422 0.87605 0.51687 0.0
C973 C 1.00727 0.86086 0.58031 0.0
C974 C 1.00769 0.87502 0.65683 0.0
C975 C 0.98682 0.86754 0.71049 0.0
C976 C 0.0319 0.87213 0.69901 0.0
C977 C 1.0044 0.9005 0.62612 0.0
C978 C 1.00227 0.90046 0.54513 0.0
C979 C 0.99888 0.92148 0.50238 0.0
C980 C 0.99762 0.94319 0.54306 0.0
C981 C 0.99991 0.94405 0.6262 0.0
C982 C 1.00346 0.92227 0.6682 0.0
H983 H 0.67883 0.02488 0.56233 0.0
H984 H 0.68266 0.96756 0.39085 0.0
H985 H 0.64107 0.95621 0.42181 0.0
H986 H 0.64184 0.99186 0.70662 0.0
H987 H 0.62493 0.01807 0.7336 0.0
H988 H 0.65549 0.02112 0.70108 0.0
H989 H 0.64188 0.05096 0.59287 0.0
H990 H 0.6113 0.0479 0.62486 0.0
H991 H 0.61904 0.04205 0.52388 0.0
H992 H 0.59847 0.95274 0.46334 0.0
H993 H 0.55773 0.95612 0.51712 0.0
H994 H 0.581 0.01434 0.66759 0.0
C995 C 0.67114 0.00961 0.53243 0.0
C996 C 0.68419 0.99718 0.4737 0.0
C997 C 0.6731 0.97762 0.43508 0.0
C998 C 0.64947 0.97092 0.45267 0.0
C999 C 0.63706 0.98376 0.50967 0.0
C1000 C 0.64752 1.00256 0.54964 0.0
C1001 C 0.62981 0.01377 0.6067 0.0
C1002 C 0.63854 0.01103 0.69206 0.0
C1003 C 0.62524 0.04024 0.58579 0.0
C1004 C 0.60771 0.99852 0.59163 0.0
C1005 C 0.6124 0.98136 0.53529 0.0
C1006 C 0.59466 0.96592 0.50812 0.0
C1007 C 0.57151 0.96806 0.53888 0.0
C1008 C 0.56612 0.98541 0.59688 0.0
C1009 C 0.58462 1.00068 0.62419 0.0
H1010 H 0.49308 0.67521 0.4526 0.0
H1011 H 0.50313 0.71656 0.666 0.0
H1012 H 0.5081 0.67911 0.74155 0.0
H1013 H 0.46068 0.62698 0.53622 0.0
H1014 H 0.47489 0.60405 0.47841 0.0
H1015 H 0.47238 0.63411 0.44016 0.0
H1016 H 0.5183 0.63589 0.41949 0.0
H1017 H 0.52092 0.60573 0.45689 0.0
H1018 H 0.53801 0.62958 0.50105 0.0
H1019 H 0.50898 0.63668 0.79632 0.0
H1020 H 0.51046 0.59295 0.82244 0.0
H1021 H 0.50342 0.57942 0.57252 0.0
C1022 C 0.49684 0.67655 0.51486 0.0
C1023 C 0.49741 0.69913 0.55296 0.0
C1024 C 0.50202 0.69968 0.63512 0.0
C1025 C 0.50502 0.67842 0.67875 0.0
C1026 C 0.50376 0.65657 0.63963 0.0
C1027 C 0.50022 0.65549 0.55927 0.0
C1028 C 0.49985 0.62968 0.53136 0.0
C1029 C 0.47551 0.62334 0.49436 0.0
C1030 C 0.5205 0.62495 0.4738 0.0
C1031 C 0.50359 0.61643 0.60861 0.0
C1032 C 0.50551 0.63225 0.67056 0.0
C1033 C 0.50785 0.62416 0.74805 0.0
C1034 C 0.50857 0.59929 0.76244 0.0
C1035 C 0.50737 0.58278 0.69958 0.0
C1036 C 0.5048 0.5916 0.62175 0.0
H1037 H 0.82656 0.51281 0.61268 0.0
H1038 H 0.83756 0.50254 0.36195 0.0
H1039 H 0.88096 0.50631 0.38146 0.0
H1040 H 0.87516 0.55443 0.64687 0.0
H1041 H 0.88331 0.54136 0.74028 0.0
H1042 H 0.85277 0.53976 0.70639 0.0
H1043 H 0.85359 0.49354 0.72149 0.0
H1044 H 0.88413 0.49499 0.75535 0.0
H1045 H 0.87651 0.47658 0.67214 0.0
H1046 H 0.92353 0.51059 0.42765 0.0
H1047 H 0.96207 0.51319 0.4979 0.0
H1048 H 0.92424 0.51743 0.7203 0.0
C1049 C 0.83795 0.5113 0.56155 0.0
C1050 C 0.82813 0.50771 0.48531 0.0
C1051 C 0.84413 0.50605 0.42066 0.0
C1052 C 0.86901 0.50792 0.4312 0.0
C1053 C 0.87793 0.51123 0.50694 0.0
C1054 C 0.86293 0.51275 0.57113 0.0
C1055 C 0.87727 0.51517 0.6468 0.0
C1056 C 0.8718 0.53911 0.68747 0.0
C1057 C 0.87259 0.4938 0.7022 0.0
C1058 C 0.90268 0.51474 0.61505 0.0
C1059 C 0.90259 0.51269 0.53408 0.0
C1060 C 0.9238 0.51217 0.49106 0.0
C1061 C 0.94565 0.51373 0.53165 0.0
C1062 C 0.94632 0.51551 0.61481 0.0
C1063 C 0.92442 0.51598 0.65683 0.0
loop_
_geom_bond_atom_site_label_1
_geom_bond_atom_site_label_2
_geom_bond_distance
_geom_bond_site_symmetry_2
_ccdc_geom_bond_type
P0 O11 1.490 . S
P0 C14 1.812 . S
P0 C20 1.803 . S
P0 C26 1.819 . S
H1 C15 0.941 . S
H2 C16 0.939 . S
H3 C18 0.940 . S
H4 C19 0.940 . S
H5 C21 0.939 . S
H6 C22 0.942 . S
H7 C24 0.940 . S
H8 C25 0.939 . S
H9 C27 0.941 . S
H10 C31 0.939 . S
O11 P0 1.490 . S
H12 C28 0.939 . S
H13 C30 0.940 . S
C14 P0 1.812 . S
C14 C15 1.389 . S
C14 C19 1.391 . S
C15 H1 0.941 . S
C15 C14 1.389 . S
C15 C16 1.397 . S
C16 H2 0.939 . S
C16 C15 1.397 . S
C16 C17 1.378 . S
C17 C16 1.378 . S
C17 C18 1.378 . S
C18 H3 0.940 . S
C18 C17 1.378 . S
C18 C19 1.396 . S
C19 H4 0.940 . S
C19 C14 1.391 . S
C19 C18 1.396 . S
C20 P0 1.803 . S
C20 C21 1.378 . S
C20 C25 1.400 . S
C21 H5 0.939 . S
C21 C20 1.378 . S
C21 C22 1.361 . S
C22 H6 0.942 . S
C22 C21 1.361 . S
C22 C23 1.369 . S
C23 C22 1.369 . S
C23 C24 1.404 . S
C24 H7 0.940 . S
C24 C23 1.404 . S
C24 C25 1.389 . S
C25 H8 0.939 . S
C25 C20 1.400 . S
C25 C24 1.389 . S
C26 P0 1.819 . S
C26 C27 1.391 . S
C26 C31 1.391 . S
C27 H9 0.941 . S
C27 C26 1.391 . S
C27 C28 1.396 . S
C28 H12 0.939 . S
C28 C27 1.396 . S
C28 C29 1.397 . S
C29 C28 1.397 . S
C29 C30 1.385 . S
C30 H13 0.940 . S
C30 C29 1.385 . S
C30 C31 1.388 . S
C31 H10 0.939 . S
C31 C26 1.391 . S
C31 C30 1.388 . S
P32 O43 1.490 . S
P32 C46 1.812 . S
P32 C52 1.803 . S
P32 C58 1.819 . S
H33 C47 0.941 . S
H34 C48 0.939 . S
H35 C50 0.940 . S
H36 C51 0.950 . S
H37 C53 0.939 . S
H38 C54 0.942 . S
H39 C56 0.940 . S
H40 C57 0.959 . S
H41 C59 0.941 . S
H42 C63 0.929 1_655 S
O43 P32 1.490 . S
H44 C60 0.939 . S
H45 C62 0.940 . S
C46 P32 1.812 . S
C46 C47 1.389 . S
C46 C51 1.375 1_455 S
C47 H33 0.941 . S
C47 C46 1.389 . S
C47 C48 1.397 . S
C48 H34 0.939 . S
C48 C47 1.397 . S
C48 C49 1.378 . S
C49 C48 1.378 . S
C49 C50 1.378 1_455 S
C50 H35 0.940 . S
C50 C49 1.378 1_655 S
C50 C51 1.403 . S
C51 H36 0.950 . S
C51 C46 1.375 1_655 S
C51 C50 1.403 . S
C52 P32 1.803 . S
C52 C53 1.378 . S
C52 C57 1.368 1_455 S
C53 H37 0.939 . S
C53 C52 1.378 . S
C53 C54 1.361 . S
C54 H38 0.942 . S
C54 C53 1.361 . S
C54 C55 1.369 . S
C55 C54 1.369 . S
C55 C56 1.404 1_455 S
C56 H39 0.940 . S
C56 C55 1.404 1_655 S
C56 C57 1.402 . S
C57 H40 0.959 . S
C57 C52 1.368 1_655 S
C57 C56 1.402 . S
C58 P32 1.819 . S
C58 C59 1.391 . S
C58 C63 1.391 . S
C59 H41 0.941 . S
C59 C58 1.391 . S
C59 C60 1.396 . S
C60 H44 0.939 . S
C60 C59 1.396 . S
C60 C61 1.397 . S
C61 C60 1.397 . S
C61 C62 1.385 1_455 S
C62 H45 0.940 . S
C62 C61 1.385 1_655 S
C62 C63 1.388 1_655 S
C63 H42 0.929 1_455 S
C63 C58 1.391 . S
C63 C62 1.388 1_455 S
P64 O75 1.490 . S
P64 C78 1.812 . S
P64 C84 1.803 . S
P64 C90 1.819 . S
H65 C79 0.941 . S
H66 C80 0.939 . S
H67 C82 0.940 . S
H68 C83 0.950 . S
H69 C85 0.939 . S
H70 C86 0.942 . S
H71 C88 0.940 . S
H72 C89 0.959 . S
H73 C91 0.941 . S
H74 C95 0.929 1_565 S
O75 P64 1.490 . S
H76 C92 0.939 . S
H77 C94 0.940 . S
C78 P64 1.812 . S
C78 C79 1.389 . S
C78 C83 1.375 1_545 S
C79 H65 0.941 . S
C79 C78 1.389 . S
C79 C80 1.397 . S
C80 H66 0.939 . S
C80 C79 1.397 . S
C80 C81 1.378 . S
C81 C80 1.378 . S
C81 C82 1.378 1_545 S
C82 H67 0.940 . S
C82 C81 1.378 1_565 S
C82 C83 1.403 . S
C83 H68 0.950 . S
C83 C78 1.375 1_565 S
C83 C82 1.403 . S
C84 P64 1.803 . S
C84 C85 1.378 . S
C84 C89 1.368 1_545 S
C85 H69 0.939 . S
C85 C84 1.378 . S
C85 C86 1.361 . S
C86 H70 0.942 . S
C86 C85 1.361 . S
C86 C87 1.369 . S
C87 C86 1.369 . S
C87 C88 1.404 1_545 S
C88 H71 0.940 . S
C88 C87 1.404 1_565 S
C88 C89 1.402 . S
C89 H72 0.959 . S
C89 C84 1.368 1_565 S
C89 C88 1.402 . S
C90 P64 1.819 . S
C90 C91 1.391 . S
C90 C95 1.391 . S
C91 H73 0.941 . S
C91 C90 1.391 . S
C91 C92 1.396 . S
C92 H76 0.939 . S
C92 C91 1.396 . S
C92 C93 1.397 . S
C93 C92 1.397 . S
C93 C94 1.385 1_545 S
C94 H77 0.940 . S
C94 C93 1.385 1_565 S
C94 C95 1.388 1_565 S
C95 H74 0.929 1_545 S
C95 C90 1.391 . S
C95 C94 1.388 1_545 S
P96 O107 1.490 . S
P96 C110 1.812 . S
P96 C116 1.803 . S
P96 C122 1.819 . S
H97 C111 0.941 . S
H98 C112 0.939 . S
H99 C114 0.940 . S
H100 C115 0.940 . S
H101 C117 0.939 . S
H102 C118 0.942 . S
H103 C120 0.940 . S
H104 C121 0.939 . S
H105 C123 0.941 . S
H106 C127 0.939 . S
O107 P96 1.490 . S
H108 C124 0.939 . S
H109 C126 0.940 . S
C110 P96 1.812 . S
C110 C111 1.389 . S
C110 C115 1.391 . S
C111 H97 0.941 . S
C111 C110 1.389 . S
C111 C112 1.397 . S
C112 H98 0.939 . S
C112 C111 1.397 . S
C112 C113 1.378 . S
C113 C112 1.378 . S
C113 C114 1.378 . S
C114 H99 0.940 . S
C114 C113 1.378 . S
C114 C115 1.396 . S
C115 H100 0.940 . S
C115 C110 1.391 . S
C115 C114 1.396 . S
C116 P96 1.803 . S
C116 C117 1.378 . S
C116 C121 1.400 . S
C117 H101 0.939 . S
C117 C116 1.378 . S
C117 C118 1.361 . S
C118 H102 0.942 . S
C118 C117 1.361 . S
C118 C119 1.369 . S
C119 C118 1.369 . S
C119 C120 1.404 . S
C120 H103 0.940 . S
C120 C119 1.404 . S
C120 C121 1.389 . S
C121 H104 0.939 . S
C121 C116 1.400 . S
C121 C120 1.389 . S
C122 P96 1.819 . S
C122 C123 1.391 . S
C122 C127 1.391 . S
C123 H105 0.941 . S
C123 C122 1.391 . S
C123 C124 1.396 . S
C124 H108 0.939 . S
C124 C123 1.396 . S
C124 C125 1.397 . S
C125 C124 1.397 . S
C125 C126 1.385 . S
C126 H109 0.940 . S
C126 C125 1.385 . S
C126 C127 1.388 . S
C127 H106 0.939 . S
C127 C122 1.391 . S
C127 C126 1.388 . S
P128 O139 1.490 . S
P128 C142 1.812 1_554 S
P128 C148 1.803 . S
P128 C154 1.819 . S
H129 C143 0.941 . S
H130 C144 0.939 . S
H131 C146 0.940 . S
H132 C147 0.940 . S
H133 C149 0.939 . S
H134 C150 0.942 . S
H135 C152 0.940 . S
H136 C153 0.939 . S
H137 C155 0.941 . S
H138 C159 0.939 . S
O139 P128 1.490 . S
H140 C156 0.939 . S
H141 C158 0.940 . S
C142 P128 1.812 1_556 S
C142 C143 1.389 . S
C142 C147 1.391 . S
C143 H129 0.941 . S
C143 C142 1.389 . S
C143 C144 1.397 . S
C144 H130 0.939 . S
C144 C143 1.397 . S
C144 C145 1.378 . S
C145 C144 1.378 . S
C145 C146 1.378 . S
C146 H131 0.940 . S
C146 C145 1.378 . S
C146 C147 1.396 . S
C147 H132 0.940 . S
C147 C142 1.391 . S
C147 C146 1.396 . S
C148 P128 1.803 . S
C148 C149 1.378 . S
C148 C153 1.400 . S
C149 H133 0.939 . S
C149 C148 1.378 . S
C149 C150 1.361 . S
C150 H134 0.942 . S
C150 C149 1.361 . S
C150 C151 1.369 . S
C151 C150 1.369 . S
C151 C152 1.404 . S
C152 H135 0.940 . S
C152 C151 1.404 . S
C152 C153 1.389 . S
C153 H136 0.939 . S
C153 C148 1.400 . S
C153 C152 1.389 . S
C154 P128 1.819 . S
C154 C155 1.391 . S
C154 C159 1.391 . S
C155 H137 0.941 . S
C155 C154 1.391 . S
C155 C156 1.396 . S
C156 H140 0.939 . S
C156 C155 1.396 . S
C156 C157 1.397 . S
C157 C156 1.397 . S
C157 C158 1.385 . S
C158 H141 0.940 . S
C158 C157 1.385 . S
C158 C159 1.388 . S
C159 H138 0.939 . S
C159 C154 1.391 . S
C159 C158 1.388 . S
P160 O171 1.490 . S
P160 C174 1.812 1_554 S
P160 C180 1.803 . S
P160 C186 1.819 . S
H161 C175 0.941 . S
H162 C176 0.939 . S
H163 C178 0.940 . S
H164 C179 0.944 . S
H165 C181 0.939 . S
H166 C182 0.942 . S
H167 C184 0.940 . S
H168 C185 0.953 . S
H169 C187 0.941 . S
H170 C191 0.933 1_655 S
O171 P160 1.490 . S
H172 C188 0.939 . S
H173 C190 0.940 . S
C174 P160 1.812 1_556 S
C174 C175 1.389 . S
C174 C179 1.385 1_455 S
C175 H161 0.941 . S
C175 C174 1.389 . S
C175 C176 1.397 . S
C176 H162 0.939 . S
C176 C175 1.397 . S
C176 C177 1.378 . S
C177 C176 1.378 . S
C177 C178 1.378 1_455 S
C178 H163 0.940 . S
C178 C177 1.378 1_655 S
C178 C179 1.399 . S
C179 H164 0.944 . S
C179 C174 1.385 1_655 S
C179 C178 1.399 . S
C180 P160 1.803 . S
C180 C181 1.378 . S
C180 C185 1.379 1_455 S
C181 H165 0.939 . S
C181 C180 1.378 . S
C181 C182 1.361 . S
C182 H166 0.942 . S
C182 C181 1.361 . S
C182 C183 1.369 . S
C183 C182 1.369 . S
C183 C184 1.404 1_455 S
C184 H167 0.940 . S
C184 C183 1.404 1_655 S
C184 C185 1.398 . S
C185 H168 0.953 . S
C185 C180 1.379 1_655 S
C185 C184 1.398 . S
C186 P160 1.819 . S
C186 C187 1.391 . S
C186 C191 1.391 . S
C187 H169 0.941 . S
C187 C186 1.391 . S
C187 C188 1.396 . S
C188 H172 0.939 . S
C188 C187 1.396 . S
C188 C189 1.397 . S
C189 C188 1.397 . S
C189 C190 1.385 1_455 S
C190 H173 0.940 . S
C190 C189 1.385 1_655 S
C190 C191 1.388 1_655 S
C191 H170 0.933 1_455 S
C191 C186 1.391 . S
C191 C190 1.388 1_455 S
P192 O203 1.490 . S
P192 C206 1.812 1_554 S
P192 C212 1.803 . S
P192 C218 1.819 . S
H193 C207 0.941 . S
H194 C208 0.939 . S
H195 C210 0.940 . S
H196 C211 0.944 . S
H197 C213 0.939 . S
H198 C214 0.942 . S
H199 C216 0.940 . S
H200 C217 0.953 . S
H201 C219 0.941 . S
H202 C223 0.933 1_565 S
O203 P192 1.490 . S
H204 C220 0.939 . S
H205 C222 0.940 . S
C206 P192 1.812 1_556 S
C206 C207 1.389 . S
C206 C211 1.385 1_545 S
C207 H193 0.941 . S
C207 C206 1.389 . S
C207 C208 1.397 . S
C208 H194 0.939 . S
C208 C207 1.397 . S
C208 C209 1.378 . S
C209 C208 1.378 . S
C209 C210 1.378 1_545 S
C210 H195 0.940 . S
C210 C209 1.378 1_565 S
C210 C211 1.399 . S
C211 H196 0.944 . S
C211 C206 1.385 1_565 S
C211 C210 1.399 . S
C212 P192 1.803 . S
C212 C213 1.378 . S
C212 C217 1.379 1_545 S
C213 H197 0.939 . S
C213 C212 1.378 . S
C213 C214 1.361 . S
C214 H198 0.942 . S
C214 C213 1.361 . S
C214 C215 1.369 . S
C215 C214 1.369 . S
C215 C216 1.404 1_545 S
C216 H199 0.940 . S
C216 C215 1.404 1_565 S
C216 C217 1.398 . S
C217 H200 0.953 . S
C217 C212 1.379 1_565 S
C217 C216 1.398 . S
C218 P192 1.819 . S
C218 C219 1.391 . S
C218 C223 1.391 . S
C219 H201 0.941 . S
C219 C218 1.391 . S
C219 C220 1.396 . S
C220 H204 0.939 . S
C220 C219 1.396 . S
C220 C221 1.397 . S
C221 C220 1.397 . S
C221 C222 1.385 1_545 S
C222 H205 0.940 . S
C222 C221 1.385 1_565 S
C222 C223 1.388 1_565 S
C223 H202 0.933 1_545 S
C223 C218 1.391 . S
C223 C222 1.388 1_545 S
P224 O235 1.490 . S
P224 C238 1.812 1_554 S
P224 C244 1.803 . S
P224 C250 1.819 . S
H225 C239 0.941 . S
H226 C240 0.939 . S
H227 C242 0.940 . S
H228 C243 0.940 . S
H229 C245 0.939 . S
H230 C246 0.942 . S
H231 C248 0.940 . S
H232 C249 0.939 . S
H233 C251 0.941 . S
H234 C255 0.939 . S
O235 P224 1.490 . S
H236 C252 0.939 . S
H237 C254 0.940 . S
C238 P224 1.812 1_556 S
C238 C239 1.389 . S
C238 C243 1.391 . S
C239 H225 0.941 . S
C239 C238 1.389 . S
C239 C240 1.397 . S
C240 H226 0.939 . S
C240 C239 1.397 . S
C240 C241 1.378 . S
C241 C240 1.378 . S
C241 C242 1.378 . S
C242 H227 0.940 . S
C242 C241 1.378 . S
C242 C243 1.396 . S
C243 H228 0.940 . S
C243 C238 1.391 . S
C243 C242 1.396 . S
C244 P224 1.803 . S
C244 C245 1.378 . S
C244 C249 1.400 . S
C245 H229 0.939 . S
C245 C244 1.378 . S
C245 C246 1.361 . S
C246 H230 0.942 . S
C246 C245 1.361 . S
C246 C247 1.369 . S
C247 C246 1.369 . S
C247 C248 1.404 . S
C248 H231 0.940 . S
C248 C247 1.404 . S
C248 C249 1.389 . S
C249 H232 0.939 . S
C249 C244 1.400 . S
C249 C248 1.389 . S
C250 P224 1.819 . S
C250 C251 1.391 . S
C250 C255 1.391 . S
C251 H233 0.941 . S
C251 C250 1.391 . S
C251 C252 1.396 . S
C252 H236 0.939 . S
C252 C251 1.396 . S
C252 C253 1.397 . S
C253 C252 1.397 . S
C253 C254 1.385 . S
C254 H237 0.940 . S
C254 C253 1.385 . S
C254 C255 1.388 . S
C255 H234 0.939 . S
C255 C250 1.391 . S
C255 C254 1.388 . S
Sm256 C258 2.846 . S
Sm256 O276 2.543 . S
Sm256 O277 2.450 . S
Sm256 O278 2.681 1_565 S
Sm256 O279 2.464 . S
Sm256 O280 2.396 . S
Sm256 O284 2.386 1_455 S
Sm256 O287 2.408 1_565 S
Sm257 C267 2.846 . S
Sm257 O278 2.386 1_655 S
Sm257 O281 2.408 1_545 S
Sm257 O282 2.543 . S
Sm257 O283 2.450 . S
Sm257 O284 2.681 1_545 S
Sm257 O285 2.464 . S
Sm257 O286 2.396 . S
C258 Sm256 2.846 . S
C258 C259 1.506 . S
C258 O276 1.261 . S
C258 O277 1.242 . S
C259 C258 1.506 . S
C259 C260 1.358 . S
C259 C264 1.382 . S
C260 C259 1.358 . S
C260 C261 1.385 . S
C260 H288 0.930 1_455 S
C261 C260 1.385 . S
C261 C262 1.395 . S
C261 H289 0.913 1_455 S
C262 C261 1.395 . S
C262 C263 1.335 . S
C263 C262 1.335 . S
C263 C264 1.398 . S
C263 H290 0.930 . S
C264 C259 1.382 . S
C264 C263 1.398 . S
C264 H291 0.929 . S
C265 O278 1.271 1_565 S
C265 O279 1.251 . S
C266 O280 1.252 1_655 S
C266 O281 1.272 . S
C267 Sm257 2.846 . S
C267 C268 1.506 . S
C267 O282 1.261 . S
C267 O283 1.242 . S
C268 C267 1.506 . S
C268 C269 1.358 . S
C268 C273 1.382 . S
C269 C268 1.358 . S
C269 C270 1.385 . S
C269 H292 0.930 1_655 S
C270 C269 1.385 . S
C270 C271 1.395 . S
C270 H293 0.904 1_655 S
C271 C270 1.395 . S
C271 C272 1.335 . S
C272 C271 1.335 . S
C272 C273 1.398 . S
C272 H294 0.930 . S
C273 C268 1.382 . S
C273 C272 1.398 . S
C273 H295 0.929 . S
C274 O284 1.271 1_545 S
C274 O285 1.251 . S
C275 O286 1.252 1_455 S
C275 O287 1.272 . S
O276 Sm256 2.543 . S
O276 C258 1.261 . S
O277 Sm256 2.450 . S
O277 C258 1.242 . S
O278 Sm256 2.681 1_545 S
O278 Sm257 2.386 1_455 S
O278 C265 1.271 1_545 S
O279 Sm256 2.464 . S
O279 C265 1.251 . S
O280 Sm256 2.396 . S
O280 C266 1.252 1_455 S
O281 Sm257 2.408 1_565 S
O281 C266 1.272 . S
O282 Sm257 2.543 . S
O282 C267 1.261 . S
O283 Sm257 2.450 . S
O283 C267 1.242 . S
O284 Sm256 2.386 1_655 S
O284 Sm257 2.681 1_565 S
O284 C274 1.271 1_565 S
O285 Sm257 2.464 . S
O285 C274 1.251 . S
O286 Sm257 2.396 . S
O286 C275 1.252 1_655 S
O287 Sm256 2.408 1_545 S
O287 C275 1.272 . S
H288 C260 0.930 1_655 S
H289 C261 0.913 1_655 S
H290 C263 0.930 . S
H291 C264 0.929 . S
H292 C269 0.930 1_455 S
H293 C270 0.904 1_455 S
H294 C272 0.930 . S
H295 C273 0.929 . S
Sm296 C298 2.846 . S
Sm296 O316 2.543 . S
Sm296 O317 2.450 . S
Sm296 O318 2.681 . S
Sm296 O319 2.464 . S
Sm296 O320 2.396 . S
Sm296 O324 2.386 1_545 S
Sm296 O327 2.408 . S
Sm297 C307 2.846 . S
Sm297 O318 2.386 1_565 S
Sm297 O321 2.408 . S
Sm297 O322 2.543 . S
Sm297 O323 2.450 . S
Sm297 O324 2.681 . S
Sm297 O325 2.464 . S
Sm297 O326 2.396 . S
C298 Sm296 2.846 . S
C298 C299 1.506 . S
C298 O316 1.261 . S
C298 O317 1.242 . S
C299 C298 1.506 . S
C299 C300 1.358 . S
C299 C304 1.382 . S
C300 C299 1.358 . S
C300 C301 1.385 . S
C300 H328 0.930 1_545 S
C301 C300 1.385 . S
C301 C302 1.395 . S
C301 H329 0.929 1_545 S
C302 C301 1.395 . S
C302 C303 1.335 . S
C303 C302 1.335 . S
C303 C304 1.398 . S
C303 H330 0.930 . S
C304 C299 1.382 . S
C304 C303 1.398 . S
C304 H331 0.929 . S
C305 O318 1.271 . S
C305 O319 1.251 . S
C306 O320 1.252 1_565 S
C306 O321 1.272 . S
C307 Sm297 2.846 . S
C307 C308 1.506 . S
C307 O322 1.261 . S
C307 O323 1.242 . S
C308 C307 1.506 . S
C308 C309 1.358 . S
C308 C313 1.382 . S
C309 C308 1.358 . S
C309 C310 1.385 . S
C309 H332 0.930 1_565 S
C310 C309 1.385 . S
C310 C311 1.395 . S
C310 H333 0.929 1_565 S
C311 C310 1.395 . S
C311 C312 1.335 . S
C312 C311 1.335 . S
C312 C313 1.398 . S
C312 H334 0.930 . S
C313 C308 1.382 . S
C313 C312 1.398 . S
C313 H335 0.929 . S
C314 O324 1.271 . S
C314 O325 1.251 . S
C315 O326 1.252 1_545 S
C315 O327 1.272 . S
O316 Sm296 2.543 . S
O316 C298 1.261 . S
O317 Sm296 2.450 . S
O317 C298 1.242 . S
O318 Sm296 2.681 . S
O318 Sm297 2.386 1_545 S
O318 C305 1.271 . S
O319 Sm296 2.464 . S
O319 C305 1.251 . S
O320 Sm296 2.396 . S
O320 C306 1.252 1_545 S
O321 Sm297 2.408 . S
O321 C306 1.272 . S
O322 Sm297 2.543 . S
O322 C307 1.261 . S
O323 Sm297 2.450 . S
O323 C307 1.242 . S
O324 Sm296 2.386 1_565 S
O324 Sm297 2.681 . S
O324 C314 1.271 . S
O325 Sm297 2.464 . S
O325 C314 1.251 . S
O326 Sm297 2.396 . S
O326 C315 1.252 1_565 S
O327 Sm296 2.408 . S
O327 C315 1.272 . S
H328 C300 0.930 1_565 S
H329 C301 0.929 1_565 S
H330 C303 0.930 . S
H331 C304 0.929 . S
H332 C309 0.930 1_545 S
H333 C310 0.929 1_545 S
H334 C312 0.930 . S
H335 C313 0.929 . S
Sm336 C338 2.846 . S
Sm336 O356 2.543 . S
Sm336 O357 2.450 . S
Sm336 O358 2.681 . S
Sm336 O359 2.464 . S
Sm336 O360 2.396 . S
Sm336 O364 2.386 . S
Sm336 O367 2.408 . S
Sm337 C347 2.846 . S
Sm337 O358 2.386 . S
Sm337 O361 2.408 . S
Sm337 O362 2.543 . S
Sm337 O363 2.450 . S
Sm337 O364 2.681 . S
Sm337 O365 2.464 . S
Sm337 O366 2.396 . S
C338 Sm336 2.846 . S
C338 C339 1.506 . S
C338 O356 1.261 . S
C338 O357 1.242 . S
C339 C338 1.506 . S
C339 C340 1.358 . S
C339 C344 1.382 . S
C340 C339 1.358 . S
C340 C341 1.385 . S
C340 H368 0.930 . S
C341 C340 1.385 . S
C341 C342 1.395 . S
C341 H369 0.929 . S
C342 C341 1.395 . S
C342 C343 1.335 . S
C343 C342 1.335 . S
C343 C344 1.398 . S
C343 H370 0.930 . S
C344 C339 1.382 . S
C344 C343 1.398 . S
C344 H371 0.929 . S
C345 O358 1.271 . S
C345 O359 1.251 . S
C346 O360 1.252 . S
C346 O361 1.272 . S
C347 Sm337 2.846 . S
C347 C348 1.506 . S
C347 O362 1.261 . S
C347 O363 1.242 . S
C348 C347 1.506 . S
C348 C349 1.358 . S
C348 C353 1.382 . S
C349 C348 1.358 . S
C349 C350 1.385 . S
C349 H372 0.930 . S
C350 C349 1.385 . S
C350 C351 1.395 . S
C350 H373 0.929 . S
C351 C350 1.395 . S
C351 C352 1.335 . S
C352 C351 1.335 . S
C352 C353 1.398 . S
C352 H374 0.930 . S
C353 C348 1.382 . S
C353 C352 1.398 . S
C353 H375 0.929 . S
C354 O364 1.271 . S
C354 O365 1.251 . S
C355 O366 1.252 . S
C355 O367 1.272 . S
O356 Sm336 2.543 . S
O356 C338 1.261 . S
O357 Sm336 2.450 . S
O357 C338 1.242 . S
O358 Sm336 2.681 . S
O358 Sm337 2.386 . S
O358 C345 1.271 . S
O359 Sm336 2.464 . S
O359 C345 1.251 . S
O360 Sm336 2.396 . S
O360 C346 1.252 . S
O361 Sm337 2.408 . S
O361 C346 1.272 . S
O362 Sm337 2.543 . S
O362 C347 1.261 . S
O363 Sm337 2.450 . S
O363 C347 1.242 . S
O364 Sm336 2.386 . S
O364 Sm337 2.681 . S
O364 C354 1.271 . S
O365 Sm337 2.464 . S
O365 C354 1.251 . S
O366 Sm337 2.396 . S
O366 C355 1.252 . S
O367 Sm336 2.408 . S
O367 C355 1.272 . S
H368 C340 0.930 . S
H369 C341 0.929 . S
H370 C343 0.930 . S
H371 C344 0.929 . S
H372 C349 0.930 . S
H373 C350 0.929 . S
H374 C352 0.930 . S
H375 C353 0.929 . S
Sm376 C378 2.846 . S
Sm376 O396 2.543 . S
Sm376 O397 2.450 . S
Sm376 O398 2.681 1_655 S
Sm376 O399 2.464 . S
Sm376 O400 2.396 . S
Sm376 O404 2.386 . S
Sm376 O407 2.408 1_655 S
Sm377 C387 2.846 . S
Sm377 O398 2.386 . S
Sm377 O401 2.408 1_455 S
Sm377 O402 2.543 . S
Sm377 O403 2.450 . S
Sm377 O404 2.681 1_455 S
Sm377 O405 2.464 . S
Sm377 O406 2.396 . S
C378 Sm376 2.846 . S
C378 C379 1.506 . S
C378 O396 1.261 . S
C378 O397 1.242 . S
C379 C378 1.506 . S
C379 C380 1.358 . S
C379 C384 1.382 . S
C380 C379 1.358 . S
C380 C381 1.385 . S
C380 H408 0.930 . S
C381 C380 1.385 . S
C381 C382 1.395 . S
C381 H409 0.929 . S
C382 C381 1.395 . S
C382 C383 1.335 . S
C383 C382 1.335 . S
C383 C384 1.398 . S
C383 H410 0.930 . S
C384 C379 1.382 . S
C384 C383 1.398 . S
C384 H411 0.929 . S
C385 O398 1.262 1_655 S
C385 O399 1.267 . S
C386 O400 1.252 . S
C386 O401 1.272 . S
C387 Sm377 2.846 . S
C387 C388 1.506 . S
C387 O402 1.261 . S
C387 O403 1.242 . S
C388 C387 1.506 . S
C388 C389 1.358 . S
C388 C393 1.382 . S
C389 C388 1.358 . S
C389 C390 1.385 . S
C389 H412 0.930 . S
C390 C389 1.385 . S
C390 C391 1.395 . S
C390 H413 0.929 . S
C391 C390 1.395 . S
C391 C392 1.335 . S
C392 C391 1.335 . S
C392 C393 1.398 . S
C392 H414 0.930 . S
C393 C388 1.382 . S
C393 C392 1.398 . S
C393 H415 0.929 . S
C394 O404 1.259 1_455 S
C394 O405 1.273 . S
C395 O406 1.252 . S
C395 O407 1.272 . S
O396 Sm376 2.543 . S
O396 C378 1.261 . S
O397 Sm376 2.450 . S
O397 C378 1.242 . S
O398 Sm376 2.681 1_455 S
O398 Sm377 2.386 . S
O398 C385 1.262 1_455 S
O399 Sm376 2.464 . S
O399 C385 1.267 . S
O400 Sm376 2.396 . S
O400 C386 1.252 . S
O401 Sm377 2.408 1_655 S
O401 C386 1.272 . S
O402 Sm377 2.543 . S
O402 C387 1.261 . S
O403 Sm377 2.450 . S
O403 C387 1.242 . S
O404 Sm376 2.386 . S
O404 Sm377 2.681 1_655 S
O404 C394 1.259 1_655 S
O405 Sm377 2.464 . S
O405 C394 1.273 . S
O406 Sm377 2.396 . S
O406 C395 1.252 . S
O407 Sm376 2.408 1_455 S
O407 C395 1.272 . S
H408 C380 0.930 . S
H409 C381 0.929 . S
H410 C383 0.930 . S
H411 C384 0.929 . S
H412 C389 0.930 . S
H413 C390 0.929 . S
H414 C392 0.930 . S
H415 C393 0.929 . S
H416 C428 0.930 . S
H417 C430 0.930 . S
H418 C431 0.930 . S
H419 C435 0.959 . S
H420 C435 0.959 . S
H421 C435 0.961 . S
H422 C436 0.960 . S
H423 C436 0.961 . S
H424 C436 0.959 . S
H425 C439 0.929 . S
H426 C440 0.931 . S
H427 C442 0.930 . S
C428 H416 0.930 . S
C428 C429 1.399 1_565 S
C428 C433 1.399 . S
C429 C428 1.399 1_545 S
C429 C430 1.376 . S
C430 H417 0.930 . S
C430 C429 1.376 . S
C430 C431 1.388 . S
C431 H418 0.930 . S
C431 C430 1.388 . S
C431 C432 1.390 . S
C432 C431 1.390 . S
C432 C433 1.394 1_545 S
C432 C438 1.465 . S
C433 C428 1.399 . S
C433 C432 1.394 1_565 S
C433 C434 1.516 . S
C434 C433 1.516 . S
C434 C435 1.502 . S
C434 C436 1.561 . S
C434 C437 1.526 . S
C435 H419 0.959 . S
C435 H420 0.959 . S
C435 H421 0.961 . S
C435 C434 1.502 . S
C436 H422 0.960 . S
C436 H423 0.961 . S
C436 H424 0.959 . S
C436 C434 1.561 . S
C437 C434 1.526 . S
C437 C438 1.396 1_565 S
C437 C442 1.390 . S
C438 C432 1.465 . S
C438 C437 1.396 1_545 S
C438 C439 1.399 . S
C439 H425 0.929 . S
C439 C438 1.399 . S
C439 C440 1.385 . S
C440 H426 0.931 . S
C440 C439 1.385 . S
C440 C441 1.389 . S
C441 C440 1.389 . S
C441 C442 1.387 1_545 S
C442 H427 0.930 . S
C442 C437 1.390 . S
C442 C441 1.387 1_565 S
H443 C455 0.930 . S
H444 C457 0.930 . S
H445 C458 0.930 . S
H446 C462 0.959 . S
H447 C462 0.959 . S
H448 C462 0.961 . S
H449 C463 0.960 . S
H450 C463 0.961 . S
H451 C463 0.959 . S
H452 C466 0.929 . S
H453 C467 0.931 . S
H454 C469 0.930 . S
C455 H443 0.930 . S
C455 C456 1.399 . S
C455 C460 1.399 . S
C456 C455 1.399 . S
C456 C457 1.376 . S
C457 H444 0.930 . S
C457 C456 1.376 . S
C457 C458 1.388 . S
C458 H445 0.930 . S
C458 C457 1.388 . S
C458 C459 1.390 . S
C459 C458 1.390 . S
C459 C460 1.394 . S
C459 C465 1.465 . S
C460 C455 1.399 . S
C460 C459 1.394 . S
C460 C461 1.516 . S
C461 C460 1.516 . S
C461 C462 1.502 . S
C461 C463 1.561 . S
C461 C464 1.526 . S
C462 H446 0.959 . S
C462 H447 0.959 . S
C462 H448 0.961 . S
C462 C461 1.502 . S
C463 H449 0.960 . S
C463 H450 0.961 . S
C463 H451 0.959 . S
C463 C461 1.561 . S
C464 C461 1.526 . S
C464 C465 1.396 . S
C464 C469 1.390 . S
C465 C459 1.465 . S
C465 C464 1.396 . S
C465 C466 1.399 . S
C466 H452 0.929 . S
C466 C465 1.399 . S
C466 C467 1.385 . S
C467 H453 0.931 . S
C467 C466 1.385 . S
C467 C468 1.389 . S
C468 C467 1.389 . S
C468 C469 1.387 . S
C469 H454 0.930 . S
C469 C464 1.390 . S
C469 C468 1.387 . S
H470 C482 0.930 . S
H471 C484 0.930 . S
H472 C485 0.930 . S
H473 C489 0.959 . S
H474 C489 0.959 . S
H475 C489 0.961 . S
H476 C490 0.960 . S
H477 C490 0.961 . S
H478 C490 0.959 . S
H479 C493 0.929 . S
H480 C494 0.931 . S
H481 C496 0.930 . S
C482 H470 0.930 . S
C482 C483 1.399 . S
C482 C487 1.399 . S
C483 C482 1.399 . S
C483 C484 1.376 . S
C484 H471 0.930 . S
C484 C483 1.376 . S
C484 C485 1.388 . S
C485 H472 0.930 . S
C485 C484 1.388 . S
C485 C486 1.390 . S
C486 C485 1.390 . S
C486 C487 1.394 . S
C486 C492 1.465 . S
C487 C482 1.399 . S
C487 C486 1.394 . S
C487 C488 1.516 . S
C488 C487 1.516 . S
C488 C489 1.502 . S
C488 C490 1.561 . S
C488 C491 1.526 . S
C489 H473 0.959 . S
C489 H474 0.959 . S
C489 H475 0.961 . S
C489 C488 1.502 . S
C490 H476 0.960 . S
C490 H477 0.961 . S
C490 H478 0.959 . S
C490 C488 1.561 . S
C491 C488 1.526 . S
C491 C492 1.396 . S
C491 C496 1.390 . S
C492 C486 1.465 . S
C492 C491 1.396 . S
C492 C493 1.399 . S
C493 H479 0.929 . S
C493 C492 1.399 . S
C493 C494 1.385 . S
C494 H480 0.931 . S
C494 C493 1.385 . S
C494 C495 1.389 . S
C495 C494 1.389 . S
C495 C496 1.387 . S
C496 H481 0.930 . S
C496 C491 1.390 . S
C496 C495 1.387 . S
H497 C509 0.930 . S
H498 C511 0.930 . S
H499 C512 0.930 . S
H500 C516 0.959 . S
H501 C516 0.959 . S
H502 C516 0.961 . S
H503 C517 0.960 . S
H504 C517 0.961 . S
H505 C517 0.959 . S
H506 C520 0.929 . S
H507 C521 0.931 . S
H508 C523 0.930 . S
C509 H497 0.930 . S
C509 C510 1.399 1_655 S
C509 C514 1.404 . S
C510 C509 1.399 1_455 S
C510 C511 1.376 . S
C511 H498 0.930 . S
C511 C510 1.376 . S
C511 C512 1.388 . S
C512 H499 0.930 . S
C512 C511 1.388 . S
C512 C513 1.390 . S
C513 C512 1.390 . S
C513 C514 1.381 1_455 S
C513 C519 1.465 . S
C514 C509 1.404 . S
C514 C513 1.381 1_655 S
C514 C515 1.522 . S
C515 C514 1.522 . S
C515 C516 1.502 . S
C515 C517 1.561 1_655 S
C515 C518 1.528 . S
C516 H500 0.959 . S
C516 H501 0.959 . S
C516 H502 0.961 . S
C516 C515 1.502 . S
C517 H503 0.960 . S
C517 H504 0.961 . S
C517 H505 0.959 . S
C517 C515 1.561 1_455 S
C518 C515 1.528 . S
C518 C519 1.391 1_655 S
C518 C523 1.391 . S
C519 C513 1.465 . S
C519 C518 1.391 1_455 S
C519 C520 1.399 . S
C520 H506 0.929 . S
C520 C519 1.399 . S
C520 C521 1.385 . S
C521 H507 0.931 . S
C521 C520 1.385 . S
C521 C522 1.389 . S
C522 C521 1.389 . S
C522 C523 1.387 1_455 S
C523 H508 0.930 . S
C523 C518 1.391 . S
C523 C522 1.387 1_655 S
H524 C536 0.930 . S
H525 C538 0.930 . S
H526 C539 0.930 . S
H527 C543 0.959 . S
H528 C543 0.959 . S
H529 C543 0.961 . S
H530 C544 0.960 . S
H531 C544 0.961 1_556 S
H532 C544 0.959 1_556 S
H533 C547 0.929 . S
H534 C548 0.931 . S
H535 C550 0.930 . S
C536 H524 0.930 . S
C536 C537 1.399 1_565 S
C536 C541 1.399 . S
C537 C536 1.399 1_545 S
C537 C538 1.376 . S
C538 H525 0.930 . S
C538 C537 1.376 . S
C538 C539 1.388 . S
C539 H526 0.930 . S
C539 C538 1.388 . S
C539 C540 1.390 . S
C540 C539 1.390 . S
C540 C541 1.394 1_545 S
C540 C546 1.465 . S
C541 C536 1.399 . S
C541 C540 1.394 1_565 S
C541 C542 1.516 . S
C542 C541 1.516 . S
C542 C543 1.502 . S
C542 C544 1.561 . S
C542 C545 1.526 1_554 S
C543 H527 0.959 . S
C543 H528 0.959 . S
C543 H529 0.961 . S
C543 C542 1.502 . S
C544 H530 0.960 . S
C544 H531 0.961 1_554 S
C544 H532 0.959 1_554 S
C544 C542 1.561 . S
C545 C542 1.526 1_556 S
C545 C546 1.396 1_566 S
C545 C550 1.390 . S
C546 C540 1.465 . S
C546 C545 1.396 1_544 S
C546 C547 1.399 1_554 S
C547 H533 0.929 . S
C547 C546 1.399 1_556 S
C547 C548 1.385 . S
C548 H534 0.931 . S
C548 C547 1.385 . S
C548 C549 1.389 . S
C549 C548 1.389 . S
C549 C550 1.387 1_545 S
C550 H535 0.930 . S
C550 C545 1.390 . S
C550 C549 1.387 1_565 S
H551 C563 0.930 . S
H552 C565 0.930 . S
H553 C566 0.930 . S
H554 C570 0.959 . S
H555 C570 0.959 . S
H556 C570 0.961 . S
H557 C571 0.960 . S
H558 C571 0.961 . S
H559 C571 0.959 . S
H560 C574 0.929 . S
H561 C575 0.931 . S
H562 C577 0.930 . S
C563 H551 0.930 . S
C563 C564 1.399 . S
C563 C568 1.399 . S
C564 C563 1.399 . S
C564 C565 1.376 . S
C565 H552 0.930 . S
C565 C564 1.376 . S
C565 C566 1.388 . S
C566 H553 0.930 . S
C566 C565 1.388 . S
C566 C567 1.390 . S
C567 C566 1.390 . S
C567 C568 1.394 . S
C567 C573 1.465 . S
C568 C563 1.399 . S
C568 C567 1.394 . S
C568 C569 1.516 . S
C569 C568 1.516 . S
C569 C570 1.502 . S
C569 C571 1.561 . S
C569 C572 1.526 . S
C570 H554 0.959 . S
C570 H555 0.959 . S
C570 H556 0.961 . S
C570 C569 1.502 . S
C571 H557 0.960 . S
C571 H558 0.961 . S
C571 H559 0.959 . S
C571 C569 1.561 . S
C572 C569 1.526 . S
C572 C573 1.396 . S
C572 C577 1.390 1_554 S
C573 C567 1.465 . S
C573 C572 1.396 . S
C573 C574 1.399 1_554 S
C574 H560 0.929 . S
C574 C573 1.399 1_556 S
C574 C575 1.385 . S
C575 H561 0.931 . S
C575 C574 1.385 . S
C575 C576 1.389 . S
C576 C575 1.389 . S
C576 C577 1.387 . S
C577 H562 0.930 . S
C577 C572 1.390 1_556 S
C577 C576 1.387 . S
H578 C590 0.930 . S
H579 C592 0.930 . S
H580 C593 0.930 . S
H581 C597 0.959 . S
H582 C597 0.959 . S
H583 C597 0.961 . S
H584 C598 0.960 . S
H585 C598 0.961 . S
H586 C598 0.959 . S
H587 C601 0.929 . S
H588 C602 0.931 . S
H589 C604 0.930 . S
C590 H578 0.930 . S
C590 C591 1.399 . S
C590 C595 1.399 . S
C591 C590 1.399 . S
C591 C592 1.376 . S
C592 H579 0.930 . S
C592 C591 1.376 . S
C592 C593 1.388 . S
C593 H580 0.930 . S
C593 C592 1.388 . S
C593 C594 1.390 . S
C594 C593 1.390 . S
C594 C595 1.394 . S
C594 C600 1.465 . S
C595 C590 1.399 . S
C595 C594 1.394 . S
C595 C596 1.516 . S
C596 C595 1.516 . S
C596 C597 1.502 . S
C596 C598 1.561 . S
C596 C599 1.526 . S
C597 H581 0.959 . S
C597 H582 0.959 . S
C597 H583 0.961 . S
C597 C596 1.502 . S
C598 H584 0.960 . S
C598 H585 0.961 . S
C598 H586 0.959 . S
C598 C596 1.561 . S
C599 C596 1.526 . S
C599 C600 1.396 . S
C599 C604 1.390 1_554 S
C600 C594 1.465 . S
C600 C599 1.396 . S
C600 C601 1.399 1_554 S
C601 H587 0.929 . S
C601 C600 1.399 1_556 S
C601 C602 1.385 . S
C602 H588 0.931 . S
C602 C601 1.385 . S
C602 C603 1.389 . S
C603 C602 1.389 . S
C603 C604 1.387 . S
C604 H589 0.930 . S
C604 C599 1.390 1_556 S
C604 C603 1.387 . S
H605 C617 0.930 . S
H606 C619 0.930 . S
H607 C620 0.930 . S
H608 C624 0.959 . S
H609 C624 0.959 . S
H610 C624 0.961 . S
H611 C625 0.960 . S
H612 C625 0.961 . S
H613 C625 0.959 . S
H614 C628 0.929 . S
H615 C629 0.931 . S
H616 C631 0.930 . S
C617 H605 0.930 . S
C617 C618 1.399 1_455 S
C617 C622 1.399 . S
C618 C617 1.399 1_655 S
C618 C619 1.376 . S
C619 H606 0.930 . S
C619 C618 1.376 . S
C619 C620 1.388 . S
C620 H607 0.930 . S
C620 C619 1.388 . S
C620 C621 1.390 . S
C621 C620 1.390 . S
C621 C622 1.394 1_655 S
C621 C627 1.465 . S
C622 C617 1.399 . S
C622 C621 1.394 1_455 S
C622 C623 1.516 . S
C623 C622 1.516 . S
C623 C624 1.502 . S
C623 C625 1.561 1_455 S
C623 C626 1.526 . S
C624 H608 0.959 . S
C624 H609 0.959 . S
C624 H610 0.961 . S
C624 C623 1.502 . S
C625 H611 0.960 . S
C625 H612 0.961 . S
C625 H613 0.959 . S
C625 C623 1.561 1_655 S
C626 C623 1.526 . S
C626 C627 1.396 1_455 S
C626 C631 1.390 1_554 S
C627 C621 1.465 . S
C627 C626 1.396 1_655 S
C627 C628 1.399 1_554 S
C628 H614 0.929 . S
C628 C627 1.399 1_556 S
C628 C629 1.385 . S
C629 H615 0.931 . S
C629 C628 1.385 . S
C629 C630 1.389 . S
C630 C629 1.389 . S
C630 C631 1.387 1_655 S
C631 H616 0.930 . S
C631 C626 1.390 1_556 S
C631 C630 1.387 1_455 S
H632 C644 0.930 . S
H633 C646 0.930 . S
H634 C647 0.930 . S
H635 C651 0.959 . S
H636 C651 0.959 . S
H637 C651 0.961 . S
H638 C652 0.960 . S
H639 C652 0.961 . S
H640 C652 0.959 . S
H641 C655 0.937 . S
H642 C656 0.931 . S
H643 C658 0.930 . S
C644 H632 0.930 . S
C644 C645 1.399 1_655 S
C644 C649 1.399 . S
C645 C644 1.399 1_455 S
C645 C646 1.376 . S
C646 H633 0.930 . S
C646 C645 1.376 . S
C646 C647 1.388 . S
C647 H634 0.930 . S
C647 C646 1.388 . S
C647 C648 1.390 1_455 S
C648 C647 1.390 1_655 S
C648 C649 1.394 . S
C648 C654 1.465 . S
C649 C644 1.399 . S
C649 C648 1.394 . S
C649 C650 1.516 . S
C650 C649 1.516 . S
C650 C651 1.502 . S
C650 C652 1.561 . S
C650 C653 1.526 . S
C651 H635 0.959 . S
C651 H636 0.959 . S
C651 H637 0.961 . S
C651 C650 1.502 . S
C652 H638 0.960 . S
C652 H639 0.961 . S
C652 H640 0.959 . S
C652 C650 1.561 . S
C653 C650 1.526 . S
C653 C654 1.396 . S
C653 C658 1.390 . S
C654 C648 1.465 . S
C654 C653 1.396 . S
C654 C655 1.395 1_655 S
C655 H641 0.937 . S
C655 C654 1.395 1_455 S
C655 C656 1.381 1_455 S
C656 H642 0.931 . S
C656 C655 1.381 1_655 S
C656 C657 1.389 . S
C657 C656 1.389 . S
C657 C658 1.387 . S
C658 H643 0.930 . S
C658 C653 1.390 . S
C658 C657 1.387 . S
H659 C671 0.930 . S
H660 C673 0.930 . S
H661 C674 0.930 . S
H662 C678 0.959 . S
H663 C678 0.959 . S
H664 C678 0.961 . S
H665 C679 0.960 . S
H666 C679 0.961 . S
H667 C679 0.959 . S
H668 C682 0.960 . S
H669 C683 0.931 . S
H670 C685 0.930 . S
C671 H659 0.930 . S
C671 C672 1.399 1_565 S
C671 C676 1.399 . S
C672 C671 1.399 1_545 S
C672 C673 1.376 . S
C673 H660 0.930 . S
C673 C672 1.376 . S
C673 C674 1.388 . S
C674 H661 0.930 . S
C674 C673 1.388 . S
C674 C675 1.390 1_545 S
C675 C674 1.390 1_565 S
C675 C676 1.394 . S
C675 C681 1.465 . S
C676 C671 1.399 . S
C676 C675 1.394 . S
C676 C677 1.516 . S
C677 C676 1.516 . S
C677 C678 1.502 . S
C677 C679 1.561 . S
C677 C680 1.526 . S
C678 H662 0.959 . S
C678 H663 0.959 . S
C678 H664 0.961 . S
C678 C677 1.502 . S
C679 H665 0.960 . S
C679 H666 0.961 . S
C679 H667 0.959 . S
C679 C677 1.561 . S
C680 C677 1.526 . S
C680 C681 1.396 . S
C680 C685 1.390 . S
C681 C675 1.465 . S
C681 C680 1.396 . S
C681 C682 1.399 . S
C682 H668 0.960 . S
C682 C681 1.399 . S
C682 C683 1.385 . S
C683 H669 0.931 . S
C683 C682 1.385 . S
C683 C684 1.389 . S
C684 C683 1.389 . S
C684 C685 1.387 . S
C685 H670 0.930 . S
C685 C680 1.390 . S
C685 C684 1.387 . S
H686 C698 0.930 . S
H687 C700 0.930 . S
H688 C701 0.930 . S
H689 C705 0.959 . S
H690 C705 0.959 . S
H691 C705 0.961 . S
H692 C706 0.960 . S
H693 C706 0.961 . S
H694 C706 0.959 . S
H695 C709 0.929 . S
H696 C710 0.931 . S
H697 C712 0.930 . S
C698 H686 0.930 . S
C698 C699 1.399 . S
C698 C703 1.399 . S
C699 C698 1.399 . S
C699 C700 1.376 . S
C700 H687 0.930 . S
C700 C699 1.376 . S
C700 C701 1.388 . S
C701 H688 0.930 . S
C701 C700 1.388 . S
C701 C702 1.390 . S
C702 C701 1.390 . S
C702 C703 1.394 . S
C702 C708 1.465 . S
C703 C698 1.399 . S
C703 C702 1.394 . S
C703 C704 1.516 . S
C704 C703 1.516 . S
C704 C705 1.502 . S
C704 C706 1.561 . S
C704 C707 1.526 . S
C705 H689 0.959 . S
C705 H690 0.959 . S
C705 H691 0.961 . S
C705 C704 1.502 . S
C706 H692 0.960 . S
C706 H693 0.961 . S
C706 H694 0.959 . S
C706 C704 1.561 . S
C707 C704 1.526 . S
C707 C708 1.396 . S
C707 C712 1.390 . S
C708 C702 1.465 . S
C708 C707 1.396 . S
C708 C709 1.399 . S
C709 H695 0.929 . S
C709 C708 1.399 . S
C709 C710 1.385 . S
C710 H696 0.931 . S
C710 C709 1.385 . S
C710 C711 1.389 . S
C711 C710 1.389 . S
C711 C712 1.387 . S
C712 H697 0.930 . S
C712 C707 1.390 . S
C712 C711 1.387 . S
H713 C725 0.930 . S
H714 C727 0.930 . S
H715 C728 0.930 . S
H716 C732 0.959 . S
H717 C732 0.959 . S
H718 C732 0.961 . S
H719 C733 0.960 . S
H720 C733 0.961 . S
H721 C733 0.959 . S
H722 C736 0.929 . S
H723 C737 0.931 . S
H724 C739 0.930 . S
C725 H713 0.930 . S
C725 C726 1.399 . S
C725 C730 1.399 . S
C726 C725 1.399 . S
C726 C727 1.376 . S
C727 H714 0.930 . S
C727 C726 1.376 . S
C727 C728 1.388 . S
C728 H715 0.930 . S
C728 C727 1.388 . S
C728 C729 1.390 . S
C729 C728 1.390 . S
C729 C730 1.394 . S
C729 C735 1.465 . S
C730 C725 1.399 . S
C730 C729 1.394 . S
C730 C731 1.516 . S
C731 C730 1.516 . S
C731 C732 1.502 . S
C731 C733 1.561 . S
C731 C734 1.526 . S
C732 H716 0.959 . S
C732 H717 0.959 . S
C732 H718 0.961 . S
C732 C731 1.502 . S
C733 H719 0.960 . S
C733 H720 0.961 . S
C733 H721 0.959 . S
C733 C731 1.561 . S
C734 C731 1.526 . S
C734 C735 1.396 . S
C734 C739 1.390 . S
C735 C729 1.465 . S
C735 C734 1.396 . S
C735 C736 1.399 . S
C736 H722 0.929 . S
C736 C735 1.399 . S
C736 C737 1.385 . S
C737 H723 0.931 . S
C737 C736 1.385 . S
C737 C738 1.389 . S
C738 C737 1.389 . S
C738 C739 1.387 . S
C739 H724 0.930 . S
C739 C734 1.390 . S
C739 C738 1.387 . S
H740 C752 0.930 1_655 S
H741 C754 0.930 . S
H742 C755 0.930 . S
H743 C759 0.959 . S
H744 C759 0.960 1_455 S
H745 C759 0.961 . S
H746 C760 0.960 . S
H747 C760 0.961 . S
H748 C760 0.959 . S
H749 C763 0.929 . S
H750 C764 0.931 . S
H751 C766 0.930 . S
C752 H740 0.930 1_455 S
C752 C753 1.396 1_455 S
C752 C757 1.399 . S
C753 C752 1.396 1_655 S
C753 C754 1.362 1_655 S
C754 H741 0.930 . S
C754 C753 1.362 1_455 S
C754 C755 1.388 . S
C755 H742 0.930 . S
C755 C754 1.388 . S
C755 C756 1.390 . S
C756 C755 1.390 . S
C756 C757 1.394 . S
C756 C762 1.465 . S
C757 C752 1.399 . S
C757 C756 1.394 . S
C757 C758 1.516 . S
C758 C757 1.516 . S
C758 C759 1.502 1_455 S
C758 C760 1.561 . S
C758 C761 1.526 . S
C759 H743 0.959 . S
C759 H744 0.960 1_655 S
C759 H745 0.961 . S
C759 C758 1.502 1_655 S
C760 H746 0.960 . S
C760 H747 0.961 . S
C760 H748 0.959 . S
C760 C758 1.561 . S
C761 C758 1.526 . S
C761 C762 1.396 . S
C761 C766 1.390 . S
C762 C756 1.465 . S
C762 C761 1.396 . S
C762 C763 1.399 1_554 S
C763 H749 0.929 . S
C763 C762 1.399 1_556 S
C763 C764 1.385 . S
C764 H750 0.931 . S
C764 C763 1.385 . S
C764 C765 1.389 . S
C765 C764 1.389 . S
C765 C766 1.387 1_556 S
C766 H751 0.930 . S
C766 C761 1.390 . S
C766 C765 1.387 1_554 S
H767 C779 0.930 . S
H768 C781 0.930 . S
H769 C782 0.930 . S
H770 C786 0.959 . S
H771 C786 0.959 . S
H772 C786 0.961 . S
H773 C787 0.960 . S
H774 C787 0.961 . S
H775 C787 0.959 . S
H776 C790 0.929 . S
H777 C791 0.931 . S
H778 C793 0.930 . S
C779 H767 0.930 . S
C779 C780 1.399 . S
C779 C784 1.399 1_565 S
C780 C779 1.399 . S
C780 C781 1.374 1_565 S
C781 H768 0.930 . S
C781 C780 1.374 1_545 S
C781 C782 1.388 . S
C782 H769 0.930 . S
C782 C781 1.388 . S
C782 C783 1.390 . S
C783 C782 1.390 . S
C783 C784 1.394 . S
C783 C789 1.465 . S
C784 C779 1.399 1_545 S
C784 C783 1.394 . S
C784 C785 1.516 . S
C785 C784 1.516 . S
C785 C786 1.502 1_545 S
C785 C787 1.561 . S
C785 C788 1.526 . S
C786 H770 0.959 . S
C786 H771 0.959 . S
C786 H772 0.961 . S
C786 C785 1.502 1_565 S
C787 H773 0.960 . S
C787 H774 0.961 . S
C787 H775 0.959 . S
C787 C785 1.561 . S
C788 C785 1.526 . S
C788 C789 1.396 . S
C788 C793 1.390 . S
C789 C783 1.465 . S
C789 C788 1.396 . S
C789 C790 1.399 1_554 S
C790 H776 0.929 . S
C790 C789 1.399 1_556 S
C790 C791 1.385 . S
C791 H777 0.931 . S
C791 C790 1.385 . S
C791 C792 1.389 . S
C792 C791 1.389 . S
C792 C793 1.387 1_556 S
C793 H778 0.930 . S
C793 C788 1.390 . S
C793 C792 1.387 1_554 S
H794 C806 0.930 . S
H795 C808 0.930 . S
H796 C809 0.930 . S
H797 C813 0.959 . S
H798 C813 0.959 . S
H799 C813 0.961 . S
H800 C814 0.960 . S
H801 C814 0.961 . S
H802 C814 0.959 . S
H803 C817 0.929 . S
H804 C818 0.931 . S
H805 C820 0.930 . S
C806 H794 0.930 . S
C806 C807 1.399 . S
C806 C811 1.399 . S
C807 C806 1.399 . S
C807 C808 1.376 . S
C808 H795 0.930 . S
C808 C807 1.376 . S
C808 C809 1.388 . S
C809 H796 0.930 . S
C809 C808 1.388 . S
C809 C810 1.390 . S
C810 C809 1.390 . S
C810 C811 1.394 . S
C810 C816 1.465 . S
C811 C806 1.399 . S
C811 C810 1.394 . S
C811 C812 1.516 . S
C812 C811 1.516 . S
C812 C813 1.502 1_554 S
C812 C814 1.561 1_554 S
C812 C815 1.526 . S
C813 H797 0.959 . S
C813 H798 0.959 . S
C813 H799 0.961 . S
C813 C812 1.502 1_556 S
C814 H800 0.960 . S
C814 H801 0.961 . S
C814 H802 0.959 . S
C814 C812 1.561 1_556 S
C815 C812 1.526 . S
C815 C816 1.396 . S
C815 C820 1.390 1_554 S
C816 C810 1.465 . S
C816 C815 1.396 . S
C816 C817 1.399 . S
C817 H803 0.929 . S
C817 C816 1.399 . S
C817 C818 1.385 . S
C818 H804 0.931 . S
C818 C817 1.385 . S
C818 C819 1.389 1_554 S
C819 C818 1.389 1_556 S
C819 C820 1.387 . S
C820 H805 0.930 . S
C820 C815 1.390 1_556 S
C820 C819 1.387 . S
H821 C833 0.930 . S
H822 C835 0.930 . S
H823 C836 0.930 1_556 S
H824 C840 0.959 . S
H825 C840 0.959 . S
H826 C840 0.961 . S
H827 C841 0.960 . S
H828 C841 0.961 . S
H829 C841 0.959 . S
H830 C844 0.929 . S
H831 C845 0.931 . S
H832 C847 0.930 . S
C833 H821 0.930 . S
C833 C834 1.399 . S
C833 C838 1.399 . S
C834 C833 1.399 . S
C834 C835 1.376 . S
C835 H822 0.930 . S
C835 C834 1.376 . S
C835 C836 1.388 . S
C836 H823 0.930 1_554 S
C836 C835 1.388 . S
C836 C837 1.390 . S
C837 C836 1.390 . S
C837 C838 1.394 . S
C837 C843 1.465 . S
C838 C833 1.399 . S
C838 C837 1.394 . S
C838 C839 1.516 . S
C839 C838 1.516 . S
C839 C840 1.502 . S
C839 C841 1.561 . S
C839 C842 1.526 . S
C840 H824 0.959 . S
C840 H825 0.959 . S
C840 H826 0.961 . S
C840 C839 1.502 . S
C841 H827 0.960 . S
C841 H828 0.961 . S
C841 H829 0.959 . S
C841 C839 1.561 . S
C842 C839 1.526 . S
C842 C843 1.396 . S
C842 C847 1.390 . S
C843 C837 1.465 . S
C843 C842 1.396 . S
C843 C844 1.399 1_554 S
C844 H830 0.929 . S
C844 C843 1.399 1_556 S
C844 C845 1.385 . S
C845 H831 0.931 . S
C845 C844 1.385 . S
C845 C846 1.389 . S
C846 C845 1.389 . S
C846 C847 1.387 1_556 S
C847 H832 0.930 . S
C847 C842 1.390 . S
C847 C846 1.387 1_554 S
H848 C860 0.930 . S
H849 C862 0.930 . S
H850 C863 0.930 . S
H851 C867 0.959 . S
H852 C867 0.959 . S
H853 C867 0.961 . S
H854 C868 0.960 . S
H855 C868 0.961 . S
H856 C868 0.959 1_655 S
H857 C871 0.929 . S
H858 C872 0.931 . S
H859 C874 0.930 . S
C860 H848 0.930 . S
C860 C861 1.408 . S
C860 C865 1.399 . S
C861 C860 1.408 . S
C861 C862 1.367 1_455 S
C862 H849 0.930 . S
C862 C861 1.367 1_655 S
C862 C863 1.388 . S
C863 H850 0.930 . S
C863 C862 1.388 . S
C863 C864 1.390 . S
C864 C863 1.390 . S
C864 C865 1.394 1_655 S
C864 C870 1.467 . S
C865 C860 1.399 . S
C865 C864 1.394 1_455 S
C865 C866 1.516 . S
C866 C865 1.516 . S
C866 C867 1.502 . S
C866 C868 1.561 . S
C866 C869 1.526 . S
C867 H851 0.959 . S
C867 H852 0.959 . S
C867 H853 0.961 . S
C867 C866 1.502 . S
C868 H854 0.960 . S
C868 H855 0.961 . S
C868 H856 0.959 1_455 S
C868 C866 1.561 . S
C869 C866 1.526 . S
C869 C870 1.386 1_455 S
C869 C874 1.390 . S
C870 C864 1.467 . S
C870 C869 1.386 1_655 S
C870 C871 1.406 . S
C871 H857 0.929 . S
C871 C870 1.406 . S
C871 C872 1.385 . S
C872 H858 0.931 . S
C872 C871 1.385 . S
C872 C873 1.389 1_655 S
C873 C872 1.389 1_455 S
C873 C874 1.387 . S
C874 H859 0.930 . S
C874 C869 1.390 . S
C874 C873 1.387 . S
H875 C887 0.930 . S
H876 C889 0.930 . S
H877 C890 0.930 . S
H878 C894 0.959 . S
H879 C894 0.959 . S
H880 C894 0.961 . S
H881 C895 0.960 . S
H882 C895 0.961 . S
H883 C895 0.959 1_565 S
H884 C898 0.929 . S
H885 C899 0.931 . S
H886 C901 0.930 . S
C887 H875 0.930 . S
C887 C888 1.410 . S
C887 C892 1.399 . S
C888 C887 1.410 . S
C888 C889 1.364 1_545 S
C889 H876 0.930 . S
C889 C888 1.364 1_565 S
C889 C890 1.388 . S
C890 H877 0.930 . S
C890 C889 1.388 . S
C890 C891 1.390 . S
C891 C890 1.390 . S
C891 C892 1.394 1_565 S
C891 C897 1.465 1_565 S
C892 C887 1.399 . S
C892 C891 1.394 1_545 S
C892 C893 1.516 . S
C893 C892 1.516 . S
C893 C894 1.502 . S
C893 C895 1.561 . S
C893 C896 1.526 . S
C894 H878 0.959 . S
C894 H879 0.959 . S
C894 H880 0.961 . S
C894 C893 1.502 . S
C895 H881 0.960 . S
C895 H882 0.961 . S
C895 H883 0.959 1_545 S
C895 C893 1.561 . S
C896 C893 1.526 . S
C896 C897 1.396 . S
C896 C901 1.390 . S
C897 C891 1.465 1_545 S
C897 C896 1.396 . S
C897 C898 1.399 1_545 S
C898 H884 0.929 . S
C898 C897 1.399 1_565 S
C898 C899 1.385 . S
C899 H885 0.931 . S
C899 C898 1.385 . S
C899 C900 1.389 1_565 S
C900 C899 1.389 1_545 S
C900 C901 1.387 . S
C901 H886 0.930 . S
C901 C896 1.390 . S
C901 C900 1.387 . S
H902 C914 0.930 . S
H903 C916 0.930 . S
H904 C917 0.930 . S
H905 C921 0.959 . S
H906 C921 0.959 . S
H907 C921 0.961 . S
H908 C922 0.960 . S
H909 C922 0.961 . S
H910 C922 0.959 . S
H911 C925 0.929 . S
H912 C926 0.931 . S
H913 C928 0.930 . S
C914 H902 0.930 . S
C914 C915 1.399 . S
C914 C919 1.399 . S
C915 C914 1.399 . S
C915 C916 1.376 . S
C916 H903 0.930 . S
C916 C915 1.376 . S
C916 C917 1.388 . S
C917 H904 0.930 . S
C917 C916 1.388 . S
C917 C918 1.390 . S
C918 C917 1.390 . S
C918 C919 1.394 . S
C918 C924 1.465 . S
C919 C914 1.399 . S
C919 C918 1.394 . S
C919 C920 1.516 . S
C920 C919 1.516 . S
C920 C921 1.502 . S
C920 C922 1.561 . S
C920 C923 1.526 . S
C921 H905 0.959 . S
C921 H906 0.959 . S
C921 H907 0.961 . S
C921 C920 1.502 . S
C922 H908 0.960 . S
C922 H909 0.961 . S
C922 H910 0.959 . S
C922 C920 1.561 . S
C923 C920 1.526 . S
C923 C924 1.396 . S
C923 C928 1.390 . S
C924 C918 1.465 . S
C924 C923 1.396 . S
C924 C925 1.399 . S
C925 H911 0.929 . S
C925 C924 1.399 . S
C925 C926 1.385 . S
C926 H912 0.931 . S
C926 C925 1.385 . S
C926 C927 1.389 . S
C927 C926 1.389 . S
C927 C928 1.387 . S
C928 H913 0.930 . S
C928 C923 1.390 . S
C928 C927 1.387 . S
H929 C941 0.930 . S
H930 C943 0.930 . S
H931 C944 0.930 . S
H932 C948 0.959 . S
H933 C948 0.959 . S
H934 C948 0.961 . S
H935 C949 0.960 . S
H936 C949 0.961 . S
H937 C949 0.959 . S
H938 C952 0.929 . S
H939 C953 0.931 . S
H940 C955 0.930 . S
C941 H929 0.930 . S
C941 C942 1.399 . S
C941 C946 1.399 . S
C942 C941 1.399 . S
C942 C943 1.376 . S
C943 H930 0.930 . S
C943 C942 1.376 . S
C943 C944 1.388 . S
C944 H931 0.930 . S
C944 C943 1.388 . S
C944 C945 1.390 . S
C945 C944 1.390 . S
C945 C946 1.394 . S
C945 C951 1.465 . S
C946 C941 1.399 . S
C946 C945 1.394 . S
C946 C947 1.516 . S
C947 C946 1.516 . S
C947 C948 1.502 . S
C947 C949 1.561 . S
C947 C950 1.526 . S
C948 H932 0.959 . S
C948 H933 0.959 . S
C948 H934 0.961 . S
C948 C947 1.502 . S
C949 H935 0.960 . S
C949 H936 0.961 . S
C949 H937 0.959 . S
C949 C947 1.561 . S
C950 C947 1.526 . S
C950 C951 1.396 . S
C950 C955 1.390 . S
C951 C945 1.465 . S
C951 C950 1.396 . S
C951 C952 1.399 . S
C952 H938 0.929 . S
C952 C951 1.399 . S
C952 C953 1.385 . S
C953 H939 0.931 . S
C953 C952 1.385 . S
C953 C954 1.389 . S
C954 C953 1.389 . S
C954 C955 1.387 . S
C955 H940 0.930 . S
C955 C950 1.390 . S
C955 C954 1.387 . S
H956 C968 0.930 . S
H957 C970 0.930 . S
H958 C971 0.930 . S
H959 C975 0.959 . S
H960 C975 0.959 . S
H961 C975 0.961 . S
H962 C976 0.960 . S
H963 C976 0.961 . S
H964 C976 0.959 1_455 S
H965 C979 0.929 . S
H966 C980 0.931 . S
H967 C982 0.930 . S
C968 H956 0.930 . S
C968 C969 1.408 . S
C968 C973 1.399 . S
C969 C968 1.408 . S
C969 C970 1.367 1_655 S
C970 H957 0.930 . S
C970 C969 1.367 1_455 S
C970 C971 1.388 . S
C971 H958 0.930 . S
C971 C970 1.388 . S
C971 C972 1.390 . S
C972 C971 1.390 . S
C972 C973 1.394 1_455 S
C972 C978 1.468 . S
C973 C968 1.399 . S
C973 C972 1.394 1_655 S
C973 C974 1.516 . S
C974 C973 1.516 . S
C974 C975 1.502 . S
C974 C976 1.561 . S
C974 C977 1.526 . S
C975 H959 0.959 . S
C975 H960 0.959 . S
C975 H961 0.961 . S
C975 C974 1.502 . S
C976 H962 0.960 . S
C976 H963 0.961 . S
C976 H964 0.959 1_655 S
C976 C974 1.561 . S
C977 C974 1.526 . S
C977 C978 1.382 1_655 S
C977 C982 1.390 . S
C978 C972 1.468 . S
C978 C977 1.382 1_455 S
C978 C979 1.408 . S
C979 H965 0.929 . S
C979 C978 1.408 . S
C979 C980 1.385 . S
C980 H966 0.931 . S
C980 C979 1.385 . S
C980 C981 1.389 1_455 S
C981 C980 1.389 1_655 S
C981 C982 1.387 . S
C982 H967 0.930 . S
C982 C977 1.390 . S
C982 C981 1.387 . S
H983 C995 0.930 . S
H984 C997 0.930 . S
H985 C998 0.930 . S
H986 C1002 0.959 . S
H987 C1002 0.959 . S
H988 C1002 0.961 . S
H989 C1003 0.960 . S
H990 C1003 0.961 . S
H991 C1003 0.959 . S
H992 C1006 0.929 . S
H993 C1007 0.931 . S
H994 C1009 0.930 . S
C995 H983 0.930 . S
C995 C996 1.399 1_545 S
C995 C1000 1.399 . S
C996 C995 1.399 1_565 S
C996 C997 1.376 . S
C997 H984 0.930 . S
C997 C996 1.376 . S
C997 C998 1.388 . S
C998 H985 0.930 . S
C998 C997 1.388 . S
C998 C999 1.390 . S
C999 C998 1.390 . S
C999 C1000 1.394 1_565 S
C999 C1005 1.465 . S
C1000 C995 1.399 . S
C1000 C999 1.394 1_545 S
C1000 C1001 1.516 . S
C1001 C1000 1.516 . S
C1001 C1002 1.502 . S
C1001 C1003 1.561 . S
C1001 C1004 1.526 . S
C1002 H986 0.959 . S
C1002 H987 0.959 . S
C1002 H988 0.961 . S
C1002 C1001 1.502 . S
C1003 H989 0.960 . S
C1003 H990 0.961 . S
C1003 H991 0.959 . S
C1003 C1001 1.561 . S
C1004 C1001 1.526 . S
C1004 C1005 1.396 1_545 S
C1004 C1009 1.390 . S
C1005 C999 1.465 . S
C1005 C1004 1.396 1_565 S
C1005 C1006 1.399 . S
C1006 H992 0.929 . S
C1006 C1005 1.399 . S
C1006 C1007 1.385 . S
C1007 H993 0.931 . S
C1007 C1006 1.385 . S
C1007 C1008 1.389 . S
C1008 C1007 1.389 . S
C1008 C1009 1.387 1_565 S
C1009 H994 0.930 . S
C1009 C1004 1.390 . S
C1009 C1008 1.387 1_545 S
H1010 C1022 0.930 . S
H1011 C1024 0.930 . S
H1012 C1025 0.930 . S
H1013 C1029 0.959 . S
H1014 C1029 0.959 . S
H1015 C1029 0.961 . S
H1016 C1030 0.960 . S
H1017 C1030 0.961 . S
H1018 C1030 0.959 . S
H1019 C1033 0.929 . S
H1020 C1034 0.931 . S
H1021 C1036 0.930 . S
C1022 H1010 0.930 . S
C1022 C1023 1.399 . S
C1022 C1027 1.399 . S
C1023 C1022 1.399 . S
C1023 C1024 1.376 . S
C1024 H1011 0.930 . S
C1024 C1023 1.376 . S
C1024 C1025 1.388 . S
C1025 H1012 0.930 . S
C1025 C1024 1.388 . S
C1025 C1026 1.390 . S
C1026 C1025 1.390 . S
C1026 C1027 1.394 . S
C1026 C1032 1.465 . S
C1027 C1022 1.399 . S
C1027 C1026 1.394 . S
C1027 C1028 1.516 . S
C1028 C1027 1.516 . S
C1028 C1029 1.502 . S
C1028 C1030 1.561 . S
C1028 C1031 1.526 . S
C1029 H1013 0.959 . S
C1029 H1014 0.959 . S
C1029 H1015 0.961 . S
C1029 C1028 1.502 . S
C1030 H1016 0.960 . S
C1030 H1017 0.961 . S
C1030 H1018 0.959 . S
C1030 C1028 1.561 . S
C1031 C1028 1.526 . S
C1031 C1032 1.396 . S
C1031 C1036 1.390 . S
C1032 C1026 1.465 . S
C1032 C1031 1.396 . S
C1032 C1033 1.399 . S
C1033 H1019 0.929 . S
C1033 C1032 1.399 . S
C1033 C1034 1.385 . S
C1034 H1020 0.931 . S
C1034 C1033 1.385 . S
C1034 C1035 1.389 . S
C1035 C1034 1.389 . S
C1035 C1036 1.387 . S
C1036 H1021 0.930 . S
C1036 C1031 1.390 . S
C1036 C1035 1.387 . S
H1037 C1049 0.930 . S
H1038 C1051 0.930 . S
H1039 C1052 0.930 . S
H1040 C1056 0.959 . S
H1041 C1056 0.959 . S
H1042 C1056 0.961 . S
H1043 C1057 0.960 . S
H1044 C1057 0.961 . S
H1045 C1057 0.959 . S
H1046 C1060 0.929 . S
H1047 C1061 0.931 . S
H1048 C1063 0.930 . S
C1049 H1037 0.930 . S
C1049 C1050 1.399 . S
C1049 C1054 1.399 . S
C1050 C1049 1.399 . S
C1050 C1051 1.376 . S
C1051 H1038 0.930 . S
C1051 C1050 1.376 . S
C1051 C1052 1.388 . S
C1052 H1039 0.930 . S
C1052 C1051 1.388 . S
C1052 C1053 1.390 . S
C1053 C1052 1.390 . S
C1053 C1054 1.394 . S
C1053 C1059 1.465 . S
C1054 C1049 1.399 . S
C1054 C1053 1.394 . S
C1054 C1055 1.516 . S
C1055 C1054 1.516 . S
C1055 C1056 1.502 . S
C1055 C1057 1.561 . S
C1055 C1058 1.526 . S
C1056 H1040 0.959 . S
C1056 H1041 0.959 . S
C1056 H1042 0.961 . S
C1056 C1055 1.502 . S
C1057 H1043 0.960 . S
C1057 H1044 0.961 . S
C1057 H1045 0.959 . S
C1057 C1055 1.561 . S
C1058 C1055 1.526 . S
C1058 C1059 1.396 . S
C1058 C1063 1.390 . S
C1059 C1053 1.465 . S
C1059 C1058 1.396 . S
C1059 C1060 1.399 . S
C1060 H1046 0.929 . S
C1060 C1059 1.399 . S
C1060 C1061 1.385 . S
C1061 H1047 0.931 . S
C1061 C1060 1.385 . S
C1061 C1062 1.389 . S
C1062 C1061 1.389 . S
C1062 C1063 1.387 . S
C1063 H1048 0.930 . S
C1063 C1058 1.390 . S
C1063 C1062 1.387 . S
C429 C215 1.957 . S
C441 C265 2.171 1_545 S
C468 C305 2.171 . S
C456 C247 2.025 . S
C495 C345 2.189 . S
C483 C151 1.964 . S
C522 C385 2.167 1_455 S
C510 C183 2.013 . S
C549 C274 2.155 . S
C537 C87 1.970 . S
C564 C119 2.011 . S
C576 C314 2.186 . S
C591 C23 1.982 . S
C603 C354 2.168 . S
C618 C55 1.998 1_655 S
C630 C394 2.173 1_655 S
C657 C271 0.361 . S
C645 C189 0.385 . S
C684 C311 0.417 . S
C672 C221 0.435 . S
C711 C351 0.570 . S
C699 C253 0.445 . S
C726 C157 0.456 . S
C738 C391 0.485 . S
C753 C61 0.490 1_655 S
C765 C262 0.521 . S
C792 C302 0.546 . S
C780 C93 0.475 1_565 S
C819 C342 0.485 . S
C807 C125 0.562 . S
C834 C29 0.529 . S
C846 C382 0.507 . S
C861 C177 2.538 . S
C873 C275 2.799 . S
C888 C209 2.517 . S
C900 C315 2.782 . S
C927 C355 2.773 . S
C915 C241 2.501 . S
C954 C395 2.822 . S
C942 C145 2.459 . S
C969 C49 2.495 1_655 S
C981 C266 2.814 . S
C1008 C306 2.810 . S
C996 C81 2.503 1_565 S
C1035 C346 2.790 . S
C1023 C113 2.540 . S
C1050 C17 2.502 . S
C1062 C386 2.800 . S
