# Generated by pormake.
# Topology zzz, (3,6)-cn, num edge types: 1
# Building blocks:
#     Node 0, Type 0, BuildingBlock: PAMTOO_clean_linker_0, # of connection points: 3
#     Node 1, Type 0, BuildingBlock: PAMTOO_clean_linker_0, # of connection points: 3
#     Node 2, Type 0, BuildingBlock: PAMTOO_clean_linker_0, # of connection points: 3
#     Node 3, Type 0, BuildingBlock: PAMTOO_clean_linker_0, # of connection points: 3
#     Node 4, Type 0, BuildingBlock: PAMTOO_clean_linker_0, # of connection points: 3
#     Node 5, Type 0, BuildingBlock: PAMTOO_clean_linker_0, # of connection points: 3
#     Node 6, Type 0, BuildingBlock: PAMTOO_clean_linker_0, # of connection points: 3
#     Node 7, Type 0, BuildingBlock: PAMTOO_clean_linker_0, # of connection points: 3
#     Node 8, Type 1, BuildingBlock: MIFKUJ_clean_sbu_0, # of connection points: 6
#     Node 9, Type 1, BuildingBlock: MIFKUJ_clean_sbu_0, # of connection points: 6
#     Node 10, Type 1, BuildingBlock: MIFKUJ_clean_sbu_0, # of connection points: 6
#     Node 11, Type 1, BuildingBlock: MIFKUJ_clean_sbu_0, # of connection points: 6
#     Edge 12, Type (0, 1), BuildingBlock: CIFDUS_clean_linker_0, # of connection points: 2
#     Edge 13, Type (0, 1), BuildingBlock: CIFDUS_clean_linker_0, # of connection points: 2
#     Edge 14, Type (0, 1), BuildingBlock: CIFDUS_clean_linker_0, # of connection points: 2
#     Edge 15, Type (0, 1), BuildingBlock: CIFDUS_clean_linker_0, # of connection points: 2
#     Edge 16, Type (0, 1), BuildingBlock: CIFDUS_clean_linker_0, # of connection points: 2
#     Edge 17, Type (0, 1), BuildingBlock: CIFDUS_clean_linker_0, # of connection points: 2
#     Edge 18, Type (0, 1), BuildingBlock: CIFDUS_clean_linker_0, # of connection points: 2
#     Edge 19, Type (0, 1), BuildingBlock: CIFDUS_clean_linker_0, # of connection points: 2
#     Edge 20, Type (0, 1), BuildingBlock: CIFDUS_clean_linker_0, # of connection points: 2
#     Edge 21, Type (0, 1), BuildingBlock: CIFDUS_clean_linker_0, # of connection points: 2
#     Edge 22, Type (0, 1), BuildingBlock: CIFDUS_clean_linker_0, # of connection points: 2
#     Edge 23, Type (0, 1), BuildingBlock: CIFDUS_clean_linker_0, # of connection points: 2
#     Edge 24, Type (0, 1), BuildingBlock: CIFDUS_clean_linker_0, # of connection points: 2
#     Edge 25, Type (0, 1), BuildingBlock: CIFDUS_clean_linker_0, # of connection points: 2
#     Edge 26, Type (0, 1), BuildingBlock: CIFDUS_clean_linker_0, # of connection points: 2
#     Edge 27, Type (0, 1), BuildingBlock: CIFDUS_clean_linker_0, # of connection points: 2
#     Edge 28, Type (0, 1), BuildingBlock: CIFDUS_clean_linker_0, # of connection points: 2
#     Edge 29, Type (0, 1), BuildingBlock: CIFDUS_clean_linker_0, # of connection points: 2
#     Edge 30, Type (0, 1), BuildingBlock: CIFDUS_clean_linker_0, # of connection points: 2
#     Edge 31, Type (0, 1), BuildingBlock: CIFDUS_clean_linker_0, # of connection points: 2
#     Edge 32, Type (0, 1), BuildingBlock: CIFDUS_clean_linker_0, # of connection points: 2
#     Edge 33, Type (0, 1), BuildingBlock: CIFDUS_clean_linker_0, # of connection points: 2
#     Edge 34, Type (0, 1), BuildingBlock: CIFDUS_clean_linker_0, # of connection points: 2
#     Edge 35, Type (0, 1), BuildingBlock: CIFDUS_clean_linker_0, # of connection points: 2
# Relax obj value: 0.118
# Max RMSD: 0.121
# Mean RMSD: 0.083
data_MOF--net-zzz--node1-MIFKUJ_clean_sbu_0--node2-PAMTOO_clean_linker_0--edge1-CIFDUS_clean_linker_0
_symmetry_space_group_name_H-M    P1
_symmetry_Int_Tables_number       1
_symmetry_cell_setting            triclinic
loop_
_symmetry_equiv_pos_as_xyz
'x, y, z'
_cell_length_a     44.291311
_cell_length_b     44.073357
_cell_length_c     14.426561
_cell_angle_alpha  89.837943
_cell_angle_beta   90.016022
_cell_angle_gamma 90.006522
loop_
_atom_site_label
_atom_site_type_symbol
_atom_site_fract_x
_atom_site_fract_y
_atom_site_fract_z
_atom_type_partial_charge
H0 H 0.8161 0.50736 0.08584 0.0
H1 H 0.73523 0.50688 0.92105 0.0
H2 H 0.7295 0.50774 0.21953 0.0
H3 H 0.6679 0.47828 0.11915 0.0
C4 C 0.68171 0.48109 0.05543 0.0
O5 O 0.6984 0.50748 0.06287 0.0
H6 H 0.69661 0.46075 0.05082 0.0
C7 C 0.79163 0.5071 0.08096 0.0
C8 C 0.77462 0.50745 0.16231 0.0
C9 C 0.77787 0.50635 -0.00611 0.0
C10 C 0.74629 0.50721 -0.01195 0.0
C11 C 0.72883 0.50757 0.06937 0.0
C12 C 0.74299 0.50775 0.15691 0.0
H13 H 0.94805 0.80299 0.08036 0.0
H14 H 0.9598 0.72068 0.92855 0.0
H15 H 0.9757 0.72148 0.22238 0.0
H16 H 0.01767 0.6768 0.11991 0.0
C17 C 0.00602 0.68094 0.05278 0.0
O18 O 0.9762 0.68807 0.07122 0.0
H19 H 0.01778 0.70009 0.01738 0.0
C20 C 0.95159 0.77863 0.08139 0.0
C21 C 0.96078 0.76426 0.16346 0.0
C22 C 0.95143 0.7632 -0.00298 0.0
C23 C 0.95855 0.73236 -0.00558 0.0
C24 C 0.96668 0.71718 0.07609 0.0
C25 C 0.96787 0.73307 0.1606 0.0
H26 H 0.7054 0.02914 0.13712 0.0
H27 H 0.77116 1.00264 0.9329 0.0
H28 H 0.78766 0.98609 0.22197 0.0
H29 H 0.8514 0.99177 0.1249 0.0
C30 C 0.83713 0.00409 0.07387 0.0
O31 O 0.81192 0.9866 0.05515 0.0
H32 H 0.83073 0.02594 0.10741 0.0
C33 C 0.72701 0.01932 0.1189 0.0
C34 C 0.74509 0.00752 0.18978 0.0
C35 C 0.73461 0.01547 0.0254 0.0
C36 C 0.76393 0.00514 0.00412 0.0
C37 C 0.7836 0.996 0.07553 0.0
C38 C 0.77342 0.99542 0.16788 0.0
H39 H 0.5682 0.69672 0.08423 0.0
H40 H 0.56151 0.78285 0.94681 0.0
H41 H 0.55028 0.77733 0.2421 0.0
H42 H 0.51349 0.83421 0.15625 0.0
C43 C 0.51986 0.82339 0.08958 0.0
O44 O 0.54943 0.81346 0.09686 0.0
H45 H 0.50406 0.80404 0.07834 0.0
C46 C 0.56678 0.72123 0.08868 0.0
C47 C 0.56038 0.73467 0.17428 0.0
C48 C 0.56725 0.73829 0.00651 0.0
C49 C 0.56238 0.76962 0.01018 0.0
C50 C 0.55667 0.78367 0.09527 0.0
C51 C 0.55586 0.76632 0.1773 0.0
H52 H 0.20515 0.53864 0.07531 0.0
H53 H 0.27255 0.52381 0.28527 0.0
H54 H 0.29417 0.51006 -0.00251 0.0
H55 H 0.3312 0.47096 0.13586 0.0
C56 C 0.32616 0.48511 0.19766 0.0
O57 O 0.3163 0.51326 0.16804 0.0
H58 H 0.30834 0.47343 0.23886 0.0
C59 C 0.2281 0.5329 0.09513 0.0
C60 C 0.24826 0.52387 0.02628 0.0
C61 C 0.23568 0.53083 0.189 0.0
C62 C 0.26588 0.52508 0.21312 0.0
C63 C 0.28729 0.51872 0.14379 0.0
C64 C 0.27823 0.51706 0.0502 0.0
H65 H 0.06326 0.20061 0.10731 0.0
H66 H 0.0516 0.28458 0.25299 0.0
H67 H 0.05458 0.28399 0.95456 0.0
H68 H 0.07415 0.35543 0.06296 0.0
C69 C 0.07268 0.33937 0.12223 0.0
O70 O 0.05021 0.31844 0.10406 0.0
H71 H 0.09516 0.32815 0.12832 0.0
C72 C 0.06189 0.22522 0.1062 0.0
C73 C 0.06017 0.2403 0.02127 0.0
C74 C 0.05822 0.24086 0.18941 0.0
C75 C 0.05507 0.27239 0.18872 0.0
C76 C 0.05492 0.28814 0.10409 0.0
C77 C 0.05694 0.27205 0.01989 0.0
H78 H 0.32084 0.01169 0.10175 0.0
H79 H 0.24426 0.00628 0.283 0.0
H80 H 0.23152 0.00433 -0.0136 0.0
H81 H 0.17244 0.03314 0.11346 0.0
C82 C 0.18539 0.02588 0.17567 0.0
O83 O 0.20412 1.00211 0.15058 0.0
H84 H 0.19871 0.04571 0.20035 0.0
C85 C 0.29655 0.00996 0.11115 0.0
C86 C 0.2778 0.0082 0.03365 0.0
C87 C 0.28472 0.00929 0.2005 0.0
C88 C 0.25353 0.00697 0.21353 0.0
C89 C 0.23419 0.00544 0.13653 0.0
C90 C 0.24632 0.0061 0.04592 0.0
H91 H 0.47378 0.31151 0.1127 0.0
H92 H 0.48504 0.23281 0.28211 0.0
H93 H 0.48926 0.22472 0.9847 0.0
H94 H 0.46656 0.16056 0.09679 0.0
C95 C 0.47046 0.17351 0.16171 0.0
O96 O 0.49269 0.1949 0.14471 0.0
H97 H 0.44871 0.18449 0.1811 0.0
C98 C 0.47608 0.28705 0.11762 0.0
C99 C 0.48022 0.26993 0.03703 0.0
C100 C 0.47775 0.27385 0.20542 0.0
C101 C 0.48328 0.24283 0.21389 0.0
C102 C 0.48671 0.22488 0.13455 0.0
C103 C 0.48548 0.23844 0.04576 0.0
Zn104 Zn 0.00802 0.05228 0.61053 0.0
Zn105 Zn 0.00572 0.95478 0.59169 0.0
C106 C 1.00475 0.10015 0.72874 0.0
O107 O 0.97837 0.09829 0.68746 0.0
C108 C 1.00271 0.9083 0.4643 0.0
O109 O 0.02898 0.90438 0.50498 0.0
O110 O 1.00402 0.08113 0.50457 0.0
O111 O 0.03161 0.01512 0.57509 0.0
O112 O 0.04721 0.96933 0.54822 0.0
C113 C 0.02698 0.09839 0.49923 0.0
O114 O 0.0508 0.09222 0.55026 0.0
O115 O 0.02437 0.07962 0.7128 0.0
C116 C 0.98454 0.90528 0.68916 0.0
O117 O 0.96125 0.91321 0.63824 0.0
O118 O 0.0083 0.92155 0.68703 0.0
O119 O 0.97779 0.98865 0.64112 0.0
O120 O 0.96795 0.03742 0.65745 0.0
O121 O 0.98767 0.93219 0.48278 0.0
C122 C 0.05134 0.99769 0.54002 0.0
C123 C 0.9607 0.00983 0.67127 0.0
Zn124 Zn 0.47387 1.00091 0.64389 0.0
Zn125 Zn 0.54992 0.99282 0.57033 0.0
C126 C 0.42215 0.9832 0.73744 0.0
O127 O 0.43179 0.95837 0.69686 0.0
C128 C 0.60081 0.01621 0.4849 0.0
O129 O 0.58707 0.04033 0.51772 0.0
O130 O 0.45029 0.98917 0.53074 0.0
O131 O 0.49533 0.04025 0.60781 0.0
O132 O 0.52048 0.01772 0.49578 0.0
C133 C 0.43084 0.00974 0.5141 0.0
O134 O 0.43218 0.03518 0.56125 0.0
O135 O 0.43837 0.00709 0.73228 0.0
C136 C 0.59019 0.99833 0.70907 0.0
O137 O 0.59704 0.97303 0.66615 0.0
O138 O 0.5668 0.01316 0.6846 0.0
O139 O 0.53742 0.95131 0.6132 0.0
O140 O 0.4973 0.96494 0.69536 0.0
O141 O 0.5876 0.99062 0.49097 0.0
C142 C 0.50531 0.04014 0.52506 0.0
C143 C 0.51859 0.94637 0.6781 0.0
Zn144 Zn 0.5051 0.46355 0.60042 0.0
Zn145 Zn 0.50894 0.55259 0.62829 0.0
C146 C 0.5049 0.41025 0.70604 0.0
O147 O 0.52853 0.40651 0.65223 0.0
C148 C 0.51739 0.59363 0.49338 0.0
O149 O 0.49215 0.60021 0.53676 0.0
O150 O 0.50313 0.43569 0.49321 0.0
O151 O 0.47592 0.49819 0.57672 0.0
O152 O 0.46545 0.54655 0.59116 0.0
C153 C 0.4765 0.42518 0.48568 0.0
O154 O 0.45478 0.43657 0.53687 0.0
O155 O 0.49086 0.4355 0.70315 0.0
C156 C 0.54434 0.5931 0.71667 0.0
O157 O 0.56339 0.5745 0.67635 0.0
O158 O 0.51613 0.58766 0.71253 0.0
O159 O 0.52466 0.51559 0.69773 0.0
O160 O 0.54735 0.47736 0.63363 0.0
O161 O 0.53057 0.56866 0.51338 0.0
C162 C 0.45804 0.52033 0.5629 0.0
C163 C 0.54896 0.50113 0.68299 0.0
Zn164 Zn 0.04983 0.49642 0.63214 0.0
Zn165 Zn 0.96985 0.50612 0.5606 0.0
C166 C 0.10627 0.50823 0.72029 0.0
O167 O 0.10161 0.5343 0.67828 0.0
C168 C 0.92112 0.4877 0.45711 0.0
O169 O 0.93157 0.46281 0.49588 0.0
O170 O 0.07033 0.51553 0.52236 0.0
O171 O 0.03376 0.45633 0.58373 0.0
O172 O 0.99437 0.47265 0.50343 0.0
C173 C 0.09032 0.49757 0.49111 0.0
O174 O 0.09323 0.4704 0.52746 0.0
O175 O 0.08582 0.48788 0.71657 0.0
C176 C 0.92363 0.51103 0.68293 0.0
O177 O 0.92389 0.53686 0.6372 0.0
O178 O 0.94508 0.49225 0.66987 0.0
O179 O 0.99001 0.54534 0.59909 0.0
O180 O 0.02351 0.52701 0.69948 0.0
O181 O 0.93564 0.51242 0.46829 0.0
C182 C 0.01557 0.4537 0.51597 0.0
C183 C 1.00505 0.54762 0.6741 0.0
H184 H 0.1323 0.05257 0.22079 0.0
H185 H 0.19109 0.97977 0.30685 0.0
H186 H 0.15584 0.96602 0.43023 0.0
H187 H 0.107 0.97334 0.51018 0.0
H188 H 0.04828 0.04581 0.42292 0.0
H189 H 0.08481 0.06147 0.30546 0.0
C190 C 0.13726 0.0336 0.26637 0.0
C191 C 0.16379 0.01666 0.25239 0.0
C192 C 0.11704 0.02604 0.33806 0.0
C193 C 0.17044 0.9927 0.3139 0.0
C194 C 0.15035 0.98491 0.38502 0.0
C195 C 0.1025 0.99286 0.46635 0.0
C196 C 0.07535 0.0091 0.47735 0.0
C197 C 0.12342 1.00123 0.39724 0.0
C198 C 0.06959 0.03397 0.41903 0.0
C199 C 0.09025 0.04251 0.35048 0.0
H200 H 0.45897 0.11306 0.17676 0.0
H201 H 0.50122 0.18661 0.32419 0.0
H202 H 0.51267 0.15287 0.45352 0.0
H203 H 0.51231 0.10149 0.52366 0.0
H204 H 0.47416 0.02725 0.36932 0.0
H205 H 0.45911 0.06193 0.24524 0.0
C206 C 0.4709 0.12161 0.23692 0.0
C207 C 0.47952 0.1523 0.23985 0.0
C208 C 0.47788 0.10188 0.31066 0.0
C209 C 0.49444 0.16316 0.31927 0.0
C210 C 0.50101 0.1438 0.39362 0.0
C211 C 0.50032 0.09315 0.46333 0.0
C212 C 0.49382 0.06206 0.45608 0.0
C213 C 0.49294 0.11306 0.3901 0.0
C214 C 0.47898 0.05122 0.37673 0.0
C215 C 0.47057 0.07099 0.30551 0.0
H216 H 0.33363 0.52225 0.34723 0.0
H217 H 0.37986 0.45445 0.18593 0.0
H218 H 0.42407 0.4585 0.28679 0.0
H219 H 0.45002 0.48226 0.41838 0.0
H220 H 0.40458 0.55076 0.57877 0.0
H221 H 0.35974 0.54592 0.48024 0.0
C222 C 0.35351 0.50856 0.3341 0.0
C223 C 0.35373 0.48847 0.25842 0.0
C224 C 0.37887 0.51107 0.39237 0.0
C225 C 0.37935 0.47039 0.24291 0.0
C226 C 0.40457 0.47262 0.30076 0.0
C227 C 0.43001 0.49551 0.4333 0.0
C228 C 0.43026 0.5162 0.50731 0.0
C229 C 0.40458 0.49287 0.37563 0.0
C230 C 0.40474 0.53439 0.5229 0.0
C231 C 0.37916 0.53166 0.46649 0.0
H232 H 0.02193 0.37189 0.15811 0.0
H233 H 0.10696 0.34622 0.28007 0.0
H234 H 0.09599 0.37733 0.41651 0.0
H235 H 0.06328 0.41428 0.49698 0.0
H236 H 0.97814 0.43954 0.37254 0.0
H237 H 0.98785 0.40589 0.24285 0.0
C238 C 0.03786 0.37293 0.21513 0.0
C239 C 0.06518 0.3569 0.20913 0.0
C240 C 0.03138 0.39081 0.29317 0.0
C241 C 0.08577 0.35843 0.28315 0.0
C242 C 0.0795 0.37621 0.36113 0.0
C243 C 0.04666 0.41213 0.44221 0.0
C244 C 0.02011 0.42972 0.44482 0.0
C245 C 0.05251 0.39283 0.36647 0.0
C246 C 0.99886 0.4265 0.37278 0.0
C247 C 1.00441 0.40728 0.29803 0.0
H248 H 0.86498 0.96251 0.96333 0.0
H249 H 0.85101 0.05873 -0.00626 0.0
H250 H 0.88602 0.06877 0.86637 0.0
H251 H 0.92337 0.05045 0.75493 0.0
H252 H 0.93925 0.95443 0.72824 0.0
H253 H 0.90032 0.94393 0.84346 0.0
C254 C 0.86927 0.98559 0.94063 0.0
C255 C 0.85546 0.00983 -0.01252 0.0
C256 C 0.88976 0.9912 0.868 0.0
C257 C 0.86131 0.03971 0.95839 0.0
C258 C 0.88139 0.04545 0.88579 0.0
C259 C 0.9181 0.02714 0.77307 0.0
C260 C 0.93436 1.00315 0.73217 0.0
C261 C 0.89616 0.02141 0.84125 0.0
C262 C 0.92709 0.97323 0.7575 0.0
C263 C 0.9049 0.96726 0.82414 0.0
H264 H 0.55996 0.84177 0.95049 0.0
H265 H 0.46932 0.85504 0.05221 0.0
H266 H 0.45987 0.89246 0.93027 0.0
H267 H 0.47804 0.92313 0.80031 0.0
H268 H 0.5687 0.91038 0.69798 0.0
H269 H 0.57734 0.87084 0.81424 0.0
C270 C 0.53814 0.85281 0.94618 0.0
C271 C 0.51544 0.846 0.01158 0.0
C272 C 0.53286 0.87436 0.87571 0.0
C273 C 0.48722 0.86028 0.00355 0.0
C274 C 0.48179 0.88158 0.93378 0.0
C275 C 0.49963 0.91154 0.80272 0.0
C276 C 0.52269 0.91983 0.74047 0.0
C277 C 0.50455 0.88907 0.87022 0.0
C278 C 0.55045 0.90438 0.74452 0.0
C279 C 0.5555 0.88188 0.81149 0.0
H280 H 0.63414 0.51891 0.03 0.0
H281 H 0.68365 0.4475 0.89503 0.0
H282 H 0.64834 0.44878 0.7642 0.0
H283 H 0.60163 0.46847 0.69243 0.0
H284 H 0.55178 0.53917 0.83176 0.0
H285 H 0.5892 0.54041 0.95469 0.0
C286 C 0.63721 0.50382 0.97147 0.0
C287 C 0.66113 0.48295 0.97232 0.0
C288 C 0.61682 0.50466 0.89689 0.0
C289 C 0.66516 0.46358 0.89609 0.0
C290 C 0.64501 0.46434 0.82134 0.0
C291 C 0.59911 0.48437 0.74915 0.0
C292 C 0.57384 0.50378 0.75195 0.0
C293 C 0.62048 0.48452 0.82152 0.0
C294 C 0.57104 0.52417 0.82652 0.0
C295 C 0.59236 0.52476 0.89768 0.0
H296 H 0.96994 0.66459 0.90523 0.0
H297 H 0.04914 0.63713 0.05772 0.0
H298 H 0.05624 0.59418 0.95333 0.0
H299 H 0.03997 0.56435 0.81995 0.0
H300 H 0.96089 0.59136 0.66541 0.0
H301 H 0.95361 0.63445 0.76969 0.0
C302 C 0.98846 0.64892 0.91629 0.0
C303 C 0.00847 0.65345 -0.00905 0.0
C304 C 0.99247 0.62428 0.85556 0.0
C305 C 0.03298 0.63358 0.00244 0.0
C306 C 0.03713 0.60914 0.94248 0.0
C307 C 0.02107 0.57959 0.80886 0.0
C308 C 1.00099 0.5745 0.73481 0.0
C309 C 0.01699 0.60422 0.86904 0.0
C310 C 0.9768 0.59474 0.72146 0.0
C311 C 0.97256 0.61935 0.78131 0.0
H312 H 0.00966 0.20729 0.22325 0.0
H313 H 0.09599 0.23255 0.33655 0.0
H314 H 0.09286 0.19062 0.44872 0.0
H315 H 0.06857 0.14327 0.49831 0.0
H316 H 0.98356 0.11642 0.37664 0.0
H317 H 0.98323 0.1625 0.28222 0.0
C318 C 0.02727 0.20403 0.27469 0.0
C319 C 0.05291 0.22269 0.27299 0.0
C320 C 0.02592 0.17923 0.3349 0.0
C321 C 0.07594 0.21847 0.33825 0.0
C322 C 0.07431 0.19432 0.40101 0.0
C323 C 0.04994 0.14749 0.45121 0.0
C324 C 0.02638 0.12624 0.44301 0.0
C325 C 0.04998 0.17388 0.39715 0.0
C326 C 1.00213 0.13227 0.3831 0.0
C327 C 1.00186 0.15864 0.32957 0.0
H328 H 0.32511 0.9672 0.25226 0.0
H329 H 0.29314 0.05714 0.31442 0.0
H330 H 0.33671 0.06559 0.41594 0.0
H331 H 0.38514 0.04846 0.47761 0.0
H332 H 0.41749 0.9583 0.41604 0.0
H333 H 0.37245 0.9488 0.32225 0.0
C334 C 0.3274 0.98825 0.29047 0.0
C335 C 0.30599 0.01138 0.27808 0.0
C336 C 0.35273 0.99306 0.34661 0.0
C337 C 0.30913 0.03888 0.32547 0.0
C338 C 0.33419 0.04381 0.38209 0.0
C339 C 0.38244 0.0267 0.44368 0.0
C340 C 0.40476 0.0042 0.45298 0.0
C341 C 0.3564 0.02128 0.39144 0.0
C342 C 0.40079 0.9761 0.40897 0.0
C343 C 0.37497 0.97059 0.356 0.0
H344 H 0.43426 0.31354 0.25143 0.0
H345 H 0.52174 0.28049 0.33464 0.0
H346 H 0.52913 0.32529 0.43199 0.0
H347 H 0.51357 0.37698 0.47427 0.0
H348 H 0.42601 0.41001 0.39104 0.0
H349 H 0.4159 0.36232 0.31015 0.0
C350 C 0.45449 0.31584 0.29334 0.0
C351 C 0.47754 0.29416 0.286 0.0
C352 C 0.45899 0.34206 0.3457 0.0
C353 C 0.50368 0.29696 0.34021 0.0
C354 C 0.5081 0.32277 0.39431 0.0
C355 C 0.49241 0.3737 0.43772 0.0
C356 C 0.47093 0.39706 0.43517 0.0
C357 C 0.48652 0.34606 0.39386 0.0
C358 C 0.44307 0.39239 0.39133 0.0
C359 C 0.43721 0.36514 0.34606 0.0
H360 H 0.18181 0.50354 0.16728 0.0
H361 H 0.23385 0.55413 0.36734 0.0
H362 H 0.1917 0.55063 0.47776 0.0
H363 H 0.1403 0.53156 0.51705 0.0
H364 H 0.08962 0.48215 0.31185 0.0
H365 H 0.13071 0.48845 0.20032 0.0
C366 C 0.18383 0.5148 0.23375 0.0
C367 C 0.21077 0.52978 0.25799 0.0
C368 C 0.15954 0.51335 0.29488 0.0
C369 C 0.21334 0.5426 0.34671 0.0
C370 C 0.18919 0.54078 0.40944 0.0
C371 C 0.13811 0.52307 0.44686 0.0
C372 C 0.11196 0.50711 0.42082 0.0
C373 C 0.16216 0.52619 0.38407 0.0
C374 C 0.1094 0.4951 0.33159 0.0
C375 C 0.13294 0.4984 0.26862 0.0
H376 H 1.0006 0.78417 0.91457 0.0
H377 H 0.90354 0.78635 0.90185 0.0
H378 H 0.90558 0.83067 0.79861 0.0
H379 H 0.93499 0.87228 0.73069 0.0
H380 H 0.03207 0.87296 0.75851 0.0
H381 H 0.03017 0.82417 0.83928 0.0
C382 C 0.98003 0.79376 0.88588 0.0
C383 C 0.952 0.78192 0.91302 0.0
C384 C 0.98145 0.82023 0.83251 0.0
C385 C 0.92528 0.79484 0.87915 0.0
C386 C 0.9265 0.8204 0.82182 0.0
C387 C 0.95576 0.86168 0.75404 0.0
C388 C 0.98362 0.87629 0.73977 0.0
C389 C 0.95444 0.83393 0.80126 0.0
C390 C 0.01033 0.86235 0.77022 0.0
C391 C 0.00928 0.83437 0.81553 0.0
H392 H 0.67446 0.00433 0.04792 0.0
H393 H 0.73932 0.03169 0.83957 0.0
H394 H 0.69904 0.03183 0.72329 0.0
H395 H 0.64588 0.02055 0.68036 0.0
H396 H 0.58178 0.99769 0.89404 0.0
H397 H 0.62146 1.00163 0.01154 0.0
C398 C 0.68008 0.01184 0.9785 0.0
C399 C 0.71027 0.01845 0.95387 0.0
C400 C 0.6568 0.0131 0.91338 0.0
C401 C 0.71656 0.02619 0.86117 0.0
C402 C 0.69345 0.02656 0.79467 0.0
C403 C 0.64057 0.01754 0.75326 0.0
C404 C 0.6111 0.00931 0.7797 0.0
C405 C 0.66357 0.01965 0.81996 0.0
C406 C 0.60423 0.00472 0.87326 0.0
C407 C 0.62697 0.00655 0.93985 0.0
H408 H 0.60614 0.69513 0.94924 0.0
H409 H 0.52522 0.74289 0.86999 0.0
H410 H 0.51167 0.70187 0.76435 0.0
H411 H 0.51772 0.64822 0.72068 0.0
H412 H 0.59756 0.59961 0.80621 0.0
H413 H 0.61638 0.64478 0.88539 0.0
C414 C 0.58614 0.69694 0.90609 0.0
C415 C 0.5664 0.72152 0.91827 0.0
C416 C 0.57765 0.67256 0.85006 0.0
C417 C 0.54072 0.72408 0.86166 0.0
C418 C 0.53266 0.70036 0.80275 0.0
C419 C 0.53923 0.64768 0.75666 0.0
C420 C 0.55588 0.62065 0.76061 0.0
C421 C 0.54998 0.67373 0.80117 0.0
C422 C 0.58421 0.62021 0.80414 0.0
C423 C 0.59503 0.646 0.84882 0.0
H424 H 0.824 0.46783 0.96408 0.0
H425 H 0.77639 0.5432 0.84129 0.0
H426 H 0.81718 0.54984 0.72821 0.0
H427 H 0.86913 0.53864 0.68008 0.0
H428 H 0.91792 0.46499 0.80938 0.0
H429 H 0.87397 0.45354 0.90616 0.0
C430 C 0.82238 0.48537 0.91136 0.0
C431 C 0.79759 0.50532 0.91142 0.0
C432 C 0.84641 0.48984 0.84998 0.0
C433 C 0.79529 0.5276 0.84222 0.0
C434 C 0.81878 0.53164 0.77865 0.0
C435 C 0.87021 0.52007 0.72947 0.0
C436 C 0.89698 0.50309 0.7393 0.0
C437 C 0.84496 0.51371 0.78467 0.0
C438 C 0.89772 0.47862 0.80164 0.0
C439 C 0.87259 0.47202 0.8566 0.0
H440 H 0.007 0.2205 0.96203 0.0
H441 H 0.10228 0.21408 0.90843 0.0
H442 H 0.09388 0.16887 0.81233 0.0
H443 H 0.05937 0.12818 0.75682 0.0
H444 H 0.96444 0.13418 0.82174 0.0
H445 H 0.97274 0.18191 0.90222 0.0
C446 C 0.02571 0.20984 0.92606 0.0
C447 C 0.05504 0.22099 0.93943 0.0
C448 C 0.02085 0.18304 0.87615 0.0
C449 C 0.0794 0.20637 0.89622 0.0
C450 C 0.07463 0.18019 0.84308 0.0
C451 C 0.04065 0.13986 0.7895 0.0
C452 C 0.01139 0.12748 0.78433 0.0
C453 C 0.04553 0.1677 0.83523 0.0
C454 C 0.9872 0.14314 0.82523 0.0
C455 C 0.99186 0.17056 0.87072 0.0
H456 H 0.30096 0.95892 0.95286 0.0
H457 H 0.2924 0.0556 0.92155 0.0
H458 H 0.33719 0.0567 0.82183 0.0
H459 H 0.38368 0.031 0.76661 0.0
H460 H 0.39256 0.9343 0.80552 0.0
H461 H 0.34329 0.93235 0.8802 0.0
C462 C 0.30808 0.97995 0.92016 0.0
C463 C 0.29324 0.00705 0.94309 0.0
C464 C 0.3348 0.98056 0.8678 0.0
C465 C 0.30309 0.03437 0.90288 0.0
C466 C 0.32915 0.03506 0.8478 0.0
C467 C 0.37478 0.00957 0.79163 0.0
C468 C 0.39211 0.98297 0.7826 0.0
C469 C 0.3461 0.00852 0.83405 0.0
C470 C 0.37991 0.9552 0.81286 0.0
C471 C 0.35162 0.95399 0.85512 0.0
H472 H 0.44394 0.31518 0.9744 0.0
H473 H 0.52353 0.26407 0.90243 0.0
H474 H 0.53712 0.30265 0.78733 0.0
H475 H 0.53053 0.35444 0.72577 0.0
H476 H 0.45369 0.40771 0.81172 0.0
H477 H 0.43554 0.36528 0.90568 0.0
C478 C 0.46401 0.31221 0.93227 0.0
C479 C 0.48293 0.28697 0.94806 0.0
C480 C 0.47277 0.33546 0.87139 0.0
C481 C 0.50848 0.28313 0.89163 0.0
C482 C 0.51656 0.30552 0.82706 0.0
C483 C 0.50975 0.3568 0.76482 0.0
C484 C 0.49373 0.38446 0.76273 0.0
C485 C 0.49963 0.33241 0.81966 0.0
C486 C 0.46669 0.3869 0.81304 0.0
C487 C 0.45619 0.36256 0.86628 0.0
H488 H 0.21494 0.47568 0.98259 0.0
H489 H 0.24846 0.56001 0.87237 0.0
H490 H 0.20755 0.56081 0.75776 0.0
H491 H 0.15713 0.54272 0.71181 0.0
H492 H 0.12116 0.46093 0.83476 0.0
H493 H 0.1678 0.45411 0.92292 0.0
C494 C 0.21405 0.49341 0.93026 0.0
C495 C 0.23478 0.51757 0.93476 0.0
C496 C 0.18922 0.49483 0.87001 0.0
C497 C 0.2331 0.54091 0.86874 0.0
C498 C 0.2093 0.54168 0.80482 0.0
C499 C 0.15955 0.52326 0.75737 0.0
C500 C 0.13538 0.50269 0.76821 0.0
C501 C 0.18631 0.51969 0.80867 0.0
C502 C 0.13919 0.47729 0.82605 0.0
C503 C 0.16592 0.47332 0.8762 0.0
H504 H 0.92914 0.81261 0.23049 0.0
H505 H 0.01062 0.76083 0.27514 0.0
H506 H 0.0302 0.80073 0.37529 0.0
H507 H 0.0271 0.85281 0.43325 0.0
H508 H 0.94734 0.90638 0.37943 0.0
H509 H 0.92473 0.86372 0.29643 0.0
C510 C 0.95105 0.80987 0.26309 0.0
C511 C 0.96849 0.78382 0.24416 0.0
C512 C 0.96294 0.83368 0.31624 0.0
C513 C 0.99651 0.78038 0.28877 0.0
C514 C 0.008 0.8035 0.34478 0.0
C515 C 1.00477 0.85527 0.40327 0.0
C516 C 0.98915 0.88299 0.41125 0.0
C517 C 0.99193 0.8307 0.35583 0.0
C518 C 0.96006 0.8855 0.37311 0.0
C519 C 0.94703 0.86103 0.32628 0.0
H520 H 0.7242 0.05165 0.30116 0.0
H521 H 0.73112 0.95463 0.27625 0.0
H522 H 0.68671 0.94817 0.37525 0.0
H523 H 0.64011 0.9707 0.43963 0.0
H524 H 0.63197 0.06824 0.45274 0.0
H525 H 0.68214 0.07395 0.38655 0.0
C526 C 0.71677 0.02911 0.32138 0.0
C527 C 0.73061 1.00369 0.28124 0.0
C528 C 0.69009 0.02572 0.37253 0.0
C529 C 0.72088 0.97453 0.30704 0.0
C530 C 0.69504 0.97088 0.36175 0.0
C531 C 0.64941 0.99317 0.42839 0.0
C532 C 0.63194 0.01899 0.4487 0.0
C533 C 0.67839 0.99638 0.38966 0.0
C534 C 0.64462 0.04796 0.43598 0.0
C535 C 0.67344 0.0513 0.39868 0.0
H536 H 0.58937 0.6825 0.22796 0.0
H537 H 0.51413 0.74043 0.29803 0.0
H538 H 0.49504 0.70192 0.40411 0.0
H539 H 0.49659 0.65036 0.46418 0.0
H540 H 0.56996 0.59058 0.39092 0.0
H541 H 0.59237 0.63104 0.29591 0.0
C542 C 0.56893 0.68683 0.26714 0.0
C543 C 0.55315 0.71441 0.25424 0.0
C544 C 0.5573 0.66397 0.32524 0.0
C545 C 0.52704 0.71977 0.30705 0.0
C546 C 0.5158 0.69749 0.36671 0.0
C547 C 0.51749 0.64596 0.42746 0.0
C548 C 0.53133 0.61722 0.4336 0.0
C549 C 0.53021 0.66924 0.37396 0.0
C550 C 0.55863 0.61231 0.38644 0.0
C551 C 0.57151 0.6355 0.33265 0.0
H552 H 0.80346 0.45926 0.23003 0.0
H553 H 0.78653 0.5538 0.28176 0.0
H554 H 0.8312 0.55628 0.38235 0.0
H555 H 0.8794 0.53304 0.43502 0.0
H556 H 0.89675 0.4389 0.37291 0.0
H557 H 0.84815 0.43488 0.29502 0.0
C558 C 0.80891 0.48002 0.26679 0.0
C559 C 0.79171 0.50618 0.24993 0.0
C560 C 0.83548 0.48164 0.31915 0.0
C561 C 0.79918 0.53324 0.2956 0.0
C562 C 0.82509 0.53478 0.35124 0.0
C563 C 0.8725 0.51175 0.404 0.0
C564 C 0.89188 0.48647 0.40802 0.0
C565 C 0.84423 0.50948 0.35966 0.0
C566 C 0.88238 0.45877 0.36982 0.0
C567 C 0.85451 0.45637 0.32578 0.0
loop_
_geom_bond_atom_site_label_1
_geom_bond_atom_site_label_2
_geom_bond_distance
_geom_bond_site_symmetry_2
_ccdc_geom_bond_type
H0 C7 0.929 . S
H1 C10 0.930 . S
H2 C12 0.929 . S
H3 C4 0.969 . S
C4 H3 0.969 . S
C4 O5 1.550 1_556 S
C4 H6 0.973 . S
O5 C4 1.550 1_554 S
O5 C11 1.412 . S
H6 C4 0.973 . S
C7 H0 0.929 . S
C7 C8 1.400 . S
C7 C9 1.364 1_554 S
C8 C7 1.400 . S
C8 C12 1.377 . S
C9 C7 1.364 1_556 S
C9 C10 1.374 . S
C10 H1 0.930 . S
C10 C9 1.374 . S
C10 C11 1.383 1_556 S
C11 O5 1.412 . S
C11 C10 1.383 1_554 S
C11 C12 1.394 . S
C12 H2 0.929 . S
C12 C8 1.377 . S
C12 C11 1.394 . S
H13 C20 0.929 . S
H14 C23 0.930 . S
H15 C25 0.929 . S
H16 C17 0.969 . S
C17 H16 0.969 . S
C17 O18 1.550 1_556 S
C17 H19 0.973 . S
O18 C17 1.550 1_554 S
O18 C24 1.412 . S
H19 C17 0.973 . S
C20 H13 0.929 . S
C20 C21 1.400 . S
C20 C22 1.364 1_554 S
C21 C20 1.400 . S
C21 C25 1.377 . S
C22 C20 1.364 1_556 S
C22 C23 1.374 . S
C23 H14 0.930 . S
C23 C22 1.374 . S
C23 C24 1.383 1_556 S
C24 O18 1.412 . S
C24 C23 1.383 1_554 S
C24 C25 1.394 . S
C25 H15 0.929 . S
C25 C21 1.377 . S
C25 C24 1.394 . S
H26 C33 0.928 1_565 S
H27 C36 0.931 . S
H28 C38 0.928 1_565 S
H29 C30 0.969 . S
C30 H29 0.969 . S
C30 O31 1.550 1_546 S
C30 H32 0.973 1_545 S
O31 C30 1.550 1_564 S
O31 C37 1.404 1_565 S
H32 C30 0.973 1_565 S
C33 H26 0.928 1_545 S
C33 C34 1.399 . S
C33 C35 1.364 1_554 S
C34 C33 1.399 . S
C34 C38 1.377 . S
C35 C33 1.364 1_556 S
C35 C36 1.374 1_545 S
C36 H27 0.931 . S
C36 C35 1.374 1_565 S
C36 C37 1.382 1_566 S
C37 O31 1.404 1_545 S
C37 C36 1.382 1_544 S
C37 C38 1.394 . S
C38 H28 0.928 1_545 S
C38 C34 1.377 . S
C38 C37 1.394 . S
H39 C46 0.929 . S
H40 C49 0.930 . S
H41 C51 0.929 . S
H42 C43 0.969 . S
C43 H42 0.969 . S
C43 O44 1.550 1_556 S
C43 H45 0.973 . S
O44 C43 1.550 1_554 S
O44 C50 1.412 . S
H45 C43 0.973 . S
C46 H39 0.929 . S
C46 C47 1.400 . S
C46 C48 1.364 1_554 S
C47 C46 1.400 . S
C47 C51 1.377 . S
C48 C46 1.364 1_556 S
C48 C49 1.374 . S
C49 H40 0.930 . S
C49 C48 1.374 . S
C49 C50 1.383 1_556 S
C50 O44 1.412 . S
C50 C49 1.383 1_554 S
C50 C51 1.394 . S
C51 H41 0.929 . S
C51 C47 1.377 . S
C51 C50 1.394 . S
H52 C59 0.929 . S
H53 C62 0.930 . S
H54 C64 0.929 . S
H55 C56 0.969 . S
C56 H55 0.969 . S
C56 O57 1.550 . S
C56 H58 0.973 . S
O57 C56 1.550 . S
O57 C63 1.412 . S
H58 C56 0.973 . S
C59 H52 0.929 . S
C59 C60 1.400 . S
C59 C61 1.364 . S
C60 C59 1.400 . S
C60 C64 1.377 . S
C61 C59 1.364 . S
C61 C62 1.374 . S
C62 H53 0.930 . S
C62 C61 1.374 . S
C62 C63 1.383 . S
C63 O57 1.412 . S
C63 C62 1.383 . S
C63 C64 1.394 . S
C64 H54 0.929 . S
C64 C60 1.377 . S
C64 C63 1.394 . S
H65 C72 0.929 . S
H66 C75 0.930 . S
H67 C77 0.929 . S
H68 C69 0.969 . S
C69 H68 0.969 . S
C69 O70 1.550 . S
C69 H71 0.973 . S
O70 C69 1.550 . S
O70 C76 1.412 . S
H71 C69 0.973 . S
C72 H65 0.929 . S
C72 C73 1.400 . S
C72 C74 1.364 . S
C73 C72 1.400 . S
C73 C77 1.377 . S
C74 C72 1.364 . S
C74 C75 1.374 . S
C75 H66 0.930 . S
C75 C74 1.374 . S
C75 C76 1.383 . S
C76 O70 1.412 . S
C76 C75 1.383 . S
C76 C77 1.394 . S
C77 H67 0.929 . S
C77 C73 1.377 . S
C77 C76 1.394 . S
H78 C85 0.928 1_565 S
H79 C88 0.930 . S
H80 C90 0.928 1_565 S
H81 C82 0.969 . S
C82 H81 0.969 . S
C82 O83 1.550 1_545 S
C82 H84 0.973 1_545 S
O83 C82 1.550 1_565 S
O83 C89 1.402 1_565 S
H84 C82 0.973 1_565 S
C85 H78 0.928 1_545 S
C85 C86 1.400 . S
C85 C87 1.364 . S
C86 C85 1.400 . S
C86 C90 1.377 . S
C87 C85 1.364 . S
C87 C88 1.374 1_545 S
C88 H79 0.930 . S
C88 C87 1.374 1_565 S
C88 C89 1.382 1_565 S
C89 O83 1.402 1_545 S
C89 C88 1.382 1_545 S
C89 C90 1.394 . S
C90 H80 0.928 1_545 S
C90 C86 1.377 . S
C90 C89 1.394 . S
H91 C98 0.929 . S
H92 C101 0.930 . S
H93 C103 0.929 . S
H94 C95 0.969 . S
C95 H94 0.969 . S
C95 O96 1.550 . S
C95 H97 0.973 . S
O96 C95 1.550 . S
O96 C102 1.412 . S
H97 C95 0.973 . S
C98 H91 0.929 . S
C98 C99 1.400 . S
C98 C100 1.364 . S
C99 C98 1.400 . S
C99 C103 1.377 . S
C100 C98 1.364 . S
C100 C101 1.374 . S
C101 H92 0.930 . S
C101 C100 1.374 . S
C101 C102 1.383 . S
C102 O96 1.412 . S
C102 C101 1.383 . S
C102 C103 1.394 . S
C103 H93 0.929 . S
C103 C99 1.377 . S
C103 C102 1.394 . S
Zn104 O110 1.969 1_455 S
Zn104 O111 1.965 . S
Zn104 O115 2.024 . S
Zn104 O120 1.969 1_455 S
Zn105 O112 1.998 . S
Zn105 O118 1.981 . S
Zn105 O119 1.951 1_455 S
Zn105 O121 2.005 1_455 S
C106 O107 1.229 . S
C106 O115 1.058 . S
O107 C106 1.229 . S
C108 O109 1.229 1_655 S
C108 O121 1.058 . S
O109 C108 1.229 1_455 S
O110 Zn104 1.969 1_655 S
O110 C113 1.267 1_655 S
O111 Zn104 1.965 . S
O111 C122 1.260 1_545 S
O112 Zn105 1.998 . S
O112 C122 1.258 . S
C113 O110 1.267 1_455 S
C113 O114 1.228 . S
O114 C113 1.228 . S
O115 Zn104 2.024 . S
O115 C106 1.058 . S
C116 O117 1.228 . S
C116 O118 1.267 1_655 S
O117 C116 1.228 . S
O118 Zn105 1.981 . S
O118 C116 1.267 1_455 S
O119 Zn105 1.951 1_655 S
O119 C123 1.260 1_565 S
O120 Zn104 1.969 1_655 S
O120 C123 1.258 . S
O121 Zn105 2.005 1_655 S
O121 C108 1.058 . S
C122 O111 1.260 1_565 S
C122 O112 1.258 . S
C123 O119 1.260 1_545 S
C123 O120 1.258 . S
Zn124 O130 1.969 . S
Zn124 O131 1.965 1_565 S
Zn124 O135 2.024 1_565 S
Zn124 O140 1.969 . S
Zn125 O132 1.969 . S
Zn125 O138 1.969 . S
Zn125 O139 1.965 1_545 S
Zn125 O141 2.024 1_545 S
C126 O127 1.229 1_545 S
C126 O135 1.058 . S
O127 C126 1.229 1_565 S
C128 O129 1.229 1_565 S
C128 O141 1.058 . S
O129 C128 1.229 1_545 S
O130 Zn124 1.969 . S
O130 C133 1.267 . S
O131 Zn124 1.965 1_545 S
O131 C142 1.260 . S
O132 Zn125 1.969 . S
O132 C142 1.258 . S
C133 O130 1.267 . S
C133 O134 1.228 1_565 S
O134 C133 1.228 1_545 S
O135 Zn124 2.024 1_545 S
O135 C126 1.058 . S
C136 O137 1.228 1_545 S
C136 O138 1.267 . S
O137 C136 1.228 1_565 S
O138 Zn125 1.969 . S
O138 C136 1.267 . S
O139 Zn125 1.965 1_565 S
O139 C143 1.260 . S
O140 Zn124 1.969 . S
O140 C143 1.258 . S
O141 Zn125 2.024 1_565 S
O141 C128 1.058 . S
C142 O131 1.260 . S
C142 O132 1.258 . S
C143 O139 1.260 . S
C143 O140 1.258 . S
Zn144 O150 1.969 . S
Zn144 O151 1.965 . S
Zn144 O155 2.024 . S
Zn144 O160 1.969 . S
Zn145 O152 1.969 . S
Zn145 O158 1.969 . S
Zn145 O159 1.965 . S
Zn145 O161 2.024 . S
C146 O147 1.229 . S
C146 O155 1.058 . S
O147 C146 1.229 . S
C148 O149 1.229 . S
C148 O161 1.058 . S
O149 C148 1.229 . S
O150 Zn144 1.969 . S
O150 C153 1.267 . S
O151 Zn144 1.965 . S
O151 C162 1.260 . S
O152 Zn145 1.969 . S
O152 C162 1.258 . S
C153 O150 1.267 . S
C153 O154 1.228 . S
O154 C153 1.228 . S
O155 Zn144 2.024 . S
O155 C146 1.058 . S
C156 O157 1.228 . S
C156 O158 1.267 . S
O157 C156 1.228 . S
O158 Zn145 1.969 . S
O158 C156 1.267 . S
O159 Zn145 1.965 . S
O159 C163 1.260 . S
O160 Zn144 1.969 . S
O160 C163 1.258 . S
O161 Zn145 2.024 . S
O161 C148 1.058 . S
C162 O151 1.260 . S
C162 O152 1.258 . S
C163 O159 1.260 . S
C163 O160 1.258 . S
Zn164 O170 1.969 . S
Zn164 O171 1.965 . S
Zn164 O175 2.024 . S
Zn164 O180 1.969 . S
Zn165 O172 1.969 . S
Zn165 O178 1.969 . S
Zn165 O179 1.965 . S
Zn165 O181 2.024 . S
C166 O167 1.229 . S
C166 O175 1.058 . S
O167 C166 1.229 . S
C168 O169 1.229 . S
C168 O181 1.058 . S
O169 C168 1.229 . S
O170 Zn164 1.969 . S
O170 C173 1.267 . S
O171 Zn164 1.965 . S
O171 C182 1.260 . S
O172 Zn165 1.969 . S
O172 C182 1.258 1_655 S
C173 O170 1.267 . S
C173 O174 1.228 . S
O174 C173 1.228 . S
O175 Zn164 2.024 . S
O175 C166 1.058 . S
C176 O177 1.228 . S
C176 O178 1.267 . S
O177 C176 1.228 . S
O178 Zn165 1.969 . S
O178 C176 1.267 . S
O179 Zn165 1.965 . S
O179 C183 1.260 1_655 S
O180 Zn164 1.969 . S
O180 C183 1.258 . S
O181 Zn165 2.024 . S
O181 C168 1.058 . S
C182 O171 1.260 . S
C182 O172 1.258 1_455 S
C183 O179 1.260 1_455 S
C183 O180 1.258 . S
H184 C190 0.931 . S
H185 C193 0.930 . S
H186 C194 0.930 . S
H187 C195 0.930 . S
H188 C198 0.930 . S
H189 C199 0.930 . S
C190 H184 0.931 . S
C190 C191 1.355 . S
C190 C192 1.413 1_545 S
C191 C190 1.355 . S
C191 C193 1.419 . S
C192 C190 1.413 1_565 S
C192 C197 1.425 . S
C192 C199 1.411 . S
C193 H185 0.930 . S
C193 C191 1.419 . S
C193 C194 1.362 . S
C194 H186 0.930 . S
C194 C193 1.362 . S
C194 C197 1.408 1_545 S
C195 H187 0.930 . S
C195 C196 1.355 . S
C195 C197 1.417 . S
C196 C195 1.355 . S
C196 C198 1.419 . S
C197 C192 1.425 . S
C197 C194 1.408 1_565 S
C197 C195 1.417 . S
C198 H188 0.930 . S
C198 C196 1.419 . S
C198 C199 1.362 . S
C199 H189 0.930 . S
C199 C192 1.411 . S
C199 C198 1.362 . S
H200 C206 0.930 . S
H201 C209 0.930 . S
H202 C210 0.930 . S
H203 C211 0.930 . S
H204 C214 0.930 . S
H205 C215 0.930 . S
C206 H200 0.930 . S
C206 C207 1.355 . S
C206 C208 1.415 . S
C207 C206 1.355 . S
C207 C209 1.419 . S
C208 C206 1.415 . S
C208 C213 1.425 . S
C208 C215 1.409 . S
C209 H201 0.930 . S
C209 C207 1.419 . S
C209 C210 1.362 . S
C210 H202 0.930 . S
C210 C209 1.362 . S
C210 C213 1.409 . S
C211 H203 0.930 . S
C211 C212 1.355 . S
C211 C213 1.415 . S
C212 C211 1.355 . S
C212 C214 1.419 . S
C213 C208 1.425 . S
C213 C210 1.409 . S
C213 C211 1.415 . S
C214 H204 0.930 . S
C214 C212 1.419 . S
C214 C215 1.362 . S
C215 H205 0.930 . S
C215 C208 1.409 . S
C215 C214 1.362 . S
H216 C222 0.930 . S
H217 C225 0.930 . S
H218 C226 0.930 . S
H219 C227 0.930 . S
H220 C230 0.930 . S
H221 C231 0.930 . S
C222 H216 0.930 . S
C222 C223 1.355 . S
C222 C224 1.415 . S
C223 C222 1.355 . S
C223 C225 1.419 . S
C224 C222 1.415 . S
C224 C229 1.425 . S
C224 C231 1.409 . S
C225 H217 0.930 . S
C225 C223 1.419 . S
C225 C226 1.362 . S
C226 H218 0.930 . S
C226 C225 1.362 . S
C226 C229 1.409 . S
C227 H219 0.930 . S
C227 C228 1.355 . S
C227 C229 1.415 . S
C228 C227 1.355 . S
C228 C230 1.419 . S
C229 C224 1.425 . S
C229 C226 1.409 . S
C229 C227 1.415 . S
C230 H220 0.930 . S
C230 C228 1.419 . S
C230 C231 1.362 . S
C231 H221 0.930 . S
C231 C224 1.409 . S
C231 C230 1.362 . S
H232 C238 0.930 . S
H233 C241 0.930 . S
H234 C242 0.930 . S
H235 C243 0.930 . S
H236 C246 0.930 1_655 S
H237 C247 0.941 . S
C238 H232 0.930 . S
C238 C239 1.355 . S
C238 C240 1.415 . S
C239 C238 1.355 . S
C239 C241 1.419 . S
C240 C238 1.415 . S
C240 C245 1.425 . S
C240 C247 1.409 . S
C241 H233 0.930 . S
C241 C239 1.419 . S
C241 C242 1.362 . S
C242 H234 0.930 . S
C242 C241 1.362 . S
C242 C245 1.409 . S
C243 H235 0.930 . S
C243 C244 1.355 . S
C243 C245 1.415 . S
C244 C243 1.355 . S
C244 C246 1.419 . S
C245 C240 1.425 . S
C245 C242 1.409 . S
C245 C243 1.415 . S
C246 H236 0.930 1_455 S
C246 C244 1.419 . S
C246 C247 1.362 . S
C247 H237 0.941 . S
C247 C240 1.409 . S
C247 C246 1.362 . S
H248 C254 0.930 . S
H249 C257 0.930 . S
H250 C258 0.930 . S
H251 C259 0.930 . S
H252 C262 0.930 . S
H253 C263 0.930 . S
C254 H248 0.930 . S
C254 C255 1.355 1_565 S
C254 C256 1.415 . S
C255 C254 1.355 1_545 S
C255 C257 1.419 . S
C256 C254 1.415 . S
C256 C261 1.425 1_565 S
C256 C263 1.409 . S
C257 H249 0.930 . S
C257 C255 1.419 . S
C257 C258 1.362 . S
C258 H250 0.930 . S
C258 C257 1.362 . S
C258 C261 1.409 . S
C259 H251 0.930 . S
C259 C260 1.333 1_545 S
C259 C261 1.415 . S
C260 C259 1.333 1_565 S
C260 C262 1.446 . S
C261 C256 1.425 1_545 S
C261 C258 1.409 . S
C261 C259 1.415 . S
C262 H252 0.930 . S
C262 C260 1.446 . S
C262 C263 1.362 . S
C263 H253 0.930 . S
C263 C256 1.409 . S
C263 C262 1.362 . S
H264 C270 0.930 . S
H265 C273 0.930 . S
H266 C274 0.930 . S
H267 C275 0.930 . S
H268 C278 0.930 . S
H269 C279 0.930 . S
C270 H264 0.930 . S
C270 C271 1.355 . S
C270 C272 1.415 . S
C271 C270 1.355 . S
C271 C273 1.419 . S
C272 C270 1.415 . S
C272 C277 1.425 . S
C272 C279 1.409 . S
C273 H265 0.930 . S
C273 C271 1.419 . S
C273 C274 1.362 . S
C274 H266 0.930 . S
C274 C273 1.362 . S
C274 C277 1.409 . S
C275 H267 0.930 . S
C275 C276 1.355 . S
C275 C277 1.415 . S
C276 C275 1.355 . S
C276 C278 1.419 . S
C277 C272 1.425 . S
C277 C274 1.409 . S
C277 C275 1.415 . S
C278 H268 0.930 . S
C278 C276 1.419 . S
C278 C279 1.362 . S
C279 H269 0.930 . S
C279 C272 1.409 . S
C279 C278 1.362 . S
H280 C286 0.939 . S
H281 C289 0.930 . S
H282 C290 0.930 . S
H283 C291 0.930 . S
H284 C294 0.930 . S
H285 C295 0.930 . S
C286 H280 0.939 . S
C286 C287 1.355 . S
C286 C288 1.415 . S
C287 C286 1.355 . S
C287 C289 1.419 . S
C288 C286 1.415 . S
C288 C293 1.425 . S
C288 C295 1.409 . S
C289 H281 0.930 . S
C289 C287 1.419 . S
C289 C290 1.362 . S
C290 H282 0.930 . S
C290 C289 1.362 . S
C290 C293 1.409 . S
C291 H283 0.930 . S
C291 C292 1.355 . S
C291 C293 1.415 . S
C292 C291 1.355 . S
C292 C294 1.419 . S
C293 C288 1.425 . S
C293 C290 1.409 . S
C293 C291 1.415 . S
C294 H284 0.930 . S
C294 C292 1.419 . S
C294 C295 1.362 . S
C295 H285 0.930 . S
C295 C288 1.409 . S
C295 C294 1.362 . S
H296 C302 0.930 . S
H297 C305 0.930 1_455 S
H298 C306 0.930 . S
H299 C307 0.930 . S
H300 C310 0.930 . S
H301 C311 0.930 . S
C302 H296 0.930 . S
C302 C303 1.355 . S
C302 C304 1.415 . S
C303 C302 1.355 . S
C303 C305 1.419 . S
C304 C302 1.415 . S
C304 C309 1.425 . S
C304 C311 1.409 . S
C305 H297 0.930 1_655 S
C305 C303 1.419 . S
C305 C306 1.362 1_655 S
C306 H298 0.930 . S
C306 C305 1.362 1_455 S
C306 C309 1.409 1_455 S
C307 H299 0.930 . S
C307 C308 1.355 1_455 S
C307 C309 1.415 1_455 S
C308 C307 1.355 1_655 S
C308 C310 1.419 . S
C309 C304 1.425 . S
C309 C306 1.409 1_655 S
C309 C307 1.415 1_655 S
C310 H300 0.930 . S
C310 C308 1.419 . S
C310 C311 1.362 . S
C311 H301 0.930 . S
C311 C304 1.409 . S
C311 C310 1.362 . S
H312 C318 0.930 . S
H313 C321 0.930 . S
H314 C322 0.930 . S
H315 C323 0.930 . S
H316 C326 0.930 . S
H317 C327 0.930 . S
C318 H312 0.930 . S
C318 C319 1.355 . S
C318 C320 1.415 . S
C319 C318 1.355 . S
C319 C321 1.419 . S
C320 C318 1.415 . S
C320 C325 1.425 . S
C320 C327 1.409 1_455 S
C321 H313 0.930 . S
C321 C319 1.419 . S
C321 C322 1.362 . S
C322 H314 0.930 . S
C322 C321 1.362 . S
C322 C325 1.409 . S
C323 H315 0.930 . S
C323 C324 1.355 . S
C323 C325 1.415 . S
C324 C323 1.355 . S
C324 C326 1.419 1_455 S
C325 C320 1.425 . S
C325 C322 1.409 . S
C325 C323 1.415 . S
C326 H316 0.930 . S
C326 C324 1.419 1_655 S
C326 C327 1.362 . S
C327 H317 0.930 . S
C327 C320 1.409 1_655 S
C327 C326 1.362 . S
H328 C334 0.930 . S
H329 C337 0.930 . S
H330 C338 0.930 . S
H331 C339 0.930 . S
H332 C342 0.930 . S
H333 C343 0.930 . S
C334 H328 0.930 . S
C334 C335 1.355 1_565 S
C334 C336 1.415 . S
C335 C334 1.355 1_545 S
C335 C337 1.419 . S
C336 C334 1.415 . S
C336 C341 1.425 1_565 S
C336 C343 1.409 . S
C337 H329 0.930 . S
C337 C335 1.419 . S
C337 C338 1.362 . S
C338 H330 0.930 . S
C338 C337 1.362 . S
C338 C341 1.409 . S
C339 H331 0.930 . S
C339 C340 1.355 1_545 S
C339 C341 1.415 . S
C340 C339 1.355 1_565 S
C340 C342 1.419 . S
C341 C336 1.425 1_545 S
C341 C338 1.409 . S
C341 C339 1.415 . S
C342 H332 0.930 . S
C342 C340 1.419 . S
C342 C343 1.362 . S
C343 H333 0.930 . S
C343 C336 1.409 . S
C343 C342 1.362 . S
H344 C350 0.930 . S
H345 C353 0.930 . S
H346 C354 0.930 . S
H347 C355 0.930 . S
H348 C358 0.930 . S
H349 C359 0.930 . S
C350 H344 0.930 . S
C350 C351 1.355 . S
C350 C352 1.415 . S
C351 C350 1.355 . S
C351 C353 1.419 . S
C352 C350 1.415 . S
C352 C357 1.425 . S
C352 C359 1.409 . S
C353 H345 0.930 . S
C353 C351 1.419 . S
C353 C354 1.362 . S
C354 H346 0.930 . S
C354 C353 1.362 . S
C354 C357 1.409 . S
C355 H347 0.930 . S
C355 C356 1.355 . S
C355 C357 1.415 . S
C356 C355 1.355 . S
C356 C358 1.419 . S
C357 C352 1.425 . S
C357 C354 1.409 . S
C357 C355 1.415 . S
C358 H348 0.930 . S
C358 C356 1.419 . S
C358 C359 1.362 . S
C359 H349 0.930 . S
C359 C352 1.409 . S
C359 C358 1.362 . S
H360 C366 0.930 . S
H361 C369 0.930 . S
H362 C370 0.930 . S
H363 C371 0.930 . S
H364 C374 0.930 . S
H365 C375 0.930 . S
C366 H360 0.930 . S
C366 C367 1.355 . S
C366 C368 1.415 . S
C367 C366 1.355 . S
C367 C369 1.419 . S
C368 C366 1.415 . S
C368 C373 1.425 . S
C368 C375 1.409 . S
C369 H361 0.930 . S
C369 C367 1.419 . S
C369 C370 1.362 . S
C370 H362 0.930 . S
C370 C369 1.362 . S
C370 C373 1.409 . S
C371 H363 0.930 . S
C371 C372 1.355 . S
C371 C373 1.415 . S
C372 C371 1.355 . S
C372 C374 1.419 . S
C373 C368 1.425 . S
C373 C370 1.409 . S
C373 C371 1.415 . S
C374 H364 0.930 . S
C374 C372 1.419 . S
C374 C375 1.362 . S
C375 H365 0.930 . S
C375 C368 1.409 . S
C375 C374 1.362 . S
H376 C382 0.930 1_455 S
H377 C385 0.930 . S
H378 C386 0.930 . S
H379 C387 0.930 . S
H380 C390 0.930 . S
H381 C391 0.930 . S
C382 H376 0.930 1_655 S
C382 C383 1.355 . S
C382 C384 1.415 . S
C383 C382 1.355 . S
C383 C385 1.419 . S
C384 C382 1.415 . S
C384 C389 1.425 . S
C384 C391 1.409 1_655 S
C385 H377 0.930 . S
C385 C383 1.419 . S
C385 C386 1.362 . S
C386 H378 0.930 . S
C386 C385 1.362 . S
C386 C389 1.409 . S
C387 H379 0.930 . S
C387 C388 1.355 1_655 S
C387 C389 1.415 . S
C388 C387 1.355 1_455 S
C388 C390 1.419 . S
C389 C384 1.425 . S
C389 C386 1.409 . S
C389 C387 1.415 . S
C390 H380 0.930 . S
C390 C388 1.419 . S
C390 C391 1.362 . S
C391 H381 0.930 . S
C391 C384 1.409 1_455 S
C391 C390 1.362 . S
H392 C398 0.930 1_554 S
H393 C401 0.930 . S
H394 C402 0.930 . S
H395 C403 0.930 . S
H396 C406 0.930 . S
H397 C407 0.930 . S
C398 H392 0.930 1_556 S
C398 C399 1.355 1_565 S
C398 C400 1.415 . S
C399 C398 1.355 1_545 S
C399 C401 1.419 . S
C400 C398 1.415 . S
C400 C405 1.425 1_565 S
C400 C407 1.409 . S
C401 H393 0.930 . S
C401 C399 1.419 . S
C401 C402 1.362 . S
C402 H394 0.930 . S
C402 C401 1.362 . S
C402 C405 1.409 . S
C403 H395 0.930 . S
C403 C404 1.355 . S
C403 C405 1.415 . S
C404 C403 1.355 . S
C404 C406 1.419 1_545 S
C405 C400 1.425 1_545 S
C405 C402 1.409 . S
C405 C403 1.415 . S
C406 H396 0.930 . S
C406 C404 1.419 1_565 S
C406 C407 1.362 . S
C407 H397 0.930 . S
C407 C400 1.409 . S
C407 C406 1.362 . S
H408 C414 0.930 . S
H409 C417 0.930 . S
H410 C418 0.930 . S
H411 C419 0.930 . S
H412 C422 0.930 . S
H413 C423 0.930 . S
C414 H408 0.930 . S
C414 C415 1.355 . S
C414 C416 1.415 . S
C415 C414 1.355 . S
C415 C417 1.419 . S
C416 C414 1.415 . S
C416 C421 1.425 . S
C416 C423 1.409 . S
C417 H409 0.930 . S
C417 C415 1.419 . S
C417 C418 1.362 . S
C418 H410 0.930 . S
C418 C417 1.362 . S
C418 C421 1.409 . S
C419 H411 0.930 . S
C419 C420 1.355 . S
C419 C421 1.415 . S
C420 C419 1.355 . S
C420 C422 1.419 . S
C421 C416 1.425 . S
C421 C418 1.409 . S
C421 C419 1.415 . S
C422 H412 0.930 . S
C422 C420 1.419 . S
C422 C423 1.362 . S
C423 H413 0.930 . S
C423 C416 1.409 . S
C423 C422 1.362 . S
H424 C430 0.930 1_554 S
H425 C433 0.930 . S
H426 C434 0.930 . S
H427 C435 0.930 . S
H428 C438 0.930 . S
H429 C439 0.930 1_554 S
C430 H424 0.930 1_556 S
C430 C431 1.355 . S
C430 C432 1.415 . S
C431 C430 1.355 . S
C431 C433 1.419 . S
C432 C430 1.415 . S
C432 C437 1.425 . S
C432 C439 1.409 . S
C433 H425 0.930 . S
C433 C431 1.419 . S
C433 C434 1.362 . S
C434 H426 0.930 . S
C434 C433 1.362 . S
C434 C437 1.409 . S
C435 H427 0.930 . S
C435 C436 1.355 . S
C435 C437 1.415 . S
C436 C435 1.355 . S
C436 C438 1.419 . S
C437 C432 1.425 . S
C437 C434 1.409 . S
C437 C435 1.415 . S
C438 H428 0.930 . S
C438 C436 1.419 . S
C438 C439 1.362 . S
C439 H429 0.930 1_556 S
C439 C432 1.409 . S
C439 C438 1.362 . S
H440 C446 0.930 1_554 S
H441 C449 0.930 . S
H442 C450 0.930 . S
H443 C451 0.930 . S
H444 C454 0.930 1_655 S
H445 C455 0.931 1_655 S
C446 H440 0.930 1_556 S
C446 C447 1.356 . S
C446 C448 1.415 . S
C447 C446 1.356 . S
C447 C449 1.424 . S
C448 C446 1.415 . S
C448 C453 1.425 . S
C448 C455 1.408 . S
C449 H441 0.930 . S
C449 C447 1.424 . S
C449 C450 1.362 . S
C450 H442 0.930 . S
C450 C449 1.362 . S
C450 C453 1.409 . S
C451 H443 0.930 . S
C451 C452 1.355 . S
C451 C453 1.415 . S
C452 C451 1.355 . S
C452 C454 1.419 . S
C453 C448 1.425 . S
C453 C450 1.409 . S
C453 C451 1.415 . S
C454 H444 0.930 1_455 S
C454 C452 1.419 . S
C454 C455 1.362 . S
C455 H445 0.931 1_455 S
C455 C448 1.408 . S
C455 C454 1.362 . S
H456 C462 0.930 . S
H457 C465 0.930 . S
H458 C466 0.930 . S
H459 C467 0.930 . S
H460 C470 0.930 . S
H461 C471 0.930 . S
C462 H456 0.930 . S
C462 C463 1.355 1_565 S
C462 C464 1.415 . S
C463 C462 1.355 1_545 S
C463 C465 1.419 1_556 S
C464 C462 1.415 . S
C464 C469 1.425 1_565 S
C464 C471 1.409 . S
C465 H457 0.930 . S
C465 C463 1.419 1_554 S
C465 C466 1.362 1_554 S
C466 H458 0.930 . S
C466 C465 1.362 1_556 S
C466 C469 1.409 . S
C467 H459 0.930 . S
C467 C468 1.355 . S
C467 C469 1.415 . S
C468 C467 1.355 . S
C468 C470 1.419 1_545 S
C469 C464 1.425 1_545 S
C469 C466 1.409 . S
C469 C467 1.415 . S
C470 H460 0.930 . S
C470 C468 1.419 1_565 S
C470 C471 1.362 . S
C471 H461 0.930 . S
C471 C464 1.409 . S
C471 C470 1.362 . S
H472 C478 0.930 . S
H473 C481 0.930 . S
H474 C482 0.930 . S
H475 C483 0.930 . S
H476 C486 0.930 . S
H477 C487 0.930 . S
C478 H472 0.930 . S
C478 C479 1.355 . S
C478 C480 1.415 . S
C479 C478 1.355 . S
C479 C481 1.419 . S
C480 C478 1.415 . S
C480 C485 1.425 . S
C480 C487 1.409 . S
C481 H473 0.930 . S
C481 C479 1.419 . S
C481 C482 1.362 . S
C482 H474 0.930 . S
C482 C481 1.362 . S
C482 C485 1.409 . S
C483 H475 0.930 . S
C483 C484 1.355 . S
C483 C485 1.415 . S
C484 C483 1.355 . S
C484 C486 1.419 . S
C485 C480 1.425 . S
C485 C482 1.409 . S
C485 C483 1.415 . S
C486 H476 0.930 . S
C486 C484 1.419 . S
C486 C487 1.362 . S
C487 H477 0.930 . S
C487 C480 1.409 . S
C487 C486 1.362 . S
H488 C494 0.930 . S
H489 C497 0.930 . S
H490 C498 0.930 . S
H491 C499 0.930 . S
H492 C502 0.930 . S
H493 C503 0.930 1_554 S
C494 H488 0.930 . S
C494 C495 1.355 1_554 S
C494 C496 1.415 1_554 S
C495 C494 1.355 1_556 S
C495 C497 1.419 . S
C496 C494 1.415 1_556 S
C496 C501 1.425 . S
C496 C503 1.409 . S
C497 H489 0.930 . S
C497 C495 1.419 . S
C497 C498 1.362 . S
C498 H490 0.930 . S
C498 C497 1.362 . S
C498 C501 1.409 . S
C499 H491 0.930 . S
C499 C500 1.355 . S
C499 C501 1.415 . S
C500 C499 1.355 . S
C500 C502 1.419 . S
C501 C496 1.425 . S
C501 C498 1.409 . S
C501 C499 1.415 . S
C502 H492 0.930 . S
C502 C500 1.419 . S
C502 C503 1.362 . S
C503 H493 0.930 1_556 S
C503 C496 1.409 . S
C503 C502 1.362 . S
H504 C510 0.930 . S
H505 C513 0.930 1_455 S
H506 C514 0.930 . S
H507 C515 0.930 1_455 S
H508 C518 0.930 . S
H509 C519 0.930 . S
C510 H504 0.930 . S
C510 C511 1.355 . S
C510 C512 1.415 . S
C511 C510 1.355 . S
C511 C513 1.419 . S
C512 C510 1.415 . S
C512 C517 1.425 . S
C512 C519 1.409 . S
C513 H505 0.930 1_655 S
C513 C511 1.419 . S
C513 C514 1.362 1_655 S
C514 H506 0.930 . S
C514 C513 1.362 1_455 S
C514 C517 1.409 1_455 S
C515 H507 0.930 1_655 S
C515 C516 1.355 . S
C515 C517 1.415 . S
C516 C515 1.355 . S
C516 C518 1.419 . S
C517 C512 1.425 . S
C517 C514 1.409 1_655 S
C517 C515 1.415 . S
C518 H508 0.930 . S
C518 C516 1.419 . S
C518 C519 1.362 . S
C519 H509 0.930 . S
C519 C512 1.409 . S
C519 C518 1.362 . S
H520 C526 0.930 . S
H521 C529 0.930 . S
H522 C530 0.930 . S
H523 C531 0.930 . S
H524 C534 0.930 . S
H525 C535 0.930 . S
C526 H520 0.930 . S
C526 C527 1.355 1_545 S
C526 C528 1.415 . S
C527 C526 1.355 1_565 S
C527 C529 1.419 . S
C528 C526 1.415 . S
C528 C533 1.425 1_545 S
C528 C535 1.409 . S
C529 H521 0.930 . S
C529 C527 1.419 . S
C529 C530 1.362 . S
C530 H522 0.930 . S
C530 C529 1.362 . S
C530 C533 1.409 . S
C531 H523 0.930 . S
C531 C532 1.355 . S
C531 C533 1.415 . S
C532 C531 1.355 . S
C532 C534 1.419 1_565 S
C533 C528 1.425 1_565 S
C533 C530 1.409 . S
C533 C531 1.415 . S
C534 H524 0.930 . S
C534 C532 1.419 1_545 S
C534 C535 1.362 . S
C535 H525 0.930 . S
C535 C528 1.409 . S
C535 C534 1.362 . S
H536 C542 0.930 . S
H537 C545 0.930 . S
H538 C546 0.930 . S
H539 C547 0.930 . S
H540 C550 0.930 . S
H541 C551 0.930 . S
C542 H536 0.930 . S
C542 C543 1.355 . S
C542 C544 1.415 . S
C543 C542 1.355 . S
C543 C545 1.419 . S
C544 C542 1.415 . S
C544 C549 1.425 . S
C544 C551 1.409 . S
C545 H537 0.930 . S
C545 C543 1.419 . S
C545 C546 1.362 . S
C546 H538 0.930 . S
C546 C545 1.362 . S
C546 C549 1.409 . S
C547 H539 0.930 . S
C547 C548 1.355 . S
C547 C549 1.415 . S
C548 C547 1.355 . S
C548 C550 1.419 . S
C549 C544 1.425 . S
C549 C546 1.409 . S
C549 C547 1.415 . S
C550 H540 0.930 . S
C550 C548 1.419 . S
C550 C551 1.362 . S
C551 H541 0.930 . S
C551 C544 1.409 . S
C551 C550 1.362 . S
H552 C558 0.930 . S
H553 C561 0.930 . S
H554 C562 0.930 . S
H555 C563 0.930 . S
H556 C566 0.930 . S
H557 C567 0.930 . S
C558 H552 0.930 . S
C558 C559 1.355 . S
C558 C560 1.415 . S
C559 C558 1.355 . S
C559 C561 1.419 . S
C560 C558 1.415 . S
C560 C565 1.425 . S
C560 C567 1.409 . S
C561 H553 0.930 . S
C561 C559 1.419 . S
C561 C562 1.362 . S
C562 H554 0.930 . S
C562 C561 1.362 . S
C562 C565 1.409 . S
C563 H555 0.930 . S
C563 C564 1.355 . S
C563 C565 1.415 . S
C564 C563 1.355 . S
C564 C566 1.419 . S
C565 C560 1.425 . S
C565 C562 1.409 . S
C565 C563 1.415 . S
C566 H556 0.930 . S
C566 C564 1.419 . S
C566 C567 1.362 . S
C567 H557 0.930 . S
C567 C560 1.409 . S
C567 C566 1.362 . S
C191 C82 1.326 . S
C196 C122 1.444 . S
C212 C142 1.543 . S
C207 C95 1.427 . S
C228 C162 1.488 . S
C223 C56 1.397 . S
C244 C182 1.530 . S
C239 C69 1.427 . S
C260 C123 1.504 1_565 S
C255 C30 1.391 . S
C271 C43 1.375 . S
C276 C143 1.574 . S
C287 C4 1.333 . S
C292 C163 1.475 . S
C303 C17 1.399 . S
C308 C183 1.580 1_655 S
C324 C113 1.001 . S
C319 C74 1.005 . S
C340 C133 0.938 . S
C335 C87 0.916 . S
C356 C153 0.886 . S
C351 C100 0.933 . S
C367 C61 0.974 . S
C372 C173 0.940 . S
C383 C22 0.964 . S
C388 C116 0.978 1_455 S
C404 C136 0.945 . S
C399 C35 0.973 . S
C420 C156 0.886 . S
C415 C48 0.929 . S
C431 C9 0.980 . S
C436 C176 0.977 . S
C447 C73 1.537 1_556 S
C452 C106 1.458 . S
C463 C86 1.479 1_556 S
C468 C126 1.398 . S
C484 C146 1.529 . S
C479 C99 1.559 1_556 S
C500 C166 1.493 . S
C495 C60 1.547 1_556 S
C511 C21 1.527 . S
C516 C108 1.506 . S
C532 C128 1.399 . S
C527 C34 1.481 1_565 S
C548 C148 1.452 . S
C543 C47 1.498 . S
C559 C8 1.549 . S
C564 C168 1.496 . S
