# Generated by pormake.
# Topology cml, (3,6)-cn, num edge types: 1
# Building blocks:
#     Node 0, Type 0, BuildingBlock: PAMTOO_clean_linker_0, # of connection points: 3
#     Node 1, Type 0, BuildingBlock: PAMTOO_clean_linker_0, # of connection points: 3
#     Node 2, Type 0, BuildingBlock: PAMTOO_clean_linker_0, # of connection points: 3
#     Node 3, Type 0, BuildingBlock: PAMTOO_clean_linker_0, # of connection points: 3
#     Node 4, Type 0, BuildingBlock: PAMTOO_clean_linker_0, # of connection points: 3
#     Node 5, Type 0, BuildingBlock: PAMTOO_clean_linker_0, # of connection points: 3
#     Node 6, Type 0, BuildingBlock: PAMTOO_clean_linker_0, # of connection points: 3
#     Node 7, Type 0, BuildingBlock: PAMTOO_clean_linker_0, # of connection points: 3
#     Node 8, Type 1, BuildingBlock: OJICUG_clean_sbu_0, # of connection points: 6
#     Node 9, Type 1, BuildingBlock: OJICUG_clean_sbu_0, # of connection points: 6
#     Node 10, Type 1, BuildingBlock: OJICUG_clean_sbu_0, # of connection points: 6
#     Node 11, Type 1, BuildingBlock: OJICUG_clean_sbu_0, # of connection points: 6
#     Edge 12, Type (0, 1), BuildingBlock: AJUNOK_clean_linker_0, # of connection points: 2
#     Edge 13, Type (0, 1), BuildingBlock: AJUNOK_clean_linker_0, # of connection points: 2
#     Edge 14, Type (0, 1), BuildingBlock: AJUNOK_clean_linker_0, # of connection points: 2
#     Edge 15, Type (0, 1), BuildingBlock: AJUNOK_clean_linker_0, # of connection points: 2
#     Edge 16, Type (0, 1), BuildingBlock: AJUNOK_clean_linker_0, # of connection points: 2
#     Edge 17, Type (0, 1), BuildingBlock: AJUNOK_clean_linker_0, # of connection points: 2
#     Edge 18, Type (0, 1), BuildingBlock: AJUNOK_clean_linker_0, # of connection points: 2
#     Edge 19, Type (0, 1), BuildingBlock: AJUNOK_clean_linker_0, # of connection points: 2
#     Edge 20, Type (0, 1), BuildingBlock: AJUNOK_clean_linker_0, # of connection points: 2
#     Edge 21, Type (0, 1), BuildingBlock: AJUNOK_clean_linker_0, # of connection points: 2
#     Edge 22, Type (0, 1), BuildingBlock: AJUNOK_clean_linker_0, # of connection points: 2
#     Edge 23, Type (0, 1), BuildingBlock: AJUNOK_clean_linker_0, # of connection points: 2
#     Edge 24, Type (0, 1), BuildingBlock: AJUNOK_clean_linker_0, # of connection points: 2
#     Edge 25, Type (0, 1), BuildingBlock: AJUNOK_clean_linker_0, # of connection points: 2
#     Edge 26, Type (0, 1), BuildingBlock: AJUNOK_clean_linker_0, # of connection points: 2
#     Edge 27, Type (0, 1), BuildingBlock: AJUNOK_clean_linker_0, # of connection points: 2
#     Edge 28, Type (0, 1), BuildingBlock: AJUNOK_clean_linker_0, # of connection points: 2
#     Edge 29, Type (0, 1), BuildingBlock: AJUNOK_clean_linker_0, # of connection points: 2
#     Edge 30, Type (0, 1), BuildingBlock: AJUNOK_clean_linker_0, # of connection points: 2
#     Edge 31, Type (0, 1), BuildingBlock: AJUNOK_clean_linker_0, # of connection points: 2
#     Edge 32, Type (0, 1), BuildingBlock: AJUNOK_clean_linker_0, # of connection points: 2
#     Edge 33, Type (0, 1), BuildingBlock: AJUNOK_clean_linker_0, # of connection points: 2
#     Edge 34, Type (0, 1), BuildingBlock: AJUNOK_clean_linker_0, # of connection points: 2
#     Edge 35, Type (0, 1), BuildingBlock: AJUNOK_clean_linker_0, # of connection points: 2
# Relax obj value: 0.007
# Max RMSD: 0.050
# Mean RMSD: 0.043
data_MOF--net-cml--node1-OJICUG_clean_sbu_0--node2-PAMTOO_clean_linker_0--edge1-AJUNOK_clean_linker_0
_symmetry_space_group_name_H-M    P1
_symmetry_Int_Tables_number       1
_symmetry_cell_setting            triclinic
loop_
_symmetry_equiv_pos_as_xyz
'x, y, z'
_cell_length_a     30.126357
_cell_length_b     29.692639
_cell_length_c     25.825524
_cell_angle_alpha  89.76418
_cell_angle_beta   88.185384
_cell_angle_gamma 89.906664
loop_
_atom_site_label
_atom_site_type_symbol
_atom_site_fract_x
_atom_site_fract_y
_atom_site_fract_z
_atom_type_partial_charge
H0 H 0.36942 0.43722 0.05196 0.0
H1 H 0.26663 0.43127 0.93985 0.0
H2 H 0.27153 0.33219 0.06135 0.0
H3 H 0.25731 0.29915 0.95338 0.0
C4 C 0.23428 0.32613 0.94074 0.0
O5 O 0.22961 0.35848 0.97871 0.0
H6 H 0.24911 0.34161 0.90488 0.0
C7 C 0.3399 0.42164 0.0371 0.0
C8 C 0.32234 0.38341 0.06218 0.0
C9 C 0.32061 0.43913 0.99253 0.0
C10 C 0.28261 0.41806 0.9737 0.0
C11 C 0.26527 0.3793 -0.00186 0.0
C12 C 0.28517 0.36195 0.0424 0.0
H13 H 0.63726 0.55602 0.55086 0.0
H14 H 0.73852 0.65786 0.55126 0.0
H15 H 0.73258 0.56606 0.42361 0.0
H16 H 0.82322 0.58887 0.44671 0.0
C17 C 0.81733 0.62134 0.46715 0.0
O18 O 0.77412 0.63501 0.46123 0.0
H19 H 0.8239 0.61577 0.50891 0.0
C20 C 0.66663 0.57134 0.53296 0.0
C21 C 0.68242 0.55623 0.48448 0.0
C22 C 0.68659 0.60782 0.55733 0.0
C23 C 0.7231 0.62927 0.53313 0.0
C24 C 0.73965 0.61381 0.48511 0.0
C25 C 0.7195 0.57739 0.4609 0.0
H26 H 0.64131 0.45196 0.05498 0.0
H27 H 0.74182 0.34909 0.05702 0.0
H28 H 0.73952 0.44345 0.93064 0.0
H29 H 0.75653 0.35256 0.89728 0.0
C30 C 0.77084 0.33824 0.93297 0.0
O31 O 0.77868 0.37226 0.96763 0.0
H32 H 0.74615 0.31399 0.94991 0.0
C33 C 0.67115 0.43687 0.03794 0.0
C34 C 0.68808 0.45269 0.99011 0.0
C35 C 0.69033 0.39975 0.06244 0.0
C36 C 0.72724 0.37841 0.03905 0.0
C37 C 0.74484 0.3944 0.99161 0.0
C38 C 0.72577 0.4318 0.96758 0.0
H39 H 0.36808 0.56432 0.54919 0.0
H40 H 0.27063 0.58226 0.43218 0.0
H41 H 0.27782 0.67642 0.55753 0.0
H42 H 0.18721 0.64749 0.52734 0.0
C43 C 0.19314 0.64623 0.4846 0.0
O44 O 0.23698 0.65592 0.47234 0.0
H45 H 0.18535 0.61146 0.47179 0.0
C46 C 0.34026 0.58257 0.53357 0.0
C47 C 0.32456 0.6212 0.55925 0.0
C48 C 0.32165 0.5682 0.48734 0.0
C49 C 0.28626 0.59303 0.46722 0.0
C50 C 0.27058 0.632 0.49244 0.0
C51 C 0.29001 0.64631 0.53821 0.0
H52 H 0.87002 0.93792 0.04795 0.0
H53 H 0.7681 0.92943 0.93517 0.0
H54 H 0.77341 0.83163 0.05813 0.0
H55 H 0.75802 0.79701 0.95099 0.0
C56 C 0.73549 0.8242 0.93777 0.0
O57 O 0.73115 0.85701 0.97528 0.0
H58 H 0.7507 0.8391 0.9018 0.0
C59 C 0.84073 0.92176 0.03323 0.0
C60 C 0.82366 0.88349 0.05872 0.0
C61 C 0.82149 0.93855 0.98834 0.0
C62 C 0.78398 0.91673 0.96935 0.0
C63 C 0.7669 0.87804 0.99425 0.0
C64 C 0.78686 0.86132 0.03885 0.0
H65 H 0.13721 0.0604 0.55701 0.0
H66 H 0.23795 0.16251 0.54585 0.0
H67 H 0.21699 0.07525 0.41666 0.0
H68 H 0.3125 0.09391 0.42865 0.0
C69 C 0.30885 0.1239 0.45412 0.0
O70 O 0.26598 0.13989 0.45231 0.0
H71 H 0.3167 0.11312 0.49419 0.0
C72 C 0.16393 0.0768 0.53504 0.0
C73 C 0.17414 0.0631 0.48419 0.0
C74 C 0.18636 0.11275 0.5573 0.0
C75 C 0.22052 0.13449 0.5291 0.0
C76 C 0.23228 0.11982 0.479 0.0
C77 C 0.20877 0.08472 0.45627 0.0
H78 H 0.14358 0.95379 0.05956 0.0
H79 H 0.24101 0.84789 0.05759 0.0
H80 H 0.23658 0.94149 0.93041 0.0
H81 H 0.25403 0.84885 0.89826 0.0
C82 C 0.26899 0.83565 0.93412 0.0
O83 O 0.2768 0.87064 0.96747 0.0
H84 H 0.24491 0.81143 0.95231 0.0
C85 C 0.17239 0.93776 0.04126 0.0
C86 C 0.18839 0.9531 0.99282 0.0
C87 C 0.1912 0.90004 0.06488 0.0
C88 C 0.22666 0.87752 0.04004 0.0
C89 C 0.24322 0.89289 0.99183 0.0
C90 C 0.22412 0.93052 0.96822 0.0
H91 H 0.86865 0.06243 0.54854 0.0
H92 H 0.76938 0.08221 0.43405 0.0
H93 H 0.78008 0.1758 0.55954 0.0
H94 H 0.68827 0.14896 0.53145 0.0
C95 C 0.69351 0.14657 0.48868 0.0
O96 O 0.73722 0.15603 0.47544 0.0
H97 H 0.68543 0.1115 0.47727 0.0
C98 C 0.8408 0.08117 0.53373 0.0
C99 C 0.82617 0.11996 0.55989 0.0
C100 C 0.8211 0.06722 0.48798 0.0
C101 C 0.78574 0.09264 0.46877 0.0
C102 C 0.77101 0.13169 0.49453 0.0
C103 C 0.79152 0.14559 0.53982 0.0
Sc104 Sc 0.00524 0.79046 0.2951 0.0
Sc105 Sc 0.99893 0.90882 0.30077 0.0
Sc106 Sc 0.99459 0.84626 0.41607 0.0
O107 O 0.99953 0.84836 0.33738 0.0
C108 C 0.936 0.76139 0.3852 0.0
C109 C 0.93817 0.84938 0.22878 0.0
C110 C 0.92672 0.92571 0.39194 0.0
C111 C 0.0722 0.85547 0.23345 0.0
C112 C 0.06725 0.76998 0.39111 0.0
C113 C 0.05861 0.93051 0.39596 0.0
O114 O 0.95322 0.75744 0.33986 0.0
O115 O 0.95043 0.88644 0.24804 0.0
O116 O 0.93965 0.89348 0.42048 0.0
O117 O 0.05889 0.81614 0.24572 0.0
O118 O 0.04894 0.7993 0.42059 0.0
O119 O 0.04732 0.93741 0.34977 0.0
O120 O 0.05484 0.76274 0.34517 0.0
O121 O 0.0528 0.89091 0.24937 0.0
O122 O 0.04162 0.90016 0.42515 0.0
O123 O 0.95554 0.81168 0.24059 0.0
O124 O 0.94753 0.79187 0.41647 0.0
O125 O 0.94554 0.93492 0.34857 0.0
Sc126 Sc 0.00612 0.21369 0.79402 0.0
Sc127 Sc 0.00549 0.09527 0.80301 0.0
Sc128 Sc 0.99818 0.15959 0.91649 0.0
O129 O 0.00315 0.15626 0.83784 0.0
C130 C 0.06828 0.23769 0.88824 0.0
C131 C 0.07596 0.15093 0.73377 0.0
C132 C 0.06727 0.07876 0.89908 0.0
C133 C 0.94169 0.1512 0.72975 0.0
C134 C 0.93392 0.23923 0.88259 0.0
C135 C 0.93386 0.07667 0.89423 0.0
O136 O 0.05592 0.24297 0.84191 0.0
O137 O 0.0592 0.11473 0.7517 0.0
O138 O 0.04955 0.10983 0.92652 0.0
O139 O 0.95672 0.18985 0.74122 0.0
O140 O 0.94646 0.20962 0.91472 0.0
O141 O 0.95232 0.06804 0.85056 0.0
O142 O 0.95275 0.24476 0.8383 0.0
O143 O 0.95659 0.11484 0.7487 0.0
O144 O 0.94659 0.10887 0.92257 0.0
O145 O 0.05996 0.18954 0.74432 0.0
O146 O 0.04967 0.20982 0.91947 0.0
O147 O 0.05459 0.0696 0.85389 0.0
Sc148 Sc 0.50515 0.28959 0.29536 0.0
Sc149 Sc 0.49921 0.40786 0.30039 0.0
Sc150 Sc 0.49602 0.34597 0.41613 0.0
O151 O 0.50007 0.34763 0.33736 0.0
C152 C 0.4351 0.26275 0.38612 0.0
C153 C 0.43709 0.34843 0.23046 0.0
C154 C 0.42908 0.42681 0.39271 0.0
C155 C 0.57118 0.35396 0.23155 0.0
C156 C 0.56686 0.26761 0.391 0.0
C157 C 0.56206 0.42857 0.39387 0.0
O158 O 0.45349 0.2575 0.34151 0.0
O159 O 0.45002 0.38558 0.24875 0.0
O160 O 0.44309 0.39551 0.42184 0.0
O161 O 0.5581 0.31475 0.24463 0.0
O162 O 0.54812 0.29651 0.42065 0.0
O163 O 0.54815 0.43591 0.34878 0.0
O164 O 0.55547 0.26175 0.34443 0.0
O165 O 0.55238 0.38951 0.24819 0.0
O166 O 0.54618 0.39755 0.42318 0.0
O167 O 0.45465 0.31071 0.24177 0.0
O168 O 0.4463 0.29378 0.41692 0.0
O169 O 0.44636 0.4346 0.34823 0.0
Sc170 Sc 0.50431 0.71348 0.7938 0.0
Sc171 Sc 0.50147 0.59521 0.80236 0.0
Sc172 Sc 0.49822 0.65906 0.91629 0.0
O173 O 0.50125 0.65601 0.8375 0.0
C174 C 0.56837 0.73685 0.88654 0.0
C175 C 0.57138 0.64966 0.73095 0.0
C176 C 0.56566 0.57734 0.89601 0.0
C177 C 0.43756 0.65237 0.73086 0.0
C178 C 0.43362 0.73908 0.88402 0.0
C179 C 0.43228 0.57696 0.89603 0.0
O180 O 0.55534 0.74218 0.8405 0.0
O181 O 0.55419 0.6138 0.74929 0.0
O182 O 0.54966 0.60881 0.92431 0.0
O183 O 0.45377 0.69064 0.74182 0.0
O184 O 0.44653 0.70936 0.91586 0.0
O185 O 0.44903 0.56872 0.85142 0.0
O186 O 0.45194 0.74475 0.83946 0.0
O187 O 0.45176 0.61572 0.74974 0.0
O188 O 0.44648 0.60858 0.92422 0.0
O189 O 0.55696 0.68862 0.74284 0.0
O190 O 0.55003 0.70906 0.91806 0.0
O191 O 0.55117 0.56867 0.85154 0.0
C192 C 0.16763 0.31693 0.88466 0.0
C193 C 0.18976 0.30563 0.93 0.0
C194 C 0.1277 0.29587 0.87237 0.0
C195 C 0.10809 0.26285 0.90515 0.0
H196 H 0.18183 0.34152 0.85784 0.0
H197 H 0.11263 0.30503 0.83629 0.0
S198 S 0.15185 0.22425 0.03101 0.0
N199 N 0.18841 0.26177 0.0094 0.0
N200 N 0.11341 0.22194 0.98692 0.0
C201 C 0.12921 0.25272 0.95188 0.0
C202 C 0.16995 0.2742 0.96416 0.0
C203 C 0.86532 0.6897 0.4776 0.0
C204 C 0.84772 0.65702 0.445 0.0
C205 C 0.89287 0.72391 0.45765 0.0
C206 C 0.90363 0.72696 0.4042 0.0
H207 H 0.85798 0.68861 0.51893 0.0
H208 H 0.90642 0.74764 0.48468 0.0
S209 S 0.8615 0.65176 0.30211 0.0
N210 N 0.83972 0.6313 0.35675 0.0
N211 N 0.89155 0.69556 0.31869 0.0
C212 C 0.88478 0.69518 0.37098 0.0
C213 C 0.85671 0.66033 0.39149 0.0
C214 C 0.82571 0.27617 0.94895 0.0
C215 C 0.81361 0.31413 0.92004 0.0
C216 C 0.86514 0.25279 0.93725 0.0
C217 C 0.89408 0.2667 0.89632 0.0
H218 H 0.80422 0.26411 0.98044 0.0
H219 H 0.87242 0.22305 0.95991 0.0
S220 S 0.87927 0.36756 0.81285 0.0
N221 N 0.83474 0.367 0.85179 0.0
N222 N 0.909 0.32329 0.82934 0.0
C223 C 0.88297 0.30581 0.86839 0.0
C224 C 0.8428 0.32958 0.8805 0.0
C225 C 0.14119 0.66825 0.41371 0.0
C226 C 0.16331 0.67984 0.45888 0.0
C227 C 0.11136 0.69821 0.391 0.0
C228 C 0.10255 0.74094 0.41261 0.0
H229 H 0.14623 0.63537 0.39645 0.0
H230 H 0.09407 0.68714 0.3572 0.0
S231 S 0.1568 0.7893 0.52703 0.0
N232 N 0.17788 0.73809 0.52164 0.0
N233 N 0.12192 0.79463 0.47932 0.0
C234 C 0.12624 0.75364 0.45645 0.0
C235 C 0.15667 0.72311 0.47937 0.0
C236 C 0.66978 0.81353 0.88038 0.0
C237 C 0.6907 0.80417 0.92709 0.0
C238 C 0.62962 0.79274 0.86839 0.0
C239 C 0.60856 0.76186 0.90278 0.0
H240 H 0.68508 0.83637 0.85231 0.0
H241 H 0.61554 0.80034 0.83128 0.0
S242 S 0.64882 0.72897 0.0324 0.0
N243 N 0.68672 0.76444 0.00925 0.0
N244 N 0.61125 0.72523 0.98743 0.0
C245 C 0.62853 0.7537 0.95072 0.0
C246 C 0.66949 0.7749 0.96269 0.0
C247 C 0.36044 0.15966 0.38726 0.0
C248 C 0.34041 0.16053 0.43702 0.0
C249 C 0.39019 0.19337 0.37091 0.0
C250 C 0.40086 0.22949 0.4036 0.0
H251 H 0.35344 0.13245 0.36093 0.0
H252 H 0.40531 0.19059 0.33244 0.0
S253 S 0.3537 0.24849 0.53657 0.0
N254 N 0.33068 0.20108 0.51789 0.0
N255 N 0.3865 0.26484 0.48763 0.0
C256 C 0.37969 0.23133 0.45308 0.0
C257 C 0.34946 0.19682 0.46961 0.0
C258 C 0.32496 0.77459 0.95054 0.0
C259 C 0.31207 0.81207 0.92124 0.0
C260 C 0.36487 0.75196 0.93908 0.0
C261 C 0.39355 0.76616 0.89804 0.0
H262 H 0.30371 0.76234 0.98215 0.0
H263 H 0.37271 0.72251 0.96195 0.0
S264 S 0.37674 0.8661 0.81366 0.0
N265 N 0.3322 0.86487 0.85256 0.0
N266 N 0.40735 0.8226 0.83059 0.0
C267 C 0.38166 0.80486 0.86978 0.0
C268 C 0.34099 0.82784 0.88161 0.0
C269 C 0.6435 0.2149 0.48897 0.0
C270 C 0.66324 0.17895 0.46161 0.0
C271 C 0.61338 0.24387 0.46535 0.0
C272 C 0.60187 0.23829 0.41318 0.0
H273 H 0.65072 0.22016 0.52932 0.0
H274 H 0.59847 0.27041 0.48873 0.0
S275 S 0.64836 0.15131 0.32348 0.0
N276 N 0.67212 0.14088 0.37903 0.0
N277 N 0.61557 0.19516 0.33409 0.0
C278 C 0.62301 0.20337 0.38481 0.0
C279 C 0.6537 0.17385 0.4091 0.0
C280 C 0.35756 0.51473 0.99365 0.0
C281 C 0.34224 0.47788 0.96511 0.0
C282 C 0.38463 0.54796 0.97043 0.0
C283 C 0.3976 0.54574 0.91763 0.0
H284 H 0.34981 0.51707 0.03481 0.0
H285 H 0.39697 0.5745 0.99475 0.0
S286 S 0.36201 0.4587 0.8244 0.0
N287 N 0.33918 0.44285 0.88045 0.0
N288 N 0.38888 0.50573 0.83625 0.0
C289 C 0.37994 0.5106 0.88786 0.0
C290 C 0.35254 0.47663 0.91169 0.0
C291 C 0.64306 0.48215 0.485 0.0
C292 C 0.65738 0.52082 0.45766 0.0
C293 C 0.61344 0.45172 0.46346 0.0
C294 C 0.59695 0.45877 0.41366 0.0
H295 H 0.65386 0.47605 0.52403 0.0
H296 H 0.60256 0.42314 0.48672 0.0
S297 S 0.62682 0.55378 0.32478 0.0
N298 N 0.65454 0.56375 0.37758 0.0
N299 N 0.59983 0.5063 0.33623 0.0
C300 C 0.61285 0.49632 0.3849 0.0
C301 C 0.64286 0.52736 0.40707 0.0
C302 C 0.64748 0.52623 0.98879 0.0
C303 C 0.663 0.48776 0.96223 0.0
C304 C 0.61734 0.5559 0.96638 0.0
C305 C 0.60137 0.5482 0.91651 0.0
H306 H 0.65766 0.53267 0.02794 0.0
H307 H 0.6055 0.5843 0.98913 0.0
S308 S 0.63457 0.4536 0.82936 0.0
N309 N 0.66203 0.4445 0.88266 0.0
N310 N 0.60625 0.50048 0.83978 0.0
C311 C 0.61855 0.51095 0.88849 0.0
C312 C 0.64915 0.48072 0.91149 0.0
C313 C 0.35385 0.49023 0.4882 0.0
C314 C 0.34142 0.52861 0.45981 0.0
C315 C 0.37992 0.45604 0.46545 0.0
C316 C 0.39457 0.45869 0.41322 0.0
H317 H 0.34482 0.48741 0.52902 0.0
H318 H 0.39029 0.42842 0.48979 0.0
S319 S 0.3657 0.54922 0.31995 0.0
N320 N 0.34234 0.5653 0.37549 0.0
N321 N 0.38978 0.50052 0.33204 0.0
C322 C 0.37928 0.4952 0.3833 0.0
C323 C 0.35308 0.53022 0.40671 0.0
C324 C 0.85668 0.01491 0.98953 0.0
C325 C 0.84275 0.97749 0.96097 0.0
C326 C 0.88407 0.04816 0.96692 0.0
C327 C 0.89881 0.04535 0.91473 0.0
H328 H 0.84773 0.01761 0.03037 0.0
H329 H 0.89534 0.07512 0.99135 0.0
S330 S 0.86696 0.95683 0.82138 0.0
N331 N 0.84252 0.94144 0.87673 0.0
N332 N 0.89304 0.00426 0.8336 0.0
C333 C 0.88242 0.00968 0.88476 0.0
C334 C 0.85461 0.97574 0.90798 0.0
C335 C 0.09945 0.03151 0.46698 0.0
C336 C 0.14597 0.02859 0.46006 0.0
C337 C 0.07156 0.99896 0.4467 0.0
C338 C 0.08912 0.96267 0.41834 0.0
H339 H 0.08437 0.05938 0.48802 0.0
H340 H 0.03595 0.00246 0.45274 0.0
S341 S 0.20775 0.93899 0.38841 0.0
N342 N 0.20812 0.98575 0.4229 0.0
N343 N 0.15496 0.9252 0.38321 0.0
C344 C 0.1352 0.95931 0.41026 0.0
C345 C 0.16385 0.99224 0.43142 0.0
C346 C 0.14723 0.9813 0.91699 0.0
C347 C 0.16399 0.9893 0.9662 0.0
C348 C 0.11725 0.01127 0.8949 0.0
C349 C 0.10278 0.05044 0.92122 0.0
H350 H 0.15553 0.95047 0.89653 0.0
H351 H 0.10411 0.00261 0.85768 0.0
S352 S 0.14272 0.08984 0.04797 0.0
N353 N 0.16828 0.04124 0.03823 0.0
N354 N 0.11192 0.09788 -0.00301 0.0
C355 C 0.12163 0.06017 0.96918 0.0
C356 C 0.15219 0.02953 0.99159 0.0
C357 C 0.85167 0.98864 0.48784 0.0
C358 C 0.8398 0.02745 0.45991 0.0
C359 C 0.87724 0.95431 0.46466 0.0
C360 C 0.89198 0.9573 0.41247 0.0
H361 H 0.84276 0.98568 0.52869 0.0
H362 H 0.88739 0.92641 0.48873 0.0
S363 S 0.86409 0.04897 0.32028 0.0
N364 N 0.84096 0.06485 0.37602 0.0
N365 N 0.8876 0.99985 0.33176 0.0
C366 C 0.87706 0.99422 0.38296 0.0
C367 C 0.85131 0.02935 0.4068 0.0
C368 C 0.37372 0.33128 0.10747 0.0
C369 C 0.34348 0.3674 0.10959 0.0
C370 C 0.40209 0.32283 0.14866 0.0
C371 C 0.40121 0.35066 0.19269 0.0
H372 H 0.37735 0.31131 0.07258 0.0
H373 H 0.42679 0.29643 0.14444 0.0
S374 S 0.32324 0.44539 0.21926 0.0
N375 N 0.31091 0.42791 0.16083 0.0
N376 N 0.36367 0.4122 0.2383 0.0
C377 C 0.36868 0.38472 0.19652 0.0
C378 C 0.33998 0.39311 0.15486 0.0
C379 C 0.66036 0.59361 0.64778 0.0
C380 C 0.66655 0.62413 0.60659 0.0
C381 C 0.63177 0.60369 0.68973 0.0
C382 C 0.60804 0.6446 0.69189 0.0
H383 H 0.67578 0.56062 0.64605 0.0
H384 H 0.62657 0.57819 0.71943 0.0
S385 S 0.61696 0.73788 0.59602 0.0
N386 N 0.6503 0.69834 0.5722 0.0
N387 N 0.59628 0.7177 0.65138 0.0
C388 C 0.61675 0.67692 0.65284 0.0
C389 C 0.64607 0.66654 0.61001 0.0
C390 C 0.66144 0.41202 0.15214 0.0
C391 C 0.66886 0.3824 0.1106 0.0
C392 C 0.63199 0.40092 0.193 0.0
C393 C 0.60863 0.35985 0.1937 0.0
H394 H 0.67664 0.44509 0.15157 0.0
H395 H 0.62589 0.42576 0.22303 0.0
S396 S 0.62038 0.2687 0.09641 0.0
N397 N 0.65394 0.30883 0.07433 0.0
N398 N 0.5983 0.28763 0.15153 0.0
C399 C 0.61844 0.32841 0.15435 0.0
C400 C 0.64863 0.33982 0.11259 0.0
C401 C 0.37239 0.67303 0.60941 0.0
C402 C 0.34551 0.63444 0.60784 0.0
C403 C 0.40032 0.6804 0.65116 0.0
C404 C 0.40229 0.64921 0.69229 0.0
H405 H 0.37383 0.69613 0.57682 0.0
H406 H 0.42238 0.70918 0.6496 0.0
S407 S 0.3325 0.54689 0.70969 0.0
N408 N 0.31843 0.56778 0.65316 0.0
N409 N 0.3703 0.58149 0.73173 0.0
C410 C 0.37287 0.61236 0.69271 0.0
C411 C 0.34466 0.60499 0.6504 0.0
C412 C 0.84704 0.89813 0.14818 0.0
C413 C 0.84511 0.86822 0.10641 0.0
C414 C 0.87528 0.89003 0.18907 0.0
C415 C 0.90309 0.85181 0.18971 0.0
H416 H 0.82815 0.92923 0.14791 0.0
H417 H 0.87665 0.91508 0.21938 0.0
S418 S 0.9071 0.76103 0.09129 0.0
N419 N 0.8704 0.79732 0.06948 0.0
N420 N 0.92392 0.78176 0.14662 0.0
C421 C 0.89921 0.82001 0.14978 0.0
C422 C 0.87015 0.82835 0.10798 0.0
C423 C 0.14599 0.16928 0.61154 0.0
C424 C 0.17025 0.1289 0.60833 0.0
C425 C 0.11796 0.17829 0.65468 0.0
C426 C 0.11327 0.14691 0.69551 0.0
H427 H 0.14578 0.19215 0.57874 0.0
H428 H 0.0973 0.20816 0.65403 0.0
S429 S 0.17708 0.04073 0.70948 0.0
N430 N 0.19322 0.06079 0.65221 0.0
N431 N 0.14103 0.07761 0.73365 0.0
C432 C 0.14099 0.10869 0.69484 0.0
C433 C 0.16939 0.09967 0.65107 0.0
C434 C 0.14672 0.84237 0.11383 0.0
C435 C 0.17052 0.88306 0.11357 0.0
C436 C 0.11706 0.83155 0.15503 0.0
C437 C 0.11035 0.86134 0.19678 0.0
H438 H 0.14859 0.82046 0.08038 0.0
H439 H 0.09702 0.80144 0.15231 0.0
S440 S 0.17148 0.96776 0.21829 0.0
N441 N 0.19028 0.94995 0.16119 0.0
N442 N 0.1351 0.92967 0.23894 0.0
C443 C 0.13714 0.90005 0.19891 0.0
C444 C 0.16711 0.91094 0.15713 0.0
C445 C 0.87508 0.1715 0.60916 0.0
C446 C 0.84832 0.1328 0.6079 0.0
C447 C 0.90367 0.1788 0.65031 0.0
C448 C 0.90647 0.14742 0.69117 0.0
H449 H 0.87577 0.19484 0.57679 0.0
H450 H 0.92542 0.20781 0.6486 0.0
S451 S 0.83751 0.04461 0.70932 0.0
N452 N 0.82239 0.06572 0.65332 0.0
N453 N 0.87557 0.07926 0.73071 0.0
C454 C 0.87738 0.11031 0.69185 0.0
C455 C 0.84845 0.10303 0.65017 0.0
loop_
_geom_bond_atom_site_label_1
_geom_bond_atom_site_label_2
_geom_bond_distance
_geom_bond_site_symmetry_2
_ccdc_geom_bond_type
H0 C7 0.929 . S
H1 C10 0.930 . S
H2 C12 0.929 . S
H3 C4 0.969 . S
C4 H3 0.969 . S
C4 O5 1.550 1_556 S
C4 H6 0.973 . S
O5 C4 1.550 1_554 S
O5 C11 1.412 . S
H6 C4 0.973 . S
C7 H0 0.929 . S
C7 C8 1.400 . S
C7 C9 1.364 1_554 S
C8 C7 1.400 . S
C8 C12 1.377 . S
C9 C7 1.364 1_556 S
C9 C10 1.374 . S
C10 H1 0.930 . S
C10 C9 1.374 . S
C10 C11 1.383 1_556 S
C11 O5 1.412 . S
C11 C10 1.383 1_554 S
C11 C12 1.394 . S
C12 H2 0.929 . S
C12 C8 1.377 . S
C12 C11 1.394 . S
H13 C20 0.929 . S
H14 C23 0.930 . S
H15 C25 0.929 . S
H16 C17 0.969 . S
C17 H16 0.969 . S
C17 O18 1.550 . S
C17 H19 0.973 . S
O18 C17 1.550 . S
O18 C24 1.412 . S
H19 C17 0.973 . S
C20 H13 0.929 . S
C20 C21 1.400 . S
C20 C22 1.364 . S
C21 C20 1.400 . S
C21 C25 1.377 . S
C22 C20 1.364 . S
C22 C23 1.374 . S
C23 H14 0.930 . S
C23 C22 1.374 . S
C23 C24 1.383 . S
C24 O18 1.412 . S
C24 C23 1.383 . S
C24 C25 1.394 . S
C25 H15 0.929 . S
C25 C21 1.377 . S
C25 C24 1.394 . S
H26 C33 0.929 . S
H27 C36 0.930 . S
H28 C38 0.929 . S
H29 C30 0.969 . S
C30 H29 0.969 . S
C30 O31 1.550 . S
C30 H32 0.973 1_556 S
O31 C30 1.550 . S
O31 C37 1.412 . S
H32 C30 0.973 1_554 S
C33 H26 0.929 . S
C33 C34 1.400 1_554 S
C33 C35 1.364 . S
C34 C33 1.400 1_556 S
C34 C38 1.377 . S
C35 C33 1.364 . S
C35 C36 1.374 . S
C36 H27 0.930 . S
C36 C35 1.374 . S
C36 C37 1.383 1_554 S
C37 O31 1.412 . S
C37 C36 1.383 1_556 S
C37 C38 1.394 . S
C38 H28 0.929 . S
C38 C34 1.377 . S
C38 C37 1.394 . S
H39 C46 0.929 . S
H40 C49 0.930 . S
H41 C51 0.929 . S
H42 C43 0.969 . S
C43 H42 0.969 . S
C43 O44 1.550 . S
C43 H45 0.973 . S
O44 C43 1.550 . S
O44 C50 1.412 . S
H45 C43 0.973 . S
C46 H39 0.929 . S
C46 C47 1.400 . S
C46 C48 1.364 . S
C47 C46 1.400 . S
C47 C51 1.377 . S
C48 C46 1.364 . S
C48 C49 1.374 . S
C49 H40 0.930 . S
C49 C48 1.374 . S
C49 C50 1.383 . S
C50 O44 1.412 . S
C50 C49 1.383 . S
C50 C51 1.394 . S
C51 H41 0.929 . S
C51 C47 1.377 . S
C51 C50 1.394 . S
H52 C59 0.929 . S
H53 C62 0.930 . S
H54 C64 0.929 . S
H55 C56 0.969 . S
C56 H55 0.969 . S
C56 O57 1.550 1_556 S
C56 H58 0.973 . S
O57 C56 1.550 1_554 S
O57 C63 1.412 . S
H58 C56 0.973 . S
C59 H52 0.929 . S
C59 C60 1.400 . S
C59 C61 1.364 1_554 S
C60 C59 1.400 . S
C60 C64 1.377 . S
C61 C59 1.364 1_556 S
C61 C62 1.374 . S
C62 H53 0.930 . S
C62 C61 1.374 . S
C62 C63 1.383 1_556 S
C63 O57 1.412 . S
C63 C62 1.383 1_554 S
C63 C64 1.394 . S
C64 H54 0.929 . S
C64 C60 1.377 . S
C64 C63 1.394 . S
H65 C72 0.929 . S
H66 C75 0.930 . S
H67 C77 0.929 . S
H68 C69 0.969 . S
C69 H68 0.969 . S
C69 O70 1.550 . S
C69 H71 0.973 . S
O70 C69 1.550 . S
O70 C76 1.412 . S
H71 C69 0.973 . S
C72 H65 0.929 . S
C72 C73 1.400 . S
C72 C74 1.364 . S
C73 C72 1.400 . S
C73 C77 1.377 . S
C74 C72 1.364 . S
C74 C75 1.374 . S
C75 H66 0.930 . S
C75 C74 1.374 . S
C75 C76 1.383 . S
C76 O70 1.412 . S
C76 C75 1.383 . S
C76 C77 1.394 . S
C77 H67 0.929 . S
C77 C73 1.377 . S
C77 C76 1.394 . S
H78 C85 0.929 . S
H79 C88 0.930 . S
H80 C90 0.929 . S
H81 C82 0.969 . S
C82 H81 0.969 . S
C82 O83 1.550 . S
C82 H84 0.973 1_556 S
O83 C82 1.550 . S
O83 C89 1.412 . S
H84 C82 0.973 1_554 S
C85 H78 0.929 . S
C85 C86 1.400 1_554 S
C85 C87 1.364 . S
C86 C85 1.400 1_556 S
C86 C90 1.377 . S
C87 C85 1.364 . S
C87 C88 1.374 . S
C88 H79 0.930 . S
C88 C87 1.374 . S
C88 C89 1.383 1_554 S
C89 O83 1.412 . S
C89 C88 1.383 1_556 S
C89 C90 1.394 . S
C90 H80 0.929 . S
C90 C86 1.377 . S
C90 C89 1.394 . S
H91 C98 0.929 . S
H92 C101 0.930 . S
H93 C103 0.929 . S
H94 C95 0.969 . S
C95 H94 0.969 . S
C95 O96 1.550 . S
C95 H97 0.973 . S
O96 C95 1.550 . S
O96 C102 1.412 . S
H97 C95 0.973 . S
C98 H91 0.929 . S
C98 C99 1.400 . S
C98 C100 1.364 . S
C99 C98 1.400 . S
C99 C103 1.377 . S
C100 C98 1.364 . S
C100 C101 1.374 . S
C101 H92 0.930 . S
C101 C100 1.374 . S
C101 C102 1.383 . S
C102 O96 1.412 . S
C102 C101 1.383 . S
C102 C103 1.394 . S
C103 H93 0.929 . S
C103 C99 1.377 . S
C103 C102 1.394 . S
Sc104 O107 2.025 . S
Sc104 O114 2.105 1_455 S
Sc104 O117 2.105 . S
Sc104 O120 2.105 . S
Sc104 O123 2.105 1_455 S
Sc105 O107 2.025 . S
Sc105 O115 2.105 1_455 S
Sc105 O119 2.105 . S
Sc105 O121 2.105 . S
Sc105 O125 2.105 1_455 S
Sc106 O107 2.025 . S
Sc106 O116 2.106 1_455 S
Sc106 O118 2.104 . S
Sc106 O122 2.104 . S
Sc106 O124 2.106 1_455 S
O107 Sc104 2.025 . S
O107 Sc105 2.025 . S
O107 Sc106 2.025 . S
C108 O114 1.268 . S
C108 O124 1.268 . S
C109 O115 1.268 . S
C109 O123 1.268 . S
C110 O116 1.268 . S
C110 O125 1.268 . S
C111 O117 1.268 . S
C111 O121 1.268 . S
C112 O118 1.268 . S
C112 O120 1.268 . S
C113 O119 1.268 . S
C113 O122 1.268 . S
O114 Sc104 2.105 1_655 S
O114 C108 1.268 . S
O115 Sc105 2.105 1_655 S
O115 C109 1.268 . S
O116 Sc106 2.106 1_655 S
O116 C110 1.268 . S
O117 Sc104 2.105 . S
O117 C111 1.268 . S
O118 Sc106 2.104 . S
O118 C112 1.268 . S
O119 Sc105 2.105 . S
O119 C113 1.268 . S
O120 Sc104 2.105 . S
O120 C112 1.268 . S
O121 Sc105 2.105 . S
O121 C111 1.268 . S
O122 Sc106 2.104 . S
O122 C113 1.268 . S
O123 Sc104 2.105 1_655 S
O123 C109 1.268 . S
O124 Sc106 2.106 1_655 S
O124 C108 1.268 . S
O125 Sc105 2.105 1_655 S
O125 C110 1.268 . S
Sc126 O129 2.025 . S
Sc126 O136 2.105 . S
Sc126 O139 2.105 1_455 S
Sc126 O142 2.105 1_455 S
Sc126 O145 2.105 . S
Sc127 O129 2.025 . S
Sc127 O137 2.105 . S
Sc127 O141 2.105 1_455 S
Sc127 O143 2.105 1_455 S
Sc127 O147 2.105 . S
Sc128 O129 2.025 . S
Sc128 O138 2.104 . S
Sc128 O140 2.106 1_455 S
Sc128 O144 2.106 1_455 S
Sc128 O146 2.104 . S
O129 Sc126 2.025 . S
O129 Sc127 2.025 . S
O129 Sc128 2.025 . S
C130 O136 1.268 . S
C130 O146 1.268 . S
C131 O137 1.268 . S
C131 O145 1.268 . S
C132 O138 1.268 . S
C132 O147 1.268 . S
C133 O139 1.268 . S
C133 O143 1.268 . S
C134 O140 1.268 . S
C134 O142 1.268 . S
C135 O141 1.268 . S
C135 O144 1.268 . S
O136 Sc126 2.105 . S
O136 C130 1.268 . S
O137 Sc127 2.105 . S
O137 C131 1.268 . S
O138 Sc128 2.104 . S
O138 C132 1.268 . S
O139 Sc126 2.105 1_655 S
O139 C133 1.268 . S
O140 Sc128 2.106 1_655 S
O140 C134 1.268 . S
O141 Sc127 2.105 1_655 S
O141 C135 1.268 . S
O142 Sc126 2.105 1_655 S
O142 C134 1.268 . S
O143 Sc127 2.105 1_655 S
O143 C133 1.268 . S
O144 Sc128 2.106 1_655 S
O144 C135 1.268 . S
O145 Sc126 2.105 . S
O145 C131 1.268 . S
O146 Sc128 2.104 . S
O146 C130 1.268 . S
O147 Sc127 2.105 . S
O147 C132 1.268 . S
Sc148 O151 2.025 . S
Sc148 O158 2.105 . S
Sc148 O161 2.105 . S
Sc148 O164 2.105 . S
Sc148 O167 2.105 . S
Sc149 O151 2.025 . S
Sc149 O159 2.105 . S
Sc149 O163 2.105 . S
Sc149 O165 2.105 . S
Sc149 O169 2.105 . S
Sc150 O151 2.025 . S
Sc150 O160 2.105 . S
Sc150 O162 2.105 . S
Sc150 O166 2.105 . S
Sc150 O168 2.105 . S
O151 Sc148 2.025 . S
O151 Sc149 2.025 . S
O151 Sc150 2.025 . S
C152 O158 1.268 . S
C152 O168 1.268 . S
C153 O159 1.268 . S
C153 O167 1.268 . S
C154 O160 1.268 . S
C154 O169 1.268 . S
C155 O161 1.268 . S
C155 O165 1.268 . S
C156 O162 1.268 . S
C156 O164 1.268 . S
C157 O163 1.268 . S
C157 O166 1.268 . S
O158 Sc148 2.105 . S
O158 C152 1.268 . S
O159 Sc149 2.105 . S
O159 C153 1.268 . S
O160 Sc150 2.105 . S
O160 C154 1.268 . S
O161 Sc148 2.105 . S
O161 C155 1.268 . S
O162 Sc150 2.105 . S
O162 C156 1.268 . S
O163 Sc149 2.105 . S
O163 C157 1.268 . S
O164 Sc148 2.105 . S
O164 C156 1.268 . S
O165 Sc149 2.105 . S
O165 C155 1.268 . S
O166 Sc150 2.105 . S
O166 C157 1.268 . S
O167 Sc148 2.105 . S
O167 C153 1.268 . S
O168 Sc150 2.105 . S
O168 C152 1.268 . S
O169 Sc149 2.105 . S
O169 C154 1.268 . S
Sc170 O173 2.025 . S
Sc170 O180 2.105 . S
Sc170 O183 2.105 . S
Sc170 O186 2.105 . S
Sc170 O189 2.105 . S
Sc171 O173 2.025 . S
Sc171 O181 2.105 . S
Sc171 O185 2.105 . S
Sc171 O187 2.105 . S
Sc171 O191 2.105 . S
Sc172 O173 2.025 . S
Sc172 O182 2.105 . S
Sc172 O184 2.105 . S
Sc172 O188 2.105 . S
Sc172 O190 2.105 . S
O173 Sc170 2.025 . S
O173 Sc171 2.025 . S
O173 Sc172 2.025 . S
C174 O180 1.268 . S
C174 O190 1.268 . S
C175 O181 1.268 . S
C175 O189 1.268 . S
C176 O182 1.268 . S
C176 O191 1.268 . S
C177 O183 1.268 . S
C177 O187 1.268 . S
C178 O184 1.268 . S
C178 O186 1.268 . S
C179 O185 1.268 . S
C179 O188 1.268 . S
O180 Sc170 2.105 . S
O180 C174 1.268 . S
O181 Sc171 2.105 . S
O181 C175 1.268 . S
O182 Sc172 2.105 . S
O182 C176 1.268 . S
O183 Sc170 2.105 . S
O183 C177 1.268 . S
O184 Sc172 2.105 . S
O184 C178 1.268 . S
O185 Sc171 2.105 . S
O185 C179 1.268 . S
O186 Sc170 2.105 . S
O186 C178 1.268 . S
O187 Sc171 2.105 . S
O187 C177 1.268 . S
O188 Sc172 2.105 . S
O188 C179 1.268 . S
O189 Sc170 2.105 . S
O189 C175 1.268 . S
O190 Sc172 2.105 . S
O190 C174 1.268 . S
O191 Sc171 2.105 . S
O191 C176 1.268 . S
C192 C193 1.369 . S
C192 C194 1.419 . S
C192 H196 0.930 . S
C193 C192 1.369 . S
C193 C202 1.429 . S
C194 C192 1.419 . S
C194 C195 1.363 . S
C194 H197 0.929 . S
C195 C194 1.363 . S
C195 C201 1.428 . S
H196 C192 0.930 . S
H197 C194 0.929 . S
S198 N199 1.613 . S
S198 N200 1.610 . S
N199 S198 1.613 . S
N199 C202 1.350 . S
N200 S198 1.610 . S
N200 C201 1.351 . S
C201 C195 1.428 . S
C201 N200 1.351 . S
C201 C202 1.434 . S
C202 C193 1.429 . S
C202 N199 1.350 . S
C202 C201 1.434 . S
C203 C204 1.369 . S
C203 C205 1.419 . S
C203 H207 0.930 . S
C204 C203 1.369 . S
C204 C213 1.429 . S
C205 C203 1.419 . S
C205 C206 1.363 . S
C205 H208 0.929 . S
C206 C205 1.363 . S
C206 C212 1.428 . S
H207 C203 0.930 . S
H208 C205 0.929 . S
S209 N210 1.613 . S
S209 N211 1.610 . S
N210 S209 1.613 . S
N210 C213 1.350 . S
N211 S209 1.610 . S
N211 C212 1.351 . S
C212 C206 1.428 . S
C212 N211 1.351 . S
C212 C213 1.434 . S
C213 C204 1.429 . S
C213 N210 1.350 . S
C213 C212 1.434 . S
C214 C215 1.369 . S
C214 C216 1.419 . S
C214 H218 0.930 . S
C215 C214 1.369 . S
C215 C224 1.429 . S
C216 C214 1.419 . S
C216 C217 1.363 . S
C216 H219 0.929 . S
C217 C216 1.363 . S
C217 C223 1.428 . S
H218 C214 0.930 . S
H219 C216 0.929 . S
S220 N221 1.613 . S
S220 N222 1.610 . S
N221 S220 1.613 . S
N221 C224 1.350 . S
N222 S220 1.610 . S
N222 C223 1.351 . S
C223 C217 1.428 . S
C223 N222 1.351 . S
C223 C224 1.434 . S
C224 C215 1.429 . S
C224 N221 1.350 . S
C224 C223 1.434 . S
C225 C226 1.369 . S
C225 C227 1.419 . S
C225 H229 0.930 . S
C226 C225 1.369 . S
C226 C235 1.429 . S
C227 C225 1.419 . S
C227 C228 1.363 . S
C227 H230 0.929 . S
C228 C227 1.363 . S
C228 C234 1.428 . S
H229 C225 0.930 . S
H230 C227 0.929 . S
S231 N232 1.613 . S
S231 N233 1.610 . S
N232 S231 1.613 . S
N232 C235 1.350 . S
N233 S231 1.610 . S
N233 C234 1.351 . S
C234 C228 1.428 . S
C234 N233 1.351 . S
C234 C235 1.434 . S
C235 C226 1.429 . S
C235 N232 1.350 . S
C235 C234 1.434 . S
C236 C237 1.369 . S
C236 C238 1.419 . S
C236 H240 0.930 . S
C237 C236 1.369 . S
C237 C246 1.429 . S
C238 C236 1.419 . S
C238 C239 1.363 . S
C238 H241 0.929 . S
C239 C238 1.363 . S
C239 C245 1.428 . S
H240 C236 0.930 . S
H241 C238 0.929 . S
S242 N243 1.613 . S
S242 N244 1.610 . S
N243 S242 1.613 . S
N243 C246 1.350 . S
N244 S242 1.610 . S
N244 C245 1.351 . S
C245 C239 1.428 . S
C245 N244 1.351 . S
C245 C246 1.434 . S
C246 C237 1.429 . S
C246 N243 1.350 . S
C246 C245 1.434 . S
C247 C248 1.369 . S
C247 C249 1.419 . S
C247 H251 0.930 . S
C248 C247 1.369 . S
C248 C257 1.429 . S
C249 C247 1.419 . S
C249 C250 1.363 . S
C249 H252 0.929 . S
C250 C249 1.363 . S
C250 C256 1.428 . S
H251 C247 0.930 . S
H252 C249 0.929 . S
S253 N254 1.613 . S
S253 N255 1.610 . S
N254 S253 1.613 . S
N254 C257 1.350 . S
N255 S253 1.610 . S
N255 C256 1.351 . S
C256 C250 1.428 . S
C256 N255 1.351 . S
C256 C257 1.434 . S
C257 C248 1.429 . S
C257 N254 1.350 . S
C257 C256 1.434 . S
C258 C259 1.369 . S
C258 C260 1.419 . S
C258 H262 0.930 1_556 S
C259 C258 1.369 . S
C259 C268 1.429 . S
C260 C258 1.419 . S
C260 C261 1.363 . S
C260 H263 0.929 . S
C261 C260 1.363 . S
C261 C267 1.428 . S
H262 C258 0.930 1_554 S
H263 C260 0.929 . S
S264 N265 1.613 . S
S264 N266 1.610 . S
N265 S264 1.613 . S
N265 C268 1.350 . S
N266 S264 1.610 . S
N266 C267 1.351 . S
C267 C261 1.428 . S
C267 N266 1.351 . S
C267 C268 1.434 . S
C268 C259 1.429 . S
C268 N265 1.350 . S
C268 C267 1.434 . S
C269 C270 1.369 . S
C269 C271 1.419 . S
C269 H273 0.930 . S
C270 C269 1.369 . S
C270 C279 1.429 . S
C271 C269 1.419 . S
C271 C272 1.363 . S
C271 H274 0.929 . S
C272 C271 1.363 . S
C272 C278 1.428 . S
H273 C269 0.930 . S
H274 C271 0.929 . S
S275 N276 1.613 . S
S275 N277 1.610 . S
N276 S275 1.613 . S
N276 C279 1.350 . S
N277 S275 1.610 . S
N277 C278 1.351 . S
C278 C272 1.428 . S
C278 N277 1.351 . S
C278 C279 1.434 . S
C279 C270 1.429 . S
C279 N276 1.350 . S
C279 C278 1.434 . S
C280 C281 1.369 . S
C280 C282 1.419 . S
C280 H284 0.930 1_556 S
C281 C280 1.369 . S
C281 C290 1.429 . S
C282 C280 1.419 . S
C282 C283 1.363 . S
C282 H285 0.929 . S
C283 C282 1.363 . S
C283 C289 1.428 . S
H284 C280 0.930 1_554 S
H285 C282 0.929 . S
S286 N287 1.613 . S
S286 N288 1.610 . S
N287 S286 1.613 . S
N287 C290 1.350 . S
N288 S286 1.610 . S
N288 C289 1.351 . S
C289 C283 1.428 . S
C289 N288 1.351 . S
C289 C290 1.434 . S
C290 C281 1.429 . S
C290 N287 1.350 . S
C290 C289 1.434 . S
C291 C292 1.369 . S
C291 C293 1.419 . S
C291 H295 0.930 . S
C292 C291 1.369 . S
C292 C301 1.429 . S
C293 C291 1.419 . S
C293 C294 1.363 . S
C293 H296 0.929 . S
C294 C293 1.363 . S
C294 C300 1.428 . S
H295 C291 0.930 . S
H296 C293 0.929 . S
S297 N298 1.613 . S
S297 N299 1.610 . S
N298 S297 1.613 . S
N298 C301 1.350 . S
N299 S297 1.610 . S
N299 C300 1.351 . S
C300 C294 1.428 . S
C300 N299 1.351 . S
C300 C301 1.434 . S
C301 C292 1.429 . S
C301 N298 1.350 . S
C301 C300 1.434 . S
C302 C303 1.369 . S
C302 C304 1.419 . S
C302 H306 0.930 . S
C303 C302 1.369 . S
C303 C312 1.429 . S
C304 C302 1.419 . S
C304 C305 1.363 . S
C304 H307 0.929 . S
C305 C304 1.363 . S
C305 C311 1.428 . S
H306 C302 0.930 . S
H307 C304 0.929 . S
S308 N309 1.613 . S
S308 N310 1.610 . S
N309 S308 1.613 . S
N309 C312 1.350 . S
N310 S308 1.610 . S
N310 C311 1.351 . S
C311 C305 1.428 . S
C311 N310 1.351 . S
C311 C312 1.434 . S
C312 C303 1.429 . S
C312 N309 1.350 . S
C312 C311 1.434 . S
C313 C314 1.369 . S
C313 C315 1.419 . S
C313 H317 0.930 . S
C314 C313 1.369 . S
C314 C323 1.429 . S
C315 C313 1.419 . S
C315 C316 1.363 . S
C315 H318 0.929 . S
C316 C315 1.363 . S
C316 C322 1.428 . S
H317 C313 0.930 . S
H318 C315 0.929 . S
S319 N320 1.613 . S
S319 N321 1.610 . S
N320 S319 1.613 . S
N320 C323 1.350 . S
N321 S319 1.610 . S
N321 C322 1.351 . S
C322 C316 1.428 . S
C322 N321 1.351 . S
C322 C323 1.434 . S
C323 C314 1.429 . S
C323 N320 1.350 . S
C323 C322 1.434 . S
C324 C325 1.369 . S
C324 C326 1.419 1_565 S
C324 H328 0.930 . S
C325 C324 1.369 . S
C325 C334 1.429 . S
C326 C324 1.419 1_545 S
C326 C327 1.363 . S
C326 H329 0.929 . S
C327 C326 1.363 . S
C327 C333 1.432 . S
H328 C324 0.930 . S
H329 C326 0.929 . S
S330 N331 1.613 . S
S330 N332 1.610 1_564 S
N331 S330 1.613 . S
N331 C334 1.350 1_554 S
N332 S330 1.610 1_546 S
N332 C333 1.351 . S
C333 C327 1.432 . S
C333 N332 1.351 . S
C333 C334 1.430 1_545 S
C334 C325 1.429 . S
C334 N331 1.350 1_556 S
C334 C333 1.430 1_565 S
C335 C336 1.369 . S
C335 C337 1.419 1_545 S
C335 H339 0.930 . S
C336 C335 1.369 . S
C336 C345 1.429 . S
C337 C335 1.419 1_565 S
C337 C338 1.363 . S
C337 H340 0.929 . S
C338 C337 1.363 . S
C338 C344 1.428 . S
H339 C335 0.930 . S
H340 C337 0.929 . S
S341 N342 1.613 1_565 S
S341 N343 1.610 . S
N342 S341 1.613 1_545 S
N342 C345 1.350 . S
N343 S341 1.610 . S
N343 C344 1.351 . S
C344 C338 1.428 . S
C344 N343 1.351 . S
C344 C345 1.434 1_565 S
C345 C336 1.429 . S
C345 N342 1.350 . S
C345 C344 1.434 1_545 S
C346 C347 1.369 . S
C346 C348 1.419 . S
C346 H350 0.930 . S
C347 C346 1.369 . S
C347 C356 1.429 1_565 S
C348 C346 1.419 . S
C348 C349 1.363 1_565 S
C348 H351 0.929 . S
C349 C348 1.363 1_545 S
C349 C355 1.428 . S
H350 C346 0.930 . S
H351 C348 0.929 . S
S352 N353 1.613 . S
S352 N354 1.610 . S
N353 S352 1.613 . S
N353 C356 1.350 . S
N354 S352 1.610 . S
N354 C355 1.351 . S
C355 C349 1.428 . S
C355 N354 1.351 . S
C355 C356 1.434 . S
C356 C347 1.429 1_545 S
C356 N353 1.350 . S
C356 C355 1.434 . S
C357 C358 1.369 1_565 S
C357 C359 1.419 . S
C357 H361 0.930 . S
C358 C357 1.369 1_545 S
C358 C367 1.429 . S
C359 C357 1.419 . S
C359 C360 1.363 . S
C359 H362 0.929 . S
C360 C359 1.363 . S
C360 C366 1.428 1_565 S
H361 C357 0.930 . S
H362 C359 0.929 . S
S363 N364 1.613 . S
S363 N365 1.610 . S
N364 S363 1.613 . S
N364 C367 1.350 . S
N365 S363 1.610 . S
N365 C366 1.351 . S
C366 C360 1.428 1_545 S
C366 N365 1.351 . S
C366 C367 1.434 . S
C367 C358 1.429 . S
C367 N364 1.350 . S
C367 C366 1.434 . S
C368 C369 1.369 . S
C368 C370 1.419 . S
C368 H372 0.930 . S
C369 C368 1.369 . S
C369 C378 1.429 . S
C370 C368 1.419 . S
C370 C371 1.363 . S
C370 H373 0.929 . S
C371 C370 1.363 . S
C371 C377 1.428 . S
H372 C368 0.930 . S
H373 C370 0.929 . S
S374 N375 1.613 . S
S374 N376 1.610 . S
N375 S374 1.613 . S
N375 C378 1.350 . S
N376 S374 1.610 . S
N376 C377 1.351 . S
C377 C371 1.428 . S
C377 N376 1.351 . S
C377 C378 1.434 . S
C378 C369 1.429 . S
C378 N375 1.350 . S
C378 C377 1.434 . S
C379 C380 1.369 . S
C379 C381 1.419 . S
C379 H383 0.930 . S
C380 C379 1.369 . S
C380 C389 1.429 . S
C381 C379 1.419 . S
C381 C382 1.363 . S
C381 H384 0.929 . S
C382 C381 1.363 . S
C382 C388 1.428 . S
H383 C379 0.930 . S
H384 C381 0.929 . S
S385 N386 1.613 . S
S385 N387 1.610 . S
N386 S385 1.613 . S
N386 C389 1.350 . S
N387 S385 1.610 . S
N387 C388 1.351 . S
C388 C382 1.428 . S
C388 N387 1.351 . S
C388 C389 1.434 . S
C389 C380 1.429 . S
C389 N386 1.350 . S
C389 C388 1.434 . S
C390 C391 1.369 . S
C390 C392 1.419 . S
C390 H394 0.930 . S
C391 C390 1.369 . S
C391 C400 1.429 . S
C392 C390 1.419 . S
C392 C393 1.363 . S
C392 H395 0.929 . S
C393 C392 1.363 . S
C393 C399 1.428 . S
H394 C390 0.930 . S
H395 C392 0.929 . S
S396 N397 1.613 . S
S396 N398 1.610 . S
N397 S396 1.613 . S
N397 C400 1.350 . S
N398 S396 1.610 . S
N398 C399 1.351 . S
C399 C393 1.428 . S
C399 N398 1.351 . S
C399 C400 1.434 . S
C400 C391 1.429 . S
C400 N397 1.350 . S
C400 C399 1.434 . S
C401 C402 1.369 . S
C401 C403 1.419 . S
C401 H405 0.930 . S
C402 C401 1.369 . S
C402 C411 1.429 . S
C403 C401 1.419 . S
C403 C404 1.363 . S
C403 H406 0.929 . S
C404 C403 1.363 . S
C404 C410 1.428 . S
H405 C401 0.930 . S
H406 C403 0.929 . S
S407 N408 1.613 . S
S407 N409 1.610 . S
N408 S407 1.613 . S
N408 C411 1.350 . S
N409 S407 1.610 . S
N409 C410 1.351 . S
C410 C404 1.428 . S
C410 N409 1.351 . S
C410 C411 1.434 . S
C411 C402 1.429 . S
C411 N408 1.350 . S
C411 C410 1.434 . S
C412 C413 1.369 . S
C412 C414 1.419 . S
C412 H416 0.930 . S
C413 C412 1.369 . S
C413 C422 1.429 . S
C414 C412 1.419 . S
C414 C415 1.363 . S
C414 H417 0.929 . S
C415 C414 1.363 . S
C415 C421 1.428 . S
H416 C412 0.930 . S
H417 C414 0.929 . S
S418 N419 1.613 . S
S418 N420 1.610 . S
N419 S418 1.613 . S
N419 C422 1.350 . S
N420 S418 1.610 . S
N420 C421 1.351 . S
C421 C415 1.428 . S
C421 N420 1.351 . S
C421 C422 1.434 . S
C422 C413 1.429 . S
C422 N419 1.350 . S
C422 C421 1.434 . S
C423 C424 1.369 . S
C423 C425 1.419 . S
C423 H427 0.930 . S
C424 C423 1.369 . S
C424 C433 1.429 . S
C425 C423 1.419 . S
C425 C426 1.363 . S
C425 H428 0.929 . S
C426 C425 1.363 . S
C426 C432 1.428 . S
H427 C423 0.930 . S
H428 C425 0.929 . S
S429 N430 1.613 . S
S429 N431 1.610 . S
N430 S429 1.613 . S
N430 C433 1.350 . S
N431 S429 1.610 . S
N431 C432 1.351 . S
C432 C426 1.428 . S
C432 N431 1.351 . S
C432 C433 1.434 . S
C433 C424 1.429 . S
C433 N430 1.350 . S
C433 C432 1.434 . S
C434 C435 1.369 . S
C434 C436 1.419 . S
C434 H438 0.930 . S
C435 C434 1.369 . S
C435 C444 1.429 . S
C436 C434 1.419 . S
C436 C437 1.363 . S
C436 H439 0.929 . S
C437 C436 1.363 . S
C437 C443 1.428 . S
H438 C434 0.930 . S
H439 C436 0.929 . S
S440 N441 1.613 . S
S440 N442 1.610 . S
N441 S440 1.613 . S
N441 C444 1.350 . S
N442 S440 1.610 . S
N442 C443 1.351 . S
C443 C437 1.428 . S
C443 N442 1.351 . S
C443 C444 1.434 . S
C444 C435 1.429 . S
C444 N441 1.350 . S
C444 C443 1.434 . S
C445 C446 1.369 . S
C445 C447 1.419 . S
C445 H449 0.930 . S
C446 C445 1.369 . S
C446 C455 1.429 . S
C447 C445 1.419 . S
C447 C448 1.363 . S
C447 H450 0.929 . S
C448 C447 1.363 . S
C448 C454 1.428 . S
H449 C445 0.930 . S
H450 C447 0.929 . S
S451 N452 1.613 . S
S451 N453 1.610 . S
N452 S451 1.613 . S
N452 C455 1.350 . S
N453 S451 1.610 . S
N453 C454 1.351 . S
C454 C448 1.428 . S
C454 N453 1.351 . S
C454 C455 1.434 . S
C455 C446 1.429 . S
C455 N452 1.350 . S
C455 C454 1.434 . S
C193 C4 1.512 . S
C195 C130 1.571 . S
C206 C108 1.461 . S
C204 C17 1.472 . S
C217 C134 1.458 . S
C215 C30 1.419 . S
C228 C112 1.569 . S
C226 C43 1.573 . S
C239 C174 1.571 . S
C237 C56 1.514 . S
C250 C152 1.463 . S
C248 C69 1.467 . S
C259 C82 1.410 . S
C261 C178 1.463 . S
C272 C156 1.567 . S
C270 C95 1.566 . S
C281 C9 1.538 . S
C283 C179 1.563 . S
C294 C157 1.451 . S
C292 C21 1.450 . S
C303 C34 1.442 . S
C305 C176 1.449 . S
C314 C48 1.542 . S
C316 C154 1.564 . S
C327 C135 1.561 . S
C325 C61 1.533 . S
C336 C73 1.451 . S
C338 C113 1.452 . S
C349 C132 1.451 . S
C347 C86 1.447 . S
C360 C110 1.563 . S
C358 C100 1.540 . S
C371 C153 1.502 . S
C369 C8 1.497 . S
C382 C175 1.505 . S
C380 C22 1.489 . S
C391 C35 1.482 . S
C393 C155 1.503 . S
C404 C177 1.500 . S
C402 C47 1.501 . S
C415 C109 1.500 . S
C413 C60 1.494 . S
C424 C74 1.487 . S
C426 C131 1.504 . S
C435 C87 1.484 . S
C437 C111 1.504 . S
C446 C99 1.502 . S
C448 C133 1.502 . S
