# Generated by pormake.
# Topology zzz, (3,6)-cn, num edge types: 1
# Building blocks:
#     Node 0, Type 0, BuildingBlock: CUQRIR_clean_linker_1, # of connection points: 3
#     Node 1, Type 0, BuildingBlock: CUQRIR_clean_linker_1, # of connection points: 3
#     Node 2, Type 0, BuildingBlock: CUQRIR_clean_linker_1, # of connection points: 3
#     Node 3, Type 0, BuildingBlock: CUQRIR_clean_linker_1, # of connection points: 3
#     Node 4, Type 0, BuildingBlock: CUQRIR_clean_linker_1, # of connection points: 3
#     Node 5, Type 0, BuildingBlock: CUQRIR_clean_linker_1, # of connection points: 3
#     Node 6, Type 0, BuildingBlock: CUQRIR_clean_linker_1, # of connection points: 3
#     Node 7, Type 0, BuildingBlock: CUQRIR_clean_linker_1, # of connection points: 3
#     Node 8, Type 1, BuildingBlock: KUMJIN_clean_sbu_1, # of connection points: 6
#     Node 9, Type 1, BuildingBlock: KUMJIN_clean_sbu_1, # of connection points: 6
#     Node 10, Type 1, BuildingBlock: KUMJIN_clean_sbu_1, # of connection points: 6
#     Node 11, Type 1, BuildingBlock: KUMJIN_clean_sbu_1, # of connection points: 6
#     Edge 12, Type (0, 1), BuildingBlock: XUDNAN_clean_linker_2, # of connection points: 2
#     Edge 13, Type (0, 1), BuildingBlock: XUDNAN_clean_linker_2, # of connection points: 2
#     Edge 14, Type (0, 1), BuildingBlock: XUDNAN_clean_linker_2, # of connection points: 2
#     Edge 15, Type (0, 1), BuildingBlock: XUDNAN_clean_linker_2, # of connection points: 2
#     Edge 16, Type (0, 1), BuildingBlock: XUDNAN_clean_linker_2, # of connection points: 2
#     Edge 17, Type (0, 1), BuildingBlock: XUDNAN_clean_linker_2, # of connection points: 2
#     Edge 18, Type (0, 1), BuildingBlock: XUDNAN_clean_linker_2, # of connection points: 2
#     Edge 19, Type (0, 1), BuildingBlock: XUDNAN_clean_linker_2, # of connection points: 2
#     Edge 20, Type (0, 1), BuildingBlock: XUDNAN_clean_linker_2, # of connection points: 2
#     Edge 21, Type (0, 1), BuildingBlock: XUDNAN_clean_linker_2, # of connection points: 2
#     Edge 22, Type (0, 1), BuildingBlock: XUDNAN_clean_linker_2, # of connection points: 2
#     Edge 23, Type (0, 1), BuildingBlock: XUDNAN_clean_linker_2, # of connection points: 2
#     Edge 24, Type (0, 1), BuildingBlock: XUDNAN_clean_linker_2, # of connection points: 2
#     Edge 25, Type (0, 1), BuildingBlock: XUDNAN_clean_linker_2, # of connection points: 2
#     Edge 26, Type (0, 1), BuildingBlock: XUDNAN_clean_linker_2, # of connection points: 2
#     Edge 27, Type (0, 1), BuildingBlock: XUDNAN_clean_linker_2, # of connection points: 2
#     Edge 28, Type (0, 1), BuildingBlock: XUDNAN_clean_linker_2, # of connection points: 2
#     Edge 29, Type (0, 1), BuildingBlock: XUDNAN_clean_linker_2, # of connection points: 2
#     Edge 30, Type (0, 1), BuildingBlock: XUDNAN_clean_linker_2, # of connection points: 2
#     Edge 31, Type (0, 1), BuildingBlock: XUDNAN_clean_linker_2, # of connection points: 2
#     Edge 32, Type (0, 1), BuildingBlock: XUDNAN_clean_linker_2, # of connection points: 2
#     Edge 33, Type (0, 1), BuildingBlock: XUDNAN_clean_linker_2, # of connection points: 2
#     Edge 34, Type (0, 1), BuildingBlock: XUDNAN_clean_linker_2, # of connection points: 2
#     Edge 35, Type (0, 1), BuildingBlock: XUDNAN_clean_linker_2, # of connection points: 2
# Relax obj value: 0.217
# Max RMSD: 0.113
# Mean RMSD: 0.089
data_MOF--net-zzz--node1-KUMJIN_clean_sbu_1--node2-CUQRIR_clean_linker_1--edge1-XUDNAN_clean_linker_2
_symmetry_space_group_name_H-M    P1
_symmetry_Int_Tables_number       1
_symmetry_cell_setting            triclinic
loop_
_symmetry_equiv_pos_as_xyz
'x, y, z'
_cell_length_a     46.749101
_cell_length_b     46.96402
_cell_length_c     14.286847
_cell_angle_alpha  89.783014
_cell_angle_beta   89.876106
_cell_angle_gamma 89.967062
loop_
_atom_site_label
_atom_site_type_symbol
_atom_site_fract_x
_atom_site_fract_y
_atom_site_fract_z
_atom_type_partial_charge
C0 C 0.75739 0.52515 0.2888 0.0
N1 N 0.78306 0.53917 0.29648 0.0
N2 N 0.74321 0.53249 0.20801 0.0
C3 C 0.74584 0.50501 0.36109 0.0
C4 C 0.76176 0.55061 0.16589 0.0
N5 N 0.78508 0.55581 0.22057 0.0
C6 C 0.75943 0.55852 0.06365 0.0
H7 H 0.75387 0.48328 0.34578 0.0
H8 H 0.72211 0.5046 0.35929 0.0
H9 H 0.75332 0.51107 0.43194 0.0
H10 H 0.74605 0.57789 0.05575 0.0
H11 H 0.74891 0.54121 0.02381 0.0
H12 H 0.78081 0.56225 0.03232 0.0
C13 C 0.03381 0.76289 0.31264 0.0
N14 N 1.01645 0.78411 0.3468 0.0
N15 N 0.01848 0.74151 0.27008 0.0
C16 C 0.06581 0.7635 0.31797 0.0
C17 C 0.99118 0.7511 0.27854 0.0
N18 N 0.9899 0.77678 0.32253 0.0
C19 C 0.96603 0.73747 0.23043 0.0
H20 H 0.0743 0.77569 0.25736 0.0
H21 H 0.07466 0.74158 0.31548 0.0
H22 H 0.07281 0.77428 0.38301 0.0
H23 H 0.96289 0.71561 0.25806 0.0
H24 H 0.9704 0.73582 0.15424 0.0
H25 H 0.94594 0.74957 0.24169 0.0
C26 C 0.79785 0.9979 0.35628 0.0
N27 N 0.77059 1.00802 0.37084 0.0
N28 N 0.81055 1.01033 0.27902 0.0
C29 C 0.81193 0.97588 0.4165 0.0
C30 C 0.78998 0.02846 0.24861 0.0
N31 N 0.76629 0.02703 0.30331 0.0
C32 C 0.79304 0.04718 0.1636 0.0
H33 H 0.83554 0.97834 0.41478 0.0
H34 H 0.8065 0.95447 0.3892 0.0
H35 H 0.80395 0.97734 0.48956 0.0
H36 H 0.79463 0.03358 0.10046 0.0
H37 H 0.81317 0.05961 0.16835 0.0
H38 H 0.77471 0.06198 0.15557 0.0
C39 C 0.54445 0.78522 0.29207 0.0
N40 N 0.55408 0.75756 0.28867 0.0
N41 N 0.55124 0.80031 0.21212 0.0
C42 C 0.52772 0.79701 0.37272 0.0
C43 C 0.56379 0.78009 0.15831 0.0
N44 N 0.5683 0.75538 0.20738 0.0
C45 C 0.56027 0.78113 0.05291 0.0
H46 H 0.50454 0.79539 0.35704 0.0
H47 H 0.5332 0.81972 0.38406 0.0
H48 H 0.53207 0.78473 0.43763 0.0
H49 H 0.58017 0.7889 0.01902 0.0
H50 H 0.54278 0.79583 0.03225 0.0
H51 H 0.55427 0.75999 0.02506 0.0
C52 C 0.2956 0.50365 0.08135 0.0
N53 N 0.26639 0.50673 0.09198 0.0
N54 N 0.30959 0.50274 0.16651 0.0
C55 C 0.31047 0.50251 0.98861 0.0
C56 C 0.28761 0.50399 0.22802 0.0
N57 N 0.26215 0.5065 0.18384 0.0
C58 C 0.29082 0.50254 0.33321 0.0
H59 H 0.31241 0.47994 0.96691 0.0
H60 H 0.33231 0.51162 0.99391 0.0
H61 H 0.29796 0.51412 0.93464 0.0
H62 H 0.31016 0.49036 0.3537 0.0
H63 H 0.27207 0.4922 0.36645 0.0
H64 H 0.29242 0.52447 0.3613 0.0
C65 C 0.04039 0.30138 0.10724 0.0
N66 N 0.03564 0.27238 0.11738 0.0
N67 N 0.03663 0.31599 0.1905 0.0
C68 C 0.04726 0.31574 0.01622 0.0
C69 C 0.0303 0.29476 0.25104 0.0
N70 N 0.02948 0.26922 0.20769 0.0
C71 C 0.02677 0.2986 0.35547 0.0
H72 H 0.0708 0.31576 1.00612 0.0
H73 H 0.03977 0.33817 0.01679 0.0
H74 H 0.03732 0.30415 0.9571 0.0
H75 H 1.00402 0.30338 0.37111 0.0
H76 H 0.04012 0.31641 0.3814 0.0
H77 H 0.03277 0.27905 0.3946 0.0
C78 C 0.24941 0.04672 0.0961 0.0
N79 N 0.27551 0.03445 0.07612 0.0
N80 N 0.23598 0.03368 0.17133 0.0
C81 C 0.23813 0.07247 0.04639 0.0
C82 C 0.25519 1.01327 0.19548 0.0
N83 N 0.27852 1.01382 0.13916 0.0
C84 C 0.25168 0.99287 0.27611 0.0
H85 H 0.25042 0.09141 0.06915 0.0
H86 H 0.21523 0.07606 0.06241 0.0
H87 H 0.24131 0.07012 0.96981 0.0
H88 H 0.22888 0.98694 0.28563 0.0
H89 H 0.25933 1.0032 0.34112 0.0
H90 H 0.26452 0.9733 0.26472 0.0
C91 C 0.49414 0.24462 0.06068 0.0
N92 N 0.49848 0.27355 0.06996 0.0
N93 N 0.48812 0.23164 0.14527 0.0
C94 C 0.49683 0.22854 0.97084 0.0
C95 C 0.48904 0.25391 0.20485 0.0
N96 N 0.49722 0.27836 0.16149 0.0
C97 C 0.48821 0.25049 0.30994 0.0
H98 H 0.48803 0.24123 0.91192 0.0
H99 H 0.48546 0.20784 0.97584 0.0
H100 H 0.51978 0.22421 0.95685 0.0
H101 H 0.5094 0.24298 0.33488 0.0
H102 H 0.47191 0.23449 0.33065 0.0
H103 H 0.48319 0.27104 0.34436 0.0
Eu104 Eu 0.9975 0.0345 0.67617 0.0
C105 C 0.12219 0.03659 0.86799 0.0
N106 N 0.10717 0.0167 0.82035 0.0
C107 C 0.15053 0.99836 0.75404 0.0
C108 C 0.15203 0.03914 0.85675 0.0
C109 C 0.12091 0.99684 0.76709 0.0
C110 C 0.16609 0.02004 0.79731 0.0
C111 C 0.12329 0.07126 0.99292 0.0
C112 C 0.10804 0.05234 0.93514 0.0
C113 C 0.1526 0.07571 0.97671 0.0
C114 C 0.16698 0.05961 0.90879 0.0
Eu115 Eu 0.05703 1.01626 0.84207 0.0
N116 N 0.07995 0.04687 0.95039 0.0
C117 C 0.10897 0.08389 0.0683 0.0
C118 C 0.06657 0.05719 0.02844 0.0
C119 C 0.08065 0.07631 0.08736 0.0
H120 H 0.10882 0.98024 0.73302 0.0
H121 H 0.06971 0.08504 0.14766 0.0
H122 H 0.94675 0.9847 0.66713 0.0
H123 H 0.03319 0.10688 0.39741 0.0
H124 H 0.04475 0.05112 0.04396 0.0
H125 H 0.11996 0.09843 0.11467 0.0
H126 H 0.02438 0.09218 0.5606 0.0
H127 H 0.1613 0.98291 0.71038 0.0
H128 H 0.16458 0.09052 0.01934 0.0
H129 H 0.18984 0.06226 0.89992 0.0
H130 H 0.92037 0.95726 0.54694 0.0
H131 H 0.18904 0.02117 0.78716 0.0
H132 H 1.01658 0.07652 0.26707 0.0
N133 N 0.96982 1.00916 0.56717 0.0
C134 C 0.97426 1.01533 0.47564 0.0
C135 C 0.93561 0.97342 0.52595 0.0
C136 C 0.96043 0.99981 0.40479 0.0
C137 C 0.95048 0.98894 0.59364 0.0
C138 C 0.94072 0.97876 0.43105 0.0
N139 N 1.00234 0.05414 0.52362 0.0
C140 C 1.01625 0.07915 0.50466 0.0
C141 C 0.99651 0.04556 0.35885 0.0
C142 C 0.99144 0.03829 0.45312 0.0
C143 C 1.01221 0.07022 0.33875 0.0
C144 C 0.02155 0.08744 0.41207 0.0
H145 H 0.92923 0.96668 0.37874 0.0
H146 H 0.95711 0.99359 0.25487 0.0
H147 H 0.99063 0.03253 0.21558 0.0
O148 O 0.95506 0.053 0.65308 0.0
O149 O 1.00414 0.98602 0.68686 0.0
O150 O 0.0522 0.98522 0.71526 0.0
O151 O 0.97707 0.06019 0.78356 0.0
O152 O 0.04056 0.03381 0.59478 0.0
O153 O 0.07756 0.03029 0.70137 0.0
O154 O 0.03806 0.97663 0.89459 0.0
O155 O 0.03674 0.0602 0.8683 0.0
O156 O 0.0269 0.07249 0.71862 0.0
O157 O 0.07854 0.99143 0.94949 0.0
O158 O 1.01297 0.02784 0.90367 0.0
O159 O 0.98567 1.00492 0.79948 0.0
C160 C 0.02903 0.97302 0.67974 0.0
C161 C 0.94682 0.09578 0.7342 0.0
C162 C 0.95848 0.14362 0.68399 0.0
C163 C 0.93757 0.15454 0.74482 0.0
C164 C 0.92628 0.10655 0.79627 0.0
C165 C 0.92158 0.13595 0.80112 0.0
C166 C 0.96272 0.11428 0.67879 0.0
C167 C 0.06831 0.03379 0.61452 0.0
C168 C 0.95445 0.06576 0.73424 0.0
C169 C 0.96666 1.00593 0.31057 0.0
C170 C 0.98536 0.02828 0.28797 0.0
C171 C 0.03314 0.08021 0.80517 0.0
C172 C 0.04587 0.97202 0.05877 0.0
C173 C 1.01137 0.9514 0.16912 0.0
C174 C 0.02701 0.96349 0.24341 0.0
C175 C 0.06091 0.98391 0.13431 0.0
C176 C 0.02052 0.95698 0.07663 0.0
C177 C 0.0512 0.97999 0.22572 0.0
C178 C 0.98905 1.01398 0.88587 0.0
C179 C 0.05687 0.97446 0.9618 0.0
H180 H 0.93381 0.17726 0.74914 0.0
H181 H 0.91427 0.09234 0.84153 0.0
H182 H 0.90573 0.14435 0.84894 0.0
H183 H 0.97848 0.10565 0.63111 0.0
H184 H 0.02156 0.95941 0.31579 0.0
H185 H 0.08039 0.99596 0.12321 0.0
H186 H 1.00849 0.94896 0.01775 0.0
H187 H 0.06309 0.98884 0.28357 0.0
Eu188 Eu 0.53472 0.05189 0.78858 0.0
C189 C 0.48826 0.9291 0.6413 0.0
N190 N 0.5108 0.94389 0.60714 0.0
C191 C 0.52944 0.90143 0.53647 0.0
C192 C 0.48468 0.89993 0.62096 0.0
C193 C 0.53213 0.93022 0.55956 0.0
C194 C 0.50525 0.88634 0.56552 0.0
C195 C 0.44952 0.92663 0.75281 0.0
C196 C 0.47086 0.94242 0.7053 0.0
C197 C 0.44404 0.89835 0.7267 0.0
C198 C 0.46164 0.88498 0.66069 0.0
Eu199 Eu 0.51169 0.99387 0.63032 0.0
N200 N 0.47774 0.96939 0.73108 0.0
C201 C 0.43601 0.93888 0.83002 0.0
C202 C 0.46759 0.97923 0.81509 0.0
C203 C 0.44583 0.9649 0.86318 0.0
H204 H 0.5509 0.94179 0.53689 0.0
H205 H 0.43703 0.9738 0.92668 0.0
H206 H 0.5037 0.11304 0.86038 0.0
H207 H 0.60145 0.05119 0.46493 0.0
H208 H 0.4762 0.99809 0.84661 0.0
H209 H 0.41956 0.92753 0.86853 0.0
H210 H 0.56114 0.03614 0.56307 0.0
H211 H 0.54599 0.89091 0.49635 0.0
H212 H 0.42739 0.88612 0.76115 0.0
H213 H 0.45821 0.86271 0.64472 0.0
H214 H 0.51728 0.16349 0.87876 0.0
H215 H 0.5033 0.86398 0.54831 0.0
H216 H 0.62756 0.09537 0.50322 0.0
N217 N 0.5418 0.10188 0.78723 0.0
C218 C 0.56587 0.11148 0.74473 0.0
C219 C 0.5313 0.14904 0.84162 0.0
C220 C 0.57429 0.14023 0.75225 0.0
C221 C 0.52371 0.12043 0.83112 0.0
C222 C 0.55707 0.15885 0.80394 0.0
N223 N 0.56784 0.06741 0.66825 0.0
C224 C 0.57372 0.05385 0.58551 0.0
C225 C 0.60194 0.10404 0.62598 0.0
C226 C 0.57972 0.09341 0.68359 0.0
C227 C 0.61093 0.08775 0.54976 0.0
C228 C 0.59618 0.0629 0.52776 0.0
H229 H 0.56277 0.18109 0.81133 0.0
H230 H 0.60568 0.17168 0.70965 0.0
H231 H 0.62979 0.13997 0.59789 0.0
O232 O 0.55983 0.06757 0.90785 0.0
O233 O 0.51193 0.07522 0.66944 0.0
O234 O 0.50708 0.03934 0.56114 0.0
O235 O 0.51376 0.06419 0.91802 0.0
O236 O 0.57657 0.0265 0.75872 0.0
O237 O 0.56095 0.99314 0.65167 0.0
O238 O 0.49251 0.97669 0.50294 0.0
O239 O 0.53627 0.97297 0.74953 0.0
O240 O 0.52921 1.00723 0.86066 0.0
O241 O 0.53578 0.99385 0.50008 0.0
O242 O 0.46954 0.01779 0.67292 0.0
O243 O 0.48558 0.04999 0.78305 0.0
C244 C 0.50615 0.06686 0.58361 0.0
C245 C 0.53846 0.06793 0.06223 0.0
C246 C 0.56644 0.06558 0.20495 0.0
C247 C 0.54154 0.06781 0.25884 0.0
C248 C 0.51348 0.07079 0.11685 0.0
C249 C 0.51506 0.07043 0.21466 0.0
C250 C 0.56484 0.06543 0.10711 0.0
C251 C 0.58201 1.00564 0.69851 0.0
C252 C 0.53721 0.07161 0.95987 0.0
C253 C 0.59854 0.14983 0.7034 0.0
C254 C 0.61236 0.13172 0.64012 0.0
C255 C 0.53496 0.9804 0.83779 0.0
C256 C 0.51178 0.99205 0.35497 0.0
C257 C 0.48121 1.00122 0.22147 0.0
C258 C 0.5052 1.00295 0.16298 0.0
C259 C 0.53586 0.99377 0.29598 0.0
C260 C 0.4846 0.99617 0.31733 0.0
C261 C 0.53253 0.99929 0.20038 0.0
C262 C 0.46435 0.0375 0.73786 0.0
C263 C 0.51517 0.98235 0.45208 0.0
H264 H 0.54265 0.06709 0.3344 0.0
H265 H 0.49278 0.07349 0.08409 0.0
H266 H 0.49575 0.07205 0.25617 0.0
H267 H 0.58437 0.06415 0.0662 0.0
H268 H 0.50276 1.00742 0.08915 0.0
H269 H 0.55717 0.99024 0.3234 0.0
H270 H 0.46583 0.994 0.36157 0.0
H271 H 0.55109 1.00049 0.15514 0.0
Eu272 Eu 0.55695 0.50868 0.57854 0.0
C273 C 0.47262 0.48866 0.92129 0.0
N274 N 0.46945 0.49671 0.83031 0.0
C275 C 0.42626 0.46946 0.8191 0.0
C276 C 0.45297 0.46977 0.96375 0.0
C277 C 0.44635 0.48801 0.77964 0.0
C278 C 0.42964 0.46018 0.91134 0.0
C279 C 0.49953 0.49079 0.0662 0.0
C280 C 0.49545 0.49949 0.97244 0.0
C281 C 0.48058 0.47124 0.10743 0.0
C282 C 0.45719 0.46102 0.05676 0.0
Eu283 Eu 0.50379 0.52883 0.77098 0.0
N284 N 0.51287 0.51935 0.93221 0.0
C285 C 0.52221 0.50246 0.11671 0.0
C286 C 0.53293 0.53304 0.98526 0.0
C287 C 0.53867 0.52404 0.07654 0.0
H288 H 0.44319 0.49541 0.7089 0.0
H289 H 0.55552 0.53412 0.11632 0.0
H290 H 0.61123 0.53727 0.71205 0.0
H291 H 0.51384 0.54644 0.24599 0.0
H292 H 0.54494 0.55083 0.95797 0.0
H293 H 0.52644 0.49577 0.18802 0.0
H294 H 0.5195 0.51289 0.37789 0.0
H295 H 0.40809 0.46242 0.77845 0.0
H296 H 0.48362 0.46423 0.17903 0.0
H297 H 0.44255 0.44622 0.09002 0.0
H298 H 0.63934 0.58096 0.71782 0.0
H299 H 0.41404 0.44577 0.94163 0.0
H300 H 0.54491 0.58871 0.23391 0.0
N301 N 0.58671 0.54963 0.59329 0.0
C302 C 0.58628 0.56746 0.5173 0.0
C303 C 0.62393 0.57786 0.66232 0.0
C304 C 0.60364 0.59208 0.51442 0.0
C305 C 0.60678 0.55352 0.66147 0.0
C306 C 0.622 0.59749 0.58932 0.0
N307 N 0.55094 0.53806 0.44622 0.0
C308 C 0.53246 0.53187 0.3753 0.0
C309 C 0.5668 0.5801 0.36452 0.0
C310 C 0.56832 0.56133 0.44164 0.0
C311 C 0.54713 0.57445 0.29323 0.0
C312 C 0.52963 0.55049 0.29945 0.0
H313 H 0.63556 0.6162 0.58972 0.0
H314 H 0.61589 0.62915 0.43299 0.0
H315 H 0.58315 0.61885 0.30351 0.0
O316 O 0.56886 0.4806 0.46315 0.0
O317 O 0.52694 0.54768 0.56647 0.0
O318 O 0.53012 0.56623 0.70924 0.0
O319 O 0.6016 0.50281 0.54036 0.0
O320 O 0.51293 0.49154 0.53562 0.0
O321 O 0.48239 0.51869 0.62777 0.0
O322 O 0.47875 0.55337 0.87114 0.0
O323 O 0.50867 0.47963 0.76473 0.0
O324 O 0.54488 0.46745 0.66049 0.0
O325 O 0.47342 0.56127 0.72314 0.0
O326 O 0.55152 0.5362 0.80312 0.0
O327 O 0.57281 0.49955 0.72743 0.0
C328 C 0.52837 0.57062 0.61861 0.0
C329 C 0.61566 0.46095 0.46677 0.0
C330 C 0.62166 0.40968 0.46456 0.0
C331 C 0.64891 0.41352 0.42318 0.0
C332 C 0.64252 0.46454 0.42491 0.0
C333 C 0.65953 0.44086 0.40623 0.0
C334 C 0.60671 0.43395 0.49465 0.0
C335 C 0.48731 0.50256 0.55308 0.0
C336 C 0.59623 0.48517 0.47334 0.0
C337 C 0.60251 0.61035 0.43657 0.0
C338 C 0.58408 0.60441 0.36229 0.0
C339 C 0.5258 0.46039 0.72612 0.0
C340 C 0.47961 0.60058 0.82056 0.0
C341 C 0.51787 0.63236 0.86924 0.0
C342 C 0.502 0.65562 0.83498 0.0
C343 C 0.46414 0.62376 0.78522 0.0
C344 C 0.50649 0.60509 0.86137 0.0
C345 C 0.47539 0.65126 0.79257 0.0
C346 C 0.57092 0.51585 0.80173 0.0
C347 C 0.46995 0.57122 0.80746 0.0
H348 H 0.66145 0.39579 0.39805 0.0
H349 H 0.64998 0.48553 0.40467 0.0
H350 H 0.68017 0.44359 0.37286 0.0
H351 H 0.58671 0.43209 0.53239 0.0
H352 H 0.50984 0.67717 0.84284 0.0
H353 H 0.44368 0.62056 0.75143 0.0
H354 H 0.51897 0.5872 0.88601 0.0
H355 H 0.4634 0.66925 0.76587 0.0
Eu356 Eu 0.0363 0.56302 0.60213 0.0
C357 C 1.00196 0.44634 0.87 0.0
N358 N 0.99136 0.46276 0.80015 0.0
C359 C 0.96255 0.42367 0.74741 0.0
C360 C 0.99344 0.4177 0.88126 0.0
C361 C 0.97148 0.45201 0.73991 0.0
C362 C 0.97368 0.40636 0.81817 0.0
C363 C 0.03161 0.44264 1.0079 0.0
C364 C 0.02069 0.45857 0.93186 0.0
C365 C 0.0236 0.41399 0.01906 0.0
C366 C 1.00457 0.40152 0.95568 0.0
Eu367 Eu 1.00803 0.51033 0.78596 0.0
N368 N 0.02762 0.48633 0.91912 0.0
C369 C 0.04997 0.45607 0.07093 0.0
C370 C 0.045 0.49969 0.98217 0.0
C371 C 0.05669 0.48474 0.05785 0.0
H372 H 0.96238 0.46518 0.68564 0.0
H373 H 0.07082 0.49541 0.10626 0.0
H374 H 0.99198 0.61915 0.61235 0.0
H375 H 0.07 0.50962 0.27881 0.0
H376 H 0.05044 0.52184 0.97415 0.0
H377 H 0.05884 0.44462 0.13015 0.0
H378 H 0.07647 0.52963 0.43712 0.0
H379 H 0.947 0.41524 0.69882 0.0
H380 H 0.03177 0.40141 0.07685 0.0
H381 H 0.99835 0.37948 0.96544 0.0
H382 H 0.95158 0.6397 0.52227 0.0
H383 H 0.96662 0.38446 0.8242 0.0
H384 H 0.02487 0.51833 0.19259 0.0
N385 N 0.99909 0.5855 0.516 0.0
C386 C 0.99268 0.57445 0.4311 0.0
C387 C 0.9628 0.62118 0.4962 0.0
C388 C 0.9697 0.58518 0.37777 0.0
C389 C 0.98572 0.60967 0.54664 0.0
C390 C 0.9543 0.60846 0.41244 0.0
N391 N 0.03445 0.5469 0.44408 0.0
C392 C 0.0564 0.5328 0.40107 0.0
C393 C 1.00639 0.54385 0.30292 0.0
C394 C 1.01079 0.55413 0.39443 0.0
C395 C 0.02745 0.52661 0.26267 0.0
C396 C 0.05294 0.52174 0.31099 0.0
H397 H 0.93657 0.61741 0.37343 0.0
H398 H 0.94591 0.58087 0.24848 0.0
H399 H 0.97811 0.54454 0.18274 0.0
O400 O 0.06685 0.58611 0.51349 0.0
O401 O 0.98771 0.5587 0.62758 0.0
O402 O 0.98235 0.51161 0.64811 0.0
O403 O 0.05024 0.60587 0.63723 0.0
O404 O 0.05056 0.5157 0.58141 0.0
O405 O 1.01344 0.48953 0.64139 0.0
O406 O 0.9836 0.54848 0.80984 0.0
O407 O 0.05732 0.50895 0.78999 0.0
O408 O 0.07396 0.54538 0.69292 0.0
O409 O 0.96877 0.50879 0.87136 0.0
O410 O 0.03135 0.55004 0.85101 0.0
O411 O 0.02391 0.5843 0.73944 0.0
C412 C 0.97218 0.53567 0.61501 0.0
C413 C 0.09826 0.61376 0.60608 0.0
C414 C 0.14728 0.59877 0.63314 0.0
C415 C 0.15311 0.62482 0.67684 0.0
C416 C 0.10406 0.63973 0.65052 0.0
C417 C 0.13134 0.64506 0.68672 0.0
C418 C 0.11973 0.59324 0.59999 0.0
C419 C 0.03456 0.49231 0.58072 0.0
C420 C 0.06943 0.60711 0.57213 0.0
C421 C 0.96377 0.57327 0.2899 0.0
C422 C 0.98206 0.55252 0.25259 0.0
C423 C 0.07832 0.52515 0.75704 0.0
C424 C 0.93485 0.54616 0.83808 0.0
C425 C 0.90117 0.58523 0.86055 0.0
C426 C 0.87925 0.56762 0.82494 0.0
C427 C 0.91292 0.52871 0.80463 0.0
C428 C 0.92927 0.57476 0.85802 0.0
C429 C 0.88533 0.53985 0.7951 0.0
C430 C 0.03114 0.57733 0.82545 0.0
C431 C 0.96379 0.53594 0.85801 0.0
H432 H 0.17453 0.62972 0.70063 0.0
H433 H 0.08747 0.6557 0.65779 0.0
H434 H 0.13578 0.66516 0.72053 0.0
H435 H 0.11543 0.57329 0.56465 0.0
H436 H 0.85712 0.57433 0.82542 0.0
H437 H 0.91706 0.50673 0.78625 0.0
H438 H 0.9469 0.58819 0.87943 0.0
H439 H 0.86828 0.52647 0.76913 0.0
H440 H 0.22545 0.04355 0.35911 0.0
H441 H 0.18266 0.03292 0.09358 0.0
H442 H 0.13565 0.03398 0.17518 0.0
H443 H 0.17906 0.99731 0.49058 0.0
H444 H 0.1812 0.01851 0.59522 0.0
H445 H 0.21012 0.01905 0.51231 0.0
H446 H 0.20515 0.07413 0.5049 0.0
H447 H 0.17545 0.07279 0.58548 0.0
H448 H 0.17126 0.08963 0.47275 0.0
H449 H 0.09212 0.03414 0.2914 0.0
H450 H 0.05819 0.03166 0.42388 0.0
H451 H 0.12869 0.04079 0.61807 0.0
C452 C 0.20617 0.042 0.31769 0.0
C453 C 0.20819 0.03887 0.21822 0.0
C454 C 0.18209 0.03639 0.16836 0.0
C455 C 0.15514 0.03666 0.21489 0.0
C456 C 0.15403 0.03929 0.31279 0.0
C457 C 0.17901 0.04201 0.36348 0.0
C458 C 0.17217 0.04301 0.46848 0.0
C459 C 0.18647 0.01795 0.5196 0.0
C460 C 0.18157 0.0716 0.51037 0.0
C461 C 0.13948 0.04018 0.46983 0.0
C462 C 0.12943 0.0383 0.379 0.0
C463 C 0.10005 0.03554 0.36235 0.0
C464 C 0.08069 0.03436 0.439 0.0
C465 C 0.09007 0.03607 0.5336 0.0
C466 C 0.12024 0.03916 0.5479 0.0
H467 H 0.45018 0.19086 0.21443 0.0
H468 H 0.53985 0.20758 0.16255 0.0
H469 H 0.55279 0.16681 0.26371 0.0
H470 H 0.45468 0.16996 0.44866 0.0
H471 H 0.42985 0.14062 0.44593 0.0
H472 H 0.42657 0.16931 0.36251 0.0
H473 H 0.42905 0.13341 0.22746 0.0
H474 H 0.43289 0.10426 0.30916 0.0
H475 H 0.45914 0.10963 0.21821 0.0
H476 H 0.55604 0.13335 0.39978 0.0
H477 H 0.55106 0.09869 0.52379 0.0
H478 H 0.46035 0.09202 0.47403 0.0
C479 C 0.47248 0.18499 0.22061 0.0
C480 C 0.49408 0.20243 0.17751 0.0
C481 C 0.52296 0.19441 0.1914 0.0
C482 C 0.53049 0.17143 0.25035 0.0
C483 C 0.50894 0.15556 0.29426 0.0
C484 C 0.48045 0.16104 0.27722 0.0
C485 C 0.46193 0.13992 0.33414 0.0
C486 C 0.44207 0.15591 0.40181 0.0
C487 C 0.44473 0.12066 0.26832 0.0
C488 C 0.48448 0.12256 0.38829 0.0
C489 C 0.5113 0.13282 0.36486 0.0
C490 C 0.53533 0.12398 0.41388 0.0
C491 C 0.53235 0.10347 0.48498 0.0
C492 C 0.50607 0.08988 0.50638 0.0
C493 C 0.48135 0.10029 0.45731 0.0
H494 H 0.33788 0.53847 0.28623 0.0
H495 H 0.35046 0.46372 0.1151 0.0
H496 H 0.39797 0.45614 0.18968 0.0
H497 H 0.41309 0.56221 0.30111 0.0
H498 H 0.40955 0.57268 0.42183 0.0
H499 H 0.37898 0.57411 0.34531 0.0
H500 H 0.35075 0.54204 0.46051 0.0
H501 H 0.38131 0.54024 0.53688 0.0
H502 H 0.36529 0.50794 0.49392 0.0
H503 H 0.44428 0.45535 0.29618 0.0
H504 H 0.48254 0.46167 0.41414 0.0
H505 H 0.43729 0.53452 0.52655 0.0
C506 C 0.35085 0.52078 0.26283 0.0
C507 C 0.34007 0.50181 0.19327 0.0
C508 C 0.35804 0.47892 0.16611 0.0
C509 C 0.38508 0.47431 0.20936 0.0
C510 C 0.39426 0.49262 0.28097 0.0
C511 C 0.37753 0.51553 0.30696 0.0
C512 C 0.39095 0.53106 0.38992 0.0
C513 C 0.39859 0.56184 0.36291 0.0
C514 C 0.37088 0.53027 0.47535 0.0
C515 C 0.41788 0.51342 0.40757 0.0
C516 C 0.41965 0.49148 0.34339 0.0
C517 C 0.44288 0.4726 0.34593 0.0
C518 C 0.46464 0.47632 0.41405 0.0
C519 C 0.46331 0.49844 0.4817 0.0
C520 C 0.43923 0.51712 0.47747 0.0
H521 H 0.99729 0.34932 0.28235 0.0
H522 H 0.0832 0.35096 0.16982 0.0
H523 H 0.09185 0.39702 0.25063 0.0
H524 H 0.98417 0.42776 0.2789 0.0
H525 H 0.96451 0.42678 0.38755 0.0
H526 H 0.96425 0.39634 0.31107 0.0
H527 H 0.9822 0.36458 0.44713 0.0
H528 H 0.98286 0.39493 0.52381 0.0
H529 H 1.01474 0.37394 0.507 0.0
H530 H 0.09232 0.44199 0.36222 0.0
H531 H 0.0839 0.48007 0.47865 0.0
H532 H 0.99771 0.44881 0.52195 0.0
C533 C 0.01771 0.35975 0.27242 0.0
C534 C 0.03944 0.34623 0.21752 0.0
C535 C 0.06593 0.36074 0.20878 0.0
C536 C 0.07111 0.38692 0.25593 0.0
C537 C 0.04965 0.39887 0.31273 0.0
C538 C 0.02328 0.38575 0.31994 0.0
C539 C 1.00415 0.40192 0.38888 0.0
C540 C 0.97769 0.41391 0.33861 0.0
C541 C 0.99547 0.3827 0.47159 0.0
C542 C 0.02383 0.42596 0.42113 0.0
C543 C 0.04997 0.42402 0.37596 0.0
C544 C 0.07171 0.44361 0.39642 0.0
C545 C 0.06666 0.46549 0.46304 0.0
C546 C 0.03995 0.46834 0.50995 0.0
C547 C 0.01842 0.4478 0.48806 0.0
H548 H 0.83096 0.9824 0.1214 0.0
H549 H 0.85666 0.03783 0.34715 0.0
H550 H 0.90384 0.04482 0.27059 0.0
H551 H 0.90344 0.94882 0.09066 0.0
H552 H 0.89989 0.94595 0.96546 0.0
H553 H 0.86855 0.94447 0.03909 0.0
H554 H 0.84628 0.98608 0.9449 0.0
H555 H 0.87772 0.98788 0.87186 0.0
H556 H 0.86569 0.01908 0.93363 0.0
H557 H 0.94563 0.05147 0.15685 0.0
H558 H 0.98465 0.04745 0.04148 0.0
H559 H 0.93531 0.98497 0.88804 0.0
C560 C 0.84687 0.99535 0.15593 0.0
C561 C 0.84001 1.00915 0.24238 0.0
C562 C 0.86136 0.02653 0.28301 0.0
C563 C 0.88819 0.03089 0.23899 0.0
C564 C 0.89404 0.01755 0.15345 0.0
C565 C 0.87432 0.99942 0.11349 0.0
C566 C 0.88669 0.98717 0.02219 0.0
C567 C 0.88982 0.95467 0.02981 0.0
C568 C 0.86797 0.99554 0.93816 0.0
C569 C 0.91614 1.00157 0.01624 0.0
C570 C 0.91951 0.01938 0.0922 0.0
C571 C 0.94377 0.03649 0.09988 0.0
C572 C 0.96593 0.03415 0.03285 0.0
C573 C 0.96403 1.01535 0.9554 0.0
C574 C 0.93818 0.99916 0.94677 0.0
H575 H 0.58465 0.83329 0.09539 0.0
H576 H 0.50488 0.83577 0.2508 0.0
H577 H 0.4949 0.88333 0.18376 0.0
H578 H 0.60194 0.90861 0.08766 0.0
H579 H 0.61346 0.90798 0.9672 0.0
H580 H 0.61672 0.87645 0.03875 0.0
H581 H 0.58731 0.84788 0.91804 0.0
H582 H 0.58406 0.87929 0.84601 0.0
H583 H 0.55243 0.86055 0.884 0.0
H584 H 0.49384 0.93174 0.0953 0.0
H585 H 0.49706 0.97198 0.98256 0.0
H586 H 0.57269 0.93409 0.8604 0.0
C587 C 0.56493 0.84361 0.11573 0.0
C588 C 0.54589 0.83004 0.18097 0.0
C589 C 0.52061 0.84523 0.20481 0.0
C590 C 0.51451 0.87242 0.1654 0.0
C591 C 0.53332 0.88438 0.09927 0.0
C592 C 0.55779 0.87005 0.07333 0.0
C593 C 0.57299 0.88589 0.99343 0.0
C594 C 0.60307 0.89528 0.02358 0.0
C595 C 0.57428 0.86729 0.90514 0.0
C596 C 0.55346 0.91163 0.97851 0.0
C597 C 0.53111 0.91065 0.04201 0.0
C598 C 0.51097 0.93257 0.04462 0.0
C599 C 0.51321 0.95558 0.98057 0.0
C600 C 0.53515 0.95685 0.91188 0.0
C601 C 0.55554 0.93417 0.91144 0.0
H602 H 0.69984 0.56727 0.14593 0.0
H603 H 0.72349 0.47863 0.17579 0.0
H604 H 0.68058 0.46482 0.08419 0.0
H605 H 0.62039 0.55593 0.15809 0.0
H606 H 0.61308 0.58344 0.07323 0.0
H607 H 0.64393 0.5862 0.14815 0.0
H608 H 0.67659 0.59125 1.00251 0.0
H609 H 0.64582 0.5885 0.92746 0.0
H610 H 0.67547 0.56436 0.91283 0.0
H611 H 0.63749 0.46115 0.97155 0.0
H612 H 0.59713 0.46727 0.86187 0.0
H613 H 0.59908 0.55841 0.90729 0.0
C614 C 0.69561 0.54488 0.13503 0.0
C615 C 0.71525 0.52398 0.16973 0.0
C616 C 0.70884 0.495 0.15233 0.0
C617 C 0.6845 0.48704 0.0993 0.0
C618 C 0.66614 0.50818 0.06407 0.0
C619 C 0.67114 0.53657 0.08281 0.0
C620 C 0.64846 0.55518 0.03486 0.0
C621 C 0.63041 0.57113 0.10795 0.0
C622 C 0.66242 0.57606 0.9653 0.0
C623 C 0.63037 0.53301 0.98373 0.0
C624 C 0.64098 0.50601 1.00179 0.0
C625 C 0.62894 0.48221 0.95859 0.0
C626 C 0.60587 0.48593 0.89579 0.0
C627 C 0.59424 0.51323 0.87584 0.0
C628 C 0.60675 0.5371 0.92189 0.0
H629 H 1.0026 0.68433 0.27003 0.0
H630 H 0.0547 0.746 0.12161 0.0
H631 H 0.06584 0.70979 1.00152 0.0
H632 H 0.04849 0.62218 0.21467 0.0
H633 H 0.0197 0.59739 0.19833 0.0
H634 H 1.0156 0.62651 0.27927 0.0
H635 H 0.97066 0.64483 0.19571 0.0
H636 H 0.97288 0.61488 0.11788 0.0
H637 H 0.9714 0.65053 0.07079 0.0
H638 H 0.0689 0.6677 0.88961 0.0
H639 H 0.06413 0.62405 0.79681 0.0
H640 H 1.00926 0.58737 1.01008 0.0
C641 C 1.01658 0.69017 0.21268 0.0
C642 C 0.02801 0.71848 0.20694 0.0
C643 C 0.04621 0.72472 0.13005 0.0
C644 C 0.05243 0.70416 0.06056 0.0
C645 C 0.04048 0.67686 0.06742 0.0
C646 C 0.02308 0.66966 0.14205 0.0
C647 C 1.0128 0.63872 0.13128 0.0
C648 C 0.02483 0.62012 0.21071 0.0
C649 C 0.97997 0.63719 0.12873 0.0
C650 C 0.02593 0.63009 0.03676 0.0
C651 C 0.04218 0.65246 1.00246 0.0
C652 C 0.0562 0.65021 0.91642 0.0
C653 C 0.05324 0.62509 0.86336 0.0
C654 C 0.03634 0.60174 0.89418 0.0
C655 C 0.02277 0.60434 0.98385 0.0
H656 H 0.97841 0.25322 0.26865 0.0
H657 H 0.06753 0.22923 0.25926 0.0
H658 H 0.05882 0.19238 0.38136 0.0
H659 H 0.9706 0.25151 0.50162 0.0
H660 H 0.93494 0.23699 0.50653 0.0
H661 H 0.94632 0.25685 0.40527 0.0
H662 H 0.93448 0.21455 0.29601 0.0
H663 H 0.92172 0.19483 0.39616 0.0
H664 H 0.94893 0.17979 0.32159 0.0
H665 H 0.04179 0.16499 0.52131 0.0
H666 H 1.01593 0.14214 0.65234 0.0
H667 H 0.93771 0.18477 0.56865 0.0
C668 C 0.99558 0.23911 0.28964 0.0
C669 C 0.02339 0.24321 0.25514 0.0
C670 C 0.04601 0.22551 0.28472 0.0
C671 C 0.04125 0.20489 0.35407 0.0
C672 C 1.01374 0.20249 0.3912 0.0
C673 C 0.9911 0.21858 0.35816 0.0
C674 C 0.96418 0.21369 0.41429 0.0
C675 C 0.9534 0.24141 0.45958 0.0
C676 C 0.94095 0.19988 0.35341 0.0
C677 C 0.97542 0.19321 0.48675 0.0
C678 C 1.004 0.18693 0.47215 0.0
C679 C 0.0193 0.16933 0.53239 0.0
C680 C 1.00457 0.15675 0.60698 0.0
C681 C 0.97495 0.16183 0.62 0.0
C682 C 0.96042 0.18085 0.56067 0.0
H683 H 0.31746 0.04035 0.24078 0.0
H684 H 0.30093 0.96382 0.08333 0.0
H685 H 0.35285 0.95245 0.08368 0.0
H686 H 0.37882 0.06077 0.12014 0.0
H687 H 0.39656 0.07497 0.2211 0.0
H688 H 0.35809 0.07409 0.2173 0.0
H689 H 0.35835 0.04521 0.37488 0.0
H690 H 0.39685 0.04638 0.3755 0.0
H691 H 0.37864 1.0126 0.38173 0.0
H692 H 0.40645 0.95436 0.07914 0.0
H693 H 0.45798 0.96285 0.1027 0.0
H694 H 0.43898 0.03858 0.26282 0.0
C695 C 0.3249 0.02058 0.21046 0.0
C696 C 0.30584 1.00257 0.16337 0.0
C697 C 0.31565 0.9773 0.12119 0.0
C698 C 0.34494 0.97104 0.12001 0.0
C699 C 0.36359 0.99049 0.16106 0.0
C700 C 0.35392 1.01434 0.20779 0.0
C701 C 0.37826 0.03254 0.24256 0.0
C702 C 0.37784 0.06236 0.19762 0.0
C703 C 0.37802 0.03426 0.35005 0.0
C704 C 0.40322 1.01539 0.20705 0.0
C705 C 0.39435 0.99144 0.15919 0.0
C706 C 0.41365 0.9728 0.11768 0.0
C707 C 0.44284 0.97799 0.13004 0.0
C708 C 0.45214 1.00131 0.18409 0.0
C709 C 0.43217 0.02074 0.22044 0.0
H710 H 0.49029 0.32708 0.26078 0.0
H711 H 0.55246 0.26553 0.1642 0.0
H712 H 0.58946 0.28711 0.26469 0.0
H713 H 0.53758 0.38554 0.25402 0.0
H714 H 0.52275 0.40272 0.35586 0.0
H715 H 0.5007 0.37984 0.2865 0.0
H716 H 0.4889 0.35011 0.43458 0.0
H717 H 0.51183 0.37241 0.50435 0.0
H718 H 0.51755 0.33448 0.50166 0.0
H719 H 0.61922 0.31471 0.37518 0.0
H720 H 0.64399 0.35486 0.44884 0.0
H721 H 0.56309 0.40104 0.45704 0.0
C722 C 0.51181 0.31857 0.26068 0.0
C723 C 0.51893 0.29492 0.20567 0.0
C724 C 0.54713 0.28397 0.20605 0.0
C725 C 0.56794 0.29561 0.26412 0.0
C726 C 0.56015 0.31836 0.32046 0.0
C727 C 0.53307 0.33034 0.31708 0.0
C728 C 0.53153 0.3571 0.37488 0.0
C729 C 0.52268 0.38281 0.31416 0.0
C730 C 0.51124 0.35328 0.45883 0.0
C731 C 0.56232 0.35894 0.40672 0.0
C732 C 0.57807 0.33568 0.37877 0.0
C733 C 0.60723 0.3333 0.39664 0.0
C734 C 0.62118 0.35645 0.43769 0.0
C735 C 0.60613 0.38208 0.45584 0.0
C736 C 0.57592 0.38229 0.44555 0.0
H737 H 0.24701 0.5595 0.21933 0.0
H738 H 0.22332 0.47168 0.26361 0.0
H739 H 0.19428 0.48558 0.40186 0.0
H740 H 0.25875 0.57604 0.44579 0.0
H741 H 0.24451 0.61171 0.44316 0.0
H742 H 0.25881 0.59615 0.33806 0.0
H743 H 0.21108 0.60397 0.249 0.0
H744 H 0.19734 0.62157 0.35137 0.0
H745 H 0.17806 0.59208 0.30145 0.0
H746 H 0.17392 0.50885 0.5467 0.0
H747 H 0.15172 0.54139 0.66127 0.0
H748 H 0.19136 0.61345 0.52284 0.0
C749 C 0.23415 0.54362 0.25495 0.0
C750 C 0.23663 0.51478 0.23116 0.0
C751 C 0.22076 0.494 0.28049 0.0
C752 C 0.20488 0.50166 0.35988 0.0
C753 C 0.20517 0.53014 0.38705 0.0
C754 C 0.21852 0.55093 0.33399 0.0
C755 C 0.21664 0.57981 0.37924 0.0
C756 C 0.24646 0.5916 0.40293 0.0
C757 C 0.19976 0.60058 0.31662 0.0
C758 C 0.20032 0.5721 0.46682 0.0
C759 C 0.19422 0.5433 0.47087 0.0
C760 C 0.17845 0.53143 0.544 0.0
C761 C 0.16644 0.54993 0.60988 0.0
C762 C 0.17009 0.57975 0.60072 0.0
C763 C 0.18884 0.5907 0.5325 0.0
H764 H 0.98025 0.79671 0.15321 0.0
H765 H 0.95404 0.80518 0.4406 0.0
H766 H 0.93808 0.85445 0.40922 0.0
H767 H 1.01556 0.84824 0.12958 0.0
H768 H 1.00655 0.86143 0.01453 0.0
H769 H 1.00025 0.82507 0.04235 0.0
H770 H 0.9468 0.83052 0.99957 0.0
H771 H 0.95312 0.86737 0.97002 0.0
H772 H 0.92559 0.85809 0.05318 0.0
H773 H 0.94873 0.90404 0.37149 0.0
H774 H 0.97665 0.94571 0.326 0.0
H775 H 0.99543 0.90645 0.05894 0.0
C776 C 0.96914 0.80852 0.20701 0.0
C777 C 0.96899 0.79805 0.29919 0.0
C778 C 0.95491 0.81347 0.36991 0.0
C779 C 0.94571 0.84139 0.35226 0.0
C780 C 0.95018 0.85294 0.26306 0.0
C781 C 0.96027 0.83639 0.18978 0.0
C782 C 0.96939 0.85458 0.10734 0.0
C783 C 0.99972 0.8469 0.07181 0.0
C784 C 0.9474 0.85252 0.02787 0.0
C785 C 0.96827 0.88363 0.15222 0.0
C786 C 0.95555 0.88256 0.23976 0.0
C787 C 0.95752 0.90539 0.30149 0.0
C788 C 0.97384 0.92911 0.27516 0.0
C789 C 0.98833 0.93001 0.18799 0.0
C790 C 0.98402 0.90742 0.12454 0.0
H791 H 0.7207 1.00004 0.2365 0.0
H792 H 0.75076 0.08134 0.33671 0.0
H793 H 0.70086 0.0999 0.33572 0.0
H794 H 0.66498 0.02622 0.08381 0.0
H795 H 0.6411 0.99731 0.11217 0.0
H796 H 0.67918 0.99197 0.11739 0.0
H797 H 0.67426 0.97523 0.29146 0.0
H798 H 0.63617 0.98069 0.28432 0.0
H799 H 0.65647 0.99825 0.37401 0.0
H800 H 0.64726 0.10831 0.3274 0.0
H801 H 0.59516 0.10789 0.29376 0.0
H802 H 0.60136 0.02013 0.2045 0.0
C803 C 0.71662 0.02196 0.25569 0.0
C804 C 0.73905 0.03965 0.28486 0.0
C805 C 0.7335 0.06798 0.31213 0.0
C806 C 0.70536 0.07841 0.31292 0.0
C807 C 0.6834 0.05998 0.28694 0.0
C808 C 0.68881 0.03244 0.25794 0.0
C809 C 0.66169 0.01674 0.23402 0.0
C810 C 0.66174 1.00754 0.13072 0.0
C811 C 0.65691 0.9912 0.29988 0.0
C812 C 0.64009 0.03987 0.2524 0.0
C813 C 0.65285 0.06456 0.28419 0.0
C814 C 0.63703 0.08907 0.30293 0.0
C815 C 0.60755 0.08859 0.28482 0.0
C816 C 0.59468 0.06384 0.2481 0.0
C817 C 0.6109 0.03904 0.23436 0.0
H818 H 0.60145 0.74782 0.04435 0.0
H819 H 0.58742 0.70758 0.30987 0.0
H820 H 0.59354 0.66117 0.2387 0.0
H821 H 0.55987 0.71938 0.91764 0.0
H822 H 0.58003 0.71195 0.81278 0.0
H823 H 0.59183 0.73935 0.88938 0.0
H824 H 0.64111 0.71401 0.8996 0.0
H825 H 0.62816 0.68609 0.82428 0.0
H826 H 0.64313 0.67737 0.93689 0.0
H827 H 0.57137 0.62554 0.13949 0.0
H828 H 0.53411 0.60797 0.03478 0.0
H829 H 0.56263 0.66614 0.81948 0.0
C830 C 0.59773 0.72929 0.08646 0.0
C831 C 0.5855 0.73082 0.17716 0.0
C832 C 0.58964 0.70668 0.23524 0.0
C833 C 0.59495 0.68003 0.19579 0.0
C834 C 0.59859 0.6783 0.09924 0.0
C835 C 0.60237 0.70263 0.04567 0.0
C836 C 0.59997 0.69592 0.94226 0.0
C837 C 0.58178 0.71794 0.88768 0.0
C838 C 0.62987 0.69317 0.89823 0.0
C839 C 0.58584 0.66698 0.94893 0.0
C840 C 0.58781 0.65595 0.03908 0.0
C841 C 0.57064 0.63325 0.0682 0.0
C842 C 0.5492 0.62354 1.00827 0.0
C843 C 0.54513 0.63653 0.91993 0.0
C844 C 0.56516 0.65655 0.88745 0.0
H845 H 0.77826 0.60681 0.13103 0.0
H846 H 0.84294 0.55347 0.25822 0.0
H847 H 0.87829 0.58938 0.23023 0.0
H848 H 0.81106 0.59609 0.94366 0.0
H849 H 0.80566 0.62915 0.88129 0.0
H850 H 0.78111 0.6189 0.97118 0.0
H851 H 0.79022 0.66679 0.0536 0.0
H852 H 0.81552 0.67667 0.96361 0.0
H853 H 0.82605 0.6771 0.08482 0.0
H854 H 0.91014 0.621 0.15172 0.0
H855 H 0.9325 0.60545 1.0105 0.0
H856 H 0.8544 0.62186 0.85618 0.0
C857 C 0.7999 0.60252 0.1528 0.0
C858 C 0.80677 0.57747 0.20322 0.0
C859 C 0.83557 0.57331 0.22971 0.0
C860 C 0.8563 0.59396 0.21183 0.0
C861 C 0.84946 0.61701 0.15386 0.0
C862 C 0.82191 0.62005 0.11929 0.0
C863 C 0.82256 0.63433 0.02376 0.0
C864 C 0.80404 0.6186 0.95082 0.0
C865 C 0.81304 0.66557 0.032 0.0
C866 C 0.85446 0.6327 1.00318 0.0
C867 C 0.86937 0.62882 0.08616 0.0
C868 C 0.89855 0.62317 0.0865 0.0
C869 C 0.91117 0.61399 1.00394 0.0
C870 C 0.89432 0.61003 0.92253 0.0
C871 C 0.86711 0.62326 0.91909 0.0
H872 H 0.99983 0.225 0.10111 0.0
H873 H 0.07572 0.26285 0.97839 0.0
H874 H 0.08165 0.21998 0.87916 0.0
H875 H 0.03097 0.15475 0.12339 0.0
H876 H 0.99775 0.1364 0.10281 0.0
H877 H 0.99752 0.17139 0.15416 0.0
H878 H 0.96382 0.18908 0.02281 0.0
H879 H 0.96414 0.15421 0.97051 0.0
H880 H 0.97435 0.1849 0.90214 0.0
H881 H 0.07924 0.17004 0.79134 0.0
H882 H 0.07152 0.12022 0.73917 0.0
H883 H 1.00188 0.11179 0.93725 0.0
C884 C 0.01812 0.22445 0.05494 0.0
C885 C 0.03738 0.24825 0.04983 0.0
C886 C 0.06013 0.24593 0.984 0.0
C887 C 0.06385 0.22119 0.92753 0.0
C888 C 0.04506 0.19797 0.93731 0.0
C889 C 0.02276 0.19943 1.00064 0.0
C890 C 1.00662 0.17097 1.0035 0.0
C891 C 1.00831 0.15759 0.10179 0.0
C892 C 0.97537 0.17504 0.97295 0.0
C893 C 0.02311 0.15309 0.93186 0.0
C894 C 0.04491 0.16923 0.89287 0.0
C895 C 0.06233 0.15748 0.82269 0.0
C896 C 0.05772 0.12896 0.79287 0.0
C897 C 0.03612 0.11155 0.83332 0.0
C898 C 0.01869 0.12416 0.90437 0.0
H899 H 0.30297 1.00233 0.94012 0.0
H900 H 0.30446 0.08508 0.07179 0.0
H901 H 0.35034 0.09577 0.99146 0.0
H902 H 0.37835 0.98703 0.95314 0.0
H903 H 0.37975 0.96981 0.841 0.0
H904 H 0.34675 0.97032 0.90602 0.0
H905 H 0.32252 0.99307 0.75988 0.0
H906 H 0.35631 0.99345 0.69873 0.0
H907 H 0.33641 0.02602 0.71331 0.0
H908 H 0.40035 0.09511 0.91023 0.0
H909 H 0.44574 0.08545 0.82836 0.0
H910 H 0.41307 1.00352 0.73962 0.0
C911 C 0.31257 0.02304 0.95024 0.0
C912 C 0.29906 0.04316 1.0118 0.0
C913 C 0.31318 0.06964 0.02347 0.0
C914 C 0.33972 0.0757 0.97859 0.0
C915 C 0.35272 0.05517 0.92102 0.0
C916 C 0.33927 0.02947 0.90538 0.0
C917 C 0.35795 1.01103 0.84031 0.0
C918 C 0.36615 0.98286 0.88808 0.0
C919 C 0.34237 1.00556 0.74754 0.0
C920 C 0.3845 0.02978 0.82444 0.0
C921 C 0.3809 0.05519 0.8719 0.0
C922 C 0.40289 0.07539 0.87213 0.0
C923 C 0.42894 0.06963 0.82458 0.0
C924 C 0.43383 0.04379 0.77501 0.0
C925 C 0.41059 0.02378 0.77451 0.0
H926 H 0.48111 0.32937 0.07759 0.0
H927 H 0.53131 0.27214 0.90615 0.0
H928 H 0.54246 0.31214 0.79853 0.0
H929 H 0.45238 0.37334 0.89076 0.0
H930 H 0.45502 0.4059 0.95608 0.0
H931 H 0.45016 0.37263 0.0168 0.0
H932 H 0.49491 0.38255 0.11445 0.0
H933 H 0.50125 0.41566 0.05399 0.0
H934 H 0.52875 0.38887 0.05734 0.0
H935 H 0.54921 0.36171 0.70739 0.0
H936 H 0.55067 0.41157 0.65036 0.0
H937 H 0.4975 0.43703 0.88395 0.0
C938 C 0.49437 0.32503 0.01716 0.0
C939 C 0.50453 0.29666 1.00095 0.0
C940 C 0.52207 0.29275 0.92042 0.0
C941 C 0.5289 0.31579 0.85877 0.0
C942 C 0.51845 0.34332 0.87726 0.0
C943 C 0.50154 0.34786 0.95523 0.0
C944 C 0.49342 0.3794 0.96176 0.0
C945 C 0.4608 0.38302 0.95603 0.0
C946 C 0.50529 0.39239 0.05228 0.0
C947 C 0.50817 0.3922 0.87544 0.0
C948 C 0.52256 0.37108 0.82725 0.0
C949 C 0.53789 0.37808 0.74563 0.0
C950 C 0.53862 0.40684 0.71329 0.0
C951 C 0.52408 0.42919 0.761 0.0
C952 C 0.50864 0.42113 0.84371 0.0
H953 H 0.22573 0.54882 0.05734 0.0
H954 H 0.25186 0.46446 0.97161 0.0
H955 H 0.20807 0.46056 0.87436 0.0
H956 H 0.15088 0.5353 0.07564 0.0
H957 H 0.13947 0.56918 0.02922 0.0
H958 H 0.17355 0.56612 0.08717 0.0
H959 H 0.19887 0.58659 0.94027 0.0
H960 H 0.1648 0.58979 0.88221 0.0
H961 H 0.19333 0.56991 0.82827 0.0
H962 H 0.15777 0.46414 0.79643 0.0
H963 H 0.10961 0.47629 0.73593 0.0
H964 H 0.11583 0.55964 0.86256 0.0
C965 C 0.2225 0.52965 0.01707 0.0
C966 C 0.24293 0.50692 0.02243 0.0
C967 C 0.23728 0.48235 0.96811 0.0
C968 C 0.21212 0.4799 0.91303 0.0
C969 C 0.19228 0.50235 0.91078 0.0
C970 C 0.19749 0.52705 0.96022 0.0
C971 C 0.17259 0.54803 0.94597 0.0
C972 C 0.15828 0.55508 0.04009 0.0
C973 C 0.18303 0.5752 0.89627 0.0
C974 C 0.15226 0.53118 0.88266 0.0
C975 C 0.16406 0.50479 0.86354 0.0
C976 C 0.14879 0.48495 0.81025 0.0
C977 C 0.12122 0.49205 0.77584 0.0
C978 C 0.10864 0.5191 0.79213 0.0
C979 C 0.12475 0.53894 0.84663 0.0
H980 H 0.99919 0.80838 0.51445 0.0
H981 H 0.05063 0.8253 0.26853 0.0
H982 H 0.06012 0.8742 0.32657 0.0
H983 H 0.96594 0.8799 0.52344 0.0
H984 H 0.96471 0.87966 0.64926 0.0
H985 H 0.96341 0.84654 0.58605 0.0
H986 H 1.00721 0.82957 0.68455 0.0
H987 H 1.00875 0.86352 0.74274 0.0
H988 H 0.03972 0.8502 0.68156 0.0
H989 H 0.06442 0.92303 0.41648 0.0
H990 H 0.06094 0.96522 0.51994 0.0
H991 H 1.00252 0.91926 0.70086 0.0
C992 C 1.01247 0.82236 0.4726 0.0
C993 C 0.02435 0.81229 0.38627 0.0
C994 C 0.04172 0.8317 0.33517 0.0
C995 C 0.04699 0.85985 0.36764 0.0
C996 C 0.03461 0.86914 0.45195 0.0
C997 C 0.01743 0.85089 0.5033 0.0
C998 C 1.0058 0.86637 0.59001 0.0
C999 C 0.97301 0.86818 0.58699 0.0
C1000 C 1.01597 0.85153 0.68005 0.0
C1001 C 0.01915 0.89608 0.58034 0.0
C1002 C 0.03598 0.89715 0.50056 0.0
C1003 C 0.05114 0.9221 0.47855 0.0
C1004 C 0.04911 0.94618 0.53833 0.0
C1005 C 0.03153 0.94611 0.61961 0.0
C1006 C 1.01617 0.92044 0.63969 0.0
H1007 H 0.74257 0.04116 0.50133 0.0
H1008 H 0.74425 0.95642 0.38461 0.0
H1009 H 0.69842 0.94545 0.46532 0.0
H1010 H 0.70929 0.01935 0.73233 0.0
H1011 H 0.68865 0.05165 0.74101 0.0
H1012 H 0.72276 0.05193 0.68175 0.0
H1013 H 0.69922 0.07163 0.52804 0.0
H1014 H 0.6668 0.07342 0.59519 0.0
H1015 H 0.66732 0.05433 0.48574 0.0
H1016 H 0.64819 0.94599 0.54415 0.0
H1017 H 0.60185 0.95614 0.62012 0.0
H1018 H 0.63212 0.0402 0.69522 0.0
C1019 C 0.7338 0.01992 0.49549 0.0
C1020 C 0.74792 0.99937 0.43766 0.0
C1021 C 0.73486 0.97222 0.43029 0.0
C1022 C 0.70844 0.96597 0.4754 0.0
C1023 C 0.69485 0.98689 0.5297 0.0
C1024 C 0.70745 1.01322 0.54133 0.0
C1025 C 0.68814 0.03216 0.60205 0.0
C1026 C 0.70311 0.03919 0.69479 0.0
C1027 C 0.67987 0.05949 0.54938 0.0
C1028 C 0.66198 1.01305 0.61913 0.0
C1029 C 0.66648 0.98691 0.57706 0.0
C1030 C 0.64493 0.96623 0.57852 0.0
C1031 C 0.6184 0.97225 0.62252 0.0
C1032 C 0.61273 0.9988 0.66653 0.0
C1033 C 0.63545 0.01932 0.66528 0.0
H1034 H 0.56378 0.73726 0.47115 0.0
H1035 H 0.51722 0.71968 0.21626 0.0
H1036 H 0.50337 0.67251 0.27893 0.0
H1037 H 0.59249 0.66932 0.5093 0.0
H1038 H 0.58735 0.66706 0.63429 0.0
H1039 H 0.59117 0.70129 0.57823 0.0
H1040 H 0.54357 0.71849 0.64517 0.0
H1041 H 0.53841 0.68498 0.7038 0.0
H1042 H 0.51143 0.69808 0.62601 0.0
H1043 H 0.49707 0.62537 0.3634 0.0
H1044 H 0.49867 0.58218 0.46048 0.0
H1045 H 0.55034 0.62638 0.66568 0.0
C1046 C 0.54986 0.72387 0.42997 0.0
C1047 C 0.5413 0.73283 0.338 0.0
C1048 C 0.52372 0.71389 0.28652 0.0
C1049 C 0.51597 0.68676 0.32156 0.0
C1050 C 0.5256 0.67813 0.4099 0.0
C1051 C 0.54197 0.69615 0.46402 0.0
C1052 C 0.54954 0.681 0.55641 0.0
C1053 C 0.58208 0.67957 0.57042 0.0
C1054 C 0.5349 0.69659 0.63766 0.0
C1055 C 0.5366 0.65107 0.54329 0.0
C1056 C 0.52226 0.65047 0.4587 0.0
C1057 C 0.50829 0.6258 0.42955 0.0
C1058 C 0.5094 0.60106 0.48587 0.0
C1059 C 0.5248 0.59998 0.57151 0.0
C1060 C 0.53817 0.62596 0.60133 0.0
H1061 H 0.82385 0.49793 0.33527 0.0
H1062 H 0.79265 0.58023 0.42421 0.0
H1063 H 0.83619 0.58685 0.52007 0.0
H1064 H 0.86196 0.47838 0.56095 0.0
H1065 H 0.8914 0.46194 0.49996 0.0
H1066 H 0.85614 0.46178 0.44898 0.0
H1067 H 0.87661 0.48543 0.2993 0.0
H1068 H 0.91179 0.48608 0.35049 0.0
H1069 H 0.89574 0.51862 0.30862 0.0
H1070 H 0.88663 0.58801 0.58807 0.0
H1071 H 0.93639 0.58102 0.63972 0.0
H1072 H 0.93705 0.49715 0.51426 0.0
C1073 C 0.82556 0.51666 0.37877 0.0
C1074 C 0.80412 0.53842 0.37311 0.0
C1075 C 0.8081 0.5631 0.42845 0.0
C1076 C 0.83313 0.56717 0.48228 0.0
C1077 C 0.8545 0.54626 0.48205 0.0
C1078 C 0.85078 0.52115 0.43332 0.0
C1079 C 0.87801 0.50293 0.44125 0.0
C1080 C 0.87149 0.47456 0.49072 0.0
C1081 C 0.89131 0.49796 0.34413 0.0
C1082 C 0.89754 0.52164 0.50145 0.0
C1083 C 0.88349 0.5467 0.5231 0.0
C1084 C 0.89749 0.56823 0.57237 0.0
C1085 C 0.9261 0.56411 0.60115 0.0
C1086 C 0.94117 0.53846 0.58257 0.0
C1087 C 0.92631 0.51686 0.53179 0.0
loop_
_geom_bond_atom_site_label_1
_geom_bond_atom_site_label_2
_geom_bond_distance
_geom_bond_site_symmetry_2
_ccdc_geom_bond_type
C0 N1 1.317 . S
C0 N2 1.348 . S
C0 C3 1.485 . S
N1 C0 1.317 . S
N1 N5 1.370 . S
N2 C0 1.348 . S
N2 C4 1.346 . S
C3 C0 1.485 . S
C3 H7 0.960 . S
C3 H8 0.961 . S
C3 H9 0.960 . S
C4 N2 1.346 . S
C4 N5 1.307 . S
C4 C6 1.486 . S
N5 N1 1.370 . S
N5 C4 1.307 . S
C6 C4 1.486 . S
C6 H10 0.960 . S
C6 H11 0.960 . S
C6 H12 0.959 . S
H7 C3 0.960 . S
H8 C3 0.961 . S
H9 C3 0.960 . S
H10 C6 0.960 . S
H11 C6 0.960 . S
H12 C6 0.959 . S
C13 N14 1.317 . S
C13 N15 1.348 . S
C13 C16 1.485 . S
N14 C13 1.317 . S
N14 N18 1.370 . S
N15 C13 1.348 . S
N15 C17 1.346 . S
C16 C13 1.485 . S
C16 H20 0.960 . S
C16 H21 0.961 . S
C16 H22 0.960 . S
C17 N15 1.346 . S
C17 N18 1.307 . S
C17 C19 1.486 . S
N18 N14 1.370 . S
N18 C17 1.307 . S
C19 C17 1.486 . S
C19 H23 0.960 . S
C19 H24 0.960 . S
C19 H25 0.959 . S
H20 C16 0.960 . S
H21 C16 0.961 . S
H22 C16 0.960 . S
H23 C19 0.960 . S
H24 C19 0.960 . S
H25 C19 0.959 . S
C26 N27 1.317 . S
C26 N28 1.348 . S
C26 C29 1.485 . S
N27 C26 1.317 . S
N27 N31 1.370 . S
N28 C26 1.348 . S
N28 C30 1.346 . S
C29 C26 1.485 . S
C29 H33 0.960 . S
C29 H34 0.961 . S
C29 H35 0.960 . S
C30 N28 1.346 . S
C30 N31 1.307 . S
C30 C32 1.486 . S
N31 N27 1.370 . S
N31 C30 1.307 . S
C32 C30 1.486 . S
C32 H36 0.960 . S
C32 H37 0.975 . S
C32 H38 0.959 . S
H33 C29 0.960 . S
H34 C29 0.961 . S
H35 C29 0.960 . S
H36 C32 0.960 . S
H37 C32 0.975 . S
H38 C32 0.959 . S
C39 N40 1.317 . S
C39 N41 1.348 . S
C39 C42 1.485 . S
N40 C39 1.317 . S
N40 N44 1.370 . S
N41 C39 1.348 . S
N41 C43 1.346 . S
C42 C39 1.485 . S
C42 H46 0.960 . S
C42 H47 0.961 . S
C42 H48 0.960 . S
C43 N41 1.346 . S
C43 N44 1.307 . S
C43 C45 1.486 . S
N44 N40 1.370 . S
N44 C43 1.307 . S
C45 C43 1.486 . S
C45 H49 0.960 . S
C45 H50 0.960 . S
C45 H51 0.959 . S
H46 C42 0.960 . S
H47 C42 0.961 . S
H48 C42 0.960 . S
H49 C45 0.960 . S
H50 C45 0.960 . S
H51 C45 0.959 . S
C52 N53 1.317 . S
C52 N54 1.348 1_556 S
C52 C55 1.485 . S
N53 C52 1.317 . S
N53 N57 1.370 1_556 S
N54 C52 1.348 1_554 S
N54 C56 1.346 . S
C55 C52 1.485 . S
C55 H59 0.960 . S
C55 H60 0.961 . S
C55 H61 0.960 . S
C56 N54 1.346 . S
C56 N57 1.307 . S
C56 C58 1.486 . S
N57 N53 1.370 1_554 S
N57 C56 1.307 . S
C58 C56 1.486 . S
C58 H62 0.960 . S
C58 H63 0.960 . S
C58 H64 0.959 . S
H59 C55 0.960 . S
H60 C55 0.961 . S
H61 C55 0.960 . S
H62 C58 0.960 . S
H63 C58 0.960 . S
H64 C58 0.959 . S
C65 N66 1.318 . S
C65 N67 1.348 1_556 S
C65 C68 1.485 . S
N66 C65 1.318 . S
N66 N70 1.359 1_556 S
N67 C65 1.348 1_554 S
N67 C69 1.346 . S
C68 C65 1.485 . S
C68 H72 0.960 . S
C68 H73 0.961 . S
C68 H74 0.960 . S
C69 N67 1.346 . S
C69 N70 1.307 . S
C69 C71 1.486 . S
N70 N66 1.359 1_554 S
N70 C69 1.307 . S
C71 C69 1.486 . S
C71 H75 0.960 . S
C71 H76 0.960 . S
C71 H77 0.959 . S
H72 C68 0.960 . S
H73 C68 0.961 . S
H74 C68 0.960 . S
H75 C71 0.960 . S
H76 C71 0.960 . S
H77 C71 0.959 . S
C78 N79 1.317 . S
C78 N80 1.348 1_556 S
C78 C81 1.485 . S
N79 C78 1.317 . S
N79 N83 1.370 1_556 S
N80 C78 1.348 1_554 S
N80 C82 1.346 . S
C81 C78 1.485 . S
C81 H85 0.960 . S
C81 H86 0.961 . S
C81 H87 0.960 . S
C82 N80 1.346 . S
C82 N83 1.307 . S
C82 C84 1.486 . S
N83 N79 1.370 1_554 S
N83 C82 1.307 . S
C84 C82 1.486 . S
C84 H88 0.960 . S
C84 H89 0.960 . S
C84 H90 0.959 . S
H85 C81 0.960 . S
H86 C81 0.961 . S
H87 C81 0.960 . S
H88 C84 0.960 . S
H89 C84 0.960 . S
H90 C84 0.959 . S
C91 N92 1.317 . S
C91 N93 1.348 1_556 S
C91 C94 1.485 . S
N92 C91 1.317 . S
N92 N96 1.370 1_556 S
N93 C91 1.348 1_554 S
N93 C95 1.346 . S
C94 C91 1.485 . S
C94 H98 0.960 . S
C94 H99 0.961 . S
C94 H100 0.960 . S
C95 N93 1.346 . S
C95 N96 1.307 . S
C95 C97 1.486 . S
N96 N92 1.370 1_554 S
N96 C95 1.307 . S
C97 C95 1.486 . S
C97 H101 0.960 . S
C97 H102 0.960 . S
C97 H103 0.959 . S
H98 C94 0.960 . S
H99 C94 0.961 . S
H100 C94 0.960 . S
H101 C97 0.960 . S
H102 C97 0.960 . S
H103 C97 0.959 . S
Eu104 N133 2.600 . S
Eu104 N139 2.562 . S
Eu104 O148 2.468 . S
Eu104 O149 2.373 1_545 S
Eu104 O151 2.432 . S
Eu104 O152 2.291 1_655 S
Eu104 O156 2.335 1_655 S
Eu104 O159 2.372 . S
Eu104 C168 2.787 . S
C105 N106 1.365 . S
C105 C108 1.405 . S
C105 C112 1.448 . S
N106 C105 1.365 . S
N106 C109 1.319 . S
N106 Eu115 2.600 1_545 S
C107 C109 1.397 . S
C107 C110 1.367 . S
C107 H127 0.931 . S
C108 C105 1.405 . S
C108 C110 1.403 . S
C108 C114 1.439 1_556 S
C109 N106 1.319 . S
C109 C107 1.397 . S
C109 H120 0.930 1_545 S
C110 C107 1.367 . S
C110 C108 1.403 . S
C110 H131 0.929 . S
C111 C112 1.430 1_554 S
C111 C113 1.387 . S
C111 C117 1.404 . S
C112 C105 1.448 . S
C112 C111 1.430 1_556 S
C112 N116 1.351 . S
C113 C111 1.387 . S
C113 C114 1.374 . S
C113 H128 0.931 . S
C114 C108 1.439 1_554 S
C114 C113 1.374 . S
C114 H129 0.931 . S
Eu115 N106 2.600 1_565 S
Eu115 N116 2.562 1_565 S
Eu115 O150 2.335 . S
Eu115 O153 2.372 . S
Eu115 O154 2.462 . S
Eu115 O155 2.373 1_565 S
Eu115 O157 2.432 . S
Eu115 O158 2.291 1_465 S
Eu115 C179 2.787 . S
N116 C112 1.351 . S
N116 Eu115 2.562 1_545 S
N116 C118 1.325 1_556 S
C117 C111 1.404 . S
C117 C119 1.366 . S
C117 H125 0.930 . S
C118 N116 1.325 1_554 S
C118 C119 1.416 . S
C118 H124 0.929 1_455 S
C119 C117 1.366 . S
C119 C118 1.416 . S
C119 H121 0.906 1_455 S
H120 C109 0.930 1_565 S
H121 C119 0.906 1_655 S
H122 C137 0.930 . S
H123 C144 0.930 . S
H124 C118 0.929 1_655 S
H125 C117 0.930 . S
H126 C140 0.929 . S
H127 C107 0.931 . S
H128 C113 0.931 . S
H129 C114 0.931 . S
H130 C135 0.931 . S
H131 C110 0.929 . S
H132 C143 0.930 . S
N133 Eu104 2.600 . S
N133 C134 1.365 . S
N133 C137 1.319 . S
C134 N133 1.365 . S
C134 C136 1.405 1_545 S
C134 C142 1.446 1_545 S
C135 H130 0.931 . S
C135 C137 1.397 . S
C135 C138 1.367 1_545 S
C136 C134 1.405 1_565 S
C136 C138 1.403 . S
C136 C169 1.439 . S
C137 H122 0.930 . S
C137 N133 1.319 . S
C137 C135 1.397 . S
C138 C135 1.367 1_565 S
C138 C136 1.403 . S
C138 H145 0.929 . S
N139 Eu104 2.562 . S
N139 C140 1.325 1_655 S
N139 C142 1.344 1_545 S
C140 H126 0.929 . S
C140 N139 1.325 1_455 S
C140 C144 1.416 1_545 S
C141 C142 1.440 . S
C141 C143 1.404 . S
C141 C170 1.387 . S
C142 C134 1.446 1_565 S
C142 N139 1.344 1_565 S
C142 C141 1.440 . S
C143 H132 0.930 . S
C143 C141 1.404 . S
C143 C144 1.366 1_655 S
C144 H123 0.930 . S
C144 C140 1.416 1_565 S
C144 C143 1.366 1_455 S
H145 C138 0.929 . S
H146 C169 0.931 . S
H147 C170 0.931 . S
O148 Eu104 2.468 . S
O148 C168 1.268 . S
O149 Eu104 2.373 1_565 S
O149 C160 1.249 . S
O150 Eu115 2.335 . S
O150 C160 1.264 1_455 S
O151 Eu104 2.432 . S
O151 C168 1.268 . S
O152 Eu104 2.291 1_455 S
O152 C167 1.255 . S
O153 Eu115 2.372 . S
O153 C167 1.257 1_565 S
O154 Eu115 2.462 . S
O154 C179 1.252 . S
O155 Eu115 2.373 1_545 S
O155 C171 1.249 . S
O156 Eu104 2.335 1_455 S
O156 C171 1.264 . S
O157 Eu115 2.432 . S
O157 C179 1.268 . S
O158 Eu115 2.291 1_645 S
O158 C178 1.255 . S
O159 Eu104 2.372 . S
O159 C178 1.257 . S
C160 O149 1.249 . S
C160 O150 1.264 1_655 S
C161 C164 1.382 . S
C161 C166 1.390 . S
C161 C168 1.506 . S
C162 C163 1.398 . S
C162 C166 1.392 . S
C163 C162 1.398 . S
C163 C165 1.372 . S
C163 H180 0.931 . S
C164 C161 1.382 . S
C164 C165 1.390 . S
C164 H181 0.931 . S
C165 C163 1.372 . S
C165 C164 1.390 . S
C165 H182 0.929 . S
C166 C161 1.390 . S
C166 C162 1.392 . S
C166 H183 0.930 1_655 S
C167 O152 1.255 . S
C167 O153 1.257 1_545 S
C168 Eu104 2.787 . S
C168 O148 1.268 . S
C168 O151 1.268 . S
C168 C161 1.506 . S
C169 C136 1.439 . S
C169 H146 0.931 . S
C169 C170 1.374 . S
C170 C141 1.387 . S
C170 H147 0.931 . S
C170 C169 1.374 . S
C171 O155 1.249 . S
C171 O156 1.264 . S
C172 C175 1.382 . S
C172 C176 1.390 . S
C172 C179 1.506 . S
C173 C174 1.398 . S
C173 C176 1.392 1_554 S
C174 C173 1.398 . S
C174 C177 1.372 1_554 S
C174 H184 0.931 . S
C175 C172 1.382 . S
C175 C177 1.390 . S
C175 H185 0.931 . S
C176 C172 1.390 . S
C176 C173 1.392 1_556 S
C176 H186 0.930 . S
C177 C174 1.372 1_556 S
C177 C175 1.390 . S
C177 H187 0.929 . S
C178 O158 1.255 . S
C178 O159 1.257 . S
C179 Eu115 2.787 . S
C179 O154 1.252 . S
C179 O157 1.268 . S
C179 C172 1.506 . S
H180 C163 0.931 . S
H181 C164 0.931 . S
H182 C165 0.929 . S
H183 C166 0.930 1_455 S
H184 C174 0.931 . S
H185 C175 0.931 . S
H186 C176 0.930 . S
H187 C177 0.929 . S
Eu188 N217 2.600 . S
Eu188 N223 2.562 . S
Eu188 O232 2.462 . S
Eu188 O233 2.373 . S
Eu188 O235 2.432 . S
Eu188 O236 2.291 . S
Eu188 O240 2.335 1_545 S
Eu188 O243 2.372 . S
Eu188 C252 2.787 . S
C189 N190 1.365 . S
C189 C192 1.405 . S
C189 C196 1.448 . S
N190 C189 1.365 . S
N190 C193 1.319 . S
N190 Eu199 2.600 . S
C191 C193 1.397 . S
C191 C194 1.367 . S
C191 H211 0.931 . S
C192 C189 1.405 . S
C192 C194 1.403 . S
C192 C198 1.439 . S
C193 N190 1.319 . S
C193 C191 1.397 . S
C193 H204 0.930 . S
C194 C191 1.367 . S
C194 C192 1.403 . S
C194 H215 0.929 . S
C195 C196 1.430 . S
C195 C197 1.387 . S
C195 C201 1.404 . S
C196 C189 1.448 . S
C196 C195 1.430 . S
C196 N200 1.351 . S
C197 C195 1.387 . S
C197 C198 1.374 . S
C197 H212 0.931 . S
C198 C192 1.439 . S
C198 C197 1.374 . S
C198 H213 0.931 . S
Eu199 N190 2.600 . S
Eu199 N200 2.562 . S
Eu199 O234 2.335 1_565 S
Eu199 O237 2.372 . S
Eu199 O238 2.462 . S
Eu199 O239 2.373 . S
Eu199 O241 2.432 . S
Eu199 O242 2.291 1_565 S
Eu199 C263 2.787 . S
N200 C196 1.351 . S
N200 Eu199 2.562 . S
N200 C202 1.325 . S
C201 C195 1.404 . S
C201 C203 1.366 . S
C201 H209 0.930 . S
C202 N200 1.325 . S
C202 C203 1.416 . S
C202 H208 0.929 . S
C203 C201 1.366 . S
C203 C202 1.416 . S
C203 H205 0.930 . S
H204 C193 0.930 . S
H205 C203 0.930 . S
H206 C221 0.930 . S
H207 C228 0.930 . S
H208 C202 0.929 . S
H209 C201 0.930 . S
H210 C224 0.929 . S
H211 C191 0.931 . S
H212 C197 0.931 . S
H213 C198 0.931 . S
H214 C219 0.931 . S
H215 C194 0.929 . S
H216 C227 0.930 . S
N217 Eu188 2.600 . S
N217 C218 1.365 . S
N217 C221 1.319 . S
C218 N217 1.365 . S
C218 C220 1.405 . S
C218 C226 1.448 . S
C219 H214 0.931 . S
C219 C221 1.397 . S
C219 C222 1.367 . S
C220 C218 1.405 . S
C220 C222 1.403 . S
C220 C253 1.439 . S
C221 H206 0.930 . S
C221 N217 1.319 . S
C221 C219 1.397 . S
C222 C219 1.367 . S
C222 C220 1.403 . S
C222 H229 0.929 . S
N223 Eu188 2.562 . S
N223 C224 1.325 . S
N223 C226 1.351 . S
C224 H210 0.929 . S
C224 N223 1.325 . S
C224 C228 1.416 . S
C225 C226 1.430 . S
C225 C227 1.404 . S
C225 C254 1.387 . S
C226 C218 1.448 . S
C226 N223 1.351 . S
C226 C225 1.430 . S
C227 H216 0.930 . S
C227 C225 1.404 . S
C227 C228 1.366 . S
C228 H207 0.930 . S
C228 C224 1.416 . S
C228 C227 1.366 . S
H229 C222 0.929 . S
H230 C253 0.931 . S
H231 C254 0.931 . S
O232 Eu188 2.462 . S
O232 C252 1.252 . S
O233 Eu188 2.373 . S
O233 C244 1.249 . S
O234 Eu199 2.335 1_545 S
O234 C244 1.264 . S
O235 Eu188 2.432 . S
O235 C252 1.268 . S
O236 Eu188 2.291 . S
O236 C251 1.255 . S
O237 Eu199 2.372 . S
O237 C251 1.257 1_565 S
O238 Eu199 2.462 . S
O238 C263 1.252 . S
O239 Eu199 2.373 . S
O239 C255 1.249 . S
O240 Eu188 2.335 1_565 S
O240 C255 1.264 . S
O241 Eu199 2.432 . S
O241 C263 1.268 . S
O242 Eu199 2.291 1_545 S
O242 C262 1.255 . S
O243 Eu188 2.372 . S
O243 C262 1.257 . S
C244 O233 1.249 . S
C244 O234 1.264 . S
C245 C248 1.382 . S
C245 C250 1.390 . S
C245 C252 1.506 1_554 S
C246 C247 1.398 . S
C246 C250 1.392 . S
C247 C246 1.398 . S
C247 C249 1.372 . S
C247 H264 0.931 . S
C248 C245 1.382 . S
C248 C249 1.390 . S
C248 H265 0.931 . S
C249 C247 1.372 . S
C249 C248 1.390 . S
C249 H266 0.929 . S
C250 C245 1.390 . S
C250 C246 1.392 . S
C250 H267 0.930 1_554 S
C251 O236 1.255 . S
C251 O237 1.257 1_545 S
C252 Eu188 2.787 . S
C252 O232 1.252 . S
C252 O235 1.268 . S
C252 C245 1.506 1_556 S
C253 C220 1.439 . S
C253 H230 0.931 . S
C253 C254 1.374 . S
C254 C225 1.387 . S
C254 H231 0.931 . S
C254 C253 1.374 . S
C255 O239 1.249 . S
C255 O240 1.264 . S
C256 C259 1.382 . S
C256 C260 1.390 1_565 S
C256 C263 1.506 . S
C257 C258 1.398 1_545 S
C257 C260 1.392 . S
C258 C257 1.398 1_565 S
C258 C261 1.372 . S
C258 H268 0.931 . S
C259 C256 1.382 . S
C259 C261 1.390 . S
C259 H269 0.931 . S
C260 C256 1.390 1_545 S
C260 C257 1.392 . S
C260 H270 0.930 . S
C261 C258 1.372 . S
C261 C259 1.390 . S
C261 H271 0.929 . S
C262 O242 1.255 . S
C262 O243 1.257 . S
C263 Eu199 2.787 . S
C263 O238 1.252 . S
C263 O241 1.268 . S
C263 C256 1.506 . S
H264 C247 0.931 . S
H265 C248 0.931 . S
H266 C249 0.929 . S
H267 C250 0.930 1_556 S
H268 C258 0.931 . S
H269 C259 0.931 . S
H270 C260 0.930 . S
H271 C261 0.929 . S
Eu272 N301 2.600 . S
Eu272 N307 2.562 . S
Eu272 O316 2.462 . S
Eu272 O317 2.373 . S
Eu272 O319 2.432 . S
Eu272 O320 2.291 . S
Eu272 O324 2.335 . S
Eu272 O327 2.372 . S
Eu272 C336 2.787 . S
C273 N274 1.365 . S
C273 C276 1.405 . S
C273 C280 1.448 . S
N274 C273 1.365 . S
N274 C277 1.319 . S
N274 Eu283 2.600 . S
C275 C277 1.397 . S
C275 C278 1.367 . S
C275 H295 0.931 . S
C276 C273 1.405 . S
C276 C278 1.403 . S
C276 C282 1.439 1_556 S
C277 N274 1.319 . S
C277 C275 1.397 . S
C277 H288 0.930 . S
C278 C275 1.367 . S
C278 C276 1.403 . S
C278 H299 0.929 . S
C279 C280 1.430 1_554 S
C279 C281 1.387 . S
C279 C285 1.404 . S
C280 C273 1.448 . S
C280 C279 1.430 1_556 S
C280 N284 1.351 . S
C281 C279 1.387 . S
C281 C282 1.374 . S
C281 H296 0.931 . S
C282 C276 1.439 1_554 S
C282 C281 1.374 . S
C282 H297 0.931 . S
Eu283 N274 2.600 . S
Eu283 N284 2.562 . S
Eu283 O318 2.335 . S
Eu283 O321 2.372 . S
Eu283 O322 2.462 . S
Eu283 O323 2.373 . S
Eu283 O325 2.432 . S
Eu283 O326 2.291 . S
Eu283 C347 2.787 . S
N284 C280 1.351 . S
N284 Eu283 2.562 . S
N284 C286 1.325 1_556 S
C285 C279 1.404 . S
C285 C287 1.366 . S
C285 H293 0.930 . S
C286 N284 1.325 1_554 S
C286 C287 1.416 . S
C286 H292 0.929 . S
C287 C285 1.366 . S
C287 C286 1.416 . S
C287 H289 0.930 . S
H288 C277 0.930 . S
H289 C287 0.930 . S
H290 C305 0.930 . S
H291 C312 0.930 . S
H292 C286 0.929 . S
H293 C285 0.930 . S
H294 C308 0.929 . S
H295 C275 0.931 . S
H296 C281 0.931 . S
H297 C282 0.931 . S
H298 C303 0.931 . S
H299 C278 0.929 . S
H300 C311 0.930 . S
N301 Eu272 2.600 . S
N301 C302 1.365 . S
N301 C305 1.319 . S
C302 N301 1.365 . S
C302 C304 1.405 . S
C302 C310 1.448 . S
C303 H298 0.931 . S
C303 C305 1.397 . S
C303 C306 1.367 . S
C304 C302 1.405 . S
C304 C306 1.403 . S
C304 C337 1.439 . S
C305 H290 0.930 . S
C305 N301 1.319 . S
C305 C303 1.397 . S
C306 C303 1.367 . S
C306 C304 1.403 . S
C306 H313 0.929 . S
N307 Eu272 2.562 . S
N307 C308 1.325 . S
N307 C310 1.351 . S
C308 H294 0.929 . S
C308 N307 1.325 . S
C308 C312 1.416 . S
C309 C310 1.430 . S
C309 C311 1.404 . S
C309 C338 1.387 . S
C310 C302 1.448 . S
C310 N307 1.351 . S
C310 C309 1.430 . S
C311 H300 0.930 . S
C311 C309 1.404 . S
C311 C312 1.366 . S
C312 H291 0.930 . S
C312 C308 1.416 . S
C312 C311 1.366 . S
H313 C306 0.929 . S
H314 C337 0.931 . S
H315 C338 0.931 . S
O316 Eu272 2.462 . S
O316 C336 1.252 . S
O317 Eu272 2.373 . S
O317 C328 1.249 . S
O318 Eu283 2.335 . S
O318 C328 1.264 . S
O319 Eu272 2.432 . S
O319 C336 1.268 . S
O320 Eu272 2.291 . S
O320 C335 1.255 . S
O321 Eu283 2.372 . S
O321 C335 1.257 . S
O322 Eu283 2.462 . S
O322 C347 1.252 . S
O323 Eu283 2.373 . S
O323 C339 1.249 . S
O324 Eu272 2.335 . S
O324 C339 1.264 . S
O325 Eu283 2.432 . S
O325 C347 1.268 . S
O326 Eu283 2.291 . S
O326 C346 1.255 . S
O327 Eu272 2.372 . S
O327 C346 1.257 . S
C328 O317 1.249 . S
C328 O318 1.264 . S
C329 C332 1.382 . S
C329 C334 1.390 . S
C329 C336 1.506 . S
C330 C331 1.398 . S
C330 C334 1.392 . S
C331 C330 1.398 . S
C331 C333 1.372 . S
C331 H348 0.931 . S
C332 C329 1.382 . S
C332 C333 1.390 . S
C332 H349 0.931 . S
C333 C331 1.372 . S
C333 C332 1.390 . S
C333 H350 0.929 . S
C334 C329 1.390 . S
C334 C330 1.392 . S
C334 H351 0.930 . S
C335 O320 1.255 . S
C335 O321 1.257 . S
C336 Eu272 2.787 . S
C336 O316 1.252 . S
C336 O319 1.268 . S
C336 C329 1.506 . S
C337 C304 1.439 . S
C337 H314 0.931 . S
C337 C338 1.374 . S
C338 C309 1.387 . S
C338 H315 0.931 . S
C338 C337 1.374 . S
C339 O323 1.249 . S
C339 O324 1.264 . S
C340 C343 1.382 . S
C340 C344 1.395 . S
C340 C347 1.506 . S
C341 C342 1.398 . S
C341 C344 1.387 1_554 S
C342 C341 1.398 . S
C342 C345 1.372 1_554 S
C342 H352 0.931 . S
C343 C340 1.382 . S
C343 C345 1.390 . S
C343 H353 0.931 . S
C344 C340 1.395 . S
C344 C341 1.387 1_556 S
C344 H354 0.929 1_556 S
C345 C342 1.372 1_556 S
C345 C343 1.390 . S
C345 H355 0.929 . S
C346 O326 1.255 . S
C346 O327 1.257 . S
C347 Eu283 2.787 . S
C347 O322 1.252 . S
C347 O325 1.268 . S
C347 C340 1.506 . S
H348 C331 0.931 . S
H349 C332 0.931 . S
H350 C333 0.929 . S
H351 C334 0.930 . S
H352 C342 0.931 . S
H353 C343 0.931 . S
H354 C344 0.929 1_554 S
H355 C345 0.929 . S
Eu356 N385 2.600 . S
Eu356 N391 2.562 . S
Eu356 O400 2.462 . S
Eu356 O401 2.373 1_455 S
Eu356 O403 2.432 . S
Eu356 O404 2.291 . S
Eu356 O408 2.335 . S
Eu356 O411 2.372 . S
Eu356 C420 2.787 . S
C357 N358 1.365 . S
C357 C360 1.405 . S
C357 C364 1.448 . S
N358 C357 1.365 . S
N358 C361 1.318 1_455 S
N358 Eu367 2.600 1_455 S
C359 C361 1.394 1_455 S
C359 C362 1.367 . S
C359 H379 0.931 . S
C360 C357 1.405 . S
C360 C362 1.403 . S
C360 C366 1.439 1_556 S
C361 N358 1.318 1_655 S
C361 C359 1.394 1_655 S
C361 H372 0.934 . S
C362 C359 1.367 . S
C362 C360 1.403 . S
C362 H383 0.929 . S
C363 C364 1.430 1_554 S
C363 C365 1.387 . S
C363 C369 1.404 . S
C364 C357 1.448 . S
C364 C363 1.430 1_556 S
C364 N368 1.351 . S
C365 C363 1.387 . S
C365 C366 1.374 . S
C365 H380 0.931 . S
C366 C360 1.439 1_554 S
C366 C365 1.374 . S
C366 H381 0.931 . S
Eu367 N358 2.600 1_655 S
Eu367 N368 2.562 1_655 S
Eu367 O402 2.335 . S
Eu367 O405 2.372 . S
Eu367 O406 2.462 . S
Eu367 O407 2.373 1_655 S
Eu367 O409 2.432 . S
Eu367 O410 2.291 1_655 S
Eu367 C431 2.787 . S
N368 C364 1.351 . S
N368 Eu367 2.562 1_455 S
N368 C370 1.325 1_556 S
C369 C363 1.404 . S
C369 C371 1.366 . S
C369 H377 0.930 . S
C370 N368 1.325 1_554 S
C370 C371 1.416 . S
C370 H376 0.929 . S
C371 C369 1.366 . S
C371 C370 1.416 . S
C371 H373 0.930 . S
H372 C361 0.934 . S
H373 C371 0.930 . S
H374 C389 0.930 . S
H375 C396 0.930 . S
H376 C370 0.929 . S
H377 C369 0.930 . S
H378 C392 0.929 . S
H379 C359 0.931 . S
H380 C365 0.931 . S
H381 C366 0.931 . S
H382 C387 0.931 . S
H383 C362 0.929 . S
H384 C395 0.930 . S
N385 Eu356 2.600 . S
N385 C386 1.371 . S
N385 C389 1.319 . S
C386 N385 1.371 . S
C386 C388 1.401 1_455 S
C386 C394 1.446 1_455 S
C387 H382 0.931 . S
C387 C389 1.397 . S
C387 C390 1.367 1_455 S
C388 C386 1.401 1_655 S
C388 C390 1.403 . S
C388 C421 1.439 . S
C389 H374 0.930 . S
C389 N385 1.319 . S
C389 C387 1.397 . S
C390 C387 1.367 1_655 S
C390 C388 1.403 . S
C390 H397 0.929 . S
N391 Eu356 2.562 . S
N391 C392 1.325 . S
N391 C394 1.351 1_455 S
C392 H378 0.929 . S
C392 N391 1.325 . S
C392 C396 1.416 1_455 S
C393 C394 1.430 . S
C393 C395 1.404 . S
C393 C422 1.387 . S
C394 C386 1.446 1_655 S
C394 N391 1.351 1_655 S
C394 C393 1.430 . S
C395 H384 0.930 . S
C395 C393 1.404 . S
C395 C396 1.366 . S
C396 H375 0.930 . S
C396 C392 1.416 1_655 S
C396 C395 1.366 . S
H397 C390 0.929 . S
H398 C421 0.931 . S
H399 C422 0.931 . S
O400 Eu356 2.462 . S
O400 C420 1.252 . S
O401 Eu356 2.373 1_655 S
O401 C412 1.249 . S
O402 Eu367 2.335 . S
O402 C412 1.264 . S
O403 Eu356 2.432 . S
O403 C420 1.268 . S
O404 Eu356 2.291 . S
O404 C419 1.255 . S
O405 Eu367 2.372 . S
O405 C419 1.257 1_655 S
O406 Eu367 2.462 . S
O406 C431 1.252 . S
O407 Eu367 2.373 1_455 S
O407 C423 1.249 . S
O408 Eu356 2.335 . S
O408 C423 1.264 . S
O409 Eu367 2.432 . S
O409 C431 1.268 . S
O410 Eu367 2.291 1_455 S
O410 C430 1.255 . S
O411 Eu356 2.372 . S
O411 C430 1.257 . S
C412 O401 1.249 . S
C412 O402 1.264 . S
C413 C416 1.382 . S
C413 C418 1.390 . S
C413 C420 1.506 . S
C414 C415 1.398 . S
C414 C418 1.392 . S
C415 C414 1.398 . S
C415 C417 1.372 . S
C415 H432 0.931 . S
C416 C413 1.382 . S
C416 C417 1.390 . S
C416 H433 0.931 . S
C417 C415 1.372 . S
C417 C416 1.390 . S
C417 H434 0.929 . S
C418 C413 1.390 . S
C418 C414 1.392 . S
C418 H435 0.930 . S
C419 O404 1.255 . S
C419 O405 1.257 1_455 S
C420 Eu356 2.787 . S
C420 O400 1.252 . S
C420 O403 1.268 . S
C420 C413 1.506 . S
C421 C388 1.439 . S
C421 H398 0.931 . S
C421 C422 1.374 . S
C422 C393 1.387 . S
C422 H399 0.931 . S
C422 C421 1.374 . S
C423 O407 1.249 . S
C423 O408 1.264 . S
C424 C427 1.382 . S
C424 C428 1.390 . S
C424 C431 1.506 . S
C425 C426 1.398 . S
C425 C428 1.392 1_554 S
C426 C425 1.398 . S
C426 C429 1.372 1_554 S
C426 H436 0.931 . S
C427 C424 1.382 . S
C427 C429 1.390 . S
C427 H437 0.931 . S
C428 C424 1.390 . S
C428 C425 1.392 1_556 S
C428 H438 0.930 . S
C429 C426 1.372 1_556 S
C429 C427 1.390 . S
C429 H439 0.929 . S
C430 O410 1.255 . S
C430 O411 1.257 . S
C431 Eu367 2.787 . S
C431 O406 1.252 . S
C431 O409 1.268 . S
C431 C424 1.506 . S
H432 C415 0.931 . S
H433 C416 0.931 . S
H434 C417 0.929 . S
H435 C418 0.930 . S
H436 C426 0.931 . S
H437 C427 0.931 . S
H438 C428 0.930 . S
H439 C429 0.929 . S
H440 C452 0.930 . S
H441 C454 0.927 1_565 S
H442 C455 0.930 1_565 S
H443 C459 0.959 . S
H444 C459 0.959 . S
H445 C459 0.961 . S
H446 C460 0.960 . S
H447 C460 0.961 . S
H448 C460 0.959 . S
H449 C463 0.929 . S
H450 C464 0.931 . S
H451 C466 0.930 . S
C452 H440 0.930 . S
C452 C453 1.399 . S
C452 C457 1.399 . S
C453 C452 1.399 . S
C453 C454 1.376 . S
C454 H441 0.927 1_545 S
C454 C453 1.376 . S
C454 C455 1.388 . S
C455 H442 0.930 1_545 S
C455 C454 1.388 . S
C455 C456 1.390 . S
C456 C455 1.390 . S
C456 C457 1.394 . S
C456 C462 1.465 . S
C457 C452 1.399 . S
C457 C456 1.394 . S
C457 C458 1.516 . S
C458 C457 1.516 . S
C458 C459 1.502 . S
C458 C460 1.561 . S
C458 C461 1.526 . S
C459 H443 0.959 . S
C459 H444 0.959 . S
C459 H445 0.961 . S
C459 C458 1.502 . S
C460 H446 0.960 . S
C460 H447 0.961 . S
C460 H448 0.959 . S
C460 C458 1.561 . S
C461 C458 1.526 . S
C461 C462 1.396 . S
C461 C466 1.390 . S
C462 C456 1.465 . S
C462 C461 1.396 . S
C462 C463 1.399 1_545 S
C463 H449 0.929 . S
C463 C462 1.399 1_565 S
C463 C464 1.385 . S
C464 H450 0.931 . S
C464 C463 1.385 . S
C464 C465 1.389 1_565 S
C465 C464 1.389 1_545 S
C465 C466 1.387 . S
C466 H451 0.930 . S
C466 C461 1.390 . S
C466 C465 1.387 . S
H467 C479 0.930 . S
H468 C481 0.930 . S
H469 C482 0.930 . S
H470 C486 0.959 . S
H471 C486 0.959 . S
H472 C486 0.961 . S
H473 C487 0.960 . S
H474 C487 0.961 . S
H475 C487 0.959 . S
H476 C490 0.929 . S
H477 C491 0.931 . S
H478 C493 0.930 . S
C479 H467 0.930 . S
C479 C480 1.399 . S
C479 C484 1.399 . S
C480 C479 1.399 . S
C480 C481 1.376 . S
C481 H468 0.930 . S
C481 C480 1.376 . S
C481 C482 1.388 . S
C482 H469 0.930 . S
C482 C481 1.388 . S
C482 C483 1.390 . S
C483 C482 1.390 . S
C483 C484 1.394 . S
C483 C489 1.465 . S
C484 C479 1.399 . S
C484 C483 1.394 . S
C484 C485 1.516 . S
C485 C484 1.516 . S
C485 C486 1.502 . S
C485 C487 1.561 . S
C485 C488 1.526 . S
C486 H470 0.959 . S
C486 H471 0.959 . S
C486 H472 0.961 . S
C486 C485 1.502 . S
C487 H473 0.960 . S
C487 H474 0.961 . S
C487 H475 0.959 . S
C487 C485 1.561 . S
C488 C485 1.526 . S
C488 C489 1.396 . S
C488 C493 1.390 . S
C489 C483 1.465 . S
C489 C488 1.396 . S
C489 C490 1.399 . S
C490 H476 0.929 . S
C490 C489 1.399 . S
C490 C491 1.385 . S
C491 H477 0.931 . S
C491 C490 1.385 . S
C491 C492 1.389 . S
C492 C491 1.389 . S
C492 C493 1.387 . S
C493 H478 0.930 . S
C493 C488 1.390 . S
C493 C492 1.387 . S
H494 C506 0.930 . S
H495 C508 0.930 . S
H496 C509 0.930 . S
H497 C513 0.959 . S
H498 C513 0.959 . S
H499 C513 0.961 . S
H500 C514 0.960 . S
H501 C514 0.961 . S
H502 C514 0.959 . S
H503 C517 0.929 . S
H504 C518 0.931 . S
H505 C520 0.930 . S
C506 H494 0.930 . S
C506 C507 1.399 . S
C506 C511 1.399 . S
C507 C506 1.399 . S
C507 C508 1.376 . S
C508 H495 0.930 . S
C508 C507 1.376 . S
C508 C509 1.388 . S
C509 H496 0.930 . S
C509 C508 1.388 . S
C509 C510 1.390 . S
C510 C509 1.390 . S
C510 C511 1.394 . S
C510 C516 1.465 . S
C511 C506 1.399 . S
C511 C510 1.394 . S
C511 C512 1.516 . S
C512 C511 1.516 . S
C512 C513 1.502 . S
C512 C514 1.561 . S
C512 C515 1.526 . S
C513 H497 0.959 . S
C513 H498 0.959 . S
C513 H499 0.961 . S
C513 C512 1.502 . S
C514 H500 0.960 . S
C514 H501 0.961 . S
C514 H502 0.959 . S
C514 C512 1.561 . S
C515 C512 1.526 . S
C515 C516 1.396 . S
C515 C520 1.390 . S
C516 C510 1.465 . S
C516 C515 1.396 . S
C516 C517 1.399 . S
C517 H503 0.929 . S
C517 C516 1.399 . S
C517 C518 1.385 . S
C518 H504 0.931 . S
C518 C517 1.385 . S
C518 C519 1.389 . S
C519 C518 1.389 . S
C519 C520 1.387 . S
C520 H505 0.930 . S
C520 C515 1.390 . S
C520 C519 1.387 . S
H521 C533 0.930 . S
H522 C535 0.930 . S
H523 C536 0.930 . S
H524 C540 0.959 . S
H525 C540 0.959 . S
H526 C540 0.961 . S
H527 C541 0.960 . S
H528 C541 0.961 . S
H529 C541 0.959 . S
H530 C544 0.929 . S
H531 C545 0.931 . S
H532 C547 0.930 . S
C533 H521 0.930 . S
C533 C534 1.399 . S
C533 C538 1.399 . S
C534 C533 1.399 . S
C534 C535 1.376 . S
C535 H522 0.930 . S
C535 C534 1.376 . S
C535 C536 1.388 . S
C536 H523 0.930 . S
C536 C535 1.388 . S
C536 C537 1.390 . S
C537 C536 1.390 . S
C537 C538 1.394 . S
C537 C543 1.465 . S
C538 C533 1.399 . S
C538 C537 1.394 . S
C538 C539 1.516 . S
C539 C538 1.516 . S
C539 C540 1.502 . S
C539 C541 1.561 1_455 S
C539 C542 1.526 . S
C540 H524 0.959 . S
C540 H525 0.959 . S
C540 H526 0.961 . S
C540 C539 1.502 . S
C541 H527 0.960 . S
C541 H528 0.961 . S
C541 H529 0.959 . S
C541 C539 1.561 1_655 S
C542 C539 1.526 . S
C542 C543 1.396 . S
C542 C547 1.390 . S
C543 C537 1.465 . S
C543 C542 1.396 . S
C543 C544 1.399 . S
C544 H530 0.929 . S
C544 C543 1.399 . S
C544 C545 1.385 . S
C545 H531 0.931 . S
C545 C544 1.385 . S
C545 C546 1.389 . S
C546 C545 1.389 . S
C546 C547 1.387 . S
C547 H532 0.930 . S
C547 C542 1.390 . S
C547 C546 1.387 . S
H548 C560 0.930 . S
H549 C562 0.930 . S
H550 C563 0.930 . S
H551 C567 0.959 . S
H552 C567 0.959 . S
H553 C567 0.961 . S
H554 C568 0.960 . S
H555 C568 0.961 . S
H556 C568 0.959 . S
H557 C571 0.929 . S
H558 C572 0.931 . S
H559 C574 0.930 . S
C560 H548 0.930 . S
C560 C561 1.399 . S
C560 C565 1.399 . S
C561 C560 1.399 . S
C561 C562 1.376 1_565 S
C562 H549 0.930 . S
C562 C561 1.376 1_545 S
C562 C563 1.388 . S
C563 H550 0.930 . S
C563 C562 1.388 . S
C563 C564 1.390 . S
C564 C563 1.390 . S
C564 C565 1.394 1_545 S
C564 C570 1.465 . S
C565 C560 1.399 . S
C565 C564 1.394 1_565 S
C565 C566 1.516 . S
C566 C565 1.516 . S
C566 C567 1.502 . S
C566 C568 1.561 . S
C566 C569 1.526 . S
C567 H551 0.959 . S
C567 H552 0.959 . S
C567 H553 0.961 . S
C567 C566 1.502 . S
C568 H554 0.960 . S
C568 H555 0.961 . S
C568 H556 0.959 . S
C568 C566 1.561 . S
C569 C566 1.526 . S
C569 C570 1.396 1_565 S
C569 C574 1.390 1_554 S
C570 C564 1.465 . S
C570 C569 1.396 1_545 S
C570 C571 1.399 1_554 S
C571 H557 0.929 . S
C571 C570 1.399 1_556 S
C571 C572 1.385 . S
C572 H558 0.931 . S
C572 C571 1.385 . S
C572 C573 1.389 . S
C573 C572 1.389 . S
C573 C574 1.387 1_545 S
C574 H559 0.930 . S
C574 C569 1.390 1_556 S
C574 C573 1.387 1_565 S
H575 C587 0.930 . S
H576 C589 0.930 . S
H577 C590 0.930 . S
H578 C594 0.959 1_554 S
H579 C594 0.959 . S
H580 C594 0.961 1_554 S
H581 C595 0.960 . S
H582 C595 0.961 . S
H583 C595 0.959 . S
H584 C598 0.929 . S
H585 C599 0.931 . S
H586 C601 0.930 . S
C587 H575 0.930 . S
C587 C588 1.399 . S
C587 C592 1.399 . S
C588 C587 1.399 . S
C588 C589 1.376 . S
C589 H576 0.930 . S
C589 C588 1.376 . S
C589 C590 1.388 . S
C590 H577 0.930 . S
C590 C589 1.388 . S
C590 C591 1.390 . S
C591 C590 1.390 . S
C591 C592 1.394 . S
C591 C597 1.465 . S
C592 C587 1.399 . S
C592 C591 1.394 . S
C592 C593 1.516 . S
C593 C592 1.516 . S
C593 C594 1.502 1_554 S
C593 C595 1.561 1_554 S
C593 C596 1.526 1_554 S
C594 H578 0.959 1_556 S
C594 H579 0.959 . S
C594 H580 0.961 1_556 S
C594 C593 1.502 1_556 S
C595 H581 0.960 . S
C595 H582 0.961 . S
C595 H583 0.959 . S
C595 C593 1.561 1_556 S
C596 C593 1.526 1_556 S
C596 C597 1.396 1_556 S
C596 C601 1.390 . S
C597 C591 1.465 . S
C597 C596 1.396 1_554 S
C597 C598 1.399 . S
C598 H584 0.929 . S
C598 C597 1.399 . S
C598 C599 1.385 1_554 S
C599 H585 0.931 . S
C599 C598 1.385 1_556 S
C599 C600 1.389 . S
C600 C599 1.389 . S
C600 C601 1.387 . S
C601 H586 0.930 . S
C601 C596 1.390 . S
C601 C600 1.387 . S
H602 C614 0.930 . S
H603 C616 0.930 . S
H604 C617 0.930 . S
H605 C621 0.959 . S
H606 C621 0.959 . S
H607 C621 0.961 . S
H608 C622 0.960 . S
H609 C622 0.956 1_556 S
H610 C622 0.959 1_556 S
H611 C625 0.929 . S
H612 C626 0.931 . S
H613 C628 0.930 . S
C614 H602 0.930 . S
C614 C615 1.399 . S
C614 C619 1.399 . S
C615 C614 1.399 . S
C615 C616 1.376 . S
C616 H603 0.930 . S
C616 C615 1.376 . S
C616 C617 1.388 . S
C617 H604 0.930 . S
C617 C616 1.388 . S
C617 C618 1.390 . S
C618 C617 1.390 . S
C618 C619 1.394 . S
C618 C624 1.465 . S
C619 C614 1.399 . S
C619 C618 1.394 . S
C619 C620 1.516 . S
C620 C619 1.516 . S
C620 C621 1.502 . S
C620 C622 1.561 . S
C620 C623 1.526 . S
C621 H605 0.959 . S
C621 H606 0.959 . S
C621 H607 0.961 . S
C621 C620 1.502 . S
C622 H608 0.960 . S
C622 H609 0.956 1_554 S
C622 H610 0.959 1_554 S
C622 C620 1.561 . S
C623 C620 1.526 . S
C623 C624 1.396 . S
C623 C628 1.390 1_554 S
C624 C618 1.465 . S
C624 C623 1.396 . S
C624 C625 1.399 1_554 S
C625 H611 0.929 . S
C625 C624 1.399 1_556 S
C625 C626 1.385 . S
C626 H612 0.931 . S
C626 C625 1.385 . S
C626 C627 1.389 . S
C627 C626 1.389 . S
C627 C628 1.387 . S
C628 H613 0.930 . S
C628 C623 1.390 1_556 S
C628 C627 1.387 . S
H629 C641 0.930 . S
H630 C643 0.930 . S
H631 C644 0.930 . S
H632 C648 0.959 1_455 S
H633 C648 0.959 . S
H634 C648 0.961 . S
H635 C649 0.960 . S
H636 C649 0.961 . S
H637 C649 0.959 . S
H638 C652 0.932 . S
H639 C653 0.931 . S
H640 C655 0.930 1_554 S
C641 H629 0.930 . S
C641 C642 1.399 . S
C641 C646 1.399 . S
C642 C641 1.399 . S
C642 C643 1.376 . S
C643 H630 0.930 . S
C643 C642 1.376 . S
C643 C644 1.388 . S
C644 H631 0.930 . S
C644 C643 1.388 . S
C644 C645 1.390 . S
C645 C644 1.390 . S
C645 C646 1.394 . S
C645 C651 1.465 . S
C646 C641 1.399 . S
C646 C645 1.394 . S
C646 C647 1.516 . S
C647 C646 1.516 . S
C647 C648 1.502 . S
C647 C649 1.561 . S
C647 C650 1.526 . S
C648 H632 0.959 1_655 S
C648 H633 0.959 . S
C648 H634 0.961 . S
C648 C647 1.502 . S
C649 H635 0.960 . S
C649 H636 0.961 . S
C649 H637 0.959 . S
C649 C647 1.561 . S
C650 C647 1.526 . S
C650 C651 1.396 . S
C650 C655 1.390 1_554 S
C651 C645 1.465 . S
C651 C650 1.396 . S
C651 C652 1.395 1_654 S
C652 H638 0.932 . S
C652 C651 1.395 1_456 S
C652 C653 1.387 . S
C653 H639 0.931 . S
C653 C652 1.387 . S
C653 C654 1.389 1_455 S
C654 C653 1.389 1_655 S
C654 C655 1.387 . S
C655 H640 0.930 1_556 S
C655 C650 1.390 1_556 S
C655 C654 1.387 . S
H656 C668 0.930 . S
H657 C670 0.930 . S
H658 C671 0.930 . S
H659 C675 0.959 . S
H660 C675 0.959 . S
H661 C675 0.961 . S
H662 C676 0.960 . S
H663 C676 0.961 . S
H664 C676 0.959 . S
H665 C679 0.929 . S
H666 C680 0.931 . S
H667 C682 0.934 . S
C668 H656 0.930 . S
C668 C669 1.399 . S
C668 C673 1.399 . S
C669 C668 1.399 . S
C669 C670 1.376 . S
C670 H657 0.930 . S
C670 C669 1.376 . S
C670 C671 1.388 . S
C671 H658 0.930 . S
C671 C670 1.388 . S
C671 C672 1.390 . S
C672 C671 1.390 . S
C672 C673 1.394 . S
C672 C678 1.465 . S
C673 C668 1.399 . S
C673 C672 1.394 . S
C673 C674 1.516 . S
C674 C673 1.516 . S
C674 C675 1.502 1_455 S
C674 C676 1.561 . S
C674 C677 1.526 . S
C675 H659 0.959 . S
C675 H660 0.959 . S
C675 H661 0.961 . S
C675 C674 1.502 1_655 S
C676 H662 0.960 . S
C676 H663 0.961 . S
C676 H664 0.959 . S
C676 C674 1.561 . S
C677 C674 1.526 . S
C677 C678 1.396 . S
C677 C682 1.387 1_455 S
C678 C672 1.465 . S
C678 C677 1.396 . S
C678 C679 1.399 . S
C679 H665 0.929 . S
C679 C678 1.399 . S
C679 C680 1.385 . S
C680 H666 0.931 . S
C680 C679 1.385 . S
C680 C681 1.389 . S
C681 C680 1.389 . S
C681 C682 1.386 1_455 S
C682 H667 0.934 . S
C682 C677 1.387 1_655 S
C682 C681 1.386 1_655 S
H683 C695 0.930 . S
H684 C697 0.930 1_565 S
H685 C698 0.930 . S
H686 C702 0.959 . S
H687 C702 0.959 . S
H688 C702 0.961 . S
H689 C703 0.960 . S
H690 C703 0.961 . S
H691 C703 0.959 . S
H692 C706 0.929 . S
H693 C707 0.931 . S
H694 C709 0.930 . S
C695 H683 0.930 . S
C695 C696 1.399 . S
C695 C700 1.399 . S
C696 C695 1.399 . S
C696 C697 1.376 . S
C697 H684 0.930 1_545 S
C697 C696 1.376 . S
C697 C698 1.388 1_545 S
C698 H685 0.930 . S
C698 C697 1.388 1_565 S
C698 C699 1.390 1_565 S
C699 C698 1.390 1_545 S
C699 C700 1.394 . S
C699 C705 1.465 . S
C700 C695 1.399 . S
C700 C699 1.394 . S
C700 C701 1.516 . S
C701 C700 1.516 . S
C701 C702 1.502 . S
C701 C703 1.561 . S
C701 C704 1.526 . S
C702 H686 0.959 . S
C702 H687 0.959 . S
C702 H688 0.961 . S
C702 C701 1.502 . S
C703 H689 0.960 . S
C703 H690 0.961 . S
C703 H691 0.959 . S
C703 C701 1.561 . S
C704 C701 1.526 . S
C704 C705 1.396 . S
C704 C709 1.390 . S
C705 C699 1.465 . S
C705 C704 1.396 . S
C705 C706 1.399 1_545 S
C706 H692 0.929 . S
C706 C705 1.399 1_565 S
C706 C707 1.385 . S
C707 H693 0.931 . S
C707 C706 1.385 . S
C707 C708 1.389 1_565 S
C708 C707 1.389 1_545 S
C708 C709 1.387 . S
C709 H694 0.930 . S
C709 C704 1.390 . S
C709 C708 1.387 . S
H710 C722 0.930 . S
H711 C724 0.930 . S
H712 C725 0.930 . S
H713 C729 0.959 . S
H714 C729 0.959 . S
H715 C729 0.961 . S
H716 C730 0.960 . S
H717 C730 0.961 . S
H718 C730 0.959 . S
H719 C733 0.929 . S
H720 C734 0.931 . S
H721 C736 0.930 . S
C722 H710 0.930 . S
C722 C723 1.399 . S
C722 C727 1.399 . S
C723 C722 1.399 . S
C723 C724 1.376 . S
C724 H711 0.930 . S
C724 C723 1.376 . S
C724 C725 1.388 . S
C725 H712 0.930 . S
C725 C724 1.388 . S
C725 C726 1.390 . S
C726 C725 1.390 . S
C726 C727 1.394 . S
C726 C732 1.465 . S
C727 C722 1.399 . S
C727 C726 1.394 . S
C727 C728 1.516 . S
C728 C727 1.516 . S
C728 C729 1.502 . S
C728 C730 1.561 . S
C728 C731 1.526 . S
C729 H713 0.959 . S
C729 H714 0.959 . S
C729 H715 0.961 . S
C729 C728 1.502 . S
C730 H716 0.960 . S
C730 H717 0.961 . S
C730 H718 0.959 . S
C730 C728 1.561 . S
C731 C728 1.526 . S
C731 C732 1.396 . S
C731 C736 1.390 . S
C732 C726 1.465 . S
C732 C731 1.396 . S
C732 C733 1.399 . S
C733 H719 0.929 . S
C733 C732 1.399 . S
C733 C734 1.385 . S
C734 H720 0.931 . S
C734 C733 1.385 . S
C734 C735 1.389 . S
C735 C734 1.389 . S
C735 C736 1.387 . S
C736 H721 0.930 . S
C736 C731 1.390 . S
C736 C735 1.387 . S
H737 C749 0.930 . S
H738 C751 0.930 . S
H739 C752 0.930 . S
H740 C756 0.959 . S
H741 C756 0.959 . S
H742 C756 0.961 . S
H743 C757 0.960 . S
H744 C757 0.961 . S
H745 C757 0.959 . S
H746 C760 0.929 . S
H747 C761 0.931 . S
H748 C763 0.930 . S
C749 H737 0.930 . S
C749 C750 1.399 . S
C749 C754 1.399 . S
C750 C749 1.399 . S
C750 C751 1.376 . S
C751 H738 0.930 . S
C751 C750 1.376 . S
C751 C752 1.388 . S
C752 H739 0.930 . S
C752 C751 1.388 . S
C752 C753 1.390 . S
C753 C752 1.390 . S
C753 C754 1.394 . S
C753 C759 1.465 . S
C754 C749 1.399 . S
C754 C753 1.394 . S
C754 C755 1.516 . S
C755 C754 1.516 . S
C755 C756 1.502 . S
C755 C757 1.561 . S
C755 C758 1.526 . S
C756 H740 0.959 . S
C756 H741 0.959 . S
C756 H742 0.961 . S
C756 C755 1.502 . S
C757 H743 0.960 . S
C757 H744 0.961 . S
C757 H745 0.959 . S
C757 C755 1.561 . S
C758 C755 1.526 . S
C758 C759 1.396 . S
C758 C763 1.390 . S
C759 C753 1.465 . S
C759 C758 1.396 . S
C759 C760 1.399 . S
C760 H746 0.929 . S
C760 C759 1.399 . S
C760 C761 1.385 . S
C761 H747 0.931 . S
C761 C760 1.385 . S
C761 C762 1.389 . S
C762 C761 1.389 . S
C762 C763 1.387 . S
C763 H748 0.930 . S
C763 C758 1.390 . S
C763 C762 1.387 . S
H764 C776 0.930 . S
H765 C778 0.930 . S
H766 C779 0.930 . S
H767 C783 0.959 . S
H768 C783 0.959 1_556 S
H769 C783 0.961 . S
H770 C784 0.960 . S
H771 C784 0.961 1_556 S
H772 C784 0.959 . S
H773 C787 0.930 . S
H774 C788 0.931 . S
H775 C790 0.930 1_556 S
C776 H764 0.930 . S
C776 C777 1.399 . S
C776 C781 1.399 . S
C777 C776 1.399 . S
C777 C778 1.376 . S
C778 H765 0.930 . S
C778 C777 1.376 . S
C778 C779 1.388 . S
C779 H766 0.930 . S
C779 C778 1.388 . S
C779 C780 1.390 . S
C780 C779 1.390 . S
C780 C781 1.394 . S
C780 C786 1.465 . S
C781 C776 1.399 . S
C781 C780 1.394 . S
C781 C782 1.516 . S
C782 C781 1.516 . S
C782 C783 1.502 1_655 S
C782 C784 1.561 . S
C782 C785 1.526 1_655 S
C783 H767 0.959 . S
C783 H768 0.959 1_554 S
C783 H769 0.961 . S
C783 C782 1.502 1_455 S
C784 H770 0.960 . S
C784 H771 0.961 1_554 S
C784 H772 0.959 . S
C784 C782 1.561 . S
C785 C782 1.526 1_455 S
C785 C786 1.396 1_455 S
C785 C790 1.390 . S
C786 C780 1.465 . S
C786 C785 1.396 1_655 S
C786 C787 1.399 . S
C787 H773 0.930 . S
C787 C786 1.399 . S
C787 C788 1.385 1_655 S
C788 H774 0.931 . S
C788 C787 1.385 1_455 S
C788 C789 1.389 . S
C789 C788 1.389 . S
C789 C790 1.387 . S
C790 H775 0.930 1_554 S
C790 C785 1.390 . S
C790 C789 1.387 . S
H791 C803 0.930 . S
H792 C805 0.930 . S
H793 C806 0.930 . S
H794 C810 0.959 . S
H795 C810 0.963 . S
H796 C810 0.961 . S
H797 C811 0.960 . S
H798 C811 0.961 . S
H799 C811 0.959 . S
H800 C814 0.929 . S
H801 C815 0.931 . S
H802 C817 0.930 . S
C803 H791 0.930 . S
C803 C804 1.399 . S
C803 C808 1.399 . S
C804 C803 1.399 . S
C804 C805 1.376 1_565 S
C805 H792 0.930 . S
C805 C804 1.376 1_545 S
C805 C806 1.388 . S
C806 H793 0.930 . S
C806 C805 1.388 . S
C806 C807 1.390 . S
C807 C806 1.390 . S
C807 C808 1.394 1_545 S
C807 C813 1.465 . S
C808 C803 1.399 . S
C808 C807 1.394 1_565 S
C808 C809 1.516 . S
C809 C808 1.516 . S
C809 C810 1.502 . S
C809 C811 1.561 . S
C809 C812 1.526 . S
C810 H794 0.959 . S
C810 H795 0.963 . S
C810 H796 0.961 . S
C810 C809 1.502 . S
C811 H797 0.960 . S
C811 H798 0.961 . S
C811 H799 0.959 . S
C811 C809 1.561 . S
C812 C809 1.526 . S
C812 C813 1.396 1_565 S
C812 C817 1.390 . S
C813 C807 1.465 . S
C813 C812 1.396 1_545 S
C813 C814 1.399 . S
C814 H800 0.929 . S
C814 C813 1.399 . S
C814 C815 1.385 . S
C815 H801 0.931 . S
C815 C814 1.385 . S
C815 C816 1.389 . S
C816 C815 1.389 . S
C816 C817 1.387 1_545 S
C817 H802 0.930 . S
C817 C812 1.390 . S
C817 C816 1.387 1_565 S
H818 C830 0.930 . S
H819 C832 0.930 . S
H820 C833 0.930 . S
H821 C837 0.959 . S
H822 C837 0.959 1_556 S
H823 C837 0.961 . S
H824 C838 0.960 . S
H825 C838 0.961 1_556 S
H826 C838 0.959 . S
H827 C841 0.929 . S
H828 C842 0.931 . S
H829 C844 0.930 1_556 S
C830 H818 0.930 . S
C830 C831 1.399 . S
C830 C835 1.399 . S
C831 C830 1.399 . S
C831 C832 1.376 . S
C832 H819 0.930 . S
C832 C831 1.376 . S
C832 C833 1.388 . S
C833 H820 0.930 . S
C833 C832 1.388 . S
C833 C834 1.390 . S
C834 C833 1.390 . S
C834 C835 1.394 . S
C834 C840 1.465 . S
C835 C830 1.399 . S
C835 C834 1.394 . S
C835 C836 1.516 . S
C836 C835 1.516 . S
C836 C837 1.502 . S
C836 C838 1.561 . S
C836 C839 1.526 . S
C837 H821 0.959 . S
C837 H822 0.959 1_554 S
C837 H823 0.961 . S
C837 C836 1.502 . S
C838 H824 0.960 . S
C838 H825 0.961 1_554 S
C838 H826 0.959 . S
C838 C836 1.561 . S
C839 C836 1.526 . S
C839 C840 1.396 . S
C839 C844 1.390 . S
C840 C834 1.465 . S
C840 C839 1.396 . S
C840 C841 1.399 . S
C841 H827 0.929 . S
C841 C840 1.399 . S
C841 C842 1.385 . S
C842 H828 0.931 . S
C842 C841 1.385 . S
C842 C843 1.389 . S
C843 C842 1.389 . S
C843 C844 1.387 . S
C844 H829 0.930 1_554 S
C844 C839 1.390 . S
C844 C843 1.387 . S
H845 C857 0.930 . S
H846 C859 0.930 . S
H847 C860 0.930 . S
H848 C864 0.959 . S
H849 C864 0.959 . S
H850 C864 0.961 . S
H851 C865 0.960 . S
H852 C865 0.961 . S
H853 C865 0.959 . S
H854 C868 0.929 . S
H855 C869 0.931 . S
H856 C871 0.930 . S
C857 H845 0.930 . S
C857 C858 1.399 . S
C857 C862 1.399 . S
C858 C857 1.399 . S
C858 C859 1.376 . S
C859 H846 0.930 . S
C859 C858 1.376 . S
C859 C860 1.388 . S
C860 H847 0.930 . S
C860 C859 1.388 . S
C860 C861 1.390 . S
C861 C860 1.390 . S
C861 C862 1.394 . S
C861 C867 1.465 . S
C862 C857 1.399 . S
C862 C861 1.394 . S
C862 C863 1.516 . S
C863 C862 1.516 . S
C863 C864 1.502 . S
C863 C865 1.561 . S
C863 C866 1.526 . S
C864 H848 0.959 . S
C864 H849 0.959 . S
C864 H850 0.961 . S
C864 C863 1.502 . S
C865 H851 0.960 . S
C865 H852 0.961 . S
C865 H853 0.959 . S
C865 C863 1.561 . S
C866 C863 1.526 . S
C866 C867 1.396 . S
C866 C871 1.390 . S
C867 C861 1.465 . S
C867 C866 1.396 . S
C867 C868 1.399 . S
C868 H854 0.929 . S
C868 C867 1.399 . S
C868 C869 1.385 . S
C869 H855 0.931 . S
C869 C868 1.385 . S
C869 C870 1.389 . S
C870 C869 1.389 . S
C870 C871 1.387 . S
C871 H856 0.930 . S
C871 C866 1.390 . S
C871 C870 1.387 . S
H872 C884 0.930 . S
H873 C886 0.930 . S
H874 C887 0.930 . S
H875 C891 0.959 . S
H876 C891 0.959 . S
H877 C891 0.961 . S
H878 C892 0.960 . S
H879 C892 0.961 . S
H880 C892 0.959 . S
H881 C895 0.929 1_554 S
H882 C896 0.931 . S
H883 C898 0.930 . S
C884 H872 0.930 . S
C884 C885 1.399 . S
C884 C889 1.399 . S
C885 C884 1.399 . S
C885 C886 1.376 1_556 S
C886 H873 0.930 . S
C886 C885 1.376 1_554 S
C886 C887 1.388 . S
C887 H874 0.930 . S
C887 C886 1.388 . S
C887 C888 1.390 1_554 S
C888 C887 1.390 1_556 S
C888 C889 1.394 . S
C888 C894 1.465 . S
C889 C884 1.399 . S
C889 C888 1.394 . S
C889 C890 1.516 . S
C890 C889 1.516 . S
C890 C891 1.502 1_455 S
C890 C892 1.561 . S
C890 C893 1.526 . S
C891 H875 0.959 . S
C891 H876 0.959 . S
C891 H877 0.961 . S
C891 C890 1.502 1_655 S
C892 H878 0.960 . S
C892 H879 0.961 . S
C892 H880 0.959 . S
C892 C890 1.561 . S
C893 C890 1.526 . S
C893 C894 1.396 . S
C893 C898 1.390 . S
C894 C888 1.465 . S
C894 C893 1.396 . S
C894 C895 1.399 . S
C895 H881 0.929 1_556 S
C895 C894 1.399 . S
C895 C896 1.385 . S
C896 H882 0.931 . S
C896 C895 1.385 . S
C896 C897 1.389 . S
C897 C896 1.389 . S
C897 C898 1.387 . S
C898 H883 0.930 . S
C898 C893 1.390 . S
C898 C897 1.387 . S
H899 C911 0.930 . S
H900 C913 0.930 1_554 S
H901 C914 0.930 1_554 S
H902 C918 0.959 . S
H903 C918 0.959 . S
H904 C918 0.961 . S
H905 C919 0.960 . S
H906 C919 0.961 . S
H907 C919 0.959 . S
H908 C922 0.929 . S
H909 C923 0.931 . S
H910 C925 0.930 . S
C911 H899 0.930 . S
C911 C912 1.399 . S
C911 C916 1.399 . S
C912 C911 1.399 . S
C912 C913 1.376 . S
C913 H900 0.930 1_556 S
C913 C912 1.376 . S
C913 C914 1.388 . S
C914 H901 0.930 1_556 S
C914 C913 1.388 . S
C914 C915 1.390 . S
C915 C914 1.390 . S
C915 C916 1.394 . S
C915 C921 1.465 . S
C916 C911 1.399 . S
C916 C915 1.394 . S
C916 C917 1.516 . S
C917 C916 1.516 . S
C917 C918 1.502 1_545 S
C917 C919 1.561 . S
C917 C920 1.526 . S
C918 H902 0.959 . S
C918 H903 0.959 . S
C918 H904 0.961 . S
C918 C917 1.502 1_565 S
C919 H905 0.960 . S
C919 H906 0.961 . S
C919 H907 0.959 . S
C919 C917 1.561 . S
C920 C917 1.526 . S
C920 C921 1.396 . S
C920 C925 1.390 . S
C921 C915 1.465 . S
C921 C920 1.396 . S
C921 C922 1.399 . S
C922 H908 0.929 . S
C922 C921 1.399 . S
C922 C923 1.385 . S
C923 H909 0.931 . S
C923 C922 1.385 . S
C923 C924 1.389 . S
C924 C923 1.389 . S
C924 C925 1.387 . S
C925 H910 0.930 . S
C925 C920 1.390 . S
C925 C924 1.387 . S
H926 C938 0.930 1_554 S
H927 C940 0.930 . S
H928 C941 0.930 . S
H929 C945 0.959 . S
H930 C945 0.959 1_554 S
H931 C945 0.961 1_554 S
H932 C946 0.960 . S
H933 C946 0.961 . S
H934 C946 0.959 . S
H935 C949 0.929 . S
H936 C950 0.931 . S
H937 C952 0.930 . S
C938 H926 0.930 1_556 S
C938 C939 1.399 . S
C938 C943 1.399 . S
C939 C938 1.399 . S
C939 C940 1.376 . S
C940 H927 0.930 . S
C940 C939 1.376 . S
C940 C941 1.388 . S
C941 H928 0.930 . S
C941 C940 1.388 . S
C941 C942 1.390 . S
C942 C941 1.390 . S
C942 C943 1.394 . S
C942 C948 1.465 . S
C943 C938 1.399 . S
C943 C942 1.394 . S
C943 C944 1.516 . S
C944 C943 1.516 . S
C944 C945 1.502 . S
C944 C946 1.561 1_556 S
C944 C947 1.526 . S
C945 H929 0.959 . S
C945 H930 0.959 1_556 S
C945 H931 0.961 1_556 S
C945 C944 1.502 . S
C946 H932 0.960 . S
C946 H933 0.961 . S
C946 H934 0.959 . S
C946 C944 1.561 1_554 S
C947 C944 1.526 . S
C947 C948 1.396 . S
C947 C952 1.390 . S
C948 C942 1.465 . S
C948 C947 1.396 . S
C948 C949 1.399 . S
C949 H935 0.929 . S
C949 C948 1.399 . S
C949 C950 1.385 . S
C950 H936 0.931 . S
C950 C949 1.385 . S
C950 C951 1.389 . S
C951 C950 1.389 . S
C951 C952 1.387 . S
C952 H937 0.930 . S
C952 C947 1.390 . S
C952 C951 1.387 . S
H953 C965 0.930 . S
H954 C967 0.930 . S
H955 C968 0.930 . S
H956 C972 0.959 1_554 S
H957 C972 0.959 . S
H958 C972 0.961 . S
H959 C973 0.960 . S
H960 C973 0.961 . S
H961 C973 0.959 . S
H962 C976 0.929 . S
H963 C977 0.931 . S
H964 C979 0.930 . S
C965 H953 0.930 . S
C965 C966 1.399 . S
C965 C970 1.399 . S
C966 C965 1.399 . S
C966 C967 1.376 . S
C967 H954 0.930 . S
C967 C966 1.376 . S
C967 C968 1.388 . S
C968 H955 0.930 . S
C968 C967 1.388 . S
C968 C969 1.390 . S
C969 C968 1.390 . S
C969 C970 1.394 . S
C969 C975 1.465 . S
C970 C965 1.399 . S
C970 C969 1.394 . S
C970 C971 1.516 . S
C971 C970 1.516 . S
C971 C972 1.502 . S
C971 C973 1.561 . S
C971 C974 1.526 . S
C972 H956 0.959 1_556 S
C972 H957 0.959 . S
C972 H958 0.961 . S
C972 C971 1.502 . S
C973 H959 0.960 . S
C973 H960 0.961 . S
C973 H961 0.959 . S
C973 C971 1.561 . S
C974 C971 1.526 . S
C974 C975 1.396 . S
C974 C979 1.390 . S
C975 C969 1.465 . S
C975 C974 1.396 . S
C975 C976 1.399 . S
C976 H962 0.929 . S
C976 C975 1.399 . S
C976 C977 1.385 . S
C977 H963 0.931 . S
C977 C976 1.385 . S
C977 C978 1.389 . S
C978 C977 1.389 . S
C978 C979 1.387 . S
C979 H964 0.930 . S
C979 C974 1.390 . S
C979 C978 1.387 . S
H980 C992 0.930 . S
H981 C994 0.930 . S
H982 C995 0.932 . S
H983 C999 0.959 . S
H984 C999 0.959 . S
H985 C999 0.961 . S
H986 C1000 0.960 . S
H987 C1000 0.961 . S
H988 C1000 0.959 . S
H989 C1003 0.929 . S
H990 C1004 0.931 . S
H991 C1006 0.930 . S
C992 H980 0.930 . S
C992 C993 1.399 . S
C992 C997 1.399 . S
C993 C992 1.399 . S
C993 C994 1.376 . S
C994 H981 0.930 . S
C994 C993 1.376 . S
C994 C995 1.387 1_655 S
C995 H982 0.932 . S
C995 C994 1.387 1_455 S
C995 C996 1.389 1_455 S
C996 C995 1.389 1_655 S
C996 C997 1.394 . S
C996 C1002 1.465 . S
C997 C992 1.399 . S
C997 C996 1.394 . S
C997 C998 1.516 . S
C998 C997 1.516 . S
C998 C999 1.502 . S
C998 C1000 1.561 1_655 S
C998 C1001 1.526 . S
C999 H983 0.959 . S
C999 H984 0.959 . S
C999 H985 0.961 . S
C999 C998 1.502 . S
C1000 H986 0.960 . S
C1000 H987 0.961 . S
C1000 H988 0.959 . S
C1000 C998 1.561 1_455 S
C1001 C998 1.526 . S
C1001 C1002 1.396 . S
C1001 C1006 1.390 . S
C1002 C996 1.465 . S
C1002 C1001 1.396 . S
C1002 C1003 1.399 1_655 S
C1003 H989 0.929 . S
C1003 C1002 1.399 1_455 S
C1003 C1004 1.385 . S
C1004 H990 0.931 . S
C1004 C1003 1.385 . S
C1004 C1005 1.389 1_455 S
C1005 C1004 1.389 1_655 S
C1005 C1006 1.387 . S
C1006 H991 0.930 . S
C1006 C1001 1.390 . S
C1006 C1005 1.387 . S
H1007 C1019 0.930 . S
H1008 C1021 0.930 . S
H1009 C1022 0.930 . S
H1010 C1026 0.959 . S
H1011 C1026 0.959 . S
H1012 C1026 0.961 . S
H1013 C1027 0.960 . S
H1014 C1027 0.961 . S
H1015 C1027 0.959 . S
H1016 C1030 0.929 . S
H1017 C1031 0.931 . S
H1018 C1033 0.930 . S
C1019 H1007 0.930 . S
C1019 C1020 1.399 1_545 S
C1019 C1024 1.399 . S
C1020 C1019 1.399 1_565 S
C1020 C1021 1.376 . S
C1021 H1008 0.930 . S
C1021 C1020 1.376 . S
C1021 C1022 1.388 . S
C1022 H1009 0.930 . S
C1022 C1021 1.388 . S
C1022 C1023 1.390 . S
C1023 C1022 1.390 . S
C1023 C1024 1.394 1_565 S
C1023 C1029 1.465 . S
C1024 C1019 1.399 . S
C1024 C1023 1.394 1_545 S
C1024 C1025 1.516 . S
C1025 C1024 1.516 . S
C1025 C1026 1.502 . S
C1025 C1027 1.561 . S
C1025 C1028 1.526 . S
C1026 H1010 0.959 . S
C1026 H1011 0.959 . S
C1026 H1012 0.961 . S
C1026 C1025 1.502 . S
C1027 H1013 0.960 . S
C1027 H1014 0.961 . S
C1027 H1015 0.959 . S
C1027 C1025 1.561 . S
C1028 C1025 1.526 . S
C1028 C1029 1.396 1_545 S
C1028 C1033 1.390 . S
C1029 C1023 1.465 . S
C1029 C1028 1.396 1_565 S
C1029 C1030 1.399 . S
C1030 H1016 0.929 . S
C1030 C1029 1.399 . S
C1030 C1031 1.385 . S
C1031 H1017 0.931 . S
C1031 C1030 1.385 . S
C1031 C1032 1.389 . S
C1032 C1031 1.389 . S
C1032 C1033 1.387 1_565 S
C1033 H1018 0.930 . S
C1033 C1028 1.390 . S
C1033 C1032 1.387 1_545 S
H1034 C1046 0.930 . S
H1035 C1048 0.930 . S
H1036 C1049 0.930 . S
H1037 C1053 0.959 . S
H1038 C1053 0.959 . S
H1039 C1053 0.961 . S
H1040 C1054 0.960 . S
H1041 C1054 0.961 . S
H1042 C1054 0.959 . S
H1043 C1057 0.929 . S
H1044 C1058 0.931 . S
H1045 C1060 0.930 . S
C1046 H1034 0.930 . S
C1046 C1047 1.399 . S
C1046 C1051 1.399 . S
C1047 C1046 1.399 . S
C1047 C1048 1.376 . S
C1048 H1035 0.930 . S
C1048 C1047 1.376 . S
C1048 C1049 1.388 . S
C1049 H1036 0.930 . S
C1049 C1048 1.388 . S
C1049 C1050 1.390 . S
C1050 C1049 1.390 . S
C1050 C1051 1.394 . S
C1050 C1056 1.465 . S
C1051 C1046 1.399 . S
C1051 C1050 1.394 . S
C1051 C1052 1.516 . S
C1052 C1051 1.516 . S
C1052 C1053 1.502 . S
C1052 C1054 1.561 . S
C1052 C1055 1.526 . S
C1053 H1037 0.959 . S
C1053 H1038 0.959 . S
C1053 H1039 0.961 . S
C1053 C1052 1.502 . S
C1054 H1040 0.960 . S
C1054 H1041 0.961 . S
C1054 H1042 0.959 . S
C1054 C1052 1.561 . S
C1055 C1052 1.526 . S
C1055 C1056 1.396 . S
C1055 C1060 1.390 . S
C1056 C1050 1.465 . S
C1056 C1055 1.396 . S
C1056 C1057 1.399 . S
C1057 H1043 0.929 . S
C1057 C1056 1.399 . S
C1057 C1058 1.385 . S
C1058 H1044 0.931 . S
C1058 C1057 1.385 . S
C1058 C1059 1.389 . S
C1059 C1058 1.389 . S
C1059 C1060 1.387 . S
C1060 H1045 0.930 . S
C1060 C1055 1.390 . S
C1060 C1059 1.387 . S
H1061 C1073 0.930 . S
H1062 C1075 0.930 . S
H1063 C1076 0.930 . S
H1064 C1080 0.959 . S
H1065 C1080 0.959 . S
H1066 C1080 0.961 . S
H1067 C1081 0.960 . S
H1068 C1081 0.961 . S
H1069 C1081 0.959 . S
H1070 C1084 0.929 . S
H1071 C1085 0.931 . S
H1072 C1087 0.930 . S
C1073 H1061 0.930 . S
C1073 C1074 1.399 . S
C1073 C1078 1.399 . S
C1074 C1073 1.399 . S
C1074 C1075 1.376 . S
C1075 H1062 0.930 . S
C1075 C1074 1.376 . S
C1075 C1076 1.388 . S
C1076 H1063 0.930 . S
C1076 C1075 1.388 . S
C1076 C1077 1.390 . S
C1077 C1076 1.390 . S
C1077 C1078 1.394 . S
C1077 C1083 1.465 . S
C1078 C1073 1.399 . S
C1078 C1077 1.394 . S
C1078 C1079 1.516 . S
C1079 C1078 1.516 . S
C1079 C1080 1.502 . S
C1079 C1081 1.561 . S
C1079 C1082 1.526 . S
C1080 H1064 0.959 . S
C1080 H1065 0.959 . S
C1080 H1066 0.961 . S
C1080 C1079 1.502 . S
C1081 H1067 0.960 . S
C1081 H1068 0.961 . S
C1081 H1069 0.959 . S
C1081 C1079 1.561 . S
C1082 C1079 1.526 . S
C1082 C1083 1.396 . S
C1082 C1087 1.390 . S
C1083 C1077 1.465 . S
C1083 C1082 1.396 . S
C1083 C1084 1.399 . S
C1084 H1070 0.929 . S
C1084 C1083 1.399 . S
C1084 C1085 1.385 . S
C1085 H1071 0.931 . S
C1085 C1084 1.385 . S
C1085 C1086 1.389 . S
C1086 C1085 1.389 . S
C1086 C1087 1.387 . S
C1087 H1072 0.930 . S
C1087 C1082 1.390 . S
C1087 C1086 1.387 . S
C453 N80 1.956 . S
C465 C167 1.987 . S
C492 C244 2.029 . S
C480 N93 1.900 . S
C519 C335 2.016 . S
C507 N54 1.900 . S
C546 C419 2.001 . S
C534 N67 1.888 . S
C573 C178 1.995 . S
C561 N28 1.911 . S
C588 N41 1.956 . S
C600 C255 2.013 . S
C615 N2 1.908 . S
C627 C346 1.988 . S
C642 N15 1.895 . S
C654 C430 1.999 1_655 S
C681 C162 0.606 1_455 S
C669 N70 0.560 . S
C708 C257 0.569 . S
C696 N83 0.456 . S
C735 C330 0.503 . S
C723 N96 0.507 . S
C750 N57 0.572 . S
C762 C414 0.654 . S
C777 N18 0.580 . S
C789 C173 0.664 . S
C816 C246 0.486 . S
C804 N31 0.516 . S
C843 C341 0.644 . S
C831 N44 0.576 . S
C858 N5 0.520 . S
C870 C425 0.538 . S
C885 N66 2.004 . S
C897 C171 2.098 . S
C912 N79 2.012 . S
C924 C262 2.098 . S
C951 C339 2.091 . S
C939 N92 2.034 . S
C978 C423 2.103 . S
C966 N53 2.053 . S
C993 N14 1.998 . S
C1005 C160 2.099 . S
C1032 C251 2.101 1_565 S
C1020 N27 2.002 . S
C1059 C328 2.112 . S
C1047 N40 2.010 . S
C1074 N1 2.017 . S
C1086 C412 2.109 . S
