# Generated by pormake.
# Topology ssb, (4,4)-cn, num edge types: 1
# Building blocks:
#     Node 0, Type 0, BuildingBlock: GIZVER_clean_linker_0, # of connection points: 4
#     Node 1, Type 0, BuildingBlock: GIZVER_clean_linker_0, # of connection points: 4
#     Node 2, Type 0, BuildingBlock: GIZVER_clean_linker_0, # of connection points: 4
#     Node 3, Type 0, BuildingBlock: GIZVER_clean_linker_0, # of connection points: 4
#     Node 4, Type 0, BuildingBlock: GIZVER_clean_linker_0, # of connection points: 4
#     Node 5, Type 0, BuildingBlock: GIZVER_clean_linker_0, # of connection points: 4
#     Node 6, Type 0, BuildingBlock: GIZVER_clean_linker_0, # of connection points: 4
#     Node 7, Type 0, BuildingBlock: GIZVER_clean_linker_0, # of connection points: 4
#     Node 8, Type 1, BuildingBlock: NAWXER_clean_sbu_0, # of connection points: 4
#     Node 9, Type 1, BuildingBlock: NAWXER_clean_sbu_0, # of connection points: 4
#     Node 10, Type 1, BuildingBlock: NAWXER_clean_sbu_0, # of connection points: 4
#     Node 11, Type 1, BuildingBlock: NAWXER_clean_sbu_0, # of connection points: 4
#     Node 12, Type 1, BuildingBlock: NAWXER_clean_sbu_0, # of connection points: 4
#     Node 13, Type 1, BuildingBlock: NAWXER_clean_sbu_0, # of connection points: 4
#     Node 14, Type 1, BuildingBlock: NAWXER_clean_sbu_0, # of connection points: 4
#     Node 15, Type 1, BuildingBlock: NAWXER_clean_sbu_0, # of connection points: 4
#     Edge 16, Type (0, 1), BuildingBlock: CIFDUS_clean_linker_0, # of connection points: 2
#     Edge 17, Type (0, 1), BuildingBlock: CIFDUS_clean_linker_0, # of connection points: 2
#     Edge 18, Type (0, 1), BuildingBlock: CIFDUS_clean_linker_0, # of connection points: 2
#     Edge 19, Type (0, 1), BuildingBlock: CIFDUS_clean_linker_0, # of connection points: 2
#     Edge 20, Type (0, 1), BuildingBlock: CIFDUS_clean_linker_0, # of connection points: 2
#     Edge 21, Type (0, 1), BuildingBlock: CIFDUS_clean_linker_0, # of connection points: 2
#     Edge 22, Type (0, 1), BuildingBlock: CIFDUS_clean_linker_0, # of connection points: 2
#     Edge 23, Type (0, 1), BuildingBlock: CIFDUS_clean_linker_0, # of connection points: 2
#     Edge 24, Type (0, 1), BuildingBlock: CIFDUS_clean_linker_0, # of connection points: 2
#     Edge 25, Type (0, 1), BuildingBlock: CIFDUS_clean_linker_0, # of connection points: 2
#     Edge 26, Type (0, 1), BuildingBlock: CIFDUS_clean_linker_0, # of connection points: 2
#     Edge 27, Type (0, 1), BuildingBlock: CIFDUS_clean_linker_0, # of connection points: 2
#     Edge 28, Type (0, 1), BuildingBlock: CIFDUS_clean_linker_0, # of connection points: 2
#     Edge 29, Type (0, 1), BuildingBlock: CIFDUS_clean_linker_0, # of connection points: 2
#     Edge 30, Type (0, 1), BuildingBlock: CIFDUS_clean_linker_0, # of connection points: 2
#     Edge 31, Type (0, 1), BuildingBlock: CIFDUS_clean_linker_0, # of connection points: 2
#     Edge 32, Type (0, 1), BuildingBlock: CIFDUS_clean_linker_0, # of connection points: 2
#     Edge 33, Type (0, 1), BuildingBlock: CIFDUS_clean_linker_0, # of connection points: 2
#     Edge 34, Type (0, 1), BuildingBlock: CIFDUS_clean_linker_0, # of connection points: 2
#     Edge 35, Type (0, 1), BuildingBlock: CIFDUS_clean_linker_0, # of connection points: 2
#     Edge 36, Type (0, 1), BuildingBlock: CIFDUS_clean_linker_0, # of connection points: 2
#     Edge 37, Type (0, 1), BuildingBlock: CIFDUS_clean_linker_0, # of connection points: 2
#     Edge 38, Type (0, 1), BuildingBlock: CIFDUS_clean_linker_0, # of connection points: 2
#     Edge 39, Type (0, 1), BuildingBlock: CIFDUS_clean_linker_0, # of connection points: 2
#     Edge 40, Type (0, 1), BuildingBlock: CIFDUS_clean_linker_0, # of connection points: 2
#     Edge 41, Type (0, 1), BuildingBlock: CIFDUS_clean_linker_0, # of connection points: 2
#     Edge 42, Type (0, 1), BuildingBlock: CIFDUS_clean_linker_0, # of connection points: 2
#     Edge 43, Type (0, 1), BuildingBlock: CIFDUS_clean_linker_0, # of connection points: 2
#     Edge 44, Type (0, 1), BuildingBlock: CIFDUS_clean_linker_0, # of connection points: 2
#     Edge 45, Type (0, 1), BuildingBlock: CIFDUS_clean_linker_0, # of connection points: 2
#     Edge 46, Type (0, 1), BuildingBlock: CIFDUS_clean_linker_0, # of connection points: 2
#     Edge 47, Type (0, 1), BuildingBlock: CIFDUS_clean_linker_0, # of connection points: 2
# Relax obj value: 0.000
# Max RMSD: 0.030
# Mean RMSD: 0.015
data_MOF--net-ssb--node1-NAWXER_clean_sbu_0--node2-GIZVER_clean_linker_0--edge1-CIFDUS_clean_linker_0
_symmetry_space_group_name_H-M    P1
_symmetry_Int_Tables_number       1
_symmetry_cell_setting            triclinic
loop_
_symmetry_equiv_pos_as_xyz
'x, y, z'
_cell_length_a     40.683559
_cell_length_b     40.786799
_cell_length_c     34.59024
_cell_angle_alpha  90.430291
_cell_angle_beta   90.264543
_cell_angle_gamma 89.861435
loop_
_atom_site_label
_atom_site_type_symbol
_atom_site_fract_x
_atom_site_fract_y
_atom_site_fract_z
_atom_type_partial_charge
H0 H 0.28325 0.18984 0.29895 0.0
H1 H 0.19253 0.24469 0.29526 0.0
H2 H 0.2261 0.20306 0.402 0.0
H3 H 0.24786 0.19684 0.23706 0.0
H4 H 0.21686 0.22761 0.23626 0.0
H5 H 0.30706 0.21182 0.241 0.0
H6 H 0.33071 0.30397 0.18937 0.0
H7 H 0.23088 0.28327 0.22029 0.0
C8 C 0.26249 0.20089 0.3136 0.0
C9 C 0.25825 0.19559 0.35342 0.0
C10 C 0.23922 0.21935 0.29248 0.0
C11 C 0.21129 0.23182 0.31157 0.0
C12 C 0.2062 0.22542 0.35091 0.0
C13 C 0.23018 0.20817 0.37167 0.0
C14 C 0.2413 0.22144 0.24887 0.0
C15 C 0.26659 0.24591 0.23527 0.0
C16 C 0.29974 0.23621 0.2322 0.0
C17 C 0.32298 0.25695 0.2153 0.0
C18 C 0.31291 0.28799 0.20275 0.0
C19 C 0.27972 0.29738 0.20279 0.0
C20 C 0.25668 0.27664 0.22045 0.0
H21 H 0.84149 0.26304 0.26099 0.0
H22 H 0.77038 0.18609 0.27562 0.0
H23 H 0.82381 0.22358 0.37373 0.0
H24 H 0.82319 0.22996 0.20591 0.0
H25 H 0.79625 0.19615 0.21258 0.0
H26 H 0.80096 0.28626 0.19971 0.0
H27 H 0.70258 0.29152 0.15348 0.0
H28 H 0.73665 0.20275 0.20586 0.0
C29 C 0.82737 0.2473 0.27976 0.0
C30 C 0.83423 0.24706 0.31964 0.0
C31 C 0.80371 0.22585 0.26376 0.0
C32 C 0.78707 0.20401 0.28807 0.0
C33 C 0.79456 0.20285 0.32766 0.0
C34 C 0.81727 0.22517 0.34335 0.0
C35 C 0.80009 0.22238 0.22044 0.0
C36 C 0.77187 0.24249 0.20481 0.0
C37 C 0.77713 0.27531 0.19428 0.0
C38 C 0.75235 0.29342 0.17548 0.0
C39 C 0.7217 0.27853 0.16907 0.0
C40 C 0.71574 0.24618 0.18039 0.0
C41 C 0.74093 0.22806 0.19804 0.0
H42 H 0.78161 0.6989 0.34191 0.0
H43 H 0.71344 0.77994 0.33594 0.0
H44 H 0.81093 0.79448 0.38136 0.0
H45 H 0.72073 0.69 0.3374 0.0
H46 H 0.69366 0.72378 0.32988 0.0
H47 H 0.75993 0.6724 0.2832 0.0
H48 H 0.71757 0.6826 0.17009 0.0
H49 H 0.6776 0.73739 0.26572 0.0
C50 C 0.77615 0.7247 0.34605 0.0
C51 C 0.80029 0.7455 0.36167 0.0
C52 C 0.74485 0.73701 0.33616 0.0
C53 C 0.73767 0.77047 0.3428 0.0
C54 C 0.76155 0.79155 0.3588 0.0
C55 C 0.79271 0.77872 0.36785 0.0
C56 C 0.71828 0.71382 0.32216 0.0
C57 C 0.71987 0.70725 0.27901 0.0
C58 C 0.74265 0.68441 0.26403 0.0
C59 C 0.74214 0.67589 0.22461 0.0
C60 C 0.7185 0.69001 0.20026 0.0
C61 C 0.69467 0.7117 0.21481 0.0
C62 C 0.69614 0.72102 0.25405 0.0
H63 H 0.16661 0.76306 0.25592 0.0
H64 H 0.24635 0.8321 0.26589 0.0
H65 H 0.19398 0.80223 0.36698 0.0
H66 H 0.18652 0.79292 0.19932 0.0
H67 H 0.21867 0.82231 0.20387 0.0
H68 H 0.19956 0.73321 0.19618 0.0
H69 H 0.29378 0.70983 0.14751 0.0
H70 H 0.27516 0.80677 0.19222 0.0
C71 C 0.18334 0.77739 0.27368 0.0
C72 C 0.17851 0.77914 0.31384 0.0
C73 C 0.20856 0.7957 0.25622 0.0
C74 C 0.22849 0.81617 0.27932 0.0
C75 C 0.22321 0.81846 0.31923 0.0
C76 C 0.19903 0.79913 0.33638 0.0
C77 C 0.21105 0.79729 0.21275 0.0
C78 C 0.23511 0.77238 0.19706 0.0
C79 C 0.22452 0.74022 0.18925 0.0
C80 C 0.24557 0.71748 0.17134 0.0
C81 C 0.27766 0.72716 0.16192 0.0
C82 C 0.28864 0.75937 0.16886 0.0
C83 C 0.26736 0.78169 0.18732 0.0
H84 H 0.3445 0.73699 0.73947 0.0
H85 H 0.26872 0.66457 0.75618 0.0
H86 H 0.33121 0.69363 0.8508 0.0
H87 H 0.31943 0.70909 0.68432 0.0
H88 H 0.28929 0.67808 0.69083 0.0
H89 H 0.30317 0.76508 0.67158 0.0
H90 H 0.20047 0.78444 0.6528 0.0
H91 H 0.2306 0.69291 0.70217 0.0
C92 C 0.33051 0.72126 0.75839 0.0
C93 C 0.34001 0.71816 0.7972 0.0
C94 C 0.30401 0.70275 0.74354 0.0
C95 C 0.28768 0.68045 0.76793 0.0
C96 C 0.29783 0.67672 0.80657 0.0
C97 C 0.323 0.6967 0.82113 0.0
C98 C 0.29674 0.70305 0.70062 0.0
C99 C 0.26981 0.72705 0.69012 0.0
C100 C 0.27765 0.75803 0.67466 0.0
C101 C 0.25272 0.77863 0.66029 0.0
C102 C 0.21983 0.76872 0.66385 0.0
C103 C 0.21155 0.73786 0.67845 0.0
C104 C 0.23668 0.71714 0.69176 0.0
H105 H 0.28011 0.21348 0.85474 0.0
H106 H 0.20903 0.28779 0.82461 0.0
H107 H 0.298 0.31482 0.8829 0.0
H108 H 0.22874 0.19699 0.82788 0.0
H109 H 0.19568 0.22509 0.83425 0.0
H110 H 0.24848 0.18406 0.76407 0.0
H111 H 0.19346 0.21991 0.66675 0.0
H112 H 0.17615 0.26033 0.77964 0.0
C113 C 0.27311 0.23908 0.85306 0.0
C114 C 0.29276 0.26302 0.8714 0.0
C115 C 0.24311 0.24792 0.83505 0.0
C116 C 0.23287 0.2809 0.83596 0.0
C117 C 0.25285 0.30502 0.85273 0.0
C118 C 0.28298 0.29602 0.86931 0.0
C119 C 0.21989 0.22187 0.81987 0.0
C120 C 0.21469 0.22366 0.77651 0.0
C121 C 0.23126 0.20154 0.75193 0.0
C122 C 0.22312 0.1996 0.71249 0.0
C123 C 0.2002 0.22178 0.69707 0.0
C124 C 0.18344 0.24402 0.72097 0.0
C125 C 0.19049 0.2446 0.76079 0.0
H126 H 0.68268 0.27044 0.77562 0.0
H127 H 0.75985 0.34109 0.75921 0.0
H128 H 0.71741 0.32875 0.8715 0.0
H129 H 0.69487 0.2949 0.71088 0.0
H130 H 0.73136 0.31814 0.70392 0.0
H131 H 0.69571 0.23712 0.69865 0.0
H132 H 0.78643 0.19175 0.66469 0.0
H133 H 0.78702 0.28948 0.71206 0.0
C134 C 0.69996 0.28803 0.7876 0.0
C135 C 0.69756 0.29747 0.82664 0.0
C136 C 0.72267 0.30333 0.76307 0.0
C137 C 0.74348 0.32793 0.77822 0.0
C138 C 0.74195 0.33676 0.8175 0.0
C139 C 0.71941 0.32102 0.84151 0.0
C140 C 0.72106 0.29699 0.71997 0.0
C141 C 0.73948 0.26631 0.70814 0.0
C142 C 0.72229 0.23775 0.69691 0.0
C143 C 0.73932 0.21048 0.68201 0.0
C144 C 0.77361 0.212 0.67849 0.0
C145 C 0.79116 0.24029 0.6889 0.0
C146 C 0.77391 0.26724 0.7044 0.0
H147 H 0.74966 0.6975 0.7857 0.0
H148 H 0.69274 0.78649 0.78123 0.0
H149 H 0.69357 0.72866 0.88451 0.0
H150 H 0.73794 0.72217 0.72414 0.0
H151 H 0.71026 0.756 0.72081 0.0
H152 H 0.7963 0.73118 0.72395 0.0
H153 H 0.83353 0.82945 0.72731 0.0
H154 H 0.72941 0.81193 0.72718 0.0
C155 C 0.73386 0.71531 0.79982 0.0
C156 C 0.72336 0.70993 0.8379 0.0
C157 C 0.72316 0.74298 0.77926 0.0
C158 C 0.70199 0.7657 0.79734 0.0
C159 C 0.69184 0.76103 0.83571 0.0
C160 C 0.70292 0.73328 0.85576 0.0
C161 C 0.73189 0.7465 0.73707 0.0
C162 C 0.76047 0.76961 0.73199 0.0
C163 C 0.79258 0.75739 0.72645 0.0
C164 C 0.819 0.77913 0.72108 0.0
C165 C 0.81291 0.8128 0.72625 0.0
C166 C 0.78081 0.82536 0.72274 0.0
C167 C 0.75459 0.80346 0.72831 0.0
C168 C 0.95758 0.26502 0.57409 0.0
C169 C 0.04651 0.24504 0.48203 0.0
O170 O 0.97012 0.29143 0.56075 0.0
Zn171 Zn 0.00834 0.30563 0.5217 0.0
O172 O 0.96913 0.23737 0.56352 0.0
Zn173 Zn 1.00219 0.25385 0.52871 0.0
O174 O 0.0362 0.27581 0.56785 0.0
O175 O 0.04018 0.32857 0.55499 0.0
O176 O 0.03006 0.22374 0.50034 0.0
O177 O 0.04041 0.27558 0.48743 0.0
O178 O 0.98249 0.32863 0.48247 0.0
O179 O 0.97311 0.27526 0.48372 0.0
C180 C 0.04879 0.30392 0.57501 0.0
C181 C 0.96764 0.30352 0.46912 0.0
C182 C 0.72072 0.04866 0.56313 0.0
C183 C 0.72337 0.95975 0.4662 0.0
O184 O 0.74968 0.03923 0.55376 0.0
Zn185 Zn 0.77252 0.00572 0.51417 0.0
O186 O 0.69582 0.03664 0.54577 0.0
Zn187 Zn 0.72096 0.00623 0.51296 0.0
O188 O 0.74377 0.97475 0.55679 0.0
O189 O 0.79731 0.97985 0.54858 0.0
O190 O 0.69812 0.97392 0.48007 0.0
O191 O 0.75194 0.96974 0.4764 0.0
O192 O 0.79754 0.03288 0.48175 0.0
O193 O 0.74438 0.04027 0.47304 0.0
C194 C 0.77339 0.96745 0.56673 0.0
C195 C 0.77424 0.0477 0.46482 0.0
C196 C 0.968 0.74881 0.57478 0.0
C197 C 0.04638 0.73225 0.47012 0.0
O198 O 0.98276 0.76999 0.55449 0.0
Zn199 Zn 0.00702 0.74071 0.52204 0.0
O200 O 0.97316 0.71819 0.56827 0.0
Zn201 Zn 1.00226 0.68912 0.52818 0.0
O202 O 0.03202 0.66534 0.56271 0.0
O203 O 0.04061 0.71881 0.56188 0.0
O204 O 0.03666 0.70493 0.48425 0.0
O205 O 0.03501 0.75909 0.48328 0.0
O206 O 0.96949 0.71944 0.48766 0.0
O207 O 0.96766 0.6663 0.49837 0.0
C208 C 0.04784 0.69032 0.57481 0.0
C209 C 0.95661 0.69141 0.48091 0.0
C210 C 0.24354 0.04447 0.57212 0.0
C211 C 0.24562 0.9661 0.46648 0.0
O212 O 0.27341 0.03627 0.56488 0.0
Zn213 Zn 0.29707 0.00161 0.52556 0.0
O214 O 0.22047 0.0305 0.55369 0.0
Zn215 Zn 0.24571 0.00352 0.52024 0.0
O216 O 0.26332 0.96404 0.55473 0.0
O217 O 0.31713 0.96864 0.55964 0.0
O218 O 0.22144 0.98062 0.48221 0.0
O219 O 0.27492 0.97105 0.47948 0.0
O220 O 0.32498 0.03058 0.49494 0.0
O221 O 0.27173 0.03698 0.48436 0.0
C222 C 0.29086 0.95333 0.56756 0.0
C223 C 0.30152 0.04474 0.47719 0.0
C224 C 0.45941 0.78334 0.05868 0.0
C225 C 0.55659 0.80825 0.98016 0.0
O226 O 0.47432 0.81076 0.05869 0.0
Zn227 Zn 0.5098 0.79748 0.02307 0.0
O228 O 0.4717 0.75888 0.04032 0.0
Zn229 Zn 0.51257 0.74712 1.00465 0.0
O230 O 0.53902 0.71715 0.03486 0.0
O231 O 0.541 0.76745 0.05831 0.0
O232 O 0.54774 0.77823 0.97953 0.0
O233 O 0.54175 0.82879 1.00184 0.0
O234 O 0.4811 0.78434 0.97229 0.0
O235 O 0.49017 0.73199 0.95857 0.0
C236 C 0.55021 0.7374 0.0597 0.0
C237 C 0.47587 0.759 0.95091 0.0
C238 C 0.23028 0.54409 0.06969 0.0
C239 C 0.21304 0.46265 0.96657 0.0
O240 O 0.25686 0.53096 0.05729 0.0
Zn241 Zn 0.27156 0.49601 1.01511 0.0
O242 O 0.20289 0.53537 0.0551 0.0
Zn243 Zn 0.22018 0.50293 0.01844 0.0
O244 O 0.23965 0.46378 0.05486 0.0
O245 O 0.29305 0.46271 0.04405 0.0
O246 O 0.1904 0.47755 0.98501 0.0
O247 O 0.24317 0.46779 0.97539 0.0
O248 O 0.29801 0.521 0.98108 0.0
O249 O 0.24541 0.53358 0.97626 0.0
C250 C 0.2681 0.45098 0.06088 0.0
C251 C 0.27527 0.5376 0.96524 0.0
C252 C 0.54983 0.2692 0.97406 0.0
C253 C 0.47768 0.25314 0.08388 0.0
O254 O 0.53651 0.29032 0.99612 0.0
Zn255 Zn 0.51192 0.26107 0.02795 0.0
O256 O 0.54287 0.23878 0.97829 0.0
Zn257 Zn 0.51245 0.21002 1.01607 0.0
O258 O 0.47895 0.19178 0.98089 0.0
O259 O 0.4723 0.24462 0.99228 0.0
O260 O 0.48367 0.22587 0.06628 0.0
O261 O 0.48951 0.27967 0.07093 0.0
O262 O 0.54892 0.23393 0.05746 0.0
O263 O 0.54587 0.18179 0.04015 0.0
C264 C 0.46244 0.21798 0.97623 0.0
C265 C 0.55943 0.20443 0.06007 0.0
C266 C 0.80348 0.54751 0.0751 0.0
C267 C 0.79979 0.47151 0.9645 0.0
O268 O 0.82824 0.5359 0.05724 0.0
Zn269 Zn 0.80323 0.50976 0.01978 0.0
O270 O 0.77437 0.53983 0.06422 0.0
Zn271 Zn 0.75072 0.51076 0.02065 0.0
O272 O 0.72673 0.47975 0.05148 0.0
O273 O 0.78052 0.47329 0.05536 0.0
O274 O 0.77136 0.48056 0.97626 0.0
O275 O 0.82545 0.48223 0.98145 0.0
O276 O 0.7808 0.54824 0.9865 0.0
O277 O 0.72685 0.5434 0.99174 0.0
C278 C 0.75146 0.46442 0.06494 0.0
C279 C 0.75171 0.55826 0.97842 0.0
H280 H 0.16745 0.18513 0.39231 0.0
H281 H 0.17428 0.28458 0.35184 0.0
H282 H 0.1242 0.29904 0.38741 0.0
H283 H 0.08055 0.28392 0.43286 0.0
H284 H 0.07395 0.18417 0.47306 0.0
H285 H 0.122 0.16924 0.43459 0.0
C286 C 0.15796 0.20999 0.39135 0.0
C287 C 0.17471 0.23393 0.37001 0.0
C288 C 0.12934 0.21801 0.41182 0.0
C289 C 0.1618 0.26582 0.36817 0.0
C290 C 0.13329 0.27407 0.3886 0.0
C291 C 0.08947 0.25884 0.43307 0.0
C292 C 0.07379 0.23525 0.45612 0.0
C293 C 0.11715 0.25045 0.41095 0.0
C294 C 0.08553 0.20282 0.45568 0.0
C295 C 0.11308 0.19429 0.43378 0.0
H296 H 0.83395 0.16088 0.36471 0.0
H297 H 0.73179 0.18096 0.34173 0.0
H298 H 0.71589 0.1338 0.38149 0.0
H299 H 0.73177 0.0876 0.4244 0.0
H300 H 0.83498 0.06829 0.44435 0.0
H301 H 0.84967 0.11432 0.40411 0.0
C302 C 0.80817 0.15506 0.36868 0.0
C303 C 0.78401 0.17458 0.35112 0.0
C304 C 0.79944 0.12797 0.39092 0.0
C305 C 0.75074 0.16634 0.35542 0.0
C306 C 0.74173 0.13944 0.37808 0.0
C307 C 0.75743 0.09337 0.4197 0.0
C308 C 0.78216 0.0745 0.43769 0.0
C309 C 0.76594 0.12013 0.3962 0.0
C310 C 0.81534 0.08231 0.43112 0.0
C311 C 0.82387 0.10874 0.40812 0.0
H312 H 0.81533 0.69213 0.40622 0.0
H313 H 0.85933 0.77161 0.34335 0.0
H314 H 0.91291 0.75862 0.3712 0.0
H315 H 0.94554 0.72973 0.41948 0.0
H316 H 0.90279 0.65077 0.4841 0.0
H317 H 0.85066 0.65787 0.44894 0.0
C318 C 0.83684 0.70602 0.39797 0.0
C319 C 0.83331 0.73312 0.3732 0.0
C320 C 0.8677 0.69867 0.41463 0.0
C321 C 0.86135 0.751 0.36281 0.0
C322 C 0.89199 0.74359 0.37871 0.0
C323 C 0.92498 0.71364 0.42538 0.0
C324 C 0.92782 0.69002 0.45461 0.0
C325 C 0.89519 0.71828 0.40564 0.0
C326 C 0.90119 0.66908 0.46165 0.0
C327 C 0.87132 0.67336 0.44178 0.0
H328 H 0.19077 0.87308 0.3361 0.0
H329 H 0.28391 0.82509 0.35349 0.0
H330 H 0.30068 0.86868 0.39912 0.0
H331 H 0.28611 0.9179 0.43822 0.0
H332 H 0.19106 0.96322 0.42151 0.0
H333 H 0.17773 0.92333 0.37134 0.0
C334 C 0.21497 0.87262 0.34946 0.0
C335 C 0.23623 0.84635 0.3417 0.0
C336 C 0.22385 0.89705 0.37601 0.0
C337 C 0.2674 0.84544 0.35909 0.0
C338 C 0.27679 0.87017 0.38525 0.0
C339 C 0.26268 0.91922 0.42322 0.0
C340 C 0.23949 0.94331 0.43386 0.0
C341 C 0.25486 0.89573 0.39461 0.0
C342 C 0.20919 0.94471 0.41424 0.0
C343 C 0.20153 0.92196 0.38546 0.0
H344 H 0.18939 0.68127 0.645 0.0
H345 H 0.15623 0.77 0.70124 0.0
H346 H 0.10032 0.76013 0.67813 0.0
H347 H 0.06361 0.73175 0.63269 0.0
H348 H 0.09589 0.64322 0.57563 0.0
H349 H 0.14923 0.64705 0.6088 0.0
C350 C 0.16967 0.69776 0.65334 0.0
C351 C 0.17698 0.72659 0.67434 0.0
C352 C 0.13758 0.69223 0.63924 0.0
C353 C 0.15122 0.74787 0.68474 0.0
C354 C 0.11931 0.74232 0.67136 0.0
C355 C 0.08207 0.71284 0.62833 0.0
C356 C 0.07612 0.68747 0.60151 0.0
C357 C 0.11259 0.71546 0.64711 0.0
C358 C 0.09997 0.66293 0.59625 0.0
C359 C 0.13054 0.6653 0.61496 0.0
H360 H 0.18369 0.15801 0.67414 0.0
H361 H 0.28581 0.17665 0.69897 0.0
H362 H 0.30165 0.12932 0.65853 0.0
H363 H 0.28583 0.08351 0.61433 0.0
H364 H 0.18272 0.06583 0.5921 0.0
H365 H 0.16798 0.11187 0.6333 0.0
C366 C 0.20946 0.15186 0.67045 0.0
C367 C 0.23362 0.17104 0.68877 0.0
C368 C 0.21817 0.12472 0.6477 0.0
C369 C 0.26685 0.16231 0.68477 0.0
C370 C 0.27584 0.13531 0.66169 0.0
C371 C 0.26017 0.08962 0.61876 0.0
C372 C 0.23549 0.07121 0.59985 0.0
C373 C 0.25166 0.11641 0.64277 0.0
C374 C 0.20232 0.07949 0.60603 0.0
C375 C 0.19377 0.10592 0.6296 0.0
H376 H 0.82235 0.29188 0.65587 0.0
H377 H 0.83917 0.1935 0.69662 0.0
H378 H 0.89312 0.19275 0.66593 0.0
H379 H 0.93303 0.21806 0.62181 0.0
H380 H 0.91643 0.31708 0.58299 0.0
H381 H 0.86521 0.31966 0.6191 0.0
C382 C 0.83816 0.27062 0.6591 0.0
C383 C 0.82646 0.24264 0.67811 0.0
C384 C 0.86909 0.27028 0.64123 0.0
C385 C 0.84731 0.21519 0.68157 0.0
C386 C 0.87816 0.21471 0.66398 0.0
C387 C 0.91833 0.24028 0.62158 0.0
C388 C 0.92836 0.26715 0.59934 0.0
C389 C 0.88886 0.24172 0.64266 0.0
C390 C 0.90928 0.29596 0.59976 0.0
C391 C 0.8799 0.29747 0.62036 0.0
H392 H 0.82429 0.86002 0.67854 0.0
H393 H 0.72498 0.86596 0.72248 0.0
H394 H 0.71371 0.91085 0.67809 0.0
H395 H 0.73095 0.94489 0.62211 0.0
H396 H 0.83139 0.93792 0.58256 0.0
H397 H 0.8432 0.89699 0.63109 0.0
C398 C 0.80027 0.87112 0.68007 0.0
C399 C 0.77546 0.85816 0.70391 0.0
C400 C 0.79395 0.89679 0.65468 0.0
C401 C 0.74459 0.87407 0.70389 0.0
C402 C 0.73805 0.89999 0.67846 0.0
C403 C 0.75542 0.93447 0.62433 0.0
C404 C 0.7801 0.94412 0.59828 0.0
C405 C 0.76229 0.91079 0.65273 0.0
C406 C 0.81184 0.93085 0.60194 0.0
C407 C 0.81868 0.90742 0.62975 0.0
H408 H 0.85697 0.81471 0.67215 0.0
H409 H 0.85165 0.71873 0.72379 0.0
H410 H 0.89782 0.70077 0.68356 0.0
H411 H 0.93778 0.71203 0.63073 0.0
H412 H 0.94282 0.80991 0.58409 0.0
H413 H 0.89912 0.82766 0.62696 0.0
C414 C 0.86622 0.79017 0.67635 0.0
C415 C 0.85038 0.76843 0.70178 0.0
C416 C 0.89285 0.78024 0.65373 0.0
C417 C 0.86276 0.73621 0.70448 0.0
C418 C 0.88933 0.7259 0.68147 0.0
C419 C 0.92947 0.7373 0.63025 0.0
C420 C 0.94345 0.75951 0.60384 0.0
C421 C 0.9042 0.74761 0.65542 0.0
C422 C 0.93259 0.79223 0.60389 0.0
C423 C 0.9075 0.80244 0.62838 0.0
H424 H 0.29765 0.82816 0.67548 0.0
H425 H 0.22506 0.79589 0.59206 0.0
H426 H 0.23093 0.84657 0.55664 0.0
H427 H 0.25391 0.90114 0.55066 0.0
H428 H 0.32918 0.93416 0.62964 0.0
H429 H 0.32541 0.88216 0.66516 0.0
C430 C 0.28344 0.83215 0.64934 0.0
C431 C 0.26012 0.80856 0.63729 0.0
C432 C 0.28728 0.86156 0.62838 0.0
C433 C 0.24228 0.814 0.60294 0.0
C434 C 0.24574 0.84295 0.5824 0.0
C435 C 0.26957 0.89696 0.57566 0.0
C436 C 0.29136 0.92155 0.58798 0.0
C437 C 0.26758 0.86711 0.59526 0.0
C438 C 0.31207 0.91556 0.61978 0.0
C439 C 0.30983 0.88588 0.64008 0.0
H440 H 0.18286 0.28764 0.66162 0.0
H441 H 0.11988 0.23911 0.74293 0.0
H442 H 0.07132 0.25747 0.70715 0.0
H443 H 0.04759 0.27992 0.6473 0.0
H444 H 0.10981 0.33021 0.56681 0.0
H445 H 0.15787 0.31922 0.60787 0.0
C446 C 0.15842 0.28196 0.67199 0.0
C447 C 0.15484 0.26197 0.70472 0.0
C448 C 0.13058 0.29268 0.65122 0.0
C449 C 0.12316 0.25466 0.71799 0.0
C450 C 0.09542 0.26492 0.69734 0.0
C451 C 0.07156 0.28935 0.63947 0.0
C452 C 0.07533 0.30576 0.60418 0.0
C453 C 0.09892 0.2829 0.66318 0.0
C454 C 0.10637 0.31783 0.59409 0.0
C455 C 0.13386 0.31121 0.61736 0.0
H456 H 0.75178 0.14682 0.69686 0.0
H457 H 0.68955 0.20948 0.62847 0.0
H458 H 0.67317 0.16252 0.58817 0.0
H459 H 0.68488 0.10562 0.56544 0.0
H460 H 0.75104 0.0453 0.63193 0.0
H461 H 0.75734 0.08891 0.67995 0.0
C462 C 0.73393 0.14995 0.67376 0.0
C463 C 0.72212 0.18151 0.66539 0.0
C464 C 0.72575 0.12321 0.64992 0.0
C465 C 0.69886 0.18535 0.63557 0.0
C466 C 0.68982 0.15855 0.61223 0.0
C467 C 0.69982 0.10185 0.59108 0.0
C468 C 0.71763 0.07247 0.5952 0.0
C469 C 0.70429 0.12764 0.61804 0.0
C470 C 0.73728 0.06786 0.62819 0.0
C471 C 0.74097 0.09279 0.65558 0.0
H472 H 0.83508 0.29135 0.37896 0.0
H473 H 0.8979 0.24029 0.29855 0.0
H474 H 0.94642 0.25719 0.33561 0.0
H475 H 0.96983 0.27901 0.39654 0.0
H476 H 0.90755 0.33153 0.47608 0.0
H477 H 0.85997 0.32211 0.43368 0.0
C478 C 0.85951 0.28487 0.36901 0.0
C479 C 0.86301 0.26459 0.33617 0.0
C480 C 0.88729 0.29468 0.39056 0.0
C481 C 0.89469 0.25614 0.32353 0.0
C482 C 0.92239 0.26554 0.34493 0.0
C483 C 0.94602 0.28935 0.40376 0.0
C484 C 0.94204 0.30611 0.43906 0.0
C485 C 0.91888 0.28376 0.37925 0.0
C486 C 0.91113 0.31903 0.44866 0.0
C487 C 0.88391 0.31333 0.42463 0.0
H488 H 0.7074 0.81775 0.39504 0.0
H489 H 0.80007 0.84434 0.34399 0.0
H490 H 0.79473 0.89984 0.36981 0.0
H491 H 0.76725 0.93879 0.41306 0.0
H492 H 0.67419 0.91373 0.46387 0.0
H493 H 0.67579 0.86004 0.43143 0.0
C494 C 0.72599 0.83593 0.38878 0.0
C495 C 0.75443 0.82664 0.36818 0.0
C496 C 0.72284 0.86803 0.40398 0.0
C497 C 0.77829 0.85059 0.3604 0.0
C498 C 0.77526 0.88238 0.37515 0.0
C499 C 0.74702 0.92179 0.41655 0.0
C500 C 0.72083 0.9301 0.44118 0.0
C501 C 0.74822 0.89104 0.39802 0.0
C502 C 0.69463 0.90797 0.44502 0.0
C503 C 0.69567 0.87715 0.42668 0.0
H504 H 0.17493 0.73294 0.36972 0.0
H505 H 0.11577 0.79799 0.30069 0.0
H506 H 0.06842 0.78833 0.34247 0.0
H507 H 0.04606 0.76649 0.40332 0.0
H508 H 0.10396 0.69869 0.47019 0.0
H509 H 0.14963 0.70409 0.42473 0.0
C510 C 0.15132 0.74408 0.36324 0.0
C511 C 0.14862 0.76596 0.3322 0.0
C512 C 0.12426 0.7384 0.38744 0.0
C513 C 0.11814 0.78067 0.32414 0.0
C514 C 0.09123 0.77547 0.3483 0.0
C515 C 0.06857 0.75263 0.40751 0.0
C516 C 0.07202 0.73262 0.44016 0.0
C517 C 0.09434 0.75526 0.38077 0.0
C518 C 0.10095 0.71431 0.4452 0.0
C519 C 0.12704 0.71745 0.4193 0.0
H520 H 0.27605 0.13316 0.33541 0.0
H521 H 0.28767 0.20811 0.42281 0.0
H522 H 0.30907 0.16757 0.4682 0.0
H523 H 0.31377 0.1094 0.4866 0.0
H524 H 0.29862 0.03428 0.40037 0.0
H525 H 0.29002 0.07596 0.3508 0.0
C526 C 0.28448 0.14076 0.36389 0.0
C527 C 0.28006 0.17347 0.37589 0.0
C528 C 0.29575 0.11708 0.39024 0.0
C529 C 0.29068 0.18297 0.41306 0.0
C530 C 0.30272 0.15977 0.43909 0.0
C531 C 0.30999 0.10235 0.4566 0.0
C532 C 0.30728 0.06902 0.4468 0.0
C533 C 0.30385 0.12651 0.4286 0.0
C534 C 0.30136 0.05991 0.40821 0.0
C535 C 0.29609 0.08373 0.38 0.0
H536 H 0.69289 0.79047 0.90669 0.0
H537 H 0.63236 0.77718 0.80519 0.0
H538 H 0.58472 0.79854 0.84006 0.0
H539 H 0.55855 0.80989 0.90278 0.0
H540 H 0.61839 0.82202 1.00476 0.0
H541 H 0.66817 0.81305 0.96643 0.0
C542 C 0.66944 0.7932 0.89199 0.0
C543 C 0.666 0.78192 0.85359 0.0
C544 C 0.64203 0.80512 0.91245 0.0
C545 C 0.63563 0.78576 0.83467 0.0
C546 C 0.60831 0.79772 0.85472 0.0
C547 C 0.58264 0.81217 0.91612 0.0
C548 C 0.58501 0.81696 0.95631 0.0
C549 C 0.61093 0.80603 0.89406 0.0
C550 C 0.61615 0.81908 0.9737 0.0
C551 C 0.64453 0.81338 0.95187 0.0
H552 H 0.33587 0.63203 0.84141 0.0
H553 H 0.23446 0.65993 0.82639 0.0
H554 H 0.21794 0.61841 0.87382 0.0
H555 H 0.23341 0.57655 0.92277 0.0
H556 H 0.33592 0.55109 0.93718 0.0
H557 H 0.35092 0.58964 0.88718 0.0
C558 C 0.31009 0.62895 0.84844 0.0
C559 C 0.28642 0.64921 0.83092 0.0
C560 C 0.30106 0.60574 0.87597 0.0
C561 C 0.25308 0.64457 0.83959 0.0
C562 C 0.24374 0.62105 0.86688 0.0
C563 C 0.259 0.57942 0.9149 0.0
C564 C 0.28349 0.56102 0.93408 0.0
C565 C 0.26764 0.6019 0.88585 0.0
C566 C 0.31652 0.56494 0.92324 0.0
C567 C 0.32519 0.58698 0.89452 0.0
H568 H 0.34248 0.21773 0.85818 0.0
H569 H 0.30692 0.28785 0.94246 0.0
H570 H 0.35555 0.27942 0.98192 0.0
H571 H 0.40947 0.25494 0.99141 0.0
H572 H 0.44548 0.18223 0.91111 0.0
H573 H 0.39536 0.18839 0.87164 0.0
C574 C 0.34527 0.23085 0.88536 0.0
C575 C 0.32142 0.25424 0.89653 0.0
C576 C 0.37343 0.2255 0.90867 0.0
C577 C 0.32532 0.27065 0.93223 0.0
C578 C 0.35307 0.26569 0.95511 0.0
C579 C 0.40632 0.2403 0.96533 0.0
C580 C 0.43127 0.21852 0.95387 0.0
C581 C 0.37754 0.24374 0.94328 0.0
C582 C 0.42657 0.19923 0.92047 0.0
C583 C 0.39799 0.20287 0.89786 0.0
H584 H 0.78997 0.33943 0.8725 0.0
H585 H 0.73014 0.39971 0.79839 0.0
H586 H 0.74609 0.44863 0.83523 0.0
H587 H 0.77005 0.4725 0.89465 0.0
H588 H 0.83196 0.41313 0.96739 0.0
H589 H 0.82282 0.36564 0.92481 0.0
C590 C 0.78142 0.36348 0.86375 0.0
C591 C 0.75899 0.36615 0.83286 0.0
C592 C 0.79077 0.39151 0.88512 0.0
C593 C 0.74771 0.39726 0.82183 0.0
C594 C 0.75657 0.42515 0.84313 0.0
C595 C 0.78232 0.44938 0.90039 0.0
C596 C 0.80155 0.44612 0.93399 0.0
C597 C 0.77706 0.42236 0.87569 0.0
C598 C 0.81732 0.41617 0.94141 0.0
C599 C 0.81182 0.38898 0.91728 0.0
H600 H 0.70157 0.19716 0.12911 0.0
H601 H 0.65738 0.26487 0.20986 0.0
H602 H 0.60299 0.25305 0.1831 0.0
H603 H 0.56996 0.23128 0.12979 0.0
H604 H 0.61325 0.16532 0.04649 0.0
H605 H 0.66594 0.16793 0.08142 0.0
C606 C 0.67981 0.20833 0.1416 0.0
C607 C 0.68324 0.23183 0.17135 0.0
C608 C 0.64864 0.2021 0.12518 0.0
C609 C 0.65511 0.24664 0.18706 0.0
C610 C 0.62411 0.24007 0.17158 0.0
C611 C 0.59075 0.2168 0.11988 0.0
C612 C 0.58801 0.19843 0.08551 0.0
C613 C 0.62083 0.21903 0.13957 0.0
C614 C 0.61486 0.17954 0.073 0.0
C615 C 0.64502 0.18132 0.09278 0.0
H616 H 0.78688 0.67788 0.16656 0.0
H617 H 0.74057 0.61246 0.24679 0.0
H618 H 0.76059 0.56509 0.20995 0.0
H619 H 0.78231 0.54321 0.1485 0.0
H620 H 0.82969 0.6082 0.06876 0.0
H621 H 0.81886 0.65488 0.11195 0.0
C622 C 0.78223 0.65319 0.17658 0.0
C623 C 0.76223 0.64851 0.20914 0.0
C624 C 0.7937 0.6261 0.15509 0.0
C625 C 0.75614 0.61654 0.22196 0.0
C626 C 0.7673 0.58949 0.20068 0.0
C627 C 0.79138 0.56743 0.14146 0.0
C628 C 0.80685 0.57245 0.10578 0.0
C629 C 0.78485 0.59404 0.16632 0.0
C630 C 0.81818 0.60384 0.09644 0.0
C631 C 0.81162 0.63054 0.12091 0.0
H632 H 0.31457 0.74421 0.09916 0.0
H633 H 0.33556 0.79906 0.20335 0.0
H634 H 0.38975 0.81383 0.17781 0.0
H635 H 0.4327 0.80827 0.12642 0.0
H636 H 0.41045 0.75 0.02497 0.0
H637 H 0.35561 0.73922 0.04904 0.0
C638 C 0.33107 0.75906 0.11665 0.0
C639 C 0.32116 0.76994 0.15346 0.0
C640 C 0.36218 0.76681 0.1022 0.0
C641 C 0.34254 0.79023 0.17494 0.0
C642 C 0.37361 0.79856 0.1604 0.0
C643 C 0.41565 0.79346 0.10965 0.0
C644 C 0.42574 0.77971 0.07412 0.0
C645 C 0.38393 0.78664 0.12415 0.0
C646 C 0.40347 0.76048 0.05264 0.0
C647 C 0.37202 0.75434 0.0663 0.0
H648 H 0.3031 0.3146 0.13291 0.0
H649 H 0.23328 0.34548 0.21937 0.0
H650 H 0.22163 0.39531 0.18194 0.0
H651 H 0.23445 0.43178 0.12594 0.0
H652 H 0.3097 0.40142 0.04557 0.0
H653 H 0.31688 0.35021 0.0801 0.0
C654 C 0.28574 0.33243 0.14425 0.0
C655 C 0.2698 0.32662 0.17959 0.0
C656 C 0.28044 0.36137 0.12374 0.0
C657 C 0.24612 0.34935 0.19244 0.0
C658 C 0.23966 0.37796 0.17116 0.0
C659 C 0.25238 0.41387 0.11618 0.0
C660 C 0.2717 0.42046 0.08337 0.0
C661 C 0.25715 0.38454 0.13703 0.0
C662 C 0.29487 0.39714 0.07098 0.0
C663 C 0.29888 0.36774 0.09057 0.0
H664 H 0.38141 0.28923 0.21855 0.0
H665 H 0.33786 0.19775 0.18196 0.0
H666 H 0.38553 0.18596 0.14164 0.0
H667 H 0.43374 0.20694 0.10682 0.0
H668 H 0.47327 0.30167 0.13799 0.0
H669 H 0.43286 0.30722 0.18947 0.0
C670 C 0.3827 0.26637 0.20236 0.0
C671 C 0.35578 0.24478 0.20272 0.0
C672 C 0.40906 0.26083 0.17717 0.0
C673 C 0.35816 0.21487 0.18237 0.0
C674 C 0.38522 0.20835 0.15869 0.0
C675 C 0.43386 0.22851 0.12534 0.0
C676 C 0.45608 0.25411 0.11815 0.0
C677 C 0.40988 0.232 0.15424 0.0
C678 C 0.45603 0.28187 0.14248 0.0
C679 C 0.43301 0.28502 0.17203 0.0
H680 H 0.71013 0.34569 0.16989 0.0
H681 H 0.80956 0.31584 0.14335 0.0
H682 H 0.8186 0.36727 0.10994 0.0
H683 H 0.79703 0.4184 0.08311 0.0
H684 H 0.69612 0.44599 0.10387 0.0
H685 H 0.68869 0.39726 0.14367 0.0
C686 C 0.73377 0.35023 0.15665 0.0
C687 C 0.759 0.32654 0.15916 0.0
C688 C 0.73841 0.3793 0.13586 0.0
C689 C 0.78973 0.33356 0.14262 0.0
C690 C 0.79485 0.36289 0.12298 0.0
C691 C 0.77346 0.41393 0.09658 0.0
C692 C 0.74714 0.43577 0.09043 0.0
C693 C 0.76917 0.38558 0.11871 0.0
C694 C 0.71672 0.42947 0.10793 0.0
C695 C 0.71248 0.40165 0.13076 0.0
H696 H 0.65903 0.67321 0.16596 0.0
H697 H 0.66703 0.77287 0.20749 0.0
H698 H 0.62199 0.78931 0.16444 0.0
H699 H 0.58185 0.77562 0.11322 0.0
H700 H 0.57497 0.67584 0.0713 0.0
H701 H 0.61831 0.6593 0.11615 0.0
C702 C 0.65116 0.69863 0.16537 0.0
C703 C 0.66672 0.72189 0.18956 0.0
C704 C 0.62547 0.70787 0.14046 0.0
C705 C 0.65551 0.7545 0.1892 0.0
C706 C 0.62984 0.76391 0.16448 0.0
C707 C 0.58965 0.75019 0.11402 0.0
C708 C 0.57511 0.72703 0.08875 0.0
C709 C 0.61482 0.74084 0.13976 0.0
C710 C 0.58565 0.69422 0.09029 0.0
C711 C 0.6105 0.68472 0.11592 0.0
H712 H 0.27674 0.65883 0.1781 0.0
H713 H 0.18746 0.70279 0.13502 0.0
H714 H 0.17209 0.65099 0.10392 0.0
H715 H 0.1879 0.59538 0.08156 0.0
H716 H 0.27899 0.55324 0.12218 0.0
H717 H 0.28966 0.60185 0.16155 0.0
C718 C 0.25374 0.65695 0.16225 0.0
C719 C 0.2335 0.68472 0.15854 0.0
C720 C 0.24551 0.62739 0.1436 0.0
C721 C 0.20346 0.68175 0.1385 0.0
C722 C 0.19478 0.65218 0.12039 0.0
C723 C 0.20966 0.59659 0.09974 0.0
C724 C 0.23277 0.57089 0.09863 0.0
C725 C 0.21613 0.62512 0.12169 0.0
C726 C 0.26098 0.57286 0.12219 0.0
C727 C 0.26716 0.60068 0.14469 0.0
H728 H 0.34662 0.76548 0.85165 0.0
H729 H 0.4018 0.69937 0.77913 0.0
H730 H 0.45073 0.70755 0.81956 0.0
H731 H 0.47487 0.72709 0.88134 0.0
H732 H 0.41976 0.79459 0.95257 0.0
H733 H 0.37382 0.79248 0.90701 0.0
C734 C 0.3698 0.75401 0.84393 0.0
C735 C 0.3709 0.73213 0.81247 0.0
C736 C 0.39755 0.75844 0.86766 0.0
C737 C 0.40073 0.71679 0.80291 0.0
C738 C 0.4285 0.72106 0.82637 0.0
C739 C 0.45296 0.74166 0.88644 0.0
C740 C 0.45044 0.76059 0.92041 0.0
C741 C 0.42676 0.74074 0.85976 0.0
C742 C 0.4222 0.77979 0.92658 0.0
C743 C 0.39588 0.77855 0.90061 0.0
H744 H 0.19787 0.32558 0.88987 0.0
H745 H 0.28291 0.36052 0.82897 0.0
H746 H 0.27297 0.41604 0.85328 0.0
H747 H 0.24723 0.45118 0.90196 0.0
H748 H 0.16458 0.41608 0.96696 0.0
H749 H 0.16564 0.36434 0.93028 0.0
C750 C 0.21341 0.34567 0.88086 0.0
C751 C 0.24121 0.33915 0.85796 0.0
C752 C 0.20818 0.37731 0.89616 0.0
C753 C 0.26149 0.36513 0.84671 0.0
C754 C 0.2559 0.39677 0.86078 0.0
C755 C 0.2288 0.43255 0.9072 0.0
C756 C 0.20615 0.43707 0.93732 0.0
C757 C 0.2304 0.40269 0.88707 0.0
C758 C 0.18218 0.41308 0.94379 0.0
C759 C 0.18308 0.38337 0.92314 0.0
H760 H 0.65697 0.3353 0.86944 0.0
H761 H 0.6753 0.23465 0.83715 0.0
H762 H 0.62999 0.21691 0.87867 0.0
H763 H 0.58662 0.23023 0.92615 0.0
H764 H 0.56927 0.33145 0.95779 0.0
H765 H 0.61287 0.34872 0.91453 0.0
C766 C 0.65123 0.30943 0.87174 0.0
C767 C 0.66977 0.28624 0.85083 0.0
C768 C 0.62533 0.29955 0.89549 0.0
C769 C 0.66144 0.25291 0.85315 0.0
C770 C 0.63562 0.24281 0.87691 0.0
C771 C 0.59221 0.25608 0.92337 0.0
C772 C 0.5747 0.27947 0.9454 0.0
C773 C 0.61756 0.26593 0.89848 0.0
C774 C 0.58231 0.31288 0.94135 0.0
C775 C 0.60732 0.32281 0.91664 0.0
H776 H 0.74067 0.70139 0.91333 0.0
H777 H 0.72205 0.64785 0.80745 0.0
H778 H 0.72915 0.59602 0.8414 0.0
H779 H 0.73842 0.56561 0.90215 0.0
H780 H 0.7569 0.61925 1.00769 0.0
H781 H 0.75142 0.67131 0.97329 0.0
C782 C 0.73817 0.67838 0.89769 0.0
C783 C 0.73083 0.67857 0.85791 0.0
C784 C 0.74181 0.64866 0.9175 0.0
C785 C 0.72815 0.64849 0.83796 0.0
C786 C 0.73186 0.61879 0.85743 0.0
C787 C 0.74107 0.58881 0.91739 0.0
C788 C 0.74758 0.589 0.95723 0.0
C789 C 0.73829 0.61855 0.8973 0.0
C790 C 0.75154 0.61888 0.97696 0.0
C791 C 0.74853 0.64852 0.95732 0.0
loop_
_geom_bond_atom_site_label_1
_geom_bond_atom_site_label_2
_geom_bond_distance
_geom_bond_site_symmetry_2
_ccdc_geom_bond_type
H0 C8 0.930 . S
H1 C11 0.930 . S
H2 C13 0.930 . S
H3 C14 0.970 . S
H4 C14 0.970 . S
H5 C16 0.930 . S
H6 C18 0.930 . S
H7 C20 0.930 . S
C8 H0 0.930 . S
C8 C9 1.382 . S
C8 C10 1.426 . S
C9 C8 1.382 . S
C9 C13 1.389 . S
C10 C8 1.426 . S
C10 C11 1.375 . S
C10 C14 1.532 . S
C11 H1 0.930 . S
C11 C10 1.375 . S
C11 C12 1.416 . S
C12 C11 1.416 . S
C12 C13 1.371 . S
C13 H2 0.930 . S
C13 C9 1.389 . S
C13 C12 1.371 . S
C14 H3 0.970 . S
C14 H4 0.970 . S
C14 C10 1.532 . S
C14 C15 1.499 . S
C15 C14 1.499 . S
C15 C16 1.370 . S
C15 C20 1.415 . S
C16 H5 0.930 . S
C16 C15 1.370 . S
C16 C17 1.407 . S
C17 C16 1.407 . S
C17 C18 1.365 . S
C18 H6 0.930 . S
C18 C17 1.365 . S
C18 C19 1.393 . S
C19 C18 1.393 . S
C19 C20 1.387 . S
C20 H7 0.930 . S
C20 C15 1.415 . S
C20 C19 1.387 . S
H21 C29 0.930 . S
H22 C32 0.930 . S
H23 C34 0.930 . S
H24 C35 0.970 . S
H25 C35 0.970 . S
H26 C37 0.930 . S
H27 C39 0.930 . S
H28 C41 0.930 . S
C29 H21 0.930 . S
C29 C30 1.382 . S
C29 C31 1.426 . S
C30 C29 1.382 . S
C30 C34 1.389 . S
C31 C29 1.426 . S
C31 C32 1.375 . S
C31 C35 1.532 . S
C32 H22 0.930 . S
C32 C31 1.375 . S
C32 C33 1.416 . S
C33 C32 1.416 . S
C33 C34 1.371 . S
C34 H23 0.930 . S
C34 C30 1.389 . S
C34 C33 1.371 . S
C35 H24 0.970 . S
C35 H25 0.970 . S
C35 C31 1.532 . S
C35 C36 1.499 . S
C36 C35 1.499 . S
C36 C37 1.370 . S
C36 C41 1.415 . S
C37 H26 0.930 . S
C37 C36 1.370 . S
C37 C38 1.407 . S
C38 C37 1.407 . S
C38 C39 1.365 . S
C39 H27 0.930 . S
C39 C38 1.365 . S
C39 C40 1.393 . S
C40 C39 1.393 . S
C40 C41 1.387 . S
C41 H28 0.930 . S
C41 C36 1.415 . S
C41 C40 1.387 . S
H42 C50 0.930 . S
H43 C53 0.930 . S
H44 C55 0.930 . S
H45 C56 0.970 . S
H46 C56 0.970 . S
H47 C58 0.930 . S
H48 C60 0.930 . S
H49 C62 0.930 . S
C50 H42 0.930 . S
C50 C51 1.382 . S
C50 C52 1.426 . S
C51 C50 1.382 . S
C51 C55 1.389 . S
C52 C50 1.426 . S
C52 C53 1.375 . S
C52 C56 1.532 . S
C53 H43 0.930 . S
C53 C52 1.375 . S
C53 C54 1.416 . S
C54 C53 1.416 . S
C54 C55 1.371 . S
C55 H44 0.930 . S
C55 C51 1.389 . S
C55 C54 1.371 . S
C56 H45 0.970 . S
C56 H46 0.970 . S
C56 C52 1.532 . S
C56 C57 1.499 . S
C57 C56 1.499 . S
C57 C58 1.370 . S
C57 C62 1.415 . S
C58 H47 0.930 . S
C58 C57 1.370 . S
C58 C59 1.407 . S
C59 C58 1.407 . S
C59 C60 1.365 . S
C60 H48 0.930 . S
C60 C59 1.365 . S
C60 C61 1.393 . S
C61 C60 1.393 . S
C61 C62 1.387 . S
C62 H49 0.930 . S
C62 C57 1.415 . S
C62 C61 1.387 . S
H63 C71 0.930 . S
H64 C74 0.930 . S
H65 C76 0.930 . S
H66 C77 0.970 . S
H67 C77 0.970 . S
H68 C79 0.930 . S
H69 C81 0.930 . S
H70 C83 0.930 . S
C71 H63 0.930 . S
C71 C72 1.382 . S
C71 C73 1.426 . S
C72 C71 1.382 . S
C72 C76 1.389 . S
C73 C71 1.426 . S
C73 C74 1.375 . S
C73 C77 1.532 . S
C74 H64 0.930 . S
C74 C73 1.375 . S
C74 C75 1.416 . S
C75 C74 1.416 . S
C75 C76 1.371 . S
C76 H65 0.930 . S
C76 C72 1.389 . S
C76 C75 1.371 . S
C77 H66 0.970 . S
C77 H67 0.970 . S
C77 C73 1.532 . S
C77 C78 1.499 . S
C78 C77 1.499 . S
C78 C79 1.370 . S
C78 C83 1.415 . S
C79 H68 0.930 . S
C79 C78 1.370 . S
C79 C80 1.407 . S
C80 C79 1.407 . S
C80 C81 1.365 . S
C81 H69 0.930 . S
C81 C80 1.365 . S
C81 C82 1.393 . S
C82 C81 1.393 . S
C82 C83 1.387 . S
C83 H70 0.930 . S
C83 C78 1.415 . S
C83 C82 1.387 . S
H84 C92 0.930 . S
H85 C95 0.930 . S
H86 C97 0.930 . S
H87 C98 0.970 . S
H88 C98 0.970 . S
H89 C100 0.930 . S
H90 C102 0.930 . S
H91 C104 0.930 . S
C92 H84 0.930 . S
C92 C93 1.382 . S
C92 C94 1.426 . S
C93 C92 1.382 . S
C93 C97 1.389 . S
C94 C92 1.426 . S
C94 C95 1.375 . S
C94 C98 1.532 . S
C95 H85 0.930 . S
C95 C94 1.375 . S
C95 C96 1.416 . S
C96 C95 1.416 . S
C96 C97 1.371 . S
C97 H86 0.930 . S
C97 C93 1.389 . S
C97 C96 1.371 . S
C98 H87 0.970 . S
C98 H88 0.970 . S
C98 C94 1.532 . S
C98 C99 1.499 . S
C99 C98 1.499 . S
C99 C100 1.370 . S
C99 C104 1.415 . S
C100 H89 0.930 . S
C100 C99 1.370 . S
C100 C101 1.407 . S
C101 C100 1.407 . S
C101 C102 1.365 . S
C102 H90 0.930 . S
C102 C101 1.365 . S
C102 C103 1.393 . S
C103 C102 1.393 . S
C103 C104 1.387 . S
C104 H91 0.930 . S
C104 C99 1.415 . S
C104 C103 1.387 . S
H105 C113 0.930 . S
H106 C116 0.930 . S
H107 C118 0.930 . S
H108 C119 0.970 . S
H109 C119 0.970 . S
H110 C121 0.930 . S
H111 C123 0.930 . S
H112 C125 0.930 . S
C113 H105 0.930 . S
C113 C114 1.382 . S
C113 C115 1.426 . S
C114 C113 1.382 . S
C114 C118 1.389 . S
C115 C113 1.426 . S
C115 C116 1.375 . S
C115 C119 1.532 . S
C116 H106 0.930 . S
C116 C115 1.375 . S
C116 C117 1.416 . S
C117 C116 1.416 . S
C117 C118 1.371 . S
C118 H107 0.930 . S
C118 C114 1.389 . S
C118 C117 1.371 . S
C119 H108 0.970 . S
C119 H109 0.970 . S
C119 C115 1.532 . S
C119 C120 1.499 . S
C120 C119 1.499 . S
C120 C121 1.370 . S
C120 C125 1.415 . S
C121 H110 0.930 . S
C121 C120 1.370 . S
C121 C122 1.407 . S
C122 C121 1.407 . S
C122 C123 1.365 . S
C123 H111 0.930 . S
C123 C122 1.365 . S
C123 C124 1.393 . S
C124 C123 1.393 . S
C124 C125 1.387 . S
C125 H112 0.930 . S
C125 C120 1.415 . S
C125 C124 1.387 . S
H126 C134 0.930 . S
H127 C137 0.930 . S
H128 C139 0.930 . S
H129 C140 0.970 . S
H130 C140 0.970 . S
H131 C142 0.930 . S
H132 C144 0.930 . S
H133 C146 0.930 . S
C134 H126 0.930 . S
C134 C135 1.382 . S
C134 C136 1.426 . S
C135 C134 1.382 . S
C135 C139 1.389 . S
C136 C134 1.426 . S
C136 C137 1.375 . S
C136 C140 1.532 . S
C137 H127 0.930 . S
C137 C136 1.375 . S
C137 C138 1.416 . S
C138 C137 1.416 . S
C138 C139 1.371 . S
C139 H128 0.930 . S
C139 C135 1.389 . S
C139 C138 1.371 . S
C140 H129 0.970 . S
C140 H130 0.970 . S
C140 C136 1.532 . S
C140 C141 1.499 . S
C141 C140 1.499 . S
C141 C142 1.370 . S
C141 C146 1.415 . S
C142 H131 0.930 . S
C142 C141 1.370 . S
C142 C143 1.407 . S
C143 C142 1.407 . S
C143 C144 1.365 . S
C144 H132 0.930 . S
C144 C143 1.365 . S
C144 C145 1.393 . S
C145 C144 1.393 . S
C145 C146 1.387 . S
C146 H133 0.930 . S
C146 C141 1.415 . S
C146 C145 1.387 . S
H147 C155 0.930 . S
H148 C158 0.930 . S
H149 C160 0.930 . S
H150 C161 0.970 . S
H151 C161 0.970 . S
H152 C163 0.930 . S
H153 C165 0.930 . S
H154 C167 0.930 . S
C155 H147 0.930 . S
C155 C156 1.382 . S
C155 C157 1.426 . S
C156 C155 1.382 . S
C156 C160 1.389 . S
C157 C155 1.426 . S
C157 C158 1.375 . S
C157 C161 1.532 . S
C158 H148 0.930 . S
C158 C157 1.375 . S
C158 C159 1.416 . S
C159 C158 1.416 . S
C159 C160 1.371 . S
C160 H149 0.930 . S
C160 C156 1.389 . S
C160 C159 1.371 . S
C161 H150 0.970 . S
C161 H151 0.970 . S
C161 C157 1.532 . S
C161 C162 1.499 . S
C162 C161 1.499 . S
C162 C163 1.370 . S
C162 C167 1.415 . S
C163 H152 0.930 . S
C163 C162 1.370 . S
C163 C164 1.407 . S
C164 C163 1.407 . S
C164 C165 1.365 . S
C165 H153 0.930 . S
C165 C164 1.365 . S
C165 C166 1.393 . S
C166 C165 1.393 . S
C166 C167 1.387 . S
C167 H154 0.930 . S
C167 C162 1.415 . S
C167 C166 1.387 . S
C168 O170 1.247 . S
C168 O172 1.258 . S
C169 O176 1.247 . S
C169 O177 1.258 . S
O170 C168 1.247 . S
O170 Zn171 2.028 1_655 S
Zn171 O170 2.028 1_455 S
Zn171 O175 2.035 . S
Zn171 O177 2.035 . S
Zn171 O178 2.028 1_455 S
O172 C168 1.258 . S
O172 Zn173 2.035 1_655 S
Zn173 O172 2.035 1_455 S
Zn173 O174 2.028 . S
Zn173 O176 2.028 . S
Zn173 O179 2.035 1_455 S
O174 Zn173 2.028 . S
O174 C180 1.247 . S
O175 Zn171 2.035 . S
O175 C180 1.258 . S
O176 C169 1.247 . S
O176 Zn173 2.028 . S
O177 C169 1.258 . S
O177 Zn171 2.035 . S
O178 Zn171 2.028 1_655 S
O178 C181 1.247 . S
O179 Zn173 2.035 1_655 S
O179 C181 1.258 . S
C180 O174 1.247 . S
C180 O175 1.258 . S
C181 O178 1.247 . S
C181 O179 1.258 . S
C182 O184 1.247 . S
C182 O186 1.258 . S
C183 O190 1.247 . S
C183 O191 1.258 . S
O184 C182 1.247 . S
O184 Zn185 2.028 . S
Zn185 O184 2.028 . S
Zn185 O189 2.035 1_545 S
Zn185 O191 2.035 1_545 S
Zn185 O192 2.028 . S
O186 C182 1.258 . S
O186 Zn187 2.035 . S
Zn187 O186 2.035 . S
Zn187 O188 2.028 1_545 S
Zn187 O190 2.028 1_545 S
Zn187 O193 2.035 . S
O188 Zn187 2.028 1_565 S
O188 C194 1.247 . S
O189 Zn185 2.035 1_565 S
O189 C194 1.258 . S
O190 C183 1.247 . S
O190 Zn187 2.028 1_565 S
O191 C183 1.258 . S
O191 Zn185 2.035 1_565 S
O192 Zn185 2.028 . S
O192 C195 1.247 . S
O193 Zn187 2.035 . S
O193 C195 1.258 . S
C194 O188 1.247 . S
C194 O189 1.258 . S
C195 O192 1.247 . S
C195 O193 1.258 . S
C196 O198 1.247 . S
C196 O200 1.258 . S
C197 O204 1.247 . S
C197 O205 1.258 . S
O198 C196 1.247 . S
O198 Zn199 2.028 1_655 S
Zn199 O198 2.028 1_455 S
Zn199 O203 2.035 . S
Zn199 O205 2.035 . S
Zn199 O206 2.028 1_455 S
O200 C196 1.258 . S
O200 Zn201 2.035 1_655 S
Zn201 O200 2.035 1_455 S
Zn201 O202 2.028 . S
Zn201 O204 2.028 . S
Zn201 O207 2.035 1_455 S
O202 Zn201 2.028 . S
O202 C208 1.247 . S
O203 Zn199 2.035 . S
O203 C208 1.258 . S
O204 C197 1.247 . S
O204 Zn201 2.028 . S
O205 C197 1.258 . S
O205 Zn199 2.035 . S
O206 Zn199 2.028 1_655 S
O206 C209 1.247 . S
O207 Zn201 2.035 1_655 S
O207 C209 1.258 . S
C208 O202 1.247 . S
C208 O203 1.258 . S
C209 O206 1.247 . S
C209 O207 1.258 . S
C210 O212 1.247 . S
C210 O214 1.258 . S
C211 O218 1.247 . S
C211 O219 1.258 . S
O212 C210 1.247 . S
O212 Zn213 2.028 . S
Zn213 O212 2.028 . S
Zn213 O217 2.035 1_545 S
Zn213 O219 2.035 1_545 S
Zn213 O220 2.028 . S
O214 C210 1.258 . S
O214 Zn215 2.035 . S
Zn215 O214 2.035 . S
Zn215 O216 2.028 1_545 S
Zn215 O218 2.028 1_545 S
Zn215 O221 2.035 . S
O216 Zn215 2.028 1_565 S
O216 C222 1.247 . S
O217 Zn213 2.035 1_565 S
O217 C222 1.258 . S
O218 C211 1.247 . S
O218 Zn215 2.028 1_565 S
O219 C211 1.258 . S
O219 Zn213 2.035 1_565 S
O220 Zn213 2.028 . S
O220 C223 1.247 . S
O221 Zn215 2.035 . S
O221 C223 1.258 . S
C222 O216 1.247 . S
C222 O217 1.258 . S
C223 O220 1.247 . S
C223 O221 1.258 . S
C224 O226 1.247 . S
C224 O228 1.258 . S
C225 O232 1.247 . S
C225 O233 1.258 . S
O226 C224 1.247 . S
O226 Zn227 2.037 . S
Zn227 O226 2.037 . S
Zn227 O231 2.044 . S
Zn227 O233 2.026 1_554 S
Zn227 O234 2.019 1_554 S
O228 C224 1.258 . S
O228 Zn229 2.034 . S
Zn229 O228 2.034 . S
Zn229 O230 2.027 . S
Zn229 O232 2.029 1_554 S
Zn229 O235 2.036 1_554 S
O230 Zn229 2.027 . S
O230 C236 1.247 . S
O231 Zn227 2.044 . S
O231 C236 1.258 . S
O232 C225 1.247 . S
O232 Zn229 2.029 1_556 S
O233 C225 1.258 . S
O233 Zn227 2.026 1_556 S
O234 Zn227 2.019 1_556 S
O234 C237 1.247 . S
O235 Zn229 2.036 1_556 S
O235 C237 1.258 . S
C236 O230 1.247 . S
C236 O231 1.258 . S
C237 O234 1.247 . S
C237 O235 1.258 . S
C238 O240 1.247 . S
C238 O242 1.258 . S
C239 O246 1.247 . S
C239 O247 1.258 . S
O240 C238 1.247 . S
O240 Zn241 2.041 . S
Zn241 O240 2.041 . S
Zn241 O245 2.048 . S
Zn241 O247 2.022 1_554 S
Zn241 O248 2.015 1_554 S
O242 C238 1.258 . S
O242 Zn243 2.035 . S
Zn243 O242 2.035 . S
Zn243 O244 2.028 . S
Zn243 O246 2.028 1_554 S
Zn243 O249 2.035 1_554 S
O244 Zn243 2.028 . S
O244 C250 1.247 . S
O245 Zn241 2.048 . S
O245 C250 1.258 . S
O246 C239 1.247 . S
O246 Zn243 2.028 1_556 S
O247 C239 1.258 . S
O247 Zn241 2.022 1_556 S
O248 Zn241 2.015 1_556 S
O248 C251 1.247 . S
O249 Zn243 2.035 1_556 S
O249 C251 1.258 . S
C250 O244 1.247 . S
C250 O245 1.258 . S
C251 O248 1.247 . S
C251 O249 1.258 . S
C252 O254 1.247 . S
C252 O256 1.258 . S
C253 O260 1.247 . S
C253 O261 1.258 . S
O254 C252 1.247 . S
O254 Zn255 2.028 1_556 S
Zn255 O254 2.028 1_554 S
Zn255 O259 2.035 1_554 S
Zn255 O261 2.035 . S
Zn255 O262 2.028 . S
O256 C252 1.258 . S
O256 Zn257 2.035 1_556 S
Zn257 O256 2.035 1_554 S
Zn257 O258 2.028 1_554 S
Zn257 O260 2.028 . S
Zn257 O263 2.035 . S
O258 Zn257 2.028 1_556 S
O258 C264 1.247 . S
O259 Zn255 2.035 1_556 S
O259 C264 1.258 . S
O260 C253 1.247 . S
O260 Zn257 2.028 . S
O261 C253 1.258 . S
O261 Zn255 2.035 . S
O262 Zn255 2.028 . S
O262 C265 1.247 . S
O263 Zn257 2.035 . S
O263 C265 1.258 . S
C264 O258 1.247 . S
C264 O259 1.258 . S
C265 O262 1.247 . S
C265 O263 1.258 . S
C266 O268 1.247 . S
C266 O270 1.258 . S
C267 O274 1.247 . S
C267 O275 1.258 . S
O268 C266 1.247 . S
O268 Zn269 2.028 . S
Zn269 O268 2.028 . S
Zn269 O273 2.035 . S
Zn269 O275 2.035 1_554 S
Zn269 O276 2.028 1_554 S
O270 C266 1.258 . S
O270 Zn271 2.035 . S
Zn271 O270 2.035 . S
Zn271 O272 2.028 . S
Zn271 O274 2.028 1_554 S
Zn271 O277 2.035 1_554 S
O272 Zn271 2.028 . S
O272 C278 1.247 . S
O273 Zn269 2.035 . S
O273 C278 1.258 . S
O274 C267 1.247 . S
O274 Zn271 2.028 1_556 S
O275 C267 1.258 . S
O275 Zn269 2.035 1_556 S
O276 Zn269 2.028 1_556 S
O276 C279 1.247 . S
O277 Zn271 2.035 1_556 S
O277 C279 1.258 . S
C278 O272 1.247 . S
C278 O273 1.258 . S
C279 O276 1.247 . S
C279 O277 1.258 . S
H280 C286 0.930 . S
H281 C289 0.930 . S
H282 C290 0.930 . S
H283 C291 0.930 . S
H284 C294 0.930 . S
H285 C295 0.930 . S
C286 H280 0.930 . S
C286 C287 1.355 . S
C286 C288 1.415 . S
C287 C286 1.355 . S
C287 C289 1.419 . S
C288 C286 1.415 . S
C288 C293 1.425 . S
C288 C295 1.409 . S
C289 H281 0.930 . S
C289 C287 1.419 . S
C289 C290 1.362 . S
C290 H282 0.930 . S
C290 C289 1.362 . S
C290 C293 1.409 . S
C291 H283 0.930 . S
C291 C292 1.355 . S
C291 C293 1.415 . S
C292 C291 1.355 . S
C292 C294 1.419 . S
C293 C288 1.425 . S
C293 C290 1.409 . S
C293 C291 1.415 . S
C294 H284 0.930 . S
C294 C292 1.419 . S
C294 C295 1.362 . S
C295 H285 0.930 . S
C295 C288 1.409 . S
C295 C294 1.362 . S
H296 C302 0.930 . S
H297 C305 0.930 . S
H298 C306 0.930 . S
H299 C307 0.930 . S
H300 C310 0.930 . S
H301 C311 0.930 . S
C302 H296 0.930 . S
C302 C303 1.355 . S
C302 C304 1.415 . S
C303 C302 1.355 . S
C303 C305 1.419 . S
C304 C302 1.415 . S
C304 C309 1.425 . S
C304 C311 1.409 . S
C305 H297 0.930 . S
C305 C303 1.419 . S
C305 C306 1.362 . S
C306 H298 0.930 . S
C306 C305 1.362 . S
C306 C309 1.409 . S
C307 H299 0.930 . S
C307 C308 1.355 . S
C307 C309 1.415 . S
C308 C307 1.355 . S
C308 C310 1.419 . S
C309 C304 1.425 . S
C309 C306 1.409 . S
C309 C307 1.415 . S
C310 H300 0.930 . S
C310 C308 1.419 . S
C310 C311 1.362 . S
C311 H301 0.930 . S
C311 C304 1.409 . S
C311 C310 1.362 . S
H312 C318 0.930 . S
H313 C321 0.930 . S
H314 C322 0.930 . S
H315 C323 0.930 . S
H316 C326 0.930 . S
H317 C327 0.930 . S
C318 H312 0.930 . S
C318 C319 1.355 . S
C318 C320 1.415 . S
C319 C318 1.355 . S
C319 C321 1.419 . S
C320 C318 1.415 . S
C320 C325 1.425 . S
C320 C327 1.409 . S
C321 H313 0.930 . S
C321 C319 1.419 . S
C321 C322 1.362 . S
C322 H314 0.930 . S
C322 C321 1.362 . S
C322 C325 1.409 . S
C323 H315 0.930 . S
C323 C324 1.355 . S
C323 C325 1.415 . S
C324 C323 1.355 . S
C324 C326 1.419 . S
C325 C320 1.425 . S
C325 C322 1.409 . S
C325 C323 1.415 . S
C326 H316 0.930 . S
C326 C324 1.419 . S
C326 C327 1.362 . S
C327 H317 0.930 . S
C327 C320 1.409 . S
C327 C326 1.362 . S
H328 C334 0.930 . S
H329 C337 0.930 . S
H330 C338 0.930 . S
H331 C339 0.930 . S
H332 C342 0.930 . S
H333 C343 0.930 . S
C334 H328 0.930 . S
C334 C335 1.355 . S
C334 C336 1.415 . S
C335 C334 1.355 . S
C335 C337 1.419 . S
C336 C334 1.415 . S
C336 C341 1.425 . S
C336 C343 1.409 . S
C337 H329 0.930 . S
C337 C335 1.419 . S
C337 C338 1.362 . S
C338 H330 0.930 . S
C338 C337 1.362 . S
C338 C341 1.409 . S
C339 H331 0.930 . S
C339 C340 1.355 . S
C339 C341 1.415 . S
C340 C339 1.355 . S
C340 C342 1.419 . S
C341 C336 1.425 . S
C341 C338 1.409 . S
C341 C339 1.415 . S
C342 H332 0.930 . S
C342 C340 1.419 . S
C342 C343 1.362 . S
C343 H333 0.930 . S
C343 C336 1.409 . S
C343 C342 1.362 . S
H344 C350 0.930 . S
H345 C353 0.930 . S
H346 C354 0.930 . S
H347 C355 0.930 . S
H348 C358 0.930 . S
H349 C359 0.930 . S
C350 H344 0.930 . S
C350 C351 1.355 . S
C350 C352 1.415 . S
C351 C350 1.355 . S
C351 C353 1.419 . S
C352 C350 1.415 . S
C352 C357 1.425 . S
C352 C359 1.409 . S
C353 H345 0.930 . S
C353 C351 1.419 . S
C353 C354 1.362 . S
C354 H346 0.930 . S
C354 C353 1.362 . S
C354 C357 1.409 . S
C355 H347 0.930 . S
C355 C356 1.355 . S
C355 C357 1.415 . S
C356 C355 1.355 . S
C356 C358 1.419 . S
C357 C352 1.425 . S
C357 C354 1.409 . S
C357 C355 1.415 . S
C358 H348 0.930 . S
C358 C356 1.419 . S
C358 C359 1.362 . S
C359 H349 0.930 . S
C359 C352 1.409 . S
C359 C358 1.362 . S
H360 C366 0.930 . S
H361 C369 0.930 . S
H362 C370 0.930 . S
H363 C371 0.930 . S
H364 C374 0.930 . S
H365 C375 0.930 . S
C366 H360 0.930 . S
C366 C367 1.355 . S
C366 C368 1.415 . S
C367 C366 1.355 . S
C367 C369 1.419 . S
C368 C366 1.415 . S
C368 C373 1.425 . S
C368 C375 1.409 . S
C369 H361 0.930 . S
C369 C367 1.419 . S
C369 C370 1.362 . S
C370 H362 0.930 . S
C370 C369 1.362 . S
C370 C373 1.409 . S
C371 H363 0.930 . S
C371 C372 1.355 . S
C371 C373 1.415 . S
C372 C371 1.355 . S
C372 C374 1.419 . S
C373 C368 1.425 . S
C373 C370 1.409 . S
C373 C371 1.415 . S
C374 H364 0.930 . S
C374 C372 1.419 . S
C374 C375 1.362 . S
C375 H365 0.930 . S
C375 C368 1.409 . S
C375 C374 1.362 . S
H376 C382 0.930 . S
H377 C385 0.930 . S
H378 C386 0.930 . S
H379 C387 0.930 . S
H380 C390 0.930 . S
H381 C391 0.930 . S
C382 H376 0.930 . S
C382 C383 1.355 . S
C382 C384 1.415 . S
C383 C382 1.355 . S
C383 C385 1.419 . S
C384 C382 1.415 . S
C384 C389 1.425 . S
C384 C391 1.409 . S
C385 H377 0.930 . S
C385 C383 1.419 . S
C385 C386 1.362 . S
C386 H378 0.930 . S
C386 C385 1.362 . S
C386 C389 1.409 . S
C387 H379 0.930 . S
C387 C388 1.355 . S
C387 C389 1.415 . S
C388 C387 1.355 . S
C388 C390 1.419 . S
C389 C384 1.425 . S
C389 C386 1.409 . S
C389 C387 1.415 . S
C390 H380 0.930 . S
C390 C388 1.419 . S
C390 C391 1.362 . S
C391 H381 0.930 . S
C391 C384 1.409 . S
C391 C390 1.362 . S
H392 C398 0.930 . S
H393 C401 0.930 . S
H394 C402 0.930 . S
H395 C403 0.930 . S
H396 C406 0.930 . S
H397 C407 0.930 . S
C398 H392 0.930 . S
C398 C399 1.355 . S
C398 C400 1.415 . S
C399 C398 1.355 . S
C399 C401 1.419 . S
C400 C398 1.415 . S
C400 C405 1.425 . S
C400 C407 1.409 . S
C401 H393 0.930 . S
C401 C399 1.419 . S
C401 C402 1.362 . S
C402 H394 0.930 . S
C402 C401 1.362 . S
C402 C405 1.409 . S
C403 H395 0.930 . S
C403 C404 1.355 . S
C403 C405 1.415 . S
C404 C403 1.355 . S
C404 C406 1.419 . S
C405 C400 1.425 . S
C405 C402 1.409 . S
C405 C403 1.415 . S
C406 H396 0.930 . S
C406 C404 1.419 . S
C406 C407 1.362 . S
C407 H397 0.930 . S
C407 C400 1.409 . S
C407 C406 1.362 . S
H408 C414 0.930 . S
H409 C417 0.930 . S
H410 C418 0.930 . S
H411 C419 0.930 . S
H412 C422 0.930 . S
H413 C423 0.930 . S
C414 H408 0.930 . S
C414 C415 1.355 . S
C414 C416 1.415 . S
C415 C414 1.355 . S
C415 C417 1.419 . S
C416 C414 1.415 . S
C416 C421 1.425 . S
C416 C423 1.409 . S
C417 H409 0.930 . S
C417 C415 1.419 . S
C417 C418 1.362 . S
C418 H410 0.930 . S
C418 C417 1.362 . S
C418 C421 1.409 . S
C419 H411 0.930 . S
C419 C420 1.355 . S
C419 C421 1.415 . S
C420 C419 1.355 . S
C420 C422 1.419 . S
C421 C416 1.425 . S
C421 C418 1.409 . S
C421 C419 1.415 . S
C422 H412 0.930 . S
C422 C420 1.419 . S
C422 C423 1.362 . S
C423 H413 0.930 . S
C423 C416 1.409 . S
C423 C422 1.362 . S
H424 C430 0.930 . S
H425 C433 0.930 . S
H426 C434 0.930 . S
H427 C435 0.930 . S
H428 C438 0.930 . S
H429 C439 0.930 . S
C430 H424 0.930 . S
C430 C431 1.355 . S
C430 C432 1.415 . S
C431 C430 1.355 . S
C431 C433 1.419 . S
C432 C430 1.415 . S
C432 C437 1.425 . S
C432 C439 1.409 . S
C433 H425 0.930 . S
C433 C431 1.419 . S
C433 C434 1.362 . S
C434 H426 0.930 . S
C434 C433 1.362 . S
C434 C437 1.409 . S
C435 H427 0.930 . S
C435 C436 1.355 . S
C435 C437 1.415 . S
C436 C435 1.355 . S
C436 C438 1.419 . S
C437 C432 1.425 . S
C437 C434 1.409 . S
C437 C435 1.415 . S
C438 H428 0.930 . S
C438 C436 1.419 . S
C438 C439 1.362 . S
C439 H429 0.930 . S
C439 C432 1.409 . S
C439 C438 1.362 . S
H440 C446 0.930 . S
H441 C449 0.930 . S
H442 C450 0.930 . S
H443 C451 0.930 . S
H444 C454 0.930 . S
H445 C455 0.930 . S
C446 H440 0.930 . S
C446 C447 1.355 . S
C446 C448 1.415 . S
C447 C446 1.355 . S
C447 C449 1.419 . S
C448 C446 1.415 . S
C448 C453 1.425 . S
C448 C455 1.409 . S
C449 H441 0.930 . S
C449 C447 1.419 . S
C449 C450 1.362 . S
C450 H442 0.930 . S
C450 C449 1.362 . S
C450 C453 1.409 . S
C451 H443 0.930 . S
C451 C452 1.355 . S
C451 C453 1.415 . S
C452 C451 1.355 . S
C452 C454 1.419 . S
C453 C448 1.425 . S
C453 C450 1.409 . S
C453 C451 1.415 . S
C454 H444 0.930 . S
C454 C452 1.419 . S
C454 C455 1.362 . S
C455 H445 0.930 . S
C455 C448 1.409 . S
C455 C454 1.362 . S
H456 C462 0.930 . S
H457 C465 0.930 . S
H458 C466 0.930 . S
H459 C467 0.930 . S
H460 C470 0.930 . S
H461 C471 0.930 . S
C462 H456 0.930 . S
C462 C463 1.355 . S
C462 C464 1.415 . S
C463 C462 1.355 . S
C463 C465 1.419 . S
C464 C462 1.415 . S
C464 C469 1.425 . S
C464 C471 1.409 . S
C465 H457 0.930 . S
C465 C463 1.419 . S
C465 C466 1.362 . S
C466 H458 0.930 . S
C466 C465 1.362 . S
C466 C469 1.409 . S
C467 H459 0.930 . S
C467 C468 1.355 . S
C467 C469 1.415 . S
C468 C467 1.355 . S
C468 C470 1.419 . S
C469 C464 1.425 . S
C469 C466 1.409 . S
C469 C467 1.415 . S
C470 H460 0.930 . S
C470 C468 1.419 . S
C470 C471 1.362 . S
C471 H461 0.930 . S
C471 C464 1.409 . S
C471 C470 1.362 . S
H472 C478 0.930 . S
H473 C481 0.930 . S
H474 C482 0.930 . S
H475 C483 0.930 . S
H476 C486 0.930 . S
H477 C487 0.930 . S
C478 H472 0.930 . S
C478 C479 1.355 . S
C478 C480 1.415 . S
C479 C478 1.355 . S
C479 C481 1.419 . S
C480 C478 1.415 . S
C480 C485 1.425 . S
C480 C487 1.409 . S
C481 H473 0.930 . S
C481 C479 1.419 . S
C481 C482 1.362 . S
C482 H474 0.930 . S
C482 C481 1.362 . S
C482 C485 1.409 . S
C483 H475 0.930 . S
C483 C484 1.355 . S
C483 C485 1.415 . S
C484 C483 1.355 . S
C484 C486 1.419 . S
C485 C480 1.425 . S
C485 C482 1.409 . S
C485 C483 1.415 . S
C486 H476 0.930 . S
C486 C484 1.419 . S
C486 C487 1.362 . S
C487 H477 0.930 . S
C487 C480 1.409 . S
C487 C486 1.362 . S
H488 C494 0.930 . S
H489 C497 0.930 . S
H490 C498 0.930 . S
H491 C499 0.930 . S
H492 C502 0.930 . S
H493 C503 0.930 . S
C494 H488 0.930 . S
C494 C495 1.355 . S
C494 C496 1.415 . S
C495 C494 1.355 . S
C495 C497 1.419 . S
C496 C494 1.415 . S
C496 C501 1.425 . S
C496 C503 1.409 . S
C497 H489 0.930 . S
C497 C495 1.419 . S
C497 C498 1.362 . S
C498 H490 0.930 . S
C498 C497 1.362 . S
C498 C501 1.409 . S
C499 H491 0.930 . S
C499 C500 1.355 . S
C499 C501 1.415 . S
C500 C499 1.355 . S
C500 C502 1.419 . S
C501 C496 1.425 . S
C501 C498 1.409 . S
C501 C499 1.415 . S
C502 H492 0.930 . S
C502 C500 1.419 . S
C502 C503 1.362 . S
C503 H493 0.930 . S
C503 C496 1.409 . S
C503 C502 1.362 . S
H504 C510 0.930 . S
H505 C513 0.930 . S
H506 C514 0.930 . S
H507 C515 0.930 . S
H508 C518 0.930 . S
H509 C519 0.930 . S
C510 H504 0.930 . S
C510 C511 1.355 . S
C510 C512 1.415 . S
C511 C510 1.355 . S
C511 C513 1.419 . S
C512 C510 1.415 . S
C512 C517 1.425 . S
C512 C519 1.409 . S
C513 H505 0.930 . S
C513 C511 1.419 . S
C513 C514 1.362 . S
C514 H506 0.930 . S
C514 C513 1.362 . S
C514 C517 1.409 . S
C515 H507 0.930 . S
C515 C516 1.355 . S
C515 C517 1.415 . S
C516 C515 1.355 . S
C516 C518 1.419 . S
C517 C512 1.425 . S
C517 C514 1.409 . S
C517 C515 1.415 . S
C518 H508 0.930 . S
C518 C516 1.419 . S
C518 C519 1.362 . S
C519 H509 0.930 . S
C519 C512 1.409 . S
C519 C518 1.362 . S
H520 C526 0.930 . S
H521 C529 0.930 . S
H522 C530 0.930 . S
H523 C531 0.930 . S
H524 C534 0.930 . S
H525 C535 0.930 . S
C526 H520 0.930 . S
C526 C527 1.355 . S
C526 C528 1.415 . S
C527 C526 1.355 . S
C527 C529 1.419 . S
C528 C526 1.415 . S
C528 C533 1.425 . S
C528 C535 1.409 . S
C529 H521 0.930 . S
C529 C527 1.419 . S
C529 C530 1.362 . S
C530 H522 0.930 . S
C530 C529 1.362 . S
C530 C533 1.409 . S
C531 H523 0.930 . S
C531 C532 1.355 . S
C531 C533 1.415 . S
C532 C531 1.355 . S
C532 C534 1.419 . S
C533 C528 1.425 . S
C533 C530 1.409 . S
C533 C531 1.415 . S
C534 H524 0.930 . S
C534 C532 1.419 . S
C534 C535 1.362 . S
C535 H525 0.930 . S
C535 C528 1.409 . S
C535 C534 1.362 . S
H536 C542 0.930 . S
H537 C545 0.930 . S
H538 C546 0.930 . S
H539 C547 0.930 . S
H540 C550 0.930 . S
H541 C551 0.930 . S
C542 H536 0.930 . S
C542 C543 1.355 . S
C542 C544 1.415 . S
C543 C542 1.355 . S
C543 C545 1.419 . S
C544 C542 1.415 . S
C544 C549 1.425 . S
C544 C551 1.409 . S
C545 H537 0.930 . S
C545 C543 1.419 . S
C545 C546 1.362 . S
C546 H538 0.930 . S
C546 C545 1.362 . S
C546 C549 1.409 . S
C547 H539 0.930 . S
C547 C548 1.355 . S
C547 C549 1.415 . S
C548 C547 1.355 . S
C548 C550 1.419 . S
C549 C544 1.425 . S
C549 C546 1.409 . S
C549 C547 1.415 . S
C550 H540 0.930 . S
C550 C548 1.419 . S
C550 C551 1.362 . S
C551 H541 0.930 . S
C551 C544 1.409 . S
C551 C550 1.362 . S
H552 C558 0.930 . S
H553 C561 0.930 . S
H554 C562 0.930 . S
H555 C563 0.930 . S
H556 C566 0.930 . S
H557 C567 0.930 . S
C558 H552 0.930 . S
C558 C559 1.355 . S
C558 C560 1.415 . S
C559 C558 1.355 . S
C559 C561 1.419 . S
C560 C558 1.415 . S
C560 C565 1.425 . S
C560 C567 1.409 . S
C561 H553 0.930 . S
C561 C559 1.419 . S
C561 C562 1.362 . S
C562 H554 0.930 . S
C562 C561 1.362 . S
C562 C565 1.409 . S
C563 H555 0.930 . S
C563 C564 1.355 . S
C563 C565 1.415 . S
C564 C563 1.355 . S
C564 C566 1.419 . S
C565 C560 1.425 . S
C565 C562 1.409 . S
C565 C563 1.415 . S
C566 H556 0.930 . S
C566 C564 1.419 . S
C566 C567 1.362 . S
C567 H557 0.930 . S
C567 C560 1.409 . S
C567 C566 1.362 . S
H568 C574 0.930 . S
H569 C577 0.930 . S
H570 C578 0.930 . S
H571 C579 0.930 . S
H572 C582 0.930 . S
H573 C583 0.930 . S
C574 H568 0.930 . S
C574 C575 1.355 . S
C574 C576 1.415 . S
C575 C574 1.355 . S
C575 C577 1.419 . S
C576 C574 1.415 . S
C576 C581 1.425 . S
C576 C583 1.409 . S
C577 H569 0.930 . S
C577 C575 1.419 . S
C577 C578 1.362 . S
C578 H570 0.930 . S
C578 C577 1.362 . S
C578 C581 1.409 . S
C579 H571 0.930 . S
C579 C580 1.355 . S
C579 C581 1.415 . S
C580 C579 1.355 . S
C580 C582 1.419 . S
C581 C576 1.425 . S
C581 C578 1.409 . S
C581 C579 1.415 . S
C582 H572 0.930 . S
C582 C580 1.419 . S
C582 C583 1.362 . S
C583 H573 0.930 . S
C583 C576 1.409 . S
C583 C582 1.362 . S
H584 C590 0.930 . S
H585 C593 0.930 . S
H586 C594 0.930 . S
H587 C595 0.930 . S
H588 C598 0.930 . S
H589 C599 0.930 . S
C590 H584 0.930 . S
C590 C591 1.355 . S
C590 C592 1.415 . S
C591 C590 1.355 . S
C591 C593 1.419 . S
C592 C590 1.415 . S
C592 C597 1.425 . S
C592 C599 1.409 . S
C593 H585 0.930 . S
C593 C591 1.419 . S
C593 C594 1.362 . S
C594 H586 0.930 . S
C594 C593 1.362 . S
C594 C597 1.409 . S
C595 H587 0.930 . S
C595 C596 1.355 . S
C595 C597 1.415 . S
C596 C595 1.355 . S
C596 C598 1.419 . S
C597 C592 1.425 . S
C597 C594 1.409 . S
C597 C595 1.415 . S
C598 H588 0.930 . S
C598 C596 1.419 . S
C598 C599 1.362 . S
C599 H589 0.930 . S
C599 C592 1.409 . S
C599 C598 1.362 . S
H600 C606 0.930 . S
H601 C609 0.930 . S
H602 C610 0.930 . S
H603 C611 0.930 . S
H604 C614 0.930 . S
H605 C615 0.930 . S
C606 H600 0.930 . S
C606 C607 1.355 . S
C606 C608 1.415 . S
C607 C606 1.355 . S
C607 C609 1.419 . S
C608 C606 1.415 . S
C608 C613 1.425 . S
C608 C615 1.409 . S
C609 H601 0.930 . S
C609 C607 1.419 . S
C609 C610 1.362 . S
C610 H602 0.930 . S
C610 C609 1.362 . S
C610 C613 1.409 . S
C611 H603 0.930 . S
C611 C612 1.355 . S
C611 C613 1.415 . S
C612 C611 1.355 . S
C612 C614 1.419 . S
C613 C608 1.425 . S
C613 C610 1.409 . S
C613 C611 1.415 . S
C614 H604 0.930 . S
C614 C612 1.419 . S
C614 C615 1.362 . S
C615 H605 0.930 . S
C615 C608 1.409 . S
C615 C614 1.362 . S
H616 C622 0.930 . S
H617 C625 0.930 . S
H618 C626 0.930 . S
H619 C627 0.930 . S
H620 C630 0.930 . S
H621 C631 0.930 . S
C622 H616 0.930 . S
C622 C623 1.355 . S
C622 C624 1.415 . S
C623 C622 1.355 . S
C623 C625 1.419 . S
C624 C622 1.415 . S
C624 C629 1.425 . S
C624 C631 1.409 . S
C625 H617 0.930 . S
C625 C623 1.419 . S
C625 C626 1.362 . S
C626 H618 0.930 . S
C626 C625 1.362 . S
C626 C629 1.409 . S
C627 H619 0.930 . S
C627 C628 1.355 . S
C627 C629 1.415 . S
C628 C627 1.355 . S
C628 C630 1.419 . S
C629 C624 1.425 . S
C629 C626 1.409 . S
C629 C627 1.415 . S
C630 H620 0.930 . S
C630 C628 1.419 . S
C630 C631 1.362 . S
C631 H621 0.930 . S
C631 C624 1.409 . S
C631 C630 1.362 . S
H632 C638 0.930 . S
H633 C641 0.930 . S
H634 C642 0.930 . S
H635 C643 0.930 . S
H636 C646 0.930 . S
H637 C647 0.930 . S
C638 H632 0.930 . S
C638 C639 1.355 . S
C638 C640 1.415 . S
C639 C638 1.355 . S
C639 C641 1.419 . S
C640 C638 1.415 . S
C640 C645 1.425 . S
C640 C647 1.409 . S
C641 H633 0.930 . S
C641 C639 1.419 . S
C641 C642 1.362 . S
C642 H634 0.930 . S
C642 C641 1.362 . S
C642 C645 1.409 . S
C643 H635 0.930 . S
C643 C644 1.355 . S
C643 C645 1.415 . S
C644 C643 1.355 . S
C644 C646 1.419 . S
C645 C640 1.425 . S
C645 C642 1.409 . S
C645 C643 1.415 . S
C646 H636 0.930 . S
C646 C644 1.419 . S
C646 C647 1.362 . S
C647 H637 0.930 . S
C647 C640 1.409 . S
C647 C646 1.362 . S
H648 C654 0.930 . S
H649 C657 0.930 . S
H650 C658 0.930 . S
H651 C659 0.930 . S
H652 C662 0.930 . S
H653 C663 0.930 . S
C654 H648 0.930 . S
C654 C655 1.355 . S
C654 C656 1.415 . S
C655 C654 1.355 . S
C655 C657 1.419 . S
C656 C654 1.415 . S
C656 C661 1.425 . S
C656 C663 1.409 . S
C657 H649 0.930 . S
C657 C655 1.419 . S
C657 C658 1.362 . S
C658 H650 0.930 . S
C658 C657 1.362 . S
C658 C661 1.409 . S
C659 H651 0.930 . S
C659 C660 1.355 . S
C659 C661 1.415 . S
C660 C659 1.355 . S
C660 C662 1.419 . S
C661 C656 1.425 . S
C661 C658 1.409 . S
C661 C659 1.415 . S
C662 H652 0.930 . S
C662 C660 1.419 . S
C662 C663 1.362 . S
C663 H653 0.930 . S
C663 C656 1.409 . S
C663 C662 1.362 . S
H664 C670 0.930 . S
H665 C673 0.930 . S
H666 C674 0.930 . S
H667 C675 0.930 . S
H668 C678 0.930 . S
H669 C679 0.930 . S
C670 H664 0.930 . S
C670 C671 1.355 . S
C670 C672 1.415 . S
C671 C670 1.355 . S
C671 C673 1.419 . S
C672 C670 1.415 . S
C672 C677 1.425 . S
C672 C679 1.409 . S
C673 H665 0.930 . S
C673 C671 1.419 . S
C673 C674 1.362 . S
C674 H666 0.930 . S
C674 C673 1.362 . S
C674 C677 1.409 . S
C675 H667 0.930 . S
C675 C676 1.355 . S
C675 C677 1.415 . S
C676 C675 1.355 . S
C676 C678 1.419 . S
C677 C672 1.425 . S
C677 C674 1.409 . S
C677 C675 1.415 . S
C678 H668 0.930 . S
C678 C676 1.419 . S
C678 C679 1.362 . S
C679 H669 0.930 . S
C679 C672 1.409 . S
C679 C678 1.362 . S
H680 C686 0.930 . S
H681 C689 0.930 . S
H682 C690 0.930 . S
H683 C691 0.930 . S
H684 C694 0.930 . S
H685 C695 0.930 . S
C686 H680 0.930 . S
C686 C687 1.355 . S
C686 C688 1.415 . S
C687 C686 1.355 . S
C687 C689 1.419 . S
C688 C686 1.415 . S
C688 C693 1.425 . S
C688 C695 1.409 . S
C689 H681 0.930 . S
C689 C687 1.419 . S
C689 C690 1.362 . S
C690 H682 0.930 . S
C690 C689 1.362 . S
C690 C693 1.409 . S
C691 H683 0.930 . S
C691 C692 1.355 . S
C691 C693 1.415 . S
C692 C691 1.355 . S
C692 C694 1.419 . S
C693 C688 1.425 . S
C693 C690 1.409 . S
C693 C691 1.415 . S
C694 H684 0.930 . S
C694 C692 1.419 . S
C694 C695 1.362 . S
C695 H685 0.930 . S
C695 C688 1.409 . S
C695 C694 1.362 . S
H696 C702 0.930 . S
H697 C705 0.930 . S
H698 C706 0.930 . S
H699 C707 0.930 . S
H700 C710 0.930 . S
H701 C711 0.930 . S
C702 H696 0.930 . S
C702 C703 1.355 . S
C702 C704 1.415 . S
C703 C702 1.355 . S
C703 C705 1.419 . S
C704 C702 1.415 . S
C704 C709 1.425 . S
C704 C711 1.409 . S
C705 H697 0.930 . S
C705 C703 1.419 . S
C705 C706 1.362 . S
C706 H698 0.930 . S
C706 C705 1.362 . S
C706 C709 1.409 . S
C707 H699 0.930 . S
C707 C708 1.355 . S
C707 C709 1.415 . S
C708 C707 1.355 . S
C708 C710 1.419 . S
C709 C704 1.425 . S
C709 C706 1.409 . S
C709 C707 1.415 . S
C710 H700 0.930 . S
C710 C708 1.419 . S
C710 C711 1.362 . S
C711 H701 0.930 . S
C711 C704 1.409 . S
C711 C710 1.362 . S
H712 C718 0.930 . S
H713 C721 0.930 . S
H714 C722 0.930 . S
H715 C723 0.930 . S
H716 C726 0.930 . S
H717 C727 0.930 . S
C718 H712 0.930 . S
C718 C719 1.355 . S
C718 C720 1.415 . S
C719 C718 1.355 . S
C719 C721 1.419 . S
C720 C718 1.415 . S
C720 C725 1.425 . S
C720 C727 1.409 . S
C721 H713 0.930 . S
C721 C719 1.419 . S
C721 C722 1.362 . S
C722 H714 0.930 . S
C722 C721 1.362 . S
C722 C725 1.409 . S
C723 H715 0.930 . S
C723 C724 1.355 . S
C723 C725 1.415 . S
C724 C723 1.355 . S
C724 C726 1.419 . S
C725 C720 1.425 . S
C725 C722 1.409 . S
C725 C723 1.415 . S
C726 H716 0.930 . S
C726 C724 1.419 . S
C726 C727 1.362 . S
C727 H717 0.930 . S
C727 C720 1.409 . S
C727 C726 1.362 . S
H728 C734 0.930 . S
H729 C737 0.930 . S
H730 C738 0.930 . S
H731 C739 0.930 . S
H732 C742 0.930 . S
H733 C743 0.930 . S
C734 H728 0.930 . S
C734 C735 1.355 . S
C734 C736 1.415 . S
C735 C734 1.355 . S
C735 C737 1.419 . S
C736 C734 1.415 . S
C736 C741 1.425 . S
C736 C743 1.409 . S
C737 H729 0.930 . S
C737 C735 1.419 . S
C737 C738 1.362 . S
C738 H730 0.930 . S
C738 C737 1.362 . S
C738 C741 1.409 . S
C739 H731 0.930 . S
C739 C740 1.355 . S
C739 C741 1.415 . S
C740 C739 1.355 . S
C740 C742 1.419 . S
C741 C736 1.425 . S
C741 C738 1.409 . S
C741 C739 1.415 . S
C742 H732 0.930 . S
C742 C740 1.419 . S
C742 C743 1.362 . S
C743 H733 0.930 . S
C743 C736 1.409 . S
C743 C742 1.362 . S
H744 C750 0.930 . S
H745 C753 0.930 . S
H746 C754 0.930 . S
H747 C755 0.930 . S
H748 C758 0.930 . S
H749 C759 0.930 . S
C750 H744 0.930 . S
C750 C751 1.355 . S
C750 C752 1.415 . S
C751 C750 1.355 . S
C751 C753 1.419 . S
C752 C750 1.415 . S
C752 C757 1.425 . S
C752 C759 1.409 . S
C753 H745 0.930 . S
C753 C751 1.419 . S
C753 C754 1.362 . S
C754 H746 0.930 . S
C754 C753 1.362 . S
C754 C757 1.409 . S
C755 H747 0.930 . S
C755 C756 1.355 . S
C755 C757 1.415 . S
C756 C755 1.355 . S
C756 C758 1.419 . S
C757 C752 1.425 . S
C757 C754 1.409 . S
C757 C755 1.415 . S
C758 H748 0.930 . S
C758 C756 1.419 . S
C758 C759 1.362 . S
C759 H749 0.930 . S
C759 C752 1.409 . S
C759 C758 1.362 . S
H760 C766 0.930 . S
H761 C769 0.930 . S
H762 C770 0.930 . S
H763 C771 0.930 . S
H764 C774 0.930 . S
H765 C775 0.930 . S
C766 H760 0.930 . S
C766 C767 1.355 . S
C766 C768 1.415 . S
C767 C766 1.355 . S
C767 C769 1.419 . S
C768 C766 1.415 . S
C768 C773 1.425 . S
C768 C775 1.409 . S
C769 H761 0.930 . S
C769 C767 1.419 . S
C769 C770 1.362 . S
C770 H762 0.930 . S
C770 C769 1.362 . S
C770 C773 1.409 . S
C771 H763 0.930 . S
C771 C772 1.355 . S
C771 C773 1.415 . S
C772 C771 1.355 . S
C772 C774 1.419 . S
C773 C768 1.425 . S
C773 C770 1.409 . S
C773 C771 1.415 . S
C774 H764 0.930 . S
C774 C772 1.419 . S
C774 C775 1.362 . S
C775 H765 0.930 . S
C775 C768 1.409 . S
C775 C774 1.362 . S
H776 C782 0.930 . S
H777 C785 0.930 . S
H778 C786 0.930 . S
H779 C787 0.930 . S
H780 C790 0.930 . S
H781 C791 0.930 . S
C782 H776 0.930 . S
C782 C783 1.355 . S
C782 C784 1.415 . S
C783 C782 1.355 . S
C783 C785 1.419 . S
C784 C782 1.415 . S
C784 C789 1.425 . S
C784 C791 1.409 . S
C785 H777 0.930 . S
C785 C783 1.419 . S
C785 C786 1.362 . S
C786 H778 0.930 . S
C786 C785 1.362 . S
C786 C789 1.409 . S
C787 H779 0.930 . S
C787 C788 1.355 . S
C787 C789 1.415 . S
C788 C787 1.355 . S
C788 C790 1.419 . S
C789 C784 1.425 . S
C789 C786 1.409 . S
C789 C787 1.415 . S
C790 H780 0.930 . S
C790 C788 1.419 . S
C790 C791 1.362 . S
C791 H781 0.930 . S
C791 C784 1.409 . S
C791 C790 1.362 . S
C292 C169 1.498 . S
C287 C12 1.392 . S
C308 C195 1.515 . S
C303 C33 1.433 . S
C324 C209 1.507 . S
C319 C51 1.457 . S
C340 C211 1.505 . S
C335 C75 1.436 . S
C351 C103 1.454 . S
C356 C208 1.500 . S
C372 C210 1.497 . S
C367 C122 1.383 . S
C388 C168 1.489 . S
C383 C145 1.428 . S
C404 C194 1.497 . S
C399 C166 1.450 . S
C420 C196 1.513 . S
C415 C164 1.451 . S
C436 C222 1.503 . S
C431 C101 1.373 . S
C452 C180 1.500 . S
C447 C124 1.409 . S
C468 C182 1.496 . S
C463 C143 1.372 . S
C484 C181 1.503 . S
C479 C30 1.401 . S
C500 C183 1.505 . S
C495 C54 1.417 . S
C516 C197 1.504 . S
C511 C72 1.430 . S
C532 C223 1.491 . S
C527 C9 1.381 . S
C548 C225 1.496 . S
C543 C159 1.334 . S
C559 C96 1.404 . S
C564 C251 1.503 . S
C575 C114 1.371 . S
C580 C264 1.489 . S
C591 C138 1.369 . S
C596 C267 1.507 . S
C607 C40 1.408 . S
C612 C265 1.492 . S
C623 C59 1.359 . S
C628 C266 1.501 . S
C639 C82 1.456 . S
C644 C224 1.496 . S
C660 C250 1.498 . S
C655 C19 1.453 . S
C676 C253 1.509 . S
C671 C17 1.420 . S
C687 C38 1.403 . S
C692 C278 1.508 . S
C703 C61 1.404 . S
C708 C236 1.486 . S
C719 C80 1.352 . S
C724 C238 1.493 . S
C740 C237 1.505 . S
C735 C93 1.418 . S
C756 C239 1.511 . S
C751 C117 1.445 . S
C767 C135 1.394 . S
C772 C252 1.488 . S
C788 C279 1.508 . S
C783 C156 1.419 . S
