# Generated by pormake.
# Topology nom, (4,4)-cn, num edge types: 1
# Building blocks:
#     Node 0, Type 0, BuildingBlock: KUFVIS_clean_linker_0, # of connection points: 4
#     Node 1, Type 0, BuildingBlock: KUFVIS_clean_linker_0, # of connection points: 4
#     Node 2, Type 0, BuildingBlock: KUFVIS_clean_linker_0, # of connection points: 4
#     Node 3, Type 0, BuildingBlock: KUFVIS_clean_linker_0, # of connection points: 4
#     Node 4, Type 0, BuildingBlock: KUFVIS_clean_linker_0, # of connection points: 4
#     Node 5, Type 0, BuildingBlock: KUFVIS_clean_linker_0, # of connection points: 4
#     Node 6, Type 1, BuildingBlock: TATPOV_clean_sbu_0, # of connection points: 4
#     Node 7, Type 1, BuildingBlock: TATPOV_clean_sbu_0, # of connection points: 4
#     Node 8, Type 1, BuildingBlock: TATPOV_clean_sbu_0, # of connection points: 4
#     Node 9, Type 1, BuildingBlock: TATPOV_clean_sbu_0, # of connection points: 4
#     Node 10, Type 1, BuildingBlock: TATPOV_clean_sbu_0, # of connection points: 4
#     Node 11, Type 1, BuildingBlock: TATPOV_clean_sbu_0, # of connection points: 4
#     Edge 12, Type (0, 1), BuildingBlock: AJUNOK_clean_linker_0, # of connection points: 2
#     Edge 13, Type (0, 1), BuildingBlock: AJUNOK_clean_linker_0, # of connection points: 2
#     Edge 14, Type (0, 1), BuildingBlock: AJUNOK_clean_linker_0, # of connection points: 2
#     Edge 15, Type (0, 1), BuildingBlock: AJUNOK_clean_linker_0, # of connection points: 2
#     Edge 16, Type (0, 1), BuildingBlock: AJUNOK_clean_linker_0, # of connection points: 2
#     Edge 17, Type (0, 1), BuildingBlock: AJUNOK_clean_linker_0, # of connection points: 2
#     Edge 18, Type (0, 1), BuildingBlock: AJUNOK_clean_linker_0, # of connection points: 2
#     Edge 19, Type (0, 1), BuildingBlock: AJUNOK_clean_linker_0, # of connection points: 2
#     Edge 20, Type (0, 1), BuildingBlock: AJUNOK_clean_linker_0, # of connection points: 2
#     Edge 21, Type (0, 1), BuildingBlock: AJUNOK_clean_linker_0, # of connection points: 2
#     Edge 22, Type (0, 1), BuildingBlock: AJUNOK_clean_linker_0, # of connection points: 2
#     Edge 23, Type (0, 1), BuildingBlock: AJUNOK_clean_linker_0, # of connection points: 2
#     Edge 24, Type (0, 1), BuildingBlock: AJUNOK_clean_linker_0, # of connection points: 2
#     Edge 25, Type (0, 1), BuildingBlock: AJUNOK_clean_linker_0, # of connection points: 2
#     Edge 26, Type (0, 1), BuildingBlock: AJUNOK_clean_linker_0, # of connection points: 2
#     Edge 27, Type (0, 1), BuildingBlock: AJUNOK_clean_linker_0, # of connection points: 2
#     Edge 28, Type (0, 1), BuildingBlock: AJUNOK_clean_linker_0, # of connection points: 2
#     Edge 29, Type (0, 1), BuildingBlock: AJUNOK_clean_linker_0, # of connection points: 2
#     Edge 30, Type (0, 1), BuildingBlock: AJUNOK_clean_linker_0, # of connection points: 2
#     Edge 31, Type (0, 1), BuildingBlock: AJUNOK_clean_linker_0, # of connection points: 2
#     Edge 32, Type (0, 1), BuildingBlock: AJUNOK_clean_linker_0, # of connection points: 2
#     Edge 33, Type (0, 1), BuildingBlock: AJUNOK_clean_linker_0, # of connection points: 2
#     Edge 34, Type (0, 1), BuildingBlock: AJUNOK_clean_linker_0, # of connection points: 2
#     Edge 35, Type (0, 1), BuildingBlock: AJUNOK_clean_linker_0, # of connection points: 2
# Relax obj value: 0.020
# Max RMSD: 0.119
# Mean RMSD: 0.080
data_MOF--net-nom--node1-TATPOV_clean_sbu_0--node2-KUFVIS_clean_linker_0--edge1-AJUNOK_clean_linker_0
_symmetry_space_group_name_H-M    P1
_symmetry_Int_Tables_number       1
_symmetry_cell_setting            triclinic
loop_
_symmetry_equiv_pos_as_xyz
'x, y, z'
_cell_length_a     32.321142
_cell_length_b     32.710558
_cell_length_c     37.119644
_cell_angle_alpha  90.485541
_cell_angle_beta   90.375606
_cell_angle_gamma 119.63996
loop_
_atom_site_label
_atom_site_type_symbol
_atom_site_fract_x
_atom_site_fract_y
_atom_site_fract_z
_atom_type_partial_charge
H0 H 0.21707 0.61458 0.31134 0.0
H1 H 0.10917 0.56303 0.22904 0.0
H2 H 0.07465 0.51038 0.33752 0.0
H3 H 1.00927 0.51533 0.32396 0.0
H4 H 0.89963 0.44786 0.24407 0.0
H5 H 1.04418 0.49204 0.21626 0.0
C6 C 0.1809 0.58978 0.30281 0.0
C7 C 0.1471 0.56307 0.32858 0.0
C8 C 0.16754 0.58881 0.26674 0.0
C9 C 0.11959 0.56071 0.25639 0.0
C10 C 0.08522 0.53183 0.28169 0.0
C11 C 0.10008 0.53221 0.31752 0.0
C12 C 1.03345 0.50519 0.27184 0.0
C13 C 0.99882 0.50023 0.29713 0.0
C14 C 0.95041 0.47786 0.28756 0.0
C15 C 0.9365 0.46153 0.25217 0.0
C16 C 0.97026 0.46743 0.22626 0.0
C17 C 1.01844 0.48802 0.23644 0.0
H18 H 0.61897 0.20895 0.47796 0.0
H19 H 0.56044 0.10568 0.39303 0.0
H20 H 0.57373 0.06536 0.50155 0.0
H21 H 0.50626 1.00163 0.48692 0.0
H22 H 0.46685 0.89563 0.40517 0.0
H23 H 0.56218 0.03959 0.37927 0.0
C24 C 0.60481 0.17286 0.46874 0.0
C25 C 0.59718 0.1381 0.49359 0.0
C26 C 0.59263 0.16148 0.43237 0.0
C27 C 0.57194 0.11425 0.42086 0.0
C28 C 0.56405 0.07846 0.4457 0.0
C29 C 0.57817 0.09144 0.48189 0.0
C30 C 0.53885 1.02754 0.43479 0.0
C31 C 0.51046 0.99232 0.4597 0.0
C32 C 0.48572 0.94464 0.44942 0.0
C33 C 0.4883 0.93209 0.41378 0.0
C34 C 0.51454 0.96635 0.38833 0.0
C35 C 0.54095 1.01372 0.39911 0.0
H36 H 0.62073 0.45654 0.58715 0.0
H37 H 0.53739 0.48823 0.65905 0.0
H38 H 0.57712 0.55568 0.55532 0.0
H39 H 0.50406 0.55417 0.56423 0.0
H40 H 0.45639 0.61217 0.64773 0.0
H41 H 0.55229 0.56191 0.67431 0.0
C42 C 0.60258 0.47618 0.59314 0.0
C43 C 0.60057 0.50593 0.56721 0.0
C44 C 0.58055 0.47042 0.62635 0.0
C45 C 0.55591 0.49461 0.63372 0.0
C46 C 0.55531 0.52674 0.60869 0.0
C47 C 0.57769 0.53191 0.57521 0.0
C48 C 0.53125 0.55434 0.61804 0.0
C49 C 0.50553 0.56471 0.59216 0.0
C50 C 0.47928 0.58649 0.60288 0.0
C51 C 0.47845 0.59746 0.63931 0.0
C52 C 0.50362 0.58738 0.66516 0.0
C53 C 0.53153 0.5679 0.65417 0.0
H54 H 0.2004 0.61071 0.74763 0.0
H55 H 0.08698 0.52756 0.81927 0.0
H56 H 0.0558 0.5583 0.7126 0.0
H57 H 0.98914 0.48457 0.72153 0.0
H58 H 0.8783 0.44161 0.7994 0.0
H59 H 1.02252 0.53597 0.83171 0.0
C60 C 0.16257 0.59149 0.75315 0.0
C61 C 0.12992 0.58624 0.72611 0.0
C62 C 0.14719 0.5711 0.78683 0.0
C63 C 0.09836 0.54484 0.79356 0.0
C64 C 0.06458 0.5406 0.76728 0.0
C65 C 0.08092 0.56152 0.7334 0.0
C66 C 1.01266 0.51413 0.77545 0.0
C67 C 0.9784 0.48683 0.74872 0.0
C68 C 0.93005 0.4607 0.75755 0.0
C69 C 0.91578 0.46168 0.79284 0.0
C70 C 0.94906 0.48779 0.81974 0.0
C71 C 0.99717 0.51488 0.8108 0.0
H72 H 0.49937 0.87628 -0.02711 0.0
H73 H 0.58077 0.9845 0.89732 0.0
H74 H 0.55063 1.02053 0.00271 0.0
H75 H 0.62649 0.08525 -0.00718 0.0
H76 H 0.65732 0.19286 0.91535 0.0
H77 H 0.56844 0.04835 0.88441 0.0
C78 C 0.51906 0.91335 -0.03369 0.0
C79 C 0.52344 0.94695 -0.00823 0.0
C80 C 0.53921 0.92664 0.93231 0.0
C81 C 0.56466 0.97452 0.9236 0.0
C82 C 0.5691 1.00919 0.9489 0.0
C83 C 0.54809 0.99476 -0.01702 0.0
C84 C 0.59448 0.06015 0.93969 0.0
C85 C 0.62216 0.09508 -0.03415 0.0
C86 C 0.64518 0.14298 -0.04303 0.0
C87 C 0.64053 0.15586 0.92203 0.0
C88 C 0.61368 0.12201 0.89579 0.0
C89 C 0.59021 0.07428 0.90471 0.0
H90 H 0.49726 0.64854 0.08995 0.0
H91 H 0.56274 0.6039 0.16922 0.0
H92 H 0.53532 0.5445 0.06114 0.0
H93 H 0.60299 0.54241 0.07334 0.0
H94 H 0.64149 0.47484 0.15467 0.0
H95 H 0.55176 0.53213 0.18204 0.0
C96 C 0.51335 0.62739 0.09715 0.0
C97 C 0.5164 0.59779 0.0713 0.0
C98 C 0.52935 0.62911 0.13246 0.0
C99 C 0.54899 0.60085 0.14206 0.0
C100 C 0.55185 0.56999 0.11646 0.0
C101 C 0.53461 0.56841 0.08116 0.0
C102 C 0.57374 0.5405 0.12625 0.0
C103 C 0.59948 0.52995 0.10068 0.0
C104 C 0.62271 0.50494 0.11059 0.0
C105 C 0.62083 0.49115 0.14639 0.0
C106 C 0.59665 0.50225 0.17234 0.0
C107 C 0.57161 0.52513 0.16189 0.0
Zn108 Zn 0.74175 0.53269 0.36829 0.0
Zn109 Zn 0.6874 0.43751 0.36993 0.0
O110 O 0.75527 0.44988 0.36087 0.0
O111 O 0.80077 0.52674 0.36138 0.0
O112 O 0.65013 0.36725 0.37761 0.0
O113 O 0.72029 0.54046 0.41741 0.0
O114 O 0.67479 0.46355 0.41663 0.0
C115 C 0.79629 0.48614 0.35817 0.0
C116 C 0.66718 0.48967 0.31221 0.0
O117 O 0.65771 0.4505 0.326 0.0
O118 O 0.70059 0.52788 0.32518 0.0
C119 C 0.65459 0.33676 0.35908 0.0
O120 O 0.68309 0.35055 0.3313 0.0
C121 C 0.68893 0.50334 0.43208 0.0
Zn122 Zn 0.23503 0.71691 0.52378 0.0
Zn123 Zn 0.28886 0.67516 0.53125 0.0
O124 O 0.33831 0.74478 0.52251 0.0
O125 O 0.29509 0.77955 0.51827 0.0
O126 O 0.3279 0.64361 0.54217 0.0
O127 O 0.20455 0.69502 0.57196 0.0
O128 O 0.2473 0.6599 0.57659 0.0
C129 C 0.33541 0.78193 0.51806 0.0
C130 C 0.21741 0.64475 0.46952 0.0
O131 O 0.25035 0.64142 0.48589 0.0
O132 O 0.20511 0.67397 0.48043 0.0
C133 C 0.36722 0.65259 0.52799 0.0
O134 O 0.38588 0.68533 0.50345 0.0
C135 C 0.21616 0.66908 0.58932 0.0
Zn136 Zn 0.5544 0.21838 0.70003 0.0
Zn137 Zn 0.65191 0.27219 0.70028 0.0
O138 O 0.62983 0.32051 0.69645 0.0
O139 O 0.55164 0.27941 0.69726 0.0
O140 O 0.72306 0.31015 0.70535 0.0
O141 O 0.55662 0.18938 0.74772 0.0
O142 O 0.63446 0.23224 0.74516 0.0
C143 C 0.58961 0.31878 0.69531 0.0
C144 C 0.60289 0.20281 0.6393 0.0
O145 O 0.64066 0.23484 0.6543 0.0
O146 O 0.56269 0.1896 0.65353 0.0
C147 C 0.75128 0.3457 0.68711 0.0
O148 O 0.734 0.36114 0.66185 0.0
C149 C 0.59738 0.20149 0.7609 0.0
Zn150 Zn 0.37582 0.55063 0.86866 0.0
Zn151 Zn 0.41955 0.64629 0.86779 0.0
O152 O 0.34832 0.62302 0.86115 0.0
O153 O 0.31125 0.54589 0.86369 0.0
O154 O 0.44703 0.7168 0.87079 0.0
O155 O 0.40472 0.553 0.91722 0.0
O156 O 0.44097 0.63026 0.91521 0.0
C157 C 0.30983 0.58364 0.86009 0.0
C158 C 0.44219 0.59547 0.80953 0.0
O159 O 0.44847 0.63398 0.82325 0.0
O160 O 0.41368 0.55662 0.82387 0.0
C161 C 0.49104 0.74744 0.8707 0.0
O162 O 0.52267 0.73346 0.86805 0.0
C163 C 0.43284 0.59274 0.93126 0.0
Zn164 Zn 0.87064 0.51586 0.0325 0.0
Zn165 Zn 0.81549 0.42103 0.02736 0.0
O166 O 0.76569 0.44149 0.03772 0.0
O167 O 0.81016 0.51862 0.04063 0.0
O168 O 0.77858 0.35097 0.01747 0.0
O169 O 0.89598 0.52088 -0.01751 0.0
O170 O 0.85137 0.44399 -0.02027 0.0
C171 C 0.76956 0.48201 0.04198 0.0
C172 C 0.89198 0.46441 0.08611 0.0
O173 O 0.85763 0.42835 0.07106 0.0
O174 O 0.90448 0.50513 0.07437 0.0
C175 C 0.74668 0.31805 0.03599 0.0
O176 O 0.73335 0.32825 0.06654 0.0
C177 C 0.88121 0.48254 -0.03471 0.0
Zn178 Zn 0.37597 0.84954 0.19016 0.0
Zn179 Zn 0.4315 0.80813 0.19207 0.0
O180 O 0.3639 0.75353 0.19913 0.0
O181 O 0.31752 0.78485 0.1962 0.0
O182 O 0.47081 0.77621 0.18735 0.0
O183 O 0.40046 0.87628 0.14097 0.0
O184 O 0.44572 0.84378 0.14485 0.0
C185 C 0.32249 0.74904 0.20011 0.0
C186 C 0.44795 0.88179 0.24831 0.0
O187 O 0.45819 0.85167 0.2356 0.0
O188 O 0.41496 0.88676 0.23403 0.0
C189 C 0.4672 0.74276 0.20675 0.0
O190 O 0.43746 0.72851 0.23377 0.0
C191 C 0.4323 0.86895 0.12788 0.0
C192 C 0.19735 0.65994 0.22852 0.0
C193 C 0.20323 0.62311 0.24192 0.0
C194 C 0.23542 0.69934 0.21285 0.0
C195 C 0.28074 0.70324 0.20995 0.0
H196 H 0.16409 0.65983 0.23241 0.0
H197 H 0.22982 0.72798 0.20473 0.0
S198 S 0.31152 0.61186 0.2358 0.0
N199 N 0.25541 0.5899 0.24767 0.0
N200 N 0.32696 0.66332 0.21771 0.0
C201 C 0.28567 0.66454 0.22054 0.0
C202 C 0.24695 0.62468 0.23672 0.0
C203 C 0.58232 0.22976 0.41645 0.0
C204 C 0.60065 0.19997 0.40757 0.0
C205 C 0.59796 0.27264 0.39905 0.0
C206 C 0.63263 0.28756 0.37203 0.0
H207 H 0.55745 0.22091 0.43837 0.0
H208 H 0.5842 0.29517 0.40802 0.0
S209 S 0.68817 0.21974 0.33642 0.0
N210 N 0.65228 0.18618 0.36827 0.0
N211 N 0.68168 0.26672 0.33507 0.0
C212 C 0.64874 0.25644 0.36111 0.0
C213 C 0.63272 0.21263 0.379 0.0
C214 C 0.47075 0.63365 0.55366 0.0
C215 C 0.44954 0.59568 0.57737 0.0
C216 C 0.44341 0.65035 0.53612 0.0
C217 C 0.39405 0.62985 0.54202 0.0
H218 H 0.50901 0.6523 0.55037 0.0
H219 H 0.46159 0.68111 0.51941 0.0
S220 S 0.32121 0.52516 0.59802 0.0
N221 N 0.37619 0.535 0.60308 0.0
N222 N 0.32466 0.56593 0.5703 0.0
C223 C 0.37218 0.58976 0.56384 0.0
C224 C 0.39998 0.57282 0.58149 0.0
C225 C 0.8736 0.44967 0.70748 0.0
C226 C 0.89289 0.43015 0.73127 0.0
C227 C 0.82895 0.42139 0.6909 0.0
C228 C 0.80213 0.37291 0.69808 0.0
H229 H 0.89137 0.48739 0.70384 0.0
H230 H 0.81399 0.43824 0.67452 0.0
S231 S 0.84101 0.30451 0.75444 0.0
N232 N 0.88496 0.35934 0.75806 0.0
N233 N 0.80131 0.30599 0.72706 0.0
C234 C 0.82313 0.35263 0.71953 0.0
C235 C 0.86849 0.38134 0.73611 0.0
C236 C 0.56518 0.87292 0.90591 0.0
C237 C 0.5319 0.88867 0.90683 0.0
C238 C 0.55271 0.82824 0.89178 0.0
C239 C 0.50628 0.79759 0.87864 0.0
H240 H 0.59988 0.89381 0.91853 0.0
H241 H 0.5787 0.81656 0.89345 0.0
S242 S 0.40832 0.82557 0.87108 0.0
N243 N 0.45256 0.87275 0.89042 0.0
N244 N 0.42881 0.78897 0.86372 0.0
C245 C 0.47392 0.81466 0.87702 0.0
C246 C 0.48681 0.86015 0.89121 0.0
C247 C 0.65134 0.45344 0.08313 0.0
C248 C 0.6543 0.49779 0.08555 0.0
C249 C 0.68722 0.44788 0.06668 0.0
C250 C 0.72769 0.48661 0.05235 0.0
H251 H 0.62221 0.42324 0.09572 0.0
H252 H 0.68449 0.41352 0.06721 0.0
S253 S 0.74928 0.60909 0.04767 0.0
N254 N 0.69853 0.58017 0.06928 0.0
N255 N 0.76567 0.56986 0.03789 0.0
C256 C 0.72922 0.53046 0.05218 0.0
C257 C 0.69259 0.53602 0.06887 0.0
C258 C 0.45464 0.86554 0.47721 0.0
C259 C 0.4528 0.90747 0.47415 0.0
C260 C 0.41814 0.82598 0.49395 0.0
C261 C 0.3781 0.82671 0.50791 0.0
H262 H 0.48343 0.86261 0.46499 0.0
H263 H 0.42002 0.79383 0.49391 0.0
S264 S 0.3594 0.93 0.5108 0.0
N265 N 0.41014 0.94886 0.48941 0.0
N266 N 0.34169 0.87484 0.52121 0.0
C267 C 0.37765 0.86959 0.50738 0.0
C268 C 0.41497 0.9099 0.49044 0.0
C269 C 0.54059 0.39494 0.6598 0.0
C270 C 0.58223 0.43708 0.65214 0.0
C271 C 0.54296 0.35782 0.67652 0.0
C272 C 0.5871 0.36167 0.68608 0.0
H273 H 0.50632 0.38943 0.65055 0.0
H274 H 0.51013 0.32493 0.6798 0.0
S275 S 0.70564 0.4688 0.67754 0.0
N276 N 0.66798 0.48333 0.65943 0.0
N277 N 0.67285 0.41417 0.69129 0.0
C278 C 0.62859 0.40549 0.68151 0.0
C279 C 0.62605 0.44302 0.66434 0.0
C280 C 0.18386 0.53423 0.82419 0.0
C281 C 0.18314 0.57489 0.81345 0.0
C282 C 0.22381 0.53742 0.8419 0.0
C283 C 0.26439 0.58142 0.8494 0.0
H284 H 0.15485 0.49978 0.81662 0.0
H285 H 0.22389 0.50505 0.84765 0.0
S286 S 0.27552 0.6983 0.83275 0.0
N287 N 0.22276 0.66014 0.81585 0.0
N288 N 0.29786 0.66657 0.84937 0.0
C289 C 0.26198 0.62233 0.84175 0.0
C290 C 0.22135 0.61894 0.82363 0.0
C291 C 0.72047 0.21523 -0.02593 0.0
C292 C 0.67393 0.1812 -0.01673 0.0
C293 C 0.7445 0.25829 -0.00738 0.0
C294 C 0.72301 0.26918 0.02121 0.0
H295 H 0.73737 0.20956 0.95092 0.0
H296 H 0.7795 0.28402 -0.01662 0.0
S297 S 0.60335 0.18965 0.05823 0.0
N298 N 0.60852 0.15929 0.02449 0.0
N299 N 0.65384 0.24023 0.05994 0.0
C300 C 0.67777 0.23399 0.03243 0.0
C301 C 0.65319 0.18998 0.01333 0.0
C302 C 0.54211 0.7078 0.15064 0.0
C303 C 0.52334 0.66002 0.15869 0.0
C304 C 0.52624 0.73527 0.16841 0.0
C305 C 0.49076 0.71594 0.19482 0.0
H306 H 0.56697 0.72322 0.12875 0.0
H307 H 0.53999 0.77124 0.15985 0.0
S308 S 0.43478 0.59377 0.22876 0.0
N309 N 0.47123 0.59551 0.19706 0.0
N310 N 0.44127 0.64709 0.23088 0.0
C311 C 0.47472 0.66918 0.20528 0.0
C312 C 0.49105 0.6412 0.18708 0.0
C313 C 0.92033 0.52012 0.32617 0.0
C314 C 0.91454 0.47745 0.31244 0.0
C315 C 0.88268 0.5221 0.34305 0.0
C316 C 0.83786 0.48142 0.34694 0.0
H317 H 0.95317 0.55269 0.32182 0.0
H318 H 0.88819 0.55624 0.35147 0.0
S319 S 0.80766 0.35975 0.32071 0.0
N320 N 0.8631 0.3929 0.30747 0.0
N321 N 0.79232 0.39612 0.33959 0.0
C322 C 0.83307 0.4379 0.33591 0.0
C323 C 0.87137 0.43607 0.31849 0.0
C324 C 0.20197 0.57889 0.3814 0.0
C325 C 0.1595 0.57461 0.36726 0.0
C326 C 0.21927 0.59924 0.41552 0.0
C327 C 0.19499 0.61662 0.4364 0.0
H328 H 0.22297 0.56823 0.36532 0.0
H329 H 0.25312 0.60361 0.4247 0.0
S330 S 0.07984 0.6098 0.4129 0.0
N331 N 0.09198 0.58654 0.37773 0.0
N332 N 0.12401 0.62414 0.44186 0.0
C333 C 0.15105 0.60999 0.42341 0.0
C334 C 0.13339 0.58911 0.38884 0.0
C335 C 0.5635 0.1267 0.55495 0.0
C336 C 0.60296 0.14997 0.5324 0.0
C337 C 0.56456 0.14292 0.59009 0.0
C338 C 0.60524 0.18285 0.60398 0.0
H339 H 0.53063 0.09733 0.54474 0.0
H340 H 0.53262 0.12491 0.60599 0.0
S341 S 0.71997 0.25243 0.5567 0.0
N342 N 0.68514 0.21186 0.52699 0.0
N343 N 0.68763 0.24263 0.59321 0.0
C344 C 0.64606 0.20458 0.58233 0.0
C345 C 0.64476 0.18812 0.54645 0.0
C346 C 0.49751 0.63286 0.71748 0.0
C347 C 0.49555 0.59168 0.70388 0.0
C348 C 0.4827 0.63477 0.75254 0.0
C349 C 0.46489 0.59536 0.77505 0.0
H350 H 0.50915 0.66329 0.70047 0.0
H351 H 0.48312 0.66663 0.76136 0.0
S352 S 0.45619 0.48033 0.75301 0.0
N353 N 0.47701 0.51151 0.71616 0.0
N354 N 0.44999 0.51524 0.78216 0.0
C355 C 0.46519 0.55481 0.76236 0.0
C356 C 0.48032 0.55294 0.72674 0.0
C357 C 0.94582 0.5273 0.87679 0.0
C358 C 0.93314 0.4857 0.85732 0.0
C359 C 0.92897 0.52587 0.91169 0.0
C360 C 0.89887 0.48274 0.92846 0.0
H361 H 0.96813 0.56121 0.86468 0.0
H362 H 0.93933 0.55895 0.92543 0.0
S363 S 0.85826 0.36368 0.88938 0.0
N364 N 0.89113 0.40021 0.85771 0.0
N365 N 0.85891 0.39725 0.92308 0.0
C366 C 0.88675 0.44081 0.90938 0.0
C367 C 0.90402 0.44236 0.87389 0.0
C368 C 0.5127 0.90045 0.04696 0.0
C369 C 0.50215 0.9309 0.02757 0.0
C370 C 0.48992 0.8808 0.07926 0.0
C371 C 0.45547 0.89068 0.09348 0.0
H372 H 0.5385 0.89132 0.03683 0.0
H373 H 0.49927 0.85734 0.09297 0.0
S374 S 0.41569 0.96912 0.05281 0.0
N375 N 0.45563 0.9706 0.02454 0.0
N376 N 0.41268 0.93402 0.08564 0.0
C377 C 0.44511 0.9218 0.07451 0.0
C378 C 0.46857 0.94192 0.04153 0.0
C379 C 0.60082 0.45406 0.22277 0.0
C380 C 0.60466 0.49651 0.21085 0.0
C381 C 0.61862 0.45124 0.25663 0.0
C382 C 0.64139 0.49096 0.27953 0.0
H383 H 0.58599 0.42345 0.20506 0.0
H384 H 0.61688 0.41844 0.26397 0.0
S385 S 0.6554 0.60888 0.26257 0.0
N386 N 0.62921 0.57795 0.22575 0.0
N387 N 0.66204 0.5726 0.28951 0.0
C388 C 0.64247 0.5327 0.2689 0.0
C389 C 0.62419 0.53547 0.23454 0.0
C390 C 0.51236 0.91368 0.33846 0.0
C391 C 0.50782 0.95234 0.34987 0.0
C392 C 0.49529 0.89261 0.30459 0.0
C393 C 0.47249 0.90912 0.28121 0.0
H394 H 0.52707 0.89821 0.35658 0.0
H395 H 0.49765 0.86161 0.2976 0.0
S396 S 0.45681 1.01288 0.29701 0.0
N397 N 0.4828 1.00886 0.33418 0.0
N398 N 0.45092 0.96959 0.27039 0.0
C399 C 0.47064 0.94974 0.29141 0.0
C400 C 0.48834 0.97133 0.32578 0.0
C401 C 0.60791 0.46511 0.51294 0.0
C402 C 0.6213 0.50753 0.53152 0.0
C403 C 0.6301 0.46429 0.48099 0.0
C404 C 0.66673 0.50592 0.46627 0.0
H405 H 0.58031 0.43208 0.52348 0.0
H406 H 0.61844 0.43055 0.46791 0.0
S407 S 0.71447 0.62648 0.50479 0.0
N408 N 0.6729 0.5922 0.53324 0.0
N409 N 0.71482 0.59122 0.47281 0.0
C410 C 0.67998 0.54886 0.48441 0.0
C411 C 0.65713 0.54954 0.51706 0.0
C412 C 0.18087 0.59486 0.67347 0.0
C413 C 0.14824 0.60545 0.69006 0.0
C414 C 0.2025 0.61561 0.64104 0.0
C415 C 0.1924 0.64786 0.62377 0.0
H416 H 0.19013 0.57056 0.6859 0.0
H417 H 0.22751 0.60629 0.62956 0.0
S418 S 0.10884 0.68706 0.65631 0.0
N419 N 0.10646 0.64985 0.6871 0.0
N420 N 0.14661 0.68884 0.62577 0.0
C421 C 0.15909 0.6582 0.63986 0.0
C422 C 0.13705 0.63691 0.67302 0.0
C423 C 0.56508 0.1263 0.84483 0.0
C424 C 0.6098 0.13785 0.85939 0.0
C425 C 0.56132 0.14669 0.81277 0.0
C426 C 0.60218 0.17927 0.79418 0.0
H427 H 0.53289 0.10275 0.859 0.0
H428 H 0.5261 0.13745 0.80292 0.0
S429 S 0.72762 0.21742 0.82005 0.0
N430 N 0.69552 0.18092 0.852 0.0
N431 N 0.68895 0.2195 0.79195 0.0
C432 C 0.64714 0.18962 0.80799 0.0
C433 C 0.65081 0.16882 0.84052 0.0
C434 C 0.46443 0.55428 0.01853 0.0
C435 C 0.49873 0.59696 0.0343 0.0
C436 C 0.44363 0.55335 -0.01488 0.0
C437 C 0.4564 0.59509 -0.03378 0.0
H438 H 0.45251 0.52152 0.03261 0.0
H439 H 0.41674 0.51958 -0.02563 0.0
S440 S 0.54797 0.71571 -0.005 0.0
N441 N 0.54712 0.68163 0.02787 0.0
N442 N 0.50789 0.68019 -0.03483 0.0
C443 C 0.49182 0.63795 -0.01864 0.0
C444 C 0.51302 0.63879 0.01535 0.0
C445 C 0.97876 0.49893 0.16444 0.0
C446 C 0.95581 0.46066 0.18774 0.0
C447 C 0.95907 0.4986 0.13072 0.0
C448 C 0.91577 0.45992 0.1189 0.0
H449 H 1.0104 0.53075 0.17329 0.0
H450 H 0.97693 0.5299 0.11451 0.0
S451 S 0.84571 0.34801 0.1678 0.0
N452 N 0.89074 0.38092 0.19525 0.0
N453 N 0.85346 0.38005 0.13167 0.0
C454 C 0.8945 0.41984 0.14076 0.0
C455 C 0.91455 0.42033 0.17526 0.0
loop_
_geom_bond_atom_site_label_1
_geom_bond_atom_site_label_2
_geom_bond_distance
_geom_bond_site_symmetry_2
_ccdc_geom_bond_type
H0 C6 0.930 . S
H1 C9 0.931 . S
H2 C11 0.931 . S
H3 C13 0.930 . S
H4 C15 0.930 . S
H5 C17 0.931 . S
C6 H0 0.930 . S
C6 C7 1.380 . S
C6 C8 1.394 . S
C7 C6 1.380 . S
C7 C11 1.382 . S
C8 C6 1.394 . S
C8 C9 1.400 . S
C9 H1 0.931 . S
C9 C8 1.400 . S
C9 C10 1.375 . S
C10 C9 1.375 . S
C10 C11 1.415 . S
C10 C12 1.501 1_455 S
C11 H2 0.931 . S
C11 C7 1.382 . S
C11 C10 1.415 . S
C12 C10 1.501 1_655 S
C12 C13 1.384 . S
C12 C17 1.408 . S
C13 H3 0.930 . S
C13 C12 1.384 . S
C13 C14 1.389 . S
C14 C13 1.389 . S
C14 C15 1.405 . S
C15 H4 0.930 . S
C15 C14 1.405 . S
C15 C16 1.364 . S
C16 C15 1.364 . S
C16 C17 1.400 . S
C17 H5 0.931 . S
C17 C12 1.408 . S
C17 C16 1.400 . S
H18 C24 0.930 . S
H19 C27 0.931 . S
H20 C29 0.931 . S
H21 C31 0.930 . S
H22 C33 0.930 . S
H23 C35 0.931 . S
C24 H18 0.930 . S
C24 C25 1.380 . S
C24 C26 1.394 . S
C25 C24 1.380 . S
C25 C29 1.382 . S
C26 C24 1.394 . S
C26 C27 1.400 . S
C27 H19 0.931 . S
C27 C26 1.400 . S
C27 C28 1.375 . S
C28 C27 1.375 . S
C28 C29 1.415 . S
C28 C30 1.501 1_545 S
C29 H20 0.931 . S
C29 C25 1.382 . S
C29 C28 1.415 . S
C30 C28 1.501 1_565 S
C30 C31 1.384 . S
C30 C35 1.408 . S
C31 H21 0.930 . S
C31 C30 1.384 . S
C31 C32 1.389 . S
C32 C31 1.389 . S
C32 C33 1.405 . S
C33 H22 0.930 . S
C33 C32 1.405 . S
C33 C34 1.364 . S
C34 C33 1.364 . S
C34 C35 1.400 . S
C35 H23 0.931 . S
C35 C30 1.408 . S
C35 C34 1.400 . S
H36 C42 0.930 . S
H37 C45 0.931 . S
H38 C47 0.931 . S
H39 C49 0.930 . S
H40 C51 0.930 . S
H41 C53 0.931 . S
C42 H36 0.930 . S
C42 C43 1.380 . S
C42 C44 1.394 . S
C43 C42 1.380 . S
C43 C47 1.382 . S
C44 C42 1.394 . S
C44 C45 1.400 . S
C45 H37 0.931 . S
C45 C44 1.400 . S
C45 C46 1.375 . S
C46 C45 1.375 . S
C46 C47 1.415 . S
C46 C48 1.501 . S
C47 H38 0.931 . S
C47 C43 1.382 . S
C47 C46 1.415 . S
C48 C46 1.501 . S
C48 C49 1.384 . S
C48 C53 1.408 . S
C49 H39 0.930 . S
C49 C48 1.384 . S
C49 C50 1.389 . S
C50 C49 1.389 . S
C50 C51 1.405 . S
C51 H40 0.930 . S
C51 C50 1.405 . S
C51 C52 1.364 . S
C52 C51 1.364 . S
C52 C53 1.400 . S
C53 H41 0.931 . S
C53 C48 1.408 . S
C53 C52 1.400 . S
H54 C60 0.930 . S
H55 C63 0.931 . S
H56 C65 0.931 . S
H57 C67 0.930 . S
H58 C69 0.930 . S
H59 C71 0.931 . S
C60 H54 0.930 . S
C60 C61 1.380 . S
C60 C62 1.394 . S
C61 C60 1.380 . S
C61 C65 1.382 . S
C62 C60 1.394 . S
C62 C63 1.400 . S
C63 H55 0.931 . S
C63 C62 1.400 . S
C63 C64 1.375 . S
C64 C63 1.375 . S
C64 C65 1.415 . S
C64 C66 1.501 1_455 S
C65 H56 0.931 . S
C65 C61 1.382 . S
C65 C64 1.415 . S
C66 C64 1.501 1_655 S
C66 C67 1.384 . S
C66 C71 1.408 . S
C67 H57 0.930 . S
C67 C66 1.384 . S
C67 C68 1.389 . S
C68 C67 1.389 . S
C68 C69 1.405 . S
C69 H58 0.930 . S
C69 C68 1.405 . S
C69 C70 1.364 . S
C70 C69 1.364 . S
C70 C71 1.400 . S
C71 H59 0.931 . S
C71 C66 1.408 . S
C71 C70 1.400 . S
H72 C78 0.930 . S
H73 C81 0.931 . S
H74 C83 0.931 . S
H75 C85 0.930 . S
H76 C87 0.930 . S
H77 C89 0.931 . S
C78 H72 0.930 . S
C78 C79 1.380 . S
C78 C80 1.394 1_554 S
C79 C78 1.380 . S
C79 C83 1.382 . S
C80 C78 1.394 1_556 S
C80 C81 1.400 . S
C81 H73 0.931 . S
C81 C80 1.400 . S
C81 C82 1.375 . S
C82 C81 1.375 . S
C82 C83 1.415 1_556 S
C82 C84 1.501 1_565 S
C83 H74 0.931 . S
C83 C79 1.382 . S
C83 C82 1.415 1_554 S
C84 C82 1.501 1_545 S
C84 C85 1.384 1_556 S
C84 C89 1.408 . S
C85 H75 0.930 . S
C85 C84 1.384 1_554 S
C85 C86 1.393 . S
C86 C85 1.393 . S
C86 C87 1.392 1_554 S
C87 H76 0.930 . S
C87 C86 1.392 1_556 S
C87 C88 1.364 . S
C88 C87 1.364 . S
C88 C89 1.400 . S
C89 H77 0.931 . S
C89 C84 1.408 . S
C89 C88 1.400 . S
H90 C96 0.930 . S
H91 C99 0.931 . S
H92 C101 0.931 . S
H93 C103 0.930 . S
H94 C105 0.930 . S
H95 C107 0.931 . S
C96 H90 0.930 . S
C96 C97 1.380 . S
C96 C98 1.394 . S
C97 C96 1.380 . S
C97 C101 1.382 . S
C98 C96 1.394 . S
C98 C99 1.400 . S
C99 H91 0.931 . S
C99 C98 1.400 . S
C99 C100 1.375 . S
C100 C99 1.375 . S
C100 C101 1.415 . S
C100 C102 1.501 . S
C101 H92 0.931 . S
C101 C97 1.382 . S
C101 C100 1.415 . S
C102 C100 1.501 . S
C102 C103 1.384 . S
C102 C107 1.408 . S
C103 H93 0.930 . S
C103 C102 1.384 . S
C103 C104 1.389 . S
C104 C103 1.389 . S
C104 C105 1.405 . S
C105 H94 0.930 . S
C105 C104 1.405 . S
C105 C106 1.364 . S
C106 C105 1.364 . S
C106 C107 1.400 . S
C107 H95 0.931 . S
C107 C102 1.408 . S
C107 C106 1.400 . S
Zn108 O111 2.031 . S
Zn108 O113 2.049 . S
Zn108 O118 2.067 . S
Zn109 O110 1.962 . S
Zn109 O112 1.986 . S
Zn109 O114 1.996 . S
Zn109 O117 1.943 . S
O110 Zn109 1.962 . S
O110 C115 1.254 . S
O111 Zn108 2.031 . S
O111 C115 1.269 . S
O112 Zn109 1.986 . S
O112 C119 1.262 . S
O113 Zn108 2.049 . S
O113 C121 1.260 . S
O114 Zn109 1.996 . S
O114 C121 1.257 . S
C115 O110 1.254 . S
C115 O111 1.269 . S
C116 O117 1.249 . S
C116 O118 1.270 . S
O117 Zn109 1.943 . S
O117 C116 1.249 . S
O118 Zn108 2.067 . S
O118 C116 1.270 . S
C119 O112 1.262 . S
C119 O120 1.232 . S
O120 C119 1.232 . S
C121 O113 1.260 . S
C121 O114 1.257 . S
Zn122 O125 2.031 . S
Zn122 O127 2.049 . S
Zn122 O132 2.067 . S
Zn123 O124 1.962 . S
Zn123 O126 1.986 . S
Zn123 O128 1.996 . S
Zn123 O131 1.943 . S
O124 Zn123 1.962 . S
O124 C129 1.254 . S
O125 Zn122 2.031 . S
O125 C129 1.269 . S
O126 Zn123 1.986 . S
O126 C133 1.262 . S
O127 Zn122 2.049 . S
O127 C135 1.260 . S
O128 Zn123 1.996 . S
O128 C135 1.257 . S
C129 O124 1.254 . S
C129 O125 1.269 . S
C130 O131 1.249 . S
C130 O132 1.270 . S
O131 Zn123 1.943 . S
O131 C130 1.249 . S
O132 Zn122 2.067 . S
O132 C130 1.270 . S
C133 O126 1.262 . S
C133 O134 1.232 . S
O134 C133 1.232 . S
C135 O127 1.260 . S
C135 O128 1.257 . S
Zn136 O139 2.031 . S
Zn136 O141 2.049 . S
Zn136 O146 2.067 . S
Zn137 O138 1.962 . S
Zn137 O140 1.986 . S
Zn137 O142 1.996 . S
Zn137 O145 1.943 . S
O138 Zn137 1.962 . S
O138 C143 1.254 . S
O139 Zn136 2.031 . S
O139 C143 1.269 . S
O140 Zn137 1.986 . S
O140 C147 1.262 . S
O141 Zn136 2.049 . S
O141 C149 1.260 . S
O142 Zn137 1.996 . S
O142 C149 1.257 . S
C143 O138 1.254 . S
C143 O139 1.269 . S
C144 O145 1.249 . S
C144 O146 1.270 . S
O145 Zn137 1.943 . S
O145 C144 1.249 . S
O146 Zn136 2.067 . S
O146 C144 1.270 . S
C147 O140 1.262 . S
C147 O148 1.232 . S
O148 C147 1.232 . S
C149 O141 1.260 . S
C149 O142 1.257 . S
Zn150 O153 2.031 . S
Zn150 O155 2.049 . S
Zn150 O160 2.067 . S
Zn151 O152 1.962 . S
Zn151 O154 1.986 . S
Zn151 O156 1.996 . S
Zn151 O159 1.943 . S
O152 Zn151 1.962 . S
O152 C157 1.254 . S
O153 Zn150 2.031 . S
O153 C157 1.269 . S
O154 Zn151 1.986 . S
O154 C161 1.262 . S
O155 Zn150 2.049 . S
O155 C163 1.260 . S
O156 Zn151 1.996 . S
O156 C163 1.257 . S
C157 O152 1.254 . S
C157 O153 1.269 . S
C158 O159 1.249 . S
C158 O160 1.270 . S
O159 Zn151 1.943 . S
O159 C158 1.249 . S
O160 Zn150 2.067 . S
O160 C158 1.270 . S
C161 O154 1.262 . S
C161 O162 1.232 . S
O162 C161 1.232 . S
C163 O155 1.260 . S
C163 O156 1.257 . S
Zn164 O167 2.031 . S
Zn164 O169 2.049 . S
Zn164 O174 2.067 . S
Zn165 O166 1.962 . S
Zn165 O168 1.986 . S
Zn165 O170 1.996 . S
Zn165 O173 1.943 . S
O166 Zn165 1.962 . S
O166 C171 1.254 . S
O167 Zn164 2.031 . S
O167 C171 1.269 . S
O168 Zn165 1.986 . S
O168 C175 1.262 . S
O169 Zn164 2.049 . S
O169 C177 1.260 . S
O170 Zn165 1.996 . S
O170 C177 1.257 . S
C171 O166 1.254 . S
C171 O167 1.269 . S
C172 O173 1.249 . S
C172 O174 1.270 . S
O173 Zn165 1.943 . S
O173 C172 1.249 . S
O174 Zn164 2.067 . S
O174 C172 1.270 . S
C175 O168 1.262 . S
C175 O176 1.232 . S
O176 C175 1.232 . S
C177 O169 1.260 . S
C177 O170 1.257 . S
Zn178 O181 2.031 . S
Zn178 O183 2.049 . S
Zn178 O188 2.067 . S
Zn179 O180 1.962 . S
Zn179 O182 1.986 . S
Zn179 O184 1.996 . S
Zn179 O187 1.943 . S
O180 Zn179 1.962 . S
O180 C185 1.254 . S
O181 Zn178 2.031 . S
O181 C185 1.269 . S
O182 Zn179 1.986 . S
O182 C189 1.262 . S
O183 Zn178 2.049 . S
O183 C191 1.260 . S
O184 Zn179 1.996 . S
O184 C191 1.257 . S
C185 O180 1.254 . S
C185 O181 1.269 . S
C186 O187 1.249 . S
C186 O188 1.270 . S
O187 Zn179 1.943 . S
O187 C186 1.249 . S
O188 Zn178 2.067 . S
O188 C186 1.270 . S
C189 O182 1.262 . S
C189 O190 1.232 . S
O190 C189 1.232 . S
C191 O183 1.260 . S
C191 O184 1.257 . S
C192 C193 1.369 . S
C192 C194 1.419 . S
C192 H196 0.930 . S
C193 C192 1.369 . S
C193 C202 1.429 . S
C194 C192 1.419 . S
C194 C195 1.363 . S
C194 H197 0.929 . S
C195 C194 1.363 . S
C195 C201 1.428 . S
H196 C192 0.930 . S
H197 C194 0.929 . S
S198 N199 1.613 . S
S198 N200 1.610 . S
N199 S198 1.613 . S
N199 C202 1.350 . S
N200 S198 1.610 . S
N200 C201 1.351 . S
C201 C195 1.428 . S
C201 N200 1.351 . S
C201 C202 1.434 . S
C202 C193 1.429 . S
C202 N199 1.350 . S
C202 C201 1.434 . S
C203 C204 1.369 . S
C203 C205 1.419 . S
C203 H207 0.930 . S
C204 C203 1.369 . S
C204 C213 1.429 . S
C205 C203 1.419 . S
C205 C206 1.363 . S
C205 H208 0.929 . S
C206 C205 1.363 . S
C206 C212 1.428 . S
H207 C203 0.930 . S
H208 C205 0.929 . S
S209 N210 1.613 . S
S209 N211 1.610 . S
N210 S209 1.613 . S
N210 C213 1.350 . S
N211 S209 1.610 . S
N211 C212 1.351 . S
C212 C206 1.428 . S
C212 N211 1.351 . S
C212 C213 1.434 . S
C213 C204 1.429 . S
C213 N210 1.350 . S
C213 C212 1.434 . S
C214 C215 1.369 . S
C214 C216 1.419 . S
C214 H218 0.930 . S
C215 C214 1.369 . S
C215 C224 1.429 . S
C216 C214 1.419 . S
C216 C217 1.363 . S
C216 H219 0.929 . S
C217 C216 1.363 . S
C217 C223 1.428 . S
H218 C214 0.930 . S
H219 C216 0.929 . S
S220 N221 1.613 . S
S220 N222 1.610 . S
N221 S220 1.613 . S
N221 C224 1.350 . S
N222 S220 1.610 . S
N222 C223 1.351 . S
C223 C217 1.428 . S
C223 N222 1.351 . S
C223 C224 1.434 . S
C224 C215 1.429 . S
C224 N221 1.350 . S
C224 C223 1.434 . S
C225 C226 1.369 . S
C225 C227 1.419 . S
C225 H229 0.930 . S
C226 C225 1.369 . S
C226 C235 1.429 . S
C227 C225 1.419 . S
C227 C228 1.363 . S
C227 H230 0.929 . S
C228 C227 1.363 . S
C228 C234 1.428 . S
H229 C225 0.930 . S
H230 C227 0.929 . S
S231 N232 1.613 . S
S231 N233 1.610 . S
N232 S231 1.613 . S
N232 C235 1.350 . S
N233 S231 1.610 . S
N233 C234 1.351 . S
C234 C228 1.428 . S
C234 N233 1.351 . S
C234 C235 1.434 . S
C235 C226 1.429 . S
C235 N232 1.350 . S
C235 C234 1.434 . S
C236 C237 1.369 . S
C236 C238 1.419 . S
C236 H240 0.930 . S
C237 C236 1.369 . S
C237 C246 1.429 . S
C238 C236 1.419 . S
C238 C239 1.363 . S
C238 H241 0.929 . S
C239 C238 1.363 . S
C239 C245 1.428 . S
H240 C236 0.930 . S
H241 C238 0.929 . S
S242 N243 1.613 . S
S242 N244 1.610 1_554 S
N243 S242 1.613 . S
N243 C246 1.350 1_554 S
N244 S242 1.610 1_556 S
N244 C245 1.351 . S
C245 C239 1.428 . S
C245 N244 1.351 . S
C245 C246 1.434 . S
C246 C237 1.429 . S
C246 N243 1.350 1_556 S
C246 C245 1.434 . S
C247 C248 1.369 . S
C247 C249 1.419 . S
C247 H251 0.930 . S
C248 C247 1.369 . S
C248 C257 1.429 . S
C249 C247 1.419 . S
C249 C250 1.363 . S
C249 H252 0.929 . S
C250 C249 1.363 . S
C250 C256 1.428 . S
H251 C247 0.930 . S
H252 C249 0.929 . S
S253 N254 1.613 . S
S253 N255 1.610 . S
N254 S253 1.613 . S
N254 C257 1.350 . S
N255 S253 1.610 . S
N255 C256 1.351 . S
C256 C250 1.428 . S
C256 N255 1.351 . S
C256 C257 1.434 . S
C257 C248 1.429 . S
C257 N254 1.350 . S
C257 C256 1.434 . S
C258 C259 1.369 . S
C258 C260 1.419 . S
C258 H262 0.930 . S
C259 C258 1.369 . S
C259 C268 1.429 . S
C260 C258 1.419 . S
C260 C261 1.363 . S
C260 H263 0.929 . S
C261 C260 1.363 . S
C261 C267 1.428 . S
H262 C258 0.930 . S
H263 C260 0.929 . S
S264 N265 1.613 . S
S264 N266 1.610 . S
N265 S264 1.613 . S
N265 C268 1.350 . S
N266 S264 1.610 . S
N266 C267 1.351 . S
C267 C261 1.428 . S
C267 N266 1.351 . S
C267 C268 1.434 . S
C268 C259 1.429 . S
C268 N265 1.350 . S
C268 C267 1.434 . S
C269 C270 1.369 . S
C269 C271 1.419 . S
C269 H273 0.930 . S
C270 C269 1.369 . S
C270 C279 1.429 . S
C271 C269 1.419 . S
C271 C272 1.363 . S
C271 H274 0.929 . S
C272 C271 1.363 . S
C272 C278 1.428 . S
H273 C269 0.930 . S
H274 C271 0.929 . S
S275 N276 1.613 . S
S275 N277 1.610 . S
N276 S275 1.613 . S
N276 C279 1.350 . S
N277 S275 1.610 . S
N277 C278 1.351 . S
C278 C272 1.428 . S
C278 N277 1.351 . S
C278 C279 1.434 . S
C279 C270 1.429 . S
C279 N276 1.350 . S
C279 C278 1.434 . S
C280 C281 1.369 . S
C280 C282 1.419 . S
C280 H284 0.930 . S
C281 C280 1.369 . S
C281 C290 1.429 . S
C282 C280 1.419 . S
C282 C283 1.363 . S
C282 H285 0.929 . S
C283 C282 1.363 . S
C283 C289 1.428 . S
H284 C280 0.930 . S
H285 C282 0.929 . S
S286 N287 1.613 . S
S286 N288 1.610 . S
N287 S286 1.613 . S
N287 C290 1.350 . S
N288 S286 1.610 . S
N288 C289 1.351 . S
C289 C283 1.428 . S
C289 N288 1.351 . S
C289 C290 1.434 . S
C290 C281 1.429 . S
C290 N287 1.350 . S
C290 C289 1.434 . S
C291 C292 1.369 . S
C291 C293 1.419 . S
C291 H295 0.930 . S
C292 C291 1.369 . S
C292 C301 1.429 . S
C293 C291 1.419 . S
C293 C294 1.363 . S
C293 H296 0.929 . S
C294 C293 1.363 . S
C294 C300 1.428 . S
H295 C291 0.930 . S
H296 C293 0.929 . S
S297 N298 1.613 . S
S297 N299 1.610 . S
N298 S297 1.613 . S
N298 C301 1.350 . S
N299 S297 1.610 . S
N299 C300 1.351 . S
C300 C294 1.428 . S
C300 N299 1.351 . S
C300 C301 1.434 . S
C301 C292 1.429 . S
C301 N298 1.350 . S
C301 C300 1.434 . S
C302 C303 1.369 . S
C302 C304 1.419 . S
C302 H306 0.930 . S
C303 C302 1.369 . S
C303 C312 1.429 . S
C304 C302 1.419 . S
C304 C305 1.363 . S
C304 H307 0.929 . S
C305 C304 1.363 . S
C305 C311 1.428 . S
H306 C302 0.930 . S
H307 C304 0.929 . S
S308 N309 1.613 . S
S308 N310 1.610 . S
N309 S308 1.613 . S
N309 C312 1.350 . S
N310 S308 1.610 . S
N310 C311 1.351 . S
C311 C305 1.428 . S
C311 N310 1.351 . S
C311 C312 1.434 . S
C312 C303 1.429 . S
C312 N309 1.350 . S
C312 C311 1.434 . S
C313 C314 1.369 . S
C313 C315 1.419 . S
C313 H317 0.930 . S
C314 C313 1.369 . S
C314 C323 1.429 . S
C315 C313 1.419 . S
C315 C316 1.363 . S
C315 H318 0.929 . S
C316 C315 1.363 . S
C316 C322 1.428 . S
H317 C313 0.930 . S
H318 C315 0.929 . S
S319 N320 1.613 . S
S319 N321 1.610 . S
N320 S319 1.613 . S
N320 C323 1.350 . S
N321 S319 1.610 . S
N321 C322 1.351 . S
C322 C316 1.428 . S
C322 N321 1.351 . S
C322 C323 1.434 . S
C323 C314 1.429 . S
C323 N320 1.350 . S
C323 C322 1.434 . S
C324 C325 1.369 . S
C324 C326 1.419 . S
C324 H328 0.930 . S
C325 C324 1.369 . S
C325 C334 1.429 . S
C326 C324 1.419 . S
C326 C327 1.363 . S
C326 H329 0.929 . S
C327 C326 1.363 . S
C327 C333 1.428 . S
H328 C324 0.930 . S
H329 C326 0.929 . S
S330 N331 1.613 . S
S330 N332 1.610 . S
N331 S330 1.613 . S
N331 C334 1.350 . S
N332 S330 1.610 . S
N332 C333 1.351 . S
C333 C327 1.428 . S
C333 N332 1.351 . S
C333 C334 1.434 . S
C334 C325 1.429 . S
C334 N331 1.350 . S
C334 C333 1.434 . S
C335 C336 1.369 . S
C335 C337 1.419 . S
C335 H339 0.930 . S
C336 C335 1.369 . S
C336 C345 1.429 . S
C337 C335 1.419 . S
C337 C338 1.363 . S
C337 H340 0.929 . S
C338 C337 1.363 . S
C338 C344 1.428 . S
H339 C335 0.930 . S
H340 C337 0.929 . S
S341 N342 1.613 . S
S341 N343 1.610 . S
N342 S341 1.613 . S
N342 C345 1.350 . S
N343 S341 1.610 . S
N343 C344 1.351 . S
C344 C338 1.428 . S
C344 N343 1.351 . S
C344 C345 1.434 . S
C345 C336 1.429 . S
C345 N342 1.350 . S
C345 C344 1.434 . S
C346 C347 1.369 . S
C346 C348 1.419 . S
C346 H350 0.930 . S
C347 C346 1.369 . S
C347 C356 1.429 . S
C348 C346 1.419 . S
C348 C349 1.363 . S
C348 H351 0.929 . S
C349 C348 1.363 . S
C349 C355 1.428 . S
H350 C346 0.930 . S
H351 C348 0.929 . S
S352 N353 1.613 . S
S352 N354 1.610 . S
N353 S352 1.613 . S
N353 C356 1.350 . S
N354 S352 1.610 . S
N354 C355 1.351 . S
C355 C349 1.428 . S
C355 N354 1.351 . S
C355 C356 1.434 . S
C356 C347 1.429 . S
C356 N353 1.350 . S
C356 C355 1.434 . S
C357 C358 1.369 . S
C357 C359 1.419 . S
C357 H361 0.930 . S
C358 C357 1.369 . S
C358 C367 1.429 . S
C359 C357 1.419 . S
C359 C360 1.363 . S
C359 H362 0.929 . S
C360 C359 1.363 . S
C360 C366 1.428 . S
H361 C357 0.930 . S
H362 C359 0.929 . S
S363 N364 1.613 1_554 S
S363 N365 1.610 . S
N364 S363 1.613 1_556 S
N364 C367 1.350 . S
N365 S363 1.610 . S
N365 C366 1.351 1_554 S
C366 C360 1.428 . S
C366 N365 1.351 1_556 S
C366 C367 1.434 . S
C367 C358 1.429 . S
C367 N364 1.350 . S
C367 C366 1.434 . S
C368 C369 1.369 . S
C368 C370 1.419 . S
C368 H372 0.930 . S
C369 C368 1.369 . S
C369 C378 1.429 . S
C370 C368 1.419 . S
C370 C371 1.363 . S
C370 H373 0.929 . S
C371 C370 1.363 . S
C371 C377 1.428 . S
H372 C368 0.930 . S
H373 C370 0.929 . S
S374 N375 1.613 . S
S374 N376 1.610 . S
N375 S374 1.613 . S
N375 C378 1.350 . S
N376 S374 1.610 . S
N376 C377 1.351 . S
C377 C371 1.428 . S
C377 N376 1.351 . S
C377 C378 1.434 . S
C378 C369 1.429 . S
C378 N375 1.350 . S
C378 C377 1.434 . S
C379 C380 1.369 . S
C379 C381 1.419 . S
C379 H383 0.930 . S
C380 C379 1.369 . S
C380 C389 1.429 . S
C381 C379 1.419 . S
C381 C382 1.363 . S
C381 H384 0.929 . S
C382 C381 1.363 . S
C382 C388 1.428 . S
H383 C379 0.930 . S
H384 C381 0.929 . S
S385 N386 1.613 . S
S385 N387 1.610 . S
N386 S385 1.613 . S
N386 C389 1.350 . S
N387 S385 1.610 . S
N387 C388 1.351 . S
C388 C382 1.428 . S
C388 N387 1.351 . S
C388 C389 1.434 . S
C389 C380 1.429 . S
C389 N386 1.350 . S
C389 C388 1.434 . S
C390 C391 1.369 . S
C390 C392 1.419 . S
C390 H394 0.930 . S
C391 C390 1.369 . S
C391 C400 1.429 . S
C392 C390 1.419 . S
C392 C393 1.363 . S
C392 H395 0.929 . S
C393 C392 1.363 . S
C393 C399 1.428 . S
H394 C390 0.930 . S
H395 C392 0.929 . S
S396 N397 1.613 . S
S396 N398 1.610 . S
N397 S396 1.613 . S
N397 C400 1.350 . S
N398 S396 1.610 . S
N398 C399 1.351 . S
C399 C393 1.428 . S
C399 N398 1.351 . S
C399 C400 1.434 . S
C400 C391 1.429 . S
C400 N397 1.350 . S
C400 C399 1.434 . S
C401 C402 1.369 . S
C401 C403 1.419 . S
C401 H405 0.930 . S
C402 C401 1.369 . S
C402 C411 1.429 . S
C403 C401 1.419 . S
C403 C404 1.363 . S
C403 H406 0.929 . S
C404 C403 1.363 . S
C404 C410 1.428 . S
H405 C401 0.930 . S
H406 C403 0.929 . S
S407 N408 1.613 . S
S407 N409 1.610 . S
N408 S407 1.613 . S
N408 C411 1.350 . S
N409 S407 1.610 . S
N409 C410 1.351 . S
C410 C404 1.428 . S
C410 N409 1.351 . S
C410 C411 1.434 . S
C411 C402 1.429 . S
C411 N408 1.350 . S
C411 C410 1.434 . S
C412 C413 1.369 . S
C412 C414 1.419 . S
C412 H416 0.930 . S
C413 C412 1.369 . S
C413 C422 1.429 . S
C414 C412 1.419 . S
C414 C415 1.363 . S
C414 H417 0.929 . S
C415 C414 1.363 . S
C415 C421 1.428 . S
H416 C412 0.930 . S
H417 C414 0.929 . S
S418 N419 1.613 . S
S418 N420 1.610 . S
N419 S418 1.613 . S
N419 C422 1.350 . S
N420 S418 1.610 . S
N420 C421 1.351 . S
C421 C415 1.428 . S
C421 N420 1.351 . S
C421 C422 1.434 . S
C422 C413 1.429 . S
C422 N419 1.350 . S
C422 C421 1.434 . S
C423 C424 1.369 . S
C423 C425 1.419 . S
C423 H427 0.930 . S
C424 C423 1.369 . S
C424 C433 1.429 . S
C425 C423 1.419 . S
C425 C426 1.363 . S
C425 H428 0.929 . S
C426 C425 1.363 . S
C426 C432 1.428 . S
H427 C423 0.930 . S
H428 C425 0.929 . S
S429 N430 1.613 . S
S429 N431 1.610 . S
N430 S429 1.613 . S
N430 C433 1.350 . S
N431 S429 1.610 . S
N431 C432 1.351 . S
C432 C426 1.428 . S
C432 N431 1.351 . S
C432 C433 1.434 . S
C433 C424 1.429 . S
C433 N430 1.350 . S
C433 C432 1.434 . S
C434 C435 1.369 . S
C434 C436 1.419 1_554 S
C434 H438 0.930 . S
C435 C434 1.369 . S
C435 C444 1.429 . S
C436 C434 1.419 1_556 S
C436 C437 1.363 1_556 S
C436 H439 0.929 . S
C437 C436 1.363 1_554 S
C437 C443 1.428 . S
H438 C434 0.930 . S
H439 C436 0.929 . S
S440 N441 1.613 . S
S440 N442 1.610 . S
N441 S440 1.613 . S
N441 C444 1.350 . S
N442 S440 1.610 . S
N442 C443 1.351 . S
C443 C437 1.428 . S
C443 N442 1.351 . S
C443 C444 1.434 . S
C444 C435 1.429 . S
C444 N441 1.350 . S
C444 C443 1.434 . S
C445 C446 1.369 . S
C445 C447 1.419 . S
C445 H449 0.930 . S
C446 C445 1.369 . S
C446 C455 1.429 . S
C447 C445 1.419 . S
C447 C448 1.363 . S
C447 H450 0.929 . S
C448 C447 1.363 . S
C448 C454 1.428 . S
H449 C445 0.930 . S
H450 C447 0.929 . S
S451 N452 1.613 . S
S451 N453 1.610 . S
N452 S451 1.613 . S
N452 C455 1.350 . S
N453 S451 1.610 . S
N453 C454 1.351 . S
C454 C448 1.428 . S
C454 N453 1.351 . S
C454 C455 1.434 . S
C455 C446 1.429 . S
C455 N452 1.350 . S
C455 C454 1.434 . S
C195 C185 1.556 . S
C193 C8 1.516 . S
C204 C26 1.467 . S
C206 C119 1.479 . S
C215 C50 1.415 . S
C217 C133 1.435 . S
C226 C68 1.442 . S
C228 C147 1.471 . S
C239 C161 1.484 . S
C237 C80 1.471 . S
C248 C104 1.482 . S
C250 C171 1.523 . S
C259 C32 1.525 . S
C261 C129 1.565 . S
C270 C44 1.561 . S
C272 C143 1.610 . S
C281 C62 1.512 . S
C283 C157 1.558 . S
C294 C175 1.475 . S
C292 C86 1.468 . S
C305 C189 1.509 . S
C303 C98 1.489 . S
C316 C115 1.544 . S
C314 C14 1.499 . S
C325 C7 1.465 . S
C327 C130 1.448 . S
C336 C25 1.523 . S
C338 C144 1.508 . S
C349 C158 1.512 . S
C347 C52 1.520 . S
C358 C70 1.451 . S
C360 C177 1.433 1_556 S
C371 C191 1.405 . S
C369 C79 1.434 . S
C382 C116 1.431 . S
C380 C106 1.459 . S
C393 C186 1.435 . S
C391 C34 1.450 . S
C402 C43 1.381 . S
C404 C121 1.364 . S
C415 C135 1.379 . S
C413 C61 1.390 . S
C424 C88 1.435 . S
C426 C149 1.421 . S
C435 C97 1.439 . S
C437 C163 1.431 1_554 S
C446 C16 1.474 . S
C448 C172 1.455 . S
