# Generated by pormake.
# Topology bwt, (3,3)-cn, num edge types: 1
# Building blocks:
#     Node 0, Type 0, BuildingBlock: OLANEW_clean_sbu_2, # of connection points: 3
#     Node 1, Type 0, BuildingBlock: OLANEW_clean_sbu_2, # of connection points: 3
#     Node 2, Type 0, BuildingBlock: OLANEW_clean_sbu_2, # of connection points: 3
#     Node 3, Type 0, BuildingBlock: OLANEW_clean_sbu_2, # of connection points: 3
#     Node 4, Type 0, BuildingBlock: OLANEW_clean_sbu_2, # of connection points: 3
#     Node 5, Type 0, BuildingBlock: OLANEW_clean_sbu_2, # of connection points: 3
#     Node 6, Type 0, BuildingBlock: OLANEW_clean_sbu_2, # of connection points: 3
#     Node 7, Type 0, BuildingBlock: OLANEW_clean_sbu_2, # of connection points: 3
#     Node 8, Type 0, BuildingBlock: OLANEW_clean_sbu_2, # of connection points: 3
#     Node 9, Type 0, BuildingBlock: OLANEW_clean_sbu_2, # of connection points: 3
#     Node 10, Type 0, BuildingBlock: OLANEW_clean_sbu_2, # of connection points: 3
#     Node 11, Type 0, BuildingBlock: OLANEW_clean_sbu_2, # of connection points: 3
#     Node 12, Type 0, BuildingBlock: OLANEW_clean_sbu_2, # of connection points: 3
#     Node 13, Type 0, BuildingBlock: OLANEW_clean_sbu_2, # of connection points: 3
#     Node 14, Type 0, BuildingBlock: OLANEW_clean_sbu_2, # of connection points: 3
#     Node 15, Type 0, BuildingBlock: OLANEW_clean_sbu_2, # of connection points: 3
#     Node 16, Type 0, BuildingBlock: OLANEW_clean_sbu_2, # of connection points: 3
#     Node 17, Type 0, BuildingBlock: OLANEW_clean_sbu_2, # of connection points: 3
#     Node 18, Type 0, BuildingBlock: OLANEW_clean_sbu_2, # of connection points: 3
#     Node 19, Type 0, BuildingBlock: OLANEW_clean_sbu_2, # of connection points: 3
#     Node 20, Type 0, BuildingBlock: OLANEW_clean_sbu_2, # of connection points: 3
#     Node 21, Type 0, BuildingBlock: OLANEW_clean_sbu_2, # of connection points: 3
#     Node 22, Type 0, BuildingBlock: OLANEW_clean_sbu_2, # of connection points: 3
#     Node 23, Type 0, BuildingBlock: OLANEW_clean_sbu_2, # of connection points: 3
#     Node 24, Type 1, BuildingBlock: KAKCAD_clean_linker_0, # of connection points: 3
#     Node 25, Type 1, BuildingBlock: KAKCAD_clean_linker_0, # of connection points: 3
#     Node 26, Type 1, BuildingBlock: KAKCAD_clean_linker_0, # of connection points: 3
#     Node 27, Type 1, BuildingBlock: KAKCAD_clean_linker_0, # of connection points: 3
#     Node 28, Type 1, BuildingBlock: KAKCAD_clean_linker_0, # of connection points: 3
#     Node 29, Type 1, BuildingBlock: KAKCAD_clean_linker_0, # of connection points: 3
#     Node 30, Type 1, BuildingBlock: KAKCAD_clean_linker_0, # of connection points: 3
#     Node 31, Type 1, BuildingBlock: KAKCAD_clean_linker_0, # of connection points: 3
#     Node 32, Type 1, BuildingBlock: KAKCAD_clean_linker_0, # of connection points: 3
#     Node 33, Type 1, BuildingBlock: KAKCAD_clean_linker_0, # of connection points: 3
#     Node 34, Type 1, BuildingBlock: KAKCAD_clean_linker_0, # of connection points: 3
#     Node 35, Type 1, BuildingBlock: KAKCAD_clean_linker_0, # of connection points: 3
#     Node 36, Type 1, BuildingBlock: KAKCAD_clean_linker_0, # of connection points: 3
#     Node 37, Type 1, BuildingBlock: KAKCAD_clean_linker_0, # of connection points: 3
#     Node 38, Type 1, BuildingBlock: KAKCAD_clean_linker_0, # of connection points: 3
#     Node 39, Type 1, BuildingBlock: KAKCAD_clean_linker_0, # of connection points: 3
#     Node 40, Type 1, BuildingBlock: KAKCAD_clean_linker_0, # of connection points: 3
#     Node 41, Type 1, BuildingBlock: KAKCAD_clean_linker_0, # of connection points: 3
#     Node 42, Type 1, BuildingBlock: KAKCAD_clean_linker_0, # of connection points: 3
#     Node 43, Type 1, BuildingBlock: KAKCAD_clean_linker_0, # of connection points: 3
#     Node 44, Type 1, BuildingBlock: KAKCAD_clean_linker_0, # of connection points: 3
#     Node 45, Type 1, BuildingBlock: KAKCAD_clean_linker_0, # of connection points: 3
#     Node 46, Type 1, BuildingBlock: KAKCAD_clean_linker_0, # of connection points: 3
#     Node 47, Type 1, BuildingBlock: KAKCAD_clean_linker_0, # of connection points: 3
#     Edge 48, Type (0, 1), BuildingBlock: KIFKEQ_clean_linker_1, # of connection points: 2
#     Edge 49, Type (0, 1), BuildingBlock: KIFKEQ_clean_linker_1, # of connection points: 2
#     Edge 50, Type (0, 1), BuildingBlock: KIFKEQ_clean_linker_1, # of connection points: 2
#     Edge 51, Type (0, 1), BuildingBlock: KIFKEQ_clean_linker_1, # of connection points: 2
#     Edge 52, Type (0, 1), BuildingBlock: KIFKEQ_clean_linker_1, # of connection points: 2
#     Edge 53, Type (0, 1), BuildingBlock: KIFKEQ_clean_linker_1, # of connection points: 2
#     Edge 54, Type (0, 1), BuildingBlock: KIFKEQ_clean_linker_1, # of connection points: 2
#     Edge 55, Type (0, 1), BuildingBlock: KIFKEQ_clean_linker_1, # of connection points: 2
#     Edge 56, Type (0, 1), BuildingBlock: KIFKEQ_clean_linker_1, # of connection points: 2
#     Edge 57, Type (0, 1), BuildingBlock: KIFKEQ_clean_linker_1, # of connection points: 2
#     Edge 58, Type (0, 1), BuildingBlock: KIFKEQ_clean_linker_1, # of connection points: 2
#     Edge 59, Type (0, 1), BuildingBlock: KIFKEQ_clean_linker_1, # of connection points: 2
#     Edge 60, Type (0, 1), BuildingBlock: KIFKEQ_clean_linker_1, # of connection points: 2
#     Edge 61, Type (0, 1), BuildingBlock: KIFKEQ_clean_linker_1, # of connection points: 2
#     Edge 62, Type (0, 1), BuildingBlock: KIFKEQ_clean_linker_1, # of connection points: 2
#     Edge 63, Type (0, 1), BuildingBlock: KIFKEQ_clean_linker_1, # of connection points: 2
#     Edge 64, Type (0, 1), BuildingBlock: KIFKEQ_clean_linker_1, # of connection points: 2
#     Edge 65, Type (0, 1), BuildingBlock: KIFKEQ_clean_linker_1, # of connection points: 2
#     Edge 66, Type (0, 1), BuildingBlock: KIFKEQ_clean_linker_1, # of connection points: 2
#     Edge 67, Type (0, 1), BuildingBlock: KIFKEQ_clean_linker_1, # of connection points: 2
#     Edge 68, Type (0, 1), BuildingBlock: KIFKEQ_clean_linker_1, # of connection points: 2
#     Edge 69, Type (0, 1), BuildingBlock: KIFKEQ_clean_linker_1, # of connection points: 2
#     Edge 70, Type (0, 1), BuildingBlock: KIFKEQ_clean_linker_1, # of connection points: 2
#     Edge 71, Type (0, 1), BuildingBlock: KIFKEQ_clean_linker_1, # of connection points: 2
#     Edge 72, Type (0, 1), BuildingBlock: KIFKEQ_clean_linker_1, # of connection points: 2
#     Edge 73, Type (0, 1), BuildingBlock: KIFKEQ_clean_linker_1, # of connection points: 2
#     Edge 74, Type (0, 1), BuildingBlock: KIFKEQ_clean_linker_1, # of connection points: 2
#     Edge 75, Type (0, 1), BuildingBlock: KIFKEQ_clean_linker_1, # of connection points: 2
#     Edge 76, Type (0, 1), BuildingBlock: KIFKEQ_clean_linker_1, # of connection points: 2
#     Edge 77, Type (0, 1), BuildingBlock: KIFKEQ_clean_linker_1, # of connection points: 2
#     Edge 78, Type (0, 1), BuildingBlock: KIFKEQ_clean_linker_1, # of connection points: 2
#     Edge 79, Type (0, 1), BuildingBlock: KIFKEQ_clean_linker_1, # of connection points: 2
#     Edge 80, Type (0, 1), BuildingBlock: KIFKEQ_clean_linker_1, # of connection points: 2
#     Edge 81, Type (0, 1), BuildingBlock: KIFKEQ_clean_linker_1, # of connection points: 2
#     Edge 82, Type (0, 1), BuildingBlock: KIFKEQ_clean_linker_1, # of connection points: 2
#     Edge 83, Type (0, 1), BuildingBlock: KIFKEQ_clean_linker_1, # of connection points: 2
#     Edge 84, Type (0, 1), BuildingBlock: KIFKEQ_clean_linker_1, # of connection points: 2
#     Edge 85, Type (0, 1), BuildingBlock: KIFKEQ_clean_linker_1, # of connection points: 2
#     Edge 86, Type (0, 1), BuildingBlock: KIFKEQ_clean_linker_1, # of connection points: 2
#     Edge 87, Type (0, 1), BuildingBlock: KIFKEQ_clean_linker_1, # of connection points: 2
#     Edge 88, Type (0, 1), BuildingBlock: KIFKEQ_clean_linker_1, # of connection points: 2
#     Edge 89, Type (0, 1), BuildingBlock: KIFKEQ_clean_linker_1, # of connection points: 2
#     Edge 90, Type (0, 1), BuildingBlock: KIFKEQ_clean_linker_1, # of connection points: 2
#     Edge 91, Type (0, 1), BuildingBlock: KIFKEQ_clean_linker_1, # of connection points: 2
#     Edge 92, Type (0, 1), BuildingBlock: KIFKEQ_clean_linker_1, # of connection points: 2
#     Edge 93, Type (0, 1), BuildingBlock: KIFKEQ_clean_linker_1, # of connection points: 2
#     Edge 94, Type (0, 1), BuildingBlock: KIFKEQ_clean_linker_1, # of connection points: 2
#     Edge 95, Type (0, 1), BuildingBlock: KIFKEQ_clean_linker_1, # of connection points: 2
#     Edge 96, Type (0, 1), BuildingBlock: KIFKEQ_clean_linker_1, # of connection points: 2
#     Edge 97, Type (0, 1), BuildingBlock: KIFKEQ_clean_linker_1, # of connection points: 2
#     Edge 98, Type (0, 1), BuildingBlock: KIFKEQ_clean_linker_1, # of connection points: 2
#     Edge 99, Type (0, 1), BuildingBlock: KIFKEQ_clean_linker_1, # of connection points: 2
#     Edge 100, Type (0, 1), BuildingBlock: KIFKEQ_clean_linker_1, # of connection points: 2
#     Edge 101, Type (0, 1), BuildingBlock: KIFKEQ_clean_linker_1, # of connection points: 2
#     Edge 102, Type (0, 1), BuildingBlock: KIFKEQ_clean_linker_1, # of connection points: 2
#     Edge 103, Type (0, 1), BuildingBlock: KIFKEQ_clean_linker_1, # of connection points: 2
#     Edge 104, Type (0, 1), BuildingBlock: KIFKEQ_clean_linker_1, # of connection points: 2
#     Edge 105, Type (0, 1), BuildingBlock: KIFKEQ_clean_linker_1, # of connection points: 2
#     Edge 106, Type (0, 1), BuildingBlock: KIFKEQ_clean_linker_1, # of connection points: 2
#     Edge 107, Type (0, 1), BuildingBlock: KIFKEQ_clean_linker_1, # of connection points: 2
#     Edge 108, Type (0, 1), BuildingBlock: KIFKEQ_clean_linker_1, # of connection points: 2
#     Edge 109, Type (0, 1), BuildingBlock: KIFKEQ_clean_linker_1, # of connection points: 2
#     Edge 110, Type (0, 1), BuildingBlock: KIFKEQ_clean_linker_1, # of connection points: 2
#     Edge 111, Type (0, 1), BuildingBlock: KIFKEQ_clean_linker_1, # of connection points: 2
#     Edge 112, Type (0, 1), BuildingBlock: KIFKEQ_clean_linker_1, # of connection points: 2
#     Edge 113, Type (0, 1), BuildingBlock: KIFKEQ_clean_linker_1, # of connection points: 2
#     Edge 114, Type (0, 1), BuildingBlock: KIFKEQ_clean_linker_1, # of connection points: 2
#     Edge 115, Type (0, 1), BuildingBlock: KIFKEQ_clean_linker_1, # of connection points: 2
#     Edge 116, Type (0, 1), BuildingBlock: KIFKEQ_clean_linker_1, # of connection points: 2
#     Edge 117, Type (0, 1), BuildingBlock: KIFKEQ_clean_linker_1, # of connection points: 2
#     Edge 118, Type (0, 1), BuildingBlock: KIFKEQ_clean_linker_1, # of connection points: 2
#     Edge 119, Type (0, 1), BuildingBlock: KIFKEQ_clean_linker_1, # of connection points: 2
# Relax obj value: 0.148
# Max RMSD: 0.145
# Mean RMSD: 0.091
data_MOF--net-bwt--node1-OLANEW_clean_sbu_2--node2-KAKCAD_clean_linker_0--edge1-KIFKEQ_clean_linker_1
_symmetry_space_group_name_H-M    P1
_symmetry_Int_Tables_number       1
_symmetry_cell_setting            triclinic
loop_
_symmetry_equiv_pos_as_xyz
'x, y, z'
_cell_length_a     72.605584
_cell_length_b     72.604834
_cell_length_c     72.59779
_cell_angle_alpha  93.437603
_cell_angle_beta   93.435077
_cell_angle_gamma 93.44982
loop_
_atom_site_label
_atom_site_type_symbol
_atom_site_fract_x
_atom_site_fract_y
_atom_site_fract_z
_atom_type_partial_charge
O0 O 0.27174 0.60742 0.30595 0.0
Cd1 Cd 0.26301 0.62163 0.2773 0.0
O2 O 0.30106 0.60728 0.30009 0.0
Cd3 Cd 0.32944 0.59958 0.30584 0.0
O4 O 0.35637 0.58954 0.31379 0.0
C5 C 0.35719 0.57688 0.32512 0.0
O6 O 0.34184 0.5703 0.3317 0.0
C7 C 0.28816 0.60368 0.31069 0.0
C8 C 0.2262 0.611 0.26654 0.0
O9 O 0.23938 0.60206 0.26017 0.0
O10 O 0.23045 0.62515 0.27772 0.0
O11 O 0.22179 0.38998 0.70312 0.0
Cd12 Cd 0.21543 0.37963 0.67053 0.0
O13 O 0.20554 0.3667 0.71346 0.0
Cd14 Cd 0.19211 0.35865 0.68625 0.0
O15 O 0.16599 0.36068 0.67029 0.0
C16 C 0.16339 0.3749 0.66132 0.0
O17 O 0.17725 0.38722 0.6603 0.0
C18 C 0.21638 0.3811 0.71659 0.0
C19 C 0.24781 0.38544 0.65238 0.0
O20 O 0.2359 0.39775 0.65314 0.0
O21 O 0.24414 0.37015 0.65975 0.0
O22 O 0.77764 0.99719 0.65181 0.0
Cd23 Cd 0.78486 0.99813 0.68514 0.0
O24 O 0.77389 0.96687 0.64887 0.0
Cd25 Cd 0.79076 0.96506 0.67459 0.0
O26 O 0.81885 0.96702 0.68757 0.0
C27 C 0.82378 0.97629 0.70265 0.0
O28 O 0.81126 0.98453 0.71191 0.0
C29 C 0.77241 0.98248 0.64204 0.0
C30 C 0.75342 0.00957 0.70174 0.0
O31 O 0.76617 0.02128 0.69752 0.0
O32 O 0.75584 0.99234 0.69872 0.0
O33 O 0.75776 0.02334 0.31111 0.0
Cd34 Cd 0.76942 0.02209 0.34326 0.0
O35 O 0.72935 0.01934 0.31947 0.0
Cd36 Cd 0.69959 0.01321 0.31398 0.0
O37 O 0.67033 0.00538 0.30745 0.0
C38 C 0.66561 0.99342 0.29425 0.0
O39 O 0.67852 0.98616 0.28474 0.0
C40 C 0.7405 0.02142 0.30678 0.0
C41 C 0.8028 0.00498 0.34499 0.0
O42 O 0.78728 0.99547 0.34391 0.0
O43 O 0.80257 0.02264 0.34547 0.0
O44 O 0.31555 0.29797 0.60871 0.0
Cd45 Cd 0.28194 0.29352 0.60836 0.0
O46 O 0.31883 0.3209 0.63005 0.0
Cd47 Cd 0.2895 0.32572 0.62692 0.0
O48 O 0.28064 0.34824 0.61061 0.0
C49 C 0.29104 0.35113 0.59746 0.0
O50 O 0.30399 0.33965 0.59435 0.0
C51 C 0.32598 0.30929 0.61925 0.0
C52 C 0.27212 0.2573 0.59485 0.0
O53 O 0.27415 0.27037 0.58389 0.0
O54 O 0.27419 0.26143 0.61229 0.0
O55 O 0.30986 0.76149 0.03795 0.0
Cd56 Cd 0.34265 0.76912 0.03453 0.0
O57 O 0.31305 0.73268 0.02852 0.0
Cd58 Cd 0.30294 0.70456 0.01872 0.0
O59 O 0.29508 0.67628 0.0079 0.0
C60 C 0.28068 0.67261 0.99717 0.0
O61 O 0.2703 0.6861 0.99276 0.0
C62 C 0.30274 0.74523 0.0339 0.0
C63 C 0.34663 0.80246 0.01761 0.0
O64 O 0.34359 0.78706 0.00801 0.0
O65 O 0.34814 0.80208 0.03526 0.0
O66 O 0.70294 0.24356 0.39375 0.0
Cd67 Cd 0.6723 0.23572 0.3784 0.0
O68 O 0.71716 0.24022 0.368 0.0
Cd69 Cd 0.69411 0.22196 0.35574 0.0
O70 O 0.68386 0.19295 0.35479 0.0
C71 C 0.67786 0.18677 0.36947 0.0
O72 O 0.67666 0.19833 0.38391 0.0
C73 C 0.71753 0.24554 0.38503 0.0
C74 C 0.6531 0.26783 0.38013 0.0
O75 O 0.65239 0.25641 0.39289 0.0
O76 O 0.66236 0.26373 0.36613 0.0
O77 O 0.69754 0.72753 0.94598 0.0
Cd78 Cd 0.73073 0.72533 0.94343 0.0
O79 O 0.70128 0.75754 0.95182 0.0
Cd80 Cd 0.69296 0.78489 0.96106 0.0
O81 O 0.68875 0.81275 0.97245 0.0
C82 C 0.67988 0.81497 0.9869 0.0
O83 O 0.67295 0.80032 0.9945 0.0
C84 C 0.69068 0.74285 0.94999 0.0
C85 C 0.7426 0.69932 0.96749 0.0
O86 O 0.74179 0.71633 0.97303 0.0
O87 O 0.73827 0.69467 0.9504 0.0
O88 O 0.63116 0.31055 0.27743 0.0
Cd89 Cd 0.64549 0.28451 0.26243 0.0
O90 O 0.62669 0.29526 0.30215 0.0
Cd91 Cd 0.61478 0.29305 0.3289 0.0
O92 O 0.60188 0.29622 0.35514 0.0
C93 C 0.59 0.30821 0.35718 0.0
O94 O 0.58528 0.31793 0.34316 0.0
C95 C 0.62529 0.30989 0.29352 0.0
C96 C 0.62939 0.27665 0.2268 0.0
O97 O 0.6234 0.26828 0.24052 0.0
O98 O 0.64315 0.28856 0.22991 0.0
O99 O 0.00803 0.27322 0.74076 0.0
Cd100 Cd 0.99625 0.30398 0.74018 0.0
O101 O 0.02556 0.27551 0.71722 0.0
Cd102 Cd 0.01505 0.3015 0.70888 0.0
O103 O 0.00228 0.31458 0.68543 0.0
C104 C 0.98613 0.30833 0.67957 0.0
O105 O 0.97758 0.29575 0.68884 0.0
C106 C 0.01963 0.26639 0.73031 0.0
C107 C 0.98119 0.31151 0.77406 0.0
O108 O 0.97144 0.30313 0.76042 0.0
O109 O 0.99794 0.31685 0.77151 0.0
O110 O 0.39637 0.70367 0.22714 0.0
Cd111 Cd 0.39174 0.6707 0.21765 0.0
O112 O 0.37618 0.71259 0.20626 0.0
Cd113 Cd 0.37313 0.68597 0.19048 0.0
O114 O 0.37843 0.67656 0.16231 0.0
C115 C 0.39456 0.67218 0.15866 0.0
O116 O 0.40713 0.67145 0.17234 0.0
C117 C 0.38758 0.71644 0.22012 0.0
C118 C 0.40105 0.65032 0.24786 0.0
O119 O 0.41329 0.65598 0.23714 0.0
O120 O 0.38422 0.6539 0.24406 0.0
O121 O 0.97727 0.66904 0.75343 0.0
Cd122 Cd 0.9828 0.70158 0.76393 0.0
O123 O 0.96395 0.65961 0.77793 0.0
Cd124 Cd 0.9697 0.68575 0.79429 0.0
O125 O 0.98191 0.69849 0.82056 0.0
C126 C 0.99785 0.69341 0.82536 0.0
O127 O 0.00592 0.68228 0.81387 0.0
C128 C 0.96933 0.65622 0.7618 0.0
C129 C 0.00013 0.71907 0.73585 0.0
O130 O 0.00955 0.71212 0.74891 0.0
O131 O 0.98249 0.71832 0.73641 0.0
O132 O 0.72114 0.35966 0.66143 0.0
Cd133 Cd 0.73282 0.34809 0.69047 0.0
O134 O 0.69664 0.36866 0.67486 0.0
Cd135 Cd 0.67149 0.38368 0.67429 0.0
O136 O 0.64602 0.39669 0.66717 0.0
C137 C 0.63741 0.40529 0.67936 0.0
O138 O 0.6444 0.40689 0.69654 0.0
C139 C 0.70593 0.36741 0.66059 0.0
C140 C 0.77042 0.35825 0.69519 0.0
O141 O 0.76473 0.34214 0.68818 0.0
O142 O 0.75835 0.36929 0.70043 0.0
O143 O 0.76311 0.64085 0.32151 0.0
Cd144 Cd 0.75829 0.65314 0.35281 0.0
O145 O 0.79064 0.63194 0.32951 0.0
Cd146 Cd 0.8169 0.62024 0.32364 0.0
O147 O 0.84109 0.60691 0.31423 0.0
C148 C 0.84653 0.60962 0.29823 0.0
O149 O 0.83747 0.62056 0.28768 0.0
C150 C 0.77753 0.63291 0.31724 0.0
C151 C 0.72676 0.6346 0.36449 0.0
O152 O 0.72564 0.64932 0.3557 0.0
O153 O 0.74287 0.62896 0.36824 0.0
O154 O 0.24616 0.0725 0.28075 0.0
Cd155 Cd 0.25348 0.07118 0.24835 0.0
O156 O 0.23056 0.04583 0.27449 0.0
Cd157 Cd 0.21192 0.02324 0.28225 0.0
O158 O 0.18839 0.0057 0.28959 0.0
C159 C 0.18042 0.0098 0.30426 0.0
O160 O 0.18698 0.02422 0.31499 0.0
C161 C 0.23663 0.05885 0.28618 0.0
C162 C 0.28508 0.05161 0.24495 0.0
O163 O 0.28621 0.06933 0.24655 0.0
O164 O 0.269 0.04323 0.24452 0.0
O165 O 0.27135 0.96662 0.70225 0.0
Cd166 Cd 0.25579 0.9592 0.67171 0.0
O167 O 0.29759 0.97697 0.69184 0.0
Cd168 Cd 0.32543 0.99057 0.696 0.0
O169 O 0.35289 0.00445 0.70201 0.0
C170 C 0.36554 0.9961 0.71028 0.0
O171 O 0.3618 0.97916 0.71501 0.0
C172 C 0.28785 0.97346 0.70534 0.0
C173 C 0.2192 0.96873 0.67264 0.0
O174 O 0.22386 0.95279 0.67719 0.0
O175 O 0.23177 0.97998 0.66728 0.0
O176 O 0.66474 0.73308 0.35783 0.0
Cd177 Cd 0.68949 0.74536 0.33982 0.0
O178 O 0.6814 0.71066 0.36689 0.0
Cd179 Cd 0.68422 0.68459 0.38005 0.0
O180 O 0.67789 0.65979 0.39452 0.0
C181 C 0.68992 0.65244 0.40464 0.0
O182 O 0.70697 0.65979 0.40629 0.0
C183 C 0.66642 0.7189 0.36707 0.0
C184 C 0.69464 0.78352 0.34678 0.0
O185 O 0.68279 0.77647 0.33413 0.0
O186 O 0.70423 0.77252 0.35596 0.0
O187 O 0.68334 0.25336 0.99259 0.0
Cd188 Cd 0.6536 0.24261 0.00346 0.0
O189 O 0.6837 0.27741 0.01233 0.0
Cd190 Cd 0.6952 0.30249 0.02831 0.0
O191 O 0.70624 0.3299 0.03924 0.0
C192 C 0.69808 0.33882 0.05159 0.0
O193 O 0.68311 0.33115 0.058 0.0
C194 C 0.69154 0.26824 0.99984 0.0
C195 C 0.65526 0.20693 0.01548 0.0
O196 O 0.64904 0.20958 0.99902 0.0
O197 O 0.66053 0.22114 0.02626 0.0
O198 O 0.31673 0.78142 0.62308 0.0
Cd199 Cd 0.34867 0.77667 0.63333 0.0
O200 O 0.32279 0.80928 0.61392 0.0
Cd201 Cd 0.31564 0.83557 0.60295 0.0
O202 O 0.30766 0.86071 0.59036 0.0
C203 C 0.29326 0.8685 0.59496 0.0
O204 O 0.28321 0.86124 0.60747 0.0
C205 C 0.31123 0.79571 0.61568 0.0
C206 C 0.35546 0.74045 0.622 0.0
O207 O 0.34927 0.74426 0.63785 0.0
O208 O 0.35904 0.75387 0.6118 0.0
O209 O 0.29101 0.26545 0.07316 0.0
Cd210 Cd 0.25926 0.27276 0.07826 0.0
O211 O 0.282 0.23998 0.05647 0.0
Cd212 Cd 0.28612 0.21385 0.0411 0.0
O213 O 0.29123 0.18802 0.02589 0.0
C214 C 0.30663 0.1808 0.02836 0.0
O215 O 0.31936 0.18914 0.04012 0.0
C216 C 0.295 0.25126 0.06345 0.0
C217 C 0.25098 0.3038 0.05935 0.0
O218 O 0.25859 0.30544 0.0758 0.0
O219 O 0.24696 0.28746 0.05197 0.0
O220 O 0.37218 0.67559 0.72322 0.0
Cd221 Cd 0.3571 0.702 0.73651 0.0
O222 O 0.37186 0.68656 0.69565 0.0
Cd223 Cd 0.38011 0.68565 0.66709 0.0
O224 O 0.39322 0.68196 0.6409 0.0
C225 C 0.39111 0.66646 0.63167 0.0
O226 O 0.38038 0.65321 0.63769 0.0
C227 C 0.37594 0.67396 0.70636 0.0
C228 C 0.37065 0.70966 0.77307 0.0
O229 O 0.35689 0.69795 0.76898 0.0
O230 O 0.3778 0.718 0.75989 0.0
O231 O 0.97971 0.68735 0.26538 0.0
Cd232 Cd 0.97932 0.65696 0.24892 0.0
O233 O 0.99466 0.67835 0.29011 0.0
Cd234 Cd 0.00642 0.68259 0.31865 0.0
O235 O 0.01825 0.69099 0.34648 0.0
C236 C 0.01148 0.70407 0.35576 0.0
O237 O 0.99733 0.71213 0.34841 0.0
C238 C 0.9872 0.69106 0.28155 0.0
C239 C 0.993 0.66039 0.2141 0.0
O240 O 0.97587 0.66219 0.21665 0.0
O241 O 0.00362 0.65672 0.22797 0.0
O242 O 0.65143 0.29825 0.77274 0.0
Cd243 Cd 0.66921 0.32727 0.76887 0.0
O244 O 0.64689 0.30594 0.80174 0.0
Cd245 Cd 0.63376 0.30133 0.82753 0.0
O246 O 0.61915 0.29626 0.8523 0.0
C247 C 0.60604 0.28379 0.85187 0.0
O248 O 0.60148 0.27393 0.83631 0.0
C249 C 0.64449 0.2944 0.7878 0.0
C250 C 0.65574 0.34181 0.73644 0.0
O251 O 0.66858 0.33045 0.73622 0.0
O252 O 0.64962 0.34667 0.75209 0.0
O253 O 0.04987 0.29515 0.25511 0.0
Cd254 Cd 0.0535 0.26372 0.26436 0.0
O255 O 0.03617 0.28663 0.22791 0.0
Cd256 Cd 0.02368 0.29099 0.20041 0.0
O257 O 0.00935 0.29515 0.1738 0.0
C258 C 0.01491 0.30788 0.16378 0.0
O259 O 0.02956 0.31863 0.16961 0.0
C260 C 0.04213 0.29943 0.23992 0.0
C261 C 0.03878 0.26066 0.29873 0.0
O262 O 0.05556 0.26674 0.29747 0.0
O263 O 0.02909 0.25558 0.28375 0.0
C264 C 0.29728 0.54489 0.44581 0.0
C265 C 0.31026 0.55605 0.43715 0.0
C266 C 0.29991 0.54181 0.4646 0.0
C267 C 0.3155 0.54992 0.47512 0.0
C268 C 0.32872 0.56062 0.46632 0.0
C269 C 0.32614 0.56364 0.44757 0.0
C270 C 0.31768 0.548 0.49537 0.0
C271 C 0.31428 0.53085 0.50287 0.0
C272 C 0.3165 0.52911 0.52207 0.0
C273 C 0.32242 0.54483 0.53372 0.0
C274 C 0.32581 0.56217 0.52646 0.0
C275 C 0.32315 0.56356 0.50727 0.0
C276 C 0.33188 0.57893 0.53874 0.0
C277 C 0.32533 0.58153 0.55651 0.0
C278 C 0.34388 0.59283 0.53251 0.0
C279 C 0.34851 0.60919 0.5433 0.0
C280 C 0.3417 0.61199 0.56093 0.0
C281 C 0.31274 0.51088 0.52993 0.0
C282 C 0.2977 0.49892 0.52279 0.0
C283 C 0.32413 0.50528 0.54464 0.0
C284 C 0.32062 0.48815 0.55197 0.0
C285 C 0.30572 0.47609 0.54469 0.0
C286 C 0.29427 0.48173 0.53003 0.0
C287 C 0.33034 0.59773 0.56752 0.0
H288 H 0.28499 0.5387 0.4381 0.0
H289 H 0.28945 0.53356 0.47102 0.0
H290 H 0.341 0.56686 0.47402 0.0
H291 H 0.33632 0.57244 0.44138 0.0
H292 H 0.31032 0.51876 0.49369 0.0
H293 H 0.32492 0.57692 0.50149 0.0
H294 H 0.32433 0.54356 0.54848 0.0
H295 H 0.31596 0.57127 0.56181 0.0
H296 H 0.34963 0.59123 0.51913 0.0
H297 H 0.35706 0.6198 0.53749 0.0
H298 H 0.28848 0.50288 0.51163 0.0
H299 H 0.33596 0.51401 0.55037 0.0
H300 H 0.32511 0.59909 0.58116 0.0
H301 H 0.28279 0.47273 0.52392 0.0
H302 H 0.3296 0.48441 0.56342 0.0
C303 C 0.24853 0.45132 0.8534 0.0
C304 C 0.23677 0.43567 0.8477 0.0
C305 C 0.24931 0.45862 0.87175 0.0
C306 C 0.23825 0.45048 0.88471 0.0
C307 C 0.22619 0.43509 0.87881 0.0
C308 C 0.22551 0.42774 0.86056 0.0
C309 C 0.23955 0.45757 0.90444 0.0
C310 C 0.24131 0.47665 0.90936 0.0
C311 C 0.24236 0.48322 0.92805 0.0
C312 C 0.24149 0.47045 0.94184 0.0
C313 C 0.23982 0.45134 0.9372 0.0
C314 C 0.23904 0.44508 0.91848 0.0
C315 C 0.23916 0.43781 0.9518 0.0
C316 C 0.25048 0.44076 0.96825 0.0
C317 C 0.22753 0.42155 0.94915 0.0
C318 C 0.22759 0.40833 0.96234 0.0
C319 C 0.23914 0.4111 0.97865 0.0
C320 C 0.24473 0.50338 0.93327 0.0
C321 C 0.25722 0.51483 0.92436 0.0
C322 C 0.23503 0.51121 0.94767 0.0
C323 C 0.23809 0.52993 0.95334 0.0
C324 C 0.25092 0.54129 0.94473 0.0
C325 C 0.26029 0.53356 0.93003 0.0
C326 C 0.25041 0.4276 0.98154 0.0
H327 H 0.25744 0.45766 0.84379 0.0
H328 H 0.25889 0.47036 0.87586 0.0
H329 H 0.21717 0.42872 0.8883 0.0
H330 H 0.21604 0.41591 0.85648 0.0
H331 H 0.24146 0.48641 0.89864 0.0
H332 H 0.23848 0.43036 0.91481 0.0
H333 H 0.24224 0.47542 0.95626 0.0
H334 H 0.25973 0.45304 0.97071 0.0
H335 H 0.21841 0.41895 0.93678 0.0
H336 H 0.21888 0.39572 0.9595 0.0
H337 H 0.26501 0.50921 0.9133 0.0
H338 H 0.22513 0.50283 0.95466 0.0
H339 H 0.25928 0.43034 0.99405 0.0
H340 H 0.27009 0.54198 0.92295 0.0
H341 H 0.23075 0.53539 0.9648 0.0
C342 C 0.71094 0.99612 0.50306 0.0
C343 C 0.72778 0.98886 0.50852 0.0
C344 C 0.70531 0.99631 0.48431 0.0
C345 C 0.71628 0.98894 0.47074 0.0
C346 C 0.73312 0.98171 0.47621 0.0
C347 C 0.73888 0.98178 0.49492 0.0
C348 C 0.71004 0.98837 0.4509 0.0
C349 C 0.70411 0.00427 0.44288 0.0
C350 C 0.69847 0.0038 0.42396 0.0
C351 C 0.69866 0.98705 0.41317 0.0
C352 C 0.70452 0.97099 0.42104 0.0
C353 C 0.71018 0.97184 0.43993 0.0
C354 C 0.70457 0.95322 0.40975 0.0
C355 C 0.68987 0.94754 0.39678 0.0
C356 C 0.71904 0.94143 0.41243 0.0
C357 C 0.71849 0.92412 0.4029 0.0
C358 C 0.70355 0.91819 0.39031 0.0
C359 C 0.69293 0.02094 0.41544 0.0
C360 C 0.6825 0.0336 0.42507 0.0
C361 C 0.69852 0.02508 0.39785 0.0
C362 C 0.69415 0.04165 0.39029 0.0
C363 C 0.68417 0.05455 0.40015 0.0
C364 C 0.67822 0.05021 0.41756 0.0
C365 C 0.68938 0.93024 0.38714 0.0
H366 H 0.7022 0.00175 0.51329 0.0
H367 H 0.69222 0.00187 0.48042 0.0
H368 H 0.74187 0.97604 0.466 0.0
H369 H 0.75186 0.976 0.49877 0.0
H370 H 0.70448 0.01714 0.4513 0.0
H371 H 0.71431 0.95947 0.44629 0.0
H372 H 0.6943 0.98652 0.3986 0.0
H373 H 0.67845 0.95623 0.39445 0.0
H374 H 0.73072 0.9455 0.4221 0.0
H375 H 0.72955 0.91517 0.40586 0.0
H376 H 0.67773 0.03074 0.43853 0.0
H377 H 0.70671 0.01575 0.3901 0.0
H378 H 0.67779 0.92623 0.37735 0.0
H379 H 0.67069 0.05987 0.42566 0.0
H380 H 0.69875 0.04441 0.37675 0.0
C381 C 0.7079 0.00427 0.15895 0.0
C382 C 0.69752 0.0141 0.17152 0.0
C383 C 0.70305 0.00344 0.14 0.0
C384 C 0.68778 0.0125 0.13312 0.0
C385 C 0.67739 0.02237 0.14562 0.0
C386 C 0.68217 0.02311 0.16462 0.0
C387 C 0.68294 0.01184 0.11292 0.0
C388 C 0.68304 0.99513 0.10215 0.0
C389 C 0.67927 0.99445 0.08289 0.0
C390 C 0.67542 0.01083 0.07442 0.0
C391 C 0.67511 0.02762 0.08503 0.0
C392 C 0.67874 0.02799 0.10427 0.0
C393 C 0.67167 0.04499 0.07604 0.0
C394 C 0.68174 0.05007 0.06101 0.0
C395 C 0.65883 0.05695 0.08292 0.0
C396 C 0.65626 0.07378 0.07504 0.0
C397 C 0.66669 0.07909 0.06034 0.0
C398 C 0.67933 0.97658 0.07175 0.0
C399 C 0.69292 0.9641 0.07558 0.0
C400 C 0.66558 0.97165 0.05755 0.0
C401 C 0.66522 0.95447 0.04767 0.0
C402 C 0.67859 0.94185 0.05179 0.0
C403 C 0.69254 0.94695 0.06574 0.0
C404 C 0.67938 0.06703 0.05332 0.0
H405 H 0.72002 0.99748 0.1637 0.0
H406 H 0.7115 0.99598 0.13067 0.0
H407 H 0.66543 0.02933 0.14073 0.0
H408 H 0.6737 0.03058 0.17391 0.0
H409 H 0.68574 0.98255 0.10887 0.0
H410 H 0.679 0.04102 0.11243 0.0
H411 H 0.67276 0.01055 0.05955 0.0
H412 H 0.69182 0.04114 0.05554 0.0
H413 H 0.65084 0.0533 0.09445 0.0
H414 H 0.64648 0.08288 0.08079 0.0
H415 H 0.70392 0.96762 0.08619 0.0
H416 H 0.65479 0.98086 0.05439 0.0
H417 H 0.68752 0.07077 0.04193 0.0
H418 H 0.70326 0.93769 0.06901 0.0
H419 H 0.65419 0.95088 0.03713 0.0
C420 C 0.46258 0.32487 0.56751 0.0
C421 C 0.45514 0.33594 0.58142 0.0
C422 C 0.48004 0.32955 0.5614 0.0
C423 C 0.49046 0.34539 0.56908 0.0
C424 C 0.48287 0.35668 0.58271 0.0
C425 C 0.46541 0.35201 0.58881 0.0
C426 C 0.50964 0.34945 0.56376 0.0
C427 C 0.51412 0.34723 0.54522 0.0
C428 C 0.53257 0.34952 0.54039 0.0
C429 C 0.54655 0.35432 0.55444 0.0
C430 C 0.54224 0.35688 0.57298 0.0
C431 C 0.52377 0.35447 0.57748 0.0
C432 C 0.55702 0.36065 0.58796 0.0
C433 C 0.57269 0.35022 0.5884 0.0
C434 C 0.55482 0.37361 0.60272 0.0
C435 C 0.56755 0.37544 0.61801 0.0
C436 C 0.58273 0.36431 0.6189 0.0
C437 C 0.53736 0.34618 0.52084 0.0
C438 C 0.52791 0.33192 0.50933 0.0
C439 C 0.55175 0.35686 0.51364 0.0
C440 C 0.55679 0.35313 0.49558 0.0
C441 C 0.54739 0.33883 0.48421 0.0
C442 C 0.53278 0.32838 0.49119 0.0
C443 C 0.5854 0.35201 0.60372 0.0
H444 H 0.45512 0.31229 0.56169 0.0
H445 H 0.48562 0.32041 0.5511 0.0
H446 H 0.49048 0.3691 0.58873 0.0
H447 H 0.45993 0.36102 0.59928 0.0
H448 H 0.50315 0.34378 0.53457 0.0
H449 H 0.52052 0.35556 0.59186 0.0
H450 H 0.56088 0.35571 0.55106 0.0
H451 H 0.57465 0.33998 0.57733 0.0
H452 H 0.54299 0.38202 0.60262 0.0
H453 H 0.56526 0.38527 0.62933 0.0
H454 H 0.51701 0.32315 0.51444 0.0
H455 H 0.55912 0.36817 0.52193 0.0
H456 H 0.5968 0.34305 0.60403 0.0
H457 H 0.52545 0.31713 0.48276 0.0
H458 H 0.56798 0.36151 0.49044 0.0
C459 C 0.15292 0.73378 0.02684 0.0
C460 C 0.16437 0.7212 0.03501 0.0
C461 C 0.13371 0.73047 0.02572 0.0
C462 C 0.12558 0.71464 0.03296 0.0
C463 C 0.13703 0.70221 0.04138 0.0
C464 C 0.15624 0.70539 0.04229 0.0
C465 C 0.10524 0.71085 0.03133 0.0
C466 C 0.09534 0.71213 0.01432 0.0
C467 C 0.07618 0.7078 0.01237 0.0
C468 C 0.0669 0.70232 0.0278 0.0
C469 C 0.07656 0.70119 0.04505 0.0
C470 C 0.09577 0.70548 0.04663 0.0
C471 C 0.06669 0.69557 0.06142 0.0
C472 C 0.04907 0.7017 0.0646 0.0
C473 C 0.07495 0.68427 0.0742 0.0
C474 C 0.06602 0.67953 0.08993 0.0
C475 C 0.04848 0.6858 0.09321 0.0
C476 C 0.06612 0.70828 0.994 0.0
C477 C 0.06975 0.72291 0.98263 0.0
C478 C 0.05346 0.69365 0.98733 0.0
C479 C 0.04507 0.69337 0.96948 0.0
C480 C 0.0491 0.70775 0.95792 0.0
C481 C 0.06129 0.72268 0.9648 0.0
C482 C 0.04006 0.69682 0.08025 0.0
H483 H 0.15883 0.74601 0.021 0.0
H484 H 0.12519 0.74032 0.01925 0.0
H485 H 0.13112 0.68982 0.04694 0.0
H486 H 0.16476 0.69554 0.04877 0.0
H487 H 0.1027 0.71582 0.00238 0.0
H488 H 0.10339 0.70499 0.05987 0.0
H489 H 0.05215 0.69882 0.0263 0.0
H490 H 0.04235 0.71057 0.05516 0.0
H491 H 0.08837 0.67904 0.07208 0.0
H492 H 0.07306 0.67121 0.09968 0.0
H493 H 0.07931 0.73446 0.98746 0.0
H494 H 0.05047 0.68211 0.9957 0.0
H495 H 0.02646 0.7017 0.08217 0.0
H496 H 0.06477 0.7339 0.95619 0.0
H497 H 0.03557 0.68178 0.96464 0.0
C498 C 0.85042 0.29546 0.45595 0.0
C499 C 0.84324 0.27838 0.44754 0.0
C500 C 0.86906 0.29789 0.46229 0.0
C501 C 0.88083 0.2834 0.45992 0.0
C502 C 0.87361 0.26632 0.45162 0.0
C503 C 0.85496 0.26378 0.44563 0.0
C504 C 0.9008 0.28613 0.46541 0.0
C505 C 0.90693 0.29221 0.48356 0.0
C506 C 0.92593 0.29383 0.48893 0.0
C507 C 0.93876 0.28963 0.47573 0.0
C508 C 0.9328 0.28375 0.45741 0.0
C509 C 0.91375 0.28206 0.45244 0.0
C510 C 0.94633 0.27943 0.44338 0.0
C511 C 0.963 0.29027 0.44291 0.0
C512 C 0.94236 0.26477 0.4299 0.0
C513 C 0.95436 0.26146 0.41593 0.0
C514 C 0.97083 0.27255 0.41517 0.0
C515 C 0.93234 0.29915 0.50847 0.0
C516 C 0.92411 0.31321 0.51864 0.0
C517 C 0.94651 0.28987 0.51724 0.0
C518 C 0.95223 0.29441 0.53574 0.0
C519 C 0.94392 0.30835 0.54597 0.0
C520 C 0.92983 0.31775 0.53719 0.0
C521 C 0.97513 0.28681 0.42904 0.0
H522 H 0.84162 0.30689 0.45762 0.0
H523 H 0.87438 0.3112 0.46859 0.0
H524 H 0.88244 0.25493 0.44972 0.0
H525 H 0.84979 0.25053 0.43906 0.0
H526 H 0.89686 0.29496 0.49364 0.0
H527 H 0.90888 0.27786 0.43832 0.0
H528 H 0.9534 0.29082 0.47979 0.0
H529 H 0.96648 0.30175 0.45297 0.0
H530 H 0.92984 0.25589 0.43001 0.0
H531 H 0.95042 0.25049 0.40542 0.0
H532 H 0.9133 0.32077 0.51222 0.0
H533 H 0.95291 0.27873 0.50994 0.0
H534 H 0.98783 0.29545 0.42912 0.0
H535 H 0.92328 0.32869 0.54463 0.0
H536 H 0.96287 0.28664 0.54217 0.0
C537 C 0.5471 0.71978 0.97778 0.0
C538 C 0.55415 0.73534 0.96918 0.0
C539 C 0.52804 0.71622 0.97862 0.0
C540 C 0.51559 0.72805 0.97075 0.0
C541 C 0.52259 0.7438 0.96248 0.0
C542 C 0.54165 0.74744 0.96177 0.0
C543 C 0.49536 0.72353 0.97044 0.0
C544 C 0.48713 0.71768 0.98628 0.0
C545 C 0.46804 0.71278 0.98584 0.0
C546 C 0.45726 0.71386 0.96922 0.0
C547 C 0.46526 0.71979 0.95326 0.0
C548 C 0.48434 0.72458 0.95404 0.0
C549 C 0.45387 0.7206 0.93563 0.0
C550 C 0.44007 0.70662 0.93003 0.0
C551 C 0.45704 0.73514 0.92402 0.0
C552 C 0.44699 0.73546 0.90704 0.0
C553 C 0.43342 0.72133 0.90134 0.0
C554 C 0.45938 0.70656 0.0027 0.0
C555 C 0.46875 0.69541 0.01487 0.0
C556 C 0.44165 0.71176 0.00679 0.0
C557 C 0.43353 0.706 0.0226 0.0
C558 C 0.443 0.69507 0.03492 0.0
C559 C 0.46071 0.68981 0.03081 0.0
C560 C 0.42991 0.70702 0.9131 0.0
H561 H 0.55626 0.70999 0.98338 0.0
H562 H 0.52304 0.70386 0.98488 0.0
H563 H 0.51331 0.75329 0.95653 0.0
H564 H 0.54658 0.75973 0.95535 0.0
H565 H 0.49558 0.71729 0.99906 0.0
H566 H 0.49078 0.72854 0.94166 0.0
H567 H 0.44258 0.71002 0.96866 0.0
H568 H 0.43744 0.69507 0.93849 0.0
H569 H 0.46732 0.74632 0.92805 0.0
H570 H 0.4498 0.7468 0.89836 0.0
H571 H 0.48231 0.69089 0.01206 0.0
H572 H 0.43408 0.72053 0.9979 0.0
H573 H 0.41969 0.69583 0.90897 0.0
H574 H 0.46855 0.68161 0.04006 0.0
H575 H 0.41977 0.7101 0.02512 0.0
C576 C 0.55656 0.43256 0.33757 0.0
C577 C 0.5704 0.42406 0.34774 0.0
C578 C 0.55099 0.44988 0.34359 0.0
C579 C 0.55926 0.45914 0.35983 0.0
C580 C 0.57256 0.4503 0.37041 0.0
C581 C 0.578 0.43287 0.36448 0.0
C582 C 0.55524 0.47858 0.36473 0.0
C583 C 0.53702 0.48417 0.36363 0.0
C584 C 0.53343 0.50292 0.36663 0.0
C585 C 0.54838 0.51603 0.37084 0.0
C586 C 0.56667 0.5107 0.37189 0.0
C587 C 0.56993 0.49191 0.36901 0.0
C588 C 0.58245 0.52483 0.37456 0.0
C589 C 0.58206 0.54127 0.36527 0.0
C590 C 0.59837 0.52163 0.38561 0.0
C591 C 0.61371 0.53435 0.38695 0.0
C592 C 0.61342 0.55058 0.37734 0.0
C593 C 0.51428 0.50911 0.36431 0.0
C594 C 0.50199 0.50134 0.3498 0.0
C595 C 0.50849 0.52358 0.37593 0.0
C596 C 0.49111 0.53052 0.37274 0.0
C597 C 0.47904 0.52302 0.35797 0.0
C598 C 0.48455 0.50818 0.34671 0.0
C599 C 0.59734 0.55401 0.36669 0.0
H600 H 0.55033 0.42599 0.32472 0.0
H601 H 0.54082 0.45639 0.33508 0.0
H602 H 0.57907 0.45707 0.38305 0.0
H603 H 0.58874 0.42667 0.37256 0.0
H604 H 0.52566 0.4739 0.36039 0.0
H605 H 0.58403 0.48776 0.36904 0.0
H606 H 0.54583 0.53054 0.3728 0.0
H607 H 0.57017 0.54403 0.35636 0.0
H608 H 0.59903 0.50922 0.39314 0.0
H609 H 0.62583 0.53143 0.39544 0.0
H610 H 0.50607 0.4904 0.3404 0.0
H611 H 0.51744 0.52967 0.38744 0.0
H612 H 0.59678 0.56625 0.35889 0.0
H613 H 0.4756 0.50225 0.33512 0.0
H614 H 0.48713 0.54178 0.38182 0.0
C615 C 0.02563 0.11918 0.74236 0.0
C616 C 0.03502 0.12965 0.72974 0.0
C617 C 0.02488 0.09985 0.74066 0.0
C618 C 0.03351 0.09057 0.7263 0.0
C619 C 0.04315 0.10107 0.71389 0.0
C620 C 0.04394 0.12035 0.71562 0.0
C621 C 0.03207 0.07003 0.72388 0.0
C622 C 0.01528 0.06003 0.72607 0.0
C623 C 0.01352 0.04069 0.7228 0.0
C624 C 0.02887 0.03135 0.71716 0.0
C625 C 0.04578 0.04117 0.71484 0.0
C626 C 0.04728 0.06044 0.71851 0.0
C627 C 0.06193 0.0316 0.70824 0.0
C628 C 0.06683 0.01479 0.71522 0.0
C629 C 0.073 0.03971 0.69529 0.0
C630 C 0.089 0.03167 0.69004 0.0
C631 C 0.09429 0.01525 0.69751 0.0
C632 C 0.9953 0.03059 0.72437 0.0
C633 C 0.98422 0.03534 0.73894 0.0
C634 C 0.98835 0.01698 0.71072 0.0
C635 C 0.97043 0.00886 0.71123 0.0
C636 C 0.95908 0.01419 0.72539 0.0
C637 C 0.96632 0.02726 0.73944 0.0
C638 C 0.08286 0.00667 0.70988 0.0
H639 H 0.01846 0.12589 0.7533 0.0
H640 H 0.0175 0.09218 0.75056 0.0
H641 H 0.04978 0.09439 0.70254 0.0
H642 H 0.05149 0.12799 0.70581 0.0
H643 H 0.0033 0.0674 0.72958 0.0
H644 H 0.06041 0.06803 0.71728 0.0
H645 H 0.02758 0.01648 0.71433 0.0
H646 H 0.05863 0.00825 0.72529 0.0
H647 H 0.06937 0.05241 0.68928 0.0
H648 H 0.09734 0.0384 0.68019 0.0
H649 H 0.9893 0.04554 0.74985 0.0
H650 H 0.99644 0.01315 0.6992 0.0
H651 H 0.08665 0.99404 0.71593 0.0
H652 H 0.95804 0.03142 0.75071 0.0
H653 H 0.96521 0.99899 0.70009 0.0
C654 C 0.44463 0.85684 0.25924 0.0
C655 C 0.43039 0.85028 0.24608 0.0
C656 C 0.45095 0.87549 0.26052 0.0
C657 C 0.44322 0.88795 0.2486 0.0
C658 C 0.42925 0.88126 0.23519 0.0
C659 C 0.42289 0.86267 0.23398 0.0
C660 C 0.44921 0.90796 0.25051 0.0
C661 C 0.46794 0.91387 0.25419 0.0
C662 C 0.47352 0.93283 0.2564 0.0
C663 C 0.46004 0.9459 0.25501 0.0
C664 C 0.44135 0.9402 0.2511 0.0
C665 C 0.43605 0.92128 0.24888 0.0
C666 C 0.42716 0.95392 0.2496 0.0
C667 C 0.42569 0.96749 0.26396 0.0
C668 C 0.41448 0.95296 0.23414 0.0
C669 C 0.40038 0.96519 0.23316 0.0
C670 C 0.39852 0.97838 0.24778 0.0
C671 C 0.49338 0.939 0.26004 0.0
C672 C 0.50486 0.92976 0.27222 0.0
C673 C 0.50102 0.95421 0.25133 0.0
C674 C 0.51965 0.96009 0.25481 0.0
C675 C 0.5311 0.95088 0.26702 0.0
C676 C 0.52351 0.93562 0.27565 0.0
C677 C 0.41137 0.97952 0.26313 0.0
H678 H 0.45059 0.84764 0.26883 0.0
H679 H 0.46156 0.88022 0.27115 0.0
H680 H 0.42325 0.89039 0.22555 0.0
H681 H 0.41217 0.85796 0.22345 0.0
H682 H 0.47825 0.9037 0.25489 0.0
H683 H 0.42151 0.91695 0.24643 0.0
H684 H 0.46406 0.96055 0.25693 0.0
H685 H 0.43526 0.96841 0.27606 0.0
H686 H 0.41541 0.94264 0.22287 0.0
H687 H 0.39056 0.96396 0.22124 0.0
H688 H 0.49936 0.91816 0.27936 0.0
H689 H 0.49266 0.96144 0.24162 0.0
H690 H 0.41024 0.98963 0.27454 0.0
H691 H 0.53192 0.92838 0.28533 0.0
H692 H 0.52515 0.97172 0.24771 0.0
C693 C 0.97908 0.51845 0.69624 0.0
C694 C 0.97099 0.5234 0.7128 0.0
C695 C 0.97966 0.49986 0.69017 0.0
C696 C 0.97214 0.48583 0.70053 0.0
C697 C 0.96439 0.49077 0.71727 0.0
C698 C 0.96383 0.50933 0.72333 0.0
C699 C 0.97169 0.46614 0.69357 0.0
C700 C 0.98707 0.45886 0.68558 0.0
C701 C 0.98647 0.44028 0.67867 0.0
C702 C 0.97011 0.42906 0.67961 0.0
C703 C 0.95477 0.43611 0.68778 0.0
C704 C 0.95566 0.45458 0.69474 0.0
C705 C 0.93756 0.42439 0.68884 0.0
C706 C 0.92868 0.4154 0.67278 0.0
C707 C 0.92935 0.42307 0.70578 0.0
C708 C 0.91228 0.41331 0.70658 0.0
C709 C 0.90301 0.40499 0.69039 0.0
C710 C 0.00313 0.43244 0.67113 0.0
C711 C 0.01466 0.44288 0.66022 0.0
C712 C 0.00803 0.41467 0.67543 0.0
C713 C 0.02429 0.40771 0.66938 0.0
C714 C 0.03609 0.41838 0.65896 0.0
C715 C 0.03098 0.43594 0.65423 0.0
C716 C 0.91144 0.40591 0.67352 0.0
H717 H 0.98456 0.52895 0.68771 0.0
H718 H 0.98552 0.49649 0.67711 0.0
H719 H 0.95877 0.48027 0.72572 0.0
H720 H 0.95785 0.51266 0.73634 0.0
H721 H 0.9997 0.46756 0.68526 0.0
H722 H 0.94358 0.4601 0.70057 0.0
H723 H 0.9693 0.4148 0.67413 0.0
H724 H 0.93474 0.41631 0.65956 0.0
H725 H 0.93602 0.42986 0.71835 0.0
H726 H 0.90598 0.41291 0.71972 0.0
H727 H 0.01113 0.45648 0.65639 0.0
H728 H 0.99963 0.40636 0.68403 0.0
H729 H 0.90454 0.39954 0.66087 0.0
H730 H 0.03969 0.44439 0.64603 0.0
H731 H 0.02798 0.39425 0.6735 0.0
C732 C 0.64595 0.42317 0.53612 0.0
C733 C 0.66336 0.42794 0.54529 0.0
C734 C 0.64107 0.43042 0.51924 0.0
C735 C 0.65336 0.44283 0.51128 0.0
C736 C 0.67047 0.44819 0.5207 0.0
C737 C 0.67547 0.44074 0.53746 0.0
C738 C 0.64885 0.44913 0.4926 0.0
C739 C 0.65115 0.4679 0.48896 0.0
C740 C 0.64738 0.47359 0.47101 0.0
C741 C 0.6416 0.46031 0.45661 0.0
C742 C 0.63974 0.44156 0.46007 0.0
C743 C 0.64312 0.43607 0.47805 0.0
C744 C 0.63666 0.42736 0.44471 0.0
C745 C 0.61875 0.42103 0.43803 0.0
C746 C 0.65191 0.4189 0.4379 0.0
C747 C 0.64932 0.40376 0.42509 0.0
C748 C 0.63139 0.39672 0.41888 0.0
C749 C 0.65045 0.49322 0.46695 0.0
C750 C 0.63677 0.50206 0.45698 0.0
C751 C 0.66741 0.50295 0.47223 0.0
C752 C 0.67087 0.52103 0.46713 0.0
C753 C 0.65731 0.52988 0.45685 0.0
C754 C 0.64009 0.52024 0.45214 0.0
C755 C 0.61611 0.40578 0.42517 0.0
H756 H 0.63607 0.41372 0.5419 0.0
H757 H 0.62771 0.42622 0.51232 0.0
H758 H 0.68028 0.45758 0.51473 0.0
H759 H 0.68909 0.44457 0.54394 0.0
H760 H 0.65574 0.47807 0.50009 0.0
H761 H 0.64206 0.42147 0.48055 0.0
H762 H 0.63938 0.46445 0.44258 0.0
H763 H 0.60684 0.42743 0.44325 0.0
H764 H 0.66582 0.42358 0.44306 0.0
H765 H 0.66139 0.39695 0.42086 0.0
H766 H 0.62351 0.49487 0.45291 0.0
H767 H 0.67825 0.49633 0.47975 0.0
H768 H 0.60215 0.40076 0.42057 0.0
H769 H 0.62914 0.52668 0.44462 0.0
H770 H 0.68439 0.52781 0.47076 0.0
C771 C 0.78792 0.57792 0.17555 0.0
C772 C 0.77486 0.57281 0.18814 0.0
C773 C 0.78594 0.5708 0.15716 0.0
C774 C 0.77098 0.55831 0.15106 0.0
C775 C 0.75832 0.55267 0.16383 0.0
C776 C 0.76021 0.55989 0.18216 0.0
C777 C 0.76775 0.55219 0.1312 0.0
C778 C 0.76264 0.53362 0.12572 0.0
C779 C 0.75818 0.52809 0.10701 0.0
C780 C 0.75871 0.54146 0.09377 0.0
C781 C 0.76373 0.56014 0.09901 0.0
C782 C 0.76856 0.56526 0.11774 0.0
C783 C 0.76302 0.57447 0.08516 0.0
C784 C 0.7683 0.57079 0.06703 0.0
C785 C 0.75665 0.59193 0.08992 0.0
C786 C 0.75558 0.60533 0.07698 0.0
C787 C 0.76054 0.60159 0.05877 0.0
C788 C 0.75241 0.50845 0.10142 0.0
C789 C 0.76172 0.49405 0.10917 0.0
C790 C 0.73743 0.50395 0.08844 0.0
C791 C 0.73185 0.4855 0.08336 0.0
C792 C 0.74111 0.47109 0.09116 0.0
C793 C 0.75614 0.47558 0.10409 0.0
C794 C 0.76699 0.58416 0.05398 0.0
H795 H 0.79929 0.58792 0.17974 0.0
H796 H 0.79597 0.57529 0.14763 0.0
H797 H 0.74657 0.54318 0.1595 0.0
H798 H 0.75005 0.55556 0.19162 0.0
H799 H 0.76182 0.52354 0.1361 0.0
H800 H 0.77248 0.57958 0.122 0.0
H801 H 0.7549 0.53733 0.0794 0.0
H802 H 0.77347 0.55759 0.0629 0.0
H803 H 0.75215 0.59522 0.10362 0.0
H804 H 0.75087 0.61868 0.08134 0.0
H805 H 0.77342 0.49704 0.11909 0.0
H806 H 0.72982 0.5147 0.08236 0.0
H807 H 0.77076 0.58068 0.04005 0.0
H808 H 0.76346 0.46483 0.1105 0.0
H809 H 0.72035 0.48254 0.0732 0.0
C810 C 0.22364 0.04338 0.43445 0.0
C811 C 0.23643 0.05342 0.42442 0.0
C812 C 0.22631 0.04281 0.45368 0.0
C813 C 0.24162 0.05251 0.46322 0.0
C814 C 0.25451 0.06229 0.45327 0.0
C815 C 0.25206 0.06259 0.4341 0.0
C816 C 0.24406 0.05308 0.4836 0.0
C817 C 0.24565 0.03681 0.49287 0.0
C818 C 0.24956 0.0376 0.51214 0.0
C819 C 0.25142 0.05497 0.52207 0.0
C820 C 0.24975 0.07138 0.51293 0.0
C821 C 0.24594 0.07022 0.49369 0.0
C822 C 0.25262 0.08981 0.52319 0.0
C823 C 0.2458 0.09298 0.54075 0.0
C824 C 0.26209 0.10451 0.51526 0.0
C825 C 0.26431 0.12201 0.52439 0.0
C826 C 0.25739 0.1253 0.54189 0.0
C827 C 0.25282 0.02039 0.52168 0.0
C828 C 0.24196 0.00395 0.51672 0.0
C829 C 0.2673 0.02013 0.53541 0.0
C830 C 0.27099 0.00381 0.54378 0.0
C831 C 0.26037 0.98728 0.53858 0.0
C832 C 0.24569 0.98758 0.52506 0.0
C833 C 0.24819 0.11052 0.55002 0.0
H834 H 0.21136 0.03629 0.42756 0.0
H835 H 0.21616 0.03524 0.46115 0.0
H836 H 0.26656 0.06968 0.46036 0.0
H837 H 0.26253 0.06999 0.4269 0.0
H838 H 0.24475 0.02364 0.48491 0.0
H839 H 0.24439 0.0827 0.48641 0.0
H840 H 0.25454 0.05573 0.53688 0.0
H841 H 0.23835 0.08201 0.54723 0.0
H842 H 0.26785 0.10252 0.50191 0.0
H843 H 0.27121 0.13306 0.51752 0.0
H844 H 0.23059 0.00369 0.50633 0.0
H845 H 0.27611 0.03246 0.53941 0.0
H846 H 0.24287 0.11247 0.56357 0.0
H847 H 0.23733 0.97508 0.52061 0.0
H848 H 0.28223 0.00416 0.55432 0.0
C849 C 0.33733 0.00355 0.85009 0.0
C850 C 0.32826 0.98794 0.84039 0.0
C851 C 0.34017 0.00417 0.86935 0.0
C852 C 0.33377 0.98929 0.87934 0.0
C853 C 0.32469 0.97369 0.86952 0.0
C854 C 0.32209 0.97298 0.85028 0.0
C855 C 0.33603 0.99014 0.89992 0.0
C856 C 0.33409 0.00675 0.91038 0.0
C857 C 0.33527 0.00742 0.92981 0.0
C858 C 0.33806 0.9911 0.9388 0.0
C859 C 0.33994 0.9743 0.92861 0.0
C860 C 0.33934 0.97411 0.90921 0.0
C861 C 0.34173 0.95678 0.93808 0.0
C862 C 0.35208 0.95646 0.95506 0.0
C863 C 0.3327 0.94021 0.93027 0.0
C864 C 0.33401 0.92377 0.93913 0.0
C865 C 0.34414 0.92345 0.95623 0.0
C866 C 0.33306 0.02512 0.94063 0.0
C867 C 0.34135 0.0418 0.93527 0.0
C868 C 0.32246 0.02553 0.95621 0.0
C869 C 0.32007 0.04224 0.9661 0.0
C870 C 0.32821 0.05895 0.96063 0.0
C871 C 0.33894 0.05851 0.94514 0.0
C872 C 0.35321 0.94001 0.96406 0.0
H873 H 0.34233 0.01521 0.84275 0.0
H874 H 0.34746 0.01628 0.87639 0.0
H875 H 0.31918 0.96215 0.87671 0.0
H876 H 0.31479 0.9609 0.84317 0.0
H877 H 0.33098 0.01908 0.90341 0.0
H878 H 0.34149 0.96139 0.90128 0.0
H879 H 0.33854 0.99145 0.95376 0.0
H880 H 0.35939 0.9689 0.9614 0.0
H881 H 0.32435 0.93992 0.91738 0.0
H882 H 0.32709 0.91127 0.93248 0.0
H883 H 0.34976 0.04195 0.92344 0.0
H884 H 0.31572 0.01297 0.96061 0.0
H885 H 0.36099 0.94037 0.97728 0.0
H886 H 0.34524 0.07114 0.94042 0.0
H887 H 0.3119 0.04205 0.9781 0.0
C888 C 0.55071 0.64593 0.42192 0.0
C889 C 0.55642 0.66425 0.42796 0.0
C890 C 0.53365 0.63812 0.42649 0.0
C891 C 0.52198 0.64843 0.43726 0.0
C892 C 0.52808 0.66643 0.44406 0.0
C893 C 0.54511 0.67428 0.43942 0.0
C894 C 0.50284 0.64111 0.43988 0.0
C895 C 0.49505 0.64339 0.45707 0.0
C896 C 0.47638 0.63783 0.45905 0.0
C897 C 0.46551 0.63011 0.44344 0.0
C898 C 0.47312 0.62787 0.4262 0.0
C899 C 0.49181 0.63312 0.42461 0.0
C900 C 0.46128 0.62199 0.40932 0.0
C901 C 0.46668 0.60829 0.39667 0.0
C902 C 0.44569 0.63168 0.40474 0.0
C903 C 0.43644 0.62866 0.38729 0.0
C904 C 0.4424 0.61565 0.37409 0.0
C905 C 0.46809 0.64063 0.47721 0.0
C906 C 0.4783 0.63792 0.49382 0.0
C907 C 0.44988 0.64613 0.47809 0.0
C908 C 0.44203 0.64862 0.49509 0.0
C909 C 0.45225 0.64591 0.51163 0.0
C910 C 0.47049 0.64062 0.51085 0.0
C911 C 0.45725 0.60502 0.37932 0.0
H912 H 0.55903 0.63788 0.41298 0.0
H913 H 0.52935 0.62417 0.42117 0.0
H914 H 0.51934 0.67477 0.45227 0.0
H915 H 0.54924 0.68836 0.44445 0.0
H916 H 0.50347 0.64986 0.4688 0.0
H917 H 0.49748 0.63204 0.41113 0.0
H918 H 0.45109 0.62583 0.4446 0.0
H919 H 0.47861 0.60054 0.39998 0.0
H920 H 0.44138 0.64247 0.4142 0.0
H921 H 0.42535 0.63741 0.38386 0.0
H922 H 0.49224 0.63343 0.49368 0.0
H923 H 0.44173 0.64876 0.46565 0.0
H924 H 0.4621 0.59462 0.36981 0.0
H925 H 0.47862 0.63826 0.52339 0.0
H926 H 0.42802 0.65297 0.49531 0.0
C927 C 0.83321 0.31933 0.98605 0.0
C928 C 0.82453 0.30319 0.97698 0.0
C929 C 0.85216 0.3234 0.98485 0.0
C930 C 0.86261 0.31159 0.97424 0.0
C931 C 0.85381 0.29569 0.96483 0.0
C932 C 0.83497 0.29143 0.96633 0.0
C933 C 0.88276 0.31546 0.97338 0.0
C934 C 0.89418 0.31813 0.9897 0.0
C935 C 0.91349 0.3205 0.98906 0.0
C936 C 0.92125 0.3205 0.97175 0.0
C937 C 0.90995 0.31803 0.95523 0.0
C938 C 0.89069 0.31553 0.95625 0.0
C939 C 0.91815 0.31767 0.93691 0.0
C940 C 0.93327 0.32982 0.93367 0.0
C941 C 0.91073 0.30521 0.9224 0.0
C942 C 0.91802 0.30509 0.90504 0.0
C943 C 0.9331 0.31727 0.90174 0.0
C944 C 0.92545 0.32195 0.00652 0.0
C945 C 0.92039 0.33245 0.02211 0.0
C946 C 0.94148 0.31205 0.00803 0.0
C947 C 0.95189 0.31222 0.02488 0.0
C948 C 0.9465 0.32226 0.04061 0.0
C949 C 0.93078 0.33259 0.03896 0.0
C950 C 0.94069 0.3296 0.91631 0.0
H951 H 0.82543 0.32854 0.99443 0.0
H952 H 0.85867 0.33576 0.99219 0.0
H953 H 0.86163 0.28632 0.95666 0.0
H954 H 0.82854 0.27894 0.95918 0.0
H955 H 0.88803 0.31751 0.00291 0.0
H956 H 0.88173 0.31379 0.9437 0.0
H957 H 0.93613 0.32217 0.97117 0.0
H958 H 0.93924 0.33972 0.94447 0.0
H959 H 0.89929 0.29543 0.92444 0.0
H960 H 0.91163 0.29557 0.89413 0.0
H961 H 0.90829 0.34047 0.02133 0.0
H962 H 0.94562 0.30362 0.99637 0.0
H963 H 0.95244 0.33902 0.91436 0.0
H964 H 0.92645 0.34073 0.05074 0.0
H965 H 0.9638 0.30394 0.02575 0.0
C966 C 0.16495 0.79731 0.57613 0.0
C967 C 0.17754 0.7859 0.56794 0.0
C968 C 0.14593 0.79379 0.57222 0.0
C969 C 0.13916 0.77891 0.55991 0.0
C970 C 0.15179 0.76809 0.551 0.0
C971 C 0.17079 0.77151 0.55503 0.0
C972 C 0.11907 0.77359 0.5577 0.0
C973 C 0.11029 0.76885 0.54016 0.0
C974 C 0.09156 0.76242 0.53826 0.0
C975 C 0.08171 0.76061 0.55425 0.0
C976 C 0.09038 0.76507 0.57192 0.0
C977 C 0.10896 0.77188 0.57344 0.0
C978 C 0.08051 0.76157 0.58887 0.0
C979 C 0.0619 0.76556 0.59017 0.0
C980 C 0.08972 0.75386 0.60387 0.0
C981 C 0.08061 0.75028 0.61978 0.0
C982 C 0.06198 0.75412 0.62108 0.0
C983 C 0.08256 0.75688 0.51963 0.0
C984 C 0.08601 0.76746 0.50446 0.0
C985 C 0.07076 0.74075 0.5168 0.0
C986 C 0.0627 0.73527 0.4992 0.0
C987 C 0.06628 0.74575 0.48399 0.0
C988 C 0.07797 0.76196 0.48685 0.0
C989 C 0.05273 0.76189 0.60612 0.0
H990 H 0.16974 0.80843 0.58621 0.0
H991 H 0.13649 0.80241 0.57919 0.0
H992 H 0.14696 0.75645 0.54155 0.0
H993 H 0.18021 0.7626 0.54838 0.0
H994 H 0.11819 0.76983 0.52801 0.0
H995 H 0.11579 0.77534 0.587 0.0
H996 H 0.06738 0.75534 0.55295 0.0
H997 H 0.05444 0.77161 0.57891 0.0
H998 H 0.10396 0.75033 0.60326 0.0
H999 H 0.08826 0.74455 0.63111 0.0
H1000 H 0.09489 0.78005 0.50619 0.0
H1001 H 0.06798 0.73215 0.52812 0.0
H1002 H 0.03832 0.76488 0.6066 0.0
H1003 H 0.08119 0.77026 0.47542 0.0
H1004 H 0.05359 0.72283 0.49755 0.0
C1005 C 0.43863 0.23691 0.0291 0.0
C1006 C 0.43085 0.24566 0.04429 0.0
C1007 C 0.45774 0.23863 0.02731 0.0
C1008 C 0.46941 0.24929 0.0406 0.0
C1009 C 0.46147 0.25831 0.05558 0.0
C1010 C 0.44246 0.25643 0.05745 0.0
C1011 C 0.48979 0.25099 0.03905 0.0
C1012 C 0.49736 0.25285 0.02181 0.0
C1013 C 0.5166 0.25525 0.02054 0.0
C1014 C 0.5283 0.25561 0.03671 0.0
C1015 C 0.52099 0.25388 0.05401 0.0
C1016 C 0.50178 0.25138 0.05503 0.0
C1017 C 0.53331 0.25553 0.07115 0.0
C1018 C 0.54953 0.24592 0.0724 0.0
C1019 C 0.52897 0.26702 0.08633 0.0
C1020 C 0.54063 0.26895 0.10241 0.0
C1021 C 0.55683 0.25932 0.10372 0.0
C1022 C 0.52451 0.25815 0.00245 0.0
C1023 C 0.51798 0.24724 0.98647 0.0
C1024 C 0.53875 0.2719 0.00111 0.0
C1025 C 0.5464 0.2746 0.98422 0.0
C1026 C 0.54 0.26363 0.96825 0.0
C1027 C 0.52569 0.24992 0.96955 0.0
C1028 C 0.56113 0.24771 0.08859 0.0
H1029 H 0.42998 0.22845 0.01879 0.0
H1030 H 0.46339 0.23135 0.01569 0.0
H1031 H 0.46993 0.26703 0.06583 0.0
H1032 H 0.4368 0.26365 0.06911 0.0
H1033 H 0.48826 0.25317 0.00946 0.0
H1034 H 0.4962 0.2496 0.06836 0.0
H1035 H 0.54314 0.25757 0.0359 0.0
H1036 H 0.55315 0.23691 0.06092 0.0
H1037 H 0.51665 0.27473 0.08569 0.0
H1038 H 0.53688 0.27785 0.11392 0.0
H1039 H 0.50709 0.23648 0.98711 0.0
H1040 H 0.54392 0.2807 0.01311 0.0
H1041 H 0.57358 0.24021 0.08919 0.0
H1042 H 0.52036 0.24134 0.95746 0.0
H1043 H 0.55754 0.28515 0.98374 0.0
C1044 C 0.42052 0.54772 0.64354 0.0
C1045 C 0.42932 0.55626 0.65989 0.0
C1046 C 0.42411 0.52966 0.63778 0.0
C1047 C 0.43662 0.51976 0.64818 0.0
C1048 C 0.44602 0.52855 0.66411 0.0
C1049 C 0.44237 0.54661 0.66994 0.0
C1050 C 0.43863 0.49988 0.64324 0.0
C1051 C 0.45608 0.49246 0.64369 0.0
C1052 C 0.45772 0.47338 0.6399 0.0
C1053 C 0.4416 0.46182 0.63541 0.0
C1054 C 0.42413 0.46902 0.63547 0.0
C1055 C 0.42275 0.48801 0.63922 0.0
C1056 C 0.40721 0.45656 0.63369 0.0
C1057 C 0.40267 0.44497 0.61767 0.0
C1058 C 0.39543 0.45638 0.64829 0.0
C1059 C 0.37932 0.44482 0.64696 0.0
C1060 C 0.37454 0.43341 0.63088 0.0
C1061 C 0.47607 0.46535 0.64195 0.0
C1062 C 0.49209 0.47477 0.63639 0.0
C1063 C 0.47778 0.44845 0.65021 0.0
C1064 C 0.49507 0.44128 0.65308 0.0
C1065 C 0.51115 0.45091 0.64794 0.0
C1066 C 0.50943 0.46766 0.63938 0.0
C1067 C 0.38627 0.43361 0.61617 0.0
H1068 H 0.41029 0.5547 0.63557 0.0
H1069 H 0.41676 0.52327 0.62537 0.0
H1070 H 0.45564 0.52122 0.67248 0.0
H1071 H 0.4495 0.5529 0.68249 0.0
H1072 H 0.46831 0.50151 0.64745 0.0
H1073 H 0.40917 0.49344 0.63961 0.0
H1074 H 0.44253 0.44709 0.63257 0.0
H1075 H 0.41163 0.44495 0.60626 0.0
H1076 H 0.39874 0.46516 0.6608 0.0
H1077 H 0.3704 0.44505 0.6584 0.0
H1078 H 0.49127 0.48772 0.62981 0.0
H1079 H 0.46582 0.44091 0.65493 0.0
H1080 H 0.3828 0.42492 0.60365 0.0
H1081 H 0.52152 0.47554 0.63539 0.0
H1082 H 0.49581 0.42821 0.65944 0.0
C1083 C 0.00185 0.83446 0.33829 0.0
C1084 C 0.98729 0.82481 0.32742 0.0
C1085 C 0.00215 0.85367 0.3414 0.0
C1086 C 0.98794 0.86367 0.33362 0.0
C1087 C 0.97321 0.85394 0.32305 0.0
C1088 C 0.97286 0.83474 0.32003 0.0
C1089 C 0.98885 0.88422 0.33573 0.0
C1090 C 0.00569 0.89447 0.33434 0.0
C1091 C 0.00652 0.91387 0.33507 0.0
C1092 C 0.99019 0.92306 0.33704 0.0
C1093 C 0.97318 0.91308 0.33854 0.0
C1094 C 0.97276 0.89366 0.33815 0.0
C1095 C 0.95576 0.92283 0.33989 0.0
C1096 C 0.95558 0.94001 0.34992 0.0
C1097 C 0.93914 0.91511 0.33086 0.0
C1098 C 0.92282 0.92422 0.3319 0.0
C1099 C 0.92266 0.94151 0.34173 0.0
C1100 C 0.0244 0.92442 0.33308 0.0
C1101 C 0.04072 0.91935 0.34232 0.0
C1102 C 0.02537 0.93929 0.32158 0.0
C1103 C 0.04233 0.9487 0.31914 0.0
C1104 C 0.0587 0.94347 0.32818 0.0
C1105 C 0.05767 0.92878 0.33992 0.0
C1106 C 0.93928 0.94927 0.35074 0.0
H1107 H 0.01304 0.82715 0.34436 0.0
H1108 H 0.01356 0.86071 0.34984 0.0
H1109 H 0.9622 0.8612 0.31658 0.0
H1110 H 0.9616 0.82774 0.31136 0.0
H1111 H 0.01808 0.88731 0.33193 0.0
H1112 H 0.95986 0.88582 0.33979 0.0
H1113 H 0.99074 0.93801 0.33717 0.0
H1114 H 0.96803 0.94631 0.35725 0.0
H1115 H 0.93873 0.90207 0.32274 0.0
H1116 H 0.91028 0.9176 0.32504 0.0
H1117 H 0.0404 0.90805 0.35141 0.0
H1118 H 0.01308 0.94343 0.31413 0.0
H1119 H 0.93979 0.96264 0.35827 0.0
H1120 H 0.07004 0.9243 0.34696 0.0
H1121 H 0.04262 0.96009 0.31017 0.0
C1122 C 0.58746 0.15288 0.79255 0.0
C1123 C 0.58151 0.16699 0.78155 0.0
C1124 C 0.58246 0.13434 0.78735 0.0
C1125 C 0.57109 0.12951 0.77128 0.0
C1126 C 0.56409 0.14353 0.76093 0.0
C1127 C 0.56934 0.16208 0.76593 0.0
C1128 C 0.56842 0.10999 0.76409 0.0
C1129 C 0.55069 0.10157 0.75969 0.0
C1130 C 0.54841 0.08331 0.75182 0.0
C1131 C 0.56421 0.07376 0.7479 0.0
C1132 C 0.58205 0.08224 0.75187 0.0
C1133 C 0.58395 0.10019 0.76038 0.0
C1134 C 0.59877 0.07297 0.74633 0.0
C1135 C 0.60073 0.0541 0.74882 0.0
C1136 C 0.61308 0.08318 0.73856 0.0
C1137 C 0.62907 0.0749 0.7337 0.0
C1138 C 0.63117 0.05609 0.73627 0.0
C1139 C 0.52954 0.07441 0.74734 0.0
C1140 C 0.51549 0.07677 0.75963 0.0
C1141 C 0.52538 0.06359 0.73072 0.0
C1142 C 0.50763 0.05529 0.72653 0.0
C1143 C 0.49359 0.05765 0.73883 0.0
C1144 C 0.49773 0.0685 0.75543 0.0
C1145 C 0.61679 0.04576 0.74387 0.0
H1146 H 0.59643 0.15611 0.80492 0.0
H1147 H 0.58792 0.12371 0.79559 0.0
H1148 H 0.55544 0.14008 0.74837 0.0
H1149 H 0.56463 0.17245 0.75696 0.0
H1150 H 0.53871 0.10935 0.76224 0.0
H1151 H 0.59762 0.10684 0.76368 0.0
H1152 H 0.56263 0.05984 0.74151 0.0
H1153 H 0.58998 0.04587 0.75484 0.0
H1154 H 0.61192 0.09766 0.73615 0.0
H1155 H 0.63993 0.08339 0.72815 0.0
H1156 H 0.51829 0.08479 0.77267 0.0
H1157 H 0.53578 0.06176 0.72079 0.0
H1158 H 0.61788 0.0312 0.74588 0.0
H1159 H 0.48731 0.07037 0.76532 0.0
H1160 H 0.50482 0.04724 0.71351 0.0
C1161 C 0.03387 0.44585 0.21928 0.0
C1162 C 0.02494 0.43549 0.23226 0.0
C1163 C 0.03346 0.4651 0.22011 0.0
C1164 C 0.02394 0.47435 0.23381 0.0
C1165 C 0.01444 0.46393 0.24636 0.0
C1166 C 0.015 0.4447 0.24564 0.0
C1167 C 0.02482 0.49484 0.2357 0.0
C1168 C 0.00887 0.50434 0.23876 0.0
C1169 C 0.00988 0.52373 0.24156 0.0
C1170 C 0.02714 0.53357 0.24116 0.0
C1171 C 0.04324 0.52422 0.23852 0.0
C1172 C 0.04192 0.5049 0.2356 0.0
C1173 C 0.0616 0.53446 0.24017 0.0
C1174 C 0.0649 0.55048 0.23063 0.0
C1175 C 0.07588 0.52838 0.25176 0.0
C1176 C 0.09307 0.53819 0.2539 0.0
C1177 C 0.09642 0.5542 0.24437 0.0
C1178 C 0.99312 0.53354 0.24602 0.0
C1179 C 0.97576 0.52796 0.23714 0.0
C1180 C 0.99426 0.54817 0.25973 0.0
C1181 C 0.97843 0.55681 0.26461 0.0
C1182 C 0.96101 0.55098 0.25603 0.0
C1183 C 0.95989 0.53655 0.24211 0.0
C1184 C 0.08223 0.56019 0.23258 0.0
H1185 H 0.04173 0.43913 0.2089 0.0
H1186 H 0.04079 0.4728 0.21018 0.0
H1187 H 0.00712 0.4707 0.25716 0.0
H1188 H 0.00785 0.43704 0.25572 0.0
H1189 H 0.99574 0.49654 0.23935 0.0
H1190 H 0.05436 0.49763 0.23375 0.0
H1191 H 0.02818 0.5485 0.24344 0.0
H1192 H 0.05412 0.55542 0.22158 0.0
H1193 H 0.07365 0.51617 0.25943 0.0
H1194 H 0.10382 0.53317 0.26295 0.0
H1195 H 0.9744 0.51689 0.22637 0.0
H1196 H 0.00734 0.55269 0.26704 0.0
H1197 H 0.08445 0.57254 0.22514 0.0
H1198 H 0.94669 0.53158 0.23532 0.0
H1199 H 0.97987 0.56806 0.27519 0.0
H1200 H 0.21263 0.58451 0.24002 0.0
H1201 H 0.19556 0.6231 0.28236 0.0
H1202 H 0.18056 0.57251 0.23378 0.0
H1203 H 0.16353 0.61104 0.27611 0.0
H1204 H 0.11598 0.56492 0.27678 0.0
H1205 H 0.14692 0.58031 0.28106 0.0
H1206 H 0.14911 0.58219 0.22189 0.0
H1207 H 0.11809 0.56667 0.2176 0.0
C1208 C 0.20202 0.59054 0.24788 0.0
C1209 C 0.20664 0.60469 0.26175 0.0
C1210 C 0.18366 0.58374 0.24423 0.0
C1211 C 0.16959 0.5908 0.25451 0.0
C1212 C 0.17414 0.60523 0.26809 0.0
C1213 C 0.19246 0.61218 0.2716 0.0
C1214 C 0.12306 0.56868 0.26471 0.0
C1215 C 0.11471 0.56455 0.24687 0.0
C1216 C 0.14068 0.57762 0.26715 0.0
C1217 C 0.1504 0.58244 0.2518 0.0
C1218 C 0.14196 0.57853 0.23395 0.0
C1219 C 0.1242 0.56979 0.23151 0.0
H1220 H 0.27701 0.36337 0.65144 0.0
H1221 H 0.25951 0.41635 0.63558 0.0
H1222 H 0.30804 0.37148 0.64208 0.0
H1223 H 0.29057 0.42453 0.62654 0.0
H1224 H 0.36307 0.40884 0.65514 0.0
H1225 H 0.33213 0.39417 0.65642 0.0
H1226 H 0.31523 0.41783 0.60537 0.0
H1227 H 0.34638 0.4325 0.60411 0.0
C1228 C 0.27971 0.37665 0.64576 0.0
C1229 C 0.26585 0.38931 0.64447 0.0
C1230 C 0.2975 0.38131 0.64046 0.0
C1231 C 0.30178 0.39869 0.63373 0.0
C1232 C 0.28767 0.41097 0.63154 0.0
C1233 C 0.26989 0.40632 0.63685 0.0
C1234 C 0.35283 0.41053 0.64398 0.0
C1235 C 0.35699 0.42187 0.62961 0.0
C1236 C 0.33515 0.40204 0.64463 0.0
C1237 C 0.32121 0.40491 0.63101 0.0
C1238 C 0.32568 0.41544 0.61606 0.0
C1239 C 0.34349 0.42374 0.61529 0.0
H1240 H 0.74264 0.04488 0.70511 0.0
H1241 H 0.72458 0.98847 0.71398 0.0
H1242 H 0.71285 0.05507 0.71388 0.0
H1243 H 0.69466 0.99878 0.7228 0.0
H1244 H 0.65066 0.03091 0.75496 0.0
H1245 H 0.68032 0.01892 0.74757 0.0
H1246 H 0.68057 0.05035 0.69897 0.0
H1247 H 0.65088 0.06196 0.706 0.0
C1248 C 0.73238 0.03466 0.70909 0.0
C1249 C 0.73596 0.01584 0.70875 0.0
C1250 C 0.71527 0.0405 0.714 0.0
C1251 C 0.70138 0.02769 0.71883 0.0
C1252 C 0.70514 0.00895 0.71917 0.0
C1253 C 0.72225 0.00306 0.71408 0.0
C1254 C 0.65689 0.03502 0.74254 0.0
C1255 C 0.64847 0.04758 0.73119 0.0
C1256 C 0.6739 0.0282 0.73836 0.0
C1257 C 0.68287 0.03393 0.72286 0.0
C1258 C 0.67418 0.04602 0.71124 0.0
C1259 C 0.65717 0.05269 0.7153 0.0
H1260 H 0.83752 0.02041 0.35496 0.0
H1261 H 0.80793 0.96881 0.33555 0.0
H1262 H 0.86673 0.00525 0.35461 0.0
H1263 H 0.83713 0.9538 0.33499 0.0
H1264 H 0.89505 0.9426 0.31434 0.0
H1265 H 0.8661 0.95773 0.31585 0.0
H1266 H 0.88198 0.97869 0.37176 0.0
H1267 H 0.91068 0.96287 0.37071 0.0
C1268 C 0.83725 0.00585 0.35064 0.0
C1269 C 0.82044 0.9958 0.34527 0.0
C1270 C 0.85394 0.99718 0.35053 0.0
C1271 C 0.85414 0.9784 0.34472 0.0
C1272 C 0.83735 0.96834 0.33939 0.0
C1273 C 0.82065 0.97692 0.33981 0.0
C1274 C 0.89233 0.95016 0.3271 0.0
C1275 C 0.90524 0.95134 0.34246 0.0
C1276 C 0.87576 0.95891 0.32789 0.0
C1277 C 0.87182 0.96931 0.34393 0.0
C1278 C 0.88478 0.97085 0.35918 0.0
C1279 C 0.90125 0.96185 0.35851 0.0
H1280 H 0.27526 0.24338 0.55957 0.0
H1281 H 0.26098 0.22734 0.61356 0.0
H1282 H 0.27148 0.2111 0.54781 0.0
H1283 H 0.25697 0.19497 0.6016 0.0
H1284 H 0.23261 0.14297 0.56287 0.0
H1285 H 0.23558 0.1747 0.57653 0.0
H1286 H 0.28955 0.18235 0.55529 0.0
H1287 H 0.28707 0.15053 0.54231 0.0
C1288 C 0.27114 0.233 0.56888 0.0
C1289 C 0.26847 0.2379 0.58751 0.0
C1290 C 0.26909 0.21452 0.56217 0.0
C1291 C 0.26406 0.20059 0.57385 0.0
C1292 C 0.26082 0.20549 0.59232 0.0
C1293 C 0.26316 0.22398 0.59914 0.0
C1294 C 0.24528 0.15126 0.56141 0.0
C1295 C 0.25953 0.14418 0.5513 0.0
C1296 C 0.2469 0.16945 0.56916 0.0
C1297 C 0.26269 0.18098 0.56674 0.0
C1298 C 0.27709 0.17382 0.55706 0.0
C1299 C 0.27561 0.15561 0.54956 0.0
H1300 H 0.35898 0.83662 0.03304 0.0
H1301 H 0.33645 0.80837 0.98179 0.0
H1302 H 0.3591 0.86611 0.01834 0.0
H1303 H 0.33643 0.83782 0.96725 0.0
H1304 H 0.31664 0.89613 0.95783 0.0
H1305 H 0.31836 0.86689 0.97237 0.0
H1306 H 0.37494 0.88189 0.99167 0.0
H1307 H 0.37359 0.91097 0.9765 0.0
C1308 C 0.35414 0.83669 0.01864 0.0
C1309 C 0.34766 0.82018 0.00858 0.0
C1310 C 0.35428 0.85354 0.01023 0.0
C1311 C 0.34769 0.85421 0.99172 0.0
C1312 C 0.34143 0.83769 0.98161 0.0
C1313 C 0.34154 0.82084 0.98991 0.0
C1314 C 0.32958 0.89315 0.96491 0.0
C1315 C 0.34504 0.90591 0.9658 0.0
C1316 C 0.3305 0.87641 0.97331 0.0
C1317 C 0.34681 0.87211 0.98304 0.0
C1318 C 0.36216 0.88494 0.98433 0.0
C1319 C 0.36133 0.90162 0.9757 0.0
H1320 H 0.65118 0.29468 0.35521 0.0
H1321 H 0.63654 0.28201 0.41007 0.0
H1322 H 0.64126 0.32596 0.36061 0.0
H1323 H 0.62725 0.31325 0.41566 0.0
H1324 H 0.65123 0.38476 0.39004 0.0
H1325 H 0.65258 0.35307 0.37769 0.0
H1326 H 0.607 0.33638 0.4099 0.0
H1327 H 0.60624 0.36788 0.42288 0.0
C1328 C 0.64567 0.2985 0.36834 0.0
C1329 C 0.6448 0.28591 0.38227 0.0
C1330 C 0.64004 0.31646 0.37145 0.0
C1331 C 0.63348 0.32223 0.38856 0.0
C1332 C 0.63192 0.30932 0.40218 0.0
C1333 C 0.63739 0.29136 0.39902 0.0
C1334 C 0.6413 0.37435 0.39425 0.0
C1335 C 0.62893 0.37878 0.40777 0.0
C1336 C 0.64192 0.35615 0.38701 0.0
C1337 C 0.6301 0.34199 0.39304 0.0
C1338 C 0.61654 0.34681 0.4052 0.0
C1339 C 0.61597 0.36499 0.41251 0.0
H1340 H 0.7449 0.70342 0.00514 0.0
H1341 H 0.7509 0.66352 0.95963 0.0
H1342 H 0.75016 0.6797 0.02695 0.0
H1343 H 0.75635 0.63981 0.98158 0.0
H1344 H 0.78329 0.60929 0.03081 0.0
H1345 H 0.78014 0.63288 0.00836 0.0
H1346 H 0.73087 0.64996 0.03315 0.0
H1347 H 0.73343 0.62603 0.05504 0.0
C1348 C 0.74755 0.68965 0.9998 0.0
C1349 C 0.7474 0.68532 0.98066 0.0
C1350 C 0.75047 0.67606 0.01228 0.0
C1351 C 0.75355 0.65793 0.00592 0.0
C1352 C 0.75408 0.65372 0.98683 0.0
C1353 C 0.75089 0.66726 0.97429 0.0
C1354 C 0.77163 0.61788 0.03134 0.0
C1355 C 0.75869 0.61578 0.04488 0.0
C1356 C 0.76991 0.63144 0.01853 0.0
C1357 C 0.75537 0.64332 0.01917 0.0
C1358 C 0.7424 0.64119 0.03258 0.0
C1359 C 0.74395 0.6275 0.04517 0.0
H1360 H 0.63587 0.29531 0.196 0.0
H1361 H 0.60232 0.24999 0.21515 0.0
H1362 H 0.61969 0.29052 0.16547 0.0
H1363 H 0.58612 0.24529 0.18463 0.0
H1364 H 0.57243 0.23209 0.12258 0.0
H1365 H 0.59147 0.23558 0.15171 0.0
H1366 H 0.58757 0.29475 0.15279 0.0
H1367 H 0.5688 0.29129 0.12361 0.0
C1368 C 0.62513 0.28425 0.19367 0.0
C1369 C 0.62032 0.27308 0.20802 0.0
C1370 C 0.61582 0.28158 0.17622 0.0
C1371 C 0.60161 0.26757 0.1727 0.0
C1372 C 0.59713 0.25608 0.18689 0.0
C1373 C 0.60633 0.25886 0.2044 0.0
C1374 C 0.57585 0.24584 0.12896 0.0
C1375 C 0.56909 0.26142 0.12089 0.0
C1376 C 0.5866 0.24782 0.14568 0.0
C1377 C 0.59097 0.26543 0.15453 0.0
C1378 C 0.58456 0.28102 0.14622 0.0
C1379 C 0.57368 0.27903 0.12962 0.0
H1380 H 0.94872 0.29638 0.7852 0.0
H1381 H 0.99661 0.33208 0.80457 0.0
H1382 H 0.93729 0.29848 0.81613 0.0
H1383 H 0.98505 0.3342 0.83555 0.0
H1384 H 0.94619 0.34685 0.88329 0.0
H1385 H 0.95782 0.34642 0.85239 0.0
H1386 H 0.9484 0.28704 0.84694 0.0
H1387 H 0.93736 0.28728 0.87795 0.0
C1388 C 0.95673 0.30481 0.79601 0.0
C1389 C 0.97361 0.31402 0.79245 0.0
C1390 C 0.95023 0.30591 0.81374 0.0
C1391 C 0.96035 0.3164 0.82825 0.0
C1392 C 0.97694 0.32609 0.82459 0.0
C1393 C 0.98356 0.32482 0.80688 0.0
C1394 C 0.94685 0.33366 0.87564 0.0
C1395 C 0.94072 0.3171 0.88313 0.0
C1396 C 0.95344 0.33345 0.85791 0.0
C1397 C 0.95384 0.31672 0.84723 0.0
C1398 C 0.94792 0.30017 0.85475 0.0
C1399 C 0.94154 0.30034 0.87252 0.0
H1400 H 0.43563 0.64872 0.264 0.0
H1401 H 0.37858 0.63099 0.26997 0.0
H1402 H 0.44436 0.63653 0.29334 0.0
H1403 H 0.3874 0.61775 0.29907 0.0
H1404 H 0.46022 0.60828 0.34232 0.0
H1405 H 0.44909 0.61166 0.31077 0.0
H1406 H 0.39633 0.62668 0.32964 0.0
H1407 H 0.40677 0.62122 0.36106 0.0
C1408 C 0.42499 0.64181 0.27141 0.0
C1409 C 0.4064 0.64094 0.26472 0.0
C1410 C 0.43002 0.63461 0.28825 0.0
C1411 C 0.41664 0.62603 0.29874 0.0
C1412 C 0.39809 0.6245 0.29161 0.0
C1413 C 0.39302 0.63199 0.27486 0.0
C1414 C 0.44602 0.61165 0.33981 0.0
C1415 C 0.43458 0.61485 0.35451 0.0
C1416 C 0.43972 0.61398 0.3216 0.0
C1417 C 0.42199 0.6201 0.31756 0.0
C1418 C 0.41011 0.62207 0.33208 0.0
C1419 C 0.41624 0.61923 0.35026 0.0
H1420 H 0.03684 0.71994 0.72954 0.0
H1421 H 0.98414 0.73507 0.70617 0.0
H1422 H 0.05156 0.72953 0.70207 0.0
H1423 H 0.99892 0.74455 0.67857 0.0
H1424 H 0.03712 0.77462 0.63911 0.0
H1425 H 0.02211 0.76765 0.66739 0.0
H1426 H 0.05016 0.71697 0.66947 0.0
H1427 H 0.06487 0.72369 0.6412 0.0
C1428 C 0.02842 0.72546 0.71862 0.0
C1429 C 0.00929 0.72663 0.71999 0.0
C1430 C 0.03684 0.73085 0.70283 0.0
C1431 C 0.02636 0.7376 0.68809 0.0
C1432 C 0.00737 0.73947 0.68975 0.0
C1433 C 0.9989 0.73398 0.70552 0.0
C1434 C 0.03992 0.7619 0.6455 0.0
C1435 C 0.05232 0.74979 0.63795 0.0
C1436 C 0.03137 0.75795 0.66172 0.0
C1437 C 0.03513 0.74187 0.67076 0.0
C1438 C 0.04731 0.72967 0.66306 0.0
C1439 C 0.05574 0.73355 0.64685 0.0
H1440 H 0.79998 0.33676 0.69278 0.0
H1441 H 0.78558 0.39356 0.69962 0.0
H1442 H 0.83265 0.3473 0.69214 0.0
H1443 H 0.8181 0.40397 0.69861 0.0
H1444 H 0.87277 0.41248 0.66904 0.0
H1445 H 0.8408 0.40056 0.67126 0.0
H1446 H 0.85836 0.36689 0.71526 0.0
H1447 H 0.89044 0.37908 0.71324 0.0
C1448 C 0.8038 0.35146 0.69426 0.0
C1449 C 0.79025 0.36435 0.69621 0.0
C1450 C 0.82245 0.35744 0.69394 0.0
C1451 C 0.82776 0.37641 0.69519 0.0
C1452 C 0.81427 0.38927 0.69747 0.0
C1453 C 0.79571 0.3833 0.69814 0.0
C1454 C 0.86981 0.40239 0.67904 0.0
C1455 C 0.88399 0.39664 0.69094 0.0
C1456 C 0.85156 0.3957 0.6804 0.0
C1457 C 0.84721 0.38291 0.69348 0.0
C1458 C 0.86144 0.37673 0.70506 0.0
C1459 C 0.87969 0.38371 0.70393 0.0
H1460 H 0.7245 0.60472 0.38564 0.0
H1461 H 0.69093 0.63994 0.35362 0.0
H1462 H 0.697 0.58522 0.39077 0.0
H1463 H 0.66357 0.62015 0.35821 0.0
H1464 H 0.61518 0.5884 0.38079 0.0
H1465 H 0.64235 0.60961 0.37959 0.0
H1466 H 0.6764 0.5631 0.3731 0.0
H1467 H 0.64925 0.54197 0.3744 0.0
C1468 C 0.71125 0.60831 0.3797 0.0
C1469 C 0.70992 0.62377 0.36907 0.0
C1470 C 0.6955 0.59704 0.38251 0.0
C1471 C 0.6781 0.60093 0.37465 0.0
C1472 C 0.67671 0.61679 0.36458 0.0
C1473 C 0.69243 0.62811 0.36186 0.0
C1474 C 0.62848 0.58274 0.3791 0.0
C1475 C 0.63007 0.56352 0.37768 0.0
C1476 C 0.64406 0.59488 0.37838 0.0
C1477 C 0.6616 0.58809 0.37627 0.0
C1478 C 0.66319 0.56884 0.37508 0.0
C1479 C 0.64761 0.55671 0.37581 0.0
H1480 H 0.31992 0.06423 0.23742 0.0
H1481 H 0.28817 0.0153 0.25134 0.0
H1482 H 0.34791 0.04696 0.23781 0.0
H1483 H 0.31617 0.99825 0.25201 0.0
H1484 H 0.37433 0.98356 0.2745 0.0
H1485 H 0.34693 0.00162 0.27326 0.0
H1486 H 0.35946 0.01787 0.21893 0.0
H1487 H 0.38681 0.99958 0.22007 0.0
C1488 C 0.31892 0.04981 0.24051 0.0
C1489 C 0.30187 0.04111 0.24435 0.0
C1490 C 0.33489 0.03995 0.24068 0.0
C1491 C 0.33415 0.02135 0.24504 0.0
C1492 C 0.31711 0.01263 0.24877 0.0
C1493 C 0.30109 0.02237 0.24827 0.0
C1494 C 0.3713 0.99114 0.26238 0.0
C1495 C 0.38264 0.99023 0.24738 0.0
C1496 C 0.35559 0.00132 0.26162 0.0
C1497 C 0.35111 0.01104 0.24598 0.0
C1498 C 0.36269 0.01053 0.23116 0.0
C1499 C 0.37823 5e-05 0.23178 0.0
H1500 H 0.20407 0.99948 0.66003 0.0
H1501 H 0.19111 0.95066 0.68917 0.0
H1502 H 0.17331 0.00982 0.66464 0.0
H1503 H 0.16053 0.96131 0.69439 0.0
H1504 H 0.10123 0.97923 0.68832 0.0
H1505 H 0.13075 0.96713 0.68067 0.0
H1506 H 0.15711 0.02221 0.68951 0.0
H1507 H 0.12767 0.03421 0.6967 0.0
C1508 C 0.19464 0.99095 0.66741 0.0
C1509 C 0.20007 0.97431 0.67433 0.0
C1510 C 0.17703 0.99693 0.67018 0.0
C1511 C 0.16448 0.98652 0.68009 0.0
C1512 C 0.16975 0.9696 0.68654 0.0
C1513 C 0.18733 0.96354 0.68364 0.0
C1514 C 0.11338 0.98868 0.68863 0.0
C1515 C 0.11212 0.00767 0.69297 0.0
C1516 C 0.13029 0.98178 0.68428 0.0
C1517 C 0.14632 0.99371 0.68434 0.0
C1518 C 0.14501 0.01267 0.68887 0.0
C1519 C 0.12813 0.01956 0.69306 0.0
H1520 H 0.67298 0.8099 0.33351 0.0
H1521 H 0.72105 0.80285 0.36985 0.0
H1522 H 0.67548 0.84306 0.34201 0.0
H1523 H 0.72348 0.83597 0.37834 0.0
H1524 H 0.73163 0.89869 0.37682 0.0
H1525 H 0.73 0.8665 0.3647 0.0
H1526 H 0.67118 0.86248 0.37104 0.0
H1527 H 0.67279 0.89445 0.38357 0.0
C1528 C 0.68415 0.81544 0.3432 0.0
C1529 C 0.69678 0.80374 0.35107 0.0
C1530 C 0.68552 0.8344 0.34812 0.0
C1531 C 0.69965 0.84208 0.36085 0.0
C1532 C 0.71256 0.83046 0.36835 0.0
C1533 C 0.71109 0.81148 0.36357 0.0
C1534 C 0.71834 0.89094 0.37568 0.0
C1535 C 0.70236 0.89916 0.38129 0.0
C1536 C 0.71743 0.87253 0.36869 0.0
C1537 C 0.70048 0.86198 0.36699 0.0
C1538 C 0.6844 0.87034 0.372 0.0
C1539 C 0.68533 0.8887 0.37913 0.0
H1540 H 0.67496 0.19651 0.04588 0.0
H1541 H 0.63863 0.17466 0.99935 0.0
H1542 H 0.67764 0.16528 0.0561 0.0
H1543 H 0.64119 0.14341 0.00976 0.0
H1544 H 0.63492 0.09496 0.04964 0.0
H1545 H 0.63195 0.12585 0.03833 0.0
H1546 H 0.69134 0.13554 0.04312 0.0
H1547 H 0.69431 0.10468 0.05433 0.0
C1548 C 0.66749 0.18506 0.03788 0.0
C1549 C 0.65659 0.18804 0.02181 0.0
C1550 C 0.66912 0.16719 0.04367 0.0
C1551 C 0.65965 0.15197 0.03369 0.0
C1552 C 0.64856 0.15494 0.01775 0.0
C1553 C 0.64716 0.17279 0.01177 0.0
C1554 C 0.64731 0.10371 0.04822 0.0
C1555 C 0.66484 0.09746 0.05283 0.0
C1556 C 0.64562 0.12129 0.04166 0.0
C1557 C 0.66141 0.13306 0.03992 0.0
C1558 C 0.67894 0.12678 0.04447 0.0
C1559 C 0.68064 0.1091 0.05073 0.0
H1560 H 0.36783 0.72809 0.58896 0.0
H1561 H 0.34648 0.70892 0.63922 0.0
H1562 H 0.36631 0.6964 0.57571 0.0
H1563 H 0.34521 0.67713 0.62601 0.0
H1564 H 0.31957 0.62976 0.58491 0.0
H1565 H 0.32556 0.65978 0.6014 0.0
H1566 H 0.3783 0.66609 0.57732 0.0
H1567 H 0.37309 0.63545 0.56193 0.0
C1568 C 0.36309 0.71709 0.5973 0.0
C1569 C 0.35704 0.72106 0.61504 0.0
C1570 C 0.36229 0.69889 0.58972 0.0
C1571 C 0.35538 0.68427 0.59971 0.0
C1572 C 0.35022 0.68815 0.61782 0.0
C1573 C 0.35108 0.70635 0.62543 0.0
C1574 C 0.33275 0.63717 0.58354 0.0
C1575 C 0.34581 0.62997 0.57195 0.0
C1576 C 0.33613 0.6545 0.59298 0.0
C1577 C 0.3525 0.66527 0.59081 0.0
C1578 C 0.36557 0.65813 0.57931 0.0
C1579 C 0.36245 0.64059 0.57029 0.0
H1580 H 0.23083 0.30526 0.02651 0.0
H1581 H 0.26364 0.33957 0.0685 0.0
H1582 H 0.22699 0.33214 0.00831 0.0
H1583 H 0.25981 0.36641 0.05023 0.0
H1584 H 0.26953 0.4005 0.99861 0.0
H1585 H 0.2711 0.37552 0.01946 0.0
H1586 H 0.21232 0.36305 0.00977 0.0
H1587 H 0.21053 0.38844 0.9893 0.0
C1588 C 0.2371 0.31855 0.03192 0.0
C1589 C 0.2476 0.32028 0.04891 0.0
C1590 C 0.23481 0.33395 0.02154 0.0
C1591 C 0.24315 0.35133 0.02785 0.0
C1592 C 0.25337 0.35313 0.04498 0.0
C1593 C 0.25548 0.33778 0.05546 0.0
C1594 C 0.25684 0.39273 0.00119 0.0
C1595 C 0.2399 0.39651 0.99219 0.0
C1596 C 0.25778 0.37837 0.01311 0.0
C1597 C 0.24184 0.36732 0.01618 0.0
C1598 C 0.22485 0.37122 0.00747 0.0
C1599 C 0.22387 0.38572 0.99569 0.0
H1600 H 0.36233 0.69026 0.8029 0.0
H1601 H 0.39683 0.73638 0.7868 0.0
H1602 H 0.37689 0.69414 0.83408 0.0
H1603 H 0.41095 0.74072 0.81818 0.0
H1604 H 0.448 0.72761 0.8684 0.0
H1605 H 0.43202 0.72592 0.83784 0.0
H1606 H 0.38017 0.7132 0.8621 0.0
H1607 H 0.39635 0.71448 0.89266 0.0
C1608 C 0.37285 0.7014 0.80609 0.0
C1609 C 0.37851 0.71294 0.79235 0.0
C1610 C 0.38114 0.7037 0.82402 0.0
C1611 C 0.39518 0.7177 0.82867 0.0
C1612 C 0.40044 0.72958 0.81502 0.0
C1613 C 0.39226 0.72717 0.79705 0.0
C1614 C 0.43315 0.72466 0.8672 0.0
C1615 C 0.42342 0.72116 0.8829 0.0
C1616 C 0.42396 0.72374 0.84969 0.0
C1617 C 0.40477 0.71944 0.84746 0.0
C1618 C 0.39499 0.71625 0.86325 0.0
C1619 C 0.40423 0.71702 0.88077 0.0
H1620 H 0.02712 0.65255 0.20295 0.0
H1621 H 0.97562 0.67407 0.18389 0.0
H1622 H 0.03972 0.65792 0.17315 0.0
H1623 H 0.98829 0.67946 0.15412 0.0
H1624 H 0.02784 0.70799 0.11463 0.0
H1625 H 0.01358 0.70084 0.14311 0.0
H1626 H 0.03444 0.6464 0.1395 0.0
H1627 H 0.04828 0.65326 0.11068 0.0
C1628 C 0.01846 0.65834 0.19238 0.0
C1629 C 0.00039 0.66292 0.19579 0.0
C1630 C 0.02565 0.66132 0.17529 0.0
C1631 C 0.01499 0.66913 0.16134 0.0
C1632 C 0.99687 0.67357 0.16468 0.0
C1633 C 0.9896 0.67039 0.18169 0.0
C1634 C 0.02913 0.69436 0.11967 0.0
C1635 C 0.03926 0.68122 0.1103 0.0
C1636 C 0.02099 0.69031 0.13604 0.0
C1637 C 0.02295 0.67309 0.14354 0.0
C1638 C 0.03291 0.65988 0.13415 0.0
C1639 C 0.04089 0.66385 0.11767 0.0
H1640 H 0.63063 0.3681 0.73247 0.0
H1641 H 0.66187 0.32985 0.70109 0.0
H1642 H 0.61455 0.37626 0.704 0.0
H1643 H 0.64534 0.33742 0.67272 0.0
H1644 H 0.62037 0.36205 0.62237 0.0
H1645 H 0.63948 0.35885 0.65057 0.0
H1646 H 0.59141 0.36305 0.68255 0.0
H1647 H 0.57239 0.36623 0.65447 0.0
C1648 C 0.63411 0.36147 0.71947 0.0
C1649 C 0.64739 0.34819 0.71905 0.0
C1650 C 0.62477 0.36603 0.70315 0.0
C1651 C 0.62839 0.3573 0.68603 0.0
C1652 C 0.64226 0.34458 0.68557 0.0
C1653 C 0.65169 0.34013 0.70189 0.0
C1654 C 0.61391 0.36231 0.63545 0.0
C1655 C 0.59483 0.36432 0.63614 0.0
C1656 C 0.62487 0.36044 0.65162 0.0
C1657 C 0.61705 0.36061 0.6689 0.0
C1658 C 0.59805 0.36318 0.6696 0.0
C1659 C 0.58709 0.36502 0.65344 0.0
H1660 H 0.00613 0.24319 0.30682 0.0
H1661 H 0.05268 0.27781 0.33157 0.0
H1662 H 0.99137 0.24494 0.3362 0.0
H1663 H 0.03779 0.27966 0.36088 0.0
H1664 H 0.99024 0.29899 0.39738 0.0
H1665 H 0.00837 0.29464 0.37051 0.0
H1666 H 0.99638 0.23566 0.36977 0.0
H1667 H 0.9788 0.23981 0.39718 0.0
C1668 C 0.01328 0.25103 0.31857 0.0
C1669 C 0.03053 0.26042 0.31686 0.0
C1670 C 0.00487 0.25195 0.33539 0.0
C1671 C 0.01343 0.26249 0.35076 0.0
C1672 C 0.03085 0.27154 0.34919 0.0
C1673 C 0.03939 0.2704 0.33244 0.0
C1674 C 0.9918 0.28503 0.39185 0.0
C1675 C 0.98295 0.26977 0.3995 0.0
C1676 C 0.00215 0.28257 0.37637 0.0
C1677 C 0.00371 0.26483 0.36804 0.0
C1678 C 0.99521 0.24951 0.37582 0.0
C1679 C 0.98507 0.25194 0.39147 0.0
H1680 H 0.26584 0.57869 0.32663 0.0
H1681 H 0.31846 0.60994 0.33498 0.0
H1682 H 0.27127 0.56519 0.35634 0.0
H1683 H 0.32397 0.59649 0.36463 0.0
H1684 H 0.27782 0.56514 0.42002 0.0
H1685 H 0.27274 0.57523 0.38885 0.0
H1686 H 0.32997 0.56771 0.3789 0.0
H1687 H 0.33507 0.55765 0.41019 0.0
C1688 C 0.27864 0.58255 0.33478 0.0
C1689 C 0.29192 0.59504 0.32832 0.0
C1690 C 0.28172 0.57489 0.35181 0.0
C1691 C 0.29809 0.57969 0.36283 0.0
C1692 C 0.31139 0.59217 0.35631 0.0
C1693 C 0.30831 0.59981 0.33925 0.0
C1694 C 0.28924 0.56531 0.41108 0.0
C1695 C 0.30686 0.56064 0.41761 0.0
C1696 C 0.28633 0.57111 0.3932 0.0
C1697 C 0.30097 0.57236 0.3814 0.0
C1698 C 0.31848 0.5672 0.38775 0.0
C1699 C 0.32139 0.56142 0.40566 0.0
H1700 H 0.24025 0.4107 0.72844 0.0
H1701 H 0.20443 0.36757 0.74841 0.0
H1702 H 0.24724 0.42349 0.7601 0.0
H1703 H 0.21099 0.38062 0.77989 0.0
H1704 H 0.23703 0.39922 0.83626 0.0
H1705 H 0.23428 0.3855 0.80467 0.0
H1706 H 0.23203 0.43998 0.78399 0.0
H1707 H 0.23515 0.45367 0.81565 0.0
C1708 C 0.23392 0.4039 0.73958 0.0
C1709 C 0.22174 0.38813 0.73587 0.0
C1710 C 0.23783 0.41131 0.75772 0.0
C1711 C 0.22962 0.40315 0.77256 0.0
C1712 C 0.21778 0.38713 0.76885 0.0
C1713 C 0.21393 0.37969 0.75075 0.0
C1714 C 0.23596 0.40825 0.82494 0.0
C1715 C 0.23616 0.42751 0.82842 0.0
C1716 C 0.23436 0.4004 0.80684 0.0
C1717 C 0.23278 0.41161 0.79176 0.0
C1718 C 0.23345 0.43093 0.79525 0.0
C1719 C 0.23518 0.43879 0.81338 0.0
H1720 H 0.75362 0.95523 0.61935 0.0
H1721 H 0.77461 0.01234 0.621 0.0
H1722 H 0.74216 0.95716 0.58717 0.0
H1723 H 0.76329 0.01413 0.58887 0.0
H1724 H 0.76141 0.00038 0.52532 0.0
H1725 H 0.77163 0.99898 0.5579 0.0
H1726 H 0.71791 0.97487 0.56896 0.0
H1727 H 0.70766 0.97633 0.53632 0.0
C1728 C 0.75576 0.96818 0.61287 0.0
C1729 C 0.76505 0.98362 0.62271 0.0
C1730 C 0.74913 0.9693 0.59451 0.0
C1731 C 0.7519 0.98578 0.58557 0.0
C1732 C 0.76111 0.00122 0.59541 0.0
C1733 C 0.7675 0.00019 0.61382 0.0
C1734 C 0.75181 0.99479 0.53473 0.0
C1735 C 0.73376 0.98847 0.52835 0.0
C1736 C 0.75761 0.99409 0.55335 0.0
C1737 C 0.74555 0.98681 0.5659 0.0
C1738 C 0.7275 0.98045 0.55953 0.0
C1739 C 0.7216 0.98141 0.54094 0.0
H1740 H 0.75729 0.00677 0.2774 0.0
H1741 H 0.70889 0.03482 0.29176 0.0
H1742 H 0.74628 0.00494 0.24484 0.0
H1743 H 0.6976 0.03259 0.25924 0.0
H1744 H 0.6968 0.04379 0.19667 0.0
H1745 H 0.70653 0.04554 0.22953 0.0
H1746 H 0.72041 0.98853 0.22485 0.0
H1747 H 0.71035 0.98659 0.19212 0.0
C1748 C 0.74425 0.01246 0.27358 0.0
C1749 C 0.73375 0.02059 0.28713 0.0
C1750 C 0.73788 0.01129 0.25498 0.0
C1751 C 0.72099 0.01846 0.24952 0.0
C1752 C 0.71065 0.02693 0.26304 0.0
C1753 C 0.71698 0.02796 0.28169 0.0
C1754 C 0.70166 0.03153 0.20269 0.0
C1755 C 0.70286 0.01506 0.19169 0.0
C1756 C 0.70727 0.03257 0.22151 0.0
C1757 C 0.71432 0.0172 0.22973 0.0
C1758 C 0.71531 0.00069 0.21883 0.0
C1759 C 0.70958 0.9996 0.20006 0.0
H1760 H 0.34577 0.28627 0.5981 0.0
H1761 H 0.35179 0.33547 0.6351 0.0
H1762 H 0.37781 0.29125 0.59042 0.0
H1763 H 0.38374 0.34061 0.62713 0.0
H1764 H 0.44507 0.33767 0.61722 0.0
H1765 H 0.41485 0.32932 0.62845 0.0
H1766 H 0.39366 0.31389 0.57242 0.0
H1767 H 0.42378 0.32225 0.56122 0.0
C1768 C 0.35399 0.29801 0.60479 0.0
C1769 C 0.34616 0.31056 0.61709 0.0
C1770 C 0.37232 0.30094 0.60027 0.0
C1771 C 0.38323 0.31648 0.60793 0.0
C1772 C 0.37573 0.32845 0.62105 0.0
C1773 C 0.35739 0.32551 0.6256 0.0
C1774 C 0.43392 0.33259 0.6073 0.0
C1775 C 0.43682 0.33067 0.58831 0.0
C1776 C 0.41663 0.32776 0.61374 0.0
C1777 C 0.40188 0.32086 0.60135 0.0
C1778 C 0.40483 0.31881 0.58238 0.0
C1779 C 0.42209 0.32365 0.57595 0.0
H1780 H 0.27586 0.76838 0.0259 0.0
H1781 H 0.28425 0.7138 0.04397 0.0
H1782 H 0.24254 0.76237 0.02637 0.0
H1783 H 0.2509 0.70779 0.04487 0.0
H1784 H 0.18976 0.69662 0.02565 0.0
H1785 H 0.22322 0.70224 0.02564 0.0
H1786 H 0.21839 0.75871 0.04644 0.0
H1787 H 0.18491 0.75313 0.04584 0.0
C1788 C 0.27054 0.75511 0.03006 0.0
C1789 C 0.2826 0.74143 0.03456 0.0
C1790 C 0.25144 0.75167 0.03044 0.0
C1791 C 0.24396 0.73457 0.03564 0.0
C1792 C 0.25612 0.72097 0.04041 0.0
C1793 C 0.27524 0.72437 0.03985 0.0
C1794 C 0.19592 0.71018 0.03032 0.0
C1795 C 0.18476 0.72446 0.03568 0.0
C1796 C 0.2151 0.71341 0.03038 0.0
C1797 C 0.22357 0.73096 0.036 0.0
C1798 C 0.21236 0.74513 0.04166 0.0
C1799 C 0.19317 0.74195 0.0414 0.0
H1800 H 0.74928 0.25803 0.37007 0.0
H1801 H 0.7255 0.24974 0.42235 0.0
H1802 H 0.77892 0.26808 0.38644 0.0
H1803 H 0.75521 0.25961 0.43862 0.0
H1804 H 0.81796 0.25062 0.45389 0.0
H1805 H 0.78664 0.24477 0.43952 0.0
H1806 H 0.7935 0.29419 0.40975 0.0
H1807 H 0.82484 0.30013 0.42427 0.0
C1808 C 0.75034 0.25849 0.38504 0.0
C1809 C 0.73507 0.25301 0.39491 0.0
C1810 C 0.76726 0.26434 0.39439 0.0
C1811 C 0.76933 0.26456 0.41377 0.0
C1812 C 0.75399 0.25946 0.42366 0.0
C1813 C 0.73699 0.25388 0.41434 0.0
C1814 C 0.81267 0.26031 0.44442 0.0
C1815 C 0.82376 0.2758 0.44014 0.0
C1816 C 0.79476 0.25703 0.43629 0.0
C1817 C 0.7877 0.26902 0.42352 0.0
C1818 C 0.79866 0.28471 0.4195 0.0
C1819 C 0.81649 0.28816 0.42787 0.0
H1820 H 0.66967 0.71618 0.96488 0.0
H1821 H 0.66686 0.76976 0.94246 0.0
H1822 H 0.63685 0.71588 0.97039 0.0
H1823 H 0.634 0.76964 0.94833 0.0
H1824 H 0.57172 0.74801 0.93957 0.0
H1825 H 0.60486 0.75138 0.93582 0.0
H1826 H 0.61564 0.73269 0.99053 0.0
H1827 H 0.5825 0.7297 0.99454 0.0
C1828 C 0.66204 0.72796 0.96125 0.0
C1829 C 0.67087 0.74312 0.9535 0.0
C1830 C 0.6433 0.72785 0.96456 0.0
C1831 C 0.6329 0.7428 0.95994 0.0
C1832 C 0.64169 0.75794 0.95205 0.0
C1833 C 0.66053 0.75812 0.94891 0.0
C1834 C 0.58113 0.74497 0.95097 0.0
C1835 C 0.57439 0.73849 0.96734 0.0
C1836 C 0.60013 0.74687 0.94878 0.0
C1837 C 0.61282 0.74221 0.96284 0.0
C1838 C 0.60615 0.73614 0.97936 0.0
C1839 C 0.58716 0.73437 0.98162 0.0
H1840 H 0.63093 0.32496 0.32874 0.0
H1841 H 0.60057 0.33115 0.2769 0.0
H1842 H 0.61742 0.35225 0.34236 0.0
H1843 H 0.58636 0.35791 0.29046 0.0
H1844 H 0.57752 0.39278 0.36572 0.0
H1845 H 0.59014 0.36459 0.35297 0.0
H1846 H 0.5936 0.38887 0.30021 0.0
H1847 H 0.58046 0.41653 0.3128 0.0
C1848 C 0.62107 0.33202 0.32042 0.0
C1849 C 0.61663 0.32594 0.3019 0.0
C1850 C 0.61331 0.34764 0.32816 0.0
C1851 C 0.60076 0.35737 0.31753 0.0
C1852 C 0.59621 0.35103 0.299 0.0
C1853 C 0.60423 0.33563 0.29122 0.0
C1854 C 0.58093 0.39197 0.35138 0.0
C1855 C 0.57781 0.40675 0.34018 0.0
C1856 C 0.58826 0.37588 0.34408 0.0
C1857 C 0.59281 0.37434 0.32548 0.0
C1858 C 0.58983 0.38929 0.31442 0.0
C1859 C 0.58233 0.40521 0.32165 0.0
H1860 H 0.04282 0.24687 0.70937 0.0
H1861 H 0.00848 0.2424 0.75574 0.0
H1862 H 0.04874 0.21425 0.71042 0.0
H1863 H 0.01417 0.20972 0.75654 0.0
H1864 H 0.03878 0.15354 0.76072 0.0
H1865 H 0.03747 0.18716 0.76228 0.0
H1866 H 0.02966 0.18561 0.70273 0.0
H1867 H 0.03083 0.15217 0.70117 0.0
C1868 C 0.03668 0.239 0.71991 0.0
C1869 C 0.02503 0.24722 0.73236 0.0
C1870 C 0.03998 0.22027 0.72043 0.0
C1871 C 0.03175 0.20935 0.73343 0.0
C1872 C 0.02082 0.21777 0.74644 0.0
C1873 C 0.01748 0.2365 0.74591 0.0
C1874 C 0.03673 0.16039 0.74798 0.0
C1875 C 0.03493 0.15016 0.73082 0.0
C1876 C 0.03603 0.17964 0.74887 0.0
C1877 C 0.03355 0.18905 0.73263 0.0
C1878 C 0.03196 0.17883 0.71549 0.0
C1879 C 0.03262 0.15963 0.7146 0.0
H1880 H 0.41227 0.73012 0.24843 0.0
H1881 H 0.37275 0.74711 0.20689 0.0
H1882 H 0.42168 0.76247 0.25704 0.0
H1883 H 0.38246 0.77929 0.21516 0.0
H1884 H 0.39443 0.83653 0.24212 0.0
H1885 H 0.38281 0.80422 0.23846 0.0
H1886 H 0.43884 0.78725 0.24343 0.0
H1887 H 0.45041 0.81958 0.24733 0.0
C1888 C 0.40546 0.74073 0.24125 0.0
C1889 C 0.39182 0.736 0.22689 0.0
C1890 C 0.41096 0.75928 0.24609 0.0
C1891 C 0.40294 0.77349 0.23669 0.0
C1892 C 0.3888 0.76874 0.22284 0.0
C1893 C 0.38329 0.75024 0.21802 0.0
C1894 C 0.40425 0.82588 0.24243 0.0
C1895 C 0.42334 0.83059 0.24486 0.0
C1896 C 0.3976 0.80737 0.24034 0.0
C1897 C 0.40989 0.79312 0.24055 0.0
C1898 C 0.42897 0.79785 0.24346 0.0
C1899 C 0.43561 0.81638 0.24564 0.0
H1900 H 0.95412 0.62525 0.77621 0.0
H1901 H 0.98065 0.64376 0.72826 0.0
H1902 H 0.9538 0.59339 0.76356 0.0
H1903 H 0.98002 0.61189 0.71548 0.0
H1904 H 0.99747 0.55176 0.71182 0.0
H1905 H 0.99571 0.58404 0.72256 0.0
H1906 H 0.94012 0.57199 0.73855 0.0
H1907 H 0.94186 0.53971 0.72779 0.0
C1908 C 0.95967 0.62257 0.76287 0.0
C1909 C 0.9675 0.63707 0.75331 0.0
C1910 C 0.95941 0.60429 0.75558 0.0
C1911 C 0.96699 0.6001 0.73857 0.0
C1912 C 0.97434 0.61465 0.72876 0.0
C1913 C 0.97458 0.63293 0.73603 0.0
C1914 C 0.9848 0.55604 0.71744 0.0
C1915 C 0.96984 0.54315 0.71902 0.0
C1916 C 0.98378 0.57454 0.72357 0.0
C1917 C 0.96777 0.58058 0.73142 0.0
C1918 C 0.95274 0.56772 0.73282 0.0
C1919 C 0.95376 0.54923 0.72668 0.0
H1920 H 0.6711 0.36539 0.64421 0.0
H1921 H 0.72667 0.38767 0.63825 0.0
H1922 H 0.66032 0.38037 0.61657 0.0
H1923 H 0.71603 0.40254 0.61048 0.0
H1924 H 0.68443 0.44351 0.57567 0.0
H1925 H 0.69481 0.4285 0.60329 0.0
H1926 H 0.66536 0.37753 0.58202 0.0
H1927 H 0.65551 0.39218 0.55409 0.0
C1928 C 0.68093 0.37363 0.63703 0.0
C1929 C 0.69959 0.37568 0.64347 0.0
C1930 C 0.67484 0.38203 0.62114 0.0
C1931 C 0.68734 0.39273 0.61148 0.0
C1932 C 0.70607 0.39457 0.61781 0.0
C1933 C 0.71218 0.38597 0.63357 0.0
C1934 C 0.68031 0.42905 0.57674 0.0
C1935 C 0.66911 0.4191 0.56256 0.0
C1936 C 0.68622 0.42049 0.5926 0.0
C1937 C 0.68089 0.40187 0.59477 0.0
C1938 C 0.6695 0.39197 0.58079 0.0
C1939 C 0.66379 0.40044 0.56483 0.0
H1940 H 0.79411 0.60158 0.30602 0.0
H1941 H 0.76233 0.64527 0.28554 0.0
H1942 H 0.79478 0.58776 0.27464 0.0
H1943 H 0.76244 0.63108 0.25417 0.0
H1944 H 0.74686 0.5869 0.20675 0.0
H1945 H 0.74846 0.60186 0.23784 0.0
H1946 H 0.80699 0.59406 0.24354 0.0
H1947 H 0.80533 0.57882 0.2124 0.0
C1948 C 0.7878 0.60858 0.29477 0.0
C1949 C 0.77869 0.62486 0.29818 0.0
C1950 C 0.78797 0.60052 0.2768 0.0
C1951 C 0.7787 0.60837 0.26195 0.0
C1952 C 0.76959 0.62465 0.26537 0.0
C1953 C 0.76957 0.63279 0.2833 0.0
C1954 C 0.76004 0.58824 0.21469 0.0
C1955 C 0.77596 0.58162 0.20718 0.0
C1956 C 0.761 0.59699 0.23241 0.0
C1957 C 0.77787 0.5992 0.24307 0.0
C1958 C 0.79378 0.59246 0.23565 0.0
C1959 C 0.79286 0.58386 0.21782 0.0
H1960 H 0.22851 0.08688 0.31038 0.0
H1961 H 0.23794 0.02874 0.30651 0.0
H1962 H 0.22516 0.08563 0.34354 0.0
H1963 H 0.23558 0.02749 0.33966 0.0
H1964 H 0.22122 0.02658 0.39857 0.0
H1965 H 0.21778 0.02819 0.3652 0.0
H1966 H 0.24326 0.08381 0.37053 0.0
H1967 H 0.24507 0.08281 0.4038 0.0
C1968 C 0.22978 0.07382 0.31668 0.0
C1969 C 0.23325 0.05787 0.30592 0.0
C1970 C 0.22802 0.07308 0.3357 0.0
C1971 C 0.23021 0.05647 0.34446 0.0
C1972 C 0.2334 0.04046 0.33349 0.0
C1973 C 0.23479 0.04114 0.31444 0.0
C1974 C 0.2257 0.03931 0.39267 0.0
C1975 C 0.23362 0.05448 0.40399 0.0
C1976 C 0.22398 0.04014 0.37344 0.0
C1977 C 0.2304 0.05607 0.365 0.0
C1978 C 0.23792 0.07136 0.37639 0.0
C1979 C 0.23932 0.07065 0.39558 0.0
H1980 H 0.32257 0.96824 0.71995 0.0
H1981 H 0.26962 0.9869 0.73424 0.0
H1982 H 0.33421 0.97347 0.75232 0.0
H1983 H 0.28114 0.99194 0.7666 0.0
H1984 H 0.31354 0.01443 0.81996 0.0
H1985 H 0.30521 0.01244 0.78669 0.0
H1986 H 0.32622 0.95809 0.78185 0.0
H1987 H 0.33456 0.96009 0.81509 0.0
C1988 C 0.31357 0.97384 0.72995 0.0
C1989 C 0.29531 0.97747 0.7246 0.0
C1990 C 0.32015 0.97661 0.74848 0.0
C1991 C 0.30859 0.98319 0.76192 0.0
C1992 C 0.29042 0.98709 0.75648 0.0
C1993 C 0.2838 0.9841 0.73802 0.0
C1994 C 0.31661 0.00219 0.81172 0.0
C1995 C 0.32463 0.98738 0.82006 0.0
C1996 C 0.31174 0.00101 0.79274 0.0
C1997 C 0.31505 0.9851 0.78173 0.0
C1998 C 0.32365 0.97057 0.78999 0.0
C1999 C 0.32828 0.97165 0.80899 0.0
H2000 H 0.66748 0.70291 0.40034 0.0
H2001 H 0.62982 0.71962 0.35711 0.0
H2002 H 0.64141 0.68992 0.41616 0.0
H2003 H 0.6037 0.70712 0.37315 0.0
H2004 H 0.56082 0.69879 0.41534 0.0
H2005 H 0.58784 0.71282 0.40192 0.0
H2006 H 0.61722 0.66384 0.411 0.0
H2007 H 0.59028 0.64994 0.42486 0.0
C2008 C 0.65366 0.70346 0.39403 0.0
C2009 C 0.65071 0.71169 0.37716 0.0
C2010 C 0.63873 0.69622 0.40319 0.0
C2011 C 0.62051 0.6974 0.39584 0.0
C2012 C 0.61756 0.70612 0.37924 0.0
C2013 C 0.63251 0.71323 0.37002 0.0
C2014 C 0.57316 0.69114 0.41479 0.0
C2015 C 0.57342 0.67325 0.42117 0.0
C2016 C 0.58855 0.69909 0.4069 0.0
C2017 C 0.6046 0.68938 0.40528 0.0
C2018 C 0.60509 0.67171 0.41215 0.0
C2019 C 0.58962 0.66369 0.41995 0.0
H2020 H 0.70846 0.30329 0.00049 0.0
H2021 H 0.71683 0.24607 0.9858 0.0
H2022 H 0.74046 0.31167 0.99514 0.0
H2023 H 0.7483 0.25461 0.97847 0.0
H2024 H 0.80943 0.27107 0.9884 0.0
H2025 H 0.77708 0.26301 0.99295 0.0
H2026 H 0.7626 0.31595 0.97392 0.0
H2027 H 0.79525 0.32426 0.97048 0.0
C2028 C 0.7172 0.29245 0.9964 0.0
C2029 C 0.71034 0.27389 0.99454 0.0
C2030 C 0.73549 0.29732 0.99276 0.0
C2031 C 0.74723 0.2838 0.98664 0.0
C2032 C 0.73995 0.26537 0.98374 0.0
C2033 C 0.72179 0.26047 0.98773 0.0
C2034 C 0.79926 0.28092 0.98518 0.0
C2035 C 0.80475 0.29826 0.97912 0.0
C2036 C 0.78067 0.27628 0.98763 0.0
C2037 C 0.76705 0.28876 0.98372 0.0
C2038 C 0.77263 0.30608 0.97741 0.0
C2039 C 0.79131 0.31084 0.97531 0.0
H2040 H 0.28171 0.77818 0.62982 0.0
H2041 H 0.2964 0.81288 0.58601 0.0
H2042 H 0.24945 0.77651 0.61795 0.0
H2043 H 0.26402 0.81178 0.57457 0.0
H2044 H 0.19989 0.81787 0.57259 0.0
H2045 H 0.23235 0.82132 0.5844 0.0
H2046 H 0.23239 0.76228 0.58879 0.0
H2047 H 0.20007 0.75885 0.57719 0.0
C2048 C 0.27801 0.78569 0.61783 0.0
C2049 C 0.29156 0.79608 0.60917 0.0
C2050 C 0.25957 0.78469 0.61101 0.0
C2051 C 0.25425 0.79405 0.59537 0.0
C2052 C 0.26771 0.80469 0.58685 0.0
C2053 C 0.28623 0.80554 0.59357 0.0
C2054 C 0.20689 0.80566 0.57605 0.0
C2055 C 0.19748 0.78809 0.57393 0.0
C2056 C 0.22545 0.80762 0.5827 0.0
C2057 C 0.23482 0.79208 0.58762 0.0
C2058 C 0.22545 0.77452 0.5853 0.0
C2059 C 0.20702 0.77254 0.57847 0.0
H2060 H 0.32469 0.2619 0.08696 0.0
H2061 H 0.30977 0.23482 0.03312 0.0
H2062 H 0.35723 0.25887 0.08195 0.0
H2063 H 0.34227 0.23065 0.02853 0.0
H2064 H 0.40275 0.24921 0.01819 0.0
H2065 H 0.36967 0.24886 0.02268 0.0
H2066 H 0.38043 0.23714 0.07988 0.0
H2067 H 0.41347 0.23798 0.07543 0.0
C2068 C 0.32836 0.25495 0.07419 0.0
C2069 C 0.31461 0.24816 0.06065 0.0
C2070 C 0.34701 0.25306 0.07137 0.0
C2071 C 0.35241 0.24433 0.05491 0.0
C2072 C 0.33862 0.23747 0.04137 0.0
C2073 C 0.31993 0.23948 0.04417 0.0
C2074 C 0.39797 0.24634 0.03164 0.0
C2075 C 0.41067 0.24381 0.04651 0.0
C2076 C 0.37902 0.24608 0.03423 0.0
C2077 C 0.37237 0.24313 0.0517 0.0
C2078 C 0.38508 0.23987 0.06635 0.0
C2079 C 0.404 0.24029 0.0638 0.0
H2080 H 0.36849 0.65397 0.67361 0.0
H2081 H 0.40339 0.65657 0.72401 0.0
H2082 H 0.38298 0.62627 0.66252 0.0
H2083 H 0.41826 0.62906 0.71283 0.0
H2084 H 0.4228 0.56725 0.69542 0.0
H2085 H 0.41111 0.5963 0.70668 0.0
H2086 H 0.41171 0.61591 0.65166 0.0
H2087 H 0.42329 0.58673 0.64038 0.0
C2088 C 0.37962 0.64886 0.68208 0.0
C2089 C 0.38512 0.65759 0.69945 0.0
C2090 C 0.38791 0.63301 0.67576 0.0
C2091 C 0.40196 0.62558 0.68667 0.0
C2092 C 0.40741 0.63434 0.70412 0.0
C2093 C 0.39897 0.65011 0.7105 0.0
C2094 C 0.42077 0.57789 0.6858 0.0
C2095 C 0.42393 0.57466 0.667 0.0
C2096 C 0.41405 0.59456 0.69225 0.0
C2097 C 0.41036 0.60841 0.68006 0.0
C2098 C 0.41407 0.6054 0.66136 0.0
C2099 C 0.42075 0.5887 0.6549 0.0
H2100 H 0.96031 0.71512 0.2771 0.0
H2101 H 0.0141 0.71019 0.30437 0.0
H2102 H 0.96039 0.747 0.28975 0.0
H2103 H 0.01377 0.74169 0.31794 0.0
H2104 H 0.01651 0.80533 0.31739 0.0
H2105 H 0.01639 0.77259 0.30782 0.0
H2106 H 0.9584 0.76582 0.31798 0.0
H2107 H 0.95851 0.79867 0.32734 0.0
C2108 C 0.97201 0.72076 0.28608 0.0
C2109 C 0.98698 0.71 0.29014 0.0
C2110 C 0.97199 0.73897 0.29348 0.0
C2111 C 0.98702 0.74688 0.30501 0.0
C2112 C 0.00199 0.73606 0.30908 0.0
C2113 C 0.00202 0.71786 0.30162 0.0
C2114 C 0.00381 0.79678 0.31786 0.0
C2115 C 0.9875 0.80459 0.32305 0.0
C2116 C 0.00374 0.778 0.31239 0.0
C2117 C 0.98736 0.76657 0.31205 0.0
C2118 C 0.97117 0.77429 0.31776 0.0
C2119 C 0.97123 0.7931 0.32315 0.0
H2120 H 0.62038 0.2773 0.76128 0.0
H2121 H 0.6445 0.27142 0.81625 0.0
H2122 H 0.60346 0.24719 0.76198 0.0
H2123 H 0.6275 0.24135 0.81701 0.0
H2124 H 0.61659 0.17903 0.79482 0.0
H2125 H 0.6301 0.21056 0.79849 0.0
H2126 H 0.57805 0.23082 0.7796 0.0
H2127 H 0.56411 0.19923 0.77661 0.0
C2128 C 0.62187 0.26964 0.77358 0.0
C2129 C 0.63354 0.27675 0.7888 0.0
C2130 C 0.6121 0.25251 0.77404 0.0
C2131 C 0.6141 0.24201 0.78959 0.0
C2132 C 0.62569 0.24919 0.80487 0.0
C2133 C 0.63526 0.26645 0.80451 0.0
C2134 C 0.60777 0.19015 0.79195 0.0
C2135 C 0.58919 0.18646 0.78538 0.0
C2136 C 0.6156 0.20826 0.79398 0.0
C2137 C 0.60514 0.2231 0.78927 0.0
C2138 C 0.58647 0.21957 0.78316 0.0
C2139 C 0.57853 0.20146 0.78137 0.0
H2140 H 0.01434 0.31499 0.21999 0.0
H2141 H 0.06484 0.32861 0.25383 0.0
H2142 H 0.01046 0.34783 0.21676 0.0
H2143 H 0.06061 0.36143 0.25112 0.0
H2144 H 0.03312 0.41588 0.26214 0.0
H2145 H 0.03741 0.38286 0.26276 0.0
H2146 H 0.02586 0.37643 0.2036 0.0
H2147 H 0.02137 0.40959 0.20299 0.0
C2148 C 0.02492 0.32492 0.22622 0.0
C2149 C 0.04016 0.31916 0.23675 0.0
C2150 C 0.02256 0.34375 0.22458 0.0
C2151 C 0.03521 0.35716 0.23372 0.0
C2152 C 0.05054 0.35139 0.24407 0.0
C2153 C 0.05298 0.33261 0.24557 0.0
C2154 C 0.03131 0.40739 0.24929 0.0
C2155 C 0.02686 0.41529 0.23253 0.0
C2156 C 0.03396 0.38854 0.24962 0.0
C2157 C 0.03209 0.37712 0.23321 0.0
C2158 C 0.02734 0.38492 0.21645 0.0
C2159 C 0.02488 0.40387 0.2161 0.0
H2160 H 0.3635 0.54965 0.34869 0.0
H2161 H 0.3914 0.58699 0.31373 0.0
H2162 H 0.39289 0.53683 0.35719 0.0
H2163 H 0.42077 0.57418 0.32229 0.0
H2164 H 0.47215 0.55954 0.35698 0.0
H2165 H 0.44264 0.57274 0.34953 0.0
H2166 H 0.41583 0.5179 0.3421 0.0
H2167 H 0.44529 0.50465 0.34971 0.0
C2168 C 0.37589 0.55515 0.34283 0.0
C2169 C 0.3751 0.56937 0.33054 0.0
C2170 C 0.39271 0.54774 0.34765 0.0
C2171 C 0.40913 0.55447 0.34038 0.0
C2172 C 0.40839 0.56884 0.32826 0.0
C2173 C 0.39154 0.57614 0.32333 0.0
C2174 C 0.45992 0.55031 0.35394 0.0
C2175 C 0.46101 0.53105 0.35396 0.0
C2176 C 0.44308 0.55788 0.34953 0.0
C2177 C 0.42695 0.54639 0.34526 0.0
C2178 C 0.428 0.52713 0.3455 0.0
C2179 C 0.44488 0.51953 0.3497 0.0
H2180 H 0.15269 0.40435 0.64241 0.0
H2181 H 0.13102 0.35529 0.66667 0.0
H2182 H 0.12137 0.41413 0.6372 0.0
H2183 H 0.09986 0.36532 0.662 0.0
H2184 H 0.04379 0.38364 0.64592 0.0
H2185 H 0.07421 0.37195 0.64165 0.0
H2186 H 0.09977 0.42631 0.65769 0.0
H2187 H 0.06949 0.43794 0.66168 0.0
C2188 C 0.14124 0.39552 0.6464 0.0
C2189 C 0.14438 0.37917 0.6552 0.0
C2190 C 0.12329 0.40119 0.64352 0.0
C2191 C 0.1081 0.39068 0.64945 0.0
C2192 C 0.11118 0.37372 0.65713 0.0
C2193 C 0.12911 0.368 0.65992 0.0
C2194 C 0.05594 0.3931 0.64835 0.0
C2195 C 0.05426 0.41169 0.65424 0.0
C2196 C 0.07335 0.38641 0.64592 0.0
C2197 C 0.08947 0.39815 0.64942 0.0
C2198 C 0.08768 0.41692 0.65456 0.0
C2199 C 0.07029 0.42361 0.6569 0.0
H2200 H 0.85313 0.96332 0.68514 0.0
H2201 H 0.83955 0.99633 0.73339 0.0
H2202 H 0.88582 0.97113 0.69277 0.0
H2203 H 0.8724 0.00377 0.74131 0.0
H2204 H 0.92898 0.03366 0.73239 0.0
H2205 H 0.89655 0.02277 0.72914 0.0
H2206 H 0.91209 0.96767 0.71379 0.0
H2207 H 0.94466 0.97868 0.7169 0.0
C2208 C 0.85712 0.97201 0.69756 0.0
C2209 C 0.84368 0.97934 0.70856 0.0
C2210 C 0.87592 0.97639 0.702 0.0
C2211 C 0.88178 0.98818 0.7176 0.0
C2212 C 0.86836 0.9949 0.72902 0.0
C2213 C 0.84953 0.99055 0.72454 0.0
C2214 C 0.92551 0.01914 0.72866 0.0
C2215 C 0.93941 0.00705 0.72486 0.0
C2216 C 0.90689 0.01287 0.72682 0.0
C2217 C 0.90167 0.99434 0.72117 0.0
C2218 C 0.9156 0.9821 0.71789 0.0
C2219 C 0.93426 0.9884 0.71968 0.0
H2220 H 0.63549 0.00646 0.31046 0.0
H2221 H 0.65105 0.96687 0.26823 0.0
H2222 H 0.60307 0.99619 0.30372 0.0
H2223 H 0.61859 0.95679 0.26137 0.0
H2224 H 0.56097 0.92969 0.26948 0.0
H2225 H 0.59342 0.94012 0.27602 0.0
H2226 H 0.57845 0.99686 0.27906 0.0
H2227 H 0.54595 0.98641 0.27305 0.0
C2228 C 0.632 0.99562 0.29969 0.0
C2229 C 0.64587 0.98747 0.2899 0.0
C2230 C 0.6134 0.98981 0.29576 0.0
C2231 C 0.60826 0.97566 0.28202 0.0
C2232 C 0.62213 0.96756 0.27219 0.0
C2233 C 0.64072 0.97342 0.27606 0.0
C2234 C 0.5646 0.94438 0.27169 0.0
C2235 C 0.55089 0.95722 0.27077 0.0
C2236 C 0.5832 0.95036 0.27524 0.0
C2237 C 0.58851 0.96931 0.27804 0.0
C2238 C 0.57479 0.98215 0.27713 0.0
C2239 C 0.5562 0.97618 0.2735 0.0
H2240 H 0.26801 0.3795 0.60201 0.0
H2241 H 0.31323 0.36182 0.57063 0.0
H2242 H 0.27067 0.40966 0.58883 0.0
H2243 H 0.31546 0.39155 0.55707 0.0
H2244 H 0.33152 0.45245 0.5559 0.0
H2245 H 0.32637 0.42222 0.56792 0.0
H2246 H 0.26731 0.42679 0.56126 0.0
H2247 H 0.27249 0.45765 0.55019 0.0
C2248 C 0.2783 0.38194 0.59209 0.0
C2249 C 0.29059 0.36837 0.58761 0.0
C2250 C 0.27976 0.39918 0.58445 0.0
C2251 C 0.29347 0.40313 0.5721 0.0
C2252 C 0.30505 0.38916 0.56689 0.0
C2253 C 0.30366 0.37202 0.57457 0.0
C2254 C 0.31742 0.44718 0.55722 0.0
C2255 C 0.30243 0.45755 0.55205 0.0
C2256 C 0.31445 0.42967 0.56384 0.0
C2257 C 0.29641 0.42195 0.56532 0.0
C2258 C 0.28139 0.43235 0.56034 0.0
C2259 C 0.28436 0.44996 0.55379 0.0
H2260 H 0.29914 0.6417 0.00367 0.0
H2261 H 0.25153 0.66015 0.97306 0.0
H2262 H 0.29164 0.61027 0.99066 0.0
H2263 H 0.24424 0.62871 0.95974 0.0
H2264 H 0.22645 0.56651 0.95565 0.0
H2265 H 0.23343 0.5982 0.96839 0.0
H2266 H 0.29151 0.59235 0.96139 0.0
H2267 H 0.28463 0.56048 0.94938 0.0
C2268 C 0.2871 0.63907 0.99412 0.0
C2269 C 0.27595 0.65346 0.9894 0.0
C2270 C 0.28287 0.62105 0.98656 0.0
C2271 C 0.26739 0.61698 0.97408 0.0
C2272 C 0.25616 0.63134 0.96945 0.0
C2273 C 0.26039 0.64939 0.97702 0.0
C2274 C 0.24072 0.57197 0.95693 0.0
C2275 C 0.25498 0.56093 0.95153 0.0
C2276 C 0.2447 0.59019 0.96405 0.0
C2277 C 0.26304 0.5978 0.96597 0.0
C2278 C 0.27726 0.58685 0.96033 0.0
C2279 C 0.27328 0.56864 0.95321 0.0
H2280 H 0.6859 0.15858 0.34504 0.0
H2281 H 0.66342 0.16935 0.39813 0.0
H2282 H 0.68502 0.1256 0.35015 0.0
H2283 H 0.66271 0.13647 0.40326 0.0
H2284 H 0.65304 0.07413 0.4022 0.0
H2285 H 0.64877 0.10533 0.39257 0.0
H2286 H 0.7033 0.10749 0.37178 0.0
H2287 H 0.70774 0.07656 0.38164 0.0
C2288 C 0.6805 0.1539 0.35766 0.0
C2289 C 0.67489 0.16661 0.37126 0.0
C2290 C 0.68011 0.13502 0.36063 0.0
C2291 C 0.67395 0.12846 0.37717 0.0
C2292 C 0.66741 0.14107 0.39031 0.0
C2293 C 0.66792 0.15993 0.38741 0.0
C2294 C 0.66412 0.08126 0.39558 0.0
C2295 C 0.68078 0.07284 0.39281 0.0
C2296 C 0.66164 0.0991 0.39001 0.0
C2297 C 0.6757 0.10887 0.38143 0.0
C2298 C 0.69208 0.10022 0.37809 0.0
C2299 C 0.69462 0.08245 0.38375 0.0
H2300 H 0.69284 0.84808 0.97494 0.0
H2301 H 0.66327 0.82434 0.01865 0.0
H2302 H 0.69168 0.87876 0.99028 0.0
H2303 H 0.66187 0.85505 0.03381 0.0
H2304 H 0.68408 0.9087 0.06646 0.0
H2305 H 0.68357 0.87829 0.05027 0.0
H2306 H 0.67028 0.90242 0.99854 0.0
H2307 H 0.67137 0.93301 0.01471 0.0
C2308 C 0.68595 0.84941 0.98773 0.0
C2309 C 0.67824 0.83373 0.99562 0.0
C2310 C 0.6852 0.86702 0.99647 0.0
C2311 C 0.67676 0.86934 0.01331 0.0
C2312 C 0.66872 0.8537 0.02099 0.0
C2313 C 0.66943 0.8361 0.01224 0.0
C2314 C 0.68119 0.90754 0.05161 0.0
C2315 C 0.67786 0.92329 0.04186 0.0
C2316 C 0.68067 0.89008 0.04236 0.0
C2317 C 0.67684 0.88792 0.02312 0.0
C2318 C 0.67342 0.90364 0.01335 0.0
C2319 C 0.67387 0.92114 0.02263 0.0
H2320 H 0.5953 0.28933 0.3883 0.0
H2321 H 0.56745 0.33543 0.36722 0.0
H2322 H 0.58446 0.29674 0.41892 0.0
H2323 H 0.55635 0.34254 0.39782 0.0
H2324 H 0.5254 0.33396 0.45223 0.0
H2325 H 0.53485 0.32606 0.42101 0.0
H2326 H 0.59158 0.32578 0.44244 0.0
H2327 H 0.58219 0.33381 0.4736 0.0
C2328 C 0.58678 0.30096 0.39016 0.0
C2329 C 0.58236 0.31188 0.37538 0.0
C2330 C 0.58059 0.30517 0.40767 0.0
C2331 C 0.56963 0.32022 0.41067 0.0
C2332 C 0.5647 0.3308 0.3958 0.0
C2333 C 0.57109 0.32673 0.37832 0.0
C2334 C 0.53987 0.33219 0.45022 0.0
C2335 C 0.55308 0.33448 0.46527 0.0
C2336 C 0.54526 0.32777 0.43241 0.0
C2337 C 0.56389 0.32522 0.42942 0.0
C2338 C 0.5771 0.32751 0.44446 0.0
C2339 C 0.57176 0.33223 0.46221 0.0
H2340 H 0.95298 0.29559 0.66233 0.0
H2341 H 0.0016 0.33111 0.6551 0.0
H2342 H 0.94221 0.29898 0.63044 0.0
H2343 H 0.99057 0.33484 0.6232 0.0
H2344 H 0.97895 0.31106 0.56244 0.0
H2345 H 0.98802 0.31445 0.59534 0.0
H2346 H 0.9309 0.31913 0.60751 0.0
H2347 H 0.92174 0.31499 0.57456 0.0
C2348 C 0.96121 0.30443 0.65405 0.0
C2349 C 0.97828 0.31288 0.66121 0.0
C2350 C 0.95496 0.30647 0.63576 0.0
C2351 C 0.96561 0.31704 0.62419 0.0
C2352 C 0.98219 0.32634 0.63166 0.0
C2353 C 0.98845 0.32429 0.64998 0.0
C2354 C 0.96832 0.31284 0.57213 0.0
C2355 C 0.9496 0.31253 0.56587 0.0
C2356 C 0.97355 0.31504 0.591 0.0
C2357 C 0.96018 0.317 0.6041 0.0
C2358 C 0.94152 0.31744 0.5978 0.0
C2359 C 0.93629 0.31525 0.5789 0.0
H2360 H 0.42741 0.66222 0.14573 0.0
H2361 H 0.37407 0.68054 0.12779 0.0
H2362 H 0.43799 0.66565 0.11474 0.0
H2363 H 0.38472 0.68397 0.09689 0.0
H2364 H 0.42184 0.71553 0.05738 0.0
H2365 H 0.40861 0.70697 0.08587 0.0
H2366 H 0.43246 0.65401 0.08082 0.0
H2367 H 0.44527 0.66225 0.05182 0.0
C2368 C 0.41784 0.66666 0.13512 0.0
C2369 C 0.39996 0.67129 0.13929 0.0
C2370 C 0.42389 0.66856 0.11736 0.0
C2371 C 0.41224 0.67528 0.10349 0.0
C2372 C 0.39407 0.679 0.1074 0.0
C2373 C 0.38795 0.67692 0.12508 0.0
C2374 C 0.42399 0.7019 0.06205 0.0
C2375 C 0.43462 0.68959 0.05219 0.0
C2376 C 0.41642 0.69702 0.07843 0.0
C2377 C 0.41945 0.6798 0.08551 0.0
C2378 C 0.43001 0.66743 0.07572 0.0
C2379 C 0.43742 0.67222 0.05917 0.0
H2380 H 0.98388 0.71392 0.85368 0.0
H2381 H 0.03091 0.68322 0.8399 0.0
H2382 H 0.99648 0.71846 0.88574 0.0
H2383 H 0.04349 0.68792 0.87177 0.0
H2384 H 0.04636 0.67775 0.93327 0.0
H2385 H 0.03434 0.67587 0.90113 0.0
H2386 H 0.02287 0.73359 0.90607 0.0
H2387 H 0.03456 0.73537 0.93853 0.0
C2388 C 0.997 0.70835 0.85742 0.0
C2389 C 0.0063 0.69805 0.84427 0.0
C2390 C 0.00424 0.711 0.87576 0.0
C2391 C 0.02085 0.70334 0.88131 0.0
C2392 C 0.03048 0.69369 0.86799 0.0
C2393 C 0.0233 0.69109 0.84969 0.0
C2394 C 0.04109 0.69 0.92758 0.0
C2395 C 0.04135 0.70669 0.93846 0.0
C2396 C 0.03442 0.68898 0.9091 0.0
C2397 C 0.02779 0.70462 0.90103 0.0
C2398 C 0.02783 0.72129 0.91194 0.0
C2399 C 0.03463 0.72235 0.93045 0.0
H2400 H 0.61887 0.40347 0.64532 0.0
H2401 H 0.61466 0.42295 0.70223 0.0
H2402 H 0.58826 0.41378 0.63746 0.0
H2403 H 0.58436 0.43392 0.69426 0.0
H2404 H 0.52324 0.43424 0.67885 0.0
H2405 H 0.55342 0.42269 0.68581 0.0
H2406 H 0.57165 0.44088 0.63391 0.0
H2407 H 0.54103 0.45148 0.62644 0.0
C2408 C 0.61146 0.41008 0.65614 0.0
C2409 C 0.61918 0.41234 0.67442 0.0
C2410 C 0.59394 0.41609 0.6516 0.0
C2411 C 0.58377 0.42463 0.66523 0.0
C2412 C 0.59163 0.42709 0.68347 0.0
C2413 C 0.6091 0.42096 0.68802 0.0
C2414 C 0.53356 0.43552 0.66876 0.0
C2415 C 0.52965 0.44377 0.65205 0.0
C2416 C 0.55099 0.42913 0.67289 0.0
C2417 C 0.56505 0.43097 0.6605 0.0
C2418 C 0.56111 0.43909 0.64371 0.0
C2419 C 0.54362 0.44539 0.63953 0.0
H2420 H 0.86417 0.61552 0.26666 0.0
H2421 H 0.86606 0.58353 0.31497 0.0
H2422 H 0.89173 0.60147 0.25634 0.0
H2423 H 0.89322 0.56905 0.30438 0.0
H2424 H 0.95272 0.56185 0.29117 0.0
H2425 H 0.92525 0.57622 0.30094 0.0
H2426 H 0.9028 0.57301 0.24427 0.0
H2427 H 0.93081 0.55956 0.23434 0.0
C2428 C 0.87038 0.60539 0.27502 0.0
C2429 C 0.86297 0.60072 0.29169 0.0
C2430 C 0.88613 0.59724 0.26904 0.0
C2431 C 0.89476 0.58415 0.27954 0.0
C2432 C 0.88716 0.57932 0.2961 0.0
C2433 C 0.8715 0.58755 0.30213 0.0
C2434 C 0.94206 0.56445 0.28073 0.0
C2435 C 0.94405 0.55961 0.26194 0.0
C2436 C 0.92615 0.57245 0.28638 0.0
C2437 C 0.91173 0.57572 0.27342 0.0
C2438 C 0.9137 0.57087 0.25461 0.0
C2439 C 0.92968 0.56294 0.24894 0.0
H2440 H 0.16256 0.98017 0.28429 0.0
H2441 H 0.15949 0.01551 0.33393 0.0
H2442 H 0.13357 0.96374 0.29054 0.0
H2443 H 0.13031 0.99926 0.34 0.0
H2444 H 0.08715 0.95421 0.35381 0.0
H2445 H 0.11714 0.96935 0.3485 0.0
H2446 H 0.10093 0.96996 0.29031 0.0
H2447 H 0.07125 0.95427 0.29551 0.0
C2448 C 0.15573 0.98442 0.29656 0.0
C2449 C 0.16331 0.99921 0.30857 0.0
C2450 C 0.13905 0.97507 0.30007 0.0
C2451 C 0.12957 0.98027 0.3157 0.0
C2452 C 0.13735 0.9948 0.32793 0.0
C2453 C 0.15403 0.00418 0.3244 0.0
C2454 C 0.09006 0.95744 0.33987 0.0
C2455 C 0.07681 0.95304 0.32509 0.0
C2456 C 0.10717 0.96627 0.33685 0.0
C2457 C 0.11143 0.97083 0.31898 0.0
C2458 C 0.09817 0.96644 0.30421 0.0
C2459 C 0.08107 0.95766 0.30723 0.0
H2460 H 0.37747 0.0315 0.70382 0.0
H2461 H 0.39595 0.98145 0.72621 0.0
H2462 H 0.40837 0.04641 0.71048 0.0
H2463 H 0.42674 0.99646 0.73308 0.0
H2464 H 0.48417 0.02259 0.72395 0.0
H2465 H 0.45324 0.00797 0.71673 0.0
H2466 H 0.42941 0.05775 0.73706 0.0
H2467 H 0.46035 0.07258 0.74376 0.0
C2468 C 0.3881 0.02369 0.7102 0.0
C2469 C 0.38424 0.00526 0.71445 0.0
C2470 C 0.40578 0.03227 0.71411 0.0
C2471 C 0.42002 0.02261 0.72229 0.0
C2472 C 0.41614 0.0042 0.72655 0.0
C2473 C 0.39845 0.99564 0.72271 0.0
C2474 C 0.47233 0.03048 0.72671 0.0
C2475 C 0.47473 0.04875 0.73443 0.0
C2476 C 0.45461 0.02203 0.72276 0.0
C2477 C 0.43886 0.03168 0.72636 0.0
C2478 C 0.44125 0.05 0.73397 0.0
C2479 C 0.45898 0.05842 0.73799 0.0
H2480 H 0.71272 0.63089 0.42418 0.0
H2481 H 0.65545 0.63563 0.40622 0.0
H2482 H 0.70427 0.60199 0.43804 0.0
H2483 H 0.64705 0.60695 0.42031 0.0
H2484 H 0.64545 0.54363 0.42413 0.0
H2485 H 0.65247 0.57409 0.41338 0.0
H2486 H 0.68626 0.58928 0.46347 0.0
H2487 H 0.6785 0.55903 0.4749 0.0
C2488 C 0.69832 0.6259 0.42338 0.0
C2489 C 0.68478 0.63549 0.41398 0.0
C2490 C 0.69348 0.60939 0.43139 0.0
C2491 C 0.67501 0.60217 0.43018 0.0
C2492 C 0.66143 0.61205 0.42124 0.0
C2493 C 0.66625 0.62851 0.41322 0.0
C2494 C 0.65406 0.5535 0.43311 0.0
C2495 C 0.66136 0.54875 0.45045 0.0
C2496 C 0.6582 0.57096 0.42681 0.0
C2497 C 0.67003 0.58401 0.43747 0.0
C2498 C 0.6773 0.57939 0.45483 0.0
C2499 C 0.6729 0.56201 0.46132 0.0
H2500 H 0.6841 0.36149 0.07802 0.0
H2501 H 0.72756 0.35929 0.03994 0.0
H2502 H 0.69486 0.39311 0.0882 0.0
H2503 H 0.73805 0.39104 0.04983 0.0
H2504 H 0.76276 0.44206 0.08455 0.0
H2505 H 0.75275 0.40986 0.07597 0.0
H2506 H 0.69571 0.42366 0.07648 0.0
H2507 H 0.70571 0.45566 0.0858 0.0
C2508 C 0.69594 0.36774 0.07181 0.0
C2509 C 0.70494 0.35786 0.05814 0.0
C2510 C 0.70204 0.38592 0.07757 0.0
C2511 C 0.71728 0.39465 0.06979 0.0
C2512 C 0.72641 0.38467 0.05627 0.0
C2513 C 0.72033 0.36649 0.05053 0.0
C2514 C 0.74808 0.43818 0.08304 0.0
C2515 C 0.73504 0.45145 0.08586 0.0
C2516 C 0.74234 0.41976 0.07792 0.0
C2517 C 0.72343 0.41417 0.07551 0.0
C2518 C 0.71039 0.42744 0.07841 0.0
C2519 C 0.71612 0.44584 0.08353 0.0
H2520 H 0.26509 0.89021 0.60365 0.0
H2521 H 0.30957 0.88558 0.56701 0.0
H2522 H 0.257 0.91883 0.59015 0.0
H2523 H 0.30118 0.91388 0.55318 0.0
H2524 H 0.29463 0.97503 0.54679 0.0
H2525 H 0.30221 0.94655 0.56064 0.0
H2526 H 0.24401 0.93075 0.56222 0.0
H2527 H 0.23641 0.95975 0.54918 0.0
C2528 C 0.27307 0.89523 0.59263 0.0
C2529 C 0.28803 0.88565 0.58647 0.0
C2530 C 0.26836 0.91159 0.58481 0.0
C2531 C 0.27846 0.9187 0.5706 0.0
C2532 C 0.2933 0.90898 0.56431 0.0
C2533 C 0.29804 0.89268 0.57218 0.0
C2534 C 0.28343 0.96562 0.55031 0.0
C2535 C 0.2649 0.96975 0.54692 0.0
C2536 C 0.28778 0.94914 0.55803 0.0
C2537 C 0.27373 0.9363 0.56249 0.0
C2538 C 0.25519 0.94041 0.55912 0.0
C2539 C 0.25083 0.95694 0.55144 0.0
H2540 H 0.33719 0.16069 0.03184 0.0
H2541 H 0.2838 0.16083 0.00214 0.0
H2542 H 0.34248 0.13121 0.01578 0.0
H2543 H 0.28929 0.13161 0.98578 0.0
H2544 H 0.29629 0.07015 0.97473 0.0
H2545 H 0.2914 0.09938 0.9914 0.0
H2546 H 0.34834 0.11779 0.98555 0.0
H2547 H 0.35346 0.0882 0.96962 0.0
C2548 C 0.32662 0.15449 0.02182 0.0
C2549 C 0.31004 0.16309 0.01832 0.0
C2550 C 0.3297 0.13763 0.01253 0.0
C2551 C 0.3163 0.12901 0.99951 0.0
C2552 C 0.29978 0.13771 0.99593 0.0
C2553 C 0.29668 0.15453 0.00524 0.0
C2554 C 0.30784 0.08033 0.97721 0.0
C2555 C 0.32528 0.0768 0.97085 0.0
C2556 C 0.30497 0.0972 0.98656 0.0
C2557 C 0.31945 0.11098 0.98975 0.0
C2558 C 0.33692 0.10742 0.98348 0.0
C2559 C 0.3398 0.09053 0.97415 0.0
H2560 H 0.41073 0.69186 0.613 0.0
H2561 H 0.39343 0.63375 0.61161 0.0
H2562 H 0.42619 0.68652 0.58437 0.0
H2563 H 0.4089 0.62847 0.58301 0.0
H2564 H 0.41822 0.63278 0.52075 0.0
H2565 H 0.40407 0.63753 0.55019 0.0
H2566 H 0.45313 0.66969 0.57264 0.0
H2567 H 0.46729 0.66501 0.54309 0.0
C2568 C 0.41034 0.67794 0.60667 0.0
C2569 C 0.4008 0.66324 0.61453 0.0
C2570 C 0.41924 0.67488 0.59032 0.0
C2571 C 0.41872 0.65708 0.58146 0.0
C2572 C 0.4094 0.64235 0.58946 0.0
C2573 C 0.40057 0.64539 0.60585 0.0
C2574 C 0.42595 0.6409 0.53197 0.0
C2575 C 0.44383 0.64855 0.52964 0.0
C2576 C 0.41791 0.6435 0.54885 0.0
C2577 C 0.4275 0.65398 0.56371 0.0
C2578 C 0.44538 0.66165 0.56139 0.0
C2579 C 0.45352 0.65886 0.54455 0.0
H2580 H 0.9994 0.73057 0.3797 0.0
H2581 H 0.04163 0.69146 0.37434 0.0
H2582 H 0.01237 0.7405 0.41069 0.0
H2583 H 0.05487 0.70171 0.40514 0.0
H2584 H 0.06199 0.71053 0.46789 0.0
H2585 H 0.04834 0.70049 0.43721 0.0
H2586 H 0.03911 0.7572 0.42643 0.0
H2587 H 0.05197 0.76716 0.45746 0.0
C2588 C 0.0115 0.72414 0.3851 0.0
C2589 C 0.01945 0.71019 0.37455 0.0
C2590 C 0.01901 0.72992 0.40283 0.0
C2591 C 0.03467 0.72191 0.41043 0.0
C2592 C 0.04264 0.70799 0.39984 0.0
C2593 C 0.0351 0.70218 0.38212 0.0
C2594 C 0.05684 0.72085 0.45907 0.0
C2595 C 0.05804 0.73966 0.46518 0.0
C2596 C 0.04923 0.71511 0.44138 0.0
C2597 C 0.04267 0.72804 0.42931 0.0
C2598 C 0.04385 0.74685 0.43542 0.0
C2599 C 0.05143 0.75259 0.45314 0.0
H2600 H 0.61185 0.30202 0.88594 0.0
H2601 H 0.57737 0.25834 0.85574 0.0
H2602 H 0.59524 0.2969 0.91351 0.0
H2603 H 0.56051 0.25345 0.88332 0.0
H2604 H 0.54961 0.23722 0.94266 0.0
H2605 H 0.56505 0.24193 0.91419 0.0
H2606 H 0.56492 0.30108 0.9251 0.0
H2607 H 0.54954 0.29637 0.95352 0.0
C2608 C 0.60068 0.29136 0.88515 0.0
C2609 C 0.59594 0.2806 0.86862 0.0
C2610 C 0.59108 0.28851 0.90094 0.0
C2611 C 0.57649 0.27483 0.90059 0.0
C2612 C 0.57179 0.26399 0.88408 0.0
C2613 C 0.5814 0.26686 0.86826 0.0
C2614 C 0.55267 0.25122 0.93885 0.0
C2615 C 0.54846 0.26642 0.95041 0.0
C2616 C 0.56152 0.25392 0.92254 0.0
C2617 C 0.56634 0.27188 0.91745 0.0
C2618 C 0.56174 0.28707 0.92882 0.0
C2619 C 0.55291 0.28437 0.9451 0.0
H2620 H 0.98339 0.28903 0.14855 0.0
H2621 H 0.02397 0.33262 0.13825 0.0
H2622 H 0.96714 0.29315 0.1189 0.0
H2623 H 0.00752 0.33689 0.10864 0.0
H2624 H 0.98403 0.32359 0.04825 0.0
H2625 H 0.00064 0.32039 0.07805 0.0
H2626 H 0.9487 0.31592 0.10401 0.0
H2627 H 0.9321 0.31855 0.0742 0.0
C2628 C 0.98883 0.29953 0.13999 0.0
C2629 C 0.00499 0.31049 0.14579 0.0
C2630 C 0.97944 0.30197 0.12304 0.0
C2631 C 0.98601 0.31538 0.11144 0.0
C2632 C 0.0022 0.32632 0.11719 0.0
C2633 C 0.01157 0.32393 0.1342 0.0
C2634 C 0.97617 0.32186 0.06032 0.0
C2635 C 0.95674 0.3213 0.05885 0.0
C2636 C 0.98569 0.32021 0.07741 0.0
C2637 C 0.97599 0.31785 0.09338 0.0
C2638 C 0.95658 0.31751 0.09193 0.0
C2639 C 0.94707 0.31924 0.07488 0.0
loop_
_geom_bond_atom_site_label_1
_geom_bond_atom_site_label_2
_geom_bond_distance
_geom_bond_site_symmetry_2
_ccdc_geom_bond_type
O0 Cd1 2.300 . S
O0 C7 1.275 . S
Cd1 O0 2.300 . S
Cd1 O9 2.381 . S
Cd1 O10 2.378 . S
O2 Cd3 2.385 . S
O2 C7 1.255 . S
Cd3 O2 2.385 . S
Cd3 O4 2.317 . S
O4 Cd3 2.317 . S
O4 C5 1.232 . S
C5 O4 1.232 . S
C5 O6 1.218 . S
O6 C5 1.218 . S
C7 O0 1.275 . S
C7 O2 1.255 . S
C8 O9 1.258 . S
C8 O10 1.256 . S
O9 Cd1 2.381 . S
O9 C8 1.258 . S
O10 Cd1 2.378 . S
O10 C8 1.256 . S
O11 Cd12 2.300 . S
O11 C18 1.275 . S
Cd12 O11 2.300 . S
Cd12 O20 2.381 . S
Cd12 O21 2.378 . S
O13 Cd14 2.385 . S
O13 C18 1.255 . S
Cd14 O13 2.385 . S
Cd14 O15 2.317 . S
O15 Cd14 2.317 . S
O15 C16 1.232 . S
C16 O15 1.232 . S
C16 O17 1.218 . S
O17 C16 1.218 . S
C18 O11 1.275 . S
C18 O13 1.255 . S
C19 O20 1.258 . S
C19 O21 1.256 . S
O20 Cd12 2.381 . S
O20 C19 1.258 . S
O21 Cd12 2.378 . S
O21 C19 1.256 . S
O22 Cd23 2.300 . S
O22 C29 1.275 . S
Cd23 O22 2.300 . S
Cd23 O31 2.381 1_565 S
Cd23 O32 2.378 . S
O24 Cd25 2.385 . S
O24 C29 1.255 . S
Cd25 O24 2.385 . S
Cd25 O26 2.317 . S
O26 Cd25 2.317 . S
O26 C27 1.232 . S
C27 O26 1.232 . S
C27 O28 1.218 . S
O28 C27 1.218 . S
C29 O22 1.275 . S
C29 O24 1.255 . S
C30 O31 1.258 . S
C30 O32 1.256 1_545 S
O31 Cd23 2.381 1_545 S
O31 C30 1.258 . S
O32 Cd23 2.378 . S
O32 C30 1.256 1_565 S
O33 Cd34 2.300 . S
O33 C40 1.275 . S
Cd34 O33 2.300 . S
Cd34 O42 2.381 1_545 S
Cd34 O43 2.378 . S
O35 Cd36 2.385 . S
O35 C40 1.255 . S
Cd36 O35 2.385 . S
Cd36 O37 2.317 . S
O37 Cd36 2.317 . S
O37 C38 1.232 . S
C38 O37 1.232 . S
C38 O39 1.218 . S
O39 C38 1.218 . S
C40 O33 1.275 . S
C40 O35 1.255 . S
C41 O42 1.258 . S
C41 O43 1.256 1_565 S
O42 Cd34 2.381 1_565 S
O42 C41 1.258 . S
O43 Cd34 2.378 . S
O43 C41 1.256 1_545 S
O44 Cd45 2.300 . S
O44 C51 1.275 . S
Cd45 O44 2.300 . S
Cd45 O53 2.381 . S
Cd45 O54 2.378 . S
O46 Cd47 2.385 . S
O46 C51 1.255 . S
Cd47 O46 2.385 . S
Cd47 O48 2.317 . S
O48 Cd47 2.317 . S
O48 C49 1.232 . S
C49 O48 1.232 . S
C49 O50 1.218 . S
O50 C49 1.218 . S
C51 O44 1.275 . S
C51 O46 1.255 . S
C52 O53 1.258 . S
C52 O54 1.256 . S
O53 Cd45 2.381 . S
O53 C52 1.258 . S
O54 Cd45 2.378 . S
O54 C52 1.256 . S
O55 Cd56 2.300 . S
O55 C62 1.275 . S
Cd56 O55 2.300 . S
Cd56 O64 2.381 1_554 S
Cd56 O65 2.378 . S
O57 Cd58 2.385 . S
O57 C62 1.255 . S
Cd58 O57 2.385 . S
Cd58 O59 2.317 . S
O59 Cd58 2.317 . S
O59 C60 1.232 . S
C60 O59 1.232 . S
C60 O61 1.218 . S
O61 C60 1.218 . S
C62 O55 1.275 . S
C62 O57 1.255 . S
C63 O64 1.258 . S
C63 O65 1.256 1_556 S
O64 Cd56 2.381 1_556 S
O64 C63 1.258 . S
O65 Cd56 2.378 . S
O65 C63 1.256 1_554 S
O66 Cd67 2.300 . S
O66 C73 1.275 . S
Cd67 O66 2.300 . S
Cd67 O75 2.381 . S
Cd67 O76 2.378 . S
O68 Cd69 2.385 . S
O68 C73 1.255 . S
Cd69 O68 2.385 . S
Cd69 O70 2.317 . S
O70 Cd69 2.317 . S
O70 C71 1.232 . S
C71 O70 1.232 . S
C71 O72 1.218 . S
O72 C71 1.218 . S
C73 O66 1.275 . S
C73 O68 1.255 . S
C74 O75 1.258 . S
C74 O76 1.256 . S
O75 Cd67 2.381 . S
O75 C74 1.258 . S
O76 Cd67 2.378 . S
O76 C74 1.256 . S
O77 Cd78 2.300 . S
O77 C84 1.275 . S
Cd78 O77 2.300 . S
Cd78 O86 2.381 1_556 S
Cd78 O87 2.378 . S
O79 Cd80 2.385 . S
O79 C84 1.255 . S
Cd80 O79 2.385 . S
Cd80 O81 2.317 . S
O81 Cd80 2.317 . S
O81 C82 1.232 . S
C82 O81 1.232 . S
C82 O83 1.218 . S
O83 C82 1.218 . S
C84 O77 1.275 . S
C84 O79 1.255 . S
C85 O86 1.258 . S
C85 O87 1.256 1_554 S
O86 Cd78 2.381 1_554 S
O86 C85 1.258 . S
O87 Cd78 2.378 . S
O87 C85 1.256 1_556 S
O88 Cd89 2.300 . S
O88 C95 1.275 . S
Cd89 O88 2.300 . S
Cd89 O97 2.381 . S
Cd89 O98 2.378 . S
O90 Cd91 2.385 . S
O90 C95 1.255 . S
Cd91 O90 2.385 . S
Cd91 O92 2.317 . S
O92 Cd91 2.317 . S
O92 C93 1.232 . S
C93 O92 1.232 . S
C93 O94 1.218 . S
O94 C93 1.218 . S
C95 O88 1.275 . S
C95 O90 1.255 . S
C96 O97 1.258 . S
C96 O98 1.256 . S
O97 Cd89 2.381 . S
O97 C96 1.258 . S
O98 Cd89 2.378 . S
O98 C96 1.256 . S
O99 Cd100 2.300 . S
O99 C106 1.275 . S
Cd100 O99 2.300 . S
Cd100 O108 2.381 1_455 S
Cd100 O109 2.378 . S
O101 Cd102 2.385 . S
O101 C106 1.255 . S
Cd102 O101 2.385 . S
Cd102 O103 2.317 . S
O103 Cd102 2.317 . S
O103 C104 1.232 . S
C104 O103 1.232 . S
C104 O105 1.218 . S
O105 C104 1.218 . S
C106 O99 1.275 . S
C106 O101 1.255 . S
C107 O108 1.258 . S
C107 O109 1.256 1_655 S
O108 Cd100 2.381 1_655 S
O108 C107 1.258 . S
O109 Cd100 2.378 . S
O109 C107 1.256 1_455 S
O110 Cd111 2.300 . S
O110 C117 1.275 . S
Cd111 O110 2.300 . S
Cd111 O119 2.381 . S
Cd111 O120 2.378 . S
O112 Cd113 2.385 . S
O112 C117 1.255 . S
Cd113 O112 2.385 . S
Cd113 O114 2.317 . S
O114 Cd113 2.317 . S
O114 C115 1.232 . S
C115 O114 1.232 . S
C115 O116 1.218 . S
O116 C115 1.218 . S
C117 O110 1.275 . S
C117 O112 1.255 . S
C118 O119 1.258 . S
C118 O120 1.256 . S
O119 Cd111 2.381 . S
O119 C118 1.258 . S
O120 Cd111 2.378 . S
O120 C118 1.256 . S
O121 Cd122 2.300 . S
O121 C128 1.275 . S
Cd122 O121 2.300 . S
Cd122 O130 2.381 1_655 S
Cd122 O131 2.378 . S
O123 Cd124 2.385 . S
O123 C128 1.255 . S
Cd124 O123 2.385 . S
Cd124 O125 2.317 . S
O125 Cd124 2.317 . S
O125 C126 1.232 . S
C126 O125 1.232 . S
C126 O127 1.218 . S
O127 C126 1.218 . S
C128 O121 1.275 . S
C128 O123 1.255 . S
C129 O130 1.258 . S
C129 O131 1.256 1_455 S
O130 Cd122 2.381 1_455 S
O130 C129 1.258 . S
O131 Cd122 2.378 . S
O131 C129 1.256 1_655 S
O132 Cd133 2.300 . S
O132 C139 1.275 . S
Cd133 O132 2.300 . S
Cd133 O141 2.381 . S
Cd133 O142 2.378 . S
O134 Cd135 2.385 . S
O134 C139 1.255 . S
Cd135 O134 2.385 . S
Cd135 O136 2.317 . S
O136 Cd135 2.317 . S
O136 C137 1.232 . S
C137 O136 1.232 . S
C137 O138 1.218 . S
O138 C137 1.218 . S
C139 O132 1.275 . S
C139 O134 1.255 . S
C140 O141 1.258 . S
C140 O142 1.256 . S
O141 Cd133 2.381 . S
O141 C140 1.258 . S
O142 Cd133 2.378 . S
O142 C140 1.256 . S
O143 Cd144 2.300 . S
O143 C150 1.275 . S
Cd144 O143 2.300 . S
Cd144 O152 2.381 . S
Cd144 O153 2.378 . S
O145 Cd146 2.385 . S
O145 C150 1.255 . S
Cd146 O145 2.385 . S
Cd146 O147 2.317 . S
O147 Cd146 2.317 . S
O147 C148 1.232 . S
C148 O147 1.232 . S
C148 O149 1.218 . S
O149 C148 1.218 . S
C150 O143 1.275 . S
C150 O145 1.255 . S
C151 O152 1.258 . S
C151 O153 1.256 . S
O152 Cd144 2.381 . S
O152 C151 1.258 . S
O153 Cd144 2.378 . S
O153 C151 1.256 . S
O154 Cd155 2.300 1_545 S
O154 C161 1.275 . S
Cd155 O154 2.300 1_565 S
Cd155 O163 2.381 1_565 S
Cd155 O164 2.378 . S
O156 Cd157 2.385 . S
O156 C161 1.255 1_565 S
Cd157 O156 2.385 . S
Cd157 O158 2.317 . S
O158 Cd157 2.317 . S
O158 C159 1.232 . S
C159 O158 1.232 . S
C159 O160 1.218 . S
O160 C159 1.218 . S
C161 O154 1.275 . S
C161 O156 1.255 1_545 S
C162 O163 1.258 1_565 S
C162 O164 1.256 . S
O163 Cd155 2.381 1_545 S
O163 C162 1.258 1_545 S
O164 Cd155 2.378 . S
O164 C162 1.256 . S
O165 Cd166 2.300 1_565 S
O165 C172 1.275 . S
Cd166 O165 2.300 1_545 S
Cd166 O174 2.381 1_545 S
Cd166 O175 2.378 . S
O167 Cd168 2.385 . S
O167 C172 1.255 1_545 S
Cd168 O167 2.385 . S
Cd168 O169 2.317 . S
O169 Cd168 2.317 . S
O169 C170 1.232 . S
C170 O169 1.232 . S
C170 O171 1.218 . S
O171 C170 1.218 . S
C172 O165 1.275 . S
C172 O167 1.255 1_565 S
C173 O174 1.258 1_545 S
C173 O175 1.256 . S
O174 Cd166 2.381 1_565 S
O174 C173 1.258 1_565 S
O175 Cd166 2.378 . S
O175 C173 1.256 . S
O176 Cd177 2.300 . S
O176 C183 1.275 . S
Cd177 O176 2.300 . S
Cd177 O185 2.381 . S
Cd177 O186 2.378 . S
O178 Cd179 2.385 . S
O178 C183 1.255 . S
Cd179 O178 2.385 . S
Cd179 O180 2.317 . S
O180 Cd179 2.317 . S
O180 C181 1.232 . S
C181 O180 1.232 . S
C181 O182 1.218 . S
O182 C181 1.218 . S
C183 O176 1.275 . S
C183 O178 1.255 . S
C184 O185 1.258 . S
C184 O186 1.256 . S
O185 Cd177 2.381 . S
O185 C184 1.258 . S
O186 Cd177 2.378 . S
O186 C184 1.256 . S
O187 Cd188 2.300 1_556 S
O187 C194 1.275 . S
Cd188 O187 2.300 1_554 S
Cd188 O196 2.381 1_554 S
Cd188 O197 2.378 . S
O189 Cd190 2.385 . S
O189 C194 1.255 1_554 S
Cd190 O189 2.385 . S
Cd190 O191 2.317 . S
O191 Cd190 2.317 . S
O191 C192 1.232 . S
C192 O191 1.232 . S
C192 O193 1.218 . S
O193 C192 1.218 . S
C194 O187 1.275 . S
C194 O189 1.255 1_556 S
C195 O196 1.258 1_554 S
C195 O197 1.256 . S
O196 Cd188 2.381 1_556 S
O196 C195 1.258 1_556 S
O197 Cd188 2.378 . S
O197 C195 1.256 . S
O198 Cd199 2.300 . S
O198 C205 1.275 . S
Cd199 O198 2.300 . S
Cd199 O207 2.381 . S
Cd199 O208 2.378 . S
O200 Cd201 2.385 . S
O200 C205 1.255 . S
Cd201 O200 2.385 . S
Cd201 O202 2.317 . S
O202 Cd201 2.317 . S
O202 C203 1.232 . S
C203 O202 1.232 . S
C203 O204 1.218 . S
O204 C203 1.218 . S
C205 O198 1.275 . S
C205 O200 1.255 . S
C206 O207 1.258 . S
C206 O208 1.256 . S
O207 Cd199 2.381 . S
O207 C206 1.258 . S
O208 Cd199 2.378 . S
O208 C206 1.256 . S
O209 Cd210 2.300 1_554 S
O209 C216 1.275 . S
Cd210 O209 2.300 1_556 S
Cd210 O218 2.381 1_556 S
Cd210 O219 2.378 . S
O211 Cd212 2.385 . S
O211 C216 1.255 1_556 S
Cd212 O211 2.385 . S
Cd212 O213 2.317 . S
O213 Cd212 2.317 . S
O213 C214 1.232 . S
C214 O213 1.232 . S
C214 O215 1.218 . S
O215 C214 1.218 . S
C216 O209 1.275 . S
C216 O211 1.255 1_554 S
C217 O218 1.258 1_556 S
C217 O219 1.256 . S
O218 Cd210 2.381 1_554 S
O218 C217 1.258 1_554 S
O219 Cd210 2.378 . S
O219 C217 1.256 . S
O220 Cd221 2.300 . S
O220 C227 1.275 . S
Cd221 O220 2.300 . S
Cd221 O229 2.381 . S
Cd221 O230 2.378 . S
O222 Cd223 2.385 . S
O222 C227 1.255 . S
Cd223 O222 2.385 . S
Cd223 O224 2.317 . S
O224 Cd223 2.317 . S
O224 C225 1.232 . S
C225 O224 1.232 . S
C225 O226 1.218 . S
O226 C225 1.218 . S
C227 O220 1.275 . S
C227 O222 1.255 . S
C228 O229 1.258 . S
C228 O230 1.256 . S
O229 Cd221 2.381 . S
O229 C228 1.258 . S
O230 Cd221 2.378 . S
O230 C228 1.256 . S
O231 Cd232 2.300 1_655 S
O231 C238 1.275 . S
Cd232 O231 2.300 1_455 S
Cd232 O240 2.381 1_455 S
Cd232 O241 2.378 . S
O233 Cd234 2.385 . S
O233 C238 1.255 1_455 S
Cd234 O233 2.385 . S
Cd234 O235 2.317 . S
O235 Cd234 2.317 . S
O235 C236 1.232 . S
C236 O235 1.232 . S
C236 O237 1.218 . S
O237 C236 1.218 . S
C238 O231 1.275 . S
C238 O233 1.255 1_655 S
C239 O240 1.258 1_455 S
C239 O241 1.256 . S
O240 Cd232 2.381 1_655 S
O240 C239 1.258 1_655 S
O241 Cd232 2.378 . S
O241 C239 1.256 . S
O242 Cd243 2.300 . S
O242 C249 1.275 . S
Cd243 O242 2.300 . S
Cd243 O251 2.381 . S
Cd243 O252 2.378 . S
O244 Cd245 2.385 . S
O244 C249 1.255 . S
Cd245 O244 2.385 . S
Cd245 O246 2.317 . S
O246 Cd245 2.317 . S
O246 C247 1.232 . S
C247 O246 1.232 . S
C247 O248 1.218 . S
O248 C247 1.218 . S
C249 O242 1.275 . S
C249 O244 1.255 . S
C250 O251 1.258 . S
C250 O252 1.256 . S
O251 Cd243 2.381 . S
O251 C250 1.258 . S
O252 Cd243 2.378 . S
O252 C250 1.256 . S
O253 Cd254 2.300 1_455 S
O253 C260 1.275 . S
Cd254 O253 2.300 1_655 S
Cd254 O262 2.381 1_655 S
Cd254 O263 2.378 . S
O255 Cd256 2.385 . S
O255 C260 1.255 1_655 S
Cd256 O255 2.385 . S
Cd256 O257 2.317 . S
O257 Cd256 2.317 . S
O257 C258 1.232 . S
C258 O257 1.232 . S
C258 O259 1.218 . S
O259 C258 1.218 . S
C260 O253 1.275 . S
C260 O255 1.255 1_455 S
C261 O262 1.258 1_655 S
C261 O263 1.256 . S
O262 Cd254 2.381 1_455 S
O262 C261 1.258 1_455 S
O263 Cd254 2.378 . S
O263 C261 1.256 . S
C264 C265 1.386 . S
C264 C266 1.397 . S
C264 H288 0.931 . S
C265 C264 1.386 . S
C265 C269 1.397 . S
C266 C264 1.397 . S
C266 C267 1.384 . S
C266 H289 0.930 . S
C267 C266 1.384 . S
C267 C268 1.377 . S
C267 C270 1.481 . S
C268 C267 1.377 . S
C268 C269 1.389 . S
C268 H290 0.929 . S
C269 C265 1.397 . S
C269 C268 1.389 . S
C269 H291 0.931 . S
C270 C267 1.481 . S
C270 C271 1.387 . S
C270 C275 1.390 . S
C271 C270 1.387 . S
C271 C272 1.401 . S
C271 H292 0.930 . S
C272 C271 1.401 . S
C272 C273 1.376 . S
C272 C281 1.511 . S
C273 C272 1.376 . S
C273 C274 1.392 . S
C273 H294 0.931 . S
C274 C273 1.392 . S
C274 C275 1.361 . S
C274 C276 1.500 . S
C275 C270 1.390 . S
C275 C274 1.361 . S
C275 H293 0.931 . S
C276 C274 1.500 . S
C276 C277 1.371 . S
C276 C278 1.365 . S
C277 C276 1.371 . S
C277 C287 1.386 . S
C277 H295 0.931 . S
C278 C276 1.365 . S
C278 C279 1.409 . S
C278 H296 0.929 . S
C279 C278 1.409 . S
C279 C280 1.380 . S
C279 H297 0.930 . S
C280 C279 1.380 . S
C280 C287 1.357 . S
C281 C272 1.511 . S
C281 C282 1.341 . S
C281 C283 1.371 . S
C282 C281 1.341 . S
C282 C286 1.394 . S
C282 H298 0.930 . S
C283 C281 1.371 . S
C283 C284 1.392 . S
C283 H299 0.931 . S
C284 C283 1.392 . S
C284 C285 1.331 . S
C284 H302 0.932 . S
C285 C284 1.331 . S
C285 C286 1.336 . S
C286 C282 1.394 . S
C286 C285 1.336 . S
C286 H301 0.929 . S
C287 C277 1.386 . S
C287 C280 1.357 . S
C287 H300 0.928 . S
H288 C264 0.931 . S
H289 C266 0.930 . S
H290 C268 0.929 . S
H291 C269 0.931 . S
H292 C271 0.930 . S
H293 C275 0.931 . S
H294 C273 0.931 . S
H295 C277 0.931 . S
H296 C278 0.929 . S
H297 C279 0.930 . S
H298 C282 0.930 . S
H299 C283 0.931 . S
H300 C287 0.928 . S
H301 C286 0.929 . S
H302 C284 0.932 . S
C303 C304 1.386 . S
C303 C305 1.397 . S
C303 H327 0.931 . S
C304 C303 1.386 . S
C304 C308 1.397 . S
C305 C303 1.397 . S
C305 C306 1.384 . S
C305 H328 0.930 . S
C306 C305 1.384 . S
C306 C307 1.377 . S
C306 C309 1.481 . S
C307 C306 1.377 . S
C307 C308 1.389 . S
C307 H329 0.929 . S
C308 C304 1.397 . S
C308 C307 1.389 . S
C308 H330 0.931 . S
C309 C306 1.481 . S
C309 C310 1.387 . S
C309 C314 1.390 . S
C310 C309 1.387 . S
C310 C311 1.401 . S
C310 H331 0.930 . S
C311 C310 1.401 . S
C311 C312 1.376 . S
C311 C320 1.511 . S
C312 C311 1.376 . S
C312 C313 1.392 . S
C312 H333 0.931 . S
C313 C312 1.392 . S
C313 C314 1.361 . S
C313 C315 1.500 . S
C314 C309 1.390 . S
C314 C313 1.361 . S
C314 H332 0.931 . S
C315 C313 1.500 . S
C315 C316 1.371 . S
C315 C317 1.365 . S
C316 C315 1.371 . S
C316 C326 1.386 . S
C316 H334 0.931 . S
C317 C315 1.365 . S
C317 C318 1.409 . S
C317 H335 0.929 . S
C318 C317 1.409 . S
C318 C319 1.380 . S
C318 H336 0.930 . S
C319 C318 1.380 . S
C319 C326 1.357 . S
C320 C311 1.511 . S
C320 C321 1.341 . S
C320 C322 1.371 . S
C321 C320 1.341 . S
C321 C325 1.394 . S
C321 H337 0.930 . S
C322 C320 1.371 . S
C322 C323 1.392 . S
C322 H338 0.931 . S
C323 C322 1.392 . S
C323 C324 1.331 . S
C323 H341 0.932 . S
C324 C323 1.331 . S
C324 C325 1.336 . S
C325 C321 1.394 . S
C325 C324 1.336 . S
C325 H340 0.929 . S
C326 C316 1.386 . S
C326 C319 1.357 . S
C326 H339 0.928 . S
H327 C303 0.931 . S
H328 C305 0.930 . S
H329 C307 0.929 . S
H330 C308 0.931 . S
H331 C310 0.930 . S
H332 C314 0.931 . S
H333 C312 0.931 . S
H334 C316 0.931 . S
H335 C317 0.929 . S
H336 C318 0.930 . S
H337 C321 0.930 . S
H338 C322 0.931 . S
H339 C326 0.928 . S
H340 C325 0.929 . S
H341 C323 0.932 . S
C342 C343 1.386 . S
C342 C344 1.397 . S
C342 H366 0.931 . S
C343 C342 1.386 . S
C343 C347 1.397 1_545 S
C344 C342 1.397 . S
C344 C345 1.384 . S
C344 H367 0.930 . S
C345 C344 1.384 . S
C345 C346 1.377 1_545 S
C345 C348 1.481 . S
C346 C345 1.377 1_565 S
C346 C347 1.389 . S
C346 H368 0.929 . S
C347 C343 1.397 1_565 S
C347 C346 1.389 . S
C347 H369 0.931 . S
C348 C345 1.481 . S
C348 C349 1.387 . S
C348 C353 1.390 1_545 S
C349 C348 1.387 . S
C349 C350 1.401 . S
C349 H370 0.930 . S
C350 C349 1.401 . S
C350 C351 1.376 1_545 S
C350 C359 1.511 . S
C351 C350 1.376 1_565 S
C351 C352 1.392 . S
C351 H372 0.931 . S
C352 C351 1.392 . S
C352 C353 1.361 . S
C352 C354 1.500 . S
C353 C348 1.390 1_565 S
C353 C352 1.361 . S
C353 H371 0.931 . S
C354 C352 1.500 . S
C354 C355 1.371 . S
C354 C356 1.365 . S
C355 C354 1.371 . S
C355 C365 1.386 . S
C355 H373 0.931 . S
C356 C354 1.365 . S
C356 C357 1.409 . S
C356 H374 0.929 . S
C357 C356 1.409 . S
C357 C358 1.380 . S
C357 H375 0.930 . S
C358 C357 1.380 . S
C358 C365 1.357 . S
C359 C350 1.511 . S
C359 C360 1.341 . S
C359 C361 1.371 . S
C360 C359 1.341 . S
C360 C364 1.394 . S
C360 H376 0.930 . S
C361 C359 1.371 . S
C361 C362 1.392 . S
C361 H377 0.931 . S
C362 C361 1.392 . S
C362 C363 1.331 . S
C362 H380 0.932 . S
C363 C362 1.331 . S
C363 C364 1.336 . S
C364 C360 1.394 . S
C364 C363 1.336 . S
C364 H379 0.929 . S
C365 C355 1.386 . S
C365 C358 1.357 . S
C365 H378 0.928 . S
H366 C342 0.931 . S
H367 C344 0.930 . S
H368 C346 0.929 . S
H369 C347 0.931 . S
H370 C349 0.930 . S
H371 C353 0.931 . S
H372 C351 0.931 . S
H373 C355 0.931 . S
H374 C356 0.929 . S
H375 C357 0.930 . S
H376 C360 0.930 . S
H377 C361 0.931 . S
H378 C365 0.928 . S
H379 C364 0.929 . S
H380 C362 0.932 . S
C381 C382 1.386 1_565 S
C381 C383 1.397 . S
C381 H405 0.931 . S
C382 C381 1.386 1_545 S
C382 C386 1.397 . S
C383 C381 1.397 . S
C383 C384 1.383 1_565 S
C383 H406 0.930 . S
C384 C383 1.383 1_545 S
C384 C385 1.378 . S
C384 C387 1.482 1_545 S
C385 C384 1.378 . S
C385 C386 1.389 . S
C385 H407 0.929 . S
C386 C382 1.397 . S
C386 C385 1.389 . S
C386 H408 0.931 . S
C387 C384 1.482 1_565 S
C387 C388 1.400 . S
C387 C392 1.377 1_565 S
C388 C387 1.400 . S
C388 C389 1.401 . S
C388 H409 0.930 . S
C389 C388 1.401 . S
C389 C390 1.423 . S
C389 C398 1.511 . S
C390 C389 1.423 . S
C390 C391 1.349 1_565 S
C390 H411 0.931 . S
C391 C390 1.349 1_545 S
C391 C392 1.361 . S
C391 C393 1.500 . S
C392 C387 1.377 1_545 S
C392 C391 1.361 . S
C392 H410 0.931 . S
C393 C391 1.500 . S
C393 C394 1.371 . S
C393 C395 1.365 . S
C394 C393 1.371 . S
C394 C404 1.386 . S
C394 H412 0.931 . S
C395 C393 1.365 . S
C395 C396 1.409 . S
C395 H413 0.929 . S
C396 C395 1.409 . S
C396 C397 1.380 . S
C396 H414 0.930 . S
C397 C396 1.380 . S
C397 C404 1.357 . S
C398 C389 1.511 . S
C398 C399 1.341 . S
C398 C400 1.371 . S
C399 C398 1.341 . S
C399 C403 1.394 . S
C399 H415 0.930 . S
C400 C398 1.371 . S
C400 C401 1.392 . S
C400 H416 0.931 . S
C401 C400 1.392 . S
C401 C402 1.331 . S
C401 H419 0.932 . S
C402 C401 1.331 . S
C402 C403 1.336 . S
C403 C399 1.394 . S
C403 C402 1.336 . S
C403 H418 0.929 . S
C404 C394 1.386 . S
C404 C397 1.357 . S
C404 H417 0.928 . S
H405 C381 0.931 . S
H406 C383 0.930 . S
H407 C385 0.929 . S
H408 C386 0.931 . S
H409 C388 0.930 . S
H410 C392 0.931 . S
H411 C390 0.931 . S
H412 C394 0.931 . S
H413 C395 0.929 . S
H414 C396 0.930 . S
H415 C399 0.930 . S
H416 C400 0.931 . S
H417 C404 0.928 . S
H418 C403 0.929 . S
H419 C401 0.932 . S
C420 C421 1.386 . S
C420 C422 1.397 . S
C420 H444 0.931 . S
C421 C420 1.386 . S
C421 C425 1.397 . S
C422 C420 1.397 . S
C422 C423 1.384 . S
C422 H445 0.930 . S
C423 C422 1.384 . S
C423 C424 1.377 . S
C423 C426 1.481 . S
C424 C423 1.377 . S
C424 C425 1.389 . S
C424 H446 0.929 . S
C425 C421 1.397 . S
C425 C424 1.389 . S
C425 H447 0.931 . S
C426 C423 1.481 . S
C426 C427 1.387 . S
C426 C431 1.390 . S
C427 C426 1.387 . S
C427 C428 1.401 . S
C427 H448 0.930 . S
C428 C427 1.401 . S
C428 C429 1.376 . S
C428 C437 1.511 . S
C429 C428 1.376 . S
C429 C430 1.392 . S
C429 H450 0.931 . S
C430 C429 1.392 . S
C430 C431 1.361 . S
C430 C432 1.500 . S
C431 C426 1.390 . S
C431 C430 1.361 . S
C431 H449 0.931 . S
C432 C430 1.500 . S
C432 C433 1.371 . S
C432 C434 1.365 . S
C433 C432 1.371 . S
C433 C443 1.386 . S
C433 H451 0.931 . S
C434 C432 1.365 . S
C434 C435 1.409 . S
C434 H452 0.929 . S
C435 C434 1.409 . S
C435 C436 1.380 . S
C435 H453 0.930 . S
C436 C435 1.380 . S
C436 C443 1.357 . S
C437 C428 1.511 . S
C437 C438 1.341 . S
C437 C439 1.371 . S
C438 C437 1.341 . S
C438 C442 1.394 . S
C438 H454 0.930 . S
C439 C437 1.371 . S
C439 C440 1.392 . S
C439 H455 0.931 . S
C440 C439 1.392 . S
C440 C441 1.331 . S
C440 H458 0.932 . S
C441 C440 1.331 . S
C441 C442 1.336 . S
C442 C438 1.394 . S
C442 C441 1.336 . S
C442 H457 0.929 . S
C443 C433 1.386 . S
C443 C436 1.357 . S
C443 H456 0.928 . S
H444 C420 0.931 . S
H445 C422 0.930 . S
H446 C424 0.929 . S
H447 C425 0.931 . S
H448 C427 0.930 . S
H449 C431 0.931 . S
H450 C429 0.931 . S
H451 C433 0.931 . S
H452 C434 0.929 . S
H453 C435 0.930 . S
H454 C438 0.930 . S
H455 C439 0.931 . S
H456 C443 0.928 . S
H457 C442 0.929 . S
H458 C440 0.932 . S
C459 C460 1.386 1_556 S
C459 C461 1.397 . S
C459 H483 0.931 . S
C460 C459 1.386 1_554 S
C460 C464 1.397 . S
C461 C459 1.397 . S
C461 C462 1.383 1_556 S
C461 H484 0.930 . S
C462 C461 1.383 1_554 S
C462 C463 1.378 . S
C462 C465 1.482 1_554 S
C463 C462 1.378 . S
C463 C464 1.389 . S
C463 H485 0.929 . S
C464 C460 1.397 . S
C464 C463 1.389 . S
C464 H486 0.931 . S
C465 C462 1.482 1_556 S
C465 C466 1.400 . S
C465 C470 1.377 1_556 S
C466 C465 1.400 . S
C466 C467 1.401 . S
C466 H487 0.930 . S
C467 C466 1.401 . S
C467 C468 1.423 . S
C467 C476 1.511 . S
C468 C467 1.423 . S
C468 C469 1.349 1_556 S
C468 H489 0.931 . S
C469 C468 1.349 1_554 S
C469 C470 1.361 . S
C469 C471 1.500 . S
C470 C465 1.377 1_554 S
C470 C469 1.361 . S
C470 H488 0.931 . S
C471 C469 1.500 . S
C471 C472 1.371 . S
C471 C473 1.365 . S
C472 C471 1.371 . S
C472 C482 1.386 . S
C472 H490 0.931 . S
C473 C471 1.365 . S
C473 C474 1.409 . S
C473 H491 0.929 . S
C474 C473 1.409 . S
C474 C475 1.380 . S
C474 H492 0.930 . S
C475 C474 1.380 . S
C475 C482 1.357 . S
C476 C467 1.511 . S
C476 C477 1.341 . S
C476 C478 1.371 . S
C477 C476 1.341 . S
C477 C481 1.394 . S
C477 H493 0.930 . S
C478 C476 1.371 . S
C478 C479 1.392 . S
C478 H494 0.931 . S
C479 C478 1.392 . S
C479 C480 1.331 . S
C479 H497 0.932 . S
C480 C479 1.331 . S
C480 C481 1.336 . S
C481 C477 1.394 . S
C481 C480 1.336 . S
C481 H496 0.929 . S
C482 C472 1.386 . S
C482 C475 1.357 . S
C482 H495 0.928 . S
H483 C459 0.931 . S
H484 C461 0.930 . S
H485 C463 0.929 . S
H486 C464 0.931 . S
H487 C466 0.930 . S
H488 C470 0.931 . S
H489 C468 0.931 . S
H490 C472 0.931 . S
H491 C473 0.929 . S
H492 C474 0.930 . S
H493 C477 0.930 . S
H494 C478 0.931 . S
H495 C482 0.928 . S
H496 C481 0.929 . S
H497 C479 0.932 . S
C498 C499 1.386 . S
C498 C500 1.397 . S
C498 H522 0.931 . S
C499 C498 1.386 . S
C499 C503 1.397 . S
C500 C498 1.397 . S
C500 C501 1.384 . S
C500 H523 0.930 . S
C501 C500 1.384 . S
C501 C502 1.377 . S
C501 C504 1.481 . S
C502 C501 1.377 . S
C502 C503 1.389 . S
C502 H524 0.929 . S
C503 C499 1.397 . S
C503 C502 1.389 . S
C503 H525 0.931 . S
C504 C501 1.481 . S
C504 C505 1.387 . S
C504 C509 1.390 . S
C505 C504 1.387 . S
C505 C506 1.401 . S
C505 H526 0.930 . S
C506 C505 1.401 . S
C506 C507 1.376 . S
C506 C515 1.511 . S
C507 C506 1.376 . S
C507 C508 1.392 . S
C507 H528 0.931 . S
C508 C507 1.392 . S
C508 C509 1.361 . S
C508 C510 1.500 . S
C509 C504 1.390 . S
C509 C508 1.361 . S
C509 H527 0.931 . S
C510 C508 1.500 . S
C510 C511 1.371 . S
C510 C512 1.365 . S
C511 C510 1.371 . S
C511 C521 1.386 . S
C511 H529 0.931 . S
C512 C510 1.365 . S
C512 C513 1.409 . S
C512 H530 0.929 . S
C513 C512 1.409 . S
C513 C514 1.380 . S
C513 H531 0.930 . S
C514 C513 1.380 . S
C514 C521 1.357 . S
C515 C506 1.511 . S
C515 C516 1.341 . S
C515 C517 1.371 . S
C516 C515 1.341 . S
C516 C520 1.394 . S
C516 H532 0.930 . S
C517 C515 1.371 . S
C517 C518 1.392 . S
C517 H533 0.931 . S
C518 C517 1.392 . S
C518 C519 1.331 . S
C518 H536 0.932 . S
C519 C518 1.331 . S
C519 C520 1.336 . S
C520 C516 1.394 . S
C520 C519 1.336 . S
C520 H535 0.929 . S
C521 C511 1.386 . S
C521 C514 1.357 . S
C521 H534 0.928 . S
H522 C498 0.931 . S
H523 C500 0.930 . S
H524 C502 0.929 . S
H525 C503 0.931 . S
H526 C505 0.930 . S
H527 C509 0.931 . S
H528 C507 0.931 . S
H529 C511 0.931 . S
H530 C512 0.929 . S
H531 C513 0.930 . S
H532 C516 0.930 . S
H533 C517 0.931 . S
H534 C521 0.928 . S
H535 C520 0.929 . S
H536 C518 0.932 . S
C537 C538 1.386 . S
C537 C539 1.397 . S
C537 H561 0.931 . S
C538 C537 1.386 . S
C538 C542 1.397 1_554 S
C539 C537 1.397 . S
C539 C540 1.384 . S
C539 H562 0.930 . S
C540 C539 1.384 . S
C540 C541 1.377 1_554 S
C540 C543 1.481 . S
C541 C540 1.377 1_556 S
C541 C542 1.389 . S
C541 H563 0.929 . S
C542 C538 1.397 1_556 S
C542 C541 1.389 . S
C542 H564 0.931 . S
C543 C540 1.481 . S
C543 C544 1.387 . S
C543 C548 1.390 1_554 S
C544 C543 1.387 . S
C544 C545 1.401 . S
C544 H565 0.930 . S
C545 C544 1.401 . S
C545 C546 1.376 1_554 S
C545 C554 1.511 . S
C546 C545 1.376 1_556 S
C546 C547 1.392 . S
C546 H567 0.931 . S
C547 C546 1.392 . S
C547 C548 1.361 . S
C547 C549 1.500 . S
C548 C543 1.390 1_556 S
C548 C547 1.361 . S
C548 H566 0.931 . S
C549 C547 1.500 . S
C549 C550 1.371 . S
C549 C551 1.365 . S
C550 C549 1.371 . S
C550 C560 1.386 . S
C550 H568 0.931 . S
C551 C549 1.365 . S
C551 C552 1.409 . S
C551 H569 0.929 . S
C552 C551 1.409 . S
C552 C553 1.380 . S
C552 H570 0.930 . S
C553 C552 1.380 . S
C553 C560 1.357 . S
C554 C545 1.511 . S
C554 C555 1.341 . S
C554 C556 1.371 . S
C555 C554 1.341 . S
C555 C559 1.394 . S
C555 H571 0.930 . S
C556 C554 1.371 . S
C556 C557 1.392 . S
C556 H572 0.931 . S
C557 C556 1.392 . S
C557 C558 1.331 . S
C557 H575 0.932 . S
C558 C557 1.331 . S
C558 C559 1.336 . S
C559 C555 1.394 . S
C559 C558 1.336 . S
C559 H574 0.929 . S
C560 C550 1.386 . S
C560 C553 1.357 . S
C560 H573 0.928 . S
H561 C537 0.931 . S
H562 C539 0.930 . S
H563 C541 0.929 . S
H564 C542 0.931 . S
H565 C544 0.930 . S
H566 C548 0.931 . S
H567 C546 0.931 . S
H568 C550 0.931 . S
H569 C551 0.929 . S
H570 C552 0.930 . S
H571 C555 0.930 . S
H572 C556 0.931 . S
H573 C560 0.928 . S
H574 C559 0.929 . S
H575 C557 0.932 . S
C576 C577 1.386 . S
C576 C578 1.397 . S
C576 H600 0.931 . S
C577 C576 1.386 . S
C577 C581 1.397 . S
C578 C576 1.397 . S
C578 C579 1.384 . S
C578 H601 0.930 . S
C579 C578 1.384 . S
C579 C580 1.377 . S
C579 C582 1.481 . S
C580 C579 1.377 . S
C580 C581 1.389 . S
C580 H602 0.929 . S
C581 C577 1.397 . S
C581 C580 1.389 . S
C581 H603 0.931 . S
C582 C579 1.481 . S
C582 C583 1.387 . S
C582 C587 1.390 . S
C583 C582 1.387 . S
C583 C584 1.401 . S
C583 H604 0.930 . S
C584 C583 1.401 . S
C584 C585 1.376 . S
C584 C593 1.511 . S
C585 C584 1.376 . S
C585 C586 1.392 . S
C585 H606 0.931 . S
C586 C585 1.392 . S
C586 C587 1.361 . S
C586 C588 1.500 . S
C587 C582 1.390 . S
C587 C586 1.361 . S
C587 H605 0.931 . S
C588 C586 1.500 . S
C588 C589 1.371 . S
C588 C590 1.365 . S
C589 C588 1.371 . S
C589 C599 1.386 . S
C589 H607 0.931 . S
C590 C588 1.365 . S
C590 C591 1.409 . S
C590 H608 0.929 . S
C591 C590 1.409 . S
C591 C592 1.380 . S
C591 H609 0.930 . S
C592 C591 1.380 . S
C592 C599 1.357 . S
C593 C584 1.511 . S
C593 C594 1.341 . S
C593 C595 1.371 . S
C594 C593 1.341 . S
C594 C598 1.394 . S
C594 H610 0.930 . S
C595 C593 1.371 . S
C595 C596 1.392 . S
C595 H611 0.931 . S
C596 C595 1.392 . S
C596 C597 1.331 . S
C596 H614 0.932 . S
C597 C596 1.331 . S
C597 C598 1.336 . S
C598 C594 1.394 . S
C598 C597 1.336 . S
C598 H613 0.929 . S
C599 C589 1.386 . S
C599 C592 1.357 . S
C599 H612 0.928 . S
H600 C576 0.931 . S
H601 C578 0.930 . S
H602 C580 0.929 . S
H603 C581 0.931 . S
H604 C583 0.930 . S
H605 C587 0.931 . S
H606 C585 0.931 . S
H607 C589 0.931 . S
H608 C590 0.929 . S
H609 C591 0.930 . S
H610 C594 0.930 . S
H611 C595 0.931 . S
H612 C599 0.928 . S
H613 C598 0.929 . S
H614 C596 0.932 . S
C615 C616 1.386 1_655 S
C615 C617 1.397 . S
C615 H639 0.931 . S
C616 C615 1.386 1_455 S
C616 C620 1.397 . S
C617 C615 1.397 . S
C617 C618 1.383 1_655 S
C617 H640 0.930 . S
C618 C617 1.383 1_455 S
C618 C619 1.378 . S
C618 C621 1.482 1_455 S
C619 C618 1.378 . S
C619 C620 1.389 . S
C619 H641 0.929 . S
C620 C616 1.397 . S
C620 C619 1.389 . S
C620 H642 0.931 . S
C621 C618 1.482 1_655 S
C621 C622 1.400 . S
C621 C626 1.377 1_655 S
C622 C621 1.400 . S
C622 C623 1.401 . S
C622 H643 0.930 . S
C623 C622 1.401 . S
C623 C624 1.423 . S
C623 C632 1.511 . S
C624 C623 1.423 . S
C624 C625 1.349 1_655 S
C624 H645 0.931 . S
C625 C624 1.349 1_455 S
C625 C626 1.361 . S
C625 C627 1.500 . S
C626 C621 1.377 1_455 S
C626 C625 1.361 . S
C626 H644 0.931 . S
C627 C625 1.500 . S
C627 C628 1.371 . S
C627 C629 1.365 . S
C628 C627 1.371 . S
C628 C638 1.386 . S
C628 H646 0.931 . S
C629 C627 1.365 . S
C629 C630 1.409 . S
C629 H647 0.929 . S
C630 C629 1.409 . S
C630 C631 1.380 . S
C630 H648 0.930 . S
C631 C630 1.380 . S
C631 C638 1.357 . S
C632 C623 1.511 . S
C632 C633 1.341 . S
C632 C634 1.371 . S
C633 C632 1.341 . S
C633 C637 1.394 . S
C633 H649 0.930 . S
C634 C632 1.371 . S
C634 C635 1.392 . S
C634 H650 0.931 . S
C635 C634 1.392 . S
C635 C636 1.331 . S
C635 H653 0.932 . S
C636 C635 1.331 . S
C636 C637 1.336 . S
C637 C633 1.394 . S
C637 C636 1.336 . S
C637 H652 0.929 . S
C638 C628 1.386 . S
C638 C631 1.357 . S
C638 H651 0.928 . S
H639 C615 0.931 . S
H640 C617 0.930 . S
H641 C619 0.929 . S
H642 C620 0.931 . S
H643 C622 0.930 . S
H644 C626 0.931 . S
H645 C624 0.931 . S
H646 C628 0.931 . S
H647 C629 0.929 . S
H648 C630 0.930 . S
H649 C633 0.930 . S
H650 C634 0.931 . S
H651 C638 0.928 . S
H652 C637 0.929 . S
H653 C635 0.932 . S
C654 C655 1.386 . S
C654 C656 1.397 . S
C654 H678 0.931 . S
C655 C654 1.386 . S
C655 C659 1.397 . S
C656 C654 1.397 . S
C656 C657 1.384 . S
C656 H679 0.930 . S
C657 C656 1.384 . S
C657 C658 1.377 . S
C657 C660 1.481 . S
C658 C657 1.377 . S
C658 C659 1.389 . S
C658 H680 0.929 . S
C659 C655 1.397 . S
C659 C658 1.389 . S
C659 H681 0.931 . S
C660 C657 1.481 . S
C660 C661 1.387 . S
C660 C665 1.390 . S
C661 C660 1.387 . S
C661 C662 1.401 . S
C661 H682 0.930 . S
C662 C661 1.401 . S
C662 C663 1.376 . S
C662 C671 1.511 . S
C663 C662 1.376 . S
C663 C664 1.392 . S
C663 H684 0.931 . S
C664 C663 1.392 . S
C664 C665 1.361 . S
C664 C666 1.500 . S
C665 C660 1.390 . S
C665 C664 1.361 . S
C665 H683 0.931 . S
C666 C664 1.500 . S
C666 C667 1.371 . S
C666 C668 1.365 . S
C667 C666 1.371 . S
C667 C677 1.386 . S
C667 H685 0.931 . S
C668 C666 1.365 . S
C668 C669 1.409 . S
C668 H686 0.929 . S
C669 C668 1.409 . S
C669 C670 1.380 . S
C669 H687 0.930 . S
C670 C669 1.380 . S
C670 C677 1.357 . S
C671 C662 1.511 . S
C671 C672 1.341 . S
C671 C673 1.371 . S
C672 C671 1.341 . S
C672 C676 1.394 . S
C672 H688 0.930 . S
C673 C671 1.371 . S
C673 C674 1.392 . S
C673 H689 0.931 . S
C674 C673 1.392 . S
C674 C675 1.331 . S
C674 H692 0.932 . S
C675 C674 1.331 . S
C675 C676 1.336 . S
C676 C672 1.394 . S
C676 C675 1.336 . S
C676 H691 0.929 . S
C677 C667 1.386 . S
C677 C670 1.357 . S
C677 H690 0.928 . S
H678 C654 0.931 . S
H679 C656 0.930 . S
H680 C658 0.929 . S
H681 C659 0.931 . S
H682 C661 0.930 . S
H683 C665 0.931 . S
H684 C663 0.931 . S
H685 C667 0.931 . S
H686 C668 0.929 . S
H687 C669 0.930 . S
H688 C672 0.930 . S
H689 C673 0.931 . S
H690 C677 0.928 . S
H691 C676 0.929 . S
H692 C674 0.932 . S
C693 C694 1.386 . S
C693 C695 1.397 . S
C693 H717 0.931 . S
C694 C693 1.386 . S
C694 C698 1.397 1_455 S
C695 C693 1.397 . S
C695 C696 1.384 . S
C695 H718 0.930 . S
C696 C695 1.384 . S
C696 C697 1.377 1_455 S
C696 C699 1.481 . S
C697 C696 1.377 1_655 S
C697 C698 1.389 . S
C697 H719 0.929 . S
C698 C694 1.397 1_655 S
C698 C697 1.389 . S
C698 H720 0.931 . S
C699 C696 1.481 . S
C699 C700 1.387 . S
C699 C704 1.390 1_455 S
C700 C699 1.387 . S
C700 C701 1.401 . S
C700 H721 0.930 . S
C701 C700 1.401 . S
C701 C702 1.376 1_455 S
C701 C710 1.511 . S
C702 C701 1.376 1_655 S
C702 C703 1.392 . S
C702 H723 0.931 . S
C703 C702 1.392 . S
C703 C704 1.361 . S
C703 C705 1.500 . S
C704 C699 1.390 1_655 S
C704 C703 1.361 . S
C704 H722 0.931 . S
C705 C703 1.500 . S
C705 C706 1.371 . S
C705 C707 1.365 . S
C706 C705 1.371 . S
C706 C716 1.386 . S
C706 H724 0.931 . S
C707 C705 1.365 . S
C707 C708 1.409 . S
C707 H725 0.929 . S
C708 C707 1.409 . S
C708 C709 1.380 . S
C708 H726 0.930 . S
C709 C708 1.380 . S
C709 C716 1.357 . S
C710 C701 1.511 . S
C710 C711 1.341 . S
C710 C712 1.371 . S
C711 C710 1.341 . S
C711 C715 1.394 . S
C711 H727 0.930 . S
C712 C710 1.371 . S
C712 C713 1.392 . S
C712 H728 0.931 . S
C713 C712 1.392 . S
C713 C714 1.331 . S
C713 H731 0.932 . S
C714 C713 1.331 . S
C714 C715 1.336 . S
C715 C711 1.394 . S
C715 C714 1.336 . S
C715 H730 0.929 . S
C716 C706 1.386 . S
C716 C709 1.357 . S
C716 H729 0.928 . S
H717 C693 0.931 . S
H718 C695 0.930 . S
H719 C697 0.929 . S
H720 C698 0.931 . S
H721 C700 0.930 . S
H722 C704 0.931 . S
H723 C702 0.931 . S
H724 C706 0.931 . S
H725 C707 0.929 . S
H726 C708 0.930 . S
H727 C711 0.930 . S
H728 C712 0.931 . S
H729 C716 0.928 . S
H730 C715 0.929 . S
H731 C713 0.932 . S
C732 C733 1.386 . S
C732 C734 1.397 . S
C732 H756 0.931 . S
C733 C732 1.386 . S
C733 C737 1.397 . S
C734 C732 1.397 . S
C734 C735 1.384 . S
C734 H757 0.930 . S
C735 C734 1.384 . S
C735 C736 1.377 . S
C735 C738 1.481 . S
C736 C735 1.377 . S
C736 C737 1.389 . S
C736 H758 0.929 . S
C737 C733 1.397 . S
C737 C736 1.389 . S
C737 H759 0.931 . S
C738 C735 1.481 . S
C738 C739 1.387 . S
C738 C743 1.390 . S
C739 C738 1.387 . S
C739 C740 1.401 . S
C739 H760 0.930 . S
C740 C739 1.401 . S
C740 C741 1.376 . S
C740 C749 1.511 . S
C741 C740 1.376 . S
C741 C742 1.392 . S
C741 H762 0.931 . S
C742 C741 1.392 . S
C742 C743 1.361 . S
C742 C744 1.500 . S
C743 C738 1.390 . S
C743 C742 1.361 . S
C743 H761 0.931 . S
C744 C742 1.500 . S
C744 C745 1.371 . S
C744 C746 1.365 . S
C745 C744 1.371 . S
C745 C755 1.386 . S
C745 H763 0.931 . S
C746 C744 1.365 . S
C746 C747 1.409 . S
C746 H764 0.929 . S
C747 C746 1.409 . S
C747 C748 1.380 . S
C747 H765 0.930 . S
C748 C747 1.380 . S
C748 C755 1.357 . S
C749 C740 1.511 . S
C749 C750 1.341 . S
C749 C751 1.371 . S
C750 C749 1.341 . S
C750 C754 1.394 . S
C750 H766 0.930 . S
C751 C749 1.371 . S
C751 C752 1.392 . S
C751 H767 0.931 . S
C752 C751 1.392 . S
C752 C753 1.331 . S
C752 H770 0.932 . S
C753 C752 1.331 . S
C753 C754 1.336 . S
C754 C750 1.394 . S
C754 C753 1.336 . S
C754 H769 0.929 . S
C755 C745 1.386 . S
C755 C748 1.357 . S
C755 H768 0.928 . S
H756 C732 0.931 . S
H757 C734 0.930 . S
H758 C736 0.929 . S
H759 C737 0.931 . S
H760 C739 0.930 . S
H761 C743 0.931 . S
H762 C741 0.931 . S
H763 C745 0.931 . S
H764 C746 0.929 . S
H765 C747 0.930 . S
H766 C750 0.930 . S
H767 C751 0.931 . S
H768 C755 0.928 . S
H769 C754 0.929 . S
H770 C752 0.932 . S
C771 C772 1.386 . S
C771 C773 1.397 . S
C771 H795 0.931 . S
C772 C771 1.386 . S
C772 C776 1.397 . S
C773 C771 1.397 . S
C773 C774 1.384 . S
C773 H796 0.930 . S
C774 C773 1.384 . S
C774 C775 1.377 . S
C774 C777 1.481 . S
C775 C774 1.377 . S
C775 C776 1.389 . S
C775 H797 0.929 . S
C776 C772 1.397 . S
C776 C775 1.389 . S
C776 H798 0.931 . S
C777 C774 1.481 . S
C777 C778 1.387 . S
C777 C782 1.390 . S
C778 C777 1.387 . S
C778 C779 1.401 . S
C778 H799 0.930 . S
C779 C778 1.401 . S
C779 C780 1.376 . S
C779 C788 1.511 . S
C780 C779 1.376 . S
C780 C781 1.392 . S
C780 H801 0.931 . S
C781 C780 1.392 . S
C781 C782 1.361 . S
C781 C783 1.500 . S
C782 C777 1.390 . S
C782 C781 1.361 . S
C782 H800 0.931 . S
C783 C781 1.500 . S
C783 C784 1.371 . S
C783 C785 1.365 . S
C784 C783 1.371 . S
C784 C794 1.386 . S
C784 H802 0.931 . S
C785 C783 1.365 . S
C785 C786 1.409 . S
C785 H803 0.929 . S
C786 C785 1.409 . S
C786 C787 1.380 . S
C786 H804 0.930 . S
C787 C786 1.380 . S
C787 C794 1.357 . S
C788 C779 1.511 . S
C788 C789 1.341 . S
C788 C790 1.371 . S
C789 C788 1.341 . S
C789 C793 1.394 . S
C789 H805 0.930 . S
C790 C788 1.371 . S
C790 C791 1.392 . S
C790 H806 0.931 . S
C791 C790 1.392 . S
C791 C792 1.331 . S
C791 H809 0.932 . S
C792 C791 1.331 . S
C792 C793 1.336 . S
C793 C789 1.394 . S
C793 C792 1.336 . S
C793 H808 0.929 . S
C794 C784 1.386 . S
C794 C787 1.357 . S
C794 H807 0.928 . S
H795 C771 0.931 . S
H796 C773 0.930 . S
H797 C775 0.929 . S
H798 C776 0.931 . S
H799 C778 0.930 . S
H800 C782 0.931 . S
H801 C780 0.931 . S
H802 C784 0.931 . S
H803 C785 0.929 . S
H804 C786 0.930 . S
H805 C789 0.930 . S
H806 C790 0.931 . S
H807 C794 0.928 . S
H808 C793 0.929 . S
H809 C791 0.932 . S
C810 C811 1.386 . S
C810 C812 1.397 . S
C810 H834 0.931 . S
C811 C810 1.386 . S
C811 C815 1.397 1_565 S
C812 C810 1.397 . S
C812 C813 1.384 . S
C812 H835 0.930 . S
C813 C812 1.384 . S
C813 C814 1.377 1_565 S
C813 C816 1.481 . S
C814 C813 1.377 1_545 S
C814 C815 1.389 . S
C814 H836 0.929 . S
C815 C811 1.397 1_545 S
C815 C814 1.389 . S
C815 H837 0.931 . S
C816 C813 1.481 . S
C816 C817 1.387 . S
C816 C821 1.390 1_565 S
C817 C816 1.387 . S
C817 C818 1.401 . S
C817 H838 0.930 . S
C818 C817 1.401 . S
C818 C819 1.376 1_565 S
C818 C827 1.511 . S
C819 C818 1.376 1_545 S
C819 C820 1.392 . S
C819 H840 0.931 . S
C820 C819 1.392 . S
C820 C821 1.361 . S
C820 C822 1.500 . S
C821 C816 1.390 1_545 S
C821 C820 1.361 . S
C821 H839 0.931 . S
C822 C820 1.500 . S
C822 C823 1.371 . S
C822 C824 1.365 . S
C823 C822 1.371 . S
C823 C833 1.386 . S
C823 H841 0.931 . S
C824 C822 1.365 . S
C824 C825 1.409 . S
C824 H842 0.929 . S
C825 C824 1.409 . S
C825 C826 1.380 . S
C825 H843 0.930 . S
C826 C825 1.380 . S
C826 C833 1.357 . S
C827 C818 1.511 . S
C827 C828 1.341 . S
C827 C829 1.371 . S
C828 C827 1.341 . S
C828 C832 1.394 . S
C828 H844 0.930 . S
C829 C827 1.371 . S
C829 C830 1.392 . S
C829 H845 0.931 . S
C830 C829 1.392 . S
C830 C831 1.331 . S
C830 H848 0.932 . S
C831 C830 1.331 . S
C831 C832 1.336 . S
C832 C828 1.394 . S
C832 C831 1.336 . S
C832 H847 0.929 . S
C833 C823 1.386 . S
C833 C826 1.357 . S
C833 H846 0.928 . S
H834 C810 0.931 . S
H835 C812 0.930 . S
H836 C814 0.929 . S
H837 C815 0.931 . S
H838 C817 0.930 . S
H839 C821 0.931 . S
H840 C819 0.931 . S
H841 C823 0.931 . S
H842 C824 0.929 . S
H843 C825 0.930 . S
H844 C828 0.930 . S
H845 C829 0.931 . S
H846 C833 0.928 . S
H847 C832 0.929 . S
H848 C830 0.932 . S
C849 C850 1.386 1_545 S
C849 C851 1.397 . S
C849 H873 0.931 . S
C850 C849 1.386 1_565 S
C850 C854 1.397 . S
C851 C849 1.397 . S
C851 C852 1.383 1_545 S
C851 H874 0.930 . S
C852 C851 1.383 1_565 S
C852 C853 1.378 . S
C852 C855 1.482 1_565 S
C853 C852 1.378 . S
C853 C854 1.389 . S
C853 H875 0.929 . S
C854 C850 1.397 . S
C854 C853 1.389 . S
C854 H876 0.931 . S
C855 C852 1.482 1_545 S
C855 C856 1.403 . S
C855 C860 1.374 1_545 S
C856 C855 1.403 . S
C856 C857 1.401 . S
C856 H877 0.930 . S
C857 C856 1.401 . S
C857 C858 1.428 . S
C857 C866 1.511 . S
C858 C857 1.428 . S
C858 C859 1.345 1_545 S
C858 H879 0.932 . S
C859 C858 1.345 1_565 S
C859 C860 1.361 . S
C859 C861 1.500 . S
C860 C855 1.374 1_565 S
C860 C859 1.361 . S
C860 H878 0.931 . S
C861 C859 1.500 . S
C861 C862 1.371 . S
C861 C863 1.365 . S
C862 C861 1.371 . S
C862 C872 1.386 . S
C862 H880 0.931 . S
C863 C861 1.365 . S
C863 C864 1.409 . S
C863 H881 0.929 . S
C864 C863 1.409 . S
C864 C865 1.380 . S
C864 H882 0.930 . S
C865 C864 1.380 . S
C865 C872 1.357 . S
C866 C857 1.511 . S
C866 C867 1.341 . S
C866 C868 1.371 . S
C867 C866 1.341 . S
C867 C871 1.394 . S
C867 H883 0.930 . S
C868 C866 1.371 . S
C868 C869 1.392 . S
C868 H884 0.931 . S
C869 C868 1.392 . S
C869 C870 1.331 . S
C869 H887 0.932 . S
C870 C869 1.331 . S
C870 C871 1.336 . S
C871 C867 1.394 . S
C871 C870 1.336 . S
C871 H886 0.929 . S
C872 C862 1.386 . S
C872 C865 1.357 . S
C872 H885 0.928 . S
H873 C849 0.931 . S
H874 C851 0.930 . S
H875 C853 0.929 . S
H876 C854 0.931 . S
H877 C856 0.930 . S
H878 C860 0.931 . S
H879 C858 0.932 . S
H880 C862 0.931 . S
H881 C863 0.929 . S
H882 C864 0.930 . S
H883 C867 0.930 . S
H884 C868 0.931 . S
H885 C872 0.928 . S
H886 C871 0.929 . S
H887 C869 0.932 . S
C888 C889 1.386 . S
C888 C890 1.397 . S
C888 H912 0.931 . S
C889 C888 1.386 . S
C889 C893 1.397 . S
C890 C888 1.397 . S
C890 C891 1.384 . S
C890 H913 0.930 . S
C891 C890 1.384 . S
C891 C892 1.377 . S
C891 C894 1.481 . S
C892 C891 1.377 . S
C892 C893 1.389 . S
C892 H914 0.929 . S
C893 C889 1.397 . S
C893 C892 1.389 . S
C893 H915 0.931 . S
C894 C891 1.481 . S
C894 C895 1.387 . S
C894 C899 1.390 . S
C895 C894 1.387 . S
C895 C896 1.401 . S
C895 H916 0.930 . S
C896 C895 1.401 . S
C896 C897 1.376 . S
C896 C905 1.511 . S
C897 C896 1.376 . S
C897 C898 1.392 . S
C897 H918 0.931 . S
C898 C897 1.392 . S
C898 C899 1.361 . S
C898 C900 1.500 . S
C899 C894 1.390 . S
C899 C898 1.361 . S
C899 H917 0.931 . S
C900 C898 1.500 . S
C900 C901 1.371 . S
C900 C902 1.365 . S
C901 C900 1.371 . S
C901 C911 1.386 . S
C901 H919 0.931 . S
C902 C900 1.365 . S
C902 C903 1.409 . S
C902 H920 0.929 . S
C903 C902 1.409 . S
C903 C904 1.380 . S
C903 H921 0.930 . S
C904 C903 1.380 . S
C904 C911 1.357 . S
C905 C896 1.511 . S
C905 C906 1.341 . S
C905 C907 1.371 . S
C906 C905 1.341 . S
C906 C910 1.394 . S
C906 H922 0.930 . S
C907 C905 1.371 . S
C907 C908 1.392 . S
C907 H923 0.931 . S
C908 C907 1.392 . S
C908 C909 1.331 . S
C908 H926 0.932 . S
C909 C908 1.331 . S
C909 C910 1.336 . S
C910 C906 1.394 . S
C910 C909 1.336 . S
C910 H925 0.929 . S
C911 C901 1.386 . S
C911 C904 1.357 . S
C911 H924 0.928 . S
H912 C888 0.931 . S
H913 C890 0.930 . S
H914 C892 0.929 . S
H915 C893 0.931 . S
H916 C895 0.930 . S
H917 C899 0.931 . S
H918 C897 0.931 . S
H919 C901 0.931 . S
H920 C902 0.929 . S
H921 C903 0.930 . S
H922 C906 0.930 . S
H923 C907 0.931 . S
H924 C911 0.928 . S
H925 C910 0.929 . S
H926 C908 0.932 . S
C927 C928 1.386 1_554 S
C927 C929 1.397 . S
C927 H951 0.931 . S
C928 C927 1.386 1_556 S
C928 C932 1.397 . S
C929 C927 1.397 . S
C929 C930 1.383 1_554 S
C929 H952 0.930 . S
C930 C929 1.383 1_556 S
C930 C931 1.378 . S
C930 C933 1.482 1_556 S
C931 C930 1.378 . S
C931 C932 1.389 . S
C931 H953 0.929 . S
C932 C928 1.397 . S
C932 C931 1.389 . S
C932 H954 0.931 . S
C933 C930 1.482 1_554 S
C933 C934 1.403 . S
C933 C938 1.374 1_554 S
C934 C933 1.403 . S
C934 C935 1.401 . S
C934 H955 0.930 . S
C935 C934 1.401 . S
C935 C936 1.428 . S
C935 C944 1.511 . S
C936 C935 1.428 . S
C936 C937 1.345 1_554 S
C936 H957 0.932 . S
C937 C936 1.345 1_556 S
C937 C938 1.361 . S
C937 C939 1.500 . S
C938 C933 1.374 1_556 S
C938 C937 1.361 . S
C938 H956 0.931 . S
C939 C937 1.500 . S
C939 C940 1.371 . S
C939 C941 1.365 . S
C940 C939 1.371 . S
C940 C950 1.386 . S
C940 H958 0.931 . S
C941 C939 1.365 . S
C941 C942 1.409 . S
C941 H959 0.929 . S
C942 C941 1.409 . S
C942 C943 1.380 . S
C942 H960 0.930 . S
C943 C942 1.380 . S
C943 C950 1.357 . S
C944 C935 1.511 . S
C944 C945 1.341 . S
C944 C946 1.371 . S
C945 C944 1.341 . S
C945 C949 1.394 . S
C945 H961 0.930 . S
C946 C944 1.371 . S
C946 C947 1.392 . S
C946 H962 0.931 . S
C947 C946 1.392 . S
C947 C948 1.331 . S
C947 H965 0.932 . S
C948 C947 1.331 . S
C948 C949 1.336 . S
C949 C945 1.394 . S
C949 C948 1.336 . S
C949 H964 0.929 . S
C950 C940 1.386 . S
C950 C943 1.357 . S
C950 H963 0.928 . S
H951 C927 0.931 . S
H952 C929 0.930 . S
H953 C931 0.929 . S
H954 C932 0.931 . S
H955 C934 0.930 . S
H956 C938 0.931 . S
H957 C936 0.932 . S
H958 C940 0.931 . S
H959 C941 0.929 . S
H960 C942 0.930 . S
H961 C945 0.930 . S
H962 C946 0.931 . S
H963 C950 0.928 . S
H964 C949 0.929 . S
H965 C947 0.932 . S
C966 C967 1.386 . S
C966 C968 1.397 . S
C966 H990 0.931 . S
C967 C966 1.386 . S
C967 C971 1.397 . S
C968 C966 1.397 . S
C968 C969 1.384 . S
C968 H991 0.930 . S
C969 C968 1.384 . S
C969 C970 1.377 . S
C969 C972 1.481 . S
C970 C969 1.377 . S
C970 C971 1.389 . S
C970 H992 0.929 . S
C971 C967 1.397 . S
C971 C970 1.389 . S
C971 H993 0.931 . S
C972 C969 1.481 . S
C972 C973 1.387 . S
C972 C977 1.390 . S
C973 C972 1.387 . S
C973 C974 1.401 . S
C973 H994 0.930 . S
C974 C973 1.401 . S
C974 C975 1.376 . S
C974 C983 1.511 . S
C975 C974 1.376 . S
C975 C976 1.392 . S
C975 H996 0.931 . S
C976 C975 1.392 . S
C976 C977 1.361 . S
C976 C978 1.500 . S
C977 C972 1.390 . S
C977 C976 1.361 . S
C977 H995 0.931 . S
C978 C976 1.500 . S
C978 C979 1.371 . S
C978 C980 1.365 . S
C979 C978 1.371 . S
C979 C989 1.386 . S
C979 H997 0.931 . S
C980 C978 1.365 . S
C980 C981 1.409 . S
C980 H998 0.929 . S
C981 C980 1.409 . S
C981 C982 1.380 . S
C981 H999 0.930 . S
C982 C981 1.380 . S
C982 C989 1.357 . S
C983 C974 1.511 . S
C983 C984 1.341 . S
C983 C985 1.371 . S
C984 C983 1.341 . S
C984 C988 1.394 . S
C984 H1000 0.930 . S
C985 C983 1.371 . S
C985 C986 1.392 . S
C985 H1001 0.931 . S
C986 C985 1.392 . S
C986 C987 1.331 . S
C986 H1004 0.932 . S
C987 C986 1.331 . S
C987 C988 1.336 . S
C988 C984 1.394 . S
C988 C987 1.336 . S
C988 H1003 0.929 . S
C989 C979 1.386 . S
C989 C982 1.357 . S
C989 H1002 0.928 . S
H990 C966 0.931 . S
H991 C968 0.930 . S
H992 C970 0.929 . S
H993 C971 0.931 . S
H994 C973 0.930 . S
H995 C977 0.931 . S
H996 C975 0.931 . S
H997 C979 0.931 . S
H998 C980 0.929 . S
H999 C981 0.930 . S
H1000 C984 0.930 . S
H1001 C985 0.931 . S
H1002 C989 0.928 . S
H1003 C988 0.929 . S
H1004 C986 0.932 . S
C1005 C1006 1.386 . S
C1005 C1007 1.397 . S
C1005 H1029 0.931 . S
C1006 C1005 1.386 . S
C1006 C1010 1.397 1_556 S
C1007 C1005 1.397 . S
C1007 C1008 1.384 . S
C1007 H1030 0.930 . S
C1008 C1007 1.384 . S
C1008 C1009 1.377 1_556 S
C1008 C1011 1.481 . S
C1009 C1008 1.377 1_554 S
C1009 C1010 1.389 . S
C1009 H1031 0.929 . S
C1010 C1006 1.397 1_554 S
C1010 C1009 1.389 . S
C1010 H1032 0.931 . S
C1011 C1008 1.481 . S
C1011 C1012 1.387 . S
C1011 C1016 1.390 1_556 S
C1012 C1011 1.387 . S
C1012 C1013 1.401 . S
C1012 H1033 0.930 . S
C1013 C1012 1.401 . S
C1013 C1014 1.376 1_556 S
C1013 C1022 1.511 . S
C1014 C1013 1.376 1_554 S
C1014 C1015 1.392 . S
C1014 H1035 0.931 . S
C1015 C1014 1.392 . S
C1015 C1016 1.361 . S
C1015 C1017 1.500 . S
C1016 C1011 1.390 1_554 S
C1016 C1015 1.361 . S
C1016 H1034 0.931 . S
C1017 C1015 1.500 . S
C1017 C1018 1.371 . S
C1017 C1019 1.365 . S
C1018 C1017 1.371 . S
C1018 C1028 1.386 . S
C1018 H1036 0.931 . S
C1019 C1017 1.365 . S
C1019 C1020 1.409 . S
C1019 H1037 0.929 . S
C1020 C1019 1.409 . S
C1020 C1021 1.380 . S
C1020 H1038 0.930 . S
C1021 C1020 1.380 . S
C1021 C1028 1.357 . S
C1022 C1013 1.511 . S
C1022 C1023 1.341 . S
C1022 C1024 1.371 . S
C1023 C1022 1.341 . S
C1023 C1027 1.394 . S
C1023 H1039 0.930 . S
C1024 C1022 1.371 . S
C1024 C1025 1.392 . S
C1024 H1040 0.931 . S
C1025 C1024 1.392 . S
C1025 C1026 1.331 . S
C1025 H1043 0.932 . S
C1026 C1025 1.331 . S
C1026 C1027 1.336 . S
C1027 C1023 1.394 . S
C1027 C1026 1.336 . S
C1027 H1042 0.929 . S
C1028 C1018 1.386 . S
C1028 C1021 1.357 . S
C1028 H1041 0.928 . S
H1029 C1005 0.931 . S
H1030 C1007 0.930 . S
H1031 C1009 0.929 . S
H1032 C1010 0.931 . S
H1033 C1012 0.930 . S
H1034 C1016 0.931 . S
H1035 C1014 0.931 . S
H1036 C1018 0.931 . S
H1037 C1019 0.929 . S
H1038 C1020 0.930 . S
H1039 C1023 0.930 . S
H1040 C1024 0.931 . S
H1041 C1028 0.928 . S
H1042 C1027 0.929 . S
H1043 C1025 0.932 . S
C1044 C1045 1.386 . S
C1044 C1046 1.397 . S
C1044 H1068 0.931 . S
C1045 C1044 1.386 . S
C1045 C1049 1.397 . S
C1046 C1044 1.397 . S
C1046 C1047 1.384 . S
C1046 H1069 0.930 . S
C1047 C1046 1.384 . S
C1047 C1048 1.377 . S
C1047 C1050 1.481 . S
C1048 C1047 1.377 . S
C1048 C1049 1.389 . S
C1048 H1070 0.929 . S
C1049 C1045 1.397 . S
C1049 C1048 1.389 . S
C1049 H1071 0.931 . S
C1050 C1047 1.481 . S
C1050 C1051 1.387 . S
C1050 C1055 1.390 . S
C1051 C1050 1.387 . S
C1051 C1052 1.401 . S
C1051 H1072 0.930 . S
C1052 C1051 1.401 . S
C1052 C1053 1.376 . S
C1052 C1061 1.511 . S
C1053 C1052 1.376 . S
C1053 C1054 1.392 . S
C1053 H1074 0.931 . S
C1054 C1053 1.392 . S
C1054 C1055 1.361 . S
C1054 C1056 1.500 . S
C1055 C1050 1.390 . S
C1055 C1054 1.361 . S
C1055 H1073 0.931 . S
C1056 C1054 1.500 . S
C1056 C1057 1.371 . S
C1056 C1058 1.365 . S
C1057 C1056 1.371 . S
C1057 C1067 1.386 . S
C1057 H1075 0.931 . S
C1058 C1056 1.365 . S
C1058 C1059 1.409 . S
C1058 H1076 0.929 . S
C1059 C1058 1.409 . S
C1059 C1060 1.380 . S
C1059 H1077 0.930 . S
C1060 C1059 1.380 . S
C1060 C1067 1.357 . S
C1061 C1052 1.511 . S
C1061 C1062 1.341 . S
C1061 C1063 1.371 . S
C1062 C1061 1.341 . S
C1062 C1066 1.394 . S
C1062 H1078 0.930 . S
C1063 C1061 1.371 . S
C1063 C1064 1.392 . S
C1063 H1079 0.931 . S
C1064 C1063 1.392 . S
C1064 C1065 1.331 . S
C1064 H1082 0.932 . S
C1065 C1064 1.331 . S
C1065 C1066 1.336 . S
C1066 C1062 1.394 . S
C1066 C1065 1.336 . S
C1066 H1081 0.929 . S
C1067 C1057 1.386 . S
C1067 C1060 1.357 . S
C1067 H1080 0.928 . S
H1068 C1044 0.931 . S
H1069 C1046 0.930 . S
H1070 C1048 0.929 . S
H1071 C1049 0.931 . S
H1072 C1051 0.930 . S
H1073 C1055 0.931 . S
H1074 C1053 0.931 . S
H1075 C1057 0.931 . S
H1076 C1058 0.929 . S
H1077 C1059 0.930 . S
H1078 C1062 0.930 . S
H1079 C1063 0.931 . S
H1080 C1067 0.928 . S
H1081 C1066 0.929 . S
H1082 C1064 0.932 . S
C1083 C1084 1.386 1_455 S
C1083 C1085 1.397 . S
C1083 H1107 0.931 . S
C1084 C1083 1.386 1_655 S
C1084 C1088 1.397 . S
C1085 C1083 1.397 . S
C1085 C1086 1.383 1_455 S
C1085 H1108 0.930 . S
C1086 C1085 1.383 1_655 S
C1086 C1087 1.378 . S
C1086 C1089 1.482 1_655 S
C1087 C1086 1.378 . S
C1087 C1088 1.389 . S
C1087 H1109 0.929 . S
C1088 C1084 1.397 . S
C1088 C1087 1.389 . S
C1088 H1110 0.931 . S
C1089 C1086 1.482 1_455 S
C1089 C1090 1.403 . S
C1089 C1094 1.374 1_455 S
C1090 C1089 1.403 . S
C1090 C1091 1.401 . S
C1090 H1111 0.930 . S
C1091 C1090 1.401 . S
C1091 C1092 1.428 . S
C1091 C1100 1.511 . S
C1092 C1091 1.428 . S
C1092 C1093 1.345 1_455 S
C1092 H1113 0.932 . S
C1093 C1092 1.345 1_655 S
C1093 C1094 1.361 . S
C1093 C1095 1.500 . S
C1094 C1089 1.374 1_655 S
C1094 C1093 1.361 . S
C1094 H1112 0.931 . S
C1095 C1093 1.500 . S
C1095 C1096 1.371 . S
C1095 C1097 1.365 . S
C1096 C1095 1.371 . S
C1096 C1106 1.386 . S
C1096 H1114 0.931 . S
C1097 C1095 1.365 . S
C1097 C1098 1.409 . S
C1097 H1115 0.929 . S
C1098 C1097 1.409 . S
C1098 C1099 1.380 . S
C1098 H1116 0.930 . S
C1099 C1098 1.380 . S
C1099 C1106 1.357 . S
C1100 C1091 1.511 . S
C1100 C1101 1.341 . S
C1100 C1102 1.371 . S
C1101 C1100 1.341 . S
C1101 C1105 1.394 . S
C1101 H1117 0.930 . S
C1102 C1100 1.371 . S
C1102 C1103 1.392 . S
C1102 H1118 0.931 . S
C1103 C1102 1.392 . S
C1103 C1104 1.331 . S
C1103 H1121 0.932 . S
C1104 C1103 1.331 . S
C1104 C1105 1.336 . S
C1105 C1101 1.394 . S
C1105 C1104 1.336 . S
C1105 H1120 0.929 . S
C1106 C1096 1.386 . S
C1106 C1099 1.357 . S
C1106 H1119 0.928 . S
H1107 C1083 0.931 . S
H1108 C1085 0.930 . S
H1109 C1087 0.929 . S
H1110 C1088 0.931 . S
H1111 C1090 0.930 . S
H1112 C1094 0.931 . S
H1113 C1092 0.932 . S
H1114 C1096 0.931 . S
H1115 C1097 0.929 . S
H1116 C1098 0.930 . S
H1117 C1101 0.930 . S
H1118 C1102 0.931 . S
H1119 C1106 0.928 . S
H1120 C1105 0.929 . S
H1121 C1103 0.932 . S
C1122 C1123 1.386 . S
C1122 C1124 1.397 . S
C1122 H1146 0.931 . S
C1123 C1122 1.386 . S
C1123 C1127 1.397 . S
C1124 C1122 1.397 . S
C1124 C1125 1.384 . S
C1124 H1147 0.930 . S
C1125 C1124 1.384 . S
C1125 C1126 1.377 . S
C1125 C1128 1.481 . S
C1126 C1125 1.377 . S
C1126 C1127 1.389 . S
C1126 H1148 0.929 . S
C1127 C1123 1.397 . S
C1127 C1126 1.389 . S
C1127 H1149 0.931 . S
C1128 C1125 1.481 . S
C1128 C1129 1.387 . S
C1128 C1133 1.390 . S
C1129 C1128 1.387 . S
C1129 C1130 1.401 . S
C1129 H1150 0.930 . S
C1130 C1129 1.401 . S
C1130 C1131 1.376 . S
C1130 C1139 1.511 . S
C1131 C1130 1.376 . S
C1131 C1132 1.392 . S
C1131 H1152 0.931 . S
C1132 C1131 1.392 . S
C1132 C1133 1.361 . S
C1132 C1134 1.500 . S
C1133 C1128 1.390 . S
C1133 C1132 1.361 . S
C1133 H1151 0.931 . S
C1134 C1132 1.500 . S
C1134 C1135 1.371 . S
C1134 C1136 1.365 . S
C1135 C1134 1.371 . S
C1135 C1145 1.386 . S
C1135 H1153 0.931 . S
C1136 C1134 1.365 . S
C1136 C1137 1.409 . S
C1136 H1154 0.929 . S
C1137 C1136 1.409 . S
C1137 C1138 1.380 . S
C1137 H1155 0.930 . S
C1138 C1137 1.380 . S
C1138 C1145 1.357 . S
C1139 C1130 1.511 . S
C1139 C1140 1.341 . S
C1139 C1141 1.371 . S
C1140 C1139 1.341 . S
C1140 C1144 1.394 . S
C1140 H1156 0.930 . S
C1141 C1139 1.371 . S
C1141 C1142 1.392 . S
C1141 H1157 0.931 . S
C1142 C1141 1.392 . S
C1142 C1143 1.331 . S
C1142 H1160 0.932 . S
C1143 C1142 1.331 . S
C1143 C1144 1.336 . S
C1144 C1140 1.394 . S
C1144 C1143 1.336 . S
C1144 H1159 0.929 . S
C1145 C1135 1.386 . S
C1145 C1138 1.357 . S
C1145 H1158 0.928 . S
H1146 C1122 0.931 . S
H1147 C1124 0.930 . S
H1148 C1126 0.929 . S
H1149 C1127 0.931 . S
H1150 C1129 0.930 . S
H1151 C1133 0.931 . S
H1152 C1131 0.931 . S
H1153 C1135 0.931 . S
H1154 C1136 0.929 . S
H1155 C1137 0.930 . S
H1156 C1140 0.930 . S
H1157 C1141 0.931 . S
H1158 C1145 0.928 . S
H1159 C1144 0.929 . S
H1160 C1142 0.932 . S
C1161 C1162 1.386 . S
C1161 C1163 1.397 . S
C1161 H1185 0.931 . S
C1162 C1161 1.386 . S
C1162 C1166 1.397 1_655 S
C1163 C1161 1.397 . S
C1163 C1164 1.384 . S
C1163 H1186 0.930 . S
C1164 C1163 1.384 . S
C1164 C1165 1.377 1_655 S
C1164 C1167 1.481 . S
C1165 C1164 1.377 1_455 S
C1165 C1166 1.389 . S
C1165 H1187 0.929 . S
C1166 C1162 1.397 1_455 S
C1166 C1165 1.389 . S
C1166 H1188 0.931 . S
C1167 C1164 1.481 . S
C1167 C1168 1.387 . S
C1167 C1172 1.390 1_655 S
C1168 C1167 1.387 . S
C1168 C1169 1.401 . S
C1168 H1189 0.930 . S
C1169 C1168 1.401 . S
C1169 C1170 1.376 1_655 S
C1169 C1178 1.511 . S
C1170 C1169 1.376 1_455 S
C1170 C1171 1.392 . S
C1170 H1191 0.931 . S
C1171 C1170 1.392 . S
C1171 C1172 1.361 . S
C1171 C1173 1.500 . S
C1172 C1167 1.390 1_455 S
C1172 C1171 1.361 . S
C1172 H1190 0.931 . S
C1173 C1171 1.500 . S
C1173 C1174 1.371 . S
C1173 C1175 1.365 . S
C1174 C1173 1.371 . S
C1174 C1184 1.386 . S
C1174 H1192 0.931 . S
C1175 C1173 1.365 . S
C1175 C1176 1.409 . S
C1175 H1193 0.929 . S
C1176 C1175 1.409 . S
C1176 C1177 1.380 . S
C1176 H1194 0.930 . S
C1177 C1176 1.380 . S
C1177 C1184 1.357 . S
C1178 C1169 1.511 . S
C1178 C1179 1.341 . S
C1178 C1180 1.371 . S
C1179 C1178 1.341 . S
C1179 C1183 1.394 . S
C1179 H1195 0.930 . S
C1180 C1178 1.371 . S
C1180 C1181 1.392 . S
C1180 H1196 0.931 . S
C1181 C1180 1.392 . S
C1181 C1182 1.331 . S
C1181 H1199 0.932 . S
C1182 C1181 1.331 . S
C1182 C1183 1.336 . S
C1183 C1179 1.394 . S
C1183 C1182 1.336 . S
C1183 H1198 0.929 . S
C1184 C1174 1.386 . S
C1184 C1177 1.357 . S
C1184 H1197 0.928 . S
H1185 C1161 0.931 . S
H1186 C1163 0.930 . S
H1187 C1165 0.929 . S
H1188 C1166 0.931 . S
H1189 C1168 0.930 . S
H1190 C1172 0.931 . S
H1191 C1170 0.931 . S
H1192 C1174 0.931 . S
H1193 C1175 0.929 . S
H1194 C1176 0.930 . S
H1195 C1179 0.930 . S
H1196 C1180 0.931 . S
H1197 C1184 0.928 . S
H1198 C1183 0.929 . S
H1199 C1181 0.932 . S
H1200 C1208 0.950 . S
H1201 C1213 0.950 . S
H1202 C1210 0.950 . S
H1203 C1212 0.950 . S
H1204 C1214 0.950 . S
H1205 C1216 0.950 . S
H1206 C1218 0.950 . S
H1207 C1219 0.950 . S
C1208 H1200 0.950 . S
C1208 C1209 1.386 . S
C1208 C1210 1.391 . S
C1209 C1208 1.386 . S
C1209 C1213 1.393 . S
C1210 H1202 0.950 . S
C1210 C1208 1.391 . S
C1210 C1211 1.400 . S
C1211 C1210 1.400 . S
C1211 C1212 1.398 . S
C1211 C1217 1.491 . S
C1212 H1203 0.950 . S
C1212 C1211 1.398 . S
C1212 C1213 1.391 . S
C1213 H1201 0.950 . S
C1213 C1209 1.393 . S
C1213 C1212 1.391 . S
C1214 H1204 0.950 . S
C1214 C1215 1.386 . S
C1214 C1216 1.391 . S
C1215 C1214 1.386 . S
C1215 C1219 1.393 . S
C1216 H1205 0.950 . S
C1216 C1214 1.391 . S
C1216 C1217 1.400 . S
C1217 C1211 1.491 . S
C1217 C1216 1.400 . S
C1217 C1218 1.398 . S
C1218 H1206 0.950 . S
C1218 C1217 1.398 . S
C1218 C1219 1.391 . S
C1219 H1207 0.950 . S
C1219 C1215 1.393 . S
C1219 C1218 1.391 . S
H1220 C1228 0.950 . S
H1221 C1233 0.950 . S
H1222 C1230 0.950 . S
H1223 C1232 0.950 . S
H1224 C1234 0.950 . S
H1225 C1236 0.950 . S
H1226 C1238 0.950 . S
H1227 C1239 0.950 . S
C1228 H1220 0.950 . S
C1228 C1229 1.386 . S
C1228 C1230 1.391 . S
C1229 C1228 1.386 . S
C1229 C1233 1.393 . S
C1230 H1222 0.950 . S
C1230 C1228 1.391 . S
C1230 C1231 1.400 . S
C1231 C1230 1.400 . S
C1231 C1232 1.398 . S
C1231 C1237 1.491 . S
C1232 H1223 0.950 . S
C1232 C1231 1.398 . S
C1232 C1233 1.391 . S
C1233 H1221 0.950 . S
C1233 C1229 1.393 . S
C1233 C1232 1.391 . S
C1234 H1224 0.950 . S
C1234 C1235 1.386 . S
C1234 C1236 1.391 . S
C1235 C1234 1.386 . S
C1235 C1239 1.393 . S
C1236 H1225 0.950 . S
C1236 C1234 1.391 . S
C1236 C1237 1.400 . S
C1237 C1231 1.491 . S
C1237 C1236 1.400 . S
C1237 C1238 1.398 . S
C1238 H1226 0.950 . S
C1238 C1237 1.398 . S
C1238 C1239 1.391 . S
C1239 H1227 0.950 . S
C1239 C1235 1.393 . S
C1239 C1238 1.391 . S
H1240 C1248 0.950 . S
H1241 C1253 0.950 . S
H1242 C1250 0.950 . S
H1243 C1252 0.951 . S
H1244 C1254 0.950 . S
H1245 C1256 0.950 1_565 S
H1246 C1258 0.950 . S
H1247 C1259 0.950 . S
C1248 H1240 0.950 . S
C1248 C1249 1.386 . S
C1248 C1250 1.391 . S
C1249 C1248 1.386 . S
C1249 C1253 1.393 1_545 S
C1250 H1242 0.950 . S
C1250 C1248 1.391 . S
C1250 C1251 1.400 . S
C1251 C1250 1.400 . S
C1251 C1252 1.397 1_545 S
C1251 C1257 1.491 . S
C1252 H1243 0.951 . S
C1252 C1251 1.397 1_565 S
C1252 C1253 1.391 . S
C1253 H1241 0.950 . S
C1253 C1249 1.393 1_565 S
C1253 C1252 1.391 . S
C1254 H1244 0.950 . S
C1254 C1255 1.386 . S
C1254 C1256 1.391 . S
C1255 C1254 1.386 . S
C1255 C1259 1.393 . S
C1256 H1245 0.950 1_545 S
C1256 C1254 1.391 . S
C1256 C1257 1.400 . S
C1257 C1251 1.491 . S
C1257 C1256 1.400 . S
C1257 C1258 1.398 . S
C1258 H1246 0.950 . S
C1258 C1257 1.398 . S
C1258 C1259 1.391 . S
C1259 H1247 0.950 . S
C1259 C1255 1.393 . S
C1259 C1258 1.391 . S
H1260 C1268 0.940 1_545 S
H1261 C1273 0.950 . S
H1262 C1270 0.950 1_545 S
H1263 C1272 0.950 . S
H1264 C1274 0.950 . S
H1265 C1276 0.950 . S
H1266 C1278 0.950 . S
H1267 C1279 0.950 . S
C1268 H1260 0.940 1_565 S
C1268 C1269 1.392 . S
C1268 C1270 1.395 . S
C1269 C1268 1.392 . S
C1269 C1273 1.393 . S
C1270 H1262 0.950 1_565 S
C1270 C1268 1.395 . S
C1270 C1271 1.400 . S
C1271 C1270 1.400 . S
C1271 C1272 1.398 . S
C1271 C1277 1.491 . S
C1272 H1263 0.950 . S
C1272 C1271 1.398 . S
C1272 C1273 1.391 . S
C1273 H1261 0.950 . S
C1273 C1269 1.393 . S
C1273 C1272 1.391 . S
C1274 H1264 0.950 . S
C1274 C1275 1.386 . S
C1274 C1276 1.391 . S
C1275 C1274 1.386 . S
C1275 C1279 1.393 . S
C1276 H1265 0.950 . S
C1276 C1274 1.391 . S
C1276 C1277 1.400 . S
C1277 C1271 1.491 . S
C1277 C1276 1.400 . S
C1277 C1278 1.398 . S
C1278 H1266 0.950 . S
C1278 C1277 1.398 . S
C1278 C1279 1.391 . S
C1279 H1267 0.950 . S
C1279 C1275 1.393 . S
C1279 C1278 1.391 . S
H1280 C1288 0.950 . S
H1281 C1293 0.950 . S
H1282 C1290 0.950 . S
H1283 C1292 0.950 . S
H1284 C1294 0.950 . S
H1285 C1296 0.950 . S
H1286 C1298 0.950 . S
H1287 C1299 0.950 . S
C1288 H1280 0.950 . S
C1288 C1289 1.386 . S
C1288 C1290 1.391 . S
C1289 C1288 1.386 . S
C1289 C1293 1.393 . S
C1290 H1282 0.950 . S
C1290 C1288 1.391 . S
C1290 C1291 1.400 . S
C1291 C1290 1.400 . S
C1291 C1292 1.398 . S
C1291 C1297 1.491 . S
C1292 H1283 0.950 . S
C1292 C1291 1.398 . S
C1292 C1293 1.391 . S
C1293 H1281 0.950 . S
C1293 C1289 1.393 . S
C1293 C1292 1.391 . S
C1294 H1284 0.950 . S
C1294 C1295 1.386 . S
C1294 C1296 1.391 . S
C1295 C1294 1.386 . S
C1295 C1299 1.393 . S
C1296 H1285 0.950 . S
C1296 C1294 1.391 . S
C1296 C1297 1.400 . S
C1297 C1291 1.491 . S
C1297 C1296 1.400 . S
C1297 C1298 1.398 . S
C1298 H1286 0.950 . S
C1298 C1297 1.398 . S
C1298 C1299 1.391 . S
C1299 H1287 0.950 . S
C1299 C1295 1.393 . S
C1299 C1298 1.391 . S
H1300 C1308 0.926 1_554 S
H1301 C1313 0.950 . S
H1302 C1310 0.950 . S
H1303 C1312 0.950 . S
H1304 C1314 0.950 . S
H1305 C1316 0.950 . S
H1306 C1318 0.950 . S
H1307 C1319 0.950 . S
C1308 H1300 0.926 1_556 S
C1308 C1309 1.386 . S
C1308 C1310 1.391 . S
C1309 C1308 1.386 . S
C1309 C1313 1.393 . S
C1310 H1302 0.950 . S
C1310 C1308 1.391 . S
C1310 C1311 1.400 . S
C1311 C1310 1.400 . S
C1311 C1312 1.398 . S
C1311 C1317 1.491 . S
C1312 H1303 0.950 . S
C1312 C1311 1.398 . S
C1312 C1313 1.391 . S
C1313 H1301 0.950 . S
C1313 C1309 1.393 . S
C1313 C1312 1.391 . S
C1314 H1304 0.950 . S
C1314 C1315 1.386 . S
C1314 C1316 1.391 . S
C1315 C1314 1.386 . S
C1315 C1319 1.393 . S
C1316 H1305 0.950 . S
C1316 C1314 1.391 . S
C1316 C1317 1.400 . S
C1317 C1311 1.491 . S
C1317 C1316 1.400 . S
C1317 C1318 1.398 . S
C1318 H1306 0.950 . S
C1318 C1317 1.398 . S
C1318 C1319 1.391 . S
C1319 H1307 0.950 . S
C1319 C1315 1.393 . S
C1319 C1318 1.391 . S
H1320 C1328 0.950 . S
H1321 C1333 0.950 . S
H1322 C1330 0.950 . S
H1323 C1332 0.950 . S
H1324 C1334 0.950 . S
H1325 C1336 0.950 . S
H1326 C1338 0.950 . S
H1327 C1339 0.950 . S
C1328 H1320 0.950 . S
C1328 C1329 1.386 . S
C1328 C1330 1.391 . S
C1329 C1328 1.386 . S
C1329 C1333 1.393 . S
C1330 H1322 0.950 . S
C1330 C1328 1.391 . S
C1330 C1331 1.400 . S
C1331 C1330 1.400 . S
C1331 C1332 1.398 . S
C1331 C1337 1.491 . S
C1332 H1323 0.950 . S
C1332 C1331 1.398 . S
C1332 C1333 1.391 . S
C1333 H1321 0.950 . S
C1333 C1329 1.393 . S
C1333 C1332 1.391 . S
C1334 H1324 0.950 . S
C1334 C1335 1.386 . S
C1334 C1336 1.391 . S
C1335 C1334 1.386 . S
C1335 C1339 1.393 . S
C1336 H1325 0.950 . S
C1336 C1334 1.391 . S
C1336 C1337 1.400 . S
C1337 C1331 1.491 . S
C1337 C1336 1.400 . S
C1337 C1338 1.398 . S
C1338 H1326 0.950 . S
C1338 C1337 1.398 . S
C1338 C1339 1.391 . S
C1339 H1327 0.950 . S
C1339 C1335 1.393 . S
C1339 C1338 1.391 . S
H1340 C1348 0.950 . S
H1341 C1353 0.913 1_556 S
H1342 C1350 0.950 . S
H1343 C1352 0.933 1_556 S
H1344 C1354 0.950 . S
H1345 C1356 0.950 . S
H1346 C1358 0.950 . S
H1347 C1359 0.950 . S
C1348 H1340 0.950 . S
C1348 C1349 1.386 . S
C1348 C1350 1.391 . S
C1349 C1348 1.386 . S
C1349 C1353 1.418 . S
C1350 H1342 0.950 . S
C1350 C1348 1.391 . S
C1350 C1351 1.400 . S
C1351 C1350 1.400 . S
C1351 C1352 1.398 . S
C1351 C1357 1.491 . S
C1352 H1343 0.933 1_554 S
C1352 C1351 1.398 . S
C1352 C1353 1.406 . S
C1353 H1341 0.913 1_554 S
C1353 C1349 1.418 . S
C1353 C1352 1.406 . S
C1354 H1344 0.950 . S
C1354 C1355 1.386 . S
C1354 C1356 1.391 . S
C1355 C1354 1.386 . S
C1355 C1359 1.393 . S
C1356 H1345 0.950 . S
C1356 C1354 1.391 . S
C1356 C1357 1.400 . S
C1357 C1351 1.491 . S
C1357 C1356 1.400 . S
C1357 C1358 1.398 . S
C1358 H1346 0.950 . S
C1358 C1357 1.398 . S
C1358 C1359 1.391 . S
C1359 H1347 0.950 . S
C1359 C1355 1.393 . S
C1359 C1358 1.391 . S
H1360 C1368 0.950 . S
H1361 C1373 0.950 . S
H1362 C1370 0.950 . S
H1363 C1372 0.950 . S
H1364 C1374 0.950 . S
H1365 C1376 0.950 . S
H1366 C1378 0.950 . S
H1367 C1379 0.950 . S
C1368 H1360 0.950 . S
C1368 C1369 1.386 . S
C1368 C1370 1.391 . S
C1369 C1368 1.386 . S
C1369 C1373 1.393 . S
C1370 H1362 0.950 . S
C1370 C1368 1.391 . S
C1370 C1371 1.400 . S
C1371 C1370 1.400 . S
C1371 C1372 1.398 . S
C1371 C1377 1.491 . S
C1372 H1363 0.950 . S
C1372 C1371 1.398 . S
C1372 C1373 1.391 . S
C1373 H1361 0.950 . S
C1373 C1369 1.393 . S
C1373 C1372 1.391 . S
C1374 H1364 0.950 . S
C1374 C1375 1.386 . S
C1374 C1376 1.391 . S
C1375 C1374 1.386 . S
C1375 C1379 1.393 . S
C1376 H1365 0.950 . S
C1376 C1374 1.391 . S
C1376 C1377 1.400 . S
C1377 C1371 1.491 . S
C1377 C1376 1.400 . S
C1377 C1378 1.398 . S
C1378 H1366 0.950 . S
C1378 C1377 1.398 . S
C1378 C1379 1.391 . S
C1379 H1367 0.950 . S
C1379 C1375 1.393 . S
C1379 C1378 1.391 . S
H1380 C1388 0.950 . S
H1381 C1393 0.950 1_455 S
H1382 C1390 0.950 . S
H1383 C1392 0.950 . S
H1384 C1394 0.950 . S
H1385 C1396 0.950 . S
H1386 C1398 0.950 . S
H1387 C1399 0.950 . S
C1388 H1380 0.950 . S
C1388 C1389 1.386 . S
C1388 C1390 1.391 . S
C1389 C1388 1.386 . S
C1389 C1393 1.393 . S
C1390 H1382 0.950 . S
C1390 C1388 1.391 . S
C1390 C1391 1.400 . S
C1391 C1390 1.400 . S
C1391 C1392 1.398 . S
C1391 C1397 1.491 . S
C1392 H1383 0.950 . S
C1392 C1391 1.398 . S
C1392 C1393 1.391 . S
C1393 H1381 0.950 1_655 S
C1393 C1389 1.393 . S
C1393 C1392 1.391 . S
C1394 H1384 0.950 . S
C1394 C1395 1.386 . S
C1394 C1396 1.391 . S
C1395 C1394 1.386 . S
C1395 C1399 1.393 . S
C1396 H1385 0.950 . S
C1396 C1394 1.391 . S
C1396 C1397 1.400 . S
C1397 C1391 1.491 . S
C1397 C1396 1.400 . S
C1397 C1398 1.398 . S
C1398 H1386 0.950 . S
C1398 C1397 1.398 . S
C1398 C1399 1.391 . S
C1399 H1387 0.950 . S
C1399 C1395 1.393 . S
C1399 C1398 1.391 . S
H1400 C1408 0.950 . S
H1401 C1413 0.950 . S
H1402 C1410 0.950 . S
H1403 C1412 0.950 . S
H1404 C1414 0.950 . S
H1405 C1416 0.950 . S
H1406 C1418 0.950 . S
H1407 C1419 0.950 . S
C1408 H1400 0.950 . S
C1408 C1409 1.386 . S
C1408 C1410 1.391 . S
C1409 C1408 1.386 . S
C1409 C1413 1.393 . S
C1410 H1402 0.950 . S
C1410 C1408 1.391 . S
C1410 C1411 1.400 . S
C1411 C1410 1.400 . S
C1411 C1412 1.398 . S
C1411 C1417 1.491 . S
C1412 H1403 0.950 . S
C1412 C1411 1.398 . S
C1412 C1413 1.391 . S
C1413 H1401 0.950 . S
C1413 C1409 1.393 . S
C1413 C1412 1.391 . S
C1414 H1404 0.950 . S
C1414 C1415 1.386 . S
C1414 C1416 1.391 . S
C1415 C1414 1.386 . S
C1415 C1419 1.393 . S
C1416 H1405 0.950 . S
C1416 C1414 1.391 . S
C1416 C1417 1.400 . S
C1417 C1411 1.491 . S
C1417 C1416 1.400 . S
C1417 C1418 1.398 . S
C1418 H1406 0.950 . S
C1418 C1417 1.398 . S
C1418 C1419 1.391 . S
C1419 H1407 0.950 . S
C1419 C1415 1.393 . S
C1419 C1418 1.391 . S
H1420 C1428 0.950 . S
H1421 C1433 0.950 . S
H1422 C1430 0.950 . S
H1423 C1432 0.916 1_655 S
H1424 C1434 0.950 . S
H1425 C1436 0.953 1_655 S
H1426 C1438 0.950 . S
H1427 C1439 0.950 . S
C1428 H1420 0.950 . S
C1428 C1429 1.386 . S
C1428 C1430 1.391 . S
C1429 C1428 1.386 . S
C1429 C1433 1.393 1_455 S
C1430 H1422 0.950 . S
C1430 C1428 1.391 . S
C1430 C1431 1.400 . S
C1431 C1430 1.400 . S
C1431 C1432 1.447 . S
C1431 C1437 1.491 . S
C1432 H1423 0.916 1_455 S
C1432 C1431 1.447 . S
C1432 C1433 1.378 1_455 S
C1433 H1421 0.950 . S
C1433 C1429 1.393 1_655 S
C1433 C1432 1.378 1_655 S
C1434 H1424 0.950 . S
C1434 C1435 1.386 . S
C1434 C1436 1.391 . S
C1435 C1434 1.386 . S
C1435 C1439 1.393 . S
C1436 H1425 0.953 1_455 S
C1436 C1434 1.391 . S
C1436 C1437 1.400 . S
C1437 C1431 1.491 . S
C1437 C1436 1.400 . S
C1437 C1438 1.398 . S
C1438 H1426 0.950 . S
C1438 C1437 1.398 . S
C1438 C1439 1.391 . S
C1439 H1427 0.950 . S
C1439 C1435 1.393 . S
C1439 C1438 1.391 . S
H1440 C1448 0.950 . S
H1441 C1453 0.950 . S
H1442 C1450 0.950 . S
H1443 C1452 0.950 . S
H1444 C1454 0.950 . S
H1445 C1456 0.950 . S
H1446 C1458 0.950 . S
H1447 C1459 0.950 . S
C1448 H1440 0.950 . S
C1448 C1449 1.386 . S
C1448 C1450 1.391 . S
C1449 C1448 1.386 . S
C1449 C1453 1.393 . S
C1450 H1442 0.950 . S
C1450 C1448 1.391 . S
C1450 C1451 1.400 . S
C1451 C1450 1.400 . S
C1451 C1452 1.398 . S
C1451 C1457 1.491 . S
C1452 H1443 0.950 . S
C1452 C1451 1.398 . S
C1452 C1453 1.391 . S
C1453 H1441 0.950 . S
C1453 C1449 1.393 . S
C1453 C1452 1.391 . S
C1454 H1444 0.950 . S
C1454 C1455 1.386 . S
C1454 C1456 1.391 . S
C1455 C1454 1.386 . S
C1455 C1459 1.393 . S
C1456 H1445 0.950 . S
C1456 C1454 1.391 . S
C1456 C1457 1.400 . S
C1457 C1451 1.491 . S
C1457 C1456 1.400 . S
C1457 C1458 1.398 . S
C1458 H1446 0.950 . S
C1458 C1457 1.398 . S
C1458 C1459 1.391 . S
C1459 H1447 0.950 . S
C1459 C1455 1.393 . S
C1459 C1458 1.391 . S
H1460 C1468 0.950 . S
H1461 C1473 0.950 . S
H1462 C1470 0.950 . S
H1463 C1472 0.950 . S
H1464 C1474 0.950 . S
H1465 C1476 0.950 . S
H1466 C1478 0.950 . S
H1467 C1479 0.950 . S
C1468 H1460 0.950 . S
C1468 C1469 1.386 . S
C1468 C1470 1.391 . S
C1469 C1468 1.386 . S
C1469 C1473 1.393 . S
C1470 H1462 0.950 . S
C1470 C1468 1.391 . S
C1470 C1471 1.400 . S
C1471 C1470 1.400 . S
C1471 C1472 1.398 . S
C1471 C1477 1.491 . S
C1472 H1463 0.950 . S
C1472 C1471 1.398 . S
C1472 C1473 1.391 . S
C1473 H1461 0.950 . S
C1473 C1469 1.393 . S
C1473 C1472 1.391 . S
C1474 H1464 0.950 . S
C1474 C1475 1.386 . S
C1474 C1476 1.391 . S
C1475 C1474 1.386 . S
C1475 C1479 1.393 . S
C1476 H1465 0.950 . S
C1476 C1474 1.391 . S
C1476 C1477 1.400 . S
C1477 C1471 1.491 . S
C1477 C1476 1.400 . S
C1477 C1478 1.398 . S
C1478 H1466 0.950 . S
C1478 C1477 1.398 . S
C1478 C1479 1.391 . S
C1479 H1467 0.950 . S
C1479 C1475 1.393 . S
C1479 C1478 1.391 . S
H1480 C1488 0.950 . S
H1481 C1493 0.950 . S
H1482 C1490 0.950 . S
H1483 C1492 0.950 . S
H1484 C1494 0.950 . S
H1485 C1496 0.950 . S
H1486 C1498 0.950 1_545 S
H1487 C1499 0.950 1_545 S
C1488 H1480 0.950 . S
C1488 C1489 1.386 1_545 S
C1488 C1490 1.391 . S
C1489 C1488 1.386 1_565 S
C1489 C1493 1.393 . S
C1490 H1482 0.950 . S
C1490 C1488 1.391 . S
C1490 C1491 1.400 1_545 S
C1491 C1490 1.400 1_565 S
C1491 C1492 1.398 . S
C1491 C1497 1.491 . S
C1492 H1483 0.950 . S
C1492 C1491 1.398 . S
C1492 C1493 1.391 . S
C1493 H1481 0.950 . S
C1493 C1489 1.393 . S
C1493 C1492 1.391 . S
C1494 H1484 0.950 . S
C1494 C1495 1.386 . S
C1494 C1496 1.391 . S
C1495 C1494 1.386 . S
C1495 C1499 1.393 . S
C1496 H1485 0.950 . S
C1496 C1494 1.391 . S
C1496 C1497 1.400 . S
C1497 C1491 1.491 . S
C1497 C1496 1.400 . S
C1497 C1498 1.398 . S
C1498 H1486 0.950 1_565 S
C1498 C1497 1.398 . S
C1498 C1499 1.391 . S
C1499 H1487 0.950 1_565 S
C1499 C1495 1.393 . S
C1499 C1498 1.391 . S
H1500 C1508 0.950 . S
H1501 C1513 0.950 . S
H1502 C1510 0.950 . S
H1503 C1512 0.929 1_565 S
H1504 C1514 0.950 . S
H1505 C1516 0.950 1_565 S
H1506 C1518 0.950 . S
H1507 C1519 0.950 . S
C1508 H1500 0.950 . S
C1508 C1509 1.386 . S
C1508 C1510 1.391 . S
C1509 C1508 1.386 . S
C1509 C1513 1.393 1_545 S
C1510 H1502 0.950 . S
C1510 C1508 1.391 . S
C1510 C1511 1.400 . S
C1511 C1510 1.400 . S
C1511 C1512 1.427 . S
C1511 C1517 1.491 . S
C1512 H1503 0.929 1_545 S
C1512 C1511 1.427 . S
C1512 C1513 1.383 1_545 S
C1513 H1501 0.950 . S
C1513 C1509 1.393 1_565 S
C1513 C1512 1.383 1_565 S
C1514 H1504 0.950 . S
C1514 C1515 1.386 . S
C1514 C1516 1.391 . S
C1515 C1514 1.386 . S
C1515 C1519 1.393 . S
C1516 H1505 0.950 1_545 S
C1516 C1514 1.391 . S
C1516 C1517 1.400 . S
C1517 C1511 1.491 . S
C1517 C1516 1.400 . S
C1517 C1518 1.398 . S
C1518 H1506 0.950 . S
C1518 C1517 1.398 . S
C1518 C1519 1.391 . S
C1519 H1507 0.950 . S
C1519 C1515 1.393 . S
C1519 C1518 1.391 . S
H1520 C1528 0.950 . S
H1521 C1533 0.950 . S
H1522 C1530 0.950 . S
H1523 C1532 0.950 . S
H1524 C1534 0.950 . S
H1525 C1536 0.950 . S
H1526 C1538 0.950 . S
H1527 C1539 0.950 . S
C1528 H1520 0.950 . S
C1528 C1529 1.386 . S
C1528 C1530 1.391 . S
C1529 C1528 1.386 . S
C1529 C1533 1.393 . S
C1530 H1522 0.950 . S
C1530 C1528 1.391 . S
C1530 C1531 1.400 . S
C1531 C1530 1.400 . S
C1531 C1532 1.398 . S
C1531 C1537 1.491 . S
C1532 H1523 0.950 . S
C1532 C1531 1.398 . S
C1532 C1533 1.391 . S
C1533 H1521 0.950 . S
C1533 C1529 1.393 . S
C1533 C1532 1.391 . S
C1534 H1524 0.950 . S
C1534 C1535 1.386 . S
C1534 C1536 1.391 . S
C1535 C1534 1.386 . S
C1535 C1539 1.393 . S
C1536 H1525 0.950 . S
C1536 C1534 1.391 . S
C1536 C1537 1.400 . S
C1537 C1531 1.491 . S
C1537 C1536 1.400 . S
C1537 C1538 1.398 . S
C1538 H1526 0.950 . S
C1538 C1537 1.398 . S
C1538 C1539 1.391 . S
C1539 H1527 0.950 . S
C1539 C1535 1.393 . S
C1539 C1538 1.391 . S
H1540 C1548 0.950 . S
H1541 C1553 0.950 . S
H1542 C1550 0.950 . S
H1543 C1552 0.950 . S
H1544 C1554 0.950 . S
H1545 C1556 0.950 . S
H1546 C1558 0.950 . S
H1547 C1559 0.950 . S
C1548 H1540 0.950 . S
C1548 C1549 1.386 . S
C1548 C1550 1.391 . S
C1549 C1548 1.386 . S
C1549 C1553 1.393 . S
C1550 H1542 0.950 . S
C1550 C1548 1.391 . S
C1550 C1551 1.400 . S
C1551 C1550 1.400 . S
C1551 C1552 1.398 . S
C1551 C1557 1.491 . S
C1552 H1543 0.950 . S
C1552 C1551 1.398 . S
C1552 C1553 1.391 . S
C1553 H1541 0.950 . S
C1553 C1549 1.393 . S
C1553 C1552 1.391 . S
C1554 H1544 0.950 . S
C1554 C1555 1.386 . S
C1554 C1556 1.391 . S
C1555 C1554 1.386 . S
C1555 C1559 1.393 . S
C1556 H1545 0.950 . S
C1556 C1554 1.391 . S
C1556 C1557 1.400 . S
C1557 C1551 1.491 . S
C1557 C1556 1.400 . S
C1557 C1558 1.398 . S
C1558 H1546 0.950 . S
C1558 C1557 1.398 . S
C1558 C1559 1.391 . S
C1559 H1547 0.950 . S
C1559 C1555 1.393 . S
C1559 C1558 1.391 . S
H1560 C1568 0.950 . S
H1561 C1573 0.950 . S
H1562 C1570 0.950 . S
H1563 C1572 0.950 . S
H1564 C1574 0.950 . S
H1565 C1576 0.950 . S
H1566 C1578 0.950 . S
H1567 C1579 0.950 . S
C1568 H1560 0.950 . S
C1568 C1569 1.386 . S
C1568 C1570 1.391 . S
C1569 C1568 1.386 . S
C1569 C1573 1.393 . S
C1570 H1562 0.950 . S
C1570 C1568 1.391 . S
C1570 C1571 1.400 . S
C1571 C1570 1.400 . S
C1571 C1572 1.398 . S
C1571 C1577 1.491 . S
C1572 H1563 0.950 . S
C1572 C1571 1.398 . S
C1572 C1573 1.391 . S
C1573 H1561 0.950 . S
C1573 C1569 1.393 . S
C1573 C1572 1.391 . S
C1574 H1564 0.950 . S
C1574 C1575 1.386 . S
C1574 C1576 1.391 . S
C1575 C1574 1.386 . S
C1575 C1579 1.393 . S
C1576 H1565 0.950 . S
C1576 C1574 1.391 . S
C1576 C1577 1.400 . S
C1577 C1571 1.491 . S
C1577 C1576 1.400 . S
C1577 C1578 1.398 . S
C1578 H1566 0.950 . S
C1578 C1577 1.398 . S
C1578 C1579 1.391 . S
C1579 H1567 0.950 . S
C1579 C1575 1.393 . S
C1579 C1578 1.391 . S
H1580 C1588 0.950 . S
H1581 C1593 0.978 . S
H1582 C1590 0.950 . S
H1583 C1592 0.950 1_554 S
H1584 C1594 0.950 . S
H1585 C1596 0.950 . S
H1586 C1598 0.950 . S
H1587 C1599 0.950 . S
C1588 H1580 0.950 . S
C1588 C1589 1.386 . S
C1588 C1590 1.391 . S
C1589 C1588 1.386 . S
C1589 C1593 1.377 1_556 S
C1590 H1582 0.950 . S
C1590 C1588 1.391 . S
C1590 C1591 1.400 . S
C1591 C1590 1.400 . S
C1591 C1592 1.398 . S
C1591 C1597 1.491 . S
C1592 H1583 0.950 1_556 S
C1592 C1591 1.398 . S
C1592 C1593 1.381 1_556 S
C1593 H1581 0.978 . S
C1593 C1589 1.377 1_554 S
C1593 C1592 1.381 1_554 S
C1594 H1584 0.950 . S
C1594 C1595 1.386 . S
C1594 C1596 1.391 . S
C1595 C1594 1.386 . S
C1595 C1599 1.393 . S
C1596 H1585 0.950 . S
C1596 C1594 1.391 . S
C1596 C1597 1.400 . S
C1597 C1591 1.491 . S
C1597 C1596 1.400 . S
C1597 C1598 1.398 . S
C1598 H1586 0.950 . S
C1598 C1597 1.398 . S
C1598 C1599 1.391 . S
C1599 H1587 0.950 . S
C1599 C1595 1.393 . S
C1599 C1598 1.391 . S
H1600 C1608 0.950 . S
H1601 C1613 0.950 . S
H1602 C1610 0.950 . S
H1603 C1612 0.950 . S
H1604 C1614 0.950 . S
H1605 C1616 0.950 . S
H1606 C1618 0.950 . S
H1607 C1619 0.950 . S
C1608 H1600 0.950 . S
C1608 C1609 1.386 . S
C1608 C1610 1.391 . S
C1609 C1608 1.386 . S
C1609 C1613 1.393 . S
C1610 H1602 0.950 . S
C1610 C1608 1.391 . S
C1610 C1611 1.400 . S
C1611 C1610 1.400 . S
C1611 C1612 1.398 . S
C1611 C1617 1.491 . S
C1612 H1603 0.950 . S
C1612 C1611 1.398 . S
C1612 C1613 1.391 . S
C1613 H1601 0.950 . S
C1613 C1609 1.393 . S
C1613 C1612 1.391 . S
C1614 H1604 0.950 . S
C1614 C1615 1.386 . S
C1614 C1616 1.391 . S
C1615 C1614 1.386 . S
C1615 C1619 1.393 . S
C1616 H1605 0.950 . S
C1616 C1614 1.391 . S
C1616 C1617 1.400 . S
C1617 C1611 1.491 . S
C1617 C1616 1.400 . S
C1617 C1618 1.398 . S
C1618 H1606 0.950 . S
C1618 C1617 1.398 . S
C1618 C1619 1.391 . S
C1619 H1607 0.950 . S
C1619 C1615 1.393 . S
C1619 C1618 1.391 . S
H1620 C1628 0.950 . S
H1621 C1633 0.950 . S
H1622 C1630 0.950 . S
H1623 C1632 0.950 . S
H1624 C1634 0.950 . S
H1625 C1636 0.950 . S
H1626 C1638 0.950 . S
H1627 C1639 0.950 . S
C1628 H1620 0.950 . S
C1628 C1629 1.386 . S
C1628 C1630 1.391 . S
C1629 C1628 1.386 . S
C1629 C1633 1.393 . S
C1630 H1622 0.950 . S
C1630 C1628 1.391 . S
C1630 C1631 1.400 . S
C1631 C1630 1.400 . S
C1631 C1632 1.398 . S
C1631 C1637 1.491 . S
C1632 H1623 0.950 . S
C1632 C1631 1.398 . S
C1632 C1633 1.391 . S
C1633 H1621 0.950 . S
C1633 C1629 1.393 . S
C1633 C1632 1.391 . S
C1634 H1624 0.950 . S
C1634 C1635 1.386 . S
C1634 C1636 1.391 . S
C1635 C1634 1.386 . S
C1635 C1639 1.393 . S
C1636 H1625 0.950 . S
C1636 C1634 1.391 . S
C1636 C1637 1.400 . S
C1637 C1631 1.491 . S
C1637 C1636 1.400 . S
C1637 C1638 1.398 . S
C1638 H1626 0.950 . S
C1638 C1637 1.398 . S
C1638 C1639 1.391 . S
C1639 H1627 0.950 . S
C1639 C1635 1.393 . S
C1639 C1638 1.391 . S
H1640 C1648 0.950 . S
H1641 C1653 0.950 . S
H1642 C1650 0.950 . S
H1643 C1652 0.950 . S
H1644 C1654 0.950 . S
H1645 C1656 0.950 . S
H1646 C1658 0.950 . S
H1647 C1659 0.950 . S
C1648 H1640 0.950 . S
C1648 C1649 1.386 . S
C1648 C1650 1.391 . S
C1649 C1648 1.386 . S
C1649 C1653 1.393 . S
C1650 H1642 0.950 . S
C1650 C1648 1.391 . S
C1650 C1651 1.400 . S
C1651 C1650 1.400 . S
C1651 C1652 1.398 . S
C1651 C1657 1.491 . S
C1652 H1643 0.950 . S
C1652 C1651 1.398 . S
C1652 C1653 1.391 . S
C1653 H1641 0.950 . S
C1653 C1649 1.393 . S
C1653 C1652 1.391 . S
C1654 H1644 0.950 . S
C1654 C1655 1.386 . S
C1654 C1656 1.391 . S
C1655 C1654 1.386 . S
C1655 C1659 1.393 . S
C1656 H1645 0.950 . S
C1656 C1654 1.391 . S
C1656 C1657 1.400 . S
C1657 C1651 1.491 . S
C1657 C1656 1.400 . S
C1657 C1658 1.398 . S
C1658 H1646 0.950 . S
C1658 C1657 1.398 . S
C1658 C1659 1.391 . S
C1659 H1647 0.950 . S
C1659 C1655 1.393 . S
C1659 C1658 1.391 . S
H1660 C1668 0.950 . S
H1661 C1673 0.950 . S
H1662 C1670 0.950 . S
H1663 C1672 0.950 . S
H1664 C1674 0.950 . S
H1665 C1676 0.950 . S
H1666 C1678 0.950 . S
H1667 C1679 0.950 . S
C1668 H1660 0.950 . S
C1668 C1669 1.386 . S
C1668 C1670 1.391 . S
C1669 C1668 1.386 . S
C1669 C1673 1.393 . S
C1670 H1662 0.950 . S
C1670 C1668 1.391 . S
C1670 C1671 1.400 . S
C1671 C1670 1.400 . S
C1671 C1672 1.398 . S
C1671 C1677 1.491 . S
C1672 H1663 0.950 . S
C1672 C1671 1.398 . S
C1672 C1673 1.391 . S
C1673 H1661 0.950 . S
C1673 C1669 1.393 . S
C1673 C1672 1.391 . S
C1674 H1664 0.950 . S
C1674 C1675 1.386 . S
C1674 C1676 1.391 . S
C1675 C1674 1.386 . S
C1675 C1679 1.393 . S
C1676 H1665 0.950 . S
C1676 C1674 1.391 . S
C1676 C1677 1.400 . S
C1677 C1671 1.491 . S
C1677 C1676 1.400 . S
C1677 C1678 1.398 . S
C1678 H1666 0.950 . S
C1678 C1677 1.398 . S
C1678 C1679 1.391 . S
C1679 H1667 0.950 . S
C1679 C1675 1.393 . S
C1679 C1678 1.391 . S
H1680 C1688 0.950 . S
H1681 C1693 0.950 . S
H1682 C1690 0.950 . S
H1683 C1692 0.950 . S
H1684 C1694 0.950 . S
H1685 C1696 0.950 . S
H1686 C1698 0.950 . S
H1687 C1699 0.950 . S
C1688 H1680 0.950 . S
C1688 C1689 1.386 . S
C1688 C1690 1.391 . S
C1689 C1688 1.386 . S
C1689 C1693 1.393 . S
C1690 H1682 0.950 . S
C1690 C1688 1.391 . S
C1690 C1691 1.400 . S
C1691 C1690 1.400 . S
C1691 C1692 1.398 . S
C1691 C1697 1.491 . S
C1692 H1683 0.950 . S
C1692 C1691 1.398 . S
C1692 C1693 1.391 . S
C1693 H1681 0.950 . S
C1693 C1689 1.393 . S
C1693 C1692 1.391 . S
C1694 H1684 0.950 . S
C1694 C1695 1.386 . S
C1694 C1696 1.391 . S
C1695 C1694 1.386 . S
C1695 C1699 1.393 . S
C1696 H1685 0.950 . S
C1696 C1694 1.391 . S
C1696 C1697 1.400 . S
C1697 C1691 1.491 . S
C1697 C1696 1.400 . S
C1697 C1698 1.398 . S
C1698 H1686 0.950 . S
C1698 C1697 1.398 . S
C1698 C1699 1.391 . S
C1699 H1687 0.950 . S
C1699 C1695 1.393 . S
C1699 C1698 1.391 . S
H1700 C1708 0.950 . S
H1701 C1713 0.950 . S
H1702 C1710 0.950 . S
H1703 C1712 0.950 . S
H1704 C1714 0.950 . S
H1705 C1716 0.950 . S
H1706 C1718 0.950 . S
H1707 C1719 0.950 . S
C1708 H1700 0.950 . S
C1708 C1709 1.386 . S
C1708 C1710 1.391 . S
C1709 C1708 1.386 . S
C1709 C1713 1.393 . S
C1710 H1702 0.950 . S
C1710 C1708 1.391 . S
C1710 C1711 1.400 . S
C1711 C1710 1.400 . S
C1711 C1712 1.398 . S
C1711 C1717 1.491 . S
C1712 H1703 0.950 . S
C1712 C1711 1.398 . S
C1712 C1713 1.391 . S
C1713 H1701 0.950 . S
C1713 C1709 1.393 . S
C1713 C1712 1.391 . S
C1714 H1704 0.950 . S
C1714 C1715 1.386 . S
C1714 C1716 1.391 . S
C1715 C1714 1.386 . S
C1715 C1719 1.393 . S
C1716 H1705 0.950 . S
C1716 C1714 1.391 . S
C1716 C1717 1.400 . S
C1717 C1711 1.491 . S
C1717 C1716 1.400 . S
C1717 C1718 1.398 . S
C1718 H1706 0.950 . S
C1718 C1717 1.398 . S
C1718 C1719 1.391 . S
C1719 H1707 0.950 . S
C1719 C1715 1.393 . S
C1719 C1718 1.391 . S
H1720 C1728 0.950 . S
H1721 C1733 0.950 1_545 S
H1722 C1730 0.950 . S
H1723 C1732 0.950 . S
H1724 C1734 0.950 . S
H1725 C1736 0.950 . S
H1726 C1738 0.950 . S
H1727 C1739 0.950 . S
C1728 H1720 0.950 . S
C1728 C1729 1.386 . S
C1728 C1730 1.391 . S
C1729 C1728 1.386 . S
C1729 C1733 1.393 . S
C1730 H1722 0.950 . S
C1730 C1728 1.391 . S
C1730 C1731 1.400 . S
C1731 C1730 1.400 . S
C1731 C1732 1.398 1_565 S
C1731 C1737 1.492 1_565 S
C1732 H1723 0.950 . S
C1732 C1731 1.398 1_545 S
C1732 C1733 1.391 1_545 S
C1733 H1721 0.950 1_565 S
C1733 C1729 1.393 . S
C1733 C1732 1.391 1_565 S
C1734 H1724 0.950 . S
C1734 C1735 1.386 . S
C1734 C1736 1.391 . S
C1735 C1734 1.386 . S
C1735 C1739 1.393 1_545 S
C1736 H1725 0.950 . S
C1736 C1734 1.391 . S
C1736 C1737 1.397 . S
C1737 C1731 1.492 1_545 S
C1737 C1736 1.397 . S
C1737 C1738 1.400 1_545 S
C1738 H1726 0.950 . S
C1738 C1737 1.400 1_565 S
C1738 C1739 1.391 . S
C1739 H1727 0.950 . S
C1739 C1735 1.393 1_565 S
C1739 C1738 1.391 . S
H1740 C1748 0.950 . S
H1741 C1753 0.950 . S
H1742 C1750 0.950 . S
H1743 C1752 0.950 . S
H1744 C1754 0.950 . S
H1745 C1756 0.950 . S
H1746 C1758 0.950 . S
H1747 C1759 0.950 . S
C1748 H1740 0.950 . S
C1748 C1749 1.386 1_565 S
C1748 C1750 1.391 . S
C1749 C1748 1.386 1_545 S
C1749 C1753 1.393 . S
C1750 H1742 0.950 . S
C1750 C1748 1.391 . S
C1750 C1751 1.400 1_565 S
C1751 C1750 1.400 1_545 S
C1751 C1752 1.398 . S
C1751 C1757 1.491 . S
C1752 H1743 0.950 . S
C1752 C1751 1.398 . S
C1752 C1753 1.391 . S
C1753 H1741 0.950 . S
C1753 C1749 1.393 . S
C1753 C1752 1.391 . S
C1754 H1744 0.950 . S
C1754 C1755 1.386 . S
C1754 C1756 1.391 . S
C1755 C1754 1.386 . S
C1755 C1759 1.393 1_545 S
C1756 H1745 0.950 . S
C1756 C1754 1.391 . S
C1756 C1757 1.400 . S
C1757 C1751 1.491 . S
C1757 C1756 1.400 . S
C1757 C1758 1.398 1_545 S
C1758 H1746 0.950 . S
C1758 C1757 1.398 1_565 S
C1758 C1759 1.391 . S
C1759 H1747 0.950 . S
C1759 C1755 1.393 1_565 S
C1759 C1758 1.391 . S
H1760 C1768 0.950 . S
H1761 C1773 0.950 . S
H1762 C1770 0.950 . S
H1763 C1772 0.950 . S
H1764 C1774 0.950 . S
H1765 C1776 0.950 . S
H1766 C1778 0.950 . S
H1767 C1779 0.950 . S
C1768 H1760 0.950 . S
C1768 C1769 1.386 . S
C1768 C1770 1.391 . S
C1769 C1768 1.386 . S
C1769 C1773 1.393 . S
C1770 H1762 0.950 . S
C1770 C1768 1.391 . S
C1770 C1771 1.400 . S
C1771 C1770 1.400 . S
C1771 C1772 1.398 . S
C1771 C1777 1.491 . S
C1772 H1763 0.950 . S
C1772 C1771 1.398 . S
C1772 C1773 1.391 . S
C1773 H1761 0.950 . S
C1773 C1769 1.393 . S
C1773 C1772 1.391 . S
C1774 H1764 0.950 . S
C1774 C1775 1.386 . S
C1774 C1776 1.391 . S
C1775 C1774 1.386 . S
C1775 C1779 1.393 . S
C1776 H1765 0.950 . S
C1776 C1774 1.391 . S
C1776 C1777 1.400 . S
C1777 C1771 1.491 . S
C1777 C1776 1.400 . S
C1777 C1778 1.398 . S
C1778 H1766 0.950 . S
C1778 C1777 1.398 . S
C1778 C1779 1.391 . S
C1779 H1767 0.950 . S
C1779 C1775 1.393 . S
C1779 C1778 1.391 . S
H1780 C1788 0.950 1_556 S
H1781 C1793 0.950 . S
H1782 C1790 0.950 1_556 S
H1783 C1792 0.950 . S
H1784 C1794 0.950 . S
H1785 C1796 0.950 . S
H1786 C1798 0.950 . S
H1787 C1799 0.950 . S
C1788 H1780 0.950 1_554 S
C1788 C1789 1.386 . S
C1788 C1790 1.391 . S
C1789 C1788 1.386 . S
C1789 C1793 1.393 . S
C1790 H1782 0.950 1_554 S
C1790 C1788 1.391 . S
C1790 C1791 1.400 . S
C1791 C1790 1.400 . S
C1791 C1792 1.398 . S
C1791 C1797 1.491 . S
C1792 H1783 0.950 . S
C1792 C1791 1.398 . S
C1792 C1793 1.391 . S
C1793 H1781 0.950 . S
C1793 C1789 1.393 . S
C1793 C1792 1.391 . S
C1794 H1784 0.950 . S
C1794 C1795 1.386 . S
C1794 C1796 1.391 . S
C1795 C1794 1.386 . S
C1795 C1799 1.393 1_554 S
C1796 H1785 0.950 . S
C1796 C1794 1.391 . S
C1796 C1797 1.400 . S
C1797 C1791 1.491 . S
C1797 C1796 1.400 . S
C1797 C1798 1.398 1_554 S
C1798 H1786 0.950 . S
C1798 C1797 1.398 1_556 S
C1798 C1799 1.391 . S
C1799 H1787 0.950 . S
C1799 C1795 1.393 1_556 S
C1799 C1798 1.391 . S
H1800 C1808 0.950 . S
H1801 C1813 0.950 . S
H1802 C1810 0.950 . S
H1803 C1812 0.950 . S
H1804 C1814 0.950 . S
H1805 C1816 0.950 . S
H1806 C1818 0.950 . S
H1807 C1819 0.950 . S
C1808 H1800 0.950 . S
C1808 C1809 1.386 . S
C1808 C1810 1.391 . S
C1809 C1808 1.386 . S
C1809 C1813 1.393 . S
C1810 H1802 0.950 . S
C1810 C1808 1.391 . S
C1810 C1811 1.400 . S
C1811 C1810 1.400 . S
C1811 C1812 1.398 . S
C1811 C1817 1.491 . S
C1812 H1803 0.950 . S
C1812 C1811 1.398 . S
C1812 C1813 1.391 . S
C1813 H1801 0.950 . S
C1813 C1809 1.393 . S
C1813 C1812 1.391 . S
C1814 H1804 0.950 . S
C1814 C1815 1.386 . S
C1814 C1816 1.391 . S
C1815 C1814 1.386 . S
C1815 C1819 1.393 . S
C1816 H1805 0.950 . S
C1816 C1814 1.391 . S
C1816 C1817 1.400 . S
C1817 C1811 1.491 . S
C1817 C1816 1.400 . S
C1817 C1818 1.398 . S
C1818 H1806 0.950 . S
C1818 C1817 1.398 . S
C1818 C1819 1.391 . S
C1819 H1807 0.950 . S
C1819 C1815 1.393 . S
C1819 C1818 1.391 . S
H1820 C1828 0.950 . S
H1821 C1833 0.950 . S
H1822 C1830 0.950 . S
H1823 C1832 0.950 . S
H1824 C1834 0.950 . S
H1825 C1836 0.950 . S
H1826 C1838 0.950 . S
H1827 C1839 0.950 . S
C1828 H1820 0.950 . S
C1828 C1829 1.386 1_554 S
C1828 C1830 1.391 . S
C1829 C1828 1.386 1_556 S
C1829 C1833 1.393 . S
C1830 H1822 0.950 . S
C1830 C1828 1.391 . S
C1830 C1831 1.400 1_554 S
C1831 C1830 1.400 1_556 S
C1831 C1832 1.398 . S
C1831 C1837 1.489 1_556 S
C1832 H1823 0.950 . S
C1832 C1831 1.398 . S
C1832 C1833 1.391 . S
C1833 H1821 0.950 . S
C1833 C1829 1.393 . S
C1833 C1832 1.391 . S
C1834 H1824 0.950 . S
C1834 C1835 1.386 1_556 S
C1834 C1836 1.391 . S
C1835 C1834 1.386 1_554 S
C1835 C1839 1.393 . S
C1836 H1825 0.950 . S
C1836 C1834 1.391 . S
C1836 C1837 1.397 1_556 S
C1837 C1831 1.489 1_554 S
C1837 C1836 1.397 1_554 S
C1837 C1838 1.403 . S
C1838 H1826 0.950 . S
C1838 C1837 1.403 . S
C1838 C1839 1.391 . S
C1839 H1827 0.950 . S
C1839 C1835 1.393 . S
C1839 C1838 1.391 . S
H1840 C1848 0.950 . S
H1841 C1853 0.950 . S
H1842 C1850 0.950 . S
H1843 C1852 0.950 . S
H1844 C1854 0.950 . S
H1845 C1856 0.950 . S
H1846 C1858 0.950 . S
H1847 C1859 0.950 . S
C1848 H1840 0.950 . S
C1848 C1849 1.386 . S
C1848 C1850 1.391 . S
C1849 C1848 1.386 . S
C1849 C1853 1.393 . S
C1850 H1842 0.950 . S
C1850 C1848 1.391 . S
C1850 C1851 1.400 . S
C1851 C1850 1.400 . S
C1851 C1852 1.398 . S
C1851 C1857 1.491 . S
C1852 H1843 0.950 . S
C1852 C1851 1.398 . S
C1852 C1853 1.391 . S
C1853 H1841 0.950 . S
C1853 C1849 1.393 . S
C1853 C1852 1.391 . S
C1854 H1844 0.950 . S
C1854 C1855 1.386 . S
C1854 C1856 1.391 . S
C1855 C1854 1.386 . S
C1855 C1859 1.393 . S
C1856 H1845 0.950 . S
C1856 C1854 1.391 . S
C1856 C1857 1.400 . S
C1857 C1851 1.491 . S
C1857 C1856 1.400 . S
C1857 C1858 1.398 . S
C1858 H1846 0.950 . S
C1858 C1857 1.398 . S
C1858 C1859 1.391 . S
C1859 H1847 0.950 . S
C1859 C1855 1.393 . S
C1859 C1858 1.391 . S
H1860 C1868 0.950 . S
H1861 C1873 0.950 . S
H1862 C1870 0.950 . S
H1863 C1872 0.950 . S
H1864 C1874 0.950 . S
H1865 C1876 0.950 1_655 S
H1866 C1878 0.950 . S
H1867 C1879 0.950 . S
C1868 H1860 0.950 . S
C1868 C1869 1.386 . S
C1868 C1870 1.391 . S
C1869 C1868 1.386 . S
C1869 C1873 1.393 . S
C1870 H1862 0.950 . S
C1870 C1868 1.391 . S
C1870 C1871 1.400 . S
C1871 C1870 1.400 . S
C1871 C1872 1.398 . S
C1871 C1877 1.491 . S
C1872 H1863 0.950 . S
C1872 C1871 1.398 . S
C1872 C1873 1.391 . S
C1873 H1861 0.950 . S
C1873 C1869 1.393 . S
C1873 C1872 1.391 . S
C1874 H1864 0.950 . S
C1874 C1875 1.386 1_655 S
C1874 C1876 1.391 1_655 S
C1875 C1874 1.386 1_455 S
C1875 C1879 1.393 . S
C1876 H1865 0.950 1_455 S
C1876 C1874 1.391 1_455 S
C1876 C1877 1.400 . S
C1877 C1871 1.491 . S
C1877 C1876 1.400 . S
C1877 C1878 1.398 . S
C1878 H1866 0.950 . S
C1878 C1877 1.398 . S
C1878 C1879 1.391 . S
C1879 H1867 0.950 . S
C1879 C1875 1.393 . S
C1879 C1878 1.391 . S
H1880 C1888 0.950 . S
H1881 C1893 0.950 . S
H1882 C1890 0.950 . S
H1883 C1892 0.950 . S
H1884 C1894 0.950 . S
H1885 C1896 0.950 . S
H1886 C1898 0.950 . S
H1887 C1899 0.950 . S
C1888 H1880 0.950 . S
C1888 C1889 1.386 . S
C1888 C1890 1.391 . S
C1889 C1888 1.386 . S
C1889 C1893 1.393 . S
C1890 H1882 0.950 . S
C1890 C1888 1.391 . S
C1890 C1891 1.400 . S
C1891 C1890 1.400 . S
C1891 C1892 1.398 . S
C1891 C1897 1.491 . S
C1892 H1883 0.950 . S
C1892 C1891 1.398 . S
C1892 C1893 1.391 . S
C1893 H1881 0.950 . S
C1893 C1889 1.393 . S
C1893 C1892 1.391 . S
C1894 H1884 0.950 . S
C1894 C1895 1.386 . S
C1894 C1896 1.391 . S
C1895 C1894 1.386 . S
C1895 C1899 1.393 . S
C1896 H1885 0.950 . S
C1896 C1894 1.391 . S
C1896 C1897 1.400 . S
C1897 C1891 1.491 . S
C1897 C1896 1.400 . S
C1897 C1898 1.398 . S
C1898 H1886 0.950 . S
C1898 C1897 1.398 . S
C1898 C1899 1.391 . S
C1899 H1887 0.950 . S
C1899 C1895 1.393 . S
C1899 C1898 1.391 . S
H1900 C1908 0.950 . S
H1901 C1913 0.950 . S
H1902 C1910 0.950 . S
H1903 C1912 0.950 . S
H1904 C1914 0.950 . S
H1905 C1916 0.950 . S
H1906 C1918 0.950 . S
H1907 C1919 0.950 . S
C1908 H1900 0.950 . S
C1908 C1909 1.386 . S
C1908 C1910 1.391 . S
C1909 C1908 1.386 . S
C1909 C1913 1.393 1_655 S
C1910 H1902 0.950 . S
C1910 C1908 1.391 . S
C1910 C1911 1.400 . S
C1911 C1910 1.400 . S
C1911 C1912 1.398 1_655 S
C1911 C1917 1.485 1_655 S
C1912 H1903 0.950 . S
C1912 C1911 1.398 1_455 S
C1912 C1913 1.391 . S
C1913 H1901 0.950 . S
C1913 C1909 1.393 1_455 S
C1913 C1912 1.391 . S
C1914 H1904 0.950 . S
C1914 C1915 1.386 . S
C1914 C1916 1.391 . S
C1915 C1914 1.386 . S
C1915 C1919 1.393 1_455 S
C1916 H1905 0.950 . S
C1916 C1914 1.391 . S
C1916 C1917 1.421 . S
C1917 C1911 1.485 1_455 S
C1917 C1916 1.421 . S
C1917 C1918 1.383 1_455 S
C1918 H1906 0.950 . S
C1918 C1917 1.383 1_655 S
C1918 C1919 1.391 . S
C1919 H1907 0.950 . S
C1919 C1915 1.393 1_655 S
C1919 C1918 1.391 . S
H1920 C1928 0.950 . S
H1921 C1933 0.950 . S
H1922 C1930 0.950 . S
H1923 C1932 0.950 . S
H1924 C1934 0.950 . S
H1925 C1936 0.950 . S
H1926 C1938 0.950 . S
H1927 C1939 0.950 . S
C1928 H1920 0.950 . S
C1928 C1929 1.386 . S
C1928 C1930 1.391 . S
C1929 C1928 1.386 . S
C1929 C1933 1.393 . S
C1930 H1922 0.950 . S
C1930 C1928 1.391 . S
C1930 C1931 1.400 . S
C1931 C1930 1.400 . S
C1931 C1932 1.398 . S
C1931 C1937 1.491 . S
C1932 H1923 0.950 . S
C1932 C1931 1.398 . S
C1932 C1933 1.391 . S
C1933 H1921 0.950 . S
C1933 C1929 1.393 . S
C1933 C1932 1.391 . S
C1934 H1924 0.950 . S
C1934 C1935 1.386 . S
C1934 C1936 1.391 . S
C1935 C1934 1.386 . S
C1935 C1939 1.393 . S
C1936 H1925 0.950 . S
C1936 C1934 1.391 . S
C1936 C1937 1.400 . S
C1937 C1931 1.491 . S
C1937 C1936 1.400 . S
C1937 C1938 1.398 . S
C1938 H1926 0.950 . S
C1938 C1937 1.398 . S
C1938 C1939 1.391 . S
C1939 H1927 0.950 . S
C1939 C1935 1.393 . S
C1939 C1938 1.391 . S
H1940 C1948 0.950 . S
H1941 C1953 0.950 . S
H1942 C1950 0.950 . S
H1943 C1952 0.950 . S
H1944 C1954 0.950 . S
H1945 C1956 0.950 . S
H1946 C1958 0.950 . S
H1947 C1959 0.950 . S
C1948 H1940 0.950 . S
C1948 C1949 1.386 . S
C1948 C1950 1.391 . S
C1949 C1948 1.386 . S
C1949 C1953 1.393 . S
C1950 H1942 0.950 . S
C1950 C1948 1.391 . S
C1950 C1951 1.400 . S
C1951 C1950 1.400 . S
C1951 C1952 1.398 . S
C1951 C1957 1.491 . S
C1952 H1943 0.950 . S
C1952 C1951 1.398 . S
C1952 C1953 1.391 . S
C1953 H1941 0.950 . S
C1953 C1949 1.393 . S
C1953 C1952 1.391 . S
C1954 H1944 0.950 . S
C1954 C1955 1.386 . S
C1954 C1956 1.391 . S
C1955 C1954 1.386 . S
C1955 C1959 1.393 . S
C1956 H1945 0.950 . S
C1956 C1954 1.391 . S
C1956 C1957 1.400 . S
C1957 C1951 1.491 . S
C1957 C1956 1.400 . S
C1957 C1958 1.398 . S
C1958 H1946 0.950 . S
C1958 C1957 1.398 . S
C1958 C1959 1.391 . S
C1959 H1947 0.950 . S
C1959 C1955 1.393 . S
C1959 C1958 1.391 . S
H1960 C1968 0.950 . S
H1961 C1973 0.944 1_565 S
H1962 C1970 0.950 . S
H1963 C1972 0.950 . S
H1964 C1974 0.950 . S
H1965 C1976 0.950 . S
H1966 C1978 0.950 . S
H1967 C1979 0.950 . S
C1968 H1960 0.950 . S
C1968 C1969 1.386 . S
C1968 C1970 1.391 . S
C1969 C1968 1.386 . S
C1969 C1973 1.404 . S
C1970 H1962 0.950 . S
C1970 C1968 1.391 . S
C1970 C1971 1.400 . S
C1971 C1970 1.400 . S
C1971 C1972 1.398 1_545 S
C1971 C1977 1.492 1_545 S
C1972 H1963 0.950 . S
C1972 C1971 1.398 1_565 S
C1972 C1973 1.386 1_565 S
C1973 H1961 0.944 1_545 S
C1973 C1969 1.404 . S
C1973 C1972 1.386 1_545 S
C1974 H1964 0.950 . S
C1974 C1975 1.386 . S
C1974 C1976 1.391 . S
C1975 C1974 1.386 . S
C1975 C1979 1.393 1_565 S
C1976 H1965 0.950 . S
C1976 C1974 1.391 . S
C1976 C1977 1.397 . S
C1977 C1971 1.492 1_565 S
C1977 C1976 1.397 . S
C1977 C1978 1.401 1_565 S
C1978 H1966 0.950 . S
C1978 C1977 1.401 1_545 S
C1978 C1979 1.391 . S
C1979 H1967 0.950 . S
C1979 C1975 1.393 1_545 S
C1979 C1978 1.391 . S
H1980 C1988 0.950 . S
H1981 C1993 0.950 . S
H1982 C1990 0.950 . S
H1983 C1992 0.950 1_545 S
H1984 C1994 0.950 . S
H1985 C1996 0.943 1_545 S
H1986 C1998 0.950 . S
H1987 C1999 0.950 . S
C1988 H1980 0.950 . S
C1988 C1989 1.386 . S
C1988 C1990 1.391 . S
C1989 C1988 1.386 . S
C1989 C1993 1.393 . S
C1990 H1982 0.950 . S
C1990 C1988 1.391 . S
C1990 C1991 1.400 . S
C1991 C1990 1.400 . S
C1991 C1992 1.398 . S
C1991 C1997 1.491 . S
C1992 H1983 0.950 1_565 S
C1992 C1991 1.398 . S
C1992 C1993 1.391 . S
C1993 H1981 0.950 . S
C1993 C1989 1.393 . S
C1993 C1992 1.391 . S
C1994 H1984 0.950 . S
C1994 C1995 1.386 1_545 S
C1994 C1996 1.391 1_545 S
C1995 C1994 1.386 1_565 S
C1995 C1999 1.393 . S
C1996 H1985 0.943 1_565 S
C1996 C1994 1.391 1_565 S
C1996 C1997 1.408 . S
C1997 C1991 1.491 . S
C1997 C1996 1.408 . S
C1997 C1998 1.398 . S
C1998 H1986 0.950 . S
C1998 C1997 1.398 . S
C1998 C1999 1.391 . S
C1999 H1987 0.950 . S
C1999 C1995 1.393 . S
C1999 C1998 1.391 . S
H2000 C2008 0.950 . S
H2001 C2013 0.950 . S
H2002 C2010 0.950 . S
H2003 C2012 0.950 . S
H2004 C2014 0.950 . S
H2005 C2016 0.950 . S
H2006 C2018 0.950 . S
H2007 C2019 0.950 . S
C2008 H2000 0.950 . S
C2008 C2009 1.386 . S
C2008 C2010 1.391 . S
C2009 C2008 1.386 . S
C2009 C2013 1.393 . S
C2010 H2002 0.950 . S
C2010 C2008 1.391 . S
C2010 C2011 1.400 . S
C2011 C2010 1.400 . S
C2011 C2012 1.398 . S
C2011 C2017 1.491 . S
C2012 H2003 0.950 . S
C2012 C2011 1.398 . S
C2012 C2013 1.391 . S
C2013 H2001 0.950 . S
C2013 C2009 1.393 . S
C2013 C2012 1.391 . S
C2014 H2004 0.950 . S
C2014 C2015 1.386 . S
C2014 C2016 1.391 . S
C2015 C2014 1.386 . S
C2015 C2019 1.393 . S
C2016 H2005 0.950 . S
C2016 C2014 1.391 . S
C2016 C2017 1.400 . S
C2017 C2011 1.491 . S
C2017 C2016 1.400 . S
C2017 C2018 1.398 . S
C2018 H2006 0.950 . S
C2018 C2017 1.398 . S
C2018 C2019 1.391 . S
C2019 H2007 0.950 . S
C2019 C2015 1.393 . S
C2019 C2018 1.391 . S
H2020 C2028 0.950 1_554 S
H2021 C2033 0.950 . S
H2022 C2030 0.947 1_554 S
H2023 C2032 0.950 . S
H2024 C2034 0.950 . S
H2025 C2036 0.950 . S
H2026 C2038 0.950 . S
H2027 C2039 0.950 . S
C2028 H2020 0.950 1_556 S
C2028 C2029 1.386 . S
C2028 C2030 1.391 . S
C2029 C2028 1.386 . S
C2029 C2033 1.393 . S
C2030 H2022 0.947 1_556 S
C2030 C2028 1.391 . S
C2030 C2031 1.403 . S
C2031 C2030 1.403 . S
C2031 C2032 1.398 . S
C2031 C2037 1.491 . S
C2032 H2023 0.950 . S
C2032 C2031 1.398 . S
C2032 C2033 1.391 . S
C2033 H2021 0.950 . S
C2033 C2029 1.393 . S
C2033 C2032 1.391 . S
C2034 H2024 0.950 . S
C2034 C2035 1.386 . S
C2034 C2036 1.391 . S
C2035 C2034 1.386 . S
C2035 C2039 1.393 1_556 S
C2036 H2025 0.950 . S
C2036 C2034 1.391 . S
C2036 C2037 1.400 . S
C2037 C2031 1.491 . S
C2037 C2036 1.400 . S
C2037 C2038 1.398 1_556 S
C2038 H2026 0.950 . S
C2038 C2037 1.398 1_554 S
C2038 C2039 1.391 . S
C2039 H2027 0.950 . S
C2039 C2035 1.393 1_554 S
C2039 C2038 1.391 . S
H2040 C2048 0.950 . S
H2041 C2053 0.950 . S
H2042 C2050 0.950 . S
H2043 C2052 0.950 . S
H2044 C2054 0.950 . S
H2045 C2056 0.950 . S
H2046 C2058 0.950 . S
H2047 C2059 0.950 . S
C2048 H2040 0.950 . S
C2048 C2049 1.386 . S
C2048 C2050 1.391 . S
C2049 C2048 1.386 . S
C2049 C2053 1.393 . S
C2050 H2042 0.950 . S
C2050 C2048 1.391 . S
C2050 C2051 1.400 . S
C2051 C2050 1.400 . S
C2051 C2052 1.398 . S
C2051 C2057 1.491 . S
C2052 H2043 0.950 . S
C2052 C2051 1.398 . S
C2052 C2053 1.391 . S
C2053 H2041 0.950 . S
C2053 C2049 1.393 . S
C2053 C2052 1.391 . S
C2054 H2044 0.950 . S
C2054 C2055 1.386 . S
C2054 C2056 1.391 . S
C2055 C2054 1.386 . S
C2055 C2059 1.393 . S
C2056 H2045 0.950 . S
C2056 C2054 1.391 . S
C2056 C2057 1.400 . S
C2057 C2051 1.491 . S
C2057 C2056 1.400 . S
C2057 C2058 1.398 . S
C2058 H2046 0.950 . S
C2058 C2057 1.398 . S
C2058 C2059 1.391 . S
C2059 H2047 0.950 . S
C2059 C2055 1.393 . S
C2059 C2058 1.391 . S
H2060 C2068 0.950 . S
H2061 C2073 0.950 . S
H2062 C2070 0.950 . S
H2063 C2072 0.950 . S
H2064 C2074 0.950 . S
H2065 C2076 0.950 . S
H2066 C2078 0.950 . S
H2067 C2079 0.950 . S
C2068 H2060 0.950 . S
C2068 C2069 1.386 . S
C2068 C2070 1.391 . S
C2069 C2068 1.386 . S
C2069 C2073 1.393 1_554 S
C2070 H2062 0.950 . S
C2070 C2068 1.391 . S
C2070 C2071 1.400 . S
C2071 C2070 1.400 . S
C2071 C2072 1.398 1_554 S
C2071 C2077 1.484 1_554 S
C2072 H2063 0.950 . S
C2072 C2071 1.398 1_556 S
C2072 C2073 1.391 . S
C2073 H2061 0.950 . S
C2073 C2069 1.393 1_556 S
C2073 C2072 1.391 . S
C2074 H2064 0.950 . S
C2074 C2075 1.386 . S
C2074 C2076 1.391 . S
C2075 C2074 1.386 . S
C2075 C2079 1.393 1_556 S
C2076 H2065 0.950 . S
C2076 C2074 1.391 . S
C2076 C2077 1.423 . S
C2077 C2071 1.484 1_556 S
C2077 C2076 1.423 . S
C2077 C2078 1.384 1_556 S
C2078 H2066 0.950 . S
C2078 C2077 1.384 1_554 S
C2078 C2079 1.391 . S
C2079 H2067 0.950 . S
C2079 C2075 1.393 1_554 S
C2079 C2078 1.391 . S
H2080 C2088 0.950 . S
H2081 C2093 0.950 . S
H2082 C2090 0.950 . S
H2083 C2092 0.950 . S
H2084 C2094 0.950 . S
H2085 C2096 0.950 . S
H2086 C2098 0.950 . S
H2087 C2099 0.950 . S
C2088 H2080 0.950 . S
C2088 C2089 1.386 . S
C2088 C2090 1.391 . S
C2089 C2088 1.386 . S
C2089 C2093 1.393 . S
C2090 H2082 0.950 . S
C2090 C2088 1.391 . S
C2090 C2091 1.400 . S
C2091 C2090 1.400 . S
C2091 C2092 1.398 . S
C2091 C2097 1.491 . S
C2092 H2083 0.950 . S
C2092 C2091 1.398 . S
C2092 C2093 1.391 . S
C2093 H2081 0.950 . S
C2093 C2089 1.393 . S
C2093 C2092 1.391 . S
C2094 H2084 0.950 . S
C2094 C2095 1.386 . S
C2094 C2096 1.391 . S
C2095 C2094 1.386 . S
C2095 C2099 1.393 . S
C2096 H2085 0.950 . S
C2096 C2094 1.391 . S
C2096 C2097 1.400 . S
C2097 C2091 1.491 . S
C2097 C2096 1.400 . S
C2097 C2098 1.398 . S
C2098 H2086 0.950 . S
C2098 C2097 1.398 . S
C2098 C2099 1.391 . S
C2099 H2087 0.950 . S
C2099 C2095 1.393 . S
C2099 C2098 1.391 . S
H2100 C2108 0.950 . S
H2101 C2113 0.950 . S
H2102 C2110 0.950 . S
H2103 C2112 0.950 . S
H2104 C2114 0.950 . S
H2105 C2116 0.950 . S
H2106 C2118 0.950 . S
H2107 C2119 0.950 . S
C2108 H2100 0.950 . S
C2108 C2109 1.386 . S
C2108 C2110 1.391 . S
C2109 C2108 1.386 . S
C2109 C2113 1.393 1_655 S
C2110 H2102 0.950 . S
C2110 C2108 1.391 . S
C2110 C2111 1.400 . S
C2111 C2110 1.400 . S
C2111 C2112 1.398 1_655 S
C2111 C2117 1.491 . S
C2112 H2103 0.950 . S
C2112 C2111 1.398 1_455 S
C2112 C2113 1.391 . S
C2113 H2101 0.950 . S
C2113 C2109 1.393 1_455 S
C2113 C2112 1.391 . S
C2114 H2104 0.950 . S
C2114 C2115 1.386 1_455 S
C2114 C2116 1.391 . S
C2115 C2114 1.386 1_655 S
C2115 C2119 1.393 . S
C2116 H2105 0.950 . S
C2116 C2114 1.391 . S
C2116 C2117 1.400 1_455 S
C2117 C2111 1.491 . S
C2117 C2116 1.400 1_655 S
C2117 C2118 1.398 . S
C2118 H2106 0.950 . S
C2118 C2117 1.398 . S
C2118 C2119 1.391 . S
C2119 H2107 0.950 . S
C2119 C2115 1.393 . S
C2119 C2118 1.391 . S
H2120 C2128 0.950 . S
H2121 C2133 0.950 . S
H2122 C2130 0.950 . S
H2123 C2132 0.950 . S
H2124 C2134 0.950 . S
H2125 C2136 0.950 . S
H2126 C2138 0.950 . S
H2127 C2139 0.950 . S
C2128 H2120 0.950 . S
C2128 C2129 1.386 . S
C2128 C2130 1.391 . S
C2129 C2128 1.386 . S
C2129 C2133 1.393 . S
C2130 H2122 0.950 . S
C2130 C2128 1.391 . S
C2130 C2131 1.400 . S
C2131 C2130 1.400 . S
C2131 C2132 1.398 . S
C2131 C2137 1.491 . S
C2132 H2123 0.950 . S
C2132 C2131 1.398 . S
C2132 C2133 1.391 . S
C2133 H2121 0.950 . S
C2133 C2129 1.393 . S
C2133 C2132 1.391 . S
C2134 H2124 0.950 . S
C2134 C2135 1.386 . S
C2134 C2136 1.391 . S
C2135 C2134 1.386 . S
C2135 C2139 1.393 . S
C2136 H2125 0.950 . S
C2136 C2134 1.391 . S
C2136 C2137 1.400 . S
C2137 C2131 1.491 . S
C2137 C2136 1.400 . S
C2137 C2138 1.398 . S
C2138 H2126 0.950 . S
C2138 C2137 1.398 . S
C2138 C2139 1.391 . S
C2139 H2127 0.950 . S
C2139 C2135 1.393 . S
C2139 C2138 1.391 . S
H2140 C2148 0.950 . S
H2141 C2153 0.950 . S
H2142 C2150 0.950 . S
H2143 C2152 0.950 . S
H2144 C2154 0.950 . S
H2145 C2156 0.950 . S
H2146 C2158 0.950 . S
H2147 C2159 0.950 . S
C2148 H2140 0.950 . S
C2148 C2149 1.386 1_655 S
C2148 C2150 1.391 . S
C2149 C2148 1.386 1_455 S
C2149 C2153 1.393 . S
C2150 H2142 0.950 . S
C2150 C2148 1.391 . S
C2150 C2151 1.400 1_655 S
C2151 C2150 1.400 1_455 S
C2151 C2152 1.398 . S
C2151 C2157 1.486 1_455 S
C2152 H2143 0.950 . S
C2152 C2151 1.398 . S
C2152 C2153 1.391 . S
C2153 H2141 0.950 . S
C2153 C2149 1.393 . S
C2153 C2152 1.391 . S
C2154 H2144 0.950 . S
C2154 C2155 1.386 1_455 S
C2154 C2156 1.391 . S
C2155 C2154 1.386 1_655 S
C2155 C2159 1.393 . S
C2156 H2145 0.950 . S
C2156 C2154 1.391 . S
C2156 C2157 1.387 1_455 S
C2157 C2151 1.486 1_655 S
C2157 C2156 1.387 1_655 S
C2157 C2158 1.416 . S
C2158 H2146 0.950 . S
C2158 C2157 1.416 . S
C2158 C2159 1.391 . S
C2159 H2147 0.950 . S
C2159 C2155 1.393 . S
C2159 C2158 1.391 . S
H2160 C2168 0.950 . S
H2161 C2173 0.950 . S
H2162 C2170 0.950 . S
H2163 C2172 0.950 . S
H2164 C2174 0.950 . S
H2165 C2176 0.950 . S
H2166 C2178 0.950 . S
H2167 C2179 0.950 . S
C2168 H2160 0.950 . S
C2168 C2169 1.386 . S
C2168 C2170 1.391 . S
C2169 C2168 1.386 . S
C2169 C2173 1.393 . S
C2170 H2162 0.950 . S
C2170 C2168 1.391 . S
C2170 C2171 1.400 . S
C2171 C2170 1.400 . S
C2171 C2172 1.398 . S
C2171 C2177 1.491 . S
C2172 H2163 0.950 . S
C2172 C2171 1.398 . S
C2172 C2173 1.391 . S
C2173 H2161 0.950 . S
C2173 C2169 1.393 . S
C2173 C2172 1.391 . S
C2174 H2164 0.950 . S
C2174 C2175 1.386 . S
C2174 C2176 1.391 . S
C2175 C2174 1.386 . S
C2175 C2179 1.393 . S
C2176 H2165 0.950 . S
C2176 C2174 1.391 . S
C2176 C2177 1.400 . S
C2177 C2171 1.491 . S
C2177 C2176 1.400 . S
C2177 C2178 1.398 . S
C2178 H2166 0.950 . S
C2178 C2177 1.398 . S
C2178 C2179 1.391 . S
C2179 H2167 0.950 . S
C2179 C2175 1.393 . S
C2179 C2178 1.391 . S
H2180 C2188 0.950 . S
H2181 C2193 0.950 . S
H2182 C2190 0.950 . S
H2183 C2192 0.950 . S
H2184 C2194 0.950 . S
H2185 C2196 0.950 . S
H2186 C2198 0.950 . S
H2187 C2199 0.950 . S
C2188 H2180 0.950 . S
C2188 C2189 1.386 . S
C2188 C2190 1.391 . S
C2189 C2188 1.386 . S
C2189 C2193 1.393 . S
C2190 H2182 0.950 . S
C2190 C2188 1.391 . S
C2190 C2191 1.400 . S
C2191 C2190 1.400 . S
C2191 C2192 1.398 . S
C2191 C2197 1.491 . S
C2192 H2183 0.950 . S
C2192 C2191 1.398 . S
C2192 C2193 1.391 . S
C2193 H2181 0.950 . S
C2193 C2189 1.393 . S
C2193 C2192 1.391 . S
C2194 H2184 0.950 . S
C2194 C2195 1.386 . S
C2194 C2196 1.391 . S
C2195 C2194 1.386 . S
C2195 C2199 1.393 . S
C2196 H2185 0.950 . S
C2196 C2194 1.391 . S
C2196 C2197 1.400 . S
C2197 C2191 1.491 . S
C2197 C2196 1.400 . S
C2197 C2198 1.398 . S
C2198 H2186 0.950 . S
C2198 C2197 1.398 . S
C2198 C2199 1.391 . S
C2199 H2187 0.950 . S
C2199 C2195 1.393 . S
C2199 C2198 1.391 . S
H2200 C2208 0.950 . S
H2201 C2213 0.950 . S
H2202 C2210 0.950 . S
H2203 C2212 0.950 . S
H2204 C2214 0.950 . S
H2205 C2216 0.950 . S
H2206 C2218 0.950 1_565 S
H2207 C2219 0.950 1_565 S
C2208 H2200 0.950 . S
C2208 C2209 1.386 1_565 S
C2208 C2210 1.391 . S
C2209 C2208 1.386 1_545 S
C2209 C2213 1.393 . S
C2210 H2202 0.950 . S
C2210 C2208 1.391 . S
C2210 C2211 1.400 1_565 S
C2211 C2210 1.400 1_545 S
C2211 C2212 1.398 . S
C2211 C2217 1.491 . S
C2212 H2203 0.950 . S
C2212 C2211 1.398 . S
C2212 C2213 1.391 . S
C2213 H2201 0.950 . S
C2213 C2209 1.393 . S
C2213 C2212 1.391 . S
C2214 H2204 0.950 . S
C2214 C2215 1.386 . S
C2214 C2216 1.391 . S
C2215 C2214 1.386 . S
C2215 C2219 1.393 . S
C2216 H2205 0.950 . S
C2216 C2214 1.391 . S
C2216 C2217 1.400 . S
C2217 C2211 1.491 . S
C2217 C2216 1.400 . S
C2217 C2218 1.398 . S
C2218 H2206 0.950 1_545 S
C2218 C2217 1.398 . S
C2218 C2219 1.391 . S
C2219 H2207 0.950 1_545 S
C2219 C2215 1.393 . S
C2219 C2218 1.391 . S
H2220 C2228 0.950 1_545 S
H2221 C2233 0.950 . S
H2222 C2230 0.950 . S
H2223 C2232 0.950 . S
H2224 C2234 0.950 . S
H2225 C2236 0.950 . S
H2226 C2238 0.950 . S
H2227 C2239 0.950 . S
C2228 H2220 0.950 1_565 S
C2228 C2229 1.386 . S
C2228 C2230 1.391 . S
C2229 C2228 1.386 . S
C2229 C2233 1.393 . S
C2230 H2222 0.950 . S
C2230 C2228 1.391 . S
C2230 C2231 1.400 . S
C2231 C2230 1.400 . S
C2231 C2232 1.398 . S
C2231 C2237 1.491 . S
C2232 H2223 0.950 . S
C2232 C2231 1.398 . S
C2232 C2233 1.391 . S
C2233 H2221 0.950 . S
C2233 C2229 1.393 . S
C2233 C2232 1.391 . S
C2234 H2224 0.950 . S
C2234 C2235 1.386 . S
C2234 C2236 1.391 . S
C2235 C2234 1.386 . S
C2235 C2239 1.393 . S
C2236 H2225 0.950 . S
C2236 C2234 1.391 . S
C2236 C2237 1.400 . S
C2237 C2231 1.491 . S
C2237 C2236 1.400 . S
C2237 C2238 1.398 . S
C2238 H2226 0.950 . S
C2238 C2237 1.398 . S
C2238 C2239 1.391 . S
C2239 H2227 0.950 . S
C2239 C2235 1.393 . S
C2239 C2238 1.391 . S
H2240 C2248 0.950 . S
H2241 C2253 0.950 . S
H2242 C2250 0.950 . S
H2243 C2252 0.950 . S
H2244 C2254 0.950 . S
H2245 C2256 0.950 . S
H2246 C2258 0.950 . S
H2247 C2259 0.950 . S
C2248 H2240 0.950 . S
C2248 C2249 1.386 . S
C2248 C2250 1.391 . S
C2249 C2248 1.386 . S
C2249 C2253 1.393 . S
C2250 H2242 0.950 . S
C2250 C2248 1.391 . S
C2250 C2251 1.400 . S
C2251 C2250 1.400 . S
C2251 C2252 1.398 . S
C2251 C2257 1.491 . S
C2252 H2243 0.950 . S
C2252 C2251 1.398 . S
C2252 C2253 1.391 . S
C2253 H2241 0.950 . S
C2253 C2249 1.393 . S
C2253 C2252 1.391 . S
C2254 H2244 0.950 . S
C2254 C2255 1.386 . S
C2254 C2256 1.391 . S
C2255 C2254 1.386 . S
C2255 C2259 1.393 . S
C2256 H2245 0.950 . S
C2256 C2254 1.391 . S
C2256 C2257 1.400 . S
C2257 C2251 1.491 . S
C2257 C2256 1.400 . S
C2257 C2258 1.398 . S
C2258 H2246 0.950 . S
C2258 C2257 1.398 . S
C2258 C2259 1.391 . S
C2259 H2247 0.950 . S
C2259 C2255 1.393 . S
C2259 C2258 1.391 . S
H2260 C2268 0.950 . S
H2261 C2273 0.950 . S
H2262 C2270 0.950 . S
H2263 C2272 0.950 . S
H2264 C2274 0.950 . S
H2265 C2276 0.950 . S
H2266 C2278 0.950 . S
H2267 C2279 0.950 . S
C2268 H2260 0.950 . S
C2268 C2269 1.386 . S
C2268 C2270 1.391 . S
C2269 C2268 1.386 . S
C2269 C2273 1.393 . S
C2270 H2262 0.950 . S
C2270 C2268 1.391 . S
C2270 C2271 1.400 . S
C2271 C2270 1.400 . S
C2271 C2272 1.398 . S
C2271 C2277 1.491 . S
C2272 H2263 0.950 . S
C2272 C2271 1.398 . S
C2272 C2273 1.391 . S
C2273 H2261 0.950 . S
C2273 C2269 1.393 . S
C2273 C2272 1.391 . S
C2274 H2264 0.950 . S
C2274 C2275 1.386 . S
C2274 C2276 1.391 . S
C2275 C2274 1.386 . S
C2275 C2279 1.393 . S
C2276 H2265 0.950 . S
C2276 C2274 1.391 . S
C2276 C2277 1.400 . S
C2277 C2271 1.491 . S
C2277 C2276 1.400 . S
C2277 C2278 1.398 . S
C2278 H2266 0.950 . S
C2278 C2277 1.398 . S
C2278 C2279 1.391 . S
C2279 H2267 0.950 . S
C2279 C2275 1.393 . S
C2279 C2278 1.391 . S
H2280 C2288 0.950 . S
H2281 C2293 0.950 . S
H2282 C2290 0.950 . S
H2283 C2292 0.950 . S
H2284 C2294 0.950 . S
H2285 C2296 0.950 . S
H2286 C2298 0.950 . S
H2287 C2299 0.950 . S
C2288 H2280 0.950 . S
C2288 C2289 1.386 . S
C2288 C2290 1.391 . S
C2289 C2288 1.386 . S
C2289 C2293 1.393 . S
C2290 H2282 0.950 . S
C2290 C2288 1.391 . S
C2290 C2291 1.400 . S
C2291 C2290 1.400 . S
C2291 C2292 1.398 . S
C2291 C2297 1.491 . S
C2292 H2283 0.950 . S
C2292 C2291 1.398 . S
C2292 C2293 1.391 . S
C2293 H2281 0.950 . S
C2293 C2289 1.393 . S
C2293 C2292 1.391 . S
C2294 H2284 0.950 . S
C2294 C2295 1.386 . S
C2294 C2296 1.391 . S
C2295 C2294 1.386 . S
C2295 C2299 1.393 . S
C2296 H2285 0.950 . S
C2296 C2294 1.391 . S
C2296 C2297 1.400 . S
C2297 C2291 1.491 . S
C2297 C2296 1.400 . S
C2297 C2298 1.398 . S
C2298 H2286 0.950 . S
C2298 C2297 1.398 . S
C2298 C2299 1.391 . S
C2299 H2287 0.950 . S
C2299 C2295 1.393 . S
C2299 C2298 1.391 . S
H2300 C2308 0.950 . S
H2301 C2313 0.950 . S
H2302 C2310 0.946 1_556 S
H2303 C2312 0.950 . S
H2304 C2314 0.950 . S
H2305 C2316 0.950 . S
H2306 C2318 0.945 1_556 S
H2307 C2319 0.950 . S
C2308 H2300 0.950 . S
C2308 C2309 1.386 1_556 S
C2308 C2310 1.390 1_556 S
C2309 C2308 1.386 1_554 S
C2309 C2313 1.393 . S
C2310 H2302 0.946 1_554 S
C2310 C2308 1.390 1_554 S
C2310 C2311 1.404 . S
C2311 C2310 1.404 . S
C2311 C2312 1.398 . S
C2311 C2317 1.491 . S
C2312 H2303 0.950 . S
C2312 C2311 1.398 . S
C2312 C2313 1.391 . S
C2313 H2301 0.950 . S
C2313 C2309 1.393 . S
C2313 C2312 1.391 . S
C2314 H2304 0.950 . S
C2314 C2315 1.386 . S
C2314 C2316 1.391 . S
C2315 C2314 1.386 . S
C2315 C2319 1.393 . S
C2316 H2305 0.950 . S
C2316 C2314 1.391 . S
C2316 C2317 1.400 . S
C2317 C2311 1.491 . S
C2317 C2316 1.400 . S
C2317 C2318 1.398 . S
C2318 H2306 0.945 1_554 S
C2318 C2317 1.398 . S
C2318 C2319 1.391 . S
C2319 H2307 0.950 . S
C2319 C2315 1.393 . S
C2319 C2318 1.391 . S
H2320 C2328 0.950 . S
H2321 C2333 0.950 . S
H2322 C2330 0.950 . S
H2323 C2332 0.950 . S
H2324 C2334 0.950 . S
H2325 C2336 0.950 . S
H2326 C2338 0.950 . S
H2327 C2339 0.950 . S
C2328 H2320 0.950 . S
C2328 C2329 1.386 . S
C2328 C2330 1.391 . S
C2329 C2328 1.386 . S
C2329 C2333 1.393 . S
C2330 H2322 0.950 . S
C2330 C2328 1.391 . S
C2330 C2331 1.400 . S
C2331 C2330 1.400 . S
C2331 C2332 1.398 . S
C2331 C2337 1.491 . S
C2332 H2323 0.950 . S
C2332 C2331 1.398 . S
C2332 C2333 1.391 . S
C2333 H2321 0.950 . S
C2333 C2329 1.393 . S
C2333 C2332 1.391 . S
C2334 H2324 0.950 . S
C2334 C2335 1.386 . S
C2334 C2336 1.391 . S
C2335 C2334 1.386 . S
C2335 C2339 1.393 . S
C2336 H2325 0.950 . S
C2336 C2334 1.391 . S
C2336 C2337 1.400 . S
C2337 C2331 1.491 . S
C2337 C2336 1.400 . S
C2337 C2338 1.398 . S
C2338 H2326 0.950 . S
C2338 C2337 1.398 . S
C2338 C2339 1.391 . S
C2339 H2327 0.950 . S
C2339 C2335 1.393 . S
C2339 C2338 1.391 . S
H2340 C2348 0.950 . S
H2341 C2353 0.964 . S
H2342 C2350 0.950 . S
H2343 C2352 0.950 1_455 S
H2344 C2354 0.950 . S
H2345 C2356 0.950 . S
H2346 C2358 0.950 . S
H2347 C2359 0.950 . S
C2348 H2340 0.950 . S
C2348 C2349 1.386 . S
C2348 C2350 1.391 . S
C2349 C2348 1.386 . S
C2349 C2353 1.381 1_655 S
C2350 H2342 0.950 . S
C2350 C2348 1.391 . S
C2350 C2351 1.400 . S
C2351 C2350 1.400 . S
C2351 C2352 1.398 . S
C2351 C2357 1.491 . S
C2352 H2343 0.950 1_655 S
C2352 C2351 1.398 . S
C2352 C2353 1.388 1_655 S
C2353 H2341 0.964 . S
C2353 C2349 1.381 1_455 S
C2353 C2352 1.388 1_455 S
C2354 H2344 0.950 . S
C2354 C2355 1.386 . S
C2354 C2356 1.391 . S
C2355 C2354 1.386 . S
C2355 C2359 1.393 . S
C2356 H2345 0.950 . S
C2356 C2354 1.391 . S
C2356 C2357 1.400 . S
C2357 C2351 1.491 . S
C2357 C2356 1.400 . S
C2357 C2358 1.398 . S
C2358 H2346 0.950 . S
C2358 C2357 1.398 . S
C2358 C2359 1.391 . S
C2359 H2347 0.950 . S
C2359 C2355 1.393 . S
C2359 C2358 1.391 . S
H2360 C2368 0.950 . S
H2361 C2373 0.950 . S
H2362 C2370 0.950 . S
H2363 C2372 0.950 . S
H2364 C2374 0.950 . S
H2365 C2376 0.950 . S
H2366 C2378 0.950 . S
H2367 C2379 0.950 . S
C2368 H2360 0.950 . S
C2368 C2369 1.386 . S
C2368 C2370 1.391 . S
C2369 C2368 1.386 . S
C2369 C2373 1.393 . S
C2370 H2362 0.950 . S
C2370 C2368 1.391 . S
C2370 C2371 1.400 . S
C2371 C2370 1.400 . S
C2371 C2372 1.398 . S
C2371 C2377 1.491 . S
C2372 H2363 0.950 . S
C2372 C2371 1.398 . S
C2372 C2373 1.391 . S
C2373 H2361 0.950 . S
C2373 C2369 1.393 . S
C2373 C2372 1.391 . S
C2374 H2364 0.950 . S
C2374 C2375 1.386 . S
C2374 C2376 1.391 . S
C2375 C2374 1.386 . S
C2375 C2379 1.393 . S
C2376 H2365 0.950 . S
C2376 C2374 1.391 . S
C2376 C2377 1.400 . S
C2377 C2371 1.491 . S
C2377 C2376 1.400 . S
C2377 C2378 1.398 . S
C2378 H2366 0.950 . S
C2378 C2377 1.398 . S
C2378 C2379 1.391 . S
C2379 H2367 0.950 . S
C2379 C2375 1.393 . S
C2379 C2378 1.391 . S
H2380 C2388 0.950 . S
H2381 C2393 0.950 . S
H2382 C2390 0.950 . S
H2383 C2392 0.950 . S
H2384 C2394 0.950 . S
H2385 C2396 0.950 . S
H2386 C2398 0.950 . S
H2387 C2399 0.950 . S
C2388 H2380 0.950 . S
C2388 C2389 1.386 . S
C2388 C2390 1.391 . S
C2389 C2388 1.386 . S
C2389 C2393 1.393 . S
C2390 H2382 0.950 . S
C2390 C2388 1.391 . S
C2390 C2391 1.400 . S
C2391 C2390 1.400 . S
C2391 C2392 1.398 . S
C2391 C2397 1.491 . S
C2392 H2383 0.950 . S
C2392 C2391 1.398 . S
C2392 C2393 1.391 . S
C2393 H2381 0.950 . S
C2393 C2389 1.393 . S
C2393 C2392 1.391 . S
C2394 H2384 0.950 . S
C2394 C2395 1.386 . S
C2394 C2396 1.391 . S
C2395 C2394 1.386 . S
C2395 C2399 1.393 . S
C2396 H2385 0.950 . S
C2396 C2394 1.391 . S
C2396 C2397 1.400 . S
C2397 C2391 1.491 . S
C2397 C2396 1.400 . S
C2397 C2398 1.398 . S
C2398 H2386 0.950 . S
C2398 C2397 1.398 . S
C2398 C2399 1.391 . S
C2399 H2387 0.950 . S
C2399 C2395 1.393 . S
C2399 C2398 1.391 . S
H2400 C2408 0.950 . S
H2401 C2413 0.950 . S
H2402 C2410 0.950 . S
H2403 C2412 0.950 . S
H2404 C2414 0.950 . S
H2405 C2416 0.950 . S
H2406 C2418 0.950 . S
H2407 C2419 0.950 . S
C2408 H2400 0.950 . S
C2408 C2409 1.386 . S
C2408 C2410 1.391 . S
C2409 C2408 1.386 . S
C2409 C2413 1.393 . S
C2410 H2402 0.950 . S
C2410 C2408 1.391 . S
C2410 C2411 1.400 . S
C2411 C2410 1.400 . S
C2411 C2412 1.398 . S
C2411 C2417 1.491 . S
C2412 H2403 0.950 . S
C2412 C2411 1.398 . S
C2412 C2413 1.391 . S
C2413 H2401 0.950 . S
C2413 C2409 1.393 . S
C2413 C2412 1.391 . S
C2414 H2404 0.950 . S
C2414 C2415 1.386 . S
C2414 C2416 1.391 . S
C2415 C2414 1.386 . S
C2415 C2419 1.393 . S
C2416 H2405 0.950 . S
C2416 C2414 1.391 . S
C2416 C2417 1.400 . S
C2417 C2411 1.491 . S
C2417 C2416 1.400 . S
C2417 C2418 1.398 . S
C2418 H2406 0.950 . S
C2418 C2417 1.398 . S
C2418 C2419 1.391 . S
C2419 H2407 0.950 . S
C2419 C2415 1.393 . S
C2419 C2418 1.391 . S
H2420 C2428 0.950 . S
H2421 C2433 0.950 . S
H2422 C2430 0.950 . S
H2423 C2432 0.950 . S
H2424 C2434 0.950 . S
H2425 C2436 0.950 . S
H2426 C2438 0.950 . S
H2427 C2439 0.950 . S
C2428 H2420 0.950 . S
C2428 C2429 1.386 . S
C2428 C2430 1.391 . S
C2429 C2428 1.386 . S
C2429 C2433 1.393 . S
C2430 H2422 0.950 . S
C2430 C2428 1.391 . S
C2430 C2431 1.400 . S
C2431 C2430 1.400 . S
C2431 C2432 1.398 . S
C2431 C2437 1.491 . S
C2432 H2423 0.950 . S
C2432 C2431 1.398 . S
C2432 C2433 1.391 . S
C2433 H2421 0.950 . S
C2433 C2429 1.393 . S
C2433 C2432 1.391 . S
C2434 H2424 0.950 . S
C2434 C2435 1.386 . S
C2434 C2436 1.391 . S
C2435 C2434 1.386 . S
C2435 C2439 1.393 . S
C2436 H2425 0.950 . S
C2436 C2434 1.391 . S
C2436 C2437 1.400 . S
C2437 C2431 1.491 . S
C2437 C2436 1.400 . S
C2437 C2438 1.398 . S
C2438 H2426 0.950 . S
C2438 C2437 1.398 . S
C2438 C2439 1.391 . S
C2439 H2427 0.950 . S
C2439 C2435 1.393 . S
C2439 C2438 1.391 . S
H2440 C2448 0.950 . S
H2441 C2453 0.950 . S
H2442 C2450 0.950 . S
H2443 C2452 0.950 1_545 S
H2444 C2454 0.950 . S
H2445 C2456 0.950 1_545 S
H2446 C2458 0.950 . S
H2447 C2459 0.950 . S
C2448 H2440 0.950 . S
C2448 C2449 1.386 . S
C2448 C2450 1.391 . S
C2449 C2448 1.386 . S
C2449 C2453 1.393 1_565 S
C2450 H2442 0.950 . S
C2450 C2448 1.391 . S
C2450 C2451 1.400 . S
C2451 C2450 1.400 . S
C2451 C2452 1.398 . S
C2451 C2457 1.491 . S
C2452 H2443 0.950 1_565 S
C2452 C2451 1.398 . S
C2452 C2453 1.391 1_565 S
C2453 H2441 0.950 . S
C2453 C2449 1.393 1_545 S
C2453 C2452 1.391 1_545 S
C2454 H2444 0.950 . S
C2454 C2455 1.386 . S
C2454 C2456 1.391 . S
C2455 C2454 1.386 . S
C2455 C2459 1.393 . S
C2456 H2445 0.950 1_565 S
C2456 C2454 1.391 . S
C2456 C2457 1.400 . S
C2457 C2451 1.491 . S
C2457 C2456 1.400 . S
C2457 C2458 1.398 . S
C2458 H2446 0.950 . S
C2458 C2457 1.398 . S
C2458 C2459 1.391 . S
C2459 H2447 0.950 . S
C2459 C2455 1.393 . S
C2459 C2458 1.391 . S
H2460 C2468 0.950 . S
H2461 C2473 0.901 1_565 S
H2462 C2470 0.950 . S
H2463 C2472 0.950 1_565 S
H2464 C2474 0.950 . S
H2465 C2476 0.950 . S
H2466 C2478 0.950 . S
H2467 C2479 0.950 . S
C2468 H2460 0.950 . S
C2468 C2469 1.386 . S
C2468 C2470 1.391 . S
C2469 C2468 1.386 . S
C2469 C2473 1.433 . S
C2470 H2462 0.950 . S
C2470 C2468 1.391 . S
C2470 C2471 1.400 . S
C2471 C2470 1.400 . S
C2471 C2472 1.398 . S
C2471 C2477 1.491 . S
C2472 H2463 0.950 1_545 S
C2472 C2471 1.398 . S
C2472 C2473 1.402 . S
C2473 H2461 0.901 1_545 S
C2473 C2469 1.433 . S
C2473 C2472 1.402 . S
C2474 H2464 0.950 . S
C2474 C2475 1.386 . S
C2474 C2476 1.391 . S
C2475 C2474 1.386 . S
C2475 C2479 1.393 . S
C2476 H2465 0.950 . S
C2476 C2474 1.391 . S
C2476 C2477 1.400 . S
C2477 C2471 1.491 . S
C2477 C2476 1.400 . S
C2477 C2478 1.398 . S
C2478 H2466 0.950 . S
C2478 C2477 1.398 . S
C2478 C2479 1.391 . S
C2479 H2467 0.950 . S
C2479 C2475 1.393 . S
C2479 C2478 1.391 . S
H2480 C2488 0.950 . S
H2481 C2493 0.950 . S
H2482 C2490 0.950 . S
H2483 C2492 0.950 . S
H2484 C2494 0.950 . S
H2485 C2496 0.950 . S
H2486 C2498 0.950 . S
H2487 C2499 0.950 . S
C2488 H2480 0.950 . S
C2488 C2489 1.386 . S
C2488 C2490 1.391 . S
C2489 C2488 1.386 . S
C2489 C2493 1.393 . S
C2490 H2482 0.950 . S
C2490 C2488 1.391 . S
C2490 C2491 1.400 . S
C2491 C2490 1.400 . S
C2491 C2492 1.398 . S
C2491 C2497 1.491 . S
C2492 H2483 0.950 . S
C2492 C2491 1.398 . S
C2492 C2493 1.391 . S
C2493 H2481 0.950 . S
C2493 C2489 1.393 . S
C2493 C2492 1.391 . S
C2494 H2484 0.950 . S
C2494 C2495 1.386 . S
C2494 C2496 1.391 . S
C2495 C2494 1.386 . S
C2495 C2499 1.393 . S
C2496 H2485 0.950 . S
C2496 C2494 1.391 . S
C2496 C2497 1.400 . S
C2497 C2491 1.491 . S
C2497 C2496 1.400 . S
C2497 C2498 1.398 . S
C2498 H2486 0.950 . S
C2498 C2497 1.398 . S
C2498 C2499 1.391 . S
C2499 H2487 0.950 . S
C2499 C2495 1.393 . S
C2499 C2498 1.391 . S
H2500 C2508 0.950 . S
H2501 C2513 0.950 . S
H2502 C2510 0.950 . S
H2503 C2512 0.950 . S
H2504 C2514 0.950 . S
H2505 C2516 0.950 . S
H2506 C2518 0.950 . S
H2507 C2519 0.950 . S
C2508 H2500 0.950 . S
C2508 C2509 1.386 . S
C2508 C2510 1.391 . S
C2509 C2508 1.386 . S
C2509 C2513 1.393 . S
C2510 H2502 0.950 . S
C2510 C2508 1.391 . S
C2510 C2511 1.400 . S
C2511 C2510 1.400 . S
C2511 C2512 1.398 . S
C2511 C2517 1.491 . S
C2512 H2503 0.950 . S
C2512 C2511 1.398 . S
C2512 C2513 1.391 . S
C2513 H2501 0.950 . S
C2513 C2509 1.393 . S
C2513 C2512 1.391 . S
C2514 H2504 0.950 . S
C2514 C2515 1.386 . S
C2514 C2516 1.391 . S
C2515 C2514 1.386 . S
C2515 C2519 1.393 . S
C2516 H2505 0.950 . S
C2516 C2514 1.391 . S
C2516 C2517 1.400 . S
C2517 C2511 1.491 . S
C2517 C2516 1.400 . S
C2517 C2518 1.398 . S
C2518 H2506 0.950 . S
C2518 C2517 1.398 . S
C2518 C2519 1.391 . S
C2519 H2507 0.950 . S
C2519 C2515 1.393 . S
C2519 C2518 1.391 . S
H2520 C2528 0.950 . S
H2521 C2533 0.950 . S
H2522 C2530 0.950 . S
H2523 C2532 0.950 . S
H2524 C2534 0.950 . S
H2525 C2536 0.950 . S
H2526 C2538 0.950 . S
H2527 C2539 0.950 . S
C2528 H2520 0.950 . S
C2528 C2529 1.386 . S
C2528 C2530 1.391 . S
C2529 C2528 1.386 . S
C2529 C2533 1.393 . S
C2530 H2522 0.950 . S
C2530 C2528 1.391 . S
C2530 C2531 1.400 . S
C2531 C2530 1.400 . S
C2531 C2532 1.398 . S
C2531 C2537 1.491 . S
C2532 H2523 0.950 . S
C2532 C2531 1.398 . S
C2532 C2533 1.391 . S
C2533 H2521 0.950 . S
C2533 C2529 1.393 . S
C2533 C2532 1.391 . S
C2534 H2524 0.950 . S
C2534 C2535 1.386 . S
C2534 C2536 1.391 . S
C2535 C2534 1.386 . S
C2535 C2539 1.393 . S
C2536 H2525 0.950 . S
C2536 C2534 1.391 . S
C2536 C2537 1.400 . S
C2537 C2531 1.491 . S
C2537 C2536 1.400 . S
C2537 C2538 1.398 . S
C2538 H2526 0.950 . S
C2538 C2537 1.398 . S
C2538 C2539 1.391 . S
C2539 H2527 0.950 . S
C2539 C2535 1.393 . S
C2539 C2538 1.391 . S
H2540 C2548 0.950 . S
H2541 C2553 0.950 . S
H2542 C2550 0.926 1_554 S
H2543 C2552 0.950 . S
H2544 C2554 0.950 . S
H2545 C2556 0.950 . S
H2546 C2558 0.950 . S
H2547 C2559 0.950 . S
C2548 H2540 0.950 . S
C2548 C2549 1.386 1_554 S
C2548 C2550 1.384 1_554 S
C2549 C2548 1.386 1_556 S
C2549 C2553 1.393 . S
C2550 H2542 0.926 1_556 S
C2550 C2548 1.384 1_556 S
C2550 C2551 1.434 . S
C2551 C2550 1.434 . S
C2551 C2552 1.398 . S
C2551 C2557 1.491 . S
C2552 H2543 0.950 . S
C2552 C2551 1.398 . S
C2552 C2553 1.391 . S
C2553 H2541 0.950 . S
C2553 C2549 1.393 . S
C2553 C2552 1.391 . S
C2554 H2544 0.950 . S
C2554 C2555 1.386 . S
C2554 C2556 1.391 . S
C2555 C2554 1.386 . S
C2555 C2559 1.393 . S
C2556 H2545 0.950 . S
C2556 C2554 1.391 . S
C2556 C2557 1.400 . S
C2557 C2551 1.491 . S
C2557 C2556 1.400 . S
C2557 C2558 1.398 . S
C2558 H2546 0.950 . S
C2558 C2557 1.398 . S
C2558 C2559 1.391 . S
C2559 H2547 0.950 . S
C2559 C2555 1.393 . S
C2559 C2558 1.391 . S
H2560 C2568 0.950 . S
H2561 C2573 0.950 . S
H2562 C2570 0.950 . S
H2563 C2572 0.950 . S
H2564 C2574 0.950 . S
H2565 C2576 0.950 . S
H2566 C2578 0.950 . S
H2567 C2579 0.950 . S
C2568 H2560 0.950 . S
C2568 C2569 1.386 . S
C2568 C2570 1.391 . S
C2569 C2568 1.386 . S
C2569 C2573 1.393 . S
C2570 H2562 0.950 . S
C2570 C2568 1.391 . S
C2570 C2571 1.400 . S
C2571 C2570 1.400 . S
C2571 C2572 1.398 . S
C2571 C2577 1.491 . S
C2572 H2563 0.950 . S
C2572 C2571 1.398 . S
C2572 C2573 1.391 . S
C2573 H2561 0.950 . S
C2573 C2569 1.393 . S
C2573 C2572 1.391 . S
C2574 H2564 0.950 . S
C2574 C2575 1.386 . S
C2574 C2576 1.391 . S
C2575 C2574 1.386 . S
C2575 C2579 1.393 . S
C2576 H2565 0.950 . S
C2576 C2574 1.391 . S
C2576 C2577 1.400 . S
C2577 C2571 1.491 . S
C2577 C2576 1.400 . S
C2577 C2578 1.398 . S
C2578 H2566 0.950 . S
C2578 C2577 1.398 . S
C2578 C2579 1.391 . S
C2579 H2567 0.950 . S
C2579 C2575 1.393 . S
C2579 C2578 1.391 . S
H2580 C2588 0.950 1_655 S
H2581 C2593 0.950 . S
H2582 C2590 0.950 . S
H2583 C2592 0.950 . S
H2584 C2594 0.950 . S
H2585 C2596 0.950 . S
H2586 C2598 0.950 . S
H2587 C2599 0.950 . S
C2588 H2580 0.950 1_455 S
C2588 C2589 1.386 . S
C2588 C2590 1.391 . S
C2589 C2588 1.386 . S
C2589 C2593 1.393 . S
C2590 H2582 0.950 . S
C2590 C2588 1.391 . S
C2590 C2591 1.400 . S
C2591 C2590 1.400 . S
C2591 C2592 1.398 . S
C2591 C2597 1.491 . S
C2592 H2583 0.950 . S
C2592 C2591 1.398 . S
C2592 C2593 1.391 . S
C2593 H2581 0.950 . S
C2593 C2589 1.393 . S
C2593 C2592 1.391 . S
C2594 H2584 0.950 . S
C2594 C2595 1.386 . S
C2594 C2596 1.391 . S
C2595 C2594 1.386 . S
C2595 C2599 1.393 . S
C2596 H2585 0.950 . S
C2596 C2594 1.391 . S
C2596 C2597 1.400 . S
C2597 C2591 1.491 . S
C2597 C2596 1.400 . S
C2597 C2598 1.398 . S
C2598 H2586 0.950 . S
C2598 C2597 1.398 . S
C2598 C2599 1.391 . S
C2599 H2587 0.950 . S
C2599 C2595 1.393 . S
C2599 C2598 1.391 . S
H2600 C2608 0.950 . S
H2601 C2613 0.950 . S
H2602 C2610 0.950 . S
H2603 C2612 0.950 . S
H2604 C2614 0.950 . S
H2605 C2616 0.950 . S
H2606 C2618 0.950 . S
H2607 C2619 0.950 . S
C2608 H2600 0.950 . S
C2608 C2609 1.386 . S
C2608 C2610 1.391 . S
C2609 C2608 1.386 . S
C2609 C2613 1.393 . S
C2610 H2602 0.950 . S
C2610 C2608 1.391 . S
C2610 C2611 1.400 . S
C2611 C2610 1.400 . S
C2611 C2612 1.398 . S
C2611 C2617 1.491 . S
C2612 H2603 0.950 . S
C2612 C2611 1.398 . S
C2612 C2613 1.391 . S
C2613 H2601 0.950 . S
C2613 C2609 1.393 . S
C2613 C2612 1.391 . S
C2614 H2604 0.950 . S
C2614 C2615 1.386 . S
C2614 C2616 1.391 . S
C2615 C2614 1.386 . S
C2615 C2619 1.393 . S
C2616 H2605 0.950 . S
C2616 C2614 1.391 . S
C2616 C2617 1.400 . S
C2617 C2611 1.491 . S
C2617 C2616 1.400 . S
C2617 C2618 1.398 . S
C2618 H2606 0.950 . S
C2618 C2617 1.398 . S
C2618 C2619 1.391 . S
C2619 H2607 0.950 . S
C2619 C2615 1.393 . S
C2619 C2618 1.391 . S
H2620 C2628 0.950 . S
H2621 C2633 0.950 . S
H2622 C2630 0.950 . S
H2623 C2632 0.950 . S
H2624 C2634 0.950 1_455 S
H2625 C2636 0.950 1_455 S
H2626 C2638 0.950 . S
H2627 C2639 0.950 . S
C2628 H2620 0.950 . S
C2628 C2629 1.386 . S
C2628 C2630 1.391 . S
C2629 C2628 1.386 . S
C2629 C2633 1.393 1_655 S
C2630 H2622 0.950 . S
C2630 C2628 1.391 . S
C2630 C2631 1.400 . S
C2631 C2630 1.400 . S
C2631 C2632 1.398 1_655 S
C2631 C2637 1.491 . S
C2632 H2623 0.950 . S
C2632 C2631 1.398 1_455 S
C2632 C2633 1.391 . S
C2633 H2621 0.950 . S
C2633 C2629 1.393 1_455 S
C2633 C2632 1.391 . S
C2634 H2624 0.950 1_655 S
C2634 C2635 1.386 . S
C2634 C2636 1.391 . S
C2635 C2634 1.386 . S
C2635 C2639 1.393 . S
C2636 H2625 0.950 1_655 S
C2636 C2634 1.391 . S
C2636 C2637 1.400 . S
C2637 C2631 1.491 . S
C2637 C2636 1.400 . S
C2637 C2638 1.398 . S
C2638 H2626 0.950 . S
C2638 C2637 1.398 . S
C2638 C2639 1.391 . S
C2639 H2627 0.950 . S
C2639 C2635 1.393 . S
C2639 C2638 1.391 . S
C1215 C1177 1.918 . S
C1209 C8 1.920 . S
C1235 C1060 1.523 . S
C1229 C19 1.490 . S
C1255 C1138 1.393 . S
C1249 C30 1.400 . S
C1275 C1099 2.095 . S
C1269 C41 2.074 . S
C1295 C826 1.908 . S
C1289 C52 1.915 . S
C1309 C63 2.067 . S
C1315 C865 2.100 . S
C1335 C748 1.520 . S
C1329 C74 1.497 . S
C1349 C85 1.404 . S
C1355 C787 1.387 . S
C1375 C1021 1.906 . S
C1369 C96 1.924 . S
C1389 C107 2.058 . S
C1395 C943 2.093 . S
C1409 C118 1.485 . S
C1415 C904 1.504 . S
C1435 C982 1.392 . S
C1429 C129 1.401 . S
C1455 C709 1.912 . S
C1449 C140 1.897 . S
C1469 C151 1.462 . S
C1475 C592 1.513 . S
C1495 C670 1.400 . S
C1489 C162 1.375 . S
C1509 C173 2.019 . S
C1515 C631 2.095 . S
C1535 C358 1.919 . S
C1529 C184 1.893 . S
C1555 C397 2.096 . S
C1549 C195 2.012 . S
C1569 C206 1.463 . S
C1575 C280 1.504 . S
C1589 C217 1.397 . S
C1595 C319 1.388 . S
C1609 C228 1.886 . S
C1615 C553 1.923 . S
C1629 C239 2.014 . S
C1635 C475 2.092 . S
C1655 C436 1.514 . S
C1649 C250 1.461 . S
C1669 C261 1.393 . S
C1675 C514 1.387 . S
C1695 C265 1.209 . S
C1689 C7 1.227 . S
C1715 C304 1.155 . S
C1709 C18 1.208 . S
C1729 C29 1.152 . S
C1735 C343 1.139 . S
C1749 C40 0.848 . S
C1755 C382 0.830 . S
C1775 C421 1.198 . S
C1769 C51 1.228 . S
C1789 C62 0.843 . S
C1795 C460 0.832 . S
C1815 C499 1.163 . S
C1809 C73 1.196 . S
C1835 C538 1.131 . S
C1829 C84 1.162 . S
C1855 C577 1.200 . S
C1849 C95 1.216 . S
C1869 C106 0.843 . S
C1875 C616 0.847 . S
C1889 C117 1.208 . S
C1895 C655 1.155 . S
C1909 C128 1.152 . S
C1915 C694 1.154 . S
C1929 C139 1.116 . S
C1935 C733 1.199 . S
C1949 C150 1.110 . S
C1955 C772 1.189 . S
C1969 C161 1.056 . S
C1975 C811 1.136 . S
C1989 C172 0.791 . S
C1995 C850 0.836 . S
C2009 C183 1.148 . S
C2015 C889 1.217 . S
C2035 C928 0.846 . S
C2029 C194 0.788 . S
C2055 C967 1.160 . S
C2049 C205 1.059 . S
C2075 C1006 1.142 . S
C2069 C216 1.094 . S
C2095 C1045 1.207 . S
C2089 C227 1.124 . S
C2109 C238 0.815 . S
C2115 C1084 0.832 . S
C2129 C249 1.111 . S
C2135 C1123 1.179 . S
C2149 C260 1.069 . S
C2155 C1162 1.155 . S
C2169 C5 1.466 . S
C2175 C597 1.701 . S
C2195 C714 1.602 . S
C2189 C16 1.403 . S
C2209 C27 1.208 1_545 S
C2215 C636 1.339 . S
C2235 C675 2.122 . S
C2229 C38 1.899 1_565 S
C2249 C49 1.436 . S
C2255 C285 1.690 . S
C2269 C60 1.903 1_556 S
C2275 C324 2.127 . S
C2289 C71 1.388 . S
C2295 C363 1.583 . S
C2309 C82 1.192 1_554 S
C2315 C402 1.334 . S
C2335 C441 1.688 . S
C2329 C93 1.439 . S
C2355 C519 2.136 . S
C2349 C104 1.918 1_655 S
C2369 C115 1.387 . S
C2375 C558 1.588 . S
C2389 C126 1.186 1_455 S
C2395 C480 1.336 . S
C2415 C1065 1.700 . S
C2409 C137 1.337 . S
C2435 C1182 1.602 . S
C2429 C148 1.168 . S
C2449 C159 1.025 . S
C2455 C1104 1.356 . S
C2475 C1143 2.139 . S
C2469 C170 1.558 . S
C2489 C181 1.313 . S
C2495 C753 1.711 . S
C2509 C192 1.553 . S
C2515 C792 2.146 . S
C2529 C203 1.175 . S
C2535 C831 1.596 . S
C2555 C870 1.362 . S
C2549 C214 1.090 . S
C2575 C909 1.702 . S
C2569 C225 1.295 . S
C2595 C987 2.148 . S
C2589 C236 1.588 . S
C2609 C247 1.119 . S
C2615 C1026 1.595 . S
C2635 C948 1.359 . S
C2629 C258 1.029 . S
