# Generated by pormake.
# Topology anh, (6,3)-cn, num edge types: 1
# Building blocks:
#     Node 0, Type 0, BuildingBlock: HISSIN_clean_sbu_0, # of connection points: 6
#     Node 1, Type 0, BuildingBlock: HISSIN_clean_sbu_0, # of connection points: 6
#     Node 2, Type 0, BuildingBlock: HISSIN_clean_sbu_0, # of connection points: 6
#     Node 3, Type 1, BuildingBlock: BETDAH_clean_linker_0, # of connection points: 3
#     Node 4, Type 1, BuildingBlock: BETDAH_clean_linker_0, # of connection points: 3
#     Node 5, Type 1, BuildingBlock: BETDAH_clean_linker_0, # of connection points: 3
#     Node 6, Type 1, BuildingBlock: BETDAH_clean_linker_0, # of connection points: 3
#     Node 7, Type 1, BuildingBlock: BETDAH_clean_linker_0, # of connection points: 3
#     Node 8, Type 1, BuildingBlock: BETDAH_clean_linker_0, # of connection points: 3
#     Edge 9, Type (0, 1), BuildingBlock: OJICUG_clean_linker_0, # of connection points: 2
#     Edge 10, Type (0, 1), BuildingBlock: OJICUG_clean_linker_0, # of connection points: 2
#     Edge 11, Type (0, 1), BuildingBlock: OJICUG_clean_linker_0, # of connection points: 2
#     Edge 12, Type (0, 1), BuildingBlock: OJICUG_clean_linker_0, # of connection points: 2
#     Edge 13, Type (0, 1), BuildingBlock: OJICUG_clean_linker_0, # of connection points: 2
#     Edge 14, Type (0, 1), BuildingBlock: OJICUG_clean_linker_0, # of connection points: 2
#     Edge 15, Type (0, 1), BuildingBlock: OJICUG_clean_linker_0, # of connection points: 2
#     Edge 16, Type (0, 1), BuildingBlock: OJICUG_clean_linker_0, # of connection points: 2
#     Edge 17, Type (0, 1), BuildingBlock: OJICUG_clean_linker_0, # of connection points: 2
#     Edge 18, Type (0, 1), BuildingBlock: OJICUG_clean_linker_0, # of connection points: 2
#     Edge 19, Type (0, 1), BuildingBlock: OJICUG_clean_linker_0, # of connection points: 2
#     Edge 20, Type (0, 1), BuildingBlock: OJICUG_clean_linker_0, # of connection points: 2
#     Edge 21, Type (0, 1), BuildingBlock: OJICUG_clean_linker_0, # of connection points: 2
#     Edge 22, Type (0, 1), BuildingBlock: OJICUG_clean_linker_0, # of connection points: 2
#     Edge 23, Type (0, 1), BuildingBlock: OJICUG_clean_linker_0, # of connection points: 2
#     Edge 24, Type (0, 1), BuildingBlock: OJICUG_clean_linker_0, # of connection points: 2
#     Edge 25, Type (0, 1), BuildingBlock: OJICUG_clean_linker_0, # of connection points: 2
#     Edge 26, Type (0, 1), BuildingBlock: OJICUG_clean_linker_0, # of connection points: 2
# Relax obj value: 0.366
# Max RMSD: 0.160
# Mean RMSD: 0.115
data_MOF--net-anh--node1-HISSIN_clean_sbu_0--node2-BETDAH_clean_linker_0--edge1-OJICUG_clean_linker_0
_symmetry_space_group_name_H-M    P1
_symmetry_Int_Tables_number       1
_symmetry_cell_setting            triclinic
loop_
_symmetry_equiv_pos_as_xyz
'x, y, z'
_cell_length_a     22.017375
_cell_length_b     21.746314
_cell_length_c     36.289982
_cell_angle_alpha  93.293122
_cell_angle_beta   88.055586
_cell_angle_gamma 120.19225
loop_
_atom_site_label
_atom_site_type_symbol
_atom_site_fract_x
_atom_site_fract_y
_atom_site_fract_z
_atom_type_partial_charge
Eu0 Eu 1.0973 0.61664 0.14586 0.0
Eu1 Eu 1.16677 0.78653 0.17156 0.0
C2 C 1.11868 0.67048 0.23268 0.0
C3 C 1.01296 0.40824 0.11304 0.0
C4 C 0.94214 0.36036 0.12058 0.0
C5 C 1.027 0.30985 0.08841 0.0
C6 C 0.91436 0.28759 0.11305 0.0
C7 C 1.0546 0.38294 0.09555 0.0
C8 C 0.95731 0.26141 0.09831 0.0
C9 C 1.04354 0.48366 0.1249 0.0
O10 O 0.262 0.76907 0.17007 0.0
O11 O 0.2135 0.65518 0.14396 0.0
C12 C 0.26844 0.71513 0.15567 0.0
O13 O 1.11922 0.67478 0.09338 0.0
O14 O 0.22741 0.87875 0.20889 0.0
O15 O 1.17929 0.88975 0.16041 0.0
O16 O 0.20655 0.78413 0.11455 0.0
C17 C 1.17419 0.73735 0.08762 0.0
O18 O 1.00336 0.63324 0.14376 0.0
O19 O 1.05557 0.75449 0.15449 0.0
O20 O 1.11989 0.72855 0.22354 0.0
O21 O 1.09924 0.53405 0.1093 0.0
O22 O 1.01771 0.50505 0.15237 0.0
O23 O 1.11995 0.62535 0.20731 0.0
C24 C 0.29551 0.97891 0.17438 0.0
C25 C 0.31951 0.97505 0.13837 0.0
C26 C 0.41534 1.06039 0.19322 0.0
C27 C 0.39132 1.00993 0.13055 0.0
C28 C 0.34347 1.02567 0.20098 0.0
C29 C 0.43999 1.04844 0.15875 0.0
C30 C 0.22595 0.92281 0.18636 0.0
C31 C 1.00006 0.69218 0.14598 0.0
H32 H 0.90886 0.37891 0.13357 0.0
H33 H 1.06101 0.29086 0.07697 0.0
H34 H 0.86068 0.25153 0.12137 0.0
H35 H 1.10931 0.41917 0.08913 0.0
H36 H 0.28353 0.9397 0.11716 0.0
H37 H 0.4513 1.08958 0.21568 0.0
H38 H 0.40876 1.00084 0.10357 0.0
H39 H 0.32601 1.02942 0.22887 0.0
Eu40 Eu 0.68304 1.03757 0.49959 0.0
Eu41 Eu 0.60546 1.12428 0.47827 0.0
C42 C 0.63518 1.109 0.56103 0.0
C43 C 0.81718 0.98138 0.51967 0.0
C44 C 0.85067 0.98219 0.55193 0.0
C45 C 0.91399 0.98582 0.48329 0.0
C46 C 0.91445 0.98325 0.54996 0.0
C47 C 0.85011 0.98521 0.48531 0.0
C48 C 0.946 0.98321 0.51559 0.0
C49 C 0.74724 0.97429 0.52285 0.0
O50 O 0.71842 0.20522 0.46777 0.0
O51 O 0.77196 0.1536 0.49662 0.0
C52 C 0.77505 0.20773 0.48001 0.0
O53 O 0.71208 1.05661 0.44024 0.0
O54 O 0.55149 0.18195 0.49658 0.0
O55 O 0.56224 0.16298 0.43829 0.0
O56 O 0.62552 1.07994 0.42427 0.0
C57 C 0.67561 1.06538 0.4155 0.0
O58 O 0.57545 0.95212 0.47854 0.0
O59 O 0.51643 1.01331 0.4888 0.0
O60 O 0.64661 0.15648 0.53697 0.0
O61 O 0.70814 0.95259 0.49334 0.0
O62 O 0.74381 1.02534 0.54174 0.0
O63 O 0.62264 1.04615 0.54881 0.0
C64 C 0.58352 0.27732 0.4584 0.0
C65 C 0.64054 0.31031 0.43378 0.0
C66 C 0.6149 0.39326 0.48655 0.0
C67 C 0.68628 0.38372 0.43681 0.0
C68 C 0.56882 0.31986 0.48333 0.0
C69 C 0.6763 0.42529 0.46473 0.0
C70 C 0.54872 0.20001 0.46327 0.0
C71 C 0.51626 0.95347 0.48085 0.0
H72 H 0.82624 0.97955 0.57868 0.0
H73 H 0.93714 0.98588 0.45647 0.0
H74 H 0.93673 0.97967 0.57536 0.0
H75 H 0.82564 0.98565 0.46001 0.0
H76 H 0.65319 0.27909 0.41402 0.0
H77 H 0.60564 0.42349 0.50852 0.0
H78 H 0.73235 0.40706 0.41913 0.0
H79 H 0.52515 0.29564 0.50252 0.0
Eu80 Eu 0.63098 0.62959 0.80839 0.0
Eu81 Eu 0.78952 0.69885 0.83963 0.0
C82 C 0.66424 0.6585 0.89511 0.0
C83 C 0.48885 0.63777 0.76472 0.0
C84 C 0.53916 0.69118 0.74242 0.0
C85 C 0.43547 0.71065 0.77823 0.0
C86 C 0.54121 0.75619 0.74098 0.0
C87 C 0.43338 0.64549 0.77977 0.0
C88 C 0.49331 0.76835 0.76188 0.0
C89 C 0.50761 0.59001 0.78219 0.0
O90 O 0.74778 0.57871 0.83744 0.0
O91 O 0.64889 0.53648 0.80181 0.0
C92 C 0.69634 0.52707 0.81754 0.0
O93 O 0.7065 0.6766 0.75997 0.0
O94 O 0.86385 0.7006 0.87848 0.0
O95 O 0.89953 0.78053 0.83713 0.0
O96 O 0.79394 0.66229 0.78181 0.0
C97 C 0.7639 0.67277 0.75448 0.0
O98 O 0.66761 0.74711 0.81501 0.0
O99 O 0.78688 0.79367 0.81818 0.0
O100 O 0.72553 0.71076 0.88572 0.0
O101 O 0.55298 0.57714 0.7645 0.0
O102 O 0.52302 0.60609 0.81714 0.0
O103 O 0.62441 0.60915 0.87016 0.0
C104 C 0.97404 0.73777 0.84963 0.0
C105 C 0.95951 0.6708 0.83445 0.0
C106 C 1.09764 0.78407 0.83784 0.0
C107 C 1.01447 0.66009 0.8219 0.0
C108 C 1.04308 0.7944 0.85064 0.0
C109 C 1.08425 0.71664 0.82375 0.0
C110 C 0.91772 0.75145 0.86168 0.0
C111 C 0.73202 0.80123 0.81371 0.0
H112 H 0.58254 0.68683 0.73025 0.0
H113 H 0.39803 0.71904 0.79471 0.0
H114 H 0.58584 0.79993 0.72799 0.0
H115 H 0.39409 0.60519 0.79707 0.0
H116 H 0.90594 0.62681 0.83263 0.0
H117 H 1.1508 0.82846 0.84075 0.0
H118 H 1.00271 0.60756 0.81155 0.0
H119 H 1.05493 0.84661 0.86169 0.0
H120 H 0.64364 1.06734 0.24971 0.0
H121 H 0.7857 0.9872 0.25956 0.0
H122 H 0.71051 0.99543 0.15311 0.0
C123 C 0.67653 1.04785 0.2372 0.0
C124 C 0.67565 1.03697 0.19884 0.0
C125 C 0.71583 1.03048 0.25968 0.0
C126 C 0.75375 0.9998 0.24298 0.0
C127 C 0.75317 0.98841 0.20445 0.0
C128 C 0.71295 1.00601 0.18265 0.0
N129 N 0.79682 0.96409 0.1875 0.0
C130 C 0.83463 0.99648 0.15608 0.0
H131 H 0.79984 0.63159 0.5858 0.0
H132 H 1.00601 0.77545 0.62931 0.0
H133 H 0.98158 0.70373 0.51517 0.0
C134 C 0.85606 0.66453 0.58165 0.0
C135 C 0.8853 0.66337 0.54686 0.0
C136 C 0.89878 0.70404 0.61171 0.0
C137 C 0.97216 0.74313 0.60665 0.0
C138 C 1.00193 0.74332 0.57185 0.0
C139 C 0.9584 0.70317 0.54207 0.0
N140 N 1.07427 0.79099 0.56567 0.0
C141 C 1.09107 0.84974 0.54555 0.0
H142 H 0.23373 0.7113 0.92147 0.0
H143 H 0.41198 0.90095 0.96585 0.0
H144 H 0.40547 0.83866 0.85077 0.0
C145 C 0.28672 0.75495 0.9177 0.0
C146 C 0.31613 0.76919 0.88214 0.0
C147 C 0.32108 0.80079 0.94821 0.0
C148 C 0.38573 0.86351 0.94288 0.0
C149 C 0.41647 0.87873 0.9077 0.0
C150 C 0.38277 0.82909 0.87796 0.0
N151 N 0.47853 0.94561 0.90227 0.0
C152 C 0.51351 0.9598 0.86851 0.0
H153 H 0.26011 0.74828 0.38402 0.0
H154 H 1.07688 0.54122 0.39776 0.0
H155 H 0.22813 0.64334 0.48537 0.0
C156 C 0.22829 0.70304 0.4008 0.0
C157 C 0.25148 0.70275 0.43627 0.0
C158 C 1.16569 0.64492 0.38638 0.0
C159 C 1.12524 0.58592 0.40847 0.0
C160 C 1.14729 0.58546 0.44451 0.0
C161 C 0.21076 0.64376 0.45784 0.0
N162 N 1.10833 0.52807 0.46841 0.0
C163 C 1.04226 0.46753 0.46234 0.0
H164 H 0.66735 0.27258 0.71695 0.0
H165 H 0.71044 1.1021 0.7299 0.0
H166 H 0.73313 0.2456 0.82194 0.0
C167 C 0.68314 0.24383 0.734 0.0
C168 C 0.69987 0.26682 0.77124 0.0
C169 C 0.68723 0.18501 0.71837 0.0
C170 C 0.7064 0.14703 0.7413 0.0
C171 C 0.72284 0.16872 0.77875 0.0
C172 C 0.72027 0.22899 0.79318 0.0
N173 N 0.74372 1.13308 0.8029 0.0
C174 C 0.74335 1.06883 0.79601 0.0
H175 H 0.74972 0.65426 0.04845 0.0
H176 H 0.57994 0.69695 0.06829 0.0
H177 H 0.71652 0.72208 0.15729 0.0
C178 C 0.71926 0.66842 0.06753 0.0
C179 C 0.74045 0.68672 0.10468 0.0
C180 C 0.66225 0.67285 0.05399 0.0
C181 C 0.62359 0.69329 0.07855 0.0
C182 C 0.64211 0.71004 0.11613 0.0
C183 C 0.70139 0.70791 0.1286 0.0
N184 N 0.60456 0.73129 0.1421 0.0
C185 C 0.54006 0.72877 0.13737 0.0
C186 C 0.40238 0.78105 0.16363 0.0
C187 C 0.33971 0.72104 0.15065 0.0
H188 H 0.51472 0.83013 0.16982 0.0
C189 C 0.34548 0.66532 0.13182 0.0
H190 H 0.40083 0.82524 0.17806 0.0
C191 C 0.41079 0.66881 0.12661 0.0
C192 C 0.47281 0.72806 0.14 0.0
H193 H 0.29916 0.61823 0.12104 0.0
H194 H 0.41255 0.62443 0.11252 0.0
C195 C 0.4679 0.78418 0.1586 0.0
C196 C 0.90782 0.27924 0.48499 0.0
C197 C 0.84439 0.27416 0.47455 0.0
H198 H 1.02024 0.34459 0.48882 0.0
C199 C 0.84785 0.33359 0.4585 0.0
H200 H 0.90763 0.23495 0.49732 0.0
C201 C 0.91257 0.39627 0.45351 0.0
C202 C 0.97539 0.40097 0.46423 0.0
H203 H 0.80041 0.33212 0.45006 0.0
H204 H 0.91336 0.44136 0.44177 0.0
C205 C 0.97245 0.34192 0.47991 0.0
C206 C 0.76651 0.92581 0.83593 0.0
C207 C 0.74233 0.87281 0.80738 0.0
H208 H 0.78517 1.02952 0.85442 0.0
C209 C 0.72292 0.887 0.77369 0.0
H210 H 0.78158 0.9162 0.86216 0.0
C211 C 0.72493 0.95195 0.76919 0.0
C212 C 0.74646 1.00367 0.79838 0.0
H213 H 0.70455 0.84705 0.7512 0.0
H214 H 0.70771 0.96076 0.74341 0.0
C215 C 0.76834 0.99045 0.83149 0.0
C216 C 0.9198 0.74529 0.1482 0.0
C217 C 0.9317 0.68881 0.13739 0.0
H218 H 0.85086 0.78863 0.14718 0.0
C219 C 0.87835 0.63021 0.11712 0.0
H220 H 0.95918 0.79134 0.16386 0.0
C221 C 0.81644 0.62916 0.10709 0.0
C222 C 0.80484 0.68598 0.11757 0.0
H223 H 0.88509 0.58564 0.10813 0.0
H224 H 0.77747 0.58362 0.09094 0.0
C225 C 0.85722 0.74358 0.13878 0.0
C226 C 0.38396 0.88761 0.47495 0.0
C227 C 0.44774 0.88703 0.47227 0.0
H228 H 0.27233 0.82991 0.46575 0.0
C229 C 0.44536 0.82349 0.45928 0.0
H230 H 0.38328 0.93522 0.4848 0.0
C231 C 0.38139 0.76301 0.44855 0.0
C232 C 0.31835 0.76461 0.45049 0.0
H233 H 0.49315 0.82086 0.45657 0.0
H234 H 0.38139 0.71546 0.43788 0.0
C235 C 0.32021 0.82729 0.46407 0.0
C236 C 0.63933 0.40266 0.78846 0.0
C237 C 0.69426 0.45752 0.80969 0.0
H238 H 0.59744 0.3002 0.7604 0.0
C239 C 0.74903 0.44675 0.82044 0.0
H240 H 0.59588 0.40825 0.77972 0.0
C241 C 0.7499 0.38407 0.80913 0.0
C242 C 0.69628 0.33069 0.78658 0.0
H243 H 0.79242 0.48765 0.83664 0.0
H244 H 0.794 0.37867 0.81689 0.0
C245 C 0.64037 0.34048 0.7771 0.0
C246 C 1.05637 0.99699 0.54153 0.0
C247 C 1.00472 0.96824 0.5139 0.0
H248 H 1.12725 0.98085 0.57313 0.0
C249 C 0.99989 0.91272 0.49001 0.0
H250 H 1.06208 1.0406 0.55992 0.0
C251 C 1.03823 0.87962 0.49722 0.0
C252 C 1.08171 0.90191 0.52819 0.0
H253 H 0.96055 0.88918 0.46854 0.0
H254 H 1.02717 0.83136 0.48134 0.0
C255 C 1.09435 0.9635 0.54884 0.0
C256 C 0.20821 0.76011 0.80492 0.0
C257 C 1.14445 0.70462 0.81806 0.0
H258 H 0.31704 0.82576 0.81559 0.0
C259 C 1.14599 0.65198 0.83801 0.0
H260 H 0.20849 0.79936 0.7877 0.0
C261 C 0.20935 0.66553 0.85304 0.0
C262 C 0.2697 0.733 0.84954 0.0
H263 H 1.09777 0.60657 0.84722 0.0
H264 H 0.20796 0.62908 0.87264 0.0
C265 C 0.27101 0.77502 0.82103 0.0
C266 C 0.5208 1.00182 0.14316 0.0
C267 C 0.51195 1.05917 0.15612 0.0
H268 H 0.58142 0.95045 0.14635 0.0
C269 C 0.5677 1.11784 0.17469 0.0
H270 H 0.47893 0.95557 0.12879 0.0
C271 C 0.62621 1.11426 0.18509 0.0
C272 C 0.62968 1.05211 0.17693 0.0
H273 H 0.56298 0.16336 0.18429 0.0
H274 H 0.66551 0.15724 0.20243 0.0
C275 C 0.57947 0.99847 0.15343 0.0
C276 C 0.7218 0.55012 0.4908 0.0
C277 C 0.73506 0.49676 0.47614 0.0
H278 H 0.76034 0.64649 0.52439 0.0
C279 C 0.80332 0.50721 0.47873 0.0
H280 H 0.67019 0.54428 0.48863 0.0
C281 C 0.85487 0.56578 0.49895 0.0
C282 C 0.83897 0.61469 0.51709 0.0
H283 H 0.81533 0.46696 0.46811 0.0
H284 H 0.90493 0.56905 0.50315 0.0
C285 C 0.77334 0.60858 0.51118 0.0
C286 C 0.56903 0.86204 0.80696 0.0
C287 C 0.518 0.83963 0.77941 0.0
H288 H 0.61137 0.92448 0.85682 0.0
C289 C 0.48113 0.87607 0.7762 0.0
H290 H 0.59558 0.83245 0.81094 0.0
C291 C 0.4906 0.92967 0.8027 0.0
C292 C 0.53487 0.94458 0.83299 0.0
H293 H 0.44045 0.85849 0.75564 0.0
H294 H 0.45546 0.95098 0.8026 0.0
C295 C 0.5782 0.91495 0.83328 0.0
C296 C 0.86441 1.13283 0.09111 0.0
C297 C 0.93335 0.18495 0.10089 0.0
H298 H 0.77914 1.02758 0.09981 0.0
C299 C 0.97404 0.16552 0.12104 0.0
H300 H 0.83214 0.14643 0.07543 0.0
C301 C 0.94335 1.09816 0.13549 0.0
C302 C 0.87221 1.04931 0.12935 0.0
H303 H 1.02709 0.20478 0.12927 0.0
H304 H 0.97316 1.08724 0.1546 0.0
C305 C 0.83418 1.06496 0.10505 0.0
C306 C 0.2058 0.69819 0.02801 0.0
C307 C 0.20711 0.75289 0.05093 0.0
H308 H 0.24415 0.67096 0.97862 0.0
C309 C 0.24738 0.82372 0.04052 0.0
H310 H 1.17663 0.64334 0.03593 0.0
C311 C 0.28544 0.83968 0.0075 0.0
C312 C 0.28481 0.7851 0.98457 0.0
H313 H 0.2494 0.86684 0.05794 0.0
H314 H 0.31431 0.89458 -0.00028 0.0
C315 C 0.24492 0.71421 -0.00464 0.0
C316 C 0.70267 1.0036 0.36289 0.0
C317 C 0.69163 1.05907 0.37636 0.0
H318 H 0.71735 0.94968 0.31515 0.0
C319 C 0.6957 1.10873 0.35213 0.0
H320 H 0.70021 0.965 0.38137 0.0
C321 C 0.70854 1.10197 0.3147 0.0
C322 C 0.71455 1.04356 0.30037 0.0
H323 H 0.68912 0.15295 0.36217 0.0
H324 H 0.71209 0.14189 0.29685 0.0
C325 C 0.71318 0.99533 0.32508 0.0
C326 C 0.86192 0.68249 0.71401 0.0
C327 C 0.79826 0.683 0.71781 0.0
H328 H 0.94327 0.68884 0.67779 0.0
C329 C 0.7695 0.69402 0.68666 0.0
H330 H 0.88598 0.67447 0.73743 0.0
C331 C 0.80312 0.70286 0.6523 0.0
C332 C 0.86614 0.70103 0.64852 0.0
H333 H 0.72095 0.6953 0.68874 0.0
H334 H 0.77963 0.7108 0.62861 0.0
C335 C 0.89543 0.69149 0.67985 0.0
C336 C 0.6256 1.0751 0.62711 0.0
C337 C 0.64511 1.12806 0.60134 0.0
H338 H 0.62204 1.05082 0.68386 0.0
C339 C 0.67814 0.19957 0.61435 0.0
H340 H 0.60008 1.01938 0.61808 0.0
C341 C 0.69218 0.21776 0.65202 0.0
C342 C 0.67265 0.16492 0.67799 0.0
H343 H 0.69482 0.24183 0.59531 0.0
H344 H 0.71972 0.27369 0.66062 0.0
C345 C 0.63887 1.09322 0.6649 0.0
C346 C 0.6511 0.71354 0.95489 0.0
C347 C 0.64607 0.65371 0.93502 0.0
H348 H 0.6579 0.76541 0.00803 0.0
C349 C 0.63833 0.59642 0.95474 0.0
H350 H 0.6584 0.75899 0.94038 0.0
C351 C 0.64015 0.60097 -0.00643 0.0
C352 C 0.64807 0.66219 0.01343 0.0
H353 H 0.63601 0.5504 0.94016 0.0
H354 H 0.63811 0.55779 0.00808 0.0
C355 C 0.65097 0.71729 -0.00638 0.0
C356 C 1.13512 0.71447 0.29927 0.0
C357 C 1.12221 0.65953 0.27268 0.0
H358 H 1.15832 0.7526 0.35572 0.0
C359 C 1.11767 0.59681 0.2846 0.0
H360 H 1.13893 0.76358 0.29137 0.0
C361 C 1.12824 0.59037 0.32188 0.0
C362 C 1.14454 0.64686 0.34796 0.0
H363 H 1.10769 0.55333 0.265 0.0
H364 H 1.12675 0.54246 0.32998 0.0
C365 C 1.14649 0.70836 0.33628 0.0
loop_
_geom_bond_atom_site_label_1
_geom_bond_atom_site_label_2
_geom_bond_distance
_geom_bond_site_symmetry_2
_ccdc_geom_bond_type
Eu0 C9 2.828 . S
Eu0 O11 2.392 1_655 S
Eu0 O13 2.418 . S
Eu0 O18 2.373 . S
Eu0 O21 2.488 . S
Eu0 O22 2.471 . S
Eu0 O23 2.349 . S
Eu1 O10 2.373 . S
Eu1 O14 2.488 . S
Eu1 O15 2.471 . S
Eu1 O16 2.349 . S
Eu1 O19 2.392 1_455 S
Eu1 O20 2.418 . S
Eu1 C30 2.828 . S
C2 O20 1.244 . S
C2 O23 1.265 1_455 S
C3 C4 1.379 . S
C3 C7 1.373 . S
C3 C9 1.505 . S
C4 C3 1.379 . S
C4 C6 1.369 . S
C4 H32 0.930 . S
C5 C7 1.383 . S
C5 C8 1.382 . S
C5 H33 0.930 . S
C6 C4 1.369 . S
C6 C8 1.392 . S
C6 H34 0.930 . S
C7 C3 1.373 . S
C7 C5 1.383 . S
C7 H35 0.931 . S
C8 C5 1.382 . S
C8 C6 1.392 . S
C9 Eu0 2.828 . S
C9 C3 1.505 . S
C9 O21 1.249 . S
C9 O22 1.244 . S
O10 Eu1 2.373 . S
O10 C12 1.258 . S
O11 Eu0 2.392 1_455 S
O11 C12 1.242 . S
C12 O10 1.258 . S
C12 O11 1.242 . S
O13 Eu0 2.418 . S
O13 C17 1.244 1_655 S
O14 Eu1 2.488 . S
O14 C30 1.249 . S
O15 Eu1 2.471 . S
O15 C30 1.244 . S
O16 Eu1 2.349 . S
O16 C17 1.265 . S
C17 O13 1.244 1_455 S
C17 O16 1.265 . S
O18 Eu0 2.373 . S
O18 C31 1.258 . S
O19 Eu1 2.392 1_655 S
O19 C31 1.242 . S
O20 Eu1 2.418 . S
O20 C2 1.244 . S
O21 Eu0 2.488 . S
O21 C9 1.249 . S
O22 Eu0 2.471 . S
O22 C9 1.244 . S
O23 Eu0 2.349 . S
O23 C2 1.265 1_655 S
C24 C25 1.379 . S
C24 C28 1.373 . S
C24 C30 1.505 . S
C25 C24 1.379 . S
C25 C27 1.369 . S
C25 H36 0.930 . S
C26 C28 1.383 . S
C26 C29 1.382 . S
C26 H37 0.930 . S
C27 C25 1.369 . S
C27 C29 1.392 . S
C27 H38 0.930 . S
C28 C24 1.373 . S
C28 C26 1.383 . S
C28 H39 0.931 . S
C29 C26 1.382 . S
C29 C27 1.392 . S
C30 Eu1 2.828 . S
C30 O14 1.249 . S
C30 O15 1.244 . S
C30 C24 1.505 . S
C31 O18 1.258 . S
C31 O19 1.242 . S
H32 C4 0.930 . S
H33 C5 0.930 . S
H34 C6 0.930 . S
H35 C7 0.931 . S
H36 C25 0.930 . S
H37 C26 0.930 . S
H38 C27 0.930 . S
H39 C28 0.931 . S
Eu40 C49 2.828 . S
Eu40 O51 2.392 1_565 S
Eu40 O53 2.418 . S
Eu40 O58 2.373 . S
Eu40 O61 2.488 . S
Eu40 O62 2.471 . S
Eu40 O63 2.349 1_565 S
Eu41 O50 2.373 . S
Eu41 O54 2.488 . S
Eu41 O55 2.471 . S
Eu41 O56 2.349 . S
Eu41 O59 2.392 1_545 S
Eu41 O60 2.418 . S
Eu41 C70 2.828 . S
C42 O60 1.244 . S
C42 O63 1.265 . S
C43 C44 1.379 . S
C43 C47 1.373 . S
C43 C49 1.505 . S
C44 C43 1.379 . S
C44 C46 1.369 . S
C44 H72 0.930 . S
C45 C47 1.383 . S
C45 C48 1.382 . S
C45 H73 0.930 . S
C46 C44 1.369 . S
C46 C48 1.392 . S
C46 H74 0.930 . S
C47 C43 1.373 . S
C47 C45 1.383 . S
C47 H75 0.931 . S
C48 C45 1.382 . S
C48 C46 1.392 . S
C49 Eu40 2.828 . S
C49 C43 1.505 . S
C49 O61 1.249 . S
C49 O62 1.244 . S
O50 Eu41 2.373 . S
O50 C52 1.258 . S
O51 Eu40 2.392 1_545 S
O51 C52 1.242 . S
C52 O50 1.258 . S
C52 O51 1.242 . S
O53 Eu40 2.418 . S
O53 C57 1.244 1_565 S
O54 Eu41 2.488 . S
O54 C70 1.249 . S
O55 Eu41 2.471 . S
O55 C70 1.244 . S
O56 Eu41 2.349 . S
O56 C57 1.265 . S
C57 O53 1.244 1_545 S
C57 O56 1.265 . S
O58 Eu40 2.373 . S
O58 C71 1.258 . S
O59 Eu41 2.392 1_565 S
O59 C71 1.242 . S
O60 Eu41 2.418 . S
O60 C42 1.244 . S
O61 Eu40 2.488 . S
O61 C49 1.249 . S
O62 Eu40 2.471 . S
O62 C49 1.244 . S
O63 Eu40 2.349 1_545 S
O63 C42 1.265 . S
C64 C65 1.379 . S
C64 C68 1.373 . S
C64 C70 1.505 . S
C65 C64 1.379 . S
C65 C67 1.369 . S
C65 H76 0.930 . S
C66 C68 1.383 . S
C66 C69 1.382 . S
C66 H77 0.930 . S
C67 C65 1.369 . S
C67 C69 1.392 . S
C67 H78 0.930 . S
C68 C64 1.373 . S
C68 C66 1.383 . S
C68 H79 0.931 . S
C69 C66 1.382 . S
C69 C67 1.392 . S
C70 Eu41 2.828 . S
C70 O54 1.249 . S
C70 O55 1.244 . S
C70 C64 1.505 . S
C71 O58 1.258 . S
C71 O59 1.242 . S
H72 C44 0.930 . S
H73 C45 0.930 . S
H74 C46 0.930 . S
H75 C47 0.931 . S
H76 C65 0.930 . S
H77 C66 0.930 . S
H78 C67 0.930 . S
H79 C68 0.931 . S
Eu80 C89 2.828 . S
Eu80 O91 2.392 . S
Eu80 O93 2.418 . S
Eu80 O98 2.373 . S
Eu80 O101 2.488 . S
Eu80 O102 2.471 . S
Eu80 O103 2.349 . S
Eu81 O90 2.373 . S
Eu81 O94 2.488 . S
Eu81 O95 2.471 . S
Eu81 O96 2.349 . S
Eu81 O99 2.392 . S
Eu81 O100 2.418 . S
Eu81 C110 2.828 . S
C82 O100 1.244 . S
C82 O103 1.265 . S
C83 C84 1.379 . S
C83 C87 1.373 . S
C83 C89 1.505 . S
C84 C83 1.379 . S
C84 C86 1.369 . S
C84 H112 0.930 . S
C85 C87 1.383 . S
C85 C88 1.382 . S
C85 H113 0.930 . S
C86 C84 1.369 . S
C86 C88 1.392 . S
C86 H114 0.930 . S
C87 C83 1.373 . S
C87 C85 1.383 . S
C87 H115 0.931 . S
C88 C85 1.382 . S
C88 C86 1.392 . S
C89 Eu80 2.828 . S
C89 C83 1.505 . S
C89 O101 1.249 . S
C89 O102 1.244 . S
O90 Eu81 2.373 . S
O90 C92 1.258 . S
O91 Eu80 2.392 . S
O91 C92 1.242 . S
C92 O90 1.258 . S
C92 O91 1.242 . S
O93 Eu80 2.418 . S
O93 C97 1.244 . S
O94 Eu81 2.488 . S
O94 C110 1.249 . S
O95 Eu81 2.471 . S
O95 C110 1.244 . S
O96 Eu81 2.349 . S
O96 C97 1.265 . S
C97 O93 1.244 . S
C97 O96 1.265 . S
O98 Eu80 2.373 . S
O98 C111 1.258 . S
O99 Eu81 2.392 . S
O99 C111 1.242 . S
O100 Eu81 2.418 . S
O100 C82 1.244 . S
O101 Eu80 2.488 . S
O101 C89 1.249 . S
O102 Eu80 2.471 . S
O102 C89 1.244 . S
O103 Eu80 2.349 . S
O103 C82 1.265 . S
C104 C105 1.379 . S
C104 C108 1.373 . S
C104 C110 1.505 . S
C105 C104 1.379 . S
C105 C107 1.369 . S
C105 H116 0.930 . S
C106 C108 1.383 . S
C106 C109 1.382 . S
C106 H117 0.930 . S
C107 C105 1.369 . S
C107 C109 1.392 . S
C107 H118 0.930 . S
C108 C104 1.373 . S
C108 C106 1.383 . S
C108 H119 0.931 . S
C109 C106 1.382 . S
C109 C107 1.392 . S
C110 Eu81 2.828 . S
C110 O94 1.249 . S
C110 O95 1.244 . S
C110 C104 1.505 . S
C111 O98 1.258 . S
C111 O99 1.242 . S
H112 C84 0.930 . S
H113 C85 0.930 . S
H114 C86 0.930 . S
H115 C87 0.931 . S
H116 C105 0.930 . S
H117 C106 0.930 . S
H118 C107 0.930 . S
H119 C108 0.931 . S
H120 C123 0.929 . S
H121 C126 0.929 . S
H122 C128 0.931 . S
C123 H120 0.929 . S
C123 C124 1.398 . S
C123 C125 1.396 1_565 S
C124 C123 1.398 . S
C124 C128 1.407 1_565 S
C125 C123 1.396 1_545 S
C125 C126 1.394 . S
C126 H121 0.929 . S
C126 C125 1.394 . S
C126 C127 1.382 . S
C127 C126 1.382 . S
C127 C128 1.392 . S
C127 N129 1.420 . S
C128 H122 0.931 . S
C128 C124 1.407 1_545 S
C128 C127 1.392 . S
N129 C127 1.420 . S
N129 C130 1.244 . S
C130 N129 1.244 . S
H131 C134 0.929 . S
H132 C137 0.929 . S
H133 C139 0.930 . S
C134 H131 0.929 . S
C134 C135 1.398 . S
C134 C136 1.396 . S
C135 C134 1.398 . S
C135 C139 1.407 . S
C136 C134 1.396 . S
C136 C137 1.394 . S
C137 H132 0.929 . S
C137 C136 1.394 . S
C137 C138 1.382 . S
C138 C137 1.382 . S
C138 C139 1.392 . S
C138 N140 1.420 . S
C139 H133 0.930 . S
C139 C135 1.407 . S
C139 C138 1.392 . S
N140 C138 1.420 . S
N140 C141 1.244 . S
C141 N140 1.244 . S
H142 C145 0.929 . S
H143 C148 0.929 . S
H144 C150 0.930 . S
C145 H142 0.929 . S
C145 C146 1.398 . S
C145 C147 1.396 1_655 S
C146 C145 1.398 . S
C146 C150 1.407 1_655 S
C147 C145 1.396 1_455 S
C147 C148 1.394 . S
C148 H143 0.929 . S
C148 C147 1.394 . S
C148 C149 1.382 . S
C149 C148 1.382 . S
C149 C150 1.392 . S
C149 N151 1.420 . S
C150 H144 0.930 . S
C150 C146 1.407 1_455 S
C150 C149 1.392 . S
N151 C149 1.420 . S
N151 C152 1.244 . S
C152 N151 1.244 . S
H153 C156 0.929 . S
H154 C159 0.929 . S
H155 C161 0.930 . S
C156 H153 0.929 . S
C156 C157 1.398 . S
C156 C158 1.396 . S
C157 C156 1.398 . S
C157 C161 1.407 . S
C158 C156 1.396 . S
C158 C159 1.394 1_455 S
C159 H154 0.929 . S
C159 C158 1.394 1_655 S
C159 C160 1.382 1_655 S
C160 C159 1.382 1_455 S
C160 C161 1.392 . S
C160 N162 1.420 1_455 S
C161 H155 0.930 . S
C161 C157 1.407 . S
C161 C160 1.392 . S
N162 C160 1.420 1_655 S
N162 C163 1.244 . S
C163 N162 1.244 . S
H164 C167 0.929 . S
H165 C170 0.929 1_565 S
H166 C172 0.930 . S
C167 H164 0.929 . S
C167 C168 1.398 . S
C167 C169 1.396 . S
C168 C167 1.398 . S
C168 C172 1.407 . S
C169 C167 1.396 . S
C169 C170 1.394 . S
C170 H165 0.929 1_545 S
C170 C169 1.394 . S
C170 C171 1.382 . S
C171 C170 1.382 . S
C171 C172 1.392 . S
C171 N173 1.420 1_545 S
C172 H166 0.930 . S
C172 C168 1.407 . S
C172 C171 1.392 . S
N173 C171 1.420 1_565 S
N173 C174 1.244 . S
C174 N173 1.244 . S
H175 C178 0.929 . S
H176 C181 0.929 . S
H177 C183 0.930 . S
C178 H175 0.929 . S
C178 C179 1.398 . S
C178 C180 1.396 . S
C179 C178 1.398 . S
C179 C183 1.407 . S
C180 C178 1.396 . S
C180 C181 1.394 . S
C181 H176 0.929 . S
C181 C180 1.394 . S
C181 C182 1.382 . S
C182 C181 1.382 . S
C182 C183 1.392 . S
C182 N184 1.420 . S
C183 H177 0.930 . S
C183 C179 1.407 . S
C183 C182 1.392 . S
N184 C182 1.420 . S
N184 C185 1.244 . S
C185 N184 1.244 . S
C186 C187 1.387 . S
C186 H190 0.950 . S
C186 C195 1.390 . S
C187 C186 1.387 . S
C187 C189 1.387 . S
H188 C195 0.950 . S
C189 C187 1.387 . S
C189 C191 1.390 . S
C189 H193 0.950 . S
H190 C186 0.950 . S
C191 C189 1.390 . S
C191 C192 1.387 . S
C191 H194 0.950 . S
C192 C191 1.387 . S
C192 C195 1.387 . S
H193 C189 0.950 . S
H194 C191 0.950 . S
C195 C186 1.390 . S
C195 H188 0.950 . S
C195 C192 1.387 . S
C196 C197 1.387 . S
C196 H200 0.950 . S
C196 C205 1.390 . S
C197 C196 1.387 . S
C197 C199 1.387 . S
H198 C205 0.950 . S
C199 C197 1.387 . S
C199 C201 1.390 . S
C199 H203 0.950 . S
H200 C196 0.950 . S
C201 C199 1.390 . S
C201 C202 1.387 . S
C201 H204 0.950 . S
C202 C201 1.387 . S
C202 C205 1.387 . S
H203 C199 0.950 . S
H204 C201 0.950 . S
C205 C196 1.390 . S
C205 H198 0.950 . S
C205 C202 1.387 . S
C206 C207 1.387 . S
C206 H210 0.950 . S
C206 C215 1.390 . S
C207 C206 1.387 . S
C207 C209 1.387 . S
H208 C215 0.950 . S
C209 C207 1.387 . S
C209 C211 1.390 . S
C209 H213 0.950 . S
H210 C206 0.950 . S
C211 C209 1.390 . S
C211 C212 1.387 . S
C211 H214 0.950 . S
C212 C211 1.387 . S
C212 C215 1.387 . S
H213 C209 0.950 . S
H214 C211 0.950 . S
C215 C206 1.390 . S
C215 H208 0.950 . S
C215 C212 1.387 . S
C216 C217 1.387 . S
C216 H220 0.950 . S
C216 C225 1.390 . S
C217 C216 1.387 . S
C217 C219 1.387 . S
H218 C225 0.950 . S
C219 C217 1.387 . S
C219 C221 1.390 . S
C219 H223 0.950 . S
H220 C216 0.950 . S
C221 C219 1.390 . S
C221 C222 1.387 . S
C221 H224 0.950 . S
C222 C221 1.387 . S
C222 C225 1.387 . S
H223 C219 0.950 . S
H224 C221 0.950 . S
C225 C216 1.390 . S
C225 H218 0.950 . S
C225 C222 1.387 . S
C226 C227 1.387 . S
C226 H230 0.950 . S
C226 C235 1.390 . S
C227 C226 1.387 . S
C227 C229 1.387 . S
H228 C235 0.950 . S
C229 C227 1.387 . S
C229 C231 1.390 . S
C229 H233 0.950 . S
H230 C226 0.950 . S
C231 C229 1.390 . S
C231 C232 1.387 . S
C231 H234 0.950 . S
C232 C231 1.387 . S
C232 C235 1.387 . S
H233 C229 0.950 . S
H234 C231 0.950 . S
C235 C226 1.390 . S
C235 H228 0.950 . S
C235 C232 1.387 . S
C236 C237 1.387 . S
C236 H240 0.950 . S
C236 C245 1.390 . S
C237 C236 1.387 . S
C237 C239 1.387 . S
H238 C245 0.950 . S
C239 C237 1.387 . S
C239 C241 1.390 . S
C239 H243 0.950 . S
H240 C236 0.950 . S
C241 C239 1.390 . S
C241 C242 1.387 . S
C241 H244 0.950 . S
C242 C241 1.387 . S
C242 C245 1.387 . S
H243 C239 0.950 . S
H244 C241 0.950 . S
C245 C236 1.390 . S
C245 H238 0.950 . S
C245 C242 1.387 . S
C246 C247 1.387 . S
C246 H250 0.950 . S
C246 C255 1.390 . S
C247 C246 1.387 . S
C247 C249 1.387 . S
H248 C255 0.950 . S
C249 C247 1.387 . S
C249 C251 1.390 . S
C249 H253 0.950 . S
H250 C246 0.950 . S
C251 C249 1.390 . S
C251 C252 1.387 . S
C251 H254 0.950 . S
C252 C251 1.387 . S
C252 C255 1.387 . S
H253 C249 0.950 . S
H254 C251 0.950 . S
C255 C246 1.390 . S
C255 H248 0.950 . S
C255 C252 1.387 . S
C256 C257 1.387 . S
C256 H260 0.950 . S
C256 C265 1.390 . S
C257 C256 1.387 . S
C257 C259 1.387 . S
H258 C265 0.950 1_455 S
C259 C257 1.387 . S
C259 C261 1.390 . S
C259 H263 0.950 . S
H260 C256 0.950 . S
C261 C259 1.390 . S
C261 C262 1.387 . S
C261 H264 0.950 . S
C262 C261 1.387 . S
C262 C265 1.387 . S
H263 C259 0.950 . S
H264 C261 0.950 . S
C265 C256 1.390 . S
C265 H258 0.950 1_655 S
C265 C262 1.387 . S
C266 C267 1.387 . S
C266 H270 0.950 . S
C266 C275 1.390 . S
C267 C266 1.387 . S
C267 C269 1.387 . S
H268 C275 0.950 . S
C269 C267 1.387 . S
C269 C271 1.390 . S
C269 H273 0.950 . S
H270 C266 0.950 . S
C271 C269 1.390 . S
C271 C272 1.387 . S
C271 H274 0.950 1_565 S
C272 C271 1.387 . S
C272 C275 1.387 . S
H273 C269 0.950 . S
H274 C271 0.950 1_545 S
C275 C266 1.390 . S
C275 H268 0.950 . S
C275 C272 1.387 . S
C276 C277 1.387 . S
C276 H280 0.950 . S
C276 C285 1.390 . S
C277 C276 1.387 . S
C277 C279 1.387 . S
H278 C285 0.950 . S
C279 C277 1.387 . S
C279 C281 1.390 . S
C279 H283 0.950 . S
H280 C276 0.950 . S
C281 C279 1.390 . S
C281 C282 1.387 . S
C281 H284 0.950 . S
C282 C281 1.387 . S
C282 C285 1.387 . S
H283 C279 0.950 . S
H284 C281 0.950 . S
C285 C276 1.390 . S
C285 H278 0.950 . S
C285 C282 1.387 . S
C286 C287 1.387 . S
C286 H290 0.950 . S
C286 C295 1.390 . S
C287 C286 1.387 . S
C287 C289 1.387 . S
H288 C295 0.950 . S
C289 C287 1.387 . S
C289 C291 1.390 . S
C289 H293 0.950 . S
H290 C286 0.950 . S
C291 C289 1.390 . S
C291 C292 1.387 . S
C291 H294 0.950 . S
C292 C291 1.387 . S
C292 C295 1.387 . S
H293 C289 0.950 . S
H294 C291 0.950 . S
C295 C286 1.390 . S
C295 H288 0.950 . S
C295 C292 1.387 . S
C296 C297 1.387 . S
C296 H300 0.950 . S
C296 C305 1.390 . S
C297 C296 1.387 . S
C297 C299 1.387 . S
H298 C305 0.950 . S
C299 C297 1.387 . S
C299 C301 1.390 . S
C299 H303 0.950 . S
H300 C296 0.950 . S
C301 C299 1.390 . S
C301 C302 1.387 . S
C301 H304 0.950 . S
C302 C301 1.387 . S
C302 C305 1.387 . S
H303 C299 0.950 . S
H304 C301 0.950 . S
C305 C296 1.390 . S
C305 H298 0.950 . S
C305 C302 1.387 . S
C306 C307 1.387 1_655 S
C306 H310 0.950 . S
C306 C315 1.390 1_654 S
C307 C306 1.387 1_455 S
C307 C309 1.387 . S
H308 C315 0.950 1_655 S
C309 C307 1.387 . S
C309 C311 1.390 . S
C309 H313 0.950 . S
H310 C306 0.950 . S
C311 C309 1.390 . S
C311 C312 1.387 1_554 S
C311 H314 0.950 1_554 S
C312 C311 1.387 1_556 S
C312 C315 1.387 . S
H313 C309 0.950 . S
H314 C311 0.950 1_556 S
C315 C306 1.390 1_456 S
C315 H308 0.950 1_455 S
C315 C312 1.387 . S
C316 C317 1.387 . S
C316 H320 0.950 . S
C316 C325 1.390 . S
C317 C316 1.387 . S
C317 C319 1.387 . S
H318 C325 0.950 . S
C319 C317 1.387 . S
C319 C321 1.390 . S
C319 H323 0.950 . S
H320 C316 0.950 . S
C321 C319 1.390 . S
C321 C322 1.387 . S
C321 H324 0.950 . S
C322 C321 1.387 . S
C322 C325 1.387 . S
H323 C319 0.950 . S
H324 C321 0.950 . S
C325 C316 1.390 . S
C325 H318 0.950 . S
C325 C322 1.387 . S
C326 C327 1.387 . S
C326 H330 0.950 . S
C326 C335 1.390 . S
C327 C326 1.387 . S
C327 C329 1.387 . S
H328 C335 0.950 . S
C329 C327 1.387 . S
C329 C331 1.390 . S
C329 H333 0.950 . S
H330 C326 0.950 . S
C331 C329 1.390 . S
C331 C332 1.387 . S
C331 H334 0.950 . S
C332 C331 1.387 . S
C332 C335 1.387 . S
H333 C329 0.950 . S
H334 C331 0.950 . S
C335 C326 1.390 . S
C335 H328 0.950 . S
C335 C332 1.387 . S
C336 C337 1.387 1_565 S
C336 H340 0.950 . S
C336 C345 1.390 . S
C337 C336 1.387 1_545 S
C337 C339 1.387 . S
H338 C345 0.950 . S
C339 C337 1.387 . S
C339 C341 1.390 . S
C339 H343 0.950 . S
H340 C336 0.950 . S
C341 C339 1.390 . S
C341 C342 1.387 . S
C341 H344 0.950 . S
C342 C341 1.387 . S
C342 C345 1.387 1_545 S
H343 C339 0.950 . S
H344 C341 0.950 . S
C345 C336 1.390 . S
C345 H338 0.950 . S
C345 C342 1.387 1_565 S
C346 C347 1.387 . S
C346 H350 0.950 . S
C346 C355 1.390 . S
C347 C346 1.387 . S
C347 C349 1.387 . S
H348 C355 0.950 1_554 S
C349 C347 1.387 . S
C349 C351 1.390 1_556 S
C349 H353 0.950 . S
H350 C346 0.950 . S
C351 C349 1.390 1_554 S
C351 C352 1.387 . S
C351 H354 0.950 . S
C352 C351 1.387 . S
C352 C355 1.387 1_554 S
H353 C349 0.950 . S
H354 C351 0.950 . S
C355 C346 1.390 . S
C355 H348 0.950 1_556 S
C355 C352 1.387 1_556 S
C356 C357 1.387 . S
C356 H360 0.950 . S
C356 C365 1.390 . S
C357 C356 1.387 . S
C357 C359 1.387 1_455 S
H358 C365 0.950 . S
C359 C357 1.387 1_655 S
C359 C361 1.390 . S
C359 H363 0.950 . S
H360 C356 0.950 . S
C361 C359 1.390 . S
C361 C362 1.387 1_655 S
C361 H364 0.950 . S
C362 C361 1.387 1_455 S
C362 C365 1.387 . S
H363 C359 0.950 . S
H364 C361 0.950 . S
C365 C356 1.390 . S
C365 H358 0.950 . S
C365 C362 1.387 . S
C187 C12 3.070 . S
C192 C185 3.002 . S
C197 C52 3.074 . S
C202 C163 3.012 . S
C207 C111 3.088 . S
C212 C174 3.012 . S
C217 C31 3.073 . S
C222 C179 3.015 . S
C232 C157 3.011 . S
C227 C71 3.073 . S
C242 C168 2.990 . S
C237 C92 3.044 . S
C247 C48 0.863 . S
C252 C141 0.913 . S
C257 C109 0.723 . S
C262 C146 0.678 . S
C267 C29 0.653 . S
C272 C124 0.546 . S
C282 C135 0.706 . S
C277 C69 0.726 . S
C292 C152 0.557 . S
C287 C88 0.620 . S
C297 C8 0.675 . S
C302 C130 0.634 . S
C312 C147 1.105 . S
C307 C17 1.086 . S
C317 C57 1.076 . S
C322 C125 1.097 . S
C327 C97 1.145 . S
C332 C136 1.143 . S
C342 C169 1.763 . S
C337 C42 1.729 . S
C352 C180 1.786 . S
C347 C82 1.748 . S
C357 C2 1.764 . S
C362 C158 1.788 . S
