# Generated by pormake.
# Topology pyr, (3,6)-cn, num edge types: 1
# Building blocks:
#     Node 0, Type 0, BuildingBlock: VETTIZ_charged_linker_0, # of connection points: 3
#     Node 1, Type 0, BuildingBlock: VETTIZ_charged_linker_0, # of connection points: 3
#     Node 2, Type 0, BuildingBlock: VETTIZ_charged_linker_0, # of connection points: 3
#     Node 3, Type 0, BuildingBlock: VETTIZ_charged_linker_0, # of connection points: 3
#     Node 4, Type 0, BuildingBlock: VETTIZ_charged_linker_0, # of connection points: 3
#     Node 5, Type 0, BuildingBlock: VETTIZ_charged_linker_0, # of connection points: 3
#     Node 6, Type 0, BuildingBlock: VETTIZ_charged_linker_0, # of connection points: 3
#     Node 7, Type 0, BuildingBlock: VETTIZ_charged_linker_0, # of connection points: 3
#     Node 8, Type 1, BuildingBlock: BETGAK_clean_sbu_0, # of connection points: 6
#     Node 9, Type 1, BuildingBlock: BETGAK_clean_sbu_0, # of connection points: 6
#     Node 10, Type 1, BuildingBlock: BETGAK_clean_sbu_0, # of connection points: 6
#     Node 11, Type 1, BuildingBlock: BETGAK_clean_sbu_0, # of connection points: 6
#     Edge 12, Type (0, 1), BuildingBlock: ZUJKAS_clean_linker_0, # of connection points: 2
#     Edge 13, Type (0, 1), BuildingBlock: ZUJKAS_clean_linker_0, # of connection points: 2
#     Edge 14, Type (0, 1), BuildingBlock: ZUJKAS_clean_linker_0, # of connection points: 2
#     Edge 15, Type (0, 1), BuildingBlock: ZUJKAS_clean_linker_0, # of connection points: 2
#     Edge 16, Type (0, 1), BuildingBlock: ZUJKAS_clean_linker_0, # of connection points: 2
#     Edge 17, Type (0, 1), BuildingBlock: ZUJKAS_clean_linker_0, # of connection points: 2
#     Edge 18, Type (0, 1), BuildingBlock: ZUJKAS_clean_linker_0, # of connection points: 2
#     Edge 19, Type (0, 1), BuildingBlock: ZUJKAS_clean_linker_0, # of connection points: 2
#     Edge 20, Type (0, 1), BuildingBlock: ZUJKAS_clean_linker_0, # of connection points: 2
#     Edge 21, Type (0, 1), BuildingBlock: ZUJKAS_clean_linker_0, # of connection points: 2
#     Edge 22, Type (0, 1), BuildingBlock: ZUJKAS_clean_linker_0, # of connection points: 2
#     Edge 23, Type (0, 1), BuildingBlock: ZUJKAS_clean_linker_0, # of connection points: 2
#     Edge 24, Type (0, 1), BuildingBlock: ZUJKAS_clean_linker_0, # of connection points: 2
#     Edge 25, Type (0, 1), BuildingBlock: ZUJKAS_clean_linker_0, # of connection points: 2
#     Edge 26, Type (0, 1), BuildingBlock: ZUJKAS_clean_linker_0, # of connection points: 2
#     Edge 27, Type (0, 1), BuildingBlock: ZUJKAS_clean_linker_0, # of connection points: 2
#     Edge 28, Type (0, 1), BuildingBlock: ZUJKAS_clean_linker_0, # of connection points: 2
#     Edge 29, Type (0, 1), BuildingBlock: ZUJKAS_clean_linker_0, # of connection points: 2
#     Edge 30, Type (0, 1), BuildingBlock: ZUJKAS_clean_linker_0, # of connection points: 2
#     Edge 31, Type (0, 1), BuildingBlock: ZUJKAS_clean_linker_0, # of connection points: 2
#     Edge 32, Type (0, 1), BuildingBlock: ZUJKAS_clean_linker_0, # of connection points: 2
#     Edge 33, Type (0, 1), BuildingBlock: ZUJKAS_clean_linker_0, # of connection points: 2
#     Edge 34, Type (0, 1), BuildingBlock: ZUJKAS_clean_linker_0, # of connection points: 2
#     Edge 35, Type (0, 1), BuildingBlock: ZUJKAS_clean_linker_0, # of connection points: 2
# Relax obj value: 0.073
# Max RMSD: 0.115
# Mean RMSD: 0.054
data_MOF--net-pyr--node1-BETGAK_clean_sbu_0--node2-VETTIZ_charged_linker_0--edge1-ZUJKAS_clean_linker_0
_symmetry_space_group_name_H-M    P1
_symmetry_Int_Tables_number       1
_symmetry_cell_setting            triclinic
loop_
_symmetry_equiv_pos_as_xyz
'x, y, z'
_cell_length_a     56.960623
_cell_length_b     59.819822
_cell_length_c     54.909418
_cell_angle_alpha  90.986653
_cell_angle_beta   89.017586
_cell_angle_gamma 99.23503
loop_
_atom_site_label
_atom_site_type_symbol
_atom_site_fract_x
_atom_site_fract_y
_atom_site_fract_z
_atom_type_partial_charge
C0 C 0.27018 0.24661 0.29509 0.0
C1 C 0.25481 0.25996 0.30655 0.0
C2 C 0.25409 0.28177 0.29744 0.0
C3 C 0.28005 0.27478 0.26376 0.0
C4 C 0.28276 0.25445 0.27396 0.0
C5 C 0.29934 0.2422 0.25915 0.0
H6 H 0.36137 0.2324 0.15448 0.0
C7 C 0.29293 0.27662 0.24015 0.0
C8 C 0.30474 0.25786 0.23756 0.0
H9 H 0.35727 0.19066 0.21849 0.0
H10 H 0.33279 0.21458 0.23893 0.0
H11 H 0.36765 0.28123 0.18319 0.0
H12 H 0.30613 0.23726 0.15557 0.0
H13 H 0.30231 0.26521 0.14992 0.0
H14 H 0.32698 0.25417 0.1358 0.0
H15 H 0.36238 0.27653 0.15121 0.0
H16 H 0.34968 0.29786 0.16814 0.0
C17 C 0.32179 0.24117 0.27445 0.0
C18 C 0.2856 0.21873 0.25145 0.0
C19 C 0.2755 0.33496 0.18011 0.0
C20 C 0.28111 0.33853 0.15531 0.0
C21 C 0.29721 0.32594 0.14384 0.0
C22 C 0.30691 0.30956 0.1567 0.0
C23 C 0.30019 0.30549 0.18121 0.0
C24 C 0.28502 0.31838 0.19256 0.0
C25 C 0.2789 0.31122 0.21829 0.0
C26 C 0.29266 0.29165 0.22047 0.0
C27 C 0.30507 0.2883 0.19871 0.0
C28 C 0.28835 0.33119 0.23572 0.0
C29 C 0.25162 0.30335 0.21992 0.0
C30 C 0.35512 0.22837 0.17287 0.0
C31 C 0.3614 0.20961 0.18487 0.0
C32 C 0.35307 0.20517 0.20892 0.0
C33 C 0.33872 0.21903 0.22076 0.0
C34 C 0.33243 0.23753 0.20847 0.0
C35 C 0.34074 0.24209 0.185 0.0
C36 C 0.33211 0.26253 0.17488 0.0
C37 C 0.31787 0.2698 0.19643 0.0
C38 C 0.31786 0.25484 0.21588 0.0
C39 C 0.354 0.28055 0.16882 0.0
C40 C 0.31616 0.25461 0.15278 0.0
H41 H 0.26466 0.30562 0.26969 0.0
H42 H 0.27151 0.22988 0.30155 0.0
H43 H 0.26748 0.22032 0.24517 0.0
H44 H 0.29411 0.21082 0.23609 0.0
H45 H 0.28359 0.20685 0.26695 0.0
H46 H 0.32447 0.25485 0.2886 0.0
H47 H 0.32046 0.22477 0.28396 0.0
H48 H 0.33835 0.2439 0.26328 0.0
H49 H 0.2629 0.34404 0.18939 0.0
H50 H 0.30199 0.32851 0.1248 0.0
H51 H 0.31883 0.30034 0.14692 0.0
H52 H 0.30366 0.34261 0.22747 0.0
H53 H 0.27434 0.34159 0.24026 0.0
H54 H 0.29537 0.3254 0.25279 0.0
H55 H 0.2454 0.29251 0.20389 0.0
H56 H 0.24583 0.29299 0.23594 0.0
H57 H 0.24198 0.31809 0.22024 0.0
H58 H 0.24327 0.29289 0.30635 0.0
C59 C 0.26659 0.28921 0.27615 0.0
C60 C 0.23825 0.87826 0.58685 0.0
C61 C 0.22723 0.89062 0.60447 0.0
C62 C 0.23806 0.89537 0.62726 0.0
C63 C 0.27149 0.87776 0.61373 0.0
C64 C 0.26033 0.87209 0.59183 0.0
C65 C 0.27512 0.85999 0.57468 0.0
H66 H 0.37922 0.82267 0.55062 0.0
C67 C 0.29517 0.87083 0.61231 0.0
C68 C 0.29747 0.86043 0.58948 0.0
H69 H 0.31527 0.81094 0.508 0.0
H70 H 0.29589 0.83343 0.53685 0.0
H71 H 0.37698 0.87632 0.56677 0.0
H72 H 0.35361 0.81135 0.59918 0.0
H73 H 0.36466 0.82999 0.62281 0.0
H74 H 0.38435 0.82412 0.59828 0.0
H75 H 0.39723 0.85929 0.57866 0.0
H76 H 0.38398 0.87879 0.59786 0.0
C77 C 0.28008 0.87403 0.55119 0.0
C78 C 0.26185 0.83553 0.57044 0.0
C79 C 0.35175 0.88919 0.68277 0.0
C80 C 0.3754 0.88618 0.68639 0.0
C81 C 0.38768 0.87645 0.66752 0.0
C82 C 0.37641 0.86952 0.64551 0.0
C83 C 0.35264 0.8724 0.64232 0.0
C84 C 0.3408 0.88224 0.66074 0.0
C85 C 0.31589 0.8846 0.65397 0.0
C86 C 0.31449 0.87406 0.62863 0.0
C87 C 0.33601 0.86693 0.62191 0.0
C88 C 0.31419 0.91023 0.65366 0.0
C89 C 0.29845 0.8706 0.67206 0.0
C90 C 0.36129 0.82557 0.54712 0.0
C91 C 0.34884 0.81553 0.52684 0.0
C92 C 0.3252 0.81881 0.5234 0.0
C93 C 0.31399 0.83167 0.54025 0.0
C94 C 0.32644 0.84096 0.56094 0.0
C95 C 0.34972 0.83786 0.56403 0.0
C96 C 0.35957 0.84716 0.58802 0.0
C97 C 0.33834 0.85629 0.5989 0.0
C98 C 0.31911 0.85289 0.58286 0.0
C99 C 0.38067 0.86631 0.58276 0.0
C100 C 0.3661 0.82729 0.60293 0.0
H101 H 0.26761 0.89352 0.64951 0.0
H102 H 0.23045 0.87444 0.56911 0.0
H103 H 0.25007 0.82965 0.58621 0.0
H104 H 0.27412 0.82299 0.56867 0.0
H105 H 0.25054 0.83442 0.55405 0.0
H106 H 0.28491 0.89236 0.55577 0.0
H107 H 0.26412 0.87192 0.53951 0.0
H108 H 0.29515 0.86961 0.54026 0.0
H109 H 0.342 0.89706 0.69672 0.0
H110 H 0.40589 0.8739 0.66992 0.0
H111 H 0.38662 0.86209 0.6319 0.0
H112 H 0.33149 0.92047 0.64817 0.0
H113 H 0.30929 0.91642 0.67194 0.0
H114 H 0.30146 0.91443 0.64018 0.0
H115 H 0.30502 0.85475 0.677 0.0
H116 H 0.28068 0.86488 0.66434 0.0
H117 H 0.29646 0.88034 0.68917 0.0
H118 H 0.22971 0.90451 0.64127 0.0
C119 C 0.26009 0.88899 0.63199 0.0
C120 C 0.64106 0.28734 0.8912 0.0
C121 C 0.6202 0.27358 0.88284 0.0
C122 C 0.60849 0.28138 0.86289 0.0
C123 C 0.63807 0.3157 0.86036 0.0
C124 C 0.64954 0.30809 0.87985 0.0
C125 C 0.6713 0.32453 0.88694 0.0
H126 H 0.7458 0.42388 0.87098 0.0
C127 C 0.65158 0.33818 0.85293 0.0
C128 C 0.67109 0.3433 0.86864 0.0
H129 H 0.75005 0.37195 0.92386 0.0
H130 H 0.7146 0.34969 0.90798 0.0
H131 H 0.68957 0.42254 0.87584 0.0
H132 H 0.73083 0.38852 0.82506 0.0
H133 H 0.70889 0.39925 0.80873 0.0
H134 H 0.73106 0.41857 0.82484 0.0
H135 H 0.70656 0.43723 0.85148 0.0
H136 H 0.6765 0.4229 0.84716 0.0
C137 C 0.66752 0.33283 0.9134 0.0
C138 C 0.69329 0.31249 0.88323 0.0
C139 C 0.62419 0.38209 0.78168 0.0
C140 C 0.63275 0.4036 0.77172 0.0
C141 C 0.65328 0.41644 0.78199 0.0
C142 C 0.66495 0.40832 0.80154 0.0
C143 C 0.65615 0.38702 0.81141 0.0
C144 C 0.63601 0.37427 0.80158 0.0
C145 C 0.62891 0.35228 0.81509 0.0
C146 C 0.64819 0.35385 0.83434 0.0
C147 C 0.66422 0.37431 0.83198 0.0
C148 C 0.604 0.35238 0.82671 0.0
C149 C 0.63008 0.33242 0.79697 0.0
C150 C 0.73921 0.40763 0.87903 0.0
C151 C 0.75094 0.39993 0.899 0.0
C152 C 0.74138 0.37869 0.90889 0.0
C153 C 0.72074 0.36561 0.89947 0.0
C154 C 0.70917 0.37359 0.87975 0.0
C155 C 0.71844 0.39427 0.8698 0.0
C156 C 0.70355 0.39999 0.84896 0.0
C157 C 0.68396 0.37934 0.848 0.0
C158 C 0.68738 0.36392 0.86614 0.0
C159 C 0.69357 0.42188 0.85596 0.0
C160 C 0.71929 0.40188 0.82559 0.0
H161 H 0.60753 0.30695 0.83655 0.0
H162 H 0.65049 0.28229 0.90661 0.0
H163 H 0.69098 0.3007 0.86724 0.0
H164 H 0.70978 0.32435 0.87915 0.0
H165 H 0.69612 0.30242 0.89942 0.0
H166 H 0.64857 0.33451 0.91684 0.0
H167 H 0.67239 0.32075 0.92684 0.0
H168 H 0.67754 0.34986 0.91731 0.0
H169 H 0.60838 0.37179 0.77451 0.0
H170 H 0.66057 0.43285 0.77468 0.0
H171 H 0.68046 0.41906 0.80829 0.0
H172 H 0.60243 0.36949 0.8342 0.0
H173 H 0.58982 0.3478 0.81304 0.0
H174 H 0.60036 0.34087 0.84228 0.0
H175 H 0.64634 0.3359 0.78526 0.0
H176 H 0.63118 0.31635 0.80612 0.0
H177 H 0.61441 0.32984 0.78487 0.0
H178 H 0.59261 0.27122 0.85567 0.0
C179 C 0.61727 0.30218 0.85166 0.0
C180 C 0.90139 0.76154 0.37496 0.0
C181 C 0.89289 0.77237 0.3957 0.0
C182 C 0.87269 0.76095 0.40818 0.0
C183 C 0.86913 0.72962 0.37907 0.0
C184 C 0.88928 0.74022 0.36705 0.0
C185 C 0.89579 0.72609 0.34558 0.0
H186 H 0.86909 0.63144 0.27367 0.0
C187 C 0.8603 0.70799 0.36612 0.0
C188 C 0.87588 0.70569 0.34642 0.0
H189 H 0.93066 0.68402 0.2683 0.0
H190 H 0.91629 0.70368 0.30274 0.0
H191 H 0.87069 0.62768 0.3326 0.0
H192 H 0.83067 0.66434 0.28583 0.0
H193 H 0.81152 0.65234 0.30924 0.0
H194 H 0.82449 0.63407 0.28826 0.0
H195 H 0.84721 0.61372 0.31369 0.0
H196 H 0.8412 0.62441 0.34365 0.0
C197 C 0.92038 0.71933 0.35043 0.0
C198 C 0.89497 0.73992 0.32216 0.0
C199 C 0.7839 0.65932 0.39621 0.0
C200 C 0.77035 0.63887 0.38792 0.0
C201 C 0.77852 0.62825 0.36692 0.0
C202 C 0.79957 0.6377 0.3546 0.0
C203 C 0.81283 0.65812 0.36318 0.0
C204 C 0.80482 0.66858 0.38363 0.0
C205 C 0.82088 0.69032 0.39003 0.0
C206 C 0.83992 0.69122 0.37016 0.0
C207 C 0.83522 0.67228 0.35445 0.0
C208 C 0.83114 0.68779 0.41564 0.0
C209 C 0.80626 0.70994 0.38801 0.0
C210 C 0.87973 0.64704 0.27995 0.0
C211 C 0.90114 0.65602 0.26777 0.0
C212 C 0.91393 0.6767 0.27672 0.0
C213 C 0.90566 0.68808 0.297 0.0
C214 C 0.88434 0.6788 0.30889 0.0
C215 C 0.87182 0.65853 0.30034 0.0
C216 C 0.84973 0.6509 0.31547 0.0
C217 C 0.85109 0.66979 0.33456 0.0
C218 C 0.87138 0.68628 0.33059 0.0
C219 C 0.85207 0.62789 0.32691 0.0
C220 C 0.82785 0.65016 0.29896 0.0
H221 H 0.84559 0.7324 0.41042 0.0
H222 H 0.91686 0.76957 0.36486 0.0
H223 H 0.87897 0.74842 0.3224 0.0
H224 H 0.89364 0.72932 0.30545 0.0
H225 H 0.91091 0.75324 0.32055 0.0
H226 H 0.9224 0.7161 0.37013 0.0
H227 H 0.93503 0.73299 0.34499 0.0
H228 H 0.92291 0.70339 0.34108 0.0
H229 H 0.77855 0.66793 0.41239 0.0
H230 H 0.76844 0.61273 0.35972 0.0
H231 H 0.80466 0.62875 0.33876 0.0
H232 H 0.83356 0.66998 0.4188 0.0
H233 H 0.81907 0.69261 0.43023 0.0
H234 H 0.84905 0.6978 0.41798 0.0
H235 H 0.79362 0.70682 0.37263 0.0
H236 H 0.81734 0.72638 0.38398 0.0
H237 H 0.79567 0.71172 0.40491 0.0
H238 H 0.86603 0.7682 0.42459 0.0
C239 C 0.86084 0.73989 0.40001 0.0
C240 C 0.75031 0.7376 0.87668 0.0
C241 C 0.76562 0.72385 0.86587 0.0
C242 C 0.77062 0.72558 0.84069 0.0
C243 C 0.74699 0.7556 0.83786 0.0
C244 C 0.74103 0.75318 0.86228 0.0
C245 C 0.72447 0.76917 0.87058 0.0
H246 H 0.67008 0.85882 0.8457 0.0
C247 C 0.73589 0.77427 0.82839 0.0
C248 C 0.7223 0.7821 0.84731 0.0
H249 H 0.66533 0.82055 0.91224 0.0
H250 H 0.69035 0.79551 0.89426 0.0
H251 H 0.66325 0.81512 0.80916 0.0
H252 H 0.72429 0.8597 0.83633 0.0
H253 H 0.73079 0.85374 0.80583 0.0
H254 H 0.70592 0.86803 0.81301 0.0
H255 H 0.67128 0.84385 0.79941 0.0
H256 H 0.68341 0.82096 0.78463 0.0
C257 C 0.70045 0.75494 0.87842 0.0
C258 C 0.73685 0.78471 0.89097 0.0
C259 C 0.76137 0.80586 0.74523 0.0
C260 C 0.7571 0.82524 0.73303 0.0
C261 C 0.73971 0.83747 0.74247 0.0
C262 C 0.72775 0.83123 0.76444 0.0
C263 C 0.73343 0.81273 0.77728 0.0
C264 C 0.74953 0.80004 0.76731 0.0
C265 C 0.75398 0.78142 0.78383 0.0
C266 C 0.73835 0.7854 0.80565 0.0
C267 C 0.72647 0.8038 0.80175 0.0
C268 C 0.74528 0.75838 0.77095 0.0
C269 C 0.78078 0.78558 0.79018 0.0
C270 C 0.67405 0.84485 0.85634 0.0
C271 C 0.66565 0.84175 0.88048 0.0
C272 C 0.67179 0.82356 0.89374 0.0
C273 C 0.68621 0.80893 0.88321 0.0
C274 C 0.69466 0.81249 0.85916 0.0
C275 C 0.6883 0.83007 0.8461 0.0
C276 C 0.69888 0.83141 0.82082 0.0
C277 C 0.71236 0.81152 0.82068 0.0
C278 C 0.71009 0.80062 0.84327 0.0
C279 C 0.67827 0.82783 0.80238 0.0
C280 C 0.71575 0.85441 0.81862 0.0
H281 H 0.76624 0.74207 0.80772 0.0
H282 H 0.74584 0.73636 0.89591 0.0
H283 H 0.75582 0.79068 0.88602 0.0
H284 H 0.72895 0.80019 0.89411 0.0
H285 H 0.7364 0.77551 0.90841 0.0
H286 H 0.69683 0.73879 0.86778 0.0
H287 H 0.70042 0.75059 0.89801 0.0
H288 H 0.6851 0.76356 0.87488 0.0
H289 H 0.77484 0.79628 0.73861 0.0
H290 H 0.73593 0.85232 0.73323 0.0
H291 H 0.71517 0.84156 0.77099 0.0
H292 H 0.73084 0.75967 0.75791 0.0
H293 H 0.75996 0.75228 0.76053 0.0
H294 H 0.73732 0.74517 0.78386 0.0
H295 H 0.78715 0.80393 0.79359 0.0
H296 H 0.78481 0.77716 0.80693 0.0
H297 H 0.79168 0.77995 0.775 0.0
H298 H 0.78246 0.71531 0.83196 0.0
C299 C 0.76135 0.74129 0.82666 0.0
C300 C 0.78983 0.17192 0.47121 0.0
C301 C 0.80003 0.15833 0.45421 0.0
C302 C 0.78874 0.15284 0.43176 0.0
C303 C 0.75685 0.17305 0.44415 0.0
C304 C 0.76829 0.17902 0.46585 0.0
C305 C 0.75455 0.19281 0.48227 0.0
H306 H 0.65792 0.24372 0.50031 0.0
C307 C 0.73417 0.18197 0.44483 0.0
C308 C 0.73265 0.1935 0.46713 0.0
H309 H 0.71878 0.24659 0.54694 0.0
H310 H 0.73531 0.22073 0.51973 0.0
H311 H 0.65176 0.18908 0.4884 0.0
H312 H 0.68626 0.24874 0.45164 0.0
H313 H 0.67148 0.23037 0.4295 0.0
H314 H 0.65449 0.24117 0.45366 0.0
H315 H 0.63535 0.2074 0.47258 0.0
H316 H 0.64675 0.1844 0.45712 0.0
C317 C 0.74836 0.17973 0.50624 0.0
C318 C 0.76962 0.21661 0.48566 0.0
C319 C 0.67842 0.16707 0.37329 0.0
C320 C 0.65578 0.17243 0.36882 0.0
C321 C 0.64449 0.1841 0.3869 0.0
C322 C 0.65582 0.19068 0.40896 0.0
C323 C 0.67864 0.18546 0.413 0.0
C324 C 0.68943 0.17365 0.39539 0.0
C325 C 0.71334 0.16895 0.40303 0.0
C326 C 0.71531 0.18018 0.42803 0.0
C327 C 0.69503 0.18991 0.43373 0.0
C328 C 0.71214 0.1429 0.40436 0.0
C329 C 0.73234 0.18084 0.38494 0.0
C330 C 0.67448 0.23831 0.50509 0.0
C331 C 0.687 0.24712 0.5259 0.0
C332 C 0.70885 0.2401 0.53098 0.0
C333 C 0.71844 0.22518 0.5151 0.0
C334 C 0.70613 0.21732 0.49383 0.0
C335 C 0.68435 0.22364 0.48936 0.0
C336 C 0.6741 0.21436 0.46552 0.0
C337 C 0.69357 0.2018 0.45613 0.0
C338 C 0.71225 0.20354 0.47278 0.0
C339 C 0.65067 0.19805 0.47097 0.0
C340 C 0.67121 0.23457 0.44914 0.0
H341 H 0.75941 0.15517 0.40936 0.0
H342 H 0.79794 0.17624 0.48873 0.0
H343 H 0.78025 0.22182 0.46892 0.0
H344 H 0.75866 0.23006 0.4888 0.0
H345 H 0.78224 0.21685 0.5009 0.0
H346 H 0.74371 0.16123 0.50249 0.0
H347 H 0.76366 0.18233 0.51881 0.0
H348 H 0.73265 0.18445 0.51584 0.0
H349 H 0.68734 0.15769 0.35994 0.0
H350 H 0.62706 0.18846 0.38381 0.0
H351 H 0.64644 0.19971 0.42194 0.0
H352 H 0.694 0.13446 0.40981 0.0
H353 H 0.71654 0.13562 0.38644 0.0
H354 H 0.7239 0.13782 0.41832 0.0
H355 H 0.72783 0.19739 0.37926 0.0
H356 H 0.75018 0.18503 0.39296 0.0
H357 H 0.73352 0.17032 0.36823 0.0
H358 H 0.79643 0.14265 0.41825 0.0
C359 C 0.76724 0.16014 0.42664 0.0
C360 C 0.40647 0.67723 0.27341 0.0
C361 C 0.39755 0.65591 0.28366 0.0
C362 C 0.37671 0.64337 0.27366 0.0
C363 C 0.37431 0.67263 0.24393 0.0
C364 C 0.39471 0.68514 0.25353 0.0
C365 C 0.40207 0.70699 0.23985 0.0
H366 H 0.38098 0.77709 0.14821 0.0
C367 C 0.3664 0.68533 0.22327 0.0
C368 C 0.38272 0.70558 0.22069 0.0
H369 H 0.43911 0.78769 0.19887 0.0
H370 H 0.42393 0.75205 0.21809 0.0
H371 H 0.34033 0.75872 0.18795 0.0
H372 H 0.38249 0.72511 0.13788 0.0
H373 H 0.35371 0.70937 0.13789 0.0
H374 H 0.35826 0.7384 0.12807 0.0
H375 H 0.33562 0.75769 0.15569 0.0
H376 H 0.32138 0.73552 0.17533 0.0
C377 C 0.4013 0.72701 0.25786 0.0
C378 C 0.42686 0.70648 0.22812 0.0
C379 C 0.2907 0.65284 0.17694 0.0
C380 C 0.27885 0.66074 0.15717 0.0
C381 C 0.28905 0.68154 0.14669 0.0
C382 C 0.31006 0.69426 0.15571 0.0
C383 C 0.32147 0.6863 0.17555 0.0
C384 C 0.31184 0.66585 0.18579 0.0
C385 C 0.32665 0.66007 0.20667 0.0
C386 C 0.34659 0.68045 0.20732 0.0
C387 C 0.34342 0.69578 0.18901 0.0
C388 C 0.31104 0.65871 0.23011 0.0
C389 C 0.33614 0.63788 0.19988 0.0
C390 C 0.3904 0.77196 0.1636 0.0
C391 C 0.4114 0.78556 0.17186 0.0
C392 C 0.42311 0.77766 0.19175 0.0
C393 C 0.41417 0.75691 0.20304 0.0
C394 C 0.39322 0.74357 0.19446 0.0
C395 C 0.38177 0.75126 0.175 0.0
C396 C 0.35987 0.73497 0.16799 0.0
C397 C 0.35993 0.71622 0.18635 0.0
C398 C 0.37951 0.72121 0.202 0.0
C399 C 0.33806 0.74724 0.1717 0.0
C400 C 0.36351 0.72654 0.14154 0.0
H401 H 0.34938 0.64104 0.24756 0.0
H402 H 0.42251 0.68732 0.28037 0.0
H403 H 0.42809 0.6893 0.22064 0.0
H404 H 0.43063 0.71795 0.21253 0.0
H405 H 0.44114 0.71087 0.24173 0.0
H406 H 0.38511 0.72378 0.26971 0.0
H407 H 0.41706 0.72948 0.26983 0.0
H408 H 0.40032 0.74306 0.24864 0.0
H409 H 0.28352 0.63705 0.18563 0.0
H410 H 0.28091 0.68798 0.13116 0.0
H411 H 0.31665 0.70987 0.14677 0.0
H412 H 0.29964 0.67218 0.23043 0.0
H413 H 0.29912 0.64211 0.23122 0.0
H414 H 0.32154 0.66153 0.2469 0.0
H415 H 0.34017 0.63702 0.18002 0.0
H416 H 0.3531 0.63657 0.20876 0.0
H417 H 0.32284 0.62278 0.20443 0.0
H418 H 0.36909 0.62715 0.2812 0.0
C419 C 0.36513 0.65155 0.25408 0.0
C420 C 0.12743 0.29642 0.68156 0.0
C421 C 0.1355 0.28572 0.66057 0.0
C422 C 0.15628 0.29638 0.64854 0.0
C423 C 0.16046 0.32767 0.67776 0.0
C424 C 0.14007 0.31743 0.68968 0.0
C425 C 0.13371 0.33173 0.71106 0.0
H426 H 0.16084 0.42694 0.78203 0.0
C427 C 0.16948 0.34933 0.69059 0.0
C428 C 0.15385 0.35193 0.71017 0.0
H429 H 0.0994 0.37432 0.78826 0.0
H430 H 0.11358 0.35437 0.75395 0.0
H431 H 0.15878 0.43017 0.72337 0.0
H432 H 0.1994 0.39392 0.76993 0.0
H433 H 0.21836 0.4062 0.74649 0.0
H434 H 0.20513 0.42421 0.76752 0.0
H435 H 0.18283 0.44432 0.74144 0.0
H436 H 0.18794 0.433 0.71151 0.0
C437 C 0.10927 0.33879 0.70614 0.0
C438 C 0.13433 0.31793 0.73453 0.0
C439 C 0.24577 0.39779 0.65982 0.0
C440 C 0.25905 0.41855 0.66763 0.0
C441 C 0.25079 0.42947 0.68836 0.0
C442 C 0.22988 0.42003 0.7009 0.0
C443 C 0.21683 0.39934 0.69278 0.0
C444 C 0.22492 0.38859 0.67256 0.0
C445 C 0.20893 0.3667 0.66651 0.0
C446 C 0.18986 0.36606 0.68634 0.0
C447 C 0.1945 0.38523 0.70173 0.0
C448 C 0.19871 0.3688 0.6408 0.0
C449 C 0.22357 0.34715 0.66897 0.0
C450 C 0.1502 0.41126 0.77597 0.0
C451 C 0.12888 0.40236 0.78835 0.0
C452 C 0.11607 0.38158 0.77968 0.0
C453 C 0.12423 0.37002 0.75948 0.0
C454 C 0.14548 0.3792 0.74739 0.0
C455 C 0.15802 0.39957 0.75568 0.0
C456 C 0.18001 0.40708 0.74037 0.0
C457 C 0.17864 0.38796 0.72156 0.0
C458 C 0.15839 0.3715 0.72576 0.0
C459 C 0.17752 0.42991 0.7286 0.0
C460 C 0.20199 0.40812 0.75681 0.0
H461 H 0.1844 0.32411 0.6469 0.0
H462 H 0.11143 0.28884 0.69114 0.0
H463 H 0.15009 0.30908 0.73426 0.0
H464 H 0.13598 0.32859 0.75119 0.0
H465 H 0.11817 0.30488 0.73624 0.0
H466 H 0.10742 0.34216 0.68645 0.0
H467 H 0.09447 0.32521 0.71142 0.0
H468 H 0.10685 0.3547 0.71559 0.0
H469 H 0.2516 0.38866 0.64425 0.0
H470 H 0.26032 0.44558 0.69474 0.0
H471 H 0.22463 0.42929 0.71644 0.0
H472 H 0.19606 0.38651 0.63739 0.0
H473 H 0.21092 0.36399 0.62636 0.0
H474 H 0.18091 0.35859 0.63847 0.0
H475 H 0.23623 0.35057 0.68431 0.0
H476 H 0.21249 0.33079 0.67334 0.0
H477 H 0.23413 0.34507 0.65212 0.0
H478 H 0.16314 0.2885 0.63261 0.0
C479 C 0.16874 0.31711 0.65698 0.0
La480 La 0.02121 0.03865 0.50333 0.0
La481 La 1.01402 1.01793 0.5532 0.0
C482 C 0.02217 0.06344 0.46657 0.0
C483 C 0.0387 0.08279 0.45709 0.0
C484 C 0.03962 0.08679 0.43202 0.0
C485 C 0.05691 0.1036 0.4223 0.0
C486 C 0.07346 0.11676 0.43756 0.0
C487 C 0.07206 0.11315 0.46279 0.0
C488 C 0.05493 0.09612 0.47246 0.0
C489 C 0.05537 1.01732 0.51764 0.0
C490 C 0.03867 0.0684 0.5512 0.0
C491 C 1.01294 0.99257 0.58943 0.0
C492 C 0.99646 0.97253 0.59779 0.0
C493 C 0.98528 0.97339 0.62064 0.0
C494 C 0.96726 0.95601 0.62778 0.0
C495 C 0.96012 0.93729 0.61224 0.0
C496 C 0.97208 0.93598 0.58976 0.0
C497 C 0.99011 0.95344 0.58261 0.0
C498 C 0.98004 0.03947 0.53891 0.0
C499 C 0.99579 0.98834 0.50544 0.0
O500 O 0.0306 0.04438 0.46664 0.0
O501 O 1.0107 0.06683 0.48683 0.0
O502 O 0.04954 1.01872 0.49516 0.0
O503 O 0.0439 1.02932 0.53065 0.0
O504 O 0.03222 0.06802 0.52802 0.0
O505 O 0.03676 0.04945 0.56377 0.0
O506 O 1.00404 1.01142 0.58961 0.0
O507 O 0.02556 0.99023 0.56964 0.0
O508 O 0.98587 0.03809 0.56142 0.0
O509 O 0.99137 1.02734 0.52592 0.0
O510 O 1.00203 0.98861 0.52868 0.0
O511 O 0.99821 1.00729 0.49282 0.0
H512 H 0.02734 0.07652 0.41989 0.0
H513 H 0.05752 0.10618 0.4028 0.0
H514 H 0.08476 0.1229 0.47491 0.0
H515 H 0.0548 0.09296 0.4918 0.0
H516 H 0.98986 0.98797 0.63263 0.0
H517 H 0.95825 0.95778 0.64506 0.0
H518 H 0.96727 0.92164 0.57753 0.0
H519 H 0.9986 0.95224 0.56495 0.0
La520 La 0.53747 0.03661 0.04026 0.0
La521 La 0.49346 1.02309 1.01506 0.0
C522 C 0.5728 0.05833 0.06213 0.0
C523 C 0.57607 0.06905 0.08627 0.0
C524 C 0.55729 0.06672 0.10337 0.0
C525 C 0.56073 0.07641 0.12661 0.0
C526 C 0.58305 0.08846 0.13313 0.0
C527 C 0.60171 0.09097 0.11576 0.0
C528 C 0.59822 0.08134 0.09249 0.0
C529 C 0.51381 0.99684 0.05468 0.0
C530 C 0.49026 0.05348 0.06001 0.0
C531 C 0.45811 1.00156 0.99308 0.0
C532 C 0.45479 0.99111 0.96882 0.0
C533 C 0.47341 0.99397 0.95154 0.0
C534 C 0.46994 0.98448 0.92821 0.0
C535 C 0.44775 0.97206 0.92181 0.0
C536 C 0.42926 0.96902 0.93937 0.0
C537 C 0.43278 0.97849 0.9627 0.0
C538 C 0.51726 0.06287 1.00071 0.0
C539 C 0.5406 1.00593 0.99552 0.0
O540 O 0.56731 0.03629 0.06201 0.0
O541 O 0.55964 0.06758 0.04724 0.0
O542 O 0.53666 1.00191 0.05264 0.0
O543 O 0.50483 1.01427 0.04999 0.0
O544 O 0.51372 0.05742 0.05848 0.0
O545 O 0.47798 0.03713 0.04695 0.0
O546 O 0.46353 1.02361 0.99351 0.0
O547 O 0.47135 0.99216 1.00775 0.0
O548 O 0.49442 0.05789 1.00287 0.0
O549 O 0.52612 0.04536 1.00527 0.0
O550 O 0.51713 1.0022 0.99688 0.0
O551 O 0.55296 1.02222 1.0086 0.0
H552 H 0.54009 0.05714 0.09888 0.0
H553 H 0.5461 0.07398 0.13967 0.0
H554 H 0.61901 0.10041 0.12016 0.0
H555 H 0.61285 0.08333 0.07943 0.0
H556 H 0.49052 1.00379 0.95598 0.0
H557 H 0.48443 0.98732 0.91503 0.0
H558 H 0.41208 0.95928 0.93508 0.0
H559 H 0.41828 0.97608 0.97592 0.0
La560 La 0.51661 0.51004 0.51172 0.0
La561 La 0.51221 0.54871 0.54388 0.0
C562 C 0.53376 0.47909 0.48966 0.0
C563 C 0.54553 0.46076 0.49866 0.0
C564 C 0.53675 0.44846 0.51937 0.0
C565 C 0.54957 0.43291 0.52939 0.0
C566 C 0.5715 0.42962 0.51904 0.0
C567 C 0.58001 0.44166 0.49807 0.0
C568 C 0.5671 0.45707 0.48795 0.0
C569 C 0.47482 0.50716 0.53403 0.0
C570 C 0.5342 0.51023 0.56778 0.0
C571 C 0.49525 0.57998 0.56553 0.0
C572 C 0.48318 0.59796 0.55604 0.0
C573 C 0.49143 0.62062 0.56237 0.0
C574 C 0.48175 0.63801 0.55162 0.0
C575 C 0.46363 0.63304 0.53433 0.0
C576 C 0.45507 0.6103 0.52839 0.0
C577 C 0.46475 0.59293 0.53911 0.0
C578 C 0.55403 0.55139 0.52161 0.0
C579 C 0.49475 0.54864 0.48788 0.0
O580 O 0.5111 0.47789 0.4949 0.0
O581 O 0.54555 0.49949 0.49322 0.0
O582 O 0.47795 0.50013 0.51191 0.0
O583 O 0.49486 0.51443 0.54312 0.0
O584 O 0.53444 0.50152 0.54534 0.0
O585 O 0.52414 0.52834 0.57235 0.0
O586 O 0.51773 0.58145 0.55943 0.0
O587 O 0.48386 0.55922 0.56342 0.0
O588 O 0.55092 0.55834 0.54377 0.0
O589 O 0.53395 0.54432 0.51251 0.0
O590 O 0.49429 0.55713 0.51036 0.0
O591 O 0.50491 0.5306 0.48324 0.0
H592 H 0.52034 0.45129 0.52826 0.0
H593 H 0.5427 0.42399 0.54565 0.0
H594 H 0.59669 0.43918 0.4895 0.0
H595 H 0.57424 0.46653 0.4721 0.0
H596 H 0.50566 0.62487 0.5753 0.0
H597 H 0.48842 0.65537 0.55689 0.0
H598 H 0.44127 0.60594 0.51499 0.0
H599 H 0.45813 0.5756 0.53368 0.0
La600 La 0.01722 0.50771 0.03879 0.0
La601 La 1.0134 0.55174 1.01706 0.0
C602 C 0.03066 0.47131 0.05091 0.0
C603 C 0.05296 0.46406 0.05816 0.0
C604 C 0.05197 0.4447 0.07234 0.0
C605 C 0.07288 0.43709 0.07893 0.0
C606 C 0.09522 0.44876 0.07146 0.0
C607 C 0.09613 0.46833 0.05739 0.0
C608 C 0.07517 0.47593 0.0508 0.0
C609 C 0.99264 0.5333 0.06567 0.0
C610 C 0.05956 0.54987 0.04592 0.0
C611 C 0.99927 0.58793 1.00543 0.0
C612 C 0.97731 0.59478 0.99606 0.0
C613 C 0.97156 0.59233 0.97125 0.0
C614 C 0.95131 0.59989 0.96256 0.0
C615 C 0.9364 0.61011 0.97845 0.0
C616 C 0.94202 0.61227 1.0033 0.0
C617 C 0.96229 0.6048 1.01196 0.0
C618 C 0.03797 0.52611 0.99015 0.0
C619 C 0.97109 0.50954 1.00954 0.0
O620 O 0.02157 0.48466 0.06623 0.0
O621 O 0.02979 0.47785 0.02839 0.0
O622 O 0.98763 0.51141 0.06378 0.0
O623 O 1.01144 0.5399 0.05353 0.0
O624 O 0.05297 0.52754 0.04537 0.0
O625 O 0.04538 0.56344 0.03776 0.0
O626 O 1.01136 0.57643 0.99074 0.0
O627 O 0.998 0.58005 0.02757 0.0
O628 O 0.0429 0.54802 0.99192 0.0
O629 O 0.01918 0.51957 1.00232 0.0
O630 O 0.97806 0.5318 1.00916 0.0
O631 O 0.98478 0.49599 1.01871 0.0
H632 H 0.03498 0.4353 0.07811 0.0
H633 H 0.0715 0.42178 0.08945 0.0
H634 H 0.11304 0.47784 0.05157 0.0
H635 H 0.07631 0.49093 0.03981 0.0
H636 H 0.98285 0.58487 0.95845 0.0
H637 H 0.94772 0.59826 0.94325 0.0
H638 H 0.93078 0.61979 1.0161 0.0
H639 H 0.96632 0.60704 0.03115 0.0
H640 H 0.20909 0.26745 0.31447 0.0
H641 H 0.17948 0.24797 0.34231 0.0
H642 H 0.23102 0.20916 0.36896 0.0
H643 H 0.26147 0.22993 0.34249 0.0
H644 H 0.16333 0.20508 0.33841 0.0
H645 H 0.19819 0.22155 0.4315 0.0
H646 H 0.21072 0.23785 0.40568 0.0
H647 H 0.21916 0.21073 0.41163 0.0
C648 C 0.21457 0.2555 0.32691 0.0
C649 C 0.23783 0.2503 0.32605 0.0
C650 C 0.19743 0.24415 0.34269 0.0
C651 C 0.20297 0.22714 0.35782 0.0
C652 C 0.22637 0.2225 0.35781 0.0
H653 H 0.10282 0.11021 0.3995 0.0
H654 H 0.13435 0.13772 0.38138 0.0
C655 C 0.2437 0.23415 0.34229 0.0
C656 C 0.18363 0.21252 0.37117 0.0
H657 H 0.16697 0.1896 0.42658 0.0
C658 C 0.16404 0.20195 0.35777 0.0
C659 C 0.18439 0.20855 0.39646 0.0
C660 C 0.20414 0.22047 0.41219 0.0
C661 C 0.14547 0.18719 0.36876 0.0
C662 C 0.14689 0.1822 0.39372 0.0
C663 C 0.16611 0.19321 0.40736 0.0
C664 C 0.12873 0.16528 0.40575 0.0
C665 C 0.12443 0.17727 0.35349 0.0
C666 C 0.1158 0.17138 0.42612 0.0
C667 C 0.09796 0.15556 0.43672 0.0
C668 C 0.09274 0.13347 0.42698 0.0
C669 C 0.10614 0.12727 0.407 0.0
C670 C 0.12412 0.14297 0.39664 0.0
H671 H 0.12252 0.18803 0.33758 0.0
H672 H 0.1271 0.16036 0.34641 0.0
H673 H 0.10762 0.17525 0.36435 0.0
H674 H 0.1192 0.18848 0.43352 0.0
H675 H 0.0879 0.16071 0.45216 0.0
H676 H 0.35676 0.87893 0.73211 0.0
H677 H 0.3746 0.89311 0.77067 0.0
H678 H 0.43829 0.9232 0.73235 0.0
H679 H 0.42031 0.90944 0.69349 0.0
H680 H 0.41837 0.8861 0.7923 0.0
H681 H 0.41569 0.97641 0.77123 0.0
H682 H 0.3989 0.95327 0.75428 0.0
H683 H 0.43038 0.96058 0.74923 0.0
C684 C 0.37455 0.8886 0.73188 0.0
C685 C 0.38706 0.8933 0.70979 0.0
C686 C 0.38477 0.89654 0.75391 0.0
C687 C 0.40762 0.90938 0.75426 0.0
C688 C 0.42051 0.91351 0.73236 0.0
H689 H 0.47756 0.95075 0.89316 0.0
H690 H 0.4706 0.9358 0.8516 0.0
C691 C 0.41031 0.90551 0.71025 0.0
C692 C 0.41734 0.91904 0.77761 0.0
H693 H 0.42984 0.96877 0.80968 0.0
C694 C 0.42118 0.90418 0.79608 0.0
C695 C 0.42071 0.94262 0.7824 0.0
C696 C 0.41609 0.95923 0.76336 0.0
C697 C 0.42781 0.91228 0.8195 0.0
C698 C 0.43087 0.93584 0.82438 0.0
C699 C 0.42758 0.95073 0.80575 0.0
C700 C 0.43561 0.94524 0.84919 0.0
C701 C 0.4305 0.89554 0.83912 0.0
C702 C 0.41843 0.95585 0.8613 0.0
C703 C 0.42239 0.96451 0.88487 0.0
C704 C 0.44368 0.9628 0.89675 0.0
C705 C 0.46102 0.9524 0.88443 0.0
C706 C 0.45702 0.9437 0.86081 0.0
H707 H 0.42341 0.87785 0.83347 0.0
H708 H 0.44963 0.89649 0.84327 0.0
H709 H 0.42115 0.89968 0.85612 0.0
H710 H 0.40184 0.95727 0.85253 0.0
H711 H 0.40887 0.97277 0.8937 0.0
H712 H 0.62313 0.44683 0.76658 0.0
H713 H 0.60573 0.4631 0.73203 0.0
H714 H 0.5984 0.39863 0.69426 0.0
H715 H 0.61522 0.38209 0.72924 0.0
H716 H 0.62018 0.47023 0.68749 0.0
H717 H 0.53403 0.41262 0.68218 0.0
H718 H 0.5537 0.41247 0.70752 0.0
H719 H 0.55891 0.39776 0.67953 0.0
C720 C 0.61768 0.436 0.751 0.0
C721 C 0.62063 0.41304 0.75089 0.0
C722 C 0.60767 0.44539 0.73112 0.0
C723 C 0.60027 0.43221 0.71032 0.0
C724 C 0.60318 0.40921 0.71016 0.0
H725 H 0.5507 0.4693 0.5672 0.0
H726 H 0.56668 0.45034 0.601 0.0
C727 C 0.61295 0.39971 0.73023 0.0
C728 C 0.59052 0.44292 0.68871 0.0
H729 H 0.54378 0.43788 0.64917 0.0
C730 C 0.60339 0.46311 0.6793 0.0
C731 C 0.56857 0.43388 0.67764 0.0
C732 C 0.55288 0.41313 0.68737 0.0
C733 C 0.59517 0.47425 0.65941 0.0
C734 C 0.57334 0.46517 0.64837 0.0
C735 C 0.56055 0.44489 0.65749 0.0
C736 C 0.56339 0.47673 0.62766 0.0
C737 C 0.6101 0.4956 0.6501 0.0
C738 C 0.55595 0.4979 0.63117 0.0
C739 C 0.54656 0.50871 0.61185 0.0
C740 C 0.54447 0.49877 0.58835 0.0
C741 C 0.552 0.47757 0.5849 0.0
C742 C 0.56114 0.46664 0.6043 0.0
H743 H 0.62855 0.49786 0.65704 0.0
H744 H 0.61081 0.49544 0.62988 0.0
H745 H 0.60193 0.51043 0.65618 0.0
H746 H 0.55721 0.50602 0.64898 0.0
H747 H 0.54097 0.52495 0.61538 0.0
H748 H 0.89686 0.60989 0.25852 0.0
H749 H 0.91163 0.59048 0.22328 0.0
H750 H 0.94159 0.65473 0.19264 0.0
H751 H 0.92613 0.67444 0.22724 0.0
H752 H 0.9024 0.59755 0.17007 0.0
H753 H 0.99793 0.6162 0.19472 0.0
H754 H 0.97428 0.61694 0.21693 0.0
H755 H 0.98148 0.63952 0.19565 0.0
C756 C 0.90628 0.62005 0.24421 0.0
C757 C 0.91021 0.64392 0.24607 0.0
C758 C 0.91489 0.60882 0.22407 0.0
C759 C 0.92797 0.62108 0.20536 0.0
C760 C 0.93186 0.64484 0.20698 0.0
H761 H 1.00527 0.57859 0.07704 0.0
H762 H 0.98876 0.6004 0.10955 0.0
C763 C 0.92307 0.65611 0.22698 0.0
C764 C 0.93734 0.60904 0.18407 0.0
H765 H 0.98873 0.59695 0.15747 0.0
C766 C 0.92127 0.59738 0.16731 0.0
C767 C 0.96198 0.60899 0.18027 0.0
C768 C 0.98003 0.62094 0.19785 0.0
C769 C 0.92914 0.58591 0.14682 0.0
C770 C 0.9538 0.58535 0.14328 0.0
C771 C 0.96986 0.59722 0.16 0.0
C772 C 0.96327 0.57224 0.12273 0.0
C773 C 0.91087 0.57503 0.12884 0.0
C774 C 0.95471 0.54903 0.11914 0.0
C775 C 0.96391 0.53664 0.10032 0.0
C776 C 0.98223 0.54698 0.08478 0.0
C777 C 0.99099 0.57014 0.08846 0.0
C778 C 0.98162 0.5826 0.10718 0.0
H779 H 0.89471 0.58327 0.12949 0.0
H780 H 0.91814 0.5759 0.10993 0.0
H781 H 0.9053 0.55697 0.13352 0.0
H782 H 0.94115 0.5403 0.13118 0.0
H783 H 0.9569 0.51879 0.09821 0.0
H784 H 0.39741 0.19044 0.20405 0.0
H785 H 0.42042 0.16398 0.18409 0.0
H786 H 0.38207 0.16789 0.11768 0.0
H787 H 0.35871 0.19414 0.13758 0.0
H788 H 0.40247 0.12134 0.16246 0.0
H789 H 0.45275 0.18045 0.096 0.0
H790 H 0.43765 0.19014 0.12238 0.0
H791 H 0.42106 0.17954 0.09593 0.0
C792 C 0.3938 0.18563 0.18521 0.0
C793 C 0.3762 0.19441 0.17241 0.0
C794 C 0.40704 0.17059 0.17383 0.0
C795 C 0.4031 0.16417 0.14937 0.0
C796 C 0.38568 0.17297 0.13646 0.0
H797 H 0.44228 0.05042 0.06796 0.0
H798 H 0.42159 0.07672 0.09129 0.0
C799 C 0.37239 0.188 0.14784 0.0
C800 C 0.41673 0.14773 0.13762 0.0
H801 H 0.45568 0.14148 0.09101 0.0
C802 C 0.41419 0.12574 0.1469 0.0
C803 C 0.43217 0.15363 0.1175 0.0
C804 C 0.43631 0.17727 0.10744 0.0
C805 C 0.42633 0.10931 0.13624 0.0
C806 C 0.44121 0.11502 0.11567 0.0
C807 C 0.44413 0.13714 0.1067 0.0
C808 C 0.45375 0.09826 0.10297 0.0
C809 C 0.42332 0.08603 0.14715 0.0
C810 C 0.47869 0.10169 0.1018 0.0
C811 C 0.49058 0.0867 0.08849 0.0
C812 C 0.47772 0.06811 0.0759 0.0
C813 C 0.45273 0.06451 0.07749 0.0
C814 C 0.44086 0.07947 0.09089 0.0
H815 H 0.41597 0.08596 0.16603 0.0
H816 H 0.41081 0.07415 0.13591 0.0
H817 H 0.44056 0.07962 0.14737 0.0
H818 H 0.48893 0.11614 0.11096 0.0
H819 H 0.50984 0.09 0.08763 0.0
H820 H 0.18786 0.87044 0.57954 0.0
H821 H 0.15519 0.88878 0.56505 0.0
H822 H 0.18597 0.95117 0.60059 0.0
H823 H 0.21874 0.93327 0.61476 0.0
H824 H 0.12274 0.91832 0.59544 0.0
H825 H 0.18202 0.96066 0.52248 0.0
H826 H 0.18718 0.93482 0.53653 0.0
H827 H 0.19409 0.96135 0.55262 0.0
C828 C 0.18751 0.88801 0.58443 0.0
C829 C 0.20588 0.90044 0.59823 0.0
C830 C 0.16882 0.89836 0.57628 0.0
C831 C 0.16839 0.92126 0.58174 0.0
C832 C 0.18612 0.93345 0.59628 0.0
H833 H 0.07182 1.01574 0.5637 0.0
H834 H 0.09768 0.99023 0.5789 0.0
C835 C 0.20471 0.92314 0.60447 0.0
C836 C 0.15052 0.93312 0.57083 0.0
H837 H 0.14473 0.97267 0.52836 0.0
C838 C 0.12738 0.93007 0.58064 0.0
C839 C 0.15675 0.94818 0.55141 0.0
C840 C 0.1813 0.95144 0.53994 0.0
C841 C 0.11036 0.94239 0.57191 0.0
C842 C 0.11692 0.9582 0.55315 0.0
C843 C 0.13986 0.96062 0.54285 0.0
C844 C 0.10051 0.9729 0.54429 0.0
C845 C 0.08556 0.93843 0.58278 0.0
C846 C 0.09409 0.97192 0.5197 0.0
C847 C 0.07948 0.98653 0.51099 0.0
C848 C 0.0712 1.00236 0.52674 0.0
C849 C 0.07783 1.0035 0.55128 0.0
C850 C 0.09242 0.98886 0.56 0.0
H851 H 0.08164 0.92185 0.59204 0.0
H852 H 0.08386 0.95193 0.5965 0.0
H853 H 0.07203 0.93901 0.56857 0.0
H854 H 0.10038 0.95983 0.50728 0.0
H855 H 0.07458 0.98536 0.49198 0.0
H856 H 0.76327 0.40528 0.94725 0.0
H857 H 0.79998 0.42538 0.96464 0.0
H858 H 0.82548 0.4464 0.89296 0.0
H859 H 0.78893 0.42562 0.87523 0.0
H860 H 0.85989 0.43072 0.91893 0.0
H861 H 0.82048 0.49257 0.97608 0.0
H862 H 0.80738 0.46384 0.98205 0.0
H863 H 0.80398 0.47564 0.95263 0.0
C864 C 0.77665 0.41409 0.93506 0.0
C865 C 0.77296 0.41364 0.9097 0.0
C866 C 0.79762 0.42589 0.94515 0.0
C867 C 0.81555 0.4378 0.93027 0.0
C868 C 0.81194 0.43751 0.90495 0.0
H869 H 0.93851 0.53144 0.98699 0.0
H870 H 0.90146 0.51463 0.96717 0.0
C871 C 0.79088 0.42572 0.89481 0.0
C872 C 0.83833 0.44973 0.94109 0.0
H873 H 0.86074 0.48901 0.98439 0.0
C874 C 0.86004 0.44356 0.93313 0.0
C875 C 0.8388 0.46678 0.95944 0.0
C876 C 0.81644 0.47529 0.9679 0.0
C877 C 0.88191 0.4534 0.9434 0.0
C878 C 0.88226 0.46968 0.96255 0.0
C879 C 0.86063 0.47634 0.97 0.0
C880 C 0.90481 0.47997 0.97502 0.0
C881 C 0.90451 0.44643 0.93335 0.0
C882 C 0.91903 0.46627 0.98659 0.0
C883 C 0.94029 0.47585 0.99796 0.0
C884 C 0.9479 0.49946 0.99828 0.0
C885 C 0.93336 0.51321 0.98714 0.0
C886 C 0.91209 0.50359 0.97576 0.0
H887 H 0.90209 0.43927 0.91458 0.0
H888 H 0.91929 0.461 0.93304 0.0
H889 H 0.90972 0.43317 0.94506 0.0
H890 H 0.91366 0.44807 0.98691 0.0
H891 H 0.95081 0.46465 1.00641 0.0
H892 H 0.73662 0.66089 0.41021 0.0
H893 H 0.70061 0.64445 0.43239 0.0
H894 H 0.71596 0.57743 0.4165 0.0
H895 H 0.75263 0.59373 0.3953 0.0
H896 H 0.66123 0.61681 0.41798 0.0
H897 H 0.70479 0.57382 0.48901 0.0
H898 H 0.72132 0.59415 0.46869 0.0
H899 H 0.7119 0.56537 0.45861 0.0
C900 C 0.73263 0.64265 0.41172 0.0
C901 C 0.74787 0.62874 0.40103 0.0
C902 C 0.71182 0.63324 0.42427 0.0
C903 C 0.70562 0.60966 0.42657 0.0
C904 C 0.72051 0.59568 0.41554 0.0
H905 H 0.56216 0.54435 0.47283 0.0
H906 H 0.59866 0.55721 0.4492 0.0
C907 C 0.7414 0.60508 0.40306 0.0
C908 C 0.68345 0.59981 0.4402 0.0
H909 H 0.66267 0.56553 0.48775 0.0
C910 C 0.66158 0.6056 0.43324 0.0
C911 C 0.68379 0.58537 0.46036 0.0
C912 C 0.70672 0.57947 0.4698 0.0
C913 C 0.64018 0.59736 0.44571 0.0
C914 C 0.64043 0.58243 0.46545 0.0
C915 C 0.66232 0.57672 0.47248 0.0
C916 C 0.61842 0.57344 0.47981 0.0
C917 C 0.61762 0.60533 0.43803 0.0
C918 C 0.61751 0.57736 0.5051 0.0
C919 C 0.59679 0.56973 0.51867 0.0
C920 C 0.57642 0.55796 0.5073 0.0
C921 C 0.57749 0.55347 0.48211 0.0
C922 C 0.59831 0.56102 0.46854 0.0
H923 H 0.62143 0.62114 0.42735 0.0
H924 H 0.60727 0.5921 0.42635 0.0
H925 H 0.60641 0.60843 0.45409 0.0
H926 H 0.63274 0.58675 0.51433 0.0
H927 H 0.5966 0.57341 0.53805 0.0
H928 H 0.2614 0.3307 0.11032 0.0
H929 H 0.23447 0.3525 0.09052 0.0
H930 H 0.24356 0.40154 0.14948 0.0
H931 H 0.27107 0.38026 0.16897 0.0
H932 H 0.19247 0.35883 0.11167 0.0
H933 H 0.24603 0.44208 0.09055 0.0
H934 H 0.25936 0.41747 0.09718 0.0
H935 H 0.24892 0.43401 0.12154 0.0
C936 C 0.25833 0.34654 0.11865 0.0
C937 C 0.26831 0.35371 0.14127 0.0
C938 C 0.2428 0.3589 0.10739 0.0
C939 C 0.23712 0.37873 0.11843 0.0
C940 C 0.24799 0.38653 0.14039 0.0
H941 H 0.106 0.43167 0.11504 0.0
H942 H 0.14114 0.41506 0.12482 0.0
C943 C 0.26352 0.3742 0.15164 0.0
C944 C 0.2177 0.38965 0.1087 0.0
H945 H 0.20355 0.44043 0.09154 0.0
C946 C 0.19498 0.37661 0.10697 0.0
C947 C 0.221 0.4128 0.10243 0.0
C948 C 0.2452 0.42736 0.10277 0.0
C949 C 0.17531 0.38625 0.09998 0.0
C950 C 0.17838 0.40965 0.09494 0.0
C951 C 0.20123 0.42255 0.09574 0.0
C952 C 0.15787 0.42097 0.08934 0.0
C953 C 0.15137 0.37133 0.09815 0.0
C954 C 0.15601 0.43043 0.0664 0.0
C955 C 0.13589 0.43989 0.06071 0.0
C956 C 0.11734 0.44014 0.07794 0.0
C957 C 0.11972 0.43132 0.10119 0.0
C958 C 0.1398 0.42188 0.10684 0.0
H959 H 0.15311 0.35313 0.09639 0.0
H960 H 0.14075 0.37353 0.11491 0.0
H961 H 0.14139 0.376 0.08231 0.0
H962 H 0.16983 0.42994 0.05269 0.0
H963 H 0.13455 0.44638 0.04258 0.0
H964 H 0.57344 0.25438 0.89175 0.0
H965 H 0.55819 0.21857 0.91165 0.0
H966 H 0.62989 0.20613 0.92113 0.0
H967 H 0.64528 0.24191 0.90132 0.0
H968 H 0.56147 0.17527 0.9001 0.0
H969 H 0.60438 0.19545 0.98932 0.0
H970 H 0.60352 0.21667 0.96655 0.0
H971 H 0.62511 0.1978 0.96418 0.0
C972 C 0.58605 0.24404 0.89793 0.0
C973 C 0.61071 0.25137 0.89491 0.0
C974 C 0.57725 0.2235 0.90948 0.0
C975 C 0.59278 0.2096 0.91848 0.0
C976 C 0.6174 0.21667 0.91513 0.0
H977 H 0.56529 0.07587 0.99038 0.0
H978 H 0.58451 0.11078 0.9702 0.0
C979 C 0.62622 0.23725 0.90367 0.0
C980 C 0.58315 0.18757 0.93073 0.0
H981 H 0.58497 0.15763 0.98328 0.0
C982 C 0.56662 0.17153 0.91831 0.0
C983 C 0.58979 0.18234 0.95454 0.0
C984 C 0.60649 0.19903 0.96955 0.0
C985 C 0.55678 0.15065 0.92882 0.0
C986 C 0.56324 0.14552 0.95268 0.0
C987 C 0.58 0.16137 0.965 0.0
C988 C 0.55189 0.12435 0.96544 0.0
C989 C 0.53968 0.13408 0.91408 0.0
C990 C 0.52724 0.12037 0.97004 0.0
C991 C 0.51632 0.10057 0.98162 0.0
C992 C 0.52967 0.08406 0.989 0.0
C993 C 0.55445 0.08814 0.98483 0.0
C994 C 0.56544 0.10813 0.9733 0.0
H995 H 0.54168 0.13749 0.89426 0.0
H996 H 0.54233 0.11638 0.91724 0.0
H997 H 0.52118 0.13566 0.91962 0.0
H998 H 0.51635 0.13268 0.96472 0.0
H999 H 0.49725 0.09816 0.98468 0.0
H1000 H 0.94079 0.79089 0.39554 0.0
H1001 H 0.95929 0.8277 0.41207 0.0
H1002 H 0.89021 0.84239 0.43376 0.0
H1003 H 0.87158 0.80655 0.41599 0.0
H1004 H 0.91504 0.87875 0.41629 0.0
H1005 H 0.97202 0.8439 0.48186 0.0
H1006 H 0.97784 0.83629 0.45087 0.0
H1007 H 0.94935 0.8261 0.46475 0.0
C1008 C 0.92947 0.80204 0.40354 0.0
C1009 C 0.90459 0.79533 0.40467 0.0
C1010 C 0.94015 0.82304 0.4134 0.0
C1011 C 0.9263 0.83777 0.4249 0.0
C1012 C 0.90146 0.83138 0.42533 0.0
H1013 H 0.97642 0.94827 0.52703 0.0
H1014 H 0.9597 0.91242 0.50718 0.0
C1015 C 0.89079 0.81061 0.41531 0.0
C1016 C 0.93731 0.85992 0.43631 0.0
H1017 H 0.97794 0.88387 0.47834 0.0
C1018 C 0.9288 0.8798 0.42987 0.0
C1019 C 0.95501 0.86148 0.45441 0.0
C1020 C 0.96394 0.84079 0.4636 0.0
C1021 C 0.93736 0.90096 0.44084 0.0
C1022 C 0.95565 0.90266 0.45831 0.0
C1023 C 0.96413 0.88278 0.46483 0.0
C1024 C 0.96586 0.92472 0.47039 0.0
C1025 C 0.92603 0.9211 0.43411 0.0
C1026 C 0.97522 0.94376 0.45654 0.0
C1027 C 0.98454 0.96441 0.46791 0.0
C1028 C 0.98524 0.96649 0.49348 0.0
C1029 C 0.97628 0.94733 0.50734 0.0
C1030 C 0.96668 0.92675 0.49595 0.0
H1031 H 0.90787 0.91578 0.42685 0.0
H1032 H 0.92481 0.93258 0.45003 0.0
H1033 H 0.93694 0.93074 0.41967 0.0
H1034 H 0.97557 0.94264 0.43684 0.0
H1035 H 0.99158 0.97866 0.45661 0.0
H1036 H 0.3302 0.77173 0.51721 0.0
H1037 H 0.35263 0.74187 0.50442 0.0
H1038 H 0.41443 0.7921 0.49037 0.0
H1039 H 0.39219 0.82202 0.50389 0.0
H1040 H 0.38234 0.7293 0.46599 0.0
H1041 H 0.43219 0.75865 0.55011 0.0
H1042 H 0.40531 0.76883 0.54201 0.0
H1043 H 0.43295 0.77944 0.5268 0.0
C1044 C 0.34827 0.77645 0.51046 0.0
C1045 C 0.35964 0.79906 0.51183 0.0
C1046 C 0.36108 0.75939 0.50319 0.0
C1047 C 0.38532 0.76479 0.49706 0.0
C1048 C 0.39585 0.7876 0.49551 0.0
H1049 H 0.48759 0.67293 0.5168 0.0
H1050 H 0.47055 0.70497 0.50163 0.0
C1051 C 0.38315 0.80465 0.50313 0.0
C1052 C 0.40021 0.74669 0.4968 0.0
H1053 H 0.44149 0.72622 0.53064 0.0
C1054 C 0.39555 0.72874 0.47987 0.0
C1055 C 0.41726 0.74593 0.51513 0.0
C1056 C 0.42216 0.7641 0.53469 0.0
C1057 C 0.40723 0.7098 0.48107 0.0
C1058 C 0.42369 0.70881 0.49986 0.0
C1059 C 0.42898 0.72714 0.51616 0.0
C1060 C 0.43405 0.68822 0.50472 0.0
C1061 C 0.40163 0.69093 0.46249 0.0
C1062 C 0.41915 0.66814 0.51126 0.0
C1063 C 0.42881 0.6499 0.52012 0.0
C1064 C 0.45353 0.65153 0.5228 0.0
C1065 C 0.46845 0.67134 0.51533 0.0
C1066 C 0.45878 0.68954 0.50642 0.0
H1067 H 0.39503 0.69716 0.44536 0.0
H1068 H 0.41751 0.68289 0.45819 0.0
H1069 H 0.38747 0.67778 0.46992 0.0
H1070 H 0.4 0.66698 0.51073 0.0
H1071 H 0.41685 0.63496 0.52595 0.0
H1072 H 0.77228 0.80197 0.69381 0.0
H1073 H 0.80377 0.81618 0.6643 0.0
H1074 H 0.80995 0.88268 0.69758 0.0
H1075 H 0.77843 0.86878 0.72665 0.0
H1076 H 0.81477 0.88479 0.6483 0.0
H1077 H 0.87235 0.82724 0.68597 0.0
H1078 H 0.84477 0.81362 0.67329 0.0
H1079 H 0.8445 0.83112 0.7002 0.0
C1080 C 0.78015 0.8197 0.69452 0.0
C1081 C 0.773 0.83424 0.71261 0.0
C1082 C 0.79817 0.82775 0.67776 0.0
C1083 C 0.80955 0.85036 0.67911 0.0
C1084 C 0.80145 0.86516 0.69623 0.0
H1085 H 0.94831 0.91929 0.65713 0.0
H1086 H 0.91124 0.89553 0.66933 0.0
C1087 C 0.78333 0.85721 0.71279 0.0
C1088 C 0.83103 0.85852 0.66417 0.0
H1089 H 0.88955 0.85325 0.65684 0.0
C1090 C 0.83106 0.87773 0.64984 0.0
C1091 C 0.85229 0.84934 0.66645 0.0
C1092 C 0.85368 0.82932 0.68243 0.0
C1093 C 0.85202 0.88868 0.63866 0.0
C1094 C 0.87339 0.87976 0.64136 0.0
C1095 C 0.8731 0.85993 0.65472 0.0
C1096 C 0.89667 0.89222 0.63305 0.0
C1097 C 0.85136 0.91046 0.62538 0.0
C1098 C 0.90112 0.89766 0.60847 0.0
C1099 C 0.92217 0.91161 0.60149 0.0
C1100 C 0.93926 0.92012 0.61897 0.0
C1101 C 0.93532 0.91345 0.64331 0.0
C1102 C 0.91422 0.8997 0.65028 0.0
H1103 H 0.83471 0.91738 0.62932 0.0
H1104 H 0.86671 0.92351 0.63045 0.0
H1105 H 0.85241 0.90725 0.60547 0.0
H1106 H 0.88803 0.89164 0.59479 0.0
H1107 H 0.92458 0.91647 0.5826 0.0
H1108 H 0.60962 0.15277 0.36117 0.0
H1109 H 0.59144 0.13965 0.32217 0.0
H1110 H 0.65762 0.16372 0.28474 0.0
H1111 H 0.67574 0.17713 0.32344 0.0
H1112 H 0.61467 0.17439 0.26227 0.0
H1113 H 0.61047 0.0833 0.28469 0.0
H1114 H 0.59751 0.10085 0.30636 0.0
H1115 H 0.62908 0.10563 0.30114 0.0
C1116 C 0.62015 0.15551 0.34456 0.0
C1117 C 0.64414 0.16578 0.34531 0.0
C1118 C 0.60982 0.1479 0.32239 0.0
C1119 C 0.62331 0.15055 0.30072 0.0
C1120 C 0.64698 0.16148 0.30133 0.0
H1121 H 0.6213 0.08675 0.1618 0.0
H1122 H 0.62821 0.10223 0.203 0.0
C1123 C 0.65733 0.16897 0.32344 0.0
C1124 C 0.61332 0.14123 0.27736 0.0
H1125 H 0.59837 0.0916 0.24563 0.0
C1126 C 0.61077 0.1563 0.25865 0.0
C1127 C 0.60851 0.11763 0.2728 0.0
C1128 C 0.61162 0.10081 0.29219 0.0
C1129 C 0.60406 0.14834 0.2352 0.0
C1130 C 0.59969 0.12474 0.23053 0.0
C1131 C 0.60165 0.10968 0.24941 0.0
C1132 C 0.59502 0.11538 0.20571 0.0
C1133 C 0.60272 0.16518 0.21533 0.0
C1134 C 0.57398 0.11758 0.19373 0.0
C1135 C 0.57003 0.10885 0.1701 0.0
C1136 C 0.58709 0.09782 0.15815 0.0
C1137 C 0.60803 0.0955 0.17037 0.0
C1138 C 0.61191 0.10415 0.19395 0.0
H1139 H 0.61029 0.18273 0.22103 0.0
H1140 H 0.61237 0.16059 0.19871 0.0
H1141 H 0.58384 0.16489 0.21049 0.0
H1142 H 0.56064 0.126 0.20266 0.0
H1143 H 0.55378 0.11097 0.1611 0.0
H1144 H 0.41699 0.67774 0.32529 0.0
H1145 H 0.43446 0.66118 0.36003 0.0
H1146 H 0.42253 0.59579 0.32425 0.0
H1147 H 0.40532 0.61214 0.28958 0.0
H1148 H 0.4126 0.6244 0.39078 0.0
H1149 H 0.49314 0.60323 0.34354 0.0
H1150 H 0.47575 0.62311 0.33148 0.0
H1151 H 0.46576 0.59317 0.32823 0.0
C1152 C 0.41835 0.65989 0.32466 0.0
C1153 C 0.40963 0.64636 0.30447 0.0
C1154 C 0.42823 0.65038 0.34466 0.0
C1155 C 0.43008 0.62718 0.34485 0.0
C1156 C 0.42166 0.61374 0.3246 0.0
H1157 H 0.48407 0.53271 0.44132 0.0
H1158 H 0.46808 0.55208 0.40794 0.0
C1159 C 0.41159 0.62315 0.30477 0.0
C1160 C 0.44019 0.61677 0.36631 0.0
H1161 H 0.48452 0.58771 0.38273 0.0
C1162 C 0.42844 0.61653 0.38907 0.0
C1163 C 0.46079 0.6063 0.36423 0.0
C1164 C 0.47477 0.60657 0.34064 0.0
C1165 C 0.43619 0.60561 0.40941 0.0
C1166 C 0.45682 0.59505 0.40735 0.0
C1167 C 0.46871 0.5956 0.3846 0.0
C1168 C 0.46622 0.58311 0.42827 0.0
C1169 C 0.42151 0.60478 0.43262 0.0
C1170 C 0.47092 0.59388 0.4511 0.0
C1171 C 0.47981 0.58264 0.4704 0.0
C1172 C 0.48474 0.56039 0.4674 0.0
C1173 C 0.48047 0.54976 0.44445 0.0
C1174 C 0.47131 0.56091 0.42524 0.0
H1175 H 0.40287 0.60694 0.42902 0.0
H1176 H 0.42122 0.58852 0.44214 0.0
H1177 H 0.42926 0.61883 0.44495 0.0
H1178 H 0.46807 0.61119 0.45399 0.0
H1179 H 0.48329 0.59162 0.48756 0.0
H1180 H 0.1329 0.44853 0.79696 0.0
H1181 H 0.11867 0.46828 0.83214 0.0
H1182 H 0.08867 0.40425 0.86346 0.0
H1183 H 0.10412 0.38432 0.82917 0.0
H1184 H 0.07562 0.47053 0.84897 0.0
H1185 H 0.12273 0.43312 0.9214 0.0
H1186 H 0.12936 0.42932 0.88951 0.0
H1187 H 0.10425 0.41198 0.90375 0.0
C1188 C 0.12374 0.43852 0.81151 0.0
C1189 C 0.11995 0.41464 0.80999 0.0
C1190 C 0.11535 0.44993 0.83163 0.0
C1191 C 0.10289 0.4379 0.85092 0.0
C1192 C 0.09875 0.41409 0.84931 0.0
H1193 H 0.02523 0.4808 0.97884 0.0
H1194 H 0.04102 0.45914 0.94562 0.0
C1195 C 0.10731 0.40265 0.82931 0.0
C1196 C 0.09362 0.45028 0.87218 0.0
H1197 H 0.09273 0.45439 0.9346 0.0
C1198 C 0.07954 0.46703 0.86765 0.0
C1199 C 0.09859 0.44589 0.89675 0.0
C1200 C 0.11475 0.42927 0.90318 0.0
C1201 C 0.07017 0.47915 0.88676 0.0
C1202 C 0.07496 0.47457 0.91123 0.0
C1203 C 0.08891 0.45782 0.91587 0.0
C1204 C 0.06604 0.48744 0.93213 0.0
C1205 C 0.05493 0.49665 0.88068 0.0
C1206 C 0.0751 0.51047 0.93599 0.0
C1207 C 0.06632 0.52279 0.95513 0.0
C1208 C 0.04815 0.51244 0.97084 0.0
C1209 C 0.03932 0.48928 0.9672 0.0
C1210 C 0.04829 0.47688 0.94815 0.0
H1211 H 0.04922 0.49527 0.86139 0.0
H1212 H 0.03887 0.49491 0.8927 0.0
H1213 H 0.06521 0.51382 0.88378 0.0
H1214 H 0.08894 0.51897 0.92407 0.0
H1215 H 0.07358 0.54056 0.9574 0.0
H1216 H 0.66761 0.85886 0.92722 0.0
H1217 H 0.64479 0.88655 0.94509 0.0
H1218 H 0.60859 0.88936 0.87721 0.0
H1219 H 0.63075 0.8612 0.85932 0.0
H1220 H 0.63009 0.93317 0.89948 0.0
H1221 H 0.57134 0.87651 0.96228 0.0
H1222 H 0.60256 0.87472 0.96302 0.0
H1223 H 0.58599 0.86594 0.93606 0.0
C1224 C 0.65448 0.86501 0.9162 0.0
C1225 C 0.65105 0.85777 0.89181 0.0
C1226 C 0.64156 0.88092 0.92642 0.0
C1227 C 0.62499 0.88989 0.91246 0.0
C1228 C 0.62136 0.88264 0.88822 0.0
H1229 H 0.52076 0.97074 0.96621 0.0
H1230 H 0.54118 0.9435 0.94411 0.0
C1231 C 0.63414 0.86663 0.87803 0.0
C1232 C 0.61192 0.90731 0.92295 0.0
H1233 H 0.57022 0.9158 0.966 0.0
C1234 C 0.61693 0.92941 0.91397 0.0
C1235 C 0.59464 0.90222 0.94164 0.0
C1236 C 0.58808 0.87854 0.95128 0.0
C1237 C 0.6054 0.94674 0.92358 0.0
C1238 C 0.58857 0.94178 0.94274 0.0
C1239 C 0.58322 0.91956 0.95137 0.0
C1240 C 0.57649 0.95944 0.95442 0.0
C1241 C 0.61116 0.97014 0.91303 0.0
C1242 C 0.58962 0.97755 0.96734 0.0
C1243 C 0.57802 0.99319 0.98 0.0
C1244 C 0.55305 0.99089 0.98006 0.0
C1245 C 0.54 0.97303 0.96657 0.0
C1246 C 0.55163 0.9574 0.95395 0.0
H1247 H 0.61968 0.96982 0.8947 0.0
H1248 H 0.59487 0.97802 0.91164 0.0
H1249 H 0.62372 0.98099 0.92519 0.0
H1250 H 0.6088 0.97921 0.96826 0.0
H1251 H 0.5886 1.00666 0.9903 0.0
H1252 H 0.80765 0.11499 0.44634 0.0
H1253 H 0.84107 0.09772 0.46006 0.0
H1254 H 0.87358 0.16176 0.49095 0.0
H1255 H 0.8403 0.1794 0.47686 0.0
H1256 H 0.90527 0.13429 0.46278 0.0
H1257 H 0.84904 0.08811 0.53548 0.0
H1258 H 0.83664 0.08556 0.50547 0.0
H1259 H 0.84125 0.11264 0.52078 0.0
C1260 C 0.82213 0.12554 0.45561 0.0
C1261 C 0.82135 0.14854 0.4606 0.0
C1262 C 0.84108 0.1156 0.46358 0.0
C1263 C 0.85953 0.12847 0.47668 0.0
C1264 C 0.85937 0.15161 0.48092 0.0
H1265 H 0.95854 0.06968 0.56491 0.0
H1266 H 0.93078 0.09343 0.54989 0.0
C1267 C 0.84034 0.16158 0.47301 0.0
C1268 C 0.8783 0.11733 0.48699 0.0
H1269 H 0.88712 0.07788 0.52848 0.0
C1270 C 0.90143 0.12206 0.47724 0.0
C1271 C 0.87315 0.10167 0.50606 0.0
C1272 C 0.84873 0.09676 0.51777 0.0
C1273 C 0.91952 0.11088 0.48564 0.0
C1274 C 0.9141 0.0945 0.50402 0.0
C1275 C 0.89112 0.09034 0.51426 0.0
C1276 C 0.93181 0.08109 0.51267 0.0
C1277 C 0.94425 0.1167 0.47487 0.0
C1278 C 0.94131 0.06617 0.49671 0.0
C1279 C 0.95704 0.05257 0.50526 0.0
C1280 C 0.9634 0.05366 0.52988 0.0
C1281 C 0.95386 0.06855 0.54584 0.0
C1282 C 0.93811 0.08213 0.53729 0.0
H1283 H 0.94693 0.13345 0.46592 0.0
H1284 H 0.95793 0.11687 0.48908 0.0
H1285 H 0.94704 0.10371 0.46092 0.0
H1286 H 0.93621 0.06476 0.47776 0.0
H1287 H 0.96406 0.04107 0.49266 0.0
H1288 H 0.24008 0.67744 0.13992 0.0
H1289 H 0.20418 0.65673 0.1215 0.0
H1290 H 0.2293 0.59366 0.13344 0.0
H1291 H 0.26562 0.61433 0.15165 0.0
H1292 H 0.20041 0.62865 0.08029 0.0
H1293 H 0.16123 0.58073 0.1609 0.0
H1294 H 0.18489 0.60464 0.16339 0.0
H1295 H 0.19134 0.5775 0.15336 0.0
C1296 C 0.23816 0.65916 0.13858 0.0
C1297 C 0.25608 0.64769 0.14725 0.0
C1298 C 0.21744 0.64729 0.1281 0.0
C1299 C 0.21375 0.62354 0.12617 0.0
C1300 C 0.23138 0.61193 0.13507 0.0
H1301 H 0.09409 0.528 0.06508 0.0
H1302 H 0.13182 0.54498 0.08357 0.0
C1303 C 0.25223 0.62383 0.14553 0.0
C1304 C 0.19185 0.61124 0.11404 0.0
H1305 H 0.14135 0.57259 0.12356 0.0
C1306 C 0.18752 0.6164 0.0898 0.0
C1307 C 0.17498 0.59507 0.12625 0.0
C1308 C 0.17813 0.58922 0.15247 0.0
C1309 C 0.16701 0.60593 0.0775 0.0
C1310 C 0.14983 0.59014 0.08987 0.0
C1311 C 0.15436 0.58467 0.11399 0.0
C1312 C 0.12684 0.57967 0.07832 0.0
C1313 C 0.16421 0.61163 0.05116 0.0
C1314 C 0.11111 0.59335 0.06936 0.0
C1315 C 0.08957 0.58369 0.05865 0.0
C1316 C 0.08292 0.56 0.05678 0.0
C1317 C 0.09856 0.54628 0.066 0.0
C1318 C 0.12019 0.556 0.07669 0.0
H1319 H 0.18167 0.61798 0.04236 0.0
H1320 H 0.15544 0.59667 0.04064 0.0
H1321 H 0.15308 0.62519 0.05015 0.0
H1322 H 0.11536 0.61162 0.07088 0.0
H1323 H 0.078 0.59488 0.05204 0.0
H1324 H 0.30088 0.44117 0.68662 0.0
H1325 H 0.33695 0.45812 0.66467 0.0
H1326 H 0.30438 0.43534 0.59647 0.0
H1327 H 0.26798 0.41905 0.61816 0.0
H1328 H 0.36709 0.43829 0.63472 0.0
H1329 H 0.32804 0.50162 0.58288 0.0
H1330 H 0.31272 0.48661 0.60825 0.0
H1331 H 0.31275 0.4732 0.57866 0.0
C1332 C 0.3012 0.44003 0.66692 0.0
C1333 C 0.2813 0.42879 0.65425 0.0
C1334 C 0.32197 0.44962 0.65438 0.0
C1335 C 0.32337 0.4484 0.62882 0.0
C1336 C 0.30367 0.43698 0.61613 0.0
H1337 H 0.43165 0.4869 0.51727 0.0
H1338 H 0.39547 0.47346 0.54098 0.0
C1339 C 0.2829 0.42738 0.62864 0.0
C1340 C 0.34562 0.4585 0.61553 0.0
H1341 H 0.36709 0.49604 0.57098 0.0
C1342 C 0.36711 0.45105 0.62092 0.0
C1343 C 0.34576 0.47518 0.59747 0.0
C1344 C 0.32365 0.48481 0.5916 0.0
C1345 C 0.38846 0.45928 0.60837 0.0
C1346 C 0.38854 0.47579 0.59014 0.0
C1347 C 0.36711 0.48339 0.5849 0.0
C1348 C 0.4105 0.48486 0.57582 0.0
C1349 C 0.41059 0.44966 0.61421 0.0
C1350 C 0.43098 0.49627 0.58733 0.0
C1351 C 0.45175 0.50399 0.57376 0.0
C1352 C 0.45245 0.50055 0.54837 0.0
C1353 C 0.43174 0.48974 0.53681 0.0
C1354 C 0.41101 0.48205 0.55036 0.0
H1355 H 0.40634 0.43337 0.624 0.0
H1356 H 0.42085 0.44684 0.59737 0.0
H1357 H 0.42211 0.46183 0.62609 0.0
H1358 H 0.43095 0.49914 0.60685 0.0
H1359 H 0.46736 0.51235 0.5832 0.0
H1360 H 0.7881 0.73388 0.90914 0.0
H1361 H 0.81341 0.71117 0.93021 0.0
H1362 H 0.79601 0.65729 0.87718 0.0
H1363 H 0.77091 0.68001 0.85588 0.0
H1364 H 0.80639 0.66808 0.95072 0.0
H1365 H 0.86825 0.67264 0.87097 0.0
H1366 H 0.8451 0.68991 0.87378 0.0
H1367 H 0.83806 0.66073 0.86424 0.0
C1368 C 0.7893 0.71701 0.90226 0.0
C1369 C 0.77776 0.7088 0.88072 0.0
C1370 C 0.80383 0.7041 0.91425 0.0
C1371 C 0.807 0.68278 0.90492 0.0
C1372 C 0.79428 0.67395 0.88432 0.0
H1373 H 0.90482 0.59135 0.94366 0.0
H1374 H 0.87188 0.60755 0.92676 0.0
C1375 C 0.7799 0.6869 0.87223 0.0
C1376 C 0.8246 0.67037 0.91595 0.0
H1377 H 0.8765 0.65032 0.90381 0.0
C1378 C 0.8217 0.66415 0.94048 0.0
C1379 C 0.84462 0.66537 0.90255 0.0
C1380 C 0.8494 0.67267 0.8765 0.0
C1381 C 0.83823 0.65289 0.95193 0.0
C1382 C 0.85826 0.64799 0.93854 0.0
C1383 C 0.86102 0.65399 0.91396 0.0
C1384 C 0.87719 0.63754 0.94986 0.0
C1385 C 0.83408 0.64619 0.9782 0.0
C1386 C 0.89115 0.64913 0.9683 0.0
C1387 C 0.91012 0.64006 0.97781 0.0
C1388 C 0.91554 0.61922 0.96901 0.0
C1389 C 0.90132 0.60754 0.95066 0.0
C1390 C 0.88239 0.61669 0.9411 0.0
H1391 H 0.81523 0.64585 0.98393 0.0
H1392 H 0.83903 0.62925 0.98131 0.0
H1393 H 0.84534 0.65868 0.98997 0.0
H1394 H 0.88778 0.6655 0.9749 0.0
H1395 H 0.92096 0.64973 0.99157 0.0
H1396 H 0.38663 0.81757 0.15361 0.0
H1397 H 0.40233 0.85301 0.13309 0.0
H1398 H 0.47377 0.83987 0.14253 0.0
H1399 H 0.45823 0.80417 0.16251 0.0
H1400 H 0.43317 0.8914 0.14921 0.0
H1401 H 0.47321 0.85241 0.06976 0.0
H1402 H 0.45229 0.83617 0.09031 0.0
H1403 H 0.48297 0.84387 0.09857 0.0
C1404 C 0.40569 0.82202 0.15113 0.0
C1405 C 0.42106 0.80768 0.15972 0.0
C1406 C 0.41468 0.84248 0.13948 0.0
C1407 C 0.4393 0.84915 0.1358 0.0
C1408 C 0.4547 0.83506 0.14464 0.0
H1409 H 0.53383 0.96154 0.07069 0.0
H1410 H 0.51465 0.92676 0.09006 0.0
C1411 C 0.44574 0.81466 0.15639 0.0
C1412 C 0.44885 0.87086 0.12299 0.0
H1413 H 0.48307 0.89233 0.07426 0.0
C1414 C 0.44395 0.89157 0.13272 0.0
C1415 C 0.46293 0.8713 0.1014 0.0
C1416 C 0.46801 0.84976 0.08922 0.0
C1417 C 0.45332 0.91255 0.12205 0.0
C1418 C 0.46763 0.91301 0.10057 0.0
C1419 C 0.4722 0.89223 0.09067 0.0
C1420 C 0.47897 0.93473 0.08867 0.0
C1421 C 0.4485 0.93407 0.13448 0.0
C1422 C 0.46549 0.95109 0.08096 0.0
C1423 C 0.47657 0.97129 0.0699 0.0
C1424 C 0.50138 0.97551 0.06607 0.0
C1425 C 0.51471 0.95897 0.07341 0.0
C1426 C 0.5037 0.93894 0.0845 0.0
H1427 H 0.44296 0.93123 0.15383 0.0
H1428 H 0.46447 0.94742 0.13384 0.0
H1429 H 0.43386 0.94039 0.12502 0.0
H1430 H 0.44634 0.94818 0.08326 0.0
H1431 H 0.46572 0.98354 0.0643 0.0
H1432 H 0.12456 0.27418 0.61319 0.0
H1433 H 0.10689 0.23732 0.59646 0.0
H1434 H 0.10065 0.20981 0.66879 0.0
H1435 H 0.1179 0.24696 0.6857 0.0
H1436 H 0.1232 0.19856 0.59642 0.0
H1437 H 0.03579 0.18534 0.64431 0.0
H1438 H 0.05523 0.2123 0.64466 0.0
H1439 H 0.06039 0.19016 0.66472 0.0
C1440 C 0.11924 0.26034 0.6256 0.0
C1441 C 0.12269 0.2636 0.65083 0.0
C1442 C 0.1091 0.2392 0.61598 0.0
C1443 C 0.10212 0.22061 0.63126 0.0
C1444 C 0.10527 0.22387 0.65654 0.0
H1445 H 0.05239 0.07656 0.59879 0.0
H1446 H 0.06791 0.11298 0.61833 0.0
C1447 C 0.11522 0.24516 0.66624 0.0
C1448 C 0.09276 0.19776 0.6204 0.0
H1449 H 0.04601 0.15383 0.62186 0.0
C1450 C 0.10626 0.18889 0.60197 0.0
C1451 C 0.07064 0.1849 0.62754 0.0
C1452 C 0.05455 0.19373 0.64621 0.0
C1453 C 0.09843 0.16773 0.5907 0.0
C1454 C 0.07637 0.15492 0.59782 0.0
C1455 C 0.06295 0.16358 0.61641 0.0
C1456 C 0.06682 0.13272 0.58588 0.0
C1457 C 0.11403 0.15906 0.57141 0.0
C1458 C 0.06077 0.1316 0.56113 0.0
C1459 C 0.05177 0.1108 0.5499 0.0
C1460 C 0.04868 0.09051 0.56309 0.0
C1461 C 0.05466 0.09172 0.58794 0.0
C1462 C 0.06349 0.11258 0.5992 0.0
H1463 H 0.1326 0.16822 0.57195 0.0
H1464 H 0.11427 0.14068 0.5736 0.0
H1465 H 0.10681 0.1615 0.55317 0.0
H1466 H 0.06279 0.14689 0.5505 0.0
H1467 H 0.04711 0.1107 0.53087 0.0
H1468 H 0.64141 0.25007 0.54045 0.0
H1469 H 0.62637 0.28474 0.55233 0.0
H1470 H 0.6982 0.32071 0.55573 0.0
H1471 H 0.71338 0.28634 0.54287 0.0
H1472 H 0.63339 0.3205 0.58877 0.0
H1473 H 0.66883 0.34721 0.49668 0.0
H1474 H 0.66699 0.31851 0.50692 0.0
H1475 H 0.69006 0.34021 0.51791 0.0
C1476 C 0.65403 0.26524 0.54426 0.0
C1477 C 0.67852 0.26564 0.5401 0.0
C1478 C 0.64543 0.28498 0.55126 0.0
C1479 C 0.66119 0.30534 0.55432 0.0
C1480 C 0.68578 0.30517 0.55307 0.0
H1481 H 0.61914 0.43649 0.52782 0.0
H1482 H 0.64289 0.40887 0.54226 0.0
C1483 C 0.69441 0.28546 0.54589 0.0
C1484 C 0.65173 0.32693 0.55436 0.0
H1485 H 0.64595 0.3707 0.51714 0.0
C1486 C 0.6364 0.33173 0.57334 0.0
C1487 C 0.65561 0.34143 0.53408 0.0
C1488 C 0.6711 0.3366 0.51262 0.0
C1489 C 0.62439 0.35045 0.57227 0.0
C1490 C 0.62755 0.36435 0.55151 0.0
C1491 C 0.64366 0.36006 0.53309 0.0
C1492 C 0.61284 0.38209 0.54708 0.0
C1493 C 0.60822 0.35497 0.59319 0.0
C1494 C 0.58805 0.37625 0.54524 0.0
C1495 C 0.57447 0.39197 0.53694 0.0
C1496 C 0.58552 0.41368 0.53002 0.0
C1497 C 0.61022 0.41975 0.53269 0.0
C1498 C 0.62376 0.40408 0.54114 0.0
H1499 H 0.61384 0.34818 0.61048 0.0
H1500 H 0.60788 0.37338 0.59566 0.0
H1501 H 0.58987 0.34637 0.58941 0.0
H1502 H 0.57932 0.3592 0.54904 0.0
H1503 H 0.5555 0.38679 0.53485 0.0
loop_
_geom_bond_atom_site_label_1
_geom_bond_atom_site_label_2
_geom_bond_distance
_geom_bond_site_symmetry_2
_ccdc_geom_bond_type
C0 C1 1.391 . S
C0 C4 1.391 . S
C0 H42 0.948 . S
C1 C0 1.391 . S
C1 C2 1.391 . S
C2 C1 1.391 . S
C2 H58 0.947 . S
C2 C59 1.392 . S
C3 C4 1.391 . S
C3 C7 1.397 . S
C3 C59 1.419 . S
C4 C0 1.391 . S
C4 C3 1.391 . S
C4 C5 1.399 . S
C5 C4 1.399 . S
C5 C8 1.396 . S
C5 C17 1.453 . S
C5 C18 1.684 . S
H6 C30 0.948 . S
C7 C3 1.397 . S
C7 C8 1.394 . S
C7 C26 1.723 . S
C8 C5 1.396 . S
C8 C7 1.394 . S
C8 C38 1.723 . S
H9 C32 0.947 . S
H10 C33 0.948 . S
H11 C39 0.982 . S
H12 C40 0.979 . S
H13 C40 0.980 . S
H14 C40 0.983 . S
H15 C39 0.979 . S
H16 C39 0.977 . S
C17 C5 1.453 . S
C17 H46 0.982 . S
C17 H47 0.979 . S
C17 H48 0.977 . S
C18 C5 1.684 . S
C18 H43 0.979 . S
C18 H44 0.980 . S
C18 H45 0.983 . S
C19 C20 1.391 . S
C19 C24 1.391 . S
C19 H49 0.948 . S
C20 C19 1.391 . S
C20 C21 1.391 . S
C21 C20 1.391 . S
C21 C22 1.392 . S
C21 H50 0.947 . S
C22 C21 1.392 . S
C22 C23 1.419 . S
C22 H51 0.948 . S
C23 C22 1.419 . S
C23 C24 1.391 . S
C23 C27 1.397 . S
C24 C19 1.391 . S
C24 C23 1.391 . S
C24 C25 1.399 . S
C25 C24 1.399 . S
C25 C26 1.396 . S
C25 C28 1.453 . S
C25 C29 1.684 . S
C26 C7 1.723 . S
C26 C25 1.396 . S
C26 C27 1.394 . S
C27 C23 1.397 . S
C27 C26 1.394 . S
C27 C37 1.723 . S
C28 C25 1.453 . S
C28 H52 0.982 . S
C28 H53 0.979 . S
C28 H54 0.977 . S
C29 C25 1.684 . S
C29 H55 0.979 . S
C29 H56 0.980 . S
C29 H57 0.983 . S
C30 H6 0.948 . S
C30 C31 1.391 . S
C30 C35 1.391 . S
C31 C30 1.391 . S
C31 C32 1.391 . S
C32 H9 0.947 . S
C32 C31 1.391 . S
C32 C33 1.392 . S
C33 H10 0.948 . S
C33 C32 1.392 . S
C33 C34 1.419 . S
C34 C33 1.419 . S
C34 C35 1.391 . S
C34 C38 1.397 . S
C35 C30 1.391 . S
C35 C34 1.391 . S
C35 C36 1.399 . S
C36 C35 1.399 . S
C36 C37 1.396 . S
C36 C39 1.453 . S
C36 C40 1.684 . S
C37 C27 1.723 . S
C37 C36 1.396 . S
C37 C38 1.394 . S
C38 C8 1.723 . S
C38 C34 1.397 . S
C38 C37 1.394 . S
C39 H11 0.982 . S
C39 H15 0.979 . S
C39 H16 0.977 . S
C39 C36 1.453 . S
C40 H12 0.979 . S
C40 H13 0.980 . S
C40 H14 0.983 . S
C40 C36 1.684 . S
H41 C59 0.948 . S
H42 C0 0.948 . S
H43 C18 0.979 . S
H44 C18 0.980 . S
H45 C18 0.983 . S
H46 C17 0.982 . S
H47 C17 0.979 . S
H48 C17 0.977 . S
H49 C19 0.948 . S
H50 C21 0.947 . S
H51 C22 0.948 . S
H52 C28 0.982 . S
H53 C28 0.979 . S
H54 C28 0.977 . S
H55 C29 0.979 . S
H56 C29 0.980 . S
H57 C29 0.983 . S
H58 C2 0.947 . S
C59 C2 1.392 . S
C59 C3 1.419 . S
C59 H41 0.948 . S
C60 C61 1.391 . S
C60 C64 1.391 . S
C60 H102 0.948 . S
C61 C60 1.391 . S
C61 C62 1.391 . S
C62 C61 1.391 . S
C62 H118 0.947 . S
C62 C119 1.392 . S
C63 C64 1.391 . S
C63 C67 1.397 . S
C63 C119 1.419 . S
C64 C60 1.391 . S
C64 C63 1.391 . S
C64 C65 1.399 . S
C65 C64 1.399 . S
C65 C68 1.396 . S
C65 C77 1.453 . S
C65 C78 1.684 . S
H66 C90 0.948 . S
C67 C63 1.397 . S
C67 C68 1.394 . S
C67 C86 1.723 . S
C68 C65 1.396 . S
C68 C67 1.394 . S
C68 C98 1.723 . S
H69 C92 0.947 . S
H70 C93 0.948 . S
H71 C99 0.982 . S
H72 C100 0.979 . S
H73 C100 0.980 . S
H74 C100 0.983 . S
H75 C99 0.979 . S
H76 C99 0.977 . S
C77 C65 1.453 . S
C77 H106 0.982 . S
C77 H107 0.979 . S
C77 H108 0.977 . S
C78 C65 1.684 . S
C78 H103 0.979 . S
C78 H104 0.980 . S
C78 H105 0.983 . S
C79 C80 1.391 . S
C79 C84 1.391 . S
C79 H109 0.948 . S
C80 C79 1.391 . S
C80 C81 1.391 . S
C81 C80 1.391 . S
C81 C82 1.392 . S
C81 H110 0.947 . S
C82 C81 1.392 . S
C82 C83 1.419 . S
C82 H111 0.948 . S
C83 C82 1.419 . S
C83 C84 1.391 . S
C83 C87 1.397 . S
C84 C79 1.391 . S
C84 C83 1.391 . S
C84 C85 1.399 . S
C85 C84 1.399 . S
C85 C86 1.396 . S
C85 C88 1.453 . S
C85 C89 1.684 . S
C86 C67 1.723 . S
C86 C85 1.396 . S
C86 C87 1.394 . S
C87 C83 1.397 . S
C87 C86 1.394 . S
C87 C97 1.723 . S
C88 C85 1.453 . S
C88 H112 0.982 . S
C88 H113 0.979 . S
C88 H114 0.977 . S
C89 C85 1.684 . S
C89 H115 0.979 . S
C89 H116 0.980 . S
C89 H117 0.983 . S
C90 H66 0.948 . S
C90 C91 1.391 . S
C90 C95 1.391 . S
C91 C90 1.391 . S
C91 C92 1.391 . S
C92 H69 0.947 . S
C92 C91 1.391 . S
C92 C93 1.392 . S
C93 H70 0.948 . S
C93 C92 1.392 . S
C93 C94 1.419 . S
C94 C93 1.419 . S
C94 C95 1.391 . S
C94 C98 1.397 . S
C95 C90 1.391 . S
C95 C94 1.391 . S
C95 C96 1.399 . S
C96 C95 1.399 . S
C96 C97 1.396 . S
C96 C99 1.453 . S
C96 C100 1.684 . S
C97 C87 1.723 . S
C97 C96 1.396 . S
C97 C98 1.394 . S
C98 C68 1.723 . S
C98 C94 1.397 . S
C98 C97 1.394 . S
C99 H71 0.982 . S
C99 H75 0.979 . S
C99 H76 0.977 . S
C99 C96 1.453 . S
C100 H72 0.979 . S
C100 H73 0.980 . S
C100 H74 0.983 . S
C100 C96 1.684 . S
H101 C119 0.948 . S
H102 C60 0.948 . S
H103 C78 0.979 . S
H104 C78 0.980 . S
H105 C78 0.983 . S
H106 C77 0.982 . S
H107 C77 0.979 . S
H108 C77 0.977 . S
H109 C79 0.948 . S
H110 C81 0.947 . S
H111 C82 0.948 . S
H112 C88 0.982 . S
H113 C88 0.979 . S
H114 C88 0.977 . S
H115 C89 0.979 . S
H116 C89 0.980 . S
H117 C89 0.983 . S
H118 C62 0.947 . S
C119 C62 1.392 . S
C119 C63 1.419 . S
C119 H101 0.948 . S
C120 C121 1.391 . S
C120 C124 1.391 . S
C120 H162 0.948 . S
C121 C120 1.391 . S
C121 C122 1.391 . S
C122 C121 1.391 . S
C122 H178 0.947 . S
C122 C179 1.392 . S
C123 C124 1.391 . S
C123 C127 1.397 . S
C123 C179 1.419 . S
C124 C120 1.391 . S
C124 C123 1.391 . S
C124 C125 1.399 . S
C125 C124 1.399 . S
C125 C128 1.396 . S
C125 C137 1.453 . S
C125 C138 1.684 . S
H126 C150 0.948 . S
C127 C123 1.397 . S
C127 C128 1.394 . S
C127 C146 1.723 . S
C128 C125 1.396 . S
C128 C127 1.394 . S
C128 C158 1.723 . S
H129 C152 0.947 . S
H130 C153 0.948 . S
H131 C159 0.982 . S
H132 C160 0.979 . S
H133 C160 0.980 . S
H134 C160 0.983 . S
H135 C159 0.979 . S
H136 C159 0.977 . S
C137 C125 1.453 . S
C137 H166 0.982 . S
C137 H167 0.979 . S
C137 H168 0.977 . S
C138 C125 1.684 . S
C138 H163 0.979 . S
C138 H164 0.980 . S
C138 H165 0.983 . S
C139 C140 1.391 . S
C139 C144 1.391 . S
C139 H169 0.948 . S
C140 C139 1.391 . S
C140 C141 1.391 . S
C141 C140 1.391 . S
C141 C142 1.392 . S
C141 H170 0.947 . S
C142 C141 1.392 . S
C142 C143 1.419 . S
C142 H171 0.948 . S
C143 C142 1.419 . S
C143 C144 1.391 . S
C143 C147 1.397 . S
C144 C139 1.391 . S
C144 C143 1.391 . S
C144 C145 1.399 . S
C145 C144 1.399 . S
C145 C146 1.396 . S
C145 C148 1.453 . S
C145 C149 1.684 . S
C146 C127 1.723 . S
C146 C145 1.396 . S
C146 C147 1.394 . S
C147 C143 1.397 . S
C147 C146 1.394 . S
C147 C157 1.723 . S
C148 C145 1.453 . S
C148 H172 0.982 . S
C148 H173 0.979 . S
C148 H174 0.977 . S
C149 C145 1.684 . S
C149 H175 0.979 . S
C149 H176 0.980 . S
C149 H177 0.983 . S
C150 H126 0.948 . S
C150 C151 1.391 . S
C150 C155 1.391 . S
C151 C150 1.391 . S
C151 C152 1.391 . S
C152 H129 0.947 . S
C152 C151 1.391 . S
C152 C153 1.392 . S
C153 H130 0.948 . S
C153 C152 1.392 . S
C153 C154 1.419 . S
C154 C153 1.419 . S
C154 C155 1.391 . S
C154 C158 1.397 . S
C155 C150 1.391 . S
C155 C154 1.391 . S
C155 C156 1.399 . S
C156 C155 1.399 . S
C156 C157 1.396 . S
C156 C159 1.453 . S
C156 C160 1.684 . S
C157 C147 1.723 . S
C157 C156 1.396 . S
C157 C158 1.394 . S
C158 C128 1.723 . S
C158 C154 1.397 . S
C158 C157 1.394 . S
C159 H131 0.982 . S
C159 H135 0.979 . S
C159 H136 0.977 . S
C159 C156 1.453 . S
C160 H132 0.979 . S
C160 H133 0.980 . S
C160 H134 0.983 . S
C160 C156 1.684 . S
H161 C179 0.948 . S
H162 C120 0.948 . S
H163 C138 0.979 . S
H164 C138 0.980 . S
H165 C138 0.983 . S
H166 C137 0.982 . S
H167 C137 0.979 . S
H168 C137 0.977 . S
H169 C139 0.948 . S
H170 C141 0.947 . S
H171 C142 0.948 . S
H172 C148 0.982 . S
H173 C148 0.979 . S
H174 C148 0.977 . S
H175 C149 0.979 . S
H176 C149 0.980 . S
H177 C149 0.983 . S
H178 C122 0.947 . S
C179 C122 1.392 . S
C179 C123 1.419 . S
C179 H161 0.948 . S
C180 C181 1.391 . S
C180 C184 1.391 . S
C180 H222 0.948 . S
C181 C180 1.391 . S
C181 C182 1.391 . S
C182 C181 1.391 . S
C182 H238 0.947 . S
C182 C239 1.392 . S
C183 C184 1.391 . S
C183 C187 1.397 . S
C183 C239 1.419 . S
C184 C180 1.391 . S
C184 C183 1.391 . S
C184 C185 1.399 . S
C185 C184 1.399 . S
C185 C188 1.396 . S
C185 C197 1.453 . S
C185 C198 1.684 . S
H186 C210 0.948 . S
C187 C183 1.397 . S
C187 C188 1.394 . S
C187 C206 1.723 . S
C188 C185 1.396 . S
C188 C187 1.394 . S
C188 C218 1.723 . S
H189 C212 0.947 . S
H190 C213 0.948 . S
H191 C219 0.982 . S
H192 C220 0.979 . S
H193 C220 0.980 . S
H194 C220 0.983 . S
H195 C219 0.979 . S
H196 C219 0.977 . S
C197 C185 1.453 . S
C197 H226 0.982 . S
C197 H227 0.979 . S
C197 H228 0.977 . S
C198 C185 1.684 . S
C198 H223 0.979 . S
C198 H224 0.980 . S
C198 H225 0.983 . S
C199 C200 1.391 . S
C199 C204 1.391 . S
C199 H229 0.948 . S
C200 C199 1.391 . S
C200 C201 1.391 . S
C201 C200 1.391 . S
C201 C202 1.392 . S
C201 H230 0.947 . S
C202 C201 1.392 . S
C202 C203 1.419 . S
C202 H231 0.948 . S
C203 C202 1.419 . S
C203 C204 1.391 . S
C203 C207 1.397 . S
C204 C199 1.391 . S
C204 C203 1.391 . S
C204 C205 1.399 . S
C205 C204 1.399 . S
C205 C206 1.396 . S
C205 C208 1.453 . S
C205 C209 1.684 . S
C206 C187 1.723 . S
C206 C205 1.396 . S
C206 C207 1.394 . S
C207 C203 1.397 . S
C207 C206 1.394 . S
C207 C217 1.723 . S
C208 C205 1.453 . S
C208 H232 0.982 . S
C208 H233 0.979 . S
C208 H234 0.977 . S
C209 C205 1.684 . S
C209 H235 0.979 . S
C209 H236 0.980 . S
C209 H237 0.983 . S
C210 H186 0.948 . S
C210 C211 1.391 . S
C210 C215 1.391 . S
C211 C210 1.391 . S
C211 C212 1.391 . S
C212 H189 0.947 . S
C212 C211 1.391 . S
C212 C213 1.392 . S
C213 H190 0.948 . S
C213 C212 1.392 . S
C213 C214 1.419 . S
C214 C213 1.419 . S
C214 C215 1.391 . S
C214 C218 1.397 . S
C215 C210 1.391 . S
C215 C214 1.391 . S
C215 C216 1.399 . S
C216 C215 1.399 . S
C216 C217 1.396 . S
C216 C219 1.453 . S
C216 C220 1.684 . S
C217 C207 1.723 . S
C217 C216 1.396 . S
C217 C218 1.394 . S
C218 C188 1.723 . S
C218 C214 1.397 . S
C218 C217 1.394 . S
C219 H191 0.982 . S
C219 H195 0.979 . S
C219 H196 0.977 . S
C219 C216 1.453 . S
C220 H192 0.979 . S
C220 H193 0.980 . S
C220 H194 0.983 . S
C220 C216 1.684 . S
H221 C239 0.948 . S
H222 C180 0.948 . S
H223 C198 0.979 . S
H224 C198 0.980 . S
H225 C198 0.983 . S
H226 C197 0.982 . S
H227 C197 0.979 . S
H228 C197 0.977 . S
H229 C199 0.948 . S
H230 C201 0.947 . S
H231 C202 0.948 . S
H232 C208 0.982 . S
H233 C208 0.979 . S
H234 C208 0.977 . S
H235 C209 0.979 . S
H236 C209 0.980 . S
H237 C209 0.983 . S
H238 C182 0.947 . S
C239 C182 1.392 . S
C239 C183 1.419 . S
C239 H221 0.948 . S
C240 C241 1.391 . S
C240 C244 1.391 . S
C240 H282 0.948 . S
C241 C240 1.391 . S
C241 C242 1.391 . S
C242 C241 1.391 . S
C242 H298 0.947 . S
C242 C299 1.392 . S
C243 C244 1.391 . S
C243 C247 1.397 . S
C243 C299 1.419 . S
C244 C240 1.391 . S
C244 C243 1.391 . S
C244 C245 1.399 . S
C245 C244 1.399 . S
C245 C248 1.396 . S
C245 C257 1.453 . S
C245 C258 1.684 . S
H246 C270 0.948 . S
C247 C243 1.397 . S
C247 C248 1.394 . S
C247 C266 1.723 . S
C248 C245 1.396 . S
C248 C247 1.394 . S
C248 C278 1.723 . S
H249 C272 0.947 . S
H250 C273 0.948 . S
H251 C279 0.982 . S
H252 C280 0.979 . S
H253 C280 0.980 . S
H254 C280 0.983 . S
H255 C279 0.979 . S
H256 C279 0.977 . S
C257 C245 1.453 . S
C257 H286 0.982 . S
C257 H287 0.979 . S
C257 H288 0.977 . S
C258 C245 1.684 . S
C258 H283 0.979 . S
C258 H284 0.980 . S
C258 H285 0.983 . S
C259 C260 1.391 . S
C259 C264 1.391 . S
C259 H289 0.948 . S
C260 C259 1.391 . S
C260 C261 1.391 . S
C261 C260 1.391 . S
C261 C262 1.392 . S
C261 H290 0.947 . S
C262 C261 1.392 . S
C262 C263 1.419 . S
C262 H291 0.948 . S
C263 C262 1.419 . S
C263 C264 1.391 . S
C263 C267 1.397 . S
C264 C259 1.391 . S
C264 C263 1.391 . S
C264 C265 1.399 . S
C265 C264 1.399 . S
C265 C266 1.396 . S
C265 C268 1.453 . S
C265 C269 1.684 . S
C266 C247 1.723 . S
C266 C265 1.396 . S
C266 C267 1.394 . S
C267 C263 1.397 . S
C267 C266 1.394 . S
C267 C277 1.723 . S
C268 C265 1.453 . S
C268 H292 0.982 . S
C268 H293 0.979 . S
C268 H294 0.977 . S
C269 C265 1.684 . S
C269 H295 0.979 . S
C269 H296 0.980 . S
C269 H297 0.983 . S
C270 H246 0.948 . S
C270 C271 1.391 . S
C270 C275 1.391 . S
C271 C270 1.391 . S
C271 C272 1.391 . S
C272 H249 0.947 . S
C272 C271 1.391 . S
C272 C273 1.392 . S
C273 H250 0.948 . S
C273 C272 1.392 . S
C273 C274 1.419 . S
C274 C273 1.419 . S
C274 C275 1.391 . S
C274 C278 1.397 . S
C275 C270 1.391 . S
C275 C274 1.391 . S
C275 C276 1.399 . S
C276 C275 1.399 . S
C276 C277 1.396 . S
C276 C279 1.453 . S
C276 C280 1.684 . S
C277 C267 1.723 . S
C277 C276 1.396 . S
C277 C278 1.394 . S
C278 C248 1.723 . S
C278 C274 1.397 . S
C278 C277 1.394 . S
C279 H251 0.982 . S
C279 H255 0.979 . S
C279 H256 0.977 . S
C279 C276 1.453 . S
C280 H252 0.979 . S
C280 H253 0.980 . S
C280 H254 0.983 . S
C280 C276 1.684 . S
H281 C299 0.948 . S
H282 C240 0.948 . S
H283 C258 0.979 . S
H284 C258 0.980 . S
H285 C258 0.983 . S
H286 C257 0.982 . S
H287 C257 0.979 . S
H288 C257 0.977 . S
H289 C259 0.948 . S
H290 C261 0.947 . S
H291 C262 0.948 . S
H292 C268 0.982 . S
H293 C268 0.979 . S
H294 C268 0.977 . S
H295 C269 0.979 . S
H296 C269 0.980 . S
H297 C269 0.983 . S
H298 C242 0.947 . S
C299 C242 1.392 . S
C299 C243 1.419 . S
C299 H281 0.948 . S
C300 C301 1.391 . S
C300 C304 1.391 . S
C300 H342 0.948 . S
C301 C300 1.391 . S
C301 C302 1.391 . S
C302 C301 1.391 . S
C302 H358 0.947 . S
C302 C359 1.392 . S
C303 C304 1.391 . S
C303 C307 1.397 . S
C303 C359 1.419 . S
C304 C300 1.391 . S
C304 C303 1.391 . S
C304 C305 1.399 . S
C305 C304 1.399 . S
C305 C308 1.396 . S
C305 C317 1.453 . S
C305 C318 1.684 . S
H306 C330 0.948 . S
C307 C303 1.397 . S
C307 C308 1.394 . S
C307 C326 1.723 . S
C308 C305 1.396 . S
C308 C307 1.394 . S
C308 C338 1.723 . S
H309 C332 0.947 . S
H310 C333 0.948 . S
H311 C339 0.982 . S
H312 C340 0.979 . S
H313 C340 0.980 . S
H314 C340 0.983 . S
H315 C339 0.979 . S
H316 C339 0.977 . S
C317 C305 1.453 . S
C317 H346 0.982 . S
C317 H347 0.979 . S
C317 H348 0.977 . S
C318 C305 1.684 . S
C318 H343 0.979 . S
C318 H344 0.980 . S
C318 H345 0.983 . S
C319 C320 1.391 . S
C319 C324 1.391 . S
C319 H349 0.948 . S
C320 C319 1.391 . S
C320 C321 1.391 . S
C321 C320 1.391 . S
C321 C322 1.392 . S
C321 H350 0.947 . S
C322 C321 1.392 . S
C322 C323 1.419 . S
C322 H351 0.948 . S
C323 C322 1.419 . S
C323 C324 1.391 . S
C323 C327 1.397 . S
C324 C319 1.391 . S
C324 C323 1.391 . S
C324 C325 1.399 . S
C325 C324 1.399 . S
C325 C326 1.396 . S
C325 C328 1.453 . S
C325 C329 1.684 . S
C326 C307 1.723 . S
C326 C325 1.396 . S
C326 C327 1.394 . S
C327 C323 1.397 . S
C327 C326 1.394 . S
C327 C337 1.723 . S
C328 C325 1.453 . S
C328 H352 0.982 . S
C328 H353 0.979 . S
C328 H354 0.977 . S
C329 C325 1.684 . S
C329 H355 0.979 . S
C329 H356 0.980 . S
C329 H357 0.983 . S
C330 H306 0.948 . S
C330 C331 1.391 . S
C330 C335 1.391 . S
C331 C330 1.391 . S
C331 C332 1.391 . S
C332 H309 0.947 . S
C332 C331 1.391 . S
C332 C333 1.392 . S
C333 H310 0.948 . S
C333 C332 1.392 . S
C333 C334 1.419 . S
C334 C333 1.419 . S
C334 C335 1.391 . S
C334 C338 1.397 . S
C335 C330 1.391 . S
C335 C334 1.391 . S
C335 C336 1.399 . S
C336 C335 1.399 . S
C336 C337 1.396 . S
C336 C339 1.453 . S
C336 C340 1.684 . S
C337 C327 1.723 . S
C337 C336 1.396 . S
C337 C338 1.394 . S
C338 C308 1.723 . S
C338 C334 1.397 . S
C338 C337 1.394 . S
C339 H311 0.982 . S
C339 H315 0.979 . S
C339 H316 0.977 . S
C339 C336 1.453 . S
C340 H312 0.979 . S
C340 H313 0.980 . S
C340 H314 0.983 . S
C340 C336 1.684 . S
H341 C359 0.948 . S
H342 C300 0.948 . S
H343 C318 0.979 . S
H344 C318 0.980 . S
H345 C318 0.983 . S
H346 C317 0.982 . S
H347 C317 0.979 . S
H348 C317 0.977 . S
H349 C319 0.948 . S
H350 C321 0.947 . S
H351 C322 0.948 . S
H352 C328 0.982 . S
H353 C328 0.979 . S
H354 C328 0.977 . S
H355 C329 0.979 . S
H356 C329 0.980 . S
H357 C329 0.983 . S
H358 C302 0.947 . S
C359 C302 1.392 . S
C359 C303 1.419 . S
C359 H341 0.948 . S
C360 C361 1.391 . S
C360 C364 1.391 . S
C360 H402 0.948 . S
C361 C360 1.391 . S
C361 C362 1.391 . S
C362 C361 1.391 . S
C362 H418 0.947 . S
C362 C419 1.392 . S
C363 C364 1.391 . S
C363 C367 1.397 . S
C363 C419 1.419 . S
C364 C360 1.391 . S
C364 C363 1.391 . S
C364 C365 1.399 . S
C365 C364 1.399 . S
C365 C368 1.396 . S
C365 C377 1.453 . S
C365 C378 1.684 . S
H366 C390 0.948 . S
C367 C363 1.397 . S
C367 C368 1.394 . S
C367 C386 1.723 . S
C368 C365 1.396 . S
C368 C367 1.394 . S
C368 C398 1.723 . S
H369 C392 0.947 . S
H370 C393 0.948 . S
H371 C399 0.982 . S
H372 C400 0.979 . S
H373 C400 0.980 . S
H374 C400 0.983 . S
H375 C399 0.979 . S
H376 C399 0.977 . S
C377 C365 1.453 . S
C377 H406 0.982 . S
C377 H407 0.979 . S
C377 H408 0.977 . S
C378 C365 1.684 . S
C378 H403 0.979 . S
C378 H404 0.980 . S
C378 H405 0.983 . S
C379 C380 1.391 . S
C379 C384 1.391 . S
C379 H409 0.948 . S
C380 C379 1.391 . S
C380 C381 1.391 . S
C381 C380 1.391 . S
C381 C382 1.392 . S
C381 H410 0.947 . S
C382 C381 1.392 . S
C382 C383 1.419 . S
C382 H411 0.948 . S
C383 C382 1.419 . S
C383 C384 1.391 . S
C383 C387 1.397 . S
C384 C379 1.391 . S
C384 C383 1.391 . S
C384 C385 1.399 . S
C385 C384 1.399 . S
C385 C386 1.396 . S
C385 C388 1.453 . S
C385 C389 1.684 . S
C386 C367 1.723 . S
C386 C385 1.396 . S
C386 C387 1.394 . S
C387 C383 1.397 . S
C387 C386 1.394 . S
C387 C397 1.723 . S
C388 C385 1.453 . S
C388 H412 0.982 . S
C388 H413 0.979 . S
C388 H414 0.977 . S
C389 C385 1.684 . S
C389 H415 0.979 . S
C389 H416 0.980 . S
C389 H417 0.983 . S
C390 H366 0.948 . S
C390 C391 1.391 . S
C390 C395 1.391 . S
C391 C390 1.391 . S
C391 C392 1.391 . S
C392 H369 0.947 . S
C392 C391 1.391 . S
C392 C393 1.392 . S
C393 H370 0.948 . S
C393 C392 1.392 . S
C393 C394 1.419 . S
C394 C393 1.419 . S
C394 C395 1.391 . S
C394 C398 1.397 . S
C395 C390 1.391 . S
C395 C394 1.391 . S
C395 C396 1.399 . S
C396 C395 1.399 . S
C396 C397 1.396 . S
C396 C399 1.453 . S
C396 C400 1.684 . S
C397 C387 1.723 . S
C397 C396 1.396 . S
C397 C398 1.394 . S
C398 C368 1.723 . S
C398 C394 1.397 . S
C398 C397 1.394 . S
C399 H371 0.982 . S
C399 H375 0.979 . S
C399 H376 0.977 . S
C399 C396 1.453 . S
C400 H372 0.979 . S
C400 H373 0.980 . S
C400 H374 0.983 . S
C400 C396 1.684 . S
H401 C419 0.948 . S
H402 C360 0.948 . S
H403 C378 0.979 . S
H404 C378 0.980 . S
H405 C378 0.983 . S
H406 C377 0.982 . S
H407 C377 0.979 . S
H408 C377 0.977 . S
H409 C379 0.948 . S
H410 C381 0.947 . S
H411 C382 0.948 . S
H412 C388 0.982 . S
H413 C388 0.979 . S
H414 C388 0.977 . S
H415 C389 0.979 . S
H416 C389 0.980 . S
H417 C389 0.983 . S
H418 C362 0.947 . S
C419 C362 1.392 . S
C419 C363 1.419 . S
C419 H401 0.948 . S
C420 C421 1.391 . S
C420 C424 1.391 . S
C420 H462 0.948 . S
C421 C420 1.391 . S
C421 C422 1.391 . S
C422 C421 1.391 . S
C422 H478 0.947 . S
C422 C479 1.392 . S
C423 C424 1.391 . S
C423 C427 1.397 . S
C423 C479 1.419 . S
C424 C420 1.391 . S
C424 C423 1.391 . S
C424 C425 1.399 . S
C425 C424 1.399 . S
C425 C428 1.396 . S
C425 C437 1.453 . S
C425 C438 1.684 . S
H426 C450 0.948 . S
C427 C423 1.397 . S
C427 C428 1.394 . S
C427 C446 1.723 . S
C428 C425 1.396 . S
C428 C427 1.394 . S
C428 C458 1.723 . S
H429 C452 0.947 . S
H430 C453 0.948 . S
H431 C459 0.982 . S
H432 C460 0.979 . S
H433 C460 0.980 . S
H434 C460 0.983 . S
H435 C459 0.979 . S
H436 C459 0.977 . S
C437 C425 1.453 . S
C437 H466 0.982 . S
C437 H467 0.979 . S
C437 H468 0.977 . S
C438 C425 1.684 . S
C438 H463 0.979 . S
C438 H464 0.980 . S
C438 H465 0.983 . S
C439 C440 1.391 . S
C439 C444 1.391 . S
C439 H469 0.948 . S
C440 C439 1.391 . S
C440 C441 1.391 . S
C441 C440 1.391 . S
C441 C442 1.392 . S
C441 H470 0.947 . S
C442 C441 1.392 . S
C442 C443 1.419 . S
C442 H471 0.948 . S
C443 C442 1.419 . S
C443 C444 1.391 . S
C443 C447 1.397 . S
C444 C439 1.391 . S
C444 C443 1.391 . S
C444 C445 1.399 . S
C445 C444 1.399 . S
C445 C446 1.396 . S
C445 C448 1.453 . S
C445 C449 1.684 . S
C446 C427 1.723 . S
C446 C445 1.396 . S
C446 C447 1.394 . S
C447 C443 1.397 . S
C447 C446 1.394 . S
C447 C457 1.723 . S
C448 C445 1.453 . S
C448 H472 0.982 . S
C448 H473 0.979 . S
C448 H474 0.977 . S
C449 C445 1.684 . S
C449 H475 0.979 . S
C449 H476 0.980 . S
C449 H477 0.983 . S
C450 H426 0.948 . S
C450 C451 1.391 . S
C450 C455 1.391 . S
C451 C450 1.391 . S
C451 C452 1.391 . S
C452 H429 0.947 . S
C452 C451 1.391 . S
C452 C453 1.392 . S
C453 H430 0.948 . S
C453 C452 1.392 . S
C453 C454 1.419 . S
C454 C453 1.419 . S
C454 C455 1.391 . S
C454 C458 1.397 . S
C455 C450 1.391 . S
C455 C454 1.391 . S
C455 C456 1.399 . S
C456 C455 1.399 . S
C456 C457 1.396 . S
C456 C459 1.453 . S
C456 C460 1.684 . S
C457 C447 1.723 . S
C457 C456 1.396 . S
C457 C458 1.394 . S
C458 C428 1.723 . S
C458 C454 1.397 . S
C458 C457 1.394 . S
C459 H431 0.982 . S
C459 H435 0.979 . S
C459 H436 0.977 . S
C459 C456 1.453 . S
C460 H432 0.979 . S
C460 H433 0.980 . S
C460 H434 0.983 . S
C460 C456 1.684 . S
H461 C479 0.948 . S
H462 C420 0.948 . S
H463 C438 0.979 . S
H464 C438 0.980 . S
H465 C438 0.983 . S
H466 C437 0.982 . S
H467 C437 0.979 . S
H468 C437 0.977 . S
H469 C439 0.948 . S
H470 C441 0.947 . S
H471 C442 0.948 . S
H472 C448 0.982 . S
H473 C448 0.979 . S
H474 C448 0.977 . S
H475 C449 0.979 . S
H476 C449 0.980 . S
H477 C449 0.983 . S
H478 C422 0.947 . S
C479 C422 1.392 . S
C479 C423 1.419 . S
C479 H461 0.948 . S
La480 C482 2.928 . S
La480 O500 2.521 . S
La480 O501 2.628 . S
La480 O502 2.554 1_545 S
La480 O503 2.757 1_545 S
La480 O504 2.470 . S
La480 O509 2.482 1_455 S
La480 O511 2.503 1_445 S
La481 C491 2.928 . S
La481 O503 2.482 1_655 S
La481 O505 2.503 1_665 S
La481 O506 2.521 . S
La481 O507 2.628 . S
La481 O508 2.554 1_565 S
La481 O509 2.757 1_565 S
La481 O510 2.470 . S
C482 La480 2.928 . S
C482 C483 1.503 . S
C482 O500 1.261 . S
C482 O501 1.243 . S
C483 C482 1.503 . S
C483 C484 1.394 . S
C483 C488 1.373 . S
C484 C483 1.394 . S
C484 C485 1.380 . S
C484 H512 0.930 . S
C485 C484 1.380 . S
C485 C486 1.376 . S
C485 H513 0.930 . S
C486 C485 1.376 . S
C486 C487 1.370 . S
C487 C486 1.370 . S
C487 C488 1.396 . S
C487 H514 0.929 . S
C488 C483 1.373 . S
C488 C487 1.396 . S
C488 H515 0.929 . S
C489 O502 1.240 . S
C489 O503 1.289 . S
C490 O504 1.258 . S
C490 O505 1.256 . S
C491 La481 2.928 . S
C491 C492 1.503 . S
C491 O506 1.261 . S
C491 O507 1.243 . S
C492 C491 1.503 . S
C492 C493 1.394 . S
C492 C497 1.373 . S
C493 C492 1.394 . S
C493 C494 1.380 . S
C493 H516 0.930 . S
C494 C493 1.380 . S
C494 C495 1.376 . S
C494 H517 0.930 . S
C495 C494 1.376 . S
C495 C496 1.370 . S
C496 C495 1.370 . S
C496 C497 1.396 . S
C496 H518 0.929 . S
C497 C492 1.373 . S
C497 C496 1.396 . S
C497 H519 0.929 . S
C498 O508 1.240 . S
C498 O509 1.289 . S
C499 O510 1.258 . S
C499 O511 1.256 . S
O500 La480 2.521 . S
O500 C482 1.261 . S
O501 La480 2.628 . S
O501 C482 1.243 . S
O502 La480 2.554 1_565 S
O502 C489 1.240 . S
O503 La480 2.757 1_565 S
O503 La481 2.482 1_455 S
O503 C489 1.289 . S
O504 La480 2.470 . S
O504 C490 1.258 . S
O505 La481 2.503 1_445 S
O505 C490 1.256 . S
O506 La481 2.521 . S
O506 C491 1.261 . S
O507 La481 2.628 . S
O507 C491 1.243 . S
O508 La481 2.554 1_545 S
O508 C498 1.240 . S
O509 La480 2.482 1_655 S
O509 La481 2.757 1_545 S
O509 C498 1.289 . S
O510 La481 2.470 . S
O510 C499 1.258 . S
O511 La480 2.503 1_665 S
O511 C499 1.256 . S
H512 C484 0.930 . S
H513 C485 0.930 . S
H514 C487 0.929 . S
H515 C488 0.929 . S
H516 C493 0.930 . S
H517 C494 0.930 . S
H518 C496 0.929 . S
H519 C497 0.929 . S
La520 C522 2.913 1_565 S
La520 O540 2.519 1_565 S
La520 O541 2.603 1_565 S
La520 O542 2.576 . S
La520 O543 2.769 . S
La520 O544 2.456 1_565 S
La520 O549 2.461 1_564 S
La520 O551 2.519 1_554 S
La521 C531 2.906 1_545 S
La521 O543 2.452 1_546 S
La521 O545 2.527 1_556 S
La521 O546 2.518 1_545 S
La521 O547 2.592 1_545 S
La521 O548 2.586 . S
La521 O549 2.775 . S
La521 O550 2.449 1_545 S
C522 La520 2.913 1_545 S
C522 C523 1.503 . S
C522 O540 1.261 . S
C522 O541 1.243 . S
C523 C522 1.503 . S
C523 C524 1.394 . S
C523 C528 1.373 . S
C524 C523 1.394 . S
C524 C525 1.380 . S
C524 H552 0.930 . S
C525 C524 1.380 . S
C525 C526 1.376 . S
C525 H553 0.930 . S
C526 C525 1.376 . S
C526 C527 1.370 . S
C527 C526 1.370 . S
C527 C528 1.396 . S
C527 H554 0.929 . S
C528 C523 1.373 . S
C528 C527 1.396 . S
C528 H555 0.929 . S
C529 O542 1.240 . S
C529 O543 1.289 . S
C530 O544 1.258 . S
C530 O545 1.256 . S
C531 La521 2.906 1_565 S
C531 C532 1.503 . S
C531 O546 1.261 . S
C531 O547 1.243 . S
C532 C531 1.503 . S
C532 C533 1.394 . S
C532 C537 1.373 . S
C533 C532 1.394 . S
C533 C534 1.380 . S
C533 H556 0.930 . S
C534 C533 1.380 . S
C534 C535 1.376 . S
C534 H557 0.930 . S
C535 C534 1.376 . S
C535 C536 1.370 . S
C536 C535 1.370 . S
C536 C537 1.396 . S
C536 H558 0.929 . S
C537 C532 1.373 . S
C537 C536 1.396 . S
C537 H559 0.929 . S
C538 O548 1.240 . S
C538 O549 1.289 . S
C539 O550 1.258 . S
C539 O551 1.256 . S
O540 La520 2.519 1_545 S
O540 C522 1.261 . S
O541 La520 2.603 1_545 S
O541 C522 1.243 . S
O542 La520 2.576 . S
O542 C529 1.240 . S
O543 La520 2.769 . S
O543 La521 2.452 1_564 S
O543 C529 1.289 . S
O544 La520 2.456 1_545 S
O544 C530 1.258 . S
O545 La521 2.527 1_554 S
O545 C530 1.256 . S
O546 La521 2.518 1_565 S
O546 C531 1.261 . S
O547 La521 2.592 1_565 S
O547 C531 1.243 . S
O548 La521 2.586 . S
O548 C538 1.240 . S
O549 La520 2.461 1_546 S
O549 La521 2.775 . S
O549 C538 1.289 . S
O550 La521 2.449 1_565 S
O550 C539 1.258 . S
O551 La520 2.519 1_556 S
O551 C539 1.256 . S
H552 C524 0.930 . S
H553 C525 0.930 . S
H554 C527 0.929 . S
H555 C528 0.929 . S
H556 C533 0.930 . S
H557 C534 0.930 . S
H558 C536 0.929 . S
H559 C537 0.929 . S
La560 C562 2.928 . S
La560 O580 2.521 . S
La560 O581 2.628 . S
La560 O582 2.554 . S
La560 O583 2.757 . S
La560 O584 2.470 . S
La560 O589 2.482 . S
La560 O591 2.503 . S
La561 C571 2.928 . S
La561 O583 2.482 . S
La561 O585 2.503 . S
La561 O586 2.521 . S
La561 O587 2.628 . S
La561 O588 2.554 . S
La561 O589 2.757 . S
La561 O590 2.470 . S
C562 La560 2.928 . S
C562 C563 1.503 . S
C562 O580 1.261 . S
C562 O581 1.243 . S
C563 C562 1.503 . S
C563 C564 1.394 . S
C563 C568 1.373 . S
C564 C563 1.394 . S
C564 C565 1.380 . S
C564 H592 0.930 . S
C565 C564 1.380 . S
C565 C566 1.376 . S
C565 H593 0.930 . S
C566 C565 1.376 . S
C566 C567 1.370 . S
C567 C566 1.370 . S
C567 C568 1.396 . S
C567 H594 0.929 . S
C568 C563 1.373 . S
C568 C567 1.396 . S
C568 H595 0.929 . S
C569 O582 1.240 . S
C569 O583 1.289 . S
C570 O584 1.258 . S
C570 O585 1.256 . S
C571 La561 2.928 . S
C571 C572 1.503 . S
C571 O586 1.261 . S
C571 O587 1.243 . S
C572 C571 1.503 . S
C572 C573 1.394 . S
C572 C577 1.373 . S
C573 C572 1.394 . S
C573 C574 1.380 . S
C573 H596 0.930 . S
C574 C573 1.380 . S
C574 C575 1.376 . S
C574 H597 0.930 . S
C575 C574 1.376 . S
C575 C576 1.370 . S
C576 C575 1.370 . S
C576 C577 1.396 . S
C576 H598 0.929 . S
C577 C572 1.373 . S
C577 C576 1.396 . S
C577 H599 0.929 . S
C578 O588 1.240 . S
C578 O589 1.289 . S
C579 O590 1.258 . S
C579 O591 1.256 . S
O580 La560 2.521 . S
O580 C562 1.261 . S
O581 La560 2.628 . S
O581 C562 1.243 . S
O582 La560 2.554 . S
O582 C569 1.240 . S
O583 La560 2.757 . S
O583 La561 2.482 . S
O583 C569 1.289 . S
O584 La560 2.470 . S
O584 C570 1.258 . S
O585 La561 2.503 . S
O585 C570 1.256 . S
O586 La561 2.521 . S
O586 C571 1.261 . S
O587 La561 2.628 . S
O587 C571 1.243 . S
O588 La561 2.554 . S
O588 C578 1.240 . S
O589 La560 2.482 . S
O589 La561 2.757 . S
O589 C578 1.289 . S
O590 La561 2.470 . S
O590 C579 1.258 . S
O591 La560 2.503 . S
O591 C579 1.256 . S
H592 C564 0.930 . S
H593 C565 0.930 . S
H594 C567 0.929 . S
H595 C568 0.929 . S
H596 C573 0.930 . S
H597 C574 0.930 . S
H598 C576 0.929 . S
H599 C577 0.929 . S
La600 C602 2.928 . S
La600 O620 2.521 . S
La600 O621 2.628 . S
La600 O622 2.554 1_455 S
La600 O623 2.757 1_455 S
La600 O624 2.470 . S
La600 O629 2.482 1_554 S
La600 O631 2.503 1_454 S
La601 C611 2.928 . S
La601 O623 2.482 1_556 S
La601 O625 2.503 1_656 S
La601 O626 2.521 . S
La601 O627 2.628 . S
La601 O628 2.554 1_655 S
La601 O629 2.757 1_655 S
La601 O630 2.470 . S
C602 La600 2.928 . S
C602 C603 1.503 . S
C602 O620 1.261 . S
C602 O621 1.243 . S
C603 C602 1.503 . S
C603 C604 1.394 . S
C603 C608 1.373 . S
C604 C603 1.394 . S
C604 C605 1.380 . S
C604 H632 0.930 . S
C605 C604 1.380 . S
C605 C606 1.376 . S
C605 H633 0.930 . S
C606 C605 1.376 . S
C606 C607 1.370 . S
C607 C606 1.370 . S
C607 C608 1.396 . S
C607 H634 0.929 . S
C608 C603 1.373 . S
C608 C607 1.396 . S
C608 H635 0.929 . S
C609 O622 1.240 . S
C609 O623 1.289 . S
C610 O624 1.258 . S
C610 O625 1.256 . S
C611 La601 2.928 . S
C611 C612 1.503 . S
C611 O626 1.261 . S
C611 O627 1.243 . S
C612 C611 1.503 . S
C612 C613 1.394 . S
C612 C617 1.373 . S
C613 C612 1.394 . S
C613 C614 1.380 . S
C613 H636 0.930 . S
C614 C613 1.380 . S
C614 C615 1.376 . S
C614 H637 0.930 . S
C615 C614 1.376 . S
C615 C616 1.370 . S
C616 C615 1.370 . S
C616 C617 1.396 . S
C616 H638 0.929 . S
C617 C612 1.373 . S
C617 C616 1.396 . S
C617 H639 0.929 . S
C618 O628 1.240 . S
C618 O629 1.289 . S
C619 O630 1.258 . S
C619 O631 1.256 . S
O620 La600 2.521 . S
O620 C602 1.261 . S
O621 La600 2.628 . S
O621 C602 1.243 . S
O622 La600 2.554 1_655 S
O622 C609 1.240 . S
O623 La600 2.757 1_655 S
O623 La601 2.482 1_554 S
O623 C609 1.289 . S
O624 La600 2.470 . S
O624 C610 1.258 . S
O625 La601 2.503 1_454 S
O625 C610 1.256 . S
O626 La601 2.521 . S
O626 C611 1.261 . S
O627 La601 2.628 . S
O627 C611 1.243 . S
O628 La601 2.554 1_455 S
O628 C618 1.240 . S
O629 La600 2.482 1_556 S
O629 La601 2.757 1_455 S
O629 C618 1.289 . S
O630 La601 2.470 . S
O630 C619 1.258 . S
O631 La600 2.503 1_656 S
O631 C619 1.256 . S
H632 C604 0.930 . S
H633 C605 0.930 . S
H634 C607 0.929 . S
H635 C608 0.929 . S
H636 C613 0.930 . S
H637 C614 0.930 . S
H638 C616 0.929 . S
H639 C617 0.929 . S
H640 C648 0.929 . S
H641 C650 0.930 . S
H642 C652 0.930 . S
H643 C655 0.929 . S
H644 C658 0.930 . S
H645 C660 0.960 . S
H646 C660 0.960 . S
H647 C660 0.960 . S
C648 H640 0.929 . S
C648 C649 1.377 . S
C648 C650 1.384 . S
C649 C648 1.377 . S
C649 C655 1.390 . S
C650 H641 0.930 . S
C650 C648 1.384 . S
C650 C651 1.372 . S
C651 C650 1.372 . S
C651 C652 1.400 . S
C651 C656 1.490 . S
C652 H642 0.930 . S
C652 C651 1.400 . S
C652 C655 1.386 . S
H653 C669 0.930 . S
H654 C670 0.931 . S
C655 H643 0.929 . S
C655 C649 1.390 . S
C655 C652 1.386 . S
C656 C651 1.490 . S
C656 C658 1.395 . S
C656 C659 1.403 . S
H657 C663 0.930 . S
C658 H644 0.930 . S
C658 C656 1.395 . S
C658 C661 1.403 . S
C659 C656 1.403 . S
C659 C660 1.524 . S
C659 C663 1.400 . S
C660 H645 0.960 . S
C660 H646 0.960 . S
C660 H647 0.960 . S
C660 C659 1.524 . S
C661 C658 1.403 . S
C661 C662 1.392 . S
C661 C665 1.495 . S
C662 C661 1.392 . S
C662 C663 1.385 . S
C662 C664 1.478 . S
C663 H657 0.930 . S
C663 C659 1.400 . S
C663 C662 1.385 . S
C664 C662 1.478 . S
C664 C666 1.381 . S
C664 C670 1.383 . S
C665 C661 1.495 . S
C665 H671 0.959 . S
C665 H672 0.961 . S
C665 H673 0.960 . S
C666 C664 1.381 . S
C666 C667 1.394 . S
C666 H674 0.930 . S
C667 C666 1.394 . S
C667 C668 1.383 . S
C667 H675 0.929 . S
C668 C667 1.383 . S
C668 C669 1.377 . S
C669 H653 0.930 . S
C669 C668 1.377 . S
C669 C670 1.379 . S
C670 H654 0.931 . S
C670 C664 1.383 . S
C670 C669 1.379 . S
H671 C665 0.959 . S
H672 C665 0.961 . S
H673 C665 0.960 . S
H674 C666 0.930 . S
H675 C667 0.929 . S
H676 C684 0.929 . S
H677 C686 0.930 . S
H678 C688 0.930 . S
H679 C691 0.929 . S
H680 C694 0.930 . S
H681 C696 0.960 . S
H682 C696 0.960 . S
H683 C696 0.960 . S
C684 H676 0.929 . S
C684 C685 1.377 . S
C684 C686 1.384 . S
C685 C684 1.377 . S
C685 C691 1.390 . S
C686 H677 0.930 . S
C686 C684 1.384 . S
C686 C687 1.372 . S
C687 C686 1.372 . S
C687 C688 1.400 . S
C687 C692 1.490 . S
C688 H678 0.930 . S
C688 C687 1.400 . S
C688 C691 1.386 . S
H689 C705 0.930 . S
H690 C706 0.931 . S
C691 H679 0.929 . S
C691 C685 1.390 . S
C691 C688 1.386 . S
C692 C687 1.490 . S
C692 C694 1.395 . S
C692 C695 1.403 . S
H693 C699 0.930 . S
C694 H680 0.930 . S
C694 C692 1.395 . S
C694 C697 1.403 . S
C695 C692 1.403 . S
C695 C696 1.524 . S
C695 C699 1.400 . S
C696 H681 0.960 . S
C696 H682 0.960 . S
C696 H683 0.960 . S
C696 C695 1.524 . S
C697 C694 1.403 . S
C697 C698 1.392 . S
C697 C701 1.495 . S
C698 C697 1.392 . S
C698 C699 1.385 . S
C698 C700 1.478 . S
C699 H693 0.930 . S
C699 C695 1.400 . S
C699 C698 1.385 . S
C700 C698 1.478 . S
C700 C702 1.381 . S
C700 C706 1.383 . S
C701 C697 1.495 . S
C701 H707 0.959 . S
C701 H708 0.961 . S
C701 H709 0.960 . S
C702 C700 1.381 . S
C702 C703 1.394 . S
C702 H710 0.930 . S
C703 C702 1.394 . S
C703 C704 1.383 . S
C703 H711 0.929 . S
C704 C703 1.383 . S
C704 C705 1.377 . S
C705 H689 0.930 . S
C705 C704 1.377 . S
C705 C706 1.379 . S
C706 H690 0.931 . S
C706 C700 1.383 . S
C706 C705 1.379 . S
H707 C701 0.959 . S
H708 C701 0.961 . S
H709 C701 0.960 . S
H710 C702 0.930 . S
H711 C703 0.929 . S
H712 C720 0.929 . S
H713 C722 0.930 . S
H714 C724 0.930 . S
H715 C727 0.929 . S
H716 C730 0.930 . S
H717 C732 0.960 . S
H718 C732 0.960 . S
H719 C732 0.960 . S
C720 H712 0.929 . S
C720 C721 1.377 . S
C720 C722 1.384 . S
C721 C720 1.377 . S
C721 C727 1.390 . S
C722 H713 0.930 . S
C722 C720 1.384 . S
C722 C723 1.372 . S
C723 C722 1.372 . S
C723 C724 1.400 . S
C723 C728 1.490 . S
C724 H714 0.930 . S
C724 C723 1.400 . S
C724 C727 1.386 . S
H725 C741 0.930 . S
H726 C742 0.931 . S
C727 H715 0.929 . S
C727 C721 1.390 . S
C727 C724 1.386 . S
C728 C723 1.490 . S
C728 C730 1.395 . S
C728 C731 1.403 . S
H729 C735 0.930 . S
C730 H716 0.930 . S
C730 C728 1.395 . S
C730 C733 1.403 . S
C731 C728 1.403 . S
C731 C732 1.524 . S
C731 C735 1.400 . S
C732 H717 0.960 . S
C732 H718 0.960 . S
C732 H719 0.960 . S
C732 C731 1.524 . S
C733 C730 1.403 . S
C733 C734 1.392 . S
C733 C737 1.495 . S
C734 C733 1.392 . S
C734 C735 1.385 . S
C734 C736 1.478 . S
C735 H729 0.930 . S
C735 C731 1.400 . S
C735 C734 1.385 . S
C736 C734 1.478 . S
C736 C738 1.381 . S
C736 C742 1.383 . S
C737 C733 1.495 . S
C737 H743 0.959 . S
C737 H744 0.961 . S
C737 H745 0.960 . S
C738 C736 1.381 . S
C738 C739 1.394 . S
C738 H746 0.930 . S
C739 C738 1.394 . S
C739 C740 1.383 . S
C739 H747 0.929 . S
C740 C739 1.383 . S
C740 C741 1.377 . S
C741 H725 0.930 . S
C741 C740 1.377 . S
C741 C742 1.379 . S
C742 H726 0.931 . S
C742 C736 1.383 . S
C742 C741 1.379 . S
H743 C737 0.959 . S
H744 C737 0.961 . S
H745 C737 0.960 . S
H746 C738 0.930 . S
H747 C739 0.929 . S
H748 C756 0.929 . S
H749 C758 0.930 . S
H750 C760 0.930 . S
H751 C763 0.929 . S
H752 C766 0.930 . S
H753 C768 0.960 . S
H754 C768 0.960 . S
H755 C768 0.960 . S
C756 H748 0.929 . S
C756 C757 1.377 . S
C756 C758 1.384 . S
C757 C756 1.377 . S
C757 C763 1.390 . S
C758 H749 0.930 . S
C758 C756 1.384 . S
C758 C759 1.372 . S
C759 C758 1.372 . S
C759 C760 1.400 . S
C759 C764 1.490 . S
C760 H750 0.930 . S
C760 C759 1.400 . S
C760 C763 1.386 . S
H761 C777 0.930 . S
H762 C778 0.931 . S
C763 H751 0.929 . S
C763 C757 1.390 . S
C763 C760 1.386 . S
C764 C759 1.490 . S
C764 C766 1.395 . S
C764 C767 1.403 . S
H765 C771 0.930 . S
C766 H752 0.930 . S
C766 C764 1.395 . S
C766 C769 1.403 . S
C767 C764 1.403 . S
C767 C768 1.524 . S
C767 C771 1.400 . S
C768 H753 0.960 . S
C768 H754 0.960 . S
C768 H755 0.960 . S
C768 C767 1.524 . S
C769 C766 1.403 . S
C769 C770 1.392 . S
C769 C773 1.495 . S
C770 C769 1.392 . S
C770 C771 1.385 . S
C770 C772 1.478 . S
C771 H765 0.930 . S
C771 C767 1.400 . S
C771 C770 1.385 . S
C772 C770 1.478 . S
C772 C774 1.381 . S
C772 C778 1.383 . S
C773 C769 1.495 . S
C773 H779 0.959 . S
C773 H780 0.961 . S
C773 H781 0.960 . S
C774 C772 1.381 . S
C774 C775 1.394 . S
C774 H782 0.930 . S
C775 C774 1.394 . S
C775 C776 1.383 . S
C775 H783 0.929 . S
C776 C775 1.383 . S
C776 C777 1.377 . S
C777 H761 0.930 . S
C777 C776 1.377 . S
C777 C778 1.379 . S
C778 H762 0.931 . S
C778 C772 1.383 . S
C778 C777 1.379 . S
H779 C773 0.959 . S
H780 C773 0.961 . S
H781 C773 0.960 . S
H782 C774 0.930 . S
H783 C775 0.929 . S
H784 C792 0.929 . S
H785 C794 0.930 . S
H786 C796 0.930 . S
H787 C799 0.929 . S
H788 C802 0.930 . S
H789 C804 0.960 . S
H790 C804 0.960 . S
H791 C804 0.960 . S
C792 H784 0.929 . S
C792 C793 1.377 . S
C792 C794 1.384 . S
C793 C792 1.377 . S
C793 C799 1.390 . S
C794 H785 0.930 . S
C794 C792 1.384 . S
C794 C795 1.372 . S
C795 C794 1.372 . S
C795 C796 1.400 . S
C795 C800 1.490 . S
C796 H786 0.930 . S
C796 C795 1.400 . S
C796 C799 1.386 . S
H797 C813 0.930 . S
H798 C814 0.931 . S
C799 H787 0.929 . S
C799 C793 1.390 . S
C799 C796 1.386 . S
C800 C795 1.490 . S
C800 C802 1.395 . S
C800 C803 1.403 . S
H801 C807 0.930 . S
C802 H788 0.930 . S
C802 C800 1.395 . S
C802 C805 1.403 . S
C803 C800 1.403 . S
C803 C804 1.524 . S
C803 C807 1.400 . S
C804 H789 0.960 . S
C804 H790 0.960 . S
C804 H791 0.960 . S
C804 C803 1.524 . S
C805 C802 1.403 . S
C805 C806 1.392 . S
C805 C809 1.495 . S
C806 C805 1.392 . S
C806 C807 1.385 . S
C806 C808 1.478 . S
C807 H801 0.930 . S
C807 C803 1.400 . S
C807 C806 1.385 . S
C808 C806 1.478 . S
C808 C810 1.381 . S
C808 C814 1.383 . S
C809 C805 1.495 . S
C809 H815 0.959 . S
C809 H816 0.961 . S
C809 H817 0.960 . S
C810 C808 1.381 . S
C810 C811 1.394 . S
C810 H818 0.930 . S
C811 C810 1.394 . S
C811 C812 1.383 . S
C811 H819 0.929 . S
C812 C811 1.383 . S
C812 C813 1.377 . S
C813 H797 0.930 . S
C813 C812 1.377 . S
C813 C814 1.379 . S
C814 H798 0.931 . S
C814 C808 1.383 . S
C814 C813 1.379 . S
H815 C809 0.959 . S
H816 C809 0.961 . S
H817 C809 0.960 . S
H818 C810 0.930 . S
H819 C811 0.929 . S
H820 C828 0.929 . S
H821 C830 0.930 . S
H822 C832 0.930 . S
H823 C835 0.929 . S
H824 C838 0.930 . S
H825 C840 0.960 . S
H826 C840 0.960 . S
H827 C840 0.960 . S
C828 H820 0.929 . S
C828 C829 1.377 . S
C828 C830 1.384 . S
C829 C828 1.377 . S
C829 C835 1.390 . S
C830 H821 0.930 . S
C830 C828 1.384 . S
C830 C831 1.372 . S
C831 C830 1.372 . S
C831 C832 1.400 . S
C831 C836 1.490 . S
C832 H822 0.930 . S
C832 C831 1.400 . S
C832 C835 1.386 . S
H833 C849 0.930 . S
H834 C850 0.931 . S
C835 H823 0.929 . S
C835 C829 1.390 . S
C835 C832 1.386 . S
C836 C831 1.490 . S
C836 C838 1.395 . S
C836 C839 1.403 . S
H837 C843 0.930 . S
C838 H824 0.930 . S
C838 C836 1.395 . S
C838 C841 1.403 . S
C839 C836 1.403 . S
C839 C840 1.524 . S
C839 C843 1.400 . S
C840 H825 0.960 . S
C840 H826 0.960 . S
C840 H827 0.960 . S
C840 C839 1.524 . S
C841 C838 1.403 . S
C841 C842 1.392 . S
C841 C845 1.495 . S
C842 C841 1.392 . S
C842 C843 1.385 . S
C842 C844 1.478 . S
C843 H837 0.930 . S
C843 C839 1.400 . S
C843 C842 1.385 . S
C844 C842 1.478 . S
C844 C846 1.381 . S
C844 C850 1.383 . S
C845 C841 1.495 . S
C845 H851 0.959 . S
C845 H852 0.961 . S
C845 H853 0.960 . S
C846 C844 1.381 . S
C846 C847 1.394 . S
C846 H854 0.930 . S
C847 C846 1.394 . S
C847 C848 1.383 . S
C847 H855 0.929 . S
C848 C847 1.383 . S
C848 C849 1.377 . S
C849 H833 0.930 . S
C849 C848 1.377 . S
C849 C850 1.379 . S
C850 H834 0.931 . S
C850 C844 1.383 . S
C850 C849 1.379 . S
H851 C845 0.959 . S
H852 C845 0.961 . S
H853 C845 0.960 . S
H854 C846 0.930 . S
H855 C847 0.929 . S
H856 C864 0.929 . S
H857 C866 0.930 . S
H858 C868 0.930 . S
H859 C871 0.929 . S
H860 C874 0.930 . S
H861 C876 0.960 . S
H862 C876 0.960 . S
H863 C876 0.960 . S
C864 H856 0.929 . S
C864 C865 1.377 . S
C864 C866 1.384 . S
C865 C864 1.377 . S
C865 C871 1.390 . S
C866 H857 0.930 . S
C866 C864 1.384 . S
C866 C867 1.372 . S
C867 C866 1.372 . S
C867 C868 1.400 . S
C867 C872 1.490 . S
C868 H858 0.930 . S
C868 C867 1.400 . S
C868 C871 1.386 . S
H869 C885 0.930 . S
H870 C886 0.931 . S
C871 H859 0.929 . S
C871 C865 1.390 . S
C871 C868 1.386 . S
C872 C867 1.490 . S
C872 C874 1.395 . S
C872 C875 1.403 . S
H873 C879 0.930 . S
C874 H860 0.930 . S
C874 C872 1.395 . S
C874 C877 1.403 . S
C875 C872 1.403 . S
C875 C876 1.524 . S
C875 C879 1.400 . S
C876 H861 0.960 . S
C876 H862 0.960 . S
C876 H863 0.960 . S
C876 C875 1.524 . S
C877 C874 1.403 . S
C877 C878 1.392 . S
C877 C881 1.495 . S
C878 C877 1.392 . S
C878 C879 1.385 . S
C878 C880 1.478 . S
C879 H873 0.930 . S
C879 C875 1.400 . S
C879 C878 1.385 . S
C880 C878 1.478 . S
C880 C882 1.381 . S
C880 C886 1.383 . S
C881 C877 1.495 . S
C881 H887 0.959 . S
C881 H888 0.961 . S
C881 H889 0.960 . S
C882 C880 1.381 . S
C882 C883 1.394 . S
C882 H890 0.930 . S
C883 C882 1.394 . S
C883 C884 1.383 . S
C883 H891 0.929 . S
C884 C883 1.383 . S
C884 C885 1.377 . S
C885 H869 0.930 . S
C885 C884 1.377 . S
C885 C886 1.379 . S
C886 H870 0.931 . S
C886 C880 1.383 . S
C886 C885 1.379 . S
H887 C881 0.959 . S
H888 C881 0.961 . S
H889 C881 0.960 . S
H890 C882 0.930 . S
H891 C883 0.929 . S
H892 C900 0.929 . S
H893 C902 0.930 . S
H894 C904 0.930 . S
H895 C907 0.929 . S
H896 C910 0.930 . S
H897 C912 0.960 . S
H898 C912 0.960 . S
H899 C912 0.960 . S
C900 H892 0.929 . S
C900 C901 1.377 . S
C900 C902 1.384 . S
C901 C900 1.377 . S
C901 C907 1.390 . S
C902 H893 0.930 . S
C902 C900 1.384 . S
C902 C903 1.372 . S
C903 C902 1.372 . S
C903 C904 1.400 . S
C903 C908 1.490 . S
C904 H894 0.930 . S
C904 C903 1.400 . S
C904 C907 1.386 . S
H905 C921 0.930 . S
H906 C922 0.931 . S
C907 H895 0.929 . S
C907 C901 1.390 . S
C907 C904 1.386 . S
C908 C903 1.490 . S
C908 C910 1.395 . S
C908 C911 1.403 . S
H909 C915 0.930 . S
C910 H896 0.930 . S
C910 C908 1.395 . S
C910 C913 1.403 . S
C911 C908 1.403 . S
C911 C912 1.524 . S
C911 C915 1.400 . S
C912 H897 0.960 . S
C912 H898 0.960 . S
C912 H899 0.960 . S
C912 C911 1.524 . S
C913 C910 1.403 . S
C913 C914 1.392 . S
C913 C917 1.495 . S
C914 C913 1.392 . S
C914 C915 1.385 . S
C914 C916 1.478 . S
C915 H909 0.930 . S
C915 C911 1.400 . S
C915 C914 1.385 . S
C916 C914 1.478 . S
C916 C918 1.381 . S
C916 C922 1.383 . S
C917 C913 1.495 . S
C917 H923 0.959 . S
C917 H924 0.961 . S
C917 H925 0.960 . S
C918 C916 1.381 . S
C918 C919 1.394 . S
C918 H926 0.930 . S
C919 C918 1.394 . S
C919 C920 1.383 . S
C919 H927 0.929 . S
C920 C919 1.383 . S
C920 C921 1.377 . S
C921 H905 0.930 . S
C921 C920 1.377 . S
C921 C922 1.379 . S
C922 H906 0.931 . S
C922 C916 1.383 . S
C922 C921 1.379 . S
H923 C917 0.959 . S
H924 C917 0.961 . S
H925 C917 0.960 . S
H926 C918 0.930 . S
H927 C919 0.929 . S
H928 C936 0.929 . S
H929 C938 0.930 . S
H930 C940 0.930 . S
H931 C943 0.929 . S
H932 C946 0.930 . S
H933 C948 0.960 . S
H934 C948 0.960 . S
H935 C948 0.960 . S
C936 H928 0.929 . S
C936 C937 1.377 . S
C936 C938 1.384 . S
C937 C936 1.377 . S
C937 C943 1.390 . S
C938 H929 0.930 . S
C938 C936 1.384 . S
C938 C939 1.372 . S
C939 C938 1.372 . S
C939 C940 1.400 . S
C939 C944 1.490 . S
C940 H930 0.930 . S
C940 C939 1.400 . S
C940 C943 1.386 . S
H941 C957 0.930 . S
H942 C958 0.931 . S
C943 H931 0.929 . S
C943 C937 1.390 . S
C943 C940 1.386 . S
C944 C939 1.490 . S
C944 C946 1.395 . S
C944 C947 1.403 . S
H945 C951 0.930 . S
C946 H932 0.930 . S
C946 C944 1.395 . S
C946 C949 1.403 . S
C947 C944 1.403 . S
C947 C948 1.524 . S
C947 C951 1.400 . S
C948 H933 0.960 . S
C948 H934 0.960 . S
C948 H935 0.960 . S
C948 C947 1.524 . S
C949 C946 1.403 . S
C949 C950 1.392 . S
C949 C953 1.495 . S
C950 C949 1.392 . S
C950 C951 1.385 . S
C950 C952 1.478 . S
C951 H945 0.930 . S
C951 C947 1.400 . S
C951 C950 1.385 . S
C952 C950 1.478 . S
C952 C954 1.381 . S
C952 C958 1.383 . S
C953 C949 1.495 . S
C953 H959 0.959 . S
C953 H960 0.961 . S
C953 H961 0.960 . S
C954 C952 1.381 . S
C954 C955 1.394 . S
C954 H962 0.930 . S
C955 C954 1.394 . S
C955 C956 1.383 . S
C955 H963 0.929 . S
C956 C955 1.383 . S
C956 C957 1.377 . S
C957 H941 0.930 . S
C957 C956 1.377 . S
C957 C958 1.379 . S
C958 H942 0.931 . S
C958 C952 1.383 . S
C958 C957 1.379 . S
H959 C953 0.959 . S
H960 C953 0.961 . S
H961 C953 0.960 . S
H962 C954 0.930 . S
H963 C955 0.929 . S
H964 C972 0.929 . S
H965 C974 0.930 . S
H966 C976 0.930 . S
H967 C979 0.929 . S
H968 C982 0.930 . S
H969 C984 0.960 . S
H970 C984 0.960 . S
H971 C984 0.960 . S
C972 H964 0.929 . S
C972 C973 1.377 . S
C972 C974 1.384 . S
C973 C972 1.377 . S
C973 C979 1.390 . S
C974 H965 0.930 . S
C974 C972 1.384 . S
C974 C975 1.372 . S
C975 C974 1.372 . S
C975 C976 1.400 . S
C975 C980 1.490 . S
C976 H966 0.930 . S
C976 C975 1.400 . S
C976 C979 1.386 . S
H977 C993 0.930 . S
H978 C994 0.931 . S
C979 H967 0.929 . S
C979 C973 1.390 . S
C979 C976 1.386 . S
C980 C975 1.490 . S
C980 C982 1.395 . S
C980 C983 1.403 . S
H981 C987 0.930 . S
C982 H968 0.930 . S
C982 C980 1.395 . S
C982 C985 1.403 . S
C983 C980 1.403 . S
C983 C984 1.524 . S
C983 C987 1.400 . S
C984 H969 0.960 . S
C984 H970 0.960 . S
C984 H971 0.960 . S
C984 C983 1.524 . S
C985 C982 1.403 . S
C985 C986 1.392 . S
C985 C989 1.495 . S
C986 C985 1.392 . S
C986 C987 1.385 . S
C986 C988 1.478 . S
C987 H981 0.930 . S
C987 C983 1.400 . S
C987 C986 1.385 . S
C988 C986 1.478 . S
C988 C990 1.381 . S
C988 C994 1.383 . S
C989 C985 1.495 . S
C989 H995 0.959 . S
C989 H996 0.961 . S
C989 H997 0.960 . S
C990 C988 1.381 . S
C990 C991 1.394 . S
C990 H998 0.930 . S
C991 C990 1.394 . S
C991 C992 1.383 . S
C991 H999 0.929 . S
C992 C991 1.383 . S
C992 C993 1.377 . S
C993 H977 0.930 . S
C993 C992 1.377 . S
C993 C994 1.379 . S
C994 H978 0.931 . S
C994 C988 1.383 . S
C994 C993 1.379 . S
H995 C989 0.959 . S
H996 C989 0.961 . S
H997 C989 0.960 . S
H998 C990 0.930 . S
H999 C991 0.929 . S
H1000 C1008 0.929 . S
H1001 C1010 0.930 . S
H1002 C1012 0.930 . S
H1003 C1015 0.929 . S
H1004 C1018 0.930 . S
H1005 C1020 0.960 . S
H1006 C1020 0.960 . S
H1007 C1020 0.960 . S
C1008 H1000 0.929 . S
C1008 C1009 1.377 . S
C1008 C1010 1.384 . S
C1009 C1008 1.377 . S
C1009 C1015 1.390 . S
C1010 H1001 0.930 . S
C1010 C1008 1.384 . S
C1010 C1011 1.372 . S
C1011 C1010 1.372 . S
C1011 C1012 1.400 . S
C1011 C1016 1.490 . S
C1012 H1002 0.930 . S
C1012 C1011 1.400 . S
C1012 C1015 1.386 . S
H1013 C1029 0.930 . S
H1014 C1030 0.931 . S
C1015 H1003 0.929 . S
C1015 C1009 1.390 . S
C1015 C1012 1.386 . S
C1016 C1011 1.490 . S
C1016 C1018 1.395 . S
C1016 C1019 1.403 . S
H1017 C1023 0.930 . S
C1018 H1004 0.930 . S
C1018 C1016 1.395 . S
C1018 C1021 1.403 . S
C1019 C1016 1.403 . S
C1019 C1020 1.524 . S
C1019 C1023 1.400 . S
C1020 H1005 0.960 . S
C1020 H1006 0.960 . S
C1020 H1007 0.960 . S
C1020 C1019 1.524 . S
C1021 C1018 1.403 . S
C1021 C1022 1.392 . S
C1021 C1025 1.495 . S
C1022 C1021 1.392 . S
C1022 C1023 1.385 . S
C1022 C1024 1.478 . S
C1023 H1017 0.930 . S
C1023 C1019 1.400 . S
C1023 C1022 1.385 . S
C1024 C1022 1.478 . S
C1024 C1026 1.381 . S
C1024 C1030 1.383 . S
C1025 C1021 1.495 . S
C1025 H1031 0.959 . S
C1025 H1032 0.961 . S
C1025 H1033 0.960 . S
C1026 C1024 1.381 . S
C1026 C1027 1.394 . S
C1026 H1034 0.930 . S
C1027 C1026 1.394 . S
C1027 C1028 1.383 . S
C1027 H1035 0.929 . S
C1028 C1027 1.383 . S
C1028 C1029 1.377 . S
C1029 H1013 0.930 . S
C1029 C1028 1.377 . S
C1029 C1030 1.379 . S
C1030 H1014 0.931 . S
C1030 C1024 1.383 . S
C1030 C1029 1.379 . S
H1031 C1025 0.959 . S
H1032 C1025 0.961 . S
H1033 C1025 0.960 . S
H1034 C1026 0.930 . S
H1035 C1027 0.929 . S
H1036 C1044 0.929 . S
H1037 C1046 0.930 . S
H1038 C1048 0.930 . S
H1039 C1051 0.929 . S
H1040 C1054 0.930 . S
H1041 C1056 0.960 . S
H1042 C1056 0.960 . S
H1043 C1056 0.960 . S
C1044 H1036 0.929 . S
C1044 C1045 1.377 . S
C1044 C1046 1.384 . S
C1045 C1044 1.377 . S
C1045 C1051 1.390 . S
C1046 H1037 0.930 . S
C1046 C1044 1.384 . S
C1046 C1047 1.372 . S
C1047 C1046 1.372 . S
C1047 C1048 1.400 . S
C1047 C1052 1.490 . S
C1048 H1038 0.930 . S
C1048 C1047 1.400 . S
C1048 C1051 1.386 . S
H1049 C1065 0.930 . S
H1050 C1066 0.931 . S
C1051 H1039 0.929 . S
C1051 C1045 1.390 . S
C1051 C1048 1.386 . S
C1052 C1047 1.490 . S
C1052 C1054 1.395 . S
C1052 C1055 1.403 . S
H1053 C1059 0.930 . S
C1054 H1040 0.930 . S
C1054 C1052 1.395 . S
C1054 C1057 1.403 . S
C1055 C1052 1.403 . S
C1055 C1056 1.524 . S
C1055 C1059 1.400 . S
C1056 H1041 0.960 . S
C1056 H1042 0.960 . S
C1056 H1043 0.960 . S
C1056 C1055 1.524 . S
C1057 C1054 1.403 . S
C1057 C1058 1.392 . S
C1057 C1061 1.495 . S
C1058 C1057 1.392 . S
C1058 C1059 1.385 . S
C1058 C1060 1.478 . S
C1059 H1053 0.930 . S
C1059 C1055 1.400 . S
C1059 C1058 1.385 . S
C1060 C1058 1.478 . S
C1060 C1062 1.381 . S
C1060 C1066 1.383 . S
C1061 C1057 1.495 . S
C1061 H1067 0.959 . S
C1061 H1068 0.961 . S
C1061 H1069 0.960 . S
C1062 C1060 1.381 . S
C1062 C1063 1.394 . S
C1062 H1070 0.930 . S
C1063 C1062 1.394 . S
C1063 C1064 1.383 . S
C1063 H1071 0.929 . S
C1064 C1063 1.383 . S
C1064 C1065 1.377 . S
C1065 H1049 0.930 . S
C1065 C1064 1.377 . S
C1065 C1066 1.379 . S
C1066 H1050 0.931 . S
C1066 C1060 1.383 . S
C1066 C1065 1.379 . S
H1067 C1061 0.959 . S
H1068 C1061 0.961 . S
H1069 C1061 0.960 . S
H1070 C1062 0.930 . S
H1071 C1063 0.929 . S
H1072 C1080 0.929 . S
H1073 C1082 0.930 . S
H1074 C1084 0.930 . S
H1075 C1087 0.929 . S
H1076 C1090 0.930 . S
H1077 C1092 0.960 . S
H1078 C1092 0.960 . S
H1079 C1092 0.960 . S
C1080 H1072 0.929 . S
C1080 C1081 1.377 . S
C1080 C1082 1.384 . S
C1081 C1080 1.377 . S
C1081 C1087 1.390 . S
C1082 H1073 0.930 . S
C1082 C1080 1.384 . S
C1082 C1083 1.372 . S
C1083 C1082 1.372 . S
C1083 C1084 1.400 . S
C1083 C1088 1.490 . S
C1084 H1074 0.930 . S
C1084 C1083 1.400 . S
C1084 C1087 1.386 . S
H1085 C1101 0.930 . S
H1086 C1102 0.931 . S
C1087 H1075 0.929 . S
C1087 C1081 1.390 . S
C1087 C1084 1.386 . S
C1088 C1083 1.490 . S
C1088 C1090 1.395 . S
C1088 C1091 1.403 . S
H1089 C1095 0.930 . S
C1090 H1076 0.930 . S
C1090 C1088 1.395 . S
C1090 C1093 1.403 . S
C1091 C1088 1.403 . S
C1091 C1092 1.524 . S
C1091 C1095 1.400 . S
C1092 H1077 0.960 . S
C1092 H1078 0.960 . S
C1092 H1079 0.960 . S
C1092 C1091 1.524 . S
C1093 C1090 1.403 . S
C1093 C1094 1.392 . S
C1093 C1097 1.495 . S
C1094 C1093 1.392 . S
C1094 C1095 1.385 . S
C1094 C1096 1.478 . S
C1095 H1089 0.930 . S
C1095 C1091 1.400 . S
C1095 C1094 1.385 . S
C1096 C1094 1.478 . S
C1096 C1098 1.381 . S
C1096 C1102 1.383 . S
C1097 C1093 1.495 . S
C1097 H1103 0.959 . S
C1097 H1104 0.961 . S
C1097 H1105 0.960 . S
C1098 C1096 1.381 . S
C1098 C1099 1.394 . S
C1098 H1106 0.930 . S
C1099 C1098 1.394 . S
C1099 C1100 1.383 . S
C1099 H1107 0.929 . S
C1100 C1099 1.383 . S
C1100 C1101 1.377 . S
C1101 H1085 0.930 . S
C1101 C1100 1.377 . S
C1101 C1102 1.379 . S
C1102 H1086 0.931 . S
C1102 C1096 1.383 . S
C1102 C1101 1.379 . S
H1103 C1097 0.959 . S
H1104 C1097 0.961 . S
H1105 C1097 0.960 . S
H1106 C1098 0.930 . S
H1107 C1099 0.929 . S
H1108 C1116 0.929 . S
H1109 C1118 0.930 . S
H1110 C1120 0.930 . S
H1111 C1123 0.929 . S
H1112 C1126 0.930 . S
H1113 C1128 0.960 . S
H1114 C1128 0.960 . S
H1115 C1128 0.960 . S
C1116 H1108 0.929 . S
C1116 C1117 1.377 . S
C1116 C1118 1.384 . S
C1117 C1116 1.377 . S
C1117 C1123 1.390 . S
C1118 H1109 0.930 . S
C1118 C1116 1.384 . S
C1118 C1119 1.372 . S
C1119 C1118 1.372 . S
C1119 C1120 1.400 . S
C1119 C1124 1.490 . S
C1120 H1110 0.930 . S
C1120 C1119 1.400 . S
C1120 C1123 1.386 . S
H1121 C1137 0.930 . S
H1122 C1138 0.931 . S
C1123 H1111 0.929 . S
C1123 C1117 1.390 . S
C1123 C1120 1.386 . S
C1124 C1119 1.490 . S
C1124 C1126 1.395 . S
C1124 C1127 1.403 . S
H1125 C1131 0.930 . S
C1126 H1112 0.930 . S
C1126 C1124 1.395 . S
C1126 C1129 1.403 . S
C1127 C1124 1.403 . S
C1127 C1128 1.524 . S
C1127 C1131 1.400 . S
C1128 H1113 0.960 . S
C1128 H1114 0.960 . S
C1128 H1115 0.960 . S
C1128 C1127 1.524 . S
C1129 C1126 1.403 . S
C1129 C1130 1.392 . S
C1129 C1133 1.495 . S
C1130 C1129 1.392 . S
C1130 C1131 1.385 . S
C1130 C1132 1.478 . S
C1131 H1125 0.930 . S
C1131 C1127 1.400 . S
C1131 C1130 1.385 . S
C1132 C1130 1.478 . S
C1132 C1134 1.381 . S
C1132 C1138 1.383 . S
C1133 C1129 1.495 . S
C1133 H1139 0.959 . S
C1133 H1140 0.961 . S
C1133 H1141 0.960 . S
C1134 C1132 1.381 . S
C1134 C1135 1.394 . S
C1134 H1142 0.930 . S
C1135 C1134 1.394 . S
C1135 C1136 1.383 . S
C1135 H1143 0.929 . S
C1136 C1135 1.383 . S
C1136 C1137 1.377 . S
C1137 H1121 0.930 . S
C1137 C1136 1.377 . S
C1137 C1138 1.379 . S
C1138 H1122 0.931 . S
C1138 C1132 1.383 . S
C1138 C1137 1.379 . S
H1139 C1133 0.959 . S
H1140 C1133 0.961 . S
H1141 C1133 0.960 . S
H1142 C1134 0.930 . S
H1143 C1135 0.929 . S
H1144 C1152 0.929 . S
H1145 C1154 0.930 . S
H1146 C1156 0.930 . S
H1147 C1159 0.929 . S
H1148 C1162 0.930 . S
H1149 C1164 0.960 . S
H1150 C1164 0.960 . S
H1151 C1164 0.960 . S
C1152 H1144 0.929 . S
C1152 C1153 1.377 . S
C1152 C1154 1.384 . S
C1153 C1152 1.377 . S
C1153 C1159 1.390 . S
C1154 H1145 0.930 . S
C1154 C1152 1.384 . S
C1154 C1155 1.372 . S
C1155 C1154 1.372 . S
C1155 C1156 1.400 . S
C1155 C1160 1.490 . S
C1156 H1146 0.930 . S
C1156 C1155 1.400 . S
C1156 C1159 1.386 . S
H1157 C1173 0.930 . S
H1158 C1174 0.931 . S
C1159 H1147 0.929 . S
C1159 C1153 1.390 . S
C1159 C1156 1.386 . S
C1160 C1155 1.490 . S
C1160 C1162 1.395 . S
C1160 C1163 1.403 . S
H1161 C1167 0.930 . S
C1162 H1148 0.930 . S
C1162 C1160 1.395 . S
C1162 C1165 1.403 . S
C1163 C1160 1.403 . S
C1163 C1164 1.524 . S
C1163 C1167 1.400 . S
C1164 H1149 0.960 . S
C1164 H1150 0.960 . S
C1164 H1151 0.960 . S
C1164 C1163 1.524 . S
C1165 C1162 1.403 . S
C1165 C1166 1.392 . S
C1165 C1169 1.495 . S
C1166 C1165 1.392 . S
C1166 C1167 1.385 . S
C1166 C1168 1.478 . S
C1167 H1161 0.930 . S
C1167 C1163 1.400 . S
C1167 C1166 1.385 . S
C1168 C1166 1.478 . S
C1168 C1170 1.381 . S
C1168 C1174 1.383 . S
C1169 C1165 1.495 . S
C1169 H1175 0.959 . S
C1169 H1176 0.961 . S
C1169 H1177 0.960 . S
C1170 C1168 1.381 . S
C1170 C1171 1.394 . S
C1170 H1178 0.930 . S
C1171 C1170 1.394 . S
C1171 C1172 1.383 . S
C1171 H1179 0.929 . S
C1172 C1171 1.383 . S
C1172 C1173 1.377 . S
C1173 H1157 0.930 . S
C1173 C1172 1.377 . S
C1173 C1174 1.379 . S
C1174 H1158 0.931 . S
C1174 C1168 1.383 . S
C1174 C1173 1.379 . S
H1175 C1169 0.959 . S
H1176 C1169 0.961 . S
H1177 C1169 0.960 . S
H1178 C1170 0.930 . S
H1179 C1171 0.929 . S
H1180 C1188 0.929 . S
H1181 C1190 0.930 . S
H1182 C1192 0.930 . S
H1183 C1195 0.929 . S
H1184 C1198 0.930 . S
H1185 C1200 0.960 . S
H1186 C1200 0.960 . S
H1187 C1200 0.960 . S
C1188 H1180 0.929 . S
C1188 C1189 1.377 . S
C1188 C1190 1.384 . S
C1189 C1188 1.377 . S
C1189 C1195 1.390 . S
C1190 H1181 0.930 . S
C1190 C1188 1.384 . S
C1190 C1191 1.372 . S
C1191 C1190 1.372 . S
C1191 C1192 1.400 . S
C1191 C1196 1.490 . S
C1192 H1182 0.930 . S
C1192 C1191 1.400 . S
C1192 C1195 1.386 . S
H1193 C1209 0.930 . S
H1194 C1210 0.931 . S
C1195 H1183 0.929 . S
C1195 C1189 1.390 . S
C1195 C1192 1.386 . S
C1196 C1191 1.490 . S
C1196 C1198 1.395 . S
C1196 C1199 1.403 . S
H1197 C1203 0.930 . S
C1198 H1184 0.930 . S
C1198 C1196 1.395 . S
C1198 C1201 1.403 . S
C1199 C1196 1.403 . S
C1199 C1200 1.524 . S
C1199 C1203 1.400 . S
C1200 H1185 0.960 . S
C1200 H1186 0.960 . S
C1200 H1187 0.960 . S
C1200 C1199 1.524 . S
C1201 C1198 1.403 . S
C1201 C1202 1.392 . S
C1201 C1205 1.495 . S
C1202 C1201 1.392 . S
C1202 C1203 1.385 . S
C1202 C1204 1.478 . S
C1203 H1197 0.930 . S
C1203 C1199 1.400 . S
C1203 C1202 1.385 . S
C1204 C1202 1.478 . S
C1204 C1206 1.381 . S
C1204 C1210 1.383 . S
C1205 C1201 1.495 . S
C1205 H1211 0.959 . S
C1205 H1212 0.961 . S
C1205 H1213 0.960 . S
C1206 C1204 1.381 . S
C1206 C1207 1.394 . S
C1206 H1214 0.930 . S
C1207 C1206 1.394 . S
C1207 C1208 1.383 . S
C1207 H1215 0.929 . S
C1208 C1207 1.383 . S
C1208 C1209 1.377 . S
C1209 H1193 0.930 . S
C1209 C1208 1.377 . S
C1209 C1210 1.379 . S
C1210 H1194 0.931 . S
C1210 C1204 1.383 . S
C1210 C1209 1.379 . S
H1211 C1205 0.959 . S
H1212 C1205 0.961 . S
H1213 C1205 0.960 . S
H1214 C1206 0.930 . S
H1215 C1207 0.929 . S
H1216 C1224 0.929 . S
H1217 C1226 0.930 . S
H1218 C1228 0.930 . S
H1219 C1231 0.929 . S
H1220 C1234 0.930 . S
H1221 C1236 0.960 . S
H1222 C1236 0.960 . S
H1223 C1236 0.960 . S
C1224 H1216 0.929 . S
C1224 C1225 1.377 . S
C1224 C1226 1.384 . S
C1225 C1224 1.377 . S
C1225 C1231 1.390 . S
C1226 H1217 0.930 . S
C1226 C1224 1.384 . S
C1226 C1227 1.372 . S
C1227 C1226 1.372 . S
C1227 C1228 1.400 . S
C1227 C1232 1.490 . S
C1228 H1218 0.930 . S
C1228 C1227 1.400 . S
C1228 C1231 1.386 . S
H1229 C1245 0.930 . S
H1230 C1246 0.931 . S
C1231 H1219 0.929 . S
C1231 C1225 1.390 . S
C1231 C1228 1.386 . S
C1232 C1227 1.490 . S
C1232 C1234 1.395 . S
C1232 C1235 1.403 . S
H1233 C1239 0.930 . S
C1234 H1220 0.930 . S
C1234 C1232 1.395 . S
C1234 C1237 1.403 . S
C1235 C1232 1.403 . S
C1235 C1236 1.524 . S
C1235 C1239 1.400 . S
C1236 H1221 0.960 . S
C1236 H1222 0.960 . S
C1236 H1223 0.960 . S
C1236 C1235 1.524 . S
C1237 C1234 1.403 . S
C1237 C1238 1.392 . S
C1237 C1241 1.495 . S
C1238 C1237 1.392 . S
C1238 C1239 1.385 . S
C1238 C1240 1.478 . S
C1239 H1233 0.930 . S
C1239 C1235 1.400 . S
C1239 C1238 1.385 . S
C1240 C1238 1.478 . S
C1240 C1242 1.381 . S
C1240 C1246 1.383 . S
C1241 C1237 1.495 . S
C1241 H1247 0.959 . S
C1241 H1248 0.961 . S
C1241 H1249 0.960 . S
C1242 C1240 1.381 . S
C1242 C1243 1.394 . S
C1242 H1250 0.930 . S
C1243 C1242 1.394 . S
C1243 C1244 1.383 . S
C1243 H1251 0.929 . S
C1244 C1243 1.383 . S
C1244 C1245 1.377 . S
C1245 H1229 0.930 . S
C1245 C1244 1.377 . S
C1245 C1246 1.379 . S
C1246 H1230 0.931 . S
C1246 C1240 1.383 . S
C1246 C1245 1.379 . S
H1247 C1241 0.959 . S
H1248 C1241 0.961 . S
H1249 C1241 0.960 . S
H1250 C1242 0.930 . S
H1251 C1243 0.929 . S
H1252 C1260 0.929 . S
H1253 C1262 0.930 . S
H1254 C1264 0.930 . S
H1255 C1267 0.929 . S
H1256 C1270 0.930 . S
H1257 C1272 0.960 . S
H1258 C1272 0.960 . S
H1259 C1272 0.960 . S
C1260 H1252 0.929 . S
C1260 C1261 1.377 . S
C1260 C1262 1.384 . S
C1261 C1260 1.377 . S
C1261 C1267 1.390 . S
C1262 H1253 0.930 . S
C1262 C1260 1.384 . S
C1262 C1263 1.372 . S
C1263 C1262 1.372 . S
C1263 C1264 1.400 . S
C1263 C1268 1.490 . S
C1264 H1254 0.930 . S
C1264 C1263 1.400 . S
C1264 C1267 1.386 . S
H1265 C1281 0.930 . S
H1266 C1282 0.931 . S
C1267 H1255 0.929 . S
C1267 C1261 1.390 . S
C1267 C1264 1.386 . S
C1268 C1263 1.490 . S
C1268 C1270 1.395 . S
C1268 C1271 1.403 . S
H1269 C1275 0.930 . S
C1270 H1256 0.930 . S
C1270 C1268 1.395 . S
C1270 C1273 1.403 . S
C1271 C1268 1.403 . S
C1271 C1272 1.524 . S
C1271 C1275 1.400 . S
C1272 H1257 0.960 . S
C1272 H1258 0.960 . S
C1272 H1259 0.960 . S
C1272 C1271 1.524 . S
C1273 C1270 1.403 . S
C1273 C1274 1.392 . S
C1273 C1277 1.495 . S
C1274 C1273 1.392 . S
C1274 C1275 1.385 . S
C1274 C1276 1.478 . S
C1275 H1269 0.930 . S
C1275 C1271 1.400 . S
C1275 C1274 1.385 . S
C1276 C1274 1.478 . S
C1276 C1278 1.381 . S
C1276 C1282 1.383 . S
C1277 C1273 1.495 . S
C1277 H1283 0.959 . S
C1277 H1284 0.961 . S
C1277 H1285 0.960 . S
C1278 C1276 1.381 . S
C1278 C1279 1.394 . S
C1278 H1286 0.930 . S
C1279 C1278 1.394 . S
C1279 C1280 1.383 . S
C1279 H1287 0.886 1_545 S
C1280 C1279 1.383 . S
C1280 C1281 1.377 . S
C1281 H1265 0.930 . S
C1281 C1280 1.377 . S
C1281 C1282 1.379 . S
C1282 H1266 0.931 . S
C1282 C1276 1.383 . S
C1282 C1281 1.379 . S
H1283 C1277 0.959 . S
H1284 C1277 0.961 . S
H1285 C1277 0.960 . S
H1286 C1278 0.930 . S
H1287 C1279 0.886 1_565 S
H1288 C1296 0.929 . S
H1289 C1298 0.930 . S
H1290 C1300 0.930 . S
H1291 C1303 0.929 . S
H1292 C1306 0.930 . S
H1293 C1308 0.960 . S
H1294 C1308 0.960 . S
H1295 C1308 0.960 . S
C1296 H1288 0.929 . S
C1296 C1297 1.377 . S
C1296 C1298 1.384 . S
C1297 C1296 1.377 . S
C1297 C1303 1.390 . S
C1298 H1289 0.930 . S
C1298 C1296 1.384 . S
C1298 C1299 1.372 . S
C1299 C1298 1.372 . S
C1299 C1300 1.400 . S
C1299 C1304 1.490 . S
C1300 H1290 0.930 . S
C1300 C1299 1.400 . S
C1300 C1303 1.386 . S
H1301 C1317 0.930 . S
H1302 C1318 0.931 . S
C1303 H1291 0.929 . S
C1303 C1297 1.390 . S
C1303 C1300 1.386 . S
C1304 C1299 1.490 . S
C1304 C1306 1.395 . S
C1304 C1307 1.403 . S
H1305 C1311 0.930 . S
C1306 H1292 0.930 . S
C1306 C1304 1.395 . S
C1306 C1309 1.403 . S
C1307 C1304 1.403 . S
C1307 C1308 1.524 . S
C1307 C1311 1.400 . S
C1308 H1293 0.960 . S
C1308 H1294 0.960 . S
C1308 H1295 0.960 . S
C1308 C1307 1.524 . S
C1309 C1306 1.403 . S
C1309 C1310 1.392 . S
C1309 C1313 1.495 . S
C1310 C1309 1.392 . S
C1310 C1311 1.385 . S
C1310 C1312 1.478 . S
C1311 H1305 0.930 . S
C1311 C1307 1.400 . S
C1311 C1310 1.385 . S
C1312 C1310 1.478 . S
C1312 C1314 1.381 . S
C1312 C1318 1.383 . S
C1313 C1309 1.495 . S
C1313 H1319 0.959 . S
C1313 H1320 0.961 . S
C1313 H1321 0.960 . S
C1314 C1312 1.381 . S
C1314 C1315 1.394 . S
C1314 H1322 0.930 . S
C1315 C1314 1.394 . S
C1315 C1316 1.383 . S
C1315 H1323 0.929 . S
C1316 C1315 1.383 . S
C1316 C1317 1.377 . S
C1317 H1301 0.930 . S
C1317 C1316 1.377 . S
C1317 C1318 1.379 . S
C1318 H1302 0.931 . S
C1318 C1312 1.383 . S
C1318 C1317 1.379 . S
H1319 C1313 0.959 . S
H1320 C1313 0.961 . S
H1321 C1313 0.960 . S
H1322 C1314 0.930 . S
H1323 C1315 0.929 . S
H1324 C1332 0.929 . S
H1325 C1334 0.930 . S
H1326 C1336 0.930 . S
H1327 C1339 0.929 . S
H1328 C1342 0.930 . S
H1329 C1344 0.960 . S
H1330 C1344 0.960 . S
H1331 C1344 0.960 . S
C1332 H1324 0.929 . S
C1332 C1333 1.377 . S
C1332 C1334 1.384 . S
C1333 C1332 1.377 . S
C1333 C1339 1.390 . S
C1334 H1325 0.930 . S
C1334 C1332 1.384 . S
C1334 C1335 1.372 . S
C1335 C1334 1.372 . S
C1335 C1336 1.400 . S
C1335 C1340 1.490 . S
C1336 H1326 0.930 . S
C1336 C1335 1.400 . S
C1336 C1339 1.386 . S
H1337 C1353 0.930 . S
H1338 C1354 0.931 . S
C1339 H1327 0.929 . S
C1339 C1333 1.390 . S
C1339 C1336 1.386 . S
C1340 C1335 1.490 . S
C1340 C1342 1.395 . S
C1340 C1343 1.403 . S
H1341 C1347 0.930 . S
C1342 H1328 0.930 . S
C1342 C1340 1.395 . S
C1342 C1345 1.403 . S
C1343 C1340 1.403 . S
C1343 C1344 1.524 . S
C1343 C1347 1.400 . S
C1344 H1329 0.960 . S
C1344 H1330 0.960 . S
C1344 H1331 0.960 . S
C1344 C1343 1.524 . S
C1345 C1342 1.403 . S
C1345 C1346 1.392 . S
C1345 C1349 1.495 . S
C1346 C1345 1.392 . S
C1346 C1347 1.385 . S
C1346 C1348 1.478 . S
C1347 H1341 0.930 . S
C1347 C1343 1.400 . S
C1347 C1346 1.385 . S
C1348 C1346 1.478 . S
C1348 C1350 1.381 . S
C1348 C1354 1.383 . S
C1349 C1345 1.495 . S
C1349 H1355 0.959 . S
C1349 H1356 0.961 . S
C1349 H1357 0.960 . S
C1350 C1348 1.381 . S
C1350 C1351 1.394 . S
C1350 H1358 0.930 . S
C1351 C1350 1.394 . S
C1351 C1352 1.383 . S
C1351 H1359 0.929 . S
C1352 C1351 1.383 . S
C1352 C1353 1.377 . S
C1353 H1337 0.930 . S
C1353 C1352 1.377 . S
C1353 C1354 1.379 . S
C1354 H1338 0.931 . S
C1354 C1348 1.383 . S
C1354 C1353 1.379 . S
H1355 C1349 0.959 . S
H1356 C1349 0.961 . S
H1357 C1349 0.960 . S
H1358 C1350 0.930 . S
H1359 C1351 0.929 . S
H1360 C1368 0.929 . S
H1361 C1370 0.930 . S
H1362 C1372 0.930 . S
H1363 C1375 0.929 . S
H1364 C1378 0.930 . S
H1365 C1380 0.960 . S
H1366 C1380 0.960 . S
H1367 C1380 0.960 . S
C1368 H1360 0.929 . S
C1368 C1369 1.377 . S
C1368 C1370 1.384 . S
C1369 C1368 1.377 . S
C1369 C1375 1.390 . S
C1370 H1361 0.930 . S
C1370 C1368 1.384 . S
C1370 C1371 1.372 . S
C1371 C1370 1.372 . S
C1371 C1372 1.400 . S
C1371 C1376 1.490 . S
C1372 H1362 0.930 . S
C1372 C1371 1.400 . S
C1372 C1375 1.386 . S
H1373 C1389 0.930 . S
H1374 C1390 0.931 . S
C1375 H1363 0.929 . S
C1375 C1369 1.390 . S
C1375 C1372 1.386 . S
C1376 C1371 1.490 . S
C1376 C1378 1.395 . S
C1376 C1379 1.403 . S
H1377 C1383 0.930 . S
C1378 H1364 0.930 . S
C1378 C1376 1.395 . S
C1378 C1381 1.403 . S
C1379 C1376 1.403 . S
C1379 C1380 1.524 . S
C1379 C1383 1.400 . S
C1380 H1365 0.960 . S
C1380 H1366 0.960 . S
C1380 H1367 0.960 . S
C1380 C1379 1.524 . S
C1381 C1378 1.403 . S
C1381 C1382 1.392 . S
C1381 C1385 1.495 . S
C1382 C1381 1.392 . S
C1382 C1383 1.385 . S
C1382 C1384 1.478 . S
C1383 H1377 0.930 . S
C1383 C1379 1.400 . S
C1383 C1382 1.385 . S
C1384 C1382 1.478 . S
C1384 C1386 1.381 . S
C1384 C1390 1.383 . S
C1385 C1381 1.495 . S
C1385 H1391 0.959 . S
C1385 H1392 0.961 . S
C1385 H1393 0.960 . S
C1386 C1384 1.381 . S
C1386 C1387 1.394 . S
C1386 H1394 0.930 . S
C1387 C1386 1.394 . S
C1387 C1388 1.383 . S
C1387 H1395 0.929 . S
C1388 C1387 1.383 . S
C1388 C1389 1.377 . S
C1389 H1373 0.930 . S
C1389 C1388 1.377 . S
C1389 C1390 1.379 . S
C1390 H1374 0.931 . S
C1390 C1384 1.383 . S
C1390 C1389 1.379 . S
H1391 C1385 0.959 . S
H1392 C1385 0.961 . S
H1393 C1385 0.960 . S
H1394 C1386 0.930 . S
H1395 C1387 0.929 . S
H1396 C1404 0.929 . S
H1397 C1406 0.930 . S
H1398 C1408 0.930 . S
H1399 C1411 0.929 . S
H1400 C1414 0.930 . S
H1401 C1416 0.960 . S
H1402 C1416 0.960 . S
H1403 C1416 0.960 . S
C1404 H1396 0.929 . S
C1404 C1405 1.377 . S
C1404 C1406 1.384 . S
C1405 C1404 1.377 . S
C1405 C1411 1.390 . S
C1406 H1397 0.930 . S
C1406 C1404 1.384 . S
C1406 C1407 1.372 . S
C1407 C1406 1.372 . S
C1407 C1408 1.400 . S
C1407 C1412 1.490 . S
C1408 H1398 0.930 . S
C1408 C1407 1.400 . S
C1408 C1411 1.386 . S
H1409 C1425 0.930 . S
H1410 C1426 0.931 . S
C1411 H1399 0.929 . S
C1411 C1405 1.390 . S
C1411 C1408 1.386 . S
C1412 C1407 1.490 . S
C1412 C1414 1.395 . S
C1412 C1415 1.403 . S
H1413 C1419 0.930 . S
C1414 H1400 0.930 . S
C1414 C1412 1.395 . S
C1414 C1417 1.403 . S
C1415 C1412 1.403 . S
C1415 C1416 1.524 . S
C1415 C1419 1.400 . S
C1416 H1401 0.960 . S
C1416 H1402 0.960 . S
C1416 H1403 0.960 . S
C1416 C1415 1.524 . S
C1417 C1414 1.403 . S
C1417 C1418 1.392 . S
C1417 C1421 1.495 . S
C1418 C1417 1.392 . S
C1418 C1419 1.385 . S
C1418 C1420 1.478 . S
C1419 H1413 0.930 . S
C1419 C1415 1.400 . S
C1419 C1418 1.385 . S
C1420 C1418 1.478 . S
C1420 C1422 1.381 . S
C1420 C1426 1.383 . S
C1421 C1417 1.495 . S
C1421 H1427 0.959 . S
C1421 H1428 0.961 . S
C1421 H1429 0.960 . S
C1422 C1420 1.381 . S
C1422 C1423 1.394 . S
C1422 H1430 0.930 . S
C1423 C1422 1.394 . S
C1423 C1424 1.383 . S
C1423 H1431 0.929 . S
C1424 C1423 1.383 . S
C1424 C1425 1.377 . S
C1425 H1409 0.930 . S
C1425 C1424 1.377 . S
C1425 C1426 1.379 . S
C1426 H1410 0.931 . S
C1426 C1420 1.383 . S
C1426 C1425 1.379 . S
H1427 C1421 0.959 . S
H1428 C1421 0.961 . S
H1429 C1421 0.960 . S
H1430 C1422 0.930 . S
H1431 C1423 0.929 . S
H1432 C1440 0.929 . S
H1433 C1442 0.930 . S
H1434 C1444 0.930 . S
H1435 C1447 0.929 . S
H1436 C1450 0.930 . S
H1437 C1452 0.960 . S
H1438 C1452 0.960 . S
H1439 C1452 0.960 . S
C1440 H1432 0.929 . S
C1440 C1441 1.377 . S
C1440 C1442 1.384 . S
C1441 C1440 1.377 . S
C1441 C1447 1.390 . S
C1442 H1433 0.930 . S
C1442 C1440 1.384 . S
C1442 C1443 1.372 . S
C1443 C1442 1.372 . S
C1443 C1444 1.400 . S
C1443 C1448 1.490 . S
C1444 H1434 0.930 . S
C1444 C1443 1.400 . S
C1444 C1447 1.386 . S
H1445 C1461 0.930 . S
H1446 C1462 0.931 . S
C1447 H1435 0.929 . S
C1447 C1441 1.390 . S
C1447 C1444 1.386 . S
C1448 C1443 1.490 . S
C1448 C1450 1.395 . S
C1448 C1451 1.403 . S
H1449 C1455 0.930 . S
C1450 H1436 0.930 . S
C1450 C1448 1.395 . S
C1450 C1453 1.403 . S
C1451 C1448 1.403 . S
C1451 C1452 1.524 . S
C1451 C1455 1.400 . S
C1452 H1437 0.960 . S
C1452 H1438 0.960 . S
C1452 H1439 0.960 . S
C1452 C1451 1.524 . S
C1453 C1450 1.403 . S
C1453 C1454 1.392 . S
C1453 C1457 1.495 . S
C1454 C1453 1.392 . S
C1454 C1455 1.385 . S
C1454 C1456 1.478 . S
C1455 H1449 0.930 . S
C1455 C1451 1.400 . S
C1455 C1454 1.385 . S
C1456 C1454 1.478 . S
C1456 C1458 1.381 . S
C1456 C1462 1.383 . S
C1457 C1453 1.495 . S
C1457 H1463 0.959 . S
C1457 H1464 0.961 . S
C1457 H1465 0.960 . S
C1458 C1456 1.381 . S
C1458 C1459 1.394 . S
C1458 H1466 0.930 . S
C1459 C1458 1.394 . S
C1459 C1460 1.383 . S
C1459 H1467 0.929 . S
C1460 C1459 1.383 . S
C1460 C1461 1.377 . S
C1461 H1445 0.930 . S
C1461 C1460 1.377 . S
C1461 C1462 1.379 . S
C1462 H1446 0.931 . S
C1462 C1456 1.383 . S
C1462 C1461 1.379 . S
H1463 C1457 0.959 . S
H1464 C1457 0.961 . S
H1465 C1457 0.960 . S
H1466 C1458 0.930 . S
H1467 C1459 0.929 . S
H1468 C1476 0.929 . S
H1469 C1478 0.930 . S
H1470 C1480 0.930 . S
H1471 C1483 0.929 . S
H1472 C1486 0.930 . S
H1473 C1488 0.960 . S
H1474 C1488 0.960 . S
H1475 C1488 0.960 . S
C1476 H1468 0.929 . S
C1476 C1477 1.377 . S
C1476 C1478 1.384 . S
C1477 C1476 1.377 . S
C1477 C1483 1.390 . S
C1478 H1469 0.930 . S
C1478 C1476 1.384 . S
C1478 C1479 1.372 . S
C1479 C1478 1.372 . S
C1479 C1480 1.400 . S
C1479 C1484 1.490 . S
C1480 H1470 0.930 . S
C1480 C1479 1.400 . S
C1480 C1483 1.386 . S
H1481 C1497 0.930 . S
H1482 C1498 0.931 . S
C1483 H1471 0.929 . S
C1483 C1477 1.390 . S
C1483 C1480 1.386 . S
C1484 C1479 1.490 . S
C1484 C1486 1.395 . S
C1484 C1487 1.403 . S
H1485 C1491 0.930 . S
C1486 H1472 0.930 . S
C1486 C1484 1.395 . S
C1486 C1489 1.403 . S
C1487 C1484 1.403 . S
C1487 C1488 1.524 . S
C1487 C1491 1.400 . S
C1488 H1473 0.960 . S
C1488 H1474 0.960 . S
C1488 H1475 0.960 . S
C1488 C1487 1.524 . S
C1489 C1486 1.403 . S
C1489 C1490 1.392 . S
C1489 C1493 1.495 . S
C1490 C1489 1.392 . S
C1490 C1491 1.385 . S
C1490 C1492 1.478 . S
C1491 H1485 0.930 . S
C1491 C1487 1.400 . S
C1491 C1490 1.385 . S
C1492 C1490 1.478 . S
C1492 C1494 1.381 . S
C1492 C1498 1.383 . S
C1493 C1489 1.495 . S
C1493 H1499 0.959 . S
C1493 H1500 0.961 . S
C1493 H1501 0.960 . S
C1494 C1492 1.381 . S
C1494 C1495 1.394 . S
C1494 H1502 0.930 . S
C1495 C1494 1.394 . S
C1495 C1496 1.383 . S
C1495 H1503 0.929 . S
C1496 C1495 1.383 . S
C1496 C1497 1.377 . S
C1497 H1481 0.930 . S
C1497 C1496 1.377 . S
C1497 C1498 1.379 . S
C1498 H1482 0.931 . S
C1498 C1492 1.383 . S
C1498 C1497 1.379 . S
H1499 C1493 0.959 . S
H1500 C1493 0.961 . S
H1501 C1493 0.960 . S
H1502 C1494 0.930 . S
H1503 C1495 0.929 . S
C649 C1 1.134 . S
C668 C486 1.224 . S
C685 C80 0.896 . S
C704 C535 0.912 . S
C740 C570 2.458 . S
C721 C140 2.470 . S
C757 C211 2.320 . S
C776 C609 2.288 . S
C812 C530 2.450 . S
C793 C31 2.267 . S
C848 C489 0.900 . S
C829 C61 0.880 . S
C884 C619 1.839 . S
C865 C151 1.885 . S
C920 C578 1.521 . S
C901 C200 1.547 . S
C937 C20 1.650 . S
C956 C606 1.726 . S
C992 C538 2.298 . S
C973 C121 2.390 . S
C1009 C181 2.309 . S
C1028 C499 2.321 . S
C1045 C91 0.709 . S
C1064 C575 0.714 . S
C1100 C495 1.201 . S
C1081 C260 1.163 . S
C1117 C320 0.892 . S
C1136 C526 0.923 . S
C1153 C361 2.469 . S
C1172 C579 2.469 . S
C1189 C451 2.320 . S
C1208 C618 2.275 . S
C1225 C271 2.322 . S
C1244 C539 2.451 . S
C1280 C498 0.911 . S
C1261 C301 0.876 . S
C1316 C610 1.869 . S
C1297 C380 1.873 . S
C1352 C569 1.535 . S
C1333 C440 1.543 . S
C1369 C241 1.587 . S
C1388 C615 1.725 . S
C1424 C529 2.310 . S
C1405 C391 2.384 . S
C1460 C490 2.332 . S
C1441 C421 2.310 . S
C1477 C331 0.711 . S
C1496 C566 0.729 . S
