# Generated by pormake.
# Topology tbo, (3,4)-cn, num edge types: 1
# Building blocks:
#     Node 0, Type 0, BuildingBlock: MIDCAF_clean_linker_0, # of connection points: 3
#     Node 1, Type 0, BuildingBlock: MIDCAF_clean_linker_0, # of connection points: 3
#     Node 2, Type 0, BuildingBlock: MIDCAF_clean_linker_0, # of connection points: 3
#     Node 3, Type 0, BuildingBlock: MIDCAF_clean_linker_0, # of connection points: 3
#     Node 4, Type 0, BuildingBlock: MIDCAF_clean_linker_0, # of connection points: 3
#     Node 5, Type 0, BuildingBlock: MIDCAF_clean_linker_0, # of connection points: 3
#     Node 6, Type 0, BuildingBlock: MIDCAF_clean_linker_0, # of connection points: 3
#     Node 7, Type 0, BuildingBlock: MIDCAF_clean_linker_0, # of connection points: 3
#     Node 8, Type 0, BuildingBlock: MIDCAF_clean_linker_0, # of connection points: 3
#     Node 9, Type 0, BuildingBlock: MIDCAF_clean_linker_0, # of connection points: 3
#     Node 10, Type 0, BuildingBlock: MIDCAF_clean_linker_0, # of connection points: 3
#     Node 11, Type 0, BuildingBlock: MIDCAF_clean_linker_0, # of connection points: 3
#     Node 12, Type 0, BuildingBlock: MIDCAF_clean_linker_0, # of connection points: 3
#     Node 13, Type 0, BuildingBlock: MIDCAF_clean_linker_0, # of connection points: 3
#     Node 14, Type 0, BuildingBlock: MIDCAF_clean_linker_0, # of connection points: 3
#     Node 15, Type 0, BuildingBlock: MIDCAF_clean_linker_0, # of connection points: 3
#     Node 16, Type 0, BuildingBlock: MIDCAF_clean_linker_0, # of connection points: 3
#     Node 17, Type 0, BuildingBlock: MIDCAF_clean_linker_0, # of connection points: 3
#     Node 18, Type 0, BuildingBlock: MIDCAF_clean_linker_0, # of connection points: 3
#     Node 19, Type 0, BuildingBlock: MIDCAF_clean_linker_0, # of connection points: 3
#     Node 20, Type 0, BuildingBlock: MIDCAF_clean_linker_0, # of connection points: 3
#     Node 21, Type 0, BuildingBlock: MIDCAF_clean_linker_0, # of connection points: 3
#     Node 22, Type 0, BuildingBlock: MIDCAF_clean_linker_0, # of connection points: 3
#     Node 23, Type 0, BuildingBlock: MIDCAF_clean_linker_0, # of connection points: 3
#     Node 24, Type 0, BuildingBlock: MIDCAF_clean_linker_0, # of connection points: 3
#     Node 25, Type 0, BuildingBlock: MIDCAF_clean_linker_0, # of connection points: 3
#     Node 26, Type 0, BuildingBlock: MIDCAF_clean_linker_0, # of connection points: 3
#     Node 27, Type 0, BuildingBlock: MIDCAF_clean_linker_0, # of connection points: 3
#     Node 28, Type 0, BuildingBlock: MIDCAF_clean_linker_0, # of connection points: 3
#     Node 29, Type 0, BuildingBlock: MIDCAF_clean_linker_0, # of connection points: 3
#     Node 30, Type 0, BuildingBlock: MIDCAF_clean_linker_0, # of connection points: 3
#     Node 31, Type 0, BuildingBlock: MIDCAF_clean_linker_0, # of connection points: 3
#     Node 32, Type 1, BuildingBlock: ESEHIV_clean_sbu_0, # of connection points: 4
#     Node 33, Type 1, BuildingBlock: ESEHIV_clean_sbu_0, # of connection points: 4
#     Node 34, Type 1, BuildingBlock: ESEHIV_clean_sbu_0, # of connection points: 4
#     Node 35, Type 1, BuildingBlock: ESEHIV_clean_sbu_0, # of connection points: 4
#     Node 36, Type 1, BuildingBlock: ESEHIV_clean_sbu_0, # of connection points: 4
#     Node 37, Type 1, BuildingBlock: ESEHIV_clean_sbu_0, # of connection points: 4
#     Node 38, Type 1, BuildingBlock: ESEHIV_clean_sbu_0, # of connection points: 4
#     Node 39, Type 1, BuildingBlock: ESEHIV_clean_sbu_0, # of connection points: 4
#     Node 40, Type 1, BuildingBlock: ESEHIV_clean_sbu_0, # of connection points: 4
#     Node 41, Type 1, BuildingBlock: ESEHIV_clean_sbu_0, # of connection points: 4
#     Node 42, Type 1, BuildingBlock: ESEHIV_clean_sbu_0, # of connection points: 4
#     Node 43, Type 1, BuildingBlock: ESEHIV_clean_sbu_0, # of connection points: 4
#     Node 44, Type 1, BuildingBlock: ESEHIV_clean_sbu_0, # of connection points: 4
#     Node 45, Type 1, BuildingBlock: ESEHIV_clean_sbu_0, # of connection points: 4
#     Node 46, Type 1, BuildingBlock: ESEHIV_clean_sbu_0, # of connection points: 4
#     Node 47, Type 1, BuildingBlock: ESEHIV_clean_sbu_0, # of connection points: 4
#     Node 48, Type 1, BuildingBlock: ESEHIV_clean_sbu_0, # of connection points: 4
#     Node 49, Type 1, BuildingBlock: ESEHIV_clean_sbu_0, # of connection points: 4
#     Node 50, Type 1, BuildingBlock: ESEHIV_clean_sbu_0, # of connection points: 4
#     Node 51, Type 1, BuildingBlock: ESEHIV_clean_sbu_0, # of connection points: 4
#     Node 52, Type 1, BuildingBlock: ESEHIV_clean_sbu_0, # of connection points: 4
#     Node 53, Type 1, BuildingBlock: ESEHIV_clean_sbu_0, # of connection points: 4
#     Node 54, Type 1, BuildingBlock: ESEHIV_clean_sbu_0, # of connection points: 4
#     Node 55, Type 1, BuildingBlock: ESEHIV_clean_sbu_0, # of connection points: 4
#     Edge 56, Type (0, 1), BuildingBlock: XIVTED_clean_linker_0, # of connection points: 2
#     Edge 57, Type (0, 1), BuildingBlock: XIVTED_clean_linker_0, # of connection points: 2
#     Edge 58, Type (0, 1), BuildingBlock: XIVTED_clean_linker_0, # of connection points: 2
#     Edge 59, Type (0, 1), BuildingBlock: XIVTED_clean_linker_0, # of connection points: 2
#     Edge 60, Type (0, 1), BuildingBlock: XIVTED_clean_linker_0, # of connection points: 2
#     Edge 61, Type (0, 1), BuildingBlock: XIVTED_clean_linker_0, # of connection points: 2
#     Edge 62, Type (0, 1), BuildingBlock: XIVTED_clean_linker_0, # of connection points: 2
#     Edge 63, Type (0, 1), BuildingBlock: XIVTED_clean_linker_0, # of connection points: 2
#     Edge 64, Type (0, 1), BuildingBlock: XIVTED_clean_linker_0, # of connection points: 2
#     Edge 65, Type (0, 1), BuildingBlock: XIVTED_clean_linker_0, # of connection points: 2
#     Edge 66, Type (0, 1), BuildingBlock: XIVTED_clean_linker_0, # of connection points: 2
#     Edge 67, Type (0, 1), BuildingBlock: XIVTED_clean_linker_0, # of connection points: 2
#     Edge 68, Type (0, 1), BuildingBlock: XIVTED_clean_linker_0, # of connection points: 2
#     Edge 69, Type (0, 1), BuildingBlock: XIVTED_clean_linker_0, # of connection points: 2
#     Edge 70, Type (0, 1), BuildingBlock: XIVTED_clean_linker_0, # of connection points: 2
#     Edge 71, Type (0, 1), BuildingBlock: XIVTED_clean_linker_0, # of connection points: 2
#     Edge 72, Type (0, 1), BuildingBlock: XIVTED_clean_linker_0, # of connection points: 2
#     Edge 73, Type (0, 1), BuildingBlock: XIVTED_clean_linker_0, # of connection points: 2
#     Edge 74, Type (0, 1), BuildingBlock: XIVTED_clean_linker_0, # of connection points: 2
#     Edge 75, Type (0, 1), BuildingBlock: XIVTED_clean_linker_0, # of connection points: 2
#     Edge 76, Type (0, 1), BuildingBlock: XIVTED_clean_linker_0, # of connection points: 2
#     Edge 77, Type (0, 1), BuildingBlock: XIVTED_clean_linker_0, # of connection points: 2
#     Edge 78, Type (0, 1), BuildingBlock: XIVTED_clean_linker_0, # of connection points: 2
#     Edge 79, Type (0, 1), BuildingBlock: XIVTED_clean_linker_0, # of connection points: 2
#     Edge 80, Type (0, 1), BuildingBlock: XIVTED_clean_linker_0, # of connection points: 2
#     Edge 81, Type (0, 1), BuildingBlock: XIVTED_clean_linker_0, # of connection points: 2
#     Edge 82, Type (0, 1), BuildingBlock: XIVTED_clean_linker_0, # of connection points: 2
#     Edge 83, Type (0, 1), BuildingBlock: XIVTED_clean_linker_0, # of connection points: 2
#     Edge 84, Type (0, 1), BuildingBlock: XIVTED_clean_linker_0, # of connection points: 2
#     Edge 85, Type (0, 1), BuildingBlock: XIVTED_clean_linker_0, # of connection points: 2
#     Edge 86, Type (0, 1), BuildingBlock: XIVTED_clean_linker_0, # of connection points: 2
#     Edge 87, Type (0, 1), BuildingBlock: XIVTED_clean_linker_0, # of connection points: 2
#     Edge 88, Type (0, 1), BuildingBlock: XIVTED_clean_linker_0, # of connection points: 2
#     Edge 89, Type (0, 1), BuildingBlock: XIVTED_clean_linker_0, # of connection points: 2
#     Edge 90, Type (0, 1), BuildingBlock: XIVTED_clean_linker_0, # of connection points: 2
#     Edge 91, Type (0, 1), BuildingBlock: XIVTED_clean_linker_0, # of connection points: 2
#     Edge 92, Type (0, 1), BuildingBlock: XIVTED_clean_linker_0, # of connection points: 2
#     Edge 93, Type (0, 1), BuildingBlock: XIVTED_clean_linker_0, # of connection points: 2
#     Edge 94, Type (0, 1), BuildingBlock: XIVTED_clean_linker_0, # of connection points: 2
#     Edge 95, Type (0, 1), BuildingBlock: XIVTED_clean_linker_0, # of connection points: 2
#     Edge 96, Type (0, 1), BuildingBlock: XIVTED_clean_linker_0, # of connection points: 2
#     Edge 97, Type (0, 1), BuildingBlock: XIVTED_clean_linker_0, # of connection points: 2
#     Edge 98, Type (0, 1), BuildingBlock: XIVTED_clean_linker_0, # of connection points: 2
#     Edge 99, Type (0, 1), BuildingBlock: XIVTED_clean_linker_0, # of connection points: 2
#     Edge 100, Type (0, 1), BuildingBlock: XIVTED_clean_linker_0, # of connection points: 2
#     Edge 101, Type (0, 1), BuildingBlock: XIVTED_clean_linker_0, # of connection points: 2
#     Edge 102, Type (0, 1), BuildingBlock: XIVTED_clean_linker_0, # of connection points: 2
#     Edge 103, Type (0, 1), BuildingBlock: XIVTED_clean_linker_0, # of connection points: 2
#     Edge 104, Type (0, 1), BuildingBlock: XIVTED_clean_linker_0, # of connection points: 2
#     Edge 105, Type (0, 1), BuildingBlock: XIVTED_clean_linker_0, # of connection points: 2
#     Edge 106, Type (0, 1), BuildingBlock: XIVTED_clean_linker_0, # of connection points: 2
#     Edge 107, Type (0, 1), BuildingBlock: XIVTED_clean_linker_0, # of connection points: 2
#     Edge 108, Type (0, 1), BuildingBlock: XIVTED_clean_linker_0, # of connection points: 2
#     Edge 109, Type (0, 1), BuildingBlock: XIVTED_clean_linker_0, # of connection points: 2
#     Edge 110, Type (0, 1), BuildingBlock: XIVTED_clean_linker_0, # of connection points: 2
#     Edge 111, Type (0, 1), BuildingBlock: XIVTED_clean_linker_0, # of connection points: 2
#     Edge 112, Type (0, 1), BuildingBlock: XIVTED_clean_linker_0, # of connection points: 2
#     Edge 113, Type (0, 1), BuildingBlock: XIVTED_clean_linker_0, # of connection points: 2
#     Edge 114, Type (0, 1), BuildingBlock: XIVTED_clean_linker_0, # of connection points: 2
#     Edge 115, Type (0, 1), BuildingBlock: XIVTED_clean_linker_0, # of connection points: 2
#     Edge 116, Type (0, 1), BuildingBlock: XIVTED_clean_linker_0, # of connection points: 2
#     Edge 117, Type (0, 1), BuildingBlock: XIVTED_clean_linker_0, # of connection points: 2
#     Edge 118, Type (0, 1), BuildingBlock: XIVTED_clean_linker_0, # of connection points: 2
#     Edge 119, Type (0, 1), BuildingBlock: XIVTED_clean_linker_0, # of connection points: 2
#     Edge 120, Type (0, 1), BuildingBlock: XIVTED_clean_linker_0, # of connection points: 2
#     Edge 121, Type (0, 1), BuildingBlock: XIVTED_clean_linker_0, # of connection points: 2
#     Edge 122, Type (0, 1), BuildingBlock: XIVTED_clean_linker_0, # of connection points: 2
#     Edge 123, Type (0, 1), BuildingBlock: XIVTED_clean_linker_0, # of connection points: 2
#     Edge 124, Type (0, 1), BuildingBlock: XIVTED_clean_linker_0, # of connection points: 2
#     Edge 125, Type (0, 1), BuildingBlock: XIVTED_clean_linker_0, # of connection points: 2
#     Edge 126, Type (0, 1), BuildingBlock: XIVTED_clean_linker_0, # of connection points: 2
#     Edge 127, Type (0, 1), BuildingBlock: XIVTED_clean_linker_0, # of connection points: 2
#     Edge 128, Type (0, 1), BuildingBlock: XIVTED_clean_linker_0, # of connection points: 2
#     Edge 129, Type (0, 1), BuildingBlock: XIVTED_clean_linker_0, # of connection points: 2
#     Edge 130, Type (0, 1), BuildingBlock: XIVTED_clean_linker_0, # of connection points: 2
#     Edge 131, Type (0, 1), BuildingBlock: XIVTED_clean_linker_0, # of connection points: 2
#     Edge 132, Type (0, 1), BuildingBlock: XIVTED_clean_linker_0, # of connection points: 2
#     Edge 133, Type (0, 1), BuildingBlock: XIVTED_clean_linker_0, # of connection points: 2
#     Edge 134, Type (0, 1), BuildingBlock: XIVTED_clean_linker_0, # of connection points: 2
#     Edge 135, Type (0, 1), BuildingBlock: XIVTED_clean_linker_0, # of connection points: 2
#     Edge 136, Type (0, 1), BuildingBlock: XIVTED_clean_linker_0, # of connection points: 2
#     Edge 137, Type (0, 1), BuildingBlock: XIVTED_clean_linker_0, # of connection points: 2
#     Edge 138, Type (0, 1), BuildingBlock: XIVTED_clean_linker_0, # of connection points: 2
#     Edge 139, Type (0, 1), BuildingBlock: XIVTED_clean_linker_0, # of connection points: 2
#     Edge 140, Type (0, 1), BuildingBlock: XIVTED_clean_linker_0, # of connection points: 2
#     Edge 141, Type (0, 1), BuildingBlock: XIVTED_clean_linker_0, # of connection points: 2
#     Edge 142, Type (0, 1), BuildingBlock: XIVTED_clean_linker_0, # of connection points: 2
#     Edge 143, Type (0, 1), BuildingBlock: XIVTED_clean_linker_0, # of connection points: 2
#     Edge 144, Type (0, 1), BuildingBlock: XIVTED_clean_linker_0, # of connection points: 2
#     Edge 145, Type (0, 1), BuildingBlock: XIVTED_clean_linker_0, # of connection points: 2
#     Edge 146, Type (0, 1), BuildingBlock: XIVTED_clean_linker_0, # of connection points: 2
#     Edge 147, Type (0, 1), BuildingBlock: XIVTED_clean_linker_0, # of connection points: 2
#     Edge 148, Type (0, 1), BuildingBlock: XIVTED_clean_linker_0, # of connection points: 2
#     Edge 149, Type (0, 1), BuildingBlock: XIVTED_clean_linker_0, # of connection points: 2
#     Edge 150, Type (0, 1), BuildingBlock: XIVTED_clean_linker_0, # of connection points: 2
#     Edge 151, Type (0, 1), BuildingBlock: XIVTED_clean_linker_0, # of connection points: 2
# Relax obj value: 0.002
# Max RMSD: 0.119
# Mean RMSD: 0.047
data_MOF--net-tbo--node1-ESEHIV_clean_sbu_0--node2-MIDCAF_clean_linker_0--edge1-XIVTED_clean_linker_0
_symmetry_space_group_name_H-M    P1
_symmetry_Int_Tables_number       1
_symmetry_cell_setting            triclinic
loop_
_symmetry_equiv_pos_as_xyz
'x, y, z'
_cell_length_a     90.952355
_cell_length_b     91.068188
_cell_length_c     91.027267
_cell_angle_alpha  90.080102
_cell_angle_beta   92.086868
_cell_angle_gamma 90.671306
loop_
_atom_site_label
_atom_site_type_symbol
_atom_site_fract_x
_atom_site_fract_y
_atom_site_fract_z
_atom_type_partial_charge
C0 C 0.13374 0.19039 0.19516 0.0
C1 C 0.13006 0.1829 0.20806 0.0
C2 C 0.13882 0.1711 0.21282 0.0
C3 C 0.15098 0.16692 0.20494 0.0
H4 H 0.1892 0.1444 0.20988 0.0
H5 H 0.20375 0.12456 0.22026 0.0
H6 H 0.22302 0.11733 0.17826 0.0
H7 H 0.20838 0.13749 0.16769 0.0
H8 H 0.20777 0.16874 0.14728 0.0
H9 H 0.21516 0.18272 0.12594 0.0
H10 H 0.17704 0.21017 0.12946 0.0
H11 H 0.16946 0.19608 0.15062 0.0
H12 H 0.14843 0.1922 0.17737 0.0
H13 H 0.12712 0.19942 0.19109 0.0
H14 H 0.13645 0.16523 0.22281 0.0
H15 H 0.15749 0.15782 0.20905 0.0
N16 N 0.17632 0.1588 0.18897 0.0
N17 N 0.19204 0.16174 0.16932 0.0
N18 N 0.17162 0.17708 0.17144 0.0
C19 C 0.1884 0.15458 0.1818 0.0
C20 C 0.18371 0.17305 0.16408 0.0
C21 C 0.16782 0.16997 0.18388 0.0
C22 C 0.1976 0.14256 0.18793 0.0
C23 C 0.19653 0.13865 0.20278 0.0
C24 C 0.20496 0.12733 0.20879 0.0
C25 C 0.21461 0.11948 0.2001 0.0
C26 C 0.21567 0.12323 0.1852 0.0
C27 C 0.20734 0.13479 0.17919 0.0
C28 C 0.18801 0.18126 0.15076 0.0
C29 C 0.2009 0.17771 0.14349 0.0
C30 C 0.20521 0.1858 0.13129 0.0
C31 C 0.19673 0.19762 0.126 0.0
C32 C 0.18375 0.20104 0.13313 0.0
C33 C 0.17945 0.19298 0.14535 0.0
C34 C 0.15473 0.17441 0.19206 0.0
C35 C 0.14593 0.18618 0.18724 0.0
C36 C 0.82913 0.13728 0.19468 0.0
C37 C 0.81407 0.13567 0.19089 0.0
C38 C 0.80682 0.14721 0.18356 0.0
C39 C 0.81452 0.15994 0.17976 0.0
H40 H 0.81417 0.18988 0.1462 0.0
H41 H 0.80474 0.20352 0.12501 0.0
H42 H 0.8421 0.23318 0.12872 0.0
H43 H 0.8515 0.2197 0.1501 0.0
H44 H 0.87653 0.2137 0.17307 0.0
H45 H 0.89996 0.22112 0.18461 0.0
H46 H 0.89618 0.18603 0.21619 0.0
H47 H 0.87286 0.17834 0.20444 0.0
H48 H 0.84844 0.15099 0.19402 0.0
H49 H 0.83498 0.12859 0.20042 0.0
H50 H 0.79525 0.14625 0.18039 0.0
H51 H 0.80861 0.16851 0.17391 0.0
N52 N 0.83226 0.18301 0.16734 0.0
N53 N 0.85267 0.19887 0.16926 0.0
N54 N 0.85097 0.17874 0.18522 0.0
C55 C 0.83962 0.19503 0.16255 0.0
C56 C 0.85843 0.19085 0.18061 0.0
C57 C 0.83782 0.1748 0.17864 0.0
C58 C 0.83364 0.20363 0.14988 0.0
C59 C 0.82039 0.19933 0.14257 0.0
C60 C 0.81501 0.2071 0.13035 0.0
C61 C 0.82271 0.21939 0.12512 0.0
C62 C 0.83584 0.22384 0.13255 0.0
C63 C 0.84125 0.21604 0.14477 0.0
C64 C 0.87274 0.19537 0.18778 0.0
C65 C 0.88065 0.20752 0.18247 0.0
C66 C 0.89409 0.21186 0.18916 0.0
C67 C 0.9 0.2042 0.20134 0.0
C68 C 0.89208 0.19207 0.20669 0.0
C69 C 0.87864 0.1877 0.19999 0.0
C70 C 0.82963 0.16153 0.18339 0.0
C71 C 0.83681 0.15014 0.19108 0.0
C72 C 0.83151 0.82574 0.12277 0.0
C73 C 0.8192 0.8322 0.1157 0.0
C74 C 0.8127 0.84429 0.12247 0.0
C75 C 0.81838 0.84983 0.13589 0.0
H76 H 0.81446 0.8849 0.16587 0.0
H77 H 0.80391 0.90606 0.17808 0.0
H78 H 0.82976 0.89642 0.21754 0.0
H79 H 0.84015 0.87533 0.20554 0.0
H80 H 0.86045 0.84754 0.20678 0.0
H81 H 0.88224 0.83759 0.21936 0.0
H82 H 0.89867 0.8237 0.17775 0.0
H83 H 0.87664 0.83349 0.16504 0.0
H84 H 0.84674 0.82605 0.14126 0.0
H85 H 0.83689 0.81652 0.11782 0.0
H86 H 0.80306 0.84941 0.11749 0.0
H87 H 0.813 0.85911 0.14072 0.0
N88 N 0.83 0.86069 0.16399 0.0
N89 N 0.84698 0.85927 0.1839 0.0
N90 N 0.84864 0.843 0.16408 0.0
C91 C 0.83515 0.86578 0.1773 0.0
C92 C 0.85382 0.84796 0.17739 0.0
C93 C 0.83664 0.84923 0.15733 0.0
C94 C 0.82819 0.87838 0.18467 0.0
C95 C 0.81783 0.88725 0.17717 0.0
C96 C 0.81186 0.89944 0.18413 0.0
C97 C 0.816 0.90294 0.19879 0.0
C98 C 0.8262 0.89396 0.20631 0.0
C99 C 0.83224 0.88188 0.19935 0.0
C100 C 0.86682 0.8413 0.1849 0.0
C101 C 0.86866 0.84232 0.20028 0.0
C102 C 0.8811 0.83658 0.20751 0.0
C103 C 0.89212 0.82992 0.19951 0.0
C104 C 0.89035 0.82887 0.18414 0.0
C105 C 0.87771 0.83437 0.1769 0.0
C106 C 0.83073 0.84343 0.14294 0.0
C107 C 0.83722 0.8313 0.13619 0.0
C108 C 0.11999 0.81506 0.20248 0.0
C109 C 0.11259 0.80495 0.19306 0.0
C110 C 0.11601 0.80471 0.17813 0.0
C111 C 0.1268 0.81424 0.1728 0.0
H112 H 0.1565 0.81895 0.139 0.0
H113 H 0.16949 0.81326 0.1168 0.0
H114 H 0.19814 0.85085 0.12463 0.0
H115 H 0.18499 0.85678 0.14656 0.0
H116 H 0.17366 0.88112 0.17064 0.0
H117 H 0.18165 0.9024 0.18535 0.0
H118 H 0.16635 0.88118 0.2244 0.0
H119 H 0.15813 0.85992 0.20969 0.0
H120 H 0.13603 0.8323 0.20476 0.0
H121 H 0.11745 0.81564 0.214 0.0
H122 H 0.11051 0.79701 0.17064 0.0
H123 H 0.12925 0.81374 0.16126 0.0
N124 N 0.15178 0.83214 0.1636 0.0
N125 N 0.16653 0.85328 0.1669 0.0
N126 N 0.15005 0.84644 0.18493 0.0
C127 C 0.16233 0.84141 0.15863 0.0
C128 C 0.16045 0.85588 0.18004 0.0
C129 C 0.14557 0.83459 0.17674 0.0
C130 C 0.1697 0.8383 0.14467 0.0
C131 C 0.1655 0.82608 0.13596 0.0
C132 C 0.17302 0.82275 0.12325 0.0
C133 C 0.18493 0.83155 0.11894 0.0
C134 C 0.18892 0.84393 0.12749 0.0
C135 C 0.1814 0.84728 0.14016 0.0
C136 C 0.16524 0.86881 0.18899 0.0
C137 C 0.17198 0.88097 0.18235 0.0
C138 C 0.17649 0.89319 0.19075 0.0
C139 C 0.17461 0.89342 0.206 0.0
C140 C 0.168 0.88124 0.21267 0.0
C141 C 0.16323 0.86912 0.20423 0.0
C142 C 0.13418 0.82437 0.18226 0.0
C143 C 0.13058 0.82469 0.19714 0.0
C144 C 0.12394 0.81634 0.82657 0.0
C145 C 0.11651 0.82369 0.81499 0.0
C146 C 0.12244 0.837 0.80993 0.0
C147 C 0.13533 0.84296 0.81654 0.0
H148 H 0.16792 0.87535 0.81178 0.0
H149 H 0.17861 0.89837 0.80321 0.0
H150 H 0.20482 0.90201 0.84357 0.0
H151 H 0.19419 0.87905 0.8522 0.0
H152 H 0.19878 0.85034 0.8711 0.0
H153 H 0.21079 0.83789 0.89171 0.0
H154 H 0.179 0.80237 0.88766 0.0
H155 H 0.16671 0.81498 0.86708 0.0
H156 H 0.1421 0.81628 0.84211 0.0
H157 H 0.11985 0.80592 0.83055 0.0
H158 H 0.11695 0.843 0.8011 0.0
H159 H 0.13947 0.85333 0.81249 0.0
N160 N 0.16179 0.85511 0.83097 0.0
N161 N 0.18019 0.85422 0.84966 0.0
N162 N 0.16251 0.83535 0.8475 0.0
C163 C 0.17389 0.8612 0.83789 0.0
C164 C 0.17461 0.84127 0.85454 0.0
C165 C 0.15601 0.84219 0.83573 0.0
C166 C 0.18019 0.8753 0.83269 0.0
C167 C 0.17593 0.88106 0.81886 0.0
C168 C 0.1821 0.89422 0.8139 0.0
C169 C 0.19254 0.902 0.82272 0.0
C170 C 0.1967 0.89634 0.83659 0.0
C171 C 0.19066 0.88311 0.84148 0.0
C172 C 0.18177 0.83367 0.86731 0.0
C173 C 0.19428 0.83988 0.87455 0.0
C174 C 0.20126 0.83268 0.88635 0.0
C175 C 0.19596 0.81905 0.89127 0.0
C176 C 0.18332 0.8129 0.88421 0.0
C177 C 0.17632 0.82011 0.87235 0.0
C178 C 0.1426 0.83572 0.82832 0.0
C179 C 0.13679 0.82227 0.83316 0.0
C180 C 0.15551 0.18748 0.83125 0.0
C181 C 0.15114 0.1823 0.81717 0.0
C182 C 0.159 0.17066 0.81113 0.0
C183 C 0.17096 0.16446 0.81892 0.0
H184 H 0.20195 0.13163 0.81712 0.0
H185 H 0.21401 0.10987 0.80795 0.0
H186 H 0.24038 0.10739 0.84826 0.0
H187 H 0.22828 0.12907 0.85753 0.0
H188 H 0.22979 0.15765 0.87891 0.0
H189 H 0.23981 0.17121 0.90032 0.0
H190 H 0.20414 0.20195 0.89596 0.0
H191 H 0.19428 0.1887 0.87463 0.0
H192 H 0.17048 0.18569 0.84978 0.0
H193 H 0.14958 0.19622 0.83641 0.0
H194 H 0.15608 0.16648 0.80026 0.0
H195 H 0.17681 0.1556 0.81385 0.0
N196 N 0.19503 0.15127 0.83617 0.0
N197 N 0.21199 0.15223 0.85626 0.0
N198 N 0.1936 0.16997 0.85374 0.0
C199 C 0.20684 0.14554 0.84367 0.0
C200 C 0.20543 0.16448 0.86137 0.0
C201 C 0.1883 0.16347 0.84116 0.0
C202 C 0.21412 0.13218 0.83809 0.0
C203 C 0.21028 0.12645 0.82408 0.0
C204 C 0.21726 0.114 0.81876 0.0
C205 C 0.22815 0.10687 0.82736 0.0
C206 C 0.2319 0.11251 0.84141 0.0
C207 C 0.22502 0.12503 0.84669 0.0
C208 C 0.21127 0.17212 0.87489 0.0
C209 C 0.22405 0.16728 0.88255 0.0
C210 C 0.22978 0.17501 0.89487 0.0
C211 C 0.22289 0.18777 0.89976 0.0
C212 C 0.20992 0.19235 0.89232 0.0
C213 C 0.20421 0.18466 0.88008 0.0
C214 C 0.17542 0.16978 0.83292 0.0
C215 C 0.16749 0.18135 0.83899 0.0
C216 C 0.86141 0.14889 0.82257 0.0
C217 C 0.8464 0.14673 0.82532 0.0
C218 C 0.8391 0.15758 0.83317 0.0
C219 C 0.84669 0.16989 0.83868 0.0
H220 H 0.84558 0.19447 0.8753 0.0
H221 H 0.83403 0.20627 0.89573 0.0
H222 H 0.86871 0.23913 0.89771 0.0
H223 H 0.88055 0.22709 0.87738 0.0
H224 H 0.91095 0.21725 0.86077 0.0
H225 H 0.93398 0.22729 0.85193 0.0
H226 H 0.92513 0.20667 0.80976 0.0
H227 H 0.90208 0.19648 0.81859 0.0
H228 H 0.88066 0.16252 0.82607 0.0
H229 H 0.8674 0.14073 0.81661 0.0
H230 H 0.82746 0.15654 0.83514 0.0
H231 H 0.84067 0.17786 0.84487 0.0
N232 N 0.86387 0.19122 0.85505 0.0
N233 N 0.88413 0.20721 0.85724 0.0
N234 N 0.88311 0.18913 0.83873 0.0
C235 C 0.87089 0.20258 0.86202 0.0
C236 C 0.89031 0.20058 0.8456 0.0
C237 C 0.86983 0.1844 0.84345 0.0
C238 C 0.86401 0.20983 0.87462 0.0
C239 C 0.8508 0.20421 0.88005 0.0
C240 C 0.84409 0.21104 0.89174 0.0
C241 C 0.85038 0.22371 0.89831 0.0
C242 C 0.86365 0.2293 0.89299 0.0
C243 C 0.8704 0.22243 0.88128 0.0
C244 C 0.90463 0.20608 0.84037 0.0
C245 C 0.91391 0.21479 0.84962 0.0
C246 C 0.92715 0.22049 0.8446 0.0
C247 C 0.93132 0.2178 0.83015 0.0
C248 C 0.92212 0.20902 0.82092 0.0
C249 C 0.90897 0.20311 0.82601 0.0
C250 C 0.86179 0.17184 0.83639 0.0
C251 C 0.86903 0.16135 0.82801 0.0
C252 C 0.80884 0.85647 0.87673 0.0
C253 C 0.81198 0.84342 0.88441 0.0
C254 C 0.82372 0.83478 0.87991 0.0
C255 C 0.83202 0.83899 0.86797 0.0
H256 H 0.86429 0.82441 0.84194 0.0
H257 H 0.88378 0.80852 0.83393 0.0
H258 H 0.89516 0.84033 0.80094 0.0
H259 H 0.87548 0.85612 0.8087 0.0
H260 H 0.85214 0.88257 0.80171 0.0
H261 H 0.84767 0.90634 0.78991 0.0
H262 H 0.82311 0.92005 0.82712 0.0
H263 H 0.82746 0.89647 0.83889 0.0
H264 H 0.81435 0.87077 0.85908 0.0
H265 H 0.79978 0.86331 0.87978 0.0
H266 H 0.82662 0.82479 0.88572 0.0
H267 H 0.84097 0.83202 0.86487 0.0
N268 N 0.84834 0.84748 0.84263 0.0
N269 N 0.85364 0.86428 0.82399 0.0
N270 N 0.83504 0.86928 0.84041 0.0
C271 C 0.85641 0.85133 0.83093 0.0
C272 C 0.84298 0.87333 0.82868 0.0
C273 C 0.83761 0.85636 0.84744 0.0
C274 C 0.86825 0.84159 0.82597 0.0
C275 C 0.87091 0.82805 0.83295 0.0
C276 C 0.88216 0.81894 0.82842 0.0
C277 C 0.89106 0.82314 0.8168 0.0
C278 C 0.88839 0.83665 0.80979 0.0
C279 C 0.87713 0.84576 0.81431 0.0
C280 C 0.84019 0.8876 0.82128 0.0
C281 C 0.84579 0.89066 0.80738 0.0
C282 C 0.84319 0.90423 0.80057 0.0
C283 C 0.83515 0.91507 0.80765 0.0
C284 C 0.82952 0.91197 0.82149 0.0
C285 C 0.83194 0.8984 0.82819 0.0
C286 C 0.82884 0.85199 0.86022 0.0
C287 C 0.81717 0.8607 0.86478 0.0
C288 C 0.12596 0.69932 0.67893 0.0
C289 C 0.1254 0.6964 0.69405 0.0
C290 C 0.13755 0.68985 0.70128 0.0
C291 C 0.14991 0.68603 0.69347 0.0
H292 H 0.1843 0.65585 0.6943 0.0
H293 H 0.20028 0.6362 0.70309 0.0
H294 H 0.22147 0.6358 0.66137 0.0
H295 H 0.20584 0.65566 0.65273 0.0
H296 H 0.19536 0.67638 0.62775 0.0
H297 H 0.20117 0.68777 0.60457 0.0
H298 H 0.1732 0.72426 0.61422 0.0
H299 H 0.16728 0.7128 0.63768 0.0
H300 H 0.13848 0.6981 0.65952 0.0
H301 H 0.11678 0.70447 0.67313 0.0
H302 H 0.13736 0.68742 0.71292 0.0
H303 H 0.15904 0.68084 0.69932 0.0
N304 N 0.17247 0.67383 0.67518 0.0
N305 N 0.18657 0.67589 0.65424 0.0
N306 N 0.16615 0.69101 0.65683 0.0
C307 C 0.18406 0.66938 0.66734 0.0
C308 C 0.17775 0.68673 0.64893 0.0
C309 C 0.16343 0.68459 0.66997 0.0
C310 C 0.19376 0.6574 0.6728 0.0
C311 C 0.19238 0.65159 0.687 0.0
C312 C 0.2015 0.64025 0.69202 0.0
C313 C 0.21219 0.63438 0.68295 0.0
C314 C 0.21354 0.64019 0.66876 0.0
C315 C 0.20449 0.65157 0.66376 0.0
C316 C 0.18084 0.69367 0.63462 0.0
C317 C 0.19037 0.68681 0.62499 0.0
C318 C 0.19363 0.69329 0.61161 0.0
C319 C 0.18755 0.70686 0.60752 0.0
C320 C 0.17805 0.7138 0.61711 0.0
C321 C 0.17462 0.7072 0.63049 0.0
C322 C 0.15049 0.68894 0.67833 0.0
C323 C 0.13843 0.69575 0.67118 0.0
C324 C 0.84371 0.65025 0.6971 0.0
C325 C 0.83706 0.63782 0.69045 0.0
C326 C 0.83251 0.6385 0.67553 0.0
C327 C 0.83457 0.65141 0.66744 0.0
H328 H 0.81984 0.6758 0.629 0.0
H329 H 0.80359 0.6833 0.60835 0.0
H330 H 0.82042 0.72767 0.61245 0.0
H331 H 0.83665 0.72029 0.63287 0.0
H332 H 0.8745 0.71898 0.64718 0.0
H333 H 0.89534 0.7342 0.65636 0.0
H334 H 0.88994 0.7169 0.69997 0.0
H335 H 0.86941 0.70166 0.6909 0.0
H336 H 0.85128 0.67235 0.69446 0.0
H337 H 0.84743 0.65002 0.70854 0.0
H338 H 0.82728 0.62908 0.67017 0.0
H339 H 0.83101 0.65161 0.65596 0.0
N340 N 0.83632 0.6806 0.65312 0.0
N341 N 0.85011 0.70241 0.65051 0.0
N342 N 0.85527 0.68668 0.6703 0.0
C343 C 0.83904 0.69324 0.64561 0.0
C344 C 0.85828 0.69917 0.66284 0.0
C345 C 0.84442 0.6773 0.66553 0.0
C346 C 0.82956 0.69743 0.63265 0.0
C347 C 0.82011 0.68714 0.62546 0.0
C348 C 0.81084 0.69141 0.6136 0.0
C349 C 0.81064 0.70609 0.60888 0.0
C350 C 0.82018 0.71631 0.61597 0.0
C351 C 0.82957 0.71203 0.62763 0.0
C352 C 0.87033 0.70908 0.6683 0.0
C353 C 0.87771 0.71854 0.65874 0.0
C354 C 0.88966 0.72719 0.66396 0.0
C355 C 0.8942 0.72678 0.67888 0.0
C356 C 0.88659 0.71758 0.68845 0.0
C357 C 0.87488 0.70877 0.68322 0.0
C358 C 0.84148 0.66377 0.67405 0.0
C359 C 0.84599 0.66302 0.68898 0.0
C360 C 0.84767 0.31592 0.63986 0.0
C361 C 0.83426 0.32011 0.63304 0.0
C362 C 0.82697 0.33238 0.63858 0.0
C363 C 0.83303 0.34031 0.65057 0.0
H364 H 0.82698 0.3761 0.67773 0.0
H365 H 0.81644 0.39955 0.68428 0.0
H366 H 0.85664 0.41147 0.70824 0.0
H367 H 0.86731 0.3879 0.7017 0.0
H368 H 0.89688 0.36132 0.69945 0.0
H369 H 0.91963 0.34986 0.70906 0.0
H370 H 0.89933 0.30703 0.7035 0.0
H371 H 0.87691 0.31834 0.6938 0.0
H372 H 0.86408 0.32021 0.65669 0.0
H373 H 0.85375 0.30673 0.63574 0.0
H374 H 0.81653 0.33581 0.63373 0.0
H375 H 0.82715 0.34971 0.65453 0.0
N376 N 0.84779 0.35775 0.67383 0.0
N377 N 0.86669 0.36043 0.69204 0.0
N378 N 0.86527 0.33934 0.67717 0.0
C379 C 0.8544 0.36575 0.68492 0.0
C380 C 0.87206 0.34709 0.68825 0.0
C381 C 0.85323 0.34458 0.66983 0.0
C382 C 0.84804 0.38007 0.68916 0.0
C383 C 0.83363 0.38368 0.6844 0.0
C384 C 0.82752 0.39711 0.68822 0.0
C385 C 0.83569 0.40737 0.69678 0.0
C386 C 0.85011 0.40383 0.70153 0.0
C387 C 0.85619 0.39028 0.69785 0.0
C388 C 0.88516 0.34072 0.69583 0.0
C389 C 0.89726 0.34948 0.70052 0.0
C390 C 0.91027 0.34293 0.70591 0.0
C391 C 0.91124 0.32755 0.707 0.0
C392 C 0.8989 0.31889 0.7029 0.0
C393 C 0.88607 0.32539 0.69727 0.0
C394 C 0.84647 0.3361 0.65734 0.0
C395 C 0.85365 0.32375 0.65187 0.0
C396 C 0.14774 0.3529 0.72668 0.0
C397 C 0.14035 0.34111 0.71959 0.0
C398 C 0.14459 0.337 0.70546 0.0
C399 C 0.156 0.3445 0.69862 0.0
H400 H 0.18285 0.343 0.66237 0.0
H401 H 0.19256 0.33469 0.63918 0.0
H402 H 0.22391 0.37069 0.64049 0.0
H403 H 0.21411 0.37916 0.66342 0.0
H404 H 0.21895 0.39744 0.69238 0.0
H405 H 0.23099 0.41808 0.70503 0.0
H406 H 0.19564 0.41985 0.73534 0.0
H407 H 0.18345 0.3991 0.72266 0.0
H408 H 0.16448 0.36949 0.72567 0.0
H409 H 0.14463 0.35647 0.73748 0.0
H410 H 0.13923 0.32786 0.69975 0.0
H411 H 0.159 0.34098 0.68777 0.0
N412 N 0.18064 0.35967 0.68547 0.0
N413 N 0.19812 0.37882 0.68596 0.0
N414 N 0.18188 0.37632 0.70521 0.0
C415 C 0.19194 0.36689 0.67908 0.0
C416 C 0.19316 0.38364 0.699 0.0
C417 C 0.17555 0.36433 0.69856 0.0
C418 C 0.19766 0.36178 0.66485 0.0
C419 C 0.19179 0.34918 0.65771 0.0
C420 C 0.19741 0.34436 0.64443 0.0
C421 C 0.20902 0.35202 0.63793 0.0
C422 C 0.21483 0.36464 0.64503 0.0
C423 C 0.20924 0.36944 0.65829 0.0
C424 C 0.20024 0.39652 0.70651 0.0
C425 C 0.21367 0.4022 0.7017 0.0
C426 C 0.22064 0.414 0.70901 0.0
C427 C 0.21432 0.42051 0.72125 0.0
C428 C 0.20074 0.41508 0.72591 0.0
C429 C 0.19382 0.40314 0.71868 0.0
C430 C 0.16339 0.35633 0.70571 0.0
C431 C 0.15908 0.36044 0.71983 0.0
C432 C 0.13028 0.31245 0.33226 0.0
C433 C 0.12332 0.32037 0.3208 0.0
C434 C 0.12824 0.33473 0.31792 0.0
C435 C 0.14015 0.34087 0.32611 0.0
H436 H 0.17543 0.37129 0.32241 0.0
H437 H 0.18965 0.3921 0.3135 0.0
H438 H 0.21515 0.39323 0.35449 0.0
H439 H 0.20128 0.37227 0.36322 0.0
H440 H 0.20433 0.34179 0.37966 0.0
H441 H 0.21492 0.32881 0.40068 0.0
H442 H 0.1756 0.30202 0.40293 0.0
H443 H 0.16483 0.31508 0.38166 0.0
H444 H 0.14715 0.31207 0.34918 0.0
H445 H 0.1266 0.30143 0.33488 0.0
H446 H 0.1231 0.34108 0.30914 0.0
H447 H 0.14381 0.35188 0.32349 0.0
N448 N 0.16713 0.35139 0.34125 0.0
N449 N 0.18434 0.34966 0.36096 0.0
N450 N 0.16546 0.33207 0.35823 0.0
C451 C 0.17924 0.35679 0.34875 0.0
C452 C 0.17755 0.33733 0.3658 0.0
C453 C 0.16015 0.33904 0.34594 0.0
C454 C 0.18724 0.36999 0.34351 0.0
C455 C 0.18402 0.37601 0.32955 0.0
C456 C 0.19216 0.388 0.32445 0.0
C457 C 0.20365 0.39432 0.33322 0.0
C458 C 0.20661 0.38848 0.34729 0.0
C459 C 0.19856 0.37648 0.35235 0.0
C460 C 0.18371 0.32948 0.37889 0.0
C461 C 0.19785 0.33317 0.38458 0.0
C462 C 0.204 0.32565 0.3966 0.0
C463 C 0.19615 0.3143 0.40336 0.0
C464 C 0.18189 0.31073 0.39792 0.0
C465 C 0.17577 0.31817 0.38572 0.0
C466 C 0.14724 0.33284 0.33747 0.0
C467 C 0.14203 0.31861 0.34052 0.0
C468 C 0.13693 0.69263 0.32624 0.0
C469 C 0.12497 0.68525 0.31929 0.0
C470 C 0.12592 0.6701 0.31661 0.0
C471 C 0.1387 0.66247 0.32075 0.0
H472 H 0.16714 0.62695 0.30817 0.0
H473 H 0.17733 0.60699 0.29376 0.0
H474 H 0.21804 0.61034 0.31949 0.0
H475 H 0.20802 0.63011 0.33383 0.0
H476 H 0.20746 0.64726 0.36504 0.0
H477 H 0.22018 0.65609 0.38747 0.0
H478 H 0.19223 0.69412 0.38742 0.0
H479 H 0.17933 0.68521 0.36533 0.0
H480 H 0.15851 0.69097 0.33616 0.0
H481 H 0.13643 0.7043 0.32847 0.0
H482 H 0.11682 0.66421 0.3112 0.0
H483 H 0.13918 0.65078 0.31859 0.0
N484 N 0.16854 0.64979 0.32586 0.0
N485 N 0.1887 0.64798 0.34265 0.0
N486 N 0.17171 0.66684 0.34511 0.0
C487 C 0.18105 0.64285 0.33052 0.0
C488 C 0.18406 0.65993 0.35004 0.0
C489 C 0.16387 0.66185 0.33311 0.0
C490 C 0.18676 0.63023 0.32214 0.0
C491 C 0.17825 0.62339 0.31079 0.0
C492 C 0.18404 0.61192 0.30257 0.0
C493 C 0.19853 0.60721 0.3054 0.0
C494 C 0.20692 0.61388 0.31689 0.0
C495 C 0.20111 0.62518 0.32519 0.0
C496 C 0.19227 0.66545 0.36338 0.0
C497 C 0.20404 0.65752 0.3698 0.0
C498 C 0.21139 0.66262 0.38264 0.0
C499 C 0.20716 0.67577 0.38934 0.0
C500 C 0.19558 0.6838 0.38276 0.0
C501 C 0.18822 0.6787 0.36999 0.0
C502 C 0.15057 0.66982 0.32798 0.0
C503 C 0.14953 0.68497 0.33068 0.0
C504 C 0.83212 0.62141 0.32123 0.0
C505 C 0.81822 0.6173 0.32622 0.0
C506 C 0.81079 0.62708 0.33524 0.0
C507 C 0.81722 0.64065 0.33926 0.0
H508 H 0.82472 0.67132 0.37657 0.0
H509 H 0.81701 0.68595 0.39746 0.0
H510 H 0.83364 0.72519 0.37702 0.0
H511 H 0.84157 0.71061 0.35625 0.0
H512 H 0.86863 0.70509 0.33447 0.0
H513 H 0.88882 0.71431 0.3202 0.0
H514 H 0.89006 0.67307 0.29684 0.0
H515 H 0.86992 0.66367 0.31128 0.0
H516 H 0.84912 0.63775 0.32093 0.0
H517 H 0.83804 0.61421 0.3141 0.0
H518 H 0.80009 0.62418 0.33927 0.0
H519 H 0.81122 0.64796 0.3462 0.0
N520 N 0.83285 0.66752 0.34911 0.0
N521 N 0.85011 0.68607 0.34409 0.0
N522 N 0.84906 0.66462 0.32985 0.0
C523 C 0.83897 0.68092 0.3523 0.0
C524 C 0.85526 0.67797 0.33287 0.0
C525 C 0.83782 0.65933 0.33784 0.0
C526 C 0.83378 0.68979 0.36475 0.0
C527 C 0.82668 0.68307 0.3765 0.0
C528 C 0.82235 0.69142 0.3885 0.0
C529 C 0.82474 0.70669 0.38885 0.0
C530 C 0.83159 0.71344 0.37699 0.0
C531 C 0.83618 0.70508 0.36514 0.0
C532 C 0.86757 0.68362 0.32406 0.0
C533 C 0.87316 0.69794 0.32631 0.0
C534 C 0.8847 0.70328 0.31803 0.0
C535 C 0.89101 0.69446 0.3073 0.0
C536 C 0.88552 0.68011 0.30509 0.0
C537 C 0.8739 0.67476 0.31333 0.0
C538 C 0.83108 0.64479 0.33413 0.0
C539 C 0.83843 0.63498 0.32508 0.0
C540 C 0.81513 0.33985 0.39581 0.0
C541 C 0.8195 0.32691 0.40305 0.0
C542 C 0.83244 0.32002 0.3989 0.0
C543 C 0.84055 0.32554 0.38741 0.0
H544 H 0.87607 0.31602 0.36465 0.0
H545 H 0.89682 0.30152 0.35723 0.0
H546 H 0.90007 0.32778 0.31797 0.0
H547 H 0.87911 0.34219 0.32524 0.0
H548 H 0.84869 0.36179 0.31633 0.0
H549 H 0.84015 0.38232 0.30109 0.0
H550 H 0.824 0.40379 0.33947 0.0
H551 H 0.83217 0.38306 0.35475 0.0
H552 H 0.81938 0.35513 0.37851 0.0
H553 H 0.8052 0.34539 0.39881 0.0
H554 H 0.83622 0.31018 0.40447 0.0
H555 H 0.8503 0.31969 0.38444 0.0
N556 N 0.85584 0.33533 0.36233 0.0
N557 N 0.85809 0.35048 0.34178 0.0
N558 N 0.83934 0.35463 0.35835 0.0
C559 C 0.86299 0.33897 0.35 0.0
C560 C 0.84634 0.3584 0.34591 0.0
C561 C 0.84401 0.34302 0.3666 0.0
C562 C 0.87584 0.3303 0.34554 0.0
C563 C 0.88117 0.31875 0.35442 0.0
C564 C 0.89316 0.31047 0.35022 0.0
C565 C 0.90012 0.31348 0.33701 0.0
C566 C 0.89485 0.32505 0.32814 0.0
C567 C 0.88287 0.33337 0.33235 0.0
C568 C 0.8411 0.37082 0.33674 0.0
C569 C 0.84329 0.37087 0.32153 0.0
C570 C 0.83836 0.38256 0.31279 0.0
C571 C 0.83145 0.39458 0.31914 0.0
C572 C 0.82935 0.39463 0.33435 0.0
C573 C 0.83396 0.38276 0.34305 0.0
C574 C 0.83592 0.33812 0.37966 0.0
C575 C 0.82324 0.34538 0.38416 0.0
C576 C 0.63778 0.20263 0.68695 0.0
C577 C 0.63334 0.19375 0.69867 0.0
C578 C 0.64129 0.18095 0.70194 0.0
C579 C 0.65344 0.1772 0.69383 0.0
H580 H 0.69227 0.15537 0.69849 0.0
H581 H 0.70866 0.13688 0.7087 0.0
H582 H 0.72991 0.13352 0.66723 0.0
H583 H 0.71342 0.15228 0.65682 0.0
H584 H 0.7039 0.17631 0.63166 0.0
H585 H 0.70966 0.18907 0.60908 0.0
H586 H 0.6817 0.22485 0.62094 0.0
H587 H 0.67581 0.21205 0.64366 0.0
H588 H 0.65307 0.20598 0.66989 0.0
H589 H 0.63205 0.21268 0.68424 0.0
H590 H 0.63805 0.17369 0.7107 0.0
H591 H 0.65925 0.16723 0.69671 0.0
N592 N 0.6798 0.17106 0.67851 0.0
N593 N 0.69468 0.17419 0.65825 0.0
N594 N 0.67411 0.1892 0.66106 0.0
C595 C 0.69171 0.16706 0.67093 0.0
C596 C 0.68595 0.1853 0.65326 0.0
C597 C 0.67092 0.18204 0.67367 0.0
C598 C 0.70154 0.1554 0.67682 0.0
C599 C 0.70037 0.15072 0.69145 0.0
C600 C 0.70984 0.14017 0.69737 0.0
C601 C 0.72065 0.13387 0.6888 0.0
C602 C 0.72166 0.13821 0.67406 0.0
C603 C 0.71227 0.14898 0.66815 0.0
C604 C 0.68937 0.19312 0.63949 0.0
C605 C 0.69894 0.18689 0.62951 0.0
C606 C 0.70218 0.19415 0.6165 0.0
C607 C 0.69605 0.20792 0.61322 0.0
C608 C 0.68659 0.21427 0.62323 0.0
C609 C 0.68318 0.20689 0.63618 0.0
C610 C 0.65792 0.18609 0.68215 0.0
C611 C 0.6499 0.19883 0.67876 0.0
C612 C 0.3466 0.13847 0.70227 0.0
C613 C 0.33211 0.13409 0.69825 0.0
C614 C 0.32413 0.1426 0.6879 0.0
C615 C 0.33048 0.15504 0.68167 0.0
H616 H 0.32622 0.18086 0.64539 0.0
H617 H 0.31221 0.19287 0.62564 0.0
H618 H 0.34192 0.23018 0.62858 0.0
H619 H 0.35589 0.21829 0.64849 0.0
H620 H 0.38434 0.21655 0.67045 0.0
H621 H 0.40557 0.22863 0.6827 0.0
H622 H 0.40675 0.19456 0.71563 0.0
H623 H 0.38555 0.18259 0.70362 0.0
H624 H 0.3641 0.15407 0.69945 0.0
H625 H 0.35316 0.1321 0.71006 0.0
H626 H 0.31285 0.13981 0.68475 0.0
H627 H 0.32391 0.1613 0.6738 0.0
N628 N 0.34464 0.17921 0.6673 0.0
N629 N 0.36266 0.19783 0.66734 0.0
N630 N 0.36399 0.17906 0.685 0.0
C631 C 0.35014 0.19166 0.6613 0.0
C632 C 0.36968 0.19158 0.67918 0.0
C633 C 0.35146 0.17282 0.67912 0.0
C634 C 0.34217 0.19864 0.64866 0.0
C635 C 0.32984 0.19161 0.64182 0.0
C636 C 0.32183 0.19844 0.63041 0.0
C637 C 0.32589 0.21251 0.6256 0.0
C638 C 0.33838 0.21941 0.63219 0.0
C639 C 0.34645 0.21256 0.64356 0.0
C640 C 0.38309 0.19862 0.68608 0.0
C641 C 0.38915 0.21159 0.68028 0.0
C642 C 0.40138 0.2185 0.68725 0.0
C643 C 0.40777 0.21265 0.70023 0.0
C644 C 0.40192 0.19952 0.70581 0.0
C645 C 0.38978 0.1926 0.69884 0.0
C646 C 0.34493 0.15945 0.68571 0.0
C647 C 0.35292 0.15104 0.69612 0.0
C648 C 0.34 0.82495 0.628 0.0
C649 C 0.32605 0.82929 0.62266 0.0
C650 C 0.31824 0.83958 0.63079 0.0
C651 C 0.32437 0.84549 0.64393 0.0
H652 H 0.32158 0.87976 0.67585 0.0
H653 H 0.3117 0.90042 0.68929 0.0
H654 H 0.34818 0.89807 0.72088 0.0
H655 H 0.35791 0.87735 0.70772 0.0
H656 H 0.38694 0.85595 0.69884 0.0
H657 H 0.40938 0.84308 0.70692 0.0
H658 H 0.39262 0.80332 0.6862 0.0
H659 H 0.37044 0.8161 0.678 0.0
H660 H 0.35682 0.82697 0.64474 0.0
H661 H 0.34621 0.81686 0.62216 0.0
H662 H 0.30746 0.84316 0.62691 0.0
H663 H 0.31814 0.85339 0.64996 0.0
N664 N 0.33969 0.85866 0.67024 0.0
N665 N 0.35856 0.85687 0.68854 0.0
N666 N 0.35705 0.83991 0.66923 0.0
C667 C 0.34641 0.86381 0.68291 0.0
C668 C 0.36386 0.84485 0.68177 0.0
C669 C 0.34506 0.84671 0.66329 0.0
C670 C 0.34053 0.87676 0.6907 0.0
C671 C 0.32752 0.88365 0.68565 0.0
C672 C 0.32188 0.89557 0.69332 0.0
C673 C 0.32908 0.90087 0.70624 0.0
C674 C 0.34218 0.89412 0.71114 0.0
C675 C 0.34782 0.88224 0.7035 0.0
C676 C 0.37696 0.83706 0.68774 0.0
C677 C 0.38802 0.84444 0.69614 0.0
C678 C 0.40087 0.83711 0.70068 0.0
C679 C 0.4027 0.82221 0.69717 0.0
C680 C 0.39145 0.81477 0.68915 0.0
C681 C 0.37879 0.82212 0.68439 0.0
C682 C 0.33834 0.84102 0.64926 0.0
C683 C 0.34603 0.8307 0.64108 0.0
C684 C 0.62851 0.8486 0.70021 0.0
C685 C 0.62482 0.8339 0.69703 0.0
C686 C 0.6335 0.82608 0.68727 0.0
C687 C 0.64564 0.83284 0.68087 0.0
H688 H 0.67571 0.83029 0.6457 0.0
H689 H 0.68823 0.82106 0.62433 0.0
H690 H 0.71681 0.8593 0.62552 0.0
H691 H 0.70468 0.8683 0.64694 0.0
H692 H 0.7065 0.88825 0.67548 0.0
H693 H 0.71625 0.91005 0.68808 0.0
H694 H 0.67658 0.91274 0.71263 0.0
H695 H 0.66703 0.89071 0.7004 0.0
H696 H 0.64319 0.86661 0.69684 0.0
H697 H 0.62217 0.85489 0.7078 0.0
H698 H 0.63086 0.81475 0.68452 0.0
H699 H 0.65216 0.82652 0.67348 0.0
N700 N 0.66956 0.84902 0.6665 0.0
N701 N 0.68689 0.86836 0.66786 0.0
N702 N 0.66806 0.86723 0.68464 0.0
C703 C 0.68168 0.85587 0.66119 0.0
C704 C 0.68017 0.87411 0.67959 0.0
C705 C 0.66267 0.85471 0.67825 0.0
C706 C 0.68917 0.85004 0.64815 0.0
C707 C 0.68469 0.83671 0.64143 0.0
C708 C 0.69183 0.83145 0.6291 0.0
C709 C 0.7036 0.83939 0.62319 0.0
C710 C 0.708 0.85272 0.6299 0.0
C711 C 0.70093 0.85794 0.6422 0.0
C712 C 0.68598 0.88765 0.68693 0.0
C713 C 0.69983 0.89349 0.68354 0.0
C714 C 0.7054 0.90607 0.69073 0.0
C715 C 0.69722 0.91319 0.70141 0.0
C716 C 0.68331 0.90742 0.70468 0.0
C717 C 0.67779 0.8948 0.69757 0.0
C718 C 0.64945 0.84751 0.68428 0.0
C719 C 0.64067 0.85529 0.69397 0.0
C720 C 0.61568 0.8143 0.32844 0.0
C721 C 0.60948 0.81822 0.31463 0.0
C722 C 0.61581 0.82997 0.307 0.0
C723 C 0.62812 0.83748 0.31295 0.0
H724 H 0.65404 0.87157 0.30505 0.0
H725 H 0.66309 0.89203 0.29091 0.0
H726 H 0.69872 0.89879 0.32294 0.0
H727 H 0.68952 0.8782 0.33741 0.0
H728 H 0.6906 0.85609 0.36612 0.0
H729 H 0.70365 0.84655 0.38781 0.0
H730 H 0.67532 0.80811 0.38677 0.0
H731 H 0.66198 0.81783 0.36537 0.0
H732 H 0.63255 0.8184 0.345 0.0
H733 H 0.61094 0.80547 0.33475 0.0
H734 H 0.61145 0.83317 0.29626 0.0
H735 H 0.63277 0.84636 0.30664 0.0
N736 N 0.65315 0.85309 0.32565 0.0
N737 N 0.67254 0.8554 0.34322 0.0
N738 N 0.65498 0.8364 0.34511 0.0
C739 C 0.66545 0.8603 0.33075 0.0
C740 C 0.66735 0.84341 0.35047 0.0
C741 C 0.64781 0.84119 0.33271 0.0
C742 C 0.67106 0.87311 0.32242 0.0
C743 C 0.6638 0.87735 0.3092 0.0
C744 C 0.66905 0.88908 0.30098 0.0
C745 C 0.68171 0.89697 0.3057 0.0
C746 C 0.68889 0.89296 0.31904 0.0
C747 C 0.68365 0.88112 0.32729 0.0
C748 C 0.67523 0.83775 0.3639 0.0
C749 C 0.6871 0.84562 0.37052 0.0
C750 C 0.69467 0.84008 0.38295 0.0
C751 C 0.69064 0.82647 0.38906 0.0
C752 C 0.67865 0.8187 0.38253 0.0
C753 C 0.67104 0.82427 0.37015 0.0
C754 C 0.63448 0.83341 0.32666 0.0
C755 C 0.62805 0.82178 0.33437 0.0
C756 C 0.63174 0.19686 0.32749 0.0
C757 C 0.6246 0.19106 0.31478 0.0
C758 C 0.63039 0.1784 0.30836 0.0
C759 C 0.64314 0.1719 0.3143 0.0
H760 H 0.67318 0.13724 0.30792 0.0
H761 H 0.68555 0.11679 0.29624 0.0
H762 H 0.72321 0.12318 0.32592 0.0
H763 H 0.71112 0.14354 0.33738 0.0
H764 H 0.71181 0.16643 0.36115 0.0
H765 H 0.72379 0.17552 0.38362 0.0
H766 H 0.68405 0.19808 0.39447 0.0
H767 H 0.67213 0.18932 0.3716 0.0
H768 H 0.64976 0.19528 0.34314 0.0
H769 H 0.6277 0.20667 0.33266 0.0
H770 H 0.62504 0.17344 0.29873 0.0
H771 H 0.6473 0.16224 0.30896 0.0
N772 N 0.67081 0.16001 0.32579 0.0
N773 N 0.69003 0.16006 0.34363 0.0
N774 N 0.67085 0.17679 0.34547 0.0
C775 C 0.68372 0.15435 0.33114 0.0
C776 C 0.68372 0.17121 0.35089 0.0
C777 C 0.66432 0.1713 0.33289 0.0
C778 C 0.6911 0.14208 0.32362 0.0
C779 C 0.68412 0.13432 0.31189 0.0
C780 C 0.69118 0.12254 0.30526 0.0
C781 C 0.70539 0.11836 0.31013 0.0
C782 C 0.71237 0.12621 0.32175 0.0
C783 C 0.70533 0.13787 0.3284 0.0
C784 C 0.69096 0.17709 0.36456 0.0
C785 C 0.70557 0.17333 0.36829 0.0
C786 C 0.71244 0.17848 0.38128 0.0
C787 C 0.70487 0.18743 0.39097 0.0
C788 C 0.69028 0.19132 0.3872 0.0
C789 C 0.68341 0.18625 0.3741 0.0
C790 C 0.65044 0.17785 0.32686 0.0
C791 C 0.64448 0.19034 0.33346 0.0
C792 C 0.32199 0.12853 0.33864 0.0
C793 C 0.30883 0.12544 0.34569 0.0
C794 C 0.30502 0.13429 0.35762 0.0
C795 C 0.31398 0.14626 0.36206 0.0
H796 H 0.32703 0.1764 0.39815 0.0
H797 H 0.32123 0.19245 0.4187 0.0
H798 H 0.34126 0.22915 0.39679 0.0
H799 H 0.34739 0.2131 0.37637 0.0
H800 H 0.3758 0.20155 0.35564 0.0
H801 H 0.39667 0.20678 0.34028 0.0
H802 H 0.38653 0.16775 0.31468 0.0
H803 H 0.36561 0.16265 0.32973 0.0
H804 H 0.34087 0.14244 0.33718 0.0
H805 H 0.32543 0.12175 0.32963 0.0
H806 H 0.29492 0.13221 0.36325 0.0
H807 H 0.31058 0.15304 0.37108 0.0
N808 N 0.33298 0.17151 0.37011 0.0
N809 N 0.35285 0.18712 0.36467 0.0
N810 N 0.34782 0.16617 0.35034 0.0
C811 C 0.34127 0.18377 0.37318 0.0
C812 C 0.35624 0.17829 0.35325 0.0
C813 C 0.33618 0.16267 0.35862 0.0
C814 C 0.33768 0.19347 0.38563 0.0
C815 C 0.33021 0.18788 0.39771 0.0
C816 C 0.32696 0.19703 0.40951 0.0
C817 C 0.33081 0.21201 0.4093 0.0
C818 C 0.33814 0.21764 0.39718 0.0
C819 C 0.34169 0.20844 0.38554 0.0
C820 C 0.36896 0.18168 0.34396 0.0
C821 C 0.37799 0.19409 0.34672 0.0
C822 C 0.39002 0.19705 0.33796 0.0
C823 C 0.39328 0.18769 0.32623 0.0
C824 C 0.38422 0.17532 0.32347 0.0
C825 C 0.37224 0.17235 0.33221 0.0
C826 C 0.32695 0.14957 0.3547 0.0
C827 C 0.33091 0.1404 0.34306 0.0
C828 C 0.30118 0.83658 0.38804 0.0
C829 C 0.30361 0.82209 0.39273 0.0
C830 C 0.31463 0.81392 0.38617 0.0
C831 C 0.32293 0.82 0.37506 0.0
H832 H 0.36076 0.81403 0.35414 0.0
H833 H 0.38147 0.8001 0.34598 0.0
H834 H 0.38613 0.8298 0.30942 0.0
H835 H 0.36549 0.8441 0.31784 0.0
H836 H 0.34236 0.87205 0.31501 0.0
H837 H 0.33454 0.89556 0.3044 0.0
H838 H 0.30611 0.9021 0.34074 0.0
H839 H 0.31386 0.87896 0.35134 0.0
H840 H 0.3072 0.85381 0.37335 0.0
H841 H 0.29273 0.84312 0.39288 0.0
H842 H 0.31695 0.80281 0.38972 0.0
H843 H 0.33127 0.8133 0.37027 0.0
N844 N 0.34069 0.83322 0.353 0.0
N845 N 0.34473 0.85167 0.33558 0.0
N846 N 0.32539 0.85366 0.35187 0.0
C847 C 0.34861 0.83862 0.34181 0.0
C848 C 0.33311 0.85928 0.34061 0.0
C849 C 0.32906 0.84063 0.35809 0.0
C850 C 0.36137 0.83022 0.33664 0.0
C851 C 0.36614 0.81765 0.34434 0.0
C852 C 0.37801 0.80956 0.3396 0.0
C853 C 0.38545 0.81373 0.32697 0.0
C854 C 0.38076 0.82635 0.31929 0.0
C855 C 0.36887 0.83451 0.32407 0.0
C856 C 0.32876 0.87358 0.33405 0.0
C857 C 0.3345 0.87856 0.32076 0.0
C858 C 0.32998 0.89198 0.31463 0.0
C859 C 0.31981 0.90074 0.32179 0.0
C860 C 0.31416 0.89575 0.33507 0.0
C861 C 0.31854 0.88237 0.3411 0.0
C862 C 0.32039 0.83441 0.37016 0.0
C863 C 0.30943 0.84266 0.37681 0.0
C864 C 0.62086 0.69847 0.18366 0.0
C865 C 0.61583 0.68902 0.19466 0.0
C866 C 0.62366 0.67612 0.19778 0.0
C867 C 0.63637 0.67286 0.19025 0.0
H868 H 0.67194 0.64573 0.19194 0.0
H869 H 0.68753 0.6257 0.20041 0.0
H870 H 0.71831 0.63598 0.16678 0.0
H871 H 0.70261 0.65587 0.15808 0.0
H872 H 0.69697 0.68264 0.13731 0.0
H873 H 0.70442 0.69783 0.11687 0.0
H874 H 0.66485 0.72324 0.12004 0.0
H875 H 0.65722 0.70789 0.14037 0.0
H876 H 0.63706 0.70276 0.16772 0.0
H877 H 0.61496 0.70841 0.18086 0.0
H878 H 0.62015 0.66868 0.20627 0.0
H879 H 0.64219 0.66289 0.19307 0.0
N880 N 0.66383 0.66775 0.17604 0.0
N881 N 0.68046 0.67332 0.15773 0.0
N882 N 0.65934 0.68753 0.16009 0.0
C883 C 0.67649 0.66478 0.1692 0.0
C884 C 0.67195 0.6847 0.15308 0.0
C885 C 0.65518 0.6791 0.17158 0.0
C886 C 0.68597 0.65248 0.17431 0.0
C887 C 0.68201 0.64375 0.18631 0.0
C888 C 0.69101 0.63229 0.19124 0.0
C889 C 0.7042 0.62924 0.18431 0.0
C890 C 0.70814 0.63791 0.17227 0.0
C891 C 0.69915 0.64939 0.16734 0.0
C892 C 0.67647 0.694 0.14056 0.0
C893 C 0.68981 0.69144 0.13368 0.0
C894 C 0.69415 0.70023 0.12199 0.0
C895 C 0.68526 0.71179 0.11683 0.0
C896 C 0.67189 0.71432 0.12363 0.0
C897 C 0.66755 0.70556 0.13537 0.0
C898 C 0.64149 0.68238 0.17934 0.0
C899 C 0.6335 0.69517 0.17607 0.0
C900 C 0.33256 0.63621 0.19807 0.0
C901 C 0.32647 0.6239 0.19071 0.0
C902 C 0.32413 0.62443 0.17537 0.0
C903 C 0.32773 0.63714 0.16754 0.0
H904 H 0.31459 0.66372 0.12972 0.0
H905 H 0.29898 0.67312 0.10936 0.0
H906 H 0.31942 0.71586 0.11475 0.0
H907 H 0.33504 0.70664 0.13481 0.0
H908 H 0.36902 0.70578 0.15162 0.0
H909 H 0.38903 0.72109 0.16228 0.0
H910 H 0.38534 0.6985 0.20367 0.0
H911 H 0.36553 0.68324 0.19315 0.0
H912 H 0.34125 0.65802 0.19623 0.0
H913 H 0.33452 0.63604 0.20988 0.0
H914 H 0.3194 0.61506 0.16948 0.0
H915 H 0.3258 0.63729 0.15573 0.0
N916 N 0.33107 0.66669 0.1541 0.0
N917 N 0.34609 0.68778 0.15268 0.0
N918 N 0.34951 0.67141 0.17227 0.0
C919 C 0.33481 0.67931 0.14705 0.0
C920 C 0.35354 0.68388 0.16524 0.0
C921 C 0.33839 0.66272 0.16676 0.0
C922 C 0.32604 0.68443 0.13399 0.0
C923 C 0.31583 0.6751 0.12648 0.0
C924 C 0.30693 0.68043 0.11481 0.0
C925 C 0.3079 0.69524 0.11062 0.0
C926 C 0.31832 0.70444 0.11788 0.0
C927 C 0.32733 0.6991 0.12934 0.0
C928 C 0.36564 0.69327 0.17153 0.0
C929 C 0.37246 0.70411 0.163 0.0
C930 C 0.38396 0.71283 0.16907 0.0
C931 C 0.38866 0.71106 0.18382 0.0
C932 C 0.38181 0.70026 0.19232 0.0
C933 C 0.37051 0.69144 0.18624 0.0
C934 C 0.33407 0.64937 0.17489 0.0
C935 C 0.33647 0.64875 0.19023 0.0
C936 C 0.34084 0.30446 0.13358 0.0
C937 C 0.33038 0.31151 0.12438 0.0
C938 C 0.3246 0.32492 0.12903 0.0
C939 C 0.32933 0.33128 0.14237 0.0
H940 H 0.31937 0.3647 0.17035 0.0
H941 H 0.30828 0.38761 0.17811 0.0
H942 H 0.34138 0.39189 0.21312 0.0
H943 H 0.35257 0.3692 0.20536 0.0
H944 H 0.37882 0.34686 0.20758 0.0
H945 H 0.39924 0.33683 0.22239 0.0
H946 H 0.39422 0.29554 0.19931 0.0
H947 H 0.37382 0.3055 0.18446 0.0
H948 H 0.3539 0.30527 0.15368 0.0
H949 H 0.34553 0.29414 0.1303 0.0
H950 H 0.31633 0.33053 0.12234 0.0
H951 H 0.32464 0.34168 0.14543 0.0
N952 N 0.33901 0.34426 0.16992 0.0
N953 N 0.3555 0.3456 0.19026 0.0
N954 N 0.35686 0.32608 0.17351 0.0
C955 C 0.34395 0.35128 0.18235 0.0
C956 C 0.362 0.33301 0.18597 0.0
C957 C 0.34538 0.33168 0.16538 0.0
C958 C 0.33695 0.36508 0.18717 0.0
C959 C 0.32431 0.37052 0.17971 0.0
C960 C 0.31788 0.38362 0.18419 0.0
C961 C 0.324 0.39164 0.19617 0.0
C962 C 0.33653 0.38612 0.2037 0.0
C963 C 0.3429 0.37302 0.19928 0.0
C964 C 0.3746 0.32698 0.19483 0.0
C965 C 0.38205 0.33563 0.20564 0.0
C966 C 0.39382 0.32993 0.21408 0.0
C967 C 0.39831 0.31538 0.21207 0.0
C968 C 0.39091 0.30674 0.20124 0.0
C969 C 0.37926 0.31249 0.19267 0.0
C970 C 0.34004 0.32445 0.15147 0.0
C971 C 0.34568 0.31089 0.14695 0.0
C972 C 0.62046 0.33772 0.20245 0.0
C973 C 0.61956 0.32241 0.2004 0.0
C974 C 0.63119 0.31523 0.19381 0.0
C975 C 0.64327 0.32317 0.18898 0.0
H976 H 0.6641 0.32465 0.15001 0.0
H977 H 0.67446 0.31401 0.12839 0.0
H978 H 0.70952 0.34647 0.13031 0.0
H979 H 0.69885 0.3575 0.15191 0.0
H980 H 0.69319 0.38566 0.17241 0.0
H981 H 0.70302 0.40849 0.18264 0.0
H982 H 0.67548 0.40365 0.22002 0.0
H983 H 0.66563 0.38053 0.20982 0.0
H984 H 0.63309 0.35749 0.19929 0.0
H985 H 0.61166 0.3435 0.20758 0.0
H986 H 0.63075 0.30347 0.19198 0.0
H987 H 0.6519 0.31729 0.18367 0.0
N988 N 0.66287 0.34116 0.17243 0.0
N989 N 0.67907 0.36125 0.17189 0.0
N990 N 0.66142 0.35978 0.19013 0.0
C991 C 0.6741 0.34831 0.16605 0.0
C992 C 0.67283 0.36707 0.18395 0.0
C993 C 0.65646 0.34674 0.18439 0.0
C994 C 0.68065 0.34194 0.15279 0.0
C995 C 0.67404 0.32957 0.1459 0.0
C996 C 0.68005 0.32337 0.1335 0.0
C997 C 0.69292 0.32927 0.12765 0.0
C998 C 0.69952 0.34171 0.13445 0.0
C999 C 0.69344 0.348 0.14688 0.0
C1000 C 0.67856 0.38119 0.19025 0.0
C1001 C 0.68916 0.38939 0.1828 0.0
C1002 C 0.69475 0.40259 0.18863 0.0
C1003 C 0.68996 0.40796 0.20211 0.0
C1004 C 0.67944 0.39976 0.20965 0.0
C1005 C 0.67374 0.38655 0.20375 0.0
C1006 C 0.64414 0.33849 0.19079 0.0
C1007 C 0.63274 0.34569 0.19782 0.0
C1008 C 0.64083 0.3266 0.82331 0.0
C1009 C 0.63427 0.3336 0.81103 0.0
C1010 C 0.63912 0.34779 0.80736 0.0
C1011 C 0.65055 0.35469 0.81565 0.0
H1012 H 0.68535 0.38721 0.81325 0.0
H1013 H 0.7011 0.40699 0.80426 0.0
H1014 H 0.72796 0.4048 0.84431 0.0
H1015 H 0.71224 0.38561 0.85339 0.0
H1016 H 0.70368 0.36744 0.87892 0.0
H1017 H 0.71209 0.35737 0.90233 0.0
H1018 H 0.68327 0.31977 0.89545 0.0
H1019 H 0.6749 0.32977 0.8717 0.0
H1020 H 0.65682 0.32771 0.84102 0.0
H1021 H 0.6372 0.31574 0.82653 0.0
H1022 H 0.63428 0.35342 0.79793 0.0
H1023 H 0.65416 0.36558 0.81249 0.0
N1024 N 0.67701 0.36636 0.83154 0.0
N1025 N 0.69177 0.36691 0.85319 0.0
N1026 N 0.67304 0.34924 0.8504 0.0
C1027 C 0.68835 0.37249 0.83971 0.0
C1028 C 0.68424 0.35536 0.85866 0.0
C1029 C 0.66929 0.3547 0.83686 0.0
C1030 C 0.69744 0.38477 0.83406 0.0
C1031 C 0.69456 0.39104 0.82015 0.0
C1032 C 0.70365 0.40232 0.81497 0.0
C1033 C 0.71579 0.40756 0.82358 0.0
C1034 C 0.71857 0.4013 0.83748 0.0
C1035 C 0.70954 0.39014 0.84265 0.0
C1036 C 0.68863 0.3494 0.87333 0.0
C1037 C 0.69904 0.35705 0.88235 0.0
C1038 C 0.7038 0.35133 0.89588 0.0
C1039 C 0.69833 0.33778 0.90079 0.0
C1040 C 0.68778 0.33018 0.89191 0.0
C1041 C 0.68293 0.33596 0.87834 0.0
C1042 C 0.65715 0.34762 0.82793 0.0
C1043 C 0.65204 0.33353 0.83168 0.0
C1044 C 0.64585 0.69245 0.82742 0.0
C1045 C 0.64305 0.68898 0.81252 0.0
C1046 C 0.65334 0.68066 0.8051 0.0
C1047 C 0.66612 0.67576 0.81244 0.0
H1048 H 0.69372 0.64141 0.81183 0.0
H1049 H 0.70559 0.62041 0.80126 0.0
H1050 H 0.7403 0.62337 0.83484 0.0
H1051 H 0.7282 0.64433 0.84574 0.0
H1052 H 0.72502 0.6692 0.87199 0.0
H1053 H 0.73508 0.68311 0.89322 0.0
H1054 H 0.69945 0.71382 0.88837 0.0
H1055 H 0.68949 0.7002 0.86734 0.0
H1056 H 0.66065 0.69062 0.8462 0.0
H1057 H 0.63812 0.69894 0.83337 0.0
H1058 H 0.65141 0.67774 0.79364 0.0
H1059 H 0.67378 0.6693 0.80638 0.0
N1060 N 0.68989 0.66244 0.82945 0.0
N1061 N 0.70773 0.66414 0.84868 0.0
N1062 N 0.68794 0.68054 0.8475 0.0
C1063 C 0.7024 0.65739 0.83617 0.0
C1064 C 0.70054 0.67577 0.85442 0.0
C1065 C 0.68258 0.67395 0.83501 0.0
C1066 C 0.70997 0.64463 0.82972 0.0
C1067 C 0.7039 0.63766 0.81703 0.0
C1068 C 0.71077 0.62562 0.81085 0.0
C1069 C 0.72393 0.62018 0.81714 0.0
C1070 C 0.73007 0.62715 0.8298 0.0
C1071 C 0.72317 0.63923 0.83602 0.0
C1072 C 0.70648 0.6836 0.8678 0.0
C1073 C 0.7193 0.6789 0.87549 0.0
C1074 C 0.72505 0.68682 0.8877 0.0
C1075 C 0.71817 0.69967 0.89238 0.0
C1076 C 0.70519 0.70413 0.8849 0.0
C1077 C 0.69943 0.69623 0.87283 0.0
C1078 C 0.66901 0.67928 0.82733 0.0
C1079 C 0.65877 0.68776 0.83472 0.0
C1080 C 0.35685 0.64825 0.82063 0.0
C1081 C 0.34395 0.64219 0.82632 0.0
C1082 C 0.3387 0.64804 0.8394 0.0
C1083 C 0.34599 0.6599 0.84642 0.0
H1084 H 0.34927 0.68494 0.88631 0.0
H1085 H 0.33876 0.69681 0.90762 0.0
H1086 H 0.36026 0.73757 0.89647 0.0
H1087 H 0.37096 0.72576 0.87535 0.0
H1088 H 0.40437 0.71721 0.86052 0.0
H1089 H 0.42595 0.72845 0.84984 0.0
H1090 H 0.41734 0.7039 0.80979 0.0
H1091 H 0.3957 0.69258 0.82043 0.0
H1092 H 0.37394 0.66448 0.82279 0.0
H1093 H 0.36136 0.64385 0.81072 0.0
H1094 H 0.32876 0.64369 0.84404 0.0
H1095 H 0.34149 0.66426 0.85636 0.0
N1096 N 0.36071 0.68527 0.85986 0.0
N1097 N 0.37933 0.70332 0.86001 0.0
N1098 N 0.37831 0.68526 0.84163 0.0
C1099 C 0.36721 0.6974 0.8661 0.0
C1100 C 0.385 0.69731 0.84783 0.0
C1101 C 0.36617 0.67914 0.8476 0.0
C1102 C 0.36095 0.7044 0.87913 0.0
C1103 C 0.35178 0.69642 0.88843 0.0
C1104 C 0.34584 0.70317 0.90065 0.0
C1105 C 0.3487 0.71809 0.90364 0.0
C1106 C 0.35782 0.72607 0.89435 0.0
C1107 C 0.36399 0.71927 0.88231 0.0
C1108 C 0.39825 0.70398 0.84134 0.0
C1109 C 0.40704 0.71418 0.84943 0.0
C1110 C 0.41947 0.72058 0.84335 0.0
C1111 C 0.42333 0.71708 0.82897 0.0
C1112 C 0.41456 0.70692 0.82085 0.0
C1113 C 0.40221 0.70036 0.82699 0.0
C1114 C 0.35873 0.66616 0.84054 0.0
C1115 C 0.36413 0.66007 0.82762 0.0
C1116 C 0.32475 0.35203 0.89384 0.0
C1117 C 0.32827 0.33907 0.90151 0.0
C1118 C 0.34107 0.33154 0.89793 0.0
C1119 C 0.35001 0.3367 0.88685 0.0
H1120 H 0.38817 0.32743 0.86611 0.0
H1121 H 0.40872 0.31258 0.85848 0.0
H1122 H 0.41381 0.34054 0.8207 0.0
H1123 H 0.39326 0.35532 0.82816 0.0
H1124 H 0.37556 0.38424 0.82552 0.0
H1125 H 0.3691 0.40599 0.81136 0.0
H1126 H 0.33101 0.41203 0.83761 0.0
H1127 H 0.33729 0.3901 0.85167 0.0
H1128 H 0.33054 0.36715 0.87696 0.0
H1129 H 0.31491 0.35804 0.89623 0.0
H1130 H 0.34426 0.32166 0.90377 0.0
H1131 H 0.35973 0.33053 0.88441 0.0
N1132 N 0.36769 0.34694 0.86321 0.0
N1133 N 0.3726 0.36382 0.84458 0.0
N1134 N 0.35234 0.36721 0.85938 0.0
C1135 C 0.37617 0.35137 0.85203 0.0
C1136 C 0.36074 0.37183 0.84818 0.0
C1137 C 0.35576 0.35477 0.86698 0.0
C1138 C 0.38897 0.34256 0.84773 0.0
C1139 C 0.39367 0.33044 0.85619 0.0
C1140 C 0.40551 0.32197 0.85187 0.0
C1141 C 0.41284 0.32534 0.83895 0.0
C1142 C 0.40825 0.33754 0.8306 0.0
C1143 C 0.39651 0.34606 0.83495 0.0
C1144 C 0.35694 0.38533 0.83976 0.0
C1145 C 0.3658 0.39018 0.82833 0.0
C1146 C 0.36216 0.40274 0.82024 0.0
C1147 C 0.34953 0.41077 0.82333 0.0
C1148 C 0.34071 0.40599 0.83481 0.0
C1149 C 0.34437 0.39344 0.84294 0.0
C1150 C 0.34641 0.34956 0.87903 0.0
C1151 C 0.3337 0.35721 0.88273 0.0
Cu1152 Cu 0.25994 0.26651 0.01087 0.0
N1153 N 0.26041 0.2839 0.99989 0.0
N1154 N 0.26766 0.29962 0.98266 0.0
C1155 C 0.26951 0.28625 0.98878 0.0
C1156 C 0.25696 0.30597 0.99028 0.0
C1157 C 0.25247 0.29622 1.00087 0.0
O1158 O 0.25969 0.25052 0.99645 0.0
C1159 C 0.27728 0.2791 0.03256 0.0
O1160 O 0.26709 0.289 0.03023 0.0
H1161 H 0.27747 0.27829 0.98542 0.0
H1162 H 0.24409 0.29804 0.00878 0.0
N1163 N 0.24307 0.26472 0.02187 0.0
N1164 N 0.22856 0.25661 0.03953 0.0
C1165 C 0.24219 0.25654 0.03411 0.0
C1166 C 0.22954 0.27019 0.01938 0.0
C1167 C 0.22056 0.26521 0.03026 0.0
C1168 C 0.24968 0.25198 0.98638 0.0
O1169 O 0.24066 0.26308 0.98724 0.0
H1170 H 0.25134 0.25033 0.03867 0.0
H1171 H 0.22634 0.27712 0.0102 0.0
O1172 O 0.27666 0.26728 0.02501 0.0
H1173 H 0.25256 0.3168 0.98825 0.0
H1174 H 0.20904 0.26773 0.03124 0.0
Cu1175 Cu 0.7645 0.27522 0.00927 0.0
N1176 N 0.74681 0.2751 0.02071 0.0
N1177 N 0.73141 0.28073 0.03831 0.0
C1178 C 0.7438 0.28459 0.03149 0.0
C1179 C 0.72644 0.26836 0.03146 0.0
C1180 C 0.73599 0.26492 0.02057 0.0
O1181 O 0.77573 0.26591 0.02647 0.0
C1182 C 0.74932 0.29717 0.99127 0.0
O1183 O 0.75308 0.30593 1.00229 0.0
H1184 H 0.75091 0.29375 0.03467 0.0
H1185 H 0.73534 0.25548 0.01334 0.0
N1186 N 0.78235 0.27563 0.99806 0.0
N1187 N 0.79908 0.27032 0.98162 0.0
C1188 C 0.78564 0.26701 0.98666 0.0
C1189 C 0.79396 0.28472 1.00033 0.0
C1190 C 0.80433 0.28145 0.9902 0.0
C1191 C 0.78169 0.27339 0.03693 0.0
O1192 O 0.78101 0.28778 0.03655 0.0
H1193 H 0.77842 0.2584 0.98231 0.0
H1194 H 0.79477 0.29314 0.00872 0.0
O1195 O 0.75303 0.28377 0.99182 0.0
H1196 H 0.71671 0.26215 0.03423 0.0
H1197 H 0.81482 0.28701 0.98911 0.0
Cu1198 Cu 0.74991 0.78077 1.00291 0.0
N1199 N 0.74982 0.79738 0.99077 0.0
N1200 N 0.75615 0.81166 0.97201 0.0
C1201 C 0.7584 0.79885 0.97912 0.0
C1202 C 0.74576 0.81859 0.97956 0.0
C1203 C 0.74182 0.80972 0.99111 0.0
O1204 O 0.75124 0.76401 0.98951 0.0
C1205 C 0.76462 0.79538 0.02514 0.0
O1206 O 0.75325 0.80378 0.02222 0.0
H1207 H 0.76622 0.79064 0.97601 0.0
H1208 H 0.7337 0.81209 0.99914 0.0
N1209 N 0.73261 0.77863 0.0132 0.0
N1210 N 0.71769 0.77064 0.03056 0.0
C1211 C 0.7315 0.77069 0.02557 0.0
C1212 C 0.71905 0.78383 0.01019 0.0
C1213 C 0.70981 0.7789 0.02089 0.0
C1214 C 0.74132 0.76422 0.97923 0.0
O1215 O 0.73137 0.77456 0.97944 0.0
H1216 H 0.74064 0.7648 0.03058 0.0
H1217 H 0.71604 0.7906 1.00083 0.0
O1218 O 0.76587 0.78358 0.01772 0.0
H1219 H 0.74116 0.82919 0.97681 0.0
H1220 H 0.69822 0.78128 0.02149 0.0
Cu1221 Cu 0.26138 0.77228 0.007 0.0
N1222 N 0.25747 0.78898 0.01809 0.0
N1223 N 0.24685 0.80274 0.03497 0.0
C1224 C 0.24652 0.78987 0.02758 0.0
C1225 C 0.25836 0.81034 0.02972 0.0
C1226 C 0.26493 0.80179 0.01932 0.0
O1227 O 0.25919 0.75511 0.01964 0.0
C1228 C 0.25147 0.78353 0.98084 0.0
O1229 O 0.26231 0.79257 0.98465 0.0
H1230 H 0.23868 0.78106 0.02923 0.0
H1231 H 0.27468 0.80453 0.01338 0.0
N1232 N 0.28073 0.77209 1.00084 0.0
N1233 N 0.29954 0.7663 0.98695 0.0
C1234 C 0.28481 0.76696 0.98775 0.0
C1235 C 0.29335 0.77476 0.00863 0.0
C1236 C 0.30502 0.77113 1.00008 0.0
C1237 C 0.26479 0.75659 0.03262 0.0
O1238 O 0.27115 0.76911 0.03641 0.0
H1239 H 0.27709 0.7631 0.97923 0.0
H1240 H 0.29401 0.77857 0.01989 0.0
O1241 O 0.24847 0.77295 0.98944 0.0
H1242 H 0.26212 0.82106 0.03351 0.0
H1243 H 0.31658 0.77175 1.00331 0.0
Cu1244 Cu 0.01425 0.24543 0.27461 0.0
N1245 N 0.02642 0.22903 0.27401 0.0
N1246 N 0.04493 0.21527 0.26656 0.0
C1247 C 0.03753 0.22793 0.26475 0.0
C1248 C 0.03811 0.20805 0.27738 0.0
C1249 C 0.0267 0.21661 0.28201 0.0
O1250 O 0.02747 0.26242 0.27394 0.0
C1251 C 0.99245 0.23136 0.25877 0.0
O1252 O 0.99562 0.22195 0.26931 0.0
H1253 H 0.04005 0.2363 0.25677 0.0
H1254 H 0.0192 0.21398 0.29059 0.0
N1255 N 1.00374 0.24674 0.29177 0.0
N1256 N 0.98619 0.25441 0.30644 0.0
C1257 C 0.99131 0.25447 0.29271 0.0
C1258 C 0.00669 0.24155 0.30538 0.0
C1259 C 0.99585 0.24629 0.31448 0.0
C1260 C 0.03796 0.26182 0.28359 0.0
O1261 O 0.03833 0.25079 0.29286 0.0
H1262 H 0.98642 0.26041 0.28352 0.0
H1263 H 0.01615 0.23504 0.30854 0.0
O1264 O 0.99963 0.24346 0.25851 0.0
H1265 H 0.04126 0.19748 0.28181 0.0
H1266 H 0.9952 0.24397 0.32609 0.0
Cu1267 Cu 0.74878 0.01153 0.239 0.0
N1268 N 0.75004 0.02364 0.2225 0.0
N1269 N 0.75787 0.04268 0.20923 0.0
C1270 C 0.75374 0.03803 0.22256 0.0
C1271 C 0.75649 0.03081 0.20038 0.0
C1272 C 0.75169 0.0191 0.20859 0.0
O1273 O 0.74546 0.02363 0.25609 0.0
C1274 C 0.76838 0.98827 0.247 0.0
O1275 O 0.75945 0.98544 0.25767 0.0
H1276 H 0.75469 0.04464 0.23242 0.0
H1277 H 0.75073 0.00781 0.20497 0.0
N1278 N 0.73288 0.9984 0.23731 0.0
N1279 N 0.71778 0.98024 0.24408 0.0
C1280 C 0.72757 0.9907 0.2486 0.0
C1281 C 0.726 0.99286 0.22516 0.0
C1282 C 0.71667 0.98165 0.2293 0.0
C1283 C 0.75396 0.03358 0.2615 0.0
O1284 O 0.76732 0.03508 0.25663 0.0
H1285 H 0.73158 0.99217 0.25985 0.0
H1286 H 0.72809 0.99624 0.21405 0.0
O1287 O 0.76651 0.99982 0.23934 0.0
H1288 H 0.75958 0.0304 0.18901 0.0
H1289 H 0.70998 0.9748 0.22193 0.0
Cu1290 Cu 0.00577 0.75499 0.26095 0.0
N1291 N 0.99716 0.77353 0.2602 0.0
N1292 N 0.98077 0.79042 0.25322 0.0
C1293 C 0.98419 0.77609 0.25317 0.0
C1294 C 0.99209 0.79727 0.26047 0.0
C1295 C 1.0022 0.78676 0.26486 0.0
O1296 O 0.98953 0.74072 0.26027 0.0
C1297 C 0.03088 0.76237 0.24721 0.0
O1298 O 0.03217 0.76998 0.25946 0.0
H1299 H 0.97755 0.7676 0.24774 0.0
H1300 H 0.01256 0.78867 0.27081 0.0
N1301 N 0.01681 0.75156 0.27831 0.0
N1302 N 0.03461 0.74204 0.29276 0.0
C1303 C 0.02887 0.74315 0.27897 0.0
C1304 C 0.01477 0.75591 0.29223 0.0
C1305 C 0.02574 0.74995 0.30123 0.0
C1306 C 0.97991 0.74326 0.26979 0.0
O1307 O 0.98202 0.75436 0.27886 0.0
H1308 H 0.03329 0.73781 0.26949 0.0
H1309 H 0.00596 0.76289 0.29561 0.0
O1310 O 0.01943 0.75436 0.24487 0.0
H1311 H 0.99296 0.80898 0.26246 0.0
H1312 H 0.02723 0.7515 0.31298 0.0
Cu1313 Cu 0.24516 0.00815 0.27538 0.0
N1314 N 0.24516 0.01963 0.29248 0.0
N1315 N 0.25149 0.03793 0.30791 0.0
C1316 C 0.25438 0.03104 0.29522 0.0
C1317 C 0.24006 0.03044 0.31346 0.0
C1318 C 0.23613 0.01918 0.30386 0.0
O1319 O 0.24738 0.02178 0.25907 0.0
C1320 C 0.26165 0.98724 0.2898 0.0
O1321 O 0.2517 0.98994 0.29952 0.0
H1322 H 0.26295 0.03428 0.28791 0.0
H1323 H 0.22719 0.01138 0.30498 0.0
N1324 N 0.2275 0.99775 0.27238 0.0
N1325 N 0.2117 0.98057 0.26378 0.0
C1326 C 0.22598 0.98445 0.26598 0.0
C1327 C 0.21373 1.00241 0.2744 0.0
C1328 C 0.20394 0.99183 0.26906 0.0
C1329 C 0.23928 0.03308 0.25949 0.0
O1330 O 0.22995 0.03431 0.27009 0.0
H1331 H 0.23516 0.97808 0.26237 0.0
H1332 H 0.21098 0.01293 0.27901 0.0
O1333 O 0.26104 0.99406 0.2776 0.0
H1334 H 0.23466 0.03316 0.32349 0.0
H1335 H 0.19206 0.99247 0.26885 0.0
Cu1336 Cu 0.00682 0.75731 0.75433 0.0
N1337 N 0.01667 0.73969 0.75167 0.0
N1338 N 0.03414 0.72455 0.74442 0.0
C1339 C 0.03023 0.73864 0.74635 0.0
C1340 C 0.0226 0.71639 0.74872 0.0
C1341 C 0.01185 0.72577 0.75329 0.0
O1342 O 0.02162 0.77222 0.75951 0.0
C1343 C 0.98417 0.75243 0.73441 0.0
O1344 O 0.98251 0.74142 0.7435 0.0
H1345 H 0.03686 0.74807 0.74341 0.0
H1346 H 1.00117 0.72266 0.75719 0.0
N1347 N 0.99368 0.75629 0.7696 0.0
N1348 N 0.97455 0.76256 0.78287 0.0
C1349 C 0.98257 0.7657 0.77108 0.0
C1350 C 0.99274 0.74678 0.78084 0.0
C1351 C 0.98095 0.75069 0.78913 0.0
C1352 C 0.0283 0.7701 0.77186 0.0
O1353 O 0.0247 0.7585 0.77957 0.0
H1354 H 0.98052 0.77478 0.76365 0.0
H1355 H 1.00007 0.73768 0.78287 0.0
O1356 O 0.99483 0.76144 0.73668 0.0
H1357 H 0.02194 0.70451 0.74848 0.0
H1358 H 0.97727 0.74511 0.79884 0.0
Cu1359 Cu 0.2782 0.01302 0.77034 0.0
N1360 N 0.27567 0.02939 0.75831 0.0
N1361 N 0.2808 0.04912 0.74481 0.0
C1362 C 0.28632 0.03839 0.75353 0.0
C1363 C 0.26613 0.04667 0.74395 0.0
C1364 C 0.263 0.03449 0.7523 0.0
O1365 O 0.29315 0.01694 0.78571 0.0
C1366 C 0.29107 0.98578 0.76437 0.0
O1367 O 0.29283 0.98545 0.77876 0.0
H1368 H 0.29788 0.03707 0.75641 0.0
H1369 H 0.25225 0.02967 0.75389 0.0
N1370 N 0.26058 0.00745 0.77877 0.0
N1371 N 0.24305 0.99313 0.78797 0.0
C1372 C 0.25582 0.99358 0.78087 0.0
C1373 C 0.25042 0.0161 0.78464 0.0
C1374 C 0.23962 0.00729 0.7904 0.0
C1375 C 0.29273 0.02538 0.79687 0.0
O1376 O 0.30378 0.02525 0.80656 0.0
H1377 H 0.26181 0.984 0.77761 0.0
H1378 H 0.2509 0.02796 0.78484 0.0
O1379 O 0.28489 0.99683 0.75837 0.0
H1380 H 0.25822 0.05334 0.73792 0.0
H1381 H 0.22998 0.01102 0.79588 0.0
Cu1382 Cu 0.03561 0.26126 0.7591 0.0
N1383 N 0.02203 0.26213 0.74332 0.0
N1384 N 1.00236 0.27036 0.73054 0.0
C1385 C 0.00874 0.2684 0.74399 0.0
C1386 C 0.01201 0.26504 0.721 0.0
C1387 C 0.02416 0.25995 0.72893 0.0
O1388 O 0.02374 0.26285 0.77637 0.0
C1389 C 0.0595 0.28224 0.76467 0.0
O1390 O 0.06101 0.27693 0.77804 0.0
H1391 H 1.00434 0.27247 0.75409 0.0
H1392 H 0.03417 0.25579 0.72451 0.0
N1393 N 0.04582 0.24352 0.75935 0.0
N1394 N 0.06305 0.22696 0.76541 0.0
C1395 C 0.05944 0.24133 0.76518 0.0
C1396 C 0.04061 0.23011 0.75557 0.0
C1397 C 0.0512 0.21989 0.75926 0.0
C1398 C 0.02459 0.25424 0.78736 0.0
O1399 O 0.03593 0.24552 0.78897 0.0
H1400 H 0.06637 0.25012 0.76953 0.0
H1401 H 0.02966 0.22789 0.75102 0.0
O1402 O 0.04927 0.27737 0.75603 0.0
H1403 H 0.01063 0.2653 0.70914 0.0
H1404 H 0.04993 0.20811 0.75808 0.0
Cu1405 Cu 0.77373 0.0289 0.76181 0.0
N1406 N 0.77695 0.04053 0.77867 0.0
N1407 N 0.78677 0.05835 0.79302 0.0
C1408 C 0.78648 0.05194 0.77961 0.0
C1409 C 0.77697 0.05058 0.80079 0.0
C1410 C 0.77093 0.03964 0.79192 0.0
O1411 O 0.77234 0.04242 0.74526 0.0
C1412 C 0.79113 0.0075 0.77341 0.0
O1413 O 0.78239 0.01034 0.78419 0.0
H1414 H 0.7929 0.05551 0.77048 0.0
H1415 H 0.7629 0.03147 0.79502 0.0
N1416 N 0.75615 0.01815 0.76196 0.0
N1417 N 0.73966 1.00083 0.7552 0.0
C1418 C 0.75327 0.00639 0.75334 0.0
C1419 C 0.74392 0.02019 0.76956 0.0
C1420 C 0.73373 0.00944 0.76547 0.0
C1421 C 0.76331 0.05276 0.74728 0.0
O1422 O 0.75589 0.05282 0.7594 0.0
H1423 H 0.7611 1.002 0.74585 0.0
H1424 H 0.74238 0.02901 0.77729 0.0
O1425 O 0.7895 0.0146 0.76142 0.0
H1426 H 0.77447 0.05246 0.81216 0.0
H1427 H 0.72271 0.00828 0.76945 0.0
Cu1428 Cu 0.2624 0.75502 0.50494 0.0
N1429 N 0.27885 0.75923 0.51714 0.0
N1430 N 0.29271 0.77027 0.53478 0.0
C1431 C 0.27897 0.76809 0.529 0.0
C1432 C 0.30154 0.7624 0.52622 0.0
C1433 C 0.29297 0.75565 0.51533 0.0
O1434 O 0.24531 0.75387 0.51718 0.0
C1435 C 0.27099 0.76836 0.47989 0.0
O1436 O 0.28069 0.75786 0.48149 0.0
H1437 H 0.26922 0.77332 0.53289 0.0
H1438 H 0.29685 0.74898 0.50647 0.0
N1439 N 0.26374 0.73694 0.49523 0.0
N1440 N 0.25827 0.71951 0.47854 0.0
C1441 C 0.25453 0.73262 0.48412 0.0
C1442 C 0.27366 0.72614 0.49683 0.0
C1443 C 0.27034 0.71538 0.48648 0.0
C1444 C 0.2446 0.74218 0.52481 0.0
O1445 O 0.25517 0.73255 0.52404 0.0
H1446 H 0.2455 0.73924 0.47995 0.0
H1447 H 0.28269 0.72609 0.50489 0.0
O1448 O 0.26134 0.76987 0.48957 0.0
H1449 H 0.31338 0.7617 0.52759 0.0
H1450 H 0.27629 0.7053 0.48498 0.0
Cu1451 Cu 0.76048 0.77571 0.50154 0.0
N1452 N 0.77832 0.7731 0.49228 0.0
N1453 N 0.7937 0.76438 0.47585 0.0
C1454 C 0.77954 0.76629 0.47925 0.0
C1455 C 0.80175 0.77023 0.48719 0.0
C1456 C 0.79223 0.77567 0.4973 0.0
O1457 O 0.7456 0.779 0.48589 0.0
C1458 C 0.76683 0.75841 0.52522 0.0
O1459 O 0.77653 0.76911 0.52692 0.0
H1460 H 0.77019 0.76222 0.47269 0.0
H1461 H 0.79525 0.78074 0.50774 0.0
N1462 N 0.76055 0.7921 0.51399 0.0
N1463 N 0.7541 0.8061 0.53287 0.0
C1464 C 0.75095 0.79399 0.52473 0.0
C1465 C 0.77011 0.80345 0.51526 0.0
C1466 C 0.76617 0.8121 0.52693 0.0
C1467 C 0.74879 0.78979 0.47762 0.0
O1468 O 0.76094 0.7973 0.48071 0.0
H1469 H 0.74218 0.78624 0.52688 0.0
H1470 H 0.77944 0.80515 0.5084 0.0
O1471 O 0.75778 0.75861 0.51417 0.0
H1472 H 0.81365 0.7704 0.48818 0.0
H1473 H 0.77181 0.82199 0.53077 0.0
Cu1474 Cu 0.76771 0.25829 0.51033 0.0
N1475 N 0.76637 0.24084 0.49945 0.0
N1476 N 0.75811 0.22546 0.48175 0.0
C1477 C 0.75768 0.23921 0.4873 0.0
C1478 C 0.76757 0.21818 0.49084 0.0
C1479 C 0.77265 0.22769 0.50175 0.0
O1480 O 0.76965 0.27396 0.49594 0.0
C1481 C 0.7491 0.2473 0.53011 0.0
O1482 O 0.75928 0.23722 0.52962 0.0
H1483 H 0.75121 0.24806 0.48265 0.0
H1484 H 0.78008 0.22508 0.51088 0.0
N1485 N 0.78408 0.25902 0.52325 0.0
N1486 N 0.79821 0.26631 0.54252 0.0
C1487 C 0.78531 0.26801 0.53497 0.0
C1488 C 0.79666 0.25139 0.52329 0.0
C1489 C 0.80539 0.25582 0.53525 0.0
C1490 C 0.78007 0.27163 0.48728 0.0
O1491 O 0.78837 0.26008 0.48955 0.0
H1492 H 0.77678 0.27551 0.53798 0.0
H1493 H 0.79938 0.2433 0.51516 0.0
O1494 O 0.75037 0.25879 0.52227 0.0
H1495 H 0.7704 0.20672 0.48994 0.0
H1496 H 0.81626 0.25183 0.53821 0.0
Cu1497 Cu 0.26685 0.28262 0.51983 0.0
N1498 N 0.26377 0.3005 0.52938 0.0
N1499 N 0.25561 0.31567 0.54659 0.0
C1500 C 0.25485 0.30203 0.54075 0.0
C1501 C 0.26531 0.32308 0.53838 0.0
C1502 C 0.27037 0.31367 0.5278 0.0
O1503 O 0.26872 0.26763 0.53509 0.0
C1504 C 0.25141 0.28933 0.49487 0.0
O1505 O 0.2616 0.29967 0.49568 0.0
H1506 H 0.24819 0.29311 0.54483 0.0
H1507 H 0.2786 0.31611 0.51984 0.0
N1508 N 0.2843 0.28218 0.50953 0.0
N1509 N 0.29975 0.2746 0.49263 0.0
C1510 C 0.28568 0.27496 0.49675 0.0
C1511 C 0.29803 0.28659 0.51366 0.0
C1512 C 0.30762 0.28183 0.50325 0.0
C1513 C 0.27724 0.2714 0.54592 0.0
O1514 O 0.28365 0.28439 0.54576 0.0
H1515 H 0.27662 0.26939 0.49095 0.0
H1516 H 0.30095 0.29235 0.52376 0.0
O1517 O 0.2509 0.27988 0.50516 0.0
H1518 H 0.26896 0.33431 0.54022 0.0
H1519 H 0.31945 0.28334 0.5036 0.0
Cu1520 Cu 0.7928 0.51602 0.75884 0.0
N1521 N 0.80978 0.52754 0.75735 0.0
N1522 N 0.82309 0.54656 0.74955 0.0
C1523 C 0.80957 0.54154 0.75267 0.0
C1524 C 0.83225 0.5353 0.75251 0.0
C1525 C 0.82399 0.52356 0.75742 0.0
O1526 O 0.77701 0.52944 0.76342 0.0
C1527 C 0.79835 0.50429 0.73048 0.0
O1528 O 0.80676 0.51593 0.72877 0.0
H1529 H 0.79951 0.5475 0.7504 0.0
H1530 H 0.8279 0.51262 0.75985 0.0
N1531 N 0.79399 0.50235 0.77402 0.0
N1532 N 0.78623 0.48361 0.78762 0.0
C1533 C 0.78387 0.49163 0.77536 0.0
C1534 C 0.80325 0.50109 0.78581 0.0
C1535 C 0.7984 0.48953 0.79432 0.0
C1536 C 0.77873 0.5353 0.77611 0.0
O1537 O 0.79035 0.53178 0.78429 0.0
H1538 H 0.77458 0.49012 0.7677 0.0
H1539 H 0.81259 0.50827 0.78824 0.0
O1540 O 0.78991 0.50376 0.74134 0.0
H1541 H 0.84393 0.53533 0.75064 0.0
H1542 H 0.80336 0.48586 0.80464 0.0
Cu1543 Cu 0.29088 0.53115 0.75763 0.0
N1544 N 0.30786 0.51978 0.75902 0.0
N1545 N 0.32202 0.50109 0.76643 0.0
C1546 C 0.30878 0.5075 0.76716 0.0
C1547 C 0.32987 0.50984 0.75758 0.0
C1548 C 0.32108 0.52138 0.75299 0.0
O1549 O 0.27458 0.51747 0.76042 0.0
C1550 C 0.30245 0.55707 0.7679 0.0
O1551 O 0.30909 0.55536 0.75545 0.0
H1552 H 0.29986 0.50345 0.77364 0.0
H1553 H 0.32412 0.53026 0.74579 0.0
N1554 N 0.28755 0.5396 0.73914 0.0
N1555 N 0.27692 0.5542 0.72227 0.0
C1556 C 0.27661 0.54906 0.73614 0.0
C1557 C 0.29505 0.5386 0.72671 0.0
C1558 C 0.28854 0.54768 0.71627 0.0
C1559 C 0.27463 0.50693 0.75118 0.0
O1560 O 0.28468 0.50692 0.74118 0.0
H1561 H 0.26886 0.55244 0.7442 0.0
H1562 H 0.30465 0.5319 0.72538 0.0
O1563 O 0.29332 0.5472 0.77178 0.0
H1564 H 0.34107 0.50795 0.75448 0.0
H1565 H 0.29207 0.54935 0.70516 0.0
Cu1566 Cu 0.27333 0.50311 0.25923 0.0
N1567 N 0.27253 0.49298 0.277 0.0
N1568 N 0.26404 0.47689 0.29324 0.0
C1569 C 0.26213 0.48285 0.27976 0.0
C1570 C 0.27619 0.48355 0.29921 0.0
C1571 C 0.28138 0.49355 0.28917 0.0
O1572 O 0.27526 0.48838 0.24381 0.0
C1573 C 0.25635 0.5254 0.26782 0.0
O1574 O 0.26741 0.52571 0.27751 0.0
H1575 H 0.25348 0.47973 0.27185 0.0
H1576 H 0.29089 0.50069 0.29065 0.0
N1577 N 0.28945 0.51606 0.25817 0.0
N1578 N 0.30235 0.53526 0.2501 0.0
C1579 C 0.28913 0.52843 0.25009 0.0
C1580 C 0.30339 0.5151 0.2636 0.0
C1581 C 0.31142 0.52691 0.25852 0.0
C1582 C 0.287 0.48093 0.24546 0.0
O1583 O 0.29571 0.48354 0.25699 0.0
H1584 H 0.27947 0.53209 0.24389 0.0
H1585 H 0.30756 0.50631 0.27048 0.0
O1586 O 0.25599 0.5155 0.25789 0.0
H1587 H 0.2809 0.48147 0.31009 0.0
H1588 H 0.323 0.52915 0.26078 0.0
Cu1589 Cu 0.77116 0.51194 0.24905 0.0
N1590 N 0.787 0.49895 0.24954 0.0
N1591 N 0.80084 0.48022 0.25736 0.0
C1592 C 0.78745 0.48643 0.25739 0.0
C1593 C 0.80914 0.4891 0.24911 0.0
C1594 C 0.80055 0.50061 0.2442 0.0
O1595 O 0.75337 0.49983 0.24659 0.0
C1596 C 0.78472 0.5296 0.27017 0.0
O1597 O 0.79572 0.52691 0.26167 0.0
H1598 H 0.77837 0.4824 0.26368 0.0
H1599 H 0.8042 0.50993 0.23791 0.0
N1600 N 0.77181 0.52528 0.23346 0.0
N1601 N 0.76525 0.54446 0.21947 0.0
C1602 C 0.76321 0.53716 0.23215 0.0
C1603 C 0.77963 0.52501 0.22119 0.0
C1604 C 0.77559 0.53683 0.21253 0.0
C1605 C 0.75057 0.49486 0.23368 0.0
O1606 O 0.75932 0.49855 0.22311 0.0
H1607 H 0.75524 0.54005 0.24017 0.0
H1608 H 0.78735 0.51659 0.21847 0.0
O1609 O 0.77217 0.52383 0.26696 0.0
H1610 H 0.82069 0.48759 0.24711 0.0
H1611 H 0.77987 0.5395 0.20191 0.0
Cu1612 Cu 0.52295 0.25904 0.76909 0.0
N1613 N 0.51442 0.26102 0.78735 0.0
N1614 N 0.49813 0.26849 0.80349 0.0
C1615 C 0.50203 0.26855 0.78934 0.0
C1616 C 0.50863 0.26069 0.81076 0.0
C1617 C 0.51868 0.25608 0.80074 0.0
O1618 O 0.50673 0.25864 0.7544 0.0
C1619 C 0.54919 0.27267 0.77574 0.0
O1620 O 0.54986 0.26083 0.78395 0.0
H1621 H 0.49614 0.27416 0.78051 0.0
H1622 H 0.5284 0.24964 0.80308 0.0
N1623 N 0.53284 0.24133 0.76712 0.0
N1624 N 0.54882 0.22559 0.75801 0.0
C1625 C 0.54227 0.23872 0.75641 0.0
C1626 C 0.5333 0.22938 0.7758 0.0
C1627 C 0.54324 0.21965 0.77023 0.0
C1628 C 0.49719 0.2487 0.7571 0.0
O1629 O 0.49952 0.24021 0.76858 0.0
H1630 H 0.54472 0.24664 0.74795 0.0
H1631 H 0.52709 0.22795 0.78561 0.0
O1632 O 0.53765 0.27478 0.76765 0.0
H1633 H 0.50897 0.25835 0.82242 0.0
H1634 H 0.54619 0.2091 0.77485 0.0
Cu1635 Cu 0.52524 0.7578 0.75215 0.0
N1636 N 0.53384 0.73942 0.75401 0.0
N1637 N 0.55039 0.72286 0.76146 0.0
C1638 C 0.54794 0.7371 0.75828 0.0
C1639 C 0.53733 0.71592 0.75901 0.0
C1640 C 0.52713 0.72619 0.75437 0.0
O1641 O 0.5411 0.77217 0.75101 0.0
C1642 C 0.51356 0.75411 0.78061 0.0
O1643 O 0.52595 0.74744 0.78402 0.0
H1644 H 0.55595 0.74586 0.76008 0.0
H1645 H 0.51547 0.72431 0.75227 0.0
N1646 N 0.51356 0.75907 0.735 0.0
N1647 N 0.4947 0.76676 0.72076 0.0
C1648 C 0.4995 0.7635 0.73454 0.0
C1649 C 0.51782 0.75938 0.721 0.0
C1650 C 0.50618 0.76418 0.71216 0.0
C1651 C 0.5395 0.78456 0.74474 0.0
O1652 O 0.5262 0.78886 0.74076 0.0
H1653 H 0.49333 0.76553 0.74427 0.0
H1654 H 0.52889 0.75731 0.71763 0.0
O1655 O 0.51203 0.76045 0.76821 0.0
H1656 H 0.53519 0.70438 0.76096 0.0
H1657 H 0.50637 0.76627 0.70047 0.0
Cu1658 Cu 0.49887 0.74779 0.26084 0.0
N1659 N 0.48743 0.74745 0.27748 0.0
N1660 N 0.47017 0.75501 0.29252 0.0
C1661 C 0.4778 0.75805 0.28045 0.0
C1662 C 0.47525 0.74195 0.29739 0.0
C1663 C 0.48597 0.73732 0.28809 0.0
O1664 O 0.48541 0.75158 0.24418 0.0
C1665 C 0.52297 0.75873 0.27535 0.0
O1666 O 0.52034 0.74636 0.28226 0.0
H1667 H 0.47608 0.76756 0.27351 0.0
H1668 H 0.49208 0.72722 0.2889 0.0
N1669 N 0.50837 0.73014 0.25722 0.0
N1670 N 0.52581 0.71558 0.24873 0.0
C1671 C 0.52114 0.72949 0.25026 0.0
C1672 C 0.50467 0.71613 0.26015 0.0
C1673 C 0.51543 0.7071 0.2549 0.0
C1674 C 0.47412 0.74315 0.24388 0.0
O1675 O 0.47295 0.73303 0.25404 0.0
H1676 H 0.52672 0.73913 0.24618 0.0
H1677 H 0.49485 0.71271 0.26561 0.0
O1678 O 0.51431 0.76238 0.26468 0.0
H1679 H 0.47147 0.73613 0.30693 0.0
H1680 H 0.51562 0.69525 0.25569 0.0
Cu1681 Cu 0.50784 0.24509 0.25686 0.0
N1682 N 0.4965 0.22786 0.25684 0.0
N1683 N 0.47913 0.21266 0.2649 0.0
C1684 C 0.48789 0.22437 0.26802 0.0
C1685 C 0.48243 0.20854 0.25115 0.0
C1686 C 0.49324 0.21794 0.2462 0.0
O1687 O 0.49427 0.26113 0.26049 0.0
C1688 C 0.53241 0.23151 0.26686 0.0
O1689 O 0.52855 0.22437 0.25474 0.0
H1690 H 0.48742 0.23095 0.2779 0.0
H1691 H 0.49786 0.21797 0.23542 0.0
N1692 N 0.51642 0.24927 0.23899 0.0
N1693 N 0.53274 0.25984 0.22448 0.0
C1694 C 0.52969 0.25584 0.23828 0.0
C1695 C 0.51081 0.24906 0.22509 0.0
C1696 C 0.52089 0.25566 0.21608 0.0
C1697 C 0.48249 0.26035 0.25243 0.0
O1698 O 0.48078 0.24951 0.24299 0.0
H1699 H 0.53661 0.25842 0.24788 0.0
H1700 H 0.49997 0.24499 0.22181 0.0
O1701 O 0.52424 0.24194 0.27096 0.0
H1702 H 0.47715 0.19966 0.24497 0.0
H1703 H 0.51948 0.25752 0.20438 0.0
H1704 H 0.22466 0.20694 0.11995 0.0
H1705 H 0.20058 0.24782 0.04511 0.0
H1706 H 0.17976 0.20862 0.10303 0.0
H1707 H 0.24517 0.2471 0.06301 0.0
H1708 H 0.19265 0.23373 0.06629 0.0
H1709 H 0.23234 0.22154 0.09904 0.0
C1710 C 0.21642 0.21029 0.11179 0.0
C1711 C 0.20154 0.20648 0.11326 0.0
C1712 C 0.20417 0.23667 0.06559 0.0
C1713 C 0.21025 0.22341 0.08931 0.0
C1714 C 0.2087 0.24481 0.05351 0.0
C1715 C 0.2236 0.24864 0.05218 0.0
C1716 C 0.21459 0.23232 0.07645 0.0
C1717 C 0.23362 0.24423 0.06339 0.0
C1718 C 0.2208 0.21873 0.09989 0.0
C1719 C 0.19133 0.2114 0.10245 0.0
N1720 N 0.22894 0.23631 0.075 0.0
N1721 N 0.19588 0.21958 0.09093 0.0
H1722 H 0.81086 0.20773 0.09955 0.0
H1723 H 0.7947 0.28561 0.06183 0.0
H1724 H 0.822 0.24918 0.1204 0.0
H1725 H 0.78447 0.24382 0.04121 0.0
H1726 H 0.80524 0.27264 0.08318 0.0
H1727 H 0.80144 0.22092 0.07796 0.0
C1728 C 0.81125 0.21963 0.09962 0.0
C1729 C 0.81716 0.22736 0.11185 0.0
C1730 C 0.80072 0.26632 0.07396 0.0
C1731 C 0.80651 0.24258 0.08704 0.0
C1732 C 0.79472 0.27372 0.06175 0.0
C1733 C 0.78866 0.2658 0.04971 0.0
C1734 C 0.80065 0.25089 0.07413 0.0
C1735 C 0.78899 0.2504 0.05024 0.0
C1736 C 0.80595 0.22716 0.08724 0.0
C1737 C 0.81765 0.24277 0.11118 0.0
N1738 N 0.79484 0.24347 0.06224 0.0
N1739 N 0.81235 0.24987 0.099 0.0
H1740 H 0.8089 0.84798 0.09199 0.0
H1741 H 0.78298 0.77832 0.04294 0.0
H1742 H 0.81577 0.80339 0.10645 0.0
H1743 H 0.77027 0.82309 0.03452 0.0
H1744 H 0.79808 0.78693 0.06442 0.0
H1745 H 0.79765 0.83869 0.0691 0.0
C1746 C 0.80801 0.83621 0.09039 0.0
C1747 C 0.81313 0.82649 0.10131 0.0
C1748 C 0.79206 0.79484 0.05776 0.0
C1749 C 0.80031 0.81567 0.07486 0.0
C1750 C 0.78354 0.78994 0.04547 0.0
C1751 C 0.77528 0.79999 0.03701 0.0
C1752 C 0.7924 0.80988 0.06141 0.0
C1753 C 0.77632 0.81492 0.04081 0.0
C1754 C 0.80164 0.83089 0.07724 0.0
C1755 C 0.81201 0.81132 0.09835 0.0
N1756 N 0.78464 0.81937 0.05269 0.0
N1757 N 0.80563 0.80637 0.08546 0.0
H1758 H 0.19659 0.84989 0.09824 0.0
H1759 H 0.23278 0.78455 0.0536 0.0
H1760 H 0.19295 0.8041 0.10993 0.0
H1761 H 0.23976 0.83033 0.04352 0.0
H1762 H 0.21716 0.79161 0.07351 0.0
H1763 H 0.21153 0.84306 0.07755 0.0
C1764 C 0.19894 0.83841 0.09649 0.0
C1765 C 0.19349 0.82757 0.1059 0.0
C1766 C 0.22206 0.80014 0.06695 0.0
C1767 C 0.2105 0.81966 0.08211 0.0
C1768 C 0.23093 0.7961 0.05547 0.0
C1769 C 0.23755 0.80686 0.04677 0.0
C1770 C 0.21974 0.81507 0.06982 0.0
C1771 C 0.23498 0.82168 0.05 0.0
C1772 C 0.20743 0.83452 0.08463 0.0
C1773 C 0.19671 0.81284 0.1029 0.0
N1774 N 0.22625 0.82535 0.06124 0.0
N1775 N 0.20502 0.80934 0.09131 0.0
H1776 H 0.18414 0.80387 0.91437 0.0
H1777 H 0.26194 0.79667 0.95673 0.0
H1778 H 0.22563 0.81652 0.89632 0.0
H1779 H 0.22273 0.77603 0.97274 0.0
H1780 H 0.24847 0.80323 0.93421 0.0
H1781 H 0.19755 0.79278 0.93539 0.0
C1782 C 0.19605 0.80419 0.91474 0.0
C1783 C 0.20376 0.81134 0.90364 0.0
C1784 C 0.24276 0.79716 0.94254 0.0
C1785 C 0.21912 0.79878 0.92768 0.0
C1786 C 0.25046 0.79344 0.95545 0.0
C1787 C 0.2434 0.7859 0.96667 0.0
C1788 C 0.22775 0.79356 0.94082 0.0
C1789 C 0.22856 0.78184 0.96433 0.0
C1790 C 0.20369 0.79789 0.92676 0.0
C1791 C 0.21919 0.81147 0.90476 0.0
N1792 N 0.22114 0.7859 0.95171 0.0
N1793 N 0.22632 0.8054 0.91657 0.0
H1794 H 0.23529 0.17825 0.92625 0.0
H1795 H 0.2388 0.25937 0.9595 0.0
H1796 H 0.22516 0.21763 0.90179 0.0
H1797 H 0.25732 0.22269 0.98338 0.0
H1798 H 0.23425 0.24367 0.93828 0.0
H1799 H 0.24404 0.19358 0.94715 0.0
C1800 C 0.23503 0.19009 0.92521 0.0
C1801 C 0.22924 0.19665 0.91229 0.0
C1802 C 0.2394 0.23897 0.94807 0.0
C1803 C 0.23915 0.21419 0.93615 0.0
C1804 C 0.24197 0.24796 0.96026 0.0
C1805 C 0.24835 0.24231 0.97329 0.0
C1806 C 0.24301 0.22404 0.94882 0.0
C1807 C 0.25238 0.22747 0.97353 0.0
C1808 C 0.23999 0.19881 0.93715 0.0
C1809 C 0.22915 0.21204 0.9116 0.0
N1810 N 0.24948 0.21876 0.9615 0.0
N1811 N 0.23391 0.22022 0.92334 0.0
H1812 H 0.8631 0.23597 0.92335 0.0
H1813 H 0.78624 0.25669 0.9578 0.0
H1814 H 0.82086 0.22811 0.9014 0.0
H1815 H 0.82848 0.26841 0.97786 0.0
H1816 H 0.79875 0.2454 0.93743 0.0
H1817 H 0.85066 0.2475 0.94365 0.0
C1818 C 0.85123 0.23675 0.92274 0.0
C1819 C 0.84303 0.23101 0.91064 0.0
C1820 C 0.80529 0.25045 0.94628 0.0
C1821 C 0.82869 0.24404 0.93396 0.0
C1822 C 0.79814 0.25682 0.95797 0.0
C1823 C 0.80631 0.26353 0.96957 0.0
C1824 C 0.82073 0.25072 0.9462 0.0
C1825 C 0.82173 0.26354 0.96908 0.0
C1826 C 0.84412 0.24327 0.93438 0.0
C1827 C 0.82763 0.23215 0.91059 0.0
N1828 N 0.82843 0.25722 0.95761 0.0
N1829 N 0.82098 0.23851 0.92206 0.0
H1830 H 0.80265 0.81561 0.89136 0.0
H1831 H 0.76136 0.83987 0.96367 0.0
H1832 H 0.80079 0.86057 0.90621 0.0
H1833 H 0.76733 0.79485 0.95058 0.0
H1834 H 0.77434 0.84793 0.94192 0.0
H1835 H 0.78854 0.80804 0.91237 0.0
C1836 C 0.79935 0.8239 0.89907 0.0
C1837 C 0.80303 0.83876 0.89702 0.0
C1838 C 0.7728 0.83628 0.94382 0.0
C1839 C 0.78662 0.83014 0.9211 0.0
C1840 C 0.76531 0.83169 0.95619 0.0
C1841 C 0.76334 0.81665 0.95903 0.0
C1842 C 0.77827 0.82578 0.93417 0.0
C1843 C 0.76882 0.80653 0.949 0.0
C1844 C 0.7912 0.81957 0.91105 0.0
C1845 C 0.79811 0.84902 0.90725 0.0
N1846 N 0.77602 0.81127 0.93706 0.0
N1847 N 0.7902 0.84452 0.91885 0.0
H1848 H 0.10986 0.16533 0.22157 0.0
H1849 H 0.06508 0.23271 0.25358 0.0
H1850 H 0.12107 0.21085 0.21424 0.0
H1851 H 0.05363 0.18732 0.26126 0.0
H1852 H 0.08568 0.22482 0.23925 0.0
H1853 H 0.08934 0.17306 0.23624 0.0
C1854 C 0.10805 0.17695 0.22308 0.0
C1855 C 0.11725 0.18745 0.21665 0.0
C1856 C 0.07868 0.21656 0.24405 0.0
C1857 C 0.09366 0.19639 0.23338 0.0
C1858 C 0.06683 0.22107 0.25219 0.0
C1859 C 0.05749 0.21066 0.25856 0.0
C1860 C 0.08127 0.20152 0.24221 0.0
C1861 C 0.06058 0.19572 0.25664 0.0
C1862 C 0.09628 0.18136 0.23142 0.0
C1863 C 0.11419 0.20236 0.21881 0.0
N1864 N 0.07216 0.1916 0.2486 0.0
N1865 N 0.10269 0.20637 0.227 0.0
H1866 H 0.82264 0.10743 0.18598 0.0
H1867 H 0.75246 0.0694 0.2209 0.0
H1868 H 0.787 0.13245 0.20292 0.0
H1869 H 0.78025 0.04724 0.19078 0.0
H1870 H 0.76617 0.09231 0.21672 0.0
H1871 H 0.80863 0.0848 0.19024 0.0
C1872 C 0.81192 0.10814 0.19072 0.0
C1873 C 0.80597 0.12183 0.1941 0.0
C1874 C 0.76919 0.08244 0.21096 0.0
C1875 C 0.78986 0.096 0.19895 0.0
C1876 C 0.76139 0.06939 0.21336 0.0
C1877 C 0.76515 0.05642 0.20611 0.0
C1878 C 0.781 0.08247 0.20143 0.0
C1879 C 0.77682 0.05701 0.19643 0.0
C1880 C 0.80388 0.09524 0.19303 0.0
C1881 C 0.79194 0.12212 0.20005 0.0
N1882 N 0.78439 0.06977 0.19446 0.0
N1883 N 0.78438 0.1094 0.20235 0.0
H1884 H 0.92099 0.83531 0.19357 0.0
H1885 H 0.95323 0.77918 0.25292 0.0
H1886 H 0.89345 0.81166 0.22324 0.0
H1887 H 0.97889 0.8159 0.2379 0.0
H1888 H 0.9315 0.78906 0.2399 0.0
H1889 H 0.94284 0.82631 0.20731 0.0
C1890 C 0.91957 0.82815 0.20292 0.0
C1891 C 0.90544 0.82419 0.20731 0.0
C1892 C 0.94185 0.79501 0.23951 0.0
C1893 C 0.93024 0.81388 0.22296 0.0
C1894 C 0.95423 0.78936 0.24689 0.0
C1895 C 0.96781 0.79677 0.24645 0.0
C1896 C 0.94312 0.80802 0.23138 0.0
C1897 C 0.96856 0.80997 0.23858 0.0
C1898 C 0.932 0.82313 0.2108 0.0
C1899 C 0.90416 0.81501 0.21956 0.0
N1900 N 0.9564 0.81512 0.23119 0.0
N1901 N 0.9164 0.81008 0.2269 0.0
H1902 H 0.16897 0.92238 0.20066 0.0
H1903 H 0.22319 0.95326 0.26432 0.0
H1904 H 0.19159 0.8938 0.23146 0.0
H1905 H 0.18737 0.9786 0.24577 0.0
H1906 H 0.2138 0.93169 0.25058 0.0
H1907 H 0.17765 0.94363 0.21524 0.0
C1908 C 0.17579 0.9206 0.21049 0.0
C1909 C 0.17958 0.90634 0.21488 0.0
C1910 C 0.20796 0.94196 0.24959 0.0
C1911 C 0.18962 0.93054 0.23153 0.0
C1912 C 0.21335 0.95426 0.25735 0.0
C1913 C 0.20602 0.9677 0.25619 0.0
C1914 C 0.19532 0.94321 0.24037 0.0
C1915 C 0.19325 0.9684 0.24709 0.0
C1916 C 0.18066 0.9327 0.21884 0.0
C1917 C 0.18835 0.90462 0.22776 0.0
N1918 N 0.18838 0.95637 0.23943 0.0
N1919 N 0.19318 0.91659 0.23558 0.0
H1920 H 0.09387 0.81088 0.82937 0.0
H1921 H 0.04497 0.79042 0.75697 0.0
H1922 H 0.10708 0.82261 0.78582 0.0
H1923 H 0.03864 0.77225 0.80007 0.0
H1924 H 0.06585 0.80509 0.76726 0.0
H1925 H 0.07162 0.79947 0.81872 0.0
C1926 C 0.09212 0.81101 0.81754 0.0
C1927 C 0.1025 0.81752 0.80848 0.0
C1928 C 0.05979 0.79793 0.77443 0.0
C1929 C 0.07682 0.80456 0.79614 0.0
C1930 C 0.04787 0.78963 0.76859 0.0
C1931 C 0.04013 0.78003 0.77766 0.0
C1932 C 0.06383 0.7967 0.78945 0.0
C1933 C 0.04436 0.77938 0.79262 0.0
C1934 C 0.07935 0.80455 0.81145 0.0
C1935 C 0.09938 0.81772 0.79323 0.0
N1936 N 0.05589 0.78756 0.79801 0.0
N1937 N 0.08686 0.81124 0.78752 0.0
H1938 H 0.2384 0.10241 0.79972 0.0
H1939 H 0.27438 0.02463 0.81967 0.0
H1940 H 0.23527 0.08142 0.84197 0.0
H1941 H 0.28417 0.04927 0.78088 0.0
H1942 H 0.25673 0.04347 0.8263 0.0
H1943 H 0.25192 0.08123 0.79094 0.0
C1944 C 0.24042 0.09328 0.80711 0.0
C1945 C 0.23576 0.09375 0.82165 0.0
C1946 C 0.26249 0.04462 0.81615 0.0
C1947 C 0.25131 0.06947 0.81166 0.0
C1948 C 0.27248 0.03383 0.81234 0.0
C1949 C 0.28031 0.03518 0.79943 0.0
C1950 C 0.26054 0.05699 0.8071 0.0
C1951 C 0.2778 0.04747 0.7905 0.0
C1952 C 0.2482 0.08122 0.8021 0.0
C1953 C 0.23884 0.08165 0.83076 0.0
N1954 N 0.26817 0.05795 0.79452 0.0
N1955 N 0.24643 0.07004 0.82563 0.0
H1956 H 0.93504 0.2324 0.80431 0.0
H1957 H 0.02222 0.23775 0.81241 0.0
H1958 H 0.95884 0.21831 0.84354 0.0
H1959 H 0.99662 0.26417 0.78182 0.0
H1960 H 0.99945 0.23003 0.8239 0.0
H1961 H 0.9578 0.24316 0.79534 0.0
C1962 C 0.94508 0.23154 0.811 0.0
C1963 C 0.94507 0.2244 0.82465 0.0
C1964 C 0.99886 0.23767 0.8148 0.0
C1965 C 0.97116 0.23671 0.81449 0.0
C1966 C 0.01186 0.24212 0.80826 0.0
C1967 C 0.01136 0.25157 0.79608 0.0
C1968 C 0.98526 0.24252 0.80897 0.0
C1969 C 0.99758 0.25687 0.79117 0.0
C1970 C 0.95804 0.23779 0.80595 0.0
C1971 C 0.95836 0.22377 0.83298 0.0
N1972 N 0.98508 0.25211 0.79749 0.0
N1973 N 0.97091 0.22973 0.82771 0.0
H1974 H 0.83873 0.94195 0.8205 0.0
H1975 H 0.79895 0.98566 0.7543 0.0
H1976 H 0.82574 0.92135 0.77928 0.0
H1977 H 0.80764 1.00268 0.798 0.0
H1978 H 0.8131 0.96357 0.76105 0.0
H1979 H 0.83179 0.96569 0.81028 0.0
C1980 C 0.83446 0.94246 0.80924 0.0
C1981 C 0.83256 0.92965 0.80081 0.0
C1982 C 0.81214 0.97229 0.76904 0.0
C1983 C 0.82449 0.95686 0.78898 0.0
C1984 C 0.8042 0.98492 0.76515 0.0
C1985 C 0.80211 0.99589 0.77567 0.0
C1986 C 0.81804 0.97082 0.78347 0.0
C1987 C 0.80892 0.99438 0.78962 0.0
C1988 C 0.83054 0.95603 0.80338 0.0
C1989 C 0.8273 0.93099 0.78617 0.0
N1990 N 0.81646 0.98206 0.79314 0.0
N1991 N 0.82324 0.94434 0.78076 0.0
H1992 H 0.23079 0.11984 0.22584 0.0
H1993 H 0.24032 0.03259 0.22927 0.0
H1994 H 0.21772 0.09134 0.1897 0.0
H1995 H 0.24119 0.06169 0.26667 0.0
H1996 H 0.23816 0.05413 0.2129 0.0
H1997 H 0.24113 0.09881 0.23897 0.0
C1998 C 0.23026 0.10914 0.22061 0.0
C1999 C 0.22316 0.10726 0.2068 0.0
C2000 C 0.23911 0.05576 0.22469 0.0
C2001 C 0.23486 0.08306 0.22183 0.0
C2002 C 0.24043 0.04352 0.23398 0.0
C2003 C 0.24081 0.04546 0.24927 0.0
C2004 C 0.23841 0.06991 0.23084 0.0
C2005 C 0.24078 0.05977 0.25491 0.0
C2006 C 0.23616 0.09714 0.2281 0.0
C2007 C 0.22304 0.09322 0.20038 0.0
N2008 N 0.23952 0.07141 0.24572 0.0
N2009 N 0.2286 0.08156 0.20806 0.0
H2010 H 0.19718 0.92777 0.83788 0.0
H2011 H 0.24177 0.96663 0.77434 0.0
H2012 H 0.20326 0.90782 0.79555 0.0
H2013 H 0.22623 0.99003 0.81185 0.0
H2014 H 0.22892 0.94454 0.78254 0.0
H2015 H 0.20898 0.95027 0.82918 0.0
C2016 C 0.20102 0.92812 0.82676 0.0
C2017 C 0.19925 0.91589 0.81743 0.0
C2018 C 0.22827 0.95452 0.78895 0.0
C2019 C 0.21277 0.94161 0.8074 0.0
C2020 C 0.23568 0.96711 0.78432 0.0
C2021 C 0.2351 0.98019 0.79244 0.0
C2022 C 0.22035 0.95494 0.8019 0.0
C2023 C 0.22686 0.98023 0.80519 0.0
C2024 C 0.20767 0.941 0.82177 0.0
C2025 C 0.20428 0.91703 0.80307 0.0
N2026 N 0.21989 0.96778 0.80958 0.0
N2027 N 0.21089 0.92961 0.79853 0.0
H2028 H 0.1435 0.21141 0.81601 0.0
H2029 H 0.0734 0.19923 0.76135 0.0
H2030 H 0.12987 0.16882 0.79925 0.0
H2031 H 0.08297 0.23965 0.7849 0.0
H2032 H 0.09501 0.18829 0.77347 0.0
H2033 H 0.12239 0.22228 0.80304 0.0
C2034 C 0.13605 0.2043 0.80968 0.0
C2035 C 0.13849 0.18911 0.80887 0.0
C2036 C 0.09236 0.19957 0.77594 0.0
C2037 C 0.11429 0.20162 0.79369 0.0
C2038 C 0.07996 0.20585 0.76905 0.0
C2039 C 0.07617 0.22046 0.77205 0.0
C2040 C 0.10117 0.20795 0.78588 0.0
C2041 C 0.08537 0.22845 0.78201 0.0
C2042 C 0.12401 0.21055 0.80218 0.0
C2043 C 0.12857 0.18058 0.80013 0.0
N2044 N 0.09738 0.2221 0.78854 0.0
N2045 N 0.11692 0.18694 0.79292 0.0
H2046 H 0.84864 0.13124 0.79943 0.0
H2047 H 0.78264 0.07589 0.81678 0.0
H2048 H 0.82577 0.13108 0.84017 0.0
H2049 H 0.81133 0.06965 0.78054 0.0
H2050 H 0.79764 0.09691 0.82477 0.0
H2051 H 0.83453 0.10932 0.79162 0.0
C2052 C 0.84074 0.12657 0.80678 0.0
C2053 C 0.83832 0.13315 0.82044 0.0
C2054 C 0.80067 0.09092 0.81508 0.0
C2055 C 0.822 0.10818 0.81148 0.0
C2056 C 0.79211 0.07882 0.81051 0.0
C2057 C 0.79563 0.07085 0.79792 0.0
C2058 C 0.81283 0.09522 0.80698 0.0
C2059 C 0.80798 0.07548 0.79018 0.0
C2060 C 0.83264 0.1141 0.80228 0.0
C2061 C 0.8278 0.12665 0.82941 0.0
N2062 N 0.81609 0.08736 0.79482 0.0
N2063 N 0.82002 0.11461 0.82475 0.0
H2064 H 0.91028 0.80688 0.83398 0.0
H2065 H 0.95508 0.77789 0.76586 0.0
H2066 H 0.89929 0.81733 0.78869 0.0
H2067 H 0.96502 0.76519 0.81073 0.0
H2068 H 0.93445 0.79218 0.77413 0.0
H2069 H 0.9301 0.79127 0.82581 0.0
C2070 C 0.91195 0.80582 0.82231 0.0
C2071 C 0.90309 0.81348 0.81201 0.0
C2072 C 0.94111 0.78626 0.78219 0.0
C2073 C 0.9259 0.79572 0.8026 0.0
C2074 C 0.95296 0.77815 0.77747 0.0
C2075 C 0.96189 0.77042 0.78763 0.0
C2076 C 0.93813 0.78673 0.79721 0.0
C2077 C 0.95838 0.7709 0.80252 0.0
C2078 C 0.92333 0.79696 0.81766 0.0
C2079 C 0.90596 0.81184 0.79705 0.0
N2080 N 0.94682 0.77899 0.80687 0.0
N2081 N 0.91711 0.80317 0.79281 0.0
H2082 H 0.81168 0.9306 0.1876 0.0
H2083 H 0.77405 0.96135 0.25935 0.0
H2084 H 0.80653 0.90503 0.22699 0.0
H2085 H 0.78458 0.98837 0.22215 0.0
H2086 H 0.78669 0.94085 0.24814 0.0
H2087 H 0.80193 0.95195 0.2002 0.0
C2088 C 0.80843 0.92945 0.19888 0.0
C2089 C 0.8099 0.91598 0.20623 0.0
C2090 C 0.78637 0.95131 0.24251 0.0
C2091 C 0.79885 0.94044 0.22079 0.0
C2092 C 0.77921 0.96306 0.24894 0.0
C2093 C 0.77815 0.97661 0.24167 0.0
C2094 C 0.79244 0.95307 0.22863 0.0
C2095 C 0.78506 0.97813 0.22818 0.0
C2096 C 0.80298 0.94168 0.20611 0.0
C2097 C 0.80572 0.91522 0.22092 0.0
N2098 N 0.79176 0.96647 0.22203 0.0
N2099 N 0.80033 0.92724 0.22769 0.0
H2100 H 0.11482 0.78845 0.21797 0.0
H2101 H 0.02943 0.766 0.21712 0.0
H2102 H 0.08481 0.79841 0.18167 0.0
H2103 H 0.05982 0.76163 0.25425 0.0
H2104 H 0.05015 0.7733 0.20186 0.0
H2105 H 0.09547 0.77412 0.22926 0.0
C2106 C 0.10414 0.78755 0.21234 0.0
C2107 C 0.10134 0.79483 0.19899 0.0
C2108 C 0.05229 0.77045 0.21327 0.0
C2109 C 0.07901 0.77844 0.21191 0.0
C2110 C 0.04051 0.76616 0.22191 0.0
C2111 C 0.04299 0.76331 0.23693 0.0
C2112 C 0.06654 0.77174 0.21976 0.0
C2113 C 0.05747 0.76386 0.24272 0.0
C2114 C 0.09309 0.77932 0.21877 0.0
C2115 C 0.0874 0.79301 0.19202 0.0
N2116 N 0.06864 0.76811 0.23418 0.0
N2117 N 0.07666 0.78516 0.19866 0.0
H2118 H 0.9108 0.23221 0.20658 0.0
H2119 H 0.98199 0.20426 0.25162 0.0
H2120 H 0.92213 0.1866 0.21212 0.0
H2121 H 0.97508 0.25006 0.24188 0.0
H2122 H 0.96036 0.19789 0.2364 0.0
H2123 H 0.93433 0.23926 0.21869 0.0
C2124 C 0.91826 0.22367 0.21023 0.0
C2125 C 0.91438 0.20876 0.2084 0.0
C2126 C 0.96357 0.20934 0.23745 0.0
C2127 C 0.94129 0.21679 0.22239 0.0
C2128 C 0.97595 0.213 0.24617 0.0
C2129 C 0.9803 0.22773 0.2481 0.0
C2130 C 0.95525 0.22048 0.23067 0.0
C2131 C 0.97211 0.23856 0.24065 0.0
C2132 C 0.93168 0.22772 0.21718 0.0
C2133 C 0.92446 0.19821 0.21352 0.0
N2134 N 0.95985 0.23474 0.23237 0.0
N2135 N 0.93737 0.20243 0.2203 0.0
H2136 H 0.18849 0.69375 0.58064 0.0
H2137 H 0.22966 0.76109 0.54249 0.0
H2138 H 0.19588 0.73548 0.6023 0.0
H2139 H 0.2319 0.71576 0.52912 0.0
H2140 H 0.21211 0.75388 0.56132 0.0
H2141 H 0.1989 0.70384 0.55845 0.0
C2142 C 0.1922 0.7051 0.58067 0.0
C2143 C 0.1916 0.7137 0.59341 0.0
C2144 C 0.21629 0.7456 0.55407 0.0
C2145 C 0.20359 0.72536 0.56803 0.0
C2146 C 0.22619 0.74971 0.54331 0.0
C2147 C 0.23227 0.73895 0.53439 0.0
C2148 C 0.21236 0.7307 0.55565 0.0
C2149 C 0.22756 0.72435 0.53591 0.0
C2150 C 0.19812 0.71087 0.568 0.0
C2151 C 0.19622 0.72846 0.59272 0.0
N2152 N 0.21796 0.72066 0.54636 0.0
N2153 N 0.20225 0.73378 0.58029 0.0
H2154 H 0.8055 0.69344 0.58167 0.0
H2155 H 0.75803 0.76168 0.55292 0.0
H2156 H 0.79271 0.7299 0.60843 0.0
H2157 H 0.77673 0.73027 0.5238 0.0
H2158 H 0.76544 0.74641 0.5739 0.0
H2159 H 0.79053 0.70337 0.56103 0.0
C2160 C 0.79937 0.70341 0.58325 0.0
C2161 C 0.8005 0.71098 0.59671 0.0
C2162 C 0.76762 0.74261 0.56292 0.0
C2163 C 0.78335 0.72233 0.57325 0.0
C2164 C 0.7632 0.75123 0.55095 0.0
C2165 C 0.76658 0.74706 0.53667 0.0
C2166 C 0.7758 0.72986 0.56062 0.0
C2167 C 0.77369 0.73367 0.53466 0.0
C2168 C 0.79088 0.70909 0.57148 0.0
C2169 C 0.79236 0.72386 0.59817 0.0
N2170 N 0.77828 0.72561 0.54655 0.0
N2171 N 0.78423 0.72915 0.58659 0.0
H2172 H 0.83467 0.29034 0.62801 0.0
H2173 H 0.7915 0.29417 0.55011 0.0
H2174 H 0.81992 0.33095 0.60829 0.0
H2175 H 0.81622 0.25644 0.5647 0.0
H2176 H 0.79967 0.30723 0.57248 0.0
H2177 H 0.82588 0.27718 0.60597 0.0
C2178 C 0.82963 0.29653 0.61905 0.0
C2179 C 0.82815 0.31184 0.62002 0.0
C2180 C 0.80332 0.2961 0.57078 0.0
C2181 C 0.81783 0.29672 0.59481 0.0
C2182 C 0.79859 0.28861 0.55806 0.0
C2183 C 0.80317 0.27418 0.55555 0.0
C2184 C 0.81259 0.28907 0.58117 0.0
C2185 C 0.81255 0.26759 0.56613 0.0
C2186 C 0.82456 0.28897 0.60648 0.0
C2187 C 0.82118 0.31915 0.60815 0.0
N2188 N 0.8169 0.27506 0.57851 0.0
N2189 N 0.81629 0.31153 0.59605 0.0
H2190 H 0.21804 0.36849 0.61452 0.0
H2191 H 0.24549 0.29919 0.56911 0.0
H2192 H 0.21429 0.32365 0.62935 0.0
H2193 H 0.24939 0.34389 0.55392 0.0
H2194 H 0.23354 0.30798 0.59089 0.0
H2195 H 0.22913 0.35975 0.59211 0.0
C2196 C 0.21958 0.3568 0.6131 0.0
C2197 C 0.21525 0.34681 0.62393 0.0
C2198 C 0.23696 0.31588 0.58279 0.0
C2199 C 0.22787 0.33671 0.59814 0.0
C2200 C 0.24373 0.31085 0.57024 0.0
C2201 C 0.24843 0.32079 0.55953 0.0
C2202 C 0.23484 0.331 0.58475 0.0
C2203 C 0.24609 0.33583 0.56189 0.0
C2204 C 0.22586 0.35182 0.60025 0.0
C2205 C 0.2173 0.33177 0.62129 0.0
N2206 N 0.23946 0.34046 0.57422 0.0
N2207 N 0.22349 0.3272 0.60872 0.0
H2208 H 0.22382 0.30325 0.40554 0.0
H2209 H 0.22138 0.28495 0.49153 0.0
H2210 H 0.18428 0.30726 0.42992 0.0
H2211 H 0.26077 0.29144 0.46731 0.0
H2212 H 0.20661 0.28762 0.46838 0.0
H2213 H 0.23638 0.29321 0.42732 0.0
C2214 C 0.21775 0.30193 0.4155 0.0
C2215 C 0.20307 0.30636 0.41601 0.0
C2216 C 0.2185 0.28821 0.46815 0.0
C2217 C 0.21743 0.29489 0.4411 0.0
C2218 C 0.22689 0.28659 0.4813 0.0
C2219 C 0.24224 0.28811 0.48124 0.0
C2220 C 0.22563 0.29114 0.45498 0.0
C2221 C 0.24892 0.29035 0.4678 0.0
C2222 C 0.22492 0.29617 0.42793 0.0
C2223 C 0.19564 0.30405 0.4291 0.0
N2224 N 0.24059 0.29186 0.45526 0.0
N2225 N 0.20296 0.29866 0.44123 0.0
H2226 H 0.19468 0.68862 0.41303 0.0
H2227 H 0.2706 0.70117 0.45897 0.0
H2228 H 0.23667 0.67505 0.39738 0.0
H2229 H 0.22942 0.72054 0.47015 0.0
H2230 H 0.25818 0.68939 0.43762 0.0
H2231 H 0.20708 0.6984 0.43517 0.0
C2232 C 0.20653 0.68775 0.4142 0.0
C2233 C 0.21464 0.68112 0.4032 0.0
C2234 C 0.25187 0.69619 0.44477 0.0
C2235 C 0.22894 0.69216 0.42875 0.0
C2236 C 0.25893 0.70284 0.45701 0.0
C2237 C 0.25106 0.71193 0.46632 0.0
C2238 C 0.2368 0.69855 0.4419 0.0
C2239 C 0.23598 0.71382 0.46316 0.0
C2240 C 0.2136 0.69327 0.42691 0.0
C2241 C 0.22994 0.67998 0.40558 0.0
N2242 N 0.22936 0.70721 0.45124 0.0
N2243 N 0.2366 0.6855 0.41807 0.0
H2244 H 0.80882 0.732 0.38848 0.0
H2245 H 0.81746 0.74673 0.47485 0.0
H2246 H 0.8305 0.70161 0.41812 0.0
H2247 H 0.78174 0.76434 0.44819 0.0
H2248 H 0.82537 0.73275 0.4535 0.0
H2249 H 0.80161 0.7466 0.40967 0.0
C2250 C 0.81209 0.72844 0.39946 0.0
C2251 C 0.82022 0.71557 0.40158 0.0
C2252 C 0.81582 0.7397 0.45233 0.0
C2253 C 0.81216 0.73225 0.4258 0.0
C2254 C 0.81138 0.74775 0.46446 0.0
C2255 C 0.79892 0.75667 0.46326 0.0
C2256 C 0.8079 0.7408 0.43885 0.0
C2257 C 0.79133 0.75748 0.44958 0.0
C2258 C 0.80793 0.73672 0.41152 0.0
C2259 C 0.82412 0.7114 0.41603 0.0
N2260 N 0.79597 0.74971 0.43789 0.0
N2261 N 0.82014 0.71976 0.4276 0.0
H2262 H 0.80724 0.33974 0.42719 0.0
H2263 H 0.78792 0.26149 0.46102 0.0
H2264 H 0.81107 0.29831 0.40473 0.0
H2265 H 0.77748 0.30166 0.48326 0.0
H2266 H 0.79466 0.27552 0.43964 0.0
H2267 H 0.79463 0.32696 0.4471 0.0
C2268 C 0.80525 0.32801 0.42637 0.0
C2269 C 0.81043 0.32 0.41445 0.0
C2270 C 0.7908 0.28138 0.44908 0.0
C2271 C 0.79612 0.30541 0.43703 0.0
C2272 C 0.78696 0.27334 0.46133 0.0
C2273 C 0.78228 0.28045 0.47395 0.0
C2274 C 0.79026 0.29678 0.44943 0.0
C2275 C 0.78106 0.2958 0.4737 0.0
C2276 C 0.7981 0.32074 0.43772 0.0
C2277 C 0.80757 0.30486 0.41388 0.0
N2278 N 0.78526 0.30353 0.46167 0.0
N2279 N 0.80073 0.29808 0.42503 0.0
H2280 H 0.12396 0.7114 0.72002 0.0
H2281 H 0.0371 0.7011 0.72646 0.0
H2282 H 0.09671 0.68969 0.68664 0.0
H2283 H 0.06141 0.73658 0.74772 0.0
H2284 H 0.05961 0.69356 0.7146 0.0
H2285 H 0.10175 0.71767 0.73311 0.0
C2286 C 0.1133 0.70789 0.71551 0.0
C2287 C 0.11212 0.70008 0.70222 0.0
C2288 C 0.06001 0.70297 0.7219 0.0
C2289 C 0.08679 0.70707 0.71715 0.0
C2290 C 0.04722 0.70719 0.72874 0.0
C2291 C 0.04742 0.7195 0.73803 0.0
C2292 C 0.07313 0.71096 0.72458 0.0
C2293 C 0.06078 0.72712 0.74051 0.0
C2294 C 0.10066 0.71152 0.72293 0.0
C2295 C 0.09806 0.69586 0.69679 0.0
N2296 N 0.07313 0.7227 0.73387 0.0
N2297 N 0.08593 0.69934 0.70431 0.0
H2298 H 0.84402 0.60965 0.68294 0.0
H2299 H 0.8106 0.57286 0.754 0.0
H2300 H 0.82577 0.63503 0.71776 0.0
H2301 H 0.84248 0.55111 0.72799 0.0
H2302 H 0.81424 0.59533 0.73973 0.0
H2303 H 0.84149 0.58744 0.69795 0.0
C2304 C 0.83939 0.61051 0.6937 0.0
C2305 C 0.83509 0.62418 0.69913 0.0
C2306 C 0.82054 0.58568 0.73722 0.0
C2307 C 0.83219 0.5989 0.71632 0.0
C2308 C 0.81845 0.57289 0.74534 0.0
C2309 C 0.82628 0.56016 0.74218 0.0
C2310 C 0.83034 0.58569 0.72565 0.0
C2311 C 0.83635 0.56074 0.73087 0.0
C2312 C 0.83807 0.59788 0.7023 0.0
C2313 C 0.82931 0.62472 0.71321 0.0
N2314 N 0.83799 0.57325 0.7229 0.0
N2315 N 0.82795 0.61226 0.72128 0.0
H2316 H 0.93888 0.33296 0.69716 0.0
H2317 H 0.97791 0.27104 0.74659 0.0
H2318 H 0.9153 0.30539 0.72699 0.0
H2319 H 0.99653 0.28814 0.70715 0.0
H2320 H 0.95586 0.2857 0.74159 0.0
H2321 H 0.96131 0.31908 0.70299 0.0
C2322 C 0.93849 0.32413 0.70509 0.0
C2323 C 0.92522 0.3203 0.7116 0.0
C2324 C 0.96475 0.2862 0.734 0.0
C2325 C 0.95076 0.30434 0.71824 0.0
C2326 C 0.97733 0.27787 0.73687 0.0
C2327 C 0.98903 0.27833 0.72724 0.0
C2328 C 0.96394 0.29526 0.72153 0.0
C2329 C 0.98769 0.28732 0.71475 0.0
C2330 C 0.95124 0.31613 0.70831 0.0
C2331 C 0.92528 0.30863 0.72167 0.0
N2332 N 0.97542 0.29551 0.7123 0.0
N2333 N 0.93784 0.30108 0.72469 0.0
H2334 H 0.20306 0.44663 0.73087 0.0
H2335 H 0.28314 0.47884 0.75191 0.0
H2336 H 0.24334 0.4222 0.72969 0.0
H2337 H 0.24437 0.50556 0.75182 0.0
H2338 H 0.26772 0.45708 0.74793 0.0
H2339 H 0.21691 0.46739 0.74207 0.0
C2340 C 0.21477 0.44558 0.73313 0.0
C2341 C 0.22211 0.43276 0.72915 0.0
C2342 C 0.26247 0.46762 0.74897 0.0
C2343 C 0.23796 0.45637 0.74195 0.0
C2344 C 0.27129 0.48003 0.75134 0.0
C2345 C 0.26497 0.49393 0.75216 0.0
C2346 C 0.24717 0.46911 0.74707 0.0
C2347 C 0.2496 0.49496 0.75133 0.0
C2348 C 0.22267 0.45743 0.73949 0.0
C2349 C 0.23729 0.43198 0.7323 0.0
N2350 N 0.24117 0.48269 0.74857 0.0
N2351 N 0.24468 0.44362 0.73841 0.0
H2352 H 0.09651 0.33201 0.31226 0.0
H2353 H 0.06635 0.25447 0.28221 0.0
H2354 H 0.12246 0.29289 0.30891 0.0
H2355 H 0.03833 0.29197 0.28622 0.0
H2356 H 0.08776 0.27 0.28803 0.0
H2357 H 0.07588 0.31916 0.29938 0.0
C2358 C 0.09792 0.32079 0.30865 0.0
C2359 C 0.11114 0.31342 0.31185 0.0
C2360 C 0.077 0.27498 0.28745 0.0
C2361 C 0.08767 0.29871 0.29714 0.0
C2362 C 0.06479 0.26611 0.28404 0.0
C2363 C 0.05064 0.272 0.28375 0.0
C2364 C 0.07506 0.28984 0.29096 0.0
C2365 C 0.04914 0.28709 0.28624 0.0
C2366 C 0.08614 0.31346 0.30134 0.0
C2367 C 0.11237 0.2989 0.30695 0.0
N2368 N 0.06122 0.2955 0.28999 0.0
N2369 N 0.10079 0.29203 0.29995 0.0
H2370 H 0.1867 0.58041 0.29679 0.0
H2371 H 0.26316 0.55404 0.2658 0.0
H2372 H 0.2255 0.60769 0.29334 0.0
H2373 H 0.22636 0.52452 0.27086 0.0
H2374 H 0.2476 0.57469 0.27169 0.0
H2375 H 0.19917 0.56071 0.28375 0.0
C2376 C 0.19776 0.58231 0.29312 0.0
C2377 C 0.20517 0.59562 0.29634 0.0
C2378 C 0.24277 0.56376 0.2713 0.0
C2379 C 0.21944 0.57323 0.28144 0.0
C2380 C 0.25164 0.552 0.26783 0.0
C2381 C 0.24596 0.53765 0.26781 0.0
C2382 C 0.22815 0.56116 0.27515 0.0
C2383 C 0.23105 0.5355 0.27063 0.0
C2384 C 0.20487 0.57107 0.28572 0.0
C2385 C 0.21948 0.5975 0.29136 0.0
N2386 N 0.22266 0.54714 0.27444 0.0
N2387 N 0.22614 0.58644 0.28426 0.0
H2388 H 0.91629 0.68049 0.29942 0.0
H2389 H 0.95291 0.75466 0.27128 0.0
H2390 H 0.89374 0.72178 0.29516 0.0
H2391 H 0.97535 0.71328 0.27046 0.0
H2392 H 0.93031 0.74188 0.27745 0.0
H2393 H 0.93715 0.69123 0.28669 0.0
C2394 C 0.91563 0.69175 0.29566 0.0
C2395 C 0.9033 0.70031 0.29856 0.0
C2396 C 0.94006 0.73548 0.27573 0.0
C2397 C 0.92716 0.71266 0.28406 0.0
C2398 C 0.95295 0.74279 0.27215 0.0
C2399 C 0.96595 0.73498 0.27039 0.0
C2400 C 0.94018 0.72022 0.27794 0.0
C2401 C 0.96548 0.71964 0.27164 0.0
C2402 C 0.92757 0.69787 0.28842 0.0
C2403 C 0.90313 0.71485 0.29348 0.0
N2404 N 0.95283 0.71274 0.2756 0.0
N2405 N 0.91488 0.72056 0.2866 0.0
H2406 H 0.81298 0.39397 0.29483 0.0
H2407 H 0.82681 0.47709 0.2724 0.0
H2408 H 0.83908 0.4235 0.32243 0.0
H2409 H 0.78565 0.45499 0.26169 0.0
H2410 H 0.83431 0.45602 0.28762 0.0
H2411 H 0.80541 0.41488 0.27938 0.0
C2412 C 0.81711 0.40487 0.29759 0.0
C2413 C 0.8266 0.4071 0.3099 0.0
C2414 C 0.82365 0.4558 0.2819 0.0
C2415 C 0.81826 0.43087 0.29224 0.0
C2416 C 0.81943 0.46772 0.27316 0.0
C2417 C 0.80561 0.46771 0.26581 0.0
C2418 C 0.81411 0.44366 0.28303 0.0
C2419 C 0.79636 0.4554 0.26727 0.0
C2420 C 0.81277 0.41675 0.28884 0.0
C2421 C 0.83165 0.4214 0.31307 0.0
N2422 N 0.80081 0.44379 0.27563 0.0
N2423 N 0.82753 0.43275 0.30421 0.0
H2424 H 0.24152 0.63033 0.67796 0.0
H2425 H 0.24841 0.55875 0.72841 0.0
H2426 H 0.20495 0.61062 0.69995 0.0
H2427 H 0.28319 0.57426 0.70123 0.0
H2428 H 0.2325 0.57799 0.71843 0.0
H2429 H 0.25709 0.61021 0.68661 0.0
C2430 C 0.23671 0.62173 0.68452 0.0
C2431 C 0.22185 0.62222 0.68822 0.0
C2432 C 0.24359 0.57717 0.71459 0.0
C2433 C 0.23974 0.5992 0.69834 0.0
C2434 C 0.2527 0.56623 0.72034 0.0
C2435 C 0.26719 0.56495 0.71572 0.0
C2436 C 0.24899 0.58704 0.70419 0.0
C2437 C 0.27208 0.57479 0.70503 0.0
C2438 C 0.24565 0.61027 0.68951 0.0
C2439 C 0.21637 0.61087 0.697 0.0
N2440 N 0.26304 0.58549 0.6997 0.0
N2441 N 0.22531 0.59987 0.70177 0.0
H2442 H 0.2334 0.39919 0.33733 0.0
H2443 H 0.23497 0.4715 0.28762 0.0
H2444 H 0.19459 0.41789 0.31642 0.0
H2445 H 0.27251 0.45637 0.31342 0.0
H2446 H 0.22016 0.4516 0.29758 0.0
H2447 H 0.24799 0.41971 0.32833 0.0
C2448 C 0.22789 0.40765 0.33095 0.0
C2449 C 0.21267 0.40677 0.3277 0.0
C2450 C 0.23163 0.45264 0.30111 0.0
C2451 C 0.22946 0.43027 0.31712 0.0
C2452 C 0.24012 0.46396 0.29535 0.0
C2453 C 0.25505 0.46557 0.29961 0.0
C2454 C 0.23809 0.44273 0.31115 0.0
C2455 C 0.26104 0.45562 0.3099 0.0
C2456 C 0.23627 0.41935 0.32574 0.0
C2457 C 0.20628 0.41796 0.31908 0.0
N2458 N 0.25257 0.44458 0.31525 0.0
N2459 N 0.2147 0.42921 0.31409 0.0
H2460 H 0.12302 0.70979 0.30227 0.0
H2461 H 0.03909 0.72579 0.31742 0.0
H2462 H 0.09661 0.67953 0.32675 0.0
H2463 H 0.05978 0.7404 0.2781 0.0
H2464 H 0.06121 0.71153 0.324 0.0
H2465 H 0.10089 0.72393 0.29603 0.0
C2466 C 0.11253 0.70614 0.3063 0.0
C2467 C 0.11156 0.69347 0.31496 0.0
C2468 C 0.06087 0.71788 0.31394 0.0
C2469 C 0.08634 0.70968 0.30812 0.0
C2470 C 0.04834 0.72606 0.31026 0.0
C2471 C 0.04766 0.73419 0.29719 0.0
C2472 C 0.07285 0.71814 0.30463 0.0
C2473 C 0.05986 0.73414 0.2882 0.0
C2474 C 0.09994 0.71417 0.30272 0.0
C2475 C 0.09774 0.68917 0.31993 0.0
N2476 N 0.072 0.72632 0.29212 0.0
N2477 N 0.08565 0.69735 0.31654 0.0
H2478 H 0.83146 0.59058 0.32615 0.0
H2479 H 0.76559 0.54996 0.28092 0.0
H2480 H 0.78993 0.61128 0.31593 0.0
H2481 H 0.80971 0.53358 0.28667 0.0
H2482 H 0.77226 0.57041 0.29774 0.0
H2483 H 0.82163 0.56764 0.31581 0.0
C2484 C 0.82022 0.59026 0.32179 0.0
C2485 C 0.81159 0.60292 0.32168 0.0
C2486 C 0.78037 0.56218 0.2955 0.0
C2487 C 0.8002 0.57662 0.30972 0.0
C2488 C 0.77654 0.55047 0.28602 0.0
C2489 C 0.78717 0.54017 0.28235 0.0
C2490 C 0.79487 0.56342 0.30138 0.0
C2491 C 0.80123 0.54138 0.2891 0.0
C2492 C 0.81458 0.57714 0.31591 0.0
C2493 C 0.79698 0.60177 0.31619 0.0
N2494 N 0.80468 0.55282 0.29818 0.0
N2495 N 0.79178 0.5889 0.31023 0.0
H2496 H 0.90571 0.30315 0.30947 0.0
H2497 H 0.98108 0.26396 0.33416 0.0
H2498 H 0.92327 0.3032 0.35416 0.0
H2499 H 0.96209 0.26251 0.29003 0.0
H2500 H 0.95992 0.27799 0.34188 0.0
H2501 H 0.92643 0.28833 0.30221 0.0
C2502 C 0.91397 0.30012 0.31775 0.0
C2503 C 0.91274 0.30448 0.33245 0.0
C2504 C 0.96039 0.27457 0.33051 0.0
C2505 C 0.93648 0.28731 0.32423 0.0
C2506 C 0.97244 0.26648 0.32611 0.0
C2507 C 0.97347 0.2621 0.31138 0.0
C2508 C 0.94925 0.27833 0.32012 0.0
C2509 C 0.96195 0.26585 0.30142 0.0
C2510 C 0.92576 0.29156 0.31361 0.0
C2511 C 0.92367 0.29997 0.34273 0.0
N2512 N 0.95038 0.27376 0.30596 0.0
N2513 N 0.93509 0.29167 0.33843 0.0
H2514 H 0.80806 0.41264 0.70659 0.0
H2515 H 0.81968 0.4999 0.71051 0.0
H2516 H 0.84836 0.43481 0.69563 0.0
H2517 H 0.78489 0.47716 0.73253 0.0
H2518 H 0.82802 0.47642 0.70112 0.0
H2519 H 0.79749 0.43641 0.71275 0.0
C2520 C 0.81466 0.42252 0.70541 0.0
C2521 C 0.82915 0.42173 0.70063 0.0
C2522 C 0.81847 0.47658 0.70789 0.0
C2523 C 0.81707 0.44897 0.70759 0.0
C2524 C 0.81361 0.49002 0.71317 0.0
C2525 C 0.80161 0.49055 0.72244 0.0
C2526 C 0.81125 0.46353 0.71179 0.0
C2527 C 0.79422 0.47731 0.72548 0.0
C2528 C 0.80863 0.43607 0.70896 0.0
C2529 C 0.83722 0.43488 0.69943 0.0
N2530 N 0.79922 0.46434 0.72025 0.0
N2531 N 0.83107 0.44794 0.70284 0.0
H2532 H 0.13902 0.33262 0.74849 0.0
H2533 H 0.05909 0.29545 0.73772 0.0
H2534 H 0.11394 0.33155 0.70732 0.0
H2535 H 0.08527 0.29248 0.77812 0.0
H2536 H 0.07835 0.31047 0.7272 0.0
H2537 H 0.11887 0.31956 0.76016 0.0
C2538 C 0.12925 0.32972 0.74192 0.0
C2539 C 0.1282 0.33317 0.72687 0.0
C2540 C 0.07989 0.30661 0.73839 0.0
C2541 C 0.10512 0.31816 0.74018 0.0
C2542 C 0.06885 0.29804 0.74445 0.0
C2543 C 0.07057 0.2926 0.75884 0.0
C2544 C 0.09282 0.30981 0.74672 0.0
C2545 C 0.08347 0.29641 0.76699 0.0
C2546 C 0.11778 0.32221 0.74859 0.0
C2547 C 0.11534 0.32896 0.71889 0.0
N2548 N 0.09413 0.30472 0.76079 0.0
N2549 N 0.10433 0.3217 0.72563 0.0
H2550 H 0.89629 0.7441 0.70337 0.0
H2551 H 0.98373 0.74594 0.70512 0.0
H2552 H 0.92167 0.72872 0.66747 0.0
H2553 H 0.95746 0.76347 0.73926 0.0
H2554 H 0.96146 0.74354 0.68912 0.0
H2555 H 0.91857 0.75502 0.7147 0.0
C2556 C 0.90656 0.74318 0.6978 0.0
C2557 C 0.90718 0.73535 0.68457 0.0
C2558 C 0.96061 0.7483 0.69996 0.0
C2559 C 0.93285 0.74768 0.69755 0.0
C2560 C 0.97333 0.7498 0.709 0.0
C2561 C 0.97234 0.75508 0.72338 0.0
C2562 C 0.94686 0.75189 0.7055 0.0
C2563 C 0.95862 0.75953 0.72814 0.0
C2564 C 0.91929 0.74944 0.70425 0.0
C2565 C 0.92073 0.73466 0.6777 0.0
N2566 N 0.94639 0.75768 0.71929 0.0
N2567 N 0.93309 0.74053 0.68439 0.0
H2568 H 0.69606 0.19635 0.58559 0.0
H2569 H 0.73762 0.26527 0.55104 0.0
H2570 H 0.70443 0.23674 0.6094 0.0
H2571 H 0.73278 0.22258 0.53087 0.0
H2572 H 0.72097 0.25726 0.57035 0.0
H2573 H 0.70496 0.20794 0.56345 0.0
C2574 C 0.69971 0.20771 0.58612 0.0
C2575 C 0.69975 0.21552 0.5994 0.0
C2576 C 0.7233 0.24979 0.5615 0.0
C2577 C 0.71007 0.22892 0.57405 0.0
C2578 C 0.73266 0.2544 0.55044 0.0
C2579 C 0.73653 0.24452 0.53946 0.0
C2580 C 0.71782 0.23525 0.56139 0.0
C2581 C 0.73007 0.23048 0.53923 0.0
C2582 C 0.70475 0.21436 0.57345 0.0
C2583 C 0.70429 0.23032 0.59938 0.0
N2584 N 0.72116 0.22624 0.55008 0.0
N2585 N 0.70949 0.2365 0.58694 0.0
H2586 H 0.31336 0.20131 0.59985 0.0
H2587 H 0.28349 0.27966 0.57389 0.0
H2588 H 0.31757 0.24121 0.62535 0.0
H2589 H 0.27922 0.24113 0.54641 0.0
H2590 H 0.29339 0.26465 0.59386 0.0
H2591 H 0.2988 0.21463 0.58106 0.0
C2592 C 0.31116 0.21284 0.60154 0.0
C2593 C 0.31684 0.2202 0.61413 0.0
C2594 C 0.2902 0.25936 0.58354 0.0
C2595 C 0.30019 0.23545 0.59273 0.0
C2596 C 0.28449 0.26794 0.57214 0.0
C2597 C 0.28066 0.26163 0.55846 0.0
C2598 C 0.29233 0.2443 0.58127 0.0
C2599 C 0.28204 0.24639 0.55683 0.0
C2600 C 0.30287 0.22042 0.59081 0.0
C2601 C 0.31369 0.23515 0.61571 0.0
N2602 N 0.28798 0.23823 0.56807 0.0
N2603 N 0.30564 0.24224 0.60514 0.0
H2604 H 0.298 0.81867 0.61677 0.0
H2605 H 0.31913 0.784 0.53951 0.0
H2606 H 0.34003 0.82476 0.59701 0.0
H2607 H 0.27633 0.7784 0.55782 0.0
H2608 H 0.32647 0.79978 0.56018 0.0
H2609 H 0.28912 0.80524 0.59473 0.0
C2610 C 0.30528 0.81737 0.60772 0.0
C2611 C 0.31982 0.82271 0.6088 0.0
C2612 C 0.31545 0.79515 0.55969 0.0
C2613 C 0.30985 0.8072 0.58368 0.0
C2614 C 0.31128 0.78601 0.54791 0.0
C2615 C 0.29711 0.77975 0.54693 0.0
C2616 C 0.30542 0.79805 0.57068 0.0
C2617 C 0.28733 0.78306 0.55806 0.0
C2618 C 0.30025 0.80961 0.59519 0.0
C2619 C 0.32882 0.8206 0.59678 0.0
N2620 N 0.29169 0.79192 0.5695 0.0
N2621 N 0.32373 0.81295 0.5848 0.0
H2622 H 0.73312 0.8409 0.61775 0.0
H2623 H 0.72547 0.80126 0.53918 0.0
H2624 H 0.69167 0.82544 0.59854 0.0
H2625 H 0.7655 0.82205 0.55599 0.0
H2626 H 0.71314 0.80891 0.5613 0.0
H2627 H 0.74534 0.833 0.59572 0.0
C2628 C 0.72654 0.83591 0.60889 0.0
C2629 C 0.71127 0.83396 0.61004 0.0
C2630 C 0.72462 0.81183 0.56014 0.0
C2631 C 0.72533 0.82466 0.58473 0.0
C2632 C 0.73169 0.8074 0.54753 0.0
C2633 C 0.74658 0.81099 0.54568 0.0
C2634 C 0.73247 0.81986 0.57109 0.0
C2635 C 0.754 0.81916 0.55682 0.0
C2636 C 0.73357 0.83133 0.59631 0.0
C2637 C 0.70346 0.82707 0.59827 0.0
N2638 N 0.74689 0.82326 0.56905 0.0
N2639 N 0.71056 0.82271 0.58612 0.0
H2640 H 0.72042 0.82797 0.39494 0.0
H2641 H 0.72022 0.78125 0.46961 0.0
H2642 H 0.68035 0.81066 0.41258 0.0
H2643 H 0.75668 0.80782 0.4555 0.0
H2644 H 0.70569 0.78948 0.4478 0.0
H2645 H 0.73416 0.81831 0.41614 0.0
C2646 C 0.71445 0.82224 0.40332 0.0
C2647 C 0.69912 0.82031 0.40196 0.0
C2648 C 0.71688 0.79346 0.44953 0.0
C2649 C 0.71497 0.80887 0.42633 0.0
C2650 C 0.72518 0.78873 0.46193 0.0
C2651 C 0.73966 0.7939 0.46445 0.0
C2652 C 0.72322 0.80326 0.43955 0.0
C2653 C 0.74553 0.8036 0.45413 0.0
C2654 C 0.72235 0.81662 0.41542 0.0
C2655 C 0.69215 0.81236 0.41306 0.0
N2656 N 0.73733 0.80791 0.44221 0.0
N2657 N 0.70011 0.80695 0.42478 0.0
H2658 H 0.7239 0.17237 0.40941 0.0
H2659 H 0.73387 0.2373 0.46797 0.0
H2660 H 0.70267 0.21434 0.40448 0.0
H2661 H 0.76341 0.20057 0.46617 0.0
H2662 H 0.72065 0.22794 0.44618 0.0
H2663 H 0.73673 0.18142 0.43168 0.0
C2664 C 0.72197 0.18351 0.41294 0.0
C2665 C 0.71224 0.19263 0.40493 0.0
C2666 C 0.73004 0.22194 0.45056 0.0
C2667 C 0.72674 0.20296 0.43065 0.0
C2668 C 0.7377 0.22733 0.46302 0.0
C2669 C 0.74995 0.21982 0.46899 0.0
C2670 C 0.73452 0.20886 0.44402 0.0
C2671 C 0.75402 0.20672 0.46212 0.0
C2672 C 0.72926 0.18864 0.42572 0.0
C2673 C 0.70993 0.20685 0.41033 0.0
N2674 N 0.74633 0.20167 0.45002 0.0
N2675 N 0.71713 0.21157 0.42283 0.0
H2676 H 0.33699 0.20815 0.43867 0.0
H2677 H 0.2871 0.27301 0.46537 0.0
H2678 H 0.31606 0.23798 0.40794 0.0
H2679 H 0.32439 0.2582 0.49163 0.0
H2680 H 0.29538 0.25829 0.44469 0.0
H2681 H 0.33031 0.22431 0.45895 0.0
C2682 C 0.33098 0.2181 0.43622 0.0
C2683 C 0.32706 0.22177 0.42165 0.0
C2684 C 0.30181 0.25836 0.45494 0.0
C2685 C 0.31926 0.24015 0.4447 0.0
C2686 C 0.29707 0.26669 0.46672 0.0
C2687 C 0.30511 0.26682 0.48016 0.0
C2688 C 0.31448 0.2498 0.45674 0.0
C2689 C 0.31798 0.25849 0.48138 0.0
C2690 C 0.32725 0.22734 0.44776 0.0
C2691 C 0.31934 0.23482 0.41903 0.0
N2692 N 0.32218 0.25015 0.46987 0.0
N2693 N 0.31555 0.24347 0.43046 0.0
H2694 H 0.29128 0.79468 0.39295 0.0
H2695 H 0.26732 0.79824 0.47671 0.0
H2696 H 0.29585 0.83412 0.4191 0.0
H2697 H 0.27543 0.75857 0.45257 0.0
H2698 H 0.27203 0.81262 0.45434 0.0
H2699 H 0.27954 0.78247 0.41332 0.0
C2700 C 0.28975 0.80079 0.40298 0.0
C2701 C 0.29483 0.81533 0.40444 0.0
C2702 C 0.27253 0.80075 0.45394 0.0
C2703 C 0.28133 0.80142 0.42787 0.0
C2704 C 0.26975 0.79258 0.46663 0.0
C2705 C 0.27112 0.77726 0.46642 0.0
C2706 C 0.27644 0.79343 0.44105 0.0
C2707 C 0.27442 0.77039 0.45319 0.0
C2708 C 0.283 0.79384 0.4146 0.0
C2709 C 0.29217 0.82286 0.41756 0.0
N2710 N 0.27701 0.77851 0.44108 0.0
N2711 N 0.28576 0.81575 0.42888 0.0
H2712 H 0.63019 0.19074 0.72845 0.0
H2713 H 0.55231 0.23033 0.72898 0.0
H2714 H 0.60721 0.20607 0.68915 0.0
H2715 H 0.57137 0.20788 0.76662 0.0
H2716 H 0.57261 0.22205 0.71433 0.0
H2717 H 0.60906 0.19737 0.74272 0.0
C2718 C 0.62067 0.19539 0.72277 0.0
C2719 C 0.62053 0.19781 0.70752 0.0
C2720 C 0.57233 0.21886 0.72577 0.0
C2721 C 0.59632 0.20567 0.72392 0.0
C2722 C 0.56077 0.22364 0.73416 0.0
C2723 C 0.56019 0.21986 0.74907 0.0
C2724 C 0.5835 0.21031 0.73236 0.0
C2725 C 0.57133 0.21096 0.75515 0.0
C2726 C 0.60862 0.19924 0.73097 0.0
C2727 C 0.60796 0.20418 0.70089 0.0
N2728 N 0.58259 0.20659 0.7468 0.0
N2729 N 0.59639 0.20791 0.70913 0.0
H2730 H 0.31308 0.11405 0.68491 0.0
H2731 H 0.3056 0.06281 0.7555 0.0
H2732 H 0.33535 0.12366 0.7266 0.0
H2733 H 0.27428 0.06238 0.71879 0.0
H2734 H 0.31883 0.08312 0.744 0.0
H2735 H 0.30088 0.09314 0.69615 0.0
C2736 C 0.31538 0.11185 0.69644 0.0
C2737 C 0.3252 0.12081 0.70482 0.0
C2738 C 0.30907 0.07857 0.73847 0.0
C2739 C 0.31141 0.09657 0.71769 0.0
C2740 C 0.30158 0.06693 0.74497 0.0
C2741 C 0.28882 0.06091 0.73808 0.0
C2742 C 0.30387 0.08411 0.72488 0.0
C2743 C 0.28397 0.06679 0.72454 0.0
C2744 C 0.30844 0.09983 0.70283 0.0
C2745 C 0.328 0.11704 0.71963 0.0
N2746 N 0.29153 0.07802 0.71836 0.0
N2747 N 0.32113 0.10523 0.72559 0.0
H2748 H 0.43105 0.83123 0.69307 0.0
H2749 H 0.46811 0.76187 0.73221 0.0
H2750 H 0.40558 0.79545 0.71047 0.0
H2751 H 0.49048 0.78833 0.70057 0.0
H2752 H 0.4455 0.77557 0.72678 0.0
H2753 H 0.45359 0.81738 0.69849 0.0
C2754 C 0.43024 0.82053 0.69818 0.0
C2755 C 0.41647 0.81445 0.70134 0.0
C2756 C 0.45533 0.77831 0.72096 0.0
C2757 C 0.4421 0.79858 0.7075 0.0
C2758 C 0.4682 0.77052 0.72406 0.0
C2759 C 0.48112 0.77395 0.71677 0.0
C2760 C 0.45546 0.78979 0.71068 0.0
C2761 C 0.4807 0.78523 0.70629 0.0
C2762 C 0.44306 0.81259 0.70113 0.0
C2763 C 0.41599 0.80047 0.70779 0.0
N2764 N 0.46811 0.79285 0.70364 0.0
N2765 N 0.42863 0.79303 0.71071 0.0
H2766 H 0.71345 0.93591 0.69013 0.0
H2767 H 0.7189 0.982 0.76517 0.0
H2768 H 0.69461 0.92098 0.73042 0.0
H2769 H 0.74491 0.99154 0.72759 0.0
H2770 H 0.70802 0.9608 0.75198 0.0
H2771 H 0.72347 0.95744 0.70316 0.0
C2772 C 0.71148 0.93709 0.70173 0.0
C2773 C 0.70319 0.92652 0.70917 0.0
C2774 C 0.71612 0.96754 0.74664 0.0
C2775 C 0.71446 0.95137 0.72412 0.0
C2776 C 0.72226 0.97968 0.75413 0.0
C2777 C 0.73289 0.98851 0.74751 0.0
C2778 C 0.72053 0.96429 0.73237 0.0
C2779 C 0.73693 0.98492 0.73321 0.0
C2780 C 0.71714 0.94945 0.70915 0.0
C2781 C 0.70075 0.92889 0.72415 0.0
N2782 N 0.73074 0.97312 0.72612 0.0
N2783 N 0.70635 0.94104 0.73112 0.0
H2784 H 0.58554 0.82873 0.29855 0.0
H2785 H 0.54585 0.75019 0.29308 0.0
H2786 H 0.6043 0.78856 0.31552 0.0
H2787 H 0.52983 0.78755 0.26843 0.0
H2788 H 0.56687 0.7647 0.30191 0.0
H2789 H 0.56476 0.81449 0.28787 0.0
C2790 C 0.58535 0.81693 0.29998 0.0
C2791 C 0.59669 0.80986 0.30805 0.0
C2792 C 0.55883 0.76978 0.29453 0.0
C2793 C 0.57285 0.79356 0.29597 0.0
C2794 C 0.54675 0.76149 0.28949 0.0
C2795 C 0.536 0.76768 0.28004 0.0
C2796 C 0.56023 0.78449 0.29023 0.0
C2797 C 0.53788 0.78235 0.2757 0.0
C2798 C 0.57345 0.80883 0.29391 0.0
C2799 C 0.59572 0.79456 0.30967 0.0
N2800 N 0.54974 0.79032 0.28092 0.0
N2801 N 0.58402 0.78697 0.30373 0.0
H2802 H 0.73439 0.11643 0.30305 0.0
H2803 H 0.72671 0.03379 0.27328 0.0
H2804 H 0.69371 0.09151 0.30188 0.0
H2805 H 0.76661 0.05969 0.27092 0.0
H2806 H 0.71513 0.05413 0.28571 0.0
H2807 H 0.74685 0.09529 0.29284 0.0
C2808 C 0.72807 0.10649 0.30069 0.0
C2809 C 0.71296 0.10576 0.30335 0.0
C2810 C 0.72645 0.05535 0.28257 0.0
C2811 C 0.72719 0.08148 0.2916 0.0
C2812 C 0.73312 0.04369 0.27552 0.0
C2813 C 0.74766 0.04503 0.27095 0.0
C2814 C 0.73434 0.0685 0.2851 0.0
C2815 C 0.75539 0.05814 0.27423 0.0
C2816 C 0.7352 0.09443 0.29482 0.0
C2817 C 0.70532 0.09265 0.29986 0.0
N2818 N 0.7486 0.0694 0.28101 0.0
N2819 N 0.71252 0.08104 0.2942 0.0
H2820 H 0.39498 0.18463 0.2963 0.0
H2821 H 0.47852 0.21306 0.2946 0.0
H2822 H 0.4209 0.19752 0.33495 0.0
H2823 H 0.4531 0.20002 0.25574 0.0
H2824 H 0.45782 0.20634 0.3096 0.0
H2825 H 0.41631 0.18925 0.28134 0.0
C2826 C 0.40517 0.18836 0.30167 0.0
C2827 C 0.40611 0.19069 0.31694 0.0
C2828 C 0.45676 0.20487 0.2978 0.0
C2829 C 0.43059 0.19611 0.2998 0.0
C2830 C 0.46858 0.20874 0.28922 0.0
C2831 C 0.46751 0.20722 0.27387 0.0
C2832 C 0.44368 0.19946 0.29102 0.0
C2833 C 0.45444 0.20129 0.26753 0.0
C2834 C 0.41734 0.19104 0.29309 0.0
C2835 C 0.41957 0.19576 0.32321 0.0
N2836 N 0.44299 0.19773 0.27612 0.0
N2837 N 0.43125 0.19829 0.31463 0.0
H2838 H 0.31155 0.90725 0.29312 0.0
H2839 H 0.27297 0.98081 0.31683 0.0
H2840 H 0.31647 0.92664 0.33632 0.0
H2841 H 0.27634 0.96898 0.2712 0.0
H2842 H 0.28987 0.96129 0.32364 0.0
H2843 H 0.29993 0.92993 0.28415 0.0
C2844 C 0.31042 0.91636 0.30065 0.0
C2845 C 0.31474 0.91496 0.31556 0.0
C2846 C 0.28709 0.96298 0.3121 0.0
C2847 C 0.30137 0.94078 0.30544 0.0
C2848 C 0.27739 0.97412 0.30821 0.0
C2849 C 0.27319 0.97643 0.29344 0.0
C2850 C 0.29248 0.95379 0.30118 0.0
C2851 C 0.27935 0.96754 0.28272 0.0
C2852 C 0.30375 0.92927 0.29554 0.0
C2853 C 0.31298 0.92709 0.32483 0.0
N2854 N 0.28854 0.95642 0.28681 0.0
N2855 N 0.3063 0.93937 0.31966 0.0
H2856 H 0.73612 0.13625 0.71481 0.0
H2857 H 0.76217 0.0525 0.71689 0.0
H2858 H 0.72829 0.10675 0.6782 0.0
H2859 H 0.75972 0.08109 0.75449 0.0
H2860 H 0.7548 0.07321 0.70084 0.0
H2861 H 0.7501 0.11722 0.72761 0.0
C2862 C 0.73744 0.12575 0.70943 0.0
C2863 C 0.73082 0.12297 0.69556 0.0
C2864 C 0.75611 0.07494 0.71259 0.0
C2865 C 0.74677 0.10099 0.71021 0.0
C2866 C 0.76039 0.06319 0.7217 0.0
C2867 C 0.76139 0.06513 0.737 0.0
C2868 C 0.75308 0.08864 0.71891 0.0
C2869 C 0.75889 0.07911 0.74275 0.0
C2870 C 0.74544 0.11488 0.71673 0.0
C2871 C 0.73316 0.10928 0.68894 0.0
N2872 N 0.75481 0.09027 0.73374 0.0
N2873 N 0.74079 0.09868 0.69643 0.0
H2874 H 0.68387 0.89779 0.2758 0.0
H2875 H 0.71357 0.98087 0.27355 0.0
H2876 H 0.6923 0.92409 0.31473 0.0
H2877 H 0.708 0.95312 0.23522 0.0
H2878 H 0.705 0.96065 0.28874 0.0
H2879 H 0.69197 0.91829 0.26076 0.0
C2880 C 0.68738 0.90791 0.2812 0.0
C2881 C 0.68731 0.90923 0.29657 0.0
C2882 C 0.70562 0.959 0.277 0.0
C2883 C 0.69672 0.93281 0.27935 0.0
C2884 C 0.71056 0.97056 0.26829 0.0
C2885 C 0.71162 0.96875 0.25302 0.0
C2886 C 0.70167 0.9455 0.27043 0.0
C2887 C 0.70727 0.95515 0.24687 0.0
C2888 C 0.69207 0.9196 0.27259 0.0
C2889 C 0.69226 0.92254 0.30294 0.0
N2890 N 0.70255 0.94407 0.25558 0.0
N2891 N 0.69671 0.93383 0.2943 0.0
H2892 H 0.61778 0.19489 0.2855 0.0
H2893 H 0.54152 0.23652 0.29592 0.0
H2894 H 0.60141 0.20417 0.32843 0.0
H2895 H 0.55528 0.21741 0.25533 0.0
H2896 H 0.5645 0.2278 0.30812 0.0
H2897 H 0.59598 0.20609 0.27433 0.0
C2898 C 0.60955 0.19919 0.29261 0.0
C2899 C 0.61141 0.19835 0.30796 0.0
C2900 C 0.56244 0.22561 0.29653 0.0
C2901 C 0.58632 0.21153 0.29514 0.0
C2902 C 0.54939 0.23063 0.28958 0.0
C2903 C 0.54642 0.22758 0.27463 0.0
C2904 C 0.57258 0.21769 0.28838 0.0
C2905 C 0.55698 0.21988 0.26691 0.0
C2906 C 0.59711 0.2057 0.28621 0.0
C2907 C 0.6005 0.20458 0.31655 0.0
N2908 N 0.56951 0.21523 0.27385 0.0
N2909 N 0.58839 0.21085 0.31003 0.0
H2910 H 0.30158 0.11818 0.3172 0.0
H2911 H 0.25452 0.04629 0.3366 0.0
H2912 H 0.29382 0.10485 0.36176 0.0
H2913 H 0.2649 0.0595 0.29264 0.0
H2914 H 0.26748 0.06826 0.34622 0.0
H2915 H 0.28688 0.09732 0.30821 0.0
C2916 C 0.29682 0.11082 0.32511 0.0
C2917 C 0.29911 0.11319 0.34027 0.0
C2918 C 0.26689 0.06633 0.33447 0.0
C2919 C 0.28205 0.08922 0.33 0.0
C2920 C 0.25945 0.05383 0.32898 0.0
C2921 C 0.25873 0.05096 0.3138 0.0
C2922 C 0.27359 0.07606 0.32471 0.0
C2923 C 0.26541 0.06107 0.30443 0.0
C2924 C 0.28834 0.09893 0.31996 0.0
C2925 C 0.29232 0.10347 0.34998 0.0
N2926 N 0.27254 0.07312 0.31003 0.0
N2927 N 0.28417 0.09185 0.34468 0.0
H2928 H 0.38827 0.78372 0.32705 0.0
H2929 H 0.46703 0.78453 0.29068 0.0
H2930 H 0.41133 0.8235 0.31538 0.0
H2931 H 0.4466 0.74534 0.30749 0.0
H2932 H 0.44648 0.79891 0.29913 0.0
H2933 H 0.40923 0.76945 0.31944 0.0
C2934 C 0.39777 0.78949 0.32297 0.0
C2935 C 0.39801 0.80489 0.32193 0.0
C2936 C 0.4465 0.78717 0.30102 0.0
C2937 C 0.42204 0.7885 0.31299 0.0
C2938 C 0.45821 0.77894 0.29613 0.0
C2939 C 0.45851 0.76368 0.2983 0.0
C2940 C 0.43491 0.78012 0.30808 0.0
C2941 C 0.44688 0.75707 0.30568 0.0
C2942 C 0.40972 0.7813 0.31856 0.0
C2943 C 0.41053 0.81166 0.31624 0.0
N2944 N 0.43551 0.76532 0.31023 0.0
N2945 N 0.42202 0.80344 0.31199 0.0
H2946 H 0.32803 0.90376 0.73617 0.0
H2947 H 0.28992 0.98276 0.73423 0.0
H2948 H 0.31598 0.92617 0.69583 0.0
H2949 H 0.30389 0.96038 0.77402 0.0
H2950 H 0.29871 0.96205 0.71986 0.0
H2951 H 0.31862 0.92429 0.75007 0.0
C2952 C 0.32348 0.91304 0.73021 0.0
C2953 C 0.32292 0.91324 0.71477 0.0
C2954 C 0.29983 0.96168 0.73173 0.0
C2955 C 0.31189 0.93684 0.73071 0.0
C2956 C 0.29482 0.97351 0.73995 0.0
C2957 C 0.29618 0.97335 0.75538 0.0
C2958 C 0.30624 0.94959 0.73898 0.0
C2959 C 0.30261 0.96104 0.76217 0.0
C2960 C 0.31801 0.92475 0.73817 0.0
C2961 C 0.31656 0.92546 0.7077 0.0
N2962 N 0.30739 0.9497 0.75395 0.0
N2963 N 0.31134 0.93678 0.71572 0.0
H2964 H 0.59745 0.84523 0.70088 0.0
H2965 H 0.5684 0.77621 0.74647 0.0
H2966 H 0.62323 0.80653 0.70954 0.0
H2967 H 0.54038 0.8113 0.73096 0.0
H2968 H 0.58928 0.78835 0.73521 0.0
H2969 H 0.57702 0.83394 0.71366 0.0
C2970 C 0.59882 0.83435 0.70549 0.0
C2971 C 0.61209 0.82681 0.70414 0.0
C2972 C 0.57858 0.79344 0.73434 0.0
C2973 C 0.58871 0.81382 0.71883 0.0
C2974 C 0.56665 0.78657 0.74086 0.0
C2975 C 0.55256 0.79271 0.73963 0.0
C2976 C 0.57646 0.80661 0.72658 0.0
C2977 C 0.55101 0.80613 0.73217 0.0
C2978 C 0.58713 0.8279 0.71276 0.0
C2979 C 0.61316 0.81267 0.71019 0.0
N2980 N 0.56278 0.81259 0.72589 0.0
N2981 N 0.60166 0.80666 0.71732 0.0
H2982 H 0.41136 0.21695 0.72981 0.0
H2983 H 0.49155 0.25451 0.72753 0.0
H2984 H 0.4324 0.22601 0.68902 0.0
H2985 H 0.47149 0.23772 0.7664 0.0
H2986 H 0.46899 0.24764 0.71306 0.0
H2987 H 0.43231 0.22799 0.74321 0.0
C2988 C 0.42044 0.22123 0.72365 0.0
C2989 C 0.42021 0.2203 0.70827 0.0
C2990 C 0.46955 0.24561 0.72478 0.0
C2991 C 0.44437 0.23317 0.72363 0.0
C2992 C 0.48235 0.2496 0.73303 0.0
C2993 C 0.48342 0.24654 0.74814 0.0
C2994 C 0.45777 0.23872 0.73181 0.0
C2995 C 0.47124 0.2401 0.75474 0.0
C2996 C 0.4324 0.22762 0.73132 0.0
C2997 C 0.43213 0.22646 0.70089 0.0
N2998 N 0.45901 0.23639 0.74656 0.0
N2999 N 0.44381 0.23252 0.70865 0.0
H3000 H 0.71289 0.72263 0.11183 0.0
H3001 H 0.68972 0.76139 0.0356 0.0
H3002 H 0.66843 0.72239 0.09356 0.0
H3003 H 0.73382 0.76229 0.05481 0.0
H3004 H 0.6815 0.74771 0.05694 0.0
H3005 H 0.72061 0.73747 0.09111 0.0
C3006 C 0.70475 0.72564 0.10343 0.0
C3007 C 0.68999 0.72117 0.10443 0.0
C3008 C 0.69297 0.75093 0.05649 0.0
C3009 C 0.69875 0.73834 0.08066 0.0
C3010 C 0.69767 0.75883 0.04432 0.0
C3011 C 0.71253 0.76297 0.04331 0.0
C3012 C 0.70319 0.74713 0.06776 0.0
C3013 C 0.72233 0.75914 0.05493 0.0
C3014 C 0.70915 0.7342 0.09163 0.0
C3015 C 0.67989 0.72568 0.09333 0.0
N3016 N 0.71749 0.75143 0.06662 0.0
N3017 N 0.68447 0.73396 0.08189 0.0
H3018 H 0.3018 0.68513 0.08249 0.0
H3019 H 0.25873 0.75847 0.06125 0.0
H3020 H 0.29113 0.71955 0.11271 0.0
H3021 H 0.27283 0.72786 0.02866 0.0
H3022 H 0.26568 0.7411 0.08051 0.0
H3023 H 0.28714 0.69762 0.06304 0.0
C3024 C 0.29619 0.69518 0.08506 0.0
C3025 C 0.29783 0.70147 0.09913 0.0
C3026 C 0.26706 0.73799 0.06916 0.0
C3027 C 0.28107 0.71569 0.07712 0.0
C3028 C 0.26298 0.74788 0.05816 0.0
C3029 C 0.26526 0.74457 0.04341 0.0
C3030 C 0.27383 0.72478 0.06544 0.0
C3031 C 0.27083 0.73074 0.03995 0.0
C3032 C 0.28787 0.70231 0.07399 0.0
C3033 C 0.29035 0.71448 0.10194 0.0
N3034 N 0.27522 0.72141 0.05093 0.0
N3035 N 0.28241 0.72118 0.09104 0.0
H3036 H 0.32306 0.28276 0.11735 0.0
H3037 H 0.29083 0.30508 0.03791 0.0
H3038 H 0.32672 0.32592 0.09826 0.0
H3039 H 0.28953 0.26042 0.05344 0.0
H3040 H 0.30637 0.31194 0.05916 0.0
H3041 H 0.31301 0.27344 0.09363 0.0
C3042 C 0.32192 0.29023 0.10814 0.0
C3043 C 0.32553 0.30521 0.10987 0.0
C3044 C 0.3029 0.30057 0.05793 0.0
C3045 C 0.31402 0.29464 0.08278 0.0
C3046 C 0.29405 0.29665 0.04574 0.0
C3047 C 0.28889 0.28218 0.04395 0.0
C3048 C 0.30643 0.29003 0.0687 0.0
C3049 C 0.29339 0.27168 0.05441 0.0
C3050 C 0.31615 0.28491 0.09463 0.0
C3051 C 0.32379 0.31438 0.09757 0.0
N3052 N 0.30173 0.27587 0.06651 0.0
N3053 N 0.31809 0.30898 0.08465 0.0
H3054 H 0.70553 0.34285 0.10413 0.0
H3055 H 0.71571 0.26793 0.05973 0.0
H3056 H 0.69483 0.29996 0.12115 0.0
H3057 H 0.73371 0.30952 0.04595 0.0
H3058 H 0.70653 0.27986 0.08156 0.0
H3059 H 0.71501 0.33116 0.08224 0.0
C3060 C 0.70527 0.33098 0.10334 0.0
C3061 C 0.69928 0.3224 0.11451 0.0
C3062 C 0.71249 0.28639 0.07376 0.0
C3063 C 0.7099 0.30896 0.08935 0.0
C3064 C 0.71763 0.2796 0.06123 0.0
C3065 C 0.7255 0.28773 0.05099 0.0
C3066 C 0.71513 0.30146 0.07606 0.0
C3067 C 0.72784 0.30279 0.05364 0.0
C3068 C 0.7106 0.32432 0.09079 0.0
C3069 C 0.69907 0.30706 0.11274 0.0
N3070 N 0.72266 0.30918 0.0659 0.0
N3071 N 0.70423 0.30086 0.1004 0.0
H3072 H 0.70413 0.35206 0.92695 0.0
H3073 H 0.74001 0.28197 0.96659 0.0
H3074 H 0.70584 0.30924 0.90676 0.0
H3075 H 0.73926 0.32508 0.98633 0.0
H3076 H 0.72636 0.29145 0.94512 0.0
H3077 H 0.71571 0.34204 0.94932 0.0
C3078 C 0.70691 0.34053 0.92723 0.0
C3079 C 0.7041 0.33151 0.9149 0.0
C3080 C 0.72914 0.29883 0.95416 0.0
C3081 C 0.71734 0.31992 0.94055 0.0
C3082 C 0.73696 0.29344 0.96643 0.0
C3083 C 0.74085 0.30276 0.97828 0.0
C3084 C 0.72516 0.31368 0.95368 0.0
C3085 C 0.73655 0.3175 0.97745 0.0
C3086 C 0.71349 0.33481 0.94003 0.0
C3087 C 0.7077 0.31659 0.91601 0.0
N3088 N 0.72897 0.3225 0.96535 0.0
N3089 N 0.71422 0.31129 0.92857 0.0
H3090 H 0.72136 0.72943 0.89321 0.0
H3091 H 0.75004 0.73512 0.97755 0.0
H3092 H 0.72961 0.69084 0.91951 0.0
H3093 H 0.73214 0.77069 0.95158 0.0
H3094 H 0.74669 0.71877 0.95592 0.0
H3095 H 0.72953 0.74474 0.9139 0.0
C3096 C 0.7249 0.72416 0.90338 0.0
C3097 C 0.72452 0.70882 0.90469 0.0
C3098 C 0.74363 0.73019 0.955 0.0
C3099 C 0.73402 0.7264 0.92862 0.0
C3100 C 0.74562 0.73951 0.96728 0.0
C3101 C 0.74122 0.75422 0.96638 0.0
C3102 C 0.73745 0.73578 0.94176 0.0
C3103 C 0.7355 0.75938 0.95285 0.0
C3104 C 0.72962 0.73293 0.91521 0.0
C3105 C 0.72966 0.70263 0.91805 0.0
N3106 N 0.73377 0.75021 0.94117 0.0
N3107 N 0.73406 0.71145 0.92958 0.0
H3108 H 0.34878 0.70915 0.93234 0.0
H3109 H 0.29317 0.76981 0.958 0.0
H3110 H 0.3334 0.74368 0.90351 0.0
H3111 H 0.32372 0.74917 0.98856 0.0
H3112 H 0.30572 0.75838 0.9376 0.0
H3113 H 0.33751 0.72161 0.953 0.0
C3114 C 0.343 0.71933 0.93038 0.0
C3115 C 0.342 0.72543 0.91625 0.0
C3116 C 0.30974 0.75643 0.94877 0.0
C3117 C 0.32905 0.73961 0.93968 0.0
C3118 C 0.30256 0.76289 0.96037 0.0
C3119 C 0.30746 0.76042 0.97493 0.0
C3120 C 0.3217 0.74717 0.95176 0.0
C3121 C 0.31972 0.75144 0.97747 0.0
C3122 C 0.33667 0.72647 0.94216 0.0
C3123 C 0.33448 0.73869 0.91427 0.0
N3124 N 0.32635 0.74499 0.96599 0.0
N3125 N 0.32818 0.74528 0.92584 0.0
H3126 H 0.32036 0.31046 0.90664 0.0
H3127 H 0.27278 0.32849 0.97671 0.0
H3128 H 0.31409 0.35446 0.92275 0.0
H3129 H 0.28064 0.28469 0.96088 0.0
H3130 H 0.2869 0.33841 0.95651 0.0
H3131 H 0.30511 0.30101 0.92606 0.0
C3132 C 0.31584 0.31814 0.91431 0.0
C3133 C 0.31862 0.33328 0.91309 0.0
C3134 C 0.28551 0.32663 0.95746 0.0
C3135 C 0.30093 0.3225 0.93535 0.0
C3136 C 0.27738 0.32096 0.96895 0.0
C3137 C 0.27558 0.30571 0.97058 0.0
C3138 C 0.29186 0.31699 0.94748 0.0
C3139 C 0.28194 0.29649 0.96025 0.0
C3140 C 0.30704 0.31274 0.92536 0.0
C3141 C 0.31216 0.34272 0.92318 0.0
N3142 N 0.28978 0.30227 0.94919 0.0
N3143 N 0.30367 0.33717 0.93391 0.0
H3144 H 0.60852 0.71578 0.20579 0.0
H3145 H 0.53136 0.6889 0.23656 0.0
H3146 H 0.59312 0.67085 0.20267 0.0
H3147 H 0.55065 0.73179 0.24483 0.0
H3148 H 0.55349 0.68197 0.22379 0.0
H3149 H 0.5868 0.72191 0.2194 0.0
C3150 C 0.60052 0.70721 0.2079 0.0
C3151 C 0.60263 0.69279 0.20302 0.0
C3152 C 0.55286 0.69289 0.22844 0.0
C3153 C 0.57771 0.69971 0.21876 0.0
C3154 C 0.54024 0.69683 0.2358 0.0
C3155 C 0.53901 0.71102 0.2417 0.0
C3156 C 0.56432 0.7032 0.22693 0.0
C3157 C 0.55089 0.72085 0.24022 0.0
C3158 C 0.58815 0.71069 0.21577 0.0
C3159 C 0.592 0.68209 0.20632 0.0
N3160 N 0.56297 0.71678 0.23296 0.0
N3161 N 0.57996 0.68577 0.21393 0.0
H3162 H 0.33557 0.59579 0.18627 0.0
H3163 H 0.28569 0.55941 0.24649 0.0
H3164 H 0.30893 0.62183 0.21432 0.0
H3165 H 0.3271 0.54071 0.23525 0.0
H3166 H 0.29149 0.58121 0.23186 0.0
H3167 H 0.32997 0.57403 0.20114 0.0
C3168 C 0.32845 0.59687 0.19549 0.0
C3169 C 0.32268 0.61056 0.19912 0.0
C3170 C 0.29933 0.57236 0.23265 0.0
C3171 C 0.31618 0.58586 0.216 0.0
C3172 C 0.296 0.55994 0.24093 0.0
C3173 C 0.30597 0.54833 0.24207 0.0
C3174 C 0.31255 0.573 0.22518 0.0
C3175 C 0.31922 0.54952 0.23473 0.0
C3176 C 0.32536 0.58452 0.204 0.0
C3177 C 0.31362 0.61145 0.21123 0.0
N3178 N 0.32208 0.56159 0.22645 0.0
N3179 N 0.31055 0.59924 0.21918 0.0
H3180 H 0.42527 0.32788 0.21954 0.0
H3181 H 0.4543 0.25442 0.25826 0.0
H3182 H 0.39919 0.28865 0.22565 0.0
H3183 H 0.4833 0.28989 0.24654 0.0
H3184 H 0.43316 0.26952 0.25145 0.0
H3185 H 0.44573 0.31653 0.23358 0.0
C3186 C 0.4238 0.31695 0.22396 0.0
C3187 C 0.41056 0.30912 0.22127 0.0
C3188 C 0.4441 0.27419 0.25065 0.0
C3189 C 0.43385 0.29614 0.23739 0.0
C3190 C 0.45617 0.26563 0.25472 0.0
C3191 C 0.4705 0.27101 0.25309 0.0
C3192 C 0.44637 0.28817 0.24457 0.0
C3193 C 0.47238 0.28547 0.24817 0.0
C3194 C 0.43548 0.31048 0.23195 0.0
C3195 C 0.40928 0.29498 0.22722 0.0
N3196 N 0.46042 0.29351 0.24383 0.0
N3197 N 0.42076 0.28896 0.23493 0.0
H3198 H 0.69893 0.41454 0.23065 0.0
H3199 H 0.73627 0.49034 0.20745 0.0
H3200 H 0.69505 0.43351 0.1873 0.0
H3201 H 0.73777 0.47484 0.25222 0.0
H3202 H 0.71921 0.4705 0.20071 0.0
H3203 H 0.7112 0.43717 0.23958 0.0
C3204 C 0.70048 0.42352 0.22306 0.0
C3205 C 0.69613 0.42203 0.20815 0.0
C3206 C 0.7231 0.47145 0.21206 0.0
C3207 C 0.71023 0.44789 0.21826 0.0
C3208 C 0.73285 0.48282 0.21592 0.0
C3209 C 0.73852 0.48418 0.23039 0.0
C3210 C 0.71908 0.46113 0.22268 0.0
C3211 C 0.73362 0.47418 0.24093 0.0
C3212 C 0.70753 0.43641 0.22816 0.0
C3213 C 0.69849 0.43401 0.1988 0.0
N3214 N 0.72433 0.46292 0.23683 0.0
N3215 N 0.70545 0.44633 0.20398 0.0
H3216 H 0.63465 0.30557 0.8007 0.0
H3217 H 0.54963 0.30304 0.77417 0.0
H3218 H 0.60725 0.34386 0.80117 0.0
H3219 H 0.57772 0.26544 0.77918 0.0
H3220 H 0.57111 0.31917 0.77988 0.0
H3221 H 0.61455 0.29176 0.78864 0.0
C3222 C 0.62438 0.31108 0.79819 0.0
C3223 C 0.62254 0.32581 0.80215 0.0
C3224 C 0.57256 0.30739 0.77949 0.0
C3225 C 0.59928 0.31 0.78836 0.0
C3226 C 0.56035 0.29822 0.77614 0.0
C3227 C 0.56193 0.28291 0.77634 0.0
C3228 C 0.58635 0.30112 0.7829 0.0
C3229 C 0.576 0.27719 0.77908 0.0
C3230 C 0.61288 0.30321 0.79127 0.0
C3231 C 0.60908 0.3325 0.79834 0.0
N3232 N 0.58759 0.28626 0.78232 0.0
N3233 N 0.59787 0.32449 0.79183 0.0
H3234 H 0.72656 0.61328 0.78786 0.0
H3235 H 0.77475 0.54209 0.80461 0.0
H3236 H 0.73749 0.59724 0.83146 0.0
H3237 H 0.75988 0.55384 0.7607 0.0
H3238 H 0.7605 0.56203 0.81438 0.0
H3239 H 0.73814 0.59166 0.7775 0.0
C3240 C 0.7313 0.60519 0.79528 0.0
C3241 C 0.73107 0.60716 0.8106 0.0
C3242 C 0.76021 0.56025 0.80261 0.0
C3243 C 0.74447 0.58242 0.79875 0.0
C3244 C 0.76837 0.54884 0.797 0.0
C3245 C 0.76857 0.54635 0.7818 0.0
C3246 C 0.75226 0.56947 0.79297 0.0
C3247 C 0.75999 0.55537 0.77249 0.0
C3248 C 0.73795 0.59286 0.78933 0.0
C3249 C 0.7376 0.59638 0.81961 0.0
N3250 N 0.75228 0.56666 0.77822 0.0
N3251 N 0.74403 0.58453 0.81355 0.0
H3252 H 0.42552 0.72907 0.80156 0.0
H3253 H 0.51235 0.74151 0.80794 0.0
H3254 H 0.45096 0.72095 0.84158 0.0
H3255 H 0.48479 0.76037 0.77343 0.0
H3256 H 0.49022 0.73384 0.82055 0.0
H3257 H 0.44734 0.74006 0.79086 0.0
C3258 C 0.43571 0.72958 0.80808 0.0
C3259 C 0.43644 0.72403 0.82246 0.0
C3260 C 0.48903 0.73982 0.81031 0.0
C3261 C 0.46147 0.73663 0.8103 0.0
C3262 C 0.50167 0.74424 0.80312 0.0
C3263 C 0.50046 0.75154 0.78956 0.0
C3264 C 0.47508 0.74254 0.80381 0.0
C3265 C 0.48629 0.75476 0.78385 0.0
C3266 C 0.44814 0.73596 0.80201 0.0
C3267 C 0.4499 0.72517 0.83049 0.0
N3268 N 0.47419 0.75007 0.7909 0.0
N3269 N 0.46191 0.73122 0.82426 0.0
H3270 H 0.32212 0.41897 0.81313 0.0
H3271 H 0.34982 0.49306 0.77487 0.0
H3272 H 0.36773 0.4326 0.81327 0.0
H3273 H 0.30452 0.47842 0.77458 0.0
H3274 H 0.35687 0.47074 0.78827 0.0
H3275 H 0.31564 0.44067 0.79872 0.0
C3276 C 0.33077 0.42657 0.81021 0.0
C3277 C 0.34549 0.42396 0.81449 0.0
C3278 C 0.34539 0.47243 0.78524 0.0
C3279 C 0.33816 0.44883 0.79778 0.0
C3280 C 0.34137 0.48513 0.77752 0.0
C3281 C 0.32653 0.48772 0.77371 0.0
C3282 C 0.33449 0.46222 0.78914 0.0
C3283 C 0.31604 0.47708 0.77755 0.0
C3284 C 0.32708 0.43893 0.80188 0.0
C3285 C 0.35626 0.43408 0.81011 0.0
N3286 N 0.32022 0.46486 0.78506 0.0
N3287 N 0.35238 0.44608 0.80203 0.0
H3288 H 0.71109 0.62144 0.21283 0.0
H3289 H 0.76043 0.55298 0.19104 0.0
H3290 H 0.71927 0.60934 0.16802 0.0
H3291 H 0.75188 0.56511 0.23575 0.0
H3292 H 0.7462 0.57405 0.18238 0.0
H3293 H 0.72648 0.60117 0.22139 0.0
C3294 C 0.71607 0.61448 0.20477 0.0
C3295 C 0.71381 0.61709 0.18966 0.0
C3296 C 0.74746 0.57211 0.19409 0.0
C3297 C 0.73163 0.59389 0.19943 0.0
C3298 C 0.75568 0.56011 0.19906 0.0
C3299 C 0.75734 0.55718 0.21417 0.0
C3300 C 0.74084 0.58129 0.2043 0.0
C3301 C 0.75073 0.56677 0.22401 0.0
C3302 C 0.72494 0.60295 0.20968 0.0
C3303 C 0.7208 0.60786 0.17977 0.0
N3304 N 0.74277 0.57835 0.2189 0.0
N3305 N 0.72935 0.59665 0.18482 0.0
H3306 H 0.72895 0.43027 0.83923 0.0
H3307 H 0.77031 0.46415 0.77091 0.0
H3308 H 0.72558 0.41159 0.79559 0.0
H3309 H 0.78066 0.47651 0.81588 0.0
H3310 H 0.75292 0.44569 0.77951 0.0
H3311 H 0.74673 0.44827 0.83062 0.0
C3312 C 0.73197 0.4299 0.82783 0.0
C3313 C 0.7258 0.41927 0.81816 0.0
C3314 C 0.75903 0.45238 0.78752 0.0
C3315 C 0.7461 0.44006 0.80819 0.0
C3316 C 0.76893 0.46296 0.78261 0.0
C3317 C 0.77689 0.47193 0.7927 0.0
C3318 C 0.75695 0.45083 0.80264 0.0
C3319 C 0.77483 0.46976 0.80774 0.0
C3320 C 0.74212 0.44023 0.82293 0.0
C3321 C 0.72991 0.41963 0.80343 0.0
N3322 N 0.76497 0.45951 0.81226 0.0
N3323 N 0.73981 0.42983 0.79891 0.0
H3324 H 0.64047 0.70245 0.78574 0.0
H3325 H 0.55259 0.70152 0.78217 0.0
H3326 H 0.61467 0.6867 0.82142 0.0
H3327 H 0.57841 0.73093 0.75614 0.0
H3328 H 0.57527 0.6929 0.79455 0.0
H3329 H 0.6178 0.71015 0.77272 0.0
C3330 C 0.63001 0.70059 0.7908 0.0
C3331 C 0.62942 0.69396 0.80468 0.0
C3332 C 0.57596 0.7012 0.78609 0.0
C3333 C 0.60348 0.70261 0.78982 0.0
C3334 C 0.56305 0.70602 0.77894 0.0
C3335 C 0.56365 0.71695 0.76812 0.0
C3336 C 0.58958 0.7072 0.78223 0.0
C3337 C 0.57748 0.72257 0.7645 0.0
C3338 C 0.61711 0.70503 0.7834 0.0
C3339 C 0.6156 0.6919 0.8108 0.0
N3340 N 0.58991 0.7176 0.7715 0.0
N3341 N 0.60316 0.69612 0.80329 0.0
H3342 H 0.33069 0.61747 0.83772 0.0
H3343 H 0.31315 0.58295 0.75819 0.0
H3344 H 0.33869 0.63933 0.7967 0.0
H3345 H 0.29997 0.56138 0.79785 0.0
H3346 H 0.32151 0.60405 0.7726 0.0
H3347 H 0.31847 0.59727 0.82395 0.0
C3348 C 0.32979 0.61809 0.82585 0.0
C3349 C 0.33591 0.63006 0.81836 0.0
C3350 C 0.31672 0.59479 0.77824 0.0
C3351 C 0.32202 0.60698 0.80256 0.0
C3352 C 0.31194 0.58269 0.76999 0.0
C3353 C 0.30596 0.57032 0.77684 0.0
C3354 C 0.31573 0.59459 0.79359 0.0
C3355 C 0.30453 0.57071 0.79215 0.0
C3356 C 0.32285 0.60654 0.818 0.0
C3357 C 0.33446 0.63021 0.80296 0.0
N3358 N 0.30955 0.58261 0.80006 0.0
N3359 N 0.32775 0.61886 0.79562 0.0
H3360 H 0.41751 0.31558 0.81113 0.0
H3361 H 0.4946 0.27787 0.83159 0.0
H3362 H 0.43591 0.31394 0.85546 0.0
H3363 H 0.47253 0.27514 0.78887 0.0
H3364 H 0.47339 0.29092 0.8408 0.0
H3365 H 0.43792 0.30093 0.8029 0.0
C3366 C 0.42589 0.31217 0.81913 0.0
C3367 C 0.42505 0.31607 0.83399 0.0
C3368 C 0.47321 0.28741 0.82942 0.0
C3369 C 0.44848 0.29915 0.82465 0.0
C3370 C 0.48529 0.2799 0.82417 0.0
C3371 C 0.48547 0.27552 0.80938 0.0
C3372 C 0.46123 0.29058 0.8198 0.0
C3373 C 0.47309 0.27857 0.80026 0.0
C3374 C 0.43751 0.30372 0.81444 0.0
C3375 C 0.43609 0.31111 0.84391 0.0
N3376 N 0.46155 0.28595 0.80559 0.0
N3377 N 0.4474 0.30297 0.83905 0.0
H3378 H 0.29475 0.39873 0.19862 0.0
H3379 H 0.31464 0.47517 0.23784 0.0
H3380 H 0.33862 0.41695 0.20413 0.0
H3381 H 0.26974 0.46102 0.22931 0.0
H3382 H 0.32308 0.45459 0.22356 0.0
H3383 H 0.28485 0.4218 0.20794 0.0
C3384 C 0.30229 0.40762 0.20164 0.0
C3385 C 0.31757 0.40581 0.20079 0.0
C3386 C 0.31135 0.45596 0.22462 0.0
C3387 C 0.30632 0.43216 0.21148 0.0
C3388 C 0.30652 0.46776 0.23278 0.0
C3389 C 0.29148 0.46973 0.23482 0.0
C3390 C 0.3011 0.44579 0.21859 0.0
C3391 C 0.28144 0.45987 0.22794 0.0
C3392 C 0.29662 0.42076 0.20699 0.0
C3393 C 0.3268 0.41768 0.2049 0.0
N3394 N 0.28645 0.44814 0.22028 0.0
N3395 N 0.32104 0.43025 0.21013 0.0
H3396 H 0.59051 0.32845 0.19435 0.0
H3397 H 0.56044 0.25748 0.23576 0.0
H3398 H 0.61878 0.29671 0.21578 0.0
H3399 H 0.53395 0.28138 0.20392 0.0
H3400 H 0.58158 0.27308 0.23022 0.0
H3401 H 0.56912 0.31293 0.19975 0.0
C3402 C 0.59218 0.3183 0.20033 0.0
C3403 C 0.60642 0.31383 0.20462 0.0
C3404 C 0.57117 0.27488 0.22436 0.0
C3405 C 0.58211 0.29603 0.21072 0.0
C3406 C 0.55912 0.266 0.22755 0.0
C3407 C 0.54546 0.26816 0.22028 0.0
C3408 C 0.56954 0.28617 0.21397 0.0
C3409 C 0.54434 0.27928 0.20965 0.0
C3410 C 0.58001 0.30939 0.20328 0.0
C3411 C 0.608 0.3005 0.21219 0.0
N3412 N 0.55621 0.28797 0.20689 0.0
N3413 N 0.59601 0.29209 0.21502 0.0
H3414 H 0.41564 0.71767 0.17266 0.0
H3415 H 0.44605 0.74862 0.24996 0.0
H3416 H 0.3892 0.7252 0.21025 0.0
H3417 H 0.47415 0.74036 0.21387 0.0
H3418 H 0.42452 0.74489 0.23357 0.0
H3419 H 0.43646 0.73014 0.18554 0.0
C3420 C 0.41415 0.72217 0.18351 0.0
C3421 C 0.40076 0.7202 0.19051 0.0
C3422 C 0.43535 0.74415 0.22908 0.0
C3423 C 0.42445 0.73442 0.20528 0.0
C3424 C 0.44762 0.7464 0.23842 0.0
C3425 C 0.46179 0.74484 0.23318 0.0
C3426 C 0.43725 0.7399 0.21443 0.0
C3427 C 0.46334 0.7418 0.21823 0.0
C3428 C 0.42604 0.72924 0.19088 0.0
C3429 C 0.39942 0.72621 0.20458 0.0
N3430 N 0.45117 0.73915 0.20938 0.0
N3431 N 0.41113 0.73292 0.21153 0.0
loop_
_geom_bond_atom_site_label_1
_geom_bond_atom_site_label_2
_geom_bond_distance
_geom_bond_site_symmetry_2
_ccdc_geom_bond_type
C0 C1 1.384 . S
C0 H13 0.947 . S
C0 C35 1.382 . S
C1 C0 1.384 . S
C1 C2 1.378 . S
C2 C1 1.378 . S
C2 C3 1.378 . S
C2 H14 0.952 . S
C3 C2 1.378 . S
C3 H15 0.950 . S
C3 C34 1.383 . S
H4 C23 0.947 . S
H5 C24 0.946 . S
H6 C26 0.953 . S
H7 C27 0.945 . S
H8 C29 0.952 . S
H9 C30 0.949 . S
H10 C32 0.950 . S
H11 C33 0.948 . S
H12 C35 0.951 . S
H13 C0 0.947 . S
H14 C2 0.952 . S
H15 C3 0.950 . S
N16 C19 1.382 . S
N16 C21 1.363 . S
N17 C19 1.371 . S
N17 C20 1.372 . S
N18 C20 1.361 . S
N18 C21 1.377 . S
C19 N16 1.382 . S
C19 N17 1.371 . S
C19 C22 1.480 . S
C20 N17 1.372 . S
C20 N18 1.361 . S
C20 C28 1.457 . S
C21 N16 1.363 . S
C21 N18 1.377 . S
C21 C34 1.479 . S
C22 C19 1.480 . S
C22 C23 1.383 . S
C22 C27 1.385 . S
C23 H4 0.947 . S
C23 C22 1.383 . S
C23 C24 1.388 . S
C24 H5 0.946 . S
C24 C23 1.388 . S
C24 C25 1.384 . S
C25 C24 1.384 . S
C25 C26 1.377 . S
C26 H6 0.953 . S
C26 C25 1.377 . S
C26 C27 1.369 . S
C27 H7 0.945 . S
C27 C22 1.385 . S
C27 C26 1.369 . S
C28 C20 1.457 . S
C28 C29 1.372 . S
C28 C33 1.364 . S
C29 H8 0.952 . S
C29 C28 1.372 . S
C29 C30 1.389 . S
C30 H9 0.949 . S
C30 C29 1.389 . S
C30 C31 1.387 . S
C31 C30 1.387 . S
C31 C32 1.372 . S
C32 H10 0.950 . S
C32 C31 1.372 . S
C32 C33 1.379 . S
C33 H11 0.948 . S
C33 C28 1.364 . S
C33 C32 1.379 . S
C34 C3 1.383 . S
C34 C21 1.479 . S
C34 C35 1.398 . S
C35 C0 1.382 . S
C35 H12 0.951 . S
C35 C34 1.398 . S
C36 C37 1.384 . S
C36 H49 0.947 . S
C36 C71 1.382 . S
C37 C36 1.384 . S
C37 C38 1.378 . S
C38 C37 1.378 . S
C38 C39 1.378 . S
C38 H50 0.952 . S
C39 C38 1.378 . S
C39 H51 0.950 . S
C39 C70 1.383 . S
H40 C59 0.947 . S
H41 C60 0.946 . S
H42 C62 0.953 . S
H43 C63 0.945 . S
H44 C65 0.952 . S
H45 C66 0.949 . S
H46 C68 0.950 . S
H47 C69 0.948 . S
H48 C71 0.951 . S
H49 C36 0.947 . S
H50 C38 0.952 . S
H51 C39 0.950 . S
N52 C55 1.382 . S
N52 C57 1.363 . S
N53 C55 1.371 . S
N53 C56 1.372 . S
N54 C56 1.361 . S
N54 C57 1.377 . S
C55 N52 1.382 . S
C55 N53 1.371 . S
C55 C58 1.480 . S
C56 N53 1.372 . S
C56 N54 1.361 . S
C56 C64 1.457 . S
C57 N52 1.363 . S
C57 N54 1.377 . S
C57 C70 1.479 . S
C58 C55 1.480 . S
C58 C59 1.383 . S
C58 C63 1.385 . S
C59 H40 0.947 . S
C59 C58 1.383 . S
C59 C60 1.388 . S
C60 H41 0.946 . S
C60 C59 1.388 . S
C60 C61 1.384 . S
C61 C60 1.384 . S
C61 C62 1.377 . S
C62 H42 0.953 . S
C62 C61 1.377 . S
C62 C63 1.369 . S
C63 H43 0.945 . S
C63 C58 1.385 . S
C63 C62 1.369 . S
C64 C56 1.457 . S
C64 C65 1.372 . S
C64 C69 1.364 . S
C65 H44 0.952 . S
C65 C64 1.372 . S
C65 C66 1.389 . S
C66 H45 0.949 . S
C66 C65 1.389 . S
C66 C67 1.387 . S
C67 C66 1.387 . S
C67 C68 1.372 . S
C68 H46 0.950 . S
C68 C67 1.372 . S
C68 C69 1.379 . S
C69 H47 0.948 . S
C69 C64 1.364 . S
C69 C68 1.379 . S
C70 C39 1.383 . S
C70 C57 1.479 . S
C70 C71 1.398 . S
C71 C36 1.382 . S
C71 H48 0.951 . S
C71 C70 1.398 . S
C72 C73 1.384 . S
C72 H85 0.947 . S
C72 C107 1.382 . S
C73 C72 1.384 . S
C73 C74 1.378 . S
C74 C73 1.378 . S
C74 C75 1.378 . S
C74 H86 0.952 . S
C75 C74 1.378 . S
C75 H87 0.950 . S
C75 C106 1.383 . S
H76 C95 0.947 . S
H77 C96 0.946 . S
H78 C98 0.953 . S
H79 C99 0.945 . S
H80 C101 0.952 . S
H81 C102 0.949 . S
H82 C104 0.950 . S
H83 C105 0.948 . S
H84 C107 0.951 . S
H85 C72 0.947 . S
H86 C74 0.952 . S
H87 C75 0.950 . S
N88 C91 1.382 . S
N88 C93 1.363 . S
N89 C91 1.371 . S
N89 C92 1.372 . S
N90 C92 1.361 . S
N90 C93 1.377 . S
C91 N88 1.382 . S
C91 N89 1.371 . S
C91 C94 1.480 . S
C92 N89 1.372 . S
C92 N90 1.361 . S
C92 C100 1.457 . S
C93 N88 1.363 . S
C93 N90 1.377 . S
C93 C106 1.479 . S
C94 C91 1.480 . S
C94 C95 1.383 . S
C94 C99 1.385 . S
C95 H76 0.947 . S
C95 C94 1.383 . S
C95 C96 1.388 . S
C96 H77 0.946 . S
C96 C95 1.388 . S
C96 C97 1.384 . S
C97 C96 1.384 . S
C97 C98 1.377 . S
C98 H78 0.953 . S
C98 C97 1.377 . S
C98 C99 1.369 . S
C99 H79 0.945 . S
C99 C94 1.385 . S
C99 C98 1.369 . S
C100 C92 1.457 . S
C100 C101 1.372 . S
C100 C105 1.364 . S
C101 H80 0.952 . S
C101 C100 1.372 . S
C101 C102 1.389 . S
C102 H81 0.949 . S
C102 C101 1.389 . S
C102 C103 1.387 . S
C103 C102 1.387 . S
C103 C104 1.372 . S
C104 H82 0.950 . S
C104 C103 1.372 . S
C104 C105 1.379 . S
C105 H83 0.948 . S
C105 C100 1.364 . S
C105 C104 1.379 . S
C106 C75 1.383 . S
C106 C93 1.479 . S
C106 C107 1.398 . S
C107 C72 1.382 . S
C107 H84 0.951 . S
C107 C106 1.398 . S
C108 C109 1.384 . S
C108 H121 0.947 . S
C108 C143 1.382 . S
C109 C108 1.384 . S
C109 C110 1.378 . S
C110 C109 1.378 . S
C110 C111 1.378 . S
C110 H122 0.952 . S
C111 C110 1.378 . S
C111 H123 0.950 . S
C111 C142 1.383 . S
H112 C131 0.947 . S
H113 C132 0.946 . S
H114 C134 0.953 . S
H115 C135 0.945 . S
H116 C137 0.952 . S
H117 C138 0.949 . S
H118 C140 0.950 . S
H119 C141 0.948 . S
H120 C143 0.951 . S
H121 C108 0.947 . S
H122 C110 0.952 . S
H123 C111 0.950 . S
N124 C127 1.382 . S
N124 C129 1.363 . S
N125 C127 1.371 . S
N125 C128 1.372 . S
N126 C128 1.361 . S
N126 C129 1.377 . S
C127 N124 1.382 . S
C127 N125 1.371 . S
C127 C130 1.480 . S
C128 N125 1.372 . S
C128 N126 1.361 . S
C128 C136 1.457 . S
C129 N124 1.363 . S
C129 N126 1.377 . S
C129 C142 1.479 . S
C130 C127 1.480 . S
C130 C131 1.383 . S
C130 C135 1.385 . S
C131 H112 0.947 . S
C131 C130 1.383 . S
C131 C132 1.388 . S
C132 H113 0.946 . S
C132 C131 1.388 . S
C132 C133 1.384 . S
C133 C132 1.384 . S
C133 C134 1.377 . S
C134 H114 0.953 . S
C134 C133 1.377 . S
C134 C135 1.369 . S
C135 H115 0.945 . S
C135 C130 1.385 . S
C135 C134 1.369 . S
C136 C128 1.457 . S
C136 C137 1.372 . S
C136 C141 1.364 . S
C137 H116 0.952 . S
C137 C136 1.372 . S
C137 C138 1.389 . S
C138 H117 0.949 . S
C138 C137 1.389 . S
C138 C139 1.387 . S
C139 C138 1.387 . S
C139 C140 1.372 . S
C140 H118 0.950 . S
C140 C139 1.372 . S
C140 C141 1.379 . S
C141 H119 0.948 . S
C141 C136 1.364 . S
C141 C140 1.379 . S
C142 C111 1.383 . S
C142 C129 1.479 . S
C142 C143 1.398 . S
C143 C108 1.382 . S
C143 H120 0.951 . S
C143 C142 1.398 . S
C144 C145 1.384 . S
C144 H157 0.947 . S
C144 C179 1.382 . S
C145 C144 1.384 . S
C145 C146 1.378 . S
C146 C145 1.378 . S
C146 C147 1.378 . S
C146 H158 0.952 . S
C147 C146 1.378 . S
C147 H159 0.950 . S
C147 C178 1.383 . S
H148 C167 0.947 . S
H149 C168 0.946 . S
H150 C170 0.953 . S
H151 C171 0.945 . S
H152 C173 0.952 . S
H153 C174 0.949 . S
H154 C176 0.950 . S
H155 C177 0.948 . S
H156 C179 0.951 . S
H157 C144 0.947 . S
H158 C146 0.952 . S
H159 C147 0.950 . S
N160 C163 1.382 . S
N160 C165 1.363 . S
N161 C163 1.371 . S
N161 C164 1.372 . S
N162 C164 1.361 . S
N162 C165 1.377 . S
C163 N160 1.382 . S
C163 N161 1.371 . S
C163 C166 1.480 . S
C164 N161 1.372 . S
C164 N162 1.361 . S
C164 C172 1.457 . S
C165 N160 1.363 . S
C165 N162 1.377 . S
C165 C178 1.479 . S
C166 C163 1.480 . S
C166 C167 1.383 . S
C166 C171 1.385 . S
C167 H148 0.947 . S
C167 C166 1.383 . S
C167 C168 1.388 . S
C168 H149 0.946 . S
C168 C167 1.388 . S
C168 C169 1.384 . S
C169 C168 1.384 . S
C169 C170 1.377 . S
C170 H150 0.953 . S
C170 C169 1.377 . S
C170 C171 1.369 . S
C171 H151 0.945 . S
C171 C166 1.385 . S
C171 C170 1.369 . S
C172 C164 1.457 . S
C172 C173 1.372 . S
C172 C177 1.364 . S
C173 H152 0.952 . S
C173 C172 1.372 . S
C173 C174 1.389 . S
C174 H153 0.949 . S
C174 C173 1.389 . S
C174 C175 1.387 . S
C175 C174 1.387 . S
C175 C176 1.372 . S
C176 H154 0.950 . S
C176 C175 1.372 . S
C176 C177 1.379 . S
C177 H155 0.948 . S
C177 C172 1.364 . S
C177 C176 1.379 . S
C178 C147 1.383 . S
C178 C165 1.479 . S
C178 C179 1.398 . S
C179 C144 1.382 . S
C179 H156 0.951 . S
C179 C178 1.398 . S
C180 C181 1.384 . S
C180 H193 0.947 . S
C180 C215 1.382 . S
C181 C180 1.384 . S
C181 C182 1.378 . S
C182 C181 1.378 . S
C182 C183 1.378 . S
C182 H194 0.952 . S
C183 C182 1.378 . S
C183 H195 0.950 . S
C183 C214 1.383 . S
H184 C203 0.947 . S
H185 C204 0.946 . S
H186 C206 0.953 . S
H187 C207 0.945 . S
H188 C209 0.952 . S
H189 C210 0.949 . S
H190 C212 0.950 . S
H191 C213 0.948 . S
H192 C215 0.951 . S
H193 C180 0.947 . S
H194 C182 0.952 . S
H195 C183 0.950 . S
N196 C199 1.382 . S
N196 C201 1.363 . S
N197 C199 1.371 . S
N197 C200 1.372 . S
N198 C200 1.361 . S
N198 C201 1.377 . S
C199 N196 1.382 . S
C199 N197 1.371 . S
C199 C202 1.480 . S
C200 N197 1.372 . S
C200 N198 1.361 . S
C200 C208 1.457 . S
C201 N196 1.363 . S
C201 N198 1.377 . S
C201 C214 1.479 . S
C202 C199 1.480 . S
C202 C203 1.383 . S
C202 C207 1.385 . S
C203 H184 0.947 . S
C203 C202 1.383 . S
C203 C204 1.388 . S
C204 H185 0.946 . S
C204 C203 1.388 . S
C204 C205 1.384 . S
C205 C204 1.384 . S
C205 C206 1.377 . S
C206 H186 0.953 . S
C206 C205 1.377 . S
C206 C207 1.369 . S
C207 H187 0.945 . S
C207 C202 1.385 . S
C207 C206 1.369 . S
C208 C200 1.457 . S
C208 C209 1.372 . S
C208 C213 1.364 . S
C209 H188 0.952 . S
C209 C208 1.372 . S
C209 C210 1.389 . S
C210 H189 0.949 . S
C210 C209 1.389 . S
C210 C211 1.387 . S
C211 C210 1.387 . S
C211 C212 1.372 . S
C212 H190 0.950 . S
C212 C211 1.372 . S
C212 C213 1.379 . S
C213 H191 0.948 . S
C213 C208 1.364 . S
C213 C212 1.379 . S
C214 C183 1.383 . S
C214 C201 1.479 . S
C214 C215 1.398 . S
C215 C180 1.382 . S
C215 H192 0.951 . S
C215 C214 1.398 . S
C216 C217 1.384 . S
C216 H229 0.947 . S
C216 C251 1.382 . S
C217 C216 1.384 . S
C217 C218 1.378 . S
C218 C217 1.378 . S
C218 C219 1.378 . S
C218 H230 0.952 . S
C219 C218 1.378 . S
C219 H231 0.950 . S
C219 C250 1.383 . S
H220 C239 0.947 . S
H221 C240 0.946 . S
H222 C242 0.953 . S
H223 C243 0.945 . S
H224 C245 0.952 . S
H225 C246 0.949 . S
H226 C248 0.950 . S
H227 C249 0.948 . S
H228 C251 0.951 . S
H229 C216 0.947 . S
H230 C218 0.952 . S
H231 C219 0.950 . S
N232 C235 1.382 . S
N232 C237 1.363 . S
N233 C235 1.371 . S
N233 C236 1.372 . S
N234 C236 1.361 . S
N234 C237 1.377 . S
C235 N232 1.382 . S
C235 N233 1.371 . S
C235 C238 1.480 . S
C236 N233 1.372 . S
C236 N234 1.361 . S
C236 C244 1.457 . S
C237 N232 1.363 . S
C237 N234 1.377 . S
C237 C250 1.479 . S
C238 C235 1.480 . S
C238 C239 1.383 . S
C238 C243 1.385 . S
C239 H220 0.947 . S
C239 C238 1.383 . S
C239 C240 1.388 . S
C240 H221 0.946 . S
C240 C239 1.388 . S
C240 C241 1.384 . S
C241 C240 1.384 . S
C241 C242 1.377 . S
C242 H222 0.953 . S
C242 C241 1.377 . S
C242 C243 1.369 . S
C243 H223 0.945 . S
C243 C238 1.385 . S
C243 C242 1.369 . S
C244 C236 1.457 . S
C244 C245 1.372 . S
C244 C249 1.364 . S
C245 H224 0.952 . S
C245 C244 1.372 . S
C245 C246 1.389 . S
C246 H225 0.949 . S
C246 C245 1.389 . S
C246 C247 1.387 . S
C247 C246 1.387 . S
C247 C248 1.372 . S
C248 H226 0.950 . S
C248 C247 1.372 . S
C248 C249 1.379 . S
C249 H227 0.948 . S
C249 C244 1.364 . S
C249 C248 1.379 . S
C250 C219 1.383 . S
C250 C237 1.479 . S
C250 C251 1.398 . S
C251 C216 1.382 . S
C251 H228 0.951 . S
C251 C250 1.398 . S
C252 C253 1.384 . S
C252 H265 0.947 . S
C252 C287 1.382 . S
C253 C252 1.384 . S
C253 C254 1.378 . S
C254 C253 1.378 . S
C254 C255 1.378 . S
C254 H266 0.952 . S
C255 C254 1.378 . S
C255 H267 0.950 . S
C255 C286 1.383 . S
H256 C275 0.947 . S
H257 C276 0.946 . S
H258 C278 0.953 . S
H259 C279 0.945 . S
H260 C281 0.952 . S
H261 C282 0.949 . S
H262 C284 0.950 . S
H263 C285 0.948 . S
H264 C287 0.951 . S
H265 C252 0.947 . S
H266 C254 0.952 . S
H267 C255 0.950 . S
N268 C271 1.382 . S
N268 C273 1.363 . S
N269 C271 1.371 . S
N269 C272 1.372 . S
N270 C272 1.361 . S
N270 C273 1.377 . S
C271 N268 1.382 . S
C271 N269 1.371 . S
C271 C274 1.480 . S
C272 N269 1.372 . S
C272 N270 1.361 . S
C272 C280 1.457 . S
C273 N268 1.363 . S
C273 N270 1.377 . S
C273 C286 1.479 . S
C274 C271 1.480 . S
C274 C275 1.383 . S
C274 C279 1.385 . S
C275 H256 0.947 . S
C275 C274 1.383 . S
C275 C276 1.388 . S
C276 H257 0.946 . S
C276 C275 1.388 . S
C276 C277 1.384 . S
C277 C276 1.384 . S
C277 C278 1.377 . S
C278 H258 0.953 . S
C278 C277 1.377 . S
C278 C279 1.369 . S
C279 H259 0.945 . S
C279 C274 1.385 . S
C279 C278 1.369 . S
C280 C272 1.457 . S
C280 C281 1.372 . S
C280 C285 1.364 . S
C281 H260 0.952 . S
C281 C280 1.372 . S
C281 C282 1.389 . S
C282 H261 0.949 . S
C282 C281 1.389 . S
C282 C283 1.387 . S
C283 C282 1.387 . S
C283 C284 1.372 . S
C284 H262 0.950 . S
C284 C283 1.372 . S
C284 C285 1.379 . S
C285 H263 0.948 . S
C285 C280 1.364 . S
C285 C284 1.379 . S
C286 C255 1.383 . S
C286 C273 1.479 . S
C286 C287 1.398 . S
C287 C252 1.382 . S
C287 H264 0.951 . S
C287 C286 1.398 . S
C288 C289 1.384 . S
C288 H301 0.947 . S
C288 C323 1.382 . S
C289 C288 1.384 . S
C289 C290 1.378 . S
C290 C289 1.378 . S
C290 C291 1.378 . S
C290 H302 0.952 . S
C291 C290 1.378 . S
C291 H303 0.950 . S
C291 C322 1.383 . S
H292 C311 0.947 . S
H293 C312 0.946 . S
H294 C314 0.953 . S
H295 C315 0.945 . S
H296 C317 0.952 . S
H297 C318 0.949 . S
H298 C320 0.950 . S
H299 C321 0.948 . S
H300 C323 0.951 . S
H301 C288 0.947 . S
H302 C290 0.952 . S
H303 C291 0.950 . S
N304 C307 1.382 . S
N304 C309 1.363 . S
N305 C307 1.371 . S
N305 C308 1.372 . S
N306 C308 1.361 . S
N306 C309 1.377 . S
C307 N304 1.382 . S
C307 N305 1.371 . S
C307 C310 1.480 . S
C308 N305 1.372 . S
C308 N306 1.361 . S
C308 C316 1.457 . S
C309 N304 1.363 . S
C309 N306 1.377 . S
C309 C322 1.479 . S
C310 C307 1.480 . S
C310 C311 1.383 . S
C310 C315 1.385 . S
C311 H292 0.947 . S
C311 C310 1.383 . S
C311 C312 1.388 . S
C312 H293 0.946 . S
C312 C311 1.388 . S
C312 C313 1.384 . S
C313 C312 1.384 . S
C313 C314 1.377 . S
C314 H294 0.953 . S
C314 C313 1.377 . S
C314 C315 1.369 . S
C315 H295 0.945 . S
C315 C310 1.385 . S
C315 C314 1.369 . S
C316 C308 1.457 . S
C316 C317 1.372 . S
C316 C321 1.364 . S
C317 H296 0.952 . S
C317 C316 1.372 . S
C317 C318 1.389 . S
C318 H297 0.949 . S
C318 C317 1.389 . S
C318 C319 1.387 . S
C319 C318 1.387 . S
C319 C320 1.372 . S
C320 H298 0.950 . S
C320 C319 1.372 . S
C320 C321 1.379 . S
C321 H299 0.948 . S
C321 C316 1.364 . S
C321 C320 1.379 . S
C322 C291 1.383 . S
C322 C309 1.479 . S
C322 C323 1.398 . S
C323 C288 1.382 . S
C323 H300 0.951 . S
C323 C322 1.398 . S
C324 C325 1.384 . S
C324 H337 0.947 . S
C324 C359 1.382 . S
C325 C324 1.384 . S
C325 C326 1.378 . S
C326 C325 1.378 . S
C326 C327 1.378 . S
C326 H338 0.952 . S
C327 C326 1.378 . S
C327 H339 0.950 . S
C327 C358 1.383 . S
H328 C347 0.947 . S
H329 C348 0.946 . S
H330 C350 0.953 . S
H331 C351 0.945 . S
H332 C353 0.952 . S
H333 C354 0.949 . S
H334 C356 0.950 . S
H335 C357 0.948 . S
H336 C359 0.951 . S
H337 C324 0.947 . S
H338 C326 0.952 . S
H339 C327 0.950 . S
N340 C343 1.382 . S
N340 C345 1.363 . S
N341 C343 1.371 . S
N341 C344 1.372 . S
N342 C344 1.361 . S
N342 C345 1.377 . S
C343 N340 1.382 . S
C343 N341 1.371 . S
C343 C346 1.480 . S
C344 N341 1.372 . S
C344 N342 1.361 . S
C344 C352 1.457 . S
C345 N340 1.363 . S
C345 N342 1.377 . S
C345 C358 1.479 . S
C346 C343 1.480 . S
C346 C347 1.383 . S
C346 C351 1.385 . S
C347 H328 0.947 . S
C347 C346 1.383 . S
C347 C348 1.388 . S
C348 H329 0.946 . S
C348 C347 1.388 . S
C348 C349 1.384 . S
C349 C348 1.384 . S
C349 C350 1.377 . S
C350 H330 0.953 . S
C350 C349 1.377 . S
C350 C351 1.369 . S
C351 H331 0.945 . S
C351 C346 1.385 . S
C351 C350 1.369 . S
C352 C344 1.457 . S
C352 C353 1.372 . S
C352 C357 1.364 . S
C353 H332 0.952 . S
C353 C352 1.372 . S
C353 C354 1.389 . S
C354 H333 0.949 . S
C354 C353 1.389 . S
C354 C355 1.387 . S
C355 C354 1.387 . S
C355 C356 1.372 . S
C356 H334 0.950 . S
C356 C355 1.372 . S
C356 C357 1.379 . S
C357 H335 0.948 . S
C357 C352 1.364 . S
C357 C356 1.379 . S
C358 C327 1.383 . S
C358 C345 1.479 . S
C358 C359 1.398 . S
C359 C324 1.382 . S
C359 H336 0.951 . S
C359 C358 1.398 . S
C360 C361 1.384 . S
C360 H373 0.947 . S
C360 C395 1.382 . S
C361 C360 1.384 . S
C361 C362 1.378 . S
C362 C361 1.378 . S
C362 C363 1.378 . S
C362 H374 0.952 . S
C363 C362 1.378 . S
C363 H375 0.950 . S
C363 C394 1.383 . S
H364 C383 0.947 . S
H365 C384 0.946 . S
H366 C386 0.953 . S
H367 C387 0.945 . S
H368 C389 0.952 . S
H369 C390 0.949 . S
H370 C392 0.950 . S
H371 C393 0.948 . S
H372 C395 0.951 . S
H373 C360 0.947 . S
H374 C362 0.952 . S
H375 C363 0.950 . S
N376 C379 1.382 . S
N376 C381 1.363 . S
N377 C379 1.371 . S
N377 C380 1.372 . S
N378 C380 1.361 . S
N378 C381 1.377 . S
C379 N376 1.382 . S
C379 N377 1.371 . S
C379 C382 1.480 . S
C380 N377 1.372 . S
C380 N378 1.361 . S
C380 C388 1.457 . S
C381 N376 1.363 . S
C381 N378 1.377 . S
C381 C394 1.479 . S
C382 C379 1.480 . S
C382 C383 1.383 . S
C382 C387 1.385 . S
C383 H364 0.947 . S
C383 C382 1.383 . S
C383 C384 1.388 . S
C384 H365 0.946 . S
C384 C383 1.388 . S
C384 C385 1.384 . S
C385 C384 1.384 . S
C385 C386 1.377 . S
C386 H366 0.953 . S
C386 C385 1.377 . S
C386 C387 1.369 . S
C387 H367 0.945 . S
C387 C382 1.385 . S
C387 C386 1.369 . S
C388 C380 1.457 . S
C388 C389 1.372 . S
C388 C393 1.364 . S
C389 H368 0.952 . S
C389 C388 1.372 . S
C389 C390 1.389 . S
C390 H369 0.949 . S
C390 C389 1.389 . S
C390 C391 1.387 . S
C391 C390 1.387 . S
C391 C392 1.372 . S
C392 H370 0.950 . S
C392 C391 1.372 . S
C392 C393 1.379 . S
C393 H371 0.948 . S
C393 C388 1.364 . S
C393 C392 1.379 . S
C394 C363 1.383 . S
C394 C381 1.479 . S
C394 C395 1.398 . S
C395 C360 1.382 . S
C395 H372 0.951 . S
C395 C394 1.398 . S
C396 C397 1.384 . S
C396 H409 0.947 . S
C396 C431 1.382 . S
C397 C396 1.384 . S
C397 C398 1.378 . S
C398 C397 1.378 . S
C398 C399 1.378 . S
C398 H410 0.952 . S
C399 C398 1.378 . S
C399 H411 0.950 . S
C399 C430 1.383 . S
H400 C419 0.947 . S
H401 C420 0.946 . S
H402 C422 0.953 . S
H403 C423 0.945 . S
H404 C425 0.952 . S
H405 C426 0.949 . S
H406 C428 0.950 . S
H407 C429 0.948 . S
H408 C431 0.951 . S
H409 C396 0.947 . S
H410 C398 0.952 . S
H411 C399 0.950 . S
N412 C415 1.382 . S
N412 C417 1.363 . S
N413 C415 1.371 . S
N413 C416 1.372 . S
N414 C416 1.361 . S
N414 C417 1.377 . S
C415 N412 1.382 . S
C415 N413 1.371 . S
C415 C418 1.480 . S
C416 N413 1.372 . S
C416 N414 1.361 . S
C416 C424 1.457 . S
C417 N412 1.363 . S
C417 N414 1.377 . S
C417 C430 1.479 . S
C418 C415 1.480 . S
C418 C419 1.383 . S
C418 C423 1.385 . S
C419 H400 0.947 . S
C419 C418 1.383 . S
C419 C420 1.388 . S
C420 H401 0.946 . S
C420 C419 1.388 . S
C420 C421 1.384 . S
C421 C420 1.384 . S
C421 C422 1.377 . S
C422 H402 0.953 . S
C422 C421 1.377 . S
C422 C423 1.369 . S
C423 H403 0.945 . S
C423 C418 1.385 . S
C423 C422 1.369 . S
C424 C416 1.457 . S
C424 C425 1.372 . S
C424 C429 1.364 . S
C425 H404 0.952 . S
C425 C424 1.372 . S
C425 C426 1.389 . S
C426 H405 0.949 . S
C426 C425 1.389 . S
C426 C427 1.387 . S
C427 C426 1.387 . S
C427 C428 1.372 . S
C428 H406 0.950 . S
C428 C427 1.372 . S
C428 C429 1.379 . S
C429 H407 0.948 . S
C429 C424 1.364 . S
C429 C428 1.379 . S
C430 C399 1.383 . S
C430 C417 1.479 . S
C430 C431 1.398 . S
C431 C396 1.382 . S
C431 H408 0.951 . S
C431 C430 1.398 . S
C432 C433 1.384 . S
C432 H445 0.947 . S
C432 C467 1.382 . S
C433 C432 1.384 . S
C433 C434 1.378 . S
C434 C433 1.378 . S
C434 C435 1.378 . S
C434 H446 0.952 . S
C435 C434 1.378 . S
C435 H447 0.950 . S
C435 C466 1.383 . S
H436 C455 0.947 . S
H437 C456 0.946 . S
H438 C458 0.953 . S
H439 C459 0.945 . S
H440 C461 0.952 . S
H441 C462 0.949 . S
H442 C464 0.950 . S
H443 C465 0.948 . S
H444 C467 0.951 . S
H445 C432 0.947 . S
H446 C434 0.952 . S
H447 C435 0.950 . S
N448 C451 1.382 . S
N448 C453 1.363 . S
N449 C451 1.371 . S
N449 C452 1.372 . S
N450 C452 1.361 . S
N450 C453 1.377 . S
C451 N448 1.382 . S
C451 N449 1.371 . S
C451 C454 1.480 . S
C452 N449 1.372 . S
C452 N450 1.361 . S
C452 C460 1.457 . S
C453 N448 1.363 . S
C453 N450 1.377 . S
C453 C466 1.479 . S
C454 C451 1.480 . S
C454 C455 1.383 . S
C454 C459 1.385 . S
C455 H436 0.947 . S
C455 C454 1.383 . S
C455 C456 1.388 . S
C456 H437 0.946 . S
C456 C455 1.388 . S
C456 C457 1.384 . S
C457 C456 1.384 . S
C457 C458 1.377 . S
C458 H438 0.953 . S
C458 C457 1.377 . S
C458 C459 1.369 . S
C459 H439 0.945 . S
C459 C454 1.385 . S
C459 C458 1.369 . S
C460 C452 1.457 . S
C460 C461 1.372 . S
C460 C465 1.364 . S
C461 H440 0.952 . S
C461 C460 1.372 . S
C461 C462 1.389 . S
C462 H441 0.949 . S
C462 C461 1.389 . S
C462 C463 1.387 . S
C463 C462 1.387 . S
C463 C464 1.372 . S
C464 H442 0.950 . S
C464 C463 1.372 . S
C464 C465 1.379 . S
C465 H443 0.948 . S
C465 C460 1.364 . S
C465 C464 1.379 . S
C466 C435 1.383 . S
C466 C453 1.479 . S
C466 C467 1.398 . S
C467 C432 1.382 . S
C467 H444 0.951 . S
C467 C466 1.398 . S
C468 C469 1.384 . S
C468 H481 0.947 . S
C468 C503 1.382 . S
C469 C468 1.384 . S
C469 C470 1.378 . S
C470 C469 1.378 . S
C470 C471 1.378 . S
C470 H482 0.952 . S
C471 C470 1.378 . S
C471 H483 0.950 . S
C471 C502 1.383 . S
H472 C491 0.947 . S
H473 C492 0.946 . S
H474 C494 0.953 . S
H475 C495 0.945 . S
H476 C497 0.952 . S
H477 C498 0.949 . S
H478 C500 0.950 . S
H479 C501 0.948 . S
H480 C503 0.951 . S
H481 C468 0.947 . S
H482 C470 0.952 . S
H483 C471 0.950 . S
N484 C487 1.382 . S
N484 C489 1.363 . S
N485 C487 1.371 . S
N485 C488 1.372 . S
N486 C488 1.361 . S
N486 C489 1.377 . S
C487 N484 1.382 . S
C487 N485 1.371 . S
C487 C490 1.480 . S
C488 N485 1.372 . S
C488 N486 1.361 . S
C488 C496 1.457 . S
C489 N484 1.363 . S
C489 N486 1.377 . S
C489 C502 1.479 . S
C490 C487 1.480 . S
C490 C491 1.383 . S
C490 C495 1.385 . S
C491 H472 0.947 . S
C491 C490 1.383 . S
C491 C492 1.388 . S
C492 H473 0.946 . S
C492 C491 1.388 . S
C492 C493 1.384 . S
C493 C492 1.384 . S
C493 C494 1.377 . S
C494 H474 0.953 . S
C494 C493 1.377 . S
C494 C495 1.369 . S
C495 H475 0.945 . S
C495 C490 1.385 . S
C495 C494 1.369 . S
C496 C488 1.457 . S
C496 C497 1.372 . S
C496 C501 1.364 . S
C497 H476 0.952 . S
C497 C496 1.372 . S
C497 C498 1.389 . S
C498 H477 0.949 . S
C498 C497 1.389 . S
C498 C499 1.387 . S
C499 C498 1.387 . S
C499 C500 1.372 . S
C500 H478 0.950 . S
C500 C499 1.372 . S
C500 C501 1.379 . S
C501 H479 0.948 . S
C501 C496 1.364 . S
C501 C500 1.379 . S
C502 C471 1.383 . S
C502 C489 1.479 . S
C502 C503 1.398 . S
C503 C468 1.382 . S
C503 H480 0.951 . S
C503 C502 1.398 . S
C504 C505 1.384 . S
C504 H517 0.947 . S
C504 C539 1.382 . S
C505 C504 1.384 . S
C505 C506 1.378 . S
C506 C505 1.378 . S
C506 C507 1.378 . S
C506 H518 0.952 . S
C507 C506 1.378 . S
C507 H519 0.950 . S
C507 C538 1.383 . S
H508 C527 0.947 . S
H509 C528 0.946 . S
H510 C530 0.953 . S
H511 C531 0.945 . S
H512 C533 0.952 . S
H513 C534 0.949 . S
H514 C536 0.950 . S
H515 C537 0.948 . S
H516 C539 0.951 . S
H517 C504 0.947 . S
H518 C506 0.952 . S
H519 C507 0.950 . S
N520 C523 1.382 . S
N520 C525 1.363 . S
N521 C523 1.371 . S
N521 C524 1.372 . S
N522 C524 1.361 . S
N522 C525 1.377 . S
C523 N520 1.382 . S
C523 N521 1.371 . S
C523 C526 1.480 . S
C524 N521 1.372 . S
C524 N522 1.361 . S
C524 C532 1.457 . S
C525 N520 1.363 . S
C525 N522 1.377 . S
C525 C538 1.479 . S
C526 C523 1.480 . S
C526 C527 1.383 . S
C526 C531 1.385 . S
C527 H508 0.947 . S
C527 C526 1.383 . S
C527 C528 1.388 . S
C528 H509 0.946 . S
C528 C527 1.388 . S
C528 C529 1.384 . S
C529 C528 1.384 . S
C529 C530 1.377 . S
C530 H510 0.953 . S
C530 C529 1.377 . S
C530 C531 1.369 . S
C531 H511 0.945 . S
C531 C526 1.385 . S
C531 C530 1.369 . S
C532 C524 1.457 . S
C532 C533 1.372 . S
C532 C537 1.364 . S
C533 H512 0.952 . S
C533 C532 1.372 . S
C533 C534 1.389 . S
C534 H513 0.949 . S
C534 C533 1.389 . S
C534 C535 1.387 . S
C535 C534 1.387 . S
C535 C536 1.372 . S
C536 H514 0.950 . S
C536 C535 1.372 . S
C536 C537 1.379 . S
C537 H515 0.948 . S
C537 C532 1.364 . S
C537 C536 1.379 . S
C538 C507 1.383 . S
C538 C525 1.479 . S
C538 C539 1.398 . S
C539 C504 1.382 . S
C539 H516 0.951 . S
C539 C538 1.398 . S
C540 C541 1.384 . S
C540 H553 0.947 . S
C540 C575 1.382 . S
C541 C540 1.384 . S
C541 C542 1.378 . S
C542 C541 1.378 . S
C542 C543 1.378 . S
C542 H554 0.952 . S
C543 C542 1.378 . S
C543 H555 0.950 . S
C543 C574 1.383 . S
H544 C563 0.947 . S
H545 C564 0.946 . S
H546 C566 0.953 . S
H547 C567 0.945 . S
H548 C569 0.952 . S
H549 C570 0.949 . S
H550 C572 0.950 . S
H551 C573 0.948 . S
H552 C575 0.951 . S
H553 C540 0.947 . S
H554 C542 0.952 . S
H555 C543 0.950 . S
N556 C559 1.382 . S
N556 C561 1.363 . S
N557 C559 1.371 . S
N557 C560 1.372 . S
N558 C560 1.361 . S
N558 C561 1.377 . S
C559 N556 1.382 . S
C559 N557 1.371 . S
C559 C562 1.480 . S
C560 N557 1.372 . S
C560 N558 1.361 . S
C560 C568 1.457 . S
C561 N556 1.363 . S
C561 N558 1.377 . S
C561 C574 1.479 . S
C562 C559 1.480 . S
C562 C563 1.383 . S
C562 C567 1.385 . S
C563 H544 0.947 . S
C563 C562 1.383 . S
C563 C564 1.388 . S
C564 H545 0.946 . S
C564 C563 1.388 . S
C564 C565 1.384 . S
C565 C564 1.384 . S
C565 C566 1.377 . S
C566 H546 0.953 . S
C566 C565 1.377 . S
C566 C567 1.369 . S
C567 H547 0.945 . S
C567 C562 1.385 . S
C567 C566 1.369 . S
C568 C560 1.457 . S
C568 C569 1.372 . S
C568 C573 1.364 . S
C569 H548 0.952 . S
C569 C568 1.372 . S
C569 C570 1.389 . S
C570 H549 0.949 . S
C570 C569 1.389 . S
C570 C571 1.387 . S
C571 C570 1.387 . S
C571 C572 1.372 . S
C572 H550 0.950 . S
C572 C571 1.372 . S
C572 C573 1.379 . S
C573 H551 0.948 . S
C573 C568 1.364 . S
C573 C572 1.379 . S
C574 C543 1.383 . S
C574 C561 1.479 . S
C574 C575 1.398 . S
C575 C540 1.382 . S
C575 H552 0.951 . S
C575 C574 1.398 . S
C576 C577 1.384 . S
C576 H589 0.947 . S
C576 C611 1.382 . S
C577 C576 1.384 . S
C577 C578 1.378 . S
C578 C577 1.378 . S
C578 C579 1.378 . S
C578 H590 0.952 . S
C579 C578 1.378 . S
C579 H591 0.950 . S
C579 C610 1.383 . S
H580 C599 0.947 . S
H581 C600 0.946 . S
H582 C602 0.953 . S
H583 C603 0.945 . S
H584 C605 0.952 . S
H585 C606 0.949 . S
H586 C608 0.950 . S
H587 C609 0.948 . S
H588 C611 0.951 . S
H589 C576 0.947 . S
H590 C578 0.952 . S
H591 C579 0.950 . S
N592 C595 1.382 . S
N592 C597 1.363 . S
N593 C595 1.371 . S
N593 C596 1.372 . S
N594 C596 1.361 . S
N594 C597 1.377 . S
C595 N592 1.382 . S
C595 N593 1.371 . S
C595 C598 1.480 . S
C596 N593 1.372 . S
C596 N594 1.361 . S
C596 C604 1.457 . S
C597 N592 1.363 . S
C597 N594 1.377 . S
C597 C610 1.479 . S
C598 C595 1.480 . S
C598 C599 1.383 . S
C598 C603 1.385 . S
C599 H580 0.947 . S
C599 C598 1.383 . S
C599 C600 1.388 . S
C600 H581 0.946 . S
C600 C599 1.388 . S
C600 C601 1.384 . S
C601 C600 1.384 . S
C601 C602 1.377 . S
C602 H582 0.953 . S
C602 C601 1.377 . S
C602 C603 1.369 . S
C603 H583 0.945 . S
C603 C598 1.385 . S
C603 C602 1.369 . S
C604 C596 1.457 . S
C604 C605 1.372 . S
C604 C609 1.364 . S
C605 H584 0.952 . S
C605 C604 1.372 . S
C605 C606 1.389 . S
C606 H585 0.949 . S
C606 C605 1.389 . S
C606 C607 1.387 . S
C607 C606 1.387 . S
C607 C608 1.372 . S
C608 H586 0.950 . S
C608 C607 1.372 . S
C608 C609 1.379 . S
C609 H587 0.948 . S
C609 C604 1.364 . S
C609 C608 1.379 . S
C610 C579 1.383 . S
C610 C597 1.479 . S
C610 C611 1.398 . S
C611 C576 1.382 . S
C611 H588 0.951 . S
C611 C610 1.398 . S
C612 C613 1.384 . S
C612 H625 0.947 . S
C612 C647 1.382 . S
C613 C612 1.384 . S
C613 C614 1.378 . S
C614 C613 1.378 . S
C614 C615 1.378 . S
C614 H626 0.952 . S
C615 C614 1.378 . S
C615 H627 0.950 . S
C615 C646 1.383 . S
H616 C635 0.947 . S
H617 C636 0.946 . S
H618 C638 0.953 . S
H619 C639 0.945 . S
H620 C641 0.952 . S
H621 C642 0.949 . S
H622 C644 0.950 . S
H623 C645 0.948 . S
H624 C647 0.951 . S
H625 C612 0.947 . S
H626 C614 0.952 . S
H627 C615 0.950 . S
N628 C631 1.382 . S
N628 C633 1.363 . S
N629 C631 1.371 . S
N629 C632 1.372 . S
N630 C632 1.361 . S
N630 C633 1.377 . S
C631 N628 1.382 . S
C631 N629 1.371 . S
C631 C634 1.480 . S
C632 N629 1.372 . S
C632 N630 1.361 . S
C632 C640 1.457 . S
C633 N628 1.363 . S
C633 N630 1.377 . S
C633 C646 1.479 . S
C634 C631 1.480 . S
C634 C635 1.383 . S
C634 C639 1.385 . S
C635 H616 0.947 . S
C635 C634 1.383 . S
C635 C636 1.388 . S
C636 H617 0.946 . S
C636 C635 1.388 . S
C636 C637 1.384 . S
C637 C636 1.384 . S
C637 C638 1.377 . S
C638 H618 0.953 . S
C638 C637 1.377 . S
C638 C639 1.369 . S
C639 H619 0.945 . S
C639 C634 1.385 . S
C639 C638 1.369 . S
C640 C632 1.457 . S
C640 C641 1.372 . S
C640 C645 1.364 . S
C641 H620 0.952 . S
C641 C640 1.372 . S
C641 C642 1.389 . S
C642 H621 0.949 . S
C642 C641 1.389 . S
C642 C643 1.387 . S
C643 C642 1.387 . S
C643 C644 1.372 . S
C644 H622 0.950 . S
C644 C643 1.372 . S
C644 C645 1.379 . S
C645 H623 0.948 . S
C645 C640 1.364 . S
C645 C644 1.379 . S
C646 C615 1.383 . S
C646 C633 1.479 . S
C646 C647 1.398 . S
C647 C612 1.382 . S
C647 H624 0.951 . S
C647 C646 1.398 . S
C648 C649 1.384 . S
C648 H661 0.947 . S
C648 C683 1.382 . S
C649 C648 1.384 . S
C649 C650 1.378 . S
C650 C649 1.378 . S
C650 C651 1.378 . S
C650 H662 0.952 . S
C651 C650 1.378 . S
C651 H663 0.950 . S
C651 C682 1.383 . S
H652 C671 0.947 . S
H653 C672 0.946 . S
H654 C674 0.953 . S
H655 C675 0.945 . S
H656 C677 0.952 . S
H657 C678 0.949 . S
H658 C680 0.950 . S
H659 C681 0.948 . S
H660 C683 0.951 . S
H661 C648 0.947 . S
H662 C650 0.952 . S
H663 C651 0.950 . S
N664 C667 1.382 . S
N664 C669 1.363 . S
N665 C667 1.371 . S
N665 C668 1.372 . S
N666 C668 1.361 . S
N666 C669 1.377 . S
C667 N664 1.382 . S
C667 N665 1.371 . S
C667 C670 1.480 . S
C668 N665 1.372 . S
C668 N666 1.361 . S
C668 C676 1.457 . S
C669 N664 1.363 . S
C669 N666 1.377 . S
C669 C682 1.479 . S
C670 C667 1.480 . S
C670 C671 1.383 . S
C670 C675 1.385 . S
C671 H652 0.947 . S
C671 C670 1.383 . S
C671 C672 1.388 . S
C672 H653 0.946 . S
C672 C671 1.388 . S
C672 C673 1.384 . S
C673 C672 1.384 . S
C673 C674 1.377 . S
C674 H654 0.953 . S
C674 C673 1.377 . S
C674 C675 1.369 . S
C675 H655 0.945 . S
C675 C670 1.385 . S
C675 C674 1.369 . S
C676 C668 1.457 . S
C676 C677 1.372 . S
C676 C681 1.364 . S
C677 H656 0.952 . S
C677 C676 1.372 . S
C677 C678 1.389 . S
C678 H657 0.949 . S
C678 C677 1.389 . S
C678 C679 1.387 . S
C679 C678 1.387 . S
C679 C680 1.372 . S
C680 H658 0.950 . S
C680 C679 1.372 . S
C680 C681 1.379 . S
C681 H659 0.948 . S
C681 C676 1.364 . S
C681 C680 1.379 . S
C682 C651 1.383 . S
C682 C669 1.479 . S
C682 C683 1.398 . S
C683 C648 1.382 . S
C683 H660 0.951 . S
C683 C682 1.398 . S
C684 C685 1.384 . S
C684 H697 0.947 . S
C684 C719 1.382 . S
C685 C684 1.384 . S
C685 C686 1.378 . S
C686 C685 1.378 . S
C686 C687 1.378 . S
C686 H698 0.952 . S
C687 C686 1.378 . S
C687 H699 0.950 . S
C687 C718 1.383 . S
H688 C707 0.947 . S
H689 C708 0.946 . S
H690 C710 0.953 . S
H691 C711 0.945 . S
H692 C713 0.952 . S
H693 C714 0.949 . S
H694 C716 0.950 . S
H695 C717 0.948 . S
H696 C719 0.951 . S
H697 C684 0.947 . S
H698 C686 0.952 . S
H699 C687 0.950 . S
N700 C703 1.382 . S
N700 C705 1.363 . S
N701 C703 1.371 . S
N701 C704 1.372 . S
N702 C704 1.361 . S
N702 C705 1.377 . S
C703 N700 1.382 . S
C703 N701 1.371 . S
C703 C706 1.480 . S
C704 N701 1.372 . S
C704 N702 1.361 . S
C704 C712 1.457 . S
C705 N700 1.363 . S
C705 N702 1.377 . S
C705 C718 1.479 . S
C706 C703 1.480 . S
C706 C707 1.383 . S
C706 C711 1.385 . S
C707 H688 0.947 . S
C707 C706 1.383 . S
C707 C708 1.388 . S
C708 H689 0.946 . S
C708 C707 1.388 . S
C708 C709 1.384 . S
C709 C708 1.384 . S
C709 C710 1.377 . S
C710 H690 0.953 . S
C710 C709 1.377 . S
C710 C711 1.369 . S
C711 H691 0.945 . S
C711 C706 1.385 . S
C711 C710 1.369 . S
C712 C704 1.457 . S
C712 C713 1.372 . S
C712 C717 1.364 . S
C713 H692 0.952 . S
C713 C712 1.372 . S
C713 C714 1.389 . S
C714 H693 0.949 . S
C714 C713 1.389 . S
C714 C715 1.387 . S
C715 C714 1.387 . S
C715 C716 1.372 . S
C716 H694 0.950 . S
C716 C715 1.372 . S
C716 C717 1.379 . S
C717 H695 0.948 . S
C717 C712 1.364 . S
C717 C716 1.379 . S
C718 C687 1.383 . S
C718 C705 1.479 . S
C718 C719 1.398 . S
C719 C684 1.382 . S
C719 H696 0.951 . S
C719 C718 1.398 . S
C720 C721 1.384 . S
C720 H733 0.947 . S
C720 C755 1.382 . S
C721 C720 1.384 . S
C721 C722 1.378 . S
C722 C721 1.378 . S
C722 C723 1.378 . S
C722 H734 0.952 . S
C723 C722 1.378 . S
C723 H735 0.950 . S
C723 C754 1.383 . S
H724 C743 0.947 . S
H725 C744 0.946 . S
H726 C746 0.953 . S
H727 C747 0.945 . S
H728 C749 0.952 . S
H729 C750 0.949 . S
H730 C752 0.950 . S
H731 C753 0.948 . S
H732 C755 0.951 . S
H733 C720 0.947 . S
H734 C722 0.952 . S
H735 C723 0.950 . S
N736 C739 1.382 . S
N736 C741 1.363 . S
N737 C739 1.371 . S
N737 C740 1.372 . S
N738 C740 1.361 . S
N738 C741 1.377 . S
C739 N736 1.382 . S
C739 N737 1.371 . S
C739 C742 1.480 . S
C740 N737 1.372 . S
C740 N738 1.361 . S
C740 C748 1.457 . S
C741 N736 1.363 . S
C741 N738 1.377 . S
C741 C754 1.479 . S
C742 C739 1.480 . S
C742 C743 1.383 . S
C742 C747 1.385 . S
C743 H724 0.947 . S
C743 C742 1.383 . S
C743 C744 1.388 . S
C744 H725 0.946 . S
C744 C743 1.388 . S
C744 C745 1.384 . S
C745 C744 1.384 . S
C745 C746 1.377 . S
C746 H726 0.953 . S
C746 C745 1.377 . S
C746 C747 1.369 . S
C747 H727 0.945 . S
C747 C742 1.385 . S
C747 C746 1.369 . S
C748 C740 1.457 . S
C748 C749 1.372 . S
C748 C753 1.364 . S
C749 H728 0.952 . S
C749 C748 1.372 . S
C749 C750 1.389 . S
C750 H729 0.949 . S
C750 C749 1.389 . S
C750 C751 1.387 . S
C751 C750 1.387 . S
C751 C752 1.372 . S
C752 H730 0.950 . S
C752 C751 1.372 . S
C752 C753 1.379 . S
C753 H731 0.948 . S
C753 C748 1.364 . S
C753 C752 1.379 . S
C754 C723 1.383 . S
C754 C741 1.479 . S
C754 C755 1.398 . S
C755 C720 1.382 . S
C755 H732 0.951 . S
C755 C754 1.398 . S
C756 C757 1.384 . S
C756 H769 0.947 . S
C756 C791 1.382 . S
C757 C756 1.384 . S
C757 C758 1.378 . S
C758 C757 1.378 . S
C758 C759 1.378 . S
C758 H770 0.952 . S
C759 C758 1.378 . S
C759 H771 0.950 . S
C759 C790 1.383 . S
H760 C779 0.947 . S
H761 C780 0.946 . S
H762 C782 0.953 . S
H763 C783 0.945 . S
H764 C785 0.952 . S
H765 C786 0.949 . S
H766 C788 0.950 . S
H767 C789 0.948 . S
H768 C791 0.951 . S
H769 C756 0.947 . S
H770 C758 0.952 . S
H771 C759 0.950 . S
N772 C775 1.382 . S
N772 C777 1.363 . S
N773 C775 1.371 . S
N773 C776 1.372 . S
N774 C776 1.361 . S
N774 C777 1.377 . S
C775 N772 1.382 . S
C775 N773 1.371 . S
C775 C778 1.480 . S
C776 N773 1.372 . S
C776 N774 1.361 . S
C776 C784 1.457 . S
C777 N772 1.363 . S
C777 N774 1.377 . S
C777 C790 1.479 . S
C778 C775 1.480 . S
C778 C779 1.383 . S
C778 C783 1.385 . S
C779 H760 0.947 . S
C779 C778 1.383 . S
C779 C780 1.388 . S
C780 H761 0.946 . S
C780 C779 1.388 . S
C780 C781 1.384 . S
C781 C780 1.384 . S
C781 C782 1.377 . S
C782 H762 0.953 . S
C782 C781 1.377 . S
C782 C783 1.369 . S
C783 H763 0.945 . S
C783 C778 1.385 . S
C783 C782 1.369 . S
C784 C776 1.457 . S
C784 C785 1.372 . S
C784 C789 1.364 . S
C785 H764 0.952 . S
C785 C784 1.372 . S
C785 C786 1.389 . S
C786 H765 0.949 . S
C786 C785 1.389 . S
C786 C787 1.387 . S
C787 C786 1.387 . S
C787 C788 1.372 . S
C788 H766 0.950 . S
C788 C787 1.372 . S
C788 C789 1.379 . S
C789 H767 0.948 . S
C789 C784 1.364 . S
C789 C788 1.379 . S
C790 C759 1.383 . S
C790 C777 1.479 . S
C790 C791 1.398 . S
C791 C756 1.382 . S
C791 H768 0.951 . S
C791 C790 1.398 . S
C792 C793 1.384 . S
C792 H805 0.947 . S
C792 C827 1.382 . S
C793 C792 1.384 . S
C793 C794 1.378 . S
C794 C793 1.378 . S
C794 C795 1.378 . S
C794 H806 0.952 . S
C795 C794 1.378 . S
C795 H807 0.950 . S
C795 C826 1.383 . S
H796 C815 0.947 . S
H797 C816 0.946 . S
H798 C818 0.953 . S
H799 C819 0.945 . S
H800 C821 0.952 . S
H801 C822 0.949 . S
H802 C824 0.950 . S
H803 C825 0.948 . S
H804 C827 0.951 . S
H805 C792 0.947 . S
H806 C794 0.952 . S
H807 C795 0.950 . S
N808 C811 1.382 . S
N808 C813 1.363 . S
N809 C811 1.371 . S
N809 C812 1.372 . S
N810 C812 1.361 . S
N810 C813 1.377 . S
C811 N808 1.382 . S
C811 N809 1.371 . S
C811 C814 1.480 . S
C812 N809 1.372 . S
C812 N810 1.361 . S
C812 C820 1.457 . S
C813 N808 1.363 . S
C813 N810 1.377 . S
C813 C826 1.479 . S
C814 C811 1.480 . S
C814 C815 1.383 . S
C814 C819 1.385 . S
C815 H796 0.947 . S
C815 C814 1.383 . S
C815 C816 1.388 . S
C816 H797 0.946 . S
C816 C815 1.388 . S
C816 C817 1.384 . S
C817 C816 1.384 . S
C817 C818 1.377 . S
C818 H798 0.953 . S
C818 C817 1.377 . S
C818 C819 1.369 . S
C819 H799 0.945 . S
C819 C814 1.385 . S
C819 C818 1.369 . S
C820 C812 1.457 . S
C820 C821 1.372 . S
C820 C825 1.364 . S
C821 H800 0.952 . S
C821 C820 1.372 . S
C821 C822 1.389 . S
C822 H801 0.949 . S
C822 C821 1.389 . S
C822 C823 1.387 . S
C823 C822 1.387 . S
C823 C824 1.372 . S
C824 H802 0.950 . S
C824 C823 1.372 . S
C824 C825 1.379 . S
C825 H803 0.948 . S
C825 C820 1.364 . S
C825 C824 1.379 . S
C826 C795 1.383 . S
C826 C813 1.479 . S
C826 C827 1.398 . S
C827 C792 1.382 . S
C827 H804 0.951 . S
C827 C826 1.398 . S
C828 C829 1.384 . S
C828 H841 0.947 . S
C828 C863 1.382 . S
C829 C828 1.384 . S
C829 C830 1.378 . S
C830 C829 1.378 . S
C830 C831 1.378 . S
C830 H842 0.952 . S
C831 C830 1.378 . S
C831 H843 0.950 . S
C831 C862 1.383 . S
H832 C851 0.947 . S
H833 C852 0.946 . S
H834 C854 0.953 . S
H835 C855 0.945 . S
H836 C857 0.952 . S
H837 C858 0.949 . S
H838 C860 0.950 . S
H839 C861 0.948 . S
H840 C863 0.951 . S
H841 C828 0.947 . S
H842 C830 0.952 . S
H843 C831 0.950 . S
N844 C847 1.382 . S
N844 C849 1.363 . S
N845 C847 1.371 . S
N845 C848 1.372 . S
N846 C848 1.361 . S
N846 C849 1.377 . S
C847 N844 1.382 . S
C847 N845 1.371 . S
C847 C850 1.480 . S
C848 N845 1.372 . S
C848 N846 1.361 . S
C848 C856 1.457 . S
C849 N844 1.363 . S
C849 N846 1.377 . S
C849 C862 1.479 . S
C850 C847 1.480 . S
C850 C851 1.383 . S
C850 C855 1.385 . S
C851 H832 0.947 . S
C851 C850 1.383 . S
C851 C852 1.388 . S
C852 H833 0.946 . S
C852 C851 1.388 . S
C852 C853 1.384 . S
C853 C852 1.384 . S
C853 C854 1.377 . S
C854 H834 0.953 . S
C854 C853 1.377 . S
C854 C855 1.369 . S
C855 H835 0.945 . S
C855 C850 1.385 . S
C855 C854 1.369 . S
C856 C848 1.457 . S
C856 C857 1.372 . S
C856 C861 1.364 . S
C857 H836 0.952 . S
C857 C856 1.372 . S
C857 C858 1.389 . S
C858 H837 0.949 . S
C858 C857 1.389 . S
C858 C859 1.387 . S
C859 C858 1.387 . S
C859 C860 1.372 . S
C860 H838 0.950 . S
C860 C859 1.372 . S
C860 C861 1.379 . S
C861 H839 0.948 . S
C861 C856 1.364 . S
C861 C860 1.379 . S
C862 C831 1.383 . S
C862 C849 1.479 . S
C862 C863 1.398 . S
C863 C828 1.382 . S
C863 H840 0.951 . S
C863 C862 1.398 . S
C864 C865 1.384 . S
C864 H877 0.947 . S
C864 C899 1.382 . S
C865 C864 1.384 . S
C865 C866 1.378 . S
C866 C865 1.378 . S
C866 C867 1.378 . S
C866 H878 0.952 . S
C867 C866 1.378 . S
C867 H879 0.950 . S
C867 C898 1.383 . S
H868 C887 0.947 . S
H869 C888 0.946 . S
H870 C890 0.953 . S
H871 C891 0.945 . S
H872 C893 0.952 . S
H873 C894 0.949 . S
H874 C896 0.950 . S
H875 C897 0.948 . S
H876 C899 0.951 . S
H877 C864 0.947 . S
H878 C866 0.952 . S
H879 C867 0.950 . S
N880 C883 1.382 . S
N880 C885 1.363 . S
N881 C883 1.371 . S
N881 C884 1.372 . S
N882 C884 1.361 . S
N882 C885 1.377 . S
C883 N880 1.382 . S
C883 N881 1.371 . S
C883 C886 1.480 . S
C884 N881 1.372 . S
C884 N882 1.361 . S
C884 C892 1.457 . S
C885 N880 1.363 . S
C885 N882 1.377 . S
C885 C898 1.479 . S
C886 C883 1.480 . S
C886 C887 1.383 . S
C886 C891 1.385 . S
C887 H868 0.947 . S
C887 C886 1.383 . S
C887 C888 1.388 . S
C888 H869 0.946 . S
C888 C887 1.388 . S
C888 C889 1.384 . S
C889 C888 1.384 . S
C889 C890 1.377 . S
C890 H870 0.953 . S
C890 C889 1.377 . S
C890 C891 1.369 . S
C891 H871 0.945 . S
C891 C886 1.385 . S
C891 C890 1.369 . S
C892 C884 1.457 . S
C892 C893 1.372 . S
C892 C897 1.364 . S
C893 H872 0.952 . S
C893 C892 1.372 . S
C893 C894 1.389 . S
C894 H873 0.949 . S
C894 C893 1.389 . S
C894 C895 1.387 . S
C895 C894 1.387 . S
C895 C896 1.372 . S
C896 H874 0.950 . S
C896 C895 1.372 . S
C896 C897 1.379 . S
C897 H875 0.948 . S
C897 C892 1.364 . S
C897 C896 1.379 . S
C898 C867 1.383 . S
C898 C885 1.479 . S
C898 C899 1.398 . S
C899 C864 1.382 . S
C899 H876 0.951 . S
C899 C898 1.398 . S
C900 C901 1.384 . S
C900 H913 0.947 . S
C900 C935 1.382 . S
C901 C900 1.384 . S
C901 C902 1.378 . S
C902 C901 1.378 . S
C902 C903 1.378 . S
C902 H914 0.952 . S
C903 C902 1.378 . S
C903 H915 0.950 . S
C903 C934 1.383 . S
H904 C923 0.947 . S
H905 C924 0.946 . S
H906 C926 0.953 . S
H907 C927 0.945 . S
H908 C929 0.952 . S
H909 C930 0.949 . S
H910 C932 0.950 . S
H911 C933 0.948 . S
H912 C935 0.951 . S
H913 C900 0.947 . S
H914 C902 0.952 . S
H915 C903 0.950 . S
N916 C919 1.382 . S
N916 C921 1.363 . S
N917 C919 1.371 . S
N917 C920 1.372 . S
N918 C920 1.361 . S
N918 C921 1.377 . S
C919 N916 1.382 . S
C919 N917 1.371 . S
C919 C922 1.480 . S
C920 N917 1.372 . S
C920 N918 1.361 . S
C920 C928 1.457 . S
C921 N916 1.363 . S
C921 N918 1.377 . S
C921 C934 1.479 . S
C922 C919 1.480 . S
C922 C923 1.383 . S
C922 C927 1.385 . S
C923 H904 0.947 . S
C923 C922 1.383 . S
C923 C924 1.388 . S
C924 H905 0.946 . S
C924 C923 1.388 . S
C924 C925 1.384 . S
C925 C924 1.384 . S
C925 C926 1.377 . S
C926 H906 0.953 . S
C926 C925 1.377 . S
C926 C927 1.369 . S
C927 H907 0.945 . S
C927 C922 1.385 . S
C927 C926 1.369 . S
C928 C920 1.457 . S
C928 C929 1.372 . S
C928 C933 1.364 . S
C929 H908 0.952 . S
C929 C928 1.372 . S
C929 C930 1.389 . S
C930 H909 0.949 . S
C930 C929 1.389 . S
C930 C931 1.387 . S
C931 C930 1.387 . S
C931 C932 1.372 . S
C932 H910 0.950 . S
C932 C931 1.372 . S
C932 C933 1.379 . S
C933 H911 0.948 . S
C933 C928 1.364 . S
C933 C932 1.379 . S
C934 C903 1.383 . S
C934 C921 1.479 . S
C934 C935 1.398 . S
C935 C900 1.382 . S
C935 H912 0.951 . S
C935 C934 1.398 . S
C936 C937 1.384 . S
C936 H949 0.947 . S
C936 C971 1.382 . S
C937 C936 1.384 . S
C937 C938 1.378 . S
C938 C937 1.378 . S
C938 C939 1.378 . S
C938 H950 0.952 . S
C939 C938 1.378 . S
C939 H951 0.950 . S
C939 C970 1.383 . S
H940 C959 0.947 . S
H941 C960 0.946 . S
H942 C962 0.953 . S
H943 C963 0.945 . S
H944 C965 0.952 . S
H945 C966 0.949 . S
H946 C968 0.950 . S
H947 C969 0.948 . S
H948 C971 0.951 . S
H949 C936 0.947 . S
H950 C938 0.952 . S
H951 C939 0.950 . S
N952 C955 1.382 . S
N952 C957 1.363 . S
N953 C955 1.371 . S
N953 C956 1.372 . S
N954 C956 1.361 . S
N954 C957 1.377 . S
C955 N952 1.382 . S
C955 N953 1.371 . S
C955 C958 1.480 . S
C956 N953 1.372 . S
C956 N954 1.361 . S
C956 C964 1.457 . S
C957 N952 1.363 . S
C957 N954 1.377 . S
C957 C970 1.479 . S
C958 C955 1.480 . S
C958 C959 1.383 . S
C958 C963 1.385 . S
C959 H940 0.947 . S
C959 C958 1.383 . S
C959 C960 1.388 . S
C960 H941 0.946 . S
C960 C959 1.388 . S
C960 C961 1.384 . S
C961 C960 1.384 . S
C961 C962 1.377 . S
C962 H942 0.953 . S
C962 C961 1.377 . S
C962 C963 1.369 . S
C963 H943 0.945 . S
C963 C958 1.385 . S
C963 C962 1.369 . S
C964 C956 1.457 . S
C964 C965 1.372 . S
C964 C969 1.364 . S
C965 H944 0.952 . S
C965 C964 1.372 . S
C965 C966 1.389 . S
C966 H945 0.949 . S
C966 C965 1.389 . S
C966 C967 1.387 . S
C967 C966 1.387 . S
C967 C968 1.372 . S
C968 H946 0.950 . S
C968 C967 1.372 . S
C968 C969 1.379 . S
C969 H947 0.948 . S
C969 C964 1.364 . S
C969 C968 1.379 . S
C970 C939 1.383 . S
C970 C957 1.479 . S
C970 C971 1.398 . S
C971 C936 1.382 . S
C971 H948 0.951 . S
C971 C970 1.398 . S
C972 C973 1.384 . S
C972 H985 0.947 . S
C972 C1007 1.382 . S
C973 C972 1.384 . S
C973 C974 1.378 . S
C974 C973 1.378 . S
C974 C975 1.378 . S
C974 H986 0.952 . S
C975 C974 1.378 . S
C975 H987 0.950 . S
C975 C1006 1.383 . S
H976 C995 0.947 . S
H977 C996 0.946 . S
H978 C998 0.953 . S
H979 C999 0.945 . S
H980 C1001 0.952 . S
H981 C1002 0.949 . S
H982 C1004 0.950 . S
H983 C1005 0.948 . S
H984 C1007 0.951 . S
H985 C972 0.947 . S
H986 C974 0.952 . S
H987 C975 0.950 . S
N988 C991 1.382 . S
N988 C993 1.363 . S
N989 C991 1.371 . S
N989 C992 1.372 . S
N990 C992 1.361 . S
N990 C993 1.377 . S
C991 N988 1.382 . S
C991 N989 1.371 . S
C991 C994 1.480 . S
C992 N989 1.372 . S
C992 N990 1.361 . S
C992 C1000 1.457 . S
C993 N988 1.363 . S
C993 N990 1.377 . S
C993 C1006 1.479 . S
C994 C991 1.480 . S
C994 C995 1.383 . S
C994 C999 1.385 . S
C995 H976 0.947 . S
C995 C994 1.383 . S
C995 C996 1.388 . S
C996 H977 0.946 . S
C996 C995 1.388 . S
C996 C997 1.384 . S
C997 C996 1.384 . S
C997 C998 1.377 . S
C998 H978 0.953 . S
C998 C997 1.377 . S
C998 C999 1.369 . S
C999 H979 0.945 . S
C999 C994 1.385 . S
C999 C998 1.369 . S
C1000 C992 1.457 . S
C1000 C1001 1.372 . S
C1000 C1005 1.364 . S
C1001 H980 0.952 . S
C1001 C1000 1.372 . S
C1001 C1002 1.389 . S
C1002 H981 0.949 . S
C1002 C1001 1.389 . S
C1002 C1003 1.387 . S
C1003 C1002 1.387 . S
C1003 C1004 1.372 . S
C1004 H982 0.950 . S
C1004 C1003 1.372 . S
C1004 C1005 1.379 . S
C1005 H983 0.948 . S
C1005 C1000 1.364 . S
C1005 C1004 1.379 . S
C1006 C975 1.383 . S
C1006 C993 1.479 . S
C1006 C1007 1.398 . S
C1007 C972 1.382 . S
C1007 H984 0.951 . S
C1007 C1006 1.398 . S
C1008 C1009 1.384 . S
C1008 H1021 0.947 . S
C1008 C1043 1.382 . S
C1009 C1008 1.384 . S
C1009 C1010 1.378 . S
C1010 C1009 1.378 . S
C1010 C1011 1.378 . S
C1010 H1022 0.952 . S
C1011 C1010 1.378 . S
C1011 H1023 0.950 . S
C1011 C1042 1.383 . S
H1012 C1031 0.947 . S
H1013 C1032 0.946 . S
H1014 C1034 0.953 . S
H1015 C1035 0.945 . S
H1016 C1037 0.952 . S
H1017 C1038 0.949 . S
H1018 C1040 0.950 . S
H1019 C1041 0.948 . S
H1020 C1043 0.951 . S
H1021 C1008 0.947 . S
H1022 C1010 0.952 . S
H1023 C1011 0.950 . S
N1024 C1027 1.382 . S
N1024 C1029 1.363 . S
N1025 C1027 1.371 . S
N1025 C1028 1.372 . S
N1026 C1028 1.361 . S
N1026 C1029 1.377 . S
C1027 N1024 1.382 . S
C1027 N1025 1.371 . S
C1027 C1030 1.480 . S
C1028 N1025 1.372 . S
C1028 N1026 1.361 . S
C1028 C1036 1.457 . S
C1029 N1024 1.363 . S
C1029 N1026 1.377 . S
C1029 C1042 1.479 . S
C1030 C1027 1.480 . S
C1030 C1031 1.383 . S
C1030 C1035 1.385 . S
C1031 H1012 0.947 . S
C1031 C1030 1.383 . S
C1031 C1032 1.388 . S
C1032 H1013 0.946 . S
C1032 C1031 1.388 . S
C1032 C1033 1.384 . S
C1033 C1032 1.384 . S
C1033 C1034 1.377 . S
C1034 H1014 0.953 . S
C1034 C1033 1.377 . S
C1034 C1035 1.369 . S
C1035 H1015 0.945 . S
C1035 C1030 1.385 . S
C1035 C1034 1.369 . S
C1036 C1028 1.457 . S
C1036 C1037 1.372 . S
C1036 C1041 1.364 . S
C1037 H1016 0.952 . S
C1037 C1036 1.372 . S
C1037 C1038 1.389 . S
C1038 H1017 0.949 . S
C1038 C1037 1.389 . S
C1038 C1039 1.387 . S
C1039 C1038 1.387 . S
C1039 C1040 1.372 . S
C1040 H1018 0.950 . S
C1040 C1039 1.372 . S
C1040 C1041 1.379 . S
C1041 H1019 0.948 . S
C1041 C1036 1.364 . S
C1041 C1040 1.379 . S
C1042 C1011 1.383 . S
C1042 C1029 1.479 . S
C1042 C1043 1.398 . S
C1043 C1008 1.382 . S
C1043 H1020 0.951 . S
C1043 C1042 1.398 . S
C1044 C1045 1.384 . S
C1044 H1057 0.947 . S
C1044 C1079 1.382 . S
C1045 C1044 1.384 . S
C1045 C1046 1.378 . S
C1046 C1045 1.378 . S
C1046 C1047 1.378 . S
C1046 H1058 0.952 . S
C1047 C1046 1.378 . S
C1047 H1059 0.950 . S
C1047 C1078 1.383 . S
H1048 C1067 0.947 . S
H1049 C1068 0.946 . S
H1050 C1070 0.953 . S
H1051 C1071 0.945 . S
H1052 C1073 0.952 . S
H1053 C1074 0.949 . S
H1054 C1076 0.950 . S
H1055 C1077 0.948 . S
H1056 C1079 0.951 . S
H1057 C1044 0.947 . S
H1058 C1046 0.952 . S
H1059 C1047 0.950 . S
N1060 C1063 1.382 . S
N1060 C1065 1.363 . S
N1061 C1063 1.371 . S
N1061 C1064 1.372 . S
N1062 C1064 1.361 . S
N1062 C1065 1.377 . S
C1063 N1060 1.382 . S
C1063 N1061 1.371 . S
C1063 C1066 1.480 . S
C1064 N1061 1.372 . S
C1064 N1062 1.361 . S
C1064 C1072 1.457 . S
C1065 N1060 1.363 . S
C1065 N1062 1.377 . S
C1065 C1078 1.479 . S
C1066 C1063 1.480 . S
C1066 C1067 1.383 . S
C1066 C1071 1.385 . S
C1067 H1048 0.947 . S
C1067 C1066 1.383 . S
C1067 C1068 1.388 . S
C1068 H1049 0.946 . S
C1068 C1067 1.388 . S
C1068 C1069 1.384 . S
C1069 C1068 1.384 . S
C1069 C1070 1.377 . S
C1070 H1050 0.953 . S
C1070 C1069 1.377 . S
C1070 C1071 1.369 . S
C1071 H1051 0.945 . S
C1071 C1066 1.385 . S
C1071 C1070 1.369 . S
C1072 C1064 1.457 . S
C1072 C1073 1.372 . S
C1072 C1077 1.364 . S
C1073 H1052 0.952 . S
C1073 C1072 1.372 . S
C1073 C1074 1.389 . S
C1074 H1053 0.949 . S
C1074 C1073 1.389 . S
C1074 C1075 1.387 . S
C1075 C1074 1.387 . S
C1075 C1076 1.372 . S
C1076 H1054 0.950 . S
C1076 C1075 1.372 . S
C1076 C1077 1.379 . S
C1077 H1055 0.948 . S
C1077 C1072 1.364 . S
C1077 C1076 1.379 . S
C1078 C1047 1.383 . S
C1078 C1065 1.479 . S
C1078 C1079 1.398 . S
C1079 C1044 1.382 . S
C1079 H1056 0.951 . S
C1079 C1078 1.398 . S
C1080 C1081 1.384 . S
C1080 H1093 0.947 . S
C1080 C1115 1.382 . S
C1081 C1080 1.384 . S
C1081 C1082 1.378 . S
C1082 C1081 1.378 . S
C1082 C1083 1.378 . S
C1082 H1094 0.952 . S
C1083 C1082 1.378 . S
C1083 H1095 0.950 . S
C1083 C1114 1.383 . S
H1084 C1103 0.947 . S
H1085 C1104 0.946 . S
H1086 C1106 0.953 . S
H1087 C1107 0.945 . S
H1088 C1109 0.952 . S
H1089 C1110 0.949 . S
H1090 C1112 0.950 . S
H1091 C1113 0.948 . S
H1092 C1115 0.951 . S
H1093 C1080 0.947 . S
H1094 C1082 0.952 . S
H1095 C1083 0.950 . S
N1096 C1099 1.382 . S
N1096 C1101 1.363 . S
N1097 C1099 1.371 . S
N1097 C1100 1.372 . S
N1098 C1100 1.361 . S
N1098 C1101 1.377 . S
C1099 N1096 1.382 . S
C1099 N1097 1.371 . S
C1099 C1102 1.480 . S
C1100 N1097 1.372 . S
C1100 N1098 1.361 . S
C1100 C1108 1.457 . S
C1101 N1096 1.363 . S
C1101 N1098 1.377 . S
C1101 C1114 1.479 . S
C1102 C1099 1.480 . S
C1102 C1103 1.383 . S
C1102 C1107 1.385 . S
C1103 H1084 0.947 . S
C1103 C1102 1.383 . S
C1103 C1104 1.388 . S
C1104 H1085 0.946 . S
C1104 C1103 1.388 . S
C1104 C1105 1.384 . S
C1105 C1104 1.384 . S
C1105 C1106 1.377 . S
C1106 H1086 0.953 . S
C1106 C1105 1.377 . S
C1106 C1107 1.369 . S
C1107 H1087 0.945 . S
C1107 C1102 1.385 . S
C1107 C1106 1.369 . S
C1108 C1100 1.457 . S
C1108 C1109 1.372 . S
C1108 C1113 1.364 . S
C1109 H1088 0.952 . S
C1109 C1108 1.372 . S
C1109 C1110 1.389 . S
C1110 H1089 0.949 . S
C1110 C1109 1.389 . S
C1110 C1111 1.387 . S
C1111 C1110 1.387 . S
C1111 C1112 1.372 . S
C1112 H1090 0.950 . S
C1112 C1111 1.372 . S
C1112 C1113 1.379 . S
C1113 H1091 0.948 . S
C1113 C1108 1.364 . S
C1113 C1112 1.379 . S
C1114 C1083 1.383 . S
C1114 C1101 1.479 . S
C1114 C1115 1.398 . S
C1115 C1080 1.382 . S
C1115 H1092 0.951 . S
C1115 C1114 1.398 . S
C1116 C1117 1.384 . S
C1116 H1129 0.947 . S
C1116 C1151 1.382 . S
C1117 C1116 1.384 . S
C1117 C1118 1.378 . S
C1118 C1117 1.378 . S
C1118 C1119 1.378 . S
C1118 H1130 0.952 . S
C1119 C1118 1.378 . S
C1119 H1131 0.950 . S
C1119 C1150 1.383 . S
H1120 C1139 0.947 . S
H1121 C1140 0.946 . S
H1122 C1142 0.953 . S
H1123 C1143 0.945 . S
H1124 C1145 0.952 . S
H1125 C1146 0.949 . S
H1126 C1148 0.950 . S
H1127 C1149 0.948 . S
H1128 C1151 0.951 . S
H1129 C1116 0.947 . S
H1130 C1118 0.952 . S
H1131 C1119 0.950 . S
N1132 C1135 1.382 . S
N1132 C1137 1.363 . S
N1133 C1135 1.371 . S
N1133 C1136 1.372 . S
N1134 C1136 1.361 . S
N1134 C1137 1.377 . S
C1135 N1132 1.382 . S
C1135 N1133 1.371 . S
C1135 C1138 1.480 . S
C1136 N1133 1.372 . S
C1136 N1134 1.361 . S
C1136 C1144 1.457 . S
C1137 N1132 1.363 . S
C1137 N1134 1.377 . S
C1137 C1150 1.479 . S
C1138 C1135 1.480 . S
C1138 C1139 1.383 . S
C1138 C1143 1.385 . S
C1139 H1120 0.947 . S
C1139 C1138 1.383 . S
C1139 C1140 1.388 . S
C1140 H1121 0.946 . S
C1140 C1139 1.388 . S
C1140 C1141 1.384 . S
C1141 C1140 1.384 . S
C1141 C1142 1.377 . S
C1142 H1122 0.953 . S
C1142 C1141 1.377 . S
C1142 C1143 1.369 . S
C1143 H1123 0.945 . S
C1143 C1138 1.385 . S
C1143 C1142 1.369 . S
C1144 C1136 1.457 . S
C1144 C1145 1.372 . S
C1144 C1149 1.364 . S
C1145 H1124 0.952 . S
C1145 C1144 1.372 . S
C1145 C1146 1.389 . S
C1146 H1125 0.949 . S
C1146 C1145 1.389 . S
C1146 C1147 1.387 . S
C1147 C1146 1.387 . S
C1147 C1148 1.372 . S
C1148 H1126 0.950 . S
C1148 C1147 1.372 . S
C1148 C1149 1.379 . S
C1149 H1127 0.948 . S
C1149 C1144 1.364 . S
C1149 C1148 1.379 . S
C1150 C1119 1.383 . S
C1150 C1137 1.479 . S
C1150 C1151 1.398 . S
C1151 C1116 1.382 . S
C1151 H1128 0.951 . S
C1151 C1150 1.398 . S
Cu1152 N1153 1.999 . S
Cu1152 O1158 1.974 1_554 S
Cu1152 N1163 1.985 . S
Cu1152 O1172 1.959 . S
N1153 Cu1152 1.999 . S
N1153 C1155 1.263 1_554 S
N1153 C1157 1.389 . S
N1154 C1155 1.358 . S
N1154 C1156 1.400 . S
C1155 N1153 1.263 1_556 S
C1155 N1154 1.358 . S
C1155 H1161 0.930 . S
C1156 N1154 1.400 . S
C1156 C1157 1.351 1_556 S
C1156 H1173 0.930 . S
C1157 N1153 1.389 . S
C1157 C1156 1.351 1_554 S
C1157 H1162 0.930 . S
O1158 Cu1152 1.974 1_556 S
O1158 C1168 1.282 . S
C1159 O1160 1.261 . S
C1159 O1172 1.251 . S
O1160 C1159 1.261 . S
H1161 C1155 0.930 . S
H1162 C1157 0.930 . S
N1163 Cu1152 1.985 . S
N1163 C1165 1.335 . S
N1163 C1166 1.390 . S
N1164 C1165 1.345 . S
N1164 C1167 1.336 . S
C1165 N1163 1.335 . S
C1165 N1164 1.345 . S
C1165 H1170 0.930 . S
C1166 N1163 1.390 . S
C1166 C1167 1.346 . S
C1166 H1171 0.930 . S
C1167 N1164 1.336 . S
C1167 C1166 1.346 . S
C1167 H1174 0.929 . S
C1168 O1158 1.282 . S
C1168 O1169 1.216 . S
O1169 C1168 1.216 . S
H1170 C1165 0.930 . S
H1171 C1166 0.930 . S
O1172 Cu1152 1.959 . S
O1172 C1159 1.251 . S
H1173 C1156 0.930 . S
H1174 C1167 0.929 . S
Cu1175 N1176 1.999 . S
Cu1175 O1181 1.974 . S
Cu1175 N1186 1.985 1_554 S
Cu1175 O1195 1.959 1_554 S
N1176 Cu1175 1.999 . S
N1176 C1178 1.263 . S
N1176 C1180 1.389 . S
N1177 C1178 1.358 . S
N1177 C1179 1.400 . S
C1178 N1176 1.263 . S
C1178 N1177 1.358 . S
C1178 H1184 0.930 . S
C1179 N1177 1.400 . S
C1179 C1180 1.351 . S
C1179 H1196 0.930 . S
C1180 N1176 1.389 . S
C1180 C1179 1.351 . S
C1180 H1185 0.930 . S
O1181 Cu1175 1.974 . S
O1181 C1191 1.282 . S
C1182 O1183 1.261 . S
C1182 O1195 1.251 . S
O1183 C1182 1.261 . S
H1184 C1178 0.930 . S
H1185 C1180 0.930 . S
N1186 Cu1175 1.985 1_556 S
N1186 C1188 1.335 . S
N1186 C1189 1.390 . S
N1187 C1188 1.345 . S
N1187 C1190 1.336 . S
C1188 N1186 1.335 . S
C1188 N1187 1.345 . S
C1188 H1193 0.930 . S
C1189 N1186 1.390 . S
C1189 C1190 1.346 . S
C1189 H1194 0.930 1_556 S
C1190 N1187 1.336 . S
C1190 C1189 1.346 . S
C1190 H1197 0.929 . S
C1191 O1181 1.282 . S
C1191 O1192 1.216 . S
O1192 C1191 1.216 . S
H1193 C1188 0.930 . S
H1194 C1189 0.930 1_554 S
O1195 Cu1175 1.959 1_556 S
O1195 C1182 1.251 . S
H1196 C1179 0.930 . S
H1197 C1190 0.929 . S
Cu1198 N1199 1.959 1_554 S
Cu1198 O1204 1.924 1_554 S
Cu1198 N1209 2.025 . S
Cu1198 O1218 2.009 . S
N1199 Cu1198 1.959 1_556 S
N1199 C1201 1.263 . S
N1199 C1203 1.389 . S
N1200 C1201 1.358 . S
N1200 C1202 1.400 . S
C1201 N1199 1.263 . S
C1201 N1200 1.358 . S
C1201 H1207 0.930 . S
C1202 N1200 1.400 . S
C1202 C1203 1.351 . S
C1202 H1219 0.930 . S
C1203 N1199 1.389 . S
C1203 C1202 1.351 . S
C1203 H1208 0.930 . S
O1204 Cu1198 1.924 1_556 S
O1204 C1214 1.282 . S
C1205 O1206 1.261 . S
C1205 O1218 1.251 . S
O1206 C1205 1.261 . S
H1207 C1201 0.930 . S
H1208 C1203 0.930 . S
N1209 Cu1198 2.025 . S
N1209 C1211 1.335 . S
N1209 C1212 1.390 . S
N1210 C1211 1.345 . S
N1210 C1213 1.336 . S
C1211 N1209 1.335 . S
C1211 N1210 1.345 . S
C1211 H1216 0.930 . S
C1212 N1209 1.390 . S
C1212 C1213 1.346 . S
C1212 H1217 0.967 . S
C1213 N1210 1.336 . S
C1213 C1212 1.346 . S
C1213 H1220 0.929 . S
C1214 O1204 1.282 . S
C1214 O1215 1.216 . S
O1215 C1214 1.216 . S
H1216 C1211 0.930 . S
H1217 C1212 0.967 . S
O1218 Cu1198 2.009 . S
O1218 C1205 1.251 . S
H1219 C1202 0.930 . S
H1220 C1213 0.929 . S
Cu1221 N1222 2.007 . S
Cu1221 O1227 1.982 . S
Cu1221 N1232 1.978 1_554 S
Cu1221 O1241 1.951 1_554 S
N1222 Cu1221 2.007 . S
N1222 C1224 1.263 . S
N1222 C1226 1.389 . S
N1223 C1224 1.358 . S
N1223 C1225 1.400 . S
C1224 N1222 1.263 . S
C1224 N1223 1.358 . S
C1224 H1230 0.930 . S
C1225 N1223 1.400 . S
C1225 C1226 1.351 . S
C1225 H1242 0.930 . S
C1226 N1222 1.389 . S
C1226 C1225 1.351 . S
C1226 H1231 0.930 . S
O1227 Cu1221 1.982 . S
O1227 C1237 1.282 . S
C1228 O1229 1.261 . S
C1228 O1241 1.251 . S
O1229 C1228 1.261 . S
H1230 C1224 0.930 . S
H1231 C1226 0.930 . S
N1232 Cu1221 1.978 1_556 S
N1232 C1234 1.335 . S
N1232 C1235 1.390 . S
N1233 C1234 1.345 . S
N1233 C1236 1.336 . S
C1234 N1232 1.335 . S
C1234 N1233 1.345 . S
C1234 H1239 0.930 . S
C1235 N1232 1.390 . S
C1235 C1236 1.346 . S
C1235 H1240 0.907 1_556 S
C1236 N1233 1.336 . S
C1236 C1235 1.346 . S
C1236 H1243 0.929 . S
C1237 O1227 1.282 . S
C1237 O1238 1.216 . S
O1238 C1237 1.216 . S
H1239 C1234 0.930 . S
H1240 C1235 0.907 1_554 S
O1241 Cu1221 1.951 1_556 S
O1241 C1228 1.251 . S
H1242 C1225 0.930 . S
H1243 C1236 0.929 . S
Cu1244 N1245 1.999 . S
Cu1244 O1250 1.974 . S
Cu1244 N1255 1.985 1_455 S
Cu1244 O1264 1.959 1_455 S
N1245 Cu1244 1.999 . S
N1245 C1247 1.263 . S
N1245 C1249 1.389 . S
N1246 C1247 1.358 . S
N1246 C1248 1.400 . S
C1247 N1245 1.263 . S
C1247 N1246 1.358 . S
C1247 H1253 0.930 . S
C1248 N1246 1.400 . S
C1248 C1249 1.351 . S
C1248 H1265 0.930 . S
C1249 N1245 1.389 . S
C1249 C1248 1.351 . S
C1249 H1254 0.930 . S
O1250 Cu1244 1.974 . S
O1250 C1260 1.282 . S
C1251 O1252 1.261 . S
C1251 O1264 1.251 . S
O1252 C1251 1.261 . S
H1253 C1247 0.930 . S
H1254 C1249 0.930 . S
N1255 Cu1244 1.985 1_655 S
N1255 C1257 1.335 . S
N1255 C1258 1.380 1_655 S
N1256 C1257 1.345 . S
N1256 C1259 1.336 . S
C1257 N1255 1.335 . S
C1257 N1256 1.345 . S
C1257 H1262 0.930 . S
C1258 N1255 1.380 1_455 S
C1258 C1259 1.293 1_455 S
C1258 H1263 0.986 . S
C1259 N1256 1.336 . S
C1259 C1258 1.293 1_655 S
C1259 H1266 0.929 . S
C1260 O1250 1.282 . S
C1260 O1261 1.216 . S
O1261 C1260 1.216 . S
H1262 C1257 0.930 . S
H1263 C1258 0.986 . S
O1264 Cu1244 1.959 1_655 S
O1264 C1251 1.251 . S
H1265 C1248 0.930 . S
H1266 C1259 0.929 . S
Cu1267 N1268 1.999 . S
Cu1267 O1273 1.974 . S
Cu1267 N1278 1.985 1_545 S
Cu1267 O1287 1.959 1_545 S
N1268 Cu1267 1.999 . S
N1268 C1270 1.263 . S
N1268 C1272 1.389 . S
N1269 C1270 1.358 . S
N1269 C1271 1.400 . S
C1270 N1268 1.263 . S
C1270 N1269 1.358 . S
C1270 H1276 0.930 . S
C1271 N1269 1.400 . S
C1271 C1272 1.351 . S
C1271 H1288 0.930 . S
C1272 N1268 1.389 . S
C1272 C1271 1.351 . S
C1272 H1277 0.930 . S
O1273 Cu1267 1.974 . S
O1273 C1283 1.282 . S
C1274 O1275 1.261 . S
C1274 O1287 1.251 . S
O1275 C1274 1.261 . S
H1276 C1270 0.930 . S
H1277 C1272 0.930 . S
N1278 Cu1267 1.985 1_565 S
N1278 C1280 1.335 . S
N1278 C1281 1.390 . S
N1279 C1280 1.345 . S
N1279 C1282 1.336 . S
C1280 N1278 1.335 . S
C1280 N1279 1.345 . S
C1280 H1285 0.930 . S
C1281 N1278 1.390 . S
C1281 C1282 1.346 . S
C1281 H1286 0.930 1_565 S
C1282 N1279 1.336 . S
C1282 C1281 1.346 . S
C1282 H1289 0.929 . S
C1283 O1273 1.282 . S
C1283 O1284 1.216 . S
O1284 C1283 1.216 . S
H1285 C1280 0.930 . S
H1286 C1281 0.930 1_545 S
O1287 Cu1267 1.959 1_565 S
O1287 C1274 1.251 . S
H1288 C1271 0.930 . S
H1289 C1282 0.929 . S
Cu1290 N1291 2.004 1_455 S
Cu1290 O1296 1.979 1_455 S
Cu1290 N1301 1.980 . S
Cu1290 O1310 1.954 . S
N1291 Cu1290 2.004 1_655 S
N1291 C1293 1.263 . S
N1291 C1295 1.389 . S
N1292 C1293 1.358 . S
N1292 C1294 1.400 . S
C1293 N1291 1.263 . S
C1293 N1292 1.358 . S
C1293 H1299 0.930 . S
C1294 N1292 1.400 . S
C1294 C1295 1.351 . S
C1294 H1311 0.930 . S
C1295 N1291 1.389 . S
C1295 C1294 1.351 . S
C1295 H1300 0.930 . S
O1296 Cu1290 1.979 1_655 S
O1296 C1306 1.282 . S
C1297 O1298 1.261 . S
C1297 O1310 1.251 . S
O1298 C1297 1.261 . S
H1299 C1293 0.930 . S
H1300 C1295 0.930 . S
N1301 Cu1290 1.980 . S
N1301 C1303 1.335 . S
N1301 C1304 1.390 . S
N1302 C1303 1.345 . S
N1302 C1305 1.336 . S
C1303 N1301 1.335 . S
C1303 N1302 1.345 . S
C1303 H1308 0.930 . S
C1304 N1301 1.390 . S
C1304 C1305 1.346 . S
C1304 H1309 0.930 . S
C1305 N1302 1.336 . S
C1305 C1304 1.346 . S
C1305 H1312 0.929 . S
C1306 O1296 1.282 . S
C1306 O1307 1.216 . S
O1307 C1306 1.216 . S
H1308 C1303 0.930 . S
H1309 C1304 0.930 . S
O1310 Cu1290 1.954 . S
O1310 C1297 1.251 . S
H1311 C1294 0.930 . S
H1312 C1305 0.929 . S
Cu1313 N1314 1.988 1_565 S
Cu1313 O1319 1.959 1_565 S
Cu1313 N1324 1.996 . S
Cu1313 O1333 1.973 . S
N1314 Cu1313 1.988 1_545 S
N1314 C1316 1.263 . S
N1314 C1318 1.389 . S
N1315 C1316 1.358 . S
N1315 C1317 1.400 . S
C1316 N1314 1.263 . S
C1316 N1315 1.358 . S
C1316 H1322 0.930 . S
C1317 N1315 1.400 . S
C1317 C1318 1.351 . S
C1317 H1334 0.930 . S
C1318 N1314 1.389 . S
C1318 C1317 1.351 . S
C1318 H1323 0.930 . S
O1319 Cu1313 1.959 1_545 S
O1319 C1329 1.282 . S
C1320 O1321 1.261 . S
C1320 O1333 1.251 . S
O1321 C1320 1.261 . S
H1322 C1316 0.930 . S
H1323 C1318 0.930 . S
N1324 Cu1313 1.996 . S
N1324 C1326 1.335 . S
N1324 C1327 1.390 . S
N1325 C1326 1.345 . S
N1325 C1328 1.336 . S
C1326 N1324 1.335 . S
C1326 N1325 1.345 . S
C1326 H1331 0.930 . S
C1327 N1324 1.390 . S
C1327 C1328 1.346 . S
C1327 H1332 0.930 . S
C1328 N1325 1.336 . S
C1328 C1327 1.346 . S
C1328 H1335 0.929 . S
C1329 O1319 1.282 . S
C1329 O1330 1.216 . S
O1330 C1329 1.216 . S
H1331 C1326 0.930 . S
H1332 C1327 0.930 . S
O1333 Cu1313 1.973 . S
O1333 C1320 1.251 . S
H1334 C1317 0.930 . S
H1335 C1328 0.929 . S
Cu1336 N1337 1.999 . S
Cu1336 O1342 1.974 . S
Cu1336 N1347 1.985 1_455 S
Cu1336 O1356 1.959 1_455 S
N1337 Cu1336 1.999 . S
N1337 C1339 1.263 . S
N1337 C1341 1.389 . S
N1338 C1339 1.358 . S
N1338 C1340 1.400 . S
C1339 N1337 1.263 . S
C1339 N1338 1.358 . S
C1339 H1345 0.930 . S
C1340 N1338 1.400 . S
C1340 C1341 1.351 . S
C1340 H1357 0.930 . S
C1341 N1337 1.389 . S
C1341 C1340 1.351 . S
C1341 H1346 0.930 . S
O1342 Cu1336 1.974 . S
O1342 C1352 1.282 . S
C1343 O1344 1.261 . S
C1343 O1356 1.251 . S
O1344 C1343 1.261 . S
H1345 C1339 0.930 . S
H1346 C1341 0.930 . S
N1347 Cu1336 1.985 1_655 S
N1347 C1349 1.335 . S
N1347 C1350 1.390 1_655 S
N1348 C1349 1.345 . S
N1348 C1351 1.336 . S
C1349 N1347 1.335 . S
C1349 N1348 1.345 . S
C1349 H1354 0.930 . S
C1350 N1347 1.390 1_455 S
C1350 C1351 1.345 1_455 S
C1350 H1355 0.932 . S
C1351 N1348 1.336 . S
C1351 C1350 1.345 1_655 S
C1351 H1358 0.929 . S
C1352 O1342 1.282 . S
C1352 O1353 1.216 . S
O1353 C1352 1.216 . S
H1354 C1349 0.930 . S
H1355 C1350 0.932 . S
O1356 Cu1336 1.959 1_655 S
O1356 C1343 1.251 . S
H1357 C1340 0.930 . S
H1358 C1351 0.929 . S
Cu1359 N1360 1.999 . S
Cu1359 O1365 1.974 . S
Cu1359 N1370 1.948 1_545 S
Cu1359 O1379 1.959 1_545 S
N1360 Cu1359 1.999 . S
N1360 C1362 1.263 . S
N1360 C1364 1.389 . S
N1361 C1362 1.358 . S
N1361 C1363 1.400 . S
C1362 N1360 1.263 . S
C1362 N1361 1.358 . S
C1362 H1368 0.930 . S
C1363 N1361 1.400 . S
C1363 C1364 1.351 . S
C1363 H1380 0.930 . S
C1364 N1360 1.389 . S
C1364 C1363 1.351 . S
C1364 H1369 0.930 . S
O1365 Cu1359 1.974 . S
O1365 C1375 1.282 . S
C1366 O1367 1.261 . S
C1366 O1379 1.251 . S
O1367 C1366 1.261 . S
H1368 C1362 0.930 . S
H1369 C1364 0.930 . S
N1370 Cu1359 1.948 1_565 S
N1370 C1372 1.391 . S
N1370 C1373 1.380 1_565 S
N1371 C1372 1.345 . S
N1371 C1374 1.336 . S
C1372 N1370 1.391 . S
C1372 N1371 1.345 . S
C1372 H1377 0.930 . S
C1373 N1370 1.380 1_545 S
C1373 C1374 1.346 1_545 S
C1373 H1378 0.930 . S
C1374 N1371 1.336 . S
C1374 C1373 1.346 1_565 S
C1374 H1381 0.929 . S
C1375 O1365 1.282 . S
C1375 O1376 1.216 . S
O1376 C1375 1.216 . S
H1377 C1372 0.930 . S
H1378 C1373 0.930 . S
O1379 Cu1359 1.959 1_565 S
O1379 C1366 1.251 . S
H1380 C1363 0.930 . S
H1381 C1374 0.929 . S
Cu1382 N1383 1.999 . S
Cu1382 O1388 1.974 . S
Cu1382 N1393 1.985 . S
Cu1382 O1402 1.959 . S
N1383 Cu1382 1.999 . S
N1383 C1385 1.263 1_455 S
N1383 C1387 1.389 . S
N1384 C1385 1.358 . S
N1384 C1386 1.400 . S
C1385 N1383 1.263 1_655 S
C1385 N1384 1.358 . S
C1385 H1391 0.930 . S
C1386 N1384 1.400 . S
C1386 C1387 1.351 1_655 S
C1386 H1403 0.930 . S
C1387 N1383 1.389 . S
C1387 C1386 1.351 1_455 S
C1387 H1392 0.930 . S
O1388 Cu1382 1.974 . S
O1388 C1398 1.282 1_455 S
C1389 O1390 1.261 . S
C1389 O1402 1.251 . S
O1390 C1389 1.261 . S
H1391 C1385 0.930 . S
H1392 C1387 0.930 . S
N1393 Cu1382 1.985 . S
N1393 C1395 1.335 . S
N1393 C1396 1.390 . S
N1394 C1395 1.345 . S
N1394 C1397 1.336 . S
C1395 N1393 1.335 . S
C1395 N1394 1.345 . S
C1395 H1400 0.930 . S
C1396 N1393 1.390 . S
C1396 C1397 1.346 . S
C1396 H1401 0.930 . S
C1397 N1394 1.336 . S
C1397 C1396 1.346 . S
C1397 H1404 0.929 . S
C1398 O1388 1.282 1_655 S
C1398 O1399 1.216 1_655 S
O1399 C1398 1.216 1_455 S
H1400 C1395 0.930 . S
H1401 C1396 0.930 . S
O1402 Cu1382 1.959 . S
O1402 C1389 1.251 . S
H1403 C1386 0.930 . S
H1404 C1397 0.929 . S
Cu1405 N1406 1.999 . S
Cu1405 O1411 1.974 . S
Cu1405 N1416 2.026 . S
Cu1405 O1425 1.959 1_545 S
N1406 Cu1405 1.999 . S
N1406 C1408 1.263 . S
N1406 C1410 1.389 . S
N1407 C1408 1.358 . S
N1407 C1409 1.400 . S
C1408 N1406 1.263 . S
C1408 N1407 1.358 . S
C1408 H1414 0.930 . S
C1409 N1407 1.400 . S
C1409 C1410 1.351 . S
C1409 H1426 0.930 . S
C1410 N1406 1.389 . S
C1410 C1409 1.351 . S
C1410 H1415 0.930 . S
O1411 Cu1405 1.974 . S
O1411 C1421 1.282 . S
C1412 O1413 1.256 1_565 S
C1412 O1425 1.251 . S
O1413 C1412 1.256 1_545 S
H1414 C1408 0.930 . S
H1415 C1410 0.930 . S
N1416 Cu1405 2.026 . S
N1416 C1418 1.270 1_545 S
N1416 C1419 1.407 . S
N1417 C1418 1.345 . S
N1417 C1420 1.336 . S
C1418 N1416 1.270 1_565 S
C1418 N1417 1.345 . S
C1418 H1423 0.930 . S
C1419 N1416 1.407 . S
C1419 C1420 1.346 1_545 S
C1419 H1424 0.930 . S
C1420 N1417 1.336 . S
C1420 C1419 1.346 1_565 S
C1420 H1427 0.929 . S
C1421 O1411 1.282 . S
C1421 O1422 1.216 . S
O1422 C1421 1.216 . S
H1423 C1418 0.930 . S
H1424 C1419 0.930 . S
O1425 Cu1405 1.959 1_565 S
O1425 C1412 1.251 . S
H1426 C1409 0.930 . S
H1427 C1420 0.929 . S
Cu1428 N1429 1.999 . S
Cu1428 O1434 1.974 . S
Cu1428 N1439 1.985 . S
Cu1428 O1448 1.959 . S
N1429 Cu1428 1.999 . S
N1429 C1431 1.263 . S
N1429 C1433 1.389 . S
N1430 C1431 1.358 . S
N1430 C1432 1.400 . S
C1431 N1429 1.263 . S
C1431 N1430 1.358 . S
C1431 H1437 0.930 . S
C1432 N1430 1.400 . S
C1432 C1433 1.351 . S
C1432 H1449 0.930 . S
C1433 N1429 1.389 . S
C1433 C1432 1.351 . S
C1433 H1438 0.930 . S
O1434 Cu1428 1.974 . S
O1434 C1444 1.282 . S
C1435 O1436 1.261 . S
C1435 O1448 1.251 . S
O1436 C1435 1.261 . S
H1437 C1431 0.930 . S
H1438 C1433 0.930 . S
N1439 Cu1428 1.985 . S
N1439 C1441 1.335 . S
N1439 C1442 1.390 . S
N1440 C1441 1.345 . S
N1440 C1443 1.336 . S
C1441 N1439 1.335 . S
C1441 N1440 1.345 . S
C1441 H1446 0.930 . S
C1442 N1439 1.390 . S
C1442 C1443 1.346 . S
C1442 H1447 0.930 . S
C1443 N1440 1.336 . S
C1443 C1442 1.346 . S
C1443 H1450 0.929 . S
C1444 O1434 1.282 . S
C1444 O1445 1.216 . S
O1445 C1444 1.216 . S
H1446 C1441 0.930 . S
H1447 C1442 0.930 . S
O1448 Cu1428 1.959 . S
O1448 C1435 1.251 . S
H1449 C1432 0.930 . S
H1450 C1443 0.929 . S
Cu1451 N1452 1.999 . S
Cu1451 O1457 1.974 . S
Cu1451 N1462 1.985 . S
Cu1451 O1471 1.959 . S
N1452 Cu1451 1.999 . S
N1452 C1454 1.263 . S
N1452 C1456 1.389 . S
N1453 C1454 1.358 . S
N1453 C1455 1.400 . S
C1454 N1452 1.263 . S
C1454 N1453 1.358 . S
C1454 H1460 0.930 . S
C1455 N1453 1.400 . S
C1455 C1456 1.351 . S
C1455 H1472 0.930 . S
C1456 N1452 1.389 . S
C1456 C1455 1.351 . S
C1456 H1461 0.930 . S
O1457 Cu1451 1.974 . S
O1457 C1467 1.282 . S
C1458 O1459 1.261 . S
C1458 O1471 1.251 . S
O1459 C1458 1.261 . S
H1460 C1454 0.930 . S
H1461 C1456 0.930 . S
N1462 Cu1451 1.985 . S
N1462 C1464 1.335 . S
N1462 C1465 1.390 . S
N1463 C1464 1.345 . S
N1463 C1466 1.336 . S
C1464 N1462 1.335 . S
C1464 N1463 1.345 . S
C1464 H1469 0.930 . S
C1465 N1462 1.390 . S
C1465 C1466 1.346 . S
C1465 H1470 0.930 . S
C1466 N1463 1.336 . S
C1466 C1465 1.346 . S
C1466 H1473 0.929 . S
C1467 O1457 1.282 . S
C1467 O1468 1.216 . S
O1468 C1467 1.216 . S
H1469 C1464 0.930 . S
H1470 C1465 0.930 . S
O1471 Cu1451 1.959 . S
O1471 C1458 1.251 . S
H1472 C1455 0.930 . S
H1473 C1466 0.929 . S
Cu1474 N1475 1.999 . S
Cu1474 O1480 1.974 . S
Cu1474 N1485 1.985 . S
Cu1474 O1494 1.959 . S
N1475 Cu1474 1.999 . S
N1475 C1477 1.263 . S
N1475 C1479 1.389 . S
N1476 C1477 1.358 . S
N1476 C1478 1.400 . S
C1477 N1475 1.263 . S
C1477 N1476 1.358 . S
C1477 H1483 0.930 . S
C1478 N1476 1.400 . S
C1478 C1479 1.351 . S
C1478 H1495 0.930 . S
C1479 N1475 1.389 . S
C1479 C1478 1.351 . S
C1479 H1484 0.930 . S
O1480 Cu1474 1.974 . S
O1480 C1490 1.282 . S
C1481 O1482 1.261 . S
C1481 O1494 1.251 . S
O1482 C1481 1.261 . S
H1483 C1477 0.930 . S
H1484 C1479 0.930 . S
N1485 Cu1474 1.985 . S
N1485 C1487 1.335 . S
N1485 C1488 1.390 . S
N1486 C1487 1.345 . S
N1486 C1489 1.336 . S
C1487 N1485 1.335 . S
C1487 N1486 1.345 . S
C1487 H1492 0.930 . S
C1488 N1485 1.390 . S
C1488 C1489 1.346 . S
C1488 H1493 0.930 . S
C1489 N1486 1.336 . S
C1489 C1488 1.346 . S
C1489 H1496 0.929 . S
C1490 O1480 1.282 . S
C1490 O1491 1.216 . S
O1491 C1490 1.216 . S
H1492 C1487 0.930 . S
H1493 C1488 0.930 . S
O1494 Cu1474 1.959 . S
O1494 C1481 1.251 . S
H1495 C1478 0.930 . S
H1496 C1489 0.929 . S
Cu1497 N1498 1.999 . S
Cu1497 O1503 1.974 . S
Cu1497 N1508 1.985 . S
Cu1497 O1517 1.959 . S
N1498 Cu1497 1.999 . S
N1498 C1500 1.263 . S
N1498 C1502 1.389 . S
N1499 C1500 1.358 . S
N1499 C1501 1.400 . S
C1500 N1498 1.263 . S
C1500 N1499 1.358 . S
C1500 H1506 0.930 . S
C1501 N1499 1.400 . S
C1501 C1502 1.351 . S
C1501 H1518 0.930 . S
C1502 N1498 1.389 . S
C1502 C1501 1.351 . S
C1502 H1507 0.930 . S
O1503 Cu1497 1.974 . S
O1503 C1513 1.282 . S
C1504 O1505 1.261 . S
C1504 O1517 1.251 . S
O1505 C1504 1.261 . S
H1506 C1500 0.930 . S
H1507 C1502 0.930 . S
N1508 Cu1497 1.985 . S
N1508 C1510 1.335 . S
N1508 C1511 1.390 . S
N1509 C1510 1.345 . S
N1509 C1512 1.336 . S
C1510 N1508 1.335 . S
C1510 N1509 1.345 . S
C1510 H1515 0.930 . S
C1511 N1508 1.390 . S
C1511 C1512 1.346 . S
C1511 H1516 0.930 . S
C1512 N1509 1.336 . S
C1512 C1511 1.346 . S
C1512 H1519 0.929 . S
C1513 O1503 1.282 . S
C1513 O1514 1.216 . S
O1514 C1513 1.216 . S
H1515 C1510 0.930 . S
H1516 C1511 0.930 . S
O1517 Cu1497 1.959 . S
O1517 C1504 1.251 . S
H1518 C1501 0.930 . S
H1519 C1512 0.929 . S
Cu1520 N1521 1.999 . S
Cu1520 O1526 1.974 . S
Cu1520 N1531 1.985 . S
Cu1520 O1540 1.959 . S
N1521 Cu1520 1.999 . S
N1521 C1523 1.263 . S
N1521 C1525 1.389 . S
N1522 C1523 1.358 . S
N1522 C1524 1.400 . S
C1523 N1521 1.263 . S
C1523 N1522 1.358 . S
C1523 H1529 0.930 . S
C1524 N1522 1.400 . S
C1524 C1525 1.351 . S
C1524 H1541 0.930 . S
C1525 N1521 1.389 . S
C1525 C1524 1.351 . S
C1525 H1530 0.930 . S
O1526 Cu1520 1.974 . S
O1526 C1536 1.282 . S
C1527 O1528 1.261 . S
C1527 O1540 1.251 . S
O1528 C1527 1.261 . S
H1529 C1523 0.930 . S
H1530 C1525 0.930 . S
N1531 Cu1520 1.985 . S
N1531 C1533 1.335 . S
N1531 C1534 1.390 . S
N1532 C1533 1.345 . S
N1532 C1535 1.336 . S
C1533 N1531 1.335 . S
C1533 N1532 1.345 . S
C1533 H1538 0.930 . S
C1534 N1531 1.390 . S
C1534 C1535 1.346 . S
C1534 H1539 0.930 . S
C1535 N1532 1.336 . S
C1535 C1534 1.346 . S
C1535 H1542 0.929 . S
C1536 O1526 1.282 . S
C1536 O1537 1.216 . S
O1537 C1536 1.216 . S
H1538 C1533 0.930 . S
H1539 C1534 0.930 . S
O1540 Cu1520 1.959 . S
O1540 C1527 1.251 . S
H1541 C1524 0.930 . S
H1542 C1535 0.929 . S
Cu1543 N1544 1.999 . S
Cu1543 O1549 1.974 . S
Cu1543 N1554 1.985 . S
Cu1543 O1563 1.959 . S
N1544 Cu1543 1.999 . S
N1544 C1546 1.263 . S
N1544 C1548 1.389 . S
N1545 C1546 1.358 . S
N1545 C1547 1.400 . S
C1546 N1544 1.263 . S
C1546 N1545 1.358 . S
C1546 H1552 0.930 . S
C1547 N1545 1.400 . S
C1547 C1548 1.351 . S
C1547 H1564 0.930 . S
C1548 N1544 1.389 . S
C1548 C1547 1.351 . S
C1548 H1553 0.930 . S
O1549 Cu1543 1.974 . S
O1549 C1559 1.282 . S
C1550 O1551 1.261 . S
C1550 O1563 1.251 . S
O1551 C1550 1.261 . S
H1552 C1546 0.930 . S
H1553 C1548 0.930 . S
N1554 Cu1543 1.985 . S
N1554 C1556 1.335 . S
N1554 C1557 1.390 . S
N1555 C1556 1.345 . S
N1555 C1558 1.336 . S
C1556 N1554 1.335 . S
C1556 N1555 1.345 . S
C1556 H1561 0.930 . S
C1557 N1554 1.390 . S
C1557 C1558 1.346 . S
C1557 H1562 0.930 . S
C1558 N1555 1.336 . S
C1558 C1557 1.346 . S
C1558 H1565 0.929 . S
C1559 O1549 1.282 . S
C1559 O1560 1.216 . S
O1560 C1559 1.216 . S
H1561 C1556 0.930 . S
H1562 C1557 0.930 . S
O1563 Cu1543 1.959 . S
O1563 C1550 1.251 . S
H1564 C1547 0.930 . S
H1565 C1558 0.929 . S
Cu1566 N1567 1.999 . S
Cu1566 O1572 1.974 . S
Cu1566 N1577 1.985 . S
Cu1566 O1586 1.959 . S
N1567 Cu1566 1.999 . S
N1567 C1569 1.263 . S
N1567 C1571 1.389 . S
N1568 C1569 1.358 . S
N1568 C1570 1.400 . S
C1569 N1567 1.263 . S
C1569 N1568 1.358 . S
C1569 H1575 0.930 . S
C1570 N1568 1.400 . S
C1570 C1571 1.351 . S
C1570 H1587 0.930 . S
C1571 N1567 1.389 . S
C1571 C1570 1.351 . S
C1571 H1576 0.930 . S
O1572 Cu1566 1.974 . S
O1572 C1582 1.282 . S
C1573 O1574 1.261 . S
C1573 O1586 1.251 . S
O1574 C1573 1.261 . S
H1575 C1569 0.930 . S
H1576 C1571 0.930 . S
N1577 Cu1566 1.985 . S
N1577 C1579 1.335 . S
N1577 C1580 1.390 . S
N1578 C1579 1.345 . S
N1578 C1581 1.336 . S
C1579 N1577 1.335 . S
C1579 N1578 1.345 . S
C1579 H1584 0.930 . S
C1580 N1577 1.390 . S
C1580 C1581 1.346 . S
C1580 H1585 0.930 . S
C1581 N1578 1.336 . S
C1581 C1580 1.346 . S
C1581 H1588 0.929 . S
C1582 O1572 1.282 . S
C1582 O1583 1.216 . S
O1583 C1582 1.216 . S
H1584 C1579 0.930 . S
H1585 C1580 0.930 . S
O1586 Cu1566 1.959 . S
O1586 C1573 1.251 . S
H1587 C1570 0.930 . S
H1588 C1581 0.929 . S
Cu1589 N1590 1.999 . S
Cu1589 O1595 1.974 . S
Cu1589 N1600 1.985 . S
Cu1589 O1609 1.959 . S
N1590 Cu1589 1.999 . S
N1590 C1592 1.263 . S
N1590 C1594 1.389 . S
N1591 C1592 1.358 . S
N1591 C1593 1.400 . S
C1592 N1590 1.263 . S
C1592 N1591 1.358 . S
C1592 H1598 0.930 . S
C1593 N1591 1.400 . S
C1593 C1594 1.351 . S
C1593 H1610 0.930 . S
C1594 N1590 1.389 . S
C1594 C1593 1.351 . S
C1594 H1599 0.930 . S
O1595 Cu1589 1.974 . S
O1595 C1605 1.282 . S
C1596 O1597 1.261 . S
C1596 O1609 1.251 . S
O1597 C1596 1.261 . S
H1598 C1592 0.930 . S
H1599 C1594 0.930 . S
N1600 Cu1589 1.985 . S
N1600 C1602 1.335 . S
N1600 C1603 1.390 . S
N1601 C1602 1.345 . S
N1601 C1604 1.336 . S
C1602 N1600 1.335 . S
C1602 N1601 1.345 . S
C1602 H1607 0.930 . S
C1603 N1600 1.390 . S
C1603 C1604 1.346 . S
C1603 H1608 0.930 . S
C1604 N1601 1.336 . S
C1604 C1603 1.346 . S
C1604 H1611 0.929 . S
C1605 O1595 1.282 . S
C1605 O1606 1.216 . S
O1606 C1605 1.216 . S
H1607 C1602 0.930 . S
H1608 C1603 0.930 . S
O1609 Cu1589 1.959 . S
O1609 C1596 1.251 . S
H1610 C1593 0.930 . S
H1611 C1604 0.929 . S
Cu1612 N1613 1.999 . S
Cu1612 O1618 1.974 . S
Cu1612 N1623 1.985 . S
Cu1612 O1632 1.959 . S
N1613 Cu1612 1.999 . S
N1613 C1615 1.263 . S
N1613 C1617 1.389 . S
N1614 C1615 1.358 . S
N1614 C1616 1.400 . S
C1615 N1613 1.263 . S
C1615 N1614 1.358 . S
C1615 H1621 0.930 . S
C1616 N1614 1.400 . S
C1616 C1617 1.351 . S
C1616 H1633 0.930 . S
C1617 N1613 1.389 . S
C1617 C1616 1.351 . S
C1617 H1622 0.930 . S
O1618 Cu1612 1.974 . S
O1618 C1628 1.282 . S
C1619 O1620 1.261 . S
C1619 O1632 1.251 . S
O1620 C1619 1.261 . S
H1621 C1615 0.930 . S
H1622 C1617 0.930 . S
N1623 Cu1612 1.985 . S
N1623 C1625 1.335 . S
N1623 C1626 1.390 . S
N1624 C1625 1.345 . S
N1624 C1627 1.336 . S
C1625 N1623 1.335 . S
C1625 N1624 1.345 . S
C1625 H1630 0.930 . S
C1626 N1623 1.390 . S
C1626 C1627 1.346 . S
C1626 H1631 0.930 . S
C1627 N1624 1.336 . S
C1627 C1626 1.346 . S
C1627 H1634 0.929 . S
C1628 O1618 1.282 . S
C1628 O1629 1.216 . S
O1629 C1628 1.216 . S
H1630 C1625 0.930 . S
H1631 C1626 0.930 . S
O1632 Cu1612 1.959 . S
O1632 C1619 1.251 . S
H1633 C1616 0.930 . S
H1634 C1627 0.929 . S
Cu1635 N1636 1.999 . S
Cu1635 O1641 1.974 . S
Cu1635 N1646 1.985 . S
Cu1635 O1655 1.959 . S
N1636 Cu1635 1.999 . S
N1636 C1638 1.263 . S
N1636 C1640 1.389 . S
N1637 C1638 1.358 . S
N1637 C1639 1.400 . S
C1638 N1636 1.263 . S
C1638 N1637 1.358 . S
C1638 H1644 0.930 . S
C1639 N1637 1.400 . S
C1639 C1640 1.351 . S
C1639 H1656 0.930 . S
C1640 N1636 1.389 . S
C1640 C1639 1.351 . S
C1640 H1645 0.930 . S
O1641 Cu1635 1.974 . S
O1641 C1651 1.282 . S
C1642 O1643 1.261 . S
C1642 O1655 1.251 . S
O1643 C1642 1.261 . S
H1644 C1638 0.930 . S
H1645 C1640 0.930 . S
N1646 Cu1635 1.985 . S
N1646 C1648 1.335 . S
N1646 C1649 1.390 . S
N1647 C1648 1.345 . S
N1647 C1650 1.336 . S
C1648 N1646 1.335 . S
C1648 N1647 1.345 . S
C1648 H1653 0.930 . S
C1649 N1646 1.390 . S
C1649 C1650 1.346 . S
C1649 H1654 0.930 . S
C1650 N1647 1.336 . S
C1650 C1649 1.346 . S
C1650 H1657 0.929 . S
C1651 O1641 1.282 . S
C1651 O1652 1.216 . S
O1652 C1651 1.216 . S
H1653 C1648 0.930 . S
H1654 C1649 0.930 . S
O1655 Cu1635 1.959 . S
O1655 C1642 1.251 . S
H1656 C1639 0.930 . S
H1657 C1650 0.929 . S
Cu1658 N1659 1.999 . S
Cu1658 O1664 1.974 . S
Cu1658 N1669 1.985 . S
Cu1658 O1678 1.959 . S
N1659 Cu1658 1.999 . S
N1659 C1661 1.263 . S
N1659 C1663 1.389 . S
N1660 C1661 1.358 . S
N1660 C1662 1.400 . S
C1661 N1659 1.263 . S
C1661 N1660 1.358 . S
C1661 H1667 0.930 . S
C1662 N1660 1.400 . S
C1662 C1663 1.351 . S
C1662 H1679 0.930 . S
C1663 N1659 1.389 . S
C1663 C1662 1.351 . S
C1663 H1668 0.930 . S
O1664 Cu1658 1.974 . S
O1664 C1674 1.282 . S
C1665 O1666 1.261 . S
C1665 O1678 1.251 . S
O1666 C1665 1.261 . S
H1667 C1661 0.930 . S
H1668 C1663 0.930 . S
N1669 Cu1658 1.985 . S
N1669 C1671 1.335 . S
N1669 C1672 1.390 . S
N1670 C1671 1.345 . S
N1670 C1673 1.336 . S
C1671 N1669 1.335 . S
C1671 N1670 1.345 . S
C1671 H1676 0.930 . S
C1672 N1669 1.390 . S
C1672 C1673 1.346 . S
C1672 H1677 0.930 . S
C1673 N1670 1.336 . S
C1673 C1672 1.346 . S
C1673 H1680 0.929 . S
C1674 O1664 1.282 . S
C1674 O1675 1.216 . S
O1675 C1674 1.216 . S
H1676 C1671 0.930 . S
H1677 C1672 0.930 . S
O1678 Cu1658 1.959 . S
O1678 C1665 1.251 . S
H1679 C1662 0.930 . S
H1680 C1673 0.929 . S
Cu1681 N1682 1.999 . S
Cu1681 O1687 1.974 . S
Cu1681 N1692 1.985 . S
Cu1681 O1701 1.959 . S
N1682 Cu1681 1.999 . S
N1682 C1684 1.263 . S
N1682 C1686 1.389 . S
N1683 C1684 1.358 . S
N1683 C1685 1.400 . S
C1684 N1682 1.263 . S
C1684 N1683 1.358 . S
C1684 H1690 0.930 . S
C1685 N1683 1.400 . S
C1685 C1686 1.351 . S
C1685 H1702 0.930 . S
C1686 N1682 1.389 . S
C1686 C1685 1.351 . S
C1686 H1691 0.930 . S
O1687 Cu1681 1.974 . S
O1687 C1697 1.282 . S
C1688 O1689 1.261 . S
C1688 O1701 1.251 . S
O1689 C1688 1.261 . S
H1690 C1684 0.930 . S
H1691 C1686 0.930 . S
N1692 Cu1681 1.985 . S
N1692 C1694 1.335 . S
N1692 C1695 1.390 . S
N1693 C1694 1.345 . S
N1693 C1696 1.336 . S
C1694 N1692 1.335 . S
C1694 N1693 1.345 . S
C1694 H1699 0.930 . S
C1695 N1692 1.390 . S
C1695 C1696 1.346 . S
C1695 H1700 0.930 . S
C1696 N1693 1.336 . S
C1696 C1695 1.346 . S
C1696 H1703 0.929 . S
C1697 O1687 1.282 . S
C1697 O1698 1.216 . S
O1698 C1697 1.216 . S
H1699 C1694 0.930 . S
H1700 C1695 0.930 . S
O1701 Cu1681 1.959 . S
O1701 C1688 1.251 . S
H1702 C1685 0.930 . S
H1703 C1696 0.929 . S
H1704 C1710 0.930 . S
H1705 C1714 0.930 . S
H1706 C1719 0.929 . S
H1707 C1717 0.929 . S
H1708 C1712 0.929 . S
H1709 C1718 0.929 . S
C1710 H1704 0.930 . S
C1710 C1711 1.367 . S
C1710 C1718 1.378 . S
C1711 C1710 1.367 . S
C1711 C1719 1.433 . S
C1712 H1708 0.929 . S
C1712 C1714 1.378 . S
C1712 C1716 1.350 . S
C1713 C1716 1.463 . S
C1713 C1718 1.350 . S
C1713 N1721 1.427 . S
C1714 H1705 0.930 . S
C1714 C1712 1.378 . S
C1714 C1715 1.367 . S
C1715 C1714 1.367 . S
C1715 C1717 1.433 . S
C1716 C1712 1.350 . S
C1716 C1713 1.463 . S
C1716 N1720 1.427 . S
C1717 H1707 0.929 . S
C1717 C1715 1.433 . S
C1717 N1720 1.384 . S
C1718 H1709 0.929 . S
C1718 C1710 1.378 . S
C1718 C1713 1.350 . S
C1719 H1706 0.929 . S
C1719 C1711 1.433 . S
C1719 N1721 1.384 . S
N1720 C1716 1.427 . S
N1720 C1717 1.384 . S
N1721 C1713 1.427 . S
N1721 C1719 1.384 . S
H1722 C1728 0.930 . S
H1723 C1732 0.930 . S
H1724 C1737 0.929 . S
H1725 C1735 0.929 . S
H1726 C1730 0.929 . S
H1727 C1736 0.929 . S
C1728 H1722 0.930 . S
C1728 C1729 1.367 . S
C1728 C1736 1.378 . S
C1729 C1728 1.367 . S
C1729 C1737 1.433 . S
C1730 H1726 0.929 . S
C1730 C1732 1.378 . S
C1730 C1734 1.350 . S
C1731 C1734 1.463 . S
C1731 C1736 1.350 . S
C1731 N1739 1.427 . S
C1732 H1723 0.930 . S
C1732 C1730 1.378 . S
C1732 C1733 1.367 . S
C1733 C1732 1.367 . S
C1733 C1735 1.433 . S
C1734 C1730 1.350 . S
C1734 C1731 1.463 . S
C1734 N1738 1.427 . S
C1735 H1725 0.929 . S
C1735 C1733 1.433 . S
C1735 N1738 1.384 . S
C1736 H1727 0.929 . S
C1736 C1728 1.378 . S
C1736 C1731 1.350 . S
C1737 H1724 0.929 . S
C1737 C1729 1.433 . S
C1737 N1739 1.384 . S
N1738 C1734 1.427 . S
N1738 C1735 1.384 . S
N1739 C1731 1.427 . S
N1739 C1737 1.384 . S
H1740 C1746 0.930 . S
H1741 C1750 0.930 . S
H1742 C1755 0.929 . S
H1743 C1753 0.929 . S
H1744 C1748 0.929 . S
H1745 C1754 0.929 . S
C1746 H1740 0.930 . S
C1746 C1747 1.367 . S
C1746 C1754 1.378 . S
C1747 C1746 1.367 . S
C1747 C1755 1.433 . S
C1748 H1744 0.929 . S
C1748 C1750 1.378 . S
C1748 C1752 1.350 . S
C1749 C1752 1.463 . S
C1749 C1754 1.350 . S
C1749 N1757 1.427 . S
C1750 H1741 0.930 . S
C1750 C1748 1.378 . S
C1750 C1751 1.367 . S
C1751 C1750 1.367 . S
C1751 C1753 1.433 . S
C1752 C1748 1.350 . S
C1752 C1749 1.463 . S
C1752 N1756 1.427 . S
C1753 H1743 0.929 . S
C1753 C1751 1.433 . S
C1753 N1756 1.384 . S
C1754 H1745 0.929 . S
C1754 C1746 1.378 . S
C1754 C1749 1.350 . S
C1755 H1742 0.929 . S
C1755 C1747 1.433 . S
C1755 N1757 1.384 . S
N1756 C1752 1.427 . S
N1756 C1753 1.384 . S
N1757 C1749 1.427 . S
N1757 C1755 1.384 . S
H1758 C1764 0.930 . S
H1759 C1768 0.930 . S
H1760 C1773 0.929 . S
H1761 C1771 0.929 . S
H1762 C1766 0.929 . S
H1763 C1772 0.929 . S
C1764 H1758 0.930 . S
C1764 C1765 1.367 . S
C1764 C1772 1.378 . S
C1765 C1764 1.367 . S
C1765 C1773 1.433 . S
C1766 H1762 0.929 . S
C1766 C1768 1.378 . S
C1766 C1770 1.350 . S
C1767 C1770 1.463 . S
C1767 C1772 1.350 . S
C1767 N1775 1.427 . S
C1768 H1759 0.930 . S
C1768 C1766 1.378 . S
C1768 C1769 1.367 . S
C1769 C1768 1.367 . S
C1769 C1771 1.433 . S
C1770 C1766 1.350 . S
C1770 C1767 1.463 . S
C1770 N1774 1.427 . S
C1771 H1761 0.929 . S
C1771 C1769 1.433 . S
C1771 N1774 1.384 . S
C1772 H1763 0.929 . S
C1772 C1764 1.378 . S
C1772 C1767 1.350 . S
C1773 H1760 0.929 . S
C1773 C1765 1.433 . S
C1773 N1775 1.384 . S
N1774 C1770 1.427 . S
N1774 C1771 1.384 . S
N1775 C1767 1.427 . S
N1775 C1773 1.384 . S
H1776 C1782 0.930 . S
H1777 C1786 0.930 . S
H1778 C1791 0.929 . S
H1779 C1789 0.929 . S
H1780 C1784 0.929 . S
H1781 C1790 0.929 . S
C1782 H1776 0.930 . S
C1782 C1783 1.367 . S
C1782 C1790 1.378 . S
C1783 C1782 1.367 . S
C1783 C1791 1.433 . S
C1784 H1780 0.929 . S
C1784 C1786 1.378 . S
C1784 C1788 1.350 . S
C1785 C1788 1.463 . S
C1785 C1790 1.350 . S
C1785 N1793 1.427 . S
C1786 H1777 0.930 . S
C1786 C1784 1.378 . S
C1786 C1787 1.367 . S
C1787 C1786 1.367 . S
C1787 C1789 1.433 . S
C1788 C1784 1.350 . S
C1788 C1785 1.463 . S
C1788 N1792 1.427 . S
C1789 H1779 0.929 . S
C1789 C1787 1.433 . S
C1789 N1792 1.384 . S
C1790 H1781 0.929 . S
C1790 C1782 1.378 . S
C1790 C1785 1.350 . S
C1791 H1778 0.929 . S
C1791 C1783 1.433 . S
C1791 N1793 1.384 . S
N1792 C1788 1.427 . S
N1792 C1789 1.384 . S
N1793 C1785 1.427 . S
N1793 C1791 1.384 . S
H1794 C1800 0.930 . S
H1795 C1804 0.930 . S
H1796 C1809 0.929 . S
H1797 C1807 0.929 . S
H1798 C1802 0.929 . S
H1799 C1808 0.929 . S
C1800 H1794 0.930 . S
C1800 C1801 1.367 . S
C1800 C1808 1.378 . S
C1801 C1800 1.367 . S
C1801 C1809 1.433 . S
C1802 H1798 0.929 . S
C1802 C1804 1.378 . S
C1802 C1806 1.350 . S
C1803 C1806 1.463 . S
C1803 C1808 1.350 . S
C1803 N1811 1.427 . S
C1804 H1795 0.930 . S
C1804 C1802 1.378 . S
C1804 C1805 1.367 . S
C1805 C1804 1.367 . S
C1805 C1807 1.433 . S
C1806 C1802 1.350 . S
C1806 C1803 1.463 . S
C1806 N1810 1.427 . S
C1807 H1797 0.929 . S
C1807 C1805 1.433 . S
C1807 N1810 1.384 . S
C1808 H1799 0.929 . S
C1808 C1800 1.378 . S
C1808 C1803 1.350 . S
C1809 H1796 0.929 . S
C1809 C1801 1.433 . S
C1809 N1811 1.384 . S
N1810 C1806 1.427 . S
N1810 C1807 1.384 . S
N1811 C1803 1.427 . S
N1811 C1809 1.384 . S
H1812 C1818 0.930 . S
H1813 C1822 0.930 . S
H1814 C1827 0.929 . S
H1815 C1825 0.929 . S
H1816 C1820 0.929 . S
H1817 C1826 0.929 . S
C1818 H1812 0.930 . S
C1818 C1819 1.367 . S
C1818 C1826 1.378 . S
C1819 C1818 1.367 . S
C1819 C1827 1.433 . S
C1820 H1816 0.929 . S
C1820 C1822 1.378 . S
C1820 C1824 1.350 . S
C1821 C1824 1.463 . S
C1821 C1826 1.350 . S
C1821 N1829 1.427 . S
C1822 H1813 0.930 . S
C1822 C1820 1.378 . S
C1822 C1823 1.367 . S
C1823 C1822 1.367 . S
C1823 C1825 1.433 . S
C1824 C1820 1.350 . S
C1824 C1821 1.463 . S
C1824 N1828 1.427 . S
C1825 H1815 0.929 . S
C1825 C1823 1.433 . S
C1825 N1828 1.384 . S
C1826 H1817 0.929 . S
C1826 C1818 1.378 . S
C1826 C1821 1.350 . S
C1827 H1814 0.929 . S
C1827 C1819 1.433 . S
C1827 N1829 1.384 . S
N1828 C1824 1.427 . S
N1828 C1825 1.384 . S
N1829 C1821 1.427 . S
N1829 C1827 1.384 . S
H1830 C1836 0.930 . S
H1831 C1840 0.930 . S
H1832 C1845 0.929 . S
H1833 C1843 0.929 . S
H1834 C1838 0.929 . S
H1835 C1844 0.929 . S
C1836 H1830 0.930 . S
C1836 C1837 1.367 . S
C1836 C1844 1.378 . S
C1837 C1836 1.367 . S
C1837 C1845 1.433 . S
C1838 H1834 0.929 . S
C1838 C1840 1.378 . S
C1838 C1842 1.350 . S
C1839 C1842 1.463 . S
C1839 C1844 1.350 . S
C1839 N1847 1.427 . S
C1840 H1831 0.930 . S
C1840 C1838 1.378 . S
C1840 C1841 1.367 . S
C1841 C1840 1.367 . S
C1841 C1843 1.433 . S
C1842 C1838 1.350 . S
C1842 C1839 1.463 . S
C1842 N1846 1.427 . S
C1843 H1833 0.929 . S
C1843 C1841 1.433 . S
C1843 N1846 1.384 . S
C1844 H1835 0.929 . S
C1844 C1836 1.378 . S
C1844 C1839 1.350 . S
C1845 H1832 0.929 . S
C1845 C1837 1.433 . S
C1845 N1847 1.384 . S
N1846 C1842 1.427 . S
N1846 C1843 1.384 . S
N1847 C1839 1.427 . S
N1847 C1845 1.384 . S
H1848 C1854 0.930 . S
H1849 C1858 0.930 . S
H1850 C1863 0.929 . S
H1851 C1861 0.929 . S
H1852 C1856 0.929 . S
H1853 C1862 0.929 . S
C1854 H1848 0.930 . S
C1854 C1855 1.367 . S
C1854 C1862 1.378 . S
C1855 C1854 1.367 . S
C1855 C1863 1.433 . S
C1856 H1852 0.929 . S
C1856 C1858 1.378 . S
C1856 C1860 1.350 . S
C1857 C1860 1.463 . S
C1857 C1862 1.350 . S
C1857 N1865 1.427 . S
C1858 H1849 0.930 . S
C1858 C1856 1.378 . S
C1858 C1859 1.367 . S
C1859 C1858 1.367 . S
C1859 C1861 1.433 . S
C1860 C1856 1.350 . S
C1860 C1857 1.463 . S
C1860 N1864 1.427 . S
C1861 H1851 0.929 . S
C1861 C1859 1.433 . S
C1861 N1864 1.384 . S
C1862 H1853 0.929 . S
C1862 C1854 1.378 . S
C1862 C1857 1.350 . S
C1863 H1850 0.929 . S
C1863 C1855 1.433 . S
C1863 N1865 1.384 . S
N1864 C1860 1.427 . S
N1864 C1861 1.384 . S
N1865 C1857 1.427 . S
N1865 C1863 1.384 . S
H1866 C1872 0.930 . S
H1867 C1876 0.930 . S
H1868 C1881 0.929 . S
H1869 C1879 0.929 . S
H1870 C1874 0.929 . S
H1871 C1880 0.929 . S
C1872 H1866 0.930 . S
C1872 C1873 1.367 . S
C1872 C1880 1.378 . S
C1873 C1872 1.367 . S
C1873 C1881 1.433 . S
C1874 H1870 0.929 . S
C1874 C1876 1.378 . S
C1874 C1878 1.350 . S
C1875 C1878 1.463 . S
C1875 C1880 1.350 . S
C1875 N1883 1.427 . S
C1876 H1867 0.930 . S
C1876 C1874 1.378 . S
C1876 C1877 1.367 . S
C1877 C1876 1.367 . S
C1877 C1879 1.433 . S
C1878 C1874 1.350 . S
C1878 C1875 1.463 . S
C1878 N1882 1.427 . S
C1879 H1869 0.929 . S
C1879 C1877 1.433 . S
C1879 N1882 1.384 . S
C1880 H1871 0.929 . S
C1880 C1872 1.378 . S
C1880 C1875 1.350 . S
C1881 H1868 0.929 . S
C1881 C1873 1.433 . S
C1881 N1883 1.384 . S
N1882 C1878 1.427 . S
N1882 C1879 1.384 . S
N1883 C1875 1.427 . S
N1883 C1881 1.384 . S
H1884 C1890 0.930 . S
H1885 C1894 0.930 . S
H1886 C1899 0.929 . S
H1887 C1897 0.929 . S
H1888 C1892 0.929 . S
H1889 C1898 0.929 . S
C1890 H1884 0.930 . S
C1890 C1891 1.367 . S
C1890 C1898 1.378 . S
C1891 C1890 1.367 . S
C1891 C1899 1.433 . S
C1892 H1888 0.929 . S
C1892 C1894 1.378 . S
C1892 C1896 1.350 . S
C1893 C1896 1.463 . S
C1893 C1898 1.350 . S
C1893 N1901 1.427 . S
C1894 H1885 0.930 . S
C1894 C1892 1.378 . S
C1894 C1895 1.367 . S
C1895 C1894 1.367 . S
C1895 C1897 1.433 . S
C1896 C1892 1.350 . S
C1896 C1893 1.463 . S
C1896 N1900 1.427 . S
C1897 H1887 0.929 . S
C1897 C1895 1.433 . S
C1897 N1900 1.384 . S
C1898 H1889 0.929 . S
C1898 C1890 1.378 . S
C1898 C1893 1.350 . S
C1899 H1886 0.929 . S
C1899 C1891 1.433 . S
C1899 N1901 1.384 . S
N1900 C1896 1.427 . S
N1900 C1897 1.384 . S
N1901 C1893 1.427 . S
N1901 C1899 1.384 . S
H1902 C1908 0.930 . S
H1903 C1912 0.930 . S
H1904 C1917 0.929 . S
H1905 C1915 0.929 . S
H1906 C1910 0.929 . S
H1907 C1916 0.929 . S
C1908 H1902 0.930 . S
C1908 C1909 1.367 . S
C1908 C1916 1.378 . S
C1909 C1908 1.367 . S
C1909 C1917 1.433 . S
C1910 H1906 0.929 . S
C1910 C1912 1.378 . S
C1910 C1914 1.350 . S
C1911 C1914 1.463 . S
C1911 C1916 1.350 . S
C1911 N1919 1.427 . S
C1912 H1903 0.930 . S
C1912 C1910 1.378 . S
C1912 C1913 1.367 . S
C1913 C1912 1.367 . S
C1913 C1915 1.433 . S
C1914 C1910 1.350 . S
C1914 C1911 1.463 . S
C1914 N1918 1.427 . S
C1915 H1905 0.929 . S
C1915 C1913 1.433 . S
C1915 N1918 1.384 . S
C1916 H1907 0.929 . S
C1916 C1908 1.378 . S
C1916 C1911 1.350 . S
C1917 H1904 0.929 . S
C1917 C1909 1.433 . S
C1917 N1919 1.384 . S
N1918 C1914 1.427 . S
N1918 C1915 1.384 . S
N1919 C1911 1.427 . S
N1919 C1917 1.384 . S
H1920 C1926 0.930 . S
H1921 C1930 0.930 . S
H1922 C1935 0.929 . S
H1923 C1933 0.929 . S
H1924 C1928 0.929 . S
H1925 C1934 0.929 . S
C1926 H1920 0.930 . S
C1926 C1927 1.367 . S
C1926 C1934 1.378 . S
C1927 C1926 1.367 . S
C1927 C1935 1.433 . S
C1928 H1924 0.929 . S
C1928 C1930 1.378 . S
C1928 C1932 1.350 . S
C1929 C1932 1.463 . S
C1929 C1934 1.350 . S
C1929 N1937 1.427 . S
C1930 H1921 0.930 . S
C1930 C1928 1.378 . S
C1930 C1931 1.367 . S
C1931 C1930 1.367 . S
C1931 C1933 1.433 . S
C1932 C1928 1.350 . S
C1932 C1929 1.463 . S
C1932 N1936 1.427 . S
C1933 H1923 0.929 . S
C1933 C1931 1.433 . S
C1933 N1936 1.384 . S
C1934 H1925 0.929 . S
C1934 C1926 1.378 . S
C1934 C1929 1.350 . S
C1935 H1922 0.929 . S
C1935 C1927 1.433 . S
C1935 N1937 1.384 . S
N1936 C1932 1.427 . S
N1936 C1933 1.384 . S
N1937 C1929 1.427 . S
N1937 C1935 1.384 . S
H1938 C1944 0.930 . S
H1939 C1948 0.930 . S
H1940 C1953 0.929 . S
H1941 C1951 0.929 . S
H1942 C1946 0.929 . S
H1943 C1952 0.929 . S
C1944 H1938 0.930 . S
C1944 C1945 1.367 . S
C1944 C1952 1.378 . S
C1945 C1944 1.367 . S
C1945 C1953 1.433 . S
C1946 H1942 0.929 . S
C1946 C1948 1.378 . S
C1946 C1950 1.350 . S
C1947 C1950 1.463 . S
C1947 C1952 1.350 . S
C1947 N1955 1.427 . S
C1948 H1939 0.930 . S
C1948 C1946 1.378 . S
C1948 C1949 1.367 . S
C1949 C1948 1.367 . S
C1949 C1951 1.433 . S
C1950 C1946 1.350 . S
C1950 C1947 1.463 . S
C1950 N1954 1.427 . S
C1951 H1941 0.929 . S
C1951 C1949 1.433 . S
C1951 N1954 1.384 . S
C1952 H1943 0.929 . S
C1952 C1944 1.378 . S
C1952 C1947 1.350 . S
C1953 H1940 0.929 . S
C1953 C1945 1.433 . S
C1953 N1955 1.384 . S
N1954 C1950 1.427 . S
N1954 C1951 1.384 . S
N1955 C1947 1.427 . S
N1955 C1953 1.384 . S
H1956 C1962 0.930 . S
H1957 C1966 0.930 . S
H1958 C1971 0.929 . S
H1959 C1969 0.929 . S
H1960 C1964 0.929 . S
H1961 C1970 0.929 . S
C1962 H1956 0.930 . S
C1962 C1963 1.367 . S
C1962 C1970 1.378 . S
C1963 C1962 1.367 . S
C1963 C1971 1.433 . S
C1964 H1960 0.929 . S
C1964 C1966 1.378 . S
C1964 C1968 1.350 . S
C1965 C1968 1.463 . S
C1965 C1970 1.350 . S
C1965 N1973 1.427 . S
C1966 H1957 0.930 . S
C1966 C1964 1.378 . S
C1966 C1967 1.367 . S
C1967 C1966 1.367 . S
C1967 C1969 1.433 . S
C1968 C1964 1.350 . S
C1968 C1965 1.463 . S
C1968 N1972 1.427 . S
C1969 H1959 0.929 . S
C1969 C1967 1.433 . S
C1969 N1972 1.384 . S
C1970 H1961 0.929 . S
C1970 C1962 1.378 . S
C1970 C1965 1.350 . S
C1971 H1958 0.929 . S
C1971 C1963 1.433 . S
C1971 N1973 1.384 . S
N1972 C1968 1.427 . S
N1972 C1969 1.384 . S
N1973 C1965 1.427 . S
N1973 C1971 1.384 . S
H1974 C1980 0.930 . S
H1975 C1984 0.930 . S
H1976 C1989 0.929 . S
H1977 C1987 0.929 . S
H1978 C1982 0.929 . S
H1979 C1988 0.929 . S
C1980 H1974 0.930 . S
C1980 C1981 1.367 . S
C1980 C1988 1.378 . S
C1981 C1980 1.367 . S
C1981 C1989 1.433 . S
C1982 H1978 0.929 . S
C1982 C1984 1.378 . S
C1982 C1986 1.350 . S
C1983 C1986 1.463 . S
C1983 C1988 1.350 . S
C1983 N1991 1.427 . S
C1984 H1975 0.930 . S
C1984 C1982 1.378 . S
C1984 C1985 1.367 . S
C1985 C1984 1.367 . S
C1985 C1987 1.433 . S
C1986 C1982 1.350 . S
C1986 C1983 1.463 . S
C1986 N1990 1.427 . S
C1987 H1977 0.929 . S
C1987 C1985 1.433 . S
C1987 N1990 1.384 . S
C1988 H1979 0.929 . S
C1988 C1980 1.378 . S
C1988 C1983 1.350 . S
C1989 H1976 0.929 . S
C1989 C1981 1.433 . S
C1989 N1991 1.384 . S
N1990 C1986 1.427 . S
N1990 C1987 1.384 . S
N1991 C1983 1.427 . S
N1991 C1989 1.384 . S
H1992 C1998 0.930 . S
H1993 C2002 0.930 . S
H1994 C2007 0.929 . S
H1995 C2005 0.929 . S
H1996 C2000 0.929 . S
H1997 C2006 0.929 . S
C1998 H1992 0.930 . S
C1998 C1999 1.367 . S
C1998 C2006 1.378 . S
C1999 C1998 1.367 . S
C1999 C2007 1.433 . S
C2000 H1996 0.929 . S
C2000 C2002 1.378 . S
C2000 C2004 1.350 . S
C2001 C2004 1.463 . S
C2001 C2006 1.350 . S
C2001 N2009 1.427 . S
C2002 H1993 0.930 . S
C2002 C2000 1.378 . S
C2002 C2003 1.367 . S
C2003 C2002 1.367 . S
C2003 C2005 1.433 . S
C2004 C2000 1.350 . S
C2004 C2001 1.463 . S
C2004 N2008 1.427 . S
C2005 H1995 0.929 . S
C2005 C2003 1.433 . S
C2005 N2008 1.384 . S
C2006 H1997 0.929 . S
C2006 C1998 1.378 . S
C2006 C2001 1.350 . S
C2007 H1994 0.929 . S
C2007 C1999 1.433 . S
C2007 N2009 1.384 . S
N2008 C2004 1.427 . S
N2008 C2005 1.384 . S
N2009 C2001 1.427 . S
N2009 C2007 1.384 . S
H2010 C2016 0.930 . S
H2011 C2020 0.930 . S
H2012 C2025 0.929 . S
H2013 C2023 0.929 . S
H2014 C2018 0.929 . S
H2015 C2024 0.929 . S
C2016 H2010 0.930 . S
C2016 C2017 1.367 . S
C2016 C2024 1.378 . S
C2017 C2016 1.367 . S
C2017 C2025 1.433 . S
C2018 H2014 0.929 . S
C2018 C2020 1.378 . S
C2018 C2022 1.350 . S
C2019 C2022 1.463 . S
C2019 C2024 1.350 . S
C2019 N2027 1.427 . S
C2020 H2011 0.930 . S
C2020 C2018 1.378 . S
C2020 C2021 1.367 . S
C2021 C2020 1.367 . S
C2021 C2023 1.433 . S
C2022 C2018 1.350 . S
C2022 C2019 1.463 . S
C2022 N2026 1.427 . S
C2023 H2013 0.929 . S
C2023 C2021 1.433 . S
C2023 N2026 1.384 . S
C2024 H2015 0.929 . S
C2024 C2016 1.378 . S
C2024 C2019 1.350 . S
C2025 H2012 0.929 . S
C2025 C2017 1.433 . S
C2025 N2027 1.384 . S
N2026 C2022 1.427 . S
N2026 C2023 1.384 . S
N2027 C2019 1.427 . S
N2027 C2025 1.384 . S
H2028 C2034 0.930 . S
H2029 C2038 0.930 . S
H2030 C2043 0.929 . S
H2031 C2041 0.929 . S
H2032 C2036 0.929 . S
H2033 C2042 0.929 . S
C2034 H2028 0.930 . S
C2034 C2035 1.367 . S
C2034 C2042 1.378 . S
C2035 C2034 1.367 . S
C2035 C2043 1.433 . S
C2036 H2032 0.929 . S
C2036 C2038 1.378 . S
C2036 C2040 1.350 . S
C2037 C2040 1.463 . S
C2037 C2042 1.350 . S
C2037 N2045 1.427 . S
C2038 H2029 0.930 . S
C2038 C2036 1.378 . S
C2038 C2039 1.367 . S
C2039 C2038 1.367 . S
C2039 C2041 1.433 . S
C2040 C2036 1.350 . S
C2040 C2037 1.463 . S
C2040 N2044 1.427 . S
C2041 H2031 0.929 . S
C2041 C2039 1.433 . S
C2041 N2044 1.384 . S
C2042 H2033 0.929 . S
C2042 C2034 1.378 . S
C2042 C2037 1.350 . S
C2043 H2030 0.929 . S
C2043 C2035 1.433 . S
C2043 N2045 1.384 . S
N2044 C2040 1.427 . S
N2044 C2041 1.384 . S
N2045 C2037 1.427 . S
N2045 C2043 1.384 . S
H2046 C2052 0.930 . S
H2047 C2056 0.930 . S
H2048 C2061 0.929 . S
H2049 C2059 0.929 . S
H2050 C2054 0.929 . S
H2051 C2060 0.929 . S
C2052 H2046 0.930 . S
C2052 C2053 1.367 . S
C2052 C2060 1.378 . S
C2053 C2052 1.367 . S
C2053 C2061 1.433 . S
C2054 H2050 0.929 . S
C2054 C2056 1.378 . S
C2054 C2058 1.350 . S
C2055 C2058 1.463 . S
C2055 C2060 1.350 . S
C2055 N2063 1.427 . S
C2056 H2047 0.930 . S
C2056 C2054 1.378 . S
C2056 C2057 1.367 . S
C2057 C2056 1.367 . S
C2057 C2059 1.433 . S
C2058 C2054 1.350 . S
C2058 C2055 1.463 . S
C2058 N2062 1.427 . S
C2059 H2049 0.929 . S
C2059 C2057 1.433 . S
C2059 N2062 1.384 . S
C2060 H2051 0.929 . S
C2060 C2052 1.378 . S
C2060 C2055 1.350 . S
C2061 H2048 0.929 . S
C2061 C2053 1.433 . S
C2061 N2063 1.384 . S
N2062 C2058 1.427 . S
N2062 C2059 1.384 . S
N2063 C2055 1.427 . S
N2063 C2061 1.384 . S
H2064 C2070 0.930 . S
H2065 C2074 0.930 . S
H2066 C2079 0.929 . S
H2067 C2077 0.929 . S
H2068 C2072 0.929 . S
H2069 C2078 0.929 . S
C2070 H2064 0.930 . S
C2070 C2071 1.367 . S
C2070 C2078 1.378 . S
C2071 C2070 1.367 . S
C2071 C2079 1.433 . S
C2072 H2068 0.929 . S
C2072 C2074 1.378 . S
C2072 C2076 1.350 . S
C2073 C2076 1.463 . S
C2073 C2078 1.350 . S
C2073 N2081 1.427 . S
C2074 H2065 0.930 . S
C2074 C2072 1.378 . S
C2074 C2075 1.367 . S
C2075 C2074 1.367 . S
C2075 C2077 1.433 . S
C2076 C2072 1.350 . S
C2076 C2073 1.463 . S
C2076 N2080 1.427 . S
C2077 H2067 0.929 . S
C2077 C2075 1.433 . S
C2077 N2080 1.384 . S
C2078 H2069 0.929 . S
C2078 C2070 1.378 . S
C2078 C2073 1.350 . S
C2079 H2066 0.929 . S
C2079 C2071 1.433 . S
C2079 N2081 1.384 . S
N2080 C2076 1.427 . S
N2080 C2077 1.384 . S
N2081 C2073 1.427 . S
N2081 C2079 1.384 . S
H2082 C2088 0.930 . S
H2083 C2092 0.930 . S
H2084 C2097 0.929 . S
H2085 C2095 0.929 . S
H2086 C2090 0.929 . S
H2087 C2096 0.929 . S
C2088 H2082 0.930 . S
C2088 C2089 1.367 . S
C2088 C2096 1.378 . S
C2089 C2088 1.367 . S
C2089 C2097 1.433 . S
C2090 H2086 0.929 . S
C2090 C2092 1.378 . S
C2090 C2094 1.350 . S
C2091 C2094 1.463 . S
C2091 C2096 1.350 . S
C2091 N2099 1.427 . S
C2092 H2083 0.930 . S
C2092 C2090 1.378 . S
C2092 C2093 1.367 . S
C2093 C2092 1.367 . S
C2093 C2095 1.433 . S
C2094 C2090 1.350 . S
C2094 C2091 1.463 . S
C2094 N2098 1.427 . S
C2095 H2085 0.929 . S
C2095 C2093 1.433 . S
C2095 N2098 1.384 . S
C2096 H2087 0.929 . S
C2096 C2088 1.378 . S
C2096 C2091 1.350 . S
C2097 H2084 0.929 . S
C2097 C2089 1.433 . S
C2097 N2099 1.384 . S
N2098 C2094 1.427 . S
N2098 C2095 1.384 . S
N2099 C2091 1.427 . S
N2099 C2097 1.384 . S
H2100 C2106 0.930 . S
H2101 C2110 0.930 . S
H2102 C2115 0.929 . S
H2103 C2113 0.929 . S
H2104 C2108 0.929 . S
H2105 C2114 0.929 . S
C2106 H2100 0.930 . S
C2106 C2107 1.367 . S
C2106 C2114 1.378 . S
C2107 C2106 1.367 . S
C2107 C2115 1.433 . S
C2108 H2104 0.929 . S
C2108 C2110 1.378 . S
C2108 C2112 1.350 . S
C2109 C2112 1.463 . S
C2109 C2114 1.350 . S
C2109 N2117 1.427 . S
C2110 H2101 0.930 . S
C2110 C2108 1.378 . S
C2110 C2111 1.367 . S
C2111 C2110 1.367 . S
C2111 C2113 1.433 . S
C2112 C2108 1.350 . S
C2112 C2109 1.463 . S
C2112 N2116 1.427 . S
C2113 H2103 0.929 . S
C2113 C2111 1.433 . S
C2113 N2116 1.384 . S
C2114 H2105 0.929 . S
C2114 C2106 1.378 . S
C2114 C2109 1.350 . S
C2115 H2102 0.929 . S
C2115 C2107 1.433 . S
C2115 N2117 1.384 . S
N2116 C2112 1.427 . S
N2116 C2113 1.384 . S
N2117 C2109 1.427 . S
N2117 C2115 1.384 . S
H2118 C2124 0.930 . S
H2119 C2128 0.930 . S
H2120 C2133 0.929 . S
H2121 C2131 0.929 . S
H2122 C2126 0.929 . S
H2123 C2132 0.929 . S
C2124 H2118 0.930 . S
C2124 C2125 1.367 . S
C2124 C2132 1.378 . S
C2125 C2124 1.367 . S
C2125 C2133 1.433 . S
C2126 H2122 0.929 . S
C2126 C2128 1.378 . S
C2126 C2130 1.350 . S
C2127 C2130 1.463 . S
C2127 C2132 1.350 . S
C2127 N2135 1.427 . S
C2128 H2119 0.930 . S
C2128 C2126 1.378 . S
C2128 C2129 1.367 . S
C2129 C2128 1.367 . S
C2129 C2131 1.433 . S
C2130 C2126 1.350 . S
C2130 C2127 1.463 . S
C2130 N2134 1.427 . S
C2131 H2121 0.929 . S
C2131 C2129 1.433 . S
C2131 N2134 1.384 . S
C2132 H2123 0.929 . S
C2132 C2124 1.378 . S
C2132 C2127 1.350 . S
C2133 H2120 0.929 . S
C2133 C2125 1.433 . S
C2133 N2135 1.384 . S
N2134 C2130 1.427 . S
N2134 C2131 1.384 . S
N2135 C2127 1.427 . S
N2135 C2133 1.384 . S
H2136 C2142 0.930 . S
H2137 C2146 0.930 . S
H2138 C2151 0.929 . S
H2139 C2149 0.929 . S
H2140 C2144 0.929 . S
H2141 C2150 0.929 . S
C2142 H2136 0.930 . S
C2142 C2143 1.367 . S
C2142 C2150 1.378 . S
C2143 C2142 1.367 . S
C2143 C2151 1.433 . S
C2144 H2140 0.929 . S
C2144 C2146 1.378 . S
C2144 C2148 1.350 . S
C2145 C2148 1.463 . S
C2145 C2150 1.350 . S
C2145 N2153 1.427 . S
C2146 H2137 0.930 . S
C2146 C2144 1.378 . S
C2146 C2147 1.367 . S
C2147 C2146 1.367 . S
C2147 C2149 1.433 . S
C2148 C2144 1.350 . S
C2148 C2145 1.463 . S
C2148 N2152 1.427 . S
C2149 H2139 0.929 . S
C2149 C2147 1.433 . S
C2149 N2152 1.384 . S
C2150 H2141 0.929 . S
C2150 C2142 1.378 . S
C2150 C2145 1.350 . S
C2151 H2138 0.929 . S
C2151 C2143 1.433 . S
C2151 N2153 1.384 . S
N2152 C2148 1.427 . S
N2152 C2149 1.384 . S
N2153 C2145 1.427 . S
N2153 C2151 1.384 . S
H2154 C2160 0.930 . S
H2155 C2164 0.930 . S
H2156 C2169 0.929 . S
H2157 C2167 0.929 . S
H2158 C2162 0.929 . S
H2159 C2168 0.929 . S
C2160 H2154 0.930 . S
C2160 C2161 1.367 . S
C2160 C2168 1.378 . S
C2161 C2160 1.367 . S
C2161 C2169 1.433 . S
C2162 H2158 0.929 . S
C2162 C2164 1.378 . S
C2162 C2166 1.350 . S
C2163 C2166 1.463 . S
C2163 C2168 1.350 . S
C2163 N2171 1.427 . S
C2164 H2155 0.930 . S
C2164 C2162 1.378 . S
C2164 C2165 1.367 . S
C2165 C2164 1.367 . S
C2165 C2167 1.433 . S
C2166 C2162 1.350 . S
C2166 C2163 1.463 . S
C2166 N2170 1.427 . S
C2167 H2157 0.929 . S
C2167 C2165 1.433 . S
C2167 N2170 1.384 . S
C2168 H2159 0.929 . S
C2168 C2160 1.378 . S
C2168 C2163 1.350 . S
C2169 H2156 0.929 . S
C2169 C2161 1.433 . S
C2169 N2171 1.384 . S
N2170 C2166 1.427 . S
N2170 C2167 1.384 . S
N2171 C2163 1.427 . S
N2171 C2169 1.384 . S
H2172 C2178 0.930 . S
H2173 C2182 0.930 . S
H2174 C2187 0.929 . S
H2175 C2185 0.929 . S
H2176 C2180 0.929 . S
H2177 C2186 0.929 . S
C2178 H2172 0.930 . S
C2178 C2179 1.367 . S
C2178 C2186 1.378 . S
C2179 C2178 1.367 . S
C2179 C2187 1.433 . S
C2180 H2176 0.929 . S
C2180 C2182 1.378 . S
C2180 C2184 1.350 . S
C2181 C2184 1.463 . S
C2181 C2186 1.350 . S
C2181 N2189 1.427 . S
C2182 H2173 0.930 . S
C2182 C2180 1.378 . S
C2182 C2183 1.367 . S
C2183 C2182 1.367 . S
C2183 C2185 1.433 . S
C2184 C2180 1.350 . S
C2184 C2181 1.463 . S
C2184 N2188 1.427 . S
C2185 H2175 0.929 . S
C2185 C2183 1.433 . S
C2185 N2188 1.384 . S
C2186 H2177 0.929 . S
C2186 C2178 1.378 . S
C2186 C2181 1.350 . S
C2187 H2174 0.929 . S
C2187 C2179 1.433 . S
C2187 N2189 1.384 . S
N2188 C2184 1.427 . S
N2188 C2185 1.384 . S
N2189 C2181 1.427 . S
N2189 C2187 1.384 . S
H2190 C2196 0.930 . S
H2191 C2200 0.930 . S
H2192 C2205 0.929 . S
H2193 C2203 0.929 . S
H2194 C2198 0.929 . S
H2195 C2204 0.929 . S
C2196 H2190 0.930 . S
C2196 C2197 1.367 . S
C2196 C2204 1.378 . S
C2197 C2196 1.367 . S
C2197 C2205 1.433 . S
C2198 H2194 0.929 . S
C2198 C2200 1.378 . S
C2198 C2202 1.350 . S
C2199 C2202 1.463 . S
C2199 C2204 1.350 . S
C2199 N2207 1.427 . S
C2200 H2191 0.930 . S
C2200 C2198 1.378 . S
C2200 C2201 1.367 . S
C2201 C2200 1.367 . S
C2201 C2203 1.433 . S
C2202 C2198 1.350 . S
C2202 C2199 1.463 . S
C2202 N2206 1.427 . S
C2203 H2193 0.929 . S
C2203 C2201 1.433 . S
C2203 N2206 1.384 . S
C2204 H2195 0.929 . S
C2204 C2196 1.378 . S
C2204 C2199 1.350 . S
C2205 H2192 0.929 . S
C2205 C2197 1.433 . S
C2205 N2207 1.384 . S
N2206 C2202 1.427 . S
N2206 C2203 1.384 . S
N2207 C2199 1.427 . S
N2207 C2205 1.384 . S
H2208 C2214 0.930 . S
H2209 C2218 0.930 . S
H2210 C2223 0.929 . S
H2211 C2221 0.929 . S
H2212 C2216 0.929 . S
H2213 C2222 0.929 . S
C2214 H2208 0.930 . S
C2214 C2215 1.367 . S
C2214 C2222 1.378 . S
C2215 C2214 1.367 . S
C2215 C2223 1.433 . S
C2216 H2212 0.929 . S
C2216 C2218 1.378 . S
C2216 C2220 1.350 . S
C2217 C2220 1.463 . S
C2217 C2222 1.350 . S
C2217 N2225 1.427 . S
C2218 H2209 0.930 . S
C2218 C2216 1.378 . S
C2218 C2219 1.367 . S
C2219 C2218 1.367 . S
C2219 C2221 1.433 . S
C2220 C2216 1.350 . S
C2220 C2217 1.463 . S
C2220 N2224 1.427 . S
C2221 H2211 0.929 . S
C2221 C2219 1.433 . S
C2221 N2224 1.384 . S
C2222 H2213 0.929 . S
C2222 C2214 1.378 . S
C2222 C2217 1.350 . S
C2223 H2210 0.929 . S
C2223 C2215 1.433 . S
C2223 N2225 1.384 . S
N2224 C2220 1.427 . S
N2224 C2221 1.384 . S
N2225 C2217 1.427 . S
N2225 C2223 1.384 . S
H2226 C2232 0.930 . S
H2227 C2236 0.930 . S
H2228 C2241 0.929 . S
H2229 C2239 0.929 . S
H2230 C2234 0.929 . S
H2231 C2240 0.929 . S
C2232 H2226 0.930 . S
C2232 C2233 1.367 . S
C2232 C2240 1.378 . S
C2233 C2232 1.367 . S
C2233 C2241 1.433 . S
C2234 H2230 0.929 . S
C2234 C2236 1.378 . S
C2234 C2238 1.350 . S
C2235 C2238 1.463 . S
C2235 C2240 1.350 . S
C2235 N2243 1.427 . S
C2236 H2227 0.930 . S
C2236 C2234 1.378 . S
C2236 C2237 1.367 . S
C2237 C2236 1.367 . S
C2237 C2239 1.433 . S
C2238 C2234 1.350 . S
C2238 C2235 1.463 . S
C2238 N2242 1.427 . S
C2239 H2229 0.929 . S
C2239 C2237 1.433 . S
C2239 N2242 1.384 . S
C2240 H2231 0.929 . S
C2240 C2232 1.378 . S
C2240 C2235 1.350 . S
C2241 H2228 0.929 . S
C2241 C2233 1.433 . S
C2241 N2243 1.384 . S
N2242 C2238 1.427 . S
N2242 C2239 1.384 . S
N2243 C2235 1.427 . S
N2243 C2241 1.384 . S
H2244 C2250 0.930 . S
H2245 C2254 0.930 . S
H2246 C2259 0.929 . S
H2247 C2257 0.929 . S
H2248 C2252 0.929 . S
H2249 C2258 0.929 . S
C2250 H2244 0.930 . S
C2250 C2251 1.367 . S
C2250 C2258 1.378 . S
C2251 C2250 1.367 . S
C2251 C2259 1.433 . S
C2252 H2248 0.929 . S
C2252 C2254 1.378 . S
C2252 C2256 1.350 . S
C2253 C2256 1.463 . S
C2253 C2258 1.350 . S
C2253 N2261 1.427 . S
C2254 H2245 0.930 . S
C2254 C2252 1.378 . S
C2254 C2255 1.367 . S
C2255 C2254 1.367 . S
C2255 C2257 1.433 . S
C2256 C2252 1.350 . S
C2256 C2253 1.463 . S
C2256 N2260 1.427 . S
C2257 H2247 0.929 . S
C2257 C2255 1.433 . S
C2257 N2260 1.384 . S
C2258 H2249 0.929 . S
C2258 C2250 1.378 . S
C2258 C2253 1.350 . S
C2259 H2246 0.929 . S
C2259 C2251 1.433 . S
C2259 N2261 1.384 . S
N2260 C2256 1.427 . S
N2260 C2257 1.384 . S
N2261 C2253 1.427 . S
N2261 C2259 1.384 . S
H2262 C2268 0.930 . S
H2263 C2272 0.930 . S
H2264 C2277 0.929 . S
H2265 C2275 0.929 . S
H2266 C2270 0.929 . S
H2267 C2276 0.929 . S
C2268 H2262 0.930 . S
C2268 C2269 1.367 . S
C2268 C2276 1.378 . S
C2269 C2268 1.367 . S
C2269 C2277 1.433 . S
C2270 H2266 0.929 . S
C2270 C2272 1.378 . S
C2270 C2274 1.350 . S
C2271 C2274 1.463 . S
C2271 C2276 1.350 . S
C2271 N2279 1.427 . S
C2272 H2263 0.930 . S
C2272 C2270 1.378 . S
C2272 C2273 1.367 . S
C2273 C2272 1.367 . S
C2273 C2275 1.433 . S
C2274 C2270 1.350 . S
C2274 C2271 1.463 . S
C2274 N2278 1.427 . S
C2275 H2265 0.929 . S
C2275 C2273 1.433 . S
C2275 N2278 1.384 . S
C2276 H2267 0.929 . S
C2276 C2268 1.378 . S
C2276 C2271 1.350 . S
C2277 H2264 0.929 . S
C2277 C2269 1.433 . S
C2277 N2279 1.384 . S
N2278 C2274 1.427 . S
N2278 C2275 1.384 . S
N2279 C2271 1.427 . S
N2279 C2277 1.384 . S
H2280 C2286 0.930 . S
H2281 C2290 0.930 . S
H2282 C2295 0.929 . S
H2283 C2293 0.929 . S
H2284 C2288 0.929 . S
H2285 C2294 0.929 . S
C2286 H2280 0.930 . S
C2286 C2287 1.367 . S
C2286 C2294 1.378 . S
C2287 C2286 1.367 . S
C2287 C2295 1.433 . S
C2288 H2284 0.929 . S
C2288 C2290 1.378 . S
C2288 C2292 1.350 . S
C2289 C2292 1.463 . S
C2289 C2294 1.350 . S
C2289 N2297 1.427 . S
C2290 H2281 0.930 . S
C2290 C2288 1.378 . S
C2290 C2291 1.367 . S
C2291 C2290 1.367 . S
C2291 C2293 1.433 . S
C2292 C2288 1.350 . S
C2292 C2289 1.463 . S
C2292 N2296 1.427 . S
C2293 H2283 0.929 . S
C2293 C2291 1.433 . S
C2293 N2296 1.384 . S
C2294 H2285 0.929 . S
C2294 C2286 1.378 . S
C2294 C2289 1.350 . S
C2295 H2282 0.929 . S
C2295 C2287 1.433 . S
C2295 N2297 1.384 . S
N2296 C2292 1.427 . S
N2296 C2293 1.384 . S
N2297 C2289 1.427 . S
N2297 C2295 1.384 . S
H2298 C2304 0.930 . S
H2299 C2308 0.930 . S
H2300 C2313 0.929 . S
H2301 C2311 0.929 . S
H2302 C2306 0.929 . S
H2303 C2312 0.929 . S
C2304 H2298 0.930 . S
C2304 C2305 1.367 . S
C2304 C2312 1.378 . S
C2305 C2304 1.367 . S
C2305 C2313 1.433 . S
C2306 H2302 0.929 . S
C2306 C2308 1.378 . S
C2306 C2310 1.350 . S
C2307 C2310 1.463 . S
C2307 C2312 1.350 . S
C2307 N2315 1.427 . S
C2308 H2299 0.930 . S
C2308 C2306 1.378 . S
C2308 C2309 1.367 . S
C2309 C2308 1.367 . S
C2309 C2311 1.433 . S
C2310 C2306 1.350 . S
C2310 C2307 1.463 . S
C2310 N2314 1.427 . S
C2311 H2301 0.929 . S
C2311 C2309 1.433 . S
C2311 N2314 1.384 . S
C2312 H2303 0.929 . S
C2312 C2304 1.378 . S
C2312 C2307 1.350 . S
C2313 H2300 0.929 . S
C2313 C2305 1.433 . S
C2313 N2315 1.384 . S
N2314 C2310 1.427 . S
N2314 C2311 1.384 . S
N2315 C2307 1.427 . S
N2315 C2313 1.384 . S
H2316 C2322 0.930 . S
H2317 C2326 0.930 . S
H2318 C2331 0.929 . S
H2319 C2329 0.929 . S
H2320 C2324 0.929 . S
H2321 C2330 0.929 . S
C2322 H2316 0.930 . S
C2322 C2323 1.367 . S
C2322 C2330 1.378 . S
C2323 C2322 1.367 . S
C2323 C2331 1.433 . S
C2324 H2320 0.929 . S
C2324 C2326 1.378 . S
C2324 C2328 1.350 . S
C2325 C2328 1.463 . S
C2325 C2330 1.350 . S
C2325 N2333 1.427 . S
C2326 H2317 0.930 . S
C2326 C2324 1.378 . S
C2326 C2327 1.367 . S
C2327 C2326 1.367 . S
C2327 C2329 1.433 . S
C2328 C2324 1.350 . S
C2328 C2325 1.463 . S
C2328 N2332 1.427 . S
C2329 H2319 0.929 . S
C2329 C2327 1.433 . S
C2329 N2332 1.384 . S
C2330 H2321 0.929 . S
C2330 C2322 1.378 . S
C2330 C2325 1.350 . S
C2331 H2318 0.929 . S
C2331 C2323 1.433 . S
C2331 N2333 1.384 . S
N2332 C2328 1.427 . S
N2332 C2329 1.384 . S
N2333 C2325 1.427 . S
N2333 C2331 1.384 . S
H2334 C2340 0.930 . S
H2335 C2344 0.930 . S
H2336 C2349 0.929 . S
H2337 C2347 0.929 . S
H2338 C2342 0.929 . S
H2339 C2348 0.929 . S
C2340 H2334 0.930 . S
C2340 C2341 1.367 . S
C2340 C2348 1.378 . S
C2341 C2340 1.367 . S
C2341 C2349 1.433 . S
C2342 H2338 0.929 . S
C2342 C2344 1.378 . S
C2342 C2346 1.350 . S
C2343 C2346 1.463 . S
C2343 C2348 1.350 . S
C2343 N2351 1.427 . S
C2344 H2335 0.930 . S
C2344 C2342 1.378 . S
C2344 C2345 1.367 . S
C2345 C2344 1.367 . S
C2345 C2347 1.433 . S
C2346 C2342 1.350 . S
C2346 C2343 1.463 . S
C2346 N2350 1.427 . S
C2347 H2337 0.929 . S
C2347 C2345 1.433 . S
C2347 N2350 1.384 . S
C2348 H2339 0.929 . S
C2348 C2340 1.378 . S
C2348 C2343 1.350 . S
C2349 H2336 0.929 . S
C2349 C2341 1.433 . S
C2349 N2351 1.384 . S
N2350 C2346 1.427 . S
N2350 C2347 1.384 . S
N2351 C2343 1.427 . S
N2351 C2349 1.384 . S
H2352 C2358 0.930 . S
H2353 C2362 0.930 . S
H2354 C2367 0.929 . S
H2355 C2365 0.929 . S
H2356 C2360 0.929 . S
H2357 C2366 0.929 . S
C2358 H2352 0.930 . S
C2358 C2359 1.367 . S
C2358 C2366 1.378 . S
C2359 C2358 1.367 . S
C2359 C2367 1.433 . S
C2360 H2356 0.929 . S
C2360 C2362 1.378 . S
C2360 C2364 1.350 . S
C2361 C2364 1.463 . S
C2361 C2366 1.350 . S
C2361 N2369 1.427 . S
C2362 H2353 0.930 . S
C2362 C2360 1.378 . S
C2362 C2363 1.367 . S
C2363 C2362 1.367 . S
C2363 C2365 1.433 . S
C2364 C2360 1.350 . S
C2364 C2361 1.463 . S
C2364 N2368 1.427 . S
C2365 H2355 0.929 . S
C2365 C2363 1.433 . S
C2365 N2368 1.384 . S
C2366 H2357 0.929 . S
C2366 C2358 1.378 . S
C2366 C2361 1.350 . S
C2367 H2354 0.929 . S
C2367 C2359 1.433 . S
C2367 N2369 1.384 . S
N2368 C2364 1.427 . S
N2368 C2365 1.384 . S
N2369 C2361 1.427 . S
N2369 C2367 1.384 . S
H2370 C2376 0.930 . S
H2371 C2380 0.930 . S
H2372 C2385 0.929 . S
H2373 C2383 0.929 . S
H2374 C2378 0.929 . S
H2375 C2384 0.929 . S
C2376 H2370 0.930 . S
C2376 C2377 1.367 . S
C2376 C2384 1.378 . S
C2377 C2376 1.367 . S
C2377 C2385 1.433 . S
C2378 H2374 0.929 . S
C2378 C2380 1.378 . S
C2378 C2382 1.350 . S
C2379 C2382 1.463 . S
C2379 C2384 1.350 . S
C2379 N2387 1.427 . S
C2380 H2371 0.930 . S
C2380 C2378 1.378 . S
C2380 C2381 1.367 . S
C2381 C2380 1.367 . S
C2381 C2383 1.433 . S
C2382 C2378 1.350 . S
C2382 C2379 1.463 . S
C2382 N2386 1.427 . S
C2383 H2373 0.929 . S
C2383 C2381 1.433 . S
C2383 N2386 1.384 . S
C2384 H2375 0.929 . S
C2384 C2376 1.378 . S
C2384 C2379 1.350 . S
C2385 H2372 0.929 . S
C2385 C2377 1.433 . S
C2385 N2387 1.384 . S
N2386 C2382 1.427 . S
N2386 C2383 1.384 . S
N2387 C2379 1.427 . S
N2387 C2385 1.384 . S
H2388 C2394 0.930 . S
H2389 C2398 0.930 . S
H2390 C2403 0.929 . S
H2391 C2401 0.929 . S
H2392 C2396 0.929 . S
H2393 C2402 0.929 . S
C2394 H2388 0.930 . S
C2394 C2395 1.367 . S
C2394 C2402 1.378 . S
C2395 C2394 1.367 . S
C2395 C2403 1.433 . S
C2396 H2392 0.929 . S
C2396 C2398 1.378 . S
C2396 C2400 1.350 . S
C2397 C2400 1.463 . S
C2397 C2402 1.350 . S
C2397 N2405 1.427 . S
C2398 H2389 0.930 . S
C2398 C2396 1.378 . S
C2398 C2399 1.367 . S
C2399 C2398 1.367 . S
C2399 C2401 1.433 . S
C2400 C2396 1.350 . S
C2400 C2397 1.463 . S
C2400 N2404 1.427 . S
C2401 H2391 0.929 . S
C2401 C2399 1.433 . S
C2401 N2404 1.384 . S
C2402 H2393 0.929 . S
C2402 C2394 1.378 . S
C2402 C2397 1.350 . S
C2403 H2390 0.929 . S
C2403 C2395 1.433 . S
C2403 N2405 1.384 . S
N2404 C2400 1.427 . S
N2404 C2401 1.384 . S
N2405 C2397 1.427 . S
N2405 C2403 1.384 . S
H2406 C2412 0.930 . S
H2407 C2416 0.930 . S
H2408 C2421 0.929 . S
H2409 C2419 0.929 . S
H2410 C2414 0.929 . S
H2411 C2420 0.929 . S
C2412 H2406 0.930 . S
C2412 C2413 1.367 . S
C2412 C2420 1.378 . S
C2413 C2412 1.367 . S
C2413 C2421 1.433 . S
C2414 H2410 0.929 . S
C2414 C2416 1.378 . S
C2414 C2418 1.350 . S
C2415 C2418 1.463 . S
C2415 C2420 1.350 . S
C2415 N2423 1.427 . S
C2416 H2407 0.930 . S
C2416 C2414 1.378 . S
C2416 C2417 1.367 . S
C2417 C2416 1.367 . S
C2417 C2419 1.433 . S
C2418 C2414 1.350 . S
C2418 C2415 1.463 . S
C2418 N2422 1.427 . S
C2419 H2409 0.929 . S
C2419 C2417 1.433 . S
C2419 N2422 1.384 . S
C2420 H2411 0.929 . S
C2420 C2412 1.378 . S
C2420 C2415 1.350 . S
C2421 H2408 0.929 . S
C2421 C2413 1.433 . S
C2421 N2423 1.384 . S
N2422 C2418 1.427 . S
N2422 C2419 1.384 . S
N2423 C2415 1.427 . S
N2423 C2421 1.384 . S
H2424 C2430 0.930 . S
H2425 C2434 0.930 . S
H2426 C2439 0.929 . S
H2427 C2437 0.929 . S
H2428 C2432 0.929 . S
H2429 C2438 0.929 . S
C2430 H2424 0.930 . S
C2430 C2431 1.367 . S
C2430 C2438 1.378 . S
C2431 C2430 1.367 . S
C2431 C2439 1.433 . S
C2432 H2428 0.929 . S
C2432 C2434 1.378 . S
C2432 C2436 1.350 . S
C2433 C2436 1.463 . S
C2433 C2438 1.350 . S
C2433 N2441 1.427 . S
C2434 H2425 0.930 . S
C2434 C2432 1.378 . S
C2434 C2435 1.367 . S
C2435 C2434 1.367 . S
C2435 C2437 1.433 . S
C2436 C2432 1.350 . S
C2436 C2433 1.463 . S
C2436 N2440 1.427 . S
C2437 H2427 0.929 . S
C2437 C2435 1.433 . S
C2437 N2440 1.384 . S
C2438 H2429 0.929 . S
C2438 C2430 1.378 . S
C2438 C2433 1.350 . S
C2439 H2426 0.929 . S
C2439 C2431 1.433 . S
C2439 N2441 1.384 . S
N2440 C2436 1.427 . S
N2440 C2437 1.384 . S
N2441 C2433 1.427 . S
N2441 C2439 1.384 . S
H2442 C2448 0.930 . S
H2443 C2452 0.930 . S
H2444 C2457 0.929 . S
H2445 C2455 0.929 . S
H2446 C2450 0.929 . S
H2447 C2456 0.929 . S
C2448 H2442 0.930 . S
C2448 C2449 1.367 . S
C2448 C2456 1.378 . S
C2449 C2448 1.367 . S
C2449 C2457 1.433 . S
C2450 H2446 0.929 . S
C2450 C2452 1.378 . S
C2450 C2454 1.350 . S
C2451 C2454 1.463 . S
C2451 C2456 1.350 . S
C2451 N2459 1.427 . S
C2452 H2443 0.930 . S
C2452 C2450 1.378 . S
C2452 C2453 1.367 . S
C2453 C2452 1.367 . S
C2453 C2455 1.433 . S
C2454 C2450 1.350 . S
C2454 C2451 1.463 . S
C2454 N2458 1.427 . S
C2455 H2445 0.929 . S
C2455 C2453 1.433 . S
C2455 N2458 1.384 . S
C2456 H2447 0.929 . S
C2456 C2448 1.378 . S
C2456 C2451 1.350 . S
C2457 H2444 0.929 . S
C2457 C2449 1.433 . S
C2457 N2459 1.384 . S
N2458 C2454 1.427 . S
N2458 C2455 1.384 . S
N2459 C2451 1.427 . S
N2459 C2457 1.384 . S
H2460 C2466 0.930 . S
H2461 C2470 0.930 . S
H2462 C2475 0.929 . S
H2463 C2473 0.929 . S
H2464 C2468 0.929 . S
H2465 C2474 0.929 . S
C2466 H2460 0.930 . S
C2466 C2467 1.367 . S
C2466 C2474 1.378 . S
C2467 C2466 1.367 . S
C2467 C2475 1.433 . S
C2468 H2464 0.929 . S
C2468 C2470 1.378 . S
C2468 C2472 1.350 . S
C2469 C2472 1.463 . S
C2469 C2474 1.350 . S
C2469 N2477 1.427 . S
C2470 H2461 0.930 . S
C2470 C2468 1.378 . S
C2470 C2471 1.367 . S
C2471 C2470 1.367 . S
C2471 C2473 1.433 . S
C2472 C2468 1.350 . S
C2472 C2469 1.463 . S
C2472 N2476 1.427 . S
C2473 H2463 0.929 . S
C2473 C2471 1.433 . S
C2473 N2476 1.384 . S
C2474 H2465 0.929 . S
C2474 C2466 1.378 . S
C2474 C2469 1.350 . S
C2475 H2462 0.929 . S
C2475 C2467 1.433 . S
C2475 N2477 1.384 . S
N2476 C2472 1.427 . S
N2476 C2473 1.384 . S
N2477 C2469 1.427 . S
N2477 C2475 1.384 . S
H2478 C2484 0.930 . S
H2479 C2488 0.930 . S
H2480 C2493 0.929 . S
H2481 C2491 0.929 . S
H2482 C2486 0.929 . S
H2483 C2492 0.929 . S
C2484 H2478 0.930 . S
C2484 C2485 1.367 . S
C2484 C2492 1.378 . S
C2485 C2484 1.367 . S
C2485 C2493 1.433 . S
C2486 H2482 0.929 . S
C2486 C2488 1.378 . S
C2486 C2490 1.350 . S
C2487 C2490 1.463 . S
C2487 C2492 1.350 . S
C2487 N2495 1.427 . S
C2488 H2479 0.930 . S
C2488 C2486 1.378 . S
C2488 C2489 1.367 . S
C2489 C2488 1.367 . S
C2489 C2491 1.433 . S
C2490 C2486 1.350 . S
C2490 C2487 1.463 . S
C2490 N2494 1.427 . S
C2491 H2481 0.929 . S
C2491 C2489 1.433 . S
C2491 N2494 1.384 . S
C2492 H2483 0.929 . S
C2492 C2484 1.378 . S
C2492 C2487 1.350 . S
C2493 H2480 0.929 . S
C2493 C2485 1.433 . S
C2493 N2495 1.384 . S
N2494 C2490 1.427 . S
N2494 C2491 1.384 . S
N2495 C2487 1.427 . S
N2495 C2493 1.384 . S
H2496 C2502 0.930 . S
H2497 C2506 0.930 . S
H2498 C2511 0.929 . S
H2499 C2509 0.929 . S
H2500 C2504 0.929 . S
H2501 C2510 0.929 . S
C2502 H2496 0.930 . S
C2502 C2503 1.367 . S
C2502 C2510 1.378 . S
C2503 C2502 1.367 . S
C2503 C2511 1.433 . S
C2504 H2500 0.929 . S
C2504 C2506 1.378 . S
C2504 C2508 1.350 . S
C2505 C2508 1.463 . S
C2505 C2510 1.350 . S
C2505 N2513 1.427 . S
C2506 H2497 0.930 . S
C2506 C2504 1.378 . S
C2506 C2507 1.367 . S
C2507 C2506 1.367 . S
C2507 C2509 1.433 . S
C2508 C2504 1.350 . S
C2508 C2505 1.463 . S
C2508 N2512 1.427 . S
C2509 H2499 0.929 . S
C2509 C2507 1.433 . S
C2509 N2512 1.384 . S
C2510 H2501 0.929 . S
C2510 C2502 1.378 . S
C2510 C2505 1.350 . S
C2511 H2498 0.929 . S
C2511 C2503 1.433 . S
C2511 N2513 1.384 . S
N2512 C2508 1.427 . S
N2512 C2509 1.384 . S
N2513 C2505 1.427 . S
N2513 C2511 1.384 . S
H2514 C2520 0.930 . S
H2515 C2524 0.930 . S
H2516 C2529 0.929 . S
H2517 C2527 0.929 . S
H2518 C2522 0.929 . S
H2519 C2528 0.929 . S
C2520 H2514 0.930 . S
C2520 C2521 1.367 . S
C2520 C2528 1.378 . S
C2521 C2520 1.367 . S
C2521 C2529 1.433 . S
C2522 H2518 0.929 . S
C2522 C2524 1.378 . S
C2522 C2526 1.350 . S
C2523 C2526 1.463 . S
C2523 C2528 1.350 . S
C2523 N2531 1.427 . S
C2524 H2515 0.930 . S
C2524 C2522 1.378 . S
C2524 C2525 1.367 . S
C2525 C2524 1.367 . S
C2525 C2527 1.433 . S
C2526 C2522 1.350 . S
C2526 C2523 1.463 . S
C2526 N2530 1.427 . S
C2527 H2517 0.929 . S
C2527 C2525 1.433 . S
C2527 N2530 1.384 . S
C2528 H2519 0.929 . S
C2528 C2520 1.378 . S
C2528 C2523 1.350 . S
C2529 H2516 0.929 . S
C2529 C2521 1.433 . S
C2529 N2531 1.384 . S
N2530 C2526 1.427 . S
N2530 C2527 1.384 . S
N2531 C2523 1.427 . S
N2531 C2529 1.384 . S
H2532 C2538 0.930 . S
H2533 C2542 0.930 . S
H2534 C2547 0.929 . S
H2535 C2545 0.929 . S
H2536 C2540 0.929 . S
H2537 C2546 0.929 . S
C2538 H2532 0.930 . S
C2538 C2539 1.367 . S
C2538 C2546 1.378 . S
C2539 C2538 1.367 . S
C2539 C2547 1.433 . S
C2540 H2536 0.929 . S
C2540 C2542 1.378 . S
C2540 C2544 1.350 . S
C2541 C2544 1.463 . S
C2541 C2546 1.350 . S
C2541 N2549 1.427 . S
C2542 H2533 0.930 . S
C2542 C2540 1.378 . S
C2542 C2543 1.367 . S
C2543 C2542 1.367 . S
C2543 C2545 1.433 . S
C2544 C2540 1.350 . S
C2544 C2541 1.463 . S
C2544 N2548 1.427 . S
C2545 H2535 0.929 . S
C2545 C2543 1.433 . S
C2545 N2548 1.384 . S
C2546 H2537 0.929 . S
C2546 C2538 1.378 . S
C2546 C2541 1.350 . S
C2547 H2534 0.929 . S
C2547 C2539 1.433 . S
C2547 N2549 1.384 . S
N2548 C2544 1.427 . S
N2548 C2545 1.384 . S
N2549 C2541 1.427 . S
N2549 C2547 1.384 . S
H2550 C2556 0.930 . S
H2551 C2560 0.930 . S
H2552 C2565 0.929 . S
H2553 C2563 0.929 . S
H2554 C2558 0.929 . S
H2555 C2564 0.929 . S
C2556 H2550 0.930 . S
C2556 C2557 1.367 . S
C2556 C2564 1.378 . S
C2557 C2556 1.367 . S
C2557 C2565 1.433 . S
C2558 H2554 0.929 . S
C2558 C2560 1.378 . S
C2558 C2562 1.350 . S
C2559 C2562 1.463 . S
C2559 C2564 1.350 . S
C2559 N2567 1.427 . S
C2560 H2551 0.930 . S
C2560 C2558 1.378 . S
C2560 C2561 1.367 . S
C2561 C2560 1.367 . S
C2561 C2563 1.433 . S
C2562 C2558 1.350 . S
C2562 C2559 1.463 . S
C2562 N2566 1.427 . S
C2563 H2553 0.929 . S
C2563 C2561 1.433 . S
C2563 N2566 1.384 . S
C2564 H2555 0.929 . S
C2564 C2556 1.378 . S
C2564 C2559 1.350 . S
C2565 H2552 0.929 . S
C2565 C2557 1.433 . S
C2565 N2567 1.384 . S
N2566 C2562 1.427 . S
N2566 C2563 1.384 . S
N2567 C2559 1.427 . S
N2567 C2565 1.384 . S
H2568 C2574 0.930 . S
H2569 C2578 0.930 . S
H2570 C2583 0.929 . S
H2571 C2581 0.929 . S
H2572 C2576 0.929 . S
H2573 C2582 0.929 . S
C2574 H2568 0.930 . S
C2574 C2575 1.367 . S
C2574 C2582 1.378 . S
C2575 C2574 1.367 . S
C2575 C2583 1.433 . S
C2576 H2572 0.929 . S
C2576 C2578 1.378 . S
C2576 C2580 1.350 . S
C2577 C2580 1.463 . S
C2577 C2582 1.350 . S
C2577 N2585 1.427 . S
C2578 H2569 0.930 . S
C2578 C2576 1.378 . S
C2578 C2579 1.367 . S
C2579 C2578 1.367 . S
C2579 C2581 1.433 . S
C2580 C2576 1.350 . S
C2580 C2577 1.463 . S
C2580 N2584 1.427 . S
C2581 H2571 0.929 . S
C2581 C2579 1.433 . S
C2581 N2584 1.384 . S
C2582 H2573 0.929 . S
C2582 C2574 1.378 . S
C2582 C2577 1.350 . S
C2583 H2570 0.929 . S
C2583 C2575 1.433 . S
C2583 N2585 1.384 . S
N2584 C2580 1.427 . S
N2584 C2581 1.384 . S
N2585 C2577 1.427 . S
N2585 C2583 1.384 . S
H2586 C2592 0.930 . S
H2587 C2596 0.930 . S
H2588 C2601 0.929 . S
H2589 C2599 0.929 . S
H2590 C2594 0.929 . S
H2591 C2600 0.929 . S
C2592 H2586 0.930 . S
C2592 C2593 1.367 . S
C2592 C2600 1.378 . S
C2593 C2592 1.367 . S
C2593 C2601 1.433 . S
C2594 H2590 0.929 . S
C2594 C2596 1.378 . S
C2594 C2598 1.350 . S
C2595 C2598 1.463 . S
C2595 C2600 1.350 . S
C2595 N2603 1.427 . S
C2596 H2587 0.930 . S
C2596 C2594 1.378 . S
C2596 C2597 1.367 . S
C2597 C2596 1.367 . S
C2597 C2599 1.433 . S
C2598 C2594 1.350 . S
C2598 C2595 1.463 . S
C2598 N2602 1.427 . S
C2599 H2589 0.929 . S
C2599 C2597 1.433 . S
C2599 N2602 1.384 . S
C2600 H2591 0.929 . S
C2600 C2592 1.378 . S
C2600 C2595 1.350 . S
C2601 H2588 0.929 . S
C2601 C2593 1.433 . S
C2601 N2603 1.384 . S
N2602 C2598 1.427 . S
N2602 C2599 1.384 . S
N2603 C2595 1.427 . S
N2603 C2601 1.384 . S
H2604 C2610 0.930 . S
H2605 C2614 0.930 . S
H2606 C2619 0.929 . S
H2607 C2617 0.929 . S
H2608 C2612 0.929 . S
H2609 C2618 0.929 . S
C2610 H2604 0.930 . S
C2610 C2611 1.367 . S
C2610 C2618 1.378 . S
C2611 C2610 1.367 . S
C2611 C2619 1.433 . S
C2612 H2608 0.929 . S
C2612 C2614 1.378 . S
C2612 C2616 1.350 . S
C2613 C2616 1.463 . S
C2613 C2618 1.350 . S
C2613 N2621 1.427 . S
C2614 H2605 0.930 . S
C2614 C2612 1.378 . S
C2614 C2615 1.367 . S
C2615 C2614 1.367 . S
C2615 C2617 1.433 . S
C2616 C2612 1.350 . S
C2616 C2613 1.463 . S
C2616 N2620 1.427 . S
C2617 H2607 0.929 . S
C2617 C2615 1.433 . S
C2617 N2620 1.384 . S
C2618 H2609 0.929 . S
C2618 C2610 1.378 . S
C2618 C2613 1.350 . S
C2619 H2606 0.929 . S
C2619 C2611 1.433 . S
C2619 N2621 1.384 . S
N2620 C2616 1.427 . S
N2620 C2617 1.384 . S
N2621 C2613 1.427 . S
N2621 C2619 1.384 . S
H2622 C2628 0.930 . S
H2623 C2632 0.930 . S
H2624 C2637 0.929 . S
H2625 C2635 0.929 . S
H2626 C2630 0.929 . S
H2627 C2636 0.929 . S
C2628 H2622 0.930 . S
C2628 C2629 1.367 . S
C2628 C2636 1.378 . S
C2629 C2628 1.367 . S
C2629 C2637 1.433 . S
C2630 H2626 0.929 . S
C2630 C2632 1.378 . S
C2630 C2634 1.350 . S
C2631 C2634 1.463 . S
C2631 C2636 1.350 . S
C2631 N2639 1.427 . S
C2632 H2623 0.930 . S
C2632 C2630 1.378 . S
C2632 C2633 1.367 . S
C2633 C2632 1.367 . S
C2633 C2635 1.433 . S
C2634 C2630 1.350 . S
C2634 C2631 1.463 . S
C2634 N2638 1.427 . S
C2635 H2625 0.929 . S
C2635 C2633 1.433 . S
C2635 N2638 1.384 . S
C2636 H2627 0.929 . S
C2636 C2628 1.378 . S
C2636 C2631 1.350 . S
C2637 H2624 0.929 . S
C2637 C2629 1.433 . S
C2637 N2639 1.384 . S
N2638 C2634 1.427 . S
N2638 C2635 1.384 . S
N2639 C2631 1.427 . S
N2639 C2637 1.384 . S
H2640 C2646 0.930 . S
H2641 C2650 0.930 . S
H2642 C2655 0.929 . S
H2643 C2653 0.929 . S
H2644 C2648 0.929 . S
H2645 C2654 0.929 . S
C2646 H2640 0.930 . S
C2646 C2647 1.367 . S
C2646 C2654 1.378 . S
C2647 C2646 1.367 . S
C2647 C2655 1.433 . S
C2648 H2644 0.929 . S
C2648 C2650 1.378 . S
C2648 C2652 1.350 . S
C2649 C2652 1.463 . S
C2649 C2654 1.350 . S
C2649 N2657 1.427 . S
C2650 H2641 0.930 . S
C2650 C2648 1.378 . S
C2650 C2651 1.367 . S
C2651 C2650 1.367 . S
C2651 C2653 1.433 . S
C2652 C2648 1.350 . S
C2652 C2649 1.463 . S
C2652 N2656 1.427 . S
C2653 H2643 0.929 . S
C2653 C2651 1.433 . S
C2653 N2656 1.384 . S
C2654 H2645 0.929 . S
C2654 C2646 1.378 . S
C2654 C2649 1.350 . S
C2655 H2642 0.929 . S
C2655 C2647 1.433 . S
C2655 N2657 1.384 . S
N2656 C2652 1.427 . S
N2656 C2653 1.384 . S
N2657 C2649 1.427 . S
N2657 C2655 1.384 . S
H2658 C2664 0.930 . S
H2659 C2668 0.930 . S
H2660 C2673 0.929 . S
H2661 C2671 0.929 . S
H2662 C2666 0.929 . S
H2663 C2672 0.929 . S
C2664 H2658 0.930 . S
C2664 C2665 1.367 . S
C2664 C2672 1.378 . S
C2665 C2664 1.367 . S
C2665 C2673 1.433 . S
C2666 H2662 0.929 . S
C2666 C2668 1.378 . S
C2666 C2670 1.350 . S
C2667 C2670 1.463 . S
C2667 C2672 1.350 . S
C2667 N2675 1.427 . S
C2668 H2659 0.930 . S
C2668 C2666 1.378 . S
C2668 C2669 1.367 . S
C2669 C2668 1.367 . S
C2669 C2671 1.433 . S
C2670 C2666 1.350 . S
C2670 C2667 1.463 . S
C2670 N2674 1.427 . S
C2671 H2661 0.929 . S
C2671 C2669 1.433 . S
C2671 N2674 1.384 . S
C2672 H2663 0.929 . S
C2672 C2664 1.378 . S
C2672 C2667 1.350 . S
C2673 H2660 0.929 . S
C2673 C2665 1.433 . S
C2673 N2675 1.384 . S
N2674 C2670 1.427 . S
N2674 C2671 1.384 . S
N2675 C2667 1.427 . S
N2675 C2673 1.384 . S
H2676 C2682 0.930 . S
H2677 C2686 0.930 . S
H2678 C2691 0.929 . S
H2679 C2689 0.929 . S
H2680 C2684 0.929 . S
H2681 C2690 0.929 . S
C2682 H2676 0.930 . S
C2682 C2683 1.367 . S
C2682 C2690 1.378 . S
C2683 C2682 1.367 . S
C2683 C2691 1.433 . S
C2684 H2680 0.929 . S
C2684 C2686 1.378 . S
C2684 C2688 1.350 . S
C2685 C2688 1.463 . S
C2685 C2690 1.350 . S
C2685 N2693 1.427 . S
C2686 H2677 0.930 . S
C2686 C2684 1.378 . S
C2686 C2687 1.367 . S
C2687 C2686 1.367 . S
C2687 C2689 1.433 . S
C2688 C2684 1.350 . S
C2688 C2685 1.463 . S
C2688 N2692 1.427 . S
C2689 H2679 0.929 . S
C2689 C2687 1.433 . S
C2689 N2692 1.384 . S
C2690 H2681 0.929 . S
C2690 C2682 1.378 . S
C2690 C2685 1.350 . S
C2691 H2678 0.929 . S
C2691 C2683 1.433 . S
C2691 N2693 1.384 . S
N2692 C2688 1.427 . S
N2692 C2689 1.384 . S
N2693 C2685 1.427 . S
N2693 C2691 1.384 . S
H2694 C2700 0.930 . S
H2695 C2704 0.930 . S
H2696 C2709 0.929 . S
H2697 C2707 0.929 . S
H2698 C2702 0.929 . S
H2699 C2708 0.929 . S
C2700 H2694 0.930 . S
C2700 C2701 1.367 . S
C2700 C2708 1.378 . S
C2701 C2700 1.367 . S
C2701 C2709 1.433 . S
C2702 H2698 0.929 . S
C2702 C2704 1.378 . S
C2702 C2706 1.350 . S
C2703 C2706 1.463 . S
C2703 C2708 1.350 . S
C2703 N2711 1.427 . S
C2704 H2695 0.930 . S
C2704 C2702 1.378 . S
C2704 C2705 1.367 . S
C2705 C2704 1.367 . S
C2705 C2707 1.433 . S
C2706 C2702 1.350 . S
C2706 C2703 1.463 . S
C2706 N2710 1.427 . S
C2707 H2697 0.929 . S
C2707 C2705 1.433 . S
C2707 N2710 1.384 . S
C2708 H2699 0.929 . S
C2708 C2700 1.378 . S
C2708 C2703 1.350 . S
C2709 H2696 0.929 . S
C2709 C2701 1.433 . S
C2709 N2711 1.384 . S
N2710 C2706 1.427 . S
N2710 C2707 1.384 . S
N2711 C2703 1.427 . S
N2711 C2709 1.384 . S
H2712 C2718 0.930 . S
H2713 C2722 0.930 . S
H2714 C2727 0.929 . S
H2715 C2725 0.929 . S
H2716 C2720 0.929 . S
H2717 C2726 0.929 . S
C2718 H2712 0.930 . S
C2718 C2719 1.367 . S
C2718 C2726 1.378 . S
C2719 C2718 1.367 . S
C2719 C2727 1.433 . S
C2720 H2716 0.929 . S
C2720 C2722 1.378 . S
C2720 C2724 1.350 . S
C2721 C2724 1.463 . S
C2721 C2726 1.350 . S
C2721 N2729 1.427 . S
C2722 H2713 0.930 . S
C2722 C2720 1.378 . S
C2722 C2723 1.367 . S
C2723 C2722 1.367 . S
C2723 C2725 1.433 . S
C2724 C2720 1.350 . S
C2724 C2721 1.463 . S
C2724 N2728 1.427 . S
C2725 H2715 0.929 . S
C2725 C2723 1.433 . S
C2725 N2728 1.384 . S
C2726 H2717 0.929 . S
C2726 C2718 1.378 . S
C2726 C2721 1.350 . S
C2727 H2714 0.929 . S
C2727 C2719 1.433 . S
C2727 N2729 1.384 . S
N2728 C2724 1.427 . S
N2728 C2725 1.384 . S
N2729 C2721 1.427 . S
N2729 C2727 1.384 . S
H2730 C2736 0.930 . S
H2731 C2740 0.930 . S
H2732 C2745 0.929 . S
H2733 C2743 0.929 . S
H2734 C2738 0.929 . S
H2735 C2744 0.929 . S
C2736 H2730 0.930 . S
C2736 C2737 1.367 . S
C2736 C2744 1.378 . S
C2737 C2736 1.367 . S
C2737 C2745 1.433 . S
C2738 H2734 0.929 . S
C2738 C2740 1.378 . S
C2738 C2742 1.350 . S
C2739 C2742 1.463 . S
C2739 C2744 1.350 . S
C2739 N2747 1.427 . S
C2740 H2731 0.930 . S
C2740 C2738 1.378 . S
C2740 C2741 1.367 . S
C2741 C2740 1.367 . S
C2741 C2743 1.433 . S
C2742 C2738 1.350 . S
C2742 C2739 1.463 . S
C2742 N2746 1.427 . S
C2743 H2733 0.929 . S
C2743 C2741 1.433 . S
C2743 N2746 1.384 . S
C2744 H2735 0.929 . S
C2744 C2736 1.378 . S
C2744 C2739 1.350 . S
C2745 H2732 0.929 . S
C2745 C2737 1.433 . S
C2745 N2747 1.384 . S
N2746 C2742 1.427 . S
N2746 C2743 1.384 . S
N2747 C2739 1.427 . S
N2747 C2745 1.384 . S
H2748 C2754 0.930 . S
H2749 C2758 0.930 . S
H2750 C2763 0.929 . S
H2751 C2761 0.929 . S
H2752 C2756 0.929 . S
H2753 C2762 0.929 . S
C2754 H2748 0.930 . S
C2754 C2755 1.367 . S
C2754 C2762 1.378 . S
C2755 C2754 1.367 . S
C2755 C2763 1.433 . S
C2756 H2752 0.929 . S
C2756 C2758 1.378 . S
C2756 C2760 1.350 . S
C2757 C2760 1.463 . S
C2757 C2762 1.350 . S
C2757 N2765 1.427 . S
C2758 H2749 0.930 . S
C2758 C2756 1.378 . S
C2758 C2759 1.367 . S
C2759 C2758 1.367 . S
C2759 C2761 1.433 . S
C2760 C2756 1.350 . S
C2760 C2757 1.463 . S
C2760 N2764 1.427 . S
C2761 H2751 0.929 . S
C2761 C2759 1.433 . S
C2761 N2764 1.384 . S
C2762 H2753 0.929 . S
C2762 C2754 1.378 . S
C2762 C2757 1.350 . S
C2763 H2750 0.929 . S
C2763 C2755 1.433 . S
C2763 N2765 1.384 . S
N2764 C2760 1.427 . S
N2764 C2761 1.384 . S
N2765 C2757 1.427 . S
N2765 C2763 1.384 . S
H2766 C2772 0.930 . S
H2767 C2776 0.930 . S
H2768 C2781 0.929 . S
H2769 C2779 0.929 . S
H2770 C2774 0.929 . S
H2771 C2780 0.929 . S
C2772 H2766 0.930 . S
C2772 C2773 1.367 . S
C2772 C2780 1.378 . S
C2773 C2772 1.367 . S
C2773 C2781 1.433 . S
C2774 H2770 0.929 . S
C2774 C2776 1.378 . S
C2774 C2778 1.350 . S
C2775 C2778 1.463 . S
C2775 C2780 1.350 . S
C2775 N2783 1.427 . S
C2776 H2767 0.930 . S
C2776 C2774 1.378 . S
C2776 C2777 1.367 . S
C2777 C2776 1.367 . S
C2777 C2779 1.433 . S
C2778 C2774 1.350 . S
C2778 C2775 1.463 . S
C2778 N2782 1.427 . S
C2779 H2769 0.929 . S
C2779 C2777 1.433 . S
C2779 N2782 1.384 . S
C2780 H2771 0.929 . S
C2780 C2772 1.378 . S
C2780 C2775 1.350 . S
C2781 H2768 0.929 . S
C2781 C2773 1.433 . S
C2781 N2783 1.384 . S
N2782 C2778 1.427 . S
N2782 C2779 1.384 . S
N2783 C2775 1.427 . S
N2783 C2781 1.384 . S
H2784 C2790 0.930 . S
H2785 C2794 0.930 . S
H2786 C2799 0.929 . S
H2787 C2797 0.929 . S
H2788 C2792 0.929 . S
H2789 C2798 0.929 . S
C2790 H2784 0.930 . S
C2790 C2791 1.367 . S
C2790 C2798 1.378 . S
C2791 C2790 1.367 . S
C2791 C2799 1.433 . S
C2792 H2788 0.929 . S
C2792 C2794 1.378 . S
C2792 C2796 1.350 . S
C2793 C2796 1.463 . S
C2793 C2798 1.350 . S
C2793 N2801 1.427 . S
C2794 H2785 0.930 . S
C2794 C2792 1.378 . S
C2794 C2795 1.367 . S
C2795 C2794 1.367 . S
C2795 C2797 1.433 . S
C2796 C2792 1.350 . S
C2796 C2793 1.463 . S
C2796 N2800 1.427 . S
C2797 H2787 0.929 . S
C2797 C2795 1.433 . S
C2797 N2800 1.384 . S
C2798 H2789 0.929 . S
C2798 C2790 1.378 . S
C2798 C2793 1.350 . S
C2799 H2786 0.929 . S
C2799 C2791 1.433 . S
C2799 N2801 1.384 . S
N2800 C2796 1.427 . S
N2800 C2797 1.384 . S
N2801 C2793 1.427 . S
N2801 C2799 1.384 . S
H2802 C2808 0.930 . S
H2803 C2812 0.930 . S
H2804 C2817 0.929 . S
H2805 C2815 0.929 . S
H2806 C2810 0.929 . S
H2807 C2816 0.929 . S
C2808 H2802 0.930 . S
C2808 C2809 1.367 . S
C2808 C2816 1.378 . S
C2809 C2808 1.367 . S
C2809 C2817 1.433 . S
C2810 H2806 0.929 . S
C2810 C2812 1.378 . S
C2810 C2814 1.350 . S
C2811 C2814 1.463 . S
C2811 C2816 1.350 . S
C2811 N2819 1.427 . S
C2812 H2803 0.930 . S
C2812 C2810 1.378 . S
C2812 C2813 1.367 . S
C2813 C2812 1.367 . S
C2813 C2815 1.433 . S
C2814 C2810 1.350 . S
C2814 C2811 1.463 . S
C2814 N2818 1.427 . S
C2815 H2805 0.929 . S
C2815 C2813 1.433 . S
C2815 N2818 1.384 . S
C2816 H2807 0.929 . S
C2816 C2808 1.378 . S
C2816 C2811 1.350 . S
C2817 H2804 0.929 . S
C2817 C2809 1.433 . S
C2817 N2819 1.384 . S
N2818 C2814 1.427 . S
N2818 C2815 1.384 . S
N2819 C2811 1.427 . S
N2819 C2817 1.384 . S
H2820 C2826 0.930 . S
H2821 C2830 0.930 . S
H2822 C2835 0.929 . S
H2823 C2833 0.929 . S
H2824 C2828 0.929 . S
H2825 C2834 0.929 . S
C2826 H2820 0.930 . S
C2826 C2827 1.367 . S
C2826 C2834 1.378 . S
C2827 C2826 1.367 . S
C2827 C2835 1.433 . S
C2828 H2824 0.929 . S
C2828 C2830 1.378 . S
C2828 C2832 1.350 . S
C2829 C2832 1.463 . S
C2829 C2834 1.350 . S
C2829 N2837 1.427 . S
C2830 H2821 0.930 . S
C2830 C2828 1.378 . S
C2830 C2831 1.367 . S
C2831 C2830 1.367 . S
C2831 C2833 1.433 . S
C2832 C2828 1.350 . S
C2832 C2829 1.463 . S
C2832 N2836 1.427 . S
C2833 H2823 0.929 . S
C2833 C2831 1.433 . S
C2833 N2836 1.384 . S
C2834 H2825 0.929 . S
C2834 C2826 1.378 . S
C2834 C2829 1.350 . S
C2835 H2822 0.929 . S
C2835 C2827 1.433 . S
C2835 N2837 1.384 . S
N2836 C2832 1.427 . S
N2836 C2833 1.384 . S
N2837 C2829 1.427 . S
N2837 C2835 1.384 . S
H2838 C2844 0.930 . S
H2839 C2848 0.930 . S
H2840 C2853 0.929 . S
H2841 C2851 0.929 . S
H2842 C2846 0.929 . S
H2843 C2852 0.929 . S
C2844 H2838 0.930 . S
C2844 C2845 1.367 . S
C2844 C2852 1.378 . S
C2845 C2844 1.367 . S
C2845 C2853 1.433 . S
C2846 H2842 0.929 . S
C2846 C2848 1.378 . S
C2846 C2850 1.350 . S
C2847 C2850 1.463 . S
C2847 C2852 1.350 . S
C2847 N2855 1.427 . S
C2848 H2839 0.930 . S
C2848 C2846 1.378 . S
C2848 C2849 1.367 . S
C2849 C2848 1.367 . S
C2849 C2851 1.433 . S
C2850 C2846 1.350 . S
C2850 C2847 1.463 . S
C2850 N2854 1.427 . S
C2851 H2841 0.929 . S
C2851 C2849 1.433 . S
C2851 N2854 1.384 . S
C2852 H2843 0.929 . S
C2852 C2844 1.378 . S
C2852 C2847 1.350 . S
C2853 H2840 0.929 . S
C2853 C2845 1.433 . S
C2853 N2855 1.384 . S
N2854 C2850 1.427 . S
N2854 C2851 1.384 . S
N2855 C2847 1.427 . S
N2855 C2853 1.384 . S
H2856 C2862 0.930 . S
H2857 C2866 0.930 . S
H2858 C2871 0.929 . S
H2859 C2869 0.929 . S
H2860 C2864 0.929 . S
H2861 C2870 0.929 . S
C2862 H2856 0.930 . S
C2862 C2863 1.367 . S
C2862 C2870 1.378 . S
C2863 C2862 1.367 . S
C2863 C2871 1.433 . S
C2864 H2860 0.929 . S
C2864 C2866 1.378 . S
C2864 C2868 1.350 . S
C2865 C2868 1.463 . S
C2865 C2870 1.350 . S
C2865 N2873 1.427 . S
C2866 H2857 0.930 . S
C2866 C2864 1.378 . S
C2866 C2867 1.367 . S
C2867 C2866 1.367 . S
C2867 C2869 1.433 . S
C2868 C2864 1.350 . S
C2868 C2865 1.463 . S
C2868 N2872 1.427 . S
C2869 H2859 0.929 . S
C2869 C2867 1.433 . S
C2869 N2872 1.384 . S
C2870 H2861 0.929 . S
C2870 C2862 1.378 . S
C2870 C2865 1.350 . S
C2871 H2858 0.929 . S
C2871 C2863 1.433 . S
C2871 N2873 1.384 . S
N2872 C2868 1.427 . S
N2872 C2869 1.384 . S
N2873 C2865 1.427 . S
N2873 C2871 1.384 . S
H2874 C2880 0.930 . S
H2875 C2884 0.930 . S
H2876 C2889 0.929 . S
H2877 C2887 0.929 . S
H2878 C2882 0.929 . S
H2879 C2888 0.929 . S
C2880 H2874 0.930 . S
C2880 C2881 1.367 . S
C2880 C2888 1.378 . S
C2881 C2880 1.367 . S
C2881 C2889 1.433 . S
C2882 H2878 0.929 . S
C2882 C2884 1.378 . S
C2882 C2886 1.350 . S
C2883 C2886 1.463 . S
C2883 C2888 1.350 . S
C2883 N2891 1.427 . S
C2884 H2875 0.930 . S
C2884 C2882 1.378 . S
C2884 C2885 1.367 . S
C2885 C2884 1.367 . S
C2885 C2887 1.433 . S
C2886 C2882 1.350 . S
C2886 C2883 1.463 . S
C2886 N2890 1.427 . S
C2887 H2877 0.929 . S
C2887 C2885 1.433 . S
C2887 N2890 1.384 . S
C2888 H2879 0.929 . S
C2888 C2880 1.378 . S
C2888 C2883 1.350 . S
C2889 H2876 0.929 . S
C2889 C2881 1.433 . S
C2889 N2891 1.384 . S
N2890 C2886 1.427 . S
N2890 C2887 1.384 . S
N2891 C2883 1.427 . S
N2891 C2889 1.384 . S
H2892 C2898 0.930 . S
H2893 C2902 0.930 . S
H2894 C2907 0.929 . S
H2895 C2905 0.929 . S
H2896 C2900 0.929 . S
H2897 C2906 0.929 . S
C2898 H2892 0.930 . S
C2898 C2899 1.367 . S
C2898 C2906 1.378 . S
C2899 C2898 1.367 . S
C2899 C2907 1.433 . S
C2900 H2896 0.929 . S
C2900 C2902 1.378 . S
C2900 C2904 1.350 . S
C2901 C2904 1.463 . S
C2901 C2906 1.350 . S
C2901 N2909 1.427 . S
C2902 H2893 0.930 . S
C2902 C2900 1.378 . S
C2902 C2903 1.367 . S
C2903 C2902 1.367 . S
C2903 C2905 1.433 . S
C2904 C2900 1.350 . S
C2904 C2901 1.463 . S
C2904 N2908 1.427 . S
C2905 H2895 0.929 . S
C2905 C2903 1.433 . S
C2905 N2908 1.384 . S
C2906 H2897 0.929 . S
C2906 C2898 1.378 . S
C2906 C2901 1.350 . S
C2907 H2894 0.929 . S
C2907 C2899 1.433 . S
C2907 N2909 1.384 . S
N2908 C2904 1.427 . S
N2908 C2905 1.384 . S
N2909 C2901 1.427 . S
N2909 C2907 1.384 . S
H2910 C2916 0.930 . S
H2911 C2920 0.930 . S
H2912 C2925 0.929 . S
H2913 C2923 0.929 . S
H2914 C2918 0.929 . S
H2915 C2924 0.929 . S
C2916 H2910 0.930 . S
C2916 C2917 1.367 . S
C2916 C2924 1.378 . S
C2917 C2916 1.367 . S
C2917 C2925 1.433 . S
C2918 H2914 0.929 . S
C2918 C2920 1.378 . S
C2918 C2922 1.350 . S
C2919 C2922 1.463 . S
C2919 C2924 1.350 . S
C2919 N2927 1.427 . S
C2920 H2911 0.930 . S
C2920 C2918 1.378 . S
C2920 C2921 1.367 . S
C2921 C2920 1.367 . S
C2921 C2923 1.433 . S
C2922 C2918 1.350 . S
C2922 C2919 1.463 . S
C2922 N2926 1.427 . S
C2923 H2913 0.929 . S
C2923 C2921 1.433 . S
C2923 N2926 1.384 . S
C2924 H2915 0.929 . S
C2924 C2916 1.378 . S
C2924 C2919 1.350 . S
C2925 H2912 0.929 . S
C2925 C2917 1.433 . S
C2925 N2927 1.384 . S
N2926 C2922 1.427 . S
N2926 C2923 1.384 . S
N2927 C2919 1.427 . S
N2927 C2925 1.384 . S
H2928 C2934 0.930 . S
H2929 C2938 0.930 . S
H2930 C2943 0.929 . S
H2931 C2941 0.929 . S
H2932 C2936 0.929 . S
H2933 C2942 0.929 . S
C2934 H2928 0.930 . S
C2934 C2935 1.367 . S
C2934 C2942 1.378 . S
C2935 C2934 1.367 . S
C2935 C2943 1.433 . S
C2936 H2932 0.929 . S
C2936 C2938 1.378 . S
C2936 C2940 1.350 . S
C2937 C2940 1.463 . S
C2937 C2942 1.350 . S
C2937 N2945 1.427 . S
C2938 H2929 0.930 . S
C2938 C2936 1.378 . S
C2938 C2939 1.367 . S
C2939 C2938 1.367 . S
C2939 C2941 1.433 . S
C2940 C2936 1.350 . S
C2940 C2937 1.463 . S
C2940 N2944 1.427 . S
C2941 H2931 0.929 . S
C2941 C2939 1.433 . S
C2941 N2944 1.384 . S
C2942 H2933 0.929 . S
C2942 C2934 1.378 . S
C2942 C2937 1.350 . S
C2943 H2930 0.929 . S
C2943 C2935 1.433 . S
C2943 N2945 1.384 . S
N2944 C2940 1.427 . S
N2944 C2941 1.384 . S
N2945 C2937 1.427 . S
N2945 C2943 1.384 . S
H2946 C2952 0.930 . S
H2947 C2956 0.930 . S
H2948 C2961 0.929 . S
H2949 C2959 0.929 . S
H2950 C2954 0.929 . S
H2951 C2960 0.929 . S
C2952 H2946 0.930 . S
C2952 C2953 1.367 . S
C2952 C2960 1.378 . S
C2953 C2952 1.367 . S
C2953 C2961 1.433 . S
C2954 H2950 0.929 . S
C2954 C2956 1.378 . S
C2954 C2958 1.350 . S
C2955 C2958 1.463 . S
C2955 C2960 1.350 . S
C2955 N2963 1.427 . S
C2956 H2947 0.930 . S
C2956 C2954 1.378 . S
C2956 C2957 1.367 . S
C2957 C2956 1.367 . S
C2957 C2959 1.433 . S
C2958 C2954 1.350 . S
C2958 C2955 1.463 . S
C2958 N2962 1.427 . S
C2959 H2949 0.929 . S
C2959 C2957 1.433 . S
C2959 N2962 1.384 . S
C2960 H2951 0.929 . S
C2960 C2952 1.378 . S
C2960 C2955 1.350 . S
C2961 H2948 0.929 . S
C2961 C2953 1.433 . S
C2961 N2963 1.384 . S
N2962 C2958 1.427 . S
N2962 C2959 1.384 . S
N2963 C2955 1.427 . S
N2963 C2961 1.384 . S
H2964 C2970 0.930 . S
H2965 C2974 0.930 . S
H2966 C2979 0.929 . S
H2967 C2977 0.929 . S
H2968 C2972 0.929 . S
H2969 C2978 0.929 . S
C2970 H2964 0.930 . S
C2970 C2971 1.367 . S
C2970 C2978 1.378 . S
C2971 C2970 1.367 . S
C2971 C2979 1.433 . S
C2972 H2968 0.929 . S
C2972 C2974 1.378 . S
C2972 C2976 1.350 . S
C2973 C2976 1.463 . S
C2973 C2978 1.350 . S
C2973 N2981 1.427 . S
C2974 H2965 0.930 . S
C2974 C2972 1.378 . S
C2974 C2975 1.367 . S
C2975 C2974 1.367 . S
C2975 C2977 1.433 . S
C2976 C2972 1.350 . S
C2976 C2973 1.463 . S
C2976 N2980 1.427 . S
C2977 H2967 0.929 . S
C2977 C2975 1.433 . S
C2977 N2980 1.384 . S
C2978 H2969 0.929 . S
C2978 C2970 1.378 . S
C2978 C2973 1.350 . S
C2979 H2966 0.929 . S
C2979 C2971 1.433 . S
C2979 N2981 1.384 . S
N2980 C2976 1.427 . S
N2980 C2977 1.384 . S
N2981 C2973 1.427 . S
N2981 C2979 1.384 . S
H2982 C2988 0.930 . S
H2983 C2992 0.930 . S
H2984 C2997 0.929 . S
H2985 C2995 0.929 . S
H2986 C2990 0.929 . S
H2987 C2996 0.929 . S
C2988 H2982 0.930 . S
C2988 C2989 1.367 . S
C2988 C2996 1.378 . S
C2989 C2988 1.367 . S
C2989 C2997 1.433 . S
C2990 H2986 0.929 . S
C2990 C2992 1.378 . S
C2990 C2994 1.350 . S
C2991 C2994 1.463 . S
C2991 C2996 1.350 . S
C2991 N2999 1.427 . S
C2992 H2983 0.930 . S
C2992 C2990 1.378 . S
C2992 C2993 1.367 . S
C2993 C2992 1.367 . S
C2993 C2995 1.433 . S
C2994 C2990 1.350 . S
C2994 C2991 1.463 . S
C2994 N2998 1.427 . S
C2995 H2985 0.929 . S
C2995 C2993 1.433 . S
C2995 N2998 1.384 . S
C2996 H2987 0.929 . S
C2996 C2988 1.378 . S
C2996 C2991 1.350 . S
C2997 H2984 0.929 . S
C2997 C2989 1.433 . S
C2997 N2999 1.384 . S
N2998 C2994 1.427 . S
N2998 C2995 1.384 . S
N2999 C2991 1.427 . S
N2999 C2997 1.384 . S
H3000 C3006 0.930 . S
H3001 C3010 0.930 . S
H3002 C3015 0.929 . S
H3003 C3013 0.929 . S
H3004 C3008 0.929 . S
H3005 C3014 0.929 . S
C3006 H3000 0.930 . S
C3006 C3007 1.367 . S
C3006 C3014 1.378 . S
C3007 C3006 1.367 . S
C3007 C3015 1.433 . S
C3008 H3004 0.929 . S
C3008 C3010 1.378 . S
C3008 C3012 1.350 . S
C3009 C3012 1.463 . S
C3009 C3014 1.350 . S
C3009 N3017 1.427 . S
C3010 H3001 0.930 . S
C3010 C3008 1.378 . S
C3010 C3011 1.367 . S
C3011 C3010 1.367 . S
C3011 C3013 1.433 . S
C3012 C3008 1.350 . S
C3012 C3009 1.463 . S
C3012 N3016 1.427 . S
C3013 H3003 0.929 . S
C3013 C3011 1.433 . S
C3013 N3016 1.384 . S
C3014 H3005 0.929 . S
C3014 C3006 1.378 . S
C3014 C3009 1.350 . S
C3015 H3002 0.929 . S
C3015 C3007 1.433 . S
C3015 N3017 1.384 . S
N3016 C3012 1.427 . S
N3016 C3013 1.384 . S
N3017 C3009 1.427 . S
N3017 C3015 1.384 . S
H3018 C3024 0.930 . S
H3019 C3028 0.930 . S
H3020 C3033 0.929 . S
H3021 C3031 0.929 . S
H3022 C3026 0.929 . S
H3023 C3032 0.929 . S
C3024 H3018 0.930 . S
C3024 C3025 1.367 . S
C3024 C3032 1.378 . S
C3025 C3024 1.367 . S
C3025 C3033 1.433 . S
C3026 H3022 0.929 . S
C3026 C3028 1.378 . S
C3026 C3030 1.350 . S
C3027 C3030 1.463 . S
C3027 C3032 1.350 . S
C3027 N3035 1.427 . S
C3028 H3019 0.930 . S
C3028 C3026 1.378 . S
C3028 C3029 1.367 . S
C3029 C3028 1.367 . S
C3029 C3031 1.433 . S
C3030 C3026 1.350 . S
C3030 C3027 1.463 . S
C3030 N3034 1.427 . S
C3031 H3021 0.929 . S
C3031 C3029 1.433 . S
C3031 N3034 1.384 . S
C3032 H3023 0.929 . S
C3032 C3024 1.378 . S
C3032 C3027 1.350 . S
C3033 H3020 0.929 . S
C3033 C3025 1.433 . S
C3033 N3035 1.384 . S
N3034 C3030 1.427 . S
N3034 C3031 1.384 . S
N3035 C3027 1.427 . S
N3035 C3033 1.384 . S
H3036 C3042 0.930 . S
H3037 C3046 0.930 . S
H3038 C3051 0.929 . S
H3039 C3049 0.929 . S
H3040 C3044 0.929 . S
H3041 C3050 0.929 . S
C3042 H3036 0.930 . S
C3042 C3043 1.367 . S
C3042 C3050 1.378 . S
C3043 C3042 1.367 . S
C3043 C3051 1.433 . S
C3044 H3040 0.929 . S
C3044 C3046 1.378 . S
C3044 C3048 1.350 . S
C3045 C3048 1.463 . S
C3045 C3050 1.350 . S
C3045 N3053 1.427 . S
C3046 H3037 0.930 . S
C3046 C3044 1.378 . S
C3046 C3047 1.367 . S
C3047 C3046 1.367 . S
C3047 C3049 1.433 . S
C3048 C3044 1.350 . S
C3048 C3045 1.463 . S
C3048 N3052 1.427 . S
C3049 H3039 0.929 . S
C3049 C3047 1.433 . S
C3049 N3052 1.384 . S
C3050 H3041 0.929 . S
C3050 C3042 1.378 . S
C3050 C3045 1.350 . S
C3051 H3038 0.929 . S
C3051 C3043 1.433 . S
C3051 N3053 1.384 . S
N3052 C3048 1.427 . S
N3052 C3049 1.384 . S
N3053 C3045 1.427 . S
N3053 C3051 1.384 . S
H3054 C3060 0.930 . S
H3055 C3064 0.930 . S
H3056 C3069 0.929 . S
H3057 C3067 0.929 . S
H3058 C3062 0.929 . S
H3059 C3068 0.929 . S
C3060 H3054 0.930 . S
C3060 C3061 1.367 . S
C3060 C3068 1.378 . S
C3061 C3060 1.367 . S
C3061 C3069 1.433 . S
C3062 H3058 0.929 . S
C3062 C3064 1.378 . S
C3062 C3066 1.350 . S
C3063 C3066 1.463 . S
C3063 C3068 1.350 . S
C3063 N3071 1.427 . S
C3064 H3055 0.930 . S
C3064 C3062 1.378 . S
C3064 C3065 1.367 . S
C3065 C3064 1.367 . S
C3065 C3067 1.433 . S
C3066 C3062 1.350 . S
C3066 C3063 1.463 . S
C3066 N3070 1.427 . S
C3067 H3057 0.929 . S
C3067 C3065 1.433 . S
C3067 N3070 1.384 . S
C3068 H3059 0.929 . S
C3068 C3060 1.378 . S
C3068 C3063 1.350 . S
C3069 H3056 0.929 . S
C3069 C3061 1.433 . S
C3069 N3071 1.384 . S
N3070 C3066 1.427 . S
N3070 C3067 1.384 . S
N3071 C3063 1.427 . S
N3071 C3069 1.384 . S
H3072 C3078 0.930 . S
H3073 C3082 0.930 . S
H3074 C3087 0.929 . S
H3075 C3085 0.929 . S
H3076 C3080 0.929 . S
H3077 C3086 0.929 . S
C3078 H3072 0.930 . S
C3078 C3079 1.367 . S
C3078 C3086 1.378 . S
C3079 C3078 1.367 . S
C3079 C3087 1.433 . S
C3080 H3076 0.929 . S
C3080 C3082 1.378 . S
C3080 C3084 1.350 . S
C3081 C3084 1.463 . S
C3081 C3086 1.350 . S
C3081 N3089 1.427 . S
C3082 H3073 0.930 . S
C3082 C3080 1.378 . S
C3082 C3083 1.367 . S
C3083 C3082 1.367 . S
C3083 C3085 1.433 . S
C3084 C3080 1.350 . S
C3084 C3081 1.463 . S
C3084 N3088 1.427 . S
C3085 H3075 0.929 . S
C3085 C3083 1.433 . S
C3085 N3088 1.384 . S
C3086 H3077 0.929 . S
C3086 C3078 1.378 . S
C3086 C3081 1.350 . S
C3087 H3074 0.929 . S
C3087 C3079 1.433 . S
C3087 N3089 1.384 . S
N3088 C3084 1.427 . S
N3088 C3085 1.384 . S
N3089 C3081 1.427 . S
N3089 C3087 1.384 . S
H3090 C3096 0.930 . S
H3091 C3100 0.930 . S
H3092 C3105 0.929 . S
H3093 C3103 0.929 . S
H3094 C3098 0.929 . S
H3095 C3104 0.929 . S
C3096 H3090 0.930 . S
C3096 C3097 1.367 . S
C3096 C3104 1.378 . S
C3097 C3096 1.367 . S
C3097 C3105 1.433 . S
C3098 H3094 0.929 . S
C3098 C3100 1.378 . S
C3098 C3102 1.350 . S
C3099 C3102 1.463 . S
C3099 C3104 1.350 . S
C3099 N3107 1.427 . S
C3100 H3091 0.930 . S
C3100 C3098 1.378 . S
C3100 C3101 1.367 . S
C3101 C3100 1.367 . S
C3101 C3103 1.433 . S
C3102 C3098 1.350 . S
C3102 C3099 1.463 . S
C3102 N3106 1.427 . S
C3103 H3093 0.929 . S
C3103 C3101 1.433 . S
C3103 N3106 1.384 . S
C3104 H3095 0.929 . S
C3104 C3096 1.378 . S
C3104 C3099 1.350 . S
C3105 H3092 0.929 . S
C3105 C3097 1.433 . S
C3105 N3107 1.384 . S
N3106 C3102 1.427 . S
N3106 C3103 1.384 . S
N3107 C3099 1.427 . S
N3107 C3105 1.384 . S
H3108 C3114 0.930 . S
H3109 C3118 0.930 . S
H3110 C3123 0.929 . S
H3111 C3121 0.929 . S
H3112 C3116 0.929 . S
H3113 C3122 0.929 . S
C3114 H3108 0.930 . S
C3114 C3115 1.367 . S
C3114 C3122 1.378 . S
C3115 C3114 1.367 . S
C3115 C3123 1.433 . S
C3116 H3112 0.929 . S
C3116 C3118 1.378 . S
C3116 C3120 1.350 . S
C3117 C3120 1.463 . S
C3117 C3122 1.350 . S
C3117 N3125 1.427 . S
C3118 H3109 0.930 . S
C3118 C3116 1.378 . S
C3118 C3119 1.367 . S
C3119 C3118 1.367 . S
C3119 C3121 1.433 . S
C3120 C3116 1.350 . S
C3120 C3117 1.463 . S
C3120 N3124 1.427 . S
C3121 H3111 0.929 . S
C3121 C3119 1.433 . S
C3121 N3124 1.384 . S
C3122 H3113 0.929 . S
C3122 C3114 1.378 . S
C3122 C3117 1.350 . S
C3123 H3110 0.929 . S
C3123 C3115 1.433 . S
C3123 N3125 1.384 . S
N3124 C3120 1.427 . S
N3124 C3121 1.384 . S
N3125 C3117 1.427 . S
N3125 C3123 1.384 . S
H3126 C3132 0.930 . S
H3127 C3136 0.930 . S
H3128 C3141 0.929 . S
H3129 C3139 0.929 . S
H3130 C3134 0.929 . S
H3131 C3140 0.929 . S
C3132 H3126 0.930 . S
C3132 C3133 1.367 . S
C3132 C3140 1.378 . S
C3133 C3132 1.367 . S
C3133 C3141 1.433 . S
C3134 H3130 0.929 . S
C3134 C3136 1.378 . S
C3134 C3138 1.350 . S
C3135 C3138 1.463 . S
C3135 C3140 1.350 . S
C3135 N3143 1.427 . S
C3136 H3127 0.930 . S
C3136 C3134 1.378 . S
C3136 C3137 1.367 . S
C3137 C3136 1.367 . S
C3137 C3139 1.433 . S
C3138 C3134 1.350 . S
C3138 C3135 1.463 . S
C3138 N3142 1.427 . S
C3139 H3129 0.929 . S
C3139 C3137 1.433 . S
C3139 N3142 1.384 . S
C3140 H3131 0.929 . S
C3140 C3132 1.378 . S
C3140 C3135 1.350 . S
C3141 H3128 0.929 . S
C3141 C3133 1.433 . S
C3141 N3143 1.384 . S
N3142 C3138 1.427 . S
N3142 C3139 1.384 . S
N3143 C3135 1.427 . S
N3143 C3141 1.384 . S
H3144 C3150 0.930 . S
H3145 C3154 0.930 . S
H3146 C3159 0.929 . S
H3147 C3157 0.929 . S
H3148 C3152 0.929 . S
H3149 C3158 0.929 . S
C3150 H3144 0.930 . S
C3150 C3151 1.367 . S
C3150 C3158 1.378 . S
C3151 C3150 1.367 . S
C3151 C3159 1.433 . S
C3152 H3148 0.929 . S
C3152 C3154 1.378 . S
C3152 C3156 1.350 . S
C3153 C3156 1.463 . S
C3153 C3158 1.350 . S
C3153 N3161 1.427 . S
C3154 H3145 0.930 . S
C3154 C3152 1.378 . S
C3154 C3155 1.367 . S
C3155 C3154 1.367 . S
C3155 C3157 1.433 . S
C3156 C3152 1.350 . S
C3156 C3153 1.463 . S
C3156 N3160 1.427 . S
C3157 H3147 0.929 . S
C3157 C3155 1.433 . S
C3157 N3160 1.384 . S
C3158 H3149 0.929 . S
C3158 C3150 1.378 . S
C3158 C3153 1.350 . S
C3159 H3146 0.929 . S
C3159 C3151 1.433 . S
C3159 N3161 1.384 . S
N3160 C3156 1.427 . S
N3160 C3157 1.384 . S
N3161 C3153 1.427 . S
N3161 C3159 1.384 . S
H3162 C3168 0.930 . S
H3163 C3172 0.930 . S
H3164 C3177 0.929 . S
H3165 C3175 0.929 . S
H3166 C3170 0.929 . S
H3167 C3176 0.929 . S
C3168 H3162 0.930 . S
C3168 C3169 1.367 . S
C3168 C3176 1.378 . S
C3169 C3168 1.367 . S
C3169 C3177 1.433 . S
C3170 H3166 0.929 . S
C3170 C3172 1.378 . S
C3170 C3174 1.350 . S
C3171 C3174 1.463 . S
C3171 C3176 1.350 . S
C3171 N3179 1.427 . S
C3172 H3163 0.930 . S
C3172 C3170 1.378 . S
C3172 C3173 1.367 . S
C3173 C3172 1.367 . S
C3173 C3175 1.433 . S
C3174 C3170 1.350 . S
C3174 C3171 1.463 . S
C3174 N3178 1.427 . S
C3175 H3165 0.929 . S
C3175 C3173 1.433 . S
C3175 N3178 1.384 . S
C3176 H3167 0.929 . S
C3176 C3168 1.378 . S
C3176 C3171 1.350 . S
C3177 H3164 0.929 . S
C3177 C3169 1.433 . S
C3177 N3179 1.384 . S
N3178 C3174 1.427 . S
N3178 C3175 1.384 . S
N3179 C3171 1.427 . S
N3179 C3177 1.384 . S
H3180 C3186 0.930 . S
H3181 C3190 0.930 . S
H3182 C3195 0.929 . S
H3183 C3193 0.929 . S
H3184 C3188 0.929 . S
H3185 C3194 0.929 . S
C3186 H3180 0.930 . S
C3186 C3187 1.367 . S
C3186 C3194 1.378 . S
C3187 C3186 1.367 . S
C3187 C3195 1.433 . S
C3188 H3184 0.929 . S
C3188 C3190 1.378 . S
C3188 C3192 1.350 . S
C3189 C3192 1.463 . S
C3189 C3194 1.350 . S
C3189 N3197 1.427 . S
C3190 H3181 0.930 . S
C3190 C3188 1.378 . S
C3190 C3191 1.367 . S
C3191 C3190 1.367 . S
C3191 C3193 1.433 . S
C3192 C3188 1.350 . S
C3192 C3189 1.463 . S
C3192 N3196 1.427 . S
C3193 H3183 0.929 . S
C3193 C3191 1.433 . S
C3193 N3196 1.384 . S
C3194 H3185 0.929 . S
C3194 C3186 1.378 . S
C3194 C3189 1.350 . S
C3195 H3182 0.929 . S
C3195 C3187 1.433 . S
C3195 N3197 1.384 . S
N3196 C3192 1.427 . S
N3196 C3193 1.384 . S
N3197 C3189 1.427 . S
N3197 C3195 1.384 . S
H3198 C3204 0.930 . S
H3199 C3208 0.930 . S
H3200 C3213 0.929 . S
H3201 C3211 0.929 . S
H3202 C3206 0.929 . S
H3203 C3212 0.929 . S
C3204 H3198 0.930 . S
C3204 C3205 1.367 . S
C3204 C3212 1.378 . S
C3205 C3204 1.367 . S
C3205 C3213 1.433 . S
C3206 H3202 0.929 . S
C3206 C3208 1.378 . S
C3206 C3210 1.350 . S
C3207 C3210 1.463 . S
C3207 C3212 1.350 . S
C3207 N3215 1.427 . S
C3208 H3199 0.930 . S
C3208 C3206 1.378 . S
C3208 C3209 1.367 . S
C3209 C3208 1.367 . S
C3209 C3211 1.433 . S
C3210 C3206 1.350 . S
C3210 C3207 1.463 . S
C3210 N3214 1.427 . S
C3211 H3201 0.929 . S
C3211 C3209 1.433 . S
C3211 N3214 1.384 . S
C3212 H3203 0.929 . S
C3212 C3204 1.378 . S
C3212 C3207 1.350 . S
C3213 H3200 0.929 . S
C3213 C3205 1.433 . S
C3213 N3215 1.384 . S
N3214 C3210 1.427 . S
N3214 C3211 1.384 . S
N3215 C3207 1.427 . S
N3215 C3213 1.384 . S
H3216 C3222 0.930 . S
H3217 C3226 0.930 . S
H3218 C3231 0.929 . S
H3219 C3229 0.929 . S
H3220 C3224 0.929 . S
H3221 C3230 0.929 . S
C3222 H3216 0.930 . S
C3222 C3223 1.367 . S
C3222 C3230 1.378 . S
C3223 C3222 1.367 . S
C3223 C3231 1.433 . S
C3224 H3220 0.929 . S
C3224 C3226 1.378 . S
C3224 C3228 1.350 . S
C3225 C3228 1.463 . S
C3225 C3230 1.350 . S
C3225 N3233 1.427 . S
C3226 H3217 0.930 . S
C3226 C3224 1.378 . S
C3226 C3227 1.367 . S
C3227 C3226 1.367 . S
C3227 C3229 1.433 . S
C3228 C3224 1.350 . S
C3228 C3225 1.463 . S
C3228 N3232 1.427 . S
C3229 H3219 0.929 . S
C3229 C3227 1.433 . S
C3229 N3232 1.384 . S
C3230 H3221 0.929 . S
C3230 C3222 1.378 . S
C3230 C3225 1.350 . S
C3231 H3218 0.929 . S
C3231 C3223 1.433 . S
C3231 N3233 1.384 . S
N3232 C3228 1.427 . S
N3232 C3229 1.384 . S
N3233 C3225 1.427 . S
N3233 C3231 1.384 . S
H3234 C3240 0.930 . S
H3235 C3244 0.930 . S
H3236 C3249 0.929 . S
H3237 C3247 0.929 . S
H3238 C3242 0.929 . S
H3239 C3248 0.929 . S
C3240 H3234 0.930 . S
C3240 C3241 1.367 . S
C3240 C3248 1.378 . S
C3241 C3240 1.367 . S
C3241 C3249 1.433 . S
C3242 H3238 0.929 . S
C3242 C3244 1.378 . S
C3242 C3246 1.350 . S
C3243 C3246 1.463 . S
C3243 C3248 1.350 . S
C3243 N3251 1.427 . S
C3244 H3235 0.930 . S
C3244 C3242 1.378 . S
C3244 C3245 1.367 . S
C3245 C3244 1.367 . S
C3245 C3247 1.433 . S
C3246 C3242 1.350 . S
C3246 C3243 1.463 . S
C3246 N3250 1.427 . S
C3247 H3237 0.929 . S
C3247 C3245 1.433 . S
C3247 N3250 1.384 . S
C3248 H3239 0.929 . S
C3248 C3240 1.378 . S
C3248 C3243 1.350 . S
C3249 H3236 0.929 . S
C3249 C3241 1.433 . S
C3249 N3251 1.384 . S
N3250 C3246 1.427 . S
N3250 C3247 1.384 . S
N3251 C3243 1.427 . S
N3251 C3249 1.384 . S
H3252 C3258 0.930 . S
H3253 C3262 0.930 . S
H3254 C3267 0.929 . S
H3255 C3265 0.929 . S
H3256 C3260 0.929 . S
H3257 C3266 0.929 . S
C3258 H3252 0.930 . S
C3258 C3259 1.367 . S
C3258 C3266 1.378 . S
C3259 C3258 1.367 . S
C3259 C3267 1.433 . S
C3260 H3256 0.929 . S
C3260 C3262 1.378 . S
C3260 C3264 1.350 . S
C3261 C3264 1.463 . S
C3261 C3266 1.350 . S
C3261 N3269 1.427 . S
C3262 H3253 0.930 . S
C3262 C3260 1.378 . S
C3262 C3263 1.367 . S
C3263 C3262 1.367 . S
C3263 C3265 1.433 . S
C3264 C3260 1.350 . S
C3264 C3261 1.463 . S
C3264 N3268 1.427 . S
C3265 H3255 0.929 . S
C3265 C3263 1.433 . S
C3265 N3268 1.384 . S
C3266 H3257 0.929 . S
C3266 C3258 1.378 . S
C3266 C3261 1.350 . S
C3267 H3254 0.929 . S
C3267 C3259 1.433 . S
C3267 N3269 1.384 . S
N3268 C3264 1.427 . S
N3268 C3265 1.384 . S
N3269 C3261 1.427 . S
N3269 C3267 1.384 . S
H3270 C3276 0.930 . S
H3271 C3280 0.930 . S
H3272 C3285 0.929 . S
H3273 C3283 0.929 . S
H3274 C3278 0.929 . S
H3275 C3284 0.929 . S
C3276 H3270 0.930 . S
C3276 C3277 1.367 . S
C3276 C3284 1.378 . S
C3277 C3276 1.367 . S
C3277 C3285 1.433 . S
C3278 H3274 0.929 . S
C3278 C3280 1.378 . S
C3278 C3282 1.350 . S
C3279 C3282 1.463 . S
C3279 C3284 1.350 . S
C3279 N3287 1.427 . S
C3280 H3271 0.930 . S
C3280 C3278 1.378 . S
C3280 C3281 1.367 . S
C3281 C3280 1.367 . S
C3281 C3283 1.433 . S
C3282 C3278 1.350 . S
C3282 C3279 1.463 . S
C3282 N3286 1.427 . S
C3283 H3273 0.929 . S
C3283 C3281 1.433 . S
C3283 N3286 1.384 . S
C3284 H3275 0.929 . S
C3284 C3276 1.378 . S
C3284 C3279 1.350 . S
C3285 H3272 0.929 . S
C3285 C3277 1.433 . S
C3285 N3287 1.384 . S
N3286 C3282 1.427 . S
N3286 C3283 1.384 . S
N3287 C3279 1.427 . S
N3287 C3285 1.384 . S
H3288 C3294 0.930 . S
H3289 C3298 0.930 . S
H3290 C3303 0.929 . S
H3291 C3301 0.929 . S
H3292 C3296 0.929 . S
H3293 C3302 0.929 . S
C3294 H3288 0.930 . S
C3294 C3295 1.367 . S
C3294 C3302 1.378 . S
C3295 C3294 1.367 . S
C3295 C3303 1.433 . S
C3296 H3292 0.929 . S
C3296 C3298 1.378 . S
C3296 C3300 1.350 . S
C3297 C3300 1.463 . S
C3297 C3302 1.350 . S
C3297 N3305 1.427 . S
C3298 H3289 0.930 . S
C3298 C3296 1.378 . S
C3298 C3299 1.367 . S
C3299 C3298 1.367 . S
C3299 C3301 1.433 . S
C3300 C3296 1.350 . S
C3300 C3297 1.463 . S
C3300 N3304 1.427 . S
C3301 H3291 0.929 . S
C3301 C3299 1.433 . S
C3301 N3304 1.384 . S
C3302 H3293 0.929 . S
C3302 C3294 1.378 . S
C3302 C3297 1.350 . S
C3303 H3290 0.929 . S
C3303 C3295 1.433 . S
C3303 N3305 1.384 . S
N3304 C3300 1.427 . S
N3304 C3301 1.384 . S
N3305 C3297 1.427 . S
N3305 C3303 1.384 . S
H3306 C3312 0.930 . S
H3307 C3316 0.930 . S
H3308 C3321 0.929 . S
H3309 C3319 0.929 . S
H3310 C3314 0.929 . S
H3311 C3320 0.929 . S
C3312 H3306 0.930 . S
C3312 C3313 1.367 . S
C3312 C3320 1.378 . S
C3313 C3312 1.367 . S
C3313 C3321 1.433 . S
C3314 H3310 0.929 . S
C3314 C3316 1.378 . S
C3314 C3318 1.350 . S
C3315 C3318 1.463 . S
C3315 C3320 1.350 . S
C3315 N3323 1.427 . S
C3316 H3307 0.930 . S
C3316 C3314 1.378 . S
C3316 C3317 1.367 . S
C3317 C3316 1.367 . S
C3317 C3319 1.433 . S
C3318 C3314 1.350 . S
C3318 C3315 1.463 . S
C3318 N3322 1.427 . S
C3319 H3309 0.929 . S
C3319 C3317 1.433 . S
C3319 N3322 1.384 . S
C3320 H3311 0.929 . S
C3320 C3312 1.378 . S
C3320 C3315 1.350 . S
C3321 H3308 0.929 . S
C3321 C3313 1.433 . S
C3321 N3323 1.384 . S
N3322 C3318 1.427 . S
N3322 C3319 1.384 . S
N3323 C3315 1.427 . S
N3323 C3321 1.384 . S
H3324 C3330 0.930 . S
H3325 C3334 0.930 . S
H3326 C3339 0.929 . S
H3327 C3337 0.929 . S
H3328 C3332 0.929 . S
H3329 C3338 0.929 . S
C3330 H3324 0.930 . S
C3330 C3331 1.367 . S
C3330 C3338 1.378 . S
C3331 C3330 1.367 . S
C3331 C3339 1.433 . S
C3332 H3328 0.929 . S
C3332 C3334 1.378 . S
C3332 C3336 1.350 . S
C3333 C3336 1.463 . S
C3333 C3338 1.350 . S
C3333 N3341 1.427 . S
C3334 H3325 0.930 . S
C3334 C3332 1.378 . S
C3334 C3335 1.367 . S
C3335 C3334 1.367 . S
C3335 C3337 1.433 . S
C3336 C3332 1.350 . S
C3336 C3333 1.463 . S
C3336 N3340 1.427 . S
C3337 H3327 0.929 . S
C3337 C3335 1.433 . S
C3337 N3340 1.384 . S
C3338 H3329 0.929 . S
C3338 C3330 1.378 . S
C3338 C3333 1.350 . S
C3339 H3326 0.929 . S
C3339 C3331 1.433 . S
C3339 N3341 1.384 . S
N3340 C3336 1.427 . S
N3340 C3337 1.384 . S
N3341 C3333 1.427 . S
N3341 C3339 1.384 . S
H3342 C3348 0.930 . S
H3343 C3352 0.930 . S
H3344 C3357 0.929 . S
H3345 C3355 0.929 . S
H3346 C3350 0.929 . S
H3347 C3356 0.929 . S
C3348 H3342 0.930 . S
C3348 C3349 1.367 . S
C3348 C3356 1.378 . S
C3349 C3348 1.367 . S
C3349 C3357 1.433 . S
C3350 H3346 0.929 . S
C3350 C3352 1.378 . S
C3350 C3354 1.350 . S
C3351 C3354 1.463 . S
C3351 C3356 1.350 . S
C3351 N3359 1.427 . S
C3352 H3343 0.930 . S
C3352 C3350 1.378 . S
C3352 C3353 1.367 . S
C3353 C3352 1.367 . S
C3353 C3355 1.433 . S
C3354 C3350 1.350 . S
C3354 C3351 1.463 . S
C3354 N3358 1.427 . S
C3355 H3345 0.929 . S
C3355 C3353 1.433 . S
C3355 N3358 1.384 . S
C3356 H3347 0.929 . S
C3356 C3348 1.378 . S
C3356 C3351 1.350 . S
C3357 H3344 0.929 . S
C3357 C3349 1.433 . S
C3357 N3359 1.384 . S
N3358 C3354 1.427 . S
N3358 C3355 1.384 . S
N3359 C3351 1.427 . S
N3359 C3357 1.384 . S
H3360 C3366 0.930 . S
H3361 C3370 0.930 . S
H3362 C3375 0.929 . S
H3363 C3373 0.929 . S
H3364 C3368 0.929 . S
H3365 C3374 0.929 . S
C3366 H3360 0.930 . S
C3366 C3367 1.367 . S
C3366 C3374 1.378 . S
C3367 C3366 1.367 . S
C3367 C3375 1.433 . S
C3368 H3364 0.929 . S
C3368 C3370 1.378 . S
C3368 C3372 1.350 . S
C3369 C3372 1.463 . S
C3369 C3374 1.350 . S
C3369 N3377 1.427 . S
C3370 H3361 0.930 . S
C3370 C3368 1.378 . S
C3370 C3371 1.367 . S
C3371 C3370 1.367 . S
C3371 C3373 1.433 . S
C3372 C3368 1.350 . S
C3372 C3369 1.463 . S
C3372 N3376 1.427 . S
C3373 H3363 0.929 . S
C3373 C3371 1.433 . S
C3373 N3376 1.384 . S
C3374 H3365 0.929 . S
C3374 C3366 1.378 . S
C3374 C3369 1.350 . S
C3375 H3362 0.929 . S
C3375 C3367 1.433 . S
C3375 N3377 1.384 . S
N3376 C3372 1.427 . S
N3376 C3373 1.384 . S
N3377 C3369 1.427 . S
N3377 C3375 1.384 . S
H3378 C3384 0.930 . S
H3379 C3388 0.930 . S
H3380 C3393 0.929 . S
H3381 C3391 0.929 . S
H3382 C3386 0.929 . S
H3383 C3392 0.929 . S
C3384 H3378 0.930 . S
C3384 C3385 1.367 . S
C3384 C3392 1.378 . S
C3385 C3384 1.367 . S
C3385 C3393 1.433 . S
C3386 H3382 0.929 . S
C3386 C3388 1.378 . S
C3386 C3390 1.350 . S
C3387 C3390 1.463 . S
C3387 C3392 1.350 . S
C3387 N3395 1.427 . S
C3388 H3379 0.930 . S
C3388 C3386 1.378 . S
C3388 C3389 1.367 . S
C3389 C3388 1.367 . S
C3389 C3391 1.433 . S
C3390 C3386 1.350 . S
C3390 C3387 1.463 . S
C3390 N3394 1.427 . S
C3391 H3381 0.929 . S
C3391 C3389 1.433 . S
C3391 N3394 1.384 . S
C3392 H3383 0.929 . S
C3392 C3384 1.378 . S
C3392 C3387 1.350 . S
C3393 H3380 0.929 . S
C3393 C3385 1.433 . S
C3393 N3395 1.384 . S
N3394 C3390 1.427 . S
N3394 C3391 1.384 . S
N3395 C3387 1.427 . S
N3395 C3393 1.384 . S
H3396 C3402 0.930 . S
H3397 C3406 0.930 . S
H3398 C3411 0.929 . S
H3399 C3409 0.929 . S
H3400 C3404 0.929 . S
H3401 C3410 0.929 . S
C3402 H3396 0.930 . S
C3402 C3403 1.367 . S
C3402 C3410 1.378 . S
C3403 C3402 1.367 . S
C3403 C3411 1.433 . S
C3404 H3400 0.929 . S
C3404 C3406 1.378 . S
C3404 C3408 1.350 . S
C3405 C3408 1.463 . S
C3405 C3410 1.350 . S
C3405 N3413 1.427 . S
C3406 H3397 0.930 . S
C3406 C3404 1.378 . S
C3406 C3407 1.367 . S
C3407 C3406 1.367 . S
C3407 C3409 1.433 . S
C3408 C3404 1.350 . S
C3408 C3405 1.463 . S
C3408 N3412 1.427 . S
C3409 H3399 0.929 . S
C3409 C3407 1.433 . S
C3409 N3412 1.384 . S
C3410 H3401 0.929 . S
C3410 C3402 1.378 . S
C3410 C3405 1.350 . S
C3411 H3398 0.929 . S
C3411 C3403 1.433 . S
C3411 N3413 1.384 . S
N3412 C3408 1.427 . S
N3412 C3409 1.384 . S
N3413 C3405 1.427 . S
N3413 C3411 1.384 . S
H3414 C3420 0.930 . S
H3415 C3424 0.930 . S
H3416 C3429 0.929 . S
H3417 C3427 0.929 . S
H3418 C3422 0.929 . S
H3419 C3428 0.929 . S
C3420 H3414 0.930 . S
C3420 C3421 1.367 . S
C3420 C3428 1.378 . S
C3421 C3420 1.367 . S
C3421 C3429 1.433 . S
C3422 H3418 0.929 . S
C3422 C3424 1.378 . S
C3422 C3426 1.350 . S
C3423 C3426 1.463 . S
C3423 C3428 1.350 . S
C3423 N3431 1.427 . S
C3424 H3415 0.930 . S
C3424 C3422 1.378 . S
C3424 C3425 1.367 . S
C3425 C3424 1.367 . S
C3425 C3427 1.433 . S
C3426 C3422 1.350 . S
C3426 C3423 1.463 . S
C3426 N3430 1.427 . S
C3427 H3417 0.929 . S
C3427 C3425 1.433 . S
C3427 N3430 1.384 . S
C3428 H3419 0.929 . S
C3428 C3420 1.378 . S
C3428 C3423 1.350 . S
C3429 H3416 0.929 . S
C3429 C3421 1.433 . S
C3429 N3431 1.384 . S
N3430 C3426 1.427 . S
N3430 C3427 1.384 . S
N3431 C3423 1.427 . S
N3431 C3429 1.384 . S
C1715 N1164 1.452 . S
C1711 C31 1.492 . S
C1733 C1191 1.577 . S
C1729 C61 1.582 . S
C1747 C73 1.516 . S
C1751 C1205 1.508 . S
C1769 N1223 1.449 . S
C1765 C133 1.478 . S
C1783 C175 1.567 . S
C1787 C1228 1.570 . S
C1801 C211 1.499 . S
C1805 C1168 1.501 . S
C1819 C241 1.428 . S
C1823 N1187 1.400 . S
C1841 N1200 1.455 . S
C1837 C253 1.494 . S
C1859 N1246 1.411 . S
C1855 C1 1.444 . S
C1873 C37 1.521 . S
C1877 N1269 1.494 . S
C1891 C103 1.562 . S
C1895 N1292 1.550 . S
C1913 N1325 1.434 . S
C1909 C139 1.472 . S
C1927 C145 1.538 . S
C1931 C1352 1.533 . S
C1949 C1375 1.562 . S
C1945 C205 1.567 . S
C1963 C247 1.498 . S
C1967 C1398 1.503 . S
C1985 C1412 1.443 . S
C1981 C283 1.443 . S
C1999 C25 1.429 . S
C2003 C1329 1.428 . S
C2017 C169 1.473 . S
C2021 N1371 1.448 . S
C2039 N1394 1.439 . S
C2035 C181 1.478 . S
C2053 C217 1.475 . S
C2057 N1407 1.448 . S
C2075 N1348 1.422 . S
C2071 C277 1.457 . S
C2093 C1274 1.661 . S
C2089 C97 1.661 . S
C2107 C109 1.515 . S
C2111 C1297 1.514 . S
C2129 C1251 1.585 . S
C2125 C67 1.586 . S
C2147 C1444 1.458 . S
C2143 C319 1.457 . S
C2161 C349 1.597 . S
C2165 C1458 1.597 . S
C2179 C361 1.509 . S
C2183 N1486 1.458 . S
C2201 N1499 1.431 . S
C2197 C421 1.464 . S
C2215 C463 1.574 . S
C2219 C1504 1.579 . S
C2233 C499 1.488 . S
C2237 N1440 1.447 . S
C2251 C529 1.513 . S
C2255 N1453 1.482 . S
C2269 C541 1.453 . S
C2273 C1490 1.441 . S
C2291 N1338 1.406 . S
C2287 C289 1.439 . S
C2305 C325 1.511 . S
C2309 N1522 1.474 . S
C2327 N1384 1.454 . S
C2323 C391 1.481 . S
C2341 C427 1.520 . S
C2345 C1559 1.523 . S
C2359 C433 1.569 . S
C2363 C1260 1.569 . S
C2381 C1573 1.594 . S
C2377 C493 1.592 . S
C2395 C535 1.548 . S
C2399 C1306 1.551 . S
C2417 N1591 1.395 . S
C2413 C571 1.440 . S
C2431 C313 1.456 . S
C2435 N1555 1.424 . S
C2453 N1568 1.466 . S
C2449 C457 1.501 . S
C2467 C469 1.479 . S
C2471 N1302 1.426 . S
C2489 C1596 1.444 . S
C2485 C505 1.440 . S
C2503 C565 1.432 . S
C2507 N1256 1.388 . S
C2521 C385 1.563 . S
C2525 C1527 1.562 . S
C2539 C397 1.558 . S
C2543 C1389 1.560 . S
C2557 C355 1.586 . S
C2561 C1343 1.587 . S
C2575 C607 1.522 . S
C2579 C1481 1.527 . S
C2597 C1513 1.532 . S
C2593 C637 1.536 . S
C2611 C649 1.477 . S
C2615 N1430 1.438 . S
C2629 C709 1.445 . S
C2633 N1463 1.414 . S
C2647 C751 1.576 . S
C2651 C1467 1.578 . S
C2665 C787 1.552 . S
C2669 N1476 1.519 . S
C2687 N1509 1.379 . S
C2683 C817 1.407 . S
C2701 C829 1.500 . S
C2705 C1435 1.498 . S
C2723 N1624 1.433 . S
C2719 C577 1.466 . S
C2737 C613 1.462 . S
C2741 N1361 1.435 . S
C2759 N1647 1.392 . S
C2755 C679 1.431 . S
C2773 C715 1.489 . S
C2777 N1417 1.454 . S
C2791 C721 1.539 . S
C2795 C1665 1.545 . S
C2809 C781 1.655 . S
C2813 C1283 1.652 . S
C2831 N1683 1.390 . S
C2827 C823 1.426 . S
C2845 C859 1.488 . S
C2849 C1320 1.491 . S
C2867 C1421 1.487 . S
C2863 C601 1.482 . S
C2885 N1279 1.472 . S
C2881 C745 1.514 . S
C2899 C757 1.575 . S
C2903 C1688 1.571 . S
C2917 C793 1.399 . S
C2921 N1315 1.364 . S
C2939 N1660 1.461 . S
C2935 C853 1.500 . S
C2957 C1366 1.560 . S
C2953 C673 1.559 . S
C2975 C1651 1.562 . S
C2971 C685 1.560 . S
C2993 C1628 1.553 . S
C2989 C643 1.549 . S
C3007 C895 1.406 . S
C3011 N1210 1.364 . S
C3025 C925 1.554 . S
C3029 C1237 1.546 . S
C3047 C1159 1.542 . S
C3043 C937 1.545 . S
C3065 N1177 1.383 . S
C3061 C997 1.413 . S
C3083 C1182 1.580 . S
C3079 C1039 1.579 . S
C3101 C1214 1.503 . S
C3097 C1075 1.507 . S
C3119 N1233 1.495 . S
C3115 C1105 1.528 . S
C3133 C1117 1.511 . S
C3137 N1154 1.481 . S
C3151 C865 1.377 . S
C3155 N1670 1.341 . S
C3173 N1578 1.458 . S
C3169 C901 1.484 . S
C3191 C1697 1.584 . S
C3187 C967 1.586 . S
C3209 C1605 1.393 . S
C3205 C1003 1.393 . S
C3223 C1009 1.568 . S
C3227 C1619 1.571 . S
C3245 C1536 1.579 . S
C3241 C1069 1.587 . S
C3263 C1642 1.643 . S
C3259 C1111 1.637 . S
C3277 C1147 1.491 . S
C3281 N1545 1.443 . S
C3299 N1601 1.351 . S
C3295 C889 1.382 . S
C3317 N1532 1.454 . S
C3313 C1033 1.478 . S
C3335 N1637 1.396 . S
C3331 C1045 1.429 . S
C3349 C1081 1.509 . S
C3353 C1550 1.514 . S
C3367 C1141 1.444 . S
C3371 N1614 1.405 . S
C3385 C961 1.658 . S
C3389 C1582 1.652 . S
C3403 C973 1.442 . S
C3407 N1693 1.413 . S
C3425 C1674 1.532 . S
C3421 C931 1.532 . S
