# Generated by pormake.
# Topology zzz, (3,6)-cn, num edge types: 1
# Building blocks:
#     Node 0, Type 0, BuildingBlock: PAMTOO_clean_linker_0, # of connection points: 3
#     Node 1, Type 0, BuildingBlock: PAMTOO_clean_linker_0, # of connection points: 3
#     Node 2, Type 0, BuildingBlock: PAMTOO_clean_linker_0, # of connection points: 3
#     Node 3, Type 0, BuildingBlock: PAMTOO_clean_linker_0, # of connection points: 3
#     Node 4, Type 0, BuildingBlock: PAMTOO_clean_linker_0, # of connection points: 3
#     Node 5, Type 0, BuildingBlock: PAMTOO_clean_linker_0, # of connection points: 3
#     Node 6, Type 0, BuildingBlock: PAMTOO_clean_linker_0, # of connection points: 3
#     Node 7, Type 0, BuildingBlock: PAMTOO_clean_linker_0, # of connection points: 3
#     Node 8, Type 1, BuildingBlock: BETDEL_clean_sbu_0, # of connection points: 6
#     Node 9, Type 1, BuildingBlock: BETDEL_clean_sbu_0, # of connection points: 6
#     Node 10, Type 1, BuildingBlock: BETDEL_clean_sbu_0, # of connection points: 6
#     Node 11, Type 1, BuildingBlock: BETDEL_clean_sbu_0, # of connection points: 6
#     Edge 12, Type (0, 1), BuildingBlock: OJICUG_clean_linker_0, # of connection points: 2
#     Edge 13, Type (0, 1), BuildingBlock: OJICUG_clean_linker_0, # of connection points: 2
#     Edge 14, Type (0, 1), BuildingBlock: OJICUG_clean_linker_0, # of connection points: 2
#     Edge 15, Type (0, 1), BuildingBlock: OJICUG_clean_linker_0, # of connection points: 2
#     Edge 16, Type (0, 1), BuildingBlock: OJICUG_clean_linker_0, # of connection points: 2
#     Edge 17, Type (0, 1), BuildingBlock: OJICUG_clean_linker_0, # of connection points: 2
#     Edge 18, Type (0, 1), BuildingBlock: OJICUG_clean_linker_0, # of connection points: 2
#     Edge 19, Type (0, 1), BuildingBlock: OJICUG_clean_linker_0, # of connection points: 2
#     Edge 20, Type (0, 1), BuildingBlock: OJICUG_clean_linker_0, # of connection points: 2
#     Edge 21, Type (0, 1), BuildingBlock: OJICUG_clean_linker_0, # of connection points: 2
#     Edge 22, Type (0, 1), BuildingBlock: OJICUG_clean_linker_0, # of connection points: 2
#     Edge 23, Type (0, 1), BuildingBlock: OJICUG_clean_linker_0, # of connection points: 2
#     Edge 24, Type (0, 1), BuildingBlock: OJICUG_clean_linker_0, # of connection points: 2
#     Edge 25, Type (0, 1), BuildingBlock: OJICUG_clean_linker_0, # of connection points: 2
#     Edge 26, Type (0, 1), BuildingBlock: OJICUG_clean_linker_0, # of connection points: 2
#     Edge 27, Type (0, 1), BuildingBlock: OJICUG_clean_linker_0, # of connection points: 2
#     Edge 28, Type (0, 1), BuildingBlock: OJICUG_clean_linker_0, # of connection points: 2
#     Edge 29, Type (0, 1), BuildingBlock: OJICUG_clean_linker_0, # of connection points: 2
#     Edge 30, Type (0, 1), BuildingBlock: OJICUG_clean_linker_0, # of connection points: 2
#     Edge 31, Type (0, 1), BuildingBlock: OJICUG_clean_linker_0, # of connection points: 2
#     Edge 32, Type (0, 1), BuildingBlock: OJICUG_clean_linker_0, # of connection points: 2
#     Edge 33, Type (0, 1), BuildingBlock: OJICUG_clean_linker_0, # of connection points: 2
#     Edge 34, Type (0, 1), BuildingBlock: OJICUG_clean_linker_0, # of connection points: 2
#     Edge 35, Type (0, 1), BuildingBlock: OJICUG_clean_linker_0, # of connection points: 2
# Relax obj value: 0.167
# Max RMSD: 0.182
# Mean RMSD: 0.119
data_MOF--net-zzz--node1-BETDEL_clean_sbu_0--node2-PAMTOO_clean_linker_0--edge1-OJICUG_clean_linker_0
_symmetry_space_group_name_H-M    P1
_symmetry_Int_Tables_number       1
_symmetry_cell_setting            triclinic
loop_
_symmetry_equiv_pos_as_xyz
'x, y, z'
_cell_length_a     35.066415
_cell_length_b     36.118737
_cell_length_c     10.986738
_cell_angle_alpha  91.428423
_cell_angle_beta   88.128054
_cell_angle_gamma 94.775167
loop_
_atom_site_label
_atom_site_type_symbol
_atom_site_fract_x
_atom_site_fract_y
_atom_site_fract_z
_atom_type_partial_charge
H0 H 0.8547 0.47787 0.15856 0.0
H1 H 0.76276 0.48755 0.91572 0.0
H2 H 0.77353 0.55857 0.23519 0.0
H3 H 0.68148 0.53623 0.15623 0.0
C4 C 0.69248 0.52248 0.07213 0.0
O5 O 0.72955 0.53765 0.04682 0.0
H6 H 0.69234 0.49222 0.08959 0.0
C7 C 0.82775 0.48898 0.13889 0.0
C8 C 0.81653 0.51897 0.20949 0.0
C9 C 0.80998 0.47863 0.03001 0.0
C10 C 0.7762 0.4945 0.00168 0.0
C11 C 0.76143 0.5217 0.07941 0.0
C12 C 0.78256 0.53509 0.18172 0.0
H13 H 0.05795 0.86057 0.14336 0.0
H14 H 0.05343 0.76728 0.89297 0.0
H15 H 0.98106 0.76447 0.21775 0.0
H16 H 1.00905 0.6821 0.13787 0.0
C17 C 1.02201 0.69337 0.05139 0.0
O18 O 1.00443 0.72513 0.0247 0.0
H19 H 0.05318 0.70016 0.06487 0.0
C20 C 0.048 0.83193 0.12146 0.0
C21 C 1.01842 0.81479 0.1928 0.0
C22 C 0.05991 0.81589 0.01157 0.0
C23 C 0.04538 0.77961 0.97998 0.0
C24 C 1.01861 0.75998 0.05784 0.0
C25 C 1.00405 0.77816 0.16301 0.0
H26 H 0.68635 0.06312 0.12414 0.0
H27 H 0.79247 0.05155 0.9281 0.0
H28 H 0.76165 0.98404 0.24002 0.0
H29 H 0.86178 0.99665 0.16147 0.0
C30 C 0.85151 1.01293 0.08642 0.0
O31 O 0.81433 0.99897 0.06113 0.0
H32 H 0.85211 0.04245 0.11858 0.0
C33 C 0.71407 0.05182 0.11719 0.0
C34 C 0.72133 0.02401 0.19742 0.0
C35 C 0.73888 0.06152 0.01874 0.0
C36 C 0.77348 0.04478 0.00537 0.0
C37 C 0.78249 1.01745 0.08594 0.0
C38 C 0.75593 1.0065 0.18158 0.0
H39 H 0.49258 0.6764 0.16487 0.0
H40 H 0.48708 0.77285 0.94772 0.0
H41 H 0.56379 0.77575 0.24783 0.0
H42 H 0.5682 0.80651 0.925 0.0
C43 C 0.56331 0.82844 -0.00445 0.0
O44 O 0.53454 0.81621 0.07815 0.0
H45 H 0.59042 0.834 0.04497 0.0
C46 C 0.50065 0.70565 0.14908 0.0
C47 C 0.52976 0.72361 0.21707 0.0
C48 C 0.48587 0.7225 0.05022 0.0
C49 C 0.49765 0.75977 0.02618 0.0
C50 C 0.52471 0.77967 0.09994 0.0
C51 C 0.54157 0.76121 0.19449 0.0
H52 H 0.19302 0.5507 -0.00793 0.0
H53 H 0.29725 0.55695 0.18873 0.0
H54 H 0.28683 0.49085 0.85636 0.0
H55 H 0.36126 0.46996 0.0049 0.0
C56 C 0.34725 0.48622 0.0782 0.0
O57 O 0.33496 0.51782 0.02777 0.0
H58 H 0.32241 0.46785 0.11337 0.0
C59 C 0.22259 0.54412 -0.00174 0.0
C60 C 0.23671 0.51877 0.91472 0.0
C61 C 0.24357 0.55749 0.09791 0.0
C62 C 0.28108 0.54752 0.10984 0.0
C63 C 0.29753 0.52471 0.02022 0.0
C64 C 0.27497 0.50971 0.92277 0.0
H65 H 0.99569 0.17781 -0.01005 0.0
H66 H 0.98806 0.27864 0.20175 0.0
H67 H 0.05692 0.27851 0.86859 0.0
H68 H 0.0774 0.35319 0.01451 0.0
C69 C 0.0603 0.33948 0.09018 0.0
O70 O 0.02741 0.32143 0.04301 0.0
H71 H 0.07869 0.31921 0.12873 0.0
C72 C 1.00196 0.20769 0.00058 0.0
C73 C 0.02864 0.22539 0.92076 0.0
C74 C 0.98812 0.22591 0.10391 0.0
C75 C 0.9978 0.26425 0.12032 0.0
C76 C 1.02098 0.28384 0.03206 0.0
C77 C 0.03726 0.26409 0.93288 0.0
H78 H 0.36453 0.98858 0.03043 0.0
H79 H 0.25038 0.98738 0.18519 0.0
H80 H 0.28041 0.04643 0.85383 0.0
H81 H 0.19567 0.07216 -0.00757 0.0
C82 C 0.20916 0.05732 0.06495 0.0
O83 O 0.22349 0.02568 0.01333 0.0
H84 H 0.23281 0.07698 0.0992 0.0
C85 C 0.33517 0.99579 0.025 0.0
C86 C 0.32602 0.01827 0.93079 0.0
C87 C 0.30841 0.98429 0.11618 0.0
C88 C 0.27115 0.99556 0.11364 0.0
C89 C 0.26062 1.01759 0.01863 0.0
C90 C 0.28831 0.02936 0.92705 0.0
H91 H 0.55503 0.36505 0.9652 0.0
H92 H 0.56171 0.26876 0.18231 0.0
H93 H 0.48423 0.26531 0.88429 0.0
H94 H 0.45818 0.20744 0.08561 0.0
C95 C 0.48525 0.21295 0.13534 0.0
O96 O 0.51413 0.22514 0.05308 0.0
H97 H 0.48034 0.23488 0.20588 0.0
C98 C 0.54726 0.33576 0.98117 0.0
C99 C 0.51801 0.31761 0.91417 0.0
C100 C 0.56239 0.31908 0.07977 0.0
C101 C 0.55093 0.28173 0.104 0.0
C102 C 0.5238 0.26166 0.03087 0.0
C103 C 0.50655 0.27997 0.9369 0.0
Dy104 Dy 0.05284 1.00394 0.65101 0.0
C105 C 0.99277 0.09138 0.31503 0.0
C106 C 0.08326 0.95339 0.79415 0.0
Dy107 Dy 1.00449 0.03559 0.46613 0.0
O108 O 0.09561 0.96293 0.68636 0.0
O109 O 0.05502 0.97314 0.82576 0.0
O110 O 0.10425 0.03587 0.57184 0.0
O111 O 0.06144 1.01381 0.45396 0.0
C112 C 0.09376 0.03259 0.45953 0.0
C113 C 0.9582 0.02252 0.66415 0.0
O114 O 0.99939 0.97792 0.38615 0.0
O115 O 1.02287 0.95351 0.55937 0.0
O116 O 0.96747 0.0636 0.33738 0.0
O117 O 1.02502 0.08562 0.36263 0.0
O118 O 0.947 0.0343 0.56185 0.0
O119 O 0.99328 1.01638 0.65301 0.0
O120 O 0.05303 0.0606 0.73989 0.0
O121 O 0.03054 0.08534 0.5674 0.0
C122 C 1.00683 0.94909 0.45166 0.0
C123 C 0.0449 0.08955 0.67658 0.0
Dy124 Dy 0.49645 0.99515 0.48794 0.0
C125 C 0.62086 0.07248 0.7244 0.0
C126 C 0.42535 0.97169 0.41243 0.0
Dy127 Dy 0.551 0.0465 0.64469 0.0
O128 O 0.45603 0.95483 0.3835 0.0
O129 O 0.43427 1.00161 0.47591 0.0
O130 O 0.54637 0.9688 0.39328 0.0
O131 O 0.55276 0.02369 0.46056 0.0
C132 C 0.57071 0.99731 0.41644 0.0
C133 C 0.4766 0.04398 0.71481 0.0
O134 O 0.54138 0.08664 0.49808 0.0
O135 O 0.4927 0.05108 0.39987 0.0
O136 O 0.58931 0.08795 0.75232 0.0
O137 O 0.61347 0.04241 0.66003 0.0
O138 O 0.50059 0.07281 0.73691 0.0
O139 O 0.49494 1.01776 0.67196 0.0
O140 O 0.50649 0.95481 0.63367 0.0
O141 O 0.5553 0.99042 0.73138 0.0
C142 C 0.51423 0.08292 0.41605 0.0
C143 C 0.5338 0.95853 0.71525 0.0
Dy144 Dy 0.49844 0.53561 0.65826 0.0
C145 C 0.57495 0.45611 0.3077 0.0
C146 C 0.47105 0.58517 0.8254 0.0
Dy147 Dy 0.54714 0.50543 0.47512 0.0
O148 O 0.45164 0.56879 0.73834 0.0
O149 O 0.50447 0.57223 0.82496 0.0
O150 O 0.44646 0.50656 0.57893 0.0
O151 O 0.49101 0.5279 0.45983 0.0
C152 C 0.45808 0.51013 0.46606 0.0
C153 C 0.58652 0.52926 0.67244 0.0
O154 O 0.55223 0.56216 0.39557 0.0
O155 O 0.5273 0.58718 0.57221 0.0
O156 O 0.59436 0.47289 0.39402 0.0
O157 O 0.54123 0.46839 0.3093 0.0
O158 O 0.59907 0.53365 0.56076 0.0
O159 O 0.55351 0.5119 0.67363 0.0
O160 O 0.49363 0.47874 0.73753 0.0
O161 O 0.51821 0.45374 0.56016 0.0
C162 C 0.54399 0.59143 0.46321 0.0
C163 C 0.50166 0.44944 0.66939 0.0
Dy164 Dy 1.00767 0.49387 0.65123 0.0
C165 C 0.10373 0.56807 0.31677 0.0
C166 C 0.95123 0.4651 0.80845 0.0
Dy167 Dy 0.04614 0.54007 0.47095 0.0
O168 O 0.96415 0.44829 0.71235 0.0
O169 O 0.97125 0.49675 0.82211 0.0
O170 O 0.03477 0.44411 0.58052 0.0
O171 O 1.01887 0.4831 0.45495 0.0
C172 C 0.03444 0.45278 0.46663 0.0
C173 C 1.02042 0.58053 0.65989 0.0
O174 O 0.98907 0.54043 0.38513 0.0
O175 O 0.95883 0.51811 0.56047 0.0
O176 O 0.08888 0.58608 0.40725 0.0
O177 O 0.08472 0.53583 0.30558 0.0
O178 O 1.0196 0.58996 0.54677 0.0
O179 O 0.03585 0.55007 0.66756 0.0
O180 O 0.0651 0.49375 0.73602 0.0
O181 O 0.09525 0.51655 0.56125 0.0
C182 C 0.95731 0.5322 0.45095 0.0
C183 C 0.09685 0.50237 0.67039 0.0
C184 C 0.18831 0.0565 0.28811 0.0
C185 C 0.1794 0.0482 0.16632 0.0
H186 H 0.16838 0.0589 0.47389 0.0
C187 C 0.14173 0.03407 0.14059 0.0
H188 H 0.21694 0.06743 0.31111 0.0
C189 C 0.11351 0.02905 0.23466 0.0
C190 C 0.12241 0.03817 0.35637 0.0
H191 H 0.13399 0.02755 0.04739 0.0
H192 H 0.0848 0.01827 0.21215 0.0
C193 C 0.16026 0.05178 0.38141 0.0
C194 C 0.47377 0.14395 0.18042 0.0
C195 C 0.49506 0.17828 0.19939 0.0
H196 H 0.46289 0.08715 0.2332 0.0
C197 C 0.52383 0.18051 0.28588 0.0
H198 H 0.45136 0.14134 0.11444 0.0
C199 C 0.53046 0.14948 0.35432 0.0
C200 C 0.50844 0.11532 0.33819 0.0
H201 H 0.54058 0.2066 0.30268 0.0
H202 H 0.55247 0.15256 0.42158 0.0
C203 C 0.48034 0.11289 0.24894 0.0
C204 C 0.36541 0.487 0.29966 0.0
C205 C 0.37571 0.49556 0.17844 0.0
H206 H 0.38322 0.48421 0.48317 0.0
C207 C 0.41364 0.50983 0.15162 0.0
H208 H 0.33656 0.47588 0.32343 0.0
C209 C 0.44077 0.51469 0.24398 0.0
C210 C 0.43047 0.50528 0.36493 0.0
H211 H 0.42245 0.5165 0.05877 0.0
H212 H 0.46976 0.52549 0.22065 0.0
C213 C 0.39236 0.49161 0.39121 0.0
C214 C 0.04099 0.40396 0.15432 0.0
C215 C 0.05098 0.36855 0.18643 0.0
H216 H 0.02813 0.45874 0.21716 0.0
C217 C 0.05441 0.36118 0.31013 0.0
H218 H 0.03813 0.41037 0.05943 0.0
C219 C 0.04924 0.38874 0.39945 0.0
C220 C 0.03994 0.42442 0.36806 0.0
H221 H 0.06193 0.3342 0.33775 0.0
H222 H 0.05268 0.38198 0.49375 0.0
C223 C 0.03549 0.43167 0.24433 0.0
C224 C 0.91875 1.01086 -0.0087 0.0
C225 C 0.87892 1.01092 0.9756 0.0
H226 H 0.97526 1.01366 0.90609 0.0
C227 C 0.866 1.013 0.85641 0.0
H228 H 0.92977 1.00991 0.08205 0.0
C229 C 0.89196 1.01563 0.75666 0.0
C230 C 0.93172 1.0161 0.77221 0.0
H231 H 0.83582 1.01315 0.83962 0.0
H232 H 0.88074 1.01789 0.66666 0.0
C233 C 0.94486 1.01303 0.89072 0.0
C234 C 0.57459 0.89748 0.95044 0.0
C235 C 0.55339 0.8631 0.93149 0.0
H236 H 0.58529 0.95433 0.89779 0.0
C237 C 0.52461 0.86083 0.84497 0.0
H238 H 0.59701 0.90015 0.01639 0.0
C239 C 0.51788 0.89185 0.7766 0.0
C240 C 0.53979 0.92608 0.79278 0.0
H241 H 0.50793 0.8347 0.82812 0.0
H242 H 0.49586 0.88873 0.7094 0.0
C243 C 0.56792 0.92854 0.88197 0.0
C244 C 0.67821 0.53902 0.85248 0.0
C245 C 0.66527 0.52714 0.96887 0.0
H246 H 0.6635 0.5497 0.6693 0.0
C247 C 0.62582 0.51727 -0.01224 0.0
H248 H 0.70832 0.54647 0.83348 0.0
C249 C 0.60004 0.51888 0.89301 0.0
C250 C 0.61304 0.53039 0.77648 0.0
H251 H 0.61499 0.50765 0.07593 0.0
H252 H 0.57003 0.51045 0.91047 0.0
C253 C 0.6524 0.54086 0.75799 0.0
C254 C 1.02408 0.62665 0.97582 0.0
C255 C 1.01779 0.6637 0.95069 0.0
H256 H 0.02955 0.57123 0.90474 0.0
C257 C 1.01126 0.67265 0.82969 0.0
H258 H 0.02988 0.61903 0.06774 0.0
C259 C 1.01075 0.64526 0.73681 0.0
C260 C 1.01763 0.60836 0.76163 0.0
H261 H 1.00712 0.70094 0.80608 0.0
H262 H 1.00599 0.65332 0.64459 0.0
C263 C 1.02396 0.59929 0.88255 0.0
C264 C 1.00353 0.19527 0.28668 0.0
C265 C 0.9752 0.20106 0.20403 0.0
H266 H 0.03335 0.15531 0.37575 0.0
C267 C 0.94693 0.17182 0.1801 0.0
H268 H 0.02562 0.21717 0.307 0.0
C269 C 0.95143 0.1358 0.21932 0.0
C270 C 0.98397 0.12907 0.28334 0.0
H271 H 0.92479 0.17563 0.11616 0.0
H272 H 0.93126 0.11302 0.19176 0.0
C273 C 1.00864 0.15941 0.32258 0.0
C274 C 0.32573 0.98705 0.33101 0.0
C275 C 0.32326 0.96628 0.22182 0.0
H276 H 0.36124 1.00482 0.47907 0.0
C277 C 0.34824 0.93805 0.19992 0.0
H278 H 0.30661 1.00865 0.35078 0.0
C279 C 0.38044 0.93673 0.27081 0.0
C280 C 0.38679 0.96274 0.36604 0.0
H281 H 0.34642 0.92132 0.11674 0.0
H282 H 0.40218 0.9184 0.2427 0.0
C283 C 0.35752 0.98533 0.40294 0.0
C284 C 0.60857 0.37198 0.13872 0.0
C285 C 0.57881 0.34515 0.17296 0.0
H286 H 0.63056 0.42941 0.15421 0.0
C287 C 0.55362 0.35352 0.2693 0.0
H288 H 0.62796 0.36625 0.06309 0.0
C289 C 0.55351 0.38979 0.31423 0.0
C290 C 0.58026 0.41765 0.27024 0.0
H291 H 0.53007 0.33371 0.296 0.0
H292 H 0.53056 0.39671 0.37666 0.0
C293 C 0.60943 0.40824 0.18805 0.0
C294 C 0.20597 0.54604 0.28331 0.0
C295 C 0.22061 0.57244 0.19909 0.0
H296 H 0.15574 0.52229 0.37617 0.0
C297 C 0.19922 0.60282 0.17627 0.0
H298 H 0.22166 0.52226 0.30173 0.0
C299 C 0.16125 0.60304 0.22025 0.0
C300 C 0.14479 0.57285 0.28645 0.0
H301 H 0.20987 0.62333 0.1105 0.0
H302 H 0.14399 0.62482 0.19362 0.0
C303 C 0.16788 0.54553 0.32322 0.0
C304 C 0.1082 0.86709 0.95071 0.0
C305 C 0.07635 0.84246 0.9206 0.0
H306 H 0.1352 0.92268 0.93543 0.0
C307 C 0.05112 0.85302 0.834 0.0
H308 H 0.12758 0.85975 0.0193 0.0
C309 C 0.05428 0.88922 0.79236 0.0
C310 C 0.08376 0.91486 0.83156 0.0
H311 H 0.0259 0.83505 0.81142 0.0
H312 H 0.03213 0.89793 0.73574 0.0
C313 C 0.11197 0.90325 0.90578 0.0
C314 C 0.69626 0.10719 0.94146 0.0
C315 C 0.72256 0.08028 0.91624 0.0
H316 H 0.64116 0.12479 0.90124 0.0
C317 C 0.72137 0.06137 0.80312 0.0
H318 H 0.69735 0.12313 0.02634 0.0
C319 C 0.68957 0.06267 0.73129 0.0
C320 C 0.65898 0.08303 0.77173 0.0
H321 H 0.74158 0.04109 0.77896 0.0
H322 H 0.68699 0.04428 0.65197 0.0
C323 C 0.66393 0.10795 0.87067 0.0
C324 C 0.49427 0.68759 0.8615 0.0
C325 C 0.46911 0.6966 0.95719 0.0
H326 H 0.51657 0.64375 0.75519 0.0
C327 C 0.43883 0.67034 -0.00848 0.0
H328 H 0.51818 0.70697 0.83471 0.0
C329 C 0.4374 0.63395 0.94319 0.0
C330 C 0.46649 0.62384 0.86186 0.0
H331 H 0.41944 0.67658 0.06664 0.0
H332 H 0.41584 0.61321 0.97715 0.0
C333 C 0.49375 0.65117 0.81741 0.0
C334 C 0.84989 0.48891 0.84676 0.0
C335 C 0.8353 0.46357 0.93461 0.0
H336 H 0.89961 0.51065 0.74705 0.0
C337 C 0.85663 0.43347 0.96124 0.0
H338 H 0.8344 0.51254 0.8252 0.0
C339 C 0.89427 0.43227 0.91512 0.0
C340 C 0.91049 0.4612 0.84287 0.0
H341 H 0.84604 0.41376 0.02966 0.0
H342 H 0.91148 0.41069 0.94372 0.0
C343 C 0.88756 0.48831 0.80403 0.0
C344 C 0.03048 0.19197 0.72281 0.0
C345 C 0.04766 0.20022 0.83435 0.0
H346 H 1.01517 0.15043 0.5885 0.0
C347 C 0.06971 0.17359 0.88398 0.0
H348 H 1.01241 0.21133 0.68442 0.0
C349 C 0.07039 0.13783 0.83121 0.0
C350 C 0.04978 0.12838 0.72613 0.0
H351 H 0.08244 0.17894 0.97191 0.0
H352 H 0.08515 0.11713 0.87637 0.0
C353 C 0.03152 0.15652 0.66938 0.0
C354 C 0.37844 0.06412 0.85184 0.0
C355 C 0.35804 0.02895 0.84245 0.0
H356 H 0.43196 0.09667 0.81848 0.0
C357 C 0.37591 1.00018 0.78059 0.0
H358 H 0.36604 0.08646 0.90274 0.0
C359 C 0.41401 1.0054 0.73838 0.0
C360 C 0.43511 0.03999 0.75207 0.0
H361 H 0.36149 0.97248 0.77532 0.0
H362 H 0.42746 0.98166 0.69995 0.0
C363 C 0.4165 0.06968 0.80603 0.0
C364 C 0.51675 0.3479 0.7157 0.0
C365 C 0.49927 0.34151 0.83049 0.0
H366 H 0.53231 0.38715 0.57795 0.0
C367 C 0.47684 0.36881 0.88257 0.0
H368 H 0.53533 0.32809 0.67549 0.0
C369 C 0.47547 0.40333 0.82728 0.0
C370 C 0.49623 0.41106 0.71807 0.0
H371 H 0.46403 0.3651 0.973 0.0
H372 H 0.4603 0.42469 0.87409 0.0
C373 C 0.51534 0.38223 0.66046 0.0
C374 C 0.17679 0.47934 0.87607 0.0
C375 C 0.20827 0.50189 0.82803 0.0
H376 H 0.11666 0.46234 0.86652 0.0
C377 C 0.20386 0.52 0.71876 0.0
H378 H 0.17902 0.466 0.96252 0.0
C379 C 0.16805 0.51841 0.66497 0.0
C380 C 0.13562 0.49875 0.71916 0.0
H381 H 0.22699 0.53863 0.68204 0.0
H382 H 0.16528 0.53515 0.5861 0.0
C383 C 0.14078 0.47799 0.82281 0.0
C384 C 0.97841 0.86667 0.24147 0.0
C385 C 1.00102 0.83954 0.28448 0.0
H386 H 0.96299 0.923 0.25847 0.0
C387 C 1.01998 0.84681 0.39378 0.0
H388 H 0.96446 0.86223 0.15513 0.0
C389 C 1.01976 0.88176 0.45155 0.0
C390 C 1.0005 0.91035 0.40172 0.0
H391 H 0.0387 0.82709 0.42662 0.0
H392 H 0.03767 0.88724 0.5291 0.0
C393 C 0.97836 0.90185 0.29895 0.0
C394 C 0.67192 0.04029 0.35336 0.0
C395 C 0.68901 1.01236 0.28442 0.0
H396 H 0.62096 0.05857 0.43844 0.0
C397 C 0.668 0.97761 0.27026 0.0
H398 H 0.68685 0.06763 0.36373 0.0
C399 C 0.63006 0.97192 0.3175 0.0
C400 C 0.61213 1.00108 0.37761 0.0
H401 H 0.67978 0.95585 0.21481 0.0
H402 H 0.61413 0.94536 0.30129 0.0
C403 C 0.63388 0.03509 0.39607 0.0
C404 C 0.57031 0.67207 0.25098 0.0
C405 C 0.54787 0.69954 0.30192 0.0
H406 H 0.58635 0.61605 0.26029 0.0
C407 C 0.52975 0.69318 0.41587 0.0
H408 H 0.5836 0.67574 0.16118 0.0
C409 C 0.53061 0.65877 0.47124 0.0
C410 C 0.54978 0.62983 0.41457 0.0
H411 H 0.51114 0.71311 0.45516 0.0
H412 H 0.51325 0.65393 0.55307 0.0
C413 C 0.57111 0.63749 0.30634 0.0
C414 C 0.84991 0.51755 0.40466 0.0
C415 C 0.84585 0.53528 0.29433 0.0
H416 H 0.88804 0.50201 0.53816 0.0
C417 C 0.87796 0.55639 0.24405 0.0
H418 H 0.82626 0.4999 0.44303 0.0
C419 C 0.914 0.55691 0.29693 0.0
C420 C 0.91865 0.53665 0.40222 0.0
H421 H 0.87606 0.56924 0.15662 0.0
H422 H 0.93851 0.57152 0.25176 0.0
C423 C 0.88574 0.51832 0.45803 0.0
loop_
_geom_bond_atom_site_label_1
_geom_bond_atom_site_label_2
_geom_bond_distance
_geom_bond_site_symmetry_2
_ccdc_geom_bond_type
H0 C7 0.929 . S
H1 C10 0.930 1_556 S
H2 C12 0.929 . S
H3 C4 0.969 1_556 S
C4 H3 0.969 1_554 S
C4 O5 1.550 . S
C4 H6 0.973 1_554 S
O5 C4 1.550 . S
O5 C11 1.412 . S
H6 C4 0.973 1_556 S
C7 H0 0.929 . S
C7 C8 1.400 . S
C7 C9 1.364 . S
C8 C7 1.400 . S
C8 C12 1.377 . S
C9 C7 1.364 . S
C9 C10 1.374 . S
C10 H1 0.930 1_554 S
C10 C9 1.374 . S
C10 C11 1.383 . S
C11 O5 1.412 . S
C11 C10 1.383 . S
C11 C12 1.394 . S
C12 H2 0.929 . S
C12 C8 1.377 . S
C12 C11 1.394 . S
H13 C20 0.928 1_655 S
H14 C23 0.931 . S
H15 C25 0.930 1_655 S
H16 C17 0.969 . S
C17 H16 0.969 . S
C17 O18 1.550 1_456 S
C17 H19 0.973 1_455 S
O18 C17 1.550 1_654 S
O18 C24 1.407 1_655 S
H19 C17 0.973 1_655 S
C20 H13 0.928 1_455 S
C20 C21 1.398 . S
C20 C22 1.364 . S
C21 C20 1.398 . S
C21 C25 1.378 . S
C22 C20 1.364 . S
C22 C23 1.375 1_454 S
C23 H14 0.931 . S
C23 C22 1.375 1_656 S
C23 C24 1.379 1_656 S
C24 O18 1.407 1_455 S
C24 C23 1.379 1_454 S
C24 C25 1.394 . S
C25 H15 0.930 1_455 S
C25 C21 1.378 . S
C25 C24 1.394 . S
H26 C33 0.929 . S
H27 C36 0.930 . S
H28 C38 0.929 . S
H29 C30 0.969 . S
C30 H29 0.969 . S
C30 O31 1.550 1_556 S
C30 H32 0.973 . S
O31 C30 1.550 1_554 S
O31 C37 1.412 . S
H32 C30 0.973 . S
C33 H26 0.929 . S
C33 C34 1.400 . S
C33 C35 1.364 1_554 S
C34 C33 1.400 . S
C34 C38 1.377 . S
C35 C33 1.364 1_556 S
C35 C36 1.374 . S
C36 H27 0.930 . S
C36 C35 1.374 . S
C36 C37 1.383 1_556 S
C37 O31 1.412 . S
C37 C36 1.383 1_554 S
C37 C38 1.394 . S
C38 H28 0.929 . S
C38 C34 1.377 . S
C38 C37 1.394 . S
H39 C46 0.929 . S
H40 C49 0.930 1_556 S
H41 C51 0.929 . S
H42 C43 0.969 . S
C43 H42 0.969 . S
C43 O44 1.550 . S
C43 H45 0.973 1_554 S
O44 C43 1.550 . S
O44 C50 1.412 . S
H45 C43 0.973 1_556 S
C46 H39 0.929 . S
C46 C47 1.400 . S
C46 C48 1.364 . S
C47 C46 1.400 . S
C47 C51 1.377 . S
C48 C46 1.364 . S
C48 C49 1.374 . S
C49 H40 0.930 1_554 S
C49 C48 1.374 . S
C49 C50 1.383 . S
C50 O44 1.412 . S
C50 C49 1.383 . S
C50 C51 1.394 . S
C51 H41 0.929 . S
C51 C47 1.377 . S
C51 C50 1.394 . S
H52 C59 0.929 . S
H53 C62 0.930 . S
H54 C64 0.929 . S
H55 C56 0.969 . S
C56 H55 0.969 . S
C56 O57 1.550 . S
C56 H58 0.973 . S
O57 C56 1.550 . S
O57 C63 1.412 . S
H58 C56 0.973 . S
C59 H52 0.929 . S
C59 C60 1.400 1_554 S
C59 C61 1.364 . S
C60 C59 1.400 1_556 S
C60 C64 1.377 . S
C61 C59 1.364 . S
C61 C62 1.374 . S
C62 H53 0.930 . S
C62 C61 1.374 . S
C62 C63 1.383 . S
C63 O57 1.412 . S
C63 C62 1.383 . S
C63 C64 1.394 1_554 S
C64 H54 0.929 . S
C64 C60 1.377 . S
C64 C63 1.394 1_556 S
H65 C72 0.929 1_655 S
H66 C75 0.931 . S
H67 C77 0.927 1_655 S
H68 C69 0.969 . S
C69 H68 0.969 . S
C69 O70 1.550 1_455 S
C69 H71 0.973 1_455 S
O70 C69 1.550 1_655 S
O70 C76 1.412 1_655 S
H71 C69 0.973 1_655 S
C72 H65 0.929 1_455 S
C72 C73 1.401 1_554 S
C72 C74 1.364 . S
C73 C72 1.401 1_556 S
C73 C77 1.376 . S
C74 C72 1.364 . S
C74 C75 1.373 1_455 S
C75 H66 0.931 . S
C75 C74 1.373 1_655 S
C75 C76 1.383 1_655 S
C76 O70 1.412 1_455 S
C76 C75 1.383 1_455 S
C76 C77 1.395 1_554 S
C77 H67 0.927 1_455 S
C77 C73 1.376 . S
C77 C76 1.395 1_556 S
H78 C85 0.929 . S
H79 C88 0.930 . S
H80 C90 0.929 . S
H81 C82 0.969 . S
C82 H81 0.969 . S
C82 O83 1.550 . S
C82 H84 0.973 . S
O83 C82 1.550 . S
O83 C89 1.412 . S
H84 C82 0.973 . S
C85 H78 0.929 . S
C85 C86 1.400 1_554 S
C85 C87 1.364 . S
C86 C85 1.400 1_556 S
C86 C90 1.377 . S
C87 C85 1.364 . S
C87 C88 1.374 . S
C88 H79 0.930 . S
C88 C87 1.374 . S
C88 C89 1.383 . S
C89 O83 1.412 . S
C89 C88 1.383 . S
C89 C90 1.394 1_554 S
C90 H80 0.929 . S
C90 C86 1.377 . S
C90 C89 1.394 1_556 S
H91 C98 0.929 . S
H92 C101 0.930 . S
H93 C103 0.929 . S
H94 C95 0.969 . S
C95 H94 0.969 . S
C95 O96 1.550 1_554 S
C95 H97 0.973 . S
O96 C95 1.550 1_556 S
O96 C102 1.412 . S
H97 C95 0.973 . S
C98 H91 0.929 . S
C98 C99 1.400 . S
C98 C100 1.364 1_556 S
C99 C98 1.400 . S
C99 C103 1.377 . S
C100 C98 1.364 1_554 S
C100 C101 1.374 . S
C101 H92 0.930 . S
C101 C100 1.374 . S
C101 C102 1.379 1_554 S
C102 O96 1.412 . S
C102 C101 1.379 1_556 S
C102 C103 1.399 . S
C103 H93 0.929 . S
C103 C99 1.377 . S
C103 C102 1.399 . S
Dy104 O108 2.398 . S
Dy104 O109 2.491 1_455 S
Dy104 O110 2.403 . S
Dy104 O111 2.664 1_565 S
Dy104 O115 2.326 . S
Dy104 O119 2.310 1_455 S
Dy104 O120 2.351 1_565 S
C105 O116 1.185 . S
C105 O117 1.355 1_655 S
C106 O108 1.185 . S
C106 O109 1.355 1_455 S
Dy107 O111 2.310 1_655 S
Dy107 O114 2.351 1_545 S
Dy107 O116 2.398 . S
Dy107 O117 2.491 1_655 S
Dy107 O118 2.403 . S
Dy107 O119 2.664 1_545 S
Dy107 O121 2.326 . S
O108 Dy104 2.398 . S
O108 C106 1.185 . S
O109 Dy104 2.491 1_655 S
O109 C106 1.355 1_655 S
O110 Dy104 2.403 . S
O110 C112 1.254 1_565 S
O111 Dy104 2.664 1_545 S
O111 Dy107 2.310 1_455 S
O111 C112 1.268 . S
C112 O110 1.254 1_545 S
C112 O111 1.268 . S
C113 O118 1.254 1_565 S
C113 O119 1.268 . S
O114 Dy107 2.351 1_565 S
O114 C122 1.249 . S
O115 Dy104 2.326 . S
O115 C122 1.267 1_455 S
O116 C105 1.185 . S
O116 Dy107 2.398 . S
O117 C105 1.355 1_455 S
O117 Dy107 2.491 1_455 S
O118 Dy107 2.403 . S
O118 C113 1.254 1_545 S
O119 Dy104 2.310 1_655 S
O119 Dy107 2.664 1_565 S
O119 C113 1.268 . S
O120 Dy104 2.351 1_545 S
O120 C123 1.249 . S
O121 Dy107 2.326 . S
O121 C123 1.267 1_655 S
C122 O114 1.249 . S
C122 O115 1.267 1_655 S
C123 O120 1.249 . S
C123 O121 1.267 1_455 S
Dy124 O128 2.398 . S
Dy124 O129 2.491 1_565 S
Dy124 O130 2.403 . S
Dy124 O131 2.664 . S
Dy124 O135 2.326 1_565 S
Dy124 O139 2.310 1_565 S
Dy124 O140 2.351 . S
C125 O136 1.185 . S
C125 O137 1.355 1_545 S
C126 O128 1.183 . S
C126 O129 1.356 1_565 S
Dy127 O131 2.310 1_545 S
Dy127 O134 2.351 . S
Dy127 O136 2.398 . S
Dy127 O137 2.491 1_545 S
Dy127 O138 2.403 . S
Dy127 O139 2.664 . S
Dy127 O141 2.326 1_545 S
O128 Dy124 2.398 . S
O128 C126 1.183 . S
O129 Dy124 2.491 1_545 S
O129 C126 1.356 1_545 S
O130 Dy124 2.403 . S
O130 C132 1.254 . S
O131 Dy124 2.664 . S
O131 Dy127 2.310 1_565 S
O131 C132 1.268 . S
C132 O130 1.254 . S
C132 O131 1.268 . S
C133 O138 1.254 . S
C133 O139 1.268 . S
O134 Dy127 2.351 . S
O134 C142 1.249 . S
O135 Dy124 2.326 1_545 S
O135 C142 1.267 . S
O136 C125 1.185 . S
O136 Dy127 2.398 . S
O137 C125 1.355 1_565 S
O137 Dy127 2.491 1_565 S
O138 Dy127 2.403 . S
O138 C133 1.254 . S
O139 Dy124 2.310 1_545 S
O139 Dy127 2.664 . S
O139 C133 1.268 . S
O140 Dy124 2.351 . S
O140 C143 1.249 . S
O141 Dy127 2.326 1_565 S
O141 C143 1.267 . S
C142 O134 1.249 . S
C142 O135 1.267 . S
C143 O140 1.249 . S
C143 O141 1.267 . S
Dy144 O148 2.398 . S
Dy144 O149 2.491 . S
Dy144 O150 2.403 . S
Dy144 O151 2.664 . S
Dy144 O155 2.326 . S
Dy144 O159 2.310 . S
Dy144 O160 2.351 . S
C145 O156 1.185 . S
C145 O157 1.355 . S
C146 O148 1.185 . S
C146 O149 1.355 . S
Dy147 O151 2.310 . S
Dy147 O154 2.351 . S
Dy147 O156 2.398 . S
Dy147 O157 2.491 . S
Dy147 O158 2.403 . S
Dy147 O159 2.664 . S
Dy147 O161 2.326 . S
O148 Dy144 2.398 . S
O148 C146 1.185 . S
O149 Dy144 2.491 . S
O149 C146 1.355 . S
O150 Dy144 2.403 . S
O150 C152 1.254 . S
O151 Dy144 2.664 . S
O151 Dy147 2.310 . S
O151 C152 1.268 . S
C152 O150 1.254 . S
C152 O151 1.268 . S
C153 O158 1.254 . S
C153 O159 1.268 . S
O154 Dy147 2.351 . S
O154 C162 1.249 . S
O155 Dy144 2.326 . S
O155 C162 1.267 . S
O156 C145 1.185 . S
O156 Dy147 2.398 . S
O157 C145 1.355 . S
O157 Dy147 2.491 . S
O158 Dy147 2.403 . S
O158 C153 1.254 . S
O159 Dy144 2.310 . S
O159 Dy147 2.664 . S
O159 C153 1.268 . S
O160 Dy144 2.351 . S
O160 C163 1.249 . S
O161 Dy147 2.326 . S
O161 C163 1.267 . S
C162 O154 1.249 . S
C162 O155 1.267 . S
C163 O160 1.249 . S
C163 O161 1.267 . S
Dy164 O168 2.398 . S
Dy164 O169 2.491 . S
Dy164 O170 2.403 . S
Dy164 O171 2.664 1_655 S
Dy164 O175 2.326 . S
Dy164 O179 2.310 . S
Dy164 O180 2.351 1_655 S
C165 O176 1.185 . S
C165 O177 1.355 . S
C166 O168 1.185 . S
C166 O169 1.355 . S
Dy167 O171 2.310 . S
Dy167 O174 2.351 1_455 S
Dy167 O176 2.398 . S
Dy167 O177 2.491 . S
Dy167 O178 2.403 . S
Dy167 O179 2.664 1_455 S
Dy167 O181 2.326 . S
O168 Dy164 2.398 . S
O168 C166 1.185 . S
O169 Dy164 2.491 . S
O169 C166 1.355 . S
O170 Dy164 2.403 . S
O170 C172 1.254 . S
O171 Dy164 2.664 1_455 S
O171 Dy167 2.310 . S
O171 C172 1.268 1_455 S
C172 O170 1.254 . S
C172 O171 1.268 1_655 S
C173 O178 1.254 . S
C173 O179 1.268 1_455 S
O174 Dy167 2.351 1_655 S
O174 C182 1.249 . S
O175 Dy164 2.326 . S
O175 C182 1.267 . S
O176 C165 1.185 . S
O176 Dy167 2.398 . S
O177 C165 1.355 . S
O177 Dy167 2.491 . S
O178 Dy167 2.403 . S
O178 C173 1.254 . S
O179 Dy164 2.310 . S
O179 Dy167 2.664 1_655 S
O179 C173 1.268 1_655 S
O180 Dy164 2.351 1_455 S
O180 C183 1.249 . S
O181 Dy167 2.326 . S
O181 C183 1.267 . S
C182 O174 1.249 . S
C182 O175 1.267 . S
C183 O180 1.249 . S
C183 O181 1.267 . S
C184 C185 1.387 . S
C184 H188 0.950 . S
C184 C193 1.390 . S
C185 C184 1.387 . S
C185 C187 1.387 . S
H186 C193 0.950 . S
C187 C185 1.387 . S
C187 C189 1.390 1_545 S
C187 H191 0.950 1_545 S
H188 C184 0.950 . S
C189 C187 1.390 1_565 S
C189 C190 1.387 1_565 S
C189 H192 0.950 . S
C190 C189 1.387 1_545 S
C190 C193 1.387 . S
H191 C187 0.950 1_565 S
H192 C189 0.950 . S
C193 C184 1.390 . S
C193 H186 0.950 . S
C193 C190 1.387 . S
C194 C195 1.387 . S
C194 H198 0.950 . S
C194 C203 1.390 . S
C195 C194 1.387 . S
C195 C197 1.387 . S
H196 C203 0.950 . S
C197 C195 1.387 . S
C197 C199 1.390 . S
C197 H201 0.950 . S
H198 C194 0.950 . S
C199 C197 1.390 . S
C199 C200 1.387 . S
C199 H202 0.950 . S
C200 C199 1.387 . S
C200 C203 1.387 . S
H201 C197 0.950 . S
H202 C199 0.950 . S
C203 C194 1.390 . S
C203 H196 0.950 . S
C203 C200 1.387 . S
C204 C205 1.387 . S
C204 H208 0.950 . S
C204 C213 1.390 . S
C205 C204 1.387 . S
C205 C207 1.387 . S
H206 C213 0.950 . S
C207 C205 1.387 . S
C207 C209 1.390 . S
C207 H211 0.950 . S
H208 C204 0.950 . S
C209 C207 1.390 . S
C209 C210 1.387 . S
C209 H212 0.950 . S
C210 C209 1.387 . S
C210 C213 1.387 . S
H211 C207 0.950 . S
H212 C209 0.950 . S
C213 C204 1.390 . S
C213 H206 0.950 . S
C213 C210 1.387 . S
C214 C215 1.389 . S
C214 H218 0.950 . S
C214 C223 1.390 . S
C215 C214 1.389 . S
C215 C217 1.386 1_655 S
H216 C223 0.950 . S
C217 C215 1.386 1_455 S
C217 C219 1.390 . S
C217 H221 0.950 . S
H218 C214 0.950 . S
C219 C217 1.390 . S
C219 C220 1.387 1_455 S
C219 H222 0.950 . S
C220 C219 1.387 1_655 S
C220 C223 1.387 . S
H221 C217 0.950 . S
H222 C219 0.950 . S
C223 C214 1.390 . S
C223 H216 0.950 . S
C223 C220 1.387 . S
C224 C225 1.387 1_545 S
C224 H228 0.950 . S
C224 C233 1.390 . S
C225 C224 1.387 1_565 S
C225 C227 1.387 . S
H226 C233 0.950 . S
C227 C225 1.387 . S
C227 C229 1.390 . S
C227 H231 0.950 . S
H228 C224 0.950 . S
C229 C227 1.390 . S
C229 C230 1.387 . S
C229 H232 0.950 . S
C230 C229 1.387 . S
C230 C233 1.387 1_565 S
H231 C227 0.950 . S
H232 C229 0.950 . S
C233 C224 1.390 . S
C233 H226 0.950 . S
C233 C230 1.387 1_545 S
C234 C235 1.387 . S
C234 H238 0.950 . S
C234 C243 1.390 . S
C235 C234 1.387 . S
C235 C237 1.387 . S
H236 C243 0.950 . S
C237 C235 1.387 . S
C237 C239 1.390 . S
C237 H241 0.950 . S
H238 C234 0.950 . S
C239 C237 1.390 . S
C239 C240 1.387 . S
C239 H242 0.950 . S
C240 C239 1.387 . S
C240 C243 1.387 . S
H241 C237 0.950 . S
H242 C239 0.950 . S
C243 C234 1.390 . S
C243 H236 0.950 . S
C243 C240 1.387 . S
C244 C245 1.387 . S
C244 H248 0.950 . S
C244 C253 1.390 . S
C245 C244 1.387 . S
C245 C247 1.387 . S
H246 C253 0.950 . S
C247 C245 1.387 . S
C247 C249 1.390 . S
C247 H251 0.950 . S
H248 C244 0.950 . S
C249 C247 1.390 . S
C249 C250 1.387 . S
C249 H252 0.950 . S
C250 C249 1.387 . S
C250 C253 1.387 . S
H251 C247 0.950 . S
H252 C249 0.950 . S
C253 C244 1.390 . S
C253 H246 0.950 . S
C253 C250 1.387 . S
C254 C255 1.389 . S
C254 H258 0.950 . S
C254 C263 1.390 . S
C255 C254 1.389 . S
C255 C257 1.386 1_455 S
H256 C263 0.950 . S
C257 C255 1.386 1_655 S
C257 C259 1.390 . S
C257 H261 0.950 . S
H258 C254 0.950 . S
C259 C257 1.390 . S
C259 C260 1.387 1_655 S
C259 H262 0.950 . S
C260 C259 1.387 1_455 S
C260 C263 1.387 . S
H261 C257 0.950 . S
H262 C259 0.950 . S
C263 C254 1.390 . S
C263 H256 0.950 . S
C263 C260 1.387 . S
C264 C265 1.387 1_455 S
C264 H268 0.950 . S
C264 C273 1.390 . S
C265 C264 1.387 1_655 S
C265 C267 1.387 . S
H266 C273 0.950 . S
C267 C265 1.387 . S
C267 C269 1.390 . S
C267 H271 0.950 . S
H268 C264 0.950 . S
C269 C267 1.390 . S
C269 C270 1.387 . S
C269 H272 0.950 . S
C270 C269 1.387 . S
C270 C273 1.387 1_655 S
H271 C267 0.950 . S
H272 C269 0.950 . S
C273 C264 1.390 . S
C273 H266 0.950 . S
C273 C270 1.387 1_455 S
C274 C275 1.387 . S
C274 H278 0.950 . S
C274 C283 1.390 . S
C275 C274 1.387 . S
C275 C277 1.387 . S
H276 C283 0.950 . S
C277 C275 1.387 . S
C277 C279 1.390 . S
C277 H281 0.950 . S
H278 C274 0.950 . S
C279 C277 1.390 . S
C279 C280 1.387 . S
C279 H282 0.950 . S
C280 C279 1.387 . S
C280 C283 1.387 . S
H281 C277 0.950 . S
H282 C279 0.950 . S
C283 C274 1.390 . S
C283 H276 0.950 . S
C283 C280 1.387 . S
C284 C285 1.387 . S
C284 H288 0.950 . S
C284 C293 1.390 . S
C285 C284 1.387 . S
C285 C287 1.387 . S
H286 C293 0.950 . S
C287 C285 1.387 . S
C287 C289 1.390 . S
C287 H291 0.950 . S
H288 C284 0.950 . S
C289 C287 1.390 . S
C289 C290 1.387 . S
C289 H292 0.950 . S
C290 C289 1.387 . S
C290 C293 1.387 . S
H291 C287 0.950 . S
H292 C289 0.950 . S
C293 C284 1.390 . S
C293 H286 0.950 . S
C293 C290 1.387 . S
C294 C295 1.387 . S
C294 H298 0.950 . S
C294 C303 1.390 . S
C295 C294 1.387 . S
C295 C297 1.387 . S
H296 C303 0.950 . S
C297 C295 1.387 . S
C297 C299 1.390 . S
C297 H301 0.950 . S
H298 C294 0.950 . S
C299 C297 1.390 . S
C299 C300 1.387 . S
C299 H302 0.950 . S
C300 C299 1.387 . S
C300 C303 1.387 . S
H301 C297 0.950 . S
H302 C299 0.950 . S
C303 C294 1.390 . S
C303 H296 0.950 . S
C303 C300 1.387 . S
C304 C305 1.387 1_554 S
C304 H308 0.950 . S
C304 C313 1.390 1_554 S
C305 C304 1.387 1_556 S
C305 C307 1.387 . S
H306 C313 0.950 1_554 S
C307 C305 1.387 . S
C307 C309 1.390 . S
C307 H311 0.950 . S
H308 C304 0.950 . S
C309 C307 1.390 . S
C309 C310 1.387 . S
C309 H312 0.950 . S
C310 C309 1.387 . S
C310 C313 1.387 . S
H311 C307 0.950 . S
H312 C309 0.950 . S
C313 C304 1.390 1_556 S
C313 H306 0.950 1_556 S
C313 C310 1.387 . S
C314 C315 1.387 1_554 S
C314 H318 0.950 . S
C314 C323 1.390 . S
C315 C314 1.387 1_556 S
C315 C317 1.387 . S
H316 C323 0.950 1_545 S
C317 C315 1.387 . S
C317 C319 1.390 . S
C317 H321 0.950 . S
H318 C314 0.950 . S
C319 C317 1.390 . S
C319 C320 1.387 . S
C319 H322 0.950 . S
C320 C319 1.387 . S
C320 C323 1.387 1_556 S
H321 C317 0.950 . S
H322 C319 0.950 . S
C323 C314 1.390 . S
C323 H316 0.950 1_565 S
C323 C320 1.387 1_554 S
C324 C325 1.387 . S
C324 H328 0.950 . S
C324 C333 1.390 . S
C325 C324 1.387 . S
C325 C327 1.387 1_556 S
H326 C333 0.950 . S
C327 C325 1.387 1_554 S
C327 C329 1.390 1_554 S
C327 H331 0.950 . S
H328 C324 0.950 . S
C329 C327 1.390 1_556 S
C329 C330 1.387 . S
C329 H332 0.950 1_556 S
C330 C329 1.387 . S
C330 C333 1.387 . S
H331 C327 0.950 . S
H332 C329 0.950 1_554 S
C333 C324 1.390 . S
C333 H326 0.950 . S
C333 C330 1.387 . S
C334 C335 1.387 . S
C334 H338 0.950 1_556 S
C334 C343 1.390 . S
C335 C334 1.387 . S
C335 C337 1.387 . S
H336 C343 0.950 . S
C337 C335 1.387 . S
C337 C339 1.390 . S
C337 H341 0.950 . S
H338 C334 0.950 1_554 S
C339 C337 1.390 . S
C339 C340 1.387 . S
C339 H342 0.950 . S
C340 C339 1.387 . S
C340 C343 1.387 . S
H341 C337 0.950 . S
H342 C339 0.950 . S
C343 C334 1.390 . S
C343 H336 0.950 . S
C343 C340 1.387 . S
C344 C345 1.387 1_655 S
C344 H348 0.950 . S
C344 C353 1.390 . S
C345 C344 1.387 1_455 S
C345 C347 1.387 . S
H346 C353 0.950 . S
C347 C345 1.387 . S
C347 C349 1.390 . S
C347 H351 0.950 . S
H348 C344 0.950 . S
C349 C347 1.390 . S
C349 C350 1.387 . S
C349 H352 0.950 . S
C350 C349 1.387 . S
C350 C353 1.387 1_455 S
H351 C347 0.950 . S
H352 C349 0.950 . S
C353 C344 1.390 . S
C353 H346 0.950 . S
C353 C350 1.387 1_655 S
C354 C355 1.387 . S
C354 H358 0.950 . S
C354 C363 1.390 . S
C355 C354 1.387 . S
C355 C357 1.387 . S
H356 C363 0.950 . S
C357 C355 1.387 . S
C357 C359 1.390 . S
C357 H361 0.950 . S
H358 C354 0.950 . S
C359 C357 1.390 . S
C359 C360 1.387 . S
C359 H362 0.950 1_545 S
C360 C359 1.387 . S
C360 C363 1.387 . S
H361 C357 0.950 . S
H362 C359 0.950 1_565 S
C363 C354 1.390 . S
C363 H356 0.950 . S
C363 C360 1.387 . S
C364 C365 1.387 . S
C364 H368 0.950 . S
C364 C373 1.390 . S
C365 C364 1.387 . S
C365 C367 1.387 . S
H366 C373 0.950 . S
C367 C365 1.387 . S
C367 C369 1.390 . S
C367 H371 0.950 . S
H368 C364 0.950 . S
C369 C367 1.390 . S
C369 C370 1.387 . S
C369 H372 0.950 . S
C370 C369 1.387 . S
C370 C373 1.387 . S
H371 C367 0.950 . S
H372 C369 0.950 . S
C373 C364 1.390 . S
C373 H366 0.950 . S
C373 C370 1.387 . S
C374 C375 1.387 . S
C374 H378 0.950 . S
C374 C383 1.390 . S
C375 C374 1.387 . S
C375 C377 1.387 . S
H376 C383 0.950 . S
C377 C375 1.387 . S
C377 C379 1.390 . S
C377 H381 0.950 . S
H378 C374 0.950 . S
C379 C377 1.390 . S
C379 C380 1.387 . S
C379 H382 0.950 . S
C380 C379 1.387 . S
C380 C383 1.387 . S
H381 C377 0.950 . S
H382 C379 0.950 . S
C383 C374 1.390 . S
C383 H376 0.950 . S
C383 C380 1.387 . S
C384 C385 1.387 . S
C384 H388 0.950 . S
C384 C393 1.390 . S
C385 C384 1.387 . S
C385 C387 1.387 1_655 S
H386 C393 0.950 . S
C387 C385 1.387 1_455 S
C387 C389 1.390 . S
C387 H391 0.950 . S
H388 C384 0.950 . S
C389 C387 1.390 . S
C389 C390 1.387 1_455 S
C389 H392 0.950 . S
C390 C389 1.387 1_655 S
C390 C393 1.387 . S
H391 C387 0.950 . S
H392 C389 0.950 . S
C393 C384 1.390 . S
C393 H386 0.950 . S
C393 C390 1.387 . S
C394 C395 1.387 . S
C394 H398 0.950 1_565 S
C394 C403 1.390 1_565 S
C395 C394 1.387 . S
C395 C397 1.387 . S
H396 C403 0.950 . S
C397 C395 1.387 . S
C397 C399 1.390 . S
C397 H401 0.950 . S
H398 C394 0.950 1_545 S
C399 C397 1.390 . S
C399 C400 1.387 . S
C399 H402 0.950 . S
C400 C399 1.387 . S
C400 C403 1.387 1_565 S
H401 C397 0.950 . S
H402 C399 0.950 . S
C403 C394 1.390 1_545 S
C403 H396 0.950 . S
C403 C400 1.387 1_545 S
C404 C405 1.387 . S
C404 H408 0.950 . S
C404 C413 1.390 . S
C405 C404 1.387 . S
C405 C407 1.387 . S
H406 C413 0.950 . S
C407 C405 1.387 . S
C407 C409 1.390 . S
C407 H411 0.950 . S
H408 C404 0.950 . S
C409 C407 1.390 . S
C409 C410 1.387 . S
C409 H412 0.950 . S
C410 C409 1.387 . S
C410 C413 1.387 . S
H411 C407 0.950 . S
H412 C409 0.950 . S
C413 C404 1.390 . S
C413 H406 0.950 . S
C413 C410 1.387 . S
C414 C415 1.387 . S
C414 H418 0.950 . S
C414 C423 1.390 . S
C415 C414 1.387 . S
C415 C417 1.387 . S
H416 C423 0.950 . S
C417 C415 1.387 . S
C417 C419 1.390 . S
C417 H421 0.950 . S
H418 C414 0.950 . S
C419 C417 1.390 . S
C419 C420 1.387 . S
C419 H422 0.950 . S
C420 C419 1.387 . S
C420 C423 1.387 . S
H421 C417 0.950 . S
H422 C419 0.950 . S
C423 C414 1.390 . S
C423 H416 0.950 . S
C423 C420 1.387 . S
C185 C82 1.558 . S
C190 C112 1.737 . S
C200 C142 1.799 . S
C195 C95 1.610 . S
C210 C152 1.658 . S
C205 C56 1.407 . S
C220 C172 1.535 . S
C215 C69 1.333 1_655 S
C230 C113 1.739 . S
C225 C30 1.501 . S
C235 C43 1.562 1_556 S
C240 C143 1.801 . S
C245 C4 1.409 1_556 S
C250 C153 1.658 . S
C255 C17 1.326 . S
C260 C173 1.537 . S
C270 C105 1.040 . S
C265 C74 1.021 1_655 S
C280 C126 0.916 1_545 S
C275 C87 0.882 . S
C290 C145 1.173 . S
C285 C100 1.155 . S
C295 C61 0.951 . S
C300 C165 0.960 . S
C305 C22 1.022 1_556 S
C310 C106 1.039 . S
C320 C125 0.914 1_565 S
C315 C35 0.879 . S
C330 C146 1.173 . S
C325 C48 1.152 1_556 S
C335 C9 0.953 1_556 S
C340 C166 0.965 . S
C345 C73 1.547 . S
C350 C123 1.671 . S
C355 C86 1.481 . S
C360 C133 1.650 . S
C370 C163 1.844 . S
C365 C99 1.686 . S
C380 C183 1.826 . S
C375 C60 1.686 . S
C385 C21 1.546 1_655 S
C390 C122 1.670 . S
C400 C132 1.649 . S
C395 C34 1.476 . S
C410 C162 1.844 . S
C405 C47 1.684 . S
C415 C8 1.691 . S
C420 C182 1.829 . S
