# Generated by pormake.
# Topology anh, (6,3)-cn, num edge types: 1
# Building blocks:
#     Node 0, Type 0, BuildingBlock: INOVEN_clean_sbu_0, # of connection points: 6
#     Node 1, Type 0, BuildingBlock: INOVEN_clean_sbu_0, # of connection points: 6
#     Node 2, Type 0, BuildingBlock: INOVEN_clean_sbu_0, # of connection points: 6
#     Node 3, Type 1, BuildingBlock: CUQRIR_clean_linker_1, # of connection points: 3
#     Node 4, Type 1, BuildingBlock: CUQRIR_clean_linker_1, # of connection points: 3
#     Node 5, Type 1, BuildingBlock: CUQRIR_clean_linker_1, # of connection points: 3
#     Node 6, Type 1, BuildingBlock: CUQRIR_clean_linker_1, # of connection points: 3
#     Node 7, Type 1, BuildingBlock: CUQRIR_clean_linker_1, # of connection points: 3
#     Node 8, Type 1, BuildingBlock: CUQRIR_clean_linker_1, # of connection points: 3
#     Edge 9, Type (0, 1), BuildingBlock: MIFKUJ_clean_linker_0, # of connection points: 2
#     Edge 10, Type (0, 1), BuildingBlock: MIFKUJ_clean_linker_0, # of connection points: 2
#     Edge 11, Type (0, 1), BuildingBlock: MIFKUJ_clean_linker_0, # of connection points: 2
#     Edge 12, Type (0, 1), BuildingBlock: MIFKUJ_clean_linker_0, # of connection points: 2
#     Edge 13, Type (0, 1), BuildingBlock: MIFKUJ_clean_linker_0, # of connection points: 2
#     Edge 14, Type (0, 1), BuildingBlock: MIFKUJ_clean_linker_0, # of connection points: 2
#     Edge 15, Type (0, 1), BuildingBlock: MIFKUJ_clean_linker_0, # of connection points: 2
#     Edge 16, Type (0, 1), BuildingBlock: MIFKUJ_clean_linker_0, # of connection points: 2
#     Edge 17, Type (0, 1), BuildingBlock: MIFKUJ_clean_linker_0, # of connection points: 2
#     Edge 18, Type (0, 1), BuildingBlock: MIFKUJ_clean_linker_0, # of connection points: 2
#     Edge 19, Type (0, 1), BuildingBlock: MIFKUJ_clean_linker_0, # of connection points: 2
#     Edge 20, Type (0, 1), BuildingBlock: MIFKUJ_clean_linker_0, # of connection points: 2
#     Edge 21, Type (0, 1), BuildingBlock: MIFKUJ_clean_linker_0, # of connection points: 2
#     Edge 22, Type (0, 1), BuildingBlock: MIFKUJ_clean_linker_0, # of connection points: 2
#     Edge 23, Type (0, 1), BuildingBlock: MIFKUJ_clean_linker_0, # of connection points: 2
#     Edge 24, Type (0, 1), BuildingBlock: MIFKUJ_clean_linker_0, # of connection points: 2
#     Edge 25, Type (0, 1), BuildingBlock: MIFKUJ_clean_linker_0, # of connection points: 2
#     Edge 26, Type (0, 1), BuildingBlock: MIFKUJ_clean_linker_0, # of connection points: 2
# Relax obj value: 0.168
# Max RMSD: 0.212
# Mean RMSD: 0.163
data_MOF--net-anh--node1-INOVEN_clean_sbu_0--node2-CUQRIR_clean_linker_1--edge1-MIFKUJ_clean_linker_0
_symmetry_space_group_name_H-M    P1
_symmetry_Int_Tables_number       1
_symmetry_cell_setting            triclinic
loop_
_symmetry_equiv_pos_as_xyz
'x, y, z'
_cell_length_a     38.182942
_cell_length_b     44.339918
_cell_length_c     61.538025
_cell_angle_alpha  88.420388
_cell_angle_beta   90.906411
_cell_angle_gamma 128.27661
loop_
_atom_site_label
_atom_site_type_symbol
_atom_site_fract_x
_atom_site_fract_y
_atom_site_fract_z
_atom_type_partial_charge
Gd0 Gd 0.08829 0.48255 0.15185 0.0
Gd1 Gd 1.03121 0.50987 0.16289 0.0
C2 C 0.137 0.57246 0.1649 0.0
C3 C 0.1429 0.47754 0.13214 0.0
C4 C 0.18912 0.49439 0.13797 0.0
C5 C 0.20019 0.49223 0.15953 0.0
C6 C 0.22321 0.51639 0.12254 0.0
C7 C 0.2789 0.53325 0.15004 0.0
C8 C 0.26775 0.53576 0.1285 0.0
C9 C 0.24455 0.51123 0.16545 0.0
C10 C 0.07991 0.48348 0.19567 0.0
C11 C 0.98275 0.41773 0.15633 0.0
C12 C 0.97272 0.5155 0.17762 0.0
C13 C 0.92687 0.48665 0.18543 0.0
C14 C 0.89526 0.49239 0.18122 0.0
C15 C 0.91289 0.45091 0.19376 0.0
C16 C 0.83558 0.4251 0.18997 0.0
C17 C 0.86742 0.42021 0.19591 0.0
C18 C 0.8499 0.46188 0.18358 0.0
C19 C 0.0604 0.52102 0.1215 0.0
O20 O 0.13955 0.54735 0.15535 0.0
O21 O 0.09871 0.56339 0.17168 0.0
O22 O 0.11157 0.45004 0.14516 0.0
O23 O 0.13686 0.5027 0.12629 0.0
O24 O 0.10101 0.4726 0.18688 0.0
O25 O 0.06527 0.49241 0.1806 0.0
O26 O 0.98106 0.44457 0.16394 0.0
O27 O 1.01986 0.42604 0.14823 0.0
O28 O 0.97821 0.51377 0.15686 0.0
O29 O 1.00439 0.52048 0.18972 0.0
O30 O 0.05752 0.54479 0.13157 0.0
O31 O 1.04561 0.49172 0.13341 0.0
H32 H 0.17465 0.47602 0.1719 0.0
H33 H 0.21536 0.519 0.10596 0.0
H34 H 0.29343 0.55267 0.11626 0.0
H35 H 0.25176 0.50788 0.18204 0.0
H36 H 0.90548 0.51972 0.1747 0.0
H37 H 0.9369 0.44599 0.19725 0.0
H38 H 0.85711 0.39218 0.20098 0.0
H39 H 0.82603 0.46637 0.17869 0.0
Gd40 Gd 0.68739 0.0689 0.4812 0.0
Gd41 Gd 0.63051 0.09239 0.47002 0.0
C42 C 0.5805 1.00311 0.4735 0.0
C43 C 0.72146 0.03901 0.49953 0.0
C44 C 0.70974 1.00123 0.50544 0.0
C45 C 0.74159 0.99561 0.50236 0.0
C46 C 0.66815 0.97116 0.51455 0.0
C47 C 0.69122 0.9307 0.51791 0.0
C48 C 0.65897 0.93619 0.5207 0.0
C49 C 0.73247 0.96079 0.50846 0.0
C50 C 0.68061 0.07804 0.43802 0.0
C51 C 0.73918 0.15843 0.47386 0.0
C52 C 0.59634 0.12429 0.45536 0.0
C53 C 0.60032 0.15819 0.46171 0.0
C54 C 0.60299 0.16707 0.48372 0.0
C55 C 0.60173 0.18211 0.44573 0.0
C56 C 0.60691 0.22262 0.47371 0.0
C57 C 0.60519 0.21416 0.45166 0.0
C58 C 0.60597 0.1988 0.48965 0.0
C59 C 0.63667 0.08252 0.51304 0.0
O60 O 0.61655 0.01266 0.48399 0.0
O61 O 0.58078 0.02956 0.46282 0.0
O62 O 0.72567 0.04795 0.47881 0.0
O63 O 0.70187 0.04988 0.51032 0.0
O64 O 0.71645 0.08658 0.44726 0.0
O65 O 0.64946 0.06287 0.45169 0.0
O66 O 0.70074 0.14863 0.46643 0.0
O67 O 0.74191 0.13266 0.48307 0.0
O68 O 0.57604 0.0953 0.46925 0.0
O69 O 0.63193 0.13117 0.4469 0.0
O70 O 0.60109 0.07381 0.50362 0.0
O71 O 0.66837 0.09864 0.4996 0.0
H72 H 0.77381 0.01835 0.4953 0.0
H73 H 0.64296 0.97478 0.5171 0.0
H74 H 0.62698 0.91377 0.52805 0.0
H75 H 0.75777 0.95739 0.50565 0.0
H76 H 0.60265 0.14942 0.49638 0.0
H77 H 0.59996 0.1759 0.42867 0.0
H78 H 0.60567 0.23191 0.43902 0.0
H79 H 0.60797 0.20491 0.50675 0.0
Gd80 Gd 0.60481 0.59508 0.8498 0.0
Gd81 Gd 0.54194 0.5092 0.84938 0.0
C82 C 0.49394 0.5494 0.85279 0.0
C83 C 0.6481 0.66735 0.83996 0.0
C84 C 0.64136 0.69597 0.83422 0.0
C85 C 0.67707 0.73503 0.8366 0.0
C86 C 0.60101 0.6853 0.82545 0.0
C87 C 0.63318 0.75288 0.8206 0.0
C88 C 0.59693 0.71352 0.81873 0.0
C89 C 0.67308 0.76317 0.8299 0.0
C90 C 0.58815 0.56032 0.88881 0.0
C91 C 0.65282 0.55453 0.84938 0.0
C92 C 0.50475 0.43753 0.85729 0.0
C93 C 0.51811 0.41282 0.85452 0.0
C94 C 0.48787 0.37659 0.84533 0.0
C95 C 0.56109 0.42538 0.86006 0.0
C96 C 0.54357 0.36614 0.8466 0.0
C97 C 0.57371 0.4023 0.85611 0.0
C98 C 0.50039 0.35351 0.84142 0.0
C99 C 0.55912 0.54336 0.80989 0.0
O100 O 0.53515 0.58212 0.84895 0.0
O101 O 0.48826 0.51664 0.85552 0.0
O102 O 0.63931 0.65385 0.85998 0.0
O103 O 0.63527 0.64106 0.8256 0.0
O104 O 0.62735 0.59126 0.88315 0.0
O105 O 0.55983 0.55066 0.87415 0.0
O106 O 0.61104 0.52176 0.85033 0.0
O107 O 0.65953 0.58783 0.848 0.0
O108 O 0.49797 0.4498 0.83937 0.0
O109 O 0.52606 0.46399 0.87205 0.0
O110 O 0.52025 0.51248 0.81586 0.0
O111 O 0.58746 0.55353 0.82471 0.0
H112 H 0.70845 0.74386 0.84338 0.0
H113 H 0.573 0.65525 0.82344 0.0
H114 H 0.56582 0.70452 0.81154 0.0
H115 H 0.70138 0.79308 0.83201 0.0
H116 H 0.45464 0.36636 0.84084 0.0
H117 H 0.58511 0.4531 0.86731 0.0
H118 H 0.60702 0.41277 0.86056 0.0
H119 H 0.47649 0.3261 0.83381 0.0
C120 C 0.56144 0.99627 0.17912 0.0
N121 N 0.58868 0.02472 0.1934 0.0
N122 N 0.52572 0.96471 0.18957 0.0
C123 C 0.56849 0.99977 0.15498 0.0
C124 C 0.53234 0.97481 0.21064 0.0
N125 N 0.57014 0.01124 0.21295 0.0
C126 C 0.50366 0.9479 0.22919 0.0
H127 H 0.58384 0.02945 0.14909 0.0
H128 H 0.53654 0.97907 0.14636 0.0
H129 H 0.59156 0.99339 0.15114 0.0
H130 H 0.52438 0.95352 0.24368 0.0
H131 H 0.48488 0.9174 0.22473 0.0
H132 H 0.47941 0.9527 0.23354 0.0
C133 C 0.63675 0.56446 0.54981 0.0
N134 N 0.63836 0.58581 0.56574 0.0
N135 N 0.63664 0.53592 0.55847 0.0
C136 C 0.63562 0.57142 0.52585 0.0
C137 C 0.63854 0.54095 0.5802 0.0
N138 N 0.63996 0.57141 0.58458 0.0
C139 C 0.63803 0.51562 0.5972 0.0
H140 H 0.61508 0.54378 0.5172 0.0
H141 H 0.6701 0.58883 0.51933 0.0
H142 H 0.62235 0.5873 0.52245 0.0
H143 H 0.65774 0.53228 0.61164 0.0
H144 H 0.6516 0.50168 0.59064 0.0
H145 H 0.6031 0.49295 0.60252 0.0
C146 C 0.07191 0.54784 0.85976 0.0
N147 N 0.10186 0.54972 0.8739 0.0
N148 N 1.0418 0.55008 0.87038 0.0
C149 C 0.07322 0.54545 0.83563 0.0
C150 C 1.05464 0.5529 0.89137 0.0
N151 N 0.09029 0.55308 0.89347 0.0
C152 C 1.03068 0.55348 0.91034 0.0
H153 H 0.10832 0.56377 0.82986 0.0
H154 H 1.05474 0.55427 0.82731 0.0
H155 H 0.0575 0.51533 0.83146 0.0
H156 H 1.02946 0.53625 0.92415 0.0
H157 H 0.99607 0.54176 0.90615 0.0
H158 H 1.04929 0.58354 0.91565 0.0
C159 C 0.16008 0.58073 0.45282 0.0
N160 N 0.12979 0.55315 0.43884 0.0
N161 N 0.18974 0.61473 0.44204 0.0
C162 C 0.15892 0.57525 0.47707 0.0
C163 C 0.17647 0.60669 0.42104 0.0
N164 N 0.13992 0.56958 0.41914 0.0
C165 C 0.20129 0.63434 0.40215 0.0
H166 H 0.17437 0.60276 0.48539 0.0
H167 H 0.17802 0.56471 0.48141 0.0
H168 H 0.12413 0.5536 0.48291 0.0
H169 H 0.23717 0.65629 0.406 0.0
H170 H 0.18675 0.64915 0.39845 0.0
H171 H 0.19821 0.61894 0.38744 0.0
C172 C 0.62221 0.08295 0.77697 0.0
N173 N 0.62743 0.06554 0.76097 0.0
N174 N 0.62971 0.11547 0.76926 0.0
C175 C 0.61315 0.06991 0.80044 0.0
C176 C 0.63983 0.11725 0.74802 0.0
N177 N 0.63901 0.08725 0.74305 0.0
C178 C 0.64675 0.14649 0.73174 0.0
H179 H 0.57659 0.0485 0.80294 0.0
H180 H 0.62615 0.0944 0.81126 0.0
H181 H 0.62861 0.05613 0.80498 0.0
H182 H 0.68267 0.17167 0.73131 0.0
H183 H 0.62742 0.1564 0.73629 0.0
H184 H 0.63674 0.13454 0.71522 0.0
C185 C 0.52298 0.41471 0.13723 0.0
N186 N 0.52791 0.40401 0.11788 0.0
N187 N 0.50492 0.43277 0.13437 0.0
C188 C 0.53663 0.40823 0.15879 0.0
C189 C 0.49926 0.43288 0.1126 0.0
N190 N 0.5131 0.41515 0.10252 0.0
C191 C 0.48445 0.45368 0.10111 0.0
H192 H 0.51801 0.40858 0.17231 0.0
H193 H 0.5728 0.43154 0.16119 0.0
H194 H 0.53097 0.38047 0.15913 0.0
H195 H 0.49178 0.47759 0.11092 0.0
H196 H 0.44792 0.43314 0.09839 0.0
H197 H 0.5011 0.46534 0.0851 0.0
H198 H 0.3393 0.53503 0.12593 0.0
H199 H 0.4073 0.54746 0.13874 0.0
H200 H 0.39208 0.58091 0.2009 0.0
H201 H 0.3235 0.56891 0.18795 0.0
H202 H 0.48848 0.60004 0.15777 0.0
H203 H 0.40958 0.53564 0.23697 0.0
H204 H 0.33837 0.50397 0.25664 0.0
H205 H 0.26558 0.44451 0.19884 0.0
H206 H 0.33643 0.47562 0.17897 0.0
H207 H 0.56628 0.49182 0.15963 0.0
H208 H 0.55462 0.53124 0.18088 0.0
H209 H 0.41444 0.45434 0.16483 0.0
H210 H 0.42636 0.41527 0.14407 0.0
H211 H 0.42709 0.48461 0.20481 0.0
H212 H 0.49204 0.53104 0.12923 0.0
H213 H 0.55429 0.55517 0.10402 0.0
H214 H 0.64588 0.64386 0.1485 0.0
H215 H 0.58402 0.61967 0.17418 0.0
C216 C 0.35119 0.54659 0.142 0.0
C217 C 0.32539 0.5501 0.15608 0.0
C218 C 0.39036 0.55386 0.14934 0.0
C219 C 0.40443 0.56458 0.1709 0.0
C220 C 0.38153 0.57229 0.18428 0.0
C221 C 0.34216 0.56502 0.17691 0.0
C222 C 0.43599 0.5587 0.17993 0.0
C223 C 0.47634 0.57598 0.16889 0.0
C224 C 0.42052 0.52763 0.19461 0.0
C225 C 0.37804 0.50796 0.20656 0.0
C226 C 0.37832 0.51564 0.22855 0.0
C227 C 0.33808 0.49784 0.23971 0.0
C228 C 0.29748 0.47227 0.22899 0.0
C229 C 0.29703 0.46428 0.20713 0.0
C230 C 0.33717 0.48189 0.19593 0.0
C231 C 0.53288 0.48287 0.16146 0.0
C232 C 0.49708 0.45097 0.15028 0.0
C233 C 0.52623 0.50526 0.17353 0.0
C234 C 0.48373 0.49587 0.17434 0.0
C235 C 0.44746 0.46201 0.16463 0.0
C236 C 0.45416 0.43984 0.15264 0.0
C237 C 0.47725 0.52388 0.18114 0.0
C238 C 0.44183 0.51091 0.19532 0.0
C239 C 0.49681 0.55852 0.16905 0.0
C240 C 0.53372 0.57345 0.1536 0.0
C241 C 0.52551 0.55565 0.13359 0.0
C242 C 0.56069 0.5693 0.11925 0.0
C243 C 0.60405 0.60105 0.12461 0.0
C244 C 0.61229 0.61923 0.14437 0.0
C245 C 0.57722 0.60553 0.15885 0.0
H246 H 0.63125 0.61158 0.11346 0.0
H247 H 0.26637 0.45863 0.23763 0.0
H248 H 0.74536 0.2195 0.45699 0.0
H249 H 0.81201 0.28607 0.45196 0.0
H250 H 0.89274 0.2573 0.47953 0.0
H251 H 0.82588 0.19053 0.48497 0.0
H252 H 0.91908 0.32332 0.49502 0.0
H253 H 0.88684 0.27181 0.42302 0.0
H254 H 0.84737 0.24381 0.38848 0.0
H255 H 0.83506 0.33328 0.3794 0.0
H256 H 0.87349 0.36128 0.41419 0.0
H257 H 0.12879 0.49816 0.45976 0.0
H258 H 0.06335 0.43117 0.46729 0.0
H259 H 0.97856 0.45384 0.43729 0.0
H260 H 1.04415 0.52031 0.42944 0.0
H261 H 0.95582 0.39043 0.42338 0.0
H262 H 0.98442 0.44181 0.49455 0.0
H263 H 1.02926 0.47522 0.52721 0.0
H264 H 1.04864 0.39029 0.53753 0.0
H265 H 1.00444 0.35666 0.50473 0.0
C266 C 0.77723 0.22719 0.46203 0.0
C267 C 0.78003 0.19936 0.47136 0.0
C268 C 0.81552 0.26541 0.45899 0.0
C269 C 0.85782 0.27689 0.465 0.0
C270 C 0.86065 0.24932 0.47465 0.0
C271 C 0.82229 0.21103 0.47775 0.0
C272 C 0.89886 0.31766 0.46154 0.0
C273 C 0.92731 0.3378 0.47927 0.0
C274 C 0.90934 0.33733 0.44119 0.0
C275 C 0.88266 0.3184 0.42132 0.0
C276 C 0.87496 0.28508 0.41387 0.0
C277 C 0.85293 0.26933 0.39416 0.0
C278 C 0.83888 0.28689 0.38168 0.0
C279 C 0.84598 0.31974 0.38908 0.0
C280 C 0.86774 0.33547 0.40881 0.0
C281 C 0.09601 0.48869 0.45502 0.0
C282 C 0.09129 0.51418 0.44407 0.0
C283 C 0.05859 0.4505 0.45938 0.0
C284 C 1.01562 0.43727 0.45314 0.0
C285 C 1.01114 0.46308 0.4423 0.0
C286 C 1.04854 0.50104 0.43779 0.0
C287 C 0.97551 0.39627 0.45686 0.0
C288 C 0.94739 0.37603 0.43917 0.0
C289 C 0.96503 0.37686 0.47729 0.0
C290 C 0.99151 0.39695 0.49705 0.0
C291 C 0.99854 0.43043 0.50368 0.0
C292 C 1.02379 0.44938 0.52224 0.0
C293 C 1.04189 0.43495 0.53441 0.0
C294 C 1.03466 0.40147 0.52807 0.0
C295 C 1.00949 0.38244 0.5095 0.0
H296 H 0.06141 0.44966 0.54878 0.0
H297 H 0.82279 0.27534 0.36618 0.0
H298 H 0.56278 0.75475 0.82428 0.0
H299 H 0.55917 0.80571 0.81183 0.0
H300 H 0.69286 0.87074 0.78634 0.0
H301 H 0.69664 0.82001 0.79862 0.0
H302 H 0.68382 0.91595 0.80863 0.0
H303 H 0.6005 0.82313 0.75282 0.0
H304 H 0.5414 0.75921 0.73825 0.0
H305 H 0.44125 0.76219 0.76618 0.0
H306 H 0.4998 0.82594 0.78117 0.0
H307 H 0.69002 0.05839 0.75001 0.0
H308 H 0.68825 1.00273 0.75742 0.0
H309 H 0.55645 0.94059 0.78494 0.0
H310 H 0.55803 0.99603 0.77701 0.0
H311 H 0.56361 0.89349 0.7613 0.0
H312 H 0.64621 0.98527 0.8175 0.0
H313 H 0.70479 0.04917 0.83223 0.0
H314 H 0.8058 0.04768 0.80397 0.0
H315 H 0.74774 0.98398 0.78876 0.0
C316 C 0.59123 0.7797 0.8158 0.0
C317 C 0.63007 0.78326 0.81256 0.0
C318 C 0.58913 0.80887 0.80869 0.0
C319 C 0.62566 0.84208 0.79799 0.0
C320 C 0.6643 0.84555 0.79463 0.0
C321 C 0.66646 0.81651 0.80176 0.0
C322 C 0.62426 0.87375 0.79079 0.0
C323 C 0.65786 0.91105 0.79802 0.0
C324 C 0.58982 0.86738 0.77738 0.0
C325 C 0.55455 0.82914 0.7683 0.0
C326 C 0.56588 0.81003 0.756 0.0
C327 C 0.53248 0.77385 0.74764 0.0
C328 C 0.4876 0.75661 0.75134 0.0
C329 C 0.47603 0.77556 0.76335 0.0
C330 C 0.50931 0.81173 0.77176 0.0
C331 C 0.66044 0.03252 0.75725 0.0
C332 C 0.62435 0.03146 0.76316 0.0
C333 C 0.65952 1.00087 0.76163 0.0
C334 C 0.62249 0.96763 0.77209 0.0
C335 C 0.58546 0.96591 0.77698 0.0
C336 C 0.58645 0.99758 0.77259 0.0
C337 C 0.62337 0.93561 0.779 0.0
C338 C 0.58963 0.89831 0.77182 0.0
C339 C 0.65762 0.9419 0.79251 0.0
C340 C 0.69262 0.98002 0.80181 0.0
C341 C 0.6809 0.99869 0.81429 0.0
C342 C 0.71401 0.03486 0.82274 0.0
C343 C 0.75899 0.05252 0.81899 0.0
C344 C 0.77095 0.03398 0.80683 0.0
C345 C 0.73795 0.99784 0.7983 0.0
H346 H 0.78458 0.08052 0.82555 0.0
H347 H 0.46179 0.72859 0.74485 0.0
H348 H 0.76153 0.41491 0.20396 0.0
H349 H 0.68753 0.37205 0.18808 0.0
H350 H 0.72936 0.31755 0.15152 0.0
H351 H 0.80395 0.36107 0.16726 0.0
H352 H 0.70612 0.3487 0.12517 0.0
H353 H 0.63121 0.25987 0.18154 0.0
H354 H 0.61019 0.23316 0.21893 0.0
H355 H 0.56112 0.29611 0.23038 0.0
H356 H 0.58247 0.32377 0.19322 0.0
H357 H 0.48409 0.32822 0.11483 0.0
H358 H 0.51753 0.29551 0.1197 0.0
H359 H 0.64835 0.40604 0.12067 0.0
H360 H 0.61468 0.43795 0.11612 0.0
H361 H 0.56142 0.3037 0.15597 0.0
H362 H 0.72614 0.4048 0.10434 0.0
H363 H 0.74644 0.43105 0.06687 0.0
H364 H 0.61427 0.33945 0.04524 0.0
H365 H 0.59326 0.31216 0.08252 0.0
C366 C 0.75433 0.39268 0.19327 0.0
C367 C 0.78844 0.39157 0.18662 0.0
C368 C 0.71184 0.36785 0.18429 0.0
C369 C 0.70279 0.34153 0.1685 0.0
C370 C 0.73552 0.33753 0.1637 0.0
C371 C 0.77808 0.36232 0.17278 0.0
C372 C 0.66436 0.32631 0.15374 0.0
C373 C 0.67398 0.33788 0.13174 0.0
C374 C 0.6216 0.31033 0.16197 0.0
C375 C 0.6083 0.29377 0.18444 0.0
C376 C 0.61608 0.26816 0.19203 0.0
C377 C 0.6041 0.25285 0.21321 0.0
C378 C 0.58425 0.26287 0.227 0.0
C379 C 0.57635 0.28826 0.21964 0.0
C380 C 0.58826 0.30367 0.19848 0.0
C381 C 0.52004 0.34506 0.11513 0.0
C382 C 0.54724 0.3853 0.11472 0.0
C383 C 0.53905 0.32654 0.11801 0.0
C384 C 0.58546 0.34827 0.12023 0.0
C385 C 0.61259 0.38856 0.11838 0.0
C386 C 0.59356 0.40688 0.11579 0.0
C387 C 0.6058 0.33062 0.12844 0.0
C388 C 0.5926 0.31264 0.1491 0.0
C389 C 0.64513 0.34036 0.11892 0.0
C390 C 0.65814 0.35625 0.0963 0.0
C391 C 0.7015 0.38989 0.09158 0.0
C392 C 0.71311 0.40507 0.07036 0.0
C393 C 0.68168 0.38691 0.05368 0.0
C394 C 0.63858 0.3535 0.05818 0.0
C395 C 0.6268 0.33817 0.07936 0.0
H396 H 0.69072 0.39876 0.03728 0.0
H397 H 0.57503 0.251 0.2434 0.0
H398 H 0.56889 0.94021 0.49178 0.0
H399 H 0.50236 0.87283 0.49065 0.0
H400 H 0.43395 0.90535 0.45287 0.0
H401 H 0.5001 0.97278 0.45411 0.0
H402 H 0.38047 0.85324 0.4846 0.0
H403 H 0.47776 0.86567 0.42908 0.0
H404 H 0.54835 0.88204 0.41569 0.0
H405 H 0.53583 0.80047 0.46104 0.0
H406 H 0.46535 0.78391 0.47485 0.0
H407 H 0.20298 0.68138 0.43593 0.0
H408 H 0.26921 0.74557 0.44555 0.0
H409 H 0.32525 0.69602 0.4771 0.0
H410 H 0.25917 0.63158 0.46655 0.0
H411 H 0.38652 0.75487 0.45293 0.0
H412 H 0.28664 0.7372 0.50634 0.0
H413 H 0.21682 0.72064 0.52104 0.0
H414 H 0.23466 0.81126 0.48226 0.0
H415 H 0.30429 0.82805 0.46708 0.0
C416 C 0.53972 0.9331 0.48323 0.0
C417 C 0.54004 0.96205 0.47295 0.0
C418 C 0.50167 0.89445 0.48254 0.0
C419 C 0.46313 0.88383 0.47149 0.0
C420 C 0.4632 0.91274 0.4615 0.0
C421 C 0.5012 0.95135 0.46215 0.0
C422 C 0.42279 0.84268 0.47012 0.0
C423 C 0.38169 0.83179 0.47749 0.0
C424 C 0.42453 0.81426 0.46162 0.0
C425 C 0.46655 0.82383 0.45313 0.0
C426 C 0.49021 0.85139 0.43627 0.0
C427 C 0.53016 0.86067 0.42859 0.0
C428 C 0.54662 0.84237 0.43754 0.0
C429 C 0.52306 0.81465 0.45414 0.0
C430 C 0.48309 0.80527 0.46187 0.0
C431 C 0.22932 0.68428 0.44509 0.0
C432 C 0.22612 0.65167 0.45048 0.0
C433 C 0.26708 0.72094 0.45075 0.0
C434 C 0.30233 0.7259 0.4623 0.0
C435 C 0.2986 0.6931 0.46823 0.0
C436 C 0.26075 0.65629 0.46241 0.0
C437 C 0.34378 0.76544 0.467 0.0
C438 C 0.38517 0.7761 0.46027 0.0
C439 C 0.34237 0.79358 0.47631 0.0
C440 C 0.30056 0.78371 0.48545 0.0
C441 C 0.27553 0.75344 0.50083 0.0
C442 C 0.236 0.74403 0.50926 0.0
C443 C 0.22127 0.76484 0.50255 0.0
C444 C 0.2461 0.79516 0.48743 0.0
C445 C 0.28564 0.80467 0.47893 0.0
H446 H 0.19066 0.75751 0.5091 0.0
H447 H 0.57758 0.84962 0.43159 0.0
H448 H 0.49452 0.28806 0.85171 0.0
H449 H 0.51459 0.2479 0.84097 0.0
H450 H 0.64354 0.34888 0.81954 0.0
H451 H 0.6233 0.3893 0.82982 0.0
H452 H 0.60475 0.29258 0.78944 0.0
H453 H 0.63454 0.30208 0.86545 0.0
H454 H 0.61854 0.2991 0.90443 0.0
H455 H 0.5096 0.17854 0.90016 0.0
H456 H 0.52447 0.18092 0.86103 0.0
H457 H 0.69104 0.19253 0.77129 0.0
H458 H 0.68133 0.23709 0.78721 0.0
H459 H 0.54904 0.14108 0.80847 0.0
H460 H 0.5588 0.09661 0.79233 0.0
H461 H 0.59412 0.19748 0.83949 0.0
H462 H 0.56244 0.18937 0.76297 0.0
H463 H 0.57934 0.19242 0.7241 0.0
H464 H 0.69294 0.31131 0.72956 0.0
H465 H 0.67723 0.30875 0.7686 0.0
C466 C 0.52715 0.30179 0.84467 0.0
C467 C 0.55716 0.34195 0.84152 0.0
C468 C 0.53873 0.27878 0.83871 0.0
C469 C 0.58067 0.29532 0.82952 0.0
C470 C 0.61098 0.33543 0.82658 0.0
C471 C 0.59947 0.35853 0.83264 0.0
C472 C 0.59212 0.2705 0.82239 0.0
C473 C 0.60319 0.27228 0.80049 0.0
C474 C 0.58922 0.2434 0.83667 0.0
C475 C 0.5804 0.24175 0.86025 0.0
C476 C 0.60696 0.27498 0.87277 0.0
C477 C 0.59812 0.2734 0.89491 0.0
C478 C 0.56303 0.23867 0.90476 0.0
C479 C 0.53676 0.20543 0.8925 0.0
C480 C 0.5454 0.20687 0.87035 0.0
C481 C 0.66006 0.18109 0.77947 0.0
C482 C 0.62554 0.14127 0.7805 0.0
C483 C 0.65451 0.20646 0.78858 0.0
C484 C 0.61423 0.19248 0.79883 0.0
C485 C 0.5804 0.15256 0.80067 0.0
C486 C 0.58596 0.12718 0.79151 0.0
C487 C 0.6065 0.21949 0.80655 0.0
C488 C 0.59601 0.21802 0.82852 0.0
C489 C 0.60998 0.24694 0.79235 0.0
C490 C 0.61892 0.24876 0.76877 0.0
C491 C 0.5912 0.2161 0.75592 0.0
C492 C 0.60056 0.21774 0.73386 0.0
C493 C 0.63725 0.25201 0.72438 0.0
C494 C 0.66457 0.28476 0.73694 0.0
C495 C 0.65546 0.28323 0.75904 0.0
H496 H 0.64445 0.25322 0.7073 0.0
H497 H 0.55623 0.2375 0.9219 0.0
H498 H 0.74872 0.92166 0.53803 0.0
H499 H 0.73638 0.86191 0.54742 0.0
H500 H 0.60149 0.79673 0.52355 0.0
H501 H 0.61378 0.85663 0.51376 0.0
H502 H 0.60671 0.76585 0.56208 0.0
H503 H 0.67866 0.80678 0.49262 0.0
H504 H 0.73618 0.8521 0.46566 0.0
H505 H 0.83683 0.86275 0.50523 0.0
H506 H 0.77996 0.81791 0.5326 0.0
H507 H 0.57374 0.58884 0.55103 0.0
H508 H 0.57978 0.64701 0.54481 0.0
H509 H 0.71495 0.7164 0.56885 0.0
H510 H 0.70855 0.65805 0.57496 0.0
H511 H 0.70762 0.74418 0.52987 0.0
H512 H 0.63423 0.70141 0.59908 0.0
H513 H 0.57566 0.65467 0.62524 0.0
H514 H 0.47655 0.64608 0.58548 0.0
H515 H 0.53441 0.69225 0.55883 0.0
C516 C 0.71646 0.89467 0.53462 0.0
C517 C 0.68244 0.89405 0.52485 0.0
C518 C 0.7094 0.86049 0.54011 0.0
C519 C 0.6682 0.82481 0.53593 0.0
C520 C 0.63357 0.82394 0.52691 0.0
C521 C 0.64064 0.85823 0.52136 0.0
C522 C 0.66207 0.78863 0.54039 0.0
C523 C 0.62836 0.76085 0.55482 0.0
C524 C 0.6908 0.78236 0.53121 0.0
C525 C 0.7251 0.80929 0.51477 0.0
C526 C 0.71311 0.81904 0.49567 0.0
C527 C 0.74559 0.8446 0.48029 0.0
C528 C 0.79016 0.86037 0.48376 0.0
C529 C 0.80231 0.85055 0.50258 0.0
C530 C 0.76996 0.82505 0.51803 0.0
C531 C 0.60451 0.61663 0.55501 0.0
C532 C 0.64091 0.61946 0.5632 0.0
C533 C 0.60795 0.64972 0.55157 0.0
C534 C 0.64785 0.68609 0.55636 0.0
C535 C 0.68394 0.68869 0.56496 0.0
C536 C 0.68033 0.65556 0.56851 0.0
C537 C 0.65255 0.72153 0.55171 0.0
C538 C 0.68596 0.74916 0.53717 0.0
C539 C 0.62343 0.72749 0.56072 0.0
C540 C 0.58863 0.70004 0.57684 0.0
C541 C 0.59991 0.68934 0.59582 0.0
C542 C 0.56684 0.66297 0.61075 0.0
C543 C 0.52242 0.64737 0.60701 0.0
C544 C 0.51097 0.65817 0.58834 0.0
C545 C 0.54389 0.68444 0.57332 0.0
H546 H 0.49688 0.62697 0.6186 0.0
H547 H 0.81525 0.88014 0.47183 0.0
H548 H 0.65532 0.49422 0.84057 0.0
H549 H 0.71809 0.49249 0.84099 0.0
H550 H 0.8056 0.61026 0.861 0.0
H551 H 0.74304 0.61259 0.8591 0.0
H552 H 0.85553 0.60656 0.83902 0.0
H553 H 0.75615 0.51226 0.89467 0.0
H554 H 0.68436 0.45399 0.90833 0.0
H555 H 0.68866 0.38618 0.86161 0.0
H556 H 0.7603 0.44423 0.84746 0.0
H557 H 1.03754 0.60872 0.87507 0.0
H558 H 0.97354 0.60839 0.87026 0.0
H559 H 0.89626 0.49386 0.84552 0.0
H560 H 0.96075 0.49411 0.85101 0.0
H561 H 0.84043 0.49386 0.86829 0.0
H562 H 0.93871 0.58476 0.81344 0.0
H563 H 1.00885 0.64188 0.79759 0.0
H564 H 1.00511 0.71446 0.84062 0.0
H565 H 0.9352 0.65769 0.85692 0.0
C566 C 0.68781 0.51992 0.84514 0.0
C567 C 0.69281 0.55352 0.84989 0.0
C568 C 0.72446 0.51881 0.84568 0.0
C569 C 0.76833 0.55085 0.85176 0.0
C570 C 0.77323 0.58457 0.8563 0.0
C571 C 0.73675 0.58593 0.85527 0.0
C572 C 0.80869 0.54981 0.85307 0.0
C573 C 0.85173 0.5819 0.84586 0.0
C574 C 0.8058 0.51762 0.86108 0.0
C575 C 0.76338 0.48263 0.86992 0.0
C576 C 0.74173 0.48492 0.8873 0.0
C577 C 0.70103 0.45192 0.89511 0.0
C578 C 0.68189 0.41637 0.88583 0.0
C579 C 0.7035 0.41373 0.86876 0.0
C580 C 0.74417 0.44667 0.86085 0.0
C581 C 1.00741 0.58376 0.86798 0.0
C582 C 1.00584 0.55196 0.86286 0.0
C583 C 0.97005 0.58347 0.86522 0.0
C584 C 0.92849 0.55135 0.85703 0.0
C585 C 0.92696 0.51949 0.85174 0.0
C586 C 0.96458 0.51978 0.85456 0.0
C587 C 0.88724 0.55092 0.85466 0.0
C588 C 0.84415 0.51857 0.86161 0.0
C589 C 0.88995 0.58274 0.84627 0.0
C590 C 0.93196 0.61693 0.83654 0.0
C591 C 0.95301 0.61288 0.81962 0.0
C592 C 0.9927 0.64519 0.81054 0.0
C593 C 1.01148 0.68177 0.81813 0.0
C594 C 0.99055 0.6861 0.83478 0.0
C595 C 0.95088 0.65387 0.84394 0.0
H596 H 1.04221 0.70675 0.81108 0.0
H597 H 0.65036 0.39085 0.89187 0.0
H598 H 0.1449 0.63547 0.17728 0.0
H599 H 0.21263 0.70217 0.17895 0.0
H600 H 0.29128 0.6681 0.15944 0.0
H601 H 0.22364 0.6012 0.15764 0.0
H602 H 0.33079 0.72064 0.19315 0.0
H603 H 0.26799 0.70905 0.12293 0.0
H604 H 0.2084 0.69202 0.09719 0.0
H605 H 0.19699 0.77196 0.12709 0.0
H606 H 0.25603 0.78901 0.15327 0.0
H607 H 0.52799 0.9109 0.17188 0.0
H608 H 0.46313 0.84396 0.1646 0.0
H609 H 0.3749 0.86911 0.18227 0.0
H610 H 0.43977 0.93572 0.18956 0.0
H611 H 0.34195 0.82047 0.14764 0.0
H612 H 0.40075 0.82981 0.21874 0.0
H613 H 0.45938 0.84715 0.24521 0.0
H614 H 0.47709 0.77156 0.21457 0.0
H615 H 0.41907 0.75429 0.18764 0.0
C616 C 0.17656 0.642 0.17345 0.0
C617 C 0.17857 0.61279 0.16719 0.0
C618 C 0.21532 0.68028 0.17433 0.0
C619 C 0.2571 0.69034 0.16908 0.0
C620 C 0.25947 0.66113 0.16349 0.0
C621 C 0.22065 0.62285 0.16241 0.0
C622 C 0.29806 0.73139 0.16902 0.0
C623 C 0.33351 0.74234 0.18293 0.0
C624 C 0.3014 0.75998 0.15603 0.0
C625 C 0.26616 0.75005 0.14019 0.0
C626 C 0.25253 0.72278 0.12413 0.0
C627 C 0.21889 0.71315 0.10945 0.0
C628 C 0.19885 0.73083 0.11054 0.0
C629 C 0.2125 0.75825 0.12629 0.0
C630 C 0.24608 0.76793 0.14104 0.0
C631 C 0.49465 0.90219 0.17355 0.0
C632 C 0.48859 0.92826 0.18107 0.0
C633 C 0.45766 0.86397 0.16961 0.0
C634 C 0.414 0.85129 0.17311 0.0
C635 C 0.40809 0.87809 0.17941 0.0
C636 C 0.44503 0.9161 0.18351 0.0
C637 C 0.37466 0.80974 0.17179 0.0
C638 C 0.33942 0.79871 0.1577 0.0
C639 C 0.37139 0.78111 0.18471 0.0
C640 C 0.40593 0.7911 0.20102 0.0
C641 C 0.4174 0.81712 0.21753 0.0
C642 C 0.45049 0.82691 0.23263 0.0
C643 C 0.47203 0.81054 0.23153 0.0
C644 C 0.46043 0.78427 0.21537 0.0
C645 C 0.42744 0.77447 0.20018 0.0
H646 H 0.49763 0.81814 0.24324 0.0
H647 H 0.17282 0.72335 0.09915 0.0
H648 H 0.66054 0.29618 0.45682 0.0
H649 H 0.66566 0.3513 0.46843 0.0
H650 H 0.56407 0.27941 0.51682 0.0
H651 H 0.55864 0.22428 0.50524 0.0
H652 H 0.55108 0.32681 0.49376 0.0
H653 H 0.6698 0.33738 0.53189 0.0
H654 H 0.73734 0.34175 0.53439 0.0
H655 H 0.80927 0.44497 0.49483 0.0
H656 H 0.74191 0.44089 0.49184 0.0
H657 H 0.57421 0.45973 0.56524 0.0
H658 H 0.56965 0.40826 0.54805 0.0
H659 H 0.68486 0.49256 0.50876 0.0
H660 H 0.69047 0.54416 0.52685 0.0
H661 H 0.69264 0.44125 0.52386 0.0
H662 H 0.57699 0.43426 0.48736 0.0
H663 H 0.50992 0.43043 0.48386 0.0
H664 H 0.43268 0.32181 0.51835 0.0
H665 H 0.49944 0.32523 0.52234 0.0
C666 C 0.63907 0.29211 0.46981 0.0
C667 C 0.60934 0.25595 0.48019 0.0
C668 C 0.64219 0.32363 0.4765 0.0
C669 C 0.61545 0.31951 0.49359 0.0
C670 C 0.58506 0.28325 0.50363 0.0
C671 C 0.58223 0.25186 0.4971 0.0
C672 C 0.61953 0.353 0.50135 0.0
C673 C 0.58189 0.35173 0.50051 0.0
C674 C 0.66012 0.38598 0.50954 0.0
C675 C 0.70069 0.38859 0.51144 0.0
C676 C 0.69991 0.36083 0.52357 0.0
C677 C 0.73818 0.36329 0.52511 0.0
C678 C 0.77753 0.39356 0.51472 0.0
C679 C 0.77874 0.4215 0.50283 0.0
C680 C 0.74054 0.41915 0.50123 0.0
C681 C 0.59853 0.46711 0.55297 0.0
C682 C 0.63271 0.50575 0.54735 0.0
C683 C 0.5957 0.43775 0.54298 0.0
C684 C 0.62653 0.44639 0.52683 0.0
C685 C 0.66058 0.4851 0.52109 0.0
C686 C 0.6636 0.51453 0.53126 0.0
C687 C 0.62393 0.415 0.51656 0.0
C688 C 0.66186 0.4166 0.51692 0.0
C689 C 0.58366 0.38244 0.50774 0.0
C690 C 0.54334 0.38017 0.5053 0.0
C691 C 0.54578 0.40968 0.49434 0.0
C692 C 0.5078 0.40757 0.49225 0.0
C693 C 0.46709 0.37593 0.50091 0.0
C694 C 0.46425 0.34631 0.51166 0.0
C695 C 0.50214 0.3483 0.51382 0.0
H696 H 0.43772 0.37435 0.49928 0.0
H697 H 0.80712 0.39541 0.51592 0.0
H698 H 0.40219 0.48857 0.85008 0.0
H699 H 0.33807 0.48875 0.85266 0.0
H700 H 0.42732 0.61052 0.86284 0.0
H701 H 0.49167 0.61066 0.85956 0.0
H702 H 0.35194 0.57292 0.89164 0.0
H703 H 0.37272 0.57461 0.81446 0.0
H704 H 0.37978 0.55052 0.7805 0.0
H705 H 0.24966 0.44271 0.7907 0.0
H706 H 0.24208 0.46599 0.82491 0.0
H707 H 0.18916 0.60471 0.88536 0.0
H708 H 0.2533 0.60549 0.88092 0.0
H709 H 0.16898 0.49614 0.84966 0.0
H710 H 0.10508 0.49672 0.85312 0.0
H711 H 0.24194 0.526 0.832 0.0
H712 H 0.21802 0.51861 0.90794 0.0
H713 H 0.20698 0.537 0.94313 0.0
H714 H 0.33735 0.6463 0.93814 0.0
H715 H 0.34882 0.62887 0.9027 0.0
C716 C 0.40862 0.51562 0.8528 0.0
C717 C 0.45341 0.54961 0.85451 0.0
C718 C 0.3713 0.51571 0.85426 0.0
C719 C 0.37633 0.54966 0.85799 0.0
C720 C 0.42106 0.58356 0.86003 0.0
C721 C 0.45846 0.58364 0.85805 0.0
C722 C 0.33561 0.54983 0.85957 0.0
C723 C 0.32843 0.56311 0.87837 0.0
C724 C 0.30264 0.53584 0.84295 0.0
C725 C 0.30702 0.52191 0.82235 0.0
C726 C 0.34575 0.54566 0.80955 0.0
C727 C 0.34982 0.53217 0.79024 0.0
C728 C 0.31524 0.49507 0.78347 0.0
C729 C 0.27645 0.47142 0.79598 0.0
C730 C 0.27223 0.48476 0.81532 0.0
C731 C 0.18406 0.58079 0.87741 0.0
C732 C 0.14098 0.55073 0.86963 0.0
C733 C 0.22128 0.5809 0.87508 0.0
C734 C 0.21762 0.55023 0.8655 0.0
C735 C 0.17447 0.52046 0.85727 0.0
C736 C 0.13726 0.52074 0.85922 0.0
C737 C 0.25807 0.54939 0.86411 0.0
C738 C 0.26527 0.53589 0.84536 0.0
C739 C 0.29043 0.5622 0.88106 0.0
C740 C 0.2841 0.57257 0.90255 0.0
C741 C 0.24426 0.54664 0.9143 0.0
C742 C 0.2379 0.5569 0.93428 0.0
C743 C 0.27141 0.59283 0.94284 0.0
C744 C 0.31139 0.61851 0.93147 0.0
C745 C 0.31784 0.60846 0.91143 0.0
H746 H 0.26641 0.60073 0.95831 0.0
H747 H 0.31845 0.48468 0.76852 0.0
H748 H 0.97255 0.35228 0.14646 0.0
H749 H 0.90606 0.28517 0.15161 0.0
H750 H 0.83355 0.32277 0.17543 0.0
H751 H 0.8993 0.38961 0.16986 0.0
H752 H 0.82228 0.26642 0.20192 0.0
H753 H 0.8126 0.28652 0.12565 0.0
H754 H 0.83979 0.30485 0.08784 0.0
H755 H 0.85638 0.21754 0.08712 0.0
H756 H 0.82984 0.19902 0.12506 0.0
H757 H 0.60299 0.09018 0.20366 0.0
H758 H 0.66996 0.15625 0.19629 0.0
H759 H 0.73125 0.11308 0.16547 0.0
H760 H 0.66339 0.04689 0.17241 0.0
H761 H 0.75029 0.17199 0.14277 0.0
H762 H 0.75861 0.15052 0.21874 0.0
H763 H 0.732 0.13223 0.25664 0.0
H764 H 0.71933 0.22182 0.25843 0.0
H765 H 0.74538 0.24039 0.22044 0.0
C766 C 0.94237 0.34635 0.1526 0.0
C767 C 0.94167 0.37667 0.15795 0.0
C768 C 0.90428 0.30785 0.15556 0.0
C769 C 0.8646 0.29872 0.16398 0.0
C770 C 0.8637 0.3289 0.16907 0.0
C771 C 0.90153 0.36727 0.16591 0.0
C772 C 0.82421 0.25786 0.16784 0.0
C773 C 0.80626 0.24588 0.18893 0.0
C774 C 0.80381 0.23063 0.15107 0.0
C775 C 0.81971 0.24167 0.12827 0.0
C776 C 0.82242 0.27145 0.11749 0.0
C777 C 0.83763 0.28183 0.09603 0.0
C778 C 0.84993 0.26245 0.0851 0.0
C779 C 0.84691 0.23257 0.09561 0.0
C780 C 0.83176 0.2221 0.11709 0.0
C781 C 0.63088 0.09496 0.19534 0.0
C782 C 0.62817 0.06357 0.18863 0.0
C783 C 0.66928 0.13271 0.1912 0.0
C784 C 0.70638 0.14001 0.18064 0.0
C785 C 0.70334 0.10848 0.17366 0.0
C786 C 0.66462 0.07066 0.1776 0.0
C787 C 0.7481 0.18042 0.17689 0.0
C788 C 0.76636 0.19237 0.15583 0.0
C789 C 0.76899 0.2076 0.19374 0.0
C790 C 0.75363 0.19666 0.21666 0.0
C791 C 0.74988 0.16617 0.22716 0.0
C792 C 0.7349 0.15575 0.24867 0.0
C793 C 0.72385 0.17578 0.25991 0.0
C794 C 0.72786 0.20632 0.24969 0.0
C795 C 0.74279 0.21684 0.22818 0.0
H796 H 0.71231 0.16775 0.27657 0.0
H797 H 0.8617 0.27053 0.06848 0.0
H798 H 1.05412 0.469 0.09496 0.0
H799 H 0.07327 0.4776 0.0562 0.0
H800 H 0.12123 0.59485 0.05806 0.0
H801 H 0.10105 0.58597 0.09646 0.0
H802 H 0.06844 0.56236 0.02573 0.0
H803 H 0.19374 0.57153 0.05018 0.0
H804 H 0.23387 0.55241 0.07015 0.0
H805 H 0.16137 0.44705 0.03525 0.0
H806 H 0.1209 0.4657 0.01495 0.0
H807 H 0.1424 0.61432 0.91864 0.0
H808 H 0.15139 0.61191 0.95805 0.0
H809 H 0.08486 0.49041 0.95512 0.0
H810 H 0.07666 0.4933 0.91551 0.0
H811 H 0.15111 0.5264 0.98783 0.0
H812 H 1.01507 0.5144 0.97066 0.0
H813 H 0.97415 0.53479 0.95282 0.0
H814 H 0.07247 0.6497 0.97501 0.0
H815 H 0.11317 0.6296 0.99349 0.0
C816 C 0.06919 0.4967 0.0871 0.0
C817 C 0.07566 0.52669 0.09867 0.0
C818 C 0.08046 0.50171 0.06496 0.0
C819 C 0.09894 0.53698 0.05406 0.0
C820 C 0.10686 0.5673 0.06595 0.0
C821 C 0.09529 0.5622 0.08794 0.0
C822 C 0.10628 0.54148 0.02999 0.0
C823 C 0.0873 0.55511 0.01762 0.0
C824 C 0.12994 0.53129 0.01908 0.0
C825 C 0.15398 0.51982 0.03122 0.0
C826 C 0.18612 0.54415 0.04687 0.0
C827 C 0.209 0.53344 0.05822 0.0
C828 C 0.19995 0.49839 0.0541 0.0
C829 C 0.16825 0.47414 0.03847 0.0
C830 C 0.14546 0.48484 0.02698 0.0
C831 C 0.13173 0.58759 0.92634 0.0
C832 C 0.10934 0.5541 0.91412 0.0
C833 C 0.13614 0.58601 0.94888 0.0
C834 C 0.11776 0.55076 0.95968 0.0
C835 C 0.09913 0.51791 0.9472 0.0
C836 C 0.09487 0.51958 0.92457 0.0
C837 C 0.11359 0.54757 0.98387 0.0
C838 C 0.13275 0.53394 0.99615 0.0
C839 C 0.09057 0.55818 0.9949 0.0
C840 C 0.06729 0.57065 0.98318 0.0
C841 C 1.02794 0.54402 0.97164 0.0
C842 C 1.00463 0.55545 0.96159 0.0
C843 C 1.02084 0.59356 0.96267 0.0
C844 C 0.06005 0.62022 0.9741 0.0
C845 C 0.08306 0.60878 0.98449 0.0
H846 H 1.00294 0.6024 0.95471 0.0
H847 H 0.21762 0.49011 0.06295 0.0
H848 H 0.73653 0.08949 0.40584 0.0
H849 H 0.72255 0.08336 0.36663 0.0
H850 H 0.5958 0.05915 0.37739 0.0
H851 H 0.60903 0.06386 0.41662 0.0
H852 H 0.58476 0.01095 0.34999 0.0
H853 H 0.69266 0.14742 0.35692 0.0
H854 H 0.76382 0.20881 0.36656 0.0
H855 H 0.83382 0.18697 0.32413 0.0
H856 H 0.76287 0.12453 0.3148 0.0
H857 H 0.53283 0.02642 0.24284 0.0
H858 H 0.55721 0.04413 0.28063 0.0
H859 H 0.67442 0.05389 0.26699 0.0
H860 H 0.64981 0.03628 0.22909 0.0
H861 H 0.69213 0.10865 0.29514 0.0
H862 H 0.58609 0.97207 0.28941 0.0
H863 H 0.51507 0.91086 0.27864 0.0
H864 H 0.44259 0.93464 0.31744 0.0
H865 H 0.51322 0.99614 0.32836 0.0
C866 C 0.70584 0.08311 0.39979 0.0
C867 C 0.67382 0.07709 0.41425 0.0
C868 C 0.69793 0.07977 0.37736 0.0
C869 C 0.65826 0.07115 0.36892 0.0
C870 C 0.62661 0.06572 0.38342 0.0
C871 C 0.63425 0.06856 0.40584 0.0
C872 C 0.64881 0.06641 0.34512 0.0
C873 C 0.60805 0.03271 0.33809 0.0
C874 C 0.67969 0.09404 0.32935 0.0
C875 C 0.72248 0.13108 0.33538 0.0
C876 C 0.72327 0.15543 0.34987 0.0
C877 C 0.76366 0.19053 0.35523 0.0
C878 C 0.80348 0.20196 0.3459 0.0
C879 C 0.80297 0.17809 0.33134 0.0
C880 C 0.76268 0.14278 0.32607 0.0
C881 C 0.56427 0.03327 0.24791 0.0
C882 C 0.58939 0.02979 0.23334 0.0
C883 C 0.57802 0.04308 0.26944 0.0
C884 C 0.61704 0.04935 0.27674 0.0
C885 C 0.64401 0.04884 0.26173 0.0
C886 C 0.63019 0.03904 0.24013 0.0
C887 C 0.62795 0.05392 0.30027 0.0
C888 C 0.66893 0.08721 0.30716 0.0
C889 C 0.59742 0.02595 0.31592 0.0
C890 C 0.55491 0.98885 0.30955 0.0
C891 C 0.55499 0.96434 0.29556 0.0
C892 C 0.51482 0.92955 0.28946 0.0
C893 C 0.47434 0.91893 0.29729 0.0
C894 C 0.47397 0.94295 0.31135 0.0
C895 C 0.51406 0.97772 0.31755 0.0
H896 H 0.44328 0.89205 0.29249 0.0
H897 H 0.83474 0.22935 0.34983 0.0
H898 H 0.50134 0.52692 0.7774 0.0
H899 H 0.51781 0.54234 0.73867 0.0
H900 H 0.65811 0.60493 0.75177 0.0
H901 H 0.64178 0.59042 0.79079 0.0
H902 H 0.64542 0.63965 0.71893 0.0
H903 H 0.59545 0.51257 0.7362 0.0
H904 H 0.5451 0.44684 0.75186 0.0
H905 H 0.43897 0.42239 0.71056 0.0
H906 H 0.48855 0.48821 0.69487 0.0
H907 H 0.70371 0.60935 0.61507 0.0
H908 H 0.69216 0.61569 0.65339 0.0
H909 H 0.55371 0.56115 0.63981 0.0
H910 H 0.56571 0.55506 0.60153 0.0
H911 H 0.56606 0.52476 0.67271 0.0
H912 H 0.62017 0.65226 0.6536 0.0
H913 H 0.67307 0.71744 0.63756 0.0
H914 H 0.77485 0.7405 0.68175 0.0
H915 H 0.72268 0.67521 0.69783 0.0
C916 C 0.53577 0.54444 0.77206 0.0
C917 C 0.57023 0.55701 0.78702 0.0
C918 C 0.54515 0.55318 0.74993 0.0
C919 C 0.5891 0.57406 0.74224 0.0
C920 C 0.62393 0.58862 0.75731 0.0
C921 C 0.61457 0.58022 0.77957 0.0
C922 C 0.59792 0.57786 0.71848 0.0
C923 C 0.62842 0.61455 0.70884 0.0
C924 C 0.57541 0.54513 0.70523 0.0
C925 C 0.54558 0.50543 0.71452 0.0
C926 C 0.56128 0.49326 0.73057 0.0
C927 C 0.5329 0.45598 0.73944 0.0
C928 C 0.48883 0.43049 0.73225 0.0
C929 C 0.47309 0.44219 0.71613 0.0
C930 C 0.50132 0.47947 0.70724 0.0
C931 C 0.67128 0.59981 0.62031 0.0
C932 C 0.63549 0.58173 0.60568 0.0
C933 C 0.66464 0.60339 0.64209 0.0
C934 C 0.62203 0.58881 0.64946 0.0
C935 C 0.58682 0.57255 0.63447 0.0
C936 C 0.59361 0.56924 0.61269 0.0
C937 C 0.61307 0.58652 0.67307 0.0
C938 C 0.58278 0.54995 0.68273 0.0
C939 C 0.6362 0.6193 0.68626 0.0
C940 C 0.66761 0.6587 0.67677 0.0
C941 C 0.65394 0.67112 0.65976 0.0
C942 C 0.68377 0.7081 0.65068 0.0
C943 C 0.72734 0.73306 0.65859 0.0
C944 C 0.7411 0.72112 0.67563 0.0
C945 C 0.71139 0.68413 0.68475 0.0
H946 H 0.7504 0.76169 0.65154 0.0
H947 H 0.4669 0.40163 0.73913 0.0
H948 H 0.71182 0.11431 0.53808 0.0
H949 H 0.71491 0.10911 0.57782 0.0
H950 H 0.571 0.03364 0.5806 0.0
H951 H 0.56798 0.03982 0.54127 0.0
H952 H 0.60127 0.08502 0.60937 0.0
H953 H 0.63424 1.00203 0.58922 0.0
H954 H 0.67431 0.98376 0.56976 0.0
H955 H 0.79565 0.07121 0.60249 0.0
H956 H 0.7565 0.09055 0.62185 0.0
H957 H 0.57437 0.02734 0.71958 0.0
H958 H 0.57693 0.01967 0.68031 0.0
H959 H 0.71559 0.11955 0.67879 0.0
H960 H 0.71255 0.12738 0.71799 0.0
H961 H 0.6888 0.05377 0.65002 0.0
H962 H 0.65328 0.13978 0.66625 0.0
H963 H 0.61043 0.15647 0.68453 0.0
H964 H 0.48856 0.05637 0.65875 0.0
H965 H 0.53077 0.03922 0.64024 0.0
C966 C 0.68096 0.09645 0.54724 0.0
C967 C 0.63969 0.07772 0.53667 0.0
C968 C 0.68269 0.0933 0.56992 0.0
C969 C 0.64313 0.07083 0.58229 0.0
C970 C 0.60199 0.05134 0.57153 0.0
C971 C 0.6003 0.05485 0.54901 0.0
C972 C 0.64415 0.06912 0.6065 0.0
C973 C 0.61995 0.07759 0.61814 0.0
C974 C 0.66898 0.06 0.61813 0.0
C975 C 0.69251 0.048 0.60684 0.0
C976 C 0.66954 0.01756 0.59217 0.0
C977 C 0.69208 1.007 0.58116 0.0
C978 C 0.73752 0.02637 0.58485 0.0
C979 C 0.76047 0.05627 0.59963 0.0
C980 C 0.73811 0.06704 0.61063 0.0
C981 C 0.60562 0.04674 0.71089 0.0
C982 C 0.6433 0.07781 0.72157 0.0
C983 C 0.60709 0.04251 0.68854 0.0
C984 C 0.64645 0.06913 0.67666 0.0
C985 C 0.68503 0.09858 0.68768 0.0
C986 C 0.68334 0.10306 0.70997 0.0
C987 C 0.64568 0.06934 0.65253 0.0
C988 C 0.67 0.06086 0.64104 0.0
C989 C 0.62044 0.07784 0.64089 0.0
C990 C 0.59508 0.08804 0.65206 0.0
C991 C 0.61732 0.12122 0.66461 0.0
C992 C 0.59318 0.13082 0.67495 0.0
C993 C 0.5468 0.10738 0.67291 0.0
C994 C 0.52448 0.07445 0.66037 0.0
C995 C 0.5485 0.06485 0.64989 0.0
H996 H 0.52817 0.11481 0.68098 0.0
H997 H 0.75492 0.01817 0.5763 0.0
H998 H 0.64667 0.56249 0.91596 0.0
H999 H 0.62931 0.52575 0.95015 0.0
H1000 H 0.48987 0.47258 0.94185 0.0
H1001 H 0.50681 0.5083 0.90738 0.0
H1002 H 0.53293 0.51155 0.98347 0.0
H1003 H 0.50934 0.4179 0.93562 0.0
H1004 H 0.52799 0.39343 0.90622 0.0
H1005 H 0.63887 0.41792 0.94326 0.0
H1006 H 0.62157 0.44351 0.9727 0.0
H1007 H 0.44762 0.38335 0.07289 0.0
H1008 H 0.45761 0.3974 0.0336 0.0
H1009 H 0.59959 0.46136 0.04098 0.0
H1010 H 0.58961 0.44832 0.08032 0.0
H1011 H 0.55155 0.4116 -0.00129 0.0
H1012 H 0.58766 0.52189 0.0395 0.0
H1013 H 0.574 0.55146 0.06799 0.0
H1014 H 0.44088 0.49482 0.04407 0.0
H1015 H 0.45431 0.46549 0.01512 0.0
C1016 C 0.61234 0.54281 0.92143 0.0
C1017 C 0.57807 0.53832 0.90923 0.0
C1018 C 0.60246 0.52172 0.9408 0.0
C1019 C 0.55832 0.49641 0.94835 0.0
C1020 C 0.52407 0.49187 0.93615 0.0
C1021 C 0.5338 0.5123 0.91657 0.0
C1022 C 0.5484 0.47686 0.96977 0.0
C1023 C 0.53626 0.48923 0.98666 0.0
C1024 C 0.55379 0.44839 0.97396 0.0
C1025 C 0.56449 0.43314 0.95628 0.0
C1026 C 0.53811 0.41862 0.93739 0.0
C1027 C 0.54839 0.40449 0.92071 0.0
C1028 C 0.58475 0.40433 0.9228 0.0
C1029 C 0.61083 0.41823 0.94161 0.0
C1030 C 0.6008 0.43257 0.95831 0.0
C1031 C 0.48067 0.39919 0.0659 0.0
C1032 C 0.51782 0.41453 0.07944 0.0
C1033 C 0.48637 0.40719 0.04357 0.0
C1034 C 0.52932 0.43029 0.03448 0.0
C1035 C 0.56617 0.44302 0.04771 0.0
C1036 C 0.56046 0.43537 0.07012 0.0
C1037 C 0.53616 0.44645 0.01223 0.0
C1038 C 0.54783 0.43361 0.9953 0.0
C1039 C 0.5306 0.47467 0.00784 0.0
C1040 C 0.52183 0.49135 0.02536 0.0
C1041 C 0.55543 0.51565 0.04042 0.0
C1042 C 0.5478 0.53251 0.05657 0.0
C1043 C 0.50648 0.52492 0.05793 0.0
C1044 C 0.47284 0.50064 0.04302 0.0
C1045 C 0.48051 0.48406 0.02667 0.0
H1046 H 0.50054 0.53785 0.07052 0.0
H1047 H 0.59255 0.39328 0.90989 0.0
H1048 H 1.05414 0.52064 0.21621 0.0
H1049 H 1.05005 0.52627 0.25536 0.0
H1050 H 0.09287 0.45735 0.26763 0.0
H1051 H 0.09565 0.45079 0.22838 0.0
H1052 H 1.02783 0.4408 0.29738 0.0
H1053 H 0.16771 0.55174 0.26757 0.0
H1054 H 0.21361 0.6063 0.24169 0.0
H1055 H 0.15323 0.65553 0.26385 0.0
H1056 H 0.10643 0.6009 0.28964 0.0
H1057 H 0.13103 0.50998 0.40191 0.0
H1058 H 0.10705 0.48679 0.36467 0.0
H1059 H 0.07665 0.565 0.35402 0.0
H1060 H 0.10129 0.58831 0.39111 0.0
H1061 H 0.12997 0.57454 0.32341 0.0
H1062 H 0.99483 0.46669 0.35604 0.0
H1063 H 0.94844 0.41193 0.38173 0.0
H1064 H 0.99816 0.35663 0.3549 0.0
H1065 H 1.0455 0.41138 0.3293 0.0
C1066 C 0.06138 0.50581 0.22723 0.0
C1067 C 0.07477 0.48504 0.21926 0.0
C1068 C 0.05942 0.50927 0.24961 0.0
C1069 C 0.07138 0.49237 0.26444 0.0
C1070 C 0.08329 0.47046 0.25651 0.0
C1071 C 0.0852 0.467 0.2341 0.0
C1072 C 0.07548 0.50054 0.288 0.0
C1073 C 1.05034 0.46997 0.30316 0.0
C1074 C 0.10428 0.53867 0.29546 0.0
C1075 C 0.13326 0.57205 0.28038 0.0
C1076 C 0.16406 0.5741 0.26684 0.0
C1077 C 0.19023 0.60503 0.25219 0.0
C1078 C 0.18625 0.63431 0.25108 0.0
C1079 C 0.15623 0.6328 0.2647 0.0
C1080 C 0.12989 0.60187 0.27935 0.0
C1081 C 0.11802 0.52126 0.3917 0.0
C1082 C 0.11802 0.55088 0.3991 0.0
C1083 C 0.10434 0.5081 0.37048 0.0
C1084 C 0.09006 0.52419 0.35648 0.0
C1085 C 0.08771 0.55228 0.36444 0.0
C1086 C 0.10157 0.56549 0.38557 0.0
C1087 C 0.08212 0.51483 0.33301 0.0
C1088 C 0.10692 0.5453 0.31777 0.0
C1089 C 1.05294 0.47662 0.3256 0.0
C1090 C 1.02409 0.44338 0.34085 0.0
C1091 C 0.99618 0.44301 0.35572 0.0
C1092 C 0.96966 0.41194 0.37026 0.0
C1093 C 0.97045 0.38087 0.36999 0.0
C1094 C 0.99763 0.38075 0.35511 0.0
C1095 C 1.0243 0.41179 0.34057 0.0
H1096 H 0.94997 0.35688 0.38127 0.0
H1097 H 0.20647 0.65819 0.23969 0.0
loop_
_geom_bond_atom_site_label_1
_geom_bond_atom_site_label_2
_geom_bond_distance
_geom_bond_site_symmetry_2
_ccdc_geom_bond_type
Gd0 C3 2.818 . S
Gd0 O20 2.377 . S
Gd0 O22 2.448 . S
Gd0 O23 2.506 . S
Gd0 O24 2.435 . S
Gd0 O25 2.717 1_455 S
Gd0 O27 2.395 1_455 S
Gd0 O31 2.327 . S
Gd1 C12 2.818 . S
Gd1 O21 2.395 1_655 S
Gd1 O25 2.327 . S
Gd1 O26 2.377 . S
Gd1 O28 2.448 . S
Gd1 O29 2.506 . S
Gd1 O30 2.435 . S
Gd1 O31 2.717 1_655 S
C2 O20 1.240 . S
C2 O21 1.240 . S
C3 Gd0 2.818 . S
C3 C4 1.510 . S
C3 O22 1.249 . S
C3 O23 1.252 . S
C4 C3 1.510 . S
C4 C5 1.404 . S
C4 C6 1.352 . S
C5 C4 1.404 . S
C5 C9 1.389 . S
C5 H32 0.930 . S
C6 C4 1.352 . S
C6 C8 1.374 . S
C6 H33 0.931 . S
C7 C8 1.359 . S
C7 C9 1.364 . S
C8 C6 1.374 . S
C8 C7 1.359 . S
C8 H34 0.931 . S
C9 C5 1.389 . S
C9 C7 1.364 . S
C9 H35 0.931 . S
C10 O24 1.291 . S
C10 O25 1.240 1_455 S
C11 O26 1.240 . S
C11 O27 1.240 . S
C12 Gd1 2.818 . S
C12 C13 1.510 . S
C12 O28 1.249 . S
C12 O29 1.252 . S
C13 C12 1.510 . S
C13 C14 1.404 . S
C13 C15 1.352 . S
C14 C13 1.404 . S
C14 C18 1.389 . S
C14 H36 0.930 . S
C15 C13 1.352 . S
C15 C17 1.374 . S
C15 H37 0.931 . S
C16 C17 1.359 . S
C16 C18 1.364 . S
C17 C15 1.374 . S
C17 C16 1.359 . S
C17 H38 0.931 . S
C18 C14 1.389 . S
C18 C16 1.364 . S
C18 H39 0.931 . S
C19 O30 1.256 1_455 S
C19 O31 1.257 . S
O20 Gd0 2.377 . S
O20 C2 1.240 . S
O21 Gd1 2.395 1_455 S
O21 C2 1.240 . S
O22 Gd0 2.448 . S
O22 C3 1.249 . S
O23 Gd0 2.506 . S
O23 C3 1.252 . S
O24 Gd0 2.435 . S
O24 C10 1.291 . S
O25 Gd0 2.717 1_655 S
O25 Gd1 2.327 . S
O25 C10 1.240 1_655 S
O26 Gd1 2.377 . S
O26 C11 1.240 . S
O27 Gd0 2.395 1_655 S
O27 C11 1.240 . S
O28 Gd1 2.448 . S
O28 C12 1.249 . S
O29 Gd1 2.506 . S
O29 C12 1.252 . S
O30 Gd1 2.435 . S
O30 C19 1.256 1_655 S
O31 Gd0 2.327 . S
O31 Gd1 2.717 1_455 S
O31 C19 1.257 . S
H32 C5 0.930 . S
H33 C6 0.931 . S
H34 C8 0.931 . S
H35 C9 0.931 . S
H36 C14 0.930 . S
H37 C15 0.931 . S
H38 C17 0.931 . S
H39 C18 0.931 . S
Gd40 C43 2.818 1_545 S
Gd40 O60 2.377 1_545 S
Gd40 O62 2.448 1_545 S
Gd40 O63 2.506 1_545 S
Gd40 O64 2.435 . S
Gd40 O65 2.717 . S
Gd40 O67 2.395 . S
Gd40 O71 2.327 . S
Gd41 C52 2.818 . S
Gd41 O61 2.395 1_545 S
Gd41 O65 2.327 . S
Gd41 O66 2.377 . S
Gd41 O68 2.448 . S
Gd41 O69 2.506 . S
Gd41 O70 2.435 . S
Gd41 O71 2.717 . S
C42 O60 1.240 . S
C42 O61 1.240 . S
C43 Gd40 2.818 1_565 S
C43 C44 1.510 . S
C43 O62 1.249 . S
C43 O63 1.252 . S
C44 C43 1.510 . S
C44 C45 1.404 . S
C44 C46 1.352 . S
C45 C44 1.404 . S
C45 C49 1.389 . S
C45 H72 0.930 . S
C46 C44 1.352 . S
C46 C48 1.374 . S
C46 H73 0.931 . S
C47 C48 1.359 . S
C47 C49 1.364 . S
C48 C46 1.374 . S
C48 C47 1.359 . S
C48 H74 0.931 . S
C49 C45 1.389 . S
C49 C47 1.364 . S
C49 H75 0.931 . S
C50 O64 1.256 . S
C50 O65 1.257 . S
C51 O66 1.240 . S
C51 O67 1.240 . S
C52 Gd41 2.818 . S
C52 C53 1.510 . S
C52 O68 1.249 . S
C52 O69 1.252 . S
C53 C52 1.510 . S
C53 C54 1.404 . S
C53 C55 1.352 . S
C54 C53 1.404 . S
C54 C58 1.389 . S
C54 H76 0.930 . S
C55 C53 1.352 . S
C55 C57 1.374 . S
C55 H77 0.931 . S
C56 C57 1.359 . S
C56 C58 1.364 . S
C57 C55 1.374 . S
C57 C56 1.359 . S
C57 H78 0.931 . S
C58 C54 1.389 . S
C58 C56 1.364 . S
C58 H79 0.931 . S
C59 O70 1.256 . S
C59 O71 1.257 . S
O60 Gd40 2.377 1_565 S
O60 C42 1.240 . S
O61 Gd41 2.395 1_565 S
O61 C42 1.240 . S
O62 Gd40 2.448 1_565 S
O62 C43 1.249 . S
O63 Gd40 2.506 1_565 S
O63 C43 1.252 . S
O64 Gd40 2.435 . S
O64 C50 1.256 . S
O65 Gd40 2.717 . S
O65 Gd41 2.327 . S
O65 C50 1.257 . S
O66 Gd41 2.377 . S
O66 C51 1.240 . S
O67 Gd40 2.395 . S
O67 C51 1.240 . S
O68 Gd41 2.448 . S
O68 C52 1.249 . S
O69 Gd41 2.506 . S
O69 C52 1.252 . S
O70 Gd41 2.435 . S
O70 C59 1.256 . S
O71 Gd40 2.327 . S
O71 Gd41 2.717 . S
O71 C59 1.257 . S
H72 C45 0.930 . S
H73 C46 0.931 . S
H74 C48 0.931 . S
H75 C49 0.931 . S
H76 C54 0.930 . S
H77 C55 0.931 . S
H78 C57 0.931 . S
H79 C58 0.931 . S
Gd80 C83 2.818 . S
Gd80 O100 2.377 . S
Gd80 O102 2.448 . S
Gd80 O103 2.506 . S
Gd80 O104 2.435 . S
Gd80 O105 2.717 . S
Gd80 O107 2.395 . S
Gd80 O111 2.327 . S
Gd81 C92 2.818 . S
Gd81 O101 2.395 . S
Gd81 O105 2.327 . S
Gd81 O106 2.377 . S
Gd81 O108 2.448 . S
Gd81 O109 2.506 . S
Gd81 O110 2.435 . S
Gd81 O111 2.717 . S
C82 O100 1.240 . S
C82 O101 1.240 . S
C83 Gd80 2.818 . S
C83 C84 1.510 . S
C83 O102 1.249 . S
C83 O103 1.252 . S
C84 C83 1.510 . S
C84 C85 1.404 . S
C84 C86 1.352 . S
C85 C84 1.404 . S
C85 C89 1.389 . S
C85 H112 0.930 . S
C86 C84 1.352 . S
C86 C88 1.374 . S
C86 H113 0.931 . S
C87 C88 1.359 . S
C87 C89 1.364 . S
C88 C86 1.374 . S
C88 C87 1.359 . S
C88 H114 0.931 . S
C89 C85 1.389 . S
C89 C87 1.364 . S
C89 H115 0.931 . S
C90 O104 1.256 . S
C90 O105 1.257 . S
C91 O106 1.240 . S
C91 O107 1.240 . S
C92 Gd81 2.818 . S
C92 C93 1.510 . S
C92 O108 1.249 . S
C92 O109 1.252 . S
C93 C92 1.510 . S
C93 C94 1.404 . S
C93 C95 1.352 . S
C94 C93 1.404 . S
C94 C98 1.389 . S
C94 H116 0.930 . S
C95 C93 1.352 . S
C95 C97 1.374 . S
C95 H117 0.931 . S
C96 C97 1.359 . S
C96 C98 1.364 . S
C97 C95 1.374 . S
C97 C96 1.359 . S
C97 H118 0.931 . S
C98 C94 1.389 . S
C98 C96 1.364 . S
C98 H119 0.931 . S
C99 O110 1.256 . S
C99 O111 1.257 . S
O100 Gd80 2.377 . S
O100 C82 1.240 . S
O101 Gd81 2.395 . S
O101 C82 1.240 . S
O102 Gd80 2.448 . S
O102 C83 1.249 . S
O103 Gd80 2.506 . S
O103 C83 1.252 . S
O104 Gd80 2.435 . S
O104 C90 1.256 . S
O105 Gd80 2.717 . S
O105 Gd81 2.327 . S
O105 C90 1.257 . S
O106 Gd81 2.377 . S
O106 C91 1.240 . S
O107 Gd80 2.395 . S
O107 C91 1.240 . S
O108 Gd81 2.448 . S
O108 C92 1.249 . S
O109 Gd81 2.506 . S
O109 C92 1.252 . S
O110 Gd81 2.435 . S
O110 C99 1.256 . S
O111 Gd80 2.327 . S
O111 Gd81 2.717 . S
O111 C99 1.257 . S
H112 C85 0.930 . S
H113 C86 0.931 . S
H114 C88 0.931 . S
H115 C89 0.931 . S
H116 C94 0.930 . S
H117 C95 0.931 . S
H118 C97 0.931 . S
H119 C98 0.931 . S
C120 N121 1.317 1_565 S
C120 N122 1.348 . S
C120 C123 1.485 1_565 S
N121 C120 1.317 1_545 S
N121 N125 1.370 . S
N122 C120 1.348 . S
N122 C124 1.346 . S
C123 C120 1.485 1_545 S
C123 H127 0.960 . S
C123 H128 0.961 1_545 S
C123 H129 0.960 . S
C124 N122 1.346 . S
C124 N125 1.307 1_565 S
C124 C126 1.486 . S
N125 N121 1.370 . S
N125 C124 1.307 1_545 S
C126 C124 1.486 . S
C126 H130 0.960 . S
C126 H131 0.960 . S
C126 H132 0.959 . S
H127 C123 0.960 . S
H128 C123 0.961 1_565 S
H129 C123 0.960 . S
H130 C126 0.960 . S
H131 C126 0.960 . S
H132 C126 0.959 . S
C133 N134 1.317 . S
C133 N135 1.348 . S
C133 C136 1.485 . S
N134 C133 1.317 . S
N134 N138 1.370 . S
N135 C133 1.348 . S
N135 C137 1.346 . S
C136 C133 1.485 . S
C136 H140 0.960 . S
C136 H141 0.961 . S
C136 H142 0.960 . S
C137 N135 1.346 . S
C137 N138 1.307 . S
C137 C139 1.486 . S
N138 N134 1.370 . S
N138 C137 1.307 . S
C139 C137 1.486 . S
C139 H143 0.960 . S
C139 H144 0.960 . S
C139 H145 0.959 . S
H140 C136 0.960 . S
H141 C136 0.961 . S
H142 C136 0.960 . S
H143 C139 0.960 . S
H144 C139 0.960 . S
H145 C139 0.959 . S
C146 N147 1.317 . S
C146 N148 1.348 . S
C146 C149 1.485 . S
N147 C146 1.317 . S
N147 N151 1.370 . S
N148 C146 1.348 . S
N148 C150 1.346 . S
C149 C146 1.485 . S
C149 H153 0.960 . S
C149 H154 0.961 . S
C149 H155 0.960 . S
C150 N148 1.346 . S
C150 N151 1.307 . S
C150 C152 1.486 . S
N151 N147 1.370 . S
N151 C150 1.307 . S
C152 C150 1.486 . S
C152 H156 0.960 1_455 S
C152 H157 0.960 . S
C152 H158 0.959 . S
H153 C149 0.960 . S
H154 C149 0.961 . S
H155 C149 0.960 . S
H156 C152 0.960 1_655 S
H157 C152 0.960 . S
H158 C152 0.959 . S
C159 N160 1.317 . S
C159 N161 1.348 . S
C159 C162 1.485 . S
N160 C159 1.317 . S
N160 N164 1.370 . S
N161 C159 1.348 . S
N161 C163 1.346 . S
C162 C159 1.485 . S
C162 H166 0.960 . S
C162 H167 0.961 . S
C162 H168 0.960 . S
C163 N161 1.346 . S
C163 N164 1.307 . S
C163 C165 1.486 . S
N164 N160 1.370 . S
N164 C163 1.307 . S
C165 C163 1.486 . S
C165 H169 0.960 . S
C165 H170 0.960 . S
C165 H171 0.959 . S
H166 C162 0.960 . S
H167 C162 0.961 . S
H168 C162 0.960 . S
H169 C165 0.960 . S
H170 C165 0.960 . S
H171 C165 0.959 . S
C172 N173 1.317 . S
C172 N174 1.348 . S
C172 C175 1.485 . S
N173 C172 1.317 . S
N173 N177 1.370 . S
N174 C172 1.348 . S
N174 C176 1.346 . S
C175 C172 1.485 . S
C175 H179 0.960 . S
C175 H180 0.961 . S
C175 H181 0.960 . S
C176 N174 1.346 . S
C176 N177 1.307 . S
C176 C178 1.486 . S
N177 N173 1.370 . S
N177 C176 1.307 . S
C178 C176 1.486 . S
C178 H182 0.960 . S
C178 H183 0.960 . S
C178 H184 0.959 . S
H179 C175 0.960 . S
H180 C175 0.961 . S
H181 C175 0.960 . S
H182 C178 0.960 . S
H183 C178 0.960 . S
H184 C178 0.959 . S
C185 N186 1.317 . S
C185 N187 1.348 . S
C185 C188 1.485 . S
N186 C185 1.317 . S
N186 N190 1.370 . S
N187 C185 1.348 . S
N187 C189 1.346 . S
C188 C185 1.485 . S
C188 H192 0.960 . S
C188 H193 0.961 . S
C188 H194 0.960 . S
C189 N187 1.346 . S
C189 N190 1.307 . S
C189 C191 1.486 . S
N190 N186 1.370 . S
N190 C189 1.307 . S
C191 C189 1.486 . S
C191 H195 0.960 . S
C191 H196 0.960 . S
C191 H197 0.959 . S
H192 C188 0.960 . S
H193 C188 0.961 . S
H194 C188 0.960 . S
H195 C191 0.960 . S
H196 C191 0.960 . S
H197 C191 0.959 . S
H198 C216 0.951 . S
H199 C218 0.951 . S
H200 C220 0.950 . S
H201 C221 0.950 . S
H202 C223 0.950 . S
H203 C226 0.950 . S
H204 C227 0.950 . S
H205 C229 0.950 . S
H206 C230 0.950 . S
H207 C231 0.951 . S
H208 C233 0.951 . S
H209 C235 0.950 . S
H210 C236 0.950 . S
H211 C238 0.950 . S
H212 C241 0.950 . S
H213 C242 0.950 . S
H214 C244 0.950 . S
H215 C245 0.950 . S
C216 H198 0.951 . S
C216 C217 1.366 . S
C216 C218 1.388 . S
C217 C216 1.366 . S
C217 C221 1.385 . S
C218 H199 0.951 . S
C218 C216 1.388 . S
C218 C219 1.366 . S
C219 C218 1.366 . S
C219 C220 1.414 . S
C219 C222 1.499 . S
C220 H200 0.950 . S
C220 C219 1.414 . S
C220 C221 1.374 . S
C221 H201 0.950 . S
C221 C217 1.385 . S
C221 C220 1.374 . S
C222 C219 1.499 . S
C222 C223 1.373 . S
C222 C224 1.389 . S
C223 H202 0.950 . S
C223 C222 1.373 . S
C223 C239 1.377 . S
C224 C222 1.389 . S
C224 C225 1.524 . S
C224 C238 1.377 . S
C225 C224 1.524 . S
C225 C226 1.397 . S
C225 C230 1.363 . S
C226 H203 0.950 . S
C226 C225 1.397 . S
C226 C227 1.334 . S
C227 H204 0.950 . S
C227 C226 1.334 . S
C227 C228 1.287 . S
C228 C227 1.287 . S
C228 C229 1.524 . S
C228 H247 0.913 . S
C229 H205 0.950 . S
C229 C228 1.524 . S
C229 C230 1.415 . S
C230 H206 0.950 . S
C230 C225 1.363 . S
C230 C229 1.415 . S
C231 H207 0.951 . S
C231 C232 1.366 . S
C231 C233 1.388 . S
C232 C231 1.366 . S
C232 C236 1.385 . S
C233 H208 0.951 . S
C233 C231 1.388 . S
C233 C234 1.366 . S
C234 C233 1.366 . S
C234 C235 1.414 . S
C234 C237 1.499 . S
C235 H209 0.950 . S
C235 C234 1.414 . S
C235 C236 1.374 . S
C236 H210 0.950 . S
C236 C232 1.385 . S
C236 C235 1.374 . S
C237 C234 1.499 . S
C237 C238 1.373 . S
C237 C239 1.389 . S
C238 H211 0.950 . S
C238 C224 1.377 . S
C238 C237 1.373 . S
C239 C223 1.377 . S
C239 C237 1.389 . S
C239 C240 1.524 . S
C240 C239 1.524 . S
C240 C241 1.397 . S
C240 C245 1.363 . S
C241 H212 0.950 . S
C241 C240 1.397 . S
C241 C242 1.334 . S
C242 H213 0.950 . S
C242 C241 1.334 . S
C242 C243 1.287 . S
C243 C242 1.287 . S
C243 C244 1.524 . S
C243 H246 0.999 . S
C244 H214 0.950 . S
C244 C243 1.524 . S
C244 C245 1.415 . S
C245 H215 0.950 . S
C245 C240 1.363 . S
C245 C244 1.415 . S
H246 C243 0.999 . S
H247 C228 0.913 . S
H248 C266 0.951 . S
H249 C268 0.951 . S
H250 C270 0.950 . S
H251 C271 0.950 . S
H252 C273 0.950 . S
H253 C276 0.950 . S
H254 C277 0.950 . S
H255 C279 0.950 . S
H256 C280 0.950 . S
H257 C281 0.951 1_455 S
H258 C283 0.951 . S
H259 C285 0.950 . S
H260 C286 0.950 . S
H261 C288 0.950 . S
H262 C291 0.950 . S
H263 C292 0.950 . S
H264 C294 0.950 . S
H265 C295 0.950 . S
C266 H248 0.951 . S
C266 C267 1.366 . S
C266 C268 1.388 . S
C267 C266 1.366 . S
C267 C271 1.385 . S
C268 H249 0.951 . S
C268 C266 1.388 . S
C268 C269 1.366 . S
C269 C268 1.366 . S
C269 C270 1.414 . S
C269 C272 1.499 . S
C270 H250 0.950 . S
C270 C269 1.414 . S
C270 C271 1.374 . S
C271 H251 0.950 . S
C271 C267 1.385 . S
C271 C270 1.374 . S
C272 C269 1.499 . S
C272 C273 1.373 . S
C272 C274 1.389 . S
C273 H252 0.950 . S
C273 C272 1.373 . S
C273 C289 1.377 . S
C274 C272 1.389 . S
C274 C275 1.524 . S
C274 C288 1.377 . S
C275 C274 1.524 . S
C275 C276 1.397 . S
C275 C280 1.363 . S
C276 H253 0.950 . S
C276 C275 1.397 . S
C276 C277 1.334 . S
C277 H254 0.950 . S
C277 C276 1.334 . S
C277 C278 1.287 . S
C278 C277 1.287 . S
C278 C279 1.524 . S
C278 H297 0.913 . S
C279 H255 0.950 . S
C279 C278 1.524 . S
C279 C280 1.415 . S
C280 H256 0.950 . S
C280 C275 1.363 . S
C280 C279 1.415 . S
C281 H257 0.951 1_655 S
C281 C282 1.366 . S
C281 C283 1.388 . S
C282 C281 1.366 . S
C282 C286 1.385 . S
C283 H258 0.951 . S
C283 C281 1.388 . S
C283 C284 1.366 . S
C284 C283 1.366 . S
C284 C285 1.414 . S
C284 C287 1.499 . S
C285 H259 0.950 . S
C285 C284 1.414 . S
C285 C286 1.374 . S
C286 H260 0.950 . S
C286 C282 1.385 . S
C286 C285 1.374 . S
C287 C284 1.499 . S
C287 C288 1.373 . S
C287 C289 1.389 . S
C288 H261 0.950 . S
C288 C274 1.377 . S
C288 C287 1.373 . S
C289 C273 1.377 . S
C289 C287 1.389 . S
C289 C290 1.524 . S
C290 C289 1.524 . S
C290 C291 1.397 . S
C290 C295 1.363 . S
C291 H262 0.950 . S
C291 C290 1.397 . S
C291 C292 1.334 . S
C292 H263 0.950 . S
C292 C291 1.334 . S
C292 C293 1.287 . S
C293 C292 1.287 . S
C293 C294 1.524 . S
C293 H296 0.999 . S
C294 H264 0.950 . S
C294 C293 1.524 . S
C294 C295 1.415 . S
C295 H265 0.950 . S
C295 C290 1.363 . S
C295 C294 1.415 . S
H296 C293 0.999 . S
H297 C278 0.913 . S
H298 C316 0.951 . S
H299 C318 0.951 . S
H300 C320 0.950 . S
H301 C321 0.950 . S
H302 C323 0.950 . S
H303 C326 0.950 . S
H304 C327 0.950 . S
H305 C329 0.950 . S
H306 C330 0.950 . S
H307 C331 0.951 . S
H308 C333 0.951 1_545 S
H309 C335 0.950 . S
H310 C336 0.950 . S
H311 C338 0.950 . S
H312 C341 0.950 . S
H313 C342 0.950 . S
H314 C344 0.950 . S
H315 C345 0.950 . S
C316 H298 0.951 . S
C316 C317 1.366 . S
C316 C318 1.388 . S
C317 C316 1.366 . S
C317 C321 1.385 . S
C318 H299 0.951 . S
C318 C316 1.388 . S
C318 C319 1.366 . S
C319 C318 1.366 . S
C319 C320 1.414 . S
C319 C322 1.499 . S
C320 H300 0.950 . S
C320 C319 1.414 . S
C320 C321 1.374 . S
C321 H301 0.950 . S
C321 C317 1.385 . S
C321 C320 1.374 . S
C322 C319 1.499 . S
C322 C323 1.373 . S
C322 C324 1.389 . S
C323 H302 0.950 . S
C323 C322 1.373 . S
C323 C339 1.377 . S
C324 C322 1.389 . S
C324 C325 1.524 . S
C324 C338 1.377 . S
C325 C324 1.524 . S
C325 C326 1.397 . S
C325 C330 1.363 . S
C326 H303 0.950 . S
C326 C325 1.397 . S
C326 C327 1.334 . S
C327 H304 0.950 . S
C327 C326 1.334 . S
C327 C328 1.287 . S
C328 C327 1.287 . S
C328 C329 1.524 . S
C328 H347 0.913 . S
C329 H305 0.950 . S
C329 C328 1.524 . S
C329 C330 1.415 . S
C330 H306 0.950 . S
C330 C325 1.363 . S
C330 C329 1.415 . S
C331 H307 0.951 . S
C331 C332 1.366 . S
C331 C333 1.388 1_545 S
C332 C331 1.366 . S
C332 C336 1.385 1_545 S
C333 H308 0.951 1_565 S
C333 C331 1.388 1_565 S
C333 C334 1.366 . S
C334 C333 1.366 . S
C334 C335 1.414 . S
C334 C337 1.499 . S
C335 H309 0.950 . S
C335 C334 1.414 . S
C335 C336 1.374 . S
C336 H310 0.950 . S
C336 C332 1.385 1_565 S
C336 C335 1.374 . S
C337 C334 1.499 . S
C337 C338 1.373 . S
C337 C339 1.389 . S
C338 H311 0.950 . S
C338 C324 1.377 . S
C338 C337 1.373 . S
C339 C323 1.377 . S
C339 C337 1.389 . S
C339 C340 1.524 . S
C340 C339 1.524 . S
C340 C341 1.397 . S
C340 C345 1.363 . S
C341 H312 0.950 . S
C341 C340 1.397 . S
C341 C342 1.334 1_565 S
C342 H313 0.950 . S
C342 C341 1.334 1_545 S
C342 C343 1.287 . S
C343 C342 1.287 . S
C343 C344 1.524 . S
C343 H346 0.999 . S
C344 H314 0.950 . S
C344 C343 1.524 . S
C344 C345 1.415 1_545 S
C345 H315 0.950 . S
C345 C340 1.363 . S
C345 C344 1.415 1_565 S
H346 C343 0.999 . S
H347 C328 0.913 . S
H348 C366 0.951 . S
H349 C368 0.951 . S
H350 C370 0.950 . S
H351 C371 0.950 . S
H352 C373 0.950 . S
H353 C376 0.950 . S
H354 C377 0.950 . S
H355 C379 0.950 . S
H356 C380 0.950 . S
H357 C381 0.951 . S
H358 C383 0.951 . S
H359 C385 0.950 . S
H360 C386 0.950 . S
H361 C388 0.950 . S
H362 C391 0.950 . S
H363 C392 0.950 . S
H364 C394 0.950 . S
H365 C395 0.950 . S
C366 H348 0.951 . S
C366 C367 1.366 . S
C366 C368 1.388 . S
C367 C366 1.366 . S
C367 C371 1.385 . S
C368 H349 0.951 . S
C368 C366 1.388 . S
C368 C369 1.366 . S
C369 C368 1.366 . S
C369 C370 1.414 . S
C369 C372 1.499 . S
C370 H350 0.950 . S
C370 C369 1.414 . S
C370 C371 1.374 . S
C371 H351 0.950 . S
C371 C367 1.385 . S
C371 C370 1.374 . S
C372 C369 1.499 . S
C372 C373 1.373 . S
C372 C374 1.389 . S
C373 H352 0.950 . S
C373 C372 1.373 . S
C373 C389 1.377 . S
C374 C372 1.389 . S
C374 C375 1.524 . S
C374 C388 1.377 . S
C375 C374 1.524 . S
C375 C376 1.397 . S
C375 C380 1.363 . S
C376 H353 0.950 . S
C376 C375 1.397 . S
C376 C377 1.334 . S
C377 H354 0.950 . S
C377 C376 1.334 . S
C377 C378 1.287 . S
C378 C377 1.287 . S
C378 C379 1.524 . S
C378 H397 0.913 . S
C379 H355 0.950 . S
C379 C378 1.524 . S
C379 C380 1.415 . S
C380 H356 0.950 . S
C380 C375 1.363 . S
C380 C379 1.415 . S
C381 H357 0.951 . S
C381 C382 1.366 . S
C381 C383 1.388 . S
C382 C381 1.366 . S
C382 C386 1.385 . S
C383 H358 0.951 . S
C383 C381 1.388 . S
C383 C384 1.366 . S
C384 C383 1.366 . S
C384 C385 1.414 . S
C384 C387 1.499 . S
C385 H359 0.950 . S
C385 C384 1.414 . S
C385 C386 1.374 . S
C386 H360 0.950 . S
C386 C382 1.385 . S
C386 C385 1.374 . S
C387 C384 1.499 . S
C387 C388 1.373 . S
C387 C389 1.389 . S
C388 H361 0.950 . S
C388 C374 1.377 . S
C388 C387 1.373 . S
C389 C373 1.377 . S
C389 C387 1.389 . S
C389 C390 1.524 . S
C390 C389 1.524 . S
C390 C391 1.397 . S
C390 C395 1.363 . S
C391 H362 0.950 . S
C391 C390 1.397 . S
C391 C392 1.334 . S
C392 H363 0.950 . S
C392 C391 1.334 . S
C392 C393 1.287 . S
C393 C392 1.287 . S
C393 C394 1.524 . S
C393 H396 0.999 . S
C394 H364 0.950 . S
C394 C393 1.524 . S
C394 C395 1.415 . S
C395 H365 0.950 . S
C395 C390 1.363 . S
C395 C394 1.415 . S
H396 C393 0.999 . S
H397 C378 0.913 . S
H398 C416 0.951 . S
H399 C418 0.951 . S
H400 C420 0.950 . S
H401 C421 0.950 . S
H402 C423 0.950 . S
H403 C426 0.950 . S
H404 C427 0.950 . S
H405 C429 0.950 . S
H406 C430 0.950 . S
H407 C431 0.951 . S
H408 C433 0.951 . S
H409 C435 0.950 . S
H410 C436 0.950 . S
H411 C438 0.950 . S
H412 C441 0.950 . S
H413 C442 0.950 . S
H414 C444 0.950 . S
H415 C445 0.950 . S
C416 H398 0.951 . S
C416 C417 1.366 . S
C416 C418 1.388 . S
C417 C416 1.366 . S
C417 C421 1.385 . S
C418 H399 0.951 . S
C418 C416 1.388 . S
C418 C419 1.366 . S
C419 C418 1.366 . S
C419 C420 1.414 . S
C419 C422 1.499 . S
C420 H400 0.950 . S
C420 C419 1.414 . S
C420 C421 1.374 . S
C421 H401 0.950 . S
C421 C417 1.385 . S
C421 C420 1.374 . S
C422 C419 1.499 . S
C422 C423 1.373 . S
C422 C424 1.389 . S
C423 H402 0.950 . S
C423 C422 1.373 . S
C423 C439 1.377 . S
C424 C422 1.389 . S
C424 C425 1.524 . S
C424 C438 1.377 . S
C425 C424 1.524 . S
C425 C426 1.397 . S
C425 C430 1.363 . S
C426 H403 0.950 . S
C426 C425 1.397 . S
C426 C427 1.334 . S
C427 H404 0.950 . S
C427 C426 1.334 . S
C427 C428 1.287 . S
C428 C427 1.287 . S
C428 C429 1.524 . S
C428 H447 0.913 . S
C429 H405 0.950 . S
C429 C428 1.524 . S
C429 C430 1.415 . S
C430 H406 0.950 . S
C430 C425 1.363 . S
C430 C429 1.415 . S
C431 H407 0.951 . S
C431 C432 1.366 . S
C431 C433 1.388 . S
C432 C431 1.366 . S
C432 C436 1.385 . S
C433 H408 0.951 . S
C433 C431 1.388 . S
C433 C434 1.366 . S
C434 C433 1.366 . S
C434 C435 1.414 . S
C434 C437 1.499 . S
C435 H409 0.950 . S
C435 C434 1.414 . S
C435 C436 1.374 . S
C436 H410 0.950 . S
C436 C432 1.385 . S
C436 C435 1.374 . S
C437 C434 1.499 . S
C437 C438 1.373 . S
C437 C439 1.389 . S
C438 H411 0.950 . S
C438 C424 1.377 . S
C438 C437 1.373 . S
C439 C423 1.377 . S
C439 C437 1.389 . S
C439 C440 1.524 . S
C440 C439 1.524 . S
C440 C441 1.397 . S
C440 C445 1.363 . S
C441 H412 0.950 . S
C441 C440 1.397 . S
C441 C442 1.334 . S
C442 H413 0.950 . S
C442 C441 1.334 . S
C442 C443 1.287 . S
C443 C442 1.287 . S
C443 C444 1.524 . S
C443 H446 0.999 . S
C444 H414 0.950 . S
C444 C443 1.524 . S
C444 C445 1.415 . S
C445 H415 0.950 . S
C445 C440 1.363 . S
C445 C444 1.415 . S
H446 C443 0.999 . S
H447 C428 0.913 . S
H448 C466 0.951 . S
H449 C468 0.951 . S
H450 C470 0.950 . S
H451 C471 0.950 . S
H452 C473 0.950 . S
H453 C476 0.950 . S
H454 C477 0.950 . S
H455 C479 0.950 . S
H456 C480 0.950 . S
H457 C481 0.951 . S
H458 C483 0.951 . S
H459 C485 0.950 . S
H460 C486 0.950 . S
H461 C488 0.950 . S
H462 C491 0.950 . S
H463 C492 0.950 . S
H464 C494 0.950 . S
H465 C495 0.950 . S
C466 H448 0.951 . S
C466 C467 1.366 . S
C466 C468 1.388 . S
C467 C466 1.366 . S
C467 C471 1.385 . S
C468 H449 0.951 . S
C468 C466 1.388 . S
C468 C469 1.366 . S
C469 C468 1.366 . S
C469 C470 1.414 . S
C469 C472 1.499 . S
C470 H450 0.950 . S
C470 C469 1.414 . S
C470 C471 1.374 . S
C471 H451 0.950 . S
C471 C467 1.385 . S
C471 C470 1.374 . S
C472 C469 1.499 . S
C472 C473 1.373 . S
C472 C474 1.389 . S
C473 H452 0.950 . S
C473 C472 1.373 . S
C473 C489 1.377 . S
C474 C472 1.389 . S
C474 C475 1.524 . S
C474 C488 1.377 . S
C475 C474 1.524 . S
C475 C476 1.397 . S
C475 C480 1.363 . S
C476 H453 0.950 . S
C476 C475 1.397 . S
C476 C477 1.334 . S
C477 H454 0.950 . S
C477 C476 1.334 . S
C477 C478 1.287 . S
C478 C477 1.287 . S
C478 C479 1.524 . S
C478 H497 0.913 . S
C479 H455 0.950 . S
C479 C478 1.524 . S
C479 C480 1.415 . S
C480 H456 0.950 . S
C480 C475 1.363 . S
C480 C479 1.415 . S
C481 H457 0.951 . S
C481 C482 1.366 . S
C481 C483 1.388 . S
C482 C481 1.366 . S
C482 C486 1.385 . S
C483 H458 0.951 . S
C483 C481 1.388 . S
C483 C484 1.366 . S
C484 C483 1.366 . S
C484 C485 1.414 . S
C484 C487 1.499 . S
C485 H459 0.950 . S
C485 C484 1.414 . S
C485 C486 1.374 . S
C486 H460 0.950 . S
C486 C482 1.385 . S
C486 C485 1.374 . S
C487 C484 1.499 . S
C487 C488 1.373 . S
C487 C489 1.389 . S
C488 H461 0.950 . S
C488 C474 1.377 . S
C488 C487 1.373 . S
C489 C473 1.377 . S
C489 C487 1.389 . S
C489 C490 1.524 . S
C490 C489 1.524 . S
C490 C491 1.397 . S
C490 C495 1.363 . S
C491 H462 0.950 . S
C491 C490 1.397 . S
C491 C492 1.334 . S
C492 H463 0.950 . S
C492 C491 1.334 . S
C492 C493 1.287 . S
C493 C492 1.287 . S
C493 C494 1.524 . S
C493 H496 0.999 . S
C494 H464 0.950 . S
C494 C493 1.524 . S
C494 C495 1.415 . S
C495 H465 0.950 . S
C495 C490 1.363 . S
C495 C494 1.415 . S
H496 C493 0.999 . S
H497 C478 0.913 . S
H498 C516 0.951 . S
H499 C518 0.951 . S
H500 C520 0.950 . S
H501 C521 0.950 . S
H502 C523 0.950 . S
H503 C526 0.950 . S
H504 C527 0.950 . S
H505 C529 0.950 . S
H506 C530 0.950 . S
H507 C531 0.951 . S
H508 C533 0.951 . S
H509 C535 0.950 . S
H510 C536 0.950 . S
H511 C538 0.950 . S
H512 C541 0.950 . S
H513 C542 0.950 . S
H514 C544 0.950 . S
H515 C545 0.950 . S
C516 H498 0.951 . S
C516 C517 1.366 . S
C516 C518 1.388 . S
C517 C516 1.366 . S
C517 C521 1.385 . S
C518 H499 0.951 . S
C518 C516 1.388 . S
C518 C519 1.366 . S
C519 C518 1.366 . S
C519 C520 1.414 . S
C519 C522 1.499 . S
C520 H500 0.950 . S
C520 C519 1.414 . S
C520 C521 1.374 . S
C521 H501 0.950 . S
C521 C517 1.385 . S
C521 C520 1.374 . S
C522 C519 1.499 . S
C522 C523 1.373 . S
C522 C524 1.389 . S
C523 H502 0.950 . S
C523 C522 1.373 . S
C523 C539 1.377 . S
C524 C522 1.389 . S
C524 C525 1.524 . S
C524 C538 1.377 . S
C525 C524 1.524 . S
C525 C526 1.397 . S
C525 C530 1.363 . S
C526 H503 0.950 . S
C526 C525 1.397 . S
C526 C527 1.334 . S
C527 H504 0.950 . S
C527 C526 1.334 . S
C527 C528 1.287 . S
C528 C527 1.287 . S
C528 C529 1.524 . S
C528 H547 0.913 . S
C529 H505 0.950 . S
C529 C528 1.524 . S
C529 C530 1.415 . S
C530 H506 0.950 . S
C530 C525 1.363 . S
C530 C529 1.415 . S
C531 H507 0.951 . S
C531 C532 1.366 . S
C531 C533 1.388 . S
C532 C531 1.366 . S
C532 C536 1.385 . S
C533 H508 0.951 . S
C533 C531 1.388 . S
C533 C534 1.366 . S
C534 C533 1.366 . S
C534 C535 1.414 . S
C534 C537 1.499 . S
C535 H509 0.950 . S
C535 C534 1.414 . S
C535 C536 1.374 . S
C536 H510 0.950 . S
C536 C532 1.385 . S
C536 C535 1.374 . S
C537 C534 1.499 . S
C537 C538 1.373 . S
C537 C539 1.389 . S
C538 H511 0.950 . S
C538 C524 1.377 . S
C538 C537 1.373 . S
C539 C523 1.377 . S
C539 C537 1.389 . S
C539 C540 1.524 . S
C540 C539 1.524 . S
C540 C541 1.397 . S
C540 C545 1.363 . S
C541 H512 0.950 . S
C541 C540 1.397 . S
C541 C542 1.334 . S
C542 H513 0.950 . S
C542 C541 1.334 . S
C542 C543 1.287 . S
C543 C542 1.287 . S
C543 C544 1.524 . S
C543 H546 0.999 . S
C544 H514 0.950 . S
C544 C543 1.524 . S
C544 C545 1.415 . S
C545 H515 0.950 . S
C545 C540 1.363 . S
C545 C544 1.415 . S
H546 C543 0.999 . S
H547 C528 0.913 . S
H548 C566 0.951 . S
H549 C568 0.951 . S
H550 C570 0.950 . S
H551 C571 0.950 . S
H552 C573 0.950 . S
H553 C576 0.950 . S
H554 C577 0.950 . S
H555 C579 0.950 . S
H556 C580 0.950 . S
H557 C581 0.951 1_455 S
H558 C583 0.951 . S
H559 C585 0.950 . S
H560 C586 0.950 . S
H561 C588 0.950 . S
H562 C591 0.950 . S
H563 C592 0.950 . S
H564 C594 0.950 . S
H565 C595 0.950 . S
C566 H548 0.951 . S
C566 C567 1.366 . S
C566 C568 1.388 . S
C567 C566 1.366 . S
C567 C571 1.385 . S
C568 H549 0.951 . S
C568 C566 1.388 . S
C568 C569 1.366 . S
C569 C568 1.366 . S
C569 C570 1.414 . S
C569 C572 1.499 . S
C570 H550 0.950 . S
C570 C569 1.414 . S
C570 C571 1.374 . S
C571 H551 0.950 . S
C571 C567 1.385 . S
C571 C570 1.374 . S
C572 C569 1.499 . S
C572 C573 1.373 . S
C572 C574 1.389 . S
C573 H552 0.950 . S
C573 C572 1.373 . S
C573 C589 1.377 . S
C574 C572 1.389 . S
C574 C575 1.524 . S
C574 C588 1.377 . S
C575 C574 1.524 . S
C575 C576 1.397 . S
C575 C580 1.363 . S
C576 H553 0.950 . S
C576 C575 1.397 . S
C576 C577 1.334 . S
C577 H554 0.950 . S
C577 C576 1.334 . S
C577 C578 1.287 . S
C578 C577 1.287 . S
C578 C579 1.524 . S
C578 H597 0.913 . S
C579 H555 0.950 . S
C579 C578 1.524 . S
C579 C580 1.415 . S
C580 H556 0.950 . S
C580 C575 1.363 . S
C580 C579 1.415 . S
C581 H557 0.951 1_655 S
C581 C582 1.366 . S
C581 C583 1.388 . S
C582 C581 1.366 . S
C582 C586 1.385 . S
C583 H558 0.951 . S
C583 C581 1.388 . S
C583 C584 1.366 . S
C584 C583 1.366 . S
C584 C585 1.414 . S
C584 C587 1.499 . S
C585 H559 0.950 . S
C585 C584 1.414 . S
C585 C586 1.374 . S
C586 H560 0.950 . S
C586 C582 1.385 . S
C586 C585 1.374 . S
C587 C584 1.499 . S
C587 C588 1.373 . S
C587 C589 1.389 . S
C588 H561 0.950 . S
C588 C574 1.377 . S
C588 C587 1.373 . S
C589 C573 1.377 . S
C589 C587 1.389 . S
C589 C590 1.524 . S
C590 C589 1.524 . S
C590 C591 1.397 . S
C590 C595 1.363 . S
C591 H562 0.950 . S
C591 C590 1.397 . S
C591 C592 1.334 . S
C592 H563 0.950 . S
C592 C591 1.334 . S
C592 C593 1.287 . S
C593 C592 1.287 . S
C593 C594 1.524 . S
C593 H596 0.999 . S
C594 H564 0.950 . S
C594 C593 1.524 . S
C594 C595 1.415 . S
C595 H565 0.950 . S
C595 C590 1.363 . S
C595 C594 1.415 . S
H596 C593 0.999 . S
H597 C578 0.913 . S
H598 C616 0.951 . S
H599 C618 0.951 . S
H600 C620 0.950 . S
H601 C621 0.950 . S
H602 C623 0.950 . S
H603 C626 0.950 . S
H604 C627 0.950 . S
H605 C629 0.950 . S
H606 C630 0.950 . S
H607 C631 0.951 . S
H608 C633 0.951 . S
H609 C635 0.950 . S
H610 C636 0.950 . S
H611 C638 0.950 . S
H612 C641 0.950 . S
H613 C642 0.950 . S
H614 C644 0.950 . S
H615 C645 0.950 . S
C616 H598 0.951 . S
C616 C617 1.366 . S
C616 C618 1.388 . S
C617 C616 1.366 . S
C617 C621 1.385 . S
C618 H599 0.951 . S
C618 C616 1.388 . S
C618 C619 1.366 . S
C619 C618 1.366 . S
C619 C620 1.414 . S
C619 C622 1.499 . S
C620 H600 0.950 . S
C620 C619 1.414 . S
C620 C621 1.374 . S
C621 H601 0.950 . S
C621 C617 1.385 . S
C621 C620 1.374 . S
C622 C619 1.499 . S
C622 C623 1.373 . S
C622 C624 1.389 . S
C623 H602 0.950 . S
C623 C622 1.373 . S
C623 C639 1.377 . S
C624 C622 1.389 . S
C624 C625 1.524 . S
C624 C638 1.377 . S
C625 C624 1.524 . S
C625 C626 1.397 . S
C625 C630 1.363 . S
C626 H603 0.950 . S
C626 C625 1.397 . S
C626 C627 1.334 . S
C627 H604 0.950 . S
C627 C626 1.334 . S
C627 C628 1.287 . S
C628 C627 1.287 . S
C628 C629 1.524 . S
C628 H647 0.913 . S
C629 H605 0.950 . S
C629 C628 1.524 . S
C629 C630 1.415 . S
C630 H606 0.950 . S
C630 C625 1.363 . S
C630 C629 1.415 . S
C631 H607 0.951 . S
C631 C632 1.366 . S
C631 C633 1.388 . S
C632 C631 1.366 . S
C632 C636 1.385 . S
C633 H608 0.951 . S
C633 C631 1.388 . S
C633 C634 1.366 . S
C634 C633 1.366 . S
C634 C635 1.414 . S
C634 C637 1.499 . S
C635 H609 0.950 . S
C635 C634 1.414 . S
C635 C636 1.374 . S
C636 H610 0.950 . S
C636 C632 1.385 . S
C636 C635 1.374 . S
C637 C634 1.499 . S
C637 C638 1.373 . S
C637 C639 1.389 . S
C638 H611 0.950 . S
C638 C624 1.377 . S
C638 C637 1.373 . S
C639 C623 1.377 . S
C639 C637 1.389 . S
C639 C640 1.524 . S
C640 C639 1.524 . S
C640 C641 1.397 . S
C640 C645 1.363 . S
C641 H612 0.950 . S
C641 C640 1.397 . S
C641 C642 1.334 . S
C642 H613 0.950 . S
C642 C641 1.334 . S
C642 C643 1.287 . S
C643 C642 1.287 . S
C643 C644 1.524 . S
C643 H646 0.999 . S
C644 H614 0.950 . S
C644 C643 1.524 . S
C644 C645 1.415 . S
C645 H615 0.950 . S
C645 C640 1.363 . S
C645 C644 1.415 . S
H646 C643 0.999 . S
H647 C628 0.913 . S
H648 C666 0.951 . S
H649 C668 0.951 . S
H650 C670 0.950 . S
H651 C671 0.950 . S
H652 C673 0.950 . S
H653 C676 0.950 . S
H654 C677 0.950 . S
H655 C679 0.950 . S
H656 C680 0.950 . S
H657 C681 0.951 . S
H658 C683 0.951 . S
H659 C685 0.950 . S
H660 C686 0.950 . S
H661 C688 0.950 . S
H662 C691 0.950 . S
H663 C692 0.950 . S
H664 C694 0.950 . S
H665 C695 0.950 . S
C666 H648 0.951 . S
C666 C667 1.366 . S
C666 C668 1.388 . S
C667 C666 1.366 . S
C667 C671 1.385 . S
C668 H649 0.951 . S
C668 C666 1.388 . S
C668 C669 1.366 . S
C669 C668 1.366 . S
C669 C670 1.414 . S
C669 C672 1.499 . S
C670 H650 0.950 . S
C670 C669 1.414 . S
C670 C671 1.374 . S
C671 H651 0.950 . S
C671 C667 1.385 . S
C671 C670 1.374 . S
C672 C669 1.499 . S
C672 C673 1.373 . S
C672 C674 1.389 . S
C673 H652 0.950 . S
C673 C672 1.373 . S
C673 C689 1.377 . S
C674 C672 1.389 . S
C674 C675 1.524 . S
C674 C688 1.377 . S
C675 C674 1.524 . S
C675 C676 1.397 . S
C675 C680 1.363 . S
C676 H653 0.950 . S
C676 C675 1.397 . S
C676 C677 1.334 . S
C677 H654 0.950 . S
C677 C676 1.334 . S
C677 C678 1.287 . S
C678 C677 1.287 . S
C678 C679 1.524 . S
C678 H697 0.913 . S
C679 H655 0.950 . S
C679 C678 1.524 . S
C679 C680 1.415 . S
C680 H656 0.950 . S
C680 C675 1.363 . S
C680 C679 1.415 . S
C681 H657 0.951 . S
C681 C682 1.366 . S
C681 C683 1.388 . S
C682 C681 1.366 . S
C682 C686 1.385 . S
C683 H658 0.951 . S
C683 C681 1.388 . S
C683 C684 1.366 . S
C684 C683 1.366 . S
C684 C685 1.414 . S
C684 C687 1.499 . S
C685 H659 0.950 . S
C685 C684 1.414 . S
C685 C686 1.374 . S
C686 H660 0.950 . S
C686 C682 1.385 . S
C686 C685 1.374 . S
C687 C684 1.499 . S
C687 C688 1.373 . S
C687 C689 1.389 . S
C688 H661 0.950 . S
C688 C674 1.377 . S
C688 C687 1.373 . S
C689 C673 1.377 . S
C689 C687 1.389 . S
C689 C690 1.524 . S
C690 C689 1.524 . S
C690 C691 1.397 . S
C690 C695 1.363 . S
C691 H662 0.950 . S
C691 C690 1.397 . S
C691 C692 1.334 . S
C692 H663 0.950 . S
C692 C691 1.334 . S
C692 C693 1.287 . S
C693 C692 1.287 . S
C693 C694 1.524 . S
C693 H696 0.999 . S
C694 H664 0.950 . S
C694 C693 1.524 . S
C694 C695 1.415 . S
C695 H665 0.950 . S
C695 C690 1.363 . S
C695 C694 1.415 . S
H696 C693 0.999 . S
H697 C678 0.913 . S
H698 C716 0.951 . S
H699 C718 0.951 . S
H700 C720 0.950 . S
H701 C721 0.950 . S
H702 C723 0.950 . S
H703 C726 0.950 . S
H704 C727 0.950 . S
H705 C729 0.950 . S
H706 C730 0.950 . S
H707 C731 0.951 . S
H708 C733 0.951 . S
H709 C735 0.950 . S
H710 C736 0.950 . S
H711 C738 0.950 . S
H712 C741 0.950 . S
H713 C742 0.950 . S
H714 C744 0.950 . S
H715 C745 0.950 . S
C716 H698 0.951 . S
C716 C717 1.366 . S
C716 C718 1.388 . S
C717 C716 1.366 . S
C717 C721 1.385 . S
C718 H699 0.951 . S
C718 C716 1.388 . S
C718 C719 1.366 . S
C719 C718 1.366 . S
C719 C720 1.414 . S
C719 C722 1.499 . S
C720 H700 0.950 . S
C720 C719 1.414 . S
C720 C721 1.374 . S
C721 H701 0.950 . S
C721 C717 1.385 . S
C721 C720 1.374 . S
C722 C719 1.499 . S
C722 C723 1.373 . S
C722 C724 1.389 . S
C723 H702 0.950 . S
C723 C722 1.373 . S
C723 C739 1.377 . S
C724 C722 1.389 . S
C724 C725 1.524 . S
C724 C738 1.377 . S
C725 C724 1.524 . S
C725 C726 1.397 . S
C725 C730 1.363 . S
C726 H703 0.950 . S
C726 C725 1.397 . S
C726 C727 1.334 . S
C727 H704 0.950 . S
C727 C726 1.334 . S
C727 C728 1.287 . S
C728 C727 1.287 . S
C728 C729 1.524 . S
C728 H747 0.913 . S
C729 H705 0.950 . S
C729 C728 1.524 . S
C729 C730 1.415 . S
C730 H706 0.950 . S
C730 C725 1.363 . S
C730 C729 1.415 . S
C731 H707 0.951 . S
C731 C732 1.366 . S
C731 C733 1.388 . S
C732 C731 1.366 . S
C732 C736 1.385 . S
C733 H708 0.951 . S
C733 C731 1.388 . S
C733 C734 1.366 . S
C734 C733 1.366 . S
C734 C735 1.414 . S
C734 C737 1.499 . S
C735 H709 0.950 . S
C735 C734 1.414 . S
C735 C736 1.374 . S
C736 H710 0.950 . S
C736 C732 1.385 . S
C736 C735 1.374 . S
C737 C734 1.499 . S
C737 C738 1.373 . S
C737 C739 1.389 . S
C738 H711 0.950 . S
C738 C724 1.377 . S
C738 C737 1.373 . S
C739 C723 1.377 . S
C739 C737 1.389 . S
C739 C740 1.524 . S
C740 C739 1.524 . S
C740 C741 1.397 . S
C740 C745 1.363 . S
C741 H712 0.950 . S
C741 C740 1.397 . S
C741 C742 1.334 . S
C742 H713 0.950 . S
C742 C741 1.334 . S
C742 C743 1.287 . S
C743 C742 1.287 . S
C743 C744 1.524 . S
C743 H746 0.999 . S
C744 H714 0.950 . S
C744 C743 1.524 . S
C744 C745 1.415 . S
C745 H715 0.950 . S
C745 C740 1.363 . S
C745 C744 1.415 . S
H746 C743 0.999 . S
H747 C728 0.913 . S
H748 C766 0.951 . S
H749 C768 0.951 . S
H750 C770 0.950 . S
H751 C771 0.950 . S
H752 C773 0.950 . S
H753 C776 0.950 . S
H754 C777 0.950 . S
H755 C779 0.950 . S
H756 C780 0.950 . S
H757 C781 0.951 . S
H758 C783 0.951 . S
H759 C785 0.950 . S
H760 C786 0.950 . S
H761 C788 0.950 . S
H762 C791 0.950 . S
H763 C792 0.950 . S
H764 C794 0.950 . S
H765 C795 0.950 . S
C766 H748 0.951 . S
C766 C767 1.366 . S
C766 C768 1.388 . S
C767 C766 1.366 . S
C767 C771 1.385 . S
C768 H749 0.951 . S
C768 C766 1.388 . S
C768 C769 1.366 . S
C769 C768 1.366 . S
C769 C770 1.414 . S
C769 C772 1.499 . S
C770 H750 0.950 . S
C770 C769 1.414 . S
C770 C771 1.374 . S
C771 H751 0.950 . S
C771 C767 1.385 . S
C771 C770 1.374 . S
C772 C769 1.499 . S
C772 C773 1.373 . S
C772 C774 1.389 . S
C773 H752 0.950 . S
C773 C772 1.373 . S
C773 C789 1.377 . S
C774 C772 1.389 . S
C774 C775 1.524 . S
C774 C788 1.377 . S
C775 C774 1.524 . S
C775 C776 1.397 . S
C775 C780 1.363 . S
C776 H753 0.950 . S
C776 C775 1.397 . S
C776 C777 1.334 . S
C777 H754 0.950 . S
C777 C776 1.334 . S
C777 C778 1.287 . S
C778 C777 1.287 . S
C778 C779 1.524 . S
C778 H797 0.913 . S
C779 H755 0.950 . S
C779 C778 1.524 . S
C779 C780 1.415 . S
C780 H756 0.950 . S
C780 C775 1.363 . S
C780 C779 1.415 . S
C781 H757 0.951 . S
C781 C782 1.366 . S
C781 C783 1.388 . S
C782 C781 1.366 . S
C782 C786 1.385 . S
C783 H758 0.951 . S
C783 C781 1.388 . S
C783 C784 1.366 . S
C784 C783 1.366 . S
C784 C785 1.414 . S
C784 C787 1.499 . S
C785 H759 0.950 . S
C785 C784 1.414 . S
C785 C786 1.374 . S
C786 H760 0.950 . S
C786 C782 1.385 . S
C786 C785 1.374 . S
C787 C784 1.499 . S
C787 C788 1.373 . S
C787 C789 1.389 . S
C788 H761 0.950 . S
C788 C774 1.377 . S
C788 C787 1.373 . S
C789 C773 1.377 . S
C789 C787 1.389 . S
C789 C790 1.524 . S
C790 C789 1.524 . S
C790 C791 1.397 . S
C790 C795 1.363 . S
C791 H762 0.950 . S
C791 C790 1.397 . S
C791 C792 1.334 . S
C792 H763 0.950 . S
C792 C791 1.334 . S
C792 C793 1.287 . S
C793 C792 1.287 . S
C793 C794 1.524 . S
C793 H796 0.999 . S
C794 H764 0.950 . S
C794 C793 1.524 . S
C794 C795 1.415 . S
C795 H765 0.950 . S
C795 C790 1.363 . S
C795 C794 1.415 . S
H796 C793 0.999 . S
H797 C778 0.913 . S
H798 C816 0.951 . S
H799 C818 0.951 . S
H800 C820 0.950 . S
H801 C821 0.950 . S
H802 C823 0.950 . S
H803 C826 0.950 . S
H804 C827 0.950 . S
H805 C829 0.950 1_655 S
H806 C830 0.950 1_655 S
H807 C831 0.951 . S
H808 C833 0.951 . S
H809 C835 0.953 . S
H810 C836 0.950 . S
H811 C838 0.950 . S
H812 C841 0.950 1_655 S
H813 C842 0.950 1_655 S
H814 C844 0.960 . S
H815 C845 0.950 . S
C816 H798 0.951 . S
C816 C817 1.366 1_655 S
C816 C818 1.388 . S
C817 C816 1.366 1_455 S
C817 C821 1.385 . S
C818 H799 0.951 . S
C818 C816 1.388 . S
C818 C819 1.366 1_655 S
C819 C818 1.366 1_455 S
C819 C820 1.414 . S
C819 C822 1.499 . S
C820 H800 0.950 . S
C820 C819 1.414 . S
C820 C821 1.374 . S
C821 H801 0.950 . S
C821 C817 1.385 . S
C821 C820 1.374 . S
C822 C819 1.499 . S
C822 C823 1.373 . S
C822 C824 1.389 . S
C823 H802 0.950 . S
C823 C822 1.373 . S
C823 C839 1.415 . S
C824 C822 1.389 . S
C824 C825 1.524 . S
C824 C838 1.377 1_554 S
C825 C824 1.524 . S
C825 C826 1.397 . S
C825 C830 1.363 . S
C826 H803 0.950 . S
C826 C825 1.397 . S
C826 C827 1.334 . S
C827 H804 0.950 . S
C827 C826 1.334 . S
C827 C828 1.287 . S
C828 C827 1.287 . S
C828 C829 1.524 . S
C828 H847 0.913 . S
C829 H805 0.950 1_455 S
C829 C828 1.524 . S
C829 C830 1.415 . S
C830 H806 0.950 1_455 S
C830 C825 1.363 . S
C830 C829 1.415 . S
C831 H807 0.951 . S
C831 C832 1.366 . S
C831 C833 1.388 . S
C832 C831 1.366 . S
C832 C836 1.385 . S
C833 H808 0.951 . S
C833 C831 1.388 . S
C833 C834 1.366 . S
C834 C833 1.366 . S
C834 C835 1.414 . S
C834 C837 1.499 . S
C835 H809 0.953 . S
C835 C834 1.414 . S
C835 C836 1.374 . S
C836 H810 0.950 . S
C836 C832 1.385 . S
C836 C835 1.374 . S
C837 C834 1.499 . S
C837 C838 1.373 . S
C837 C839 1.365 1_556 S
C838 H811 0.950 . S
C838 C824 1.377 1_556 S
C838 C837 1.373 . S
C839 C823 1.415 . S
C839 C837 1.365 1_554 S
C839 C840 1.513 1_554 S
C840 C839 1.513 1_556 S
C840 C841 1.397 . S
C840 C845 1.363 1_556 S
C841 H812 0.950 1_455 S
C841 C840 1.397 . S
C841 C842 1.334 . S
C842 H813 0.950 1_455 S
C842 C841 1.334 . S
C842 C843 1.287 . S
C843 C842 1.287 . S
C843 C844 1.524 . S
C843 H846 0.999 . S
C844 H814 0.960 . S
C844 C843 1.524 . S
C844 C845 1.415 1_556 S
C845 H815 0.950 . S
C845 C840 1.363 1_554 S
C845 C844 1.415 1_554 S
H846 C843 0.999 . S
H847 C828 0.913 . S
H848 C866 0.951 . S
H849 C868 0.951 . S
H850 C870 0.950 . S
H851 C871 0.950 . S
H852 C873 0.950 1_565 S
H853 C876 0.950 . S
H854 C877 0.950 . S
H855 C879 0.950 . S
H856 C880 0.950 . S
H857 C881 0.951 . S
H858 C883 0.951 . S
H859 C885 0.950 . S
H860 C886 0.950 . S
H861 C888 0.950 . S
H862 C891 0.950 . S
H863 C892 0.950 . S
H864 C894 0.950 . S
H865 C895 0.950 . S
C866 H848 0.951 . S
C866 C867 1.366 . S
C866 C868 1.388 . S
C867 C866 1.366 . S
C867 C871 1.385 . S
C868 H849 0.951 . S
C868 C866 1.388 . S
C868 C869 1.366 . S
C869 C868 1.366 . S
C869 C870 1.414 . S
C869 C872 1.499 . S
C870 H850 0.950 . S
C870 C869 1.414 . S
C870 C871 1.374 . S
C871 H851 0.950 . S
C871 C867 1.385 . S
C871 C870 1.374 . S
C872 C869 1.499 . S
C872 C873 1.373 . S
C872 C874 1.389 . S
C873 H852 0.950 1_545 S
C873 C872 1.373 . S
C873 C889 1.377 . S
C874 C872 1.389 . S
C874 C875 1.524 . S
C874 C888 1.377 . S
C875 C874 1.524 . S
C875 C876 1.397 . S
C875 C880 1.363 . S
C876 H853 0.950 . S
C876 C875 1.397 . S
C876 C877 1.334 . S
C877 H854 0.950 . S
C877 C876 1.334 . S
C877 C878 1.287 . S
C878 C877 1.287 . S
C878 C879 1.524 . S
C878 H897 0.913 . S
C879 H855 0.950 . S
C879 C878 1.524 . S
C879 C880 1.415 . S
C880 H856 0.950 . S
C880 C875 1.363 . S
C880 C879 1.415 . S
C881 H857 0.951 . S
C881 C882 1.366 . S
C881 C883 1.388 . S
C882 C881 1.366 . S
C882 C886 1.385 . S
C883 H858 0.951 . S
C883 C881 1.388 . S
C883 C884 1.366 . S
C884 C883 1.366 . S
C884 C885 1.414 . S
C884 C887 1.499 . S
C885 H859 0.950 . S
C885 C884 1.414 . S
C885 C886 1.374 . S
C886 H860 0.950 . S
C886 C882 1.385 . S
C886 C885 1.374 . S
C887 C884 1.499 . S
C887 C888 1.373 . S
C887 C889 1.389 . S
C888 H861 0.950 . S
C888 C874 1.377 . S
C888 C887 1.373 . S
C889 C873 1.377 . S
C889 C887 1.389 . S
C889 C890 1.524 1_545 S
C890 C889 1.524 1_565 S
C890 C891 1.397 . S
C890 C895 1.363 . S
C891 H862 0.950 . S
C891 C890 1.397 . S
C891 C892 1.334 . S
C892 H863 0.950 . S
C892 C891 1.334 . S
C892 C893 1.287 . S
C893 C892 1.287 . S
C893 C894 1.524 . S
C893 H896 0.999 . S
C894 H864 0.950 . S
C894 C893 1.524 . S
C894 C895 1.415 . S
C895 H865 0.950 . S
C895 C890 1.363 . S
C895 C894 1.415 . S
H896 C893 0.999 . S
H897 C878 0.913 . S
H898 C916 0.951 . S
H899 C918 0.951 . S
H900 C920 0.950 . S
H901 C921 0.950 . S
H902 C923 0.950 . S
H903 C926 0.950 . S
H904 C927 0.950 . S
H905 C929 0.950 . S
H906 C930 0.950 . S
H907 C931 0.951 . S
H908 C933 0.951 . S
H909 C935 0.950 . S
H910 C936 0.950 . S
H911 C938 0.950 . S
H912 C941 0.950 . S
H913 C942 0.950 . S
H914 C944 0.950 . S
H915 C945 0.950 . S
C916 H898 0.951 . S
C916 C917 1.366 . S
C916 C918 1.388 . S
C917 C916 1.366 . S
C917 C921 1.385 . S
C918 H899 0.951 . S
C918 C916 1.388 . S
C918 C919 1.366 . S
C919 C918 1.366 . S
C919 C920 1.414 . S
C919 C922 1.499 . S
C920 H900 0.950 . S
C920 C919 1.414 . S
C920 C921 1.374 . S
C921 H901 0.950 . S
C921 C917 1.385 . S
C921 C920 1.374 . S
C922 C919 1.499 . S
C922 C923 1.373 . S
C922 C924 1.389 . S
C923 H902 0.950 . S
C923 C922 1.373 . S
C923 C939 1.377 . S
C924 C922 1.389 . S
C924 C925 1.524 . S
C924 C938 1.377 . S
C925 C924 1.524 . S
C925 C926 1.397 . S
C925 C930 1.363 . S
C926 H903 0.950 . S
C926 C925 1.397 . S
C926 C927 1.334 . S
C927 H904 0.950 . S
C927 C926 1.334 . S
C927 C928 1.287 . S
C928 C927 1.287 . S
C928 C929 1.524 . S
C928 H947 0.913 . S
C929 H905 0.950 . S
C929 C928 1.524 . S
C929 C930 1.415 . S
C930 H906 0.950 . S
C930 C925 1.363 . S
C930 C929 1.415 . S
C931 H907 0.951 . S
C931 C932 1.366 . S
C931 C933 1.388 . S
C932 C931 1.366 . S
C932 C936 1.385 . S
C933 H908 0.951 . S
C933 C931 1.388 . S
C933 C934 1.366 . S
C934 C933 1.366 . S
C934 C935 1.414 . S
C934 C937 1.499 . S
C935 H909 0.950 . S
C935 C934 1.414 . S
C935 C936 1.374 . S
C936 H910 0.950 . S
C936 C932 1.385 . S
C936 C935 1.374 . S
C937 C934 1.499 . S
C937 C938 1.373 . S
C937 C939 1.389 . S
C938 H911 0.950 . S
C938 C924 1.377 . S
C938 C937 1.373 . S
C939 C923 1.377 . S
C939 C937 1.389 . S
C939 C940 1.524 . S
C940 C939 1.524 . S
C940 C941 1.397 . S
C940 C945 1.363 . S
C941 H912 0.950 . S
C941 C940 1.397 . S
C941 C942 1.334 . S
C942 H913 0.950 . S
C942 C941 1.334 . S
C942 C943 1.287 . S
C943 C942 1.287 . S
C943 C944 1.524 . S
C943 H946 0.999 . S
C944 H914 0.950 . S
C944 C943 1.524 . S
C944 C945 1.415 . S
C945 H915 0.950 . S
C945 C940 1.363 . S
C945 C944 1.415 . S
H946 C943 0.999 . S
H947 C928 0.913 . S
H948 C966 0.951 . S
H949 C968 0.951 . S
H950 C970 0.950 . S
H951 C971 0.950 . S
H952 C973 0.950 1_565 S
H953 C976 0.950 . S
H954 C977 0.950 . S
H955 C979 0.950 . S
H956 C980 0.950 . S
H957 C981 0.951 1_565 S
H958 C983 0.951 1_565 S
H959 C985 0.950 . S
H960 C986 0.950 . S
H961 C988 0.950 . S
H962 C991 0.950 1_545 S
H963 C992 0.950 . S
H964 C994 0.950 . S
H965 C995 0.950 . S
C966 H948 0.951 . S
C966 C967 1.366 . S
C966 C968 1.388 . S
C967 C966 1.366 . S
C967 C971 1.385 1_545 S
C968 H949 0.951 . S
C968 C966 1.388 . S
C968 C969 1.366 . S
C969 C968 1.366 . S
C969 C970 1.414 1_545 S
C969 C972 1.499 . S
C970 H950 0.950 . S
C970 C969 1.414 1_565 S
C970 C971 1.374 . S
C971 H951 0.950 . S
C971 C967 1.385 1_565 S
C971 C970 1.374 . S
C972 C969 1.499 . S
C972 C973 1.373 . S
C972 C974 1.389 . S
C973 H952 0.950 1_545 S
C973 C972 1.373 . S
C973 C989 1.377 . S
C974 C972 1.389 . S
C974 C975 1.524 . S
C974 C988 1.377 . S
C975 C974 1.524 . S
C975 C976 1.397 . S
C975 C980 1.363 . S
C976 H953 0.950 . S
C976 C975 1.397 . S
C976 C977 1.334 . S
C977 H954 0.950 . S
C977 C976 1.334 . S
C977 C978 1.287 . S
C978 C977 1.287 . S
C978 C979 1.524 . S
C978 H997 0.913 . S
C979 H955 0.950 . S
C979 C978 1.524 . S
C979 C980 1.415 . S
C980 H956 0.950 . S
C980 C975 1.363 . S
C980 C979 1.415 . S
C981 H957 0.951 1_545 S
C981 C982 1.366 . S
C981 C983 1.388 . S
C982 C981 1.366 . S
C982 C986 1.385 . S
C983 H958 0.951 1_545 S
C983 C981 1.388 . S
C983 C984 1.366 . S
C984 C983 1.366 . S
C984 C985 1.414 . S
C984 C987 1.499 . S
C985 H959 0.950 . S
C985 C984 1.414 . S
C985 C986 1.374 . S
C986 H960 0.950 . S
C986 C982 1.385 . S
C986 C985 1.374 . S
C987 C984 1.499 . S
C987 C988 1.373 . S
C987 C989 1.389 . S
C988 H961 0.950 . S
C988 C974 1.377 . S
C988 C987 1.373 . S
C989 C973 1.377 . S
C989 C987 1.389 . S
C989 C990 1.524 1_545 S
C990 C989 1.524 1_565 S
C990 C991 1.397 . S
C990 C995 1.363 . S
C991 H962 0.950 1_565 S
C991 C990 1.397 . S
C991 C992 1.334 . S
C992 H963 0.950 . S
C992 C991 1.334 . S
C992 C993 1.287 . S
C993 C992 1.287 . S
C993 C994 1.524 . S
C993 H996 0.999 . S
C994 H964 0.950 . S
C994 C993 1.524 . S
C994 C995 1.415 . S
C995 H965 0.950 . S
C995 C990 1.363 . S
C995 C994 1.415 . S
H996 C993 0.999 . S
H997 C978 0.913 . S
H998 C1016 0.951 . S
H999 C1018 0.951 . S
H1000 C1020 0.950 . S
H1001 C1021 0.950 . S
H1002 C1023 0.950 . S
H1003 C1026 0.950 . S
H1004 C1027 0.950 . S
H1005 C1029 0.950 . S
H1006 C1030 0.950 . S
H1007 C1031 0.951 . S
H1008 C1033 0.951 . S
H1009 C1035 0.950 . S
H1010 C1036 0.950 . S
H1011 C1038 0.950 . S
H1012 C1041 0.950 . S
H1013 C1042 0.950 . S
H1014 C1044 0.964 . S
H1015 C1045 0.950 . S
C1016 H998 0.951 . S
C1016 C1017 1.366 . S
C1016 C1018 1.388 . S
C1017 C1016 1.366 . S
C1017 C1021 1.385 . S
C1018 H999 0.951 . S
C1018 C1016 1.388 . S
C1018 C1019 1.366 . S
C1019 C1018 1.366 . S
C1019 C1020 1.414 . S
C1019 C1022 1.499 . S
C1020 H1000 0.950 . S
C1020 C1019 1.414 . S
C1020 C1021 1.374 . S
C1021 H1001 0.950 . S
C1021 C1017 1.385 . S
C1021 C1020 1.374 . S
C1022 C1019 1.499 . S
C1022 C1023 1.373 . S
C1022 C1024 1.389 . S
C1023 H1002 0.950 . S
C1023 C1022 1.373 . S
C1023 C1039 1.377 . S
C1024 C1022 1.389 . S
C1024 C1025 1.524 . S
C1024 C1038 1.377 1_556 S
C1025 C1024 1.524 . S
C1025 C1026 1.397 . S
C1025 C1030 1.363 . S
C1026 H1003 0.950 . S
C1026 C1025 1.397 . S
C1026 C1027 1.334 . S
C1027 H1004 0.950 . S
C1027 C1026 1.334 . S
C1027 C1028 1.287 . S
C1028 C1027 1.287 . S
C1028 C1029 1.524 . S
C1028 H1047 0.913 . S
C1029 H1005 0.950 . S
C1029 C1028 1.524 . S
C1029 C1030 1.415 . S
C1030 H1006 0.950 . S
C1030 C1025 1.363 . S
C1030 C1029 1.415 . S
C1031 H1007 0.951 . S
C1031 C1032 1.366 . S
C1031 C1033 1.388 . S
C1032 C1031 1.366 . S
C1032 C1036 1.385 . S
C1033 H1008 0.951 . S
C1033 C1031 1.388 . S
C1033 C1034 1.366 . S
C1034 C1033 1.366 . S
C1034 C1035 1.414 . S
C1034 C1037 1.499 . S
C1035 H1009 0.950 . S
C1035 C1034 1.414 . S
C1035 C1036 1.374 . S
C1036 H1010 0.950 . S
C1036 C1032 1.385 . S
C1036 C1035 1.374 . S
C1037 C1034 1.499 . S
C1037 C1038 1.373 . S
C1037 C1039 1.389 1_554 S
C1038 H1011 0.950 . S
C1038 C1024 1.377 1_554 S
C1038 C1037 1.373 . S
C1039 C1023 1.377 . S
C1039 C1037 1.389 1_556 S
C1039 C1040 1.524 1_556 S
C1040 C1039 1.524 1_554 S
C1040 C1041 1.397 . S
C1040 C1045 1.363 1_554 S
C1041 H1012 0.950 . S
C1041 C1040 1.397 . S
C1041 C1042 1.334 . S
C1042 H1013 0.950 . S
C1042 C1041 1.334 . S
C1042 C1043 1.287 . S
C1043 C1042 1.287 . S
C1043 C1044 1.524 . S
C1043 H1046 0.999 . S
C1044 H1014 0.964 . S
C1044 C1043 1.524 . S
C1044 C1045 1.415 1_554 S
C1045 H1015 0.950 . S
C1045 C1040 1.363 1_556 S
C1045 C1044 1.415 1_556 S
H1046 C1043 0.999 . S
H1047 C1028 0.913 . S
H1048 C1066 0.951 . S
H1049 C1068 0.951 . S
H1050 C1070 0.950 . S
H1051 C1071 0.950 . S
H1052 C1073 0.950 . S
H1053 C1076 0.950 . S
H1054 C1077 0.950 . S
H1055 C1079 0.950 . S
H1056 C1080 0.950 . S
H1057 C1081 0.951 . S
H1058 C1083 0.951 . S
H1059 C1085 0.950 . S
H1060 C1086 0.950 . S
H1061 C1088 0.950 . S
H1062 C1091 0.950 . S
H1063 C1092 0.950 . S
H1064 C1094 0.950 . S
H1065 C1095 0.950 . S
C1066 H1048 0.951 . S
C1066 C1067 1.366 . S
C1066 C1068 1.388 . S
C1067 C1066 1.366 . S
C1067 C1071 1.385 1_655 S
C1068 H1049 0.951 . S
C1068 C1066 1.388 . S
C1068 C1069 1.366 1_655 S
C1069 C1068 1.366 1_455 S
C1069 C1070 1.414 . S
C1069 C1072 1.499 . S
C1070 H1050 0.950 . S
C1070 C1069 1.414 . S
C1070 C1071 1.374 . S
C1071 H1051 0.950 . S
C1071 C1067 1.385 1_455 S
C1071 C1070 1.374 . S
C1072 C1069 1.499 . S
C1072 C1073 1.373 1_455 S
C1072 C1074 1.389 . S
C1073 H1052 0.950 . S
C1073 C1072 1.373 1_655 S
C1073 C1089 1.377 . S
C1074 C1072 1.389 . S
C1074 C1075 1.524 . S
C1074 C1088 1.377 . S
C1075 C1074 1.524 . S
C1075 C1076 1.397 . S
C1075 C1080 1.363 . S
C1076 H1053 0.950 . S
C1076 C1075 1.397 . S
C1076 C1077 1.334 . S
C1077 H1054 0.950 . S
C1077 C1076 1.334 . S
C1077 C1078 1.287 . S
C1078 C1077 1.287 . S
C1078 C1079 1.524 . S
C1078 H1097 0.913 . S
C1079 H1055 0.950 . S
C1079 C1078 1.524 . S
C1079 C1080 1.415 . S
C1080 H1056 0.950 . S
C1080 C1075 1.363 . S
C1080 C1079 1.415 . S
C1081 H1057 0.951 . S
C1081 C1082 1.366 . S
C1081 C1083 1.388 . S
C1082 C1081 1.366 . S
C1082 C1086 1.385 . S
C1083 H1058 0.951 . S
C1083 C1081 1.388 . S
C1083 C1084 1.366 . S
C1084 C1083 1.366 . S
C1084 C1085 1.414 . S
C1084 C1087 1.499 . S
C1085 H1059 0.950 . S
C1085 C1084 1.414 . S
C1085 C1086 1.374 . S
C1086 H1060 0.950 . S
C1086 C1082 1.385 . S
C1086 C1085 1.374 . S
C1087 C1084 1.499 . S
C1087 C1088 1.373 . S
C1087 C1089 1.389 1_455 S
C1088 H1061 0.950 . S
C1088 C1074 1.377 . S
C1088 C1087 1.373 . S
C1089 C1073 1.377 . S
C1089 C1087 1.389 1_655 S
C1089 C1090 1.524 . S
C1090 C1089 1.524 . S
C1090 C1091 1.397 . S
C1090 C1095 1.363 . S
C1091 H1062 0.950 . S
C1091 C1090 1.397 . S
C1091 C1092 1.334 . S
C1092 H1063 0.950 . S
C1092 C1091 1.334 . S
C1092 C1093 1.287 . S
C1093 C1092 1.287 . S
C1093 C1094 1.524 . S
C1093 H1096 0.999 . S
C1094 H1064 0.950 . S
C1094 C1093 1.524 . S
C1094 C1095 1.415 . S
C1095 H1065 0.950 . S
C1095 C1090 1.363 . S
C1095 C1094 1.415 . S
H1096 C1093 0.999 . S
H1097 C1078 0.913 . S
C217 C7 0.283 . S
C232 N187 0.277 . S
C267 C51 1.757 . S
C282 N160 1.752 1_655 S
C317 C87 1.076 . S
C332 N173 1.075 . S
C367 C16 0.616 . S
C382 N186 0.599 . S
C432 N161 1.993 . S
C417 C42 1.997 . S
C482 N174 1.332 . S
C467 C96 1.327 . S
C517 C47 1.021 . S
C532 N134 1.022 . S
C567 C91 2.739 . S
C582 N148 2.693 1_655 S
C617 C2 2.011 . S
C632 N122 2.013 . S
C682 N135 1.379 . S
C667 C56 1.367 . S
C732 N147 3.281 . S
C717 C82 3.251 . S
C767 C11 1.750 . S
C782 N121 1.753 . S
C832 N151 1.730 . S
C817 C19 1.707 . S
C867 C50 1.473 . S
C882 N125 1.488 . S
C917 C99 1.518 . S
C932 N138 1.592 . S
C982 N177 1.545 . S
C967 C59 1.485 . S
C1032 N190 1.307 . S
C1017 C90 1.311 . S
C1067 C10 1.446 1_655 S
C1082 N164 1.478 . S
