# Generated by pormake.
# Topology ptr, (4,4)-cn, num edge types: 1
# Building blocks:
#     Node 0, Type 0, BuildingBlock: AZAVOO_clean_sbu_0, # of connection points: 4
#     Node 1, Type 0, BuildingBlock: AZAVOO_clean_sbu_0, # of connection points: 4
#     Node 2, Type 0, BuildingBlock: AZAVOO_clean_sbu_0, # of connection points: 4
#     Node 3, Type 0, BuildingBlock: AZAVOO_clean_sbu_0, # of connection points: 4
#     Node 4, Type 0, BuildingBlock: AZAVOO_clean_sbu_0, # of connection points: 4
#     Node 5, Type 0, BuildingBlock: AZAVOO_clean_sbu_0, # of connection points: 4
#     Node 6, Type 0, BuildingBlock: AZAVOO_clean_sbu_0, # of connection points: 4
#     Node 7, Type 0, BuildingBlock: AZAVOO_clean_sbu_0, # of connection points: 4
#     Node 8, Type 0, BuildingBlock: AZAVOO_clean_sbu_0, # of connection points: 4
#     Node 9, Type 0, BuildingBlock: AZAVOO_clean_sbu_0, # of connection points: 4
#     Node 10, Type 0, BuildingBlock: AZAVOO_clean_sbu_0, # of connection points: 4
#     Node 11, Type 0, BuildingBlock: AZAVOO_clean_sbu_0, # of connection points: 4
#     Node 12, Type 0, BuildingBlock: AZAVOO_clean_sbu_0, # of connection points: 4
#     Node 13, Type 0, BuildingBlock: AZAVOO_clean_sbu_0, # of connection points: 4
#     Node 14, Type 0, BuildingBlock: AZAVOO_clean_sbu_0, # of connection points: 4
#     Node 15, Type 0, BuildingBlock: AZAVOO_clean_sbu_0, # of connection points: 4
#     Node 16, Type 0, BuildingBlock: AZAVOO_clean_sbu_0, # of connection points: 4
#     Node 17, Type 0, BuildingBlock: AZAVOO_clean_sbu_0, # of connection points: 4
#     Node 18, Type 1, BuildingBlock: NAHDIM_clean_linker_0, # of connection points: 4
#     Node 19, Type 1, BuildingBlock: NAHDIM_clean_linker_0, # of connection points: 4
#     Node 20, Type 1, BuildingBlock: NAHDIM_clean_linker_0, # of connection points: 4
#     Node 21, Type 1, BuildingBlock: NAHDIM_clean_linker_0, # of connection points: 4
#     Node 22, Type 1, BuildingBlock: NAHDIM_clean_linker_0, # of connection points: 4
#     Node 23, Type 1, BuildingBlock: NAHDIM_clean_linker_0, # of connection points: 4
#     Node 24, Type 1, BuildingBlock: NAHDIM_clean_linker_0, # of connection points: 4
#     Node 25, Type 1, BuildingBlock: NAHDIM_clean_linker_0, # of connection points: 4
#     Node 26, Type 1, BuildingBlock: NAHDIM_clean_linker_0, # of connection points: 4
#     Node 27, Type 1, BuildingBlock: NAHDIM_clean_linker_0, # of connection points: 4
#     Node 28, Type 1, BuildingBlock: NAHDIM_clean_linker_0, # of connection points: 4
#     Node 29, Type 1, BuildingBlock: NAHDIM_clean_linker_0, # of connection points: 4
#     Node 30, Type 1, BuildingBlock: NAHDIM_clean_linker_0, # of connection points: 4
#     Node 31, Type 1, BuildingBlock: NAHDIM_clean_linker_0, # of connection points: 4
#     Node 32, Type 1, BuildingBlock: NAHDIM_clean_linker_0, # of connection points: 4
#     Node 33, Type 1, BuildingBlock: NAHDIM_clean_linker_0, # of connection points: 4
#     Node 34, Type 1, BuildingBlock: NAHDIM_clean_linker_0, # of connection points: 4
#     Node 35, Type 1, BuildingBlock: NAHDIM_clean_linker_0, # of connection points: 4
#     Edge 36, Type (0, 1), BuildingBlock: CIFDUS_clean_linker_0, # of connection points: 2
#     Edge 37, Type (0, 1), BuildingBlock: CIFDUS_clean_linker_0, # of connection points: 2
#     Edge 38, Type (0, 1), BuildingBlock: CIFDUS_clean_linker_0, # of connection points: 2
#     Edge 39, Type (0, 1), BuildingBlock: CIFDUS_clean_linker_0, # of connection points: 2
#     Edge 40, Type (0, 1), BuildingBlock: CIFDUS_clean_linker_0, # of connection points: 2
#     Edge 41, Type (0, 1), BuildingBlock: CIFDUS_clean_linker_0, # of connection points: 2
#     Edge 42, Type (0, 1), BuildingBlock: CIFDUS_clean_linker_0, # of connection points: 2
#     Edge 43, Type (0, 1), BuildingBlock: CIFDUS_clean_linker_0, # of connection points: 2
#     Edge 44, Type (0, 1), BuildingBlock: CIFDUS_clean_linker_0, # of connection points: 2
#     Edge 45, Type (0, 1), BuildingBlock: CIFDUS_clean_linker_0, # of connection points: 2
#     Edge 46, Type (0, 1), BuildingBlock: CIFDUS_clean_linker_0, # of connection points: 2
#     Edge 47, Type (0, 1), BuildingBlock: CIFDUS_clean_linker_0, # of connection points: 2
#     Edge 48, Type (0, 1), BuildingBlock: CIFDUS_clean_linker_0, # of connection points: 2
#     Edge 49, Type (0, 1), BuildingBlock: CIFDUS_clean_linker_0, # of connection points: 2
#     Edge 50, Type (0, 1), BuildingBlock: CIFDUS_clean_linker_0, # of connection points: 2
#     Edge 51, Type (0, 1), BuildingBlock: CIFDUS_clean_linker_0, # of connection points: 2
#     Edge 52, Type (0, 1), BuildingBlock: CIFDUS_clean_linker_0, # of connection points: 2
#     Edge 53, Type (0, 1), BuildingBlock: CIFDUS_clean_linker_0, # of connection points: 2
#     Edge 54, Type (0, 1), BuildingBlock: CIFDUS_clean_linker_0, # of connection points: 2
#     Edge 55, Type (0, 1), BuildingBlock: CIFDUS_clean_linker_0, # of connection points: 2
#     Edge 56, Type (0, 1), BuildingBlock: CIFDUS_clean_linker_0, # of connection points: 2
#     Edge 57, Type (0, 1), BuildingBlock: CIFDUS_clean_linker_0, # of connection points: 2
#     Edge 58, Type (0, 1), BuildingBlock: CIFDUS_clean_linker_0, # of connection points: 2
#     Edge 59, Type (0, 1), BuildingBlock: CIFDUS_clean_linker_0, # of connection points: 2
#     Edge 60, Type (0, 1), BuildingBlock: CIFDUS_clean_linker_0, # of connection points: 2
#     Edge 61, Type (0, 1), BuildingBlock: CIFDUS_clean_linker_0, # of connection points: 2
#     Edge 62, Type (0, 1), BuildingBlock: CIFDUS_clean_linker_0, # of connection points: 2
#     Edge 63, Type (0, 1), BuildingBlock: CIFDUS_clean_linker_0, # of connection points: 2
#     Edge 64, Type (0, 1), BuildingBlock: CIFDUS_clean_linker_0, # of connection points: 2
#     Edge 65, Type (0, 1), BuildingBlock: CIFDUS_clean_linker_0, # of connection points: 2
#     Edge 66, Type (0, 1), BuildingBlock: CIFDUS_clean_linker_0, # of connection points: 2
#     Edge 67, Type (0, 1), BuildingBlock: CIFDUS_clean_linker_0, # of connection points: 2
#     Edge 68, Type (0, 1), BuildingBlock: CIFDUS_clean_linker_0, # of connection points: 2
#     Edge 69, Type (0, 1), BuildingBlock: CIFDUS_clean_linker_0, # of connection points: 2
#     Edge 70, Type (0, 1), BuildingBlock: CIFDUS_clean_linker_0, # of connection points: 2
#     Edge 71, Type (0, 1), BuildingBlock: CIFDUS_clean_linker_0, # of connection points: 2
#     Edge 72, Type (0, 1), BuildingBlock: CIFDUS_clean_linker_0, # of connection points: 2
#     Edge 73, Type (0, 1), BuildingBlock: CIFDUS_clean_linker_0, # of connection points: 2
#     Edge 74, Type (0, 1), BuildingBlock: CIFDUS_clean_linker_0, # of connection points: 2
#     Edge 75, Type (0, 1), BuildingBlock: CIFDUS_clean_linker_0, # of connection points: 2
#     Edge 76, Type (0, 1), BuildingBlock: CIFDUS_clean_linker_0, # of connection points: 2
#     Edge 77, Type (0, 1), BuildingBlock: CIFDUS_clean_linker_0, # of connection points: 2
#     Edge 78, Type (0, 1), BuildingBlock: CIFDUS_clean_linker_0, # of connection points: 2
#     Edge 79, Type (0, 1), BuildingBlock: CIFDUS_clean_linker_0, # of connection points: 2
#     Edge 80, Type (0, 1), BuildingBlock: CIFDUS_clean_linker_0, # of connection points: 2
#     Edge 81, Type (0, 1), BuildingBlock: CIFDUS_clean_linker_0, # of connection points: 2
#     Edge 82, Type (0, 1), BuildingBlock: CIFDUS_clean_linker_0, # of connection points: 2
#     Edge 83, Type (0, 1), BuildingBlock: CIFDUS_clean_linker_0, # of connection points: 2
#     Edge 84, Type (0, 1), BuildingBlock: CIFDUS_clean_linker_0, # of connection points: 2
#     Edge 85, Type (0, 1), BuildingBlock: CIFDUS_clean_linker_0, # of connection points: 2
#     Edge 86, Type (0, 1), BuildingBlock: CIFDUS_clean_linker_0, # of connection points: 2
#     Edge 87, Type (0, 1), BuildingBlock: CIFDUS_clean_linker_0, # of connection points: 2
#     Edge 88, Type (0, 1), BuildingBlock: CIFDUS_clean_linker_0, # of connection points: 2
#     Edge 89, Type (0, 1), BuildingBlock: CIFDUS_clean_linker_0, # of connection points: 2
#     Edge 90, Type (0, 1), BuildingBlock: CIFDUS_clean_linker_0, # of connection points: 2
#     Edge 91, Type (0, 1), BuildingBlock: CIFDUS_clean_linker_0, # of connection points: 2
#     Edge 92, Type (0, 1), BuildingBlock: CIFDUS_clean_linker_0, # of connection points: 2
#     Edge 93, Type (0, 1), BuildingBlock: CIFDUS_clean_linker_0, # of connection points: 2
#     Edge 94, Type (0, 1), BuildingBlock: CIFDUS_clean_linker_0, # of connection points: 2
#     Edge 95, Type (0, 1), BuildingBlock: CIFDUS_clean_linker_0, # of connection points: 2
#     Edge 96, Type (0, 1), BuildingBlock: CIFDUS_clean_linker_0, # of connection points: 2
#     Edge 97, Type (0, 1), BuildingBlock: CIFDUS_clean_linker_0, # of connection points: 2
#     Edge 98, Type (0, 1), BuildingBlock: CIFDUS_clean_linker_0, # of connection points: 2
#     Edge 99, Type (0, 1), BuildingBlock: CIFDUS_clean_linker_0, # of connection points: 2
#     Edge 100, Type (0, 1), BuildingBlock: CIFDUS_clean_linker_0, # of connection points: 2
#     Edge 101, Type (0, 1), BuildingBlock: CIFDUS_clean_linker_0, # of connection points: 2
#     Edge 102, Type (0, 1), BuildingBlock: CIFDUS_clean_linker_0, # of connection points: 2
#     Edge 103, Type (0, 1), BuildingBlock: CIFDUS_clean_linker_0, # of connection points: 2
#     Edge 104, Type (0, 1), BuildingBlock: CIFDUS_clean_linker_0, # of connection points: 2
#     Edge 105, Type (0, 1), BuildingBlock: CIFDUS_clean_linker_0, # of connection points: 2
#     Edge 106, Type (0, 1), BuildingBlock: CIFDUS_clean_linker_0, # of connection points: 2
#     Edge 107, Type (0, 1), BuildingBlock: CIFDUS_clean_linker_0, # of connection points: 2
# Relax obj value: 0.102
# Max RMSD: 0.342
# Mean RMSD: 0.135
data_MOF--net-ptr--node1-AZAVOO_clean_sbu_0--node2-NAHDIM_clean_linker_0--edge1-CIFDUS_clean_linker_0
_symmetry_space_group_name_H-M    P1
_symmetry_Int_Tables_number       1
_symmetry_cell_setting            triclinic
loop_
_symmetry_equiv_pos_as_xyz
'x, y, z'
_cell_length_a     86.78356
_cell_length_b     84.91355
_cell_length_c     70.97124
_cell_angle_alpha  91.852271
_cell_angle_beta   91.318254
_cell_angle_gamma 120.2997
loop_
_atom_site_label
_atom_site_type_symbol
_atom_site_fract_x
_atom_site_fract_y
_atom_site_fract_z
_atom_type_partial_charge
Mg0 Mg 0.02156 0.34247 0.98617 0.0
O1 O 0.01056 0.34894 0.01266 0.0
O2 O 0.98882 0.35392 0.00282 0.0
Mg3 Mg 0.98659 0.35189 0.97048 0.0
C4 C 0.99846 0.35288 0.01604 0.0
C5 C 0.03331 0.31516 0.99943 0.0
O6 O 0.02324 0.30619 0.98433 0.0
O7 O 0.99646 0.31431 0.98106 0.0
O8 O 0.97677 0.32107 0.96869 0.0
O9 O 0.04147 0.37229 0.9845 0.0
O10 O 0.01464 0.35855 0.97038 0.0
C11 C 0.98124 0.30939 0.97312 0.0
C12 C 0.02945 0.37347 0.97448 0.0
O13 O 0.03544 0.33075 0.00418 0.0
Mg14 Mg 0.66883 0.65648 0.03821 0.0
O15 O 0.64551 0.6507 0.01754 0.0
O16 O 0.62203 0.64386 0.0351 0.0
Mg17 Mg 0.63001 0.64537 0.06631 0.0
C18 C 0.62914 0.64612 0.01912 0.0
C19 C 0.70306 0.68456 0.01904 0.0
O20 O 0.70511 0.69284 0.03563 0.0
O21 O 0.67205 0.68391 0.04738 0.0
O22 O 0.64948 0.67644 0.06637 0.0
O23 O 0.66059 0.62683 0.03731 0.0
O24 O 0.65108 0.63987 0.05768 0.0
C25 C 0.66367 0.68841 0.05888 0.0
C26 C 0.65053 0.62527 0.05117 0.0
O27 O 0.68913 0.66909 0.01528 0.0
Mg28 Mg 0.33648 0.98647 0.9802 0.0
O29 O 0.3524 0.9957 0.00847 0.0
O30 O 0.3797 0.01934 0.00427 0.0
Mg31 Mg 0.3801 0.02715 0.9737 0.0
C32 C 0.36812 0.00753 0.0147 0.0
C33 C 0.29733 0.96945 0.99369 0.0
O34 O 0.29702 0.9801 0.98086 0.0
O35 O 0.33139 0.01014 0.98232 0.0
O36 O 0.35812 0.03446 0.97794 0.0
O37 O 0.34924 0.96976 0.974 0.0
O38 O 0.36022 0.9983 0.96597 0.0
C39 C 0.34147 0.02728 0.98081 0.0
C40 C 0.36218 0.98432 0.96726 0.0
O41 O 0.31134 0.96841 0.99621 0.0
Mg42 Mg 0.98357 0.65997 0.03443 0.0
O43 O 0.99932 0.6533 0.01354 0.0
O44 O 0.02157 0.65291 0.0296 0.0
Mg45 Mg 0.01884 0.65775 0.06116 0.0
C46 C 0.013 0.65138 0.01411 0.0
C47 C 0.96824 0.68075 0.0142 0.0
O48 O 0.97134 0.6878 0.03158 0.0
O49 O 0.0065 0.68921 0.03783 0.0
O50 O 0.02667 0.68778 0.05682 0.0
O51 O 0.96541 0.63017 0.03799 0.0
O52 O 0.99012 0.64759 0.05545 0.0
C53 C 0.02122 0.69684 0.04757 0.0
C54 C 0.97678 0.63154 0.05104 0.0
O55 O 0.97142 0.66796 0.01038 0.0
Mg56 Mg 0.34167 0.35021 0.98403 0.0
O57 O 0.3635 0.35589 0.00637 0.0
O58 O 0.38744 0.35901 0.99211 0.0
Mg59 Mg 0.38081 0.35613 0.96019 0.0
C60 C 0.37938 0.35867 0.00706 0.0
C61 C 0.30563 0.32686 0.00208 0.0
O62 O 0.30201 0.32014 0.98456 0.0
O63 O 0.33641 0.32168 0.97798 0.0
O64 O 0.35997 0.32531 0.96233 0.0
O65 O 0.35169 0.3798 0.9825 0.0
O66 O 0.3605 0.36442 0.96433 0.0
C67 C 0.34474 0.31513 0.96921 0.0
C68 C 0.36163 0.37976 0.96915 0.0
O69 O 0.32119 0.34007 0.00664 0.0
Mg70 Mg 0.66926 0.01422 0.03703 0.0
O71 O 0.64894 -1e-05 0.01212 0.0
O72 O 0.62417 0.97702 0.02321 0.0
Mg73 Mg 0.62846 0.97722 0.05524 0.0
C74 C 0.63302 0.98651 0.0096 0.0
C75 C 0.7042 0.04425 0.02035 0.0
O76 O 0.70266 0.0536 0.03456 0.0
O77 O 0.67423 0.9906 0.03878 0.0
O78 O 0.64961 0.96857 0.05117 0.0
O79 O 0.65875 0.03304 0.04229 0.0
O80 O 0.64881 0.0066 0.05551 0.0
C81 C 0.66527 0.97468 0.04505 0.0
C82 C 0.64765 0.02096 0.05331 0.0
O83 O 0.69192 0.02777 0.01692 0.0
Mg84 Mg 0.68259 0.67767 0.32159 0.0
O85 O 0.6695 0.68744 0.34356 0.0
O86 O 0.65587 0.69965 0.32754 0.0
Mg87 Mg 0.65902 0.69677 0.29598 0.0
C88 C 0.66035 0.69545 0.34303 0.0
C89 C 0.68738 0.64705 0.33923 0.0
O90 O 0.68164 0.63994 0.32201 0.0
O91 O 0.65515 0.6527 0.31353 0.0
O92 O 0.64225 0.66555 0.29756 0.0
O93 O 0.70721 0.70539 0.32275 0.0
O94 O 0.68383 0.69715 0.3034 0.0
C95 C 0.64188 0.65149 0.30401 0.0
C96 C 0.69918 0.70983 0.31024 0.0
O97 O 0.68866 0.6623 0.34375 0.0
Mg98 Mg 0.331 0.97753 0.37832 0.0
O99 O 0.30815 0.97439 0.35871 0.0
O100 O 0.28719 0.97367 0.37695 0.0
Mg101 Mg 0.29646 0.9759 0.40793 0.0
C102 C 0.29302 0.97322 0.36069 0.0
C103 C 0.35985 0.9775 0.35678 0.0
O104 O 0.35938 0.9703 0.37303 0.0
O105 O 0.34031 0.00764 0.38482 0.0
O106 O 0.31947 0.00526 0.40433 0.0
O107 O 0.31759 0.94733 0.37922 0.0
O108 O 0.31363 0.9649 0.39992 0.0
C109 C 0.33392 0.01491 0.39584 0.0
C110 C 0.30964 0.94878 0.39381 0.0
O111 O 0.34923 0.98343 0.35373 0.0
Mg112 Mg 0.0052 0.32624 0.31945 0.0
O113 O 0.02734 0.33704 0.34299 0.0
O114 O 0.05351 0.3517 0.32911 0.0
Mg115 Mg 0.04835 0.34949 0.29717 0.0
C116 C 0.04442 0.34636 0.34385 0.0
C117 C 0.97398 0.32692 0.34125 0.0
O118 O 0.97655 0.3395 0.32941 0.0
O119 O 0.01081 0.35524 0.316 0.0
O120 O 0.03656 0.36821 0.30124 0.0
O121 O 0.00578 0.30032 0.31625 0.0
O122 O 0.02227 0.32492 0.30043 0.0
C123 C 0.02346 0.36887 0.30828 0.0
C124 C 0.01817 0.3086 0.30438 0.0
O125 O 0.98393 0.31992 0.34095 0.0
Mg126 Mg 0.64006 0.97357 0.35899 0.0
O127 O 0.65877 0.96707 0.34228 0.0
O128 O 0.67852 0.96692 0.36293 0.0
Mg129 Mg 0.67195 0.97241 0.39266 0.0
C130 C 0.6723 0.96533 0.34604 0.0
C131 C 0.62491 0.99165 0.3338 0.0
O132 O 0.62516 0.99844 0.35079 0.0
O133 O 0.6622 0.00321 0.36358 0.0
O134 O 0.68069 0.00197 0.38516 0.0
O135 O 0.62143 0.94389 0.36325 0.0
O136 O 0.6441 0.96231 0.38278 0.0
C137 C 0.67621 0.01101 0.37452 0.0
C138 C 0.63092 0.94614 0.37854 0.0
O139 O 0.63023 0.98023 0.33196 0.0
Mg140 Mg 0.01231 0.69037 0.3222 0.0
O141 O 0.0351 0.69631 0.34345 0.0
O142 O 0.05692 0.69698 0.3267 0.0
Mg143 Mg 0.04907 0.69396 0.29504 0.0
C144 C 0.05051 0.69791 0.34247 0.0
C145 C 0.98238 0.68911 0.34542 0.0
O146 O 0.98656 0.70292 0.3347 0.0
O147 O 0.00648 0.66129 0.31771 0.0
O148 O 0.02729 0.66374 0.29798 0.0
O149 O 0.02277 0.72016 0.31909 0.0
O150 O 0.03039 0.70346 0.30158 0.0
C151 C 0.0133 0.65417 0.30717 0.0
C152 C 0.03213 0.71917 0.30564 0.0
O153 O 0.99176 0.68148 0.34487 0.0
Mg154 Mg 0.33158 0.35462 0.36231 0.0
O155 O 0.31065 0.33993 0.33803 0.0
O156 O 0.28466 0.3207 0.35037 0.0
Mg157 Mg 0.28897 0.32398 0.38261 0.0
C158 C 0.2941 0.32778 0.33615 0.0
C159 C 0.36879 0.36606 0.34921 0.0
O160 O 0.37003 0.36425 0.36741 0.0
O161 O 0.33234 0.32894 0.36743 0.0
O162 O 0.30668 0.31075 0.38098 0.0
O163 O 0.32508 0.37681 0.36409 0.0
O164 O 0.31206 0.3519 0.38036 0.0
C165 C 0.32179 0.31407 0.37503 0.0
C166 C 0.31334 0.36714 0.37611 0.0
O167 O 0.35404 0.36332 0.342 0.0
Mg168 Mg 0.35218 0.02255 0.66587 0.0
O169 O 0.33375 0.02951 0.6826 0.0
O170 O 0.31555 0.03182 0.66139 0.0
Mg171 Mg 0.32106 0.02482 0.63189 0.0
C172 C 0.32123 0.03273 0.67838 0.0
C173 C 0.37861 0.02197 0.69551 0.0
O174 O 0.38951 0.03313 0.68333 0.0
O175 O 0.32965 0.99309 0.66123 0.0
O176 O 0.31172 0.99521 0.63967 0.0
O177 O 0.3711 0.05229 0.66214 0.0
O178 O 0.34861 0.03443 0.64216 0.0
C179 C 0.31569 0.98573 0.65023 0.0
C180 C 0.36159 0.05054 0.64704 0.0
O181 O 0.36192 0.01557 0.69277 0.0
Mg182 Mg 0.99088 0.30714 0.69875 0.0
O183 O 0.96941 0.30015 0.67522 0.0
O184 O 0.94453 0.29461 0.68938 0.0
Mg185 Mg 0.94929 0.29624 0.72132 0.0
C186 C 0.95311 0.2962 0.67451 0.0
C187 C 0.02317 0.31229 0.67676 0.0
O188 O 0.01983 0.2984 0.68704 0.0
O189 O 0.99329 0.33491 0.70473 0.0
O190 O 0.96851 0.32702 0.72029 0.0
O191 O 0.9829 0.27757 0.70066 0.0
O192 O 0.97148 0.29128 0.71723 0.0
C193 C 0.98328 0.33914 0.71391 0.0
C194 C 0.97177 0.27661 0.71304 0.0
O195 O 0.01305 0.31904 0.67778 0.0
Mg196 Mg 0.66733 0.65005 0.65073 0.0
O197 O 0.69217 0.66289 0.67105 0.0
O198 O 0.71611 0.67714 0.65348 0.0
Mg199 Mg 0.70682 0.6748 0.62265 0.0
C200 C 0.70907 0.6722 0.6694 0.0
C201 C 0.63749 0.64869 0.67575 0.0
O202 O 0.63688 0.65851 0.66215 0.0
O203 O 0.6703 0.67808 0.64791 0.0
O204 O 0.6938 0.69197 0.62983 0.0
O205 O 0.66977 0.62521 0.64603 0.0
O206 O 0.68244 0.64942 0.62878 0.0
C207 C 0.68119 0.69184 0.63891 0.0
C208 C 0.68029 0.63374 0.63264 0.0
O209 O 0.64889 0.64348 0.67539 0.0
Mg210 Mg 0.32529 0.325 0.69845 0.0
O211 O 0.34084 0.31751 0.6777 0.0
O212 O 0.36031 0.31314 0.69456 0.0
Mg213 Mg 0.35655 0.31688 0.72591 0.0
C214 C 0.35334 0.31373 0.67874 0.0
C215 C 0.3126 0.34842 0.67863 0.0
O216 O 0.31557 0.35506 0.69617 0.0
O217 O 0.34956 0.35324 0.70456 0.0
O218 O 0.36781 0.34769 0.72224 0.0
O219 O 0.3047 0.29557 0.70047 0.0
O220 O 0.32892 0.31042 0.71927 0.0
C221 C 0.36409 0.35874 0.71427 0.0
C222 C 0.31454 0.29533 0.71435 0.0
O223 O 0.31541 0.33542 0.67452 0.0
Mg224 Mg 0.67018 0.01533 0.65837 0.0
O225 O 0.69112 0.02128 0.68201 0.0
O226 O 0.71424 0.02098 0.66923 0.0
Mg227 Mg 0.70844 0.01611 0.63716 0.0
C228 C 0.70646 0.02268 0.68356 0.0
C229 C 0.64033 0.01705 0.68007 0.0
O230 O 0.64472 0.03036 0.66859 0.0
O231 O 0.66276 0.98566 0.6557 0.0
O232 O 0.68564 0.98647 0.64102 0.0
O233 O 0.68231 0.04499 0.65347 0.0
O234 O 0.68984 0.0267 0.6388 0.0
C235 C 0.67026 0.97761 0.64804 0.0
C236 C 0.6921 0.04283 0.64132 0.0
O237 O 0.64892 0.00858 0.67985 0.0
Mg238 Mg 0.99545 0.69536 0.68636 0.0
O239 O 0.97406 0.6816 0.66248 0.0
O240 O 0.94762 0.66439 0.67501 0.0
Mg241 Mg 0.95214 0.66875 0.70725 0.0
C242 C 0.95726 0.67045 0.66072 0.0
C243 C 0.03321 0.71005 0.67191 0.0
O244 O 0.0366 0.71643 0.68956 0.0
O245 O 0.99338 0.66831 0.6923 0.0
O246 O 0.96751 0.65309 0.70657 0.0
O247 O 0.99167 0.71955 0.68782 0.0
O248 O 0.97701 0.69514 0.70446 0.0
C249 C 0.98187 0.65435 0.70059 0.0
C250 C 0.97983 0.71096 0.70016 0.0
O251 O 0.01707 0.70117 0.66561 0.0
C252 C 0.22597 0.26016 0.07937 0.0
C253 C 0.22201 0.27215 0.0668 0.0
C254 C 0.20878 0.28562 0.08756 0.0
C255 C 0.21178 0.30194 0.09636 0.0
C256 C 0.19878 0.3025 0.10724 0.0
C257 C 0.18239 0.28623 0.10945 0.0
C258 C 0.17913 0.26966 0.10046 0.0
C259 C 0.19235 0.2695 0.08956 0.0
C260 C 0.20263 0.32042 0.11657 0.0
C261 C 0.16177 0.25208 0.10262 0.0
C262 C 0.07359 0.30054 0.058 0.0
C263 C 0.08126 0.29135 0.06915 0.0
C264 C 0.10417 0.29842 0.09395 0.0
C265 C 0.10264 0.28111 0.09302 0.0
C266 C 0.11475 0.27787 0.10321 0.0
C267 C 0.12893 0.29231 0.11426 0.0
C268 C 0.13052 0.30977 0.11521 0.0
C269 C 0.11793 0.31248 0.10526 0.0
C270 C 0.11248 0.25903 0.10199 0.0
C271 C 0.14567 0.32564 0.12647 0.0
C272 C 0.1044 0.28515 0.23461 0.0
C273 C 0.10275 0.268 0.23087 0.0
C274 C 0.11585 0.26652 0.22104 0.0
C275 C 0.13104 0.28253 0.21533 0.0
C276 C 0.13334 0.29986 0.22035 0.0
C277 C 0.1199 0.3009 0.22986 0.0
C278 C 0.11322 0.24785 0.21623 0.0
C279 C 0.14968 0.31725 0.21511 0.0
C280 C 0.24888 0.26642 0.23289 0.0
C281 C 0.24042 0.27777 0.23866 0.0
C282 C 0.20992 0.27002 0.22879 0.0
C283 C 0.19342 0.25514 0.22261 0.0
C284 C 0.18043 0.25763 0.21332 0.0
C285 C 0.18399 0.27554 0.2104 0.0
C286 C 0.20049 0.29073 0.21708 0.0
C287 C 0.2133 0.28782 0.22628 0.0
C288 C 0.16293 0.24114 0.20652 0.0
C289 C 0.20454 0.30999 0.2145 0.0
C290 C 0.16889 0.28644 0.12172 0.0
C291 C 0.15569 0.28912 0.11343 0.0
C292 C 0.14247 0.28932 0.12416 0.0
C293 C 0.14241 0.28678 0.14378 0.0
C294 C 0.12912 0.28645 0.15497 0.0
C295 C 0.12949 0.28447 0.17433 0.0
C296 C 0.14314 0.28267 0.18326 0.0
C297 C 0.14393 0.28119 0.20301 0.0
C298 C 0.15742 0.27903 0.21139 0.0
C299 C 0.17032 0.27832 0.20056 0.0
C300 C 0.16994 0.28007 0.18081 0.0
C301 C 0.18279 0.27959 0.16949 0.0
C302 C 0.18243 0.28157 0.15013 0.0
C303 C 0.16921 0.28414 0.14133 0.0
C304 C 0.15598 0.28441 0.15241 0.0
C305 C 0.15634 0.28236 0.17217 0.0
C306 C 0.06366 0.26589 0.22563 0.0
C307 C 0.07373 0.27413 0.24478 0.0
O308 O 0.22219 0.28615 0.07757 0.0
O309 O 0.22199 0.26654 0.23733 0.0
O310 O 0.0914 0.28726 0.24244 0.0
O311 O 0.09285 0.30213 0.08405 0.0
H312 H 0.20871 0.26361 0.05938 0.0
H313 H 0.21556 0.25373 0.08989 0.0
H314 H 0.23913 0.26843 0.0871 0.0
H315 H 0.22608 0.24911 0.07067 0.0
H316 H 0.22448 0.31429 0.09473 0.0
H317 H 0.18978 0.25672 0.08291 0.0
H318 H 0.19192 0.32333 0.11247 0.0
H319 H 0.2157 0.33201 0.11273 0.0
H320 H 0.20269 0.31948 0.13214 0.0
H321 H 0.16127 0.2403 0.09474 0.0
H322 H 0.15043 0.25359 0.09744 0.0
H323 H 0.15991 0.24907 0.11778 0.0
H324 H 0.07135 0.27726 0.0731 0.0
H325 H 0.05878 0.29241 0.06002 0.0
H326 H 0.08465 0.30286 0.03132 0.0
H327 H 0.07575 0.31275 0.06698 0.0
H328 H 0.09201 0.27003 0.08442 0.0
H329 H 0.11904 0.32579 0.1059 0.0
H330 H 0.1136 0.25466 0.11629 0.0
H331 H 0.12329 0.25934 0.09364 0.0
H332 H 0.09942 0.24871 0.09512 0.0
H333 H 0.14616 0.33874 0.12404 0.0
H334 H 0.15864 0.32701 0.12275 0.0
H335 H 0.14407 0.32313 0.14174 0.0
H336 H 0.07318 0.26313 0.25334 0.0
H337 H 0.09115 0.25574 0.23523 0.0
H338 H 0.1212 0.31408 0.23317 0.0
H339 H 0.1134 0.24588 0.20071 0.0
H340 H 0.10044 0.2367 0.22125 0.0
H341 H 0.12441 0.2468 0.22272 0.0
H342 H 0.15064 0.32953 0.22234 0.0
H343 H 0.14916 0.31862 0.19964 0.0
H344 H 0.16198 0.31682 0.21874 0.0
H345 H 0.24488 0.28886 0.22856 0.0
H346 H 0.26368 0.27508 0.23337 0.0
H347 H 0.24428 0.26059 0.21824 0.0
H348 H 0.24501 0.25501 0.24244 0.0
H349 H 0.19086 0.24147 0.22485 0.0
H350 H 0.22577 0.29946 0.23168 0.0
H351 H 0.16084 0.24151 0.19108 0.0
H352 H 0.15175 0.24143 0.21351 0.0
H353 H 0.1624 0.22811 0.20948 0.0
H354 H 0.21788 0.32036 0.22073 0.0
H355 H 0.1942 0.31208 0.22115 0.0
H356 H 0.20406 0.31223 0.19922 0.0
H357 H 0.15569 0.29106 0.09839 0.0
H358 H 0.11833 0.28784 0.1489 0.0
H359 H 0.11893 0.28441 0.18222 0.0
H360 H 0.1579 0.2779 0.22656 0.0
H361 H 0.19333 0.27775 0.1755 0.0
H362 H 0.19272 0.28115 0.14216 0.0
H363 H 0.06508 0.27681 0.21637 0.0
H364 H 0.04923 0.25646 0.22772 0.0
H365 H 0.0688 0.2579 0.21823 0.0
C366 C 0.73921 0.93279 0.04367 0.0
C367 C 0.7269 0.93032 0.05981 0.0
C368 C 0.73314 0.92522 0.09201 0.0
C369 C 0.71554 0.91297 0.09675 0.0
C370 C 0.71211 0.90081 0.11114 0.0
C371 C 0.72657 0.90093 0.12092 0.0
C372 C 0.74432 0.91425 0.11715 0.0
C373 C 0.74736 0.92641 0.10285 0.0
C374 C 0.69302 0.88714 0.11516 0.0
C375 C 0.76006 0.91485 0.12737 0.0
C376 C 0.70426 0.76956 0.06715 0.0
C377 C 0.71329 0.78889 0.07456 0.0
C378 C 0.70602 0.80815 0.09447 0.0
C379 C 0.72382 0.82131 0.0997 0.0
C380 C 0.72774 0.83603 0.11237 0.0
C381 C 0.71361 0.83769 0.1198 0.0
C382 C 0.6957 0.8244 0.11464 0.0
C383 C 0.69216 0.80977 0.10206 0.0
C384 C 0.74698 0.84999 0.11761 0.0
C385 C 0.6803 0.82586 0.12211 0.0
C386 C 0.70773 0.80809 0.24158 0.0
C387 C 0.7249 0.82344 0.24039 0.0
C388 C 0.72743 0.83868 0.23067 0.0
C389 C 0.7125 0.83868 0.22221 0.0
C390 C 0.69517 0.82345 0.22381 0.0
C391 C 0.69306 0.8083 0.23335 0.0
C392 C 0.74608 0.85471 0.22925 0.0
C393 C 0.6789 0.82309 0.21528 0.0
C394 C 0.72759 0.97372 0.24631 0.0
C395 C 0.7139 0.95395 0.25022 0.0
C396 C 0.72136 0.93003 0.24424 0.0
C397 C 0.73649 0.92832 0.24297 0.0
C398 C 0.73589 0.91372 0.23244 0.0
C399 C 0.7196 0.90031 0.2233 0.0
C400 C 0.70405 0.90159 0.22513 0.0
C401 C 0.70509 0.91645 0.2356 0.0
C402 C 0.75268 0.9127 0.23093 0.0
C403 C 0.68635 0.88726 0.21601 0.0
C404 C 0.72321 0.88524 0.13231 0.0
C405 C 0.72066 0.86958 0.12239 0.0
C406 C 0.71751 0.85408 0.13167 0.0
C407 C 0.71731 0.85421 0.15157 0.0
C408 C 0.71493 0.8391 0.16141 0.0
C409 C 0.71445 0.83925 0.18099 0.0
C410 C 0.71602 0.85439 0.19146 0.0
C411 C 0.71505 0.85445 0.21134 0.0
C412 C 0.71633 0.86961 0.22125 0.0
C413 C 0.7188 0.88491 0.21188 0.0
C414 C 0.72019 0.88526 0.19204 0.0
C415 C 0.72308 0.90058 0.18217 0.0
C416 C 0.72419 0.90068 0.16261 0.0
C417 C 0.72236 0.88544 0.15219 0.0
C418 C 0.71949 0.86987 0.16185 0.0
C419 C 0.7186 0.86986 0.18181 0.0
C420 C 0.7093 0.77266 0.26955 0.0
C421 C 0.71724 0.79039 0.26027 0.0
O422 O 0.73684 0.93565 0.0768 0.0
O423 O 0.72291 0.94473 0.25421 0.0
O424 O 0.7047 0.79284 0.25036 0.0
O425 O 0.70161 0.79372 0.08222 0.0
H426 H 0.71677 0.91547 0.05928 0.0
H427 H 0.7449 0.92375 0.04537 0.0
H428 H 0.75045 0.94711 0.04359 0.0
H429 H 0.73159 0.92905 0.02987 0.0
H430 H 0.70448 0.91257 0.08893 0.0
H431 H 0.76089 0.9362 0.09932 0.0
H432 H 0.68962 0.87348 0.10913 0.0
H433 H 0.68349 0.89082 0.10889 0.0
H434 H 0.69133 0.88609 0.13062 0.0
H435 H 0.77298 0.92675 0.12367 0.0
H436 H 0.76026 0.90214 0.12372 0.0
H437 H 0.75874 0.91551 0.14285 0.0
H438 H 0.72288 0.7992 0.06504 0.0
H439 H 0.70633 0.77038 0.05152 0.0
H440 H 0.68956 0.76473 0.06554 0.0
H441 H 0.71459 0.75733 0.08513 0.0
H442 H 0.7347 0.82029 0.09383 0.0
H443 H 0.67849 0.79953 0.09796 0.0
H444 H 0.74901 0.85214 0.1332 0.0
H445 H 0.7503 0.86326 0.11178 0.0
H446 H 0.75637 0.84584 0.11213 0.0
H447 H 0.66714 0.81452 0.11652 0.0
H448 H 0.68156 0.83902 0.11827 0.0
H449 H 0.68068 0.82575 0.13775 0.0
H450 H 0.72936 0.79382 0.25224 0.0
H451 H 0.73638 0.82357 0.24685 0.0
H452 H 0.67987 0.79646 0.23442 0.0
H453 H 0.74901 0.85767 0.21421 0.0
H454 H 0.7564 0.85225 0.23577 0.0
H455 H 0.74706 0.86702 0.2364 0.0
H456 H 0.66626 0.81098 0.21924 0.0
H457 H 0.67941 0.82286 0.19967 0.0
H458 H 0.67878 0.83565 0.21991 0.0
H459 H 0.70518 0.94799 0.23716 0.0
H460 H 0.72074 0.98143 0.24293 0.0
H461 H 0.73543 0.97399 0.23405 0.0
H462 H 0.73696 0.9806 0.25874 0.0
H463 H 0.74892 0.93871 0.24995 0.0
H464 H 0.69314 0.91728 0.23722 0.0
H465 H 0.75541 0.91174 0.21585 0.0
H466 H 0.7508 0.90018 0.23747 0.0
H467 H 0.7645 0.92475 0.23799 0.0
H468 H 0.67528 0.88961 0.2197 0.0
H469 H 0.68307 0.87351 0.22041 0.0
H470 H 0.68728 0.88725 0.20043 0.0
H471 H 0.72093 0.86938 0.10709 0.0
H472 H 0.71347 0.82702 0.15405 0.0
H473 H 0.71266 0.82725 0.18781 0.0
H474 H 0.71533 0.86946 0.23646 0.0
H475 H 0.72452 0.91268 0.18947 0.0
H476 H 0.72638 0.91279 0.15572 0.0
H477 H 0.71531 0.76505 0.26253 0.0
H478 H 0.6956 0.76364 0.26264 0.0
H479 H 0.71344 0.7803 0.29865 0.0
C480 C 0.19533 0.9171 0.04486 0.0
C481 C 0.21145 0.93151 0.05711 0.0
C482 C 0.2043 0.91527 0.08652 0.0
C483 C 0.19178 0.91995 0.0927 0.0
C484 C 0.18001 0.91029 0.10678 0.0
C485 C 0.18059 0.89551 0.11469 0.0
C486 C 0.19366 0.89124 0.10907 0.0
C487 C 0.20553 0.90139 0.09523 0.0
C488 C 0.16651 0.9155 0.11275 0.0
C489 C 0.19457 0.87548 0.11708 0.0
C490 C 0.05713 0.80978 0.05791 0.0
C491 C 0.06897 0.80474 0.06956 0.0
C492 C 0.08619 0.82277 0.09775 0.0
C493 C 0.10004 0.81881 0.09819 0.0
C494 C 0.11602 0.83017 0.10877 0.0
C495 C 0.11829 0.84601 0.11869 0.0
C496 C 0.1043 0.85003 0.1181 0.0
C497 C 0.08824 0.83803 0.10803 0.0
C498 C 0.13047 0.82525 0.10931 0.0
C499 C 0.10633 0.8671 0.12783 0.0
C500 C 0.09622 0.83326 0.24016 0.0
C501 C 0.1072 0.82632 0.23484 0.0
C502 C 0.12288 0.83706 0.22532 0.0
C503 C 0.12749 0.85501 0.2209 0.0
C504 C 0.11686 0.86231 0.22708 0.0
C505 C 0.10144 0.85136 0.23689 0.0
C506 C 0.13425 0.82909 0.21954 0.0
C507 C 0.1215 0.88147 0.22284 0.0
C508 C 0.24994 0.97171 0.24784 0.0
C509 C 0.24047 0.95552 0.26051 0.0
C510 C 0.22146 0.92825 0.23968 0.0
C511 C 0.21887 0.91129 0.23337 0.0
C512 C 0.20355 0.89882 0.22244 0.0
C513 C 0.19057 0.90356 0.21756 0.0
C514 C 0.19328 0.92088 0.22345 0.0
C515 C 0.20869 0.93306 0.23446 0.0
C516 C 0.20108 0.88047 0.21634 0.0
C517 C 0.17978 0.92643 0.21829 0.0
C518 C 0.16631 0.88338 0.1272 0.0
C519 C 0.14996 0.87029 0.1185 0.0
C520 C 0.1355 0.85874 0.12907 0.0
C521 C 0.13738 0.86007 0.14899 0.0
C522 C 0.12317 0.84854 0.16009 0.0
C523 C 0.12487 0.85046 0.17967 0.0
C524 C 0.14101 0.86367 0.18896 0.0
C525 C 0.14279 0.86581 0.20888 0.0
C526 C 0.15911 0.87881 0.21767 0.0
C527 C 0.17375 0.89006 0.20709 0.0
C528 C 0.17212 0.88843 0.18713 0.0
C529 C 0.1864 0.89986 0.17603 0.0
C530 C 0.18455 0.89827 0.15639 0.0
C531 C 0.16841 0.88507 0.14712 0.0
C532 C 0.15386 0.87336 0.15804 0.0
C533 C 0.15569 0.8751 0.17806 0.0
C534 C 0.05102 0.80473 0.23435 0.0
C535 C 0.06787 0.80507 0.24185 0.0
O536 O 0.21504 0.92341 0.07196 0.0
O537 O 0.23641 0.93941 0.25066 0.0
O538 O 0.08041 0.82272 0.24819 0.0
O539 O 0.07059 0.81194 0.08779 0.0
H540 H 0.20853 0.94204 0.06276 0.0
H541 H 0.18317 0.9107 0.05322 0.0
H542 H 0.19786 0.90625 0.03936 0.0
H543 H 0.19264 0.9235 0.03277 0.0
H544 H 0.19092 0.93095 0.0865 0.0
H545 H 0.21534 0.89799 0.09053 0.0
H546 H 0.153 0.90486 0.10722 0.0
H547 H 0.16943 0.92883 0.10739 0.0
H548 H 0.16623 0.91622 0.12838 0.0
H549 H 0.20549 0.87389 0.1112 0.0
H550 H 0.18168 0.86261 0.11401 0.0
H551 H 0.19671 0.87755 0.13265 0.0
H552 H 0.08224 0.81109 0.06307 0.0
H553 H 0.05686 0.80625 0.04267 0.0
H554 H 0.0625 0.82474 0.05949 0.0
H555 H 0.04326 0.80263 0.06286 0.0
H556 H 0.09823 0.80672 0.09051 0.0
H557 H 0.07736 0.84084 0.10763 0.0
H558 H 0.13556 0.82624 0.12407 0.0
H559 H 0.14184 0.83505 0.10113 0.0
H560 H 0.12567 0.81124 0.10322 0.0
H561 H 0.09573 0.86993 0.12301 0.0
H562 H 0.11956 0.87913 0.12523 0.0
H563 H 0.10547 0.86546 0.14328 0.0
H564 H 0.07282 0.80051 0.22969 0.0
H565 H 0.10343 0.81246 0.23802 0.0
H566 H 0.09298 0.85665 0.24136 0.0
H567 H 0.1333 0.82695 0.20395 0.0
H568 H 0.13 0.8158 0.22591 0.0
H569 H 0.14848 0.83875 0.22377 0.0
H570 H 0.11146 0.88485 0.22799 0.0
H571 H 0.12249 0.88318 0.20739 0.0
H572 H 0.13473 0.89138 0.22962 0.0
H573 H 0.22799 0.95476 0.26527 0.0
H574 H 0.2534 0.98464 0.2558 0.0
H575 H 0.24111 0.97006 0.23547 0.0
H576 H 0.26236 0.97272 0.2426 0.0
H577 H 0.22883 0.90772 0.23732 0.0
H578 H 0.21057 0.94624 0.23887 0.0
H579 H 0.19953 0.87863 0.20071 0.0
H580 H 0.18867 0.86943 0.22212 0.0
H581 H 0.2125 0.87892 0.22113 0.0
H582 H 0.18438 0.94082 0.22286 0.0
H583 H 0.16703 0.91741 0.22503 0.0
H584 H 0.17697 0.92469 0.20279 0.0
H585 H 0.14837 0.86932 0.10321 0.0
H586 H 0.11048 0.83801 0.15374 0.0
H587 H 0.11334 0.8414 0.18743 0.0
H588 H 0.16038 0.88031 0.23296 0.0
H589 H 0.19914 0.91024 0.18242 0.0
H590 H 0.19594 0.9075 0.14855 0.0
H591 H 0.04068 0.79062 0.22947 0.0
H592 H 0.05428 0.81364 0.22219 0.0
H593 H 0.04549 0.80979 0.2454 0.0
C594 C 0.28005 0.0829 0.97106 0.0
C595 C 0.28477 0.07431 0.95454 0.0
C596 C 0.29406 0.09695 0.92996 0.0
C597 C 0.27682 0.09271 0.92374 0.0
C598 C 0.27444 0.10279 0.90987 0.0
C599 C 0.28956 0.11766 0.90238 0.0
C600 C 0.30691 0.12192 0.90854 0.0
C601 C 0.3089 0.11133 0.92209 0.0
C602 C 0.25572 0.09785 0.90358 0.0
C603 C 0.32332 0.13798 0.90123 0.0
C604 C 0.26887 0.19866 0.97114 0.0
C605 C 0.28085 0.20679 0.95446 0.0
C606 C 0.27306 0.19074 0.92366 0.0
C607 C 0.29024 0.19554 0.9181 0.0
C608 C 0.29272 0.18437 0.90502 0.0
C609 C 0.27771 0.16806 0.89745 0.0
C610 C 0.26031 0.16385 0.90209 0.0
C611 C 0.25821 0.17545 0.91498 0.0
C612 C 0.31144 0.18953 0.90002 0.0
C613 C 0.24401 0.14659 0.89426 0.0
C614 C 0.26325 0.17816 0.77421 0.0
C615 C 0.28101 0.18551 0.78087 0.0
C616 C 0.28623 0.17496 0.7911 0.0
C617 C 0.27331 0.15681 0.79493 0.0
C618 C 0.25556 0.14914 0.78747 0.0
C619 C 0.25081 0.1599 0.77695 0.0
C620 C 0.30542 0.18334 0.79817 0.0
C621 C 0.2415 0.12977 0.79111 0.0
C622 C 0.30625 0.05275 0.75288 0.0
C623 C 0.30053 0.05989 0.76906 0.0
C624 C 0.30172 0.08847 0.77912 0.0
C625 C 0.31317 0.10735 0.78067 0.0
C626 C 0.30878 0.11868 0.79119 0.0
C627 C 0.29209 0.11096 0.79975 0.0
C628 C 0.28021 0.09183 0.79791 0.0
C629 C 0.28536 0.08072 0.78805 0.0
C630 C 0.32198 0.13895 0.79295 0.0
C631 C 0.26194 0.08308 0.80607 0.0
C632 C 0.2871 0.12978 0.8896 0.0
C633 C 0.28389 0.14288 0.89796 0.0
C634 C 0.28044 0.15426 0.88709 0.0
C635 C 0.27986 0.15237 0.86719 0.0
C636 C 0.27581 0.16314 0.8558 0.0
C637 C 0.27499 0.16094 0.83622 0.0
C638 C 0.2787 0.14825 0.82728 0.0
C639 C 0.27814 0.1461 0.80738 0.0
C640 C 0.2822 0.13361 0.79897 0.0
C641 C 0.2869 0.1231 0.80987 0.0
C642 C 0.28719 0.12478 0.82981 0.0
C643 C 0.29158 0.11428 0.84129 0.0
C644 C 0.29126 0.11564 0.86086 0.0
C645 C 0.2873 0.12813 0.86974 0.0
C646 C 0.28343 0.13932 0.85849 0.0
C647 C 0.28308 0.13743 0.83851 0.0
C648 C 0.2443 0.20491 0.77772 0.0
C649 C 0.2616 0.20569 0.77217 0.0
O650 O 0.29711 0.08782 0.94358 0.0
O651 O 0.30676 0.07844 0.76838 0.0
O652 O 0.25773 0.18852 0.76543 0.0
O653 O 0.27049 0.20023 0.93777 0.0
H654 H 0.27243 0.06498 0.94587 0.0
H655 H 0.27391 0.09072 0.96569 0.0
H656 H 0.29222 0.09237 0.97989 0.0
H657 H 0.27029 0.07211 0.97996 0.0
H658 H 0.26512 0.08175 0.92969 0.0
H659 H 0.32213 0.11452 0.92698 0.0
H660 H 0.25298 0.10853 0.9091 0.0
H661 H 0.24547 0.08449 0.90872 0.0
H662 H 0.25439 0.09729 0.88794 0.0
H663 H 0.33587 0.13974 0.9078 0.0
H664 H 0.3229 0.1507 0.90407 0.0
H665 H 0.32356 0.13612 0.88571 0.0
H666 H 0.29073 0.20209 0.95532 0.0
H667 H 0.27683 0.20415 0.98469 0.0
H668 H 0.26284 0.18358 0.97037 0.0
H669 H 0.25786 0.20174 0.97094 0.0
H670 H 0.30171 0.2078 0.92431 0.0
H671 H 0.24499 0.17207 0.91915 0.0
H672 H 0.3121 0.18788 0.88452 0.0
H673 H 0.31519 0.18027 0.90682 0.0
H674 H 0.32137 0.20382 0.90478 0.0
H675 H 0.23139 0.14558 0.89878 0.0
H676 H 0.24451 0.13453 0.89905 0.0
H677 H 0.24388 0.14603 0.87861 0.0
H678 H 0.27028 0.20995 0.78535 0.0
H679 H 0.29074 0.19952 0.77817 0.0
H680 H 0.23719 0.15432 0.77149 0.0
H681 H 0.30627 0.18541 0.81377 0.0
H682 H 0.31421 0.19673 0.79206 0.0
H683 H 0.31051 0.17399 0.79468 0.0
H684 H 0.22816 0.12604 0.78485 0.0
H685 H 0.24042 0.12797 0.80655 0.0
H686 H 0.24547 0.12019 0.78508 0.0
H687 H 0.30261 0.05589 0.78329 0.0
H688 H 0.28199 0.03412 0.73808 0.0
H689 H 0.31541 0.04844 0.75944 0.0
H690 H 0.31734 0.06494 0.74617 0.0
H691 H 0.32574 0.1132 0.7737 0.0
H692 H 0.27633 0.06611 0.78695 0.0
H693 H 0.32323 0.14427 0.80775 0.0
H694 H 0.31712 0.14615 0.78395 0.0
H695 H 0.33543 0.1423 0.78841 0.0
H696 H 0.2531 0.06889 0.80018 0.0
H697 H 0.2554 0.09118 0.80326 0.0
H698 H 0.2633 0.0826 0.82158 0.0
H699 H 0.28399 0.1442 0.91324 0.0
H700 H 0.27302 0.17323 0.86193 0.0
H701 H 0.27154 0.16943 0.82819 0.0
H702 H 0.28188 0.13218 0.78369 0.0
H703 H 0.2951 0.1047 0.83526 0.0
H704 H 0.29438 0.10695 0.86898 0.0
H705 H 0.23438 0.1999 0.7656 0.0
H706 H 0.24707 0.21865 0.78278 0.0
H707 H 0.23835 0.19543 0.78931 0.0
C708 C 0.80228 0.05647 0.98793 0.0
C709 C 0.79501 0.06489 0.97414 0.0
C710 C 0.80502 0.07096 0.94222 0.0
C711 C 0.80284 0.08589 0.93876 0.0
C712 C 0.81301 0.09844 0.92539 0.0
C713 C 0.82586 0.09615 0.91561 0.0
C714 C 0.82772 0.08079 0.9188 0.0
C715 C 0.81692 0.06814 0.93179 0.0
C716 C 0.8103 0.11436 0.9221 0.0
C717 C 0.84153 0.07804 0.90905 0.0
C718 C 0.94103 0.22801 0.96128 0.0
C719 C 0.93074 0.20899 0.95283 0.0
C720 C 0.90267 0.18896 0.93469 0.0
C721 C 0.9068 0.17533 0.92987 0.0
C722 C 0.89474 0.15972 0.91867 0.0
C723 C 0.87832 0.15775 0.91205 0.0
C724 C 0.87433 0.17163 0.91656 0.0
C725 C 0.88655 0.18701 0.92787 0.0
C726 C 0.89939 0.14518 0.91413 0.0
C727 C 0.857 0.17004 0.90966 0.0
C728 C 0.90078 0.17021 0.78683 0.0
C729 C 0.9019 0.15506 0.79234 0.0
C730 C 0.88913 0.14223 0.80393 0.0
C731 C 0.87481 0.14442 0.80978 0.0
C732 C 0.87339 0.15938 0.8038 0.0
C733 C 0.88647 0.17212 0.79247 0.0
C734 C 0.89094 0.12633 0.80996 0.0
C735 C 0.85809 0.16191 0.80943 0.0
C736 C 0.75265 0.01315 0.78662 0.0
C737 C 0.76145 0.03266 0.78002 0.0
C738 C 0.79222 0.05488 0.79127 0.0
C739 C 0.80795 0.0554 0.79715 0.0
C740 C 0.82137 0.07036 0.80802 0.0
C741 C 0.81908 0.08531 0.81288 0.0
C742 C 0.80331 0.08504 0.8067 0.0
C743 C 0.79005 0.06985 0.79588 0.0
C744 C 0.83808 0.07027 0.81419 0.0
C745 C 0.80065 0.10096 0.81131 0.0
C746 C 0.83829 0.11055 0.90325 0.0
C747 C 0.85213 0.12666 0.91204 0.0
C748 C 0.86476 0.14068 0.90154 0.0
C749 C 0.86397 0.13839 0.88164 0.0
C750 C 0.87689 0.15185 0.87066 0.0
C751 C 0.87609 0.14936 0.85109 0.0
C752 C 0.86214 0.1335 0.84175 0.0
C753 C 0.86114 0.13089 0.82187 0.0
C754 C 0.84694 0.11514 0.81302 0.0
C755 C 0.83363 0.10168 0.82345 0.0
C756 C 0.83451 0.10387 0.84337 0.0
C757 C 0.82148 0.09051 0.85435 0.0
C758 C 0.82259 0.09271 0.87396 0.0
C759 C 0.8368 0.10835 0.88333 0.0
C760 C 0.84987 0.1222 0.87252 0.0
C761 C 0.84883 0.11987 0.85253 0.0
C762 C 0.94271 0.19188 0.78766 0.0
C763 C 0.92932 0.18575 0.77067 0.0
O764 O 0.79609 0.05935 0.95587 0.0
O765 O 0.77982 0.04 0.78071 0.0
O766 O 0.91309 0.18338 0.77622 0.0
O767 O 0.91374 0.20406 0.94588 0.0
H768 H 0.80366 0.08001 0.97634 0.0
H769 H 0.81644 0.06109 0.98508 0.0
H770 H 0.79445 0.04131 0.98637 0.0
H771 H 0.8017 0.06084 0.0027 0.0
H772 H 0.79327 0.08776 0.94661 0.0
H773 H 0.81835 0.05644 0.93454 0.0
H774 H 0.8215 0.1269 0.92921 0.0
H775 H 0.7976 0.11222 0.92781 0.0
H776 H 0.81026 0.11669 0.90679 0.0
H777 H 0.84289 0.06683 0.915 0.0
H778 H 0.85476 0.09079 0.91028 0.0
H779 H 0.83767 0.07462 0.89382 0.0
H780 H 0.93104 0.19837 0.96142 0.0
H781 H 0.931 0.23244 0.96408 0.0
H782 H 0.96215 0.24151 0.94289 0.0
H783 H 0.94336 0.22645 0.97661 0.0
H784 H 0.91927 0.17667 0.93498 0.0
H785 H 0.88351 0.1976 0.93155 0.0
H786 H 0.88938 0.13213 0.92002 0.0
H787 H 0.91288 0.14891 0.91992 0.0
H788 H 0.89889 0.14278 0.8986 0.0
H789 H 0.85634 0.18248 0.91345 0.0
H790 H 0.84564 0.15815 0.91589 0.0
H791 H 0.85534 0.1676 0.89409 0.0
H792 H 0.92729 0.17273 0.76408 0.0
H793 H 0.91268 0.15316 0.78774 0.0
H794 H 0.88564 0.18377 0.788 0.0
H795 H 0.89076 0.1258 0.82557 0.0
H796 H 0.90343 0.12718 0.80522 0.0
H797 H 0.87938 0.11338 0.80399 0.0
H798 H 0.85845 0.17378 0.80285 0.0
H799 H 0.85857 0.16399 0.825 0.0
H800 H 0.84517 0.14942 0.80526 0.0
H801 H 0.75755 0.04036 0.78988 0.0
H802 H 0.7379 0.00694 0.78646 0.0
H803 H 0.7575 0.01328 0.80129 0.0
H804 H 0.75599 0.00458 0.77737 0.0
H805 H 0.80961 0.04391 0.79327 0.0
H806 H 0.77828 0.06995 0.7907 0.0
H807 H 0.84032 0.07272 0.82974 0.0
H808 H 0.84978 0.08152 0.80764 0.0
H809 H 0.83738 0.05716 0.81017 0.0
H810 H 0.78752 0.09855 0.80576 0.0
H811 H 0.81141 0.11346 0.80522 0.0
H812 H 0.8016 0.10357 0.82684 0.0
H813 H 0.85305 0.12836 0.92732 0.0
H814 H 0.88786 0.16436 0.87709 0.0
H815 H 0.88652 0.16009 0.84337 0.0
H816 H 0.84625 0.11331 0.79775 0.0
H817 H 0.8103 0.07816 0.8479 0.0
H818 H 0.81218 0.082 0.8817 0.0
H819 H 0.95584 0.19429 0.78303 0.0
H820 H 0.938 0.18131 0.79827 0.0
H821 H 0.94458 0.2047 0.79459 0.0
C822 C 0.79932 0.71478 0.96769 0.0
C823 C 0.78518 0.71271 0.95283 0.0
C824 C 0.79773 0.70603 0.92509 0.0
C825 C 0.81136 0.72406 0.9225 0.0
C826 C 0.82526 0.72768 0.91048 0.0
C827 C 0.82562 0.713 0.90093 0.0
C828 C 0.81169 0.69488 0.90309 0.0
C829 C 0.79779 0.69166 0.91499 0.0
C830 C 0.83979 0.74721 0.9083 0.0
C831 C 0.81173 0.67892 0.89317 0.0
C832 C 0.95658 0.74887 0.9352 0.0
C833 C 0.93982 0.73594 0.94549 0.0
C834 C 0.91445 0.7237 0.92216 0.0
C835 C 0.90182 0.70792 0.91186 0.0
C836 C 0.88804 0.70766 0.90089 0.0
C837 C 0.88691 0.72367 0.90021 0.0
C838 C 0.89983 0.73984 0.91027 0.0
C839 C 0.91354 0.73975 0.92108 0.0
C840 C 0.87455 0.69021 0.8902 0.0
C841 C 0.89904 0.75717 0.90968 0.0
C842 C 0.92271 0.75499 0.78282 0.0
C843 C 0.91214 0.73646 0.78652 0.0
C844 C 0.8958 0.72998 0.79522 0.0
C845 C 0.8902 0.74242 0.80075 0.0
C846 C 0.90055 0.761 0.79638 0.0
C847 C 0.91658 0.76698 0.78717 0.0
C848 C 0.88471 0.70992 0.79879 0.0
C849 C 0.89492 0.77461 0.80187 0.0
C850 C 0.75692 0.68344 0.78107 0.0
C851 C 0.7638 0.70038 0.76926 0.0
C852 C 0.79516 0.71096 0.77595 0.0
C853 C 0.80189 0.69919 0.77742 0.0
C854 C 0.81692 0.70391 0.78918 0.0
C855 C 0.82575 0.72115 0.79915 0.0
C856 C 0.81911 0.73326 0.79741 0.0
C857 C 0.80367 0.7279 0.78594 0.0
C858 C 0.82348 0.69056 0.79078 0.0
C859 C 0.82847 0.75191 0.80742 0.0
C860 C 0.8411 0.7167 0.88951 0.0
C861 C 0.85624 0.71845 0.89894 0.0
C862 C 0.87182 0.72323 0.88946 0.0
C863 C 0.87257 0.72688 0.87011 0.0
C864 C 0.88836 0.73279 0.8604 0.0
C865 C 0.88892 0.73625 0.84133 0.0
C866 C 0.87356 0.73336 0.83108 0.0
C867 C 0.87379 0.73614 0.81151 0.0
C868 C 0.85814 0.73262 0.8017 0.0
C869 C 0.84217 0.7265 0.8109 0.0
C870 C 0.8418 0.72423 0.83057 0.0
C871 C 0.82609 0.71861 0.84038 0.0
C872 C 0.82591 0.71648 0.85975 0.0
C873 C 0.84123 0.7192 0.86991 0.0
C874 C 0.85711 0.72454 0.86023 0.0
C875 C 0.85751 0.72746 0.84063 0.0
C876 C 0.96961 0.7744 0.78499 0.0
C877 C 0.95149 0.75701 0.78099 0.0
O878 O 0.78457 0.7019 0.93741 0.0
O879 O 0.78105 0.7062 0.76391 0.0
O880 O 0.939 0.7617 0.77541 0.0
O881 O 0.92714 0.72272 0.93283 0.0
H882 H 0.78848 0.72641 0.94817 0.0
H883 H 0.81281 0.72167 0.96187 0.0
H884 H 0.79629 0.70116 0.97232 0.0
H885 H 0.7997 0.72322 0.98019 0.0
H886 H 0.81138 0.7354 0.9299 0.0
H887 H 0.78717 0.67781 0.91695 0.0
H888 H 0.85264 0.74931 0.91436 0.0
H889 H 0.83686 0.75717 0.91547 0.0
H890 H 0.84156 0.7501 0.8931 0.0
H891 H 0.79998 0.66562 0.89643 0.0
H892 H 0.8241 0.67885 0.89739 0.0
H893 H 0.81173 0.68034 0.87767 0.0
H894 H 0.93436 0.74396 0.95231 0.0
H895 H 0.9668 0.75945 0.94532 0.0
H896 H 0.95327 0.75587 0.92425 0.0
H897 H 0.96231 0.7412 0.92821 0.0
H898 H 0.9027 0.69566 0.91263 0.0
H899 H 0.9234 0.75224 0.92859 0.0
H900 H 0.87438 0.69267 0.87494 0.0
H901 H 0.86099 0.68573 0.8952 0.0
H902 H 0.87748 0.67901 0.89192 0.0
H903 H 0.91041 0.7688 0.9178 0.0
H904 H 0.88637 0.75488 0.91557 0.0
H905 H 0.89911 0.76092 0.89482 0.0
H906 H 0.94789 0.75013 0.79465 0.0
H907 H 0.91665 0.72708 0.78262 0.0
H908 H 0.92477 0.78122 0.78402 0.0
H909 H 0.88542 0.70795 0.8141 0.0
H910 H 0.88945 0.7017 0.79103 0.0
H911 H 0.87048 0.70464 0.79453 0.0
H912 H 0.90502 0.78876 0.79852 0.0
H913 H 0.89266 0.7743 0.81722 0.0
H914 H 0.8821 0.77083 0.79426 0.0
H915 H 0.76376 0.71158 0.77783 0.0
H916 H 0.74288 0.67843 0.7848 0.0
H917 H 0.7651 0.68686 0.79444 0.0
H918 H 0.75757 0.67233 0.7731 0.0
H919 H 0.7952 0.68621 0.76939 0.0
H920 H 0.79845 0.73701 0.78437 0.0
H921 H 0.82562 0.68873 0.80585 0.0
H922 H 0.8365 0.69605 0.78402 0.0
H923 H 0.81397 0.67699 0.78385 0.0
H924 H 0.82238 0.7602 0.80351 0.0
H925 H 0.84279 0.75938 0.80401 0.0
H926 H 0.82788 0.75046 0.82291 0.0
H927 H 0.85591 0.7161 0.91391 0.0
H928 H 0.9005 0.73496 0.8675 0.0
H929 H 0.90151 0.74099 0.83467 0.0
H930 H 0.85831 0.73431 0.7866 0.0
H931 H 0.8138 0.71597 0.83323 0.0
H932 H 0.81351 0.71236 0.86662 0.0
H933 H 0.97991 0.7709 0.78909 0.0
H934 H 0.96861 0.78268 0.79682 0.0
H935 H 0.97393 0.78286 0.77245 0.0
C936 C 0.87651 0.60577 0.36029 0.0
C937 C 0.884 0.62054 0.37632 0.0
C938 C 0.87 0.615 0.40648 0.0
C939 C 0.87299 0.6325 0.41126 0.0
C940 C 0.86215 0.63494 0.424 0.0
C941 C 0.84792 0.61951 0.43192 0.0
C942 C 0.84517 0.60186 0.42742 0.0
C943 C 0.85652 0.59991 0.41501 0.0
C944 C 0.86574 0.65398 0.42879 0.0
C945 C 0.82999 0.58504 0.43534 0.0
C946 C 0.73531 0.63503 0.38709 0.0
C947 C 0.74443 0.62652 0.39688 0.0
C948 C 0.77173 0.6353 0.41599 0.0
C949 C 0.76759 0.61736 0.41931 0.0
C950 C 0.7798 0.61406 0.42924 0.0
C951 C 0.7964 0.62896 0.43609 0.0
C952 C 0.80047 0.64702 0.43303 0.0
C953 C 0.78806 0.64993 0.42302 0.0
C954 C 0.775 0.59464 0.43239 0.0
C955 C 0.818 0.66323 0.44025 0.0
C956 C 0.76969 0.62099 0.55635 0.0
C957 C 0.76927 0.60445 0.55233 0.0
C958 C 0.78309 0.6042 0.54269 0.0
C959 C 0.79785 0.62085 0.53749 0.0
C960 C 0.7989 0.63759 0.54273 0.0
C961 C 0.7847 0.6374 0.55196 0.0
C962 C 0.78172 0.58612 0.53767 0.0
C963 C 0.81475 0.65563 0.53806 0.0
C964 C 0.91519 0.60419 0.56054 0.0
C965 C 0.90654 0.61582 0.56397 0.0
C966 C 0.87646 0.60841 0.55301 0.0
C967 C 0.85997 0.59375 0.54646 0.0
C968 C 0.84737 0.59659 0.5368 0.0
C969 C 0.85132 0.61463 0.5339 0.0
C970 C 0.86783 0.62959 0.5409 0.0
C971 C 0.88025 0.62634 0.55043 0.0
C972 C 0.82988 0.58032 0.5296 0.0
C973 C 0.87231 0.64899 0.53826 0.0
C974 C 0.83548 0.62171 0.44427 0.0
C975 C 0.82222 0.62413 0.43563 0.0
C976 C 0.80966 0.62572 0.44624 0.0
C977 C 0.81005 0.6245 0.46606 0.0
C978 C 0.79725 0.62538 0.4771 0.0
C979 C 0.79763 0.62398 0.49655 0.0
C980 C 0.81105 0.62201 0.50579 0.0
C981 C 0.81159 0.62067 0.52559 0.0
C982 C 0.82505 0.61865 0.5343 0.0
C983 C 0.83802 0.61777 0.52376 0.0
C984 C 0.83772 0.6191 0.50394 0.0
C985 C 0.85056 0.61826 0.49289 0.0
C986 C 0.84997 0.61929 0.47337 0.0
C987 C 0.83646 0.62109 0.46414 0.0
C988 C 0.82357 0.62229 0.47503 0.0
C989 C 0.82416 0.62121 0.49494 0.0
C990 C 0.72835 0.59873 0.54843 0.0
C991 C 0.73892 0.60759 0.5672 0.0
O992 O 0.87971 0.61226 0.39344 0.0
O993 O 0.88816 0.6046 0.56185 0.0
O994 O 0.75594 0.62185 0.56409 0.0
O995 O 0.76052 0.63913 0.40606 0.0
H996 H 0.87741 0.62877 0.37425 0.0
H997 H 0.86173 0.59757 0.36075 0.0
H998 H 0.88189 0.59642 0.3616 0.0
H999 H 0.87996 0.6121 0.3464 0.0
H1000 H 0.88379 0.64424 0.405 0.0
H1001 H 0.85446 0.58647 0.41131 0.0
H1002 H 0.8549 0.65562 0.42232 0.0
H1003 H 0.87869 0.66464 0.42354 0.0
H1004 H 0.86582 0.65622 0.44431 0.0
H1005 H 0.82852 0.57224 0.42885 0.0
H1006 H 0.81723 0.5849 0.43303 0.0
H1007 H 0.8324 0.58522 0.45079 0.0
H1008 H 0.74522 0.61576 0.38825 0.0
H1009 H 0.73512 0.63138 0.37165 0.0
H1010 H 0.74562 0.64989 0.38591 0.0
H1011 H 0.71176 0.62629 0.40191 0.0
H1012 H 0.75489 0.60589 0.41419 0.0
H1013 H 0.79112 0.66371 0.4205 0.0
H1014 H 0.78504 0.59191 0.42602 0.0
H1015 H 0.76155 0.58452 0.42621 0.0
H1016 H 0.77533 0.59269 0.44776 0.0
H1017 H 0.81902 0.67643 0.43699 0.0
H1018 H 0.82922 0.66258 0.43383 0.0
H1019 H 0.81955 0.66283 0.45577 0.0
H1020 H 0.7399 0.59715 0.5754 0.0
H1021 H 0.75808 0.59168 0.55633 0.0
H1022 H 0.78507 0.65011 0.55544 0.0
H1023 H 0.78319 0.58484 0.52229 0.0
H1024 H 0.76881 0.57433 0.54157 0.0
H1025 H 0.79274 0.58546 0.54515 0.0
H1026 H 0.81472 0.66737 0.54541 0.0
H1027 H 0.8145 0.65726 0.52262 0.0
H1028 H 0.82739 0.656 0.542 0.0
H1029 H 0.91149 0.62623 0.55307 0.0
H1030 H 0.92999 0.61284 0.56172 0.0
H1031 H 0.91128 0.59756 0.54612 0.0
H1032 H 0.91078 0.59337 0.57093 0.0
H1033 H 0.8571 0.57998 0.54871 0.0
H1034 H 0.89276 0.63781 0.556 0.0
H1035 H 0.82814 0.58086 0.51413 0.0
H1036 H 0.81865 0.58073 0.53631 0.0
H1037 H 0.82905 0.56715 0.53257 0.0
H1038 H 0.88566 0.65916 0.54463 0.0
H1039 H 0.86206 0.65133 0.54474 0.0
H1040 H 0.87204 0.65127 0.52296 0.0
H1041 H 0.82165 0.62478 0.4204 0.0
H1042 H 0.78667 0.62698 0.4708 0.0
H1043 H 0.78727 0.62452 0.50425 0.0
H1044 H 0.82528 0.61749 0.54948 0.0
H1045 H 0.8612 0.61677 0.4992 0.0
H1046 H 0.86021 0.6186 0.46559 0.0
H1047 H 0.72803 0.60913 0.53957 0.0
H1048 H 0.71442 0.58809 0.55113 0.0
H1049 H 0.7344 0.59203 0.54027 0.0
C1050 C 0.37818 0.25353 0.36827 0.0
C1051 C 0.36949 0.25481 0.38633 0.0
C1052 C 0.3798 0.25048 0.41708 0.0
C1053 C 0.36306 0.23926 0.42459 0.0
C1054 C 0.36136 0.22827 0.43967 0.0
C1055 C 0.37672 0.22869 0.44747 0.0
C1056 C 0.39373 0.24094 0.44078 0.0
C1057 C 0.39505 0.25182 0.42574 0.0
C1058 C 0.34309 0.21573 0.44685 0.0
C1059 C 0.41042 0.24191 0.44894 0.0
C1060 C 0.3509 0.08991 0.41609 0.0
C1061 C 0.35976 0.11014 0.41856 0.0
C1062 C 0.35505 0.13243 0.43666 0.0
C1063 C 0.37288 0.14681 0.43685 0.0
C1064 C 0.37805 0.16372 0.44618 0.0
C1065 C 0.3651 0.16634 0.45525 0.0
C1066 C 0.34712 0.15194 0.45487 0.0
C1067 C 0.34239 0.13513 0.4457 0.0
C1068 C 0.39734 0.1788 0.44632 0.0
C1069 C 0.33284 0.15434 0.464 0.0
C1070 C 0.38265 0.1584 0.57827 0.0
C1071 C 0.39831 0.17443 0.57382 0.0
C1072 C 0.39746 0.18746 0.56286 0.0
C1073 C 0.38062 0.18471 0.55665 0.0
C1074 C 0.36482 0.1691 0.56197 0.0
C1075 C 0.36607 0.15608 0.57257 0.0
C1076 C 0.4146 0.20404 0.55761 0.0
C1077 C 0.34663 0.16596 0.55607 0.0
C1078 C 0.39205 0.31947 0.56864 0.0
C1079 C 0.38044 0.2999 0.5747 0.0
C1080 C 0.38826 0.27629 0.56795 0.0
C1081 C 0.40313 0.27466 0.56421 0.0
C1082 C 0.40124 0.25884 0.55505 0.0
C1083 C 0.38395 0.24413 0.54986 0.0
C1084 C 0.36878 0.24548 0.55406 0.0
C1085 C 0.37107 0.26155 0.5631 0.0
C1086 C 0.41772 0.25787 0.5509 0.0
C1087 C 0.35014 0.2299 0.54905 0.0
C1088 C 0.37481 0.21483 0.46087 0.0
C1089 C 0.37134 0.19796 0.45311 0.0
C1090 C 0.37012 0.18433 0.46453 0.0
C1091 C 0.37284 0.18771 0.48431 0.0
C1092 C 0.37275 0.17471 0.49613 0.0
C1093 C 0.37522 0.17806 0.5156 0.0
C1094 C 0.37748 0.19437 0.52403 0.0
C1095 C 0.37965 0.19772 0.54385 0.0
C1096 C 0.38155 0.21394 0.55176 0.0
C1097 C 0.38175 0.2272 0.54039 0.0
C1098 C 0.3801 0.2243 0.52051 0.0
C1099 C 0.38084 0.23758 0.50858 0.0
C1100 C 0.37924 0.23459 0.48903 0.0
C1101 C 0.37661 0.21812 0.48068 0.0
C1102 C 0.37574 0.20452 0.49243 0.0
C1103 C 0.37774 0.20772 0.51234 0.0
C1104 C 0.40565 0.13933 0.57589 0.0
C1105 C 0.39759 0.14344 0.59312 0.0
O1106 O 0.38177 0.26004 0.40145 0.0
O1107 O 0.39106 0.29209 0.57659 0.0
O1108 O 0.38284 0.14476 0.58767 0.0
O1109 O 0.34945 0.11576 0.42809 0.0
H1110 H 0.35786 0.24088 0.38787 0.0
H1111 H 0.38184 0.24279 0.3694 0.0
H1112 H 0.39052 0.26667 0.36592 0.0
H1113 H 0.36872 0.24981 0.35588 0.0
H1114 H 0.35129 0.2389 0.41859 0.0
H1115 H 0.40795 0.26084 0.42011 0.0
H1116 H 0.33911 0.20134 0.44308 0.0
H1117 H 0.33279 0.21845 0.44079 0.0
H1118 H 0.34343 0.21728 0.46247 0.0
H1119 H 0.42272 0.25278 0.44281 0.0
H1120 H 0.40968 0.22859 0.44623 0.0
H1121 H 0.41142 0.24455 0.46447 0.0
H1122 H 0.36559 0.11786 0.40571 0.0
H1123 H 0.34861 0.08695 0.40037 0.0
H1124 H 0.33632 0.08424 0.41875 0.0
H1125 H 0.36746 0.08345 0.43248 0.0
H1126 H 0.3828 0.14494 0.42976 0.0
H1127 H 0.32868 0.12397 0.44544 0.0
H1128 H 0.40228 0.18436 0.46099 0.0
H1129 H 0.39842 0.19013 0.43799 0.0
H1130 H 0.40609 0.17407 0.44026 0.0
H1131 H 0.31927 0.1423 0.46112 0.0
H1132 H 0.33302 0.16663 0.45881 0.0
H1133 H 0.33558 0.15648 0.4795 0.0
H1134 H 0.40786 0.15651 0.60042 0.0
H1135 H 0.41126 0.1768 0.57856 0.0
H1136 H 0.35405 0.14382 0.57626 0.0
H1137 H 0.41472 0.20527 0.54208 0.0
H1138 H 0.42662 0.20353 0.56235 0.0
H1139 H 0.41544 0.21651 0.56417 0.0
H1140 H 0.33575 0.15443 0.56328 0.0
H1141 H 0.34431 0.16288 0.5406 0.0
H1142 H 0.34596 0.1785 0.55921 0.0
H1143 H 0.36987 0.29256 0.56331 0.0
H1144 H 0.38387 0.32605 0.56673 0.0
H1145 H 0.39802 0.31937 0.55499 0.0
H1146 H 0.40303 0.32769 0.57936 0.0
H1147 H 0.41632 0.28601 0.56826 0.0
H1148 H 0.35944 0.26241 0.56662 0.0
H1149 H 0.41753 0.25421 0.53569 0.0
H1150 H 0.41779 0.24698 0.55907 0.0
H1151 H 0.43023 0.27096 0.5546 0.0
H1152 H 0.33969 0.23285 0.55377 0.0
H1153 H 0.34811 0.21733 0.55561 0.0
H1154 H 0.34843 0.22708 0.53353 0.0
H1155 H 0.3695 0.19536 0.43791 0.0
H1156 H 0.3709 0.16185 0.49045 0.0
H1157 H 0.37516 0.16759 0.52395 0.0
H1158 H 0.38309 0.21636 0.56698 0.0
H1159 H 0.38274 0.25046 0.51424 0.0
H1160 H 0.37994 0.24527 0.48051 0.0
H1161 H 0.39544 0.12672 0.56789 0.0
H1162 H 0.41696 0.13751 0.58048 0.0
H1163 H 0.41086 0.15069 0.56617 0.0
C1164 C 0.87001 0.25691 0.37683 0.0
C1165 C 0.88352 0.26593 0.39365 0.0
C1166 C 0.86843 0.24268 0.41711 0.0
C1167 C 0.85473 0.24646 0.42078 0.0
C1168 C 0.84059 0.23513 0.43202 0.0
C1169 C 0.84019 0.2198 0.43977 0.0
C1170 C 0.85412 0.21616 0.43639 0.0
C1171 C 0.86812 0.22775 0.42518 0.0
C1172 C 0.82599 0.23944 0.43553 0.0
C1173 C 0.8541 0.19992 0.44444 0.0
C1174 C 0.74767 0.1262 0.36687 0.0
C1175 C 0.74864 0.11821 0.38563 0.0
C1176 C 0.75533 0.13807 0.41386 0.0
C1177 C 0.7686 0.13566 0.42265 0.0
C1178 C 0.78125 0.14899 0.43564 0.0
C1179 C 0.78048 0.16495 0.44003 0.0
C1180 C 0.76642 0.16683 0.43213 0.0
C1181 C 0.75388 0.15323 0.41923 0.0
C1182 C 0.7958 0.14632 0.4442 0.0
C1183 C 0.76506 0.18353 0.43676 0.0
C1184 C 0.75251 0.15043 0.56231 0.0
C1185 C 0.76592 0.14654 0.5577 0.0
C1186 C 0.78066 0.15885 0.54775 0.0
C1187 C 0.782 0.17539 0.54239 0.0
C1188 C 0.76887 0.17967 0.54773 0.0
C1189 C 0.75434 0.16716 0.5578 0.0
C1190 C 0.79472 0.15414 0.54279 0.0
C1191 C 0.77007 0.19732 0.54248 0.0
C1192 C 0.90161 0.29973 0.57065 0.0
C1193 C 0.89089 0.28379 0.58327 0.0
C1194 C 0.87316 0.25539 0.56365 0.0
C1195 C 0.87102 0.2382 0.55944 0.0
C1196 C 0.85611 0.22476 0.54869 0.0
C1197 C 0.843 0.22869 0.54198 0.0
C1198 C 0.84517 0.24615 0.54589 0.0
C1199 C 0.8603 0.25939 0.55655 0.0
C1200 C 0.85431 0.20636 0.54454 0.0
C1201 C 0.8315 0.2508 0.53875 0.0
C1202 C 0.82502 0.20734 0.45112 0.0
C1203 C 0.81003 0.19293 0.44157 0.0
C1204 C 0.79538 0.18036 0.45131 0.0
C1205 C 0.79551 0.1823 0.47119 0.0
C1206 C 0.78092 0.17007 0.48144 0.0
C1207 C 0.78129 0.17203 0.50103 0.0
C1208 C 0.79636 0.18618 0.51112 0.0
C1209 C 0.79703 0.18811 0.53105 0.0
C1210 C 0.8123 0.20216 0.54062 0.0
C1211 C 0.82703 0.2145 0.53083 0.0
C1212 C 0.82656 0.21296 0.51091 0.0
C1213 C 0.84111 0.22526 0.50064 0.0
C1214 C 0.84057 0.22356 0.48104 0.0
C1215 C 0.82555 0.20938 0.47099 0.0
C1216 C 0.81072 0.19683 0.48106 0.0
C1217 C 0.81119 0.19869 0.50104 0.0
C1218 C 0.71056 0.11563 0.55569 0.0
C1219 C 0.72774 0.11981 0.56659 0.0
O1220 O 0.88209 0.25285 0.40583 0.0
O1221 O 0.88779 0.26758 0.57446 0.0
O1222 O 0.73776 0.13839 0.5712 0.0
O1223 O 0.74392 0.12616 0.40004 0.0
H1224 H 0.88109 0.27604 0.40134 0.0
H1225 H 0.85612 0.24999 0.38162 0.0
H1226 H 0.87216 0.2466 0.36918 0.0
H1227 H 0.8714 0.26736 0.3669 0.0
H1228 H 0.85491 0.25813 0.41489 0.0
H1229 H 0.87879 0.22501 0.42237 0.0
H1230 H 0.81302 0.228 0.42966 0.0
H1231 H 0.82854 0.25222 0.42905 0.0
H1232 H 0.82473 0.2408 0.45095 0.0
H1233 H 0.86586 0.1989 0.44036 0.0
H1234 H 0.84175 0.18717 0.43946 0.0
H1235 H 0.85408 0.20091 0.46008 0.0
H1236 H 0.76283 0.12176 0.38753 0.0
H1237 H 0.74992 0.11891 0.35493 0.0
H1238 H 0.75822 0.14084 0.36708 0.0
H1239 H 0.73458 0.12536 0.36452 0.0
H1240 H 0.76923 0.12349 0.41921 0.0
H1241 H 0.74335 0.15476 0.41267 0.0
H1242 H 0.79639 0.14827 0.4598 0.0
H1243 H 0.80891 0.15674 0.43911 0.0
H1244 H 0.79374 0.13255 0.44052 0.0
H1245 H 0.75271 0.18243 0.4304 0.0
H1246 H 0.77681 0.19576 0.43148 0.0
H1247 H 0.76524 0.18568 0.4523 0.0
H1248 H 0.73498 0.11538 0.55704 0.0
H1249 H 0.76493 0.13394 0.56196 0.0
H1250 H 0.74406 0.17015 0.56175 0.0
H1251 H 0.79513 0.1529 0.52721 0.0
H1252 H 0.79216 0.14113 0.54874 0.0
H1253 H 0.80808 0.16527 0.54815 0.0
H1254 H 0.75864 0.19852 0.54748 0.0
H1255 H 0.77042 0.19826 0.52691 0.0
H1256 H 0.78267 0.20906 0.54867 0.0
H1257 H 0.87803 0.28317 0.58598 0.0
H1258 H 0.9045 0.3128 0.57788 0.0
H1259 H 0.89382 0.29781 0.55729 0.0
H1260 H 0.91441 0.30061 0.56709 0.0
H1261 H 0.88108 0.23528 0.56478 0.0
H1262 H 0.86198 0.2728 0.55912 0.0
H1263 H 0.85287 0.20329 0.52906 0.0
H1264 H 0.84206 0.19559 0.55082 0.0
H1265 H 0.86598 0.20567 0.55022 0.0
H1266 H 0.83483 0.26481 0.54349 0.0
H1267 H 0.81814 0.24088 0.54376 0.0
H1268 H 0.83057 0.24969 0.52309 0.0
H1269 H 0.80986 0.19132 0.42632 0.0
H1270 H 0.76904 0.15887 0.47441 0.0
H1271 H 0.76966 0.16224 0.50819 0.0
H1272 H 0.81277 0.20343 0.55592 0.0
H1273 H 0.85308 0.23636 0.50762 0.0
H1274 H 0.85214 0.23345 0.47388 0.0
H1275 H 0.70269 0.12011 0.56413 0.0
H1276 H 0.70222 0.10075 0.55205 0.0
H1277 H 0.71393 0.12297 0.54237 0.0
C1278 C 0.01615 0.46455 0.32909 0.0
C1279 C 0.00778 0.45418 0.31019 0.0
C1280 C 0.01165 0.4668 0.27877 0.0
C1281 C 0.99407 0.4551 0.27152 0.0
C1282 C 0.98784 0.45903 0.2549 0.0
C1283 C 0.99948 0.47476 0.24527 0.0
C1284 C 0.01755 0.48565 0.25171 0.0
C1285 C 0.02339 0.48146 0.26838 0.0
C1286 C 0.96861 0.44692 0.24811 0.0
C1287 C 0.03042 0.50238 0.24163 0.0
C1288 C 0.93597 0.54311 0.28525 0.0
C1289 C 0.95401 0.54786 0.27736 0.0
C1290 C 0.95859 0.53249 0.25039 0.0
C1291 C 0.97687 0.53876 0.25294 0.0
C1292 C 0.98447 0.52945 0.24401 0.0
C1293 C 0.97337 0.51317 0.2329 0.0
C1294 C 0.95484 0.5068 0.2305 0.0
C1295 C 0.94783 0.51691 0.23881 0.0
C1296 C 0.00433 0.53702 0.24662 0.0
C1297 C 0.94224 0.48912 0.21954 0.0
C1298 C 0.97605 0.52846 0.11317 0.0
C1299 C 0.99334 0.53382 0.12004 0.0
C1300 C 0.99678 0.52164 0.1296 0.0
C1301 C 0.98252 0.50382 0.13252 0.0
C1302 C 0.9653 0.49801 0.12443 0.0
C1303 C 0.96231 0.51042 0.11465 0.0
C1304 C 0.01542 0.52814 0.13755 0.0
C1305 C 0.94985 0.47909 0.12714 0.0
C1306 C 0.98101 0.37906 0.12946 0.0
C1307 C 0.97996 0.39028 0.1135 0.0
C1308 C 0.99293 0.42221 0.12574 0.0
C1309 C 0.00756 0.43991 0.125 0.0
C1310 C 0.00763 0.45494 0.134 0.0
C1311 C 0.9925 0.45223 0.14377 0.0
C1312 C 0.97772 0.43431 0.14483 0.0
C1313 C 0.97827 0.41949 0.13621 0.0
C1314 C 0.02379 0.47374 0.13287 0.0
C1315 C 0.96112 0.43074 0.15476 0.0
C1316 C 0.99223 0.48175 0.23075 0.0
C1317 C 0.98586 0.49302 0.23725 0.0
C1318 C 0.98087 0.50221 0.2248 0.0
C1319 C 0.98251 0.50032 0.2052 0.0
C1320 C 0.97901 0.51047 0.19233 0.0
C1321 C 0.98004 0.50805 0.17304 0.0
C1322 C 0.98447 0.49525 0.16584 0.0
C1323 C 0.98512 0.4924 0.14621 0.0
C1324 C 0.98828 0.47867 0.13948 0.0
C1325 C 0.99156 0.4681 0.15193 0.0
C1326 C 0.99244 0.47185 0.17166 0.0
C1327 C 0.99724 0.46268 0.18463 0.0
C1328 C 0.99753 0.46613 0.20403 0.0
C1329 C 0.99256 0.4785 0.21114 0.0
C1330 C 0.98779 0.48796 0.19832 0.0
C1331 C 0.9883 0.48506 0.17859 0.0
C1332 C 0.95689 0.54983 0.12765 0.0
C1333 C 0.97404 0.55557 0.11717 0.0
O1334 O 0.01777 0.46479 0.29579 0.0
O1335 O 0.99354 0.40837 0.11612 0.0
O1336 O 0.97222 0.54084 0.10623 0.0
O1337 O 0.95097 0.54131 0.2587 0.0
H1338 H 0.99398 0.45193 0.30926 0.0
H1339 H 0.01616 0.47764 0.32964 0.0
H1340 H 0.03017 0.46763 0.33098 0.0
H1341 H 0.00835 0.45637 0.34092 0.0
H1342 H 0.98506 0.44315 0.27893 0.0
H1343 H 0.03703 0.49016 0.27385 0.0
H1344 H 0.96123 0.45428 0.25052 0.0
H1345 H 0.96193 0.43397 0.25558 0.0
H1346 H 0.96777 0.44366 0.23271 0.0
H1347 H 0.04437 0.50843 0.24742 0.0
H1348 H 0.02638 0.51284 0.24302 0.0
H1349 H 0.03 0.49886 0.22636 0.0
H1350 H 0.9595 0.54082 0.28583 0.0
H1351 H 0.93736 0.54679 0.3006 0.0
H1352 H 0.92652 0.52818 0.28324 0.0
H1353 H 0.9302 0.5504 0.27781 0.0
H1354 H 0.98524 0.55104 0.26167 0.0
H1355 H 0.93373 0.5123 0.23691 0.0
H1356 H 0.01004 0.53589 0.23314 0.0
H1357 H 0.00682 0.52902 0.25707 0.0
H1358 H 0.01148 0.55155 0.25188 0.0
H1359 H 0.92808 0.48408 0.22279 0.0
H1360 H 0.94546 0.47834 0.22264 0.0
H1361 H 0.94356 0.49133 0.2042 0.0
H1362 H 0.98508 0.56003 0.12809 0.0
H1363 H 0.00399 0.54773 0.11843 0.0
H1364 H 0.94903 0.50643 0.1091 0.0
H1365 H 0.01581 0.5304 0.15309 0.0
H1366 H 0.02546 0.54114 0.13155 0.0
H1367 H 0.01919 0.51762 0.13469 0.0
H1368 H 0.93745 0.47643 0.11936 0.0
H1369 H 0.94721 0.47734 0.1424 0.0
H1370 H 0.95329 0.46873 0.12228 0.0
H1371 H 0.96668 0.3892 0.11389 0.0
H1372 H 0.97106 0.36434 0.12668 0.0
H1373 H 0.97803 0.38362 0.14303 0.0
H1374 H 0.99457 0.38086 0.13106 0.0
H1375 H 0.01893 0.44195 0.11715 0.0
H1376 H 0.96705 0.40592 0.13766 0.0
H1377 H 0.0275 0.48108 0.14695 0.0
H1378 H 0.02059 0.48176 0.12313 0.0
H1379 H 0.03548 0.47319 0.12759 0.0
H1380 H 0.94977 0.41667 0.15151 0.0
H1381 H 0.95694 0.4406 0.15068 0.0
H1382 H 0.96398 0.43251 0.17024 0.0
H1383 H 0.98499 0.49484 0.25232 0.0
H1384 H 0.97544 0.52042 0.19704 0.0
H1385 H 0.97703 0.51616 0.16384 0.0
H1386 H 0.98792 0.47602 0.12438 0.0
H1387 H 0.00091 0.45281 0.17988 0.0
H1388 H 0.00131 0.45872 0.21342 0.0
H1389 H 0.95807 0.56163 0.13618 0.0
H1390 H 0.95458 0.53892 0.13736 0.0
H1391 H 0.94516 0.54451 0.11756 0.0
C1392 C 0.43877 0.36964 0.26134 0.0
C1393 C 0.44207 0.3871 0.27207 0.0
C1394 C 0.45912 0.41218 0.25099 0.0
C1395 C 0.45825 0.42522 0.24027 0.0
C1396 C 0.47302 0.43794 0.23069 0.0
C1397 C 0.48904 0.43738 0.23162 0.0
C1398 C 0.49014 0.42434 0.24259 0.0
C1399 C 0.47519 0.41189 0.25224 0.0
C1400 C 0.47141 0.45183 0.21935 0.0
C1401 C 0.50703 0.42339 0.24381 0.0
C1402 C 0.59414 0.57756 0.27248 0.0
C1403 C 0.57806 0.56095 0.26411 0.0
C1404 C 0.56879 0.53104 0.24879 0.0
C1405 C 0.57383 0.51815 0.2444 0.0
C1406 C 0.56177 0.50122 0.23521 0.0
C1407 C 0.54435 0.49734 0.22974 0.0
C1408 C 0.53912 0.5103 0.23419 0.0
C1409 C 0.55126 0.52684 0.24393 0.0
C1410 C 0.56765 0.48751 0.23136 0.0
C1411 C 0.52068 0.50672 0.22867 0.0
C1412 C 0.57327 0.50936 0.10825 0.0
C1413 C 0.5742 0.49381 0.11252 0.0
C1414 C 0.56099 0.48009 0.12299 0.0
C1415 C 0.54631 0.4817 0.12874 0.0
C1416 C 0.54482 0.49682 0.12345 0.0
C1417 C 0.55845 0.51054 0.11344 0.0
C1418 C 0.56283 0.46399 0.12814 0.0
C1419 C 0.52901 0.49865 0.12865 0.0
C1420 C 0.42799 0.34493 0.10566 0.0
C1421 C 0.43603 0.3649 0.10078 0.0
C1422 C 0.46647 0.38882 0.11098 0.0
C1423 C 0.48284 0.39084 0.11699 0.0
C1424 C 0.49571 0.40665 0.12726 0.0
C1425 C 0.49221 0.42095 0.13128 0.0
C1426 C 0.47584 0.41921 0.1248 0.0
C1427 C 0.46312 0.40314 0.11469 0.0
C1428 C 0.51304 0.40807 0.13387 0.0
C1429 C 0.47187 0.43437 0.1285 0.0
C1430 C 0.50435 0.45006 0.22054 0.0
C1431 C 0.51766 0.46637 0.22954 0.0
C1432 C 0.53149 0.47975 0.21947 0.0
C1433 C 0.53212 0.47675 0.19982 0.0
C1434 C 0.54552 0.49004 0.18909 0.0
C1435 C 0.54592 0.48701 0.16976 0.0
C1436 C 0.53271 0.47074 0.16031 0.0
C1437 C 0.53267 0.46777 0.14056 0.0
C1438 C 0.51931 0.45149 0.13161 0.0
C1439 C 0.50589 0.4379 0.14183 0.0
C1440 C 0.50569 0.44059 0.16159 0.0
C1441 C 0.49239 0.42721 0.17232 0.0
C1442 C 0.49204 0.43019 0.19165 0.0
C1443 C 0.50501 0.44665 0.20103 0.0
C1444 C 0.51883 0.46012 0.1906 0.0
C1445 C 0.51911 0.45712 0.17083 0.0
C1446 C 0.61491 0.53078 0.11311 0.0
C1447 C 0.60314 0.52691 0.09507 0.0
O1448 O 0.44408 0.40011 0.25954 0.0
O1449 O 0.45449 0.37301 0.10139 0.0
O1450 O 0.5863 0.52365 0.09938 0.0
O1451 O 0.58117 0.54726 0.25755 0.0
H1452 H 0.45434 0.39248 0.28141 0.0
H1453 H 0.45038 0.37245 0.25285 0.0
H1454 H 0.42675 0.3641 0.25163 0.0
H1455 H 0.43682 0.35911 0.27143 0.0
H1456 H 0.44583 0.42537 0.23942 0.0
H1457 H 0.47614 0.40189 0.26045 0.0
H1458 H 0.48276 0.46576 0.22312 0.0
H1459 H 0.45871 0.45167 0.22165 0.0
H1460 H 0.47197 0.44892 0.2041 0.0
H1461 H 0.50565 0.41217 0.25256 0.0
H1462 H 0.51818 0.43653 0.24998 0.0
H1463 H 0.51069 0.42132 0.22942 0.0
H1464 H 0.57008 0.56401 0.25389 0.0
H1465 H 0.60607 0.5768 0.26774 0.0
H1466 H 0.58834 0.57797 0.30114 0.0
H1467 H 0.59638 0.58881 0.26296 0.0
H1468 H 0.58729 0.52136 0.24833 0.0
H1469 H 0.54688 0.53639 0.24751 0.0
H1470 H 0.56918 0.48632 0.21599 0.0
H1471 H 0.55739 0.47382 0.23577 0.0
H1472 H 0.5806 0.4915 0.23882 0.0
H1473 H 0.51959 0.51917 0.23057 0.0
H1474 H 0.51076 0.49608 0.23755 0.0
H1475 H 0.51709 0.50156 0.21371 0.0
H1476 H 0.60187 0.51487 0.08692 0.0
H1477 H 0.58525 0.49237 0.10796 0.0
H1478 H 0.55771 0.52244 0.10978 0.0
H1479 H 0.56163 0.46222 0.14357 0.0
H1480 H 0.5758 0.46555 0.12406 0.0
H1481 H 0.55187 0.45137 0.12089 0.0
H1482 H 0.52863 0.50979 0.12124 0.0
H1483 H 0.52971 0.50165 0.14408 0.0
H1484 H 0.51635 0.48564 0.12517 0.0
H1485 H 0.43172 0.37142 0.1117 0.0
H1486 H 0.41318 0.33809 0.10562 0.0
H1487 H 0.43299 0.34419 0.11996 0.0
H1488 H 0.43179 0.3375 0.09533 0.0
H1489 H 0.48538 0.3798 0.11384 0.0
H1490 H 0.45074 0.40197 0.10946 0.0
H1491 H 0.51526 0.41126 0.14933 0.0
H1492 H 0.52431 0.41943 0.12692 0.0
H1493 H 0.51324 0.39529 0.13063 0.0
H1494 H 0.45879 0.43119 0.12197 0.0
H1495 H 0.48255 0.44723 0.12289 0.0
H1496 H 0.47177 0.43683 0.14394 0.0
H1497 H 0.51695 0.46892 0.24448 0.0
H1498 H 0.55586 0.50296 0.19549 0.0
H1499 H 0.55664 0.4977 0.16229 0.0
H1500 H 0.51933 0.44938 0.11645 0.0
H1501 H 0.48202 0.41433 0.16585 0.0
H1502 H 0.48142 0.41944 0.19915 0.0
H1503 H 0.62866 0.53442 0.10942 0.0
H1504 H 0.60961 0.51865 0.12177 0.0
H1505 H 0.61561 0.54223 0.12188 0.0
C1506 C 0.39934 0.96315 0.2498 0.0
C1507 C 0.41228 0.97549 0.26598 0.0
C1508 C 0.44013 0.99652 0.25083 0.0
C1509 C 0.45116 0.01463 0.24622 0.0
C1510 C 0.46704 0.02007 0.23693 0.0
C1511 C 0.47198 0.00698 0.23207 0.0
C1512 C 0.46107 0.98866 0.23691 0.0
C1513 C 0.44523 0.98358 0.24621 0.0
C1514 C 0.4784 0.03975 0.232 0.0
C1515 C 0.46597 0.97439 0.23185 0.0
C1516 C 0.61623 0.05593 0.24923 0.0
C1517 C 0.59829 0.04 0.25464 0.0
C1518 C 0.57032 0.04042 0.25009 0.0
C1519 C 0.55931 0.0223 0.24308 0.0
C1520 C 0.54268 0.01677 0.23398 0.0
C1521 C 0.53693 0.02958 0.23202 0.0
C1522 C 0.54765 0.0476 0.23983 0.0
C1523 C 0.56418 0.05274 0.24889 0.0
C1524 C 0.53135 0.99732 0.22619 0.0
C1525 C 0.54183 0.06152 0.23816 0.0
C1526 C 0.56795 0.05343 0.11453 0.0
C1527 C 0.55969 0.03482 0.11817 0.0
C1528 C 0.54286 0.02589 0.12605 0.0
C1529 C 0.53429 0.03588 0.13054 0.0
C1530 C 0.54216 0.05437 0.12585 0.0
C1531 C 0.55886 0.06285 0.11766 0.0
C1532 C 0.53451 0.00597 0.13017 0.0
C1533 C 0.53326 0.06533 0.13017 0.0
C1534 C 0.38678 0.96259 0.10987 0.0
C1535 C 0.40361 0.98057 0.10562 0.0
C1536 C 0.43398 0.98616 0.11191 0.0
C1537 C 0.44315 0.97677 0.11455 0.0
C1538 C 0.46014 0.98535 0.12365 0.0
C1539 C 0.46824 0.00391 0.12995 0.0
C1540 C 0.45942 0.01378 0.12646 0.0
C1541 C 0.44232 0.00479 0.11746 0.0
C1542 C 0.46923 0.97445 0.12698 0.0
C1543 C 0.46793 0.03371 0.1326 0.0
C1544 C 0.48805 0.01233 0.22099 0.0
C1545 C 0.50437 0.01808 0.23071 0.0
C1546 C 0.52012 0.02432 0.22103 0.0
C1547 C 0.51972 0.02536 0.20118 0.0
C1548 C 0.53546 0.03263 0.19112 0.0
C1549 C 0.53492 0.0336 0.17161 0.0
C1550 C 0.51857 0.02691 0.16131 0.0
C1551 C 0.51783 0.02747 0.14141 0.0
C1552 C 0.50131 0.02018 0.13159 0.0
C1553 C 0.48542 0.01256 0.14117 0.0
C1554 C 0.48594 0.01246 0.1611 0.0
C1555 C 0.47023 0.00543 0.1712 0.0
C1556 C 0.47089 0.00553 0.1908 0.0
C1557 C 0.48724 0.01222 0.20106 0.0
C1558 C 0.50318 0.01901 0.19115 0.0
C1559 C 0.50256 0.01948 0.17117 0.0
C1560 C 0.61332 0.07966 0.12455 0.0
C1561 C 0.59896 0.06116 0.11564 0.0
O1562 O 0.42473 0.99224 0.25945 0.0
O1563 O 0.41729 0.97677 0.10367 0.0
O1564 O 0.58483 0.0627 0.10844 0.0
O1565 O 0.58681 0.04654 0.25826 0.0
H1566 H 0.41918 0.96859 0.27192 0.0
H1567 H 0.40662 0.96012 0.23895 0.0
H1568 H 0.39268 0.96984 0.24288 0.0
H1569 H 0.38899 0.94998 0.25522 0.0
H1570 H 0.44716 0.02453 0.24982 0.0
H1571 H 0.4369 0.96946 0.24952 0.0
H1572 H 0.49232 0.04532 0.23767 0.0
H1573 H 0.47322 0.04845 0.23766 0.0
H1574 H 0.47885 0.04057 0.21643 0.0
H1575 H 0.45631 0.96078 0.23698 0.0
H1576 H 0.47949 0.97868 0.23798 0.0
H1577 H 0.46647 0.97312 0.21628 0.0
H1578 H 0.59319 0.02995 0.24236 0.0
H1579 H 0.62568 0.0511 0.24601 0.0
H1580 H 0.62218 0.06665 0.26088 0.0
H1581 H 0.61428 0.06207 0.23646 0.0
H1582 H 0.56356 0.01242 0.24474 0.0
H1583 H 0.57264 0.06659 0.25466 0.0
H1584 H 0.51771 0.99118 0.23165 0.0
H1585 H 0.53714 0.98871 0.22992 0.0
H1586 H 0.53001 0.99717 0.21058 0.0
H1587 H 0.55168 0.07498 0.24505 0.0
H1588 H 0.52877 0.05651 0.24472 0.0
H1589 H 0.53996 0.0634 0.22304 0.0
H1590 H 0.59465 0.05157 0.12735 0.0
H1591 H 0.5665 0.02736 0.11506 0.0
H1592 H 0.56527 0.07714 0.11447 0.0
H1593 H 0.53472 0.00461 0.14566 0.0
H1594 H 0.54169 0.99959 0.12365 0.0
H1595 H 0.52032 0.99834 0.12489 0.0
H1596 H 0.54117 0.0796 0.1257 0.0
H1597 H 0.53134 0.06565 0.14556 0.0
H1598 H 0.51984 0.05871 0.12287 0.0
H1599 H 0.40646 0.99027 0.1179 0.0
H1600 H 0.37586 0.9649 0.11422 0.0
H1601 H 0.38981 0.95619 0.12172 0.0
H1602 H 0.38211 0.95288 0.09732 0.0
H1603 H 0.43671 0.96249 0.10987 0.0
H1604 H 0.4356 0.01236 0.11473 0.0
H1605 H 0.47174 0.97425 0.14236 0.0
H1606 H 0.48239 0.98105 0.12038 0.0
H1607 H 0.46116 0.96014 0.12113 0.0
H1608 H 0.45999 0.03984 0.12755 0.0
H1609 H 0.48157 0.04147 0.1272 0.0
H1610 H 0.46926 0.03523 0.14824 0.0
H1611 H 0.50484 0.01776 0.24597 0.0
H1612 H 0.54841 0.03781 0.19824 0.0
H1613 H 0.54749 0.03952 0.16469 0.0
H1614 H 0.50081 0.02033 0.11631 0.0
H1615 H 0.45723 0.99993 0.16409 0.0
H1616 H 0.45838 9e-05 0.19779 0.0
H1617 H 0.62501 0.07883 0.12992 0.0
H1618 H 0.60781 0.08358 0.13662 0.0
H1619 H 0.61783 0.09051 0.11422 0.0
C1620 C 0.53256 0.97007 0.70523 0.0
C1621 C 0.5443 0.98503 0.7202 0.0
C1622 C 0.53843 0.98229 0.75362 0.0
C1623 C 0.54512 0.00073 0.75893 0.0
C1624 C 0.53942 0.00571 0.77525 0.0
C1625 C 0.52656 0.99192 0.78625 0.0
C1626 C 0.52024 0.9733 0.78118 0.0
C1627 C 0.5266 0.96878 0.76511 0.0
C1628 C 0.54678 0.02569 0.78042 0.0
C1629 C 0.50627 0.95814 0.79226 0.0
C1630 C 0.42302 0.01743 0.75751 0.0
C1631 C 0.42928 0.0108 0.77352 0.0
C1632 C 0.45819 0.01823 0.78838 0.0
C1633 C 0.45254 0.00056 0.79434 0.0
C1634 C 0.46486 0.99622 0.80221 0.0
C1635 C 0.48309 0.00994 0.80464 0.0
C1636 C 0.48863 0.02793 0.79949 0.0
C1637 C 0.4761 0.0318 0.79134 0.0
C1638 C 0.45848 0.97685 0.80743 0.0
C1639 C 0.50789 0.04296 0.80212 0.0
C1640 C 0.4755 0.99903 0.92994 0.0
C1641 C 0.47026 0.98286 0.91933 0.0
C1642 C 0.48126 0.98187 0.90575 0.0
C1643 C 0.49798 0.99751 0.90279 0.0
C1644 C 0.50367 0.01379 0.9139 0.0
C1645 C 0.49242 0.01437 0.92747 0.0
C1646 C 0.47491 0.96418 0.89437 0.0
C1647 C 0.52153 0.03062 0.91121 0.0
C1648 C 0.60529 0.96444 0.89169 0.0
C1649 C 0.59902 0.97646 0.90133 0.0
C1650 C 0.56934 0.9731 0.89615 0.0
C1651 C 0.55172 0.9602 0.89056 0.0
C1652 C 0.53953 0.96555 0.88486 0.0
C1653 C 0.54512 0.98435 0.88491 0.0
C1654 C 0.56281 0.99751 0.89105 0.0
C1655 C 0.57475 0.99176 0.89673 0.0
C1656 C 0.52068 0.95112 0.87871 0.0
C1657 C 0.56907 0.01764 0.89159 0.0
C1658 C 0.51855 0.99686 0.80198 0.0
C1659 C 0.50569 0.00153 0.79723 0.0
C1660 C 0.49659 0.00518 0.81109 0.0
C1661 C 0.50015 0.00386 0.83033 0.0
C1662 C 0.49095 0.00699 0.84464 0.0
C1663 C 0.49399 0.00485 0.86347 0.0
C1664 C 0.50656 0.99977 0.86873 0.0
C1665 C 0.50926 0.99689 0.88774 0.0
C1666 C 0.52214 0.99228 0.89256 0.0
C1667 C 0.53232 0.99016 0.87882 0.0
C1668 C 0.52955 0.99259 0.85965 0.0
C1669 C 0.53931 0.99024 0.84539 0.0
C1670 C 0.53594 0.99192 0.8265 0.0
C1671 C 0.52268 0.99599 0.82117 0.0
C1672 C 0.51319 0.99916 0.83536 0.0
C1673 C 0.51653 0.99731 0.85461 0.0
C1674 C 0.47312 0.01844 0.97051 0.0
C1675 C 0.46415 0.01426 0.95073 0.0
O1676 O 0.54288 0.97711 0.73733 0.0
O1677 O 0.58051 0.9669 0.90106 0.0
O1678 O 0.46385 0.99913 0.94236 0.0
O1679 O 0.447 0.02265 0.77928 0.0
H1680 H 0.53906 0.99462 0.72102 0.0
H1681 H 0.51843 0.96304 0.70933 0.0
H1682 H 0.53684 0.95979 0.70376 0.0
H1683 H 0.53331 0.97608 0.69136 0.0
H1684 H 0.55472 0.01121 0.75028 0.0
H1685 H 0.5217 0.95459 0.76093 0.0
H1686 H 0.53649 0.02935 0.77689 0.0
H1687 H 0.55893 0.03458 0.77266 0.0
H1688 H 0.55009 0.02852 0.79582 0.0
H1689 H 0.5012 0.94448 0.7851 0.0
H1690 H 0.49481 0.96028 0.79445 0.0
H1691 H 0.51208 0.9582 0.80637 0.0
H1692 H 0.42025 0.00566 0.78555 0.0
H1693 H 0.41767 0.99807 0.73506 0.0
H1694 H 0.43303 0.03243 0.75668 0.0
H1695 H 0.41236 0.01974 0.76349 0.0
H1696 H 0.43863 0.99001 0.79255 0.0
H1697 H 0.48032 0.04542 0.78686 0.0
H1698 H 0.46609 0.97149 0.79989 0.0
H1699 H 0.444 0.9676 0.80395 0.0
H1700 H 0.46099 0.9766 0.82279 0.0
H1701 H 0.50965 0.05662 0.79963 0.0
H1702 H 0.51607 0.04034 0.7921 0.0
H1703 H 0.51308 0.04315 0.81663 0.0
H1704 H 0.47183 0.02643 0.94224 0.0
H1705 H 0.45731 0.97103 0.92151 0.0
H1706 H 0.49699 0.02682 0.93605 0.0
H1707 H 0.47317 0.9662 0.87926 0.0
H1708 H 0.46202 0.95297 0.89912 0.0
H1709 H 0.48509 0.95996 0.89544 0.0
H1710 H 0.52397 0.04231 0.92083 0.0
H1711 H 0.52223 0.03471 0.89641 0.0
H1712 H 0.53238 0.02752 0.91375 0.0
H1713 H 0.60403 0.98883 0.89292 0.0
H1714 H 0.62011 0.97181 0.89157 0.0
H1715 H 0.59986 0.96092 0.87686 0.0
H1716 H 0.60057 0.95156 0.89911 0.0
H1717 H 0.54761 0.94584 0.89043 0.0
H1718 H 0.58815 0.00187 0.90177 0.0
H1719 H 0.51785 0.95299 0.86387 0.0
H1720 H 0.51106 0.9526 0.88757 0.0
H1721 H 0.51835 0.93706 0.87975 0.0
H1722 H 0.58336 0.02622 0.8963 0.0
H1723 H 0.56088 0.02055 0.90132 0.0
H1724 H 0.56716 0.0216 0.87734 0.0
H1725 H 0.50254 0.00209 0.78247 0.0
H1726 H 0.48109 0.01086 0.84141 0.0
H1727 H 0.48631 0.00716 0.87386 0.0
H1728 H 0.52402 0.98995 0.90717 0.0
H1729 H 0.54954 0.9869 0.84866 0.0
H1730 H 0.54375 0.98983 0.8161 0.0
H1731 H 0.46601 0.00653 0.97944 0.0
H1732 H 0.47318 0.03043 0.97736 0.0
H1733 H 0.48717 0.02168 0.96961 0.0
C1734 C 0.99478 0.56088 0.71252 0.0
C1735 C 0.98873 0.5675 0.7296 0.0
C1736 C 0.00283 0.56578 0.75909 0.0
C1737 C 0.98755 0.55433 0.7689 0.0
C1738 C 0.9885 0.54427 0.78373 0.0
C1739 C 0.00509 0.54592 0.78898 0.0
C1740 C 0.02071 0.55846 0.78004 0.0
C1741 C 0.01937 0.56835 0.76526 0.0
C1742 C 0.97167 0.53135 0.79332 0.0
C1743 C 0.03866 0.56077 0.78551 0.0
C1744 C 0.01786 0.43331 0.78354 0.0
C1745 C 0.00888 0.43464 0.76522 0.0
C1746 C 0.99833 0.45505 0.777 0.0
C1747 C 0.01517 0.47103 0.77914 0.0
C1748 C 0.01709 0.48692 0.78812 0.0
C1749 C 0.00185 0.48689 0.79484 0.0
C1750 C 0.98482 0.47102 0.79215 0.0
C1751 C 0.9833 0.45529 0.78325 0.0
C1752 C 0.03542 0.50373 0.79058 0.0
C1753 C 0.96828 0.47066 0.79888 0.0
C1754 C 0.02072 0.47596 0.91415 0.0
C1755 C 0.03629 0.49164 0.90889 0.0
C1756 C 0.03529 0.50546 0.89958 0.0
C1757 C 0.01844 0.50384 0.8959 0.0
C1758 C 0.00287 0.4887 0.90236 0.0
C1759 C 0.00423 0.47492 0.91135 0.0
C1760 C 0.05222 0.52153 0.89314 0.0
C1761 C 0.98473 0.48671 0.89905 0.0
C1762 C 0.04278 0.6449 0.9017 0.0
C1763 C 0.03054 0.62636 0.90982 0.0
C1764 C 0.03458 0.59996 0.90532 0.0
C1765 C 0.04768 0.59593 0.90018 0.0
C1766 C 0.04306 0.57863 0.89242 0.0
C1767 C 0.02483 0.56488 0.89022 0.0
C1768 C 0.01151 0.56861 0.89622 0.0
C1769 C 0.01651 0.58616 0.90371 0.0
C1770 C 0.05766 0.57515 0.88626 0.0
C1771 C 0.99199 0.55413 0.89444 0.0
C1772 C 0.0057 0.53286 0.80192 0.0
C1773 C 0.00316 0.5165 0.79374 0.0
C1774 C 0.0038 0.50348 0.80469 0.0
C1775 C 0.0068 0.50663 0.82445 0.0
C1776 C 0.00744 0.49373 0.83585 0.0
C1777 C 0.01065 0.49705 0.85526 0.0
C1778 C 0.01338 0.51341 0.86404 0.0
C1779 C 0.01698 0.51701 0.88374 0.0
C1780 C 0.02012 0.53364 0.89194 0.0
C1781 C 0.01981 0.54688 0.88094 0.0
C1782 C 0.01594 0.54338 0.86124 0.0
C1783 C 0.01543 0.55634 0.84974 0.0
C1784 C 0.01189 0.55288 0.83033 0.0
C1785 C 0.00895 0.53642 0.82166 0.0
C1786 C 0.00942 0.52319 0.83297 0.0
C1787 C 0.01279 0.52661 0.85279 0.0
C1788 C 0.03886 0.45422 0.90153 0.0
C1789 C 0.03489 0.45788 0.9217 0.0
O1790 O 0.00215 0.57457 0.74373 0.0
O1791 O 0.03994 0.61725 0.91186 0.0
O1792 O 0.0209 0.46141 0.92149 0.0
O1793 O 0.99592 0.43909 0.76922 0.0
H1794 H 0.97643 0.55534 0.73415 0.0
H1795 H 0.99671 0.54941 0.71646 0.0
H1796 H 0.00764 0.57196 0.70757 0.0
H1797 H 0.98449 0.5559 0.70076 0.0
H1798 H 0.97486 0.55312 0.76498 0.0
H1799 H 0.03116 0.57758 0.75791 0.0
H1800 H 0.96829 0.51706 0.78998 0.0
H1801 H 0.96014 0.53281 0.78879 0.0
H1802 H 0.97385 0.53381 0.80887 0.0
H1803 H 0.04974 0.57221 0.7784 0.0
H1804 H 0.03865 0.54799 0.78165 0.0
H1805 H 0.04123 0.5633 0.80102 0.0
H1806 H 0.01907 0.44518 0.75641 0.0
H1807 H 0.02782 0.42917 0.78027 0.0
H1808 H 0.00773 0.42311 0.79266 0.0
H1809 H 0.02499 0.44665 0.7916 0.0
H1810 H 0.02688 0.47121 0.77398 0.0
H1811 H 0.97035 0.44295 0.78136 0.0
H1812 H 0.03867 0.50798 0.80579 0.0
H1813 H 0.03555 0.51516 0.78328 0.0
H1814 H 0.046 0.50146 0.78488 0.0
H1815 H 0.95595 0.45736 0.79533 0.0
H1816 H 0.96693 0.48167 0.79241 0.0
H1817 H 0.96954 0.47334 0.81441 0.0
H1818 H 0.04703 0.46983 0.92849 0.0
H1819 H 0.04924 0.49302 0.91155 0.0
H1820 H 0.9923 0.46295 0.91573 0.0
H1821 H 0.05107 0.52275 0.8777 0.0
H1822 H 0.06419 0.52038 0.89629 0.0
H1823 H 0.05418 0.53427 0.90028 0.0
H1824 H 0.97428 0.47542 0.90692 0.0
H1825 H 0.98087 0.48389 0.88376 0.0
H1826 H 0.98518 0.49964 0.90335 0.0
H1827 H 0.01904 0.61878 0.89944 0.0
H1828 H 0.03554 0.65246 0.89978 0.0
H1829 H 0.0472 0.64288 0.88772 0.0
H1830 H 0.0548 0.65324 0.91119 0.0
H1831 H 0.06159 0.60661 0.90177 0.0
H1832 H 0.00633 0.58901 0.90835 0.0
H1833 H 0.05518 0.57011 0.87124 0.0
H1834 H 0.05759 0.56439 0.89478 0.0
H1835 H 0.07111 0.5876 0.88794 0.0
H1836 H 0.98335 0.55875 0.90101 0.0
H1837 H 0.98984 0.54159 0.90118 0.0
H1838 H 0.98779 0.55043 0.87929 0.0
H1839 H 0.00087 0.51394 0.77856 0.0
H1840 H 0.0055 0.48092 0.8299 0.0
H1841 H 0.01106 0.48661 0.86325 0.0
H1842 H 0.02325 0.53648 0.90699 0.0
H1843 H 0.01775 0.56932 0.85561 0.0
H1844 H 0.01164 0.5633 0.82217 0.0
H1845 H 0.04946 0.45054 0.90189 0.0
H1846 H 0.04366 0.46649 0.89312 0.0
H1847 H 0.02665 0.44287 0.89418 0.0
C1848 C 0.54229 0.58492 0.73011 0.0
C1849 C 0.55783 0.59547 0.74479 0.0
C1850 C 0.54496 0.57451 0.77044 0.0
C1851 C 0.53304 0.58019 0.77617 0.0
C1852 C 0.51898 0.56947 0.78774 0.0
C1853 C 0.51676 0.55275 0.7937 0.0
C1854 C 0.52918 0.54738 0.78867 0.0
C1855 C 0.54326 0.55847 0.77723 0.0
C1856 C 0.5061 0.57573 0.79308 0.0
C1857 C 0.5272 0.52965 0.79486 0.0
C1858 C 0.41906 0.47769 0.71106 0.0
C1859 C 0.41975 0.46793 0.72854 0.0
C1860 C 0.4275 0.48419 0.75928 0.0
C1861 C 0.43832 0.47789 0.76697 0.0
C1862 C 0.45126 0.48813 0.7814 0.0
C1863 C 0.45341 0.50501 0.78821 0.0
C1864 C 0.44181 0.51086 0.7812 0.0
C1865 C 0.4288 0.50019 0.76696 0.0
C1866 C 0.46305 0.48123 0.78893 0.0
C1867 C 0.44369 0.52875 0.78815 0.0
C1868 C 0.41417 0.49136 0.905 0.0
C1869 C 0.42457 0.48332 0.90128 0.0
C1870 C 0.44154 0.4935 0.89393 0.0
C1871 C 0.44808 0.512 0.89003 0.0
C1872 C 0.43796 0.52034 0.89459 0.0
C1873 C 0.42118 0.50991 0.90226 0.0
C1874 C 0.45229 0.48438 0.88993 0.0
C1875 C 0.44466 0.5401 0.89083 0.0
C1876 C 0.57859 0.60682 0.95593 0.0
C1877 C 0.56872 0.60149 0.93723 0.0
C1878 C 0.5425 0.57436 0.92221 0.0
C1879 C 0.53429 0.5554 0.92004 0.0
C1880 C 0.51997 0.54535 0.90693 0.0
C1881 C 0.5132 0.5545 0.89622 0.0
C1882 C 0.52128 0.57374 0.89854 0.0
C1883 C 0.53617 0.58353 0.91116 0.0
C1884 C 0.51197 0.52491 0.90477 0.0
C1885 C 0.51405 0.58396 0.88798 0.0
C1886 C 0.50059 0.54028 0.80379 0.0
C1887 C 0.4852 0.52839 0.79282 0.0
C1888 C 0.46895 0.51735 0.80106 0.0
C1889 C 0.46786 0.51837 0.82087 0.0
C1890 C 0.4516 0.508 0.8296 0.0
C1891 C 0.45062 0.50944 0.84907 0.0
C1892 C 0.46596 0.52095 0.8606 0.0
C1893 C 0.46512 0.52239 0.88041 0.0
C1894 C 0.48064 0.53373 0.89146 0.0
C1895 C 0.49719 0.54372 0.88331 0.0
C1896 C 0.49827 0.5427 0.86348 0.0
C1897 C 0.51463 0.55267 0.85472 0.0
C1898 C 0.51541 0.55205 0.83516 0.0
C1899 C 0.49999 0.54092 0.82366 0.0
C1900 C 0.48348 0.53015 0.8322 0.0
C1901 C 0.48257 0.53129 0.85211 0.0
C1902 C 0.36707 0.46114 0.9006 0.0
C1903 C 0.38533 0.4634 0.9057 0.0
O1904 O 0.55787 0.58379 0.75801 0.0
O1905 O 0.55599 0.58304 0.93556 0.0
O1906 O 0.39725 0.48154 0.91092 0.0
O1907 O 0.41598 0.47533 0.74426 0.0
H1908 H 0.55647 0.60649 0.75203 0.0
H1909 H 0.52926 0.57906 0.73688 0.0
H1910 H 0.54324 0.57359 0.72304 0.0
H1911 H 0.54249 0.59416 0.71927 0.0
H1912 H 0.5344 0.59278 0.77144 0.0
H1913 H 0.55262 0.55429 0.77292 0.0
H1914 H 0.4927 0.56616 0.78643 0.0
H1915 H 0.51042 0.5897 0.78854 0.0
H1916 H 0.50475 0.57555 0.80861 0.0
H1917 H 0.5384 0.52778 0.79046 0.0
H1918 H 0.51447 0.51804 0.78871 0.0
H1919 H 0.52656 0.52918 0.81045 0.0
H1920 H 0.43366 0.47047 0.72975 0.0
H1921 H 0.42153 0.4716 0.69822 0.0
H1922 H 0.42957 0.49235 0.71261 0.0
H1923 H 0.40591 0.47684 0.70921 0.0
H1924 H 0.43682 0.4651 0.76152 0.0
H1925 H 0.42015 0.50475 0.76113 0.0
H1926 H 0.46357 0.48198 0.8046 0.0
H1927 H 0.47687 0.49006 0.78434 0.0
H1928 H 0.45833 0.46693 0.78385 0.0
H1929 H 0.43348 0.53125 0.78142 0.0
H1930 H 0.45716 0.54016 0.78515 0.0
H1931 H 0.44242 0.52888 0.80367 0.0
H1932 H 0.38955 0.4593 0.8926 0.0
H1933 H 0.41944 0.4691 0.90402 0.0
H1934 H 0.41313 0.51602 0.90545 0.0
H1935 H 0.45314 0.48295 0.87444 0.0
H1936 H 0.44625 0.47061 0.89573 0.0
H1937 H 0.46612 0.49294 0.89604 0.0
H1938 H 0.435 0.54444 0.89482 0.0
H1939 H 0.44725 0.54233 0.87562 0.0
H1940 H 0.4575 0.54892 0.89892 0.0
H1941 H 0.57708 0.60635 0.92467 0.0
H1942 H 0.59274 0.61097 0.95263 0.0
H1943 H 0.57586 0.59383 0.9626 0.0
H1944 H 0.5716 0.62517 0.96848 0.0
H1945 H 0.53927 0.54845 0.92864 0.0
H1946 H 0.54242 0.59823 0.91265 0.0
H1947 H 0.50957 0.5203 0.88961 0.0
H1948 H 0.4989 0.51807 0.91152 0.0
H1949 H 0.52069 0.5204 0.91148 0.0
H1950 H 0.51964 0.59817 0.89391 0.0
H1951 H 0.49925 0.5768 0.88836 0.0
H1952 H 0.51754 0.5846 0.87298 0.0
H1953 H 0.48583 0.52791 0.77757 0.0
H1954 H 0.43941 0.49883 0.82144 0.0
H1955 H 0.43767 0.50133 0.85497 0.0
H1956 H 0.47986 0.53461 0.90666 0.0
H1957 H 0.52698 0.56126 0.86287 0.0
H1958 H 0.52829 0.56027 0.82915 0.0
H1959 H 0.35722 0.44661 0.89661 0.0
H1960 H 0.36817 0.46946 0.88839 0.0
H1961 H 0.36208 0.46575 0.91261 0.0
C1962 C 0.6917 0.79854 0.63879 0.0
C1963 C 0.68018 0.7844 0.62307 0.0
C1964 C 0.67485 0.79424 0.59262 0.0
C1965 C 0.65633 0.78213 0.59032 0.0
C1966 C 0.6459 0.78556 0.57754 0.0
C1967 C 0.65418 0.80125 0.56677 0.0
C1968 C 0.67297 0.81273 0.56814 0.0
C1969 C 0.68307 0.80894 0.58096 0.0
C1970 C 0.62594 0.77278 0.576 0.0
C1971 C 0.68231 0.82949 0.55673 0.0
C1972 C 0.61956 0.86088 0.64866 0.0
C1973 C 0.62934 0.86954 0.63081 0.0
C1974 C 0.61873 0.85564 0.59946 0.0
C1975 C 0.63469 0.86373 0.58993 0.0
C1976 C 0.63719 0.85428 0.57487 0.0
C1977 C 0.62354 0.83623 0.56951 0.0
C1978 C 0.60694 0.82857 0.57826 0.0
C1979 C 0.60466 0.83855 0.59301 0.0
C1980 C 0.65489 0.86314 0.56554 0.0
C1981 C 0.5921 0.8094 0.57292 0.0
C1982 C 0.58789 0.8373 0.44889 0.0
C1983 C 0.60617 0.84761 0.45407 0.0
C1984 C 0.61479 0.83963 0.46334 0.0
C1985 C 0.60484 0.82103 0.46775 0.0
C1986 C 0.58653 0.81049 0.46202 0.0
C1987 C 0.57835 0.81875 0.45241 0.0
C1988 C 0.63451 0.85111 0.46854 0.0
C1989 C 0.57554 0.79061 0.46636 0.0
C1990 C 0.65206 0.73541 0.40757 0.0
C1991 C 0.64764 0.74035 0.42621 0.0
C1992 C 0.64701 0.76677 0.44075 0.0
C1993 C 0.65572 0.78581 0.44182 0.0
C1994 C 0.65023 0.79518 0.45402 0.0
C1995 C 0.63523 0.78516 0.46505 0.0
C1996 C 0.62624 0.76582 0.46399 0.0
C1997 C 0.63247 0.75682 0.45216 0.0
C1998 C 0.66039 0.8158 0.45492 0.0
C1999 C 0.60988 0.75464 0.47511 0.0
C2000 C 0.64313 0.80707 0.55615 0.0
C2001 C 0.63721 0.81718 0.56633 0.0
C2002 C 0.62787 0.82449 0.55747 0.0
C2003 C 0.62392 0.82133 0.5378 0.0
C2004 C 0.61458 0.82849 0.52838 0.0
C2005 C 0.61095 0.82545 0.50897 0.0
C2006 C 0.61676 0.81536 0.49821 0.0
C2007 C 0.6136 0.81266 0.4784 0.0
C2008 C 0.61939 0.80241 0.4682 0.0
C2009 C 0.62867 0.79501 0.47712 0.0
C2010 C 0.6322 0.79779 0.49689 0.0
C2011 C 0.64186 0.79095 0.50633 0.0
C2012 C 0.64526 0.79375 0.52577 0.0
C2013 C 0.63938 0.80376 0.53648 0.0
C2014 C 0.6297 0.8109 0.52728 0.0
C2015 C 0.62612 0.80791 0.50746 0.0
C2016 C 0.56431 0.86104 0.44907 0.0
C2017 C 0.58212 0.86227 0.44502 0.0
O2018 O 0.68527 0.7923 0.60581 0.0
O2019 O 0.65284 0.75871 0.42819 0.0
O2020 O 0.5791 0.84489 0.44059 0.0
O2021 O 0.6171 0.86361 0.61557 0.0
H2022 H 0.66609 0.78036 0.62568 0.0
H2023 H 0.68972 0.81047 0.63834 0.0
H2024 H 0.70609 0.80336 0.63707 0.0
H2025 H 0.68784 0.79258 0.65281 0.0
H2026 H 0.64996 0.77011 0.59854 0.0
H2027 H 0.69742 0.81794 0.58253 0.0
H2028 H 0.61919 0.77973 0.58226 0.0
H2029 H 0.6218 0.76 0.58341 0.0
H2030 H 0.62129 0.76922 0.56093 0.0
H2031 H 0.69706 0.83674 0.55907 0.0
H2032 H 0.67757 0.83907 0.56055 0.0
H2033 H 0.67896 0.82558 0.54148 0.0
H2034 H 0.63893 0.86456 0.62888 0.0
H2035 H 0.62906 0.86605 0.66116 0.0
H2036 H 0.61355 0.84582 0.64715 0.0
H2037 H 0.60865 0.86384 0.65108 0.0
H2038 H 0.64539 0.8772 0.59467 0.0
H2039 H 0.5923 0.83255 0.60037 0.0
H2040 H 0.6529 0.86013 0.55005 0.0
H2041 H 0.66309 0.85753 0.57111 0.0
H2042 H 0.66245 0.87819 0.56838 0.0
H2043 H 0.57968 0.8058 0.58031 0.0
H2044 H 0.59645 0.79956 0.57652 0.0
H2045 H 0.58909 0.80784 0.55746 0.0
H2046 H 0.59053 0.86802 0.45834 0.0
H2047 H 0.61373 0.86186 0.45078 0.0
H2048 H 0.56429 0.81087 0.44813 0.0
H2049 H 0.6365 0.85334 0.48411 0.0
H2050 H 0.64073 0.86464 0.46217 0.0
H2051 H 0.64155 0.84389 0.46387 0.0
H2052 H 0.56121 0.78462 0.46204 0.0
H2053 H 0.57667 0.78904 0.48172 0.0
H2054 H 0.58079 0.78274 0.45888 0.0
H2055 H 0.65146 0.73536 0.43881 0.0
H2056 H 0.66227 0.73135 0.41106 0.0
H2057 H 0.66198 0.74859 0.40126 0.0
H2058 H 0.6268 0.71707 0.39433 0.0
H2059 H 0.66694 0.79337 0.433 0.0
H2060 H 0.6257 0.74207 0.45167 0.0
H2061 H 0.66309 0.82122 0.46983 0.0
H2062 H 0.65218 0.82072 0.44786 0.0
H2063 H 0.67328 0.82147 0.44785 0.0
H2064 H 0.60301 0.73988 0.47074 0.0
H2065 H 0.60028 0.75955 0.47332 0.0
H2066 H 0.61381 0.75621 0.49034 0.0
H2067 H 0.64038 0.81985 0.5814 0.0
H2068 H 0.60997 0.8365 0.53595 0.0
H2069 H 0.60363 0.83122 0.50248 0.0
H2070 H 0.61695 0.80046 0.453 0.0
H2071 H 0.64691 0.78333 0.49878 0.0
H2072 H 0.65267 0.7881 0.53232 0.0
H2073 H 0.55466 0.85467 0.43677 0.0
H2074 H 0.56638 0.87486 0.45244 0.0
H2075 H 0.55842 0.85255 0.46138 0.0
C2076 C 0.11905 0.69854 0.63385 0.0
C2077 C 0.12046 0.71653 0.62864 0.0
C2078 C 0.12847 0.73179 0.5995 0.0
C2079 C 0.12362 0.74516 0.59877 0.0
C2080 C 0.13361 0.76088 0.58867 0.0
C2081 C 0.14885 0.76325 0.57936 0.0
C2082 C 0.1538 0.74972 0.58026 0.0
C2083 C 0.14334 0.73398 0.59013 0.0
C2084 C 0.12791 0.77496 0.58797 0.0
C2085 C 0.17021 0.75195 0.57096 0.0
C2086 C 0.24736 0.86796 0.64287 0.0
C2087 C 0.24855 0.87861 0.62531 0.0
C2088 C 0.22044 0.85834 0.60682 0.0
C2089 C 0.22505 0.84544 0.60045 0.0
C2090 C 0.21321 0.83037 0.58853 0.0
C2091 C 0.19639 0.82805 0.58301 0.0
C2092 C 0.19169 0.84094 0.58942 0.0
C2093 C 0.20383 0.85594 0.60121 0.0
C2094 C 0.2186 0.81684 0.5819 0.0
C2095 C 0.17382 0.8388 0.58389 0.0
C2096 C 0.22409 0.85804 0.46394 0.0
C2097 C 0.22816 0.84638 0.47372 0.0
C2098 C 0.2147 0.8308 0.48182 0.0
C2099 C 0.1969 0.82727 0.4809 0.0
C2100 C 0.1927 0.83879 0.47074 0.0
C2101 C 0.20635 0.85385 0.46206 0.0
C2102 C 0.21966 0.81829 0.49151 0.0
C2103 C 0.1739 0.83545 0.46937 0.0
C2104 C 0.08679 0.68581 0.44999 0.0
C2105 C 0.09244 0.70566 0.44661 0.0
C2106 C 0.12206 0.73171 0.45567 0.0
C2107 C 0.13944 0.7357 0.46022 0.0
C2108 C 0.15141 0.75157 0.47103 0.0
C2109 C 0.14589 0.76391 0.47711 0.0
C2110 C 0.12854 0.76035 0.47188 0.0
C2111 C 0.11678 0.74427 0.46118 0.0
C2112 C 0.16985 0.755 0.47624 0.0
C2113 C 0.12242 0.77347 0.47776 0.0
C2114 C 0.15986 0.78002 0.56905 0.0
C2115 C 0.17211 0.79585 0.5796 0.0
C2116 C 0.18356 0.81191 0.57083 0.0
C2117 C 0.18297 0.81226 0.55093 0.0
C2118 C 0.19447 0.82811 0.54163 0.0
C2119 C 0.1942 0.82812 0.52203 0.0
C2120 C 0.18252 0.81223 0.51095 0.0
C2121 C 0.1829 0.81179 0.49102 0.0
C2122 C 0.17065 0.79597 0.48043 0.0
C2123 C 0.15817 0.78037 0.48922 0.0
C2124 C 0.15803 0.78034 0.50916 0.0
C2125 C 0.14607 0.76468 0.51848 0.0
C2126 C 0.14646 0.76461 0.53809 0.0
C2127 C 0.15885 0.78018 0.54914 0.0
C2128 C 0.17063 0.79628 0.54005 0.0
C2129 C 0.17031 0.79632 0.52004 0.0
C2130 C 0.2659 0.89969 0.45222 0.0
C2131 C 0.25432 0.88389 0.46362 0.0
O2132 O 0.11882 0.71666 0.60921 0.0
O2133 O 0.11089 0.71572 0.44589 0.0
O2134 O 0.23693 0.87337 0.45623 0.0
O2135 O 0.23134 0.87307 0.61853 0.0
H2136 H 0.13397 0.72772 0.63383 0.0
H2137 H 0.12979 0.69713 0.62721 0.0
H2138 H 0.10591 0.68674 0.62882 0.0
H2139 H 0.12061 0.69824 0.6494 0.0
H2140 H 0.11198 0.7432 0.60603 0.0
H2141 H 0.14687 0.72346 0.59087 0.0
H2142 H 0.13808 0.78771 0.59577 0.0
H2143 H 0.11479 0.77023 0.59431 0.0
H2144 H 0.12706 0.77832 0.57312 0.0
H2145 H 0.17338 0.74131 0.5749 0.0
H2146 H 0.18193 0.76561 0.57493 0.0
H2147 H 0.16805 0.75104 0.5554 0.0
H2148 H 0.25595 0.87577 0.61442 0.0
H2149 H 0.23767 0.85318 0.6401 0.0
H2150 H 0.24283 0.8729 0.65504 0.0
H2151 H 0.26046 0.86927 0.64659 0.0
H2152 H 0.23772 0.84687 0.60482 0.0
H2153 H 0.20035 0.8659 0.60622 0.0
H2154 H 0.21777 0.81555 0.56624 0.0
H2155 H 0.20921 0.80318 0.58708 0.0
H2156 H 0.23239 0.82088 0.58691 0.0
H2157 H 0.17213 0.84996 0.59018 0.0
H2158 H 0.16293 0.82553 0.5885 0.0
H2159 H 0.17237 0.83865 0.56829 0.0
H2160 H 0.25497 0.88702 0.47911 0.0
H2161 H 0.24177 0.84921 0.47494 0.0
H2162 H 0.20331 0.86282 0.45431 0.0
H2163 H 0.2207 0.82111 0.507 0.0
H2164 H 0.23273 0.82036 0.48706 0.0
H2165 H 0.20931 0.80374 0.48847 0.0
H2166 H 0.17321 0.84677 0.46275 0.0
H2167 H 0.16841 0.83373 0.48363 0.0
H2168 H 0.16523 0.82262 0.46079 0.0
H2169 H 0.08785 0.71054 0.45882 0.0
H2170 H 0.07204 0.67742 0.45073 0.0
H2171 H 0.09297 0.68509 0.46358 0.0
H2172 H 0.09118 0.67997 0.43848 0.0
H2173 H 0.14346 0.72605 0.45565 0.0
H2174 H 0.10357 0.74163 0.45705 0.0
H2175 H 0.17202 0.75641 0.49183 0.0
H2176 H 0.18006 0.76803 0.47048 0.0
H2177 H 0.17195 0.74385 0.47077 0.0
H2178 H 0.10886 0.76922 0.47176 0.0
H2179 H 0.13197 0.78734 0.47314 0.0
H2180 H 0.12225 0.77439 0.49338 0.0
H2181 H 0.17288 0.7956 0.59487 0.0
H2182 H 0.20393 0.84066 0.54941 0.0
H2183 H 0.2034 0.84072 0.51566 0.0
H2184 H 0.17109 0.79566 0.46517 0.0
H2185 H 0.13639 0.75223 0.51072 0.0
H2186 H 0.13701 0.75214 0.54449 0.0
H2187 H 0.28551 0.89379 0.44289 0.0
H2188 H 0.26927 0.9121 0.46154 0.0
H2189 H 0.25674 0.90156 0.4422 0.0
C2190 C 0.12608 0.38482 0.63891 0.0
C2191 C 0.11234 0.37487 0.62243 0.0
C2192 C 0.12958 0.36702 0.60073 0.0
C2193 C 0.14141 0.38489 0.59545 0.0
C2194 C 0.15559 0.3885 0.58382 0.0
C2195 C 0.15778 0.37392 0.57703 0.0
C2196 C 0.14564 0.35589 0.58193 0.0
C2197 C 0.13173 0.3527 0.59376 0.0
C2198 C 0.16837 0.40791 0.57892 0.0
C2199 C 0.14746 0.34 0.57479 0.0
C2200 C 0.29116 0.41084 0.59989 0.0
C2201 C 0.27628 0.3991 0.61304 0.0
C2202 C 0.2482 0.38518 0.59351 0.0
C2203 C 0.23454 0.36875 0.58513 0.0
C2204 C 0.21985 0.36787 0.57541 0.0
C2205 C 0.21883 0.3839 0.57404 0.0
C2206 C 0.23263 0.40064 0.58236 0.0
C2207 C 0.24722 0.40115 0.59197 0.0
C2208 C 0.20541 0.34981 0.56658 0.0
C2209 C 0.23197 0.41799 0.581 0.0
C2210 C 0.2495 0.40661 0.45563 0.0
C2211 C 0.23811 0.38831 0.45969 0.0
C2212 C 0.22196 0.38295 0.46839 0.0
C2213 C 0.21738 0.39628 0.47351 0.0
C2214 C 0.22847 0.41459 0.46857 0.0
C2215 C 0.2443 0.41945 0.45939 0.0
C2216 C 0.21006 0.36315 0.4726 0.0
C2217 C 0.22391 0.42913 0.47355 0.0
C2218 C 0.09824 0.39583 0.45073 0.0
C2219 C 0.10858 0.39075 0.43696 0.0
C2220 C 0.12545 0.37949 0.45471 0.0
C2221 C 0.12733 0.36426 0.45702 0.0
C2222 C 0.142 0.36569 0.46736 0.0
C2223 C 0.15506 0.38282 0.47568 0.0
C2224 C 0.15308 0.39824 0.47379 0.0
C2225 C 0.13826 0.39642 0.46341 0.0
C2226 C 0.14363 0.34895 0.46933 0.0
C2227 C 0.16667 0.41666 0.4827 0.0
C2228 C 0.17299 0.3776 0.56515 0.0
C2229 C 0.18838 0.3794 0.57404 0.0
C2230 C 0.20331 0.3831 0.56381 0.0
C2231 C 0.2031 0.38544 0.54419 0.0
C2232 C 0.21813 0.38984 0.53361 0.0
C2233 C 0.21778 0.39204 0.5143 0.0
C2234 C 0.20226 0.38953 0.50474 0.0
C2235 C 0.20164 0.39136 0.48502 0.0
C2236 C 0.18603 0.38886 0.476 0.0
C2237 C 0.17094 0.38471 0.48617 0.0
C2238 C 0.17127 0.38282 0.50587 0.0
C2239 C 0.15632 0.37867 0.51651 0.0
C2240 C 0.15684 0.37695 0.53592 0.0
C2241 C 0.1723 0.37927 0.54543 0.0
C2242 C 0.18747 0.38332 0.53494 0.0
C2243 C 0.18699 0.3852 0.51516 0.0
C2244 C 0.29557 0.42442 0.46084 0.0
C2245 C 0.27769 0.40723 0.45529 0.0
O2246 O 0.1161 0.36291 0.61259 0.0
O2247 O 0.11113 0.37719 0.44409 0.0
O2248 O 0.26578 0.4123 0.4486 0.0
O2249 O 0.26197 0.38489 0.60275 0.0
H2250 H 0.11259 0.38503 0.61274 0.0
H2251 H 0.13969 0.39326 0.63371 0.0
H2252 H 0.12627 0.37486 0.64855 0.0
H2253 H 0.12275 0.39405 0.64701 0.0
H2254 H 0.13982 0.39613 0.60044 0.0
H2255 H 0.12249 0.33896 0.5978 0.0
H2256 H 0.18229 0.41164 0.58295 0.0
H2257 H 0.16541 0.41785 0.58609 0.0
H2258 H 0.16763 0.40911 0.56344 0.0
H2259 H 0.13612 0.32666 0.57864 0.0
H2260 H 0.16005 0.34143 0.58084 0.0
H2261 H 0.14828 0.34003 0.5592 0.0
H2262 H 0.27189 0.40781 0.62046 0.0
H2263 H 0.30272 0.42211 0.60816 0.0
H2264 H 0.28629 0.41697 0.58945 0.0
H2265 H 0.2957 0.40246 0.5921 0.0
H2266 H 0.23542 0.35653 0.58629 0.0
H2267 H 0.25776 0.41408 0.59809 0.0
H2268 H 0.20415 0.35098 0.55115 0.0
H2269 H 0.19237 0.34619 0.57254 0.0
H2270 H 0.20817 0.33858 0.56893 0.0
H2271 H 0.24374 0.42994 0.58826 0.0
H2272 H 0.21966 0.41624 0.58735 0.0
H2273 H 0.23139 0.42089 0.56594 0.0
H2274 H 0.27293 0.39971 0.46848 0.0
H2275 H 0.24196 0.37829 0.4562 0.0
H2276 H 0.25312 0.43349 0.45591 0.0
H2277 H 0.21108 0.36152 0.48795 0.0
H2278 H 0.21388 0.35412 0.46487 0.0
H2279 H 0.19589 0.35859 0.46877 0.0
H2280 H 0.23455 0.44294 0.46987 0.0
H2281 H 0.22175 0.42939 0.4889 0.0
H2282 H 0.21129 0.4259 0.46588 0.0
H2283 H 0.12167 0.40327 0.43502 0.0
H2284 H 0.09543 0.40606 0.44461 0.0
H2285 H 0.10625 0.4019 0.46415 0.0
H2286 H 0.08542 0.38362 0.45408 0.0
H2287 H 0.11732 0.35122 0.45045 0.0
H2288 H 0.13682 0.40828 0.46227 0.0
H2289 H 0.14452 0.34656 0.48451 0.0
H2290 H 0.15613 0.35118 0.46302 0.0
H2291 H 0.13214 0.33652 0.46236 0.0
H2292 H 0.16324 0.42736 0.47991 0.0
H2293 H 0.18003 0.42097 0.47719 0.0
H2294 H 0.16768 0.41569 0.4982 0.0
H2295 H 0.18871 0.37781 0.58913 0.0
H2296 H 0.23039 0.39175 0.54016 0.0
H2297 H 0.22983 0.39562 0.50697 0.0
H2298 H 0.18567 0.39033 0.46089 0.0
H2299 H 0.14405 0.37672 0.50995 0.0
H2300 H 0.14493 0.37374 0.54339 0.0
H2301 H 0.3054 0.42065 0.46605 0.0
H2302 H 0.29369 0.43241 0.47233 0.0
H2303 H 0.30105 0.43323 0.44867 0.0
H2304 H 0.9733 0.36021 0.02888 0.0
H2305 H 0.01974 0.35776 0.04746 0.0
H2306 H 0.01842 0.36933 0.07898 0.0
H2307 H 0.00478 0.38136 0.10094 0.0
H2308 H 0.95796 0.38304 0.08228 0.0
H2309 H 0.95905 0.37099 0.05101 0.0
C2310 C 0.98308 0.36205 0.03982 0.0
C2311 C 0.99662 0.35812 0.03569 0.0
C2312 C 0.98231 0.36878 0.0579 0.0
C2313 C 0.00912 0.36059 0.05017 0.0
C2314 C 0.00844 0.36732 0.06821 0.0
C2315 C 0.99466 0.37885 0.09015 0.0
C2316 C 0.98105 0.38274 0.09416 0.0
C2317 C 0.9952 0.37164 0.07219 0.0
C2318 C 0.9684 0.3799 0.07972 0.0
C2319 C 0.96901 0.373 0.06181 0.0
H2320 H 0.64773 0.5924 0.04207 0.0
H2321 H 0.62803 0.61845 0.07987 0.0
H2322 H 0.61101 0.59022 0.09579 0.0
H2323 H 0.6031 0.55875 0.10043 0.0
H2324 H 0.62321 0.53239 0.06382 0.0
H2325 H 0.63882 0.56014 0.0461 0.0
C2326 C 0.63956 0.59183 0.05366 0.0
C2327 C 0.63911 0.60755 0.05965 0.0
C2328 C 0.62999 0.57553 0.06308 0.0
C2329 C 0.62854 0.6066 0.07478 0.0
C2330 C 0.61885 0.59044 0.08401 0.0
C2331 C 0.61068 0.55899 0.08838 0.0
C2332 C 0.61178 0.54348 0.08322 0.0
C2333 C 0.61967 0.57493 0.07846 0.0
C2334 C 0.62198 0.5441 0.06787 0.0
C2335 C 0.63093 0.55996 0.0578 0.0
H2336 H 0.39914 0.00977 0.02547 0.0
H2337 H 0.34911 0.00036 0.04642 0.0
H2338 H 0.35675 0.99319 0.07718 0.0
H2339 H 0.37662 0.98741 0.09711 0.0
H2340 H 0.42492 0.99316 0.07447 0.0
H2341 H 0.41922 0.00438 0.04565 0.0
C2342 C 0.39011 0.00651 0.03693 0.0
C2343 C 0.3737 0.00576 0.03387 0.0
C2344 C 0.39419 0.00154 0.05419 0.0
C2345 C 0.36186 0.0011 0.04859 0.0
C2346 C 0.3662 0.99694 0.0661 0.0
C2347 C 0.3858 0.99085 0.08581 0.0
C2348 C 0.40078 0.98862 0.08787 0.0
C2349 C 0.38213 0.99667 0.06889 0.0
C2350 C 0.41297 0.9941 0.0733 0.0
C2351 C 0.40976 0.00061 0.05672 0.0
H2352 H 0.39 0.01176 0.95045 0.0
H2353 H 0.37367 0.96062 0.97617 0.0
H2354 H 0.40362 0.96508 0.97283 0.0
H2355 H 0.43491 0.98437 0.96396 0.0
H2356 H 0.45112 0.03609 0.93964 0.0
H2357 H 0.42079 0.0307 0.94139 0.0
C2358 C 0.39297 0.0016 0.95542 0.0
C2359 C 0.37968 0.98599 0.96376 0.0
C2360 C 0.41024 0.00444 0.95383 0.0
C2361 C 0.38367 0.97277 0.96971 0.0
C2362 C 0.40081 0.97536 0.9679 0.0
C2363 C 0.43173 0.9944 0.95901 0.0
C2364 C 0.44521 0.01058 0.95162 0.0
C2365 C 0.41427 0.99128 0.96021 0.0
C2366 C 0.44097 0.02352 0.94532 0.0
C2367 C 0.42364 0.02044 0.94631 0.0
H2368 H 0.00635 0.37987 0.95416 0.0
H2369 H 0.0597 0.40697 0.97977 0.0
H2370 H 0.06564 0.43574 0.96683 0.0
H2371 H 0.05628 0.45272 0.94654 0.0
H2372 H 0.00294 0.42544 0.92104 0.0
H2373 H 0.9963 0.39723 0.93587 0.0
C2374 C 0.01919 0.39208 0.95719 0.0
C2375 C 0.03255 0.3912 0.96794 0.0
C2376 C 0.02251 0.40857 0.94971 0.0
C2377 C 0.04917 0.40722 0.97154 0.0
C2378 C 0.05259 0.42369 0.96412 0.0
C2379 C 0.0431 0.44068 0.94455 0.0
C2380 C 0.03004 0.44124 0.93293 0.0
C2381 C 0.03944 0.42446 0.95297 0.0
C2382 C 0.01311 0.42543 0.93016 0.0
C2383 C 0.00936 0.40928 0.93854 0.0
H2384 H 0.5948 0.61983 0.014 0.0
H2385 H 0.63886 0.66447 0.98731 0.0
H2386 H 0.62178 0.66102 0.95822 0.0
H2387 H 0.59031 0.64227 0.93332 0.0
H2388 H 0.53757 0.58902 0.96468 0.0
H2389 H 0.56041 0.59794 0.9984 0.0
C2390 C 0.59983 0.62808 0.00184 0.0
C2391 C 0.61771 0.64254 0.0019 0.0
C2392 C 0.58841 0.62397 0.98626 0.0
C2393 C 0.62499 0.65364 0.98627 0.0
C2394 C 0.61529 0.6519 0.96944 0.0
C2395 C 0.58434 0.63477 0.94571 0.0
C2396 C 0.56253 0.61281 0.94428 0.0
C2397 C 0.59755 0.63844 0.96706 0.0
C2398 C 0.55094 0.60078 0.96557 0.0
C2399 C 0.56549 0.60588 0.98608 0.0
H2400 H 0.99473 0.64059 0.9801 0.0
H2401 H 0.04426 0.65181 0.00796 0.0
H2402 H 0.05376 0.64443 0.97847 0.0
H2403 H 0.04829 0.6355 0.94452 0.0
H2404 H 0.99868 0.62407 0.91691 0.0
H2405 H 0.9889 0.63081 0.94659 0.0
C2406 C 0.00763 0.64146 0.97977 0.0
C2407 C 0.0188 0.64686 0.99625 0.0
C2408 C 0.01295 0.63708 0.96281 0.0
C2409 C 0.03539 0.64772 0.99552 0.0
C2410 C 0.04084 0.6435 0.97865 0.0
C2411 C 0.03524 0.63423 0.94511 0.0
C2412 C 0.02408 0.629 0.92864 0.0
C2413 C 0.02975 0.6382 0.9622 0.0
C2414 C 0.00736 0.6278 0.92948 0.0
C2415 C 0.00182 0.63174 0.94641 0.0
H2416 H 0.36599 0.41353 0.97555 0.0
H2417 H 0.3791 0.38217 0.93691 0.0
H2418 H 0.38919 0.40626 0.91448 0.0
H2419 H 0.39038 0.43417 0.90412 0.0
H2420 H 0.37735 0.46559 0.94263 0.0
H2421 H 0.37111 0.44352 0.96686 0.0
C2422 C 0.37139 0.41212 0.96239 0.0
C2423 C 0.3715 0.39594 0.95779 0.0
C2424 C 0.37688 0.42589 0.9494 0.0
C2425 C 0.37873 0.39442 0.94077 0.0
C2426 C 0.3844 0.40814 0.92785 0.0
C2427 C 0.38643 0.43631 0.91792 0.0
C2428 C 0.38397 0.45126 0.92149 0.0
C2429 C 0.38289 0.42359 0.93173 0.0
C2430 C 0.37906 0.45402 0.9395 0.0
C2431 C 0.37552 0.44142 0.95333 0.0
H2432 H 0.64393 0.00746 0.97899 0.0
H2433 H 0.60245 0.95541 0.99699 0.0
H2434 H 0.58798 0.94803 0.96548 0.0
H2435 H 0.58738 0.95607 0.93258 0.0
H2436 H 0.62859 0.00817 0.91469 0.0
H2437 H 0.64287 0.01584 0.9464 0.0
C2438 C 0.63175 0.99448 0.97604 0.0
C2439 C 0.62436 0.98199 0.99037 0.0
C2440 C 0.62338 0.99037 0.95792 0.0
C2441 C 0.60846 0.9653 0.98627 0.0
C2442 C 0.60015 0.96105 0.96824 0.0
C2443 C 0.59934 0.9692 0.93573 0.0
C2444 C 0.60677 0.98168 0.92141 0.0
C2445 C 0.6075 0.97347 0.95395 0.0
C2446 C 0.62249 0.99848 0.92556 0.0
C2447 C 0.63069 0.00282 0.94365 0.0
H2448 H 0.64028 0.04838 0.04997 0.0
H2449 H 0.6269 0.00074 0.08135 0.0
H2450 H 0.60964 0.00832 0.10256 0.0
H2451 H 0.60076 0.03001 0.11404 0.0
H2452 H 0.61342 0.0773 0.08248 0.0
H2453 H 0.6285 0.06831 0.05947 0.0
C2454 C 0.63338 0.03953 0.06129 0.0
C2455 C 0.63505 0.02414 0.06418 0.0
C2456 C 0.62354 0.04402 0.07355 0.0
C2457 C 0.6259 0.01271 0.07882 0.0
C2458 C 0.61608 0.01707 0.09104 0.0
C2459 C 0.60669 0.03825 0.10203 0.0
C2460 C 0.60641 0.05454 0.10022 0.0
C2461 C 0.6152 0.03294 0.08883 0.0
C2462 C 0.61382 0.0649 0.08438 0.0
C2463 C 0.6224 0.05975 0.07122 0.0
H2464 H 0.99692 0.63078 0.08044 0.0
H2465 H 0.95199 0.59566 0.04247 0.0
H2466 H 0.94788 0.56893 0.05871 0.0
H2467 H 0.95627 0.55567 0.0847 0.0
H2468 H 0.00072 0.59117 0.12297 0.0
H2469 H 0.00596 0.61757 0.10545 0.0
C2470 C 0.98634 0.61728 0.07556 0.0
C2471 C 0.97479 0.61525 0.06025 0.0
C2472 C 0.98398 0.60201 0.08502 0.0
C2473 C 0.96105 0.59763 0.05425 0.0
C2474 C 0.95869 0.58233 0.06352 0.0
C2475 C 0.96721 0.56918 0.08902 0.0
C2476 C 0.97815 0.57145 0.10504 0.0
C2477 C 0.96996 0.58437 0.07905 0.0
C2478 C 0.99219 0.58904 0.11062 0.0
C2479 C 0.99515 0.60415 0.10066 0.0
H2480 H 0.41144 0.36087 0.01493 0.0
H2481 H 0.36786 0.36231 0.04156 0.0
H2482 H 0.38215 0.36558 0.07252 0.0
H2483 H 0.40636 0.36676 0.09226 0.0
H2484 H 0.4493 0.36408 0.06592 0.0
H2485 H 0.43602 0.36272 0.03471 0.0
C2486 C 0.4051 0.36201 0.02749 0.0
C2487 C 0.38855 0.3613 0.02582 0.0
C2488 C 0.41332 0.36373 0.04535 0.0
C2489 C 0.38055 0.36274 0.04232 0.0
C2490 C 0.38872 0.36463 0.06009 0.0
C2491 C 0.41293 0.36617 0.07965 0.0
C2492 C 0.42898 0.36595 0.08141 0.0
C2493 C 0.40502 0.365 0.06178 0.0
C2494 C 0.43714 0.36469 0.06497 0.0
C2495 C 0.42948 0.36379 0.04712 0.0
H2496 H 0.65401 0.72306 0.34924 0.0
H2497 H 0.65375 0.67738 0.37508 0.0
H2498 H 0.64166 0.68104 0.40438 0.0
H2499 H 0.62922 0.69939 0.42932 0.0
H2500 H 0.62813 0.75297 0.39843 0.0
H2501 H 0.64179 0.7448 0.36495 0.0
C2502 C 0.65134 0.7147 0.36131 0.0
C2503 C 0.65435 0.69982 0.36082 0.0
C2504 C 0.64462 0.71878 0.37697 0.0
C2505 C 0.65112 0.68855 0.37636 0.0
C2506 C 0.64402 0.6904 0.39333 0.0
C2507 C 0.63054 0.70717 0.41708 0.0
C2508 C 0.63019 0.72898 0.41868 0.0
C2509 C 0.63988 0.704 0.39592 0.0
C2510 C 0.63004 0.74133 0.3975 0.0
C2511 C 0.63937 0.73673 0.37718 0.0
H2512 H 0.31174 0.94529 0.43076 0.0
H2513 H 0.28241 0.91759 0.37857 0.0
H2514 H 0.26302 0.88862 0.39265 0.0
H2515 H 0.2512 0.86476 0.42386 0.0
H2516 H 0.28906 0.89609 0.48515 0.0
H2517 H 0.30903 0.92901 0.46485 0.0
C2518 C 0.30101 0.93307 0.42356 0.0
C2519 C 0.29756 0.93259 0.404 0.0
C2520 C 0.29181 0.91758 0.4336 0.0
C2521 C 0.28415 0.91683 0.39362 0.0
C2522 C 0.27291 0.90006 0.40151 0.0
C2523 C 0.26226 0.87648 0.43131 0.0
C2524 C 0.26581 0.87791 0.45748 0.0
C2525 C 0.27492 0.89792 0.42044 0.0
C2526 C 0.28648 0.89626 0.47019 0.0
C2527 C 0.29812 0.91691 0.45775 0.0
H2528 H 0.07835 0.37378 0.35204 0.0
H2529 H 0.03206 0.33125 0.37774 0.0
H2530 H 0.04795 0.34079 0.40864 0.0
H2531 H 0.07497 0.36147 0.42836 0.0
H2532 H 0.12049 0.40493 0.40261 0.0
H2533 H 0.10499 0.39458 0.37166 0.0
C2534 C 0.07174 0.3665 0.36436 0.0
C2535 C 0.05406 0.35178 0.36255 0.0
C2536 C 0.08082 0.37225 0.38208 0.0
C2537 C 0.04565 0.34266 0.37873 0.0
C2538 C 0.05473 0.34809 0.3964 0.0
C2539 C 0.08141 0.36877 0.41599 0.0
C2540 C 0.09876 0.38413 0.41785 0.0
C2541 C 0.07229 0.36294 0.39825 0.0
C2542 C 0.10708 0.3932 0.40161 0.0
C2543 C 0.09824 0.38728 0.3839 0.0
H2544 H 0.04148 0.32129 0.2765 0.0
H2545 H 0.0158 0.27625 0.31302 0.0
H2546 H 0.03093 0.26169 0.29808 0.0
H2547 H 0.05115 0.26162 0.27411 0.0
H2548 H 0.0763 0.30681 0.2377 0.0
H2549 H 0.06172 0.32151 0.25321 0.0
C2550 C 0.03931 0.30839 0.28137 0.0
C2551 C 0.02763 0.29994 0.29592 0.0
C2552 C 0.04796 0.30012 0.27271 0.0
C2553 C 0.02477 0.28306 0.30184 0.0
C2554 C 0.0334 0.27472 0.2933 0.0
C2555 C 0.05351 0.27475 0.26973 0.0
C2556 C 0.06499 0.28326 0.25501 0.0
C2557 C 0.04498 0.28311 0.27866 0.0
C2558 C 0.06772 0.30013 0.24919 0.0
C2559 C 0.05936 0.30851 0.25801 0.0
H2560 H 0.68135 0.7278 0.30426 0.0
H2561 H 0.73369 0.73321 0.30544 0.0
H2562 H 0.7491 0.76465 0.29607 0.0
H2563 H 0.75004 0.79703 0.28331 0.0
H2564 H 0.68832 0.79203 0.28409 0.0
H2565 H 0.67382 0.7553 0.29686 0.0
C2566 C 0.69546 0.736 0.30196 0.0
C2567 C 0.70694 0.72895 0.30484 0.0
C2568 C 0.70205 0.75374 0.29673 0.0
C2569 C 0.72569 0.7395 0.3029 0.0
C2570 C 0.73478 0.75763 0.29745 0.0
C2571 C 0.73612 0.78972 0.28672 0.0
C2572 C 0.72023 0.79723 0.27906 0.0
C2573 C 0.72552 0.76655 0.29384 0.0
C2574 C 0.69689 0.7865 0.28715 0.0
C2575 C 0.68788 0.76342 0.2942 0.0
H2576 H 0.29741 0.96511 0.32443 0.0
H2577 H 0.26298 0.97599 0.35865 0.0
H2578 H 0.24391 0.97157 0.33085 0.0
H2579 H 0.23684 0.96445 0.29684 0.0
H2580 H 0.27079 0.95293 0.26268 0.0
H2581 H 0.29024 0.95781 0.29044 0.0
C2582 C 0.28578 0.96659 0.32582 0.0
C2583 C 0.28169 0.9709 0.34365 0.0
C2584 C 0.27474 0.96386 0.30979 0.0
C2585 C 0.26647 0.97264 0.34515 0.0
C2586 C 0.25554 0.97012 0.32924 0.0
C2587 C 0.24846 0.96294 0.29551 0.0
C2588 C 0.25229 0.95819 0.27778 0.0
C2589 C 0.25951 0.96567 0.31151 0.0
C2590 C 0.2675 0.95645 0.27622 0.0
C2591 C 0.27862 0.95926 0.29206 0.0
H2592 H 0.66181 0.95831 0.30864 0.0
H2593 H 0.70361 0.9649 0.348 0.0
H2594 H 0.71961 0.96105 0.32215 0.0
H2595 H 0.72254 0.95728 0.28816 0.0
H2596 H 0.68089 0.95071 0.24879 0.0
H2597 H 0.66406 0.95307 0.27482 0.0
C2598 C 0.67437 0.95882 0.31161 0.0
C2599 C 0.68148 0.962 0.3303 0.0
C2600 C 0.68356 0.95659 0.29665 0.0
C2601 C 0.69777 0.96251 0.33381 0.0
C2602 C 0.70698 0.96033 0.31901 0.0
C2603 C 0.70963 0.95605 0.28534 0.0
C2604 C 0.70282 0.95352 0.2666 0.0
C2605 C 0.70009 0.95753 0.30036 0.0
C2606 C 0.68627 0.95237 0.26312 0.0
C2607 C 0.67669 0.95381 0.27798 0.0
H2608 H 0.03798 0.75372 0.31052 0.0
H2609 H 0.05041 0.72001 0.27457 0.0
H2610 H 0.06394 0.74429 0.25249 0.0
H2611 H 0.06928 0.77371 0.24167 0.0
H2612 H 0.05683 0.8075 0.27732 0.0
H2613 H 0.04629 0.78461 0.30125 0.0
C2614 C 0.04391 0.7518 0.29802 0.0
C2615 C 0.04301 0.735 0.29414 0.0
C2616 C 0.05146 0.76575 0.28519 0.0
C2617 C 0.05086 0.73277 0.27792 0.0
C2618 C 0.05853 0.74662 0.26519 0.0
C2619 C 0.06448 0.77615 0.25479 0.0
C2620 C 0.06358 0.79212 0.25763 0.0
C2621 C 0.05843 0.76294 0.26842 0.0
C2622 C 0.05747 0.79521 0.27477 0.0
C2623 C 0.05145 0.78213 0.28842 0.0
H2624 H 0.26156 0.2982 0.32591 0.0
H2625 H 0.30792 0.3432 0.30287 0.0
H2626 H 0.29477 0.33237 0.27101 0.0
H2627 H 0.27068 0.30941 0.24951 0.0
H2628 H 0.22514 0.26359 0.27243 0.0
H2629 H 0.23729 0.27554 0.30445 0.0
C2630 C 0.26875 0.30574 0.31395 0.0
C2631 C 0.28574 0.3215 0.31685 0.0
C2632 C 0.26122 0.29931 0.2956 0.0
C2633 C 0.29487 0.33098 0.30111 0.0
C2634 C 0.28735 0.32482 0.28285 0.0
C2635 C 0.26332 0.30223 0.26156 0.0
C2636 C 0.24685 0.28589 0.25858 0.0
C2637 C 0.27061 0.30892 0.27992 0.0
C2638 C 0.23764 0.27642 0.2743 0.0
C2639 C 0.24465 0.28317 0.29262 0.0
H2640 H 0.29467 0.35424 0.40755 0.0
H2641 H 0.31016 0.39664 0.36793 0.0
H2642 H 0.29846 0.41174 0.38805 0.0
H2643 H 0.28708 0.41475 0.41866 0.0
H2644 H 0.27378 0.37344 0.4591 0.0
H2645 H 0.28118 0.35596 0.43686 0.0
C2646 C 0.29517 0.36659 0.40311 0.0
C2647 C 0.30339 0.37438 0.38634 0.0
C2648 C 0.28899 0.37551 0.41504 0.0
C2649 C 0.30398 0.39042 0.38084 0.0
C2650 C 0.29737 0.3991 0.39237 0.0
C2651 C 0.28562 0.40181 0.42246 0.0
C2652 C 0.28007 0.39547 0.44054 0.0
C2653 C 0.29037 0.39208 0.40979 0.0
C2654 C 0.27813 0.37864 0.44531 0.0
C2655 C 0.28239 0.36867 0.43261 0.0
H2656 H 0.60442 0.91048 0.37337 0.0
H2657 H 0.64635 0.94824 0.4131 0.0
H2658 H 0.63583 0.92511 0.43653 0.0
H2659 H 0.61298 0.89527 0.44689 0.0
H2660 H 0.57108 0.85724 0.40747 0.0
H2661 H 0.58335 0.87929 0.38277 0.0
C2662 C 0.61141 0.91355 0.38705 0.0
C2663 C 0.62606 0.93114 0.39149 0.0
C2664 C 0.60518 0.90019 0.40061 0.0
C2665 C 0.63503 0.93485 0.40927 0.0
C2666 C 0.62897 0.92165 0.42275 0.0
C2667 C 0.60668 0.89173 0.43282 0.0
C2668 C 0.59102 0.87478 0.42907 0.0
C2669 C 0.61379 0.90445 0.41875 0.0
C2670 C 0.58307 0.87029 0.41072 0.0
C2671 C 0.59006 0.88289 0.39662 0.0
H2672 H 0.04288 0.70337 0.37834 0.0
H2673 H 0.08218 0.69836 0.34654 0.0
H2674 H 0.09905 0.70133 0.3757 0.0
H2675 H 0.10198 0.70393 0.41038 0.0
H2676 H 0.06269 0.70875 0.44216 0.0
H2677 H 0.04652 0.70733 0.41287 0.0
C2678 C 0.05517 0.70299 0.37774 0.0
C2679 C 0.06114 0.70053 0.36021 0.0
C2680 C 0.06484 0.7047 0.39458 0.0
C2681 C 0.07718 0.70019 0.35978 0.0
C2682 C 0.08686 0.70188 0.37647 0.0
C2683 C 0.09003 0.70496 0.41084 0.0
C2684 C 0.08365 0.70669 0.42838 0.0
C2685 C 0.08074 0.70397 0.39396 0.0
C2686 C 0.06797 0.70765 0.42881 0.0
C2687 C 0.05869 0.70675 0.41208 0.0
H2688 H 0.31165 0.01788 0.71228 0.0
H2689 H 0.31365 0.05934 0.67679 0.0
H2690 H 0.30021 0.07046 0.69921 0.0
H2691 H 0.28527 0.07077 0.7348 0.0
H2692 H 0.27947 0.01966 0.77655 0.0
H2693 H 0.29541 0.00886 0.74711 0.0
C2694 C 0.30913 0.02901 0.71044 0.0
C2695 C 0.31335 0.03835 0.69352 0.0
C2696 C 0.30095 0.03335 0.72457 0.0
C2697 C 0.30997 0.05275 0.6901 0.0
C2698 C 0.30227 0.05937 0.70288 0.0
C2699 C 0.2865 0.05887 0.73681 0.0
C2700 C 0.28367 0.04853 0.76015 0.0
C2701 C 0.29708 0.05161 0.72001 0.0
C2702 C 0.28258 0.02625 0.76325 0.0
C2703 C 0.29339 0.02031 0.74534 0.0
H2704 H 0.971 0.24403 0.70967 0.0
H2705 H 0.94769 0.27153 0.73947 0.0
H2706 H 0.93187 0.24559 0.75892 0.0
H2707 H 0.92652 0.21633 0.7694 0.0
H2708 H 0.94968 0.18833 0.74052 0.0
H2709 H 0.96389 0.21333 0.71898 0.0
C2710 C 0.96224 0.24421 0.72022 0.0
C2711 C 0.96054 0.25975 0.72301 0.0
C2712 C 0.95332 0.22925 0.73171 0.0
C2713 C 0.94921 0.25978 0.73684 0.0
C2714 C 0.94021 0.24496 0.74812 0.0
C2715 C 0.93436 0.21548 0.75814 0.0
C2716 C 0.93675 0.20032 0.7563 0.0
C2717 C 0.94243 0.22981 0.74593 0.0
C2718 C 0.94741 0.19973 0.74199 0.0
C2719 C 0.95556 0.21403 0.72973 0.0
H2720 H 0.70321 0.67979 0.70522 0.0
H2721 H 0.74188 0.67568 0.67148 0.0
H2722 H 0.762 0.68364 0.69924 0.0
H2723 H 0.7685 0.69147 0.73293 0.0
H2724 H 0.73126 0.69816 0.76666 0.0
H2725 H 0.71053 0.68927 0.73908 0.0
C2726 C 0.71603 0.68062 0.70402 0.0
C2727 C 0.72105 0.67709 0.68638 0.0
C2728 C 0.72776 0.68567 0.71998 0.0
C2729 C 0.73777 0.67841 0.6849 0.0
C2730 C 0.74926 0.68292 0.70077 0.0
C2731 C 0.756 0.6913 0.73428 0.0
C2732 C 0.75157 0.69581 0.75182 0.0
C2733 C 0.74441 0.68662 0.71835 0.0
C2734 C 0.73506 0.69501 0.75325 0.0
C2735 C 0.72321 0.68989 0.73752 0.0
H2736 H 0.70083 0.6476 0.60266 0.0
H2737 H 0.68201 0.60317 0.64017 0.0
H2738 H 0.69864 0.59123 0.62345 0.0
H2739 H 0.71846 0.59345 0.59789 0.0
H2740 H 0.73729 0.63835 0.56101 0.0
H2741 H 0.72085 0.65022 0.57795 0.0
C2742 C 0.7005 0.63543 0.60738 0.0
C2743 C 0.69031 0.6264 0.62275 0.0
C2744 C 0.71013 0.62876 0.59782 0.0
C2745 C 0.68978 0.61041 0.62838 0.0
C2746 C 0.6993 0.60359 0.61884 0.0
C2747 C 0.71905 0.60591 0.59372 0.0
C2748 C 0.72926 0.61515 0.5784 0.0
C2749 C 0.70953 0.61267 0.60353 0.0
C2750 C 0.72971 0.63114 0.57291 0.0
C2751 C 0.72027 0.63789 0.58254 0.0
H2752 H 0.38768 0.08613 0.65388 0.0
H2753 H 0.34383 0.05065 0.61484 0.0
H2754 H 0.35023 0.07635 0.59572 0.0
H2755 H 0.36914 0.10865 0.5891 0.0
H2756 H 0.41393 0.144 0.627 0.0
H2757 H 0.40631 0.1187 0.64753 0.0
C2758 C 0.37945 0.08404 0.64127 0.0
C2759 C 0.3652 0.06645 0.63594 0.0
C2760 C 0.38341 0.09889 0.63007 0.0
C2761 C 0.35475 0.06401 0.61946 0.0
C2762 C 0.35845 0.07872 0.60842 0.0
C2763 C 0.37708 0.11083 0.60198 0.0
C2764 C 0.39195 0.1282 0.60663 0.0
C2765 C 0.37283 0.09617 0.61349 0.0
C2766 C 0.40231 0.1308 0.62322 0.0
C2767 C 0.398 0.11632 0.63491 0.0
H2768 H 0.92199 0.29569 0.66747 0.0
H2769 H 0.96343 0.29119 0.63965 0.0
H2770 H 0.94788 0.2869 0.60908 0.0
H2771 H 0.9223 0.28419 0.59028 0.0
H2772 H 0.88157 0.28972 0.61832 0.0
H2773 H 0.89704 0.29376 0.64881 0.0
C2774 C 0.92763 0.29371 0.65475 0.0
C2775 C 0.94382 0.29366 0.6559 0.0
C2776 C 0.91874 0.29144 0.63725 0.0
C2777 C 0.951 0.29129 0.6392 0.0
C2778 C 0.94211 0.28881 0.62171 0.0
C2779 C 0.9169 0.28637 0.60308 0.0
C2780 C 0.90081 0.28664 0.60204 0.0
C2781 C 0.92596 0.28885 0.62057 0.0
C2782 C 0.89391 0.28943 0.61873 0.0
C2783 C 0.90274 0.29174 0.63617 0.0
H2784 H 0.33798 0.30647 0.64317 0.0
H2785 H 0.38431 0.31321 0.67458 0.0
H2786 H 0.39637 0.30874 0.6455 0.0
H2787 H 0.39444 0.30423 0.61094 0.0
H2788 H 0.34798 0.29696 0.57956 0.0
H2789 H 0.33531 0.30034 0.60881 0.0
C2790 C 0.3507 0.30693 0.64368 0.0
C2791 C 0.36024 0.31029 0.66107 0.0
C2792 C 0.35753 0.30421 0.62689 0.0
C2793 C 0.37664 0.31065 0.66143 0.0
C2794 C 0.38358 0.30812 0.64478 0.0
C2795 C 0.38139 0.30304 0.61056 0.0
C2796 C 0.37199 0.3 0.59313 0.0
C2797 C 0.37422 0.30502 0.62742 0.0
C2798 C 0.3553 0.29897 0.59283 0.0
C2799 C 0.34811 0.301 0.60953 0.0
H2800 H 0.69615 0.07671 0.64022 0.0
H2801 H 0.71346 0.04194 0.61417 0.0
H2802 H 0.72749 0.06366 0.58969 0.0
H2803 H 0.73165 0.09059 0.57358 0.0
H2804 H 0.71378 0.12505 0.59902 0.0
H2805 H 0.70317 0.10541 0.62585 0.0
C2806 C 0.7033 0.07405 0.62941 0.0
C2807 C 0.70358 0.05762 0.62894 0.0
C2808 C 0.71102 0.08643 0.6151 0.0
C2809 C 0.71295 0.05442 0.61485 0.0
C2810 C 0.7209 0.0668 0.60076 0.0
C2811 C 0.72569 0.09395 0.58515 0.0
C2812 C 0.7234 0.10916 0.5843 0.0
C2813 C 0.71951 0.08253 0.6004 0.0
C2814 C 0.71565 0.11337 0.59938 0.0
C2815 C 0.70956 0.10214 0.61468 0.0
H2816 H 0.92478 0.64065 0.65078 0.0
H2817 H 0.97131 0.68502 0.62727 0.0
H2818 H 0.95893 0.67279 0.59545 0.0
H2819 H 0.93584 0.64847 0.57424 0.0
H2820 H 0.89019 0.60319 0.59766 0.0
H2821 H 0.90117 0.61685 0.62949 0.0
C2822 C 0.93212 0.64777 0.6387 0.0
C2823 C 0.94898 0.66372 0.64147 0.0
C2824 C 0.92508 0.64048 0.62038 0.0
C2825 C 0.95835 0.67267 0.62561 0.0
C2826 C 0.95129 0.66569 0.60737 0.0
C2827 C 0.92817 0.64179 0.58632 0.0
C2828 C 0.91207 0.62507 0.58356 0.0
C2829 C 0.9348 0.64947 0.6046 0.0
C2830 C 0.90245 0.61627 0.59935 0.0
C2831 C 0.90878 0.62401 0.61757 0.0
H2832 H 0.96181 0.6998 0.73214 0.0
H2833 H 0.97976 0.74232 0.69237 0.0
H2834 H 0.97055 0.75945 0.71304 0.0
H2835 H 0.96038 0.76377 0.74398 0.0
H2836 H 0.9452 0.7223 0.78463 0.0
H2837 H 0.95008 0.7032 0.76196 0.0
C2838 C 0.96342 0.71265 0.72779 0.0
C2839 C 0.97153 0.71982 0.71078 0.0
C2840 C 0.95874 0.7227 0.74003 0.0
C2841 C 0.97359 0.73654 0.70543 0.0
C2842 C 0.9684 0.74637 0.71728 0.0
C2843 C 0.95807 0.75051 0.74779 0.0
C2844 C 0.95272 0.74458 0.76605 0.0
C2845 C 0.96147 0.73984 0.73488 0.0
C2846 C 0.9495 0.72725 0.77073 0.0
C2847 C 0.9523 0.71633 0.75779 0.0
H2848 H 0.28576 0.26129 0.70674 0.0
H2849 H 0.3303 0.29239 0.74664 0.0
H2850 H 0.31856 0.26683 0.76726 0.0
H2851 H 0.29415 0.23689 0.77551 0.0
H2852 H 0.24971 0.20546 0.73575 0.0
H2853 H 0.26292 0.22985 0.71351 0.0
C2854 C 0.29303 0.26238 0.71982 0.0
C2855 C 0.30879 0.27882 0.7252 0.0
C2856 C 0.28611 0.24764 0.73175 0.0
C2857 C 0.31812 0.27994 0.74213 0.0
C2858 C 0.31137 0.26534 0.75401 0.0
C2859 C 0.28747 0.2353 0.76188 0.0
C2860 C 0.27081 0.21959 0.75742 0.0
C2861 C 0.29514 0.24933 0.7492 0.0
C2862 C 0.26242 0.21758 0.7396 0.0
C2863 C 0.26996 0.23151 0.7269 0.0
H2864 H 0.73739 0.02323 0.69326 0.0
H2865 H 0.69548 0.0299 0.7169 0.0
H2866 H 0.7094 0.03467 0.74838 0.0
H2867 H 0.73282 0.03577 0.76948 0.0
H2868 H 0.77406 0.02798 0.74611 0.0
H2869 H 0.76114 0.02497 0.7143 0.0
C2870 C 0.73132 0.02582 0.70526 0.0
C2871 C 0.71534 0.02614 0.70263 0.0
C2872 C 0.73933 0.02842 0.72342 0.0
C2873 C 0.70771 0.02949 0.71843 0.0
C2874 C 0.71568 0.03224 0.73649 0.0
C2875 C 0.73911 0.0337 0.75737 0.0
C2876 C 0.7546 0.03253 0.76013 0.0
C2877 C 0.73141 0.03161 0.73917 0.0
C2878 C 0.76237 0.02935 0.74436 0.0
C2879 C 0.75491 0.0275 0.72617 0.0
H2880 H 0.06423 0.33383 0.02068 0.0
H2881 H 0.02226 0.27968 0.00116 0.0
H2882 H 0.03595 0.26398 0.01553 0.0
H2883 H 0.06358 0.26266 0.0372 0.0
H2884 H 0.11566 0.32674 0.05802 0.0
H2885 H 0.09611 0.34201 0.03996 0.0
C2886 C 0.05872 0.31919 0.02037 0.0
C2887 C 0.04247 0.30732 0.01019 0.0
C2888 C 0.06848 0.31245 0.02916 0.0
C2889 C 0.03486 0.28803 0.00902 0.0
C2890 C 0.04256 0.27871 0.01725 0.0
C2891 C 0.07001 0.27738 0.03702 0.0
C2892 C 0.09008 0.29279 0.05244 0.0
C2893 C 0.05876 0.28827 0.02714 0.0
C2894 C 0.10308 0.31809 0.05028 0.0
C2895 C 0.09042 0.32737 0.03988 0.0
H2896 H 0.69422 0.71704 0.04705 0.0
H2897 H 0.65124 0.70209 0.08544 0.0
H2898 H 0.66524 0.7316 0.10216 0.0
H2899 H 0.69386 0.76845 0.10994 0.0
H2900 H 0.74613 0.78641 0.06608 0.0
H2901 H 0.72615 0.75005 0.04813 0.0
C2902 C 0.68848 0.72081 0.05847 0.0
C2903 C 0.67198 0.70787 0.0657 0.0
C2904 C 0.69834 0.73827 0.06664 0.0
C2905 C 0.66404 0.71243 0.08066 0.0
C2906 C 0.67198 0.72941 0.09061 0.0
C2907 C 0.7002 0.76485 0.09902 0.0
C2908 C 0.72066 0.78233 0.08775 0.0
C2909 C 0.68862 0.74317 0.08613 0.0
C2910 C 0.73347 0.77623 0.07126 0.0
C2911 C 0.72052 0.75401 0.0595 0.0
H2912 H 0.27142 0.97754 1.00014 0.0
H2913 H 0.28924 0.9403 0.01519 0.0
H2914 H 0.26436 0.92522 0.03615 0.0
H2915 H 0.23746 0.92263 0.05012 0.0
H2916 H 0.22071 0.96094 0.03601 0.0
H2917 H 0.24523 0.97555 0.01468 0.0
C2918 C 0.26981 0.96606 0.00792 0.0
C2919 C 0.28207 0.95996 0.00601 0.0
C2920 C 0.25574 0.95773 0.02021 0.0
C2921 C 0.27995 0.94523 0.0164 0.0
C2922 C 0.26575 0.93661 0.02839 0.0
C2923 C 0.23935 0.93435 0.0426 0.0
C2924 C 0.22751 0.94098 0.04499 0.0
C2925 C 0.25359 0.9428 0.03046 0.0
C2926 C 0.22986 0.95585 0.0347 0.0
C2927 C 0.24381 0.96414 0.02244 0.0
H2928 H 0.30615 0.01613 0.97678 0.0
H2929 H 0.35839 0.06462 0.98282 0.0
H2930 H 0.34522 0.08357 0.97677 0.0
H2931 H 0.31925 0.08613 0.96692 0.0
H2932 H 0.26737 0.03749 0.95929 0.0
H2933 H 0.28 0.01883 0.96905 0.0
C2934 C 0.31466 0.03086 0.97708 0.0
C2935 C 0.33327 0.0389 0.98009 0.0
C2936 C 0.30708 0.04163 0.97308 0.0
C2937 C 0.34405 0.05803 0.9804 0.0
C2938 C 0.33654 0.06889 0.97689 0.0
C2939 C 0.31074 0.07144 0.96738 0.0
C2940 C 0.29253 0.0631 0.96181 0.0
C2941 C 0.31815 0.06079 0.97269 0.0
C2942 C 0.28152 0.04413 0.96306 0.0
C2943 C 0.28872 0.03349 0.96867 0.0
H2944 H 0.98441 0.28027 0.98249 0.0
H2945 H 0.95293 0.29639 0.94847 0.0
H2946 H 0.93665 0.26759 0.93058 0.0
H2947 H 0.92879 0.23126 0.91975 0.0
H2948 H 0.96673 0.21171 0.95858 0.0
H2949 H 0.98349 0.24712 0.97865 0.0
C2950 C 0.97393 0.27679 0.9718 0.0
C2951 C 0.96964 0.29 0.9661 0.0
C2952 C 0.96582 0.25954 0.96288 0.0
C2953 C 0.95591 0.28588 0.9521 0.0
C2954 C 0.94641 0.26932 0.94145 0.0
C2955 C 0.93942 0.23442 0.93012 0.0
C2956 C 0.94366 0.2165 0.93926 0.0
C2957 C 0.94991 0.25545 0.94429 0.0
C2958 C 0.96359 0.22202 0.9547 0.0
C2959 C 0.97313 0.24361 0.96784 0.0
H2960 H 0.71145 0.66677 0.9923 0.0
H2961 H 0.72744 0.72045 0.0163 0.0
H2962 H 0.75328 0.73393 0.99654 0.0
H2963 H 0.77248 0.73023 0.97419 0.0
H2964 H 0.75809 0.67633 0.95233 0.0
H2965 H 0.73048 0.66317 0.96935 0.0
C2966 C 0.72046 0.68144 0.99296 0.0
C2967 C 0.71756 0.69262 0.00569 0.0
C2968 C 0.73562 0.68904 0.98199 0.0
C2969 C 0.72945 0.71157 0.00664 0.0
C2970 C 0.74423 0.71928 0.99537 0.0
C2971 C 0.76313 0.71564 0.97293 0.0
C2972 C 0.76716 0.70437 0.96168 0.0
C2973 C 0.74761 0.70811 0.98325 0.0
C2974 C 0.75517 0.6854 0.96055 0.0
C2975 C 0.73941 0.67784 0.97038 0.0
H2976 H 0.96143 0.70855 0.01806 0.0
H2977 H 0.96145 0.6702 0.97661 0.0
H2978 H 0.95249 0.68367 0.95181 0.0
H2979 H 0.94528 0.70684 0.9418 0.0
H2980 H 0.94554 0.74519 0.98334 0.0
H2981 H 0.95389 0.73128 0.0082 0.0
C2982 C 0.95941 0.70305 0.00362 0.0
C2983 C 0.96211 0.68837 0.99923 0.0
C2984 C 0.95434 0.7109 0.98944 0.0
C2985 C 0.95944 0.68147 0.98042 0.0
C2986 C 0.95435 0.68919 0.96621 0.0
C2987 C 0.94701 0.71201 0.95633 0.0
C2988 C 0.94449 0.72681 0.96079 0.0
C2989 C 0.95184 0.70396 0.97055 0.0
C2990 C 0.94714 0.73364 0.97961 0.0
C2991 C 0.95194 0.72572 0.99381 0.0
H2992 H 0.30932 0.29161 0.96462 0.0
H2993 H 0.36011 0.29389 0.96619 0.0
H2994 H 0.34482 0.26055 0.96145 0.0
H2995 H 0.31687 0.23076 0.95765 0.0
H2996 H 0.26635 0.22903 0.95399 0.0
H2997 H 0.28169 0.26226 0.95865 0.0
C2998 C 0.31704 0.2848 0.96399 0.0
C2999 C 0.33578 0.29511 0.966 0.0
C3000 C 0.30821 0.26578 0.96086 0.0
C3001 C 0.34566 0.28619 0.96474 0.0
C3002 C 0.33693 0.26716 0.96205 0.0
C3003 C 0.30925 0.23769 0.95781 0.0
C3004 C 0.29048 0.22745 0.95588 0.0
C3005 C 0.31819 0.25682 0.96019 0.0
C3006 C 0.28078 0.23661 0.95579 0.0
C3007 C 0.28954 0.25558 0.95842 0.0
H3008 H 0.71369 0.0267 0.99437 0.0
H3009 H 0.73293 0.07886 0.02418 0.0
H3010 H 0.76225 0.09026 0.01114 0.0
H3011 H 0.78318 0.08454 0.99366 0.0
H3012 H 0.76434 0.03217 0.96473 0.0
H3013 H 0.73409 0.02174 0.97498 0.0
C3014 C 0.72421 0.04065 0.99781 0.0
C3015 C 0.72112 0.05185 0.01038 0.0
C3016 C 0.74115 0.04705 0.99051 0.0
C3017 C 0.73493 0.0699 0.01465 0.0
C3018 C 0.75174 0.07643 0.00723 0.0
C3019 C 0.77236 0.07096 0.98933 0.0
C3020 C 0.77592 0.0592 0.97832 0.0
C3021 C 0.75511 0.06499 0.99552 0.0
C3022 C 0.76186 0.04153 0.97302 0.0
C3023 C 0.7446 0.03555 0.97895 0.0
H3024 H 0.70072 0.98697 0.04821 0.0
H3025 H 0.64923 0.93751 0.04607 0.0
H3026 H 0.66376 0.91944 0.05024 0.0
H3027 H 0.69116 0.91783 0.05492 0.0
H3028 H 0.74237 0.96759 0.05917 0.0
H3029 H 0.72788 0.98547 0.05379 0.0
C3030 C 0.69267 0.97221 0.04847 0.0
C3031 C 0.67394 0.96356 0.04666 0.0
C3032 C 0.70107 0.96201 0.05135 0.0
C3033 C 0.66368 0.94447 0.04739 0.0
C3034 C 0.67198 0.93415 0.0498 0.0
C3035 C 0.69911 0.93259 0.05466 0.0
C3036 C 0.71782 0.94138 0.05717 0.0
C3037 C 0.69066 0.94279 0.05189 0.0
C3038 C 0.72797 0.96052 0.05703 0.0
C3039 C 0.7197 0.97073 0.05398 0.0
H3040 H 0.03391 0.71912 0.07909 0.0
H3041 H 0.03171 0.71925 0.01839 0.0
H3042 H 0.04772 0.7527 0.01997 0.0
H3043 H 0.06116 0.78169 0.03864 0.0
H3044 H 0.05992 0.78137 0.09945 0.0
H3045 H 0.0468 0.74834 0.09784 0.0
C3046 C 0.03716 0.72656 0.06626 0.0
C3047 C 0.03189 0.71691 0.04865 0.0
C3048 C 0.04563 0.74572 0.06731 0.0
C3049 C 0.03576 0.72652 0.03207 0.0
C3050 C 0.04486 0.74559 0.03298 0.0
C3051 C 0.05781 0.77441 0.05156 0.0
C3052 C 0.06117 0.78413 0.06906 0.0
C3053 C 0.04962 0.75531 0.05054 0.0
C3054 C 0.05728 0.77441 0.08569 0.0
C3055 C 0.04975 0.75544 0.08481 0.0
H3056 H 0.27185 0.29797 0.99696 0.0
H3057 H 0.30874 0.33755 0.03938 0.0
H3058 H 0.28627 0.32399 0.06305 0.0
H3059 H 0.25617 0.30092 0.07171 0.0
H3060 H 0.21928 0.26141 0.02939 0.0
H3061 H 0.24182 0.27483 0.00566 0.0
C3062 C 0.27498 0.30367 0.01137 0.0
C3063 C 0.29194 0.31879 0.01636 0.0
C3064 C 0.26202 0.29581 0.02491 0.0
C3065 C 0.29578 0.32595 0.03513 0.0
C3066 C 0.28295 0.3182 0.04869 0.0
C3067 C 0.25306 0.29534 0.05725 0.0
C3068 C 0.236 0.28042 0.0522 0.0
C3069 C 0.26604 0.30315 0.04373 0.0
C3070 C 0.23224 0.27306 0.03352 0.0
C3071 C 0.24511 0.28071 0.01998 0.0
H3072 H 0.70743 0.6621 0.37174 0.0
H3073 H 0.68009 0.61235 0.33603 0.0
H3074 H 0.68929 0.59532 0.3554 0.0
H3075 H 0.70972 0.5921 0.38592 0.0
H3076 H 0.74176 0.65037 0.42967 0.0
H3077 H 0.72683 0.66669 0.40545 0.0
C3078 C 0.70397 0.64805 0.36894 0.0
C3079 C 0.69328 0.63792 0.35275 0.0
C3080 C 0.71058 0.64042 0.38137 0.0
C3081 C 0.68839 0.61943 0.34859 0.0
C3082 C 0.69355 0.60933 0.35965 0.0
C3083 C 0.71208 0.60551 0.39024 0.0
C3084 C 0.72979 0.6205 0.40841 0.0
C3085 C 0.70427 0.61728 0.37577 0.0
C3086 C 0.73256 0.6426 0.41792 0.0
C3087 C 0.72391 0.65289 0.40229 0.0
H3088 H 0.32808 0.03318 0.424 0.0
H3089 H 0.36157 0.0402 0.37685 0.0
H3090 H 0.38036 0.07297 0.38261 0.0
H3091 H 0.39048 0.10728 0.40254 0.0
H3092 H 0.35233 0.09888 0.46011 0.0
H3093 H 0.33264 0.06008 0.45021 0.0
C3094 C 0.33904 0.0421 0.41549 0.0
C3095 C 0.34395 0.03503 0.39991 0.0
C3096 C 0.34846 0.06045 0.4208 0.0
C3097 C 0.3585 0.04637 0.38867 0.0
C3098 C 0.36952 0.06535 0.3918 0.0
C3099 C 0.38041 0.0985 0.41198 0.0
C3100 C 0.37146 0.10762 0.43032 0.0
C3101 C 0.36671 0.07432 0.4067 0.0
C3102 C 0.3561 0.09316 0.44848 0.0
C3103 C 0.3434 0.06925 0.44167 0.0
H3104 H 0.95895 0.29466 0.35829 0.0
H3105 H 0.95328 0.34166 0.35019 0.0
H3106 H 0.92546 0.32744 0.36694 0.0
H3107 H 0.90174 0.30072 0.38203 0.0
H3108 H 0.90664 0.25298 0.3878 0.0
H3109 H 0.93576 0.26842 0.37387 0.0
C3110 C 0.95177 0.30192 0.3604 0.0
C3111 C 0.95818 0.31919 0.35301 0.0
C3112 C 0.93559 0.29347 0.36958 0.0
C3113 C 0.9486 0.32832 0.35571 0.0
C3114 C 0.93269 0.32018 0.36525 0.0
C3115 C 0.90936 0.29385 0.38049 0.0
C3116 C 0.90222 0.27593 0.3864 0.0
C3117 C 0.9259 0.30263 0.37197 0.0
C3118 C 0.91198 0.26694 0.38383 0.0
C3119 C 0.9286 0.27572 0.37575 0.0
H3120 H 0.99563 0.3743 0.31521 0.0
H3121 H 0.05066 0.40229 0.29948 0.0
H3122 H 0.05048 0.43083 0.29827 0.0
H3123 H 0.03499 0.44803 0.30226 0.0
H3124 H 0.97998 0.42033 0.31755 0.0
H3125 H 0.97987 0.39145 0.31844 0.0
C3126 C 0.00759 0.38663 0.31155 0.0
C3127 C 0.02313 0.38611 0.3075 0.0
C3128 C 0.0074 0.40303 0.31075 0.0
C3129 C 0.03848 0.40224 0.30263 0.0
C3130 C 0.03842 0.4186 0.30195 0.0
C3131 C 0.02292 0.43561 0.30553 0.0
C3132 C 0.00742 0.43619 0.30951 0.0
C3133 C 0.02298 0.41916 0.306 0.0
C3134 C 0.99198 0.42011 0.31417 0.0
C3135 C 0.99194 0.40365 0.31474 0.0
H3136 H 0.63853 0.61791 0.30637 0.0
H3137 H 0.60954 0.64591 0.29381 0.0
H3138 H 0.58141 0.61838 0.28627 0.0
H3139 H 0.5593 0.57982 0.27932 0.0
H3140 H 0.59184 0.54487 0.29511 0.0
H3141 H 0.62355 0.5798 0.30559 0.0
C3142 C 0.62615 0.61723 0.30204 0.0
C3143 C 0.62541 0.6334 0.30027 0.0
C3144 C 0.61114 0.6002 0.29802 0.0
C3145 C 0.60939 0.63312 0.29475 0.0
C3146 C 0.59293 0.61732 0.29039 0.0
C3147 C 0.57083 0.57963 0.28517 0.0
C3148 C 0.57305 0.55899 0.2829 0.0
C3149 C 0.59138 0.60043 0.29114 0.0
C3150 C 0.59157 0.55747 0.29506 0.0
C3151 C 0.61141 0.57928 0.30067 0.0
H3152 H 0.36445 0.99103 0.32153 0.0
H3153 H 0.38147 0.96304 0.35897 0.0
H3154 H 0.39922 0.96028 0.33448 0.0
H3155 H 0.40909 0.96466 0.30213 0.0
H3156 H 0.39309 0.99328 0.2646 0.0
H3157 H 0.37576 0.9969 0.28937 0.0
C3158 C 0.37213 0.98443 0.32435 0.0
C3159 C 0.37151 0.97716 0.34205 0.0
C3160 C 0.38241 0.98288 0.31015 0.0
C3161 C 0.38162 0.96872 0.34549 0.0
C3162 C 0.39178 0.96709 0.33147 0.0
C3163 C 0.40187 0.97175 0.29939 0.0
C3164 C 0.4022 0.9785 0.2815 0.0
C3165 C 0.39213 0.97393 0.3137 0.0
C3166 C 0.39288 0.98779 0.27822 0.0
C3167 C 0.38301 0.98989 0.29237 0.0
H3168 H 0.61486 0.01718 0.33335 0.0
H3169 H 0.62193 0.9799 0.29677 0.0
H3170 H 0.61329 0.99082 0.2693 0.0
H3171 H 0.60483 0.01185 0.25555 0.0
H3172 H 0.59892 0.04979 0.29221 0.0
H3173 H 0.60588 0.03764 0.31977 0.0
C3174 C 0.61444 0.01135 0.31939 0.0
C3175 C 0.61908 0.99775 0.31715 0.0
C3176 C 0.60959 0.01778 0.30366 0.0
C3177 C 0.61846 0.9904 0.29893 0.0
C3178 C 0.61352 0.99664 0.2832 0.0
C3179 C 0.60481 0.01723 0.26962 0.0
C3180 C 0.60096 0.03139 0.27185 0.0
C3181 C 0.60918 0.01041 0.28539 0.0
C3182 C 0.60143 0.03861 0.29012 0.0
C3183 C 0.60554 0.03175 0.30588 0.0
H3184 H 0.00487 0.63395 0.2744 0.0
H3185 H 0.00047 0.62977 0.33461 0.0
H3186 H 0.98309 0.5964 0.33059 0.0
H3187 H 0.96799 0.56862 0.30982 0.0
H3188 H 0.96914 0.57315 0.24939 0.0
H3189 H 0.9891 0.60606 0.25356 0.0
C3190 C 0.00026 0.62565 0.2866 0.0
C3191 C 0.00402 0.63414 0.30477 0.0
C3192 C 0.98964 0.60657 0.28411 0.0
C3193 C 0.99773 0.62341 0.32051 0.0
C3194 C 0.9878 0.60439 0.3182 0.0
C3195 C 0.97257 0.57683 0.29757 0.0
C3196 C 0.96697 0.56834 0.27938 0.0
C3197 C 0.98346 0.59585 0.30005 0.0
C3198 C 0.97315 0.57918 0.2636 0.0
C3199 C 0.98458 0.59806 0.26596 0.0
H3200 H 0.37009 0.36861 0.31103 0.0
H3201 H 0.40208 0.37355 0.36081 0.0
H3202 H 0.42737 0.38038 0.34147 0.0
H3203 H 0.44043 0.38477 0.31038 0.0
H3204 H 0.40854 0.37977 0.26059 0.0
H3205 H 0.38317 0.37303 0.27994 0.0
C3206 C 0.38261 0.37123 0.31766 0.0
C3207 C 0.38417 0.37059 0.33735 0.0
C3208 C 0.39712 0.3751 0.30644 0.0
C3209 C 0.40048 0.37396 0.34569 0.0
C3210 C 0.41497 0.37786 0.33464 0.0
C3211 C 0.42794 0.38227 0.30381 0.0
C3212 C 0.42642 0.38297 0.28413 0.0
C3213 C 0.41344 0.37844 0.31501 0.0
C3214 C 0.41007 0.37947 0.27575 0.0
C3215 C 0.39558 0.37562 0.28679 0.0
H3216 H 0.3557 0.32054 0.37569 0.0
H3217 H 0.30104 0.27748 0.38038 0.0
H3218 H 0.31098 0.25542 0.38446 0.0
H3219 H 0.33526 0.24837 0.38627 0.0
H3220 H 0.38989 0.29185 0.38304 0.0
H3221 H 0.37989 0.31381 0.37883 0.0
C3222 C 0.34593 0.30631 0.37752 0.0
C3223 C 0.32764 0.30063 0.37757 0.0
C3224 C 0.35174 0.29381 0.38014 0.0
C3225 C 0.3152 0.2822 0.38027 0.0
C3226 C 0.32087 0.26959 0.38259 0.0
C3227 C 0.34495 0.26267 0.38469 0.0
C3228 C 0.36326 0.26846 0.38472 0.0
C3229 C 0.33911 0.27524 0.38251 0.0
C3230 C 0.37571 0.28706 0.38285 0.0
C3231 C 0.37001 0.29959 0.38046 0.0
H3232 H 0.71034 0.03199 0.38889 0.0
H3233 H 0.66715 0.03546 0.36182 0.0
H3234 H 0.68527 0.06874 0.36365 0.0
H3235 H 0.7133 0.09684 0.37302 0.0
H3236 H 0.75709 0.09335 0.39836 0.0
H3237 H 0.73861 0.06009 0.3976 0.0
C3238 C 0.70487 0.04001 0.3834 0.0
C3239 C 0.6874 0.0312 0.37525 0.0
C3240 C 0.71543 0.05915 0.38427 0.0
C3241 C 0.68059 0.04184 0.36808 0.0
C3242 C 0.69091 0.0609 0.36919 0.0
C3243 C 0.71892 0.08884 0.37812 0.0
C3244 C 0.73676 0.0976 0.38524 0.0
C3245 C 0.70836 0.06969 0.37721 0.0
C3246 C 0.74353 0.08695 0.39246 0.0
C3247 C 0.73297 0.06793 0.39203 0.0
H3248 H 0.96674 0.65713 0.36355 0.0
H3249 H 0.95898 0.70149 0.34805 0.0
H3250 H 0.9283 0.68481 0.35797 0.0
H3251 H 0.90269 0.65623 0.36745 0.0
H3252 H 0.91007 0.61167 0.38271 0.0
H3253 H 0.9419 0.62984 0.37657 0.0
C3254 C 0.95845 0.6633 0.36266 0.0
C3255 C 0.9651 0.68044 0.35478 0.0
C3256 C 0.94067 0.65349 0.36813 0.0
C3257 C 0.95418 0.68825 0.35386 0.0
C3258 C 0.93659 0.67869 0.35948 0.0
C3259 C 0.91134 0.65062 0.36971 0.0
C3260 C 0.90404 0.63259 0.3753 0.0
C3261 C 0.92953 0.66108 0.36605 0.0
C3262 C 0.9154 0.6255 0.37829 0.0
C3263 C 0.93356 0.63586 0.37475 0.0
H3264 H 0.41322 0.03255 0.70354 0.0
H3265 H 0.35912 0.99731 0.72082 0.0
H3266 H 0.36755 0.98274 0.74443 0.0
H3267 H 0.393 0.97702 0.76534 0.0
H3268 H 0.45715 0.01676 0.74341 0.0
H3269 H 0.44334 0.03216 0.71663 0.0
C3270 C 0.40414 0.02226 0.7127 0.0
C3271 C 0.38554 0.01546 0.71095 0.0
C3272 C 0.41117 0.01531 0.72543 0.0
C3273 C 0.37321 0.00186 0.72267 0.0
C3274 C 0.37783 0.99323 0.73637 0.0
C3275 C 0.40223 0.98655 0.75571 0.0
C3276 C 0.42692 0.99756 0.75961 0.0
C3277 C 0.39537 0.99773 0.73928 0.0
C3278 C 0.44299 0.01189 0.74186 0.0
C3279 C 0.43444 0.02204 0.72601 0.0
H3280 H 0.96589 0.35252 0.73407 0.0
H3281 H 0.01479 0.36953 0.70533 0.0
H3282 H 0.02636 0.40098 0.7174 0.0
H3283 H 0.02357 0.42304 0.73853 0.0
H3284 H 0.97523 0.40498 0.76855 0.0
H3285 H 0.96247 0.37453 0.75353 0.0
C3286 C 0.97902 0.36308 0.73022 0.0
C3287 C 0.98951 0.35858 0.71894 0.0
C3288 C 0.98573 0.38097 0.73754 0.0
C3289 C 0.00644 0.37256 0.71405 0.0
C3290 C 0.0131 0.39055 0.72101 0.0
C3291 C 0.01013 0.41248 0.74146 0.0
C3292 C 0.00024 0.41638 0.75432 0.0
C3293 C 0.00301 0.39482 0.73312 0.0
C3294 C 0.98298 0.40248 0.75841 0.0
C3295 C 0.97571 0.38502 0.74991 0.0
H3296 H 0.62666 0.61934 0.69738 0.0
H3297 H 0.61766 0.66381 0.68627 0.0
H3298 H 0.59331 0.65204 0.70801 0.0
H3299 H 0.57324 0.62799 0.72839 0.0
H3300 H 0.58064 0.58223 0.73756 0.0
H3301 H 0.60698 0.59565 0.71849 0.0
C3302 C 0.61952 0.62659 0.69993 0.0
C3303 C 0.62394 0.64242 0.69024 0.0
C3304 C 0.60522 0.61947 0.71207 0.0
C3305 C 0.61446 0.65155 0.69351 0.0
C3306 C 0.60053 0.64483 0.70592 0.0
C3307 C 0.58084 0.62116 0.72647 0.0
C3308 C 0.57524 0.6044 0.73476 0.0
C3309 C 0.59561 0.62865 0.71502 0.0
C3310 C 0.58488 0.59536 0.73172 0.0
C3311 C 0.59989 0.60297 0.72071 0.0
H3312 H 0.70186 0.72348 0.62163 0.0
H3313 H 0.65506 0.69641 0.65471 0.0
H3314 H 0.65045 0.72237 0.65234 0.0
H3315 H 0.6596 0.75275 0.64062 0.0
H3316 H 0.70672 0.77983 0.60817 0.0
H3317 H 0.71125 0.75381 0.61049 0.0
C3318 C 0.69065 0.72321 0.62837 0.0
C3319 C 0.6788 0.70792 0.63827 0.0
C3320 C 0.68805 0.73815 0.62694 0.0
C3321 C 0.6644 0.70794 0.64697 0.0
C3322 C 0.66172 0.72279 0.6456 0.0
C3323 C 0.67075 0.75282 0.63392 0.0
C3324 C 0.68253 0.76795 0.62382 0.0
C3325 C 0.6734 0.73791 0.63553 0.0
C3326 C 0.69722 0.76814 0.61562 0.0
C3327 C 0.69987 0.75333 0.61704 0.0
H3328 H 0.28597 0.96517 0.62732 0.0
H3329 H 0.31962 0.96072 0.67008 0.0
H3330 H 0.30177 0.92749 0.66654 0.0
H3331 H 0.27755 0.89989 0.65048 0.0
H3332 H 0.24408 0.90437 0.60742 0.0
H3333 H 0.2612 0.93746 0.61185 0.0
C3334 C 0.28937 0.95698 0.63599 0.0
C3335 C 0.30419 0.96553 0.64893 0.0
C3336 C 0.27912 0.93786 0.63384 0.0
C3337 C 0.30833 0.95459 0.65999 0.0
C3338 C 0.29814 0.93555 0.65795 0.0
C3339 C 0.2736 0.90791 0.6423 0.0
C3340 C 0.25885 0.89929 0.62919 0.0
C3341 C 0.28358 0.92704 0.64482 0.0
C3342 C 0.25483 0.91038 0.61815 0.0
C3343 C 0.26471 0.92938 0.62057 0.0
H3344 H 0.03617 0.34333 0.65722 0.0
H3345 H 0.04672 0.30045 0.67127 0.0
H3346 H 0.07466 0.31551 0.65503 0.0
H3347 H 0.09693 0.34166 0.63836 0.0
H3348 H 0.08685 0.38484 0.62461 0.0
H3349 H 0.05793 0.3689 0.63926 0.0
C3350 C 0.04449 0.33719 0.65658 0.0
C3351 C 0.03936 0.32081 0.66554 0.0
C3352 C 0.06068 0.34602 0.64733 0.0
C3353 C 0.05034 0.31307 0.66458 0.0
C3354 C 0.06636 0.32169 0.65531 0.0
C3355 C 0.08826 0.34742 0.63831 0.0
C3356 C 0.09386 0.36424 0.63012 0.0
C3357 C 0.07177 0.33827 0.64685 0.0
C3358 C 0.08269 0.37177 0.63056 0.0
C3359 C 0.0662 0.3627 0.63898 0.0
H3360 H 0.30619 0.37645 0.68309 0.0
H3361 H 0.30396 0.33714 0.64135 0.0
H3362 H 0.29253 0.34925 0.61749 0.0
H3363 H 0.28305 0.37099 0.60851 0.0
H3364 H 0.28556 0.41034 0.65029 0.0
H3365 H 0.29704 0.39824 0.67411 0.0
C3366 C 0.30321 0.37051 0.66879 0.0
C3367 C 0.3059 0.35587 0.66406 0.0
C3368 C 0.29665 0.37753 0.65515 0.0
C3369 C 0.30201 0.3484 0.6454 0.0
C3370 C 0.29546 0.35531 0.63174 0.0
C3371 C 0.28603 0.37682 0.62287 0.0
C3372 C 0.28319 0.39134 0.62772 0.0
C3373 C 0.29269 0.36984 0.63647 0.0
C3374 C 0.2874 0.399 0.64628 0.0
C3375 C 0.294 0.39212 0.65989 0.0
H3376 H 0.68312 0.95515 0.63849 0.0
H3377 H 0.63479 0.95452 0.65314 0.0
H3378 H 0.61783 0.92137 0.64831 0.0
H3379 H 0.61655 0.89252 0.63948 0.0
H3380 H 0.66505 0.89289 0.62661 0.0
H3381 H 0.682 0.92617 0.63073 0.0
C3382 C 0.66889 0.94777 0.64069 0.0
C3383 C 0.66029 0.95737 0.64616 0.0
C3384 C 0.65919 0.92865 0.63804 0.0
C3385 C 0.64183 0.94753 0.64903 0.0
C3386 C 0.63207 0.92855 0.64618 0.0
C3387 C 0.63085 0.89988 0.63776 0.0
C3388 C 0.63956 0.89022 0.63299 0.0
C3389 C 0.64059 0.91897 0.64063 0.0
C3390 C 0.65806 0.89999 0.63042 0.0
C3391 C 0.66776 0.91902 0.63281 0.0
H3392 H 0.06879 0.72839 0.68115 0.0
H3393 H 0.03029 0.69454 0.63663 0.0
H3394 H 0.05394 0.69423 0.61893 0.0
H3395 H 0.08527 0.70193 0.61706 0.0
H3396 H 0.12362 0.73561 0.66162 0.0
H3397 H 0.10029 0.73756 0.6784 0.0
C3398 C 0.06557 0.72106 0.6675 0.0
C3399 C 0.04776 0.7114 0.66031 0.0
C3400 C 0.0792 0.72083 0.65745 0.0
C3401 C 0.04387 0.70207 0.64254 0.0
C3402 C 0.05738 0.70183 0.63242 0.0
C3403 C 0.08853 0.70991 0.6303 0.0
C3404 C 0.10616 0.71881 0.638 0.0
C3405 C 0.07504 0.71092 0.63988 0.0
C3406 C 0.11017 0.72883 0.65534 0.0
C3407 C 0.09684 0.72991 0.66494 0.0
H3408 H 0.95909 0.62058 0.71298 0.0
H3409 H 0.01332 0.65482 0.69637 0.0
H3410 H 0.02019 0.63116 0.70394 0.0
H3411 H 0.01109 0.6011 0.71616 0.0
H3412 H 0.95672 0.56649 0.73185 0.0
H3413 H 0.94969 0.59006 0.72399 0.0
C3414 C 0.9724 0.62287 0.71095 0.0
C3415 C 0.98567 0.63951 0.70418 0.0
C3416 C 0.97628 0.60918 0.71527 0.0
C3417 C 0.00282 0.64215 0.70152 0.0
C3418 C 0.0068 0.62864 0.70591 0.0
C3419 C 0.99767 0.59867 0.71766 0.0
C3420 C 0.98441 0.58203 0.72441 0.0
C3421 C 0.99367 0.61217 0.71291 0.0
C3422 C 0.96713 0.57915 0.72657 0.0
C3423 C 0.9631 0.59261 0.72209 0.0
H3424 H 0.35643 0.38602 0.71417 0.0
H3425 H 0.40016 0.37589 0.72096 0.0
H3426 H 0.42112 0.40864 0.72614 0.0
H3427 H 0.42703 0.44017 0.72856 0.0
H3428 H 0.38309 0.45016 0.72383 0.0
H3429 H 0.36216 0.41744 0.71814 0.0
C3430 C 0.37057 0.39101 0.71667 0.0
C3431 C 0.37677 0.37858 0.71701 0.0
C3432 C 0.38247 0.40981 0.72007 0.0
C3433 C 0.39507 0.3852 0.72061 0.0
C3434 C 0.40705 0.40391 0.72357 0.0
C3435 C 0.41286 0.43516 0.72632 0.0
C3436 C 0.40665 0.44759 0.72626 0.0
C3437 C 0.4009 0.41634 0.72335 0.0
C3438 C 0.38822 0.44089 0.72364 0.0
C3439 C 0.37626 0.42219 0.7204 0.0
H3440 H 0.6185 0.03126 0.68257 0.0
H3441 H 0.62587 0.98796 0.70271 0.0
H3442 H 0.59746 0.97502 0.71816 0.0
H3443 H 0.56933 0.97452 0.72364 0.0
H3444 H 0.56177 0.01747 0.70302 0.0
H3445 H 0.59146 0.03205 0.69008 0.0
C3446 C 0.614 0.01911 0.69051 0.0
C3447 C 0.62423 0.01051 0.6913 0.0
C3448 C 0.59756 0.01162 0.6992 0.0
C3449 C 0.61823 0.99482 0.70177 0.0
C3450 C 0.60195 0.98737 0.71058 0.0
C3451 C 0.57436 0.98726 0.71663 0.0
C3452 C 0.56348 0.99503 0.71445 0.0
C3453 C 0.59134 0.99543 0.70906 0.0
C3454 C 0.57 0.01136 0.70504 0.0
C3455 C 0.58692 0.01964 0.69758 0.0
loop_
_geom_bond_atom_site_label_1
_geom_bond_atom_site_label_2
_geom_bond_distance
_geom_bond_site_symmetry_2
_ccdc_geom_bond_type
Mg0 O1 2.028 1_556 S
Mg0 O7 1.986 1_455 S
Mg0 O9 2.114 . S
Mg0 O10 2.251 . S
Mg0 O13 2.010 1_556 S
O1 Mg0 2.028 1_554 S
O1 C4 1.250 1_455 S
O2 Mg3 2.028 1_554 S
O2 C4 1.248 . S
Mg3 O2 2.028 1_556 S
Mg3 O8 2.032 . S
Mg3 O10 2.079 1_655 S
C4 O1 1.250 1_655 S
C4 O2 1.248 . S
C5 O6 1.264 . S
C5 O13 1.249 . S
O6 C5 1.264 . S
O7 Mg0 1.986 1_655 S
O7 C11 1.246 . S
O8 Mg3 2.032 . S
O8 C11 1.259 . S
O9 Mg0 2.114 . S
O9 C12 1.252 . S
O10 Mg0 2.251 . S
O10 Mg3 2.079 1_455 S
O10 C12 1.273 . S
C11 O7 1.246 . S
C11 O8 1.259 . S
C12 O9 1.252 . S
C12 O10 1.273 . S
O13 Mg0 2.010 1_554 S
O13 C5 1.249 . S
Mg14 O15 2.028 . S
Mg14 O21 1.986 . S
Mg14 O23 2.114 . S
Mg14 O24 2.251 . S
Mg14 O27 2.010 . S
O15 Mg14 2.028 . S
O15 C18 1.245 1_554 S
O16 Mg17 2.028 . S
O16 C18 1.203 1_554 S
Mg17 O16 2.028 . S
Mg17 O22 2.032 . S
Mg17 O24 2.079 . S
C18 O15 1.245 1_556 S
C18 O16 1.203 1_556 S
C19 O20 1.264 . S
C19 O27 1.249 . S
O20 C19 1.264 . S
O21 Mg14 1.986 . S
O21 C25 1.246 . S
O22 Mg17 2.032 . S
O22 C25 1.259 . S
O23 Mg14 2.114 . S
O23 C26 1.252 . S
O24 Mg14 2.251 . S
O24 Mg17 2.079 . S
O24 C26 1.273 . S
C25 O21 1.246 . S
C25 O22 1.259 . S
C26 O23 1.252 . S
C26 O24 1.273 . S
O27 Mg14 2.010 . S
O27 C19 1.249 . S
Mg28 O29 1.982 1_566 S
Mg28 O35 1.990 1_565 S
Mg28 O37 2.130 . S
Mg28 O38 2.284 1_565 S
Mg28 O41 1.988 1_556 S
O29 Mg28 1.982 1_544 S
O29 C32 1.250 . S
O30 Mg31 2.028 1_554 S
O30 C32 1.248 . S
Mg31 O30 2.028 1_556 S
Mg31 O36 2.032 . S
Mg31 O38 2.079 . S
C32 O29 1.250 . S
C32 O30 1.248 . S
C33 O34 1.264 . S
C33 O41 1.249 . S
O34 C33 1.264 . S
O35 Mg28 1.990 1_545 S
O35 C39 1.246 . S
O36 Mg31 2.032 . S
O36 C39 1.259 . S
O37 Mg28 2.130 . S
O37 C40 1.252 . S
O38 Mg28 2.284 1_545 S
O38 Mg31 2.079 . S
O38 C40 1.273 1_545 S
C39 O35 1.246 . S
C39 O36 1.259 . S
C40 O37 1.252 . S
C40 O38 1.273 1_565 S
O41 Mg28 1.988 1_554 S
O41 C33 1.249 . S
Mg42 O43 2.028 1_654 S
Mg42 O49 1.986 1_655 S
Mg42 O51 2.114 . S
Mg42 O52 2.251 1_655 S
Mg42 O55 2.010 . S
O43 Mg42 2.028 1_456 S
O43 C46 1.250 . S
O44 Mg45 2.028 . S
O44 C46 1.248 1_554 S
Mg45 O44 2.028 . S
Mg45 O50 2.032 . S
Mg45 O52 2.079 . S
C46 O43 1.250 . S
C46 O44 1.248 1_556 S
C47 O48 1.264 . S
C47 O55 1.249 . S
O48 C47 1.264 . S
O49 Mg42 1.986 1_455 S
O49 C53 1.246 . S
O50 Mg45 2.032 . S
O50 C53 1.259 . S
O51 Mg42 2.114 . S
O51 C54 1.252 . S
O52 Mg42 2.251 1_455 S
O52 Mg45 2.079 . S
O52 C54 1.273 1_455 S
C53 O49 1.246 . S
C53 O50 1.259 . S
C54 O51 1.252 . S
C54 O52 1.273 1_655 S
O55 Mg42 2.010 . S
O55 C47 1.249 . S
Mg56 O57 2.028 1_556 S
Mg56 O63 1.986 . S
Mg56 O65 2.114 . S
Mg56 O66 2.251 . S
Mg56 O69 2.010 1_556 S
O57 Mg56 2.028 1_554 S
O57 C60 1.250 . S
O58 Mg59 2.028 1_554 S
O58 C60 1.248 . S
Mg59 O58 2.028 1_556 S
Mg59 O64 2.032 . S
Mg59 O66 2.079 . S
C60 O57 1.250 . S
C60 O58 1.248 . S
C61 O62 1.264 . S
C61 O69 1.249 . S
O62 C61 1.264 . S
O63 Mg56 1.986 . S
O63 C67 1.246 . S
O64 Mg59 2.032 . S
O64 C67 1.259 . S
O65 Mg56 2.114 . S
O65 C68 1.252 . S
O66 Mg56 2.251 . S
O66 Mg59 2.079 . S
O66 C68 1.273 . S
C67 O63 1.246 . S
C67 O64 1.259 . S
C68 O65 1.252 . S
C68 O66 1.273 . S
O69 Mg56 2.010 1_554 S
O69 C61 1.249 . S
Mg70 O71 2.028 1_554 S
Mg70 O77 1.986 1_545 S
Mg70 O79 2.114 . S
Mg70 O80 2.247 . S
Mg70 O83 2.010 . S
O71 Mg70 2.028 1_556 S
O71 C74 1.250 1_545 S
O72 Mg73 2.028 . S
O72 C74 1.248 1_554 S
Mg73 O72 2.028 . S
Mg73 O78 2.032 . S
Mg73 O80 2.034 1_565 S
C74 O71 1.250 1_565 S
C74 O72 1.248 1_556 S
C75 O76 1.264 . S
C75 O83 1.249 . S
O76 C75 1.264 . S
O77 Mg70 1.986 1_565 S
O77 C81 1.246 . S
O78 Mg73 2.032 . S
O78 C81 1.259 . S
O79 Mg70 2.114 . S
O79 C82 1.252 . S
O80 Mg70 2.247 . S
O80 Mg73 2.034 1_545 S
O80 C82 1.336 . S
C81 O77 1.246 . S
C81 O78 1.259 . S
C82 O79 1.252 . S
C82 O80 1.336 . S
O83 Mg70 2.010 . S
O83 C75 1.249 . S
Mg84 O85 2.028 . S
Mg84 O91 1.986 . S
Mg84 O93 2.114 . S
Mg84 O94 2.251 . S
Mg84 O97 2.010 . S
O85 Mg84 2.028 . S
O85 C88 1.250 . S
O86 Mg87 2.028 . S
O86 C88 1.248 . S
Mg87 O86 2.028 . S
Mg87 O92 2.032 . S
Mg87 O94 2.079 . S
C88 O85 1.250 . S
C88 O86 1.248 . S
C89 O90 1.264 . S
C89 O97 1.249 . S
O90 C89 1.264 . S
O91 Mg84 1.986 . S
O91 C95 1.246 . S
O92 Mg87 2.032 . S
O92 C95 1.259 . S
O93 Mg84 2.114 . S
O93 C96 1.252 . S
O94 Mg84 2.251 . S
O94 Mg87 2.079 . S
O94 C96 1.273 . S
C95 O91 1.246 . S
C95 O92 1.259 . S
C96 O93 1.252 . S
C96 O94 1.273 . S
O97 Mg84 2.010 . S
O97 C89 1.249 . S
Mg98 O99 2.028 . S
Mg98 O105 1.986 1_565 S
Mg98 O107 2.114 . S
Mg98 O108 2.251 . S
Mg98 O111 2.010 . S
O99 Mg98 2.028 . S
O99 C102 1.250 . S
O100 Mg101 2.028 . S
O100 C102 1.248 . S
Mg101 O100 2.028 . S
Mg101 O106 2.032 1_565 S
Mg101 O108 2.079 . S
C102 O99 1.250 . S
C102 O100 1.248 . S
C103 O104 1.264 . S
C103 O111 1.249 . S
O104 C103 1.264 . S
O105 Mg98 1.986 1_545 S
O105 C109 1.246 . S
O106 Mg101 2.032 1_545 S
O106 C109 1.259 . S
O107 Mg98 2.114 . S
O107 C110 1.252 . S
O108 Mg98 2.251 . S
O108 Mg101 2.079 . S
O108 C110 1.273 . S
C109 O105 1.246 . S
C109 O106 1.259 . S
C110 O107 1.252 . S
C110 O108 1.273 . S
O111 Mg98 2.010 . S
O111 C103 1.249 . S
Mg112 O113 2.028 . S
Mg112 O119 1.986 . S
Mg112 O121 2.114 . S
Mg112 O122 2.251 . S
Mg112 O125 2.010 1_455 S
O113 Mg112 2.028 . S
O113 C116 1.250 . S
O114 Mg115 2.028 . S
O114 C116 1.248 . S
Mg115 O114 2.028 . S
Mg115 O120 2.032 . S
Mg115 O122 2.079 . S
C116 O113 1.250 . S
C116 O114 1.248 . S
C117 O118 1.264 . S
C117 O125 1.249 . S
O118 C117 1.264 . S
O119 Mg112 1.986 . S
O119 C123 1.246 . S
O120 Mg115 2.032 . S
O120 C123 1.259 . S
O121 Mg112 2.114 . S
O121 C124 1.252 . S
O122 Mg112 2.251 . S
O122 Mg115 2.079 . S
O122 C124 1.273 . S
C123 O119 1.246 . S
C123 O120 1.259 . S
C124 O121 1.252 . S
C124 O122 1.273 . S
O125 Mg112 2.010 1_655 S
O125 C117 1.249 . S
Mg126 O127 2.028 . S
Mg126 O133 1.986 1_565 S
Mg126 O135 2.114 . S
Mg126 O136 2.251 . S
Mg126 O139 2.010 . S
O127 Mg126 2.028 . S
O127 C130 1.250 . S
O128 Mg129 2.028 . S
O128 C130 1.248 . S
Mg129 O128 2.028 . S
Mg129 O134 2.032 1_565 S
Mg129 O136 2.079 . S
C130 O127 1.250 . S
C130 O128 1.248 . S
C131 O132 1.264 . S
C131 O139 1.249 . S
O132 C131 1.264 . S
O133 Mg126 1.986 1_545 S
O133 C137 1.246 . S
O134 Mg129 2.032 1_545 S
O134 C137 1.259 . S
O135 Mg126 2.114 . S
O135 C138 1.252 . S
O136 Mg126 2.251 . S
O136 Mg129 2.079 . S
O136 C138 1.273 . S
C137 O133 1.246 . S
C137 O134 1.259 . S
C138 O135 1.252 . S
C138 O136 1.273 . S
O139 Mg126 2.010 . S
O139 C131 1.249 . S
Mg140 O141 2.028 . S
Mg140 O147 1.986 . S
Mg140 O149 2.114 . S
Mg140 O150 2.251 . S
Mg140 O153 2.010 1_455 S
O141 Mg140 2.028 . S
O141 C144 1.250 . S
O142 Mg143 2.028 . S
O142 C144 1.248 . S
Mg143 O142 2.028 . S
Mg143 O148 2.032 . S
Mg143 O150 2.079 . S
C144 O141 1.250 . S
C144 O142 1.248 . S
C145 O146 1.264 . S
C145 O153 1.249 . S
O146 C145 1.264 . S
O147 Mg140 1.986 . S
O147 C151 1.246 . S
O148 Mg143 2.032 . S
O148 C151 1.259 . S
O149 Mg140 2.114 . S
O149 C152 1.252 . S
O150 Mg140 2.251 . S
O150 Mg143 2.079 . S
O150 C152 1.273 . S
C151 O147 1.246 . S
C151 O148 1.259 . S
C152 O149 1.252 . S
C152 O150 1.273 . S
O153 Mg140 2.010 1_655 S
O153 C145 1.249 . S
Mg154 O155 2.028 . S
Mg154 O161 1.986 . S
Mg154 O163 2.114 . S
Mg154 O164 2.251 . S
Mg154 O167 2.010 . S
O155 Mg154 2.028 . S
O155 C158 1.250 . S
O156 Mg157 2.028 . S
O156 C158 1.248 . S
Mg157 O156 2.028 . S
Mg157 O162 2.032 . S
Mg157 O164 2.079 . S
C158 O155 1.250 . S
C158 O156 1.248 . S
C159 O160 1.264 . S
C159 O167 1.249 . S
O160 C159 1.264 . S
O161 Mg154 1.986 . S
O161 C165 1.246 . S
O162 Mg157 2.032 . S
O162 C165 1.259 . S
O163 Mg154 2.114 . S
O163 C166 1.252 . S
O164 Mg154 2.251 . S
O164 Mg157 2.079 . S
O164 C166 1.273 . S
C165 O161 1.246 . S
C165 O162 1.259 . S
C166 O163 1.252 . S
C166 O164 1.273 . S
O167 Mg154 2.010 . S
O167 C159 1.249 . S
Mg168 O169 2.028 . S
Mg168 O175 1.986 1_545 S
Mg168 O177 2.114 . S
Mg168 O178 2.251 . S
Mg168 O181 2.010 . S
O169 Mg168 2.028 . S
O169 C172 1.250 . S
O170 Mg171 2.028 . S
O170 C172 1.248 . S
Mg171 O170 2.028 . S
Mg171 O176 2.032 1_545 S
Mg171 O178 2.079 . S
C172 O169 1.250 . S
C172 O170 1.248 . S
C173 O174 1.264 . S
C173 O181 1.249 . S
O174 C173 1.264 . S
O175 Mg168 1.986 1_565 S
O175 C179 1.246 . S
O176 Mg171 2.032 1_565 S
O176 C179 1.259 . S
O177 Mg168 2.114 . S
O177 C180 1.252 . S
O178 Mg168 2.251 . S
O178 Mg171 2.079 . S
O178 C180 1.273 . S
C179 O175 1.246 . S
C179 O176 1.259 . S
C180 O177 1.252 . S
C180 O178 1.273 . S
O181 Mg168 2.010 . S
O181 C173 1.249 . S
Mg182 O183 2.028 . S
Mg182 O189 1.986 . S
Mg182 O191 2.114 . S
Mg182 O192 2.251 . S
Mg182 O195 2.010 1_655 S
O183 Mg182 2.028 . S
O183 C186 1.250 . S
O184 Mg185 2.028 . S
O184 C186 1.248 . S
Mg185 O184 2.028 . S
Mg185 O190 2.032 . S
Mg185 O192 2.079 . S
C186 O183 1.250 . S
C186 O184 1.248 . S
C187 O188 1.264 . S
C187 O195 1.249 . S
O188 C187 1.264 . S
O189 Mg182 1.986 . S
O189 C193 1.246 . S
O190 Mg185 2.032 . S
O190 C193 1.259 . S
O191 Mg182 2.114 . S
O191 C194 1.252 . S
O192 Mg182 2.251 . S
O192 Mg185 2.079 . S
O192 C194 1.273 . S
C193 O189 1.246 . S
C193 O190 1.259 . S
C194 O191 1.252 . S
C194 O192 1.273 . S
O195 Mg182 2.010 1_455 S
O195 C187 1.249 . S
Mg196 O197 2.028 . S
Mg196 O203 1.986 . S
Mg196 O205 2.114 . S
Mg196 O206 2.251 . S
Mg196 O209 2.010 . S
O197 Mg196 2.028 . S
O197 C200 1.250 . S
O198 Mg199 2.028 . S
O198 C200 1.248 . S
Mg199 O198 2.028 . S
Mg199 O204 2.032 . S
Mg199 O206 2.079 . S
C200 O197 1.250 . S
C200 O198 1.248 . S
C201 O202 1.264 . S
C201 O209 1.249 . S
O202 C201 1.264 . S
O203 Mg196 1.986 . S
O203 C207 1.246 . S
O204 Mg199 2.032 . S
O204 C207 1.259 . S
O205 Mg196 2.114 . S
O205 C208 1.252 . S
O206 Mg196 2.251 . S
O206 Mg199 2.079 . S
O206 C208 1.273 . S
C207 O203 1.246 . S
C207 O204 1.259 . S
C208 O205 1.252 . S
C208 O206 1.273 . S
O209 Mg196 2.010 . S
O209 C201 1.249 . S
Mg210 O211 2.028 . S
Mg210 O217 1.986 . S
Mg210 O219 2.114 . S
Mg210 O220 2.251 . S
Mg210 O223 2.010 . S
O211 Mg210 2.028 . S
O211 C214 1.250 . S
O212 Mg213 2.028 . S
O212 C214 1.248 . S
Mg213 O212 2.028 . S
Mg213 O218 2.032 . S
Mg213 O220 2.079 . S
C214 O211 1.250 . S
C214 O212 1.248 . S
C215 O216 1.264 . S
C215 O223 1.249 . S
O216 C215 1.264 . S
O217 Mg210 1.986 . S
O217 C221 1.246 . S
O218 Mg213 2.032 . S
O218 C221 1.259 . S
O219 Mg210 2.114 . S
O219 C222 1.252 . S
O220 Mg210 2.251 . S
O220 Mg213 2.079 . S
O220 C222 1.273 . S
C221 O217 1.246 . S
C221 O218 1.259 . S
C222 O219 1.252 . S
C222 O220 1.273 . S
O223 Mg210 2.010 . S
O223 C215 1.249 . S
Mg224 O225 2.028 . S
Mg224 O231 1.986 1_545 S
Mg224 O233 2.114 . S
Mg224 O234 2.251 . S
Mg224 O237 2.010 . S
O225 Mg224 2.028 . S
O225 C228 1.250 . S
O226 Mg227 2.028 . S
O226 C228 1.248 . S
Mg227 O226 2.028 . S
Mg227 O232 2.032 1_545 S
Mg227 O234 2.079 . S
C228 O225 1.250 . S
C228 O226 1.248 . S
C229 O230 1.264 . S
C229 O237 1.249 . S
O230 C229 1.264 . S
O231 Mg224 1.986 1_565 S
O231 C235 1.246 . S
O232 Mg227 2.032 1_565 S
O232 C235 1.259 . S
O233 Mg224 2.114 . S
O233 C236 1.252 . S
O234 Mg224 2.251 . S
O234 Mg227 2.079 . S
O234 C236 1.273 . S
C235 O231 1.246 . S
C235 O232 1.259 . S
C236 O233 1.252 . S
C236 O234 1.273 . S
O237 Mg224 2.010 . S
O237 C229 1.249 . S
Mg238 O239 2.028 . S
Mg238 O245 1.986 . S
Mg238 O247 2.114 . S
Mg238 O248 2.251 . S
Mg238 O251 2.010 1_655 S
O239 Mg238 2.028 . S
O239 C242 1.250 . S
O240 Mg241 2.028 . S
O240 C242 1.248 . S
Mg241 O240 2.028 . S
Mg241 O246 2.032 . S
Mg241 O248 2.079 . S
C242 O239 1.250 . S
C242 O240 1.248 . S
C243 O244 1.264 . S
C243 O251 1.249 . S
O244 C243 1.264 . S
O245 Mg238 1.986 . S
O245 C249 1.246 . S
O246 Mg241 2.032 . S
O246 C249 1.259 . S
O247 Mg238 2.114 . S
O247 C250 1.252 . S
O248 Mg238 2.251 . S
O248 Mg241 2.079 . S
O248 C250 1.273 . S
C249 O245 1.246 . S
C249 O246 1.259 . S
C250 O247 1.252 . S
C250 O248 1.273 . S
O251 Mg238 2.010 1_455 S
O251 C243 1.249 . S
C252 C253 1.560 . S
C252 H313 0.959 . S
C252 H314 0.959 . S
C252 H315 0.960 . S
C253 C252 1.560 . S
C253 O308 1.426 . S
C253 H312 0.980 . S
C254 C255 1.407 . S
C254 C259 1.418 . S
C254 O308 1.334 . S
C255 C254 1.407 . S
C255 C256 1.360 . S
C255 H316 0.929 . S
C256 C255 1.360 . S
C256 C257 1.401 . S
C256 C260 1.527 . S
C257 C256 1.401 . S
C257 C258 1.405 . S
C257 C290 1.587 . S
C258 C257 1.405 . S
C258 C259 1.332 . S
C258 C261 1.496 . S
C259 C254 1.418 . S
C259 C258 1.332 . S
C259 H317 0.929 . S
C260 C256 1.527 . S
C260 H318 0.959 . S
C260 H319 0.961 . S
C260 H320 0.961 . S
C261 C258 1.496 . S
C261 H321 0.960 . S
C261 H322 0.960 . S
C261 H323 0.961 . S
C262 C263 1.517 . S
C262 H325 0.961 . S
C262 H326 0.960 . S
C262 H327 0.959 . S
C263 C262 1.517 . S
C263 O311 1.468 . S
C263 H324 0.980 . S
C264 C265 1.349 . S
C264 C269 1.367 . S
C264 O311 1.408 . S
C265 C264 1.349 . S
C265 C266 1.407 . S
C265 H328 0.930 . S
C266 C265 1.407 . S
C266 C267 1.449 . S
C266 C270 1.535 . S
C267 C266 1.449 . S
C267 C268 1.384 . S
C267 C292 1.553 . S
C268 C267 1.384 . S
C268 C269 1.364 . S
C268 C271 1.450 . S
C269 C264 1.367 . S
C269 C268 1.364 . S
C269 H329 0.931 . S
C270 C266 1.535 . S
C270 H330 0.959 . S
C270 H331 0.961 . S
C270 H332 0.959 . S
C271 C268 1.450 . S
C271 H333 0.960 . S
C271 H334 0.960 . S
C271 H335 0.960 . S
C272 C273 1.309 . S
C272 C277 1.304 . S
C272 O310 1.435 . S
C273 C272 1.309 . S
C273 C274 1.476 . S
C273 H337 0.930 . S
C274 C273 1.476 . S
C274 C275 1.400 . S
C274 C278 1.567 . S
C275 C274 1.400 . S
C275 C276 1.373 . S
C275 C297 1.432 . S
C276 C275 1.373 . S
C276 C277 1.339 . S
C276 C279 1.530 . S
C277 C272 1.304 . S
C277 C276 1.339 . S
C277 H338 0.930 . S
C278 C274 1.567 . S
C278 H339 0.961 . S
C278 H340 0.960 . S
C278 H341 0.958 . S
C279 C276 1.530 . S
C279 H342 0.961 . S
C279 H343 0.960 . S
C279 H344 0.960 . S
C280 C281 1.530 . S
C280 H346 0.961 . S
C280 H347 0.961 . S
C280 H348 0.959 . S
C281 C280 1.530 . S
C281 O309 1.412 . S
C281 H345 0.980 . S
C282 C283 1.288 . S
C282 C287 1.377 . S
C282 O309 1.393 . S
C283 C282 1.288 . S
C283 C284 1.369 . S
C283 H349 0.932 . S
C284 C283 1.369 . S
C284 C285 1.398 . S
C284 C288 1.527 . S
C285 C284 1.398 . S
C285 C286 1.380 . S
C285 C299 1.497 . S
C286 C285 1.380 . S
C286 C287 1.383 . S
C286 C289 1.603 . S
C287 C282 1.377 . S
C287 C286 1.383 . S
C287 H350 0.929 . S
C288 C284 1.527 . S
C288 H351 0.961 . S
C288 H352 0.959 . S
C288 H353 0.959 . S
C289 C286 1.603 . S
C289 H354 0.960 . S
C289 H355 0.962 . S
C289 H356 0.961 . S
C290 C257 1.587 . S
C290 C291 1.360 . S
C290 C303 1.412 . S
C291 C290 1.360 . S
C291 C292 1.365 . S
C291 H357 0.929 . S
C292 C267 1.553 . S
C292 C291 1.365 . S
C292 C293 1.404 . S
C293 C292 1.404 . S
C293 C294 1.395 . S
C293 C304 1.451 . S
C294 C293 1.395 . S
C294 C295 1.322 . S
C294 H358 0.930 . S
C295 C294 1.322 . S
C295 C296 1.459 . S
C295 H359 0.929 . S
C296 C295 1.459 . S
C296 C297 1.445 . S
C296 C305 1.395 . S
C297 C275 1.432 . S
C297 C296 1.445 . S
C297 C298 1.370 . S
C298 C297 1.370 . S
C298 C299 1.438 . S
C298 H360 0.930 . S
C299 C285 1.497 . S
C299 C298 1.438 . S
C299 C300 1.360 . S
C300 C299 1.360 . S
C300 C301 1.401 . S
C300 C305 1.446 . S
C301 C300 1.401 . S
C301 C302 1.347 . S
C301 H361 0.929 . S
C302 C301 1.347 . S
C302 C303 1.455 . S
C302 H362 0.930 . S
C303 C290 1.412 . S
C303 C302 1.455 . S
C303 C304 1.331 . S
C304 C293 1.451 . S
C304 C303 1.331 . S
C304 C305 1.497 . S
C305 C296 1.395 . S
C305 C300 1.446 . S
C305 C304 1.497 . S
C306 C307 1.582 . S
C306 H363 0.962 . S
C306 H364 0.959 . S
C306 H365 0.958 . S
C307 C306 1.582 . S
C307 O310 1.458 . S
C307 H336 0.980 . S
O308 C253 1.426 . S
O308 C254 1.334 . S
O309 C281 1.412 . S
O309 C282 1.393 . S
O310 C272 1.435 . S
O310 C307 1.458 . S
O311 C263 1.468 . S
O311 C264 1.408 . S
H312 C253 0.980 . S
H313 C252 0.959 . S
H314 C252 0.959 . S
H315 C252 0.960 . S
H316 C255 0.929 . S
H317 C259 0.929 . S
H318 C260 0.959 . S
H319 C260 0.961 . S
H320 C260 0.961 . S
H321 C261 0.960 . S
H322 C261 0.960 . S
H323 C261 0.961 . S
H324 C263 0.980 . S
H325 C262 0.961 . S
H326 C262 0.960 . S
H327 C262 0.959 . S
H328 C265 0.930 . S
H329 C269 0.931 . S
H330 C270 0.959 . S
H331 C270 0.961 . S
H332 C270 0.959 . S
H333 C271 0.960 . S
H334 C271 0.960 . S
H335 C271 0.960 . S
H336 C307 0.980 . S
H337 C273 0.930 . S
H338 C277 0.930 . S
H339 C278 0.961 . S
H340 C278 0.960 . S
H341 C278 0.958 . S
H342 C279 0.961 . S
H343 C279 0.960 . S
H344 C279 0.960 . S
H345 C281 0.980 . S
H346 C280 0.961 . S
H347 C280 0.961 . S
H348 C280 0.959 . S
H349 C283 0.932 . S
H350 C287 0.929 . S
H351 C288 0.961 . S
H352 C288 0.959 . S
H353 C288 0.959 . S
H354 C289 0.960 . S
H355 C289 0.962 . S
H356 C289 0.961 . S
H357 C291 0.929 . S
H358 C294 0.930 . S
H359 C295 0.929 . S
H360 C298 0.930 . S
H361 C301 0.929 . S
H362 C302 0.930 . S
H363 C306 0.962 . S
H364 C306 0.959 . S
H365 C306 0.958 . S
C366 C367 1.560 . S
C366 H427 0.959 . S
C366 H428 0.959 . S
C366 H429 0.960 . S
C367 C366 1.560 . S
C367 O422 1.426 . S
C367 H426 0.980 . S
C368 C369 1.407 . S
C368 C373 1.418 . S
C368 O422 1.334 . S
C369 C368 1.407 . S
C369 C370 1.360 . S
C369 H430 0.929 . S
C370 C369 1.360 . S
C370 C371 1.401 . S
C370 C374 1.527 . S
C371 C370 1.401 . S
C371 C372 1.405 . S
C371 C404 1.587 . S
C372 C371 1.405 . S
C372 C373 1.332 . S
C372 C375 1.496 . S
C373 C368 1.418 . S
C373 C372 1.332 . S
C373 H431 0.929 . S
C374 C370 1.527 . S
C374 H432 0.959 . S
C374 H433 0.961 . S
C374 H434 0.961 . S
C375 C372 1.496 . S
C375 H435 0.960 . S
C375 H436 0.960 . S
C375 H437 0.961 . S
C376 C377 1.517 . S
C376 H439 0.961 . S
C376 H440 0.960 . S
C376 H441 0.959 . S
C377 C376 1.517 . S
C377 O425 1.468 . S
C377 H438 0.980 . S
C378 C379 1.349 . S
C378 C383 1.367 . S
C378 O425 1.408 . S
C379 C378 1.349 . S
C379 C380 1.407 . S
C379 H442 0.930 . S
C380 C379 1.407 . S
C380 C381 1.449 . S
C380 C384 1.535 . S
C381 C380 1.449 . S
C381 C382 1.384 . S
C381 C406 1.553 . S
C382 C381 1.384 . S
C382 C383 1.364 . S
C382 C385 1.450 . S
C383 C378 1.367 . S
C383 C382 1.364 . S
C383 H443 0.931 . S
C384 C380 1.535 . S
C384 H444 0.959 . S
C384 H445 0.961 . S
C384 H446 0.959 . S
C385 C382 1.450 . S
C385 H447 0.960 . S
C385 H448 0.960 . S
C385 H449 0.960 . S
C386 C387 1.309 . S
C386 C391 1.304 . S
C386 O424 1.435 . S
C387 C386 1.309 . S
C387 C388 1.476 . S
C387 H451 0.930 . S
C388 C387 1.476 . S
C388 C389 1.400 . S
C388 C392 1.567 . S
C389 C388 1.400 . S
C389 C390 1.373 . S
C389 C411 1.432 . S
C390 C389 1.373 . S
C390 C391 1.339 . S
C390 C393 1.530 . S
C391 C386 1.304 . S
C391 C390 1.339 . S
C391 H452 0.930 . S
C392 C388 1.567 . S
C392 H453 0.961 . S
C392 H454 0.960 . S
C392 H455 0.958 . S
C393 C390 1.530 . S
C393 H456 0.961 . S
C393 H457 0.960 . S
C393 H458 0.960 . S
C394 C395 1.530 . S
C394 H460 0.961 . S
C394 H461 0.961 . S
C394 H462 0.959 . S
C395 C394 1.530 . S
C395 O423 1.412 . S
C395 H459 0.980 . S
C396 C397 1.288 . S
C396 C401 1.377 . S
C396 O423 1.393 . S
C397 C396 1.288 . S
C397 C398 1.369 . S
C397 H463 0.932 . S
C398 C397 1.369 . S
C398 C399 1.398 . S
C398 C402 1.527 . S
C399 C398 1.398 . S
C399 C400 1.380 . S
C399 C413 1.497 . S
C400 C399 1.380 . S
C400 C401 1.383 . S
C400 C403 1.603 . S
C401 C396 1.377 . S
C401 C400 1.383 . S
C401 H464 0.929 . S
C402 C398 1.527 . S
C402 H465 0.961 . S
C402 H466 0.959 . S
C402 H467 0.959 . S
C403 C400 1.603 . S
C403 H468 0.960 . S
C403 H469 0.962 . S
C403 H470 0.961 . S
C404 C371 1.587 . S
C404 C405 1.360 . S
C404 C417 1.412 . S
C405 C404 1.360 . S
C405 C406 1.365 . S
C405 H471 0.929 . S
C406 C381 1.553 . S
C406 C405 1.365 . S
C406 C407 1.404 . S
C407 C406 1.404 . S
C407 C408 1.395 . S
C407 C418 1.451 . S
C408 C407 1.395 . S
C408 C409 1.322 . S
C408 H472 0.930 . S
C409 C408 1.322 . S
C409 C410 1.459 . S
C409 H473 0.929 . S
C410 C409 1.459 . S
C410 C411 1.445 . S
C410 C419 1.395 . S
C411 C389 1.432 . S
C411 C410 1.445 . S
C411 C412 1.370 . S
C412 C411 1.370 . S
C412 C413 1.438 . S
C412 H474 0.930 . S
C413 C399 1.497 . S
C413 C412 1.438 . S
C413 C414 1.360 . S
C414 C413 1.360 . S
C414 C415 1.401 . S
C414 C419 1.446 . S
C415 C414 1.401 . S
C415 C416 1.347 . S
C415 H475 0.929 . S
C416 C415 1.347 . S
C416 C417 1.455 . S
C416 H476 0.930 . S
C417 C404 1.412 . S
C417 C416 1.455 . S
C417 C418 1.331 . S
C418 C407 1.451 . S
C418 C417 1.331 . S
C418 C419 1.497 . S
C419 C410 1.395 . S
C419 C414 1.446 . S
C419 C418 1.497 . S
C420 C421 1.582 . S
C420 H477 0.962 . S
C420 H478 0.959 . S
C420 H479 0.958 . S
C421 C420 1.582 . S
C421 O424 1.458 . S
C421 H450 0.980 . S
O422 C367 1.426 . S
O422 C368 1.334 . S
O423 C395 1.412 . S
O423 C396 1.393 . S
O424 C386 1.435 . S
O424 C421 1.458 . S
O425 C377 1.468 . S
O425 C378 1.408 . S
H426 C367 0.980 . S
H427 C366 0.959 . S
H428 C366 0.959 . S
H429 C366 0.960 . S
H430 C369 0.929 . S
H431 C373 0.929 . S
H432 C374 0.959 . S
H433 C374 0.961 . S
H434 C374 0.961 . S
H435 C375 0.960 . S
H436 C375 0.960 . S
H437 C375 0.961 . S
H438 C377 0.980 . S
H439 C376 0.961 . S
H440 C376 0.960 . S
H441 C376 0.959 . S
H442 C379 0.930 . S
H443 C383 0.931 . S
H444 C384 0.959 . S
H445 C384 0.961 . S
H446 C384 0.959 . S
H447 C385 0.960 . S
H448 C385 0.960 . S
H449 C385 0.960 . S
H450 C421 0.980 . S
H451 C387 0.930 . S
H452 C391 0.930 . S
H453 C392 0.961 . S
H454 C392 0.960 . S
H455 C392 0.958 . S
H456 C393 0.961 . S
H457 C393 0.960 . S
H458 C393 0.960 . S
H459 C395 0.980 . S
H460 C394 0.961 . S
H461 C394 0.961 . S
H462 C394 0.959 . S
H463 C397 0.932 . S
H464 C401 0.929 . S
H465 C402 0.961 . S
H466 C402 0.959 . S
H467 C402 0.959 . S
H468 C403 0.960 . S
H469 C403 0.962 . S
H470 C403 0.961 . S
H471 C405 0.929 . S
H472 C408 0.930 . S
H473 C409 0.929 . S
H474 C412 0.930 . S
H475 C415 0.929 . S
H476 C416 0.930 . S
H477 C420 0.962 . S
H478 C420 0.959 . S
H479 C420 0.958 . S
C480 C481 1.560 . S
C480 H541 0.959 . S
C480 H542 0.959 . S
C480 H543 0.960 . S
C481 C480 1.560 . S
C481 O536 1.426 . S
C481 H540 0.980 . S
C482 C483 1.407 . S
C482 C487 1.418 . S
C482 O536 1.334 . S
C483 C482 1.407 . S
C483 C484 1.360 . S
C483 H544 0.929 . S
C484 C483 1.360 . S
C484 C485 1.401 . S
C484 C488 1.527 . S
C485 C484 1.401 . S
C485 C486 1.405 . S
C485 C518 1.587 . S
C486 C485 1.405 . S
C486 C487 1.332 . S
C486 C489 1.496 . S
C487 C482 1.418 . S
C487 C486 1.332 . S
C487 H545 0.929 . S
C488 C484 1.527 . S
C488 H546 0.959 . S
C488 H547 0.961 . S
C488 H548 0.961 . S
C489 C486 1.496 . S
C489 H549 0.960 . S
C489 H550 0.960 . S
C489 H551 0.961 . S
C490 C491 1.517 . S
C490 H553 0.961 . S
C490 H554 0.960 . S
C490 H555 0.959 . S
C491 C490 1.517 . S
C491 O539 1.468 . S
C491 H552 0.980 . S
C492 C493 1.349 . S
C492 C497 1.367 . S
C492 O539 1.408 . S
C493 C492 1.349 . S
C493 C494 1.407 . S
C493 H556 0.930 . S
C494 C493 1.407 . S
C494 C495 1.449 . S
C494 C498 1.535 . S
C495 C494 1.449 . S
C495 C496 1.384 . S
C495 C520 1.553 . S
C496 C495 1.384 . S
C496 C497 1.364 . S
C496 C499 1.450 . S
C497 C492 1.367 . S
C497 C496 1.364 . S
C497 H557 0.931 . S
C498 C494 1.535 . S
C498 H558 0.959 . S
C498 H559 0.961 . S
C498 H560 0.959 . S
C499 C496 1.450 . S
C499 H561 0.960 . S
C499 H562 0.960 . S
C499 H563 0.960 . S
C500 C501 1.309 . S
C500 C505 1.304 . S
C500 O538 1.435 . S
C501 C500 1.309 . S
C501 C502 1.476 . S
C501 H565 0.930 . S
C502 C501 1.476 . S
C502 C503 1.400 . S
C502 C506 1.567 . S
C503 C502 1.400 . S
C503 C504 1.373 . S
C503 C525 1.432 . S
C504 C503 1.373 . S
C504 C505 1.339 . S
C504 C507 1.530 . S
C505 C500 1.304 . S
C505 C504 1.339 . S
C505 H566 0.930 . S
C506 C502 1.567 . S
C506 H567 0.961 . S
C506 H568 0.960 . S
C506 H569 0.958 . S
C507 C504 1.530 . S
C507 H570 0.961 . S
C507 H571 0.960 . S
C507 H572 0.960 . S
C508 C509 1.530 . S
C508 H574 0.961 . S
C508 H575 0.961 . S
C508 H576 0.959 . S
C509 C508 1.530 . S
C509 O537 1.412 . S
C509 H573 0.980 . S
C510 C511 1.288 . S
C510 C515 1.377 . S
C510 O537 1.393 . S
C511 C510 1.288 . S
C511 C512 1.369 . S
C511 H577 0.932 . S
C512 C511 1.369 . S
C512 C513 1.398 . S
C512 C516 1.527 . S
C513 C512 1.398 . S
C513 C514 1.380 . S
C513 C527 1.497 . S
C514 C513 1.380 . S
C514 C515 1.383 . S
C514 C517 1.603 . S
C515 C510 1.377 . S
C515 C514 1.383 . S
C515 H578 0.929 . S
C516 C512 1.527 . S
C516 H579 0.961 . S
C516 H580 0.959 . S
C516 H581 0.959 . S
C517 C514 1.603 . S
C517 H582 0.960 . S
C517 H583 0.962 . S
C517 H584 0.961 . S
C518 C485 1.587 . S
C518 C519 1.360 . S
C518 C531 1.412 . S
C519 C518 1.360 . S
C519 C520 1.365 . S
C519 H585 0.929 . S
C520 C495 1.553 . S
C520 C519 1.365 . S
C520 C521 1.404 . S
C521 C520 1.404 . S
C521 C522 1.395 . S
C521 C532 1.451 . S
C522 C521 1.395 . S
C522 C523 1.322 . S
C522 H586 0.930 . S
C523 C522 1.322 . S
C523 C524 1.459 . S
C523 H587 0.929 . S
C524 C523 1.459 . S
C524 C525 1.445 . S
C524 C533 1.395 . S
C525 C503 1.432 . S
C525 C524 1.445 . S
C525 C526 1.370 . S
C526 C525 1.370 . S
C526 C527 1.438 . S
C526 H588 0.930 . S
C527 C513 1.497 . S
C527 C526 1.438 . S
C527 C528 1.360 . S
C528 C527 1.360 . S
C528 C529 1.401 . S
C528 C533 1.446 . S
C529 C528 1.401 . S
C529 C530 1.347 . S
C529 H589 0.929 . S
C530 C529 1.347 . S
C530 C531 1.455 . S
C530 H590 0.930 . S
C531 C518 1.412 . S
C531 C530 1.455 . S
C531 C532 1.331 . S
C532 C521 1.451 . S
C532 C531 1.331 . S
C532 C533 1.497 . S
C533 C524 1.395 . S
C533 C528 1.446 . S
C533 C532 1.497 . S
C534 C535 1.582 . S
C534 H591 0.962 . S
C534 H592 0.959 . S
C534 H593 0.958 . S
C535 C534 1.582 . S
C535 O538 1.458 . S
C535 H564 0.980 . S
O536 C481 1.426 . S
O536 C482 1.334 . S
O537 C509 1.412 . S
O537 C510 1.393 . S
O538 C500 1.435 . S
O538 C535 1.458 . S
O539 C491 1.468 . S
O539 C492 1.408 . S
H540 C481 0.980 . S
H541 C480 0.959 . S
H542 C480 0.959 . S
H543 C480 0.960 . S
H544 C483 0.929 . S
H545 C487 0.929 . S
H546 C488 0.959 . S
H547 C488 0.961 . S
H548 C488 0.961 . S
H549 C489 0.960 . S
H550 C489 0.960 . S
H551 C489 0.961 . S
H552 C491 0.980 . S
H553 C490 0.961 . S
H554 C490 0.960 . S
H555 C490 0.959 . S
H556 C493 0.930 . S
H557 C497 0.931 . S
H558 C498 0.959 . S
H559 C498 0.961 . S
H560 C498 0.959 . S
H561 C499 0.960 . S
H562 C499 0.960 . S
H563 C499 0.960 . S
H564 C535 0.980 . S
H565 C501 0.930 . S
H566 C505 0.930 . S
H567 C506 0.961 . S
H568 C506 0.960 . S
H569 C506 0.958 . S
H570 C507 0.961 . S
H571 C507 0.960 . S
H572 C507 0.960 . S
H573 C509 0.980 . S
H574 C508 0.961 . S
H575 C508 0.961 . S
H576 C508 0.959 . S
H577 C511 0.932 . S
H578 C515 0.929 . S
H579 C516 0.961 . S
H580 C516 0.959 . S
H581 C516 0.959 . S
H582 C517 0.960 . S
H583 C517 0.962 . S
H584 C517 0.961 . S
H585 C519 0.929 . S
H586 C522 0.930 . S
H587 C523 0.929 . S
H588 C526 0.930 . S
H589 C529 0.929 . S
H590 C530 0.930 . S
H591 C534 0.962 . S
H592 C534 0.959 . S
H593 C534 0.958 . S
C594 C595 1.560 . S
C594 H655 0.959 . S
C594 H656 0.959 . S
C594 H657 0.960 . S
C595 C594 1.560 . S
C595 O650 1.426 . S
C595 H654 0.980 . S
C596 C597 1.407 . S
C596 C601 1.418 . S
C596 O650 1.334 . S
C597 C596 1.407 . S
C597 C598 1.360 . S
C597 H658 0.929 . S
C598 C597 1.360 . S
C598 C599 1.401 . S
C598 C602 1.527 . S
C599 C598 1.401 . S
C599 C600 1.405 . S
C599 C632 1.587 . S
C600 C599 1.405 . S
C600 C601 1.332 . S
C600 C603 1.496 . S
C601 C596 1.418 . S
C601 C600 1.332 . S
C601 H659 0.929 . S
C602 C598 1.527 . S
C602 H660 0.959 . S
C602 H661 0.961 . S
C602 H662 0.961 . S
C603 C600 1.496 . S
C603 H663 0.960 . S
C603 H664 0.960 . S
C603 H665 0.961 . S
C604 C605 1.517 . S
C604 H667 0.961 . S
C604 H668 0.960 . S
C604 H669 0.959 . S
C605 C604 1.517 . S
C605 O653 1.468 . S
C605 H666 0.980 . S
C606 C607 1.349 . S
C606 C611 1.367 . S
C606 O653 1.408 . S
C607 C606 1.349 . S
C607 C608 1.407 . S
C607 H670 0.930 . S
C608 C607 1.407 . S
C608 C609 1.449 . S
C608 C612 1.535 . S
C609 C608 1.449 . S
C609 C610 1.384 . S
C609 C634 1.553 . S
C610 C609 1.384 . S
C610 C611 1.364 . S
C610 C613 1.450 . S
C611 C606 1.367 . S
C611 C610 1.364 . S
C611 H671 0.931 . S
C612 C608 1.535 . S
C612 H672 0.959 . S
C612 H673 0.961 . S
C612 H674 0.959 . S
C613 C610 1.450 . S
C613 H675 0.960 . S
C613 H676 0.960 . S
C613 H677 0.960 . S
C614 C615 1.309 . S
C614 C619 1.304 . S
C614 O652 1.435 . S
C615 C614 1.309 . S
C615 C616 1.476 . S
C615 H679 0.930 . S
C616 C615 1.476 . S
C616 C617 1.400 . S
C616 C620 1.567 . S
C617 C616 1.400 . S
C617 C618 1.373 . S
C617 C639 1.432 . S
C618 C617 1.373 . S
C618 C619 1.339 . S
C618 C621 1.530 . S
C619 C614 1.304 . S
C619 C618 1.339 . S
C619 H680 0.930 . S
C620 C616 1.567 . S
C620 H681 0.961 . S
C620 H682 0.960 . S
C620 H683 0.958 . S
C621 C618 1.530 . S
C621 H684 0.961 . S
C621 H685 0.960 . S
C621 H686 0.960 . S
C622 C623 1.530 . S
C622 H688 0.961 . S
C622 H689 0.961 . S
C622 H690 0.959 . S
C623 C622 1.530 . S
C623 O651 1.412 . S
C623 H687 0.980 . S
C624 C625 1.288 . S
C624 C629 1.377 . S
C624 O651 1.393 . S
C625 C624 1.288 . S
C625 C626 1.369 . S
C625 H691 0.932 . S
C626 C625 1.369 . S
C626 C627 1.398 . S
C626 C630 1.527 . S
C627 C626 1.398 . S
C627 C628 1.380 . S
C627 C641 1.497 . S
C628 C627 1.380 . S
C628 C629 1.383 . S
C628 C631 1.603 . S
C629 C624 1.377 . S
C629 C628 1.383 . S
C629 H692 0.929 . S
C630 C626 1.527 . S
C630 H693 0.961 . S
C630 H694 0.959 . S
C630 H695 0.959 . S
C631 C628 1.603 . S
C631 H696 0.960 . S
C631 H697 0.962 . S
C631 H698 0.961 . S
C632 C599 1.587 . S
C632 C633 1.360 . S
C632 C645 1.412 . S
C633 C632 1.360 . S
C633 C634 1.365 . S
C633 H699 0.929 . S
C634 C609 1.553 . S
C634 C633 1.365 . S
C634 C635 1.404 . S
C635 C634 1.404 . S
C635 C636 1.395 . S
C635 C646 1.451 . S
C636 C635 1.395 . S
C636 C637 1.322 . S
C636 H700 0.930 . S
C637 C636 1.322 . S
C637 C638 1.459 . S
C637 H701 0.929 . S
C638 C637 1.459 . S
C638 C639 1.445 . S
C638 C647 1.395 . S
C639 C617 1.432 . S
C639 C638 1.445 . S
C639 C640 1.370 . S
C640 C639 1.370 . S
C640 C641 1.438 . S
C640 H702 0.930 . S
C641 C627 1.497 . S
C641 C640 1.438 . S
C641 C642 1.360 . S
C642 C641 1.360 . S
C642 C643 1.401 . S
C642 C647 1.446 . S
C643 C642 1.401 . S
C643 C644 1.347 . S
C643 H703 0.929 . S
C644 C643 1.347 . S
C644 C645 1.455 . S
C644 H704 0.930 . S
C645 C632 1.412 . S
C645 C644 1.455 . S
C645 C646 1.331 . S
C646 C635 1.451 . S
C646 C645 1.331 . S
C646 C647 1.497 . S
C647 C638 1.395 . S
C647 C642 1.446 . S
C647 C646 1.497 . S
C648 C649 1.582 . S
C648 H705 0.962 . S
C648 H706 0.959 . S
C648 H707 0.958 . S
C649 C648 1.582 . S
C649 O652 1.458 . S
C649 H678 0.980 . S
O650 C595 1.426 . S
O650 C596 1.334 . S
O651 C623 1.412 . S
O651 C624 1.393 . S
O652 C614 1.435 . S
O652 C649 1.458 . S
O653 C605 1.468 . S
O653 C606 1.408 . S
H654 C595 0.980 . S
H655 C594 0.959 . S
H656 C594 0.959 . S
H657 C594 0.960 . S
H658 C597 0.929 . S
H659 C601 0.929 . S
H660 C602 0.959 . S
H661 C602 0.961 . S
H662 C602 0.961 . S
H663 C603 0.960 . S
H664 C603 0.960 . S
H665 C603 0.961 . S
H666 C605 0.980 . S
H667 C604 0.961 . S
H668 C604 0.960 . S
H669 C604 0.959 . S
H670 C607 0.930 . S
H671 C611 0.931 . S
H672 C612 0.959 . S
H673 C612 0.961 . S
H674 C612 0.959 . S
H675 C613 0.960 . S
H676 C613 0.960 . S
H677 C613 0.960 . S
H678 C649 0.980 . S
H679 C615 0.930 . S
H680 C619 0.930 . S
H681 C620 0.961 . S
H682 C620 0.960 . S
H683 C620 0.958 . S
H684 C621 0.961 . S
H685 C621 0.960 . S
H686 C621 0.960 . S
H687 C623 0.980 . S
H688 C622 0.961 . S
H689 C622 0.961 . S
H690 C622 0.959 . S
H691 C625 0.932 . S
H692 C629 0.929 . S
H693 C630 0.961 . S
H694 C630 0.959 . S
H695 C630 0.959 . S
H696 C631 0.960 . S
H697 C631 0.962 . S
H698 C631 0.961 . S
H699 C633 0.929 . S
H700 C636 0.930 . S
H701 C637 0.929 . S
H702 C640 0.930 . S
H703 C643 0.929 . S
H704 C644 0.930 . S
H705 C648 0.962 . S
H706 C648 0.959 . S
H707 C648 0.958 . S
C708 C709 1.560 . S
C708 H769 0.959 . S
C708 H770 0.959 . S
C708 H771 0.960 . S
C709 C708 1.560 . S
C709 O764 1.426 . S
C709 H768 0.980 . S
C710 C711 1.407 . S
C710 C715 1.418 . S
C710 O764 1.334 . S
C711 C710 1.407 . S
C711 C712 1.360 . S
C711 H772 0.929 . S
C712 C711 1.360 . S
C712 C713 1.401 . S
C712 C716 1.527 . S
C713 C712 1.401 . S
C713 C714 1.405 . S
C713 C746 1.587 . S
C714 C713 1.405 . S
C714 C715 1.332 . S
C714 C717 1.496 . S
C715 C710 1.418 . S
C715 C714 1.332 . S
C715 H773 0.929 . S
C716 C712 1.527 . S
C716 H774 0.959 . S
C716 H775 0.961 . S
C716 H776 0.961 . S
C717 C714 1.496 . S
C717 H777 0.960 . S
C717 H778 0.960 . S
C717 H779 0.961 . S
C718 C719 1.517 . S
C718 H781 0.961 . S
C718 H782 0.960 . S
C718 H783 0.959 . S
C719 C718 1.517 . S
C719 O767 1.468 . S
C719 H780 0.980 . S
C720 C721 1.349 . S
C720 C725 1.367 . S
C720 O767 1.408 . S
C721 C720 1.349 . S
C721 C722 1.407 . S
C721 H784 0.930 . S
C722 C721 1.407 . S
C722 C723 1.449 . S
C722 C726 1.535 . S
C723 C722 1.449 . S
C723 C724 1.384 . S
C723 C748 1.553 . S
C724 C723 1.384 . S
C724 C725 1.364 . S
C724 C727 1.450 . S
C725 C720 1.367 . S
C725 C724 1.364 . S
C725 H785 0.931 . S
C726 C722 1.535 . S
C726 H786 0.959 . S
C726 H787 0.961 . S
C726 H788 0.959 . S
C727 C724 1.450 . S
C727 H789 0.960 . S
C727 H790 0.960 . S
C727 H791 0.960 . S
C728 C729 1.309 . S
C728 C733 1.304 . S
C728 O766 1.435 . S
C729 C728 1.309 . S
C729 C730 1.476 . S
C729 H793 0.930 . S
C730 C729 1.476 . S
C730 C731 1.400 . S
C730 C734 1.567 . S
C731 C730 1.400 . S
C731 C732 1.373 . S
C731 C753 1.432 . S
C732 C731 1.373 . S
C732 C733 1.339 . S
C732 C735 1.530 . S
C733 C728 1.304 . S
C733 C732 1.339 . S
C733 H794 0.930 . S
C734 C730 1.567 . S
C734 H795 0.961 . S
C734 H796 0.960 . S
C734 H797 0.958 . S
C735 C732 1.530 . S
C735 H798 0.961 . S
C735 H799 0.960 . S
C735 H800 0.960 . S
C736 C737 1.530 . S
C736 H802 0.961 . S
C736 H803 0.961 . S
C736 H804 0.959 . S
C737 C736 1.530 . S
C737 O765 1.412 . S
C737 H801 0.980 . S
C738 C739 1.288 . S
C738 C743 1.377 . S
C738 O765 1.393 . S
C739 C738 1.288 . S
C739 C740 1.369 . S
C739 H805 0.932 . S
C740 C739 1.369 . S
C740 C741 1.398 . S
C740 C744 1.527 . S
C741 C740 1.398 . S
C741 C742 1.380 . S
C741 C755 1.497 . S
C742 C741 1.380 . S
C742 C743 1.383 . S
C742 C745 1.603 . S
C743 C738 1.377 . S
C743 C742 1.383 . S
C743 H806 0.929 . S
C744 C740 1.527 . S
C744 H807 0.961 . S
C744 H808 0.959 . S
C744 H809 0.959 . S
C745 C742 1.603 . S
C745 H810 0.960 . S
C745 H811 0.962 . S
C745 H812 0.961 . S
C746 C713 1.587 . S
C746 C747 1.360 . S
C746 C759 1.412 . S
C747 C746 1.360 . S
C747 C748 1.365 . S
C747 H813 0.929 . S
C748 C723 1.553 . S
C748 C747 1.365 . S
C748 C749 1.404 . S
C749 C748 1.404 . S
C749 C750 1.395 . S
C749 C760 1.451 . S
C750 C749 1.395 . S
C750 C751 1.322 . S
C750 H814 0.930 . S
C751 C750 1.322 . S
C751 C752 1.459 . S
C751 H815 0.929 . S
C752 C751 1.459 . S
C752 C753 1.445 . S
C752 C761 1.395 . S
C753 C731 1.432 . S
C753 C752 1.445 . S
C753 C754 1.370 . S
C754 C753 1.370 . S
C754 C755 1.438 . S
C754 H816 0.930 . S
C755 C741 1.497 . S
C755 C754 1.438 . S
C755 C756 1.360 . S
C756 C755 1.360 . S
C756 C757 1.401 . S
C756 C761 1.446 . S
C757 C756 1.401 . S
C757 C758 1.347 . S
C757 H817 0.929 . S
C758 C757 1.347 . S
C758 C759 1.455 . S
C758 H818 0.930 . S
C759 C746 1.412 . S
C759 C758 1.455 . S
C759 C760 1.331 . S
C760 C749 1.451 . S
C760 C759 1.331 . S
C760 C761 1.497 . S
C761 C752 1.395 . S
C761 C756 1.446 . S
C761 C760 1.497 . S
C762 C763 1.582 . S
C762 H819 0.962 . S
C762 H820 0.959 . S
C762 H821 0.958 . S
C763 C762 1.582 . S
C763 O766 1.458 . S
C763 H792 0.980 . S
O764 C709 1.426 . S
O764 C710 1.334 . S
O765 C737 1.412 . S
O765 C738 1.393 . S
O766 C728 1.435 . S
O766 C763 1.458 . S
O767 C719 1.468 . S
O767 C720 1.408 . S
H768 C709 0.980 . S
H769 C708 0.959 . S
H770 C708 0.959 . S
H771 C708 0.960 . S
H772 C711 0.929 . S
H773 C715 0.929 . S
H774 C716 0.959 . S
H775 C716 0.961 . S
H776 C716 0.961 . S
H777 C717 0.960 . S
H778 C717 0.960 . S
H779 C717 0.961 . S
H780 C719 0.980 . S
H781 C718 0.961 . S
H782 C718 0.960 . S
H783 C718 0.959 . S
H784 C721 0.930 . S
H785 C725 0.931 . S
H786 C726 0.959 . S
H787 C726 0.961 . S
H788 C726 0.959 . S
H789 C727 0.960 . S
H790 C727 0.960 . S
H791 C727 0.960 . S
H792 C763 0.980 . S
H793 C729 0.930 . S
H794 C733 0.930 . S
H795 C734 0.961 . S
H796 C734 0.960 . S
H797 C734 0.958 . S
H798 C735 0.961 . S
H799 C735 0.960 . S
H800 C735 0.960 . S
H801 C737 0.980 . S
H802 C736 0.961 . S
H803 C736 0.961 . S
H804 C736 0.959 . S
H805 C739 0.932 . S
H806 C743 0.929 . S
H807 C744 0.961 . S
H808 C744 0.959 . S
H809 C744 0.959 . S
H810 C745 0.960 . S
H811 C745 0.962 . S
H812 C745 0.961 . S
H813 C747 0.929 . S
H814 C750 0.930 . S
H815 C751 0.929 . S
H816 C754 0.930 . S
H817 C757 0.929 . S
H818 C758 0.930 . S
H819 C762 0.962 . S
H820 C762 0.959 . S
H821 C762 0.958 . S
C822 C823 1.560 . S
C822 H883 0.959 . S
C822 H884 0.959 . S
C822 H885 0.960 . S
C823 C822 1.560 . S
C823 O878 1.426 . S
C823 H882 0.980 . S
C824 C825 1.407 . S
C824 C829 1.418 . S
C824 O878 1.334 . S
C825 C824 1.407 . S
C825 C826 1.360 . S
C825 H886 0.929 . S
C826 C825 1.360 . S
C826 C827 1.401 . S
C826 C830 1.527 . S
C827 C826 1.401 . S
C827 C828 1.405 . S
C827 C860 1.587 . S
C828 C827 1.405 . S
C828 C829 1.332 . S
C828 C831 1.496 . S
C829 C824 1.418 . S
C829 C828 1.332 . S
C829 H887 0.929 . S
C830 C826 1.527 . S
C830 H888 0.959 . S
C830 H889 0.961 . S
C830 H890 0.961 . S
C831 C828 1.496 . S
C831 H891 0.960 . S
C831 H892 0.960 . S
C831 H893 0.961 . S
C832 C833 1.517 . S
C832 H895 0.961 . S
C832 H896 0.960 . S
C832 H897 0.959 . S
C833 C832 1.517 . S
C833 O881 1.468 . S
C833 H894 0.980 . S
C834 C835 1.349 . S
C834 C839 1.367 . S
C834 O881 1.408 . S
C835 C834 1.349 . S
C835 C836 1.407 . S
C835 H898 0.930 . S
C836 C835 1.407 . S
C836 C837 1.449 . S
C836 C840 1.535 . S
C837 C836 1.449 . S
C837 C838 1.384 . S
C837 C862 1.553 . S
C838 C837 1.384 . S
C838 C839 1.364 . S
C838 C841 1.450 . S
C839 C834 1.367 . S
C839 C838 1.364 . S
C839 H899 0.931 . S
C840 C836 1.535 . S
C840 H900 0.959 . S
C840 H901 0.961 . S
C840 H902 0.959 . S
C841 C838 1.450 . S
C841 H903 0.960 . S
C841 H904 0.960 . S
C841 H905 0.960 . S
C842 C843 1.309 . S
C842 C847 1.304 . S
C842 O880 1.435 . S
C843 C842 1.309 . S
C843 C844 1.476 . S
C843 H907 0.930 . S
C844 C843 1.476 . S
C844 C845 1.400 . S
C844 C848 1.567 . S
C845 C844 1.400 . S
C845 C846 1.373 . S
C845 C867 1.432 . S
C846 C845 1.373 . S
C846 C847 1.339 . S
C846 C849 1.530 . S
C847 C842 1.304 . S
C847 C846 1.339 . S
C847 H908 0.930 . S
C848 C844 1.567 . S
C848 H909 0.961 . S
C848 H910 0.960 . S
C848 H911 0.958 . S
C849 C846 1.530 . S
C849 H912 0.961 . S
C849 H913 0.960 . S
C849 H914 0.960 . S
C850 C851 1.530 . S
C850 H916 0.961 . S
C850 H917 0.961 . S
C850 H918 0.959 . S
C851 C850 1.530 . S
C851 O879 1.412 . S
C851 H915 0.980 . S
C852 C853 1.288 . S
C852 C857 1.377 . S
C852 O879 1.393 . S
C853 C852 1.288 . S
C853 C854 1.369 . S
C853 H919 0.932 . S
C854 C853 1.369 . S
C854 C855 1.398 . S
C854 C858 1.527 . S
C855 C854 1.398 . S
C855 C856 1.380 . S
C855 C869 1.497 . S
C856 C855 1.380 . S
C856 C857 1.383 . S
C856 C859 1.603 . S
C857 C852 1.377 . S
C857 C856 1.383 . S
C857 H920 0.929 . S
C858 C854 1.527 . S
C858 H921 0.961 . S
C858 H922 0.959 . S
C858 H923 0.959 . S
C859 C856 1.603 . S
C859 H924 0.960 . S
C859 H925 0.962 . S
C859 H926 0.961 . S
C860 C827 1.587 . S
C860 C861 1.360 . S
C860 C873 1.412 . S
C861 C860 1.360 . S
C861 C862 1.365 . S
C861 H927 0.929 . S
C862 C837 1.553 . S
C862 C861 1.365 . S
C862 C863 1.404 . S
C863 C862 1.404 . S
C863 C864 1.395 . S
C863 C874 1.451 . S
C864 C863 1.395 . S
C864 C865 1.322 . S
C864 H928 0.930 . S
C865 C864 1.322 . S
C865 C866 1.459 . S
C865 H929 0.929 . S
C866 C865 1.459 . S
C866 C867 1.445 . S
C866 C875 1.395 . S
C867 C845 1.432 . S
C867 C866 1.445 . S
C867 C868 1.370 . S
C868 C867 1.370 . S
C868 C869 1.438 . S
C868 H930 0.930 . S
C869 C855 1.497 . S
C869 C868 1.438 . S
C869 C870 1.360 . S
C870 C869 1.360 . S
C870 C871 1.401 . S
C870 C875 1.446 . S
C871 C870 1.401 . S
C871 C872 1.347 . S
C871 H931 0.929 . S
C872 C871 1.347 . S
C872 C873 1.455 . S
C872 H932 0.930 . S
C873 C860 1.412 . S
C873 C872 1.455 . S
C873 C874 1.331 . S
C874 C863 1.451 . S
C874 C873 1.331 . S
C874 C875 1.497 . S
C875 C866 1.395 . S
C875 C870 1.446 . S
C875 C874 1.497 . S
C876 C877 1.582 . S
C876 H933 0.962 . S
C876 H934 0.959 . S
C876 H935 0.958 . S
C877 C876 1.582 . S
C877 O880 1.458 . S
C877 H906 0.980 . S
O878 C823 1.426 . S
O878 C824 1.334 . S
O879 C851 1.412 . S
O879 C852 1.393 . S
O880 C842 1.435 . S
O880 C877 1.458 . S
O881 C833 1.468 . S
O881 C834 1.408 . S
H882 C823 0.980 . S
H883 C822 0.959 . S
H884 C822 0.959 . S
H885 C822 0.960 . S
H886 C825 0.929 . S
H887 C829 0.929 . S
H888 C830 0.959 . S
H889 C830 0.961 . S
H890 C830 0.961 . S
H891 C831 0.960 . S
H892 C831 0.960 . S
H893 C831 0.961 . S
H894 C833 0.980 . S
H895 C832 0.961 . S
H896 C832 0.960 . S
H897 C832 0.959 . S
H898 C835 0.930 . S
H899 C839 0.931 . S
H900 C840 0.959 . S
H901 C840 0.961 . S
H902 C840 0.959 . S
H903 C841 0.960 . S
H904 C841 0.960 . S
H905 C841 0.960 . S
H906 C877 0.980 . S
H907 C843 0.930 . S
H908 C847 0.930 . S
H909 C848 0.961 . S
H910 C848 0.960 . S
H911 C848 0.958 . S
H912 C849 0.961 . S
H913 C849 0.960 . S
H914 C849 0.960 . S
H915 C851 0.980 . S
H916 C850 0.961 . S
H917 C850 0.961 . S
H918 C850 0.959 . S
H919 C853 0.932 . S
H920 C857 0.929 . S
H921 C858 0.961 . S
H922 C858 0.959 . S
H923 C858 0.959 . S
H924 C859 0.960 . S
H925 C859 0.962 . S
H926 C859 0.961 . S
H927 C861 0.929 . S
H928 C864 0.930 . S
H929 C865 0.929 . S
H930 C868 0.930 . S
H931 C871 0.929 . S
H932 C872 0.930 . S
H933 C876 0.962 . S
H934 C876 0.959 . S
H935 C876 0.958 . S
C936 C937 1.560 . S
C936 H997 0.959 . S
C936 H998 0.959 . S
C936 H999 0.960 . S
C937 C936 1.560 . S
C937 O992 1.426 . S
C937 H996 0.980 . S
C938 C939 1.407 . S
C938 C943 1.418 . S
C938 O992 1.334 . S
C939 C938 1.407 . S
C939 C940 1.360 . S
C939 H1000 0.929 . S
C940 C939 1.360 . S
C940 C941 1.401 . S
C940 C944 1.527 . S
C941 C940 1.401 . S
C941 C942 1.405 . S
C941 C974 1.587 . S
C942 C941 1.405 . S
C942 C943 1.332 . S
C942 C945 1.496 . S
C943 C938 1.418 . S
C943 C942 1.332 . S
C943 H1001 0.929 . S
C944 C940 1.527 . S
C944 H1002 0.959 . S
C944 H1003 0.961 . S
C944 H1004 0.961 . S
C945 C942 1.496 . S
C945 H1005 0.960 . S
C945 H1006 0.960 . S
C945 H1007 0.961 . S
C946 C947 1.517 . S
C946 H1009 0.961 . S
C946 H1010 0.960 . S
C946 H1011 0.959 . S
C947 C946 1.517 . S
C947 O995 1.468 . S
C947 H1008 0.980 . S
C948 C949 1.349 . S
C948 C953 1.367 . S
C948 O995 1.408 . S
C949 C948 1.349 . S
C949 C950 1.407 . S
C949 H1012 0.930 . S
C950 C949 1.407 . S
C950 C951 1.449 . S
C950 C954 1.535 . S
C951 C950 1.449 . S
C951 C952 1.384 . S
C951 C976 1.553 . S
C952 C951 1.384 . S
C952 C953 1.364 . S
C952 C955 1.450 . S
C953 C948 1.367 . S
C953 C952 1.364 . S
C953 H1013 0.931 . S
C954 C950 1.535 . S
C954 H1014 0.959 . S
C954 H1015 0.961 . S
C954 H1016 0.959 . S
C955 C952 1.450 . S
C955 H1017 0.960 . S
C955 H1018 0.960 . S
C955 H1019 0.960 . S
C956 C957 1.309 . S
C956 C961 1.304 . S
C956 O994 1.435 . S
C957 C956 1.309 . S
C957 C958 1.476 . S
C957 H1021 0.930 . S
C958 C957 1.476 . S
C958 C959 1.400 . S
C958 C962 1.567 . S
C959 C958 1.400 . S
C959 C960 1.373 . S
C959 C981 1.432 . S
C960 C959 1.373 . S
C960 C961 1.339 . S
C960 C963 1.530 . S
C961 C956 1.304 . S
C961 C960 1.339 . S
C961 H1022 0.930 . S
C962 C958 1.567 . S
C962 H1023 0.961 . S
C962 H1024 0.960 . S
C962 H1025 0.958 . S
C963 C960 1.530 . S
C963 H1026 0.961 . S
C963 H1027 0.960 . S
C963 H1028 0.960 . S
C964 C965 1.530 . S
C964 H1030 0.961 . S
C964 H1031 0.961 . S
C964 H1032 0.959 . S
C965 C964 1.530 . S
C965 O993 1.412 . S
C965 H1029 0.980 . S
C966 C967 1.288 . S
C966 C971 1.377 . S
C966 O993 1.393 . S
C967 C966 1.288 . S
C967 C968 1.369 . S
C967 H1033 0.932 . S
C968 C967 1.369 . S
C968 C969 1.398 . S
C968 C972 1.527 . S
C969 C968 1.398 . S
C969 C970 1.380 . S
C969 C983 1.497 . S
C970 C969 1.380 . S
C970 C971 1.383 . S
C970 C973 1.603 . S
C971 C966 1.377 . S
C971 C970 1.383 . S
C971 H1034 0.929 . S
C972 C968 1.527 . S
C972 H1035 0.961 . S
C972 H1036 0.959 . S
C972 H1037 0.959 . S
C973 C970 1.603 . S
C973 H1038 0.960 . S
C973 H1039 0.962 . S
C973 H1040 0.961 . S
C974 C941 1.587 . S
C974 C975 1.360 . S
C974 C987 1.412 . S
C975 C974 1.360 . S
C975 C976 1.365 . S
C975 H1041 0.929 . S
C976 C951 1.553 . S
C976 C975 1.365 . S
C976 C977 1.404 . S
C977 C976 1.404 . S
C977 C978 1.395 . S
C977 C988 1.451 . S
C978 C977 1.395 . S
C978 C979 1.322 . S
C978 H1042 0.930 . S
C979 C978 1.322 . S
C979 C980 1.459 . S
C979 H1043 0.929 . S
C980 C979 1.459 . S
C980 C981 1.445 . S
C980 C989 1.395 . S
C981 C959 1.432 . S
C981 C980 1.445 . S
C981 C982 1.370 . S
C982 C981 1.370 . S
C982 C983 1.438 . S
C982 H1044 0.930 . S
C983 C969 1.497 . S
C983 C982 1.438 . S
C983 C984 1.360 . S
C984 C983 1.360 . S
C984 C985 1.401 . S
C984 C989 1.446 . S
C985 C984 1.401 . S
C985 C986 1.347 . S
C985 H1045 0.929 . S
C986 C985 1.347 . S
C986 C987 1.455 . S
C986 H1046 0.930 . S
C987 C974 1.412 . S
C987 C986 1.455 . S
C987 C988 1.331 . S
C988 C977 1.451 . S
C988 C987 1.331 . S
C988 C989 1.497 . S
C989 C980 1.395 . S
C989 C984 1.446 . S
C989 C988 1.497 . S
C990 C991 1.582 . S
C990 H1047 0.962 . S
C990 H1048 0.959 . S
C990 H1049 0.958 . S
C991 C990 1.582 . S
C991 O994 1.458 . S
C991 H1020 0.980 . S
O992 C937 1.426 . S
O992 C938 1.334 . S
O993 C965 1.412 . S
O993 C966 1.393 . S
O994 C956 1.435 . S
O994 C991 1.458 . S
O995 C947 1.468 . S
O995 C948 1.408 . S
H996 C937 0.980 . S
H997 C936 0.959 . S
H998 C936 0.959 . S
H999 C936 0.960 . S
H1000 C939 0.929 . S
H1001 C943 0.929 . S
H1002 C944 0.959 . S
H1003 C944 0.961 . S
H1004 C944 0.961 . S
H1005 C945 0.960 . S
H1006 C945 0.960 . S
H1007 C945 0.961 . S
H1008 C947 0.980 . S
H1009 C946 0.961 . S
H1010 C946 0.960 . S
H1011 C946 0.959 . S
H1012 C949 0.930 . S
H1013 C953 0.931 . S
H1014 C954 0.959 . S
H1015 C954 0.961 . S
H1016 C954 0.959 . S
H1017 C955 0.960 . S
H1018 C955 0.960 . S
H1019 C955 0.960 . S
H1020 C991 0.980 . S
H1021 C957 0.930 . S
H1022 C961 0.930 . S
H1023 C962 0.961 . S
H1024 C962 0.960 . S
H1025 C962 0.958 . S
H1026 C963 0.961 . S
H1027 C963 0.960 . S
H1028 C963 0.960 . S
H1029 C965 0.980 . S
H1030 C964 0.961 . S
H1031 C964 0.961 . S
H1032 C964 0.959 . S
H1033 C967 0.932 . S
H1034 C971 0.929 . S
H1035 C972 0.961 . S
H1036 C972 0.959 . S
H1037 C972 0.959 . S
H1038 C973 0.960 . S
H1039 C973 0.962 . S
H1040 C973 0.961 . S
H1041 C975 0.929 . S
H1042 C978 0.930 . S
H1043 C979 0.929 . S
H1044 C982 0.930 . S
H1045 C985 0.929 . S
H1046 C986 0.930 . S
H1047 C990 0.962 . S
H1048 C990 0.959 . S
H1049 C990 0.958 . S
C1050 C1051 1.560 . S
C1050 H1111 0.959 . S
C1050 H1112 0.959 . S
C1050 H1113 0.960 . S
C1051 C1050 1.560 . S
C1051 O1106 1.426 . S
C1051 H1110 0.980 . S
C1052 C1053 1.407 . S
C1052 C1057 1.418 . S
C1052 O1106 1.334 . S
C1053 C1052 1.407 . S
C1053 C1054 1.360 . S
C1053 H1114 0.929 . S
C1054 C1053 1.360 . S
C1054 C1055 1.401 . S
C1054 C1058 1.527 . S
C1055 C1054 1.401 . S
C1055 C1056 1.405 . S
C1055 C1088 1.587 . S
C1056 C1055 1.405 . S
C1056 C1057 1.332 . S
C1056 C1059 1.496 . S
C1057 C1052 1.418 . S
C1057 C1056 1.332 . S
C1057 H1115 0.929 . S
C1058 C1054 1.527 . S
C1058 H1116 0.959 . S
C1058 H1117 0.961 . S
C1058 H1118 0.961 . S
C1059 C1056 1.496 . S
C1059 H1119 0.960 . S
C1059 H1120 0.960 . S
C1059 H1121 0.961 . S
C1060 C1061 1.517 . S
C1060 H1123 0.961 . S
C1060 H1124 0.960 . S
C1060 H1125 0.959 . S
C1061 C1060 1.517 . S
C1061 O1109 1.468 . S
C1061 H1122 0.980 . S
C1062 C1063 1.349 . S
C1062 C1067 1.367 . S
C1062 O1109 1.408 . S
C1063 C1062 1.349 . S
C1063 C1064 1.407 . S
C1063 H1126 0.930 . S
C1064 C1063 1.407 . S
C1064 C1065 1.449 . S
C1064 C1068 1.535 . S
C1065 C1064 1.449 . S
C1065 C1066 1.384 . S
C1065 C1090 1.553 . S
C1066 C1065 1.384 . S
C1066 C1067 1.364 . S
C1066 C1069 1.450 . S
C1067 C1062 1.367 . S
C1067 C1066 1.364 . S
C1067 H1127 0.931 . S
C1068 C1064 1.535 . S
C1068 H1128 0.959 . S
C1068 H1129 0.961 . S
C1068 H1130 0.959 . S
C1069 C1066 1.450 . S
C1069 H1131 0.960 . S
C1069 H1132 0.960 . S
C1069 H1133 0.960 . S
C1070 C1071 1.309 . S
C1070 C1075 1.304 . S
C1070 O1108 1.435 . S
C1071 C1070 1.309 . S
C1071 C1072 1.476 . S
C1071 H1135 0.930 . S
C1072 C1071 1.476 . S
C1072 C1073 1.400 . S
C1072 C1076 1.567 . S
C1073 C1072 1.400 . S
C1073 C1074 1.373 . S
C1073 C1095 1.432 . S
C1074 C1073 1.373 . S
C1074 C1075 1.339 . S
C1074 C1077 1.530 . S
C1075 C1070 1.304 . S
C1075 C1074 1.339 . S
C1075 H1136 0.930 . S
C1076 C1072 1.567 . S
C1076 H1137 0.961 . S
C1076 H1138 0.960 . S
C1076 H1139 0.958 . S
C1077 C1074 1.530 . S
C1077 H1140 0.961 . S
C1077 H1141 0.960 . S
C1077 H1142 0.960 . S
C1078 C1079 1.530 . S
C1078 H1144 0.961 . S
C1078 H1145 0.961 . S
C1078 H1146 0.959 . S
C1079 C1078 1.530 . S
C1079 O1107 1.412 . S
C1079 H1143 0.980 . S
C1080 C1081 1.288 . S
C1080 C1085 1.377 . S
C1080 O1107 1.393 . S
C1081 C1080 1.288 . S
C1081 C1082 1.369 . S
C1081 H1147 0.932 . S
C1082 C1081 1.369 . S
C1082 C1083 1.398 . S
C1082 C1086 1.527 . S
C1083 C1082 1.398 . S
C1083 C1084 1.380 . S
C1083 C1097 1.497 . S
C1084 C1083 1.380 . S
C1084 C1085 1.383 . S
C1084 C1087 1.603 . S
C1085 C1080 1.377 . S
C1085 C1084 1.383 . S
C1085 H1148 0.929 . S
C1086 C1082 1.527 . S
C1086 H1149 0.961 . S
C1086 H1150 0.959 . S
C1086 H1151 0.959 . S
C1087 C1084 1.603 . S
C1087 H1152 0.960 . S
C1087 H1153 0.962 . S
C1087 H1154 0.961 . S
C1088 C1055 1.587 . S
C1088 C1089 1.360 . S
C1088 C1101 1.412 . S
C1089 C1088 1.360 . S
C1089 C1090 1.365 . S
C1089 H1155 0.929 . S
C1090 C1065 1.553 . S
C1090 C1089 1.365 . S
C1090 C1091 1.404 . S
C1091 C1090 1.404 . S
C1091 C1092 1.395 . S
C1091 C1102 1.451 . S
C1092 C1091 1.395 . S
C1092 C1093 1.322 . S
C1092 H1156 0.930 . S
C1093 C1092 1.322 . S
C1093 C1094 1.459 . S
C1093 H1157 0.929 . S
C1094 C1093 1.459 . S
C1094 C1095 1.445 . S
C1094 C1103 1.395 . S
C1095 C1073 1.432 . S
C1095 C1094 1.445 . S
C1095 C1096 1.370 . S
C1096 C1095 1.370 . S
C1096 C1097 1.438 . S
C1096 H1158 0.930 . S
C1097 C1083 1.497 . S
C1097 C1096 1.438 . S
C1097 C1098 1.360 . S
C1098 C1097 1.360 . S
C1098 C1099 1.401 . S
C1098 C1103 1.446 . S
C1099 C1098 1.401 . S
C1099 C1100 1.347 . S
C1099 H1159 0.929 . S
C1100 C1099 1.347 . S
C1100 C1101 1.455 . S
C1100 H1160 0.930 . S
C1101 C1088 1.412 . S
C1101 C1100 1.455 . S
C1101 C1102 1.331 . S
C1102 C1091 1.451 . S
C1102 C1101 1.331 . S
C1102 C1103 1.497 . S
C1103 C1094 1.395 . S
C1103 C1098 1.446 . S
C1103 C1102 1.497 . S
C1104 C1105 1.582 . S
C1104 H1161 0.962 . S
C1104 H1162 0.959 . S
C1104 H1163 0.958 . S
C1105 C1104 1.582 . S
C1105 O1108 1.458 . S
C1105 H1134 0.980 . S
O1106 C1051 1.426 . S
O1106 C1052 1.334 . S
O1107 C1079 1.412 . S
O1107 C1080 1.393 . S
O1108 C1070 1.435 . S
O1108 C1105 1.458 . S
O1109 C1061 1.468 . S
O1109 C1062 1.408 . S
H1110 C1051 0.980 . S
H1111 C1050 0.959 . S
H1112 C1050 0.959 . S
H1113 C1050 0.960 . S
H1114 C1053 0.929 . S
H1115 C1057 0.929 . S
H1116 C1058 0.959 . S
H1117 C1058 0.961 . S
H1118 C1058 0.961 . S
H1119 C1059 0.960 . S
H1120 C1059 0.960 . S
H1121 C1059 0.961 . S
H1122 C1061 0.980 . S
H1123 C1060 0.961 . S
H1124 C1060 0.960 . S
H1125 C1060 0.959 . S
H1126 C1063 0.930 . S
H1127 C1067 0.931 . S
H1128 C1068 0.959 . S
H1129 C1068 0.961 . S
H1130 C1068 0.959 . S
H1131 C1069 0.960 . S
H1132 C1069 0.960 . S
H1133 C1069 0.960 . S
H1134 C1105 0.980 . S
H1135 C1071 0.930 . S
H1136 C1075 0.930 . S
H1137 C1076 0.961 . S
H1138 C1076 0.960 . S
H1139 C1076 0.958 . S
H1140 C1077 0.961 . S
H1141 C1077 0.960 . S
H1142 C1077 0.960 . S
H1143 C1079 0.980 . S
H1144 C1078 0.961 . S
H1145 C1078 0.961 . S
H1146 C1078 0.959 . S
H1147 C1081 0.932 . S
H1148 C1085 0.929 . S
H1149 C1086 0.961 . S
H1150 C1086 0.959 . S
H1151 C1086 0.959 . S
H1152 C1087 0.960 . S
H1153 C1087 0.962 . S
H1154 C1087 0.961 . S
H1155 C1089 0.929 . S
H1156 C1092 0.930 . S
H1157 C1093 0.929 . S
H1158 C1096 0.930 . S
H1159 C1099 0.929 . S
H1160 C1100 0.930 . S
H1161 C1104 0.962 . S
H1162 C1104 0.959 . S
H1163 C1104 0.958 . S
C1164 C1165 1.560 . S
C1164 H1225 0.959 . S
C1164 H1226 0.959 . S
C1164 H1227 0.960 . S
C1165 C1164 1.560 . S
C1165 O1220 1.426 . S
C1165 H1224 0.980 . S
C1166 C1167 1.407 . S
C1166 C1171 1.418 . S
C1166 O1220 1.334 . S
C1167 C1166 1.407 . S
C1167 C1168 1.360 . S
C1167 H1228 0.929 . S
C1168 C1167 1.360 . S
C1168 C1169 1.401 . S
C1168 C1172 1.527 . S
C1169 C1168 1.401 . S
C1169 C1170 1.405 . S
C1169 C1202 1.587 . S
C1170 C1169 1.405 . S
C1170 C1171 1.332 . S
C1170 C1173 1.496 . S
C1171 C1166 1.418 . S
C1171 C1170 1.332 . S
C1171 H1229 0.929 . S
C1172 C1168 1.527 . S
C1172 H1230 0.959 . S
C1172 H1231 0.961 . S
C1172 H1232 0.961 . S
C1173 C1170 1.496 . S
C1173 H1233 0.960 . S
C1173 H1234 0.960 . S
C1173 H1235 0.961 . S
C1174 C1175 1.517 . S
C1174 H1237 0.961 . S
C1174 H1238 0.960 . S
C1174 H1239 0.959 . S
C1175 C1174 1.517 . S
C1175 O1223 1.468 . S
C1175 H1236 0.980 . S
C1176 C1177 1.349 . S
C1176 C1181 1.367 . S
C1176 O1223 1.408 . S
C1177 C1176 1.349 . S
C1177 C1178 1.407 . S
C1177 H1240 0.930 . S
C1178 C1177 1.407 . S
C1178 C1179 1.449 . S
C1178 C1182 1.535 . S
C1179 C1178 1.449 . S
C1179 C1180 1.384 . S
C1179 C1204 1.553 . S
C1180 C1179 1.384 . S
C1180 C1181 1.364 . S
C1180 C1183 1.450 . S
C1181 C1176 1.367 . S
C1181 C1180 1.364 . S
C1181 H1241 0.931 . S
C1182 C1178 1.535 . S
C1182 H1242 0.959 . S
C1182 H1243 0.961 . S
C1182 H1244 0.959 . S
C1183 C1180 1.450 . S
C1183 H1245 0.960 . S
C1183 H1246 0.960 . S
C1183 H1247 0.960 . S
C1184 C1185 1.309 . S
C1184 C1189 1.304 . S
C1184 O1222 1.435 . S
C1185 C1184 1.309 . S
C1185 C1186 1.476 . S
C1185 H1249 0.930 . S
C1186 C1185 1.476 . S
C1186 C1187 1.400 . S
C1186 C1190 1.567 . S
C1187 C1186 1.400 . S
C1187 C1188 1.373 . S
C1187 C1209 1.432 . S
C1188 C1187 1.373 . S
C1188 C1189 1.339 . S
C1188 C1191 1.530 . S
C1189 C1184 1.304 . S
C1189 C1188 1.339 . S
C1189 H1250 0.930 . S
C1190 C1186 1.567 . S
C1190 H1251 0.961 . S
C1190 H1252 0.960 . S
C1190 H1253 0.958 . S
C1191 C1188 1.530 . S
C1191 H1254 0.961 . S
C1191 H1255 0.960 . S
C1191 H1256 0.960 . S
C1192 C1193 1.530 . S
C1192 H1258 0.961 . S
C1192 H1259 0.961 . S
C1192 H1260 0.959 . S
C1193 C1192 1.530 . S
C1193 O1221 1.412 . S
C1193 H1257 0.980 . S
C1194 C1195 1.288 . S
C1194 C1199 1.377 . S
C1194 O1221 1.393 . S
C1195 C1194 1.288 . S
C1195 C1196 1.369 . S
C1195 H1261 0.932 . S
C1196 C1195 1.369 . S
C1196 C1197 1.398 . S
C1196 C1200 1.527 . S
C1197 C1196 1.398 . S
C1197 C1198 1.380 . S
C1197 C1211 1.497 . S
C1198 C1197 1.380 . S
C1198 C1199 1.383 . S
C1198 C1201 1.603 . S
C1199 C1194 1.377 . S
C1199 C1198 1.383 . S
C1199 H1262 0.929 . S
C1200 C1196 1.527 . S
C1200 H1263 0.961 . S
C1200 H1264 0.959 . S
C1200 H1265 0.959 . S
C1201 C1198 1.603 . S
C1201 H1266 0.960 . S
C1201 H1267 0.962 . S
C1201 H1268 0.961 . S
C1202 C1169 1.587 . S
C1202 C1203 1.360 . S
C1202 C1215 1.412 . S
C1203 C1202 1.360 . S
C1203 C1204 1.365 . S
C1203 H1269 0.929 . S
C1204 C1179 1.553 . S
C1204 C1203 1.365 . S
C1204 C1205 1.404 . S
C1205 C1204 1.404 . S
C1205 C1206 1.395 . S
C1205 C1216 1.451 . S
C1206 C1205 1.395 . S
C1206 C1207 1.322 . S
C1206 H1270 0.930 . S
C1207 C1206 1.322 . S
C1207 C1208 1.459 . S
C1207 H1271 0.929 . S
C1208 C1207 1.459 . S
C1208 C1209 1.445 . S
C1208 C1217 1.395 . S
C1209 C1187 1.432 . S
C1209 C1208 1.445 . S
C1209 C1210 1.370 . S
C1210 C1209 1.370 . S
C1210 C1211 1.438 . S
C1210 H1272 0.930 . S
C1211 C1197 1.497 . S
C1211 C1210 1.438 . S
C1211 C1212 1.360 . S
C1212 C1211 1.360 . S
C1212 C1213 1.401 . S
C1212 C1217 1.446 . S
C1213 C1212 1.401 . S
C1213 C1214 1.347 . S
C1213 H1273 0.929 . S
C1214 C1213 1.347 . S
C1214 C1215 1.455 . S
C1214 H1274 0.930 . S
C1215 C1202 1.412 . S
C1215 C1214 1.455 . S
C1215 C1216 1.331 . S
C1216 C1205 1.451 . S
C1216 C1215 1.331 . S
C1216 C1217 1.497 . S
C1217 C1208 1.395 . S
C1217 C1212 1.446 . S
C1217 C1216 1.497 . S
C1218 C1219 1.582 . S
C1218 H1275 0.962 . S
C1218 H1276 0.959 . S
C1218 H1277 0.958 . S
C1219 C1218 1.582 . S
C1219 O1222 1.458 . S
C1219 H1248 0.980 . S
O1220 C1165 1.426 . S
O1220 C1166 1.334 . S
O1221 C1193 1.412 . S
O1221 C1194 1.393 . S
O1222 C1184 1.435 . S
O1222 C1219 1.458 . S
O1223 C1175 1.468 . S
O1223 C1176 1.408 . S
H1224 C1165 0.980 . S
H1225 C1164 0.959 . S
H1226 C1164 0.959 . S
H1227 C1164 0.960 . S
H1228 C1167 0.929 . S
H1229 C1171 0.929 . S
H1230 C1172 0.959 . S
H1231 C1172 0.961 . S
H1232 C1172 0.961 . S
H1233 C1173 0.960 . S
H1234 C1173 0.960 . S
H1235 C1173 0.961 . S
H1236 C1175 0.980 . S
H1237 C1174 0.961 . S
H1238 C1174 0.960 . S
H1239 C1174 0.959 . S
H1240 C1177 0.930 . S
H1241 C1181 0.931 . S
H1242 C1182 0.959 . S
H1243 C1182 0.961 . S
H1244 C1182 0.959 . S
H1245 C1183 0.960 . S
H1246 C1183 0.960 . S
H1247 C1183 0.960 . S
H1248 C1219 0.980 . S
H1249 C1185 0.930 . S
H1250 C1189 0.930 . S
H1251 C1190 0.961 . S
H1252 C1190 0.960 . S
H1253 C1190 0.958 . S
H1254 C1191 0.961 . S
H1255 C1191 0.960 . S
H1256 C1191 0.960 . S
H1257 C1193 0.980 . S
H1258 C1192 0.961 . S
H1259 C1192 0.961 . S
H1260 C1192 0.959 . S
H1261 C1195 0.932 . S
H1262 C1199 0.929 . S
H1263 C1200 0.961 . S
H1264 C1200 0.959 . S
H1265 C1200 0.959 . S
H1266 C1201 0.960 . S
H1267 C1201 0.962 . S
H1268 C1201 0.961 . S
H1269 C1203 0.929 . S
H1270 C1206 0.930 . S
H1271 C1207 0.929 . S
H1272 C1210 0.930 . S
H1273 C1213 0.929 . S
H1274 C1214 0.930 . S
H1275 C1218 0.962 . S
H1276 C1218 0.959 . S
H1277 C1218 0.958 . S
C1278 C1279 1.560 . S
C1278 H1339 0.959 . S
C1278 H1340 0.959 . S
C1278 H1341 0.960 . S
C1279 C1278 1.560 . S
C1279 O1334 1.426 . S
C1279 H1338 0.980 . S
C1280 C1281 1.407 1_455 S
C1280 C1285 1.418 . S
C1280 O1334 1.334 . S
C1281 C1280 1.407 1_655 S
C1281 C1282 1.360 . S
C1281 H1342 0.929 . S
C1282 C1281 1.360 . S
C1282 C1283 1.401 1_655 S
C1282 C1286 1.527 . S
C1283 C1282 1.401 1_455 S
C1283 C1284 1.405 . S
C1283 C1316 1.587 1_455 S
C1284 C1283 1.405 . S
C1284 C1285 1.332 . S
C1284 C1287 1.496 . S
C1285 C1280 1.418 . S
C1285 C1284 1.332 . S
C1285 H1343 0.929 . S
C1286 C1282 1.527 . S
C1286 H1344 0.959 . S
C1286 H1345 0.961 . S
C1286 H1346 0.961 . S
C1287 C1284 1.496 . S
C1287 H1347 0.960 . S
C1287 H1348 0.960 . S
C1287 H1349 0.961 . S
C1288 C1289 1.517 . S
C1288 H1351 0.961 . S
C1288 H1352 0.960 . S
C1288 H1353 0.959 . S
C1289 C1288 1.517 . S
C1289 O1337 1.468 . S
C1289 H1350 0.933 1_655 S
C1290 C1291 1.349 . S
C1290 C1295 1.367 . S
C1290 O1337 1.408 . S
C1291 C1290 1.349 . S
C1291 C1292 1.400 1_655 S
C1291 H1354 0.930 1_655 S
C1292 C1291 1.400 1_455 S
C1292 C1293 1.443 1_455 S
C1292 C1296 1.547 . S
C1293 C1292 1.443 1_655 S
C1293 C1294 1.384 . S
C1293 C1318 1.553 . S
C1294 C1293 1.384 . S
C1294 C1295 1.364 . S
C1294 C1297 1.450 . S
C1295 C1290 1.367 . S
C1295 C1294 1.364 . S
C1295 H1355 0.931 . S
C1296 C1292 1.547 . S
C1296 H1356 0.959 . S
C1296 H1357 0.961 . S
C1296 H1358 0.959 . S
C1297 C1294 1.450 . S
C1297 H1359 0.960 . S
C1297 H1360 0.960 . S
C1297 H1361 0.960 . S
C1298 C1299 1.309 . S
C1298 C1303 1.304 . S
C1298 O1336 1.435 . S
C1299 C1298 1.309 . S
C1299 C1300 1.452 1_655 S
C1299 H1363 0.930 1_655 S
C1300 C1299 1.452 1_455 S
C1300 C1301 1.386 1_455 S
C1300 C1304 1.605 . S
C1301 C1300 1.386 1_655 S
C1301 C1302 1.373 . S
C1301 C1323 1.432 . S
C1302 C1301 1.373 . S
C1302 C1303 1.339 . S
C1302 C1305 1.530 . S
C1303 C1298 1.304 . S
C1303 C1302 1.339 . S
C1303 H1364 0.930 . S
C1304 C1300 1.605 . S
C1304 H1365 0.961 . S
C1304 H1366 0.960 . S
C1304 H1367 0.958 . S
C1305 C1302 1.530 . S
C1305 H1368 0.961 . S
C1305 H1369 0.960 . S
C1305 H1370 0.960 . S
C1306 C1307 1.589 . S
C1306 H1372 0.961 . S
C1306 H1373 0.961 . S
C1306 H1374 0.959 . S
C1307 C1306 1.589 . S
C1307 O1335 1.425 . S
C1307 H1371 0.964 1_455 S
C1308 C1309 1.288 . S
C1308 C1313 1.377 1_455 S
C1308 O1335 1.393 . S
C1309 C1308 1.288 . S
C1309 C1310 1.369 . S
C1309 H1375 0.932 . S
C1310 C1309 1.369 . S
C1310 C1311 1.398 1_455 S
C1310 C1314 1.527 . S
C1311 C1310 1.398 1_655 S
C1311 C1312 1.380 . S
C1311 C1325 1.497 . S
C1312 C1311 1.380 . S
C1312 C1313 1.383 . S
C1312 C1315 1.603 . S
C1313 C1308 1.377 1_655 S
C1313 C1312 1.383 . S
C1313 H1376 0.929 . S
C1314 C1310 1.527 . S
C1314 H1377 0.961 . S
C1314 H1378 0.959 . S
C1314 H1379 0.959 . S
C1315 C1312 1.603 . S
C1315 H1380 0.960 . S
C1315 H1381 0.962 . S
C1315 H1382 0.961 . S
C1316 C1283 1.587 1_655 S
C1316 C1317 1.360 . S
C1316 C1329 1.412 . S
C1317 C1316 1.360 . S
C1317 C1318 1.365 . S
C1317 H1383 0.929 . S
C1318 C1293 1.553 . S
C1318 C1317 1.365 . S
C1318 C1319 1.404 . S
C1319 C1318 1.404 . S
C1319 C1320 1.395 . S
C1319 C1330 1.451 . S
C1320 C1319 1.395 . S
C1320 C1321 1.322 . S
C1320 H1384 0.930 . S
C1321 C1320 1.322 . S
C1321 C1322 1.459 . S
C1321 H1385 0.929 . S
C1322 C1321 1.459 . S
C1322 C1323 1.445 . S
C1322 C1331 1.395 . S
C1323 C1301 1.432 . S
C1323 C1322 1.445 . S
C1323 C1324 1.370 . S
C1324 C1323 1.370 . S
C1324 C1325 1.438 . S
C1324 H1386 0.930 . S
C1325 C1311 1.497 . S
C1325 C1324 1.438 . S
C1325 C1326 1.360 . S
C1326 C1325 1.360 . S
C1326 C1327 1.401 . S
C1326 C1331 1.446 . S
C1327 C1326 1.401 . S
C1327 C1328 1.347 . S
C1327 H1387 0.929 . S
C1328 C1327 1.347 . S
C1328 C1329 1.455 . S
C1328 H1388 0.930 . S
C1329 C1316 1.412 . S
C1329 C1328 1.455 . S
C1329 C1330 1.331 . S
C1330 C1319 1.451 . S
C1330 C1329 1.331 . S
C1330 C1331 1.497 . S
C1331 C1322 1.395 . S
C1331 C1326 1.446 . S
C1331 C1330 1.497 . S
C1332 C1333 1.582 . S
C1332 H1389 0.962 . S
C1332 H1390 0.959 . S
C1332 H1391 0.958 . S
C1333 C1332 1.582 . S
C1333 O1336 1.458 . S
C1333 H1362 0.980 . S
O1334 C1279 1.426 . S
O1334 C1280 1.334 . S
O1335 C1307 1.425 . S
O1335 C1308 1.393 . S
O1336 C1298 1.435 . S
O1336 C1333 1.458 . S
O1337 C1289 1.468 . S
O1337 C1290 1.408 . S
H1338 C1279 0.980 . S
H1339 C1278 0.959 . S
H1340 C1278 0.959 . S
H1341 C1278 0.960 . S
H1342 C1281 0.929 . S
H1343 C1285 0.929 . S
H1344 C1286 0.959 . S
H1345 C1286 0.961 . S
H1346 C1286 0.961 . S
H1347 C1287 0.960 . S
H1348 C1287 0.960 . S
H1349 C1287 0.961 . S
H1350 C1289 0.933 1_455 S
H1351 C1288 0.961 . S
H1352 C1288 0.960 . S
H1353 C1288 0.959 . S
H1354 C1291 0.930 1_455 S
H1355 C1295 0.931 . S
H1356 C1296 0.959 . S
H1357 C1296 0.961 . S
H1358 C1296 0.959 . S
H1359 C1297 0.960 . S
H1360 C1297 0.960 . S
H1361 C1297 0.960 . S
H1362 C1333 0.980 . S
H1363 C1299 0.930 1_455 S
H1364 C1303 0.930 . S
H1365 C1304 0.961 . S
H1366 C1304 0.960 . S
H1367 C1304 0.958 . S
H1368 C1305 0.961 . S
H1369 C1305 0.960 . S
H1370 C1305 0.960 . S
H1371 C1307 0.964 1_655 S
H1372 C1306 0.961 . S
H1373 C1306 0.961 . S
H1374 C1306 0.959 . S
H1375 C1309 0.932 . S
H1376 C1313 0.929 . S
H1377 C1314 0.961 . S
H1378 C1314 0.959 . S
H1379 C1314 0.959 . S
H1380 C1315 0.960 . S
H1381 C1315 0.962 . S
H1382 C1315 0.961 . S
H1383 C1317 0.929 . S
H1384 C1320 0.930 . S
H1385 C1321 0.929 . S
H1386 C1324 0.930 . S
H1387 C1327 0.929 . S
H1388 C1328 0.930 . S
H1389 C1332 0.962 . S
H1390 C1332 0.959 . S
H1391 C1332 0.958 . S
C1392 C1393 1.560 . S
C1392 H1453 0.959 . S
C1392 H1454 0.959 . S
C1392 H1455 0.960 . S
C1393 C1392 1.560 . S
C1393 O1448 1.426 . S
C1393 H1452 0.980 . S
C1394 C1395 1.407 . S
C1394 C1399 1.418 . S
C1394 O1448 1.334 . S
C1395 C1394 1.407 . S
C1395 C1396 1.360 . S
C1395 H1456 0.929 . S
C1396 C1395 1.360 . S
C1396 C1397 1.401 . S
C1396 C1400 1.527 . S
C1397 C1396 1.401 . S
C1397 C1398 1.405 . S
C1397 C1430 1.587 . S
C1398 C1397 1.405 . S
C1398 C1399 1.332 . S
C1398 C1401 1.496 . S
C1399 C1394 1.418 . S
C1399 C1398 1.332 . S
C1399 H1457 0.929 . S
C1400 C1396 1.527 . S
C1400 H1458 0.959 . S
C1400 H1459 0.961 . S
C1400 H1460 0.961 . S
C1401 C1398 1.496 . S
C1401 H1461 0.960 . S
C1401 H1462 0.960 . S
C1401 H1463 0.961 . S
C1402 C1403 1.517 . S
C1402 H1465 0.961 . S
C1402 H1466 0.960 . S
C1402 H1467 0.959 . S
C1403 C1402 1.517 . S
C1403 O1451 1.468 . S
C1403 H1464 0.980 . S
C1404 C1405 1.349 . S
C1404 C1409 1.367 . S
C1404 O1451 1.408 . S
C1405 C1404 1.349 . S
C1405 C1406 1.407 . S
C1405 H1468 0.930 . S
C1406 C1405 1.407 . S
C1406 C1407 1.449 . S
C1406 C1410 1.535 . S
C1407 C1406 1.449 . S
C1407 C1408 1.384 . S
C1407 C1432 1.553 . S
C1408 C1407 1.384 . S
C1408 C1409 1.364 . S
C1408 C1411 1.450 . S
C1409 C1404 1.367 . S
C1409 C1408 1.364 . S
C1409 H1469 0.931 . S
C1410 C1406 1.535 . S
C1410 H1470 0.959 . S
C1410 H1471 0.961 . S
C1410 H1472 0.959 . S
C1411 C1408 1.450 . S
C1411 H1473 0.960 . S
C1411 H1474 0.960 . S
C1411 H1475 0.960 . S
C1412 C1413 1.309 . S
C1412 C1417 1.304 . S
C1412 O1450 1.435 . S
C1413 C1412 1.309 . S
C1413 C1414 1.476 . S
C1413 H1477 0.930 . S
C1414 C1413 1.476 . S
C1414 C1415 1.400 . S
C1414 C1418 1.567 . S
C1415 C1414 1.400 . S
C1415 C1416 1.373 . S
C1415 C1437 1.432 . S
C1416 C1415 1.373 . S
C1416 C1417 1.339 . S
C1416 C1419 1.530 . S
C1417 C1412 1.304 . S
C1417 C1416 1.339 . S
C1417 H1478 0.930 . S
C1418 C1414 1.567 . S
C1418 H1479 0.961 . S
C1418 H1480 0.960 . S
C1418 H1481 0.958 . S
C1419 C1416 1.530 . S
C1419 H1482 0.961 . S
C1419 H1483 0.960 . S
C1419 H1484 0.960 . S
C1420 C1421 1.530 . S
C1420 H1486 0.961 . S
C1420 H1487 0.961 . S
C1420 H1488 0.959 . S
C1421 C1420 1.530 . S
C1421 O1449 1.412 . S
C1421 H1485 0.980 . S
C1422 C1423 1.288 . S
C1422 C1427 1.377 . S
C1422 O1449 1.393 . S
C1423 C1422 1.288 . S
C1423 C1424 1.369 . S
C1423 H1489 0.932 . S
C1424 C1423 1.369 . S
C1424 C1425 1.398 . S
C1424 C1428 1.527 . S
C1425 C1424 1.398 . S
C1425 C1426 1.380 . S
C1425 C1439 1.497 . S
C1426 C1425 1.380 . S
C1426 C1427 1.383 . S
C1426 C1429 1.603 . S
C1427 C1422 1.377 . S
C1427 C1426 1.383 . S
C1427 H1490 0.929 . S
C1428 C1424 1.527 . S
C1428 H1491 0.961 . S
C1428 H1492 0.959 . S
C1428 H1493 0.959 . S
C1429 C1426 1.603 . S
C1429 H1494 0.960 . S
C1429 H1495 0.962 . S
C1429 H1496 0.961 . S
C1430 C1397 1.587 . S
C1430 C1431 1.360 . S
C1430 C1443 1.412 . S
C1431 C1430 1.360 . S
C1431 C1432 1.365 . S
C1431 H1497 0.929 . S
C1432 C1407 1.553 . S
C1432 C1431 1.365 . S
C1432 C1433 1.404 . S
C1433 C1432 1.404 . S
C1433 C1434 1.395 . S
C1433 C1444 1.451 . S
C1434 C1433 1.395 . S
C1434 C1435 1.322 . S
C1434 H1498 0.930 . S
C1435 C1434 1.322 . S
C1435 C1436 1.459 . S
C1435 H1499 0.929 . S
C1436 C1435 1.459 . S
C1436 C1437 1.445 . S
C1436 C1445 1.395 . S
C1437 C1415 1.432 . S
C1437 C1436 1.445 . S
C1437 C1438 1.370 . S
C1438 C1437 1.370 . S
C1438 C1439 1.438 . S
C1438 H1500 0.930 . S
C1439 C1425 1.497 . S
C1439 C1438 1.438 . S
C1439 C1440 1.360 . S
C1440 C1439 1.360 . S
C1440 C1441 1.401 . S
C1440 C1445 1.446 . S
C1441 C1440 1.401 . S
C1441 C1442 1.347 . S
C1441 H1501 0.929 . S
C1442 C1441 1.347 . S
C1442 C1443 1.455 . S
C1442 H1502 0.930 . S
C1443 C1430 1.412 . S
C1443 C1442 1.455 . S
C1443 C1444 1.331 . S
C1444 C1433 1.451 . S
C1444 C1443 1.331 . S
C1444 C1445 1.497 . S
C1445 C1436 1.395 . S
C1445 C1440 1.446 . S
C1445 C1444 1.497 . S
C1446 C1447 1.582 . S
C1446 H1503 0.962 . S
C1446 H1504 0.959 . S
C1446 H1505 0.958 . S
C1447 C1446 1.582 . S
C1447 O1450 1.458 . S
C1447 H1476 0.980 . S
O1448 C1393 1.426 . S
O1448 C1394 1.334 . S
O1449 C1421 1.412 . S
O1449 C1422 1.393 . S
O1450 C1412 1.435 . S
O1450 C1447 1.458 . S
O1451 C1403 1.468 . S
O1451 C1404 1.408 . S
H1452 C1393 0.980 . S
H1453 C1392 0.959 . S
H1454 C1392 0.959 . S
H1455 C1392 0.960 . S
H1456 C1395 0.929 . S
H1457 C1399 0.929 . S
H1458 C1400 0.959 . S
H1459 C1400 0.961 . S
H1460 C1400 0.961 . S
H1461 C1401 0.960 . S
H1462 C1401 0.960 . S
H1463 C1401 0.961 . S
H1464 C1403 0.980 . S
H1465 C1402 0.961 . S
H1466 C1402 0.960 . S
H1467 C1402 0.959 . S
H1468 C1405 0.930 . S
H1469 C1409 0.931 . S
H1470 C1410 0.959 . S
H1471 C1410 0.961 . S
H1472 C1410 0.959 . S
H1473 C1411 0.960 . S
H1474 C1411 0.960 . S
H1475 C1411 0.960 . S
H1476 C1447 0.980 . S
H1477 C1413 0.930 . S
H1478 C1417 0.930 . S
H1479 C1418 0.961 . S
H1480 C1418 0.960 . S
H1481 C1418 0.958 . S
H1482 C1419 0.961 . S
H1483 C1419 0.960 . S
H1484 C1419 0.960 . S
H1485 C1421 0.980 . S
H1486 C1420 0.961 . S
H1487 C1420 0.961 . S
H1488 C1420 0.959 . S
H1489 C1423 0.932 . S
H1490 C1427 0.929 . S
H1491 C1428 0.961 . S
H1492 C1428 0.959 . S
H1493 C1428 0.959 . S
H1494 C1429 0.960 . S
H1495 C1429 0.962 . S
H1496 C1429 0.961 . S
H1497 C1431 0.929 . S
H1498 C1434 0.930 . S
H1499 C1435 0.929 . S
H1500 C1438 0.930 . S
H1501 C1441 0.929 . S
H1502 C1442 0.930 . S
H1503 C1446 0.962 . S
H1504 C1446 0.959 . S
H1505 C1446 0.958 . S
C1506 C1507 1.560 . S
C1506 H1567 0.959 . S
C1506 H1568 0.959 . S
C1506 H1569 0.960 . S
C1507 C1506 1.560 . S
C1507 O1562 1.426 . S
C1507 H1566 0.980 . S
C1508 C1509 1.407 1_565 S
C1508 C1513 1.418 . S
C1508 O1562 1.334 . S
C1509 C1508 1.407 1_545 S
C1509 C1510 1.360 . S
C1509 H1570 0.929 . S
C1510 C1509 1.360 . S
C1510 C1511 1.401 1_545 S
C1510 C1514 1.527 . S
C1511 C1510 1.401 1_565 S
C1511 C1512 1.405 . S
C1511 C1544 1.587 1_565 S
C1512 C1511 1.405 . S
C1512 C1513 1.332 . S
C1512 C1515 1.496 . S
C1513 C1508 1.418 . S
C1513 C1512 1.332 . S
C1513 H1571 0.929 . S
C1514 C1510 1.527 . S
C1514 H1572 0.959 . S
C1514 H1573 0.961 . S
C1514 H1574 0.961 . S
C1515 C1512 1.496 . S
C1515 H1575 0.960 . S
C1515 H1576 0.960 . S
C1515 H1577 0.961 . S
C1516 C1517 1.517 . S
C1516 H1579 0.913 1_545 S
C1516 H1580 0.960 . S
C1516 H1581 0.959 . S
C1517 C1516 1.517 . S
C1517 O1565 1.468 . S
C1517 H1578 0.980 1_545 S
C1518 C1519 1.349 . S
C1518 C1523 1.367 . S
C1518 O1565 1.408 . S
C1519 C1518 1.349 . S
C1519 C1520 1.407 1_545 S
C1519 H1582 0.930 1_545 S
C1520 C1519 1.407 1_565 S
C1520 C1521 1.449 1_565 S
C1520 C1524 1.535 . S
C1521 C1520 1.449 1_545 S
C1521 C1522 1.384 . S
C1521 C1546 1.553 . S
C1522 C1521 1.384 . S
C1522 C1523 1.364 . S
C1522 C1525 1.450 . S
C1523 C1518 1.367 . S
C1523 C1522 1.364 . S
C1523 H1583 0.931 . S
C1524 C1520 1.535 . S
C1524 H1584 0.959 . S
C1524 H1585 0.961 . S
C1524 H1586 0.959 . S
C1525 C1522 1.450 . S
C1525 H1587 0.960 . S
C1525 H1588 0.960 . S
C1525 H1589 0.960 . S
C1526 C1527 1.309 . S
C1526 C1531 1.304 . S
C1526 O1564 1.435 . S
C1527 C1526 1.309 . S
C1527 C1528 1.482 1_545 S
C1527 H1591 0.930 1_545 S
C1528 C1527 1.482 1_565 S
C1528 C1529 1.380 1_565 S
C1528 C1532 1.581 . S
C1529 C1528 1.380 1_545 S
C1529 C1530 1.373 . S
C1529 C1551 1.432 . S
C1530 C1529 1.373 . S
C1530 C1531 1.339 . S
C1530 C1533 1.530 . S
C1531 C1526 1.304 . S
C1531 C1530 1.339 . S
C1531 H1592 0.930 . S
C1532 C1528 1.581 . S
C1532 H1593 0.961 . S
C1532 H1594 0.960 . S
C1532 H1595 0.958 . S
C1533 C1530 1.530 . S
C1533 H1596 0.961 . S
C1533 H1597 0.960 . S
C1533 H1598 0.960 . S
C1534 C1535 1.530 1_565 S
C1534 H1600 0.961 . S
C1534 H1601 0.961 . S
C1534 H1602 0.959 . S
C1535 C1534 1.530 1_545 S
C1535 O1563 1.412 1_545 S
C1535 H1599 0.980 . S
C1536 C1537 1.288 . S
C1536 C1541 1.377 1_565 S
C1536 O1563 1.393 . S
C1537 C1536 1.288 . S
C1537 C1538 1.369 . S
C1537 H1603 0.932 . S
C1538 C1537 1.369 . S
C1538 C1539 1.398 1_565 S
C1538 C1542 1.527 . S
C1539 C1538 1.398 1_545 S
C1539 C1540 1.380 . S
C1539 C1553 1.497 . S
C1540 C1539 1.380 . S
C1540 C1541 1.383 . S
C1540 C1543 1.603 . S
C1541 C1536 1.377 1_545 S
C1541 C1540 1.383 . S
C1541 H1604 0.929 . S
C1542 C1538 1.527 . S
C1542 H1605 0.961 . S
C1542 H1606 0.959 . S
C1542 H1607 0.959 . S
C1543 C1540 1.603 . S
C1543 H1608 0.960 . S
C1543 H1609 0.962 . S
C1543 H1610 0.961 . S
C1544 C1511 1.587 1_545 S
C1544 C1545 1.360 . S
C1544 C1557 1.412 . S
C1545 C1544 1.360 . S
C1545 C1546 1.365 . S
C1545 H1611 0.929 . S
C1546 C1521 1.553 . S
C1546 C1545 1.365 . S
C1546 C1547 1.404 . S
C1547 C1546 1.404 . S
C1547 C1548 1.395 . S
C1547 C1558 1.451 . S
C1548 C1547 1.395 . S
C1548 C1549 1.322 . S
C1548 H1612 0.930 . S
C1549 C1548 1.322 . S
C1549 C1550 1.459 . S
C1549 H1613 0.929 . S
C1550 C1549 1.459 . S
C1550 C1551 1.445 . S
C1550 C1559 1.395 . S
C1551 C1529 1.432 . S
C1551 C1550 1.445 . S
C1551 C1552 1.370 . S
C1552 C1551 1.370 . S
C1552 C1553 1.438 . S
C1552 H1614 0.930 . S
C1553 C1539 1.497 . S
C1553 C1552 1.438 . S
C1553 C1554 1.360 . S
C1554 C1553 1.360 . S
C1554 C1555 1.401 . S
C1554 C1559 1.446 . S
C1555 C1554 1.401 . S
C1555 C1556 1.347 . S
C1555 H1615 0.929 . S
C1556 C1555 1.347 . S
C1556 C1557 1.455 . S
C1556 H1616 0.930 . S
C1557 C1544 1.412 . S
C1557 C1556 1.455 . S
C1557 C1558 1.331 . S
C1558 C1547 1.451 . S
C1558 C1557 1.331 . S
C1558 C1559 1.497 . S
C1559 C1550 1.395 . S
C1559 C1554 1.446 . S
C1559 C1558 1.497 . S
C1560 C1561 1.582 . S
C1560 H1617 0.962 . S
C1560 H1618 0.959 . S
C1560 H1619 0.958 . S
C1561 C1560 1.582 . S
C1561 O1564 1.458 . S
C1561 H1590 0.980 . S
O1562 C1507 1.426 . S
O1562 C1508 1.334 . S
O1563 C1535 1.412 1_565 S
O1563 C1536 1.393 . S
O1564 C1526 1.435 . S
O1564 C1561 1.458 . S
O1565 C1517 1.468 . S
O1565 C1518 1.408 . S
H1566 C1507 0.980 . S
H1567 C1506 0.959 . S
H1568 C1506 0.959 . S
H1569 C1506 0.960 . S
H1570 C1509 0.929 . S
H1571 C1513 0.929 . S
H1572 C1514 0.959 . S
H1573 C1514 0.961 . S
H1574 C1514 0.961 . S
H1575 C1515 0.960 . S
H1576 C1515 0.960 . S
H1577 C1515 0.961 . S
H1578 C1517 0.980 1_565 S
H1579 C1516 0.913 1_565 S
H1580 C1516 0.960 . S
H1581 C1516 0.959 . S
H1582 C1519 0.930 1_565 S
H1583 C1523 0.931 . S
H1584 C1524 0.959 . S
H1585 C1524 0.961 . S
H1586 C1524 0.959 . S
H1587 C1525 0.960 . S
H1588 C1525 0.960 . S
H1589 C1525 0.960 . S
H1590 C1561 0.980 . S
H1591 C1527 0.930 1_565 S
H1592 C1531 0.930 . S
H1593 C1532 0.961 . S
H1594 C1532 0.960 . S
H1595 C1532 0.958 . S
H1596 C1533 0.961 . S
H1597 C1533 0.960 . S
H1598 C1533 0.960 . S
H1599 C1535 0.980 . S
H1600 C1534 0.961 . S
H1601 C1534 0.961 . S
H1602 C1534 0.959 . S
H1603 C1537 0.932 . S
H1604 C1541 0.929 . S
H1605 C1542 0.961 . S
H1606 C1542 0.959 . S
H1607 C1542 0.959 . S
H1608 C1543 0.960 . S
H1609 C1543 0.962 . S
H1610 C1543 0.961 . S
H1611 C1545 0.929 . S
H1612 C1548 0.930 . S
H1613 C1549 0.929 . S
H1614 C1552 0.930 . S
H1615 C1555 0.929 . S
H1616 C1556 0.930 . S
H1617 C1560 0.962 . S
H1618 C1560 0.959 . S
H1619 C1560 0.958 . S
C1620 C1621 1.560 . S
C1620 H1681 0.959 . S
C1620 H1682 0.959 . S
C1620 H1683 0.960 . S
C1621 C1620 1.560 . S
C1621 O1676 1.426 . S
C1621 H1680 0.980 1_565 S
C1622 C1623 1.407 1_565 S
C1622 C1627 1.418 . S
C1622 O1676 1.334 . S
C1623 C1622 1.407 1_545 S
C1623 C1624 1.360 . S
C1623 H1684 0.929 . S
C1624 C1623 1.360 . S
C1624 C1625 1.401 . S
C1624 C1628 1.527 . S
C1625 C1624 1.401 . S
C1625 C1626 1.405 1_545 S
C1625 C1658 1.587 . S
C1626 C1625 1.405 1_565 S
C1626 C1627 1.332 . S
C1626 C1629 1.496 . S
C1627 C1622 1.418 . S
C1627 C1626 1.332 . S
C1627 H1685 0.929 . S
C1628 C1624 1.527 . S
C1628 H1686 0.959 . S
C1628 H1687 0.961 . S
C1628 H1688 0.961 . S
C1629 C1626 1.496 . S
C1629 H1689 0.960 . S
C1629 H1690 0.960 . S
C1629 H1691 0.961 . S
C1630 C1631 1.517 . S
C1630 H1693 0.961 . S
C1630 H1694 0.960 . S
C1630 H1695 0.959 . S
C1631 C1630 1.517 . S
C1631 O1679 1.468 . S
C1631 H1692 0.980 . S
C1632 C1633 1.349 . S
C1632 C1637 1.367 . S
C1632 O1679 1.408 . S
C1633 C1632 1.349 . S
C1633 C1634 1.407 . S
C1633 H1696 0.911 1_545 S
C1634 C1633 1.407 . S
C1634 C1635 1.449 . S
C1634 C1638 1.535 1_545 S
C1635 C1634 1.449 . S
C1635 C1636 1.384 . S
C1635 C1660 1.553 . S
C1636 C1635 1.384 . S
C1636 C1637 1.364 . S
C1636 C1639 1.450 . S
C1637 C1632 1.367 . S
C1637 C1636 1.364 . S
C1637 H1697 0.931 . S
C1638 C1634 1.535 1_565 S
C1638 H1698 0.959 . S
C1638 H1699 0.961 . S
C1638 H1700 0.959 . S
C1639 C1636 1.450 . S
C1639 H1701 0.960 . S
C1639 H1702 0.960 . S
C1639 H1703 0.960 . S
C1640 C1641 1.309 1_545 S
C1640 C1645 1.304 . S
C1640 O1678 1.435 . S
C1641 C1640 1.309 1_565 S
C1641 C1642 1.476 . S
C1641 H1705 0.930 . S
C1642 C1641 1.476 . S
C1642 C1643 1.400 1_565 S
C1642 C1646 1.567 . S
C1643 C1642 1.400 1_545 S
C1643 C1644 1.373 . S
C1643 C1665 1.432 . S
C1644 C1643 1.373 . S
C1644 C1645 1.339 . S
C1644 C1647 1.530 . S
C1645 C1640 1.304 . S
C1645 C1644 1.339 . S
C1645 H1706 0.930 . S
C1646 C1642 1.567 . S
C1646 H1707 0.961 . S
C1646 H1708 0.960 . S
C1646 H1709 0.958 . S
C1647 C1644 1.530 . S
C1647 H1710 0.961 . S
C1647 H1711 0.960 . S
C1647 H1712 0.960 . S
C1648 C1649 1.530 . S
C1648 H1714 0.961 . S
C1648 H1715 0.961 . S
C1648 H1716 0.959 . S
C1649 C1648 1.530 . S
C1649 O1677 1.412 . S
C1649 H1713 0.982 1_565 S
C1650 C1651 1.288 . S
C1650 C1655 1.377 1_565 S
C1650 O1677 1.393 . S
C1651 C1650 1.288 . S
C1651 C1652 1.369 . S
C1651 H1717 0.932 . S
C1652 C1651 1.369 . S
C1652 C1653 1.398 . S
C1652 C1656 1.527 . S
C1653 C1652 1.398 . S
C1653 C1654 1.380 1_565 S
C1653 C1667 1.497 1_565 S
C1654 C1653 1.380 1_545 S
C1654 C1655 1.383 . S
C1654 C1657 1.603 . S
C1655 C1650 1.377 1_545 S
C1655 C1654 1.383 . S
C1655 H1718 0.929 . S
C1656 C1652 1.527 . S
C1656 H1719 0.961 . S
C1656 H1720 0.959 . S
C1656 H1721 0.959 . S
C1657 C1654 1.603 . S
C1657 H1722 0.960 . S
C1657 H1723 0.962 . S
C1657 H1724 0.961 . S
C1658 C1625 1.587 . S
C1658 C1659 1.360 . S
C1658 C1671 1.412 . S
C1659 C1658 1.360 . S
C1659 C1660 1.365 . S
C1659 H1725 0.929 . S
C1660 C1635 1.553 . S
C1660 C1659 1.365 . S
C1660 C1661 1.404 . S
C1661 C1660 1.404 . S
C1661 C1662 1.395 . S
C1661 C1672 1.451 . S
C1662 C1661 1.395 . S
C1662 C1663 1.322 . S
C1662 H1726 0.930 . S
C1663 C1662 1.322 . S
C1663 C1664 1.459 . S
C1663 H1727 0.929 . S
C1664 C1663 1.459 . S
C1664 C1665 1.445 . S
C1664 C1673 1.395 . S
C1665 C1643 1.432 . S
C1665 C1664 1.445 . S
C1665 C1666 1.370 . S
C1666 C1665 1.370 . S
C1666 C1667 1.438 . S
C1666 H1728 0.930 . S
C1667 C1653 1.497 1_545 S
C1667 C1666 1.438 . S
C1667 C1668 1.360 . S
C1668 C1667 1.360 . S
C1668 C1669 1.401 . S
C1668 C1673 1.446 . S
C1669 C1668 1.401 . S
C1669 C1670 1.347 . S
C1669 H1729 0.929 . S
C1670 C1669 1.347 . S
C1670 C1671 1.455 . S
C1670 H1730 0.930 . S
C1671 C1658 1.412 . S
C1671 C1670 1.455 . S
C1671 C1672 1.331 . S
C1672 C1661 1.451 . S
C1672 C1671 1.331 . S
C1672 C1673 1.497 . S
C1673 C1664 1.395 . S
C1673 C1668 1.446 . S
C1673 C1672 1.497 . S
C1674 C1675 1.625 . S
C1674 H1731 0.962 . S
C1674 H1732 0.959 . S
C1674 H1733 0.958 . S
C1675 C1674 1.625 . S
C1675 O1678 1.476 . S
C1675 H1704 0.981 1_545 S
O1676 C1621 1.426 . S
O1676 C1622 1.334 . S
O1677 C1649 1.412 . S
O1677 C1650 1.393 . S
O1678 C1640 1.435 . S
O1678 C1675 1.476 . S
O1679 C1631 1.468 . S
O1679 C1632 1.408 . S
H1680 C1621 0.980 1_545 S
H1681 C1620 0.959 . S
H1682 C1620 0.959 . S
H1683 C1620 0.960 . S
H1684 C1623 0.929 . S
H1685 C1627 0.929 . S
H1686 C1628 0.959 . S
H1687 C1628 0.961 . S
H1688 C1628 0.961 . S
H1689 C1629 0.960 . S
H1690 C1629 0.960 . S
H1691 C1629 0.961 . S
H1692 C1631 0.980 . S
H1693 C1630 0.961 . S
H1694 C1630 0.960 . S
H1695 C1630 0.959 . S
H1696 C1633 0.911 1_565 S
H1697 C1637 0.931 . S
H1698 C1638 0.959 . S
H1699 C1638 0.961 . S
H1700 C1638 0.959 . S
H1701 C1639 0.960 . S
H1702 C1639 0.960 . S
H1703 C1639 0.960 . S
H1704 C1675 0.981 1_565 S
H1705 C1641 0.930 . S
H1706 C1645 0.930 . S
H1707 C1646 0.961 . S
H1708 C1646 0.960 . S
H1709 C1646 0.958 . S
H1710 C1647 0.961 . S
H1711 C1647 0.960 . S
H1712 C1647 0.960 . S
H1713 C1649 0.982 1_545 S
H1714 C1648 0.961 . S
H1715 C1648 0.961 . S
H1716 C1648 0.959 . S
H1717 C1651 0.932 . S
H1718 C1655 0.929 . S
H1719 C1656 0.961 . S
H1720 C1656 0.959 . S
H1721 C1656 0.959 . S
H1722 C1657 0.960 . S
H1723 C1657 0.962 . S
H1724 C1657 0.961 . S
H1725 C1659 0.929 . S
H1726 C1662 0.930 . S
H1727 C1663 0.929 . S
H1728 C1666 0.930 . S
H1729 C1669 0.929 . S
H1730 C1670 0.930 . S
H1731 C1674 0.962 . S
H1732 C1674 0.959 . S
H1733 C1674 0.958 . S
C1734 C1735 1.560 . S
C1734 H1795 0.959 . S
C1734 H1796 0.959 . S
C1734 H1797 0.960 . S
C1735 C1734 1.560 . S
C1735 O1790 1.426 . S
C1735 H1794 0.980 1_455 S
C1736 C1737 1.407 1_455 S
C1736 C1741 1.418 . S
C1736 O1790 1.334 . S
C1737 C1736 1.407 1_655 S
C1737 C1738 1.360 . S
C1737 H1798 0.929 . S
C1738 C1737 1.360 . S
C1738 C1739 1.401 . S
C1738 C1742 1.527 . S
C1739 C1738 1.401 . S
C1739 C1740 1.405 1_655 S
C1739 C1772 1.587 . S
C1740 C1739 1.405 1_455 S
C1740 C1741 1.332 . S
C1740 C1743 1.496 . S
C1741 C1736 1.418 . S
C1741 C1740 1.332 . S
C1741 H1799 0.929 . S
C1742 C1738 1.527 . S
C1742 H1800 0.959 . S
C1742 H1801 0.961 . S
C1742 H1802 0.961 . S
C1743 C1740 1.496 . S
C1743 H1803 0.960 . S
C1743 H1804 0.960 . S
C1743 H1805 0.961 . S
C1744 C1745 1.517 . S
C1744 H1807 0.961 . S
C1744 H1808 0.960 . S
C1744 H1809 0.959 . S
C1745 C1744 1.517 . S
C1745 O1793 1.468 . S
C1745 H1806 0.980 . S
C1746 C1747 1.349 . S
C1746 C1751 1.367 . S
C1746 O1793 1.408 . S
C1747 C1746 1.349 . S
C1747 C1748 1.407 . S
C1747 H1810 0.889 1_655 S
C1748 C1747 1.407 . S
C1748 C1749 1.449 . S
C1748 C1752 1.535 1_655 S
C1749 C1748 1.449 . S
C1749 C1750 1.384 . S
C1749 C1774 1.553 . S
C1750 C1749 1.384 . S
C1750 C1751 1.364 . S
C1750 C1753 1.450 . S
C1751 C1746 1.367 . S
C1751 C1750 1.364 . S
C1751 H1811 0.931 . S
C1752 C1748 1.535 1_455 S
C1752 H1812 0.959 . S
C1752 H1813 0.961 . S
C1752 H1814 0.959 . S
C1753 C1750 1.450 . S
C1753 H1815 0.960 . S
C1753 H1816 0.960 . S
C1753 H1817 0.960 . S
C1754 C1755 1.309 1_655 S
C1754 C1759 1.304 . S
C1754 O1792 1.435 . S
C1755 C1754 1.309 1_455 S
C1755 C1756 1.476 . S
C1755 H1819 0.930 . S
C1756 C1755 1.476 . S
C1756 C1757 1.400 1_455 S
C1756 C1760 1.567 . S
C1757 C1756 1.400 1_655 S
C1757 C1758 1.373 . S
C1757 C1779 1.432 . S
C1758 C1757 1.373 . S
C1758 C1759 1.339 . S
C1758 C1761 1.530 . S
C1759 C1754 1.304 . S
C1759 C1758 1.339 . S
C1759 H1820 0.930 . S
C1760 C1756 1.567 . S
C1760 H1821 0.961 . S
C1760 H1822 0.960 . S
C1760 H1823 0.958 . S
C1761 C1758 1.530 . S
C1761 H1824 0.961 . S
C1761 H1825 0.960 . S
C1761 H1826 0.960 . S
C1762 C1763 1.530 . S
C1762 H1828 0.961 . S
C1762 H1829 0.961 . S
C1762 H1830 0.959 . S
C1763 C1762 1.530 . S
C1763 O1791 1.412 . S
C1763 H1827 0.970 1_455 S
C1764 C1765 1.288 . S
C1764 C1769 1.377 1_455 S
C1764 O1791 1.393 . S
C1765 C1764 1.288 . S
C1765 C1766 1.369 . S
C1765 H1831 0.932 . S
C1766 C1765 1.369 . S
C1766 C1767 1.398 . S
C1766 C1770 1.527 . S
C1767 C1766 1.398 . S
C1767 C1768 1.380 1_455 S
C1767 C1781 1.497 1_455 S
C1768 C1767 1.380 1_655 S
C1768 C1769 1.383 . S
C1768 C1771 1.603 . S
C1769 C1764 1.377 1_655 S
C1769 C1768 1.383 . S
C1769 H1832 0.929 . S
C1770 C1766 1.527 . S
C1770 H1833 0.961 . S
C1770 H1834 0.959 . S
C1770 H1835 0.959 . S
C1771 C1768 1.603 . S
C1771 H1836 0.960 . S
C1771 H1837 0.962 . S
C1771 H1838 0.961 . S
C1772 C1739 1.587 . S
C1772 C1773 1.360 . S
C1772 C1785 1.412 . S
C1773 C1772 1.360 . S
C1773 C1774 1.365 . S
C1773 H1839 0.929 . S
C1774 C1749 1.553 . S
C1774 C1773 1.365 . S
C1774 C1775 1.404 . S
C1775 C1774 1.404 . S
C1775 C1776 1.395 . S
C1775 C1786 1.451 . S
C1776 C1775 1.395 . S
C1776 C1777 1.322 . S
C1776 H1840 0.930 . S
C1777 C1776 1.322 . S
C1777 C1778 1.459 . S
C1777 H1841 0.929 . S
C1778 C1777 1.459 . S
C1778 C1779 1.445 . S
C1778 C1787 1.395 . S
C1779 C1757 1.432 . S
C1779 C1778 1.445 . S
C1779 C1780 1.370 . S
C1780 C1779 1.370 . S
C1780 C1781 1.438 . S
C1780 H1842 0.930 . S
C1781 C1767 1.497 1_655 S
C1781 C1780 1.438 . S
C1781 C1782 1.360 . S
C1782 C1781 1.360 . S
C1782 C1783 1.401 . S
C1782 C1787 1.446 . S
C1783 C1782 1.401 . S
C1783 C1784 1.347 . S
C1783 H1843 0.929 . S
C1784 C1783 1.347 . S
C1784 C1785 1.455 . S
C1784 H1844 0.930 . S
C1785 C1772 1.412 . S
C1785 C1784 1.455 . S
C1785 C1786 1.331 . S
C1786 C1775 1.451 . S
C1786 C1785 1.331 . S
C1786 C1787 1.497 . S
C1787 C1778 1.395 . S
C1787 C1782 1.446 . S
C1787 C1786 1.497 . S
C1788 C1789 1.581 1_655 S
C1788 H1845 0.965 1_655 S
C1788 H1846 0.959 . S
C1788 H1847 0.958 . S
C1789 C1788 1.581 1_455 S
C1789 O1792 1.388 1_455 S
C1789 H1818 1.011 . S
O1790 C1735 1.426 . S
O1790 C1736 1.334 . S
O1791 C1763 1.412 . S
O1791 C1764 1.393 . S
O1792 C1754 1.435 . S
O1792 C1789 1.388 1_655 S
O1793 C1745 1.468 . S
O1793 C1746 1.408 . S
H1794 C1735 0.980 1_655 S
H1795 C1734 0.959 . S
H1796 C1734 0.959 . S
H1797 C1734 0.960 . S
H1798 C1737 0.929 . S
H1799 C1741 0.929 . S
H1800 C1742 0.959 . S
H1801 C1742 0.961 . S
H1802 C1742 0.961 . S
H1803 C1743 0.960 . S
H1804 C1743 0.960 . S
H1805 C1743 0.961 . S
H1806 C1745 0.980 . S
H1807 C1744 0.961 . S
H1808 C1744 0.960 . S
H1809 C1744 0.959 . S
H1810 C1747 0.889 1_455 S
H1811 C1751 0.931 . S
H1812 C1752 0.959 . S
H1813 C1752 0.961 . S
H1814 C1752 0.959 . S
H1815 C1753 0.960 . S
H1816 C1753 0.960 . S
H1817 C1753 0.960 . S
H1818 C1789 1.011 . S
H1819 C1755 0.930 . S
H1820 C1759 0.930 . S
H1821 C1760 0.961 . S
H1822 C1760 0.960 . S
H1823 C1760 0.958 . S
H1824 C1761 0.961 . S
H1825 C1761 0.960 . S
H1826 C1761 0.960 . S
H1827 C1763 0.970 1_655 S
H1828 C1762 0.961 . S
H1829 C1762 0.961 . S
H1830 C1762 0.959 . S
H1831 C1765 0.932 . S
H1832 C1769 0.929 . S
H1833 C1770 0.961 . S
H1834 C1770 0.959 . S
H1835 C1770 0.959 . S
H1836 C1771 0.960 . S
H1837 C1771 0.962 . S
H1838 C1771 0.961 . S
H1839 C1773 0.929 . S
H1840 C1776 0.930 . S
H1841 C1777 0.929 . S
H1842 C1780 0.930 . S
H1843 C1783 0.929 . S
H1844 C1784 0.930 . S
H1845 C1788 0.965 1_455 S
H1846 C1788 0.959 . S
H1847 C1788 0.958 . S
C1848 C1849 1.560 . S
C1848 H1909 0.959 . S
C1848 H1910 0.959 . S
C1848 H1911 0.960 . S
C1849 C1848 1.560 . S
C1849 O1904 1.426 . S
C1849 H1908 0.980 . S
C1850 C1851 1.407 . S
C1850 C1855 1.418 . S
C1850 O1904 1.334 . S
C1851 C1850 1.407 . S
C1851 C1852 1.360 . S
C1851 H1912 0.929 . S
C1852 C1851 1.360 . S
C1852 C1853 1.401 . S
C1852 C1856 1.527 . S
C1853 C1852 1.401 . S
C1853 C1854 1.405 . S
C1853 C1886 1.587 . S
C1854 C1853 1.405 . S
C1854 C1855 1.332 . S
C1854 C1857 1.496 . S
C1855 C1850 1.418 . S
C1855 C1854 1.332 . S
C1855 H1913 0.929 . S
C1856 C1852 1.527 . S
C1856 H1914 0.959 . S
C1856 H1915 0.961 . S
C1856 H1916 0.961 . S
C1857 C1854 1.496 . S
C1857 H1917 0.960 . S
C1857 H1918 0.960 . S
C1857 H1919 0.961 . S
C1858 C1859 1.517 . S
C1858 H1921 0.961 . S
C1858 H1922 0.960 . S
C1858 H1923 0.959 . S
C1859 C1858 1.517 . S
C1859 O1907 1.468 . S
C1859 H1920 0.980 . S
C1860 C1861 1.349 . S
C1860 C1865 1.367 . S
C1860 O1907 1.408 . S
C1861 C1860 1.349 . S
C1861 C1862 1.407 . S
C1861 H1924 0.930 . S
C1862 C1861 1.407 . S
C1862 C1863 1.449 . S
C1862 C1866 1.535 . S
C1863 C1862 1.449 . S
C1863 C1864 1.384 . S
C1863 C1888 1.553 . S
C1864 C1863 1.384 . S
C1864 C1865 1.364 . S
C1864 C1867 1.450 . S
C1865 C1860 1.367 . S
C1865 C1864 1.364 . S
C1865 H1925 0.931 . S
C1866 C1862 1.535 . S
C1866 H1926 0.959 . S
C1866 H1927 0.961 . S
C1866 H1928 0.959 . S
C1867 C1864 1.450 . S
C1867 H1929 0.960 . S
C1867 H1930 0.960 . S
C1867 H1931 0.960 . S
C1868 C1869 1.309 . S
C1868 C1873 1.304 . S
C1868 O1906 1.435 . S
C1869 C1868 1.309 . S
C1869 C1870 1.476 . S
C1869 H1933 0.930 . S
C1870 C1869 1.476 . S
C1870 C1871 1.400 . S
C1870 C1874 1.567 . S
C1871 C1870 1.400 . S
C1871 C1872 1.373 . S
C1871 C1893 1.432 . S
C1872 C1871 1.373 . S
C1872 C1873 1.339 . S
C1872 C1875 1.530 . S
C1873 C1868 1.304 . S
C1873 C1872 1.339 . S
C1873 H1934 0.930 . S
C1874 C1870 1.567 . S
C1874 H1935 0.961 . S
C1874 H1936 0.960 . S
C1874 H1937 0.958 . S
C1875 C1872 1.530 . S
C1875 H1938 0.961 . S
C1875 H1939 0.960 . S
C1875 H1940 0.960 . S
C1876 C1877 1.530 . S
C1876 H1942 0.961 . S
C1876 H1943 0.961 . S
C1876 H1944 0.959 . S
C1877 C1876 1.530 . S
C1877 O1905 1.412 . S
C1877 H1941 0.980 . S
C1878 C1879 1.288 . S
C1878 C1883 1.377 . S
C1878 O1905 1.393 . S
C1879 C1878 1.288 . S
C1879 C1880 1.369 . S
C1879 H1945 0.932 . S
C1880 C1879 1.369 . S
C1880 C1881 1.398 . S
C1880 C1884 1.527 . S
C1881 C1880 1.398 . S
C1881 C1882 1.380 . S
C1881 C1895 1.497 . S
C1882 C1881 1.380 . S
C1882 C1883 1.383 . S
C1882 C1885 1.603 . S
C1883 C1878 1.377 . S
C1883 C1882 1.383 . S
C1883 H1946 0.929 . S
C1884 C1880 1.527 . S
C1884 H1947 0.961 . S
C1884 H1948 0.959 . S
C1884 H1949 0.959 . S
C1885 C1882 1.603 . S
C1885 H1950 0.960 . S
C1885 H1951 0.962 . S
C1885 H1952 0.961 . S
C1886 C1853 1.587 . S
C1886 C1887 1.360 . S
C1886 C1899 1.412 . S
C1887 C1886 1.360 . S
C1887 C1888 1.365 . S
C1887 H1953 0.929 . S
C1888 C1863 1.553 . S
C1888 C1887 1.365 . S
C1888 C1889 1.404 . S
C1889 C1888 1.404 . S
C1889 C1890 1.395 . S
C1889 C1900 1.451 . S
C1890 C1889 1.395 . S
C1890 C1891 1.322 . S
C1890 H1954 0.930 . S
C1891 C1890 1.322 . S
C1891 C1892 1.459 . S
C1891 H1955 0.929 . S
C1892 C1891 1.459 . S
C1892 C1893 1.445 . S
C1892 C1901 1.395 . S
C1893 C1871 1.432 . S
C1893 C1892 1.445 . S
C1893 C1894 1.370 . S
C1894 C1893 1.370 . S
C1894 C1895 1.438 . S
C1894 H1956 0.930 . S
C1895 C1881 1.497 . S
C1895 C1894 1.438 . S
C1895 C1896 1.360 . S
C1896 C1895 1.360 . S
C1896 C1897 1.401 . S
C1896 C1901 1.446 . S
C1897 C1896 1.401 . S
C1897 C1898 1.347 . S
C1897 H1957 0.929 . S
C1898 C1897 1.347 . S
C1898 C1899 1.455 . S
C1898 H1958 0.930 . S
C1899 C1886 1.412 . S
C1899 C1898 1.455 . S
C1899 C1900 1.331 . S
C1900 C1889 1.451 . S
C1900 C1899 1.331 . S
C1900 C1901 1.497 . S
C1901 C1892 1.395 . S
C1901 C1896 1.446 . S
C1901 C1900 1.497 . S
C1902 C1903 1.582 . S
C1902 H1959 0.962 . S
C1902 H1960 0.959 . S
C1902 H1961 0.958 . S
C1903 C1902 1.582 . S
C1903 O1906 1.458 . S
C1903 H1932 0.980 . S
O1904 C1849 1.426 . S
O1904 C1850 1.334 . S
O1905 C1877 1.412 . S
O1905 C1878 1.393 . S
O1906 C1868 1.435 . S
O1906 C1903 1.458 . S
O1907 C1859 1.468 . S
O1907 C1860 1.408 . S
H1908 C1849 0.980 . S
H1909 C1848 0.959 . S
H1910 C1848 0.959 . S
H1911 C1848 0.960 . S
H1912 C1851 0.929 . S
H1913 C1855 0.929 . S
H1914 C1856 0.959 . S
H1915 C1856 0.961 . S
H1916 C1856 0.961 . S
H1917 C1857 0.960 . S
H1918 C1857 0.960 . S
H1919 C1857 0.961 . S
H1920 C1859 0.980 . S
H1921 C1858 0.961 . S
H1922 C1858 0.960 . S
H1923 C1858 0.959 . S
H1924 C1861 0.930 . S
H1925 C1865 0.931 . S
H1926 C1866 0.959 . S
H1927 C1866 0.961 . S
H1928 C1866 0.959 . S
H1929 C1867 0.960 . S
H1930 C1867 0.960 . S
H1931 C1867 0.960 . S
H1932 C1903 0.980 . S
H1933 C1869 0.930 . S
H1934 C1873 0.930 . S
H1935 C1874 0.961 . S
H1936 C1874 0.960 . S
H1937 C1874 0.958 . S
H1938 C1875 0.961 . S
H1939 C1875 0.960 . S
H1940 C1875 0.960 . S
H1941 C1877 0.980 . S
H1942 C1876 0.961 . S
H1943 C1876 0.961 . S
H1944 C1876 0.959 . S
H1945 C1879 0.932 . S
H1946 C1883 0.929 . S
H1947 C1884 0.961 . S
H1948 C1884 0.959 . S
H1949 C1884 0.959 . S
H1950 C1885 0.960 . S
H1951 C1885 0.962 . S
H1952 C1885 0.961 . S
H1953 C1887 0.929 . S
H1954 C1890 0.930 . S
H1955 C1891 0.929 . S
H1956 C1894 0.930 . S
H1957 C1897 0.929 . S
H1958 C1898 0.930 . S
H1959 C1902 0.962 . S
H1960 C1902 0.959 . S
H1961 C1902 0.958 . S
C1962 C1963 1.560 . S
C1962 H2023 0.959 . S
C1962 H2024 0.959 . S
C1962 H2025 0.960 . S
C1963 C1962 1.560 . S
C1963 O2018 1.426 . S
C1963 H2022 0.980 . S
C1964 C1965 1.407 . S
C1964 C1969 1.418 . S
C1964 O2018 1.334 . S
C1965 C1964 1.407 . S
C1965 C1966 1.360 . S
C1965 H2026 0.929 . S
C1966 C1965 1.360 . S
C1966 C1967 1.401 . S
C1966 C1970 1.527 . S
C1967 C1966 1.401 . S
C1967 C1968 1.405 . S
C1967 C2000 1.587 . S
C1968 C1967 1.405 . S
C1968 C1969 1.332 . S
C1968 C1971 1.496 . S
C1969 C1964 1.418 . S
C1969 C1968 1.332 . S
C1969 H2027 0.929 . S
C1970 C1966 1.527 . S
C1970 H2028 0.959 . S
C1970 H2029 0.961 . S
C1970 H2030 0.961 . S
C1971 C1968 1.496 . S
C1971 H2031 0.960 . S
C1971 H2032 0.960 . S
C1971 H2033 0.961 . S
C1972 C1973 1.517 . S
C1972 H2035 0.961 . S
C1972 H2036 0.960 . S
C1972 H2037 0.959 . S
C1973 C1972 1.517 . S
C1973 O2021 1.468 . S
C1973 H2034 0.980 . S
C1974 C1975 1.349 . S
C1974 C1979 1.367 . S
C1974 O2021 1.408 . S
C1975 C1974 1.349 . S
C1975 C1976 1.407 . S
C1975 H2038 0.930 . S
C1976 C1975 1.407 . S
C1976 C1977 1.449 . S
C1976 C1980 1.535 . S
C1977 C1976 1.449 . S
C1977 C1978 1.384 . S
C1977 C2002 1.553 . S
C1978 C1977 1.384 . S
C1978 C1979 1.364 . S
C1978 C1981 1.450 . S
C1979 C1974 1.367 . S
C1979 C1978 1.364 . S
C1979 H2039 0.931 . S
C1980 C1976 1.535 . S
C1980 H2040 0.959 . S
C1980 H2041 0.961 . S
C1980 H2042 0.959 . S
C1981 C1978 1.450 . S
C1981 H2043 0.960 . S
C1981 H2044 0.960 . S
C1981 H2045 0.960 . S
C1982 C1983 1.309 . S
C1982 C1987 1.304 . S
C1982 O2020 1.435 . S
C1983 C1982 1.309 . S
C1983 C1984 1.476 . S
C1983 H2047 0.930 . S
C1984 C1983 1.476 . S
C1984 C1985 1.400 . S
C1984 C1988 1.567 . S
C1985 C1984 1.400 . S
C1985 C1986 1.373 . S
C1985 C2007 1.432 . S
C1986 C1985 1.373 . S
C1986 C1987 1.339 . S
C1986 C1989 1.530 . S
C1987 C1982 1.304 . S
C1987 C1986 1.339 . S
C1987 H2048 0.930 . S
C1988 C1984 1.567 . S
C1988 H2049 0.961 . S
C1988 H2050 0.960 . S
C1988 H2051 0.958 . S
C1989 C1986 1.530 . S
C1989 H2052 0.961 . S
C1989 H2053 0.960 . S
C1989 H2054 0.960 . S
C1990 C1991 1.530 . S
C1990 H2056 0.961 . S
C1990 H2057 0.961 . S
C1990 H2058 0.959 . S
C1991 C1990 1.530 . S
C1991 O2019 1.412 . S
C1991 H2055 0.980 . S
C1992 C1993 1.288 . S
C1992 C1997 1.377 . S
C1992 O2019 1.393 . S
C1993 C1992 1.288 . S
C1993 C1994 1.369 . S
C1993 H2059 0.932 . S
C1994 C1993 1.369 . S
C1994 C1995 1.398 . S
C1994 C1998 1.527 . S
C1995 C1994 1.398 . S
C1995 C1996 1.380 . S
C1995 C2009 1.497 . S
C1996 C1995 1.380 . S
C1996 C1997 1.383 . S
C1996 C1999 1.603 . S
C1997 C1992 1.377 . S
C1997 C1996 1.383 . S
C1997 H2060 0.929 . S
C1998 C1994 1.527 . S
C1998 H2061 0.961 . S
C1998 H2062 0.959 . S
C1998 H2063 0.959 . S
C1999 C1996 1.603 . S
C1999 H2064 0.960 . S
C1999 H2065 0.962 . S
C1999 H2066 0.961 . S
C2000 C1967 1.587 . S
C2000 C2001 1.360 . S
C2000 C2013 1.412 . S
C2001 C2000 1.360 . S
C2001 C2002 1.365 . S
C2001 H2067 0.929 . S
C2002 C1977 1.553 . S
C2002 C2001 1.365 . S
C2002 C2003 1.404 . S
C2003 C2002 1.404 . S
C2003 C2004 1.395 . S
C2003 C2014 1.451 . S
C2004 C2003 1.395 . S
C2004 C2005 1.322 . S
C2004 H2068 0.930 . S
C2005 C2004 1.322 . S
C2005 C2006 1.459 . S
C2005 H2069 0.929 . S
C2006 C2005 1.459 . S
C2006 C2007 1.445 . S
C2006 C2015 1.395 . S
C2007 C1985 1.432 . S
C2007 C2006 1.445 . S
C2007 C2008 1.370 . S
C2008 C2007 1.370 . S
C2008 C2009 1.438 . S
C2008 H2070 0.930 . S
C2009 C1995 1.497 . S
C2009 C2008 1.438 . S
C2009 C2010 1.360 . S
C2010 C2009 1.360 . S
C2010 C2011 1.401 . S
C2010 C2015 1.446 . S
C2011 C2010 1.401 . S
C2011 C2012 1.347 . S
C2011 H2071 0.929 . S
C2012 C2011 1.347 . S
C2012 C2013 1.455 . S
C2012 H2072 0.930 . S
C2013 C2000 1.412 . S
C2013 C2012 1.455 . S
C2013 C2014 1.331 . S
C2014 C2003 1.451 . S
C2014 C2013 1.331 . S
C2014 C2015 1.497 . S
C2015 C2006 1.395 . S
C2015 C2010 1.446 . S
C2015 C2014 1.497 . S
C2016 C2017 1.582 . S
C2016 H2073 0.962 . S
C2016 H2074 0.959 . S
C2016 H2075 0.958 . S
C2017 C2016 1.582 . S
C2017 O2020 1.458 . S
C2017 H2046 0.980 . S
O2018 C1963 1.426 . S
O2018 C1964 1.334 . S
O2019 C1991 1.412 . S
O2019 C1992 1.393 . S
O2020 C1982 1.435 . S
O2020 C2017 1.458 . S
O2021 C1973 1.468 . S
O2021 C1974 1.408 . S
H2022 C1963 0.980 . S
H2023 C1962 0.959 . S
H2024 C1962 0.959 . S
H2025 C1962 0.960 . S
H2026 C1965 0.929 . S
H2027 C1969 0.929 . S
H2028 C1970 0.959 . S
H2029 C1970 0.961 . S
H2030 C1970 0.961 . S
H2031 C1971 0.960 . S
H2032 C1971 0.960 . S
H2033 C1971 0.961 . S
H2034 C1973 0.980 . S
H2035 C1972 0.961 . S
H2036 C1972 0.960 . S
H2037 C1972 0.959 . S
H2038 C1975 0.930 . S
H2039 C1979 0.931 . S
H2040 C1980 0.959 . S
H2041 C1980 0.961 . S
H2042 C1980 0.959 . S
H2043 C1981 0.960 . S
H2044 C1981 0.960 . S
H2045 C1981 0.960 . S
H2046 C2017 0.980 . S
H2047 C1983 0.930 . S
H2048 C1987 0.930 . S
H2049 C1988 0.961 . S
H2050 C1988 0.960 . S
H2051 C1988 0.958 . S
H2052 C1989 0.961 . S
H2053 C1989 0.960 . S
H2054 C1989 0.960 . S
H2055 C1991 0.980 . S
H2056 C1990 0.961 . S
H2057 C1990 0.961 . S
H2058 C1990 0.959 . S
H2059 C1993 0.932 . S
H2060 C1997 0.929 . S
H2061 C1998 0.961 . S
H2062 C1998 0.959 . S
H2063 C1998 0.959 . S
H2064 C1999 0.960 . S
H2065 C1999 0.962 . S
H2066 C1999 0.961 . S
H2067 C2001 0.929 . S
H2068 C2004 0.930 . S
H2069 C2005 0.929 . S
H2070 C2008 0.930 . S
H2071 C2011 0.929 . S
H2072 C2012 0.930 . S
H2073 C2016 0.962 . S
H2074 C2016 0.959 . S
H2075 C2016 0.958 . S
C2076 C2077 1.560 . S
C2076 H2137 0.959 . S
C2076 H2138 0.959 . S
C2076 H2139 0.960 . S
C2077 C2076 1.560 . S
C2077 O2132 1.426 . S
C2077 H2136 0.980 . S
C2078 C2079 1.407 . S
C2078 C2083 1.418 . S
C2078 O2132 1.334 . S
C2079 C2078 1.407 . S
C2079 C2080 1.360 . S
C2079 H2140 0.929 . S
C2080 C2079 1.360 . S
C2080 C2081 1.401 . S
C2080 C2084 1.527 . S
C2081 C2080 1.401 . S
C2081 C2082 1.405 . S
C2081 C2114 1.587 . S
C2082 C2081 1.405 . S
C2082 C2083 1.332 . S
C2082 C2085 1.496 . S
C2083 C2078 1.418 . S
C2083 C2082 1.332 . S
C2083 H2141 0.929 . S
C2084 C2080 1.527 . S
C2084 H2142 0.959 . S
C2084 H2143 0.961 . S
C2084 H2144 0.961 . S
C2085 C2082 1.496 . S
C2085 H2145 0.960 . S
C2085 H2146 0.960 . S
C2085 H2147 0.961 . S
C2086 C2087 1.517 . S
C2086 H2149 0.961 . S
C2086 H2150 0.960 . S
C2086 H2151 0.959 . S
C2087 C2086 1.517 . S
C2087 O2135 1.468 . S
C2087 H2148 0.980 . S
C2088 C2089 1.349 . S
C2088 C2093 1.367 . S
C2088 O2135 1.408 . S
C2089 C2088 1.349 . S
C2089 C2090 1.407 . S
C2089 H2152 0.930 . S
C2090 C2089 1.407 . S
C2090 C2091 1.449 . S
C2090 C2094 1.535 . S
C2091 C2090 1.449 . S
C2091 C2092 1.384 . S
C2091 C2116 1.553 . S
C2092 C2091 1.384 . S
C2092 C2093 1.364 . S
C2092 C2095 1.450 . S
C2093 C2088 1.367 . S
C2093 C2092 1.364 . S
C2093 H2153 0.931 . S
C2094 C2090 1.535 . S
C2094 H2154 0.959 . S
C2094 H2155 0.961 . S
C2094 H2156 0.959 . S
C2095 C2092 1.450 . S
C2095 H2157 0.960 . S
C2095 H2158 0.960 . S
C2095 H2159 0.960 . S
C2096 C2097 1.309 . S
C2096 C2101 1.304 . S
C2096 O2134 1.435 . S
C2097 C2096 1.309 . S
C2097 C2098 1.476 . S
C2097 H2161 0.930 . S
C2098 C2097 1.476 . S
C2098 C2099 1.400 . S
C2098 C2102 1.567 . S
C2099 C2098 1.400 . S
C2099 C2100 1.373 . S
C2099 C2121 1.432 . S
C2100 C2099 1.373 . S
C2100 C2101 1.339 . S
C2100 C2103 1.530 . S
C2101 C2096 1.304 . S
C2101 C2100 1.339 . S
C2101 H2162 0.930 . S
C2102 C2098 1.567 . S
C2102 H2163 0.961 . S
C2102 H2164 0.960 . S
C2102 H2165 0.958 . S
C2103 C2100 1.530 . S
C2103 H2166 0.961 . S
C2103 H2167 0.960 . S
C2103 H2168 0.960 . S
C2104 C2105 1.530 . S
C2104 H2170 0.961 . S
C2104 H2171 0.961 . S
C2104 H2172 0.959 . S
C2105 C2104 1.530 . S
C2105 O2133 1.412 . S
C2105 H2169 0.980 . S
C2106 C2107 1.288 . S
C2106 C2111 1.377 . S
C2106 O2133 1.393 . S
C2107 C2106 1.288 . S
C2107 C2108 1.369 . S
C2107 H2173 0.932 . S
C2108 C2107 1.369 . S
C2108 C2109 1.398 . S
C2108 C2112 1.527 . S
C2109 C2108 1.398 . S
C2109 C2110 1.380 . S
C2109 C2123 1.497 . S
C2110 C2109 1.380 . S
C2110 C2111 1.383 . S
C2110 C2113 1.603 . S
C2111 C2106 1.377 . S
C2111 C2110 1.383 . S
C2111 H2174 0.929 . S
C2112 C2108 1.527 . S
C2112 H2175 0.961 . S
C2112 H2176 0.959 . S
C2112 H2177 0.959 . S
C2113 C2110 1.603 . S
C2113 H2178 0.960 . S
C2113 H2179 0.962 . S
C2113 H2180 0.961 . S
C2114 C2081 1.587 . S
C2114 C2115 1.360 . S
C2114 C2127 1.412 . S
C2115 C2114 1.360 . S
C2115 C2116 1.365 . S
C2115 H2181 0.929 . S
C2116 C2091 1.553 . S
C2116 C2115 1.365 . S
C2116 C2117 1.404 . S
C2117 C2116 1.404 . S
C2117 C2118 1.395 . S
C2117 C2128 1.451 . S
C2118 C2117 1.395 . S
C2118 C2119 1.322 . S
C2118 H2182 0.930 . S
C2119 C2118 1.322 . S
C2119 C2120 1.459 . S
C2119 H2183 0.929 . S
C2120 C2119 1.459 . S
C2120 C2121 1.445 . S
C2120 C2129 1.395 . S
C2121 C2099 1.432 . S
C2121 C2120 1.445 . S
C2121 C2122 1.370 . S
C2122 C2121 1.370 . S
C2122 C2123 1.438 . S
C2122 H2184 0.930 . S
C2123 C2109 1.497 . S
C2123 C2122 1.438 . S
C2123 C2124 1.360 . S
C2124 C2123 1.360 . S
C2124 C2125 1.401 . S
C2124 C2129 1.446 . S
C2125 C2124 1.401 . S
C2125 C2126 1.347 . S
C2125 H2185 0.929 . S
C2126 C2125 1.347 . S
C2126 C2127 1.455 . S
C2126 H2186 0.930 . S
C2127 C2114 1.412 . S
C2127 C2126 1.455 . S
C2127 C2128 1.331 . S
C2128 C2117 1.451 . S
C2128 C2127 1.331 . S
C2128 C2129 1.497 . S
C2129 C2120 1.395 . S
C2129 C2124 1.446 . S
C2129 C2128 1.497 . S
C2130 C2131 1.582 . S
C2130 H2187 0.962 . S
C2130 H2188 0.959 . S
C2130 H2189 0.958 . S
C2131 C2130 1.582 . S
C2131 O2134 1.458 . S
C2131 H2160 0.980 . S
O2132 C2077 1.426 . S
O2132 C2078 1.334 . S
O2133 C2105 1.412 . S
O2133 C2106 1.393 . S
O2134 C2096 1.435 . S
O2134 C2131 1.458 . S
O2135 C2087 1.468 . S
O2135 C2088 1.408 . S
H2136 C2077 0.980 . S
H2137 C2076 0.959 . S
H2138 C2076 0.959 . S
H2139 C2076 0.960 . S
H2140 C2079 0.929 . S
H2141 C2083 0.929 . S
H2142 C2084 0.959 . S
H2143 C2084 0.961 . S
H2144 C2084 0.961 . S
H2145 C2085 0.960 . S
H2146 C2085 0.960 . S
H2147 C2085 0.961 . S
H2148 C2087 0.980 . S
H2149 C2086 0.961 . S
H2150 C2086 0.960 . S
H2151 C2086 0.959 . S
H2152 C2089 0.930 . S
H2153 C2093 0.931 . S
H2154 C2094 0.959 . S
H2155 C2094 0.961 . S
H2156 C2094 0.959 . S
H2157 C2095 0.960 . S
H2158 C2095 0.960 . S
H2159 C2095 0.960 . S
H2160 C2131 0.980 . S
H2161 C2097 0.930 . S
H2162 C2101 0.930 . S
H2163 C2102 0.961 . S
H2164 C2102 0.960 . S
H2165 C2102 0.958 . S
H2166 C2103 0.961 . S
H2167 C2103 0.960 . S
H2168 C2103 0.960 . S
H2169 C2105 0.980 . S
H2170 C2104 0.961 . S
H2171 C2104 0.961 . S
H2172 C2104 0.959 . S
H2173 C2107 0.932 . S
H2174 C2111 0.929 . S
H2175 C2112 0.961 . S
H2176 C2112 0.959 . S
H2177 C2112 0.959 . S
H2178 C2113 0.960 . S
H2179 C2113 0.962 . S
H2180 C2113 0.961 . S
H2181 C2115 0.929 . S
H2182 C2118 0.930 . S
H2183 C2119 0.929 . S
H2184 C2122 0.930 . S
H2185 C2125 0.929 . S
H2186 C2126 0.930 . S
H2187 C2130 0.962 . S
H2188 C2130 0.959 . S
H2189 C2130 0.958 . S
C2190 C2191 1.560 . S
C2190 H2251 0.959 . S
C2190 H2252 0.959 . S
C2190 H2253 0.960 . S
C2191 C2190 1.560 . S
C2191 O2246 1.426 . S
C2191 H2250 0.980 . S
C2192 C2193 1.407 . S
C2192 C2197 1.418 . S
C2192 O2246 1.334 . S
C2193 C2192 1.407 . S
C2193 C2194 1.360 . S
C2193 H2254 0.929 . S
C2194 C2193 1.360 . S
C2194 C2195 1.401 . S
C2194 C2198 1.527 . S
C2195 C2194 1.401 . S
C2195 C2196 1.405 . S
C2195 C2228 1.587 . S
C2196 C2195 1.405 . S
C2196 C2197 1.332 . S
C2196 C2199 1.496 . S
C2197 C2192 1.418 . S
C2197 C2196 1.332 . S
C2197 H2255 0.929 . S
C2198 C2194 1.527 . S
C2198 H2256 0.959 . S
C2198 H2257 0.961 . S
C2198 H2258 0.961 . S
C2199 C2196 1.496 . S
C2199 H2259 0.960 . S
C2199 H2260 0.960 . S
C2199 H2261 0.961 . S
C2200 C2201 1.517 . S
C2200 H2263 0.961 . S
C2200 H2264 0.960 . S
C2200 H2265 0.959 . S
C2201 C2200 1.517 . S
C2201 O2249 1.468 . S
C2201 H2262 0.980 . S
C2202 C2203 1.349 . S
C2202 C2207 1.367 . S
C2202 O2249 1.408 . S
C2203 C2202 1.349 . S
C2203 C2204 1.407 . S
C2203 H2266 0.930 . S
C2204 C2203 1.407 . S
C2204 C2205 1.449 . S
C2204 C2208 1.535 . S
C2205 C2204 1.449 . S
C2205 C2206 1.384 . S
C2205 C2230 1.553 . S
C2206 C2205 1.384 . S
C2206 C2207 1.364 . S
C2206 C2209 1.450 . S
C2207 C2202 1.367 . S
C2207 C2206 1.364 . S
C2207 H2267 0.931 . S
C2208 C2204 1.535 . S
C2208 H2268 0.959 . S
C2208 H2269 0.961 . S
C2208 H2270 0.959 . S
C2209 C2206 1.450 . S
C2209 H2271 0.960 . S
C2209 H2272 0.960 . S
C2209 H2273 0.960 . S
C2210 C2211 1.309 . S
C2210 C2215 1.304 . S
C2210 O2248 1.435 . S
C2211 C2210 1.309 . S
C2211 C2212 1.476 . S
C2211 H2275 0.930 . S
C2212 C2211 1.476 . S
C2212 C2213 1.400 . S
C2212 C2216 1.567 . S
C2213 C2212 1.400 . S
C2213 C2214 1.373 . S
C2213 C2235 1.432 . S
C2214 C2213 1.373 . S
C2214 C2215 1.339 . S
C2214 C2217 1.530 . S
C2215 C2210 1.304 . S
C2215 C2214 1.339 . S
C2215 H2276 0.930 . S
C2216 C2212 1.567 . S
C2216 H2277 0.961 . S
C2216 H2278 0.960 . S
C2216 H2279 0.958 . S
C2217 C2214 1.530 . S
C2217 H2280 0.961 . S
C2217 H2281 0.960 . S
C2217 H2282 0.960 . S
C2218 C2219 1.530 . S
C2218 H2284 0.961 . S
C2218 H2285 0.961 . S
C2218 H2286 0.959 . S
C2219 C2218 1.530 . S
C2219 O2247 1.412 . S
C2219 H2283 0.980 . S
C2220 C2221 1.288 . S
C2220 C2225 1.377 . S
C2220 O2247 1.393 . S
C2221 C2220 1.288 . S
C2221 C2222 1.369 . S
C2221 H2287 0.932 . S
C2222 C2221 1.369 . S
C2222 C2223 1.398 . S
C2222 C2226 1.527 . S
C2223 C2222 1.398 . S
C2223 C2224 1.380 . S
C2223 C2237 1.497 . S
C2224 C2223 1.380 . S
C2224 C2225 1.383 . S
C2224 C2227 1.603 . S
C2225 C2220 1.377 . S
C2225 C2224 1.383 . S
C2225 H2288 0.929 . S
C2226 C2222 1.527 . S
C2226 H2289 0.961 . S
C2226 H2290 0.959 . S
C2226 H2291 0.959 . S
C2227 C2224 1.603 . S
C2227 H2292 0.960 . S
C2227 H2293 0.962 . S
C2227 H2294 0.961 . S
C2228 C2195 1.587 . S
C2228 C2229 1.360 . S
C2228 C2241 1.412 . S
C2229 C2228 1.360 . S
C2229 C2230 1.365 . S
C2229 H2295 0.929 . S
C2230 C2205 1.553 . S
C2230 C2229 1.365 . S
C2230 C2231 1.404 . S
C2231 C2230 1.404 . S
C2231 C2232 1.395 . S
C2231 C2242 1.451 . S
C2232 C2231 1.395 . S
C2232 C2233 1.322 . S
C2232 H2296 0.930 . S
C2233 C2232 1.322 . S
C2233 C2234 1.459 . S
C2233 H2297 0.929 . S
C2234 C2233 1.459 . S
C2234 C2235 1.445 . S
C2234 C2243 1.395 . S
C2235 C2213 1.432 . S
C2235 C2234 1.445 . S
C2235 C2236 1.370 . S
C2236 C2235 1.370 . S
C2236 C2237 1.438 . S
C2236 H2298 0.930 . S
C2237 C2223 1.497 . S
C2237 C2236 1.438 . S
C2237 C2238 1.360 . S
C2238 C2237 1.360 . S
C2238 C2239 1.401 . S
C2238 C2243 1.446 . S
C2239 C2238 1.401 . S
C2239 C2240 1.347 . S
C2239 H2299 0.929 . S
C2240 C2239 1.347 . S
C2240 C2241 1.455 . S
C2240 H2300 0.930 . S
C2241 C2228 1.412 . S
C2241 C2240 1.455 . S
C2241 C2242 1.331 . S
C2242 C2231 1.451 . S
C2242 C2241 1.331 . S
C2242 C2243 1.497 . S
C2243 C2234 1.395 . S
C2243 C2238 1.446 . S
C2243 C2242 1.497 . S
C2244 C2245 1.582 . S
C2244 H2301 0.962 . S
C2244 H2302 0.959 . S
C2244 H2303 0.958 . S
C2245 C2244 1.582 . S
C2245 O2248 1.458 . S
C2245 H2274 0.980 . S
O2246 C2191 1.426 . S
O2246 C2192 1.334 . S
O2247 C2219 1.412 . S
O2247 C2220 1.393 . S
O2248 C2210 1.435 . S
O2248 C2245 1.458 . S
O2249 C2201 1.468 . S
O2249 C2202 1.408 . S
H2250 C2191 0.980 . S
H2251 C2190 0.959 . S
H2252 C2190 0.959 . S
H2253 C2190 0.960 . S
H2254 C2193 0.929 . S
H2255 C2197 0.929 . S
H2256 C2198 0.959 . S
H2257 C2198 0.961 . S
H2258 C2198 0.961 . S
H2259 C2199 0.960 . S
H2260 C2199 0.960 . S
H2261 C2199 0.961 . S
H2262 C2201 0.980 . S
H2263 C2200 0.961 . S
H2264 C2200 0.960 . S
H2265 C2200 0.959 . S
H2266 C2203 0.930 . S
H2267 C2207 0.931 . S
H2268 C2208 0.959 . S
H2269 C2208 0.961 . S
H2270 C2208 0.959 . S
H2271 C2209 0.960 . S
H2272 C2209 0.960 . S
H2273 C2209 0.960 . S
H2274 C2245 0.980 . S
H2275 C2211 0.930 . S
H2276 C2215 0.930 . S
H2277 C2216 0.961 . S
H2278 C2216 0.960 . S
H2279 C2216 0.958 . S
H2280 C2217 0.961 . S
H2281 C2217 0.960 . S
H2282 C2217 0.960 . S
H2283 C2219 0.980 . S
H2284 C2218 0.961 . S
H2285 C2218 0.961 . S
H2286 C2218 0.959 . S
H2287 C2221 0.932 . S
H2288 C2225 0.929 . S
H2289 C2226 0.961 . S
H2290 C2226 0.959 . S
H2291 C2226 0.959 . S
H2292 C2227 0.960 . S
H2293 C2227 0.962 . S
H2294 C2227 0.961 . S
H2295 C2229 0.929 . S
H2296 C2232 0.930 . S
H2297 C2233 0.929 . S
H2298 C2236 0.930 . S
H2299 C2239 0.929 . S
H2300 C2240 0.930 . S
H2301 C2244 0.962 . S
H2302 C2244 0.959 . S
H2303 C2244 0.958 . S
H2304 C2310 0.930 . S
H2305 C2313 0.930 . S
H2306 C2314 0.930 . S
H2307 C2315 0.930 . S
H2308 C2318 0.930 . S
H2309 C2319 0.930 . S
C2310 H2304 0.930 . S
C2310 C2311 1.355 . S
C2310 C2312 1.415 . S
C2311 C2310 1.355 . S
C2311 C2313 1.419 1_655 S
C2312 C2310 1.415 . S
C2312 C2317 1.425 1_655 S
C2312 C2319 1.409 . S
C2313 H2305 0.930 . S
C2313 C2311 1.419 1_455 S
C2313 C2314 1.362 . S
C2314 H2306 0.930 . S
C2314 C2313 1.362 . S
C2314 C2317 1.409 . S
C2315 H2307 0.930 . S
C2315 C2316 1.355 1_455 S
C2315 C2317 1.415 . S
C2316 C2315 1.355 1_655 S
C2316 C2318 1.419 . S
C2317 C2312 1.425 1_455 S
C2317 C2314 1.409 . S
C2317 C2315 1.415 . S
C2318 H2308 0.930 . S
C2318 C2316 1.419 . S
C2318 C2319 1.362 . S
C2319 H2309 0.930 . S
C2319 C2312 1.409 . S
C2319 C2318 1.362 . S
H2320 C2326 0.930 . S
H2321 C2329 0.930 . S
H2322 C2330 0.930 . S
H2323 C2331 0.930 . S
H2324 C2334 0.930 . S
H2325 C2335 0.930 . S
C2326 H2320 0.930 . S
C2326 C2327 1.355 . S
C2326 C2328 1.415 . S
C2327 C2326 1.355 . S
C2327 C2329 1.419 . S
C2328 C2326 1.415 . S
C2328 C2333 1.425 . S
C2328 C2335 1.409 . S
C2329 H2321 0.930 . S
C2329 C2327 1.419 . S
C2329 C2330 1.362 . S
C2330 H2322 0.930 . S
C2330 C2329 1.362 . S
C2330 C2333 1.409 . S
C2331 H2323 0.930 . S
C2331 C2332 1.355 . S
C2331 C2333 1.415 . S
C2332 C2331 1.355 . S
C2332 C2334 1.419 . S
C2333 C2328 1.425 . S
C2333 C2330 1.409 . S
C2333 C2331 1.415 . S
C2334 H2324 0.930 . S
C2334 C2332 1.419 . S
C2334 C2335 1.362 . S
C2335 H2325 0.930 . S
C2335 C2328 1.409 . S
C2335 C2334 1.362 . S
H2336 C2342 0.930 . S
H2337 C2345 0.930 . S
H2338 C2346 0.930 . S
H2339 C2347 0.930 . S
H2340 C2350 0.930 . S
H2341 C2351 0.930 . S
C2342 H2336 0.930 . S
C2342 C2343 1.355 . S
C2342 C2344 1.415 . S
C2343 C2342 1.355 . S
C2343 C2345 1.419 . S
C2344 C2342 1.415 . S
C2344 C2349 1.425 . S
C2344 C2351 1.409 . S
C2345 H2337 0.930 . S
C2345 C2343 1.419 . S
C2345 C2346 1.362 . S
C2346 H2338 0.930 . S
C2346 C2345 1.362 . S
C2346 C2349 1.409 . S
C2347 H2339 0.930 . S
C2347 C2348 1.355 . S
C2347 C2349 1.415 . S
C2348 C2347 1.355 . S
C2348 C2350 1.419 . S
C2349 C2344 1.425 . S
C2349 C2346 1.409 . S
C2349 C2347 1.415 . S
C2350 H2340 0.930 . S
C2350 C2348 1.419 . S
C2350 C2351 1.362 . S
C2351 H2341 0.930 . S
C2351 C2344 1.409 . S
C2351 C2350 1.362 . S
H2352 C2358 0.930 . S
H2353 C2361 0.930 . S
H2354 C2362 0.930 . S
H2355 C2363 0.930 . S
H2356 C2366 0.930 . S
H2357 C2367 0.930 . S
C2358 H2352 0.930 . S
C2358 C2359 1.355 . S
C2358 C2360 1.415 . S
C2359 C2358 1.355 . S
C2359 C2361 1.419 . S
C2360 C2358 1.415 . S
C2360 C2365 1.425 . S
C2360 C2367 1.409 . S
C2361 H2353 0.930 . S
C2361 C2359 1.419 . S
C2361 C2362 1.362 . S
C2362 H2354 0.930 . S
C2362 C2361 1.362 . S
C2362 C2365 1.409 . S
C2363 H2355 0.930 . S
C2363 C2364 1.355 . S
C2363 C2365 1.415 . S
C2364 C2363 1.355 . S
C2364 C2366 1.419 . S
C2365 C2360 1.425 . S
C2365 C2362 1.409 . S
C2365 C2363 1.415 . S
C2366 H2356 0.930 . S
C2366 C2364 1.419 . S
C2366 C2367 1.362 . S
C2367 H2357 0.930 . S
C2367 C2360 1.409 . S
C2367 C2366 1.362 . S
H2368 C2374 0.930 . S
H2369 C2377 0.930 . S
H2370 C2378 0.930 . S
H2371 C2379 0.930 . S
H2372 C2382 0.930 1_655 S
H2373 C2383 0.934 . S
C2374 H2368 0.930 . S
C2374 C2375 1.355 . S
C2374 C2376 1.415 . S
C2375 C2374 1.355 . S
C2375 C2377 1.419 . S
C2376 C2374 1.415 . S
C2376 C2381 1.425 . S
C2376 C2383 1.409 . S
C2377 H2369 0.930 . S
C2377 C2375 1.419 . S
C2377 C2378 1.362 . S
C2378 H2370 0.930 . S
C2378 C2377 1.362 . S
C2378 C2381 1.409 . S
C2379 H2371 0.930 . S
C2379 C2380 1.355 . S
C2379 C2381 1.415 . S
C2380 C2379 1.355 . S
C2380 C2382 1.419 . S
C2381 C2376 1.425 . S
C2381 C2378 1.409 . S
C2381 C2379 1.415 . S
C2382 H2372 0.930 1_455 S
C2382 C2380 1.419 . S
C2382 C2383 1.362 . S
C2383 H2373 0.934 . S
C2383 C2376 1.409 . S
C2383 C2382 1.362 . S
H2384 C2390 0.930 . S
H2385 C2393 0.930 1_554 S
H2386 C2394 0.930 . S
H2387 C2395 0.930 . S
H2388 C2398 0.930 . S
H2389 C2399 0.930 . S
C2390 H2384 0.930 . S
C2390 C2391 1.355 . S
C2390 C2392 1.415 . S
C2391 C2390 1.355 . S
C2391 C2393 1.419 . S
C2392 C2390 1.415 . S
C2392 C2397 1.425 . S
C2392 C2399 1.409 . S
C2393 H2385 0.930 1_556 S
C2393 C2391 1.419 . S
C2393 C2394 1.362 . S
C2394 H2386 0.930 . S
C2394 C2393 1.362 . S
C2394 C2397 1.409 . S
C2395 H2387 0.930 . S
C2395 C2396 1.355 . S
C2395 C2397 1.415 . S
C2396 C2395 1.355 . S
C2396 C2398 1.419 . S
C2397 C2392 1.425 . S
C2397 C2394 1.409 . S
C2397 C2395 1.415 . S
C2398 H2388 0.930 . S
C2398 C2396 1.419 . S
C2398 C2399 1.362 . S
C2399 H2389 0.930 . S
C2399 C2392 1.409 . S
C2399 C2398 1.362 . S
H2400 C2406 0.930 . S
H2401 C2409 0.930 1_554 S
H2402 C2410 0.930 . S
H2403 C2411 0.930 . S
H2404 C2414 0.930 . S
H2405 C2415 0.972 . S
C2406 H2400 0.930 . S
C2406 C2407 1.355 . S
C2406 C2408 1.415 . S
C2407 C2406 1.355 . S
C2407 C2409 1.419 . S
C2408 C2406 1.415 . S
C2408 C2413 1.425 . S
C2408 C2415 1.398 1_455 S
C2409 H2401 0.930 1_556 S
C2409 C2407 1.419 . S
C2409 C2410 1.362 . S
C2410 H2402 0.930 . S
C2410 C2409 1.362 . S
C2410 C2413 1.409 . S
C2411 H2403 0.930 . S
C2411 C2412 1.355 . S
C2411 C2413 1.415 . S
C2412 C2411 1.355 . S
C2412 C2414 1.419 1_455 S
C2413 C2408 1.425 . S
C2413 C2410 1.409 . S
C2413 C2411 1.415 . S
C2414 H2404 0.930 . S
C2414 C2412 1.419 1_655 S
C2414 C2415 1.337 . S
C2415 H2405 0.972 . S
C2415 C2408 1.398 1_655 S
C2415 C2414 1.337 . S
H2416 C2422 0.930 . S
H2417 C2425 0.930 . S
H2418 C2426 0.930 . S
H2419 C2427 0.930 . S
H2420 C2430 0.930 . S
H2421 C2431 0.930 . S
C2422 H2416 0.930 . S
C2422 C2423 1.355 . S
C2422 C2424 1.415 . S
C2423 C2422 1.355 . S
C2423 C2425 1.419 . S
C2424 C2422 1.415 . S
C2424 C2429 1.425 . S
C2424 C2431 1.409 . S
C2425 H2417 0.930 . S
C2425 C2423 1.419 . S
C2425 C2426 1.362 . S
C2426 H2418 0.930 . S
C2426 C2425 1.362 . S
C2426 C2429 1.409 . S
C2427 H2419 0.930 . S
C2427 C2428 1.355 . S
C2427 C2429 1.415 . S
C2428 C2427 1.355 . S
C2428 C2430 1.419 . S
C2429 C2424 1.425 . S
C2429 C2426 1.409 . S
C2429 C2427 1.415 . S
C2430 H2420 0.930 . S
C2430 C2428 1.419 . S
C2430 C2431 1.362 . S
C2431 H2421 0.930 . S
C2431 C2424 1.409 . S
C2431 C2430 1.362 . S
H2432 C2438 0.930 . S
H2433 C2441 0.930 . S
H2434 C2442 0.930 . S
H2435 C2443 0.930 . S
H2436 C2446 0.930 . S
H2437 C2447 0.930 . S
C2438 H2432 0.930 . S
C2438 C2439 1.355 1_545 S
C2438 C2440 1.415 . S
C2439 C2438 1.355 1_565 S
C2439 C2441 1.419 . S
C2440 C2438 1.415 . S
C2440 C2445 1.425 1_545 S
C2440 C2447 1.409 . S
C2441 H2433 0.930 . S
C2441 C2439 1.419 . S
C2441 C2442 1.362 . S
C2442 H2434 0.930 . S
C2442 C2441 1.362 . S
C2442 C2445 1.409 . S
C2443 H2435 0.930 . S
C2443 C2444 1.324 1_565 S
C2443 C2445 1.415 . S
C2444 C2443 1.324 1_545 S
C2444 C2446 1.440 . S
C2445 C2440 1.425 1_565 S
C2445 C2442 1.409 . S
C2445 C2443 1.415 . S
C2446 H2436 0.930 . S
C2446 C2444 1.440 . S
C2446 C2447 1.362 . S
C2447 H2437 0.930 . S
C2447 C2440 1.409 . S
C2447 C2446 1.362 . S
H2448 C2454 0.930 . S
H2449 C2457 0.952 . S
H2450 C2458 0.930 . S
H2451 C2459 0.930 . S
H2452 C2462 0.930 . S
H2453 C2463 0.930 . S
C2454 H2448 0.930 . S
C2454 C2455 1.355 . S
C2454 C2456 1.415 . S
C2455 C2454 1.355 . S
C2455 C2457 1.419 . S
C2456 C2454 1.415 . S
C2456 C2461 1.425 . S
C2456 C2463 1.409 . S
C2457 H2449 0.952 . S
C2457 C2455 1.419 . S
C2457 C2458 1.362 1_545 S
C2458 H2450 0.930 . S
C2458 C2457 1.362 1_565 S
C2458 C2461 1.409 1_565 S
C2459 H2451 0.930 . S
C2459 C2460 1.355 1_565 S
C2459 C2461 1.415 1_565 S
C2460 C2459 1.355 1_545 S
C2460 C2462 1.419 . S
C2461 C2456 1.425 . S
C2461 C2458 1.409 1_545 S
C2461 C2459 1.415 1_545 S
C2462 H2452 0.930 . S
C2462 C2460 1.419 . S
C2462 C2463 1.362 . S
C2463 H2453 0.930 . S
C2463 C2456 1.409 . S
C2463 C2462 1.362 . S
H2464 C2470 0.930 1_455 S
H2465 C2473 0.930 . S
H2466 C2474 0.930 . S
H2467 C2475 0.930 . S
H2468 C2478 0.930 . S
H2469 C2479 0.930 . S
C2470 H2464 0.930 1_655 S
C2470 C2471 1.355 . S
C2470 C2472 1.415 . S
C2471 C2470 1.355 . S
C2471 C2473 1.419 . S
C2472 C2470 1.415 . S
C2472 C2477 1.425 . S
C2472 C2479 1.409 1_655 S
C2473 H2465 0.930 . S
C2473 C2471 1.419 . S
C2473 C2474 1.362 . S
C2474 H2466 0.930 . S
C2474 C2473 1.362 . S
C2474 C2477 1.409 . S
C2475 H2467 0.930 . S
C2475 C2476 1.355 . S
C2475 C2477 1.415 . S
C2476 C2475 1.355 . S
C2476 C2478 1.419 1_655 S
C2477 C2472 1.425 . S
C2477 C2474 1.409 . S
C2477 C2475 1.415 . S
C2478 H2468 0.930 . S
C2478 C2476 1.419 1_455 S
C2478 C2479 1.362 . S
C2479 H2469 0.930 . S
C2479 C2472 1.409 1_455 S
C2479 C2478 1.362 . S
H2480 C2486 0.930 . S
H2481 C2489 0.930 . S
H2482 C2490 0.930 . S
H2483 C2491 0.930 . S
H2484 C2494 0.930 . S
H2485 C2495 0.930 . S
C2486 H2480 0.930 . S
C2486 C2487 1.355 . S
C2486 C2488 1.415 . S
C2487 C2486 1.355 . S
C2487 C2489 1.419 . S
C2488 C2486 1.415 . S
C2488 C2493 1.425 . S
C2488 C2495 1.409 . S
C2489 H2481 0.930 . S
C2489 C2487 1.419 . S
C2489 C2490 1.362 . S
C2490 H2482 0.930 . S
C2490 C2489 1.362 . S
C2490 C2493 1.409 . S
C2491 H2483 0.930 . S
C2491 C2492 1.355 . S
C2491 C2493 1.415 . S
C2492 C2491 1.355 . S
C2492 C2494 1.419 . S
C2493 C2488 1.425 . S
C2493 C2490 1.409 . S
C2493 C2491 1.415 . S
C2494 H2484 0.930 . S
C2494 C2492 1.419 . S
C2494 C2495 1.362 . S
C2495 H2485 0.930 . S
C2495 C2488 1.409 . S
C2495 C2494 1.362 . S
H2496 C2502 0.930 . S
H2497 C2505 0.930 . S
H2498 C2506 0.930 . S
H2499 C2507 0.930 . S
H2500 C2510 0.930 . S
H2501 C2511 0.930 . S
C2502 H2496 0.930 . S
C2502 C2503 1.355 . S
C2502 C2504 1.415 . S
C2503 C2502 1.355 . S
C2503 C2505 1.419 . S
C2504 C2502 1.415 . S
C2504 C2509 1.425 . S
C2504 C2511 1.409 . S
C2505 H2497 0.930 . S
C2505 C2503 1.419 . S
C2505 C2506 1.362 . S
C2506 H2498 0.930 . S
C2506 C2505 1.362 . S
C2506 C2509 1.409 . S
C2507 H2499 0.930 . S
C2507 C2508 1.355 . S
C2507 C2509 1.415 . S
C2508 C2507 1.355 . S
C2508 C2510 1.419 . S
C2509 C2504 1.425 . S
C2509 C2506 1.409 . S
C2509 C2507 1.415 . S
C2510 H2500 0.930 . S
C2510 C2508 1.419 . S
C2510 C2511 1.362 . S
C2511 H2501 0.930 . S
C2511 C2504 1.409 . S
C2511 C2510 1.362 . S
H2512 C2518 0.930 . S
H2513 C2521 0.930 . S
H2514 C2522 0.930 . S
H2515 C2523 0.930 . S
H2516 C2526 0.930 . S
H2517 C2527 0.930 . S
C2518 H2512 0.930 . S
C2518 C2519 1.355 . S
C2518 C2520 1.415 . S
C2519 C2518 1.355 . S
C2519 C2521 1.419 . S
C2520 C2518 1.415 . S
C2520 C2525 1.425 . S
C2520 C2527 1.409 . S
C2521 H2513 0.930 . S
C2521 C2519 1.419 . S
C2521 C2522 1.362 . S
C2522 H2514 0.930 . S
C2522 C2521 1.362 . S
C2522 C2525 1.409 . S
C2523 H2515 0.930 . S
C2523 C2524 1.355 . S
C2523 C2525 1.415 . S
C2524 C2523 1.355 . S
C2524 C2526 1.419 . S
C2525 C2520 1.425 . S
C2525 C2522 1.409 . S
C2525 C2523 1.415 . S
C2526 H2516 0.930 . S
C2526 C2524 1.419 . S
C2526 C2527 1.362 . S
C2527 H2517 0.930 . S
C2527 C2520 1.409 . S
C2527 C2526 1.362 . S
H2528 C2534 0.930 . S
H2529 C2537 0.930 . S
H2530 C2538 0.930 . S
H2531 C2539 0.930 . S
H2532 C2542 0.930 . S
H2533 C2543 0.930 . S
C2534 H2528 0.930 . S
C2534 C2535 1.355 . S
C2534 C2536 1.415 . S
C2535 C2534 1.355 . S
C2535 C2537 1.419 . S
C2536 C2534 1.415 . S
C2536 C2541 1.425 . S
C2536 C2543 1.409 . S
C2537 H2529 0.930 . S
C2537 C2535 1.419 . S
C2537 C2538 1.362 . S
C2538 H2530 0.930 . S
C2538 C2537 1.362 . S
C2538 C2541 1.409 . S
C2539 H2531 0.930 . S
C2539 C2540 1.355 . S
C2539 C2541 1.415 . S
C2540 C2539 1.355 . S
C2540 C2542 1.419 . S
C2541 C2536 1.425 . S
C2541 C2538 1.409 . S
C2541 C2539 1.415 . S
C2542 H2532 0.930 . S
C2542 C2540 1.419 . S
C2542 C2543 1.362 . S
C2543 H2533 0.930 . S
C2543 C2536 1.409 . S
C2543 C2542 1.362 . S
H2544 C2550 0.930 . S
H2545 C2553 0.930 . S
H2546 C2554 0.930 . S
H2547 C2555 0.930 . S
H2548 C2558 0.930 . S
H2549 C2559 0.930 . S
C2550 H2544 0.930 . S
C2550 C2551 1.355 . S
C2550 C2552 1.415 . S
C2551 C2550 1.355 . S
C2551 C2553 1.419 . S
C2552 C2550 1.415 . S
C2552 C2557 1.425 . S
C2552 C2559 1.409 . S
C2553 H2545 0.930 . S
C2553 C2551 1.419 . S
C2553 C2554 1.362 . S
C2554 H2546 0.930 . S
C2554 C2553 1.362 . S
C2554 C2557 1.409 . S
C2555 H2547 0.930 . S
C2555 C2556 1.355 . S
C2555 C2557 1.415 . S
C2556 C2555 1.355 . S
C2556 C2558 1.419 . S
C2557 C2552 1.425 . S
C2557 C2554 1.409 . S
C2557 C2555 1.415 . S
C2558 H2548 0.930 . S
C2558 C2556 1.419 . S
C2558 C2559 1.362 . S
C2559 H2549 0.930 . S
C2559 C2552 1.409 . S
C2559 C2558 1.362 . S
H2560 C2566 0.930 . S
H2561 C2569 0.930 . S
H2562 C2570 0.930 . S
H2563 C2571 0.930 . S
H2564 C2574 0.930 . S
H2565 C2575 0.930 . S
C2566 H2560 0.930 . S
C2566 C2567 1.355 . S
C2566 C2568 1.415 . S
C2567 C2566 1.355 . S
C2567 C2569 1.419 . S
C2568 C2566 1.415 . S
C2568 C2573 1.425 . S
C2568 C2575 1.409 . S
C2569 H2561 0.930 . S
C2569 C2567 1.419 . S
C2569 C2570 1.362 . S
C2570 H2562 0.930 . S
C2570 C2569 1.362 . S
C2570 C2573 1.409 . S
C2571 H2563 0.930 . S
C2571 C2572 1.355 . S
C2571 C2573 1.415 . S
C2572 C2571 1.355 . S
C2572 C2574 1.419 . S
C2573 C2568 1.425 . S
C2573 C2570 1.409 . S
C2573 C2571 1.415 . S
C2574 H2564 0.930 . S
C2574 C2572 1.419 . S
C2574 C2575 1.362 . S
C2575 H2565 0.930 . S
C2575 C2568 1.409 . S
C2575 C2574 1.362 . S
H2576 C2582 0.930 . S
H2577 C2585 0.930 . S
H2578 C2586 0.930 . S
H2579 C2587 0.930 . S
H2580 C2590 0.930 . S
H2581 C2591 0.930 . S
C2582 H2576 0.930 . S
C2582 C2583 1.355 . S
C2582 C2584 1.415 . S
C2583 C2582 1.355 . S
C2583 C2585 1.419 . S
C2584 C2582 1.415 . S
C2584 C2589 1.425 . S
C2584 C2591 1.409 . S
C2585 H2577 0.930 . S
C2585 C2583 1.419 . S
C2585 C2586 1.362 . S
C2586 H2578 0.930 . S
C2586 C2585 1.362 . S
C2586 C2589 1.409 . S
C2587 H2579 0.930 . S
C2587 C2588 1.355 . S
C2587 C2589 1.415 . S
C2588 C2587 1.355 . S
C2588 C2590 1.419 . S
C2589 C2584 1.425 . S
C2589 C2586 1.409 . S
C2589 C2587 1.415 . S
C2590 H2580 0.930 . S
C2590 C2588 1.419 . S
C2590 C2591 1.362 . S
C2591 H2581 0.930 . S
C2591 C2584 1.409 . S
C2591 C2590 1.362 . S
H2592 C2598 0.930 . S
H2593 C2601 0.930 . S
H2594 C2602 0.930 . S
H2595 C2603 0.930 . S
H2596 C2606 0.930 . S
H2597 C2607 0.930 . S
C2598 H2592 0.930 . S
C2598 C2599 1.355 . S
C2598 C2600 1.415 . S
C2599 C2598 1.355 . S
C2599 C2601 1.419 . S
C2600 C2598 1.415 . S
C2600 C2605 1.425 . S
C2600 C2607 1.409 . S
C2601 H2593 0.930 . S
C2601 C2599 1.419 . S
C2601 C2602 1.362 . S
C2602 H2594 0.930 . S
C2602 C2601 1.362 . S
C2602 C2605 1.409 . S
C2603 H2595 0.930 . S
C2603 C2604 1.355 . S
C2603 C2605 1.415 . S
C2604 C2603 1.355 . S
C2604 C2606 1.419 . S
C2605 C2600 1.425 . S
C2605 C2602 1.409 . S
C2605 C2603 1.415 . S
C2606 H2596 0.930 . S
C2606 C2604 1.419 . S
C2606 C2607 1.362 . S
C2607 H2597 0.930 . S
C2607 C2600 1.409 . S
C2607 C2606 1.362 . S
H2608 C2614 0.930 . S
H2609 C2617 0.930 . S
H2610 C2618 0.930 . S
H2611 C2619 0.930 . S
H2612 C2622 0.930 . S
H2613 C2623 0.930 . S
C2614 H2608 0.930 . S
C2614 C2615 1.355 . S
C2614 C2616 1.415 . S
C2615 C2614 1.355 . S
C2615 C2617 1.419 . S
C2616 C2614 1.415 . S
C2616 C2621 1.425 . S
C2616 C2623 1.409 . S
C2617 H2609 0.930 . S
C2617 C2615 1.419 . S
C2617 C2618 1.362 . S
C2618 H2610 0.930 . S
C2618 C2617 1.362 . S
C2618 C2621 1.409 . S
C2619 H2611 0.930 . S
C2619 C2620 1.355 . S
C2619 C2621 1.415 . S
C2620 C2619 1.355 . S
C2620 C2622 1.419 . S
C2621 C2616 1.425 . S
C2621 C2618 1.409 . S
C2621 C2619 1.415 . S
C2622 H2612 0.930 . S
C2622 C2620 1.419 . S
C2622 C2623 1.362 . S
C2623 H2613 0.930 . S
C2623 C2616 1.409 . S
C2623 C2622 1.362 . S
H2624 C2630 0.930 . S
H2625 C2633 0.930 . S
H2626 C2634 0.930 . S
H2627 C2635 0.930 . S
H2628 C2638 0.930 . S
H2629 C2639 0.930 . S
C2630 H2624 0.930 . S
C2630 C2631 1.355 . S
C2630 C2632 1.415 . S
C2631 C2630 1.355 . S
C2631 C2633 1.419 . S
C2632 C2630 1.415 . S
C2632 C2637 1.425 . S
C2632 C2639 1.409 . S
C2633 H2625 0.930 . S
C2633 C2631 1.419 . S
C2633 C2634 1.362 . S
C2634 H2626 0.930 . S
C2634 C2633 1.362 . S
C2634 C2637 1.409 . S
C2635 H2627 0.930 . S
C2635 C2636 1.355 . S
C2635 C2637 1.415 . S
C2636 C2635 1.355 . S
C2636 C2638 1.419 . S
C2637 C2632 1.425 . S
C2637 C2634 1.409 . S
C2637 C2635 1.415 . S
C2638 H2628 0.930 . S
C2638 C2636 1.419 . S
C2638 C2639 1.362 . S
C2639 H2629 0.930 . S
C2639 C2632 1.409 . S
C2639 C2638 1.362 . S
H2640 C2646 0.930 . S
H2641 C2649 0.930 . S
H2642 C2650 0.930 . S
H2643 C2651 0.930 . S
H2644 C2654 0.930 . S
H2645 C2655 0.930 . S
C2646 H2640 0.930 . S
C2646 C2647 1.355 . S
C2646 C2648 1.415 . S
C2647 C2646 1.355 . S
C2647 C2649 1.419 . S
C2648 C2646 1.415 . S
C2648 C2653 1.425 . S
C2648 C2655 1.409 . S
C2649 H2641 0.930 . S
C2649 C2647 1.419 . S
C2649 C2650 1.362 . S
C2650 H2642 0.930 . S
C2650 C2649 1.362 . S
C2650 C2653 1.409 . S
C2651 H2643 0.930 . S
C2651 C2652 1.355 . S
C2651 C2653 1.415 . S
C2652 C2651 1.355 . S
C2652 C2654 1.419 . S
C2653 C2648 1.425 . S
C2653 C2650 1.409 . S
C2653 C2651 1.415 . S
C2654 H2644 0.930 . S
C2654 C2652 1.419 . S
C2654 C2655 1.362 . S
C2655 H2645 0.930 . S
C2655 C2648 1.409 . S
C2655 C2654 1.362 . S
H2656 C2662 0.930 . S
H2657 C2665 0.930 . S
H2658 C2666 0.930 . S
H2659 C2667 0.930 . S
H2660 C2670 0.930 . S
H2661 C2671 0.930 . S
C2662 H2656 0.930 . S
C2662 C2663 1.355 . S
C2662 C2664 1.415 . S
C2663 C2662 1.355 . S
C2663 C2665 1.419 . S
C2664 C2662 1.415 . S
C2664 C2669 1.425 . S
C2664 C2671 1.409 . S
C2665 H2657 0.930 . S
C2665 C2663 1.419 . S
C2665 C2666 1.362 . S
C2666 H2658 0.930 . S
C2666 C2665 1.362 . S
C2666 C2669 1.409 . S
C2667 H2659 0.930 . S
C2667 C2668 1.355 . S
C2667 C2669 1.415 . S
C2668 C2667 1.355 . S
C2668 C2670 1.419 . S
C2669 C2664 1.425 . S
C2669 C2666 1.409 . S
C2669 C2667 1.415 . S
C2670 H2660 0.930 . S
C2670 C2668 1.419 . S
C2670 C2671 1.362 . S
C2671 H2661 0.930 . S
C2671 C2664 1.409 . S
C2671 C2670 1.362 . S
H2672 C2678 0.930 . S
H2673 C2681 0.930 . S
H2674 C2682 0.930 . S
H2675 C2683 0.930 . S
H2676 C2686 0.930 . S
H2677 C2687 0.930 . S
C2678 H2672 0.930 . S
C2678 C2679 1.355 . S
C2678 C2680 1.415 . S
C2679 C2678 1.355 . S
C2679 C2681 1.419 . S
C2680 C2678 1.415 . S
C2680 C2685 1.425 . S
C2680 C2687 1.409 . S
C2681 H2673 0.930 . S
C2681 C2679 1.419 . S
C2681 C2682 1.362 . S
C2682 H2674 0.930 . S
C2682 C2681 1.362 . S
C2682 C2685 1.409 . S
C2683 H2675 0.930 . S
C2683 C2684 1.355 . S
C2683 C2685 1.415 . S
C2684 C2683 1.355 . S
C2684 C2686 1.419 . S
C2685 C2680 1.425 . S
C2685 C2682 1.409 . S
C2685 C2683 1.415 . S
C2686 H2676 0.930 . S
C2686 C2684 1.419 . S
C2686 C2687 1.362 . S
C2687 H2677 0.930 . S
C2687 C2680 1.409 . S
C2687 C2686 1.362 . S
H2688 C2694 0.930 . S
H2689 C2697 0.930 . S
H2690 C2698 0.930 . S
H2691 C2699 0.930 . S
H2692 C2702 0.930 . S
H2693 C2703 0.930 . S
C2694 H2688 0.930 . S
C2694 C2695 1.355 . S
C2694 C2696 1.415 . S
C2695 C2694 1.355 . S
C2695 C2697 1.419 . S
C2696 C2694 1.415 . S
C2696 C2701 1.425 . S
C2696 C2703 1.409 . S
C2697 H2689 0.930 . S
C2697 C2695 1.419 . S
C2697 C2698 1.362 . S
C2698 H2690 0.930 . S
C2698 C2697 1.362 . S
C2698 C2701 1.409 . S
C2699 H2691 0.930 . S
C2699 C2700 1.355 . S
C2699 C2701 1.415 . S
C2700 C2699 1.355 . S
C2700 C2702 1.419 . S
C2701 C2696 1.425 . S
C2701 C2698 1.409 . S
C2701 C2699 1.415 . S
C2702 H2692 0.930 . S
C2702 C2700 1.419 . S
C2702 C2703 1.362 . S
C2703 H2693 0.930 . S
C2703 C2696 1.409 . S
C2703 C2702 1.362 . S
H2704 C2710 0.930 . S
H2705 C2713 0.930 . S
H2706 C2714 0.930 . S
H2707 C2715 0.930 . S
H2708 C2718 0.930 . S
H2709 C2719 0.930 . S
C2710 H2704 0.930 . S
C2710 C2711 1.355 . S
C2710 C2712 1.415 . S
C2711 C2710 1.355 . S
C2711 C2713 1.419 . S
C2712 C2710 1.415 . S
C2712 C2717 1.425 . S
C2712 C2719 1.409 . S
C2713 H2705 0.930 . S
C2713 C2711 1.419 . S
C2713 C2714 1.362 . S
C2714 H2706 0.930 . S
C2714 C2713 1.362 . S
C2714 C2717 1.409 . S
C2715 H2707 0.930 . S
C2715 C2716 1.355 . S
C2715 C2717 1.415 . S
C2716 C2715 1.355 . S
C2716 C2718 1.419 . S
C2717 C2712 1.425 . S
C2717 C2714 1.409 . S
C2717 C2715 1.415 . S
C2718 H2708 0.930 . S
C2718 C2716 1.419 . S
C2718 C2719 1.362 . S
C2719 H2709 0.930 . S
C2719 C2712 1.409 . S
C2719 C2718 1.362 . S
H2720 C2726 0.930 . S
H2721 C2729 0.930 . S
H2722 C2730 0.930 . S
H2723 C2731 0.930 . S
H2724 C2734 0.930 . S
H2725 C2735 0.930 . S
C2726 H2720 0.930 . S
C2726 C2727 1.355 . S
C2726 C2728 1.415 . S
C2727 C2726 1.355 . S
C2727 C2729 1.419 . S
C2728 C2726 1.415 . S
C2728 C2733 1.425 . S
C2728 C2735 1.409 . S
C2729 H2721 0.930 . S
C2729 C2727 1.419 . S
C2729 C2730 1.362 . S
C2730 H2722 0.930 . S
C2730 C2729 1.362 . S
C2730 C2733 1.409 . S
C2731 H2723 0.930 . S
C2731 C2732 1.355 . S
C2731 C2733 1.415 . S
C2732 C2731 1.355 . S
C2732 C2734 1.419 . S
C2733 C2728 1.425 . S
C2733 C2730 1.409 . S
C2733 C2731 1.415 . S
C2734 H2724 0.930 . S
C2734 C2732 1.419 . S
C2734 C2735 1.362 . S
C2735 H2725 0.930 . S
C2735 C2728 1.409 . S
C2735 C2734 1.362 . S
H2736 C2742 0.930 . S
H2737 C2745 0.930 . S
H2738 C2746 0.930 . S
H2739 C2747 0.930 . S
H2740 C2750 0.930 . S
H2741 C2751 0.930 . S
C2742 H2736 0.930 . S
C2742 C2743 1.355 . S
C2742 C2744 1.415 . S
C2743 C2742 1.355 . S
C2743 C2745 1.419 . S
C2744 C2742 1.415 . S
C2744 C2749 1.425 . S
C2744 C2751 1.409 . S
C2745 H2737 0.930 . S
C2745 C2743 1.419 . S
C2745 C2746 1.362 . S
C2746 H2738 0.930 . S
C2746 C2745 1.362 . S
C2746 C2749 1.409 . S
C2747 H2739 0.930 . S
C2747 C2748 1.355 . S
C2747 C2749 1.415 . S
C2748 C2747 1.355 . S
C2748 C2750 1.419 . S
C2749 C2744 1.425 . S
C2749 C2746 1.409 . S
C2749 C2747 1.415 . S
C2750 H2740 0.930 . S
C2750 C2748 1.419 . S
C2750 C2751 1.362 . S
C2751 H2741 0.930 . S
C2751 C2744 1.409 . S
C2751 C2750 1.362 . S
H2752 C2758 0.930 . S
H2753 C2761 0.930 . S
H2754 C2762 0.930 . S
H2755 C2763 0.930 . S
H2756 C2766 0.930 . S
H2757 C2767 0.930 . S
C2758 H2752 0.930 . S
C2758 C2759 1.355 . S
C2758 C2760 1.415 . S
C2759 C2758 1.355 . S
C2759 C2761 1.419 . S
C2760 C2758 1.415 . S
C2760 C2765 1.425 . S
C2760 C2767 1.409 . S
C2761 H2753 0.930 . S
C2761 C2759 1.419 . S
C2761 C2762 1.362 . S
C2762 H2754 0.930 . S
C2762 C2761 1.362 . S
C2762 C2765 1.409 . S
C2763 H2755 0.930 . S
C2763 C2764 1.355 . S
C2763 C2765 1.415 . S
C2764 C2763 1.355 . S
C2764 C2766 1.419 . S
C2765 C2760 1.425 . S
C2765 C2762 1.409 . S
C2765 C2763 1.415 . S
C2766 H2756 0.930 . S
C2766 C2764 1.419 . S
C2766 C2767 1.362 . S
C2767 H2757 0.930 . S
C2767 C2760 1.409 . S
C2767 C2766 1.362 . S
H2768 C2774 0.930 . S
H2769 C2777 0.930 . S
H2770 C2778 0.930 . S
H2771 C2779 0.930 . S
H2772 C2782 0.930 . S
H2773 C2783 0.930 . S
C2774 H2768 0.930 . S
C2774 C2775 1.355 . S
C2774 C2776 1.415 . S
C2775 C2774 1.355 . S
C2775 C2777 1.419 . S
C2776 C2774 1.415 . S
C2776 C2781 1.425 . S
C2776 C2783 1.409 . S
C2777 H2769 0.930 . S
C2777 C2775 1.419 . S
C2777 C2778 1.362 . S
C2778 H2770 0.930 . S
C2778 C2777 1.362 . S
C2778 C2781 1.409 . S
C2779 H2771 0.930 . S
C2779 C2780 1.355 . S
C2779 C2781 1.415 . S
C2780 C2779 1.355 . S
C2780 C2782 1.419 . S
C2781 C2776 1.425 . S
C2781 C2778 1.409 . S
C2781 C2779 1.415 . S
C2782 H2772 0.930 . S
C2782 C2780 1.419 . S
C2782 C2783 1.362 . S
C2783 H2773 0.930 . S
C2783 C2776 1.409 . S
C2783 C2782 1.362 . S
H2784 C2790 0.930 . S
H2785 C2793 0.930 . S
H2786 C2794 0.930 . S
H2787 C2795 0.930 . S
H2788 C2798 0.930 . S
H2789 C2799 0.930 . S
C2790 H2784 0.930 . S
C2790 C2791 1.355 . S
C2790 C2792 1.415 . S
C2791 C2790 1.355 . S
C2791 C2793 1.419 . S
C2792 C2790 1.415 . S
C2792 C2797 1.425 . S
C2792 C2799 1.409 . S
C2793 H2785 0.930 . S
C2793 C2791 1.419 . S
C2793 C2794 1.362 . S
C2794 H2786 0.930 . S
C2794 C2793 1.362 . S
C2794 C2797 1.409 . S
C2795 H2787 0.930 . S
C2795 C2796 1.355 . S
C2795 C2797 1.415 . S
C2796 C2795 1.355 . S
C2796 C2798 1.419 . S
C2797 C2792 1.425 . S
C2797 C2794 1.409 . S
C2797 C2795 1.415 . S
C2798 H2788 0.930 . S
C2798 C2796 1.419 . S
C2798 C2799 1.362 . S
C2799 H2789 0.930 . S
C2799 C2792 1.409 . S
C2799 C2798 1.362 . S
H2800 C2806 0.930 . S
H2801 C2809 0.930 . S
H2802 C2810 0.930 . S
H2803 C2811 0.930 . S
H2804 C2814 0.930 . S
H2805 C2815 0.930 . S
C2806 H2800 0.930 . S
C2806 C2807 1.355 . S
C2806 C2808 1.415 . S
C2807 C2806 1.355 . S
C2807 C2809 1.419 . S
C2808 C2806 1.415 . S
C2808 C2813 1.425 . S
C2808 C2815 1.409 . S
C2809 H2801 0.930 . S
C2809 C2807 1.419 . S
C2809 C2810 1.362 . S
C2810 H2802 0.930 . S
C2810 C2809 1.362 . S
C2810 C2813 1.409 . S
C2811 H2803 0.930 . S
C2811 C2812 1.355 . S
C2811 C2813 1.415 . S
C2812 C2811 1.355 . S
C2812 C2814 1.419 . S
C2813 C2808 1.425 . S
C2813 C2810 1.409 . S
C2813 C2811 1.415 . S
C2814 H2804 0.930 . S
C2814 C2812 1.419 . S
C2814 C2815 1.362 . S
C2815 H2805 0.930 . S
C2815 C2808 1.409 . S
C2815 C2814 1.362 . S
H2816 C2822 0.930 . S
H2817 C2825 0.930 . S
H2818 C2826 0.930 . S
H2819 C2827 0.930 . S
H2820 C2830 0.930 . S
H2821 C2831 0.930 . S
C2822 H2816 0.930 . S
C2822 C2823 1.355 . S
C2822 C2824 1.415 . S
C2823 C2822 1.355 . S
C2823 C2825 1.419 . S
C2824 C2822 1.415 . S
C2824 C2829 1.425 . S
C2824 C2831 1.409 . S
C2825 H2817 0.930 . S
C2825 C2823 1.419 . S
C2825 C2826 1.362 . S
C2826 H2818 0.930 . S
C2826 C2825 1.362 . S
C2826 C2829 1.409 . S
C2827 H2819 0.930 . S
C2827 C2828 1.355 . S
C2827 C2829 1.415 . S
C2828 C2827 1.355 . S
C2828 C2830 1.419 . S
C2829 C2824 1.425 . S
C2829 C2826 1.409 . S
C2829 C2827 1.415 . S
C2830 H2820 0.930 . S
C2830 C2828 1.419 . S
C2830 C2831 1.362 . S
C2831 H2821 0.930 . S
C2831 C2824 1.409 . S
C2831 C2830 1.362 . S
H2832 C2838 0.930 . S
H2833 C2841 0.930 . S
H2834 C2842 0.930 . S
H2835 C2843 0.930 . S
H2836 C2846 0.930 . S
H2837 C2847 0.930 . S
C2838 H2832 0.930 . S
C2838 C2839 1.355 . S
C2838 C2840 1.415 . S
C2839 C2838 1.355 . S
C2839 C2841 1.419 . S
C2840 C2838 1.415 . S
C2840 C2845 1.425 . S
C2840 C2847 1.409 . S
C2841 H2833 0.930 . S
C2841 C2839 1.419 . S
C2841 C2842 1.362 . S
C2842 H2834 0.930 . S
C2842 C2841 1.362 . S
C2842 C2845 1.409 . S
C2843 H2835 0.930 . S
C2843 C2844 1.355 . S
C2843 C2845 1.415 . S
C2844 C2843 1.355 . S
C2844 C2846 1.419 . S
C2845 C2840 1.425 . S
C2845 C2842 1.409 . S
C2845 C2843 1.415 . S
C2846 H2836 0.930 . S
C2846 C2844 1.419 . S
C2846 C2847 1.362 . S
C2847 H2837 0.930 . S
C2847 C2840 1.409 . S
C2847 C2846 1.362 . S
H2848 C2854 0.930 . S
H2849 C2857 0.930 . S
H2850 C2858 0.930 . S
H2851 C2859 0.930 . S
H2852 C2862 0.930 . S
H2853 C2863 0.930 . S
C2854 H2848 0.930 . S
C2854 C2855 1.355 . S
C2854 C2856 1.415 . S
C2855 C2854 1.355 . S
C2855 C2857 1.419 . S
C2856 C2854 1.415 . S
C2856 C2861 1.425 . S
C2856 C2863 1.409 . S
C2857 H2849 0.930 . S
C2857 C2855 1.419 . S
C2857 C2858 1.362 . S
C2858 H2850 0.930 . S
C2858 C2857 1.362 . S
C2858 C2861 1.409 . S
C2859 H2851 0.930 . S
C2859 C2860 1.355 . S
C2859 C2861 1.415 . S
C2860 C2859 1.355 . S
C2860 C2862 1.419 . S
C2861 C2856 1.425 . S
C2861 C2858 1.409 . S
C2861 C2859 1.415 . S
C2862 H2852 0.930 . S
C2862 C2860 1.419 . S
C2862 C2863 1.362 . S
C2863 H2853 0.930 . S
C2863 C2856 1.409 . S
C2863 C2862 1.362 . S
H2864 C2870 0.930 . S
H2865 C2873 0.930 . S
H2866 C2874 0.930 . S
H2867 C2875 0.930 . S
H2868 C2878 0.930 . S
H2869 C2879 0.930 . S
C2870 H2864 0.930 . S
C2870 C2871 1.355 . S
C2870 C2872 1.415 . S
C2871 C2870 1.355 . S
C2871 C2873 1.419 . S
C2872 C2870 1.415 . S
C2872 C2877 1.425 . S
C2872 C2879 1.409 . S
C2873 H2865 0.930 . S
C2873 C2871 1.419 . S
C2873 C2874 1.362 . S
C2874 H2866 0.930 . S
C2874 C2873 1.362 . S
C2874 C2877 1.409 . S
C2875 H2867 0.930 . S
C2875 C2876 1.355 . S
C2875 C2877 1.415 . S
C2876 C2875 1.355 . S
C2876 C2878 1.419 . S
C2877 C2872 1.425 . S
C2877 C2874 1.409 . S
C2877 C2875 1.415 . S
C2878 H2868 0.930 . S
C2878 C2876 1.419 . S
C2878 C2879 1.362 . S
C2879 H2869 0.930 . S
C2879 C2872 1.409 . S
C2879 C2878 1.362 . S
H2880 C2886 0.930 . S
H2881 C2889 0.930 . S
H2882 C2890 0.930 . S
H2883 C2891 0.930 . S
H2884 C2894 0.930 . S
H2885 C2895 0.930 . S
C2886 H2880 0.930 . S
C2886 C2887 1.355 . S
C2886 C2888 1.415 . S
C2887 C2886 1.355 . S
C2887 C2889 1.419 . S
C2888 C2886 1.415 . S
C2888 C2893 1.425 . S
C2888 C2895 1.409 . S
C2889 H2881 0.930 . S
C2889 C2887 1.419 . S
C2889 C2890 1.362 . S
C2890 H2882 0.930 . S
C2890 C2889 1.362 . S
C2890 C2893 1.409 . S
C2891 H2883 0.930 . S
C2891 C2892 1.355 . S
C2891 C2893 1.415 . S
C2892 C2891 1.355 . S
C2892 C2894 1.419 . S
C2893 C2888 1.425 . S
C2893 C2890 1.409 . S
C2893 C2891 1.415 . S
C2894 H2884 0.930 . S
C2894 C2892 1.419 . S
C2894 C2895 1.362 . S
C2895 H2885 0.930 . S
C2895 C2888 1.409 . S
C2895 C2894 1.362 . S
H2896 C2902 0.930 . S
H2897 C2905 0.930 . S
H2898 C2906 0.930 . S
H2899 C2907 0.930 . S
H2900 C2910 0.930 . S
H2901 C2911 0.930 . S
C2902 H2896 0.930 . S
C2902 C2903 1.355 . S
C2902 C2904 1.415 . S
C2903 C2902 1.355 . S
C2903 C2905 1.419 . S
C2904 C2902 1.415 . S
C2904 C2909 1.425 . S
C2904 C2911 1.409 . S
C2905 H2897 0.930 . S
C2905 C2903 1.419 . S
C2905 C2906 1.362 . S
C2906 H2898 0.930 . S
C2906 C2905 1.362 . S
C2906 C2909 1.409 . S
C2907 H2899 0.930 . S
C2907 C2908 1.355 . S
C2907 C2909 1.415 . S
C2908 C2907 1.355 . S
C2908 C2910 1.419 . S
C2909 C2904 1.425 . S
C2909 C2906 1.409 . S
C2909 C2907 1.415 . S
C2910 H2900 0.930 . S
C2910 C2908 1.419 . S
C2910 C2911 1.362 . S
C2911 H2901 0.930 . S
C2911 C2904 1.409 . S
C2911 C2910 1.362 . S
H2912 C2918 0.930 . S
H2913 C2921 0.930 . S
H2914 C2922 0.930 . S
H2915 C2923 0.930 . S
H2916 C2926 0.930 . S
H2917 C2927 0.930 . S
C2918 H2912 0.930 . S
C2918 C2919 1.355 . S
C2918 C2920 1.415 . S
C2919 C2918 1.355 . S
C2919 C2921 1.419 . S
C2920 C2918 1.415 . S
C2920 C2925 1.425 . S
C2920 C2927 1.409 . S
C2921 H2913 0.930 . S
C2921 C2919 1.419 . S
C2921 C2922 1.362 . S
C2922 H2914 0.930 . S
C2922 C2921 1.362 . S
C2922 C2925 1.409 . S
C2923 H2915 0.930 . S
C2923 C2924 1.355 . S
C2923 C2925 1.415 . S
C2924 C2923 1.355 . S
C2924 C2926 1.419 . S
C2925 C2920 1.425 . S
C2925 C2922 1.409 . S
C2925 C2923 1.415 . S
C2926 H2916 0.930 . S
C2926 C2924 1.419 . S
C2926 C2927 1.362 . S
C2927 H2917 0.930 . S
C2927 C2920 1.409 . S
C2927 C2926 1.362 . S
H2928 C2934 0.930 . S
H2929 C2937 0.930 . S
H2930 C2938 0.930 . S
H2931 C2939 0.930 . S
H2932 C2942 0.930 . S
H2933 C2943 0.930 . S
C2934 H2928 0.930 . S
C2934 C2935 1.355 . S
C2934 C2936 1.415 . S
C2935 C2934 1.355 . S
C2935 C2937 1.419 . S
C2936 C2934 1.415 . S
C2936 C2941 1.425 . S
C2936 C2943 1.409 . S
C2937 H2929 0.930 . S
C2937 C2935 1.419 . S
C2937 C2938 1.362 . S
C2938 H2930 0.930 . S
C2938 C2937 1.362 . S
C2938 C2941 1.409 . S
C2939 H2931 0.930 . S
C2939 C2940 1.355 . S
C2939 C2941 1.415 . S
C2940 C2939 1.355 . S
C2940 C2942 1.419 . S
C2941 C2936 1.425 . S
C2941 C2938 1.409 . S
C2941 C2939 1.415 . S
C2942 H2932 0.930 . S
C2942 C2940 1.419 . S
C2942 C2943 1.362 . S
C2943 H2933 0.930 . S
C2943 C2936 1.409 . S
C2943 C2942 1.362 . S
H2944 C2950 0.930 . S
H2945 C2953 0.930 1_554 S
H2946 C2954 0.930 . S
H2947 C2955 0.930 . S
H2948 C2958 0.930 . S
H2949 C2959 0.930 . S
C2950 H2944 0.930 . S
C2950 C2951 1.355 . S
C2950 C2952 1.415 . S
C2951 C2950 1.355 . S
C2951 C2953 1.419 . S
C2952 C2950 1.415 . S
C2952 C2957 1.425 . S
C2952 C2959 1.409 . S
C2953 H2945 0.930 1_556 S
C2953 C2951 1.419 . S
C2953 C2954 1.362 . S
C2954 H2946 0.930 . S
C2954 C2953 1.362 . S
C2954 C2957 1.409 . S
C2955 H2947 0.930 . S
C2955 C2956 1.355 . S
C2955 C2957 1.415 . S
C2956 C2955 1.355 . S
C2956 C2958 1.419 . S
C2957 C2952 1.425 . S
C2957 C2954 1.409 . S
C2957 C2955 1.415 . S
C2958 H2948 0.930 . S
C2958 C2956 1.419 . S
C2958 C2959 1.362 . S
C2959 H2949 0.930 . S
C2959 C2952 1.409 . S
C2959 C2958 1.362 . S
H2960 C2966 0.930 . S
H2961 C2969 0.930 1_554 S
H2962 C2970 0.930 . S
H2963 C2971 0.930 . S
H2964 C2974 0.930 . S
H2965 C2975 0.930 . S
C2966 H2960 0.930 . S
C2966 C2967 1.355 . S
C2966 C2968 1.415 . S
C2967 C2966 1.355 . S
C2967 C2969 1.419 . S
C2968 C2966 1.415 . S
C2968 C2973 1.425 . S
C2968 C2975 1.409 . S
C2969 H2961 0.930 1_556 S
C2969 C2967 1.419 . S
C2969 C2970 1.362 . S
C2970 H2962 0.930 . S
C2970 C2969 1.362 . S
C2970 C2973 1.409 . S
C2971 H2963 0.930 . S
C2971 C2972 1.355 . S
C2971 C2973 1.415 . S
C2972 C2971 1.355 . S
C2972 C2974 1.419 . S
C2973 C2968 1.425 . S
C2973 C2970 1.409 . S
C2973 C2971 1.415 . S
C2974 H2964 0.930 . S
C2974 C2972 1.419 . S
C2974 C2975 1.362 . S
C2975 H2965 0.930 . S
C2975 C2968 1.409 . S
C2975 C2974 1.362 . S
H2976 C2982 0.930 . S
H2977 C2985 0.930 . S
H2978 C2986 0.930 . S
H2979 C2987 0.930 . S
H2980 C2990 0.930 . S
H2981 C2991 0.930 . S
C2982 H2976 0.930 . S
C2982 C2983 1.355 . S
C2982 C2984 1.415 . S
C2983 C2982 1.355 . S
C2983 C2985 1.419 . S
C2984 C2982 1.415 . S
C2984 C2989 1.425 . S
C2984 C2991 1.409 . S
C2985 H2977 0.930 . S
C2985 C2983 1.419 . S
C2985 C2986 1.362 . S
C2986 H2978 0.930 . S
C2986 C2985 1.362 . S
C2986 C2989 1.409 . S
C2987 H2979 0.930 . S
C2987 C2988 1.355 . S
C2987 C2989 1.415 . S
C2988 C2987 1.355 . S
C2988 C2990 1.419 . S
C2989 C2984 1.425 . S
C2989 C2986 1.409 . S
C2989 C2987 1.415 . S
C2990 H2980 0.930 . S
C2990 C2988 1.419 . S
C2990 C2991 1.362 . S
C2991 H2981 0.930 . S
C2991 C2984 1.409 . S
C2991 C2990 1.362 . S
H2992 C2998 0.930 . S
H2993 C3001 0.930 . S
H2994 C3002 0.930 . S
H2995 C3003 0.930 . S
H2996 C3006 0.930 . S
H2997 C3007 0.930 . S
C2998 H2992 0.930 . S
C2998 C2999 1.355 . S
C2998 C3000 1.415 . S
C2999 C2998 1.355 . S
C2999 C3001 1.419 . S
C3000 C2998 1.415 . S
C3000 C3005 1.425 . S
C3000 C3007 1.409 . S
C3001 H2993 0.930 . S
C3001 C2999 1.419 . S
C3001 C3002 1.362 . S
C3002 H2994 0.930 . S
C3002 C3001 1.362 . S
C3002 C3005 1.409 . S
C3003 H2995 0.930 . S
C3003 C3004 1.355 . S
C3003 C3005 1.415 . S
C3004 C3003 1.355 . S
C3004 C3006 1.419 . S
C3005 C3000 1.425 . S
C3005 C3002 1.409 . S
C3005 C3003 1.415 . S
C3006 H2996 0.930 . S
C3006 C3004 1.419 . S
C3006 C3007 1.362 . S
C3007 H2997 0.930 . S
C3007 C3000 1.409 . S
C3007 C3006 1.362 . S
H3008 C3014 0.930 . S
H3009 C3017 0.930 . S
H3010 C3018 0.930 . S
H3011 C3019 0.930 . S
H3012 C3022 0.930 . S
H3013 C3023 0.930 . S
C3014 H3008 0.930 . S
C3014 C3015 1.355 . S
C3014 C3016 1.415 . S
C3015 C3014 1.355 . S
C3015 C3017 1.419 . S
C3016 C3014 1.415 . S
C3016 C3021 1.425 . S
C3016 C3023 1.409 . S
C3017 H3009 0.930 . S
C3017 C3015 1.419 . S
C3017 C3018 1.362 . S
C3018 H3010 0.930 . S
C3018 C3017 1.362 . S
C3018 C3021 1.409 . S
C3019 H3011 0.930 . S
C3019 C3020 1.355 . S
C3019 C3021 1.415 . S
C3020 C3019 1.355 . S
C3020 C3022 1.419 . S
C3021 C3016 1.425 . S
C3021 C3018 1.409 . S
C3021 C3019 1.415 . S
C3022 H3012 0.930 . S
C3022 C3020 1.419 . S
C3022 C3023 1.362 . S
C3023 H3013 0.930 . S
C3023 C3016 1.409 . S
C3023 C3022 1.362 . S
H3024 C3030 0.930 . S
H3025 C3033 0.930 . S
H3026 C3034 0.930 . S
H3027 C3035 0.930 . S
H3028 C3038 0.930 . S
H3029 C3039 0.930 . S
C3030 H3024 0.930 . S
C3030 C3031 1.355 . S
C3030 C3032 1.415 . S
C3031 C3030 1.355 . S
C3031 C3033 1.419 . S
C3032 C3030 1.415 . S
C3032 C3037 1.425 . S
C3032 C3039 1.409 . S
C3033 H3025 0.930 . S
C3033 C3031 1.419 . S
C3033 C3034 1.362 . S
C3034 H3026 0.930 . S
C3034 C3033 1.362 . S
C3034 C3037 1.409 . S
C3035 H3027 0.930 . S
C3035 C3036 1.355 . S
C3035 C3037 1.415 . S
C3036 C3035 1.355 . S
C3036 C3038 1.419 . S
C3037 C3032 1.425 . S
C3037 C3034 1.409 . S
C3037 C3035 1.415 . S
C3038 H3028 0.930 . S
C3038 C3036 1.419 . S
C3038 C3039 1.362 . S
C3039 H3029 0.930 . S
C3039 C3032 1.409 . S
C3039 C3038 1.362 . S
H3040 C3046 0.930 . S
H3041 C3049 0.930 . S
H3042 C3050 0.930 . S
H3043 C3051 0.930 . S
H3044 C3054 0.930 . S
H3045 C3055 0.930 . S
C3046 H3040 0.930 . S
C3046 C3047 1.355 . S
C3046 C3048 1.415 . S
C3047 C3046 1.355 . S
C3047 C3049 1.419 . S
C3048 C3046 1.415 . S
C3048 C3053 1.425 . S
C3048 C3055 1.409 . S
C3049 H3041 0.930 . S
C3049 C3047 1.419 . S
C3049 C3050 1.362 . S
C3050 H3042 0.930 . S
C3050 C3049 1.362 . S
C3050 C3053 1.409 . S
C3051 H3043 0.930 . S
C3051 C3052 1.355 . S
C3051 C3053 1.415 . S
C3052 C3051 1.355 . S
C3052 C3054 1.419 . S
C3053 C3048 1.425 . S
C3053 C3050 1.409 . S
C3053 C3051 1.415 . S
C3054 H3044 0.930 . S
C3054 C3052 1.419 . S
C3054 C3055 1.362 . S
C3055 H3045 0.930 . S
C3055 C3048 1.409 . S
C3055 C3054 1.362 . S
H3056 C3062 0.930 . S
H3057 C3065 0.930 . S
H3058 C3066 0.930 . S
H3059 C3067 0.930 . S
H3060 C3070 0.930 . S
H3061 C3071 0.930 . S
C3062 H3056 0.930 . S
C3062 C3063 1.355 . S
C3062 C3064 1.415 . S
C3063 C3062 1.355 . S
C3063 C3065 1.419 . S
C3064 C3062 1.415 . S
C3064 C3069 1.425 . S
C3064 C3071 1.409 . S
C3065 H3057 0.930 . S
C3065 C3063 1.419 . S
C3065 C3066 1.362 . S
C3066 H3058 0.930 . S
C3066 C3065 1.362 . S
C3066 C3069 1.409 . S
C3067 H3059 0.930 . S
C3067 C3068 1.355 . S
C3067 C3069 1.415 . S
C3068 C3067 1.355 . S
C3068 C3070 1.419 . S
C3069 C3064 1.425 . S
C3069 C3066 1.409 . S
C3069 C3067 1.415 . S
C3070 H3060 0.930 . S
C3070 C3068 1.419 . S
C3070 C3071 1.362 . S
C3071 H3061 0.930 . S
C3071 C3064 1.409 . S
C3071 C3070 1.362 . S
H3072 C3078 0.930 . S
H3073 C3081 0.930 . S
H3074 C3082 0.930 . S
H3075 C3083 0.930 . S
H3076 C3086 0.930 . S
H3077 C3087 0.930 . S
C3078 H3072 0.930 . S
C3078 C3079 1.355 . S
C3078 C3080 1.415 . S
C3079 C3078 1.355 . S
C3079 C3081 1.419 . S
C3080 C3078 1.415 . S
C3080 C3085 1.425 . S
C3080 C3087 1.409 . S
C3081 H3073 0.930 . S
C3081 C3079 1.419 . S
C3081 C3082 1.362 . S
C3082 H3074 0.930 . S
C3082 C3081 1.362 . S
C3082 C3085 1.409 . S
C3083 H3075 0.930 . S
C3083 C3084 1.355 . S
C3083 C3085 1.415 . S
C3084 C3083 1.355 . S
C3084 C3086 1.419 . S
C3085 C3080 1.425 . S
C3085 C3082 1.409 . S
C3085 C3083 1.415 . S
C3086 H3076 0.930 . S
C3086 C3084 1.419 . S
C3086 C3087 1.362 . S
C3087 H3077 0.930 . S
C3087 C3080 1.409 . S
C3087 C3086 1.362 . S
H3088 C3094 0.930 . S
H3089 C3097 0.930 . S
H3090 C3098 0.930 . S
H3091 C3099 0.930 . S
H3092 C3102 0.930 . S
H3093 C3103 0.930 . S
C3094 H3088 0.930 . S
C3094 C3095 1.355 . S
C3094 C3096 1.415 . S
C3095 C3094 1.355 . S
C3095 C3097 1.419 . S
C3096 C3094 1.415 . S
C3096 C3101 1.425 . S
C3096 C3103 1.409 . S
C3097 H3089 0.930 . S
C3097 C3095 1.419 . S
C3097 C3098 1.362 . S
C3098 H3090 0.930 . S
C3098 C3097 1.362 . S
C3098 C3101 1.409 . S
C3099 H3091 0.930 . S
C3099 C3100 1.355 . S
C3099 C3101 1.415 . S
C3100 C3099 1.355 . S
C3100 C3102 1.419 . S
C3101 C3096 1.425 . S
C3101 C3098 1.409 . S
C3101 C3099 1.415 . S
C3102 H3092 0.930 . S
C3102 C3100 1.419 . S
C3102 C3103 1.362 . S
C3103 H3093 0.930 . S
C3103 C3096 1.409 . S
C3103 C3102 1.362 . S
H3104 C3110 0.930 . S
H3105 C3113 0.930 . S
H3106 C3114 0.930 . S
H3107 C3115 0.930 . S
H3108 C3118 0.930 . S
H3109 C3119 0.930 . S
C3110 H3104 0.930 . S
C3110 C3111 1.355 . S
C3110 C3112 1.415 . S
C3111 C3110 1.355 . S
C3111 C3113 1.419 . S
C3112 C3110 1.415 . S
C3112 C3117 1.425 . S
C3112 C3119 1.409 . S
C3113 H3105 0.930 . S
C3113 C3111 1.419 . S
C3113 C3114 1.362 . S
C3114 H3106 0.930 . S
C3114 C3113 1.362 . S
C3114 C3117 1.409 . S
C3115 H3107 0.930 . S
C3115 C3116 1.355 . S
C3115 C3117 1.415 . S
C3116 C3115 1.355 . S
C3116 C3118 1.419 . S
C3117 C3112 1.425 . S
C3117 C3114 1.409 . S
C3117 C3115 1.415 . S
C3118 H3108 0.930 . S
C3118 C3116 1.419 . S
C3118 C3119 1.362 . S
C3119 H3109 0.930 . S
C3119 C3112 1.409 . S
C3119 C3118 1.362 . S
H3120 C3126 0.930 1_655 S
H3121 C3129 0.930 . S
H3122 C3130 0.930 . S
H3123 C3131 0.930 . S
H3124 C3134 0.930 . S
H3125 C3135 0.930 . S
C3126 H3120 0.930 1_455 S
C3126 C3127 1.355 . S
C3126 C3128 1.415 . S
C3127 C3126 1.355 . S
C3127 C3129 1.419 . S
C3128 C3126 1.415 . S
C3128 C3133 1.425 . S
C3128 C3135 1.409 1_455 S
C3129 H3121 0.930 . S
C3129 C3127 1.419 . S
C3129 C3130 1.362 . S
C3130 H3122 0.930 . S
C3130 C3129 1.362 . S
C3130 C3133 1.409 . S
C3131 H3123 0.930 . S
C3131 C3132 1.355 . S
C3131 C3133 1.415 . S
C3132 C3131 1.355 . S
C3132 C3134 1.419 1_455 S
C3133 C3128 1.425 . S
C3133 C3130 1.409 . S
C3133 C3131 1.415 . S
C3134 H3124 0.930 . S
C3134 C3132 1.419 1_655 S
C3134 C3135 1.362 . S
C3135 H3125 0.930 . S
C3135 C3128 1.409 1_655 S
C3135 C3134 1.362 . S
H3136 C3142 0.930 . S
H3137 C3145 0.930 . S
H3138 C3146 0.930 . S
H3139 C3147 0.930 . S
H3140 C3150 0.930 . S
H3141 C3151 0.930 . S
C3142 H3136 0.930 . S
C3142 C3143 1.355 . S
C3142 C3144 1.415 . S
C3143 C3142 1.355 . S
C3143 C3145 1.419 . S
C3144 C3142 1.415 . S
C3144 C3149 1.425 . S
C3144 C3151 1.409 . S
C3145 H3137 0.930 . S
C3145 C3143 1.419 . S
C3145 C3146 1.362 . S
C3146 H3138 0.930 . S
C3146 C3145 1.362 . S
C3146 C3149 1.409 . S
C3147 H3139 0.930 . S
C3147 C3148 1.355 . S
C3147 C3149 1.415 . S
C3148 C3147 1.355 . S
C3148 C3150 1.419 . S
C3149 C3144 1.425 . S
C3149 C3146 1.409 . S
C3149 C3147 1.415 . S
C3150 H3140 0.930 . S
C3150 C3148 1.419 . S
C3150 C3151 1.362 . S
C3151 H3141 0.930 . S
C3151 C3144 1.409 . S
C3151 C3150 1.362 . S
H3152 C3158 0.930 1_545 S
H3153 C3161 0.930 . S
H3154 C3162 0.930 . S
H3155 C3163 0.930 . S
H3156 C3166 0.930 . S
H3157 C3167 0.930 . S
C3158 H3152 0.930 1_565 S
C3158 C3159 1.355 . S
C3158 C3160 1.415 . S
C3159 C3158 1.355 . S
C3159 C3161 1.419 . S
C3160 C3158 1.415 . S
C3160 C3165 1.425 . S
C3160 C3167 1.409 1_565 S
C3161 H3153 0.930 . S
C3161 C3159 1.419 . S
C3161 C3162 1.362 . S
C3162 H3154 0.930 . S
C3162 C3161 1.362 . S
C3162 C3165 1.409 . S
C3163 H3155 0.930 . S
C3163 C3164 1.355 . S
C3163 C3165 1.415 . S
C3164 C3163 1.355 . S
C3164 C3166 1.419 1_565 S
C3165 C3160 1.425 . S
C3165 C3162 1.409 . S
C3165 C3163 1.415 . S
C3166 H3156 0.930 . S
C3166 C3164 1.419 1_545 S
C3166 C3167 1.362 . S
C3167 H3157 0.930 . S
C3167 C3160 1.409 1_545 S
C3167 C3166 1.362 . S
H3168 C3174 0.930 . S
H3169 C3177 0.930 . S
H3170 C3178 0.930 . S
H3171 C3179 0.930 . S
H3172 C3182 0.930 . S
H3173 C3183 0.930 . S
C3174 H3168 0.930 . S
C3174 C3175 1.355 . S
C3174 C3176 1.415 . S
C3175 C3174 1.355 . S
C3175 C3177 1.419 . S
C3176 C3174 1.415 . S
C3176 C3181 1.425 . S
C3176 C3183 1.409 1_565 S
C3177 H3169 0.930 . S
C3177 C3175 1.419 . S
C3177 C3178 1.362 . S
C3178 H3170 0.930 . S
C3178 C3177 1.362 . S
C3178 C3181 1.409 . S
C3179 H3171 0.930 . S
C3179 C3180 1.355 . S
C3179 C3181 1.415 . S
C3180 C3179 1.355 . S
C3180 C3182 1.419 1_565 S
C3181 C3176 1.425 . S
C3181 C3178 1.409 . S
C3181 C3179 1.415 . S
C3182 H3172 0.930 . S
C3182 C3180 1.419 1_545 S
C3182 C3183 1.362 . S
C3183 H3173 0.930 . S
C3183 C3176 1.409 1_545 S
C3183 C3182 1.362 . S
H3184 C3190 0.930 . S
H3185 C3193 0.930 . S
H3186 C3194 0.930 . S
H3187 C3195 0.930 . S
H3188 C3198 0.930 . S
H3189 C3199 0.930 . S
C3190 H3184 0.930 . S
C3190 C3191 1.355 . S
C3190 C3192 1.415 . S
C3191 C3190 1.355 . S
C3191 C3193 1.419 1_455 S
C3192 C3190 1.415 . S
C3192 C3197 1.444 . S
C3192 C3199 1.409 . S
C3193 H3185 0.930 . S
C3193 C3191 1.419 1_655 S
C3193 C3194 1.362 . S
C3194 H3186 0.930 . S
C3194 C3193 1.362 . S
C3194 C3197 1.387 1_655 S
C3195 H3187 0.930 . S
C3195 C3196 1.355 1_655 S
C3195 C3197 1.420 1_655 S
C3196 C3195 1.355 1_455 S
C3196 C3198 1.419 . S
C3197 C3192 1.444 . S
C3197 C3194 1.387 1_455 S
C3197 C3195 1.420 1_455 S
C3198 H3188 0.930 . S
C3198 C3196 1.419 . S
C3198 C3199 1.362 . S
C3199 H3189 0.930 . S
C3199 C3192 1.409 . S
C3199 C3198 1.362 . S
H3200 C3206 0.930 . S
H3201 C3209 0.930 . S
H3202 C3210 0.930 . S
H3203 C3211 0.930 . S
H3204 C3214 0.930 . S
H3205 C3215 0.930 . S
C3206 H3200 0.930 . S
C3206 C3207 1.355 . S
C3206 C3208 1.415 . S
C3207 C3206 1.355 . S
C3207 C3209 1.419 . S
C3208 C3206 1.415 . S
C3208 C3213 1.425 . S
C3208 C3215 1.409 . S
C3209 H3201 0.930 . S
C3209 C3207 1.419 . S
C3209 C3210 1.362 . S
C3210 H3202 0.930 . S
C3210 C3209 1.362 . S
C3210 C3213 1.409 . S
C3211 H3203 0.930 . S
C3211 C3212 1.355 . S
C3211 C3213 1.415 . S
C3212 C3211 1.355 . S
C3212 C3214 1.419 . S
C3213 C3208 1.425 . S
C3213 C3210 1.409 . S
C3213 C3211 1.415 . S
C3214 H3204 0.930 . S
C3214 C3212 1.419 . S
C3214 C3215 1.362 . S
C3215 H3205 0.930 . S
C3215 C3208 1.409 . S
C3215 C3214 1.362 . S
H3216 C3222 0.930 . S
H3217 C3225 0.930 . S
H3218 C3226 0.930 . S
H3219 C3227 0.930 . S
H3220 C3230 0.930 . S
H3221 C3231 0.930 . S
C3222 H3216 0.930 . S
C3222 C3223 1.355 . S
C3222 C3224 1.415 . S
C3223 C3222 1.355 . S
C3223 C3225 1.419 . S
C3224 C3222 1.415 . S
C3224 C3229 1.425 . S
C3224 C3231 1.409 . S
C3225 H3217 0.930 . S
C3225 C3223 1.419 . S
C3225 C3226 1.362 . S
C3226 H3218 0.930 . S
C3226 C3225 1.362 . S
C3226 C3229 1.409 . S
C3227 H3219 0.930 . S
C3227 C3228 1.355 . S
C3227 C3229 1.415 . S
C3228 C3227 1.355 . S
C3228 C3230 1.419 . S
C3229 C3224 1.425 . S
C3229 C3226 1.409 . S
C3229 C3227 1.415 . S
C3230 H3220 0.930 . S
C3230 C3228 1.419 . S
C3230 C3231 1.362 . S
C3231 H3221 0.930 . S
C3231 C3224 1.409 . S
C3231 C3230 1.362 . S
H3232 C3238 0.930 . S
H3233 C3241 0.930 . S
H3234 C3242 0.930 . S
H3235 C3243 0.930 . S
H3236 C3246 0.930 . S
H3237 C3247 0.930 . S
C3238 H3232 0.930 . S
C3238 C3239 1.355 . S
C3238 C3240 1.415 . S
C3239 C3238 1.355 . S
C3239 C3241 1.419 . S
C3240 C3238 1.415 . S
C3240 C3245 1.425 . S
C3240 C3247 1.409 . S
C3241 H3233 0.930 . S
C3241 C3239 1.419 . S
C3241 C3242 1.362 . S
C3242 H3234 0.930 . S
C3242 C3241 1.362 . S
C3242 C3245 1.409 . S
C3243 H3235 0.930 . S
C3243 C3244 1.355 . S
C3243 C3245 1.415 . S
C3244 C3243 1.355 . S
C3244 C3246 1.419 . S
C3245 C3240 1.425 . S
C3245 C3242 1.409 . S
C3245 C3243 1.415 . S
C3246 H3236 0.930 . S
C3246 C3244 1.419 . S
C3246 C3247 1.362 . S
C3247 H3237 0.930 . S
C3247 C3240 1.409 . S
C3247 C3246 1.362 . S
H3248 C3254 0.930 . S
H3249 C3257 0.930 . S
H3250 C3258 0.930 . S
H3251 C3259 0.930 . S
H3252 C3262 0.930 . S
H3253 C3263 0.930 . S
C3254 H3248 0.930 . S
C3254 C3255 1.355 . S
C3254 C3256 1.415 . S
C3255 C3254 1.355 . S
C3255 C3257 1.419 . S
C3256 C3254 1.415 . S
C3256 C3261 1.425 . S
C3256 C3263 1.409 . S
C3257 H3249 0.930 . S
C3257 C3255 1.419 . S
C3257 C3258 1.362 . S
C3258 H3250 0.930 . S
C3258 C3257 1.362 . S
C3258 C3261 1.409 . S
C3259 H3251 0.930 . S
C3259 C3260 1.355 . S
C3259 C3261 1.415 . S
C3260 C3259 1.355 . S
C3260 C3262 1.419 . S
C3261 C3256 1.425 . S
C3261 C3258 1.409 . S
C3261 C3259 1.415 . S
C3262 H3252 0.930 . S
C3262 C3260 1.419 . S
C3262 C3263 1.362 . S
C3263 H3253 0.930 . S
C3263 C3256 1.409 . S
C3263 C3262 1.362 . S
H3264 C3270 0.930 . S
H3265 C3273 0.929 1_565 S
H3266 C3274 0.928 . S
H3267 C3275 0.930 1_565 S
H3268 C3278 0.930 . S
H3269 C3279 0.930 . S
C3270 H3264 0.930 . S
C3270 C3271 1.355 . S
C3270 C3272 1.415 . S
C3271 C3270 1.355 . S
C3271 C3273 1.419 . S
C3272 C3270 1.415 . S
C3272 C3277 1.425 . S
C3272 C3279 1.409 . S
C3273 H3265 0.929 1_545 S
C3273 C3271 1.419 . S
C3273 C3274 1.365 1_545 S
C3274 H3266 0.928 . S
C3274 C3273 1.365 1_565 S
C3274 C3277 1.408 1_565 S
C3275 H3267 0.930 1_545 S
C3275 C3276 1.355 . S
C3275 C3277 1.415 . S
C3276 C3275 1.355 . S
C3276 C3278 1.419 . S
C3277 C3272 1.425 . S
C3277 C3274 1.408 1_545 S
C3277 C3275 1.415 . S
C3278 H3268 0.930 . S
C3278 C3276 1.419 . S
C3278 C3279 1.362 . S
C3279 H3269 0.930 . S
C3279 C3272 1.409 . S
C3279 C3278 1.362 . S
H3280 C3286 0.930 . S
H3281 C3289 0.930 . S
H3282 C3290 0.930 . S
H3283 C3291 0.930 . S
H3284 C3294 0.930 . S
H3285 C3295 0.930 . S
C3286 H3280 0.930 . S
C3286 C3287 1.355 . S
C3286 C3288 1.415 . S
C3287 C3286 1.355 . S
C3287 C3289 1.419 . S
C3288 C3286 1.415 . S
C3288 C3293 1.425 . S
C3288 C3295 1.409 . S
C3289 H3281 0.930 . S
C3289 C3287 1.419 . S
C3289 C3290 1.362 . S
C3290 H3282 0.930 . S
C3290 C3289 1.362 . S
C3290 C3293 1.409 . S
C3291 H3283 0.930 . S
C3291 C3292 1.355 . S
C3291 C3293 1.415 . S
C3292 C3291 1.355 . S
C3292 C3294 1.419 . S
C3293 C3288 1.425 . S
C3293 C3290 1.409 . S
C3293 C3291 1.415 . S
C3294 H3284 0.930 . S
C3294 C3292 1.419 . S
C3294 C3295 1.362 . S
C3295 H3285 0.930 . S
C3295 C3288 1.409 . S
C3295 C3294 1.362 . S
H3296 C3302 0.930 . S
H3297 C3305 0.930 . S
H3298 C3306 0.930 . S
H3299 C3307 0.930 . S
H3300 C3310 0.930 . S
H3301 C3311 0.930 . S
C3302 H3296 0.930 . S
C3302 C3303 1.355 . S
C3302 C3304 1.415 . S
C3303 C3302 1.355 . S
C3303 C3305 1.419 . S
C3304 C3302 1.415 . S
C3304 C3309 1.425 . S
C3304 C3311 1.409 . S
C3305 H3297 0.930 . S
C3305 C3303 1.419 . S
C3305 C3306 1.362 . S
C3306 H3298 0.930 . S
C3306 C3305 1.362 . S
C3306 C3309 1.409 . S
C3307 H3299 0.930 . S
C3307 C3308 1.355 . S
C3307 C3309 1.415 . S
C3308 C3307 1.355 . S
C3308 C3310 1.419 . S
C3309 C3304 1.425 . S
C3309 C3306 1.409 . S
C3309 C3307 1.415 . S
C3310 H3300 0.930 . S
C3310 C3308 1.419 . S
C3310 C3311 1.362 . S
C3311 H3301 0.930 . S
C3311 C3304 1.409 . S
C3311 C3310 1.362 . S
H3312 C3318 0.930 . S
H3313 C3321 0.930 . S
H3314 C3322 0.930 . S
H3315 C3323 0.930 . S
H3316 C3326 0.930 . S
H3317 C3327 0.930 . S
C3318 H3312 0.930 . S
C3318 C3319 1.355 . S
C3318 C3320 1.415 . S
C3319 C3318 1.355 . S
C3319 C3321 1.419 . S
C3320 C3318 1.415 . S
C3320 C3325 1.425 . S
C3320 C3327 1.409 . S
C3321 H3313 0.930 . S
C3321 C3319 1.419 . S
C3321 C3322 1.362 . S
C3322 H3314 0.930 . S
C3322 C3321 1.362 . S
C3322 C3325 1.409 . S
C3323 H3315 0.930 . S
C3323 C3324 1.355 . S
C3323 C3325 1.415 . S
C3324 C3323 1.355 . S
C3324 C3326 1.419 . S
C3325 C3320 1.425 . S
C3325 C3322 1.409 . S
C3325 C3323 1.415 . S
C3326 H3316 0.930 . S
C3326 C3324 1.419 . S
C3326 C3327 1.362 . S
C3327 H3317 0.930 . S
C3327 C3320 1.409 . S
C3327 C3326 1.362 . S
H3328 C3334 0.930 . S
H3329 C3337 0.930 . S
H3330 C3338 0.930 . S
H3331 C3339 0.930 . S
H3332 C3342 0.930 . S
H3333 C3343 0.930 . S
C3334 H3328 0.930 . S
C3334 C3335 1.355 . S
C3334 C3336 1.415 . S
C3335 C3334 1.355 . S
C3335 C3337 1.419 . S
C3336 C3334 1.415 . S
C3336 C3341 1.425 . S
C3336 C3343 1.409 . S
C3337 H3329 0.930 . S
C3337 C3335 1.419 . S
C3337 C3338 1.362 . S
C3338 H3330 0.930 . S
C3338 C3337 1.362 . S
C3338 C3341 1.409 . S
C3339 H3331 0.930 . S
C3339 C3340 1.355 . S
C3339 C3341 1.415 . S
C3340 C3339 1.355 . S
C3340 C3342 1.419 . S
C3341 C3336 1.425 . S
C3341 C3338 1.409 . S
C3341 C3339 1.415 . S
C3342 H3332 0.930 . S
C3342 C3340 1.419 . S
C3342 C3343 1.362 . S
C3343 H3333 0.930 . S
C3343 C3336 1.409 . S
C3343 C3342 1.362 . S
H3344 C3350 0.930 . S
H3345 C3353 0.930 . S
H3346 C3354 0.930 . S
H3347 C3355 0.930 . S
H3348 C3358 0.930 . S
H3349 C3359 0.930 . S
C3350 H3344 0.930 . S
C3350 C3351 1.355 . S
C3350 C3352 1.415 . S
C3351 C3350 1.355 . S
C3351 C3353 1.419 . S
C3352 C3350 1.415 . S
C3352 C3357 1.425 . S
C3352 C3359 1.409 . S
C3353 H3345 0.930 . S
C3353 C3351 1.419 . S
C3353 C3354 1.362 . S
C3354 H3346 0.930 . S
C3354 C3353 1.362 . S
C3354 C3357 1.409 . S
C3355 H3347 0.930 . S
C3355 C3356 1.355 . S
C3355 C3357 1.415 . S
C3356 C3355 1.355 . S
C3356 C3358 1.419 . S
C3357 C3352 1.425 . S
C3357 C3354 1.409 . S
C3357 C3355 1.415 . S
C3358 H3348 0.930 . S
C3358 C3356 1.419 . S
C3358 C3359 1.362 . S
C3359 H3349 0.930 . S
C3359 C3352 1.409 . S
C3359 C3358 1.362 . S
H3360 C3366 0.930 . S
H3361 C3369 0.930 . S
H3362 C3370 0.930 . S
H3363 C3371 0.930 . S
H3364 C3374 0.930 . S
H3365 C3375 0.930 . S
C3366 H3360 0.930 . S
C3366 C3367 1.355 . S
C3366 C3368 1.415 . S
C3367 C3366 1.355 . S
C3367 C3369 1.419 . S
C3368 C3366 1.415 . S
C3368 C3373 1.425 . S
C3368 C3375 1.409 . S
C3369 H3361 0.930 . S
C3369 C3367 1.419 . S
C3369 C3370 1.362 . S
C3370 H3362 0.930 . S
C3370 C3369 1.362 . S
C3370 C3373 1.409 . S
C3371 H3363 0.930 . S
C3371 C3372 1.355 . S
C3371 C3373 1.415 . S
C3372 C3371 1.355 . S
C3372 C3374 1.419 . S
C3373 C3368 1.425 . S
C3373 C3370 1.409 . S
C3373 C3371 1.415 . S
C3374 H3364 0.930 . S
C3374 C3372 1.419 . S
C3374 C3375 1.362 . S
C3375 H3365 0.930 . S
C3375 C3368 1.409 . S
C3375 C3374 1.362 . S
H3376 C3382 0.930 . S
H3377 C3385 0.930 . S
H3378 C3386 0.930 . S
H3379 C3387 0.930 . S
H3380 C3390 0.930 . S
H3381 C3391 0.930 . S
C3382 H3376 0.930 . S
C3382 C3383 1.355 . S
C3382 C3384 1.415 . S
C3383 C3382 1.355 . S
C3383 C3385 1.419 . S
C3384 C3382 1.415 . S
C3384 C3389 1.425 . S
C3384 C3391 1.409 . S
C3385 H3377 0.930 . S
C3385 C3383 1.419 . S
C3385 C3386 1.362 . S
C3386 H3378 0.930 . S
C3386 C3385 1.362 . S
C3386 C3389 1.409 . S
C3387 H3379 0.930 . S
C3387 C3388 1.355 . S
C3387 C3389 1.415 . S
C3388 C3387 1.355 . S
C3388 C3390 1.419 . S
C3389 C3384 1.425 . S
C3389 C3386 1.409 . S
C3389 C3387 1.415 . S
C3390 H3380 0.930 . S
C3390 C3388 1.419 . S
C3390 C3391 1.362 . S
C3391 H3381 0.930 . S
C3391 C3384 1.409 . S
C3391 C3390 1.362 . S
H3392 C3398 0.930 . S
H3393 C3401 0.930 . S
H3394 C3402 0.930 . S
H3395 C3403 0.930 . S
H3396 C3406 0.930 . S
H3397 C3407 0.930 . S
C3398 H3392 0.930 . S
C3398 C3399 1.355 . S
C3398 C3400 1.415 . S
C3399 C3398 1.355 . S
C3399 C3401 1.419 . S
C3400 C3398 1.415 . S
C3400 C3405 1.425 . S
C3400 C3407 1.409 . S
C3401 H3393 0.930 . S
C3401 C3399 1.419 . S
C3401 C3402 1.362 . S
C3402 H3394 0.930 . S
C3402 C3401 1.362 . S
C3402 C3405 1.409 . S
C3403 H3395 0.930 . S
C3403 C3404 1.355 . S
C3403 C3405 1.415 . S
C3404 C3403 1.355 . S
C3404 C3406 1.419 . S
C3405 C3400 1.425 . S
C3405 C3402 1.409 . S
C3405 C3403 1.415 . S
C3406 H3396 0.930 . S
C3406 C3404 1.419 . S
C3406 C3407 1.362 . S
C3407 H3397 0.930 . S
C3407 C3400 1.409 . S
C3407 C3406 1.362 . S
H3408 C3414 0.930 . S
H3409 C3417 0.935 1_455 S
H3410 C3418 0.953 . S
H3411 C3419 0.955 . S
H3412 C3422 0.930 . S
H3413 C3423 0.930 . S
C3414 H3408 0.930 . S
C3414 C3415 1.355 . S
C3414 C3416 1.415 . S
C3415 C3414 1.355 . S
C3415 C3417 1.419 . S
C3416 C3414 1.415 . S
C3416 C3421 1.425 . S
C3416 C3423 1.409 . S
C3417 H3409 0.935 1_655 S
C3417 C3415 1.419 . S
C3417 C3418 1.324 1_655 S
C3418 H3410 0.953 . S
C3418 C3417 1.324 1_455 S
C3418 C3421 1.432 1_455 S
C3419 H3411 0.955 . S
C3419 C3420 1.373 1_455 S
C3419 C3421 1.377 1_455 S
C3420 C3419 1.373 1_655 S
C3420 C3422 1.419 . S
C3421 C3416 1.425 . S
C3421 C3418 1.432 1_655 S
C3421 C3419 1.377 1_655 S
C3422 H3412 0.930 . S
C3422 C3420 1.419 . S
C3422 C3423 1.362 . S
C3423 H3413 0.930 . S
C3423 C3416 1.409 . S
C3423 C3422 1.362 . S
H3424 C3430 0.930 . S
H3425 C3433 0.930 . S
H3426 C3434 0.930 . S
H3427 C3435 0.930 . S
H3428 C3438 0.930 . S
H3429 C3439 0.930 . S
C3430 H3424 0.930 . S
C3430 C3431 1.355 . S
C3430 C3432 1.415 . S
C3431 C3430 1.355 . S
C3431 C3433 1.419 . S
C3432 C3430 1.415 . S
C3432 C3437 1.425 . S
C3432 C3439 1.409 . S
C3433 H3425 0.930 . S
C3433 C3431 1.419 . S
C3433 C3434 1.362 . S
C3434 H3426 0.930 . S
C3434 C3433 1.362 . S
C3434 C3437 1.409 . S
C3435 H3427 0.930 . S
C3435 C3436 1.355 . S
C3435 C3437 1.415 . S
C3436 C3435 1.355 . S
C3436 C3438 1.419 . S
C3437 C3432 1.425 . S
C3437 C3434 1.409 . S
C3437 C3435 1.415 . S
C3438 H3428 0.930 . S
C3438 C3436 1.419 . S
C3438 C3439 1.362 . S
C3439 H3429 0.930 . S
C3439 C3432 1.409 . S
C3439 C3438 1.362 . S
H3440 C3446 0.930 . S
H3441 C3449 0.930 . S
H3442 C3450 0.930 . S
H3443 C3451 0.930 . S
H3444 C3454 0.930 . S
H3445 C3455 0.930 . S
C3446 H3440 0.930 . S
C3446 C3447 1.355 . S
C3446 C3448 1.415 . S
C3447 C3446 1.355 . S
C3447 C3449 1.419 1_545 S
C3448 C3446 1.415 . S
C3448 C3453 1.425 1_545 S
C3448 C3455 1.409 . S
C3449 H3441 0.930 . S
C3449 C3447 1.419 1_565 S
C3449 C3450 1.362 . S
C3450 H3442 0.930 . S
C3450 C3449 1.362 . S
C3450 C3453 1.409 . S
C3451 H3443 0.930 . S
C3451 C3452 1.355 1_565 S
C3451 C3453 1.415 . S
C3452 C3451 1.355 1_545 S
C3452 C3454 1.419 . S
C3453 C3448 1.425 1_565 S
C3453 C3450 1.409 . S
C3453 C3451 1.415 . S
C3454 H3444 0.930 . S
C3454 C3452 1.419 . S
C3454 C3455 1.362 . S
C3455 H3445 0.930 . S
C3455 C3448 1.409 . S
C3455 C3454 1.362 . S
C2311 C4 1.301 . S
C2316 C1307 1.127 1_655 S
C2327 C26 1.681 . S
C2332 C1447 1.047 . S
C2348 C1535 1.160 . S
C2343 C32 1.307 . S
C2359 C40 1.351 . S
C2364 C1675 0.931 1_565 S
C2375 C12 1.394 . S
C2380 C1789 1.170 . S
C2391 C18 1.608 . S
C2396 C1877 1.099 . S
C2407 C46 1.244 . S
C2412 C1763 0.967 . S
C2428 C1903 1.294 . S
C2423 C68 1.577 . S
C2444 C1649 1.130 1_545 S
C2439 C74 1.308 . S
C2455 C82 1.363 . S
C2460 C1561 0.998 . S
C2476 C1333 0.993 . S
C2471 C54 1.407 . S
C2487 C60 1.517 . S
C2492 C1421 1.389 . S
C2503 C88 1.704 . S
C2508 C1991 1.200 . S
C2519 C110 1.795 . S
C2524 C2131 1.020 . S
C2540 C2219 1.316 . S
C2535 C116 1.735 . S
C2551 C124 1.632 . S
C2556 C307 1.063 . S
C2567 C96 1.704 . S
C2572 C421 1.004 . S
C2583 C102 1.671 . S
C2588 C509 1.181 . S
C2599 C130 1.471 . S
C2604 C395 1.423 . S
C2615 C152 1.687 . S
C2620 C535 1.466 . S
C2636 C281 1.501 . S
C2631 C158 1.640 . S
C2652 C2245 1.447 . S
C2647 C166 1.664 . S
C2668 C2017 1.377 . S
C2663 C138 1.563 . S
C2684 C2105 1.463 . S
C2679 C144 1.604 . S
C2695 C172 1.576 . S
C2700 C623 1.082 . S
C2711 C194 1.809 . S
C2716 C763 1.112 . S
C2727 C200 1.696 . S
C2732 C851 1.194 . S
C2743 C208 1.748 . S
C2748 C991 1.135 . S
C2764 C1105 1.137 . S
C2759 C180 1.680 . S
C2780 C1193 1.283 . S
C2775 C186 1.701 . S
C2796 C1079 1.464 . S
C2791 C214 1.609 . S
C2812 C1219 1.499 . S
C2807 C236 1.677 . S
C2823 C242 1.565 . S
C2828 C965 1.511 . S
C2844 C877 1.270 . S
C2839 C250 1.526 . S
C2855 C222 1.619 . S
C2860 C649 1.410 . S
C2876 C737 1.526 . S
C2871 C228 1.577 . S
C2892 C263 1.004 . S
C2887 C5 1.572 . S
C2903 C25 1.679 . S
C2908 C377 0.917 . S
C2924 C481 1.184 . S
C2919 C33 1.621 . S
C2940 C595 1.072 . S
C2935 C39 1.572 . S
C2956 C719 1.011 . S
C2951 C11 1.792 . S
C2972 C823 1.224 . S
C2967 C19 1.361 1_556 S
C2983 C47 1.757 1_556 S
C2988 C833 1.559 . S
C2999 C67 1.799 . S
C3004 C605 1.501 . S
C3015 C75 1.723 1_556 S
C3020 C709 1.786 . S
C3031 C81 1.752 . S
C3036 C367 1.561 . S
C3052 C491 1.596 . S
C3047 C53 1.917 . S
C3063 C61 1.529 . S
C3068 C253 1.516 . S
C3084 C947 0.866 . S
C3079 C89 1.444 . S
C3095 C109 1.760 . S
C3100 C1061 0.909 . S
C3111 C117 1.431 . S
C3116 C1165 1.334 . S
C3132 C1279 0.968 . S
C3127 C123 1.074 . S
C3143 C95 1.581 . S
C3148 C1403 0.751 . S
C3159 C103 1.097 . S
C3164 C1507 1.054 . S
C3175 C131 1.239 . S
C3180 C1517 0.759 1_565 S
C3191 C151 1.259 . S
C3196 C1289 0.977 1_455 S
C3212 C1393 1.600 . S
C3207 C159 1.426 . S
C3223 C165 1.653 . S
C3228 C1051 1.521 . S
C3239 C137 1.855 . S
C3244 C1175 1.520 . S
C3260 C937 1.658 . S
C3255 C145 1.547 . S
C3276 C1631 0.680 . S
C3271 C173 1.191 . S
C3287 C193 1.164 . S
C3292 C1745 0.673 . S
C3303 C201 1.294 . S
C3308 C1849 1.181 . S
C3324 C1963 1.150 . S
C3319 C207 1.524 . S
C3340 C2087 1.046 . S
C3335 C179 1.761 . S
C3351 C187 1.487 . S
C3356 C2191 1.277 . S
C3367 C215 1.661 . S
C3372 C2201 1.446 . S
C3383 C235 1.884 . S
C3388 C1973 1.484 . S
C3404 C2077 1.688 . S
C3399 C243 1.567 . S
C3420 C1735 0.866 1_655 S
C3415 C249 1.079 . S
C3436 C1859 1.283 . S
C3431 C221 1.717 . S
C3447 C229 1.117 . S
C3452 C1621 1.021 1_545 S
