# Generated by pormake.
# Topology eea, (3,6)-cn, num edge types: 1
# Building blocks:
#     Node 0, Type 0, BuildingBlock: QEWDON_clean_linker_0, # of connection points: 3
#     Node 1, Type 0, BuildingBlock: QEWDON_clean_linker_0, # of connection points: 3
#     Node 2, Type 0, BuildingBlock: QEWDON_clean_linker_0, # of connection points: 3
#     Node 3, Type 0, BuildingBlock: QEWDON_clean_linker_0, # of connection points: 3
#     Node 4, Type 0, BuildingBlock: QEWDON_clean_linker_0, # of connection points: 3
#     Node 5, Type 0, BuildingBlock: QEWDON_clean_linker_0, # of connection points: 3
#     Node 6, Type 0, BuildingBlock: QEWDON_clean_linker_0, # of connection points: 3
#     Node 7, Type 0, BuildingBlock: QEWDON_clean_linker_0, # of connection points: 3
#     Node 8, Type 0, BuildingBlock: QEWDON_clean_linker_0, # of connection points: 3
#     Node 9, Type 0, BuildingBlock: QEWDON_clean_linker_0, # of connection points: 3
#     Node 10, Type 0, BuildingBlock: QEWDON_clean_linker_0, # of connection points: 3
#     Node 11, Type 0, BuildingBlock: QEWDON_clean_linker_0, # of connection points: 3
#     Node 12, Type 0, BuildingBlock: QEWDON_clean_linker_0, # of connection points: 3
#     Node 13, Type 0, BuildingBlock: QEWDON_clean_linker_0, # of connection points: 3
#     Node 14, Type 0, BuildingBlock: QEWDON_clean_linker_0, # of connection points: 3
#     Node 15, Type 0, BuildingBlock: QEWDON_clean_linker_0, # of connection points: 3
#     Node 16, Type 0, BuildingBlock: QEWDON_clean_linker_0, # of connection points: 3
#     Node 17, Type 0, BuildingBlock: QEWDON_clean_linker_0, # of connection points: 3
#     Node 18, Type 1, BuildingBlock: CUWYAW_clean_sbu_0, # of connection points: 6
#     Node 19, Type 1, BuildingBlock: CUWYAW_clean_sbu_0, # of connection points: 6
#     Node 20, Type 1, BuildingBlock: CUWYAW_clean_sbu_0, # of connection points: 6
#     Node 21, Type 1, BuildingBlock: CUWYAW_clean_sbu_0, # of connection points: 6
#     Node 22, Type 1, BuildingBlock: CUWYAW_clean_sbu_0, # of connection points: 6
#     Node 23, Type 1, BuildingBlock: CUWYAW_clean_sbu_0, # of connection points: 6
#     Node 24, Type 1, BuildingBlock: CUWYAW_clean_sbu_0, # of connection points: 6
#     Node 25, Type 1, BuildingBlock: CUWYAW_clean_sbu_0, # of connection points: 6
#     Node 26, Type 1, BuildingBlock: CUWYAW_clean_sbu_0, # of connection points: 6
#     Edge 27, Type (0, 1), BuildingBlock: CIFDUS_clean_linker_0, # of connection points: 2
#     Edge 28, Type (0, 1), BuildingBlock: CIFDUS_clean_linker_0, # of connection points: 2
#     Edge 29, Type (0, 1), BuildingBlock: CIFDUS_clean_linker_0, # of connection points: 2
#     Edge 30, Type (0, 1), BuildingBlock: CIFDUS_clean_linker_0, # of connection points: 2
#     Edge 31, Type (0, 1), BuildingBlock: CIFDUS_clean_linker_0, # of connection points: 2
#     Edge 32, Type (0, 1), BuildingBlock: CIFDUS_clean_linker_0, # of connection points: 2
#     Edge 33, Type (0, 1), BuildingBlock: CIFDUS_clean_linker_0, # of connection points: 2
#     Edge 34, Type (0, 1), BuildingBlock: CIFDUS_clean_linker_0, # of connection points: 2
#     Edge 35, Type (0, 1), BuildingBlock: CIFDUS_clean_linker_0, # of connection points: 2
#     Edge 36, Type (0, 1), BuildingBlock: CIFDUS_clean_linker_0, # of connection points: 2
#     Edge 37, Type (0, 1), BuildingBlock: CIFDUS_clean_linker_0, # of connection points: 2
#     Edge 38, Type (0, 1), BuildingBlock: CIFDUS_clean_linker_0, # of connection points: 2
#     Edge 39, Type (0, 1), BuildingBlock: CIFDUS_clean_linker_0, # of connection points: 2
#     Edge 40, Type (0, 1), BuildingBlock: CIFDUS_clean_linker_0, # of connection points: 2
#     Edge 41, Type (0, 1), BuildingBlock: CIFDUS_clean_linker_0, # of connection points: 2
#     Edge 42, Type (0, 1), BuildingBlock: CIFDUS_clean_linker_0, # of connection points: 2
#     Edge 43, Type (0, 1), BuildingBlock: CIFDUS_clean_linker_0, # of connection points: 2
#     Edge 44, Type (0, 1), BuildingBlock: CIFDUS_clean_linker_0, # of connection points: 2
#     Edge 45, Type (0, 1), BuildingBlock: CIFDUS_clean_linker_0, # of connection points: 2
#     Edge 46, Type (0, 1), BuildingBlock: CIFDUS_clean_linker_0, # of connection points: 2
#     Edge 47, Type (0, 1), BuildingBlock: CIFDUS_clean_linker_0, # of connection points: 2
#     Edge 48, Type (0, 1), BuildingBlock: CIFDUS_clean_linker_0, # of connection points: 2
#     Edge 49, Type (0, 1), BuildingBlock: CIFDUS_clean_linker_0, # of connection points: 2
#     Edge 50, Type (0, 1), BuildingBlock: CIFDUS_clean_linker_0, # of connection points: 2
#     Edge 51, Type (0, 1), BuildingBlock: CIFDUS_clean_linker_0, # of connection points: 2
#     Edge 52, Type (0, 1), BuildingBlock: CIFDUS_clean_linker_0, # of connection points: 2
#     Edge 53, Type (0, 1), BuildingBlock: CIFDUS_clean_linker_0, # of connection points: 2
#     Edge 54, Type (0, 1), BuildingBlock: CIFDUS_clean_linker_0, # of connection points: 2
#     Edge 55, Type (0, 1), BuildingBlock: CIFDUS_clean_linker_0, # of connection points: 2
#     Edge 56, Type (0, 1), BuildingBlock: CIFDUS_clean_linker_0, # of connection points: 2
#     Edge 57, Type (0, 1), BuildingBlock: CIFDUS_clean_linker_0, # of connection points: 2
#     Edge 58, Type (0, 1), BuildingBlock: CIFDUS_clean_linker_0, # of connection points: 2
#     Edge 59, Type (0, 1), BuildingBlock: CIFDUS_clean_linker_0, # of connection points: 2
#     Edge 60, Type (0, 1), BuildingBlock: CIFDUS_clean_linker_0, # of connection points: 2
#     Edge 61, Type (0, 1), BuildingBlock: CIFDUS_clean_linker_0, # of connection points: 2
#     Edge 62, Type (0, 1), BuildingBlock: CIFDUS_clean_linker_0, # of connection points: 2
#     Edge 63, Type (0, 1), BuildingBlock: CIFDUS_clean_linker_0, # of connection points: 2
#     Edge 64, Type (0, 1), BuildingBlock: CIFDUS_clean_linker_0, # of connection points: 2
#     Edge 65, Type (0, 1), BuildingBlock: CIFDUS_clean_linker_0, # of connection points: 2
#     Edge 66, Type (0, 1), BuildingBlock: CIFDUS_clean_linker_0, # of connection points: 2
#     Edge 67, Type (0, 1), BuildingBlock: CIFDUS_clean_linker_0, # of connection points: 2
#     Edge 68, Type (0, 1), BuildingBlock: CIFDUS_clean_linker_0, # of connection points: 2
#     Edge 69, Type (0, 1), BuildingBlock: CIFDUS_clean_linker_0, # of connection points: 2
#     Edge 70, Type (0, 1), BuildingBlock: CIFDUS_clean_linker_0, # of connection points: 2
#     Edge 71, Type (0, 1), BuildingBlock: CIFDUS_clean_linker_0, # of connection points: 2
#     Edge 72, Type (0, 1), BuildingBlock: CIFDUS_clean_linker_0, # of connection points: 2
#     Edge 73, Type (0, 1), BuildingBlock: CIFDUS_clean_linker_0, # of connection points: 2
#     Edge 74, Type (0, 1), BuildingBlock: CIFDUS_clean_linker_0, # of connection points: 2
#     Edge 75, Type (0, 1), BuildingBlock: CIFDUS_clean_linker_0, # of connection points: 2
#     Edge 76, Type (0, 1), BuildingBlock: CIFDUS_clean_linker_0, # of connection points: 2
#     Edge 77, Type (0, 1), BuildingBlock: CIFDUS_clean_linker_0, # of connection points: 2
#     Edge 78, Type (0, 1), BuildingBlock: CIFDUS_clean_linker_0, # of connection points: 2
#     Edge 79, Type (0, 1), BuildingBlock: CIFDUS_clean_linker_0, # of connection points: 2
#     Edge 80, Type (0, 1), BuildingBlock: CIFDUS_clean_linker_0, # of connection points: 2
# Relax obj value: 0.088
# Max RMSD: 0.267
# Mean RMSD: 0.185
data_MOF--net-eea--node1-CUWYAW_clean_sbu_0--node2-QEWDON_clean_linker_0--edge1-CIFDUS_clean_linker_0
_symmetry_space_group_name_H-M    P1
_symmetry_Int_Tables_number       1
_symmetry_cell_setting            triclinic
loop_
_symmetry_equiv_pos_as_xyz
'x, y, z'
_cell_length_a     51.113082
_cell_length_b     50.822561
_cell_length_c     61.106695
_cell_angle_alpha  93.153405
_cell_angle_beta   93.284545
_cell_angle_gamma 119.81202
loop_
_atom_site_label
_atom_site_type_symbol
_atom_site_fract_x
_atom_site_fract_y
_atom_site_fract_z
_atom_type_partial_charge
H0 H 0.24481 0.14007 0.41785 0.0
C1 C 0.23854 0.11743 0.41079 0.0
C2 C 0.23878 0.09616 0.42449 0.0
C3 C 0.23313 0.11058 0.38778 0.0
H4 H 0.232 0.05081 0.42545 0.0
C5 C 0.23219 0.06745 0.41499 0.0
C6 C 0.2266 0.06014 0.39212 0.0
C7 C 0.22685 0.08173 0.3786 0.0
C8 C 0.2389 0.13501 0.37324 0.0
H9 H 0.22357 0.07665 0.36085 0.0
C10 C 0.22401 0.15209 0.37469 0.0
C11 C 0.23119 0.17608 0.36124 0.0
C12 C 0.26078 0.1421 0.35823 0.0
H13 H 0.27271 0.12953 0.35696 0.0
C14 C 0.26802 0.1659 0.34508 0.0
H15 H 0.20702 0.14674 0.38614 0.0
C16 C 0.25344 0.18283 0.34659 0.0
H17 H 0.25916 0.2009 0.33593 0.0
H18 H 0.28501 0.17123 0.33365 0.0
H19 H 0.89825 0.10042 0.43157 0.0
C20 C 0.91616 0.12072 0.42565 0.0
C21 C 0.93251 0.14759 0.44001 0.0
C22 C 0.92329 0.11953 0.40394 0.0
H23 H 0.97048 0.1933 0.44394 0.0
C24 C 0.95676 0.17342 0.43241 0.0
C25 C 0.96406 0.1731 0.41048 0.0
C26 C 0.94612 0.14623 0.39628 0.0
C27 C 0.90954 0.08983 0.39 0.0
H28 H 0.95008 0.14562 0.37912 0.0
C29 C 0.87884 0.06695 0.3903 0.0
C30 C 0.86755 0.03822 0.37842 0.0
C31 C 0.92824 0.08349 0.37726 0.0
H32 H 0.95202 0.10005 0.37702 0.0
C33 C 0.91688 0.05531 0.36523 0.0
H34 H 0.86394 0.07122 0.39992 0.0
C35 C 0.88684 0.03277 0.36587 0.0
H36 H 0.87856 0.01095 0.35646 0.0
H37 H 0.93157 0.05077 0.35558 0.0
H38 H 0.91403 0.77397 0.43722 0.0
C39 C 0.89463 0.77268 0.42795 0.0
C40 C 0.86575 0.75677 0.43558 0.0
C41 C 0.89863 0.78791 0.40878 0.0
H42 H 0.81935 0.74574 0.43065 0.0
C43 C 0.84109 0.75656 0.42396 0.0
C44 C 0.84449 0.77158 0.40476 0.0
C45 C 0.87347 0.78695 0.39722 0.0
C46 C 0.92945 0.80899 0.40264 0.0
H47 H 0.87684 0.79889 0.38256 0.0
C48 C 0.94851 0.79868 0.39454 0.0
C49 C 0.97739 0.81992 0.38854 0.0
C50 C 0.93958 0.84034 0.40465 0.0
H51 H 0.92532 0.8487 0.4108 0.0
C52 C 0.96815 0.86121 0.39893 0.0
H53 H 0.94091 0.77455 0.39278 0.0
C54 C 0.98695 0.85112 0.39095 0.0
H55 H 0.00904 0.86775 0.38651 0.0
H56 H 0.97574 0.88533 0.40063 0.0
H57 H 0.13165 0.22161 0.57921 0.0
C58 C 0.1137 0.22369 0.58625 0.0
C59 C 0.10311 0.2416 0.57661 0.0
C60 C 0.09989 0.20678 0.60383 0.0
H61 H 0.07005 0.25626 0.57741 0.0
C62 C 0.07846 0.24269 0.58487 0.0
C63 C 0.06493 0.22676 0.60294 0.0
C64 C 0.07605 0.20918 0.61241 0.0
C65 C 0.10785 0.184 0.61153 0.0
H66 H 0.06525 0.19635 0.62601 0.0
C67 C 0.13816 0.19012 0.61398 0.0
C68 C 0.14451 0.16719 0.61968 0.0
C69 C 0.0844 0.15486 0.61522 0.0
H70 H 0.06091 0.14908 0.61304 0.0
C71 C 0.09078 0.13238 0.62107 0.0
H72 H 0.15661 0.21236 0.61125 0.0
C73 C 0.12056 0.13839 0.62317 0.0
H74 H 0.12497 0.12051 0.62763 0.0
H75 H 0.07248 0.11004 0.62374 0.0
H76 H 0.82996 0.92714 0.5968 0.0
C77 C 0.83052 0.90867 0.60446 0.0
C78 C 0.81679 0.87941 0.59294 0.0
C79 C 0.84648 0.91475 0.62526 0.0
H80 H 0.80889 0.83348 0.59396 0.0
C81 C 0.81838 0.85577 0.60295 0.0
C82 C 0.83424 0.86156 0.62389 0.0
C83 C 0.84755 0.8909 0.63499 0.0
C84 C 0.8655 0.94656 0.6356 0.0
H85 H 0.85971 0.89548 0.65115 0.0
C86 C 0.85456 0.96719 0.63692 0.0
C87 C 0.87374 0.99751 0.64616 0.0
C88 C 0.89567 0.95667 0.64363 0.0
H89 H 0.90491 0.94158 0.64247 0.0
C90 C 0.91452 0.98647 0.65288 0.0
H91 H 0.8314 0.95976 0.63077 0.0
C92 C 0.90371 0.00674 0.65416 0.0
H93 H 0.9188 0.0297 0.66172 0.0
H94 H 0.93766 0.99392 0.65904 0.0
H95 H 0.09107 0.89149 0.57804 0.0
C96 C 0.10879 0.91069 0.58863 0.0
C97 C 0.13837 0.92662 0.5821 0.0
C98 C 0.10135 0.92103 0.60779 0.0
H99 H 0.1833 0.96535 0.59013 0.0
C100 C 0.16073 0.95272 0.59535 0.0
C101 C 0.1539 0.96317 0.61484 0.0
C102 C 0.12415 0.94678 0.62096 0.0
C103 C 0.06913 0.90853 0.61219 0.0
H104 H 0.11829 0.95448 0.6358 0.0
C105 C 0.04934 0.87722 0.61418 0.0
C106 C 0.01873 0.86666 0.61776 0.0
C107 C 0.05792 0.92877 0.6139 0.0
H108 H 0.07251 0.9528 0.61225 0.0
C109 C 0.02775 0.91829 0.61732 0.0
H110 H 0.05763 0.86134 0.61297 0.0
C111 C 1.00827 0.88749 0.61918 0.0
H112 H 0.98493 0.87991 0.62199 0.0
H113 H 0.01942 0.93411 0.61851 0.0
H114 H 0.87447 0.45909 0.76548 0.0
C115 C 0.87275 0.43917 0.75659 0.0
C116 C 0.88629 0.42366 0.76619 0.0
C117 C 0.85588 0.42831 0.73589 0.0
H118 H 0.89197 0.38432 0.76223 0.0
C119 C 0.88305 0.39731 0.75454 0.0
C120 C 0.86685 0.3865 0.7336 0.0
C121 C 0.85375 0.40249 0.72436 0.0
C122 C 0.83766 0.44157 0.72711 0.0
H123 H 0.84133 0.39455 0.70816 0.0
C124 C 0.85002 0.47331 0.72632 0.0
C125 C 0.83207 0.48456 0.71699 0.0
C126 C 0.80712 0.42173 0.71921 0.0
H127 H 0.79685 0.39737 0.72 0.0
C128 C 0.78936 0.43298 0.71035 0.0
H129 H 0.87352 0.48895 0.73222 0.0
C130 C 0.80175 0.46413 0.7091 0.0
H131 H 0.78762 0.47238 0.70193 0.0
H132 H 0.76591 0.41745 0.70431 0.0
H133 H 0.56025 0.43858 0.75692 0.0
C134 C 0.57702 0.45906 0.75044 0.0
C135 C 0.59079 0.48709 0.7637 0.0
C136 C 0.58527 0.45703 0.72915 0.0
H137 H 0.62447 0.53504 0.7654 0.0
C138 C 0.6132 0.51351 0.75521 0.0
C139 C 0.62149 0.51207 0.73372 0.0
C140 C 0.60693 0.48386 0.72085 0.0
C141 C 0.57314 0.42682 0.71604 0.0
H142 H 0.61333 0.48265 0.70439 0.0
C143 C 0.5429 0.40283 0.71643 0.0
C144 C 0.53223 0.37487 0.70354 0.0
C145 C 0.59246 0.42174 0.7031 0.0
H146 H 0.61606 0.43893 0.70298 0.0
C147 C 0.5819 0.39419 0.69038 0.0
H148 H 0.52752 0.406 0.72625 0.0
C149 C 0.55203 0.37099 0.69048 0.0
H150 H 0.54449 0.34964 0.68062 0.0
H151 H 0.59704 0.39071 0.68051 0.0
H152 H 0.5878 0.1147 0.76522 0.0
C153 C 0.56893 0.11442 0.75593 0.0
C154 C 0.53953 0.0977 0.76259 0.0
C155 C 0.57425 0.13197 0.73791 0.0
H156 H 0.49289 0.08612 0.75619 0.0
C157 C 0.51546 0.09851 0.75088 0.0
C158 C 0.52035 0.11612 0.733 0.0
C159 C 0.5498 0.13251 0.72649 0.0
C160 C 0.6057 0.15349 0.73309 0.0
H161 H 0.55404 0.14693 0.71317 0.0
C162 C 0.62608 0.14365 0.72729 0.0
C163 C 0.65592 0.1652 0.72325 0.0
C164 C 0.61546 0.18477 0.73466 0.0
H165 H 0.6003 0.19286 0.73918 0.0
C166 C 0.64492 0.20598 0.73082 0.0
H167 H 0.61883 0.11959 0.72593 0.0
C168 C 0.66505 0.19633 0.72522 0.0
H169 H 0.68781 0.21323 0.72217 0.0
H170 H 0.6522 0.23002 0.73219 0.0
H171 H 0.79832 0.55985 0.91407 0.0
C172 C 0.78201 0.56303 0.92273 0.0
C173 C 0.77006 0.58045 0.91414 0.0
C174 C 0.77124 0.54762 0.94146 0.0
H175 H 0.73842 0.5964 0.91865 0.0
C176 C 0.74767 0.58292 0.92501 0.0
C177 C 0.73717 0.56814 0.94409 0.0
C178 C 0.74911 0.55054 0.95215 0.0
C179 C 0.78001 0.52533 0.94824 0.0
H180 H 0.74033 0.53806 0.96632 0.0
C181 C 0.81053 0.53391 0.95386 0.0
C182 C 0.81813 0.5119 0.95961 0.0
C183 C 0.75733 0.49475 0.94859 0.0
H184 H 0.73375 0.48765 0.94422 0.0
C185 C 0.76487 0.47296 0.95414 0.0
H186 H 0.82818 0.55747 0.95373 0.0
C187 C 0.79506 0.4814 0.95955 0.0
H188 H 0.80041 0.46414 0.96399 0.0
H189 H 0.74725 0.44943 0.95425 0.0
H190 H 0.43836 0.2434 0.94535 0.0
C191 C 0.44222 0.22558 0.95085 0.0
C192 C 0.43658 0.20086 0.93582 0.0
C193 C 0.45091 0.2266 0.9732 0.0
H194 H 0.43658 0.15821 0.9321 0.0
C195 C 0.4415 0.17774 0.94331 0.0
C196 C 0.45049 0.17861 0.96568 0.0
C197 C 0.4552 0.20315 0.9804 0.0
C198 C 0.45179 0.25001 0.98943 0.0
H199 H 0.46179 0.20373 0.99769 0.0
C200 C 0.46661 0.28118 0.98585 0.0
C201 C 0.46527 0.3025 1.00082 0.0
C202 C 0.43612 0.2407 0.00827 0.0
H203 H 0.42418 0.2169 0.0113 0.0
C204 C 0.43486 0.26182 0.02308 0.0
H205 H 0.47887 0.28877 0.97146 0.0
C206 C 0.44918 0.29249 0.01934 0.0
H207 H 0.44798 0.30855 0.03108 0.0
H208 H 0.42256 0.25435 0.03743 0.0
H209 H 0.76567 0.21865 0.91643 0.0
C210 C 0.78323 0.23753 0.92733 0.0
C211 C 0.81381 0.24993 0.92332 0.0
C212 C 0.77515 0.25037 0.94477 0.0
H213 H 0.85982 0.28383 0.93448 0.0
C214 C 0.83633 0.27466 0.93748 0.0
C215 C 0.8288 0.28837 0.95477 0.0
C216 C 0.79796 0.27589 0.95817 0.0
C217 C 0.74278 0.23965 0.94756 0.0
H218 H 0.79133 0.28652 0.97085 0.0
C219 C 0.72207 0.20904 0.95078 0.0
C220 C 0.69158 0.19997 0.95355 0.0
C221 C 0.73258 0.26072 0.94707 0.0
H222 H 0.74797 0.28426 0.9445 0.0
C223 C 0.70241 0.25162 0.9496 0.0
H224 H 0.72962 0.19257 0.95132 0.0
C225 C 0.68202 0.22147 0.9528 0.0
H226 H 0.65869 0.21489 0.95485 0.0
H227 H 0.6948 0.26803 0.94911 0.0
H228 H 0.5455 0.79583 0.09698 0.0
C229 C 0.54345 0.77686 0.08648 0.0
C230 C 0.55873 0.76165 0.09314 0.0
C231 C 0.52427 0.76686 0.06687 0.0
H232 H 0.56579 0.72398 0.08521 0.0
C233 C 0.55513 0.73656 0.07957 0.0
C234 C 0.53612 0.72625 0.05968 0.0
C235 C 0.52086 0.74183 0.05345 0.0
C236 C 0.50399 0.77927 0.0626 0.0
H237 H 0.50567 0.73414 0.03844 0.0
C238 C 0.51398 0.80711 0.05336 0.0
C239 C 0.49474 0.81948 0.05131 0.0
C240 C 0.4747 0.76378 0.0694 0.0
H241 H 0.46677 0.74242 0.07665 0.0
C242 C 0.45569 0.77603 0.06737 0.0
H243 H 0.53657 0.81917 0.04807 0.0
C244 C 0.46567 0.80379 0.05851 0.0
H245 H 0.45047 0.81283 0.05692 0.0
H246 H 0.43318 0.76402 0.07275 0.0
H247 H 0.23102 0.76473 0.09016 0.0
C248 C 0.24895 0.78595 0.08531 0.0
C249 C 0.26081 0.81298 0.09953 0.0
C250 C 0.26104 0.78568 0.06534 0.0
H251 H 0.29385 0.86111 0.10375 0.0
C252 C 0.28434 0.84029 0.09287 0.0
C253 C 0.29637 0.84063 0.07257 0.0
C254 C 0.28435 0.81314 0.05901 0.0
C255 C 0.25186 0.75639 0.05211 0.0
H256 H 0.29402 0.81277 0.04375 0.0
C257 C 0.22111 0.73362 0.04706 0.0
C258 C 0.21344 0.70663 0.03389 0.0
C259 C 0.27452 0.75116 0.04453 0.0
H260 H 0.29829 0.76781 0.04859 0.0
C261 C 0.26692 0.7243 0.03186 0.0
H262 H 0.20333 0.73726 0.05267 0.0
C263 C 0.23664 0.70227 0.02644 0.0
H264 H 0.23126 0.68162 0.01643 0.0
H265 H 0.28458 0.72057 0.02614 0.0
H266 H 0.25271 0.4473 0.10525 0.0
C267 C 0.23437 0.44703 0.09522 0.0
C268 C 0.20422 0.42868 0.10002 0.0
C269 C 0.24104 0.4662 0.07816 0.0
H270 H 0.15767 0.41613 0.09123 0.0
C271 C 0.18087 0.42957 0.08732 0.0
C272 C 0.18727 0.4488 0.07034 0.0
C273 C 0.21743 0.46685 0.06573 0.0
C274 C 0.2727 0.4895 0.0758 0.0
H275 H 0.2228 0.48272 0.05328 0.0
C276 C 0.29285 0.48212 0.06603 0.0
C277 C 0.32294 0.50515 0.06424 0.0
C278 C 0.28266 0.51983 0.08351 0.0
H279 H 0.26741 0.52586 0.091 0.0
C280 C 0.31236 0.54257 0.08177 0.0
H281 H 0.28524 0.45875 0.06 0.0
C282 C 0.3324 0.53534 0.07226 0.0
H283 H 0.35533 0.55347 0.07093 0.0
H284 H 0.31987 0.5659 0.08779 0.0
H285 H 0.45991 0.88387 0.24952 0.0
C286 C 0.44123 0.88566 0.25544 0.0
C287 C 0.42944 0.90118 0.24365 0.0
C288 C 0.42809 0.87115 0.27409 0.0
H289 H 0.39461 0.91358 0.24169 0.0
C290 C 0.40389 0.90176 0.25062 0.0
C291 C 0.39064 0.88782 0.26938 0.0
C292 C 0.40328 0.87317 0.2812 0.0
C293 C 0.43864 0.85211 0.28538 0.0
H294 H 0.39307 0.86253 0.29568 0.0
C295 C 0.46959 0.86019 0.28796 0.0
C296 C 0.47858 0.84193 0.29918 0.0
C297 C 0.41713 0.825 0.29353 0.0
H298 H 0.39315 0.81729 0.29119 0.0
C299 C 0.42604 0.80706 0.30455 0.0
H300 H 0.48668 0.88084 0.28184 0.0
C301 C 0.4565 0.81552 0.30751 0.0
H302 H 0.46284 0.80109 0.31605 0.0
H303 H 0.4092 0.78637 0.31076 0.0
H304 H 0.14378 0.58244 0.25937 0.0
C305 C 0.14402 0.56413 0.26749 0.0
C306 C 0.12969 0.53447 0.25653 0.0
C307 C 0.1609 0.57084 0.28801 0.0
H308 H 0.12228 0.48879 0.25789 0.0
C309 C 0.13232 0.51135 0.26652 0.0
C310 C 0.149 0.51764 0.28714 0.0
C311 C 0.16219 0.54717 0.29798 0.0
C312 C 0.18105 0.60298 0.29763 0.0
H313 H 0.17476 0.5522 0.31401 0.0
C314 C 0.17128 0.62462 0.29895 0.0
C315 C 0.19155 0.65498 0.30789 0.0
C316 C 0.21121 0.61225 0.30514 0.0
H317 H 0.21967 0.5965 0.30389 0.0
C318 C 0.23105 0.64196 0.31409 0.0
H319 H 0.1482 0.6179 0.2931 0.0
C320 C 0.22136 0.6631 0.31557 0.0
H321 H 0.23726 0.68588 0.32303 0.0
H322 H 0.25411 0.64865 0.31994 0.0
H323 H 0.42975 0.55448 0.24059 0.0
C324 C 0.44739 0.574 0.25096 0.0
C325 C 0.4763 0.59165 0.24361 0.0
C326 C 0.44048 0.58233 0.27117 0.0
H327 H 0.51997 0.63237 0.25104 0.0
C328 C 0.49833 0.61773 0.25709 0.0
C329 C 0.4919 0.6263 0.27754 0.0
C330 C 0.46291 0.60798 0.28448 0.0
C331 C 0.40851 0.56895 0.27604 0.0
H332 H 0.45712 0.61422 0.29995 0.0
C333 C 0.39262 0.54076 0.28508 0.0
C334 C 0.36204 0.52927 0.28916 0.0
C335 C 0.39378 0.58539 0.27143 0.0
H336 H 0.40565 0.60708 0.26456 0.0
C337 C 0.36367 0.57402 0.27547 0.0
H338 H 0.40379 0.52792 0.28873 0.0
C339 C 0.34787 0.54615 0.2842 0.0
H340 H 0.32444 0.53773 0.2872 0.0
H341 H 0.35252 0.58686 0.27179 0.0
C342 C 0.5196 0.02905 0.07579 0.0
Eu343 Eu 0.50826 0.02359 0.03298 0.0
C344 C 0.50691 0.01079 0.09441 0.0
C345 C 0.51873 0.02388 0.11602 0.0
C346 C 0.50605 0.00745 0.13395 0.0
C347 C 0.48116 0.97754 0.13061 0.0
C348 C 0.46963 0.96438 0.10884 0.0
C349 C 0.4824 0.98085 0.09094 0.0
C350 C 0.49429 0.05946 0.0097 0.0
C351 C 0.43835 0.96917 0.0182 0.0
C352 C 0.47501 0.99724 0.94131 0.0
Eu353 Eu 0.48693 1.00145 0.98392 0.0
C354 C 0.4889 0.01259 0.92173 0.0
C355 C 0.48865 0.99496 0.90314 0.0
C356 C 0.50042 0.00844 0.88401 0.0
C357 C 0.51263 0.03996 0.88294 0.0
C358 C 0.51338 0.05771 0.90178 0.0
C359 C 0.50165 0.04418 0.92097 0.0
C360 C 0.50026 0.96466 0.0064 0.0
C361 C 0.55732 0.0557 0.99918 0.0
O362 O 0.53258 0.01958 0.06204 0.0
O363 O 0.50271 0.03822 0.06573 0.0
O364 O 0.51583 0.06998 0.02562 0.0
O365 O 0.47975 0.03076 0.0078 0.0
O366 O 0.46169 0.98195 0.03346 0.0
O367 O 0.44142 0.9758 0.9975 0.0
O368 O 0.4668 0.01148 0.95543 0.0
O369 O 0.48712 0.98291 0.95089 0.0
O370 O 0.47964 0.95498 0.98987 0.0
O371 O 0.5148 0.99346 0.00919 0.0
O372 O 0.5345 0.04203 0.98348 0.0
O373 O 0.55376 0.04957 0.01992 0.0
H374 H 0.53755 0.04704 0.11905 0.0
H375 H 0.51528 0.01848 0.15044 0.0
H376 H 0.45075 0.9413 0.10561 0.0
H377 H 0.47299 0.97027 0.07442 0.0
H378 H 0.47906 0.97058 0.90335 0.0
H379 H 0.49991 0.9941 0.87002 0.0
H380 H 0.5223 0.08197 0.90155 0.0
H381 H 0.50218 0.05838 0.93505 0.0
C382 C 1.00357 0.51823 0.07409 0.0
Eu383 Eu 1.0051 0.50256 0.03297 0.0
C384 C 0.0194 0.52161 0.09602 0.0
C385 C 0.02224 0.49765 0.10405 0.0
C386 C 0.03542 0.50073 0.12547 0.0
C387 C 0.0462 0.52788 0.1393 0.0
C388 C 0.04408 0.55209 0.1309 0.0
C389 C 0.03074 0.54892 0.10956 0.0
C390 C 0.9663 0.44849 0.00983 0.0
C391 C 0.05485 0.48003 0.02889 0.0
C392 C 0.03168 0.48558 0.94737 0.0
Eu393 Eu 0.02467 0.49507 0.98848 0.0
C394 C 0.01521 0.47681 0.92528 0.0
C395 C 0.03187 0.48375 0.90695 0.0
C396 C 0.01715 0.47628 0.88569 0.0
C397 C 0.98535 0.46156 0.8823 0.0
C398 C 0.96866 0.4548 0.90081 0.0
C399 C 0.9835 0.46244 0.92216 0.0
C400 C 0.06331 0.54849 0.01287 0.0
C401 C 0.97038 0.51066 0.99189 0.0
O402 O 0.01881 0.5379 0.06029 0.0
O403 O 0.98661 0.4906 0.06447 0.0
O404 O 0.95795 0.4629 0.02332 0.0
O405 O 0.99489 0.46183 0.01036 0.0
O406 O 0.04311 0.49278 0.04142 0.0
O407 O 0.04842 0.47503 0.00732 0.0
O408 O 0.02309 0.46464 0.96115 0.0
O409 O 0.03817 0.51215 0.95671 0.0
O410 O 0.07161 0.53317 1.00036 0.0
O411 O 0.03477 0.53593 0.01103 0.0
O412 O 0.98186 0.49685 0.98024 0.0
O413 O 0.9795 0.51999 0.01297 0.0
H414 H 0.01382 0.47631 0.09397 0.0
H415 H 0.0364 0.48151 0.13137 0.0
H416 H 0.05268 0.57357 0.14083 0.0
H417 H 0.02894 0.56776 0.10371 0.0
H418 H 0.05639 0.49514 0.90909 0.0
H419 H 0.03078 0.4824 0.87191 0.0
H420 H 0.94415 0.44327 0.89882 0.0
H421 H 0.97027 0.45715 0.93617 0.0
C422 C 0.48875 0.49902 0.9395 0.0
Eu423 Eu 0.50866 0.52119 0.98039 0.0
C424 C 0.50301 0.50155 0.91867 0.0
C425 C 0.52765 0.52926 0.91388 0.0
C426 C 0.54078 0.53126 0.89406 0.0
C427 C 0.52981 0.50554 0.87869 0.0
C428 C 0.50544 0.47775 0.8837 0.0
C429 C 0.49216 0.47582 0.90344 0.0
C430 C 0.52654 0.57788 0.99825 0.0
C431 C 0.5826 0.54689 0.9849 0.0
C432 C 0.56625 0.55816 0.06648 0.0
Eu433 Eu 0.54441 0.53779 0.0255 0.0
C434 C 0.55577 0.56093 0.08814 0.0
C435 C 0.56607 0.55211 0.10656 0.0
C436 C 0.55768 0.55554 0.12745 0.0
C437 C 0.53885 0.56807 0.13052 0.0
C438 C 0.52802 0.57634 0.11191 0.0
C439 C 0.53639 0.57281 0.09094 0.0
C440 C 0.52303 0.47978 0.00754 0.0
C441 C 0.47154 0.51504 0.02133 0.0
O442 O 0.49426 0.48421 0.95425 0.0
O443 O 0.48961 0.52358 0.94823 0.0
O444 O 0.50129 0.56101 0.9859 0.0
O445 O 0.54243 0.56513 0.99921 0.0
O446 O 0.55611 0.53253 0.97284 0.0
O447 O 0.58484 0.55468 0.00616 0.0
O448 O 0.56533 0.57529 0.05157 0.0
O449 O 0.55816 0.53065 0.05814 0.0
O450 O 0.54954 0.49625 0.01842 0.0
O451 O 0.50898 0.49427 0.00731 0.0
O452 O 0.4985 0.53097 0.03265 0.0
O453 O 0.46849 0.50433 1.00052 0.0
H454 H 0.5368 0.54939 0.92546 0.0
H455 H 0.55976 0.5529 0.89087 0.0
H456 H 0.49625 0.45756 0.87217 0.0
H457 H 0.47329 0.45419 0.9068 0.0
H458 H 0.5809 0.54275 0.10481 0.0
H459 H 0.566 0.54833 0.14124 0.0
H460 H 0.51369 0.58627 0.1136 0.0
H461 H 0.528 0.57973 0.07701 0.0
C462 C 0.19741 0.35575 0.40481 0.0
Eu463 Eu 0.18046 0.35021 0.36293 0.0
C464 C 0.18274 0.34139 0.42449 0.0
C465 C 0.15489 0.33846 0.42928 0.0
C466 C 0.14141 0.3248 0.44796 0.0
C467 C 0.15526 0.31342 0.46222 0.0
C468 C 0.18304 0.31619 0.4572 0.0
C469 C 0.19663 0.33009 0.43861 0.0
C470 C 0.16225 0.3842 0.34146 0.0
C471 C 0.1089 0.29471 0.35405 0.0
C472 C 0.13518 0.31531 0.27452 0.0
Eu473 Eu 0.15177 0.32362 0.31663 0.0
C474 C 0.14742 0.33153 0.25498 0.0
C475 C 0.14588 0.31485 0.23543 0.0
C476 C 0.15774 0.32965 0.21675 0.0
C477 C 0.17129 0.36152 0.21718 0.0
C478 C 0.17299 0.37822 0.23694 0.0
C479 C 0.16129 0.36339 0.25567 0.0
C480 C 0.17293 0.29174 0.33838 0.0
C481 C 0.22212 0.38013 0.32471 0.0
O482 O 0.20109 0.33837 0.39016 0.0
O483 O 0.18876 0.37332 0.39581 0.0
O484 O 0.18618 0.39543 0.35547 0.0
O485 O 0.14752 0.35534 0.34051 0.0
O486 O 0.13334 0.31113 0.36806 0.0
O487 O 0.1092 0.29726 0.33272 0.0
O488 O 0.12581 0.32802 0.28895 0.0
O489 O 0.15035 0.3037 0.28374 0.0
O490 O 0.14788 0.27911 0.32549 0.0
O491 O 0.18609 0.32033 0.33847 0.0
O492 O 0.19647 0.36521 0.31175 0.0
O493 O 0.22324 0.3757 0.34582 0.0
H494 H 0.14348 0.34677 0.41863 0.0
H495 H 0.12025 0.32351 0.45133 0.0
H496 H 0.19416 0.30722 0.46745 0.0
H497 H 0.21798 0.33186 0.43519 0.0
H498 H 0.13559 0.2903 0.23462 0.0
H499 H 0.15652 0.31605 0.20204 0.0
H500 H 0.18293 0.40272 0.23787 0.0
H501 H 0.16304 0.37685 0.27065 0.0
C502 C 0.67141 0.83311 0.41388 0.0
Eu503 Eu 0.66992 0.82717 0.37101 0.0
C504 C 0.68961 0.83497 0.43433 0.0
C505 C 0.68947 0.80907 0.44153 0.0
C506 C 0.70465 0.81078 0.46186 0.0
C507 C 0.72032 0.83841 0.47544 0.0
C508 C 0.72082 0.86437 0.46802 0.0
C509 C 0.70557 0.86263 0.44777 0.0
C510 C 0.62971 0.77685 0.34422 0.0
C511 C 0.72121 0.81132 0.35582 0.0
C512 C 0.68271 0.82302 0.28079 0.0
Eu513 Eu 0.68265 0.82887 0.32341 0.0
C514 C 0.66429 0.81778 0.25992 0.0
C515 C 0.67906 0.83069 0.24145 0.0
C516 C 0.66258 0.82473 0.221 0.0
C517 C 0.63093 0.80559 0.2186 0.0
C518 C 0.61606 0.79323 0.23732 0.0
C519 C 0.63262 0.79928 0.25784 0.0
C520 C 0.72391 0.87848 0.34997 0.0
C521 C 0.63114 0.84451 0.33882 0.0
O522 O 0.68309 0.85624 0.40197 0.0
O523 O 0.65657 0.80691 0.40187 0.0
O524 O 0.62211 0.78886 0.36012 0.0
O525 O 0.65805 0.79105 0.34368 0.0
O526 O 0.71071 0.8204 0.37208 0.0
O527 O 0.7115 0.80936 0.33501 0.0
O528 O 0.67378 0.80023 0.29301 0.0
O529 O 0.69301 0.84931 0.29228 0.0
O530 O 0.73058 0.86608 0.33381 0.0
O531 O 0.69561 0.86536 0.3509 0.0
O532 O 0.64062 0.83409 0.32254 0.0
O533 O 0.64265 0.84813 0.35939 0.0
H534 H 0.67727 0.78732 0.43165 0.0
H535 H 0.70405 0.79044 0.46698 0.0
H536 H 0.73227 0.88591 0.47818 0.0
H537 H 0.70573 0.88286 0.44283 0.0
H538 H 0.70349 0.84513 0.24279 0.0
H539 H 0.67468 0.83508 0.20704 0.0
H540 H 0.59174 0.77824 0.23601 0.0
H541 H 0.62079 0.78913 0.27196 0.0
C542 C 0.15662 0.81923 0.27535 0.0
Eu543 Eu 0.1725 0.84185 0.31651 0.0
C544 C 0.17185 0.82189 0.25506 0.0
C545 C 0.19782 0.84916 0.25129 0.0
C546 C 0.21109 0.85166 0.23149 0.0
C547 C 0.19886 0.82684 0.21517 0.0
C548 C 0.17328 0.79938 0.21927 0.0
C549 C 0.15989 0.79699 0.23898 0.0
C550 C 0.18171 0.89653 0.33325 0.0
C551 C 0.24722 0.87481 0.32583 0.0
C552 C 0.21992 0.88158 0.40487 0.0
Eu553 Eu 0.203 0.86129 0.36334 0.0
C554 C 0.20825 0.88846 0.42475 0.0
C555 C 0.20953 0.87532 0.44411 0.0
C556 C 0.20015 0.88248 0.46351 0.0
C557 C 0.18942 0.90316 0.46406 0.0
C558 C 0.18771 0.91599 0.44454 0.0
C559 C 0.19695 0.90867 0.42507 0.0
C560 C 0.19448 0.80727 0.34549 0.0
C561 C 0.12941 0.83086 0.35453 0.0
O562 O 0.16214 0.80535 0.29083 0.0
O563 O 0.15615 0.84343 0.2832 0.0
O564 O 0.15846 0.87736 0.31983 0.0
O565 O 0.20021 0.88705 0.33614 0.0
O566 O 0.22237 0.85853 0.31209 0.0
O567 O 0.24589 0.88224 0.34664 0.0
O568 O 0.22543 0.89932 0.38894 0.0
O569 O 0.20783 0.85286 0.39759 0.0
O570 O 0.21851 0.82714 0.35791 0.0
O571 O 0.17551 0.81625 0.34357 0.0
O572 O 0.15477 0.84984 0.3669 0.0
O573 O 0.12982 0.82047 0.33426 0.0
H574 H 0.20768 0.86862 0.26355 0.0
H575 H 0.23101 0.87297 0.22898 0.0
H576 H 0.16315 0.77993 0.20699 0.0
H577 H 0.13992 0.77574 0.24156 0.0
H578 H 0.21828 0.85979 0.44432 0.0
H579 H 0.20215 0.87247 0.47826 0.0
H580 H 0.17923 0.93173 0.44431 0.0
H581 H 0.19555 0.91909 0.41038 0.0
C582 C 0.87464 0.6964 0.74553 0.0
Eu583 Eu 0.85343 0.69036 0.70451 0.0
C584 C 0.8646 0.6826 0.76622 0.0
C585 C 0.88057 0.69915 0.78626 0.0
C586 C 0.87141 0.68678 0.80618 0.0
C587 C 0.84592 0.65763 0.80646 0.0
C588 C 0.82984 0.6411 0.7863 0.0
C589 C 0.83922 0.65343 0.76632 0.0
C590 C 0.83869 0.72881 0.68542 0.0
C591 C 0.78018 0.6415 0.69791 0.0
C592 C 0.80299 0.66431 0.61703 0.0
Eu593 Eu 0.82119 0.66835 0.65851 0.0
C594 C 0.81611 0.67885 0.59696 0.0
C595 C 0.81519 0.66057 0.57853 0.0
C596 C 0.82693 0.67339 0.55921 0.0
C597 C 0.83967 0.70489 0.55767 0.0
C598 C 0.84099 0.7233 0.57632 0.0
C599 C 0.8294 0.71045 0.59576 0.0
C600 C 0.8351 0.62911 0.67705 0.0
C601 C 0.8944 0.7185 0.66593 0.0
O602 O 0.87757 0.67969 0.72985 0.0
O603 O 0.86217 0.71166 0.73812 0.0
O604 O 0.86368 0.73783 0.69781 0.0
O605 O 0.82213 0.70029 0.68458 0.0
O606 O 0.80625 0.6531 0.71032 0.0
O607 O 0.77922 0.64696 0.67699 0.0
O608 O 0.79928 0.68068 0.63253 0.0
O609 O 0.81284 0.6471 0.62493 0.0
O610 O 0.81077 0.62096 0.66412 0.0
O611 O 0.85236 0.65771 0.67841 0.0
O612 O 0.86852 0.70677 0.65324 0.0
O613 O 0.89508 0.71184 0.68644 0.0
H614 H 0.90016 0.72174 0.7865 0.0
H615 H 0.88407 0.70022 0.82142 0.0
H616 H 0.8103 0.61847 0.78595 0.0
H617 H 0.82677 0.6402 0.75099 0.0
H618 H 0.80527 0.63619 0.57906 0.0
H619 H 0.82605 0.6585 0.54546 0.0
H620 H 0.85032 0.74757 0.57578 0.0
H621 H 0.83063 0.72523 0.60973 0.0
C622 C 0.3368 0.18285 0.74479 0.0
Eu623 Eu 0.33468 0.16713 0.70304 0.0
C624 C 0.35116 0.18163 0.76612 0.0
C625 C 0.3336 0.17183 0.78392 0.0
C626 C 0.34666 0.17148 0.80455 0.0
C627 C 0.37775 0.18118 0.80795 0.0
C628 C 0.3952 0.19031 0.7899 0.0
C629 C 0.38203 0.19049 0.76918 0.0
C630 C 0.29396 0.11179 0.68198 0.0
C631 C 0.38351 0.14413 0.69655 0.0
C632 C 0.34703 0.13871 0.61661 0.0
Eu633 Eu 0.34766 0.15573 0.6578 0.0
C634 C 0.33449 0.13683 0.59389 0.0
C635 C 0.35415 0.14467 0.57728 0.0
C636 C 0.34299 0.14024 0.55523 0.0
C637 C 0.31184 0.12778 0.54927 0.0
C638 C 0.29223 0.12126 0.56598 0.0
C639 C 0.30347 0.12566 0.58818 0.0
C640 C 0.38872 0.21162 0.67831 0.0
C641 C 0.29941 0.17961 0.66486 0.0
O642 O 0.35446 0.20141 0.73126 0.0
O643 O 0.31576 0.15682 0.7347 0.0
O644 O 0.28656 0.12838 0.69408 0.0
O645 O 0.32237 0.12458 0.68206 0.0
O646 O 0.37365 0.15827 0.70954 0.0
O647 O 0.37376 0.13682 0.67544 0.0
O648 O 0.32895 0.12055 0.63013 0.0
O649 O 0.36637 0.16581 0.62611 0.0
O650 O 0.39532 0.19456 0.66603 0.0
O651 O 0.3603 0.19886 0.67861 0.0
O652 O 0.30793 0.16421 0.65169 0.0
O653 O 0.31069 0.18796 0.68564 0.0
H654 H 0.3097 0.16465 0.78191 0.0
H655 H 0.33233 0.16364 0.81788 0.0
H656 H 0.41921 0.1981 0.79189 0.0
H657 H 0.39608 0.19794 0.75566 0.0
H658 H 0.37815 0.15343 0.58134 0.0
H659 H 0.35871 0.14594 0.54276 0.0
H660 H 0.26811 0.11156 0.56184 0.0
H661 H 0.28787 0.11956 0.60076 0.0
C662 C 0.83535 0.16487 0.61599 0.0
Eu663 Eu 0.8521 0.18454 0.65753 0.0
C664 C 0.8507 0.16626 0.59599 0.0
C665 C 0.8783 0.19216 0.59275 0.0
C666 C 0.89196 0.19351 0.57331 0.0
C667 C 0.87843 0.16889 0.55683 0.0
C668 C 0.85118 0.14273 0.56039 0.0
C669 C 0.83743 0.14148 0.57977 0.0
C670 C 0.86404 0.23885 0.67725 0.0
C671 C 0.92651 0.21457 0.66597 0.0
C672 C 0.89936 0.21649 0.74604 0.0
Eu673 Eu 0.88311 0.19979 0.70411 0.0
C674 C 0.88484 0.21868 0.7658 0.0
C675 C 0.88542 0.20295 0.78382 0.0
C676 C 0.87161 0.20423 0.80264 0.0
C677 C 0.85709 0.22155 0.804 0.0
C678 C 0.85645 0.23723 0.78583 0.0
C679 C 0.87006 0.23572 0.76691 0.0
C680 C 0.87253 0.14638 0.68384 0.0
C681 C 0.80956 0.17296 0.69577 0.0
O682 O 0.83727 0.14817 0.63086 0.0
O683 O 0.83864 0.19059 0.62462 0.0
O684 O 0.84002 0.22125 0.6639 0.0
O685 O 0.88154 0.22802 0.67854 0.0
O686 O 0.90133 0.19943 0.65242 0.0
O687 O 0.92586 0.22115 0.68711 0.0
O688 O 0.90365 0.23572 0.73132 0.0
O689 O 0.8901 0.18892 0.73716 0.0
O690 O 0.89688 0.16484 0.69653 0.0
O691 O 0.85421 0.15629 0.68294 0.0
O692 O 0.83521 0.18928 0.70858 0.0
O693 O 0.8094 0.16398 0.675 0.0
H694 H 0.88918 0.21146 0.60515 0.0
H695 H 0.91314 0.2138 0.57117 0.0
H696 H 0.84006 0.1235 0.54794 0.0
H697 H 0.81621 0.12127 0.58197 0.0
H698 H 0.89649 0.18948 0.7833 0.0
H699 H 0.87213 0.19139 0.81605 0.0
H700 H 0.84586 0.25113 0.78632 0.0
H701 H 0.86907 0.24798 0.75323 0.0
H702 H 0.30757 0.86067 0.03144 0.0
H703 H 0.34628 0.88377 0.09921 0.0
H704 H 0.39236 0.92646 0.08845 0.0
H705 H 0.42298 0.95522 0.05971 0.0
H706 H 0.38597 0.93077 0.99162 0.0
H707 H 0.33805 0.89055 1.00263 0.0
C708 C 0.32607 0.87497 0.0439 0.0
C709 C 0.32323 0.86871 0.06617 0.0
C710 C 0.35298 0.89914 0.03751 0.0
C711 C 0.34738 0.88806 0.08203 0.0
C712 C 0.37398 0.91238 0.07585 0.0
C713 C 0.40456 0.94111 0.04718 0.0
C714 C 0.40841 0.94592 0.02478 0.0
C715 C 0.37722 0.9178 0.05361 0.0
C716 C 0.38385 0.92764 0.00895 0.0
C717 C 0.3564 0.90456 0.01525 0.0
H718 H 0.14419 0.45627 0.08887 0.0
H719 H 0.17602 0.44961 0.02611 0.0
H720 H 0.13694 0.45733 0.0075 0.0
H721 H 0.09461 0.46744 0.00932 0.0
H722 H 0.06423 0.47557 0.07254 0.0
H723 H 0.1016 0.46543 0.09065 0.0
C724 C 0.14229 0.45606 0.07108 0.0
C725 C 0.16281 0.45216 0.05886 0.0
C726 C 0.12005 0.46083 0.06058 0.0
C727 C 0.16052 0.45266 0.03587 0.0
C728 C 0.13816 0.457 0.02524 0.0
C729 C 0.09599 0.46672 0.02703 0.0
C730 C 0.07659 0.47224 0.03951 0.0
C731 C 0.11791 0.46132 0.03745 0.0
C732 C 0.07891 0.47151 0.0625 0.0
C733 C 0.10028 0.4657 0.0729 0.0
H734 H 0.57606 0.70596 0.05245 0.0
H735 H 0.48259 0.68169 0.03766 0.0
H736 H 0.47221 0.63478 0.01695 0.0
H737 H 0.48885 0.5998 1.00373 0.0
H738 H 0.58098 0.62139 0.02009 0.0
H739 H 0.59248 0.66982 0.03998 0.0
C740 C 0.55334 0.69036 0.04486 0.0
C741 C 0.53029 0.69783 0.04652 0.0
C742 C 0.54719 0.66277 0.03338 0.0
C743 C 0.50109 0.67725 0.03628 0.0
C744 C 0.49497 0.65012 0.02458 0.0
C745 C 0.51151 0.61515 0.01158 0.0
C746 C 0.5341 0.60716 0.01037 0.0
C747 C 0.51778 0.64262 0.02308 0.0
C748 C 0.56324 0.62709 0.02081 0.0
C749 C 0.56979 0.65476 0.03213 0.0
H750 H 0.8825 0.33426 0.94242 0.0
H751 H 0.82989 0.30656 0.99835 0.0
H752 H 0.86713 0.35367 0.01984 0.0
H753 H 0.9145 0.40329 0.02282 0.0
H754 H 0.96982 0.42783 0.96868 0.0
H755 H 0.93217 0.38091 0.94666 0.0
C756 C 0.87928 0.33786 0.95946 0.0
C757 C 0.85284 0.31651 0.96846 0.0
C758 C 0.90148 0.36453 0.97214 0.0
C759 C 0.84931 0.32262 0.99054 0.0
C760 C 0.87085 0.34953 1.00302 0.0
C761 C 0.91836 0.39816 0.00625 0.0
C762 C 0.94487 0.41895 0.99729 0.0
C763 C 0.8969 0.37075 0.99396 0.0
C764 C 0.94977 0.41204 0.97593 0.0
C765 C 0.92812 0.38528 0.96333 0.0
H766 H 0.68391 0.55948 0.92462 0.0
H767 H 0.73451 0.57845 0.98802 0.0
H768 H 0.69186 0.57539 0.00629 0.0
H769 H 0.63907 0.56439 1.00434 0.0
H770 H 0.58805 0.54369 0.9408 0.0
H771 H 0.63193 0.55065 0.92259 0.0
C772 C 0.68576 0.56346 0.94241 0.0
C773 C 0.71233 0.56918 0.95494 0.0
C774 C 0.66096 0.56116 0.95282 0.0
C775 C 0.71421 0.5738 0.97802 0.0
C776 C 0.68984 0.57207 0.98847 0.0
C777 C 0.63764 0.56171 0.98651 0.0
C778 C 0.61019 0.55342 0.97402 0.0
C779 C 0.66291 0.56529 0.97606 0.0
C780 C 0.60876 0.54989 0.9509 0.0
C781 C 0.6339 0.55388 0.94041 0.0
H782 H 0.48347 0.15311 0.95149 0.0
H783 H 0.42273 0.14695 0.99967 0.0
H784 H 0.42919 0.10788 0.01663 0.0
H785 H 0.45456 0.07761 0.01929 0.0
H786 H 0.51751 0.08547 0.97273 0.0
H787 H 0.50768 0.12126 0.95343 0.0
C788 C 0.47141 0.14287 0.96552 0.0
C789 C 0.45279 0.153 0.9744 0.0
C790 C 0.4757 0.12073 0.97549 0.0
C791 C 0.43742 0.13973 0.99269 0.0
C792 C 0.44107 0.11737 1.00238 0.0
C793 C 0.46573 0.08694 1.00474 0.0
C794 C 0.48632 0.07878 0.99713 0.0
C795 C 0.46051 0.10804 0.99417 0.0
C796 C 0.50119 0.09122 0.97855 0.0
C797 C 0.49569 0.11178 0.96764 0.0
H798 H 0.68398 0.17372 0.9919 0.0
H799 H 0.64743 0.15685 0.92408 0.0
H800 H 0.60345 0.109 0.93181 0.0
H801 H 0.57305 0.07494 0.95862 0.0
H802 H 0.60862 0.09267 0.02697 0.0
H803 H 0.65525 0.13691 0.01831 0.0
C804 C 0.66675 0.15902 0.97877 0.0
C805 C 0.66901 0.16839 0.9574 0.0
C806 C 0.64112 0.13195 0.98352 0.0
C807 C 0.64627 0.14971 0.94056 0.0
C808 C 0.62104 0.12254 0.94503 0.0
C809 C 0.59111 0.08818 0.97163 0.0
C810 C 0.58706 0.08045 0.99348 0.0
C811 C 0.61782 0.11385 0.96658 0.0
C812 C 0.61091 0.098 0.01002 0.0
C813 C 0.63765 0.12341 1.00509 0.0
H814 H 0.84987 0.4891 0.94059 0.0
H815 H 0.85669 0.55232 0.99356 0.0
H816 H 0.90575 0.55915 0.00795 0.0
H817 H 0.94439 0.54329 0.0071 0.0
H818 H 0.93714 0.4807 0.95312 0.0
H819 H 0.89085 0.47767 0.93747 0.0
C820 C 0.86242 0.50474 0.95508 0.0
C821 C 0.84981 0.52009 0.96611 0.0
C822 C 0.8904 0.50844 0.96319 0.0
C823 C 0.86616 0.54042 0.98479 0.0
C824 C 0.89405 0.54412 0.99308 0.0
C825 C 0.93284 0.52925 0.9918 0.0
C826 C 0.94418 0.51203 0.98149 0.0
C827 C 0.90606 0.52766 0.9827 0.0
C828 C 0.92904 0.49419 0.96152 0.0
C829 C 0.90242 0.49233 0.95252 0.0
H830 H 0.43935 0.33706 0.99515 0.0
H831 H 0.52581 0.34141 1.00035 0.0
H832 H 0.55188 0.3972 1.00174 0.0
H833 H 0.54975 0.44491 1.00489 0.0
H834 H 0.46282 0.43982 0.99827 0.0
H835 H 0.43723 0.38427 0.99383 0.0
C836 C 0.46389 0.3503 0.99618 0.0
C837 C 0.48074 0.33538 0.99773 0.0
C838 C 0.47858 0.38221 0.99693 0.0
C839 C 0.51248 0.35255 0.99901 0.0
C840 C 0.52733 0.3844 0.99997 0.0
C841 C 0.52523 0.43157 1.00223 0.0
C842 C 0.50818 0.44641 1.00224 0.0
C843 C 0.51061 0.39953 0.99948 0.0
C844 C 0.47645 0.42894 0.99849 0.0
C845 C 0.46178 0.39716 0.99599 0.0
H846 H 0.16916 0.6721 0.05985 0.0
H847 H 0.18716 0.68718 0.99226 0.0
H848 H 0.13942 0.64095 0.97962 0.0
H849 H 0.09663 0.59262 0.98784 0.0
H850 H 0.07839 0.57563 0.05505 0.0
H851 H 0.12169 0.62616 0.06792 0.0
C852 C 0.16207 0.66561 0.04239 0.0
C853 C 0.18161 0.68283 0.02696 0.0
C854 C 0.13474 0.63847 0.03523 0.0
C855 C 0.17246 0.67415 1.00437 0.0
C856 C 0.14526 0.64766 0.99716 0.0
C857 C 0.10173 0.60041 0.00527 0.0
C858 C 0.08443 0.58075 0.02051 0.0
C859 C 0.12683 0.62909 0.01242 0.0
C860 C 0.0912 0.59072 0.04305 0.0
C861 C 0.11614 0.61946 0.05038 0.0
H862 H 0.37836 0.51981 0.0822 0.0
H863 H 0.31721 0.47657 0.02337 0.0
H864 H 0.35733 0.47387 1.00479 0.0
H865 H 0.41158 0.48839 1.0045 0.0
H866 H 0.47149 0.53178 0.06427 0.0
H867 H 0.43027 0.52985 0.08307 0.0
C868 C 0.37375 0.50944 0.06538 0.0
C869 C 0.34506 0.49862 0.05409 0.0
C870 C 0.39688 0.50833 0.05485 0.0
C871 C 0.33916 0.48494 0.03241 0.0
C872 C 0.36217 0.48364 0.02175 0.0
C873 C 0.4155 0.49711 0.02168 0.0
C874 C 0.44488 0.51061 0.03273 0.0
C875 C 0.39141 0.49597 0.03265 0.0
C876 C 0.44938 0.5216 0.0551 0.0
C877 C 0.42574 0.52049 0.066 0.0
H878 H 0.50127 0.87225 0.07004 0.0
H879 H 0.50725 0.82975 0.00904 0.0
H880 H 0.51206 0.87273 0.98971 0.0
H881 H 0.50842 0.9194 0.98958 0.0
H882 H 0.50455 0.9629 0.05069 0.0
H883 H 0.50532 0.92289 0.07078 0.0
C884 C 0.50434 0.87287 0.05261 0.0
C885 C 0.50381 0.84799 0.04087 0.0
C886 C 0.50721 0.89768 0.0417 0.0
C887 C 0.50778 0.84881 0.01834 0.0
C888 C 0.51029 0.87324 0.0073 0.0
C889 C 0.50847 0.92038 0.00737 0.0
C890 C 0.50659 0.94406 0.0188 0.0
C891 C 0.50914 0.89735 0.0187 0.0
C892 C 0.50657 0.94521 0.04174 0.0
C893 C 0.50669 0.92213 0.05314 0.0
H894 H 0.99909 0.17285 0.37793 0.0
H895 H 0.99129 0.23465 0.42512 0.0
H896 H 0.03622 0.27723 0.41303 0.0
H897 H 0.07774 0.29746 0.38832 0.0
H898 H 0.07936 0.23593 0.33769 0.0
H899 H 0.03604 0.19297 0.3513 0.0
C900 C 1.00624 0.19554 0.3853 0.0
C901 C 0.9911 0.19989 0.40256 0.0
C902 C 0.03112 0.22027 0.37747 0.0
C903 C 1.00236 0.22991 0.41218 0.0
C904 C 0.02804 0.25455 0.40509 0.0
C905 C 0.06835 0.27463 0.38025 0.0
C906 C 0.08159 0.26975 0.36203 0.0
C907 C 0.04262 0.25004 0.38771 0.0
C908 C 0.06931 0.24018 0.35162 0.0
C909 C 0.04465 0.21562 0.35945 0.0
H910 H 0.84487 0.81834 0.38386 0.0
H911 H 0.78416 0.7273 0.40055 0.0
H912 H 0.74078 0.73142 0.38694 0.0
H913 H 0.71963 0.76192 0.37191 0.0
H914 H 0.78017 0.85047 0.35182 0.0
H915 H 0.824 0.84602 0.36465 0.0
C916 C 0.82228 0.79901 0.38409 0.0
C917 C 0.81814 0.77276 0.39374 0.0
C918 C 0.79725 0.80112 0.37563 0.0
C919 C 0.78834 0.74824 0.39395 0.0
C920 C 0.76337 0.75042 0.38598 0.0
C921 C 0.74247 0.77996 0.37012 0.0
C922 C 0.74691 0.80656 0.36115 0.0
C923 C 0.7675 0.77694 0.37712 0.0
C924 C 0.77642 0.82986 0.35878 0.0
C925 C 0.80142 0.82732 0.36613 0.0
H926 H 0.18228 0.01844 0.36151 0.0
H927 H 0.26268 0.03609 0.40139 0.0
H928 H 0.2565 0.98746 0.38653 0.0
H929 H 0.22809 0.93964 0.36213 0.0
H930 H 0.14622 0.92089 0.32372 0.0
H931 H 0.15328 0.97012 0.33775 0.0
C932 C 0.1985 0.01165 0.3668 0.0
C933 C 0.22286 0.03079 0.38251 0.0
C934 C 0.19457 0.98342 0.35841 0.0
C935 C 0.24358 0.02161 0.38943 0.0
C936 C 0.24012 0.99385 0.3809 0.0
C937 C 0.21175 0.94629 0.35696 0.0
C938 C 0.18667 0.9266 0.34196 0.0
C939 C 0.21564 0.97449 0.36543 0.0
C940 C 0.16576 0.93563 0.33527 0.0
C941 C 0.16975 0.9638 0.34329 0.0
H942 H 0.55413 0.65337 0.28286 0.0
H943 H 0.48069 0.66612 0.30181 0.0
H944 H 0.5165 0.71282 0.32421 0.0
H945 H 0.56867 0.75044 0.33869 0.0
H946 H 0.64268 0.74059 0.3177 0.0
H947 H 0.60679 0.69299 0.29543 0.0
C948 C 0.54587 0.66645 0.29166 0.0
C949 C 0.51442 0.65552 0.29084 0.0
C950 C 0.56678 0.69406 0.30412 0.0
C951 C 0.50448 0.67304 0.30258 0.0
C952 C 0.52504 0.70011 0.31527 0.0
C953 C 0.57691 0.73785 0.32923 0.0
C954 C 0.60821 0.7488 0.33 0.0
C955 C 0.5562 0.71077 0.31627 0.0
C956 C 0.61864 0.73253 0.31742 0.0
C957 C 0.59812 0.70529 0.30473 0.0
H958 H 0.37925 0.90102 0.31047 0.0
H959 H 0.33898 0.8727 0.24332 0.0
H960 H 0.29155 0.86757 0.25448 0.0
H961 H 0.26056 0.86845 0.28372 0.0
H962 H 0.30145 0.89788 0.35081 0.0
H963 H 0.34936 0.90533 0.33927 0.0
C964 C 0.36011 0.89383 0.29829 0.0
C965 C 0.36266 0.88711 0.2761 0.0
C966 C 0.3329 0.89105 0.30482 0.0
C967 C 0.33774 0.8782 0.26047 0.0
C968 C 0.31053 0.87511 0.26687 0.0
C969 C 0.28001 0.87679 0.29581 0.0
C970 C 0.27717 0.88246 0.31817 0.0
C971 C 0.30771 0.88112 0.28905 0.0
C972 C 0.30279 0.89336 0.33351 0.0
C973 C 0.33028 0.89752 0.32693 0.0
H974 H 0.11067 0.45572 0.28879 0.0
H975 H 0.20303 0.52802 0.30622 0.0
H976 H 0.21479 0.4931 0.32396 0.0
H977 H 0.19908 0.44295 0.33585 0.0
H978 H 0.10804 0.36896 0.3179 0.0
H979 H 0.09569 0.40335 0.29875 0.0
C980 C 0.1334 0.46373 0.29632 0.0
C981 C 0.15566 0.49482 0.29662 0.0
C982 C 0.14029 0.44323 0.30643 0.0
C983 C 0.18509 0.50461 0.30634 0.0
C984 C 0.19199 0.48457 0.31637 0.0
C985 C 0.17648 0.43427 0.32774 0.0
C986 C 0.15437 0.40359 0.32856 0.0
C987 C 0.16973 0.45402 0.3168 0.0
C988 C 0.1254 0.39257 0.31762 0.0
C989 C 0.11837 0.41226 0.30672 0.0
H990 H 0.31466 0.47883 0.26809 0.0
H991 H 0.36745 0.51455 0.33094 0.0
H992 H 0.32968 0.47005 0.34784 0.0
H993 H 0.27839 0.4236 0.34521 0.0
H994 H 0.22669 0.38936 0.28145 0.0
H995 H 0.26704 0.43029 0.2646 0.0
C996 C 0.31823 0.47637 0.28537 0.0
C997 C 0.34378 0.49966 0.29825 0.0
C998 C 0.29625 0.45115 0.29493 0.0
C999 C 0.3481 0.49659 0.32067 0.0
C1000 C 0.32633 0.47133 0.33035 0.0
C1001 C 0.27618 0.42487 0.32761 0.0
C1002 C 0.24913 0.40348 0.31481 0.0
C1003 C 0.29979 0.44883 0.31775 0.0
C1004 C 0.24687 0.40554 0.29194 0.0
C1005 C 0.27005 0.42901 0.28215 0.0
H1006 H 0.51232 0.85364 0.33787 0.0
H1007 H 0.51587 0.84522 0.26778 0.0
H1008 H 0.5646 0.84673 0.27358 0.0
H1009 H 0.60374 0.84548 0.29891 0.0
H1010 H 0.59949 0.85491 0.36912 0.0
H1011 H 0.55381 0.85809 0.36295 0.0
C1012 C 0.52416 0.85282 0.32389 0.0
C1013 C 0.51066 0.84939 0.30245 0.0
C1014 C 0.55191 0.85347 0.32739 0.0
C1015 C 0.52605 0.84822 0.28443 0.0
C1016 C 0.55374 0.84876 0.28777 0.0
C1017 C 0.59301 0.84857 0.31285 0.0
C1018 C 0.60508 0.84963 0.33447 0.0
C1019 C 0.56653 0.85059 0.30921 0.0
C1020 C 0.59088 0.85389 0.3523 0.0
C1021 C 0.5646 0.85568 0.34881 0.0
H1022 H 0.22338 0.71362 0.29852 0.0
H1023 H 0.13943 0.64967 0.32282 0.0
H1024 H 0.13022 0.69134 0.33371 0.0
H1025 H 0.15021 0.74717 0.34138 0.0
H1026 H 0.23715 0.81014 0.32049 0.0
H1027 H 0.24111 0.76799 0.30328 0.0
C1028 C 0.20289 0.70872 0.30602 0.0
C1029 C 0.18241 0.67862 0.3102 0.0
C1030 C 0.19849 0.73284 0.31309 0.0
C1031 C 0.1556 0.67259 0.31941 0.0
C1032 C 0.15049 0.6965 0.32585 0.0
C1033 C 0.16959 0.75148 0.33259 0.0
C1034 C 0.19336 0.78162 0.3321 0.0
C1035 C 0.17234 0.72688 0.32352 0.0
C1036 C 0.21863 0.7871 0.32103 0.0
C1037 C 0.22094 0.763 0.31125 0.0
H1038 H 0.84909 0.98259 0.39181 0.0
H1039 H 0.81539 0.03768 0.36471 0.0
H1040 H 0.76469 0.99256 0.35676 0.0
H1041 H 0.73269 0.93603 0.35185 0.0
H1042 H 0.76815 0.88168 0.37771 0.0
H1043 H 0.81516 0.92765 0.39218 0.0
C1044 C 0.83038 0.98476 0.38471 0.0
C1045 C 0.83584 0.01322 0.37869 0.0
C1046 C 0.80167 0.95871 0.3798 0.0
C1047 C 0.81157 0.01595 0.36953 0.0
C1048 C 0.7827 0.99011 0.36483 0.0
C1049 C 0.75034 0.93446 0.36138 0.0
C1050 C 0.74715 0.90568 0.36383 0.0
C1051 C 0.77778 0.96115 0.3691 0.0
C1052 C 0.77028 0.90368 0.37572 0.0
C1053 C 0.79719 0.92995 0.38387 0.0
H1054 H 0.02715 0.82503 0.41031 0.0
H1055 H 0.976 0.79715 0.34671 0.0
H1056 H 0.01778 0.79512 0.33019 0.0
H1057 H 0.07175 0.80771 0.33339 0.0
H1058 H 0.12205 0.83655 0.3977 0.0
H1059 H 0.078 0.83153 0.41426 0.0
C1060 C 0.02486 0.81756 0.39297 0.0
C1061 C 0.9985 0.81082 0.37977 0.0
C1062 C 0.04917 0.81716 0.3836 0.0
C1063 C 0.99593 0.80185 0.35723 0.0
C1064 C 0.01997 0.80106 0.34777 0.0
C1065 C 0.07285 0.81232 0.35105 0.0
C1066 C 0.1005 0.82296 0.36413 0.0
C1067 C 0.04716 0.80961 0.36068 0.0
C1068 C 0.10138 0.82881 0.38706 0.0
C1069 C 0.0761 0.8259 0.39666 0.0
H1070 H 0.25591 0.23752 0.36592 0.0
H1071 H 0.17015 0.15374 0.35607 0.0
H1072 H 0.14398 0.18236 0.34936 0.0
H1073 H 0.14629 0.23102 0.34264 0.0
H1074 H 0.23217 0.31478 0.35335 0.0
H1075 H 0.25749 0.28649 0.36344 0.0
C1076 C 0.23143 0.22562 0.36264 0.0
C1077 C 0.21496 0.19357 0.36133 0.0
C1078 C 0.21664 0.24222 0.3587 0.0
C1079 C 0.18326 0.17839 0.35728 0.0
C1080 C 0.16835 0.19474 0.35325 0.0
C1081 C 0.1705 0.24305 0.3474 0.0
C1082 C 0.18743 0.27488 0.34691 0.0
C1083 C 0.1849 0.22661 0.35333 0.0
C1084 C 0.21869 0.29027 0.35344 0.0
C1085 C 0.23319 0.2741 0.35917 0.0
H1086 H 0.67726 0.55301 0.75456 0.0
H1087 H 0.62292 0.53135 0.69253 0.0
H1088 H 0.66654 0.57001 0.67599 0.0
H1089 H 0.72141 0.60769 0.67837 0.0
H1090 H 0.77507 0.62923 0.74083 0.0
H1091 H 0.73076 0.59338 0.75774 0.0
C1092 C 0.67475 0.55719 0.73756 0.0
C1093 C 0.64679 0.53904 0.72483 0.0
C1094 C 0.70008 0.57933 0.72803 0.0
C1095 C 0.64422 0.54466 0.70271 0.0
C1096 C 0.66921 0.5668 0.69319 0.0
C1097 C 0.72338 0.60474 0.69571 0.0
C1098 C 0.7519 0.62104 0.70809 0.0
C1099 C 0.6975 0.58387 0.70555 0.0
C1100 C 0.75373 0.61686 0.73064 0.0
C1101 C 0.72825 0.59632 0.74045 0.0
H1102 H 0.47943 0.12569 0.75323 0.0
H1103 H 0.50499 0.11424 0.6889 0.0
H1104 H 0.46416 0.12053 0.67172 0.0
H1105 H 0.42159 0.13033 0.67514 0.0
H1106 H 0.39768 0.14305 0.73994 0.0
H1107 H 0.43705 0.13478 0.75665 0.0
C1108 C 0.47584 0.12415 0.73542 0.0
C1109 C 0.49514 0.11927 0.72238 0.0
C1110 C 0.45252 0.12801 0.72571 0.0
C1111 C 0.49056 0.11809 0.69934 0.0
C1112 C 0.46714 0.12158 0.68952 0.0
C1113 C 0.42483 0.13101 0.6929 0.0
C1114 C 0.40657 0.13726 0.70621 0.0
C1115 C 0.44801 0.12668 0.70254 0.0
C1116 C 0.41136 0.13838 0.72923 0.0
C1117 C 0.43393 0.13365 0.73886 0.0
H1118 H 0.9071 0.36575 0.73123 0.0
H1119 H 0.81511 0.34146 0.71009 0.0
H1120 H 0.80659 0.29434 0.6907 0.0
H1121 H 0.82485 0.25969 0.67973 0.0
H1122 H 0.91589 0.28225 0.70172 0.0
H1123 H 0.92497 0.32999 0.72114 0.0
C1124 C 0.88511 0.35005 0.72254 0.0
C1125 C 0.86195 0.35753 0.72197 0.0
C1126 C 0.88012 0.32256 0.71163 0.0
C1127 C 0.83366 0.33686 0.71043 0.0
C1128 C 0.82863 0.30969 0.69946 0.0
C1129 C 0.84671 0.2751 0.68874 0.0
C1130 C 0.86972 0.26757 0.68922 0.0
C1131 C 0.85168 0.30234 0.69989 0.0
C1132 C 0.89783 0.28758 0.70112 0.0
C1133 C 0.90302 0.31488 0.71219 0.0
H1134 H 0.21518 0.98553 0.62386 0.0
H1135 H 0.14497 0.00707 0.6352 0.0
H1136 H 0.18163 0.05387 0.65724 0.0
H1137 H 0.23364 0.0892 0.67333 0.0
H1138 H 0.30479 0.06992 0.66059 0.0
H1139 H 0.26797 0.0222 0.63882 0.0
C1140 C 0.20788 1.00053 0.63097 0.0
C1141 C 0.17702 0.99221 0.62803 0.0
C1142 C 0.22934 0.028 0.64339 0.0
C1143 C 0.16822 0.01214 0.63758 0.0
C1144 C 0.18929 0.03919 0.65008 0.0
C1145 C 0.24107 0.07449 0.66584 0.0
C1146 C 0.27185 0.08295 0.66871 0.0
C1147 C 0.21985 0.04731 0.65318 0.0
C1148 C 0.28119 0.06386 0.65868 0.0
C1149 C 0.26013 0.03657 0.64623 0.0
H1150 H 0.0555 0.23629 0.64546 0.0
H1151 H 0.01368 0.21691 0.57883 0.0
H1152 H 0.96772 0.21284 0.59225 0.0
H1153 H 0.93842 0.2121 0.62307 0.0
H1154 H 0.98074 0.23271 0.68973 0.0
H1155 H 0.02738 0.23914 0.67616 0.0
C1156 C 0.03636 0.23132 0.63389 0.0
C1157 C 0.03801 0.22679 0.61117 0.0
C1158 C 0.01003 0.22919 0.64174 0.0
C1159 C 0.01312 0.22071 0.59637 0.0
C1160 C 0.98676 0.21822 0.60405 0.0
C1161 C 0.95791 0.2183 0.63466 0.0
C1162 C 0.95588 0.2218 0.65745 0.0
C1163 C 0.98481 0.22206 0.62672 0.0
C1164 C 0.98154 0.22996 0.67213 0.0
C1165 C 1.00825 0.23351 0.66437 0.0
H1166 H 0.79323 0.80165 0.62859 0.0
H1167 H 0.888 0.86948 0.64115 0.0
H1168 H 0.89766 0.83438 0.6609 0.0
H1169 H 0.87908 0.78556 0.67638 0.0
H1170 H 0.78484 0.71664 0.66382 0.0
H1171 H 0.77507 0.75074 0.64226 0.0
C1172 C 0.81599 0.80852 0.63545 0.0
C1173 C 0.83974 0.83835 0.63374 0.0
C1174 C 0.82146 0.78812 0.64696 0.0
C1175 C 0.86919 0.8469 0.64264 0.0
C1176 C 0.87478 0.82682 0.65391 0.0
C1177 C 0.85638 0.77802 0.66896 0.0
C1178 C 0.83263 0.74884 0.67191 0.0
C1179 C 0.85103 0.79763 0.65656 0.0
C1180 C 0.80346 0.73913 0.66186 0.0
C1181 C 0.79788 0.75862 0.64954 0.0
H1182 H 0.01942 0.83397 0.65136 0.0
H1183 H 0.96805 0.82799 0.59105 0.0
H1184 H 0.92573 0.77952 0.59956 0.0
H1185 H 0.90111 0.74232 0.62624 0.0
H1186 H 0.9516 0.74933 0.68753 0.0
H1187 H 0.99632 0.79351 0.67653 0.0
C1188 C 0.9993 0.82148 0.63982 0.0
C1189 C 0.99691 0.8343 0.62051 0.0
C1190 C 0.97464 0.79404 0.64519 0.0
C1191 C 0.97046 0.81833 0.60589 0.0
C1192 C 0.94617 0.79078 0.61085 0.0
C1193 C 0.92201 0.75314 0.63708 0.0
C1194 C 0.92273 0.7425 0.65781 0.0
C1195 C 0.94762 0.77891 0.6308 0.0
C1196 C 0.95016 0.75698 0.67154 0.0
C1197 C 0.97583 0.78236 0.66527 0.0
H1198 H 0.19042 0.20459 0.65078 0.0
H1199 H 0.16761 0.13959 0.59455 0.0
H1200 H 0.21535 0.13997 0.6022 0.0
H1201 H 0.26087 0.15454 0.62719 0.0
H1202 H 0.28228 0.21739 0.68478 0.0
H1203 H 0.23821 0.22226 0.67429 0.0
C1204 C 0.19639 0.19118 0.63994 0.0
C1205 C 0.17578 0.17229 0.62204 0.0
C1206 C 0.22348 0.19078 0.64488 0.0
C1207 C 0.18334 0.15446 0.60833 0.0
C1208 C 0.21051 0.15454 0.61278 0.0
C1209 C 0.25621 0.1697 0.63726 0.0
C1210 C 0.27486 0.18541 0.65683 0.0
C1211 C 0.23039 0.17196 0.63137 0.0
C1212 C 0.26827 0.20482 0.66971 0.0
C1213 C 0.24301 0.20764 0.66373 0.0
H1214 H 0.90215 0.05521 0.63489 0.0
H1215 H 0.82197 0.99022 0.66273 0.0
H1216 H 0.81105 0.03069 0.67371 0.0
H1217 H 0.82942 0.08617 0.68079 0.0
H1218 H 0.91251 0.1505 0.6557 0.0
H1219 H 0.91709 0.109 0.63806 0.0
C1220 C 0.88201 0.04984 0.64305 0.0
C1221 C 0.86317 0.01993 0.64832 0.0
C1222 C 0.87657 0.0733 0.64996 0.0
C1223 C 0.83684 0.01311 0.65852 0.0
C1224 C 0.83076 0.03631 0.66497 0.0
C1225 C 0.84793 0.09087 0.67087 0.0
C1226 C 0.87052 0.12121 0.66937 0.0
C1227 C 0.85115 0.06672 0.66156 0.0
C1228 C 0.8948 0.12728 0.65691 0.0
C1229 C 0.89753 0.10356 0.64695 0.0
H1230 H 0.49145 0.34423 0.66839 0.0
H1231 H 0.50354 0.34663 0.73892 0.0
H1232 H 0.45697 0.29695 0.73789 0.0
H1233 H 0.4169 0.24949 0.716 0.0
H1234 H 0.40694 0.24758 0.64535 0.0
H1235 H 0.44822 0.30033 0.64723 0.0
C1236 C 0.48346 0.33414 0.68356 0.0
C1237 C 0.50092 0.34886 0.70367 0.0
C1238 C 0.45715 0.30546 0.68274 0.0
C1239 C 0.49035 0.33573 0.72326 0.0
C1240 C 0.46389 0.30721 0.72263 0.0
C1241 C 0.42334 0.26106 0.70116 0.0
C1242 C 0.40902 0.24491 0.68056 0.0
C1243 C 0.44766 0.29135 0.70237 0.0
C1244 C 0.41769 0.25976 0.66135 0.0
C1245 C 0.44136 0.28983 0.66242 0.0
H1246 H 0.70822 0.17879 0.7464 0.0
H1247 H 0.65433 0.13364 0.68501 0.0
H1248 H 0.69661 0.1298 0.67109 0.0
H1249 H 0.75114 0.1447 0.6752 0.0
H1250 H 0.8038 0.18966 0.73745 0.0
H1251 H 0.76 0.18795 0.75211 0.0
C1252 C 0.70555 0.16741 0.73019 0.0
C1253 C 0.67827 0.15638 0.71677 0.0
C1254 C 0.72999 0.16567 0.72229 0.0
C1255 C 0.67505 0.14193 0.69572 0.0
C1256 C 0.69934 0.14005 0.6877 0.0
C1257 C 0.7529 0.1537 0.69206 0.0
C1258 C 0.78109 0.16767 0.70498 0.0
C1259 C 0.72729 0.15265 0.70063 0.0
C1260 C 0.78271 0.17904 0.72689 0.0
C1261 C 0.75757 0.1781 0.7354 0.0
H1262 H 0.8431 0.51092 0.67919 0.0
H1263 H 0.84558 0.5304 0.74893 0.0
H1264 H 0.85162 0.58052 0.74307 0.0
H1265 H 0.84773 0.61488 0.71719 0.0
H1266 H 0.8422 0.59281 0.64737 0.0
H1267 H 0.84635 0.54802 0.654 0.0
C1268 C 0.846 0.52665 0.69311 0.0
C1269 C 0.84412 0.51728 0.71443 0.0
C1270 C 0.84857 0.55484 0.6895 0.0
C1271 C 0.8474 0.53745 0.73241 0.0
C1272 C 0.85051 0.56592 0.72901 0.0
C1273 C 0.84849 0.60075 0.70356 0.0
C1274 C 0.84489 0.60706 0.68183 0.0
C1275 C 0.84996 0.57438 0.70753 0.0
C1276 C 0.84513 0.58833 0.66421 0.0
C1277 C 0.84733 0.56266 0.66799 0.0
H1278 H 0.40128 0.90114 0.20417 0.0
H1279 H 0.48983 0.93597 0.23881 0.0
H1280 H 0.51355 0.9619 0.20693 0.0
H1281 H 0.50926 0.97537 0.16936 0.0
H1282 H 0.42069 0.94137 0.13498 0.0
H1283 H 0.397 0.91444 0.16651 0.0
C1284 C 0.42577 0.91459 0.20482 0.0
C1285 C 0.4437 0.91661 0.22395 0.0
C1286 C 0.43931 0.92957 0.18642 0.0
C1287 C 0.47543 0.93372 0.22428 0.0
C1288 C 0.48904 0.94871 0.20607 0.0
C1289 C 0.48476 0.96224 0.1688 0.0
C1290 C 0.46686 0.96051 0.14975 0.0
C1291 C 0.47122 0.94691 0.18708 0.0
C1292 C 0.43512 0.94288 0.14925 0.0
C1293 C 0.42151 0.92761 0.16736 0.0
H1294 H 0.09143 0.55355 0.24107 0.0
H1295 H 0.13427 0.50266 0.22075 0.0
H1296 H 0.11197 0.49568 0.18296 0.0
H1297 H 0.08211 0.50593 0.15529 0.0
H1298 H 0.03861 0.55617 0.17584 0.0
H1299 H 0.06002 0.56214 0.21367 0.0
C1300 C 0.09589 0.54093 0.22836 0.0
C1301 C 0.11446 0.52861 0.23381 0.0
C1302 C 0.08319 0.53721 0.20659 0.0
C1303 C 0.11971 0.51203 0.21715 0.0
C1304 C 0.10717 0.50824 0.19546 0.0
C1305 C 0.07697 0.51788 0.16805 0.0
C1306 C 0.05892 0.5308 0.16252 0.0
C1307 C 0.08905 0.52093 0.18994 0.0
C1308 C 0.05293 0.54653 0.17938 0.0
C1309 C 0.06497 0.54976 0.20112 0.0
H1310 H 0.52893 0.59625 0.23116 0.0
H1311 H 0.4384 0.57127 0.20518 0.0
H1312 H 0.44932 0.56107 0.16837 0.0
H1313 H 0.48489 0.56017 0.14317 0.0
H1314 H 0.57623 0.58789 0.16897 0.0
H1315 H 0.56464 0.59615 0.20597 0.0
C1316 C 0.5116 0.58876 0.21745 0.0
C1317 C 0.4828 0.58444 0.22116 0.0
C1318 C 0.51817 0.58343 0.19614 0.0
C1319 C 0.46059 0.57427 0.20309 0.0
C1320 C 0.4669 0.56869 0.1819 0.0
C1321 C 0.50236 0.56826 0.15683 0.0
C1322 C 0.53139 0.5732 0.15312 0.0
C1323 C 0.49567 0.57335 0.17818 0.0
C1324 C 0.55353 0.58331 0.17122 0.0
C1325 C 0.547 0.58827 0.19245 0.0
H1326 H 0.93727 0.42328 0.78151 0.0
H1327 H 0.87112 0.44625 0.80218 0.0
H1328 H 0.89608 0.46047 0.83962 0.0
H1329 H 0.93612 0.46535 0.86681 0.0
H1330 H 0.99991 0.43889 0.84635 0.0
H1331 H 0.97615 0.42673 0.80868 0.0
C1332 C 0.92808 0.43113 0.7942 0.0
C1333 C 0.9023 0.43366 0.78888 0.0
C1334 C 0.94206 0.43854 0.81585 0.0
C1335 C 0.8912 0.44451 0.80558 0.0
C1336 C 0.90529 0.45237 0.82711 0.0
C1337 C 0.94463 0.45662 0.85417 0.0
C1338 C 0.96993 0.45324 0.85949 0.0
C1339 C 0.93061 0.44927 0.83248 0.0
C1340 C 0.98085 0.44226 0.84275 0.0
C1341 C 0.96717 0.43512 0.82117 0.0
H1342 H 0.58109 0.52999 0.78514 0.0
H1343 H 0.58103 0.44629 0.79401 0.0
H1344 H 0.56246 0.44469 0.83002 0.0
H1345 H 0.54464 0.466 0.85874 0.0
H1346 H 0.54553 0.55017 0.85062 0.0
H1347 H 0.56581 0.5529 0.81499 0.0
C1348 C 0.5774 0.51162 0.79507 0.0
C1349 C 0.58205 0.48806 0.78658 0.0
C1350 C 0.56679 0.51086 0.81599 0.0
C1351 C 0.577 0.46439 0.79977 0.0
C1352 C 0.5665 0.4635 0.82048 0.0
C1353 C 0.54919 0.48491 0.84915 0.0
C1354 C 0.54336 0.50773 0.85735 0.0
C1355 C 0.56089 0.48636 0.82865 0.0
C1356 C 0.54994 0.53236 0.84483 0.0
C1357 C 0.56143 0.53387 0.82437 0.0
H1358 H 0.57019 0.1188 0.80354 0.0
H1359 H 0.49503 0.03972 0.7669 0.0
H1360 H 0.48076 0.01456 0.80071 0.0
H1361 H 0.48741 0.0164 0.84088 0.0
H1362 H 0.56246 0.09531 0.8779 0.0
H1363 H 0.57876 0.11924 0.84383 0.0
C1364 C 0.55107 0.09583 0.80293 0.0
C1365 C 0.53369 0.08115 0.78272 0.0
C1366 C 0.54267 0.08165 0.82255 0.0
C1367 C 0.50867 0.05156 0.78226 0.0
C1368 C 0.50047 0.03719 0.80159 0.0
C1369 C 0.50766 0.03861 0.84154 0.0
C1370 C 0.52356 0.05399 0.86205 0.0
C1371 C 0.51696 0.05222 0.82188 0.0
C1372 C 0.54944 0.08306 0.86245 0.0
C1373 C 0.55891 0.09671 0.84293 0.0
H1374 H 0.07489 0.24146 0.53731 0.0
H1375 H 0.16322 0.27864 0.57272 0.0
H1376 H 0.18708 0.30459 0.54081 0.0
H1377 H 0.1829 0.31644 0.50281 0.0
H1378 H 0.09461 0.27669 0.46655 0.0
H1379 H 0.07078 0.25267 0.49889 0.0
C1380 C 0.09934 0.25549 0.53807 0.0
C1381 C 0.11726 0.25822 0.55738 0.0
C1382 C 0.11294 0.26996 0.51951 0.0
C1383 C 0.14895 0.27609 0.55802 0.0
C1384 C 0.16259 0.29096 0.53979 0.0
C1385 C 0.15846 0.30226 0.50182 0.0
C1386 C 0.14073 0.2986 0.48211 0.0
C1387 C 0.14484 0.2879 0.52039 0.0
C1388 C 0.10898 0.2805 0.48148 0.0
C1389 C 0.09526 0.2665 0.49998 0.0
H1390 H 0.76358 0.83122 0.5732 0.0
H1391 H 0.84001 0.91684 0.5604 0.0
H1392 H 0.8174 0.91136 0.52307 0.0
H1393 H 0.7755 0.88314 0.4942 0.0
H1394 H 0.69878 0.7975 0.50643 0.0
H1395 H 0.7222 0.80174 0.54347 0.0
C1396 C 0.77537 0.84852 0.56216 0.0
C1397 C 0.80322 0.87465 0.56979 0.0
C1398 C 0.76225 0.8452 0.54052 0.0
C1399 C 0.8182 0.89685 0.55522 0.0
C1400 C 0.80539 0.89366 0.53377 0.0
C1401 C 0.76383 0.86544 0.50499 0.0
C1402 C 0.73535 0.84014 0.49754 0.0
C1403 C 0.77728 0.86814 0.52632 0.0
C1404 C 0.72085 0.81712 0.51163 0.0
C1405 C 0.73414 0.81962 0.53289 0.0
H1406 H 0.16896 0.96274 0.55048 0.0
H1407 H 0.12309 0.86915 0.56547 0.0
H1408 H 0.13426 0.8535 0.53025 0.0
H1409 H 0.15741 0.86651 0.49524 0.0
H1410 H 0.20321 0.96023 0.48041 0.0
H1411 H 0.19157 0.97565 0.51538 0.0
C1412 C 0.16165 0.93895 0.54613 0.0
C1413 C 0.14541 0.91718 0.5607 0.0
C1414 C 0.168 0.9301 0.5258 0.0
C1415 C 0.13554 0.88635 0.55456 0.0
C1416 C 0.14199 0.87741 0.53444 0.0
C1417 C 0.16497 0.89033 0.4997 0.0
C1418 C 0.18119 0.91215 0.48513 0.0
C1419 C 0.15825 0.89909 0.51993 0.0
C1420 C 0.19038 0.94286 0.4911 0.0
C1421 C 0.18391 0.95175 0.5112 0.0
H1422 H 0.54305 0.77533 0.13215 0.0
H1423 H 0.61407 0.76703 0.10337 0.0
H1424 H 0.64249 0.77968 0.13963 0.0
H1425 H 0.6468 0.79244 0.17948 0.0
H1426 H 0.57628 0.80183 0.20814 0.0
H1427 H 0.54795 0.78931 0.17189 0.0
C1428 C 0.56495 0.77672 0.13375 0.0
C1429 C 0.5765 0.7704 0.11505 0.0
C1430 C 0.58114 0.784 0.15462 0.0
C1431 C 0.6046 0.77161 0.11751 0.0
C1432 C 0.62089 0.77892 0.13822 0.0
C1433 C 0.6254 0.79211 0.17778 0.0
C1434 C 0.61373 0.79814 0.19653 0.0
C1435 C 0.60933 0.78508 0.15688 0.0
C1436 C 0.58565 0.79697 0.19405 0.0
C1437 C 0.56951 0.78999 0.1733 0.0
H1438 H 0.25125 0.85525 0.12229 0.0
H1439 H 0.24631 0.76851 0.12753 0.0
H1440 H 0.22675 0.76514 0.16325 0.0
H1441 H 0.21063 0.78636 0.19315 0.0
H1442 H 0.21713 0.8738 0.189 0.0
H1443 H 0.23717 0.87765 0.15317 0.0
C1444 C 0.24619 0.83574 0.13131 0.0
C1445 C 0.24984 0.81195 0.12186 0.0
C1446 C 0.23534 0.83409 0.15221 0.0
C1447 C 0.24297 0.78682 0.13393 0.0
C1448 C 0.23201 0.78494 0.15454 0.0
C1449 C 0.21633 0.80622 0.18437 0.0
C1450 C 0.21224 0.82968 0.19375 0.0
C1451 C 0.22789 0.80831 0.16378 0.0
C1452 C 0.22026 0.8555 0.18228 0.0
C1453 C 0.23157 0.85764 0.1617 0.0
H1454 H 0.23307 0.44634 0.14163 0.0
H1455 H 0.15824 0.37046 0.10198 0.0
H1456 H 0.14187 0.34288 0.13457 0.0
H1457 H 0.14682 0.34165 0.17453 0.0
H1458 H 0.2224 0.41678 0.21429 0.0
H1459 H 0.24022 0.44338 0.18148 0.0
C1460 C 0.21355 0.42352 0.14005 0.0
C1461 C 0.19684 0.41055 0.11938 0.0
C1462 C 0.2041 0.40783 0.15893 0.0
C1463 C 0.17132 0.38111 0.11772 0.0
C1464 C 0.16194 0.36532 0.13635 0.0
C1465 C 0.16751 0.36359 0.17606 0.0
C1466 C 0.18305 0.37717 0.197 0.0
C1467 C 0.17784 0.37866 0.15709 0.0
C1468 C 0.20955 0.40594 0.19852 0.0
C1469 C 0.21994 0.42111 0.17971 0.0
H1470 H 0.82726 0.61089 0.90136 0.0
H1471 H 0.73411 0.58083 0.87939 0.0
H1472 H 0.74918 0.6018 0.84425 0.0
H1473 H 0.7888 0.6282 0.81945 0.0
H1474 H 0.88187 0.658 0.84141 0.0
H1475 H 0.86685 0.63749 0.8767 0.0
C1476 C 0.81024 0.60883 0.88885 0.0
C1477 C 0.7796 0.59435 0.89308 0.0
C1478 C 0.81904 0.62083 0.8686 0.0
C1479 C 0.7579 0.59224 0.87675 0.0
C1480 C 0.76647 0.60402 0.85655 0.0
C1481 C 0.80574 0.62998 0.83191 0.0
C1482 C 0.83641 0.6446 0.82777 0.0
C1483 C 0.79696 0.61825 0.85225 0.0
C1484 C 0.85815 0.64712 0.84423 0.0
C1485 C 0.84957 0.6353 0.8644 0.0
H1486 H 0.44969 0.18241 0.8968 0.0
H1487 H 0.39137 0.21222 0.92363 0.0
H1488 H 0.36882 0.20928 0.88683 0.0
H1489 H 0.3658 0.19906 0.84708 0.0
H1490 H 0.42192 0.16703 0.81947 0.0
H1491 H 0.44523 0.17028 0.85638 0.0
C1492 C 0.43193 0.18808 0.89457 0.0
C1493 C 0.42268 0.19802 0.91303 0.0
C1494 C 0.41868 0.18607 0.87318 0.0
C1495 C 0.39959 0.20528 0.90978 0.0
C1496 C 0.38645 0.20339 0.8887 0.0
C1497 C 0.3828 0.19232 0.84906 0.0
C1498 C 0.39191 0.18269 0.83041 0.0
C1499 C 0.39587 0.19394 0.8703 0.0
C1500 C 0.4146 0.17483 0.83344 0.0
C1501 C 0.42785 0.17651 0.85459 0.0
H1502 H 0.78763 0.23879 0.8812 0.0
H1503 H 0.86025 0.23816 0.92035 0.0
H1504 H 0.87954 0.22861 0.88697 0.0
H1505 H 0.87808 0.22441 0.84674 0.0
H1506 H 0.80469 0.22354 0.80738 0.0
H1507 H 0.78366 0.23004 0.84077 0.0
C1508 C 0.80727 0.23587 0.88245 0.0
C1509 C 0.82255 0.23934 0.90327 0.0
C1510 C 0.81844 0.23065 0.86314 0.0
C1511 C 0.84825 0.23592 0.90454 0.0
C1512 C 0.85931 0.23049 0.88545 0.0
C1513 C 0.85716 0.22504 0.84536 0.0
C1514 C 0.84323 0.22373 0.82442 0.0
C1515 C 0.84496 0.22844 0.86465 0.0
C1516 C 0.81637 0.22514 0.82318 0.0
C1517 C 0.80414 0.2286 0.8423 0.0
H1518 H 0.27858 0.08564 0.44779 0.0
H1519 H 0.22256 0.12634 0.45475 0.0
H1520 H 0.23971 0.13948 0.49422 0.0
H1521 H 0.27088 0.13907 0.52686 0.0
H1522 H 0.32624 0.09772 0.51871 0.0
H1523 H 0.30874 0.08478 0.47967 0.0
C1524 C 0.26976 0.09704 0.45797 0.0
C1525 C 0.24901 0.10464 0.44841 0.0
C1526 C 0.27964 0.1044 0.48046 0.0
C1527 C 0.23856 0.12024 0.46173 0.0
C1528 C 0.24827 0.12763 0.48429 0.0
C1529 C 0.27891 0.12709 0.5165 0.0
C1530 C 0.30003 0.11959 0.52564 0.0
C1531 C 0.26879 0.11975 0.49387 0.0
C1532 C 0.31038 0.10419 0.51203 0.0
C1533 C 0.3003 0.09665 0.48971 0.0
H1534 H 0.93017 0.19333 0.46389 0.0
H1535 H 0.91711 0.10314 0.46823 0.0
H1536 H 0.89982 0.10201 0.50469 0.0
H1537 H 0.88659 0.12578 0.53493 0.0
H1538 H 0.90067 0.21634 0.53117 0.0
H1539 H 0.92005 0.21845 0.49525 0.0
C1540 C 0.92398 0.1736 0.47293 0.0
C1541 C 0.92454 0.14819 0.46308 0.0
C1542 C 0.91424 0.17316 0.49407 0.0
C1543 C 0.91623 0.12276 0.47508 0.0
C1544 C 0.90649 0.12214 0.49604 0.0
C1545 C 0.89391 0.14597 0.52623 0.0
C1546 C 0.89201 0.17078 0.53566 0.0
C1547 C 0.90498 0.14701 0.50557 0.0
C1548 C 0.90207 0.19699 0.52435 0.0
C1549 C 0.913 0.19815 0.50375 0.0
H1550 H 0.89678 0.78031 0.47644 0.0
H1551 H 0.82256 0.69905 0.4412 0.0
H1552 H 0.80853 0.67565 0.47564 0.0
H1553 H 0.81477 0.67963 0.51581 0.0
H1554 H 0.88918 0.76031 0.55168 0.0
H1555 H 0.90532 0.7827 0.51708 0.0
C1556 C 0.87795 0.75726 0.47632 0.0
C1557 C 0.8607 0.74144 0.45628 0.0
C1558 C 0.86965 0.74404 0.49633 0.0
C1559 C 0.83609 0.71173 0.4564 0.0
C1560 C 0.82799 0.69837 0.4761 0.0
C1561 C 0.83489 0.70187 0.51616 0.0
C1562 C 0.85058 0.71818 0.5365 0.0
C1563 C 0.84422 0.71453 0.4962 0.0
C1564 C 0.87625 0.74732 0.5364 0.0
C1565 C 0.88567 0.7601 0.51656 0.0
loop_
_geom_bond_atom_site_label_1
_geom_bond_atom_site_label_2
_geom_bond_distance
_geom_bond_site_symmetry_2
_ccdc_geom_bond_type
H0 C1 0.949 . S
C1 H0 0.949 . S
C1 C2 1.395 . S
C1 C3 1.391 . S
C2 C1 1.395 . S
C2 C5 1.390 . S
C3 C1 1.391 . S
C3 C7 1.387 . S
C3 C8 1.491 . S
H4 C5 0.950 . S
C5 C2 1.390 . S
C5 H4 0.950 . S
C5 C6 1.378 . S
C6 C5 1.378 . S
C6 C7 1.409 . S
C7 C3 1.387 . S
C7 C6 1.409 . S
C7 H9 0.951 . S
C8 C3 1.491 . S
C8 C10 1.382 . S
C8 C12 1.404 . S
H9 C7 0.951 . S
C10 C8 1.382 . S
C10 C11 1.390 . S
C10 H15 0.949 . S
C11 C10 1.390 . S
C11 C16 1.399 . S
C12 C8 1.404 . S
C12 H13 0.950 . S
C12 C14 1.375 . S
H13 C12 0.950 . S
C14 C12 1.375 . S
C14 C16 1.382 . S
C14 H18 0.950 . S
H15 C10 0.949 . S
C16 C11 1.399 . S
C16 C14 1.382 . S
C16 H17 0.952 . S
H17 C16 0.952 . S
H18 C14 0.950 . S
H19 C20 0.949 . S
C20 H19 0.949 . S
C20 C21 1.395 . S
C20 C22 1.391 . S
C21 C20 1.395 . S
C21 C24 1.390 . S
C22 C20 1.391 . S
C22 C26 1.387 . S
C22 C27 1.491 . S
H23 C24 0.950 . S
C24 C21 1.390 . S
C24 H23 0.950 . S
C24 C25 1.378 . S
C25 C24 1.378 . S
C25 C26 1.409 . S
C26 C22 1.387 . S
C26 C25 1.409 . S
C26 H28 0.951 . S
C27 C22 1.491 . S
C27 C29 1.382 . S
C27 C31 1.404 . S
H28 C26 0.951 . S
C29 C27 1.382 . S
C29 C30 1.390 . S
C29 H34 0.949 . S
C30 C29 1.390 . S
C30 C35 1.399 . S
C31 C27 1.404 . S
C31 H32 0.950 . S
C31 C33 1.375 . S
H32 C31 0.950 . S
C33 C31 1.375 . S
C33 C35 1.382 . S
C33 H37 0.950 . S
H34 C29 0.949 . S
C35 C30 1.399 . S
C35 C33 1.382 . S
C35 H36 0.952 1_545 S
H36 C35 0.952 1_565 S
H37 C33 0.950 . S
H38 C39 0.949 . S
C39 H38 0.949 . S
C39 C40 1.395 . S
C39 C41 1.391 . S
C40 C39 1.395 . S
C40 C43 1.390 . S
C41 C39 1.391 . S
C41 C45 1.387 . S
C41 C46 1.491 . S
H42 C43 0.950 . S
C43 C40 1.390 . S
C43 H42 0.950 . S
C43 C44 1.378 . S
C44 C43 1.378 . S
C44 C45 1.409 . S
C45 C41 1.387 . S
C45 C44 1.409 . S
C45 H47 0.951 . S
C46 C41 1.491 . S
C46 C48 1.382 . S
C46 C50 1.404 . S
H47 C45 0.951 . S
C48 C46 1.382 . S
C48 C49 1.390 . S
C48 H53 0.949 . S
C49 C48 1.390 . S
C49 C54 1.399 1_655 S
C50 C46 1.404 . S
C50 H51 0.950 . S
C50 C52 1.375 . S
H51 C50 0.950 . S
C52 C50 1.375 . S
C52 C54 1.382 1_655 S
C52 H56 0.950 . S
H53 C48 0.949 . S
C54 C49 1.399 1_455 S
C54 C52 1.382 1_455 S
C54 H55 0.952 . S
H55 C54 0.952 . S
H56 C52 0.950 . S
H57 C58 0.949 . S
C58 H57 0.949 . S
C58 C59 1.395 . S
C58 C60 1.391 . S
C59 C58 1.395 . S
C59 C62 1.390 . S
C60 C58 1.391 . S
C60 C64 1.387 . S
C60 C65 1.491 . S
H61 C62 0.950 . S
C62 C59 1.390 . S
C62 H61 0.950 . S
C62 C63 1.378 . S
C63 C62 1.378 . S
C63 C64 1.409 . S
C64 C60 1.387 . S
C64 C63 1.409 . S
C64 H66 0.951 . S
C65 C60 1.491 . S
C65 C67 1.382 . S
C65 C69 1.404 . S
H66 C64 0.951 . S
C67 C65 1.382 . S
C67 C68 1.390 . S
C67 H72 0.949 . S
C68 C67 1.390 . S
C68 C73 1.399 . S
C69 C65 1.404 . S
C69 H70 0.950 . S
C69 C71 1.375 . S
H70 C69 0.950 . S
C71 C69 1.375 . S
C71 C73 1.382 . S
C71 H75 0.950 . S
H72 C67 0.949 . S
C73 C68 1.399 . S
C73 C71 1.382 . S
C73 H74 0.952 . S
H74 C73 0.952 . S
H75 C71 0.950 . S
H76 C77 0.949 . S
C77 H76 0.949 . S
C77 C78 1.395 . S
C77 C79 1.391 . S
C78 C77 1.395 . S
C78 C81 1.390 . S
C79 C77 1.391 . S
C79 C83 1.387 . S
C79 C84 1.491 . S
H80 C81 0.950 . S
C81 C78 1.390 . S
C81 H80 0.950 . S
C81 C82 1.378 . S
C82 C81 1.378 . S
C82 C83 1.409 . S
C83 C79 1.387 . S
C83 C82 1.409 . S
C83 H85 0.951 . S
C84 C79 1.491 . S
C84 C86 1.382 . S
C84 C88 1.404 . S
H85 C83 0.951 . S
C86 C84 1.382 . S
C86 C87 1.390 . S
C86 H91 0.949 . S
C87 C86 1.390 . S
C87 C92 1.399 . S
C88 C84 1.404 . S
C88 H89 0.950 . S
C88 C90 1.375 . S
H89 C88 0.950 . S
C90 C88 1.375 . S
C90 C92 1.382 . S
C90 H94 0.950 . S
H91 C86 0.949 . S
C92 C87 1.399 . S
C92 C90 1.382 . S
C92 H93 0.952 1_565 S
H93 C92 0.952 1_545 S
H94 C90 0.950 . S
H95 C96 0.949 . S
C96 H95 0.949 . S
C96 C97 1.395 . S
C96 C98 1.391 . S
C97 C96 1.395 . S
C97 C100 1.390 . S
C98 C96 1.391 . S
C98 C102 1.387 . S
C98 C103 1.491 . S
H99 C100 0.950 . S
C100 C97 1.390 . S
C100 H99 0.950 . S
C100 C101 1.378 . S
C101 C100 1.378 . S
C101 C102 1.409 . S
C102 C98 1.387 . S
C102 C101 1.409 . S
C102 H104 0.951 . S
C103 C98 1.491 . S
C103 C105 1.382 . S
C103 C107 1.404 . S
H104 C102 0.951 . S
C105 C103 1.382 . S
C105 C106 1.390 . S
C105 H110 0.949 . S
C106 C105 1.390 . S
C106 C111 1.399 . S
C107 C103 1.404 . S
C107 H108 0.950 . S
C107 C109 1.375 . S
H108 C107 0.950 . S
C109 C107 1.375 . S
C109 C111 1.382 . S
C109 H113 0.950 . S
H110 C105 0.949 . S
C111 C106 1.399 . S
C111 C109 1.382 . S
C111 H112 0.967 . S
H112 C111 0.967 . S
H113 C109 0.950 . S
H114 C115 0.949 . S
C115 H114 0.949 . S
C115 C116 1.395 . S
C115 C117 1.391 . S
C116 C115 1.395 . S
C116 C119 1.390 . S
C117 C115 1.391 . S
C117 C121 1.387 . S
C117 C122 1.491 . S
H118 C119 0.950 . S
C119 C116 1.390 . S
C119 H118 0.950 . S
C119 C120 1.378 . S
C120 C119 1.378 . S
C120 C121 1.409 . S
C121 C117 1.387 . S
C121 C120 1.409 . S
C121 H123 0.951 . S
C122 C117 1.491 . S
C122 C124 1.382 . S
C122 C126 1.404 . S
H123 C121 0.951 . S
C124 C122 1.382 . S
C124 C125 1.390 . S
C124 H129 0.949 . S
C125 C124 1.390 . S
C125 C130 1.399 . S
C126 C122 1.404 . S
C126 H127 0.950 . S
C126 C128 1.375 . S
H127 C126 0.950 . S
C128 C126 1.375 . S
C128 C130 1.382 . S
C128 H132 0.950 . S
H129 C124 0.949 . S
C130 C125 1.399 . S
C130 C128 1.382 . S
C130 H131 0.952 . S
H131 C130 0.952 . S
H132 C128 0.950 . S
H133 C134 0.949 . S
C134 H133 0.949 . S
C134 C135 1.395 . S
C134 C136 1.391 . S
C135 C134 1.395 . S
C135 C138 1.390 . S
C136 C134 1.391 . S
C136 C140 1.387 . S
C136 C141 1.491 . S
H137 C138 0.950 . S
C138 C135 1.390 . S
C138 H137 0.950 . S
C138 C139 1.378 . S
C139 C138 1.378 . S
C139 C140 1.409 . S
C140 C136 1.387 . S
C140 C139 1.409 . S
C140 H142 0.951 . S
C141 C136 1.491 . S
C141 C143 1.382 . S
C141 C145 1.404 . S
H142 C140 0.951 . S
C143 C141 1.382 . S
C143 C144 1.390 . S
C143 H148 0.949 . S
C144 C143 1.390 . S
C144 C149 1.399 . S
C145 C141 1.404 . S
C145 H146 0.950 . S
C145 C147 1.375 . S
H146 C145 0.950 . S
C147 C145 1.375 . S
C147 C149 1.382 . S
C147 H151 0.950 . S
H148 C143 0.949 . S
C149 C144 1.399 . S
C149 C147 1.382 . S
C149 H150 0.952 . S
H150 C149 0.952 . S
H151 C147 0.950 . S
H152 C153 0.949 . S
C153 H152 0.949 . S
C153 C154 1.395 . S
C153 C155 1.391 . S
C154 C153 1.395 . S
C154 C157 1.390 . S
C155 C153 1.391 . S
C155 C159 1.387 . S
C155 C160 1.491 . S
H156 C157 0.950 . S
C157 C154 1.390 . S
C157 H156 0.950 . S
C157 C158 1.378 . S
C158 C157 1.378 . S
C158 C159 1.409 . S
C159 C155 1.387 . S
C159 C158 1.409 . S
C159 H161 0.951 . S
C160 C155 1.491 . S
C160 C162 1.382 . S
C160 C164 1.404 . S
H161 C159 0.951 . S
C162 C160 1.382 . S
C162 C163 1.390 . S
C162 H167 0.949 . S
C163 C162 1.390 . S
C163 C168 1.399 . S
C164 C160 1.404 . S
C164 H165 0.950 . S
C164 C166 1.375 . S
H165 C164 0.950 . S
C166 C164 1.375 . S
C166 C168 1.382 . S
C166 H170 0.950 . S
H167 C162 0.949 . S
C168 C163 1.399 . S
C168 C166 1.382 . S
C168 H169 0.952 . S
H169 C168 0.952 . S
H170 C166 0.950 . S
H171 C172 0.949 . S
C172 H171 0.949 . S
C172 C173 1.395 . S
C172 C174 1.391 . S
C173 C172 1.395 . S
C173 C176 1.390 . S
C174 C172 1.391 . S
C174 C178 1.387 . S
C174 C179 1.491 . S
H175 C176 0.950 . S
C176 C173 1.390 . S
C176 H175 0.950 . S
C176 C177 1.378 . S
C177 C176 1.378 . S
C177 C178 1.409 . S
C178 C174 1.387 . S
C178 C177 1.409 . S
C178 H180 0.951 . S
C179 C174 1.491 . S
C179 C181 1.382 . S
C179 C183 1.404 . S
H180 C178 0.951 . S
C181 C179 1.382 . S
C181 C182 1.390 . S
C181 H186 0.949 . S
C182 C181 1.390 . S
C182 C187 1.399 . S
C183 C179 1.404 . S
C183 H184 0.950 . S
C183 C185 1.375 . S
H184 C183 0.950 . S
C185 C183 1.375 . S
C185 C187 1.382 . S
C185 H189 0.950 . S
H186 C181 0.949 . S
C187 C182 1.399 . S
C187 C185 1.382 . S
C187 H188 0.952 . S
H188 C187 0.952 . S
H189 C185 0.950 . S
H190 C191 0.949 . S
C191 H190 0.949 . S
C191 C192 1.395 . S
C191 C193 1.391 . S
C192 C191 1.395 . S
C192 C195 1.390 . S
C193 C191 1.391 . S
C193 C197 1.387 . S
C193 C198 1.491 . S
H194 C195 0.950 . S
C195 C192 1.390 . S
C195 H194 0.950 . S
C195 C196 1.378 . S
C196 C195 1.378 . S
C196 C197 1.409 . S
C197 C193 1.387 . S
C197 C196 1.409 . S
C197 H199 0.951 1_556 S
C198 C193 1.491 . S
C198 C200 1.382 . S
C198 C202 1.404 1_556 S
H199 C197 0.951 1_554 S
C200 C198 1.382 . S
C200 C201 1.390 1_556 S
C200 H205 0.949 . S
C201 C200 1.390 1_554 S
C201 C206 1.399 . S
C202 C198 1.404 1_554 S
C202 H203 0.950 . S
C202 C204 1.375 . S
H203 C202 0.950 . S
C204 C202 1.375 . S
C204 C206 1.382 . S
C204 H208 0.950 . S
H205 C200 0.949 . S
C206 C201 1.399 . S
C206 C204 1.382 . S
C206 H207 0.952 . S
H207 C206 0.952 . S
H208 C204 0.950 . S
H209 C210 0.949 . S
C210 H209 0.949 . S
C210 C211 1.395 . S
C210 C212 1.391 . S
C211 C210 1.395 . S
C211 C214 1.390 . S
C212 C210 1.391 . S
C212 C216 1.387 . S
C212 C217 1.491 . S
H213 C214 0.950 . S
C214 C211 1.390 . S
C214 H213 0.950 . S
C214 C215 1.378 . S
C215 C214 1.378 . S
C215 C216 1.409 . S
C216 C212 1.387 . S
C216 C215 1.409 . S
C216 H218 0.951 . S
C217 C212 1.491 . S
C217 C219 1.382 . S
C217 C221 1.404 . S
H218 C216 0.951 . S
C219 C217 1.382 . S
C219 C220 1.390 . S
C219 H224 0.949 . S
C220 C219 1.390 . S
C220 C225 1.399 . S
C221 C217 1.404 . S
C221 H222 0.950 . S
C221 C223 1.375 . S
H222 C221 0.950 . S
C223 C221 1.375 . S
C223 C225 1.382 . S
C223 H227 0.950 1_556 S
H224 C219 0.949 . S
C225 C220 1.399 . S
C225 C223 1.382 . S
C225 H226 0.952 . S
H226 C225 0.952 . S
H227 C223 0.950 1_554 S
H228 C229 0.949 . S
C229 H228 0.949 . S
C229 C230 1.395 . S
C229 C231 1.391 . S
C230 C229 1.395 . S
C230 C233 1.390 . S
C231 C229 1.391 . S
C231 C235 1.387 . S
C231 C236 1.491 . S
H232 C233 0.950 . S
C233 C230 1.390 . S
C233 H232 0.950 . S
C233 C234 1.378 . S
C234 C233 1.378 . S
C234 C235 1.409 . S
C235 C231 1.387 . S
C235 C234 1.409 . S
C235 H237 0.951 . S
C236 C231 1.491 . S
C236 C238 1.382 . S
C236 C240 1.404 . S
H237 C235 0.951 . S
C238 C236 1.382 . S
C238 C239 1.390 . S
C238 H243 0.949 . S
C239 C238 1.390 . S
C239 C244 1.399 1_554 S
C240 C236 1.404 . S
C240 H241 0.953 . S
C240 C242 1.375 1_554 S
H241 C240 0.953 . S
C242 C240 1.375 1_556 S
C242 C244 1.382 . S
C242 H246 0.950 . S
H243 C238 0.949 . S
C244 C239 1.399 1_556 S
C244 C242 1.382 . S
C244 H245 0.952 . S
H245 C244 0.952 . S
H246 C242 0.950 . S
H247 C248 0.949 . S
C248 H247 0.949 . S
C248 C249 1.395 . S
C248 C250 1.391 . S
C249 C248 1.395 . S
C249 C252 1.390 . S
C250 C248 1.391 . S
C250 C254 1.387 . S
C250 C255 1.491 . S
H251 C252 0.950 . S
C252 C249 1.390 . S
C252 H251 0.950 . S
C252 C253 1.378 . S
C253 C252 1.378 . S
C253 C254 1.409 . S
C254 C250 1.387 . S
C254 C253 1.409 . S
C254 H256 0.951 . S
C255 C250 1.491 . S
C255 C257 1.382 . S
C255 C259 1.404 . S
H256 C254 0.951 . S
C257 C255 1.382 . S
C257 C258 1.390 . S
C257 H262 0.949 . S
C258 C257 1.390 . S
C258 C263 1.399 . S
C259 C255 1.404 . S
C259 H260 0.950 . S
C259 C261 1.375 . S
H260 C259 0.950 . S
C261 C259 1.375 . S
C261 C263 1.382 . S
C261 H265 0.950 1_554 S
H262 C257 0.949 . S
C263 C258 1.399 . S
C263 C261 1.382 . S
C263 H264 0.952 1_554 S
H264 C263 0.952 1_556 S
H265 C261 0.950 1_556 S
H266 C267 0.949 . S
C267 H266 0.949 . S
C267 C268 1.395 . S
C267 C269 1.391 . S
C268 C267 1.395 . S
C268 C271 1.390 . S
C269 C267 1.391 . S
C269 C273 1.387 . S
C269 C274 1.491 . S
H270 C271 0.950 . S
C271 C268 1.390 . S
C271 H270 0.950 . S
C271 C272 1.378 . S
C272 C271 1.378 . S
C272 C273 1.409 . S
C273 C269 1.387 . S
C273 C272 1.409 . S
C273 H275 0.951 . S
C274 C269 1.491 . S
C274 C276 1.382 . S
C274 C278 1.404 . S
H275 C273 0.951 . S
C276 C274 1.382 . S
C276 C277 1.390 . S
C276 H281 0.949 . S
C277 C276 1.390 . S
C277 C282 1.399 . S
C278 C274 1.404 . S
C278 H279 0.950 . S
C278 C280 1.375 . S
H279 C278 0.950 . S
C280 C278 1.375 . S
C280 C282 1.382 . S
C280 H284 0.950 . S
H281 C276 0.949 . S
C282 C277 1.399 . S
C282 C280 1.382 . S
C282 H283 0.952 . S
H283 C282 0.952 . S
H284 C280 0.950 . S
H285 C286 0.949 . S
C286 H285 0.949 . S
C286 C287 1.395 . S
C286 C288 1.391 . S
C287 C286 1.395 . S
C287 C290 1.390 . S
C288 C286 1.391 . S
C288 C292 1.387 . S
C288 C293 1.491 . S
H289 C290 0.950 . S
C290 C287 1.390 . S
C290 H289 0.950 . S
C290 C291 1.378 . S
C291 C290 1.378 . S
C291 C292 1.409 . S
C292 C288 1.387 . S
C292 C291 1.409 . S
C292 H294 0.951 . S
C293 C288 1.491 . S
C293 C295 1.382 . S
C293 C297 1.404 . S
H294 C292 0.951 . S
C295 C293 1.382 . S
C295 C296 1.390 . S
C295 H300 0.949 . S
C296 C295 1.390 . S
C296 C301 1.399 . S
C297 C293 1.404 . S
C297 H298 0.950 . S
C297 C299 1.375 . S
H298 C297 0.950 . S
C299 C297 1.375 . S
C299 C301 1.382 . S
C299 H303 0.950 . S
H300 C295 0.949 . S
C301 C296 1.399 . S
C301 C299 1.382 . S
C301 H302 0.952 . S
H302 C301 0.952 . S
H303 C299 0.950 . S
H304 C305 0.949 . S
C305 H304 0.949 . S
C305 C306 1.395 . S
C305 C307 1.391 . S
C306 C305 1.395 . S
C306 C309 1.390 . S
C307 C305 1.391 . S
C307 C311 1.387 . S
C307 C312 1.491 . S
H308 C309 0.950 . S
C309 C306 1.390 . S
C309 H308 0.950 . S
C309 C310 1.378 . S
C310 C309 1.378 . S
C310 C311 1.409 . S
C311 C307 1.387 . S
C311 C310 1.409 . S
C311 H313 0.951 . S
C312 C307 1.491 . S
C312 C314 1.382 . S
C312 C316 1.404 . S
H313 C311 0.951 . S
C314 C312 1.382 . S
C314 C315 1.390 . S
C314 H319 0.949 . S
C315 C314 1.390 . S
C315 C320 1.399 . S
C316 C312 1.404 . S
C316 H317 0.950 . S
C316 C318 1.375 . S
H317 C316 0.950 . S
C318 C316 1.375 . S
C318 C320 1.382 . S
C318 H322 0.950 . S
H319 C314 0.949 . S
C320 C315 1.399 . S
C320 C318 1.382 . S
C320 H321 0.952 . S
H321 C320 0.952 . S
H322 C318 0.950 . S
H323 C324 0.949 . S
C324 H323 0.949 . S
C324 C325 1.395 . S
C324 C326 1.391 . S
C325 C324 1.395 . S
C325 C328 1.390 . S
C326 C324 1.391 . S
C326 C330 1.387 . S
C326 C331 1.491 . S
H327 C328 0.950 . S
C328 C325 1.390 . S
C328 H327 0.950 . S
C328 C329 1.378 . S
C329 C328 1.378 . S
C329 C330 1.409 . S
C330 C326 1.387 . S
C330 C329 1.409 . S
C330 H332 0.951 . S
C331 C326 1.491 . S
C331 C333 1.382 . S
C331 C335 1.404 . S
H332 C330 0.951 . S
C333 C331 1.382 . S
C333 C334 1.390 . S
C333 H338 0.949 . S
C334 C333 1.390 . S
C334 C339 1.399 . S
C335 C331 1.404 . S
C335 H336 0.950 . S
C335 C337 1.375 . S
H336 C335 0.950 . S
C337 C335 1.375 . S
C337 C339 1.382 . S
C337 H341 0.950 . S
H338 C333 0.949 . S
C339 C334 1.399 . S
C339 C337 1.382 . S
C339 H340 0.952 . S
H340 C339 0.952 . S
H341 C337 0.950 . S
C342 Eu343 2.835 1_565 S
C342 C344 1.500 . S
C342 O362 1.257 . S
C342 O363 1.260 1_565 S
Eu343 C342 2.835 1_545 S
Eu343 O362 2.473 1_545 S
Eu343 O363 2.480 . S
Eu343 O364 2.430 . S
Eu343 O365 2.670 1_554 S
Eu343 O366 2.394 1_545 S
Eu343 O371 2.355 1_545 S
Eu343 O373 2.374 . S
C344 C342 1.500 . S
C344 C345 1.377 . S
C344 C349 1.377 . S
C345 C344 1.377 . S
C345 C346 1.395 . S
C345 H374 0.931 1_565 S
C346 C345 1.395 . S
C346 C347 1.383 . S
C346 H375 0.909 1_565 S
C347 C346 1.383 . S
C347 C348 1.394 . S
C348 C347 1.394 . S
C348 C349 1.378 . S
C348 H376 0.931 . S
C349 C344 1.377 . S
C349 C348 1.378 . S
C349 H377 0.931 . S
C350 O364 1.259 . S
C350 O365 1.270 1_554 S
C351 O366 1.251 . S
C351 O367 1.251 1_554 S
C352 Eu353 2.835 1_545 S
C352 C354 1.500 . S
C352 O368 1.257 . S
C352 O369 1.260 1_545 S
Eu353 C352 2.835 1_565 S
Eu353 O365 2.355 1_565 S
Eu353 O367 2.374 . S
Eu353 O368 2.473 1_565 S
Eu353 O369 2.480 . S
Eu353 O370 2.430 . S
Eu353 O371 2.670 1_556 S
Eu353 O372 2.394 1_565 S
C354 C352 1.500 . S
C354 C355 1.377 . S
C354 C359 1.377 . S
C355 C354 1.377 . S
C355 C356 1.395 . S
C355 H378 0.931 1_545 S
C356 C355 1.395 . S
C356 C357 1.383 . S
C356 H379 0.931 . S
C357 C356 1.383 . S
C357 C358 1.394 . S
C358 C357 1.394 . S
C358 C359 1.378 . S
C358 H380 0.931 . S
C359 C354 1.377 . S
C359 C358 1.378 . S
C359 H381 0.931 . S
C360 O370 1.259 . S
C360 O371 1.270 1_556 S
C361 O372 1.251 . S
C361 O373 1.251 1_556 S
O362 C342 1.257 . S
O362 Eu343 2.473 1_565 S
O363 C342 1.260 1_545 S
O363 Eu343 2.480 . S
O364 Eu343 2.430 . S
O364 C350 1.259 . S
O365 Eu343 2.670 1_556 S
O365 C350 1.270 1_556 S
O365 Eu353 2.355 1_545 S
O366 Eu343 2.394 1_565 S
O366 C351 1.251 . S
O367 C351 1.251 1_556 S
O367 Eu353 2.374 . S
O368 C352 1.257 . S
O368 Eu353 2.473 1_545 S
O369 C352 1.260 1_565 S
O369 Eu353 2.480 . S
O370 Eu353 2.430 . S
O370 C360 1.259 . S
O371 Eu343 2.355 1_565 S
O371 Eu353 2.670 1_554 S
O371 C360 1.270 1_554 S
O372 Eu353 2.394 1_545 S
O372 C361 1.251 . S
O373 Eu343 2.374 . S
O373 C361 1.251 1_554 S
H374 C345 0.931 1_545 S
H375 C346 0.909 1_545 S
H376 C348 0.931 . S
H377 C349 0.931 . S
H378 C355 0.931 1_565 S
H379 C356 0.931 . S
H380 C358 0.931 . S
H381 C359 0.931 . S
C382 Eu383 2.835 1_455 S
C382 C384 1.500 . S
C382 O402 1.257 . S
C382 O403 1.260 1_455 S
Eu383 C382 2.835 1_655 S
Eu383 O402 2.473 1_655 S
Eu383 O403 2.480 . S
Eu383 O404 2.430 . S
Eu383 O405 2.670 1_554 S
Eu383 O406 2.394 1_655 S
Eu383 O411 2.355 1_655 S
Eu383 O413 2.374 . S
C384 C382 1.500 . S
C384 C385 1.377 . S
C384 C389 1.377 . S
C385 C384 1.377 . S
C385 C386 1.395 . S
C385 H414 0.931 1_455 S
C386 C385 1.395 . S
C386 C387 1.383 . S
C386 H415 0.931 . S
C387 C386 1.383 . S
C387 C388 1.394 . S
C388 C387 1.394 . S
C388 C389 1.378 . S
C388 H416 0.931 . S
C389 C384 1.377 . S
C389 C388 1.378 . S
C389 H417 0.931 . S
C390 O404 1.237 1_556 S
C390 O405 1.281 . S
C391 O406 1.251 . S
C391 O407 1.251 1_554 S
C392 Eu393 2.835 1_655 S
C392 C394 1.500 . S
C392 O408 1.257 . S
C392 O409 1.260 1_655 S
Eu393 C392 2.835 1_455 S
Eu393 O405 2.355 1_455 S
Eu393 O407 2.374 . S
Eu393 O408 2.473 1_455 S
Eu393 O409 2.480 . S
Eu393 O410 2.430 . S
Eu393 O411 2.670 1_556 S
Eu393 O412 2.394 1_455 S
C394 C392 1.500 . S
C394 C395 1.377 . S
C394 C399 1.377 . S
C395 C394 1.377 . S
C395 C396 1.395 . S
C395 H418 0.931 1_655 S
C396 C395 1.395 . S
C396 C397 1.383 . S
C396 H419 0.931 . S
C397 C396 1.383 . S
C397 C398 1.394 . S
C398 C397 1.394 . S
C398 C399 1.378 . S
C398 H420 0.931 . S
C399 C394 1.377 . S
C399 C398 1.378 . S
C399 H421 0.931 . S
C400 O410 1.259 1_554 S
C400 O411 1.270 . S
C401 O412 1.251 . S
C401 O413 1.251 1_556 S
O402 C382 1.257 . S
O402 Eu383 2.473 1_455 S
O403 C382 1.260 1_655 S
O403 Eu383 2.480 . S
O404 Eu383 2.430 . S
O404 C390 1.237 1_554 S
O405 Eu383 2.670 1_556 S
O405 C390 1.281 . S
O405 Eu393 2.355 1_655 S
O406 Eu383 2.394 1_455 S
O406 C391 1.251 . S
O407 C391 1.251 1_556 S
O407 Eu393 2.374 . S
O408 C392 1.257 . S
O408 Eu393 2.473 1_655 S
O409 C392 1.260 1_455 S
O409 Eu393 2.480 . S
O410 Eu393 2.430 . S
O410 C400 1.259 1_556 S
O411 Eu383 2.355 1_455 S
O411 Eu393 2.670 1_554 S
O411 C400 1.270 . S
O412 Eu393 2.394 1_655 S
O412 C401 1.251 . S
O413 Eu383 2.374 . S
O413 C401 1.251 1_554 S
H414 C385 0.931 1_655 S
H415 C386 0.931 . S
H416 C388 0.931 . S
H417 C389 0.931 . S
H418 C395 0.931 1_455 S
H419 C396 0.931 . S
H420 C398 0.931 . S
H421 C399 0.931 . S
C422 Eu423 2.835 . S
C422 C424 1.500 . S
C422 O442 1.257 . S
C422 O443 1.260 . S
Eu423 C422 2.835 . S
Eu423 O442 2.473 . S
Eu423 O443 2.480 . S
Eu423 O444 2.430 . S
Eu423 O445 2.670 1_556 S
Eu423 O446 2.394 . S
Eu423 O451 2.363 . S
Eu423 O453 2.374 1_556 S
C424 C422 1.500 . S
C424 C425 1.377 . S
C424 C429 1.377 . S
C425 C424 1.377 . S
C425 C426 1.395 . S
C425 H454 0.931 . S
C426 C425 1.395 . S
C426 C427 1.383 . S
C426 H455 0.931 . S
C427 C426 1.383 . S
C427 C428 1.394 . S
C428 C427 1.394 . S
C428 C429 1.378 . S
C428 H456 0.931 . S
C429 C424 1.377 . S
C429 C428 1.378 . S
C429 H457 0.931 . S
C430 O444 1.259 1_554 S
C430 O445 1.270 . S
C431 O446 1.251 . S
C431 O447 1.251 1_556 S
C432 Eu433 2.835 . S
C432 C434 1.500 . S
C432 O448 1.257 . S
C432 O449 1.260 . S
Eu433 C432 2.835 . S
Eu433 O445 2.355 . S
Eu433 O447 2.374 . S
Eu433 O448 2.473 . S
Eu433 O449 2.480 . S
Eu433 O450 2.430 . S
Eu433 O451 2.659 1_554 S
Eu433 O452 2.394 . S
C434 C432 1.500 . S
C434 C435 1.377 . S
C434 C439 1.377 . S
C435 C434 1.377 . S
C435 C436 1.395 . S
C435 H458 0.931 . S
C436 C435 1.395 . S
C436 C437 1.383 . S
C436 H459 0.931 . S
C437 C436 1.383 . S
C437 C438 1.394 . S
C438 C437 1.394 . S
C438 C439 1.378 . S
C438 H460 0.931 . S
C439 C434 1.377 . S
C439 C438 1.378 . S
C439 H461 0.931 . S
C440 O450 1.259 . S
C440 O451 1.263 1_554 S
C441 O452 1.251 . S
C441 O453 1.251 . S
O442 C422 1.257 . S
O442 Eu423 2.473 . S
O443 C422 1.260 . S
O443 Eu423 2.480 . S
O444 Eu423 2.430 . S
O444 C430 1.259 1_556 S
O445 Eu423 2.670 1_554 S
O445 C430 1.270 . S
O445 Eu433 2.355 . S
O446 Eu423 2.394 . S
O446 C431 1.251 . S
O447 C431 1.251 1_554 S
O447 Eu433 2.374 . S
O448 C432 1.257 . S
O448 Eu433 2.473 . S
O449 C432 1.260 . S
O449 Eu433 2.480 . S
O450 Eu433 2.430 . S
O450 C440 1.259 . S
O451 Eu423 2.363 . S
O451 Eu433 2.659 1_556 S
O451 C440 1.263 1_556 S
O452 Eu433 2.394 . S
O452 C441 1.251 . S
O453 Eu423 2.374 1_554 S
O453 C441 1.251 . S
H454 C425 0.931 . S
H455 C426 0.931 . S
H456 C428 0.931 . S
H457 C429 0.931 . S
H458 C435 0.931 . S
H459 C436 0.931 . S
H460 C438 0.931 . S
H461 C439 0.931 . S
C462 Eu463 2.835 . S
C462 C464 1.500 . S
C462 O482 1.257 . S
C462 O483 1.260 . S
Eu463 C462 2.835 . S
Eu463 O482 2.473 . S
Eu463 O483 2.480 . S
Eu463 O484 2.430 . S
Eu463 O485 2.670 . S
Eu463 O486 2.394 . S
Eu463 O491 2.355 . S
Eu463 O493 2.374 . S
C464 C462 1.500 . S
C464 C465 1.377 . S
C464 C469 1.377 . S
C465 C464 1.377 . S
C465 C466 1.395 . S
C465 H494 0.931 . S
C466 C465 1.395 . S
C466 C467 1.383 . S
C466 H495 0.931 . S
C467 C466 1.383 . S
C467 C468 1.394 . S
C468 C467 1.394 . S
C468 C469 1.378 . S
C468 H496 0.931 . S
C469 C464 1.377 . S
C469 C468 1.378 . S
C469 H497 0.931 . S
C470 O484 1.259 . S
C470 O485 1.270 . S
C471 O486 1.251 . S
C471 O487 1.251 . S
C472 Eu473 2.835 . S
C472 C474 1.500 . S
C472 O488 1.257 . S
C472 O489 1.260 . S
Eu473 C472 2.835 . S
Eu473 O485 2.355 . S
Eu473 O487 2.374 . S
Eu473 O488 2.473 . S
Eu473 O489 2.480 . S
Eu473 O490 2.430 . S
Eu473 O491 2.670 . S
Eu473 O492 2.394 . S
C474 C472 1.500 . S
C474 C475 1.377 . S
C474 C479 1.377 . S
C475 C474 1.377 . S
C475 C476 1.395 . S
C475 H498 0.931 . S
C476 C475 1.395 . S
C476 C477 1.383 . S
C476 H499 0.931 . S
C477 C476 1.383 . S
C477 C478 1.394 . S
C478 C477 1.394 . S
C478 C479 1.378 . S
C478 H500 0.931 . S
C479 C474 1.377 . S
C479 C478 1.378 . S
C479 H501 0.931 . S
C480 O490 1.259 . S
C480 O491 1.270 . S
C481 O492 1.251 . S
C481 O493 1.251 . S
O482 C462 1.257 . S
O482 Eu463 2.473 . S
O483 C462 1.260 . S
O483 Eu463 2.480 . S
O484 Eu463 2.430 . S
O484 C470 1.259 . S
O485 Eu463 2.670 . S
O485 C470 1.270 . S
O485 Eu473 2.355 . S
O486 Eu463 2.394 . S
O486 C471 1.251 . S
O487 C471 1.251 . S
O487 Eu473 2.374 . S
O488 C472 1.257 . S
O488 Eu473 2.473 . S
O489 C472 1.260 . S
O489 Eu473 2.480 . S
O490 Eu473 2.430 . S
O490 C480 1.259 . S
O491 Eu463 2.355 . S
O491 Eu473 2.670 . S
O491 C480 1.270 . S
O492 Eu473 2.394 . S
O492 C481 1.251 . S
O493 Eu463 2.374 . S
O493 C481 1.251 . S
H494 C465 0.931 . S
H495 C466 0.931 . S
H496 C468 0.931 . S
H497 C469 0.931 . S
H498 C475 0.931 . S
H499 C476 0.931 . S
H500 C478 0.931 . S
H501 C479 0.931 . S
C502 Eu503 2.835 . S
C502 C504 1.500 . S
C502 O522 1.257 . S
C502 O523 1.260 . S
Eu503 C502 2.835 . S
Eu503 O522 2.473 . S
Eu503 O523 2.480 . S
Eu503 O524 2.430 . S
Eu503 O525 2.670 . S
Eu503 O526 2.394 . S
Eu503 O531 2.355 . S
Eu503 O533 2.374 . S
C504 C502 1.500 . S
C504 C505 1.377 . S
C504 C509 1.377 . S
C505 C504 1.377 . S
C505 C506 1.395 . S
C505 H534 0.931 . S
C506 C505 1.395 . S
C506 C507 1.383 . S
C506 H535 0.931 . S
C507 C506 1.383 . S
C507 C508 1.394 . S
C508 C507 1.394 . S
C508 C509 1.378 . S
C508 H536 0.931 . S
C509 C504 1.377 . S
C509 C508 1.378 . S
C509 H537 0.931 . S
C510 O524 1.259 . S
C510 O525 1.270 . S
C511 O526 1.251 . S
C511 O527 1.251 . S
C512 Eu513 2.835 . S
C512 C514 1.500 . S
C512 O528 1.257 . S
C512 O529 1.260 . S
Eu513 C512 2.835 . S
Eu513 O525 2.355 . S
Eu513 O527 2.374 . S
Eu513 O528 2.473 . S
Eu513 O529 2.480 . S
Eu513 O530 2.430 . S
Eu513 O531 2.670 . S
Eu513 O532 2.394 . S
C514 C512 1.500 . S
C514 C515 1.377 . S
C514 C519 1.377 . S
C515 C514 1.377 . S
C515 C516 1.395 . S
C515 H538 0.931 . S
C516 C515 1.395 . S
C516 C517 1.383 . S
C516 H539 0.931 . S
C517 C516 1.383 . S
C517 C518 1.394 . S
C518 C517 1.394 . S
C518 C519 1.378 . S
C518 H540 0.931 . S
C519 C514 1.377 . S
C519 C518 1.378 . S
C519 H541 0.931 . S
C520 O530 1.259 . S
C520 O531 1.270 . S
C521 O532 1.251 . S
C521 O533 1.251 . S
O522 C502 1.257 . S
O522 Eu503 2.473 . S
O523 C502 1.260 . S
O523 Eu503 2.480 . S
O524 Eu503 2.430 . S
O524 C510 1.259 . S
O525 Eu503 2.670 . S
O525 C510 1.270 . S
O525 Eu513 2.355 . S
O526 Eu503 2.394 . S
O526 C511 1.251 . S
O527 C511 1.251 . S
O527 Eu513 2.374 . S
O528 C512 1.257 . S
O528 Eu513 2.473 . S
O529 C512 1.260 . S
O529 Eu513 2.480 . S
O530 Eu513 2.430 . S
O530 C520 1.259 . S
O531 Eu503 2.355 . S
O531 Eu513 2.670 . S
O531 C520 1.270 . S
O532 Eu513 2.394 . S
O532 C521 1.251 . S
O533 Eu503 2.374 . S
O533 C521 1.251 . S
H534 C505 0.931 . S
H535 C506 0.931 . S
H536 C508 0.931 . S
H537 C509 0.931 . S
H538 C515 0.931 . S
H539 C516 0.931 . S
H540 C518 0.931 . S
H541 C519 0.931 . S
C542 Eu543 2.835 . S
C542 C544 1.500 . S
C542 O562 1.257 . S
C542 O563 1.260 . S
Eu543 C542 2.835 . S
Eu543 O562 2.473 . S
Eu543 O563 2.480 . S
Eu543 O564 2.430 . S
Eu543 O565 2.670 . S
Eu543 O566 2.394 . S
Eu543 O571 2.355 . S
Eu543 O573 2.374 . S
C544 C542 1.500 . S
C544 C545 1.377 . S
C544 C549 1.377 . S
C545 C544 1.377 . S
C545 C546 1.395 . S
C545 H574 0.931 . S
C546 C545 1.395 . S
C546 C547 1.383 . S
C546 H575 0.931 . S
C547 C546 1.383 . S
C547 C548 1.394 . S
C548 C547 1.394 . S
C548 C549 1.378 . S
C548 H576 0.931 . S
C549 C544 1.377 . S
C549 C548 1.378 . S
C549 H577 0.931 . S
C550 O564 1.259 . S
C550 O565 1.270 . S
C551 O566 1.251 . S
C551 O567 1.251 . S
C552 Eu553 2.835 . S
C552 C554 1.500 . S
C552 O568 1.257 . S
C552 O569 1.260 . S
Eu553 C552 2.835 . S
Eu553 O565 2.355 . S
Eu553 O567 2.374 . S
Eu553 O568 2.473 . S
Eu553 O569 2.480 . S
Eu553 O570 2.430 . S
Eu553 O571 2.670 . S
Eu553 O572 2.394 . S
C554 C552 1.500 . S
C554 C555 1.377 . S
C554 C559 1.377 . S
C555 C554 1.377 . S
C555 C556 1.395 . S
C555 H578 0.931 . S
C556 C555 1.395 . S
C556 C557 1.383 . S
C556 H579 0.931 . S
C557 C556 1.383 . S
C557 C558 1.394 . S
C558 C557 1.394 . S
C558 C559 1.378 . S
C558 H580 0.931 . S
C559 C554 1.377 . S
C559 C558 1.378 . S
C559 H581 0.931 . S
C560 O570 1.259 . S
C560 O571 1.270 . S
C561 O572 1.251 . S
C561 O573 1.251 . S
O562 C542 1.257 . S
O562 Eu543 2.473 . S
O563 C542 1.260 . S
O563 Eu543 2.480 . S
O564 Eu543 2.430 . S
O564 C550 1.259 . S
O565 Eu543 2.670 . S
O565 C550 1.270 . S
O565 Eu553 2.355 . S
O566 Eu543 2.394 . S
O566 C551 1.251 . S
O567 C551 1.251 . S
O567 Eu553 2.374 . S
O568 C552 1.257 . S
O568 Eu553 2.473 . S
O569 C552 1.260 . S
O569 Eu553 2.480 . S
O570 Eu553 2.430 . S
O570 C560 1.259 . S
O571 Eu543 2.355 . S
O571 Eu553 2.670 . S
O571 C560 1.270 . S
O572 Eu553 2.394 . S
O572 C561 1.251 . S
O573 Eu543 2.374 . S
O573 C561 1.251 . S
H574 C545 0.931 . S
H575 C546 0.931 . S
H576 C548 0.931 . S
H577 C549 0.931 . S
H578 C555 0.931 . S
H579 C556 0.931 . S
H580 C558 0.931 . S
H581 C559 0.931 . S
C582 Eu583 2.835 . S
C582 C584 1.500 . S
C582 O602 1.257 . S
C582 O603 1.260 . S
Eu583 C582 2.835 . S
Eu583 O602 2.473 . S
Eu583 O603 2.480 . S
Eu583 O604 2.430 . S
Eu583 O605 2.670 . S
Eu583 O606 2.394 . S
Eu583 O611 2.355 . S
Eu583 O613 2.374 . S
C584 C582 1.500 . S
C584 C585 1.377 . S
C584 C589 1.377 . S
C585 C584 1.377 . S
C585 C586 1.395 . S
C585 H614 0.931 . S
C586 C585 1.395 . S
C586 C587 1.383 . S
C586 H615 0.931 . S
C587 C586 1.383 . S
C587 C588 1.394 . S
C588 C587 1.394 . S
C588 C589 1.378 . S
C588 H616 0.931 . S
C589 C584 1.377 . S
C589 C588 1.378 . S
C589 H617 0.931 . S
C590 O604 1.259 . S
C590 O605 1.270 . S
C591 O606 1.251 . S
C591 O607 1.251 . S
C592 Eu593 2.835 . S
C592 C594 1.500 . S
C592 O608 1.257 . S
C592 O609 1.260 . S
Eu593 C592 2.835 . S
Eu593 O605 2.355 . S
Eu593 O607 2.374 . S
Eu593 O608 2.473 . S
Eu593 O609 2.480 . S
Eu593 O610 2.430 . S
Eu593 O611 2.670 . S
Eu593 O612 2.394 . S
C594 C592 1.500 . S
C594 C595 1.377 . S
C594 C599 1.377 . S
C595 C594 1.377 . S
C595 C596 1.395 . S
C595 H618 0.931 . S
C596 C595 1.395 . S
C596 C597 1.383 . S
C596 H619 0.931 . S
C597 C596 1.383 . S
C597 C598 1.394 . S
C598 C597 1.394 . S
C598 C599 1.378 . S
C598 H620 0.931 . S
C599 C594 1.377 . S
C599 C598 1.378 . S
C599 H621 0.931 . S
C600 O610 1.259 . S
C600 O611 1.270 . S
C601 O612 1.251 . S
C601 O613 1.251 . S
O602 C582 1.257 . S
O602 Eu583 2.473 . S
O603 C582 1.260 . S
O603 Eu583 2.480 . S
O604 Eu583 2.430 . S
O604 C590 1.259 . S
O605 Eu583 2.670 . S
O605 C590 1.270 . S
O605 Eu593 2.355 . S
O606 Eu583 2.394 . S
O606 C591 1.251 . S
O607 C591 1.251 . S
O607 Eu593 2.374 . S
O608 C592 1.257 . S
O608 Eu593 2.473 . S
O609 C592 1.260 . S
O609 Eu593 2.480 . S
O610 Eu593 2.430 . S
O610 C600 1.259 . S
O611 Eu583 2.355 . S
O611 Eu593 2.670 . S
O611 C600 1.270 . S
O612 Eu593 2.394 . S
O612 C601 1.251 . S
O613 Eu583 2.374 . S
O613 C601 1.251 . S
H614 C585 0.931 . S
H615 C586 0.931 . S
H616 C588 0.931 . S
H617 C589 0.931 . S
H618 C595 0.931 . S
H619 C596 0.931 . S
H620 C598 0.931 . S
H621 C599 0.931 . S
C622 Eu623 2.835 . S
C622 C624 1.500 . S
C622 O642 1.257 . S
C622 O643 1.260 . S
Eu623 C622 2.835 . S
Eu623 O642 2.473 . S
Eu623 O643 2.480 . S
Eu623 O644 2.430 . S
Eu623 O645 2.670 . S
Eu623 O646 2.394 . S
Eu623 O651 2.355 . S
Eu623 O653 2.374 . S
C624 C622 1.500 . S
C624 C625 1.377 . S
C624 C629 1.377 . S
C625 C624 1.377 . S
C625 C626 1.395 . S
C625 H654 0.931 . S
C626 C625 1.395 . S
C626 C627 1.383 . S
C626 H655 0.931 . S
C627 C626 1.383 . S
C627 C628 1.394 . S
C628 C627 1.394 . S
C628 C629 1.378 . S
C628 H656 0.931 . S
C629 C624 1.377 . S
C629 C628 1.378 . S
C629 H657 0.931 . S
C630 O644 1.259 . S
C630 O645 1.270 . S
C631 O646 1.251 . S
C631 O647 1.251 . S
C632 Eu633 2.835 . S
C632 C634 1.500 . S
C632 O648 1.257 . S
C632 O649 1.260 . S
Eu633 C632 2.835 . S
Eu633 O645 2.355 . S
Eu633 O647 2.374 . S
Eu633 O648 2.473 . S
Eu633 O649 2.480 . S
Eu633 O650 2.430 . S
Eu633 O651 2.670 . S
Eu633 O652 2.394 . S
C634 C632 1.500 . S
C634 C635 1.377 . S
C634 C639 1.377 . S
C635 C634 1.377 . S
C635 C636 1.395 . S
C635 H658 0.931 . S
C636 C635 1.395 . S
C636 C637 1.383 . S
C636 H659 0.931 . S
C637 C636 1.383 . S
C637 C638 1.394 . S
C638 C637 1.394 . S
C638 C639 1.378 . S
C638 H660 0.931 . S
C639 C634 1.377 . S
C639 C638 1.378 . S
C639 H661 0.931 . S
C640 O650 1.259 . S
C640 O651 1.270 . S
C641 O652 1.251 . S
C641 O653 1.251 . S
O642 C622 1.257 . S
O642 Eu623 2.473 . S
O643 C622 1.260 . S
O643 Eu623 2.480 . S
O644 Eu623 2.430 . S
O644 C630 1.259 . S
O645 Eu623 2.670 . S
O645 C630 1.270 . S
O645 Eu633 2.355 . S
O646 Eu623 2.394 . S
O646 C631 1.251 . S
O647 C631 1.251 . S
O647 Eu633 2.374 . S
O648 C632 1.257 . S
O648 Eu633 2.473 . S
O649 C632 1.260 . S
O649 Eu633 2.480 . S
O650 Eu633 2.430 . S
O650 C640 1.259 . S
O651 Eu623 2.355 . S
O651 Eu633 2.670 . S
O651 C640 1.270 . S
O652 Eu633 2.394 . S
O652 C641 1.251 . S
O653 Eu623 2.374 . S
O653 C641 1.251 . S
H654 C625 0.931 . S
H655 C626 0.931 . S
H656 C628 0.931 . S
H657 C629 0.931 . S
H658 C635 0.931 . S
H659 C636 0.931 . S
H660 C638 0.931 . S
H661 C639 0.931 . S
C662 Eu663 2.835 . S
C662 C664 1.500 . S
C662 O682 1.257 . S
C662 O683 1.260 . S
Eu663 C662 2.835 . S
Eu663 O682 2.473 . S
Eu663 O683 2.480 . S
Eu663 O684 2.430 . S
Eu663 O685 2.670 . S
Eu663 O686 2.394 . S
Eu663 O691 2.355 . S
Eu663 O693 2.374 . S
C664 C662 1.500 . S
C664 C665 1.377 . S
C664 C669 1.377 . S
C665 C664 1.377 . S
C665 C666 1.395 . S
C665 H694 0.931 . S
C666 C665 1.395 . S
C666 C667 1.383 . S
C666 H695 0.931 . S
C667 C666 1.383 . S
C667 C668 1.394 . S
C668 C667 1.394 . S
C668 C669 1.378 . S
C668 H696 0.931 . S
C669 C664 1.377 . S
C669 C668 1.378 . S
C669 H697 0.931 . S
C670 O684 1.259 . S
C670 O685 1.270 . S
C671 O686 1.251 . S
C671 O687 1.251 . S
C672 Eu673 2.835 . S
C672 C674 1.500 . S
C672 O688 1.257 . S
C672 O689 1.260 . S
Eu673 C672 2.835 . S
Eu673 O685 2.355 . S
Eu673 O687 2.374 . S
Eu673 O688 2.473 . S
Eu673 O689 2.480 . S
Eu673 O690 2.430 . S
Eu673 O691 2.670 . S
Eu673 O692 2.394 . S
C674 C672 1.500 . S
C674 C675 1.377 . S
C674 C679 1.377 . S
C675 C674 1.377 . S
C675 C676 1.395 . S
C675 H698 0.931 . S
C676 C675 1.395 . S
C676 C677 1.383 . S
C676 H699 0.931 . S
C677 C676 1.383 . S
C677 C678 1.394 . S
C678 C677 1.394 . S
C678 C679 1.378 . S
C678 H700 0.931 . S
C679 C674 1.377 . S
C679 C678 1.378 . S
C679 H701 0.931 . S
C680 O690 1.259 . S
C680 O691 1.270 . S
C681 O692 1.251 . S
C681 O693 1.251 . S
O682 C662 1.257 . S
O682 Eu663 2.473 . S
O683 C662 1.260 . S
O683 Eu663 2.480 . S
O684 Eu663 2.430 . S
O684 C670 1.259 . S
O685 Eu663 2.670 . S
O685 C670 1.270 . S
O685 Eu673 2.355 . S
O686 Eu663 2.394 . S
O686 C671 1.251 . S
O687 C671 1.251 . S
O687 Eu673 2.374 . S
O688 C672 1.257 . S
O688 Eu673 2.473 . S
O689 C672 1.260 . S
O689 Eu673 2.480 . S
O690 Eu673 2.430 . S
O690 C680 1.259 . S
O691 Eu663 2.355 . S
O691 Eu673 2.670 . S
O691 C680 1.270 . S
O692 Eu673 2.394 . S
O692 C681 1.251 . S
O693 Eu663 2.374 . S
O693 C681 1.251 . S
H694 C665 0.931 . S
H695 C666 0.931 . S
H696 C668 0.931 . S
H697 C669 0.931 . S
H698 C675 0.931 . S
H699 C676 0.931 . S
H700 C678 0.931 . S
H701 C679 0.931 . S
H702 C708 0.930 . S
H703 C711 0.930 . S
H704 C712 0.930 . S
H705 C713 0.930 . S
H706 C716 0.930 . S
H707 C717 0.930 . S
C708 H702 0.930 . S
C708 C709 1.355 . S
C708 C710 1.415 . S
C709 C708 1.355 . S
C709 C711 1.419 . S
C710 C708 1.415 . S
C710 C715 1.425 . S
C710 C717 1.409 . S
C711 H703 0.930 . S
C711 C709 1.419 . S
C711 C712 1.362 . S
C712 H704 0.930 . S
C712 C711 1.362 . S
C712 C715 1.409 . S
C713 H705 0.930 . S
C713 C714 1.355 . S
C713 C715 1.415 . S
C714 C713 1.355 . S
C714 C716 1.419 . S
C715 C710 1.425 . S
C715 C712 1.409 . S
C715 C713 1.415 . S
C716 H706 0.930 . S
C716 C714 1.419 . S
C716 C717 1.362 . S
C717 H707 0.930 . S
C717 C710 1.409 . S
C717 C716 1.362 . S
H718 C724 0.930 . S
H719 C727 0.930 . S
H720 C728 0.930 . S
H721 C729 0.930 . S
H722 C732 0.930 . S
H723 C733 0.930 . S
C724 H718 0.930 . S
C724 C725 1.355 . S
C724 C726 1.415 . S
C725 C724 1.355 . S
C725 C727 1.419 . S
C726 C724 1.415 . S
C726 C731 1.425 . S
C726 C733 1.409 . S
C727 H719 0.930 . S
C727 C725 1.419 . S
C727 C728 1.362 . S
C728 H720 0.930 . S
C728 C727 1.362 . S
C728 C731 1.409 . S
C729 H721 0.930 . S
C729 C730 1.355 . S
C729 C731 1.415 . S
C730 C729 1.355 . S
C730 C732 1.419 . S
C731 C726 1.425 . S
C731 C728 1.409 . S
C731 C729 1.415 . S
C732 H722 0.930 . S
C732 C730 1.419 . S
C732 C733 1.362 . S
C733 H723 0.930 . S
C733 C726 1.409 . S
C733 C732 1.362 . S
H734 C740 0.930 . S
H735 C743 0.930 . S
H736 C744 0.930 . S
H737 C745 0.930 . S
H738 C748 0.930 . S
H739 C749 0.930 . S
C740 H734 0.930 . S
C740 C741 1.355 . S
C740 C742 1.415 . S
C741 C740 1.355 . S
C741 C743 1.419 . S
C742 C740 1.415 . S
C742 C747 1.425 . S
C742 C749 1.409 . S
C743 H735 0.930 . S
C743 C741 1.419 . S
C743 C744 1.362 . S
C744 H736 0.930 . S
C744 C743 1.362 . S
C744 C747 1.409 . S
C745 H737 0.930 . S
C745 C746 1.355 . S
C745 C747 1.415 . S
C746 C745 1.355 . S
C746 C748 1.419 . S
C747 C742 1.425 . S
C747 C744 1.409 . S
C747 C745 1.415 . S
C748 H738 0.930 . S
C748 C746 1.419 . S
C748 C749 1.362 . S
C749 H739 0.930 . S
C749 C742 1.409 . S
C749 C748 1.362 . S
H750 C756 0.930 . S
H751 C759 0.930 1_554 S
H752 C760 0.930 . S
H753 C761 0.930 . S
H754 C764 0.930 . S
H755 C765 0.930 . S
C756 H750 0.930 . S
C756 C757 1.355 . S
C756 C758 1.415 . S
C757 C756 1.355 . S
C757 C759 1.419 . S
C758 C756 1.415 . S
C758 C763 1.425 . S
C758 C765 1.409 . S
C759 H751 0.930 1_556 S
C759 C757 1.419 . S
C759 C760 1.362 1_556 S
C760 H752 0.930 . S
C760 C759 1.362 1_554 S
C760 C763 1.409 1_554 S
C761 H753 0.930 . S
C761 C762 1.355 1_554 S
C761 C763 1.415 1_554 S
C762 C761 1.355 1_556 S
C762 C764 1.419 . S
C763 C758 1.425 . S
C763 C760 1.409 1_556 S
C763 C761 1.415 1_556 S
C764 H754 0.930 . S
C764 C762 1.419 . S
C764 C765 1.362 . S
C765 H755 0.930 . S
C765 C758 1.409 . S
C765 C764 1.362 . S
H766 C772 0.930 . S
H767 C775 0.930 . S
H768 C776 0.930 1_554 S
H769 C777 0.930 1_554 S
H770 C780 0.930 . S
H771 C781 0.930 . S
C772 H766 0.930 . S
C772 C773 1.355 . S
C772 C774 1.415 . S
C773 C772 1.355 . S
C773 C775 1.419 . S
C774 C772 1.415 . S
C774 C779 1.425 . S
C774 C781 1.409 . S
C775 H767 0.930 . S
C775 C773 1.419 . S
C775 C776 1.362 . S
C776 H768 0.930 1_556 S
C776 C775 1.362 . S
C776 C779 1.409 . S
C777 H769 0.930 1_556 S
C777 C778 1.355 . S
C777 C779 1.415 . S
C778 C777 1.355 . S
C778 C780 1.419 . S
C779 C774 1.425 . S
C779 C776 1.409 . S
C779 C777 1.415 . S
C780 H770 0.930 . S
C780 C778 1.419 . S
C780 C781 1.362 . S
C781 H771 0.930 . S
C781 C774 1.409 . S
C781 C780 1.362 . S
H782 C788 0.930 . S
H783 C791 0.930 1_554 S
H784 C792 0.930 . S
H785 C793 0.930 . S
H786 C796 0.930 . S
H787 C797 0.930 . S
C788 H782 0.930 . S
C788 C789 1.355 . S
C788 C790 1.415 . S
C789 C788 1.355 . S
C789 C791 1.419 . S
C790 C788 1.415 . S
C790 C795 1.425 . S
C790 C797 1.409 . S
C791 H783 0.930 1_556 S
C791 C789 1.419 . S
C791 C792 1.362 1_556 S
C792 H784 0.930 . S
C792 C791 1.362 1_554 S
C792 C795 1.409 1_554 S
C793 H785 0.930 . S
C793 C794 1.355 1_554 S
C793 C795 1.415 1_554 S
C794 C793 1.355 1_556 S
C794 C796 1.419 . S
C795 C790 1.425 . S
C795 C792 1.409 1_556 S
C795 C793 1.415 1_556 S
C796 H786 0.930 . S
C796 C794 1.419 . S
C796 C797 1.362 . S
C797 H787 0.930 . S
C797 C790 1.409 . S
C797 C796 1.362 . S
H798 C804 0.930 1_554 S
H799 C807 0.930 . S
H800 C808 0.930 . S
H801 C809 0.930 . S
H802 C812 0.930 . S
H803 C813 0.930 . S
C804 H798 0.930 1_556 S
C804 C805 1.355 . S
C804 C806 1.415 . S
C805 C804 1.355 . S
C805 C807 1.419 . S
C806 C804 1.415 . S
C806 C811 1.425 . S
C806 C813 1.409 1_556 S
C807 H799 0.930 . S
C807 C805 1.419 . S
C807 C808 1.362 . S
C808 H800 0.930 . S
C808 C807 1.362 . S
C808 C811 1.409 . S
C809 H801 0.930 . S
C809 C810 1.355 . S
C809 C811 1.415 . S
C810 C809 1.355 . S
C810 C812 1.419 1_556 S
C811 C806 1.425 . S
C811 C808 1.409 . S
C811 C809 1.415 . S
C812 H802 0.930 . S
C812 C810 1.419 1_554 S
C812 C813 1.362 . S
C813 H803 0.930 . S
C813 C806 1.409 1_554 S
C813 C812 1.362 . S
H814 C820 0.930 . S
H815 C823 0.930 . S
H816 C824 0.930 . S
H817 C825 0.930 . S
H818 C828 0.930 . S
H819 C829 0.930 . S
C820 H814 0.930 . S
C820 C821 1.355 . S
C820 C822 1.415 . S
C821 C820 1.355 . S
C821 C823 1.419 . S
C822 C820 1.415 . S
C822 C827 1.425 . S
C822 C829 1.409 . S
C823 H815 0.930 . S
C823 C821 1.419 . S
C823 C824 1.362 . S
C824 H816 0.930 . S
C824 C823 1.362 . S
C824 C827 1.409 . S
C825 H817 0.930 . S
C825 C826 1.355 . S
C825 C827 1.415 . S
C826 C825 1.355 . S
C826 C828 1.419 . S
C827 C822 1.425 . S
C827 C824 1.409 . S
C827 C825 1.415 . S
C828 H818 0.930 . S
C828 C826 1.419 . S
C828 C829 1.362 . S
C829 H819 0.930 . S
C829 C822 1.409 . S
C829 C828 1.362 . S
H830 C836 0.930 . S
H831 C839 0.930 . S
H832 C840 0.930 . S
H833 C841 0.930 . S
H834 C844 0.930 . S
H835 C845 0.930 . S
C836 H830 0.930 . S
C836 C837 1.355 1_556 S
C836 C838 1.415 . S
C837 C836 1.355 1_554 S
C837 C839 1.419 . S
C838 C836 1.415 . S
C838 C843 1.425 1_556 S
C838 C845 1.409 . S
C839 H831 0.930 . S
C839 C837 1.419 . S
C839 C840 1.362 . S
C840 H832 0.930 . S
C840 C839 1.362 . S
C840 C843 1.409 . S
C841 H833 0.930 . S
C841 C842 1.355 . S
C841 C843 1.415 . S
C842 C841 1.355 . S
C842 C844 1.419 1_554 S
C843 C838 1.425 1_554 S
C843 C840 1.409 . S
C843 C841 1.415 . S
C844 H834 0.930 . S
C844 C842 1.419 1_556 S
C844 C845 1.362 . S
C845 H835 0.930 . S
C845 C838 1.409 . S
C845 C844 1.362 . S
H846 C852 0.930 . S
H847 C855 0.930 . S
H848 C856 0.930 . S
H849 C857 0.931 1_556 S
H850 C860 0.930 . S
H851 C861 0.930 . S
C852 H846 0.930 . S
C852 C853 1.355 . S
C852 C854 1.415 . S
C853 C852 1.355 . S
C853 C855 1.419 1_554 S
C854 C852 1.415 . S
C854 C859 1.425 . S
C854 C861 1.409 . S
C855 H847 0.930 . S
C855 C853 1.419 1_556 S
C855 C856 1.362 . S
C856 H848 0.930 . S
C856 C855 1.362 . S
C856 C859 1.409 1_556 S
C857 H849 0.931 1_554 S
C857 C858 1.353 . S
C857 C859 1.414 . S
C858 C857 1.353 . S
C858 C860 1.419 . S
C859 C854 1.425 . S
C859 C856 1.409 1_554 S
C859 C857 1.414 . S
C860 H850 0.930 . S
C860 C858 1.419 . S
C860 C861 1.362 . S
C861 H851 0.930 . S
C861 C854 1.409 . S
C861 C860 1.362 . S
H862 C868 0.930 . S
H863 C871 0.930 . S
H864 C872 0.930 . S
H865 C873 0.930 . S
H866 C876 0.930 . S
H867 C877 0.930 . S
C868 H862 0.930 . S
C868 C869 1.355 . S
C868 C870 1.415 . S
C869 C868 1.355 . S
C869 C871 1.419 . S
C870 C868 1.415 . S
C870 C875 1.425 . S
C870 C877 1.409 . S
C871 H863 0.930 . S
C871 C869 1.419 . S
C871 C872 1.362 . S
C872 H864 0.930 . S
C872 C871 1.362 . S
C872 C875 1.409 . S
C873 H865 0.930 . S
C873 C874 1.355 . S
C873 C875 1.415 . S
C874 C873 1.355 . S
C874 C876 1.419 . S
C875 C870 1.425 . S
C875 C872 1.409 . S
C875 C873 1.415 . S
C876 H866 0.930 . S
C876 C874 1.419 . S
C876 C877 1.362 . S
C877 H867 0.930 . S
C877 C870 1.409 . S
C877 C876 1.362 . S
H878 C884 0.930 . S
H879 C887 0.930 . S
H880 C888 0.930 . S
H881 C889 0.930 . S
H882 C892 0.930 . S
H883 C893 0.930 . S
C884 H878 0.930 . S
C884 C885 1.355 . S
C884 C886 1.415 . S
C885 C884 1.355 . S
C885 C887 1.419 . S
C886 C884 1.415 . S
C886 C891 1.425 . S
C886 C893 1.409 . S
C887 H879 0.930 . S
C887 C885 1.419 . S
C887 C888 1.362 . S
C888 H880 0.930 . S
C888 C887 1.362 . S
C888 C891 1.409 . S
C889 H881 0.930 . S
C889 C890 1.355 . S
C889 C891 1.415 . S
C890 C889 1.355 . S
C890 C892 1.419 . S
C891 C886 1.425 . S
C891 C888 1.409 . S
C891 C889 1.415 . S
C892 H882 0.930 . S
C892 C890 1.419 . S
C892 C893 1.362 . S
C893 H883 0.930 . S
C893 C886 1.409 . S
C893 C892 1.362 . S
H894 C900 0.930 . S
H895 C903 0.930 . S
H896 C904 0.930 . S
H897 C905 0.930 . S
H898 C908 0.930 . S
H899 C909 0.930 . S
C900 H894 0.930 . S
C900 C901 1.355 . S
C900 C902 1.415 . S
C901 C900 1.355 . S
C901 C903 1.419 . S
C902 C900 1.415 . S
C902 C907 1.425 . S
C902 C909 1.409 1_655 S
C903 H895 0.930 . S
C903 C901 1.419 . S
C903 C904 1.362 . S
C904 H896 0.930 . S
C904 C903 1.362 . S
C904 C907 1.409 . S
C905 H897 0.930 . S
C905 C906 1.355 . S
C905 C907 1.415 1_455 S
C906 C905 1.355 . S
C906 C908 1.419 . S
C907 C902 1.425 . S
C907 C904 1.409 . S
C907 C905 1.415 1_655 S
C908 H898 0.930 . S
C908 C906 1.419 . S
C908 C909 1.362 . S
C909 H899 0.930 . S
C909 C902 1.409 1_455 S
C909 C908 1.362 . S
H910 C916 0.930 . S
H911 C919 0.930 . S
H912 C920 0.930 . S
H913 C921 0.930 . S
H914 C924 0.930 . S
H915 C925 0.930 . S
C916 H910 0.930 . S
C916 C917 1.355 . S
C916 C918 1.415 . S
C917 C916 1.355 . S
C917 C919 1.419 . S
C918 C916 1.415 . S
C918 C923 1.425 . S
C918 C925 1.409 . S
C919 H911 0.930 . S
C919 C917 1.419 . S
C919 C920 1.362 . S
C920 H912 0.930 . S
C920 C919 1.362 . S
C920 C923 1.409 . S
C921 H913 0.930 . S
C921 C922 1.355 . S
C921 C923 1.415 . S
C922 C921 1.355 . S
C922 C924 1.419 . S
C923 C918 1.425 . S
C923 C920 1.409 . S
C923 C921 1.415 . S
C924 H914 0.930 . S
C924 C922 1.419 . S
C924 C925 1.362 . S
C925 H915 0.930 . S
C925 C918 1.409 . S
C925 C924 1.362 . S
H926 C932 0.930 . S
H927 C935 0.930 . S
H928 C936 0.930 . S
H929 C937 0.930 . S
H930 C940 0.930 . S
H931 C941 0.930 . S
C932 H926 0.930 . S
C932 C933 1.355 . S
C932 C934 1.415 . S
C933 C932 1.355 . S
C933 C935 1.419 . S
C934 C932 1.415 . S
C934 C939 1.425 . S
C934 C941 1.409 1_545 S
C935 H927 0.930 . S
C935 C933 1.419 . S
C935 C936 1.362 . S
C936 H928 0.930 . S
C936 C935 1.362 . S
C936 C939 1.409 . S
C937 H929 0.930 . S
C937 C938 1.355 . S
C937 C939 1.415 1_565 S
C938 C937 1.355 . S
C938 C940 1.419 . S
C939 C934 1.425 . S
C939 C936 1.409 . S
C939 C937 1.415 1_545 S
C940 H930 0.930 . S
C940 C938 1.419 . S
C940 C941 1.362 . S
C941 H931 0.930 . S
C941 C934 1.409 1_565 S
C941 C940 1.362 . S
H942 C948 0.930 . S
H943 C951 0.930 . S
H944 C952 0.930 . S
H945 C953 0.930 . S
H946 C956 0.930 . S
H947 C957 0.930 . S
C948 H942 0.930 . S
C948 C949 1.355 . S
C948 C950 1.415 . S
C949 C948 1.355 . S
C949 C951 1.419 . S
C950 C948 1.415 . S
C950 C955 1.425 . S
C950 C957 1.409 . S
C951 H943 0.930 . S
C951 C949 1.419 . S
C951 C952 1.362 . S
C952 H944 0.930 . S
C952 C951 1.362 . S
C952 C955 1.409 . S
C953 H945 0.930 . S
C953 C954 1.355 . S
C953 C955 1.415 . S
C954 C953 1.355 . S
C954 C956 1.419 . S
C955 C950 1.425 . S
C955 C952 1.409 . S
C955 C953 1.415 . S
C956 H946 0.930 . S
C956 C954 1.419 . S
C956 C957 1.362 . S
C957 H947 0.930 . S
C957 C950 1.409 . S
C957 C956 1.362 . S
H958 C964 0.930 . S
H959 C967 0.930 . S
H960 C968 0.930 . S
H961 C969 0.930 . S
H962 C972 0.930 . S
H963 C973 0.930 . S
C964 H958 0.930 . S
C964 C965 1.355 . S
C964 C966 1.415 . S
C965 C964 1.355 . S
C965 C967 1.419 . S
C966 C964 1.415 . S
C966 C971 1.425 . S
C966 C973 1.409 . S
C967 H959 0.930 . S
C967 C965 1.419 . S
C967 C968 1.362 . S
C968 H960 0.930 . S
C968 C967 1.362 . S
C968 C971 1.409 . S
C969 H961 0.930 . S
C969 C970 1.355 . S
C969 C971 1.415 . S
C970 C969 1.355 . S
C970 C972 1.419 . S
C971 C966 1.425 . S
C971 C968 1.409 . S
C971 C969 1.415 . S
C972 H962 0.930 . S
C972 C970 1.419 . S
C972 C973 1.362 . S
C973 H963 0.930 . S
C973 C966 1.409 . S
C973 C972 1.362 . S
H974 C980 0.930 . S
H975 C983 0.930 . S
H976 C984 0.930 . S
H977 C985 0.930 . S
H978 C988 0.930 . S
H979 C989 0.930 . S
C980 H974 0.930 . S
C980 C981 1.355 . S
C980 C982 1.415 . S
C981 C980 1.355 . S
C981 C983 1.419 . S
C982 C980 1.415 . S
C982 C987 1.425 . S
C982 C989 1.409 . S
C983 H975 0.930 . S
C983 C981 1.419 . S
C983 C984 1.362 . S
C984 H976 0.930 . S
C984 C983 1.362 . S
C984 C987 1.409 . S
C985 H977 0.930 . S
C985 C986 1.355 . S
C985 C987 1.415 . S
C986 C985 1.355 . S
C986 C988 1.419 . S
C987 C982 1.425 . S
C987 C984 1.409 . S
C987 C985 1.415 . S
C988 H978 0.930 . S
C988 C986 1.419 . S
C988 C989 1.362 . S
C989 H979 0.930 . S
C989 C982 1.409 . S
C989 C988 1.362 . S
H990 C996 0.930 . S
H991 C999 0.930 . S
H992 C1000 0.930 . S
H993 C1001 0.930 . S
H994 C1004 0.930 . S
H995 C1005 0.930 . S
C996 H990 0.930 . S
C996 C997 1.355 . S
C996 C998 1.415 . S
C997 C996 1.355 . S
C997 C999 1.419 . S
C998 C996 1.415 . S
C998 C1003 1.425 . S
C998 C1005 1.409 . S
C999 H991 0.930 . S
C999 C997 1.419 . S
C999 C1000 1.362 . S
C1000 H992 0.930 . S
C1000 C999 1.362 . S
C1000 C1003 1.409 . S
C1001 H993 0.930 . S
C1001 C1002 1.355 . S
C1001 C1003 1.415 . S
C1002 C1001 1.355 . S
C1002 C1004 1.419 . S
C1003 C998 1.425 . S
C1003 C1000 1.409 . S
C1003 C1001 1.415 . S
C1004 H994 0.930 . S
C1004 C1002 1.419 . S
C1004 C1005 1.362 . S
C1005 H995 0.930 . S
C1005 C998 1.409 . S
C1005 C1004 1.362 . S
H1006 C1012 0.930 . S
H1007 C1015 0.930 . S
H1008 C1016 0.930 . S
H1009 C1017 0.930 . S
H1010 C1020 0.930 . S
H1011 C1021 0.930 . S
C1012 H1006 0.930 . S
C1012 C1013 1.355 . S
C1012 C1014 1.415 . S
C1013 C1012 1.355 . S
C1013 C1015 1.419 . S
C1014 C1012 1.415 . S
C1014 C1019 1.425 . S
C1014 C1021 1.409 . S
C1015 H1007 0.930 . S
C1015 C1013 1.419 . S
C1015 C1016 1.362 . S
C1016 H1008 0.930 . S
C1016 C1015 1.362 . S
C1016 C1019 1.409 . S
C1017 H1009 0.930 . S
C1017 C1018 1.355 . S
C1017 C1019 1.415 . S
C1018 C1017 1.355 . S
C1018 C1020 1.419 . S
C1019 C1014 1.425 . S
C1019 C1016 1.409 . S
C1019 C1017 1.415 . S
C1020 H1010 0.930 . S
C1020 C1018 1.419 . S
C1020 C1021 1.362 . S
C1021 H1011 0.930 . S
C1021 C1014 1.409 . S
C1021 C1020 1.362 . S
H1022 C1028 0.930 . S
H1023 C1031 0.930 . S
H1024 C1032 0.930 . S
H1025 C1033 0.930 . S
H1026 C1036 0.930 . S
H1027 C1037 0.930 . S
C1028 H1022 0.930 . S
C1028 C1029 1.355 . S
C1028 C1030 1.415 . S
C1029 C1028 1.355 . S
C1029 C1031 1.419 . S
C1030 C1028 1.415 . S
C1030 C1035 1.425 . S
C1030 C1037 1.409 . S
C1031 H1023 0.930 . S
C1031 C1029 1.419 . S
C1031 C1032 1.362 . S
C1032 H1024 0.930 . S
C1032 C1031 1.362 . S
C1032 C1035 1.409 . S
C1033 H1025 0.930 . S
C1033 C1034 1.355 . S
C1033 C1035 1.415 . S
C1034 C1033 1.355 . S
C1034 C1036 1.419 . S
C1035 C1030 1.425 . S
C1035 C1032 1.409 . S
C1035 C1033 1.415 . S
C1036 H1026 0.930 . S
C1036 C1034 1.419 . S
C1036 C1037 1.362 . S
C1037 H1027 0.930 . S
C1037 C1030 1.409 . S
C1037 C1036 1.362 . S
H1038 C1044 0.930 . S
H1039 C1047 0.930 . S
H1040 C1048 0.930 . S
H1041 C1049 0.930 . S
H1042 C1052 0.930 . S
H1043 C1053 0.930 . S
C1044 H1038 0.930 . S
C1044 C1045 1.355 . S
C1044 C1046 1.415 . S
C1045 C1044 1.355 . S
C1045 C1047 1.419 . S
C1046 C1044 1.415 . S
C1046 C1051 1.425 . S
C1046 C1053 1.409 . S
C1047 H1039 0.930 . S
C1047 C1045 1.419 . S
C1047 C1048 1.362 . S
C1048 H1040 0.930 . S
C1048 C1047 1.362 . S
C1048 C1051 1.409 . S
C1049 H1041 0.930 . S
C1049 C1050 1.355 . S
C1049 C1051 1.415 . S
C1050 C1049 1.355 . S
C1050 C1052 1.419 . S
C1051 C1046 1.425 . S
C1051 C1048 1.409 . S
C1051 C1049 1.415 . S
C1052 H1042 0.930 . S
C1052 C1050 1.419 . S
C1052 C1053 1.362 . S
C1053 H1043 0.930 . S
C1053 C1046 1.409 . S
C1053 C1052 1.362 . S
H1054 C1060 0.930 . S
H1055 C1063 0.930 . S
H1056 C1064 0.930 . S
H1057 C1065 0.930 . S
H1058 C1068 0.930 . S
H1059 C1069 0.930 . S
C1060 H1054 0.930 . S
C1060 C1061 1.355 . S
C1060 C1062 1.415 . S
C1061 C1060 1.355 . S
C1061 C1063 1.419 . S
C1062 C1060 1.415 . S
C1062 C1067 1.425 . S
C1062 C1069 1.409 . S
C1063 H1055 0.930 . S
C1063 C1061 1.419 . S
C1063 C1064 1.362 . S
C1064 H1056 0.930 . S
C1064 C1063 1.362 . S
C1064 C1067 1.409 . S
C1065 H1057 0.930 . S
C1065 C1066 1.355 . S
C1065 C1067 1.415 . S
C1066 C1065 1.355 . S
C1066 C1068 1.419 . S
C1067 C1062 1.425 . S
C1067 C1064 1.409 . S
C1067 C1065 1.415 . S
C1068 H1058 0.930 . S
C1068 C1066 1.419 . S
C1068 C1069 1.362 . S
C1069 H1059 0.930 . S
C1069 C1062 1.409 . S
C1069 C1068 1.362 . S
H1070 C1076 0.930 . S
H1071 C1079 0.930 . S
H1072 C1080 0.930 . S
H1073 C1081 0.930 . S
H1074 C1084 0.930 . S
H1075 C1085 0.930 . S
C1076 H1070 0.930 . S
C1076 C1077 1.355 . S
C1076 C1078 1.415 . S
C1077 C1076 1.355 . S
C1077 C1079 1.419 . S
C1078 C1076 1.415 . S
C1078 C1083 1.425 . S
C1078 C1085 1.409 . S
C1079 H1071 0.930 . S
C1079 C1077 1.419 . S
C1079 C1080 1.362 . S
C1080 H1072 0.930 . S
C1080 C1079 1.362 . S
C1080 C1083 1.409 . S
C1081 H1073 0.930 . S
C1081 C1082 1.355 . S
C1081 C1083 1.415 . S
C1082 C1081 1.355 . S
C1082 C1084 1.419 . S
C1083 C1078 1.425 . S
C1083 C1080 1.409 . S
C1083 C1081 1.415 . S
C1084 H1074 0.930 . S
C1084 C1082 1.419 . S
C1084 C1085 1.362 . S
C1085 H1075 0.930 . S
C1085 C1078 1.409 . S
C1085 C1084 1.362 . S
H1086 C1092 0.930 . S
H1087 C1095 0.930 . S
H1088 C1096 0.930 . S
H1089 C1097 0.930 . S
H1090 C1100 0.930 . S
H1091 C1101 0.930 . S
C1092 H1086 0.930 . S
C1092 C1093 1.355 . S
C1092 C1094 1.415 . S
C1093 C1092 1.355 . S
C1093 C1095 1.419 . S
C1094 C1092 1.415 . S
C1094 C1099 1.425 . S
C1094 C1101 1.409 . S
C1095 H1087 0.930 . S
C1095 C1093 1.419 . S
C1095 C1096 1.362 . S
C1096 H1088 0.930 . S
C1096 C1095 1.362 . S
C1096 C1099 1.409 . S
C1097 H1089 0.930 . S
C1097 C1098 1.355 . S
C1097 C1099 1.415 . S
C1098 C1097 1.355 . S
C1098 C1100 1.419 . S
C1099 C1094 1.425 . S
C1099 C1096 1.409 . S
C1099 C1097 1.415 . S
C1100 H1090 0.930 . S
C1100 C1098 1.419 . S
C1100 C1101 1.362 . S
C1101 H1091 0.930 . S
C1101 C1094 1.409 . S
C1101 C1100 1.362 . S
H1102 C1108 0.930 . S
H1103 C1111 0.930 . S
H1104 C1112 0.930 . S
H1105 C1113 0.930 . S
H1106 C1116 0.930 . S
H1107 C1117 0.930 . S
C1108 H1102 0.930 . S
C1108 C1109 1.355 . S
C1108 C1110 1.415 . S
C1109 C1108 1.355 . S
C1109 C1111 1.419 . S
C1110 C1108 1.415 . S
C1110 C1115 1.425 . S
C1110 C1117 1.409 . S
C1111 H1103 0.930 . S
C1111 C1109 1.419 . S
C1111 C1112 1.362 . S
C1112 H1104 0.930 . S
C1112 C1111 1.362 . S
C1112 C1115 1.409 . S
C1113 H1105 0.930 . S
C1113 C1114 1.355 . S
C1113 C1115 1.415 . S
C1114 C1113 1.355 . S
C1114 C1116 1.419 . S
C1115 C1110 1.425 . S
C1115 C1112 1.409 . S
C1115 C1113 1.415 . S
C1116 H1106 0.930 . S
C1116 C1114 1.419 . S
C1116 C1117 1.362 . S
C1117 H1107 0.930 . S
C1117 C1110 1.409 . S
C1117 C1116 1.362 . S
H1118 C1124 0.930 . S
H1119 C1127 0.930 . S
H1120 C1128 0.930 . S
H1121 C1129 0.930 . S
H1122 C1132 0.930 . S
H1123 C1133 0.930 . S
C1124 H1118 0.930 . S
C1124 C1125 1.355 . S
C1124 C1126 1.415 . S
C1125 C1124 1.355 . S
C1125 C1127 1.419 . S
C1126 C1124 1.415 . S
C1126 C1131 1.425 . S
C1126 C1133 1.409 . S
C1127 H1119 0.930 . S
C1127 C1125 1.419 . S
C1127 C1128 1.362 . S
C1128 H1120 0.930 . S
C1128 C1127 1.362 . S
C1128 C1131 1.409 . S
C1129 H1121 0.930 . S
C1129 C1130 1.355 . S
C1129 C1131 1.415 . S
C1130 C1129 1.355 . S
C1130 C1132 1.419 . S
C1131 C1126 1.425 . S
C1131 C1128 1.409 . S
C1131 C1129 1.415 . S
C1132 H1122 0.930 . S
C1132 C1130 1.419 . S
C1132 C1133 1.362 . S
C1133 H1123 0.930 . S
C1133 C1126 1.409 . S
C1133 C1132 1.362 . S
H1134 C1140 0.930 . S
H1135 C1143 0.930 . S
H1136 C1144 0.930 1_545 S
H1137 C1145 0.930 . S
H1138 C1148 0.930 . S
H1139 C1149 0.930 . S
C1140 H1134 0.930 . S
C1140 C1141 1.355 . S
C1140 C1142 1.415 . S
C1141 C1140 1.355 . S
C1141 C1143 1.419 . S
C1142 C1140 1.415 . S
C1142 C1147 1.425 . S
C1142 C1149 1.409 . S
C1143 H1135 0.930 . S
C1143 C1141 1.419 . S
C1143 C1144 1.362 . S
C1144 H1136 0.930 1_565 S
C1144 C1143 1.362 . S
C1144 C1147 1.409 . S
C1145 H1137 0.930 . S
C1145 C1146 1.355 . S
C1145 C1147 1.415 1_545 S
C1146 C1145 1.355 . S
C1146 C1148 1.419 . S
C1147 C1142 1.425 . S
C1147 C1144 1.409 . S
C1147 C1145 1.415 1_565 S
C1148 H1138 0.930 . S
C1148 C1146 1.419 . S
C1148 C1149 1.362 1_545 S
C1149 H1139 0.930 . S
C1149 C1142 1.409 . S
C1149 C1148 1.362 1_565 S
H1150 C1156 0.930 . S
H1151 C1159 0.930 . S
H1152 C1160 0.930 1_655 S
H1153 C1161 0.930 . S
H1154 C1164 0.930 . S
H1155 C1165 0.930 . S
C1156 H1150 0.930 . S
C1156 C1157 1.355 . S
C1156 C1158 1.415 . S
C1157 C1156 1.355 . S
C1157 C1159 1.419 . S
C1158 C1156 1.415 . S
C1158 C1163 1.425 1_455 S
C1158 C1165 1.409 . S
C1159 H1151 0.930 . S
C1159 C1157 1.419 . S
C1159 C1160 1.362 . S
C1160 H1152 0.930 1_455 S
C1160 C1159 1.362 . S
C1160 C1163 1.409 1_455 S
C1161 H1153 0.930 . S
C1161 C1162 1.355 . S
C1161 C1163 1.415 . S
C1162 C1161 1.355 . S
C1162 C1164 1.419 . S
C1163 C1158 1.425 1_655 S
C1163 C1160 1.409 1_655 S
C1163 C1161 1.415 . S
C1164 H1154 0.930 . S
C1164 C1162 1.419 . S
C1164 C1165 1.362 1_655 S
C1165 H1155 0.930 . S
C1165 C1158 1.409 . S
C1165 C1164 1.362 1_455 S
H1166 C1172 0.930 . S
H1167 C1175 0.930 . S
H1168 C1176 0.930 . S
H1169 C1177 0.930 . S
H1170 C1180 0.930 . S
H1171 C1181 0.930 . S
C1172 H1166 0.930 . S
C1172 C1173 1.355 . S
C1172 C1174 1.415 . S
C1173 C1172 1.355 . S
C1173 C1175 1.419 . S
C1174 C1172 1.415 . S
C1174 C1179 1.425 . S
C1174 C1181 1.409 . S
C1175 H1167 0.930 . S
C1175 C1173 1.419 . S
C1175 C1176 1.362 . S
C1176 H1168 0.930 . S
C1176 C1175 1.362 . S
C1176 C1179 1.409 . S
C1177 H1169 0.930 . S
C1177 C1178 1.355 . S
C1177 C1179 1.415 . S
C1178 C1177 1.355 . S
C1178 C1180 1.419 . S
C1179 C1174 1.425 . S
C1179 C1176 1.409 . S
C1179 C1177 1.415 . S
C1180 H1170 0.930 . S
C1180 C1178 1.419 . S
C1180 C1181 1.362 . S
C1181 H1171 0.930 . S
C1181 C1174 1.409 . S
C1181 C1180 1.362 . S
H1182 C1188 0.930 . S
H1183 C1191 0.930 . S
H1184 C1192 0.930 . S
H1185 C1193 0.930 . S
H1186 C1196 0.930 . S
H1187 C1197 0.930 . S
C1188 H1182 0.930 . S
C1188 C1189 1.355 . S
C1188 C1190 1.415 . S
C1189 C1188 1.355 . S
C1189 C1191 1.419 . S
C1190 C1188 1.415 . S
C1190 C1195 1.425 . S
C1190 C1197 1.409 . S
C1191 H1183 0.930 . S
C1191 C1189 1.419 . S
C1191 C1192 1.362 . S
C1192 H1184 0.930 . S
C1192 C1191 1.362 . S
C1192 C1195 1.409 . S
C1193 H1185 0.930 . S
C1193 C1194 1.355 . S
C1193 C1195 1.415 . S
C1194 C1193 1.355 . S
C1194 C1196 1.419 . S
C1195 C1190 1.425 . S
C1195 C1192 1.409 . S
C1195 C1193 1.415 . S
C1196 H1186 0.930 . S
C1196 C1194 1.419 . S
C1196 C1197 1.362 . S
C1197 H1187 0.930 . S
C1197 C1190 1.409 . S
C1197 C1196 1.362 . S
H1198 C1204 0.930 . S
H1199 C1207 0.930 . S
H1200 C1208 0.930 . S
H1201 C1209 0.930 . S
H1202 C1212 0.930 . S
H1203 C1213 0.930 . S
C1204 H1198 0.930 . S
C1204 C1205 1.355 . S
C1204 C1206 1.415 . S
C1205 C1204 1.355 . S
C1205 C1207 1.419 . S
C1206 C1204 1.415 . S
C1206 C1211 1.425 . S
C1206 C1213 1.409 . S
C1207 H1199 0.930 . S
C1207 C1205 1.419 . S
C1207 C1208 1.362 . S
C1208 H1200 0.930 . S
C1208 C1207 1.362 . S
C1208 C1211 1.409 . S
C1209 H1201 0.930 . S
C1209 C1210 1.355 . S
C1209 C1211 1.415 . S
C1210 C1209 1.355 . S
C1210 C1212 1.419 . S
C1211 C1206 1.425 . S
C1211 C1208 1.409 . S
C1211 C1209 1.415 . S
C1212 H1202 0.930 . S
C1212 C1210 1.419 . S
C1212 C1213 1.362 . S
C1213 H1203 0.930 . S
C1213 C1206 1.409 . S
C1213 C1212 1.362 . S
H1214 C1220 0.930 . S
H1215 C1223 0.930 . S
H1216 C1224 0.930 . S
H1217 C1225 0.930 . S
H1218 C1228 0.930 . S
H1219 C1229 0.930 . S
C1220 H1214 0.930 . S
C1220 C1221 1.355 . S
C1220 C1222 1.415 . S
C1221 C1220 1.355 . S
C1221 C1223 1.419 . S
C1222 C1220 1.415 . S
C1222 C1227 1.425 . S
C1222 C1229 1.409 . S
C1223 H1215 0.930 . S
C1223 C1221 1.419 . S
C1223 C1224 1.362 . S
C1224 H1216 0.930 . S
C1224 C1223 1.362 . S
C1224 C1227 1.409 . S
C1225 H1217 0.930 . S
C1225 C1226 1.355 . S
C1225 C1227 1.415 . S
C1226 C1225 1.355 . S
C1226 C1228 1.419 . S
C1227 C1222 1.425 . S
C1227 C1224 1.409 . S
C1227 C1225 1.415 . S
C1228 H1218 0.930 . S
C1228 C1226 1.419 . S
C1228 C1229 1.362 . S
C1229 H1219 0.930 . S
C1229 C1222 1.409 . S
C1229 C1228 1.362 . S
H1230 C1236 0.930 . S
H1231 C1239 0.930 . S
H1232 C1240 0.930 . S
H1233 C1241 0.930 . S
H1234 C1244 0.930 . S
H1235 C1245 0.930 . S
C1236 H1230 0.930 . S
C1236 C1237 1.355 . S
C1236 C1238 1.415 . S
C1237 C1236 1.355 . S
C1237 C1239 1.419 . S
C1238 C1236 1.415 . S
C1238 C1243 1.425 . S
C1238 C1245 1.409 . S
C1239 H1231 0.930 . S
C1239 C1237 1.419 . S
C1239 C1240 1.362 . S
C1240 H1232 0.930 . S
C1240 C1239 1.362 . S
C1240 C1243 1.409 . S
C1241 H1233 0.930 . S
C1241 C1242 1.355 . S
C1241 C1243 1.415 . S
C1242 C1241 1.355 . S
C1242 C1244 1.419 . S
C1243 C1238 1.425 . S
C1243 C1240 1.409 . S
C1243 C1241 1.415 . S
C1244 H1234 0.930 . S
C1244 C1242 1.419 . S
C1244 C1245 1.362 . S
C1245 H1235 0.930 . S
C1245 C1238 1.409 . S
C1245 C1244 1.362 . S
H1246 C1252 0.930 . S
H1247 C1255 0.930 . S
H1248 C1256 0.930 . S
H1249 C1257 0.930 . S
H1250 C1260 0.930 . S
H1251 C1261 0.930 . S
C1252 H1246 0.930 . S
C1252 C1253 1.355 . S
C1252 C1254 1.415 . S
C1253 C1252 1.355 . S
C1253 C1255 1.419 . S
C1254 C1252 1.415 . S
C1254 C1259 1.425 . S
C1254 C1261 1.409 . S
C1255 H1247 0.930 . S
C1255 C1253 1.419 . S
C1255 C1256 1.362 . S
C1256 H1248 0.930 . S
C1256 C1255 1.362 . S
C1256 C1259 1.409 . S
C1257 H1249 0.930 . S
C1257 C1258 1.355 . S
C1257 C1259 1.415 . S
C1258 C1257 1.355 . S
C1258 C1260 1.419 . S
C1259 C1254 1.425 . S
C1259 C1256 1.409 . S
C1259 C1257 1.415 . S
C1260 H1250 0.930 . S
C1260 C1258 1.419 . S
C1260 C1261 1.362 . S
C1261 H1251 0.930 . S
C1261 C1254 1.409 . S
C1261 C1260 1.362 . S
H1262 C1268 0.930 . S
H1263 C1271 0.930 . S
H1264 C1272 0.930 . S
H1265 C1273 0.930 . S
H1266 C1276 0.930 . S
H1267 C1277 0.930 . S
C1268 H1262 0.930 . S
C1268 C1269 1.355 . S
C1268 C1270 1.415 . S
C1269 C1268 1.355 . S
C1269 C1271 1.419 . S
C1270 C1268 1.415 . S
C1270 C1275 1.425 . S
C1270 C1277 1.409 . S
C1271 H1263 0.930 . S
C1271 C1269 1.419 . S
C1271 C1272 1.362 . S
C1272 H1264 0.930 . S
C1272 C1271 1.362 . S
C1272 C1275 1.409 . S
C1273 H1265 0.930 . S
C1273 C1274 1.355 . S
C1273 C1275 1.415 . S
C1274 C1273 1.355 . S
C1274 C1276 1.419 . S
C1275 C1270 1.425 . S
C1275 C1272 1.409 . S
C1275 C1273 1.415 . S
C1276 H1266 0.930 . S
C1276 C1274 1.419 . S
C1276 C1277 1.362 . S
C1277 H1267 0.930 . S
C1277 C1270 1.409 . S
C1277 C1276 1.362 . S
H1278 C1284 0.930 . S
H1279 C1287 0.930 . S
H1280 C1288 0.930 . S
H1281 C1289 0.930 . S
H1282 C1292 0.930 . S
H1283 C1293 0.930 . S
C1284 H1278 0.930 . S
C1284 C1285 1.355 . S
C1284 C1286 1.415 . S
C1285 C1284 1.355 . S
C1285 C1287 1.419 . S
C1286 C1284 1.415 . S
C1286 C1291 1.425 . S
C1286 C1293 1.409 . S
C1287 H1279 0.930 . S
C1287 C1285 1.419 . S
C1287 C1288 1.362 . S
C1288 H1280 0.930 . S
C1288 C1287 1.362 . S
C1288 C1291 1.409 . S
C1289 H1281 0.930 . S
C1289 C1290 1.355 . S
C1289 C1291 1.415 . S
C1290 C1289 1.355 . S
C1290 C1292 1.419 . S
C1291 C1286 1.425 . S
C1291 C1288 1.409 . S
C1291 C1289 1.415 . S
C1292 H1282 0.930 . S
C1292 C1290 1.419 . S
C1292 C1293 1.362 . S
C1293 H1283 0.930 . S
C1293 C1286 1.409 . S
C1293 C1292 1.362 . S
H1294 C1300 0.930 . S
H1295 C1303 0.930 . S
H1296 C1304 0.930 . S
H1297 C1305 0.930 . S
H1298 C1308 0.930 . S
H1299 C1309 0.930 . S
C1300 H1294 0.930 . S
C1300 C1301 1.355 . S
C1300 C1302 1.415 . S
C1301 C1300 1.355 . S
C1301 C1303 1.419 . S
C1302 C1300 1.415 . S
C1302 C1307 1.425 . S
C1302 C1309 1.409 . S
C1303 H1295 0.930 . S
C1303 C1301 1.419 . S
C1303 C1304 1.362 . S
C1304 H1296 0.930 . S
C1304 C1303 1.362 . S
C1304 C1307 1.409 . S
C1305 H1297 0.930 . S
C1305 C1306 1.355 . S
C1305 C1307 1.415 . S
C1306 C1305 1.355 . S
C1306 C1308 1.419 . S
C1307 C1302 1.425 . S
C1307 C1304 1.409 . S
C1307 C1305 1.415 . S
C1308 H1298 0.930 . S
C1308 C1306 1.419 . S
C1308 C1309 1.362 . S
C1309 H1299 0.930 . S
C1309 C1302 1.409 . S
C1309 C1308 1.362 . S
H1310 C1316 0.930 . S
H1311 C1319 0.930 . S
H1312 C1320 0.930 . S
H1313 C1321 0.930 . S
H1314 C1324 0.930 . S
H1315 C1325 0.930 . S
C1316 H1310 0.930 . S
C1316 C1317 1.355 . S
C1316 C1318 1.415 . S
C1317 C1316 1.355 . S
C1317 C1319 1.419 . S
C1318 C1316 1.415 . S
C1318 C1323 1.425 . S
C1318 C1325 1.409 . S
C1319 H1311 0.930 . S
C1319 C1317 1.419 . S
C1319 C1320 1.362 . S
C1320 H1312 0.930 . S
C1320 C1319 1.362 . S
C1320 C1323 1.409 . S
C1321 H1313 0.930 . S
C1321 C1322 1.355 . S
C1321 C1323 1.415 . S
C1322 C1321 1.355 . S
C1322 C1324 1.419 . S
C1323 C1318 1.425 . S
C1323 C1320 1.409 . S
C1323 C1321 1.415 . S
C1324 H1314 0.930 . S
C1324 C1322 1.419 . S
C1324 C1325 1.362 . S
C1325 H1315 0.930 . S
C1325 C1318 1.409 . S
C1325 C1324 1.362 . S
H1326 C1332 0.930 . S
H1327 C1335 0.930 . S
H1328 C1336 0.930 . S
H1329 C1337 0.930 . S
H1330 C1340 0.930 . S
H1331 C1341 0.930 1_455 S
C1332 H1326 0.930 . S
C1332 C1333 1.355 . S
C1332 C1334 1.415 . S
C1333 C1332 1.355 . S
C1333 C1335 1.419 . S
C1334 C1332 1.415 . S
C1334 C1339 1.425 . S
C1334 C1341 1.409 . S
C1335 H1327 0.930 . S
C1335 C1333 1.419 . S
C1335 C1336 1.362 . S
C1336 H1328 0.930 . S
C1336 C1335 1.362 . S
C1336 C1339 1.409 . S
C1337 H1329 0.930 . S
C1337 C1338 1.355 . S
C1337 C1339 1.415 . S
C1338 C1337 1.355 . S
C1338 C1340 1.419 . S
C1339 C1334 1.425 . S
C1339 C1336 1.409 . S
C1339 C1337 1.415 . S
C1340 H1330 0.930 . S
C1340 C1338 1.419 . S
C1340 C1341 1.362 . S
C1341 H1331 0.930 1_655 S
C1341 C1334 1.409 . S
C1341 C1340 1.362 . S
H1342 C1348 0.930 . S
H1343 C1351 0.930 . S
H1344 C1352 0.930 . S
H1345 C1353 0.930 . S
H1346 C1356 0.930 . S
H1347 C1357 0.930 . S
C1348 H1342 0.930 . S
C1348 C1349 1.355 . S
C1348 C1350 1.415 . S
C1349 C1348 1.355 . S
C1349 C1351 1.419 . S
C1350 C1348 1.415 . S
C1350 C1355 1.425 . S
C1350 C1357 1.409 . S
C1351 H1343 0.930 . S
C1351 C1349 1.419 . S
C1351 C1352 1.362 . S
C1352 H1344 0.930 . S
C1352 C1351 1.362 . S
C1352 C1355 1.409 . S
C1353 H1345 0.930 . S
C1353 C1354 1.355 . S
C1353 C1355 1.415 . S
C1354 C1353 1.355 . S
C1354 C1356 1.419 . S
C1355 C1350 1.425 . S
C1355 C1352 1.409 . S
C1355 C1353 1.415 . S
C1356 H1346 0.930 . S
C1356 C1354 1.419 . S
C1356 C1357 1.362 . S
C1357 H1347 0.930 . S
C1357 C1350 1.409 . S
C1357 C1356 1.362 . S
H1358 C1364 0.930 . S
H1359 C1367 0.930 . S
H1360 C1368 0.930 . S
H1361 C1369 0.930 . S
H1362 C1372 0.930 . S
H1363 C1373 0.930 . S
C1364 H1358 0.930 . S
C1364 C1365 1.355 . S
C1364 C1366 1.415 . S
C1365 C1364 1.355 . S
C1365 C1367 1.419 . S
C1366 C1364 1.415 . S
C1366 C1371 1.425 . S
C1366 C1373 1.409 . S
C1367 H1359 0.930 . S
C1367 C1365 1.419 . S
C1367 C1368 1.362 . S
C1368 H1360 0.930 . S
C1368 C1367 1.362 . S
C1368 C1371 1.409 . S
C1369 H1361 0.930 . S
C1369 C1370 1.355 . S
C1369 C1371 1.415 . S
C1370 C1369 1.355 . S
C1370 C1372 1.419 . S
C1371 C1366 1.425 . S
C1371 C1368 1.409 . S
C1371 C1369 1.415 . S
C1372 H1362 0.930 . S
C1372 C1370 1.419 . S
C1372 C1373 1.362 . S
C1373 H1363 0.930 . S
C1373 C1366 1.409 . S
C1373 C1372 1.362 . S
H1374 C1380 0.930 . S
H1375 C1383 0.930 . S
H1376 C1384 0.930 . S
H1377 C1385 0.930 . S
H1378 C1388 0.930 . S
H1379 C1389 0.930 . S
C1380 H1374 0.930 . S
C1380 C1381 1.355 . S
C1380 C1382 1.415 . S
C1381 C1380 1.355 . S
C1381 C1383 1.419 . S
C1382 C1380 1.415 . S
C1382 C1387 1.425 . S
C1382 C1389 1.409 . S
C1383 H1375 0.930 . S
C1383 C1381 1.419 . S
C1383 C1384 1.362 . S
C1384 H1376 0.930 . S
C1384 C1383 1.362 . S
C1384 C1387 1.409 . S
C1385 H1377 0.930 . S
C1385 C1386 1.355 . S
C1385 C1387 1.415 . S
C1386 C1385 1.355 . S
C1386 C1388 1.419 . S
C1387 C1382 1.425 . S
C1387 C1384 1.409 . S
C1387 C1385 1.415 . S
C1388 H1378 0.930 . S
C1388 C1386 1.419 . S
C1388 C1389 1.362 . S
C1389 H1379 0.930 . S
C1389 C1382 1.409 . S
C1389 C1388 1.362 . S
H1390 C1396 0.930 . S
H1391 C1399 0.930 . S
H1392 C1400 0.930 . S
H1393 C1401 0.930 . S
H1394 C1404 0.930 . S
H1395 C1405 0.930 . S
C1396 H1390 0.930 . S
C1396 C1397 1.355 . S
C1396 C1398 1.415 . S
C1397 C1396 1.355 . S
C1397 C1399 1.419 . S
C1398 C1396 1.415 . S
C1398 C1403 1.425 . S
C1398 C1405 1.409 . S
C1399 H1391 0.930 . S
C1399 C1397 1.419 . S
C1399 C1400 1.362 . S
C1400 H1392 0.930 . S
C1400 C1399 1.362 . S
C1400 C1403 1.409 . S
C1401 H1393 0.930 . S
C1401 C1402 1.355 . S
C1401 C1403 1.415 . S
C1402 C1401 1.355 . S
C1402 C1404 1.419 . S
C1403 C1398 1.425 . S
C1403 C1400 1.409 . S
C1403 C1401 1.415 . S
C1404 H1394 0.930 . S
C1404 C1402 1.419 . S
C1404 C1405 1.362 . S
C1405 H1395 0.930 . S
C1405 C1398 1.409 . S
C1405 C1404 1.362 . S
H1406 C1412 0.930 . S
H1407 C1415 0.930 . S
H1408 C1416 0.930 . S
H1409 C1417 0.930 . S
H1410 C1420 0.930 . S
H1411 C1421 0.930 . S
C1412 H1406 0.930 . S
C1412 C1413 1.355 . S
C1412 C1414 1.415 . S
C1413 C1412 1.355 . S
C1413 C1415 1.419 . S
C1414 C1412 1.415 . S
C1414 C1419 1.425 . S
C1414 C1421 1.409 . S
C1415 H1407 0.930 . S
C1415 C1413 1.419 . S
C1415 C1416 1.362 . S
C1416 H1408 0.930 . S
C1416 C1415 1.362 . S
C1416 C1419 1.409 . S
C1417 H1409 0.930 . S
C1417 C1418 1.355 . S
C1417 C1419 1.415 . S
C1418 C1417 1.355 . S
C1418 C1420 1.419 . S
C1419 C1414 1.425 . S
C1419 C1416 1.409 . S
C1419 C1417 1.415 . S
C1420 H1410 0.930 . S
C1420 C1418 1.419 . S
C1420 C1421 1.362 . S
C1421 H1411 0.930 . S
C1421 C1414 1.409 . S
C1421 C1420 1.362 . S
H1422 C1428 0.930 . S
H1423 C1431 0.930 . S
H1424 C1432 0.930 . S
H1425 C1433 0.930 . S
H1426 C1436 0.930 . S
H1427 C1437 0.930 . S
C1428 H1422 0.930 . S
C1428 C1429 1.355 . S
C1428 C1430 1.415 . S
C1429 C1428 1.355 . S
C1429 C1431 1.419 . S
C1430 C1428 1.415 . S
C1430 C1435 1.425 . S
C1430 C1437 1.409 . S
C1431 H1423 0.930 . S
C1431 C1429 1.419 . S
C1431 C1432 1.362 . S
C1432 H1424 0.930 . S
C1432 C1431 1.362 . S
C1432 C1435 1.409 . S
C1433 H1425 0.930 . S
C1433 C1434 1.355 . S
C1433 C1435 1.415 . S
C1434 C1433 1.355 . S
C1434 C1436 1.419 . S
C1435 C1430 1.425 . S
C1435 C1432 1.409 . S
C1435 C1433 1.415 . S
C1436 H1426 0.930 . S
C1436 C1434 1.419 . S
C1436 C1437 1.362 . S
C1437 H1427 0.930 . S
C1437 C1430 1.409 . S
C1437 C1436 1.362 . S
H1438 C1444 0.930 . S
H1439 C1447 0.930 . S
H1440 C1448 0.930 . S
H1441 C1449 0.930 . S
H1442 C1452 0.930 . S
H1443 C1453 0.930 . S
C1444 H1438 0.930 . S
C1444 C1445 1.355 . S
C1444 C1446 1.415 . S
C1445 C1444 1.355 . S
C1445 C1447 1.419 . S
C1446 C1444 1.415 . S
C1446 C1451 1.425 . S
C1446 C1453 1.409 . S
C1447 H1439 0.930 . S
C1447 C1445 1.419 . S
C1447 C1448 1.362 . S
C1448 H1440 0.930 . S
C1448 C1447 1.362 . S
C1448 C1451 1.409 . S
C1449 H1441 0.930 . S
C1449 C1450 1.355 . S
C1449 C1451 1.415 . S
C1450 C1449 1.355 . S
C1450 C1452 1.419 . S
C1451 C1446 1.425 . S
C1451 C1448 1.409 . S
C1451 C1449 1.415 . S
C1452 H1442 0.930 . S
C1452 C1450 1.419 . S
C1452 C1453 1.362 . S
C1453 H1443 0.930 . S
C1453 C1446 1.409 . S
C1453 C1452 1.362 . S
H1454 C1460 0.930 . S
H1455 C1463 0.930 . S
H1456 C1464 0.930 . S
H1457 C1465 0.930 . S
H1458 C1468 0.930 . S
H1459 C1469 0.930 . S
C1460 H1454 0.930 . S
C1460 C1461 1.355 . S
C1460 C1462 1.415 . S
C1461 C1460 1.355 . S
C1461 C1463 1.419 . S
C1462 C1460 1.415 . S
C1462 C1467 1.425 . S
C1462 C1469 1.409 . S
C1463 H1455 0.930 . S
C1463 C1461 1.419 . S
C1463 C1464 1.362 . S
C1464 H1456 0.930 . S
C1464 C1463 1.362 . S
C1464 C1467 1.409 . S
C1465 H1457 0.930 . S
C1465 C1466 1.355 . S
C1465 C1467 1.415 . S
C1466 C1465 1.355 . S
C1466 C1468 1.419 . S
C1467 C1462 1.425 . S
C1467 C1464 1.409 . S
C1467 C1465 1.415 . S
C1468 H1458 0.930 . S
C1468 C1466 1.419 . S
C1468 C1469 1.362 . S
C1469 H1459 0.930 . S
C1469 C1462 1.409 . S
C1469 C1468 1.362 . S
H1470 C1476 0.930 . S
H1471 C1479 0.930 . S
H1472 C1480 0.930 . S
H1473 C1481 0.930 . S
H1474 C1484 0.930 . S
H1475 C1485 0.930 . S
C1476 H1470 0.930 . S
C1476 C1477 1.355 . S
C1476 C1478 1.415 . S
C1477 C1476 1.355 . S
C1477 C1479 1.419 . S
C1478 C1476 1.415 . S
C1478 C1483 1.425 . S
C1478 C1485 1.409 . S
C1479 H1471 0.930 . S
C1479 C1477 1.419 . S
C1479 C1480 1.362 . S
C1480 H1472 0.930 . S
C1480 C1479 1.362 . S
C1480 C1483 1.409 . S
C1481 H1473 0.930 . S
C1481 C1482 1.355 . S
C1481 C1483 1.415 . S
C1482 C1481 1.355 . S
C1482 C1484 1.419 . S
C1483 C1478 1.425 . S
C1483 C1480 1.409 . S
C1483 C1481 1.415 . S
C1484 H1474 0.930 . S
C1484 C1482 1.419 . S
C1484 C1485 1.362 . S
C1485 H1475 0.930 . S
C1485 C1478 1.409 . S
C1485 C1484 1.362 . S
H1486 C1492 0.930 . S
H1487 C1495 0.930 . S
H1488 C1496 0.930 . S
H1489 C1497 0.930 . S
H1490 C1500 0.930 . S
H1491 C1501 0.930 . S
C1492 H1486 0.930 . S
C1492 C1493 1.355 . S
C1492 C1494 1.415 . S
C1493 C1492 1.355 . S
C1493 C1495 1.419 . S
C1494 C1492 1.415 . S
C1494 C1499 1.425 . S
C1494 C1501 1.409 . S
C1495 H1487 0.930 . S
C1495 C1493 1.419 . S
C1495 C1496 1.362 . S
C1496 H1488 0.930 . S
C1496 C1495 1.362 . S
C1496 C1499 1.409 . S
C1497 H1489 0.930 . S
C1497 C1498 1.355 . S
C1497 C1499 1.415 . S
C1498 C1497 1.355 . S
C1498 C1500 1.419 . S
C1499 C1494 1.425 . S
C1499 C1496 1.409 . S
C1499 C1497 1.415 . S
C1500 H1490 0.930 . S
C1500 C1498 1.419 . S
C1500 C1501 1.362 . S
C1501 H1491 0.930 . S
C1501 C1494 1.409 . S
C1501 C1500 1.362 . S
H1502 C1508 0.930 . S
H1503 C1511 0.930 . S
H1504 C1512 0.930 . S
H1505 C1513 0.930 . S
H1506 C1516 0.930 . S
H1507 C1517 0.930 . S
C1508 H1502 0.930 . S
C1508 C1509 1.355 . S
C1508 C1510 1.415 . S
C1509 C1508 1.355 . S
C1509 C1511 1.419 . S
C1510 C1508 1.415 . S
C1510 C1515 1.425 . S
C1510 C1517 1.409 . S
C1511 H1503 0.930 . S
C1511 C1509 1.419 . S
C1511 C1512 1.362 . S
C1512 H1504 0.930 . S
C1512 C1511 1.362 . S
C1512 C1515 1.409 . S
C1513 H1505 0.930 . S
C1513 C1514 1.355 . S
C1513 C1515 1.415 . S
C1514 C1513 1.355 . S
C1514 C1516 1.419 . S
C1515 C1510 1.425 . S
C1515 C1512 1.409 . S
C1515 C1513 1.415 . S
C1516 H1506 0.930 . S
C1516 C1514 1.419 . S
C1516 C1517 1.362 . S
C1517 H1507 0.930 . S
C1517 C1510 1.409 . S
C1517 C1516 1.362 . S
H1518 C1524 0.930 . S
H1519 C1527 0.930 . S
H1520 C1528 0.930 . S
H1521 C1529 0.930 . S
H1522 C1532 0.930 . S
H1523 C1533 0.930 . S
C1524 H1518 0.930 . S
C1524 C1525 1.355 . S
C1524 C1526 1.415 . S
C1525 C1524 1.355 . S
C1525 C1527 1.419 . S
C1526 C1524 1.415 . S
C1526 C1531 1.425 . S
C1526 C1533 1.409 . S
C1527 H1519 0.930 . S
C1527 C1525 1.419 . S
C1527 C1528 1.362 . S
C1528 H1520 0.930 . S
C1528 C1527 1.362 . S
C1528 C1531 1.409 . S
C1529 H1521 0.930 . S
C1529 C1530 1.355 . S
C1529 C1531 1.415 . S
C1530 C1529 1.355 . S
C1530 C1532 1.419 . S
C1531 C1526 1.425 . S
C1531 C1528 1.409 . S
C1531 C1529 1.415 . S
C1532 H1522 0.930 . S
C1532 C1530 1.419 . S
C1532 C1533 1.362 . S
C1533 H1523 0.930 . S
C1533 C1526 1.409 . S
C1533 C1532 1.362 . S
H1534 C1540 0.930 . S
H1535 C1543 0.930 . S
H1536 C1544 0.930 . S
H1537 C1545 0.930 . S
H1538 C1548 0.930 . S
H1539 C1549 0.930 . S
C1540 H1534 0.930 . S
C1540 C1541 1.355 . S
C1540 C1542 1.415 . S
C1541 C1540 1.355 . S
C1541 C1543 1.419 . S
C1542 C1540 1.415 . S
C1542 C1547 1.425 . S
C1542 C1549 1.409 . S
C1543 H1535 0.930 . S
C1543 C1541 1.419 . S
C1543 C1544 1.362 . S
C1544 H1536 0.930 . S
C1544 C1543 1.362 . S
C1544 C1547 1.409 . S
C1545 H1537 0.930 . S
C1545 C1546 1.355 . S
C1545 C1547 1.415 . S
C1546 C1545 1.355 . S
C1546 C1548 1.419 . S
C1547 C1542 1.425 . S
C1547 C1544 1.409 . S
C1547 C1545 1.415 . S
C1548 H1538 0.930 . S
C1548 C1546 1.419 . S
C1548 C1549 1.362 . S
C1549 H1539 0.930 . S
C1549 C1542 1.409 . S
C1549 C1548 1.362 . S
H1550 C1556 0.930 . S
H1551 C1559 0.930 . S
H1552 C1560 0.930 . S
H1553 C1561 0.930 . S
H1554 C1564 0.930 . S
H1555 C1565 0.930 . S
C1556 H1550 0.930 . S
C1556 C1557 1.355 . S
C1556 C1558 1.415 . S
C1557 C1556 1.355 . S
C1557 C1559 1.419 . S
C1558 C1556 1.415 . S
C1558 C1563 1.425 . S
C1558 C1565 1.409 . S
C1559 H1551 0.930 . S
C1559 C1557 1.419 . S
C1559 C1560 1.362 . S
C1560 H1552 0.930 . S
C1560 C1559 1.362 . S
C1560 C1563 1.409 . S
C1561 H1553 0.930 . S
C1561 C1562 1.355 . S
C1561 C1563 1.415 . S
C1562 C1561 1.355 . S
C1562 C1564 1.419 . S
C1563 C1558 1.425 . S
C1563 C1560 1.409 . S
C1563 C1561 1.415 . S
C1564 H1554 0.930 . S
C1564 C1562 1.419 . S
C1564 C1565 1.362 . S
C1565 H1555 0.930 . S
C1565 C1558 1.409 . S
C1565 C1564 1.362 . S
C709 C253 1.691 . S
C714 C351 1.701 . S
C725 C272 1.803 . S
C730 C391 1.802 . S
C741 C234 1.594 . S
C746 C430 1.590 . S
C757 C215 1.506 . S
C762 C390 1.455 . S
C778 C431 1.564 . S
C773 C177 1.565 . S
C789 C196 1.427 . S
C794 C350 1.368 1_556 S
C810 C361 1.651 . S
C805 C220 1.558 . S
C826 C401 1.632 . S
C821 C182 1.568 . S
C837 C201 1.561 . S
C842 C440 1.716 . S
C853 C258 1.391 . S
C858 C400 1.557 . S
C869 C277 1.371 . S
C874 C441 1.470 . S
C890 C360 1.564 1_554 S
C885 C239 1.459 . S
C906 C471 1.712 . S
C901 C25 1.703 . S
C917 C44 1.795 . S
C922 C511 1.795 . S
C933 C6 1.597 . S
C938 C550 1.526 . S
C949 C329 1.475 . S
C954 C510 1.460 . S
C965 C291 1.564 . S
C970 C551 1.564 . S
C981 C310 1.387 . S
C986 C470 1.391 . S
C997 C334 1.464 . S
C1002 C481 1.625 . S
C1013 C296 1.487 . S
C1018 C521 1.580 . S
C1034 C560 1.743 . S
C1029 C315 1.611 . S
C1045 C30 1.453 1_565 S
C1050 C520 1.566 . S
C1066 C561 1.443 . S
C1061 C49 1.294 1_455 S
C1077 C11 1.370 . S
C1082 C480 1.531 . S
C1098 C591 1.719 . S
C1093 C139 1.714 . S
C1109 C158 1.812 . S
C1114 C631 1.811 . S
C1130 C670 1.578 . S
C1125 C120 1.627 . S
C1146 C630 1.454 . S
C1141 C101 1.472 . S
C1162 C671 1.558 . S
C1157 C63 1.557 . S
C1173 C82 1.409 . S
C1178 C590 1.420 . S
C1189 C106 1.484 1_655 S
C1194 C601 1.613 . S
C1205 C68 1.495 . S
C1210 C641 1.576 . S
C1226 C680 1.742 . S
C1221 C87 1.614 1_545 S
C1237 C144 1.466 . S
C1242 C640 1.502 . S
C1253 C163 1.276 . S
C1258 C681 1.430 . S
C1269 C125 1.360 . S
C1274 C600 1.537 . S
C1285 C287 1.652 . S
C1290 C347 1.649 . S
C1306 C387 2.020 . S
C1301 C306 2.015 . S
C1317 C325 1.596 . S
C1322 C437 1.635 . S
C1333 C116 1.791 . S
C1338 C397 1.822 . S
C1349 C135 1.763 . S
C1354 C427 1.777 . S
C1370 C357 1.374 . S
C1365 C154 1.353 . S
C1381 C59 1.650 . S
C1386 C467 1.648 . S
C1397 C78 2.024 . S
C1402 C507 2.031 . S
C1413 C97 1.648 . S
C1418 C557 1.669 . S
C1429 C230 1.825 . S
C1434 C517 1.851 . S
C1450 C547 1.788 . S
C1445 C249 1.774 . S
C1461 C268 1.334 . S
C1466 C477 1.366 . S
C1477 C173 1.595 . S
C1482 C587 1.591 . S
C1493 C192 2.057 . S
C1498 C627 2.061 . S
C1514 C677 1.646 . S
C1509 C211 1.612 . S
C1525 C2 1.786 . S
C1530 C637 1.820 . S
C1541 C21 1.776 . S
C1546 C667 1.789 . S
C1557 C40 1.336 . S
C1562 C597 1.367 . S
