# Generated by pormake.
# Topology anh, (6,3)-cn, num edge types: 1
# Building blocks:
#     Node 0, Type 0, BuildingBlock: BETDEL_clean_sbu_0, # of connection points: 6
#     Node 1, Type 0, BuildingBlock: BETDEL_clean_sbu_0, # of connection points: 6
#     Node 2, Type 0, BuildingBlock: BETDEL_clean_sbu_0, # of connection points: 6
#     Node 3, Type 1, BuildingBlock: VETTIZ_charged_linker_0, # of connection points: 3
#     Node 4, Type 1, BuildingBlock: VETTIZ_charged_linker_0, # of connection points: 3
#     Node 5, Type 1, BuildingBlock: VETTIZ_charged_linker_0, # of connection points: 3
#     Node 6, Type 1, BuildingBlock: VETTIZ_charged_linker_0, # of connection points: 3
#     Node 7, Type 1, BuildingBlock: VETTIZ_charged_linker_0, # of connection points: 3
#     Node 8, Type 1, BuildingBlock: VETTIZ_charged_linker_0, # of connection points: 3
#     Edge 9, Type (0, 1), BuildingBlock: TEMPAE_clean_linker_10, # of connection points: 2
#     Edge 10, Type (0, 1), BuildingBlock: TEMPAE_clean_linker_10, # of connection points: 2
#     Edge 11, Type (0, 1), BuildingBlock: TEMPAE_clean_linker_10, # of connection points: 2
#     Edge 12, Type (0, 1), BuildingBlock: TEMPAE_clean_linker_10, # of connection points: 2
#     Edge 13, Type (0, 1), BuildingBlock: TEMPAE_clean_linker_10, # of connection points: 2
#     Edge 14, Type (0, 1), BuildingBlock: TEMPAE_clean_linker_10, # of connection points: 2
#     Edge 15, Type (0, 1), BuildingBlock: TEMPAE_clean_linker_10, # of connection points: 2
#     Edge 16, Type (0, 1), BuildingBlock: TEMPAE_clean_linker_10, # of connection points: 2
#     Edge 17, Type (0, 1), BuildingBlock: TEMPAE_clean_linker_10, # of connection points: 2
#     Edge 18, Type (0, 1), BuildingBlock: TEMPAE_clean_linker_10, # of connection points: 2
#     Edge 19, Type (0, 1), BuildingBlock: TEMPAE_clean_linker_10, # of connection points: 2
#     Edge 20, Type (0, 1), BuildingBlock: TEMPAE_clean_linker_10, # of connection points: 2
#     Edge 21, Type (0, 1), BuildingBlock: TEMPAE_clean_linker_10, # of connection points: 2
#     Edge 22, Type (0, 1), BuildingBlock: TEMPAE_clean_linker_10, # of connection points: 2
#     Edge 23, Type (0, 1), BuildingBlock: TEMPAE_clean_linker_10, # of connection points: 2
#     Edge 24, Type (0, 1), BuildingBlock: TEMPAE_clean_linker_10, # of connection points: 2
#     Edge 25, Type (0, 1), BuildingBlock: TEMPAE_clean_linker_10, # of connection points: 2
#     Edge 26, Type (0, 1), BuildingBlock: TEMPAE_clean_linker_10, # of connection points: 2
# Relax obj value: 0.144
# Max RMSD: 0.167
# Mean RMSD: 0.135
data_MOF--net-anh--node1-BETDEL_clean_sbu_0--node2-VETTIZ_charged_linker_0--edge1-TEMPAE_clean_linker_10
_symmetry_space_group_name_H-M    P1
_symmetry_Int_Tables_number       1
_symmetry_cell_setting            triclinic
loop_
_symmetry_equiv_pos_as_xyz
'x, y, z'
_cell_length_a     35.538805
_cell_length_b     35.613929
_cell_length_c     65.851183
_cell_angle_alpha  90.049171
_cell_angle_beta   89.915027
_cell_angle_gamma 120.05768
loop_
_atom_site_label
_atom_site_type_symbol
_atom_site_fract_x
_atom_site_fract_y
_atom_site_fract_z
_atom_type_partial_charge
Dy0 Dy 0.06509 0.52221 0.1608 0.0
C1 C 0.95598 0.59835 0.1769 0.0
C2 C 0.12083 0.49209 0.15394 0.0
Dy3 Dy 1.01109 0.57256 0.16229 0.0
O4 O 0.11096 0.5006 0.17167 0.0
O5 O 0.10029 0.5001 0.13981 0.0
O6 O 0.04167 0.49935 0.19266 0.0
O7 O 0.05081 0.55923 0.1826 0.0
C8 C 0.03722 0.53254 0.19701 0.0
C9 C 0.02386 0.55525 0.12393 0.0
O10 O 0.07918 0.62883 0.16574 0.0
O11 O 0.11721 0.59295 0.15712 0.0
O12 O 0.98352 0.61712 0.16208 0.0
O13 O 0.95991 0.56648 0.18406 0.0
O14 O 1.00493 0.5775 0.12826 0.0
O15 O 0.03348 0.54437 0.14036 0.0
O16 O 0.99802 0.46624 0.15504 0.0
O17 O 0.95936 0.50144 0.16353 0.0
C18 C 0.11588 0.62908 0.16108 0.0
C19 C 0.96105 0.46587 0.15889 0.0
Dy20 Dy 0.51223 0.05987 0.49489 0.0
C21 C 0.69368 0.16843 0.50807 0.0
C22 C 0.42658 1.00551 0.48629 0.0
Dy23 Dy 0.61071 0.10929 0.49695 0.0
O24 O 0.44163 0.02507 0.50347 0.0
O25 O 0.45836 0.01573 0.47365 0.0
O26 O 0.5093 0.08359 0.5261 0.0
O27 O 0.55981 0.07172 0.51853 0.0
C28 C 0.54589 0.08722 0.53173 0.0
C29 C 0.57867 0.08314 0.45976 0.0
O30 O 0.6 0.0431 0.5045 0.0
O31 O 0.52849 1.00577 0.49326 0.0
O32 O 0.68283 0.14496 0.49168 0.0
O33 O 0.65908 0.15823 0.51871 0.0
O34 O 0.61518 0.08691 0.46586 0.0
O35 O 0.56344 0.09745 0.47306 0.0
O36 O 0.52167 0.12603 0.48855 0.0
O37 O 0.59524 0.16387 0.49645 0.0
C38 C 0.56459 1.00636 0.49921 0.0
C39 C 0.5583 0.16295 0.49206 0.0
Dy40 Dy 0.59494 0.5674 0.82914 0.0
C41 C 0.51977 0.38291 0.84399 0.0
C42 C 0.62197 0.65262 0.82253 0.0
Dy43 Dy 0.54544 0.46312 0.82873 0.0
O44 O 0.59686 0.62944 0.83731 0.0
O45 O 0.63287 0.62936 0.81142 0.0
O46 O 0.61739 0.56629 0.86095 0.0
O47 O 0.55862 0.51457 0.85022 0.0
C48 C 0.58516 0.52755 0.86473 0.0
C49 C 0.5626 0.49595 0.79088 0.0
O50 O 0.488 0.47307 0.83131 0.0
O51 O 0.52427 0.54765 0.8241 0.0
O52 O 0.50219 0.39061 0.82835 0.0
O53 O 0.55075 0.41913 0.85132 0.0
O54 O 0.54204 0.45437 0.79453 0.0
O55 O 0.57221 0.51548 0.8076 0.0
O56 O 0.65184 0.55752 0.82352 0.0
O57 O 0.6165 0.48247 0.82905 0.0
C58 C 0.48802 0.50977 0.82731 0.0
C59 C 0.65219 0.52051 0.82564 0.0
C60 C 0.64656 0.15752 0.18226 0.0
C61 C 0.68302 0.19077 0.19281 0.0
C62 C 0.68592 0.18583 0.21388 0.0
C63 C 0.61512 0.12117 0.21434 0.0
C64 C 0.61297 0.12258 0.19343 0.0
C65 C 0.57185 0.08292 0.18559 0.0
H66 H 0.37743 0.90162 0.21196 0.0
C67 C 0.57454 0.08411 0.22206 0.0
C68 C 0.5485 0.06059 0.2054 0.0
H69 H 0.42916 0.93525 0.15117 0.0
H70 H 0.49184 1.00173 0.16411 0.0
H71 H 0.4629 0.91976 0.23246 0.0
H72 H 0.40006 0.99504 0.22529 0.0
H73 H 0.42443 1.0091 0.24932 0.0
H74 H 0.38324 0.95357 0.24424 0.0
H75 H 0.41476 0.90887 0.24613 0.0
H76 H 0.46823 0.94559 0.25583 0.0
C77 C 0.5856 0.05477 0.17339 0.0
C78 C 0.54527 0.09781 0.17296 0.0
C79 C 0.54858 0.07136 0.29839 0.0
C80 C 0.51276 0.04344 0.31055 0.0
C81 C 0.47484 1.01095 0.30103 0.0
C82 C 0.47285 1.00608 0.27987 0.0
C83 C 0.5091 0.03405 0.26796 0.0
C84 C 0.54588 0.06628 0.27726 0.0
C85 C 0.58073 0.09387 0.26224 0.0
C86 C 0.55882 0.07269 0.24227 0.0
C87 C 0.51725 0.03755 0.24578 0.0
C88 C 0.62111 0.08906 0.26652 0.0
C89 C 0.58885 0.14078 0.26421 0.0
C90 C 0.40235 0.9227 0.20129 0.0
C91 C 0.39861 0.91227 0.18061 0.0
C92 C 0.43132 0.94206 0.16729 0.0
C93 C 0.46791 0.98034 0.17483 0.0
C94 C 0.47188 0.98888 0.19589 0.0
C95 C 0.43876 0.96006 0.20852 0.0
C96 C 0.44707 0.97229 0.23041 0.0
C97 C 0.49143 1.0124 0.22929 0.0
C98 C 0.50647 0.02314 0.20907 0.0
C99 C 0.44807 0.9348 0.24198 0.0
C100 C 0.41188 0.98281 0.23788 0.0
H101 H 0.65699 0.1512 0.24059 0.0
H102 H 0.64386 0.1592 0.16596 0.0
H103 H 0.54005 0.12156 0.18169 0.0
H104 H 0.51287 0.07051 0.16898 0.0
H105 H 0.56256 0.11362 0.15865 0.0
H106 H 0.61018 0.05052 0.18196 0.0
H107 H 0.60025 0.0703 0.15861 0.0
H108 H 0.55824 0.02188 0.17048 0.0
H109 H 0.57851 0.09634 0.30513 0.0
H110 H 0.44649 0.98935 0.30993 0.0
H111 H 0.44313 0.98048 0.27368 0.0
H112 H 0.61213 0.05828 0.27462 0.0
H113 H 0.64533 0.11612 0.27605 0.0
H114 H 0.63708 0.08724 0.25238 0.0
H115 H 0.55763 0.1405 0.26632 0.0
H116 H 0.60363 0.16086 0.25061 0.0
H117 H 0.60973 0.15753 0.27754 0.0
H118 H 0.71426 0.20892 0.22237 0.0
C119 C 0.65249 0.1518 0.22457 0.0
C120 C 0.56389 0.69331 0.51877 0.0
C121 C 0.5641 0.72805 0.52954 0.0
C122 C 0.57052 0.73048 0.55068 0.0
C123 C 0.57366 0.66421 0.55056 0.0
C124 C 0.5685 0.66141 0.5297 0.0
C125 C 0.56852 0.62128 0.52158 0.0
H126 H 0.57124 0.43452 0.54665 0.0
C127 C 0.57669 0.62667 0.55788 0.0
C128 C 0.57366 0.60066 0.54107 0.0
H129 H 0.56861 0.47721 0.48555 0.0
H130 H 0.56876 0.54129 0.49918 0.0
H131 H 0.64593 0.5214 0.55981 0.0
H132 H 0.50789 0.46015 0.56746 0.0
H133 H 0.53067 0.48411 0.59093 0.0
H134 H 0.54136 0.44353 0.58058 0.0
H135 H 0.61822 0.48256 0.57956 0.0
H136 H 0.63945 0.53994 0.58346 0.0
C137 C 0.60781 0.63607 0.50728 0.0
C138 C 0.52474 0.59169 0.51104 0.0
C139 C 0.59162 0.61154 0.63403 0.0
C140 C 0.59604 0.58078 0.64556 0.0
C141 C 0.59639 0.54597 0.63562 0.0
C142 C 0.59199 0.54146 0.61455 0.0
C143 C 0.5876 0.57234 0.60311 0.0
C144 C 0.58795 0.60687 0.61283 0.0
C145 C 0.58401 0.63693 0.59808 0.0
C146 C 0.58107 0.61456 0.57792 0.0
C147 C 0.58269 0.57666 0.58106 0.0
C148 C 0.62609 0.68194 0.59962 0.0
C149 C 0.54133 0.63696 0.60309 0.0
C150 C 0.57147 0.45759 0.53589 0.0
C151 C 0.57079 0.45049 0.51491 0.0
C152 C 0.56923 0.48141 0.50185 0.0
C153 C 0.56962 0.51882 0.50976 0.0
C154 C 0.57189 0.52572 0.53096 0.0
C155 C 0.57305 0.49501 0.5434 0.0
C156 C 0.57828 0.50715 0.5653 0.0
C157 C 0.57905 0.54984 0.56444 0.0
C158 C 0.57488 0.5613 0.54437 0.0
C159 C 0.62248 0.51284 0.57258 0.0
C160 C 0.53775 0.47197 0.57684 0.0
H161 H 0.57961 0.70342 0.57719 0.0
H162 H 0.55944 0.69068 0.50247 0.0
H163 H 0.49728 0.58573 0.52122 0.0
H164 H 0.52058 0.5597 0.50715 0.0
H165 H 0.52184 0.60697 0.49687 0.0
H166 H 0.6379 0.66186 0.5146 0.0
H167 H 0.60281 0.64938 0.49293 0.0
H168 H 0.61395 0.60944 0.50349 0.0
H169 H 0.59132 0.63866 0.64132 0.0
H170 H 0.59906 0.52152 0.64427 0.0
H171 H 0.5917 0.51371 0.60809 0.0
H172 H 0.65426 0.67885 0.60472 0.0
H173 H 0.62215 0.70335 0.61064 0.0
H174 H 0.6365 0.69867 0.58479 0.0
H175 H 0.51555 0.60434 0.60827 0.0
H176 H 0.52704 0.64408 0.5898 0.0
H177 H 0.54649 0.6604 0.6154 0.0
H178 H 0.57202 0.75712 0.55932 0.0
C179 C 0.5752 0.69912 0.56112 0.0
C180 C 0.17575 0.50948 0.84803 0.0
C181 C 0.21242 0.5128 0.85838 0.0
C182 C 0.21767 0.5241 0.8791 0.0
C183 C 0.14883 0.52221 0.87983 0.0
C184 C 0.14431 0.51467 0.85916 0.0
C185 C 0.10298 0.51298 0.8515 0.0
H186 H 0.92099 0.52439 0.87809 0.0
C187 C 0.1105 0.52319 0.88767 0.0
C188 C 0.08325 0.51876 0.8712 0.0
H189 H 0.95428 0.50614 0.81719 0.0
H190 H 1.0202 0.50893 0.83014 0.0
H191 H 0.93593 0.45506 0.89623 0.0
H192 H 1.01394 0.59352 0.89354 0.0
H193 H 1.01946 0.57865 0.91833 0.0
H194 H 0.96636 0.56502 0.90914 0.0
H195 H 0.92925 0.48906 0.9142 0.0
H196 H 0.96614 0.46893 0.91872 0.0
C197 C 0.07344 0.46837 0.84169 0.0
C198 C 0.11598 0.55105 0.83671 0.0
C199 C 0.09083 0.52337 0.96433 0.0
C200 C 0.05727 0.52138 0.97644 0.0
C201 C 0.02217 0.5222 0.96698 0.0
C202 C 1.01999 0.52409 0.94585 0.0
C203 C 0.05311 0.52486 0.93386 0.0
C204 C 0.08791 0.52486 0.94312 0.0
C205 C 0.12015 0.52617 0.92792 0.0
C206 C 0.09793 0.52519 0.90796 0.0
C207 C 0.05902 0.52471 0.91162 0.0
C208 C 0.12342 0.48475 0.93103 0.0
C209 C 0.16359 0.56951 0.93089 0.0
C210 C 0.94181 0.52045 0.86731 0.0
C211 C 0.93148 0.51437 0.84659 0.0
C212 C 0.96109 0.51091 0.8333 0.0
C213 C 0.99932 0.51241 0.84083 0.0
C214 C 1.00815 0.5174 0.86186 0.0
C215 C 0.979 0.52104 0.87452 0.0
C216 C 0.99037 0.5234 0.89645 0.0
C217 C 0.0323 0.52251 0.89521 0.0
C218 C 0.04355 0.51916 0.87497 0.0
C219 C 0.95363 0.48233 0.9071 0.0
C220 C 0.99769 0.5672 0.905 0.0
H221 H 0.19253 0.53622 0.90552 0.0
H222 H 0.17124 0.50211 0.83196 0.0
H223 H 0.14153 0.58191 0.84358 0.0
H224 H 0.08847 0.55588 0.83298 0.0
H225 H 0.12911 0.5457 0.82236 0.0
H226 H 0.06947 0.44193 0.85202 0.0
H227 H 0.08766 0.46523 0.82719 0.0
H228 H 0.04054 0.46281 0.83857 0.0
H229 H 0.11838 0.52309 0.97118 0.0
H230 H 0.99645 0.52185 0.97598 0.0
H231 H 0.99248 0.52488 0.93974 0.0
H232 H 0.09053 0.45588 0.93313 0.0
H233 H 0.14295 0.48778 0.94474 0.0
H234 H 0.1376 0.47683 0.91797 0.0
H235 H 0.15896 0.59394 0.93938 0.0
H236 H 0.17823 0.58552 0.91623 0.0
H237 H 0.18755 0.56447 0.9395 0.0
H238 H 0.24621 0.5291 0.88732 0.0
C239 C 0.18638 0.5286 0.88975 0.0
C240 C 0.91649 0.50322 0.47313 0.0
C241 C 0.8832 0.46302 0.46592 0.0
C242 C 0.87274 0.45835 0.44507 0.0
C243 C 0.92907 0.53232 0.43886 0.0
C244 C 0.93873 0.53748 0.45936 0.0
C245 C 0.97514 0.58246 0.46423 0.0
H246 H 0.13077 0.77917 0.43014 0.0
C247 C 0.95897 0.57323 0.42847 0.0
C248 C 0.98568 0.60311 0.44326 0.0
H249 H 0.10725 0.73226 0.49197 0.0
H250 H 0.04431 0.6653 0.48109 0.0
H251 H 0.12056 0.69786 0.41175 0.0
H252 H 0.02736 0.74046 0.41732 0.0
H253 H 0.02163 0.71859 0.3928 0.0
H254 H 0.07285 0.76471 0.40024 0.0
H255 H 0.12005 0.73668 0.3946 0.0
H256 H 0.08858 0.67913 0.38985 0.0
C257 C 1.01333 0.57853 0.47318 0.0
C258 C 0.95721 0.60432 0.47856 0.0
C259 C 0.96439 0.57806 0.35143 0.0
C260 C 0.99232 0.61014 0.33768 0.0
C261 C 0.0212 0.65221 0.3449 0.0
C262 C 0.02395 0.66161 0.36566 0.0
C263 C 0.99794 0.62845 0.37939 0.0
C264 C 0.96794 0.58784 0.37219 0.0
C265 C 0.94367 0.5565 0.38908 0.0
C266 C 0.9652 0.58467 0.40759 0.0
C267 C 0.99704 0.6266 0.40179 0.0
C268 C 0.95276 0.51829 0.38752 0.0
C269 C 0.89498 0.54305 0.38747 0.0
C270 C 0.11141 0.75493 0.44141 0.0
C271 C 0.12368 0.76097 0.46193 0.0
C272 C 0.09838 0.72814 0.47605 0.0
C273 C 0.06197 0.68933 0.46969 0.0
C274 C 0.05115 0.68311 0.44895 0.0
C275 C 0.07546 0.71589 0.43527 0.0
C276 C 0.06102 0.703 0.41373 0.0
C277 C 0.02371 0.65712 0.41668 0.0
C278 C 1.01804 0.64553 0.43732 0.0
C279 C 0.09935 0.7044 0.40169 0.0
C280 C 0.04509 0.73329 0.40539 0.0
H281 H 0.886 0.48685 0.41591 0.0
H282 H 0.92501 0.50789 0.48909 0.0
H283 H 0.92331 0.59501 0.47435 0.0
H284 H 0.97566 0.64008 0.47761 0.0
H285 H 0.95681 0.59436 0.49457 0.0
H286 H 1.01618 0.55224 0.46548 0.0
H287 H 1.00841 0.57076 0.48964 0.0
H288 H 0.04524 0.60799 0.47094 0.0
H289 H 0.94206 0.54539 0.34628 0.0
H290 H 0.04258 0.67755 0.33449 0.0
H291 H 0.04733 0.69395 0.37025 0.0
H292 H 0.9875 0.53042 0.38373 0.0
H293 H 0.93264 0.49513 0.37544 0.0
H294 H 0.9471 0.50022 0.40184 0.0
H295 H 0.89075 0.56872 0.38001 0.0
H296 H 0.87938 0.53855 0.40253 0.0
H297 H 0.87651 0.51288 0.37843 0.0
H298 H 0.84767 0.42757 0.43906 0.0
C299 C 0.89528 0.49274 0.43158 0.0
C300 C 0.64387 0.96151 0.79029 0.0
C301 C 0.64898 0.93362 0.7769 0.0
C302 C 0.65272 0.94224 0.75592 0.0
C303 C 0.64466 1.00495 0.76172 0.0
C304 C 0.64147 0.99677 0.78236 0.0
C305 C 0.63331 0.02824 0.79418 0.0
H306 H 0.60184 0.20087 0.79298 0.0
C307 C 0.6394 0.04295 0.75829 0.0
C308 C 0.63282 0.05692 0.77724 0.0
H309 H 0.59785 0.12568 0.84522 0.0
H310 H 0.6146 0.08049 0.82364 0.0
H311 H 0.68573 0.20605 0.77145 0.0
H312 H 0.54781 0.12214 0.76514 0.0
H313 H 0.56933 0.12984 0.74056 0.0
H314 H 0.57568 0.17595 0.75479 0.0
H315 H 0.65134 0.2229 0.75942 0.0
H316 H 0.67531 0.19661 0.74533 0.0
C317 C 0.67183 0.05362 0.80889 0.0
C318 C 0.58849 1.00243 0.80479 0.0
C319 C 0.63787 0.093 0.68625 0.0
C320 C 0.63116 0.12579 0.67828 0.0
C321 C 0.62776 0.1548 0.69169 0.0
C322 C 0.62943 0.15026 0.71273 0.0
C323 C 0.63426 0.11615 0.72049 0.0
C324 C 0.63921 0.08874 0.70731 0.0
C325 C 0.64343 0.05404 0.7183 0.0
C326 C 0.6394 0.06471 0.74024 0.0
C327 C 0.63385 0.10092 0.74138 0.0
C328 C 0.68908 0.06054 0.71361 0.0
C329 C 0.60497 1.00931 0.71182 0.0
C330 C 0.60531 0.17514 0.79987 0.0
C331 C 0.59931 0.16717 0.82082 0.0
C332 C 0.60259 0.13245 0.8291 0.0
C333 C 0.6123 0.10639 0.81655 0.0
C334 C 0.61806 0.11486 0.79553 0.0
C335 C 0.61442 0.1488 0.78762 0.0
C336 C 0.61946 0.15234 0.76498 0.0
C337 C 0.6272 0.11512 0.76046 0.0
C338 C 0.62652 0.09324 0.77833 0.0
C339 C 0.65981 0.19682 0.75985 0.0
C340 C 0.57613 0.14504 0.75573 0.0
H341 H 0.65362 0.9825 0.73214 0.0
H342 H 0.64033 0.95515 0.80647 0.0
H343 H 0.56532 0.97447 0.79531 0.0
H344 H 0.57245 0.02182 0.80709 0.0
H345 H 0.59143 0.9894 0.81965 0.0
H346 H 0.70322 0.06303 0.80118 0.0
H347 H 0.66914 0.03352 0.8223 0.0
H348 H 0.67457 0.08428 0.8142 0.0
H349 H 0.64009 0.06988 0.67634 0.0
H350 H 0.6231 0.18063 0.68588 0.0
H351 H 0.62595 0.17296 0.72212 0.0
H352 H 0.71356 0.09559 0.71199 0.0
H353 H 0.68894 0.04419 0.69922 0.0
H354 H 0.70175 0.04899 0.72596 0.0
H355 H 0.57508 1.01126 0.70916 0.0
H356 H 0.59554 0.9841 0.72359 0.0
H357 H 0.6125 0.9978 0.69752 0.0
H358 H 0.65687 0.92115 0.74542 0.0
C359 C 0.65086 0.97787 0.74828 0.0
C360 C 0.62334 0.48608 0.14111 0.0
C361 C 0.66343 0.49252 0.13388 0.0
C362 C 0.66694 0.4833 0.11335 0.0
C363 C 0.59186 0.46249 0.10755 0.0
C364 C 0.58804 0.47093 0.12771 0.0
C365 C 0.54328 0.46306 0.13263 0.0
H366 H 0.34255 0.41146 0.09972 0.0
C367 C 0.54986 0.44847 0.09749 0.0
C368 C 0.52101 0.44823 0.11213 0.0
H369 H 0.39675 0.45349 0.15965 0.0
H370 H 0.46261 0.4545 0.14922 0.0
H371 H 0.4216 0.47759 0.07756 0.0
H372 H 0.38205 0.34487 0.0911 0.0
H373 H 0.40074 0.35482 0.06583 0.0
H374 H 0.35485 0.3606 0.07296 0.0
H375 H 0.38125 0.43357 0.06275 0.0
H376 H 0.43838 0.45897 0.05679 0.0
C377 C 0.54755 0.50673 0.13943 0.0
C378 C 0.5227 0.42654 0.14871 0.0
C379 C 0.53781 0.42857 0.02101 0.0
C380 C 0.50431 0.42035 0.00729 0.0
C381 C 0.46268 0.4084 0.01484 0.0
C382 C 0.45513 0.40703 0.03577 0.0
C383 C 0.48973 0.41831 0.0493 0.0
C384 C 0.5299 0.42764 0.04189 0.0
C385 C 0.56303 0.43987 0.05849 0.0
C386 C 0.53644 0.43771 0.07699 0.0
C387 C 0.49366 0.42528 0.07148 0.0
C388 C 0.6006 0.48669 0.05433 0.0
C389 C 0.57709 0.40512 0.05926 0.0
C390 C 0.36824 0.41979 0.1107 0.0
C391 C 0.36461 0.43205 0.13053 0.0
C392 C 0.39908 0.44394 0.14428 0.0
C393 C 0.43724 0.44464 0.13816 0.0
C394 C 0.44118 0.43409 0.11798 0.0
C395 C 0.40681 0.4215 0.10471 0.0
C396 C 0.41774 0.4145 0.08351 0.0
C397 C 0.46427 0.42469 0.08625 0.0
C398 C 0.47783 0.43604 0.10647 0.0
C399 C 0.41439 0.44747 0.06927 0.0
C400 C 0.3872 0.3663 0.07785 0.0
H401 H 0.63646 0.4621 0.0848 0.0
H402 H 0.61949 0.49264 0.15681 0.0
H403 H 0.53066 0.40065 0.14538 0.0
H404 H 0.48686 0.40993 0.14892 0.0
H405 H 0.53514 0.4393 0.16415 0.0
H406 H 0.575 0.53458 0.13149 0.0
H407 H 0.55371 0.5119 0.15601 0.0
H408 H 0.51877 0.50942 0.13556 0.0
H409 H 0.57022 0.4382 0.0156 0.0
H410 H 0.43629 0.40145 0.0045 0.0
H411 H 0.42304 0.39879 0.04057 0.0
H412 H 0.58774 0.50724 0.04829 0.0
H413 H 0.62377 0.48682 0.04296 0.0
H414 H 0.61881 0.5037 0.0681 0.0
H415 H 0.55023 0.37283 0.05435 0.0
H416 H 0.58513 0.39968 0.0748 0.0
H417 H 0.60526 0.41384 0.0491 0.0
H418 H 0.69759 0.48873 0.10724 0.0
C419 C 0.63143 0.46812 0.10024 0.0
C420 C 0.17087 0.48137 0.13128 0.0
C421 C 0.15259 0.47775 0.15052 0.0
C422 C 0.2039 0.47124 0.12834 0.0
C423 C 0.21811 0.45632 0.14496 0.0
C424 C 0.19835 0.45088 0.16423 0.0
C425 C 0.1661 0.46216 0.16683 0.0
C426 C 0.22469 0.47808 0.10764 0.0
C427 C 0.21199 0.43417 0.18219 0.0
C428 C 0.28441 0.40254 0.13247 0.0
C429 C 0.32677 0.43654 0.13604 0.0
C430 C 0.24849 0.40806 0.13585 0.0
C431 C 0.25538 0.44886 0.14248 0.0
C432 C 0.29814 0.48309 0.14636 0.0
C433 C 0.33333 0.47636 0.14326 0.0
C434 C 0.2033 0.37055 0.13202 0.0
C435 C 0.30683 0.52726 0.15314 0.0
H436 H 0.16039 0.49353 0.1187 0.0
H437 H 0.15166 0.45907 0.18169 0.0
H438 H 0.25956 0.50331 0.10861 0.0
H439 H 0.22316 0.44779 0.10232 0.0
H440 H 0.2088 0.48836 0.09615 0.0
H441 H 0.19088 0.42834 0.19565 0.0
H442 H 0.21104 0.40344 0.17818 0.0
H443 H 0.24598 0.45798 0.18642 0.0
H444 H 0.2795 0.37175 0.12688 0.0
H445 H 0.3662 0.50282 0.14571 0.0
H446 H 0.18804 0.37861 0.11935 0.0
H447 H 0.18262 0.36452 0.14565 0.0
H448 H 0.20339 0.34024 0.12813 0.0
H449 H 0.29466 0.54113 0.14152 0.0
H450 H 0.34199 0.55029 0.15563 0.0
H451 H 0.28911 0.5244 0.16745 0.0
C452 C 0.76565 0.22333 0.49467 0.0
C453 C 0.73467 0.20988 0.5102 0.0
C454 C 0.79669 0.26727 0.49227 0.0
C455 C 0.79682 0.29812 0.50591 0.0
C456 C 0.76966 0.28382 0.52326 0.0
C457 C 0.73855 0.23964 0.52517 0.0
C458 C 0.82548 0.28103 0.47368 0.0
C459 C 0.7701 0.31548 0.53862 0.0
C460 C 0.88322 0.41344 0.49297 0.0
C461 C 0.86011 0.42504 0.47955 0.0
C462 C 0.86238 0.37332 0.50312 0.0
C463 C 0.81774 0.34421 0.49944 0.0
C464 C 0.79369 0.35736 0.48715 0.0
C465 C 0.81515 0.39775 0.47751 0.0
C466 C 0.88883 0.36115 0.51664 0.0
C467 C 0.74582 0.32761 0.483 0.0
H468 H 0.76307 0.20021 0.48324 0.0
H469 H 0.71498 0.22918 0.53741 0.0
H470 H 0.81363 0.29621 0.46259 0.0
H471 H 0.85936 0.3055 0.4777 0.0
H472 H 0.82562 0.25314 0.46617 0.0
H473 H 0.75616 0.29937 0.55338 0.0
H474 H 0.80363 0.34275 0.54114 0.0
H475 H 0.75025 0.32929 0.53287 0.0
H476 H 0.91801 0.43454 0.49467 0.0
H477 H 0.79703 0.40721 0.46757 0.0
H478 H 0.89929 0.34135 0.50787 0.0
H479 H 0.86943 0.34153 0.5298 0.0
H480 H 0.91844 0.39037 0.52233 0.0
H481 H 0.74091 0.29814 0.4749 0.0
H482 H 0.7318 0.34346 0.4736 0.0
H483 H 0.72743 0.31692 0.49747 0.0
C484 C 0.66078 0.72034 0.80197 0.0
C485 C 0.63215 0.69712 0.81779 0.0
C486 C 0.66747 0.76116 0.79617 0.0
C487 C 0.64435 0.77857 0.80624 0.0
C488 C 0.6164 0.75572 0.82263 0.0
C489 C 0.6109 0.71536 0.82832 0.0
C490 C 0.69805 0.78493 0.77882 0.0
C491 C 0.59065 0.77286 0.83353 0.0
C492 C 0.67668 0.89706 0.79993 0.0
C493 C 0.64828 0.89429 0.78452 0.0
C494 C 0.67647 0.85971 0.80692 0.0
C495 C 0.64647 0.81879 0.79858 0.0
C496 C 0.61747 0.81593 0.78315 0.0
C497 C 0.61901 0.85382 0.77618 0.0
C498 C 0.70836 0.864 0.82314 0.0
C499 C 0.5844 0.77281 0.77416 0.0
H500 H 0.6773 0.70624 0.79386 0.0
H501 H 0.58865 0.69733 0.84054 0.0
H502 H 0.67926 0.78591 0.7656 0.0
H503 H 0.72117 0.81898 0.78321 0.0
H504 H 0.71684 0.76919 0.77402 0.0
H505 H 0.57235 0.75239 0.84673 0.0
H506 H 0.61253 0.80643 0.83894 0.0
H507 H 0.56715 0.77407 0.82285 0.0
H508 H 0.69948 0.92852 0.80625 0.0
H509 H 0.59679 0.85178 0.76439 0.0
H510 H 0.72827 0.85 0.81766 0.0
H511 H 0.6906 0.84542 0.83684 0.0
H512 H 0.73045 0.89831 0.82759 0.0
H513 H 0.60106 0.75666 0.76722 0.0
H514 H 0.56397 0.77624 0.76238 0.0
H515 H 0.56281 0.75111 0.78631 0.0
C516 C 0.8855 0.5747 0.19422 0.0
C517 C 0.9161 0.60071 0.17954 0.0
C518 C 0.84163 0.56283 0.19213 0.0
C519 C 0.82847 0.57664 0.17476 0.0
C520 C 0.86032 0.608 0.16165 0.0
C521 C 0.90405 0.62008 0.16435 0.0
C522 C 0.80892 0.53149 0.20715 0.0
C523 C 0.8478 0.6242 0.14312 0.0
C524 C 0.7307 0.49365 0.14555 0.0
C525 C 0.70225 0.50999 0.14721 0.0
C526 C 0.77103 0.51396 0.15532 0.0
C527 C 0.78289 0.55108 0.1675 0.0
C528 C 0.75278 0.5655 0.17071 0.0
C529 C 0.71287 0.54502 0.16032 0.0
C530 C 0.80189 0.49701 0.1516 0.0
C531 C 0.76334 0.60383 0.18417 0.0
H532 H 0.895 0.56043 0.20628 0.0
H533 H 0.92784 0.64078 0.15316 0.0
H534 H 0.782 0.53834 0.20951 0.0
H535 H 0.79467 0.49795 0.20118 0.0
H536 H 0.82433 0.53293 0.22202 0.0
H537 H 0.87627 0.65264 0.13614 0.0
H538 H 0.83321 0.59786 0.13164 0.0
H539 H 0.82313 0.63337 0.14705 0.0
H540 H 0.72204 0.46572 0.13596 0.0
H541 H 0.69097 0.55778 0.16176 0.0
H542 H 0.81147 0.4888 0.16622 0.0
H543 H 0.83196 0.5224 0.14415 0.0
H544 H 0.78738 0.46763 0.14183 0.0
H545 H 0.78455 0.60617 0.19703 0.0
H546 H 0.73327 0.60187 0.19031 0.0
H547 H 0.78072 0.6341 0.17514 0.0
C548 C 0.34908 0.96725 0.49704 0.0
C549 C 0.38057 0.97373 0.48248 0.0
C550 C 0.30555 0.93489 0.49445 0.0
C551 C 0.29351 0.90819 0.47699 0.0
C552 C 0.32506 0.91536 0.46199 0.0
C553 C 0.3683 0.9483 0.46488 0.0
C554 C 0.2727 0.92853 0.51062 0.0
C555 C 0.31343 0.88737 0.44321 0.0
C556 C 0.19563 0.79478 0.47927 0.0
C557 C 0.165 0.7997 0.46798 0.0
C558 C 0.23732 0.83014 0.48272 0.0
C559 C 0.24841 0.87139 0.47482 0.0
C560 C 0.21698 0.87693 0.46416 0.0
C561 C 0.17564 0.8409 0.46077 0.0
C562 C 0.27008 0.82295 0.49408 0.0
C563 C 0.22746 0.92057 0.45579 0.0
H564 H 0.35858 0.9871 0.51063 0.0
H565 H 0.39271 0.95334 0.45364 0.0
H566 H 0.24441 0.92888 0.50372 0.0
H567 H 0.26033 0.8964 0.51792 0.0
H568 H 0.28671 0.95395 0.52256 0.0
H569 H 0.34142 0.89825 0.43266 0.0
H570 H 0.302 0.85326 0.44763 0.0
H571 H 0.2864 0.88775 0.43499 0.0
H572 H 0.18765 0.76284 0.48461 0.0
H573 H 0.15183 0.84473 0.45214 0.0
H574 H 0.28374 0.8459 0.507 0.0
H575 H 0.29752 0.82939 0.48385 0.0
H576 H 0.2557 0.78934 0.50002 0.0
H577 H 0.24096 0.94553 0.46792 0.0
H578 H 0.19845 0.92006 0.44919 0.0
H579 H 0.25266 0.93067 0.4438 0.0
C580 C 0.49776 0.30743 0.83427 0.0
C581 C 0.51528 0.34052 0.84878 0.0
C582 C 0.5063 0.27308 0.83513 0.0
C583 C 0.5322 0.27164 0.85113 0.0
C584 C 0.54437 0.30152 0.86737 0.0
C585 C 0.53623 0.33613 0.86588 0.0
C586 C 0.49224 0.24161 0.81757 0.0
C587 C 0.56991 0.29971 0.88524 0.0
C588 C 0.55046 0.17598 0.84549 0.0
C589 C 0.58787 0.1946 0.8333 0.0
C590 C 0.53363 0.20145 0.85318 0.0
C591 C 0.55445 0.24611 0.8482 0.0
C592 C 0.59449 0.26558 0.83753 0.0
C593 C 0.61085 0.23959 0.8304 0.0
C594 C 0.49196 0.17981 0.86526 0.0
C595 C 0.61819 0.3132 0.83199 0.0
H596 H 0.48113 0.31058 0.82115 0.0
H597 H 0.54907 0.36137 0.87735 0.0
H598 H 0.52105 0.24867 0.8082 0.0
H599 H 0.47783 0.20783 0.82317 0.0
H600 H 0.46812 0.24386 0.8077 0.0
H601 H 0.56651 0.31676 0.89864 0.0
H602 H 0.55921 0.26565 0.88947 0.0
H603 H 0.60487 0.31578 0.88115 0.0
H604 H 0.53274 0.14117 0.84786 0.0
H605 H 0.6403 0.25406 0.82132 0.0
H606 H 0.46401 0.16972 0.85485 0.0
H607 H 0.49102 0.2022 0.87672 0.0
H608 H 0.48774 0.15033 0.8731 0.0
H609 H 0.59799 0.31992 0.82141 0.0
H610 H 0.65004 0.32358 0.8246 0.0
H611 H 0.62392 0.33339 0.84573 0.0
C612 C 0.59439 0.96054 0.51316 0.0
C613 C 0.56462 0.96442 0.5006 0.0
C614 C 0.59339 0.92065 0.51537 0.0
C615 C 0.56252 0.88361 0.50441 0.0
C616 C 0.53345 0.88777 0.49111 0.0
C617 C 0.53448 0.92781 0.48957 0.0
C618 C 0.62448 0.91779 0.53003 0.0
C619 C 0.50064 0.84964 0.47878 0.0
C620 C 0.58384 0.78789 0.50366 0.0
C621 C 0.55773 0.76257 0.51983 0.0
C622 C 0.58424 0.8263 0.49771 0.0
C623 C 0.55831 0.83998 0.50832 0.0
C624 C 0.53005 0.81303 0.52382 0.0
C625 C 0.5298 0.7747 0.52918 0.0
C626 C 0.61398 0.85331 0.48072 0.0
C627 C 0.50189 0.82595 0.53569 0.0
H628 H 0.61774 0.98846 0.5218 0.0
H629 H 0.51163 0.93045 0.47963 0.0
H630 H 0.60589 0.89478 0.54243 0.0
H631 H 0.6434 0.90503 0.52219 0.0
H632 H 0.64753 0.94972 0.53686 0.0
H633 H 0.48352 0.85914 0.4676 0.0
H634 H 0.51686 0.83445 0.47054 0.0
H635 H 0.47608 0.82465 0.48902 0.0
H636 H 0.60566 0.779 0.49639 0.0
H637 H 0.50909 0.75509 0.54154 0.0
H638 H 0.64154 0.88337 0.48708 0.0
H639 H 0.59647 0.8632 0.47 0.0
H640 H 0.62731 0.83564 0.47218 0.0
H641 H 0.52282 0.85623 0.54426 0.0
H642 H 0.48019 0.80048 0.54661 0.0
H643 H 0.48157 0.83271 0.52524 0.0
C644 C 0.73266 0.55663 0.8324 0.0
C645 C 0.69452 0.52121 0.82479 0.0
C646 C 0.77172 0.55548 0.8337 0.0
C647 C 0.77325 0.5186 0.8266 0.0
C648 C 0.73534 0.48378 0.81785 0.0
C649 C 0.69639 0.48517 0.8174 0.0
C650 C 0.81071 0.59279 0.84371 0.0
C651 C 0.73547 0.44435 0.80951 0.0
C652 C 0.88661 0.5305 0.8216 0.0
C653 C 0.88958 0.51129 0.83972 0.0
C654 C 0.84849 0.53182 0.81669 0.0
C655 C 0.81278 0.51445 0.8304 0.0
C656 C 0.81512 0.49375 0.8483 0.0
C657 C 0.85276 0.49158 0.85244 0.0
C658 C 0.8468 0.55264 0.79704 0.0
C659 C 0.77837 0.47512 0.86355 0.0
H660 H 0.73145 0.58445 0.83828 0.0
H661 H 0.66719 0.45779 0.81131 0.0
H662 H 0.81852 0.58134 0.85791 0.0
H663 H 0.83955 0.60518 0.83366 0.0
H664 H 0.8051 0.62 0.84752 0.0
H665 H 0.70595 0.42356 0.80037 0.0
H666 H 0.76464 0.4542 0.79991 0.0
H667 H 0.73679 0.42461 0.82221 0.0
H668 H 0.91448 0.54571 0.81155 0.0
H669 H 0.85361 0.47508 0.8661 0.0
H670 H 0.84689 0.58324 0.80029 0.0
H671 H 0.81625 0.53097 0.78878 0.0
H672 H 0.87485 0.56014 0.787 0.0
H673 H 0.77166 0.50082 0.86881 0.0
H674 H 0.78573 0.46114 0.87702 0.0
H675 H 0.74823 0.44933 0.85639 0.0
C676 C 0.16105 0.70782 0.17108 0.0
C677 C 0.15769 0.67149 0.16099 0.0
C678 C 0.20086 0.74727 0.17209 0.0
C679 C 0.2384 0.75108 0.1625 0.0
C680 C 0.23482 0.71502 0.15165 0.0
C681 C 0.19478 0.67568 0.1512 0.0
C682 C 0.20311 0.78443 0.18414 0.0
C683 C 0.27359 0.71765 0.14088 0.0
C684 C 0.33568 0.86663 0.15678 0.0
C685 C 0.36075 0.86981 0.17385 0.0
C686 C 0.29656 0.82777 0.15239 0.0
C687 C 0.28194 0.79131 0.16545 0.0
C688 C 0.30823 0.79388 0.18212 0.0
C689 C 0.34724 0.83264 0.18594 0.0
C690 C 0.27012 0.82622 0.13419 0.0
C691 C 0.29429 0.75617 0.19653 0.0
H692 H 0.13279 0.7051 0.17875 0.0
H693 H 0.19262 0.64808 0.14317 0.0
H694 H 0.2252 0.79171 0.19729 0.0
H695 H 0.21675 0.8141 0.17464 0.0
H696 H 0.17074 0.77717 0.18988 0.0
H697 H 0.26459 0.68854 0.1314 0.0
H698 H 0.2893 0.74687 0.13106 0.0
H699 H 0.29809 0.72078 0.15221 0.0
H700 H 0.34566 0.89498 0.14733 0.0
H701 H 0.36679 0.83424 0.19889 0.0
H702 H 0.23944 0.82423 0.13934 0.0
H703 H 0.26116 0.79679 0.125 0.0
H704 H 0.28788 0.85529 0.12436 0.0
H705 H 0.26328 0.74863 0.20401 0.0
H706 H 0.31892 0.76294 0.20848 0.0
H707 H 0.28836 0.72678 0.18805 0.0
C708 C 0.52436 0.2083 0.50034 0.0
C709 C 0.5583 0.20479 0.4914 0.0
C710 C 0.52628 0.24876 0.50193 0.0
C711 C 0.56217 0.28654 0.4936 0.0
C712 C 0.59527 0.28252 0.48347 0.0
C713 C 0.5935 0.24205 0.48297 0.0
C714 C 0.4911 0.25143 0.51359 0.0
C715 C 0.63334 0.32116 0.47365 0.0
C716 C 0.54921 0.3874 0.49028 0.0
C717 C 0.57226 0.41106 0.50751 0.0
C718 C 0.54712 0.34782 0.48499 0.0
C719 C 0.56735 0.33058 0.49753 0.0
C720 C 0.59181 0.35504 0.51447 0.0
C721 C 0.59495 0.39514 0.51885 0.0
C722 C 0.52267 0.32408 0.46615 0.0
C723 C 0.61359 0.33818 0.52853 0.0
H724 H 0.49731 0.17973 0.50707 0.0
H725 H 0.61977 0.23955 0.47593 0.0
H726 H 0.5054 0.27204 0.52725 0.0
H727 H 0.4768 0.26691 0.50417 0.0
H728 H 0.46464 0.21903 0.51852 0.0
H729 H 0.64983 0.31106 0.46236 0.0
H730 H 0.62281 0.34208 0.46596 0.0
H731 H 0.65743 0.34098 0.48543 0.0
H732 H 0.53177 0.39909 0.48122 0.0
H733 H 0.61471 0.41368 0.53162 0.0
H734 H 0.4926 0.29385 0.47048 0.0
H735 H 0.5427 0.31461 0.45688 0.0
H736 H 0.51352 0.34405 0.45667 0.0
H737 H 0.58936 0.30556 0.53428 0.0
H738 H 0.62924 0.35991 0.54174 0.0
H739 H 0.63877 0.33472 0.52017 0.0
C740 C 0.44357 0.54449 0.83574 0.0
C741 C 0.44582 0.50926 0.82759 0.0
C742 C 0.40353 0.54331 0.83783 0.0
C743 C 0.36469 0.50664 0.83091 0.0
C744 C 0.3672 0.47204 0.82156 0.0
C745 C 0.40751 0.47332 0.82042 0.0
C746 C 0.40259 0.58038 0.84849 0.0
C747 C 0.32712 0.43314 0.81318 0.0
C748 C 0.26225 0.48216 0.85998 0.0
C749 C 0.2459 0.50447 0.84875 0.0
C750 C 0.29999 0.48175 0.85405 0.0
C751 C 0.32138 0.50245 0.8358 0.0
C752 C 0.30284 0.52158 0.82335 0.0
C753 C 0.26561 0.52286 0.83008 0.0
C754 C 0.31849 0.46152 0.8681 0.0
C755 C 0.32337 0.54234 0.80334 0.0
H756 H 0.473 0.57229 0.84139 0.0
H757 H 0.40906 0.4462 0.81386 0.0
H758 H 0.3864 0.59356 0.83882 0.0
H759 H 0.3834 0.56844 0.86272 0.0
H760 H 0.43568 0.60718 0.85235 0.0
H761 H 0.33538 0.41281 0.80343 0.0
H762 H 0.30637 0.4128 0.82585 0.0
H763 H 0.30762 0.44362 0.80417 0.0
H764 H 0.24661 0.46669 0.87415 0.0
H765 H 0.25327 0.53996 0.82119 0.0
H766 H 0.35122 0.48671 0.87334 0.0
H767 H 0.32242 0.43645 0.85995 0.0
H768 H 0.29766 0.4463 0.88164 0.0
H769 H 0.35321 0.57393 0.80613 0.0
H770 H 0.30104 0.54818 0.7938 0.0
H771 H 0.33303 0.52163 0.79477 0.0
C772 C 0.88072 0.42086 0.15223 0.0
C773 C 0.91944 0.42358 0.15902 0.0
C774 C 0.8405 0.38196 0.15385 0.0
C775 C 0.83841 0.34523 0.1634 0.0
C776 C 0.87768 0.34765 0.16986 0.0
C777 C 0.91768 0.38642 0.16724 0.0
C778 C 0.80014 0.38102 0.14604 0.0
C779 C 0.87723 0.31019 0.18079 0.0
C780 C 0.7366 0.27074 0.19381 0.0
C781 C 0.71852 0.23134 0.18301 0.0
C782 C 0.77496 0.30775 0.18745 0.0
C783 C 0.79527 0.30669 0.16913 0.0
C784 C 0.77524 0.26833 0.15714 0.0
C785 C 0.73744 0.2309 0.16433 0.0
C786 C 0.79481 0.34744 0.20094 0.0
C787 C 0.79436 0.2665 0.13696 0.0
H788 H 0.8818 0.44936 0.14573 0.0
H789 H 0.94739 0.38839 0.17268 0.0
H790 H 0.77649 0.3486 0.13988 0.0
H791 H 0.78416 0.38842 0.15865 0.0
H792 H 0.80814 0.4057 0.13397 0.0
H793 H 0.91052 0.31625 0.18395 0.0
H794 H 0.85965 0.30445 0.19543 0.0
H795 H 0.85962 0.28006 0.1717 0.0
H796 H 0.72151 0.27225 0.20787 0.0
H797 H 0.72375 0.20101 0.1557 0.0
H798 H 0.79679 0.37548 0.19268 0.0
H799 H 0.82846 0.3561 0.20514 0.0
H800 H 0.77586 0.34246 0.2151 0.0
H801 H 0.80182 0.2955 0.12773 0.0
H802 H 0.77208 0.23687 0.12823 0.0
H803 H 0.82536 0.26678 0.13942 0.0
C804 C 0.03003 0.57137 0.08719 0.0
C805 C 0.03516 0.54861 0.10324 0.0
C806 C 0.03824 0.56465 0.06713 0.0
C807 C 0.05199 0.53436 0.06301 0.0
C808 C 0.05835 0.51201 0.07923 0.0
C809 C 0.04947 0.51919 0.09922 0.0
C810 C 0.03095 0.58915 0.0503 0.0
C811 C 0.07315 0.47962 0.07543 0.0
C812 C 0.02088 0.49114 0.00968 0.0
C813 C 0.05864 0.51939 -0.00111 0.0
C814 C 1.01935 0.49331 0.03088 0.0
C815 C 0.05654 0.52449 0.04152 0.0
C816 C 0.09581 0.55073 0.03086 0.0
C817 C 0.0964 0.5479 0.0096 0.0
C818 C 0.97692 0.46449 0.04168 0.0
C819 C 0.13625 0.584 0.04172 0.0
H820 H 1.01898 0.5942 0.09028 0.0
H821 H 0.05253 0.50098 0.1116 0.0
H822 H 0.06077 0.60688 0.04094 0.0
H823 H 1.00457 0.56597 0.04016 0.0
H824 H 0.02191 0.61282 0.05618 0.0
H825 H 0.08274 0.47 0.08971 0.0
H826 H 0.04639 0.45008 0.06829 0.0
H827 H 0.10109 0.49311 0.06477 0.0
H828 H 0.99192 0.46836 0.00145 0.0
H829 H 0.1257 0.56973 0.0013 0.0
H830 H 0.96274 0.48434 0.047 0.0
H831 H 0.98233 0.44938 0.05524 0.0
H832 H 0.95288 0.4384 0.03166 0.0
H833 H 0.13218 0.61172 0.04636 0.0
H834 H 0.16558 0.59656 0.03192 0.0
H835 H 0.14167 0.57002 0.05571 0.0
C836 C 0.58846 0.06681 0.42413 0.0
C837 C 0.56353 0.07364 0.43856 0.0
C838 C 0.57644 0.06036 0.40363 0.0
C839 C 0.53816 0.06008 0.39747 0.0
C840 C 0.51203 0.06555 0.4121 0.0
C841 C 0.52527 0.07267 0.43252 0.0
C842 C 0.60538 0.05498 0.38848 0.0
C843 C 0.4706 0.06465 0.40614 0.0
C844 C 0.53748 0.08881 0.34215 0.0
C845 C 0.51544 0.04767 0.33305 0.0
C846 C 0.54365 0.09332 0.36323 0.0
C847 C 0.52684 0.05579 0.37556 0.0
C848 C 0.50269 0.01422 0.36662 0.0
C849 C 0.49755 1.01064 0.34545 0.0
C850 C 0.56978 0.13823 0.3722 0.0
C851 C 0.48384 0.97348 0.37932 0.0
H852 H 0.61802 0.06744 0.42878 0.0
H853 H 0.50594 0.07791 0.44369 0.0
H854 H 0.58654 0.02402 0.38009 0.0
H855 H 0.61774 0.0816 0.37715 0.0
H856 H 0.63362 0.05522 0.39582 0.0
H857 H 0.45226 0.06595 0.41954 0.0
H858 H 0.47832 0.09269 0.39616 0.0
H859 H 0.44934 0.03479 0.39736 0.0
H860 H 0.55054 0.11761 0.33275 0.0
H861 H 0.4808 0.9787 0.33859 0.0
H862 H 0.60031 0.14231 0.37882 0.0
H863 H 0.55137 0.1427 0.38467 0.0
H864 H 0.57831 0.16411 0.36071 0.0
H865 H 0.51055 0.96928 0.38548 0.0
H866 H 0.46171 0.94408 0.37041 0.0
H867 H 0.46564 0.97601 0.39245 0.0
C868 C 0.55332 0.48844 0.75354 0.0
C869 C 0.56997 0.51552 0.77051 0.0
C870 C 0.5598 0.5057 0.73392 0.0
C871 C 0.5838 0.55126 0.73118 0.0
C872 C 0.6004 0.57888 0.74831 0.0
C873 C 0.59319 0.56056 0.76782 0.0
C874 C 0.54133 0.47505 0.71608 0.0
C875 C 0.62627 0.62757 0.746 0.0
C876 C 0.63024 0.57845 0.67817 0.0
C877 C 0.59816 0.58295 0.66798 0.0
C878 C 0.62802 0.57187 0.69922 0.0
C879 C 0.59249 0.56914 0.71023 0.0
C880 C 0.5618 0.57695 0.70023 0.0
C881 C 0.56513 0.58399 0.67915 0.0
C882 C 0.66181 0.56442 0.70935 0.0
C883 C 0.52343 0.57425 0.71142 0.0
H884 H 0.53519 0.45354 0.75558 0.0
H885 H 0.60601 0.58139 0.78093 0.0
H886 H 0.52005 0.48301 0.70694 0.0
H887 H 0.56809 0.47879 0.70604 0.0
H888 H 0.52215 0.44057 0.72088 0.0
H889 H 0.63461 0.64453 0.76089 0.0
H890 H 0.65684 0.63692 0.73763 0.0
H891 H 0.60773 0.63907 0.73693 0.0
H892 H 0.65607 0.57816 0.66951 0.0
H893 H 0.54024 0.58734 0.67124 0.0
H894 H 0.64731 0.52949 0.71309 0.0
H895 H 0.67287 0.58285 0.72378 0.0
H896 H 0.69054 0.57403 0.69943 0.0
H897 H 0.4998 0.53979 0.71491 0.0
H898 H 0.50659 0.58769 0.70233 0.0
H899 H 0.5338 0.59191 0.72607 0.0
C900 C 0.54823 0.06175 0.56629 0.0
C901 C 0.56177 0.09602 0.55259 0.0
C902 C 0.56249 0.06959 0.58648 0.0
C903 C 0.59124 0.11272 0.59288 0.0
C904 C 0.6056 0.14737 0.57884 0.0
C905 C 0.59034 0.13855 0.55878 0.0
C906 C 0.54628 0.03183 0.60102 0.0
C907 C 0.63658 0.19365 0.58506 0.0
C908 C 0.58908 0.13148 0.64933 0.0
C909 C 0.62421 0.12744 0.6562 0.0
C910 C 0.57901 0.12845 0.62862 0.0
C911 C 0.60479 0.12133 0.61446 0.0
C912 C 0.64141 0.11907 0.62121 0.0
C913 C 0.65059 0.12198 0.64205 0.0
C914 C 0.53955 0.13077 0.622 0.0
C915 C 0.66989 0.11198 0.6065 0.0
H916 H 0.52612 0.0289 0.56123 0.0
H917 H 0.60065 0.16483 0.54794 0.0
H918 H 0.57415 0.03055 0.60782 0.0
H919 H 0.52809 0.0362 0.61364 0.0
H920 H 0.52463 1.00027 0.5935 0.0
H921 H 0.64686 0.21636 0.57198 0.0
H922 H 0.62083 0.20413 0.59653 0.0
H923 H 0.66596 0.1961 0.59224 0.0
H924 H 0.56827 0.13515 0.66024 0.0
H925 H 0.67805 0.11932 0.64732 0.0
H926 H 0.5147 0.09888 0.61582 0.0
H927 H 0.54834 0.15502 0.60969 0.0
H928 H 0.52478 0.13951 0.63471 0.0
H929 H 0.65116 0.07912 0.59973 0.0
H930 H 0.6993 0.11497 0.61394 0.0
H931 H 0.68024 0.13572 0.59386 0.0
C932 C 0.6045 0.52588 0.90094 0.0
C933 C 0.57593 0.50605 0.88468 0.0
C934 C 0.59374 0.50808 0.92052 0.0
C935 C 0.55381 0.46919 0.92374 0.0
C936 C 0.52606 0.44777 0.90712 0.0
C937 C 0.53713 0.46687 0.88783 0.0
C938 C 0.62395 0.53214 0.93792 0.0
C939 C 0.48366 0.40581 0.90984 0.0
C940 C 0.53799 0.41393 0.97492 0.0
C941 C 0.51406 0.42933 0.9854 0.0
C942 C 0.55018 0.42554 0.95457 0.0
C943 C 0.53887 0.45385 0.94475 0.0
C944 C 0.51418 0.46893 0.95522 0.0
C945 C 0.50187 0.45626 0.97538 0.0
C946 C 0.57569 0.40814 0.94369 0.0
C947 C 0.50187 0.49956 0.94535 0.0
H948 H 0.63453 0.55619 0.89851 0.0
H949 H 0.51471 0.45169 0.87533 0.0
H950 H 0.60806 0.54463 0.94827 0.0
H951 H 0.63088 0.50996 0.94688 0.0
H952 H 0.65524 0.55994 0.93264 0.0
H953 H 0.46939 0.38997 0.89508 0.0
H954 H 0.4884 0.38284 0.91938 0.0
H955 H 0.45998 0.41237 0.91777 0.0
H956 H 0.54731 0.39299 0.98268 0.0
H957 H 0.484 0.46879 0.98357 0.0
H958 H 0.60853 0.43524 0.9398 0.0
H959 H 0.55943 0.39248 0.92921 0.0
H960 H 0.57935 0.38419 0.95302 0.0
H961 H 0.53167 0.52999 0.94091 0.0
H962 H 0.4822 0.50789 0.95555 0.0
H963 H 0.48298 0.48482 0.9313 0.0
C964 C 0.02275 0.57928 0.22 0.0
C965 C 0.02337 0.5407 0.2168 0.0
C966 C 1.0125 0.58912 0.23909 0.0
C967 C 1.00389 0.56021 0.25545 0.0
C968 C 1.00324 0.52057 0.25215 0.0
C969 C 1.01274 0.51114 0.23276 0.0
C970 C 1.01282 0.63136 0.24191 0.0
C971 C 0.99463 0.48915 0.2693 0.0
C972 C 0.03518 0.61019 0.30781 0.0
C973 C 0.99466 0.59873 0.3163 0.0
C974 C 0.03847 0.59774 0.28803 0.0
C975 C 1.00029 0.57357 0.27638 0.0
C976 C 0.95925 0.56236 0.28474 0.0
C977 C 0.95687 0.57478 0.30474 0.0
C978 C 0.08282 0.60994 0.27972 0.0
C979 C 0.918 0.53723 0.27258 0.0
H980 H 0.03128 0.60235 0.20769 0.0
H981 H 1.0132 0.48128 0.23027 0.0
H982 H 0.98335 0.6259 0.25024 0.0
H983 H 0.04145 0.65389 0.25113 0.0
H984 H 1.01434 0.64729 0.22719 0.0
H985 H 0.99175 0.45826 0.26389 0.0
H986 H 0.02159 0.50414 0.28046 0.0
H987 H 0.96431 0.48172 0.27742 0.0
H988 H 0.06435 0.62803 0.31687 0.0
H989 H 0.92554 0.566 0.31132 0.0
H990 H 0.08958 0.62991 0.26582 0.0
H991 H 0.08364 0.58025 0.27537 0.0
H992 H 0.10921 0.62846 0.29086 0.0
H993 H 0.92027 0.55474 0.25829 0.0
H994 H 0.8888 0.53206 0.28113 0.0
H995 H 0.91359 0.50515 0.26827 0.0
loop_
_geom_bond_atom_site_label_1
_geom_bond_atom_site_label_2
_geom_bond_distance
_geom_bond_site_symmetry_2
_ccdc_geom_bond_type
Dy0 O4 2.398 . S
Dy0 O5 2.491 . S
Dy0 O6 2.403 . S
Dy0 O7 2.664 . S
Dy0 O11 2.326 . S
Dy0 O15 2.310 . S
Dy0 O16 2.351 1_455 S
C1 O12 1.185 . S
C1 O13 1.355 . S
C2 O4 1.185 . S
C2 O5 1.355 . S
Dy3 O7 2.308 1_655 S
Dy3 O10 2.348 1_655 S
Dy3 O12 2.401 . S
Dy3 O13 2.494 . S
Dy3 O14 2.402 1_655 S
Dy3 O15 2.661 1_655 S
Dy3 O17 2.326 . S
O4 Dy0 2.398 . S
O4 C2 1.185 . S
O5 Dy0 2.491 . S
O5 C2 1.355 . S
O6 Dy0 2.403 . S
O6 C8 1.254 . S
O7 Dy0 2.664 . S
O7 Dy3 2.308 1_455 S
O7 C8 1.268 . S
C8 O6 1.254 . S
C8 O7 1.268 . S
C9 O14 1.254 . S
C9 O15 1.268 . S
O10 Dy3 2.348 1_455 S
O10 C18 1.249 . S
O11 Dy0 2.326 . S
O11 C18 1.267 . S
O12 C1 1.185 . S
O12 Dy3 2.401 . S
O13 C1 1.355 . S
O13 Dy3 2.494 . S
O14 Dy3 2.402 1_455 S
O14 C9 1.254 . S
O15 Dy0 2.310 . S
O15 Dy3 2.661 1_455 S
O15 C9 1.268 . S
O16 Dy0 2.351 1_655 S
O16 C19 1.249 . S
O17 Dy3 2.326 . S
O17 C19 1.267 . S
C18 O10 1.249 . S
C18 O11 1.267 . S
C19 O16 1.249 . S
C19 O17 1.267 . S
Dy20 O24 2.398 1_545 S
Dy20 O25 2.491 1_545 S
Dy20 O26 2.403 . S
Dy20 O27 2.664 . S
Dy20 O31 2.326 1_545 S
Dy20 O35 2.310 . S
Dy20 O36 2.351 . S
C21 O32 1.185 . S
C21 O33 1.355 . S
C22 O24 1.185 . S
C22 O25 1.355 . S
Dy23 O27 2.310 . S
Dy23 O30 2.351 1_545 S
Dy23 O32 2.398 . S
Dy23 O33 2.491 . S
Dy23 O34 2.403 . S
Dy23 O35 2.664 . S
Dy23 O37 2.326 . S
O24 Dy20 2.398 1_565 S
O24 C22 1.185 . S
O25 Dy20 2.491 1_565 S
O25 C22 1.355 . S
O26 Dy20 2.403 . S
O26 C28 1.254 . S
O27 Dy20 2.664 . S
O27 Dy23 2.310 . S
O27 C28 1.268 . S
C28 O26 1.254 . S
C28 O27 1.268 . S
C29 O34 1.254 . S
C29 O35 1.268 . S
O30 Dy23 2.351 1_565 S
O30 C38 1.249 . S
O31 Dy20 2.326 1_565 S
O31 C38 1.267 . S
O32 C21 1.185 . S
O32 Dy23 2.398 . S
O33 C21 1.355 . S
O33 Dy23 2.491 . S
O34 Dy23 2.403 . S
O34 C29 1.254 . S
O35 Dy20 2.310 . S
O35 Dy23 2.664 . S
O35 C29 1.268 . S
O36 Dy20 2.351 . S
O36 C39 1.249 . S
O37 Dy23 2.326 . S
O37 C39 1.267 . S
C38 O30 1.249 . S
C38 O31 1.267 . S
C39 O36 1.249 . S
C39 O37 1.267 . S
Dy40 O44 2.398 . S
Dy40 O45 2.491 . S
Dy40 O46 2.403 . S
Dy40 O47 2.664 . S
Dy40 O51 2.326 . S
Dy40 O55 2.310 . S
Dy40 O56 2.351 . S
C41 O52 1.185 . S
C41 O53 1.355 . S
C42 O44 1.185 . S
C42 O45 1.355 . S
Dy43 O47 2.310 . S
Dy43 O50 2.351 . S
Dy43 O52 2.398 . S
Dy43 O53 2.491 . S
Dy43 O54 2.403 . S
Dy43 O55 2.664 . S
Dy43 O57 2.326 . S
O44 Dy40 2.398 . S
O44 C42 1.185 . S
O45 Dy40 2.491 . S
O45 C42 1.355 . S
O46 Dy40 2.403 . S
O46 C48 1.254 . S
O47 Dy40 2.664 . S
O47 Dy43 2.310 . S
O47 C48 1.268 . S
C48 O46 1.254 . S
C48 O47 1.268 . S
C49 O54 1.254 . S
C49 O55 1.268 . S
O50 Dy43 2.351 . S
O50 C58 1.249 . S
O51 Dy40 2.326 . S
O51 C58 1.267 . S
O52 C41 1.185 . S
O52 Dy43 2.398 . S
O53 C41 1.355 . S
O53 Dy43 2.491 . S
O54 Dy43 2.403 . S
O54 C49 1.254 . S
O55 Dy40 2.310 . S
O55 Dy43 2.664 . S
O55 C49 1.268 . S
O56 Dy40 2.351 . S
O56 C59 1.249 . S
O57 Dy43 2.326 . S
O57 C59 1.267 . S
C58 O50 1.249 . S
C58 O51 1.267 . S
C59 O56 1.249 . S
C59 O57 1.267 . S
C60 C61 1.391 . S
C60 C64 1.391 . S
C60 H102 0.948 . S
C61 C60 1.391 . S
C61 C62 1.391 . S
C62 C61 1.391 . S
C62 H118 0.947 . S
C62 C119 1.392 . S
C63 C64 1.391 . S
C63 C67 1.397 . S
C63 C119 1.419 . S
C64 C60 1.391 . S
C64 C63 1.391 . S
C64 C65 1.399 . S
C65 C64 1.399 . S
C65 C68 1.396 . S
C65 C77 1.453 . S
C65 C78 1.684 . S
H66 C90 0.948 . S
C67 C63 1.397 . S
C67 C68 1.394 . S
C67 C86 1.723 . S
C68 C65 1.396 . S
C68 C67 1.394 . S
C68 C98 1.723 1_545 S
H69 C92 0.947 . S
H70 C93 0.948 . S
H71 C99 0.982 . S
H72 C100 0.979 . S
H73 C100 0.980 . S
H74 C100 0.983 . S
H75 C99 0.979 . S
H76 C99 0.977 . S
C77 C65 1.453 . S
C77 H106 0.982 . S
C77 H107 0.979 . S
C77 H108 0.977 1_545 S
C78 C65 1.684 . S
C78 H103 0.979 . S
C78 H104 0.980 . S
C78 H105 0.983 . S
C79 C80 1.391 . S
C79 C84 1.391 . S
C79 H109 0.948 . S
C80 C79 1.391 . S
C80 C81 1.391 1_545 S
C81 C80 1.391 1_565 S
C81 C82 1.392 . S
C81 H110 0.947 . S
C82 C81 1.392 . S
C82 C83 1.419 1_565 S
C82 H111 0.948 . S
C83 C82 1.419 1_545 S
C83 C84 1.391 . S
C83 C87 1.397 . S
C84 C79 1.391 . S
C84 C83 1.391 . S
C84 C85 1.399 . S
C85 C84 1.399 . S
C85 C86 1.396 . S
C85 C88 1.453 . S
C85 C89 1.684 . S
C86 C67 1.723 . S
C86 C85 1.396 . S
C86 C87 1.394 . S
C87 C83 1.397 . S
C87 C86 1.394 . S
C87 C97 1.723 1_545 S
C88 C85 1.453 . S
C88 H112 0.982 . S
C88 H113 0.979 . S
C88 H114 0.977 . S
C89 C85 1.684 . S
C89 H115 0.979 . S
C89 H116 0.980 . S
C89 H117 0.983 . S
C90 H66 0.948 . S
C90 C91 1.391 . S
C90 C95 1.391 . S
C91 C90 1.391 . S
C91 C92 1.391 . S
C92 H69 0.947 . S
C92 C91 1.391 . S
C92 C93 1.392 . S
C93 H70 0.948 . S
C93 C92 1.392 . S
C93 C94 1.419 . S
C94 C93 1.419 . S
C94 C95 1.391 . S
C94 C98 1.397 . S
C95 C90 1.391 . S
C95 C94 1.391 . S
C95 C96 1.399 . S
C96 C95 1.399 . S
C96 C97 1.396 . S
C96 C99 1.453 . S
C96 C100 1.684 . S
C97 C87 1.723 1_565 S
C97 C96 1.396 . S
C97 C98 1.394 . S
C98 C68 1.723 1_565 S
C98 C94 1.397 . S
C98 C97 1.394 . S
C99 H71 0.982 . S
C99 H75 0.979 . S
C99 H76 0.977 . S
C99 C96 1.453 . S
C100 H72 0.979 . S
C100 H73 0.980 . S
C100 H74 0.983 . S
C100 C96 1.684 . S
H101 C119 0.948 . S
H102 C60 0.948 . S
H103 C78 0.979 . S
H104 C78 0.980 . S
H105 C78 0.983 . S
H106 C77 0.982 . S
H107 C77 0.979 . S
H108 C77 0.977 1_565 S
H109 C79 0.948 . S
H110 C81 0.947 . S
H111 C82 0.948 . S
H112 C88 0.982 . S
H113 C88 0.979 . S
H114 C88 0.977 . S
H115 C89 0.979 . S
H116 C89 0.980 . S
H117 C89 0.983 . S
H118 C62 0.947 . S
C119 C62 1.392 . S
C119 C63 1.419 . S
C119 H101 0.948 . S
C120 C121 1.391 . S
C120 C124 1.391 . S
C120 H162 0.948 . S
C121 C120 1.391 . S
C121 C122 1.391 . S
C122 C121 1.391 . S
C122 H178 0.947 . S
C122 C179 1.392 . S
C123 C124 1.391 . S
C123 C127 1.397 . S
C123 C179 1.419 . S
C124 C120 1.391 . S
C124 C123 1.391 . S
C124 C125 1.399 . S
C125 C124 1.399 . S
C125 C128 1.396 . S
C125 C137 1.453 . S
C125 C138 1.684 . S
H126 C150 0.948 . S
C127 C123 1.397 . S
C127 C128 1.394 . S
C127 C146 1.723 . S
C128 C125 1.396 . S
C128 C127 1.394 . S
C128 C158 1.723 . S
H129 C152 0.947 . S
H130 C153 0.948 . S
H131 C159 0.982 . S
H132 C160 0.979 . S
H133 C160 0.980 . S
H134 C160 0.983 . S
H135 C159 0.979 . S
H136 C159 0.977 . S
C137 C125 1.453 . S
C137 H166 0.982 . S
C137 H167 0.979 . S
C137 H168 0.977 . S
C138 C125 1.684 . S
C138 H163 0.979 . S
C138 H164 0.980 . S
C138 H165 0.983 . S
C139 C140 1.391 . S
C139 C144 1.391 . S
C139 H169 0.948 . S
C140 C139 1.391 . S
C140 C141 1.391 . S
C141 C140 1.391 . S
C141 C142 1.392 . S
C141 H170 0.947 . S
C142 C141 1.392 . S
C142 C143 1.419 . S
C142 H171 0.948 . S
C143 C142 1.419 . S
C143 C144 1.391 . S
C143 C147 1.397 . S
C144 C139 1.391 . S
C144 C143 1.391 . S
C144 C145 1.399 . S
C145 C144 1.399 . S
C145 C146 1.396 . S
C145 C148 1.453 . S
C145 C149 1.684 . S
C146 C127 1.723 . S
C146 C145 1.396 . S
C146 C147 1.394 . S
C147 C143 1.397 . S
C147 C146 1.394 . S
C147 C157 1.723 . S
C148 C145 1.453 . S
C148 H172 0.982 . S
C148 H173 0.979 . S
C148 H174 0.977 . S
C149 C145 1.684 . S
C149 H175 0.979 . S
C149 H176 0.980 . S
C149 H177 0.983 . S
C150 H126 0.948 . S
C150 C151 1.391 . S
C150 C155 1.391 . S
C151 C150 1.391 . S
C151 C152 1.391 . S
C152 H129 0.947 . S
C152 C151 1.391 . S
C152 C153 1.392 . S
C153 H130 0.948 . S
C153 C152 1.392 . S
C153 C154 1.419 . S
C154 C153 1.419 . S
C154 C155 1.391 . S
C154 C158 1.397 . S
C155 C150 1.391 . S
C155 C154 1.391 . S
C155 C156 1.399 . S
C156 C155 1.399 . S
C156 C157 1.396 . S
C156 C159 1.453 . S
C156 C160 1.684 . S
C157 C147 1.723 . S
C157 C156 1.396 . S
C157 C158 1.394 . S
C158 C128 1.723 . S
C158 C154 1.397 . S
C158 C157 1.394 . S
C159 H131 0.982 . S
C159 H135 0.979 . S
C159 H136 0.977 . S
C159 C156 1.453 . S
C160 H132 0.979 . S
C160 H133 0.980 . S
C160 H134 0.983 . S
C160 C156 1.684 . S
H161 C179 0.948 . S
H162 C120 0.948 . S
H163 C138 0.979 . S
H164 C138 0.980 . S
H165 C138 0.983 . S
H166 C137 0.982 . S
H167 C137 0.979 . S
H168 C137 0.977 . S
H169 C139 0.948 . S
H170 C141 0.947 . S
H171 C142 0.948 . S
H172 C148 0.982 . S
H173 C148 0.979 . S
H174 C148 0.977 . S
H175 C149 0.979 . S
H176 C149 0.980 . S
H177 C149 0.983 . S
H178 C122 0.947 . S
C179 C122 1.392 . S
C179 C123 1.419 . S
C179 H161 0.948 . S
C180 C181 1.391 . S
C180 C184 1.391 . S
C180 H222 0.948 . S
C181 C180 1.391 . S
C181 C182 1.391 . S
C182 C181 1.391 . S
C182 H238 0.947 . S
C182 C239 1.392 . S
C183 C184 1.391 . S
C183 C187 1.397 . S
C183 C239 1.419 . S
C184 C180 1.391 . S
C184 C183 1.391 . S
C184 C185 1.399 . S
C185 C184 1.399 . S
C185 C188 1.396 . S
C185 C197 1.453 . S
C185 C198 1.684 . S
H186 C210 0.948 . S
C187 C183 1.397 . S
C187 C188 1.394 . S
C187 C206 1.723 . S
C188 C185 1.396 . S
C188 C187 1.394 . S
C188 C218 1.723 . S
H189 C212 0.947 . S
H190 C213 0.938 1_455 S
H191 C219 0.982 . S
H192 C220 0.979 . S
H193 C220 0.980 . S
H194 C220 0.983 . S
H195 C219 0.979 . S
H196 C219 0.977 . S
C197 C185 1.453 . S
C197 H226 0.982 . S
C197 H227 0.979 . S
C197 H228 0.977 . S
C198 C185 1.684 . S
C198 H223 0.979 . S
C198 H224 0.980 . S
C198 H225 0.983 . S
C199 C200 1.391 . S
C199 C204 1.391 . S
C199 H229 0.948 . S
C200 C199 1.391 . S
C200 C201 1.391 . S
C201 C200 1.391 . S
C201 C202 1.392 . S
C201 H230 0.947 1_455 S
C202 C201 1.392 . S
C202 C203 1.419 . S
C202 H231 0.948 1_455 S
C203 C202 1.419 . S
C203 C204 1.391 . S
C203 C207 1.397 . S
C204 C199 1.391 . S
C204 C203 1.391 . S
C204 C205 1.399 . S
C205 C204 1.399 . S
C205 C206 1.396 . S
C205 C208 1.453 . S
C205 C209 1.684 . S
C206 C187 1.723 . S
C206 C205 1.396 . S
C206 C207 1.394 . S
C207 C203 1.397 . S
C207 C206 1.394 . S
C207 C217 1.723 . S
C208 C205 1.453 . S
C208 H232 0.982 . S
C208 H233 0.979 . S
C208 H234 0.977 . S
C209 C205 1.684 . S
C209 H235 0.979 . S
C209 H236 0.980 . S
C209 H237 0.983 . S
C210 H186 0.948 . S
C210 C211 1.391 . S
C210 C215 1.391 . S
C211 C210 1.391 . S
C211 C212 1.391 . S
C212 H189 0.947 . S
C212 C211 1.391 . S
C212 C213 1.403 . S
C213 H190 0.938 1_655 S
C213 C212 1.403 . S
C213 C214 1.420 . S
C214 C213 1.420 . S
C214 C215 1.413 . S
C214 C218 1.376 1_655 S
C215 C210 1.391 . S
C215 C214 1.413 . S
C215 C216 1.399 . S
C216 C215 1.399 . S
C216 C217 1.396 1_655 S
C216 C219 1.453 . S
C216 C220 1.684 . S
C217 C207 1.723 . S
C217 C216 1.396 1_455 S
C217 C218 1.394 . S
C218 C188 1.723 . S
C218 C214 1.376 1_455 S
C218 C217 1.394 . S
C219 H191 0.982 . S
C219 H195 0.979 . S
C219 H196 0.977 . S
C219 C216 1.453 . S
C220 H192 0.979 . S
C220 H193 0.980 . S
C220 H194 0.983 . S
C220 C216 1.684 . S
H221 C239 0.948 . S
H222 C180 0.948 . S
H223 C198 0.979 . S
H224 C198 0.980 . S
H225 C198 0.983 . S
H226 C197 0.982 . S
H227 C197 0.979 . S
H228 C197 0.977 . S
H229 C199 0.948 . S
H230 C201 0.947 1_655 S
H231 C202 0.948 1_655 S
H232 C208 0.982 . S
H233 C208 0.979 . S
H234 C208 0.977 . S
H235 C209 0.979 . S
H236 C209 0.980 . S
H237 C209 0.983 . S
H238 C182 0.947 . S
C239 C182 1.392 . S
C239 C183 1.419 . S
C239 H221 0.948 . S
C240 C241 1.391 . S
C240 C244 1.391 . S
C240 H282 0.948 . S
C241 C240 1.391 . S
C241 C242 1.391 . S
C242 C241 1.391 . S
C242 H298 0.947 . S
C242 C299 1.392 . S
C243 C244 1.391 . S
C243 C247 1.397 . S
C243 C299 1.419 . S
C244 C240 1.391 . S
C244 C243 1.391 . S
C244 C245 1.399 . S
C245 C244 1.399 . S
C245 C248 1.396 . S
C245 C257 1.453 . S
C245 C258 1.684 . S
H246 C270 0.948 . S
C247 C243 1.397 . S
C247 C248 1.394 . S
C247 C266 1.723 . S
C248 C245 1.396 . S
C248 C247 1.394 . S
C248 C278 1.723 1_655 S
H249 C272 0.947 . S
H250 C273 0.948 . S
H251 C279 0.982 . S
H252 C280 0.979 . S
H253 C280 0.980 . S
H254 C280 0.983 . S
H255 C279 0.979 . S
H256 C279 0.977 . S
C257 C245 1.453 . S
C257 H286 0.982 1_655 S
C257 H287 0.979 . S
C257 H288 0.977 1_655 S
C258 C245 1.684 . S
C258 H283 0.979 . S
C258 H284 0.980 . S
C258 H285 0.983 . S
C259 C260 1.391 1_655 S
C259 C264 1.391 . S
C259 H289 0.948 . S
C260 C259 1.391 1_455 S
C260 C261 1.391 . S
C261 C260 1.391 . S
C261 C262 1.392 . S
C261 H290 0.947 . S
C262 C261 1.392 . S
C262 C263 1.419 . S
C262 H291 0.948 . S
C263 C262 1.419 . S
C263 C264 1.391 1_455 S
C263 C267 1.397 . S
C264 C259 1.391 . S
C264 C263 1.391 1_655 S
C264 C265 1.399 . S
C265 C264 1.399 . S
C265 C266 1.396 . S
C265 C268 1.453 . S
C265 C269 1.684 . S
C266 C247 1.723 . S
C266 C265 1.396 . S
C266 C267 1.394 1_655 S
C267 C263 1.397 . S
C267 C266 1.394 1_455 S
C267 C277 1.723 . S
C268 C265 1.453 . S
C268 H292 0.982 . S
C268 H293 0.979 . S
C268 H294 0.977 . S
C269 C265 1.684 . S
C269 H295 0.979 . S
C269 H296 0.980 . S
C269 H297 0.983 . S
C270 H246 0.948 . S
C270 C271 1.391 . S
C270 C275 1.391 . S
C271 C270 1.391 . S
C271 C272 1.391 . S
C272 H249 0.947 . S
C272 C271 1.391 . S
C272 C273 1.392 . S
C273 H250 0.948 . S
C273 C272 1.392 . S
C273 C274 1.419 . S
C274 C273 1.419 . S
C274 C275 1.391 . S
C274 C278 1.397 . S
C275 C270 1.391 . S
C275 C274 1.391 . S
C275 C276 1.399 . S
C276 C275 1.399 . S
C276 C277 1.396 . S
C276 C279 1.453 . S
C276 C280 1.684 . S
C277 C267 1.723 . S
C277 C276 1.396 . S
C277 C278 1.394 . S
C278 C248 1.723 1_455 S
C278 C274 1.397 . S
C278 C277 1.394 . S
C279 H251 0.982 . S
C279 H255 0.979 . S
C279 H256 0.977 . S
C279 C276 1.453 . S
C280 H252 0.979 . S
C280 H253 0.980 . S
C280 H254 0.983 . S
C280 C276 1.684 . S
H281 C299 0.948 . S
H282 C240 0.948 . S
H283 C258 0.979 . S
H284 C258 0.980 . S
H285 C258 0.983 . S
H286 C257 0.982 1_455 S
H287 C257 0.979 . S
H288 C257 0.977 1_455 S
H289 C259 0.948 . S
H290 C261 0.947 . S
H291 C262 0.948 . S
H292 C268 0.982 . S
H293 C268 0.979 . S
H294 C268 0.977 . S
H295 C269 0.979 . S
H296 C269 0.980 . S
H297 C269 0.983 . S
H298 C242 0.947 . S
C299 C242 1.392 . S
C299 C243 1.419 . S
C299 H281 0.948 . S
C300 C301 1.391 . S
C300 C304 1.391 . S
C300 H342 0.948 . S
C301 C300 1.391 . S
C301 C302 1.391 . S
C302 C301 1.391 . S
C302 H358 0.947 . S
C302 C359 1.392 . S
C303 C304 1.391 . S
C303 C307 1.397 1_565 S
C303 C359 1.419 . S
C304 C300 1.391 . S
C304 C303 1.391 . S
C304 C305 1.399 1_565 S
C305 C304 1.399 1_545 S
C305 C308 1.396 . S
C305 C317 1.453 . S
C305 C318 1.684 . S
H306 C330 0.948 . S
C307 C303 1.397 1_545 S
C307 C308 1.394 . S
C307 C326 1.723 . S
C308 C305 1.396 . S
C308 C307 1.394 . S
C308 C338 1.723 . S
H309 C332 0.947 . S
H310 C333 0.948 . S
H311 C339 0.982 . S
H312 C340 0.979 . S
H313 C340 0.980 . S
H314 C340 0.983 . S
H315 C339 0.979 . S
H316 C339 0.977 . S
C317 C305 1.453 . S
C317 H346 0.982 . S
C317 H347 0.979 . S
C317 H348 0.977 . S
C318 C305 1.684 . S
C318 H343 0.979 . S
C318 H344 0.980 . S
C318 H345 0.983 . S
C319 C320 1.391 . S
C319 C324 1.391 . S
C319 H349 0.948 . S
C320 C319 1.391 . S
C320 C321 1.391 . S
C321 C320 1.391 . S
C321 C322 1.392 . S
C321 H350 0.947 . S
C322 C321 1.392 . S
C322 C323 1.419 . S
C322 H351 0.948 . S
C323 C322 1.419 . S
C323 C324 1.391 . S
C323 C327 1.397 . S
C324 C319 1.391 . S
C324 C323 1.391 . S
C324 C325 1.399 . S
C325 C324 1.399 . S
C325 C326 1.396 . S
C325 C328 1.453 1_545 S
C325 C329 1.684 1_545 S
C326 C307 1.723 . S
C326 C325 1.396 . S
C326 C327 1.394 . S
C327 C323 1.397 . S
C327 C326 1.394 . S
C327 C337 1.723 . S
C328 C325 1.453 1_565 S
C328 H352 0.982 1_565 S
C328 H353 0.979 . S
C328 H354 0.977 . S
C329 C325 1.684 1_565 S
C329 H355 0.979 . S
C329 H356 0.980 . S
C329 H357 0.983 . S
C330 H306 0.948 . S
C330 C331 1.391 . S
C330 C335 1.391 . S
C331 C330 1.391 . S
C331 C332 1.391 . S
C332 H309 0.947 . S
C332 C331 1.391 . S
C332 C333 1.392 . S
C333 H310 0.948 . S
C333 C332 1.392 . S
C333 C334 1.419 . S
C334 C333 1.419 . S
C334 C335 1.391 . S
C334 C338 1.397 . S
C335 C330 1.391 . S
C335 C334 1.391 . S
C335 C336 1.399 . S
C336 C335 1.399 . S
C336 C337 1.396 . S
C336 C339 1.453 . S
C336 C340 1.684 . S
C337 C327 1.723 . S
C337 C336 1.396 . S
C337 C338 1.394 . S
C338 C308 1.723 . S
C338 C334 1.397 . S
C338 C337 1.394 . S
C339 H311 0.982 . S
C339 H315 0.979 . S
C339 H316 0.977 . S
C339 C336 1.453 . S
C340 H312 0.979 . S
C340 H313 0.980 . S
C340 H314 0.983 . S
C340 C336 1.684 . S
H341 C359 0.948 . S
H342 C300 0.948 . S
H343 C318 0.979 . S
H344 C318 0.980 . S
H345 C318 0.983 . S
H346 C317 0.982 . S
H347 C317 0.979 . S
H348 C317 0.977 . S
H349 C319 0.948 . S
H350 C321 0.947 . S
H351 C322 0.948 . S
H352 C328 0.982 1_545 S
H353 C328 0.979 . S
H354 C328 0.977 . S
H355 C329 0.979 . S
H356 C329 0.980 . S
H357 C329 0.983 . S
H358 C302 0.947 . S
C359 C302 1.392 . S
C359 C303 1.419 . S
C359 H341 0.948 . S
C360 C361 1.391 . S
C360 C364 1.391 . S
C360 H402 0.948 . S
C361 C360 1.391 . S
C361 C362 1.391 . S
C362 C361 1.391 . S
C362 H418 0.947 . S
C362 C419 1.392 . S
C363 C364 1.391 . S
C363 C367 1.397 . S
C363 C419 1.419 . S
C364 C360 1.391 . S
C364 C363 1.391 . S
C364 C365 1.399 . S
C365 C364 1.399 . S
C365 C368 1.396 . S
C365 C377 1.453 . S
C365 C378 1.684 . S
H366 C390 0.948 . S
C367 C363 1.397 . S
C367 C368 1.394 . S
C367 C386 1.723 . S
C368 C365 1.396 . S
C368 C367 1.394 . S
C368 C398 1.723 . S
H369 C392 0.947 . S
H370 C393 0.948 . S
H371 C399 0.982 . S
H372 C400 0.979 . S
H373 C400 0.980 . S
H374 C400 0.983 . S
H375 C399 0.979 . S
H376 C399 0.977 . S
C377 C365 1.453 . S
C377 H406 0.982 . S
C377 H407 0.979 . S
C377 H408 0.977 . S
C378 C365 1.684 . S
C378 H403 0.979 . S
C378 H404 0.980 . S
C378 H405 0.983 . S
C379 C380 1.391 . S
C379 C384 1.391 . S
C379 H409 0.948 . S
C380 C379 1.391 . S
C380 C381 1.391 . S
C381 C380 1.391 . S
C381 C382 1.392 . S
C381 H410 0.947 . S
C382 C381 1.392 . S
C382 C383 1.419 . S
C382 H411 0.948 . S
C383 C382 1.419 . S
C383 C384 1.391 . S
C383 C387 1.397 . S
C384 C379 1.391 . S
C384 C383 1.391 . S
C384 C385 1.399 . S
C385 C384 1.399 . S
C385 C386 1.396 . S
C385 C388 1.453 . S
C385 C389 1.684 . S
C386 C367 1.723 . S
C386 C385 1.396 . S
C386 C387 1.394 . S
C387 C383 1.397 . S
C387 C386 1.394 . S
C387 C397 1.723 . S
C388 C385 1.453 . S
C388 H412 0.982 . S
C388 H413 0.979 . S
C388 H414 0.977 . S
C389 C385 1.684 . S
C389 H415 0.979 . S
C389 H416 0.980 . S
C389 H417 0.983 . S
C390 H366 0.948 . S
C390 C391 1.391 . S
C390 C395 1.391 . S
C391 C390 1.391 . S
C391 C392 1.391 . S
C392 H369 0.947 . S
C392 C391 1.391 . S
C392 C393 1.392 . S
C393 H370 0.948 . S
C393 C392 1.392 . S
C393 C394 1.419 . S
C394 C393 1.419 . S
C394 C395 1.391 . S
C394 C398 1.397 . S
C395 C390 1.391 . S
C395 C394 1.391 . S
C395 C396 1.399 . S
C396 C395 1.399 . S
C396 C397 1.396 . S
C396 C399 1.453 . S
C396 C400 1.684 . S
C397 C387 1.723 . S
C397 C396 1.396 . S
C397 C398 1.394 . S
C398 C368 1.723 . S
C398 C394 1.397 . S
C398 C397 1.394 . S
C399 H371 0.982 . S
C399 H375 0.979 . S
C399 H376 0.977 . S
C399 C396 1.453 . S
C400 H372 0.979 . S
C400 H373 0.980 . S
C400 H374 0.983 . S
C400 C396 1.684 . S
H401 C419 0.948 . S
H402 C360 0.948 . S
H403 C378 0.979 . S
H404 C378 0.980 . S
H405 C378 0.983 . S
H406 C377 0.982 . S
H407 C377 0.979 . S
H408 C377 0.977 . S
H409 C379 0.948 . S
H410 C381 0.947 . S
H411 C382 0.948 . S
H412 C388 0.982 . S
H413 C388 0.979 . S
H414 C388 0.977 . S
H415 C389 0.979 . S
H416 C389 0.980 . S
H417 C389 0.983 . S
H418 C362 0.947 . S
C419 C362 1.392 . S
C419 C363 1.419 . S
C419 H401 0.948 . S
C420 C421 1.391 . S
C420 C422 1.394 . S
C420 H436 0.931 . S
C421 C420 1.391 . S
C421 C425 1.376 . S
C422 C420 1.394 . S
C422 C423 1.369 . S
C422 C426 1.531 . S
C423 C422 1.369 . S
C423 C424 1.410 . S
C423 C431 1.503 . S
C424 C423 1.410 . S
C424 C425 1.392 . S
C424 C427 1.511 . S
C425 C421 1.376 . S
C425 C424 1.392 . S
C425 H437 0.929 . S
C426 C422 1.531 . S
C426 H438 0.960 . S
C426 H439 0.962 . S
C426 H440 0.960 . S
C427 C424 1.511 . S
C427 H441 0.961 . S
C427 H442 0.961 . S
C427 H443 0.961 . S
C428 C429 1.370 . S
C428 C430 1.363 . S
C428 H444 0.931 . S
C429 C428 1.370 . S
C429 C433 1.408 . S
C430 C428 1.363 . S
C430 C431 1.370 . S
C430 C434 1.524 . S
C431 C423 1.503 . S
C431 C430 1.370 . S
C431 C432 1.403 . S
C432 C431 1.403 . S
C432 C433 1.404 . S
C432 C435 1.539 . S
C433 C429 1.408 . S
C433 C432 1.404 . S
C433 H445 0.930 . S
C434 C430 1.524 . S
C434 H446 0.956 . S
C434 H447 0.961 . S
C434 H448 0.961 . S
C435 C432 1.539 . S
C435 H449 0.958 . S
C435 H450 0.961 . S
C435 H451 0.960 . S
H436 C420 0.931 . S
H437 C425 0.929 . S
H438 C426 0.960 . S
H439 C426 0.962 . S
H440 C426 0.960 . S
H441 C427 0.961 . S
H442 C427 0.961 . S
H443 C427 0.961 . S
H444 C428 0.931 . S
H445 C433 0.930 . S
H446 C434 0.956 . S
H447 C434 0.961 . S
H448 C434 0.961 . S
H449 C435 0.958 . S
H450 C435 0.961 . S
H451 C435 0.960 . S
C452 C453 1.391 . S
C452 C454 1.394 . S
C452 H468 0.931 . S
C453 C452 1.391 . S
C453 C457 1.376 . S
C454 C452 1.394 . S
C454 C455 1.369 . S
C454 C458 1.531 . S
C455 C454 1.369 . S
C455 C456 1.410 . S
C455 C463 1.503 . S
C456 C455 1.410 . S
C456 C457 1.392 . S
C456 C459 1.511 . S
C457 C453 1.376 . S
C457 C456 1.392 . S
C457 H469 0.929 . S
C458 C454 1.531 . S
C458 H470 0.960 . S
C458 H471 0.962 . S
C458 H472 0.960 . S
C459 C456 1.511 . S
C459 H473 0.961 . S
C459 H474 0.961 . S
C459 H475 0.961 . S
C460 C461 1.370 . S
C460 C462 1.363 . S
C460 H476 0.931 . S
C461 C460 1.370 . S
C461 C465 1.408 . S
C462 C460 1.363 . S
C462 C463 1.370 . S
C462 C466 1.524 . S
C463 C455 1.503 . S
C463 C462 1.370 . S
C463 C464 1.403 . S
C464 C463 1.403 . S
C464 C465 1.404 . S
C464 C467 1.539 . S
C465 C461 1.408 . S
C465 C464 1.404 . S
C465 H477 0.930 . S
C466 C462 1.524 . S
C466 H478 0.956 . S
C466 H479 0.961 . S
C466 H480 0.961 . S
C467 C464 1.539 . S
C467 H481 0.958 . S
C467 H482 0.961 . S
C467 H483 0.960 . S
H468 C452 0.931 . S
H469 C457 0.929 . S
H470 C458 0.960 . S
H471 C458 0.962 . S
H472 C458 0.960 . S
H473 C459 0.961 . S
H474 C459 0.961 . S
H475 C459 0.961 . S
H476 C460 0.931 . S
H477 C465 0.930 . S
H478 C466 0.956 . S
H479 C466 0.961 . S
H480 C466 0.961 . S
H481 C467 0.958 . S
H482 C467 0.961 . S
H483 C467 0.960 . S
C484 C485 1.391 . S
C484 C486 1.394 . S
C484 H500 0.931 . S
C485 C484 1.391 . S
C485 C489 1.376 . S
C486 C484 1.394 . S
C486 C487 1.369 . S
C486 C490 1.531 . S
C487 C486 1.369 . S
C487 C488 1.410 . S
C487 C495 1.503 . S
C488 C487 1.410 . S
C488 C489 1.392 . S
C488 C491 1.511 . S
C489 C485 1.376 . S
C489 C488 1.392 . S
C489 H501 0.929 . S
C490 C486 1.531 . S
C490 H502 0.960 . S
C490 H503 0.962 . S
C490 H504 0.960 . S
C491 C488 1.511 . S
C491 H505 0.961 . S
C491 H506 0.961 . S
C491 H507 0.961 . S
C492 C493 1.370 . S
C492 C494 1.363 . S
C492 H508 0.931 . S
C493 C492 1.370 . S
C493 C497 1.408 . S
C494 C492 1.363 . S
C494 C495 1.370 . S
C494 C498 1.524 . S
C495 C487 1.503 . S
C495 C494 1.370 . S
C495 C496 1.403 . S
C496 C495 1.403 . S
C496 C497 1.404 . S
C496 C499 1.539 . S
C497 C493 1.408 . S
C497 C496 1.404 . S
C497 H509 0.930 . S
C498 C494 1.524 . S
C498 H510 0.956 . S
C498 H511 0.961 . S
C498 H512 0.961 . S
C499 C496 1.539 . S
C499 H513 0.958 . S
C499 H514 0.961 . S
C499 H515 0.960 . S
H500 C484 0.931 . S
H501 C489 0.929 . S
H502 C490 0.960 . S
H503 C490 0.962 . S
H504 C490 0.960 . S
H505 C491 0.961 . S
H506 C491 0.961 . S
H507 C491 0.961 . S
H508 C492 0.931 . S
H509 C497 0.930 . S
H510 C498 0.956 . S
H511 C498 0.961 . S
H512 C498 0.961 . S
H513 C499 0.958 . S
H514 C499 0.961 . S
H515 C499 0.960 . S
C516 C517 1.391 . S
C516 C518 1.394 . S
C516 H532 0.931 . S
C517 C516 1.391 . S
C517 C521 1.376 . S
C518 C516 1.394 . S
C518 C519 1.369 . S
C518 C522 1.531 . S
C519 C518 1.369 . S
C519 C520 1.410 . S
C519 C527 1.503 . S
C520 C519 1.410 . S
C520 C521 1.392 . S
C520 C523 1.511 . S
C521 C517 1.376 . S
C521 C520 1.392 . S
C521 H533 0.929 . S
C522 C518 1.531 . S
C522 H534 0.960 . S
C522 H535 0.962 . S
C522 H536 0.960 . S
C523 C520 1.511 . S
C523 H537 0.961 . S
C523 H538 0.961 . S
C523 H539 0.961 . S
C524 C525 1.370 . S
C524 C526 1.363 . S
C524 H540 0.931 . S
C525 C524 1.370 . S
C525 C529 1.408 . S
C526 C524 1.363 . S
C526 C527 1.370 . S
C526 C530 1.524 . S
C527 C519 1.503 . S
C527 C526 1.370 . S
C527 C528 1.403 . S
C528 C527 1.403 . S
C528 C529 1.404 . S
C528 C531 1.539 . S
C529 C525 1.408 . S
C529 C528 1.404 . S
C529 H541 0.930 . S
C530 C526 1.524 . S
C530 H542 0.956 . S
C530 H543 0.961 . S
C530 H544 0.961 . S
C531 C528 1.539 . S
C531 H545 0.958 . S
C531 H546 0.961 . S
C531 H547 0.960 . S
H532 C516 0.931 . S
H533 C521 0.929 . S
H534 C522 0.960 . S
H535 C522 0.962 . S
H536 C522 0.960 . S
H537 C523 0.961 . S
H538 C523 0.961 . S
H539 C523 0.961 . S
H540 C524 0.931 . S
H541 C529 0.930 . S
H542 C530 0.956 . S
H543 C530 0.961 . S
H544 C530 0.961 . S
H545 C531 0.958 . S
H546 C531 0.961 . S
H547 C531 0.960 . S
C548 C549 1.391 . S
C548 C550 1.394 . S
C548 H564 0.931 . S
C549 C548 1.391 . S
C549 C553 1.376 . S
C550 C548 1.394 . S
C550 C551 1.369 . S
C550 C554 1.531 . S
C551 C550 1.369 . S
C551 C552 1.410 . S
C551 C559 1.503 . S
C552 C551 1.410 . S
C552 C553 1.392 . S
C552 C555 1.511 . S
C553 C549 1.376 . S
C553 C552 1.392 . S
C553 H565 0.929 . S
C554 C550 1.531 . S
C554 H566 0.960 . S
C554 H567 0.962 . S
C554 H568 0.960 . S
C555 C552 1.511 . S
C555 H569 0.961 . S
C555 H570 0.961 . S
C555 H571 0.961 . S
C556 C557 1.370 . S
C556 C558 1.363 . S
C556 H572 0.931 . S
C557 C556 1.370 . S
C557 C561 1.408 . S
C558 C556 1.363 . S
C558 C559 1.370 . S
C558 C562 1.524 . S
C559 C551 1.503 . S
C559 C558 1.370 . S
C559 C560 1.403 . S
C560 C559 1.403 . S
C560 C561 1.404 . S
C560 C563 1.539 . S
C561 C557 1.408 . S
C561 C560 1.404 . S
C561 H573 0.930 . S
C562 C558 1.524 . S
C562 H574 0.956 . S
C562 H575 0.961 . S
C562 H576 0.961 . S
C563 C560 1.539 . S
C563 H577 0.958 . S
C563 H578 0.961 . S
C563 H579 0.960 . S
H564 C548 0.931 . S
H565 C553 0.929 . S
H566 C554 0.960 . S
H567 C554 0.962 . S
H568 C554 0.960 . S
H569 C555 0.961 . S
H570 C555 0.961 . S
H571 C555 0.961 . S
H572 C556 0.931 . S
H573 C561 0.930 . S
H574 C562 0.956 . S
H575 C562 0.961 . S
H576 C562 0.961 . S
H577 C563 0.958 . S
H578 C563 0.961 . S
H579 C563 0.960 . S
C580 C581 1.391 . S
C580 C582 1.394 . S
C580 H596 0.931 . S
C581 C580 1.391 . S
C581 C585 1.376 . S
C582 C580 1.394 . S
C582 C583 1.369 . S
C582 C586 1.531 . S
C583 C582 1.369 . S
C583 C584 1.410 . S
C583 C591 1.503 . S
C584 C583 1.410 . S
C584 C585 1.392 . S
C584 C587 1.511 . S
C585 C581 1.376 . S
C585 C584 1.392 . S
C585 H597 0.929 . S
C586 C582 1.531 . S
C586 H598 0.960 . S
C586 H599 0.962 . S
C586 H600 0.960 . S
C587 C584 1.511 . S
C587 H601 0.961 . S
C587 H602 0.961 . S
C587 H603 0.961 . S
C588 C589 1.370 . S
C588 C590 1.363 . S
C588 H604 0.931 . S
C589 C588 1.370 . S
C589 C593 1.408 . S
C590 C588 1.363 . S
C590 C591 1.370 . S
C590 C594 1.524 . S
C591 C583 1.503 . S
C591 C590 1.370 . S
C591 C592 1.403 . S
C592 C591 1.403 . S
C592 C593 1.404 . S
C592 C595 1.539 . S
C593 C589 1.408 . S
C593 C592 1.404 . S
C593 H605 0.930 . S
C594 C590 1.524 . S
C594 H606 0.956 . S
C594 H607 0.961 . S
C594 H608 0.961 . S
C595 C592 1.539 . S
C595 H609 0.958 . S
C595 H610 0.961 . S
C595 H611 0.960 . S
H596 C580 0.931 . S
H597 C585 0.929 . S
H598 C586 0.960 . S
H599 C586 0.962 . S
H600 C586 0.960 . S
H601 C587 0.961 . S
H602 C587 0.961 . S
H603 C587 0.961 . S
H604 C588 0.931 . S
H605 C593 0.930 . S
H606 C594 0.956 . S
H607 C594 0.961 . S
H608 C594 0.961 . S
H609 C595 0.958 . S
H610 C595 0.961 . S
H611 C595 0.960 . S
C612 C613 1.391 . S
C612 C614 1.394 . S
C612 H628 0.931 . S
C613 C612 1.391 . S
C613 C617 1.376 . S
C614 C612 1.394 . S
C614 C615 1.369 . S
C614 C618 1.531 . S
C615 C614 1.369 . S
C615 C616 1.410 . S
C615 C623 1.503 . S
C616 C615 1.410 . S
C616 C617 1.392 . S
C616 C619 1.511 . S
C617 C613 1.376 . S
C617 C616 1.392 . S
C617 H629 0.929 . S
C618 C614 1.531 . S
C618 H630 0.960 . S
C618 H631 0.962 . S
C618 H632 0.960 . S
C619 C616 1.511 . S
C619 H633 0.961 . S
C619 H634 0.961 . S
C619 H635 0.961 . S
C620 C621 1.370 . S
C620 C622 1.363 . S
C620 H636 0.931 . S
C621 C620 1.370 . S
C621 C625 1.408 . S
C622 C620 1.363 . S
C622 C623 1.370 . S
C622 C626 1.524 . S
C623 C615 1.503 . S
C623 C622 1.370 . S
C623 C624 1.403 . S
C624 C623 1.403 . S
C624 C625 1.404 . S
C624 C627 1.539 . S
C625 C621 1.408 . S
C625 C624 1.404 . S
C625 H637 0.930 . S
C626 C622 1.524 . S
C626 H638 0.956 . S
C626 H639 0.961 . S
C626 H640 0.961 . S
C627 C624 1.539 . S
C627 H641 0.958 . S
C627 H642 0.961 . S
C627 H643 0.960 . S
H628 C612 0.931 . S
H629 C617 0.929 . S
H630 C618 0.960 . S
H631 C618 0.962 . S
H632 C618 0.960 . S
H633 C619 0.961 . S
H634 C619 0.961 . S
H635 C619 0.961 . S
H636 C620 0.931 . S
H637 C625 0.930 . S
H638 C626 0.956 . S
H639 C626 0.961 . S
H640 C626 0.961 . S
H641 C627 0.958 . S
H642 C627 0.961 . S
H643 C627 0.960 . S
C644 C645 1.391 . S
C644 C646 1.394 . S
C644 H660 0.931 . S
C645 C644 1.391 . S
C645 C649 1.376 . S
C646 C644 1.394 . S
C646 C647 1.369 . S
C646 C650 1.531 . S
C647 C646 1.369 . S
C647 C648 1.410 . S
C647 C655 1.503 . S
C648 C647 1.410 . S
C648 C649 1.392 . S
C648 C651 1.511 . S
C649 C645 1.376 . S
C649 C648 1.392 . S
C649 H661 0.929 . S
C650 C646 1.531 . S
C650 H662 0.960 . S
C650 H663 0.962 . S
C650 H664 0.960 . S
C651 C648 1.511 . S
C651 H665 0.961 . S
C651 H666 0.961 . S
C651 H667 0.961 . S
C652 C653 1.370 . S
C652 C654 1.363 . S
C652 H668 0.931 . S
C653 C652 1.370 . S
C653 C657 1.408 . S
C654 C652 1.363 . S
C654 C655 1.370 . S
C654 C658 1.524 . S
C655 C647 1.503 . S
C655 C654 1.370 . S
C655 C656 1.403 . S
C656 C655 1.403 . S
C656 C657 1.404 . S
C656 C659 1.539 . S
C657 C653 1.408 . S
C657 C656 1.404 . S
C657 H669 0.930 . S
C658 C654 1.524 . S
C658 H670 0.956 . S
C658 H671 0.961 . S
C658 H672 0.961 . S
C659 C656 1.539 . S
C659 H673 0.958 . S
C659 H674 0.961 . S
C659 H675 0.960 . S
H660 C644 0.931 . S
H661 C649 0.929 . S
H662 C650 0.960 . S
H663 C650 0.962 . S
H664 C650 0.960 . S
H665 C651 0.961 . S
H666 C651 0.961 . S
H667 C651 0.961 . S
H668 C652 0.931 . S
H669 C657 0.930 . S
H670 C658 0.956 . S
H671 C658 0.961 . S
H672 C658 0.961 . S
H673 C659 0.958 . S
H674 C659 0.961 . S
H675 C659 0.960 . S
C676 C677 1.391 . S
C676 C678 1.394 . S
C676 H692 0.931 . S
C677 C676 1.391 . S
C677 C681 1.376 . S
C678 C676 1.394 . S
C678 C679 1.369 . S
C678 C682 1.531 . S
C679 C678 1.369 . S
C679 C680 1.410 . S
C679 C687 1.503 . S
C680 C679 1.410 . S
C680 C681 1.392 . S
C680 C683 1.511 . S
C681 C677 1.376 . S
C681 C680 1.392 . S
C681 H693 0.929 . S
C682 C678 1.531 . S
C682 H694 0.960 . S
C682 H695 0.962 . S
C682 H696 0.960 . S
C683 C680 1.511 . S
C683 H697 0.961 . S
C683 H698 0.961 . S
C683 H699 0.961 . S
C684 C685 1.370 . S
C684 C686 1.363 . S
C684 H700 0.931 . S
C685 C684 1.370 . S
C685 C689 1.408 . S
C686 C684 1.363 . S
C686 C687 1.370 . S
C686 C690 1.524 . S
C687 C679 1.503 . S
C687 C686 1.370 . S
C687 C688 1.403 . S
C688 C687 1.403 . S
C688 C689 1.404 . S
C688 C691 1.539 . S
C689 C685 1.408 . S
C689 C688 1.404 . S
C689 H701 0.930 . S
C690 C686 1.524 . S
C690 H702 0.956 . S
C690 H703 0.961 . S
C690 H704 0.961 . S
C691 C688 1.539 . S
C691 H705 0.958 . S
C691 H706 0.961 . S
C691 H707 0.960 . S
H692 C676 0.931 . S
H693 C681 0.929 . S
H694 C682 0.960 . S
H695 C682 0.962 . S
H696 C682 0.960 . S
H697 C683 0.961 . S
H698 C683 0.961 . S
H699 C683 0.961 . S
H700 C684 0.931 . S
H701 C689 0.930 . S
H702 C690 0.956 . S
H703 C690 0.961 . S
H704 C690 0.961 . S
H705 C691 0.958 . S
H706 C691 0.961 . S
H707 C691 0.960 . S
C708 C709 1.391 . S
C708 C710 1.394 . S
C708 H724 0.931 . S
C709 C708 1.391 . S
C709 C713 1.376 . S
C710 C708 1.394 . S
C710 C711 1.369 . S
C710 C714 1.531 . S
C711 C710 1.369 . S
C711 C712 1.410 . S
C711 C719 1.503 . S
C712 C711 1.410 . S
C712 C713 1.392 . S
C712 C715 1.511 . S
C713 C709 1.376 . S
C713 C712 1.392 . S
C713 H725 0.929 . S
C714 C710 1.531 . S
C714 H726 0.960 . S
C714 H727 0.962 . S
C714 H728 0.960 . S
C715 C712 1.511 . S
C715 H729 0.961 . S
C715 H730 0.961 . S
C715 H731 0.961 . S
C716 C717 1.370 . S
C716 C718 1.363 . S
C716 H732 0.931 . S
C717 C716 1.370 . S
C717 C721 1.408 . S
C718 C716 1.363 . S
C718 C719 1.370 . S
C718 C722 1.524 . S
C719 C711 1.503 . S
C719 C718 1.370 . S
C719 C720 1.403 . S
C720 C719 1.403 . S
C720 C721 1.404 . S
C720 C723 1.539 . S
C721 C717 1.408 . S
C721 C720 1.404 . S
C721 H733 0.930 . S
C722 C718 1.524 . S
C722 H734 0.956 . S
C722 H735 0.961 . S
C722 H736 0.961 . S
C723 C720 1.539 . S
C723 H737 0.958 . S
C723 H738 0.961 . S
C723 H739 0.960 . S
H724 C708 0.931 . S
H725 C713 0.929 . S
H726 C714 0.960 . S
H727 C714 0.962 . S
H728 C714 0.960 . S
H729 C715 0.961 . S
H730 C715 0.961 . S
H731 C715 0.961 . S
H732 C716 0.931 . S
H733 C721 0.930 . S
H734 C722 0.956 . S
H735 C722 0.961 . S
H736 C722 0.961 . S
H737 C723 0.958 . S
H738 C723 0.961 . S
H739 C723 0.960 . S
C740 C741 1.391 . S
C740 C742 1.394 . S
C740 H756 0.931 . S
C741 C740 1.391 . S
C741 C745 1.376 . S
C742 C740 1.394 . S
C742 C743 1.369 . S
C742 C746 1.531 . S
C743 C742 1.369 . S
C743 C744 1.410 . S
C743 C751 1.503 . S
C744 C743 1.410 . S
C744 C745 1.392 . S
C744 C747 1.511 . S
C745 C741 1.376 . S
C745 C744 1.392 . S
C745 H757 0.929 . S
C746 C742 1.531 . S
C746 H758 0.960 . S
C746 H759 0.962 . S
C746 H760 0.960 . S
C747 C744 1.511 . S
C747 H761 0.961 . S
C747 H762 0.961 . S
C747 H763 0.961 . S
C748 C749 1.370 . S
C748 C750 1.363 . S
C748 H764 0.931 . S
C749 C748 1.370 . S
C749 C753 1.408 . S
C750 C748 1.363 . S
C750 C751 1.370 . S
C750 C754 1.524 . S
C751 C743 1.503 . S
C751 C750 1.370 . S
C751 C752 1.403 . S
C752 C751 1.403 . S
C752 C753 1.404 . S
C752 C755 1.539 . S
C753 C749 1.408 . S
C753 C752 1.404 . S
C753 H765 0.930 . S
C754 C750 1.524 . S
C754 H766 0.956 . S
C754 H767 0.961 . S
C754 H768 0.961 . S
C755 C752 1.539 . S
C755 H769 0.958 . S
C755 H770 0.961 . S
C755 H771 0.960 . S
H756 C740 0.931 . S
H757 C745 0.929 . S
H758 C746 0.960 . S
H759 C746 0.962 . S
H760 C746 0.960 . S
H761 C747 0.961 . S
H762 C747 0.961 . S
H763 C747 0.961 . S
H764 C748 0.931 . S
H765 C753 0.930 . S
H766 C754 0.956 . S
H767 C754 0.961 . S
H768 C754 0.961 . S
H769 C755 0.958 . S
H770 C755 0.961 . S
H771 C755 0.960 . S
C772 C773 1.391 . S
C772 C774 1.394 . S
C772 H788 0.931 . S
C773 C772 1.391 . S
C773 C777 1.376 . S
C774 C772 1.394 . S
C774 C775 1.369 . S
C774 C778 1.531 . S
C775 C774 1.369 . S
C775 C776 1.410 . S
C775 C783 1.503 . S
C776 C775 1.410 . S
C776 C777 1.392 . S
C776 C779 1.511 . S
C777 C773 1.376 . S
C777 C776 1.392 . S
C777 H789 0.929 . S
C778 C774 1.531 . S
C778 H790 0.960 . S
C778 H791 0.962 . S
C778 H792 0.960 . S
C779 C776 1.511 . S
C779 H793 0.961 . S
C779 H794 0.961 . S
C779 H795 0.961 . S
C780 C781 1.370 . S
C780 C782 1.363 . S
C780 H796 0.931 . S
C781 C780 1.370 . S
C781 C785 1.408 . S
C782 C780 1.363 . S
C782 C783 1.370 . S
C782 C786 1.524 . S
C783 C775 1.503 . S
C783 C782 1.370 . S
C783 C784 1.403 . S
C784 C783 1.403 . S
C784 C785 1.404 . S
C784 C787 1.539 . S
C785 C781 1.408 . S
C785 C784 1.404 . S
C785 H797 0.930 . S
C786 C782 1.524 . S
C786 H798 0.956 . S
C786 H799 0.961 . S
C786 H800 0.961 . S
C787 C784 1.539 . S
C787 H801 0.958 . S
C787 H802 0.961 . S
C787 H803 0.960 . S
H788 C772 0.931 . S
H789 C777 0.929 . S
H790 C778 0.960 . S
H791 C778 0.962 . S
H792 C778 0.960 . S
H793 C779 0.961 . S
H794 C779 0.961 . S
H795 C779 0.961 . S
H796 C780 0.931 . S
H797 C785 0.930 . S
H798 C786 0.956 . S
H799 C786 0.961 . S
H800 C786 0.961 . S
H801 C787 0.958 . S
H802 C787 0.961 . S
H803 C787 0.960 . S
C804 C805 1.391 . S
C804 C806 1.394 . S
C804 H820 0.931 . S
C805 C804 1.391 . S
C805 C809 1.376 . S
C806 C804 1.394 . S
C806 C807 1.369 . S
C806 C810 1.531 . S
C807 C806 1.369 . S
C807 C808 1.410 . S
C807 C815 1.503 . S
C808 C807 1.410 . S
C808 C809 1.392 . S
C808 C811 1.511 . S
C809 C805 1.376 . S
C809 C808 1.392 . S
C809 H821 0.929 . S
C810 C806 1.531 . S
C810 H822 0.960 . S
C810 H823 0.962 1_455 S
C810 H824 0.960 . S
C811 C808 1.511 . S
C811 H825 0.961 . S
C811 H826 0.961 . S
C811 H827 0.961 . S
C812 C813 1.372 1_554 S
C812 C814 1.363 . S
C812 H828 0.931 1_455 S
C813 C812 1.372 1_556 S
C813 C817 1.410 1_556 S
C814 C812 1.363 . S
C814 C815 1.370 . S
C814 C818 1.524 1_455 S
C815 C807 1.503 . S
C815 C814 1.370 . S
C815 C816 1.403 . S
C816 C815 1.403 . S
C816 C817 1.404 . S
C816 C819 1.539 . S
C817 C813 1.410 1_554 S
C817 C816 1.404 . S
C817 H829 0.930 . S
C818 C814 1.524 1_655 S
C818 H830 0.956 . S
C818 H831 0.961 . S
C818 H832 0.961 . S
C819 C816 1.539 . S
C819 H833 0.958 . S
C819 H834 0.961 . S
C819 H835 0.960 . S
H820 C804 0.931 . S
H821 C809 0.929 . S
H822 C810 0.960 . S
H823 C810 0.962 1_655 S
H824 C810 0.960 . S
H825 C811 0.961 . S
H826 C811 0.961 . S
H827 C811 0.961 . S
H828 C812 0.931 1_655 S
H829 C817 0.930 . S
H830 C818 0.956 . S
H831 C818 0.961 . S
H832 C818 0.961 . S
H833 C819 0.958 . S
H834 C819 0.961 . S
H835 C819 0.960 . S
C836 C837 1.391 . S
C836 C838 1.394 . S
C836 H852 0.931 1_545 S
C837 C836 1.391 . S
C837 C841 1.376 . S
C838 C836 1.394 . S
C838 C839 1.369 . S
C838 C842 1.531 1_545 S
C839 C838 1.369 . S
C839 C840 1.410 . S
C839 C847 1.503 . S
C840 C839 1.410 . S
C840 C841 1.392 . S
C840 C843 1.511 . S
C841 C837 1.376 . S
C841 C840 1.392 . S
C841 H853 0.929 . S
C842 C838 1.531 1_565 S
C842 H854 0.960 . S
C842 H855 0.956 1_565 S
C842 H856 0.960 . S
C843 C840 1.511 . S
C843 H857 0.961 . S
C843 H858 0.961 . S
C843 H859 0.961 . S
C844 C845 1.370 . S
C844 C846 1.363 . S
C844 H860 0.931 . S
C845 C844 1.370 . S
C845 C849 1.408 1_545 S
C846 C844 1.363 . S
C846 C847 1.370 . S
C846 C850 1.524 . S
C847 C839 1.503 . S
C847 C846 1.370 . S
C847 C848 1.403 1_545 S
C848 C847 1.403 1_565 S
C848 C849 1.404 . S
C848 C851 1.539 . S
C849 C845 1.408 1_565 S
C849 C848 1.404 . S
C849 H861 0.930 . S
C850 C846 1.524 . S
C850 H862 0.956 . S
C850 H863 0.961 . S
C850 H864 0.961 . S
C851 C848 1.539 . S
C851 H865 0.958 . S
C851 H866 0.961 . S
C851 H867 0.960 . S
H852 C836 0.931 1_565 S
H853 C841 0.929 . S
H854 C842 0.960 . S
H855 C842 0.956 1_545 S
H856 C842 0.960 . S
H857 C843 0.961 . S
H858 C843 0.961 . S
H859 C843 0.961 . S
H860 C844 0.931 . S
H861 C849 0.930 . S
H862 C850 0.956 . S
H863 C850 0.961 . S
H864 C850 0.961 . S
H865 C851 0.958 . S
H866 C851 0.961 . S
H867 C851 0.960 . S
C868 C869 1.391 . S
C868 C870 1.394 . S
C868 H884 0.931 . S
C869 C868 1.391 . S
C869 C873 1.376 . S
C870 C868 1.394 . S
C870 C871 1.369 . S
C870 C874 1.531 . S
C871 C870 1.369 . S
C871 C872 1.410 . S
C871 C879 1.503 . S
C872 C871 1.410 . S
C872 C873 1.392 . S
C872 C875 1.511 . S
C873 C869 1.376 . S
C873 C872 1.392 . S
C873 H885 0.929 . S
C874 C870 1.531 . S
C874 H886 0.960 . S
C874 H887 0.962 . S
C874 H888 0.960 . S
C875 C872 1.511 . S
C875 H889 0.961 . S
C875 H890 0.961 . S
C875 H891 0.961 . S
C876 C877 1.370 . S
C876 C878 1.363 . S
C876 H892 0.931 . S
C877 C876 1.370 . S
C877 C881 1.408 . S
C878 C876 1.363 . S
C878 C879 1.370 . S
C878 C882 1.524 . S
C879 C871 1.503 . S
C879 C878 1.370 . S
C879 C880 1.403 . S
C880 C879 1.403 . S
C880 C881 1.404 . S
C880 C883 1.539 . S
C881 C877 1.408 . S
C881 C880 1.404 . S
C881 H893 0.930 . S
C882 C878 1.524 . S
C882 H894 0.956 . S
C882 H895 0.961 . S
C882 H896 0.961 . S
C883 C880 1.539 . S
C883 H897 0.958 . S
C883 H898 0.961 . S
C883 H899 0.960 . S
H884 C868 0.931 . S
H885 C873 0.929 . S
H886 C874 0.960 . S
H887 C874 0.962 . S
H888 C874 0.960 . S
H889 C875 0.961 . S
H890 C875 0.961 . S
H891 C875 0.961 . S
H892 C876 0.931 . S
H893 C881 0.930 . S
H894 C882 0.956 . S
H895 C882 0.961 . S
H896 C882 0.961 . S
H897 C883 0.958 . S
H898 C883 0.961 . S
H899 C883 0.960 . S
C900 C901 1.391 . S
C900 C902 1.394 . S
C900 H916 0.931 . S
C901 C900 1.391 . S
C901 C905 1.376 . S
C902 C900 1.394 . S
C902 C903 1.369 . S
C902 C906 1.531 1_545 S
C903 C902 1.369 . S
C903 C904 1.410 . S
C903 C911 1.503 . S
C904 C903 1.410 . S
C904 C905 1.392 . S
C904 C907 1.511 . S
C905 C901 1.376 . S
C905 C904 1.392 . S
C905 H917 0.929 . S
C906 C902 1.531 1_565 S
C906 H918 0.960 . S
C906 H919 0.962 1_565 S
C906 H920 0.960 . S
C907 C904 1.511 . S
C907 H921 0.961 . S
C907 H922 0.961 . S
C907 H923 0.961 . S
C908 C909 1.370 . S
C908 C910 1.363 . S
C908 H924 0.931 . S
C909 C908 1.370 . S
C909 C913 1.408 . S
C910 C908 1.363 . S
C910 C911 1.370 . S
C910 C914 1.524 . S
C911 C903 1.503 . S
C911 C910 1.370 . S
C911 C912 1.403 . S
C912 C911 1.403 . S
C912 C913 1.404 . S
C912 C915 1.539 1_545 S
C913 C909 1.408 . S
C913 C912 1.404 . S
C913 H925 0.930 1_545 S
C914 C910 1.524 . S
C914 H926 0.956 . S
C914 H927 0.961 . S
C914 H928 0.961 . S
C915 C912 1.539 1_565 S
C915 H929 0.958 . S
C915 H930 0.961 . S
C915 H931 0.960 . S
H916 C900 0.931 . S
H917 C905 0.929 . S
H918 C906 0.960 . S
H919 C906 0.962 1_545 S
H920 C906 0.960 . S
H921 C907 0.961 . S
H922 C907 0.961 . S
H923 C907 0.961 . S
H924 C908 0.931 . S
H925 C913 0.930 1_565 S
H926 C914 0.956 . S
H927 C914 0.961 . S
H928 C914 0.961 . S
H929 C915 0.958 . S
H930 C915 0.961 . S
H931 C915 0.960 . S
C932 C933 1.391 . S
C932 C934 1.394 . S
C932 H948 0.931 . S
C933 C932 1.391 . S
C933 C937 1.376 . S
C934 C932 1.394 . S
C934 C935 1.369 . S
C934 C938 1.531 . S
C935 C934 1.369 . S
C935 C936 1.410 . S
C935 C943 1.503 . S
C936 C935 1.410 . S
C936 C937 1.392 . S
C936 C939 1.511 . S
C937 C933 1.376 . S
C937 C936 1.392 . S
C937 H949 0.929 . S
C938 C934 1.531 . S
C938 H950 0.960 . S
C938 H951 0.962 . S
C938 H952 0.960 . S
C939 C936 1.511 . S
C939 H953 0.961 . S
C939 H954 0.961 . S
C939 H955 0.961 . S
C940 C941 1.370 1_556 S
C940 C942 1.363 . S
C940 H956 0.931 . S
C941 C940 1.370 1_554 S
C941 C945 1.408 1_554 S
C942 C940 1.363 . S
C942 C943 1.370 . S
C942 C946 1.524 . S
C943 C935 1.503 . S
C943 C942 1.370 . S
C943 C944 1.403 . S
C944 C943 1.403 . S
C944 C945 1.404 . S
C944 C947 1.539 . S
C945 C941 1.408 1_556 S
C945 C944 1.404 . S
C945 H957 0.930 1_556 S
C946 C942 1.524 . S
C946 H958 0.956 . S
C946 H959 0.961 . S
C946 H960 0.961 . S
C947 C944 1.539 . S
C947 H961 0.958 . S
C947 H962 0.961 . S
C947 H963 0.960 . S
H948 C932 0.931 . S
H949 C937 0.929 . S
H950 C938 0.960 . S
H951 C938 0.962 . S
H952 C938 0.960 . S
H953 C939 0.961 . S
H954 C939 0.961 . S
H955 C939 0.961 . S
H956 C940 0.931 . S
H957 C945 0.930 1_554 S
H958 C946 0.956 . S
H959 C946 0.961 . S
H960 C946 0.961 . S
H961 C947 0.958 . S
H962 C947 0.961 . S
H963 C947 0.960 . S
C964 C965 1.391 . S
C964 C966 1.394 . S
C964 H980 0.931 . S
C965 C964 1.391 . S
C965 C969 1.376 1_455 S
C966 C964 1.394 . S
C966 C967 1.369 . S
C966 C970 1.531 . S
C967 C966 1.369 . S
C967 C968 1.410 1_455 S
C967 C975 1.503 . S
C968 C967 1.410 1_655 S
C968 C969 1.392 . S
C968 C971 1.511 . S
C969 C965 1.376 1_655 S
C969 C968 1.392 . S
C969 H981 0.929 . S
C970 C966 1.531 . S
C970 H982 0.960 . S
C970 H983 0.962 . S
C970 H984 0.960 . S
C971 C968 1.511 . S
C971 H985 0.961 . S
C971 H986 0.961 . S
C971 H987 0.961 . S
C972 C973 1.370 . S
C972 C974 1.363 . S
C972 H988 0.931 1_455 S
C973 C972 1.370 . S
C973 C977 1.408 . S
C974 C972 1.363 . S
C974 C975 1.370 . S
C974 C978 1.524 1_455 S
C975 C967 1.503 . S
C975 C974 1.370 . S
C975 C976 1.403 . S
C976 C975 1.403 . S
C976 C977 1.404 . S
C976 C979 1.539 . S
C977 C973 1.408 . S
C977 C976 1.404 . S
C977 H989 0.930 . S
C978 C974 1.524 1_655 S
C978 H990 0.956 1_655 S
C978 H991 0.961 . S
C978 H992 0.961 . S
C979 C976 1.539 . S
C979 H993 0.958 . S
C979 H994 0.961 . S
C979 H995 0.960 . S
H980 C964 0.931 . S
H981 C969 0.929 . S
H982 C970 0.960 . S
H983 C970 0.962 . S
H984 C970 0.960 . S
H985 C971 0.961 . S
H986 C971 0.961 . S
H987 C971 0.961 . S
H988 C972 0.931 1_655 S
H989 C977 0.930 . S
H990 C978 0.956 1_455 S
H991 C978 0.961 . S
H992 C978 0.961 . S
H993 C979 0.958 . S
H994 C979 0.961 . S
H995 C979 0.960 . S
C421 C2 1.111 . S
C429 C391 1.101 . S
C453 C21 1.011 . S
C461 C241 0.961 . S
C485 C42 1.100 . S
C493 C301 1.008 . S
C517 C1 1.007 . S
C525 C361 0.992 . S
C557 C271 1.096 . S
C549 C22 1.076 . S
C589 C331 1.042 . S
C581 C41 1.040 . S
C613 C38 1.896 . S
C621 C121 1.766 . S
C645 C59 1.969 . S
C653 C211 1.962 . S
C677 C18 1.899 . S
C685 C91 1.909 . S
C717 C151 1.959 . S
C709 C39 1.971 . S
C749 C181 1.779 . S
C741 C58 1.906 . S
C773 C19 1.955 . S
C781 C61 1.838 . S
C813 C200 1.546 . S
C805 C9 1.506 . S
C837 C29 1.527 . S
C845 C80 1.535 . S
C869 C49 1.470 . S
C877 C140 1.540 . S
C909 C320 1.370 . S
C901 C28 1.355 . S
C941 C380 1.365 . S
C933 C48 1.333 . S
C965 C8 1.367 . S
C973 C260 1.359 . S
