# Generated by pormake.
# Topology the, (3,8)-cn, num edge types: 1
# Building blocks:
#     Node 0, Type 0, BuildingBlock: INOVEN_clean_linker_0, # of connection points: 3
#     Node 1, Type 0, BuildingBlock: INOVEN_clean_linker_0, # of connection points: 3
#     Node 2, Type 0, BuildingBlock: INOVEN_clean_linker_0, # of connection points: 3
#     Node 3, Type 0, BuildingBlock: INOVEN_clean_linker_0, # of connection points: 3
#     Node 4, Type 0, BuildingBlock: INOVEN_clean_linker_0, # of connection points: 3
#     Node 5, Type 0, BuildingBlock: INOVEN_clean_linker_0, # of connection points: 3
#     Node 6, Type 0, BuildingBlock: INOVEN_clean_linker_0, # of connection points: 3
#     Node 7, Type 0, BuildingBlock: INOVEN_clean_linker_0, # of connection points: 3
#     Node 8, Type 1, BuildingBlock: GIZVER_clean_sbu_0, # of connection points: 8
#     Node 9, Type 1, BuildingBlock: GIZVER_clean_sbu_0, # of connection points: 8
#     Node 10, Type 1, BuildingBlock: GIZVER_clean_sbu_0, # of connection points: 8
#     Edge 11, Type (0, 1), BuildingBlock: CIFDUS_clean_linker_0, # of connection points: 2
#     Edge 12, Type (0, 1), BuildingBlock: CIFDUS_clean_linker_0, # of connection points: 2
#     Edge 13, Type (0, 1), BuildingBlock: CIFDUS_clean_linker_0, # of connection points: 2
#     Edge 14, Type (0, 1), BuildingBlock: CIFDUS_clean_linker_0, # of connection points: 2
#     Edge 15, Type (0, 1), BuildingBlock: CIFDUS_clean_linker_0, # of connection points: 2
#     Edge 16, Type (0, 1), BuildingBlock: CIFDUS_clean_linker_0, # of connection points: 2
#     Edge 17, Type (0, 1), BuildingBlock: CIFDUS_clean_linker_0, # of connection points: 2
#     Edge 18, Type (0, 1), BuildingBlock: CIFDUS_clean_linker_0, # of connection points: 2
#     Edge 19, Type (0, 1), BuildingBlock: CIFDUS_clean_linker_0, # of connection points: 2
#     Edge 20, Type (0, 1), BuildingBlock: CIFDUS_clean_linker_0, # of connection points: 2
#     Edge 21, Type (0, 1), BuildingBlock: CIFDUS_clean_linker_0, # of connection points: 2
#     Edge 22, Type (0, 1), BuildingBlock: CIFDUS_clean_linker_0, # of connection points: 2
#     Edge 23, Type (0, 1), BuildingBlock: CIFDUS_clean_linker_0, # of connection points: 2
#     Edge 24, Type (0, 1), BuildingBlock: CIFDUS_clean_linker_0, # of connection points: 2
#     Edge 25, Type (0, 1), BuildingBlock: CIFDUS_clean_linker_0, # of connection points: 2
#     Edge 26, Type (0, 1), BuildingBlock: CIFDUS_clean_linker_0, # of connection points: 2
#     Edge 27, Type (0, 1), BuildingBlock: CIFDUS_clean_linker_0, # of connection points: 2
#     Edge 28, Type (0, 1), BuildingBlock: CIFDUS_clean_linker_0, # of connection points: 2
#     Edge 29, Type (0, 1), BuildingBlock: CIFDUS_clean_linker_0, # of connection points: 2
#     Edge 30, Type (0, 1), BuildingBlock: CIFDUS_clean_linker_0, # of connection points: 2
#     Edge 31, Type (0, 1), BuildingBlock: CIFDUS_clean_linker_0, # of connection points: 2
#     Edge 32, Type (0, 1), BuildingBlock: CIFDUS_clean_linker_0, # of connection points: 2
#     Edge 33, Type (0, 1), BuildingBlock: CIFDUS_clean_linker_0, # of connection points: 2
#     Edge 34, Type (0, 1), BuildingBlock: CIFDUS_clean_linker_0, # of connection points: 2
# Relax obj value: 0.072
# Max RMSD: 0.196
# Mean RMSD: 0.125
data_MOF--net-the--node1-GIZVER_clean_sbu_0--node2-INOVEN_clean_linker_0--edge1-CIFDUS_clean_linker_0
_symmetry_space_group_name_H-M    P1
_symmetry_Int_Tables_number       1
_symmetry_cell_setting            triclinic
loop_
_symmetry_equiv_pos_as_xyz
'x, y, z'
_cell_length_a     35.317926
_cell_length_b     33.980516
_cell_length_c     32.419562
_cell_angle_alpha  87.022953
_cell_angle_beta   96.307116
_cell_angle_gamma 109.82832
loop_
_atom_site_label
_atom_site_type_symbol
_atom_site_fract_x
_atom_site_fract_y
_atom_site_fract_z
_atom_type_partial_charge
H0 H 0.3665 0.37516 0.34223 0.0
H1 H 0.45154 0.30913 0.35172 0.0
H2 H 0.36036 0.28086 0.43738 0.0
N3 N 0.32715 0.33859 0.4049 0.0
N4 N 0.302 0.31436 0.42685 0.0
C5 C 0.37811 0.35179 0.35739 0.0
C6 C 0.41106 0.34468 0.34285 0.0
C7 C 0.35969 0.32896 0.39121 0.0
C8 C 0.37438 0.29839 0.41095 0.0
C9 C 0.40815 0.2916 0.39733 0.0
C10 C 0.42632 0.31501 0.36328 0.0
H11 H 0.67823 0.24189 0.27028 0.0
H12 H 0.75216 0.26572 0.38679 0.0
H13 H 0.77929 0.35572 0.28586 0.0
N14 N 0.7112 0.31246 0.2353 0.0
N15 N 0.71984 0.34947 0.22273 0.0
C16 C 0.70451 0.26115 0.28939 0.0
C17 C 0.71196 0.24919 0.33057 0.0
C18 C 0.72753 0.29963 0.27345 0.0
C19 C 0.7616 0.32545 0.29779 0.0
C20 C 0.77152 0.31257 0.3385 0.0
C21 C 0.74617 0.27457 0.35477 0.0
H22 H 0.71389 0.72846 0.2767 0.0
H23 H 0.78837 0.65054 0.29357 0.0
H24 H 0.80136 0.74402 0.38357 0.0
N25 N 0.74199 0.77085 0.34601 0.0
N26 N 0.74017 0.77403 0.3839 0.0
C27 C 0.73847 0.72036 0.2937 0.0
C28 C 0.74888 0.6869 0.28053 0.0
C29 C 0.75691 0.74079 0.33106 0.0
C30 C 0.78753 0.72889 0.35443 0.0
C31 C 0.79924 0.69644 0.34088 0.0
C32 C 0.77994 0.67604 0.30382 0.0
H33 H 0.30688 0.63569 0.31162 0.0
H34 H 0.30817 0.74096 0.38168 0.0
H35 H 0.40966 0.74879 0.31659 0.0
N36 N 0.38214 0.67377 0.28661 0.0
N37 N 0.36753 0.6397 0.26827 0.0
C38 C 0.32096 0.66788 0.32118 0.0
C39 C 0.30206 0.68532 0.34794 0.0
C40 C 0.35963 0.69122 0.3093 0.0
C41 C 0.3791 0.73185 0.32404 0.0
C42 C 0.36089 0.74955 0.35063 0.0
C43 C 0.32207 0.72669 0.36139 0.0
H44 H 0.42865 0.74896 0.74665 0.0
H45 H 0.32591 0.73038 0.65467 0.0
H46 H 0.33443 0.63003 0.73668 0.0
N47 N 0.40462 0.67528 0.78094 0.0
N48 N 0.39286 0.63888 0.79551 0.0
C49 C 0.39929 0.7303 0.73241 0.0
C50 C 0.37982 0.7461 0.69849 0.0
C51 C 0.38264 0.68922 0.74727 0.0
C52 C 0.34644 0.66254 0.727 0.0
C53 C 0.3263 0.67742 0.69318 0.0
C54 C 0.34217 0.71947 0.6804 0.0
H55 H 0.34763 0.24839 0.6641 0.0
H56 H 0.44803 0.26669 0.75843 0.0
H57 H 0.37578 0.34623 0.75317 0.0
N58 N 0.32739 0.31287 0.68448 0.0
N59 N 0.32625 0.3481 0.69195 0.0
C60 C 0.36548 0.26428 0.69152 0.0
C61 C 0.39786 0.25219 0.71034 0.0
C62 C 0.35718 0.29809 0.7067 0.0
C63 C 0.38104 0.3193 0.74173 0.0
C64 C 0.41354 0.30803 0.76063 0.0
C65 C 0.42178 0.27425 0.74505 0.0
H66 H 0.71673 0.2981 0.72331 0.0
H67 H 0.8021 0.27989 0.64884 0.0
H68 H 0.83429 0.39081 0.72319 0.0
N69 N 0.76192 0.36925 0.75456 0.0
N70 N 0.78464 0.4003 0.77449 0.0
C71 C 0.74706 0.30803 0.71364 0.0
C72 C 0.7564 0.28471 0.68447 0.0
C73 C 0.77541 0.34533 0.72875 0.0
C74 C 0.81378 0.36021 0.71388 0.0
C75 C 0.82389 0.33722 0.68424 0.0
C76 C 0.79533 0.29833 0.67141 0.0
H77 H 0.74009 0.69706 0.70116 0.0
H78 H 0.82451 0.63157 0.69742 0.0
H79 H 0.8181 0.72431 0.60319 0.0
N80 N 0.75884 0.74392 0.63603 0.0
N81 N 0.77293 0.77203 0.61008 0.0
C82 C 0.76352 0.69101 0.68616 0.0
C83 C 0.78083 0.66181 0.7036 0.0
C84 C 0.77708 0.714 0.65062 0.0
C85 C 0.80784 0.70701 0.6312 0.0
C86 C 0.8244 0.67649 0.64748 0.0
C87 C 0.81121 0.65441 0.68414 0.0
Co88 Co 0.13207 0.46534 0.53152 0.0
Co89 Co 0.09077 0.44348 0.45848 0.0
Co90 Co 0.05468 0.50313 0.50136 0.0
O91 O 0.07698 0.45601 0.50938 0.0
H92 H 0.05827 0.4313 0.52119 0.0
O93 O 0.03125 0.54959 0.49332 0.0
Co94 Co 0.9735 0.53651 0.47823 0.0
Co95 Co 0.02219 0.56157 0.54645 0.0
H96 H 0.04809 0.57401 0.47932 0.0
O97 O 0.10343 0.39482 0.44988 0.0
O98 O 0.14531 0.45549 0.4764 0.0
O99 O 0.08986 0.48269 0.41309 0.0
O100 O 0.09083 0.53163 0.45658 0.0
O101 O 1.01169 0.46858 0.45921 0.0
O102 O 0.92213 0.52861 0.463 0.0
O103 O 0.97413 0.58923 0.4618 0.0
O104 O 0.96436 0.47959 0.49071 0.0
O105 O 0.01968 0.47488 0.54689 0.0
O106 O 0.03038 0.52493 0.59219 0.0
O107 O 0.96632 0.54711 0.5359 0.0
O108 O 1.01042 0.60914 0.55782 0.0
C109 C 0.16375 0.42937 0.56074 0.0
C110 C 0.13498 0.54487 0.54242 0.0
C111 C 0.09903 0.52088 0.42225 0.0
C112 C 0.13972 0.41865 0.46255 0.0
C113 C 0.9355 0.56831 0.45391 0.0
C114 C 0.97431 0.45963 0.46416 0.0
C115 C 0.01781 0.48645 0.58325 0.0
C116 C 0.97343 0.58402 0.55082 0.0
O117 O 0.18112 0.46904 0.55351 0.0
O118 O 0.12558 0.41142 0.54783 0.0
O119 O 0.09731 0.53805 0.54363 0.0
O120 O 0.14614 0.52294 0.51903 0.0
Co121 Co 0.58929 0.92692 0.5157 0.0
Co122 Co 0.61324 0.9671 0.58692 0.0
Co123 Co 0.55305 0.00505 0.53437 0.0
O124 O 0.59864 0.98312 0.53292 0.0
H125 H 0.62185 1.00326 0.52163 0.0
O126 O 0.50725 0.02724 0.53602 0.0
Co127 Co 0.51661 0.08312 0.5547 0.0
Co128 Co 0.49353 0.04578 0.4833 0.0
H129 H 0.48383 0.00681 0.54666 0.0
O130 O 0.66325 0.95927 0.60077 0.0
O131 O 0.60528 0.91245 0.57324 0.0
O132 O 0.57615 0.96212 0.62859 0.0
O133 O 0.52759 0.96561 0.58024 0.0
O134 O 0.58809 0.04759 0.57528 0.0
O135 O 0.52104 0.1331 0.57317 0.0
O136 O 0.46612 0.07469 0.56992 0.0
O137 O 0.57106 0.09908 0.54356 0.0
O138 O 0.57884 0.04429 0.48862 0.0
O139 O 0.53061 0.05177 0.44204 0.0
O140 O 0.50078 0.10018 0.49762 0.0
O141 O 0.44376 0.05283 0.46859 0.0
C142 C 0.62296 0.89554 0.49227 0.0
C143 C 0.51095 0.9232 0.50101 0.0
C144 C 0.539 0.95476 0.61652 0.0
C145 C 0.6426 0.92148 0.58894 0.0
C146 C 0.48361 0.11394 0.58006 0.0
C147 C 0.59491 0.08665 0.56895 0.0
C148 C 0.56753 0.05688 0.45315 0.0
C149 C 0.46406 0.09097 0.47969 0.0
O150 O 0.58545 0.87639 0.49911 0.0
O151 O 0.63982 0.93527 0.50071 0.0
O152 O 0.51827 0.96218 0.49332 0.0
O153 O 0.53465 0.91095 0.52678 0.0
Co154 Co 0.52111 0.52432 0.09709 0.0
Co155 Co 0.5079 0.45017 0.06824 0.0
Co156 Co 0.5688 0.51749 0.01332 0.0
O157 O 0.51948 0.50329 0.04345 0.0
H158 H 0.49635 0.50474 0.02532 0.0
O159 O 0.61793 0.53013 0.98252 0.0
Co160 Co 0.61149 0.50765 0.92785 0.0
Co161 Co 0.63221 0.58355 0.95809 0.0
H162 H 0.64078 0.52659 0.99963 0.0
O163 O 0.457 0.42015 0.0856 0.0
O164 O 0.50897 0.46738 0.12189 0.0
O165 O 0.54949 0.42437 0.07081 0.0
O166 O 0.59536 0.4836 0.05165 0.0
O167 O 0.53879 0.46721 0.97786 0.0
O168 O 0.60989 0.4872 0.87887 0.0
O169 O 0.66313 0.5075 0.92727 0.0
O170 O 0.55692 0.50311 0.92128 0.0
O171 O 0.54316 0.5529 0.97476 0.0
O172 O 0.59274 0.61116 0.95895 0.0
O173 O 0.62541 0.56425 0.9043 0.0
O174 O 0.68216 0.60952 0.93462 0.0
C175 C 0.48059 0.53764 0.13 0.0
C176 C 0.60227 0.56263 0.0895 0.0
C177 C 0.58604 0.4472 0.06847 0.0
C178 C 0.47366 0.43838 0.12043 0.0
C179 C 0.64716 0.49097 0.89118 0.0
C180 C 0.53431 0.47064 0.93845 0.0
C181 C 0.55535 0.59027 0.95965 0.0
C182 C 0.66207 0.58917 0.90196 0.0
O183 O 0.5178 0.54451 0.14559 0.0
O184 O 0.46842 0.52025 0.09373 0.0
O185 O 0.59869 0.56709 0.04998 0.0
O186 O 0.57672 0.53253 0.1071 0.0
H187 H 0.30392 0.3927 0.43876 0.0
H188 H 0.22928 0.26304 0.44364 0.0
H189 H 0.17114 0.28333 0.45669 0.0
H190 H 0.14086 0.33876 0.46121 0.0
H191 H 0.21774 0.46822 0.45951 0.0
H192 H 0.27585 0.44729 0.45076 0.0
C193 C 0.27494 0.36892 0.4429 0.0
C194 C 0.2703 0.32643 0.43939 0.0
C195 C 0.24214 0.38086 0.45062 0.0
C196 C 0.2331 0.29587 0.44593 0.0
C197 C 0.19999 0.3075 0.45315 0.0
C198 C 0.17038 0.36228 0.45899 0.0
C199 C 0.17488 0.40497 0.46019 0.0
C200 C 0.20395 0.34999 0.45459 0.0
C201 C 0.21343 0.43516 0.45833 0.0
C202 C 0.24669 0.42325 0.45329 0.0
H203 H 0.72255 0.18611 0.38217 0.0
H204 H 0.6308 0.23233 0.32073 0.0
H205 H 0.57814 0.17411 0.34883 0.0
H206 H 0.55777 0.11229 0.39336 0.0
H207 H 0.6483 0.06701 0.45898 0.0
H208 H 0.70148 0.12209 0.42644 0.0
C209 C 0.69103 0.18334 0.37504 0.0
C210 C 0.68073 0.21328 0.34889 0.0
C211 C 0.66054 0.14978 0.39183 0.0
C212 C 0.63967 0.20927 0.33997 0.0
C213 C 0.60942 0.17605 0.35619 0.0
C214 C 0.58903 0.11384 0.39999 0.0
C215 C 0.59893 0.08539 0.42843 0.0
C216 C 0.61946 0.14623 0.38223 0.0
C217 C 0.63977 0.08844 0.43707 0.0
C218 C 0.67025 0.12011 0.41869 0.0
H219 H 0.7895 0.6166 0.36394 0.0
H220 H 0.87567 0.74139 0.37551 0.0
H221 H 0.92604 0.71356 0.41253 0.0
H222 H 0.94633 0.65232 0.43867 0.0
H223 H 0.85744 0.52837 0.42598 0.0
H224 H 0.8079 0.55727 0.39234 0.0
C225 C 0.81935 0.63775 0.37453 0.0
C226 C 0.82905 0.68087 0.36651 0.0
C227 C 0.84789 0.62158 0.39547 0.0
C228 C 0.86751 0.708 0.38128 0.0
C229 C 0.89635 0.69204 0.40223 0.0
C230 C 0.91612 0.63176 0.42857 0.0
C231 C 0.90601 0.58812 0.43471 0.0
C232 C 0.88708 0.64869 0.40903 0.0
C233 C 0.86645 0.56202 0.42176 0.0
C234 C 0.83785 0.57847 0.40237 0.0
H235 H 0.37569 0.76025 0.43304 0.0
H236 H 0.40102 0.82599 0.31661 0.0
H237 H 0.44614 0.8885 0.35358 0.0
H238 H 0.48281 0.92206 0.41926 0.0
H239 H 0.46295 0.85153 0.53401 0.0
H240 H 0.41065 0.79371 0.49793 0.0
C241 C 0.39052 0.78859 0.41587 0.0
C242 C 0.38486 0.78887 0.37232 0.0
C243 C 0.41738 0.82353 0.43719 0.0
C244 C 0.40493 0.8253 0.35022 0.0
C245 C 0.43069 0.86091 0.37135 0.0
C246 C 0.46633 0.89432 0.43629 0.0
C247 C 0.47609 0.89123 0.4793 0.0
C248 C 0.43777 0.86013 0.41485 0.0
C249 C 0.45544 0.85478 0.50101 0.0
C250 C 0.42577 0.8216 0.48035 0.0
H251 H 0.24955 0.67947 0.67144 0.0
H252 H 0.32848 0.60982 0.6549 0.0
H253 H 0.27719 0.56444 0.60541 0.0
H254 H 0.21156 0.54624 0.5652 0.0
H255 H 0.12821 0.60944 0.58579 0.0
H256 H 0.17985 0.65641 0.63466 0.0
C257 C 0.25514 0.65402 0.65724 0.0
C258 C 0.29265 0.64781 0.66688 0.0
C259 C 0.22505 0.62741 0.62921 0.0
C260 C 0.29969 0.61483 0.64833 0.0
C261 C 0.27051 0.58912 0.6198 0.0
C262 C 0.20424 0.56985 0.58058 0.0
C263 C 0.16588 0.57412 0.57174 0.0
C264 C 0.2333 0.59535 0.60976 0.0
C265 C 0.15746 0.60541 0.59195 0.0
C266 C 0.18697 0.6322 0.61997 0.0
H267 H 0.41353 0.24984 0.63085 0.0
H268 H 0.40868 0.18192 0.74717 0.0
H269 H 0.43023 0.12972 0.71583 0.0
H270 H 0.45447 0.10571 0.65579 0.0
H271 H 0.46635 0.17923 0.5428 0.0
H272 H 0.4374 0.22625 0.57158 0.0
C273 C 0.41672 0.22329 0.64914 0.0
C274 C 0.40925 0.21949 0.69113 0.0
C275 C 0.43019 0.19422 0.63124 0.0
C276 C 0.41429 0.18544 0.71477 0.0
C277 C 0.42654 0.15561 0.69683 0.0
C278 C 0.4498 0.13154 0.63737 0.0
C279 C 0.46125 0.13831 0.59667 0.0
C280 C 0.43502 0.15988 0.65514 0.0
C281 C 0.45656 0.1727 0.57357 0.0
C282 C 0.44043 0.19988 0.59026 0.0
H283 H 0.89824 0.39181 0.71463 0.0
H284 H 0.83362 0.3273 0.60293 0.0
H285 H 0.89111 0.36218 0.56488 0.0
H286 H 0.95601 0.41669 0.56017 0.0
H287 H 1.01737 0.48997 0.66758 0.0
H288 H 0.96483 0.44643 0.71004 0.0
C289 C 0.89654 0.38533 0.68198 0.0
C290 C 0.86121 0.35628 0.66229 0.0
C291 C 0.92918 0.40745 0.65917 0.0
C292 C 0.86036 0.34818 0.61989 0.0
C293 C 0.89323 0.36868 0.59761 0.0
C294 C 0.95847 0.42268 0.59308 0.0
C295 C 0.99063 0.45641 0.61075 0.0
C296 C 0.92734 0.399 0.61665 0.0
C297 C 0.9929 0.4641 0.65329 0.0
C298 C 0.96277 0.43935 0.67748 0.0
H299 H 0.6956 0.76307 0.61945 0.0
H300 H 0.80531 0.84687 0.57464 0.0
H301 H 0.77467 0.90216 0.56363 0.0
H302 H 0.71785 0.92753 0.57174 0.0
H303 H 0.60786 0.8417 0.61442 0.0
H304 H 0.63771 0.78618 0.62224 0.0
C305 C 0.71279 0.79338 0.6071 0.0
C306 C 0.75297 0.80145 0.59852 0.0
C307 C 0.69513 0.82464 0.60126 0.0
C308 C 0.77445 0.84037 0.58159 0.0
C309 C 0.75705 0.87189 0.57565 0.0
C310 C 0.70069 0.89665 0.5829 0.0
C311 C 0.6611 0.88859 0.59319 0.0
C312 C 0.71773 0.86465 0.58635 0.0
C313 C 0.63853 0.84843 0.60669 0.0
C314 C 0.65552 0.81677 0.61106 0.0
H315 H 0.366 0.21128 0.41872 0.0
H316 H 0.48695 0.30045 0.42121 0.0
H317 H 0.51484 0.24663 0.44864 0.0
H318 H 0.50515 0.17339 0.46814 0.0
H319 H 0.38444 0.08361 0.46468 0.0
H320 H 0.35614 0.13845 0.4416 0.0
C321 C 0.3984 0.21901 0.42588 0.0
C322 C 0.42439 0.25969 0.41771 0.0
C323 C 0.41428 0.18774 0.44117 0.0
C324 C 0.46636 0.2692 0.42675 0.0
C325 C 0.48232 0.23848 0.44248 0.0
C326 C 0.47263 0.16592 0.46268 0.0
C327 C 0.4469 0.12456 0.46815 0.0
C328 C 0.45663 0.19749 0.44913 0.0
C329 C 0.40486 0.11524 0.46061 0.0
C330 C 0.38867 0.14658 0.44749 0.0
H331 H 0.85155 0.34497 0.32503 0.0
H332 H 0.76797 0.34182 0.4136 0.0
H333 H 0.82332 0.38581 0.46048 0.0
H334 H 0.89506 0.42537 0.47634 0.0
H335 H 0.98023 0.42758 0.38978 0.0
H336 H 0.92496 0.38337 0.34241 0.0
C337 C 0.84562 0.35417 0.35454 0.0
C338 C 0.80573 0.34031 0.36583 0.0
C339 C 0.87788 0.37898 0.38181 0.0
C340 C 0.79841 0.352 0.40432 0.0
C341 C 0.83004 0.37713 0.43112 0.0
C342 C 0.90168 0.41614 0.44716 0.0
C343 C 0.94181 0.43 0.4366 0.0
C344 C 0.86986 0.39075 0.42024 0.0
C345 C 0.9497 0.4173 0.3988 0.0
C346 C 0.91804 0.39219 0.37159 0.0
H347 H 0.70217 0.76302 0.45119 0.0
H348 H 0.74273 0.8502 0.35112 0.0
H349 H 0.71341 0.89836 0.37852 0.0
H350 H 0.67302 0.91398 0.42984 0.0
H351 H 0.6237 0.82051 0.52254 0.0
H352 H 0.65992 0.77697 0.50017 0.0
C353 C 0.70465 0.79272 0.43567 0.0
C354 C 0.7244 0.80313 0.39942 0.0
C355 C 0.6862 0.81917 0.45056 0.0
C356 C 0.72732 0.84145 0.37901 0.0
C357 C 0.71063 0.86896 0.39473 0.0
C358 C 0.67062 0.88423 0.44521 0.0
C359 C 0.6465 0.87083 0.47844 0.0
C360 C 0.68954 0.85796 0.43029 0.0
C361 C 0.64268 0.83176 0.49744 0.0
C362 C 0.66317 0.80672 0.48447 0.0
H363 H 0.2359 0.62412 0.31013 0.0
H364 H 0.28224 0.68744 0.42676 0.0
H365 H 0.22075 0.64714 0.4568 0.0
H366 H 0.15616 0.59093 0.45254 0.0
H367 H 0.11196 0.52013 0.34024 0.0
H368 H 0.16998 0.5663 0.30607 0.0
C369 C 0.23263 0.62904 0.34212 0.0
C370 C 0.26372 0.65969 0.36559 0.0
C371 C 0.19739 0.60442 0.36011 0.0
C372 C 0.25862 0.66537 0.40714 0.0
C373 C 0.22346 0.64196 0.42469 0.0
C374 C 0.15861 0.58605 0.42026 0.0
C375 C 0.12948 0.55243 0.39882 0.0
C376 C 0.19283 0.61127 0.40163 0.0
C377 C 0.13381 0.54604 0.35732 0.0
C378 C 0.16714 0.57224 0.33791 0.0
H379 H 0.43786 0.81581 0.73553 0.0
H380 H 0.37061 0.77266 0.61695 0.0
H381 H 0.40843 0.83727 0.5844 0.0
H382 H 0.4664 0.90171 0.58641 0.0
H383 H 0.54304 0.93871 0.70061 0.0
H384 H 0.49656 0.88055 0.7375 0.0
C385 C 0.43156 0.81981 0.70245 0.0
C386 C 0.40083 0.78821 0.67935 0.0
C387 C 0.45575 0.85611 0.68271 0.0
C388 C 0.39287 0.79587 0.6366 0.0
C389 C 0.41515 0.83293 0.61741 0.0
C390 C 0.47274 0.89747 0.6195 0.0
C391 C 0.5082 0.9245 0.6407 0.0
C392 C 0.44736 0.86264 0.63984 0.0
C393 C 0.51597 0.91834 0.68356 0.0
C394 C 0.48949 0.88497 0.70457 0.0
H395 H 0.2595 0.31072 0.63803 0.0
H396 H 0.33089 0.42575 0.69899 0.0
H397 H 0.28662 0.4614 0.6637 0.0
H398 H 0.22864 0.46029 0.61544 0.0
H399 H 0.154 0.34571 0.55558 0.0
H400 H 0.19825 0.30914 0.59051 0.0
C401 C 0.26517 0.34352 0.64345 0.0
C402 C 0.29854 0.36605 0.67083 0.0
C403 C 0.23903 0.36369 0.62338 0.0
C404 C 0.30539 0.40826 0.67794 0.0
C405 C 0.28017 0.42854 0.65782 0.0
C406 C 0.22195 0.42725 0.61003 0.0
C407 C 0.18824 0.40571 0.58294 0.0
C408 C 0.24705 0.40664 0.63045 0.0
C409 C 0.17969 0.36285 0.57658 0.0
C410 C 0.20509 0.34205 0.5964 0.0
H411 H 0.75092 0.20318 0.67478 0.0
H412 H 0.68844 0.29156 0.6435 0.0
H413 H 0.63383 0.23844 0.60426 0.0
H414 H 0.6039 0.16766 0.57878 0.0
H415 H 0.66269 0.07643 0.61194 0.0
H416 H 0.71879 0.12981 0.65045 0.0
C417 C 0.72521 0.2105 0.6594 0.0
C418 C 0.72341 0.25099 0.66218 0.0
C419 C 0.69344 0.17946 0.63723 0.0
C420 C 0.69009 0.26038 0.64219 0.0
C421 C 0.65899 0.23013 0.61961 0.0
C422 C 0.62894 0.15928 0.59435 0.0
C423 C 0.62918 0.11818 0.59234 0.0
C424 C 0.66036 0.18967 0.61693 0.0
C425 C 0.66179 0.10791 0.61304 0.0
C426 C 0.69385 0.13841 0.63502 0.0
H427 H 0.81993 0.60156 0.61941 0.0
H428 H 0.89699 0.73056 0.6275 0.0
H429 H 0.9496 0.71386 0.59594 0.0
H430 H 0.9748 0.66156 0.56986 0.0
H431 H 0.89632 0.53288 0.55958 0.0
H432 H 0.84286 0.5505 0.58763 0.0
C433 C 0.84826 0.62592 0.61406 0.0
C434 C 0.85504 0.66704 0.62609 0.0
C435 C 0.87796 0.61615 0.59553 0.0
C436 C 0.89138 0.69867 0.6185 0.0
C437 C 0.92138 0.6891 0.60058 0.0
C438 C 0.9459 0.63745 0.5735 0.0
C439 C 0.93977 0.59588 0.56322 0.0
C440 C 0.9152 0.64781 0.58952 0.0
C441 C 0.90193 0.56509 0.56745 0.0
C442 C 0.87136 0.57509 0.58365 0.0
H443 H 0.37137 0.35052 0.26775 0.0
H444 H 0.49021 0.38889 0.33446 0.0
H445 H 0.51967 0.42454 0.27202 0.0
H446 H 0.51183 0.44196 0.19787 0.0
H447 H 0.39366 0.39906 0.12972 0.0
H448 H 0.36347 0.36843 0.19344 0.0
C449 C 0.40365 0.36707 0.26858 0.0
C450 C 0.42867 0.3673 0.30548 0.0
C451 C 0.42037 0.3866 0.23239 0.0
C452 C 0.47051 0.38823 0.30623 0.0
C453 C 0.48727 0.40865 0.27064 0.0
C454 C 0.4794 0.42631 0.19707 0.0
C455 C 0.45493 0.42277 0.15925 0.0
C456 C 0.46254 0.40768 0.23347 0.0
C457 C 0.41306 0.40199 0.15851 0.0
C458 C 0.39584 0.38448 0.19488 0.0
H459 H 0.4626 0.68589 0.83871 0.0
H460 H 0.37502 0.56181 0.8268 0.0
H461 H 0.41554 0.53556 0.88049 0.0
H462 H 0.4784 0.54725 0.92699 0.0
H463 H 0.56643 0.6716 0.93712 0.0
H464 H 0.52296 0.69848 0.88849 0.0
C465 C 0.45222 0.65317 0.84804 0.0
C466 C 0.41595 0.62552 0.82863 0.0
C467 C 0.47577 0.63841 0.87869 0.0
C468 C 0.4029 0.5834 0.84132 0.0
C469 C 0.42605 0.56848 0.87193 0.0
C470 C 0.48773 0.58038 0.91923 0.0
C471 C 0.52579 0.6073 0.93571 0.0
C472 C 0.46288 0.59559 0.89043 0.0
C473 C 0.53745 0.65009 0.92486 0.0
C474 C 0.51265 0.66552 0.89688 0.0
H475 H 0.41289 0.30912 0.84514 0.0
H476 H 0.47779 0.37353 0.7428 0.0
H477 H 0.51984 0.43006 0.78853 0.0
H478 H 0.53485 0.46316 0.85571 0.0
H479 H 0.4754 0.39796 0.96103 0.0
H480 H 0.43365 0.34007 0.91592 0.0
C481 C 0.4369 0.33515 0.83333 0.0
C482 C 0.44273 0.33718 0.79086 0.0
C483 C 0.46119 0.36763 0.86003 0.0
C484 C 0.47334 0.37123 0.77551 0.0
C485 C 0.49706 0.40367 0.80154 0.0
C486 C 0.51338 0.43609 0.86928 0.0
C487 C 0.50856 0.43501 0.91193 0.0
C488 C 0.49078 0.40252 0.84361 0.0
C489 C 0.47983 0.39972 0.92836 0.0
C490 C 0.45603 0.36655 0.90256 0.0
H491 H 0.71009 0.40476 0.75994 0.0
H492 H 0.82076 0.44799 0.84055 0.0
H493 H 0.78899 0.48258 0.88438 0.0
H494 H 0.72741 0.49625 0.90159 0.0
H495 H 0.61817 0.45234 0.81782 0.0
H496 H 0.65176 0.42244 0.77351 0.0
C497 C 0.72731 0.42174 0.78713 0.0
C498 C 0.76741 0.42317 0.79774 0.0
C499 C 0.70899 0.4413 0.81169 0.0
C500 C 0.7897 0.44626 0.83225 0.0
C501 C 0.77149 0.46584 0.85724 0.0
C502 C 0.71114 0.48032 0.87354 0.0
C503 C 0.6701 0.47614 0.86354 0.0
C504 C 0.73079 0.46293 0.84765 0.0
C505 C 0.64961 0.45586 0.82671 0.0
C506 C 0.66876 0.43862 0.80117 0.0
H507 H 0.70573 0.61238 0.71748 0.0
H508 H 0.82597 0.66692 0.77805 0.0
H509 H 0.80021 0.64713 0.84614 0.0
H510 H 0.74185 0.62176 0.88807 0.0
H511 H 0.62181 0.56701 0.82602 0.0
H512 H 0.64903 0.57921 0.75897 0.0
C513 C 0.7263 0.61892 0.74567 0.0
C514 C 0.76748 0.64106 0.74313 0.0
C515 C 0.71119 0.60812 0.78437 0.0
C516 C 0.79414 0.64955 0.77953 0.0
C517 C 0.77934 0.63868 0.81836 0.0
C518 C 0.72177 0.6124 0.85985 0.0
C519 C 0.67981 0.59439 0.86198 0.0
C520 C 0.73767 0.61928 0.82116 0.0
C521 C 0.65419 0.58146 0.82525 0.0
C522 C 0.66969 0.58834 0.78683 0.0
H523 H 0.72452 0.70843 0.20115 0.0
H524 H 0.71663 0.60263 0.28363 0.0
H525 H 0.6741 0.5552 0.23041 0.0
H526 H 0.63615 0.54345 0.16241 0.0
H527 H 0.64232 0.64707 0.07787 0.0
H528 H 0.68906 0.69553 0.12937 0.0
C529 C 0.71351 0.67499 0.20725 0.0
C530 C 0.72391 0.65914 0.24636 0.0
C531 C 0.68892 0.64747 0.17611 0.0
C532 C 0.70958 0.61567 0.25375 0.0
C533 C 0.68509 0.58846 0.22336 0.0
C534 C 0.64799 0.57663 0.155 0.0
C535 C 0.63555 0.59171 0.11653 0.0
C536 C 0.67428 0.60399 0.18469 0.0
C537 C 0.65161 0.63467 0.10721 0.0
C538 C 0.67801 0.66238 0.13683 0.0
H539 H 0.34365 0.58144 0.20987 0.0
H540 H 0.44898 0.66174 0.28182 0.0
H541 H 0.49256 0.6353 0.24644 0.0
H542 H 0.50141 0.59127 0.19388 0.0
H543 H 0.39759 0.51283 0.11849 0.0
H544 H 0.35285 0.53641 0.1562 0.0
C545 C 0.37614 0.59291 0.21765 0.0
C546 C 0.39298 0.62367 0.24807 0.0
C547 C 0.40132 0.57799 0.19654 0.0
C548 C 0.43519 0.63844 0.25814 0.0
C549 C 0.46019 0.62324 0.23801 0.0
C550 C 0.46897 0.57904 0.1858 0.0
C551 C 0.45289 0.5503 0.15343 0.0
C552 C 0.44366 0.59331 0.20698 0.0
C553 C 0.41078 0.53513 0.14318 0.0
C554 C 0.38519 0.54858 0.16476 0.0
H555 H 0.73001 0.42549 0.19042 0.0
H556 H 0.65681 0.29559 0.17575 0.0
H557 H 0.61015 0.31447 0.12436 0.0
H558 H 0.58592 0.36828 0.08872 0.0
H559 H 0.65962 0.4983 0.10123 0.0
H560 H 0.71 0.47911 0.14762 0.0
C561 C 0.70432 0.40143 0.17518 0.0
C562 C 0.69692 0.35946 0.18726 0.0
C563 C 0.67724 0.4125 0.14549 0.0
C564 C 0.66337 0.32831 0.16734 0.0
C565 C 0.63641 0.33905 0.13797 0.0
C566 C 0.61327 0.39232 0.10116 0.0
C567 C 0.61875 0.43459 0.09176 0.0
C568 C 0.64237 0.3811 0.12768 0.0
C569 C 0.6546 0.46543 0.10783 0.0
C570 C 0.68343 0.45453 0.13458 0.0
loop_
_geom_bond_atom_site_label_1
_geom_bond_atom_site_label_2
_geom_bond_distance
_geom_bond_site_symmetry_2
_ccdc_geom_bond_type
H0 C5 0.929 . S
H1 C10 0.931 . S
H2 C8 0.930 . S
N3 N4 1.234 . S
N3 C7 1.453 . S
N4 N3 1.234 . S
C5 H0 0.929 . S
C5 C6 1.373 . S
C5 C7 1.368 . S
C6 C5 1.373 . S
C6 C10 1.397 . S
C7 N3 1.453 . S
C7 C5 1.368 . S
C7 C8 1.373 . S
C8 H2 0.930 . S
C8 C7 1.373 . S
C8 C9 1.371 . S
C9 C8 1.371 . S
C9 C10 1.383 . S
C10 H1 0.931 . S
C10 C6 1.397 . S
C10 C9 1.383 . S
H11 C16 0.929 . S
H12 C21 0.931 . S
H13 C19 0.930 . S
N14 N15 1.234 . S
N14 C18 1.453 . S
N15 N14 1.234 . S
C16 H11 0.929 . S
C16 C17 1.373 . S
C16 C18 1.368 . S
C17 C16 1.373 . S
C17 C21 1.397 . S
C18 N14 1.453 . S
C18 C16 1.368 . S
C18 C19 1.373 . S
C19 H13 0.930 . S
C19 C18 1.373 . S
C19 C20 1.371 . S
C20 C19 1.371 . S
C20 C21 1.383 . S
C21 H12 0.931 . S
C21 C17 1.397 . S
C21 C20 1.383 . S
H22 C27 0.929 . S
H23 C32 0.931 . S
H24 C30 0.930 . S
N25 N26 1.234 . S
N25 C29 1.453 . S
N26 N25 1.234 . S
C27 H22 0.929 . S
C27 C28 1.373 . S
C27 C29 1.368 . S
C28 C27 1.373 . S
C28 C32 1.397 . S
C29 N25 1.453 . S
C29 C27 1.368 . S
C29 C30 1.373 . S
C30 H24 0.930 . S
C30 C29 1.373 . S
C30 C31 1.371 . S
C31 C30 1.371 . S
C31 C32 1.383 . S
C32 H23 0.931 . S
C32 C28 1.397 . S
C32 C31 1.383 . S
H33 C38 0.929 . S
H34 C43 0.931 . S
H35 C41 0.930 . S
N36 N37 1.234 . S
N36 C40 1.453 . S
N37 N36 1.234 . S
C38 H33 0.929 . S
C38 C39 1.373 . S
C38 C40 1.368 . S
C39 C38 1.373 . S
C39 C43 1.397 . S
C40 N36 1.453 . S
C40 C38 1.368 . S
C40 C41 1.373 . S
C41 H35 0.930 . S
C41 C40 1.373 . S
C41 C42 1.371 . S
C42 C41 1.371 . S
C42 C43 1.383 . S
C43 H34 0.931 . S
C43 C39 1.397 . S
C43 C42 1.383 . S
H44 C49 0.929 . S
H45 C54 0.931 . S
H46 C52 0.930 . S
N47 N48 1.234 . S
N47 C51 1.453 . S
N48 N47 1.234 . S
C49 H44 0.929 . S
C49 C50 1.373 . S
C49 C51 1.368 . S
C50 C49 1.373 . S
C50 C54 1.397 . S
C51 N47 1.453 . S
C51 C49 1.368 . S
C51 C52 1.373 . S
C52 H46 0.930 . S
C52 C51 1.373 . S
C52 C53 1.371 . S
C53 C52 1.371 . S
C53 C54 1.383 . S
C54 H45 0.931 . S
C54 C50 1.397 . S
C54 C53 1.383 . S
H55 C60 0.929 . S
H56 C65 0.931 . S
H57 C63 0.930 . S
N58 N59 1.234 . S
N58 C62 1.453 . S
N59 N58 1.234 . S
C60 H55 0.929 . S
C60 C61 1.373 . S
C60 C62 1.368 . S
C61 C60 1.373 . S
C61 C65 1.397 . S
C62 N58 1.453 . S
C62 C60 1.368 . S
C62 C63 1.373 . S
C63 H57 0.930 . S
C63 C62 1.373 . S
C63 C64 1.371 . S
C64 C63 1.371 . S
C64 C65 1.383 . S
C65 H56 0.931 . S
C65 C61 1.397 . S
C65 C64 1.383 . S
H66 C71 0.929 . S
H67 C76 0.931 . S
H68 C74 0.930 . S
N69 N70 1.234 . S
N69 C73 1.453 . S
N70 N69 1.234 . S
C71 H66 0.929 . S
C71 C72 1.373 . S
C71 C73 1.368 . S
C72 C71 1.373 . S
C72 C76 1.397 . S
C73 N69 1.453 . S
C73 C71 1.368 . S
C73 C74 1.373 . S
C74 H68 0.930 . S
C74 C73 1.373 . S
C74 C75 1.371 . S
C75 C74 1.371 . S
C75 C76 1.383 . S
C76 H67 0.931 . S
C76 C72 1.397 . S
C76 C75 1.383 . S
H77 C82 0.929 . S
H78 C87 0.931 . S
H79 C85 0.930 . S
N80 N81 1.234 . S
N80 C84 1.453 . S
N81 N80 1.234 . S
C82 H77 0.929 . S
C82 C83 1.373 . S
C82 C84 1.368 . S
C83 C82 1.373 . S
C83 C87 1.397 . S
C84 N80 1.453 . S
C84 C82 1.368 . S
C84 C85 1.373 . S
C85 H79 0.930 . S
C85 C84 1.373 . S
C85 C86 1.371 . S
C86 C85 1.371 . S
C86 C87 1.383 . S
C87 H78 0.931 . S
C87 C83 1.397 . S
C87 C86 1.383 . S
Co88 O91 2.042 . S
Co88 O98 2.264 . S
Co88 O117 2.286 . S
Co88 O118 2.069 . S
Co88 O120 2.015 . S
Co89 O91 2.122 . S
Co89 O97 2.073 . S
Co89 O98 2.327 . S
Co89 O99 1.976 . S
Co90 O91 2.087 . S
Co90 O93 2.087 . S
Co90 O100 2.111 . S
Co90 O101 2.143 1_455 S
Co90 O105 2.111 1_455 S
Co90 O119 2.143 . S
O91 Co88 2.042 . S
O91 Co89 2.122 . S
O91 Co90 2.087 . S
O91 H92 0.980 . S
H92 O91 0.980 . S
O93 Co90 2.087 . S
O93 Co94 2.042 1_455 S
O93 Co95 2.122 1_455 S
O93 H96 0.980 . S
Co94 O93 2.042 1_655 S
Co94 O102 2.286 . S
Co94 O103 2.069 . S
Co94 O104 2.015 . S
Co94 O107 2.264 . S
Co95 O93 2.122 1_655 S
Co95 O106 1.976 . S
Co95 O107 2.327 . S
Co95 O108 2.073 . S
H96 O93 0.980 . S
O97 Co89 2.073 . S
O97 C112 1.245 . S
O98 Co88 2.264 . S
O98 Co89 2.327 . S
O98 C112 1.257 . S
O99 Co89 1.976 . S
O99 C111 1.251 . S
O100 Co90 2.111 . S
O100 C111 1.274 . S
O101 Co90 2.143 1_655 S
O101 C114 1.246 . S
O102 Co94 2.286 . S
O102 C113 1.259 . S
O103 Co94 2.069 . S
O103 C113 1.289 . S
O104 Co94 2.015 . S
O104 C114 1.257 . S
O105 Co90 2.111 1_655 S
O105 C115 1.274 . S
O106 Co95 1.976 . S
O106 C115 1.251 . S
O107 Co94 2.264 . S
O107 Co95 2.327 . S
O107 C116 1.257 . S
O108 Co95 2.073 . S
O108 C116 1.245 . S
C109 O117 1.259 . S
C109 O118 1.289 . S
C110 O119 1.246 . S
C110 O120 1.257 . S
C111 O99 1.251 . S
C111 O100 1.274 . S
C112 O97 1.245 . S
C112 O98 1.257 . S
C113 O102 1.259 . S
C113 O103 1.289 . S
C114 O101 1.246 . S
C114 O104 1.257 . S
C115 O105 1.274 . S
C115 O106 1.251 . S
C116 O107 1.257 . S
C116 O108 1.245 . S
O117 Co88 2.286 . S
O117 C109 1.259 . S
O118 Co88 2.069 . S
O118 C109 1.289 . S
O119 Co90 2.143 . S
O119 C110 1.246 . S
O120 Co88 2.015 . S
O120 C110 1.257 . S
Co121 O124 2.042 . S
Co121 O131 2.264 . S
Co121 O150 2.286 . S
Co121 O151 2.069 . S
Co121 O153 2.015 . S
Co122 O124 2.122 . S
Co122 O130 2.073 . S
Co122 O131 2.327 . S
Co122 O132 1.976 . S
Co123 O124 2.087 1_545 S
Co123 O126 2.087 . S
Co123 O133 2.111 1_545 S
Co123 O134 2.143 . S
Co123 O138 2.111 . S
Co123 O152 2.143 1_545 S
O124 Co121 2.042 . S
O124 Co122 2.122 . S
O124 Co123 2.087 1_565 S
O124 H125 0.980 1_565 S
H125 O124 0.980 1_545 S
O126 Co123 2.087 . S
O126 Co127 2.042 . S
O126 Co128 2.122 . S
O126 H129 0.980 . S
Co127 O126 2.042 . S
Co127 O135 2.286 . S
Co127 O136 2.069 . S
Co127 O137 2.015 . S
Co127 O140 2.264 . S
Co128 O126 2.122 . S
Co128 O139 1.976 . S
Co128 O140 2.327 . S
Co128 O141 2.073 . S
H129 O126 0.980 . S
O130 Co122 2.073 . S
O130 C145 1.245 . S
O131 Co121 2.264 . S
O131 Co122 2.327 . S
O131 C145 1.257 . S
O132 Co122 1.976 . S
O132 C144 1.251 . S
O133 Co123 2.111 1_565 S
O133 C144 1.274 . S
O134 Co123 2.143 . S
O134 C147 1.246 . S
O135 Co127 2.286 . S
O135 C146 1.259 . S
O136 Co127 2.069 . S
O136 C146 1.289 . S
O137 Co127 2.015 . S
O137 C147 1.257 . S
O138 Co123 2.111 . S
O138 C148 1.274 . S
O139 Co128 1.976 . S
O139 C148 1.251 . S
O140 Co127 2.264 . S
O140 Co128 2.327 . S
O140 C149 1.257 . S
O141 Co128 2.073 . S
O141 C149 1.245 . S
C142 O150 1.259 . S
C142 O151 1.289 . S
C143 O152 1.246 . S
C143 O153 1.257 . S
C144 O132 1.251 . S
C144 O133 1.274 . S
C145 O130 1.245 . S
C145 O131 1.257 . S
C146 O135 1.259 . S
C146 O136 1.289 . S
C147 O134 1.246 . S
C147 O137 1.257 . S
C148 O138 1.274 . S
C148 O139 1.251 . S
C149 O140 1.257 . S
C149 O141 1.245 . S
O150 Co121 2.286 . S
O150 C142 1.259 . S
O151 Co121 2.069 . S
O151 C142 1.289 . S
O152 Co123 2.143 1_565 S
O152 C143 1.246 . S
O153 Co121 2.015 . S
O153 C143 1.257 . S
Co154 O157 2.042 . S
Co154 O164 2.264 . S
Co154 O183 2.286 . S
Co154 O184 2.069 . S
Co154 O186 2.015 . S
Co155 O157 2.122 . S
Co155 O163 2.073 . S
Co155 O164 2.327 . S
Co155 O165 1.976 . S
Co156 O157 2.087 . S
Co156 O159 2.087 1_554 S
Co156 O166 2.111 . S
Co156 O167 2.143 1_554 S
Co156 O171 2.111 1_554 S
Co156 O185 2.143 . S
O157 Co154 2.042 . S
O157 Co155 2.122 . S
O157 Co156 2.087 . S
O157 H158 0.980 . S
H158 O157 0.980 . S
O159 Co156 2.087 1_556 S
O159 Co160 2.042 . S
O159 Co161 2.122 . S
O159 H162 0.980 . S
Co160 O159 2.042 . S
Co160 O168 2.286 . S
Co160 O169 2.069 . S
Co160 O170 2.015 . S
Co160 O173 2.264 . S
Co161 O159 2.122 . S
Co161 O172 1.976 . S
Co161 O173 2.327 . S
Co161 O174 2.073 . S
H162 O159 0.980 . S
O163 Co155 2.073 . S
O163 C178 1.245 . S
O164 Co154 2.264 . S
O164 Co155 2.327 . S
O164 C178 1.257 . S
O165 Co155 1.976 . S
O165 C177 1.251 . S
O166 Co156 2.111 . S
O166 C177 1.274 . S
O167 Co156 2.143 1_556 S
O167 C180 1.246 . S
O168 Co160 2.286 . S
O168 C179 1.259 . S
O169 Co160 2.069 . S
O169 C179 1.289 . S
O170 Co160 2.015 . S
O170 C180 1.257 . S
O171 Co156 2.111 1_556 S
O171 C181 1.274 . S
O172 Co161 1.976 . S
O172 C181 1.251 . S
O173 Co160 2.264 . S
O173 Co161 2.327 . S
O173 C182 1.257 . S
O174 Co161 2.073 . S
O174 C182 1.245 . S
C175 O183 1.259 . S
C175 O184 1.289 . S
C176 O185 1.246 . S
C176 O186 1.257 . S
C177 O165 1.251 . S
C177 O166 1.274 . S
C178 O163 1.245 . S
C178 O164 1.257 . S
C179 O168 1.259 . S
C179 O169 1.289 . S
C180 O167 1.246 . S
C180 O170 1.257 . S
C181 O171 1.274 . S
C181 O172 1.251 . S
C182 O173 1.257 . S
C182 O174 1.245 . S
O183 Co154 2.286 . S
O183 C175 1.259 . S
O184 Co154 2.069 . S
O184 C175 1.289 . S
O185 Co156 2.143 . S
O185 C176 1.246 . S
O186 Co154 2.015 . S
O186 C176 1.257 . S
H187 C193 0.930 . S
H188 C196 0.930 . S
H189 C197 0.930 . S
H190 C198 0.930 . S
H191 C201 0.930 . S
H192 C202 0.930 . S
C193 H187 0.930 . S
C193 C194 1.355 . S
C193 C195 1.415 . S
C194 C193 1.355 . S
C194 C196 1.419 . S
C195 C193 1.415 . S
C195 C200 1.425 . S
C195 C202 1.409 . S
C196 H188 0.930 . S
C196 C194 1.419 . S
C196 C197 1.362 . S
C197 H189 0.930 . S
C197 C196 1.362 . S
C197 C200 1.409 . S
C198 H190 0.930 . S
C198 C199 1.355 . S
C198 C200 1.415 . S
C199 C198 1.355 . S
C199 C201 1.419 . S
C200 C195 1.425 . S
C200 C197 1.409 . S
C200 C198 1.415 . S
C201 H191 0.930 . S
C201 C199 1.419 . S
C201 C202 1.362 . S
C202 H192 0.930 . S
C202 C195 1.409 . S
C202 C201 1.362 . S
H203 C209 0.930 . S
H204 C212 0.930 . S
H205 C213 0.930 . S
H206 C214 0.930 . S
H207 C217 0.930 . S
H208 C218 0.930 . S
C209 H203 0.930 . S
C209 C210 1.355 . S
C209 C211 1.415 . S
C210 C209 1.355 . S
C210 C212 1.419 . S
C211 C209 1.415 . S
C211 C216 1.425 . S
C211 C218 1.409 . S
C212 H204 0.930 . S
C212 C210 1.419 . S
C212 C213 1.362 . S
C213 H205 0.930 . S
C213 C212 1.362 . S
C213 C216 1.409 . S
C214 H206 0.930 . S
C214 C215 1.355 . S
C214 C216 1.415 . S
C215 C214 1.355 . S
C215 C217 1.419 . S
C216 C211 1.425 . S
C216 C213 1.409 . S
C216 C214 1.415 . S
C217 H207 0.930 . S
C217 C215 1.419 . S
C217 C218 1.362 . S
C218 H208 0.930 . S
C218 C211 1.409 . S
C218 C217 1.362 . S
H219 C225 0.930 . S
H220 C228 0.930 . S
H221 C229 0.930 . S
H222 C230 0.930 . S
H223 C233 0.930 . S
H224 C234 0.930 . S
C225 H219 0.930 . S
C225 C226 1.355 . S
C225 C227 1.415 . S
C226 C225 1.355 . S
C226 C228 1.419 . S
C227 C225 1.415 . S
C227 C232 1.425 . S
C227 C234 1.409 . S
C228 H220 0.930 . S
C228 C226 1.419 . S
C228 C229 1.362 . S
C229 H221 0.930 . S
C229 C228 1.362 . S
C229 C232 1.409 . S
C230 H222 0.930 . S
C230 C231 1.355 . S
C230 C232 1.415 . S
C231 C230 1.355 . S
C231 C233 1.419 . S
C232 C227 1.425 . S
C232 C229 1.409 . S
C232 C230 1.415 . S
C233 H223 0.930 . S
C233 C231 1.419 . S
C233 C234 1.362 . S
C234 H224 0.930 . S
C234 C227 1.409 . S
C234 C233 1.362 . S
H235 C241 0.930 . S
H236 C244 0.930 . S
H237 C245 0.930 . S
H238 C246 0.930 . S
H239 C249 0.930 . S
H240 C250 0.930 . S
C241 H235 0.930 . S
C241 C242 1.355 . S
C241 C243 1.415 . S
C242 C241 1.355 . S
C242 C244 1.419 . S
C243 C241 1.415 . S
C243 C248 1.425 . S
C243 C250 1.409 . S
C244 H236 0.930 . S
C244 C242 1.419 . S
C244 C245 1.362 . S
C245 H237 0.930 . S
C245 C244 1.362 . S
C245 C248 1.409 . S
C246 H238 0.930 . S
C246 C247 1.355 . S
C246 C248 1.415 . S
C247 C246 1.355 . S
C247 C249 1.419 . S
C248 C243 1.425 . S
C248 C245 1.409 . S
C248 C246 1.415 . S
C249 H239 0.930 . S
C249 C247 1.419 . S
C249 C250 1.362 . S
C250 H240 0.930 . S
C250 C243 1.409 . S
C250 C249 1.362 . S
H251 C257 0.930 . S
H252 C260 0.930 . S
H253 C261 0.930 . S
H254 C262 0.930 . S
H255 C265 0.930 . S
H256 C266 0.930 . S
C257 H251 0.930 . S
C257 C258 1.355 . S
C257 C259 1.415 . S
C258 C257 1.355 . S
C258 C260 1.419 . S
C259 C257 1.415 . S
C259 C264 1.425 . S
C259 C266 1.409 . S
C260 H252 0.930 . S
C260 C258 1.419 . S
C260 C261 1.362 . S
C261 H253 0.930 . S
C261 C260 1.362 . S
C261 C264 1.409 . S
C262 H254 0.930 . S
C262 C263 1.355 . S
C262 C264 1.415 . S
C263 C262 1.355 . S
C263 C265 1.419 . S
C264 C259 1.425 . S
C264 C261 1.409 . S
C264 C262 1.415 . S
C265 H255 0.930 . S
C265 C263 1.419 . S
C265 C266 1.362 . S
C266 H256 0.930 . S
C266 C259 1.409 . S
C266 C265 1.362 . S
H267 C273 0.930 . S
H268 C276 0.930 . S
H269 C277 0.930 . S
H270 C278 0.930 . S
H271 C281 0.930 . S
H272 C282 0.930 . S
C273 H267 0.930 . S
C273 C274 1.355 . S
C273 C275 1.415 . S
C274 C273 1.355 . S
C274 C276 1.419 . S
C275 C273 1.415 . S
C275 C280 1.425 . S
C275 C282 1.409 . S
C276 H268 0.930 . S
C276 C274 1.419 . S
C276 C277 1.362 . S
C277 H269 0.930 . S
C277 C276 1.362 . S
C277 C280 1.409 . S
C278 H270 0.930 . S
C278 C279 1.355 . S
C278 C280 1.415 . S
C279 C278 1.355 . S
C279 C281 1.419 . S
C280 C275 1.425 . S
C280 C277 1.409 . S
C280 C278 1.415 . S
C281 H271 0.930 . S
C281 C279 1.419 . S
C281 C282 1.362 . S
C282 H272 0.930 . S
C282 C275 1.409 . S
C282 C281 1.362 . S
H283 C289 0.930 . S
H284 C292 0.930 . S
H285 C293 0.930 . S
H286 C294 0.930 . S
H287 C297 0.930 . S
H288 C298 0.930 . S
C289 H283 0.930 . S
C289 C290 1.355 . S
C289 C291 1.415 . S
C290 C289 1.355 . S
C290 C292 1.419 . S
C291 C289 1.415 . S
C291 C296 1.425 . S
C291 C298 1.409 . S
C292 H284 0.930 . S
C292 C290 1.419 . S
C292 C293 1.362 . S
C293 H285 0.930 . S
C293 C292 1.362 . S
C293 C296 1.409 . S
C294 H286 0.930 . S
C294 C295 1.355 . S
C294 C296 1.415 . S
C295 C294 1.355 . S
C295 C297 1.419 . S
C296 C291 1.425 . S
C296 C293 1.409 . S
C296 C294 1.415 . S
C297 H287 0.930 . S
C297 C295 1.419 . S
C297 C298 1.362 . S
C298 H288 0.930 . S
C298 C291 1.409 . S
C298 C297 1.362 . S
H299 C305 0.930 . S
H300 C308 0.930 . S
H301 C309 0.930 . S
H302 C310 0.930 . S
H303 C313 0.930 . S
H304 C314 0.930 . S
C305 H299 0.930 . S
C305 C306 1.355 . S
C305 C307 1.415 . S
C306 C305 1.355 . S
C306 C308 1.419 . S
C307 C305 1.415 . S
C307 C312 1.425 . S
C307 C314 1.409 . S
C308 H300 0.930 . S
C308 C306 1.419 . S
C308 C309 1.362 . S
C309 H301 0.930 . S
C309 C308 1.362 . S
C309 C312 1.409 . S
C310 H302 0.930 . S
C310 C311 1.355 . S
C310 C312 1.415 . S
C311 C310 1.355 . S
C311 C313 1.419 . S
C312 C307 1.425 . S
C312 C309 1.409 . S
C312 C310 1.415 . S
C313 H303 0.930 . S
C313 C311 1.419 . S
C313 C314 1.362 . S
C314 H304 0.930 . S
C314 C307 1.409 . S
C314 C313 1.362 . S
H315 C321 0.930 . S
H316 C324 0.930 . S
H317 C325 0.930 . S
H318 C326 0.930 . S
H319 C329 0.930 . S
H320 C330 0.930 . S
C321 H315 0.930 . S
C321 C322 1.355 . S
C321 C323 1.415 . S
C322 C321 1.355 . S
C322 C324 1.419 . S
C323 C321 1.415 . S
C323 C328 1.425 . S
C323 C330 1.409 . S
C324 H316 0.930 . S
C324 C322 1.419 . S
C324 C325 1.362 . S
C325 H317 0.930 . S
C325 C324 1.362 . S
C325 C328 1.409 . S
C326 H318 0.930 . S
C326 C327 1.355 . S
C326 C328 1.415 . S
C327 C326 1.355 . S
C327 C329 1.419 . S
C328 C323 1.425 . S
C328 C325 1.409 . S
C328 C326 1.415 . S
C329 H319 0.930 . S
C329 C327 1.419 . S
C329 C330 1.362 . S
C330 H320 0.930 . S
C330 C323 1.409 . S
C330 C329 1.362 . S
H331 C337 0.930 . S
H332 C340 0.930 . S
H333 C341 0.930 . S
H334 C342 0.930 . S
H335 C345 0.930 . S
H336 C346 0.930 . S
C337 H331 0.930 . S
C337 C338 1.355 . S
C337 C339 1.415 . S
C338 C337 1.355 . S
C338 C340 1.419 . S
C339 C337 1.415 . S
C339 C344 1.425 . S
C339 C346 1.409 . S
C340 H332 0.930 . S
C340 C338 1.419 . S
C340 C341 1.362 . S
C341 H333 0.930 . S
C341 C340 1.362 . S
C341 C344 1.409 . S
C342 H334 0.930 . S
C342 C343 1.355 . S
C342 C344 1.415 . S
C343 C342 1.355 . S
C343 C345 1.419 . S
C344 C339 1.425 . S
C344 C341 1.409 . S
C344 C342 1.415 . S
C345 H335 0.930 . S
C345 C343 1.419 . S
C345 C346 1.362 . S
C346 H336 0.930 . S
C346 C339 1.409 . S
C346 C345 1.362 . S
H347 C353 0.930 . S
H348 C356 0.930 . S
H349 C357 0.930 . S
H350 C358 0.930 . S
H351 C361 0.930 . S
H352 C362 0.930 . S
C353 H347 0.930 . S
C353 C354 1.355 . S
C353 C355 1.415 . S
C354 C353 1.355 . S
C354 C356 1.419 . S
C355 C353 1.415 . S
C355 C360 1.425 . S
C355 C362 1.409 . S
C356 H348 0.930 . S
C356 C354 1.419 . S
C356 C357 1.362 . S
C357 H349 0.930 . S
C357 C356 1.362 . S
C357 C360 1.409 . S
C358 H350 0.930 . S
C358 C359 1.355 . S
C358 C360 1.415 . S
C359 C358 1.355 . S
C359 C361 1.419 . S
C360 C355 1.425 . S
C360 C357 1.409 . S
C360 C358 1.415 . S
C361 H351 0.930 . S
C361 C359 1.419 . S
C361 C362 1.362 . S
C362 H352 0.930 . S
C362 C355 1.409 . S
C362 C361 1.362 . S
H363 C369 0.930 . S
H364 C372 0.930 . S
H365 C373 0.930 . S
H366 C374 0.930 . S
H367 C377 0.930 . S
H368 C378 0.930 . S
C369 H363 0.930 . S
C369 C370 1.355 . S
C369 C371 1.415 . S
C370 C369 1.355 . S
C370 C372 1.419 . S
C371 C369 1.415 . S
C371 C376 1.425 . S
C371 C378 1.409 . S
C372 H364 0.930 . S
C372 C370 1.419 . S
C372 C373 1.362 . S
C373 H365 0.930 . S
C373 C372 1.362 . S
C373 C376 1.409 . S
C374 H366 0.930 . S
C374 C375 1.355 . S
C374 C376 1.415 . S
C375 C374 1.355 . S
C375 C377 1.419 . S
C376 C371 1.425 . S
C376 C373 1.409 . S
C376 C374 1.415 . S
C377 H367 0.930 . S
C377 C375 1.419 . S
C377 C378 1.362 . S
C378 H368 0.930 . S
C378 C371 1.409 . S
C378 C377 1.362 . S
H379 C385 0.930 . S
H380 C388 0.930 . S
H381 C389 0.930 . S
H382 C390 0.930 . S
H383 C393 0.930 . S
H384 C394 0.930 . S
C385 H379 0.930 . S
C385 C386 1.355 . S
C385 C387 1.415 . S
C386 C385 1.355 . S
C386 C388 1.419 . S
C387 C385 1.415 . S
C387 C392 1.425 . S
C387 C394 1.409 . S
C388 H380 0.930 . S
C388 C386 1.419 . S
C388 C389 1.362 . S
C389 H381 0.930 . S
C389 C388 1.362 . S
C389 C392 1.409 . S
C390 H382 0.930 . S
C390 C391 1.355 . S
C390 C392 1.415 . S
C391 C390 1.355 . S
C391 C393 1.419 . S
C392 C387 1.425 . S
C392 C389 1.409 . S
C392 C390 1.415 . S
C393 H383 0.930 . S
C393 C391 1.419 . S
C393 C394 1.362 . S
C394 H384 0.930 . S
C394 C387 1.409 . S
C394 C393 1.362 . S
H395 C401 0.930 . S
H396 C404 0.930 . S
H397 C405 0.930 . S
H398 C406 0.930 . S
H399 C409 0.930 . S
H400 C410 0.930 . S
C401 H395 0.930 . S
C401 C402 1.355 . S
C401 C403 1.415 . S
C402 C401 1.355 . S
C402 C404 1.419 . S
C403 C401 1.415 . S
C403 C408 1.425 . S
C403 C410 1.409 . S
C404 H396 0.930 . S
C404 C402 1.419 . S
C404 C405 1.362 . S
C405 H397 0.930 . S
C405 C404 1.362 . S
C405 C408 1.409 . S
C406 H398 0.930 . S
C406 C407 1.355 . S
C406 C408 1.415 . S
C407 C406 1.355 . S
C407 C409 1.419 . S
C408 C403 1.425 . S
C408 C405 1.409 . S
C408 C406 1.415 . S
C409 H399 0.930 . S
C409 C407 1.419 . S
C409 C410 1.362 . S
C410 H400 0.930 . S
C410 C403 1.409 . S
C410 C409 1.362 . S
H411 C417 0.930 . S
H412 C420 0.930 . S
H413 C421 0.930 . S
H414 C422 0.930 . S
H415 C425 0.930 . S
H416 C426 0.930 . S
C417 H411 0.930 . S
C417 C418 1.355 . S
C417 C419 1.415 . S
C418 C417 1.355 . S
C418 C420 1.419 . S
C419 C417 1.415 . S
C419 C424 1.425 . S
C419 C426 1.409 . S
C420 H412 0.930 . S
C420 C418 1.419 . S
C420 C421 1.362 . S
C421 H413 0.930 . S
C421 C420 1.362 . S
C421 C424 1.409 . S
C422 H414 0.930 . S
C422 C423 1.355 . S
C422 C424 1.415 . S
C423 C422 1.355 . S
C423 C425 1.419 . S
C424 C419 1.425 . S
C424 C421 1.409 . S
C424 C422 1.415 . S
C425 H415 0.930 . S
C425 C423 1.419 . S
C425 C426 1.362 . S
C426 H416 0.930 . S
C426 C419 1.409 . S
C426 C425 1.362 . S
H427 C433 0.930 . S
H428 C436 0.930 . S
H429 C437 0.930 . S
H430 C438 0.930 . S
H431 C441 0.930 . S
H432 C442 0.930 . S
C433 H427 0.930 . S
C433 C434 1.355 . S
C433 C435 1.415 . S
C434 C433 1.355 . S
C434 C436 1.419 . S
C435 C433 1.415 . S
C435 C440 1.425 . S
C435 C442 1.409 . S
C436 H428 0.930 . S
C436 C434 1.419 . S
C436 C437 1.362 . S
C437 H429 0.930 . S
C437 C436 1.362 . S
C437 C440 1.409 . S
C438 H430 0.930 . S
C438 C439 1.355 . S
C438 C440 1.415 . S
C439 C438 1.355 . S
C439 C441 1.419 . S
C440 C435 1.425 . S
C440 C437 1.409 . S
C440 C438 1.415 . S
C441 H431 0.930 . S
C441 C439 1.419 . S
C441 C442 1.362 . S
C442 H432 0.930 . S
C442 C435 1.409 . S
C442 C441 1.362 . S
H443 C449 0.930 . S
H444 C452 0.930 . S
H445 C453 0.930 . S
H446 C454 0.930 . S
H447 C457 0.930 . S
H448 C458 0.930 . S
C449 H443 0.930 . S
C449 C450 1.355 . S
C449 C451 1.415 . S
C450 C449 1.355 . S
C450 C452 1.419 . S
C451 C449 1.415 . S
C451 C456 1.425 . S
C451 C458 1.409 . S
C452 H444 0.930 . S
C452 C450 1.419 . S
C452 C453 1.362 . S
C453 H445 0.930 . S
C453 C452 1.362 . S
C453 C456 1.409 . S
C454 H446 0.930 . S
C454 C455 1.355 . S
C454 C456 1.415 . S
C455 C454 1.355 . S
C455 C457 1.419 . S
C456 C451 1.425 . S
C456 C453 1.409 . S
C456 C454 1.415 . S
C457 H447 0.930 . S
C457 C455 1.419 . S
C457 C458 1.362 . S
C458 H448 0.930 . S
C458 C451 1.409 . S
C458 C457 1.362 . S
H459 C465 0.930 . S
H460 C468 0.930 . S
H461 C469 0.930 . S
H462 C470 0.930 . S
H463 C473 0.930 . S
H464 C474 0.930 . S
C465 H459 0.930 . S
C465 C466 1.355 . S
C465 C467 1.415 . S
C466 C465 1.355 . S
C466 C468 1.419 . S
C467 C465 1.415 . S
C467 C472 1.425 . S
C467 C474 1.409 . S
C468 H460 0.930 . S
C468 C466 1.419 . S
C468 C469 1.362 . S
C469 H461 0.930 . S
C469 C468 1.362 . S
C469 C472 1.409 . S
C470 H462 0.930 . S
C470 C471 1.355 . S
C470 C472 1.415 . S
C471 C470 1.355 . S
C471 C473 1.419 . S
C472 C467 1.425 . S
C472 C469 1.409 . S
C472 C470 1.415 . S
C473 H463 0.930 . S
C473 C471 1.419 . S
C473 C474 1.362 . S
C474 H464 0.930 . S
C474 C467 1.409 . S
C474 C473 1.362 . S
H475 C481 0.930 . S
H476 C484 0.930 . S
H477 C485 0.930 . S
H478 C486 0.930 . S
H479 C489 0.930 . S
H480 C490 0.930 . S
C481 H475 0.930 . S
C481 C482 1.355 . S
C481 C483 1.415 . S
C482 C481 1.355 . S
C482 C484 1.419 . S
C483 C481 1.415 . S
C483 C488 1.425 . S
C483 C490 1.409 . S
C484 H476 0.930 . S
C484 C482 1.419 . S
C484 C485 1.362 . S
C485 H477 0.930 . S
C485 C484 1.362 . S
C485 C488 1.409 . S
C486 H478 0.930 . S
C486 C487 1.355 . S
C486 C488 1.415 . S
C487 C486 1.355 . S
C487 C489 1.419 . S
C488 C483 1.425 . S
C488 C485 1.409 . S
C488 C486 1.415 . S
C489 H479 0.930 . S
C489 C487 1.419 . S
C489 C490 1.362 . S
C490 H480 0.930 . S
C490 C483 1.409 . S
C490 C489 1.362 . S
H491 C497 0.930 . S
H492 C500 0.930 . S
H493 C501 0.930 . S
H494 C502 0.930 . S
H495 C505 0.930 . S
H496 C506 0.930 . S
C497 H491 0.930 . S
C497 C498 1.355 . S
C497 C499 1.415 . S
C498 C497 1.355 . S
C498 C500 1.419 . S
C499 C497 1.415 . S
C499 C504 1.425 . S
C499 C506 1.409 . S
C500 H492 0.930 . S
C500 C498 1.419 . S
C500 C501 1.362 . S
C501 H493 0.930 . S
C501 C500 1.362 . S
C501 C504 1.409 . S
C502 H494 0.930 . S
C502 C503 1.355 . S
C502 C504 1.415 . S
C503 C502 1.355 . S
C503 C505 1.419 . S
C504 C499 1.425 . S
C504 C501 1.409 . S
C504 C502 1.415 . S
C505 H495 0.930 . S
C505 C503 1.419 . S
C505 C506 1.362 . S
C506 H496 0.930 . S
C506 C499 1.409 . S
C506 C505 1.362 . S
H507 C513 0.930 . S
H508 C516 0.930 . S
H509 C517 0.930 . S
H510 C518 0.930 . S
H511 C521 0.930 . S
H512 C522 0.930 . S
C513 H507 0.930 . S
C513 C514 1.355 . S
C513 C515 1.415 . S
C514 C513 1.355 . S
C514 C516 1.419 . S
C515 C513 1.415 . S
C515 C520 1.425 . S
C515 C522 1.409 . S
C516 H508 0.930 . S
C516 C514 1.419 . S
C516 C517 1.362 . S
C517 H509 0.930 . S
C517 C516 1.362 . S
C517 C520 1.409 . S
C518 H510 0.930 . S
C518 C519 1.355 . S
C518 C520 1.415 . S
C519 C518 1.355 . S
C519 C521 1.419 . S
C520 C515 1.425 . S
C520 C517 1.409 . S
C520 C518 1.415 . S
C521 H511 0.930 . S
C521 C519 1.419 . S
C521 C522 1.362 . S
C522 H512 0.930 . S
C522 C515 1.409 . S
C522 C521 1.362 . S
H523 C529 0.930 . S
H524 C532 0.930 . S
H525 C533 0.930 . S
H526 C534 0.930 . S
H527 C537 0.930 . S
H528 C538 0.930 . S
C529 H523 0.930 . S
C529 C530 1.355 . S
C529 C531 1.415 . S
C530 C529 1.355 . S
C530 C532 1.419 . S
C531 C529 1.415 . S
C531 C536 1.425 . S
C531 C538 1.409 . S
C532 H524 0.930 . S
C532 C530 1.419 . S
C532 C533 1.362 . S
C533 H525 0.930 . S
C533 C532 1.362 . S
C533 C536 1.409 . S
C534 H526 0.930 . S
C534 C535 1.355 . S
C534 C536 1.415 . S
C535 C534 1.355 . S
C535 C537 1.419 . S
C536 C531 1.425 . S
C536 C533 1.409 . S
C536 C534 1.415 . S
C537 H527 0.930 . S
C537 C535 1.419 . S
C537 C538 1.362 . S
C538 H528 0.930 . S
C538 C531 1.409 . S
C538 C537 1.362 . S
H539 C545 0.930 . S
H540 C548 0.930 . S
H541 C549 0.930 . S
H542 C550 0.930 . S
H543 C553 0.930 . S
H544 C554 0.930 . S
C545 H539 0.930 . S
C545 C546 1.355 . S
C545 C547 1.415 . S
C546 C545 1.355 . S
C546 C548 1.419 . S
C547 C545 1.415 . S
C547 C552 1.425 . S
C547 C554 1.409 . S
C548 H540 0.930 . S
C548 C546 1.419 . S
C548 C549 1.362 . S
C549 H541 0.930 . S
C549 C548 1.362 . S
C549 C552 1.409 . S
C550 H542 0.930 . S
C550 C551 1.355 . S
C550 C552 1.415 . S
C551 C550 1.355 . S
C551 C553 1.419 . S
C552 C547 1.425 . S
C552 C549 1.409 . S
C552 C550 1.415 . S
C553 H543 0.930 . S
C553 C551 1.419 . S
C553 C554 1.362 . S
C554 H544 0.930 . S
C554 C547 1.409 . S
C554 C553 1.362 . S
H555 C561 0.930 . S
H556 C564 0.930 . S
H557 C565 0.930 . S
H558 C566 0.930 . S
H559 C569 0.930 . S
H560 C570 0.930 . S
C561 H555 0.930 . S
C561 C562 1.355 . S
C561 C563 1.415 . S
C562 C561 1.355 . S
C562 C564 1.419 . S
C563 C561 1.415 . S
C563 C568 1.425 . S
C563 C570 1.409 . S
C564 H556 0.930 . S
C564 C562 1.419 . S
C564 C565 1.362 . S
C565 H557 0.930 . S
C565 C564 1.362 . S
C565 C568 1.409 . S
C566 H558 0.930 . S
C566 C567 1.355 . S
C566 C568 1.415 . S
C567 C566 1.355 . S
C567 C569 1.419 . S
C568 C563 1.425 . S
C568 C565 1.409 . S
C568 C566 1.415 . S
C569 H559 0.930 . S
C569 C567 1.419 . S
C569 C570 1.362 . S
C570 H560 0.930 . S
C570 C563 1.409 . S
C570 C569 1.362 . S
C199 C112 1.372 . S
C194 N4 1.496 . S
C215 C148 1.400 . S
C210 C17 1.434 . S
C231 C113 1.580 . S
C226 C31 1.633 . S
C247 C143 1.524 . S
C242 C42 1.615 . S
C263 C110 1.472 . S
C258 C53 1.490 . S
C274 C61 1.829 . S
C279 C146 1.816 . S
C290 C75 0.838 . S
C295 C115 0.834 . S
C311 C145 1.451 . S
C306 N81 1.537 . S
C327 C149 1.704 . S
C322 C9 1.748 . S
C343 C114 1.212 . S
C338 C20 1.221 . S
C359 C142 1.581 . S
C354 N26 1.584 . S
C375 C111 1.148 . S
C370 C39 1.312 . S
C391 C144 1.629 . S
C386 C50 1.783 . S
C402 N59 1.277 . S
C407 C109 1.312 . S
C418 C72 1.174 . S
C423 C147 1.206 . S
C439 C116 1.499 . S
C434 C86 1.539 . S
C455 C178 1.803 . S
C450 C6 1.864 . S
C466 N48 1.920 . S
C471 C181 1.792 . S
C487 C180 1.846 . S
C482 C64 1.930 . S
C498 N70 1.341 . S
C503 C179 1.309 . S
C519 C182 1.860 . S
C514 C83 1.944 . S
C530 C28 1.805 . S
C535 C176 1.739 . S
C551 C175 1.918 . S
C546 N37 1.930 . S
C562 N15 1.265 . S
C567 C177 1.244 . S
