# Generated by pormake.
# Topology bwt, (3,3)-cn, num edge types: 1
# Building blocks:
#     Node 0, Type 0, BuildingBlock: OLANEW_clean_sbu_2, # of connection points: 3
#     Node 1, Type 0, BuildingBlock: OLANEW_clean_sbu_2, # of connection points: 3
#     Node 2, Type 0, BuildingBlock: OLANEW_clean_sbu_2, # of connection points: 3
#     Node 3, Type 0, BuildingBlock: OLANEW_clean_sbu_2, # of connection points: 3
#     Node 4, Type 0, BuildingBlock: OLANEW_clean_sbu_2, # of connection points: 3
#     Node 5, Type 0, BuildingBlock: OLANEW_clean_sbu_2, # of connection points: 3
#     Node 6, Type 0, BuildingBlock: OLANEW_clean_sbu_2, # of connection points: 3
#     Node 7, Type 0, BuildingBlock: OLANEW_clean_sbu_2, # of connection points: 3
#     Node 8, Type 0, BuildingBlock: OLANEW_clean_sbu_2, # of connection points: 3
#     Node 9, Type 0, BuildingBlock: OLANEW_clean_sbu_2, # of connection points: 3
#     Node 10, Type 0, BuildingBlock: OLANEW_clean_sbu_2, # of connection points: 3
#     Node 11, Type 0, BuildingBlock: OLANEW_clean_sbu_2, # of connection points: 3
#     Node 12, Type 0, BuildingBlock: OLANEW_clean_sbu_2, # of connection points: 3
#     Node 13, Type 0, BuildingBlock: OLANEW_clean_sbu_2, # of connection points: 3
#     Node 14, Type 0, BuildingBlock: OLANEW_clean_sbu_2, # of connection points: 3
#     Node 15, Type 0, BuildingBlock: OLANEW_clean_sbu_2, # of connection points: 3
#     Node 16, Type 0, BuildingBlock: OLANEW_clean_sbu_2, # of connection points: 3
#     Node 17, Type 0, BuildingBlock: OLANEW_clean_sbu_2, # of connection points: 3
#     Node 18, Type 0, BuildingBlock: OLANEW_clean_sbu_2, # of connection points: 3
#     Node 19, Type 0, BuildingBlock: OLANEW_clean_sbu_2, # of connection points: 3
#     Node 20, Type 0, BuildingBlock: OLANEW_clean_sbu_2, # of connection points: 3
#     Node 21, Type 0, BuildingBlock: OLANEW_clean_sbu_2, # of connection points: 3
#     Node 22, Type 0, BuildingBlock: OLANEW_clean_sbu_2, # of connection points: 3
#     Node 23, Type 0, BuildingBlock: OLANEW_clean_sbu_2, # of connection points: 3
#     Node 24, Type 1, BuildingBlock: BELTOD_clean_linker_0, # of connection points: 3
#     Node 25, Type 1, BuildingBlock: BELTOD_clean_linker_0, # of connection points: 3
#     Node 26, Type 1, BuildingBlock: BELTOD_clean_linker_0, # of connection points: 3
#     Node 27, Type 1, BuildingBlock: BELTOD_clean_linker_0, # of connection points: 3
#     Node 28, Type 1, BuildingBlock: BELTOD_clean_linker_0, # of connection points: 3
#     Node 29, Type 1, BuildingBlock: BELTOD_clean_linker_0, # of connection points: 3
#     Node 30, Type 1, BuildingBlock: BELTOD_clean_linker_0, # of connection points: 3
#     Node 31, Type 1, BuildingBlock: BELTOD_clean_linker_0, # of connection points: 3
#     Node 32, Type 1, BuildingBlock: BELTOD_clean_linker_0, # of connection points: 3
#     Node 33, Type 1, BuildingBlock: BELTOD_clean_linker_0, # of connection points: 3
#     Node 34, Type 1, BuildingBlock: BELTOD_clean_linker_0, # of connection points: 3
#     Node 35, Type 1, BuildingBlock: BELTOD_clean_linker_0, # of connection points: 3
#     Node 36, Type 1, BuildingBlock: BELTOD_clean_linker_0, # of connection points: 3
#     Node 37, Type 1, BuildingBlock: BELTOD_clean_linker_0, # of connection points: 3
#     Node 38, Type 1, BuildingBlock: BELTOD_clean_linker_0, # of connection points: 3
#     Node 39, Type 1, BuildingBlock: BELTOD_clean_linker_0, # of connection points: 3
#     Node 40, Type 1, BuildingBlock: BELTOD_clean_linker_0, # of connection points: 3
#     Node 41, Type 1, BuildingBlock: BELTOD_clean_linker_0, # of connection points: 3
#     Node 42, Type 1, BuildingBlock: BELTOD_clean_linker_0, # of connection points: 3
#     Node 43, Type 1, BuildingBlock: BELTOD_clean_linker_0, # of connection points: 3
#     Node 44, Type 1, BuildingBlock: BELTOD_clean_linker_0, # of connection points: 3
#     Node 45, Type 1, BuildingBlock: BELTOD_clean_linker_0, # of connection points: 3
#     Node 46, Type 1, BuildingBlock: BELTOD_clean_linker_0, # of connection points: 3
#     Node 47, Type 1, BuildingBlock: BELTOD_clean_linker_0, # of connection points: 3
#     Edge 48, Type (0, 1), BuildingBlock: TEMPAE_clean_linker_10, # of connection points: 2
#     Edge 49, Type (0, 1), BuildingBlock: TEMPAE_clean_linker_10, # of connection points: 2
#     Edge 50, Type (0, 1), BuildingBlock: TEMPAE_clean_linker_10, # of connection points: 2
#     Edge 51, Type (0, 1), BuildingBlock: TEMPAE_clean_linker_10, # of connection points: 2
#     Edge 52, Type (0, 1), BuildingBlock: TEMPAE_clean_linker_10, # of connection points: 2
#     Edge 53, Type (0, 1), BuildingBlock: TEMPAE_clean_linker_10, # of connection points: 2
#     Edge 54, Type (0, 1), BuildingBlock: TEMPAE_clean_linker_10, # of connection points: 2
#     Edge 55, Type (0, 1), BuildingBlock: TEMPAE_clean_linker_10, # of connection points: 2
#     Edge 56, Type (0, 1), BuildingBlock: TEMPAE_clean_linker_10, # of connection points: 2
#     Edge 57, Type (0, 1), BuildingBlock: TEMPAE_clean_linker_10, # of connection points: 2
#     Edge 58, Type (0, 1), BuildingBlock: TEMPAE_clean_linker_10, # of connection points: 2
#     Edge 59, Type (0, 1), BuildingBlock: TEMPAE_clean_linker_10, # of connection points: 2
#     Edge 60, Type (0, 1), BuildingBlock: TEMPAE_clean_linker_10, # of connection points: 2
#     Edge 61, Type (0, 1), BuildingBlock: TEMPAE_clean_linker_10, # of connection points: 2
#     Edge 62, Type (0, 1), BuildingBlock: TEMPAE_clean_linker_10, # of connection points: 2
#     Edge 63, Type (0, 1), BuildingBlock: TEMPAE_clean_linker_10, # of connection points: 2
#     Edge 64, Type (0, 1), BuildingBlock: TEMPAE_clean_linker_10, # of connection points: 2
#     Edge 65, Type (0, 1), BuildingBlock: TEMPAE_clean_linker_10, # of connection points: 2
#     Edge 66, Type (0, 1), BuildingBlock: TEMPAE_clean_linker_10, # of connection points: 2
#     Edge 67, Type (0, 1), BuildingBlock: TEMPAE_clean_linker_10, # of connection points: 2
#     Edge 68, Type (0, 1), BuildingBlock: TEMPAE_clean_linker_10, # of connection points: 2
#     Edge 69, Type (0, 1), BuildingBlock: TEMPAE_clean_linker_10, # of connection points: 2
#     Edge 70, Type (0, 1), BuildingBlock: TEMPAE_clean_linker_10, # of connection points: 2
#     Edge 71, Type (0, 1), BuildingBlock: TEMPAE_clean_linker_10, # of connection points: 2
#     Edge 72, Type (0, 1), BuildingBlock: TEMPAE_clean_linker_10, # of connection points: 2
#     Edge 73, Type (0, 1), BuildingBlock: TEMPAE_clean_linker_10, # of connection points: 2
#     Edge 74, Type (0, 1), BuildingBlock: TEMPAE_clean_linker_10, # of connection points: 2
#     Edge 75, Type (0, 1), BuildingBlock: TEMPAE_clean_linker_10, # of connection points: 2
#     Edge 76, Type (0, 1), BuildingBlock: TEMPAE_clean_linker_10, # of connection points: 2
#     Edge 77, Type (0, 1), BuildingBlock: TEMPAE_clean_linker_10, # of connection points: 2
#     Edge 78, Type (0, 1), BuildingBlock: TEMPAE_clean_linker_10, # of connection points: 2
#     Edge 79, Type (0, 1), BuildingBlock: TEMPAE_clean_linker_10, # of connection points: 2
#     Edge 80, Type (0, 1), BuildingBlock: TEMPAE_clean_linker_10, # of connection points: 2
#     Edge 81, Type (0, 1), BuildingBlock: TEMPAE_clean_linker_10, # of connection points: 2
#     Edge 82, Type (0, 1), BuildingBlock: TEMPAE_clean_linker_10, # of connection points: 2
#     Edge 83, Type (0, 1), BuildingBlock: TEMPAE_clean_linker_10, # of connection points: 2
#     Edge 84, Type (0, 1), BuildingBlock: TEMPAE_clean_linker_10, # of connection points: 2
#     Edge 85, Type (0, 1), BuildingBlock: TEMPAE_clean_linker_10, # of connection points: 2
#     Edge 86, Type (0, 1), BuildingBlock: TEMPAE_clean_linker_10, # of connection points: 2
#     Edge 87, Type (0, 1), BuildingBlock: TEMPAE_clean_linker_10, # of connection points: 2
#     Edge 88, Type (0, 1), BuildingBlock: TEMPAE_clean_linker_10, # of connection points: 2
#     Edge 89, Type (0, 1), BuildingBlock: TEMPAE_clean_linker_10, # of connection points: 2
#     Edge 90, Type (0, 1), BuildingBlock: TEMPAE_clean_linker_10, # of connection points: 2
#     Edge 91, Type (0, 1), BuildingBlock: TEMPAE_clean_linker_10, # of connection points: 2
#     Edge 92, Type (0, 1), BuildingBlock: TEMPAE_clean_linker_10, # of connection points: 2
#     Edge 93, Type (0, 1), BuildingBlock: TEMPAE_clean_linker_10, # of connection points: 2
#     Edge 94, Type (0, 1), BuildingBlock: TEMPAE_clean_linker_10, # of connection points: 2
#     Edge 95, Type (0, 1), BuildingBlock: TEMPAE_clean_linker_10, # of connection points: 2
#     Edge 96, Type (0, 1), BuildingBlock: TEMPAE_clean_linker_10, # of connection points: 2
#     Edge 97, Type (0, 1), BuildingBlock: TEMPAE_clean_linker_10, # of connection points: 2
#     Edge 98, Type (0, 1), BuildingBlock: TEMPAE_clean_linker_10, # of connection points: 2
#     Edge 99, Type (0, 1), BuildingBlock: TEMPAE_clean_linker_10, # of connection points: 2
#     Edge 100, Type (0, 1), BuildingBlock: TEMPAE_clean_linker_10, # of connection points: 2
#     Edge 101, Type (0, 1), BuildingBlock: TEMPAE_clean_linker_10, # of connection points: 2
#     Edge 102, Type (0, 1), BuildingBlock: TEMPAE_clean_linker_10, # of connection points: 2
#     Edge 103, Type (0, 1), BuildingBlock: TEMPAE_clean_linker_10, # of connection points: 2
#     Edge 104, Type (0, 1), BuildingBlock: TEMPAE_clean_linker_10, # of connection points: 2
#     Edge 105, Type (0, 1), BuildingBlock: TEMPAE_clean_linker_10, # of connection points: 2
#     Edge 106, Type (0, 1), BuildingBlock: TEMPAE_clean_linker_10, # of connection points: 2
#     Edge 107, Type (0, 1), BuildingBlock: TEMPAE_clean_linker_10, # of connection points: 2
#     Edge 108, Type (0, 1), BuildingBlock: TEMPAE_clean_linker_10, # of connection points: 2
#     Edge 109, Type (0, 1), BuildingBlock: TEMPAE_clean_linker_10, # of connection points: 2
#     Edge 110, Type (0, 1), BuildingBlock: TEMPAE_clean_linker_10, # of connection points: 2
#     Edge 111, Type (0, 1), BuildingBlock: TEMPAE_clean_linker_10, # of connection points: 2
#     Edge 112, Type (0, 1), BuildingBlock: TEMPAE_clean_linker_10, # of connection points: 2
#     Edge 113, Type (0, 1), BuildingBlock: TEMPAE_clean_linker_10, # of connection points: 2
#     Edge 114, Type (0, 1), BuildingBlock: TEMPAE_clean_linker_10, # of connection points: 2
#     Edge 115, Type (0, 1), BuildingBlock: TEMPAE_clean_linker_10, # of connection points: 2
#     Edge 116, Type (0, 1), BuildingBlock: TEMPAE_clean_linker_10, # of connection points: 2
#     Edge 117, Type (0, 1), BuildingBlock: TEMPAE_clean_linker_10, # of connection points: 2
#     Edge 118, Type (0, 1), BuildingBlock: TEMPAE_clean_linker_10, # of connection points: 2
#     Edge 119, Type (0, 1), BuildingBlock: TEMPAE_clean_linker_10, # of connection points: 2
# Relax obj value: 0.133
# Max RMSD: 0.134
# Mean RMSD: 0.085
data_MOF--net-bwt--node1-OLANEW_clean_sbu_2--node2-BELTOD_clean_linker_0--edge1-TEMPAE_clean_linker_10
_symmetry_space_group_name_H-M    P1
_symmetry_Int_Tables_number       1
_symmetry_cell_setting            triclinic
loop_
_symmetry_equiv_pos_as_xyz
'x, y, z'
_cell_length_a     67.9093
_cell_length_b     67.799056
_cell_length_c     68.003316
_cell_angle_alpha  93.448081
_cell_angle_beta   93.394215
_cell_angle_gamma 93.525946
loop_
_atom_site_label
_atom_site_type_symbol
_atom_site_fract_x
_atom_site_fract_y
_atom_site_fract_z
_atom_type_partial_charge
O0 O 0.26945 0.58472 0.31652 0.0
Cd1 Cd 0.26264 0.59401 0.28273 0.0
O2 O 0.2926 0.60846 0.3245 0.0
Cd3 Cd 0.29648 0.61551 0.29406 0.0
O4 O 0.32398 0.60733 0.2818 0.0
C5 C 0.32666 0.58894 0.2818 0.0
O6 O 0.31203 0.57685 0.28646 0.0
C7 C 0.2815 0.59401 0.32936 0.0
C8 C 0.22201 0.58742 0.27407 0.0
O9 O 0.23385 0.57383 0.27043 0.0
O10 O 0.22949 0.60436 0.28119 0.0
O11 O 0.22118 0.38974 0.70046 0.0
Cd12 Cd 0.22255 0.3741 0.66708 0.0
O13 O 0.21424 0.36134 0.71323 0.0
Cd14 Cd 0.20177 0.34866 0.68467 0.0
O15 O 0.1705 0.35267 0.67802 0.0
C16 C 0.16579 0.36998 0.67431 0.0
O17 O 0.17995 0.38361 0.67206 0.0
C18 C 0.21907 0.37979 0.71556 0.0
C19 C 0.26243 0.37352 0.65928 0.0
O20 O 0.25216 0.38788 0.65432 0.0
O21 O 0.2536 0.35902 0.66718 0.0
O22 O 0.74694 0.96499 0.67376 0.0
Cd23 Cd 0.75154 0.97376 0.70916 0.0
O24 O 0.77666 0.95499 0.66935 0.0
Cd25 Cd 0.78942 0.96417 0.69892 0.0
O26 O 0.81707 0.98061 0.70942 0.0
C27 C 0.81813 -0.00072 0.70823 0.0
O28 O 0.802 0.00793 0.70303 0.0
C29 C 0.75931 0.9578 0.66248 0.0
C30 C 0.71617 0.98848 0.72043 0.0
O31 O 0.72975 -0.00025 0.71378 0.0
O32 O 0.7196 0.97032 0.72249 0.0
O33 O 0.73304 0.00742 0.28472 0.0
Cd34 Cd 0.74224 -0.00373 0.31729 0.0
O35 O 0.70291 0.99302 0.28244 0.0
Cd36 Cd 0.69868 0.98406 0.31223 0.0
O37 O 0.66785 0.97636 0.31789 0.0
C38 C 0.6559 0.98751 0.30963 0.0
O39 O 0.66326 0.00274 0.30073 0.0
C40 C 0.71685 0.00262 0.27476 0.0
C41 C 0.78133 0.98596 0.31593 0.0
O42 O 0.76685 0.97369 0.3098 0.0
O43 O 0.77735 0.00292 0.32349 0.0
O44 O 0.31025 0.29054 0.57634 0.0
Cd45 Cd 0.27746 0.2822 0.58782 0.0
O46 O 0.32425 0.28935 0.60617 0.0
Cd47 Cd 0.29643 0.29745 0.61794 0.0
O48 O 0.28553 0.32667 0.61365 0.0
C49 C 0.29935 0.3403 0.61547 0.0
O50 O 0.31715 0.33566 0.6214 0.0
C51 C 0.3258 0.29014 0.58767 0.0
C52 C 0.27261 0.24092 0.58681 0.0
O53 O 0.26662 0.25046 0.57213 0.0
O54 O 0.28031 0.25096 0.60225 0.0
O55 O 0.29841 0.75216 0.03433 0.0
Cd56 Cd 0.33081 0.7702 0.03886 0.0
O57 O 0.31051 0.72548 0.02123 0.0
Cd58 Cd 0.30805 0.69471 0.00911 0.0
O59 O 0.29824 0.66552 -0.00451 0.0
C60 C 0.28291 0.6568 0.00164 0.0
O61 O 0.27416 0.66535 0.01629 0.0
C62 C 0.29569 0.73464 0.02649 0.0
C63 C 0.32855 0.80664 0.02213 0.0
O64 O 0.33435 0.79159 0.01227 0.0
O65 O 0.32426 0.80453 0.04002 0.0
O66 O 0.70589 0.21611 0.40118 0.0
Cd67 Cd 0.67079 0.21723 0.39101 0.0
O68 O 0.71457 0.20586 0.37189 0.0
Cd69 Cd 0.68437 0.194 0.36404 0.0
O70 O 0.67553 0.16382 0.37095 0.0
C71 C 0.67844 0.16032 0.38902 0.0
O72 O 0.68396 0.17522 0.4018 0.0
C73 C 0.71936 0.21238 0.38955 0.0
C74 C 0.66304 0.25718 0.39276 0.0
O75 O 0.66189 0.24694 0.40794 0.0
O76 O 0.66699 0.2483 0.37642 0.0
O77 O 0.682 0.75624 0.9816 0.0
Cd78 Cd 0.71809 0.75933 0.98287 0.0
O79 O 0.67776 0.76997 0.95334 0.0
Cd80 Cd 0.70754 0.78428 0.95651 0.0
O81 O 0.71593 0.81475 0.96749 0.0
C82 C 0.70176 0.82593 0.96491 0.0
O83 O 0.68532 0.81833 0.95549 0.0
C84 C 0.67062 0.76067 0.96725 0.0
C85 C 0.73044 0.72319 -0.00524 0.0
O86 O 0.72862 0.73768 0.00737 0.0
O87 O 0.72724 0.72609 0.97642 0.0
O88 O 0.58452 0.31906 0.2752 0.0
Cd89 Cd 0.59658 0.28628 0.26827 0.0
O90 O 0.60714 0.32761 0.29921 0.0
Cd91 Cd 0.61631 0.2978 0.30329 0.0
O92 O 0.613 0.28617 0.33219 0.0
C93 C 0.59609 0.27875 0.33591 0.0
O94 O 0.58239 0.2757 0.32138 0.0
C95 C 0.59281 0.33205 0.28778 0.0
C96 C 0.58975 0.2768 0.22785 0.0
O97 O 0.57738 0.27086 0.2401 0.0
O98 O 0.6056 0.28667 0.23479 0.0
O99 O 0.0303 0.30609 0.74978 0.0
Cd100 Cd 0.03213 0.33907 0.7666 0.0
O101 O 0.02686 0.31751 0.72027 0.0
Cd102 Cd 0.0196 0.31118 0.6887 0.0
O103 O 0.00968 0.29501 0.66083 0.0
C104 C -0.00305 0.3019 0.64911 0.0
O105 O 0.99023 0.31923 0.65375 0.0
C106 C 0.02798 0.30297 0.73116 0.0
C107 C 0.01728 0.33551 0.80367 0.0
O108 O 0.0059 0.33866 0.78862 0.0
O109 O 0.03579 0.33462 0.80127 0.0
O110 O 0.38434 0.70942 0.22086 0.0
Cd111 Cd 0.37588 0.67373 0.2171 0.0
O112 O 0.35835 0.71845 0.20373 0.0
Cd113 Cd 0.35329 0.68873 0.18953 0.0
O114 O 0.36378 0.67969 0.16087 0.0
C115 C 0.35436 0.68515 0.14564 0.0
O116 O 0.33759 0.69348 0.14782 0.0
C117 C 0.37382 0.72302 0.21491 0.0
C118 C 0.38268 0.6603 0.25466 0.0
O119 O 0.39647 0.66144 0.24263 0.0
O120 O 0.36532 0.66453 0.24856 0.0
O121 O 0.98622 0.67124 0.75395 0.0
Cd122 Cd 0.98956 0.70741 0.75718 0.0
O123 O 0.95855 0.66778 0.76895 0.0
Cd124 Cd 0.96236 0.69795 0.78232 0.0
O125 O 0.97308 0.70919 0.81203 0.0
C126 C 0.99113 0.71503 0.81577 0.0
O127 O 0.00273 0.71649 0.80106 0.0
C128 C 0.97187 0.66021 0.75912 0.0
C129 C 0.00255 0.71966 0.72145 0.0
O130 O 0.01483 0.71586 0.73556 0.0
O131 O 0.98409 0.71842 0.72452 0.0
O132 O 0.74392 0.36224 0.64344 0.0
Cd133 Cd 0.75439 0.34416 0.67179 0.0
O134 O 0.71998 0.37443 0.65965 0.0
Cd135 Cd 0.69333 0.39071 0.66167 0.0
O136 O 0.6649 0.40378 0.66323 0.0
C137 C 0.65222 0.39579 0.67378 0.0
O138 O 0.65688 0.38029 0.68335 0.0
C139 C 0.72944 0.37322 0.64409 0.0
C140 C 0.79202 0.35865 0.68655 0.0
O141 O 0.78971 0.34465 0.67293 0.0
O142 O 0.77649 0.36564 0.69336 0.0
O143 O 0.7339 0.64549 0.28279 0.0
Cd144 Cd 0.73203 0.66103 0.31599 0.0
O145 O 0.76439 0.63771 0.28932 0.0
Cd146 Cd 0.7921 0.62524 0.28153 0.0
O147 O 0.82023 0.61296 0.27525 0.0
C148 C 0.82638 0.59945 0.28575 0.0
O149 O 0.81548 0.59324 0.29977 0.0
C150 C 0.7491 0.63704 0.2775 0.0
C151 C 0.69688 0.64672 0.33086 0.0
O152 O 0.69786 0.66331 0.32277 0.0
O153 O 0.71262 0.63728 0.33243 0.0
O154 O 0.23606 0.01434 0.32321 0.0
Cd155 Cd 0.23073 0.01318 0.28733 0.0
O156 O 0.23642 0.98197 0.32353 0.0
Cd157 Cd 0.21912 0.97816 0.29535 0.0
O158 O 0.18979 0.97519 0.28009 0.0
C159 C 0.17803 0.98852 0.28416 0.0
O160 O 0.18454 0.00377 0.29614 0.0
C161 C 0.23952 -0.00098 0.33242 0.0
C162 C 0.26666 0.00403 0.27226 0.0
O163 O 0.26323 0.02193 0.27738 0.0
O164 O 0.25284 0.99052 0.27358 0.0
O165 O 0.22363 0.9727 0.70359 0.0
Cd166 Cd 0.21381 0.97276 0.66846 0.0
O167 O 0.25438 0.98234 0.69912 0.0
Cd168 Cd 0.28473 0.99304 0.7088 0.0
O169 O 0.31537 0.0042 0.71599 0.0
C170 C 0.32592 0.00871 0.70189 0.0
O171 O 0.31798 0.00645 0.68373 0.0
C172 C 0.24113 0.97742 0.71069 0.0
C173 C 0.17861 0.99155 0.66323 0.0
O174 O 0.17847 0.97296 0.66573 0.0
O175 O 0.19542 0.0012 0.66296 0.0
O176 O 0.63834 0.73228 0.34172 0.0
Cd177 Cd 0.66265 0.74803 0.32163 0.0
O178 O 0.66016 0.71314 0.35407 0.0
Cd179 Cd 0.66904 0.68861 0.3712 0.0
O180 O 0.67592 0.66064 0.38324 0.0
C181 C 0.66547 0.6532 0.39615 0.0
O182 O 0.65081 0.66292 0.40272 0.0
C183 C 0.64269 0.7189 0.35323 0.0
C184 C 0.67656 0.78474 0.33948 0.0
O185 O 0.66083 0.78297 0.32796 0.0
O186 O 0.68585 0.76917 0.34237 0.0
O187 O 0.70312 0.24104 0.9446 0.0
Cd188 Cd 0.66794 0.23356 0.94796 0.0
O189 O 0.70178 0.26896 0.9623 0.0
Cd190 Cd 0.714 0.29566 0.97964 0.0
O191 O 0.72302 0.32456 -0.00551 0.0
C192 C 0.71244 0.33145 0.00775 0.0
O193 O 0.69679 0.32073 0.01235 0.0
C194 C 0.71187 0.25667 0.95303 0.0
C195 C 0.66397 0.19807 0.96643 0.0
O196 O 0.66185 0.1983 0.94759 0.0
O197 O 0.66739 0.21465 0.97649 0.0
O198 O 0.28332 0.74216 0.64028 0.0
Cd199 Cd 0.31688 0.73924 0.6545 0.0
O200 O 0.28736 0.77444 0.63962 0.0
Cd201 Cd 0.27895 0.80438 0.63409 0.0
O202 O 0.2775 0.8356 0.62819 0.0
C203 C 0.26313 0.84221 0.61832 0.0
O204 O 0.24817 0.82995 0.61163 0.0
C205 C 0.27663 0.75848 0.63567 0.0
C206 C 0.33009 0.7034 0.6398 0.0
O207 O 0.32259 0.70478 0.65665 0.0
O208 O 0.33185 0.71907 0.63023 0.0
O209 O 0.30121 0.27524 0.05544 0.0
Cd210 Cd 0.26626 0.27874 0.06043 0.0
O211 O 0.29287 0.25048 0.03375 0.0
Cd212 Cd 0.29874 0.22533 0.01375 0.0
O213 O 0.29948 0.19657 -0.00235 0.0
C214 C 0.31077 0.18375 0.00397 0.0
O215 O 0.32251 0.18841 0.01985 0.0
C216 C 0.30622 0.26202 0.043 0.0
C217 C 0.25233 0.30913 0.03866 0.0
O218 O 0.25927 0.31255 0.05657 0.0
O219 O 0.25178 0.29129 0.03116 0.0
O220 O 0.36177 0.64892 0.74207 0.0
Cd221 Cd 0.34628 0.67974 0.74982 0.0
O222 O 0.36911 0.65877 0.71312 0.0
Cd223 Cd 0.38363 0.65669 0.68533 0.0
O224 O 0.3965 0.65746 0.65677 0.0
C225 C 0.3923 0.67147 0.64599 0.0
O226 O 0.38077 0.68491 0.65261 0.0
C227 C 0.36961 0.64571 0.72577 0.0
C228 C 0.36096 0.69565 0.78693 0.0
O229 O 0.34552 0.68365 0.78498 0.0
O230 O 0.36924 0.70036 0.77127 0.0
O231 O 0.97292 0.71312 0.22735 0.0
Cd232 Cd 0.97838 0.67819 0.22063 0.0
O233 O 0.98566 0.71281 0.25769 0.0
Cd234 Cd -0.00246 0.72528 0.28679 0.0
O235 O 0.0089 0.73269 0.31728 0.0
C236 C 0.00325 0.7214 0.3304 0.0
O237 O 0.99074 0.70619 0.32507 0.0
C238 C 0.97799 0.72229 0.2439 0.0
C239 C -0.00532 0.67305 0.18409 0.0
O240 O 0.97594 0.6711 0.18555 0.0
O241 O 0.00569 0.67714 0.19996 0.0
O242 O 0.63813 0.28242 0.74218 0.0
Cd243 Cd 0.65372 0.31558 0.73989 0.0
O244 O 0.63343 0.28824 0.77356 0.0
Cd245 Cd 0.62365 0.28047 0.80234 0.0
O246 O 0.61009 0.27425 0.82975 0.0
C247 C 0.61419 0.25947 0.83952 0.0
O248 O 0.6271 0.2474 0.83297 0.0
C249 C 0.63117 0.27675 0.75799 0.0
C250 C 0.63896 0.32992 0.70478 0.0
O251 O 0.65527 0.32136 0.70555 0.0
O252 O 0.63001 0.33225 0.72075 0.0
O253 O 0.05897 0.3019 0.27197 0.0
Cd254 Cd 0.0637 0.26657 0.27297 0.0
O255 O 0.03955 0.29583 0.24515 0.0
Cd256 Cd 0.02118 0.30288 0.2193 0.0
O257 O 0.0048 0.3034 0.19075 0.0
C258 C 0.01344 0.30994 0.17616 0.0
O259 O 0.03194 0.31697 0.17884 0.0
C260 C 0.04771 0.30818 0.25845 0.0
C261 C 0.04298 0.25107 0.30335 0.0
O262 O 0.06106 0.25773 0.30633 0.0
O263 O 0.03482 0.25149 0.28591 0.0
P264 P 0.33722 0.51928 0.52063 0.0
H265 H 0.36396 0.53156 0.55511 0.0
H266 H 0.36461 0.5594 0.5798 0.0
H267 H 0.31041 0.57803 0.5521 0.0
H268 H 0.30934 0.54962 0.52841 0.0
H269 H 0.34631 0.47774 0.51872 0.0
H270 H 0.33125 0.4486 0.5326 0.0
H271 H 0.2845 0.48329 0.55352 0.0
H272 H 0.29994 0.5126 0.53976 0.0
H273 H 0.34041 0.5569 0.50235 0.0
H274 H 0.31212 0.49869 0.48785 0.0
O275 O 0.3607 0.5147 0.51732 0.0
H276 H 0.32695 0.56809 0.47115 0.0
H277 H 0.29903 0.50977 0.45617 0.0
C278 C 0.33692 0.53891 0.53961 0.0
C279 C 0.35217 0.5416 0.55451 0.0
C280 C 0.35257 0.5576 0.56854 0.0
C281 C 0.33771 0.57119 0.56785 0.0
C282 C 0.32202 0.56784 0.5533 0.0
C283 C 0.32151 0.55171 0.53952 0.0
C284 C 0.32447 0.4974 0.52858 0.0
C285 C 0.33273 0.47907 0.52612 0.0
C286 C 0.32397 0.46234 0.53394 0.0
C287 C 0.30669 0.46362 0.54427 0.0
C288 C 0.29794 0.48188 0.54588 0.0
C289 C 0.30673 0.49862 0.538 0.0
C290 C 0.32672 0.52715 0.4977 0.0
C291 C 0.33107 0.54659 0.49256 0.0
C292 C 0.32341 0.55298 0.47474 0.0
C293 C 0.31175 0.53986 0.46144 0.0
C294 C 0.30787 0.52019 0.4663 0.0
C295 C 0.31527 0.51389 0.48438 0.0
P296 P 0.19163 0.46717 0.91352 0.0
H297 H 0.18065 0.45744 0.9527 0.0
H298 H 0.19084 0.43216 0.97473 0.0
H299 H 0.22969 0.41058 0.93133 0.0
H300 H 0.21986 0.43616 0.90972 0.0
H301 H 0.179 0.5076 0.9157 0.0
H302 H 0.19526 0.53909 0.92906 0.0
H303 H 0.24875 0.50972 0.94233 0.0
H304 H 0.23212 0.47815 0.92943 0.0
H305 H 0.16966 0.44022 0.88426 0.0
H306 H 0.22388 0.47721 0.88786 0.0
O307 O 0.16737 0.46907 0.91502 0.0
H308 H 0.17628 0.42792 0.85099 0.0
H309 H 0.23049 0.46521 0.85437 0.0
C310 C 0.19918 0.4484 0.92944 0.0
C311 C 0.19131 0.4472 0.94794 0.0
C312 C 0.1971 0.43271 0.96047 0.0
C313 C 0.21097 0.41925 0.95473 0.0
C314 C 0.21909 0.42079 0.93628 0.0
C315 C 0.21332 0.43531 0.9238 0.0
C316 C 0.20426 0.49053 0.92191 0.0
C317 C 0.19423 0.50795 0.92147 0.0
C318 C 0.20361 0.52599 0.92898 0.0
C319 C 0.2233 0.52693 0.9369 0.0
C320 C 0.23348 0.50946 0.9367 0.0
C321 C 0.22403 0.49142 0.92925 0.0
C322 C 0.19604 0.45992 0.88835 0.0
C323 C 0.18282 0.44597 0.87772 0.0
C324 C 0.18662 0.43897 0.85869 0.0
C325 C 0.20385 0.4457 0.84995 0.0
C326 C 0.21713 0.45968 0.86071 0.0
C327 C 0.21328 0.46669 0.87979 0.0
P328 P 0.7474 0.97177 0.44912 0.0
H329 H 0.76288 0.94886 0.41631 0.0
H330 H 0.75074 0.91832 0.39749 0.0
H331 H 0.69804 0.91669 0.43028 0.0
H332 H 0.71082 0.94678 0.44965 0.0
H333 H 0.76092 0.01335 0.45282 0.0
H334 H 0.74636 0.04336 0.44238 0.0
H335 H 0.69471 0.00819 0.41722 0.0
H336 H 0.70916 0.97832 0.42819 0.0
H337 H 0.75582 0.93938 0.47366 0.0
H338 H 0.73172 -0.00342 0.48105 0.0
O339 O 0.77171 0.97469 0.44675 0.0
H340 H 0.75369 0.93502 0.50891 0.0
H341 H 0.72939 0.99223 0.51624 0.0
C342 C 0.73783 0.94991 0.43449 0.0
C343 C 0.74874 0.94189 0.41947 0.0
C344 C 0.74167 0.9245 0.40859 0.0
C345 C 0.72341 0.91495 0.41238 0.0
C346 C 0.71233 0.92339 0.4272 0.0
C347 C 0.71953 0.94067 0.4382 0.0
C348 C 0.73631 0.99357 0.44098 0.0
C349 C 0.7465 0.0121 0.44497 0.0
C350 C 0.73818 0.02923 0.43892 0.0
C351 C 0.71944 0.02817 0.42876 0.0
C352 C 0.70911 0.00955 0.4251 0.0
C353 C 0.71744 0.99241 0.43124 0.0
C354 C 0.74385 0.96822 0.47471 0.0
C355 C 0.74981 0.95087 0.48283 0.0
C356 C 0.7485 0.94836 0.50295 0.0
C357 C 0.74136 0.96328 0.51536 0.0
C358 C 0.73511 0.98055 0.50709 0.0
C359 C 0.73637 0.98301 0.48692 0.0
P360 P 0.66091 0.01216 0.06648 0.0
H361 H 0.66714 0.0201 0.02512 0.0
H362 H 0.66865 0.05084 0.00793 0.0
H363 H 0.66234 0.08431 0.06297 0.0
H364 H 0.66135 0.05368 0.08018 0.0
H365 H 0.64566 0.97111 0.06083 0.0
H366 H 0.65809 0.94166 0.04495 0.0
H367 H 0.71019 0.97622 0.03029 0.0
H368 H 0.69731 0.00593 0.04593 0.0
H369 H 0.64451 0.02349 0.10389 0.0
H370 H 0.70111 0.00843 0.08387 0.0
O371 O 0.63649 0.008 0.06726 0.0
H372 H 0.65843 0.02657 0.13796 0.0
H373 H 0.71514 0.01148 0.11798 0.0
C374 C 0.66482 0.03463 0.05407 0.0
C375 C 0.6667 0.03406 0.03361 0.0
C376 C 0.66743 0.0516 0.02377 0.0
C377 C 0.66565 0.06988 0.03417 0.0
C378 C 0.66373 0.07038 0.05463 0.0
C379 C 0.66334 0.0529 0.06449 0.0
C380 C 0.67034 0.99078 0.05416 0.0
C381 C 0.65968 0.97244 0.05406 0.0
C382 C 0.66694 0.95553 0.04518 0.0
C383 C 0.68519 0.95655 0.03641 0.0
C384 C 0.696 0.97498 0.03672 0.0
C385 C 0.68866 0.99194 0.04564 0.0
C386 C 0.67164 0.01525 0.0914 0.0
C387 C 0.65994 0.02086 0.10682 0.0
C388 C 0.66796 0.02281 0.12627 0.0
C389 C 0.68786 0.01918 0.13063 0.0
C390 C 0.6997 0.01413 0.11506 0.0
C391 C 0.69168 0.01234 0.09557 0.0
P392 P 0.5209 0.3482 0.52138 0.0
H393 H 0.5313 0.37626 0.5551 0.0
H394 H 0.55406 0.37542 0.58409 0.0
H395 H 0.57485 0.32046 0.56015 0.0
H396 H 0.55122 0.3209 0.53182 0.0
H397 H 0.54396 0.36342 0.49038 0.0
H398 H 0.55713 0.34791 0.46112 0.0
H399 H 0.53122 0.29108 0.47534 0.0
H400 H 0.51864 0.30674 0.50509 0.0
H401 H 0.50467 0.34404 0.56 0.0
H402 H 0.4863 0.328 0.49899 0.0
O403 O 0.51648 0.37145 0.51669 0.0
H404 H 0.4726 0.33163 0.56992 0.0
H405 H 0.45411 0.3151 0.50905 0.0
C406 C 0.53971 0.34876 0.54122 0.0
C407 C 0.54096 0.36417 0.556 0.0
C408 C 0.55408 0.3637 0.57255 0.0
C409 C 0.56636 0.34786 0.57454 0.0
C410 C 0.56542 0.33273 0.55932 0.0
C411 C 0.55205 0.33306 0.54294 0.0
C412 C 0.52978 0.33634 0.49952 0.0
C413 C 0.54096 0.34765 0.48711 0.0
C414 C 0.54844 0.33875 0.47035 0.0
C415 C 0.54496 0.31828 0.46568 0.0
C416 C 0.53417 0.30687 0.47849 0.0
C417 C 0.52676 0.31583 0.49537 0.0
C418 C 0.49817 0.33651 0.52875 0.0
C419 C 0.49396 0.33749 0.54872 0.0
C420 C 0.47554 0.33049 0.55442 0.0
C421 C 0.46095 0.32237 0.54025 0.0
C422 C 0.46523 0.32108 0.52027 0.0
C423 C 0.48362 0.32838 0.51454 0.0
P424 P 0.08943 0.65346 -0.00447 0.0
H425 H 0.06142 0.62713 0.01402 0.0
H426 H 0.04388 0.63068 0.04421 0.0
H427 H 0.07055 0.69017 0.05544 0.0
H428 H 0.08748 0.68667 0.02476 0.0
H429 H 0.05944 0.6371 0.96567 0.0
H430 H 0.04188 0.65121 0.93812 0.0
H431 H 0.07222 0.70829 0.95462 0.0
H432 H 0.08904 0.69413 0.9828 0.0
H433 H 0.11721 0.65791 0.03035 0.0
H434 H 0.11753 0.67016 0.96886 0.0
O435 O 0.09057 0.62933 0.98957 0.0
H436 H 0.15162 0.67089 0.03548 0.0
H437 H 0.15198 0.68307 0.97387 0.0
C438 C 0.07613 0.65646 0.01748 0.0
C439 C 0.06349 0.64093 0.02299 0.0
C440 C 0.05353 0.64296 0.04032 0.0
C441 C 0.056 0.66061 0.05243 0.0
C442 C 0.06821 0.67641 0.04644 0.0
C443 C 0.07805 0.67439 0.02901 0.0
C444 C 0.07603 0.66442 0.97582 0.0
C445 C 0.06231 0.65265 0.96335 0.0
C446 C 0.05235 0.66075 0.94753 0.0
C447 C 0.05595 0.68082 0.94383 0.0
C448 C 0.06908 0.6928 0.95698 0.0
C449 C 0.07887 0.68468 0.97298 0.0
C450 C 0.11452 0.66386 -0.00059 0.0
C451 C 0.12457 0.66368 0.01801 0.0
C452 C 0.14432 0.67089 0.02088 0.0
C453 C 0.15444 0.67819 0.00511 0.0
C454 C 0.14444 0.67794 0.98639 0.0
C455 C 0.12472 0.67062 0.98353 0.0
P456 P 0.92304 0.18941 0.46486 0.0
H457 H 0.9616 0.1778 0.45345 0.0
H458 H 0.98266 0.18771 0.42726 0.0
H459 H 0.93886 0.22697 0.40742 0.0
H460 H 0.91821 0.21738 0.43383 0.0
H461 H 0.92296 0.1797 0.50609 0.0
H462 H 0.93508 0.19796 0.53699 0.0
H463 H 0.95266 0.24824 0.50437 0.0
H464 H 0.94089 0.22971 0.47355 0.0
H465 H 0.89286 0.16523 0.44077 0.0
H466 H 0.89765 0.22224 0.47301 0.0
O467 O 0.92518 0.16536 0.46786 0.0
H468 H 0.85909 0.17089 0.42907 0.0
H469 H 0.86374 0.22792 0.46158 0.0
C470 C 0.93819 0.19653 0.44533 0.0
C471 C 0.95653 0.18846 0.44338 0.0
C472 C 0.96851 0.1941 0.42838 0.0
C473 C 0.96238 0.20805 0.41518 0.0
C474 C 0.94409 0.21631 0.41742 0.0
C475 C 0.93216 0.21068 0.43243 0.0
C476 C 0.93142 0.20321 0.48754 0.0
C477 C 0.9295 0.19463 0.50561 0.0
C478 C 0.9363 0.20514 0.52327 0.0
C479 C 0.94499 0.22451 0.52314 0.0
C480 C 0.94642 0.23321 0.50496 0.0
C481 C 0.93964 0.22266 0.48732 0.0
C482 C 0.89758 0.1931 0.4581 0.0
C483 C 0.8865 0.17882 0.44562 0.0
C484 C 0.8672 0.18208 0.43895 0.0
C485 C 0.8587 0.19981 0.44449 0.0
C486 C 0.86991 0.21415 0.45698 0.0
C487 C 0.88923 0.21083 0.46369 0.0
P488 P 0.45683 0.76163 0.98118 0.0
H489 H 0.44485 0.78315 0.94697 0.0
H490 H 0.42794 0.77255 0.91502 0.0
H491 H 0.42258 0.71239 0.93275 0.0
H492 H 0.43989 0.72306 0.9645 0.0
H493 H 0.42569 0.77315 0.00623 0.0
H494 H 0.40913 0.75699 0.03246 0.0
H495 H 0.44553 0.70731 0.02519 0.0
H496 H 0.46205 0.72362 -0.00119 0.0
H497 H 0.48089 0.74809 0.94894 0.0
H498 H 0.48924 0.76417 0.01137 0.0
O499 O 0.45607 0.78609 0.98524 0.0
H500 H 0.51621 0.74415 0.94747 0.0
H501 H 0.52471 0.76001 0.01003 0.0
C502 C 0.44326 0.75395 0.95823 0.0
C503 C 0.43984 0.76772 0.94406 0.0
C504 C 0.43013 0.76165 0.92582 0.0
C505 C 0.42382 0.74165 0.92139 0.0
C506 C 0.42737 0.72788 0.93566 0.0
C507 C 0.43709 0.73399 0.95389 0.0
C508 C 0.44537 0.74977 0.00092 0.0
C509 C 0.43025 0.75888 0.01041 0.0
C510 C 0.42081 0.74963 0.0254 0.0
C511 C 0.42617 0.73096 0.03099 0.0
C512 C 0.44108 0.72167 0.02116 0.0
C513 C 0.45062 0.73103 0.00622 0.0
C514 C 0.4824 0.75626 0.98034 0.0
C515 C 0.49023 0.75043 0.96243 0.0
C516 C 0.51048 0.74811 0.9616 0.0
C517 C 0.52326 0.75178 0.97863 0.0
C518 C 0.51526 0.75725 -0.00337 0.0
C519 C 0.495 0.75951 -0.00256 0.0
P520 P 0.51796 0.52264 0.34656 0.0
H521 H 0.52959 0.5578 0.37265 0.0
H522 H 0.55607 0.58386 0.37208 0.0
H523 H 0.57426 0.55643 0.31756 0.0
H524 H 0.54714 0.53132 0.31772 0.0
H525 H 0.47683 0.51662 0.35611 0.0
H526 H 0.44598 0.52731 0.34127 0.0
H527 H 0.47831 0.55503 0.2963 0.0
H528 H 0.50911 0.54382 0.31101 0.0
H529 H 0.55594 0.50488 0.34727 0.0
H530 H 0.49675 0.48979 0.32203 0.0
O531 O 0.5146 0.51896 0.3702 0.0
H532 H 0.56675 0.47381 0.33282 0.0
H533 H 0.50747 0.45836 0.3079 0.0
C534 C 0.53683 0.54232 0.34556 0.0
C535 C 0.53926 0.55752 0.36055 0.0
C536 C 0.55447 0.57236 0.36024 0.0
C537 C 0.56751 0.57219 0.3449 0.0
C538 C 0.56445 0.55725 0.32952 0.0
C539 C 0.54909 0.54264 0.32973 0.0
C540 C 0.49527 0.52984 0.33493 0.0
C541 C 0.47728 0.52501 0.34307 0.0
C542 C 0.45967 0.53119 0.3346 0.0
C543 C 0.45973 0.54229 0.31777 0.0
C544 C 0.47776 0.54649 0.30923 0.0
C545 C 0.49539 0.54023 0.31772 0.0
C546 C 0.52569 0.49993 0.33523 0.0
C547 C 0.54533 0.49502 0.33838 0.0
C548 C 0.5515 0.47728 0.33013 0.0
C549 C 0.53799 0.46385 0.31904 0.0
C550 C 0.51818 0.46855 0.31629 0.0
C551 C 0.51208 0.48651 0.3243 0.0
P552 P -0.00269 0.09883 0.64422 0.0
H553 H 0.00537 0.0585 0.63213 0.0
H554 H 0.03481 0.03954 0.63568 0.0
H555 H 0.06628 0.09001 0.66763 0.0
H556 H 0.03697 0.10886 0.66398 0.0
H557 H 0.9551 0.09682 0.63356 0.0
H558 H 0.92653 0.08095 0.64791 0.0
H559 H 0.96517 0.05945 0.69351 0.0
H560 H 0.99373 0.07565 0.67915 0.0
H561 H 0.00028 0.13706 0.62631 0.0
H562 H 0.00259 0.11579 0.68486 0.0
O563 O 0.99214 0.09899 0.61993 0.0
H564 H 0.00555 0.17117 0.64038 0.0
H565 H 0.00795 0.14993 0.69904 0.0
C566 C 0.01892 0.08503 0.64785 0.0
C567 C 0.0186 0.06543 0.63996 0.0
C568 C 0.03543 0.05466 0.64192 0.0
C569 C 0.05284 0.06331 0.65193 0.0
C570 C 0.05301 0.0829 0.66004 0.0
C571 C 0.03622 0.09371 0.65793 0.0
C572 C 0.97652 0.08698 0.65501 0.0
C573 C 0.95744 0.0886 0.64657 0.0
C574 C 0.94113 0.07949 0.65478 0.0
C575 C 0.94362 0.06874 0.67171 0.0
C576 C 0.96278 0.06765 0.68048 0.0
C577 C 0.97911 0.07675 0.67221 0.0
C578 C 0.00099 0.12393 0.65457 0.0
C579 C 0.00185 0.13972 0.6422 0.0
C580 C 0.0048 0.15921 0.65024 0.0
C581 C 0.00715 0.16318 0.67079 0.0
C582 C 0.00634 0.14728 0.68315 0.0
C583 C 0.00317 0.12781 0.67508 0.0
P584 P 0.45765 0.92839 0.22741 0.0
H585 H 0.42457 0.93975 0.20276 0.0
H586 H 0.39395 0.95472 0.21003 0.0
H587 H 0.41389 0.96229 0.2718 0.0
H588 H 0.44398 0.94606 0.26442 0.0
H589 H 0.48942 0.9043 0.24078 0.0
H590 H 0.5208 0.91244 0.25978 0.0
H591 H 0.50576 0.97321 0.26815 0.0
H592 H 0.47428 0.96496 0.2491 0.0
H593 H 0.44412 0.89894 0.19562 0.0
H594 H 0.4507 0.90213 0.25919 0.0
O595 O 0.46426 0.93324 0.20486 0.0
H596 H 0.4299 0.865 0.19551 0.0
H597 H 0.43693 0.86787 0.25925 0.0
C598 C 0.43681 0.94238 0.23295 0.0
C599 C 0.42249 0.94497 0.21782 0.0
C600 C 0.40497 0.95362 0.22202 0.0
C601 C 0.4014 0.95994 0.24151 0.0
C602 C 0.41598 0.95748 0.25664 0.0
C603 C 0.43339 0.94849 0.25243 0.0
C604 C 0.47919 0.93388 0.24407 0.0
C605 C 0.49259 0.91927 0.24713 0.0
C606 C 0.51063 0.92397 0.25785 0.0
C607 C 0.5157 0.94344 0.26554 0.0
C608 C 0.5021 0.958 0.26273 0.0
C609 C 0.48409 0.95329 0.25186 0.0
C610 C 0.4489 0.90283 0.22739 0.0
C611 C 0.44285 0.89218 0.20955 0.0
C612 C 0.43474 0.87275 0.20952 0.0
C613 C 0.43241 0.86364 0.22737 0.0
C614 C 0.4384 0.87447 0.24525 0.0
C615 C 0.44646 0.89396 0.24525 0.0
P616 P 0.98956 0.44545 0.75625 0.0
H617 H 0.95699 0.42757 0.77677 0.0
H618 H 0.92425 0.41302 0.76528 0.0
H619 H 0.93714 0.42364 0.70517 0.0
H620 H 0.96972 0.43868 0.71691 0.0
H621 H 0.02894 0.46263 0.75001 0.0
H622 H 0.0567 0.45004 0.73282 0.0
H623 H 0.02148 0.39602 0.71493 0.0
H624 H -0.00619 0.40865 0.73218 0.0
H625 H 0.9817 0.47631 0.786 0.0
H626 H 0.99246 0.47211 0.72409 0.0
O627 O -0.00529 0.44013 0.77957 0.0
H628 H 0.97784 0.51178 0.78456 0.0
H629 H 0.98896 0.50775 0.72257 0.0
C630 C 0.96588 0.43383 0.74762 0.0
C631 C 0.95283 0.42663 0.76111 0.0
C632 C 0.93412 0.41825 0.75451 0.0
C633 C 0.92811 0.41704 0.73429 0.0
C634 C 0.94124 0.42448 0.72085 0.0
C635 C 0.95991 0.43293 0.7275 0.0
C636 C 0.00913 0.43683 0.7419 0.0
C637 C 0.02708 0.44822 0.74211 0.0
C638 C 0.04297 0.44095 0.73242 0.0
C639 C 0.04121 0.42208 0.72245 0.0
C640 C 0.02315 0.41074 0.72219 0.0
C641 C 0.00731 0.41798 0.73203 0.0
C642 C 0.98782 0.47172 0.75526 0.0
C643 C 0.98351 0.48309 0.77215 0.0
C644 C 0.98133 0.50338 0.77131 0.0
C645 C 0.98325 0.51262 0.75348 0.0
C646 C 0.98729 0.50106 0.73649 0.0
C647 C 0.98947 0.48075 0.73737 0.0
P648 P 0.71885 0.45844 0.4558 0.0
H649 H 0.68461 0.4492 0.42679 0.0
H650 H 0.67201 0.41816 0.40878 0.0
H651 H 0.72142 0.38888 0.43412 0.0
H652 H 0.73411 0.41988 0.45129 0.0
H653 H 0.73706 0.49128 0.43619 0.0
H654 H 0.72554 0.5231 0.42721 0.0
H655 H 0.66836 0.50737 0.44842 0.0
H656 H 0.68015 0.47539 0.4578 0.0
H657 H 0.73205 0.47923 0.49342 0.0
H658 H 0.69248 0.42894 0.47322 0.0
O659 O 0.74347 0.46053 0.45577 0.0
H660 H 0.72866 0.47084 0.52761 0.0
H661 H 0.68979 0.41993 0.50701 0.0
C662 C 0.71051 0.4369 0.44007 0.0
C663 C 0.69293 0.43619 0.42806 0.0
C664 C 0.68565 0.41837 0.41791 0.0
C665 C 0.69576 0.40098 0.41983 0.0
C666 C 0.71348 0.402 0.43177 0.0
C667 C 0.72076 0.41975 0.44171 0.0
C668 C 0.7095 0.48109 0.44785 0.0
C669 C 0.72204 0.49459 0.43894 0.0
C670 C 0.71547 0.5128 0.43384 0.0
C671 C 0.69614 0.51771 0.43731 0.0
C672 C 0.68333 0.50388 0.44561 0.0
C673 C 0.69004 0.4857 0.45098 0.0
C674 C 0.7129 0.45449 0.48077 0.0
C675 C 0.72246 0.46653 0.49636 0.0
C676 C 0.72062 0.46161 0.51587 0.0
C677 C 0.70925 0.44447 0.52008 0.0
C678 C 0.6986 0.43327 0.50441 0.0
C679 C 0.70031 0.43831 0.48495 0.0
P680 P 0.70769 0.53479 0.08318 0.0
H681 H 0.68935 0.54911 0.04733 0.0
H682 H 0.697 0.57789 0.02852 0.0
H683 H 0.74948 0.59277 0.06695 0.0
H684 H 0.7421 0.56362 0.08519 0.0
H685 H 0.71244 0.49844 0.10315 0.0
H686 H 0.71965 0.46515 0.09107 0.0
H687 H 0.73137 0.48705 0.03426 0.0
H688 H 0.72381 0.5202 0.04635 0.0
H689 H 0.6859 0.55434 0.11341 0.0
H690 H 0.74426 0.53357 0.1084 0.0
O691 O 0.68315 0.53081 0.08056 0.0
H692 H 0.69538 0.56831 0.14677 0.0
H693 H 0.75397 0.54778 0.14192 0.0
C694 C 0.71483 0.55455 0.068 0.0
C695 C 0.70259 0.55848 0.05159 0.0
C696 C 0.70695 0.57498 0.04089 0.0
C697 C 0.72366 0.58785 0.04645 0.0
C698 C 0.73652 0.58317 0.06223 0.0
C699 C 0.73219 0.56657 0.07283 0.0
C700 C 0.71787 0.51185 0.07576 0.0
C701 C 0.71713 0.49618 0.08828 0.0
C702 C 0.72127 0.47714 0.08135 0.0
C703 C 0.726 0.47343 0.06166 0.0
C704 C 0.72758 0.4894 0.04943 0.0
C705 C 0.72343 0.50842 0.05639 0.0
C706 C 0.71428 0.54263 0.10859 0.0
C707 C 0.70066 0.55244 0.11964 0.0
C708 C 0.70609 0.56043 0.13871 0.0
C709 C 0.72538 0.55905 0.14696 0.0
C710 C 0.73901 0.54907 0.13589 0.0
C711 C 0.73345 0.54085 0.11685 0.0
P712 P 0.30972 0.03406 0.5407 0.0
H713 H 0.29445 0.05041 0.57777 0.0
H714 H 0.28571 0.08395 0.58814 0.0
H715 H 0.29832 0.10338 0.53059 0.0
H716 H 0.30718 0.07018 0.52049 0.0
H717 H 0.3307 0.00175 0.55625 0.0
H718 H 0.31962 0.97135 0.5708 0.0
H719 H 0.25998 0.99018 0.56942 0.0
H720 H 0.27126 0.02087 0.55477 0.0
H721 H 0.32808 0.01422 0.50778 0.0
H722 H 0.27226 0.03856 0.51856 0.0
O723 O 0.33437 0.03665 0.54215 0.0
H724 H 0.3166 0.00551 0.47341 0.0
H725 H 0.26089 0.03061 0.4841 0.0
C726 C 0.30104 0.05773 0.54821 0.0
C727 C 0.29498 0.06183 0.56732 0.0
C728 C 0.29001 0.08098 0.57322 0.0
C729 C 0.2914 0.0963 0.56019 0.0
C730 C 0.29729 0.09196 0.54104 0.0
C731 C 0.30218 0.07293 0.53518 0.0
C732 C 0.30188 0.01374 0.55481 0.0
C733 C 0.31532 -0.00038 0.55946 0.0
C734 C 0.30894 0.98213 0.56759 0.0
C735 C 0.28892 0.97835 0.5711 0.0
C736 C 0.27552 0.9928 0.567 0.0
C737 C 0.28194 0.01032 0.5587 0.0
C738 C 0.30119 0.02749 0.5155 0.0
C739 C 0.31341 0.01786 0.50268 0.0
C740 C 0.30685 0.01295 0.48302 0.0
C741 C 0.28789 0.01754 0.47592 0.0
C742 C 0.27551 0.02671 0.48908 0.0
C743 C 0.28205 0.03147 0.50874 0.0
P744 P 0.26074 0.97922 0.92658 0.0
H745 H 0.28131 0.97567 0.96517 0.0
H746 H 0.29675 0.94799 0.98008 0.0
H747 H 0.28561 0.91266 0.92511 0.0
H748 H 0.27029 0.94034 0.91027 0.0
H749 H 0.2397 0.01409 0.93678 0.0
H750 H 0.25058 0.04769 0.94936 0.0
H751 H 0.31139 0.03223 0.9498 0.0
H752 H 0.30032 -0.00148 0.93698 0.0
H753 H 0.23204 0.9626 0.89536 0.0
H754 H 0.28997 0.993 0.89951 0.0
O755 O 0.2376 0.97469 0.93289 0.0
H756 H 0.23178 0.96147 0.8594 0.0
H757 H 0.28988 0.99179 0.86345 0.0
C758 C 0.27511 0.96026 0.93646 0.0
C759 C 0.2827 0.96217 0.95616 0.0
C760 C 0.29148 0.94634 0.96468 0.0
C761 C 0.29239 0.9282 0.95373 0.0
C762 C 0.28505 0.92646 0.9339 0.0
C763 C 0.27643 0.94234 0.92537 0.0
C764 C 0.26918 0.00372 0.9364 0.0
C765 C 0.25536 0.01785 0.93975 0.0
C766 C 0.2616 0.03705 0.94698 0.0
C767 C 0.28183 0.04255 0.95078 0.0
C768 C 0.29571 0.02844 0.94699 0.0
C769 C 0.28941 0.00916 0.93981 0.0
C770 C 0.26084 0.97826 0.90009 0.0
C771 C 0.2447 0.96908 0.88853 0.0
C772 C 0.24464 0.96828 0.86797 0.0
C773 C 0.26079 0.9766 0.85859 0.0
C774 C 0.27711 0.9855 0.87026 0.0
C775 C 0.27718 0.9862 0.89086 0.0
P776 P 0.46527 0.70357 0.45127 0.0
H777 H 0.45911 0.7192 0.41306 0.0
H778 H 0.43962 0.70738 0.38312 0.0
H779 H 0.416 0.65739 0.41287 0.0
H780 H 0.43611 0.66925 0.44294 0.0
H781 H 0.44539 0.72538 0.48148 0.0
H782 H 0.43406 0.71706 0.51347 0.0
H783 H 0.45304 0.65782 0.50392 0.0
H784 H 0.46488 0.66641 0.47173 0.0
H785 H 0.4805 0.67441 0.42291 0.0
H786 H 0.50379 0.71554 0.47072 0.0
O787 O 0.46724 0.72827 0.45197 0.0
H788 H 0.51377 0.67069 0.4123 0.0
H789 H 0.53731 0.71145 0.46047 0.0
C790 C 0.44869 0.6954 0.43036 0.0
C791 C 0.44945 0.70591 0.41331 0.0
C792 C 0.43823 0.69913 0.39617 0.0
C793 C 0.42598 0.68158 0.39565 0.0
C794 C 0.42525 0.67097 0.4128 0.0
C795 C 0.4366 0.67782 0.43004 0.0
C796 C 0.45627 0.6966 0.47439 0.0
C797 C 0.44725 0.71061 0.48622 0.0
C798 C 0.44077 0.70587 0.50452 0.0
C799 C 0.44287 0.68688 0.5112 0.0
C800 C 0.4513 0.67257 0.49906 0.0
C801 C 0.45809 0.67747 0.48077 0.0
C802 C 0.48963 0.69562 0.44737 0.0
C803 C 0.4928 0.68222 0.4315 0.0
C804 C 0.51192 0.67998 0.4255 0.0
C805 C 0.52816 0.69107 0.43531 0.0
C806 C 0.52505 0.703 0.45237 0.0
C807 C 0.50592 0.70526 0.45832 0.0
P808 P 0.92737 0.25745 0.97552 0.0
H809 H 0.96315 0.24921 0.95578 0.0
H810 H 0.97986 0.26491 0.92933 0.0
H811 H 0.93684 0.3093 0.92856 0.0
H812 H 0.92037 0.29365 0.95523 0.0
H813 H 0.92808 0.23833 0.0126 0.0
H814 H 0.94107 0.24904 0.04607 0.0
H815 H 0.95993 0.30603 0.02597 0.0
H816 H 0.94662 0.29527 0.99252 0.0
H817 H 0.89697 0.23865 0.94759 0.0
H818 H 0.90071 0.28374 -0.00459 0.0
O819 O 0.93069 0.23331 0.97236 0.0
H820 H 0.86147 0.24222 0.94267 0.0
H821 H 0.86522 0.28765 0.99039 0.0
C822 C 0.94029 0.27001 0.9571 0.0
C823 C 0.95736 0.26235 0.94995 0.0
C824 C 0.96685 0.2713 0.93481 0.0
C825 C 0.95951 0.28819 0.9267 0.0
C826 C 0.94287 0.29633 0.93454 0.0
C827 C 0.93336 0.28731 0.94967 0.0
C828 C 0.93682 0.26583 4e-05 0.0
C829 C 0.93508 0.2531 0.01539 0.0
C830 C 0.94255 0.25922 0.03449 0.0
C831 C 0.95173 0.2783 0.03861 0.0
C832 C 0.95289 0.29127 0.02326 0.0
C833 C 0.94545 0.28508 0.00411 0.0
C834 C 0.90133 0.26058 0.97213 0.0
C835 C 0.89012 0.24932 0.95703 0.0
C836 C 0.86987 0.25153 0.95411 0.0
C837 C 0.86051 0.26519 0.96618 0.0
C838 C 0.87195 0.2768 0.98104 0.0
C839 C 0.89223 0.27457 0.98393 0.0
P840 P 0.08643 0.7086 0.52974 0.0
H841 H 0.07809 0.68359 0.56171 0.0
H842 H 0.06085 0.68858 0.59177 0.0
H843 H 0.04513 0.74605 0.57405 0.0
H844 H 0.06311 0.74109 0.54408 0.0
H845 H 0.10565 0.72651 0.49719 0.0
H846 H 0.09276 0.73519 0.46471 0.0
H847 H 0.03324 0.72122 0.4811 0.0
H848 H 0.04623 0.71278 0.51358 0.0
H849 H 0.12319 0.68999 0.53894 0.0
H850 H 0.10302 0.74908 0.53973 0.0
O851 O 0.08713 0.68441 0.52386 0.0
H852 H 0.15517 0.7029 0.55395 0.0
H853 H 0.13532 0.76228 0.55464 0.0
C854 C 0.07138 0.71172 0.55043 0.0
C855 C 0.07062 0.69711 0.56409 0.0
C856 C 0.06069 0.69998 0.58129 0.0
C857 C 0.05136 0.71763 0.58526 0.0
C858 C 0.05218 0.73231 0.57148 0.0
C859 C 0.06225 0.72942 0.55425 0.0
C860 C 0.07687 0.71947 0.50797 0.0
C861 C 0.0898 0.72592 0.49402 0.0
C862 C 0.08243 0.73069 0.47539 0.0
C863 C 0.06198 0.72886 0.47032 0.0
C864 C 0.04904 0.7231 0.48464 0.0
C865 C 0.05644 0.71828 0.50324 0.0
C866 C 0.11084 0.71862 0.53801 0.0
C867 C 0.12579 0.70582 0.54195 0.0
C868 C 0.14413 0.71325 0.55051 0.0
C869 C 0.14784 0.73365 0.55543 0.0
C870 C 0.13288 0.7465 0.55113 0.0
C871 C 0.1145 0.73901 0.54249 0.0
P872 P 0.51913 0.28458 0.02101 0.0
H873 H 0.53034 0.31277 0.05442 0.0
H874 H 0.5439 0.3091 0.0878 0.0
H875 H 0.54492 0.24593 0.07489 0.0
H876 H 0.53226 0.24999 0.04099 0.0
H877 H 0.50505 0.26787 0.98162 0.0
H878 H 0.52254 0.25634 0.9534 0.0
H879 H 0.57724 0.26072 0.98976 0.0
H880 H 0.5597 0.27311 0.01778 0.0
H881 H 0.48563 0.29751 -0.0025 0.0
H882 H 0.49493 0.25688 0.04308 0.0
O883 O 0.52201 0.30845 0.01637 0.0
H884 H 0.44997 0.29039 -0.00228 0.0
H885 H 0.4594 0.25042 0.0441 0.0
C886 C 0.53045 0.28168 0.0452 0.0
C887 C 0.53374 0.29816 0.05866 0.0
C888 C 0.5413 0.29598 0.07787 0.0
C889 C 0.54532 0.27717 0.08419 0.0
C890 C 0.54221 0.26066 0.07052 0.0
C891 C 0.5349 0.26293 0.05116 0.0
C892 C 0.53097 0.27106 0.00195 0.0
C893 C 0.5207 0.26586 0.98372 0.0
C894 C 0.53075 0.25917 0.96753 0.0
C895 C 0.55135 0.25765 0.96925 0.0
C896 C 0.56143 0.26194 0.98784 0.0
C897 C 0.55136 0.2688 0.00397 0.0
C898 C 0.49297 0.27802 0.02049 0.0
C899 C 0.48001 0.28709 0.0076 0.0
C900 C 0.4596 0.28308 0.00783 0.0
C901 C 0.45174 0.27001 0.02112 0.0
C902 C 0.46488 0.26043 0.03355 0.0
C903 C 0.4853 0.26429 0.03313 0.0
P904 P 0.45717 0.45395 0.71953 0.0
H905 H 0.43034 0.42614 0.73782 0.0
H906 H 0.4008 0.40605 0.72496 0.0
H907 H 0.4098 0.42522 0.66651 0.0
H908 H 0.43965 0.44509 0.67949 0.0
H909 H 0.49228 0.48017 0.71539 0.0
H910 H 0.52449 0.47425 0.70269 0.0
H911 H 0.50408 0.41361 0.68582 0.0
H912 H 0.47187 0.4198 0.69802 0.0
H913 H 0.4344 0.47755 0.74568 0.0
H914 H 0.45944 0.48328 0.68934 0.0
O915 O 0.46211 0.45003 0.74326 0.0
H916 H 0.42008 0.50954 0.74306 0.0
H917 H 0.44523 0.51554 0.68669 0.0
C918 C 0.43722 0.43697 0.70956 0.0
C919 C 0.4262 0.42573 0.72218 0.0
C920 C 0.40924 0.41434 0.71483 0.0
C921 C 0.40293 0.41413 0.69474 0.0
C922 C 0.41442 0.42489 0.682 0.0
C923 C 0.4314 0.43631 0.6894 0.0
C924 C 0.47951 0.45059 0.70715 0.0
C925 C 0.49458 0.46577 0.70842 0.0
C926 C 0.51306 0.4623 0.70136 0.0
C927 C 0.51688 0.44345 0.69321 0.0
C928 C 0.50155 0.4284 0.69162 0.0
C929 C 0.48308 0.43192 0.69864 0.0
C930 C 0.44846 0.47835 0.71799 0.0
C931 C 0.43707 0.48585 0.73287 0.0
C932 C 0.42873 0.50403 0.73127 0.0
C933 C 0.43157 0.51502 0.71467 0.0
C934 C 0.44301 0.50747 0.69974 0.0
C935 C 0.45119 0.48912 0.70127 0.0
P936 P 0.96735 0.9363 0.23736 0.0
H937 H 0.93357 0.95862 0.22594 0.0
H938 H 0.90568 0.96934 0.24348 0.0
H939 H 0.93204 0.94929 0.29761 0.0
H940 H 0.95941 0.93732 0.27945 0.0
H941 H 0.0018 0.93643 0.21437 0.0
H942 H 0.03628 0.9483 0.2215 0.0
H943 H 0.02212 0.97162 0.27911 0.0
H944 H 0.98755 0.9597 0.27185 0.0
H945 H 0.94574 0.90135 0.21785 0.0
H946 H 0.98817 0.91453 0.26732 0.0
O947 O 0.96147 0.93815 0.21338 0.0
H948 H 0.94619 0.86608 0.22309 0.0
H949 H 0.98836 0.87925 0.27301 0.0
C950 C 0.94865 0.94723 0.25138 0.0
C951 C 0.93351 0.95669 0.24162 0.0
C952 C 0.91755 0.96301 0.25179 0.0
C953 C 0.91648 0.96028 0.27208 0.0
C954 C 0.93213 0.95141 0.28197 0.0
C955 C 0.94796 0.94477 0.27165 0.0
C956 C 0.99203 0.94742 0.24244 0.0
C957 C 0.00602 0.94442 0.2284 0.0
C958 C 0.02574 0.95124 0.23248 0.0
C959 C 0.0319 0.96097 0.25083 0.0
C960 C 0.0178 0.96408 0.26487 0.0
C961 C -0.002 0.95736 0.26069 0.0
C962 C 0.96727 0.91046 0.24189 0.0
C963 C 0.95512 0.89664 0.22988 0.0
C964 C 0.95524 0.87648 0.23304 0.0
C965 C 0.96738 0.86983 0.24843 0.0
C966 C 0.9791 0.88386 0.26083 0.0
C967 C 0.97898 0.90403 0.25761 0.0
P968 P 0.53275 0.08339 0.70937 0.0
H969 H 0.55475 0.05839 0.68317 0.0
H970 H 0.58216 0.03784 0.68938 0.0
H971 H 0.57558 0.04586 0.7522 0.0
H972 H 0.54871 0.0675 0.74576 0.0
H973 H 0.49516 0.09663 0.69467 0.0
H974 H 0.4609 0.08509 0.69819 0.0
H975 H 0.4806 0.04206 0.73811 0.0
H976 H 0.51489 0.05351 0.7343 0.0
H977 H 0.57258 0.09883 0.72304 0.0
H978 H 0.51341 0.11858 0.7243 0.0
O979 O 0.5329 0.08798 0.68554 0.0
H980 H 0.58589 0.13092 0.73736 0.0
H981 H 0.52685 0.15106 0.73844 0.0
C982 C 0.54968 0.06449 0.714 0.0
C983 C 0.55893 0.05548 0.69828 0.0
C984 C 0.57461 0.04355 0.70188 0.0
C985 C 0.58124 0.04018 0.72134 0.0
C986 C 0.57112 0.04836 0.73705 0.0
C987 C 0.55557 0.06052 0.7334 0.0
C988 C 0.50763 0.07586 0.71407 0.0
C989 C 0.49211 0.08483 0.70434 0.0
C990 C 0.47251 0.0783 0.70646 0.0
C991 C 0.46801 0.0626 0.71839 0.0
C992 C 0.4836 0.05403 0.72863 0.0
C993 C 0.50325 0.06065 0.72653 0.0
C994 C 0.5419 0.106 0.72307 0.0
C995 C 0.56234 0.10982 0.72694 0.0
C996 C 0.57 0.12825 0.73512 0.0
C997 C 0.55741 0.14345 0.73916 0.0
C998 C 0.53689 0.13958 0.7355 0.0
C999 C 0.52919 0.12098 0.72752 0.0
P1000 P 0.0188 0.51855 0.29932 0.0
H1001 H 0.04498 0.54989 0.31992 0.0
H1002 H 0.077 0.56514 0.31259 0.0
H1003 H 0.07342 0.53142 0.25636 0.0
H1004 H 0.04113 0.51655 0.26364 0.0
H1005 H 0.97845 0.50142 0.2926 0.0
H1006 H 0.94724 0.5158 0.2842 0.0
H1007 H 0.97882 0.57184 0.27658 0.0
H1008 H 0.01007 0.55734 0.28519 0.0
H1009 H 0.03462 0.48623 0.32018 0.0
H1010 H 0.00698 0.49425 0.26274 0.0
O1011 O 0.01795 0.52097 0.32382 0.0
H1012 H 0.0377 0.4513 0.31084 0.0
H1013 H 0.0098 0.45909 0.25329 0.0
C1014 C 0.04093 0.53174 0.29253 0.0
C1015 C 0.05098 0.54591 0.30594 0.0
C1016 C 0.06932 0.55457 0.30176 0.0
C1017 C 0.07791 0.54923 0.28404 0.0
C1018 C 0.06721 0.53587 0.27012 0.0
C1019 C 0.04881 0.52724 0.27433 0.0
C1020 C -0.00339 0.52817 0.28908 0.0
C1021 C 0.97873 0.51664 0.28855 0.0
C1022 C 0.96087 0.52489 0.28373 0.0
C1023 C 0.96055 0.54496 0.27967 0.0
C1024 C 0.97859 0.55636 0.27972 0.0
C1025 C -0.00353 0.54804 0.28448 0.0
C1026 C 0.02015 0.49268 0.29232 0.0
C1027 C 0.02896 0.48039 0.30563 0.0
C1028 C 0.03068 0.46041 0.30028 0.0
C1029 C 0.02378 0.45238 0.2814 0.0
C1030 C 0.01526 0.46485 0.26793 0.0
C1031 C 0.0135 0.48488 0.27335 0.0
C1032 C 0.19234 0.56398 0.26594 0.0
C1033 C 0.20031 0.58323 0.27153 0.0
C1034 C 0.17194 0.55918 0.26594 0.0
C1035 C 0.1592 0.57399 0.27159 0.0
C1036 C 0.16701 0.59368 0.27617 0.0
C1037 C 0.18748 0.59806 0.27612 0.0
C1038 C 0.16419 0.538 0.26095 0.0
C1039 C 0.15388 0.60991 0.28211 0.0
C1040 C 0.10372 0.56248 0.26232 0.0
C1041 C 0.0985 0.55646 0.28081 0.0
C1042 C 0.12339 0.56853 0.25911 0.0
C1043 C 0.13813 0.56842 0.27472 0.0
C1044 C 0.13289 0.56252 0.29343 0.0
C1045 C 0.11317 0.55662 0.29623 0.0
C1046 C 0.12842 0.57484 0.239 0.0
C1047 C 0.14818 0.56208 0.31044 0.0
H1048 H 0.20212 0.55245 0.26228 0.0
H1049 H 0.19349 0.613 0.28033 0.0
H1050 H 0.15886 0.53148 0.2744 0.0
H1051 H 0.15143 0.5374 0.24991 0.0
H1052 H 0.17567 0.52871 0.25504 0.0
H1053 H 0.16184 0.62478 0.28302 0.0
H1054 H 0.14087 0.60992 0.27144 0.0
H1055 H 0.14823 0.60721 0.29676 0.0
H1056 H 0.09241 0.56252 0.25039 0.0
H1057 H 0.10932 0.55164 0.31045 0.0
H1058 H 0.13904 0.56483 0.23261 0.0
H1059 H 0.13574 0.59 0.24031 0.0
H1060 H 0.11516 0.57468 0.2286 0.0
H1061 H 0.15949 0.55164 0.3065 0.0
H1062 H 0.1416 0.55748 0.32415 0.0
H1063 H 0.15591 0.57694 0.31351 0.0
C1064 C 0.29561 0.36042 0.66639 0.0
C1065 C 0.2842 0.37482 0.65822 0.0
C1066 C 0.31621 0.36365 0.66953 0.0
C1067 C 0.32554 0.38169 0.6644 0.0
C1068 C 0.31437 0.39527 0.65423 0.0
C1069 C 0.2938 0.3917 0.65128 0.0
C1070 C 0.32774 0.34851 0.6798 0.0
C1071 C 0.3239 0.41437 0.64797 0.0
C1072 C 0.36694 0.40676 0.69844 0.0
C1073 C 0.38355 0.40416 0.68751 0.0
C1074 C 0.34816 0.39887 0.69131 0.0
C1075 C 0.34585 0.38805 0.67274 0.0
C1076 C 0.36269 0.38466 0.66198 0.0
C1077 C 0.38133 0.39295 0.66941 0.0
C1078 C 0.33066 0.40274 0.70339 0.0
C1079 C 0.36113 0.37302 0.64229 0.0
H1080 H 0.28836 0.34713 0.67145 0.0
H1081 H 0.28517 0.40271 0.64454 0.0
H1082 H 0.34167 0.34612 0.6725 0.0
H1083 H 0.3318 0.35405 0.69529 0.0
H1084 H 0.31908 0.33408 0.67995 0.0
H1085 H 0.31393 0.42179 0.63768 0.0
H1086 H 0.32778 0.42459 0.66118 0.0
H1087 H 0.33777 0.41161 0.64072 0.0
H1088 H 0.36851 0.41562 0.71232 0.0
H1089 H 0.39417 0.39076 0.66097 0.0
H1090 H 0.32235 0.38858 0.70582 0.0
H1091 H 0.32042 0.41198 0.69525 0.0
H1092 H 0.33512 0.41047 0.71798 0.0
H1093 H 0.34884 0.36139 0.64127 0.0
H1094 H 0.3751 0.36594 0.63946 0.0
H1095 H 0.35841 0.3833 0.63051 0.0
C1096 C 0.68319 0.9852 0.73507 0.0
C1097 C 0.69662 -0.0041 0.72419 0.0
C1098 C 0.66401 0.99136 0.73727 0.0
C1099 C 0.65803 0.00834 0.72796 0.0
C1100 C 0.67169 0.01941 0.71733 0.0
C1101 C 0.69086 0.01318 0.71576 0.0
C1102 C 0.65004 0.9795 0.74917 0.0
C1103 C 0.66582 0.03745 0.70695 0.0
C1104 C 0.6044 0.01416 0.71198 0.0
C1105 C 0.59967 0.02975 0.72504 0.0
C1106 C 0.6231 0.00643 0.7133 0.0
C1107 C 0.63727 0.01412 0.72835 0.0
C1108 C 0.63211 0.02876 0.74249 0.0
C1109 C 0.61347 0.03656 0.74055 0.0
C1110 C 0.62805 0.99089 0.69784 0.0
C1111 C 0.64666 0.03701 0.75904 0.0
H1112 H 0.68762 0.97189 0.74172 0.0
H1113 H 0.70113 0.02147 0.70725 0.0
H1114 H 0.6434 0.9894 0.7602 0.0
H1115 H 0.63774 0.97231 0.7393 0.0
H1116 H 0.65752 0.96785 0.75701 0.0
H1117 H 0.67829 0.0446 0.69955 0.0
H1118 H 0.65357 0.03319 0.69567 0.0
H1119 H 0.66034 0.04851 0.71764 0.0
H1120 H 0.59371 0.00841 0.70027 0.0
H1121 H 0.61014 0.0487 0.75065 0.0
H1122 H 0.63415 0.97807 0.70491 0.0
H1123 H 0.6396 -0.00281 0.68869 0.0
H1124 H 0.61498 0.98549 0.68794 0.0
H1125 H 0.65399 0.02487 0.76619 0.0
H1126 H 0.63945 0.04594 0.77046 0.0
H1127 H 0.65836 0.0466 0.75299 0.0
C1128 C 0.80586 0.96731 0.29781 0.0
C1129 C 0.80196 0.98126 0.31291 0.0
C1130 C 0.8253 0.96417 0.29313 0.0
C1131 C 0.84128 0.97484 0.30418 0.0
C1132 C 0.83746 0.98823 0.32009 0.0
C1133 C 0.81781 0.99152 0.32407 0.0
C1134 C 0.82869 0.95005 0.27579 0.0
C1135 C 0.85411 -0.00061 0.3326 0.0
C1136 C 0.89093 0.95356 0.29667 0.0
C1137 C 0.89852 0.96556 0.28237 0.0
C1138 C 0.87285 0.95714 0.30483 0.0
C1139 C 0.86181 0.97275 0.29817 0.0
C1140 C 0.86972 0.9854 0.28437 0.0
C1141 C 0.88808 0.98184 0.27691 0.0
C1142 C 0.86518 0.94366 0.31994 0.0
C1143 C 0.85833 0.00209 0.2767 0.0
H1144 H 0.79366 0.95945 0.28905 0.0
H1145 H 0.81484 0.00222 0.33585 0.0
H1146 H 0.83622 0.95822 0.2644 0.0
H1147 H 0.83851 0.93851 0.28052 0.0
H1148 H 0.81469 0.94265 0.26894 0.0
H1149 H 0.84875 0.00758 0.34566 0.0
H1150 H 0.86506 0.98903 0.33774 0.0
H1151 H 0.86195 0.01016 0.32365 0.0
H1152 H 0.89866 0.94083 0.30096 0.0
H1153 H 0.89401 0.99159 0.26634 0.0
H1154 H 0.85256 0.93391 0.31316 0.0
H1155 H 0.85968 0.95246 0.33252 0.0
H1156 H 0.8767 0.93418 0.32568 0.0
H1157 H 0.84443 -0.00407 0.26859 0.0
H1158 H 0.86689 0.01108 0.26661 0.0
H1159 H 0.85416 0.01198 0.28913 0.0
C1160 C 0.2812 0.20877 0.60039 0.0
C1161 C 0.27195 0.21898 0.58543 0.0
C1162 C 0.28288 0.18823 0.59812 0.0
C1163 C 0.27507 0.17764 0.58052 0.0
C1164 C 0.26476 0.18768 0.56586 0.0
C1165 C 0.26336 0.20823 0.56847 0.0
C1166 C 0.29396 0.17806 0.6141 0.0
C1167 C 0.25611 0.17691 0.54693 0.0
C1168 C 0.30056 0.13262 0.56187 0.0
C1169 C 0.28754 0.11697 0.56654 0.0
C1170 C 0.2968 0.15235 0.56667 0.0
C1171 C 0.27956 0.15662 0.57642 0.0
C1172 C 0.26657 0.1409 0.58163 0.0
C1173 C 0.27074 0.12121 0.57667 0.0
C1174 C 0.31114 0.16866 0.56099 0.0
C1175 C 0.24805 0.1449 0.59202 0.0
H1176 H 0.28782 0.21694 0.61357 0.0
H1177 H 0.25607 0.21597 0.5569 0.0
H1178 H 0.28539 0.16448 0.61783 0.0
H1179 H 0.30818 0.17344 0.60869 0.0
H1180 H 0.29717 0.18785 0.62775 0.0
H1181 H 0.2468 0.18638 0.53799 0.0
H1182 H 0.26824 0.172 0.53795 0.0
H1183 H 0.24702 0.16347 0.55016 0.0
H1184 H 0.31375 0.1294 0.55437 0.0
H1185 H 0.2606 0.10916 0.58023 0.0
H1186 H 0.31647 0.1783 0.57422 0.0
H1187 H 0.30356 0.17807 0.55051 0.0
H1188 H 0.32414 0.16281 0.55397 0.0
H1189 H 0.25175 0.15455 0.60566 0.0
H1190 H 0.24004 0.13106 0.59599 0.0
H1191 H 0.23798 0.15292 0.58235 0.0
C1192 C 0.31554 0.84034 0.02217 0.0
C1193 C 0.32596 0.82559 0.01284 0.0
C1194 C 0.31142 0.85765 0.01281 0.0
C1195 C 0.31808 0.86037 0.99377 0.0
C1196 C 0.3293 0.84591 0.98461 0.0
C1197 C 0.33299 0.82862 -0.0058 0.0
C1198 C 0.29924 0.87264 0.02299 0.0
C1199 C 0.33688 0.84843 0.96442 0.0
C1200 C 0.28839 0.89258 0.96101 0.0
C1201 C 0.29961 0.91072 0.96335 0.0
C1202 C 0.29435 0.87607 0.97071 0.0
C1203 C 0.31209 0.87767 0.9829 0.0
C1204 C 0.32368 0.89585 0.98505 0.0
C1205 C 0.31722 0.91223 0.97536 0.0
C1206 C 0.28143 0.85702 0.96822 0.0
C1207 C 0.3428 0.89802 -0.00228 0.0
H1208 H 0.31004 0.8381 0.03656 0.0
H1209 H 0.34116 0.81734 0.98696 0.0
H1210 H 0.30702 0.88756 0.02373 0.0
H1211 H 0.28498 0.87351 0.01434 0.0
H1212 H 0.2961 0.86883 0.0382 0.0
H1213 H 0.3468 0.8367 0.96009 0.0
H1214 H 0.32424 0.84795 0.95326 0.0
H1215 H 0.34504 0.86308 0.96405 0.0
H1216 H 0.27462 0.89145 0.95198 0.0
H1217 H 0.32597 0.92621 0.97708 0.0
H1218 H 0.27641 0.85296 0.98276 0.0
H1219 H 0.29001 0.84478 0.96243 0.0
H1220 H 0.26822 0.85817 0.95802 0.0
H1221 H 0.33984 0.89553 0.01327 0.0
H1222 H 0.35051 0.9129 -0.00281 0.0
H1223 H 0.35284 0.88665 0.99281 0.0
C1224 C 0.66002 0.28984 0.37776 0.0
C1225 C 0.66202 0.27895 0.39458 0.0
C1226 C 0.66197 0.31065 0.3793 0.0
C1227 C 0.66673 0.32068 0.398 0.0
C1228 C 0.66771 0.30976 0.41511 0.0
C1229 C 0.66508 0.28905 0.41321 0.0
C1230 C 0.65989 0.32176 0.3608 0.0
C1231 C 0.67284 0.31982 0.43535 0.0
C1232 C 0.70027 0.36752 0.40365 0.0
C1233 C 0.6875 0.38148 0.41064 0.0
C1234 C 0.69343 0.34788 0.39845 0.0
C1235 C 0.67318 0.34212 0.39969 0.0
C1236 C 0.65985 0.35653 0.40492 0.0
C1237 C 0.66721 0.37601 0.41057 0.0
C1238 C 0.70819 0.33301 0.39295 0.0
C1239 C 0.63803 0.35114 0.40565 0.0
H1240 H 0.65737 0.2821 0.36334 0.0
H1241 H 0.6666 0.28074 0.42628 0.0
H1242 H 0.65189 0.33536 0.36349 0.0
H1243 H 0.67478 0.32636 0.35615 0.0
H1244 H 0.65191 0.31247 0.34847 0.0
H1245 H 0.67193 0.30933 0.44725 0.0
H1246 H 0.68811 0.3268 0.43596 0.0
H1247 H 0.66277 0.33175 0.43837 0.0
H1248 H 0.71586 0.37175 0.40303 0.0
H1249 H 0.65716 0.38664 0.4159 0.0
H1250 H 0.7033 0.3248 0.37874 0.0
H1251 H 0.70914 0.32202 0.40437 0.0
H1252 H 0.7232 0.34009 0.39162 0.0
H1253 H 0.63248 0.34152 0.39246 0.0
H1254 H 0.62931 0.36447 0.40645 0.0
H1255 H 0.63544 0.34276 0.41886 0.0
C1256 C 0.73331 0.68686 0.98754 0.0
C1257 C 0.73431 0.70325 0.00128 0.0
C1258 C 0.7339 0.66753 0.99378 0.0
C1259 C 0.73558 0.66454 0.01421 0.0
C1260 C 0.73786 0.68108 0.02808 0.0
C1261 C 0.73717 0.70024 0.02144 0.0
C1262 C 0.73151 0.65027 0.97854 0.0
C1263 C 0.73984 0.67852 0.05 0.0
C1264 C 0.71072 0.61822 0.03264 0.0
C1265 C 0.72682 0.60683 0.03684 0.0
C1266 C 0.71338 0.63678 0.02483 0.0
C1267 C 0.73266 0.64426 0.02121 0.0
C1268 C 0.74898 0.63272 0.02502 0.0
C1269 C 0.74586 0.61412 0.0328 0.0
C1270 C 0.69558 0.64863 0.02097 0.0
C1271 C 0.76973 0.6402 0.02128 0.0
H1272 H 0.73118 0.68905 0.97192 0.0
H1273 H 0.73811 0.71282 0.03215 0.0
H1274 H 0.74269 0.6394 0.98158 0.0
H1275 H 0.71672 0.64253 0.97928 0.0
H1276 H 0.7329 0.65506 0.96331 0.0
H1277 H 0.74362 0.6928 0.05868 0.0
H1278 H 0.72569 0.67199 0.05486 0.0
H1279 H 0.7514 0.66816 0.05345 0.0
H1280 H 0.69601 0.6129 0.03604 0.0
H1281 H 0.75836 0.60531 0.03581 0.0
H1282 H 0.69475 0.65283 0.00544 0.0
H1283 H 0.69699 0.66253 0.03057 0.0
H1284 H 0.68151 0.64033 0.02379 0.0
H1285 H 0.77041 0.64446 0.00582 0.0
H1286 H 0.78067 0.62899 0.02401 0.0
H1287 H 0.77406 0.65368 0.03101 0.0
C1288 C 0.59577 0.28475 0.19323 0.0
C1289 C 0.58521 0.27358 0.20629 0.0
C1290 C 0.59014 0.28371 0.17299 0.0
C1291 C 0.57375 0.27094 0.16559 0.0
C1292 C 0.56372 0.2588 0.17853 0.0
C1293 C 0.56946 0.26039 0.19877 0.0
C1294 C 0.60107 0.29707 0.15972 0.0
C1295 C 0.54642 0.24472 0.17113 0.0
C1296 C 0.54466 0.28637 0.12039 0.0
C1297 C 0.55225 0.27488 0.10508 0.0
C1298 C 0.55148 0.28512 0.14009 0.0
C1299 C 0.56599 0.27173 0.14475 0.0
C1300 C 0.57333 0.25964 0.12951 0.0
C1301 C 0.56648 0.26147 0.10982 0.0
C1302 C 0.54334 0.29836 0.1559 0.0
C1303 C 0.58859 0.24499 0.13396 0.0
H1304 H 0.60795 0.29499 0.19893 0.0
H1305 H 0.56134 0.25159 0.20877 0.0
H1306 H 0.60571 0.28838 0.14664 0.0
H1307 H 0.59108 0.30817 0.15423 0.0
H1308 H 0.61436 0.30505 0.16746 0.0
H1309 H 0.54171 0.23472 0.18257 0.0
H1310 H 0.5337 0.25327 0.16654 0.0
H1311 H 0.55022 0.23558 0.15797 0.0
H1312 H 0.53329 0.2964 0.11699 0.0
H1313 H 0.57257 0.25263 0.09813 0.0
H1314 H 0.55555 0.30787 0.16381 0.0
H1315 H 0.53638 0.28926 0.16695 0.0
H1316 H 0.53219 0.30804 0.14979 0.0
H1317 H 0.60252 0.25298 0.14022 0.0
H1318 H 0.59187 0.23582 0.12061 0.0
H1319 H 0.5834 0.23504 0.14523 0.0
C1320 C 0.02174 0.32843 0.83931 0.0
C1321 C 0.00913 0.3318 0.82293 0.0
C1322 C 0.01412 0.32297 0.85708 0.0
C1323 C 0.9934 0.32072 0.85846 0.0
C1324 C 0.98059 0.32485 0.84225 0.0
C1325 C 0.98861 0.33039 0.82469 0.0
C1326 C 0.02824 0.31883 0.87411 0.0
C1327 C 0.95841 0.3226 0.84314 0.0
C1328 C 0.97364 0.28415 0.89371 0.0
C1329 C 0.96866 0.2967 0.90954 0.0
C1330 C 0.98179 0.29181 0.87708 0.0
C1331 C 0.9851 0.31255 0.87626 0.0
C1332 C 0.98026 0.32534 0.89224 0.0
C1333 C 0.97202 0.31725 0.90869 0.0
C1334 C 0.98663 0.27769 0.86027 0.0
C1335 C 0.98371 0.34752 0.89193 0.0
H1336 H 0.03761 0.32959 0.83811 0.0
H1337 H 0.97876 0.33301 0.81212 0.0
H1338 H 0.02449 0.32708 0.88782 0.0
H1339 H 0.02688 0.30283 0.87677 0.0
H1340 H 0.04387 0.32294 0.8713 0.0
H1341 H 0.95053 0.32777 0.82982 0.0
H1342 H 0.95371 0.30679 0.84449 0.0
H1343 H 0.95374 0.33104 0.85637 0.0
H1344 H 0.97078 0.26828 0.89414 0.0
H1345 H 0.96834 0.327 0.92097 0.0
H1346 H 0.00251 0.27981 0.85744 0.0
H1347 H 0.97801 0.28083 0.84657 0.0
H1348 H 0.98333 0.26195 0.86332 0.0
H1349 H -0.00046 0.35148 0.88998 0.0
H1350 H 0.97944 0.35539 0.90567 0.0
H1351 H 0.97509 0.35291 0.87919 0.0
C1352 C 0.4068 0.6589 0.2835 0.0
C1353 C 0.38721 0.65656 0.27561 0.0
C1354 C 0.41121 0.65925 0.30391 0.0
C1355 C 0.39566 0.65681 0.31672 0.0
C1356 C 0.37605 0.65248 0.3087 0.0
C1357 C 0.37199 0.65275 0.28821 0.0
C1358 C 0.43236 0.66388 0.31181 0.0
C1359 C 0.35915 0.64888 0.32173 0.0
C1360 C 0.41447 0.6542 0.37015 0.0
C1361 C 0.4149 0.67423 0.37685 0.0
C1362 C 0.4068 0.64788 0.35098 0.0
C1363 C 0.39975 0.66198 0.33821 0.0
C1364 C 0.39889 0.68192 0.34541 0.0
C1365 C 0.40627 0.68773 0.36468 0.0
C1366 C 0.40716 0.62636 0.34408 0.0
C1367 C 0.39139 0.69746 0.33235 0.0
H1368 H 0.41866 0.66172 0.27384 0.0
H1369 H 0.35683 0.65059 0.28217 0.0
H1370 H 0.43377 0.67879 0.31965 0.0
H1371 H 0.43672 0.65308 0.3226 0.0
H1372 H 0.44288 0.66368 0.2999 0.0
H1373 H 0.34635 0.64056 0.31345 0.0
H1374 H 0.36374 0.64054 0.3346 0.0
H1375 H 0.3542 0.66331 0.32744 0.0
H1376 H 0.42102 0.64363 0.37947 0.0
H1377 H 0.40601 0.70311 0.36997 0.0
H1378 H 0.41918 0.62449 0.3339 0.0
H1379 H 0.39304 0.6212 0.33581 0.0
H1380 H 0.40967 0.6168 0.35658 0.0
H1381 H 0.40127 0.69931 0.32006 0.0
H1382 H 0.39072 0.71207 0.34052 0.0
H1383 H 0.37641 0.69273 0.32571 0.0
C1384 C -0.00381 0.72948 0.6868 0.0
C1385 C 0.00941 0.72376 0.70174 0.0
C1386 C 0.002 0.73111 0.66744 0.0
C1387 C 0.02136 0.72661 0.66289 0.0
C1388 C 0.035 0.72167 0.6781 0.0
C1389 C 0.02889 0.72044 0.69735 0.0
C1390 C 0.98717 0.73682 0.65171 0.0
C1391 C 0.05575 0.71662 0.67384 0.0
C1392 C 0.03096 0.70502 0.61192 0.0
C1393 C 0.04165 0.7208 0.60414 0.0
C1394 C 0.02372 0.70696 0.63077 0.0
C1395 C 0.02694 0.72524 0.64205 0.0
C1396 C 0.03672 0.74157 0.63388 0.0
C1397 C 0.04408 0.73913 0.61506 0.0
C1398 C 0.01337 0.68916 0.63894 0.0
C1399 C 0.04015 0.76138 0.64533 0.0
H1400 H 0.98115 0.73222 0.69011 0.0
H1401 H 0.03921 0.71603 0.7088 0.0
H1402 H -0.00617 0.74852 0.64297 0.0
H1403 H 0.9828 0.7238 0.64137 0.0
H1404 H 0.97365 0.74224 0.65806 0.0
H1405 H 0.06491 0.71431 0.68748 0.0
H1406 H 0.05517 0.70289 0.66401 0.0
H1407 H 0.06316 0.72859 0.666 0.0
H1408 H 0.02861 0.69095 0.60341 0.0
H1409 H 0.05242 0.75137 0.60925 0.0
H1410 H -0.00131 0.69289 0.64387 0.0
H1411 H 0.02215 0.6847 0.65204 0.0
H1412 H 0.01126 0.67628 0.62795 0.0
H1413 H 0.02627 0.76589 0.65159 0.0
H1414 H 0.04574 0.77316 0.63603 0.0
H1415 H 0.05113 0.76021 0.65788 0.0
C1416 C 0.8288 0.36039 0.68498 0.0
C1417 C 0.81202 0.36675 0.69395 0.0
C1418 C 0.84781 0.36831 0.69148 0.0
C1419 C 0.8501 0.38286 0.70741 0.0
C1420 C 0.83325 0.3892 0.71667 0.0
C1421 C 0.8144 0.38111 0.70979 0.0
C1422 C 0.86544 0.36126 0.68119 0.0
C1423 C 0.83513 0.4046 0.73379 0.0
C1424 C 0.9003 0.39108 0.73539 0.0
C1425 C 0.90816 0.4082 0.7273 0.0
C1426 C 0.8814 0.38271 0.7291 0.0
C1427 C 0.87013 0.39159 0.71428 0.0
C1428 C 0.87799 0.40881 0.70599 0.0
C1429 C 0.89688 0.41693 0.71263 0.0
C1430 C 0.8735 0.36435 0.7383 0.0
C1431 C 0.86641 0.41869 0.69013 0.0
H1432 H 0.82709 0.34933 0.67271 0.0
H1433 H 0.80151 0.38607 0.71683 0.0
H1434 H 0.87342 0.37392 0.67485 0.0
H1435 H 0.87594 0.35511 0.69195 0.0
H1436 H 0.86115 0.34973 0.66913 0.0
H1437 H 0.82059 0.40769 0.73957 0.0
H1438 H 0.84482 0.39958 0.74595 0.0
H1439 H 0.84215 0.41863 0.72913 0.0
H1440 H 0.90902 0.38409 0.74653 0.0
H1441 H 0.90272 0.43032 0.70652 0.0
H1442 H 0.87028 0.35211 0.72677 0.0
H1443 H 0.85939 0.3672 0.74507 0.0
H1444 H 0.88404 0.35939 0.74982 0.0
H1445 H 0.86257 0.40802 0.67725 0.0
H1446 H 0.87473 0.43185 0.68504 0.0
H1447 H 0.85232 0.4234 0.69577 0.0
C1448 C 0.67539 0.61759 0.33897 0.0
C1449 C 0.67786 0.63802 0.33695 0.0
C1450 C 0.65694 0.60864 0.34268 0.0
C1451 C 0.64061 0.62046 0.34473 0.0
C1452 C 0.64329 0.64127 0.34393 0.0
C1453 C 0.66182 0.64977 0.33965 0.0
C1454 C 0.65472 0.58638 0.34319 0.0
C1455 C 0.62649 0.65446 0.34709 0.0
C1456 C 0.5914 0.5938 0.32762 0.0
C1457 C 0.58482 0.58684 0.34527 0.0
C1458 C 0.60917 0.60542 0.32738 0.0
C1459 C 0.62045 0.61068 0.34532 0.0
C1460 C 0.61324 0.60489 0.36334 0.0
C1461 C 0.59563 0.59286 0.3631 0.0
C1462 C 0.61636 0.6112 0.30779 0.0
C1463 C 0.62454 0.61063 0.38279 0.0
H1464 H 0.68771 0.60842 0.33686 0.0
H1465 H 0.66373 0.66561 0.3383 0.0
H1466 H 0.64706 0.58209 0.35638 0.0
H1467 H 0.64549 0.58011 0.33 0.0
H1468 H 0.66919 0.57956 0.34333 0.0
H1469 H 0.63118 0.67038 0.34646 0.0
H1470 H 0.61425 0.65057 0.33572 0.0
H1471 H 0.62052 0.65218 0.36168 0.0
H1472 H 0.58289 0.58975 0.31383 0.0
H1473 H 0.59082 0.58751 0.37684 0.0
H1474 H 0.63044 0.60428 0.30513 0.0
H1475 H 0.6194 0.62747 0.30801 0.0
H1476 H 0.6055 0.60652 0.29527 0.0
H1477 H 0.6386 0.60314 0.38346 0.0
H1478 H 0.6161 0.60652 0.3956 0.0
H1479 H 0.62827 0.62682 0.38412 0.0
C1480 C 0.30301 0.01191 0.27129 0.0
C1481 C 0.28636 -0.00104 0.26609 0.0
C1482 C 0.32205 0.00657 0.2671 0.0
C1483 C 0.32442 0.98803 0.2571 0.0
C1484 C 0.30758 0.97521 0.25118 0.0
C1485 C 0.28876 0.98074 0.25595 0.0
C1486 C 0.33966 0.02048 0.27397 0.0
C1487 C 0.30947 0.9555 0.2401 0.0
C1488 C 0.37244 0.97988 0.23267 0.0
C1489 C 0.38216 0.96814 0.24603 0.0
C1490 C 0.35367 0.98649 0.23608 0.0
C1491 C 0.34455 0.98167 0.25349 0.0
C1492 C 0.35449 0.97038 0.26734 0.0
C1493 C 0.37305 0.96358 0.26335 0.0
C1494 C 0.34344 -0.00168 0.22085 0.0
C1495 C 0.34539 0.96518 0.28624 0.0
H1496 H 0.30125 0.02595 0.27927 0.0
H1497 H 0.27592 0.97073 0.2518 0.0
H1498 H 0.34926 0.01328 0.2848 0.0
H1499 H 0.34866 0.02386 0.26136 0.0
H1500 H 0.33526 0.03463 0.28099 0.0
H1501 H 0.29485 0.94785 0.23545 0.0
H1502 H 0.31788 0.95761 0.2268 0.0
H1503 H 0.31785 0.94574 0.24957 0.0
H1504 H 0.37945 0.98384 0.21943 0.0
H1505 H 0.38017 0.95426 0.27364 0.0
H1506 H 0.33993 0.01287 0.22764 0.0
H1507 H 0.32922 0.99041 0.2153 0.0
H1508 H 0.35256 0.00089 0.20811 0.0
H1509 H 0.34125 0.97881 0.29444 0.0
H1510 H 0.35554 0.95733 0.29602 0.0
H1511 H 0.33164 0.95559 0.28279 0.0
C1512 C 0.16022 0.02155 0.65643 0.0
C1513 C 0.15994 0.00165 0.66104 0.0
C1514 C 0.14268 0.03141 0.6547 0.0
C1515 C 0.12443 0.02118 0.65779 0.0
C1516 C 0.12403 0.00107 0.66238 0.0
C1517 C 0.14178 0.99152 0.66387 0.0
C1518 C 0.14369 0.05282 0.64963 0.0
C1519 C 0.10487 0.9897 0.66589 0.0
C1520 C 0.08202 0.05221 0.67162 0.0
C1521 C 0.0709 0.0521 0.65357 0.0
C1522 C 0.09934 0.042 0.67326 0.0
C1523 C 0.10579 0.03159 0.65639 0.0
C1524 C 0.09458 0.03136 0.63814 0.0
C1525 C 0.07721 0.04156 0.63697 0.0
C1526 C 0.11078 0.0424 0.69303 0.0
C1527 C 0.10107 0.02058 0.6198 0.0
H1528 H 0.17418 0.02947 0.65417 0.0
H1529 H 0.14143 0.97616 0.66748 0.0
H1530 H 0.13422 0.05452 0.63604 0.0
H1531 H 0.13791 0.06214 0.66168 0.0
H1532 H 0.159 0.05854 0.64727 0.0
H1533 H 0.10707 0.97413 0.66925 0.0
H1534 H 0.09776 -0.00295 0.6784 0.0
H1535 H 0.09445 0.98967 0.6527 0.0
H1536 H 0.07705 0.06017 0.68452 0.0
H1537 H 0.06878 0.04163 0.62294 0.0
H1538 H 0.1259 0.04926 0.69192 0.0
H1539 H 0.11235 0.02707 0.69748 0.0
H1540 H 0.10354 0.05081 0.7048 0.0
H1541 H 0.11584 0.02682 0.61627 0.0
H1542 H 0.09056 0.02165 0.60681 0.0
H1543 H 0.10249 0.00472 0.62236 0.0
C1544 C 0.67127 0.82 0.3496 0.0
C1545 C 0.68359 0.80413 0.34942 0.0
C1546 C 0.67747 0.83828 0.35953 0.0
C1547 C 0.69654 0.84081 0.36929 0.0
C1548 C 0.70916 0.82495 0.36889 0.0
C1549 C 0.70248 0.80675 0.35907 0.0
C1550 C 0.66351 0.85477 0.35985 0.0
C1551 C 0.7297 0.82718 0.37891 0.0
C1552 C 0.7191 0.89317 0.38099 0.0
C1553 C 0.71617 0.8961 0.40119 0.0
C1554 C 0.71285 0.87524 0.37043 0.0
C1555 C 0.70316 0.85994 0.38022 0.0
C1556 C 0.69991 0.86286 0.40053 0.0
C1557 C 0.70657 0.88083 0.41079 0.0
C1558 C 0.7167 0.87261 0.34881 0.0
C1559 C 0.68949 0.84695 0.41145 0.0
H1560 H 0.65662 0.81806 0.34225 0.0
H1561 H 0.7121 0.79457 0.35892 0.0
H1562 H 0.66046 0.85911 0.37532 0.0
H1563 H 0.67041 0.86804 0.35355 0.0
H1564 H 0.64923 0.85047 0.35141 0.0
H1565 H 0.73789 0.81362 0.37671 0.0
H1566 H 0.73828 0.83978 0.37312 0.0
H1567 H 0.72881 0.83055 0.39499 0.0
H1568 H 0.7262 0.90497 0.37335 0.0
H1569 H 0.70453 0.88277 0.42645 0.0
H1570 H 0.70252 0.86959 0.33987 0.0
H1571 H 0.72564 0.85965 0.34623 0.0
H1572 H 0.72463 0.88586 0.34344 0.0
H1573 H 0.67472 0.84265 0.40404 0.0
H1574 H 0.68756 0.85179 0.42708 0.0
H1575 H 0.69804 0.83352 0.41118 0.0
C1576 C 0.67164 0.17847 -0.00448 0.0
C1577 C 0.66326 0.17919 0.97625 0.0
C1578 C 0.67203 0.16052 0.00473 0.0
C1579 C 0.66348 0.14293 -0.00543 0.0
C1580 C 0.65467 0.14362 0.97524 0.0
C1581 C 0.65485 0.16173 0.96622 0.0
C1582 C 0.68184 0.16032 0.02524 0.0
C1583 C 0.64505 0.12525 0.96411 0.0
C1584 C 0.67984 0.09364 0.01122 0.0
C1585 C 0.66496 0.08832 0.02366 0.0
C1586 C 0.67955 0.1114 0.00161 0.0
C1587 C 0.66376 0.12384 0.00423 0.0
C1588 C 0.64847 0.11827 0.01646 0.0
C1589 C 0.64936 0.10065 0.02618 0.0
C1590 C 0.69629 0.11701 0.98896 0.0
C1591 C 0.63121 0.13094 0.01932 0.0
H1592 H 0.67831 0.19189 0.00328 0.0
H1593 H 0.64829 0.16223 0.95135 0.0
H1594 H 0.67102 0.15483 0.03556 0.0
H1595 H 0.69393 0.15004 0.02516 0.0
H1596 H 0.68808 0.17523 0.03099 0.0
H1597 H 0.63836 0.12839 0.94941 0.0
H1598 H 0.65613 0.11408 0.96199 0.0
H1599 H 0.63335 0.11852 0.97279 0.0
H1600 H 0.69194 0.08412 0.00937 0.0
H1601 H 0.63773 0.09638 0.03564 0.0
H1602 H 0.70379 0.13134 -0.00517 0.0
H1603 H 0.69044 0.11905 0.97369 0.0
H1604 H 0.70741 0.10567 0.9884 0.0
H1605 H 0.63654 0.14563 0.02637 0.0
H1606 H 0.62013 0.12408 0.02864 0.0
H1607 H 0.62381 0.13352 0.0048 0.0
C1608 C 0.33763 0.66796 0.64281 0.0
C1609 C 0.33532 0.68406 0.63105 0.0
C1610 C 0.34094 0.64914 0.63433 0.0
C1611 C 0.34119 0.64625 0.61355 0.0
C1612 C 0.33966 0.66264 0.60171 0.0
C1613 C 0.33689 0.68137 0.61063 0.0
C1614 C 0.34348 0.63224 0.64754 0.0
C1615 C 0.33985 0.66023 0.5795 0.0
C1616 C 0.35721 0.59966 0.58678 0.0
C1617 C 0.33893 0.58929 0.58153 0.0
C1618 C 0.35833 0.61774 0.59811 0.0
C1619 C 0.34074 0.62591 0.60395 0.0
C1620 C 0.32232 0.61522 0.59928 0.0
C1621 C 0.32168 0.59695 0.58838 0.0
C1622 C 0.37827 0.62838 0.60327 0.0
C1623 C 0.30317 0.62346 0.60508 0.0
H1624 H 0.33672 0.67003 0.65866 0.0
H1625 H 0.33518 0.69376 0.60146 0.0
H1626 H 0.33014 0.62184 0.6457 0.0
H1627 H 0.35627 0.62382 0.64339 0.0
H1628 H 0.34575 0.63747 0.66336 0.0
H1629 H 0.33981 0.67465 0.57255 0.0
H1630 H 0.35307 0.65266 0.57513 0.0
H1631 H 0.32665 0.65082 0.57349 0.0
H1632 H 0.37064 0.59404 0.58146 0.0
H1633 H 0.30753 0.58883 0.58488 0.0
H1634 H 0.38001 0.63241 0.61936 0.0
H1635 H 0.37938 0.64228 0.59553 0.0
H1636 H 0.39064 0.61932 0.59911 0.0
H1637 H 0.30362 0.62674 0.62128 0.0
H1638 H 0.29013 0.6131 0.60066 0.0
H1639 H 0.30116 0.63759 0.598 0.0
C1640 C 0.2393 0.32165 0.00687 0.0
C1641 C 0.2455 0.32537 0.02687 0.0
C1642 C 0.23338 0.33699 -0.00465 0.0
C1643 C 0.23358 0.35651 0.00405 0.0
C1644 C 0.23958 0.36033 0.02429 0.0
C1645 C 0.2455 0.34472 0.03545 0.0
C1646 C 0.22713 0.33236 0.9738 0.0
C1647 C 0.23989 0.38094 0.0341 0.0
C1648 C 0.23665 0.39882 0.96999 0.0
C1649 C 0.21685 0.40354 0.96783 0.0
C1650 C 0.24232 0.38364 0.98185 0.0
C1651 C 0.22784 0.37298 0.99186 0.0
C1652 C 0.20787 0.37782 0.98996 0.0
C1653 C 0.20261 0.39302 0.97794 0.0
C1654 C 0.26378 0.37892 0.98354 0.0
C1655 C 0.19203 0.36679 0.00043 0.0
H1656 H 0.23927 0.30676 0.00012 0.0
H1657 H 0.25023 0.34771 0.0509 0.0
H1658 H 0.21192 0.33694 0.97062 0.0
H1659 H 0.23703 0.34087 0.96451 0.0
H1660 H 0.22749 0.31635 0.96936 0.0
H1661 H 0.24451 0.38136 0.05007 0.0
H1662 H 0.25022 0.39106 0.02681 0.0
H1663 H 0.22501 0.38675 0.03242 0.0
H1664 H 0.24778 0.40708 0.96247 0.0
H1665 H 0.18724 0.39641 0.97614 0.0
H1666 H 0.26524 0.36334 0.97816 0.0
H1667 H 0.26943 0.38045 -0.00076 0.0
H1668 H 0.27323 0.38874 0.97496 0.0
H1669 H 0.19097 0.3509 -0.00475 0.0
H1670 H 0.17729 0.37277 -0.00211 0.0
H1671 H 0.19594 0.3676 0.01655 0.0
C1672 C 0.36056 0.69742 0.82378 0.0
C1673 C 0.3693 0.70337 0.80672 0.0
C1674 C 0.36883 0.70392 0.84264 0.0
C1675 C 0.38623 0.71667 0.84447 0.0
C1676 C 0.39493 0.72299 0.82732 0.0
C1677 C 0.38637 0.71626 0.80864 0.0
C1678 C 0.35913 0.69687 0.8606 0.0
C1679 C 0.41347 0.73663 0.8287 0.0
C1680 C 0.39957 0.7464 0.89307 0.0
C1681 C 0.41393 0.73512 0.90181 0.0
C1682 C 0.39036 0.74055 0.87444 0.0
C1683 C 0.39564 0.72298 0.86432 0.0
C1684 C 0.41006 0.71148 0.8731 0.0
C1685 C 0.41904 0.71769 0.89173 0.0
C1686 C 0.37502 0.75317 0.86556 0.0
C1687 C 0.41611 0.69267 0.86274 0.0
H1688 H 0.34737 0.68747 0.82243 0.0
H1689 H 0.3932 0.72094 0.79554 0.0
H1690 H 0.36949 0.6882 0.86927 0.0
H1691 H 0.3556 0.70974 0.87032 0.0
H1692 H 0.34532 0.68748 0.85666 0.0
H1693 H 0.41806 0.74063 0.81396 0.0
H1694 H 0.41113 0.75043 0.83763 0.0
H1695 H 0.42575 0.72942 0.83629 0.0
H1696 H 0.39538 0.75975 0.9009 0.0
H1697 H 0.43034 0.70906 0.89827 0.0
H1698 H 0.36077 0.7443 0.86253 0.0
H1699 H 0.3797 0.75824 0.85123 0.0
H1700 H 0.37254 0.76637 0.87537 0.0
H1701 H 0.403 0.68216 0.85937 0.0
H1702 H 0.42734 0.68527 0.87172 0.0
H1703 H 0.42228 0.69602 0.84848 0.0
C1704 C 0.9914 0.66469 0.14761 0.0
C1705 C 0.00335 0.67098 0.16465 0.0
C1706 C -0.00058 0.66288 0.12907 0.0
C1707 C 0.01984 0.66762 0.12752 0.0
C1708 C 0.03197 0.67403 0.14464 0.0
C1709 C 0.02359 0.67556 0.16301 0.0
C1710 C 0.98607 0.65584 0.11116 0.0
C1711 C 0.05379 0.67933 0.14356 0.0
C1712 C 0.04533 0.6463 0.08357 0.0
C1713 C 0.04627 0.66234 0.07145 0.0
C1714 C 0.03653 0.64773 0.10171 0.0
C1715 C 0.02862 0.66571 0.10801 0.0
C1716 C 0.02942 0.68194 0.09586 0.0
C1717 C 0.03817 0.68004 0.07769 0.0
C1718 C 0.0359 0.63007 0.11423 0.0
C1719 C 0.02117 0.70136 0.10211 0.0
H1720 H 0.97575 0.66109 0.14875 0.0
H1721 H 0.03291 0.6805 0.17608 0.0
H1722 H 0.98638 0.66718 0.10006 0.0
H1723 H 0.99146 0.64216 0.10414 0.0
H1724 H 0.97052 0.65273 0.11487 0.0
H1725 H 0.06112 0.68427 0.15821 0.0
H1726 H 0.06119 0.66636 0.13752 0.0
H1727 H 0.05602 0.69134 0.13337 0.0
H1728 H 0.05183 0.63267 0.07905 0.0
H1729 H 0.03857 0.69241 0.06832 0.0
H1730 H 0.02043 0.62601 0.11758 0.0
H1731 H 0.04441 0.63387 0.12853 0.0
H1732 H 0.0421 0.61696 0.1069 0.0
H1733 H 0.00525 0.69898 0.10469 0.0
H1734 H 0.02286 0.71252 0.09091 0.0
H1735 H 0.02881 0.70748 0.11624 0.0
C1736 C 0.6101 0.34003 0.68417 0.0
C1737 C 0.63004 0.33573 0.68578 0.0
C1738 C 0.6008 0.34356 0.66588 0.0
C1739 C 0.61175 0.34294 0.6488 0.0
C1740 C 0.6321 0.33949 0.65046 0.0
C1741 C 0.64098 0.33577 0.66893 0.0
C1742 C 0.57904 0.34703 0.66469 0.0
C1743 C 0.6443 0.3389 0.63261 0.0
C1744 C 0.58142 0.32823 0.601 0.0
C1745 C 0.57922 0.34658 0.59288 0.0
C1746 C 0.59253 0.32682 0.61884 0.0
C1747 C 0.60143 0.34422 0.62905 0.0
C1748 C 0.59957 0.36275 0.62084 0.0
C1749 C 0.58861 0.3637 0.6028 0.0
C1750 C 0.59429 0.30673 0.62702 0.0
C1751 C 0.6086 0.38164 0.63142 0.0
H1752 H 0.60153 0.33999 0.69712 0.0
H1753 H 0.65644 0.33258 0.6701 0.0
H1754 H 0.57635 0.3604 0.6566 0.0
H1755 H 0.57069 0.33432 0.65632 0.0
H1756 H 0.57305 0.34883 0.6795 0.0
H1757 H 0.66026 0.33773 0.63664 0.0
H1758 H 0.63899 0.32599 0.62246 0.0
H1759 H 0.64256 0.3524 0.62439 0.0
H1760 H 0.57395 0.31494 0.59373 0.0
H1761 H 0.58727 0.37792 0.59654 0.0
H1762 H 0.58695 0.30626 0.64115 0.0
H1763 H 0.61007 0.30401 0.6302 0.0
H1764 H 0.58747 0.29454 0.61671 0.0
H1765 H 0.60118 0.38436 0.64532 0.0
H1766 H 0.60707 0.39468 0.62245 0.0
H1767 H 0.6245 0.38025 0.63542 0.0
C1768 C 0.01158 0.23756 0.31647 0.0
C1769 C 0.03171 0.24361 0.31967 0.0
C1770 C 0.00051 0.23125 0.33198 0.0
C1771 C 0.00979 0.23093 0.35114 0.0
C1772 C 0.03017 0.23669 0.35441 0.0
C1773 C 0.04088 0.24299 0.33864 0.0
C1774 C 0.9788 0.22523 0.32793 0.0
C1775 C 0.04059 0.23647 0.37464 0.0
C1776 C 0.97719 0.23384 0.39455 0.0
C1777 C 0.97495 0.21394 0.39908 0.0
C1778 C 0.98859 0.23957 0.37906 0.0
C1779 C -0.00196 0.22507 0.36786 0.0
C1780 C -0.00397 0.20499 0.37248 0.0
C1781 C 0.98449 0.19966 0.38803 0.0
C1782 C 0.99042 0.26114 0.37461 0.0
C1783 C 0.00588 0.18911 0.36086 0.0
H1784 H 0.00438 0.23799 0.30186 0.0
H1785 H 0.05643 0.2476 0.34124 0.0
H1786 H 0.97556 0.20998 0.33244 0.0
H1787 H 0.96987 0.23519 0.33679 0.0
H1788 H 0.97393 0.2258 0.31209 0.0
H1789 H 0.05663 0.2408 0.37459 0.0
H1790 H 0.03384 0.24681 0.38515 0.0
H1791 H 0.03878 0.22147 0.38024 0.0
H1792 H 0.97011 0.24499 0.40322 0.0
H1793 H 0.98263 0.18423 0.39129 0.0
H1794 H 0.98461 0.26289 0.35926 0.0
H1795 H 0.00621 0.26661 0.37571 0.0
H1796 H 0.98226 0.27059 0.38482 0.0
H1797 H 0.00023 0.1884 0.34517 0.0
H1798 H 0.00327 0.17426 0.36665 0.0
H1799 H 0.02205 0.19278 0.36122 0.0
C1800 C 0.26943 0.57378 0.35642 0.0
C1801 C 0.28376 0.58702 0.34954 0.0
C1802 C 0.2722 0.56591 0.37495 0.0
C1803 C 0.28989 0.57112 0.38668 0.0
C1804 C 0.30426 0.58471 0.37994 0.0
C1805 C 0.30094 0.59262 0.36154 0.0
C1806 C 0.25638 0.55176 0.38183 0.0
C1807 C 0.32342 0.59046 0.39191 0.0
C1808 C 0.29438 0.56419 0.44169 0.0
C1809 C 0.30435 0.54672 0.44228 0.0
C1810 C 0.28882 0.57188 0.42363 0.0
C1811 C 0.29371 0.56204 0.4058 0.0
C1812 C 0.30334 0.5441 0.40632 0.0
C1813 C 0.3084 0.53656 0.42459 0.0
C1814 C 0.27822 0.59081 0.42367 0.0
C1815 C 0.30906 0.53334 0.38764 0.0
H1816 H 0.25608 0.56945 0.34725 0.0
H1817 H 0.31216 0.60273 0.35628 0.0
H1818 H 0.26223 0.53696 0.38325 0.0
H1819 H 0.25203 0.55698 0.39663 0.0
H1820 H 0.24299 0.55015 0.3715 0.0
H1821 H 0.33299 0.60137 0.38466 0.0
H1822 H 0.32036 0.59691 0.40671 0.0
H1823 H 0.33173 0.5771 0.39418 0.0
H1824 H 0.29113 0.57196 0.45541 0.0
H1825 H 0.31626 0.52314 0.42509 0.0
H1826 H 0.26469 0.58886 0.41358 0.0
H1827 H 0.28789 0.60278 0.41816 0.0
H1828 H 0.27398 0.59567 0.43864 0.0
H1829 H 0.29594 0.53022 0.37716 0.0
H1830 H 0.3157 0.51913 0.39052 0.0
H1831 H 0.31991 0.54284 0.38029 0.0
C1832 C 0.22451 0.41044 0.73829 0.0
C1833 C 0.22043 0.38986 0.73563 0.0
C1834 C 0.22362 0.42042 0.7569 0.0
C1835 C 0.21849 0.40958 0.77321 0.0
C1836 C 0.21516 0.38874 0.7708 0.0
C1837 C 0.2162 0.37913 0.75206 0.0
C1838 C 0.22742 0.44265 0.75893 0.0
C1839 C 0.20968 0.37665 0.78784 0.0
C1840 C 0.22704 0.4322 0.82582 0.0
C1841 C 0.20803 0.43769 0.82989 0.0
C1842 C 0.23082 0.42346 0.80728 0.0
C1843 C 0.21521 0.42009 0.79248 0.0
C1844 C 0.19612 0.42605 0.79635 0.0
C1845 C 0.19278 0.43479 0.81497 0.0
C1846 C 0.25137 0.41734 0.8037 0.0
C1847 C 0.17908 0.42278 0.78094 0.0
H1848 H 0.22786 0.41886 0.72572 0.0
H1849 H 0.21308 0.36324 0.7502 0.0
H1850 H 0.21354 0.44963 0.76226 0.0
H1851 H 0.23839 0.447 0.77142 0.0
H1852 H 0.23292 0.44867 0.7453 0.0
H1853 H 0.20889 0.36047 0.78384 0.0
H1854 H 0.2206 0.37995 0.80057 0.0
H1855 H 0.19507 0.38067 0.79275 0.0
H1856 H 0.23886 0.43421 0.83734 0.0
H1857 H 0.17814 0.43929 0.8179 0.0
H1858 H 0.2566 0.42368 0.79012 0.0
H1859 H 0.25114 0.40099 0.80135 0.0
H1860 H 0.26216 0.42217 0.81624 0.0
H1861 H 0.18291 0.42985 0.76725 0.0
H1862 H 0.16531 0.42886 0.78606 0.0
H1863 H 0.17612 0.4067 0.77706 0.0
C1864 C 0.76857 0.94858 0.62821 0.0
C1865 C 0.75428 0.95471 0.64094 0.0
C1866 C 0.7651 0.94838 0.60766 0.0
C1867 C 0.74688 0.95437 0.59962 0.0
C1868 C 0.73198 0.95951 0.61232 0.0
C1869 C 0.73586 0.95964 0.63285 0.0
C1870 C 0.78135 0.94273 0.59459 0.0
C1871 C 0.71231 0.96584 0.60429 0.0
C1872 C 0.7486 0.97718 0.55012 0.0
C1873 C 0.74147 0.96126 0.53699 0.0
C1874 C 0.75004 0.97521 0.57055 0.0
C1875 C 0.74416 0.95688 0.57807 0.0
C1876 C 0.7365 0.94088 0.56495 0.0
C1877 C 0.7353 0.94324 0.54454 0.0
C1878 C 0.75838 0.99262 0.58406 0.0
C1879 C 0.72993 0.92117 0.57244 0.0
H1880 H 0.78281 0.94465 0.63428 0.0
H1881 H 0.72468 0.96431 0.64254 0.0
H1882 H 0.77559 0.93139 0.58289 0.0
H1883 H 0.78689 0.95591 0.58713 0.0
H1884 H 0.79399 0.93687 0.60302 0.0
H1885 H 0.70157 0.96729 0.61592 0.0
H1886 H 0.71448 0.98035 0.59774 0.0
H1887 H 0.70584 0.95505 0.59239 0.0
H1888 H 0.75365 0.99105 0.54437 0.0
H1889 H 0.72957 0.93095 0.53446 0.0
H1890 H 0.77225 0.98876 0.59196 0.0
H1891 H 0.74781 -0.0038 0.59538 0.0
H1892 H 0.76161 0.00605 0.57592 0.0
H1893 H 0.74274 0.91455 0.57977 0.0
H1894 H 0.72334 0.91055 0.5604 0.0
H1895 H 0.7189 0.92325 0.58366 0.0
C1896 C 0.69652 0.00113 0.24284 0.0
C1897 C 0.71415 0.00747 0.25383 0.0
C1898 C 0.69385 0.00457 0.22279 0.0
C1899 C 0.70915 0.01474 0.21344 0.0
C1900 C 0.72684 0.02159 0.22447 0.0
C1901 C 0.72918 0.01782 0.24456 0.0
C1902 C 0.67477 -0.00303 0.21154 0.0
C1903 C 0.74338 0.03263 0.21499 0.0
C1904 C 0.70642 0.00388 0.15802 0.0
C1905 C 0.69577 0.01956 0.15147 0.0
C1906 C 0.71185 0.00268 0.17811 0.0
C1907 C 0.70657 0.01759 0.19195 0.0
C1908 C 0.69682 0.03404 0.18529 0.0
C1909 C 0.69145 0.03478 0.16512 0.0
C1910 C 0.72213 0.98484 0.18464 0.0
C1911 C 0.69117 0.05034 0.19957 0.0
H1912 H 0.68478 0.99315 0.24983 0.0
H1913 H 0.74281 0.02281 0.25293 0.0
H1914 H 0.66751 0.00936 0.20479 0.0
H1915 H 0.67791 0.98622 0.19935 0.0
H1916 H 0.66423 0.98958 0.22109 0.0
H1917 H 0.75578 0.03783 0.22581 0.0
H1918 H 0.74917 0.02288 0.20328 0.0
H1919 H 0.73775 0.04561 0.2078 0.0
H1920 H 0.70966 0.992 0.14754 0.0
H1921 H 0.68346 0.04707 0.16005 0.0
H1922 H 0.71191 0.97551 0.19289 0.0
H1923 H 0.73521 0.98949 0.19476 0.0
H1924 H 0.72698 0.97565 0.17196 0.0
H1925 H 0.67921 0.04457 0.20852 0.0
H1926 H 0.68588 0.06321 0.19187 0.0
H1927 H 0.70393 0.05551 0.20992 0.0
C1928 C 0.36253 0.28801 0.59094 0.0
C1929 C 0.34553 0.29204 0.57954 0.0
C1930 C 0.38142 0.29125 0.58392 0.0
C1931 C 0.38336 0.29905 0.56522 0.0
C1932 C 0.36623 0.30266 0.55344 0.0
C1933 C 0.34752 0.29895 0.56067 0.0
C1934 C 0.39934 0.2869 0.59676 0.0
C1935 C 0.36768 0.31126 0.53356 0.0
C1936 C 0.43091 0.32941 0.55811 0.0
C1937 C 0.44103 0.31626 0.54634 0.0
C1938 C 0.41208 0.32402 0.5642 0.0
C1939 C 0.40328 0.30486 0.55864 0.0
C1940 C 0.41347 0.29147 0.5468 0.0
C1941 C 0.43219 0.29742 0.54061 0.0
C1942 C 0.40155 0.33888 0.5765 0.0
C1943 C 0.40469 0.27083 0.54086 0.0
H1944 H 0.3611 0.28253 0.60547 0.0
H1945 H 0.33446 0.30218 0.5518 0.0
H1946 H 0.40917 0.27762 0.58823 0.0
H1947 H 0.40795 0.30095 0.60169 0.0
H1948 H 0.39527 0.27916 0.61003 0.0
H1949 H 0.35295 0.31211 0.52573 0.0
H1950 H 0.375 0.3264 0.53552 0.0
H1951 H 0.3769 0.30223 0.52409 0.0
H1952 H 0.43767 0.34408 0.56236 0.0
H1953 H 0.44009 0.28722 0.53159 0.0
H1954 H 0.39854 0.33296 0.59095 0.0
H1955 H 0.38708 0.34149 0.56898 0.0
H1956 H 0.41027 0.35329 0.57919 0.0
H1957 H 0.40166 0.26282 0.55422 0.0
H1958 H 0.41461 0.26214 0.5318 0.0
H1959 H 0.39036 0.27155 0.5323 0.0
C1960 C 0.26132 0.72992 0.03721 0.0
C1961 C 0.27537 0.72528 0.02367 0.0
C1962 C 0.24173 0.72189 0.03445 0.0
C1963 C 0.23606 0.70892 0.0177 0.0
C1964 C 0.2502 0.70415 0.00398 0.0
C1965 C 0.26963 0.71258 0.00702 0.0
C1966 C 0.22704 0.72748 0.04932 0.0
C1967 C 0.24473 0.69035 0.98595 0.0
C1968 C 0.18911 0.67561 0.01909 0.0
C1969 C 0.17541 0.68591 0.00816 0.0
C1970 C 0.20894 0.68283 0.02218 0.0
C1971 C 0.21519 0.70084 0.01424 0.0
C1972 C 0.20142 0.71128 0.00315 0.0
C1973 C 0.18171 0.70366 0.0002 0.0
C1974 C 0.22319 0.67121 0.03397 0.0
C1975 C 0.20747 0.73062 -0.00542 0.0
H1976 H 0.26565 0.73989 0.05001 0.0
H1977 H 0.28015 0.70967 -0.00398 0.0
H1978 H 0.21479 0.73494 0.04197 0.0
H1979 H 0.22045 0.71398 0.05546 0.0
H1980 H 0.23389 0.73752 0.0617 0.0
H1981 H 0.25766 0.68743 0.9772 0.0
H1982 H 0.2382 0.67601 0.99041 0.0
H1983 H 0.23336 0.69681 0.97634 0.0
H1984 H 0.18436 0.66176 0.02506 0.0
H1985 H 0.17112 0.71178 0.99193 0.0
H1986 H 0.22906 0.68018 0.04747 0.0
H1987 H 0.23596 0.6679 0.0252 0.0
H1988 H 0.2162 0.65705 0.03841 0.0
H1989 H 0.21322 0.74164 0.0066 0.0
H1990 H 0.195 0.73682 0.98621 0.0
H1991 H 0.21958 0.72846 0.98457 0.0
C1992 C 0.75522 0.20816 0.38482 0.0
C1993 C 0.74039 0.21393 0.39707 0.0
C1994 C 0.77484 0.20739 0.39235 0.0
C1995 C 0.77975 0.21251 0.41262 0.0
C1996 C 0.76505 0.21916 0.42487 0.0
C1997 C 0.74555 0.2198 0.41695 0.0
C1998 C 0.79013 0.20031 0.3788 0.0
C1999 C 0.76973 0.22482 0.44653 0.0
C2000 C 0.82327 0.18822 0.43634 0.0
C2001 C 0.83833 0.20339 0.43694 0.0
C2002 C 0.80413 0.19108 0.4286 0.0
C2003 C 0.79991 0.20957 0.42127 0.0
C2004 C 0.81497 0.22504 0.42204 0.0
C2005 C 0.83401 0.22177 0.42988 0.0
C2006 C 0.78843 0.17424 0.42816 0.0
C2007 C 0.81103 0.24494 0.41432 0.0
H2008 H 0.75141 0.20366 0.36943 0.0
H2009 H 0.73424 0.22436 0.42653 0.0
H2010 H 0.80328 0.21097 0.37985 0.0
H2011 H 0.79517 0.18592 0.3834 0.0
H2012 H 0.7843 0.19836 0.36315 0.0
H2013 H 0.75703 0.23116 0.45368 0.0
H2014 H 0.77377 0.21156 0.45427 0.0
H2015 H 0.78261 0.23579 0.44855 0.0
H2016 H 0.82645 0.17408 0.44202 0.0
H2017 H 0.84565 0.23348 0.43009 0.0
H2018 H 0.78279 0.17018 0.41271 0.0
H2019 H 0.77573 0.17893 0.43643 0.0
H2020 H 0.79406 0.16087 0.43466 0.0
H2021 H 0.80652 0.24312 0.39834 0.0
H2022 H 0.8242 0.25559 0.41648 0.0
H2023 H 0.79864 0.25137 0.42187 0.0
C2024 C 0.6411 0.74567 0.98263 0.0
C2025 C 0.64897 0.75632 0.96752 0.0
C2026 C 0.6206 0.74315 0.98423 0.0
C2027 C 0.60767 0.75156 0.97046 0.0
C2028 C 0.61548 0.76168 0.95474 0.0
C2029 C 0.63603 0.7639 0.95343 0.0
C2030 C 0.61282 0.73213 0.00111 0.0
C2031 C 0.60215 0.77086 0.93976 0.0
C2032 C 0.55283 0.73563 0.96619 0.0
C2033 C 0.54496 0.75101 0.97735 0.0
C2034 C 0.57326 0.7354 0.96407 0.0
C2035 C 0.58608 0.75097 0.97322 0.0
C2036 C 0.57825 0.76638 0.98473 0.0
C2037 C 0.5578 0.76619 0.98666 0.0
C2038 C 0.58111 0.71865 0.95183 0.0
C2039 C 0.59143 0.78329 -0.00534 0.0
H2040 H 0.65096 0.73966 0.99352 0.0
H2041 H 0.64196 0.77213 0.94169 0.0
H2042 H 0.60581 0.74253 0.01136 0.0
H2043 H 0.60128 0.72052 -0.00449 0.0
H2044 H 0.62468 0.72506 0.00956 0.0
H2045 H 0.61045 0.77711 0.92772 0.0
H2046 H 0.59065 0.75969 0.93314 0.0
H2047 H 0.59442 0.78291 0.94717 0.0
H2048 H 0.54298 0.72377 0.95913 0.0
H2049 H 0.55178 0.77827 -0.00495 0.0
H2050 H 0.59247 0.71138 0.96071 0.0
H2051 H 0.58839 0.72455 0.93903 0.0
H2052 H 0.56927 0.70732 0.94626 0.0
H2053 H 0.60298 0.7775 0.00456 0.0
H2054 H 0.58305 0.79386 0.00347 0.0
H2055 H 0.59909 0.79149 0.98338 0.0
C2056 C 0.57155 0.35845 0.27585 0.0
C2057 C 0.58506 0.35196 0.29009 0.0
C2058 C 0.56336 0.37689 0.27857 0.0
C2059 C 0.56858 0.38892 0.29606 0.0
C2060 C 0.58236 0.38252 0.31037 0.0
C2061 C 0.59054 0.36421 0.30714 0.0
C2062 C 0.54897 0.3834 0.26284 0.0
C2063 C 0.58815 0.39482 0.32934 0.0
C2064 C 0.56166 0.44407 0.30067 0.0
C2065 C 0.54455 0.44466 0.31119 0.0
C2066 C 0.56911 0.42595 0.29474 0.0
C2067 C 0.5594 0.40805 0.29979 0.0
C2068 C 0.54174 0.40857 0.30985 0.0
C2069 C 0.53443 0.4269 0.3153 0.0
C2070 C 0.58776 0.42599 0.2837 0.0
C2071 C 0.53109 0.38982 0.31573 0.0
H2072 H 0.5673 0.3491 0.26261 0.0
H2073 H 0.60087 0.35928 0.31828 0.0
H2074 H 0.53428 0.38488 0.26889 0.0
H2075 H 0.55403 0.39816 0.25815 0.0
H2076 H 0.54722 0.37279 0.24966 0.0
H2077 H 0.59911 0.38775 0.33893 0.0
H2078 H 0.59452 0.40962 0.32602 0.0
H2079 H 0.57485 0.39718 0.33769 0.0
H2080 H 0.56937 0.45783 0.29733 0.0
H2081 H 0.52128 0.42737 0.32357 0.0
H2082 H 0.58564 0.41565 0.27036 0.0
H2083 H 0.59996 0.42075 0.29321 0.0
H2084 H 0.59234 0.44097 0.27915 0.0
H2085 H 0.52805 0.37917 0.30272 0.0
H2086 H 0.51689 0.39268 0.32235 0.0
H2087 H 0.54063 0.38264 0.32663 0.0
C2088 C 0.01342 0.26834 0.73088 0.0
C2089 C 0.02552 0.2825 0.72235 0.0
C2090 C 0.0103 0.24897 0.72227 0.0
C2091 C 0.01988 0.2436 0.70498 0.0
C2092 C 0.03244 0.25779 0.69654 0.0
C2093 C 0.03507 0.27711 0.70533 0.0
C2094 C -0.00342 0.23434 0.73153 0.0
C2095 C 0.04307 0.25256 0.67824 0.0
C2096 C 0.02566 0.18875 0.69408 0.0
C2097 C 0.01056 0.18385 0.67932 0.0
C2098 C 0.02905 0.20821 0.70233 0.0
C2099 C 0.01687 0.22307 0.69584 0.0
C2100 C 0.00167 0.21823 0.68085 0.0
C2101 C -0.00125 0.19867 0.67272 0.0
C2102 C 0.04569 0.2129 0.71796 0.0
C2103 C 0.98821 0.23359 0.67372 0.0
H2104 H 0.00604 0.27255 0.74406 0.0
H2105 H 0.04479 0.28798 0.69901 0.0
H2106 H 0.98443 0.2287 0.72062 0.0
H2107 H 0.00469 0.22142 0.7359 0.0
H2108 H 0.99001 0.24097 0.74476 0.0
H2109 H 0.05269 0.26518 0.67383 0.0
H2110 H 0.0523 0.23989 0.68078 0.0
H2111 H 0.03217 0.24788 0.66578 0.0
H2112 H 0.03499 0.17736 0.699 0.0
H2113 H 0.98695 0.19487 0.66143 0.0
H2114 H 0.0397 0.2184 0.73194 0.0
H2115 H 0.05598 0.22484 0.7133 0.0
H2116 H 0.05419 0.19979 0.72092 0.0
H2117 H 0.979 0.23843 0.68583 0.0
H2118 H 0.97828 0.22786 0.6608 0.0
H2119 H -0.00302 0.24688 0.66959 0.0
C2120 C 0.37108 0.75917 0.21035 0.0
C2121 C 0.38056 0.74409 0.21962 0.0
C2122 C 0.37874 0.77894 0.21287 0.0
C2123 C 0.39623 0.78373 0.22502 0.0
C2124 C 0.40536 0.76874 0.23514 0.0
C2125 C 0.39743 0.74909 0.23229 0.0
C2126 C 0.36859 0.79453 0.20183 0.0
C2127 C 0.42394 0.7733 0.24835 0.0
C2128 C 0.42851 0.82859 0.21307 0.0
C2129 C 0.42351 0.84303 0.22723 0.0
C2130 C 0.41977 0.80925 0.21226 0.0
C2131 C 0.40576 0.80415 0.22603 0.0
C2132 C 0.40083 0.81856 0.24054 0.0
C2133 C 0.40973 0.83785 0.24094 0.0
C2134 C 0.42546 0.79429 0.19658 0.0
C2135 C 0.38601 0.81364 0.25549 0.0
H2136 H 0.35803 0.75547 0.20055 0.0
H2137 H 0.40481 0.73757 0.23962 0.0
H2138 H 0.36574 0.80723 0.21211 0.0
H2139 H 0.37837 0.80029 0.19069 0.0
H2140 H 0.35434 0.78868 0.19416 0.0
H2141 H 0.42827 0.76031 0.25643 0.0
H2142 H 0.43629 0.77801 0.23936 0.0
H2143 H 0.4219 0.78573 0.25925 0.0
H2144 H 0.43937 0.83238 0.20264 0.0
H2145 H 0.4056 0.84898 0.25177 0.0
H2146 H 0.41217 0.78863 0.18716 0.0
H2147 H 0.43159 0.78143 0.20358 0.0
H2148 H 0.43659 0.80063 0.18698 0.0
H2149 H 0.37141 0.80909 0.24783 0.0
H2150 H 0.38421 0.82637 0.26617 0.0
H2151 H 0.39068 0.80096 0.26381 0.0
C2152 C 0.98681 0.63001 0.74506 0.0
C2153 C 0.97162 0.63844 0.75514 0.0
C2154 C 0.98809 0.60941 0.74318 0.0
C2155 C 0.97383 0.59692 0.75157 0.0
C2156 C 0.95796 0.60527 0.76098 0.0
C2157 C 0.95703 0.62592 0.76265 0.0
C2158 C 0.00518 0.60107 0.73294 0.0
C2159 C 0.94243 0.59242 0.77005 0.0
C2160 C 0.97023 0.54173 0.7369 0.0
C2161 C 0.98103 0.53425 0.75271 0.0
C2162 C 0.96778 0.56211 0.73625 0.0
C2163 C 0.97634 0.57529 0.7518 0.0
C2164 C 0.98736 0.56784 0.76772 0.0
C2165 C 0.98958 0.54743 0.76797 0.0
C2166 C 0.95593 0.56952 0.71905 0.0
C2167 C -0.0032 0.58144 0.78454 0.0
H2168 H -0.0019 0.63953 0.73912 0.0
H2169 H 0.9452 0.63227 0.7704 0.0
H2170 H 0.01501 0.5942 0.74382 0.0
H2171 H -0.00028 0.58929 0.72155 0.0
H2172 H 0.01407 0.61261 0.7258 0.0
H2173 H 0.9302 0.60104 0.7754 0.0
H2174 H 0.93613 0.58052 0.75916 0.0
H2175 H 0.94929 0.58515 0.78269 0.0
H2176 H 0.96339 0.53159 0.72517 0.0
H2177 H -0.0018 0.54179 0.78008 0.0
H2178 H 0.96508 0.58061 0.71163 0.0
H2179 H 0.94303 0.57705 0.72441 0.0
H2180 H 0.95049 0.55738 0.70799 0.0
H2181 H 0.0073 0.59255 0.7788 0.0
H2182 H 0.00489 0.57328 0.79581 0.0
H2183 H 0.98531 0.58966 0.79183 0.0
C2184 C 0.7176 0.40358 0.62927 0.0
C2185 C 0.72383 0.3843 0.62681 0.0
C2186 C 0.71354 0.41469 0.61291 0.0
C2187 C 0.71585 0.40631 0.59368 0.0
C2188 C 0.72177 0.38669 0.59112 0.0
C2189 C 0.72583 0.37598 0.60774 0.0
C2190 C 0.70751 0.43563 0.61625 0.0
C2191 C 0.72427 0.37717 0.57084 0.0
C2192 C 0.69343 0.42751 0.54766 0.0
C2193 C 0.71011 0.4371 0.54029 0.0
C2194 C 0.69486 0.41805 0.56546 0.0
C2195 C 0.71337 0.41834 0.57623 0.0
C2196 C 0.73 0.4289 0.56944 0.0
C2197 C 0.7282 0.43804 0.55153 0.0
C2198 C 0.67679 0.40698 0.57227 0.0
C2199 C 0.74998 0.42971 0.58059 0.0
H2200 H 0.71668 0.41029 0.64403 0.0
H2201 H 0.73068 0.36109 0.60583 0.0
H2202 H 0.7194 0.44615 0.6119 0.0
H2203 H 0.694 0.43792 0.60689 0.0
H2204 H 0.70466 0.43932 0.63192 0.0
H2205 H 0.72782 0.36142 0.57134 0.0
H2206 H 0.71056 0.37793 0.56128 0.0
H2207 H 0.73635 0.38534 0.56382 0.0
H2208 H 0.67931 0.42698 0.53926 0.0
H2209 H 0.74126 0.44512 0.5459 0.0
H2210 H 0.67461 0.41144 0.58791 0.0
H2211 H 0.67891 0.39086 0.5714 0.0
H2212 H 0.66317 0.40958 0.56317 0.0
H2213 H 0.74867 0.43436 0.59636 0.0
H2214 H 0.76092 0.4401 0.57439 0.0
H2215 H 0.75575 0.41475 0.58003 0.0
C2216 C 0.73763 0.63278 0.24191 0.0
C2217 C 0.74851 0.62605 0.25803 0.0
C2218 C 0.73551 0.6217 0.22372 0.0
C2219 C 0.74424 0.6033 0.22172 0.0
C2220 C 0.75552 0.59658 0.23787 0.0
C2221 C 0.75747 0.60803 0.25587 0.0
C2222 C 0.72348 0.62944 0.2068 0.0
C2223 C 0.76486 0.57695 0.2364 0.0
C2224 C 0.719 0.56674 0.18234 0.0
C2225 C 0.73132 0.56886 0.16668 0.0
C2226 C 0.72342 0.57738 0.20056 0.0
C2227 C 0.74048 0.5906 0.2031 0.0
C2228 C 0.7533 0.59236 0.18753 0.0
C2229 C 0.7486 0.58139 0.1695 0.0
C2230 C 0.70951 0.57488 0.21689 0.0
C2231 C 0.77156 0.60638 0.18967 0.0
H2232 H 0.73061 0.64667 0.2436 0.0
H2233 H 0.76527 0.60241 0.26849 0.0
H2234 H 0.73217 0.62975 0.1935 0.0
H2235 H 0.7101 0.6194 0.20299 0.0
H2236 H 0.71875 0.64457 0.21038 0.0
H2237 H 0.77457 0.57467 0.2497 0.0
H2238 H 0.75312 0.56474 0.23458 0.0
H2239 H 0.77372 0.57589 0.22323 0.0
H2240 H 0.70575 0.5569 0.18024 0.0
H2241 H 0.75805 0.5832 0.15735 0.0
H2242 H 0.70261 0.58901 0.22022 0.0
H2243 H 0.71779 0.57116 0.23058 0.0
H2244 H 0.69758 0.56311 0.21295 0.0
H2245 H 0.76719 0.62185 0.19159 0.0
H2246 H 0.78062 0.60512 0.17663 0.0
H2247 H 0.78083 0.60344 0.20303 0.0
C2248 C 0.24673 0.01927 0.36426 0.0
C2249 C 0.24696 0.00105 0.35339 0.0
C2250 C 0.25349 0.0214 0.38421 0.0
C2251 C 0.26087 0.00497 0.39346 0.0
C2252 C 0.26132 0.98657 0.38254 0.0
C2253 C 0.25425 0.9848 0.36266 0.0
C2254 C 0.25261 0.04121 0.39544 0.0
C2255 C 0.26931 0.96879 0.39186 0.0
C2256 C 0.2943 0.01665 0.43994 0.0
C2257 C 0.28122 0.01327 0.45479 0.0
C2258 C 0.288 0.01355 0.41991 0.0
C2259 C 0.26808 0.0071 0.41459 0.0
C2260 C 0.25486 0.00336 0.42946 0.0
C2261 C 0.26162 0.0064 0.44938 0.0
C2262 C 0.30255 0.01757 0.40445 0.0
C2263 C 0.23349 -0.00349 0.42434 0.0
H2264 H 0.24105 0.03188 0.35724 0.0
H2265 H 0.25456 0.97069 0.35432 0.0
H2266 H 0.24344 0.03955 0.40828 0.0
H2267 H 0.26765 0.04678 0.40128 0.0
H2268 H 0.24632 0.05247 0.38611 0.0
H2269 H 0.26885 0.95561 0.38128 0.0
H2270 H 0.28483 0.97232 0.39764 0.0
H2271 H 0.26063 0.96498 0.40457 0.0
H2272 H 0.30939 0.02222 0.44396 0.0
H2273 H 0.2515 0.00342 0.46074 0.0
H2274 H 0.29784 0.02999 0.39577 0.0
H2275 H 0.30286 0.00441 0.39399 0.0
H2276 H 0.31777 0.02143 0.41102 0.0
H2277 H 0.2261 0.00781 0.41595 0.0
H2278 H 0.22524 0.99384 0.43765 0.0
H2279 H 0.23256 0.98264 0.41471 0.0
C2280 C 0.26391 0.97249 0.74009 0.0
C2281 C 0.24554 0.97771 0.73225 0.0
C2282 C 0.2679 0.97231 0.76058 0.0
C2283 C 0.25308 0.97732 0.77346 0.0
C2284 C 0.2345 0.98258 0.76558 0.0
C2285 C 0.23094 0.98262 0.74507 0.0
C2286 C 0.28782 0.96645 0.76844 0.0
C2287 C 0.21832 0.98804 0.77883 0.0
C2288 C 0.25331 0.95922 0.82519 0.0
C2289 C 0.2603 0.97635 0.83672 0.0
C2290 C 0.25148 0.95916 0.80453 0.0
C2291 C 0.25671 0.97666 0.79518 0.0
C2292 C 0.26432 0.99383 0.8067 0.0
C2293 C 0.26605 0.99346 0.82735 0.0
C2294 C 0.24345 0.9405 0.79274 0.0
C2295 C 0.27001 0.01278 0.79726 0.0
H2296 H 0.27497 0.96796 0.73022 0.0
H2297 H 0.21669 0.98661 0.73903 0.0
H2298 H 0.29479 0.9782 0.77913 0.0
H2299 H 0.28594 0.95276 0.77648 0.0
H2300 H 0.29801 0.96379 0.7565 0.0
H2301 H 0.20486 0.99219 0.77036 0.0
H2302 H 0.21419 0.9754 0.7877 0.0
H2303 H 0.22369 0.00066 0.78932 0.0
H2304 H 0.24913 0.94587 0.83236 0.0
H2305 H 0.27129 0.00679 0.8362 0.0
H2306 H 0.25367 0.9364 0.78126 0.0
H2307 H 0.22907 0.94312 0.78503 0.0
H2308 H 0.24121 0.92782 0.80216 0.0
H2309 H 0.28057 0.00995 0.78574 0.0
H2310 H 0.27682 0.02444 0.80818 0.0
H2311 H 0.25669 0.01848 0.78989 0.0
C2312 C 0.60762 0.70871 0.35828 0.0
C2313 C 0.62743 0.71053 0.36553 0.0
C2314 C 0.59253 0.70299 0.37036 0.0
C2315 C 0.59736 0.69924 0.39028 0.0
C2316 C 0.61741 0.70035 0.39749 0.0
C2317 C 0.63224 0.70596 0.38499 0.0
C2318 C 0.57133 0.702 0.36209 0.0
C2319 C 0.62308 0.69659 0.41868 0.0
C2320 C 0.55717 0.71111 0.42457 0.0
C2321 C 0.54752 0.69243 0.42615 0.0
C2322 C 0.57389 0.71336 0.4136 0.0
C2323 C 0.58126 0.6965 0.40398 0.0
C2324 C 0.57222 0.67746 0.40627 0.0
C2325 C 0.55534 0.67565 0.41725 0.0
C2326 C 0.58301 0.73396 0.41145 0.0
C2327 C 0.57987 0.65913 0.39646 0.0
H2328 H 0.60388 0.7122 0.34321 0.0
H2329 H 0.64748 0.70783 0.39081 0.0
H2330 H 0.56364 0.68769 0.36508 0.0
H2331 H 0.56342 0.71395 0.36947 0.0
H2332 H 0.57019 0.70371 0.34593 0.0
H2333 H 0.63934 0.69779 0.42194 0.0
H2334 H 0.61638 0.70739 0.42876 0.0
H2335 H 0.61722 0.6816 0.42201 0.0
H2336 H 0.55105 0.72419 0.43107 0.0
H2337 H 0.54803 0.66116 0.41853 0.0
H2338 H 0.58085 0.73783 0.39588 0.0
H2339 H 0.59917 0.73458 0.4152 0.0
H2340 H 0.57642 0.74532 0.42102 0.0
H2341 H 0.57734 0.65934 0.3802 0.0
H2342 H 0.5725 0.64532 0.40128 0.0
H2343 H 0.59605 0.65884 0.39973 0.0
C2344 C 0.74323 0.27838 0.95394 0.0
C2345 C 0.73365 0.25943 0.95334 0.0
C2346 C 0.76396 0.28095 0.9555 0.0
C2347 C 0.77529 0.26413 0.95621 0.0
C2348 C 0.76566 0.24494 0.95494 0.0
C2349 C 0.74495 0.24283 0.95347 0.0
C2350 C 0.77373 0.30163 0.95663 0.0
C2351 C 0.77721 0.22662 0.95558 0.0
C2352 C 0.82935 0.26632 0.94468 0.0
C2353 C 0.8388 0.26675 0.96363 0.0
C2354 C 0.80868 0.26616 0.94204 0.0
C2355 C 0.79722 0.26645 0.95875 0.0
C2356 C 0.8067 0.26759 0.97793 0.0
C2357 C 0.82738 0.26772 0.98014 0.0
C2358 C 0.7991 0.26503 0.92135 0.0
C2359 C 0.79497 0.26791 -0.00388 0.0
H2360 H 0.73456 0.2912 0.953 0.0
H2361 H 0.73759 0.22814 0.95293 0.0
H2362 H 0.78389 0.30315 0.94454 0.0
H2363 H 0.76281 0.31313 0.9556 0.0
H2364 H 0.78277 0.30447 0.97076 0.0
H2365 H 0.76748 0.21276 0.95386 0.0
H2366 H 0.78771 0.22637 0.94369 0.0
H2367 H 0.78607 0.22683 0.96984 0.0
H2368 H 0.83812 0.26589 0.93187 0.0
H2369 H 0.83457 0.26785 -0.00518 0.0
H2370 H 0.78868 0.27689 0.91979 0.0
H2371 H 0.7904 0.25066 0.91837 0.0
H2372 H 0.81014 0.26641 0.91 0.0
H2373 H 0.78453 0.27986 -0.00428 0.0
H2374 H 0.8046 0.27019 0.00996 0.0
H2375 H 0.78604 0.25368 -0.00353 0.0
C2376 C 0.25308 0.77174 0.6107 0.0
C2377 C 0.25689 0.75838 0.62521 0.0
C2378 C 0.23508 0.77021 0.59921 0.0
C2379 C 0.22069 0.75486 0.60224 0.0
C2380 C 0.22428 0.74168 0.61724 0.0
C2381 C 0.24236 0.74356 0.62848 0.0
C2382 C 0.23178 0.78452 0.58335 0.0
C2383 C 0.20933 0.72509 0.62092 0.0
C2384 C 0.16718 0.75472 0.58241 0.0
C2385 C 0.16689 0.7411 0.56599 0.0
C2386 C 0.18479 0.76007 0.59389 0.0
C2387 C 0.20248 0.75154 0.58887 0.0
C2388 C 0.20243 0.73849 0.57181 0.0
C2389 C 0.18466 0.73348 0.56056 0.0
C2390 C 0.18428 0.7741 0.61192 0.0
C2391 C 0.221 0.72913 0.56589 0.0
H2392 H 0.26449 0.78276 0.6076 0.0
H2393 H 0.24529 0.73316 0.63963 0.0
H2394 H 0.22998 0.77635 0.56866 0.0
H2395 H 0.21795 0.79203 0.58556 0.0
H2396 H 0.24421 0.79594 0.58322 0.0
H2397 H 0.21388 0.71687 0.6339 0.0
H2398 H 0.19475 0.73104 0.62336 0.0
H2399 H 0.20734 0.71451 0.60776 0.0
H2400 H 0.15349 0.76055 0.5868 0.0
H2401 H 0.18459 0.72322 0.5477 0.0
H2402 H 0.19633 0.78594 0.61211 0.0
H2403 H 0.18671 0.76593 0.62542 0.0
H2404 H 0.16993 0.78109 0.6126 0.0
H2405 H 0.23315 0.74067 0.56494 0.0
H2406 H 0.21878 0.72043 0.55147 0.0
H2407 H 0.22585 0.71912 0.5773 0.0
C2408 C 0.34175 0.26477 0.05489 0.0
C2409 C 0.3273 0.26039 0.03941 0.0
C2410 C 0.36192 0.26474 0.05152 0.0
C2411 C 0.36776 0.26059 0.03213 0.0
C2412 C 0.35322 0.25583 0.0165 0.0
C2413 C 0.33313 0.25577 0.02034 0.0
C2414 C 0.37699 0.26965 0.06862 0.0
C2415 C 0.35885 0.25163 -0.00442 0.0
C2416 C 0.41813 0.28334 0.02149 0.0
C2417 C 0.42999 0.26716 0.02271 0.0
C2418 C 0.39778 0.28124 0.02398 0.0
C2419 C 0.38905 0.26256 0.02807 0.0
C2420 C 0.40081 0.24608 0.02903 0.0
C2421 C 0.42112 0.24855 0.02624 0.0
C2422 C 0.3857 0.29916 0.02268 0.0
C2423 C 0.39201 0.22595 0.03344 0.0
H2424 H 0.33724 0.26836 0.06964 0.0
H2425 H 0.32201 0.25298 0.00825 0.0
H2426 H 0.38773 0.25799 0.06937 0.0
H2427 H 0.38545 0.28379 0.0664 0.0
H2428 H 0.37005 0.27113 0.08297 0.0
H2429 H 0.34585 0.24667 0.98541 0.0
H2430 H 0.36604 0.26521 0.99013 0.0
H2431 H 0.3697 0.24006 -0.00495 0.0
H2432 H 0.42483 0.29785 0.01912 0.0
H2433 H 0.43007 0.23589 0.02691 0.0
H2434 H 0.37981 0.30289 0.03722 0.0
H2435 H 0.37285 0.29589 0.01189 0.0
H2436 H 0.39449 0.31233 0.01821 0.0
H2437 H 0.38601 0.22674 0.04827 0.0
H2438 H 0.40302 0.21449 0.03304 0.0
H2439 H 0.3795 0.22121 0.02262 0.0
C2440 C 0.38973 0.61896 0.73784 0.0
C2441 C 0.37964 0.62725 0.72212 0.0
C2442 C 0.39877 0.60106 0.73502 0.0
C2443 C 0.39741 0.59103 0.71606 0.0
C2444 C 0.38737 0.59943 0.70006 0.0
C2445 C 0.37859 0.61748 0.70329 0.0
C2446 C 0.40948 0.5927 0.75243 0.0
C2447 C 0.38537 0.58906 0.6797 0.0
C2448 C 0.43364 0.55112 0.70838 0.0
C2449 C 0.4224 0.5342 0.71308 0.0
C2450 C 0.4255 0.56969 0.70859 0.0
C2451 C 0.40563 0.57127 0.71342 0.0
C2452 C 0.39399 0.55406 0.71729 0.0
C2453 C 0.40255 0.53576 0.71717 0.0
C2454 C 0.4384 0.58773 0.70451 0.0
C2455 C 0.37267 0.55506 0.72226 0.0
H2456 H 0.39056 0.62652 0.7524 0.0
H2457 H 0.37031 0.62357 0.69124 0.0
H2458 H 0.40192 0.5784 0.75569 0.0
H2459 H 0.4248 0.58971 0.7489 0.0
H2460 H 0.41011 0.60286 0.76593 0.0
H2461 H 0.37831 0.5982 0.66858 0.0
H2462 H 0.40009 0.58536 0.67487 0.0
H2463 H 0.37631 0.57491 0.68004 0.0
H2464 H 0.44902 0.54996 0.7053 0.0
H2465 H 0.39375 0.52263 0.7205 0.0
H2466 H 0.44088 0.59763 0.71814 0.0
H2467 H 0.43096 0.59623 0.69313 0.0
H2468 H 0.453 0.5838 0.69943 0.0
H2469 H 0.37192 0.56358 0.73662 0.0
H2470 H 0.36521 0.54014 0.72326 0.0
H2471 H 0.36436 0.56294 0.71094 0.0
C2472 C 0.97273 0.75315 0.26474 0.0
C2473 C 0.97589 0.74387 0.24632 0.0
C2474 C 0.97108 0.77372 0.26693 0.0
C2475 C 0.97231 0.78514 0.25024 0.0
C2476 C 0.97511 0.77576 0.23154 0.0
C2477 C 0.97684 0.75525 0.22982 0.0
C2478 C 0.96801 0.78321 0.28708 0.0
C2479 C 0.97639 0.7874 0.21335 0.0
C2480 C 0.95119 0.83556 0.24853 0.0
C2481 C 0.96837 0.84828 0.25095 0.0
C2482 C 0.95215 0.81498 0.24904 0.0
C2483 C 0.97075 0.80694 0.25212 0.0
C2484 C 0.98805 0.81973 0.25541 0.0
C2485 C 0.98667 0.84024 0.25474 0.0
C2486 C 0.93336 0.80182 0.2455 0.0
C2487 C 0.00815 0.8117 0.25881 0.0
H2488 H 0.97112 0.74434 0.27736 0.0
H2489 H 0.9792 0.74813 0.21552 0.0
H2490 H 0.97994 0.79488 0.29129 0.0
H2491 H 0.95382 0.79051 0.28672 0.0
H2492 H 0.96781 0.77232 0.29864 0.0
H2493 H 0.97837 0.77781 0.19987 0.0
H2494 H 0.96276 0.79538 0.21093 0.0
H2495 H 0.98899 0.7987 0.21543 0.0
H2496 H 0.93696 0.84169 0.24595 0.0
H2497 H 4e-05 0.84993 0.25643 0.0
H2498 H 0.93212 0.7913 0.25731 0.0
H2499 H 0.93372 0.7929 0.23132 0.0
H2500 H 0.91997 0.81044 0.24491 0.0
H2501 H 0.00791 0.80123 0.27073 0.0
H2502 H 0.01989 0.82363 0.26284 0.0
H2503 H 0.01205 0.80335 0.24521 0.0
C2504 C 0.60428 0.25412 0.7696 0.0
C2505 C 0.62035 0.25712 0.75785 0.0
C2506 C 0.59335 0.23579 0.76877 0.0
C2507 C 0.59828 0.2203 0.75542 0.0
C2508 C 0.61446 0.22327 0.74348 0.0
C2509 C 0.6253 0.24164 0.74486 0.0
C2510 C 0.57624 0.23319 0.78177 0.0
C2511 C 0.62009 0.20716 0.72895 0.0
C2512 C 0.58152 0.16645 0.76004 0.0
C2513 C 0.56599 0.16365 0.74541 0.0
C2514 C 0.59158 0.18508 0.76417 0.0
C2515 C 0.5861 0.20121 0.75323 0.0
C2516 C 0.56986 0.19867 0.73905 0.0
C2517 C 0.55995 0.17992 0.73536 0.0
C2518 C 0.60858 0.18731 0.77965 0.0
C2519 C 0.56362 0.21548 0.727 0.0
H2520 H 0.59969 0.2663 0.77889 0.0
H2521 H 0.63761 0.24395 0.73562 0.0
H2522 H 0.56215 0.23167 0.77253 0.0
H2523 H 0.5773 0.21946 0.78975 0.0
H2524 H 0.57565 0.24591 0.79277 0.0
H2525 H 0.63331 0.21172 0.72103 0.0
H2526 H 0.62318 0.19365 0.73671 0.0
H2527 H 0.6076 0.20314 0.71789 0.0
H2528 H 0.58609 0.15392 0.76796 0.0
H2529 H 0.5481 0.17777 0.72389 0.0
H2530 H 0.60688 0.20022 0.79009 0.0
H2531 H 0.62264 0.19013 0.77246 0.0
H2532 H 0.60974 0.1739 0.78814 0.0
H2533 H 0.56131 0.22869 0.73681 0.0
H2534 H 0.54981 0.21147 0.71765 0.0
H2535 H 0.57552 0.21972 0.71727 0.0
C2536 C 0.02578 0.33577 0.25201 0.0
C2537 C 0.04416 0.32948 0.25865 0.0
C2538 C 0.02179 0.35586 0.25381 0.0
C2539 C 0.03647 0.36991 0.26262 0.0
C2540 C 0.05521 0.36368 0.26891 0.0
C2541 C 0.05879 0.34353 0.26692 0.0
C2542 C 0.00159 0.36191 0.24703 0.0
C2543 C 0.07127 0.37821 0.27836 0.0
C2544 C 0.03263 0.4251 0.25755 0.0
C2545 C 0.02576 0.4311 0.27588 0.0
C2546 C 0.03573 0.40513 0.25278 0.0
C2547 C 0.03185 0.39087 0.26667 0.0
C2548 C 0.02437 0.39677 0.28495 0.0
C2549 C 0.02141 0.4168 0.28932 0.0
C2550 C 0.0437 0.39937 0.23313 0.0
C2551 C 0.01992 0.38199 0.30012 0.0
H2552 H 0.01418 0.32493 0.24628 0.0
H2553 H 0.07301 0.3387 0.27211 0.0
H2554 H 0.99362 0.3669 0.26002 0.0
H2555 H 0.00296 0.37455 0.23746 0.0
H2556 H 0.99253 0.34957 0.23875 0.0
H2557 H 0.08542 0.37118 0.28126 0.0
H2558 H 0.07392 0.39062 0.26874 0.0
H2559 H 0.06651 0.38462 0.29257 0.0
H2560 H 0.03615 0.43611 0.24717 0.0
H2561 H 0.01578 0.42131 0.30337 0.0
H2562 H 0.03408 0.38719 0.2253 0.0
H2563 H 0.05861 0.39377 0.23553 0.0
H2564 H 0.04479 0.412 0.22349 0.0
H2565 H 0.00953 0.36979 0.29349 0.0
H2566 H 0.01337 0.38886 0.31325 0.0
H2567 H 0.03372 0.3753 0.30508 0.0
C2568 C 0.34975 0.56173 0.28292 0.0
C2569 C 0.34678 0.5818 0.28079 0.0
C2570 C 0.36882 0.55522 0.28602 0.0
C2571 C 0.38533 0.56911 0.28694 0.0
C2572 C 0.38254 0.58909 0.28312 0.0
C2573 C 0.36327 0.59521 0.28013 0.0
C2574 C 0.37117 0.53372 0.28966 0.0
C2575 C 0.3996 0.6045 0.28365 0.0
C2576 C 0.42771 0.55776 0.32237 0.0
C2577 C 0.44107 0.54984 0.30958 0.0
C2578 C 0.40975 0.56446 0.31511 0.0
C2579 C 0.40496 0.5632 0.29451 0.0
C2580 C 0.41857 0.5557 0.28144 0.0
C2581 C 0.43649 0.54909 0.28913 0.0
C2582 C 0.39567 0.57239 0.32957 0.0
C2583 C 0.41408 0.55454 0.25939 0.0
H2584 H 0.33712 0.55119 0.2832 0.0
H2585 H 0.36116 0.61072 0.27829 0.0
H2586 H 0.38297 0.52779 0.28083 0.0
H2587 H 0.37566 0.53236 0.30545 0.0
H2588 H 0.35725 0.52441 0.28597 0.0
H2589 H 0.39676 0.61545 0.2725 0.0
H2590 H 0.40106 0.61257 0.29841 0.0
H2591 H 0.41385 0.59802 0.28086 0.0
H2592 H 0.43131 0.55877 0.33816 0.0
H2593 H 0.44673 0.54294 0.27916 0.0
H2594 H 0.38285 0.56151 0.33014 0.0
H2595 H 0.38986 0.58635 0.32473 0.0
H2596 H 0.40277 0.57518 0.34471 0.0
H2597 H 0.40056 0.54473 0.25546 0.0
H2598 H 0.42642 0.5488 0.25118 0.0
H2599 H 0.41109 0.56944 0.25446 0.0
C2600 C 0.14013 0.39479 0.67211 0.0
C2601 C 0.1453 0.37575 0.6765 0.0
C2602 C 0.122 0.40179 0.67731 0.0
C2603 C 0.10881 0.38952 0.6873 0.0
C2604 C 0.11341 0.36987 0.69068 0.0
C2605 C 0.13156 0.36318 0.68513 0.0
C2606 C 0.11749 0.42273 0.67317 0.0
C2607 C 0.09976 0.35633 0.70133 0.0
C2608 C 0.07698 0.41529 0.72358 0.0
C2609 C 0.05845 0.4139 0.71318 0.0
C2610 C 0.09342 0.40735 0.71531 0.0
C2611 C 0.09133 0.39791 0.69607 0.0
C2612 C 0.07268 0.39653 0.68544 0.0
C2613 C 0.05641 0.40445 0.69418 0.0
C2614 C 0.11301 0.40894 0.72723 0.0
C2615 C 0.06996 0.38676 0.66483 0.0
H2616 H 0.15058 0.40454 0.66528 0.0
H2617 H 0.13541 0.34843 0.68856 0.0
H2618 H 0.10225 0.42311 0.66644 0.0
H2619 H 0.11838 0.43201 0.68724 0.0
H2620 H 0.128 0.42944 0.66316 0.0
H2621 H 0.10443 0.3409 0.70093 0.0
H2622 H 0.09959 0.36193 0.71699 0.0
H2623 H 0.0844 0.35618 0.69476 0.0
H2624 H 0.07854 0.42232 0.73839 0.0
H2625 H 0.04212 0.40348 0.68606 0.0
H2626 H 0.12431 0.4172 0.71925 0.0
H2627 H 0.11822 0.39394 0.72919 0.0
H2628 H 0.11209 0.41657 0.74204 0.0
H2629 H 0.08002 0.39435 0.655 0.0
H2630 H 0.05453 0.38704 0.65849 0.0
H2631 H 0.07392 0.37114 0.66496 0.0
C2632 C 0.85515 0.00042 0.70983 0.0
C2633 C 0.83767 0.01042 0.70875 0.0
C2634 C 0.87343 0.01012 0.70658 0.0
C2635 C 0.87423 0.0303 0.70222 0.0
C2636 C 0.85688 0.04084 0.70263 0.0
C2637 C 0.8388 0.03077 0.70588 0.0
C2638 C 0.89162 -0.00161 0.70641 0.0
C2639 C 0.85714 0.06243 0.69827 0.0
C2640 C 0.9238 0.05939 0.70022 0.0
C2641 C 0.92625 0.05845 0.67984 0.0
C2642 C 0.90704 0.05013 0.70784 0.0
C2643 C 0.89249 0.03967 0.69476 0.0
C2644 C 0.89509 0.03841 0.67423 0.0
C2645 C 0.91191 0.0478 0.66704 0.0
C2646 C 0.90475 0.05181 0.72981 0.0
C2647 C 0.88 0.02727 0.65977 0.0
H2648 H 0.85446 0.98473 0.71219 0.0
H2649 H 0.82541 0.03868 0.70523 0.0
H2650 H 0.89585 -0.00412 0.69099 0.0
H2651 H 0.90427 0.00672 0.71487 0.0
H2652 H 0.88913 0.98376 0.71271 0.0
H2653 H 0.84309 0.06908 0.70165 0.0
H2654 H 0.86952 0.07101 0.70691 0.0
H2655 H 0.85951 0.06391 0.68241 0.0
H2656 H 0.93477 0.06772 0.71017 0.0
H2657 H 0.9139 0.04672 0.65132 0.0
H2658 H 0.90251 0.03687 0.73544 0.0
H2659 H 0.89144 0.05988 0.73295 0.0
H2660 H 0.91779 0.05973 0.73806 0.0
H2661 H 0.87783 0.01166 0.66366 0.0
H2662 H 0.88442 0.0274 0.64431 0.0
H2663 H 0.86553 0.03394 0.66059 0.0
C2664 C 0.62624 0.96503 0.31541 0.0
C2665 C 0.63436 0.98207 0.30739 0.0
C2666 C 0.60628 0.95856 0.31116 0.0
C2667 C 0.59427 0.96928 0.29844 0.0
C2668 C 0.60215 0.98698 0.29108 0.0
C2669 C 0.62204 0.9932 0.29573 0.0
C2670 C 0.5983 0.93979 0.31954 0.0
C2671 C 0.5899 -0.00119 0.27739 0.0
C2672 C 0.55243 0.94249 0.266 0.0
C2673 C 0.53571 0.94887 0.27504 0.0
C2674 C 0.57155 0.94855 0.27384 0.0
C2675 C 0.57406 0.9612 0.29127 0.0
C2676 C 0.55724 0.96717 0.30086 0.0
C2677 C 0.53824 0.96106 0.29253 0.0
C2678 C 0.58907 0.94205 0.263 0.0
C2679 C 0.55933 0.98041 0.31962 0.0
H2680 H 0.63562 0.9564 0.32453 0.0
H2681 H 0.62811 0.00645 0.28954 0.0
H2682 H 0.58396 0.94211 0.32606 0.0
H2683 H 0.59556 0.92795 0.30752 0.0
H2684 H 0.60871 0.93454 0.33102 0.0
H2685 H 0.59782 0.01293 0.27404 0.0
H2686 H 0.58602 0.98993 0.26329 0.0
H2687 H 0.57585 0.00225 0.28397 0.0
H2688 H 0.55056 0.93329 0.25233 0.0
H2689 H 0.52534 0.96588 0.29965 0.0
H2690 H 0.59947 0.93493 0.27312 0.0
H2691 H 0.59721 0.95516 0.25763 0.0
H2692 H 0.58463 0.93148 0.25016 0.0
H2693 H 0.5696 0.97429 0.33063 0.0
H2694 H 0.54492 0.98222 0.32621 0.0
H2695 H 0.56576 -0.00475 0.31649 0.0
C2696 C 0.31295 0.37331 0.60653 0.0
C2697 C 0.29646 0.36013 0.60811 0.0
C2698 C 0.31122 0.39104 0.59723 0.0
C2699 C 0.29253 0.39578 0.58921 0.0
C2700 C 0.27559 0.3832 0.59182 0.0
C2701 C 0.27775 0.36544 0.6012 0.0
C2702 C 0.32958 0.40433 0.59517 0.0
C2703 C 0.25535 0.38822 0.58411 0.0
C2704 C 0.29343 0.44872 0.57409 0.0
C2705 C 0.29896 0.44629 0.55457 0.0
C2706 C 0.28954 0.43229 0.58522 0.0
C2707 C 0.29138 0.41298 0.57666 0.0
C2708 C 0.29529 0.41042 0.55646 0.0
C2709 C 0.29902 0.42709 0.54567 0.0
C2710 C 0.28489 0.4361 0.60648 0.0
C2711 C 0.29699 0.39009 0.5466 0.0
H2712 H 0.32744 0.36943 0.61187 0.0
H2713 H 0.26488 0.35547 0.6026 0.0
H2714 H 0.33248 0.40509 0.57934 0.0
H2715 H 0.32737 0.41959 0.6011 0.0
H2716 H 0.34286 0.39903 0.60301 0.0
H2717 H 0.24349 0.37772 0.58861 0.0
H2718 H 0.25241 0.40344 0.58961 0.0
H2719 H 0.25475 0.38793 0.56776 0.0
H2720 H 0.2933 0.46348 0.58115 0.0
H2721 H 0.30277 0.4251 0.53044 0.0
H2722 H 0.29835 0.44278 0.615 0.0
H2723 H 0.27961 0.42256 0.61346 0.0
H2724 H 0.27343 0.44707 0.6075 0.0
H2725 H 0.31066 0.38379 0.55256 0.0
H2726 H 0.29762 0.39047 0.53034 0.0
H2727 H 0.28429 0.37996 0.54982 0.0
C2728 C 0.28515 0.62725 0.97811 0.0
C2729 C 0.27463 0.63763 0.99207 0.0
C2730 C 0.27734 0.60916 0.96883 0.0
C2731 C 0.25848 0.60135 0.97348 0.0
C2732 C 0.24775 0.61181 0.98749 0.0
C2733 C 0.25599 0.62977 -0.00333 0.0
C2734 C 0.28926 0.59837 0.95406 0.0
C2735 C 0.22753 0.60406 0.99274 0.0
C2736 C 0.22984 0.56383 0.93709 0.0
C2737 C 0.23292 0.54596 0.94586 0.0
C2738 C 0.23817 0.58195 0.94586 0.0
C2739 C 0.24997 0.58222 0.96376 0.0
C2740 C 0.25338 0.56423 0.97253 0.0
C2741 C 0.24477 0.54634 0.96352 0.0
C2742 C 0.23418 0.60084 0.93606 0.0
C2743 C 0.2659 0.56391 0.9916 0.0
H2744 H 0.29957 0.63321 0.97449 0.0
H2745 H 0.24771 0.63773 0.00735 0.0
H2746 H 0.29201 0.58339 0.9589 0.0
H2747 H 0.28085 0.59637 0.93952 0.0
H2748 H 0.30372 0.60639 0.95213 0.0
H2749 H 0.22103 0.61411 0.00375 0.0
H2750 H 0.21736 0.60214 0.97928 0.0
H2751 H 0.22846 0.5893 -0.00118 0.0
H2752 H 0.22094 0.56365 0.92331 0.0
H2753 H 0.24698 0.53266 0.97057 0.0
H2754 H 0.24832 0.60866 0.93279 0.0
H2755 H 0.22666 0.6109 0.94622 0.0
H2756 H 0.22481 0.59808 0.9221 0.0
H2757 H 0.28078 0.57115 0.99003 0.0
H2758 H 0.26766 0.54863 -0.00383 0.0
H2759 H 0.25908 0.57243 0.00356 0.0
C2760 C 0.6766 0.12362 0.38097 0.0
C2761 C 0.67931 0.13972 0.39504 0.0
C2762 C 0.68066 0.10442 0.38603 0.0
C2763 C 0.68764 0.10131 0.40556 0.0
C2764 C 0.68921 0.11729 0.42007 0.0
C2765 C 0.68497 0.13627 0.41465 0.0
C2766 C 0.67856 0.0877 0.3702 0.0
C2767 C 0.69659 0.1146 0.44107 0.0
C2768 C 0.6908 0.04955 0.42376 0.0
C2769 C 0.71088 0.04645 0.42196 0.0
C2770 C 0.68284 0.06713 0.41802 0.0
C2771 C 0.69528 0.08197 0.41041 0.0
C2772 C 0.71546 0.07875 0.40821 0.0
C2773 C 0.72297 0.06102 0.41392 0.0
C2774 C 0.66124 0.07002 0.4205 0.0
C2775 C 0.72924 0.0942 0.40015 0.0
H2776 H 0.67212 0.12611 0.36581 0.0
H2777 H 0.68696 0.14858 0.42567 0.0
H2778 H 0.69344 0.0833 0.36652 0.0
H2779 H 0.67052 0.07453 0.37555 0.0
H2780 H 0.67062 0.09195 0.35649 0.0
H2781 H 0.69513 0.12801 0.45097 0.0
H2782 H 0.68835 0.10187 0.447 0.0
H2783 H 0.7124 0.1113 0.44142 0.0
H2784 H 0.68139 0.03844 0.4301 0.0
H2785 H 0.7384 0.05857 0.4121 0.0
H2786 H 0.65396 0.0741 0.40642 0.0
H2787 H 0.65978 0.0824 0.43164 0.0
H2788 H 0.65326 0.05653 0.42532 0.0
H2789 H 0.72343 0.09796 0.38534 0.0
H2790 H 0.74441 0.08919 0.39892 0.0
H2791 H 0.73012 0.10798 0.40992 0.0
C2792 C 0.68597 0.85752 0.97238 0.0
C2793 C 0.70273 0.84647 0.97389 0.0
C2794 C 0.68566 0.87621 0.98226 0.0
C2795 C 0.70261 0.88423 0.99382 0.0
C2796 C 0.71991 0.87358 -0.00527 0.0
C2797 C 0.71974 0.85474 0.98481 0.0
C2798 C 0.66687 0.88703 0.98095 0.0
C2799 C 0.73834 0.88179 0.00669 0.0
C2800 C 0.70059 0.939 0.00816 0.0
C2801 C 0.69248 0.93843 0.02664 0.0
C2802 C 0.70521 0.92152 -0.00224 0.0
C2803 C 0.70147 0.90306 0.00598 0.0
C2804 C 0.69436 0.90252 0.02511 0.0
C2805 C 0.69006 0.9202 0.03523 0.0
C2806 C 0.71302 0.92272 0.97751 0.0
C2807 C 0.69017 0.88315 0.03443 0.0
H2808 H 0.67277 0.85132 0.96392 0.0
H2809 H 0.73279 0.84634 0.98597 0.0
H2810 H 0.66091 0.88866 -0.00423 0.0
H2811 H 0.66996 0.90214 0.976 0.0
H2812 H 0.65529 0.87918 0.97061 0.0
H2813 H 0.75116 0.87273 0.00416 0.0
H2814 H 0.74224 0.89721 0.003 0.0
H2815 H 0.73562 0.88222 0.02263 0.0
H2816 H 0.70247 0.95301 0.00139 0.0
H2817 H 0.68425 0.91969 0.04971 0.0
H2818 H 0.70126 0.91716 0.96615 0.0
H2819 H 0.72565 0.91324 0.97592 0.0
H2820 H 0.71786 0.93813 0.97448 0.0
H2821 H 0.67765 0.87459 0.02598 0.0
H2822 H 0.68633 0.88538 0.05003 0.0
H2823 H 0.70318 0.87405 0.03392 0.0
C2824 C 0.57157 0.27074 0.36076 0.0
C2825 C 0.59053 0.27816 0.35662 0.0
C2826 C 0.56448 0.27398 0.37958 0.0
C2827 C 0.57659 0.28499 0.39454 0.0
C2828 C 0.59629 0.29104 0.39093 0.0
C2829 C 0.60307 0.28748 0.37202 0.0
C2830 C 0.54349 0.26697 0.38295 0.0
C2831 C 0.60969 0.30271 0.40654 0.0
C2832 C 0.55137 0.31906 0.42989 0.0
C2833 C 0.55242 0.30911 0.44738 0.0
C2834 C 0.55904 0.31123 0.41264 0.0
C2835 C 0.56781 0.29282 0.41273 0.0
C2836 C 0.56854 0.28241 0.43016 0.0
C2837 C 0.56088 0.29072 0.44733 0.0
C2838 C 0.55799 0.32285 0.39436 0.0
C2839 C 0.57766 0.26269 0.43076 0.0
H2840 H 0.56186 0.26331 0.34901 0.0
H2841 H 0.61775 0.29321 0.369 0.0
H2842 H 0.54271 0.26029 0.3974 0.0
H2843 H 0.53411 0.27981 0.38324 0.0
H2844 H 0.5372 0.25594 0.37114 0.0
H2845 H 0.62497 0.30505 0.40186 0.0
H2846 H 0.60381 0.31739 0.40979 0.0
H2847 H 0.61019 0.29499 0.42046 0.0
H2848 H 0.5445 0.33307 0.42967 0.0
H2849 H 0.5619 0.283 0.46082 0.0
H2850 H 0.54985 0.3138 0.382 0.0
H2851 H 0.57313 0.3265 0.38976 0.0
H2852 H 0.55055 0.33686 0.39672 0.0
H2853 H 0.571 0.25236 0.41855 0.0
H2854 H 0.5757 0.25578 0.44498 0.0
H2855 H 0.5937 0.26467 0.42861 0.0
C2856 C 0.97688 0.29869 0.61689 0.0
C2857 C 0.98946 0.29033 0.63073 0.0
C2858 C 0.96956 0.28787 0.59946 0.0
C2859 C 0.97485 0.26816 0.59586 0.0
C2860 C 0.98743 0.25957 0.60984 0.0
C2861 C -0.00533 0.2708 0.62706 0.0
C2862 C 0.95623 0.29755 0.58487 0.0
C2863 C 0.99327 0.23854 0.60662 0.0
C2864 C 0.94202 0.23479 0.55888 0.0
C2865 C 0.95269 0.23555 0.54186 0.0
C2866 C 0.94915 0.24517 0.57662 0.0
C2867 C 0.96735 0.25663 0.57734 0.0
C2868 C 0.97823 0.25738 0.56025 0.0
C2869 C 0.97079 0.24682 0.54274 0.0
C2870 C 0.93712 0.24401 0.59455 0.0
C2871 C -0.00227 0.26941 0.56045 0.0
H2872 H 0.97279 0.31377 0.6196 0.0
H2873 H 0.00435 0.2642 0.63771 0.0
H2874 H 0.96296 0.29782 0.57041 0.0
H2875 H 0.94183 0.28883 0.58244 0.0
H2876 H 0.95344 0.31296 0.58992 0.0
H2877 H 0.00268 0.23387 0.61922 0.0
H2878 H 0.97987 0.22825 0.60443 0.0
H2879 H 0.00148 0.23705 0.59304 0.0
H2880 H 0.92792 0.2263 0.55827 0.0
H2881 H 0.97927 0.24722 0.52974 0.0
H2882 H 0.93278 0.25899 0.59929 0.0
H2883 H 0.94614 0.23862 0.60701 0.0
H2884 H 0.92353 0.23402 0.59169 0.0
H2885 H -0.00441 0.28521 0.56446 0.0
H2886 H 0.00442 0.26835 0.54594 0.0
H2887 H 0.0083 0.26429 0.57181 0.0
C2888 C 0.35391 0.693 0.11018 0.0
C2889 C 0.36402 0.68606 0.12671 0.0
C2890 C 0.36386 0.69764 0.09338 0.0
C2891 C 0.38443 0.69535 0.09315 0.0
C2892 C 0.39441 0.68697 0.10918 0.0
C2893 C 0.38407 0.68236 0.12576 0.0
C2894 C 0.35262 0.70628 0.07647 0.0
C2895 C 0.41632 0.68423 0.10947 0.0
C2896 C 0.40935 0.70139 0.04499 0.0
C2897 C 0.4162 0.7214 0.04713 0.0
C2898 C 0.39914 0.69255 0.05992 0.0
C2899 C 0.39585 0.704 0.07739 0.0
C2900 C 0.40311 0.72409 0.07975 0.0
C2901 C 0.41315 0.73253 0.06459 0.0
C2902 C 0.39153 0.67113 0.05685 0.0
C2903 C 0.40008 0.73676 0.09824 0.0
H2904 H 0.33838 0.69571 0.11069 0.0
H2905 H 0.39199 0.6769 0.1384 0.0
H2906 H 0.35716 0.72227 0.07619 0.0
H2907 H 0.35612 0.69901 0.06216 0.0
H2908 H 0.33638 0.70472 0.07776 0.0
H2909 H 0.42129 0.67514 0.12165 0.0
H2910 H 0.42026 0.67708 0.09526 0.0
H2911 H 0.42458 0.69892 0.1114 0.0
H2912 H 0.41156 0.69278 0.03144 0.0
H2913 H 0.41869 0.74792 0.06641 0.0
H2914 H 0.37515 0.67007 0.05658 0.0
H2915 H 0.39697 0.66267 0.06931 0.0
H2916 H 0.39613 0.66403 0.04286 0.0
H2917 H 0.38404 0.73785 0.10002 0.0
H2918 H 0.40711 0.75197 0.09796 0.0
H2919 H 0.40633 0.72984 0.11139 0.0
C2920 C 0.01982 0.72175 0.84065 0.0
C2921 C -0.00026 0.71606 0.8364 0.0
C2922 C 0.02903 0.71919 0.85928 0.0
C2923 C 0.01793 0.71053 0.87389 0.0
C2924 C -0.00265 0.70614 0.87016 0.0
C2925 C 0.98848 0.70907 0.8515 0.0
C2926 C 0.05093 0.72446 0.86283 0.0
C2927 C 0.98498 0.69683 0.88531 0.0
C2928 C 0.04444 0.67728 0.90807 0.0
C2929 C 0.04652 0.68888 0.92595 0.0
C2930 C 0.03525 0.68424 0.8911 0.0
C2931 C 0.0282 0.70348 0.89184 0.0
C2932 C 0.03061 0.71551 0.90967 0.0
C2933 C 0.03966 0.70803 0.92657 0.0
C2934 C 0.03294 0.67089 0.87238 0.0
C2935 C 0.02347 0.73616 0.91094 0.0
H2936 H 0.02859 0.72739 0.82915 0.0
H2937 H 0.97292 0.70475 0.84842 0.0
H2938 H 0.05422 0.73238 0.87752 0.0
H2939 H 0.05897 0.7107 0.86267 0.0
H2940 H 0.05672 0.73386 0.85136 0.0
H2941 H 0.9689 0.69665 0.88113 0.0
H2942 H 0.98898 0.68135 0.88683 0.0
H2943 H 0.98794 0.70487 0.89998 0.0
H2944 H 0.05012 0.66268 0.90727 0.0
H2945 H 0.04106 0.71706 0.94033 0.0
H2946 H 0.04049 0.67808 0.8604 0.0
H2947 H 0.01706 0.66837 0.86748 0.0
H2948 H 0.03913 0.65629 0.87431 0.0
H2949 H 0.02987 0.74496 0.89936 0.0
H2950 H 0.02744 0.74403 0.92558 0.0
H2951 H 0.00717 0.73548 0.90823 0.0
C2952 C 0.61836 0.39432 0.68635 0.0
C2953 C 0.63249 0.40373 0.67525 0.0
C2954 C 0.59952 0.40146 0.68776 0.0
C2955 C 0.59476 0.41862 0.67807 0.0
C2956 C 0.60893 0.42819 0.66681 0.0
C2957 C 0.62761 0.42059 0.66548 0.0
C2958 C 0.58476 0.39075 0.69978 0.0
C2959 C 0.60439 0.44654 0.65634 0.0
C2960 C 0.53998 0.42658 0.67117 0.0
C2961 C 0.53713 0.43895 0.68792 0.0
C2962 C 0.55883 0.4205 0.66725 0.0
C2963 C 0.57519 0.42688 0.68046 0.0
C2964 C 0.57257 0.44011 0.69686 0.0
C2965 C 0.55357 0.44592 0.70043 0.0
C2966 C 0.56096 0.40647 0.64953 0.0
C2967 C 0.5897 0.44748 0.71113 0.0
H2968 H 0.62201 0.38134 0.69399 0.0
H2969 H 0.63843 0.42793 0.65683 0.0
H2970 H 0.58099 0.40066 0.7124 0.0
H2971 H 0.57087 0.38667 0.69063 0.0
H2972 H 0.59045 0.37711 0.70564 0.0
H2973 H 0.61692 0.45206 0.64793 0.0
H2974 H 0.59118 0.44343 0.64598 0.0
H2975 H 0.60089 0.45846 0.66723 0.0
H2976 H 0.52739 0.42136 0.66128 0.0
H2977 H 0.55151 0.4553 0.71353 0.0
H2978 H 0.56279 0.39142 0.65456 0.0
H2979 H 0.57425 0.41084 0.64168 0.0
H2980 H 0.5478 0.40578 0.63894 0.0
H2981 H 0.59515 0.43496 0.71921 0.0
H2982 H 0.58553 0.45907 0.72208 0.0
H2983 H 0.60214 0.45364 0.70302 0.0
C2984 C 0.85729 0.59741 0.26745 0.0
C2985 C 0.84583 0.59132 0.28278 0.0
C2986 C 0.87604 0.59027 0.26499 0.0
C2987 C 0.88352 0.5768 0.27822 0.0
C2988 C 0.87191 0.57039 0.29353 0.0
C2989 C 0.8532 0.57768 0.29559 0.0
C2990 C 0.88795 0.59734 0.24842 0.0
C2991 C 0.87938 0.55606 0.30797 0.0
C2992 C 0.92533 0.54432 0.26605 0.0
C2993 C 0.94138 0.55425 0.27722 0.0
C2994 C 0.90654 0.55191 0.26555 0.0
C2995 C 0.90373 0.5698 0.27657 0.0
C2996 C 0.92004 0.58029 0.28722 0.0
C2997 C 0.93867 0.5724 0.28741 0.0
C2998 C 0.88955 0.5404 0.25385 0.0
C2999 C 0.91765 0.59938 0.2992 0.0
H3000 H 0.85168 0.60789 0.25744 0.0
H3001 H 0.84447 0.57287 0.30746 0.0
H3002 H 0.90178 0.60557 0.2546 0.0
H3003 H 0.89228 0.5845 0.23913 0.0
H3004 H 0.87968 0.60716 0.23888 0.0
H3005 H 0.86836 0.55222 0.3188 0.0
H3006 H 0.88319 0.54222 0.29993 0.0
H3007 H 0.89308 0.56259 0.31619 0.0
H3008 H 0.9274 0.53041 0.25796 0.0
H3009 H 0.95093 0.58003 0.29628 0.0
H3010 H 0.88164 0.55022 0.24404 0.0
H3011 H 0.87877 0.53461 0.26408 0.0
H3012 H 0.89451 0.52773 0.24471 0.0
H3013 H 0.91018 0.61 0.28997 0.0
H3014 H 0.93204 0.60648 0.30542 0.0
H3015 H 0.90816 0.59641 0.31156 0.0
C3016 C 0.14916 0.96834 0.26701 0.0
C3017 C 0.15684 0.98597 0.27728 0.0
C3018 C 0.12882 0.96505 0.26202 0.0
C3019 C 0.11585 0.97978 0.26733 0.0
C3020 C 0.12359 -0.00213 0.27709 0.0
C3021 C 0.14398 0.00074 0.28198 0.0
C3022 C 0.12112 0.94555 0.2516 0.0
C3023 C 0.11025 0.014 0.28285 0.0
C3024 C 0.06443 0.97606 0.24154 0.0
C3025 C 0.05315 0.96696 0.25552 0.0
C3026 C 0.0848 0.98063 0.2453 0.0
C3027 C 0.09412 0.97589 0.26342 0.0
C3028 C 0.08275 0.96701 0.27772 0.0
C3029 C 0.06239 0.96271 0.27361 0.0
C3030 C 0.09639 0.99028 0.22978 0.0
C3031 C 0.09217 0.96165 0.29719 0.0
H3032 H 0.15898 0.95685 0.26331 0.0
H3033 H 0.14978 0.01445 0.28983 0.0
H3034 H 0.1112 0.93744 0.26119 0.0
H3035 H 0.11226 0.94817 0.23788 0.0
H3036 H 0.13321 0.936 0.24773 0.0
H3037 H 0.1187 0.02765 0.28929 0.0
H3038 H 0.101 0.0178 0.2698 0.0
H3039 H 0.10007 0.00865 0.29385 0.0
H3040 H 0.0573 0.97956 0.22761 0.0
H3041 H 0.0538 0.95545 0.28436 0.0
H3042 H 0.10775 0.98038 0.22472 0.0
H3043 H 0.1043 0.00424 0.23612 0.0
H3044 H 0.08681 0.99366 0.21676 0.0
H3045 H 0.10338 0.95071 0.29454 0.0
H3046 H 0.08119 0.95526 0.30691 0.0
H3047 H 0.09996 0.97495 0.30508 0.0
C3048 C 0.35816 0.02149 0.69005 0.0
C3049 C 0.34677 0.01648 0.70578 0.0
C3050 C 0.37789 0.02891 0.69337 0.0
C3051 C 0.38649 0.0314 0.71291 0.0
C3052 C 0.37512 0.02636 0.72888 0.0
C3053 C 0.35538 0.01896 0.72512 0.0
C3054 C 0.38954 0.03412 0.67594 0.0
C3055 C 0.38379 0.02881 0.7499 0.0
C3056 C 0.44261 0.03407 0.7175 0.0
C3057 C 0.44721 0.05458 0.71915 0.0
C3058 C 0.4229 0.02628 0.71617 0.0
C3059 C 0.40741 0.03933 0.71649 0.0
C3060 C 0.41196 0.06003 0.71891 0.0
C3061 C 0.4318 0.0674 0.72021 0.0
C3062 C 0.41866 0.00412 0.71361 0.0
C3063 C 0.39586 0.07442 0.71943 0.0
H3064 H 0.35166 0.01963 0.67505 0.0
H3065 H 0.34669 0.01512 0.73737 0.0
H3066 H 0.39477 0.05 0.67749 0.0
H3067 H 0.40281 0.02539 0.67549 0.0
H3068 H 0.38069 0.03126 0.66167 0.0
H3069 H 0.373 0.02419 0.76066 0.0
H3070 H 0.39689 0.0199 0.75158 0.0
H3071 H 0.38892 0.04452 0.75364 0.0
H3072 H 0.45442 0.02407 0.71645 0.0
H3073 H 0.43526 0.08326 0.72177 0.0
H3074 H 0.41139 0.0001 0.69875 0.0
H3075 H 0.40831 -0.00089 0.72459 0.0
H3076 H 0.43231 -0.00403 0.71522 0.0
H3077 H 0.38733 0.07349 0.70494 0.0
H3078 H 0.40185 0.08996 0.72277 0.0
H3079 H 0.38536 0.07052 0.7307 0.0
C3080 C 0.66017 0.62643 0.41942 0.0
C3081 C 0.66913 0.63334 0.40287 0.0
C3082 C 0.66321 0.6074 0.42561 0.0
C3083 C 0.67526 0.59494 0.41481 0.0
C3084 C 0.68407 0.60174 0.39791 0.0
C3085 C 0.68113 0.62096 0.39232 0.0
C3086 C 0.65372 0.60072 0.44381 0.0
C3087 C 0.69668 0.58876 0.38575 0.0
C3088 C 0.70159 0.55447 0.43952 0.0
C3089 C 0.68978 0.53749 0.43266 0.0
C3090 C 0.69664 0.57331 0.43433 0.0
C3091 C 0.67959 0.57519 0.42173 0.0
C3092 C 0.66733 0.55813 0.41512 0.0
C3093 C 0.67252 0.53944 0.42079 0.0
C3094 C 0.70991 0.59116 0.44197 0.0
C3095 C 0.6492 0.55954 0.40144 0.0
H3096 H 0.65085 0.63593 0.42762 0.0
H3097 H 0.6881 0.62621 0.37953 0.0
H3098 H 0.64432 0.58687 0.44015 0.0
H3099 H 0.66533 0.59738 0.45509 0.0
H3100 H 0.64449 0.61206 0.45036 0.0
H3101 H 0.70172 0.59598 0.37253 0.0
H3102 H 0.70987 0.58506 0.39488 0.0
H3103 H 0.68824 0.57462 0.38083 0.0
H3104 H 0.71482 0.55296 0.44891 0.0
H3105 H 0.66346 0.52628 0.4154 0.0
H3106 H 0.70112 0.60238 0.44933 0.0
H3107 H 0.71674 0.59814 0.42945 0.0
H3108 H 0.72189 0.58729 0.4526 0.0
H3109 H 0.63976 0.57102 0.40731 0.0
H3110 H 0.64023 0.54523 0.39916 0.0
H3111 H 0.65378 0.56405 0.3869 0.0
C3112 C 0.70404 0.35989 0.03018 0.0
C3113 C 0.71689 0.35174 0.01695 0.0
C3114 C 0.70721 0.37953 0.03798 0.0
C3115 C 0.72369 0.39131 0.03251 0.0
C3116 C 0.7371 0.383 0.01971 0.0
C3117 C 0.73352 0.36332 0.01203 0.0
C3118 C 0.69254 0.38786 0.05158 0.0
C3119 C 0.75491 0.39507 0.01365 0.0
C3120 C 0.71755 0.44659 0.03512 0.0
C3121 C 0.72727 0.45277 0.05344 0.0
C3122 C 0.71683 0.42674 0.02789 0.0
C3123 C 0.72607 0.41267 0.03922 0.0
C3124 C 0.73649 0.41888 0.05741 0.0
C3125 C 0.73692 0.43887 0.06434 0.0
C3126 C 0.70548 0.42071 0.00846 0.0
C3127 C 0.74667 0.40433 0.06982 0.0
H3128 H 0.69119 0.35105 0.03412 0.0
H3129 H 0.74359 0.35711 0.00191 0.0
H3130 H 0.70029 0.39428 0.06554 0.0
H3131 H 0.68509 0.39999 0.04455 0.0
H3132 H 0.68107 0.37648 0.05518 0.0
H3133 H 0.76473 0.386 0.00485 0.0
H3134 H 0.75 0.40722 0.0047 0.0
H3135 H 0.76359 0.40202 0.02688 0.0
H3136 H 0.70978 0.45716 0.02676 0.0
H3137 H 0.74461 0.44359 0.07842 0.0
H3138 H 0.69256 0.41056 0.011 0.0
H3139 H 0.71492 0.41255 -0.00155 0.0
H3140 H 0.7001 0.43363 0.00092 0.0
H3141 H 0.73548 0.39362 0.07513 0.0
H3142 H 0.7554 0.41176 0.08282 0.0
H3143 H 0.75666 0.39571 0.06082 0.0
C3144 C 0.24967 0.87009 0.60013 0.0
C3145 C 0.26404 0.86321 0.61326 0.0
C3146 C 0.25144 0.88947 0.59388 0.0
C3147 C 0.26794 0.90226 0.60097 0.0
C3148 C 0.28199 0.89568 0.61491 0.0
C3149 C 0.27989 0.87626 0.62086 0.0
C3150 C 0.23613 0.89596 0.57903 0.0
C3151 C 0.29975 0.90888 0.62288 0.0
C3152 C 0.28841 0.94148 0.56894 0.0
C3153 C 0.28214 0.9589 0.57805 0.0
C3154 C 0.2833 0.92293 0.57588 0.0
C3155 C 0.27168 0.92174 0.59243 0.0
C3156 C 0.26475 0.93922 0.60134 0.0
C3157 C 0.27 0.95764 0.59397 0.0
C3158 C 0.29082 0.90465 0.56581 0.0
C3159 C 0.25236 0.93852 0.61902 0.0
H3160 H 0.23733 0.86016 0.59425 0.0
H3161 H 0.29098 0.87115 0.63114 0.0
H3162 H 0.23095 0.91054 0.58396 0.0
H3163 H 0.24285 0.89775 0.56471 0.0
H3164 H 0.22316 0.8851 0.5766 0.0
H3165 H 0.30837 0.90217 0.63487 0.0
H3166 H 0.30963 0.91177 0.6108 0.0
H3167 H 0.29506 0.9234 0.62865 0.0
H3168 H 0.29748 0.94239 0.55639 0.0
H3169 H 0.26516 0.9711 0.60104 0.0
H3170 H 0.27834 0.89364 0.56142 0.0
H3171 H 0.30104 0.89766 0.57623 0.0
H3172 H 0.29877 0.90803 0.55248 0.0
H3173 H 0.23954 0.9276 0.61597 0.0
H3174 H 0.24684 0.95318 0.62324 0.0
H3175 H 0.26129 0.9336 0.63179 0.0
C3176 C 0.32007 0.14853 0.00301 0.0
C3177 C 0.30932 0.16332 -0.00532 0.0
C3178 C 0.31741 0.12874 -0.00453 0.0
C3179 C 0.3037 0.12365 0.9792 0.0
C3180 C 0.29343 0.13863 0.97021 0.0
C3181 C 0.29635 0.15828 0.97806 0.0
C3182 C 0.32868 0.11318 0.00542 0.0
C3183 C 0.27876 0.1338 0.95276 0.0
C3184 C 0.30395 0.07362 0.95071 0.0
C3185 C 0.28826 0.06298 0.95866 0.0
C3186 C 0.30939 0.09332 0.95744 0.0
C3187 C 0.29893 0.10251 0.9725 0.0
C3188 C 0.28338 0.09167 0.98086 0.0
C3189 C 0.27824 0.07207 0.97384 0.0
C3190 C 0.32602 0.10442 0.94815 0.0
C3191 C 0.27195 0.10089 -0.00296 0.0
H3192 H 0.33019 0.15229 0.0158 0.0
H3193 H 0.28807 0.16962 0.97144 0.0
H3194 H 0.31823 0.10305 0.01255 0.0
H3195 H 0.33614 0.10409 -0.00564 0.0
H3196 H 0.33996 0.11976 0.01684 0.0
H3197 H 0.27312 0.1473 0.94654 0.0
H3198 H 0.28564 0.12513 0.94094 0.0
H3199 H 0.26601 0.1245 0.95733 0.0
H3200 H 0.31163 0.06671 0.93886 0.0
H3201 H 0.26631 0.0638 0.98025 0.0
H3202 H 0.33731 0.11062 0.9597 0.0
H3203 H 0.32023 0.11708 0.94053 0.0
H3204 H 0.3333 0.09487 0.93729 0.0
H3205 H 0.2822 0.1065 0.00973 0.0
H3206 H 0.26066 0.09027 0.00237 0.0
H3207 H 0.2644 0.11374 0.99158 0.0
C3208 C 0.41597 0.66167 0.62087 0.0
C3209 C 0.39988 0.67243 0.62612 0.0
C3210 C 0.42323 0.6625 0.60201 0.0
C3211 C 0.41397 0.67413 0.588 0.0
C3212 C 0.39744 0.68465 0.5931 0.0
C3213 C 0.3908 0.68393 0.61219 0.0
C3214 C 0.44102 0.65125 0.5972 0.0
C3215 C 0.38684 0.69683 0.57844 0.0
C3216 C 0.44311 0.69521 0.54739 0.0
C3217 C 0.43655 0.68246 0.53103 0.0
C3218 C 0.43628 0.6923 0.5661 0.0
C3219 C 0.42232 0.67637 0.56847 0.0
C3220 C 0.41591 0.66317 0.55207 0.0
C3221 C 0.42325 0.66629 0.53351 0.0
C3222 C 0.44372 0.70652 0.58327 0.0
C3223 C 0.40084 0.64619 0.55399 0.0
H3224 H 0.42305 0.65276 0.6316 0.0
H3225 H 0.37835 0.69225 0.61616 0.0
H3226 H 0.43749 0.64111 0.58388 0.0
H3227 H 0.45334 0.66176 0.5938 0.0
H3228 H 0.44616 0.64243 0.60954 0.0
H3229 H 0.37347 0.70307 0.58434 0.0
H3230 H 0.39696 0.70923 0.57443 0.0
H3231 H 0.38235 0.68761 0.56469 0.0
H3232 H 0.45355 0.70761 0.54548 0.0
H3233 H 0.41808 0.65651 0.52081 0.0
H3234 H 0.44977 0.69825 0.59561 0.0
H3235 H 0.43128 0.71468 0.5888 0.0
H3236 H 0.45539 0.71745 0.57917 0.0
H3237 H 0.4058 0.63686 0.56594 0.0
H3238 H 0.39812 0.63671 0.54007 0.0
H3239 H 0.38664 0.65206 0.55808 0.0
C3240 C 0.02438 0.74108 0.35712 0.0
C3241 C 0.01128 0.72469 0.35118 0.0
C3242 C 0.03271 0.74377 0.37659 0.0
C3243 C 0.02791 0.72968 0.39038 0.0
C3244 C 0.0144 0.71334 0.38457 0.0
C3245 C 0.00622 0.71108 0.36507 0.0
C3246 C 0.04695 0.76144 0.38229 0.0
C3247 C 0.00894 0.69795 0.39882 0.0
C3248 C 0.06356 0.72202 0.43392 0.0
C3249 C 0.05429 0.73101 0.44969 0.0
C3250 C 0.05546 0.72206 0.41447 0.0
C3251 C 0.03766 0.73137 0.41065 0.0
C3252 C 0.0286 0.74112 0.42641 0.0
C3253 C 0.03698 0.74075 0.44577 0.0
C3254 C 0.06553 0.7114 0.39811 0.0
C3255 C 0.00971 0.75137 0.42289 0.0
H3256 H 0.02831 0.75172 0.3465 0.0
H3257 H -0.0039 0.69839 0.36065 0.0
H3258 H 0.04214 0.76977 0.39551 0.0
H3259 H 0.06182 0.75637 0.38622 0.0
H3260 H 0.04822 0.77166 0.37019 0.0
H3261 H -0.00229 0.68649 0.39217 0.0
H3262 H 0.02232 0.69052 0.40375 0.0
H3263 H 0.00306 0.70511 0.41215 0.0
H3264 H 0.07677 0.71421 0.43686 0.0
H3265 H 0.02985 0.74787 0.45789 0.0
H3266 H 0.06812 0.72134 0.38602 0.0
H3267 H 0.05581 0.69854 0.39177 0.0
H3268 H 0.0799 0.70597 0.40334 0.0
H3269 H 0.01134 0.76186 0.41109 0.0
H3270 H 0.00542 0.75962 0.43642 0.0
H3271 H -0.00248 0.74027 0.41779 0.0
C3272 C 0.61143 0.24198 0.87083 0.0
C3273 C 0.60496 0.25638 0.85838 0.0
C3274 C 0.60337 0.2397 0.88919 0.0
C3275 C 0.58845 0.25205 0.89515 0.0
C3276 C 0.58152 0.26624 0.88242 0.0
C3277 C 0.58988 0.26826 0.86424 0.0
C3278 C 0.61117 0.22447 0.90241 0.0
C3279 C 0.56554 0.27963 0.88818 0.0
C3280 C 0.5545 0.24042 0.93587 0.0
C3281 C 0.56241 0.25381 0.9513 0.0
C3282 C 0.56339 0.23891 0.91776 0.0
C3283 C 0.58064 0.251 0.91506 0.0
C3284 C 0.58935 0.26365 0.93094 0.0
C3285 C 0.58009 0.26497 0.94881 0.0
C3286 C 0.55373 0.22517 0.90119 0.0
C3287 C 0.60782 0.27671 0.92869 0.0
H3288 H 0.62307 0.23273 0.86641 0.0
H3289 H 0.58468 0.27932 0.85467 0.0
H3290 H 0.61873 0.23201 0.91598 0.0
H3291 H 0.5988 0.21474 0.9071 0.0
H3292 H 0.62179 0.2151 0.89506 0.0
H3293 H 0.5612 0.28929 0.87624 0.0
H3294 H 0.55223 0.27066 0.89194 0.0
H3295 H 0.57077 0.28918 0.90152 0.0
H3296 H 0.54103 0.2315 0.93777 0.0
H3297 H 0.58621 0.27556 0.96049 0.0
H3298 H 0.56481 0.21597 0.89445 0.0
H3299 H 0.54738 0.23402 0.88946 0.0
H3300 H 0.5417 0.21523 0.90628 0.0
H3301 H 0.6194 0.26792 0.92228 0.0
H3302 H 0.61388 0.28409 0.94299 0.0
H3303 H 0.60442 0.2883 0.91839 0.0
C3304 C 0.0136 0.31348 0.13973 0.0
C3305 C 0.00339 0.30803 0.15612 0.0
C3306 C 0.00488 0.31014 0.12049 0.0
C3307 C 0.98545 0.30118 0.11757 0.0
C3308 C 0.97478 0.29636 0.13408 0.0
C3309 C 0.98388 0.29983 0.15315 0.0
C3310 C 0.01671 0.31552 0.10325 0.0
C3311 C 0.95401 0.28687 0.13156 0.0
C3312 C 0.95758 0.30316 0.06759 0.0
C3313 C 0.96042 0.28439 0.05877 0.0
C3314 C 0.96564 0.30889 0.08674 0.0
C3315 C 0.97685 0.29555 0.09724 0.0
C3316 C 0.97986 0.27664 0.08835 0.0
C3317 C 0.97161 0.27131 0.06924 0.0
C3318 C 0.96205 0.32913 0.0958 0.0
C3319 C 0.99183 0.26204 0.099 0.0
H3320 H 0.02865 0.31991 0.14187 0.0
H3321 H 0.97583 0.29567 0.16573 0.0
H3322 H 0.01971 0.30186 0.09442 0.0
H3323 H 0.00817 0.32479 0.09339 0.0
H3324 H 0.03106 0.32366 0.10805 0.0
H3325 H 0.94719 0.28542 0.1459 0.0
H3326 H 0.94453 0.29568 0.12209 0.0
H3327 H 0.95419 0.2719 0.12405 0.0
H3328 H 0.9488 0.31326 0.05963 0.0
H3329 H 0.97411 0.2569 0.06238 0.0
H3330 H 0.97635 0.33756 0.09996 0.0
H3331 H 0.95418 0.32763 0.10952 0.0
H3332 H 0.95317 0.33782 0.08562 0.0
H3333 H 0.00701 0.26861 0.10296 0.0
H3334 H 0.99284 0.24797 0.08997 0.0
H3335 H 0.98508 0.25859 0.11296 0.0
loop_
_geom_bond_atom_site_label_1
_geom_bond_atom_site_label_2
_geom_bond_distance
_geom_bond_site_symmetry_2
_ccdc_geom_bond_type
O0 Cd1 2.300 . S
O0 C7 1.275 . S
Cd1 O0 2.300 . S
Cd1 O9 2.381 . S
Cd1 O10 2.378 . S
O2 Cd3 2.385 . S
O2 C7 1.255 . S
Cd3 O2 2.385 . S
Cd3 O4 2.317 . S
O4 Cd3 2.317 . S
O4 C5 1.232 . S
C5 O4 1.232 . S
C5 O6 1.218 . S
O6 C5 1.218 . S
C7 O0 1.275 . S
C7 O2 1.255 . S
C8 O9 1.258 . S
C8 O10 1.256 . S
O9 Cd1 2.381 . S
O9 C8 1.258 . S
O10 Cd1 2.378 . S
O10 C8 1.256 . S
O11 Cd12 2.300 . S
O11 C18 1.275 . S
Cd12 O11 2.300 . S
Cd12 O20 2.381 . S
Cd12 O21 2.378 . S
O13 Cd14 2.385 . S
O13 C18 1.255 . S
Cd14 O13 2.385 . S
Cd14 O15 2.317 . S
O15 Cd14 2.317 . S
O15 C16 1.232 . S
C16 O15 1.232 . S
C16 O17 1.218 . S
O17 C16 1.218 . S
C18 O11 1.275 . S
C18 O13 1.255 . S
C19 O20 1.258 . S
C19 O21 1.256 . S
O20 Cd12 2.381 . S
O20 C19 1.258 . S
O21 Cd12 2.378 . S
O21 C19 1.256 . S
O22 Cd23 2.300 . S
O22 C29 1.275 . S
Cd23 O22 2.300 . S
Cd23 O31 2.381 1_565 S
Cd23 O32 2.378 . S
O24 Cd25 2.385 . S
O24 C29 1.255 . S
Cd25 O24 2.385 . S
Cd25 O26 2.317 . S
O26 Cd25 2.317 . S
O26 C27 1.232 . S
C27 O26 1.232 . S
C27 O28 1.218 . S
O28 C27 1.218 . S
C29 O22 1.275 . S
C29 O24 1.255 . S
C30 O31 1.258 . S
C30 O32 1.256 1_545 S
O31 Cd23 2.381 1_545 S
O31 C30 1.258 . S
O32 Cd23 2.378 . S
O32 C30 1.256 1_565 S
O33 Cd34 2.300 . S
O33 C40 1.275 . S
Cd34 O33 2.300 . S
Cd34 O42 2.381 1_545 S
Cd34 O43 2.378 . S
O35 Cd36 2.385 . S
O35 C40 1.255 . S
Cd36 O35 2.385 . S
Cd36 O37 2.317 . S
O37 Cd36 2.317 . S
O37 C38 1.232 . S
C38 O37 1.232 . S
C38 O39 1.218 . S
O39 C38 1.218 . S
C40 O33 1.275 . S
C40 O35 1.255 . S
C41 O42 1.258 . S
C41 O43 1.256 1_565 S
O42 Cd34 2.381 1_565 S
O42 C41 1.258 . S
O43 Cd34 2.378 . S
O43 C41 1.256 1_545 S
O44 Cd45 2.300 . S
O44 C51 1.275 . S
Cd45 O44 2.300 . S
Cd45 O53 2.381 . S
Cd45 O54 2.378 . S
O46 Cd47 2.385 . S
O46 C51 1.255 . S
Cd47 O46 2.385 . S
Cd47 O48 2.317 . S
O48 Cd47 2.317 . S
O48 C49 1.232 . S
C49 O48 1.232 . S
C49 O50 1.218 . S
O50 C49 1.218 . S
C51 O44 1.275 . S
C51 O46 1.255 . S
C52 O53 1.258 . S
C52 O54 1.256 . S
O53 Cd45 2.381 . S
O53 C52 1.258 . S
O54 Cd45 2.378 . S
O54 C52 1.256 . S
O55 Cd56 2.300 . S
O55 C62 1.275 . S
Cd56 O55 2.300 . S
Cd56 O64 2.381 1_554 S
Cd56 O65 2.378 . S
O57 Cd58 2.385 . S
O57 C62 1.255 . S
Cd58 O57 2.385 . S
Cd58 O59 2.317 . S
O59 Cd58 2.317 . S
O59 C60 1.232 . S
C60 O59 1.232 . S
C60 O61 1.218 . S
O61 C60 1.218 . S
C62 O55 1.275 . S
C62 O57 1.255 . S
C63 O64 1.258 . S
C63 O65 1.256 1_556 S
O64 Cd56 2.381 1_556 S
O64 C63 1.258 . S
O65 Cd56 2.378 . S
O65 C63 1.256 1_554 S
O66 Cd67 2.300 . S
O66 C73 1.275 . S
Cd67 O66 2.300 . S
Cd67 O75 2.381 . S
Cd67 O76 2.378 . S
O68 Cd69 2.385 . S
O68 C73 1.255 . S
Cd69 O68 2.385 . S
Cd69 O70 2.317 . S
O70 Cd69 2.317 . S
O70 C71 1.232 . S
C71 O70 1.232 . S
C71 O72 1.218 . S
O72 C71 1.218 . S
C73 O66 1.275 . S
C73 O68 1.255 . S
C74 O75 1.258 . S
C74 O76 1.256 . S
O75 Cd67 2.381 . S
O75 C74 1.258 . S
O76 Cd67 2.378 . S
O76 C74 1.256 . S
O77 Cd78 2.300 . S
O77 C84 1.275 . S
Cd78 O77 2.300 . S
Cd78 O86 2.381 1_556 S
Cd78 O87 2.378 . S
O79 Cd80 2.385 . S
O79 C84 1.255 . S
Cd80 O79 2.385 . S
Cd80 O81 2.317 . S
O81 Cd80 2.317 . S
O81 C82 1.232 . S
C82 O81 1.232 . S
C82 O83 1.218 . S
O83 C82 1.218 . S
C84 O77 1.275 . S
C84 O79 1.255 . S
C85 O86 1.258 . S
C85 O87 1.256 1_554 S
O86 Cd78 2.381 1_554 S
O86 C85 1.258 . S
O87 Cd78 2.378 . S
O87 C85 1.256 1_556 S
O88 Cd89 2.300 . S
O88 C95 1.275 . S
Cd89 O88 2.300 . S
Cd89 O97 2.381 . S
Cd89 O98 2.378 . S
O90 Cd91 2.385 . S
O90 C95 1.255 . S
Cd91 O90 2.385 . S
Cd91 O92 2.317 . S
O92 Cd91 2.317 . S
O92 C93 1.232 . S
C93 O92 1.232 . S
C93 O94 1.218 . S
O94 C93 1.218 . S
C95 O88 1.275 . S
C95 O90 1.255 . S
C96 O97 1.258 . S
C96 O98 1.256 . S
O97 Cd89 2.381 . S
O97 C96 1.258 . S
O98 Cd89 2.378 . S
O98 C96 1.256 . S
O99 Cd100 2.300 . S
O99 C106 1.275 . S
Cd100 O99 2.300 . S
Cd100 O108 2.381 1_455 S
Cd100 O109 2.378 . S
O101 Cd102 2.385 . S
O101 C106 1.255 . S
Cd102 O101 2.385 . S
Cd102 O103 2.317 . S
O103 Cd102 2.317 . S
O103 C104 1.232 . S
C104 O103 1.232 . S
C104 O105 1.218 . S
O105 C104 1.218 . S
C106 O99 1.275 . S
C106 O101 1.255 . S
C107 O108 1.258 . S
C107 O109 1.256 1_655 S
O108 Cd100 2.381 1_655 S
O108 C107 1.258 . S
O109 Cd100 2.378 . S
O109 C107 1.256 1_455 S
O110 Cd111 2.300 . S
O110 C117 1.275 . S
Cd111 O110 2.300 . S
Cd111 O119 2.381 . S
Cd111 O120 2.378 . S
O112 Cd113 2.385 . S
O112 C117 1.255 . S
Cd113 O112 2.385 . S
Cd113 O114 2.317 . S
O114 Cd113 2.317 . S
O114 C115 1.232 . S
C115 O114 1.232 . S
C115 O116 1.218 . S
O116 C115 1.218 . S
C117 O110 1.275 . S
C117 O112 1.255 . S
C118 O119 1.258 . S
C118 O120 1.256 . S
O119 Cd111 2.381 . S
O119 C118 1.258 . S
O120 Cd111 2.378 . S
O120 C118 1.256 . S
O121 Cd122 2.300 . S
O121 C128 1.275 . S
Cd122 O121 2.300 . S
Cd122 O130 2.381 1_655 S
Cd122 O131 2.378 . S
O123 Cd124 2.385 . S
O123 C128 1.255 . S
Cd124 O123 2.385 . S
Cd124 O125 2.317 . S
O125 Cd124 2.317 . S
O125 C126 1.232 . S
C126 O125 1.232 . S
C126 O127 1.218 . S
O127 C126 1.218 . S
C128 O121 1.275 . S
C128 O123 1.255 . S
C129 O130 1.258 . S
C129 O131 1.256 1_455 S
O130 Cd122 2.381 1_455 S
O130 C129 1.258 . S
O131 Cd122 2.378 . S
O131 C129 1.256 1_655 S
O132 Cd133 2.300 . S
O132 C139 1.275 . S
Cd133 O132 2.300 . S
Cd133 O141 2.381 . S
Cd133 O142 2.378 . S
O134 Cd135 2.385 . S
O134 C139 1.255 . S
Cd135 O134 2.385 . S
Cd135 O136 2.317 . S
O136 Cd135 2.317 . S
O136 C137 1.232 . S
C137 O136 1.232 . S
C137 O138 1.218 . S
O138 C137 1.218 . S
C139 O132 1.275 . S
C139 O134 1.255 . S
C140 O141 1.258 . S
C140 O142 1.256 . S
O141 Cd133 2.381 . S
O141 C140 1.258 . S
O142 Cd133 2.378 . S
O142 C140 1.256 . S
O143 Cd144 2.300 . S
O143 C150 1.275 . S
Cd144 O143 2.300 . S
Cd144 O152 2.381 . S
Cd144 O153 2.378 . S
O145 Cd146 2.385 . S
O145 C150 1.255 . S
Cd146 O145 2.385 . S
Cd146 O147 2.317 . S
O147 Cd146 2.317 . S
O147 C148 1.232 . S
C148 O147 1.232 . S
C148 O149 1.218 . S
O149 C148 1.218 . S
C150 O143 1.275 . S
C150 O145 1.255 . S
C151 O152 1.258 . S
C151 O153 1.256 . S
O152 Cd144 2.381 . S
O152 C151 1.258 . S
O153 Cd144 2.378 . S
O153 C151 1.256 . S
O154 Cd155 2.300 1_545 S
O154 C161 1.275 . S
Cd155 O154 2.300 1_565 S
Cd155 O163 2.381 1_565 S
Cd155 O164 2.378 . S
O156 Cd157 2.385 . S
O156 C161 1.255 1_565 S
Cd157 O156 2.385 . S
Cd157 O158 2.317 . S
O158 Cd157 2.317 . S
O158 C159 1.232 . S
C159 O158 1.232 . S
C159 O160 1.218 . S
O160 C159 1.218 . S
C161 O154 1.275 . S
C161 O156 1.255 1_545 S
C162 O163 1.258 1_565 S
C162 O164 1.256 . S
O163 Cd155 2.381 1_545 S
O163 C162 1.258 1_545 S
O164 Cd155 2.378 . S
O164 C162 1.256 . S
O165 Cd166 2.300 1_565 S
O165 C172 1.275 . S
Cd166 O165 2.300 1_545 S
Cd166 O174 2.381 1_545 S
Cd166 O175 2.378 . S
O167 Cd168 2.385 . S
O167 C172 1.255 1_545 S
Cd168 O167 2.385 . S
Cd168 O169 2.317 . S
O169 Cd168 2.317 . S
O169 C170 1.232 . S
C170 O169 1.232 . S
C170 O171 1.218 . S
O171 C170 1.218 . S
C172 O165 1.275 . S
C172 O167 1.255 1_565 S
C173 O174 1.258 1_545 S
C173 O175 1.256 . S
O174 Cd166 2.381 1_565 S
O174 C173 1.258 1_565 S
O175 Cd166 2.378 . S
O175 C173 1.256 . S
O176 Cd177 2.300 . S
O176 C183 1.275 . S
Cd177 O176 2.300 . S
Cd177 O185 2.381 . S
Cd177 O186 2.378 . S
O178 Cd179 2.385 . S
O178 C183 1.255 . S
Cd179 O178 2.385 . S
Cd179 O180 2.317 . S
O180 Cd179 2.317 . S
O180 C181 1.232 . S
C181 O180 1.232 . S
C181 O182 1.218 . S
O182 C181 1.218 . S
C183 O176 1.275 . S
C183 O178 1.255 . S
C184 O185 1.258 . S
C184 O186 1.256 . S
O185 Cd177 2.381 . S
O185 C184 1.258 . S
O186 Cd177 2.378 . S
O186 C184 1.256 . S
O187 Cd188 2.300 1_556 S
O187 C194 1.275 . S
Cd188 O187 2.300 1_554 S
Cd188 O196 2.381 1_554 S
Cd188 O197 2.378 . S
O189 Cd190 2.385 . S
O189 C194 1.255 1_554 S
Cd190 O189 2.385 . S
Cd190 O191 2.317 . S
O191 Cd190 2.317 . S
O191 C192 1.232 . S
C192 O191 1.232 . S
C192 O193 1.218 . S
O193 C192 1.218 . S
C194 O187 1.275 . S
C194 O189 1.255 1_556 S
C195 O196 1.258 1_554 S
C195 O197 1.256 . S
O196 Cd188 2.381 1_556 S
O196 C195 1.258 1_556 S
O197 Cd188 2.378 . S
O197 C195 1.256 . S
O198 Cd199 2.300 . S
O198 C205 1.275 . S
Cd199 O198 2.300 . S
Cd199 O207 2.381 . S
Cd199 O208 2.378 . S
O200 Cd201 2.385 . S
O200 C205 1.255 . S
Cd201 O200 2.385 . S
Cd201 O202 2.317 . S
O202 Cd201 2.317 . S
O202 C203 1.232 . S
C203 O202 1.232 . S
C203 O204 1.218 . S
O204 C203 1.218 . S
C205 O198 1.275 . S
C205 O200 1.255 . S
C206 O207 1.258 . S
C206 O208 1.256 . S
O207 Cd199 2.381 . S
O207 C206 1.258 . S
O208 Cd199 2.378 . S
O208 C206 1.256 . S
O209 Cd210 2.300 1_554 S
O209 C216 1.275 . S
Cd210 O209 2.300 1_556 S
Cd210 O218 2.381 1_556 S
Cd210 O219 2.378 . S
O211 Cd212 2.385 . S
O211 C216 1.255 1_556 S
Cd212 O211 2.385 . S
Cd212 O213 2.317 . S
O213 Cd212 2.317 . S
O213 C214 1.232 . S
C214 O213 1.232 . S
C214 O215 1.218 . S
O215 C214 1.218 . S
C216 O209 1.275 . S
C216 O211 1.255 1_554 S
C217 O218 1.258 1_556 S
C217 O219 1.256 . S
O218 Cd210 2.381 1_554 S
O218 C217 1.258 1_554 S
O219 Cd210 2.378 . S
O219 C217 1.256 . S
O220 Cd221 2.300 . S
O220 C227 1.275 . S
Cd221 O220 2.300 . S
Cd221 O229 2.381 . S
Cd221 O230 2.378 . S
O222 Cd223 2.385 . S
O222 C227 1.255 . S
Cd223 O222 2.385 . S
Cd223 O224 2.317 . S
O224 Cd223 2.317 . S
O224 C225 1.232 . S
C225 O224 1.232 . S
C225 O226 1.218 . S
O226 C225 1.218 . S
C227 O220 1.275 . S
C227 O222 1.255 . S
C228 O229 1.258 . S
C228 O230 1.256 . S
O229 Cd221 2.381 . S
O229 C228 1.258 . S
O230 Cd221 2.378 . S
O230 C228 1.256 . S
O231 Cd232 2.300 1_655 S
O231 C238 1.275 . S
Cd232 O231 2.300 1_455 S
Cd232 O240 2.381 1_455 S
Cd232 O241 2.378 . S
O233 Cd234 2.385 . S
O233 C238 1.255 1_455 S
Cd234 O233 2.385 . S
Cd234 O235 2.317 . S
O235 Cd234 2.317 . S
O235 C236 1.232 . S
C236 O235 1.232 . S
C236 O237 1.218 . S
O237 C236 1.218 . S
C238 O231 1.275 . S
C238 O233 1.255 1_655 S
C239 O240 1.258 1_455 S
C239 O241 1.256 . S
O240 Cd232 2.381 1_655 S
O240 C239 1.258 1_655 S
O241 Cd232 2.378 . S
O241 C239 1.256 . S
O242 Cd243 2.300 . S
O242 C249 1.275 . S
Cd243 O242 2.300 . S
Cd243 O251 2.381 . S
Cd243 O252 2.378 . S
O244 Cd245 2.385 . S
O244 C249 1.255 . S
Cd245 O244 2.385 . S
Cd245 O246 2.317 . S
O246 Cd245 2.317 . S
O246 C247 1.232 . S
C247 O246 1.232 . S
C247 O248 1.218 . S
O248 C247 1.218 . S
C249 O242 1.275 . S
C249 O244 1.255 . S
C250 O251 1.258 . S
C250 O252 1.256 . S
O251 Cd243 2.381 . S
O251 C250 1.258 . S
O252 Cd243 2.378 . S
O252 C250 1.256 . S
O253 Cd254 2.300 1_455 S
O253 C260 1.275 . S
Cd254 O253 2.300 1_655 S
Cd254 O262 2.381 1_655 S
Cd254 O263 2.378 . S
O255 Cd256 2.385 . S
O255 C260 1.255 1_655 S
Cd256 O255 2.385 . S
Cd256 O257 2.317 . S
O257 Cd256 2.317 . S
O257 C258 1.232 . S
C258 O257 1.232 . S
C258 O259 1.218 . S
O259 C258 1.218 . S
C260 O253 1.275 . S
C260 O255 1.255 1_455 S
C261 O262 1.258 1_655 S
C261 O263 1.256 . S
O262 Cd254 2.381 1_455 S
O262 C261 1.258 1_455 S
O263 Cd254 2.378 . S
O263 C261 1.256 . S
P264 O275 1.490 . S
P264 C278 1.812 . S
P264 C284 1.803 . S
P264 C290 1.819 . S
H265 C279 0.941 . S
H266 C280 0.939 . S
H267 C282 0.940 . S
H268 C283 0.940 . S
H269 C285 0.939 . S
H270 C286 0.942 . S
H271 C288 0.940 . S
H272 C289 0.939 . S
H273 C291 0.941 . S
H274 C295 0.939 . S
O275 P264 1.490 . S
H276 C292 0.939 . S
H277 C294 0.940 . S
C278 P264 1.812 . S
C278 C279 1.389 . S
C278 C283 1.391 . S
C279 H265 0.941 . S
C279 C278 1.389 . S
C279 C280 1.397 . S
C280 H266 0.939 . S
C280 C279 1.397 . S
C280 C281 1.378 . S
C281 C280 1.378 . S
C281 C282 1.378 . S
C282 H267 0.940 . S
C282 C281 1.378 . S
C282 C283 1.396 . S
C283 H268 0.940 . S
C283 C278 1.391 . S
C283 C282 1.396 . S
C284 P264 1.803 . S
C284 C285 1.378 . S
C284 C289 1.400 . S
C285 H269 0.939 . S
C285 C284 1.378 . S
C285 C286 1.361 . S
C286 H270 0.942 . S
C286 C285 1.361 . S
C286 C287 1.369 . S
C287 C286 1.369 . S
C287 C288 1.404 . S
C288 H271 0.940 . S
C288 C287 1.404 . S
C288 C289 1.389 . S
C289 H272 0.939 . S
C289 C284 1.400 . S
C289 C288 1.389 . S
C290 P264 1.819 . S
C290 C291 1.391 . S
C290 C295 1.391 . S
C291 H273 0.941 . S
C291 C290 1.391 . S
C291 C292 1.396 . S
C292 H276 0.939 . S
C292 C291 1.396 . S
C292 C293 1.397 . S
C293 C292 1.397 . S
C293 C294 1.385 . S
C294 H277 0.940 . S
C294 C293 1.385 . S
C294 C295 1.388 . S
C295 H274 0.939 . S
C295 C290 1.391 . S
C295 C294 1.388 . S
P296 O307 1.490 . S
P296 C310 1.812 . S
P296 C316 1.803 . S
P296 C322 1.819 . S
H297 C311 0.941 . S
H298 C312 0.939 . S
H299 C314 0.940 . S
H300 C315 0.940 . S
H301 C317 0.939 . S
H302 C318 0.942 . S
H303 C320 0.940 . S
H304 C321 0.939 . S
H305 C323 0.941 . S
H306 C327 0.939 . S
O307 P296 1.490 . S
H308 C324 0.939 . S
H309 C326 0.940 . S
C310 P296 1.812 . S
C310 C311 1.389 . S
C310 C315 1.391 . S
C311 H297 0.941 . S
C311 C310 1.389 . S
C311 C312 1.397 . S
C312 H298 0.939 . S
C312 C311 1.397 . S
C312 C313 1.378 . S
C313 C312 1.378 . S
C313 C314 1.378 . S
C314 H299 0.940 . S
C314 C313 1.378 . S
C314 C315 1.396 . S
C315 H300 0.940 . S
C315 C310 1.391 . S
C315 C314 1.396 . S
C316 P296 1.803 . S
C316 C317 1.378 . S
C316 C321 1.400 . S
C317 H301 0.939 . S
C317 C316 1.378 . S
C317 C318 1.361 . S
C318 H302 0.942 . S
C318 C317 1.361 . S
C318 C319 1.369 . S
C319 C318 1.369 . S
C319 C320 1.404 . S
C320 H303 0.940 . S
C320 C319 1.404 . S
C320 C321 1.389 . S
C321 H304 0.939 . S
C321 C316 1.400 . S
C321 C320 1.389 . S
C322 P296 1.819 . S
C322 C323 1.391 . S
C322 C327 1.391 . S
C323 H305 0.941 . S
C323 C322 1.391 . S
C323 C324 1.396 . S
C324 H308 0.939 . S
C324 C323 1.396 . S
C324 C325 1.397 . S
C325 C324 1.397 . S
C325 C326 1.385 . S
C326 H309 0.940 . S
C326 C325 1.385 . S
C326 C327 1.388 . S
C327 H306 0.939 . S
C327 C322 1.391 . S
C327 C326 1.388 . S
P328 O339 1.493 . S
P328 C342 1.812 1_545 S
P328 C348 1.803 . S
P328 C354 1.819 . S
H329 C343 0.941 . S
H330 C344 0.939 . S
H331 C346 0.940 . S
H332 C347 0.940 . S
H333 C349 0.939 . S
H334 C350 0.942 . S
H335 C352 0.940 . S
H336 C353 0.939 . S
H337 C355 0.941 . S
H338 C359 0.939 . S
O339 P328 1.493 . S
H340 C356 0.939 . S
H341 C358 0.940 . S
C342 P328 1.812 1_565 S
C342 C343 1.389 . S
C342 C347 1.391 . S
C343 H329 0.941 . S
C343 C342 1.389 . S
C343 C344 1.397 . S
C344 H330 0.939 . S
C344 C343 1.397 . S
C344 C345 1.378 . S
C345 C344 1.378 . S
C345 C346 1.378 . S
C346 H331 0.940 . S
C346 C345 1.378 . S
C346 C347 1.396 . S
C347 H332 0.940 . S
C347 C342 1.391 . S
C347 C346 1.396 . S
C348 P328 1.803 . S
C348 C349 1.378 . S
C348 C353 1.400 . S
C349 H333 0.939 . S
C349 C348 1.378 . S
C349 C350 1.361 . S
C350 H334 0.942 . S
C350 C349 1.361 . S
C350 C351 1.369 . S
C351 C350 1.369 . S
C351 C352 1.404 . S
C352 H335 0.940 . S
C352 C351 1.404 . S
C352 C353 1.389 . S
C353 H336 0.939 . S
C353 C348 1.400 . S
C353 C352 1.389 . S
C354 P328 1.819 . S
C354 C355 1.391 1_545 S
C354 C359 1.391 . S
C355 H337 0.941 . S
C355 C354 1.391 1_565 S
C355 C356 1.396 . S
C356 H340 0.939 . S
C356 C355 1.396 . S
C356 C357 1.397 1_565 S
C357 C356 1.397 1_545 S
C357 C358 1.385 . S
C358 H341 0.940 . S
C358 C357 1.385 . S
C358 C359 1.388 . S
C359 H338 0.939 . S
C359 C354 1.391 . S
C359 C358 1.388 . S
P360 O371 1.490 . S
P360 C374 1.812 1_565 S
P360 C380 1.803 . S
P360 C386 1.819 . S
H361 C375 0.941 . S
H362 C376 0.939 . S
H363 C378 0.940 . S
H364 C379 0.940 . S
H365 C381 0.939 . S
H366 C382 0.942 . S
H367 C384 0.940 . S
H368 C385 0.939 . S
H369 C387 0.941 . S
H370 C391 0.939 . S
O371 P360 1.490 . S
H372 C388 0.939 . S
H373 C390 0.940 . S
C374 P360 1.812 1_545 S
C374 C375 1.389 . S
C374 C379 1.391 . S
C375 H361 0.941 . S
C375 C374 1.389 . S
C375 C376 1.397 . S
C376 H362 0.939 . S
C376 C375 1.397 . S
C376 C377 1.378 . S
C377 C376 1.378 . S
C377 C378 1.378 . S
C378 H363 0.940 . S
C378 C377 1.378 . S
C378 C379 1.396 . S
C379 H364 0.940 . S
C379 C374 1.391 . S
C379 C378 1.396 . S
C380 P360 1.803 . S
C380 C381 1.378 . S
C380 C385 1.400 . S
C381 H365 0.939 . S
C381 C380 1.378 . S
C381 C382 1.361 . S
C382 H366 0.942 . S
C382 C381 1.361 . S
C382 C383 1.369 . S
C383 C382 1.369 . S
C383 C384 1.404 . S
C384 H367 0.940 . S
C384 C383 1.404 . S
C384 C385 1.389 . S
C385 H368 0.939 . S
C385 C380 1.400 . S
C385 C384 1.389 . S
C386 P360 1.819 . S
C386 C387 1.391 1_565 S
C386 C391 1.391 . S
C387 H369 0.941 . S
C387 C386 1.391 1_545 S
C387 C388 1.396 . S
C388 H372 0.939 . S
C388 C387 1.396 . S
C388 C389 1.397 . S
C389 C388 1.397 . S
C389 C390 1.385 1_545 S
C390 H373 0.940 . S
C390 C389 1.385 1_565 S
C390 C391 1.388 . S
C391 H370 0.939 . S
C391 C386 1.391 . S
C391 C390 1.388 . S
P392 O403 1.490 . S
P392 C406 1.812 . S
P392 C412 1.803 . S
P392 C418 1.819 . S
H393 C407 0.941 . S
H394 C408 0.939 . S
H395 C410 0.940 . S
H396 C411 0.940 . S
H397 C413 0.939 . S
H398 C414 0.942 . S
H399 C416 0.940 . S
H400 C417 0.939 . S
H401 C419 0.941 . S
H402 C423 0.939 . S
O403 P392 1.490 . S
H404 C420 0.939 . S
H405 C422 0.940 . S
C406 P392 1.812 . S
C406 C407 1.389 . S
C406 C411 1.391 . S
C407 H393 0.941 . S
C407 C406 1.389 . S
C407 C408 1.397 . S
C408 H394 0.939 . S
C408 C407 1.397 . S
C408 C409 1.378 . S
C409 C408 1.378 . S
C409 C410 1.378 . S
C410 H395 0.940 . S
C410 C409 1.378 . S
C410 C411 1.396 . S
C411 H396 0.940 . S
C411 C406 1.391 . S
C411 C410 1.396 . S
C412 P392 1.803 . S
C412 C413 1.378 . S
C412 C417 1.400 . S
C413 H397 0.939 . S
C413 C412 1.378 . S
C413 C414 1.361 . S
C414 H398 0.942 . S
C414 C413 1.361 . S
C414 C415 1.369 . S
C415 C414 1.369 . S
C415 C416 1.404 . S
C416 H399 0.940 . S
C416 C415 1.404 . S
C416 C417 1.389 . S
C417 H400 0.939 . S
C417 C412 1.400 . S
C417 C416 1.389 . S
C418 P392 1.819 . S
C418 C419 1.391 . S
C418 C423 1.391 . S
C419 H401 0.941 . S
C419 C418 1.391 . S
C419 C420 1.396 . S
C420 H404 0.939 . S
C420 C419 1.396 . S
C420 C421 1.397 . S
C421 C420 1.397 . S
C421 C422 1.385 . S
C422 H405 0.940 . S
C422 C421 1.385 . S
C422 C423 1.388 . S
C423 H402 0.939 . S
C423 C418 1.391 . S
C423 C422 1.388 . S
P424 O435 1.490 . S
P424 C438 1.812 1_556 S
P424 C444 1.803 . S
P424 C450 1.819 . S
H425 C439 0.941 . S
H426 C440 0.939 . S
H427 C442 0.940 . S
H428 C443 0.940 . S
H429 C445 0.939 . S
H430 C446 0.942 . S
H431 C448 0.940 . S
H432 C449 0.939 . S
H433 C451 0.941 . S
H434 C455 0.939 . S
O435 P424 1.490 . S
H436 C452 0.939 . S
H437 C454 0.940 . S
C438 P424 1.812 1_554 S
C438 C439 1.389 . S
C438 C443 1.391 . S
C439 H425 0.941 . S
C439 C438 1.389 . S
C439 C440 1.397 . S
C440 H426 0.939 . S
C440 C439 1.397 . S
C440 C441 1.378 . S
C441 C440 1.378 . S
C441 C442 1.378 . S
C442 H427 0.940 . S
C442 C441 1.378 . S
C442 C443 1.396 . S
C443 H428 0.940 . S
C443 C438 1.391 . S
C443 C442 1.396 . S
C444 P424 1.803 . S
C444 C445 1.378 . S
C444 C449 1.400 . S
C445 H429 0.939 . S
C445 C444 1.378 . S
C445 C446 1.361 . S
C446 H430 0.942 . S
C446 C445 1.361 . S
C446 C447 1.369 . S
C447 C446 1.369 . S
C447 C448 1.404 . S
C448 H431 0.940 . S
C448 C447 1.404 . S
C448 C449 1.389 . S
C449 H432 0.939 . S
C449 C444 1.400 . S
C449 C448 1.389 . S
C450 P424 1.819 . S
C450 C451 1.391 1_556 S
C450 C455 1.391 . S
C451 H433 0.941 . S
C451 C450 1.391 1_554 S
C451 C452 1.396 . S
C452 H436 0.939 . S
C452 C451 1.396 . S
C452 C453 1.397 . S
C453 C452 1.397 . S
C453 C454 1.385 1_554 S
C454 H437 0.940 . S
C454 C453 1.385 1_556 S
C454 C455 1.388 . S
C455 H434 0.939 . S
C455 C450 1.391 . S
C455 C454 1.388 . S
P456 O467 1.490 . S
P456 C470 1.812 . S
P456 C476 1.803 . S
P456 C482 1.819 . S
H457 C471 0.941 . S
H458 C472 0.939 . S
H459 C474 0.940 . S
H460 C475 0.940 . S
H461 C477 0.939 . S
H462 C478 0.942 . S
H463 C480 0.940 . S
H464 C481 0.939 . S
H465 C483 0.941 . S
H466 C487 0.939 . S
O467 P456 1.490 . S
H468 C484 0.939 . S
H469 C486 0.940 . S
C470 P456 1.812 . S
C470 C471 1.389 . S
C470 C475 1.391 . S
C471 H457 0.941 . S
C471 C470 1.389 . S
C471 C472 1.397 . S
C472 H458 0.939 . S
C472 C471 1.397 . S
C472 C473 1.378 . S
C473 C472 1.378 . S
C473 C474 1.378 . S
C474 H459 0.940 . S
C474 C473 1.378 . S
C474 C475 1.396 . S
C475 H460 0.940 . S
C475 C470 1.391 . S
C475 C474 1.396 . S
C476 P456 1.803 . S
C476 C477 1.378 . S
C476 C481 1.400 . S
C477 H461 0.939 . S
C477 C476 1.378 . S
C477 C478 1.361 . S
C478 H462 0.942 . S
C478 C477 1.361 . S
C478 C479 1.369 . S
C479 C478 1.369 . S
C479 C480 1.404 . S
C480 H463 0.940 . S
C480 C479 1.404 . S
C480 C481 1.389 . S
C481 H464 0.939 . S
C481 C476 1.400 . S
C481 C480 1.389 . S
C482 P456 1.819 . S
C482 C483 1.391 . S
C482 C487 1.391 . S
C483 H465 0.941 . S
C483 C482 1.391 . S
C483 C484 1.396 . S
C484 H468 0.939 . S
C484 C483 1.396 . S
C484 C485 1.397 . S
C485 C484 1.397 . S
C485 C486 1.385 . S
C486 H469 0.940 . S
C486 C485 1.385 . S
C486 C487 1.388 . S
C487 H466 0.939 . S
C487 C482 1.391 . S
C487 C486 1.388 . S
P488 O499 1.493 . S
P488 C502 1.812 1_554 S
P488 C508 1.803 . S
P488 C514 1.819 . S
H489 C503 0.941 . S
H490 C504 0.939 . S
H491 C506 0.940 . S
H492 C507 0.940 . S
H493 C509 0.939 . S
H494 C510 0.942 . S
H495 C512 0.940 . S
H496 C513 0.939 . S
H497 C515 0.941 . S
H498 C519 0.939 . S
O499 P488 1.493 . S
H500 C516 0.939 . S
H501 C518 0.940 . S
C502 P488 1.812 1_556 S
C502 C503 1.389 . S
C502 C507 1.391 . S
C503 H489 0.941 . S
C503 C502 1.389 . S
C503 C504 1.397 . S
C504 H490 0.939 . S
C504 C503 1.397 . S
C504 C505 1.378 . S
C505 C504 1.378 . S
C505 C506 1.378 . S
C506 H491 0.940 . S
C506 C505 1.378 . S
C506 C507 1.396 . S
C507 H492 0.940 . S
C507 C502 1.391 . S
C507 C506 1.396 . S
C508 P488 1.803 . S
C508 C509 1.378 . S
C508 C513 1.400 . S
C509 H493 0.939 . S
C509 C508 1.378 . S
C509 C510 1.361 . S
C510 H494 0.942 . S
C510 C509 1.361 . S
C510 C511 1.369 . S
C511 C510 1.369 . S
C511 C512 1.404 . S
C512 H495 0.940 . S
C512 C511 1.404 . S
C512 C513 1.389 . S
C513 H496 0.939 . S
C513 C508 1.400 . S
C513 C512 1.389 . S
C514 P488 1.819 . S
C514 C515 1.391 1_554 S
C514 C519 1.391 . S
C515 H497 0.941 . S
C515 C514 1.391 1_556 S
C515 C516 1.396 . S
C516 H500 0.939 . S
C516 C515 1.396 . S
C516 C517 1.397 1_556 S
C517 C516 1.397 1_554 S
C517 C518 1.385 . S
C518 H501 0.940 . S
C518 C517 1.385 . S
C518 C519 1.388 . S
C519 H498 0.939 . S
C519 C514 1.391 . S
C519 C518 1.388 . S
P520 O531 1.490 . S
P520 C534 1.812 . S
P520 C540 1.803 . S
P520 C546 1.819 . S
H521 C535 0.941 . S
H522 C536 0.939 . S
H523 C538 0.940 . S
H524 C539 0.940 . S
H525 C541 0.939 . S
H526 C542 0.942 . S
H527 C544 0.940 . S
H528 C545 0.939 . S
H529 C547 0.941 . S
H530 C551 0.939 . S
O531 P520 1.490 . S
H532 C548 0.939 . S
H533 C550 0.940 . S
C534 P520 1.812 . S
C534 C535 1.389 . S
C534 C539 1.391 . S
C535 H521 0.941 . S
C535 C534 1.389 . S
C535 C536 1.397 . S
C536 H522 0.939 . S
C536 C535 1.397 . S
C536 C537 1.378 . S
C537 C536 1.378 . S
C537 C538 1.378 . S
C538 H523 0.940 . S
C538 C537 1.378 . S
C538 C539 1.396 . S
C539 H524 0.940 . S
C539 C534 1.391 . S
C539 C538 1.396 . S
C540 P520 1.803 . S
C540 C541 1.378 . S
C540 C545 1.400 . S
C541 H525 0.939 . S
C541 C540 1.378 . S
C541 C542 1.361 . S
C542 H526 0.942 . S
C542 C541 1.361 . S
C542 C543 1.369 . S
C543 C542 1.369 . S
C543 C544 1.404 . S
C544 H527 0.940 . S
C544 C543 1.404 . S
C544 C545 1.389 . S
C545 H528 0.939 . S
C545 C540 1.400 . S
C545 C544 1.389 . S
C546 P520 1.819 . S
C546 C547 1.391 . S
C546 C551 1.391 . S
C547 H529 0.941 . S
C547 C546 1.391 . S
C547 C548 1.396 . S
C548 H532 0.939 . S
C548 C547 1.396 . S
C548 C549 1.397 . S
C549 C548 1.397 . S
C549 C550 1.385 . S
C550 H533 0.940 . S
C550 C549 1.385 . S
C550 C551 1.388 . S
C551 H530 0.939 . S
C551 C546 1.391 . S
C551 C550 1.388 . S
P552 O563 1.490 . S
P552 C566 1.812 1_655 S
P552 C572 1.803 . S
P552 C578 1.819 . S
H553 C567 0.941 . S
H554 C568 0.939 . S
H555 C570 0.940 . S
H556 C571 0.940 . S
H557 C573 0.939 . S
H558 C574 0.942 . S
H559 C576 0.940 . S
H560 C577 0.939 . S
H561 C579 0.941 . S
H562 C583 0.939 . S
O563 P552 1.490 . S
H564 C580 0.939 . S
H565 C582 0.940 . S
C566 P552 1.812 1_455 S
C566 C567 1.389 . S
C566 C571 1.391 . S
C567 H553 0.941 . S
C567 C566 1.389 . S
C567 C568 1.397 . S
C568 H554 0.939 . S
C568 C567 1.397 . S
C568 C569 1.378 . S
C569 C568 1.378 . S
C569 C570 1.378 . S
C570 H555 0.940 . S
C570 C569 1.378 . S
C570 C571 1.396 . S
C571 H556 0.940 . S
C571 C566 1.391 . S
C571 C570 1.396 . S
C572 P552 1.803 . S
C572 C573 1.378 . S
C572 C577 1.400 . S
C573 H557 0.939 . S
C573 C572 1.378 . S
C573 C574 1.361 . S
C574 H558 0.942 . S
C574 C573 1.361 . S
C574 C575 1.369 . S
C575 C574 1.369 . S
C575 C576 1.404 . S
C576 H559 0.940 . S
C576 C575 1.404 . S
C576 C577 1.389 . S
C577 H560 0.939 . S
C577 C572 1.400 . S
C577 C576 1.389 . S
C578 P552 1.819 . S
C578 C579 1.391 1_655 S
C578 C583 1.391 . S
C579 H561 0.941 . S
C579 C578 1.391 1_455 S
C579 C580 1.396 . S
C580 H564 0.939 . S
C580 C579 1.396 . S
C580 C581 1.397 . S
C581 C580 1.397 . S
C581 C582 1.385 1_455 S
C582 H565 0.940 . S
C582 C581 1.385 1_655 S
C582 C583 1.388 . S
C583 H562 0.939 . S
C583 C578 1.391 . S
C583 C582 1.388 . S
P584 O595 1.490 . S
P584 C598 1.812 . S
P584 C604 1.803 . S
P584 C610 1.819 . S
H585 C599 0.941 . S
H586 C600 0.939 . S
H587 C602 0.940 . S
H588 C603 0.940 . S
H589 C605 0.939 . S
H590 C606 0.942 . S
H591 C608 0.940 . S
H592 C609 0.939 . S
H593 C611 0.941 . S
H594 C615 0.939 . S
O595 P584 1.490 . S
H596 C612 0.939 . S
H597 C614 0.940 . S
C598 P584 1.812 . S
C598 C599 1.389 . S
C598 C603 1.391 . S
C599 H585 0.941 . S
C599 C598 1.389 . S
C599 C600 1.397 . S
C600 H586 0.939 . S
C600 C599 1.397 . S
C600 C601 1.378 . S
C601 C600 1.378 . S
C601 C602 1.378 . S
C602 H587 0.940 . S
C602 C601 1.378 . S
C602 C603 1.396 . S
C603 H588 0.940 . S
C603 C598 1.391 . S
C603 C602 1.396 . S
C604 P584 1.803 . S
C604 C605 1.378 . S
C604 C609 1.400 . S
C605 H589 0.939 . S
C605 C604 1.378 . S
C605 C606 1.361 . S
C606 H590 0.942 . S
C606 C605 1.361 . S
C606 C607 1.369 . S
C607 C606 1.369 . S
C607 C608 1.404 . S
C608 H591 0.940 . S
C608 C607 1.404 . S
C608 C609 1.389 . S
C609 H592 0.939 . S
C609 C604 1.400 . S
C609 C608 1.389 . S
C610 P584 1.819 . S
C610 C611 1.391 . S
C610 C615 1.391 . S
C611 H593 0.941 . S
C611 C610 1.391 . S
C611 C612 1.396 . S
C612 H596 0.939 . S
C612 C611 1.396 . S
C612 C613 1.397 . S
C613 C612 1.397 . S
C613 C614 1.385 . S
C614 H597 0.940 . S
C614 C613 1.385 . S
C614 C615 1.388 . S
C615 H594 0.939 . S
C615 C610 1.391 . S
C615 C614 1.388 . S
P616 O627 1.493 . S
P616 C630 1.812 1_455 S
P616 C636 1.803 . S
P616 C642 1.819 . S
H617 C631 0.941 . S
H618 C632 0.939 . S
H619 C634 0.940 . S
H620 C635 0.940 . S
H621 C637 0.939 . S
H622 C638 0.942 . S
H623 C640 0.940 . S
H624 C641 0.939 . S
H625 C643 0.941 . S
H626 C647 0.939 . S
O627 P616 1.493 . S
H628 C644 0.939 . S
H629 C646 0.940 . S
C630 P616 1.812 1_655 S
C630 C631 1.389 . S
C630 C635 1.391 . S
C631 H617 0.941 . S
C631 C630 1.389 . S
C631 C632 1.397 . S
C632 H618 0.939 . S
C632 C631 1.397 . S
C632 C633 1.378 . S
C633 C632 1.378 . S
C633 C634 1.378 . S
C634 H619 0.940 . S
C634 C633 1.378 . S
C634 C635 1.396 . S
C635 H620 0.940 . S
C635 C630 1.391 . S
C635 C634 1.396 . S
C636 P616 1.803 . S
C636 C637 1.378 . S
C636 C641 1.400 . S
C637 H621 0.939 . S
C637 C636 1.378 . S
C637 C638 1.361 . S
C638 H622 0.942 . S
C638 C637 1.361 . S
C638 C639 1.369 . S
C639 C638 1.369 . S
C639 C640 1.404 . S
C640 H623 0.940 . S
C640 C639 1.404 . S
C640 C641 1.389 . S
C641 H624 0.939 . S
C641 C636 1.400 . S
C641 C640 1.389 . S
C642 P616 1.819 . S
C642 C643 1.391 1_455 S
C642 C647 1.391 . S
C643 H625 0.941 . S
C643 C642 1.391 1_655 S
C643 C644 1.396 . S
C644 H628 0.939 . S
C644 C643 1.396 . S
C644 C645 1.397 1_655 S
C645 C644 1.397 1_455 S
C645 C646 1.385 . S
C646 H629 0.940 . S
C646 C645 1.385 . S
C646 C647 1.388 . S
C647 H626 0.939 . S
C647 C642 1.391 . S
C647 C646 1.388 . S
P648 O659 1.490 . S
P648 C662 1.812 . S
P648 C668 1.803 . S
P648 C674 1.819 . S
H649 C663 0.941 . S
H650 C664 0.939 . S
H651 C666 0.940 . S
H652 C667 0.940 . S
H653 C669 0.939 . S
H654 C670 0.942 . S
H655 C672 0.940 . S
H656 C673 0.939 . S
H657 C675 0.941 . S
H658 C679 0.939 . S
O659 P648 1.490 . S
H660 C676 0.939 . S
H661 C678 0.940 . S
C662 P648 1.812 . S
C662 C663 1.389 . S
C662 C667 1.391 . S
C663 H649 0.941 . S
C663 C662 1.389 . S
C663 C664 1.397 . S
C664 H650 0.939 . S
C664 C663 1.397 . S
C664 C665 1.378 . S
C665 C664 1.378 . S
C665 C666 1.378 . S
C666 H651 0.940 . S
C666 C665 1.378 . S
C666 C667 1.396 . S
C667 H652 0.940 . S
C667 C662 1.391 . S
C667 C666 1.396 . S
C668 P648 1.803 . S
C668 C669 1.378 . S
C668 C673 1.400 . S
C669 H653 0.939 . S
C669 C668 1.378 . S
C669 C670 1.361 . S
C670 H654 0.942 . S
C670 C669 1.361 . S
C670 C671 1.369 . S
C671 C670 1.369 . S
C671 C672 1.404 . S
C672 H655 0.940 . S
C672 C671 1.404 . S
C672 C673 1.389 . S
C673 H656 0.939 . S
C673 C668 1.400 . S
C673 C672 1.389 . S
C674 P648 1.819 . S
C674 C675 1.391 . S
C674 C679 1.391 . S
C675 H657 0.941 . S
C675 C674 1.391 . S
C675 C676 1.396 . S
C676 H660 0.939 . S
C676 C675 1.396 . S
C676 C677 1.397 . S
C677 C676 1.397 . S
C677 C678 1.385 . S
C678 H661 0.940 . S
C678 C677 1.385 . S
C678 C679 1.388 . S
C679 H658 0.939 . S
C679 C674 1.391 . S
C679 C678 1.388 . S
P680 O691 1.490 . S
P680 C694 1.812 . S
P680 C700 1.803 . S
P680 C706 1.819 . S
H681 C695 0.941 . S
H682 C696 0.939 . S
H683 C698 0.940 . S
H684 C699 0.940 . S
H685 C701 0.939 . S
H686 C702 0.942 . S
H687 C704 0.940 . S
H688 C705 0.939 . S
H689 C707 0.941 . S
H690 C711 0.939 . S
O691 P680 1.490 . S
H692 C708 0.939 . S
H693 C710 0.940 . S
C694 P680 1.812 . S
C694 C695 1.389 . S
C694 C699 1.391 . S
C695 H681 0.941 . S
C695 C694 1.389 . S
C695 C696 1.397 . S
C696 H682 0.939 . S
C696 C695 1.397 . S
C696 C697 1.378 . S
C697 C696 1.378 . S
C697 C698 1.378 . S
C698 H683 0.940 . S
C698 C697 1.378 . S
C698 C699 1.396 . S
C699 H684 0.940 . S
C699 C694 1.391 . S
C699 C698 1.396 . S
C700 P680 1.803 . S
C700 C701 1.378 . S
C700 C705 1.400 . S
C701 H685 0.939 . S
C701 C700 1.378 . S
C701 C702 1.361 . S
C702 H686 0.942 . S
C702 C701 1.361 . S
C702 C703 1.369 . S
C703 C702 1.369 . S
C703 C704 1.404 . S
C704 H687 0.940 . S
C704 C703 1.404 . S
C704 C705 1.389 . S
C705 H688 0.939 . S
C705 C700 1.400 . S
C705 C704 1.389 . S
C706 P680 1.819 . S
C706 C707 1.391 . S
C706 C711 1.391 . S
C707 H689 0.941 . S
C707 C706 1.391 . S
C707 C708 1.396 . S
C708 H692 0.939 . S
C708 C707 1.396 . S
C708 C709 1.397 . S
C709 C708 1.397 . S
C709 C710 1.385 . S
C710 H693 0.940 . S
C710 C709 1.385 . S
C710 C711 1.388 . S
C711 H690 0.939 . S
C711 C706 1.391 . S
C711 C710 1.388 . S
P712 O723 1.491 . S
P712 C726 1.761 1_565 S
P712 C732 1.849 . S
P712 C738 1.821 . S
H713 C727 0.941 . S
H714 C728 0.939 . S
H715 C730 0.940 . S
H716 C731 0.940 . S
H717 C733 0.939 . S
H718 C734 0.942 . S
H719 C736 0.940 . S
H720 C737 0.939 . S
H721 C739 0.941 . S
H722 C743 0.939 . S
O723 P712 1.491 . S
H724 C740 0.939 . S
H725 C742 0.940 . S
C726 P712 1.761 1_545 S
C726 C727 1.389 . S
C726 C731 1.391 . S
C727 H713 0.941 . S
C727 C726 1.389 . S
C727 C728 1.397 . S
C728 H714 0.939 . S
C728 C727 1.397 . S
C728 C729 1.378 . S
C729 C728 1.378 . S
C729 C730 1.378 . S
C730 H715 0.940 . S
C730 C729 1.378 . S
C730 C731 1.396 . S
C731 H716 0.940 . S
C731 C726 1.391 . S
C731 C730 1.396 . S
C732 P712 1.849 . S
C732 C733 1.378 . S
C732 C737 1.400 . S
C733 H717 0.939 . S
C733 C732 1.378 . S
C733 C734 1.361 . S
C734 H718 0.942 . S
C734 C733 1.361 . S
C734 C735 1.369 . S
C735 C734 1.369 . S
C735 C736 1.404 . S
C736 H719 0.940 . S
C736 C735 1.404 . S
C736 C737 1.389 . S
C737 H720 0.939 . S
C737 C732 1.400 . S
C737 C736 1.389 . S
C738 P712 1.821 . S
C738 C739 1.391 1_565 S
C738 C743 1.391 . S
C739 H721 0.941 . S
C739 C738 1.391 1_545 S
C739 C740 1.396 . S
C740 H724 0.939 . S
C740 C739 1.396 . S
C740 C741 1.397 1_545 S
C741 C740 1.397 1_565 S
C741 C742 1.385 . S
C742 H725 0.940 . S
C742 C741 1.385 . S
C742 C743 1.388 . S
C743 H722 0.939 . S
C743 C738 1.391 . S
C743 C742 1.388 . S
P744 O755 1.490 1_545 S
P744 C758 1.816 1_545 S
P744 C764 1.800 . S
P744 C770 1.818 . S
H745 C759 0.941 . S
H746 C760 0.939 . S
H747 C762 0.940 . S
H748 C763 0.940 . S
H749 C765 0.939 . S
H750 C766 0.942 . S
H751 C768 0.940 . S
H752 C769 0.939 . S
H753 C771 0.941 . S
H754 C775 0.939 . S
O755 P744 1.490 1_565 S
H756 C772 0.939 . S
H757 C774 0.940 . S
C758 P744 1.816 1_565 S
C758 C759 1.389 . S
C758 C763 1.391 . S
C759 H745 0.941 . S
C759 C758 1.389 . S
C759 C760 1.397 . S
C760 H746 0.939 . S
C760 C759 1.397 . S
C760 C761 1.378 . S
C761 C760 1.378 . S
C761 C762 1.378 . S
C762 H747 0.940 . S
C762 C761 1.378 . S
C762 C763 1.396 . S
C763 H748 0.940 . S
C763 C758 1.391 . S
C763 C762 1.396 . S
C764 P744 1.800 . S
C764 C765 1.378 . S
C764 C769 1.400 . S
C765 H749 0.939 . S
C765 C764 1.378 . S
C765 C766 1.361 . S
C766 H750 0.942 . S
C766 C765 1.361 . S
C766 C767 1.369 . S
C767 C766 1.369 . S
C767 C768 1.404 . S
C768 H751 0.940 . S
C768 C767 1.404 . S
C768 C769 1.389 . S
C769 H752 0.939 . S
C769 C764 1.400 . S
C769 C768 1.389 . S
C770 P744 1.818 . S
C770 C771 1.384 1_545 S
C770 C775 1.399 . S
C771 H753 0.941 . S
C771 C770 1.384 1_565 S
C771 C772 1.396 . S
C772 H756 0.939 . S
C772 C771 1.396 . S
C772 C773 1.397 . S
C773 C772 1.397 . S
C773 C774 1.385 1_565 S
C774 H757 0.940 . S
C774 C773 1.385 1_545 S
C774 C775 1.388 . S
C775 H754 0.939 . S
C775 C770 1.399 . S
C775 C774 1.388 . S
P776 O787 1.490 . S
P776 C790 1.812 . S
P776 C796 1.803 . S
P776 C802 1.819 . S
H777 C791 0.941 . S
H778 C792 0.939 . S
H779 C794 0.940 . S
H780 C795 0.940 . S
H781 C797 0.939 . S
H782 C798 0.942 . S
H783 C800 0.940 . S
H784 C801 0.939 . S
H785 C803 0.941 . S
H786 C807 0.939 . S
O787 P776 1.490 . S
H788 C804 0.939 . S
H789 C806 0.940 . S
C790 P776 1.812 . S
C790 C791 1.389 . S
C790 C795 1.391 . S
C791 H777 0.941 . S
C791 C790 1.389 . S
C791 C792 1.397 . S
C792 H778 0.939 . S
C792 C791 1.397 . S
C792 C793 1.378 . S
C793 C792 1.378 . S
C793 C794 1.378 . S
C794 H779 0.940 . S
C794 C793 1.378 . S
C794 C795 1.396 . S
C795 H780 0.940 . S
C795 C790 1.391 . S
C795 C794 1.396 . S
C796 P776 1.803 . S
C796 C797 1.378 . S
C796 C801 1.400 . S
C797 H781 0.939 . S
C797 C796 1.378 . S
C797 C798 1.361 . S
C798 H782 0.942 . S
C798 C797 1.361 . S
C798 C799 1.369 . S
C799 C798 1.369 . S
C799 C800 1.404 . S
C800 H783 0.940 . S
C800 C799 1.404 . S
C800 C801 1.389 . S
C801 H784 0.939 . S
C801 C796 1.400 . S
C801 C800 1.389 . S
C802 P776 1.819 . S
C802 C803 1.391 . S
C802 C807 1.391 . S
C803 H785 0.941 . S
C803 C802 1.391 . S
C803 C804 1.396 . S
C804 H788 0.939 . S
C804 C803 1.396 . S
C804 C805 1.397 . S
C805 C804 1.397 . S
C805 C806 1.385 . S
C806 H789 0.940 . S
C806 C805 1.385 . S
C806 C807 1.388 . S
C807 H786 0.939 . S
C807 C802 1.391 . S
C807 C806 1.388 . S
P808 O819 1.490 1_554 S
P808 C822 1.816 1_554 S
P808 C828 1.800 . S
P808 C834 1.818 . S
H809 C823 0.941 . S
H810 C824 0.939 . S
H811 C826 0.940 . S
H812 C827 0.940 . S
H813 C829 0.939 . S
H814 C830 0.942 . S
H815 C832 0.940 . S
H816 C833 0.939 . S
H817 C835 0.941 . S
H818 C839 0.939 . S
O819 P808 1.490 1_556 S
H820 C836 0.939 . S
H821 C838 0.940 . S
C822 P808 1.816 1_556 S
C822 C823 1.389 . S
C822 C827 1.391 . S
C823 H809 0.941 . S
C823 C822 1.389 . S
C823 C824 1.397 . S
C824 H810 0.939 . S
C824 C823 1.397 . S
C824 C825 1.378 . S
C825 C824 1.378 . S
C825 C826 1.378 . S
C826 H811 0.940 . S
C826 C825 1.378 . S
C826 C827 1.396 . S
C827 H812 0.940 . S
C827 C822 1.391 . S
C827 C826 1.396 . S
C828 P808 1.800 . S
C828 C829 1.378 . S
C828 C833 1.400 . S
C829 H813 0.939 . S
C829 C828 1.378 . S
C829 C830 1.361 . S
C830 H814 0.942 . S
C830 C829 1.361 . S
C830 C831 1.369 . S
C831 C830 1.369 . S
C831 C832 1.404 . S
C832 H815 0.940 . S
C832 C831 1.404 . S
C832 C833 1.389 . S
C833 H816 0.939 . S
C833 C828 1.400 . S
C833 C832 1.389 . S
C834 P808 1.818 . S
C834 C835 1.384 1_554 S
C834 C839 1.399 . S
C835 H817 0.941 . S
C835 C834 1.384 1_556 S
C835 C836 1.396 . S
C836 H820 0.939 . S
C836 C835 1.396 . S
C836 C837 1.397 . S
C837 C836 1.397 . S
C837 C838 1.385 1_556 S
C838 H821 0.940 . S
C838 C837 1.385 1_554 S
C838 C839 1.388 . S
C839 H818 0.939 . S
C839 C834 1.399 . S
C839 C838 1.388 . S
P840 O851 1.490 . S
P840 C854 1.812 . S
P840 C860 1.803 . S
P840 C866 1.819 . S
H841 C855 0.941 . S
H842 C856 0.939 . S
H843 C858 0.940 . S
H844 C859 0.940 . S
H845 C861 0.939 . S
H846 C862 0.942 . S
H847 C864 0.940 . S
H848 C865 0.939 . S
H849 C867 0.941 . S
H850 C871 0.939 . S
O851 P840 1.490 . S
H852 C868 0.939 . S
H853 C870 0.940 . S
C854 P840 1.812 . S
C854 C855 1.389 . S
C854 C859 1.391 . S
C855 H841 0.941 . S
C855 C854 1.389 . S
C855 C856 1.397 . S
C856 H842 0.939 . S
C856 C855 1.397 . S
C856 C857 1.378 . S
C857 C856 1.378 . S
C857 C858 1.378 . S
C858 H843 0.940 . S
C858 C857 1.378 . S
C858 C859 1.396 . S
C859 H844 0.940 . S
C859 C854 1.391 . S
C859 C858 1.396 . S
C860 P840 1.803 . S
C860 C861 1.378 . S
C860 C865 1.400 . S
C861 H845 0.939 . S
C861 C860 1.378 . S
C861 C862 1.361 . S
C862 H846 0.942 . S
C862 C861 1.361 . S
C862 C863 1.369 . S
C863 C862 1.369 . S
C863 C864 1.404 . S
C864 H847 0.940 . S
C864 C863 1.404 . S
C864 C865 1.389 . S
C865 H848 0.939 . S
C865 C860 1.400 . S
C865 C864 1.389 . S
C866 P840 1.819 . S
C866 C867 1.391 . S
C866 C871 1.391 . S
C867 H849 0.941 . S
C867 C866 1.391 . S
C867 C868 1.396 . S
C868 H852 0.939 . S
C868 C867 1.396 . S
C868 C869 1.397 . S
C869 C868 1.397 . S
C869 C870 1.385 . S
C870 H853 0.940 . S
C870 C869 1.385 . S
C870 C871 1.388 . S
C871 H850 0.939 . S
C871 C866 1.391 . S
C871 C870 1.388 . S
P872 O883 1.491 . S
P872 C886 1.761 1_556 S
P872 C892 1.849 . S
P872 C898 1.821 . S
H873 C887 0.941 . S
H874 C888 0.939 . S
H875 C890 0.940 . S
H876 C891 0.940 . S
H877 C893 0.939 . S
H878 C894 0.942 . S
H879 C896 0.940 . S
H880 C897 0.939 . S
H881 C899 0.941 . S
H882 C903 0.939 . S
O883 P872 1.491 . S
H884 C900 0.939 . S
H885 C902 0.940 . S
C886 P872 1.761 1_554 S
C886 C887 1.389 . S
C886 C891 1.391 . S
C887 H873 0.941 . S
C887 C886 1.389 . S
C887 C888 1.397 . S
C888 H874 0.939 . S
C888 C887 1.397 . S
C888 C889 1.378 . S
C889 C888 1.378 . S
C889 C890 1.378 . S
C890 H875 0.940 . S
C890 C889 1.378 . S
C890 C891 1.396 . S
C891 H876 0.940 . S
C891 C886 1.391 . S
C891 C890 1.396 . S
C892 P872 1.849 . S
C892 C893 1.378 . S
C892 C897 1.400 . S
C893 H877 0.939 . S
C893 C892 1.378 . S
C893 C894 1.361 . S
C894 H878 0.942 . S
C894 C893 1.361 . S
C894 C895 1.369 . S
C895 C894 1.369 . S
C895 C896 1.404 . S
C896 H879 0.940 . S
C896 C895 1.404 . S
C896 C897 1.389 . S
C897 H880 0.939 . S
C897 C892 1.400 . S
C897 C896 1.389 . S
C898 P872 1.821 . S
C898 C899 1.391 1_556 S
C898 C903 1.391 . S
C899 H881 0.941 . S
C899 C898 1.391 1_554 S
C899 C900 1.396 . S
C900 H884 0.939 . S
C900 C899 1.396 . S
C900 C901 1.397 1_554 S
C901 C900 1.397 1_556 S
C901 C902 1.385 . S
C902 H885 0.940 . S
C902 C901 1.385 . S
C902 C903 1.388 . S
C903 H882 0.939 . S
C903 C898 1.391 . S
C903 C902 1.388 . S
P904 O915 1.490 . S
P904 C918 1.812 . S
P904 C924 1.803 . S
P904 C930 1.819 . S
H905 C919 0.941 . S
H906 C920 0.939 . S
H907 C922 0.940 . S
H908 C923 0.940 . S
H909 C925 0.939 . S
H910 C926 0.942 . S
H911 C928 0.940 . S
H912 C929 0.939 . S
H913 C931 0.941 . S
H914 C935 0.939 . S
O915 P904 1.490 . S
H916 C932 0.939 . S
H917 C934 0.940 . S
C918 P904 1.812 . S
C918 C919 1.389 . S
C918 C923 1.391 . S
C919 H905 0.941 . S
C919 C918 1.389 . S
C919 C920 1.397 . S
C920 H906 0.939 . S
C920 C919 1.397 . S
C920 C921 1.378 . S
C921 C920 1.378 . S
C921 C922 1.378 . S
C922 H907 0.940 . S
C922 C921 1.378 . S
C922 C923 1.396 . S
C923 H908 0.940 . S
C923 C918 1.391 . S
C923 C922 1.396 . S
C924 P904 1.803 . S
C924 C925 1.378 . S
C924 C929 1.400 . S
C925 H909 0.939 . S
C925 C924 1.378 . S
C925 C926 1.361 . S
C926 H910 0.942 . S
C926 C925 1.361 . S
C926 C927 1.369 . S
C927 C926 1.369 . S
C927 C928 1.404 . S
C928 H911 0.940 . S
C928 C927 1.404 . S
C928 C929 1.389 . S
C929 H912 0.939 . S
C929 C924 1.400 . S
C929 C928 1.389 . S
C930 P904 1.819 . S
C930 C931 1.391 . S
C930 C935 1.391 . S
C931 H913 0.941 . S
C931 C930 1.391 . S
C931 C932 1.396 . S
C932 H916 0.939 . S
C932 C931 1.396 . S
C932 C933 1.397 . S
C933 C932 1.397 . S
C933 C934 1.385 . S
C934 H917 0.940 . S
C934 C933 1.385 . S
C934 C935 1.388 . S
C935 H914 0.939 . S
C935 C930 1.391 . S
C935 C934 1.388 . S
P936 O947 1.490 1_455 S
P936 C950 1.816 1_455 S
P936 C956 1.800 . S
P936 C962 1.818 . S
H937 C951 0.941 . S
H938 C952 0.939 . S
H939 C954 0.940 . S
H940 C955 0.940 . S
H941 C957 0.939 . S
H942 C958 0.942 . S
H943 C960 0.940 . S
H944 C961 0.939 . S
H945 C963 0.941 . S
H946 C967 0.939 . S
O947 P936 1.490 1_655 S
H948 C964 0.939 . S
H949 C966 0.940 . S
C950 P936 1.816 1_655 S
C950 C951 1.389 . S
C950 C955 1.391 . S
C951 H937 0.941 . S
C951 C950 1.389 . S
C951 C952 1.397 . S
C952 H938 0.939 . S
C952 C951 1.397 . S
C952 C953 1.378 . S
C953 C952 1.378 . S
C953 C954 1.378 . S
C954 H939 0.940 . S
C954 C953 1.378 . S
C954 C955 1.396 . S
C955 H940 0.940 . S
C955 C950 1.391 . S
C955 C954 1.396 . S
C956 P936 1.800 . S
C956 C957 1.378 . S
C956 C961 1.400 . S
C957 H941 0.939 . S
C957 C956 1.378 . S
C957 C958 1.361 . S
C958 H942 0.942 . S
C958 C957 1.361 . S
C958 C959 1.369 . S
C959 C958 1.369 . S
C959 C960 1.404 . S
C960 H943 0.940 . S
C960 C959 1.404 . S
C960 C961 1.389 . S
C961 H944 0.939 . S
C961 C956 1.400 . S
C961 C960 1.389 . S
C962 P936 1.818 . S
C962 C963 1.384 1_455 S
C962 C967 1.399 . S
C963 H945 0.941 . S
C963 C962 1.384 1_655 S
C963 C964 1.396 . S
C964 H948 0.939 . S
C964 C963 1.396 . S
C964 C965 1.397 . S
C965 C964 1.397 . S
C965 C966 1.385 1_655 S
C966 H949 0.940 . S
C966 C965 1.385 1_455 S
C966 C967 1.388 . S
C967 H946 0.939 . S
C967 C962 1.399 . S
C967 C966 1.388 . S
P968 O979 1.490 . S
P968 C982 1.812 . S
P968 C988 1.803 . S
P968 C994 1.819 . S
H969 C983 0.941 . S
H970 C984 0.939 . S
H971 C986 0.940 . S
H972 C987 0.940 . S
H973 C989 0.939 . S
H974 C990 0.942 . S
H975 C992 0.940 . S
H976 C993 0.939 . S
H977 C995 0.941 . S
H978 C999 0.939 . S
O979 P968 1.490 . S
H980 C996 0.939 . S
H981 C998 0.940 . S
C982 P968 1.812 . S
C982 C983 1.389 . S
C982 C987 1.391 . S
C983 H969 0.941 . S
C983 C982 1.389 . S
C983 C984 1.397 . S
C984 H970 0.939 . S
C984 C983 1.397 . S
C984 C985 1.378 . S
C985 C984 1.378 . S
C985 C986 1.378 . S
C986 H971 0.940 . S
C986 C985 1.378 . S
C986 C987 1.396 . S
C987 H972 0.940 . S
C987 C982 1.391 . S
C987 C986 1.396 . S
C988 P968 1.803 . S
C988 C989 1.378 . S
C988 C993 1.400 . S
C989 H973 0.939 . S
C989 C988 1.378 . S
C989 C990 1.361 . S
C990 H974 0.942 . S
C990 C989 1.361 . S
C990 C991 1.369 . S
C991 C990 1.369 . S
C991 C992 1.404 . S
C992 H975 0.940 . S
C992 C991 1.404 . S
C992 C993 1.389 . S
C993 H976 0.939 . S
C993 C988 1.400 . S
C993 C992 1.389 . S
C994 P968 1.819 . S
C994 C995 1.391 . S
C994 C999 1.391 . S
C995 H977 0.941 . S
C995 C994 1.391 . S
C995 C996 1.396 . S
C996 H980 0.939 . S
C996 C995 1.396 . S
C996 C997 1.397 . S
C997 C996 1.397 . S
C997 C998 1.385 . S
C998 H981 0.940 . S
C998 C997 1.385 . S
C998 C999 1.388 . S
C999 H978 0.939 . S
C999 C994 1.391 . S
C999 C998 1.388 . S
P1000 O1011 1.491 . S
P1000 C1014 1.761 1_655 S
P1000 C1020 1.849 . S
P1000 C1026 1.821 . S
H1001 C1015 0.941 . S
H1002 C1016 0.939 . S
H1003 C1018 0.940 . S
H1004 C1019 0.940 . S
H1005 C1021 0.939 . S
H1006 C1022 0.942 . S
H1007 C1024 0.940 . S
H1008 C1025 0.939 . S
H1009 C1027 0.941 . S
H1010 C1031 0.939 . S
O1011 P1000 1.491 . S
H1012 C1028 0.939 . S
H1013 C1030 0.940 . S
C1014 P1000 1.761 1_455 S
C1014 C1015 1.389 . S
C1014 C1019 1.391 . S
C1015 H1001 0.941 . S
C1015 C1014 1.389 . S
C1015 C1016 1.397 . S
C1016 H1002 0.939 . S
C1016 C1015 1.397 . S
C1016 C1017 1.378 . S
C1017 C1016 1.378 . S
C1017 C1018 1.378 . S
C1018 H1003 0.940 . S
C1018 C1017 1.378 . S
C1018 C1019 1.396 . S
C1019 H1004 0.940 . S
C1019 C1014 1.391 . S
C1019 C1018 1.396 . S
C1020 P1000 1.849 . S
C1020 C1021 1.378 . S
C1020 C1025 1.400 . S
C1021 H1005 0.939 . S
C1021 C1020 1.378 . S
C1021 C1022 1.361 . S
C1022 H1006 0.942 . S
C1022 C1021 1.361 . S
C1022 C1023 1.369 . S
C1023 C1022 1.369 . S
C1023 C1024 1.404 . S
C1024 H1007 0.940 . S
C1024 C1023 1.404 . S
C1024 C1025 1.389 . S
C1025 H1008 0.939 . S
C1025 C1020 1.400 . S
C1025 C1024 1.389 . S
C1026 P1000 1.821 . S
C1026 C1027 1.391 1_655 S
C1026 C1031 1.391 . S
C1027 H1009 0.941 . S
C1027 C1026 1.391 1_455 S
C1027 C1028 1.396 . S
C1028 H1012 0.939 . S
C1028 C1027 1.396 . S
C1028 C1029 1.397 1_455 S
C1029 C1028 1.397 1_655 S
C1029 C1030 1.385 . S
C1030 H1013 0.940 . S
C1030 C1029 1.385 . S
C1030 C1031 1.388 . S
C1031 H1010 0.939 . S
C1031 C1026 1.391 . S
C1031 C1030 1.388 . S
C1032 C1033 1.391 . S
C1032 C1034 1.394 . S
C1032 H1048 0.931 . S
C1033 C1032 1.391 . S
C1033 C1037 1.376 . S
C1034 C1032 1.394 . S
C1034 C1035 1.369 . S
C1034 C1038 1.531 . S
C1035 C1034 1.369 . S
C1035 C1036 1.410 . S
C1035 C1043 1.503 . S
C1036 C1035 1.410 . S
C1036 C1037 1.392 . S
C1036 C1039 1.511 . S
C1037 C1033 1.376 . S
C1037 C1036 1.392 . S
C1037 H1049 0.929 . S
C1038 C1034 1.531 . S
C1038 H1050 0.960 . S
C1038 H1051 0.962 . S
C1038 H1052 0.960 . S
C1039 C1036 1.511 . S
C1039 H1053 0.961 . S
C1039 H1054 0.961 . S
C1039 H1055 0.961 . S
C1040 C1041 1.370 . S
C1040 C1042 1.363 . S
C1040 H1056 0.931 . S
C1041 C1040 1.370 . S
C1041 C1045 1.408 . S
C1042 C1040 1.363 . S
C1042 C1043 1.370 . S
C1042 C1046 1.524 . S
C1043 C1035 1.503 . S
C1043 C1042 1.370 . S
C1043 C1044 1.403 . S
C1044 C1043 1.403 . S
C1044 C1045 1.404 . S
C1044 C1047 1.539 . S
C1045 C1041 1.408 . S
C1045 C1044 1.404 . S
C1045 H1057 0.930 . S
C1046 C1042 1.524 . S
C1046 H1058 0.956 . S
C1046 H1059 0.961 . S
C1046 H1060 0.961 . S
C1047 C1044 1.539 . S
C1047 H1061 0.958 . S
C1047 H1062 0.961 . S
C1047 H1063 0.960 . S
H1048 C1032 0.931 . S
H1049 C1037 0.929 . S
H1050 C1038 0.960 . S
H1051 C1038 0.962 . S
H1052 C1038 0.960 . S
H1053 C1039 0.961 . S
H1054 C1039 0.961 . S
H1055 C1039 0.961 . S
H1056 C1040 0.931 . S
H1057 C1045 0.930 . S
H1058 C1046 0.956 . S
H1059 C1046 0.961 . S
H1060 C1046 0.961 . S
H1061 C1047 0.958 . S
H1062 C1047 0.961 . S
H1063 C1047 0.960 . S
C1064 C1065 1.391 . S
C1064 C1066 1.394 . S
C1064 H1080 0.931 . S
C1065 C1064 1.391 . S
C1065 C1069 1.376 . S
C1066 C1064 1.394 . S
C1066 C1067 1.369 . S
C1066 C1070 1.531 . S
C1067 C1066 1.369 . S
C1067 C1068 1.410 . S
C1067 C1075 1.503 . S
C1068 C1067 1.410 . S
C1068 C1069 1.392 . S
C1068 C1071 1.511 . S
C1069 C1065 1.376 . S
C1069 C1068 1.392 . S
C1069 H1081 0.929 . S
C1070 C1066 1.531 . S
C1070 H1082 0.960 . S
C1070 H1083 0.962 . S
C1070 H1084 0.960 . S
C1071 C1068 1.511 . S
C1071 H1085 0.961 . S
C1071 H1086 0.961 . S
C1071 H1087 0.961 . S
C1072 C1073 1.370 . S
C1072 C1074 1.363 . S
C1072 H1088 0.931 . S
C1073 C1072 1.370 . S
C1073 C1077 1.408 . S
C1074 C1072 1.363 . S
C1074 C1075 1.370 . S
C1074 C1078 1.524 . S
C1075 C1067 1.503 . S
C1075 C1074 1.370 . S
C1075 C1076 1.403 . S
C1076 C1075 1.403 . S
C1076 C1077 1.404 . S
C1076 C1079 1.539 . S
C1077 C1073 1.408 . S
C1077 C1076 1.404 . S
C1077 H1089 0.930 . S
C1078 C1074 1.524 . S
C1078 H1090 0.956 . S
C1078 H1091 0.961 . S
C1078 H1092 0.961 . S
C1079 C1076 1.539 . S
C1079 H1093 0.958 . S
C1079 H1094 0.961 . S
C1079 H1095 0.960 . S
H1080 C1064 0.931 . S
H1081 C1069 0.929 . S
H1082 C1070 0.960 . S
H1083 C1070 0.962 . S
H1084 C1070 0.960 . S
H1085 C1071 0.961 . S
H1086 C1071 0.961 . S
H1087 C1071 0.961 . S
H1088 C1072 0.931 . S
H1089 C1077 0.930 . S
H1090 C1078 0.956 . S
H1091 C1078 0.961 . S
H1092 C1078 0.961 . S
H1093 C1079 0.958 . S
H1094 C1079 0.961 . S
H1095 C1079 0.960 . S
C1096 C1097 1.384 1_565 S
C1096 C1098 1.390 1_565 S
C1096 H1112 0.941 . S
C1097 C1096 1.384 1_545 S
C1097 C1101 1.376 . S
C1098 C1096 1.390 1_545 S
C1098 C1099 1.369 . S
C1098 C1102 1.531 1_545 S
C1099 C1098 1.369 . S
C1099 C1100 1.410 . S
C1099 C1107 1.503 . S
C1100 C1099 1.410 . S
C1100 C1101 1.392 . S
C1100 C1103 1.511 . S
C1101 C1097 1.376 . S
C1101 C1100 1.392 . S
C1101 H1113 0.929 . S
C1102 C1098 1.531 1_565 S
C1102 H1114 0.960 1_565 S
C1102 H1115 0.962 . S
C1102 H1116 0.960 . S
C1103 C1100 1.511 . S
C1103 H1117 0.961 . S
C1103 H1118 0.961 . S
C1103 H1119 0.961 . S
C1104 C1105 1.370 . S
C1104 C1106 1.363 . S
C1104 H1120 0.931 . S
C1105 C1104 1.370 . S
C1105 C1109 1.408 . S
C1106 C1104 1.363 . S
C1106 C1107 1.370 . S
C1106 C1110 1.543 . S
C1107 C1099 1.503 . S
C1107 C1106 1.370 . S
C1107 C1108 1.403 . S
C1108 C1107 1.403 . S
C1108 C1109 1.404 . S
C1108 C1111 1.539 . S
C1109 C1105 1.408 . S
C1109 C1108 1.404 . S
C1109 H1121 0.930 . S
C1110 C1106 1.543 . S
C1110 H1122 0.930 1_545 S
C1110 H1123 0.974 . S
C1110 H1124 0.955 1_545 S
C1111 C1108 1.539 . S
C1111 H1125 0.958 . S
C1111 H1126 0.961 . S
C1111 H1127 0.960 . S
H1112 C1096 0.941 . S
H1113 C1101 0.929 . S
H1114 C1102 0.960 1_545 S
H1115 C1102 0.962 . S
H1116 C1102 0.960 . S
H1117 C1103 0.961 . S
H1118 C1103 0.961 . S
H1119 C1103 0.961 . S
H1120 C1104 0.931 . S
H1121 C1109 0.930 . S
H1122 C1110 0.930 1_565 S
H1123 C1110 0.974 . S
H1124 C1110 0.955 1_565 S
H1125 C1111 0.958 . S
H1126 C1111 0.961 . S
H1127 C1111 0.960 . S
C1128 C1129 1.391 . S
C1128 C1130 1.394 . S
C1128 H1144 0.931 . S
C1129 C1128 1.391 . S
C1129 C1133 1.376 . S
C1130 C1128 1.394 . S
C1130 C1131 1.369 . S
C1130 C1134 1.531 . S
C1131 C1130 1.369 . S
C1131 C1132 1.410 . S
C1131 C1139 1.503 . S
C1132 C1131 1.410 . S
C1132 C1133 1.392 . S
C1132 C1135 1.511 . S
C1133 C1129 1.376 . S
C1133 C1132 1.392 . S
C1133 H1145 0.929 . S
C1134 C1130 1.531 . S
C1134 H1146 0.960 . S
C1134 H1147 0.962 . S
C1134 H1148 0.960 . S
C1135 C1132 1.511 . S
C1135 H1149 0.961 . S
C1135 H1150 0.961 . S
C1135 H1151 0.961 1_565 S
C1136 C1137 1.370 . S
C1136 C1138 1.363 . S
C1136 H1152 0.931 . S
C1137 C1136 1.370 . S
C1137 C1141 1.408 . S
C1138 C1136 1.363 . S
C1138 C1139 1.370 . S
C1138 C1142 1.524 . S
C1139 C1131 1.503 . S
C1139 C1138 1.370 . S
C1139 C1140 1.403 . S
C1140 C1139 1.403 . S
C1140 C1141 1.404 . S
C1140 C1143 1.539 1_565 S
C1141 C1137 1.408 . S
C1141 C1140 1.404 . S
C1141 H1153 0.930 . S
C1142 C1138 1.524 . S
C1142 H1154 0.956 . S
C1142 H1155 0.961 . S
C1142 H1156 0.961 . S
C1143 C1140 1.539 1_545 S
C1143 H1157 0.958 . S
C1143 H1158 0.961 . S
C1143 H1159 0.960 . S
H1144 C1128 0.931 . S
H1145 C1133 0.929 . S
H1146 C1134 0.960 . S
H1147 C1134 0.962 . S
H1148 C1134 0.960 . S
H1149 C1135 0.961 . S
H1150 C1135 0.961 . S
H1151 C1135 0.961 1_545 S
H1152 C1136 0.931 . S
H1153 C1141 0.930 . S
H1154 C1142 0.956 . S
H1155 C1142 0.961 . S
H1156 C1142 0.961 . S
H1157 C1143 0.958 . S
H1158 C1143 0.961 . S
H1159 C1143 0.960 . S
C1160 C1161 1.391 . S
C1160 C1162 1.394 . S
C1160 H1176 0.931 . S
C1161 C1160 1.391 . S
C1161 C1165 1.376 . S
C1162 C1160 1.394 . S
C1162 C1163 1.369 . S
C1162 C1166 1.531 . S
C1163 C1162 1.369 . S
C1163 C1164 1.410 . S
C1163 C1171 1.503 . S
C1164 C1163 1.410 . S
C1164 C1165 1.392 . S
C1164 C1167 1.511 . S
C1165 C1161 1.376 . S
C1165 C1164 1.392 . S
C1165 H1177 0.929 . S
C1166 C1162 1.531 . S
C1166 H1178 0.960 . S
C1166 H1179 0.962 . S
C1166 H1180 0.960 . S
C1167 C1164 1.511 . S
C1167 H1181 0.961 . S
C1167 H1182 0.961 . S
C1167 H1183 0.961 . S
C1168 C1169 1.370 . S
C1168 C1170 1.363 . S
C1168 H1184 0.931 . S
C1169 C1168 1.370 . S
C1169 C1173 1.408 . S
C1170 C1168 1.363 . S
C1170 C1171 1.370 . S
C1170 C1174 1.524 . S
C1171 C1163 1.503 . S
C1171 C1170 1.370 . S
C1171 C1172 1.403 . S
C1172 C1171 1.403 . S
C1172 C1173 1.404 . S
C1172 C1175 1.539 . S
C1173 C1169 1.408 . S
C1173 C1172 1.404 . S
C1173 H1185 0.930 . S
C1174 C1170 1.524 . S
C1174 H1186 0.956 . S
C1174 H1187 0.961 . S
C1174 H1188 0.961 . S
C1175 C1172 1.539 . S
C1175 H1189 0.958 . S
C1175 H1190 0.961 . S
C1175 H1191 0.960 . S
H1176 C1160 0.931 . S
H1177 C1165 0.929 . S
H1178 C1166 0.960 . S
H1179 C1166 0.962 . S
H1180 C1166 0.960 . S
H1181 C1167 0.961 . S
H1182 C1167 0.961 . S
H1183 C1167 0.961 . S
H1184 C1168 0.931 . S
H1185 C1173 0.930 . S
H1186 C1174 0.956 . S
H1187 C1174 0.961 . S
H1188 C1174 0.961 . S
H1189 C1175 0.958 . S
H1190 C1175 0.961 . S
H1191 C1175 0.960 . S
C1192 C1193 1.391 . S
C1192 C1194 1.394 . S
C1192 H1208 0.931 . S
C1193 C1192 1.391 . S
C1193 C1197 1.376 . S
C1194 C1192 1.394 . S
C1194 C1195 1.369 . S
C1194 C1198 1.531 . S
C1195 C1194 1.369 . S
C1195 C1196 1.410 . S
C1195 C1203 1.503 . S
C1196 C1195 1.410 . S
C1196 C1197 1.392 . S
C1196 C1199 1.511 . S
C1197 C1193 1.376 . S
C1197 C1196 1.392 . S
C1197 H1209 0.929 . S
C1198 C1194 1.531 . S
C1198 H1210 0.960 . S
C1198 H1211 0.962 . S
C1198 H1212 0.960 1_556 S
C1199 C1196 1.511 . S
C1199 H1213 0.961 . S
C1199 H1214 0.961 . S
C1199 H1215 0.961 . S
C1200 C1201 1.370 . S
C1200 C1202 1.363 . S
C1200 H1216 0.931 . S
C1201 C1200 1.370 . S
C1201 C1205 1.408 . S
C1202 C1200 1.363 . S
C1202 C1203 1.370 . S
C1202 C1206 1.524 . S
C1203 C1195 1.503 . S
C1203 C1202 1.370 . S
C1203 C1204 1.403 . S
C1204 C1203 1.403 . S
C1204 C1205 1.404 . S
C1204 C1207 1.539 1_556 S
C1205 C1201 1.408 . S
C1205 C1204 1.404 . S
C1205 H1217 0.930 . S
C1206 C1202 1.524 . S
C1206 H1218 0.956 . S
C1206 H1219 0.961 . S
C1206 H1220 0.961 . S
C1207 C1204 1.539 1_554 S
C1207 H1221 0.958 . S
C1207 H1222 0.961 . S
C1207 H1223 0.960 . S
H1208 C1192 0.931 . S
H1209 C1197 0.929 . S
H1210 C1198 0.960 . S
H1211 C1198 0.962 . S
H1212 C1198 0.960 1_554 S
H1213 C1199 0.961 . S
H1214 C1199 0.961 . S
H1215 C1199 0.961 . S
H1216 C1200 0.931 . S
H1217 C1205 0.930 . S
H1218 C1206 0.956 . S
H1219 C1206 0.961 . S
H1220 C1206 0.961 . S
H1221 C1207 0.958 . S
H1222 C1207 0.961 . S
H1223 C1207 0.960 . S
C1224 C1225 1.391 . S
C1224 C1226 1.394 . S
C1224 H1240 0.931 . S
C1225 C1224 1.391 . S
C1225 C1229 1.376 . S
C1226 C1224 1.394 . S
C1226 C1227 1.369 . S
C1226 C1230 1.531 . S
C1227 C1226 1.369 . S
C1227 C1228 1.410 . S
C1227 C1235 1.503 . S
C1228 C1227 1.410 . S
C1228 C1229 1.392 . S
C1228 C1231 1.511 . S
C1229 C1225 1.376 . S
C1229 C1228 1.392 . S
C1229 H1241 0.929 . S
C1230 C1226 1.531 . S
C1230 H1242 0.960 . S
C1230 H1243 0.962 . S
C1230 H1244 0.960 . S
C1231 C1228 1.511 . S
C1231 H1245 0.961 . S
C1231 H1246 0.961 . S
C1231 H1247 0.961 . S
C1232 C1233 1.370 . S
C1232 C1234 1.363 . S
C1232 H1248 0.931 . S
C1233 C1232 1.370 . S
C1233 C1237 1.408 . S
C1234 C1232 1.363 . S
C1234 C1235 1.370 . S
C1234 C1238 1.524 . S
C1235 C1227 1.503 . S
C1235 C1234 1.370 . S
C1235 C1236 1.403 . S
C1236 C1235 1.403 . S
C1236 C1237 1.404 . S
C1236 C1239 1.539 . S
C1237 C1233 1.408 . S
C1237 C1236 1.404 . S
C1237 H1249 0.930 . S
C1238 C1234 1.524 . S
C1238 H1250 0.956 . S
C1238 H1251 0.961 . S
C1238 H1252 0.961 . S
C1239 C1236 1.539 . S
C1239 H1253 0.958 . S
C1239 H1254 0.961 . S
C1239 H1255 0.960 . S
H1240 C1224 0.931 . S
H1241 C1229 0.929 . S
H1242 C1230 0.960 . S
H1243 C1230 0.962 . S
H1244 C1230 0.960 . S
H1245 C1231 0.961 . S
H1246 C1231 0.961 . S
H1247 C1231 0.961 . S
H1248 C1232 0.931 . S
H1249 C1237 0.930 . S
H1250 C1238 0.956 . S
H1251 C1238 0.961 . S
H1252 C1238 0.961 . S
H1253 C1239 0.958 . S
H1254 C1239 0.961 . S
H1255 C1239 0.960 . S
C1256 C1257 1.391 1_556 S
C1256 C1258 1.394 . S
C1256 H1272 0.931 . S
C1257 C1256 1.391 1_554 S
C1257 C1261 1.376 . S
C1258 C1256 1.394 . S
C1258 C1259 1.369 1_556 S
C1258 C1262 1.531 . S
C1259 C1258 1.369 1_554 S
C1259 C1260 1.410 . S
C1259 C1267 1.503 . S
C1260 C1259 1.410 . S
C1260 C1261 1.392 . S
C1260 C1263 1.511 . S
C1261 C1257 1.376 . S
C1261 C1260 1.392 . S
C1261 H1273 0.929 . S
C1262 C1258 1.531 . S
C1262 H1274 0.960 . S
C1262 H1275 0.962 . S
C1262 H1276 0.960 . S
C1263 C1260 1.511 . S
C1263 H1277 0.961 . S
C1263 H1278 0.961 . S
C1263 H1279 0.961 . S
C1264 C1265 1.370 . S
C1264 C1266 1.363 . S
C1264 H1280 0.931 . S
C1265 C1264 1.370 . S
C1265 C1269 1.408 . S
C1266 C1264 1.363 . S
C1266 C1267 1.370 . S
C1266 C1270 1.524 . S
C1267 C1259 1.503 . S
C1267 C1266 1.370 . S
C1267 C1268 1.403 . S
C1268 C1267 1.403 . S
C1268 C1269 1.404 . S
C1268 C1271 1.539 . S
C1269 C1265 1.408 . S
C1269 C1268 1.404 . S
C1269 H1281 0.930 . S
C1270 C1266 1.524 . S
C1270 H1282 0.956 . S
C1270 H1283 0.961 . S
C1270 H1284 0.961 . S
C1271 C1268 1.539 . S
C1271 H1285 0.958 1_554 S
C1271 H1286 0.961 . S
C1271 H1287 0.960 . S
H1272 C1256 0.931 . S
H1273 C1261 0.929 . S
H1274 C1262 0.960 . S
H1275 C1262 0.962 . S
H1276 C1262 0.960 . S
H1277 C1263 0.961 . S
H1278 C1263 0.961 . S
H1279 C1263 0.961 . S
H1280 C1264 0.931 . S
H1281 C1269 0.930 . S
H1282 C1270 0.956 . S
H1283 C1270 0.961 . S
H1284 C1270 0.961 . S
H1285 C1271 0.958 1_556 S
H1286 C1271 0.961 . S
H1287 C1271 0.960 . S
C1288 C1289 1.391 . S
C1288 C1290 1.394 . S
C1288 H1304 0.931 . S
C1289 C1288 1.391 . S
C1289 C1293 1.376 . S
C1290 C1288 1.394 . S
C1290 C1291 1.369 . S
C1290 C1294 1.531 . S
C1291 C1290 1.369 . S
C1291 C1292 1.410 . S
C1291 C1299 1.503 . S
C1292 C1291 1.410 . S
C1292 C1293 1.392 . S
C1292 C1295 1.511 . S
C1293 C1289 1.376 . S
C1293 C1292 1.392 . S
C1293 H1305 0.929 . S
C1294 C1290 1.531 . S
C1294 H1306 0.960 . S
C1294 H1307 0.962 . S
C1294 H1308 0.960 . S
C1295 C1292 1.511 . S
C1295 H1309 0.961 . S
C1295 H1310 0.961 . S
C1295 H1311 0.961 . S
C1296 C1297 1.370 . S
C1296 C1298 1.363 . S
C1296 H1312 0.931 . S
C1297 C1296 1.370 . S
C1297 C1301 1.408 . S
C1298 C1296 1.363 . S
C1298 C1299 1.370 . S
C1298 C1302 1.524 . S
C1299 C1291 1.503 . S
C1299 C1298 1.370 . S
C1299 C1300 1.403 . S
C1300 C1299 1.403 . S
C1300 C1301 1.404 . S
C1300 C1303 1.539 . S
C1301 C1297 1.408 . S
C1301 C1300 1.404 . S
C1301 H1313 0.930 . S
C1302 C1298 1.524 . S
C1302 H1314 0.956 . S
C1302 H1315 0.961 . S
C1302 H1316 0.961 . S
C1303 C1300 1.539 . S
C1303 H1317 0.958 . S
C1303 H1318 0.961 . S
C1303 H1319 0.960 . S
H1304 C1288 0.931 . S
H1305 C1293 0.929 . S
H1306 C1294 0.960 . S
H1307 C1294 0.962 . S
H1308 C1294 0.960 . S
H1309 C1295 0.961 . S
H1310 C1295 0.961 . S
H1311 C1295 0.961 . S
H1312 C1296 0.931 . S
H1313 C1301 0.930 . S
H1314 C1302 0.956 . S
H1315 C1302 0.961 . S
H1316 C1302 0.961 . S
H1317 C1303 0.958 . S
H1318 C1303 0.961 . S
H1319 C1303 0.960 . S
C1320 C1321 1.391 1_455 S
C1320 C1322 1.394 1_455 S
C1320 H1336 0.931 . S
C1321 C1320 1.391 1_655 S
C1321 C1325 1.376 . S
C1322 C1320 1.394 1_655 S
C1322 C1323 1.369 . S
C1322 C1326 1.531 1_655 S
C1323 C1322 1.369 . S
C1323 C1324 1.410 . S
C1323 C1331 1.503 . S
C1324 C1323 1.410 . S
C1324 C1325 1.392 . S
C1324 C1327 1.511 . S
C1325 C1321 1.376 . S
C1325 C1324 1.392 . S
C1325 H1337 0.929 . S
C1326 C1322 1.531 1_455 S
C1326 H1338 0.960 . S
C1326 H1339 0.962 . S
C1326 H1340 0.960 . S
C1327 C1324 1.511 . S
C1327 H1341 0.961 . S
C1327 H1342 0.961 . S
C1327 H1343 0.961 . S
C1328 C1329 1.370 . S
C1328 C1330 1.363 . S
C1328 H1344 0.931 . S
C1329 C1328 1.370 . S
C1329 C1333 1.408 . S
C1330 C1328 1.363 . S
C1330 C1331 1.370 . S
C1330 C1334 1.524 . S
C1331 C1323 1.503 . S
C1331 C1330 1.370 . S
C1331 C1332 1.403 . S
C1332 C1331 1.403 . S
C1332 C1333 1.404 . S
C1332 C1335 1.539 . S
C1333 C1329 1.408 . S
C1333 C1332 1.404 . S
C1333 H1345 0.930 . S
C1334 C1330 1.524 . S
C1334 H1346 0.956 . S
C1334 H1347 0.961 . S
C1334 H1348 0.961 . S
C1335 C1332 1.539 . S
C1335 H1349 0.958 1_655 S
C1335 H1350 0.961 . S
C1335 H1351 0.960 . S
H1336 C1320 0.931 . S
H1337 C1325 0.929 . S
H1338 C1326 0.960 . S
H1339 C1326 0.962 . S
H1340 C1326 0.960 . S
H1341 C1327 0.961 . S
H1342 C1327 0.961 . S
H1343 C1327 0.961 . S
H1344 C1328 0.931 . S
H1345 C1333 0.930 . S
H1346 C1334 0.956 . S
H1347 C1334 0.961 . S
H1348 C1334 0.961 . S
H1349 C1335 0.958 1_455 S
H1350 C1335 0.961 . S
H1351 C1335 0.960 . S
C1352 C1353 1.391 . S
C1352 C1354 1.394 . S
C1352 H1368 0.931 . S
C1353 C1352 1.391 . S
C1353 C1357 1.376 . S
C1354 C1352 1.394 . S
C1354 C1355 1.369 . S
C1354 C1358 1.531 . S
C1355 C1354 1.369 . S
C1355 C1356 1.410 . S
C1355 C1363 1.503 . S
C1356 C1355 1.410 . S
C1356 C1357 1.392 . S
C1356 C1359 1.511 . S
C1357 C1353 1.376 . S
C1357 C1356 1.392 . S
C1357 H1369 0.929 . S
C1358 C1354 1.531 . S
C1358 H1370 0.960 . S
C1358 H1371 0.962 . S
C1358 H1372 0.960 . S
C1359 C1356 1.511 . S
C1359 H1373 0.961 . S
C1359 H1374 0.961 . S
C1359 H1375 0.961 . S
C1360 C1361 1.370 . S
C1360 C1362 1.363 . S
C1360 H1376 0.931 . S
C1361 C1360 1.370 . S
C1361 C1365 1.408 . S
C1362 C1360 1.363 . S
C1362 C1363 1.370 . S
C1362 C1366 1.524 . S
C1363 C1355 1.503 . S
C1363 C1362 1.370 . S
C1363 C1364 1.403 . S
C1364 C1363 1.403 . S
C1364 C1365 1.404 . S
C1364 C1367 1.539 . S
C1365 C1361 1.408 . S
C1365 C1364 1.404 . S
C1365 H1377 0.930 . S
C1366 C1362 1.524 . S
C1366 H1378 0.956 . S
C1366 H1379 0.961 . S
C1366 H1380 0.961 . S
C1367 C1364 1.539 . S
C1367 H1381 0.958 . S
C1367 H1382 0.961 . S
C1367 H1383 0.960 . S
H1368 C1352 0.931 . S
H1369 C1357 0.929 . S
H1370 C1358 0.960 . S
H1371 C1358 0.962 . S
H1372 C1358 0.960 . S
H1373 C1359 0.961 . S
H1374 C1359 0.961 . S
H1375 C1359 0.961 . S
H1376 C1360 0.931 . S
H1377 C1365 0.930 . S
H1378 C1366 0.956 . S
H1379 C1366 0.961 . S
H1380 C1366 0.961 . S
H1381 C1367 0.958 . S
H1382 C1367 0.961 . S
H1383 C1367 0.960 . S
C1384 C1385 1.416 . S
C1384 C1386 1.411 . S
C1384 H1400 0.891 1_455 S
C1385 C1384 1.416 . S
C1385 C1389 1.376 . S
C1386 C1384 1.411 . S
C1386 C1387 1.369 . S
C1386 C1390 1.531 1_455 S
C1387 C1386 1.369 . S
C1387 C1388 1.410 . S
C1387 C1395 1.503 . S
C1388 C1387 1.410 . S
C1388 C1389 1.392 . S
C1388 C1391 1.511 . S
C1389 C1385 1.376 . S
C1389 C1388 1.392 . S
C1389 H1401 0.929 . S
C1390 C1386 1.531 1_655 S
C1390 H1402 0.960 1_655 S
C1390 H1403 0.962 . S
C1390 H1404 0.960 . S
C1391 C1388 1.511 . S
C1391 H1405 0.961 . S
C1391 H1406 0.961 . S
C1391 H1407 0.961 . S
C1392 C1393 1.370 . S
C1392 C1394 1.363 . S
C1392 H1408 0.931 . S
C1393 C1392 1.370 . S
C1393 C1397 1.408 . S
C1394 C1392 1.363 . S
C1394 C1395 1.370 . S
C1394 C1398 1.524 1_455 S
C1395 C1387 1.503 . S
C1395 C1394 1.370 . S
C1395 C1396 1.403 . S
C1396 C1395 1.403 . S
C1396 C1397 1.404 . S
C1396 C1399 1.539 . S
C1397 C1393 1.408 . S
C1397 C1396 1.404 . S
C1397 H1409 0.930 . S
C1398 C1394 1.524 1_655 S
C1398 H1410 0.956 . S
C1398 H1411 0.961 1_655 S
C1398 H1412 0.961 . S
C1399 C1396 1.539 . S
C1399 H1413 0.958 . S
C1399 H1414 0.961 . S
C1399 H1415 0.960 . S
H1400 C1384 0.891 1_655 S
H1401 C1389 0.929 . S
H1402 C1390 0.960 1_455 S
H1403 C1390 0.962 . S
H1404 C1390 0.960 . S
H1405 C1391 0.961 . S
H1406 C1391 0.961 . S
H1407 C1391 0.961 . S
H1408 C1392 0.931 . S
H1409 C1397 0.930 . S
H1410 C1398 0.956 . S
H1411 C1398 0.961 1_455 S
H1412 C1398 0.961 . S
H1413 C1399 0.958 . S
H1414 C1399 0.961 . S
H1415 C1399 0.960 . S
C1416 C1417 1.391 . S
C1416 C1418 1.394 . S
C1416 H1432 0.931 . S
C1417 C1416 1.391 . S
C1417 C1421 1.376 . S
C1418 C1416 1.394 . S
C1418 C1419 1.369 . S
C1418 C1422 1.531 . S
C1419 C1418 1.369 . S
C1419 C1420 1.410 . S
C1419 C1427 1.503 . S
C1420 C1419 1.410 . S
C1420 C1421 1.392 . S
C1420 C1423 1.511 . S
C1421 C1417 1.376 . S
C1421 C1420 1.392 . S
C1421 H1433 0.929 . S
C1422 C1418 1.531 . S
C1422 H1434 0.960 . S
C1422 H1435 0.962 . S
C1422 H1436 0.960 . S
C1423 C1420 1.511 . S
C1423 H1437 0.961 . S
C1423 H1438 0.961 . S
C1423 H1439 0.961 . S
C1424 C1425 1.370 . S
C1424 C1426 1.363 . S
C1424 H1440 0.931 . S
C1425 C1424 1.370 . S
C1425 C1429 1.408 . S
C1426 C1424 1.363 . S
C1426 C1427 1.370 . S
C1426 C1430 1.524 . S
C1427 C1419 1.503 . S
C1427 C1426 1.370 . S
C1427 C1428 1.403 . S
C1428 C1427 1.403 . S
C1428 C1429 1.404 . S
C1428 C1431 1.539 . S
C1429 C1425 1.408 . S
C1429 C1428 1.404 . S
C1429 H1441 0.930 . S
C1430 C1426 1.524 . S
C1430 H1442 0.956 . S
C1430 H1443 0.961 . S
C1430 H1444 0.961 . S
C1431 C1428 1.539 . S
C1431 H1445 0.958 . S
C1431 H1446 0.961 . S
C1431 H1447 0.960 . S
H1432 C1416 0.931 . S
H1433 C1421 0.929 . S
H1434 C1422 0.960 . S
H1435 C1422 0.962 . S
H1436 C1422 0.960 . S
H1437 C1423 0.961 . S
H1438 C1423 0.961 . S
H1439 C1423 0.961 . S
H1440 C1424 0.931 . S
H1441 C1429 0.930 . S
H1442 C1430 0.956 . S
H1443 C1430 0.961 . S
H1444 C1430 0.961 . S
H1445 C1431 0.958 . S
H1446 C1431 0.961 . S
H1447 C1431 0.960 . S
C1448 C1449 1.391 . S
C1448 C1450 1.394 . S
C1448 H1464 0.931 . S
C1449 C1448 1.391 . S
C1449 C1453 1.376 . S
C1450 C1448 1.394 . S
C1450 C1451 1.369 . S
C1450 C1454 1.531 . S
C1451 C1450 1.369 . S
C1451 C1452 1.410 . S
C1451 C1459 1.503 . S
C1452 C1451 1.410 . S
C1452 C1453 1.392 . S
C1452 C1455 1.511 . S
C1453 C1449 1.376 . S
C1453 C1452 1.392 . S
C1453 H1465 0.929 . S
C1454 C1450 1.531 . S
C1454 H1466 0.960 . S
C1454 H1467 0.962 . S
C1454 H1468 0.960 . S
C1455 C1452 1.511 . S
C1455 H1469 0.961 . S
C1455 H1470 0.961 . S
C1455 H1471 0.961 . S
C1456 C1457 1.370 . S
C1456 C1458 1.363 . S
C1456 H1472 0.931 . S
C1457 C1456 1.370 . S
C1457 C1461 1.408 . S
C1458 C1456 1.363 . S
C1458 C1459 1.370 . S
C1458 C1462 1.524 . S
C1459 C1451 1.503 . S
C1459 C1458 1.370 . S
C1459 C1460 1.403 . S
C1460 C1459 1.403 . S
C1460 C1461 1.404 . S
C1460 C1463 1.539 . S
C1461 C1457 1.408 . S
C1461 C1460 1.404 . S
C1461 H1473 0.930 . S
C1462 C1458 1.524 . S
C1462 H1474 0.956 . S
C1462 H1475 0.961 . S
C1462 H1476 0.961 . S
C1463 C1460 1.539 . S
C1463 H1477 0.958 . S
C1463 H1478 0.961 . S
C1463 H1479 0.960 . S
H1464 C1448 0.931 . S
H1465 C1453 0.929 . S
H1466 C1454 0.960 . S
H1467 C1454 0.962 . S
H1468 C1454 0.960 . S
H1469 C1455 0.961 . S
H1470 C1455 0.961 . S
H1471 C1455 0.961 . S
H1472 C1456 0.931 . S
H1473 C1461 0.930 . S
H1474 C1462 0.956 . S
H1475 C1462 0.961 . S
H1476 C1462 0.961 . S
H1477 C1463 0.958 . S
H1478 C1463 0.961 . S
H1479 C1463 0.960 . S
C1480 C1481 1.391 . S
C1480 C1482 1.394 . S
C1480 H1496 0.931 . S
C1481 C1480 1.391 . S
C1481 C1485 1.376 . S
C1482 C1480 1.394 . S
C1482 C1483 1.369 . S
C1482 C1486 1.531 . S
C1483 C1482 1.369 . S
C1483 C1484 1.410 . S
C1483 C1491 1.503 . S
C1484 C1483 1.410 . S
C1484 C1485 1.392 . S
C1484 C1487 1.511 . S
C1485 C1481 1.376 . S
C1485 C1484 1.392 . S
C1485 H1497 0.929 . S
C1486 C1482 1.531 . S
C1486 H1498 0.960 . S
C1486 H1499 0.962 . S
C1486 H1500 0.960 . S
C1487 C1484 1.511 . S
C1487 H1501 0.961 . S
C1487 H1502 0.961 . S
C1487 H1503 0.961 . S
C1488 C1489 1.370 . S
C1488 C1490 1.363 . S
C1488 H1504 0.931 . S
C1489 C1488 1.370 . S
C1489 C1493 1.408 . S
C1490 C1488 1.363 . S
C1490 C1491 1.370 . S
C1490 C1494 1.524 1_565 S
C1491 C1483 1.503 . S
C1491 C1490 1.370 . S
C1491 C1492 1.403 . S
C1492 C1491 1.403 . S
C1492 C1493 1.404 . S
C1492 C1495 1.539 . S
C1493 C1489 1.408 . S
C1493 C1492 1.404 . S
C1493 H1505 0.930 . S
C1494 C1490 1.524 1_545 S
C1494 H1506 0.956 . S
C1494 H1507 0.961 . S
C1494 H1508 0.961 . S
C1495 C1492 1.539 . S
C1495 H1509 0.958 . S
C1495 H1510 0.961 . S
C1495 H1511 0.960 . S
H1496 C1480 0.931 . S
H1497 C1485 0.929 . S
H1498 C1486 0.960 . S
H1499 C1486 0.962 . S
H1500 C1486 0.960 . S
H1501 C1487 0.961 . S
H1502 C1487 0.961 . S
H1503 C1487 0.961 . S
H1504 C1488 0.931 . S
H1505 C1493 0.930 . S
H1506 C1494 0.956 . S
H1507 C1494 0.961 . S
H1508 C1494 0.961 . S
H1509 C1495 0.958 . S
H1510 C1495 0.961 . S
H1511 C1495 0.960 . S
C1512 C1513 1.391 . S
C1512 C1514 1.394 . S
C1512 H1528 0.931 . S
C1513 C1512 1.391 . S
C1513 C1517 1.376 1_545 S
C1514 C1512 1.394 . S
C1514 C1515 1.369 . S
C1514 C1518 1.531 . S
C1515 C1514 1.369 . S
C1515 C1516 1.410 . S
C1515 C1523 1.503 . S
C1516 C1515 1.410 . S
C1516 C1517 1.392 1_545 S
C1516 C1519 1.511 1_545 S
C1517 C1513 1.376 1_565 S
C1517 C1516 1.392 1_565 S
C1517 H1529 0.929 . S
C1518 C1514 1.531 . S
C1518 H1530 0.960 . S
C1518 H1531 0.962 . S
C1518 H1532 0.960 . S
C1519 C1516 1.511 1_565 S
C1519 H1533 0.961 . S
C1519 H1534 0.961 . S
C1519 H1535 0.961 . S
C1520 C1521 1.370 . S
C1520 C1522 1.363 . S
C1520 H1536 0.931 . S
C1521 C1520 1.370 . S
C1521 C1525 1.408 . S
C1522 C1520 1.363 . S
C1522 C1523 1.370 . S
C1522 C1526 1.524 . S
C1523 C1515 1.503 . S
C1523 C1522 1.370 . S
C1523 C1524 1.403 . S
C1524 C1523 1.403 . S
C1524 C1525 1.404 . S
C1524 C1527 1.539 . S
C1525 C1521 1.408 . S
C1525 C1524 1.404 . S
C1525 H1537 0.930 . S
C1526 C1522 1.524 . S
C1526 H1538 0.956 . S
C1526 H1539 0.961 . S
C1526 H1540 0.961 . S
C1527 C1524 1.539 . S
C1527 H1541 0.958 . S
C1527 H1542 0.961 . S
C1527 H1543 0.960 . S
H1528 C1512 0.931 . S
H1529 C1517 0.929 . S
H1530 C1518 0.960 . S
H1531 C1518 0.962 . S
H1532 C1518 0.960 . S
H1533 C1519 0.961 . S
H1534 C1519 0.961 . S
H1535 C1519 0.961 . S
H1536 C1520 0.931 . S
H1537 C1525 0.930 . S
H1538 C1526 0.956 . S
H1539 C1526 0.961 . S
H1540 C1526 0.961 . S
H1541 C1527 0.958 . S
H1542 C1527 0.961 . S
H1543 C1527 0.960 . S
C1544 C1545 1.391 . S
C1544 C1546 1.394 . S
C1544 H1560 0.931 . S
C1545 C1544 1.391 . S
C1545 C1549 1.376 . S
C1546 C1544 1.394 . S
C1546 C1547 1.369 . S
C1546 C1550 1.531 . S
C1547 C1546 1.369 . S
C1547 C1548 1.410 . S
C1547 C1555 1.503 . S
C1548 C1547 1.410 . S
C1548 C1549 1.392 . S
C1548 C1551 1.511 . S
C1549 C1545 1.376 . S
C1549 C1548 1.392 . S
C1549 H1561 0.929 . S
C1550 C1546 1.531 . S
C1550 H1562 0.960 . S
C1550 H1563 0.962 . S
C1550 H1564 0.960 . S
C1551 C1548 1.511 . S
C1551 H1565 0.961 . S
C1551 H1566 0.961 . S
C1551 H1567 0.961 . S
C1552 C1553 1.370 . S
C1552 C1554 1.363 . S
C1552 H1568 0.931 . S
C1553 C1552 1.370 . S
C1553 C1557 1.408 . S
C1554 C1552 1.363 . S
C1554 C1555 1.370 . S
C1554 C1558 1.524 . S
C1555 C1547 1.503 . S
C1555 C1554 1.370 . S
C1555 C1556 1.403 . S
C1556 C1555 1.403 . S
C1556 C1557 1.404 . S
C1556 C1559 1.539 . S
C1557 C1553 1.408 . S
C1557 C1556 1.404 . S
C1557 H1569 0.930 . S
C1558 C1554 1.524 . S
C1558 H1570 0.956 . S
C1558 H1571 0.961 . S
C1558 H1572 0.961 . S
C1559 C1556 1.539 . S
C1559 H1573 0.958 . S
C1559 H1574 0.961 . S
C1559 H1575 0.960 . S
H1560 C1544 0.931 . S
H1561 C1549 0.929 . S
H1562 C1550 0.960 . S
H1563 C1550 0.962 . S
H1564 C1550 0.960 . S
H1565 C1551 0.961 . S
H1566 C1551 0.961 . S
H1567 C1551 0.961 . S
H1568 C1552 0.931 . S
H1569 C1557 0.930 . S
H1570 C1558 0.956 . S
H1571 C1558 0.961 . S
H1572 C1558 0.961 . S
H1573 C1559 0.958 . S
H1574 C1559 0.961 . S
H1575 C1559 0.960 . S
C1576 C1577 1.391 . S
C1576 C1578 1.394 . S
C1576 H1592 0.931 . S
C1577 C1576 1.391 . S
C1577 C1581 1.376 . S
C1578 C1576 1.394 . S
C1578 C1579 1.369 . S
C1578 C1582 1.531 . S
C1579 C1578 1.369 . S
C1579 C1580 1.410 . S
C1579 C1587 1.503 . S
C1580 C1579 1.410 . S
C1580 C1581 1.392 . S
C1580 C1583 1.511 . S
C1581 C1577 1.376 . S
C1581 C1580 1.392 . S
C1581 H1593 0.929 . S
C1582 C1578 1.531 . S
C1582 H1594 0.960 . S
C1582 H1595 0.962 . S
C1582 H1596 0.960 . S
C1583 C1580 1.511 . S
C1583 H1597 0.961 . S
C1583 H1598 0.961 . S
C1583 H1599 0.961 . S
C1584 C1585 1.370 . S
C1584 C1586 1.363 . S
C1584 H1600 0.931 . S
C1585 C1584 1.370 . S
C1585 C1589 1.408 . S
C1586 C1584 1.363 . S
C1586 C1587 1.370 . S
C1586 C1590 1.524 1_554 S
C1587 C1579 1.503 . S
C1587 C1586 1.370 . S
C1587 C1588 1.403 . S
C1588 C1587 1.403 . S
C1588 C1589 1.404 . S
C1588 C1591 1.539 . S
C1589 C1585 1.408 . S
C1589 C1588 1.404 . S
C1589 H1601 0.930 . S
C1590 C1586 1.524 1_556 S
C1590 H1602 0.956 . S
C1590 H1603 0.961 . S
C1590 H1604 0.961 . S
C1591 C1588 1.539 . S
C1591 H1605 0.958 . S
C1591 H1606 0.961 . S
C1591 H1607 0.960 . S
H1592 C1576 0.931 . S
H1593 C1581 0.929 . S
H1594 C1582 0.960 . S
H1595 C1582 0.962 . S
H1596 C1582 0.960 . S
H1597 C1583 0.961 . S
H1598 C1583 0.961 . S
H1599 C1583 0.961 . S
H1600 C1584 0.931 . S
H1601 C1589 0.930 . S
H1602 C1590 0.956 . S
H1603 C1590 0.961 . S
H1604 C1590 0.961 . S
H1605 C1591 0.958 . S
H1606 C1591 0.961 . S
H1607 C1591 0.960 . S
C1608 C1609 1.391 . S
C1608 C1610 1.394 . S
C1608 H1624 0.931 . S
C1609 C1608 1.391 . S
C1609 C1613 1.376 . S
C1610 C1608 1.394 . S
C1610 C1611 1.369 . S
C1610 C1614 1.531 . S
C1611 C1610 1.369 . S
C1611 C1612 1.410 . S
C1611 C1619 1.503 . S
C1612 C1611 1.410 . S
C1612 C1613 1.392 . S
C1612 C1615 1.511 . S
C1613 C1609 1.376 . S
C1613 C1612 1.392 . S
C1613 H1625 0.929 . S
C1614 C1610 1.531 . S
C1614 H1626 0.960 . S
C1614 H1627 0.962 . S
C1614 H1628 0.960 . S
C1615 C1612 1.511 . S
C1615 H1629 0.961 . S
C1615 H1630 0.961 . S
C1615 H1631 0.961 . S
C1616 C1617 1.370 . S
C1616 C1618 1.363 . S
C1616 H1632 0.931 . S
C1617 C1616 1.370 . S
C1617 C1621 1.408 . S
C1618 C1616 1.363 . S
C1618 C1619 1.370 . S
C1618 C1622 1.524 . S
C1619 C1611 1.503 . S
C1619 C1618 1.370 . S
C1619 C1620 1.403 . S
C1620 C1619 1.403 . S
C1620 C1621 1.404 . S
C1620 C1623 1.539 . S
C1621 C1617 1.408 . S
C1621 C1620 1.404 . S
C1621 H1633 0.930 . S
C1622 C1618 1.524 . S
C1622 H1634 0.956 . S
C1622 H1635 0.961 . S
C1622 H1636 0.961 . S
C1623 C1620 1.539 . S
C1623 H1637 0.958 . S
C1623 H1638 0.961 . S
C1623 H1639 0.960 . S
H1624 C1608 0.931 . S
H1625 C1613 0.929 . S
H1626 C1614 0.960 . S
H1627 C1614 0.962 . S
H1628 C1614 0.960 . S
H1629 C1615 0.961 . S
H1630 C1615 0.961 . S
H1631 C1615 0.961 . S
H1632 C1616 0.931 . S
H1633 C1621 0.930 . S
H1634 C1622 0.956 . S
H1635 C1622 0.961 . S
H1636 C1622 0.961 . S
H1637 C1623 0.958 . S
H1638 C1623 0.961 . S
H1639 C1623 0.960 . S
C1640 C1641 1.391 . S
C1640 C1642 1.394 . S
C1640 H1656 0.931 . S
C1641 C1640 1.391 . S
C1641 C1645 1.376 1_556 S
C1642 C1640 1.394 . S
C1642 C1643 1.369 . S
C1642 C1646 1.531 . S
C1643 C1642 1.369 . S
C1643 C1644 1.410 1_556 S
C1643 C1651 1.503 . S
C1644 C1643 1.410 1_554 S
C1644 C1645 1.392 . S
C1644 C1647 1.511 . S
C1645 C1641 1.376 1_554 S
C1645 C1644 1.392 . S
C1645 H1657 0.929 . S
C1646 C1642 1.531 . S
C1646 H1658 0.960 . S
C1646 H1659 0.962 . S
C1646 H1660 0.960 . S
C1647 C1644 1.511 . S
C1647 H1661 0.961 . S
C1647 H1662 0.961 . S
C1647 H1663 0.961 . S
C1648 C1649 1.370 . S
C1648 C1650 1.363 . S
C1648 H1664 0.931 . S
C1649 C1648 1.370 . S
C1649 C1653 1.408 . S
C1650 C1648 1.363 . S
C1650 C1651 1.370 . S
C1650 C1654 1.524 . S
C1651 C1643 1.503 . S
C1651 C1650 1.370 . S
C1651 C1652 1.403 . S
C1652 C1651 1.403 . S
C1652 C1653 1.404 . S
C1652 C1655 1.541 . S
C1653 C1649 1.408 . S
C1653 C1652 1.404 . S
C1653 H1665 0.930 . S
C1654 C1650 1.524 . S
C1654 H1666 0.956 . S
C1654 H1667 0.961 . S
C1654 H1668 0.961 . S
C1655 C1652 1.541 . S
C1655 H1669 0.959 . S
C1655 H1670 0.960 1_556 S
C1655 H1671 0.958 1_556 S
H1656 C1640 0.931 . S
H1657 C1645 0.929 . S
H1658 C1646 0.960 . S
H1659 C1646 0.962 . S
H1660 C1646 0.960 . S
H1661 C1647 0.961 . S
H1662 C1647 0.961 . S
H1663 C1647 0.961 . S
H1664 C1648 0.931 . S
H1665 C1653 0.930 . S
H1666 C1654 0.956 . S
H1667 C1654 0.961 . S
H1668 C1654 0.961 . S
H1669 C1655 0.959 . S
H1670 C1655 0.960 1_554 S
H1671 C1655 0.958 1_554 S
C1672 C1673 1.391 . S
C1672 C1674 1.394 . S
C1672 H1688 0.931 . S
C1673 C1672 1.391 . S
C1673 C1677 1.376 . S
C1674 C1672 1.394 . S
C1674 C1675 1.369 . S
C1674 C1678 1.531 . S
C1675 C1674 1.369 . S
C1675 C1676 1.410 . S
C1675 C1683 1.503 . S
C1676 C1675 1.410 . S
C1676 C1677 1.392 . S
C1676 C1679 1.511 . S
C1677 C1673 1.376 . S
C1677 C1676 1.392 . S
C1677 H1689 0.929 . S
C1678 C1674 1.531 . S
C1678 H1690 0.960 . S
C1678 H1691 0.962 . S
C1678 H1692 0.960 . S
C1679 C1676 1.511 . S
C1679 H1693 0.961 . S
C1679 H1694 0.961 . S
C1679 H1695 0.961 . S
C1680 C1681 1.370 . S
C1680 C1682 1.363 . S
C1680 H1696 0.931 . S
C1681 C1680 1.370 . S
C1681 C1685 1.408 . S
C1682 C1680 1.363 . S
C1682 C1683 1.370 . S
C1682 C1686 1.524 . S
C1683 C1675 1.503 . S
C1683 C1682 1.370 . S
C1683 C1684 1.403 . S
C1684 C1683 1.403 . S
C1684 C1685 1.404 . S
C1684 C1687 1.539 . S
C1685 C1681 1.408 . S
C1685 C1684 1.404 . S
C1685 H1697 0.930 . S
C1686 C1682 1.524 . S
C1686 H1698 0.956 . S
C1686 H1699 0.961 . S
C1686 H1700 0.961 . S
C1687 C1684 1.539 . S
C1687 H1701 0.958 . S
C1687 H1702 0.961 . S
C1687 H1703 0.960 . S
H1688 C1672 0.931 . S
H1689 C1677 0.929 . S
H1690 C1678 0.960 . S
H1691 C1678 0.962 . S
H1692 C1678 0.960 . S
H1693 C1679 0.961 . S
H1694 C1679 0.961 . S
H1695 C1679 0.961 . S
H1696 C1680 0.931 . S
H1697 C1685 0.930 . S
H1698 C1686 0.956 . S
H1699 C1686 0.961 . S
H1700 C1686 0.961 . S
H1701 C1687 0.958 . S
H1702 C1687 0.961 . S
H1703 C1687 0.960 . S
C1704 C1705 1.391 1_655 S
C1704 C1706 1.394 1_655 S
C1704 H1720 0.931 . S
C1705 C1704 1.391 1_455 S
C1705 C1709 1.376 . S
C1706 C1704 1.394 1_455 S
C1706 C1707 1.369 . S
C1706 C1710 1.531 1_455 S
C1707 C1706 1.369 . S
C1707 C1708 1.410 . S
C1707 C1715 1.503 . S
C1708 C1707 1.410 . S
C1708 C1709 1.392 . S
C1708 C1711 1.511 . S
C1709 C1705 1.376 . S
C1709 C1708 1.392 . S
C1709 H1721 0.929 . S
C1710 C1706 1.531 1_655 S
C1710 H1722 0.960 . S
C1710 H1723 0.962 . S
C1710 H1724 0.960 . S
C1711 C1708 1.511 . S
C1711 H1725 0.961 . S
C1711 H1726 0.961 . S
C1711 H1727 0.961 . S
C1712 C1713 1.370 . S
C1712 C1714 1.363 . S
C1712 H1728 0.931 . S
C1713 C1712 1.370 . S
C1713 C1717 1.408 . S
C1714 C1712 1.363 . S
C1714 C1715 1.370 . S
C1714 C1718 1.524 . S
C1715 C1707 1.503 . S
C1715 C1714 1.370 . S
C1715 C1716 1.403 . S
C1716 C1715 1.403 . S
C1716 C1717 1.404 . S
C1716 C1719 1.539 . S
C1717 C1713 1.408 . S
C1717 C1716 1.404 . S
C1717 H1729 0.930 . S
C1718 C1714 1.524 . S
C1718 H1730 0.956 . S
C1718 H1731 0.961 . S
C1718 H1732 0.961 . S
C1719 C1716 1.539 . S
C1719 H1733 0.958 . S
C1719 H1734 0.961 . S
C1719 H1735 0.960 . S
H1720 C1704 0.931 . S
H1721 C1709 0.929 . S
H1722 C1710 0.960 . S
H1723 C1710 0.962 . S
H1724 C1710 0.960 . S
H1725 C1711 0.961 . S
H1726 C1711 0.961 . S
H1727 C1711 0.961 . S
H1728 C1712 0.931 . S
H1729 C1717 0.930 . S
H1730 C1718 0.956 . S
H1731 C1718 0.961 . S
H1732 C1718 0.961 . S
H1733 C1719 0.958 . S
H1734 C1719 0.961 . S
H1735 C1719 0.960 . S
C1736 C1737 1.391 . S
C1736 C1738 1.394 . S
C1736 H1752 0.931 . S
C1737 C1736 1.391 . S
C1737 C1741 1.376 . S
C1738 C1736 1.394 . S
C1738 C1739 1.369 . S
C1738 C1742 1.531 . S
C1739 C1738 1.369 . S
C1739 C1740 1.410 . S
C1739 C1747 1.503 . S
C1740 C1739 1.410 . S
C1740 C1741 1.392 . S
C1740 C1743 1.511 . S
C1741 C1737 1.376 . S
C1741 C1740 1.392 . S
C1741 H1753 0.929 . S
C1742 C1738 1.531 . S
C1742 H1754 0.960 . S
C1742 H1755 0.962 . S
C1742 H1756 0.960 . S
C1743 C1740 1.511 . S
C1743 H1757 0.961 . S
C1743 H1758 0.961 . S
C1743 H1759 0.961 . S
C1744 C1745 1.370 . S
C1744 C1746 1.363 . S
C1744 H1760 0.931 . S
C1745 C1744 1.370 . S
C1745 C1749 1.408 . S
C1746 C1744 1.363 . S
C1746 C1747 1.370 . S
C1746 C1750 1.524 . S
C1747 C1739 1.503 . S
C1747 C1746 1.370 . S
C1747 C1748 1.403 . S
C1748 C1747 1.403 . S
C1748 C1749 1.404 . S
C1748 C1751 1.539 . S
C1749 C1745 1.408 . S
C1749 C1748 1.404 . S
C1749 H1761 0.930 . S
C1750 C1746 1.524 . S
C1750 H1762 0.956 . S
C1750 H1763 0.961 . S
C1750 H1764 0.961 . S
C1751 C1748 1.539 . S
C1751 H1765 0.958 . S
C1751 H1766 0.961 . S
C1751 H1767 0.960 . S
H1752 C1736 0.931 . S
H1753 C1741 0.929 . S
H1754 C1742 0.960 . S
H1755 C1742 0.962 . S
H1756 C1742 0.960 . S
H1757 C1743 0.961 . S
H1758 C1743 0.961 . S
H1759 C1743 0.961 . S
H1760 C1744 0.931 . S
H1761 C1749 0.930 . S
H1762 C1750 0.956 . S
H1763 C1750 0.961 . S
H1764 C1750 0.961 . S
H1765 C1751 0.958 . S
H1766 C1751 0.961 . S
H1767 C1751 0.960 . S
C1768 C1769 1.391 . S
C1768 C1770 1.394 . S
C1768 H1784 0.931 . S
C1769 C1768 1.391 . S
C1769 C1773 1.376 1_655 S
C1770 C1768 1.394 . S
C1770 C1771 1.369 . S
C1770 C1774 1.531 . S
C1771 C1770 1.369 . S
C1771 C1772 1.410 1_655 S
C1771 C1779 1.503 . S
C1772 C1771 1.410 1_455 S
C1772 C1773 1.392 . S
C1772 C1775 1.511 . S
C1773 C1769 1.376 1_455 S
C1773 C1772 1.392 . S
C1773 H1785 0.929 . S
C1774 C1770 1.531 . S
C1774 H1786 0.960 . S
C1774 H1787 0.962 . S
C1774 H1788 0.960 . S
C1775 C1772 1.511 . S
C1775 H1789 0.961 . S
C1775 H1790 0.961 . S
C1775 H1791 0.961 . S
C1776 C1777 1.370 . S
C1776 C1778 1.363 . S
C1776 H1792 0.931 . S
C1777 C1776 1.370 . S
C1777 C1781 1.408 . S
C1778 C1776 1.363 . S
C1778 C1779 1.370 . S
C1778 C1782 1.524 . S
C1779 C1771 1.503 . S
C1779 C1778 1.370 . S
C1779 C1780 1.403 . S
C1780 C1779 1.403 . S
C1780 C1781 1.404 . S
C1780 C1783 1.539 . S
C1781 C1777 1.408 . S
C1781 C1780 1.404 . S
C1781 H1793 0.930 . S
C1782 C1778 1.524 . S
C1782 H1794 0.956 . S
C1782 H1795 0.961 . S
C1782 H1796 0.961 . S
C1783 C1780 1.539 . S
C1783 H1797 0.958 . S
C1783 H1798 0.961 1_655 S
C1783 H1799 0.960 1_655 S
H1784 C1768 0.931 . S
H1785 C1773 0.929 . S
H1786 C1774 0.960 . S
H1787 C1774 0.962 . S
H1788 C1774 0.960 . S
H1789 C1775 0.961 . S
H1790 C1775 0.961 . S
H1791 C1775 0.961 . S
H1792 C1776 0.931 . S
H1793 C1781 0.930 . S
H1794 C1782 0.956 . S
H1795 C1782 0.961 . S
H1796 C1782 0.961 . S
H1797 C1783 0.958 . S
H1798 C1783 0.961 1_455 S
H1799 C1783 0.960 1_455 S
C1800 C1801 1.391 . S
C1800 C1802 1.394 . S
C1800 H1816 0.931 . S
C1801 C1800 1.391 . S
C1801 C1805 1.376 . S
C1802 C1800 1.394 . S
C1802 C1803 1.369 . S
C1802 C1806 1.531 . S
C1803 C1802 1.369 . S
C1803 C1804 1.410 . S
C1803 C1811 1.503 . S
C1804 C1803 1.410 . S
C1804 C1805 1.392 . S
C1804 C1807 1.511 . S
C1805 C1801 1.376 . S
C1805 C1804 1.392 . S
C1805 H1817 0.929 . S
C1806 C1802 1.531 . S
C1806 H1818 0.960 . S
C1806 H1819 0.962 . S
C1806 H1820 0.960 . S
C1807 C1804 1.511 . S
C1807 H1821 0.961 . S
C1807 H1822 0.961 . S
C1807 H1823 0.961 . S
C1808 C1809 1.370 . S
C1808 C1810 1.363 . S
C1808 H1824 0.931 . S
C1809 C1808 1.370 . S
C1809 C1813 1.408 . S
C1810 C1808 1.363 . S
C1810 C1811 1.370 . S
C1810 C1814 1.524 . S
C1811 C1803 1.503 . S
C1811 C1810 1.370 . S
C1811 C1812 1.403 . S
C1812 C1811 1.403 . S
C1812 C1813 1.404 . S
C1812 C1815 1.539 . S
C1813 C1809 1.408 . S
C1813 C1812 1.404 . S
C1813 H1825 0.930 . S
C1814 C1810 1.524 . S
C1814 H1826 0.956 . S
C1814 H1827 0.961 . S
C1814 H1828 0.961 . S
C1815 C1812 1.539 . S
C1815 H1829 0.958 . S
C1815 H1830 0.961 . S
C1815 H1831 0.960 . S
H1816 C1800 0.931 . S
H1817 C1805 0.929 . S
H1818 C1806 0.960 . S
H1819 C1806 0.962 . S
H1820 C1806 0.960 . S
H1821 C1807 0.961 . S
H1822 C1807 0.961 . S
H1823 C1807 0.961 . S
H1824 C1808 0.931 . S
H1825 C1813 0.930 . S
H1826 C1814 0.956 . S
H1827 C1814 0.961 . S
H1828 C1814 0.961 . S
H1829 C1815 0.958 . S
H1830 C1815 0.961 . S
H1831 C1815 0.960 . S
C1832 C1833 1.391 . S
C1832 C1834 1.394 . S
C1832 H1848 0.931 . S
C1833 C1832 1.391 . S
C1833 C1837 1.376 . S
C1834 C1832 1.394 . S
C1834 C1835 1.369 . S
C1834 C1838 1.531 . S
C1835 C1834 1.369 . S
C1835 C1836 1.410 . S
C1835 C1843 1.503 . S
C1836 C1835 1.410 . S
C1836 C1837 1.392 . S
C1836 C1839 1.511 . S
C1837 C1833 1.376 . S
C1837 C1836 1.392 . S
C1837 H1849 0.929 . S
C1838 C1834 1.531 . S
C1838 H1850 0.960 . S
C1838 H1851 0.962 . S
C1838 H1852 0.960 . S
C1839 C1836 1.511 . S
C1839 H1853 0.961 . S
C1839 H1854 0.961 . S
C1839 H1855 0.961 . S
C1840 C1841 1.370 . S
C1840 C1842 1.363 . S
C1840 H1856 0.931 . S
C1841 C1840 1.370 . S
C1841 C1845 1.408 . S
C1842 C1840 1.363 . S
C1842 C1843 1.370 . S
C1842 C1846 1.524 . S
C1843 C1835 1.503 . S
C1843 C1842 1.370 . S
C1843 C1844 1.403 . S
C1844 C1843 1.403 . S
C1844 C1845 1.404 . S
C1844 C1847 1.539 . S
C1845 C1841 1.408 . S
C1845 C1844 1.404 . S
C1845 H1857 0.930 . S
C1846 C1842 1.524 . S
C1846 H1858 0.956 . S
C1846 H1859 0.961 . S
C1846 H1860 0.961 . S
C1847 C1844 1.539 . S
C1847 H1861 0.958 . S
C1847 H1862 0.961 . S
C1847 H1863 0.960 . S
H1848 C1832 0.931 . S
H1849 C1837 0.929 . S
H1850 C1838 0.960 . S
H1851 C1838 0.962 . S
H1852 C1838 0.960 . S
H1853 C1839 0.961 . S
H1854 C1839 0.961 . S
H1855 C1839 0.961 . S
H1856 C1840 0.931 . S
H1857 C1845 0.930 . S
H1858 C1846 0.956 . S
H1859 C1846 0.961 . S
H1860 C1846 0.961 . S
H1861 C1847 0.958 . S
H1862 C1847 0.961 . S
H1863 C1847 0.960 . S
C1864 C1865 1.391 . S
C1864 C1866 1.394 . S
C1864 H1880 0.931 . S
C1865 C1864 1.391 . S
C1865 C1869 1.376 . S
C1866 C1864 1.394 . S
C1866 C1867 1.369 . S
C1866 C1870 1.531 . S
C1867 C1866 1.369 . S
C1867 C1868 1.410 . S
C1867 C1875 1.503 . S
C1868 C1867 1.410 . S
C1868 C1869 1.392 . S
C1868 C1871 1.511 . S
C1869 C1865 1.376 . S
C1869 C1868 1.392 . S
C1869 H1881 0.929 . S
C1870 C1866 1.531 . S
C1870 H1882 0.960 . S
C1870 H1883 0.962 . S
C1870 H1884 0.960 . S
C1871 C1868 1.511 . S
C1871 H1885 0.961 1_565 S
C1871 H1886 0.961 1_565 S
C1871 H1887 0.961 . S
C1872 C1873 1.370 . S
C1872 C1874 1.363 . S
C1872 H1888 0.931 . S
C1873 C1872 1.370 . S
C1873 C1877 1.408 1_545 S
C1874 C1872 1.363 . S
C1874 C1875 1.370 1_545 S
C1874 C1878 1.524 . S
C1875 C1867 1.503 . S
C1875 C1874 1.370 1_565 S
C1875 C1876 1.403 . S
C1876 C1875 1.403 . S
C1876 C1877 1.404 . S
C1876 C1879 1.539 . S
C1877 C1873 1.408 1_565 S
C1877 C1876 1.404 . S
C1877 H1889 0.930 . S
C1878 C1874 1.524 . S
C1878 H1890 0.956 . S
C1878 H1891 0.961 . S
C1878 H1892 0.961 . S
C1879 C1876 1.539 . S
C1879 H1893 0.958 . S
C1879 H1894 0.961 . S
C1879 H1895 0.960 . S
H1880 C1864 0.931 . S
H1881 C1869 0.929 . S
H1882 C1870 0.960 . S
H1883 C1870 0.962 . S
H1884 C1870 0.960 . S
H1885 C1871 0.961 1_545 S
H1886 C1871 0.961 1_545 S
H1887 C1871 0.961 . S
H1888 C1872 0.931 . S
H1889 C1877 0.930 . S
H1890 C1878 0.956 . S
H1891 C1878 0.961 . S
H1892 C1878 0.961 . S
H1893 C1879 0.958 . S
H1894 C1879 0.961 . S
H1895 C1879 0.960 . S
C1896 C1897 1.391 . S
C1896 C1898 1.394 . S
C1896 H1912 0.931 . S
C1897 C1896 1.391 . S
C1897 C1901 1.376 . S
C1898 C1896 1.394 . S
C1898 C1899 1.369 . S
C1898 C1902 1.531 . S
C1899 C1898 1.369 . S
C1899 C1900 1.410 . S
C1899 C1907 1.503 . S
C1900 C1899 1.410 . S
C1900 C1901 1.392 . S
C1900 C1903 1.511 . S
C1901 C1897 1.376 . S
C1901 C1900 1.392 . S
C1901 H1913 0.929 . S
C1902 C1898 1.531 . S
C1902 H1914 0.960 . S
C1902 H1915 0.962 . S
C1902 H1916 0.960 . S
C1903 C1900 1.511 . S
C1903 H1917 0.963 1_545 S
C1903 H1918 0.963 . S
C1903 H1919 0.961 . S
C1904 C1905 1.370 1_565 S
C1904 C1906 1.363 . S
C1904 H1920 0.931 . S
C1905 C1904 1.370 1_545 S
C1905 C1909 1.408 . S
C1906 C1904 1.363 . S
C1906 C1907 1.370 1_565 S
C1906 C1910 1.524 . S
C1907 C1899 1.503 . S
C1907 C1906 1.370 1_545 S
C1907 C1908 1.403 . S
C1908 C1907 1.403 . S
C1908 C1909 1.404 . S
C1908 C1911 1.539 . S
C1909 C1905 1.408 . S
C1909 C1908 1.404 . S
C1909 H1921 0.930 . S
C1910 C1906 1.524 . S
C1910 H1922 0.956 . S
C1910 H1923 0.961 . S
C1910 H1924 0.961 . S
C1911 C1908 1.539 . S
C1911 H1925 0.958 . S
C1911 H1926 0.961 . S
C1911 H1927 0.960 . S
H1912 C1896 0.931 . S
H1913 C1901 0.929 . S
H1914 C1902 0.960 . S
H1915 C1902 0.962 . S
H1916 C1902 0.960 . S
H1917 C1903 0.963 1_565 S
H1918 C1903 0.963 . S
H1919 C1903 0.961 . S
H1920 C1904 0.931 . S
H1921 C1909 0.930 . S
H1922 C1910 0.956 . S
H1923 C1910 0.961 . S
H1924 C1910 0.961 . S
H1925 C1911 0.958 . S
H1926 C1911 0.961 . S
H1927 C1911 0.960 . S
C1928 C1929 1.391 . S
C1928 C1930 1.394 . S
C1928 H1944 0.931 . S
C1929 C1928 1.391 . S
C1929 C1933 1.376 . S
C1930 C1928 1.394 . S
C1930 C1931 1.369 . S
C1930 C1934 1.531 . S
C1931 C1930 1.369 . S
C1931 C1932 1.410 . S
C1931 C1939 1.503 . S
C1932 C1931 1.410 . S
C1932 C1933 1.392 . S
C1932 C1935 1.511 . S
C1933 C1929 1.376 . S
C1933 C1932 1.392 . S
C1933 H1945 0.929 . S
C1934 C1930 1.531 . S
C1934 H1946 0.960 . S
C1934 H1947 0.962 . S
C1934 H1948 0.960 . S
C1935 C1932 1.511 . S
C1935 H1949 0.961 . S
C1935 H1950 0.961 . S
C1935 H1951 0.961 . S
C1936 C1937 1.370 . S
C1936 C1938 1.363 . S
C1936 H1952 0.931 . S
C1937 C1936 1.370 . S
C1937 C1941 1.408 . S
C1938 C1936 1.363 . S
C1938 C1939 1.370 . S
C1938 C1942 1.524 . S
C1939 C1931 1.503 . S
C1939 C1938 1.370 . S
C1939 C1940 1.403 . S
C1940 C1939 1.403 . S
C1940 C1941 1.404 . S
C1940 C1943 1.539 . S
C1941 C1937 1.408 . S
C1941 C1940 1.404 . S
C1941 H1953 0.930 . S
C1942 C1938 1.524 . S
C1942 H1954 0.956 . S
C1942 H1955 0.961 . S
C1942 H1956 0.961 . S
C1943 C1940 1.539 . S
C1943 H1957 0.958 . S
C1943 H1958 0.961 . S
C1943 H1959 0.960 . S
H1944 C1928 0.931 . S
H1945 C1933 0.929 . S
H1946 C1934 0.960 . S
H1947 C1934 0.962 . S
H1948 C1934 0.960 . S
H1949 C1935 0.961 . S
H1950 C1935 0.961 . S
H1951 C1935 0.961 . S
H1952 C1936 0.931 . S
H1953 C1941 0.930 . S
H1954 C1942 0.956 . S
H1955 C1942 0.961 . S
H1956 C1942 0.961 . S
H1957 C1943 0.958 . S
H1958 C1943 0.961 . S
H1959 C1943 0.960 . S
C1960 C1961 1.391 . S
C1960 C1962 1.394 . S
C1960 H1976 0.931 . S
C1961 C1960 1.391 . S
C1961 C1965 1.376 1_554 S
C1962 C1960 1.394 . S
C1962 C1963 1.369 . S
C1962 C1966 1.531 . S
C1963 C1962 1.369 . S
C1963 C1964 1.410 1_554 S
C1963 C1971 1.503 . S
C1964 C1963 1.410 1_556 S
C1964 C1965 1.392 . S
C1964 C1967 1.511 . S
C1965 C1961 1.376 1_556 S
C1965 C1964 1.392 . S
C1965 H1977 0.929 . S
C1966 C1962 1.531 . S
C1966 H1978 0.960 . S
C1966 H1979 0.962 . S
C1966 H1980 0.960 . S
C1967 C1964 1.511 . S
C1967 H1981 0.961 . S
C1967 H1982 0.961 . S
C1967 H1983 0.961 . S
C1968 C1969 1.370 . S
C1968 C1970 1.363 . S
C1968 H1984 0.931 . S
C1969 C1968 1.370 . S
C1969 C1973 1.408 1_554 S
C1970 C1968 1.363 . S
C1970 C1971 1.370 . S
C1970 C1974 1.524 . S
C1971 C1963 1.503 . S
C1971 C1970 1.370 . S
C1971 C1972 1.415 . S
C1972 C1971 1.415 . S
C1972 C1973 1.403 1_554 S
C1972 C1975 1.526 1_554 S
C1973 C1969 1.408 1_556 S
C1973 C1972 1.403 1_556 S
C1973 H1985 0.930 . S
C1974 C1970 1.524 . S
C1974 H1986 0.956 . S
C1974 H1987 0.961 . S
C1974 H1988 0.961 . S
C1975 C1972 1.526 1_556 S
C1975 H1989 0.958 1_556 S
C1975 H1990 0.961 . S
C1975 H1991 0.960 . S
H1976 C1960 0.931 . S
H1977 C1965 0.929 . S
H1978 C1966 0.960 . S
H1979 C1966 0.962 . S
H1980 C1966 0.960 . S
H1981 C1967 0.961 . S
H1982 C1967 0.961 . S
H1983 C1967 0.961 . S
H1984 C1968 0.931 . S
H1985 C1973 0.930 . S
H1986 C1974 0.956 . S
H1987 C1974 0.961 . S
H1988 C1974 0.961 . S
H1989 C1975 0.958 1_554 S
H1990 C1975 0.961 . S
H1991 C1975 0.960 . S
C1992 C1993 1.391 . S
C1992 C1994 1.394 . S
C1992 H2008 0.931 . S
C1993 C1992 1.391 . S
C1993 C1997 1.376 . S
C1994 C1992 1.394 . S
C1994 C1995 1.369 . S
C1994 C1998 1.531 . S
C1995 C1994 1.369 . S
C1995 C1996 1.410 . S
C1995 C2003 1.503 . S
C1996 C1995 1.410 . S
C1996 C1997 1.392 . S
C1996 C1999 1.511 . S
C1997 C1993 1.376 . S
C1997 C1996 1.392 . S
C1997 H2009 0.929 . S
C1998 C1994 1.531 . S
C1998 H2010 0.960 . S
C1998 H2011 0.962 . S
C1998 H2012 0.960 . S
C1999 C1996 1.511 . S
C1999 H2013 0.961 . S
C1999 H2014 0.961 . S
C1999 H2015 0.961 . S
C2000 C2001 1.370 . S
C2000 C2002 1.363 . S
C2000 H2016 0.931 . S
C2001 C2000 1.370 . S
C2001 C2005 1.408 . S
C2002 C2000 1.363 . S
C2002 C2003 1.370 . S
C2002 C2006 1.524 . S
C2003 C1995 1.503 . S
C2003 C2002 1.370 . S
C2003 C2004 1.403 . S
C2004 C2003 1.403 . S
C2004 C2005 1.404 . S
C2004 C2007 1.539 . S
C2005 C2001 1.408 . S
C2005 C2004 1.404 . S
C2005 H2017 0.930 . S
C2006 C2002 1.524 . S
C2006 H2018 0.956 . S
C2006 H2019 0.961 . S
C2006 H2020 0.961 . S
C2007 C2004 1.539 . S
C2007 H2021 0.958 . S
C2007 H2022 0.961 . S
C2007 H2023 0.960 . S
H2008 C1992 0.931 . S
H2009 C1997 0.929 . S
H2010 C1998 0.960 . S
H2011 C1998 0.962 . S
H2012 C1998 0.960 . S
H2013 C1999 0.961 . S
H2014 C1999 0.961 . S
H2015 C1999 0.961 . S
H2016 C2000 0.931 . S
H2017 C2005 0.930 . S
H2018 C2006 0.956 . S
H2019 C2006 0.961 . S
H2020 C2006 0.961 . S
H2021 C2007 0.958 . S
H2022 C2007 0.961 . S
H2023 C2007 0.960 . S
C2024 C2025 1.391 . S
C2024 C2026 1.394 1_556 S
C2024 H2040 0.926 1_556 S
C2025 C2024 1.391 . S
C2025 C2029 1.376 . S
C2026 C2024 1.394 1_554 S
C2026 C2027 1.367 1_554 S
C2026 C2030 1.531 . S
C2027 C2026 1.367 1_556 S
C2027 C2028 1.415 . S
C2027 C2035 1.501 1_556 S
C2028 C2027 1.415 . S
C2028 C2029 1.392 . S
C2028 C2031 1.511 . S
C2029 C2025 1.376 . S
C2029 C2028 1.392 . S
C2029 H2041 0.929 . S
C2030 C2026 1.531 . S
C2030 H2042 0.960 . S
C2030 H2043 0.960 . S
C2030 H2044 0.960 . S
C2031 C2028 1.511 . S
C2031 H2045 0.961 . S
C2031 H2046 0.961 . S
C2031 H2047 0.961 1_556 S
C2032 C2033 1.370 1_556 S
C2032 C2034 1.363 . S
C2032 H2048 0.931 . S
C2033 C2032 1.370 1_554 S
C2033 C2037 1.408 . S
C2034 C2032 1.363 . S
C2034 C2035 1.370 1_556 S
C2034 C2038 1.524 . S
C2035 C2027 1.501 1_554 S
C2035 C2034 1.370 1_554 S
C2035 C2036 1.403 . S
C2036 C2035 1.403 . S
C2036 C2037 1.404 . S
C2036 C2039 1.539 . S
C2037 C2033 1.408 . S
C2037 C2036 1.404 . S
C2037 H2049 0.930 . S
C2038 C2034 1.524 . S
C2038 H2050 0.956 . S
C2038 H2051 0.961 . S
C2038 H2052 0.961 . S
C2039 C2036 1.539 . S
C2039 H2053 0.958 . S
C2039 H2054 0.961 . S
C2039 H2055 0.960 . S
H2040 C2024 0.926 1_554 S
H2041 C2029 0.929 . S
H2042 C2030 0.960 . S
H2043 C2030 0.960 . S
H2044 C2030 0.960 . S
H2045 C2031 0.961 . S
H2046 C2031 0.961 . S
H2047 C2031 0.961 1_554 S
H2048 C2032 0.931 . S
H2049 C2037 0.930 . S
H2050 C2038 0.956 . S
H2051 C2038 0.961 . S
H2052 C2038 0.961 . S
H2053 C2039 0.958 . S
H2054 C2039 0.961 . S
H2055 C2039 0.960 . S
C2056 C2057 1.391 . S
C2056 C2058 1.394 . S
C2056 H2072 0.931 . S
C2057 C2056 1.391 . S
C2057 C2061 1.376 . S
C2058 C2056 1.394 . S
C2058 C2059 1.369 . S
C2058 C2062 1.531 . S
C2059 C2058 1.369 . S
C2059 C2060 1.410 . S
C2059 C2067 1.503 . S
C2060 C2059 1.410 . S
C2060 C2061 1.392 . S
C2060 C2063 1.511 . S
C2061 C2057 1.376 . S
C2061 C2060 1.392 . S
C2061 H2073 0.929 . S
C2062 C2058 1.531 . S
C2062 H2074 0.960 . S
C2062 H2075 0.962 . S
C2062 H2076 0.960 . S
C2063 C2060 1.511 . S
C2063 H2077 0.961 . S
C2063 H2078 0.961 . S
C2063 H2079 0.961 . S
C2064 C2065 1.370 . S
C2064 C2066 1.363 . S
C2064 H2080 0.931 . S
C2065 C2064 1.370 . S
C2065 C2069 1.408 . S
C2066 C2064 1.363 . S
C2066 C2067 1.370 . S
C2066 C2070 1.524 . S
C2067 C2059 1.503 . S
C2067 C2066 1.370 . S
C2067 C2068 1.403 . S
C2068 C2067 1.403 . S
C2068 C2069 1.404 . S
C2068 C2071 1.539 . S
C2069 C2065 1.408 . S
C2069 C2068 1.404 . S
C2069 H2081 0.930 . S
C2070 C2066 1.524 . S
C2070 H2082 0.956 . S
C2070 H2083 0.961 . S
C2070 H2084 0.961 . S
C2071 C2068 1.539 . S
C2071 H2085 0.958 . S
C2071 H2086 0.961 . S
C2071 H2087 0.960 . S
H2072 C2056 0.931 . S
H2073 C2061 0.929 . S
H2074 C2062 0.960 . S
H2075 C2062 0.962 . S
H2076 C2062 0.960 . S
H2077 C2063 0.961 . S
H2078 C2063 0.961 . S
H2079 C2063 0.961 . S
H2080 C2064 0.931 . S
H2081 C2069 0.930 . S
H2082 C2070 0.956 . S
H2083 C2070 0.961 . S
H2084 C2070 0.961 . S
H2085 C2071 0.958 . S
H2086 C2071 0.961 . S
H2087 C2071 0.960 . S
C2088 C2089 1.391 1_655 S
C2088 C2090 1.394 . S
C2088 H2104 0.931 . S
C2089 C2088 1.391 1_455 S
C2089 C2093 1.376 . S
C2090 C2088 1.394 . S
C2090 C2091 1.369 1_655 S
C2090 C2094 1.531 . S
C2091 C2090 1.369 1_455 S
C2091 C2092 1.410 . S
C2091 C2099 1.503 . S
C2092 C2091 1.410 . S
C2092 C2093 1.392 . S
C2092 C2095 1.511 . S
C2093 C2089 1.376 . S
C2093 C2092 1.392 . S
C2093 H2105 0.929 . S
C2094 C2090 1.531 . S
C2094 H2106 0.960 . S
C2094 H2107 0.962 . S
C2094 H2108 0.960 . S
C2095 C2092 1.511 . S
C2095 H2109 0.961 . S
C2095 H2110 0.961 . S
C2095 H2111 0.961 . S
C2096 C2097 1.370 . S
C2096 C2098 1.363 . S
C2096 H2112 0.931 . S
C2097 C2096 1.370 . S
C2097 C2101 1.408 1_455 S
C2098 C2096 1.363 . S
C2098 C2099 1.370 . S
C2098 C2102 1.524 . S
C2099 C2091 1.503 . S
C2099 C2098 1.370 . S
C2099 C2100 1.403 1_455 S
C2100 C2099 1.403 1_655 S
C2100 C2101 1.404 . S
C2100 C2103 1.539 . S
C2101 C2097 1.408 1_655 S
C2101 C2100 1.404 . S
C2101 H2113 0.930 . S
C2102 C2098 1.524 . S
C2102 H2114 0.956 . S
C2102 H2115 0.961 . S
C2102 H2116 0.961 . S
C2103 C2100 1.539 . S
C2103 H2117 0.958 . S
C2103 H2118 0.961 . S
C2103 H2119 0.978 . S
H2104 C2088 0.931 . S
H2105 C2093 0.929 . S
H2106 C2094 0.960 . S
H2107 C2094 0.962 . S
H2108 C2094 0.960 . S
H2109 C2095 0.961 . S
H2110 C2095 0.961 . S
H2111 C2095 0.961 . S
H2112 C2096 0.931 . S
H2113 C2101 0.930 . S
H2114 C2102 0.956 . S
H2115 C2102 0.961 . S
H2116 C2102 0.961 . S
H2117 C2103 0.958 . S
H2118 C2103 0.961 . S
H2119 C2103 0.978 . S
C2120 C2121 1.391 . S
C2120 C2122 1.394 . S
C2120 H2136 0.931 . S
C2121 C2120 1.391 . S
C2121 C2125 1.376 . S
C2122 C2120 1.394 . S
C2122 C2123 1.369 . S
C2122 C2126 1.531 . S
C2123 C2122 1.369 . S
C2123 C2124 1.410 . S
C2123 C2131 1.503 . S
C2124 C2123 1.410 . S
C2124 C2125 1.392 . S
C2124 C2127 1.511 . S
C2125 C2121 1.376 . S
C2125 C2124 1.392 . S
C2125 H2137 0.929 . S
C2126 C2122 1.531 . S
C2126 H2138 0.960 . S
C2126 H2139 0.962 . S
C2126 H2140 0.960 . S
C2127 C2124 1.511 . S
C2127 H2141 0.961 . S
C2127 H2142 0.961 . S
C2127 H2143 0.961 . S
C2128 C2129 1.370 . S
C2128 C2130 1.363 . S
C2128 H2144 0.931 . S
C2129 C2128 1.370 . S
C2129 C2133 1.408 . S
C2130 C2128 1.363 . S
C2130 C2131 1.370 . S
C2130 C2134 1.524 . S
C2131 C2123 1.503 . S
C2131 C2130 1.370 . S
C2131 C2132 1.403 . S
C2132 C2131 1.403 . S
C2132 C2133 1.404 . S
C2132 C2135 1.539 . S
C2133 C2129 1.408 . S
C2133 C2132 1.404 . S
C2133 H2145 0.930 . S
C2134 C2130 1.524 . S
C2134 H2146 0.956 . S
C2134 H2147 0.961 . S
C2134 H2148 0.961 . S
C2135 C2132 1.539 . S
C2135 H2149 0.958 . S
C2135 H2150 0.961 . S
C2135 H2151 0.960 . S
H2136 C2120 0.931 . S
H2137 C2125 0.929 . S
H2138 C2126 0.960 . S
H2139 C2126 0.962 . S
H2140 C2126 0.960 . S
H2141 C2127 0.961 . S
H2142 C2127 0.961 . S
H2143 C2127 0.961 . S
H2144 C2128 0.931 . S
H2145 C2133 0.930 . S
H2146 C2134 0.956 . S
H2147 C2134 0.961 . S
H2148 C2134 0.961 . S
H2149 C2135 0.958 . S
H2150 C2135 0.961 . S
H2151 C2135 0.960 . S
C2152 C2153 1.391 1_455 S
C2152 C2154 1.394 . S
C2152 H2168 0.931 . S
C2153 C2152 1.391 1_655 S
C2153 C2157 1.376 . S
C2154 C2152 1.394 . S
C2154 C2155 1.369 1_455 S
C2154 C2158 1.531 . S
C2155 C2154 1.369 1_655 S
C2155 C2156 1.410 . S
C2155 C2163 1.503 . S
C2156 C2155 1.410 . S
C2156 C2157 1.392 . S
C2156 C2159 1.511 . S
C2157 C2153 1.376 . S
C2157 C2156 1.392 . S
C2157 H2169 0.929 . S
C2158 C2154 1.531 . S
C2158 H2170 0.960 . S
C2158 H2171 0.962 . S
C2158 H2172 0.960 . S
C2159 C2156 1.511 . S
C2159 H2173 0.961 . S
C2159 H2174 0.961 . S
C2159 H2175 0.961 . S
C2160 C2161 1.370 . S
C2160 C2162 1.363 . S
C2160 H2176 0.931 . S
C2161 C2160 1.370 . S
C2161 C2165 1.408 1_455 S
C2162 C2160 1.363 . S
C2162 C2163 1.370 1_455 S
C2162 C2166 1.524 . S
C2163 C2155 1.503 . S
C2163 C2162 1.370 1_655 S
C2163 C2164 1.403 . S
C2164 C2163 1.403 . S
C2164 C2165 1.404 . S
C2164 C2167 1.539 . S
C2165 C2161 1.408 1_655 S
C2165 C2164 1.404 . S
C2165 H2177 0.930 . S
C2166 C2162 1.524 . S
C2166 H2178 0.956 . S
C2166 H2179 0.961 . S
C2166 H2180 0.961 . S
C2167 C2164 1.539 . S
C2167 H2181 0.958 . S
C2167 H2182 0.961 . S
C2167 H2183 0.960 . S
H2168 C2152 0.931 . S
H2169 C2157 0.929 . S
H2170 C2158 0.960 . S
H2171 C2158 0.962 . S
H2172 C2158 0.960 . S
H2173 C2159 0.961 . S
H2174 C2159 0.961 . S
H2175 C2159 0.961 . S
H2176 C2160 0.931 . S
H2177 C2165 0.930 . S
H2178 C2166 0.956 . S
H2179 C2166 0.961 . S
H2180 C2166 0.961 . S
H2181 C2167 0.958 . S
H2182 C2167 0.961 . S
H2183 C2167 0.960 . S
C2184 C2185 1.391 . S
C2184 C2186 1.394 . S
C2184 H2200 0.931 . S
C2185 C2184 1.391 . S
C2185 C2189 1.376 . S
C2186 C2184 1.394 . S
C2186 C2187 1.369 . S
C2186 C2190 1.531 . S
C2187 C2186 1.369 . S
C2187 C2188 1.410 . S
C2187 C2195 1.503 . S
C2188 C2187 1.410 . S
C2188 C2189 1.392 . S
C2188 C2191 1.511 . S
C2189 C2185 1.376 . S
C2189 C2188 1.392 . S
C2189 H2201 0.929 . S
C2190 C2186 1.531 . S
C2190 H2202 0.960 . S
C2190 H2203 0.962 . S
C2190 H2204 0.960 . S
C2191 C2188 1.511 . S
C2191 H2205 0.961 . S
C2191 H2206 0.961 . S
C2191 H2207 0.961 . S
C2192 C2193 1.370 . S
C2192 C2194 1.363 . S
C2192 H2208 0.931 . S
C2193 C2192 1.370 . S
C2193 C2197 1.408 . S
C2194 C2192 1.363 . S
C2194 C2195 1.370 . S
C2194 C2198 1.524 . S
C2195 C2187 1.503 . S
C2195 C2194 1.370 . S
C2195 C2196 1.403 . S
C2196 C2195 1.403 . S
C2196 C2197 1.404 . S
C2196 C2199 1.539 . S
C2197 C2193 1.408 . S
C2197 C2196 1.404 . S
C2197 H2209 0.930 . S
C2198 C2194 1.524 . S
C2198 H2210 0.956 . S
C2198 H2211 0.961 . S
C2198 H2212 0.961 . S
C2199 C2196 1.539 . S
C2199 H2213 0.958 . S
C2199 H2214 0.961 . S
C2199 H2215 0.960 . S
H2200 C2184 0.931 . S
H2201 C2189 0.929 . S
H2202 C2190 0.960 . S
H2203 C2190 0.962 . S
H2204 C2190 0.960 . S
H2205 C2191 0.961 . S
H2206 C2191 0.961 . S
H2207 C2191 0.961 . S
H2208 C2192 0.931 . S
H2209 C2197 0.930 . S
H2210 C2198 0.956 . S
H2211 C2198 0.961 . S
H2212 C2198 0.961 . S
H2213 C2199 0.958 . S
H2214 C2199 0.961 . S
H2215 C2199 0.960 . S
C2216 C2217 1.391 . S
C2216 C2218 1.394 . S
C2216 H2232 0.931 . S
C2217 C2216 1.391 . S
C2217 C2221 1.376 . S
C2218 C2216 1.394 . S
C2218 C2219 1.369 . S
C2218 C2222 1.531 . S
C2219 C2218 1.369 . S
C2219 C2220 1.410 . S
C2219 C2227 1.503 . S
C2220 C2219 1.410 . S
C2220 C2221 1.392 . S
C2220 C2223 1.511 . S
C2221 C2217 1.376 . S
C2221 C2220 1.392 . S
C2221 H2233 0.929 . S
C2222 C2218 1.531 . S
C2222 H2234 0.960 . S
C2222 H2235 0.962 . S
C2222 H2236 0.960 . S
C2223 C2220 1.511 . S
C2223 H2237 0.961 . S
C2223 H2238 0.961 . S
C2223 H2239 0.961 . S
C2224 C2225 1.370 . S
C2224 C2226 1.363 . S
C2224 H2240 0.931 . S
C2225 C2224 1.370 . S
C2225 C2229 1.408 . S
C2226 C2224 1.363 . S
C2226 C2227 1.370 . S
C2226 C2230 1.524 . S
C2227 C2219 1.503 . S
C2227 C2226 1.370 . S
C2227 C2228 1.403 . S
C2228 C2227 1.403 . S
C2228 C2229 1.404 . S
C2228 C2231 1.539 . S
C2229 C2225 1.408 . S
C2229 C2228 1.404 . S
C2229 H2241 0.930 . S
C2230 C2226 1.524 . S
C2230 H2242 0.956 . S
C2230 H2243 0.961 . S
C2230 H2244 0.961 . S
C2231 C2228 1.539 . S
C2231 H2245 0.958 . S
C2231 H2246 0.961 . S
C2231 H2247 0.960 . S
H2232 C2216 0.931 . S
H2233 C2221 0.929 . S
H2234 C2222 0.960 . S
H2235 C2222 0.962 . S
H2236 C2222 0.960 . S
H2237 C2223 0.961 . S
H2238 C2223 0.961 . S
H2239 C2223 0.961 . S
H2240 C2224 0.931 . S
H2241 C2229 0.930 . S
H2242 C2230 0.956 . S
H2243 C2230 0.961 . S
H2244 C2230 0.961 . S
H2245 C2231 0.958 . S
H2246 C2231 0.961 . S
H2247 C2231 0.960 . S
C2248 C2249 1.391 . S
C2248 C2250 1.394 . S
C2248 H2264 0.931 . S
C2249 C2248 1.391 . S
C2249 C2253 1.376 . S
C2250 C2248 1.394 . S
C2250 C2251 1.375 . S
C2250 C2254 1.531 . S
C2251 C2250 1.375 . S
C2251 C2252 1.407 1_545 S
C2251 C2259 1.501 1_545 S
C2252 C2251 1.407 1_565 S
C2252 C2253 1.392 1_565 S
C2252 C2255 1.511 . S
C2253 C2249 1.376 . S
C2253 C2252 1.392 1_545 S
C2253 H2265 0.929 . S
C2254 C2250 1.531 . S
C2254 H2266 0.960 1_545 S
C2254 H2267 0.962 . S
C2254 H2268 0.960 . S
C2255 C2252 1.511 . S
C2255 H2269 0.961 . S
C2255 H2270 0.961 . S
C2255 H2271 0.961 . S
C2256 C2257 1.370 1_545 S
C2256 C2258 1.363 . S
C2256 H2272 0.931 . S
C2257 C2256 1.370 1_565 S
C2257 C2261 1.408 . S
C2258 C2256 1.363 . S
C2258 C2259 1.370 1_545 S
C2258 C2262 1.524 . S
C2259 C2251 1.501 1_565 S
C2259 C2258 1.370 1_565 S
C2259 C2260 1.403 . S
C2260 C2259 1.403 . S
C2260 C2261 1.404 . S
C2260 C2263 1.539 . S
C2261 C2257 1.408 . S
C2261 C2260 1.404 . S
C2261 H2273 0.930 . S
C2262 C2258 1.524 . S
C2262 H2274 0.956 . S
C2262 H2275 0.961 . S
C2262 H2276 0.961 . S
C2263 C2260 1.539 . S
C2263 H2277 0.958 . S
C2263 H2278 0.961 . S
C2263 H2279 0.960 . S
H2264 C2248 0.931 . S
H2265 C2253 0.929 . S
H2266 C2254 0.960 1_565 S
H2267 C2254 0.962 . S
H2268 C2254 0.960 . S
H2269 C2255 0.961 . S
H2270 C2255 0.961 . S
H2271 C2255 0.961 . S
H2272 C2256 0.931 . S
H2273 C2261 0.930 . S
H2274 C2262 0.956 . S
H2275 C2262 0.961 . S
H2276 C2262 0.961 . S
H2277 C2263 0.958 . S
H2278 C2263 0.961 . S
H2279 C2263 0.960 . S
C2280 C2281 1.391 . S
C2280 C2282 1.394 . S
C2280 H2296 0.931 . S
C2281 C2280 1.391 . S
C2281 C2285 1.376 . S
C2282 C2280 1.394 . S
C2282 C2283 1.369 . S
C2282 C2286 1.531 . S
C2283 C2282 1.369 . S
C2283 C2284 1.410 . S
C2283 C2291 1.503 . S
C2284 C2283 1.410 . S
C2284 C2285 1.392 . S
C2284 C2287 1.511 1_565 S
C2285 C2281 1.376 . S
C2285 C2284 1.392 . S
C2285 H2297 0.929 . S
C2286 C2282 1.531 . S
C2286 H2298 0.960 . S
C2286 H2299 0.962 . S
C2286 H2300 0.960 . S
C2287 C2284 1.511 1_545 S
C2287 H2301 0.977 . S
C2287 H2302 0.971 . S
C2287 H2303 0.961 . S
C2288 C2289 1.370 . S
C2288 C2290 1.363 . S
C2288 H2304 0.931 . S
C2289 C2288 1.370 . S
C2289 C2293 1.408 1_565 S
C2290 C2288 1.363 . S
C2290 C2291 1.370 . S
C2290 C2294 1.524 . S
C2291 C2283 1.503 . S
C2291 C2290 1.370 . S
C2291 C2292 1.403 1_565 S
C2292 C2291 1.403 1_545 S
C2292 C2293 1.404 . S
C2292 C2295 1.539 . S
C2293 C2289 1.408 1_545 S
C2293 C2292 1.404 . S
C2293 H2305 0.930 . S
C2294 C2290 1.524 . S
C2294 H2306 0.956 . S
C2294 H2307 0.961 . S
C2294 H2308 0.961 . S
C2295 C2292 1.539 . S
C2295 H2309 0.958 . S
C2295 H2310 0.961 . S
C2295 H2311 0.960 . S
H2296 C2280 0.931 . S
H2297 C2285 0.929 . S
H2298 C2286 0.960 . S
H2299 C2286 0.962 . S
H2300 C2286 0.960 . S
H2301 C2287 0.977 . S
H2302 C2287 0.971 . S
H2303 C2287 0.961 . S
H2304 C2288 0.931 . S
H2305 C2293 0.930 . S
H2306 C2294 0.956 . S
H2307 C2294 0.961 . S
H2308 C2294 0.961 . S
H2309 C2295 0.958 . S
H2310 C2295 0.961 . S
H2311 C2295 0.960 . S
C2312 C2313 1.391 . S
C2312 C2314 1.394 . S
C2312 H2328 0.931 . S
C2313 C2312 1.391 . S
C2313 C2317 1.376 . S
C2314 C2312 1.394 . S
C2314 C2315 1.369 . S
C2314 C2318 1.531 . S
C2315 C2314 1.369 . S
C2315 C2316 1.410 . S
C2315 C2323 1.503 . S
C2316 C2315 1.410 . S
C2316 C2317 1.392 . S
C2316 C2319 1.511 . S
C2317 C2313 1.376 . S
C2317 C2316 1.392 . S
C2317 H2329 0.929 . S
C2318 C2314 1.531 . S
C2318 H2330 0.960 . S
C2318 H2331 0.962 . S
C2318 H2332 0.960 . S
C2319 C2316 1.511 . S
C2319 H2333 0.961 . S
C2319 H2334 0.961 . S
C2319 H2335 0.961 . S
C2320 C2321 1.370 . S
C2320 C2322 1.363 . S
C2320 H2336 0.931 . S
C2321 C2320 1.370 . S
C2321 C2325 1.408 . S
C2322 C2320 1.363 . S
C2322 C2323 1.370 . S
C2322 C2326 1.524 . S
C2323 C2315 1.503 . S
C2323 C2322 1.370 . S
C2323 C2324 1.403 . S
C2324 C2323 1.403 . S
C2324 C2325 1.404 . S
C2324 C2327 1.539 . S
C2325 C2321 1.408 . S
C2325 C2324 1.404 . S
C2325 H2337 0.930 . S
C2326 C2322 1.524 . S
C2326 H2338 0.956 . S
C2326 H2339 0.961 . S
C2326 H2340 0.961 . S
C2327 C2324 1.539 . S
C2327 H2341 0.958 . S
C2327 H2342 0.961 . S
C2327 H2343 0.960 . S
H2328 C2312 0.931 . S
H2329 C2317 0.929 . S
H2330 C2318 0.960 . S
H2331 C2318 0.962 . S
H2332 C2318 0.960 . S
H2333 C2319 0.961 . S
H2334 C2319 0.961 . S
H2335 C2319 0.961 . S
H2336 C2320 0.931 . S
H2337 C2325 0.930 . S
H2338 C2326 0.956 . S
H2339 C2326 0.961 . S
H2340 C2326 0.961 . S
H2341 C2327 0.958 . S
H2342 C2327 0.961 . S
H2343 C2327 0.960 . S
C2344 C2345 1.386 1_554 S
C2344 C2346 1.394 . S
C2344 H2360 0.934 . S
C2345 C2344 1.386 1_556 S
C2345 C2349 1.376 . S
C2346 C2344 1.394 . S
C2346 C2347 1.369 1_554 S
C2346 C2350 1.531 . S
C2347 C2346 1.369 1_556 S
C2347 C2348 1.410 . S
C2347 C2355 1.503 . S
C2348 C2347 1.410 . S
C2348 C2349 1.392 . S
C2348 C2351 1.511 . S
C2349 C2345 1.376 . S
C2349 C2348 1.392 . S
C2349 H2361 0.929 . S
C2350 C2346 1.531 . S
C2350 H2362 0.960 . S
C2350 H2363 0.962 . S
C2350 H2364 0.960 . S
C2351 C2348 1.511 . S
C2351 H2365 0.961 . S
C2351 H2366 0.961 . S
C2351 H2367 0.961 . S
C2352 C2353 1.370 . S
C2352 C2354 1.363 . S
C2352 H2368 0.931 . S
C2353 C2352 1.370 . S
C2353 C2357 1.408 1_556 S
C2354 C2352 1.363 . S
C2354 C2355 1.370 . S
C2354 C2358 1.524 . S
C2355 C2347 1.503 . S
C2355 C2354 1.370 . S
C2355 C2356 1.403 1_556 S
C2356 C2355 1.403 1_554 S
C2356 C2357 1.404 . S
C2356 C2359 1.539 . S
C2357 C2353 1.408 1_554 S
C2357 C2356 1.404 . S
C2357 H2369 0.930 . S
C2358 C2354 1.524 . S
C2358 H2370 0.956 . S
C2358 H2371 0.961 . S
C2358 H2372 0.961 . S
C2359 C2356 1.539 . S
C2359 H2373 0.958 . S
C2359 H2374 0.961 . S
C2359 H2375 0.960 . S
H2360 C2344 0.934 . S
H2361 C2349 0.929 . S
H2362 C2350 0.960 . S
H2363 C2350 0.962 . S
H2364 C2350 0.960 . S
H2365 C2351 0.961 . S
H2366 C2351 0.961 . S
H2367 C2351 0.961 . S
H2368 C2352 0.931 . S
H2369 C2357 0.930 . S
H2370 C2358 0.956 . S
H2371 C2358 0.961 . S
H2372 C2358 0.961 . S
H2373 C2359 0.958 . S
H2374 C2359 0.961 . S
H2375 C2359 0.960 . S
C2376 C2377 1.391 . S
C2376 C2378 1.394 . S
C2376 H2392 0.931 . S
C2377 C2376 1.391 . S
C2377 C2381 1.376 . S
C2378 C2376 1.394 . S
C2378 C2379 1.369 . S
C2378 C2382 1.531 . S
C2379 C2378 1.369 . S
C2379 C2380 1.410 . S
C2379 C2387 1.503 . S
C2380 C2379 1.410 . S
C2380 C2381 1.392 . S
C2380 C2383 1.511 . S
C2381 C2377 1.376 . S
C2381 C2380 1.392 . S
C2381 H2393 0.929 . S
C2382 C2378 1.531 . S
C2382 H2394 0.960 . S
C2382 H2395 0.962 . S
C2382 H2396 0.960 . S
C2383 C2380 1.511 . S
C2383 H2397 0.961 . S
C2383 H2398 0.961 . S
C2383 H2399 0.961 . S
C2384 C2385 1.370 . S
C2384 C2386 1.363 . S
C2384 H2400 0.931 . S
C2385 C2384 1.370 . S
C2385 C2389 1.408 . S
C2386 C2384 1.363 . S
C2386 C2387 1.370 . S
C2386 C2390 1.524 . S
C2387 C2379 1.503 . S
C2387 C2386 1.370 . S
C2387 C2388 1.403 . S
C2388 C2387 1.403 . S
C2388 C2389 1.404 . S
C2388 C2391 1.539 . S
C2389 C2385 1.408 . S
C2389 C2388 1.404 . S
C2389 H2401 0.930 . S
C2390 C2386 1.524 . S
C2390 H2402 0.956 . S
C2390 H2403 0.961 . S
C2390 H2404 0.961 . S
C2391 C2388 1.539 . S
C2391 H2405 0.958 . S
C2391 H2406 0.961 . S
C2391 H2407 0.960 . S
H2392 C2376 0.931 . S
H2393 C2381 0.929 . S
H2394 C2382 0.960 . S
H2395 C2382 0.962 . S
H2396 C2382 0.960 . S
H2397 C2383 0.961 . S
H2398 C2383 0.961 . S
H2399 C2383 0.961 . S
H2400 C2384 0.931 . S
H2401 C2389 0.930 . S
H2402 C2390 0.956 . S
H2403 C2390 0.961 . S
H2404 C2390 0.961 . S
H2405 C2391 0.958 . S
H2406 C2391 0.961 . S
H2407 C2391 0.960 . S
C2408 C2409 1.391 . S
C2408 C2410 1.394 . S
C2408 H2424 0.931 . S
C2409 C2408 1.391 . S
C2409 C2413 1.376 1_554 S
C2410 C2408 1.394 . S
C2410 C2411 1.369 . S
C2410 C2414 1.531 . S
C2411 C2410 1.369 . S
C2411 C2412 1.410 1_554 S
C2411 C2419 1.503 1_554 S
C2412 C2411 1.410 1_556 S
C2412 C2413 1.392 . S
C2412 C2415 1.511 . S
C2413 C2409 1.376 1_556 S
C2413 C2412 1.392 . S
C2413 H2425 0.929 . S
C2414 C2410 1.531 . S
C2414 H2426 0.960 . S
C2414 H2427 0.962 . S
C2414 H2428 0.960 . S
C2415 C2412 1.511 . S
C2415 H2429 0.961 . S
C2415 H2430 0.961 . S
C2415 H2431 0.961 . S
C2416 C2417 1.370 1_554 S
C2416 C2418 1.363 . S
C2416 H2432 0.931 . S
C2417 C2416 1.370 1_556 S
C2417 C2421 1.408 . S
C2418 C2416 1.363 . S
C2418 C2419 1.370 1_554 S
C2418 C2422 1.524 . S
C2419 C2411 1.503 1_556 S
C2419 C2418 1.370 1_556 S
C2419 C2420 1.403 . S
C2420 C2419 1.403 . S
C2420 C2421 1.404 . S
C2420 C2423 1.539 . S
C2421 C2417 1.408 . S
C2421 C2420 1.404 . S
C2421 H2433 0.930 . S
C2422 C2418 1.524 . S
C2422 H2434 0.956 . S
C2422 H2435 0.961 . S
C2422 H2436 0.961 . S
C2423 C2420 1.539 . S
C2423 H2437 0.958 . S
C2423 H2438 0.961 . S
C2423 H2439 0.960 . S
H2424 C2408 0.931 . S
H2425 C2413 0.929 . S
H2426 C2414 0.960 . S
H2427 C2414 0.962 . S
H2428 C2414 0.960 . S
H2429 C2415 0.961 . S
H2430 C2415 0.961 . S
H2431 C2415 0.961 . S
H2432 C2416 0.931 . S
H2433 C2421 0.930 . S
H2434 C2422 0.956 . S
H2435 C2422 0.961 . S
H2436 C2422 0.961 . S
H2437 C2423 0.958 . S
H2438 C2423 0.961 . S
H2439 C2423 0.960 . S
C2440 C2441 1.391 . S
C2440 C2442 1.394 . S
C2440 H2456 0.931 . S
C2441 C2440 1.391 . S
C2441 C2445 1.376 . S
C2442 C2440 1.394 . S
C2442 C2443 1.369 . S
C2442 C2446 1.531 . S
C2443 C2442 1.369 . S
C2443 C2444 1.410 . S
C2443 C2451 1.503 . S
C2444 C2443 1.410 . S
C2444 C2445 1.392 . S
C2444 C2447 1.511 . S
C2445 C2441 1.376 . S
C2445 C2444 1.392 . S
C2445 H2457 0.929 . S
C2446 C2442 1.531 . S
C2446 H2458 0.960 . S
C2446 H2459 0.962 . S
C2446 H2460 0.960 . S
C2447 C2444 1.511 . S
C2447 H2461 0.961 . S
C2447 H2462 0.961 . S
C2447 H2463 0.961 . S
C2448 C2449 1.370 . S
C2448 C2450 1.363 . S
C2448 H2464 0.931 . S
C2449 C2448 1.370 . S
C2449 C2453 1.408 . S
C2450 C2448 1.363 . S
C2450 C2451 1.370 . S
C2450 C2454 1.524 . S
C2451 C2443 1.503 . S
C2451 C2450 1.370 . S
C2451 C2452 1.403 . S
C2452 C2451 1.403 . S
C2452 C2453 1.404 . S
C2452 C2455 1.539 . S
C2453 C2449 1.408 . S
C2453 C2452 1.404 . S
C2453 H2465 0.930 . S
C2454 C2450 1.524 . S
C2454 H2466 0.956 . S
C2454 H2467 0.961 . S
C2454 H2468 0.961 . S
C2455 C2452 1.539 . S
C2455 H2469 0.958 . S
C2455 H2470 0.961 . S
C2455 H2471 0.960 . S
H2456 C2440 0.931 . S
H2457 C2445 0.929 . S
H2458 C2446 0.960 . S
H2459 C2446 0.962 . S
H2460 C2446 0.960 . S
H2461 C2447 0.961 . S
H2462 C2447 0.961 . S
H2463 C2447 0.961 . S
H2464 C2448 0.931 . S
H2465 C2453 0.930 . S
H2466 C2454 0.956 . S
H2467 C2454 0.961 . S
H2468 C2454 0.961 . S
H2469 C2455 0.958 . S
H2470 C2455 0.961 . S
H2471 C2455 0.960 . S
C2472 C2473 1.391 1_455 S
C2472 C2474 1.394 . S
C2472 H2488 0.931 . S
C2473 C2472 1.391 1_655 S
C2473 C2477 1.376 . S
C2474 C2472 1.394 . S
C2474 C2475 1.369 1_455 S
C2474 C2478 1.531 . S
C2475 C2474 1.369 1_655 S
C2475 C2476 1.410 . S
C2475 C2483 1.503 . S
C2476 C2475 1.410 . S
C2476 C2477 1.392 . S
C2476 C2479 1.511 . S
C2477 C2473 1.376 . S
C2477 C2476 1.392 . S
C2477 H2489 0.929 . S
C2478 C2474 1.531 . S
C2478 H2490 0.960 . S
C2478 H2491 0.962 . S
C2478 H2492 0.960 . S
C2479 C2476 1.511 . S
C2479 H2493 0.961 . S
C2479 H2494 0.961 . S
C2479 H2495 0.961 . S
C2480 C2481 1.370 . S
C2480 C2482 1.363 . S
C2480 H2496 0.931 . S
C2481 C2480 1.370 . S
C2481 C2485 1.408 1_655 S
C2482 C2480 1.363 . S
C2482 C2483 1.370 . S
C2482 C2486 1.524 . S
C2483 C2475 1.503 . S
C2483 C2482 1.370 . S
C2483 C2484 1.403 1_655 S
C2484 C2483 1.403 1_455 S
C2484 C2485 1.404 . S
C2484 C2487 1.539 . S
C2485 C2481 1.408 1_455 S
C2485 C2484 1.404 . S
C2485 H2497 0.930 . S
C2486 C2482 1.524 . S
C2486 H2498 0.956 . S
C2486 H2499 0.961 . S
C2486 H2500 0.961 . S
C2487 C2484 1.539 . S
C2487 H2501 0.958 . S
C2487 H2502 0.961 . S
C2487 H2503 0.960 . S
H2488 C2472 0.931 . S
H2489 C2477 0.929 . S
H2490 C2478 0.960 . S
H2491 C2478 0.962 . S
H2492 C2478 0.960 . S
H2493 C2479 0.961 . S
H2494 C2479 0.961 . S
H2495 C2479 0.961 . S
H2496 C2480 0.931 . S
H2497 C2485 0.930 . S
H2498 C2486 0.956 . S
H2499 C2486 0.961 . S
H2500 C2486 0.961 . S
H2501 C2487 0.958 . S
H2502 C2487 0.961 . S
H2503 C2487 0.960 . S
C2504 C2505 1.391 . S
C2504 C2506 1.394 . S
C2504 H2520 0.931 . S
C2505 C2504 1.391 . S
C2505 C2509 1.376 . S
C2506 C2504 1.394 . S
C2506 C2507 1.369 . S
C2506 C2510 1.531 . S
C2507 C2506 1.369 . S
C2507 C2508 1.410 . S
C2507 C2515 1.503 . S
C2508 C2507 1.410 . S
C2508 C2509 1.392 . S
C2508 C2511 1.511 . S
C2509 C2505 1.376 . S
C2509 C2508 1.392 . S
C2509 H2521 0.929 . S
C2510 C2506 1.531 . S
C2510 H2522 0.960 . S
C2510 H2523 0.962 . S
C2510 H2524 0.960 . S
C2511 C2508 1.511 . S
C2511 H2525 0.961 . S
C2511 H2526 0.961 . S
C2511 H2527 0.961 . S
C2512 C2513 1.370 . S
C2512 C2514 1.363 . S
C2512 H2528 0.931 . S
C2513 C2512 1.370 . S
C2513 C2517 1.408 . S
C2514 C2512 1.363 . S
C2514 C2515 1.370 . S
C2514 C2518 1.524 . S
C2515 C2507 1.503 . S
C2515 C2514 1.370 . S
C2515 C2516 1.403 . S
C2516 C2515 1.403 . S
C2516 C2517 1.404 . S
C2516 C2519 1.539 . S
C2517 C2513 1.408 . S
C2517 C2516 1.404 . S
C2517 H2529 0.930 . S
C2518 C2514 1.524 . S
C2518 H2530 0.956 . S
C2518 H2531 0.961 . S
C2518 H2532 0.961 . S
C2519 C2516 1.539 . S
C2519 H2533 0.958 . S
C2519 H2534 0.961 . S
C2519 H2535 0.960 . S
H2520 C2504 0.931 . S
H2521 C2509 0.929 . S
H2522 C2510 0.960 . S
H2523 C2510 0.962 . S
H2524 C2510 0.960 . S
H2525 C2511 0.961 . S
H2526 C2511 0.961 . S
H2527 C2511 0.961 . S
H2528 C2512 0.931 . S
H2529 C2517 0.930 . S
H2530 C2518 0.956 . S
H2531 C2518 0.961 . S
H2532 C2518 0.961 . S
H2533 C2519 0.958 . S
H2534 C2519 0.961 . S
H2535 C2519 0.960 . S
C2536 C2537 1.391 1_655 S
C2536 C2538 1.394 . S
C2536 H2552 0.931 . S
C2537 C2536 1.391 1_455 S
C2537 C2541 1.376 . S
C2538 C2536 1.394 . S
C2538 C2539 1.369 1_655 S
C2538 C2542 1.531 . S
C2539 C2538 1.369 1_455 S
C2539 C2540 1.410 . S
C2539 C2547 1.503 . S
C2540 C2539 1.410 . S
C2540 C2541 1.392 . S
C2540 C2543 1.511 . S
C2541 C2537 1.376 . S
C2541 C2540 1.392 . S
C2541 H2553 0.929 . S
C2542 C2538 1.531 . S
C2542 H2554 0.960 . S
C2542 H2555 0.962 . S
C2542 H2556 0.960 . S
C2543 C2540 1.511 . S
C2543 H2557 0.961 . S
C2543 H2558 0.961 . S
C2543 H2559 0.961 . S
C2544 C2545 1.370 . S
C2544 C2546 1.363 . S
C2544 H2560 0.931 . S
C2545 C2544 1.370 . S
C2545 C2549 1.408 1_655 S
C2546 C2544 1.363 . S
C2546 C2547 1.370 1_655 S
C2546 C2550 1.524 . S
C2547 C2539 1.503 . S
C2547 C2546 1.370 1_455 S
C2547 C2548 1.403 . S
C2548 C2547 1.403 . S
C2548 C2549 1.404 . S
C2548 C2551 1.539 . S
C2549 C2545 1.408 1_455 S
C2549 C2548 1.404 . S
C2549 H2561 0.930 . S
C2550 C2546 1.524 . S
C2550 H2562 0.956 . S
C2550 H2563 0.961 . S
C2550 H2564 0.961 . S
C2551 C2548 1.539 . S
C2551 H2565 0.958 . S
C2551 H2566 0.961 . S
C2551 H2567 0.960 . S
H2552 C2536 0.931 . S
H2553 C2541 0.929 . S
H2554 C2542 0.960 . S
H2555 C2542 0.962 . S
H2556 C2542 0.960 . S
H2557 C2543 0.961 . S
H2558 C2543 0.961 . S
H2559 C2543 0.961 . S
H2560 C2544 0.931 . S
H2561 C2549 0.930 . S
H2562 C2550 0.956 . S
H2563 C2550 0.961 . S
H2564 C2550 0.961 . S
H2565 C2551 0.958 . S
H2566 C2551 0.961 . S
H2567 C2551 0.960 . S
C2568 C2569 1.391 . S
C2568 C2570 1.394 . S
C2568 H2584 0.931 . S
C2569 C2568 1.391 . S
C2569 C2573 1.376 . S
C2570 C2568 1.394 . S
C2570 C2571 1.369 . S
C2570 C2574 1.531 . S
C2571 C2570 1.369 . S
C2571 C2572 1.410 . S
C2571 C2579 1.503 . S
C2572 C2571 1.410 . S
C2572 C2573 1.392 . S
C2572 C2575 1.511 . S
C2573 C2569 1.376 . S
C2573 C2572 1.392 . S
C2573 H2585 0.929 . S
C2574 C2570 1.531 . S
C2574 H2586 0.960 . S
C2574 H2587 0.962 . S
C2574 H2588 0.960 . S
C2575 C2572 1.511 . S
C2575 H2589 0.961 . S
C2575 H2590 0.961 . S
C2575 H2591 0.961 . S
C2576 C2577 1.370 . S
C2576 C2578 1.363 . S
C2576 H2592 0.931 . S
C2577 C2576 1.370 . S
C2577 C2581 1.408 . S
C2578 C2576 1.363 . S
C2578 C2579 1.370 . S
C2578 C2582 1.524 . S
C2579 C2571 1.503 . S
C2579 C2578 1.370 . S
C2579 C2580 1.403 . S
C2580 C2579 1.403 . S
C2580 C2581 1.404 . S
C2580 C2583 1.539 . S
C2581 C2577 1.408 . S
C2581 C2580 1.404 . S
C2581 H2593 0.930 . S
C2582 C2578 1.524 . S
C2582 H2594 0.956 . S
C2582 H2595 0.961 . S
C2582 H2596 0.961 . S
C2583 C2580 1.539 . S
C2583 H2597 0.958 . S
C2583 H2598 0.961 . S
C2583 H2599 0.960 . S
H2584 C2568 0.931 . S
H2585 C2573 0.929 . S
H2586 C2574 0.960 . S
H2587 C2574 0.962 . S
H2588 C2574 0.960 . S
H2589 C2575 0.961 . S
H2590 C2575 0.961 . S
H2591 C2575 0.961 . S
H2592 C2576 0.931 . S
H2593 C2581 0.930 . S
H2594 C2582 0.956 . S
H2595 C2582 0.961 . S
H2596 C2582 0.961 . S
H2597 C2583 0.958 . S
H2598 C2583 0.961 . S
H2599 C2583 0.960 . S
C2600 C2601 1.391 . S
C2600 C2602 1.394 . S
C2600 H2616 0.931 . S
C2601 C2600 1.391 . S
C2601 C2605 1.376 . S
C2602 C2600 1.394 . S
C2602 C2603 1.369 . S
C2602 C2606 1.531 . S
C2603 C2602 1.369 . S
C2603 C2604 1.410 . S
C2603 C2611 1.503 . S
C2604 C2603 1.410 . S
C2604 C2605 1.392 . S
C2604 C2607 1.511 . S
C2605 C2601 1.376 . S
C2605 C2604 1.392 . S
C2605 H2617 0.929 . S
C2606 C2602 1.531 . S
C2606 H2618 0.960 . S
C2606 H2619 0.962 . S
C2606 H2620 0.960 . S
C2607 C2604 1.511 . S
C2607 H2621 0.961 . S
C2607 H2622 0.961 . S
C2607 H2623 0.961 . S
C2608 C2609 1.370 . S
C2608 C2610 1.363 . S
C2608 H2624 0.931 . S
C2609 C2608 1.370 . S
C2609 C2613 1.408 . S
C2610 C2608 1.363 . S
C2610 C2611 1.370 . S
C2610 C2614 1.524 . S
C2611 C2603 1.503 . S
C2611 C2610 1.370 . S
C2611 C2612 1.403 . S
C2612 C2611 1.403 . S
C2612 C2613 1.404 . S
C2612 C2615 1.539 . S
C2613 C2609 1.408 . S
C2613 C2612 1.404 . S
C2613 H2625 0.930 . S
C2614 C2610 1.524 . S
C2614 H2626 0.956 . S
C2614 H2627 0.961 . S
C2614 H2628 0.961 . S
C2615 C2612 1.539 . S
C2615 H2629 0.958 . S
C2615 H2630 0.961 . S
C2615 H2631 0.960 . S
H2616 C2600 0.931 . S
H2617 C2605 0.929 . S
H2618 C2606 0.960 . S
H2619 C2606 0.962 . S
H2620 C2606 0.960 . S
H2621 C2607 0.961 . S
H2622 C2607 0.961 . S
H2623 C2607 0.961 . S
H2624 C2608 0.931 . S
H2625 C2613 0.930 . S
H2626 C2614 0.956 . S
H2627 C2614 0.961 . S
H2628 C2614 0.961 . S
H2629 C2615 0.958 . S
H2630 C2615 0.961 . S
H2631 C2615 0.960 . S
C2632 C2633 1.391 1_565 S
C2632 C2634 1.394 . S
C2632 H2648 0.931 . S
C2633 C2632 1.391 1_545 S
C2633 C2637 1.376 . S
C2634 C2632 1.394 . S
C2634 C2635 1.369 1_565 S
C2634 C2638 1.531 . S
C2635 C2634 1.369 1_545 S
C2635 C2636 1.410 . S
C2635 C2643 1.503 . S
C2636 C2635 1.410 . S
C2636 C2637 1.392 . S
C2636 C2639 1.511 . S
C2637 C2633 1.376 . S
C2637 C2636 1.392 . S
C2637 H2649 0.929 . S
C2638 C2634 1.531 . S
C2638 H2650 0.960 . S
C2638 H2651 0.962 . S
C2638 H2652 0.960 . S
C2639 C2636 1.511 . S
C2639 H2653 0.961 . S
C2639 H2654 0.961 . S
C2639 H2655 0.961 . S
C2640 C2641 1.370 . S
C2640 C2642 1.363 . S
C2640 H2656 0.931 . S
C2641 C2640 1.370 . S
C2641 C2645 1.408 . S
C2642 C2640 1.363 . S
C2642 C2643 1.370 . S
C2642 C2646 1.524 . S
C2643 C2635 1.503 . S
C2643 C2642 1.370 . S
C2643 C2644 1.403 . S
C2644 C2643 1.403 . S
C2644 C2645 1.404 . S
C2644 C2647 1.539 1_545 S
C2645 C2641 1.408 . S
C2645 C2644 1.404 . S
C2645 H2657 0.930 . S
C2646 C2642 1.524 . S
C2646 H2658 0.956 . S
C2646 H2659 0.961 . S
C2646 H2660 0.961 . S
C2647 C2644 1.539 1_565 S
C2647 H2661 0.958 . S
C2647 H2662 0.961 . S
C2647 H2663 0.960 . S
H2648 C2632 0.931 . S
H2649 C2637 0.929 . S
H2650 C2638 0.960 . S
H2651 C2638 0.962 . S
H2652 C2638 0.960 . S
H2653 C2639 0.961 . S
H2654 C2639 0.961 . S
H2655 C2639 0.961 . S
H2656 C2640 0.931 . S
H2657 C2645 0.930 . S
H2658 C2646 0.956 . S
H2659 C2646 0.961 . S
H2660 C2646 0.961 . S
H2661 C2647 0.958 . S
H2662 C2647 0.961 . S
H2663 C2647 0.960 . S
C2664 C2665 1.391 . S
C2664 C2666 1.394 . S
C2664 H2680 0.931 . S
C2665 C2664 1.391 . S
C2665 C2669 1.385 . S
C2666 C2664 1.394 . S
C2666 C2667 1.369 . S
C2666 C2670 1.531 . S
C2667 C2666 1.369 . S
C2667 C2668 1.410 . S
C2667 C2675 1.503 . S
C2668 C2667 1.410 . S
C2668 C2669 1.395 . S
C2668 C2671 1.511 1_565 S
C2669 C2665 1.385 . S
C2669 C2668 1.395 . S
C2669 H2681 0.917 1_565 S
C2670 C2666 1.531 . S
C2670 H2682 0.960 . S
C2670 H2683 0.962 . S
C2670 H2684 0.960 . S
C2671 C2668 1.511 1_545 S
C2671 H2685 0.961 . S
C2671 H2686 0.961 . S
C2671 H2687 0.961 . S
C2672 C2673 1.370 . S
C2672 C2674 1.363 . S
C2672 H2688 0.931 . S
C2673 C2672 1.370 . S
C2673 C2677 1.408 . S
C2674 C2672 1.363 . S
C2674 C2675 1.370 . S
C2674 C2678 1.524 . S
C2675 C2667 1.503 . S
C2675 C2674 1.370 . S
C2675 C2676 1.403 . S
C2676 C2675 1.403 . S
C2676 C2677 1.404 . S
C2676 C2679 1.539 . S
C2677 C2673 1.408 . S
C2677 C2676 1.404 . S
C2677 H2689 0.930 . S
C2678 C2674 1.524 . S
C2678 H2690 0.956 . S
C2678 H2691 0.961 . S
C2678 H2692 0.961 . S
C2679 C2676 1.539 . S
C2679 H2693 0.958 . S
C2679 H2694 0.961 . S
C2679 H2695 0.960 . S
H2680 C2664 0.931 . S
H2681 C2669 0.917 1_545 S
H2682 C2670 0.960 . S
H2683 C2670 0.962 . S
H2684 C2670 0.960 . S
H2685 C2671 0.961 . S
H2686 C2671 0.961 . S
H2687 C2671 0.961 . S
H2688 C2672 0.931 . S
H2689 C2677 0.930 . S
H2690 C2678 0.956 . S
H2691 C2678 0.961 . S
H2692 C2678 0.961 . S
H2693 C2679 0.958 . S
H2694 C2679 0.961 . S
H2695 C2679 0.960 . S
C2696 C2697 1.391 . S
C2696 C2698 1.394 . S
C2696 H2712 0.931 . S
C2697 C2696 1.391 . S
C2697 C2701 1.376 . S
C2698 C2696 1.394 . S
C2698 C2699 1.369 . S
C2698 C2702 1.531 . S
C2699 C2698 1.369 . S
C2699 C2700 1.410 . S
C2699 C2707 1.503 . S
C2700 C2699 1.410 . S
C2700 C2701 1.392 . S
C2700 C2703 1.511 . S
C2701 C2697 1.376 . S
C2701 C2700 1.392 . S
C2701 H2713 0.929 . S
C2702 C2698 1.531 . S
C2702 H2714 0.960 . S
C2702 H2715 0.962 . S
C2702 H2716 0.960 . S
C2703 C2700 1.511 . S
C2703 H2717 0.961 . S
C2703 H2718 0.961 . S
C2703 H2719 0.961 . S
C2704 C2705 1.370 . S
C2704 C2706 1.363 . S
C2704 H2720 0.931 . S
C2705 C2704 1.370 . S
C2705 C2709 1.408 . S
C2706 C2704 1.363 . S
C2706 C2707 1.370 . S
C2706 C2710 1.524 . S
C2707 C2699 1.503 . S
C2707 C2706 1.370 . S
C2707 C2708 1.403 . S
C2708 C2707 1.403 . S
C2708 C2709 1.404 . S
C2708 C2711 1.539 . S
C2709 C2705 1.408 . S
C2709 C2708 1.404 . S
C2709 H2721 0.930 . S
C2710 C2706 1.524 . S
C2710 H2722 0.956 . S
C2710 H2723 0.961 . S
C2710 H2724 0.961 . S
C2711 C2708 1.539 . S
C2711 H2725 0.958 . S
C2711 H2726 0.961 . S
C2711 H2727 0.960 . S
H2712 C2696 0.931 . S
H2713 C2701 0.929 . S
H2714 C2702 0.960 . S
H2715 C2702 0.962 . S
H2716 C2702 0.960 . S
H2717 C2703 0.961 . S
H2718 C2703 0.961 . S
H2719 C2703 0.961 . S
H2720 C2704 0.931 . S
H2721 C2709 0.930 . S
H2722 C2710 0.956 . S
H2723 C2710 0.961 . S
H2724 C2710 0.961 . S
H2725 C2711 0.958 . S
H2726 C2711 0.961 . S
H2727 C2711 0.960 . S
C2728 C2729 1.391 . S
C2728 C2730 1.394 . S
C2728 H2744 0.931 . S
C2729 C2728 1.391 . S
C2729 C2733 1.376 . S
C2730 C2728 1.394 . S
C2730 C2731 1.369 . S
C2730 C2734 1.531 . S
C2731 C2730 1.369 . S
C2731 C2732 1.410 . S
C2731 C2739 1.503 . S
C2732 C2731 1.410 . S
C2732 C2733 1.392 . S
C2732 C2735 1.511 . S
C2733 C2729 1.376 . S
C2733 C2732 1.392 . S
C2733 H2745 0.929 . S
C2734 C2730 1.531 . S
C2734 H2746 0.960 . S
C2734 H2747 0.962 . S
C2734 H2748 0.960 . S
C2735 C2732 1.511 . S
C2735 H2749 0.961 . S
C2735 H2750 0.961 . S
C2735 H2751 0.998 . S
C2736 C2737 1.370 . S
C2736 C2738 1.363 . S
C2736 H2752 0.931 . S
C2737 C2736 1.370 . S
C2737 C2741 1.408 . S
C2738 C2736 1.363 . S
C2738 C2739 1.370 . S
C2738 C2742 1.524 . S
C2739 C2731 1.503 . S
C2739 C2738 1.370 . S
C2739 C2740 1.403 . S
C2740 C2739 1.403 . S
C2740 C2741 1.404 . S
C2740 C2743 1.539 1_556 S
C2741 C2737 1.408 . S
C2741 C2740 1.404 . S
C2741 H2753 0.930 . S
C2742 C2738 1.524 . S
C2742 H2754 0.956 . S
C2742 H2755 0.961 . S
C2742 H2756 0.961 . S
C2743 C2740 1.539 1_554 S
C2743 H2757 0.958 . S
C2743 H2758 0.961 . S
C2743 H2759 0.960 . S
H2744 C2728 0.931 . S
H2745 C2733 0.929 . S
H2746 C2734 0.960 . S
H2747 C2734 0.962 . S
H2748 C2734 0.960 . S
H2749 C2735 0.961 . S
H2750 C2735 0.961 . S
H2751 C2735 0.998 . S
H2752 C2736 0.931 . S
H2753 C2741 0.930 . S
H2754 C2742 0.956 . S
H2755 C2742 0.961 . S
H2756 C2742 0.961 . S
H2757 C2743 0.958 . S
H2758 C2743 0.961 . S
H2759 C2743 0.960 . S
C2760 C2761 1.391 . S
C2760 C2762 1.394 . S
C2760 H2776 0.931 . S
C2761 C2760 1.391 . S
C2761 C2765 1.376 . S
C2762 C2760 1.394 . S
C2762 C2763 1.369 . S
C2762 C2766 1.531 . S
C2763 C2762 1.369 . S
C2763 C2764 1.410 . S
C2763 C2771 1.503 . S
C2764 C2763 1.410 . S
C2764 C2765 1.392 . S
C2764 C2767 1.511 . S
C2765 C2761 1.376 . S
C2765 C2764 1.392 . S
C2765 H2777 0.929 . S
C2766 C2762 1.531 . S
C2766 H2778 0.960 . S
C2766 H2779 0.962 . S
C2766 H2780 0.960 . S
C2767 C2764 1.511 . S
C2767 H2781 0.961 . S
C2767 H2782 0.961 . S
C2767 H2783 0.961 . S
C2768 C2769 1.370 . S
C2768 C2770 1.363 . S
C2768 H2784 0.931 . S
C2769 C2768 1.370 . S
C2769 C2773 1.408 . S
C2770 C2768 1.363 . S
C2770 C2771 1.370 . S
C2770 C2774 1.524 . S
C2771 C2763 1.503 . S
C2771 C2770 1.370 . S
C2771 C2772 1.403 . S
C2772 C2771 1.403 . S
C2772 C2773 1.404 . S
C2772 C2775 1.539 . S
C2773 C2769 1.408 . S
C2773 C2772 1.404 . S
C2773 H2785 0.930 . S
C2774 C2770 1.524 . S
C2774 H2786 0.956 . S
C2774 H2787 0.961 . S
C2774 H2788 0.961 . S
C2775 C2772 1.539 . S
C2775 H2789 0.958 . S
C2775 H2790 0.961 . S
C2775 H2791 0.960 . S
H2776 C2760 0.931 . S
H2777 C2765 0.929 . S
H2778 C2766 0.960 . S
H2779 C2766 0.962 . S
H2780 C2766 0.960 . S
H2781 C2767 0.961 . S
H2782 C2767 0.961 . S
H2783 C2767 0.961 . S
H2784 C2768 0.931 . S
H2785 C2773 0.930 . S
H2786 C2774 0.956 . S
H2787 C2774 0.961 . S
H2788 C2774 0.961 . S
H2789 C2775 0.958 . S
H2790 C2775 0.961 . S
H2791 C2775 0.960 . S
C2792 C2793 1.391 . S
C2792 C2794 1.394 . S
C2792 H2808 0.931 . S
C2793 C2792 1.391 . S
C2793 C2797 1.376 . S
C2794 C2792 1.394 . S
C2794 C2795 1.369 . S
C2794 C2798 1.531 . S
C2795 C2794 1.369 . S
C2795 C2796 1.410 . S
C2795 C2803 1.503 . S
C2796 C2795 1.410 . S
C2796 C2797 1.392 . S
C2796 C2799 1.511 . S
C2797 C2793 1.376 . S
C2797 C2796 1.392 . S
C2797 H2809 0.929 . S
C2798 C2794 1.531 . S
C2798 H2810 0.960 . S
C2798 H2811 0.962 . S
C2798 H2812 0.960 . S
C2799 C2796 1.511 . S
C2799 H2813 0.961 . S
C2799 H2814 0.961 . S
C2799 H2815 0.961 . S
C2800 C2801 1.370 . S
C2800 C2802 1.363 . S
C2800 H2816 0.931 . S
C2801 C2800 1.370 . S
C2801 C2805 1.408 . S
C2802 C2800 1.363 . S
C2802 C2803 1.370 . S
C2802 C2806 1.524 1_554 S
C2803 C2795 1.503 . S
C2803 C2802 1.370 . S
C2803 C2804 1.403 . S
C2804 C2803 1.403 . S
C2804 C2805 1.404 . S
C2804 C2807 1.539 . S
C2805 C2801 1.408 . S
C2805 C2804 1.404 . S
C2805 H2817 0.930 . S
C2806 C2802 1.524 1_556 S
C2806 H2818 0.956 . S
C2806 H2819 0.961 . S
C2806 H2820 0.961 . S
C2807 C2804 1.539 . S
C2807 H2821 0.958 . S
C2807 H2822 0.961 . S
C2807 H2823 0.960 . S
H2808 C2792 0.931 . S
H2809 C2797 0.929 . S
H2810 C2798 0.960 . S
H2811 C2798 0.962 . S
H2812 C2798 0.960 . S
H2813 C2799 0.961 . S
H2814 C2799 0.961 . S
H2815 C2799 0.961 . S
H2816 C2800 0.931 . S
H2817 C2805 0.930 . S
H2818 C2806 0.956 . S
H2819 C2806 0.961 . S
H2820 C2806 0.961 . S
H2821 C2807 0.958 . S
H2822 C2807 0.961 . S
H2823 C2807 0.960 . S
C2824 C2825 1.391 . S
C2824 C2826 1.394 . S
C2824 H2840 0.931 . S
C2825 C2824 1.391 . S
C2825 C2829 1.376 . S
C2826 C2824 1.394 . S
C2826 C2827 1.369 . S
C2826 C2830 1.531 . S
C2827 C2826 1.369 . S
C2827 C2828 1.410 . S
C2827 C2835 1.503 . S
C2828 C2827 1.410 . S
C2828 C2829 1.392 . S
C2828 C2831 1.511 . S
C2829 C2825 1.376 . S
C2829 C2828 1.392 . S
C2829 H2841 0.929 . S
C2830 C2826 1.531 . S
C2830 H2842 0.960 . S
C2830 H2843 0.962 . S
C2830 H2844 0.960 . S
C2831 C2828 1.511 . S
C2831 H2845 0.961 . S
C2831 H2846 0.961 . S
C2831 H2847 0.961 . S
C2832 C2833 1.370 . S
C2832 C2834 1.363 . S
C2832 H2848 0.931 . S
C2833 C2832 1.370 . S
C2833 C2837 1.408 . S
C2834 C2832 1.363 . S
C2834 C2835 1.370 . S
C2834 C2838 1.524 . S
C2835 C2827 1.503 . S
C2835 C2834 1.370 . S
C2835 C2836 1.403 . S
C2836 C2835 1.403 . S
C2836 C2837 1.404 . S
C2836 C2839 1.539 . S
C2837 C2833 1.408 . S
C2837 C2836 1.404 . S
C2837 H2849 0.930 . S
C2838 C2834 1.524 . S
C2838 H2850 0.956 . S
C2838 H2851 0.961 . S
C2838 H2852 0.961 . S
C2839 C2836 1.539 . S
C2839 H2853 0.958 . S
C2839 H2854 0.961 . S
C2839 H2855 0.960 . S
H2840 C2824 0.931 . S
H2841 C2829 0.929 . S
H2842 C2830 0.960 . S
H2843 C2830 0.962 . S
H2844 C2830 0.960 . S
H2845 C2831 0.961 . S
H2846 C2831 0.961 . S
H2847 C2831 0.961 . S
H2848 C2832 0.931 . S
H2849 C2837 0.930 . S
H2850 C2838 0.956 . S
H2851 C2838 0.961 . S
H2852 C2838 0.961 . S
H2853 C2839 0.958 . S
H2854 C2839 0.961 . S
H2855 C2839 0.960 . S
C2856 C2857 1.391 . S
C2856 C2858 1.394 . S
C2856 H2872 0.931 . S
C2857 C2856 1.391 . S
C2857 C2861 1.376 . S
C2858 C2856 1.394 . S
C2858 C2859 1.369 . S
C2858 C2862 1.531 . S
C2859 C2858 1.369 . S
C2859 C2860 1.410 . S
C2859 C2867 1.503 . S
C2860 C2859 1.410 . S
C2860 C2861 1.392 . S
C2860 C2863 1.498 1_655 S
C2861 C2857 1.376 . S
C2861 C2860 1.392 . S
C2861 H2873 0.929 1_655 S
C2862 C2858 1.531 . S
C2862 H2874 0.960 . S
C2862 H2875 0.962 . S
C2862 H2876 0.960 . S
C2863 C2860 1.498 1_455 S
C2863 H2877 0.965 . S
C2863 H2878 0.945 1_455 S
C2863 H2879 0.986 . S
C2864 C2865 1.370 . S
C2864 C2866 1.363 . S
C2864 H2880 0.931 . S
C2865 C2864 1.370 . S
C2865 C2869 1.408 . S
C2866 C2864 1.363 . S
C2866 C2867 1.370 . S
C2866 C2870 1.524 . S
C2867 C2859 1.503 . S
C2867 C2866 1.370 . S
C2867 C2868 1.403 . S
C2868 C2867 1.403 . S
C2868 C2869 1.404 . S
C2868 C2871 1.539 1_655 S
C2869 C2865 1.408 . S
C2869 C2868 1.404 . S
C2869 H2881 0.930 . S
C2870 C2866 1.524 . S
C2870 H2882 0.956 . S
C2870 H2883 0.961 . S
C2870 H2884 0.961 . S
C2871 C2868 1.539 1_455 S
C2871 H2885 0.964 . S
C2871 H2886 0.961 . S
C2871 H2887 0.960 . S
H2872 C2856 0.931 . S
H2873 C2861 0.929 1_455 S
H2874 C2862 0.960 . S
H2875 C2862 0.962 . S
H2876 C2862 0.960 . S
H2877 C2863 0.965 . S
H2878 C2863 0.945 1_655 S
H2879 C2863 0.986 . S
H2880 C2864 0.931 . S
H2881 C2869 0.930 . S
H2882 C2870 0.956 . S
H2883 C2870 0.961 . S
H2884 C2870 0.961 . S
H2885 C2871 0.964 . S
H2886 C2871 0.961 . S
H2887 C2871 0.960 . S
C2888 C2889 1.391 . S
C2888 C2890 1.394 . S
C2888 H2904 0.931 . S
C2889 C2888 1.391 . S
C2889 C2893 1.376 . S
C2890 C2888 1.394 . S
C2890 C2891 1.369 . S
C2890 C2894 1.531 . S
C2891 C2890 1.369 . S
C2891 C2892 1.410 . S
C2891 C2899 1.503 . S
C2892 C2891 1.410 . S
C2892 C2893 1.392 . S
C2892 C2895 1.511 . S
C2893 C2889 1.376 . S
C2893 C2892 1.392 . S
C2893 H2905 0.929 . S
C2894 C2890 1.531 . S
C2894 H2906 0.960 . S
C2894 H2907 0.962 . S
C2894 H2908 0.960 . S
C2895 C2892 1.511 . S
C2895 H2909 0.961 . S
C2895 H2910 0.961 . S
C2895 H2911 0.961 . S
C2896 C2897 1.370 . S
C2896 C2898 1.363 . S
C2896 H2912 0.931 . S
C2897 C2896 1.370 . S
C2897 C2901 1.408 . S
C2898 C2896 1.363 . S
C2898 C2899 1.370 . S
C2898 C2902 1.524 . S
C2899 C2891 1.503 . S
C2899 C2898 1.370 . S
C2899 C2900 1.403 . S
C2900 C2899 1.403 . S
C2900 C2901 1.404 . S
C2900 C2903 1.539 . S
C2901 C2897 1.408 . S
C2901 C2900 1.404 . S
C2901 H2913 0.930 . S
C2902 C2898 1.524 . S
C2902 H2914 0.956 . S
C2902 H2915 0.961 . S
C2902 H2916 0.961 . S
C2903 C2900 1.539 . S
C2903 H2917 0.958 . S
C2903 H2918 0.961 . S
C2903 H2919 0.960 . S
H2904 C2888 0.931 . S
H2905 C2893 0.929 . S
H2906 C2894 0.960 . S
H2907 C2894 0.962 . S
H2908 C2894 0.960 . S
H2909 C2895 0.961 . S
H2910 C2895 0.961 . S
H2911 C2895 0.961 . S
H2912 C2896 0.931 . S
H2913 C2901 0.930 . S
H2914 C2902 0.956 . S
H2915 C2902 0.961 . S
H2916 C2902 0.961 . S
H2917 C2903 0.958 . S
H2918 C2903 0.961 . S
H2919 C2903 0.960 . S
C2920 C2921 1.391 . S
C2920 C2922 1.394 . S
C2920 H2936 0.931 . S
C2921 C2920 1.391 . S
C2921 C2925 1.376 1_455 S
C2922 C2920 1.394 . S
C2922 C2923 1.369 . S
C2922 C2926 1.531 . S
C2923 C2922 1.369 . S
C2923 C2924 1.410 1_455 S
C2923 C2931 1.503 . S
C2924 C2923 1.410 1_655 S
C2924 C2925 1.392 . S
C2924 C2927 1.511 . S
C2925 C2921 1.376 1_655 S
C2925 C2924 1.392 . S
C2925 H2937 0.929 . S
C2926 C2922 1.531 . S
C2926 H2938 0.960 . S
C2926 H2939 0.962 . S
C2926 H2940 0.960 . S
C2927 C2924 1.511 . S
C2927 H2941 0.961 . S
C2927 H2942 0.961 . S
C2927 H2943 0.961 . S
C2928 C2929 1.370 . S
C2928 C2930 1.363 . S
C2928 H2944 0.931 . S
C2929 C2928 1.370 . S
C2929 C2933 1.408 . S
C2930 C2928 1.363 . S
C2930 C2931 1.370 . S
C2930 C2934 1.524 . S
C2931 C2923 1.503 . S
C2931 C2930 1.370 . S
C2931 C2932 1.403 . S
C2932 C2931 1.403 . S
C2932 C2933 1.404 . S
C2932 C2935 1.577 . S
C2933 C2929 1.408 . S
C2933 C2932 1.404 . S
C2933 H2945 0.930 . S
C2934 C2930 1.524 . S
C2934 H2946 0.956 . S
C2934 H2947 0.961 . S
C2934 H2948 0.961 . S
C2935 C2932 1.577 . S
C2935 H2949 0.990 . S
C2935 H2950 0.924 1_455 S
C2935 H2951 0.932 1_455 S
H2936 C2920 0.931 . S
H2937 C2925 0.929 . S
H2938 C2926 0.960 . S
H2939 C2926 0.962 . S
H2940 C2926 0.960 . S
H2941 C2927 0.961 . S
H2942 C2927 0.961 . S
H2943 C2927 0.961 . S
H2944 C2928 0.931 . S
H2945 C2933 0.930 . S
H2946 C2934 0.956 . S
H2947 C2934 0.961 . S
H2948 C2934 0.961 . S
H2949 C2935 0.990 . S
H2950 C2935 0.924 1_655 S
H2951 C2935 0.932 1_655 S
C2952 C2953 1.391 . S
C2952 C2954 1.394 . S
C2952 H2968 0.931 . S
C2953 C2952 1.391 . S
C2953 C2957 1.376 . S
C2954 C2952 1.394 . S
C2954 C2955 1.369 . S
C2954 C2958 1.531 . S
C2955 C2954 1.369 . S
C2955 C2956 1.410 . S
C2955 C2963 1.503 . S
C2956 C2955 1.410 . S
C2956 C2957 1.392 . S
C2956 C2959 1.511 . S
C2957 C2953 1.376 . S
C2957 C2956 1.392 . S
C2957 H2969 0.929 . S
C2958 C2954 1.531 . S
C2958 H2970 0.960 . S
C2958 H2971 0.962 . S
C2958 H2972 0.960 . S
C2959 C2956 1.511 . S
C2959 H2973 0.961 . S
C2959 H2974 0.961 . S
C2959 H2975 0.961 . S
C2960 C2961 1.370 . S
C2960 C2962 1.363 . S
C2960 H2976 0.931 . S
C2961 C2960 1.370 . S
C2961 C2965 1.408 . S
C2962 C2960 1.363 . S
C2962 C2963 1.370 . S
C2962 C2966 1.524 . S
C2963 C2955 1.503 . S
C2963 C2962 1.370 . S
C2963 C2964 1.403 . S
C2964 C2963 1.403 . S
C2964 C2965 1.404 . S
C2964 C2967 1.539 . S
C2965 C2961 1.408 . S
C2965 C2964 1.404 . S
C2965 H2977 0.930 . S
C2966 C2962 1.524 . S
C2966 H2978 0.956 . S
C2966 H2979 0.961 . S
C2966 H2980 0.961 . S
C2967 C2964 1.539 . S
C2967 H2981 0.958 . S
C2967 H2982 0.961 . S
C2967 H2983 0.960 . S
H2968 C2952 0.931 . S
H2969 C2957 0.929 . S
H2970 C2958 0.960 . S
H2971 C2958 0.962 . S
H2972 C2958 0.960 . S
H2973 C2959 0.961 . S
H2974 C2959 0.961 . S
H2975 C2959 0.961 . S
H2976 C2960 0.931 . S
H2977 C2965 0.930 . S
H2978 C2966 0.956 . S
H2979 C2966 0.961 . S
H2980 C2966 0.961 . S
H2981 C2967 0.958 . S
H2982 C2967 0.961 . S
H2983 C2967 0.960 . S
C2984 C2985 1.391 . S
C2984 C2986 1.394 . S
C2984 H3000 0.931 . S
C2985 C2984 1.391 . S
C2985 C2989 1.376 . S
C2986 C2984 1.394 . S
C2986 C2987 1.369 . S
C2986 C2990 1.531 . S
C2987 C2986 1.369 . S
C2987 C2988 1.410 . S
C2987 C2995 1.503 . S
C2988 C2987 1.410 . S
C2988 C2989 1.392 . S
C2988 C2991 1.511 . S
C2989 C2985 1.376 . S
C2989 C2988 1.392 . S
C2989 H3001 0.929 . S
C2990 C2986 1.531 . S
C2990 H3002 0.960 . S
C2990 H3003 0.962 . S
C2990 H3004 0.960 . S
C2991 C2988 1.511 . S
C2991 H3005 0.961 . S
C2991 H3006 0.961 . S
C2991 H3007 0.961 . S
C2992 C2993 1.370 . S
C2992 C2994 1.363 . S
C2992 H3008 0.931 . S
C2993 C2992 1.370 . S
C2993 C2997 1.408 . S
C2994 C2992 1.363 . S
C2994 C2995 1.370 . S
C2994 C2998 1.524 . S
C2995 C2987 1.503 . S
C2995 C2994 1.370 . S
C2995 C2996 1.403 . S
C2996 C2995 1.403 . S
C2996 C2997 1.404 . S
C2996 C2999 1.539 . S
C2997 C2993 1.408 . S
C2997 C2996 1.404 . S
C2997 H3009 0.930 . S
C2998 C2994 1.524 . S
C2998 H3010 0.956 . S
C2998 H3011 0.961 . S
C2998 H3012 0.961 . S
C2999 C2996 1.539 . S
C2999 H3013 0.958 . S
C2999 H3014 0.961 . S
C2999 H3015 0.960 . S
H3000 C2984 0.931 . S
H3001 C2989 0.929 . S
H3002 C2990 0.960 . S
H3003 C2990 0.962 . S
H3004 C2990 0.960 . S
H3005 C2991 0.961 . S
H3006 C2991 0.961 . S
H3007 C2991 0.961 . S
H3008 C2992 0.931 . S
H3009 C2997 0.930 . S
H3010 C2998 0.956 . S
H3011 C2998 0.961 . S
H3012 C2998 0.961 . S
H3013 C2999 0.958 . S
H3014 C2999 0.961 . S
H3015 C2999 0.960 . S
C3016 C3017 1.391 . S
C3016 C3018 1.394 . S
C3016 H3032 0.931 . S
C3017 C3016 1.391 . S
C3017 C3021 1.376 . S
C3018 C3016 1.394 . S
C3018 C3019 1.369 . S
C3018 C3022 1.531 . S
C3019 C3018 1.369 . S
C3019 C3020 1.410 . S
C3019 C3027 1.503 . S
C3020 C3019 1.410 . S
C3020 C3021 1.392 . S
C3020 C3023 1.511 . S
C3021 C3017 1.376 . S
C3021 C3020 1.392 . S
C3021 H3033 0.926 1_565 S
C3022 C3018 1.531 . S
C3022 H3034 0.960 . S
C3022 H3035 0.962 . S
C3022 H3036 0.960 . S
C3023 C3020 1.511 . S
C3023 H3037 0.961 1_565 S
C3023 H3038 0.961 . S
C3023 H3039 0.961 . S
C3024 C3025 1.370 . S
C3024 C3026 1.363 . S
C3024 H3040 0.931 . S
C3025 C3024 1.370 . S
C3025 C3029 1.408 . S
C3026 C3024 1.363 . S
C3026 C3027 1.370 . S
C3026 C3030 1.524 1_565 S
C3027 C3019 1.503 . S
C3027 C3026 1.370 . S
C3027 C3028 1.403 . S
C3028 C3027 1.403 . S
C3028 C3029 1.404 . S
C3028 C3031 1.539 . S
C3029 C3025 1.408 . S
C3029 C3028 1.404 . S
C3029 H3041 0.930 . S
C3030 C3026 1.524 1_545 S
C3030 H3042 0.956 . S
C3030 H3043 0.961 . S
C3030 H3044 0.961 . S
C3031 C3028 1.539 . S
C3031 H3045 0.958 . S
C3031 H3046 0.961 . S
C3031 H3047 0.960 . S
H3032 C3016 0.931 . S
H3033 C3021 0.926 1_545 S
H3034 C3022 0.960 . S
H3035 C3022 0.962 . S
H3036 C3022 0.960 . S
H3037 C3023 0.961 1_545 S
H3038 C3023 0.961 . S
H3039 C3023 0.961 . S
H3040 C3024 0.931 . S
H3041 C3029 0.930 . S
H3042 C3030 0.956 . S
H3043 C3030 0.961 . S
H3044 C3030 0.961 . S
H3045 C3031 0.958 . S
H3046 C3031 0.961 . S
H3047 C3031 0.960 . S
C3048 C3049 1.391 . S
C3048 C3050 1.394 . S
C3048 H3064 0.931 . S
C3049 C3048 1.391 . S
C3049 C3053 1.376 . S
C3050 C3048 1.394 . S
C3050 C3051 1.369 . S
C3050 C3054 1.531 . S
C3051 C3050 1.369 . S
C3051 C3052 1.410 . S
C3051 C3059 1.503 . S
C3052 C3051 1.410 . S
C3052 C3053 1.392 . S
C3052 C3055 1.511 . S
C3053 C3049 1.376 . S
C3053 C3052 1.392 . S
C3053 H3065 0.929 . S
C3054 C3050 1.531 . S
C3054 H3066 0.960 . S
C3054 H3067 0.962 . S
C3054 H3068 0.960 . S
C3055 C3052 1.511 . S
C3055 H3069 0.961 . S
C3055 H3070 0.961 . S
C3055 H3071 0.961 . S
C3056 C3057 1.370 . S
C3056 C3058 1.363 . S
C3056 H3072 0.931 . S
C3057 C3056 1.370 . S
C3057 C3061 1.408 . S
C3058 C3056 1.363 . S
C3058 C3059 1.370 . S
C3058 C3062 1.524 1_545 S
C3059 C3051 1.503 . S
C3059 C3058 1.370 . S
C3059 C3060 1.403 . S
C3060 C3059 1.403 . S
C3060 C3061 1.404 . S
C3060 C3063 1.539 . S
C3061 C3057 1.408 . S
C3061 C3060 1.404 . S
C3061 H3073 0.930 . S
C3062 C3058 1.524 1_565 S
C3062 H3074 0.956 . S
C3062 H3075 0.967 . S
C3062 H3076 0.961 . S
C3063 C3060 1.539 . S
C3063 H3077 0.958 . S
C3063 H3078 0.961 . S
C3063 H3079 0.960 . S
H3064 C3048 0.931 . S
H3065 C3053 0.929 . S
H3066 C3054 0.960 . S
H3067 C3054 0.962 . S
H3068 C3054 0.960 . S
H3069 C3055 0.961 . S
H3070 C3055 0.961 . S
H3071 C3055 0.961 . S
H3072 C3056 0.931 . S
H3073 C3061 0.930 . S
H3074 C3062 0.956 . S
H3075 C3062 0.967 . S
H3076 C3062 0.961 . S
H3077 C3063 0.958 . S
H3078 C3063 0.961 . S
H3079 C3063 0.960 . S
C3080 C3081 1.391 . S
C3080 C3082 1.394 . S
C3080 H3096 0.931 . S
C3081 C3080 1.391 . S
C3081 C3085 1.376 . S
C3082 C3080 1.394 . S
C3082 C3083 1.369 . S
C3082 C3086 1.531 . S
C3083 C3082 1.369 . S
C3083 C3084 1.410 . S
C3083 C3091 1.503 . S
C3084 C3083 1.410 . S
C3084 C3085 1.392 . S
C3084 C3087 1.511 . S
C3085 C3081 1.376 . S
C3085 C3084 1.392 . S
C3085 H3097 0.929 . S
C3086 C3082 1.531 . S
C3086 H3098 0.960 . S
C3086 H3099 0.962 . S
C3086 H3100 0.960 . S
C3087 C3084 1.511 . S
C3087 H3101 0.961 . S
C3087 H3102 0.961 . S
C3087 H3103 0.961 . S
C3088 C3089 1.370 . S
C3088 C3090 1.363 . S
C3088 H3104 0.931 . S
C3089 C3088 1.370 . S
C3089 C3093 1.408 . S
C3090 C3088 1.363 . S
C3090 C3091 1.370 . S
C3090 C3094 1.524 . S
C3091 C3083 1.503 . S
C3091 C3090 1.370 . S
C3091 C3092 1.403 . S
C3092 C3091 1.403 . S
C3092 C3093 1.404 . S
C3092 C3095 1.539 . S
C3093 C3089 1.408 . S
C3093 C3092 1.404 . S
C3093 H3105 0.930 . S
C3094 C3090 1.524 . S
C3094 H3106 0.956 . S
C3094 H3107 0.961 . S
C3094 H3108 0.961 . S
C3095 C3092 1.539 . S
C3095 H3109 0.958 . S
C3095 H3110 0.961 . S
C3095 H3111 0.960 . S
H3096 C3080 0.931 . S
H3097 C3085 0.929 . S
H3098 C3086 0.960 . S
H3099 C3086 0.962 . S
H3100 C3086 0.960 . S
H3101 C3087 0.961 . S
H3102 C3087 0.961 . S
H3103 C3087 0.961 . S
H3104 C3088 0.931 . S
H3105 C3093 0.930 . S
H3106 C3094 0.956 . S
H3107 C3094 0.961 . S
H3108 C3094 0.961 . S
H3109 C3095 0.958 . S
H3110 C3095 0.961 . S
H3111 C3095 0.960 . S
C3112 C3113 1.391 . S
C3112 C3114 1.394 . S
C3112 H3128 0.931 . S
C3113 C3112 1.391 . S
C3113 C3117 1.376 . S
C3114 C3112 1.394 . S
C3114 C3115 1.369 . S
C3114 C3118 1.531 . S
C3115 C3114 1.369 . S
C3115 C3116 1.410 . S
C3115 C3123 1.503 . S
C3116 C3115 1.410 . S
C3116 C3117 1.392 . S
C3116 C3119 1.533 . S
C3117 C3113 1.376 . S
C3117 C3116 1.392 . S
C3117 H3129 0.929 1_554 S
C3118 C3114 1.531 . S
C3118 H3130 0.960 . S
C3118 H3131 0.962 . S
C3118 H3132 0.960 . S
C3119 C3116 1.533 . S
C3119 H3133 0.924 1_554 S
C3119 H3134 0.961 . S
C3119 H3135 0.979 . S
C3120 C3121 1.370 . S
C3120 C3122 1.363 . S
C3120 H3136 0.931 . S
C3121 C3120 1.370 . S
C3121 C3125 1.408 . S
C3122 C3120 1.363 . S
C3122 C3123 1.370 . S
C3122 C3126 1.524 . S
C3123 C3115 1.503 . S
C3123 C3122 1.370 . S
C3123 C3124 1.403 . S
C3124 C3123 1.403 . S
C3124 C3125 1.404 . S
C3124 C3127 1.539 . S
C3125 C3121 1.408 . S
C3125 C3124 1.404 . S
C3125 H3137 0.930 . S
C3126 C3122 1.524 . S
C3126 H3138 0.956 . S
C3126 H3139 0.961 1_554 S
C3126 H3140 0.961 . S
C3127 C3124 1.539 . S
C3127 H3141 0.958 . S
C3127 H3142 0.961 . S
C3127 H3143 0.960 . S
H3128 C3112 0.931 . S
H3129 C3117 0.929 1_556 S
H3130 C3118 0.960 . S
H3131 C3118 0.962 . S
H3132 C3118 0.960 . S
H3133 C3119 0.924 1_556 S
H3134 C3119 0.961 . S
H3135 C3119 0.979 . S
H3136 C3120 0.931 . S
H3137 C3125 0.930 . S
H3138 C3126 0.956 . S
H3139 C3126 0.961 1_556 S
H3140 C3126 0.961 . S
H3141 C3127 0.958 . S
H3142 C3127 0.961 . S
H3143 C3127 0.960 . S
C3144 C3145 1.391 . S
C3144 C3146 1.394 . S
C3144 H3160 0.931 . S
C3145 C3144 1.391 . S
C3145 C3149 1.376 . S
C3146 C3144 1.394 . S
C3146 C3147 1.369 . S
C3146 C3150 1.531 . S
C3147 C3146 1.369 . S
C3147 C3148 1.410 . S
C3147 C3155 1.503 . S
C3148 C3147 1.410 . S
C3148 C3149 1.392 . S
C3148 C3151 1.511 . S
C3149 C3145 1.376 . S
C3149 C3148 1.392 . S
C3149 H3161 0.929 . S
C3150 C3146 1.531 . S
C3150 H3162 0.960 . S
C3150 H3163 0.962 . S
C3150 H3164 0.960 . S
C3151 C3148 1.511 . S
C3151 H3165 0.961 . S
C3151 H3166 0.961 . S
C3151 H3167 0.961 . S
C3152 C3153 1.370 . S
C3152 C3154 1.363 . S
C3152 H3168 0.931 . S
C3153 C3152 1.370 . S
C3153 C3157 1.408 . S
C3154 C3152 1.363 . S
C3154 C3155 1.370 . S
C3154 C3158 1.524 . S
C3155 C3147 1.503 . S
C3155 C3154 1.370 . S
C3155 C3156 1.403 . S
C3156 C3155 1.403 . S
C3156 C3157 1.404 . S
C3156 C3159 1.539 . S
C3157 C3153 1.408 . S
C3157 C3156 1.404 . S
C3157 H3169 0.930 . S
C3158 C3154 1.524 . S
C3158 H3170 0.956 . S
C3158 H3171 0.961 . S
C3158 H3172 0.961 . S
C3159 C3156 1.539 . S
C3159 H3173 0.958 . S
C3159 H3174 0.961 . S
C3159 H3175 0.960 . S
H3160 C3144 0.931 . S
H3161 C3149 0.929 . S
H3162 C3150 0.960 . S
H3163 C3150 0.962 . S
H3164 C3150 0.960 . S
H3165 C3151 0.961 . S
H3166 C3151 0.961 . S
H3167 C3151 0.961 . S
H3168 C3152 0.931 . S
H3169 C3157 0.930 . S
H3170 C3158 0.956 . S
H3171 C3158 0.961 . S
H3172 C3158 0.961 . S
H3173 C3159 0.958 . S
H3174 C3159 0.961 . S
H3175 C3159 0.960 . S
C3176 C3177 1.391 1_554 S
C3176 C3178 1.399 . S
C3176 H3192 0.931 . S
C3177 C3176 1.391 1_556 S
C3177 C3181 1.376 . S
C3178 C3176 1.399 . S
C3178 C3179 1.346 1_554 S
C3178 C3182 1.549 . S
C3179 C3178 1.346 1_556 S
C3179 C3180 1.410 . S
C3179 C3187 1.503 . S
C3180 C3179 1.410 . S
C3180 C3181 1.392 . S
C3180 C3183 1.511 . S
C3181 C3177 1.376 . S
C3181 C3180 1.392 . S
C3181 H3193 0.929 . S
C3182 C3178 1.549 . S
C3182 H3194 0.960 . S
C3182 H3195 0.962 . S
C3182 H3196 0.960 . S
C3183 C3180 1.511 . S
C3183 H3197 0.961 . S
C3183 H3198 0.961 . S
C3183 H3199 0.961 . S
C3184 C3185 1.370 . S
C3184 C3186 1.363 . S
C3184 H3200 0.931 . S
C3185 C3184 1.370 . S
C3185 C3189 1.408 . S
C3186 C3184 1.363 . S
C3186 C3187 1.370 . S
C3186 C3190 1.524 . S
C3187 C3179 1.503 . S
C3187 C3186 1.370 . S
C3187 C3188 1.403 . S
C3188 C3187 1.403 . S
C3188 C3189 1.404 . S
C3188 C3191 1.539 1_556 S
C3189 C3185 1.408 . S
C3189 C3188 1.404 . S
C3189 H3201 0.930 . S
C3190 C3186 1.524 . S
C3190 H3202 0.956 . S
C3190 H3203 0.961 . S
C3190 H3204 0.961 . S
C3191 C3188 1.539 1_554 S
C3191 H3205 0.958 . S
C3191 H3206 0.961 . S
C3191 H3207 0.960 . S
H3192 C3176 0.931 . S
H3193 C3181 0.929 . S
H3194 C3182 0.960 . S
H3195 C3182 0.962 . S
H3196 C3182 0.960 . S
H3197 C3183 0.961 . S
H3198 C3183 0.961 . S
H3199 C3183 0.961 . S
H3200 C3184 0.931 . S
H3201 C3189 0.930 . S
H3202 C3190 0.956 . S
H3203 C3190 0.961 . S
H3204 C3190 0.961 . S
H3205 C3191 0.958 . S
H3206 C3191 0.961 . S
H3207 C3191 0.960 . S
C3208 C3209 1.391 . S
C3208 C3210 1.394 . S
C3208 H3224 0.931 . S
C3209 C3208 1.391 . S
C3209 C3213 1.376 . S
C3210 C3208 1.394 . S
C3210 C3211 1.369 . S
C3210 C3214 1.531 . S
C3211 C3210 1.369 . S
C3211 C3212 1.410 . S
C3211 C3219 1.503 . S
C3212 C3211 1.410 . S
C3212 C3213 1.392 . S
C3212 C3215 1.511 . S
C3213 C3209 1.376 . S
C3213 C3212 1.392 . S
C3213 H3225 0.929 . S
C3214 C3210 1.531 . S
C3214 H3226 0.960 . S
C3214 H3227 0.962 . S
C3214 H3228 0.960 . S
C3215 C3212 1.511 . S
C3215 H3229 0.961 . S
C3215 H3230 0.961 . S
C3215 H3231 0.961 . S
C3216 C3217 1.370 . S
C3216 C3218 1.363 . S
C3216 H3232 0.931 . S
C3217 C3216 1.370 . S
C3217 C3221 1.408 . S
C3218 C3216 1.363 . S
C3218 C3219 1.370 . S
C3218 C3222 1.524 . S
C3219 C3211 1.503 . S
C3219 C3218 1.370 . S
C3219 C3220 1.403 . S
C3220 C3219 1.403 . S
C3220 C3221 1.404 . S
C3220 C3223 1.539 . S
C3221 C3217 1.408 . S
C3221 C3220 1.404 . S
C3221 H3233 0.930 . S
C3222 C3218 1.524 . S
C3222 H3234 0.956 . S
C3222 H3235 0.961 . S
C3222 H3236 0.961 . S
C3223 C3220 1.539 . S
C3223 H3237 0.958 . S
C3223 H3238 0.961 . S
C3223 H3239 0.960 . S
H3224 C3208 0.931 . S
H3225 C3213 0.929 . S
H3226 C3214 0.960 . S
H3227 C3214 0.962 . S
H3228 C3214 0.960 . S
H3229 C3215 0.961 . S
H3230 C3215 0.961 . S
H3231 C3215 0.961 . S
H3232 C3216 0.931 . S
H3233 C3221 0.930 . S
H3234 C3222 0.956 . S
H3235 C3222 0.961 . S
H3236 C3222 0.961 . S
H3237 C3223 0.958 . S
H3238 C3223 0.961 . S
H3239 C3223 0.960 . S
C3240 C3241 1.391 . S
C3240 C3242 1.394 . S
C3240 H3256 0.931 . S
C3241 C3240 1.391 . S
C3241 C3245 1.380 1_455 S
C3242 C3240 1.394 . S
C3242 C3243 1.369 . S
C3242 C3246 1.531 . S
C3243 C3242 1.369 . S
C3243 C3244 1.410 . S
C3243 C3251 1.503 . S
C3244 C3243 1.410 . S
C3244 C3245 1.393 1_455 S
C3244 C3247 1.511 1_455 S
C3245 C3241 1.380 1_655 S
C3245 C3244 1.393 1_655 S
C3245 H3257 0.924 . S
C3246 C3242 1.531 . S
C3246 H3258 0.960 . S
C3246 H3259 0.962 . S
C3246 H3260 0.960 . S
C3247 C3244 1.511 1_655 S
C3247 H3261 0.961 . S
C3247 H3262 0.961 . S
C3247 H3263 0.961 . S
C3248 C3249 1.370 . S
C3248 C3250 1.363 . S
C3248 H3264 0.931 . S
C3249 C3248 1.370 . S
C3249 C3253 1.408 . S
C3250 C3248 1.363 . S
C3250 C3251 1.370 . S
C3250 C3254 1.524 . S
C3251 C3243 1.503 . S
C3251 C3250 1.370 . S
C3251 C3252 1.403 . S
C3252 C3251 1.403 . S
C3252 C3253 1.404 . S
C3252 C3255 1.539 . S
C3253 C3249 1.408 . S
C3253 C3252 1.404 . S
C3253 H3265 0.930 . S
C3254 C3250 1.524 . S
C3254 H3266 0.956 . S
C3254 H3267 0.961 . S
C3254 H3268 0.961 . S
C3255 C3252 1.539 . S
C3255 H3269 0.958 . S
C3255 H3270 0.961 . S
C3255 H3271 0.960 . S
H3256 C3240 0.931 . S
H3257 C3245 0.924 . S
H3258 C3246 0.960 . S
H3259 C3246 0.962 . S
H3260 C3246 0.960 . S
H3261 C3247 0.961 . S
H3262 C3247 0.961 . S
H3263 C3247 0.961 . S
H3264 C3248 0.931 . S
H3265 C3253 0.930 . S
H3266 C3254 0.956 . S
H3267 C3254 0.961 . S
H3268 C3254 0.961 . S
H3269 C3255 0.958 . S
H3270 C3255 0.961 . S
H3271 C3255 0.960 . S
C3272 C3273 1.391 . S
C3272 C3274 1.394 . S
C3272 H3288 0.931 . S
C3273 C3272 1.391 . S
C3273 C3277 1.376 . S
C3274 C3272 1.394 . S
C3274 C3275 1.369 . S
C3274 C3278 1.531 . S
C3275 C3274 1.369 . S
C3275 C3276 1.410 . S
C3275 C3283 1.503 . S
C3276 C3275 1.410 . S
C3276 C3277 1.392 . S
C3276 C3279 1.511 . S
C3277 C3273 1.376 . S
C3277 C3276 1.392 . S
C3277 H3289 0.929 . S
C3278 C3274 1.531 . S
C3278 H3290 0.960 . S
C3278 H3291 0.962 . S
C3278 H3292 0.960 . S
C3279 C3276 1.511 . S
C3279 H3293 0.961 . S
C3279 H3294 0.961 . S
C3279 H3295 0.961 . S
C3280 C3281 1.370 . S
C3280 C3282 1.363 . S
C3280 H3296 0.931 . S
C3281 C3280 1.370 . S
C3281 C3285 1.408 . S
C3282 C3280 1.363 . S
C3282 C3283 1.370 . S
C3282 C3286 1.524 . S
C3283 C3275 1.503 . S
C3283 C3282 1.370 . S
C3283 C3284 1.403 . S
C3284 C3283 1.403 . S
C3284 C3285 1.404 . S
C3284 C3287 1.539 . S
C3285 C3281 1.408 . S
C3285 C3284 1.404 . S
C3285 H3297 0.930 . S
C3286 C3282 1.524 . S
C3286 H3298 0.956 . S
C3286 H3299 0.961 . S
C3286 H3300 0.961 . S
C3287 C3284 1.539 . S
C3287 H3301 0.958 . S
C3287 H3302 0.961 . S
C3287 H3303 0.960 . S
H3288 C3272 0.931 . S
H3289 C3277 0.929 . S
H3290 C3278 0.960 . S
H3291 C3278 0.962 . S
H3292 C3278 0.960 . S
H3293 C3279 0.961 . S
H3294 C3279 0.961 . S
H3295 C3279 0.961 . S
H3296 C3280 0.931 . S
H3297 C3285 0.930 . S
H3298 C3286 0.956 . S
H3299 C3286 0.961 . S
H3300 C3286 0.961 . S
H3301 C3287 0.958 . S
H3302 C3287 0.961 . S
H3303 C3287 0.960 . S
C3304 C3305 1.391 1_455 S
C3304 C3306 1.394 . S
C3304 H3320 0.931 . S
C3305 C3304 1.391 1_655 S
C3305 C3309 1.376 . S
C3306 C3304 1.394 . S
C3306 C3307 1.369 1_455 S
C3306 C3310 1.531 . S
C3307 C3306 1.369 1_655 S
C3307 C3308 1.410 . S
C3307 C3315 1.503 . S
C3308 C3307 1.410 . S
C3308 C3309 1.392 . S
C3308 C3311 1.511 . S
C3309 C3305 1.376 . S
C3309 C3308 1.392 . S
C3309 H3321 0.929 . S
C3310 C3306 1.531 . S
C3310 H3322 0.960 . S
C3310 H3323 0.962 . S
C3310 H3324 0.960 . S
C3311 C3308 1.511 . S
C3311 H3325 0.961 . S
C3311 H3326 0.961 . S
C3311 H3327 0.961 . S
C3312 C3313 1.370 . S
C3312 C3314 1.363 . S
C3312 H3328 0.931 . S
C3313 C3312 1.370 . S
C3313 C3317 1.408 . S
C3314 C3312 1.363 . S
C3314 C3315 1.370 . S
C3314 C3318 1.524 . S
C3315 C3307 1.503 . S
C3315 C3314 1.370 . S
C3315 C3316 1.403 . S
C3316 C3315 1.403 . S
C3316 C3317 1.404 . S
C3316 C3319 1.539 . S
C3317 C3313 1.408 . S
C3317 C3316 1.404 . S
C3317 H3329 0.930 . S
C3318 C3314 1.524 . S
C3318 H3330 0.956 1_655 S
C3318 H3331 0.961 . S
C3318 H3332 0.961 . S
C3319 C3316 1.539 . S
C3319 H3333 0.958 . S
C3319 H3334 0.961 . S
C3319 H3335 0.960 . S
H3320 C3304 0.931 . S
H3321 C3309 0.929 . S
H3322 C3310 0.960 . S
H3323 C3310 0.962 . S
H3324 C3310 0.960 . S
H3325 C3311 0.961 . S
H3326 C3311 0.961 . S
H3327 C3311 0.961 . S
H3328 C3312 0.931 . S
H3329 C3317 0.930 . S
H3330 C3318 0.956 1_455 S
H3331 C3318 0.961 . S
H3332 C3318 0.961 . S
H3333 C3319 0.958 . S
H3334 C3319 0.961 . S
H3335 C3319 0.960 . S
C1041 C1017 1.792 . S
C1033 C8 1.818 . S
C1073 C921 1.507 . S
C1065 C19 1.472 . S
C1105 C985 1.357 . S
C1097 C30 1.401 . S
C1137 C953 1.988 . S
C1129 C41 1.962 . S
C1169 C729 1.810 . S
C1161 C52 1.830 . S
C1193 C63 1.966 . S
C1201 C761 1.994 . S
C1233 C665 1.509 . S
C1225 C74 1.484 . S
C1257 C85 1.398 . S
C1265 C697 1.367 . S
C1297 C889 1.806 . S
C1289 C96 1.843 . S
C1321 C107 1.978 . S
C1329 C825 1.997 . S
C1353 C118 1.446 . S
C1361 C793 1.499 . S
C1393 C857 1.356 . S
C1385 C129 1.400 . S
C1425 C633 1.824 . S
C1417 C140 1.782 . S
C1449 C151 1.444 . S
C1457 C537 1.477 . S
C1489 C601 1.381 . S
C1481 C162 1.328 . S
C1513 C173 1.927 . S
C1521 C569 1.976 . S
C1553 C345 1.824 . S
C1545 C184 1.781 . S
C1585 C377 1.973 . S
C1577 C195 1.907 . S
C1609 C206 1.423 . S
C1617 C281 1.498 . S
C1641 C217 1.387 . S
C1649 C313 1.382 . S
C1673 C228 1.769 . S
C1681 C505 1.835 . S
C1705 C239 1.879 . S
C1713 C441 1.988 . S
C1745 C409 1.485 . S
C1737 C250 1.462 . S
C1769 C261 1.386 . S
C1777 C473 1.380 . S
C1809 C293 1.215 . S
C1801 C7 1.230 . S
C1841 C325 1.182 . S
C1833 C18 1.195 . S
C1865 C29 1.170 . S
C1873 C357 1.170 . S
C1897 C40 0.923 . S
C1905 C389 0.924 . S
C1937 C421 1.226 . S
C1929 C51 1.210 . S
C1961 C62 0.900 . S
C1969 C453 0.928 . S
C2001 C485 1.187 . S
C1993 C73 1.169 . S
C2033 C517 1.175 . S
C2025 C84 1.168 . S
C2065 C549 1.220 . S
C2057 C95 1.224 . S
C2089 C106 0.933 . S
C2097 C581 0.911 . S
C2121 C117 1.174 . S
C2129 C613 1.185 . S
C2153 C128 1.186 . S
C2161 C645 1.166 . S
C2185 C139 1.169 . S
C2193 C677 1.165 . S
C2217 C150 1.115 . S
C2225 C709 1.139 . S
C2249 C161 1.042 . S
C2257 C741 1.123 . S
C2281 C172 0.822 . S
C2289 C773 0.901 . S
C2313 C183 1.157 . S
C2321 C805 1.197 . S
C2353 C837 0.881 . S
C2345 C194 0.809 . S
C2385 C869 1.096 . S
C2377 C205 1.085 . S
C2417 C901 1.131 . S
C2409 C216 1.061 . S
C2449 C933 1.166 . S
C2441 C227 1.174 . S
C2473 C238 0.811 . S
C2481 C965 0.880 . S
C2505 C249 1.008 . S
C2513 C997 1.119 . S
C2537 C260 1.108 . S
C2545 C1029 1.102 . S
C2569 C5 1.478 . S
C2577 C543 1.681 . S
C2609 C639 1.607 . S
C2601 C16 1.430 . S
C2633 C27 1.157 1_545 S
C2641 C575 1.363 . S
C2673 C607 2.082 . S
C2665 C38 1.845 1_565 S
C2697 C49 1.484 . S
C2705 C287 1.678 . S
C2729 C60 1.789 1_556 S
C2737 C319 2.081 . S
C2761 C71 1.330 . S
C2769 C351 1.601 . S
C2793 C82 1.273 1_554 S
C2801 C383 1.356 . S
C2833 C415 1.682 . S
C2825 C93 1.430 . S
C2865 C479 2.082 . S
C2857 C104 1.798 1_655 S
C2889 C115 1.378 . S
C2897 C511 1.599 . S
C2921 C126 1.198 1_455 S
C2929 C447 1.368 . S
C2961 C927 1.586 . S
C2953 C137 1.324 . S
C2993 C1023 1.504 . S
C2985 C148 1.180 . S
C3017 C159 0.968 . S
C3025 C959 1.296 . S
C3057 C991 1.935 . S
C3049 C170 1.470 . S
C3081 C181 1.340 . S
C3089 C671 1.600 . S
C3113 C192 1.428 . S
C3121 C703 1.948 . S
C3145 C203 1.188 . S
C3153 C735 1.482 . S
C3185 C767 1.292 . S
C3177 C214 1.127 . S
C3217 C799 1.611 . S
C3209 C225 1.286 . S
C3249 C863 1.953 . S
C3241 C236 1.467 . S
C3273 C247 1.189 . S
C3281 C895 1.496 . S
C3313 C831 1.283 . S
C3305 C258 1.084 . S
