# Generated by pormake.
# Topology zzz, (3,6)-cn, num edge types: 1
# Building blocks:
#     Node 0, Type 0, BuildingBlock: BETDAH_clean_linker_0, # of connection points: 3
#     Node 1, Type 0, BuildingBlock: BETDAH_clean_linker_0, # of connection points: 3
#     Node 2, Type 0, BuildingBlock: BETDAH_clean_linker_0, # of connection points: 3
#     Node 3, Type 0, BuildingBlock: BETDAH_clean_linker_0, # of connection points: 3
#     Node 4, Type 0, BuildingBlock: BETDAH_clean_linker_0, # of connection points: 3
#     Node 5, Type 0, BuildingBlock: BETDAH_clean_linker_0, # of connection points: 3
#     Node 6, Type 0, BuildingBlock: BETDAH_clean_linker_0, # of connection points: 3
#     Node 7, Type 0, BuildingBlock: BETDAH_clean_linker_0, # of connection points: 3
#     Node 8, Type 1, BuildingBlock: KUMBOL_clean_sbu_1, # of connection points: 6
#     Node 9, Type 1, BuildingBlock: KUMBOL_clean_sbu_1, # of connection points: 6
#     Node 10, Type 1, BuildingBlock: KUMBOL_clean_sbu_1, # of connection points: 6
#     Node 11, Type 1, BuildingBlock: KUMBOL_clean_sbu_1, # of connection points: 6
#     Edge 12, Type (0, 1), BuildingBlock: TEMPAE_clean_linker_10, # of connection points: 2
#     Edge 13, Type (0, 1), BuildingBlock: TEMPAE_clean_linker_10, # of connection points: 2
#     Edge 14, Type (0, 1), BuildingBlock: TEMPAE_clean_linker_10, # of connection points: 2
#     Edge 15, Type (0, 1), BuildingBlock: TEMPAE_clean_linker_10, # of connection points: 2
#     Edge 16, Type (0, 1), BuildingBlock: TEMPAE_clean_linker_10, # of connection points: 2
#     Edge 17, Type (0, 1), BuildingBlock: TEMPAE_clean_linker_10, # of connection points: 2
#     Edge 18, Type (0, 1), BuildingBlock: TEMPAE_clean_linker_10, # of connection points: 2
#     Edge 19, Type (0, 1), BuildingBlock: TEMPAE_clean_linker_10, # of connection points: 2
#     Edge 20, Type (0, 1), BuildingBlock: TEMPAE_clean_linker_10, # of connection points: 2
#     Edge 21, Type (0, 1), BuildingBlock: TEMPAE_clean_linker_10, # of connection points: 2
#     Edge 22, Type (0, 1), BuildingBlock: TEMPAE_clean_linker_10, # of connection points: 2
#     Edge 23, Type (0, 1), BuildingBlock: TEMPAE_clean_linker_10, # of connection points: 2
#     Edge 24, Type (0, 1), BuildingBlock: TEMPAE_clean_linker_10, # of connection points: 2
#     Edge 25, Type (0, 1), BuildingBlock: TEMPAE_clean_linker_10, # of connection points: 2
#     Edge 26, Type (0, 1), BuildingBlock: TEMPAE_clean_linker_10, # of connection points: 2
#     Edge 27, Type (0, 1), BuildingBlock: TEMPAE_clean_linker_10, # of connection points: 2
#     Edge 28, Type (0, 1), BuildingBlock: TEMPAE_clean_linker_10, # of connection points: 2
#     Edge 29, Type (0, 1), BuildingBlock: TEMPAE_clean_linker_10, # of connection points: 2
#     Edge 30, Type (0, 1), BuildingBlock: TEMPAE_clean_linker_10, # of connection points: 2
#     Edge 31, Type (0, 1), BuildingBlock: TEMPAE_clean_linker_10, # of connection points: 2
#     Edge 32, Type (0, 1), BuildingBlock: TEMPAE_clean_linker_10, # of connection points: 2
#     Edge 33, Type (0, 1), BuildingBlock: TEMPAE_clean_linker_10, # of connection points: 2
#     Edge 34, Type (0, 1), BuildingBlock: TEMPAE_clean_linker_10, # of connection points: 2
#     Edge 35, Type (0, 1), BuildingBlock: TEMPAE_clean_linker_10, # of connection points: 2
# Relax obj value: 0.179
# Max RMSD: 0.105
# Mean RMSD: 0.082
data_MOF--net-zzz--node1-KUMBOL_clean_sbu_1--node2-BETDAH_clean_linker_0--edge1-TEMPAE_clean_linker_10
_symmetry_space_group_name_H-M    P1
_symmetry_Int_Tables_number       1
_symmetry_cell_setting            triclinic
loop_
_symmetry_equiv_pos_as_xyz
'x, y, z'
_cell_length_a     50.870718
_cell_length_b     50.87716
_cell_length_c     16.049907
_cell_angle_alpha  90.088335
_cell_angle_beta   89.901296
_cell_angle_gamma 90.411757
loop_
_atom_site_label
_atom_site_type_symbol
_atom_site_fract_x
_atom_site_fract_y
_atom_site_fract_z
_atom_type_partial_charge
H0 H 0.80592 0.58689 0.37085 0.0
H1 H 0.7419 0.56253 0.21933 0.0
H2 H 0.75281 0.52672 0.45891 0.0
C3 C 0.78731 0.57639 0.36685 0.0
C4 C 0.78195 0.55675 0.42589 0.0
C5 C 0.77644 0.57363 0.28727 0.0
C6 C 0.75135 0.56261 0.27977 0.0
C7 C 0.74142 0.54658 0.34354 0.0
C8 C 0.75807 0.5419 0.4146 0.0
N9 N 0.71669 0.53298 0.33213 0.0
C10 C 0.69958 0.53553 0.26266 0.0
H11 H 0.97291 0.8148 0.33735 0.0
H12 H 0.98036 0.73923 0.22258 0.0
H13 H 0.02199 0.75671 0.45079 0.0
C14 C 0.97962 0.79462 0.34057 0.0
C15 C 0.99651 0.78785 0.40531 0.0
C16 C 0.97519 0.77775 0.27283 0.0
C17 C 0.9842 0.7519 0.2755 0.0
C18 C 1.00142 0.74381 0.33807 0.0
C19 C 1.00794 0.76217 0.4034 0.0
N20 N 0.01367 0.7184 0.33167 0.0
C21 C 1.01119 0.70065 0.26345 0.0
H22 H 0.73023 0.96862 0.33355 0.0
H23 H 0.80327 0.98139 0.21082 0.0
H24 H 0.791 1.0131 0.45725 0.0
C25 C 0.75068 0.97477 0.33828 0.0
C26 C 0.75828 0.98993 0.40706 0.0
C27 C 0.76557 0.97557 0.26488 0.0
C28 C 0.79202 0.98225 0.26812 0.0
C29 C 0.802 0.99578 0.33708 0.0
C30 C 0.78451 1.00072 0.40627 0.0
N31 N 0.82821 1.00669 0.33251 0.0
C32 C 0.84505 1.00513 0.2618 0.0
H33 H 0.57482 0.73466 0.3379 0.0
H34 H 0.56486 0.80959 0.22367 0.0
H35 H 0.52413 0.79148 0.45289 0.0
C36 C 0.56781 0.75474 0.34272 0.0
C37 C 0.5505 0.76095 0.4074 0.0
C38 C 0.57063 0.77128 0.2737 0.0
C39 C 0.56204 0.79722 0.27788 0.0
C40 C 0.54481 0.80504 0.341 0.0
C41 C 0.53851 0.78643 0.40585 0.0
N42 N 0.53195 0.83016 0.33461 0.0
C43 C 0.53382 0.84783 0.26609 0.0
H44 H 0.23402 0.46395 0.00998 0.0
H45 H 0.30476 0.47866 0.14452 0.0
H46 H 0.28703 0.52468 0.92713 0.0
C47 C 0.25336 0.47317 0.01192 0.0
C48 C 0.25838 0.49399 0.95734 0.0
C49 C 0.26771 0.47141 0.08586 0.0
C50 C 0.29336 0.48152 0.08835 0.0
C51 C 0.30113 0.50086 0.03106 0.0
C52 C 0.28278 0.508 0.96683 0.0
N53 N 0.32536 0.51524 0.04368 0.0
C54 C 0.34297 0.51248 0.11181 0.0
H55 H 0.06809 0.23397 0.05787 0.0
H56 H 0.0571 0.31071 0.15623 0.0
H57 H 0.03521 0.29402 0.90103 0.0
C58 C 0.06363 0.25448 0.04568 0.0
C59 C 0.05283 0.26134 0.96886 0.0
C60 C 0.06377 0.27192 0.11272 0.0
C61 C 0.05717 0.29805 0.10187 0.0
C62 C 0.04708 0.30681 0.02609 0.0
C63 C 0.0442 0.28804 0.95897 0.0
N64 N 0.03811 0.33357 0.02048 0.0
C65 C 0.03805 0.35166 0.08819 0.0
H66 H 0.30958 0.07977 0.05125 0.0
H67 H 0.23366 0.06792 0.15517 0.0
H68 H 0.25347 0.03121 0.92117 0.0
C69 C 0.28945 0.07303 0.04242 0.0
C70 C 0.28397 0.05637 0.97494 0.0
C71 C 0.27257 0.07352 0.11136 0.0
C72 C 0.24647 0.06608 0.10171 0.0
C73 C 0.23889 0.05052 0.03383 0.0
C74 C 0.25812 0.04505 0.97039 0.0
N75 N 0.21347 0.03791 0.03508 0.0
C76 C 0.19551 0.03897 0.10278 0.0
H77 H 0.4532 0.30778 0.03537 0.0
H78 H 0.48271 0.24174 0.15942 0.0
H79 H 0.51066 0.25881 0.91206 0.0
C80 C 0.4642 0.28982 0.02844 0.0
C81 C 0.48213 0.2869 0.96198 0.0
C82 C 0.46884 0.27676 0.10316 0.0
C83 C 0.4807 0.25233 0.10137 0.0
C84 C 0.49466 0.24439 0.0307 0.0
C85 C 0.4971 0.26287 0.96238 0.0
N86 N 0.50827 0.2196 0.03263 0.0
C87 C 0.50714 0.20116 0.09928 0.0
C88 C 0.09027 0.04023 0.87146 0.0
C89 C 0.0709 0.05291 1.00392 0.0
C90 C 0.0684 0.04191 0.9234 0.0
C91 C 0.09546 0.0622 0.03119 0.0
C92 C 0.11499 0.0495 0.89901 0.0
C93 C 0.11744 0.06043 0.979 0.0
N94 N 0.08757 0.02889 0.79511 0.0
C95 C 0.10872 0.02639 0.74321 0.0
C96 C 0.13669 0.04702 0.84595 0.0
C97 C 0.13351 0.03549 0.76766 0.0
Gd98 Gd 0.99707 0.03711 0.61196 0.0
Gd99 Gd 0.0462 1.01039 0.76676 0.0
N100 N 0.04501 0.03187 0.89666 0.0
C101 C 0.04882 0.05346 0.05592 0.0
C102 C 0.0241 0.03059 0.9499 0.0
C103 C 0.02536 0.04205 0.02893 0.0
H104 H 1.00689 0.01951 0.93447 0.0
H105 H 1.00849 0.04119 0.07009 0.0
H106 H 0.03586 0.01988 0.44894 0.0
H107 H 0.10691 0.01632 0.68447 0.0
H108 H 0.03144 0.99697 0.31597 0.0
H109 H 0.04995 0.06174 0.11807 0.0
H110 H 0.09776 0.0704 0.09314 0.0
H111 H 0.9373 0.03381 0.70434 0.0
H112 H 0.15602 0.05369 0.86518 0.0
H113 H 0.15025 0.03311 0.72672 0.0
H114 H 0.94109 0.97022 0.30928 0.0
H115 H 0.13634 0.06736 1.00146 0.0
H116 H 0.88556 0.99392 0.53693 0.0
H117 H 0.8933 0.01695 0.67047 0.0
N118 N 0.95517 0.01871 0.59414 0.0
C119 C 0.95134 1.0063 0.51996 0.0
C120 C 0.9347 0.02256 0.64799 0.0
C121 C 0.9052 1.00066 0.55252 0.0
C122 C 0.9095 1.01352 0.62813 0.0
C123 C 0.92619 0.99688 0.49746 0.0
H124 H 0.90352 0.97659 0.40287 0.0
N125 N 0.99666 1.01249 0.48839 0.0
C126 C 0.97254 1.00326 0.46557 0.0
C127 C 0.99044 0.98794 0.33451 0.0
C128 C 0.96891 0.99054 0.38821 0.0
C129 C 0.01744 1.01082 0.43482 0.0
C130 C 0.01479 0.99824 0.35788 0.0
O131 O 0.0467 0.05569 0.76237 0.0
O132 O 1.00561 0.06673 0.7147 0.0
O133 O 1.00352 0.06622 0.51747 0.0
O134 O 0.96505 0.06339 0.58062 0.0
O135 O 1.00221 1.00226 0.79243 0.0
O136 O 0.98281 0.03938 0.74519 0.0
O137 O 0.99704 0.99183 0.62164 0.0
O138 O 0.03978 0.98393 0.65498 0.0
O139 O 0.03752 0.97779 0.84699 0.0
O140 O 0.0777 0.98344 0.79829 0.0
O141 O 0.04045 0.04592 0.58163 0.0
O142 O 0.06236 1.01081 0.63494 0.0
C143 C 0.02807 0.07321 0.75002 0.0
C144 C 0.98261 0.01904 0.79485 0.0
C145 C 0.97032 0.09655 0.47483 0.0
C146 C 0.98115 0.13704 0.40652 0.0
C147 C 0.93553 0.1254 0.42926 0.0
C148 C 0.94344 0.10218 0.46793 0.0
C149 C 0.95442 0.14311 0.39955 0.0
C150 C 0.98901 0.11364 0.44195 0.0
C151 C 0.97953 0.07488 0.52473 0.0
C152 C 0.94401 0.98071 0.36695 0.0
C153 C 0.92267 0.9841 0.42081 0.0
H154 H 0.98839 0.97836 0.27451 0.0
C155 C 0.01691 0.97543 0.62808 0.0
C156 C 0.06104 0.03031 0.58163 0.0
C157 C 0.0697 0.94582 0.88685 0.0
C158 C 0.057 0.90744 0.96487 0.0
C159 C 0.1023 0.91317 0.92192 0.0
C160 C 0.09572 0.93686 0.88359 0.0
C161 C 0.08295 0.8984 0.96276 0.0
C162 C 0.05051 0.9311 0.92781 0.0
C163 C 0.06165 0.96932 0.84287 0.0
H164 H 0.91486 0.13003 0.42466 0.0
H165 H 0.92874 0.08906 0.49402 0.0
H166 H 0.94833 0.1616 0.37262 0.0
H167 H 1.00987 0.10976 0.44912 0.0
H168 H 0.12228 0.90606 0.91884 0.0
H169 H 0.11076 0.94789 0.85067 0.0
H170 H 0.08801 0.87975 0.99075 0.0
H171 H 0.03023 0.93759 0.92943 0.0
C172 C 0.5223 0.93654 0.58362 0.0
C173 C 0.48457 0.91309 0.63991 0.0
C174 C 0.49784 0.93685 0.62148 0.0
C175 C 0.49712 0.88907 0.62518 0.0
C176 C 0.53401 0.9124 0.56239 0.0
C177 C 0.52174 0.88871 0.58595 0.0
N178 N 0.53299 0.95976 0.5583 0.0
C179 C 0.55409 0.96001 0.50579 0.0
C180 C 0.55679 0.91273 0.51339 0.0
C181 C 0.56658 0.93664 0.48367 0.0
Gd182 Gd 0.53257 0.0485 0.76316 0.0
Gd183 Gd 0.5102 0.99801 0.59724 0.0
N184 N 0.48564 0.96027 0.63026 0.0
C185 C 0.45834 0.91418 0.6663 0.0
C186 C 0.45914 0.96089 0.64215 0.0
C187 C 0.44529 0.93819 0.66471 0.0
H188 H 0.44845 0.97852 0.62891 0.0
H189 H 0.42439 0.93906 0.67709 0.0
H190 H 0.58275 0.0628 0.63138 0.0
H191 H 0.56028 0.978 0.47685 0.0
H192 H 0.60889 0.10104 0.59012 0.0
H193 H 0.44746 0.89642 0.68121 0.0
H194 H 0.48732 0.87064 0.63942 0.0
H195 H 0.48673 0.07141 0.89813 0.0
H196 H 0.56614 0.8946 0.49458 0.0
H197 H 0.58329 0.93705 0.44184 0.0
H198 H 0.56852 0.17292 0.73295 0.0
H199 H 0.53054 0.86999 0.57058 0.0
H200 H 0.49594 0.15469 0.91379 0.0
H201 H 0.473 0.11384 0.95594 0.0
N202 N 0.51572 0.08802 0.81702 0.0
C203 C 0.52883 0.11019 0.79386 0.0
C204 C 0.49608 0.08916 0.8754 0.0
C205 C 0.50156 0.13613 0.88596 0.0
C206 C 0.48852 0.11316 0.90979 0.0
C207 C 0.52211 0.13485 0.82806 0.0
H208 H 0.53159 0.17641 0.83104 0.0
N209 N 0.55611 0.0842 0.70689 0.0
C210 C 0.54969 0.10822 0.73803 0.0
C211 C 0.58574 0.12818 0.66185 0.0
C212 C 0.5643 0.13086 0.71583 0.0
C213 C 0.57721 0.08155 0.65496 0.0
C214 C 0.59225 0.10339 0.63149 0.0
O215 O 0.52593 0.9786 0.71579 0.0
O216 O 0.51675 1.0097 0.81466 0.0
O217 O 0.56973 0.05177 0.82565 0.0
O218 O 0.53298 0.05071 0.8987 0.0
O219 O 0.47631 1.01227 0.68195 0.0
O220 O 0.48822 0.04627 0.76965 0.0
O221 O 0.51811 0.06878 0.64447 0.0
O222 O 0.52393 0.03732 0.54294 0.0
O223 O 0.47697 1.01192 0.52708 0.0
O224 O 0.50396 0.98239 0.47347 0.0
O225 O 0.56425 0.02094 0.70934 0.0
O226 O 0.55194 1.01319 0.5751 0.0
C227 C 0.52322 0.98549 0.79456 0.0
C228 C 0.47032 0.03056 0.73752 0.0
C229 C 0.57377 0.05511 0.97417 0.0
C230 C 0.61388 0.04475 0.04524 0.0
C231 C 0.57723 0.06251 0.12283 0.0
C232 C 0.56252 0.0635 0.04946 0.0
C233 C 0.60286 0.05297 0.12101 0.0
C234 C 0.59954 0.04625 0.97216 0.0
C235 C 0.55841 0.05293 0.89858 0.0
C236 C 0.55747 0.15538 0.74925 0.0
C237 C 0.53643 0.15737 0.80508 0.0
H238 H 0.59748 0.14508 0.64368 0.0
C239 C 0.51875 0.06172 0.56528 0.0
C240 C 0.57057 0.01534 0.63149 0.0
C241 C 0.46755 0.9958 0.38853 0.0
C242 C 0.4274 1.00648 0.31751 0.0
C243 C 0.46208 0.98384 0.24343 0.0
C244 C 0.47733 0.98412 0.31559 0.0
C245 C 0.43716 0.99506 0.24411 0.0
C246 C 0.44258 1.00676 0.38936 0.0
C247 C 0.48303 0.99661 0.4643 0.0
H248 H 0.5686 0.06841 0.18145 0.0
H249 H 0.5424 0.07028 0.05174 0.0
H250 H 0.6139 0.05159 0.17847 0.0
H251 H 0.608 0.0389 0.91454 0.0
H252 H 0.46962 0.97511 0.1869 0.0
H253 H 0.49672 0.97546 0.31416 0.0
H254 H 0.42549 0.99482 0.1877 0.0
H255 H 0.43499 0.0159 0.44555 0.0
C256 C 0.45136 0.50418 0.85924 0.0
C257 C 0.47013 0.48754 0.9877 0.0
C258 C 0.47282 0.50157 0.91229 0.0
C259 C 0.44588 0.47592 0.00826 0.0
C260 C 0.42688 0.49286 0.88052 0.0
C261 C 0.42429 0.4787 0.95513 0.0
N262 N 0.45429 0.51808 0.78746 0.0
C263 C 0.43361 0.52151 0.73453 0.0
C264 C 0.40559 0.49632 0.82656 0.0
C265 C 0.40899 0.5107 0.75328 0.0
Gd266 Gd 0.54488 0.5098 0.6188 0.0
Gd267 Gd 0.49547 0.5378 0.76724 0.0
N268 N 0.49603 0.51336 0.89149 0.0
C269 C 0.49168 0.48627 0.04157 0.0
C270 C 0.51631 0.51384 0.94704 0.0
C271 C 0.51476 0.49976 0.02154 0.0
H272 H 0.53321 0.52602 0.93705 0.0
H273 H 0.53112 0.5 0.06461 0.0
H274 H 0.50912 0.51754 0.44102 0.0
H275 H 0.43572 0.53339 0.67929 0.0
H276 H 0.51219 0.54243 0.31129 0.0
H277 H 0.49035 0.47576 0.10012 0.0
H278 H 0.44347 0.46516 0.066 0.0
H279 H 0.60501 0.51261 0.7059 0.0
H280 H 0.38642 0.48813 0.84119 0.0
H281 H 0.39258 0.51374 0.71168 0.0
H282 H 0.5986 0.58062 0.31901 0.0
H283 H 0.40559 0.46998 0.97265 0.0
H284 H 0.65509 0.55706 0.54421 0.0
H285 H 0.64841 0.53167 0.6739 0.0
N286 N 0.58689 0.52749 0.59625 0.0
C287 C 0.59033 0.54065 0.52332 0.0
C288 C 0.60739 0.52415 0.65004 0.0
C289 C 0.63587 0.54885 0.55817 0.0
C290 C 0.63216 0.53464 0.6316 0.0
C291 C 0.61483 0.55212 0.50317 0.0
H292 H 0.63614 0.57586 0.41338 0.0
N293 N 0.54604 0.53071 0.48814 0.0
C294 C 0.56934 0.54241 0.46803 0.0
C295 C 0.55125 0.55688 0.33672 0.0
C296 C 0.57238 0.5562 0.39235 0.0
C297 C 0.52621 0.52953 0.43097 0.0
C298 C 0.52824 0.54306 0.3555 0.0
O299 O 0.49353 0.49278 0.74764 0.0
O300 O 0.53701 0.48562 0.73529 0.0
O301 O 0.53524 0.4739 0.55558 0.0
O302 O 0.57608 0.48318 0.58479 0.0
O303 O 0.53926 0.54618 0.79941 0.0
O304 O 0.55944 0.50949 0.75135 0.0
O305 O 0.5456 0.55547 0.62227 0.0
O306 O 0.50379 0.56617 0.66196 0.0
O307 O 0.50229 0.56824 0.85658 0.0
O308 O 0.46323 0.5643 0.79872 0.0
O309 O 0.50131 0.50403 0.58188 0.0
O310 O 0.48113 0.54047 0.63353 0.0
C311 C 0.5135 0.47659 0.75278 0.0
C312 C 0.55936 0.52988 0.80094 0.0
C313 C 0.56779 0.45373 0.47371 0.0
C314 C 0.55783 0.41795 0.38083 0.0
C315 C 0.60186 0.43625 0.38396 0.0
C316 C 0.59394 0.45407 0.44534 0.0
C317 C 0.58394 0.41776 0.3528 0.0
C318 C 0.54975 0.43631 0.43897 0.0
C319 C 0.5598 0.46679 0.55006 0.0
C320 C 0.59629 0.56895 0.37482 0.0
C321 C 0.6176 0.5665 0.42914 0.0
H322 H 0.5528 0.56732 0.2781 0.0
C323 C 0.5267 0.57303 0.63085 0.0
C324 C 0.48195 0.52118 0.57919 0.0
C325 C 0.47021 0.60004 0.89684 0.0
C326 C 0.48308 0.63982 0.96746 0.0
C327 C 0.43733 0.63231 0.93356 0.0
C328 C 0.44392 0.60824 0.89736 0.0
C329 C 0.45695 0.64829 0.96802 0.0
C330 C 0.4896 0.61571 0.93332 0.0
C331 C 0.47846 0.57722 0.84936 0.0
H332 H 0.62211 0.43603 0.36327 0.0
H333 H 0.6084 0.46717 0.47284 0.0
H334 H 0.59048 0.40307 0.30862 0.0
H335 H 0.52979 0.43522 0.46306 0.0
H336 H 0.41715 0.63887 0.93306 0.0
H337 H 0.42872 0.59645 0.86802 0.0
H338 H 0.45191 0.66729 0.99379 0.0
H339 H 0.51011 0.60994 0.9315 0.0
C340 C 0.03082 0.45436 0.86949 0.0
C341 C 0.04297 0.47302 1.00349 0.0
C342 C 0.03301 0.47597 0.92195 0.0
C343 C 0.0509 0.44818 0.03097 0.0
C344 C 0.03814 0.42923 0.89796 0.0
C345 C 0.0484 0.42633 0.97849 0.0
N346 N 0.02067 0.45767 0.79196 0.0
C347 C 0.01671 0.43648 0.74073 0.0
C348 C 0.03447 0.4076 0.84526 0.0
C349 C 0.02358 0.41124 0.76649 0.0
Gd350 Gd 0.03212 0.55103 0.59318 0.0
Gd351 Gd 1.00804 0.50076 0.75738 0.0
N352 N 0.02469 0.4997 0.89429 0.0
C353 C 0.04413 0.49502 0.0558 0.0
C354 C 0.0245 0.52081 0.94687 0.0
C355 C 0.03462 0.519 0.02749 0.0
H356 H 0.01612 0.53896 0.92818 0.0
H357 H 0.03464 0.536 0.06815 0.0
H358 H 0.0343 0.52085 0.40454 0.0
H359 H 1.00739 0.43888 0.68074 0.0
H360 H 0.01574 0.52663 0.26552 0.0
H361 H 0.05168 0.49354 0.11871 0.0
H362 H 0.05859 0.44562 0.09316 0.0
H363 H 0.02425 0.60922 0.69223 0.0
H364 H 0.03961 0.38797 0.86531 0.0
H365 H 0.02019 0.39457 0.72587 0.0
H366 H 0.97378 0.61001 0.27905 0.0
H367 H 0.05421 0.40719 1.00089 0.0
H368 H 0.98347 0.66038 0.52824 0.0
H369 H 1.0048 0.65207 0.66367 0.0
N370 N 1.012 0.59198 0.57754 0.0
C371 C 1.00086 0.59628 0.50153 0.0
C372 C 0.01375 0.61177 0.63489 0.0
C373 C 0.99118 0.64104 0.54157 0.0
C374 C 1.00316 0.63643 0.61815 0.0
C375 C 0.99017 0.62103 0.4818 0.0
H376 H 0.97176 0.64447 0.38588 0.0
N377 N 0.01457 0.55383 0.45798 0.0
C378 C 1.00202 0.57667 0.44059 0.0
C379 C 0.9964 0.56279 0.29705 0.0
C380 C 0.99254 0.58165 0.35936 0.0
C381 C 0.02091 0.5369 0.39463 0.0
C382 C 1.01113 0.54054 0.31445 0.0
O383 O 0.0511 0.50965 0.78421 0.0
O384 O 0.06567 0.53235 0.66758 0.0
O385 O 0.06376 0.54304 0.50949 0.0
O386 O 0.05676 0.58335 0.55039 0.0
O387 O 1.00155 0.54458 0.78406 0.0
O388 O 0.03696 0.56566 0.72747 0.0
O389 O 0.98768 0.5521 0.61558 0.0
O390 O 0.98156 0.5087 0.64561 0.0
O391 O 0.97305 0.51092 0.82489 0.0
O392 O 0.97707 0.47172 0.7703 0.0
O393 O 0.01966 0.51104 0.54169 0.0
O394 O 0.02766 0.48127 0.64437 0.0
C395 C 0.07021 0.51945 0.7377 0.0
C396 C 0.01868 0.56414 0.7857 0.0
C397 C 0.09866 0.57321 0.49234 0.0
C398 C 0.13976 0.5598 0.43074 0.0
C399 C 0.13521 0.60399 0.48478 0.0
C400 C 0.10928 0.59831 0.50763 0.0
C401 C 0.15051 0.58476 0.44641 0.0
C402 C 0.11404 0.5541 0.45365 0.0
C403 C 0.07073 0.56774 0.50367 0.0
C404 C 0.98098 0.60588 0.34115 0.0
C405 C 0.97989 0.62552 0.40201 0.0
H406 H 0.9894 0.56593 0.23416 0.0
C407 C 0.97182 0.53168 0.62437 0.0
C408 C 0.02538 0.48703 0.56484 0.0
C409 C 0.94748 0.47703 0.88282 0.0
C410 C 0.90891 0.48288 0.96761 0.0
C411 C 0.9333 0.44218 0.97544 0.0
C412 C 0.95109 0.45182 0.91606 0.0
C413 C 0.91203 0.45759 1.00086 0.0
C414 C 0.92667 0.49238 0.90924 0.0
C415 C 0.96271 0.48759 0.81424 0.0
H416 H 0.1433 0.62342 0.49562 0.0
H417 H 0.09742 0.61365 0.53511 0.0
H418 H 0.17048 0.58942 0.42781 0.0
H419 H 0.10593 0.53481 0.43947 0.0
H420 H 0.93578 0.42268 1.00091 0.0
H421 H 0.96714 0.43955 0.89525 0.0
H422 H 0.89823 0.44995 0.04638 0.0
H423 H 0.92368 0.51164 0.88175 0.0
C424 C 0.15142 0.02752 0.16288 0.0
C425 C 0.17634 0.03915 0.17238 0.0
C426 C 0.13291 0.02681 0.22912 0.0
C427 C 0.13915 0.03819 0.30779 0.0
C428 C 0.16424 0.05041 0.31705 0.0
C429 C 0.18247 0.05056 0.24989 0.0
C430 C 0.10662 1.0137 0.21481 0.0
C431 C 0.17212 0.06297 0.39859 0.0
C432 C 0.0819 0.05449 0.45835 0.0
C433 C 0.08194 0.03317 0.51433 0.0
C434 C 0.10038 0.05653 0.39219 0.0
C435 C 0.11971 0.0368 0.38029 0.0
C436 C 0.12011 0.01548 0.4374 0.0
C437 C 0.10134 1.01386 0.50273 0.0
C438 C 0.09915 0.07989 0.33461 0.0
C439 C 0.14007 0.99387 0.42841 0.0
H440 H 0.14641 0.01872 0.10337 0.0
H441 H 0.20163 0.05957 0.25856 0.0
H442 H 0.10338 0.99799 0.2617 0.0
H443 H 0.09067 0.02824 0.22271 0.0
H444 H 0.10502 1.00496 0.15152 0.0
H445 H 0.18984 0.07568 0.39182 0.0
H446 H 0.15586 0.07495 0.42429 0.0
H447 H 0.1765 0.04737 0.44465 0.0
H448 H 0.06715 0.06958 0.46563 0.0
H449 H 0.10164 0.99705 0.54404 0.0
H450 H 0.09513 0.07318 0.27004 0.0
H451 H 0.11841 0.09027 0.33384 0.0
H452 H 0.08368 0.09404 0.35328 0.0
H453 H 0.13596 0.98253 0.37071 0.0
H454 H 0.13973 0.98014 0.48215 0.0
H455 H 0.16016 1.00229 0.42241 0.0
C456 C 0.52238 0.15821 0.15876 0.0
C457 C 0.50723 0.18105 0.16669 0.0
C458 C 0.52347 0.139 0.22292 0.0
C459 C 0.5088 0.1421 0.2979 0.0
C460 C 0.49295 0.165 0.30527 0.0
C461 C 0.49255 0.18413 0.24047 0.0
C462 C 0.54068 0.11537 0.21044 0.0
C463 C 0.47656 0.16965 0.38222 0.0
C464 C 0.49813 0.07905 0.43138 0.0
C465 C 0.51577 0.08256 0.49809 0.0
C466 C 0.49483 0.09852 0.3686 0.0
C467 C 0.51061 0.12179 0.36846 0.0
C468 C 0.52853 0.12528 0.43567 0.0
C469 C 0.53032 0.10617 0.49995 0.0
C470 C 0.47394 0.09438 0.30326 0.0
C471 C 0.54657 0.14892 0.43862 0.0
H472 H 0.53368 0.15541 0.10215 0.0
H473 H 0.48068 0.20158 0.24789 0.0
H474 H 0.55432 0.11323 0.26388 0.0
H475 H 0.52832 0.09735 0.2077 0.0
H476 H 0.55239 0.11667 0.15208 0.0
H477 H 0.46059 0.18395 0.3704 0.0
H478 H 0.4677 0.15105 0.4054 0.0
H479 H 0.48927 0.17776 0.43229 0.0
H480 H 0.4863 0.06126 0.42942 0.0
H481 H 0.54376 0.10951 0.55075 0.0
H482 H 0.48318 0.0923 0.24102 0.0
H483 H 0.46091 0.11178 0.30079 0.0
H484 H 0.4617 0.07663 0.31566 0.0
H485 H 0.56064 0.14793 0.38577 0.0
H486 H 0.5579 0.15002 0.49766 0.0
H487 H 0.53523 0.1673 0.43151 0.0
C488 C 0.38981 0.51142 0.16215 0.0
C489 C 0.36274 0.51192 0.17999 0.0
C490 C 0.40911 0.5125 0.22619 0.0
C491 C 0.40148 0.51377 0.31154 0.0
C492 C 0.37404 0.51386 0.32963 0.0
C493 C 0.35518 0.51309 0.2642 0.0
C494 C 0.43776 0.51224 0.20179 0.0
C495 C 0.36449 0.51531 0.41852 0.0
C496 C 0.45258 0.49462 0.48048 0.0
C497 C 0.46097 0.51911 0.51211 0.0
C498 C 0.43309 0.49257 0.4172 0.0
C499 C 0.42199 0.51554 0.38138 0.0
C500 C 0.43077 0.54032 0.41236 0.0
C501 C 0.44963 0.54177 0.47755 0.0
C502 C 0.42433 0.46567 0.38866 0.0
C503 C 0.4209 0.56549 0.37454 0.0
H504 H 0.39602 0.51052 0.09755 0.0
H505 H 0.33439 0.51363 0.27912 0.0
H506 H 0.44948 0.52597 0.24088 0.0
H507 H 0.44565 0.49219 0.21119 0.0
H508 H 0.44062 0.51767 0.13538 0.0
H509 H 0.34299 0.51166 0.42358 0.0
H510 H 0.37492 0.5008 0.45779 0.0
H511 H 0.36887 0.53513 0.44418 0.0
H512 H 0.46101 0.4769 0.50623 0.0
H513 H 0.45611 0.56085 0.49992 0.0
H514 H 0.43011 0.46271 0.32265 0.0
H515 H 0.40259 0.46401 0.39203 0.0
H516 H 0.43306 0.44973 0.42667 0.0
H517 H 0.42801 0.56697 0.30926 0.0
H518 H 0.42776 0.58314 0.40933 0.0
H519 H 0.39911 0.5655 0.37268 0.0
C520 C 0.05724 0.38886 0.17365 0.0
C521 C 0.0372 0.37015 0.15993 0.0
C522 C 0.05601 0.40717 0.24067 0.0
C523 C 0.03441 0.40673 0.29718 0.0
C524 C 0.01448 0.38738 0.28436 0.0
C525 C 0.01606 0.36956 0.21631 0.0
C526 C 0.0778 0.4272 0.2506 0.0
C527 C 0.99104 0.38579 0.34184 0.0
C528 C 0.04047 0.44197 0.51164 0.0
C529 C 0.02694 0.46566 0.4986 0.0
C530 C 0.04292 0.42271 0.44764 0.0
C531 C 0.03198 0.42705 0.36718 0.0
C532 C 0.01803 0.45077 0.3543 0.0
C533 C 0.01521 0.46921 0.41994 0.0
C534 C 0.05744 0.39767 0.46616 0.0
C535 C 1.0065 0.45714 0.27015 0.0
H536 H 0.07386 0.3894 0.13132 0.0
H537 H 1.00053 0.35516 0.20693 0.0
H538 H 0.06952 0.44732 0.25271 0.0
H539 H 0.08813 0.42394 0.31044 0.0
H540 H 0.0924 0.42621 0.19914 0.0
H541 H 0.9789 0.36792 0.33032 0.0
H542 H 0.9975 0.3858 0.40785 0.0
H543 H 0.97854 0.40334 0.3327 0.0
H544 H 0.04946 0.43856 0.57179 0.0
H545 H 1.0035 0.48652 0.40935 0.0
H546 H 0.07545 0.3967 0.42729 0.0
H547 H 0.04503 0.38039 0.44987 0.0
H548 H 0.06317 0.39623 0.53275 0.0
H549 H 0.0227 0.46076 0.22507 0.0
H550 H 0.99387 0.47486 0.27206 0.0
H551 H 0.99471 0.44035 0.24613 0.0
C552 C 0.88793 0.99251 0.19439 0.0
C553 C 0.86315 1.00443 0.18896 0.0
C554 C 0.90605 0.99294 0.12685 0.0
C555 C 0.89969 1.00599 0.05125 0.0
C556 C 0.87407 0.01683 0.04413 0.0
C557 C 0.8563 0.01607 0.11267 0.0
C558 C 0.93227 0.97982 0.1385 0.0
C559 C 0.86524 0.02886 0.96314 0.0
C560 C 0.95476 0.03609 0.914 0.0
C561 C 0.96068 0.01578 0.85775 0.0
C562 C 0.93544 0.03295 0.97712 0.0
C563 C 0.92012 1.0095 0.98195 0.0
C564 C 0.92527 0.98934 0.92243 0.0
C565 C 0.94585 0.99241 0.86313 0.0
C566 C 0.93208 0.05451 0.04077 0.0
C567 C 0.90967 0.96403 0.92225 0.0
H568 H 0.89336 0.98297 0.25204 0.0
H569 H 0.83702 0.02481 0.10665 0.0
H570 H 0.9422 0.97492 0.07909 0.0
H571 H 0.9454 0.99321 0.1742 0.0
H572 H 0.92979 0.96131 0.17422 0.0
H573 H 0.84498 0.03677 0.96708 0.0
H574 H 0.87881 0.04497 0.94441 0.0
H575 H 0.86588 1.01374 0.9132 0.0
H576 H 0.96615 0.05416 0.91095 0.0
H577 H 0.95006 0.9766 0.81986 0.0
H578 H 0.9355 0.04652 0.10416 0.0
H579 H 0.91166 0.06199 0.03915 0.0
H580 H 0.94584 0.07124 0.03026 0.0
H581 H 0.91921 0.9498 0.96466 0.0
H582 H 0.90913 0.95515 0.85897 0.0
H583 H 0.88918 0.96702 0.94399 0.0
C584 C 0.55443 0.86987 0.13996 0.0
C585 C 0.5336 0.86749 0.1974 0.0
C586 C 0.55404 0.88879 0.07445 0.0
C587 C 0.53228 0.90604 0.06504 0.0
C588 C 0.51135 0.90366 0.12361 0.0
C589 C 0.51226 0.88462 0.18826 0.0
C590 C 0.57724 0.89062 0.01608 0.0
C591 C 0.48753 0.92097 0.11714 0.0
C592 C 0.53641 0.97172 0.9417 0.0
C593 C 0.52607 0.96502 0.86298 0.0
C594 C 0.53945 0.95277 1.00611 0.0
C595 C 0.53104 0.92626 0.99412 0.0
C596 C 0.52048 0.91948 0.91472 0.0
C597 C 0.51867 0.9386 0.85042 0.0
C598 C 0.55189 0.96116 0.08724 0.0
C599 C 0.51097 0.89188 0.89717 0.0
H600 H 0.57116 0.85695 0.14626 0.0
H601 H 0.49605 0.88309 0.23195 0.0
H602 H 0.5706 0.89 0.95032 0.0
H603 H 0.58748 0.90972 0.0256 0.0
H604 H 0.59152 0.87453 0.02622 0.0
H605 H 0.47438 0.91908 0.17219 0.0
H606 H 0.49355 0.94185 0.11061 0.0
H607 H 0.47626 0.91557 0.06042 0.0
H608 H 0.54266 0.99185 0.95258 0.0
H609 H 0.51075 0.9329 0.79057 0.0
H610 H 0.56925 0.94874 0.10031 0.0
H611 H 0.53779 0.95826 0.13927 0.0
H612 H 0.55827 0.98209 0.08646 0.0
H613 H 0.52808 0.87856 0.89268 0.0
H614 H 0.49974 0.89057 0.83795 0.0
H615 H 0.49828 0.88466 0.94874 0.0
C616 C 0.6871 0.52887 0.11189 0.0
C617 C 0.68025 0.53646 0.19332 0.0
C618 C 0.66835 0.52846 0.04612 0.0
C619 C 0.64177 0.53571 0.06114 0.0
C620 C 0.63492 0.54359 0.14342 0.0
C621 C 0.65409 0.54399 0.20777 0.0
C622 C 0.67708 0.52041 0.96001 0.0
C623 C 0.60729 0.55165 0.16535 0.0
C624 C 0.5937 0.55559 0.88461 0.0
C625 C 0.58042 0.53191 0.86717 0.0
C626 C 0.61414 0.55693 0.94497 0.0
C627 C 0.62109 0.53431 0.99204 0.0
C628 C 0.60711 0.51055 0.97591 0.0
C629 C 0.58768 0.50948 0.91272 0.0
C630 C 0.62817 0.58272 0.95907 0.0
C631 C 0.61216 0.48628 0.02717 0.0
H632 H 0.7072 0.52304 0.09954 0.0
H633 H 0.64839 0.54993 0.27008 0.0
H634 H 0.66465 0.50401 0.93659 0.0
H635 H 0.67458 0.53715 0.91655 0.0
H636 H 0.69796 0.51418 0.95854 0.0
H637 H 0.6071 0.57316 0.17687 0.0
H638 H 0.5926 0.54715 0.11642 0.0
H639 H 0.60099 0.54158 0.22335 0.0
H640 H 0.58848 0.57301 0.84973 0.0
H641 H 0.57746 0.49109 0.90063 0.0
H642 H 0.64976 0.57989 0.95538 0.0
H643 H 0.6236 0.59008 0.02255 0.0
H644 H 0.62238 0.59787 0.91297 0.0
H645 H 0.63252 0.47939 0.01631 0.0
H646 H 0.59829 0.47 0.01201 0.0
H647 H 0.61031 0.49098 0.09451 0.0
C648 C 0.99979 0.68693 0.11623 0.0
C649 C 1.01037 0.68096 0.19483 0.0
C650 C 0.99994 0.66839 0.04959 0.0
C651 C 1.01105 0.64299 0.06054 0.0
C652 C 0.0212 0.6368 0.14079 0.0
C653 C 0.02076 0.65569 0.20619 0.0
C654 C 0.98799 0.67599 0.96723 0.0
C655 C 0.03313 0.61028 0.15747 0.0
C656 C 0.9942 0.58618 0.90683 0.0
C657 C 0.01632 0.58527 0.85343 0.0
C658 C 0.99223 0.60452 0.97355 0.0
C659 C 0.01262 0.62323 0.98821 0.0
C660 C 0.03473 0.62279 0.93362 0.0
C661 C 0.03633 0.60402 0.86782 0.0
C662 C 0.96827 0.60367 0.02909 0.0
C663 C 0.05688 0.64232 0.94467 0.0
H664 H 0.99148 0.70624 0.10646 0.0
H665 H 0.02886 0.6507 0.26653 0.0
H666 H 1.00216 0.67254 0.9158 0.0
H667 H 0.97046 0.66349 0.95496 0.0
H668 H 0.98192 0.69692 0.96599 0.0
H669 H 0.03749 0.60731 0.2246 0.0
H670 H 0.01974 0.59433 0.13628 0.0
H671 H 0.05168 0.60844 0.12157 0.0
H672 H 0.9784 0.57209 0.89743 0.0
H673 H 0.05354 0.6039 0.82796 0.0
H674 H 0.95795 0.62279 0.02654 0.0
H675 H 0.97424 0.60052 0.09477 0.0
H676 H 0.95425 0.58784 0.01096 0.0
H677 H 0.04958 0.66243 0.93209 0.0
H678 H 0.07366 0.63833 0.90223 0.0
H679 H 0.06404 0.64202 0.00993 0.0
C680 C 0.07764 0.24732 0.23752 0.0
C681 C 0.05807 0.26014 0.19282 0.0
C682 C 0.07073 0.22741 0.29348 0.0
C683 C 0.04408 0.21953 0.29874 0.0
C684 C 0.0242 0.23368 0.25705 0.0
C685 C 0.03151 0.25475 0.20754 0.0
C686 C 0.09203 0.21338 0.34058 0.0
C687 C 0.99555 0.22517 0.25774 0.0
C688 C 0.01687 0.15241 0.31524 0.0
C689 C 1.00133 0.15608 0.38586 0.0
C690 C 0.03454 0.17198 0.29083 0.0
C691 C 0.0365 0.1951 0.33993 0.0
C692 C 0.02352 0.19691 0.41747 0.0
C693 C 1.00563 0.1773 0.4393 0.0
C694 C 0.04772 0.16955 0.20672 0.0
C695 C 0.02589 0.22107 0.47168 0.0
H696 H 0.09814 0.25157 0.22446 0.0
H697 H 0.01663 0.2647 0.17103 0.0
H698 H 0.08502 0.20707 0.403 0.0
H699 H 0.09795 0.19557 0.30553 0.0
H700 H 0.1097 0.22611 0.3482 0.0
H701 H 0.9834 0.23671 0.21369 0.0
H702 H 0.99359 0.20413 0.24042 0.0
H703 H 0.98724 0.22758 0.32114 0.0
H704 H 0.0139 0.13515 0.27648 0.0
H705 H 0.99419 0.17906 0.49613 0.0
H706 H 0.06761 0.17856 0.20696 0.0
H707 H 0.03579 0.18001 0.1595 0.0
H708 H 0.04936 0.14868 0.18696 0.0
H709 H 0.04638 0.22871 0.47161 0.0
H710 H 0.01972 0.21697 0.53683 0.0
H711 H 0.01305 0.23672 0.44664 0.0
C712 C 0.29484 0.08073 0.2481 0.0
C713 C 0.2848 0.06384 0.1874 0.0
C714 C 0.314 0.07155 0.30325 0.0
C715 C 0.3245 0.04618 0.29041 0.0
C716 C 0.31212 0.02827 0.23532 0.0
C717 C 0.29136 0.03714 0.18745 0.0
C718 C 0.32536 0.08999 0.36747 0.0
C719 C 0.32334 1.00138 0.21621 0.0
C720 C 0.39648 0.03833 0.25942 0.0
C721 C 0.40184 0.01923 0.31887 0.0
C722 C 0.37162 0.04936 0.25467 0.0
C723 C 0.35195 0.04111 0.31196 0.0
C724 C 0.35795 0.0234 0.37668 0.0
C725 C 0.38307 1.01251 0.37937 0.0
C726 C 0.36588 0.06773 0.18301 0.0
C727 C 0.33748 0.01496 0.43966 0.0
H728 H 0.28914 0.10121 0.24876 0.0
H729 H 0.28295 0.02416 0.14064 0.0
H730 H 0.3323 0.079 0.42286 0.0
H731 H 0.3424 0.10072 0.34049 0.0
H732 H 0.31058 0.10468 0.38746 0.0
H733 H 0.31206 0.9908 0.16714 0.0
H734 H 0.34399 1.00324 0.19447 0.0
H735 H 0.32336 0.98907 0.27303 0.0
H736 H 0.41154 0.04392 0.21476 0.0
H737 H 0.38773 0.998 0.42642 0.0
H738 H 0.35716 0.08623 0.20629 0.0
H739 H 0.35149 0.05838 0.1401 0.0
H740 H 0.38381 0.07279 0.1466 0.0
H741 H 0.32868 0.03253 0.46941 0.0
H742 H 0.3458 1.00213 0.48882 0.0
H743 H 0.32126 1.00414 0.40844 0.0
C744 C 0.5008 0.30935 0.14858 0.0
C745 C 0.47827 0.29456 0.16809 0.0
C746 C 0.50779 0.33098 0.19546 0.0
C747 C 0.49395 0.33588 0.27012 0.0
C748 C 0.47241 0.31982 0.29431 0.0
C749 C 0.46413 0.29956 0.24081 0.0
C750 C 0.52994 0.34852 0.1641 0.0
C751 C 0.4579 0.3244 0.37492 0.0
C752 C 0.54518 0.37136 0.38515 0.0
C753 C 0.53942 0.39695 0.36062 0.0
C754 C 0.52757 0.351 0.36832 0.0
C755 C 0.50431 0.35663 0.3239 0.0
C756 C 0.49708 0.38289 0.30753 0.0
C757 C 0.5149 0.40295 0.32655 0.0
C758 C 0.53562 0.32315 0.38751 0.0
C759 C 0.47253 0.38968 0.25972 0.0
H760 H 0.512 0.30499 0.09276 0.0
H761 H 0.44675 0.28796 0.25508 0.0
H762 H 0.52404 0.36946 0.16557 0.0
H763 H 0.54745 0.34633 0.20446 0.0
H764 H 0.53578 0.34372 0.09909 0.0
H765 H 0.44535 0.30727 0.39197 0.0
H766 H 0.47186 0.32843 0.42654 0.0
H767 H 0.44511 0.34184 0.36835 0.0
H768 H 0.56369 0.36722 0.41572 0.0
H769 H 0.51022 0.42316 0.31133 0.0
H770 H 0.5452 0.31452 0.33169 0.0
H771 H 0.51827 0.31076 0.40329 0.0
H772 H 0.54988 0.32248 0.43978 0.0
H773 H 0.47736 0.39073 0.19229 0.0
H774 H 0.46495 0.4092 0.27902 0.0
H775 H 0.4568 0.37474 0.26826 0.0
C776 C 0.24782 0.50439 0.17471 0.0
C777 C 0.25134 0.47754 0.1583 0.0
C778 C 0.22626 0.51312 0.21929 0.0
C779 C 0.2089 0.49441 0.25434 0.0
C780 C 0.21288 0.46719 0.24187 0.0
C781 C 0.2339 0.45899 0.19171 0.0
C782 C 0.22141 0.54242 0.22512 0.0
C783 C 0.19413 0.44705 0.27744 0.0
C784 C 0.17765 0.53015 0.42918 0.0
C785 C 0.15517 0.53945 0.39001 0.0
C786 C 0.1938 0.51217 0.38884 0.0
C787 C 0.18748 0.50414 0.30684 0.0
C788 C 0.16347 0.51176 0.26979 0.0
C789 C 0.14735 0.52934 0.31267 0.0
C790 C 0.21909 0.50413 0.43034 0.0
C791 C 0.15583 0.50396 0.18215 0.0
H792 H 0.2606 0.51886 0.14553 0.0
H793 H 0.23606 0.43842 0.17564 0.0
H794 H 0.20132 0.547 0.20273 0.0
H795 H 0.22281 0.54898 0.29089 0.0
H796 H 0.23567 0.55408 0.18757 0.0
H797 H 0.20169 0.42674 0.27059 0.0
H798 H 0.19044 0.45108 0.34443 0.0
H799 H 0.17499 0.44834 0.24463 0.0
H800 H 0.18299 0.53761 0.49026 0.0
H801 H 0.12945 0.53632 0.2837 0.0
H802 H 0.23549 0.51634 0.40554 0.0
H803 H 0.22358 0.48324 0.41686 0.0
H804 H 0.21823 0.507 0.49893 0.0
H805 H 0.15749 0.52141 0.14103 0.0
H806 H 0.13495 0.49745 0.18085 0.0
H807 H 0.16816 0.48808 0.15585 0.0
C808 C 0.99259 0.78804 0.13538 0.0
C809 C 0.97151 0.79033 0.19128 0.0
C810 C 1.00045 0.80946 0.08761 0.0
C811 C 0.98577 0.8329 0.09262 0.0
C812 C 0.96164 0.8335 0.13618 0.0
C813 C 0.95447 0.81175 0.18464 0.0
C814 C 0.02676 0.80829 0.04343 0.0
C815 C 0.94533 0.85812 0.14001 0.0
C816 C 0.0354 0.88686 0.0859 0.0
C817 C 0.03595 0.89161 1.00052 0.0
C818 C 0.01648 0.86995 0.1194 0.0
C819 C 0.99842 0.85732 0.06488 0.0
C820 C 0.99748 0.8641 0.97976 0.0
C821 C 0.01635 0.88144 0.94837 0.0
C822 C 0.01773 0.86362 0.21132 0.0
C823 C 0.97861 0.85086 0.92029 0.0
H824 H 1.00572 0.77138 0.13934 0.0
H825 H 0.93785 0.81312 0.22677 0.0
H826 H 0.02567 0.81736 0.98081 0.0
H827 H 0.04161 0.81947 0.08005 0.0
H828 H 0.03386 0.78781 0.03643 0.0
H829 H 0.92738 0.8555 0.17875 0.0
H830 H 0.95711 0.87461 0.16619 0.0
H831 H 0.93939 0.86389 0.07619 0.0
H832 H 0.05026 0.89568 0.1257 0.0
H833 H 0.01672 0.88592 0.88234 0.0
H834 H 0.0281 0.8447 0.21996 0.0
H835 H 0.99777 0.86149 0.23844 0.0
H836 H 0.02859 0.87903 0.2467 0.0
H837 H 0.98658 0.83142 0.9021 0.0
H838 H 0.9759 0.86262 0.86271 0.0
H839 H 0.95919 0.84746 0.95 0.0
C840 C 0.74149 1.01193 0.20519 0.0
C841 C 0.75167 0.98667 0.19416 0.0
C842 C 0.72259 0.02145 0.15169 0.0
C843 C 0.71526 1.00584 0.08245 0.0
C844 C 0.72922 0.98271 0.06254 0.0
C845 C 0.74706 0.97275 0.12075 0.0
C846 C 0.70762 0.04574 0.17804 0.0
C847 C 0.72323 0.96735 0.98447 0.0
C848 C 0.6431 1.00953 0.0903 0.0
C849 C 0.63931 0.03198 0.0425 0.0
C850 C 0.66775 0.99805 0.09422 0.0
C851 C 0.68885 1.00974 0.0494 0.0
C852 C 0.68429 0.03052 0.9932 0.0
C853 C 0.65927 0.04157 0.99044 0.0
C854 C 0.67175 0.97577 0.15511 0.0
C855 C 0.70627 0.04317 0.94396 0.0
H856 H 0.74628 0.02305 0.261 0.0
H857 H 0.75614 0.95377 0.11124 0.0
H858 H 0.70411 0.05893 0.1245 0.0
H859 H 0.68819 0.03977 0.20378 0.0
H860 H 0.71815 0.05711 0.22703 0.0
H861 H 0.73804 0.95183 0.97279 0.0
H862 H 0.70356 0.95795 0.98977 0.0
H863 H 0.72267 0.98079 0.9301 0.0
H864 H 0.62701 1.00167 0.12735 0.0
H865 H 0.65573 0.05855 0.95136 0.0
H866 H 0.68211 0.9833 0.21124 0.0
H867 H 0.68399 0.96012 0.12714 0.0
H868 H 0.65281 0.96684 0.1755 0.0
H869 H 0.71451 0.05994 0.97992 0.0
H870 H 0.69886 0.05103 0.88396 0.0
H871 H 0.72241 0.02916 0.93125 0.0
C872 C 0.54155 0.75668 0.16402 0.0
C873 C 0.56741 0.75793 0.19374 0.0
C874 C 0.53315 0.73562 0.11594 0.0
C875 C 0.55168 0.71649 0.09182 0.0
C876 C 0.57858 0.71951 0.11202 0.0
C877 C 0.58615 0.74006 0.16519 0.0
C878 C 0.50392 0.73227 0.1006 0.0
C879 C 0.59873 0.69992 0.08293 0.0
C880 C 0.51348 0.65436 0.07749 0.0
C881 C 0.50424 0.65676 0.99624 0.0
C882 C 0.53222 0.67208 0.10773 0.0
C883 C 0.54168 0.69219 0.05419 0.0
C884 C 0.5346 0.69252 0.96918 0.0
C885 C 0.51556 0.67478 0.94118 0.0
C886 C 0.53907 0.67122 0.19927 0.0
C887 C 0.54433 0.71368 0.91074 0.0
H888 H 0.52692 0.77015 0.18811 0.0
H889 H 0.606 0.741 0.1895 0.0
H890 H 0.4999 0.72813 0.03403 0.0
H891 H 0.49639 0.71532 0.13732 0.0
H892 H 0.49255 0.74992 0.11907 0.0
H893 H 0.61896 0.70559 0.10207 0.0
H894 H 0.59412 0.68018 0.10856 0.0
H895 H 0.59806 0.69825 0.01402 0.0
H896 H 0.505 0.63959 0.1184 0.0
H897 H 0.50861 0.67581 0.87755 0.0
H898 H 0.52654 0.68539 0.23358 0.0
H899 H 0.55987 0.67684 0.2102 0.0
H900 H 0.53554 0.65136 0.22593 0.0
H901 H 0.53148 0.73113 0.91654 0.0
H902 H 0.54368 0.70697 0.84491 0.0
H903 H 0.5647 0.71989 0.92617 0.0
C904 C 0.81408 0.5469 0.24375 0.0
C905 C 0.79524 0.56577 0.22213 0.0
C906 C 0.83027 0.53567 0.18501 0.0
C907 C 0.8277 0.54345 0.10121 0.0
C908 C 0.80876 0.56224 0.07744 0.0
C909 C 0.79237 0.57315 0.13875 0.0
C910 C 0.85025 0.51561 0.21387 0.0
C911 C 0.80582 0.5705 0.98782 0.0
C912 C 0.89223 0.52587 0.01477 0.0
C913 C 0.88708 0.49984 0.99101 0.0
C914 C 0.87184 0.54225 0.03933 0.0
C915 C 0.84597 0.53199 0.04118 0.0
C916 C 0.84042 0.50658 0.00946 0.0
C917 C 0.86126 0.49063 0.98495 0.0
C918 C 0.87845 0.56916 0.07379 0.0
C919 C 0.81316 0.49474 0.01217 0.0
H920 H 0.8158 0.54001 0.30702 0.0
H921 H 0.77726 0.58706 0.12177 0.0
H922 H 0.8495 0.49768 0.17462 0.0
H923 H 0.87033 0.52411 0.20888 0.0
H924 H 0.84712 0.50955 0.27968 0.0
H925 H 0.7903 0.58552 0.97977 0.0
H926 H 0.82475 0.57858 0.96434 0.0
H927 H 0.80089 0.55316 0.94874 0.0
H928 H 0.91235 0.53302 0.01788 0.0
H929 H 0.85745 0.47072 0.96368 0.0
H930 H 0.87959 0.56807 0.14278 0.0
H931 H 0.863 0.58357 0.05775 0.0
H932 H 0.8977 0.57647 0.05024 0.0
H933 H 0.81049 0.48432 0.07236 0.0
H934 H 0.8104 0.48015 0.96129 0.0
H935 H 0.79771 0.50992 1.0073 0.0
C936 C 0.07035 0.22153 0.89326 0.0
C937 C 0.04894 0.23837 0.90882 0.0
C938 C 0.067 0.19532 0.86478 0.0
C939 C 0.0415 0.18514 0.84795 0.0
C940 C 0.01984 0.20256 0.85778 0.0
C941 C 0.02373 0.22862 0.88886 0.0
C942 C 0.09088 0.17809 0.85645 0.0
C943 C 0.99222 0.19314 0.84054 0.0
C944 C 0.03487 0.12143 0.71564 0.0
C945 C 0.03223 0.10155 0.77599 0.0
C946 C 0.038 0.14834 0.73782 0.0
C947 C 0.03767 0.15622 0.82297 0.0
C948 C 0.03456 0.13612 0.88422 0.0
C949 C 0.03231 0.10923 0.86021 0.0
C950 C 0.04179 0.1684 0.66966 0.0
C951 C 0.03378 0.14295 0.97571 0.0
H952 H 0.08992 0.22836 0.90962 0.0
H953 H 1.00682 0.24074 0.90254 0.0
H954 H 0.08846 0.16017 0.89509 0.0
H955 H 0.09306 0.17161 0.79079 0.0
H956 H 0.10924 0.18835 0.87581 0.0
H957 H 0.97821 0.20972 0.83634 0.0
H958 H 0.99139 0.1817 0.78167 0.0
H959 H 0.98575 0.17991 0.89166 0.0
H960 H 0.03477 0.11584 0.65041 0.0
H961 H 0.03005 0.09421 0.90755 0.0
H962 H 0.06089 0.17873 0.67814 0.0
H963 H 0.02615 0.18344 0.67331 0.0
H964 H 0.04144 0.15939 0.60656 0.0
H965 H 0.05376 0.14877 0.9967 0.0
H966 H 0.02697 0.12612 0.01439 0.0
H967 H 0.02062 0.15989 0.98704 0.0
C968 C 0.32765 0.0336 0.96886 0.0
C969 C 0.30781 0.04724 0.92602 0.0
C970 C 0.35339 0.03084 0.93644 0.0
C971 C 0.35998 0.04144 0.85725 0.0
C972 C 0.3397 0.05419 0.81158 0.0
C973 C 0.31412 0.05723 0.84672 0.0
C974 C 0.37398 0.01791 0.98985 0.0
C975 C 0.34514 0.06491 0.72568 0.0
C976 C 0.43322 0.05667 0.80701 0.0
C977 C 0.44189 0.03354 0.76716 0.0
C978 C 0.407 0.0595 0.83664 0.0
C979 C 0.38802 0.03924 0.82338 0.0
C980 C 0.39646 0.01615 0.78176 0.0
C981 C 0.4231 1.01332 0.75735 0.0
C982 C 0.39974 0.08415 0.88338 0.0
C983 C 0.37751 0.99388 0.76423 0.0
H984 H 0.32341 0.02635 0.03095 0.0
H985 H 0.29939 0.06835 0.8135 0.0
H986 H 0.38427 1.00235 0.95436 0.0
H987 H 0.38895 0.03277 0.00844 0.0
H988 H 0.36548 1.00906 0.0472 0.0
H989 H 0.32821 0.076 0.70042 0.0
H990 H 0.36266 0.07802 0.72653 0.0
H991 H 0.3496 0.04839 0.68276 0.0
H992 H 0.44695 0.07276 0.81543 0.0
H993 H 0.4291 0.99475 0.73274 0.0
H994 H 0.39169 0.07895 0.9456 0.0
H995 H 0.38413 0.09477 0.8493 0.0
H996 H 0.41681 0.09762 0.89197 0.0
H997 H 0.3743 0.98234 0.82198 0.0
H998 H 0.38514 0.9804 0.71546 0.0
H999 H 0.35817 1.00146 0.74372 0.0
C1000 C 0.4677 0.33126 0.90203 0.0
C1001 C 0.48723 0.3116 0.90783 0.0
C1002 C 0.4734 0.35757 0.87979 0.0
C1003 C 0.49842 0.36456 0.84733 0.0
C1004 C 0.51739 0.34401 0.84075 0.0
C1005 C 0.5121 0.31842 0.87451 0.0
C1006 C 0.45228 0.37778 0.89501 0.0
C1007 C 0.54355 0.34881 0.79896 0.0
C1008 C 0.49507 0.43071 0.72686 0.0
C1009 C 0.50975 0.44805 0.777 0.0
C1010 C 0.49261 0.40351 0.74615 0.0
C1011 C 0.50403 0.39305 0.82006 0.0
C1012 C 0.5186 0.41077 0.87153 0.0
C1013 C 0.52176 0.43764 0.84848 0.0
C1014 C 0.47769 0.38599 0.68662 0.0
C1015 C 0.52971 0.40182 0.95369 0.0
H1016 H 0.44765 0.32671 0.91957 0.0
H1017 H 0.52767 0.30401 0.87577 0.0
H1018 H 0.46023 0.39804 0.90141 0.0
H1019 H 0.43801 0.37728 0.8429 0.0
H1020 H 0.44115 0.37303 0.95278 0.0
H1021 H 0.55052 0.33066 0.76759 0.0
H1022 H 0.54252 0.36479 0.75209 0.0
H1023 H 0.5584 0.35429 0.84651 0.0
H1024 H 0.48594 0.43832 0.67098 0.0
H1025 H 0.53308 0.45078 0.88799 0.0
H1026 H 0.45766 0.38226 0.71129 0.0
H1027 H 0.48762 0.36675 0.67951 0.0
H1028 H 0.47568 0.39516 0.6242 0.0
H1029 H 0.51329 0.39698 0.9968 0.0
H1030 H 0.54233 0.4171 0.98324 0.0
H1031 H 0.54146 0.38375 0.94555 0.0
C1032 C 0.22548 0.48843 0.83955 0.0
C1033 C 0.23474 0.50316 0.908 0.0
C1034 C 0.19941 0.49109 0.80865 0.0
C1035 C 0.18142 0.50856 0.8477 0.0
C1036 C 0.19079 0.52363 0.91641 0.0
C1037 C 0.21705 0.52086 0.94513 0.0
C1038 C 0.1908 0.47434 0.73592 0.0
C1039 C 0.17261 0.54195 0.96229 0.0
C1040 C 0.11897 0.5318 0.73104 0.0
C1041 C 0.09863 0.5164 0.76606 0.0
C1042 C 0.1456 0.52936 0.75644 0.0
C1043 C 0.15282 0.51079 0.8183 0.0
C1044 C 0.13241 0.49487 0.85317 0.0
C1045 C 0.10585 0.49794 0.82724 0.0
C1046 C 0.16612 0.54689 0.71685 0.0
C1047 C 0.13861 0.47406 0.91695 0.0
H1048 H 0.23833 0.4738 0.8125 0.0
H1049 H 0.22327 0.53137 1.00059 0.0
H1050 H 0.17342 0.46228 0.75362 0.0
H1051 H 0.18481 0.48711 0.6834 0.0
H1052 H 0.20661 0.46105 0.71396 0.0
H1053 H 0.18222 0.55136 0.01693 0.0
H1054 H 0.16575 0.55753 0.91937 0.0
H1055 H 0.15495 0.53101 0.98414 0.0
H1056 H 0.11407 0.54615 0.6838 0.0
H1057 H 0.09072 0.48552 0.85443 0.0
H1058 H 0.18117 0.53473 0.68528 0.0
H1059 H 0.17632 0.55859 0.76563 0.0
H1060 H 0.15756 0.56057 0.67047 0.0
H1061 H 0.14833 0.45729 0.88543 0.0
H1062 H 0.12061 0.46655 0.94855 0.0
H1063 H 0.15239 0.48171 0.96485 0.0
C1064 C 0.98354 0.82166 0.51314 0.0
C1065 C 1.00348 0.81026 0.46406 0.0
C1066 C 0.98578 0.84752 0.54607 0.0
C1067 C 1.00839 0.8632 0.52882 0.0
C1068 C 0.02904 0.85144 0.48209 0.0
C1069 C 0.02637 0.82538 0.45061 0.0
C1070 C 0.96305 0.85851 0.59515 0.0
C1071 C 0.05355 0.86698 0.4616 0.0
C1072 C 1.00122 0.9391 0.52947 0.0
C1073 C 0.0139 0.94678 0.60345 0.0
C1074 C 0.99952 0.91234 0.50433 0.0
C1075 C 1.00992 0.8921 0.55559 0.0
C1076 C 0.02195 0.89975 0.63196 0.0
C1077 C 0.02421 0.92675 0.65392 0.0
C1078 C 0.98678 0.9058 0.42196 0.0
C1079 C 0.03186 0.87935 0.69202 0.0
H1080 H 0.96529 0.81084 0.52153 0.0
H1081 H 0.04151 0.8175 0.41026 0.0
H1082 H 0.97008 0.87056 0.64844 0.0
H1083 H 0.95125 0.8714 0.5542 0.0
H1084 H 0.94994 0.84268 0.61919 0.0
H1085 H 0.06761 0.85557 0.42311 0.0
H1086 H 0.04826 0.88515 0.42746 0.0
H1087 H 0.06351 0.8731 0.52004 0.0
H1088 H 0.99327 0.95408 0.48964 0.0
H1089 H 0.03367 0.93219 0.71197 0.0
H1090 H 0.96891 0.89365 0.43257 0.0
H1091 H 1.0004 0.89404 0.38301 0.0
H1092 H 0.98113 0.92368 0.38675 0.0
H1093 H 0.01486 0.86839 0.71854 0.0
H1094 H 0.04321 0.88825 0.74414 0.0
H1095 H 0.04447 0.86489 0.65942 0.0
C1096 C 0.72211 0.97692 0.50829 0.0
C1097 C 0.73606 0.99707 0.4667 0.0
C1098 C 0.69645 0.98065 0.54142 0.0
C1099 C 0.68354 1.0052 0.53281 0.0
C1100 C 0.69796 0.02603 0.49419 0.0
C1101 C 0.72371 0.02174 0.4617 0.0
C1102 C 0.68245 0.95752 0.58047 0.0
C1103 C 0.68572 0.05275 0.48446 0.0
C1104 C 0.60725 1.00756 0.52348 0.0
C1105 C 0.59959 1.01295 0.60631 0.0
C1106 C 0.634 1.00433 0.49987 0.0
C1107 C 0.65458 1.00844 0.55852 0.0
C1108 C 0.64713 0.01531 0.64135 0.0
C1109 C 0.62008 0.01689 0.66434 0.0
C1110 C 0.6402 0.99616 0.41154 0.0
C1111 C 0.66774 0.02084 0.7066 0.0
H1112 H 0.73073 0.9575 0.51035 0.0
H1113 H 0.73352 0.03731 0.42738 0.0
H1114 H 0.67248 0.9634 0.63901 0.0
H1115 H 0.66711 0.95017 0.53704 0.0
H1116 H 0.69611 0.94117 0.59435 0.0
H1117 H 0.69905 0.06691 0.45255 0.0
H1118 H 0.66722 0.05115 0.44826 0.0
H1119 H 0.68053 0.06071 0.54674 0.0
H1120 H 0.59237 1.00605 0.47592 0.0
H1121 H 0.61503 0.02166 0.72819 0.0
H1122 H 0.65174 0.97773 0.41194 0.0
H1123 H 0.65246 1.01141 0.38065 0.0
H1124 H 0.62219 0.99288 0.37376 0.0
H1125 H 0.67643 1.00204 0.72748 0.0
H1126 H 0.65938 0.03097 0.76192 0.0
H1127 H 0.68387 0.03315 0.6806 0.0
C1128 C 0.56289 0.72631 0.51337 0.0
C1129 C 0.54326 0.7381 0.4643 0.0
C1130 C 0.56013 0.70046 0.54599 0.0
C1131 C 0.53738 0.68507 0.52802 0.0
C1132 C 0.51705 0.69721 0.48108 0.0
C1133 C 0.52019 0.72331 0.45021 0.0
C1134 C 0.58238 0.68923 0.59629 0.0
C1135 C 0.49231 0.68211 0.46018 0.0
C1136 C 0.54379 0.60887 0.5316 0.0
C1137 C 0.53064 0.60159 0.60527 0.0
C1138 C 0.5458 0.63556 0.50547 0.0
C1139 C 0.53524 0.65618 0.5553 0.0
C1140 C 0.52257 0.64891 0.63103 0.0
C1141 C 0.52011 0.62202 0.65411 0.0
C1142 C 0.55899 0.64163 0.42343 0.0
C1143 C 0.5122 0.66958 0.68962 0.0
H1144 H 0.58123 0.73689 0.52259 0.0
H1145 H 0.50522 0.7315 0.4101 0.0
H1146 H 0.57479 0.67777 0.65007 0.0
H1147 H 0.59396 0.67573 0.5565 0.0
H1148 H 0.59581 0.70487 0.61981 0.0
H1149 H 0.47876 0.69359 0.42033 0.0
H1150 H 0.49735 0.66357 0.42745 0.0
H1151 H 0.48185 0.67666 0.51843 0.0
H1152 H 0.55183 0.59363 0.49272 0.0
H1153 H 0.51018 0.61698 0.71182 0.0
H1154 H 0.57747 0.65275 0.43471 0.0
H1155 H 0.54612 0.65422 0.38485 0.0
H1156 H 0.56373 0.62355 0.38765 0.0
H1157 H 0.52903 0.67911 0.72188 0.0
H1158 H 0.49881 0.66102 0.73728 0.0
H1159 H 0.50154 0.68511 0.65537 0.0
C1160 C 0.81943 0.56935 0.52296 0.0
C1161 C 0.80509 0.54937 0.48165 0.0
C1162 C 0.84565 0.56578 0.5508 0.0
C1163 C 0.85867 0.5415 0.53767 0.0
C1164 C 0.84384 0.52068 0.5006 0.0
C1165 C 0.81746 0.52477 0.47367 0.0
C1166 C 0.85991 0.58878 0.58981 0.0
C1167 C 0.85634 0.49431 0.48566 0.0
C1168 C 0.93502 0.54383 0.52392 0.0
C1169 C 0.94299 0.53395 0.60163 0.0
C1170 C 0.908 0.54564 0.50173 0.0
C1171 C 0.88789 0.53837 0.55944 0.0
C1172 C 0.89596 0.52885 0.63869 0.0
C1173 C 0.92311 0.52638 0.658 0.0
C1174 C 0.901 0.55534 0.41589 0.0
C1175 C 0.8759 0.5221 0.70473 0.0
H1176 H 0.81063 0.58861 0.52867 0.0
H1177 H 0.80725 0.50924 0.44033 0.0
H1178 H 0.87153 0.58243 0.64454 0.0
H1179 H 0.87382 0.59733 0.54374 0.0
H1180 H 0.84615 0.60444 0.60976 0.0
H1181 H 0.8429 0.48039 0.45321 0.0
H1182 H 0.87447 0.49675 0.44775 0.0
H1183 H 0.86222 0.48556 0.54605 0.0
H1184 H 0.95001 0.54969 0.47948 0.0
H1185 H 0.92879 0.51919 0.71869 0.0
H1186 H 0.89025 0.57417 0.42091 0.0
H1187 H 0.88773 0.54101 0.38459 0.0
H1188 H 0.91864 0.55849 0.37612 0.0
H1189 H 0.86632 0.54041 0.72651 0.0
H1190 H 0.88487 0.51224 0.75937 0.0
H1191 H 0.86027 0.50917 0.67885 0.0
loop_
_geom_bond_atom_site_label_1
_geom_bond_atom_site_label_2
_geom_bond_distance
_geom_bond_site_symmetry_2
_ccdc_geom_bond_type
H0 C3 0.929 . S
H1 C6 0.929 . S
H2 C8 0.930 . S
C3 H0 0.929 . S
C3 C4 1.398 . S
C3 C5 1.396 . S
C4 C3 1.398 . S
C4 C8 1.407 . S
C5 C3 1.396 . S
C5 C6 1.394 . S
C6 H1 0.929 . S
C6 C5 1.394 . S
C6 C7 1.382 . S
C7 C6 1.382 . S
C7 C8 1.392 . S
C7 N9 1.420 . S
C8 H2 0.930 . S
C8 C4 1.407 . S
C8 C7 1.392 . S
N9 C7 1.420 . S
N9 C10 1.244 . S
C10 N9 1.244 . S
H11 C14 0.929 . S
H12 C17 0.929 . S
H13 C19 0.930 . S
C14 H11 0.929 . S
C14 C15 1.398 . S
C14 C16 1.396 . S
C15 C14 1.398 . S
C15 C19 1.407 . S
C16 C14 1.396 . S
C16 C17 1.394 . S
C17 H12 0.929 . S
C17 C16 1.394 . S
C17 C18 1.382 . S
C18 C17 1.382 . S
C18 C19 1.392 . S
C18 N20 1.420 . S
C19 H13 0.930 . S
C19 C15 1.407 . S
C19 C18 1.392 . S
N20 C18 1.420 . S
N20 C21 1.244 . S
C21 N20 1.244 . S
H22 C25 0.929 . S
H23 C28 0.929 . S
H24 C30 0.930 . S
C25 H22 0.929 . S
C25 C26 1.398 . S
C25 C27 1.396 . S
C26 C25 1.398 . S
C26 C30 1.407 . S
C27 C25 1.396 . S
C27 C28 1.394 . S
C28 H23 0.929 . S
C28 C27 1.394 . S
C28 C29 1.382 . S
C29 C28 1.382 . S
C29 C30 1.392 . S
C29 N31 1.420 . S
C30 H24 0.930 . S
C30 C26 1.407 . S
C30 C29 1.392 . S
N31 C29 1.420 . S
N31 C32 1.244 . S
C32 N31 1.244 . S
H33 C36 0.929 . S
H34 C39 0.929 . S
H35 C41 0.930 . S
C36 H33 0.929 . S
C36 C37 1.398 . S
C36 C38 1.396 . S
C37 C36 1.398 . S
C37 C41 1.407 . S
C38 C36 1.396 . S
C38 C39 1.394 . S
C39 H34 0.929 . S
C39 C38 1.394 . S
C39 C40 1.382 . S
C40 C39 1.382 . S
C40 C41 1.392 . S
C40 N42 1.420 . S
C41 H35 0.930 . S
C41 C37 1.407 . S
C41 C40 1.392 . S
N42 C40 1.420 . S
N42 C43 1.244 . S
C43 N42 1.244 . S
H44 C47 0.929 . S
H45 C50 0.929 . S
H46 C52 0.930 . S
C47 H44 0.929 . S
C47 C48 1.398 1_554 S
C47 C49 1.396 . S
C48 C47 1.398 1_556 S
C48 C52 1.407 . S
C49 C47 1.396 . S
C49 C50 1.394 . S
C50 H45 0.929 . S
C50 C49 1.394 . S
C50 C51 1.382 . S
C51 C50 1.382 . S
C51 C52 1.392 1_554 S
C51 N53 1.420 . S
C52 H46 0.930 . S
C52 C48 1.407 . S
C52 C51 1.392 1_556 S
N53 C51 1.420 . S
N53 C54 1.244 . S
C54 N53 1.244 . S
H55 C58 0.929 . S
H56 C61 0.929 . S
H57 C63 0.930 . S
C58 H55 0.929 . S
C58 C59 1.398 1_554 S
C58 C60 1.396 . S
C59 C58 1.398 1_556 S
C59 C63 1.407 . S
C60 C58 1.396 . S
C60 C61 1.394 . S
C61 H56 0.929 . S
C61 C60 1.394 . S
C61 C62 1.382 . S
C62 C61 1.382 . S
C62 C63 1.392 1_554 S
C62 N64 1.420 . S
C63 H57 0.930 . S
C63 C59 1.407 . S
C63 C62 1.392 1_556 S
N64 C62 1.420 . S
N64 C65 1.244 . S
C65 N64 1.244 . S
H66 C69 0.929 . S
H67 C72 0.929 . S
H68 C74 0.930 . S
C69 H66 0.929 . S
C69 C70 1.398 1_554 S
C69 C71 1.396 . S
C70 C69 1.398 1_556 S
C70 C74 1.407 . S
C71 C69 1.396 . S
C71 C72 1.394 . S
C72 H67 0.929 . S
C72 C71 1.394 . S
C72 C73 1.382 . S
C73 C72 1.382 . S
C73 C74 1.392 1_554 S
C73 N75 1.420 . S
C74 H68 0.930 . S
C74 C70 1.407 . S
C74 C73 1.392 1_556 S
N75 C73 1.420 . S
N75 C76 1.244 . S
C76 N75 1.244 . S
H77 C80 0.929 . S
H78 C83 0.929 . S
H79 C85 0.930 . S
C80 H77 0.929 . S
C80 C81 1.398 1_554 S
C80 C82 1.396 . S
C81 C80 1.398 1_556 S
C81 C85 1.407 . S
C82 C80 1.396 . S
C82 C83 1.394 . S
C83 H78 0.929 . S
C83 C82 1.394 . S
C83 C84 1.382 . S
C84 C83 1.382 . S
C84 C85 1.392 1_554 S
C84 N86 1.420 . S
C85 H79 0.930 . S
C85 C81 1.407 . S
C85 C84 1.392 1_556 S
N86 C84 1.420 . S
N86 C87 1.244 . S
C87 N86 1.244 . S
C88 C90 1.422 . S
C88 C92 1.415 . S
C88 N94 1.369 . S
C89 C90 1.421 1_554 S
C89 C91 1.417 . S
C89 C101 1.422 . S
C90 C88 1.422 . S
C90 C89 1.421 1_556 S
C90 N100 1.359 . S
C91 C89 1.417 . S
C91 C93 1.330 . S
C91 H110 0.930 . S
C92 C88 1.415 . S
C92 C93 1.435 1_556 S
C92 C96 1.413 . S
C93 C91 1.330 . S
C93 C92 1.435 1_554 S
C93 H115 0.930 . S
N94 C88 1.369 . S
N94 C95 1.338 . S
N94 Gd99 2.622 1_545 S
C95 N94 1.338 . S
C95 C97 1.378 . S
C95 H107 0.929 1_545 S
C96 C92 1.413 . S
C96 C97 1.348 . S
C96 H112 0.931 . S
C97 C95 1.378 . S
C97 C96 1.348 . S
C97 H113 0.930 . S
Gd98 N118 2.622 . S
Gd98 N125 2.570 . S
Gd98 O132 2.353 1_655 S
Gd98 O133 2.468 1_655 S
Gd98 O134 2.427 . S
Gd98 O136 2.388 . S
Gd98 O137 2.386 1_545 S
Gd98 O141 2.307 1_655 S
Gd98 C151 2.805 . S
Gd99 N94 2.622 1_565 S
Gd99 N100 2.570 1_565 S
Gd99 O131 2.386 1_565 S
Gd99 O135 2.307 1_465 S
Gd99 O138 2.353 . S
Gd99 O139 2.468 . S
Gd99 O140 2.427 . S
Gd99 O142 2.388 . S
Gd99 C163 2.805 . S
N100 C90 1.359 . S
N100 Gd99 2.570 1_545 S
N100 C102 1.343 . S
C101 C89 1.422 . S
C101 C103 1.321 . S
C101 H109 0.931 . S
C102 N100 1.343 . S
C102 C103 1.390 1_556 S
C102 H104 0.931 1_455 S
C103 C101 1.321 . S
C103 C102 1.390 1_554 S
C103 H105 0.922 1_455 S
H104 C102 0.931 1_655 S
H105 C103 0.922 1_655 S
H106 C129 0.931 . S
H107 C95 0.929 1_565 S
H108 C130 0.930 . S
H109 C101 0.931 . S
H110 C91 0.930 . S
H111 C120 0.929 . S
H112 C96 0.931 . S
H113 C97 0.930 . S
H114 C152 0.930 . S
H115 C93 0.930 . S
H116 C121 0.931 . S
H117 C122 0.930 . S
N118 Gd98 2.622 . S
N118 C119 1.369 . S
N118 C120 1.338 . S
C119 N118 1.369 . S
C119 C123 1.415 1_545 S
C119 C126 1.427 . S
C120 H111 0.929 . S
C120 N118 1.338 . S
C120 C122 1.378 . S
C121 H116 0.931 . S
C121 C122 1.348 1_565 S
C121 C123 1.413 . S
C122 H117 0.930 . S
C122 C120 1.378 . S
C122 C121 1.348 1_545 S
C123 C119 1.415 1_565 S
C123 C121 1.413 . S
C123 C153 1.437 . S
H124 C153 0.929 . S
N125 Gd98 2.570 . S
N125 C126 1.375 . S
N125 C129 1.343 1_655 S
C126 C119 1.427 . S
C126 N125 1.375 . S
C126 C128 1.402 1_545 S
C127 C128 1.422 . S
C127 C130 1.321 1_655 S
C127 H154 0.931 . S
C128 C126 1.402 1_565 S
C128 C127 1.422 . S
C128 C152 1.417 . S
C129 H106 0.931 . S
C129 N125 1.343 1_455 S
C129 C130 1.390 1_545 S
C130 H108 0.930 . S
C130 C127 1.321 1_455 S
C130 C129 1.390 1_565 S
O131 Gd99 2.386 1_545 S
O131 C143 1.265 . S
O132 Gd98 2.353 1_455 S
O132 C143 1.242 . S
O133 Gd98 2.468 1_455 S
O133 C151 1.263 1_455 S
O134 Gd98 2.427 . S
O134 C151 1.252 . S
O135 Gd99 2.307 1_645 S
O135 C144 1.261 . S
O136 Gd98 2.388 . S
O136 C144 1.252 . S
O137 Gd98 2.386 1_565 S
O137 C155 1.265 . S
O138 Gd99 2.353 . S
O138 C155 1.242 1_455 S
O139 Gd99 2.468 . S
O139 C163 1.263 . S
O140 Gd99 2.427 . S
O140 C163 1.252 . S
O141 Gd98 2.307 1_455 S
O141 C156 1.261 . S
O142 Gd99 2.388 . S
O142 C156 1.252 1_565 S
C143 O131 1.265 . S
C143 O132 1.242 . S
C144 O135 1.261 . S
C144 O136 1.252 . S
C145 C148 1.394 . S
C145 C150 1.370 . S
C145 C151 1.500 . S
C146 C149 1.383 . S
C146 C150 1.395 . S
C147 C148 1.396 . S
C147 C149 1.365 . S
C147 H164 0.929 . S
C148 C145 1.394 . S
C148 C147 1.396 . S
C148 H165 0.930 . S
C149 C146 1.383 . S
C149 C147 1.365 . S
C149 H166 0.931 . S
C150 C145 1.370 . S
C150 C146 1.395 . S
C150 H167 0.930 1_655 S
C151 Gd98 2.805 . S
C151 O133 1.263 1_655 S
C151 O134 1.252 . S
C151 C145 1.500 . S
C152 H114 0.930 . S
C152 C128 1.417 . S
C152 C153 1.329 . S
C153 C123 1.437 . S
C153 H124 0.929 . S
C153 C152 1.329 . S
H154 C127 0.931 . S
C155 O137 1.265 . S
C155 O138 1.242 1_655 S
C156 O141 1.261 . S
C156 O142 1.252 1_545 S
C157 C160 1.394 . S
C157 C162 1.370 . S
C157 C163 1.500 . S
C158 C161 1.383 . S
C158 C162 1.395 . S
C159 C160 1.396 . S
C159 C161 1.365 . S
C159 H168 0.929 . S
C160 C157 1.394 . S
C160 C159 1.396 . S
C160 H169 0.930 . S
C161 C158 1.383 . S
C161 C159 1.365 . S
C161 H170 0.925 1_556 S
C162 C157 1.370 . S
C162 C158 1.395 . S
C162 H171 0.930 . S
C163 Gd99 2.805 . S
C163 O139 1.263 . S
C163 O140 1.252 . S
C163 C157 1.500 . S
H164 C147 0.929 . S
H165 C148 0.930 . S
H166 C149 0.931 . S
H167 C150 0.930 1_455 S
H168 C159 0.929 . S
H169 C160 0.930 . S
H170 C161 0.925 1_554 S
H171 C162 0.930 . S
C172 C174 1.422 . S
C172 C176 1.415 . S
C172 N178 1.369 . S
C173 C174 1.421 . S
C173 C175 1.417 . S
C173 C185 1.422 . S
C174 C172 1.422 . S
C174 C173 1.421 . S
C174 N184 1.359 . S
C175 C173 1.417 . S
C175 C177 1.329 . S
C175 H194 0.930 . S
C176 C172 1.415 . S
C176 C177 1.437 . S
C176 C180 1.413 . S
C177 C175 1.329 . S
C177 C176 1.437 . S
C177 H199 0.929 . S
N178 C172 1.369 . S
N178 C179 1.338 . S
N178 Gd183 2.622 . S
C179 N178 1.338 . S
C179 C181 1.378 . S
C179 H191 0.929 . S
C180 C176 1.413 . S
C180 C181 1.348 . S
C180 H196 0.931 . S
C181 C179 1.378 . S
C181 C180 1.348 . S
C181 H197 0.930 . S
Gd182 N202 2.622 . S
Gd182 N209 2.570 . S
Gd182 O216 2.353 1_545 S
Gd182 O217 2.468 . S
Gd182 O218 2.427 . S
Gd182 O220 2.388 . S
Gd182 O221 2.386 . S
Gd182 O225 2.307 . S
Gd182 C235 2.805 . S
Gd183 N178 2.622 . S
Gd183 N184 2.570 . S
Gd183 O215 2.386 . S
Gd183 O219 2.307 1_565 S
Gd183 O222 2.353 1_565 S
Gd183 O223 2.468 . S
Gd183 O224 2.427 . S
Gd183 O226 2.388 . S
Gd183 C247 2.805 . S
N184 C174 1.359 . S
N184 Gd183 2.570 . S
N184 C186 1.343 . S
C185 C173 1.422 . S
C185 C187 1.321 . S
C185 H193 0.931 . S
C186 N184 1.343 . S
C186 C187 1.390 . S
C186 H188 0.931 . S
C187 C185 1.321 . S
C187 C186 1.390 . S
C187 H189 0.930 . S
H188 C186 0.931 . S
H189 C187 0.930 . S
H190 C213 0.931 . S
H191 C179 0.929 . S
H192 C214 0.930 . S
H193 C185 0.931 . S
H194 C175 0.930 . S
H195 C204 0.929 . S
H196 C180 0.931 . S
H197 C181 0.930 . S
H198 C236 0.930 . S
H199 C177 0.929 . S
H200 C205 0.931 . S
H201 C206 0.930 . S
N202 Gd182 2.622 . S
N202 C203 1.369 . S
N202 C204 1.338 . S
C203 N202 1.369 . S
C203 C207 1.415 . S
C203 C210 1.422 . S
C204 H195 0.929 . S
C204 N202 1.338 . S
C204 C206 1.378 . S
C205 H200 0.931 . S
C205 C206 1.348 . S
C205 C207 1.413 . S
C206 H201 0.930 . S
C206 C204 1.378 . S
C206 C205 1.348 . S
C207 C203 1.415 . S
C207 C205 1.413 . S
C207 C237 1.437 . S
H208 C237 0.929 . S
N209 Gd182 2.570 . S
N209 C210 1.359 . S
N209 C213 1.343 . S
C210 C203 1.422 . S
C210 N209 1.359 . S
C210 C212 1.421 . S
C211 C212 1.422 . S
C211 C214 1.321 . S
C211 H238 0.931 . S
C212 C210 1.421 . S
C212 C211 1.422 . S
C212 C236 1.417 . S
C213 H190 0.931 . S
C213 N209 1.343 . S
C213 C214 1.390 . S
C214 H192 0.930 . S
C214 C211 1.321 . S
C214 C213 1.390 . S
O215 Gd183 2.386 . S
O215 C227 1.265 . S
O216 Gd182 2.353 1_565 S
O216 C227 1.242 . S
O217 Gd182 2.468 . S
O217 C235 1.263 . S
O218 Gd182 2.427 . S
O218 C235 1.252 . S
O219 Gd183 2.307 1_545 S
O219 C228 1.261 . S
O220 Gd182 2.388 . S
O220 C228 1.252 . S
O221 Gd182 2.386 . S
O221 C239 1.265 . S
O222 Gd183 2.353 1_545 S
O222 C239 1.242 . S
O223 Gd183 2.468 . S
O223 C247 1.263 . S
O224 Gd183 2.427 . S
O224 C247 1.252 . S
O225 Gd182 2.307 . S
O225 C240 1.261 . S
O226 Gd183 2.388 . S
O226 C240 1.252 1_565 S
C227 O215 1.265 . S
C227 O216 1.242 . S
C228 O219 1.261 . S
C228 O220 1.252 . S
C229 C232 1.394 1_556 S
C229 C234 1.370 . S
C229 C235 1.500 . S
C230 C233 1.383 . S
C230 C234 1.395 1_554 S
C231 C232 1.396 . S
C231 C233 1.365 . S
C231 H248 0.929 . S
C232 C229 1.394 1_554 S
C232 C231 1.396 . S
C232 H249 0.930 . S
C233 C230 1.383 . S
C233 C231 1.365 . S
C233 H250 0.931 . S
C234 C229 1.370 . S
C234 C230 1.395 1_556 S
C234 H251 0.930 . S
C235 Gd182 2.805 . S
C235 O217 1.263 . S
C235 O218 1.252 . S
C235 C229 1.500 . S
C236 H198 0.930 . S
C236 C212 1.417 . S
C236 C237 1.329 . S
C237 C207 1.437 . S
C237 H208 0.929 . S
C237 C236 1.329 . S
H238 C211 0.931 . S
C239 O221 1.265 . S
C239 O222 1.242 . S
C240 O225 1.261 . S
C240 O226 1.252 1_545 S
C241 C244 1.394 . S
C241 C246 1.370 1_565 S
C241 C247 1.500 . S
C242 C245 1.383 1_545 S
C242 C246 1.395 . S
C243 C244 1.396 . S
C243 C245 1.365 . S
C243 H252 0.929 . S
C244 C241 1.394 . S
C244 C243 1.396 . S
C244 H253 0.930 . S
C245 C242 1.383 1_565 S
C245 C243 1.365 . S
C245 H254 0.931 . S
C246 C241 1.370 1_545 S
C246 C242 1.395 . S
C246 H255 0.930 . S
C247 Gd183 2.805 . S
C247 O223 1.263 . S
C247 O224 1.252 . S
C247 C241 1.500 . S
H248 C231 0.929 . S
H249 C232 0.930 . S
H250 C233 0.931 . S
H251 C234 0.930 . S
H252 C243 0.929 . S
H253 C244 0.930 . S
H254 C245 0.931 . S
H255 C246 0.930 . S
C256 C258 1.422 . S
C256 C260 1.415 . S
C256 N262 1.369 . S
C257 C258 1.421 1_554 S
C257 C259 1.417 . S
C257 C269 1.422 . S
C258 C256 1.422 . S
C258 C257 1.421 1_556 S
C258 N268 1.359 . S
C259 C257 1.417 . S
C259 C261 1.328 . S
C259 H278 0.930 . S
C260 C256 1.415 . S
C260 C261 1.438 1_556 S
C260 C264 1.413 . S
C261 C259 1.328 . S
C261 C260 1.438 1_554 S
C261 H283 0.929 . S
N262 C256 1.369 . S
N262 C263 1.338 . S
N262 Gd267 2.622 . S
C263 N262 1.338 . S
C263 C265 1.378 . S
C263 H275 0.929 . S
C264 C260 1.413 . S
C264 C265 1.348 . S
C264 H280 0.931 . S
C265 C263 1.378 . S
C265 C264 1.348 . S
C265 H281 0.930 . S
Gd266 N286 2.622 . S
Gd266 N293 2.570 . S
Gd266 O300 2.353 . S
Gd266 O301 2.468 . S
Gd266 O302 2.427 . S
Gd266 O304 2.388 . S
Gd266 O305 2.386 . S
Gd266 O309 2.307 . S
Gd266 C319 2.805 . S
Gd267 N262 2.622 . S
Gd267 N268 2.570 . S
Gd267 O299 2.386 . S
Gd267 O303 2.307 . S
Gd267 O306 2.353 . S
Gd267 O307 2.468 . S
Gd267 O308 2.427 . S
Gd267 O310 2.388 . S
Gd267 C331 2.805 . S
N268 C258 1.359 . S
N268 Gd267 2.570 . S
N268 C270 1.343 . S
C269 C257 1.422 . S
C269 C271 1.321 . S
C269 H277 0.931 . S
C270 N268 1.343 . S
C270 C271 1.390 1_556 S
C270 H272 0.931 . S
C271 C269 1.321 . S
C271 C270 1.390 1_554 S
C271 H273 0.930 . S
H272 C270 0.931 . S
H273 C271 0.930 . S
H274 C297 0.931 . S
H275 C263 0.929 . S
H276 C298 0.930 . S
H277 C269 0.931 . S
H278 C259 0.930 . S
H279 C288 0.929 . S
H280 C264 0.931 . S
H281 C265 0.930 . S
H282 C320 0.930 . S
H283 C261 0.929 . S
H284 C289 0.931 . S
H285 C290 0.930 . S
N286 Gd266 2.622 . S
N286 C287 1.369 . S
N286 C288 1.338 . S
C287 N286 1.369 . S
C287 C291 1.415 . S
C287 C294 1.422 . S
C288 H279 0.929 . S
C288 N286 1.338 . S
C288 C290 1.378 . S
C289 H284 0.931 . S
C289 C290 1.348 . S
C289 C291 1.413 . S
C290 H285 0.930 . S
C290 C288 1.378 . S
C290 C289 1.348 . S
C291 C287 1.415 . S
C291 C289 1.413 . S
C291 C321 1.437 . S
H292 C321 0.929 . S
N293 Gd266 2.570 . S
N293 C294 1.359 . S
N293 C297 1.343 . S
C294 C287 1.422 . S
C294 N293 1.359 . S
C294 C296 1.421 . S
C295 C296 1.422 . S
C295 C298 1.321 . S
C295 H322 0.931 . S
C296 C294 1.421 . S
C296 C295 1.422 . S
C296 C320 1.417 . S
C297 H274 0.931 . S
C297 N293 1.343 . S
C297 C298 1.390 . S
C298 H276 0.930 . S
C298 C295 1.321 . S
C298 C297 1.390 . S
O299 Gd267 2.386 . S
O299 C311 1.265 . S
O300 Gd266 2.353 . S
O300 C311 1.242 . S
O301 Gd266 2.468 . S
O301 C319 1.263 . S
O302 Gd266 2.427 . S
O302 C319 1.252 . S
O303 Gd267 2.307 . S
O303 C312 1.261 . S
O304 Gd266 2.388 . S
O304 C312 1.252 . S
O305 Gd266 2.386 . S
O305 C323 1.265 . S
O306 Gd267 2.353 . S
O306 C323 1.242 . S
O307 Gd267 2.468 . S
O307 C331 1.263 . S
O308 Gd267 2.427 . S
O308 C331 1.252 . S
O309 Gd266 2.307 . S
O309 C324 1.261 . S
O310 Gd267 2.388 . S
O310 C324 1.252 . S
C311 O299 1.265 . S
C311 O300 1.242 . S
C312 O303 1.261 . S
C312 O304 1.252 . S
C313 C316 1.394 . S
C313 C318 1.370 . S
C313 C319 1.500 . S
C314 C317 1.383 . S
C314 C318 1.395 . S
C315 C316 1.396 . S
C315 C317 1.365 . S
C315 H332 0.929 . S
C316 C313 1.394 . S
C316 C315 1.396 . S
C316 H333 0.930 . S
C317 C314 1.383 . S
C317 C315 1.365 . S
C317 H334 0.931 . S
C318 C313 1.370 . S
C318 C314 1.395 . S
C318 H335 0.930 . S
C319 Gd266 2.805 . S
C319 O301 1.263 . S
C319 O302 1.252 . S
C319 C313 1.500 . S
C320 H282 0.930 . S
C320 C296 1.417 . S
C320 C321 1.329 . S
C321 C291 1.437 . S
C321 H292 0.929 . S
C321 C320 1.329 . S
H322 C295 0.931 . S
C323 O305 1.265 . S
C323 O306 1.242 . S
C324 O309 1.261 . S
C324 O310 1.252 . S
C325 C328 1.394 . S
C325 C330 1.370 . S
C325 C331 1.500 . S
C326 C329 1.383 . S
C326 C330 1.395 . S
C327 C328 1.396 . S
C327 C329 1.365 . S
C327 H336 0.929 . S
C328 C325 1.394 . S
C328 C327 1.396 . S
C328 H337 0.930 . S
C329 C326 1.383 . S
C329 C327 1.365 . S
C329 H338 0.931 1_556 S
C330 C325 1.370 . S
C330 C326 1.395 . S
C330 H339 0.930 . S
C331 Gd267 2.805 . S
C331 O307 1.263 . S
C331 O308 1.252 . S
C331 C325 1.500 . S
H332 C315 0.929 . S
H333 C316 0.930 . S
H334 C317 0.931 . S
H335 C318 0.930 . S
H336 C327 0.929 . S
H337 C328 0.930 . S
H338 C329 0.931 1_554 S
H339 C330 0.930 . S
C340 C342 1.422 . S
C340 C344 1.415 . S
C340 N346 1.369 . S
C341 C342 1.421 1_554 S
C341 C343 1.417 . S
C341 C353 1.422 . S
C342 C340 1.422 . S
C342 C341 1.421 1_556 S
C342 N352 1.359 . S
C343 C341 1.417 . S
C343 C345 1.327 1_554 S
C343 H362 0.930 . S
C344 C340 1.415 . S
C344 C345 1.440 . S
C344 C348 1.413 . S
C345 C343 1.327 1_556 S
C345 C344 1.440 . S
C345 H367 0.928 1_556 S
N346 C340 1.369 . S
N346 C347 1.335 1_455 S
N346 Gd351 2.622 1_455 S
C347 N346 1.335 1_655 S
C347 C349 1.368 1_655 S
C347 H359 0.943 . S
C348 C344 1.413 . S
C348 C349 1.348 . S
C348 H364 0.931 . S
C349 C347 1.368 1_455 S
C349 C348 1.348 . S
C349 H365 0.930 . S
Gd350 N370 2.622 . S
Gd350 N377 2.570 . S
Gd350 O384 2.353 . S
Gd350 O385 2.468 . S
Gd350 O386 2.427 . S
Gd350 O388 2.388 . S
Gd350 O389 2.386 1_455 S
Gd350 O393 2.307 . S
Gd350 C403 2.805 . S
Gd351 N346 2.622 1_655 S
Gd351 N352 2.570 1_655 S
Gd351 O383 2.386 1_655 S
Gd351 O387 2.307 1_655 S
Gd351 O390 2.353 . S
Gd351 O391 2.468 . S
Gd351 O392 2.427 . S
Gd351 O394 2.388 . S
Gd351 C415 2.805 . S
N352 C342 1.359 . S
N352 Gd351 2.570 1_455 S
N352 C354 1.343 . S
C353 C341 1.422 . S
C353 C355 1.321 . S
C353 H361 0.931 . S
C354 N352 1.343 . S
C354 C355 1.390 1_556 S
C354 H356 0.931 . S
C355 C353 1.321 . S
C355 C354 1.390 1_554 S
C355 H357 0.930 . S
H356 C354 0.931 . S
H357 C355 0.930 . S
H358 C381 0.931 . S
H359 C347 0.943 . S
H360 C382 0.930 . S
H361 C353 0.931 . S
H362 C343 0.930 . S
H363 C372 0.929 . S
H364 C348 0.931 . S
H365 C349 0.930 . S
H366 C404 0.930 . S
H367 C345 0.928 1_554 S
H368 C373 0.931 . S
H369 C374 0.930 . S
N370 Gd350 2.622 . S
N370 C371 1.369 . S
N370 C372 1.338 . S
C371 N370 1.369 . S
C371 C375 1.415 1_455 S
C371 C378 1.424 . S
C372 H363 0.929 . S
C372 N370 1.338 . S
C372 C374 1.378 . S
C373 H368 0.931 . S
C373 C374 1.348 1_655 S
C373 C375 1.413 . S
C374 H369 0.930 . S
C374 C372 1.378 . S
C374 C373 1.348 1_455 S
C375 C371 1.415 1_655 S
C375 C373 1.413 . S
C375 C405 1.437 . S
H376 C405 0.929 . S
N377 Gd350 2.570 . S
N377 C378 1.364 . S
N377 C381 1.343 . S
C378 C371 1.424 . S
C378 N377 1.364 . S
C378 C380 1.414 1_455 S
C379 C380 1.422 . S
C379 C382 1.321 . S
C379 H406 0.931 . S
C380 C378 1.414 1_655 S
C380 C379 1.422 . S
C380 C404 1.417 . S
C381 H358 0.931 . S
C381 N377 1.343 . S
C381 C382 1.390 1_455 S
C382 H360 0.930 . S
C382 C379 1.321 . S
C382 C381 1.390 1_655 S
O383 Gd351 2.386 1_455 S
O383 C395 1.265 . S
O384 Gd350 2.353 . S
O384 C395 1.242 . S
O385 Gd350 2.468 . S
O385 C403 1.263 . S
O386 Gd350 2.427 . S
O386 C403 1.252 . S
O387 Gd351 2.307 1_455 S
O387 C396 1.261 . S
O388 Gd350 2.388 . S
O388 C396 1.252 . S
O389 Gd350 2.386 1_655 S
O389 C407 1.265 . S
O390 Gd351 2.353 . S
O390 C407 1.242 . S
O391 Gd351 2.468 . S
O391 C415 1.263 . S
O392 Gd351 2.427 . S
O392 C415 1.252 . S
O393 Gd350 2.307 . S
O393 C408 1.261 . S
O394 Gd351 2.388 . S
O394 C408 1.252 1_655 S
C395 O383 1.265 . S
C395 O384 1.242 . S
C396 O387 1.261 . S
C396 O388 1.252 . S
C397 C400 1.394 . S
C397 C402 1.370 . S
C397 C403 1.500 . S
C398 C401 1.383 . S
C398 C402 1.395 . S
C399 C400 1.396 . S
C399 C401 1.365 . S
C399 H416 0.929 . S
C400 C397 1.394 . S
C400 C399 1.396 . S
C400 H417 0.930 . S
C401 C398 1.383 . S
C401 C399 1.365 . S
C401 H418 0.931 . S
C402 C397 1.370 . S
C402 C398 1.395 . S
C402 H419 0.930 . S
C403 Gd350 2.805 . S
C403 O385 1.263 . S
C403 O386 1.252 . S
C403 C397 1.500 . S
C404 H366 0.930 . S
C404 C380 1.417 . S
C404 C405 1.329 . S
C405 C375 1.437 . S
C405 H376 0.929 . S
C405 C404 1.329 . S
H406 C379 0.931 . S
C407 O389 1.265 . S
C407 O390 1.242 . S
C408 O393 1.261 . S
C408 O394 1.252 1_455 S
C409 C412 1.394 . S
C409 C414 1.370 . S
C409 C415 1.500 . S
C410 C413 1.383 . S
C410 C414 1.395 . S
C411 C412 1.396 . S
C411 C413 1.365 . S
C411 H420 0.929 . S
C412 C409 1.394 . S
C412 C411 1.396 . S
C412 H421 0.930 . S
C413 C410 1.383 . S
C413 C411 1.365 . S
C413 H422 0.931 1_556 S
C414 C409 1.370 . S
C414 C410 1.395 . S
C414 H423 0.930 . S
C415 Gd351 2.805 . S
C415 O391 1.263 . S
C415 O392 1.252 . S
C415 C409 1.500 . S
H416 C399 0.929 . S
H417 C400 0.930 . S
H418 C401 0.931 . S
H419 C402 0.930 . S
H420 C411 0.929 . S
H421 C412 0.930 . S
H422 C413 0.931 1_554 S
H423 C414 0.930 . S
C424 C425 1.391 . S
C424 C426 1.394 . S
C424 H440 0.931 . S
C425 C424 1.391 . S
C425 C429 1.376 . S
C426 C424 1.394 . S
C426 C427 1.369 . S
C426 C430 1.531 . S
C427 C426 1.369 . S
C427 C428 1.410 . S
C427 C435 1.503 . S
C428 C427 1.410 . S
C428 C429 1.392 . S
C428 C431 1.511 . S
C429 C425 1.376 . S
C429 C428 1.392 . S
C429 H441 0.929 . S
C430 C426 1.531 . S
C430 H442 0.960 1_545 S
C430 H443 0.962 . S
C430 H444 0.960 1_545 S
C431 C428 1.511 . S
C431 H445 0.961 . S
C431 H446 0.961 . S
C431 H447 0.961 . S
C432 C433 1.370 . S
C432 C434 1.363 . S
C432 H448 0.931 . S
C433 C432 1.370 . S
C433 C437 1.406 . S
C434 C432 1.363 . S
C434 C435 1.370 . S
C434 C438 1.524 . S
C435 C427 1.503 . S
C435 C434 1.370 . S
C435 C436 1.403 . S
C436 C435 1.403 . S
C436 C437 1.404 . S
C436 C439 1.539 1_545 S
C437 C433 1.406 . S
C437 C436 1.404 . S
C437 H449 0.932 1_545 S
C438 C434 1.524 . S
C438 H450 0.956 . S
C438 H451 0.961 . S
C438 H452 0.961 . S
C439 C436 1.539 1_565 S
C439 H453 0.958 . S
C439 H454 0.961 . S
C439 H455 0.960 . S
H440 C424 0.931 . S
H441 C429 0.929 . S
H442 C430 0.960 1_565 S
H443 C430 0.962 . S
H444 C430 0.960 1_565 S
H445 C431 0.961 . S
H446 C431 0.961 . S
H447 C431 0.961 . S
H448 C432 0.931 . S
H449 C437 0.932 1_565 S
H450 C438 0.956 . S
H451 C438 0.961 . S
H452 C438 0.961 . S
H453 C439 0.958 . S
H454 C439 0.961 . S
H455 C439 0.960 . S
C456 C457 1.391 . S
C456 C458 1.394 . S
C456 H472 0.931 . S
C457 C456 1.391 . S
C457 C461 1.376 . S
C458 C456 1.394 . S
C458 C459 1.369 . S
C458 C462 1.531 . S
C459 C458 1.369 . S
C459 C460 1.410 . S
C459 C467 1.503 . S
C460 C459 1.410 . S
C460 C461 1.392 . S
C460 C463 1.511 . S
C461 C457 1.376 . S
C461 C460 1.392 . S
C461 H473 0.929 . S
C462 C458 1.531 . S
C462 H474 0.960 . S
C462 H475 0.962 . S
C462 H476 0.960 . S
C463 C460 1.511 . S
C463 H477 0.961 . S
C463 H478 0.961 . S
C463 H479 0.961 . S
C464 C465 1.370 . S
C464 C466 1.363 . S
C464 H480 0.931 . S
C465 C464 1.370 . S
C465 C469 1.408 . S
C466 C464 1.363 . S
C466 C467 1.370 . S
C466 C470 1.524 . S
C467 C459 1.503 . S
C467 C466 1.370 . S
C467 C468 1.403 . S
C468 C467 1.403 . S
C468 C469 1.404 . S
C468 C471 1.539 . S
C469 C465 1.408 . S
C469 C468 1.404 . S
C469 H481 0.930 . S
C470 C466 1.524 . S
C470 H482 0.956 . S
C470 H483 0.961 . S
C470 H484 0.961 . S
C471 C468 1.539 . S
C471 H485 0.958 . S
C471 H486 0.961 . S
C471 H487 0.960 . S
H472 C456 0.931 . S
H473 C461 0.929 . S
H474 C462 0.960 . S
H475 C462 0.962 . S
H476 C462 0.960 . S
H477 C463 0.961 . S
H478 C463 0.961 . S
H479 C463 0.961 . S
H480 C464 0.931 . S
H481 C469 0.930 . S
H482 C470 0.956 . S
H483 C470 0.961 . S
H484 C470 0.961 . S
H485 C471 0.958 . S
H486 C471 0.961 . S
H487 C471 0.960 . S
C488 C489 1.391 . S
C488 C490 1.394 . S
C488 H504 0.931 . S
C489 C488 1.391 . S
C489 C493 1.376 . S
C490 C488 1.394 . S
C490 C491 1.369 . S
C490 C494 1.531 . S
C491 C490 1.369 . S
C491 C492 1.410 . S
C491 C499 1.503 . S
C492 C491 1.410 . S
C492 C493 1.392 . S
C492 C495 1.511 . S
C493 C489 1.376 . S
C493 C492 1.392 . S
C493 H505 0.929 . S
C494 C490 1.531 . S
C494 H506 0.960 . S
C494 H507 0.962 . S
C494 H508 0.960 . S
C495 C492 1.511 . S
C495 H509 0.961 . S
C495 H510 0.961 . S
C495 H511 0.961 . S
C496 C497 1.370 . S
C496 C498 1.363 . S
C496 H512 0.931 . S
C497 C496 1.370 . S
C497 C501 1.408 . S
C498 C496 1.363 . S
C498 C499 1.370 . S
C498 C502 1.524 . S
C499 C491 1.503 . S
C499 C498 1.370 . S
C499 C500 1.403 . S
C500 C499 1.403 . S
C500 C501 1.404 . S
C500 C503 1.539 . S
C501 C497 1.408 . S
C501 C500 1.404 . S
C501 H513 0.930 . S
C502 C498 1.524 . S
C502 H514 0.956 . S
C502 H515 0.961 . S
C502 H516 0.961 . S
C503 C500 1.539 . S
C503 H517 0.958 . S
C503 H518 0.961 . S
C503 H519 0.960 . S
H504 C488 0.931 . S
H505 C493 0.929 . S
H506 C494 0.960 . S
H507 C494 0.962 . S
H508 C494 0.960 . S
H509 C495 0.961 . S
H510 C495 0.961 . S
H511 C495 0.961 . S
H512 C496 0.931 . S
H513 C501 0.930 . S
H514 C502 0.956 . S
H515 C502 0.961 . S
H516 C502 0.961 . S
H517 C503 0.958 . S
H518 C503 0.961 . S
H519 C503 0.960 . S
C520 C521 1.391 . S
C520 C522 1.394 . S
C520 H536 0.931 . S
C521 C520 1.391 . S
C521 C525 1.376 . S
C522 C520 1.394 . S
C522 C523 1.369 . S
C522 C526 1.531 . S
C523 C522 1.369 . S
C523 C524 1.410 . S
C523 C531 1.503 . S
C524 C523 1.410 . S
C524 C525 1.392 . S
C524 C527 1.511 1_455 S
C525 C521 1.376 . S
C525 C524 1.392 . S
C525 H537 0.916 1_455 S
C526 C522 1.531 . S
C526 H538 0.960 . S
C526 H539 0.962 . S
C526 H540 0.960 . S
C527 C524 1.511 1_655 S
C527 H541 0.961 . S
C527 H542 0.961 . S
C527 H543 0.961 . S
C528 C529 1.370 . S
C528 C530 1.363 . S
C528 H544 0.931 . S
C529 C528 1.370 . S
C529 C533 1.408 . S
C530 C528 1.363 . S
C530 C531 1.370 . S
C530 C534 1.524 . S
C531 C523 1.503 . S
C531 C530 1.370 . S
C531 C532 1.403 . S
C532 C531 1.403 . S
C532 C533 1.404 . S
C532 C535 1.539 1_455 S
C533 C529 1.408 . S
C533 C532 1.404 . S
C533 H545 0.930 1_455 S
C534 C530 1.524 . S
C534 H546 0.956 . S
C534 H547 0.961 . S
C534 H548 0.961 . S
C535 C532 1.539 1_655 S
C535 H549 0.958 1_655 S
C535 H550 0.961 . S
C535 H551 0.960 . S
H536 C520 0.931 . S
H537 C525 0.916 1_655 S
H538 C526 0.960 . S
H539 C526 0.962 . S
H540 C526 0.960 . S
H541 C527 0.961 . S
H542 C527 0.961 . S
H543 C527 0.961 . S
H544 C528 0.931 . S
H545 C533 0.930 1_655 S
H546 C534 0.956 . S
H547 C534 0.961 . S
H548 C534 0.961 . S
H549 C535 0.958 1_455 S
H550 C535 0.961 . S
H551 C535 0.960 . S
C552 C553 1.391 . S
C552 C554 1.394 . S
C552 H568 0.931 . S
C553 C552 1.391 . S
C553 C557 1.376 . S
C554 C552 1.394 . S
C554 C555 1.369 . S
C554 C558 1.531 . S
C555 C554 1.369 . S
C555 C556 1.410 . S
C555 C563 1.503 1_554 S
C556 C555 1.410 . S
C556 C557 1.392 . S
C556 C559 1.511 1_564 S
C557 C553 1.376 . S
C557 C556 1.392 . S
C557 H569 0.929 . S
C558 C554 1.531 . S
C558 H570 0.960 . S
C558 H571 0.962 . S
C558 H572 0.960 . S
C559 C556 1.511 1_546 S
C559 H573 0.961 . S
C559 H574 0.961 . S
C559 H575 0.961 1_545 S
C560 C561 1.339 1_545 S
C560 C562 1.363 . S
C560 H576 0.931 . S
C561 C560 1.339 1_565 S
C561 C565 1.450 . S
C562 C560 1.363 . S
C562 C563 1.370 1_545 S
C562 C566 1.524 1_556 S
C563 C555 1.503 1_556 S
C563 C562 1.370 1_565 S
C563 C564 1.403 . S
C564 C563 1.403 . S
C564 C565 1.404 . S
C564 C567 1.539 . S
C565 C561 1.450 . S
C565 C564 1.404 . S
C565 H577 0.930 . S
C566 C562 1.524 1_554 S
C566 H578 0.956 . S
C566 H579 0.961 . S
C566 H580 0.961 . S
C567 C564 1.539 . S
C567 H581 0.958 . S
C567 H582 0.961 . S
C567 H583 0.960 . S
H568 C552 0.931 . S
H569 C557 0.929 . S
H570 C558 0.960 . S
H571 C558 0.962 . S
H572 C558 0.960 . S
H573 C559 0.961 . S
H574 C559 0.961 . S
H575 C559 0.961 1_565 S
H576 C560 0.931 . S
H577 C565 0.930 . S
H578 C566 0.956 . S
H579 C566 0.961 . S
H580 C566 0.961 . S
H581 C567 0.958 . S
H582 C567 0.961 . S
H583 C567 0.960 . S
C584 C585 1.391 . S
C584 C586 1.394 . S
C584 H600 0.931 . S
C585 C584 1.391 . S
C585 C589 1.376 . S
C586 C584 1.394 . S
C586 C587 1.369 . S
C586 C590 1.531 1_554 S
C587 C586 1.369 . S
C587 C588 1.410 . S
C587 C595 1.503 1_554 S
C588 C587 1.410 . S
C588 C589 1.392 . S
C588 C591 1.511 . S
C589 C585 1.376 . S
C589 C588 1.392 . S
C589 H601 0.929 . S
C590 C586 1.531 1_556 S
C590 H602 0.960 . S
C590 H603 0.962 1_556 S
C590 H604 0.960 . S
C591 C588 1.511 . S
C591 H605 0.961 . S
C591 H606 0.961 . S
C591 H607 0.961 . S
C592 C593 1.370 . S
C592 C594 1.363 . S
C592 H608 0.931 . S
C593 C592 1.370 . S
C593 C597 1.408 . S
C594 C592 1.363 . S
C594 C595 1.370 . S
C594 C598 1.524 1_556 S
C595 C587 1.503 1_556 S
C595 C594 1.370 . S
C595 C596 1.403 . S
C596 C595 1.403 . S
C596 C597 1.404 . S
C596 C599 1.539 . S
C597 C593 1.408 . S
C597 C596 1.404 . S
C597 H609 0.930 . S
C598 C594 1.524 1_554 S
C598 H610 0.956 . S
C598 H611 0.961 . S
C598 H612 0.961 . S
C599 C596 1.539 . S
C599 H613 0.958 . S
C599 H614 0.961 . S
C599 H615 0.960 . S
H600 C584 0.931 . S
H601 C589 0.929 . S
H602 C590 0.960 . S
H603 C590 0.962 1_554 S
H604 C590 0.960 . S
H605 C591 0.961 . S
H606 C591 0.961 . S
H607 C591 0.961 . S
H608 C592 0.931 . S
H609 C597 0.930 . S
H610 C598 0.956 . S
H611 C598 0.961 . S
H612 C598 0.961 . S
H613 C599 0.958 . S
H614 C599 0.961 . S
H615 C599 0.960 . S
C616 C617 1.391 . S
C616 C618 1.394 . S
C616 H632 0.931 . S
C617 C616 1.391 . S
C617 C621 1.376 . S
C618 C616 1.394 . S
C618 C619 1.369 . S
C618 C622 1.531 1_554 S
C619 C618 1.369 . S
C619 C620 1.410 . S
C619 C627 1.503 1_554 S
C620 C619 1.410 . S
C620 C621 1.392 . S
C620 C623 1.511 . S
C621 C617 1.376 . S
C621 C620 1.392 . S
C621 H633 0.929 . S
C622 C618 1.531 1_556 S
C622 H634 0.960 . S
C622 H635 0.962 . S
C622 H636 0.960 . S
C623 C620 1.511 . S
C623 H637 0.961 . S
C623 H638 0.961 . S
C623 H639 0.961 . S
C624 C625 1.370 . S
C624 C626 1.363 . S
C624 H640 0.931 . S
C625 C624 1.370 . S
C625 C629 1.408 . S
C626 C624 1.363 . S
C626 C627 1.370 . S
C626 C630 1.524 . S
C627 C619 1.503 1_556 S
C627 C626 1.370 . S
C627 C628 1.403 . S
C628 C627 1.403 . S
C628 C629 1.404 . S
C628 C631 1.539 1_556 S
C629 C625 1.408 . S
C629 C628 1.404 . S
C629 H641 0.930 . S
C630 C626 1.524 . S
C630 H642 0.956 . S
C630 H643 0.961 1_556 S
C630 H644 0.961 . S
C631 C628 1.539 1_554 S
C631 H645 0.958 . S
C631 H646 0.961 . S
C631 H647 0.960 . S
H632 C616 0.931 . S
H633 C621 0.929 . S
H634 C622 0.960 . S
H635 C622 0.962 . S
H636 C622 0.960 . S
H637 C623 0.961 . S
H638 C623 0.961 . S
H639 C623 0.961 . S
H640 C624 0.931 . S
H641 C629 0.930 . S
H642 C630 0.956 . S
H643 C630 0.961 1_554 S
H644 C630 0.961 . S
H645 C631 0.958 . S
H646 C631 0.961 . S
H647 C631 0.960 . S
C648 C649 1.391 . S
C648 C650 1.394 . S
C648 H664 0.931 . S
C649 C648 1.391 . S
C649 C653 1.376 . S
C650 C648 1.394 . S
C650 C651 1.369 . S
C650 C654 1.531 1_554 S
C651 C650 1.369 . S
C651 C652 1.410 1_655 S
C651 C659 1.503 1_554 S
C652 C651 1.410 1_455 S
C652 C653 1.392 1_455 S
C652 C655 1.511 . S
C653 C649 1.376 . S
C653 C652 1.392 1_655 S
C653 H665 0.929 1_655 S
C654 C650 1.531 1_556 S
C654 H666 0.960 . S
C654 H667 0.962 . S
C654 H668 0.960 . S
C655 C652 1.511 . S
C655 H669 0.961 . S
C655 H670 0.961 . S
C655 H671 0.961 . S
C656 C657 1.374 . S
C656 C658 1.363 . S
C656 H672 0.931 . S
C657 C656 1.374 . S
C657 C661 1.405 1_655 S
C658 C656 1.363 . S
C658 C659 1.370 . S
C658 C662 1.524 1_556 S
C659 C651 1.503 1_556 S
C659 C658 1.370 . S
C659 C660 1.403 1_655 S
C660 C659 1.403 1_455 S
C660 C661 1.404 . S
C660 C663 1.539 . S
C661 C657 1.405 1_455 S
C661 C660 1.404 . S
C661 H673 0.930 . S
C662 C658 1.524 1_554 S
C662 H674 0.956 . S
C662 H675 0.961 . S
C662 H676 0.961 . S
C663 C660 1.539 . S
C663 H677 0.958 . S
C663 H678 0.961 . S
C663 H679 0.960 1_556 S
H664 C648 0.931 . S
H665 C653 0.929 1_455 S
H666 C654 0.960 . S
H667 C654 0.962 . S
H668 C654 0.960 . S
H669 C655 0.961 . S
H670 C655 0.961 . S
H671 C655 0.961 . S
H672 C656 0.931 . S
H673 C661 0.930 . S
H674 C662 0.956 . S
H675 C662 0.961 . S
H676 C662 0.961 . S
H677 C663 0.958 . S
H678 C663 0.961 . S
H679 C663 0.960 1_554 S
C680 C681 1.391 . S
C680 C682 1.394 . S
C680 H696 0.931 . S
C681 C680 1.391 . S
C681 C685 1.376 . S
C682 C680 1.394 . S
C682 C683 1.369 . S
C682 C686 1.531 . S
C683 C682 1.369 . S
C683 C684 1.410 . S
C683 C691 1.503 . S
C684 C683 1.410 . S
C684 C685 1.392 . S
C684 C687 1.511 1_455 S
C685 C681 1.376 . S
C685 C684 1.392 . S
C685 H697 0.929 . S
C686 C682 1.531 . S
C686 H698 0.960 . S
C686 H699 0.962 . S
C686 H700 0.960 . S
C687 C684 1.511 1_655 S
C687 H701 0.961 . S
C687 H702 0.961 . S
C687 H703 0.961 . S
C688 C689 1.370 . S
C688 C690 1.363 . S
C688 H704 0.931 . S
C689 C688 1.370 . S
C689 C693 1.406 1_455 S
C690 C688 1.363 . S
C690 C691 1.370 . S
C690 C694 1.524 . S
C691 C683 1.503 . S
C691 C690 1.370 . S
C691 C692 1.403 . S
C692 C691 1.403 . S
C692 C693 1.401 1_455 S
C692 C695 1.534 1_455 S
C693 C689 1.406 1_655 S
C693 C692 1.401 1_655 S
C693 H705 0.935 . S
C694 C690 1.524 . S
C694 H706 0.956 . S
C694 H707 0.961 . S
C694 H708 0.961 . S
C695 C692 1.534 1_655 S
C695 H709 0.942 1_655 S
C695 H710 0.979 . S
C695 H711 0.964 . S
H696 C680 0.931 . S
H697 C685 0.929 . S
H698 C686 0.960 . S
H699 C686 0.962 . S
H700 C686 0.960 . S
H701 C687 0.961 . S
H702 C687 0.961 . S
H703 C687 0.961 . S
H704 C688 0.931 . S
H705 C693 0.935 . S
H706 C694 0.956 . S
H707 C694 0.961 . S
H708 C694 0.961 . S
H709 C695 0.942 1_455 S
H710 C695 0.979 . S
H711 C695 0.964 . S
C712 C713 1.391 . S
C712 C714 1.394 . S
C712 H728 0.931 . S
C713 C712 1.391 . S
C713 C717 1.376 . S
C714 C712 1.394 . S
C714 C715 1.369 . S
C714 C718 1.531 . S
C715 C714 1.369 . S
C715 C716 1.410 . S
C715 C723 1.503 . S
C716 C715 1.410 . S
C716 C717 1.392 . S
C716 C719 1.511 1_545 S
C717 C713 1.376 . S
C717 C716 1.392 . S
C717 H729 0.929 . S
C718 C714 1.531 . S
C718 H730 0.960 . S
C718 H731 0.962 . S
C718 H732 0.960 . S
C719 C716 1.511 1_565 S
C719 H733 0.961 . S
C719 H734 0.961 . S
C719 H735 0.961 . S
C720 C721 1.370 . S
C720 C722 1.363 . S
C720 H736 0.931 . S
C721 C720 1.370 . S
C721 C725 1.408 1_545 S
C722 C720 1.363 . S
C722 C723 1.370 . S
C722 C726 1.524 . S
C723 C715 1.503 . S
C723 C722 1.370 . S
C723 C724 1.403 . S
C724 C723 1.403 . S
C724 C725 1.404 1_545 S
C724 C727 1.539 1_545 S
C725 C721 1.408 1_565 S
C725 C724 1.404 1_565 S
C725 H737 0.930 . S
C726 C722 1.524 . S
C726 H738 0.956 . S
C726 H739 0.961 . S
C726 H740 0.961 . S
C727 C724 1.539 1_565 S
C727 H741 0.958 1_565 S
C727 H742 0.961 . S
C727 H743 0.960 . S
H728 C712 0.931 . S
H729 C717 0.929 . S
H730 C718 0.960 . S
H731 C718 0.962 . S
H732 C718 0.960 . S
H733 C719 0.961 . S
H734 C719 0.961 . S
H735 C719 0.961 . S
H736 C720 0.931 . S
H737 C725 0.930 . S
H738 C726 0.956 . S
H739 C726 0.961 . S
H740 C726 0.961 . S
H741 C727 0.958 1_545 S
H742 C727 0.961 . S
H743 C727 0.960 . S
C744 C745 1.391 . S
C744 C746 1.394 . S
C744 H760 0.931 . S
C745 C744 1.391 . S
C745 C749 1.376 . S
C746 C744 1.394 . S
C746 C747 1.369 . S
C746 C750 1.531 . S
C747 C746 1.369 . S
C747 C748 1.410 . S
C747 C755 1.503 . S
C748 C747 1.410 . S
C748 C749 1.392 . S
C748 C751 1.511 . S
C749 C745 1.376 . S
C749 C748 1.392 . S
C749 H761 0.929 . S
C750 C746 1.531 . S
C750 H762 0.960 . S
C750 H763 0.962 . S
C750 H764 0.960 . S
C751 C748 1.511 . S
C751 H765 0.961 . S
C751 H766 0.961 . S
C751 H767 0.961 . S
C752 C753 1.370 . S
C752 C754 1.363 . S
C752 H768 0.931 . S
C753 C752 1.370 . S
C753 C757 1.408 . S
C754 C752 1.363 . S
C754 C755 1.370 . S
C754 C758 1.524 . S
C755 C747 1.503 . S
C755 C754 1.370 . S
C755 C756 1.403 . S
C756 C755 1.403 . S
C756 C757 1.404 . S
C756 C759 1.539 . S
C757 C753 1.408 . S
C757 C756 1.404 . S
C757 H769 0.930 . S
C758 C754 1.524 . S
C758 H770 0.956 . S
C758 H771 0.961 . S
C758 H772 0.961 . S
C759 C756 1.539 . S
C759 H773 0.958 . S
C759 H774 0.961 . S
C759 H775 0.960 . S
H760 C744 0.931 . S
H761 C749 0.929 . S
H762 C750 0.960 . S
H763 C750 0.962 . S
H764 C750 0.960 . S
H765 C751 0.961 . S
H766 C751 0.961 . S
H767 C751 0.961 . S
H768 C752 0.931 . S
H769 C757 0.930 . S
H770 C758 0.956 . S
H771 C758 0.961 . S
H772 C758 0.961 . S
H773 C759 0.958 . S
H774 C759 0.961 . S
H775 C759 0.960 . S
C776 C777 1.391 . S
C776 C778 1.394 . S
C776 H792 0.931 . S
C777 C776 1.391 . S
C777 C781 1.376 . S
C778 C776 1.394 . S
C778 C779 1.369 . S
C778 C782 1.531 . S
C779 C778 1.369 . S
C779 C780 1.410 . S
C779 C787 1.503 . S
C780 C779 1.410 . S
C780 C781 1.392 . S
C780 C783 1.511 . S
C781 C777 1.376 . S
C781 C780 1.392 . S
C781 H793 0.929 . S
C782 C778 1.531 . S
C782 H794 0.960 . S
C782 H795 0.962 . S
C782 H796 0.960 . S
C783 C780 1.511 . S
C783 H797 0.961 . S
C783 H798 0.961 . S
C783 H799 0.961 . S
C784 C785 1.370 . S
C784 C786 1.363 . S
C784 H800 0.931 . S
C785 C784 1.370 . S
C785 C789 1.408 . S
C786 C784 1.363 . S
C786 C787 1.370 . S
C786 C790 1.524 . S
C787 C779 1.503 . S
C787 C786 1.370 . S
C787 C788 1.403 . S
C788 C787 1.403 . S
C788 C789 1.404 . S
C788 C791 1.539 . S
C789 C785 1.408 . S
C789 C788 1.404 . S
C789 H801 0.930 . S
C790 C786 1.524 . S
C790 H802 0.956 . S
C790 H803 0.961 . S
C790 H804 0.961 . S
C791 C788 1.539 . S
C791 H805 0.958 . S
C791 H806 0.961 . S
C791 H807 0.960 . S
H792 C776 0.931 . S
H793 C781 0.929 . S
H794 C782 0.960 . S
H795 C782 0.962 . S
H796 C782 0.960 . S
H797 C783 0.961 . S
H798 C783 0.961 . S
H799 C783 0.961 . S
H800 C784 0.931 . S
H801 C789 0.930 . S
H802 C790 0.956 . S
H803 C790 0.961 . S
H804 C790 0.961 . S
H805 C791 0.958 . S
H806 C791 0.961 . S
H807 C791 0.960 . S
C808 C809 1.412 . S
C808 C810 1.389 1_655 S
C808 H824 0.916 1_655 S
C809 C808 1.412 . S
C809 C813 1.376 . S
C810 C808 1.389 1_455 S
C810 C811 1.369 1_455 S
C810 C814 1.531 . S
C811 C810 1.369 1_655 S
C811 C812 1.410 . S
C811 C819 1.503 . S
C812 C811 1.410 . S
C812 C813 1.392 . S
C812 C815 1.511 . S
C813 C809 1.376 . S
C813 C812 1.392 . S
C813 H825 0.929 . S
C814 C810 1.531 . S
C814 H826 0.960 . S
C814 H827 0.962 . S
C814 H828 0.960 . S
C815 C812 1.511 . S
C815 H829 0.961 . S
C815 H830 0.961 . S
C815 H831 0.961 . S
C816 C817 1.370 1_554 S
C816 C818 1.363 . S
C816 H832 0.931 . S
C817 C816 1.370 1_556 S
C817 C821 1.408 1_455 S
C818 C816 1.363 . S
C818 C819 1.370 1_455 S
C818 C822 1.524 . S
C819 C811 1.503 . S
C819 C818 1.370 1_655 S
C819 C820 1.403 1_554 S
C820 C819 1.403 1_556 S
C820 C821 1.404 . S
C820 C823 1.539 . S
C821 C817 1.408 1_655 S
C821 C820 1.404 . S
C821 H833 0.930 . S
C822 C818 1.524 . S
C822 H834 0.956 . S
C822 H835 0.961 . S
C822 H836 0.961 . S
C823 C820 1.539 . S
C823 H837 0.958 . S
C823 H838 0.961 . S
C823 H839 0.960 . S
H824 C808 0.916 1_455 S
H825 C813 0.929 . S
H826 C814 0.960 . S
H827 C814 0.962 . S
H828 C814 0.960 . S
H829 C815 0.961 . S
H830 C815 0.961 . S
H831 C815 0.961 . S
H832 C816 0.931 . S
H833 C821 0.930 . S
H834 C822 0.956 . S
H835 C822 0.961 . S
H836 C822 0.961 . S
H837 C823 0.958 . S
H838 C823 0.961 . S
H839 C823 0.960 . S
C840 C841 1.363 1_545 S
C840 C842 1.405 . S
C840 H856 0.948 . S
C841 C840 1.363 1_565 S
C841 C845 1.376 . S
C842 C840 1.405 . S
C842 C843 1.369 1_545 S
C842 C846 1.531 . S
C843 C842 1.369 1_565 S
C843 C844 1.410 . S
C843 C851 1.503 1_565 S
C844 C843 1.410 . S
C844 C845 1.392 . S
C844 C847 1.511 . S
C845 C841 1.376 . S
C845 C844 1.392 . S
C845 H857 0.929 . S
C846 C842 1.531 . S
C846 H858 0.960 . S
C846 H859 0.962 . S
C846 H860 0.960 . S
C847 C844 1.511 . S
C847 H861 0.961 . S
C847 H862 0.961 . S
C847 H863 0.961 1_554 S
C848 C849 1.370 1_565 S
C848 C850 1.363 . S
C848 H864 0.931 . S
C849 C848 1.370 1_545 S
C849 C853 1.408 1_554 S
C850 C848 1.363 . S
C850 C851 1.370 1_565 S
C850 C854 1.524 . S
C851 C843 1.503 1_545 S
C851 C850 1.370 1_545 S
C851 C852 1.403 . S
C852 C851 1.403 . S
C852 C853 1.404 1_554 S
C852 C855 1.539 1_554 S
C853 C849 1.408 1_556 S
C853 C852 1.404 1_556 S
C853 H865 0.930 . S
C854 C850 1.524 . S
C854 H866 0.956 . S
C854 H867 0.961 . S
C854 H868 0.961 . S
C855 C852 1.539 1_556 S
C855 H869 0.958 1_556 S
C855 H870 0.961 . S
C855 H871 0.960 1_556 S
H856 C840 0.948 . S
H857 C845 0.929 . S
H858 C846 0.960 . S
H859 C846 0.962 . S
H860 C846 0.960 . S
H861 C847 0.961 . S
H862 C847 0.961 . S
H863 C847 0.961 1_556 S
H864 C848 0.931 . S
H865 C853 0.930 . S
H866 C854 0.956 . S
H867 C854 0.961 . S
H868 C854 0.961 . S
H869 C855 0.958 1_554 S
H870 C855 0.961 . S
H871 C855 0.960 1_554 S
C872 C873 1.391 . S
C872 C874 1.394 . S
C872 H888 0.931 . S
C873 C872 1.391 . S
C873 C877 1.376 . S
C874 C872 1.394 . S
C874 C875 1.369 . S
C874 C878 1.531 . S
C875 C874 1.369 . S
C875 C876 1.410 . S
C875 C883 1.503 . S
C876 C875 1.410 . S
C876 C877 1.392 . S
C876 C879 1.511 . S
C877 C873 1.376 . S
C877 C876 1.392 . S
C877 H889 0.929 . S
C878 C874 1.531 . S
C878 H890 0.960 . S
C878 H891 0.962 . S
C878 H892 0.960 . S
C879 C876 1.511 . S
C879 H893 0.961 . S
C879 H894 0.961 . S
C879 H895 0.961 . S
C880 C881 1.370 1_554 S
C880 C882 1.363 . S
C880 H896 0.931 . S
C881 C880 1.370 1_556 S
C881 C885 1.408 . S
C882 C880 1.363 . S
C882 C883 1.370 . S
C882 C886 1.524 . S
C883 C875 1.503 . S
C883 C882 1.370 . S
C883 C884 1.403 1_554 S
C884 C883 1.403 1_556 S
C884 C885 1.404 . S
C884 C887 1.539 . S
C885 C881 1.408 . S
C885 C884 1.404 . S
C885 H897 0.930 . S
C886 C882 1.524 . S
C886 H898 0.956 . S
C886 H899 0.961 . S
C886 H900 0.961 . S
C887 C884 1.539 . S
C887 H901 0.958 . S
C887 H902 0.961 . S
C887 H903 0.960 . S
H888 C872 0.931 . S
H889 C877 0.929 . S
H890 C878 0.960 . S
H891 C878 0.962 . S
H892 C878 0.960 . S
H893 C879 0.961 . S
H894 C879 0.961 . S
H895 C879 0.961 . S
H896 C880 0.931 . S
H897 C885 0.930 . S
H898 C886 0.956 . S
H899 C886 0.961 . S
H900 C886 0.961 . S
H901 C887 0.958 . S
H902 C887 0.961 . S
H903 C887 0.960 . S
C904 C905 1.391 . S
C904 C906 1.394 . S
C904 H920 0.931 . S
C905 C904 1.391 . S
C905 C909 1.376 . S
C906 C904 1.394 . S
C906 C907 1.369 . S
C906 C910 1.531 . S
C907 C906 1.369 . S
C907 C908 1.410 . S
C907 C915 1.503 . S
C908 C907 1.410 . S
C908 C909 1.392 . S
C908 C911 1.511 . S
C909 C905 1.376 . S
C909 C908 1.392 . S
C909 H921 0.929 . S
C910 C906 1.531 . S
C910 H922 0.960 . S
C910 H923 0.962 . S
C910 H924 0.960 . S
C911 C908 1.511 . S
C911 H925 0.961 1_554 S
C911 H926 0.961 1_554 S
C911 H927 0.961 1_554 S
C912 C913 1.370 1_554 S
C912 C914 1.363 . S
C912 H928 0.931 . S
C913 C912 1.370 1_556 S
C913 C917 1.408 1_556 S
C914 C912 1.363 . S
C914 C915 1.370 . S
C914 C918 1.524 . S
C915 C907 1.503 . S
C915 C914 1.370 . S
C915 C916 1.403 . S
C916 C915 1.403 . S
C916 C917 1.404 . S
C916 C919 1.539 . S
C917 C913 1.408 1_554 S
C917 C916 1.404 . S
C917 H929 0.930 1_554 S
C918 C914 1.524 . S
C918 H930 0.956 . S
C918 H931 0.961 . S
C918 H932 0.961 . S
C919 C916 1.539 . S
C919 H933 0.958 . S
C919 H934 0.961 . S
C919 H935 0.960 . S
H920 C904 0.931 . S
H921 C909 0.929 . S
H922 C910 0.960 . S
H923 C910 0.962 . S
H924 C910 0.960 . S
H925 C911 0.961 1_556 S
H926 C911 0.961 1_556 S
H927 C911 0.961 1_556 S
H928 C912 0.931 . S
H929 C917 0.930 1_556 S
H930 C918 0.956 . S
H931 C918 0.961 . S
H932 C918 0.961 . S
H933 C919 0.958 . S
H934 C919 0.961 . S
H935 C919 0.960 . S
C936 C937 1.391 . S
C936 C938 1.394 . S
C936 H952 0.931 . S
C937 C936 1.391 . S
C937 C941 1.376 . S
C938 C936 1.394 . S
C938 C939 1.369 . S
C938 C942 1.531 . S
C939 C938 1.369 . S
C939 C940 1.410 . S
C939 C947 1.503 . S
C940 C939 1.410 . S
C940 C941 1.392 . S
C940 C943 1.511 1_455 S
C941 C937 1.376 . S
C941 C940 1.392 . S
C941 H953 0.929 1_455 S
C942 C938 1.531 . S
C942 H954 0.960 . S
C942 H955 0.962 . S
C942 H956 0.960 . S
C943 C940 1.511 1_655 S
C943 H957 0.961 . S
C943 H958 0.961 . S
C943 H959 0.961 . S
C944 C945 1.370 . S
C944 C946 1.363 . S
C944 H960 0.931 . S
C945 C944 1.370 . S
C945 C949 1.408 . S
C946 C944 1.363 . S
C946 C947 1.370 . S
C946 C950 1.524 . S
C947 C939 1.503 . S
C947 C946 1.370 . S
C947 C948 1.403 . S
C948 C947 1.403 . S
C948 C949 1.404 . S
C948 C951 1.539 . S
C949 C945 1.408 . S
C949 C948 1.404 . S
C949 H961 0.930 . S
C950 C946 1.524 . S
C950 H962 0.956 . S
C950 H963 0.961 . S
C950 H964 0.961 . S
C951 C948 1.539 . S
C951 H965 0.958 1_556 S
C951 H966 0.961 1_556 S
C951 H967 0.960 . S
H952 C936 0.931 . S
H953 C941 0.929 1_655 S
H954 C942 0.960 . S
H955 C942 0.962 . S
H956 C942 0.960 . S
H957 C943 0.961 . S
H958 C943 0.961 . S
H959 C943 0.961 . S
H960 C944 0.931 . S
H961 C949 0.930 . S
H962 C950 0.956 . S
H963 C950 0.961 . S
H964 C950 0.961 . S
H965 C951 0.958 1_554 S
H966 C951 0.961 1_554 S
H967 C951 0.960 . S
C968 C969 1.391 . S
C968 C970 1.394 . S
C968 H984 0.931 . S
C969 C968 1.391 . S
C969 C973 1.376 . S
C970 C968 1.394 . S
C970 C971 1.369 . S
C970 C974 1.531 . S
C971 C970 1.369 . S
C971 C972 1.410 . S
C971 C979 1.503 . S
C972 C971 1.410 . S
C972 C973 1.392 . S
C972 C975 1.511 . S
C973 C969 1.376 . S
C973 C972 1.392 . S
C973 H985 0.929 . S
C974 C970 1.531 . S
C974 H986 0.960 1_545 S
C974 H987 0.962 1_556 S
C974 H988 0.960 1_546 S
C975 C972 1.511 . S
C975 H989 0.961 . S
C975 H990 0.961 . S
C975 H991 0.961 . S
C976 C977 1.370 . S
C976 C978 1.363 . S
C976 H992 0.931 . S
C977 C976 1.370 . S
C977 C981 1.408 . S
C978 C976 1.363 . S
C978 C979 1.370 . S
C978 C982 1.524 . S
C979 C971 1.503 . S
C979 C978 1.370 . S
C979 C980 1.403 . S
C980 C979 1.403 . S
C980 C981 1.404 . S
C980 C983 1.539 1_545 S
C981 C977 1.408 . S
C981 C980 1.404 . S
C981 H993 0.930 1_545 S
C982 C978 1.524 . S
C982 H994 0.956 . S
C982 H995 0.961 . S
C982 H996 0.961 . S
C983 C980 1.539 1_565 S
C983 H997 0.958 . S
C983 H998 0.961 . S
C983 H999 0.960 . S
H984 C968 0.931 . S
H985 C973 0.929 . S
H986 C974 0.960 1_565 S
H987 C974 0.962 1_554 S
H988 C974 0.960 1_564 S
H989 C975 0.961 . S
H990 C975 0.961 . S
H991 C975 0.961 . S
H992 C976 0.931 . S
H993 C981 0.930 1_565 S
H994 C982 0.956 . S
H995 C982 0.961 . S
H996 C982 0.961 . S
H997 C983 0.958 . S
H998 C983 0.961 . S
H999 C983 0.960 . S
C1000 C1001 1.391 . S
C1000 C1002 1.394 . S
C1000 H1016 0.931 . S
C1001 C1000 1.391 . S
C1001 C1005 1.376 . S
C1002 C1000 1.394 . S
C1002 C1003 1.369 . S
C1002 C1006 1.531 . S
C1003 C1002 1.369 . S
C1003 C1004 1.410 . S
C1003 C1011 1.503 . S
C1004 C1003 1.410 . S
C1004 C1005 1.392 . S
C1004 C1007 1.511 . S
C1005 C1001 1.376 . S
C1005 C1004 1.392 . S
C1005 H1017 0.929 . S
C1006 C1002 1.531 . S
C1006 H1018 0.960 . S
C1006 H1019 0.962 . S
C1006 H1020 0.960 . S
C1007 C1004 1.511 . S
C1007 H1021 0.961 . S
C1007 H1022 0.961 . S
C1007 H1023 0.961 . S
C1008 C1009 1.370 . S
C1008 C1010 1.363 . S
C1008 H1024 0.931 . S
C1009 C1008 1.370 . S
C1009 C1013 1.408 . S
C1010 C1008 1.363 . S
C1010 C1011 1.370 . S
C1010 C1014 1.524 . S
C1011 C1003 1.503 . S
C1011 C1010 1.370 . S
C1011 C1012 1.403 . S
C1012 C1011 1.403 . S
C1012 C1013 1.404 . S
C1012 C1015 1.539 . S
C1013 C1009 1.408 . S
C1013 C1012 1.404 . S
C1013 H1025 0.930 . S
C1014 C1010 1.524 . S
C1014 H1026 0.956 . S
C1014 H1027 0.961 . S
C1014 H1028 0.961 . S
C1015 C1012 1.539 . S
C1015 H1029 0.958 1_556 S
C1015 H1030 0.961 . S
C1015 H1031 0.960 . S
H1016 C1000 0.931 . S
H1017 C1005 0.929 . S
H1018 C1006 0.960 . S
H1019 C1006 0.962 . S
H1020 C1006 0.960 . S
H1021 C1007 0.961 . S
H1022 C1007 0.961 . S
H1023 C1007 0.961 . S
H1024 C1008 0.931 . S
H1025 C1013 0.930 . S
H1026 C1014 0.956 . S
H1027 C1014 0.961 . S
H1028 C1014 0.961 . S
H1029 C1015 0.958 1_554 S
H1030 C1015 0.961 . S
H1031 C1015 0.960 . S
C1032 C1033 1.391 . S
C1032 C1034 1.394 . S
C1032 H1048 0.931 . S
C1033 C1032 1.391 . S
C1033 C1037 1.376 . S
C1034 C1032 1.394 . S
C1034 C1035 1.369 . S
C1034 C1038 1.531 . S
C1035 C1034 1.369 . S
C1035 C1036 1.410 . S
C1035 C1043 1.503 . S
C1036 C1035 1.410 . S
C1036 C1037 1.392 . S
C1036 C1039 1.511 . S
C1037 C1033 1.376 . S
C1037 C1036 1.392 . S
C1037 H1049 0.929 . S
C1038 C1034 1.531 . S
C1038 H1050 0.960 . S
C1038 H1051 0.962 . S
C1038 H1052 0.960 . S
C1039 C1036 1.511 . S
C1039 H1053 0.961 1_556 S
C1039 H1054 0.961 . S
C1039 H1055 0.961 1_556 S
C1040 C1041 1.370 . S
C1040 C1042 1.363 . S
C1040 H1056 0.931 . S
C1041 C1040 1.370 . S
C1041 C1045 1.408 . S
C1042 C1040 1.363 . S
C1042 C1043 1.370 . S
C1042 C1046 1.524 . S
C1043 C1035 1.503 . S
C1043 C1042 1.370 . S
C1043 C1044 1.403 . S
C1044 C1043 1.403 . S
C1044 C1045 1.404 . S
C1044 C1047 1.539 . S
C1045 C1041 1.408 . S
C1045 C1044 1.404 . S
C1045 H1057 0.930 . S
C1046 C1042 1.524 . S
C1046 H1058 0.956 . S
C1046 H1059 0.961 . S
C1046 H1060 0.961 . S
C1047 C1044 1.539 . S
C1047 H1061 0.958 . S
C1047 H1062 0.961 . S
C1047 H1063 0.960 . S
H1048 C1032 0.931 . S
H1049 C1037 0.929 . S
H1050 C1038 0.960 . S
H1051 C1038 0.962 . S
H1052 C1038 0.960 . S
H1053 C1039 0.961 1_554 S
H1054 C1039 0.961 . S
H1055 C1039 0.961 1_554 S
H1056 C1040 0.931 . S
H1057 C1045 0.930 . S
H1058 C1046 0.956 . S
H1059 C1046 0.961 . S
H1060 C1046 0.961 . S
H1061 C1047 0.958 . S
H1062 C1047 0.961 . S
H1063 C1047 0.960 . S
C1064 C1065 1.391 . S
C1064 C1066 1.394 . S
C1064 H1080 0.931 . S
C1065 C1064 1.391 . S
C1065 C1069 1.376 1_655 S
C1066 C1064 1.394 . S
C1066 C1067 1.369 . S
C1066 C1070 1.531 . S
C1067 C1066 1.369 . S
C1067 C1068 1.410 1_655 S
C1067 C1075 1.503 . S
C1068 C1067 1.410 1_455 S
C1068 C1069 1.392 . S
C1068 C1071 1.511 . S
C1069 C1065 1.376 1_455 S
C1069 C1068 1.392 . S
C1069 H1081 0.929 . S
C1070 C1066 1.531 . S
C1070 H1082 0.960 . S
C1070 H1083 0.962 . S
C1070 H1084 0.960 . S
C1071 C1068 1.511 . S
C1071 H1085 0.961 . S
C1071 H1086 0.961 . S
C1071 H1087 0.961 . S
C1072 C1073 1.370 . S
C1072 C1074 1.363 . S
C1072 H1088 0.931 . S
C1073 C1072 1.370 . S
C1073 C1077 1.408 1_655 S
C1074 C1072 1.363 . S
C1074 C1075 1.370 . S
C1074 C1078 1.524 . S
C1075 C1067 1.503 . S
C1075 C1074 1.370 . S
C1075 C1076 1.395 1_655 S
C1076 C1075 1.395 1_455 S
C1076 C1077 1.405 . S
C1076 C1079 1.547 . S
C1077 C1073 1.408 1_455 S
C1077 C1076 1.405 . S
C1077 H1089 0.930 . S
C1078 C1074 1.524 . S
C1078 H1090 0.956 . S
C1078 H1091 0.961 . S
C1078 H1092 0.961 . S
C1079 C1076 1.547 . S
C1079 H1093 0.958 1_455 S
C1079 H1094 0.961 . S
C1079 H1095 0.960 . S
H1080 C1064 0.931 . S
H1081 C1069 0.929 . S
H1082 C1070 0.960 . S
H1083 C1070 0.962 . S
H1084 C1070 0.960 . S
H1085 C1071 0.961 . S
H1086 C1071 0.961 . S
H1087 C1071 0.961 . S
H1088 C1072 0.931 . S
H1089 C1077 0.930 . S
H1090 C1078 0.956 . S
H1091 C1078 0.961 . S
H1092 C1078 0.961 . S
H1093 C1079 0.958 1_655 S
H1094 C1079 0.961 . S
H1095 C1079 0.960 . S
C1096 C1097 1.391 . S
C1096 C1098 1.394 . S
C1096 H1112 0.931 . S
C1097 C1096 1.391 . S
C1097 C1101 1.376 1_565 S
C1098 C1096 1.394 . S
C1098 C1099 1.369 . S
C1098 C1102 1.531 . S
C1099 C1098 1.369 . S
C1099 C1100 1.410 1_565 S
C1099 C1107 1.503 . S
C1100 C1099 1.410 1_545 S
C1100 C1101 1.392 . S
C1100 C1103 1.511 . S
C1101 C1097 1.376 1_545 S
C1101 C1100 1.392 . S
C1101 H1113 0.929 . S
C1102 C1098 1.531 . S
C1102 H1114 0.960 . S
C1102 H1115 0.962 . S
C1102 H1116 0.960 . S
C1103 C1100 1.511 . S
C1103 H1117 0.961 . S
C1103 H1118 0.961 . S
C1103 H1119 0.961 . S
C1104 C1105 1.370 . S
C1104 C1106 1.363 . S
C1104 H1120 0.931 . S
C1105 C1104 1.370 . S
C1105 C1109 1.408 1_565 S
C1106 C1104 1.363 . S
C1106 C1107 1.370 . S
C1106 C1110 1.524 . S
C1107 C1099 1.503 . S
C1107 C1106 1.370 . S
C1107 C1108 1.403 . S
C1108 C1107 1.403 . S
C1108 C1109 1.404 1_565 S
C1108 C1111 1.539 1_565 S
C1109 C1105 1.408 1_545 S
C1109 C1108 1.404 1_545 S
C1109 H1121 0.930 . S
C1110 C1106 1.524 . S
C1110 H1122 0.956 . S
C1110 H1123 0.961 . S
C1110 H1124 0.961 . S
C1111 C1108 1.539 1_545 S
C1111 H1125 0.958 1_545 S
C1111 H1126 0.961 . S
C1111 H1127 0.960 . S
H1112 C1096 0.931 . S
H1113 C1101 0.929 . S
H1114 C1102 0.960 . S
H1115 C1102 0.962 . S
H1116 C1102 0.960 . S
H1117 C1103 0.961 . S
H1118 C1103 0.961 . S
H1119 C1103 0.961 . S
H1120 C1104 0.931 . S
H1121 C1109 0.930 . S
H1122 C1110 0.956 . S
H1123 C1110 0.961 . S
H1124 C1110 0.961 . S
H1125 C1111 0.958 1_565 S
H1126 C1111 0.961 . S
H1127 C1111 0.960 . S
C1128 C1129 1.391 . S
C1128 C1130 1.394 . S
C1128 H1144 0.931 . S
C1129 C1128 1.391 . S
C1129 C1133 1.376 . S
C1130 C1128 1.394 . S
C1130 C1131 1.369 . S
C1130 C1134 1.531 . S
C1131 C1130 1.369 . S
C1131 C1132 1.410 . S
C1131 C1139 1.503 . S
C1132 C1131 1.410 . S
C1132 C1133 1.392 . S
C1132 C1135 1.511 . S
C1133 C1129 1.376 . S
C1133 C1132 1.392 . S
C1133 H1145 0.929 . S
C1134 C1130 1.531 . S
C1134 H1146 0.960 . S
C1134 H1147 0.962 . S
C1134 H1148 0.960 . S
C1135 C1132 1.511 . S
C1135 H1149 0.961 . S
C1135 H1150 0.961 . S
C1135 H1151 0.961 . S
C1136 C1137 1.370 . S
C1136 C1138 1.363 . S
C1136 H1152 0.931 . S
C1137 C1136 1.370 . S
C1137 C1141 1.408 . S
C1138 C1136 1.363 . S
C1138 C1139 1.370 . S
C1138 C1142 1.524 . S
C1139 C1131 1.503 . S
C1139 C1138 1.370 . S
C1139 C1140 1.403 . S
C1140 C1139 1.403 . S
C1140 C1141 1.404 . S
C1140 C1143 1.539 . S
C1141 C1137 1.408 . S
C1141 C1140 1.404 . S
C1141 H1153 0.930 . S
C1142 C1138 1.524 . S
C1142 H1154 0.956 . S
C1142 H1155 0.961 . S
C1142 H1156 0.961 . S
C1143 C1140 1.539 . S
C1143 H1157 0.958 . S
C1143 H1158 0.961 . S
C1143 H1159 0.960 . S
H1144 C1128 0.931 . S
H1145 C1133 0.929 . S
H1146 C1134 0.960 . S
H1147 C1134 0.962 . S
H1148 C1134 0.960 . S
H1149 C1135 0.961 . S
H1150 C1135 0.961 . S
H1151 C1135 0.961 . S
H1152 C1136 0.931 . S
H1153 C1141 0.930 . S
H1154 C1142 0.956 . S
H1155 C1142 0.961 . S
H1156 C1142 0.961 . S
H1157 C1143 0.958 . S
H1158 C1143 0.961 . S
H1159 C1143 0.960 . S
C1160 C1161 1.391 . S
C1160 C1162 1.394 . S
C1160 H1176 0.931 . S
C1161 C1160 1.391 . S
C1161 C1165 1.376 . S
C1162 C1160 1.394 . S
C1162 C1163 1.369 . S
C1162 C1166 1.531 . S
C1163 C1162 1.369 . S
C1163 C1164 1.410 . S
C1163 C1171 1.503 . S
C1164 C1163 1.410 . S
C1164 C1165 1.392 . S
C1164 C1167 1.511 . S
C1165 C1161 1.376 . S
C1165 C1164 1.392 . S
C1165 H1177 0.929 . S
C1166 C1162 1.531 . S
C1166 H1178 0.960 . S
C1166 H1179 0.962 . S
C1166 H1180 0.960 . S
C1167 C1164 1.511 . S
C1167 H1181 0.961 . S
C1167 H1182 0.961 . S
C1167 H1183 0.961 . S
C1168 C1169 1.370 . S
C1168 C1170 1.363 . S
C1168 H1184 0.931 . S
C1169 C1168 1.370 . S
C1169 C1173 1.408 . S
C1170 C1168 1.363 . S
C1170 C1171 1.370 . S
C1170 C1174 1.524 . S
C1171 C1163 1.503 . S
C1171 C1170 1.370 . S
C1171 C1172 1.403 . S
C1172 C1171 1.403 . S
C1172 C1173 1.404 . S
C1172 C1175 1.539 . S
C1173 C1169 1.408 . S
C1173 C1172 1.404 . S
C1173 H1185 0.930 . S
C1174 C1170 1.524 . S
C1174 H1186 0.956 . S
C1174 H1187 0.961 . S
C1174 H1188 0.961 . S
C1175 C1172 1.539 . S
C1175 H1189 0.958 . S
C1175 H1190 0.961 . S
C1175 H1191 0.960 . S
H1176 C1160 0.931 . S
H1177 C1165 0.929 . S
H1178 C1166 0.960 . S
H1179 C1166 0.962 . S
H1180 C1166 0.960 . S
H1181 C1167 0.961 . S
H1182 C1167 0.961 . S
H1183 C1167 0.961 . S
H1184 C1168 0.931 . S
H1185 C1173 0.930 . S
H1186 C1174 0.956 . S
H1187 C1174 0.961 . S
H1188 C1174 0.961 . S
H1189 C1175 0.958 . S
H1190 C1175 0.961 . S
H1191 C1175 0.960 . S
C425 C76 1.862 . S
C433 C156 2.009 . S
C465 C239 2.033 . S
C457 C87 1.862 . S
C497 C324 2.000 . S
C489 C54 1.875 . S
C529 C408 1.987 . S
C521 C65 1.893 . S
C561 C144 2.007 1_565 S
C553 C32 1.878 . S
C585 C43 1.862 . S
C593 C227 2.033 . S
C617 C10 1.889 . S
C625 C312 1.998 . S
C649 C21 1.854 . S
C657 C396 1.989 1_655 S
C689 C146 0.587 1_455 S
C681 C60 0.630 . S
C721 C242 0.631 . S
C713 C71 0.601 . S
C753 C314 0.652 . S
C745 C82 0.595 . S
C777 C49 0.522 . S
C785 C398 0.626 . S
C809 C16 0.658 . S
C817 C158 0.627 . S
C849 C230 0.635 . S
C841 C27 0.588 . S
C881 C326 0.608 . S
C873 C38 0.649 . S
C905 C5 0.561 . S
C913 C410 0.565 . S
C937 C59 1.877 . S
C945 C143 2.114 . S
C969 C70 1.930 . S
C977 C228 2.118 . S
C1009 C311 2.132 . S
C1001 C81 1.900 . S
C1041 C395 2.137 . S
C1033 C48 1.916 . S
C1065 C15 1.941 . S
C1073 C155 2.106 . S
C1105 C240 2.120 1_565 S
C1097 C26 1.941 . S
C1137 C323 2.124 . S
C1129 C37 1.957 . S
C1161 C4 1.966 . S
C1169 C407 2.129 . S
