# Generated by pormake.
# Topology anh, (6,3)-cn, num edge types: 1
# Building blocks:
#     Node 0, Type 0, BuildingBlock: GEDQOX_clean_sbu_0, # of connection points: 6
#     Node 1, Type 0, BuildingBlock: GEDQOX_clean_sbu_0, # of connection points: 6
#     Node 2, Type 0, BuildingBlock: GEDQOX_clean_sbu_0, # of connection points: 6
#     Node 3, Type 1, BuildingBlock: BETDAH_clean_linker_0, # of connection points: 3
#     Node 4, Type 1, BuildingBlock: BETDAH_clean_linker_0, # of connection points: 3
#     Node 5, Type 1, BuildingBlock: BETDAH_clean_linker_0, # of connection points: 3
#     Node 6, Type 1, BuildingBlock: BETDAH_clean_linker_0, # of connection points: 3
#     Node 7, Type 1, BuildingBlock: BETDAH_clean_linker_0, # of connection points: 3
#     Node 8, Type 1, BuildingBlock: BETDAH_clean_linker_0, # of connection points: 3
#     Edge 9, Type (0, 1), BuildingBlock: EZIPEK_clean_linker_0, # of connection points: 2
#     Edge 10, Type (0, 1), BuildingBlock: EZIPEK_clean_linker_0, # of connection points: 2
#     Edge 11, Type (0, 1), BuildingBlock: EZIPEK_clean_linker_0, # of connection points: 2
#     Edge 12, Type (0, 1), BuildingBlock: EZIPEK_clean_linker_0, # of connection points: 2
#     Edge 13, Type (0, 1), BuildingBlock: EZIPEK_clean_linker_0, # of connection points: 2
#     Edge 14, Type (0, 1), BuildingBlock: EZIPEK_clean_linker_0, # of connection points: 2
#     Edge 15, Type (0, 1), BuildingBlock: EZIPEK_clean_linker_0, # of connection points: 2
#     Edge 16, Type (0, 1), BuildingBlock: EZIPEK_clean_linker_0, # of connection points: 2
#     Edge 17, Type (0, 1), BuildingBlock: EZIPEK_clean_linker_0, # of connection points: 2
#     Edge 18, Type (0, 1), BuildingBlock: EZIPEK_clean_linker_0, # of connection points: 2
#     Edge 19, Type (0, 1), BuildingBlock: EZIPEK_clean_linker_0, # of connection points: 2
#     Edge 20, Type (0, 1), BuildingBlock: EZIPEK_clean_linker_0, # of connection points: 2
#     Edge 21, Type (0, 1), BuildingBlock: EZIPEK_clean_linker_0, # of connection points: 2
#     Edge 22, Type (0, 1), BuildingBlock: EZIPEK_clean_linker_0, # of connection points: 2
#     Edge 23, Type (0, 1), BuildingBlock: EZIPEK_clean_linker_0, # of connection points: 2
#     Edge 24, Type (0, 1), BuildingBlock: EZIPEK_clean_linker_0, # of connection points: 2
#     Edge 25, Type (0, 1), BuildingBlock: EZIPEK_clean_linker_0, # of connection points: 2
#     Edge 26, Type (0, 1), BuildingBlock: EZIPEK_clean_linker_0, # of connection points: 2
# Relax obj value: 0.207
# Max RMSD: 0.212
# Mean RMSD: 0.119
data_MOF--net-anh--node1-GEDQOX_clean_sbu_0--node2-BETDAH_clean_linker_0--edge1-EZIPEK_clean_linker_0
_symmetry_space_group_name_H-M    P1
_symmetry_Int_Tables_number       1
_symmetry_cell_setting            triclinic
loop_
_symmetry_equiv_pos_as_xyz
'x, y, z'
_cell_length_a     22.490527
_cell_length_b     21.992863
_cell_length_c     35.834163
_cell_angle_alpha  94.08351
_cell_angle_beta   93.042232
_cell_angle_gamma 96.115087
loop_
_atom_site_label
_atom_site_type_symbol
_atom_site_fract_x
_atom_site_fract_y
_atom_site_fract_z
_atom_type_partial_charge
Nd0 Nd 1.11463 0.65934 0.15306 0.0
Nd1 Nd 1.09976 0.52414 0.14246 0.0
C2 C 0.15317 0.77736 0.15532 0.0
C3 C 0.21398 0.80848 0.16457 0.0
C4 C 0.23517 0.86025 0.14646 0.0
C5 C 0.29325 0.88913 0.15549 0.0
C6 C 0.33044 0.86654 0.18281 0.0
C7 C 0.30949 0.81433 0.20047 0.0
C8 C 0.25188 0.78542 0.19135 0.0
C9 C 1.08568 0.60431 0.21732 0.0
C10 C 0.23862 0.58929 0.14814 0.0
C11 C 1.09318 0.40501 0.15144 0.0
C12 C 1.04607 0.35879 0.16196 0.0
C13 C 0.98529 0.3675 0.15682 0.0
C14 C 0.94092 0.324 0.16777 0.0
C15 C 0.95674 0.27155 0.18432 0.0
C16 C 1.01756 0.26355 0.19021 0.0
C17 C 1.06192 0.30686 0.17901 0.0
C18 C 1.09609 0.58199 0.07653 0.0
C19 C 0.9779 0.59249 0.13834 0.0
O20 O 0.1454 0.74243 0.12401 0.0
O21 O 0.12771 0.75164 0.18291 0.0
O22 O 1.06067 0.65007 0.20514 0.0
O23 O 0.12338 0.58776 0.19483 0.0
O24 O 0.2151 0.64069 0.15745 0.0
O25 O 0.20324 0.53753 0.13941 0.0
O26 O 1.11294 0.44734 0.17782 0.0
O27 O 1.08531 0.42717 0.11887 0.0
O28 O 1.06115 0.53285 0.08196 0.0
O29 O 0.13196 0.59625 0.1045 0.0
O30 O 1.00115 0.5435 0.14972 0.0
O31 O 1.01415 0.6418 0.13176 0.0
H32 H 0.20682 0.87834 0.12552 0.0
H33 H 0.309 0.92938 0.14155 0.0
H34 H 0.33769 0.7962 0.22149 0.0
H35 H 0.23689 0.74515 0.20547 0.0
H36 H 0.97218 0.40786 0.14431 0.0
H37 H 0.89423 0.33098 0.16311 0.0
H38 H 1.03052 0.2234 0.20302 0.0
H39 H 1.10862 0.29988 0.18367 0.0
Nd40 Nd 0.59395 0.99166 0.5211 0.0
Nd41 Nd 0.72761 1.00505 0.51111 0.0
C42 C 0.4842 0.95737 0.5401 0.0
C43 C 0.43873 0.90628 0.5267 0.0
C44 C 0.40116 0.87819 0.552 0.0
C45 C 0.35761 0.82985 0.53933 0.0
C46 C 0.3509 0.80954 0.50114 0.0
C47 C 0.38923 0.83677 0.47597 0.0
C48 C 0.43319 0.88448 0.48869 0.0
C49 C 0.6227 1.00049 0.44802 0.0
C50 C 0.66578 0.86688 0.51213 0.0
C51 C 0.83108 0.04152 0.48396 0.0
C52 C 0.86251 0.10268 0.48008 0.0
C53 C 0.89644 0.11281 0.44892 0.0
C54 C 0.92153 0.17206 0.44295 0.0
C55 C 0.91274 0.22174 0.46808 0.0
C56 C 0.87926 0.21163 0.4994 0.0
C57 C 0.85418 0.1525 0.50534 0.0
C58 C 0.69898 0.99368 0.58384 0.0
C59 C 0.65932 0.13046 0.5279 0.0
O60 O 0.53201 0.94235 0.55793 0.0
O61 O 0.49655 0.99899 0.51653 0.0
O62 O 0.57626 0.02161 0.46179 0.0
O63 O 0.64862 0.97101 0.47175 0.0
O64 O 0.61776 0.892 0.52244 0.0
O65 O 0.71386 0.90026 0.50216 0.0
O66 O 0.78122 0.02852 0.46308 0.0
O67 O 0.82654 0.0245 0.5181 0.0
O68 O 0.7449 0.97168 0.56942 0.0
O69 O 0.6731 0.02509 0.561 0.0
O70 O 0.70714 0.10598 0.51677 0.0
O71 O 0.61051 0.09543 0.53519 0.0
H72 H 0.40528 0.89394 0.58147 0.0
H73 H 0.32831 0.80915 0.55907 0.0
H74 H 0.38472 0.82138 0.44645 0.0
H75 H 0.46245 0.90472 0.46876 0.0
H76 H 0.90256 0.07509 0.42886 0.0
H77 H 0.94729 0.17931 0.41865 0.0
H78 H 0.87201 0.24963 0.51896 0.0
H79 H 0.82742 0.14591 0.52928 0.0
Nd80 Nd 0.57599 0.51202 0.8158 0.0
Nd81 Nd 0.70396 0.52267 0.84009 0.0
C82 C 0.47068 0.50243 0.77855 0.0
C83 C 0.42984 0.54944 0.77151 0.0
C84 C 0.43611 0.58465 0.74025 0.0
C85 C 0.40751 0.63784 0.73796 0.0
C86 C 0.37204 0.656 0.76677 0.0
C87 C 0.36134 0.61805 0.79611 0.0
C88 C 0.38984 0.56513 0.79845 0.0
C89 C 0.59671 0.5394 0.89236 0.0
C90 C 0.64523 0.64795 0.83258 0.0
C91 C 0.81026 0.51191 0.87279 0.0
C92 C 0.86709 0.49467 0.85965 0.0
C93 C 0.91997 0.51636 0.88078 0.0
C94 C 0.97498 0.51243 0.8653 0.0
C95 C 0.97788 0.48731 0.82829 0.0
C96 C 0.92515 0.46042 0.80837 0.0
C97 C 0.86983 0.46402 0.82408 0.0
C98 C 0.68601 0.53682 0.76448 0.0
C99 C 0.63657 0.38484 0.81827 0.0
O100 O 0.5215 0.50929 0.76245 0.0
O101 O 0.47743 0.48728 0.81313 0.0
O102 O 0.55617 0.5619 0.87206 0.0
O103 O 0.62267 0.50183 0.87254 0.0
O104 O 0.60503 0.61409 0.80978 0.0
O105 O 0.68211 0.62157 0.85462 0.0
O106 O 0.76562 0.46868 0.87078 0.0
O107 O 0.79468 0.56342 0.86158 0.0
O108 O 0.72981 0.56602 0.78566 0.0
O109 O 0.65687 0.49822 0.78283 0.0
O110 O 0.68852 0.41945 0.82205 0.0
O111 O 0.5855 0.40932 0.81855 0.0
H112 H 0.46574 0.57305 0.71862 0.0
H113 H 0.41557 0.66638 0.71494 0.0
H114 H 0.33335 0.63123 0.81837 0.0
H115 H 0.38317 0.53861 0.82252 0.0
H116 H 0.91861 0.53996 0.90828 0.0
H117 H 1.01504 0.53374 0.88115 0.0
H118 H 0.92641 0.44032 0.77998 0.0
H119 H 0.82912 0.44601 0.80777 0.0
H120 H 0.54916 0.9629 0.29257 0.0
H121 H 0.72035 0.06267 0.2768 0.0
H122 H 0.5955 1.00589 0.18212 0.0
C123 C 0.58119 0.98311 0.27414 0.0
C124 C 0.56623 0.98085 0.23567 0.0
C125 C 0.6366 1.01247 0.28913 0.0
C126 C 0.67771 0.0397 0.26518 0.0
C127 C 0.66276 0.03702 0.22629 0.0
C128 C 0.60721 1.00742 0.21194 0.0
N129 N 0.70138 0.0634 0.20032 0.0
C130 C 0.75565 0.09943 0.20875 0.0
H131 H 0.68162 0.3889 0.61599 0.0
H132 H 0.67361 0.57211 0.5831 0.0
H133 H 0.6502 0.4189 0.49965 0.0
C134 C 0.67624 0.41988 0.59411 0.0
C135 C 0.6663 0.39617 0.55669 0.0
C136 C 0.67761 0.48291 0.6038 0.0
C137 C 0.67178 0.52336 0.57547 0.0
C138 C 0.66201 0.50036 0.53767 0.0
C139 C 0.65851 0.43676 0.52865 0.0
N140 N 0.65484 0.53932 0.50806 0.0
C141 C 0.65728 0.60304 0.51255 0.0
H142 H 1.11345 0.57774 0.90572 0.0
H143 H 0.2091 0.74924 0.94996 0.0
H144 H 0.20728 0.69279 0.83204 0.0
C145 C 0.14141 0.61956 0.90126 0.0
C146 C 0.15683 0.63187 0.86502 0.0
C147 C 0.16169 0.66038 0.93203 0.0
C148 C 0.19513 0.71634 0.92634 0.0
C149 C 0.2106 0.72975 0.89014 0.0
C150 C 0.19411 0.68529 0.85991 0.0
N151 N 0.24092 0.78838 0.8846 0.0
C152 C 0.26556 0.8009 0.85085 0.0
H153 H 0.19299 0.64102 0.3814 0.0
H154 H 1.02424 0.52896 0.38483 0.0
H155 H 1.11998 0.60642 0.48711 0.0
C156 C 0.15886 0.61761 0.39716 0.0
C157 C 0.16262 0.62694 0.43632 0.0
C158 C 1.1083 0.5836 0.37809 0.0
C159 C 1.06394 0.5544 0.39903 0.0
C160 C 1.06922 0.5612 0.43843 0.0
C161 C 1.11769 0.59865 0.45682 0.0
N162 N 1.02389 0.53481 0.46006 0.0
C163 C 1.00301 0.47292 0.4555 0.0
H164 H 0.66301 0.13687 0.73151 0.0
H165 H 0.67133 0.95188 0.7615 0.0
H166 H 0.6374 0.09301 0.84497 0.0
C167 C 0.66031 0.10358 0.75246 0.0
C168 C 0.64971 0.12259 0.78946 0.0
C169 C 0.6676 0.04216 0.74214 0.0
C170 C 0.66501 0.99908 0.76945 0.0
C171 C 0.654 1.01728 0.80673 0.0
C172 C 0.64596 0.0789 0.81633 0.0
N173 N 0.65138 0.97568 0.83548 0.0
C174 C 0.6529 0.91233 0.8305 0.0
H175 H 0.73065 0.56155 0.04819 0.0
H176 H 0.54604 0.57297 0.06997 0.0
H177 H 0.68165 0.60214 0.16121 0.0
C178 C 0.69701 0.56841 0.0682 0.0
C179 C 0.71482 0.58194 0.10643 0.0
C180 C 0.63677 0.56613 0.05502 0.0
C181 C 0.59219 0.57438 0.0805 0.0
C182 C 0.60756 0.58638 0.11909 0.0
C183 C 0.66922 0.59111 0.13169 0.0
N184 N 0.56305 0.59504 0.14584 0.0
C185 C 0.50022 0.59256 0.1393 0.0
C186 C 0.33077 0.56087 0.11406 0.0
C187 C 0.30628 0.59063 0.14557 0.0
C188 C 0.41011 0.6296 0.16908 0.0
C189 C 0.43413 0.59308 0.14039 0.0
N190 N 0.41574 0.51542 0.08908 0.0
N191 N 0.32566 0.64397 0.207 0.0
C192 C 0.39394 0.55607 0.11401 0.0
C193 C 0.34686 0.62279 0.17405 0.0
N194 N 0.29447 0.54044 0.08296 0.0
N195 N 0.44762 0.67152 0.19155 0.0
H196 H 0.28067 0.6369 0.21288 0.0
H197 H 0.35344 0.6626 0.23009 0.0
H198 H 0.4939 0.67727 0.18924 0.0
H199 H 0.43229 0.70431 0.21002 0.0
H200 H 0.31058 0.52377 0.05794 0.0
H201 H 0.2493 0.54699 0.08055 0.0
H202 H 0.38825 0.48271 0.07175 0.0
H203 H 0.4613 0.51073 0.08819 0.0
C204 C 0.99454 0.30853 0.48032 0.0
C205 C 0.9387 0.28479 0.46184 0.0
C206 C 0.93106 0.38245 0.43375 0.0
C207 C 0.98334 0.40796 0.45551 0.0
N208 N 1.06381 0.39825 0.50114 0.0
N209 N 0.85121 0.2986 0.42284 0.0
C210 C 1.01507 0.37172 0.47908 0.0
C211 C 0.90636 0.32149 0.43882 0.0
N212 N 1.0283 0.27024 0.49849 0.0
N213 N 0.9057 0.41629 0.40788 0.0
H214 H 0.83273 0.25348 0.42486 0.0
H215 H 0.82212 0.32503 0.40947 0.0
H216 H 0.92253 0.46129 0.40389 0.0
H217 H 0.87105 0.39859 0.38845 0.0
H218 H 1.07215 0.28286 0.50918 0.0
H219 H 1.01413 0.2239 0.50047 0.0
H220 H 1.08464 0.37649 0.52226 0.0
H221 H 1.08167 0.44378 0.49987 0.0
C222 C 0.69991 0.75126 0.82113 0.0
C223 C 0.64823 0.71643 0.83313 0.0
C224 C 0.6026 0.81207 0.84623 0.0
C225 C 0.65132 0.84572 0.83073 0.0
N226 N 0.7436 0.84773 0.79967 0.0
N227 N 0.54604 0.71362 0.85166 0.0
C228 C 0.69925 0.8154 0.81712 0.0
C229 C 0.59826 0.74682 0.84398 0.0
N230 N 0.74988 0.7233 0.81371 0.0
N231 N 0.56123 0.84255 0.86431 0.0
H232 H 0.54079 0.6661 0.85154 0.0
H233 H 0.5063 0.73288 0.85565 0.0
H234 H 0.56153 0.89013 0.86557 0.0
H235 H 0.52962 0.82118 0.88072 0.0
H236 H 0.79105 0.74706 0.80909 0.0
H237 H 0.75175 0.67641 0.81475 0.0
H238 H 0.77621 0.82745 0.78519 0.0
H239 H 0.74535 0.8949 0.79735 0.0
C240 C 0.86947 0.5618 0.15606 0.0
C241 C 0.91005 0.59157 0.13196 0.0
C242 C 0.82247 0.62732 0.09892 0.0
C243 C 0.7817 0.5888 0.11834 0.0
N244 N 0.77009 0.50915 0.16132 0.0
N245 N 0.91947 0.6373 0.07285 0.0
C246 C 0.80622 0.55324 0.1459 0.0
C247 C 0.88498 0.62039 0.10137 0.0
N248 N 0.89046 0.54377 0.18951 0.0
N249 N 0.80188 0.67152 0.07836 0.0
H250 H 0.96306 0.6261 0.07085 0.0
H251 H 0.90198 0.65422 0.04863 0.0
H252 H 0.75713 0.68022 0.0773 0.0
H253 H 0.83047 0.70385 0.06614 0.0
H254 H 0.86222 0.52663 0.20936 0.0
H255 H 0.93516 0.55281 0.19941 0.0
H256 H 0.78675 0.47795 0.17863 0.0
H257 H 0.72446 0.49966 0.15385 0.0
C258 C 0.24343 0.77852 0.47971 0.0
C259 C 0.30187 0.76159 0.48694 0.0
C260 C 0.26702 0.65456 0.46543 0.0
C261 C 0.20996 0.67253 0.45543 0.0
N262 N 0.14366 0.75121 0.45022 0.0
N263 N 0.37163 0.68565 0.48499 0.0
C264 C 0.19799 0.73437 0.46204 0.0
C265 C 0.31431 0.70008 0.47942 0.0
N266 N 0.23133 0.83683 0.49008 0.0
N267 N 0.27537 0.59375 0.46225 0.0
H268 H 0.4067 0.71714 0.49687 0.0
H269 H 0.3855 0.64361 0.47617 0.0
H270 H 0.24182 0.55954 0.4516 0.0
H271 H 0.3138 0.57643 0.47243 0.0
H272 H 0.18837 0.85032 0.4899 0.0
H273 H 0.26401 0.8715 0.50121 0.0
H274 H 0.13443 0.79649 0.44954 0.0
H275 H 1.1081 0.71986 0.43896 0.0
C276 C 0.67466 0.28644 0.83619 0.0
C277 C 0.63625 0.31681 0.81282 0.0
C278 C 0.59752 0.21714 0.7805 0.0
C279 C 0.64287 0.18871 0.79953 0.0
N280 N 0.7328 0.20061 0.84067 0.0
N281 N 0.56983 0.31115 0.75697 0.0
C282 C 0.6837 0.22448 0.82617 0.0
C283 C 0.59971 0.28221 0.78347 0.0
N284 N 0.70091 0.31585 0.86876 0.0
N285 N 0.55162 0.18202 0.7601 0.0
H286 H 0.57283 0.35869 0.75651 0.0
H287 H 0.54746 0.28788 0.73306 0.0
H288 H 0.54744 0.13418 0.75821 0.0
H289 H 0.51455 0.20027 0.74852 0.0
H290 H 0.72509 0.29387 0.88836 0.0
H291 H 0.69262 0.3599 0.87826 0.0
H292 H 0.76693 0.22699 0.85724 0.0
H293 H 0.74263 0.1563 0.83312 0.0
C294 C 0.61544 0.76026 0.49318 0.0
C295 C 0.66455 0.7988 0.51185 0.0
C296 C 0.71034 0.70732 0.52954 0.0
C297 C 0.659 0.6696 0.51363 0.0
N298 N 0.55801 0.65982 0.48618 0.0
N299 N 0.75241 0.80875 0.55469 0.0
C300 C 0.61007 0.69601 0.4973 0.0
C301 C 0.71051 0.77229 0.53179 0.0
N302 N 0.57534 0.7845 0.47003 0.0
N303 N 0.75934 0.68115 0.54216 0.0
H304 H 0.75317 0.85618 0.55825 0.0
H305 H 0.78285 0.79162 0.57301 0.0
H306 H 0.76006 0.63378 0.54219 0.0
H307 H 0.80063 0.70616 0.54999 0.0
H308 H 0.54232 0.7579 0.45275 0.0
H309 H 0.57836 0.83085 0.46519 0.0
H310 H 0.51845 0.67726 0.47803 0.0
H311 H 0.55283 0.61246 0.48818 0.0
C312 C 1.03865 0.55901 0.79371 0.0
C313 C 1.03423 0.50216 0.80963 0.0
C314 C 0.13694 0.52568 0.83553 0.0
C315 C 0.13009 0.58869 0.83324 0.0
N316 N 1.07733 0.66575 0.80439 0.0
N317 N 1.08436 0.42283 0.83516 0.0
C318 C 1.08321 0.60564 0.80922 0.0
C319 C 1.08645 0.48188 0.82568 0.0
N320 N 0.99709 0.56941 0.76653 0.0
N321 N 0.18979 0.50937 0.8499 0.0
H322 H 1.04647 0.3916 0.82783 0.0
H323 H 1.11865 0.40571 0.85045 0.0
H324 H 0.22622 0.54226 0.85762 0.0
H325 H 0.19869 0.46409 0.85136 0.0
H326 H 0.99966 0.60919 0.75228 0.0
H327 H 0.96384 0.53495 0.7558 0.0
H328 H 1.03963 0.68017 0.79102 0.0
H329 H 1.10872 0.70173 0.81499 0.0
C330 C 0.39739 0.95488 0.2159 0.0
C331 C 0.39114 0.89797 0.19396 0.0
C332 C 0.49966 0.89378 0.20083 0.0
C333 C 0.50619 0.95273 0.2204 0.0
N334 N 0.46336 0.0447 0.24048 0.0
N335 N 0.43626 0.81804 0.15988 0.0
C336 C 0.45562 0.98492 0.22608 0.0
C337 C 0.44236 0.86881 0.18472 0.0
N338 N 0.34781 0.97887 0.22851 0.0
N339 N 0.54778 0.86083 0.1988 0.0
H340 H 0.39496 0.79869 0.14741 0.0
H341 H 0.4724 0.79816 0.14917 0.0
H342 H 0.59054 0.87784 0.21004 0.0
H343 H 0.54448 0.81496 0.18865 0.0
H344 H 0.34997 1.01645 0.24812 0.0
H345 H 0.30425 0.95822 0.2219 0.0
H346 H 0.42876 0.07259 0.24146 0.0
H347 H 0.50536 0.06824 0.2485 0.0
C348 C 0.63021 0.22473 0.56413 0.0
C349 C 0.66214 0.1989 0.53477 0.0
C350 C 0.70344 0.30354 0.52288 0.0
C351 C 0.6633 0.32841 0.5475 0.0
N352 N 0.57691 0.30974 0.5841 0.0
N353 N 0.72015 0.21806 0.48043 0.0
C354 C 0.62288 0.28806 0.56568 0.0
C355 C 0.69627 0.23941 0.51242 0.0
N356 N 0.61054 0.19046 0.59229 0.0
N357 N 0.75011 0.3403 0.51061 0.0
H358 H 0.71522 0.17236 0.47016 0.0
H359 H 0.73963 0.24722 0.4617 0.0
H360 H 0.75859 0.38703 0.51869 0.0
H361 H 0.78403 0.32298 0.49573 0.0
H362 H 0.59097 0.20927 0.61554 0.0
H363 H 0.62152 0.14616 0.59538 0.0
H364 H 0.54368 0.28081 0.59521 0.0
H365 H 0.56834 0.35548 0.58456 0.0
C366 C 0.28815 0.72066 0.76273 0.0
C367 C 0.3501 0.71707 0.76962 0.0
C368 C 0.35716 0.80304 0.81696 0.0
C369 C 0.2941 0.79674 0.81569 0.0
N370 N 0.20184 0.77336 0.7786 0.0
N371 N 0.44658 0.76969 0.79022 0.0
C372 C 0.26056 0.76464 0.78473 0.0
C373 C 0.38583 0.76446 0.79186 0.0
N374 N 0.25571 0.67859 0.73772 0.0
N375 N 0.38859 0.84199 0.84413 0.0
H376 H 0.46764 0.74061 0.7722 0.0
H377 H 0.47523 0.80546 0.80404 0.0
H378 H 0.36708 0.87107 0.86197 0.0
H379 H 0.4348 0.84509 0.84917 0.0
H380 H 0.20918 0.67419 0.73407 0.0
H381 H 0.27641 0.64715 0.72104 0.0
H382 H 0.17477 0.75304 0.75564 0.0
H383 H 0.18198 0.80492 0.79572 0.0
C384 C 0.87359 0.23616 0.22481 0.0
C385 C 0.90924 0.22394 0.19414 0.0
C386 C 0.85277 0.12226 0.18129 0.0
C387 C 0.81193 0.13829 0.20806 0.0
N388 N 0.78085 0.21016 0.25492 0.0
N389 N 0.92905 0.15818 0.14036 0.0
C390 C 0.82183 0.195 0.23 0.0
C391 C 0.8983 0.16741 0.17183 0.0
N392 N 0.88998 0.28647 0.24926 0.0
N393 N 0.84801 0.0637 0.16493 0.0
H394 H 0.96236 0.19024 0.13211 0.0
H395 H 0.91822 0.12096 0.12067 0.0
H396 H 0.81499 0.02959 0.17128 0.0
H397 H 0.87992 0.04741 0.14793 0.0
H398 H 0.8693 0.29503 0.27411 0.0
H399 H 0.92774 0.31726 0.24627 0.0
H400 H 0.78161 0.25356 0.2687 0.0
H401 H 0.74396 0.17983 0.26039 0.0
C402 C 0.14708 0.56643 0.01662 0.0
C403 C 1.11067 0.60125 0.03897 0.0
C404 C 1.10596 0.67431 0.99055 0.0
C405 C 0.14696 0.64289 0.97001 0.0
N406 N 0.21625 0.5664 0.96704 0.0
N407 N 1.06704 0.69593 0.05093 0.0
C408 C 0.17027 0.59092 0.98405 0.0
C409 C 1.09358 0.6575 0.02708 0.0
N410 N 0.15951 0.50992 0.02634 0.0
N411 N 1.07694 0.71854 0.97472 0.0
H412 H 1.0578 0.68564 0.07798 0.0
H413 H 1.05952 0.74033 0.04512 0.0
H414 H 1.08423 0.73186 0.94784 0.0
H415 H 1.04167 0.73799 0.98691 0.0
H416 H 0.17996 0.47966 0.00882 0.0
H417 H 0.14583 0.49125 0.05082 0.0
H418 H 0.23934 0.53262 0.97822 0.0
H419 H 0.23538 0.58402 0.94362 0.0
C420 C 0.63314 0.06342 0.39248 0.0
C421 C 0.6384 1.00649 0.40834 0.0
C422 C 0.66481 0.96279 0.34711 0.0
C423 C 0.64873 1.0156 0.33044 0.0
N424 N 0.61489 0.11585 0.33641 0.0
N425 N 0.65341 0.89897 0.39897 0.0
C426 C 0.63292 0.06619 0.35296 0.0
C427 C 0.65386 0.95554 0.38542 0.0
N428 N 0.62947 0.1153 0.41522 0.0
N429 N 0.68985 0.91916 0.32601 0.0
H430 H 0.64355 0.89002 0.42616 0.0
H431 H 0.6574 0.85916 0.38217 0.0
H432 H 0.69771 0.92328 0.2978 0.0
H433 H 0.70815 0.8824 0.33725 0.0
H434 H 0.63212 0.15907 0.40565 0.0
H435 H 0.62973 0.11564 0.44429 0.0
H436 H 0.59507 0.15053 0.35074 0.0
H437 H 0.61641 0.12064 0.30771 0.0
C438 C 0.6404 0.54853 0.70014 0.0
C439 C 0.68745 0.52965 0.72295 0.0
C440 C 0.7354 0.49621 0.66627 0.0
C441 C 0.68325 0.50509 0.64419 0.0
N442 N 0.58125 0.53075 0.64138 0.0
N443 N 0.77688 0.47799 0.7276 0.0
C444 C 0.63445 0.52916 0.66138 0.0
C445 C 0.73452 0.50177 0.706 0.0
N446 N 0.60256 0.58683 0.71509 0.0
N447 N 0.78599 0.48322 0.64923 0.0
H448 H 0.77728 0.48001 0.75671 0.0
H449 H 0.80839 0.45145 0.71652 0.0
H450 H 0.78831 0.47986 0.62015 0.0
H451 H 0.82708 0.48196 0.66385 0.0
H452 H 0.57124 0.60689 0.69891 0.0
H453 H 0.60747 0.60414 0.74293 0.0
H454 H 0.54249 0.54165 0.65381 0.0
H455 H 0.57411 0.51576 0.61309 0.0
C456 C 0.64784 0.96707 0.64199 0.0
C457 C 0.69381 1.00221 0.62489 0.0
C458 C 0.73028 0.05207 0.68637 0.0
C459 C 0.67871 0.02423 0.70238 0.0
N460 N 0.58282 0.9623 0.69358 0.0
N461 N 0.77495 0.08413 0.6299 0.0
C462 C 0.636 0.98332 0.67976 0.0
C463 C 0.73414 0.04634 0.64683 0.0
N464 N 0.61659 0.9171 0.62252 0.0
N465 N 0.77632 0.08258 0.70905 0.0
H466 H 0.77952 0.08122 0.60104 0.0
H467 H 0.80084 0.12161 0.64414 0.0
H468 H 0.77579 0.08613 0.73822 0.0
H469 H 0.81735 0.09882 0.69923 0.0
H470 H 0.58627 0.88642 0.63468 0.0
H471 H 0.62579 0.90284 0.59527 0.0
H472 H 0.5477 0.93764 0.67696 0.0
H473 H 0.57148 0.97421 0.72076 0.0
C474 C 0.61022 0.60553 0.95381 0.0
C475 C 0.60202 0.54616 0.93437 0.0
C476 C 0.61544 0.4996 0.99438 0.0
C477 C 0.6214 0.55869 0.01375 0.0
N478 N 0.61538 0.66736 0.01304 0.0
N479 N 0.58107 0.43668 0.93745 0.0
C480 C 0.61568 0.61141 0.99377 0.0
C481 C 0.60042 0.49311 0.95502 0.0
N482 N 0.61595 0.65659 0.93415 0.0
N483 N 0.6248 0.44959 0.01357 0.0
H484 H 0.56612 0.43019 0.90927 0.0
H485 H 0.57342 0.39709 0.95157 0.0
H486 H 0.63271 0.45203 0.04262 0.0
H487 H 0.62866 0.40648 0.0005 0.0
H488 H 0.63 0.70055 0.94625 0.0
H489 H 0.61071 0.65485 0.90515 0.0
H490 H 0.60374 0.70618 0.00066 0.0
H491 H 0.6226 0.67435 0.04208 0.0
C492 C 1.07791 0.53873 0.27254 0.0
C493 C 1.09185 0.59668 0.25817 0.0
C494 C 1.10237 0.6449 0.32192 0.0
C495 C 1.09883 0.58653 0.33665 0.0
N496 N 1.09293 0.47635 0.32464 0.0
N497 N 0.13598 0.70179 0.27077 0.0
C498 C 1.0892 0.53273 0.3116 0.0
C499 C 1.10951 0.64894 0.2833 0.0
N500 N 1.05199 0.49018 0.24932 0.0
N501 N 1.09696 0.69653 0.34445 0.0
H502 H 0.14774 0.70468 0.24321 0.0
H503 H 0.15352 0.73948 0.28882 0.0
H504 H 1.08694 0.69514 0.37247 0.0
H505 H 1.09496 0.73939 0.33401 0.0
H506 H 1.03629 0.44815 0.25893 0.0
H507 H 1.04069 0.49421 0.22107 0.0
H508 H 1.09151 0.43642 0.30697 0.0
H509 H 1.10311 0.47027 0.35276 0.0
loop_
_geom_bond_atom_site_label_1
_geom_bond_atom_site_label_2
_geom_bond_distance
_geom_bond_site_symmetry_2
_ccdc_geom_bond_type
Nd0 C2 2.836 . S
Nd0 O20 2.500 . S
Nd0 O21 2.492 . S
Nd0 O22 2.487 . S
Nd0 O23 2.682 . S
Nd0 O24 2.410 . S
Nd0 O29 2.414 . S
Nd0 O31 2.424 1_455 S
Nd1 C11 2.836 . S
Nd1 O23 2.414 1_655 S
Nd1 O25 2.424 1_655 S
Nd1 O26 2.500 . S
Nd1 O27 2.492 . S
Nd1 O28 2.487 . S
Nd1 O29 2.682 1_655 S
Nd1 O30 2.410 . S
C2 Nd0 2.836 . S
C2 C3 1.498 . S
C2 O20 1.258 . S
C2 O21 1.239 . S
C3 C2 1.498 . S
C3 C4 1.366 . S
C3 C8 1.407 . S
C4 C3 1.366 . S
C4 C5 1.392 . S
C4 H32 0.930 . S
C5 C4 1.392 . S
C5 C6 1.398 . S
C5 H33 0.929 . S
C6 C5 1.398 . S
C6 C7 1.352 . S
C7 C6 1.352 . S
C7 C8 1.384 . S
C7 H34 0.930 . S
C8 C3 1.407 . S
C8 C7 1.384 . S
C8 H35 0.929 . S
C9 O22 1.241 . S
C9 O23 1.273 . S
C10 O24 1.251 . S
C10 O25 1.268 . S
C11 Nd1 2.836 . S
C11 C12 1.498 . S
C11 O26 1.258 . S
C11 O27 1.239 . S
C12 C11 1.498 . S
C12 C13 1.366 . S
C12 C17 1.407 . S
C13 C12 1.366 . S
C13 C14 1.392 . S
C13 H36 0.930 . S
C14 C13 1.392 . S
C14 C15 1.398 . S
C14 H37 0.929 . S
C15 C14 1.398 . S
C15 C16 1.352 . S
C16 C15 1.352 . S
C16 C17 1.384 . S
C16 H38 0.930 . S
C17 C12 1.407 . S
C17 C16 1.384 . S
C17 H39 0.929 . S
C18 O28 1.241 1_455 S
C18 O29 1.273 . S
C19 O30 1.251 . S
C19 O31 1.268 . S
O20 Nd0 2.500 . S
O20 C2 1.258 . S
O21 Nd0 2.492 . S
O21 C2 1.239 . S
O22 Nd0 2.487 . S
O22 C9 1.241 . S
O23 Nd0 2.682 . S
O23 Nd1 2.414 1_455 S
O23 C9 1.273 . S
O24 Nd0 2.410 . S
O24 C10 1.251 . S
O25 Nd1 2.424 1_455 S
O25 C10 1.268 . S
O26 Nd1 2.500 . S
O26 C11 1.258 . S
O27 Nd1 2.492 . S
O27 C11 1.239 . S
O28 Nd1 2.487 . S
O28 C18 1.241 1_655 S
O29 Nd0 2.414 . S
O29 Nd1 2.682 1_455 S
O29 C18 1.273 . S
O30 Nd1 2.410 . S
O30 C19 1.251 . S
O31 Nd0 2.424 1_655 S
O31 C19 1.268 . S
H32 C4 0.930 . S
H33 C5 0.929 . S
H34 C7 0.930 . S
H35 C8 0.929 . S
H36 C13 0.930 . S
H37 C14 0.929 . S
H38 C16 0.930 . S
H39 C17 0.929 . S
Nd40 C42 2.836 1_545 S
Nd40 O60 2.500 1_545 S
Nd40 O61 2.492 1_545 S
Nd40 O62 2.487 . S
Nd40 O63 2.682 . S
Nd40 O64 2.410 1_545 S
Nd40 O69 2.414 . S
Nd40 O71 2.424 . S
Nd41 C51 2.836 . S
Nd41 O63 2.414 . S
Nd41 O65 2.424 1_545 S
Nd41 O66 2.500 . S
Nd41 O67 2.492 . S
Nd41 O68 2.487 . S
Nd41 O69 2.682 . S
Nd41 O70 2.410 . S
C42 Nd40 2.836 1_565 S
C42 C43 1.498 . S
C42 O60 1.258 . S
C42 O61 1.239 . S
C43 C42 1.498 . S
C43 C44 1.366 . S
C43 C48 1.407 . S
C44 C43 1.366 . S
C44 C45 1.392 . S
C44 H72 0.930 . S
C45 C44 1.392 . S
C45 C46 1.398 . S
C45 H73 0.929 . S
C46 C45 1.398 . S
C46 C47 1.352 . S
C47 C46 1.352 . S
C47 C48 1.384 . S
C47 H74 0.930 . S
C48 C43 1.407 . S
C48 C47 1.384 . S
C48 H75 0.929 . S
C49 O62 1.241 . S
C49 O63 1.273 . S
C50 O64 1.251 . S
C50 O65 1.268 . S
C51 Nd41 2.836 . S
C51 C52 1.498 . S
C51 O66 1.258 . S
C51 O67 1.239 . S
C52 C51 1.498 . S
C52 C53 1.366 . S
C52 C57 1.407 . S
C53 C52 1.366 . S
C53 C54 1.392 . S
C53 H76 0.930 . S
C54 C53 1.392 . S
C54 C55 1.398 . S
C54 H77 0.929 . S
C55 C54 1.398 . S
C55 C56 1.352 . S
C56 C55 1.352 . S
C56 C57 1.384 . S
C56 H78 0.930 . S
C57 C52 1.407 . S
C57 C56 1.384 . S
C57 H79 0.929 . S
C58 O68 1.241 . S
C58 O69 1.273 . S
C59 O70 1.251 . S
C59 O71 1.268 . S
O60 Nd40 2.500 1_565 S
O60 C42 1.258 . S
O61 Nd40 2.492 1_565 S
O61 C42 1.239 . S
O62 Nd40 2.487 . S
O62 C49 1.241 . S
O63 Nd40 2.682 . S
O63 Nd41 2.414 . S
O63 C49 1.273 . S
O64 Nd40 2.410 1_565 S
O64 C50 1.251 . S
O65 Nd41 2.424 1_565 S
O65 C50 1.268 . S
O66 Nd41 2.500 . S
O66 C51 1.258 . S
O67 Nd41 2.492 . S
O67 C51 1.239 . S
O68 Nd41 2.487 . S
O68 C58 1.241 . S
O69 Nd40 2.414 . S
O69 Nd41 2.682 . S
O69 C58 1.273 . S
O70 Nd41 2.410 . S
O70 C59 1.251 . S
O71 Nd40 2.424 . S
O71 C59 1.268 . S
H72 C44 0.930 . S
H73 C45 0.929 . S
H74 C47 0.930 . S
H75 C48 0.929 . S
H76 C53 0.930 . S
H77 C54 0.929 . S
H78 C56 0.930 . S
H79 C57 0.929 . S
Nd80 C82 2.836 . S
Nd80 O100 2.500 . S
Nd80 O101 2.492 . S
Nd80 O102 2.487 . S
Nd80 O103 2.682 . S
Nd80 O104 2.410 . S
Nd80 O109 2.414 . S
Nd80 O111 2.424 . S
Nd81 C91 2.836 . S
Nd81 O103 2.414 . S
Nd81 O105 2.424 . S
Nd81 O106 2.500 . S
Nd81 O107 2.492 . S
Nd81 O108 2.487 . S
Nd81 O109 2.682 . S
Nd81 O110 2.410 . S
C82 Nd80 2.836 . S
C82 C83 1.498 . S
C82 O100 1.258 . S
C82 O101 1.239 . S
C83 C82 1.498 . S
C83 C84 1.366 . S
C83 C88 1.407 . S
C84 C83 1.366 . S
C84 C85 1.392 . S
C84 H112 0.930 . S
C85 C84 1.392 . S
C85 C86 1.398 . S
C85 H113 0.929 . S
C86 C85 1.398 . S
C86 C87 1.352 . S
C87 C86 1.352 . S
C87 C88 1.384 . S
C87 H114 0.930 . S
C88 C83 1.407 . S
C88 C87 1.384 . S
C88 H115 0.929 . S
C89 O102 1.241 . S
C89 O103 1.273 . S
C90 O104 1.251 . S
C90 O105 1.268 . S
C91 Nd81 2.836 . S
C91 C92 1.498 . S
C91 O106 1.258 . S
C91 O107 1.239 . S
C92 C91 1.498 . S
C92 C93 1.366 . S
C92 C97 1.407 . S
C93 C92 1.366 . S
C93 C94 1.392 . S
C93 H116 0.930 . S
C94 C93 1.392 . S
C94 C95 1.398 . S
C94 H117 0.929 . S
C95 C94 1.398 . S
C95 C96 1.352 . S
C96 C95 1.352 . S
C96 C97 1.384 . S
C96 H118 0.930 . S
C97 C92 1.407 . S
C97 C96 1.384 . S
C97 H119 0.929 . S
C98 O108 1.241 . S
C98 O109 1.273 . S
C99 O110 1.251 . S
C99 O111 1.268 . S
O100 Nd80 2.500 . S
O100 C82 1.258 . S
O101 Nd80 2.492 . S
O101 C82 1.239 . S
O102 Nd80 2.487 . S
O102 C89 1.241 . S
O103 Nd80 2.682 . S
O103 Nd81 2.414 . S
O103 C89 1.273 . S
O104 Nd80 2.410 . S
O104 C90 1.251 . S
O105 Nd81 2.424 . S
O105 C90 1.268 . S
O106 Nd81 2.500 . S
O106 C91 1.258 . S
O107 Nd81 2.492 . S
O107 C91 1.239 . S
O108 Nd81 2.487 . S
O108 C98 1.241 . S
O109 Nd80 2.414 . S
O109 Nd81 2.682 . S
O109 C98 1.273 . S
O110 Nd81 2.410 . S
O110 C99 1.251 . S
O111 Nd80 2.424 . S
O111 C99 1.268 . S
H112 C84 0.930 . S
H113 C85 0.929 . S
H114 C87 0.930 . S
H115 C88 0.929 . S
H116 C93 0.930 . S
H117 C94 0.929 . S
H118 C96 0.930 . S
H119 C97 0.929 . S
H120 C123 0.929 1_565 S
H121 C126 0.929 . S
H122 C128 0.930 . S
C123 H120 0.929 1_545 S
C123 C124 1.398 1_545 S
C123 C125 1.396 . S
C124 C123 1.398 1_565 S
C124 C128 1.407 1_565 S
C125 C123 1.396 . S
C125 C126 1.394 . S
C126 H121 0.929 . S
C126 C125 1.394 . S
C126 C127 1.382 . S
C127 C126 1.382 . S
C127 C128 1.392 . S
C127 N129 1.420 . S
C128 H122 0.930 . S
C128 C124 1.407 1_545 S
C128 C127 1.392 . S
N129 C127 1.420 . S
N129 C130 1.244 . S
C130 N129 1.244 . S
H131 C134 0.929 . S
H132 C137 0.929 . S
H133 C139 0.930 . S
C134 H131 0.929 . S
C134 C135 1.398 . S
C134 C136 1.396 . S
C135 C134 1.398 . S
C135 C139 1.407 . S
C136 C134 1.396 . S
C136 C137 1.394 . S
C137 H132 0.929 . S
C137 C136 1.394 . S
C137 C138 1.382 . S
C138 C137 1.382 . S
C138 C139 1.392 . S
C138 N140 1.420 . S
C139 H133 0.930 . S
C139 C135 1.407 . S
C139 C138 1.392 . S
N140 C138 1.420 . S
N140 C141 1.244 . S
C141 N140 1.244 . S
H142 C145 0.929 . S
H143 C148 0.929 . S
H144 C150 0.930 . S
C145 H142 0.929 . S
C145 C146 1.398 . S
C145 C147 1.396 1_655 S
C146 C145 1.398 . S
C146 C150 1.407 1_655 S
C147 C145 1.396 1_455 S
C147 C148 1.394 . S
C148 H143 0.929 . S
C148 C147 1.394 . S
C148 C149 1.382 . S
C149 C148 1.382 . S
C149 C150 1.392 . S
C149 N151 1.420 . S
C150 H144 0.930 . S
C150 C146 1.407 1_455 S
C150 C149 1.392 . S
N151 C149 1.420 . S
N151 C152 1.244 . S
C152 N151 1.244 . S
H153 C156 0.929 . S
H154 C159 0.929 . S
H155 C161 0.930 . S
C156 H153 0.929 . S
C156 C157 1.398 . S
C156 C158 1.396 . S
C157 C156 1.398 . S
C157 C161 1.407 . S
C158 C156 1.396 . S
C158 C159 1.394 1_455 S
C159 H154 0.929 . S
C159 C158 1.394 1_655 S
C159 C160 1.382 . S
C160 C159 1.382 . S
C160 C161 1.392 1_655 S
C160 N162 1.420 . S
C161 H155 0.930 . S
C161 C157 1.407 . S
C161 C160 1.392 1_455 S
N162 C160 1.420 . S
N162 C163 1.244 . S
C163 N162 1.244 . S
H164 C167 0.929 . S
H165 C170 0.929 . S
H166 C172 0.930 . S
C167 H164 0.929 . S
C167 C168 1.398 . S
C167 C169 1.396 . S
C168 C167 1.398 . S
C168 C172 1.407 . S
C169 C167 1.396 . S
C169 C170 1.394 1_545 S
C170 H165 0.929 . S
C170 C169 1.394 1_565 S
C170 C171 1.382 1_565 S
C171 C170 1.382 1_545 S
C171 C172 1.392 . S
C171 N173 1.420 1_545 S
C172 H166 0.930 . S
C172 C168 1.407 . S
C172 C171 1.392 . S
N173 C171 1.420 1_565 S
N173 C174 1.244 . S
C174 N173 1.244 . S
H175 C178 0.929 . S
H176 C181 0.929 . S
H177 C183 0.930 . S
C178 H175 0.929 . S
C178 C179 1.398 . S
C178 C180 1.396 . S
C179 C178 1.398 . S
C179 C183 1.407 . S
C180 C178 1.396 . S
C180 C181 1.394 . S
C181 H176 0.929 . S
C181 C180 1.394 . S
C181 C182 1.382 . S
C182 C181 1.382 . S
C182 C183 1.392 . S
C182 N184 1.420 . S
C183 H177 0.930 . S
C183 C179 1.407 . S
C183 C182 1.392 . S
N184 C182 1.420 . S
N184 C185 1.244 . S
C185 N184 1.244 . S
C186 C187 1.363 . S
C186 C192 1.379 . S
C186 N194 1.356 . S
C187 C186 1.363 . S
C187 C193 1.363 . S
C188 C189 1.363 . S
C188 C193 1.379 . S
C188 N195 1.356 . S
C189 C188 1.363 . S
C189 C192 1.363 . S
N190 C192 1.356 . S
N190 H202 0.984 . S
N190 H203 0.985 . S
N191 C193 1.356 . S
N191 H196 0.984 . S
N191 H197 0.985 . S
C192 C186 1.379 . S
C192 C189 1.363 . S
C192 N190 1.356 . S
C193 C187 1.363 . S
C193 C188 1.379 . S
C193 N191 1.356 . S
N194 C186 1.356 . S
N194 H200 0.984 . S
N194 H201 0.984 . S
N195 C188 1.356 . S
N195 H198 0.984 . S
N195 H199 0.985 . S
H196 N191 0.984 . S
H197 N191 0.985 . S
H198 N195 0.984 . S
H199 N195 0.985 . S
H200 N194 0.984 . S
H201 N194 0.984 . S
H202 N190 0.984 . S
H203 N190 0.985 . S
C204 C205 1.363 . S
C204 C210 1.379 . S
C204 N212 1.356 . S
C205 C204 1.363 . S
C205 C211 1.363 . S
C206 C207 1.363 . S
C206 C211 1.379 . S
C206 N213 1.356 . S
C207 C206 1.363 . S
C207 C210 1.363 . S
N208 C210 1.356 . S
N208 H220 0.984 . S
N208 H221 0.985 . S
N209 C211 1.356 . S
N209 H214 0.984 . S
N209 H215 0.985 . S
C210 C204 1.379 . S
C210 C207 1.363 . S
C210 N208 1.356 . S
C211 C205 1.363 . S
C211 C206 1.379 . S
C211 N209 1.356 . S
N212 C204 1.356 . S
N212 H218 0.984 . S
N212 H219 0.984 . S
N213 C206 1.356 . S
N213 H216 0.984 . S
N213 H217 0.985 . S
H214 N209 0.984 . S
H215 N209 0.985 . S
H216 N213 0.984 . S
H217 N213 0.985 . S
H218 N212 0.984 . S
H219 N212 0.984 . S
H220 N208 0.984 . S
H221 N208 0.985 . S
C222 C223 1.363 . S
C222 C228 1.379 . S
C222 N230 1.356 . S
C223 C222 1.363 . S
C223 C229 1.363 . S
C224 C225 1.363 . S
C224 C229 1.379 . S
C224 N231 1.356 . S
C225 C224 1.363 . S
C225 C228 1.363 . S
N226 C228 1.356 . S
N226 H238 0.984 . S
N226 H239 0.985 . S
N227 C229 1.356 . S
N227 H232 0.984 . S
N227 H233 0.985 . S
C228 C222 1.379 . S
C228 C225 1.363 . S
C228 N226 1.356 . S
C229 C223 1.363 . S
C229 C224 1.379 . S
C229 N227 1.356 . S
N230 C222 1.356 . S
N230 H236 0.984 . S
N230 H237 0.984 . S
N231 C224 1.356 . S
N231 H234 0.984 . S
N231 H235 0.985 . S
H232 N227 0.984 . S
H233 N227 0.985 . S
H234 N231 0.984 . S
H235 N231 0.985 . S
H236 N230 0.984 . S
H237 N230 0.984 . S
H238 N226 0.984 . S
H239 N226 0.985 . S
C240 C241 1.363 . S
C240 C246 1.379 . S
C240 N248 1.356 . S
C241 C240 1.363 . S
C241 C247 1.363 . S
C242 C243 1.363 . S
C242 C247 1.379 . S
C242 N249 1.356 . S
C243 C242 1.363 . S
C243 C246 1.363 . S
N244 C246 1.356 . S
N244 H256 0.984 . S
N244 H257 0.985 . S
N245 C247 1.356 . S
N245 H250 0.984 . S
N245 H251 0.985 . S
C246 C240 1.379 . S
C246 C243 1.363 . S
C246 N244 1.356 . S
C247 C241 1.363 . S
C247 C242 1.379 . S
C247 N245 1.356 . S
N248 C240 1.356 . S
N248 H254 0.984 . S
N248 H255 0.984 . S
N249 C242 1.356 . S
N249 H252 0.984 . S
N249 H253 0.985 . S
H250 N245 0.984 . S
H251 N245 0.985 . S
H252 N249 0.984 . S
H253 N249 0.985 . S
H254 N248 0.984 . S
H255 N248 0.984 . S
H256 N244 0.984 . S
H257 N244 0.985 . S
C258 C259 1.363 . S
C258 C264 1.379 . S
C258 N266 1.356 . S
C259 C258 1.363 . S
C259 C265 1.363 . S
C260 C261 1.363 . S
C260 C265 1.379 . S
C260 N267 1.356 . S
C261 C260 1.363 . S
C261 C264 1.363 . S
N262 C264 1.356 . S
N262 H274 0.984 . S
N262 H275 0.985 . S
N263 C265 1.356 . S
N263 H268 0.984 . S
N263 H269 0.985 . S
C264 C258 1.379 . S
C264 C261 1.363 . S
C264 N262 1.356 . S
C265 C259 1.363 . S
C265 C260 1.379 . S
C265 N263 1.356 . S
N266 C258 1.356 . S
N266 H272 0.984 . S
N266 H273 0.984 . S
N267 C260 1.356 . S
N267 H270 0.984 . S
N267 H271 0.985 . S
H268 N263 0.984 . S
H269 N263 0.985 . S
H270 N267 0.984 . S
H271 N267 0.985 . S
H272 N266 0.984 . S
H273 N266 0.984 . S
H274 N262 0.984 . S
H275 N262 0.985 . S
C276 C277 1.363 . S
C276 C282 1.379 . S
C276 N284 1.356 . S
C277 C276 1.363 . S
C277 C283 1.363 . S
C278 C279 1.363 . S
C278 C283 1.379 . S
C278 N285 1.356 . S
C279 C278 1.363 . S
C279 C282 1.363 . S
N280 C282 1.356 . S
N280 H292 0.984 . S
N280 H293 0.985 . S
N281 C283 1.356 . S
N281 H286 0.984 . S
N281 H287 0.985 . S
C282 C276 1.379 . S
C282 C279 1.363 . S
C282 N280 1.356 . S
C283 C277 1.363 . S
C283 C278 1.379 . S
C283 N281 1.356 . S
N284 C276 1.356 . S
N284 H290 0.984 . S
N284 H291 0.984 . S
N285 C278 1.356 . S
N285 H288 0.984 . S
N285 H289 0.985 . S
H286 N281 0.984 . S
H287 N281 0.985 . S
H288 N285 0.984 . S
H289 N285 0.985 . S
H290 N284 0.984 . S
H291 N284 0.984 . S
H292 N280 0.984 . S
H293 N280 0.985 . S
C294 C295 1.363 . S
C294 C300 1.379 . S
C294 N302 1.356 . S
C295 C294 1.363 . S
C295 C301 1.363 . S
C296 C297 1.363 . S
C296 C301 1.379 . S
C296 N303 1.356 . S
C297 C296 1.363 . S
C297 C300 1.363 . S
N298 C300 1.356 . S
N298 H310 0.984 . S
N298 H311 0.985 . S
N299 C301 1.356 . S
N299 H304 0.984 . S
N299 H305 0.985 . S
C300 C294 1.379 . S
C300 C297 1.363 . S
C300 N298 1.356 . S
C301 C295 1.363 . S
C301 C296 1.379 . S
C301 N299 1.356 . S
N302 C294 1.356 . S
N302 H308 0.984 . S
N302 H309 0.984 . S
N303 C296 1.356 . S
N303 H306 0.984 . S
N303 H307 0.985 . S
H304 N299 0.984 . S
H305 N299 0.985 . S
H306 N303 0.984 . S
H307 N303 0.985 . S
H308 N302 0.984 . S
H309 N302 0.984 . S
H310 N298 0.984 . S
H311 N298 0.985 . S
C312 C313 1.363 . S
C312 C318 1.379 . S
C312 N320 1.356 . S
C313 C312 1.363 . S
C313 C319 1.363 . S
C314 C315 1.363 . S
C314 C319 1.379 . S
C314 N321 1.356 . S
C315 C314 1.363 . S
C315 C318 1.363 . S
N316 C318 1.356 . S
N316 H328 0.984 1_655 S
N316 H329 0.985 1_655 S
N317 C319 1.356 . S
N317 H322 0.984 . S
N317 H323 0.985 . S
C318 C312 1.379 . S
C318 C315 1.363 . S
C318 N316 1.356 . S
C319 C313 1.363 . S
C319 C314 1.379 . S
C319 N317 1.356 . S
N320 C312 1.356 . S
N320 H326 0.984 . S
N320 H327 0.984 . S
N321 C314 1.356 . S
N321 H324 0.984 . S
N321 H325 0.985 . S
H322 N317 0.984 . S
H323 N317 0.985 . S
H324 N321 0.984 . S
H325 N321 0.985 . S
H326 N320 0.984 . S
H327 N320 0.984 . S
H328 N316 0.984 1_455 S
H329 N316 0.985 1_455 S
C330 C331 1.363 . S
C330 C336 1.379 . S
C330 N338 1.356 . S
C331 C330 1.363 . S
C331 C337 1.363 . S
C332 C333 1.363 . S
C332 C337 1.379 . S
C332 N339 1.356 . S
C333 C332 1.363 . S
C333 C336 1.363 . S
N334 C336 1.356 . S
N334 H346 0.984 . S
N334 H347 0.985 1_565 S
N335 C337 1.356 . S
N335 H340 0.984 . S
N335 H341 0.985 . S
C336 C330 1.379 . S
C336 C333 1.363 . S
C336 N334 1.356 . S
C337 C331 1.363 . S
C337 C332 1.379 . S
C337 N335 1.356 . S
N338 C330 1.356 . S
N338 H344 0.984 . S
N338 H345 0.984 . S
N339 C332 1.356 . S
N339 H342 0.984 . S
N339 H343 0.985 . S
H340 N335 0.984 . S
H341 N335 0.985 . S
H342 N339 0.984 . S
H343 N339 0.985 . S
H344 N338 0.984 . S
H345 N338 0.984 . S
H346 N334 0.984 . S
H347 N334 0.985 1_545 S
C348 C349 1.363 . S
C348 C354 1.379 . S
C348 N356 1.356 . S
C349 C348 1.363 . S
C349 C355 1.363 . S
C350 C351 1.363 . S
C350 C355 1.379 . S
C350 N357 1.356 . S
C351 C350 1.363 . S
C351 C354 1.363 . S
N352 C354 1.356 . S
N352 H364 0.984 . S
N352 H365 0.985 . S
N353 C355 1.356 . S
N353 H358 0.984 . S
N353 H359 0.985 . S
C354 C348 1.379 . S
C354 C351 1.363 . S
C354 N352 1.356 . S
C355 C349 1.363 . S
C355 C350 1.379 . S
C355 N353 1.356 . S
N356 C348 1.356 . S
N356 H362 0.984 . S
N356 H363 0.984 . S
N357 C350 1.356 . S
N357 H360 0.984 . S
N357 H361 0.985 . S
H358 N353 0.984 . S
H359 N353 0.985 . S
H360 N357 0.984 . S
H361 N357 0.985 . S
H362 N356 0.984 . S
H363 N356 0.984 . S
H364 N352 0.984 . S
H365 N352 0.985 . S
C366 C367 1.363 . S
C366 C372 1.379 . S
C366 N374 1.356 . S
C367 C366 1.363 . S
C367 C373 1.363 . S
C368 C369 1.363 . S
C368 C373 1.379 . S
C368 N375 1.356 . S
C369 C368 1.363 . S
C369 C372 1.363 . S
N370 C372 1.356 . S
N370 H382 0.984 . S
N370 H383 0.985 . S
N371 C373 1.356 . S
N371 H376 0.984 . S
N371 H377 0.985 . S
C372 C366 1.379 . S
C372 C369 1.363 . S
C372 N370 1.356 . S
C373 C367 1.363 . S
C373 C368 1.379 . S
C373 N371 1.356 . S
N374 C366 1.356 . S
N374 H380 0.984 . S
N374 H381 0.984 . S
N375 C368 1.356 . S
N375 H378 0.984 . S
N375 H379 0.985 . S
H376 N371 0.984 . S
H377 N371 0.985 . S
H378 N375 0.984 . S
H379 N375 0.985 . S
H380 N374 0.984 . S
H381 N374 0.984 . S
H382 N370 0.984 . S
H383 N370 0.985 . S
C384 C385 1.363 . S
C384 C390 1.379 . S
C384 N392 1.356 . S
C385 C384 1.363 . S
C385 C391 1.363 . S
C386 C387 1.363 . S
C386 C391 1.379 . S
C386 N393 1.356 . S
C387 C386 1.363 . S
C387 C390 1.363 . S
N388 C390 1.356 . S
N388 H400 0.984 . S
N388 H401 0.985 . S
N389 C391 1.356 . S
N389 H394 0.984 . S
N389 H395 0.985 . S
C390 C384 1.379 . S
C390 C387 1.363 . S
C390 N388 1.356 . S
C391 C385 1.363 . S
C391 C386 1.379 . S
C391 N389 1.356 . S
N392 C384 1.356 . S
N392 H398 0.984 . S
N392 H399 0.984 . S
N393 C386 1.356 . S
N393 H396 0.984 . S
N393 H397 0.985 . S
H394 N389 0.984 . S
H395 N389 0.985 . S
H396 N393 0.984 . S
H397 N393 0.985 . S
H398 N392 0.984 . S
H399 N392 0.984 . S
H400 N388 0.984 . S
H401 N388 0.985 . S
C402 C403 1.363 . S
C402 C408 1.379 1_554 S
C402 N410 1.356 . S
C403 C402 1.363 . S
C403 C409 1.363 . S
C404 C405 1.363 . S
C404 C409 1.379 1_556 S
C404 N411 1.356 . S
C405 C404 1.363 . S
C405 C408 1.363 . S
N406 C408 1.356 . S
N406 H418 0.984 . S
N406 H419 0.985 . S
N407 C409 1.356 . S
N407 H412 0.984 . S
N407 H413 0.985 . S
C408 C402 1.379 1_556 S
C408 C405 1.363 . S
C408 N406 1.356 . S
C409 C403 1.363 . S
C409 C404 1.379 1_554 S
C409 N407 1.356 . S
N410 C402 1.356 . S
N410 H416 0.984 . S
N410 H417 0.984 . S
N411 C404 1.356 . S
N411 H414 0.984 . S
N411 H415 0.985 . S
H412 N407 0.984 . S
H413 N407 0.985 . S
H414 N411 0.984 . S
H415 N411 0.985 . S
H416 N410 0.984 . S
H417 N410 0.984 . S
H418 N406 0.984 . S
H419 N406 0.985 . S
C420 C421 1.363 . S
C420 C426 1.379 . S
C420 N428 1.356 . S
C421 C420 1.363 . S
C421 C427 1.361 1_545 S
C422 C423 1.362 1_565 S
C422 C427 1.379 . S
C422 N429 1.357 . S
C423 C422 1.362 1_545 S
C423 C426 1.363 . S
N424 C426 1.356 . S
N424 H436 0.984 . S
N424 H437 0.985 . S
N425 C427 1.358 . S
N425 H430 0.984 . S
N425 H431 0.985 . S
C426 C420 1.379 . S
C426 C423 1.363 . S
C426 N424 1.356 . S
C427 C421 1.361 1_565 S
C427 C422 1.379 . S
C427 N425 1.358 . S
N428 C420 1.356 . S
N428 H434 0.984 . S
N428 H435 0.984 . S
N429 C422 1.357 . S
N429 H432 0.984 . S
N429 H433 0.985 . S
H430 N425 0.984 . S
H431 N425 0.985 . S
H432 N429 0.984 . S
H433 N429 0.985 . S
H434 N428 0.984 . S
H435 N428 0.984 . S
H436 N424 0.984 . S
H437 N424 0.985 . S
C438 C439 1.363 . S
C438 C444 1.379 . S
C438 N446 1.356 . S
C439 C438 1.363 . S
C439 C445 1.363 . S
C440 C441 1.363 . S
C440 C445 1.379 . S
C440 N447 1.356 . S
C441 C440 1.363 . S
C441 C444 1.363 . S
N442 C444 1.356 . S
N442 H454 0.984 . S
N442 H455 0.985 . S
N443 C445 1.356 . S
N443 H448 0.984 . S
N443 H449 0.985 . S
C444 C438 1.379 . S
C444 C441 1.363 . S
C444 N442 1.356 . S
C445 C439 1.363 . S
C445 C440 1.379 . S
C445 N443 1.356 . S
N446 C438 1.356 . S
N446 H452 0.984 . S
N446 H453 0.984 . S
N447 C440 1.356 . S
N447 H450 0.984 . S
N447 H451 0.985 . S
H448 N443 0.984 . S
H449 N443 0.985 . S
H450 N447 0.984 . S
H451 N447 0.985 . S
H452 N446 0.984 . S
H453 N446 0.984 . S
H454 N442 0.984 . S
H455 N442 0.985 . S
C456 C457 1.363 1_565 S
C456 C462 1.379 . S
C456 N464 1.356 . S
C457 C456 1.363 1_545 S
C457 C463 1.363 . S
C458 C459 1.363 . S
C458 C463 1.379 . S
C458 N465 1.356 . S
C459 C458 1.363 . S
C459 C462 1.363 1_545 S
N460 C462 1.356 . S
N460 H472 0.984 . S
N460 H473 0.985 . S
N461 C463 1.356 . S
N461 H466 0.984 . S
N461 H467 0.985 . S
C462 C456 1.379 . S
C462 C459 1.363 1_565 S
C462 N460 1.356 . S
C463 C457 1.363 . S
C463 C458 1.379 . S
C463 N461 1.356 . S
N464 C456 1.356 . S
N464 H470 0.984 . S
N464 H471 0.984 . S
N465 C458 1.356 . S
N465 H468 0.984 . S
N465 H469 0.985 . S
H466 N461 0.984 . S
H467 N461 0.985 . S
H468 N465 0.984 . S
H469 N465 0.985 . S
H470 N464 0.984 . S
H471 N464 0.984 . S
H472 N460 0.984 . S
H473 N460 0.985 . S
C474 C475 1.363 . S
C474 C480 1.379 1_556 S
C474 N482 1.356 . S
C475 C474 1.363 . S
C475 C481 1.363 . S
C476 C477 1.363 1_556 S
C476 C481 1.379 . S
C476 N483 1.356 1_556 S
C477 C476 1.363 1_554 S
C477 C480 1.363 . S
N478 C480 1.356 . S
N478 H490 0.984 . S
N478 H491 0.985 . S
N479 C481 1.356 . S
N479 H484 0.984 . S
N479 H485 0.985 . S
C480 C474 1.379 1_554 S
C480 C477 1.363 . S
C480 N478 1.356 . S
C481 C475 1.363 . S
C481 C476 1.379 . S
C481 N479 1.356 . S
N482 C474 1.356 . S
N482 H488 0.984 . S
N482 H489 0.984 . S
N483 C476 1.356 1_554 S
N483 H486 0.984 . S
N483 H487 0.985 . S
H484 N479 0.984 . S
H485 N479 0.985 . S
H486 N483 0.984 . S
H487 N483 0.985 . S
H488 N482 0.984 . S
H489 N482 0.984 . S
H490 N478 0.984 . S
H491 N478 0.985 . S
C492 C493 1.363 1_655 S
C492 C498 1.379 . S
C492 N500 1.356 . S
C493 C492 1.363 1_455 S
C493 C499 1.363 . S
C494 C495 1.363 . S
C494 C499 1.379 . S
C494 N501 1.356 . S
C495 C494 1.363 . S
C495 C498 1.363 1_455 S
N496 C498 1.356 . S
N496 H508 0.984 . S
N496 H509 0.985 . S
N497 C499 1.356 . S
N497 H502 0.984 . S
N497 H503 0.985 . S
C498 C492 1.379 . S
C498 C495 1.363 1_655 S
C498 N496 1.356 . S
C499 C493 1.363 . S
C499 C494 1.379 . S
C499 N497 1.356 . S
N500 C492 1.356 . S
N500 H506 0.984 . S
N500 H507 0.984 . S
N501 C494 1.356 . S
N501 H504 0.984 . S
N501 H505 0.985 . S
H502 N497 0.984 . S
H503 N497 0.985 . S
H504 N501 0.984 . S
H505 N501 0.985 . S
H506 N500 0.984 . S
H507 N500 0.984 . S
H508 N496 0.984 . S
H509 N496 0.985 . S
C187 C10 3.178 . S
C189 C185 3.096 . S
C205 C55 1.354 . S
C207 C163 1.391 . S
C223 C90 1.974 . S
C225 C174 1.936 . S
C241 C19 3.015 . S
C243 C179 2.995 . S
C261 C157 1.267 . S
C259 C46 1.233 . S
C279 C168 1.946 . S
C277 C99 1.955 . S
C295 C50 1.969 . S
C297 C141 1.910 . S
C313 C95 0.860 . S
C315 C146 0.922 . S
C331 C6 1.254 . S
C333 C124 1.275 . S
C351 C135 1.878 . S
C349 C59 1.923 . S
C369 C152 0.834 . S
C367 C86 0.794 . S
C385 C15 1.400 . S
C387 C130 1.446 . S
C405 C147 1.138 . S
C403 C18 1.108 . S
C421 C49 1.505 . S
C423 C125 1.512 . S
C439 C98 1.412 . S
C441 C136 1.429 . S
C459 C169 1.448 . S
C457 C58 1.384 . S
C477 C180 1.790 . S
C475 C89 1.702 . S
C493 C9 1.512 . S
C495 C158 1.527 . S
