# Generated by pormake.
# Topology sqc, (4,8)-cn, num edge types: 1
# Building blocks:
#     Node 0, Type 0, BuildingBlock: MUDLON_clean_linker_0, # of connection points: 4
#     Node 1, Type 0, BuildingBlock: MUDLON_clean_linker_0, # of connection points: 4
#     Node 2, Type 0, BuildingBlock: MUDLON_clean_linker_0, # of connection points: 4
#     Node 3, Type 0, BuildingBlock: MUDLON_clean_linker_0, # of connection points: 4
#     Node 4, Type 0, BuildingBlock: MUDLON_clean_linker_0, # of connection points: 4
#     Node 5, Type 0, BuildingBlock: MUDLON_clean_linker_0, # of connection points: 4
#     Node 6, Type 0, BuildingBlock: MUDLON_clean_linker_0, # of connection points: 4
#     Node 7, Type 0, BuildingBlock: MUDLON_clean_linker_0, # of connection points: 4
#     Node 8, Type 1, BuildingBlock: TAGTUT_clean_sbu_3, # of connection points: 8
#     Node 9, Type 1, BuildingBlock: TAGTUT_clean_sbu_3, # of connection points: 8
#     Node 10, Type 1, BuildingBlock: TAGTUT_clean_sbu_3, # of connection points: 8
#     Node 11, Type 1, BuildingBlock: TAGTUT_clean_sbu_3, # of connection points: 8
#     Edge 12, Type (0, 1), BuildingBlock: AJUNOK_clean_linker_0, # of connection points: 2
#     Edge 13, Type (0, 1), BuildingBlock: AJUNOK_clean_linker_0, # of connection points: 2
#     Edge 14, Type (0, 1), BuildingBlock: AJUNOK_clean_linker_0, # of connection points: 2
#     Edge 15, Type (0, 1), BuildingBlock: AJUNOK_clean_linker_0, # of connection points: 2
#     Edge 16, Type (0, 1), BuildingBlock: AJUNOK_clean_linker_0, # of connection points: 2
#     Edge 17, Type (0, 1), BuildingBlock: AJUNOK_clean_linker_0, # of connection points: 2
#     Edge 18, Type (0, 1), BuildingBlock: AJUNOK_clean_linker_0, # of connection points: 2
#     Edge 19, Type (0, 1), BuildingBlock: AJUNOK_clean_linker_0, # of connection points: 2
#     Edge 20, Type (0, 1), BuildingBlock: AJUNOK_clean_linker_0, # of connection points: 2
#     Edge 21, Type (0, 1), BuildingBlock: AJUNOK_clean_linker_0, # of connection points: 2
#     Edge 22, Type (0, 1), BuildingBlock: AJUNOK_clean_linker_0, # of connection points: 2
#     Edge 23, Type (0, 1), BuildingBlock: AJUNOK_clean_linker_0, # of connection points: 2
#     Edge 24, Type (0, 1), BuildingBlock: AJUNOK_clean_linker_0, # of connection points: 2
#     Edge 25, Type (0, 1), BuildingBlock: AJUNOK_clean_linker_0, # of connection points: 2
#     Edge 26, Type (0, 1), BuildingBlock: AJUNOK_clean_linker_0, # of connection points: 2
#     Edge 27, Type (0, 1), BuildingBlock: AJUNOK_clean_linker_0, # of connection points: 2
#     Edge 28, Type (0, 1), BuildingBlock: AJUNOK_clean_linker_0, # of connection points: 2
#     Edge 29, Type (0, 1), BuildingBlock: AJUNOK_clean_linker_0, # of connection points: 2
#     Edge 30, Type (0, 1), BuildingBlock: AJUNOK_clean_linker_0, # of connection points: 2
#     Edge 31, Type (0, 1), BuildingBlock: AJUNOK_clean_linker_0, # of connection points: 2
#     Edge 32, Type (0, 1), BuildingBlock: AJUNOK_clean_linker_0, # of connection points: 2
#     Edge 33, Type (0, 1), BuildingBlock: AJUNOK_clean_linker_0, # of connection points: 2
#     Edge 34, Type (0, 1), BuildingBlock: AJUNOK_clean_linker_0, # of connection points: 2
#     Edge 35, Type (0, 1), BuildingBlock: AJUNOK_clean_linker_0, # of connection points: 2
#     Edge 36, Type (0, 1), BuildingBlock: AJUNOK_clean_linker_0, # of connection points: 2
#     Edge 37, Type (0, 1), BuildingBlock: AJUNOK_clean_linker_0, # of connection points: 2
#     Edge 38, Type (0, 1), BuildingBlock: AJUNOK_clean_linker_0, # of connection points: 2
#     Edge 39, Type (0, 1), BuildingBlock: AJUNOK_clean_linker_0, # of connection points: 2
#     Edge 40, Type (0, 1), BuildingBlock: AJUNOK_clean_linker_0, # of connection points: 2
#     Edge 41, Type (0, 1), BuildingBlock: AJUNOK_clean_linker_0, # of connection points: 2
#     Edge 42, Type (0, 1), BuildingBlock: AJUNOK_clean_linker_0, # of connection points: 2
#     Edge 43, Type (0, 1), BuildingBlock: AJUNOK_clean_linker_0, # of connection points: 2
# Relax obj value: 0.178
# Max RMSD: 0.281
# Mean RMSD: 0.215
data_MOF--net-sqc--node1-TAGTUT_clean_sbu_3--node2-MUDLON_clean_linker_0--edge1-AJUNOK_clean_linker_0
_symmetry_space_group_name_H-M    P1
_symmetry_Int_Tables_number       1
_symmetry_cell_setting            triclinic
loop_
_symmetry_equiv_pos_as_xyz
'x, y, z'
_cell_length_a     25.877999
_cell_length_b     25.875668
_cell_length_c     73.071715
_cell_angle_alpha  90.732384
_cell_angle_beta   90.003763
_cell_angle_gamma 89.902304
loop_
_atom_site_label
_atom_site_type_symbol
_atom_site_fract_x
_atom_site_fract_y
_atom_site_fract_z
_atom_type_partial_charge
H0 H 0.79497 0.93949 0.56484 0.0
N1 N 0.84993 0.96864 0.53607 0.0
H2 H 0.74457 0.99457 0.58591 0.0
H3 H 0.8413 0.07444 0.53499 0.0
H4 H 0.79071 0.12892 0.55557 0.0
H5 H 0.81311 0.02914 0.50827 0.0
H6 H 0.76136 1.0 0.48218 0.0
H7 H 0.81855 0.87332 0.52844 0.0
H8 H 0.76571 0.8441 0.50238 0.0
H9 H 0.92533 0.91534 0.55177 0.0
H10 H 0.89884 0.0405 0.51457 0.0
H11 H 0.01866 0.92604 0.54812 0.0
H12 H 0.991 0.0539 0.51181 0.0
H13 H 0.27402 0.98499 0.55147 0.0
H14 H 0.33203 0.02781 0.57317 0.0
H15 H 0.31878 0.16935 0.54278 0.0
H16 H 0.25847 0.12658 0.52161 0.0
H17 H 0.28136 0.05045 0.49042 0.0
H18 H 0.34024 0.99531 0.47271 0.0
H19 H 0.30984 0.86893 0.5092 0.0
H20 H 0.2498 0.92464 0.52675 0.0
H21 H 0.18279 0.99015 0.55153 0.0
H22 H 0.0904 0.97668 0.5552 0.0
H23 H 0.06607 0.02169 0.49904 0.0
N24 N 0.23188 0.02734 0.52086 0.0
H25 H 0.15834 0.03832 0.49596 0.0
C26 C 0.82265 0.00261 0.54851 0.0
C27 C 0.79426 0.98089 0.56284 0.0
C28 C 0.76491 0.01219 0.57464 0.0
C29 C 0.76333 0.06591 0.57222 0.0
C30 C 0.79129 0.08757 0.55773 0.0
C31 C 0.8206 0.05632 0.54598 0.0
C32 C 0.82081 0.95297 0.52015 0.0
C33 C 0.8038 0.9886 0.50704 0.0
C34 C 0.77371 0.97208 0.49221 0.0
C35 C 0.75957 0.91994 0.49037 0.0
C36 C 0.77578 0.88462 0.50362 0.0
C37 C 0.80631 0.90105 0.51834 0.0
C38 C 0.90471 0.97716 0.53366 0.0
C39 C 0.93965 0.94554 0.54299 0.0
C40 C 0.99308 0.95207 0.54098 0.0
C41 C 0.01297 0.99101 0.52967 0.0
C42 C 0.97763 0.02286 0.52039 0.0
C43 C 0.9243 0.0157 0.52219 0.0
C44 C 0.26079 0.05307 0.53516 0.0
C45 C 0.28226 0.0256 0.54979 0.0
C46 C 0.31613 0.04999 0.56203 0.0
C47 C 0.32998 0.10212 0.55977 0.0
C48 C 0.30808 0.12959 0.5452 0.0
C49 C 0.27366 0.10526 0.53309 0.0
C50 C 0.26143 0.99166 0.5098 0.0
C51 C 0.28685 0.01064 0.49441 0.0
C52 C 0.32071 0.97925 0.48445 0.0
C53 C 0.32998 0.92799 0.48969 0.0
C54 C 0.30323 0.90822 0.50482 0.0
C55 C 0.26913 0.93994 0.51486 0.0
C56 C 0.1777 0.01623 0.52347 0.0
C57 C 0.15777 0.99754 0.54003 0.0
C58 C 0.10453 0.98928 0.54206 0.0
C59 C 0.07007 0.99847 0.52749 0.0
C60 C 0.09071 0.01551 0.51078 0.0
C61 C 0.14366 0.02459 0.5089 0.0
H62 H 0.37782 0.49482 0.80749 0.0
N63 N 0.31993 0.52197 0.77783 0.0
H64 H 0.34964 0.44064 0.83293 0.0
H65 H 0.22935 0.47554 0.78165 0.0
H66 H 0.20139 0.42014 0.8068 0.0
H67 H 0.28519 0.48962 0.74567 0.0
H68 H 0.33408 0.44565 0.72138 0.0
H69 H 0.42361 0.50359 0.77804 0.0
H70 H 0.47306 0.45835 0.75385 0.0
H71 H 0.38689 0.57927 0.7985 0.0
H72 H 0.25848 0.58873 0.76125 0.0
H73 H 0.39132 0.67328 0.80019 0.0
H74 H 0.2646 0.68287 0.76171 0.0
H75 H 0.37875 0.94361 0.81075 0.0
H76 H 0.32927 0.00268 0.83052 0.0
H77 H 0.20648 0.00538 0.79054 0.0
H78 H 0.25629 0.9461 0.77081 0.0
H79 H 0.30014 0.902 0.74567 0.0
H80 H 0.32822 0.93869 0.71641 0.0
H81 H 0.46857 0.99276 0.74222 0.0
H82 H 0.44021 0.95611 0.77126 0.0
H83 H 0.42651 0.83716 0.78226 0.0
H84 H 0.41759 0.74339 0.78312 0.0
H85 H 0.2518 0.75974 0.7778 0.0
N86 N 0.35276 0.90705 0.77805 0.0
H87 H 0.26187 0.85308 0.77571 0.0
C88 C 0.30505 0.49011 0.7929 0.0
C89 C 0.33917 0.47913 0.8073 0.0
C90 C 0.32329 0.44768 0.82171 0.0
C91 C 0.27365 0.42573 0.82166 0.0
C92 C 0.2402 0.43578 0.80699 0.0
C93 C 0.25579 0.4678 0.79278 0.0
C94 C 0.35071 0.499 0.7636 0.0
C95 C 0.32628 0.48337 0.74741 0.0
C96 C 0.35423 0.45847 0.73361 0.0
C97 C 0.40727 0.44858 0.7358 0.0
C98 C 0.43234 0.46601 0.75178 0.0
C99 C 0.40413 0.49124 0.76564 0.0
C100 C 0.32167 0.57716 0.77998 0.0
C101 C 0.3593 0.60164 0.79081 0.0
C102 C 0.36224 0.65561 0.79151 0.0
C103 C 0.32845 0.68614 0.78102 0.0
C104 C 0.29064 0.6611 0.77028 0.0
C105 C 0.2872 0.60724 0.76988 0.0
C106 C 0.3213 0.94035 0.78942 0.0
C107 C 0.34108 0.95678 0.80632 0.0
C108 C 0.31291 0.99062 0.8175 0.0
C109 C 0.26408 0.00858 0.81203 0.0
C110 C 0.24381 0.99173 0.79514 0.0
C111 C 0.27231 0.95797 0.78386 0.0
C112 C 0.3682 0.9268 0.76059 0.0
C113 C 0.33694 0.92167 0.74495 0.0
C114 C 0.3531 0.94235 0.72828 0.0
C115 C 0.40094 0.96778 0.72699 0.0
C116 C 0.43216 0.97222 0.74267 0.0
C117 C 0.41587 0.95188 0.75928 0.0
C118 C 0.34505 0.8521 0.77912 0.0
C119 C 0.38832 0.82026 0.7813 0.0
C120 C 0.38297 0.76665 0.78197 0.0
C121 C 0.33386 0.74356 0.7807 0.0
C122 C 0.29033 0.77582 0.7786 0.0
C123 C 0.29592 0.8295 0.77759 0.0
H124 H 0.87752 0.03479 0.04395 0.0
N125 N 0.82906 0.97157 0.01901 0.0
H126 H 0.92586 0.00762 0.07085 0.0
H127 H 0.84529 0.87558 0.03025 0.0
H128 H 0.89532 0.84781 0.05696 0.0
H129 H 0.88982 0.94389 0.9914 0.0
H130 H 0.92944 0.99969 0.9686 0.0
H131 H 0.82579 0.07767 0.01892 0.0
H132 H 0.86383 0.13381 0.99572 0.0
H133 H 0.78157 0.02104 0.04816 0.0
H134 H 0.75414 0.94778 0.9957 0.0
H135 H 0.69001 0.03781 0.05155 0.0
H136 H 0.66235 0.96813 0.99829 0.0
H137 H 0.36972 0.07557 0.05434 0.0
H138 H 0.32771 0.03317 0.08005 0.0
H139 H 0.4385 0.90845 0.07627 0.0
H140 H 0.47764 0.94834 0.05005 0.0
H141 H 0.40453 0.96899 0.01436 0.0
H142 H 0.35816 0.98242 0.98555 0.0
H143 H 0.38258 0.14707 0.99114 0.0
H144 H 0.43145 0.13278 0.01932 0.0
H145 H 0.52926 0.10317 0.04638 0.0
H146 H 0.62171 0.08843 0.04177 0.0
H147 H 0.58708 0.94522 0.01307 0.0
N148 N 0.45154 0.04366 0.03531 0.0
H149 H 0.49546 0.96227 0.01674 0.0
C150 C 0.85831 0.957 0.03494 0.0
C151 C 0.88129 0.99395 0.04662 0.0
C152 C 0.90902 0.97833 0.06198 0.0
C153 C 0.91512 0.92553 0.06583 0.0
C154 C 0.89126 0.88873 0.05434 0.0
C155 C 0.86309 0.90445 0.03905 0.0
C156 C 0.85456 0.00636 0.00669 0.0
C157 C 0.88429 0.98532 0.99246 0.0
C158 C 0.90622 0.01722 0.97934 0.0
C159 C 0.89827 0.07101 0.98005 0.0
C160 C 0.87001 0.09246 0.99471 0.0
C161 C 0.84833 0.06041 0.00796 0.0
C162 C 0.77481 0.98188 0.02176 0.0
C163 C 0.75599 0.00841 0.03732 0.0
C164 C 0.7033 0.01884 0.03912 0.0
C165 C 0.6684 0.00437 0.02521 0.0
C166 C 0.68764 0.97882 0.00951 0.0
C167 C 0.74014 0.96736 0.00792 0.0
C168 C 0.42681 0.01576 0.04997 0.0
C169 C 0.38441 0.03866 0.05888 0.0
C170 C 0.36082 0.01461 0.0737 0.0
C171 C 0.37962 0.96723 0.08022 0.0
C172 C 0.42215 0.94422 0.07136 0.0
C173 C 0.44503 0.9677 0.05628 0.0
C174 C 0.42143 0.05009 0.01891 0.0
C175 C 0.40016 0.00786 0.00927 0.0
C176 C 0.37327 0.01568 0.99291 0.0
C177 C 0.36633 0.06591 0.98611 0.0
C178 C 0.38769 0.10789 0.99587 0.0
C179 C 0.41509 0.09994 0.01205 0.0
C180 C 0.5056 0.03384 0.03207 0.0
C181 C 0.54195 0.0689 0.03899 0.0
C182 C 0.59472 0.06005 0.03646 0.0
C183 C 0.61218 0.0153 0.02717 0.0
C184 C 0.57538 0.98054 0.02001 0.0
C185 C 0.52269 0.99008 0.02219 0.0
H186 H 0.32115 0.54859 0.2912 0.0
N187 N 0.37704 0.4907 0.26623 0.0
H188 H 0.35495 0.59473 0.31771 0.0
H189 H 0.47425 0.49312 0.27811 0.0
H190 H 0.50844 0.53959 0.30498 0.0
H191 H 0.40745 0.54522 0.23754 0.0
H192 H 0.35367 0.5963 0.21682 0.0
H193 H 0.27174 0.50378 0.26824 0.0
H194 H 0.21857 0.55642 0.24833 0.0
H195 H 0.3117 0.45348 0.29265 0.0
H196 H 0.40639 0.40868 0.24654 0.0
H197 H 0.28935 0.36362 0.29763 0.0
H198 H 0.38293 0.31799 0.25115 0.0
H199 H 0.264 0.12597 0.32803 0.0
H200 H 0.31304 0.08676 0.35307 0.0
H201 H 0.42726 0.03263 0.31423 0.0
H202 H 0.37871 0.07207 0.28946 0.0
H203 H 0.33786 0.09239 0.26156 0.0
H204 H 0.30829 0.02934 0.2387 0.0
H205 H 0.16552 0.01101 0.26841 0.0
H206 H 0.19581 0.07387 0.29156 0.0
H207 H 0.22161 0.20308 0.29257 0.0
H208 H 0.2409 0.29277 0.28481 0.0
H209 H 0.3986 0.24918 0.27258 0.0
N210 N 0.2858 0.12315 0.29254 0.0
H211 H 0.37854 0.15978 0.27985 0.0
C212 C 0.39545 0.51789 0.28234 0.0
C213 C 0.36209 0.54632 0.2939 0.0
C214 C 0.38145 0.57269 0.30917 0.0
C215 C 0.43439 0.57103 0.31335 0.0
C216 C 0.46749 0.54144 0.30214 0.0
C217 C 0.44811 0.51521 0.28676 0.0
C218 C 0.34393 0.52045 0.2544 0.0
C219 C 0.3662 0.5476 0.23991 0.0
C220 C 0.33553 0.57734 0.22827 0.0
C221 C 0.28188 0.58104 0.23107 0.0
C222 C 0.25974 0.55425 0.24575 0.0
C223 C 0.29026 0.52404 0.25719 0.0
C224 C 0.36122 0.43796 0.26921 0.0
C225 C 0.3275 0.42443 0.28348 0.0
C226 C 0.31434 0.37278 0.28624 0.0
C227 C 0.3343 0.33344 0.27479 0.0
C228 C 0.3674 0.34718 0.26038 0.0
C229 C 0.38062 0.39892 0.25765 0.0
C230 C 0.31726 0.10181 0.30689 0.0
C231 C 0.29995 0.10615 0.32501 0.0
C232 C 0.32799 0.0839 0.33924 0.0
C233 C 0.37423 0.05713 0.33561 0.0
C234 C 0.39238 0.05401 0.3175 0.0
C235 C 0.36422 0.07616 0.30326 0.0
C236 C 0.26911 0.08751 0.27842 0.0
C237 C 0.30044 0.07467 0.26331 0.0
C238 C 0.28356 0.03848 0.25026 0.0
C239 C 0.23494 0.01483 0.25197 0.0
C240 C 0.20324 0.02851 0.26685 0.0
C241 C 0.22042 0.06427 0.28002 0.0
C242 C 0.29844 0.1748 0.28693 0.0
C243 C 0.26017 0.21299 0.28806 0.0
C244 C 0.27141 0.2642 0.28375 0.0
C245 C 0.32146 0.27833 0.27822 0.0
C246 C 0.35954 0.23963 0.27662 0.0
C247 C 0.34816 0.18835 0.28091 0.0
H248 H 0.87092 0.98577 0.30136 0.0
N249 N 0.80673 0.01706 0.27394 0.0
H250 H 0.84626 0.93356 0.32793 0.0
H251 H 0.71411 0.97992 0.2817 0.0
H252 H 0.68949 0.92693 0.30789 0.0
H253 H 0.78247 0.94976 0.24787 0.0
H254 H 0.8393 0.9127 0.22447 0.0
H255 H 0.91114 0.03179 0.27168 0.0
H256 H 0.96842 0.99662 0.24768 0.0
H257 H 0.84737 0.07789 0.30152 0.0
H258 H 0.77095 0.08172 0.24917 0.0
H259 H 0.85147 0.17178 0.30217 0.0
H260 H 0.77837 0.17546 0.24892 0.0
H261 H 0.88335 0.48179 0.29025 0.0
H262 H 0.84061 0.54262 0.31113 0.0
H263 H 0.69684 0.46022 0.30364 0.0
H264 H 0.73887 0.40226 0.28176 0.0
H265 H 0.77483 0.43022 0.24548 0.0
H266 H 0.79721 0.47335 0.21685 0.0
H267 H 0.95878 0.46682 0.23166 0.0
H268 H 0.93603 0.42149 0.25971 0.0
H269 H 0.9035 0.33518 0.28873 0.0
H270 H 0.89398 0.24143 0.28992 0.0
H271 H 0.74979 0.25337 0.26019 0.0
N272 N 0.84217 0.40243 0.27233 0.0
H273 H 0.76232 0.34617 0.25786 0.0
C274 C 0.79386 0.98742 0.28982 0.0
C275 C 0.83122 0.97341 0.30283 0.0
C276 C 0.81725 0.94337 0.31786 0.0
C277 C 0.76608 0.92614 0.31983 0.0
C278 C 0.72927 0.93934 0.30657 0.0
C279 C 0.74306 0.96991 0.29176 0.0
C280 C 0.84252 0.99355 0.26131 0.0
C281 C 0.82315 0.95957 0.248 0.0
C282 C 0.85559 0.93894 0.23459 0.0
C283 C 0.90822 0.95231 0.23409 0.0
C284 C 0.92814 0.98539 0.24778 0.0
C285 C 0.8955 0.00565 0.26141 0.0
C286 C 0.80801 0.07267 0.27536 0.0
C287 C 0.83128 0.09884 0.29016 0.0
C288 C 0.83423 0.15286 0.29038 0.0
C289 C 0.81532 0.18181 0.27558 0.0
C290 C 0.79226 0.15513 0.2608 0.0
C291 C 0.78828 0.10137 0.26081 0.0
C292 C 0.81492 0.43684 0.28466 0.0
C293 C 0.84251 0.4772 0.29302 0.0
C294 C 0.81798 0.51181 0.30497 0.0
C295 C 0.7652 0.50637 0.30912 0.0
C296 C 0.73723 0.46632 0.3005 0.0
C297 C 0.76164 0.43234 0.28817 0.0
C298 C 0.85401 0.4227 0.25461 0.0
C299 C 0.81507 0.43692 0.24228 0.0
C300 C 0.82791 0.46211 0.22606 0.0
C301 C 0.87974 0.47427 0.22214 0.0
C302 C 0.91858 0.45777 0.2342 0.0
C303 C 0.90574 0.43215 0.25024 0.0
C304 C 0.83347 0.34765 0.27345 0.0
C305 C 0.86989 0.31726 0.28253 0.0
C306 C 0.864 0.26367 0.28332 0.0
C307 C 0.82088 0.23927 0.27524 0.0
C308 C 0.78399 0.27025 0.26632 0.0
C309 C 0.79065 0.32371 0.26518 0.0
H310 H 0.78318 0.07071 0.80733 0.0
N311 N 0.81368 0.00399 0.7818 0.0
H312 H 0.8356 0.11322 0.83078 0.0
H313 H 0.91865 0.99271 0.7865 0.0
H314 H 0.97061 0.03142 0.81087 0.0
H315 H 0.87344 0.03353 0.75305 0.0
H316 H 0.84447 0.08393 0.72655 0.0
H317 H 0.72076 0.04379 0.77625 0.0
H318 H 0.69181 0.09489 0.75012 0.0
H319 H 0.74626 0.93773 0.79562 0.0
H320 H 0.88342 0.94596 0.76249 0.0
H321 H 0.74797 0.84345 0.7933 0.0
H322 H 0.88874 0.85233 0.76143 0.0
H323 H 0.79923 0.55327 0.80092 0.0
H324 H 0.8291 0.51375 0.82888 0.0
H325 H 0.96741 0.60722 0.82742 0.0
H326 H 0.93935 0.64287 0.7982 0.0
H327 H 0.89596 0.54887 0.75748 0.0
H328 H 0.85148 0.48977 0.73631 0.0
H329 H 0.70459 0.554 0.7531 0.0
H330 H 0.74956 0.61233 0.77468 0.0
H331 H 0.80075 0.67828 0.80462 0.0
H332 H 0.78834 0.77143 0.80408 0.0
H333 H 0.85865 0.77565 0.75034 0.0
N334 N 0.85421 0.61999 0.77934 0.0
H335 H 0.87517 0.68307 0.75193 0.0
C336 C 0.84653 0.02811 0.7953 0.0
C337 C 0.82417 0.06237 0.80796 0.0
C338 C 0.85421 0.0862 0.82145 0.0
C339 C 0.90743 0.07554 0.82284 0.0
C340 C 0.93001 0.04126 0.81005 0.0
C341 C 0.89999 0.01839 0.79621 0.0
C342 C 0.79875 0.03435 0.76637 0.0
C343 C 0.83374 0.04654 0.75239 0.0
C344 C 0.81729 0.07552 0.73738 0.0
C345 C 0.76595 0.09324 0.73637 0.0
C346 C 0.73166 0.08209 0.75067 0.0
C347 C 0.74793 0.0527 0.76547 0.0
C348 C 0.81515 0.9487 0.77958 0.0
C349 C 0.77705 0.91896 0.788 0.0
C350 C 0.77851 0.86501 0.78678 0.0
C351 C 0.81891 0.83955 0.77737 0.0
C352 C 0.85649 0.86993 0.76859 0.0
C353 C 0.85412 0.92386 0.76943 0.0
C354 C 0.86779 0.60028 0.79713 0.0
C355 C 0.83604 0.56534 0.80651 0.0
C356 C 0.8528 0.54342 0.82284 0.0
C357 C 0.90057 0.55759 0.83063 0.0
C358 C 0.93075 0.59485 0.82174 0.0
C359 C 0.91472 0.61548 0.80509 0.0
C360 C 0.82622 0.58546 0.76731 0.0
C361 C 0.8542 0.55008 0.75658 0.0
C362 C 0.82877 0.51654 0.74453 0.0
C363 C 0.77469 0.51803 0.74287 0.0
C364 C 0.74632 0.55225 0.7541 0.0
C365 C 0.7719 0.5858 0.76626 0.0
C366 C 0.84021 0.67392 0.77847 0.0
C367 C 0.81372 0.69935 0.79277 0.0
C368 C 0.80605 0.75285 0.7923 0.0
C369 C 0.82314 0.78189 0.77726 0.0
C370 C 0.84652 0.75539 0.76246 0.0
C371 C 0.85547 0.70224 0.7632 0.0
H372 H 0.32641 0.58374 0.9849 0.0
N373 N 0.35021 0.55807 0.01891 0.0
H374 H 0.27559 0.53371 0.96256 0.0
H375 H 0.30785 0.46229 0.02418 0.0
H376 H 0.25882 0.41149 0.00181 0.0
H377 H 0.34544 0.50542 0.05127 0.0
H378 H 0.29378 0.52932 0.07811 0.0
H379 H 0.29021 0.64037 0.02328 0.0
H380 H 0.23893 0.66493 0.05022 0.0
H381 H 0.42579 0.62646 0.01525 0.0
H382 H 0.39821 0.46609 0.027 0.0
H383 H 0.51901 0.61243 0.01854 0.0
H384 H 0.49081 0.45149 0.02995 0.0
H385 H 0.77497 0.54099 0.00416 0.0
H386 H 0.83498 0.50058 0.98251 0.0
H387 H 0.81405 0.35385 0.00892 0.0
H388 H 0.75361 0.39474 0.03069 0.0
H389 H 0.78377 0.47149 0.06353 0.0
H390 H 0.84341 0.52701 0.08073 0.0
H391 H 0.80613 0.65424 0.04537 0.0
H392 H 0.74553 0.5986 0.02848 0.0
H393 H 0.68495 0.55519 0.00775 0.0
H394 H 0.59222 0.56977 0.00389 0.0
H395 H 0.56168 0.47223 0.05022 0.0
N396 N 0.73093 0.49476 0.03378 0.0
H397 H 0.65455 0.45725 0.05371 0.0
C398 C 0.32193 0.52647 0.00601 0.0
C399 C 0.3119 0.54605 0.98859 0.0
C400 C 0.28289 0.51751 0.97591 0.0
C401 C 0.26375 0.46847 0.98041 0.0
C402 C 0.27294 0.44925 0.99801 0.0
C403 C 0.30167 0.47799 0.01072 0.0
C404 C 0.32207 0.57161 0.0353 0.0
C405 C 0.32236 0.54023 0.05088 0.0
C406 C 0.29256 0.55373 0.06618 0.0
C407 C 0.26166 0.59848 0.06612 0.0
C408 C 0.26126 0.6295 0.05049 0.0
C409 C 0.29109 0.61604 0.03523 0.0
C410 C 0.40481 0.54762 0.02084 0.0
C411 C 0.43989 0.5882 0.01845 0.0
C412 C 0.49314 0.57999 0.02022 0.0
C413 C 0.51257 0.53078 0.0245 0.0
C414 C 0.47727 0.49004 0.02688 0.0
C415 C 0.42403 0.49831 0.02508 0.0
C416 C 0.75963 0.47072 0.01907 0.0
C417 C 0.78242 0.50002 0.00516 0.0
C418 C 0.81728 0.47702 0.99293 0.0
C419 C 0.82996 0.42437 0.99433 0.0
C420 C 0.80519 0.39458 0.00763 0.0
C421 C 0.77054 0.41772 0.01996 0.0
C422 C 0.76005 0.53079 0.04485 0.0
C423 C 0.78778 0.51161 0.05973 0.0
C424 C 0.82221 0.54319 0.06936 0.0
C425 C 0.82975 0.59484 0.06428 0.0
C426 C 0.80084 0.6147 0.04966 0.0
C427 C 0.7662 0.5829 0.04 0.0
C428 C 0.67669 0.50488 0.03104 0.0
C429 C 0.65842 0.53695 0.01707 0.0
C430 C 0.60522 0.54546 0.01494 0.0
C431 C 0.56929 0.52206 0.02671 0.0
C432 C 0.588 0.49023 0.04071 0.0
C433 C 0.64105 0.48185 0.04282 0.0
H434 H 0.39957 0.5812 0.55974 0.0
N435 N 0.32718 0.55309 0.53593 0.0
H436 H 0.44439 0.52747 0.58199 0.0
H437 H 0.3178 0.44656 0.53976 0.0
H438 H 0.35899 0.39417 0.56271 0.0
H439 H 0.38864 0.49517 0.51296 0.0
H440 H 0.43011 0.52484 0.48496 0.0
H441 H 0.32381 0.64693 0.52183 0.0
H442 H 0.36196 0.67606 0.49314 0.0
H443 H 0.24889 0.6035 0.5515 0.0
H444 H 0.28426 0.48147 0.51292 0.0
H445 H 0.15678 0.58958 0.54656 0.0
H446 H 0.19322 0.4623 0.50955 0.0
H447 H 0.87318 0.51901 0.53715 0.0
H448 H 0.82971 0.50019 0.56557 0.0
H449 H 0.93275 0.37104 0.57409 0.0
H450 H 0.97332 0.38732 0.54451 0.0
H451 H 0.90651 0.41234 0.49426 0.0
H452 H 0.8577 0.44883 0.46875 0.0
H453 H 0.88518 0.60255 0.49035 0.0
H454 H 0.93579 0.56561 0.51544 0.0
H455 H 0.99749 0.51891 0.54969 0.0
H456 H 0.0877 0.54123 0.55272 0.0
H457 H 0.11619 0.48088 0.49803 0.0
N458 N 0.95333 0.46307 0.52133 0.0
H459 H 0.02708 0.45236 0.49626 0.0
C460 C 0.35465 0.51885 0.54812 0.0
C461 C 0.39111 0.54025 0.56015 0.0
C462 C 0.41629 0.50948 0.57296 0.0
C463 C 0.40511 0.45639 0.57425 0.0
C464 C 0.36931 0.43461 0.56195 0.0
C465 C 0.34496 0.46521 0.54885 0.0
C466 C 0.35387 0.56927 0.51967 0.0
C467 C 0.38325 0.53486 0.50886 0.0
C468 C 0.40608 0.55168 0.49263 0.0
C469 C 0.3986 0.60267 0.48658 0.0
C470 C 0.36881 0.6367 0.4974 0.0
C471 C 0.34701 0.62019 0.51379 0.0
C472 C 0.27318 0.54262 0.53304 0.0
C473 C 0.2365 0.57286 0.54227 0.0
C474 C 0.18378 0.56435 0.53952 0.0
C475 C 0.16661 0.52415 0.52781 0.0
C476 C 0.20401 0.49428 0.51841 0.0
C477 C 0.25654 0.50435 0.52061 0.0
C478 C 0.92633 0.45383 0.53835 0.0
C479 C 0.88643 0.48627 0.54488 0.0
C480 C 0.86206 0.47611 0.56151 0.0
C481 C 0.87825 0.43465 0.5724 0.0
C482 C 0.91893 0.40308 0.56604 0.0
C483 C 0.94221 0.41229 0.54914 0.0
C484 C 0.92378 0.48611 0.50683 0.0
C485 C 0.90178 0.45384 0.49347 0.0
C486 C 0.87393 0.47475 0.47898 0.0
C487 C 0.8669 0.5285 0.47776 0.0
C488 C 0.89002 0.56101 0.49095 0.0
C489 C 0.91845 0.54002 0.50534 0.0
C490 C 0.00556 0.48236 0.52288 0.0
C491 C 0.02321 0.50966 0.53844 0.0
C492 C 0.0752 0.52337 0.54002 0.0
C493 C 0.11037 0.51241 0.52575 0.0
C494 C 0.09146 0.48825 0.50971 0.0
C495 C 0.0401 0.47251 0.5085 0.0
C496 C 0.14747 0.68014 0.1778 0.0
C497 C 0.95747 0.61947 0.16881 0.0
C498 C 0.96723 0.69228 0.11613 0.0
Mg499 Mg 0.20663 0.78187 0.16197 0.0
Mg500 Mg 0.14227 0.88653 0.15068 0.0
O501 O 0.15008 0.81501 0.14756 0.0
Mg502 Mg 0.09175 0.76807 0.15322 0.0
O503 O 0.03689 0.71687 0.15883 0.0
Mg504 Mg 0.06365 0.65506 0.14504 0.0
Mg505 Mg 0.96714 0.73287 0.1554 0.0
C506 C 0.04332 0.86022 0.12683 0.0
O507 O 0.05292 0.82334 0.17425 0.0
O508 O 0.26173 0.83662 0.14585 0.0
O509 O 0.96801 0.80682 0.16975 0.0
O510 O 0.20063 0.84284 0.18591 0.0
O511 O 0.2148 0.90704 0.13874 0.0
O512 O 0.1443 0.90502 0.17925 0.0
O513 O 0.12491 0.70996 0.13223 0.0
O514 O 0.20854 0.7226 0.13861 0.0
C515 C 0.17285 0.69944 0.12953 0.0
C516 C 0.2568 0.88089 0.13819 0.0
O517 O 0.04418 0.81216 0.13125 0.0
O518 O 1.00039 0.60837 0.16071 0.0
O519 O 0.0736 0.89408 0.13403 0.0
O520 O 0.00616 0.66494 0.12089 0.0
O521 O 0.93825 0.66515 0.16865 0.0
O522 O 0.94809 0.72622 0.12696 0.0
O523 O 0.1439 0.72894 0.17484 0.0
O524 O 0.11986 0.64759 0.16879 0.0
C525 C 0.17547 0.88381 0.1904 0.0
C526 C 0.0048 0.8333 0.17705 0.0
C527 C 0.66995 0.813 0.42902 0.0
C528 C 0.73346 0.62202 0.42298 0.0
C529 C 0.67642 0.63165 0.3677 0.0
Mg530 Mg 0.57149 0.86826 0.41051 0.0
Mg531 Mg 0.47094 0.80062 0.39721 0.0
O532 O 0.54229 0.81081 0.39495 0.0
Mg533 Mg 0.58932 0.7534 0.40212 0.0
O534 O 0.63993 0.7001 0.40952 0.0
Mg535 Mg 0.70478 0.7276 0.39821 0.0
Mg536 Mg 0.62433 0.6306 0.40485 0.0
C537 C 0.5025 0.70091 0.37408 0.0
O538 O 0.53166 0.71491 0.42177 0.0
O539 O 0.51643 0.9228 0.39387 0.0
O540 O 0.54841 0.62983 0.4178 0.0
O541 O 0.50822 0.86122 0.43289 0.0
O542 O 0.44872 0.87298 0.3857 0.0
O543 O 0.44909 0.80226 0.42554 0.0
O544 O 0.65148 0.78686 0.38297 0.0
O545 O 0.63487 0.87069 0.38865 0.0
C546 C 0.66122 0.83503 0.38058 0.0
C547 C 0.47254 0.91635 0.38582 0.0
O548 O 0.55 0.70319 0.37935 0.0
O549 O 0.74721 0.66535 0.41594 0.0
O550 O 0.46724 0.73145 0.38028 0.0
O551 O 0.70313 0.66914 0.37412 0.0
O552 O 0.6887 0.6024 0.42017 0.0
O553 O 0.63841 0.61288 0.37645 0.0
O554 O 0.62252 0.80679 0.42449 0.0
O555 O 0.70596 0.78595 0.42168 0.0
C556 C 0.46797 0.83494 0.43688 0.0
C557 C 0.52145 0.66706 0.42469 0.0
C558 C 0.65426 0.18014 0.67588 0.0
C559 C 0.47082 0.10018 0.669 0.0
C560 C 0.46665 0.17975 0.61677 0.0
Mg561 Mg 0.70354 0.28418 0.65995 0.0
Mg562 Mg 0.63543 0.38665 0.64833 0.0
O563 O 0.64274 0.31497 0.64703 0.0
Mg564 Mg 0.58786 0.26353 0.65275 0.0
O565 O 0.53862 0.2067 0.65847 0.0
Mg566 Mg 0.56942 0.14784 0.64404 0.0
Mg567 Mg 0.46732 0.21457 0.65647 0.0
C568 C 0.52957 0.35508 0.62875 0.0
O569 O 0.54509 0.31374 0.67511 0.0
O570 O 0.75439 0.33931 0.64275 0.0
O571 O 0.46297 0.2848 0.67244 0.0
O572 O 0.70061 0.34555 0.68349 0.0
O573 O 0.70435 0.40502 0.63326 0.0
O574 O 0.64827 0.41068 0.67601 0.0
O575 O 0.62342 0.20837 0.63062 0.0
O576 O 0.7059 0.22644 0.6367 0.0
C577 C 0.67185 0.2017 0.62749 0.0
C578 C 0.74746 0.38062 0.63349 0.0
O579 O 0.53478 0.30639 0.63193 0.0
O580 O 0.5139 0.09423 0.66043 0.0
O581 O 0.56039 0.38979 0.63516 0.0
O582 O 0.50756 0.15411 0.62069 0.0
O583 O 0.44629 0.14321 0.66914 0.0
O584 O 0.44657 0.21128 0.62827 0.0
O585 O 0.64475 0.22829 0.67349 0.0
O586 O 0.62985 0.14484 0.66696 0.0
C587 C 0.67845 0.38864 0.68727 0.0
C588 C 0.49671 0.31555 0.67944 0.0
C589 C 0.17438 0.31942 0.93006 0.0
C590 C 0.23654 0.12735 0.92511 0.0
C591 C 0.17351 0.13501 0.86944 0.0
Mg592 Mg 0.07531 0.37425 0.91208 0.0
Mg593 Mg 0.97288 0.30783 0.89917 0.0
O594 O 0.04458 0.31591 0.89727 0.0
Mg595 Mg 0.09131 0.25843 0.90461 0.0
O596 O 0.14202 0.20483 0.91195 0.0
Mg597 Mg 0.20572 0.23123 0.89962 0.0
Mg598 Mg 0.12701 0.13488 0.90757 0.0
C599 C 0.00299 0.20314 0.87846 0.0
O600 O 0.03338 0.22052 0.92471 0.0
O601 O 0.02181 0.42757 0.89488 0.0
O602 O 0.05085 0.13565 0.91991 0.0
O603 O 0.01176 0.37052 0.93473 0.0
O604 O 0.95293 0.37963 0.88633 0.0
O605 O 0.95071 0.31363 0.92724 0.0
O606 O 0.1523 0.29022 0.88479 0.0
O607 O 0.13796 0.37453 0.88998 0.0
C608 C 0.16284 0.33791 0.8819 0.0
C609 C 0.9784 0.42208 0.8865 0.0
O610 O 0.05119 0.20732 0.88258 0.0
O611 O 0.24929 0.16982 0.91726 0.0
O612 O 0.96812 0.23428 0.8846 0.0
O613 O 0.20038 0.17305 0.87541 0.0
O614 O 0.19177 0.10703 0.92299 0.0
O615 O 0.13757 0.11575 0.8791 0.0
O616 O 0.12638 0.31329 0.92625 0.0
O617 O 0.20924 0.29072 0.92275 0.0
C618 C 0.97025 0.346 0.93855 0.0
C619 C 0.02317 0.17224 0.92683 0.0
C620 C 0.41733 0.91857 0.47568 0.0
C621 C 0.36874 0.89686 0.47935 0.0
C622 C 0.45127 0.89552 0.4631 0.0
C623 C 0.43783 0.84995 0.45349 0.0
H624 H 0.42825 0.95512 0.48196 0.0
H625 H 0.48687 0.91566 0.46008 0.0
S626 S 0.3191 0.77239 0.46089 0.0
N627 N 0.31174 0.82347 0.47443 0.0
N628 N 0.37563 0.77966 0.45075 0.0
C629 C 0.39137 0.82518 0.45835 0.0
C630 C 0.35679 0.84875 0.47129 0.0
C631 C 0.38309 0.02913 0.70165 0.0
C632 C 0.41675 0.99366 0.70987 0.0
C633 C 0.40006 0.06107 0.68754 0.0
C634 C 0.45128 0.0586 0.681 0.0
H635 H 0.34423 0.03441 0.70688 0.0
H636 H 0.37335 0.08956 0.68229 0.0
S637 S 0.55225 0.96648 0.69626 0.0
N638 N 0.50167 0.95353 0.70918 0.0
N639 N 0.53387 0.01358 0.68267 0.0
C640 C 0.48416 0.02046 0.6882 0.0
C641 C 0.46687 0.98812 0.70267 0.0
C642 C 0.35313 0.11072 0.95618 0.0
C643 C 0.33548 0.07541 0.96928 0.0
C644 C 0.32208 0.12516 0.94136 0.0
C645 C 0.27207 0.10478 0.93896 0.0
H646 H 0.39087 0.12836 0.95765 0.0
H647 H 0.33688 0.15385 0.93206 0.0
S648 S 0.20874 0.00857 0.96901 0.0
N649 N 0.26552 0.01908 0.9786 0.0
N650 N 0.20765 0.04476 0.9506 0.0
C651 C 0.25502 0.06732 0.9515 0.0
C652 C 0.28655 0.05302 0.96667 0.0
C653 C 0.17042 0.98504 0.22856 0.0
C654 C 0.2171 0.97693 0.23793 0.0
C655 C 0.15591 0.95303 0.21379 0.0
C656 C 0.18725 0.91131 0.20794 0.0
H657 H 0.14603 0.01768 0.23216 0.0
H658 H 0.12055 0.96211 0.20656 0.0
S659 S 0.31021 0.8702 0.22972 0.0
N660 N 0.29217 0.92178 0.24163 0.0
N661 N 0.2652 0.8614 0.21398 0.0
C662 C 0.23252 0.90107 0.21802 0.0
C663 C 0.24742 0.93399 0.23294 0.0
C664 C 0.41315 0.09968 0.57735 0.0
C665 C 0.36808 0.12674 0.57245 0.0
C666 C 0.44699 0.11904 0.59075 0.0
C667 C 0.43706 0.16621 0.59992 0.0
H668 H 0.42173 0.06245 0.57111 0.0
H669 H 0.47969 0.09536 0.59459 0.0
S670 S 0.32797 0.25552 0.59043 0.0
N671 N 0.3178 0.20551 0.57666 0.0
N672 N 0.38173 0.24235 0.60161 0.0
C673 C 0.39399 0.19539 0.59425 0.0
C674 C 0.35946 0.17559 0.58059 0.0
C675 C 0.26093 0.08934 0.83098 0.0
C676 C 0.23549 0.04527 0.82412 0.0
C677 C 0.23861 0.12042 0.84466 0.0
C678 C 0.19014 0.10828 0.85227 0.0
H679 H 0.29936 0.09883 0.8262 0.0
H680 H 0.26107 0.15255 0.84997 0.0
S681 S 0.10421 0.00133 0.83693 0.0
N682 N 0.15673 0.99428 0.82429 0.0
N683 N 0.11458 0.05249 0.85016 0.0
C684 C 0.16255 0.06645 0.84452 0.0
C685 C 0.18526 0.03501 0.83041 0.0
C686 C 0.33902 0.97295 0.11135 0.0
C687 C 0.35467 0.94239 0.09624 0.0
C688 C 0.31027 0.95192 0.12568 0.0
C689 C 0.29725 0.89927 0.12569 0.0
H690 H 0.34769 0.01389 0.11187 0.0
H691 H 0.29651 0.9774 0.13652 0.0
S692 S 0.32927 0.80202 0.08978 0.0
N693 N 0.3549 0.85627 0.08236 0.0
N694 N 0.30286 0.81657 0.10976 0.0
C695 C 0.31481 0.8676 0.11124 0.0
C696 C 0.34311 0.88918 0.0964 0.0
C697 C 0.37095 0.99316 0.36078 0.0
C698 C 0.40022 0.02753 0.35027 0.0
C699 C 0.39472 0.95936 0.37297 0.0
C700 C 0.44873 0.9588 0.37531 0.0
H701 H 0.32949 0.99054 0.35892 0.0
H702 H 0.37059 0.93219 0.3802 0.0
S703 S 0.54235 0.04504 0.35242 0.0
N704 N 0.48564 0.06204 0.344 0.0
N705 N 0.53053 0.99832 0.36704 0.0
C706 C 0.47828 0.99503 0.36568 0.0
C707 C 0.454 0.02928 0.35308 0.0
C708 C 0.76453 0.14181 0.5933 0.0
C709 C 0.73694 0.1002 0.5857 0.0
C710 C 0.74233 0.17432 0.60646 0.0
C711 C 0.69133 0.16689 0.61271 0.0
H712 H 0.8042 0.14884 0.58928 0.0
H713 H 0.76589 0.2056 0.61183 0.0
S714 S 0.60152 0.06468 0.59641 0.0
N715 N 0.65523 0.05394 0.58472 0.0
N716 N 0.61318 0.11544 0.60971 0.0
C717 C 0.66269 0.126 0.60495 0.0
C718 C 0.68564 0.09244 0.59147 0.0
C719 C 0.72351 0.84987 0.33424 0.0
C720 C 0.7494 0.89744 0.33621 0.0
C721 C 0.69889 0.82685 0.34921 0.0
C722 C 0.69843 0.85141 0.36648 0.0
H723 H 0.72035 0.83154 0.32087 0.0
H724 H 0.67694 0.79174 0.34691 0.0
S725 S 0.76475 0.97376 0.37909 0.0
N726 N 0.7769 0.96584 0.35705 0.0
N727 N 0.72969 0.92342 0.38504 0.0
C728 C 0.72683 0.89733 0.36881 0.0
C729 C 0.75256 0.92018 0.3537 0.0
C730 C 0.93032 0.8714 0.09372 0.0
C731 C 0.94789 0.90895 0.08139 0.0
C732 C 0.96115 0.85556 0.10848 0.0
C733 C 0.01036 0.87703 0.11145 0.0
H734 H 0.89227 0.85462 0.09206 0.0
H735 H 0.94609 0.82703 0.11777 0.0
S736 S 0.07634 0.97239 0.08195 0.0
N737 N 0.01926 0.96389 0.07232 0.0
N738 N 0.07658 0.93513 0.1001 0.0
C739 C 0.02861 0.91391 0.09901 0.0
C740 C 0.99755 0.92961 0.08398 0.0
C741 C 0.91592 0.10634 0.85525 0.0
C742 C 0.93812 0.10063 0.83774 0.0
C743 C 0.93895 0.1373 0.86874 0.0
C744 C 0.98591 0.16261 0.86549 0.0
H745 H 0.8792 0.08841 0.85835 0.0
H746 H 0.91883 0.14303 0.88161 0.0
S747 S 0.06349 0.15617 0.82293 0.0
N748 N 0.01208 0.12046 0.8184 0.0
N749 N 0.05652 0.17673 0.84428 0.0
C750 C 0.01093 0.15406 0.84868 0.0
C751 C 0.98682 0.1234 0.83468 0.0
C752 C 0.68526 0.87244 0.47602 0.0
C753 C 0.73101 0.90124 0.47405 0.0
C754 C 0.66221 0.84763 0.46088 0.0
C755 C 0.68501 0.85008 0.44347 0.0
H756 H 0.66838 0.86745 0.48945 0.0
H757 H 0.62868 0.82346 0.46306 0.0
S758 S 0.80217 0.92377 0.43089 0.0
N759 N 0.79576 0.93397 0.45313 0.0
N760 N 0.75328 0.88636 0.42483 0.0
C761 C 0.72903 0.88101 0.4412 0.0
C762 C 0.75188 0.90688 0.45647 0.0
C763 C 0.92112 0.93138 0.20104 0.0
C764 C 0.94088 0.93153 0.21898 0.0
C765 C 0.94478 0.90263 0.18707 0.0
C766 C 0.98964 0.87367 0.1904 0.0
H767 H 0.88539 0.95141 0.19798 0.0
H768 H 0.92626 0.90086 0.17377 0.0
S769 S 0.0612 0.86687 0.23425 0.0
N770 N 0.011 0.90434 0.23888 0.0
N771 N 0.05639 0.85123 0.21232 0.0
C772 C 0.01273 0.87734 0.20778 0.0
C773 C 0.98813 0.90615 0.22216 0.0
C774 C 0.95075 0.14777 0.97052 0.0
C775 C 0.92093 0.10418 0.96567 0.0
C776 C 0.9803 0.17366 0.95736 0.0
C777 C 0.98106 0.1564 0.93905 0.0
H778 H 0.954 0.15983 0.98472 0.0
H779 H 0.00573 0.20457 0.96181 0.0
S780 S 0.90164 0.05154 0.91869 0.0
N781 N 0.88726 0.05095 0.94071 0.0
N782 N 0.94431 0.09832 0.91624 0.0
C783 C 0.94806 0.11595 0.93379 0.0
C784 C 0.91759 0.09012 0.94705 0.0
C785 C 0.71975 0.1675 0.72189 0.0
C786 C 0.74631 0.12018 0.71998 0.0
C787 C 0.69322 0.18918 0.70707 0.0
C788 C 0.69148 0.16358 0.68999 0.0
H789 H 0.71787 0.18683 0.73511 0.0
H790 H 0.67124 0.22436 0.70933 0.0
S791 S 0.75867 0.04135 0.6775 0.0
N792 N 0.77262 0.05068 0.69935 0.0
N793 N 0.7223 0.09091 0.67158 0.0
C794 C 0.72028 0.1178 0.68767 0.0
C795 C 0.74783 0.0962 0.70265 0.0
C796 C 0.85706 0.35656 0.9715 0.0
C797 C 0.86915 0.40089 0.98192 0.0
C798 C 0.89153 0.33705 0.9583 0.0
C799 C 0.93958 0.361 0.95504 0.0
H800 H 0.81976 0.33814 0.973 0.0
H801 H 0.8793 0.30416 0.95008 0.0
S802 S 0.9927 0.4732 0.98112 0.0
N803 N 0.93458 0.46449 0.98985 0.0
N804 N 0.99959 0.42809 0.96512 0.0
C805 C 0.95351 0.40326 0.96637 0.0
C806 C 0.91819 0.42321 0.97973 0.0
C807 C 0.93682 0.49605 0.19556 0.0
C808 C 0.89365 0.50797 0.20655 0.0
C809 C 0.95555 0.53112 0.18268 0.0
C810 C 0.93195 0.57968 0.18028 0.0
H811 H 0.9573 0.4599 0.19733 0.0
H812 H 0.99004 0.52072 0.17508 0.0
S813 S 0.81508 0.62794 0.20482 0.0
N814 N 0.82626 0.57063 0.21362 0.0
N815 N 0.86022 0.63593 0.18917 0.0
C816 C 0.88688 0.5908 0.19051 0.0
C817 C 0.86805 0.55514 0.20368 0.0
C818 C 0.85042 0.59264 0.45287 0.0
C819 C 0.83363 0.55038 0.46322 0.0
C820 C 0.81852 0.61471 0.43951 0.0
C821 C 0.76853 0.59541 0.43602 0.0
H822 H 0.88849 0.60885 0.45514 0.0
H823 H 0.83298 0.64759 0.43206 0.0
S824 S 0.70606 0.48578 0.46003 0.0
N825 N 0.76365 0.49084 0.46952 0.0
N826 N 0.70404 0.53101 0.44435 0.0
C827 C 0.75166 0.5526 0.44625 0.0
C828 C 0.78406 0.53047 0.45985 0.0
C829 C 0.70714 0.45305 0.7332 0.0
C830 C 0.74868 0.48577 0.7287 0.0
C831 C 0.68389 0.42097 0.71984 0.0
C832 C 0.7014 0.4213 0.70166 0.0
H833 H 0.6932 0.45165 0.74716 0.0
H834 H 0.65232 0.39593 0.72371 0.0
S835 S 0.80575 0.50222 0.68256 0.0
N836 N 0.80399 0.51812 0.7045 0.0
N837 N 0.7606 0.4579 0.67962 0.0
C838 C 0.74192 0.45446 0.69696 0.0
C839 C 0.76552 0.48674 0.71043 0.0
C840 C 0.91771 0.60642 0.0778 0.0
C841 C 0.8683 0.62681 0.07437 0.0
C842 C 0.95175 0.63082 0.09003 0.0
C843 C 0.93757 0.67646 0.09951 0.0
H844 H 0.92929 0.56993 0.07161 0.0
H845 H 0.98803 0.61167 0.09294 0.0
S846 S 0.81587 0.75037 0.09277 0.0
N847 N 0.80937 0.69872 0.07948 0.0
N848 N 0.87331 0.74506 0.10241 0.0
C849 C 0.89013 0.69985 0.09483 0.0
C850 C 0.85547 0.67489 0.0823 0.0
C851 C 0.76888 0.55144 0.33954 0.0
C852 C 0.74105 0.54018 0.32341 0.0
C853 C 0.74772 0.58229 0.35347 0.0
C854 C 0.6975 0.60234 0.35205 0.0
H855 H 0.80713 0.53551 0.34163 0.0
H856 H 0.7704 0.58936 0.36572 0.0
S857 S 0.6094 0.58823 0.31248 0.0
N858 N 0.66137 0.55494 0.30645 0.0
N859 N 0.62088 0.61114 0.33329 0.0
C860 C 0.66903 0.59193 0.33613 0.0
C861 C 0.69096 0.56124 0.32167 0.0
C862 C 0.83904 0.37005 0.59356 0.0
C863 C 0.85044 0.42199 0.58965 0.0
C864 C 0.80847 0.35696 0.6086 0.0
C865 C 0.78725 0.3953 0.62012 0.0
H866 H 0.85181 0.33918 0.58448 0.0
H867 H 0.79889 0.31664 0.61056 0.0
S868 S 0.8109 0.53611 0.61775 0.0
N869 N 0.84328 0.5115 0.6002 0.0
N870 N 0.78309 0.48664 0.62784 0.0
C871 C 0.79992 0.44708 0.61697 0.0
C872 C 0.83216 0.46048 0.6019 0.0
C873 C 0.97351 0.5145 0.84718 0.0
C874 C 0.92119 0.52989 0.84687 0.0
C875 C 0.99264 0.48243 0.86092 0.0
C876 C 0.95998 0.46371 0.87463 0.0
H877 H 0.99946 0.52501 0.83622 0.0
H878 H 0.03248 0.46961 0.86013 0.0
S879 S 0.82258 0.49824 0.88192 0.0
N880 N 0.83912 0.52944 0.86324 0.0
N881 N 0.87469 0.46627 0.88834 0.0
C882 C 0.9085 0.48058 0.87512 0.0
C883 C 0.88921 0.51438 0.86142 0.0
C884 C 0.26139 0.61938 0.09948 0.0
C885 C 0.23404 0.61574 0.08292 0.0
C886 C 0.23956 0.64337 0.11489 0.0
C887 C 0.18939 0.66454 0.11441 0.0
H888 H 0.3011 0.60625 0.10027 0.0
H889 H 0.26322 0.64742 0.12706 0.0
S890 S 0.0988 0.65795 0.0751 0.0
N891 N 0.15206 0.62973 0.06746 0.0
N892 N 0.1109 0.67527 0.09651 0.0
C893 C 0.16011 0.65769 0.09835 0.0
C894 C 0.18256 0.63339 0.08256 0.0
C895 C 0.25371 0.42152 0.85494 0.0
C896 C 0.25441 0.39695 0.83769 0.0
C897 C 0.22691 0.39999 0.86962 0.0
C898 C 0.20047 0.35273 0.86768 0.0
H899 H 0.27121 0.45925 0.85679 0.0
H900 H 0.22483 0.42178 0.88237 0.0
S901 S 0.1971 0.26941 0.82604 0.0
N902 N 0.23113 0.32038 0.81994 0.0
N903 N 0.18134 0.27934 0.84771 0.0
C904 C 0.20443 0.32569 0.85094 0.0
C905 C 0.23112 0.34806 0.83586 0.0
C906 C 0.43617 0.44632 0.60643 0.0
C907 C 0.43016 0.42491 0.58875 0.0
C908 C 0.46539 0.42132 0.61976 0.0
C909 C 0.48911 0.37339 0.61613 0.0
H910 H 0.41955 0.48366 0.60984 0.0
H911 H 0.47122 0.44071 0.63283 0.0
S912 S 0.48133 0.29776 0.57282 0.0
N913 N 0.4478 0.35078 0.56878 0.0
N914 N 0.50141 0.30312 0.59422 0.0
C915 C 0.48034 0.34946 0.59906 0.0
C916 C 0.45116 0.37536 0.58527 0.0
C917 C 0.43985 0.65509 0.33018 0.0
C918 C 0.45468 0.60292 0.32876 0.0
C919 C 0.45597 0.68609 0.34488 0.0
C920 C 0.48787 0.66637 0.35871 0.0
H921 H 0.41547 0.67217 0.31982 0.0
H922 H 0.44347 0.72609 0.34536 0.0
S923 S 0.53586 0.53184 0.36189 0.0
N924 N 0.50231 0.53242 0.34265 0.0
N925 N 0.53241 0.59115 0.37047 0.0
C926 C 0.50337 0.61443 0.35748 0.0
C927 C 0.48686 0.58261 0.34244 0.0
C928 C 0.19055 0.41039 0.9707 0.0
C929 C 0.23717 0.43577 0.96648 0.0
C930 C 0.16804 0.37493 0.95834 0.0
C931 C 0.19204 0.3632 0.94155 0.0
H932 H 0.17203 0.41713 0.98381 0.0
H933 H 0.13326 0.35471 0.96233 0.0
S934 S 0.31183 0.42209 0.92334 0.0
N935 N 0.30455 0.44876 0.94382 0.0
N936 N 0.26225 0.3827 0.92065 0.0
C937 C 0.23716 0.39016 0.93683 0.0
C938 C 0.25976 0.42631 0.94928 0.0
C939 C 0.41127 0.36789 0.71729 0.0
C940 C 0.434 0.41525 0.72216 0.0
C941 C 0.43263 0.33628 0.7037 0.0
C942 C 0.47785 0.35046 0.69427 0.0
H943 H 0.37628 0.35516 0.72402 0.0
H944 H 0.41312 0.30021 0.70058 0.0
S945 S 0.55327 0.47039 0.70229 0.0
N946 N 0.5049 0.47478 0.71699 0.0
N947 N 0.54541 0.41492 0.69117 0.0
C948 C 0.50197 0.39718 0.69934 0.0
C949 C 0.47999 0.42965 0.71334 0.0
C950 C 0.44798 0.6699 0.46937 0.0
C951 C 0.42373 0.62117 0.46952 0.0
C952 C 0.47647 0.68614 0.45419 0.0
C953 C 0.48239 0.65402 0.43866 0.0
H954 H 0.44702 0.69484 0.48138 0.0
H955 H 0.4965 0.72282 0.4551 0.0
S956 S 0.41912 0.52726 0.4307 0.0
N957 N 0.40128 0.54448 0.45161 0.0
N958 N 0.45663 0.57423 0.42337 0.0
C959 C 0.45579 0.60673 0.43813 0.0
C960 C 0.42611 0.59048 0.45348 0.0
C961 C 0.20272 0.5854 0.2117 0.0
C962 C 0.24811 0.60928 0.21805 0.0
C963 C 0.17048 0.60952 0.19908 0.0
C964 C 0.18194 0.65878 0.19214 0.0
H965 H 0.1924 0.54706 0.21622 0.0
H966 H 0.13624 0.58884 0.19465 0.0
S967 S 0.29579 0.73857 0.20465 0.0
N968 N 0.30253 0.68571 0.21686 0.0
N969 N 0.24186 0.731 0.19284 0.0
C970 C 0.22679 0.68368 0.19857 0.0
C971 C 0.25997 0.65886 0.2115 0.0
loop_
_geom_bond_atom_site_label_1
_geom_bond_atom_site_label_2
_geom_bond_distance
_geom_bond_site_symmetry_2
_ccdc_geom_bond_type
H0 C27 0.929 1_565 S
N1 C26 1.433 1_565 S
N1 C32 1.435 . S
N1 C38 1.423 . S
H2 C28 0.930 . S
H3 C31 0.931 . S
H4 C30 0.929 . S
H5 C33 0.930 1_545 S
H6 C34 0.930 1_545 S
H7 C37 0.929 . S
H8 C36 0.931 . S
H9 C39 0.929 . S
H10 C43 0.932 . S
H11 C40 0.931 . S
H12 C42 0.929 . S
H13 C45 0.929 1_565 S
H14 C46 0.930 . S
H15 C48 0.929 . S
H16 C49 0.931 . S
H17 C51 0.930 1_545 S
H18 C52 0.931 . S
H19 C54 0.931 . S
H20 C55 0.929 . S
H21 C57 0.929 . S
H22 C58 0.931 . S
H23 C60 0.929 . S
N24 C44 1.433 1_565 S
N24 C50 1.435 . S
N24 C56 1.423 . S
H25 C61 0.932 . S
C26 N1 1.433 1_545 S
C26 C27 1.363 . S
C26 C31 1.370 . S
C27 H0 0.929 1_545 S
C27 C26 1.363 . S
C27 C28 1.385 . S
C28 H2 0.930 . S
C28 C27 1.385 . S
C28 C29 1.357 . S
C29 C28 1.357 . S
C29 C30 1.406 . S
C30 H4 0.929 . S
C30 C29 1.406 . S
C30 C31 1.391 . S
C31 H3 0.931 . S
C31 C26 1.370 . S
C31 C30 1.391 . S
C32 N1 1.435 . S
C32 C33 1.358 . S
C32 C37 1.371 . S
C33 H5 0.930 1_565 S
C33 C32 1.358 . S
C33 C34 1.405 . S
C34 H6 0.930 1_565 S
C34 C33 1.405 . S
C34 C35 1.383 . S
C35 C34 1.383 . S
C35 C36 1.393 . S
C36 H8 0.931 . S
C36 C35 1.393 . S
C36 C37 1.382 . S
C37 H7 0.929 . S
C37 C32 1.371 . S
C37 C36 1.382 . S
C38 N1 1.423 . S
C38 C39 1.362 . S
C38 C43 1.388 . S
C39 H9 0.929 . S
C39 C38 1.362 . S
C39 C40 1.376 . S
C40 H11 0.931 . S
C40 C39 1.376 . S
C40 C41 1.387 1_655 S
C41 C40 1.387 1_455 S
C41 C42 1.339 1_455 S
C41 C59 1.488 . S
C42 H12 0.929 . S
C42 C41 1.339 1_655 S
C42 C43 1.443 . S
C43 H10 0.932 . S
C43 C38 1.388 . S
C43 C42 1.443 . S
C44 N24 1.433 1_545 S
C44 C45 1.363 . S
C44 C49 1.370 . S
C45 H13 0.929 1_545 S
C45 C44 1.363 . S
C45 C46 1.385 . S
C46 H14 0.930 . S
C46 C45 1.385 . S
C46 C47 1.357 . S
C47 C46 1.357 . S
C47 C48 1.406 . S
C48 H15 0.929 . S
C48 C47 1.406 . S
C48 C49 1.391 . S
C49 H16 0.931 . S
C49 C44 1.370 . S
C49 C48 1.391 . S
C50 N24 1.435 . S
C50 C51 1.358 . S
C50 C55 1.371 . S
C51 H17 0.930 1_565 S
C51 C50 1.358 . S
C51 C52 1.405 . S
C52 H18 0.931 . S
C52 C51 1.405 . S
C52 C53 1.383 . S
C53 C52 1.383 . S
C53 C54 1.393 . S
C54 H19 0.931 . S
C54 C53 1.393 . S
C54 C55 1.382 . S
C55 H20 0.929 . S
C55 C50 1.371 . S
C55 C54 1.382 . S
C56 N24 1.423 . S
C56 C57 1.362 . S
C56 C61 1.388 . S
C57 H21 0.929 . S
C57 C56 1.362 . S
C57 C58 1.376 . S
C58 H22 0.931 . S
C58 C57 1.376 . S
C58 C59 1.396 . S
C59 C41 1.488 . S
C59 C58 1.396 . S
C59 C60 1.348 . S
C60 H23 0.929 . S
C60 C59 1.348 . S
C60 C61 1.443 . S
C61 H25 0.932 . S
C61 C56 1.388 . S
C61 C60 1.443 . S
H62 C89 0.929 . S
N63 C88 1.433 . S
N63 C94 1.435 . S
N63 C100 1.423 . S
H64 C90 0.930 . S
H65 C93 0.931 . S
H66 C92 0.929 . S
H67 C95 0.930 . S
H68 C96 0.932 . S
H69 C99 0.929 . S
H70 C98 0.931 . S
H71 C101 0.929 . S
H72 C105 0.932 . S
H73 C102 0.931 . S
H74 C104 0.929 . S
H75 C107 0.929 . S
H76 C108 0.930 1_545 S
H77 C110 0.929 . S
H78 C111 0.931 . S
H79 C113 0.930 . S
H80 C114 0.932 1_545 S
H81 C116 0.931 . S
H82 C117 0.929 . S
H83 C119 0.929 . S
H84 C120 0.931 . S
H85 C122 0.929 . S
N86 C106 1.433 . S
N86 C112 1.435 . S
N86 C118 1.423 . S
H87 C123 0.932 . S
C88 N63 1.433 . S
C88 C89 1.363 . S
C88 C93 1.370 . S
C89 H62 0.929 . S
C89 C88 1.363 . S
C89 C90 1.385 . S
C90 H64 0.930 . S
C90 C89 1.385 . S
C90 C91 1.357 . S
C91 C90 1.357 . S
C91 C92 1.406 . S
C92 H66 0.929 . S
C92 C91 1.406 . S
C92 C93 1.391 . S
C93 H65 0.931 . S
C93 C88 1.370 . S
C93 C92 1.391 . S
C94 N63 1.435 . S
C94 C95 1.358 . S
C94 C99 1.371 . S
C95 H67 0.930 . S
C95 C94 1.358 . S
C95 C96 1.405 . S
C96 H68 0.932 . S
C96 C95 1.405 . S
C96 C97 1.383 . S
C97 C96 1.383 . S
C97 C98 1.393 . S
C98 H70 0.931 . S
C98 C97 1.393 . S
C98 C99 1.382 . S
C99 H69 0.929 . S
C99 C94 1.371 . S
C99 C98 1.382 . S
C100 N63 1.423 . S
C100 C101 1.362 . S
C100 C105 1.388 . S
C101 H71 0.929 . S
C101 C100 1.362 . S
C101 C102 1.376 . S
C102 H73 0.931 . S
C102 C101 1.376 . S
C102 C103 1.396 . S
C103 C102 1.396 . S
C103 C104 1.348 . S
C103 C121 1.472 . S
C104 H74 0.929 . S
C104 C103 1.348 . S
C104 C105 1.443 . S
C105 H72 0.932 . S
C105 C100 1.388 . S
C105 C104 1.443 . S
C106 N86 1.433 . S
C106 C107 1.363 . S
C106 C111 1.370 . S
C107 H75 0.929 . S
C107 C106 1.363 . S
C107 C108 1.385 . S
C108 H76 0.930 1_565 S
C108 C107 1.385 . S
C108 C109 1.357 . S
C109 C108 1.357 . S
C109 C110 1.406 . S
C110 H77 0.929 . S
C110 C109 1.406 . S
C110 C111 1.391 . S
C111 H78 0.931 . S
C111 C106 1.370 . S
C111 C110 1.391 . S
C112 N86 1.435 . S
C112 C113 1.358 . S
C112 C117 1.371 . S
C113 H79 0.930 . S
C113 C112 1.358 . S
C113 C114 1.405 . S
C114 H80 0.932 1_565 S
C114 C113 1.405 . S
C114 C115 1.383 . S
C115 C114 1.383 . S
C115 C116 1.393 . S
C116 H81 0.931 . S
C116 C115 1.393 . S
C116 C117 1.382 . S
C117 H82 0.929 . S
C117 C112 1.371 . S
C117 C116 1.382 . S
C118 N86 1.423 . S
C118 C119 1.362 . S
C118 C123 1.388 . S
C119 H83 0.929 . S
C119 C118 1.362 . S
C119 C120 1.376 . S
C120 H84 0.931 . S
C120 C119 1.376 . S
C120 C121 1.396 . S
C121 C103 1.472 . S
C121 C120 1.396 . S
C121 C122 1.348 . S
C122 H85 0.929 . S
C122 C121 1.348 . S
C122 C123 1.443 . S
C123 H87 0.932 . S
C123 C118 1.388 . S
C123 C122 1.443 . S
H124 C151 0.929 . S
N125 C150 1.421 1_545 S
N125 C156 1.435 . S
N125 C162 1.423 . S
H126 C152 0.930 . S
H127 C155 0.931 . S
H128 C154 0.929 . S
H129 C157 0.930 1_565 S
H130 C158 0.932 . S
H131 C161 0.929 . S
H132 C160 0.931 . S
H133 C163 0.929 . S
H134 C167 0.932 . S
H135 C164 0.931 . S
H136 C166 0.929 . S
H137 C169 0.929 . S
H138 C170 0.930 . S
H139 C172 0.929 . S
H140 C173 0.931 . S
H141 C175 0.930 1_565 S
H142 C176 0.932 . S
H143 C178 0.931 . S
H144 C179 0.929 . S
H145 C181 0.929 . S
H146 C182 0.931 . S
H147 C184 0.929 . S
N148 C168 1.421 1_545 S
N148 C174 1.435 . S
N148 C180 1.423 . S
H149 C185 0.932 . S
C150 N125 1.421 1_565 S
C150 C151 1.360 1_565 S
C150 C155 1.386 . S
C151 H124 0.929 . S
C151 C150 1.360 1_545 S
C151 C152 1.385 1_545 S
C152 H126 0.930 . S
C152 C151 1.385 1_565 S
C152 C153 1.357 . S
C153 C152 1.357 . S
C153 C154 1.406 . S
C154 H128 0.929 . S
C154 C153 1.406 . S
C154 C155 1.391 . S
C155 H127 0.931 . S
C155 C150 1.386 . S
C155 C154 1.391 . S
C156 N125 1.435 . S
C156 C157 1.358 . S
C156 C161 1.371 . S
C157 H129 0.930 1_545 S
C157 C156 1.358 . S
C157 C158 1.405 1_554 S
C158 H130 0.932 . S
C158 C157 1.405 1_556 S
C158 C159 1.383 . S
C159 C158 1.383 . S
C159 C160 1.393 . S
C160 H132 0.931 . S
C160 C159 1.393 . S
C160 C161 1.382 1_556 S
C161 H131 0.929 . S
C161 C156 1.371 . S
C161 C160 1.382 1_554 S
C162 N125 1.423 . S
C162 C163 1.362 . S
C162 C167 1.388 . S
C163 H133 0.929 . S
C163 C162 1.362 . S
C163 C164 1.376 . S
C164 H135 0.931 . S
C164 C163 1.376 . S
C164 C165 1.396 . S
C165 C164 1.396 . S
C165 C166 1.348 . S
C165 C183 1.472 . S
C166 H136 0.929 . S
C166 C165 1.348 . S
C166 C167 1.443 . S
C167 H134 0.932 . S
C167 C162 1.388 . S
C167 C166 1.443 . S
C168 N148 1.421 1_565 S
C168 C169 1.360 1_565 S
C168 C173 1.385 . S
C169 H137 0.929 . S
C169 C168 1.360 1_545 S
C169 C170 1.385 1_545 S
C170 H138 0.930 . S
C170 C169 1.385 1_565 S
C170 C171 1.357 . S
C171 C170 1.357 . S
C171 C172 1.406 . S
C172 H139 0.929 . S
C172 C171 1.406 . S
C172 C173 1.391 . S
C173 H140 0.931 . S
C173 C168 1.385 . S
C173 C172 1.391 . S
C174 N148 1.435 . S
C174 C175 1.358 . S
C174 C179 1.371 . S
C175 H141 0.930 1_545 S
C175 C174 1.358 . S
C175 C176 1.405 1_554 S
C176 H142 0.932 . S
C176 C175 1.405 1_556 S
C176 C177 1.383 . S
C177 C176 1.383 . S
C177 C178 1.393 . S
C178 H143 0.931 . S
C178 C177 1.393 . S
C178 C179 1.382 1_556 S
C179 H144 0.929 . S
C179 C174 1.371 . S
C179 C178 1.382 1_554 S
C180 N148 1.423 . S
C180 C181 1.362 . S
C180 C185 1.388 . S
C181 H145 0.929 . S
C181 C180 1.362 . S
C181 C182 1.376 . S
C182 H146 0.931 . S
C182 C181 1.376 . S
C182 C183 1.396 . S
C183 C165 1.472 . S
C183 C182 1.396 . S
C183 C184 1.348 . S
C184 H147 0.929 . S
C184 C183 1.348 . S
C184 C185 1.443 . S
C185 H149 0.932 . S
C185 C180 1.388 . S
C185 C184 1.443 . S
H186 C213 0.929 . S
N187 C212 1.433 . S
N187 C218 1.435 . S
N187 C224 1.423 . S
H188 C214 0.930 . S
H189 C217 0.931 . S
H190 C216 0.929 . S
H191 C219 0.930 . S
H192 C220 0.932 . S
H193 C223 0.929 . S
H194 C222 0.931 . S
H195 C225 0.929 . S
H196 C229 0.932 . S
H197 C226 0.931 . S
H198 C228 0.929 . S
H199 C231 0.929 . S
H200 C232 0.930 . S
H201 C234 0.929 . S
H202 C235 0.931 . S
H203 C237 0.930 . S
H204 C238 0.932 1_565 S
H205 C240 0.931 . S
H206 C241 0.929 . S
H207 C243 0.929 . S
H208 C244 0.931 . S
H209 C246 0.929 . S
N210 C230 1.433 . S
N210 C236 1.435 . S
N210 C242 1.423 . S
H211 C247 0.932 . S
C212 N187 1.433 . S
C212 C213 1.363 . S
C212 C217 1.370 . S
C213 H186 0.929 . S
C213 C212 1.363 . S
C213 C214 1.385 . S
C214 H188 0.930 . S
C214 C213 1.385 . S
C214 C215 1.357 . S
C215 C214 1.357 . S
C215 C216 1.406 . S
C216 H190 0.929 . S
C216 C215 1.406 . S
C216 C217 1.391 . S
C217 H189 0.931 . S
C217 C212 1.370 . S
C217 C216 1.391 . S
C218 N187 1.435 . S
C218 C219 1.358 . S
C218 C223 1.371 . S
C219 H191 0.930 . S
C219 C218 1.358 . S
C219 C220 1.405 . S
C220 H192 0.932 . S
C220 C219 1.405 . S
C220 C221 1.383 . S
C221 C220 1.383 . S
C221 C222 1.393 . S
C222 H194 0.931 . S
C222 C221 1.393 . S
C222 C223 1.382 . S
C223 H193 0.929 . S
C223 C218 1.371 . S
C223 C222 1.382 . S
C224 N187 1.423 . S
C224 C225 1.362 . S
C224 C229 1.388 . S
C225 H195 0.929 . S
C225 C224 1.362 . S
C225 C226 1.376 . S
C226 H197 0.931 . S
C226 C225 1.376 . S
C226 C227 1.396 . S
C227 C226 1.396 . S
C227 C228 1.348 . S
C227 C245 1.472 . S
C228 H198 0.929 . S
C228 C227 1.348 . S
C228 C229 1.443 . S
C229 H196 0.932 . S
C229 C224 1.388 . S
C229 C228 1.443 . S
C230 N210 1.433 . S
C230 C231 1.363 . S
C230 C235 1.370 . S
C231 H199 0.929 . S
C231 C230 1.363 . S
C231 C232 1.385 . S
C232 H200 0.930 . S
C232 C231 1.385 . S
C232 C233 1.357 . S
C233 C232 1.357 . S
C233 C234 1.406 . S
C234 H201 0.929 . S
C234 C233 1.406 . S
C234 C235 1.391 . S
C235 H202 0.931 . S
C235 C230 1.370 . S
C235 C234 1.391 . S
C236 N210 1.435 . S
C236 C237 1.358 . S
C236 C241 1.371 . S
C237 H203 0.930 . S
C237 C236 1.358 . S
C237 C238 1.405 . S
C238 H204 0.932 1_545 S
C238 C237 1.405 . S
C238 C239 1.383 . S
C239 C238 1.383 . S
C239 C240 1.393 . S
C240 H205 0.931 . S
C240 C239 1.393 . S
C240 C241 1.382 . S
C241 H206 0.929 . S
C241 C236 1.371 . S
C241 C240 1.382 . S
C242 N210 1.423 . S
C242 C243 1.362 . S
C242 C247 1.388 . S
C243 H207 0.929 . S
C243 C242 1.362 . S
C243 C244 1.376 . S
C244 H208 0.931 . S
C244 C243 1.376 . S
C244 C245 1.396 . S
C245 C227 1.472 . S
C245 C244 1.396 . S
C245 C246 1.348 . S
C246 H209 0.929 . S
C246 C245 1.348 . S
C246 C247 1.443 . S
C247 H211 0.932 . S
C247 C242 1.388 . S
C247 C246 1.443 . S
H248 C275 0.929 . S
N249 C274 1.425 1_545 S
N249 C280 1.421 1_545 S
N249 C286 1.446 . S
H250 C276 0.930 . S
H251 C279 0.931 . S
H252 C278 0.929 1_545 S
H253 C281 0.930 . S
H254 C282 0.932 . S
H255 C285 0.930 1_545 S
H256 C284 0.931 . S
H257 C287 0.929 . S
H258 C291 0.932 . S
H259 C288 0.931 . S
H260 C290 0.929 . S
H261 C293 0.929 . S
H262 C294 0.930 . S
H263 C296 0.929 . S
H264 C297 0.931 . S
H265 C299 0.930 . S
H266 C300 0.932 . S
H267 C302 0.931 . S
H268 C303 0.929 . S
H269 C305 0.929 . S
H270 C306 0.931 . S
H271 C308 0.929 . S
N272 C292 1.433 . S
N272 C298 1.435 . S
N272 C304 1.423 . S
H273 C309 0.932 . S
C274 N249 1.425 1_565 S
C274 C275 1.363 . S
C274 C279 1.370 1_565 S
C275 H248 0.929 . S
C275 C274 1.363 . S
C275 C276 1.385 . S
C276 H250 0.930 . S
C276 C275 1.385 . S
C276 C277 1.357 . S
C277 C276 1.357 . S
C277 C278 1.406 . S
C278 H252 0.929 1_565 S
C278 C277 1.406 . S
C278 C279 1.391 1_565 S
C279 H251 0.931 . S
C279 C274 1.370 1_545 S
C279 C278 1.391 1_545 S
C280 N249 1.421 1_565 S
C280 C281 1.358 . S
C280 C285 1.371 . S
C281 H253 0.930 . S
C281 C280 1.358 . S
C281 C282 1.405 . S
C282 H254 0.932 . S
C282 C281 1.405 . S
C282 C283 1.383 . S
C283 C282 1.383 . S
C283 C284 1.393 . S
C284 H256 0.931 . S
C284 C283 1.393 . S
C284 C285 1.382 . S
C285 H255 0.930 1_565 S
C285 C280 1.371 . S
C285 C284 1.382 . S
C286 N249 1.446 . S
C286 C287 1.362 . S
C286 C291 1.388 . S
C287 H257 0.929 . S
C287 C286 1.362 . S
C287 C288 1.376 . S
C288 H259 0.931 . S
C288 C287 1.376 . S
C288 C289 1.396 . S
C289 C288 1.396 . S
C289 C290 1.348 . S
C289 C307 1.472 . S
C290 H260 0.929 . S
C290 C289 1.348 . S
C290 C291 1.443 . S
C291 H258 0.932 . S
C291 C286 1.388 . S
C291 C290 1.443 . S
C292 N272 1.433 . S
C292 C293 1.363 . S
C292 C297 1.370 . S
C293 H261 0.929 . S
C293 C292 1.363 . S
C293 C294 1.385 . S
C294 H262 0.930 . S
C294 C293 1.385 . S
C294 C295 1.357 . S
C295 C294 1.357 . S
C295 C296 1.406 . S
C296 H263 0.929 . S
C296 C295 1.406 . S
C296 C297 1.391 . S
C297 H264 0.931 . S
C297 C292 1.370 . S
C297 C296 1.391 . S
C298 N272 1.435 . S
C298 C299 1.358 . S
C298 C303 1.371 . S
C299 H265 0.930 . S
C299 C298 1.358 . S
C299 C300 1.405 . S
C300 H266 0.932 . S
C300 C299 1.405 . S
C300 C301 1.383 . S
C301 C300 1.383 . S
C301 C302 1.393 . S
C302 H267 0.931 . S
C302 C301 1.393 . S
C302 C303 1.382 . S
C303 H268 0.929 . S
C303 C298 1.371 . S
C303 C302 1.382 . S
C304 N272 1.423 . S
C304 C305 1.362 . S
C304 C309 1.388 . S
C305 H269 0.929 . S
C305 C304 1.362 . S
C305 C306 1.376 . S
C306 H270 0.931 . S
C306 C305 1.376 . S
C306 C307 1.396 . S
C307 C289 1.472 . S
C307 C306 1.396 . S
C307 C308 1.348 . S
C308 H271 0.929 . S
C308 C307 1.348 . S
C308 C309 1.443 . S
C309 H273 0.932 . S
C309 C304 1.388 . S
C309 C308 1.443 . S
H310 C337 0.929 . S
N311 C336 1.433 . S
N311 C342 1.435 . S
N311 C348 1.423 1_545 S
H312 C338 0.930 . S
H313 C341 0.931 1_565 S
H314 C340 0.929 . S
H315 C343 0.930 . S
H316 C344 0.932 . S
H317 C347 0.929 . S
H318 C346 0.931 . S
H319 C349 0.929 . S
H320 C353 0.932 . S
H321 C350 0.931 . S
H322 C352 0.929 . S
H323 C355 0.929 . S
H324 C356 0.930 . S
H325 C358 0.929 . S
H326 C359 0.931 . S
H327 C361 0.930 . S
H328 C362 0.932 . S
H329 C364 0.931 . S
H330 C365 0.929 . S
H331 C367 0.929 . S
H332 C368 0.931 . S
H333 C370 0.929 . S
N334 C354 1.433 . S
N334 C360 1.435 . S
N334 C366 1.423 . S
H335 C371 0.932 . S
C336 N311 1.433 . S
C336 C337 1.363 . S
C336 C341 1.370 . S
C337 H310 0.929 . S
C337 C336 1.363 . S
C337 C338 1.385 . S
C338 H312 0.930 . S
C338 C337 1.385 . S
C338 C339 1.357 . S
C339 C338 1.357 . S
C339 C340 1.406 . S
C340 H314 0.929 . S
C340 C339 1.406 . S
C340 C341 1.391 . S
C341 H313 0.931 1_545 S
C341 C336 1.370 . S
C341 C340 1.391 . S
C342 N311 1.435 . S
C342 C343 1.358 . S
C342 C347 1.371 . S
C343 H315 0.930 . S
C343 C342 1.358 . S
C343 C344 1.405 . S
C344 H316 0.932 . S
C344 C343 1.405 . S
C344 C345 1.383 . S
C345 C344 1.383 . S
C345 C346 1.393 . S
C346 H318 0.931 . S
C346 C345 1.393 . S
C346 C347 1.382 . S
C347 H317 0.929 . S
C347 C342 1.371 . S
C347 C346 1.382 . S
C348 N311 1.423 1_565 S
C348 C349 1.362 . S
C348 C353 1.388 . S
C349 H319 0.929 . S
C349 C348 1.362 . S
C349 C350 1.376 . S
C350 H321 0.931 . S
C350 C349 1.376 . S
C350 C351 1.396 . S
C351 C350 1.396 . S
C351 C352 1.348 . S
C351 C369 1.472 . S
C352 H322 0.929 . S
C352 C351 1.348 . S
C352 C353 1.443 . S
C353 H320 0.932 . S
C353 C348 1.388 . S
C353 C352 1.443 . S
C354 N334 1.433 . S
C354 C355 1.363 . S
C354 C359 1.370 . S
C355 H323 0.929 . S
C355 C354 1.363 . S
C355 C356 1.385 . S
C356 H324 0.930 . S
C356 C355 1.385 . S
C356 C357 1.357 . S
C357 C356 1.357 . S
C357 C358 1.406 . S
C358 H325 0.929 . S
C358 C357 1.406 . S
C358 C359 1.391 . S
C359 H326 0.931 . S
C359 C354 1.370 . S
C359 C358 1.391 . S
C360 N334 1.435 . S
C360 C361 1.358 . S
C360 C365 1.371 . S
C361 H327 0.930 . S
C361 C360 1.358 . S
C361 C362 1.405 . S
C362 H328 0.932 . S
C362 C361 1.405 . S
C362 C363 1.383 . S
C363 C362 1.383 . S
C363 C364 1.393 . S
C364 H329 0.931 . S
C364 C363 1.393 . S
C364 C365 1.382 . S
C365 H330 0.929 . S
C365 C360 1.371 . S
C365 C364 1.382 . S
C366 N334 1.423 . S
C366 C367 1.362 . S
C366 C371 1.388 . S
C367 H331 0.929 . S
C367 C366 1.362 . S
C367 C368 1.376 . S
C368 H332 0.931 . S
C368 C367 1.376 . S
C368 C369 1.396 . S
C369 C351 1.472 . S
C369 C368 1.396 . S
C369 C370 1.348 . S
C370 H333 0.929 . S
C370 C369 1.348 . S
C370 C371 1.443 . S
C371 H335 0.932 . S
C371 C366 1.388 . S
C371 C370 1.443 . S
H372 C399 0.933 . S
N373 C398 1.433 . S
N373 C404 1.435 . S
N373 C410 1.423 . S
H374 C400 0.930 . S
H375 C403 0.950 . S
H376 C402 0.929 . S
H377 C405 0.930 . S
H378 C406 0.932 . S
H379 C409 0.929 . S
H380 C408 0.931 . S
H381 C411 0.929 1_556 S
H382 C415 0.932 . S
H383 C412 0.931 1_556 S
H384 C414 0.929 . S
H385 C417 0.935 . S
H386 C418 0.930 . S
H387 C420 0.929 . S
H388 C421 0.947 . S
H389 C423 0.930 . S
H390 C424 0.932 . S
H391 C426 0.931 . S
H392 C427 0.929 . S
H393 C429 0.929 1_556 S
H394 C430 0.931 1_556 S
H395 C432 0.929 . S
N396 C416 1.433 . S
N396 C422 1.435 . S
N396 C428 1.423 . S
H397 C433 0.932 . S
C398 N373 1.433 . S
C398 C399 1.363 1_554 S
C398 C403 1.379 . S
C399 H372 0.933 . S
C399 C398 1.363 1_556 S
C399 C400 1.385 . S
C400 H374 0.930 . S
C400 C399 1.385 . S
C400 C401 1.357 . S
C401 C400 1.357 . S
C401 C402 1.406 . S
C402 H376 0.929 . S
C402 C401 1.406 . S
C402 C403 1.365 1_556 S
C403 H375 0.950 . S
C403 C398 1.379 . S
C403 C402 1.365 1_554 S
C404 N373 1.435 . S
C404 C405 1.358 . S
C404 C409 1.371 . S
C405 H377 0.930 . S
C405 C404 1.358 . S
C405 C406 1.405 . S
C406 H378 0.932 . S
C406 C405 1.405 . S
C406 C407 1.383 . S
C407 C406 1.383 . S
C407 C408 1.393 . S
C408 H380 0.931 . S
C408 C407 1.393 . S
C408 C409 1.382 . S
C409 H379 0.929 . S
C409 C404 1.371 . S
C409 C408 1.382 . S
C410 N373 1.423 . S
C410 C411 1.362 . S
C410 C415 1.388 . S
C411 H381 0.929 1_554 S
C411 C410 1.362 . S
C411 C412 1.376 . S
C412 H383 0.931 1_554 S
C412 C411 1.376 . S
C412 C413 1.396 . S
C413 C412 1.396 . S
C413 C414 1.348 . S
C413 C431 1.472 . S
C414 H384 0.929 . S
C414 C413 1.348 . S
C414 C415 1.443 . S
C415 H382 0.932 . S
C415 C410 1.388 . S
C415 C414 1.443 . S
C416 N396 1.433 . S
C416 C417 1.363 1_554 S
C416 C421 1.378 . S
C417 H385 0.935 . S
C417 C416 1.363 1_556 S
C417 C418 1.385 . S
C418 H386 0.930 . S
C418 C417 1.385 . S
C418 C419 1.357 . S
C419 C418 1.357 . S
C419 C420 1.406 . S
C420 H387 0.929 . S
C420 C419 1.406 . S
C420 C421 1.369 1_556 S
C421 H388 0.947 . S
C421 C416 1.378 . S
C421 C420 1.369 1_554 S
C422 N396 1.435 . S
C422 C423 1.358 . S
C422 C427 1.371 . S
C423 H389 0.930 . S
C423 C422 1.358 . S
C423 C424 1.405 . S
C424 H390 0.932 . S
C424 C423 1.405 . S
C424 C425 1.383 . S
C425 C424 1.383 . S
C425 C426 1.393 . S
C426 H391 0.931 . S
C426 C425 1.393 . S
C426 C427 1.382 . S
C427 H392 0.929 . S
C427 C422 1.371 . S
C427 C426 1.382 . S
C428 N396 1.423 . S
C428 C429 1.362 . S
C428 C433 1.388 . S
C429 H393 0.929 1_554 S
C429 C428 1.362 . S
C429 C430 1.376 . S
C430 H394 0.931 1_554 S
C430 C429 1.376 . S
C430 C431 1.396 . S
C431 C413 1.472 . S
C431 C430 1.396 . S
C431 C432 1.348 . S
C432 H395 0.929 . S
C432 C431 1.348 . S
C432 C433 1.443 . S
C433 H397 0.932 . S
C433 C428 1.388 . S
C433 C432 1.443 . S
H434 C461 0.929 . S
N435 C460 1.433 . S
N435 C466 1.435 . S
N435 C472 1.423 . S
H436 C462 0.930 . S
H437 C465 0.931 . S
H438 C464 0.929 . S
H439 C467 0.930 . S
H440 C468 0.932 . S
H441 C471 0.929 . S
H442 C470 0.931 . S
H443 C473 0.929 . S
H444 C477 0.932 . S
H445 C474 0.931 . S
H446 C476 0.929 . S
H447 C479 0.929 . S
H448 C480 0.930 . S
H449 C482 0.929 . S
H450 C483 0.931 1_455 S
H451 C485 0.930 . S
H452 C486 0.932 . S
H453 C488 0.931 . S
H454 C489 0.929 . S
H455 C491 0.929 . S
H456 C492 0.931 . S
H457 C494 0.929 . S
N458 C478 1.433 . S
N458 C484 1.435 . S
N458 C490 1.423 1_655 S
H459 C495 0.932 . S
C460 N435 1.433 . S
C460 C461 1.363 . S
C460 C465 1.370 . S
C461 H434 0.929 . S
C461 C460 1.363 . S
C461 C462 1.385 . S
C462 H436 0.930 . S
C462 C461 1.385 . S
C462 C463 1.357 . S
C463 C462 1.357 . S
C463 C464 1.406 . S
C464 H438 0.929 . S
C464 C463 1.406 . S
C464 C465 1.391 . S
C465 H437 0.931 . S
C465 C460 1.370 . S
C465 C464 1.391 . S
C466 N435 1.435 . S
C466 C467 1.358 . S
C466 C471 1.371 . S
C467 H439 0.930 . S
C467 C466 1.358 . S
C467 C468 1.405 . S
C468 H440 0.932 . S
C468 C467 1.405 . S
C468 C469 1.383 . S
C469 C468 1.383 . S
C469 C470 1.393 . S
C470 H442 0.931 . S
C470 C469 1.393 . S
C470 C471 1.382 . S
C471 H441 0.929 . S
C471 C466 1.371 . S
C471 C470 1.382 . S
C472 N435 1.423 . S
C472 C473 1.362 . S
C472 C477 1.388 . S
C473 H443 0.929 . S
C473 C472 1.362 . S
C473 C474 1.376 . S
C474 H445 0.931 . S
C474 C473 1.376 . S
C474 C475 1.396 . S
C475 C474 1.396 . S
C475 C476 1.348 . S
C475 C493 1.472 . S
C476 H446 0.929 . S
C476 C475 1.348 . S
C476 C477 1.443 . S
C477 H444 0.932 . S
C477 C472 1.388 . S
C477 C476 1.443 . S
C478 N458 1.433 . S
C478 C479 1.363 . S
C478 C483 1.370 . S
C479 H447 0.929 . S
C479 C478 1.363 . S
C479 C480 1.385 . S
C480 H448 0.930 . S
C480 C479 1.385 . S
C480 C481 1.357 . S
C481 C480 1.357 . S
C481 C482 1.406 . S
C482 H449 0.929 . S
C482 C481 1.406 . S
C482 C483 1.391 . S
C483 H450 0.931 1_655 S
C483 C478 1.370 . S
C483 C482 1.391 . S
C484 N458 1.435 . S
C484 C485 1.358 . S
C484 C489 1.371 . S
C485 H451 0.930 . S
C485 C484 1.358 . S
C485 C486 1.405 . S
C486 H452 0.932 . S
C486 C485 1.405 . S
C486 C487 1.383 . S
C487 C486 1.383 . S
C487 C488 1.393 . S
C488 H453 0.931 . S
C488 C487 1.393 . S
C488 C489 1.382 . S
C489 H454 0.929 . S
C489 C484 1.371 . S
C489 C488 1.382 . S
C490 N458 1.423 1_455 S
C490 C491 1.362 . S
C490 C495 1.388 . S
C491 H455 0.929 . S
C491 C490 1.362 . S
C491 C492 1.376 . S
C492 H456 0.931 . S
C492 C491 1.376 . S
C492 C493 1.396 . S
C493 C475 1.472 . S
C493 C492 1.396 . S
C493 C494 1.348 . S
C494 H457 0.929 . S
C494 C493 1.348 . S
C494 C495 1.443 . S
C495 H459 0.932 . S
C495 C490 1.388 . S
C495 C494 1.443 . S
C496 O523 1.312 . S
C496 O524 1.208 . S
C497 O518 1.331 1_655 S
C497 O521 1.244 . S
C498 O520 1.264 1_655 S
C498 O522 1.273 . S
Mg499 O501 1.936 . S
Mg499 O508 2.081 . S
Mg499 O510 2.023 . S
Mg499 O514 2.031 . S
Mg499 O523 2.291 . S
Mg500 O501 1.963 . S
Mg500 O511 1.942 . S
Mg500 O512 1.955 . S
Mg500 O519 1.986 . S
O501 Mg499 1.936 . S
O501 Mg500 1.963 . S
O501 Mg502 1.915 . S
Mg502 O501 1.915 . S
Mg502 O503 1.915 . S
Mg502 O507 2.013 . S
Mg502 O513 2.114 . S
Mg502 O517 2.013 . S
Mg502 O523 2.114 . S
O503 Mg502 1.915 . S
O503 Mg504 1.936 . S
O503 Mg505 1.963 1_455 S
Mg504 O503 1.936 . S
Mg504 O513 2.291 . S
Mg504 O518 2.081 . S
Mg504 O520 2.023 . S
Mg504 O524 2.031 . S
Mg505 O503 1.963 1_655 S
Mg505 O509 1.986 . S
Mg505 O521 1.942 . S
Mg505 O522 1.955 . S
C506 O517 1.191 . S
C506 O519 1.307 . S
O507 Mg502 2.013 . S
O507 C526 1.191 . S
O508 Mg499 2.081 . S
O508 C516 1.331 . S
O509 Mg505 1.986 . S
O509 C526 1.307 1_655 S
O510 Mg499 2.023 . S
O510 C525 1.264 . S
O511 Mg500 1.942 . S
O511 C516 1.244 . S
O512 Mg500 1.955 . S
O512 C525 1.273 . S
O513 Mg502 2.114 . S
O513 Mg504 2.291 . S
O513 C515 1.312 . S
O514 Mg499 2.031 . S
O514 C515 1.208 . S
C515 O513 1.312 . S
C515 O514 1.208 . S
C516 O508 1.331 . S
C516 O511 1.244 . S
O517 Mg502 2.013 . S
O517 C506 1.191 . S
O518 C497 1.331 1_455 S
O518 Mg504 2.081 . S
O519 Mg500 1.986 . S
O519 C506 1.307 . S
O520 C498 1.264 1_455 S
O520 Mg504 2.023 . S
O521 C497 1.244 . S
O521 Mg505 1.942 . S
O522 C498 1.273 . S
O522 Mg505 1.955 . S
O523 C496 1.312 . S
O523 Mg499 2.291 . S
O523 Mg502 2.114 . S
O524 C496 1.208 . S
O524 Mg504 2.031 . S
C525 O510 1.264 . S
C525 O512 1.273 . S
C526 O507 1.191 . S
C526 O509 1.307 1_455 S
C527 O554 1.312 . S
C527 O555 1.208 . S
C528 O549 1.331 . S
C528 O552 1.244 . S
C529 O551 1.264 . S
C529 O553 1.273 . S
Mg530 O532 1.936 . S
Mg530 O539 2.081 . S
Mg530 O541 2.023 . S
Mg530 O545 2.031 . S
Mg530 O554 2.291 . S
Mg531 O532 1.963 . S
Mg531 O542 1.942 . S
Mg531 O543 1.955 . S
Mg531 O550 1.986 . S
O532 Mg530 1.936 . S
O532 Mg531 1.963 . S
O532 Mg533 1.915 . S
Mg533 O532 1.915 . S
Mg533 O534 1.915 . S
Mg533 O538 2.013 . S
Mg533 O544 2.114 . S
Mg533 O548 2.013 . S
Mg533 O554 2.114 . S
O534 Mg533 1.915 . S
O534 Mg535 1.936 . S
O534 Mg536 1.963 . S
Mg535 O534 1.936 . S
Mg535 O544 2.291 . S
Mg535 O549 2.081 . S
Mg535 O551 2.023 . S
Mg535 O555 2.031 . S
Mg536 O534 1.963 . S
Mg536 O540 1.986 . S
Mg536 O552 1.942 . S
Mg536 O553 1.955 . S
C537 O548 1.191 . S
C537 O550 1.307 . S
O538 Mg533 2.013 . S
O538 C557 1.191 . S
O539 Mg530 2.081 . S
O539 C547 1.331 . S
O540 Mg536 1.986 . S
O540 C557 1.307 . S
O541 Mg530 2.023 . S
O541 C556 1.264 . S
O542 Mg531 1.942 . S
O542 C547 1.244 . S
O543 Mg531 1.955 . S
O543 C556 1.273 . S
O544 Mg533 2.114 . S
O544 Mg535 2.291 . S
O544 C546 1.312 . S
O545 Mg530 2.031 . S
O545 C546 1.208 . S
C546 O544 1.312 . S
C546 O545 1.208 . S
C547 O539 1.331 . S
C547 O542 1.244 . S
O548 Mg533 2.013 . S
O548 C537 1.191 . S
O549 C528 1.331 . S
O549 Mg535 2.081 . S
O550 Mg531 1.986 . S
O550 C537 1.307 . S
O551 C529 1.264 . S
O551 Mg535 2.023 . S
O552 C528 1.244 . S
O552 Mg536 1.942 . S
O553 C529 1.273 . S
O553 Mg536 1.955 . S
O554 C527 1.312 . S
O554 Mg530 2.291 . S
O554 Mg533 2.114 . S
O555 C527 1.208 . S
O555 Mg535 2.031 . S
C556 O541 1.264 . S
C556 O543 1.273 . S
C557 O538 1.191 . S
C557 O540 1.307 . S
C558 O585 1.312 . S
C558 O586 1.208 . S
C559 O580 1.331 . S
C559 O583 1.244 . S
C560 O582 1.264 . S
C560 O584 1.273 . S
Mg561 O563 1.936 . S
Mg561 O570 2.081 . S
Mg561 O572 2.023 . S
Mg561 O576 2.031 . S
Mg561 O585 2.291 . S
Mg562 O563 1.963 . S
Mg562 O573 1.942 . S
Mg562 O574 1.955 . S
Mg562 O581 1.986 . S
O563 Mg561 1.936 . S
O563 Mg562 1.963 . S
O563 Mg564 1.915 . S
Mg564 O563 1.915 . S
Mg564 O565 1.915 . S
Mg564 O569 2.013 . S
Mg564 O575 2.114 . S
Mg564 O579 2.013 . S
Mg564 O585 2.114 . S
O565 Mg564 1.915 . S
O565 Mg566 1.936 . S
O565 Mg567 1.963 . S
Mg566 O565 1.936 . S
Mg566 O575 2.291 . S
Mg566 O580 2.081 . S
Mg566 O582 2.023 . S
Mg566 O586 2.031 . S
Mg567 O565 1.963 . S
Mg567 O571 1.986 . S
Mg567 O583 1.942 . S
Mg567 O584 1.955 . S
C568 O579 1.191 . S
C568 O581 1.307 . S
O569 Mg564 2.013 . S
O569 C588 1.191 . S
O570 Mg561 2.081 . S
O570 C578 1.331 . S
O571 Mg567 1.986 . S
O571 C588 1.307 . S
O572 Mg561 2.023 . S
O572 C587 1.264 . S
O573 Mg562 1.942 . S
O573 C578 1.244 . S
O574 Mg562 1.955 . S
O574 C587 1.273 . S
O575 Mg564 2.114 . S
O575 Mg566 2.291 . S
O575 C577 1.312 . S
O576 Mg561 2.031 . S
O576 C577 1.208 . S
C577 O575 1.312 . S
C577 O576 1.208 . S
C578 O570 1.331 . S
C578 O573 1.244 . S
O579 Mg564 2.013 . S
O579 C568 1.191 . S
O580 C559 1.331 . S
O580 Mg566 2.081 . S
O581 Mg562 1.986 . S
O581 C568 1.307 . S
O582 C560 1.264 . S
O582 Mg566 2.023 . S
O583 C559 1.244 . S
O583 Mg567 1.942 . S
O584 C560 1.273 . S
O584 Mg567 1.955 . S
O585 C558 1.312 . S
O585 Mg561 2.291 . S
O585 Mg564 2.114 . S
O586 C558 1.208 . S
O586 Mg566 2.031 . S
C587 O572 1.264 . S
C587 O574 1.273 . S
C588 O569 1.191 . S
C588 O571 1.307 . S
C589 O616 1.312 . S
C589 O617 1.208 . S
C590 O611 1.331 . S
C590 O614 1.244 . S
C591 O613 1.264 . S
C591 O615 1.273 . S
Mg592 O594 1.936 . S
Mg592 O601 2.081 . S
Mg592 O603 2.023 . S
Mg592 O607 2.031 . S
Mg592 O616 2.291 . S
Mg593 O594 1.963 1_655 S
Mg593 O604 1.942 . S
Mg593 O605 1.955 . S
Mg593 O612 1.986 . S
O594 Mg592 1.936 . S
O594 Mg593 1.963 1_455 S
O594 Mg595 1.915 . S
Mg595 O594 1.915 . S
Mg595 O596 1.915 . S
Mg595 O600 2.013 . S
Mg595 O606 2.114 . S
Mg595 O610 2.013 . S
Mg595 O616 2.114 . S
O596 Mg595 1.915 . S
O596 Mg597 1.936 . S
O596 Mg598 1.963 . S
Mg597 O596 1.936 . S
Mg597 O606 2.291 . S
Mg597 O611 2.081 . S
Mg597 O613 2.023 . S
Mg597 O617 2.031 . S
Mg598 O596 1.963 . S
Mg598 O602 1.986 . S
Mg598 O614 1.942 . S
Mg598 O615 1.955 . S
C599 O610 1.191 . S
C599 O612 1.307 1_455 S
O600 Mg595 2.013 . S
O600 C619 1.191 . S
O601 Mg592 2.081 . S
O601 C609 1.331 1_455 S
O602 Mg598 1.986 . S
O602 C619 1.307 . S
O603 Mg592 2.023 . S
O603 C618 1.264 1_455 S
O604 Mg593 1.942 . S
O604 C609 1.244 . S
O605 Mg593 1.955 . S
O605 C618 1.273 . S
O606 Mg595 2.114 . S
O606 Mg597 2.291 . S
O606 C608 1.312 . S
O607 Mg592 2.031 . S
O607 C608 1.208 . S
C608 O606 1.312 . S
C608 O607 1.208 . S
C609 O601 1.331 1_655 S
C609 O604 1.244 . S
O610 Mg595 2.013 . S
O610 C599 1.191 . S
O611 C590 1.331 . S
O611 Mg597 2.081 . S
O612 Mg593 1.986 . S
O612 C599 1.307 1_655 S
O613 C591 1.264 . S
O613 Mg597 2.023 . S
O614 C590 1.244 . S
O614 Mg598 1.942 . S
O615 C591 1.273 . S
O615 Mg598 1.955 . S
O616 C589 1.312 . S
O616 Mg592 2.291 . S
O616 Mg595 2.114 . S
O617 C589 1.208 . S
O617 Mg597 2.031 . S
C618 O603 1.264 1_655 S
C618 O605 1.273 . S
C619 O600 1.191 . S
C619 O602 1.307 . S
C620 C621 1.369 . S
C620 C622 1.419 . S
C620 H624 0.930 . S
C621 C620 1.369 . S
C621 C630 1.429 . S
C622 C620 1.419 . S
C622 C623 1.363 . S
C622 H625 0.929 . S
C623 C622 1.363 . S
C623 C629 1.428 . S
H624 C620 0.930 . S
H625 C622 0.929 . S
S626 N627 1.613 . S
S626 N628 1.610 . S
N627 S626 1.613 . S
N627 C630 1.350 . S
N628 S626 1.610 . S
N628 C629 1.351 . S
C629 C623 1.428 . S
C629 N628 1.351 . S
C629 C630 1.434 . S
C630 C621 1.429 . S
C630 N627 1.350 . S
C630 C629 1.434 . S
C631 C632 1.369 . S
C631 C633 1.419 . S
C631 H635 0.930 . S
C632 C631 1.369 . S
C632 C641 1.429 . S
C633 C631 1.419 . S
C633 C634 1.363 . S
C633 H636 0.929 . S
C634 C633 1.363 . S
C634 C640 1.428 . S
H635 C631 0.930 . S
H636 C633 0.929 . S
S637 N638 1.613 . S
S637 N639 1.610 1_565 S
N638 S637 1.613 . S
N638 C641 1.350 1_565 S
N639 S637 1.610 1_545 S
N639 C640 1.351 . S
C640 C634 1.428 . S
C640 N639 1.351 . S
C640 C641 1.434 . S
C641 C632 1.429 . S
C641 N638 1.350 1_545 S
C641 C640 1.434 . S
C642 C643 1.369 . S
C642 C644 1.419 . S
C642 H646 0.930 . S
C643 C642 1.369 . S
C643 C652 1.429 . S
C644 C642 1.419 . S
C644 C645 1.363 . S
C644 H647 0.929 . S
C645 C644 1.363 . S
C645 C651 1.428 . S
H646 C642 0.930 . S
H647 C644 0.929 . S
S648 N649 1.613 . S
S648 N650 1.610 . S
N649 S648 1.613 . S
N649 C652 1.350 . S
N650 S648 1.610 . S
N650 C651 1.351 . S
C651 C645 1.428 . S
C651 N650 1.351 . S
C651 C652 1.434 . S
C652 C643 1.429 . S
C652 N649 1.350 . S
C652 C651 1.434 . S
C653 C654 1.369 . S
C653 C655 1.419 . S
C653 H657 0.930 1_565 S
C654 C653 1.369 . S
C654 C663 1.429 . S
C655 C653 1.419 . S
C655 C656 1.363 . S
C655 H658 0.929 . S
C656 C655 1.363 . S
C656 C662 1.428 . S
H657 C653 0.930 1_545 S
H658 C655 0.929 . S
S659 N660 1.613 . S
S659 N661 1.610 . S
N660 S659 1.613 . S
N660 C663 1.350 . S
N661 S659 1.610 . S
N661 C662 1.351 . S
C662 C656 1.428 . S
C662 N661 1.351 . S
C662 C663 1.434 . S
C663 C654 1.429 . S
C663 N660 1.350 . S
C663 C662 1.434 . S
C664 C665 1.369 . S
C664 C666 1.419 . S
C664 H668 0.930 . S
C665 C664 1.369 . S
C665 C674 1.429 . S
C666 C664 1.419 . S
C666 C667 1.363 . S
C666 H669 0.929 . S
C667 C666 1.363 . S
C667 C673 1.428 . S
H668 C664 0.930 . S
H669 C666 0.929 . S
S670 N671 1.613 . S
S670 N672 1.610 . S
N671 S670 1.613 . S
N671 C674 1.350 . S
N672 S670 1.610 . S
N672 C673 1.351 . S
C673 C667 1.428 . S
C673 N672 1.351 . S
C673 C674 1.434 . S
C674 C665 1.429 . S
C674 N671 1.350 . S
C674 C673 1.434 . S
C675 C676 1.369 1_545 S
C675 C677 1.419 . S
C675 H679 0.930 . S
C676 C675 1.369 1_565 S
C676 C685 1.429 . S
C677 C675 1.419 . S
C677 C678 1.363 . S
C677 H680 0.929 . S
C678 C677 1.363 . S
C678 C684 1.428 . S
H679 C675 0.930 . S
H680 C677 0.929 . S
S681 N682 1.613 . S
S681 N683 1.610 1_565 S
N682 S681 1.613 . S
N682 C685 1.350 . S
N683 S681 1.610 1_545 S
N683 C684 1.351 . S
C684 C678 1.428 . S
C684 N683 1.351 . S
C684 C685 1.434 1_545 S
C685 C676 1.429 . S
C685 N682 1.350 . S
C685 C684 1.434 1_565 S
C686 C687 1.369 . S
C686 C688 1.419 . S
C686 H690 0.930 . S
C687 C686 1.369 . S
C687 C696 1.429 . S
C688 C686 1.419 . S
C688 C689 1.363 . S
C688 H691 0.929 . S
C689 C688 1.363 . S
C689 C695 1.428 . S
H690 C686 0.930 . S
H691 C688 0.929 . S
S692 N693 1.613 . S
S692 N694 1.610 . S
N693 S692 1.613 . S
N693 C696 1.350 . S
N694 S692 1.610 . S
N694 C695 1.351 . S
C695 C689 1.428 . S
C695 N694 1.351 . S
C695 C696 1.434 . S
C696 C687 1.429 . S
C696 N693 1.350 . S
C696 C695 1.434 . S
C697 C698 1.369 1_565 S
C697 C699 1.419 . S
C697 H701 0.930 . S
C698 C697 1.369 1_545 S
C698 C707 1.429 . S
C699 C697 1.419 . S
C699 C700 1.363 . S
C699 H702 0.929 . S
C700 C699 1.363 . S
C700 C706 1.428 . S
H701 C697 0.930 . S
H702 C699 0.929 . S
S703 N704 1.613 . S
S703 N705 1.610 1_545 S
N704 S703 1.613 . S
N704 C707 1.350 . S
N705 S703 1.610 1_565 S
N705 C706 1.351 . S
C706 C700 1.428 . S
C706 N705 1.351 . S
C706 C707 1.434 1_565 S
C707 C698 1.429 . S
C707 N704 1.350 . S
C707 C706 1.434 1_545 S
C708 C709 1.369 . S
C708 C710 1.419 . S
C708 H712 0.930 . S
C709 C708 1.369 . S
C709 C718 1.429 . S
C710 C708 1.419 . S
C710 C711 1.363 . S
C710 H713 0.929 . S
C711 C710 1.363 . S
C711 C717 1.428 . S
H712 C708 0.930 . S
H713 C710 0.929 . S
S714 N715 1.613 . S
S714 N716 1.610 . S
N715 S714 1.613 . S
N715 C718 1.350 . S
N716 S714 1.610 . S
N716 C717 1.351 . S
C717 C711 1.428 . S
C717 N716 1.351 . S
C717 C718 1.434 . S
C718 C709 1.429 . S
C718 N715 1.350 . S
C718 C717 1.434 . S
C719 C720 1.369 . S
C719 C721 1.419 . S
C719 H723 0.930 . S
C720 C719 1.369 . S
C720 C729 1.429 . S
C721 C719 1.419 . S
C721 C722 1.363 . S
C721 H724 0.929 . S
C722 C721 1.363 . S
C722 C728 1.428 . S
H723 C719 0.930 . S
H724 C721 0.929 . S
S725 N726 1.613 . S
S725 N727 1.610 . S
N726 S725 1.613 . S
N726 C729 1.350 . S
N727 S725 1.610 . S
N727 C728 1.351 . S
C728 C722 1.428 . S
C728 N727 1.351 . S
C728 C729 1.434 . S
C729 C720 1.429 . S
C729 N726 1.350 . S
C729 C728 1.434 . S
C730 C731 1.369 . S
C730 C732 1.419 . S
C730 H734 0.930 . S
C731 C730 1.369 . S
C731 C740 1.429 . S
C732 C730 1.419 . S
C732 C733 1.363 1_655 S
C732 H735 0.929 . S
C733 C732 1.363 1_455 S
C733 C739 1.428 . S
H734 C730 0.930 . S
H735 C732 0.929 . S
S736 N737 1.613 . S
S736 N738 1.610 . S
N737 S736 1.613 . S
N737 C740 1.350 1_455 S
N738 S736 1.610 . S
N738 C739 1.351 . S
C739 C733 1.428 . S
C739 N738 1.351 . S
C739 C740 1.434 1_455 S
C740 C731 1.429 . S
C740 N737 1.350 1_655 S
C740 C739 1.434 1_655 S
C741 C742 1.369 . S
C741 C743 1.419 . S
C741 H745 0.930 . S
C742 C741 1.369 . S
C742 C751 1.429 . S
C743 C741 1.419 . S
C743 C744 1.363 1_655 S
C743 H746 0.929 1_655 S
C744 C743 1.363 1_455 S
C744 C750 1.428 1_455 S
H745 C741 0.930 . S
H746 C743 0.929 1_455 S
S747 N748 1.613 . S
S747 N749 1.610 . S
N748 S747 1.613 . S
N748 C751 1.350 . S
N749 S747 1.610 . S
N749 C750 1.351 . S
C750 C744 1.428 1_655 S
C750 N749 1.351 . S
C750 C751 1.434 . S
C751 C742 1.429 . S
C751 N748 1.350 . S
C751 C750 1.434 . S
C752 C753 1.369 . S
C752 C754 1.419 . S
C752 H756 0.930 . S
C753 C752 1.369 . S
C753 C762 1.429 . S
C754 C752 1.419 . S
C754 C755 1.363 . S
C754 H757 0.929 . S
C755 C754 1.363 . S
C755 C761 1.428 . S
H756 C752 0.930 . S
H757 C754 0.929 . S
S758 N759 1.613 . S
S758 N760 1.610 . S
N759 S758 1.613 . S
N759 C762 1.350 . S
N760 S758 1.610 . S
N760 C761 1.351 . S
C761 C755 1.428 . S
C761 N760 1.351 . S
C761 C762 1.434 . S
C762 C753 1.429 . S
C762 N759 1.350 . S
C762 C761 1.434 . S
C763 C764 1.369 . S
C763 C765 1.419 . S
C763 H767 0.930 . S
C764 C763 1.369 . S
C764 C773 1.429 . S
C765 C763 1.419 . S
C765 C766 1.363 . S
C765 H768 0.929 . S
C766 C765 1.363 . S
C766 C772 1.428 1_655 S
H767 C763 0.930 . S
H768 C765 0.929 . S
S769 N770 1.613 . S
S769 N771 1.610 . S
N770 S769 1.613 . S
N770 C773 1.350 1_455 S
N771 S769 1.610 . S
N771 C772 1.351 . S
C772 C766 1.428 1_455 S
C772 N771 1.351 . S
C772 C773 1.434 1_455 S
C773 C764 1.429 . S
C773 N770 1.350 1_655 S
C773 C772 1.434 1_655 S
C774 C775 1.369 1_455 S
C774 C776 1.419 . S
C774 H778 0.930 . S
C775 C774 1.369 1_655 S
C775 C784 1.429 . S
C776 C774 1.419 . S
C776 C777 1.363 . S
C776 H779 0.929 . S
C777 C776 1.363 . S
C777 C783 1.428 1_455 S
H778 C774 0.930 . S
H779 C776 0.929 . S
S780 N781 1.613 . S
S780 N782 1.610 . S
N781 S780 1.613 . S
N781 C784 1.350 . S
N782 S780 1.610 . S
N782 C783 1.351 . S
C783 C777 1.428 1_655 S
C783 N782 1.351 . S
C783 C784 1.434 . S
C784 C775 1.429 . S
C784 N781 1.350 . S
C784 C783 1.434 . S
C785 C786 1.369 . S
C785 C787 1.419 . S
C785 H789 0.930 . S
C786 C785 1.369 . S
C786 C795 1.429 . S
C787 C785 1.419 . S
C787 C788 1.363 . S
C787 H790 0.929 . S
C788 C787 1.363 . S
C788 C794 1.428 . S
H789 C785 0.930 . S
H790 C787 0.929 . S
S791 N792 1.613 . S
S791 N793 1.610 . S
N792 S791 1.613 . S
N792 C795 1.350 . S
N793 S791 1.610 . S
N793 C794 1.351 . S
C794 C788 1.428 . S
C794 N793 1.351 . S
C794 C795 1.434 . S
C795 C786 1.429 . S
C795 N792 1.350 . S
C795 C794 1.434 . S
C796 C797 1.369 . S
C796 C798 1.419 . S
C796 H800 0.930 . S
C797 C796 1.369 . S
C797 C806 1.429 . S
C798 C796 1.419 . S
C798 C799 1.363 . S
C798 H801 0.929 . S
C799 C798 1.363 . S
C799 C805 1.428 . S
H800 C796 0.930 . S
H801 C798 0.929 . S
S802 N803 1.613 . S
S802 N804 1.610 . S
N803 S802 1.613 . S
N803 C806 1.350 . S
N804 S802 1.610 . S
N804 C805 1.351 . S
C805 C799 1.428 . S
C805 N804 1.351 . S
C805 C806 1.434 . S
C806 C797 1.429 . S
C806 N803 1.350 . S
C806 C805 1.434 . S
C807 C808 1.369 . S
C807 C809 1.419 . S
C807 H811 0.930 . S
C808 C807 1.369 . S
C808 C817 1.429 . S
C809 C807 1.419 . S
C809 C810 1.363 . S
C809 H812 0.929 . S
C810 C809 1.363 . S
C810 C816 1.428 . S
H811 C807 0.930 . S
H812 C809 0.929 . S
S813 N814 1.613 . S
S813 N815 1.610 . S
N814 S813 1.613 . S
N814 C817 1.350 . S
N815 S813 1.610 . S
N815 C816 1.351 . S
C816 C810 1.428 . S
C816 N815 1.351 . S
C816 C817 1.434 . S
C817 C808 1.429 . S
C817 N814 1.350 . S
C817 C816 1.434 . S
C818 C819 1.369 . S
C818 C820 1.419 . S
C818 H822 0.930 . S
C819 C818 1.369 . S
C819 C828 1.429 . S
C820 C818 1.419 . S
C820 C821 1.363 . S
C820 H823 0.929 . S
C821 C820 1.363 . S
C821 C827 1.428 . S
H822 C818 0.930 . S
H823 C820 0.929 . S
S824 N825 1.613 . S
S824 N826 1.610 . S
N825 S824 1.613 . S
N825 C828 1.350 . S
N826 S824 1.610 . S
N826 C827 1.351 . S
C827 C821 1.428 . S
C827 N826 1.351 . S
C827 C828 1.434 . S
C828 C819 1.429 . S
C828 N825 1.350 . S
C828 C827 1.434 . S
C829 C830 1.369 . S
C829 C831 1.419 . S
C829 H833 0.930 . S
C830 C829 1.369 . S
C830 C839 1.429 . S
C831 C829 1.419 . S
C831 C832 1.363 . S
C831 H834 0.929 . S
C832 C831 1.363 . S
C832 C838 1.428 . S
H833 C829 0.930 . S
H834 C831 0.929 . S
S835 N836 1.613 . S
S835 N837 1.610 . S
N836 S835 1.613 . S
N836 C839 1.350 . S
N837 S835 1.610 . S
N837 C838 1.351 . S
C838 C832 1.428 . S
C838 N837 1.351 . S
C838 C839 1.434 . S
C839 C830 1.429 . S
C839 N836 1.350 . S
C839 C838 1.434 . S
C840 C841 1.369 . S
C840 C842 1.419 . S
C840 H844 0.930 . S
C841 C840 1.369 . S
C841 C850 1.429 . S
C842 C840 1.419 . S
C842 C843 1.363 . S
C842 H845 0.929 . S
C843 C842 1.363 . S
C843 C849 1.428 . S
H844 C840 0.930 . S
H845 C842 0.929 . S
S846 N847 1.613 . S
S846 N848 1.610 . S
N847 S846 1.613 . S
N847 C850 1.350 . S
N848 S846 1.610 . S
N848 C849 1.351 . S
C849 C843 1.428 . S
C849 N848 1.351 . S
C849 C850 1.434 . S
C850 C841 1.429 . S
C850 N847 1.350 . S
C850 C849 1.434 . S
C851 C852 1.369 . S
C851 C853 1.419 . S
C851 H855 0.930 . S
C852 C851 1.369 . S
C852 C861 1.429 . S
C853 C851 1.419 . S
C853 C854 1.363 . S
C853 H856 0.929 . S
C854 C853 1.363 . S
C854 C860 1.428 . S
H855 C851 0.930 . S
H856 C853 0.929 . S
S857 N858 1.613 . S
S857 N859 1.610 . S
N858 S857 1.613 . S
N858 C861 1.350 . S
N859 S857 1.610 . S
N859 C860 1.351 . S
C860 C854 1.428 . S
C860 N859 1.351 . S
C860 C861 1.434 . S
C861 C852 1.429 . S
C861 N858 1.350 . S
C861 C860 1.434 . S
C862 C863 1.369 . S
C862 C864 1.419 . S
C862 H866 0.930 . S
C863 C862 1.369 . S
C863 C872 1.429 . S
C864 C862 1.419 . S
C864 C865 1.363 . S
C864 H867 0.929 . S
C865 C864 1.363 . S
C865 C871 1.428 . S
H866 C862 0.930 . S
H867 C864 0.929 . S
S868 N869 1.613 . S
S868 N870 1.610 . S
N869 S868 1.613 . S
N869 C872 1.350 . S
N870 S868 1.610 . S
N870 C871 1.351 . S
C871 C865 1.428 . S
C871 N870 1.351 . S
C871 C872 1.434 . S
C872 C863 1.429 . S
C872 N869 1.350 . S
C872 C871 1.434 . S
C873 C874 1.369 . S
C873 C875 1.419 . S
C873 H877 0.930 1_655 S
C874 C873 1.369 . S
C874 C883 1.429 . S
C875 C873 1.419 . S
C875 C876 1.363 . S
C875 H878 0.929 1_655 S
C876 C875 1.363 . S
C876 C882 1.428 . S
H877 C873 0.930 1_455 S
H878 C875 0.929 1_455 S
S879 N880 1.613 . S
S879 N881 1.610 . S
N880 S879 1.613 . S
N880 C883 1.350 . S
N881 S879 1.610 . S
N881 C882 1.351 . S
C882 C876 1.428 . S
C882 N881 1.351 . S
C882 C883 1.434 . S
C883 C874 1.429 . S
C883 N880 1.350 . S
C883 C882 1.434 . S
C884 C885 1.369 . S
C884 C886 1.419 . S
C884 H888 0.930 . S
C885 C884 1.369 . S
C885 C894 1.429 . S
C886 C884 1.419 . S
C886 C887 1.363 . S
C886 H889 0.929 . S
C887 C886 1.363 . S
C887 C893 1.428 . S
H888 C884 0.930 . S
H889 C886 0.929 . S
S890 N891 1.613 . S
S890 N892 1.610 . S
N891 S890 1.613 . S
N891 C894 1.350 . S
N892 S890 1.610 . S
N892 C893 1.351 . S
C893 C887 1.428 . S
C893 N892 1.351 . S
C893 C894 1.434 . S
C894 C885 1.429 . S
C894 N891 1.350 . S
C894 C893 1.434 . S
C895 C896 1.369 . S
C895 C897 1.419 . S
C895 H899 0.930 . S
C896 C895 1.369 . S
C896 C905 1.429 . S
C897 C895 1.419 . S
C897 C898 1.363 . S
C897 H900 0.929 . S
C898 C897 1.363 . S
C898 C904 1.428 . S
H899 C895 0.930 . S
H900 C897 0.929 . S
S901 N902 1.613 . S
S901 N903 1.610 . S
N902 S901 1.613 . S
N902 C905 1.350 . S
N903 S901 1.610 . S
N903 C904 1.351 . S
C904 C898 1.428 . S
C904 N903 1.351 . S
C904 C905 1.434 . S
C905 C896 1.429 . S
C905 N902 1.350 . S
C905 C904 1.434 . S
C906 C907 1.369 . S
C906 C908 1.419 . S
C906 H910 0.930 . S
C907 C906 1.369 . S
C907 C916 1.429 . S
C908 C906 1.419 . S
C908 C909 1.363 . S
C908 H911 0.929 . S
C909 C908 1.363 . S
C909 C915 1.428 . S
H910 C906 0.930 . S
H911 C908 0.929 . S
S912 N913 1.613 . S
S912 N914 1.610 . S
N913 S912 1.613 . S
N913 C916 1.350 . S
N914 S912 1.610 . S
N914 C915 1.351 . S
C915 C909 1.428 . S
C915 N914 1.351 . S
C915 C916 1.434 . S
C916 C907 1.429 . S
C916 N913 1.350 . S
C916 C915 1.434 . S
C917 C918 1.369 . S
C917 C919 1.419 . S
C917 H921 0.930 . S
C918 C917 1.369 . S
C918 C927 1.429 . S
C919 C917 1.419 . S
C919 C920 1.363 . S
C919 H922 0.929 . S
C920 C919 1.363 . S
C920 C926 1.428 . S
H921 C917 0.930 . S
H922 C919 0.929 . S
S923 N924 1.613 . S
S923 N925 1.610 . S
N924 S923 1.613 . S
N924 C927 1.350 . S
N925 S923 1.610 . S
N925 C926 1.351 . S
C926 C920 1.428 . S
C926 N925 1.351 . S
C926 C927 1.434 . S
C927 C918 1.429 . S
C927 N924 1.350 . S
C927 C926 1.434 . S
C928 C929 1.369 . S
C928 C930 1.419 . S
C928 H932 0.930 . S
C929 C928 1.369 . S
C929 C938 1.429 . S
C930 C928 1.419 . S
C930 C931 1.363 . S
C930 H933 0.929 . S
C931 C930 1.363 . S
C931 C937 1.428 . S
H932 C928 0.930 . S
H933 C930 0.929 . S
S934 N935 1.613 . S
S934 N936 1.610 . S
N935 S934 1.613 . S
N935 C938 1.350 . S
N936 S934 1.610 . S
N936 C937 1.351 . S
C937 C931 1.428 . S
C937 N936 1.351 . S
C937 C938 1.434 . S
C938 C929 1.429 . S
C938 N935 1.350 . S
C938 C937 1.434 . S
C939 C940 1.369 . S
C939 C941 1.419 . S
C939 H943 0.930 . S
C940 C939 1.369 . S
C940 C949 1.429 . S
C941 C939 1.419 . S
C941 C942 1.363 . S
C941 H944 0.929 . S
C942 C941 1.363 . S
C942 C948 1.428 . S
H943 C939 0.930 . S
H944 C941 0.929 . S
S945 N946 1.613 . S
S945 N947 1.610 . S
N946 S945 1.613 . S
N946 C949 1.350 . S
N947 S945 1.610 . S
N947 C948 1.351 . S
C948 C942 1.428 . S
C948 N947 1.351 . S
C948 C949 1.434 . S
C949 C940 1.429 . S
C949 N946 1.350 . S
C949 C948 1.434 . S
C950 C951 1.369 . S
C950 C952 1.419 . S
C950 H954 0.930 . S
C951 C950 1.369 . S
C951 C960 1.429 . S
C952 C950 1.419 . S
C952 C953 1.363 . S
C952 H955 0.929 . S
C953 C952 1.363 . S
C953 C959 1.428 . S
H954 C950 0.930 . S
H955 C952 0.929 . S
S956 N957 1.613 . S
S956 N958 1.610 . S
N957 S956 1.613 . S
N957 C960 1.350 . S
N958 S956 1.610 . S
N958 C959 1.351 . S
C959 C953 1.428 . S
C959 N958 1.351 . S
C959 C960 1.434 . S
C960 C951 1.429 . S
C960 N957 1.350 . S
C960 C959 1.434 . S
C961 C962 1.369 . S
C961 C963 1.419 . S
C961 H965 0.930 . S
C962 C961 1.369 . S
C962 C971 1.429 . S
C963 C961 1.419 . S
C963 C964 1.363 . S
C963 H966 0.929 . S
C964 C963 1.363 . S
C964 C970 1.428 . S
H965 C961 0.930 . S
H966 C963 0.929 . S
S967 N968 1.613 . S
S967 N969 1.610 . S
N968 S967 1.613 . S
N968 C971 1.350 . S
N969 S967 1.610 . S
N969 C970 1.351 . S
C970 C964 1.428 . S
C970 N969 1.351 . S
C970 C971 1.434 . S
C971 C962 1.429 . S
C971 N968 1.350 . S
C971 C970 1.434 . S
C623 C556 1.730 . S
C621 C53 1.749 . S
C632 C115 1.704 1_545 S
C634 C559 1.697 . S
C643 C177 1.673 . S
C645 C590 1.672 . S
C656 C525 1.729 . S
C654 C239 1.745 1_565 S
C667 C560 1.945 . S
C665 C47 1.890 . S
C678 C591 1.897 . S
C676 C109 1.839 . S
C689 C516 1.851 . S
C687 C171 1.764 . S
C700 C547 1.871 . S
C698 C233 1.796 . S
C709 C29 1.515 . S
C711 C577 1.468 . S
C720 C277 1.513 . S
C722 C546 1.456 . S
C731 C153 1.444 . S
C733 C506 1.442 . S
C744 C599 1.467 . S
C742 C339 1.457 . S
C755 C527 1.515 . S
C753 C35 1.529 . S
C764 C283 1.500 . S
C766 C526 1.474 1_655 S
C775 C159 1.496 . S
C777 C619 1.474 . S
C788 C558 1.493 . S
C786 C345 1.506 . S
C797 C419 1.824 . S
C799 C618 1.898 . S
C808 C301 1.697 . S
C810 C497 1.692 . S
C819 C487 1.652 . S
C821 C528 1.649 . S
C830 C363 1.716 . S
C832 C587 1.695 . S
C843 C498 1.793 . S
C841 C425 1.813 . S
C852 C295 1.858 . S
C854 C529 1.933 . S
C863 C481 1.784 . S
C865 C578 1.867 . S
C876 C609 1.880 . S
C874 C357 1.795 . S
C885 C407 1.592 . S
C887 C515 1.582 . S
C896 C91 1.500 . S
C898 C608 1.443 . S
C907 C463 1.459 . S
C909 C568 1.459 . S
C920 C537 1.454 . S
C918 C215 1.455 . S
C931 C589 1.412 . S
C929 C401 1.467 . S
C942 C588 1.484 . S
C940 C97 1.508 . S
C953 C557 1.449 . S
C951 C469 1.477 . S
C964 C496 1.523 . S
C962 C221 1.532 . S
