# Generated by pormake.
# Topology anh, (6,3)-cn, num edge types: 1
# Building blocks:
#     Node 0, Type 0, BuildingBlock: BETDEL_clean_sbu_0, # of connection points: 6
#     Node 1, Type 0, BuildingBlock: BETDEL_clean_sbu_0, # of connection points: 6
#     Node 2, Type 0, BuildingBlock: BETDEL_clean_sbu_0, # of connection points: 6
#     Node 3, Type 1, BuildingBlock: KAKCAD_clean_linker_0, # of connection points: 3
#     Node 4, Type 1, BuildingBlock: KAKCAD_clean_linker_0, # of connection points: 3
#     Node 5, Type 1, BuildingBlock: KAKCAD_clean_linker_0, # of connection points: 3
#     Node 6, Type 1, BuildingBlock: KAKCAD_clean_linker_0, # of connection points: 3
#     Node 7, Type 1, BuildingBlock: KAKCAD_clean_linker_0, # of connection points: 3
#     Node 8, Type 1, BuildingBlock: KAKCAD_clean_linker_0, # of connection points: 3
#     Edge 9, Type (0, 1), BuildingBlock: KIFKEQ_clean_linker_1, # of connection points: 2
#     Edge 10, Type (0, 1), BuildingBlock: KIFKEQ_clean_linker_1, # of connection points: 2
#     Edge 11, Type (0, 1), BuildingBlock: KIFKEQ_clean_linker_1, # of connection points: 2
#     Edge 12, Type (0, 1), BuildingBlock: KIFKEQ_clean_linker_1, # of connection points: 2
#     Edge 13, Type (0, 1), BuildingBlock: KIFKEQ_clean_linker_1, # of connection points: 2
#     Edge 14, Type (0, 1), BuildingBlock: KIFKEQ_clean_linker_1, # of connection points: 2
#     Edge 15, Type (0, 1), BuildingBlock: KIFKEQ_clean_linker_1, # of connection points: 2
#     Edge 16, Type (0, 1), BuildingBlock: KIFKEQ_clean_linker_1, # of connection points: 2
#     Edge 17, Type (0, 1), BuildingBlock: KIFKEQ_clean_linker_1, # of connection points: 2
#     Edge 18, Type (0, 1), BuildingBlock: KIFKEQ_clean_linker_1, # of connection points: 2
#     Edge 19, Type (0, 1), BuildingBlock: KIFKEQ_clean_linker_1, # of connection points: 2
#     Edge 20, Type (0, 1), BuildingBlock: KIFKEQ_clean_linker_1, # of connection points: 2
#     Edge 21, Type (0, 1), BuildingBlock: KIFKEQ_clean_linker_1, # of connection points: 2
#     Edge 22, Type (0, 1), BuildingBlock: KIFKEQ_clean_linker_1, # of connection points: 2
#     Edge 23, Type (0, 1), BuildingBlock: KIFKEQ_clean_linker_1, # of connection points: 2
#     Edge 24, Type (0, 1), BuildingBlock: KIFKEQ_clean_linker_1, # of connection points: 2
#     Edge 25, Type (0, 1), BuildingBlock: KIFKEQ_clean_linker_1, # of connection points: 2
#     Edge 26, Type (0, 1), BuildingBlock: KIFKEQ_clean_linker_1, # of connection points: 2
# Relax obj value: 0.140
# Max RMSD: 0.165
# Mean RMSD: 0.132
data_MOF--net-anh--node1-BETDEL_clean_sbu_0--node2-KAKCAD_clean_linker_0--edge1-KIFKEQ_clean_linker_1
_symmetry_space_group_name_H-M    P1
_symmetry_Int_Tables_number       1
_symmetry_cell_setting            triclinic
loop_
_symmetry_equiv_pos_as_xyz
'x, y, z'
_cell_length_a     36.254806
_cell_length_b     36.21945
_cell_length_c     65.664143
_cell_angle_alpha  89.993965
_cell_angle_beta   90.077795
_cell_angle_gamma 120.18259
loop_
_atom_site_label
_atom_site_type_symbol
_atom_site_fract_x
_atom_site_fract_y
_atom_site_fract_z
_atom_type_partial_charge
Dy0 Dy 0.04465 0.49242 0.1636 0.0
C1 C 0.94318 0.56984 0.18652 0.0
C2 C 0.09907 0.46487 0.15274 0.0
Dy3 Dy 0.99227 0.54124 0.16922 0.0
O4 O 0.09071 0.47053 0.1713 0.0
O5 O 0.07747 0.47409 0.13992 0.0
O6 O 0.0211 0.46268 0.19432 0.0
O7 O 0.0303 0.52371 0.18808 0.0
C8 C 1.01652 0.49395 0.20096 0.0
C9 C 1.00202 0.52924 0.1295 0.0
O10 O 0.05922 0.59575 0.1739 0.0
O11 O 0.09666 0.56194 0.16346 0.0
O12 O 0.9708 0.58934 0.17205 0.0
O13 O 0.94306 0.53512 0.19171 0.0
O14 O 0.98132 0.54784 0.13569 0.0
O15 O 1.015 0.51868 0.14491 0.0
O16 O 0.97839 0.43845 0.15731 0.0
O17 O 0.94151 0.47148 0.1697 0.0
C18 C 0.09538 0.59664 0.16914 0.0
C19 C 0.94262 0.43735 0.16299 0.0
Dy20 Dy 0.49557 0.04527 0.49793 0.0
C21 C 0.67472 0.14751 0.52311 0.0
C22 C 0.41494 0.98999 0.48495 0.0
Dy23 Dy 0.59674 0.09826 0.5057 0.0
O24 O 0.42732 0.99634 0.50382 0.0
O25 O 0.44662 0.01434 0.47302 0.0
O26 O 0.48632 0.06653 0.52862 0.0
O27 O 0.53932 0.05881 0.52333 0.0
C28 C 0.52189 0.07146 0.53594 0.0
C29 C 0.57734 0.08982 0.46557 0.0
O30 O 0.58367 0.03127 0.51053 0.0
O31 O 0.51397 0.99402 0.49766 0.0
O32 O 0.66622 0.11937 0.50884 0.0
O33 O 0.64019 0.14779 0.52819 0.0
O34 O 0.6163 0.11084 0.4723 0.0
O35 O 0.5532 0.07625 0.48069 0.0
O36 O 0.50886 0.11215 0.49216 0.0
O37 O 0.57655 0.14777 0.50724 0.0
C38 C 0.54921 0.99527 0.50455 0.0
C39 C 0.54242 0.14744 0.49947 0.0
Dy40 Dy 0.60885 0.59634 0.82938 0.0
C41 C 0.53469 0.41927 0.84729 0.0
C42 C 0.63757 0.678 0.81676 0.0
Dy43 Dy 0.56102 0.50061 0.83469 0.0
O44 O 0.64532 0.66722 0.83438 0.0
O45 O 0.61429 0.64411 0.80586 0.0
O46 O 0.63867 0.60474 0.8602 0.0
O47 O 0.57664 0.55365 0.85488 0.0
C48 C 0.6069 0.56999 0.8675 0.0
C49 C 0.56346 0.52731 0.79645 0.0
O50 O 0.50805 0.51217 0.84339 0.0
O51 O 0.53965 0.58071 0.83014 0.0
O52 O 0.52307 0.42939 0.83047 0.0
O53 O 0.56023 0.45365 0.85734 0.0
O54 O 0.53103 0.49349 0.80404 0.0
O55 O 0.59392 0.54324 0.80901 0.0
O56 O 0.66393 0.58596 0.82352 0.0
O57 O 0.62967 0.516 0.83511 0.0
C58 C 0.50581 0.54613 0.83766 0.0
C59 C 0.66475 0.55123 0.82924 0.0
C60 C 0.53771 0.07445 0.3021 0.0
C61 C 0.52361 0.03859 0.31468 0.0
C62 C 0.53512 0.06997 0.28095 0.0
C63 C 0.51935 0.02956 0.27182 0.0
C64 C 0.50455 0.99353 0.28456 0.0
C65 C 0.50634 0.998 0.3058 0.0
C66 C 0.5193 0.0255 0.24915 0.0
C67 C 0.5521 0.05773 0.23751 0.0
C68 C 0.5519 0.05613 0.2161 0.0
C69 C 0.51899 0.01967 0.2062 0.0
C70 C 0.48641 0.98596 0.2177 0.0
C71 C 0.48666 0.98986 0.23906 0.0
C72 C 0.45129 0.94637 0.20805 0.0
C73 C 0.42773 0.94819 0.19143 0.0
C74 C 0.43854 0.90629 0.21684 0.0
C75 C 0.40227 0.86937 0.2099 0.0
C76 C 0.37751 0.87114 0.19382 0.0
C77 C 0.58648 0.09354 0.20485 0.0
C78 C 0.5998 0.13516 0.21179 0.0
C79 C 0.6091 0.08862 0.18869 0.0
C80 C 0.64534 0.12435 0.18042 0.0
C81 C 0.65986 0.16587 0.18813 0.0
C82 C 0.63597 0.1705 0.20378 0.0
C83 C 0.39118 0.91103 0.18445 0.0
H84 H 0.55084 0.10604 0.30868 0.0
H85 H 0.54567 0.09837 0.27177 0.0
H86 H 0.49266 0.96196 0.27819 0.0
H87 H 0.49556 0.96995 0.31528 0.0
H88 H 0.5785 0.08438 0.24521 0.0
H89 H 0.46062 0.96524 0.24784 0.0
H90 H 0.51867 0.01757 0.18974 0.0
H91 H 0.43653 0.97853 0.18436 0.0
H92 H 0.45613 0.90359 0.22955 0.0
H93 H 0.39283 0.83962 0.21773 0.0
H94 H 0.58288 0.14041 0.22399 0.0
H95 H 0.5998 0.05707 0.18297 0.0
H96 H 0.37337 0.91368 0.17184 0.0
H97 H 0.64592 0.20137 0.21053 0.0
H98 H 0.66221 0.11927 0.16816 0.0
C99 C 0.53007 0.56845 0.63579 0.0
C100 C 0.56627 0.57043 0.64488 0.0
C101 C 0.52638 0.56901 0.61462 0.0
C102 C 0.5583 0.57063 0.60197 0.0
C103 C 0.5943 0.57225 0.61085 0.0
C104 C 0.59848 0.57261 0.63206 0.0
C105 C 0.55379 0.57051 0.57954 0.0
C106 C 0.54637 0.60082 0.57011 0.0
C107 C 0.54097 0.60085 0.54887 0.0
C108 C 0.54257 0.56897 0.53702 0.0
C109 C 0.55009 0.53815 0.54642 0.0
C110 C 0.55609 0.5397 0.56763 0.0
C111 C 0.55096 0.50318 0.5348 0.0
C112 C 0.51545 0.4735 0.52343 0.0
C113 C 0.58521 0.49581 0.5375 0.0
C114 C 0.58342 0.45895 0.52974 0.0
C115 C 0.54712 0.42807 0.51919 0.0
C116 C 0.535 0.63541 0.53973 0.0
C117 C 0.50921 0.64861 0.54971 0.0
C118 C 0.55864 0.65888 0.52266 0.0
C119 C 0.55854 0.69614 0.51661 0.0
C120 C 0.53501 0.7108 0.52759 0.0
C121 C 0.50943 0.68583 0.54383 0.0
C122 C 0.51342 0.43619 0.51582 0.0
H123 H 0.50402 0.56566 0.64497 0.0
H124 H 0.4981 0.5673 0.60809 0.0
H125 H 0.61952 0.57389 0.60137 0.0
H126 H 0.62722 0.57501 0.63834 0.0
H127 H 0.54592 0.62529 0.57944 0.0
H128 H 0.56122 0.51588 0.57504 0.0
H129 H 0.53808 0.56814 0.52068 0.0
H130 H 0.48838 0.47808 0.5213 0.0
H131 H 0.6129 0.51798 0.5463 0.0
H132 H 0.60982 0.45378 0.53286 0.0
H133 H 0.48983 0.63087 0.56263 0.0
H134 H 0.57899 0.6498 0.51467 0.0
H135 H 0.48514 0.41334 0.5076 0.0
H136 H 0.49018 0.69562 0.55232 0.0
H137 H 0.57853 0.71463 0.504 0.0
C138 C 0.09575 0.54767 0.97045 0.0
C139 C 0.05452 0.52872 0.97868 0.0
C140 C 0.10177 0.55131 0.94932 0.0
C141 C 0.06658 0.53533 0.93594 0.0
C142 C 0.02527 0.51529 0.94436 0.0
C143 C 0.01937 0.51246 0.96544 0.0
C144 C 0.07274 0.53968 0.91336 0.0
C145 C 0.10611 0.53682 0.90403 0.0
C146 C 0.11201 0.54054 0.88277 0.0
C147 C 0.08318 0.54639 0.8706 0.0
C148 C 0.04924 0.54882 0.87972 0.0
C149 C 0.04486 0.5462 0.90097 0.0
C150 C 1.01614 0.55173 0.86761 0.0
C151 C 1.01501 0.58993 0.86722 0.0
C152 C 0.98116 0.51441 0.85985 0.0
C153 C 0.94493 0.51485 0.85264 0.0
C154 C 0.94298 0.55272 0.85292 0.0
C155 C 0.14864 0.53812 0.87388 0.0
C156 C 0.1787 0.57067 0.86123 0.0
C157 C 0.15622 0.50526 0.87989 0.0
C158 C 0.19371 0.50586 0.87423 0.0
C159 C 0.22512 0.53961 0.86253 0.0
C160 C 0.21658 0.57149 0.85567 0.0
C161 C 0.97901 0.59054 0.85975 0.0
H162 H 0.12338 0.56079 0.98038 0.0
H163 H 0.13409 0.56753 0.94353 0.0
H164 H 0.99728 0.50152 0.93468 0.0
H165 H 0.9872 0.4973 0.97145 0.0
H166 H 0.12771 0.53151 0.91333 0.0
H167 H 0.01917 0.549 0.90781 0.0
H168 H 0.08671 0.54839 0.85418 0.0
H169 H 0.04122 0.61891 0.87355 0.0
H170 H 0.98093 0.48439 0.86037 0.0
H171 H 0.91793 0.48524 0.84734 0.0
H172 H 0.17391 0.59661 0.85649 0.0
H173 H 0.13343 0.47943 0.88942 0.0
H174 H 0.97849 0.62015 0.86037 0.0
H175 H 0.23992 0.5981 0.84671 0.0
H176 H 0.19831 0.48002 0.87933 0.0
C177 C 0.97173 0.5588 0.35778 0.0
C178 C 0.96629 0.52119 0.34879 0.0
C179 C 0.9776 0.565 0.37878 0.0
C180 C 0.97818 0.53373 0.39122 0.0
C181 C 0.97024 0.49506 0.3824 0.0
C182 C 0.96436 0.48885 0.36137 0.0
C183 C 0.99089 0.54301 0.41292 0.0
C184 C 0.9692 0.5124 0.42808 0.0
C185 C 0.98276 0.52077 0.4485 0.0
C186 C 0.01893 0.56001 0.45359 0.0
C187 C 0.04106 0.59099 0.43852 0.0
C188 C 0.02642 0.58227 0.41832 0.0
C189 C 0.07955 0.63249 0.44359 0.0
C190 C 0.08119 0.65492 0.46135 0.0
C191 C 0.11448 0.65075 0.43018 0.0
C192 C 0.14957 0.69099 0.43407 0.0
C193 C 0.15105 0.71381 0.45166 0.0
C194 C 0.95888 0.48825 0.46436 0.0
C195 C 0.91412 0.46684 0.46455 0.0
C196 C 0.98026 0.4773 0.47891 0.0
C197 C 0.95717 0.44452 0.49294 0.0
C198 C 0.9123 0.42243 0.49277 0.0
C199 C 0.89113 0.43435 0.47856 0.0
C200 C 0.11661 0.69508 0.46537 0.0
H201 H 0.97257 0.58395 0.34852 0.0
H202 H 0.98285 0.5948 0.38522 0.0
H203 H 0.97084 0.47053 0.39159 0.0
H204 H 0.96061 0.45967 0.35487 0.0
H205 H 0.9418 0.48192 0.42396 0.0
H206 H 0.04315 0.60599 0.40661 0.0
H207 H 0.02981 0.56636 0.46925 0.0
H208 H 0.05473 0.64189 0.47194 0.0
H209 H 0.11467 0.63405 0.41654 0.0
H210 H 0.1752 0.70447 0.42303 0.0
H211 H 0.89679 0.47491 0.45367 0.0
H212 H 1.01478 0.49318 0.47904 0.0
H213 H 0.11697 0.71141 0.47925 0.0
H214 H 0.85662 0.41758 0.47776 0.0
H215 H 0.97436 0.43616 0.50375 0.0
C216 C 0.58062 0.06768 0.69374 0.0
C217 C 0.59815 0.1074 0.6839 0.0
C218 C 0.58949 0.06532 0.7142 0.0
C219 C 0.61582 0.10263 0.7253 0.0
C220 C 0.6333 0.14245 0.71554 0.0
C221 C 0.62481 0.14479 0.69493 0.0
C222 C 0.62417 0.09959 0.74712 0.0
C223 C 0.63527 0.06956 0.75361 0.0
C224 C 0.63954 0.06356 0.7744 0.0
C225 C 0.63234 0.08785 0.78884 0.0
C226 C 0.62199 0.11857 0.78253 0.0
C227 C 0.61836 0.12456 0.76164 0.0
C228 C 0.61323 0.14342 0.79763 0.0
C229 C 0.5834 0.12268 0.81327 0.0
C230 C 0.63274 0.18789 0.79566 0.0
C231 C 0.62178 0.21116 0.80873 0.0
C232 C 0.59072 0.19036 0.82388 0.0
C233 C 0.64948 0.03036 0.78083 0.0
C234 C 0.62527 1.00093 0.79608 0.0
C235 C 0.68139 0.02617 0.77081 0.0
C236 C 0.68795 0.99229 0.77543 0.0
C237 C 0.6626 0.9618 0.7901 0.0
C238 C 0.63168 0.96692 0.80063 0.0
C239 C 0.57194 0.14595 0.82621 0.0
H240 H 0.56031 0.03834 0.68554 0.0
H241 H 0.57523 0.03425 0.72142 0.0
H242 H 0.65378 0.17166 0.72379 0.0
H243 H 0.63856 0.17579 0.68768 0.0
H244 H 0.6396 0.05007 0.74241 0.0
H245 H 0.60898 0.14726 0.75674 0.0
H246 H 0.6353 0.08326 0.80495 0.0
H247 H 0.56775 0.08832 0.81498 0.0
H248 H 0.65593 0.20455 0.78375 0.0
H249 H 0.63634 0.24528 0.80639 0.0
H250 H 0.60015 1.00316 0.80388 0.0
H251 H 0.70091 0.04881 0.75919 0.0
H252 H 0.54793 0.12921 0.83777 0.0
H253 H 0.61121 0.94369 0.81183 0.0
H254 H 0.71255 0.98969 0.76732 0.0
C255 C 0.58764 0.49647 0.03035 0.0
C256 C 0.57336 0.518 0.01764 0.0
C257 C 0.58107 0.49493 0.05142 0.0
C258 C 0.56011 0.5149 0.06005 0.0
C259 C 0.54724 0.53761 0.04738 0.0
C260 C 0.55378 0.53914 0.02644 0.0
C261 C 0.55008 0.51115 0.08208 0.0
C262 C 0.58066 0.51721 0.09679 0.0
C263 C 0.57131 0.51578 0.11765 0.0
C264 C 0.53095 0.50826 0.12373 0.0
C265 C 0.49977 0.50142 0.10912 0.0
C266 C 0.50959 0.50243 0.08839 0.0
C267 C 0.45681 0.49316 0.11514 0.0
C268 C 0.43505 0.46662 0.13178 0.0
C269 C 0.43647 0.51052 0.10359 0.0
C270 C 0.39484 0.50029 0.10803 0.0
C271 C 0.37285 0.4731 0.12433 0.0
C272 C 0.60407 0.52246 0.13298 0.0
C273 C 0.62671 0.50063 0.13109 0.0
C274 C 0.61401 0.55161 0.14906 0.0
C275 C 0.64707 0.55977 0.16264 0.0
C276 C 0.67022 0.53843 0.1605 0.0
C277 C 0.65932 0.50843 0.14473 0.0
C278 C 0.39346 0.45689 0.13641 0.0
H279 H 0.60279 0.47984 0.02396 0.0
H280 H 0.59118 0.47709 0.06085 0.0
H281 H 0.53189 0.55413 0.05367 0.0
H282 H 0.54343 0.55693 0.01711 0.0
H283 H 0.61218 0.52433 0.09201 0.0
H284 H 0.48539 0.49589 0.077 0.0
H285 H 0.5239 0.5077 0.1398 0.0
H286 H 0.44965 0.45245 0.14087 0.0
H287 H 0.45267 0.53199 0.09102 0.0
H288 H 0.3799 0.51393 0.09878 0.0
H289 H 0.61945 0.47778 0.11892 0.0
H290 H 0.5971 0.569 0.15076 0.0
H291 H 0.37701 0.4359 0.1491 0.0
H292 H 0.67701 0.49196 0.14247 0.0
H293 H 0.65481 0.58302 0.17466 0.0
H294 H 0.13945 0.47777 0.1163 0.0
H295 H 0.13434 0.43074 0.17722 0.0
H296 H 0.2028 0.47275 0.10933 0.0
H297 H 0.1963 0.42344 0.17006 0.0
H298 H 0.34046 0.48022 0.16048 0.0
H299 H 0.26993 0.47056 0.16673 0.0
H300 H 0.23476 0.43083 0.10414 0.0
H301 H 0.30616 0.44245 0.09785 0.0
C302 C 0.15129 0.46525 0.12799 0.0
C303 C 0.13249 0.45505 0.14733 0.0
C304 C 0.18748 0.46214 0.12401 0.0
C305 C 0.20507 0.44814 0.13923 0.0
C306 C 0.18434 0.43538 0.15816 0.0
C307 C 0.14865 0.43918 0.16223 0.0
C308 C 0.31734 0.46886 0.1482 0.0
C309 C 0.32864 0.46239 0.12868 0.0
C310 C 0.27681 0.46308 0.15175 0.0
C311 C 0.24656 0.45006 0.1359 0.0
C312 C 0.25747 0.44171 0.11659 0.0
C313 C 0.29821 0.44813 0.11299 0.0
H314 H 0.69771 0.21027 0.5515 0.0
H315 H 0.74908 0.16385 0.5054 0.0
H316 H 0.76487 0.27816 0.55236 0.0
H317 H 0.81519 0.23189 0.50547 0.0
H318 H 0.92807 0.35792 0.50227 0.0
H319 H 0.87897 0.28976 0.51823 0.0
H320 H 0.78923 0.33346 0.52821 0.0
H321 H 0.83916 0.40196 0.51342 0.0
C322 C 0.72382 0.21422 0.54196 0.0
C323 C 0.71803 0.18229 0.52808 0.0
C324 C 0.76218 0.25322 0.54231 0.0
C325 C 0.7951 0.26111 0.52855 0.0
C326 C 0.79077 0.22721 0.51633 0.0
C327 C 0.75265 0.18808 0.51618 0.0
C328 C 0.8985 0.35345 0.50856 0.0
C329 C 0.88705 0.38497 0.50617 0.0
C330 C 0.87013 0.31418 0.51753 0.0
C331 C 0.82967 0.30559 0.52416 0.0
C332 C 0.82005 0.33869 0.52342 0.0
C333 C 0.84848 0.37792 0.51462 0.0
H334 H 0.61264 0.7037 0.78309 0.0
H335 H 0.68812 0.75071 0.83792 0.0
H336 H 0.62449 0.77503 0.77608 0.0
H337 H 0.70113 0.82235 0.83067 0.0
H338 H 0.65931 0.92308 0.8264 0.0
H339 H 0.6586 0.85622 0.83169 0.0
H340 H 0.67577 0.84773 0.76708 0.0
H341 H 0.67432 0.9135 0.76167 0.0
C342 C 0.63246 0.72953 0.7934 0.0
C343 C 0.64919 0.7218 0.8111 0.0
C344 C 0.63945 0.77043 0.78937 0.0
C345 C 0.6635 0.80433 0.80292 0.0
C346 C 0.68182 0.79678 0.82014 0.0
C347 C 0.67462 0.75586 0.82422 0.0
C348 C 0.66289 0.90692 0.81332 0.0
C349 C 0.66658 0.92348 0.79361 0.0
C350 C 0.66305 0.86886 0.81637 0.0
C351 C 0.66706 0.84658 0.79978 0.0
C352 C 0.67213 0.86386 0.78014 0.0
C353 C 0.67183 0.90185 0.77708 0.0
H354 H 0.88195 0.53014 0.21546 0.0
H355 H 0.92715 0.62893 0.16971 0.0
H356 H 0.81487 0.53041 0.21757 0.0
H357 H 0.85991 0.62831 0.1712 0.0
H358 H 0.73485 0.61774 0.17141 0.0
H359 H 0.80348 0.63514 0.18637 0.0
H360 H 0.75917 0.50038 0.19276 0.0
H361 H 0.69054 0.48335 0.17864 0.0
C362 C 0.87797 0.55276 0.20629 0.0
C363 C 0.90919 0.57885 0.1921 0.0
C364 C 0.83949 0.55276 0.20739 0.0
C365 C 0.83151 0.57853 0.19417 0.0
C366 C 0.86484 0.60806 0.18166 0.0
C367 C 0.90342 0.6083 0.18069 0.0
C368 C 0.73938 0.59197 0.17671 0.0
C369 C 0.70771 0.54916 0.17352 0.0
C370 C 0.77879 0.60191 0.18512 0.0
C371 C 0.78717 0.56922 0.19048 0.0
C372 C 0.75396 0.5265 0.18897 0.0
C373 C 0.71468 0.51662 0.18061 0.0
H374 H 0.34406 0.94608 0.50807 0.0
H375 H 0.39181 0.9555 0.44695 0.0
H376 H 0.27776 0.8817 0.49857 0.0
H377 H 0.32545 0.89063 0.43747 0.0
H378 H 0.23538 0.74216 0.44385 0.0
H379 H 0.29628 0.81313 0.44971 0.0
H380 H 0.21279 0.85426 0.4747 0.0
H381 H 0.15128 0.7836 0.46816 0.0
C382 C 0.33998 0.93474 0.49251 0.0
C383 C 0.37293 0.95548 0.47824 0.0
C384 C 0.30205 0.89804 0.48707 0.0
C385 C 0.29672 0.88114 0.46734 0.0
C386 C 0.32901 0.90293 0.45282 0.0
C387 C 0.36675 0.94007 0.45819 0.0
C388 C 0.22973 0.76644 0.45023 0.0
C389 C 0.18829 0.75705 0.4555 0.0
C390 C 0.26468 0.8071 0.45358 0.0
C391 C 0.25911 0.83915 0.46252 0.0
C392 C 0.21787 0.82998 0.46785 0.0
C393 C 0.18276 0.78942 0.46425 0.0
H394 H 0.48734 0.34625 0.82574 0.0
H395 H 0.56991 0.39705 0.87818 0.0
H396 H 0.49322 0.28229 0.82715 0.0
H397 H 0.57543 0.33259 0.87982 0.0
H398 H 0.50849 0.1701 0.83096 0.0
H399 H 0.48447 0.21775 0.84395 0.0
H400 H 0.61547 0.31434 0.85572 0.0
H401 H 0.63916 0.26649 0.84319 0.0
C402 C 0.50555 0.34302 0.838 0.0
C403 C 0.52882 0.37679 0.8516 0.0
C404 C 0.50874 0.30623 0.83891 0.0
C405 C 0.53536 0.30268 0.85342 0.0
C406 C 0.55522 0.33475 0.86828 0.0
C407 C 0.55192 0.37153 0.86739 0.0
C408 C 0.53194 0.20096 0.83701 0.0
C409 C 0.57573 0.21494 0.83582 0.0
C410 C 0.51822 0.22831 0.84431 0.0
C411 C 0.54806 0.26995 0.85064 0.0
C412 C 0.59157 0.28238 0.85112 0.0
C413 C 0.60526 0.25517 0.84374 0.0
H414 H 0.494 0.91757 0.48716 0.0
H415 H 0.60433 0.97954 0.52651 0.0
H416 H 0.49235 0.84969 0.49164 0.0
H417 H 0.60239 0.91166 0.53104 0.0
H418 H 0.54793 0.77321 0.55472 0.0
H419 H 0.55283 0.84184 0.54816 0.0
H420 H 0.5357 0.81334 0.48387 0.0
H421 H 0.53087 0.74425 0.49048 0.0
C422 C 0.51801 0.91684 0.4967 0.0
C423 C 0.54923 0.95419 0.50652 0.0
C424 C 0.51719 0.87791 0.49916 0.0
C425 C 0.54714 0.87513 0.51175 0.0
C426 C 0.57861 0.91255 0.52138 0.0
C427 C 0.57983 0.95157 0.51869 0.0
C428 C 0.54509 0.78147 0.53917 0.0
C429 C 0.53876 0.75307 0.52314 0.0
C430 C 0.54828 0.82102 0.53539 0.0
C431 C 0.5447 0.8332 0.51548 0.0
C432 C 0.53834 0.80484 0.49939 0.0
C433 C 0.53584 0.76541 0.50316 0.0
H434 H 0.67725 0.48282 0.83064 0.0
H435 H 0.74607 0.62064 0.8297 0.0
H436 H 0.74401 0.48296 0.83433 0.0
H437 H 0.81304 0.62105 0.8344 0.0
H438 H 0.93241 0.60955 0.82926 0.0
H439 H 0.86619 0.60904 0.82152 0.0
H440 H 0.79616 0.49508 0.85799 0.0
H441 H 0.86191 0.49493 0.86493 0.0
C442 C 0.7067 0.51326 0.83124 0.0
C443 C 0.70613 0.55172 0.8299 0.0
C444 C 0.7452 0.51339 0.83357 0.0
C445 C 0.78442 0.55203 0.83499 0.0
C446 C 0.78385 0.59055 0.83316 0.0
C447 C 0.74528 0.59038 0.83052 0.0
C448 C 0.90275 0.58431 0.83551 0.0
C449 C 0.90251 0.55209 0.84758 0.0
C450 C 0.86466 0.58409 0.83118 0.0
C451 C 0.82527 0.55194 0.83903 0.0
C452 C 0.82533 0.51985 0.85117 0.0
C453 C 0.86324 0.51978 0.85525 0.0
H454 H 0.17506 0.61482 0.15664 0.0
H455 H 0.10954 0.67234 0.18586 0.0
H456 H 0.24256 0.68129 0.16047 0.0
H457 H 0.17728 0.73847 0.1903 0.0
H458 H 0.30112 0.86404 0.18211 0.0
H459 H 0.23389 0.79932 0.17437 0.0
H460 H 0.29363 0.72365 0.18509 0.0
H461 H 0.36116 0.78833 0.19167 0.0
C462 C 0.17497 0.64158 0.16396 0.0
C463 C 0.1366 0.63791 0.17098 0.0
C464 C 0.21391 0.67982 0.16627 0.0
C465 C 0.21583 0.71559 0.17582 0.0
C466 C 0.17731 0.71204 0.18261 0.0
C467 C 0.13829 0.67385 0.18017 0.0
C468 C 0.3002 0.8337 0.18242 0.0
C469 C 0.33687 0.83174 0.18764 0.0
C470 C 0.26131 0.79635 0.17827 0.0
C471 C 0.25783 0.75583 0.17922 0.0
C472 C 0.2948 0.75403 0.18397 0.0
C473 C 0.33364 0.79132 0.18803 0.0
H474 H 0.47753 0.16259 0.48829 0.0
H475 H 0.60624 0.22585 0.51195 0.0
H476 H 0.47712 0.2299 0.49058 0.0
H477 H 0.60544 0.29212 0.51461 0.0
H478 H 0.6093 0.4157 0.50227 0.0
H479 H 0.60685 0.34844 0.49537 0.0
H480 H 0.4756 0.27908 0.51523 0.0
H481 H 0.478 0.34662 0.52194 0.0
C482 C 0.50578 0.19074 0.4939 0.0
C483 C 0.54191 0.18848 0.49989 0.0
C484 C 0.50545 0.22935 0.49534 0.0
C485 C 0.54131 0.26679 0.50272 0.0
C486 C 0.57746 0.26442 0.5085 0.0
C487 C 0.57777 0.22602 0.5071 0.0
C488 C 0.57983 0.38614 0.50511 0.0
C489 C 0.54399 0.38679 0.51285 0.0
C490 C 0.57843 0.34741 0.5012 0.0
C491 C 0.54119 0.308 0.50498 0.0
C492 C 0.50476 0.30863 0.51195 0.0
C493 C 0.50613 0.34747 0.51581 0.0
H494 H 0.43259 0.48446 0.85581 0.0
H495 H 0.48572 0.60715 0.82611 0.0
H496 H 0.36587 0.48381 0.86106 0.0
H497 H 0.41869 0.60662 0.83161 0.0
H498 H 0.27489 0.56745 0.82775 0.0
H499 H 0.34269 0.57015 0.82132 0.0
H500 H 0.33835 0.52036 0.88154 0.0
H501 H 0.27137 0.51818 0.88807 0.0
C502 C 0.43016 0.51138 0.85039 0.0
C503 C 0.46484 0.54593 0.84058 0.0
C504 C 0.39182 0.51112 0.85352 0.0
C505 C 0.38678 0.54528 0.84688 0.0
C506 C 0.42122 0.57961 0.8368 0.0
C507 C 0.4598 0.58 0.83376 0.0
C508 C 0.28854 0.55741 0.8397 0.0
C509 C 0.26704 0.54208 0.85837 0.0
C510 C 0.3275 0.55896 0.83599 0.0
C511 C 0.34595 0.54508 0.85082 0.0
C512 C 0.32476 0.53041 0.86956 0.0
C513 C 0.28609 0.52905 0.87329 0.0
H514 H 0.86341 0.42335 0.15366 0.0
H515 H 0.9295 0.35793 0.17238 0.0
H516 H 0.79556 0.35707 0.15597 0.0
H517 H 0.86145 0.29187 0.17638 0.0
H518 H 0.73411 0.17023 0.17419 0.0
H519 H 0.80095 0.23327 0.16474 0.0
H520 H 0.74575 0.3123 0.17793 0.0
H521 H 0.67832 0.2494 0.18513 0.0
C522 C 0.86331 0.39463 0.15836 0.0
C523 C 0.9018 0.3959 0.16285 0.0
C524 C 0.8242 0.35644 0.15996 0.0
C525 C 0.82214 0.31848 0.1668 0.0
C526 C 0.86108 0.31979 0.17081 0.0
C527 C 0.90036 0.35785 0.16862 0.0
C528 C 0.73582 0.20092 0.17455 0.0
C529 C 0.70035 0.20418 0.18073 0.0
C530 C 0.77473 0.23751 0.16947 0.0
C531 C 0.77973 0.2787 0.17069 0.0
C532 C 0.74382 0.28164 0.1764 0.0
C533 C 0.70484 0.24515 0.18102 0.0
H534 H 0.94879 0.51689 0.09834 0.0
H535 H 0.07026 0.52811 0.1122 0.0
H536 H 0.96073 0.51297 0.06224 0.0
H537 H 0.08406 0.52707 0.07576 0.0
H538 H 0.08336 0.49542 0.00794 0.0
H539 H 0.06962 0.4909 0.04461 0.0
H540 H 0.99947 0.55738 0.03608 0.0
H541 H 1.01119 0.5593 -0.0004 0.0
C542 C 0.97818 0.51854 0.09355 0.0
C543 C 1.00861 0.52279 0.10796 0.0
C544 C 0.98537 0.51683 0.07281 0.0
C545 C 0.02388 0.52072 0.06583 0.0
C546 C 0.05388 0.52365 0.08043 0.0
C547 C 0.0461 0.5243 0.10133 0.0
C548 C 0.06493 0.50888 0.01405 0.0
C549 C 0.04793 0.52731 0.001 0.0
C550 C 0.05719 0.50653 0.03507 0.0
C551 C 0.0329 0.52328 0.04349 0.0
C552 C 1.01707 0.54279 0.03028 0.0
C553 C 0.02406 0.5443 0.00932 0.0
H554 H 0.61898 0.14316 0.43447 0.0
H555 H 0.50895 0.02085 0.44803 0.0
H556 H 0.60326 0.13109 0.39831 0.0
H557 H 0.49421 1.00696 0.41161 0.0
H558 H 0.4619 1.00789 0.34406 0.0
H559 H 0.4718 0.02119 0.38078 0.0
H560 H 0.60859 0.09303 0.3718 0.0
H561 H 0.59797 0.08187 0.33526 0.0
C562 C 0.59134 0.11357 0.4296 0.0
C563 C 0.56504 0.08301 0.44393 0.0
C564 C 0.58252 0.1063 0.40883 0.0
C565 C 0.54786 0.06759 0.40179 0.0
C566 C 0.52091 0.03734 0.41632 0.0
C567 C 0.52925 0.04518 0.43721 0.0
C568 C 0.49394 0.02654 0.35012 0.0
C569 C 0.5292 0.04419 0.33698 0.0
C570 C 0.49975 0.03403 0.37114 0.0
C571 C 0.54104 0.05869 0.37944 0.0
C572 C 0.57622 0.0751 0.36611 0.0
C573 C 0.5703 0.06838 0.34514 0.0
H574 H 0.63559 0.57265 0.77356 0.0
H575 H 0.49812 0.50917 0.77067 0.0
H576 H 0.63938 0.5872 0.73682 0.0
H577 H 0.50203 0.52488 0.73422 0.0
H578 H 0.53652 0.60397 0.67395 0.0
H579 H 0.5376 0.59723 0.71086 0.0
H580 H 0.60742 0.5305 0.70458 0.0
H581 H 0.60421 0.53449 0.66761 0.0
C582 C 0.60631 0.56239 0.76512 0.0
C583 C 0.56654 0.53961 0.77484 0.0
C584 C 0.60849 0.57057 0.74417 0.0
C585 C 0.57098 0.55712 0.73279 0.0
C586 C 0.53137 0.53574 0.74271 0.0
C587 C 0.52915 0.52666 0.76349 0.0
C588 C 0.55168 0.58733 0.68029 0.0
C589 C 0.56987 0.56939 0.66755 0.0
C590 C 0.55262 0.58393 0.70147 0.0
C591 C 0.57268 0.56348 0.71047 0.0
C592 C 0.59218 0.54686 0.69795 0.0
C593 C 0.59046 0.5494 0.67674 0.0
H594 H 0.59212 0.07706 0.55418 0.0
H595 H 0.48466 0.0949 0.56513 0.0
H596 H 0.61286 0.09266 0.58996 0.0
H597 H 0.50535 0.11049 0.6009 0.0
H598 H 0.52035 0.06688 0.66555 0.0
H599 H 0.50453 0.06453 0.62932 0.0
H600 H 0.63824 0.14988 0.61689 0.0
H601 H 0.65413 0.15181 0.6533 0.0
C602 C 0.57334 0.08494 0.56419 0.0
C603 C 0.53666 0.08453 0.55699 0.0
C604 C 0.5853 0.09405 0.58463 0.0
C605 C 0.56056 0.10255 0.59822 0.0
C606 C 0.5247 0.10356 0.5908 0.0
C607 C 0.51294 0.09475 0.57035 0.0
C608 C 0.5463 0.08532 0.65508 0.0
C609 C 0.58847 0.1093 0.66216 0.0
C610 C 0.53722 0.0843 0.63438 0.0
C611 C 0.57018 0.10701 0.6203 0.0
C612 C 0.61229 0.13187 0.62743 0.0
C613 C 0.62133 0.13322 0.64822 0.0
H614 H 0.66662 0.6073 0.89728 0.0
H615 H 0.53984 0.50172 0.88569 0.0
H616 H 0.65892 0.58861 0.93331 0.0
H617 H 0.53249 0.48211 0.92164 0.0
H618 H 0.5141 0.50586 0.98894 0.0
H619 H 0.52341 0.51339 0.95226 0.0
H620 H 0.65203 0.53663 0.95875 0.0
H621 H 0.64313 0.53067 0.99575 0.0
C622 C 0.63735 0.57971 0.90243 0.0
C623 C 0.60363 0.55624 0.88882 0.0
C624 C 0.63306 0.56875 0.92302 0.0
C625 C 0.59499 0.53401 0.93037 0.0
C626 C 0.56196 0.50946 0.91651 0.0
C627 C 0.56621 0.52054 0.89593 0.0
C628 C 0.54438 0.51258 0.98254 0.0
C629 C 0.5781 0.51829 0.99523 0.0
C630 C 0.54953 0.51632 0.96148 0.0
C631 C 0.58851 0.52571 0.95257 0.0
C632 C 0.62178 0.52985 0.96519 0.0
C633 C 0.61658 0.52607 0.98634 0.0
H634 H 1.01203 0.56023 0.21792 0.0
H635 H 0.98896 0.43334 0.23052 0.0
H636 H 0.99247 0.56595 0.25283 0.0
H637 H 0.97108 0.43956 0.26565 0.0
H638 H 0.9154 0.45149 0.32496 0.0
H639 H 0.92122 0.44404 0.28828 0.0
H640 H 0.02518 0.57462 0.28553 0.0
H641 H 0.01898 0.58209 0.3219 0.0
C642 C 1.00246 0.53346 0.22814 0.0
C643 C 1.00208 0.4964 0.2216 0.0
C644 C 0.99156 0.53682 0.24817 0.0
C645 C 0.98049 0.50333 0.2621 0.0
C646 C 0.97891 0.46574 0.25529 0.0
C647 C 0.98952 0.4623 0.23521 0.0
C648 C 0.93922 0.47863 0.31643 0.0
C649 C 0.96668 0.51737 0.32631 0.0
C650 C 0.94263 0.47437 0.29546 0.0
C651 C 0.97372 0.5087 0.28396 0.0
C652 C 1.00034 0.54775 0.2938 0.0
C653 C 0.99681 0.55205 0.3147 0.0
loop_
_geom_bond_atom_site_label_1
_geom_bond_atom_site_label_2
_geom_bond_distance
_geom_bond_site_symmetry_2
_ccdc_geom_bond_type
Dy0 O4 2.398 . S
Dy0 O5 2.491 . S
Dy0 O6 2.403 . S
Dy0 O7 2.664 . S
Dy0 O11 2.326 . S
Dy0 O15 2.310 . S
Dy0 O16 2.351 1_455 S
C1 O12 1.185 . S
C1 O13 1.355 . S
C2 O4 1.185 . S
C2 O5 1.355 . S
Dy3 O7 2.310 . S
Dy3 O10 2.351 . S
Dy3 O12 2.398 1_455 S
Dy3 O13 2.491 1_455 S
Dy3 O14 2.403 . S
Dy3 O15 2.664 . S
Dy3 O17 2.326 1_455 S
O4 Dy0 2.398 . S
O4 C2 1.185 . S
O5 Dy0 2.491 . S
O5 C2 1.355 . S
O6 Dy0 2.403 . S
O6 C8 1.254 . S
O7 Dy0 2.664 . S
O7 Dy3 2.310 . S
O7 C8 1.268 . S
C8 O6 1.254 . S
C8 O7 1.268 . S
C9 O14 1.254 . S
C9 O15 1.268 . S
O10 Dy3 2.351 . S
O10 C18 1.249 . S
O11 Dy0 2.326 . S
O11 C18 1.267 . S
O12 C1 1.185 . S
O12 Dy3 2.398 1_655 S
O13 C1 1.355 . S
O13 Dy3 2.491 1_655 S
O14 Dy3 2.403 . S
O14 C9 1.254 . S
O15 Dy0 2.310 . S
O15 Dy3 2.664 . S
O15 C9 1.268 . S
O16 Dy0 2.351 1_655 S
O16 C19 1.249 . S
O17 Dy3 2.326 1_655 S
O17 C19 1.267 . S
C18 O10 1.249 . S
C18 O11 1.267 . S
C19 O16 1.249 . S
C19 O17 1.267 . S
Dy20 O24 2.398 1_545 S
Dy20 O25 2.491 1_545 S
Dy20 O26 2.403 . S
Dy20 O27 2.664 . S
Dy20 O31 2.326 1_545 S
Dy20 O35 2.310 . S
Dy20 O36 2.351 . S
C21 O32 1.185 . S
C21 O33 1.355 . S
C22 O24 1.185 . S
C22 O25 1.355 . S
Dy23 O27 2.310 . S
Dy23 O30 2.351 1_545 S
Dy23 O32 2.398 . S
Dy23 O33 2.491 . S
Dy23 O34 2.403 . S
Dy23 O35 2.664 . S
Dy23 O37 2.326 . S
O24 Dy20 2.398 1_565 S
O24 C22 1.185 . S
O25 Dy20 2.491 1_565 S
O25 C22 1.355 . S
O26 Dy20 2.403 . S
O26 C28 1.254 . S
O27 Dy20 2.664 . S
O27 Dy23 2.310 . S
O27 C28 1.268 . S
C28 O26 1.254 . S
C28 O27 1.268 . S
C29 O34 1.254 . S
C29 O35 1.268 . S
O30 Dy23 2.351 1_565 S
O30 C38 1.249 . S
O31 Dy20 2.326 1_565 S
O31 C38 1.267 . S
O32 C21 1.185 . S
O32 Dy23 2.398 . S
O33 C21 1.355 . S
O33 Dy23 2.491 . S
O34 Dy23 2.403 . S
O34 C29 1.254 . S
O35 Dy20 2.310 . S
O35 Dy23 2.664 . S
O35 C29 1.268 . S
O36 Dy20 2.351 . S
O36 C39 1.249 . S
O37 Dy23 2.326 . S
O37 C39 1.267 . S
C38 O30 1.249 . S
C38 O31 1.267 . S
C39 O36 1.249 . S
C39 O37 1.267 . S
Dy40 O44 2.398 . S
Dy40 O45 2.491 . S
Dy40 O46 2.403 . S
Dy40 O47 2.664 . S
Dy40 O51 2.326 . S
Dy40 O55 2.310 . S
Dy40 O56 2.351 . S
C41 O52 1.185 . S
C41 O53 1.355 . S
C42 O44 1.185 . S
C42 O45 1.355 . S
Dy43 O47 2.310 . S
Dy43 O50 2.351 . S
Dy43 O52 2.398 . S
Dy43 O53 2.491 . S
Dy43 O54 2.403 . S
Dy43 O55 2.664 . S
Dy43 O57 2.326 . S
O44 Dy40 2.398 . S
O44 C42 1.185 . S
O45 Dy40 2.491 . S
O45 C42 1.355 . S
O46 Dy40 2.403 . S
O46 C48 1.254 . S
O47 Dy40 2.664 . S
O47 Dy43 2.310 . S
O47 C48 1.268 . S
C48 O46 1.254 . S
C48 O47 1.268 . S
C49 O54 1.254 . S
C49 O55 1.268 . S
O50 Dy43 2.351 . S
O50 C58 1.249 . S
O51 Dy40 2.326 . S
O51 C58 1.267 . S
O52 C41 1.185 . S
O52 Dy43 2.398 . S
O53 C41 1.355 . S
O53 Dy43 2.491 . S
O54 Dy43 2.403 . S
O54 C49 1.254 . S
O55 Dy40 2.310 . S
O55 Dy43 2.664 . S
O55 C49 1.268 . S
O56 Dy40 2.351 . S
O56 C59 1.249 . S
O57 Dy43 2.326 . S
O57 C59 1.267 . S
C58 O50 1.249 . S
C58 O51 1.267 . S
C59 O56 1.249 . S
C59 O57 1.267 . S
C60 C61 1.386 . S
C60 C62 1.397 . S
C60 H84 0.931 . S
C61 C60 1.386 . S
C61 C65 1.397 1_545 S
C62 C60 1.397 . S
C62 C63 1.384 . S
C62 H85 0.930 . S
C63 C62 1.384 . S
C63 C64 1.377 1_545 S
C63 C66 1.481 . S
C64 C63 1.377 1_565 S
C64 C65 1.389 . S
C64 H86 0.929 . S
C65 C61 1.397 1_565 S
C65 C64 1.389 . S
C65 H87 0.931 . S
C66 C63 1.481 . S
C66 C67 1.387 . S
C66 C71 1.390 1_545 S
C67 C66 1.387 . S
C67 C68 1.401 . S
C67 H88 0.930 . S
C68 C67 1.401 . S
C68 C69 1.376 . S
C68 C77 1.511 . S
C69 C68 1.376 . S
C69 C70 1.392 1_545 S
C69 H90 0.931 . S
C70 C69 1.392 1_565 S
C70 C71 1.361 . S
C70 C72 1.500 . S
C71 C66 1.390 1_565 S
C71 C70 1.361 . S
C71 H89 0.931 . S
C72 C70 1.500 . S
C72 C73 1.371 . S
C72 C74 1.365 . S
C73 C72 1.371 . S
C73 C83 1.386 . S
C73 H91 0.931 . S
C74 C72 1.365 . S
C74 C75 1.409 . S
C74 H92 0.929 . S
C75 C74 1.409 . S
C75 C76 1.380 . S
C75 H93 0.930 . S
C76 C75 1.380 . S
C76 C83 1.357 . S
C77 C68 1.511 . S
C77 C78 1.341 . S
C77 C79 1.371 . S
C78 C77 1.341 . S
C78 C82 1.394 . S
C78 H94 0.930 . S
C79 C77 1.371 . S
C79 C80 1.392 . S
C79 H95 0.931 . S
C80 C79 1.392 . S
C80 C81 1.331 . S
C80 H98 0.932 . S
C81 C80 1.331 . S
C81 C82 1.336 . S
C82 C78 1.394 . S
C82 C81 1.336 . S
C82 H97 0.929 . S
C83 C73 1.386 . S
C83 C76 1.357 . S
C83 H96 0.928 . S
H84 C60 0.931 . S
H85 C62 0.930 . S
H86 C64 0.929 . S
H87 C65 0.931 . S
H88 C67 0.930 . S
H89 C71 0.931 . S
H90 C69 0.931 . S
H91 C73 0.931 . S
H92 C74 0.929 . S
H93 C75 0.930 . S
H94 C78 0.930 . S
H95 C79 0.931 . S
H96 C83 0.928 . S
H97 C82 0.929 . S
H98 C80 0.932 . S
C99 C100 1.386 . S
C99 C101 1.397 . S
C99 H123 0.931 . S
C100 C99 1.386 . S
C100 C104 1.397 . S
C101 C99 1.397 . S
C101 C102 1.384 . S
C101 H124 0.930 . S
C102 C101 1.384 . S
C102 C103 1.377 . S
C102 C105 1.481 . S
C103 C102 1.377 . S
C103 C104 1.389 . S
C103 H125 0.929 . S
C104 C100 1.397 . S
C104 C103 1.389 . S
C104 H126 0.931 . S
C105 C102 1.481 . S
C105 C106 1.387 . S
C105 C110 1.390 . S
C106 C105 1.387 . S
C106 C107 1.401 . S
C106 H127 0.930 . S
C107 C106 1.401 . S
C107 C108 1.376 . S
C107 C116 1.511 . S
C108 C107 1.376 . S
C108 C109 1.392 . S
C108 H129 0.931 . S
C109 C108 1.392 . S
C109 C110 1.361 . S
C109 C111 1.500 . S
C110 C105 1.390 . S
C110 C109 1.361 . S
C110 H128 0.931 . S
C111 C109 1.500 . S
C111 C112 1.371 . S
C111 C113 1.365 . S
C112 C111 1.371 . S
C112 C122 1.386 . S
C112 H130 0.931 . S
C113 C111 1.365 . S
C113 C114 1.409 . S
C113 H131 0.929 . S
C114 C113 1.409 . S
C114 C115 1.380 . S
C114 H132 0.930 . S
C115 C114 1.380 . S
C115 C122 1.357 . S
C116 C107 1.511 . S
C116 C117 1.341 . S
C116 C118 1.371 . S
C117 C116 1.341 . S
C117 C121 1.394 . S
C117 H133 0.930 . S
C118 C116 1.371 . S
C118 C119 1.392 . S
C118 H134 0.931 . S
C119 C118 1.392 . S
C119 C120 1.331 . S
C119 H137 0.932 . S
C120 C119 1.331 . S
C120 C121 1.336 . S
C121 C117 1.394 . S
C121 C120 1.336 . S
C121 H136 0.929 . S
C122 C112 1.386 . S
C122 C115 1.357 . S
C122 H135 0.928 . S
H123 C99 0.931 . S
H124 C101 0.930 . S
H125 C103 0.929 . S
H126 C104 0.931 . S
H127 C106 0.930 . S
H128 C110 0.931 . S
H129 C108 0.931 . S
H130 C112 0.931 . S
H131 C113 0.929 . S
H132 C114 0.930 . S
H133 C117 0.930 . S
H134 C118 0.931 . S
H135 C122 0.928 . S
H136 C121 0.929 . S
H137 C119 0.932 . S
C138 C139 1.386 . S
C138 C140 1.397 . S
C138 H162 0.931 . S
C139 C138 1.386 . S
C139 C143 1.397 . S
C140 C138 1.397 . S
C140 C141 1.384 . S
C140 H163 0.930 . S
C141 C140 1.384 . S
C141 C142 1.377 . S
C141 C144 1.481 . S
C142 C141 1.377 . S
C142 C143 1.389 . S
C142 H164 0.929 1_455 S
C143 C139 1.397 . S
C143 C142 1.389 . S
C143 H165 0.931 1_455 S
C144 C141 1.481 . S
C144 C145 1.387 . S
C144 C149 1.390 . S
C145 C144 1.387 . S
C145 C146 1.401 . S
C145 H166 0.930 . S
C146 C145 1.401 . S
C146 C147 1.376 . S
C146 C155 1.511 . S
C147 C146 1.376 . S
C147 C148 1.392 . S
C147 H168 0.931 . S
C148 C147 1.392 . S
C148 C149 1.361 . S
C148 C150 1.500 1_455 S
C149 C144 1.390 . S
C149 C148 1.361 . S
C149 H167 0.931 . S
C150 C148 1.500 1_655 S
C150 C151 1.371 . S
C150 C152 1.365 . S
C151 C150 1.371 . S
C151 C161 1.386 . S
C151 H169 0.931 1_655 S
C152 C150 1.365 . S
C152 C153 1.409 . S
C152 H170 0.929 . S
C153 C152 1.409 . S
C153 C154 1.380 . S
C153 H171 0.930 . S
C154 C153 1.380 . S
C154 C161 1.357 . S
C155 C146 1.511 . S
C155 C156 1.341 . S
C155 C157 1.371 . S
C156 C155 1.341 . S
C156 C160 1.394 . S
C156 H172 0.930 . S
C157 C155 1.371 . S
C157 C158 1.392 . S
C157 H173 0.931 . S
C158 C157 1.392 . S
C158 C159 1.331 . S
C158 H176 0.932 . S
C159 C158 1.331 . S
C159 C160 1.336 . S
C160 C156 1.394 . S
C160 C159 1.336 . S
C160 H175 0.929 . S
C161 C151 1.386 . S
C161 C154 1.357 . S
C161 H174 0.928 . S
H162 C138 0.931 . S
H163 C140 0.930 . S
H164 C142 0.929 1_655 S
H165 C143 0.931 1_655 S
H166 C145 0.930 . S
H167 C149 0.931 . S
H168 C147 0.931 . S
H169 C151 0.931 1_455 S
H170 C152 0.929 . S
H171 C153 0.930 . S
H172 C156 0.930 . S
H173 C157 0.931 . S
H174 C161 0.928 . S
H175 C160 0.929 . S
H176 C158 0.932 . S
C177 C178 1.386 1_655 S
C177 C179 1.397 . S
C177 H201 0.931 . S
C178 C177 1.386 1_455 S
C178 C182 1.397 . S
C179 C177 1.397 . S
C179 C180 1.384 1_655 S
C179 H202 0.930 . S
C180 C179 1.384 1_455 S
C180 C181 1.377 . S
C180 C183 1.481 . S
C181 C180 1.377 . S
C181 C182 1.389 . S
C181 H203 0.929 . S
C182 C178 1.397 . S
C182 C181 1.389 . S
C182 H204 0.931 . S
C183 C180 1.481 . S
C183 C184 1.387 1_455 S
C183 C188 1.390 . S
C184 C183 1.387 1_655 S
C184 C185 1.401 . S
C184 H205 0.930 . S
C185 C184 1.401 . S
C185 C186 1.376 1_655 S
C185 C194 1.511 . S
C186 C185 1.376 1_455 S
C186 C187 1.392 . S
C186 H207 0.931 . S
C187 C186 1.392 . S
C187 C188 1.361 . S
C187 C189 1.500 . S
C188 C183 1.390 . S
C188 C187 1.361 . S
C188 H206 0.931 . S
C189 C187 1.500 . S
C189 C190 1.371 . S
C189 C191 1.365 . S
C190 C189 1.371 . S
C190 C200 1.386 . S
C190 H208 0.931 . S
C191 C189 1.365 . S
C191 C192 1.409 . S
C191 H209 0.929 . S
C192 C191 1.409 . S
C192 C193 1.380 . S
C192 H210 0.930 . S
C193 C192 1.380 . S
C193 C200 1.357 . S
C194 C185 1.511 . S
C194 C195 1.341 . S
C194 C196 1.371 . S
C195 C194 1.341 . S
C195 C199 1.394 . S
C195 H211 0.930 . S
C196 C194 1.371 . S
C196 C197 1.392 . S
C196 H212 0.931 . S
C197 C196 1.392 . S
C197 C198 1.331 . S
C197 H215 0.932 . S
C198 C197 1.331 . S
C198 C199 1.336 . S
C199 C195 1.394 . S
C199 C198 1.336 . S
C199 H214 0.929 . S
C200 C190 1.386 . S
C200 C193 1.357 . S
C200 H213 0.928 . S
H201 C177 0.931 . S
H202 C179 0.930 . S
H203 C181 0.929 . S
H204 C182 0.931 . S
H205 C184 0.930 . S
H206 C188 0.931 . S
H207 C186 0.931 . S
H208 C190 0.931 . S
H209 C191 0.929 . S
H210 C192 0.930 . S
H211 C195 0.930 . S
H212 C196 0.931 . S
H213 C200 0.928 . S
H214 C199 0.929 . S
H215 C197 0.932 . S
C216 C217 1.386 . S
C216 C218 1.397 . S
C216 H240 0.931 1_545 S
C217 C216 1.386 . S
C217 C221 1.397 . S
C218 C216 1.397 . S
C218 C219 1.384 . S
C218 H241 0.930 1_545 S
C219 C218 1.384 . S
C219 C220 1.377 . S
C219 C222 1.481 . S
C220 C219 1.377 . S
C220 C221 1.389 . S
C220 H242 0.929 . S
C221 C217 1.397 . S
C221 C220 1.389 . S
C221 H243 0.931 . S
C222 C219 1.481 . S
C222 C223 1.387 . S
C222 C227 1.390 . S
C223 C222 1.387 . S
C223 C224 1.401 . S
C223 H244 0.935 . S
C224 C223 1.401 . S
C224 C225 1.376 . S
C224 C233 1.511 1_545 S
C225 C224 1.376 . S
C225 C226 1.392 . S
C225 H246 0.931 . S
C226 C225 1.392 . S
C226 C227 1.361 . S
C226 C228 1.500 . S
C227 C222 1.390 . S
C227 C226 1.361 . S
C227 H245 0.931 . S
C228 C226 1.500 . S
C228 C229 1.371 . S
C228 C230 1.365 . S
C229 C228 1.371 . S
C229 C239 1.386 . S
C229 H247 0.931 . S
C230 C228 1.365 . S
C230 C231 1.409 . S
C230 H248 0.929 . S
C231 C230 1.409 . S
C231 C232 1.380 . S
C231 H249 0.930 . S
C232 C231 1.380 . S
C232 C239 1.357 . S
C233 C224 1.511 1_565 S
C233 C234 1.341 . S
C233 C235 1.371 . S
C234 C233 1.341 . S
C234 C238 1.394 . S
C234 H250 0.930 . S
C235 C233 1.371 . S
C235 C236 1.392 . S
C235 H251 0.931 1_565 S
C236 C235 1.392 . S
C236 C237 1.331 . S
C236 H254 0.932 . S
C237 C236 1.331 . S
C237 C238 1.336 . S
C238 C234 1.394 . S
C238 C237 1.336 . S
C238 H253 0.929 . S
C239 C229 1.386 . S
C239 C232 1.357 . S
C239 H252 0.928 . S
H240 C216 0.931 1_565 S
H241 C218 0.930 1_565 S
H242 C220 0.929 . S
H243 C221 0.931 . S
H244 C223 0.935 . S
H245 C227 0.931 . S
H246 C225 0.931 . S
H247 C229 0.931 . S
H248 C230 0.929 . S
H249 C231 0.930 . S
H250 C234 0.930 . S
H251 C235 0.931 1_545 S
H252 C239 0.928 . S
H253 C238 0.929 . S
H254 C236 0.932 . S
C255 C256 1.386 . S
C255 C257 1.397 . S
C255 H279 0.931 . S
C256 C255 1.386 . S
C256 C260 1.397 . S
C257 C255 1.397 . S
C257 C258 1.384 . S
C257 H280 0.930 . S
C258 C257 1.384 . S
C258 C259 1.377 . S
C258 C261 1.481 . S
C259 C258 1.377 . S
C259 C260 1.389 . S
C259 H281 0.929 . S
C260 C256 1.397 . S
C260 C259 1.389 . S
C260 H282 0.931 . S
C261 C258 1.481 . S
C261 C262 1.387 . S
C261 C266 1.390 . S
C262 C261 1.387 . S
C262 C263 1.401 . S
C262 H283 0.930 . S
C263 C262 1.401 . S
C263 C264 1.376 . S
C263 C272 1.511 . S
C264 C263 1.376 . S
C264 C265 1.392 . S
C264 H285 0.931 . S
C265 C264 1.392 . S
C265 C266 1.361 . S
C265 C267 1.500 . S
C266 C261 1.390 . S
C266 C265 1.361 . S
C266 H284 0.931 . S
C267 C265 1.500 . S
C267 C268 1.371 . S
C267 C269 1.365 . S
C268 C267 1.371 . S
C268 C278 1.386 . S
C268 H286 0.931 . S
C269 C267 1.365 . S
C269 C270 1.409 . S
C269 H287 0.929 . S
C270 C269 1.409 . S
C270 C271 1.380 . S
C270 H288 0.930 . S
C271 C270 1.380 . S
C271 C278 1.357 . S
C272 C263 1.511 . S
C272 C273 1.341 . S
C272 C274 1.371 . S
C273 C272 1.341 . S
C273 C277 1.394 . S
C273 H289 0.930 . S
C274 C272 1.371 . S
C274 C275 1.392 . S
C274 H290 0.931 . S
C275 C274 1.392 . S
C275 C276 1.331 . S
C275 H293 0.932 . S
C276 C275 1.331 . S
C276 C277 1.336 . S
C277 C273 1.394 . S
C277 C276 1.336 . S
C277 H292 0.929 . S
C278 C268 1.386 . S
C278 C271 1.357 . S
C278 H291 0.928 . S
H279 C255 0.931 . S
H280 C257 0.930 . S
H281 C259 0.929 . S
H282 C260 0.931 . S
H283 C262 0.930 . S
H284 C266 0.931 . S
H285 C264 0.931 . S
H286 C268 0.931 . S
H287 C269 0.929 . S
H288 C270 0.930 . S
H289 C273 0.930 . S
H290 C274 0.931 . S
H291 C278 0.928 . S
H292 C277 0.929 . S
H293 C275 0.932 . S
H294 C302 0.950 . S
H295 C307 0.950 . S
H296 C304 0.950 . S
H297 C306 0.950 . S
H298 C308 0.950 . S
H299 C310 0.950 . S
H300 C312 0.950 . S
H301 C313 0.950 . S
C302 H294 0.950 . S
C302 C303 1.386 . S
C302 C304 1.391 . S
C303 C302 1.386 . S
C303 C307 1.393 . S
C304 H296 0.950 . S
C304 C302 1.391 . S
C304 C305 1.400 . S
C305 C304 1.400 . S
C305 C306 1.398 . S
C305 C311 1.491 . S
C306 H297 0.950 . S
C306 C305 1.398 . S
C306 C307 1.391 . S
C307 H295 0.950 . S
C307 C303 1.393 . S
C307 C306 1.391 . S
C308 H298 0.950 . S
C308 C309 1.386 . S
C308 C310 1.391 . S
C309 C308 1.386 . S
C309 C313 1.393 . S
C310 H299 0.950 . S
C310 C308 1.391 . S
C310 C311 1.400 . S
C311 C305 1.491 . S
C311 C310 1.400 . S
C311 C312 1.398 . S
C312 H300 0.950 . S
C312 C311 1.398 . S
C312 C313 1.391 . S
C313 H301 0.950 . S
C313 C309 1.393 . S
C313 C312 1.391 . S
H314 C322 0.950 . S
H315 C327 0.950 . S
H316 C324 0.950 . S
H317 C326 0.950 . S
H318 C328 0.950 . S
H319 C330 0.950 . S
H320 C332 0.950 . S
H321 C333 0.950 . S
C322 H314 0.950 . S
C322 C323 1.386 . S
C322 C324 1.391 . S
C323 C322 1.386 . S
C323 C327 1.393 . S
C324 H316 0.950 . S
C324 C322 1.391 . S
C324 C325 1.400 . S
C325 C324 1.400 . S
C325 C326 1.398 . S
C325 C331 1.491 . S
C326 H317 0.950 . S
C326 C325 1.398 . S
C326 C327 1.391 . S
C327 H315 0.950 . S
C327 C323 1.393 . S
C327 C326 1.391 . S
C328 H318 0.950 . S
C328 C329 1.386 . S
C328 C330 1.391 . S
C329 C328 1.386 . S
C329 C333 1.393 . S
C330 H319 0.950 . S
C330 C328 1.391 . S
C330 C331 1.400 . S
C331 C325 1.491 . S
C331 C330 1.400 . S
C331 C332 1.398 . S
C332 H320 0.950 . S
C332 C331 1.398 . S
C332 C333 1.391 . S
C333 H321 0.950 . S
C333 C329 1.393 . S
C333 C332 1.391 . S
H334 C342 0.950 . S
H335 C347 0.950 . S
H336 C344 0.950 . S
H337 C346 0.950 . S
H338 C348 0.950 . S
H339 C350 0.950 . S
H340 C352 0.950 . S
H341 C353 0.950 . S
C342 H334 0.950 . S
C342 C343 1.386 . S
C342 C344 1.391 . S
C343 C342 1.386 . S
C343 C347 1.393 . S
C344 H336 0.950 . S
C344 C342 1.391 . S
C344 C345 1.400 . S
C345 C344 1.400 . S
C345 C346 1.398 . S
C345 C351 1.491 . S
C346 H337 0.950 . S
C346 C345 1.398 . S
C346 C347 1.391 . S
C347 H335 0.950 . S
C347 C343 1.393 . S
C347 C346 1.391 . S
C348 H338 0.950 . S
C348 C349 1.386 . S
C348 C350 1.391 . S
C349 C348 1.386 . S
C349 C353 1.393 . S
C350 H339 0.950 . S
C350 C348 1.391 . S
C350 C351 1.400 . S
C351 C345 1.491 . S
C351 C350 1.400 . S
C351 C352 1.398 . S
C352 H340 0.950 . S
C352 C351 1.398 . S
C352 C353 1.391 . S
C353 H341 0.950 . S
C353 C349 1.393 . S
C353 C352 1.391 . S
H354 C362 0.950 . S
H355 C367 0.950 . S
H356 C364 0.950 . S
H357 C366 0.950 . S
H358 C368 0.950 . S
H359 C370 0.950 . S
H360 C372 0.950 . S
H361 C373 0.950 . S
C362 H354 0.950 . S
C362 C363 1.386 . S
C362 C364 1.391 . S
C363 C362 1.386 . S
C363 C367 1.393 . S
C364 H356 0.950 . S
C364 C362 1.391 . S
C364 C365 1.400 . S
C365 C364 1.400 . S
C365 C366 1.398 . S
C365 C371 1.491 . S
C366 H357 0.950 . S
C366 C365 1.398 . S
C366 C367 1.391 . S
C367 H355 0.950 . S
C367 C363 1.393 . S
C367 C366 1.391 . S
C368 H358 0.950 . S
C368 C369 1.386 . S
C368 C370 1.391 . S
C369 C368 1.386 . S
C369 C373 1.393 . S
C370 H359 0.950 . S
C370 C368 1.391 . S
C370 C371 1.400 . S
C371 C365 1.491 . S
C371 C370 1.400 . S
C371 C372 1.398 . S
C372 H360 0.950 . S
C372 C371 1.398 . S
C372 C373 1.391 . S
C373 H361 0.950 . S
C373 C369 1.393 . S
C373 C372 1.391 . S
H374 C382 0.950 . S
H375 C387 0.950 . S
H376 C384 0.950 . S
H377 C386 0.950 . S
H378 C388 0.950 . S
H379 C390 0.950 . S
H380 C392 0.950 . S
H381 C393 0.950 . S
C382 H374 0.950 . S
C382 C383 1.386 . S
C382 C384 1.391 . S
C383 C382 1.386 . S
C383 C387 1.393 . S
C384 H376 0.950 . S
C384 C382 1.391 . S
C384 C385 1.400 . S
C385 C384 1.400 . S
C385 C386 1.398 . S
C385 C391 1.491 . S
C386 H377 0.950 . S
C386 C385 1.398 . S
C386 C387 1.391 . S
C387 H375 0.950 . S
C387 C383 1.393 . S
C387 C386 1.391 . S
C388 H378 0.950 . S
C388 C389 1.386 . S
C388 C390 1.391 . S
C389 C388 1.386 . S
C389 C393 1.393 . S
C390 H379 0.950 . S
C390 C388 1.391 . S
C390 C391 1.400 . S
C391 C385 1.491 . S
C391 C390 1.400 . S
C391 C392 1.398 . S
C392 H380 0.950 . S
C392 C391 1.398 . S
C392 C393 1.391 . S
C393 H381 0.950 . S
C393 C389 1.393 . S
C393 C392 1.391 . S
H394 C402 0.950 . S
H395 C407 0.950 . S
H396 C404 0.950 . S
H397 C406 0.950 . S
H398 C408 0.950 . S
H399 C410 0.950 . S
H400 C412 0.950 . S
H401 C413 0.950 . S
C402 H394 0.950 . S
C402 C403 1.386 . S
C402 C404 1.391 . S
C403 C402 1.386 . S
C403 C407 1.393 . S
C404 H396 0.950 . S
C404 C402 1.391 . S
C404 C405 1.400 . S
C405 C404 1.400 . S
C405 C406 1.398 . S
C405 C411 1.491 . S
C406 H397 0.950 . S
C406 C405 1.398 . S
C406 C407 1.391 . S
C407 H395 0.950 . S
C407 C403 1.393 . S
C407 C406 1.391 . S
C408 H398 0.950 . S
C408 C409 1.386 . S
C408 C410 1.391 . S
C409 C408 1.386 . S
C409 C413 1.393 . S
C410 H399 0.950 . S
C410 C408 1.391 . S
C410 C411 1.400 . S
C411 C405 1.491 . S
C411 C410 1.400 . S
C411 C412 1.398 . S
C412 H400 0.950 . S
C412 C411 1.398 . S
C412 C413 1.391 . S
C413 H401 0.950 . S
C413 C409 1.393 . S
C413 C412 1.391 . S
H414 C422 0.950 . S
H415 C427 0.950 . S
H416 C424 0.950 . S
H417 C426 0.950 . S
H418 C428 0.950 . S
H419 C430 0.950 . S
H420 C432 0.950 . S
H421 C433 0.950 . S
C422 H414 0.950 . S
C422 C423 1.386 . S
C422 C424 1.391 . S
C423 C422 1.386 . S
C423 C427 1.393 . S
C424 H416 0.950 . S
C424 C422 1.391 . S
C424 C425 1.400 . S
C425 C424 1.400 . S
C425 C426 1.398 . S
C425 C431 1.491 . S
C426 H417 0.950 . S
C426 C425 1.398 . S
C426 C427 1.391 . S
C427 H415 0.950 . S
C427 C423 1.393 . S
C427 C426 1.391 . S
C428 H418 0.950 . S
C428 C429 1.386 . S
C428 C430 1.391 . S
C429 C428 1.386 . S
C429 C433 1.393 . S
C430 H419 0.950 . S
C430 C428 1.391 . S
C430 C431 1.400 . S
C431 C425 1.491 . S
C431 C430 1.400 . S
C431 C432 1.398 . S
C432 H420 0.950 . S
C432 C431 1.398 . S
C432 C433 1.391 . S
C433 H421 0.950 . S
C433 C429 1.393 . S
C433 C432 1.391 . S
H434 C442 0.950 . S
H435 C447 0.950 . S
H436 C444 0.950 . S
H437 C446 0.950 . S
H438 C448 0.950 . S
H439 C450 0.950 . S
H440 C452 0.950 . S
H441 C453 0.950 . S
C442 H434 0.950 . S
C442 C443 1.386 . S
C442 C444 1.391 . S
C443 C442 1.386 . S
C443 C447 1.393 . S
C444 H436 0.950 . S
C444 C442 1.391 . S
C444 C445 1.400 . S
C445 C444 1.400 . S
C445 C446 1.398 . S
C445 C451 1.491 . S
C446 H437 0.950 . S
C446 C445 1.398 . S
C446 C447 1.391 . S
C447 H435 0.950 . S
C447 C443 1.393 . S
C447 C446 1.391 . S
C448 H438 0.950 . S
C448 C449 1.386 . S
C448 C450 1.391 . S
C449 C448 1.386 . S
C449 C453 1.393 . S
C450 H439 0.950 . S
C450 C448 1.391 . S
C450 C451 1.400 . S
C451 C445 1.491 . S
C451 C450 1.400 . S
C451 C452 1.398 . S
C452 H440 0.950 . S
C452 C451 1.398 . S
C452 C453 1.391 . S
C453 H441 0.950 . S
C453 C449 1.393 . S
C453 C452 1.391 . S
H454 C462 0.950 . S
H455 C467 0.950 . S
H456 C464 0.950 . S
H457 C466 0.950 . S
H458 C468 0.950 . S
H459 C470 0.950 . S
H460 C472 0.950 . S
H461 C473 0.950 . S
C462 H454 0.950 . S
C462 C463 1.386 . S
C462 C464 1.391 . S
C463 C462 1.386 . S
C463 C467 1.393 . S
C464 H456 0.950 . S
C464 C462 1.391 . S
C464 C465 1.400 . S
C465 C464 1.400 . S
C465 C466 1.398 . S
C465 C471 1.491 . S
C466 H457 0.950 . S
C466 C465 1.398 . S
C466 C467 1.391 . S
C467 H455 0.950 . S
C467 C463 1.393 . S
C467 C466 1.391 . S
C468 H458 0.950 . S
C468 C469 1.386 . S
C468 C470 1.391 . S
C469 C468 1.386 . S
C469 C473 1.393 . S
C470 H459 0.950 . S
C470 C468 1.391 . S
C470 C471 1.400 . S
C471 C465 1.491 . S
C471 C470 1.400 . S
C471 C472 1.398 . S
C472 H460 0.950 . S
C472 C471 1.398 . S
C472 C473 1.391 . S
C473 H461 0.950 . S
C473 C469 1.393 . S
C473 C472 1.391 . S
H474 C482 0.950 . S
H475 C487 0.950 . S
H476 C484 0.950 . S
H477 C486 0.950 . S
H478 C488 0.950 . S
H479 C490 0.950 . S
H480 C492 0.950 . S
H481 C493 0.950 . S
C482 H474 0.950 . S
C482 C483 1.386 . S
C482 C484 1.391 . S
C483 C482 1.386 . S
C483 C487 1.393 . S
C484 H476 0.950 . S
C484 C482 1.391 . S
C484 C485 1.400 . S
C485 C484 1.400 . S
C485 C486 1.398 . S
C485 C491 1.491 . S
C486 H477 0.950 . S
C486 C485 1.398 . S
C486 C487 1.391 . S
C487 H475 0.950 . S
C487 C483 1.393 . S
C487 C486 1.391 . S
C488 H478 0.950 . S
C488 C489 1.386 . S
C488 C490 1.391 . S
C489 C488 1.386 . S
C489 C493 1.393 . S
C490 H479 0.950 . S
C490 C488 1.391 . S
C490 C491 1.400 . S
C491 C485 1.491 . S
C491 C490 1.400 . S
C491 C492 1.398 . S
C492 H480 0.950 . S
C492 C491 1.398 . S
C492 C493 1.391 . S
C493 H481 0.950 . S
C493 C489 1.393 . S
C493 C492 1.391 . S
H494 C502 0.950 . S
H495 C507 0.950 . S
H496 C504 0.950 . S
H497 C506 0.950 . S
H498 C508 0.950 . S
H499 C510 0.950 . S
H500 C512 0.950 . S
H501 C513 0.950 . S
C502 H494 0.950 . S
C502 C503 1.386 . S
C502 C504 1.391 . S
C503 C502 1.386 . S
C503 C507 1.393 . S
C504 H496 0.950 . S
C504 C502 1.391 . S
C504 C505 1.400 . S
C505 C504 1.400 . S
C505 C506 1.398 . S
C505 C511 1.491 . S
C506 H497 0.950 . S
C506 C505 1.398 . S
C506 C507 1.391 . S
C507 H495 0.950 . S
C507 C503 1.393 . S
C507 C506 1.391 . S
C508 H498 0.950 . S
C508 C509 1.386 . S
C508 C510 1.391 . S
C509 C508 1.386 . S
C509 C513 1.393 . S
C510 H499 0.950 . S
C510 C508 1.391 . S
C510 C511 1.400 . S
C511 C505 1.491 . S
C511 C510 1.400 . S
C511 C512 1.398 . S
C512 H500 0.950 . S
C512 C511 1.398 . S
C512 C513 1.391 . S
C513 H501 0.950 . S
C513 C509 1.393 . S
C513 C512 1.391 . S
H514 C522 0.950 . S
H515 C527 0.950 . S
H516 C524 0.950 . S
H517 C526 0.950 . S
H518 C528 0.950 . S
H519 C530 0.950 . S
H520 C532 0.950 . S
H521 C533 0.950 . S
C522 H514 0.950 . S
C522 C523 1.386 . S
C522 C524 1.391 . S
C523 C522 1.386 . S
C523 C527 1.393 . S
C524 H516 0.950 . S
C524 C522 1.391 . S
C524 C525 1.400 . S
C525 C524 1.400 . S
C525 C526 1.398 . S
C525 C531 1.491 . S
C526 H517 0.950 . S
C526 C525 1.398 . S
C526 C527 1.391 . S
C527 H515 0.950 . S
C527 C523 1.393 . S
C527 C526 1.391 . S
C528 H518 0.950 . S
C528 C529 1.386 . S
C528 C530 1.391 . S
C529 C528 1.386 . S
C529 C533 1.393 . S
C530 H519 0.950 . S
C530 C528 1.391 . S
C530 C531 1.400 . S
C531 C525 1.491 . S
C531 C530 1.400 . S
C531 C532 1.398 . S
C532 H520 0.950 . S
C532 C531 1.398 . S
C532 C533 1.391 . S
C533 H521 0.950 . S
C533 C529 1.393 . S
C533 C532 1.391 . S
H534 C542 0.950 1_655 S
H535 C547 0.950 . S
H536 C544 0.950 1_655 S
H537 C546 0.950 . S
H538 C548 0.950 . S
H539 C550 0.950 . S
H540 C552 0.950 1_655 S
H541 C553 0.950 1_655 S
C542 H534 0.950 1_455 S
C542 C543 1.386 . S
C542 C544 1.391 . S
C543 C542 1.386 . S
C543 C547 1.393 . S
C544 H536 0.950 1_455 S
C544 C542 1.391 . S
C544 C545 1.400 . S
C545 C544 1.400 . S
C545 C546 1.398 . S
C545 C551 1.491 . S
C546 H537 0.950 . S
C546 C545 1.398 . S
C546 C547 1.391 . S
C547 H535 0.950 . S
C547 C543 1.393 . S
C547 C546 1.391 . S
C548 H538 0.950 . S
C548 C549 1.370 1_554 S
C548 C550 1.391 . S
C549 C548 1.370 1_556 S
C549 C553 1.377 1_556 S
C550 H539 0.950 . S
C550 C548 1.391 . S
C550 C551 1.400 . S
C551 C545 1.491 . S
C551 C550 1.400 . S
C551 C552 1.398 . S
C552 H540 0.950 1_455 S
C552 C551 1.398 . S
C552 C553 1.391 . S
C553 H541 0.950 1_455 S
C553 C549 1.377 1_554 S
C553 C552 1.391 . S
H554 C562 0.950 . S
H555 C567 0.950 . S
H556 C564 0.950 . S
H557 C566 0.950 . S
H558 C568 0.950 . S
H559 C570 0.950 . S
H560 C572 0.950 . S
H561 C573 0.950 . S
C562 H554 0.950 . S
C562 C563 1.386 . S
C562 C564 1.391 . S
C563 C562 1.386 . S
C563 C567 1.393 1_545 S
C564 H556 0.950 . S
C564 C562 1.391 . S
C564 C565 1.400 . S
C565 C564 1.400 . S
C565 C566 1.398 1_545 S
C565 C571 1.491 . S
C566 H557 0.950 . S
C566 C565 1.398 1_565 S
C566 C567 1.391 . S
C567 H555 0.950 . S
C567 C563 1.393 1_565 S
C567 C566 1.391 . S
C568 H558 0.950 . S
C568 C569 1.386 1_565 S
C568 C570 1.391 . S
C569 C568 1.386 1_545 S
C569 C573 1.393 . S
C570 H559 0.950 . S
C570 C568 1.391 . S
C570 C571 1.400 1_565 S
C571 C565 1.491 . S
C571 C570 1.400 1_545 S
C571 C572 1.398 . S
C572 H560 0.950 . S
C572 C571 1.398 . S
C572 C573 1.391 . S
C573 H561 0.950 . S
C573 C569 1.393 . S
C573 C572 1.391 . S
H574 C582 0.950 . S
H575 C587 0.950 . S
H576 C584 0.950 . S
H577 C586 0.950 . S
H578 C588 0.950 . S
H579 C590 0.950 . S
H580 C592 0.950 . S
H581 C593 0.950 . S
C582 H574 0.950 . S
C582 C583 1.386 . S
C582 C584 1.391 . S
C583 C582 1.386 . S
C583 C587 1.393 . S
C584 H576 0.950 . S
C584 C582 1.391 . S
C584 C585 1.400 . S
C585 C584 1.400 . S
C585 C586 1.398 . S
C585 C591 1.491 . S
C586 H577 0.950 . S
C586 C585 1.398 . S
C586 C587 1.391 . S
C587 H575 0.950 . S
C587 C583 1.393 . S
C587 C586 1.391 . S
C588 H578 0.950 . S
C588 C589 1.386 . S
C588 C590 1.391 . S
C589 C588 1.386 . S
C589 C593 1.393 . S
C590 H579 0.950 . S
C590 C588 1.391 . S
C590 C591 1.400 . S
C591 C585 1.491 . S
C591 C590 1.400 . S
C591 C592 1.398 . S
C592 H580 0.950 . S
C592 C591 1.398 . S
C592 C593 1.391 . S
C593 H581 0.950 . S
C593 C589 1.393 . S
C593 C592 1.391 . S
H594 C602 0.950 . S
H595 C607 0.950 . S
H596 C604 0.950 . S
H597 C606 0.950 . S
H598 C608 0.950 . S
H599 C610 0.950 . S
H600 C612 0.950 . S
H601 C613 0.950 . S
C602 H594 0.950 . S
C602 C603 1.386 . S
C602 C604 1.391 . S
C603 C602 1.386 . S
C603 C607 1.393 . S
C604 H596 0.950 . S
C604 C602 1.391 . S
C604 C605 1.400 . S
C605 C604 1.400 . S
C605 C606 1.398 . S
C605 C611 1.491 . S
C606 H597 0.950 . S
C606 C605 1.398 . S
C606 C607 1.391 . S
C607 H595 0.950 . S
C607 C603 1.393 . S
C607 C606 1.391 . S
C608 H598 0.950 . S
C608 C609 1.386 . S
C608 C610 1.391 . S
C609 C608 1.386 . S
C609 C613 1.393 . S
C610 H599 0.950 . S
C610 C608 1.391 . S
C610 C611 1.400 . S
C611 C605 1.491 . S
C611 C610 1.400 . S
C611 C612 1.398 . S
C612 H600 0.950 . S
C612 C611 1.398 . S
C612 C613 1.391 . S
C613 H601 0.950 . S
C613 C609 1.393 . S
C613 C612 1.391 . S
H614 C622 0.950 . S
H615 C627 0.950 . S
H616 C624 0.950 . S
H617 C626 0.950 . S
H618 C628 0.950 . S
H619 C630 0.950 . S
H620 C632 0.950 . S
H621 C633 0.937 1_554 S
C622 H614 0.950 . S
C622 C623 1.386 . S
C622 C624 1.391 . S
C623 C622 1.386 . S
C623 C627 1.393 . S
C624 H616 0.950 . S
C624 C622 1.391 . S
C624 C625 1.400 . S
C625 C624 1.400 . S
C625 C626 1.398 . S
C625 C631 1.491 . S
C626 H617 0.950 . S
C626 C625 1.398 . S
C626 C627 1.391 . S
C627 H615 0.950 . S
C627 C623 1.393 . S
C627 C626 1.391 . S
C628 H618 0.950 . S
C628 C629 1.386 1_556 S
C628 C630 1.391 . S
C629 C628 1.386 1_554 S
C629 C633 1.393 1_554 S
C630 H619 0.950 . S
C630 C628 1.391 . S
C630 C631 1.400 . S
C631 C625 1.491 . S
C631 C630 1.400 . S
C631 C632 1.398 . S
C632 H620 0.950 . S
C632 C631 1.398 . S
C632 C633 1.391 . S
C633 H621 0.937 1_556 S
C633 C629 1.393 1_556 S
C633 C632 1.391 . S
H634 C642 0.950 . S
H635 C647 0.950 . S
H636 C644 0.950 . S
H637 C646 0.950 . S
H638 C648 0.950 . S
H639 C650 0.950 . S
H640 C652 0.950 . S
H641 C653 0.950 . S
C642 H634 0.950 . S
C642 C643 1.386 1_655 S
C642 C644 1.391 . S
C643 C642 1.386 1_455 S
C643 C647 1.393 . S
C644 H636 0.950 . S
C644 C642 1.391 . S
C644 C645 1.400 1_655 S
C645 C644 1.400 1_455 S
C645 C646 1.398 . S
C645 C651 1.491 . S
C646 H637 0.950 . S
C646 C645 1.398 . S
C646 C647 1.391 . S
C647 H635 0.950 . S
C647 C643 1.393 . S
C647 C646 1.391 . S
C648 H638 0.950 . S
C648 C649 1.386 . S
C648 C650 1.391 . S
C649 C648 1.386 . S
C649 C653 1.393 1_455 S
C650 H639 0.950 . S
C650 C648 1.391 . S
C650 C651 1.400 . S
C651 C645 1.491 . S
C651 C650 1.400 . S
C651 C652 1.398 1_455 S
C652 H640 0.950 . S
C652 C651 1.398 1_655 S
C652 C653 1.391 . S
C653 H641 0.950 . S
C653 C649 1.393 1_655 S
C653 C652 1.391 . S
C303 C2 1.106 . S
C309 C271 1.083 . S
C323 C21 1.035 . S
C329 C198 1.025 . S
C343 C42 1.110 . S
C349 C237 1.094 . S
C363 C1 1.022 . S
C369 C276 1.008 . S
C389 C193 1.087 . S
C383 C22 1.085 . S
C409 C232 1.004 . S
C403 C41 1.031 . S
C423 C38 1.911 . S
C429 C120 1.881 . S
C443 C59 1.979 . S
C449 C154 1.933 . S
C463 C18 1.903 . S
C469 C76 1.856 . S
C489 C115 1.928 . S
C483 C39 1.968 . S
C509 C159 1.873 . S
C503 C58 1.892 . S
C523 C19 1.975 . S
C529 C81 1.929 . S
C549 C139 1.601 . S
C543 C9 1.496 . S
C563 C29 1.499 . S
C569 C61 1.570 . S
C583 C49 1.499 . S
C589 C100 1.569 . S
C609 C217 1.389 . S
C603 C28 1.362 . S
C629 C256 1.388 . S
C623 C48 1.349 . S
C643 C8 1.352 . S
C649 C178 1.388 . S
