# Generated by pormake.
# Topology zzz, (3,6)-cn, num edge types: 1
# Building blocks:
#     Node 0, Type 0, BuildingBlock: PAMTOO_clean_linker_0, # of connection points: 3
#     Node 1, Type 0, BuildingBlock: PAMTOO_clean_linker_0, # of connection points: 3
#     Node 2, Type 0, BuildingBlock: PAMTOO_clean_linker_0, # of connection points: 3
#     Node 3, Type 0, BuildingBlock: PAMTOO_clean_linker_0, # of connection points: 3
#     Node 4, Type 0, BuildingBlock: PAMTOO_clean_linker_0, # of connection points: 3
#     Node 5, Type 0, BuildingBlock: PAMTOO_clean_linker_0, # of connection points: 3
#     Node 6, Type 0, BuildingBlock: PAMTOO_clean_linker_0, # of connection points: 3
#     Node 7, Type 0, BuildingBlock: PAMTOO_clean_linker_0, # of connection points: 3
#     Node 8, Type 1, BuildingBlock: CIFDUS_clean_sbu_1, # of connection points: 6
#     Node 9, Type 1, BuildingBlock: CIFDUS_clean_sbu_1, # of connection points: 6
#     Node 10, Type 1, BuildingBlock: CIFDUS_clean_sbu_1, # of connection points: 6
#     Node 11, Type 1, BuildingBlock: CIFDUS_clean_sbu_1, # of connection points: 6
#     Edge 12, Type (0, 1), BuildingBlock: ZUJKAS_clean_linker_0, # of connection points: 2
#     Edge 13, Type (0, 1), BuildingBlock: ZUJKAS_clean_linker_0, # of connection points: 2
#     Edge 14, Type (0, 1), BuildingBlock: ZUJKAS_clean_linker_0, # of connection points: 2
#     Edge 15, Type (0, 1), BuildingBlock: ZUJKAS_clean_linker_0, # of connection points: 2
#     Edge 16, Type (0, 1), BuildingBlock: ZUJKAS_clean_linker_0, # of connection points: 2
#     Edge 17, Type (0, 1), BuildingBlock: ZUJKAS_clean_linker_0, # of connection points: 2
#     Edge 18, Type (0, 1), BuildingBlock: ZUJKAS_clean_linker_0, # of connection points: 2
#     Edge 19, Type (0, 1), BuildingBlock: ZUJKAS_clean_linker_0, # of connection points: 2
#     Edge 20, Type (0, 1), BuildingBlock: ZUJKAS_clean_linker_0, # of connection points: 2
#     Edge 21, Type (0, 1), BuildingBlock: ZUJKAS_clean_linker_0, # of connection points: 2
#     Edge 22, Type (0, 1), BuildingBlock: ZUJKAS_clean_linker_0, # of connection points: 2
#     Edge 23, Type (0, 1), BuildingBlock: ZUJKAS_clean_linker_0, # of connection points: 2
#     Edge 24, Type (0, 1), BuildingBlock: ZUJKAS_clean_linker_0, # of connection points: 2
#     Edge 25, Type (0, 1), BuildingBlock: ZUJKAS_clean_linker_0, # of connection points: 2
#     Edge 26, Type (0, 1), BuildingBlock: ZUJKAS_clean_linker_0, # of connection points: 2
#     Edge 27, Type (0, 1), BuildingBlock: ZUJKAS_clean_linker_0, # of connection points: 2
#     Edge 28, Type (0, 1), BuildingBlock: ZUJKAS_clean_linker_0, # of connection points: 2
#     Edge 29, Type (0, 1), BuildingBlock: ZUJKAS_clean_linker_0, # of connection points: 2
#     Edge 30, Type (0, 1), BuildingBlock: ZUJKAS_clean_linker_0, # of connection points: 2
#     Edge 31, Type (0, 1), BuildingBlock: ZUJKAS_clean_linker_0, # of connection points: 2
#     Edge 32, Type (0, 1), BuildingBlock: ZUJKAS_clean_linker_0, # of connection points: 2
#     Edge 33, Type (0, 1), BuildingBlock: ZUJKAS_clean_linker_0, # of connection points: 2
#     Edge 34, Type (0, 1), BuildingBlock: ZUJKAS_clean_linker_0, # of connection points: 2
#     Edge 35, Type (0, 1), BuildingBlock: ZUJKAS_clean_linker_0, # of connection points: 2
# Relax obj value: 0.142
# Max RMSD: 0.188
# Mean RMSD: 0.105
data_MOF--net-zzz--node1-CIFDUS_clean_sbu_1--node2-PAMTOO_clean_linker_0--edge1-ZUJKAS_clean_linker_0
_symmetry_space_group_name_H-M    P1
_symmetry_Int_Tables_number       1
_symmetry_cell_setting            triclinic
loop_
_symmetry_equiv_pos_as_xyz
'x, y, z'
_cell_length_a     65.159918
_cell_length_b     65.017084
_cell_length_c     20.594439
_cell_angle_alpha  89.961843
_cell_angle_beta   90.024711
_cell_angle_gamma 90.024647
loop_
_atom_site_label
_atom_site_type_symbol
_atom_site_fract_x
_atom_site_fract_y
_atom_site_fract_z
_atom_type_partial_charge
H0 H 0.82356 0.56018 0.16772 0.0
H1 H 0.76711 0.55856 0.05986 0.0
H2 H 0.76736 0.54374 0.26415 0.0
H3 H 0.72997 0.52205 0.18213 0.0
C4 C 0.73427 0.53112 0.13845 0.0
O5 O 0.7438 0.54913 0.15849 0.0
H6 H 0.74507 0.52139 0.10989 0.0
C7 C 0.80701 0.55823 0.16666 0.0
C8 C 0.79693 0.55207 0.22325 0.0
C9 C 0.7965 0.56039 0.10774 0.0
C10 C 0.77528 0.55708 0.10547 0.0
C11 C 0.76456 0.5514 0.16178 0.0
C12 C 0.77548 0.54852 0.22085 0.0
H13 H 0.96003 0.82312 0.14441 0.0
H14 H 0.96011 0.76301 0.05891 0.0
H15 H 0.97198 0.77002 0.26378 0.0
H16 H 0.99086 0.72601 0.20053 0.0
C17 C 0.98521 0.73259 0.15409 0.0
O18 O 0.96708 0.74312 0.16636 0.0
H19 H 0.99726 0.74336 0.13612 0.0
C20 C 0.96127 0.80658 0.15029 0.0
C21 C 0.96645 0.79844 0.2111 0.0
C22 C 0.95919 0.79402 0.09556 0.0
C23 C 0.96121 0.77273 0.10151 0.0
C24 C 0.96537 0.76392 0.16221 0.0
C25 C 0.96806 0.77679 0.21735 0.0
H26 H 0.69493 0.95898 0.15648 0.0
H27 H 0.7541 0.95776 0.06495 0.0
H28 H 0.74912 0.97149 0.26933 0.0
H29 H 0.79113 0.99137 0.19749 0.0
C30 C 0.7853 0.98393 0.15256 0.0
O31 O 0.77499 0.96606 0.16965 0.0
H32 H 0.77468 0.99522 0.12944 0.0
C33 C 0.71152 0.96003 0.16034 0.0
C34 C 0.72032 0.9654 0.21986 0.0
C35 C 0.72351 0.95731 0.10467 0.0
C36 C 0.74482 0.95938 0.10831 0.0
C37 C 0.75421 0.96422 0.16764 0.0
C38 C 0.74194 0.96727 0.22381 0.0
H39 H 0.55469 0.69302 0.14694 0.0
H40 H 0.55581 0.75304 0.06098 0.0
H41 H 0.55004 0.7467 0.26876 0.0
H42 H 0.52856 0.78894 0.2062 0.0
C43 C 0.535 0.78439 0.15837 0.0
O44 O 0.5529 0.77332 0.16943 0.0
H45 H 0.52329 0.77466 0.13361 0.0
C46 C 0.55469 0.70961 0.15302 0.0
C47 C 0.55227 0.71802 0.21511 0.0
C48 C 0.55565 0.72204 0.09776 0.0
C49 C 0.55551 0.7434 0.10394 0.0
C50 C 0.55373 0.75245 0.16545 0.0
C51 C 0.55208 0.73974 0.22145 0.0
H52 H 0.19623 0.45508 0.30943 0.0
H53 H 0.25447 0.46946 0.39431 0.0
H54 H 0.24487 0.47948 0.18998 0.0
H55 H 0.29656 0.4688 0.23383 0.0
C56 C 0.28898 0.46618 0.2814 0.0
O57 O 0.27247 0.47959 0.28659 0.0
H58 H 0.28358 0.4499 0.28122 0.0
C59 C 0.21192 0.46026 0.30316 0.0
C60 C 0.21828 0.46795 0.24267 0.0
C61 C 0.22449 0.46149 0.35816 0.0
C62 C 0.24481 0.46797 0.35169 0.0
C63 C 0.2526 0.47326 0.2906 0.0
C64 C 0.23922 0.47373 0.23595 0.0
H65 H 0.06311 0.19242 0.27791 0.0
H66 H 0.0607 0.24862 0.38725 0.0
H67 H 0.04802 0.24916 0.18171 0.0
H68 H 0.02496 0.27034 0.33979 0.0
C69 C 0.0342 0.28138 0.31042 0.0
O70 O 0.05219 0.27227 0.28883 0.0
H71 H 0.02468 0.28554 0.2676 0.0
C72 C 0.06138 0.20902 0.27926 0.0
C73 C 0.05595 0.21938 0.22231 0.0
C74 C 0.06284 0.21931 0.33881 0.0
C75 C 0.0598 0.2406 0.34122 0.0
C76 C 0.05472 0.25154 0.28478 0.0
C77 C 0.05238 0.24084 0.22514 0.0
H78 H 0.32257 0.0535 0.26922 0.0
H79 H 0.26617 0.05492 0.37664 0.0
H80 H 0.26489 0.05 0.16764 0.0
H81 H 0.24084 0.02368 0.31689 0.0
C82 C 0.2311 0.03483 0.28975 0.0
O83 O 0.24201 0.05268 0.27613 0.0
H84 H 0.22685 0.02752 0.24284 0.0
C85 C 0.3059 0.05386 0.26953 0.0
C86 C 0.29524 0.05209 0.21099 0.0
C87 C 0.29556 0.05468 0.32887 0.0
C88 C 0.27414 0.0546 0.33047 0.0
C89 C 0.26289 0.05311 0.27261 0.0
C90 C 0.27347 0.05166 0.21237 0.0
H91 H 0.45434 0.32358 0.30117 0.0
H92 H 0.45758 0.2647 0.3941 0.0
H93 H 0.47681 0.27118 0.19482 0.0
H94 H 0.49678 0.24702 0.34533 0.0
C95 C 0.48766 0.23565 0.31689 0.0
O96 O 0.46997 0.24462 0.29218 0.0
H97 H 0.49751 0.23079 0.27564 0.0
C98 C 0.45765 0.30726 0.29806 0.0
C99 C 0.46632 0.29933 0.24105 0.0
C100 C 0.45507 0.29515 0.35365 0.0
C101 C 0.45922 0.2741 0.35092 0.0
C102 C 0.46643 0.26523 0.29327 0.0
C103 C 0.47029 0.27789 0.23826 0.0
O104 O 0.01575 0.03289 0.78808 0.0
Mn105 Mn 0.00801 0.00857 0.72291 0.0
O106 O 0.98776 0.05312 0.79058 0.0
Mn107 Mn 0.97294 0.03862 0.72908 0.0
O108 O 0.00018 0.98442 0.65816 0.0
O109 O 0.03908 0.00485 0.70206 0.0
Mn110 Mn 0.04266 0.97815 0.71808 0.0
O111 O 0.00769 0.98761 0.79968 0.0
O112 O 0.02723 0.96294 0.65935 0.0
O113 O 0.00808 0.02936 0.64572 0.0
O114 O 0.97793 0.04538 0.64396 0.0
O115 O 0.0679 0.98671 0.69454 0.0
O116 O 0.03794 0.97198 0.80388 0.0
C117 C 0.95732 0.01217 0.7583 0.0
C118 C 0.00588 0.04878 0.80941 0.0
C119 C 0.00935 0.96783 0.63966 0.0
C120 C 0.05872 0.00422 0.68691 0.0
C121 C 0.02024 0.97516 0.82705 0.0
C122 C 0.99533 0.04176 0.61908 0.0
O123 O 0.97695 0.01201 0.74324 0.0
O124 O 0.94777 0.0295 0.75114 0.0
O125 O 0.53181 0.00681 0.80512 0.0
Mn126 Mn 0.51054 0.00836 0.72806 0.0
O127 O 0.54847 0.03678 0.80633 0.0
Mn128 Mn 0.54158 0.04268 0.72219 0.0
O129 O 0.49004 0.01157 0.65093 0.0
O130 O 0.50647 0.97611 0.74435 0.0
Mn131 Mn 0.47972 0.97706 0.72248 0.0
O132 O 0.48679 0.01641 0.79483 0.0
O133 O 0.47393 0.98229 0.63705 0.0
O134 O 0.53425 0.00057 0.66138 0.0
O135 O 0.55517 0.02805 0.65803 0.0
O136 O 0.48279 0.95075 0.7389 0.0
O137 O 0.46411 0.99093 0.78299 0.0
C138 C 0.51546 0.05945 0.69761 0.0
C139 C 0.54475 0.01933 0.83103 0.0
C140 C 0.4779 0.00024 0.61821 0.0
C141 C 0.50146 0.95633 0.75176 0.0
C142 C 0.46959 0.00768 0.80935 0.0
C143 C 0.55017 0.0101 0.63907 0.0
O144 O 0.51484 0.03963 0.71072 0.0
O145 O 0.53312 0.0684 0.70376 0.0
O146 O 0.51354 0.52676 0.79474 0.0
Mn147 Mn 0.51002 0.5065 0.7175 0.0
O148 O 0.48442 0.54404 0.80798 0.0
Mn149 Mn 0.47643 0.5385 0.72392 0.0
O150 O 0.50689 0.4864 0.63906 0.0
O151 O 0.54081 0.5008 0.73101 0.0
Mn152 Mn 0.54379 0.47473 0.70759 0.0
O153 O 0.50287 0.48197 0.78164 0.0
O154 O 0.53723 0.47193 0.62118 0.0
O155 O 0.51739 0.53094 0.65305 0.0
O156 O 0.49063 0.55278 0.66003 0.0
O157 O 0.56947 0.48289 0.73107 0.0
O158 O 0.52798 0.45878 0.76383 0.0
C159 C 0.45909 0.51295 0.69395 0.0
C160 C 0.50261 0.53988 0.82542 0.0
C161 C 0.51881 0.4752 0.60441 0.0
C162 C 0.56047 0.50015 0.74414 0.0
C163 C 0.51125 0.46419 0.79126 0.0
C164 C 0.50796 0.54761 0.6362 0.0
O165 O 0.47892 0.51198 0.70529 0.0
O166 O 0.45038 0.5304 0.70663 0.0
O167 O 0.03236 0.50052 0.79093 0.0
Mn168 Mn 0.00801 0.50704 0.72527 0.0
O169 O 0.05483 0.52593 0.77079 0.0
Mn170 Mn 0.03789 0.54082 0.71545 0.0
O171 O 0.98364 0.51347 0.65894 0.0
O172 O 0.00447 0.47571 0.71023 0.0
Mn173 Mn 0.97812 0.47144 0.72587 0.0
O174 O 0.98692 0.50842 0.80232 0.0
O175 O 0.96335 0.48546 0.66287 0.0
O176 O 0.02885 0.50465 0.64845 0.0
O177 O 0.04154 0.5354 0.62893 0.0
O178 O 0.98774 0.44607 0.70701 0.0
O179 O 0.9718 0.47779 0.81025 0.0
C180 C 0.01417 0.55879 0.75066 0.0
C181 C 0.05 0.50922 0.79939 0.0
C182 C 0.96761 0.50324 0.64033 0.0
C183 C 0.00476 0.45591 0.69742 0.0
C184 C 0.97466 0.49588 0.83108 0.0
C185 C 0.03976 0.51672 0.61363 0.0
O186 O 0.01174 0.53879 0.74092 0.0
O187 O 0.03181 0.56679 0.73612 0.0
H188 H 0.19457 0.01451 0.28323 0.0
H189 H 0.1649 0.0167 0.35561 0.0
H190 H 0.19487 0.06461 0.46471 0.0
H191 H 0.22486 0.06233 0.39208 0.0
H192 H 0.16651 0.01018 0.49398 0.0
H193 H 0.13516 0.08731 0.4314 0.0
H194 H 0.15214 0.07349 0.37747 0.0
H195 H 0.16215 0.08542 0.44927 0.0
C196 C 0.19469 0.02587 0.32166 0.0
C197 C 0.21188 0.03868 0.3304 0.0
C198 C 0.17773 0.02703 0.36338 0.0
C199 C 0.17738 0.04101 0.41531 0.0
C200 C 0.19449 0.05397 0.4243 0.0
H201 H 0.08992 0.02667 0.73713 0.0
H202 H 0.11913 0.03959 0.6741 0.0
C203 C 0.21163 0.0527 0.38262 0.0
C204 C 0.15959 0.04085 0.46161 0.0
H205 H 0.11709 0.06799 0.51007 0.0
C206 C 0.15584 0.02291 0.49785 0.0
C207 C 0.14557 0.05744 0.46697 0.0
C208 C 0.14875 0.07703 0.42911 0.0
C209 C 0.13844 0.02097 0.53804 0.0
C210 C 0.12416 0.03733 0.54224 0.0
C211 C 0.12801 0.05545 0.50696 0.0
C212 C 0.10475 0.03503 0.58063 0.0
C213 C 0.13513 0.00116 0.57481 0.0
C214 C 0.08645 0.02918 0.54953 0.0
C215 C 0.06965 0.02186 0.58573 0.0
C216 C 0.07061 0.02063 0.65386 0.0
C217 C 0.08831 0.02821 0.68498 0.0
C218 C 0.10518 0.03535 0.64885 0.0
H219 H 0.14659 0.98921 0.56184 0.0
H220 H 0.13624 0.00418 0.62773 0.0
H221 H 0.11952 0.99504 0.56495 0.0
H222 H 0.08579 0.02853 0.49701 0.0
H223 H 0.0568 0.01511 0.56001 0.0
H224 H 0.49008 0.2318 0.45033 0.0
H225 H 0.48705 0.20036 0.516 0.0
H226 H 0.47132 0.16594 0.34427 0.0
H227 H 0.47454 0.19734 0.27843 0.0
H228 H 0.45445 0.16941 0.53406 0.0
H229 H 0.52409 0.13775 0.41488 0.0
H230 H 0.51737 0.16465 0.4106 0.0
H231 H 0.5041 0.14622 0.361 0.0
C232 C 0.4857 0.21758 0.42675 0.0
C233 C 0.48281 0.21699 0.35897 0.0
C234 C 0.48394 0.1996 0.46438 0.0
C235 C 0.47928 0.18063 0.4351 0.0
C236 C 0.47525 0.18028 0.36797 0.0
H237 H 0.49984 0.05563 0.57572 0.0
H238 H 0.48606 0.08418 0.51141 0.0
C239 C 0.477 0.19824 0.33036 0.0
C240 C 0.48005 0.16107 0.47367 0.0
H241 H 0.50738 0.11648 0.49006 0.0
C242 C 0.46595 0.15777 0.5243 0.0
C243 C 0.49505 0.14582 0.46126 0.0
C244 C 0.51115 0.14874 0.4094 0.0
C245 C 0.46629 0.13959 0.56205 0.0
C246 C 0.4815 0.1244 0.55014 0.0
C247 C 0.49551 0.12779 0.49918 0.0
C248 C 0.48433 0.10556 0.59184 0.0
C249 C 0.45006 0.13678 0.61349 0.0
C250 C 0.48685 0.10737 0.65946 0.0
C251 C 0.49392 0.0907 0.69659 0.0
C252 C 0.49896 0.07183 0.66725 0.0
C253 C 0.4952 0.06957 0.60046 0.0
C254 C 0.48774 0.08614 0.56336 0.0
H255 H 0.43576 0.14514 0.60055 0.0
H256 H 0.44628 0.12029 0.62098 0.0
H257 H 0.45572 0.14325 0.66002 0.0
H258 H 0.48506 0.12213 0.68304 0.0
H259 H 0.49753 0.09326 0.74732 0.0
H260 H 0.30894 0.50195 0.31737 0.0
H261 H 0.33787 0.5059 0.39325 0.0
H262 H 0.3343 0.4414 0.44036 0.0
H263 H 0.30555 0.43743 0.36464 0.0
H264 H 0.34304 0.49791 0.52721 0.0
H265 H 0.39395 0.44785 0.38031 0.0
H266 H 0.36998 0.4578 0.34964 0.0
H267 H 0.37011 0.43618 0.40407 0.0
C268 C 0.31413 0.48871 0.34477 0.0
C269 C 0.30482 0.46941 0.33511 0.0
C270 C 0.33074 0.49094 0.38799 0.0
C271 C 0.33865 0.47387 0.42191 0.0
C272 C 0.32886 0.45475 0.41403 0.0
H273 H 0.4282 0.48904 0.74035 0.0
H274 H 0.39898 0.47664 0.67624 0.0
C275 C 0.31225 0.45254 0.37107 0.0
C276 C 0.35742 0.47595 0.46392 0.0
H277 H 0.40719 0.45962 0.48052 0.0
C278 C 0.35704 0.48948 0.51709 0.0
C279 C 0.37586 0.46514 0.45066 0.0
C280 C 0.37768 0.45105 0.39279 0.0
C281 C 0.37442 0.49249 0.55704 0.0
C282 C 0.39281 0.48144 0.54438 0.0
C283 C 0.39316 0.46793 0.49107 0.0
C284 C 0.41212 0.48476 0.58316 0.0
C285 C 0.37304 0.50806 0.61119 0.0
C286 C 0.43014 0.49177 0.55254 0.0
C287 C 0.44713 0.49829 0.58932 0.0
C288 C 0.44669 0.49768 0.65756 0.0
C289 C 0.42934 0.48909 0.68786 0.0
C290 C 0.41237 0.48247 0.65114 0.0
H291 H 0.36 0.51884 0.60407 0.0
H292 H 0.37058 0.49992 0.6579 0.0
H293 H 0.3874 0.51718 0.61502 0.0
H294 H 0.43053 0.49363 0.50029 0.0
H295 H 0.45988 0.50557 0.56451 0.0
H296 H 0.03886 0.28454 0.44334 0.0
H297 H 0.04113 0.31601 0.5094 0.0
H298 H 0.04172 0.35264 0.33491 0.0
H299 H 0.03928 0.32127 0.269 0.0
H300 H 0.06932 0.35124 0.51262 0.0
H301 H 0.9905 0.37285 0.43624 0.0
H302 H 0.00063 0.34725 0.42565 0.0
H303 H 0.00787 0.36746 0.37069 0.0
C304 C 0.03973 0.29932 0.41917 0.0
C305 C 0.03852 0.30047 0.35097 0.0
C306 C 0.04106 0.3173 0.45695 0.0
C307 C 0.04122 0.3368 0.42732 0.0
C308 C 0.04125 0.33785 0.35908 0.0
H309 H 0.01591 0.46004 0.57123 0.0
H310 H 0.02928 0.43201 0.50402 0.0
C311 C 0.03995 0.31991 0.32138 0.0
C312 C 0.03995 0.35603 0.46725 0.0
H313 H 0.00867 0.39707 0.4986 0.0
C314 C 0.05609 0.3613 0.50952 0.0
C315 C 0.02265 0.36916 0.46376 0.0
C316 C 0.00431 0.36389 0.42216 0.0
C317 C 0.05555 0.37951 0.54708 0.0
C318 C 0.03824 0.39271 0.54324 0.0
C319 C 0.02212 0.38728 0.50112 0.0
C320 C 0.03566 0.41158 0.58459 0.0
C321 C 0.0737 0.38457 0.58959 0.0
C322 C 0.03585 0.41013 0.65274 0.0
C323 C 0.02871 0.42646 0.69123 0.0
C324 C 0.02115 0.44462 0.66274 0.0
C325 C 0.02242 0.44666 0.59493 0.0
C326 C 0.02972 0.43041 0.55636 0.0
H327 H 0.08795 0.37718 0.57134 0.0
H328 H 0.07624 0.40143 0.59259 0.0
H329 H 0.07083 0.37865 0.63931 0.0
H330 H 0.03977 0.39576 0.67621 0.0
H331 H 0.02711 0.42404 0.74305 0.0
H332 H 0.78604 0.9858 0.01886 0.0
H333 H 0.81576 0.98265 0.94618 0.0
H334 H 0.85452 0.96958 0.11088 0.0
H335 H 0.82477 0.97247 0.18327 0.0
H336 H 0.84931 0.00658 0.9452 0.0
H337 H 0.87427 0.92633 0.98524 0.0
H338 H 0.84948 0.93565 0.01096 0.0
H339 H 0.87189 0.94031 0.05994 0.0
C340 C 0.80085 0.9819 0.0393 0.0
C341 C 0.8031 0.97952 0.10685 0.0
C342 C 0.81787 0.98014 0.99775 0.0
C343 C 0.83751 0.97568 0.02259 0.0
C344 C 0.83958 0.9726 0.08995 0.0
H345 H 0.95977 0.00062 0.88459 0.0
H346 H 0.93056 0.98761 0.94752 0.0
C347 C 0.82257 0.97437 0.13148 0.0
C348 C 0.85601 0.97599 0.97912 0.0
H349 H 0.89895 0.94881 0.935 0.0
C350 C 0.85998 0.99382 0.94253 0.0
C351 C 0.87007 0.95936 0.97503 0.0
C352 C 0.86613 0.93925 0.00935 0.0
C353 C 0.87777 0.99574 0.90416 0.0
C354 C 0.89212 0.9794 0.90172 0.0
C355 C 0.88805 0.9614 0.93716 0.0
C356 C 0.91157 0.9814 0.86373 0.0
C357 C 0.88142 0.0155 0.86742 0.0
C358 C 0.91118 0.98098 0.79555 0.0
C359 C 0.9281 0.98796 0.75951 0.0
C360 C 0.94579 0.99547 0.79077 0.0
C361 C 0.9468 0.99411 0.85887 0.0
C362 C 0.92992 0.98699 0.89499 0.0
H363 H 0.87008 0.0276 0.88019 0.0
H364 H 0.89709 0.02143 0.87747 0.0
H365 H 0.88032 0.01249 0.81449 0.0
H366 H 0.89719 0.97686 0.77026 0.0
H367 H 0.9265 0.98954 0.70737 0.0
H368 H 0.56672 0.79403 0.0711 0.0
H369 H 0.56963 0.82451 0.00102 0.0
H370 H 0.51216 0.84717 0.07601 0.0
H371 H 0.50967 0.81728 0.1474 0.0
H372 H 0.54766 0.83832 0.90476 0.0
H373 H 0.5448 0.89843 0.09259 0.0
H374 H 0.54836 0.87165 0.11256 0.0
H375 H 0.52293 0.88191 0.10009 0.0
C376 C 0.55498 0.80577 0.07382 0.0
C377 C 0.5383 0.80355 0.11679 0.0
C378 C 0.55658 0.82319 0.0333 0.0
C379 C 0.54146 0.8387 0.03426 0.0
C380 C 0.52454 0.83607 0.07586 0.0
H381 H 0.49555 0.91534 0.74086 0.0
H382 H 0.50996 0.88818 0.80585 0.0
C383 C 0.52305 0.81885 0.11657 0.0
C384 C 0.54253 0.85701 0.98955 0.0
H385 H 0.53464 0.90911 0.98433 0.0
C386 C 0.54516 0.85382 0.92253 0.0
C387 C 0.53993 0.87751 0.01191 0.0
C388 C 0.5391 0.88259 0.08331 0.0
C389 C 0.54384 0.87015 0.87753 0.0
C390 C 0.5391 0.89032 0.89944 0.0
C391 C 0.53794 0.89374 0.96675 0.0
C392 C 0.5326 0.9072 0.85376 0.0
C393 C 0.54735 0.86543 0.80668 0.0
C394 C 0.54039 0.92748 0.85771 0.0
C395 C 0.53178 0.94354 0.81998 0.0
C396 C 0.51495 0.93975 0.77917 0.0
C397 C 0.50829 0.91919 0.77242 0.0
C398 C 0.51674 0.90334 0.80947 0.0
H399 H 0.55891 0.85301 0.80094 0.0
H400 H 0.53282 0.85983 0.7848 0.0
H401 H 0.55266 0.87917 0.77941 0.0
H402 H 0.55272 0.93101 0.89116 0.0
H403 H 0.53759 0.95896 0.82452 0.0
H404 H 0.69379 0.53357 0.17713 0.0
H405 H 0.66295 0.53537 0.10867 0.0
H406 H 0.70105 0.54037 0.93834 0.0
H407 H 0.73189 0.53827 0.00675 0.0
H408 H 0.6465 0.56276 0.01764 0.0
H409 H 0.66747 0.48913 0.89908 0.0
H410 H 0.68047 0.49847 0.97051 0.0
H411 H 0.68675 0.50871 0.89181 0.0
C412 C 0.69557 0.5353 0.12513 0.0
C413 C 0.71529 0.53542 0.09727 0.0
C414 C 0.6779 0.53634 0.08595 0.0
C415 C 0.67952 0.53751 0.01792 0.0
C416 C 0.69927 0.53896 0.99042 0.0
H417 H 0.59352 0.52073 0.69982 0.0
H418 H 0.62163 0.53376 0.76692 0.0
C419 C 0.71692 0.53791 0.02959 0.0
C420 C 0.66072 0.53596 0.97584 0.0
H421 H 0.63847 0.5064 0.85759 0.0
C422 C 0.64475 0.55043 0.98267 0.0
C423 C 0.6582 0.51981 0.93026 0.0
C424 C 0.67401 0.50302 0.92272 0.0
C425 C 0.62668 0.54934 0.94461 0.0
C426 C 0.62431 0.53325 0.89889 0.0
C427 C 0.64026 0.51885 0.89215 0.0
C428 C 0.60543 0.53052 0.85795 0.0
C429 C 0.6104 0.56559 0.95263 0.0
C430 C 0.58641 0.52531 0.88601 0.0
C431 C 0.57013 0.518 0.84722 0.0
C432 C 0.57252 0.51592 0.77963 0.0
C433 C 0.59095 0.52274 0.75141 0.0
C434 C 0.60717 0.52995 0.78996 0.0
H435 H 0.61633 0.57934 0.97863 0.0
H436 H 0.60434 0.57046 0.90461 0.0
H437 H 0.59744 0.55917 0.98108 0.0
H438 H 0.58467 0.52525 0.9383 0.0
H439 H 0.55644 0.51217 0.87073 0.0
H440 H 0.94984 0.71088 0.11661 0.0
H441 H 0.94787 0.68037 0.04617 0.0
H442 H 0.01311 0.68379 0.01351 0.0
H443 H 0.01515 0.71405 0.0837 0.0
H444 H 0.95868 0.67179 0.91574 0.0
H445 H 0.00549 0.62575 0.08556 0.0
H446 H 0.99462 0.65029 0.10757 0.0
H447 H 0.01823 0.6491 0.06231 0.0
C448 C 0.96371 0.7053 0.09369 0.0
C449 C 0.98266 0.71511 0.10529 0.0
C450 C 0.96257 0.6878 0.05342 0.0
C451 C 0.98039 0.67949 0.02505 0.0
C452 C -0.00084 0.68961 0.03542 0.0
H453 H 0.00056 0.59541 0.70721 0.0
H454 H 0.9888 0.62386 0.77391 0.0
C455 C 0.00029 0.70705 0.07523 0.0
C456 C 0.97978 0.65986 0.98672 0.0
H457 H 0.00223 0.61248 0.97804 0.0
C458 C 0.96798 0.65868 0.92968 0.0
C459 C 0.99141 0.64244 0.00545 0.0
C460 C 0.00297 0.64182 0.06894 0.0
C461 C 0.96825 0.641 0.88964 0.0
C462 C 0.98123 0.62413 0.90574 0.0
C463 C 0.99231 0.62515 0.96443 0.0
C464 C 0.98473 0.60587 0.86167 0.0
C465 C 0.95432 0.6407 0.83113 0.0
C466 C 0.98678 0.58581 0.88738 0.0
C467 C 0.99451 0.56959 0.8493 0.0
C468 C -0.00067 0.57262 0.78365 0.0
C469 C 0.99601 0.59226 0.75685 0.0
C470 C 0.98914 0.60867 0.79533 0.0
H471 H 0.94012 0.64969 0.8404 0.0
H472 H 0.96228 0.64809 0.78958 0.0
H473 H 0.94989 0.62481 0.81735 0.0
H474 H 0.98382 0.58297 0.93834 0.0
H475 H 0.99876 0.55536 0.87286 0.0
H476 H 0.0349 0.21849 0.43566 0.0
H477 H 0.027 0.18766 0.4987 0.0
H478 H 0.08359 0.1599 0.43513 0.0
H479 H 0.09151 0.19068 0.37171 0.0
H480 H 0.0273 0.15282 0.39716 0.0
H481 H 0.06951 0.13582 0.62642 0.0
H482 H 0.063 0.1618 0.60264 0.0
H483 H 0.08299 0.14832 0.56085 0.0
C484 C 0.04628 0.20637 0.43855 0.0
C485 C 0.06364 0.2067 0.39821 0.0
C486 C 0.0417 0.18873 0.47429 0.0
C487 C 0.05463 0.17154 0.4707 0.0
C488 C 0.07352 0.17311 0.43865 0.0
H489 H 0.03365 0.04391 0.56594 0.0
H490 H 0.04872 0.07428 0.51531 0.0
C491 C 0.07805 0.19069 0.40257 0.0
C492 C 0.04607 0.15099 0.48315 0.0
H493 H 0.04869 0.10946 0.58327 0.0
C494 C 0.03187 0.14331 0.43799 0.0
C495 C 0.05253 0.13864 0.53541 0.0
C496 C 0.0678 0.14645 0.58451 0.0
C497 C 0.02382 0.12345 0.44387 0.0
C498 C 0.02982 0.11119 0.49722 0.0
C499 C 0.04425 0.11884 0.54203 0.0
C500 C 0.02012 0.09114 0.51102 0.0
C501 C 0.00919 0.11578 0.39244 0.0
C502 C -0.00112 0.09008 0.52132 0.0
C503 C 0.99021 0.07259 0.54909 0.0
C504 C 0.00276 0.05611 0.56872 0.0
C505 C 0.02365 0.05637 0.55188 0.0
C506 C 0.0323 0.0738 0.52342 0.0
H507 H 0.01203 0.12346 0.34507 0.0
H508 H 0.01046 0.09889 0.38564 0.0
H509 H 0.99323 0.11945 0.40722 0.0
H510 H 0.98921 0.10336 0.51292 0.0
H511 H 0.974 0.07288 0.5608 0.0
H512 H 0.30593 0.01915 0.38521 0.0
H513 H 0.33682 0.01368 0.44903 0.0
H514 H 0.34496 0.07939 0.46626 0.0
H515 H 0.31447 0.08474 0.39839 0.0
H516 H 0.37667 0.06354 0.41255 0.0
H517 H 0.35979 0.01497 0.62499 0.0
H518 H 0.34906 0.00315 0.55433 0.0
H519 H 0.33967 0.0279 0.58067 0.0
C520 C 0.31373 0.03238 0.40569 0.0
C521 C 0.30789 0.05233 0.38787 0.0
C522 C 0.33141 0.02927 0.44232 0.0
C523 C 0.34322 0.04612 0.46296 0.0
C524 C 0.33607 0.06617 0.45092 0.0
H525 H 0.46641 0.04018 0.61533 0.0
H526 H 0.43528 0.05389 0.56703 0.0
C527 C 0.31857 0.06926 0.41293 0.0
C528 C 0.3646 0.04267 0.48476 0.0
H529 H 0.3941 0.01121 0.57877 0.0
C530 C 0.38045 0.05243 0.44997 0.0
C531 C 0.36961 0.0281 0.53326 0.0
C532 C 0.35356 0.01814 0.57575 0.0
C533 C 0.40108 0.04729 0.46033 0.0
C534 C 0.40586 0.0319 0.506 0.0
C535 C 0.39019 0.02267 0.54249 0.0
C536 C 0.42711 0.0255 0.51897 0.0
C537 C 0.41759 0.05783 0.42123 0.0
C538 C 0.43328 0.00533 0.50495 0.0
C539 C 0.45145 0.99759 0.53122 0.0
C540 C 0.46347 0.0099 0.57243 0.0
C541 C 0.45805 0.03062 0.5816 0.0
C542 C 0.44002 0.03839 0.55488 0.0
H543 H 0.41114 0.06713 0.38081 0.0
H544 H 0.4265 0.0682 0.45347 0.0
H545 H 0.42841 0.04632 0.40093 0.0
H546 H 0.42336 0.99519 0.47738 0.0
H547 H 0.45517 0.98152 0.52378 0.0
H548 H 0.48305 0.29713 0.44958 0.0
H549 H 0.48939 0.32897 0.50842 0.0
H550 H 0.4296 0.35128 0.45268 0.0
H551 H 0.4234 0.31949 0.39272 0.0
H552 H 0.46322 0.37068 0.39109 0.0
H553 H 0.47456 0.36793 0.65852 0.0
H554 H 0.48669 0.34756 0.61384 0.0
H555 H 0.45917 0.34918 0.61563 0.0
C556 C 0.47067 0.30817 0.45389 0.0
C557 C 0.45292 0.30614 0.41576 0.0
C558 C 0.47437 0.32649 0.48724 0.0
C559 C 0.4601 0.3426 0.48376 0.0
C560 C 0.44083 0.33903 0.45549 0.0
H561 H 0.47817 0.46974 0.57761 0.0
H562 H 0.46295 0.43829 0.53507 0.0
C563 C 0.43719 0.32076 0.42189 0.0
C564 C 0.46719 0.36396 0.49301 0.0
H565 H 0.48795 0.39721 0.60275 0.0
C566 C 0.46831 0.37661 0.43763 0.0
C567 C 0.47431 0.37138 0.5533 0.0
C568 C 0.47352 0.35838 0.61391 0.0
C569 C 0.47646 0.39651 0.44104 0.0
C570 C 0.48348 0.40388 0.50123 0.0
C571 C 0.48238 0.39135 0.55667 0.0
C572 C 0.49199 0.42467 0.50846 0.0
C573 C 0.47784 0.40952 0.38057 0.0
C574 C 0.51318 0.4278 0.50314 0.0
C575 C 0.52194 0.4459 0.52675 0.0
C576 C 0.50957 0.46085 0.55703 0.0
C577 C 0.48812 0.4586 0.55482 0.0
C578 C 0.47938 0.44054 0.53103 0.0
H579 H 0.47167 0.40149 0.33715 0.0
H580 H 0.46921 0.42406 0.38779 0.0
H581 H 0.49412 0.41368 0.37136 0.0
H582 H 0.52305 0.41563 0.48543 0.0
H583 H 0.53851 0.44722 0.52696 0.0
H584 H 0.20458 0.42947 0.41663 0.0
H585 H 0.17346 0.43458 0.48118 0.0
H586 H 0.18801 0.49902 0.49964 0.0
H587 H 0.21948 0.49374 0.43812 0.0
H588 H 0.16264 0.48571 0.5979 0.0
H589 H 0.13376 0.46196 0.35486 0.0
H590 H 0.1479 0.44244 0.39724 0.0
H591 H 0.16065 0.46561 0.37154 0.0
C592 C 0.20182 0.44437 0.43842 0.0
C593 C 0.21411 0.46131 0.42163 0.0
C594 C 0.18389 0.44737 0.47433 0.0
C595 C 0.17803 0.46736 0.49221 0.0
C596 C 0.19211 0.48353 0.48527 0.0
H597 H 0.06675 0.537 0.53417 0.0
H598 H 0.10022 0.52384 0.49986 0.0
C599 C 0.21022 0.48046 0.45056 0.0
C600 C 0.15622 0.47228 0.50454 0.0
H601 H 0.10916 0.47274 0.43087 0.0
C602 C 0.15091 0.48268 0.56177 0.0
C603 C 0.14106 0.46886 0.45616 0.0
C604 C 0.14609 0.4593 0.39122 0.0
C605 C 0.13078 0.48956 0.57215 0.0
C606 C 0.11572 0.48587 0.52417 0.0
C607 C 0.12088 0.47538 0.46735 0.0
C608 C 0.09443 0.49281 0.53286 0.0
C609 C 0.12566 0.50098 0.63384 0.0
C610 C 0.0799 0.47934 0.55909 0.0
C611 C 0.06085 0.48677 0.57885 0.0
C612 C 0.05602 0.50776 0.57238 0.0
C613 C 0.06995 0.52075 0.53988 0.0
C614 C 0.08911 0.51333 0.52066 0.0
H615 H 0.13873 0.50124 0.66851 0.0
H616 H 0.12143 0.51708 0.62184 0.0
H617 H 0.11221 0.49378 0.65797 0.0
H618 H 0.08384 0.46342 0.56854 0.0
H619 H 0.05083 0.47647 0.605 0.0
H620 H 0.99105 0.79777 0.01407 0.0
H621 H 0.99709 0.82902 0.9516 0.0
H622 H 0.93341 0.84581 0.97326 0.0
H623 H 0.92768 0.815 0.03933 0.0
H624 H 0.98486 0.8542 0.8544 0.0
H625 H 0.96153 0.8857 0.09463 0.0
H626 H 0.96413 0.85853 0.08015 0.0
H627 H 0.94168 0.87206 0.05235 0.0
C628 C 0.97809 0.80751 0.0022 0.0
C629 C 0.95903 0.80432 0.03214 0.0
C630 C 0.98158 0.82549 0.96698 0.0
C631 C 0.96589 0.84014 0.96064 0.0
C632 C 0.94587 0.83498 0.97982 0.0
H633 H 0.98025 0.96854 0.85969 0.0
H634 H 0.96608 0.93621 0.89926 0.0
C635 C 0.94249 0.81723 0.01648 0.0
C636 C 0.97152 0.86175 0.94699 0.0
H637 H 0.97404 0.90922 0.01804 0.0
C638 C 0.9823 0.86627 0.88982 0.0
C639 C 0.96859 0.87738 0.99424 0.0
C640 C 0.95854 0.87322 0.05905 0.0
C641 C 0.99025 0.886 0.87861 0.0
C642 C 0.98732 0.90148 0.92589 0.0
C643 C 0.9762 0.89718 0.98226 0.0
C644 C 0.99569 0.92231 0.91692 0.0
C645 C 0.0019 0.89015 0.81662 0.0
C646 C 0.01693 0.92561 0.91883 0.0
C647 C 0.02508 0.94424 0.89725 0.0
C648 C 0.01205 0.95968 0.87279 0.0
C649 C 0.99069 0.95708 0.87833 0.0
C650 C 0.98255 0.93849 0.90021 0.0
H651 H -0.0003 0.87772 0.78027 0.0
H652 H 0.99701 0.90499 0.79481 0.0
H653 H 0.01853 0.89129 0.82772 0.0
H654 H 0.02723 0.9133 0.93292 0.0
H655 H 0.04161 0.94579 0.8943 0.0
H656 H 0.71966 0.9871 0.01489 0.0
H657 H 0.68832 0.99182 0.95177 0.0
H658 H 0.67041 0.92934 0.99371 0.0
H659 H 0.70146 0.9249 0.05919 0.0
H660 H 0.66184 0.97503 0.85772 0.0
H661 H 0.63309 0.96436 0.11026 0.0
H662 H 0.66003 0.96608 0.09144 0.0
H663 H 0.64621 0.94265 0.07599 0.0
C664 C 0.70965 0.974 0.00727 0.0
C665 C 0.71264 0.95577 0.04242 0.0
C666 C 0.69165 0.97675 0.97164 0.0
C667 C 0.67675 0.96116 0.9705 0.0
C668 C 0.68155 0.94169 0.99565 0.0
H669 H 0.54581 0.98214 0.89566 0.0
H670 H 0.5777 0.96553 0.93234 0.0
C671 C 0.69939 0.93906 0.03222 0.0
C672 C 0.65522 0.96676 0.95669 0.0
H673 H 0.60919 0.97488 0.03217 0.0
C674 C 0.65023 0.9747 0.89545 0.0
C675 C 0.64024 0.9667 0.00674 0.0
C676 C 0.64511 0.95967 0.07499 0.0
C677 C 0.63067 0.98277 0.88302 0.0
C678 C 0.61589 0.98301 0.93339 0.0
C679 C 0.62062 0.97451 0.9939 0.0
C680 C 0.59591 0.99327 0.92472 0.0
C681 C 0.6261 0.9914 0.81649 0.0
C682 C 0.59534 0.01452 0.91433 0.0
C683 C 0.57742 0.02375 0.89206 0.0
C684 C 0.55984 0.01177 0.87928 0.0
C685 C 0.55957 0.99122 0.9002 0.0
C686 C 0.57766 0.98186 0.9219 0.0
H687 H 0.637 0.98554 0.77938 0.0
H688 H 0.61022 0.98754 0.80115 0.0
H689 H 0.62751 0.00841 0.81798 0.0
H690 H 0.60916 0.0237 0.91888 0.0
H691 H 0.57807 0.03988 0.879 0.0
H692 H 0.58539 0.70858 0.01488 0.0
H693 H 0.58084 0.67986 0.939 0.0
H694 H 0.51549 0.68155 0.97413 0.0
H695 H 0.52001 0.71091 0.0449 0.0
H696 H 0.57047 0.6461 0.98655 0.0
H697 H 0.51272 0.66047 0.79845 0.0
H698 H 0.52474 0.68146 0.84138 0.0
H699 H 0.502 0.66914 0.8734 0.0
C700 C 0.57001 0.70362 0.00246 0.0
C701 C 0.553 0.71189 0.03477 0.0
C702 C 0.56739 0.68708 0.95982 0.0
C703 C 0.54781 0.67839 0.95065 0.0
C704 C 0.53068 0.68816 0.97826 0.0
H705 H 0.48579 0.5654 0.91632 0.0
H706 H 0.50025 0.5985 0.94932 0.0
C707 C 0.53325 0.70497 0.01916 0.0
C708 C 0.5456 0.65702 0.92627 0.0
H709 H 0.51189 0.62565 0.84734 0.0
C710 C 0.55798 0.6417 0.95463 0.0
C711 C 0.5294 0.65111 0.88444 0.0
C712 C 0.51668 0.66653 0.84731 0.0
C713 C 0.55359 0.62075 0.94654 0.0
C714 C 0.5363 0.61501 0.90952 0.0
C715 C 0.52476 0.63018 0.87755 0.0
C716 C 0.52964 0.5934 0.90316 0.0
C717 C 0.56695 0.60499 0.9798 0.0
C718 C 0.54187 0.57919 0.86988 0.0
C719 C 0.53375 0.56018 0.85188 0.0
C720 C 0.51319 0.55525 0.86606 0.0
C721 C 0.50168 0.56874 0.9049 0.0
C722 C 0.50985 0.58771 0.92319 0.0
H723 H 0.5768 0.61199 0.01789 0.0
H724 H 0.55751 0.59266 0.00214 0.0
H725 H 0.57713 0.59779 0.94316 0.0
H726 H 0.55707 0.58339 0.85323 0.0
H727 H 0.54287 0.55045 0.82058 0.0
H728 H 0.82252 0.59174 0.07883 0.0
H729 H 0.85369 0.58738 0.01434 0.0
H730 H 0.83086 0.52923 0.94399 0.0
H731 H 0.79964 0.53372 0.00765 0.0
H732 H 0.87493 0.55364 0.06011 0.0
H733 H 0.86663 0.54852 0.7928 0.0
H734 H 0.84837 0.56199 0.84335 0.0
H735 H 0.84724 0.53445 0.83592 0.0
C736 C 0.82364 0.57869 0.0463 0.0
C737 C 0.80891 0.56293 0.04853 0.0
C738 C 0.84148 0.57615 0.00983 0.0
C739 C 0.84468 0.55787 0.97514 0.0
C740 C 0.82863 0.54355 0.96987 0.0
H741 H 0.94088 0.47609 0.87944 0.0
H742 H 0.91034 0.49269 0.92274 0.0
C743 C 0.81072 0.54615 0.00617 0.0
C744 C 0.86582 0.55137 0.95957 0.0
H745 H 0.89563 0.53098 0.83991 0.0
C746 C 0.87963 0.54914 0.01164 0.0
C747 C 0.87175 0.54519 0.89664 0.0
C748 C 0.85778 0.54782 0.83886 0.0
C749 C 0.89896 0.54016 0.00278 0.0
C750 C 0.90456 0.5334 0.94038 0.0
C751 C 0.89108 0.53615 0.88788 0.0
C752 C 0.92415 0.52286 0.92841 0.0
C753 C 0.91296 0.5371 0.06031 0.0
C754 C 0.94225 0.53421 0.92098 0.0
C755 C 0.95978 0.52477 0.89593 0.0
C756 C 0.95938 0.50398 0.87769 0.0
C757 C 0.94179 0.49222 0.89222 0.0
C758 C 0.92423 0.50167 0.91668 0.0
H759 H 0.90573 0.54203 0.10661 0.0
H760 H 0.91731 0.52063 0.06432 0.0
H761 H 0.92729 0.54605 0.05304 0.0
H762 H 0.94242 0.55061 0.93034 0.0
H763 H 0.97305 0.53405 0.88614 0.0
H764 H 0.01994 0.20923 0.16168 0.0
H765 H 0.01446 0.18007 0.08758 0.0
H766 H 0.07977 0.16982 0.07981 0.0
H767 H 0.08516 0.19861 0.15469 0.0
H768 H 0.02705 0.16888 0.96466 0.0
H769 H 0.05962 0.11463 0.1453 0.0
H770 H 0.0536 0.14098 0.16494 0.0
H771 H 0.0769 0.13486 0.12238 0.0
C772 C 0.03314 0.20121 0.14218 0.0
C773 C 0.05301 0.20648 0.16306 0.0
C774 C 0.03001 0.18435 0.10045 0.0
C775 C 0.04666 0.17229 0.0791 0.0
C776 C 0.06659 0.17844 0.09662 0.0
H777 H 0.04581 0.06358 0.81643 0.0
H778 H 0.05787 0.09304 0.88212 0.0
C779 C 0.06971 0.19518 0.13847 0.0
C780 C 0.04313 0.15293 0.0408 0.0
H781 H 0.05077 0.10067 0.04278 0.0
C782 C 0.03234 0.15402 0.98176 0.0
C783 C 0.04985 0.13334 0.06297 0.0
C784 C 0.06046 0.13076 0.12763 0.0
C785 C 0.02823 0.13627 0.94455 0.0
C786 C 0.03498 0.11679 0.96661 0.0
C787 C 0.04588 0.11562 0.02529 0.0
C788 C 0.029 0.09744 0.93211 0.0
C789 C 0.01641 0.13834 0.88193 0.0
C790 C 0.00907 0.0897 0.93985 0.0
C791 C 0.00224 0.07302 0.90277 0.0
C792 C 0.01516 0.06344 0.85699 0.0
C793 C 0.03556 0.07041 0.85173 0.0
C794 C 0.0424 0.08734 0.88892 0.0
H795 H 0.0144 0.15466 0.86725 0.0
H796 H 0.02441 0.12996 0.84236 0.0
H797 H 0.00101 0.13128 0.88784 0.0
H798 H 0.9985 0.09708 0.97308 0.0
H799 H 0.98647 0.06804 0.9083 0.0
H800 H 0.31088 0.01623 0.1657 0.0
H801 H 0.34045 0.01219 0.0934 0.0
H802 H 0.33986 0.07736 0.05457 0.0
H803 H 0.3106 0.08142 0.12884 0.0
H804 H 0.34935 0.01875 0.96961 0.0
H805 H 0.39771 0.07126 0.11676 0.0
H806 H 0.37267 0.06291 0.14317 0.0
H807 H 0.37512 0.08324 0.08432 0.0
C808 C 0.31658 0.02957 0.13979 0.0
C809 C 0.308 0.04905 0.15161 0.0
C810 C 0.33372 0.02731 0.09904 0.0
C811 C 0.34292 0.04452 0.06934 0.0
C812 C 0.33355 0.06386 0.07799 0.0
H813 H 0.45463 0.0475 0.81976 0.0
H814 H 0.42424 0.05839 0.88281 0.0
C815 C 0.31646 0.06613 0.11925 0.0
C816 C 0.36249 0.04203 0.03112 0.0
H817 H 0.41287 0.05746 0.02198 0.0
C818 C 0.36317 0.02732 0.98115 0.0
C819 C 0.38076 0.05311 0.04568 0.0
C820 C 0.38167 0.06837 0.10076 0.0
C821 C 0.38131 0.02332 0.946 0.0
C822 C 0.3996 0.03413 0.96119 0.0
C823 C 0.39891 0.04921 0.01 0.0
C824 C 0.41969 0.02888 0.92942 0.0
C825 C 0.38071 0.00743 0.89265 0.0
C826 C 0.42792 0.00907 0.93683 0.0
C827 C 0.44515 0.00292 0.90121 0.0
C828 C 0.45495 0.01646 0.85772 0.0
C829 C 0.44766 0.0368 0.85353 0.0
C830 C 0.43017 0.04296 0.88915 0.0
H831 H 0.36481 0.0047 0.87512 0.0
H832 H 0.39037 0.01219 0.85084 0.0
H833 H 0.38676 0.99265 0.9116 0.0
H834 H 0.42051 0.99802 0.96848 0.0
H835 H 0.45033 0.98714 0.9056 0.0
H836 H 0.46173 0.29684 0.10658 0.0
H837 H 0.46828 0.32427 0.02628 0.0
H838 H 0.48905 0.36419 0.17998 0.0
H839 H 0.48447 0.33677 0.25787 0.0
H840 H 0.45226 0.36087 0.00856 0.0
H841 H 0.53417 0.37448 0.06027 0.0
H842 H 0.5207 0.35268 0.09346 0.0
H843 H 0.51954 0.37743 0.1331 0.0
C844 C 0.46828 0.31127 0.12272 0.0
C845 C 0.47238 0.31448 0.18907 0.0
C846 C 0.47179 0.32709 0.07689 0.0
C847 C 0.47954 0.34644 0.09637 0.0
C848 C 0.48374 0.34943 0.16252 0.0
H849 H 0.49693 0.46832 0.91697 0.0
H850 H 0.48688 0.44021 0.9912 0.0
C851 C 0.48072 0.33365 0.20758 0.0
C852 C 0.48262 0.36385 0.04903 0.0
H853 H 0.51655 0.40174 0.00489 0.0
C854 C 0.46642 0.36962 0.00747 0.0
C855 C 0.50109 0.37551 0.04684 0.0
C856 C 0.51989 0.36954 0.08534 0.0
C857 C 0.46805 0.38675 0.96544 0.0
C858 C 0.48623 0.39866 0.96513 0.0
C859 C 0.50243 0.39289 0.00609 0.0
C860 C 0.48951 0.41617 0.91903 0.0
C861 C 0.45029 0.39218 0.92179 0.0
C862 C 0.49407 0.41211 0.85374 0.0
C863 C 0.50007 0.42802 0.81189 0.0
C864 C 0.50137 0.44849 0.83383 0.0
C865 C 0.4958 0.45278 0.8984 0.0
C866 C 0.49016 0.43671 0.94086 0.0
H867 H 0.4362 0.38341 0.93425 0.0
H868 H 0.44694 0.4089 0.92488 0.0
H869 H 0.45447 0.38871 0.8707 0.0
H870 H 0.49386 0.39646 0.83577 0.0
H871 H 0.50433 0.42421 0.76249 0.0
H872 H 0.17849 0.4804 0.26146 0.0
H873 H 0.15073 0.4827 0.18473 0.0
H874 H 0.1927 0.46984 0.02802 0.0
H875 H 0.22065 0.46507 0.10702 0.0
H876 H 0.14163 0.50678 0.09881 0.0
H877 H 0.14927 0.43239 0.97046 0.0
H878 H 0.16404 0.43828 0.04208 0.0
H879 H 0.17197 0.4478 0.96376 0.0
C880 C 0.18197 0.47727 0.21104 0.0
C881 C 0.20199 0.47161 0.19151 0.0
C882 C 0.16588 0.479 0.16652 0.0
C883 C 0.16912 0.47597 0.09983 0.0
C884 C 0.18933 0.47147 0.07917 0.0
H885 H 0.09087 0.50836 0.7761 0.0
H886 H 0.11861 0.49798 0.84886 0.0
C887 C 0.20551 0.46912 0.12446 0.0
C888 C 0.15128 0.47849 0.05348 0.0
H889 H 0.12559 0.45646 0.92545 0.0
C890 C 0.13813 0.49553 0.06159 0.0
C891 C 0.14629 0.46395 0.00435 0.0
C892 C 0.1585 0.44448 0.995 0.0
C893 C 0.12059 0.49849 0.02258 0.0
C894 C 0.11598 0.4843 0.97272 0.0
C895 C 0.12904 0.46732 0.96389 0.0
C896 C 0.09863 0.48797 0.92633 0.0
C897 C 0.10717 0.51703 0.03416 0.0
C898 C 0.07794 0.48529 0.94467 0.0
C899 C 0.06184 0.49102 0.9024 0.0
C900 C 0.0662 0.49986 0.84155 0.0
C901 C 0.08693 0.50175 0.82277 0.0
C902 C 0.10287 0.49576 0.8643 0.0
H903 H 0.11367 0.52753 0.07139 0.0
H904 H 0.10504 0.52572 0.98821 0.0
H905 H 0.09179 0.51188 0.05073 0.0
H906 H 0.07426 0.4793 0.99235 0.0
H907 H 0.0461 0.48946 0.91853 0.0
H908 H 0.9517 0.79997 0.33746 0.0
H909 H 0.95607 0.8284 0.41596 0.0
H910 H 0.99591 0.85967 0.28136 0.0
H911 H 0.99195 0.8315 0.20401 0.0
H912 H 0.0047 0.852 0.44609 0.0
H913 H 0.93755 0.89562 0.35075 0.0
H914 H 0.93747 0.86783 0.35397 0.0
H915 H 0.95334 0.8808 0.29599 0.0
C916 C 0.96174 0.81268 0.32536 0.0
C917 C 0.9714 0.81343 0.26429 0.0
C918 C 0.96407 0.82902 0.36992 0.0
C919 C 0.97613 0.84631 0.35418 0.0
C920 C 0.98642 0.84662 0.29449 0.0
H921 H 0.00659 0.96758 0.50686 0.0
H922 H 0.99662 0.93821 0.43803 0.0
C923 C 0.98415 0.83042 0.25035 0.0
C924 C 0.978 0.86433 0.39884 0.0
H925 H 0.95821 0.91223 0.42905 0.0
C926 C 0.99437 0.86504 0.44307 0.0
C927 C 0.96481 0.88156 0.39383 0.0
C928 C 0.94723 0.88162 0.34624 0.0
C929 C 0.99792 0.88249 0.48219 0.0
C930 C 0.98466 0.89972 0.47757 0.0
C931 C 0.9683 0.89904 0.43309 0.0
C932 C 0.9879 0.91855 0.51825 0.0
C933 C 0.01626 0.88265 0.52692 0.0
C934 C 0.98565 0.91763 0.58607 0.0
C935 C 0.99117 0.93442 0.62518 0.0
C936 C -0.00115 0.95262 0.59741 0.0
C937 C 0.00022 0.95394 0.52941 0.0
C938 C 0.99466 0.93711 0.49014 0.0
H939 H 0.02707 0.86989 0.5162 0.0
H940 H 0.02464 0.89747 0.52293 0.0
H941 H 0.01097 0.88099 0.57787 0.0
H942 H 0.98035 0.9036 0.609 0.0
H943 H 0.99035 0.93283 0.6775 0.0
H944 H 0.69267 0.9964 0.22437 0.0
H945 H 0.66353 0.00017 0.29821 0.0
H946 H 0.68451 0.94769 0.40775 0.0
H947 H 0.71399 0.94411 0.3338 0.0
H948 H 0.63274 0.97277 0.31681 0.0
H949 H 0.67126 0.98765 0.55267 0.0
H950 H 0.68462 0.98941 0.47614 0.0
H951 H 0.67958 0.96471 0.51196 0.0
C952 C 0.69145 0.9861 0.26558 0.0
C953 C 0.70593 0.97027 0.27418 0.0
C954 C 0.67462 0.9881 0.30739 0.0
C955 C 0.6717 0.97433 0.35919 0.0
C956 C 0.68651 0.95882 0.36917 0.0
H957 H 0.56903 0.97217 0.64322 0.0
H958 H 0.59747 0.96034 0.57348 0.0
C959 C 0.70348 0.95683 0.32714 0.0
C960 C 0.65262 0.97578 0.39992 0.0
H961 H 0.63521 0.98392 0.55482 0.0
C962 C 0.63336 0.97514 0.36891 0.0
C963 C 0.65318 0.97873 0.46811 0.0
C964 C 0.67324 0.98035 0.50432 0.0
C965 C 0.61488 0.97768 0.40368 0.0
C966 C 0.61549 0.98115 0.47152 0.0
C967 C 0.63466 0.98115 0.50293 0.0
C968 C 0.5967 0.98678 0.50958 0.0
C969 C 0.59479 0.97672 0.3674 0.0
C970 C 0.58653 0.00537 0.49656 0.0
C971 C 0.57052 0.01217 0.53654 0.0
C972 C 0.56396 0.00044 0.59011 0.0
C973 C 0.57344 0.98134 0.60156 0.0
C974 C 0.58982 0.97468 0.56206 0.0
H975 H 0.59638 0.96837 0.32061 0.0
H976 H 0.58277 0.96905 0.39701 0.0
H977 H 0.58955 0.99259 0.35654 0.0
H978 H 0.59163 0.01515 0.45714 0.0
H979 H 0.5637 0.02707 0.52694 0.0
H980 H 0.52408 0.68729 0.21834 0.0
H981 H 0.52115 0.65906 0.29598 0.0
H982 H 0.56878 0.68615 0.41314 0.0
H983 H 0.57207 0.71465 0.33412 0.0
H984 H 0.56738 0.63555 0.35838 0.0
H985 H 0.5035 0.66731 0.50715 0.0
H986 H 0.50386 0.67227 0.42098 0.0
H987 H 0.52298 0.68371 0.47203 0.0
C988 C 0.53382 0.68745 0.261 0.0
C989 C 0.54835 0.7033 0.26986 0.0
C990 C 0.53217 0.6712 0.30521 0.0
C991 C 0.54488 0.6703 0.36001 0.0
C992 C 0.55892 0.68644 0.37082 0.0
H993 H 0.5477 0.56235 0.62766 0.0
H994 H 0.55949 0.5918 0.56193 0.0
C995 C 0.56061 0.70285 0.32614 0.0
C996 C 0.54309 0.65235 0.40506 0.0
H997 H 0.51199 0.63247 0.52305 0.0
C998 C 0.55555 0.63496 0.39533 0.0
C999 C 0.52745 0.65144 0.45241 0.0
C1000 C 0.51363 0.66964 0.46438 0.0
C1001 C 0.55231 0.61652 0.43039 0.0
C1002 C 0.5363 0.61548 0.47687 0.0
C1003 C 0.52427 0.63314 0.48762 0.0
C1004 C 0.53057 0.59601 0.51166 0.0
C1005 C 0.56535 0.59798 0.41512 0.0
C1006 C 0.51056 0.58825 0.50504 0.0
C1007 C 0.50384 0.57166 0.54272 0.0
C1008 C 0.51695 0.56213 0.58792 0.0
C1009 C 0.53736 0.5691 0.59243 0.0
C1010 C 0.54407 0.58599 0.55491 0.0
H1011 H 0.57444 0.60012 0.36999 0.0
H1012 H 0.57618 0.59522 0.45576 0.0
H1013 H 0.55562 0.58406 0.40972 0.0
H1014 H 0.49984 0.59552 0.47199 0.0
H1015 H 0.48803 0.56669 0.53809 0.0
H1016 H 0.8156 0.58078 0.29926 0.0
H1017 H 0.84522 0.57537 0.3711 0.0
H1018 H 0.83972 0.50988 0.34402 0.0
H1019 H 0.81005 0.51533 0.27223 0.0
H1020 H 0.85272 0.55232 0.48689 0.0
H1021 H 0.89842 0.52299 0.27988 0.0
H1022 H 0.87431 0.53623 0.26916 0.0
H1023 H 0.87464 0.50955 0.29214 0.0
C1024 C 0.82021 0.5652 0.31085 0.0
C1025 C 0.8101 0.54845 0.2815 0.0
C1026 C 0.83733 0.56211 0.35129 0.0
C1027 C 0.84504 0.54223 0.36236 0.0
C1028 C 0.83431 0.52541 0.33573 0.0
H1029 H 0.94389 0.4815 0.55662 0.0
H1030 H 0.91582 0.49348 0.48863 0.0
C1031 C 0.81708 0.52849 0.29566 0.0
C1032 C 0.86473 0.53914 0.39907 0.0
H1033 H 0.91324 0.51934 0.38477 0.0
C1034 C 0.86601 0.54525 0.46445 0.0
C1035 C 0.88229 0.53022 0.36975 0.0
C1036 C 0.88251 0.52454 0.29872 0.0
C1037 C 0.88385 0.54171 0.50198 0.0
C1038 C 0.90117 0.53211 0.47325 0.0
C1039 C 0.90008 0.52665 0.40721 0.0
C1040 C 0.91966 0.52566 0.51203 0.0
C1041 C 0.88366 0.54747 0.57291 0.0
C1042 C 0.93193 0.53976 0.54688 0.0
C1043 C 0.94835 0.53287 0.58622 0.0
C1044 C 0.95272 0.51172 0.59167 0.0
C1045 C 0.94094 0.49788 0.55436 0.0
C1046 C 0.92479 0.50473 0.51512 0.0
H1047 H 0.86792 0.55092 0.59055 0.0
H1048 H 0.89018 0.53489 0.603 0.0
H1049 H 0.89324 0.56138 0.58021 0.0
H1050 H 0.92866 0.55606 0.54444 0.0
H1051 H 0.95702 0.54396 0.61425 0.0
loop_
_geom_bond_atom_site_label_1
_geom_bond_atom_site_label_2
_geom_bond_distance
_geom_bond_site_symmetry_2
_ccdc_geom_bond_type
H0 C7 0.929 . S
H1 C10 0.930 . S
H2 C12 0.929 . S
H3 C4 0.969 . S
C4 H3 0.969 . S
C4 O5 1.550 . S
C4 H6 0.973 . S
O5 C4 1.550 . S
O5 C11 1.412 . S
H6 C4 0.973 . S
C7 H0 0.929 . S
C7 C8 1.400 . S
C7 C9 1.364 . S
C8 C7 1.400 . S
C8 C12 1.377 . S
C9 C7 1.364 . S
C9 C10 1.374 . S
C10 H1 0.930 . S
C10 C9 1.374 . S
C10 C11 1.383 . S
C11 O5 1.412 . S
C11 C10 1.383 . S
C11 C12 1.394 . S
C12 H2 0.929 . S
C12 C8 1.377 . S
C12 C11 1.394 . S
H13 C20 0.929 . S
H14 C23 0.930 . S
H15 C25 0.929 . S
H16 C17 0.969 . S
C17 H16 0.969 . S
C17 O18 1.550 . S
C17 H19 0.973 . S
O18 C17 1.550 . S
O18 C24 1.412 . S
H19 C17 0.973 . S
C20 H13 0.929 . S
C20 C21 1.400 . S
C20 C22 1.364 . S
C21 C20 1.400 . S
C21 C25 1.377 . S
C22 C20 1.364 . S
C22 C23 1.374 . S
C23 H14 0.930 . S
C23 C22 1.374 . S
C23 C24 1.383 . S
C24 O18 1.412 . S
C24 C23 1.383 . S
C24 C25 1.394 . S
C25 H15 0.929 . S
C25 C21 1.377 . S
C25 C24 1.394 . S
H26 C33 0.929 . S
H27 C36 0.930 . S
H28 C38 0.929 . S
H29 C30 0.969 . S
C30 H29 0.969 . S
C30 O31 1.550 . S
C30 H32 0.973 . S
O31 C30 1.550 . S
O31 C37 1.412 . S
H32 C30 0.973 . S
C33 H26 0.929 . S
C33 C34 1.400 . S
C33 C35 1.364 . S
C34 C33 1.400 . S
C34 C38 1.377 . S
C35 C33 1.364 . S
C35 C36 1.374 . S
C36 H27 0.930 . S
C36 C35 1.374 . S
C36 C37 1.383 . S
C37 O31 1.412 . S
C37 C36 1.383 . S
C37 C38 1.394 . S
C38 H28 0.929 . S
C38 C34 1.377 . S
C38 C37 1.394 . S
H39 C46 0.929 . S
H40 C49 0.930 . S
H41 C51 0.929 . S
H42 C43 0.969 . S
C43 H42 0.969 . S
C43 O44 1.550 . S
C43 H45 0.973 . S
O44 C43 1.550 . S
O44 C50 1.412 . S
H45 C43 0.973 . S
C46 H39 0.929 . S
C46 C47 1.400 . S
C46 C48 1.364 . S
C47 C46 1.400 . S
C47 C51 1.377 . S
C48 C46 1.364 . S
C48 C49 1.374 . S
C49 H40 0.930 . S
C49 C48 1.374 . S
C49 C50 1.383 . S
C50 O44 1.412 . S
C50 C49 1.383 . S
C50 C51 1.394 . S
C51 H41 0.929 . S
C51 C47 1.377 . S
C51 C50 1.394 . S
H52 C59 0.929 . S
H53 C62 0.930 . S
H54 C64 0.929 . S
H55 C56 0.969 . S
C56 H55 0.969 . S
C56 O57 1.550 . S
C56 H58 0.973 . S
O57 C56 1.550 . S
O57 C63 1.412 . S
H58 C56 0.973 . S
C59 H52 0.929 . S
C59 C60 1.400 . S
C59 C61 1.364 . S
C60 C59 1.400 . S
C60 C64 1.377 . S
C61 C59 1.364 . S
C61 C62 1.374 . S
C62 H53 0.930 . S
C62 C61 1.374 . S
C62 C63 1.383 . S
C63 O57 1.412 . S
C63 C62 1.383 . S
C63 C64 1.394 . S
C64 H54 0.929 . S
C64 C60 1.377 . S
C64 C63 1.394 . S
H65 C72 0.929 . S
H66 C75 0.930 . S
H67 C77 0.929 . S
H68 C69 0.969 . S
C69 H68 0.969 . S
C69 O70 1.550 . S
C69 H71 0.973 . S
O70 C69 1.550 . S
O70 C76 1.412 . S
H71 C69 0.973 . S
C72 H65 0.929 . S
C72 C73 1.400 . S
C72 C74 1.364 . S
C73 C72 1.400 . S
C73 C77 1.377 . S
C74 C72 1.364 . S
C74 C75 1.374 . S
C75 H66 0.930 . S
C75 C74 1.374 . S
C75 C76 1.383 . S
C76 O70 1.412 . S
C76 C75 1.383 . S
C76 C77 1.394 . S
C77 H67 0.929 . S
C77 C73 1.377 . S
C77 C76 1.394 . S
H78 C85 0.929 . S
H79 C88 0.930 . S
H80 C90 0.929 . S
H81 C82 0.969 . S
C82 H81 0.969 . S
C82 O83 1.550 . S
C82 H84 0.973 . S
O83 C82 1.550 . S
O83 C89 1.412 . S
H84 C82 0.973 . S
C85 H78 0.929 . S
C85 C86 1.400 . S
C85 C87 1.364 . S
C86 C85 1.400 . S
C86 C90 1.377 . S
C87 C85 1.364 . S
C87 C88 1.374 . S
C88 H79 0.930 . S
C88 C87 1.374 . S
C88 C89 1.383 . S
C89 O83 1.412 . S
C89 C88 1.383 . S
C89 C90 1.394 . S
C90 H80 0.929 . S
C90 C86 1.377 . S
C90 C89 1.394 . S
H91 C98 0.929 . S
H92 C101 0.930 . S
H93 C103 0.929 . S
H94 C95 0.969 . S
C95 H94 0.969 . S
C95 O96 1.550 . S
C95 H97 0.973 . S
O96 C95 1.550 . S
O96 C102 1.412 . S
H97 C95 0.973 . S
C98 H91 0.929 . S
C98 C99 1.400 . S
C98 C100 1.364 . S
C99 C98 1.400 . S
C99 C103 1.377 . S
C100 C98 1.364 . S
C100 C101 1.374 . S
C101 H92 0.930 . S
C101 C100 1.374 . S
C101 C102 1.383 . S
C102 O96 1.412 . S
C102 C101 1.383 . S
C102 C103 1.394 . S
C103 H93 0.929 . S
C103 C99 1.377 . S
C103 C102 1.394 . S
O104 Mn105 2.163 . S
O104 C118 1.244 . S
Mn105 O104 2.163 . S
Mn105 O108 2.160 1_445 S
Mn105 O109 2.221 . S
Mn105 O111 2.163 1_545 S
Mn105 O113 2.160 . S
Mn105 O123 2.221 1_455 S
O106 Mn107 2.099 . S
O106 C118 1.242 1_655 S
Mn107 O106 2.099 . S
Mn107 O114 2.089 . S
Mn107 O123 2.290 . S
Mn107 O124 2.251 . S
O108 Mn105 2.160 1_665 S
O108 C119 1.239 1_655 S
O109 Mn105 2.221 . S
O109 Mn110 2.290 1_545 S
O109 C120 1.278 . S
Mn110 O109 2.290 1_565 S
Mn110 O112 2.089 . S
Mn110 O115 2.251 . S
Mn110 O116 2.087 . S
O111 Mn105 2.163 1_565 S
O111 C121 1.244 . S
O112 Mn110 2.089 . S
O112 C119 1.256 . S
O113 Mn105 2.160 . S
O113 C122 1.239 . S
O114 Mn107 2.089 . S
O114 C122 1.256 1_655 S
O115 Mn110 2.251 . S
O115 C120 1.241 1_565 S
O116 Mn110 2.087 . S
O116 C121 1.256 . S
C117 O123 1.278 . S
C117 O124 1.241 . S
C118 O104 1.244 . S
C118 O106 1.242 1_455 S
C119 O108 1.239 1_455 S
C119 O112 1.256 . S
C120 O109 1.278 . S
C120 O115 1.241 1_545 S
C121 O111 1.244 . S
C121 O116 1.256 . S
C122 O113 1.239 . S
C122 O114 1.256 1_455 S
O123 Mn105 2.221 1_655 S
O123 Mn107 2.290 . S
O123 C117 1.278 . S
O124 Mn107 2.251 . S
O124 C117 1.241 . S
O125 Mn126 2.163 . S
O125 C139 1.244 . S
Mn126 O125 2.163 . S
Mn126 O129 2.160 . S
Mn126 O130 2.221 1_545 S
Mn126 O132 2.163 . S
Mn126 O134 2.160 1_545 S
Mn126 O144 2.221 . S
O127 Mn128 2.087 . S
O127 C139 1.256 . S
Mn128 O127 2.087 . S
Mn128 O135 2.089 . S
Mn128 O144 2.290 . S
Mn128 O145 2.251 . S
O129 Mn126 2.160 . S
O129 C140 1.239 . S
O130 Mn126 2.221 1_565 S
O130 Mn131 2.290 . S
O130 C141 1.278 . S
Mn131 O130 2.290 . S
Mn131 O133 2.089 . S
Mn131 O136 2.251 . S
Mn131 O137 2.087 . S
O132 Mn126 2.163 . S
O132 C142 1.244 . S
O133 Mn131 2.089 . S
O133 C140 1.256 1_565 S
O134 Mn126 2.160 1_565 S
O134 C143 1.244 . S
O135 Mn128 2.089 . S
O135 C143 1.235 1_545 S
O136 Mn131 2.251 . S
O136 C141 1.241 . S
O137 Mn131 2.087 . S
O137 C142 1.256 1_565 S
C138 O144 1.278 . S
C138 O145 1.241 . S
C139 O125 1.244 . S
C139 O127 1.256 . S
C140 O129 1.239 . S
C140 O133 1.256 1_545 S
C141 O130 1.278 . S
C141 O136 1.241 . S
C142 O132 1.244 . S
C142 O137 1.256 1_545 S
C143 O134 1.244 . S
C143 O135 1.235 1_565 S
O144 Mn126 2.221 . S
O144 Mn128 2.290 . S
O144 C138 1.278 . S
O145 Mn128 2.251 . S
O145 C138 1.241 . S
O146 Mn147 2.163 . S
O146 C160 1.244 . S
Mn147 O146 2.163 . S
Mn147 O150 2.160 . S
Mn147 O151 2.221 . S
Mn147 O153 2.163 . S
Mn147 O155 2.160 . S
Mn147 O165 2.221 . S
O148 Mn149 2.087 . S
O148 C160 1.256 . S
Mn149 O148 2.087 . S
Mn149 O156 2.089 . S
Mn149 O165 2.290 . S
Mn149 O166 2.251 . S
O150 Mn147 2.160 . S
O150 C161 1.239 . S
O151 Mn147 2.221 . S
O151 Mn152 2.290 . S
O151 C162 1.278 . S
Mn152 O151 2.290 . S
Mn152 O154 2.089 . S
Mn152 O157 2.251 . S
Mn152 O158 2.087 . S
O153 Mn147 2.163 . S
O153 C163 1.244 . S
O154 Mn152 2.089 . S
O154 C161 1.256 . S
O155 Mn147 2.160 . S
O155 C164 1.239 . S
O156 Mn149 2.089 . S
O156 C164 1.256 . S
O157 Mn152 2.251 . S
O157 C162 1.241 . S
O158 Mn152 2.087 . S
O158 C163 1.256 . S
C159 O165 1.278 . S
C159 O166 1.241 . S
C160 O146 1.244 . S
C160 O148 1.256 . S
C161 O150 1.239 . S
C161 O154 1.256 . S
C162 O151 1.278 . S
C162 O157 1.241 . S
C163 O153 1.244 . S
C163 O158 1.256 . S
C164 O155 1.239 . S
C164 O156 1.256 . S
O165 Mn147 2.221 . S
O165 Mn149 2.290 . S
O165 C159 1.278 . S
O166 Mn149 2.251 . S
O166 C159 1.241 . S
O167 Mn168 2.163 . S
O167 C181 1.244 . S
Mn168 O167 2.163 . S
Mn168 O171 2.160 1_455 S
Mn168 O172 2.221 . S
Mn168 O174 2.163 1_455 S
Mn168 O176 2.160 . S
Mn168 O186 2.221 . S
O169 Mn170 2.087 . S
O169 C181 1.256 . S
Mn170 O169 2.087 . S
Mn170 O177 2.089 . S
Mn170 O186 2.290 . S
Mn170 O187 2.251 . S
O171 Mn168 2.160 1_655 S
O171 C182 1.239 . S
O172 Mn168 2.221 . S
O172 Mn173 2.290 1_455 S
O172 C183 1.278 . S
Mn173 O172 2.290 1_655 S
Mn173 O175 2.089 . S
Mn173 O178 2.251 . S
Mn173 O179 2.087 . S
O174 Mn168 2.163 1_655 S
O174 C184 1.244 . S
O175 Mn173 2.089 . S
O175 C182 1.256 . S
O176 Mn168 2.160 . S
O176 C185 1.239 . S
O177 Mn170 2.089 . S
O177 C185 1.256 . S
O178 Mn173 2.251 . S
O178 C183 1.241 1_655 S
O179 Mn173 2.087 . S
O179 C184 1.256 . S
C180 O186 1.278 . S
C180 O187 1.241 . S
C181 O167 1.244 . S
C181 O169 1.256 . S
C182 O171 1.239 . S
C182 O175 1.256 . S
C183 O172 1.278 . S
C183 O178 1.241 1_455 S
C184 O174 1.244 . S
C184 O179 1.256 . S
C185 O176 1.239 . S
C185 O177 1.256 . S
O186 Mn168 2.221 . S
O186 Mn170 2.290 . S
O186 C180 1.278 . S
O187 Mn170 2.251 . S
O187 C180 1.241 . S
H188 C196 0.929 . S
H189 C198 0.930 . S
H190 C200 0.930 . S
H191 C203 0.929 . S
H192 C206 0.930 . S
H193 C208 0.960 . S
H194 C208 0.960 . S
H195 C208 0.960 . S
C196 H188 0.929 . S
C196 C197 1.377 . S
C196 C198 1.384 . S
C197 C196 1.377 . S
C197 C203 1.390 . S
C198 H189 0.930 . S
C198 C196 1.384 . S
C198 C199 1.372 . S
C199 C198 1.372 . S
C199 C200 1.400 . S
C199 C204 1.490 . S
C200 H190 0.930 . S
C200 C199 1.400 . S
C200 C203 1.386 . S
H201 C217 0.930 . S
H202 C218 0.931 . S
C203 H191 0.929 . S
C203 C197 1.390 . S
C203 C200 1.386 . S
C204 C199 1.490 . S
C204 C206 1.395 . S
C204 C207 1.403 . S
H205 C211 0.930 . S
C206 H192 0.930 . S
C206 C204 1.395 . S
C206 C209 1.403 . S
C207 C204 1.403 . S
C207 C208 1.524 . S
C207 C211 1.400 . S
C208 H193 0.960 . S
C208 H194 0.960 . S
C208 H195 0.960 . S
C208 C207 1.524 . S
C209 C206 1.403 . S
C209 C210 1.392 . S
C209 C213 1.495 1_545 S
C210 C209 1.392 . S
C210 C211 1.385 . S
C210 C212 1.478 . S
C211 H205 0.930 . S
C211 C207 1.400 . S
C211 C210 1.385 . S
C212 C210 1.478 . S
C212 C214 1.381 . S
C212 C218 1.383 . S
C213 C209 1.495 1_565 S
C213 H219 0.959 . S
C213 H220 0.961 . S
C213 H221 0.960 . S
C214 C212 1.381 . S
C214 C215 1.394 . S
C214 H222 0.926 1_545 S
C215 C214 1.394 . S
C215 C216 1.383 . S
C215 H223 0.929 1_545 S
C216 C215 1.383 . S
C216 C217 1.377 . S
C217 H201 0.930 . S
C217 C216 1.377 . S
C217 C218 1.379 . S
C218 H202 0.931 . S
C218 C212 1.383 . S
C218 C217 1.379 . S
H219 C213 0.959 . S
H220 C213 0.961 . S
H221 C213 0.960 . S
H222 C214 0.926 1_565 S
H223 C215 0.929 1_565 S
H224 C232 0.929 . S
H225 C234 0.930 . S
H226 C236 0.930 . S
H227 C239 0.929 . S
H228 C242 0.930 . S
H229 C244 0.960 . S
H230 C244 0.960 . S
H231 C244 0.960 . S
C232 H224 0.929 . S
C232 C233 1.377 . S
C232 C234 1.384 . S
C233 C232 1.377 . S
C233 C239 1.390 . S
C234 H225 0.930 . S
C234 C232 1.384 . S
C234 C235 1.372 . S
C235 C234 1.372 . S
C235 C236 1.400 . S
C235 C240 1.490 . S
C236 H226 0.930 . S
C236 C235 1.400 . S
C236 C239 1.386 . S
H237 C253 0.930 . S
H238 C254 0.931 . S
C239 H227 0.929 . S
C239 C233 1.390 . S
C239 C236 1.386 . S
C240 C235 1.490 . S
C240 C242 1.395 . S
C240 C243 1.403 . S
H241 C247 0.930 . S
C242 H228 0.930 . S
C242 C240 1.395 . S
C242 C245 1.403 . S
C243 C240 1.403 . S
C243 C244 1.524 . S
C243 C247 1.400 . S
C244 H229 0.960 . S
C244 H230 0.960 . S
C244 H231 0.960 . S
C244 C243 1.524 . S
C245 C242 1.403 . S
C245 C246 1.392 . S
C245 C249 1.495 . S
C246 C245 1.392 . S
C246 C247 1.385 . S
C246 C248 1.478 . S
C247 H241 0.930 . S
C247 C243 1.400 . S
C247 C246 1.385 . S
C248 C246 1.478 . S
C248 C250 1.381 . S
C248 C254 1.383 . S
C249 C245 1.495 . S
C249 H255 0.959 . S
C249 H256 0.961 . S
C249 H257 0.960 . S
C250 C248 1.381 . S
C250 C251 1.394 . S
C250 H258 0.930 . S
C251 C250 1.394 . S
C251 C252 1.383 . S
C251 H259 0.929 . S
C252 C251 1.383 . S
C252 C253 1.377 . S
C253 H237 0.930 . S
C253 C252 1.377 . S
C253 C254 1.379 . S
C254 H238 0.931 . S
C254 C248 1.383 . S
C254 C253 1.379 . S
H255 C249 0.959 . S
H256 C249 0.961 . S
H257 C249 0.960 . S
H258 C250 0.930 . S
H259 C251 0.929 . S
H260 C268 0.929 . S
H261 C270 0.930 . S
H262 C272 0.930 . S
H263 C275 0.929 . S
H264 C278 0.930 . S
H265 C280 0.960 . S
H266 C280 0.960 . S
H267 C280 0.960 . S
C268 H260 0.929 . S
C268 C269 1.377 . S
C268 C270 1.384 . S
C269 C268 1.377 . S
C269 C275 1.390 . S
C270 H261 0.930 . S
C270 C268 1.384 . S
C270 C271 1.372 . S
C271 C270 1.372 . S
C271 C272 1.400 . S
C271 C276 1.490 . S
C272 H262 0.930 . S
C272 C271 1.400 . S
C272 C275 1.386 . S
H273 C289 0.930 . S
H274 C290 0.931 . S
C275 H263 0.929 . S
C275 C269 1.390 . S
C275 C272 1.386 . S
C276 C271 1.490 . S
C276 C278 1.395 . S
C276 C279 1.403 . S
H277 C283 0.930 . S
C278 H264 0.930 . S
C278 C276 1.395 . S
C278 C281 1.403 . S
C279 C276 1.403 . S
C279 C280 1.524 . S
C279 C283 1.400 . S
C280 H265 0.960 . S
C280 H266 0.960 . S
C280 H267 0.960 . S
C280 C279 1.524 . S
C281 C278 1.403 . S
C281 C282 1.392 . S
C281 C285 1.495 . S
C282 C281 1.392 . S
C282 C283 1.385 . S
C282 C284 1.478 . S
C283 H277 0.930 . S
C283 C279 1.400 . S
C283 C282 1.385 . S
C284 C282 1.478 . S
C284 C286 1.381 . S
C284 C290 1.383 . S
C285 C281 1.495 . S
C285 H291 0.959 . S
C285 H292 0.961 . S
C285 H293 0.960 . S
C286 C284 1.381 . S
C286 C287 1.394 . S
C286 H294 0.930 . S
C287 C286 1.394 . S
C287 C288 1.383 . S
C287 H295 0.929 . S
C288 C287 1.383 . S
C288 C289 1.377 . S
C289 H273 0.930 . S
C289 C288 1.377 . S
C289 C290 1.379 . S
C290 H274 0.931 . S
C290 C284 1.383 . S
C290 C289 1.379 . S
H291 C285 0.959 . S
H292 C285 0.961 . S
H293 C285 0.960 . S
H294 C286 0.930 . S
H295 C287 0.929 . S
H296 C304 0.929 . S
H297 C306 0.930 . S
H298 C308 0.930 . S
H299 C311 0.929 . S
H300 C314 0.930 . S
H301 C316 0.963 . S
H302 C316 0.961 . S
H303 C316 0.959 1_455 S
C304 H296 0.929 . S
C304 C305 1.377 . S
C304 C306 1.384 . S
C305 C304 1.377 . S
C305 C311 1.390 . S
C306 H297 0.930 . S
C306 C304 1.384 . S
C306 C307 1.372 . S
C307 C306 1.372 . S
C307 C308 1.400 . S
C307 C312 1.490 . S
C308 H298 0.930 . S
C308 C307 1.400 . S
C308 C311 1.386 . S
H309 C325 0.930 . S
H310 C326 0.931 . S
C311 H299 0.929 . S
C311 C305 1.390 . S
C311 C308 1.386 . S
C312 C307 1.490 . S
C312 C314 1.395 . S
C312 C315 1.403 . S
H313 C319 0.930 . S
C314 H300 0.930 . S
C314 C312 1.395 . S
C314 C317 1.403 . S
C315 C312 1.403 . S
C315 C316 1.521 1_455 S
C315 C319 1.400 . S
C316 H301 0.963 . S
C316 H302 0.961 . S
C316 H303 0.959 1_655 S
C316 C315 1.521 1_655 S
C317 C314 1.403 . S
C317 C318 1.392 . S
C317 C321 1.495 . S
C318 C317 1.392 . S
C318 C319 1.385 . S
C318 C320 1.478 . S
C319 H313 0.930 . S
C319 C315 1.400 . S
C319 C318 1.385 . S
C320 C318 1.478 . S
C320 C322 1.381 . S
C320 C326 1.383 . S
C321 C317 1.495 . S
C321 H327 0.959 . S
C321 H328 0.961 . S
C321 H329 0.960 . S
C322 C320 1.381 . S
C322 C323 1.394 . S
C322 H330 0.930 . S
C323 C322 1.394 . S
C323 C324 1.383 . S
C323 H331 0.929 . S
C324 C323 1.383 . S
C324 C325 1.377 . S
C325 H309 0.930 . S
C325 C324 1.377 . S
C325 C326 1.379 . S
C326 H310 0.931 . S
C326 C320 1.383 . S
C326 C325 1.379 . S
H327 C321 0.959 . S
H328 C321 0.961 . S
H329 C321 0.960 . S
H330 C322 0.930 . S
H331 C323 0.929 . S
H332 C340 0.929 . S
H333 C342 0.930 . S
H334 C344 0.930 . S
H335 C347 0.929 . S
H336 C350 0.930 . S
H337 C352 0.960 . S
H338 C352 0.960 . S
H339 C352 0.960 1_554 S
C340 H332 0.929 . S
C340 C341 1.377 1_556 S
C340 C342 1.384 . S
C341 C340 1.377 1_554 S
C341 C347 1.390 . S
C342 H333 0.930 . S
C342 C340 1.384 . S
C342 C343 1.372 . S
C343 C342 1.372 . S
C343 C344 1.400 1_556 S
C343 C348 1.490 . S
C344 H334 0.930 . S
C344 C343 1.400 1_554 S
C344 C347 1.386 . S
H345 C361 0.929 . S
H346 C362 0.931 . S
C347 H335 0.929 . S
C347 C341 1.390 . S
C347 C344 1.386 . S
C348 C343 1.490 . S
C348 C350 1.395 1_565 S
C348 C351 1.403 . S
H349 C355 0.930 . S
C350 H336 0.930 . S
C350 C348 1.395 1_545 S
C350 C353 1.403 . S
C351 C348 1.403 . S
C351 C352 1.524 . S
C351 C355 1.400 . S
C352 H337 0.960 . S
C352 H338 0.960 . S
C352 H339 0.960 1_556 S
C352 C351 1.524 . S
C353 C350 1.403 . S
C353 C354 1.392 1_545 S
C353 C357 1.495 . S
C354 C353 1.392 1_565 S
C354 C355 1.385 . S
C354 C356 1.478 . S
C355 H349 0.930 . S
C355 C351 1.400 . S
C355 C354 1.385 . S
C356 C354 1.478 . S
C356 C358 1.380 1_565 S
C356 C362 1.383 . S
C357 C353 1.495 . S
C357 H363 0.959 . S
C357 H364 0.961 . S
C357 H365 0.960 . S
C358 C356 1.380 1_545 S
C358 C359 1.395 . S
C358 H366 0.930 . S
C359 C358 1.395 . S
C359 C360 1.383 . S
C359 H367 0.929 . S
C360 C359 1.383 . S
C360 C361 1.373 1_545 S
C361 H345 0.929 . S
C361 C360 1.373 1_565 S
C361 C362 1.383 . S
C362 H346 0.931 . S
C362 C356 1.383 . S
C362 C361 1.383 . S
H363 C357 0.959 . S
H364 C357 0.961 . S
H365 C357 0.960 . S
H366 C358 0.930 . S
H367 C359 0.929 . S
H368 C376 0.929 . S
H369 C378 0.930 . S
H370 C380 0.930 . S
H371 C383 0.929 . S
H372 C386 0.930 . S
H373 C388 0.960 . S
H374 C388 0.960 . S
H375 C388 0.960 . S
C376 H368 0.929 . S
C376 C377 1.377 . S
C376 C378 1.384 1_554 S
C377 C376 1.377 . S
C377 C383 1.390 . S
C378 H369 0.930 . S
C378 C376 1.384 1_556 S
C378 C379 1.372 . S
C379 C378 1.372 . S
C379 C380 1.400 1_556 S
C379 C384 1.490 . S
C380 H370 0.930 . S
C380 C379 1.400 1_554 S
C380 C383 1.386 . S
H381 C397 0.930 . S
H382 C398 0.931 . S
C383 H371 0.929 . S
C383 C377 1.390 . S
C383 C380 1.386 . S
C384 C379 1.490 . S
C384 C386 1.395 . S
C384 C387 1.403 . S
H385 C391 0.930 . S
C386 H372 0.930 . S
C386 C384 1.395 . S
C386 C389 1.403 . S
C387 C384 1.403 . S
C387 C388 1.524 1_556 S
C387 C391 1.400 . S
C388 H373 0.960 . S
C388 H374 0.960 . S
C388 H375 0.960 . S
C388 C387 1.524 1_554 S
C389 C386 1.403 . S
C389 C390 1.392 . S
C389 C393 1.495 . S
C390 C389 1.392 . S
C390 C391 1.385 . S
C390 C392 1.478 . S
C391 H385 0.930 . S
C391 C387 1.400 . S
C391 C390 1.385 . S
C392 C390 1.478 . S
C392 C394 1.381 . S
C392 C398 1.383 . S
C393 C389 1.495 . S
C393 H399 0.959 . S
C393 H400 0.961 . S
C393 H401 0.960 . S
C394 C392 1.381 . S
C394 C395 1.394 . S
C394 H402 0.930 . S
C395 C394 1.394 . S
C395 C396 1.383 . S
C395 H403 0.929 . S
C396 C395 1.383 . S
C396 C397 1.377 . S
C397 H381 0.930 . S
C397 C396 1.377 . S
C397 C398 1.379 . S
C398 H382 0.931 . S
C398 C392 1.383 . S
C398 C397 1.379 . S
H399 C393 0.959 . S
H400 C393 0.961 . S
H401 C393 0.960 . S
H402 C394 0.930 . S
H403 C395 0.929 . S
H404 C412 0.929 . S
H405 C414 0.930 . S
H406 C416 0.930 . S
H407 C419 0.929 . S
H408 C422 0.930 . S
H409 C424 0.960 . S
H410 C424 0.960 . S
H411 C424 0.960 . S
C412 H404 0.929 . S
C412 C413 1.377 . S
C412 C414 1.384 . S
C413 C412 1.377 . S
C413 C419 1.390 1_554 S
C414 H405 0.930 . S
C414 C412 1.384 . S
C414 C415 1.372 1_554 S
C415 C414 1.372 1_556 S
C415 C416 1.400 . S
C415 C420 1.490 . S
C416 H406 0.930 . S
C416 C415 1.400 . S
C416 C419 1.386 . S
H417 C433 0.930 . S
H418 C434 0.931 . S
C419 H407 0.929 . S
C419 C413 1.390 1_556 S
C419 C416 1.386 . S
C420 C415 1.490 . S
C420 C422 1.395 . S
C420 C423 1.403 . S
H421 C427 0.930 . S
C422 H408 0.930 . S
C422 C420 1.395 . S
C422 C425 1.403 . S
C423 C420 1.403 . S
C423 C424 1.524 . S
C423 C427 1.400 . S
C424 H409 0.960 . S
C424 H410 0.960 . S
C424 H411 0.960 . S
C424 C423 1.524 . S
C425 C422 1.403 . S
C425 C426 1.392 . S
C425 C429 1.495 . S
C426 C425 1.392 . S
C426 C427 1.385 . S
C426 C428 1.478 . S
C427 H421 0.930 . S
C427 C423 1.400 . S
C427 C426 1.385 . S
C428 C426 1.478 . S
C428 C430 1.381 . S
C428 C434 1.383 . S
C429 C425 1.495 . S
C429 H435 0.959 . S
C429 H436 0.961 . S
C429 H437 0.960 . S
C430 C428 1.381 . S
C430 C431 1.394 . S
C430 H438 0.930 . S
C431 C430 1.394 . S
C431 C432 1.383 . S
C431 H439 0.929 . S
C432 C431 1.383 . S
C432 C433 1.377 . S
C433 H417 0.930 . S
C433 C432 1.377 . S
C433 C434 1.379 . S
C434 H418 0.931 . S
C434 C428 1.383 . S
C434 C433 1.379 . S
H435 C429 0.959 . S
H436 C429 0.961 . S
H437 C429 0.960 . S
H438 C430 0.930 . S
H439 C431 0.929 . S
H440 C448 0.929 . S
H441 C450 0.930 . S
H442 C452 0.930 1_455 S
H443 C455 0.929 1_455 S
H444 C458 0.930 . S
H445 C460 0.960 . S
H446 C460 0.960 1_655 S
H447 C460 0.960 . S
C448 H440 0.929 . S
C448 C449 1.377 . S
C448 C450 1.384 1_554 S
C449 C448 1.377 . S
C449 C455 1.390 . S
C450 H441 0.930 . S
C450 C448 1.384 1_556 S
C450 C451 1.372 . S
C451 C450 1.372 . S
C451 C452 1.399 . S
C451 C456 1.490 . S
C452 H442 0.930 1_655 S
C452 C451 1.399 . S
C452 C455 1.386 1_556 S
H453 C469 0.930 . S
H454 C470 0.931 . S
C455 H443 0.929 1_655 S
C455 C449 1.390 . S
C455 C452 1.386 1_554 S
C456 C451 1.490 . S
C456 C458 1.395 . S
C456 C459 1.403 . S
H457 C463 0.930 1_455 S
C458 H444 0.930 . S
C458 C456 1.395 . S
C458 C461 1.403 . S
C459 C456 1.403 . S
C459 C460 1.524 1_656 S
C459 C463 1.400 . S
C460 H445 0.960 . S
C460 H446 0.960 1_455 S
C460 H447 0.960 . S
C460 C459 1.524 1_454 S
C461 C458 1.403 . S
C461 C462 1.392 . S
C461 C465 1.495 . S
C462 C461 1.392 . S
C462 C463 1.385 . S
C462 C464 1.478 . S
C463 H457 0.930 1_655 S
C463 C459 1.400 . S
C463 C462 1.385 . S
C464 C462 1.478 . S
C464 C466 1.381 . S
C464 C470 1.383 1_655 S
C465 C461 1.495 . S
C465 H471 0.959 . S
C465 H472 0.961 . S
C465 H473 0.960 . S
C466 C464 1.381 . S
C466 C467 1.394 . S
C466 H474 0.930 . S
C467 C466 1.394 . S
C467 C468 1.383 1_655 S
C467 H475 0.929 . S
C468 C467 1.383 1_455 S
C468 C469 1.377 . S
C469 H453 0.930 . S
C469 C468 1.377 . S
C469 C470 1.379 . S
C470 H454 0.931 . S
C470 C464 1.383 1_455 S
C470 C469 1.379 . S
H471 C465 0.959 . S
H472 C465 0.961 . S
H473 C465 0.960 . S
H474 C466 0.930 . S
H475 C467 0.929 . S
H476 C484 0.929 . S
H477 C486 0.930 . S
H478 C488 0.930 . S
H479 C491 0.929 . S
H480 C494 0.930 . S
H481 C496 0.960 . S
H482 C496 0.960 . S
H483 C496 0.960 . S
C484 H476 0.929 . S
C484 C485 1.377 . S
C484 C486 1.384 . S
C485 C484 1.377 . S
C485 C491 1.390 . S
C486 H477 0.930 . S
C486 C484 1.384 . S
C486 C487 1.372 . S
C487 C486 1.372 . S
C487 C488 1.400 . S
C487 C492 1.490 . S
C488 H478 0.930 . S
C488 C487 1.400 . S
C488 C491 1.386 . S
H489 C505 0.930 . S
H490 C506 0.931 . S
C491 H479 0.929 . S
C491 C485 1.390 . S
C491 C488 1.386 . S
C492 C487 1.490 . S
C492 C494 1.395 . S
C492 C495 1.403 . S
H493 C499 0.930 . S
C494 H480 0.930 . S
C494 C492 1.395 . S
C494 C497 1.403 . S
C495 C492 1.403 . S
C495 C496 1.524 . S
C495 C499 1.400 . S
C496 H481 0.960 . S
C496 H482 0.960 . S
C496 H483 0.960 . S
C496 C495 1.524 . S
C497 C494 1.403 . S
C497 C498 1.392 . S
C497 C501 1.495 1_455 S
C498 C497 1.392 . S
C498 C499 1.385 . S
C498 C500 1.478 . S
C499 H493 0.930 . S
C499 C495 1.400 . S
C499 C498 1.385 . S
C500 C498 1.478 . S
C500 C502 1.381 1_455 S
C500 C506 1.383 . S
C501 C497 1.495 1_655 S
C501 H507 0.959 . S
C501 H508 0.961 . S
C501 H509 0.960 . S
C502 C500 1.381 1_655 S
C502 C503 1.394 . S
C502 H510 0.930 . S
C503 C502 1.394 . S
C503 C504 1.383 1_655 S
C503 H511 0.929 . S
C504 C503 1.383 1_455 S
C504 C505 1.377 . S
C505 H489 0.930 . S
C505 C504 1.377 . S
C505 C506 1.379 . S
C506 H490 0.931 . S
C506 C500 1.383 . S
C506 C505 1.379 . S
H507 C501 0.959 . S
H508 C501 0.961 . S
H509 C501 0.960 . S
H510 C502 0.930 . S
H511 C503 0.929 . S
H512 C520 0.929 . S
H513 C522 0.930 . S
H514 C524 0.930 . S
H515 C527 0.929 . S
H516 C530 0.930 . S
H517 C532 0.960 1_565 S
H518 C532 0.960 1_565 S
H519 C532 0.960 . S
C520 H512 0.929 . S
C520 C521 1.377 . S
C520 C522 1.384 . S
C521 C520 1.377 . S
C521 C527 1.390 . S
C522 H513 0.930 . S
C522 C520 1.384 . S
C522 C523 1.372 . S
C523 C522 1.372 . S
C523 C524 1.400 . S
C523 C528 1.490 . S
C524 H514 0.930 . S
C524 C523 1.400 . S
C524 C527 1.386 . S
H525 C541 0.930 . S
H526 C542 0.931 . S
C527 H515 0.929 . S
C527 C521 1.390 . S
C527 C524 1.386 . S
C528 C523 1.490 . S
C528 C530 1.395 . S
C528 C531 1.403 . S
H529 C535 0.930 . S
C530 H516 0.930 . S
C530 C528 1.395 . S
C530 C533 1.403 . S
C531 C528 1.403 . S
C531 C532 1.524 . S
C531 C535 1.400 . S
C532 H517 0.960 1_545 S
C532 H518 0.960 1_545 S
C532 H519 0.960 . S
C532 C531 1.524 . S
C533 C530 1.403 . S
C533 C534 1.392 . S
C533 C537 1.495 . S
C534 C533 1.392 . S
C534 C535 1.385 . S
C534 C536 1.478 . S
C535 H529 0.930 . S
C535 C531 1.400 . S
C535 C534 1.385 . S
C536 C534 1.478 . S
C536 C538 1.381 . S
C536 C542 1.383 . S
C537 C533 1.495 . S
C537 H543 0.959 . S
C537 H544 0.961 . S
C537 H545 0.960 . S
C538 C536 1.381 . S
C538 C539 1.397 . S
C538 H546 0.930 . S
C539 C538 1.397 . S
C539 C540 1.385 . S
C539 H547 0.925 1_545 S
C540 C539 1.385 . S
C540 C541 1.377 . S
C541 H525 0.930 . S
C541 C540 1.377 . S
C541 C542 1.379 . S
C542 H526 0.931 . S
C542 C536 1.383 . S
C542 C541 1.379 . S
H543 C537 0.959 . S
H544 C537 0.961 . S
H545 C537 0.960 . S
H546 C538 0.930 . S
H547 C539 0.925 1_565 S
H548 C556 0.929 . S
H549 C558 0.930 . S
H550 C560 0.930 . S
H551 C563 0.929 . S
H552 C566 0.930 . S
H553 C568 0.960 . S
H554 C568 0.960 . S
H555 C568 0.960 . S
C556 H548 0.929 . S
C556 C557 1.377 . S
C556 C558 1.384 . S
C557 C556 1.377 . S
C557 C563 1.390 . S
C558 H549 0.930 . S
C558 C556 1.384 . S
C558 C559 1.372 . S
C559 C558 1.372 . S
C559 C560 1.400 . S
C559 C564 1.490 . S
C560 H550 0.930 . S
C560 C559 1.400 . S
C560 C563 1.386 . S
H561 C577 0.930 . S
H562 C578 0.931 . S
C563 H551 0.929 . S
C563 C557 1.390 . S
C563 C560 1.386 . S
C564 C559 1.490 . S
C564 C566 1.395 . S
C564 C567 1.403 . S
H565 C571 0.930 . S
C566 H552 0.930 . S
C566 C564 1.395 . S
C566 C569 1.403 . S
C567 C564 1.403 . S
C567 C568 1.524 . S
C567 C571 1.400 . S
C568 H553 0.960 . S
C568 H554 0.960 . S
C568 H555 0.960 . S
C568 C567 1.524 . S
C569 C566 1.403 . S
C569 C570 1.392 . S
C569 C573 1.495 . S
C570 C569 1.392 . S
C570 C571 1.385 . S
C570 C572 1.478 . S
C571 H565 0.930 . S
C571 C567 1.400 . S
C571 C570 1.385 . S
C572 C570 1.478 . S
C572 C574 1.381 . S
C572 C578 1.383 . S
C573 C569 1.495 . S
C573 H579 0.959 . S
C573 H580 0.961 . S
C573 H581 0.960 . S
C574 C572 1.381 . S
C574 C575 1.394 . S
C574 H582 0.930 . S
C575 C574 1.394 . S
C575 C576 1.383 . S
C575 H583 0.929 . S
C576 C575 1.383 . S
C576 C577 1.377 . S
C577 H561 0.930 . S
C577 C576 1.377 . S
C577 C578 1.379 . S
C578 H562 0.931 . S
C578 C572 1.383 . S
C578 C577 1.379 . S
H579 C573 0.959 . S
H580 C573 0.961 . S
H581 C573 0.960 . S
H582 C574 0.930 . S
H583 C575 0.929 . S
H584 C592 0.929 . S
H585 C594 0.930 . S
H586 C596 0.930 . S
H587 C599 0.929 . S
H588 C602 0.930 . S
H589 C604 0.960 . S
H590 C604 0.960 . S
H591 C604 0.960 . S
C592 H584 0.929 . S
C592 C593 1.377 . S
C592 C594 1.384 . S
C593 C592 1.377 . S
C593 C599 1.390 . S
C594 H585 0.930 . S
C594 C592 1.384 . S
C594 C595 1.372 . S
C595 C594 1.372 . S
C595 C596 1.400 . S
C595 C600 1.490 . S
C596 H586 0.930 . S
C596 C595 1.400 . S
C596 C599 1.386 . S
H597 C613 0.930 . S
H598 C614 0.931 . S
C599 H587 0.929 . S
C599 C593 1.390 . S
C599 C596 1.386 . S
C600 C595 1.490 . S
C600 C602 1.395 . S
C600 C603 1.403 . S
H601 C607 0.930 . S
C602 H588 0.930 . S
C602 C600 1.395 . S
C602 C605 1.403 . S
C603 C600 1.403 . S
C603 C604 1.524 . S
C603 C607 1.400 . S
C604 H589 0.960 . S
C604 H590 0.960 . S
C604 H591 0.960 . S
C604 C603 1.524 . S
C605 C602 1.403 . S
C605 C606 1.392 . S
C605 C609 1.495 . S
C606 C605 1.392 . S
C606 C607 1.385 . S
C606 C608 1.478 . S
C607 H601 0.930 . S
C607 C603 1.400 . S
C607 C606 1.385 . S
C608 C606 1.478 . S
C608 C610 1.381 . S
C608 C614 1.383 . S
C609 C605 1.495 . S
C609 H615 0.959 . S
C609 H616 0.961 . S
C609 H617 0.960 . S
C610 C608 1.381 . S
C610 C611 1.394 . S
C610 H618 0.930 . S
C611 C610 1.394 . S
C611 C612 1.383 . S
C611 H619 0.929 . S
C612 C611 1.383 . S
C612 C613 1.377 . S
C613 H597 0.930 . S
C613 C612 1.377 . S
C613 C614 1.379 . S
C614 H598 0.931 . S
C614 C608 1.383 . S
C614 C613 1.379 . S
H615 C609 0.959 . S
H616 C609 0.961 . S
H617 C609 0.960 . S
H618 C610 0.930 . S
H619 C611 0.929 . S
H620 C628 0.929 . S
H621 C630 0.930 1_455 S
H622 C632 0.930 . S
H623 C635 0.929 1_556 S
H624 C638 0.930 . S
H625 C640 0.960 . S
H626 C640 0.960 . S
H627 C640 0.960 1_556 S
C628 H620 0.929 . S
C628 C629 1.377 . S
C628 C630 1.384 . S
C629 C628 1.377 . S
C629 C635 1.390 . S
C630 H621 0.930 1_655 S
C630 C628 1.384 . S
C630 C631 1.372 1_554 S
C631 C630 1.372 1_556 S
C631 C632 1.400 . S
C631 C636 1.490 . S
C632 H622 0.930 . S
C632 C631 1.400 . S
C632 C635 1.386 1_556 S
H633 C649 0.930 . S
H634 C650 0.931 . S
C635 H623 0.929 1_554 S
C635 C629 1.390 . S
C635 C632 1.386 1_554 S
C636 C631 1.490 . S
C636 C638 1.395 1_655 S
C636 C639 1.403 . S
H637 C643 0.930 . S
C638 H624 0.930 . S
C638 C636 1.395 1_455 S
C638 C641 1.403 . S
C639 C636 1.403 . S
C639 C640 1.524 1_556 S
C639 C643 1.400 . S
C640 H625 0.960 . S
C640 H626 0.960 . S
C640 H627 0.960 1_554 S
C640 C639 1.524 1_554 S
C641 C638 1.403 . S
C641 C642 1.393 . S
C641 C645 1.495 . S
C642 C641 1.393 . S
C642 C643 1.385 1_455 S
C642 C644 1.478 . S
C643 H637 0.930 . S
C643 C639 1.400 . S
C643 C642 1.385 1_655 S
C644 C642 1.478 . S
C644 C646 1.381 . S
C644 C650 1.383 1_455 S
C645 C641 1.495 . S
C645 H651 0.959 . S
C645 H652 0.961 . S
C645 H653 0.960 . S
C646 C644 1.381 . S
C646 C647 1.394 . S
C646 H654 0.930 . S
C647 C646 1.394 . S
C647 C648 1.383 . S
C647 H655 0.929 . S
C648 C647 1.383 . S
C648 C649 1.377 1_455 S
C649 H633 0.930 . S
C649 C648 1.377 1_655 S
C649 C650 1.379 . S
C650 H634 0.931 . S
C650 C644 1.383 1_655 S
C650 C649 1.379 . S
H651 C645 0.959 . S
H652 C645 0.961 . S
H653 C645 0.960 . S
H654 C646 0.930 . S
H655 C647 0.929 . S
H656 C664 0.929 . S
H657 C666 0.930 1_545 S
H658 C668 0.930 . S
H659 C671 0.929 . S
H660 C674 0.930 1_545 S
H661 C676 0.960 . S
H662 C676 0.960 . S
H663 C676 0.960 . S
C664 H656 0.929 . S
C664 C665 1.377 . S
C664 C666 1.384 . S
C665 C664 1.377 . S
C665 C671 1.390 . S
C666 H657 0.930 1_565 S
C666 C664 1.384 . S
C666 C667 1.372 1_554 S
C667 C666 1.372 1_556 S
C667 C668 1.400 . S
C667 C672 1.490 . S
C668 H658 0.930 . S
C668 C667 1.400 . S
C668 C671 1.386 1_556 S
H669 C685 0.930 . S
H670 C686 0.931 . S
C671 H659 0.929 . S
C671 C665 1.390 . S
C671 C668 1.386 1_554 S
C672 C667 1.490 . S
C672 C674 1.395 . S
C672 C675 1.403 . S
H673 C679 0.930 . S
C674 H660 0.930 1_565 S
C674 C672 1.395 . S
C674 C677 1.403 1_565 S
C675 C672 1.403 . S
C675 C676 1.524 1_556 S
C675 C679 1.400 . S
C676 H661 0.960 . S
C676 H662 0.960 . S
C676 H663 0.960 . S
C676 C675 1.524 1_554 S
C677 C674 1.403 1_545 S
C677 C678 1.392 1_545 S
C677 C681 1.495 . S
C678 C677 1.392 1_565 S
C678 C679 1.385 . S
C678 C680 1.478 1_565 S
C679 H673 0.930 . S
C679 C675 1.400 . S
C679 C678 1.385 . S
C680 C678 1.478 1_545 S
C680 C682 1.381 . S
C680 C686 1.383 1_545 S
C681 C677 1.495 . S
C681 H687 0.959 . S
C681 H688 0.961 . S
C681 H689 0.960 . S
C682 C680 1.381 . S
C682 C683 1.394 . S
C682 H690 0.930 . S
C683 C682 1.394 . S
C683 C684 1.383 . S
C683 H691 0.929 . S
C684 C683 1.383 . S
C684 C685 1.377 1_545 S
C685 H669 0.930 . S
C685 C684 1.377 1_565 S
C685 C686 1.379 . S
C686 H670 0.931 . S
C686 C680 1.383 1_565 S
C686 C685 1.379 . S
H687 C681 0.959 . S
H688 C681 0.961 . S
H689 C681 0.960 . S
H690 C682 0.930 . S
H691 C683 0.929 . S
H692 C700 0.929 . S
H693 C702 0.930 . S
H694 C704 0.930 . S
H695 C707 0.929 . S
H696 C710 0.930 . S
H697 C712 0.960 . S
H698 C712 0.960 . S
H699 C712 0.960 1_554 S
C700 H692 0.929 . S
C700 C701 1.377 1_556 S
C700 C702 1.384 . S
C701 C700 1.377 1_554 S
C701 C707 1.390 . S
C702 H693 0.930 . S
C702 C700 1.384 . S
C702 C703 1.372 . S
C703 C702 1.372 . S
C703 C704 1.400 1_556 S
C703 C708 1.490 . S
C704 H694 0.930 . S
C704 C703 1.400 1_554 S
C704 C707 1.386 . S
H705 C721 0.930 . S
H706 C722 0.931 . S
C707 H695 0.929 . S
C707 C701 1.390 . S
C707 C704 1.386 . S
C708 C703 1.490 . S
C708 C710 1.395 . S
C708 C711 1.403 . S
H709 C715 0.930 . S
C710 H696 0.930 . S
C710 C708 1.395 . S
C710 C713 1.403 . S
C711 C708 1.403 . S
C711 C712 1.524 . S
C711 C715 1.400 . S
C712 H697 0.960 . S
C712 H698 0.960 . S
C712 H699 0.960 1_556 S
C712 C711 1.524 . S
C713 C710 1.403 . S
C713 C714 1.392 . S
C713 C717 1.495 . S
C714 C713 1.392 . S
C714 C715 1.385 . S
C714 C716 1.478 . S
C715 H709 0.930 . S
C715 C711 1.400 . S
C715 C714 1.385 . S
C716 C714 1.478 . S
C716 C718 1.381 . S
C716 C722 1.383 . S
C717 C713 1.495 . S
C717 H723 0.959 . S
C717 H724 0.961 . S
C717 H725 0.960 . S
C718 C716 1.381 . S
C718 C719 1.394 . S
C718 H726 0.930 . S
C719 C718 1.394 . S
C719 C720 1.383 . S
C719 H727 0.929 . S
C720 C719 1.383 . S
C720 C721 1.377 . S
C721 H705 0.930 . S
C721 C720 1.377 . S
C721 C722 1.379 . S
C722 H706 0.931 . S
C722 C716 1.383 . S
C722 C721 1.379 . S
H723 C717 0.959 . S
H724 C717 0.961 . S
H725 C717 0.960 . S
H726 C718 0.930 . S
H727 C719 0.929 . S
H728 C736 0.929 . S
H729 C738 0.930 . S
H730 C740 0.930 . S
H731 C743 0.929 1_556 S
H732 C746 0.913 1_554 S
H733 C748 0.960 . S
H734 C748 0.960 . S
H735 C748 0.960 . S
C736 H728 0.929 . S
C736 C737 1.377 . S
C736 C738 1.384 . S
C737 C736 1.377 . S
C737 C743 1.390 . S
C738 H729 0.930 . S
C738 C736 1.384 . S
C738 C739 1.372 1_554 S
C739 C738 1.372 1_556 S
C739 C740 1.400 . S
C739 C744 1.490 . S
C740 H730 0.930 . S
C740 C739 1.400 . S
C740 C743 1.386 1_556 S
H741 C757 0.930 . S
H742 C758 0.931 . S
C743 H731 0.929 1_554 S
C743 C737 1.390 . S
C743 C740 1.386 1_554 S
C744 C739 1.490 . S
C744 C746 1.405 . S
C744 C747 1.403 . S
H745 C751 0.930 . S
C746 H732 0.913 1_556 S
C746 C744 1.405 . S
C746 C749 1.410 . S
C747 C744 1.403 . S
C747 C748 1.524 . S
C747 C751 1.400 . S
C748 H733 0.960 . S
C748 H734 0.960 . S
C748 H735 0.960 . S
C748 C747 1.524 . S
C749 C746 1.410 . S
C749 C750 1.392 . S
C749 C753 1.495 1_556 S
C750 C749 1.392 . S
C750 C751 1.385 . S
C750 C752 1.478 . S
C751 H745 0.930 . S
C751 C747 1.400 . S
C751 C750 1.385 . S
C752 C750 1.478 . S
C752 C754 1.381 . S
C752 C758 1.383 . S
C753 C749 1.495 1_554 S
C753 H759 0.959 . S
C753 H760 0.961 . S
C753 H761 0.960 . S
C754 C752 1.381 . S
C754 C755 1.394 . S
C754 H762 0.930 . S
C755 C754 1.394 . S
C755 C756 1.383 . S
C755 H763 0.929 . S
C756 C755 1.383 . S
C756 C757 1.377 . S
C757 H741 0.930 . S
C757 C756 1.377 . S
C757 C758 1.379 . S
C758 H742 0.931 . S
C758 C752 1.383 . S
C758 C757 1.379 . S
H759 C753 0.959 . S
H760 C753 0.961 . S
H761 C753 0.960 . S
H762 C754 0.930 . S
H763 C755 0.929 . S
H764 C772 0.929 . S
H765 C774 0.930 . S
H766 C776 0.930 . S
H767 C779 0.929 . S
H768 C782 0.930 . S
H769 C784 0.960 . S
H770 C784 0.960 . S
H771 C784 0.960 . S
C772 H764 0.929 . S
C772 C773 1.377 . S
C772 C774 1.384 . S
C773 C772 1.377 . S
C773 C779 1.390 . S
C774 H765 0.930 . S
C774 C772 1.384 . S
C774 C775 1.372 . S
C775 C774 1.372 . S
C775 C776 1.400 . S
C775 C780 1.490 . S
C776 H766 0.930 . S
C776 C775 1.400 . S
C776 C779 1.386 . S
H777 C793 0.930 . S
H778 C794 0.931 . S
C779 H767 0.929 . S
C779 C773 1.390 . S
C779 C776 1.386 . S
C780 C775 1.490 . S
C780 C782 1.395 . S
C780 C783 1.403 . S
H781 C787 0.930 . S
C782 H768 0.930 . S
C782 C780 1.395 . S
C782 C785 1.403 1_554 S
C783 C780 1.403 . S
C783 C784 1.524 . S
C783 C787 1.400 . S
C784 H769 0.960 . S
C784 H770 0.960 . S
C784 H771 0.960 . S
C784 C783 1.524 . S
C785 C782 1.403 1_556 S
C785 C786 1.392 . S
C785 C789 1.495 . S
C786 C785 1.392 . S
C786 C787 1.385 1_556 S
C786 C788 1.478 . S
C787 H781 0.930 . S
C787 C783 1.400 . S
C787 C786 1.385 1_554 S
C788 C786 1.478 . S
C788 C790 1.381 . S
C788 C794 1.383 . S
C789 C785 1.495 . S
C789 H795 0.959 . S
C789 H796 0.961 . S
C789 H797 0.960 . S
C790 C788 1.381 . S
C790 C791 1.394 . S
C790 H798 0.924 1_455 S
C791 C790 1.394 . S
C791 C792 1.383 . S
C791 H799 0.929 1_455 S
C792 C791 1.383 . S
C792 C793 1.377 . S
C793 H777 0.930 . S
C793 C792 1.377 . S
C793 C794 1.379 . S
C794 H778 0.931 . S
C794 C788 1.383 . S
C794 C793 1.379 . S
H795 C789 0.959 . S
H796 C789 0.961 . S
H797 C789 0.960 . S
H798 C790 0.924 1_655 S
H799 C791 0.929 1_655 S
H800 C808 0.929 . S
H801 C810 0.930 . S
H802 C812 0.930 . S
H803 C815 0.929 . S
H804 C818 0.930 . S
H805 C820 0.960 . S
H806 C820 0.960 . S
H807 C820 0.960 . S
C808 H800 0.929 . S
C808 C809 1.377 . S
C808 C810 1.384 . S
C809 C808 1.377 . S
C809 C815 1.390 . S
C810 H801 0.930 . S
C810 C808 1.384 . S
C810 C811 1.372 . S
C811 C810 1.372 . S
C811 C812 1.400 . S
C811 C816 1.490 . S
C812 H802 0.930 . S
C812 C811 1.400 . S
C812 C815 1.386 . S
H813 C829 0.930 . S
H814 C830 0.931 . S
C815 H803 0.929 . S
C815 C809 1.390 . S
C815 C812 1.386 . S
C816 C811 1.490 . S
C816 C818 1.395 . S
C816 C819 1.403 . S
H817 C823 0.930 . S
C818 H804 0.930 . S
C818 C816 1.395 . S
C818 C821 1.403 1_554 S
C819 C816 1.403 . S
C819 C820 1.524 . S
C819 C823 1.400 . S
C820 H805 0.960 . S
C820 H806 0.960 . S
C820 H807 0.960 . S
C820 C819 1.524 . S
C821 C818 1.403 1_556 S
C821 C822 1.392 . S
C821 C825 1.495 . S
C822 C821 1.392 . S
C822 C823 1.385 1_556 S
C822 C824 1.478 . S
C823 H817 0.930 . S
C823 C819 1.400 . S
C823 C822 1.385 1_554 S
C824 C822 1.478 . S
C824 C826 1.381 . S
C824 C830 1.383 . S
C825 C821 1.495 . S
C825 H831 0.959 1_545 S
C825 H832 0.961 . S
C825 H833 0.960 1_545 S
C826 C824 1.381 . S
C826 C827 1.394 . S
C826 H834 0.930 1_545 S
C827 C826 1.394 . S
C827 C828 1.383 . S
C827 H835 0.929 1_545 S
C828 C827 1.383 . S
C828 C829 1.377 . S
C829 H813 0.930 . S
C829 C828 1.377 . S
C829 C830 1.379 . S
C830 H814 0.931 . S
C830 C824 1.383 . S
C830 C829 1.379 . S
H831 C825 0.959 1_565 S
H832 C825 0.961 . S
H833 C825 0.960 1_565 S
H834 C826 0.930 1_565 S
H835 C827 0.929 1_565 S
H836 C844 0.929 . S
H837 C846 0.930 . S
H838 C848 0.930 . S
H839 C851 0.929 . S
H840 C854 0.930 . S
H841 C856 0.960 . S
H842 C856 0.960 . S
H843 C856 0.960 . S
C844 H836 0.929 . S
C844 C845 1.377 . S
C844 C846 1.384 . S
C845 C844 1.377 . S
C845 C851 1.390 . S
C846 H837 0.930 . S
C846 C844 1.384 . S
C846 C847 1.372 . S
C847 C846 1.372 . S
C847 C848 1.400 . S
C847 C852 1.490 . S
C848 H838 0.930 . S
C848 C847 1.400 . S
C848 C851 1.386 . S
H849 C865 0.930 . S
H850 C866 0.931 1_554 S
C851 H839 0.929 . S
C851 C845 1.390 . S
C851 C848 1.386 . S
C852 C847 1.490 . S
C852 C854 1.395 . S
C852 C855 1.403 . S
H853 C859 0.930 . S
C854 H840 0.930 . S
C854 C852 1.395 . S
C854 C857 1.403 1_554 S
C855 C852 1.403 . S
C855 C856 1.524 . S
C855 C859 1.400 . S
C856 H841 0.960 . S
C856 H842 0.960 . S
C856 H843 0.960 . S
C856 C855 1.524 . S
C857 C854 1.403 1_556 S
C857 C858 1.392 . S
C857 C861 1.495 . S
C858 C857 1.392 . S
C858 C859 1.385 1_556 S
C858 C860 1.478 . S
C859 H853 0.930 . S
C859 C855 1.400 . S
C859 C858 1.385 1_554 S
C860 C858 1.478 . S
C860 C862 1.381 . S
C860 C866 1.383 . S
C861 C857 1.495 . S
C861 H867 0.959 . S
C861 H868 0.961 . S
C861 H869 0.960 . S
C862 C860 1.381 . S
C862 C863 1.394 . S
C862 H870 0.930 . S
C863 C862 1.394 . S
C863 C864 1.383 . S
C863 H871 0.929 . S
C864 C863 1.383 . S
C864 C865 1.377 . S
C865 H849 0.930 . S
C865 C864 1.377 . S
C865 C866 1.379 . S
C866 H850 0.931 1_556 S
C866 C860 1.383 . S
C866 C865 1.379 . S
H867 C861 0.959 . S
H868 C861 0.961 . S
H869 C861 0.960 . S
H870 C862 0.930 . S
H871 C863 0.929 . S
H872 C880 0.929 . S
H873 C882 0.930 . S
H874 C884 0.930 . S
H875 C887 0.929 . S
H876 C890 0.930 . S
H877 C892 0.960 . S
H878 C892 0.960 1_554 S
H879 C892 0.960 . S
C880 H872 0.929 . S
C880 C881 1.377 . S
C880 C882 1.384 . S
C881 C880 1.377 . S
C881 C887 1.390 . S
C882 H873 0.930 . S
C882 C880 1.384 . S
C882 C883 1.372 . S
C883 C882 1.372 . S
C883 C884 1.400 . S
C883 C888 1.490 . S
C884 H874 0.930 . S
C884 C883 1.400 . S
C884 C887 1.386 . S
H885 C901 0.930 . S
H886 C902 0.931 . S
C887 H875 0.929 . S
C887 C881 1.390 . S
C887 C884 1.386 . S
C888 C883 1.490 . S
C888 C890 1.395 . S
C888 C891 1.403 . S
H889 C895 0.930 . S
C890 H876 0.930 . S
C890 C888 1.395 . S
C890 C893 1.403 . S
C891 C888 1.403 . S
C891 C892 1.524 1_554 S
C891 C895 1.400 1_554 S
C892 H877 0.960 . S
C892 H878 0.960 1_556 S
C892 H879 0.960 . S
C892 C891 1.524 1_556 S
C893 C890 1.403 . S
C893 C894 1.392 . S
C893 C897 1.495 . S
C894 C893 1.392 . S
C894 C895 1.385 1_554 S
C894 C896 1.478 1_554 S
C895 H889 0.930 . S
C895 C891 1.400 1_556 S
C895 C894 1.385 1_556 S
C896 C894 1.478 1_556 S
C896 C898 1.381 . S
C896 C902 1.383 . S
C897 C893 1.495 . S
C897 H903 0.959 . S
C897 H904 0.961 . S
C897 H905 0.960 . S
C898 C896 1.381 . S
C898 C899 1.394 . S
C898 H906 0.930 1_556 S
C899 C898 1.394 . S
C899 C900 1.383 . S
C899 H907 0.929 . S
C900 C899 1.383 . S
C900 C901 1.377 . S
C901 H885 0.930 . S
C901 C900 1.377 . S
C901 C902 1.379 . S
C902 H886 0.931 . S
C902 C896 1.383 . S
C902 C901 1.379 . S
H903 C897 0.959 . S
H904 C897 0.961 . S
H905 C897 0.960 . S
H906 C898 0.930 1_554 S
H907 C899 0.929 . S
H908 C916 0.929 . S
H909 C918 0.930 . S
H910 C920 0.930 . S
H911 C923 0.929 . S
H912 C926 0.906 1_455 S
H913 C928 0.960 . S
H914 C928 0.960 . S
H915 C928 0.960 . S
C916 H908 0.929 . S
C916 C917 1.377 . S
C916 C918 1.384 . S
C917 C916 1.377 . S
C917 C923 1.390 . S
C918 H909 0.930 . S
C918 C916 1.384 . S
C918 C919 1.372 . S
C919 C918 1.372 . S
C919 C920 1.400 . S
C919 C924 1.490 . S
C920 H910 0.930 . S
C920 C919 1.400 . S
C920 C923 1.386 . S
H921 C937 0.930 . S
H922 C938 0.931 . S
C923 H911 0.929 . S
C923 C917 1.390 . S
C923 C920 1.386 . S
C924 C919 1.490 . S
C924 C926 1.426 . S
C924 C927 1.403 . S
H925 C931 0.930 . S
C926 H912 0.906 1_655 S
C926 C924 1.426 . S
C926 C929 1.397 1_655 S
C927 C924 1.403 . S
C927 C928 1.524 . S
C927 C931 1.400 . S
C928 H913 0.960 . S
C928 H914 0.960 . S
C928 H915 0.960 . S
C928 C927 1.524 . S
C929 C926 1.397 1_455 S
C929 C930 1.392 1_455 S
C929 C933 1.495 . S
C930 C929 1.392 1_655 S
C930 C931 1.385 . S
C930 C932 1.478 . S
C931 H925 0.930 . S
C931 C927 1.400 . S
C931 C930 1.385 . S
C932 C930 1.478 . S
C932 C934 1.381 . S
C932 C938 1.383 . S
C933 C929 1.495 . S
C933 H939 0.959 . S
C933 H940 0.961 . S
C933 H941 0.960 . S
C934 C932 1.381 . S
C934 C935 1.394 . S
C934 H942 0.930 . S
C935 C934 1.394 . S
C935 C936 1.383 . S
C935 H943 0.929 . S
C936 C935 1.383 . S
C936 C937 1.377 . S
C937 H921 0.930 . S
C937 C936 1.377 . S
C937 C938 1.379 . S
C938 H922 0.931 . S
C938 C932 1.383 . S
C938 C937 1.379 . S
H939 C933 0.959 . S
H940 C933 0.961 . S
H941 C933 0.960 . S
H942 C934 0.930 . S
H943 C935 0.929 . S
H944 C952 0.929 . S
H945 C954 0.964 . S
H946 C956 0.930 . S
H947 C959 0.929 . S
H948 C962 0.930 . S
H949 C964 0.960 . S
H950 C964 0.960 . S
H951 C964 0.960 . S
C952 H944 0.929 . S
C952 C953 1.377 . S
C952 C954 1.384 . S
C953 C952 1.377 . S
C953 C959 1.390 . S
C954 H945 0.964 . S
C954 C952 1.384 . S
C954 C955 1.372 . S
C955 C954 1.372 . S
C955 C956 1.400 . S
C955 C960 1.490 . S
C956 H946 0.930 . S
C956 C955 1.400 . S
C956 C959 1.386 . S
H957 C973 0.930 . S
H958 C974 0.931 . S
C959 H947 0.929 . S
C959 C953 1.390 . S
C959 C956 1.386 . S
C960 C955 1.490 . S
C960 C962 1.395 . S
C960 C963 1.403 . S
H961 C967 0.930 . S
C962 H948 0.930 . S
C962 C960 1.395 . S
C962 C965 1.403 . S
C963 C960 1.403 . S
C963 C964 1.524 . S
C963 C967 1.400 . S
C964 H949 0.960 . S
C964 H950 0.960 . S
C964 H951 0.960 . S
C964 C963 1.524 . S
C965 C962 1.403 . S
C965 C966 1.392 . S
C965 C969 1.495 . S
C966 C965 1.392 . S
C966 C967 1.385 . S
C966 C968 1.478 . S
C967 H961 0.930 . S
C967 C963 1.400 . S
C967 C966 1.385 . S
C968 C966 1.478 . S
C968 C970 1.381 1_565 S
C968 C974 1.383 . S
C969 C965 1.495 . S
C969 H975 0.959 . S
C969 H976 0.961 . S
C969 H977 0.960 . S
C970 C968 1.381 1_545 S
C970 C971 1.394 . S
C970 H978 0.930 . S
C971 C970 1.394 . S
C971 C972 1.383 1_545 S
C971 H979 0.929 . S
C972 C971 1.383 1_565 S
C972 C973 1.377 . S
C973 H957 0.930 . S
C973 C972 1.377 . S
C973 C974 1.379 . S
C974 H958 0.931 . S
C974 C968 1.383 . S
C974 C973 1.379 . S
H975 C969 0.959 . S
H976 C969 0.961 . S
H977 C969 0.960 . S
H978 C970 0.930 . S
H979 C971 0.929 . S
H980 C988 0.929 . S
H981 C990 0.930 . S
H982 C992 0.930 . S
H983 C995 0.929 . S
H984 C998 0.930 . S
H985 C1000 0.960 . S
H986 C1000 0.960 . S
H987 C1000 0.960 . S
C988 H980 0.929 . S
C988 C989 1.377 . S
C988 C990 1.384 . S
C989 C988 1.377 . S
C989 C995 1.390 . S
C990 H981 0.930 . S
C990 C988 1.384 . S
C990 C991 1.372 . S
C991 C990 1.372 . S
C991 C992 1.400 . S
C991 C996 1.490 . S
C992 H982 0.930 . S
C992 C991 1.400 . S
C992 C995 1.386 . S
H993 C1009 0.930 . S
H994 C1010 0.931 . S
C995 H983 0.929 . S
C995 C989 1.390 . S
C995 C992 1.386 . S
C996 C991 1.490 . S
C996 C998 1.395 . S
C996 C999 1.403 . S
H997 C1003 0.930 . S
C998 H984 0.930 . S
C998 C996 1.395 . S
C998 C1001 1.403 . S
C999 C996 1.403 . S
C999 C1000 1.524 . S
C999 C1003 1.400 . S
C1000 H985 0.960 . S
C1000 H986 0.960 . S
C1000 H987 0.960 . S
C1000 C999 1.524 . S
C1001 C998 1.403 . S
C1001 C1002 1.392 . S
C1001 C1005 1.495 . S
C1002 C1001 1.392 . S
C1002 C1003 1.385 . S
C1002 C1004 1.478 . S
C1003 H997 0.930 . S
C1003 C999 1.400 . S
C1003 C1002 1.385 . S
C1004 C1002 1.478 . S
C1004 C1006 1.381 . S
C1004 C1010 1.383 . S
C1005 C1001 1.495 . S
C1005 H1011 0.959 . S
C1005 H1012 0.961 . S
C1005 H1013 0.960 . S
C1006 C1004 1.381 . S
C1006 C1007 1.394 . S
C1006 H1014 0.930 . S
C1007 C1006 1.394 . S
C1007 C1008 1.383 . S
C1007 H1015 0.929 . S
C1008 C1007 1.383 . S
C1008 C1009 1.377 . S
C1009 H993 0.930 . S
C1009 C1008 1.377 . S
C1009 C1010 1.379 . S
C1010 H994 0.931 . S
C1010 C1004 1.383 . S
C1010 C1009 1.379 . S
H1011 C1005 0.959 . S
H1012 C1005 0.961 . S
H1013 C1005 0.960 . S
H1014 C1006 0.930 . S
H1015 C1007 0.929 . S
H1016 C1024 0.929 . S
H1017 C1026 0.930 . S
H1018 C1028 0.930 . S
H1019 C1031 0.929 . S
H1020 C1034 0.930 . S
H1021 C1036 0.960 . S
H1022 C1036 0.960 . S
H1023 C1036 0.960 . S
C1024 H1016 0.929 . S
C1024 C1025 1.377 . S
C1024 C1026 1.384 . S
C1025 C1024 1.377 . S
C1025 C1031 1.390 . S
C1026 H1017 0.930 . S
C1026 C1024 1.384 . S
C1026 C1027 1.372 . S
C1027 C1026 1.372 . S
C1027 C1028 1.400 . S
C1027 C1032 1.490 . S
C1028 H1018 0.930 . S
C1028 C1027 1.400 . S
C1028 C1031 1.386 . S
H1029 C1045 0.930 . S
H1030 C1046 0.931 . S
C1031 H1019 0.929 . S
C1031 C1025 1.390 . S
C1031 C1028 1.386 . S
C1032 C1027 1.490 . S
C1032 C1034 1.395 . S
C1032 C1035 1.403 . S
H1033 C1039 0.930 . S
C1034 H1020 0.930 . S
C1034 C1032 1.395 . S
C1034 C1037 1.403 . S
C1035 C1032 1.403 . S
C1035 C1036 1.524 . S
C1035 C1039 1.400 . S
C1036 H1021 0.960 . S
C1036 H1022 0.960 . S
C1036 H1023 0.960 . S
C1036 C1035 1.524 . S
C1037 C1034 1.403 . S
C1037 C1038 1.392 . S
C1037 C1041 1.495 . S
C1038 C1037 1.392 . S
C1038 C1039 1.385 . S
C1038 C1040 1.478 . S
C1039 H1033 0.930 . S
C1039 C1035 1.400 . S
C1039 C1038 1.385 . S
C1040 C1038 1.478 . S
C1040 C1042 1.381 . S
C1040 C1046 1.383 . S
C1041 C1037 1.495 . S
C1041 H1047 0.959 . S
C1041 H1048 0.961 . S
C1041 H1049 0.960 . S
C1042 C1040 1.381 . S
C1042 C1043 1.394 . S
C1042 H1050 0.930 . S
C1043 C1042 1.394 . S
C1043 C1044 1.383 . S
C1043 H1051 0.929 . S
C1044 C1043 1.383 . S
C1044 C1045 1.377 . S
C1045 H1029 0.930 . S
C1045 C1044 1.377 . S
C1045 C1046 1.379 . S
C1046 H1030 0.931 . S
C1046 C1040 1.383 . S
C1046 C1045 1.379 . S
H1047 C1041 0.959 . S
H1048 C1041 0.961 . S
H1049 C1041 0.960 . S
H1050 C1042 0.930 . S
H1051 C1043 0.929 . S
C197 C82 1.504 . S
C216 C120 1.366 . S
C252 C138 1.445 . S
C233 C95 1.495 . S
C288 C159 1.395 . S
C269 C56 1.504 . S
C324 C183 1.447 . S
C305 C69 1.493 . S
C360 C117 1.291 . S
C341 C30 1.388 . S
C377 C43 1.397 . S
C396 C141 1.348 . S
C413 C4 1.391 . S
C432 C162 1.372 . S
C449 C17 1.398 . S
C468 C180 1.362 . S
C504 C122 0.482 . S
C485 C74 0.450 . S
C540 C140 0.488 . S
C521 C87 0.425 . S
C576 C161 0.504 . S
C557 C100 0.438 . S
C593 C61 0.447 . S
C612 C185 0.343 . S
C629 C22 0.494 . S
C648 C121 0.426 . S
C684 C139 0.423 . S
C665 C35 0.494 . S
C720 C160 0.502 . S
C701 C48 0.515 . S
C737 C9 0.521 . S
C756 C184 0.525 . S
C773 C73 1.600 . S
C792 C118 1.544 . S
C809 C86 1.599 . S
C828 C142 1.537 . S
C864 C163 1.582 . S
C845 C99 1.605 . S
C900 C181 1.544 . S
C881 C60 1.603 . S
C917 C21 1.455 . S
C936 C119 1.376 1_655 S
C972 C143 1.447 . S
C953 C34 1.450 . S
C1008 C164 1.445 . S
C989 C47 1.447 . S
C1025 C8 1.447 . S
C1044 C182 1.404 . S
