# Generated by pormake.
# Topology pyr, (3,6)-cn, num edge types: 1
# Building blocks:
#     Node 0, Type 0, BuildingBlock: PAMTOO_clean_linker_0, # of connection points: 3
#     Node 1, Type 0, BuildingBlock: PAMTOO_clean_linker_0, # of connection points: 3
#     Node 2, Type 0, BuildingBlock: PAMTOO_clean_linker_0, # of connection points: 3
#     Node 3, Type 0, BuildingBlock: PAMTOO_clean_linker_0, # of connection points: 3
#     Node 4, Type 0, BuildingBlock: PAMTOO_clean_linker_0, # of connection points: 3
#     Node 5, Type 0, BuildingBlock: PAMTOO_clean_linker_0, # of connection points: 3
#     Node 6, Type 0, BuildingBlock: PAMTOO_clean_linker_0, # of connection points: 3
#     Node 7, Type 0, BuildingBlock: PAMTOO_clean_linker_0, # of connection points: 3
#     Node 8, Type 1, BuildingBlock: CIFDUS_clean_sbu_1, # of connection points: 6
#     Node 9, Type 1, BuildingBlock: CIFDUS_clean_sbu_1, # of connection points: 6
#     Node 10, Type 1, BuildingBlock: CIFDUS_clean_sbu_1, # of connection points: 6
#     Node 11, Type 1, BuildingBlock: CIFDUS_clean_sbu_1, # of connection points: 6
#     Edge 12, Type (0, 1), BuildingBlock: EZIPEK_clean_linker_0, # of connection points: 2
#     Edge 13, Type (0, 1), BuildingBlock: EZIPEK_clean_linker_0, # of connection points: 2
#     Edge 14, Type (0, 1), BuildingBlock: EZIPEK_clean_linker_0, # of connection points: 2
#     Edge 15, Type (0, 1), BuildingBlock: EZIPEK_clean_linker_0, # of connection points: 2
#     Edge 16, Type (0, 1), BuildingBlock: EZIPEK_clean_linker_0, # of connection points: 2
#     Edge 17, Type (0, 1), BuildingBlock: EZIPEK_clean_linker_0, # of connection points: 2
#     Edge 18, Type (0, 1), BuildingBlock: EZIPEK_clean_linker_0, # of connection points: 2
#     Edge 19, Type (0, 1), BuildingBlock: EZIPEK_clean_linker_0, # of connection points: 2
#     Edge 20, Type (0, 1), BuildingBlock: EZIPEK_clean_linker_0, # of connection points: 2
#     Edge 21, Type (0, 1), BuildingBlock: EZIPEK_clean_linker_0, # of connection points: 2
#     Edge 22, Type (0, 1), BuildingBlock: EZIPEK_clean_linker_0, # of connection points: 2
#     Edge 23, Type (0, 1), BuildingBlock: EZIPEK_clean_linker_0, # of connection points: 2
#     Edge 24, Type (0, 1), BuildingBlock: EZIPEK_clean_linker_0, # of connection points: 2
#     Edge 25, Type (0, 1), BuildingBlock: EZIPEK_clean_linker_0, # of connection points: 2
#     Edge 26, Type (0, 1), BuildingBlock: EZIPEK_clean_linker_0, # of connection points: 2
#     Edge 27, Type (0, 1), BuildingBlock: EZIPEK_clean_linker_0, # of connection points: 2
#     Edge 28, Type (0, 1), BuildingBlock: EZIPEK_clean_linker_0, # of connection points: 2
#     Edge 29, Type (0, 1), BuildingBlock: EZIPEK_clean_linker_0, # of connection points: 2
#     Edge 30, Type (0, 1), BuildingBlock: EZIPEK_clean_linker_0, # of connection points: 2
#     Edge 31, Type (0, 1), BuildingBlock: EZIPEK_clean_linker_0, # of connection points: 2
#     Edge 32, Type (0, 1), BuildingBlock: EZIPEK_clean_linker_0, # of connection points: 2
#     Edge 33, Type (0, 1), BuildingBlock: EZIPEK_clean_linker_0, # of connection points: 2
#     Edge 34, Type (0, 1), BuildingBlock: EZIPEK_clean_linker_0, # of connection points: 2
#     Edge 35, Type (0, 1), BuildingBlock: EZIPEK_clean_linker_0, # of connection points: 2
# Relax obj value: 0.098
# Max RMSD: 0.205
# Mean RMSD: 0.142
data_MOF--net-pry--node1-CIFDUS_clean_sbu_1--node2-PAMTOO_clean_linker_0--edge1-EZIPEK_clean_linker_0
_symmetry_space_group_name_H-M    P1
_symmetry_Int_Tables_number       1
_symmetry_cell_setting            triclinic
loop_
_symmetry_equiv_pos_as_xyz
'x, y, z'
_cell_length_a     26.477456
_cell_length_b     26.264336
_cell_length_c     25.634685
_cell_angle_alpha  92.369557
_cell_angle_beta   92.967839
_cell_angle_gamma 97.899596
loop_
_atom_site_label
_atom_site_type_symbol
_atom_site_fract_x
_atom_site_fract_y
_atom_site_fract_z
_atom_type_partial_charge
H0 H 0.09883 0.21238 0.22924 0.0
H1 H 0.20587 0.10382 0.23586 0.0
H2 H 0.20849 0.20629 0.11129 0.0
H3 H 0.22015 0.09141 0.0861 0.0
C4 C 0.24907 0.08972 0.11881 0.0
O5 O 0.25242 0.13378 0.15171 0.0
H6 H 0.23533 0.0573 0.14315 0.0
C7 C 0.1278 0.19428 0.21042 0.0
C8 C 0.14336 0.20921 0.15994 0.0
C9 C 0.14886 0.15543 0.2379 0.0
C10 C 0.18947 0.13393 0.21617 0.0
C11 C 0.21033 0.15214 0.17003 0.0
C12 C 0.18841 0.19057 0.14365 0.0
H13 H 0.33435 0.98563 0.70154 0.0
H14 H 0.32927 0.86161 0.58485 0.0
H15 H 0.45308 0.8893 0.70202 0.0
H16 H 0.47817 0.86455 0.58747 0.0
C17 C 0.44748 0.83109 0.5812 0.0
O18 O 0.41417 0.82985 0.62119 0.0
H19 H 0.42583 0.83888 0.54528 0.0
C20 C 0.35182 0.95491 0.68339 0.0
C21 C 0.39749 0.94164 0.70618 0.0
C22 C 0.32682 0.92624 0.63941 0.0
C23 C 0.34876 0.88481 0.61772 0.0
C24 C 0.39496 0.87207 0.63957 0.0
C25 C 0.41893 0.9006 0.68361 0.0
H26 H 0.73892 0.31141 0.94028 0.0
H27 H 0.582 0.32135 0.89321 0.0
H28 H 0.69278 0.45732 0.90565 0.0
H29 H 0.53615 0.40925 0.82089 0.0
C30 C 0.57759 0.40661 0.8199 0.0
O31 O 0.59985 0.41867 0.86995 0.0
H32 H 0.57791 0.36538 0.80821 0.0
C33 C 0.70889 0.33373 0.92915 0.0
C34 C 0.72022 0.38733 0.92952 0.0
C35 C 0.65878 0.3091 0.9179 0.0
C36 C 0.62111 0.33914 0.90173 0.0
C37 C 0.63437 0.39169 0.89301 0.0
C38 C 0.68338 0.41617 0.90913 0.0
H39 H 0.87619 0.70856 0.51032 0.0
H40 H 0.8859 0.5661 0.42695 0.0
H41 H 0.99824 0.69574 0.40994 0.0
H42 H 0.91207 0.64246 0.31642 0.0
C43 C 0.92369 0.60428 0.32373 0.0
O44 O 0.95608 0.60665 0.36842 0.0
H45 H 0.88683 0.58025 0.33013 0.0
C46 C 0.89874 0.68477 0.48867 0.0
C47 C 0.94856 0.7044 0.47447 0.0
C48 C 0.87561 0.6349 0.47194 0.0
C49 C 0.90253 0.6049 0.43982 0.0
C50 C 0.94364 0.62873 0.41389 0.0
C51 C 0.96703 0.67802 0.43148 0.0
H52 H 0.83926 0.94983 0.83123 0.0
H53 H 0.85304 0.86765 0.97098 0.0
H54 H 0.94631 0.8411 0.84465 0.0
H55 H 0.86941 0.77167 0.96181 0.0
C56 C 0.91098 0.78204 0.97135 0.0
O57 O 0.9314 0.82111 0.94028 0.0
H58 H 0.91271 0.79804 0.0123 0.0
C59 C 0.86009 0.92516 0.85415 0.0
C60 C 0.90359 0.90623 0.8342 0.0
C61 C 0.84087 0.91162 0.90298 0.0
C62 C 0.86555 0.877 0.93253 0.0
C63 C 0.90434 0.85204 0.91116 0.0
C64 C 0.9201 0.8644 0.86099 0.0
H65 H 0.74316 0.06098 0.34888 0.0
H66 H 0.6314 0.16501 0.33428 0.0
H67 H 0.73276 0.17431 0.47058 0.0
H68 H 0.6182 0.19767 0.48109 0.0
C69 C 0.61772 0.21873 0.44452 0.0
O70 O 0.66317 0.21834 0.42039 0.0
H71 H 0.58589 0.19637 0.41966 0.0
C72 C 0.72233 0.08984 0.36436 0.0
C73 C 0.74173 0.1144 0.41272 0.0
C74 C 0.67778 0.10287 0.33805 0.0
C75 C 0.66076 0.14891 0.3564 0.0
C76 C 0.68019 0.17435 0.40395 0.0
C77 C 0.71875 0.15534 0.43326 0.0
H78 H 0.37131 0.71855 0.06196 0.0
H79 H 0.31018 0.63023 0.18826 0.0
H80 H 0.4322 0.75391 0.22032 0.0
H81 H 0.45215 0.65713 0.25143 0.0
C82 C 0.41435 0.63988 0.26457 0.0
O83 O 0.37926 0.67354 0.25762 0.0
H84 H 0.40304 0.60442 0.23895 0.0
C85 C 0.36977 0.71193 0.10334 0.0
C86 C 0.40347 0.74325 0.13976 0.0
C87 C 0.3343 0.67201 0.12072 0.0
C88 C 0.33536 0.66223 0.17422 0.0
C89 C 0.37129 0.69073 0.2095 0.0
C90 C 0.40412 0.73222 0.19269 0.0
H91 H 0.08097 0.33035 0.7194 0.0
H92 H 0.18475 0.4714 0.71192 0.0
H93 H 0.16225 0.36459 0.58073 0.0
H94 H 0.26549 0.44783 0.67242 0.0
C95 C 0.25674 0.46884 0.63684 0.0
O96 O 0.20709 0.4549 0.61707 0.0
H97 H 0.26159 0.50988 0.65105 0.0
C98 C 0.1065 0.35672 0.69817 0.0
C99 C 0.11918 0.3418 0.64734 0.0
C100 C 0.13032 0.4039 0.72269 0.0
C101 C 0.16397 0.4361 0.6939 0.0
C102 C 0.17342 0.42313 0.64247 0.0
C103 C 0.15159 0.37593 0.61934 0.0
O104 O 0.95955 0.0488 0.51879 0.0
Mn105 Mn 0.03091 0.02172 0.53467 0.0
O106 O 0.92567 0.00706 0.44375 0.0
Mn107 Mn 0.98171 0.97586 0.42877 0.0
O108 O 0.10087 0.99185 0.55024 0.0
O109 O 0.05817 0.08927 0.58037 0.0
Mn110 Mn 0.07405 0.05821 0.6387 0.0
O111 O 0.99475 0.98022 0.59746 0.0
O112 O 0.12921 0.02385 0.63031 0.0
O113 O 0.06327 0.06206 0.46897 0.0
O114 O 0.03278 0.01478 0.39623 0.0
O115 O 0.08839 0.12336 0.66003 0.0
O116 O 0.02085 0.0249 0.6714 0.0
C117 C 0.99438 0.91024 0.4691 0.0
C118 C 0.92243 0.03692 0.48349 0.0
C119 C 0.13441 0.99693 0.58926 0.0
C120 C 0.07538 0.13016 0.61159 0.0
C121 C 0.99206 0.98861 0.64725 0.0
C122 C 0.06117 0.05335 0.41841 0.0
O123 O 0.00668 0.95702 0.4888 0.0
O124 O 0.97441 0.90589 0.42168 0.0
O125 O 0.52333 0.01596 0.93708 0.0
Mn126 Mn 0.55273 0.0168 0.01602 0.0
O127 O 0.5108 0.93437 0.9068 0.0
Mn128 Mn 0.55019 0.91569 0.96099 0.0
O129 O 0.5801 0.0237 0.09674 0.0
O130 O 0.57309 0.09344 0.01305 0.0
Mn131 Mn 0.55012 0.12506 0.06741 0.0
O132 O 0.47648 0.02739 0.03587 0.0
O133 O 0.59396 0.10896 0.11989 0.0
O134 O 0.62878 0.00599 0.99223 0.0
O135 O 0.61925 0.92623 0.95517 0.0
O136 O 0.56011 0.17233 0.01699 0.0
O137 O 0.48226 0.10463 0.07723 0.0
C138 C 0.52125 0.88771 0.0285 0.0
C139 C 0.50587 0.98092 0.90172 0.0
C140 C 0.59683 0.0622 0.12968 0.0
C141 C 0.57208 0.13489 0.98785 0.0
C142 C 0.45561 0.06355 0.05871 0.0
C143 C 0.64743 0.96791 0.96942 0.0
O144 O 0.53344 0.93772 0.02371 0.0
O145 O 0.5256 0.85733 0.98824 0.0
O146 O 0.63129 0.55579 0.52113 0.0
Mn147 Mn 0.55245 0.53189 0.52846 0.0
O148 O 0.64004 0.56615 0.43601 0.0
Mn149 Mn 0.58264 0.52115 0.41586 0.0
O150 O 0.4753 0.50584 0.53538 0.0
O151 O 0.5709 0.52195 0.6065 0.0
Mn152 Mn 0.52065 0.54235 0.64635 0.0
O153 O 0.53941 0.60755 0.5464 0.0
O154 O 0.46007 0.50327 0.62093 0.0
O155 O 0.56264 0.45517 0.51041 0.0
O156 O 0.58451 0.4523 0.42731 0.0
O157 O 0.57184 0.52136 0.60743 0.0
O158 O 0.51319 0.60966 0.62897 0.0
C159 C 0.51432 0.55275 0.40777 0.0
C160 C 0.65868 0.56946 0.48281 0.0
C161 C 0.44604 0.49442 0.57267 0.0
C162 C 0.60842 0.50048 0.62544 0.0
C163 C 0.52213 0.63071 0.58564 0.0
C164 C 0.57391 0.43006 0.46948 0.0
O165 O 0.53439 0.54179 0.45237 0.0
O166 O 0.53786 0.54082 0.36693 0.0
O167 O 0.96186 0.4696 0.02557 0.0
Mn168 Mn 0.04364 0.4951 0.03463 0.0
O169 O 0.95231 0.44613 0.94201 0.0
Mn170 Mn 1.00166 0.49831 0.93003 0.0
O171 O 0.12211 0.52474 0.03848 0.0
O172 O 0.03456 0.50937 0.11404 0.0
Mn173 Mn 0.09436 0.49256 0.13932 0.0
O174 O 0.05929 0.41781 0.0495 0.0
O175 O 0.15029 0.53594 0.12153 0.0
O176 O 0.0266 0.57143 0.02352 0.0
O177 O 0.99231 0.56628 0.94236 0.0
O178 O 0.06651 0.51065 0.19738 0.0
O179 O 0.09753 0.42359 0.13017 0.0
C180 C 0.06418 0.47501 0.90497 0.0
C181 C 0.93317 0.44994 0.98524 0.0
C182 C 0.15686 0.54221 0.07373 0.0
C183 C 0.02969 0.51815 0.16449 0.0
C184 C 0.08037 0.39729 0.08904 0.0
C185 C 0.00431 0.59163 0.98524 0.0
O186 O 0.05942 0.48157 0.95595 0.0
O187 O 0.02929 0.48627 0.87155 0.0
C188 C 0.07385 0.11694 0.28945 0.0
C189 C 0.12682 0.13546 0.28828 0.0
C190 C 0.13827 0.10717 0.37916 0.0
C191 C 0.08481 0.09149 0.38054 0.0
N192 N 1.00131 0.10026 0.34297 0.0
N193 N 0.20701 0.15952 0.33828 0.0
C194 C 0.05267 0.10296 0.33765 0.0
C195 C 0.15836 0.13396 0.33511 0.0
N196 N 0.04398 0.10872 0.24402 0.0
N197 N 0.17008 0.09529 0.41894 0.0
H198 H 0.22214 0.18113 0.30808 0.0
H199 H 0.23039 0.16358 0.37256 0.0
H200 H 0.15628 0.0787 0.45251 0.0
H201 H 0.20968 0.09971 0.4174 0.0
H202 H 0.0062 0.09092 0.24254 0.0
H203 H 0.05849 0.11354 0.20726 0.0
H204 H 0.97654 0.11213 0.31445 0.0
H205 H 0.98473 0.09193 0.37828 0.0
C206 C 0.46804 0.99794 0.76008 0.0
C207 C 0.42013 0.96565 0.75756 0.0
C208 C 0.42209 0.96876 0.85338 0.0
C209 C 0.4738 0.9915 0.85539 0.0
N210 N 0.54682 0.02923 0.81174 0.0
N211 N 0.3535 0.91601 0.80252 0.0
C212 C 0.49676 0.0076 0.80906 0.0
C213 C 0.39708 0.95075 0.80445 0.0
N214 N 0.48602 0.01876 0.71556 0.0
N215 N 0.39771 0.96275 0.89887 0.0
H216 H 0.33441 0.90072 0.76768 0.0
H217 H 0.33858 0.89895 0.83541 0.0
H218 H 0.41576 0.97558 0.93517 0.0
H219 H 0.35877 0.95008 0.90011 0.0
H220 H 0.51858 0.0459 0.71523 0.0
H221 H 0.46566 0.01202 0.6794 0.0
H222 H 0.56792 0.03659 0.77905 0.0
H223 H 0.56781 0.03797 0.84735 0.0
C224 C 0.63393 0.42259 0.74301 0.0
C225 C 0.60069 0.44152 0.77849 0.0
C226 C 0.59381 0.5143 0.72252 0.0
C227 C 0.61336 0.48668 0.68121 0.0
N228 N 0.66125 0.4195 0.65416 0.0
N229 N 0.55576 0.51081 0.80658 0.0
C230 C 0.63721 0.44291 0.69248 0.0
C231 C 0.58329 0.48954 0.76998 0.0
N232 N 0.6626 0.38568 0.75789 0.0
N233 N 0.5889 0.56496 0.71768 0.0
H234 H 0.55095 0.4959 0.84337 0.0
H235 H 0.53657 0.54218 0.79978 0.0
H236 H 0.60114 0.58485 0.68518 0.0
H237 H 0.5785 0.58843 0.74789 0.0
H238 H 0.69089 0.37341 0.73571 0.0
H239 H 0.66194 0.37121 0.79509 0.0
H240 H 0.67336 0.38364 0.65742 0.0
H241 H 0.66719 0.43502 0.61779 0.0
C242 C 0.94495 0.52612 0.27154 0.0
C243 C 0.94677 0.58065 0.2769 0.0
C244 C 0.98297 0.58898 0.19065 0.0
C245 C 0.98483 0.53567 0.18762 0.0
N246 N 0.95624 0.45159 0.21574 0.0
N247 N 0.97863 0.66453 0.24643 0.0
C248 C 0.96148 0.50371 0.22506 0.0
C249 C 0.96809 0.61236 0.23742 0.0
N250 N 0.93107 0.4962 0.31234 0.0
N251 N 0.99655 0.61715 0.14881 0.0
H252 H 0.97438 0.68317 0.28225 0.0
H253 H 0.99762 0.68908 0.22074 0.0
H254 H 0.00782 0.59997 0.11479 0.0
H255 H 0.99156 0.65555 0.14565 0.0
H256 H 0.93375 0.4571 0.31298 0.0
H257 H 0.92085 0.5109 0.34804 0.0
H258 H 0.93655 0.42489 0.23892 0.0
H259 H 0.96809 0.43544 0.18133 0.0
C260 C 0.31257 0.02958 0.08758 0.0
C261 C 0.30015 0.08073 0.09494 0.0
C262 C 0.37978 0.11191 0.05305 0.0
C263 C 0.39825 0.06402 0.06023 0.0
N264 N 0.37705 0.97372 0.07329 0.0
N265 N 0.31861 0.16956 0.07252 0.0
C266 C 0.36307 0.02169 0.07414 0.0
C267 C 0.33279 0.12158 0.07396 0.0
N268 N 0.27508 0.98839 0.0893 0.0
N269 N 0.40577 0.14692 0.02253 0.0
H270 H 0.2814 0.17659 0.07745 0.0
H271 H 0.34397 0.2025 0.06654 0.0
H272 H 0.43754 0.13903 1.00276 0.0
H273 H 0.39277 0.18077 0.01155 0.0
H274 H 0.28029 0.95054 0.08029 0.0
H275 H 0.23673 0.99204 0.09293 0.0
H276 H 0.35658 0.94257 0.09016 0.0
H277 H 0.40907 0.96505 0.05491 0.0
C278 C 0.26915 0.96428 0.57381 0.0
C279 C 0.27493 0.93639 0.6197 0.0
C280 C 0.18358 0.93518 0.63425 0.0
C281 C 0.17893 0.96736 0.59154 0.0
N282 N 0.2126 1.00287 0.51364 0.0
N283 N 0.23802 0.89249 0.69223 0.0
C284 C 0.2203 0.9786 0.55885 0.0
C285 C 0.23198 0.92055 0.64914 0.0
N286 N 0.31108 0.97921 0.54623 0.0
N287 N 0.14078 0.91754 0.65947 0.0
H288 H 0.27123 0.87661 0.70103 0.0
H289 H 0.211 0.88558 0.72004 0.0
H290 H 0.1047 0.92617 0.64792 0.0
H291 H 0.13959 0.89143 0.68891 0.0
H292 H 0.31143 1.00331 0.51507 0.0
H293 H 0.34697 0.96898 0.55588 0.0
H294 H 0.23949 0.00976 0.48571 0.0
H295 H 0.17719 0.01283 0.50197 0.0
C296 C 0.80476 0.43736 0.91377 0.0
C297 C 0.77206 0.41207 0.94889 0.0
C298 C 0.84364 0.41877 0.01569 0.0
C299 C 0.8759 0.44568 0.98057 0.0
N300 N 0.8783 0.49905 0.9049 0.0
N301 N 0.75607 0.39296 0.03826 0.0
C302 C 0.85334 0.46129 0.93276 0.0
C303 C 0.79013 0.40733 1.00164 0.0
N304 N 0.79117 0.43621 0.86145 0.0
N305 N 0.86383 0.40218 0.06089 0.0
H306 H 0.71673 0.38691 0.02937 0.0
H307 H 0.76641 0.39258 0.078 0.0
H308 H 0.90249 0.41055 0.0725 0.0
H309 H 0.84265 0.37763 0.08512 0.0
H310 H 0.81669 0.44958 0.83378 0.0
H311 H 0.75659 0.41721 0.84479 0.0
H312 H 0.86111 0.51482 0.873 0.0
H313 H 0.91366 0.51872 0.91719 0.0
C314 C 0.79797 0.62191 0.52876 0.0
C315 C 0.82033 0.61692 0.47965 0.0
C316 C 0.74234 0.56421 0.44626 0.0
C317 C 0.7155 0.58032 0.48887 0.0
N318 N 0.71934 0.63006 0.57112 0.0
N319 N 0.80158 0.59988 0.38627 0.0
C320 C 0.74363 0.61062 0.53078 0.0
C321 C 0.78909 0.59274 0.43665 0.0
N322 N 0.82806 0.63538 0.57332 0.0
N323 N 0.72336 0.52209 0.41465 0.0
H324 H 0.83132 0.62763 0.3768 0.0
H325 H 0.77771 0.58369 0.35443 0.0
H326 H 0.69096 0.49715 0.42326 0.0
H327 H 0.74373 0.50909 0.38417 0.0
H328 H 0.81347 0.63574 0.61031 0.0
H329 H 0.86783 0.64039 0.5737 0.0
H330 H 0.7384 0.65609 0.59978 0.0
H331 H 0.67988 0.6236 0.57362 0.0
C332 C 0.13464 0.26923 0.08112 0.0
C333 C 0.11572 0.24741 0.1277 0.0
C334 C 0.05515 0.31127 0.1279 0.0
C335 C 0.08403 0.3407 0.0914 0.0
N336 N 0.15204 0.34619 0.03223 0.0
N337 N 0.03278 0.22714 0.16204 0.0
C338 C 0.12367 0.319 0.06732 0.0
C339 C 0.06841 0.26244 0.1421 0.0
N340 N 0.15445 0.23919 0.04507 0.0
N341 N 0.0156 0.33055 0.15018 0.0
H342 H 0.03773 0.18849 0.16336 0.0
H343 H 0.99597 0.23416 0.16946 0.0
H344 H 1.00244 0.36403 0.13795 0.0
H345 H 0.9976 0.31437 0.18201 0.0
H346 H 0.16542 0.25209 1.00887 0.0
H347 H 0.15107 0.19933 0.04774 0.0
H348 H 0.18483 0.33423 0.01779 0.0
H349 H 0.14419 0.38186 0.02004 0.0
C350 C 0.66628 0.22901 0.96877 0.0
C351 C 0.64581 0.25238 0.92463 0.0
C352 C 0.58861 0.17182 0.90321 0.0
C353 C 0.60857 0.151 0.9484 0.0
N354 N 0.6836 0.14871 1.00395 0.0
N355 N 0.60279 0.23617 0.83843 0.0
C356 C 0.65541 0.17513 0.97162 0.0
C357 C 0.61206 0.22051 0.88765 0.0
N358 N 0.68947 0.25767 0.0112 0.0
N359 N 0.54496 0.14704 0.87814 0.0
H360 H 0.62207 0.27001 0.82496 0.0
H361 H 0.58053 0.21277 0.80968 0.0
H362 H 0.52792 0.11142 0.88994 0.0
H363 H 0.52517 0.16289 0.84808 0.0
H364 H 0.70176 0.24111 0.04503 0.0
H365 H 0.68942 0.2972 0.01586 0.0
H366 H 0.7188 0.16515 0.02162 0.0
H367 H 0.6733 0.10936 1.00841 0.0
C368 C 0.9533 0.7874 0.53255 0.0
C369 C 0.97631 0.75593 0.49719 0.0
C370 C 0.03522 0.83161 0.47687 0.0
C371 C 1.00021 0.86292 0.49625 0.0
N372 N 0.92817 0.87142 0.54824 0.0
N373 N 0.06151 0.74667 0.47362 0.0
C374 C 0.96077 0.84136 0.52725 0.0
C375 C 0.02464 0.77736 0.4806 0.0
N376 N 0.92951 0.7666 0.57414 0.0
N377 N 0.07652 0.85361 0.45209 0.0
H378 H 0.05587 0.70798 0.48273 0.0
H379 H 0.0988 0.76063 0.46521 0.0
H380 H 0.08588 0.89352 0.45128 0.0
H381 H 0.10004 0.83243 0.43134 0.0
H382 H 0.91551 0.78881 0.60327 0.0
H383 H 0.93024 0.7281 0.58245 0.0
H384 H 0.89565 0.85618 0.56667 0.0
H385 H 0.93252 0.91114 0.54453 0.0
C386 C 0.50686 0.77053 0.6192 0.0
C387 C 0.47184 0.78113 0.57805 0.0
C388 C 0.47086 0.6929 0.54128 0.0
C389 C 0.50826 0.68366 0.58009 0.0
N390 N 0.57052 0.71806 0.64864 0.0
N391 N 0.43627 0.75586 0.4897 0.0
C392 C 0.52881 0.72385 0.61688 0.0
C393 C 0.45847 0.74352 0.53598 0.0
N394 N 0.51887 0.80457 0.6612 0.0
N395 N 0.44506 0.65296 0.51071 0.0
H396 H 0.43051 0.79287 0.48059 0.0
H397 H 0.43025 0.73035 0.45701 0.0
H398 H 0.4531 0.61545 0.51279 0.0
H399 H 0.41301 0.65649 0.48644 0.0
H400 H 0.53809 0.79561 0.69536 0.0
H401 H 0.50741 0.84083 0.66342 0.0
H402 H 0.59072 0.74787 0.67252 0.0
H403 H 0.58812 0.68488 0.64714 0.0
C404 C 0.91303 0.97243 0.76104 0.0
C405 C 0.92798 0.92772 0.78412 0.0
C406 C 0.97664 0.91492 0.70547 0.0
C407 C 0.95736 0.95618 0.68122 0.0
N408 N 0.89795 0.01706 0.68199 0.0
N409 N 0.00514 0.88806 0.78888 0.0
C410 C 0.9217 0.98164 0.70756 0.0
C411 C 0.96783 0.90598 0.75915 0.0
N412 N 0.90111 0.0118 0.7924 0.0
N413 N 0.00592 0.88584 0.67797 0.0
H414 H 0.00972 0.89644 0.82913 0.0
H415 H 0.03685 0.87496 0.77324 0.0
H416 H 0.01276 0.89205 0.63882 0.0
H417 H 0.0184 0.85291 0.69249 0.0
H418 H 0.89416 0.04703 0.77836 0.0
H419 H 0.9068 0.01238 0.83303 0.0
H420 H 0.86862 0.03432 0.69787 0.0
H421 H 0.9044 0.02476 0.64303 0.0
C422 C 0.59774 0.07742 0.27736 0.0
C423 C 0.64957 0.07235 0.29041 0.0
C424 C 0.65703 0.03727 0.20134 0.0
C425 C 0.61029 0.05401 0.18554 0.0
N426 N 0.53175 0.08323 0.20957 0.0
N427 N 0.7023 0.00609 0.27429 0.0
C428 C 0.57889 0.07116 0.22415 0.0
C429 C 0.67311 0.04072 0.25536 0.0
N430 N 0.5657 0.08355 0.31652 0.0
N431 N 0.6863 0.0184 0.16509 0.0
H432 H 0.70054 0.99564 0.31304 0.0
H433 H 0.71833 0.98038 0.25027 0.0
H434 H 0.67375 0.01245 0.12589 0.0
H435 H 0.72334 0.01088 0.17412 0.0
H436 H 0.52653 0.08351 0.31035 0.0
H437 H 0.57778 0.08252 0.35584 0.0
H438 H 0.51029 0.10321 0.23407 0.0
H439 H 0.51481 0.07452 0.17203 0.0
C440 C 0.39907 0.57791 0.33661 0.0
C441 C 0.42073 0.6268 0.32114 0.0
C442 C 0.48339 0.63496 0.39505 0.0
C443 C 0.47094 0.5814 0.40066 0.0
N444 N 0.41255 0.50339 0.3861 0.0
N445 N 0.46785 0.70964 0.34652 0.0
C446 C 0.42587 0.5539 0.37582 0.0
C447 C 0.45714 0.65838 0.35491 0.0
N448 N 0.35431 0.55444 0.31233 0.0
N449 N 0.52392 0.66137 0.42432 0.0
H450 H 0.44839 0.72684 0.31716 0.0
H451 H 0.49302 0.7357 0.37026 0.0
H452 H 0.54328 0.64389 0.45353 0.0
H453 H 0.53837 0.69974 0.42014 0.0
H454 H 0.33515 0.51938 0.32272 0.0
H455 H 0.33416 0.57284 0.28439 0.0
H456 H 0.38311 0.47889 0.36593 0.0
H457 H 0.43242 0.48597 0.41509 0.0
C458 C 0.12235 0.47412 0.79118 0.0
C459 C 0.1229 0.42082 0.77839 0.0
C460 C 0.10651 0.40406 0.87009 0.0
C461 C 0.1084 0.45751 0.8811 0.0
N462 N 0.14267 0.54213 0.85849 0.0
N463 N 0.13472 0.33848 0.81385 0.0
C464 C 0.12813 0.49155 0.84412 0.0
C465 C 0.12107 0.38644 0.82033 0.0
N466 N 0.11054 0.50707 0.75403 0.0
N467 N 0.08783 0.37035 0.90571 0.0
H468 H 0.15064 0.32616 0.78005 0.0
H469 H 0.13618 0.31373 0.84449 0.0
H470 H 0.0781 0.38314 0.94249 0.0
H471 H 0.08009 0.33074 0.89751 0.0
H472 H 0.10691 0.54543 0.76316 0.0
H473 H 0.09787 0.49447 0.71585 0.0
H474 H 0.15788 0.56871 0.83231 0.0
H475 H 0.14317 0.55531 0.89759 0.0
C476 C 0.74814 0.9255 0.8873 0.0
C477 C 0.7932 0.93227 0.92096 0.0
C478 C 0.74534 0.97509 0.98704 0.0
C479 C 0.70152 0.9702 0.95172 0.0
N480 N 0.66972 0.95793 0.86187 0.0
N481 N 0.83733 0.97528 0.99882 0.0
C482 C 0.70625 0.95151 0.89967 0.0
C483 C 0.79264 0.96063 0.96976 0.0
N484 N 0.7435 0.89129 0.84511 0.0
N485 N 0.74156 0.99229 0.03731 0.0
H486 H 0.87244 0.96697 0.98674 0.0
H487 H 0.84024 0.99964 0.03226 0.0
H488 H 0.70891 0.00635 0.04918 0.0
H489 H 0.76972 0.99093 0.06695 0.0
H490 H 0.70954 0.88155 0.82228 0.0
H491 H 0.77128 0.86811 0.83665 0.0
H492 H 0.6731 0.94876 0.82235 0.0
H493 H 0.63912 0.97776 0.86962 0.0
C494 C 0.83096 0.12957 0.45759 0.0
C495 C 0.78545 0.09571 0.44226 0.0
C496 C 0.82646 0.02306 0.47284 0.0
C497 C 0.87229 0.05715 0.48618 0.0
N498 N 0.90573 0.14297 0.51723 0.0
N499 N 0.73498 0.0132 0.45227 0.0
C500 C 0.87074 0.11056 0.48686 0.0
C501 C 0.78159 0.04323 0.45529 0.0
N502 N 0.83794 0.17897 0.44191 0.0
N503 N 0.82622 0.97128 0.47639 0.0
H504 H 0.70113 0.0274 0.44192 0.0
H505 H 0.72909 0.97586 0.46507 0.0
H506 H 0.85683 0.95595 0.49405 0.0
H507 H 0.79665 0.94383 0.46057 0.0
H508 H 0.87251 0.20321 0.44878 0.0
H509 H 0.8115 0.19395 0.41755 0.0
H510 H 0.90349 0.18217 0.52235 0.0
H511 H 0.93088 0.12882 0.5437 0.0
C512 C 0.29836 0.5831 0.08739 0.0
C513 C 0.29752 0.63688 0.08474 0.0
C514 C 0.21153 0.61884 0.04188 0.0
C515 C 0.20747 0.56848 0.06011 0.0
N516 N 0.24856 0.49844 0.09068 0.0
N517 N 0.25509 0.7063 0.05266 0.0
C518 C 0.25187 0.54898 0.07883 0.0
C519 C 0.25527 0.65488 0.05841 0.0
N520 N 0.34345 0.56549 0.09974 0.0
N521 N 0.17338 0.63213 1.00969 0.0
H522 H 0.28618 0.73399 0.0637 0.0
H523 H 0.22313 0.72195 0.03906 0.0
H524 H 0.14187 0.60564 0.99645 0.0
H525 H 0.17567 0.66707 0.99158 0.0
H526 H 0.34765 0.52665 0.09963 0.0
H527 H 0.37776 0.59043 0.1056 0.0
H528 H 0.27774 0.4827 0.11022 0.0
H529 H 0.21539 0.47243 0.08174 0.0
C530 C 0.32245 0.41927 0.59963 0.0
C531 C 0.29437 0.46121 0.5962 0.0
C532 C 0.35775 0.50426 0.54143 0.0
C533 C 0.39226 0.47204 0.56082 0.0
N534 N 0.40635 0.39203 0.59698 0.0
N535 N 0.27755 0.53723 0.55288 0.0
C536 C 0.37372 0.42636 0.58506 0.0
C537 C 0.30892 0.50106 0.56222 0.0
N538 N 0.30043 0.37407 0.61822 0.0
N539 N 0.37222 0.53803 0.50431 0.0
H540 H 0.24048 0.53383 0.5656 0.0
H541 H 0.28842 0.57081 0.5337 0.0
H542 H 0.4072 0.53862 0.48755 0.0
H543 H 0.34804 0.56096 0.48632 0.0
H544 H 0.31799 0.34099 0.61927 0.0
H545 H 0.26235 0.36865 0.62792 0.0
H546 H 0.39711 0.36057 0.61978 0.0
H547 H 0.44356 0.39632 0.58446 0.0
C548 C 0.91279 0.68549 0.95598 0.0
C549 C 0.94005 0.73465 0.97112 0.0
C550 C 0.01319 0.69053 1.00087 0.0
C551 C 0.98269 0.64188 0.99083 0.0
N552 N 0.89709 0.59707 0.97954 0.0
N553 N 0.01606 0.7833 0.01421 0.0
C554 C 0.93052 0.64077 0.97484 0.0
C555 C 0.9904 0.73701 0.99539 0.0
N556 N 0.87085 0.68076 0.92195 0.0
N557 N 0.06378 0.69244 0.01494 0.0
H558 H 1.00192 0.81801 1.00922 0.0
H559 H 0.05004 0.78699 0.03726 0.0
H560 H 0.07997 0.65936 0.02251 0.0
H561 H 0.08969 0.7262 0.01704 0.0
H562 H 0.85197 0.64504 0.90762 0.0
H563 H 0.85969 0.71181 0.90243 0.0
H564 H 0.85782 0.59527 0.97167 0.0
H565 H 0.90823 0.56508 0.9975 0.0
C566 C 0.43321 0.8374 0.12844 0.0
C567 C 0.4416 0.7851 0.12255 0.0
C568 C 0.52193 0.81246 0.0826 0.0
C569 C 0.50702 0.86179 0.07726 0.0
N570 N 0.46787 0.92736 0.11991 0.0
N571 N 0.49701 0.72278 0.1001 0.0
C572 C 0.46838 0.87652 0.10782 0.0
C573 C 0.48751 0.77269 0.10237 0.0
N574 N 0.3906 0.84921 0.15141 0.0
N575 N 0.56944 0.80459 0.06854 0.0
H576 H 0.47358 0.69296 0.11621 0.0
H577 H 0.52679 0.71037 0.08036 0.0
H578 H 0.59523 0.83453 0.05558 0.0
H579 H 0.58491 0.77077 0.07423 0.0
H580 H 0.38031 0.88602 0.15338 0.0
H581 H 0.36411 0.82153 0.16679 0.0
H582 H 0.44438 0.94089 0.14709 0.0
H583 H 0.49529 0.95556 0.10684 0.0
C584 C 0.14876 0.25624 0.63521 0.0
C585 C 0.10924 0.2872 0.62757 0.0
C586 C 0.05599 0.21457 0.57934 0.0
C587 C 0.09215 0.18267 0.59422 0.0
N588 N 0.18017 0.17585 0.61336 0.0
N589 N 0.0268 0.29826 0.58874 0.0
C590 C 0.14129 0.20501 0.61393 0.0
C591 C 0.06348 0.26734 0.59767 0.0
N592 N 0.19194 0.27465 0.66564 0.0
N593 N 0.01676 0.19474 0.54499 0.0
H594 H 0.03184 0.33708 0.60109 0.0
H595 H 0.99072 0.28507 0.57134 0.0
H596 H 0.01431 0.15707 0.52934 0.0
H597 H 0.99152 0.21684 0.5275 0.0
H598 H 0.21941 0.25195 0.67718 0.0
H599 H 0.19876 0.31172 0.68303 0.0
H600 H 0.21821 0.19033 0.6233 0.0
H601 H 0.17432 0.13799 0.59768 0.0
C602 C 0.58587 0.2988 0.41009 0.0
C603 C 0.60627 0.27392 0.45287 0.0
C604 C 0.59278 0.34689 0.51199 0.0
C605 C 0.57523 0.37282 0.4684 0.0
N606 N 0.53292 0.36161 0.38238 0.0
N607 N 0.64191 0.28146 0.54211 0.0
C608 C 0.56544 0.34525 0.41926 0.0
C609 C 0.61303 0.29976 0.50327 0.0
N610 N 0.58823 0.27963 0.36002 0.0
N611 N 0.58674 0.36447 0.56184 0.0
H612 H 0.66138 0.24997 0.53654 0.0
H613 H 0.65222 0.30139 0.5779 0.0
H614 H 0.56798 0.39564 0.57081 0.0
H615 H 0.59318 0.34339 0.59446 0.0
H616 H 0.58007 0.3 0.3273 0.0
H617 H 0.60346 0.24615 0.35075 0.0
H618 H 0.52049 0.34065 0.34759 0.0
H619 H 0.5129 0.39247 0.38978 0.0
loop_
_geom_bond_atom_site_label_1
_geom_bond_atom_site_label_2
_geom_bond_distance
_geom_bond_site_symmetry_2
_ccdc_geom_bond_type
H0 C7 0.929 . S
H1 C10 0.930 . S
H2 C12 0.929 . S
H3 C4 0.969 . S
C4 H3 0.969 . S
C4 O5 1.550 . S
C4 H6 0.973 . S
O5 C4 1.550 . S
O5 C11 1.412 . S
H6 C4 0.973 . S
C7 H0 0.929 . S
C7 C8 1.400 . S
C7 C9 1.364 . S
C8 C7 1.400 . S
C8 C12 1.377 . S
C9 C7 1.364 . S
C9 C10 1.374 . S
C10 H1 0.930 . S
C10 C9 1.374 . S
C10 C11 1.383 . S
C11 O5 1.412 . S
C11 C10 1.383 . S
C11 C12 1.394 . S
C12 H2 0.929 . S
C12 C8 1.377 . S
C12 C11 1.394 . S
H13 C20 0.929 . S
H14 C23 0.930 . S
H15 C25 0.929 . S
H16 C17 0.969 . S
C17 H16 0.969 . S
C17 O18 1.550 . S
C17 H19 0.973 . S
O18 C17 1.550 . S
O18 C24 1.412 . S
H19 C17 0.973 . S
C20 H13 0.929 . S
C20 C21 1.400 . S
C20 C22 1.364 . S
C21 C20 1.400 . S
C21 C25 1.377 . S
C22 C20 1.364 . S
C22 C23 1.374 . S
C23 H14 0.930 . S
C23 C22 1.374 . S
C23 C24 1.383 . S
C24 O18 1.412 . S
C24 C23 1.383 . S
C24 C25 1.394 . S
C25 H15 0.929 . S
C25 C21 1.377 . S
C25 C24 1.394 . S
H26 C33 0.929 . S
H27 C36 0.930 . S
H28 C38 0.929 . S
H29 C30 0.969 . S
C30 H29 0.969 . S
C30 O31 1.550 . S
C30 H32 0.973 . S
O31 C30 1.550 . S
O31 C37 1.412 . S
H32 C30 0.973 . S
C33 H26 0.929 . S
C33 C34 1.400 . S
C33 C35 1.364 . S
C34 C33 1.400 . S
C34 C38 1.377 . S
C35 C33 1.364 . S
C35 C36 1.374 . S
C36 H27 0.930 . S
C36 C35 1.374 . S
C36 C37 1.383 . S
C37 O31 1.412 . S
C37 C36 1.383 . S
C37 C38 1.394 . S
C38 H28 0.929 . S
C38 C34 1.377 . S
C38 C37 1.394 . S
H39 C46 0.929 . S
H40 C49 0.930 . S
H41 C51 0.929 . S
H42 C43 0.969 . S
C43 H42 0.969 . S
C43 O44 1.550 . S
C43 H45 0.973 . S
O44 C43 1.550 . S
O44 C50 1.412 . S
H45 C43 0.973 . S
C46 H39 0.929 . S
C46 C47 1.400 . S
C46 C48 1.364 . S
C47 C46 1.400 . S
C47 C51 1.377 . S
C48 C46 1.364 . S
C48 C49 1.374 . S
C49 H40 0.930 . S
C49 C48 1.374 . S
C49 C50 1.383 . S
C50 O44 1.412 . S
C50 C49 1.383 . S
C50 C51 1.394 . S
C51 H41 0.929 . S
C51 C47 1.377 . S
C51 C50 1.394 . S
H52 C59 0.929 . S
H53 C62 0.930 . S
H54 C64 0.929 . S
H55 C56 0.969 . S
C56 H55 0.969 . S
C56 O57 1.550 . S
C56 H58 0.973 . S
O57 C56 1.550 . S
O57 C63 1.412 . S
H58 C56 0.973 . S
C59 H52 0.929 . S
C59 C60 1.400 . S
C59 C61 1.364 . S
C60 C59 1.400 . S
C60 C64 1.377 . S
C61 C59 1.364 . S
C61 C62 1.374 . S
C62 H53 0.930 . S
C62 C61 1.374 . S
C62 C63 1.383 . S
C63 O57 1.412 . S
C63 C62 1.383 . S
C63 C64 1.394 . S
C64 H54 0.929 . S
C64 C60 1.377 . S
C64 C63 1.394 . S
H65 C72 0.929 . S
H66 C75 0.930 . S
H67 C77 0.929 . S
H68 C69 0.969 . S
C69 H68 0.969 . S
C69 O70 1.550 . S
C69 H71 0.973 . S
O70 C69 1.550 . S
O70 C76 1.412 . S
H71 C69 0.973 . S
C72 H65 0.929 . S
C72 C73 1.400 . S
C72 C74 1.364 . S
C73 C72 1.400 . S
C73 C77 1.377 . S
C74 C72 1.364 . S
C74 C75 1.374 . S
C75 H66 0.930 . S
C75 C74 1.374 . S
C75 C76 1.383 . S
C76 O70 1.412 . S
C76 C75 1.383 . S
C76 C77 1.394 . S
C77 H67 0.929 . S
C77 C73 1.377 . S
C77 C76 1.394 . S
H78 C85 0.929 . S
H79 C88 0.930 . S
H80 C90 0.929 . S
H81 C82 0.969 . S
C82 H81 0.969 . S
C82 O83 1.550 . S
C82 H84 0.973 . S
O83 C82 1.550 . S
O83 C89 1.412 . S
H84 C82 0.973 . S
C85 H78 0.929 . S
C85 C86 1.400 . S
C85 C87 1.364 . S
C86 C85 1.400 . S
C86 C90 1.377 . S
C87 C85 1.364 . S
C87 C88 1.374 . S
C88 H79 0.930 . S
C88 C87 1.374 . S
C88 C89 1.383 . S
C89 O83 1.412 . S
C89 C88 1.383 . S
C89 C90 1.394 . S
C90 H80 0.929 . S
C90 C86 1.377 . S
C90 C89 1.394 . S
H91 C98 0.929 . S
H92 C101 0.930 . S
H93 C103 0.929 . S
H94 C95 0.969 . S
C95 H94 0.969 . S
C95 O96 1.550 . S
C95 H97 0.973 . S
O96 C95 1.550 . S
O96 C102 1.412 . S
H97 C95 0.973 . S
C98 H91 0.929 . S
C98 C99 1.400 . S
C98 C100 1.364 . S
C99 C98 1.400 . S
C99 C103 1.377 . S
C100 C98 1.364 . S
C100 C101 1.374 . S
C101 H92 0.930 . S
C101 C100 1.374 . S
C101 C102 1.383 . S
C102 O96 1.412 . S
C102 C101 1.383 . S
C102 C103 1.394 . S
C103 H93 0.929 . S
C103 C99 1.377 . S
C103 C102 1.394 . S
O104 Mn105 2.163 1_655 S
O104 C118 1.244 . S
Mn105 O104 2.163 1_455 S
Mn105 O108 2.160 1_545 S
Mn105 O109 2.221 . S
Mn105 O111 2.163 1_445 S
Mn105 O113 2.160 . S
Mn105 O123 2.221 1_445 S
O106 Mn107 2.087 1_545 S
O106 C118 1.256 . S
Mn107 O106 2.087 1_565 S
Mn107 O114 2.089 1_565 S
Mn107 O123 2.290 . S
Mn107 O124 2.251 . S
O108 Mn105 2.160 1_565 S
O108 C119 1.239 . S
O109 Mn105 2.221 . S
O109 Mn110 2.290 . S
O109 C120 1.278 . S
Mn110 O109 2.290 . S
Mn110 O112 2.089 . S
Mn110 O115 2.251 . S
Mn110 O116 2.087 . S
O111 Mn105 2.163 1_665 S
O111 C121 1.244 . S
O112 Mn110 2.089 . S
O112 C119 1.256 1_545 S
O113 Mn105 2.160 . S
O113 C122 1.239 . S
O114 Mn107 2.089 1_545 S
O114 C122 1.256 1_655 S
O115 Mn110 2.251 . S
O115 C120 1.241 . S
O116 Mn110 2.087 . S
O116 C121 1.256 1_445 S
C117 O123 1.278 . S
C117 O124 1.241 . S
C118 O104 1.244 . S
C118 O106 1.256 . S
C119 O108 1.239 . S
C119 O112 1.256 1_565 S
C120 O109 1.278 . S
C120 O115 1.241 . S
C121 O111 1.244 . S
C121 O116 1.256 1_665 S
C122 O113 1.239 . S
C122 O114 1.256 1_455 S
O123 Mn105 2.221 1_665 S
O123 Mn107 2.290 . S
O123 C117 1.278 . S
O124 Mn107 2.251 . S
O124 C117 1.241 . S
O125 Mn126 2.163 1_556 S
O125 C139 1.244 1_545 S
Mn126 O125 2.163 1_554 S
Mn126 O129 2.160 . S
Mn126 O130 2.221 1_554 S
Mn126 O132 2.163 . S
Mn126 O134 2.160 1_554 S
Mn126 O144 2.221 1_545 S
O127 Mn128 2.087 . S
O127 C139 1.256 . S
Mn128 O127 2.087 . S
Mn128 O135 2.089 . S
Mn128 O144 2.290 1_556 S
Mn128 O145 2.251 1_556 S
O129 Mn126 2.160 . S
O129 C140 1.239 . S
O130 Mn126 2.221 1_556 S
O130 Mn131 2.290 1_556 S
O130 C141 1.278 . S
Mn131 O130 2.290 1_554 S
Mn131 O133 2.089 . S
Mn131 O136 2.251 1_554 S
Mn131 O137 2.087 . S
O132 Mn126 2.163 . S
O132 C142 1.244 . S
O133 Mn131 2.089 . S
O133 C140 1.256 . S
O134 Mn126 2.160 1_556 S
O134 C143 1.239 1_545 S
O135 Mn128 2.089 . S
O135 C143 1.256 . S
O136 Mn131 2.251 1_556 S
O136 C141 1.241 . S
O137 Mn131 2.087 . S
O137 C142 1.256 . S
C138 O144 1.278 . S
C138 O145 1.241 . S
C139 O125 1.244 1_565 S
C139 O127 1.256 . S
C140 O129 1.239 . S
C140 O133 1.256 . S
C141 O130 1.278 . S
C141 O136 1.241 . S
C142 O132 1.244 . S
C142 O137 1.256 . S
C143 O134 1.239 1_565 S
C143 O135 1.256 . S
O144 Mn126 2.221 1_565 S
O144 Mn128 2.290 1_554 S
O144 C138 1.278 . S
O145 Mn128 2.251 1_554 S
O145 C138 1.241 . S
O146 Mn147 2.163 . S
O146 C160 1.244 . S
Mn147 O146 2.163 . S
Mn147 O150 2.160 . S
Mn147 O151 2.221 . S
Mn147 O153 2.163 . S
Mn147 O155 2.160 . S
Mn147 O165 2.221 . S
O148 Mn149 2.087 . S
O148 C160 1.256 . S
Mn149 O148 2.087 . S
Mn149 O156 2.089 . S
Mn149 O165 2.290 . S
Mn149 O166 2.251 . S
O150 Mn147 2.160 . S
O150 C161 1.239 . S
O151 Mn147 2.221 . S
O151 Mn152 2.290 . S
O151 C162 1.278 . S
Mn152 O151 2.290 . S
Mn152 O154 2.089 . S
Mn152 O157 2.251 . S
Mn152 O158 2.087 . S
O153 Mn147 2.163 . S
O153 C163 1.244 . S
O154 Mn152 2.089 . S
O154 C161 1.256 . S
O155 Mn147 2.160 . S
O155 C164 1.239 . S
O156 Mn149 2.089 . S
O156 C164 1.256 . S
O157 Mn152 2.251 . S
O157 C162 1.241 . S
O158 Mn152 2.087 . S
O158 C163 1.256 . S
C159 O165 1.278 . S
C159 O166 1.241 . S
C160 O146 1.244 . S
C160 O148 1.256 . S
C161 O150 1.239 . S
C161 O154 1.256 . S
C162 O151 1.278 . S
C162 O157 1.241 . S
C163 O153 1.244 . S
C163 O158 1.256 . S
C164 O155 1.239 . S
C164 O156 1.256 . S
O165 Mn147 2.221 . S
O165 Mn149 2.290 . S
O165 C159 1.278 . S
O166 Mn149 2.251 . S
O166 C159 1.241 . S
O167 Mn168 2.163 1_655 S
O167 C181 1.244 1_554 S
Mn168 O167 2.163 1_455 S
Mn168 O171 2.160 . S
Mn168 O172 2.221 . S
Mn168 O174 2.163 . S
Mn168 O176 2.160 . S
Mn168 O186 2.221 1_554 S
O169 Mn170 2.087 . S
O169 C181 1.256 . S
Mn170 O169 2.087 . S
Mn170 O177 2.089 . S
Mn170 O186 2.290 1_655 S
Mn170 O187 2.251 1_655 S
O171 Mn168 2.160 . S
O171 C182 1.239 . S
O172 Mn168 2.221 . S
O172 Mn173 2.290 . S
O172 C183 1.278 1_455 S
Mn173 O172 2.290 . S
Mn173 O175 2.089 . S
Mn173 O178 2.251 . S
Mn173 O179 2.087 . S
O174 Mn168 2.163 . S
O174 C184 1.244 . S
O175 Mn173 2.089 . S
O175 C182 1.256 . S
O176 Mn168 2.160 . S
O176 C185 1.239 1_454 S
O177 Mn170 2.089 . S
O177 C185 1.256 . S
O178 Mn173 2.251 . S
O178 C183 1.241 1_455 S
O179 Mn173 2.087 . S
O179 C184 1.256 . S
C180 O186 1.278 . S
C180 O187 1.241 . S
C181 O167 1.244 1_556 S
C181 O169 1.256 . S
C182 O171 1.239 . S
C182 O175 1.256 . S
C183 O172 1.278 1_655 S
C183 O178 1.241 1_655 S
C184 O174 1.244 . S
C184 O179 1.256 . S
C185 O176 1.239 1_656 S
C185 O177 1.256 . S
O186 Mn168 2.221 1_556 S
O186 Mn170 2.290 1_455 S
O186 C180 1.278 . S
O187 Mn170 2.251 1_455 S
O187 C180 1.241 . S
C188 C189 1.363 . S
C188 C194 1.379 . S
C188 N196 1.356 . S
C189 C188 1.363 . S
C189 C195 1.363 . S
C190 C191 1.363 . S
C190 C195 1.379 . S
C190 N197 1.356 . S
C191 C190 1.363 . S
C191 C194 1.363 . S
N192 C194 1.356 1_655 S
N192 H204 0.984 . S
N192 H205 0.985 . S
N193 C195 1.356 . S
N193 H198 0.984 . S
N193 H199 0.985 . S
C194 C188 1.379 . S
C194 C191 1.363 . S
C194 N192 1.356 1_455 S
C195 C189 1.363 . S
C195 C190 1.379 . S
C195 N193 1.356 . S
N196 C188 1.356 . S
N196 H202 0.984 . S
N196 H203 0.984 . S
N197 C190 1.356 . S
N197 H200 0.984 . S
N197 H201 0.985 . S
H198 N193 0.984 . S
H199 N193 0.985 . S
H200 N197 0.984 . S
H201 N197 0.985 . S
H202 N196 0.984 . S
H203 N196 0.984 . S
H204 N192 0.984 . S
H205 N192 0.985 . S
C206 C207 1.363 1_545 S
C206 C212 1.379 . S
C206 N214 1.356 . S
C207 C206 1.363 1_565 S
C207 C213 1.363 . S
C208 C209 1.363 . S
C208 C213 1.379 . S
C208 N215 1.356 . S
C209 C208 1.363 . S
C209 C212 1.363 1_565 S
N210 C212 1.356 . S
N210 H222 0.984 . S
N210 H223 0.985 . S
N211 C213 1.356 . S
N211 H216 0.984 . S
N211 H217 0.985 . S
C212 C206 1.379 . S
C212 C209 1.363 1_545 S
C212 N210 1.356 . S
C213 C207 1.363 . S
C213 C208 1.379 . S
C213 N211 1.356 . S
N214 C206 1.356 . S
N214 H220 0.984 . S
N214 H221 0.984 . S
N215 C208 1.356 . S
N215 H218 0.984 . S
N215 H219 0.985 . S
H216 N211 0.984 . S
H217 N211 0.985 . S
H218 N215 0.984 . S
H219 N215 0.985 . S
H220 N214 0.984 . S
H221 N214 0.984 . S
H222 N210 0.984 . S
H223 N210 0.985 . S
C224 C225 1.363 . S
C224 C230 1.379 . S
C224 N232 1.356 . S
C225 C224 1.363 . S
C225 C231 1.363 . S
C226 C227 1.363 . S
C226 C231 1.379 . S
C226 N233 1.356 . S
C227 C226 1.363 . S
C227 C230 1.363 . S
N228 C230 1.356 . S
N228 H240 0.984 . S
N228 H241 0.985 . S
N229 C231 1.356 . S
N229 H234 0.984 . S
N229 H235 0.985 . S
C230 C224 1.379 . S
C230 C227 1.363 . S
C230 N228 1.356 . S
C231 C225 1.363 . S
C231 C226 1.379 . S
C231 N229 1.356 . S
N232 C224 1.356 . S
N232 H238 0.984 . S
N232 H239 0.984 . S
N233 C226 1.356 . S
N233 H236 0.984 . S
N233 H237 0.985 . S
H234 N229 0.984 . S
H235 N229 0.985 . S
H236 N233 0.984 . S
H237 N233 0.985 . S
H238 N232 0.984 . S
H239 N232 0.984 . S
H240 N228 0.984 . S
H241 N228 0.985 . S
C242 C243 1.363 . S
C242 C248 1.379 . S
C242 N250 1.356 . S
C243 C242 1.363 . S
C243 C249 1.363 . S
C244 C245 1.363 . S
C244 C249 1.379 . S
C244 N251 1.356 . S
C245 C244 1.363 . S
C245 C248 1.363 . S
N246 C248 1.349 1_455 S
N246 H258 0.991 . S
N246 H259 0.984 . S
N247 C249 1.356 . S
N247 H252 0.984 . S
N247 H253 0.985 . S
C248 C242 1.379 . S
C248 C245 1.363 . S
C248 N246 1.349 1_655 S
C249 C243 1.363 . S
C249 C244 1.379 . S
C249 N247 1.356 . S
N250 C242 1.356 . S
N250 H256 0.991 . S
N250 H257 0.984 . S
N251 C244 1.356 . S
N251 H254 0.984 . S
N251 H255 0.985 . S
H252 N247 0.984 . S
H253 N247 0.985 . S
H254 N251 0.984 . S
H255 N251 0.985 . S
H256 N250 0.991 . S
H257 N250 0.984 . S
H258 N246 0.991 . S
H259 N246 0.984 . S
C260 C261 1.363 . S
C260 C266 1.379 . S
C260 N268 1.362 . S
C261 C260 1.363 . S
C261 C267 1.363 . S
C262 C263 1.363 . S
C262 C267 1.379 . S
C262 N269 1.356 . S
C263 C262 1.363 . S
C263 C266 1.363 . S
N264 C266 1.356 1_565 S
N264 H276 0.984 . S
N264 H277 0.985 . S
N265 C267 1.356 . S
N265 H270 0.984 . S
N265 H271 0.985 . S
C266 C260 1.379 . S
C266 C263 1.363 . S
C266 N264 1.356 1_545 S
C267 C261 1.363 . S
C267 C262 1.379 . S
C267 N265 1.356 . S
N268 C260 1.362 . S
N268 H274 0.971 1_545 S
N268 H275 0.993 . S
N269 C262 1.356 . S
N269 H272 0.984 . S
N269 H273 0.985 . S
H270 N265 0.984 . S
H271 N265 0.985 . S
H272 N269 0.984 . S
H273 N269 0.985 . S
H274 N268 0.971 1_565 S
H275 N268 0.993 . S
H276 N264 0.984 . S
H277 N264 0.985 . S
C278 C279 1.363 . S
C278 C284 1.379 . S
C278 N286 1.356 . S
C279 C278 1.363 . S
C279 C285 1.363 . S
C280 C281 1.363 . S
C280 C285 1.379 . S
C280 N287 1.356 . S
C281 C280 1.363 . S
C281 C284 1.363 . S
N282 C284 1.356 . S
N282 H294 0.984 . S
N282 H295 0.985 . S
N283 C285 1.356 . S
N283 H288 0.984 . S
N283 H289 0.985 . S
C284 C278 1.379 . S
C284 C281 1.363 . S
C284 N282 1.356 . S
C285 C279 1.363 . S
C285 C280 1.379 . S
C285 N283 1.356 . S
N286 C278 1.356 . S
N286 H292 0.984 . S
N286 H293 0.984 . S
N287 C280 1.356 . S
N287 H290 0.984 . S
N287 H291 0.985 . S
H288 N283 0.984 . S
H289 N283 0.985 . S
H290 N287 0.984 . S
H291 N287 0.985 . S
H292 N286 0.984 . S
H293 N286 0.984 . S
H294 N282 0.984 . S
H295 N282 0.985 . S
C296 C297 1.363 . S
C296 C302 1.379 . S
C296 N304 1.356 . S
C297 C296 1.363 . S
C297 C303 1.363 . S
C298 C299 1.363 1_554 S
C298 C303 1.379 1_554 S
C298 N305 1.356 . S
C299 C298 1.363 1_556 S
C299 C302 1.363 . S
N300 C302 1.356 . S
N300 H312 0.984 . S
N300 H313 0.985 . S
N301 C303 1.356 1_554 S
N301 H306 0.984 1_554 S
N301 H307 0.985 . S
C302 C296 1.379 . S
C302 C299 1.363 . S
C302 N300 1.356 . S
C303 C297 1.363 . S
C303 C298 1.379 1_556 S
C303 N301 1.356 1_556 S
N304 C296 1.356 . S
N304 H310 0.984 . S
N304 H311 0.984 . S
N305 C298 1.356 . S
N305 H308 0.984 . S
N305 H309 0.985 . S
H306 N301 0.984 1_556 S
H307 N301 0.985 . S
H308 N305 0.984 . S
H309 N305 0.985 . S
H310 N304 0.984 . S
H311 N304 0.984 . S
H312 N300 0.984 . S
H313 N300 0.985 . S
C314 C315 1.363 . S
C314 C320 1.379 . S
C314 N322 1.356 . S
C315 C314 1.363 . S
C315 C321 1.363 . S
C316 C317 1.363 . S
C316 C321 1.379 . S
C316 N323 1.356 . S
C317 C316 1.363 . S
C317 C320 1.363 . S
N318 C320 1.356 . S
N318 H330 0.984 . S
N318 H331 0.985 . S
N319 C321 1.356 . S
N319 H324 0.984 . S
N319 H325 0.985 . S
C320 C314 1.379 . S
C320 C317 1.363 . S
C320 N318 1.356 . S
C321 C315 1.363 . S
C321 C316 1.379 . S
C321 N319 1.356 . S
N322 C314 1.356 . S
N322 H328 0.984 . S
N322 H329 0.984 . S
N323 C316 1.356 . S
N323 H326 0.984 . S
N323 H327 0.985 . S
H324 N319 0.984 . S
H325 N319 0.985 . S
H326 N323 0.984 . S
H327 N323 0.985 . S
H328 N322 0.984 . S
H329 N322 0.984 . S
H330 N318 0.984 . S
H331 N318 0.985 . S
C332 C333 1.363 . S
C332 C338 1.379 . S
C332 N340 1.356 . S
C333 C332 1.363 . S
C333 C339 1.363 . S
C334 C335 1.363 . S
C334 C339 1.379 . S
C334 N341 1.356 . S
C335 C334 1.363 . S
C335 C338 1.363 . S
N336 C338 1.356 . S
N336 H348 0.984 1_554 S
N336 H349 0.985 . S
N337 C339 1.356 . S
N337 H342 0.984 . S
N337 H343 0.985 . S
C338 C332 1.379 . S
C338 C335 1.363 . S
C338 N336 1.356 . S
C339 C333 1.363 . S
C339 C334 1.379 . S
C339 N337 1.356 . S
N340 C332 1.356 . S
N340 H346 0.984 . S
N340 H347 0.984 . S
N341 C334 1.356 . S
N341 H344 0.984 . S
N341 H345 0.985 . S
H342 N337 0.984 . S
H343 N337 0.985 . S
H344 N341 0.984 . S
H345 N341 0.985 . S
H346 N340 0.984 . S
H347 N340 0.984 . S
H348 N336 0.984 1_556 S
H349 N336 0.985 . S
C350 C351 1.363 . S
C350 C356 1.379 . S
C350 N358 1.356 . S
C351 C350 1.363 . S
C351 C357 1.363 . S
C352 C353 1.363 . S
C352 C357 1.379 . S
C352 N359 1.356 . S
C353 C352 1.363 . S
C353 C356 1.363 . S
N354 C356 1.356 1_554 S
N354 H366 0.984 . S
N354 H367 0.985 . S
N355 C357 1.356 . S
N355 H360 0.984 . S
N355 H361 0.985 . S
C356 C350 1.379 . S
C356 C353 1.363 . S
C356 N354 1.356 1_556 S
C357 C351 1.363 . S
C357 C352 1.379 . S
C357 N355 1.356 . S
N358 C350 1.356 . S
N358 H364 0.984 1_556 S
N358 H365 0.984 . S
N359 C352 1.356 . S
N359 H362 0.984 . S
N359 H363 0.985 . S
H360 N355 0.984 . S
H361 N355 0.985 . S
H362 N359 0.984 . S
H363 N359 0.985 . S
H364 N358 0.984 1_554 S
H365 N358 0.984 . S
H366 N354 0.984 . S
H367 N354 0.985 . S
C368 C369 1.363 . S
C368 C374 1.379 . S
C368 N376 1.356 . S
C369 C368 1.363 . S
C369 C375 1.363 . S
C370 C371 1.363 . S
C370 C375 1.379 . S
C370 N377 1.356 1_655 S
C371 C370 1.363 . S
C371 C374 1.363 . S
N372 C374 1.356 . S
N372 H384 0.984 . S
N372 H385 0.985 . S
N373 C375 1.356 . S
N373 H378 0.984 . S
N373 H379 0.985 1_655 S
C374 C368 1.379 . S
C374 C371 1.363 . S
C374 N372 1.356 . S
C375 C369 1.363 . S
C375 C370 1.379 . S
C375 N373 1.356 . S
N376 C368 1.356 . S
N376 H382 0.984 . S
N376 H383 0.984 . S
N377 C370 1.356 1_455 S
N377 H380 0.984 . S
N377 H381 0.985 . S
H378 N373 0.984 . S
H379 N373 0.985 1_455 S
H380 N377 0.984 . S
H381 N377 0.985 . S
H382 N376 0.984 . S
H383 N376 0.984 . S
H384 N372 0.984 . S
H385 N372 0.985 . S
C386 C387 1.363 . S
C386 C392 1.379 . S
C386 N394 1.356 . S
C387 C386 1.363 . S
C387 C393 1.363 . S
C388 C389 1.363 . S
C388 C393 1.379 . S
C388 N395 1.356 . S
C389 C388 1.363 . S
C389 C392 1.363 . S
N390 C392 1.356 . S
N390 H402 0.984 . S
N390 H403 0.985 . S
N391 C393 1.356 . S
N391 H396 0.984 . S
N391 H397 0.985 . S
C392 C386 1.379 . S
C392 C389 1.363 . S
C392 N390 1.356 . S
C393 C387 1.363 . S
C393 C388 1.379 . S
C393 N391 1.356 . S
N394 C386 1.356 . S
N394 H400 0.984 . S
N394 H401 0.984 . S
N395 C388 1.356 . S
N395 H398 0.984 . S
N395 H399 0.985 . S
H396 N391 0.984 . S
H397 N391 0.985 . S
H398 N395 0.984 . S
H399 N395 0.985 . S
H400 N394 0.984 . S
H401 N394 0.984 . S
H402 N390 0.984 . S
H403 N390 0.985 . S
C404 C405 1.363 . S
C404 C410 1.379 . S
C404 N412 1.356 . S
C405 C404 1.363 . S
C405 C411 1.363 . S
C406 C407 1.363 . S
C406 C411 1.379 . S
C406 N413 1.356 1_655 S
C407 C406 1.363 . S
C407 C410 1.363 . S
N408 C410 1.356 1_545 S
N408 H420 0.984 . S
N408 H421 0.985 . S
N409 C411 1.356 . S
N409 H414 0.984 . S
N409 H415 0.985 1_655 S
C410 C404 1.379 . S
C410 C407 1.363 . S
C410 N408 1.356 1_565 S
C411 C405 1.363 . S
C411 C406 1.379 . S
C411 N409 1.356 . S
N412 C404 1.356 . S
N412 H418 0.984 1_565 S
N412 H419 0.984 . S
N413 C406 1.356 1_455 S
N413 H416 0.984 . S
N413 H417 0.985 . S
H414 N409 0.984 . S
H415 N409 0.985 1_455 S
H416 N413 0.984 . S
H417 N413 0.985 . S
H418 N412 0.984 1_545 S
H419 N412 0.984 . S
H420 N408 0.984 . S
H421 N408 0.985 . S
C422 C423 1.363 . S
C422 C428 1.379 . S
C422 N430 1.356 . S
C423 C422 1.363 . S
C423 C429 1.363 . S
C424 C425 1.363 . S
C424 C429 1.379 . S
C424 N431 1.356 . S
C425 C424 1.363 . S
C425 C428 1.363 . S
N426 C428 1.356 . S
N426 H438 0.984 . S
N426 H439 0.985 . S
N427 C429 1.356 . S
N427 H432 0.984 . S
N427 H433 0.985 . S
C428 C422 1.379 . S
C428 C425 1.363 . S
C428 N426 1.356 . S
C429 C423 1.363 . S
C429 C424 1.379 . S
C429 N427 1.356 . S
N430 C422 1.356 . S
N430 H436 0.984 . S
N430 H437 0.984 . S
N431 C424 1.356 . S
N431 H434 0.984 . S
N431 H435 0.985 1_545 S
H432 N427 0.984 . S
H433 N427 0.985 . S
H434 N431 0.984 . S
H435 N431 0.985 1_565 S
H436 N430 0.984 . S
H437 N430 0.984 . S
H438 N426 0.984 . S
H439 N426 0.985 . S
C440 C441 1.363 . S
C440 C446 1.379 . S
C440 N448 1.356 . S
C441 C440 1.363 . S
C441 C447 1.363 . S
C442 C443 1.363 . S
C442 C447 1.379 . S
C442 N449 1.356 . S
C443 C442 1.363 . S
C443 C446 1.363 . S
N444 C446 1.356 . S
N444 H456 0.984 . S
N444 H457 0.985 . S
N445 C447 1.356 . S
N445 H450 0.984 . S
N445 H451 0.985 . S
C446 C440 1.379 . S
C446 C443 1.363 . S
C446 N444 1.356 . S
C447 C441 1.363 . S
C447 C442 1.379 . S
C447 N445 1.356 . S
N448 C440 1.356 . S
N448 H454 0.984 . S
N448 H455 0.984 . S
N449 C442 1.356 . S
N449 H452 0.984 . S
N449 H453 0.985 . S
H450 N445 0.984 . S
H451 N445 0.985 . S
H452 N449 0.984 . S
H453 N449 0.985 . S
H454 N448 0.984 . S
H455 N448 0.984 . S
H456 N444 0.984 . S
H457 N444 0.985 . S
C458 C459 1.363 . S
C458 C464 1.379 . S
C458 N466 1.356 . S
C459 C458 1.363 . S
C459 C465 1.363 . S
C460 C461 1.363 . S
C460 C465 1.379 . S
C460 N467 1.356 . S
C461 C460 1.363 . S
C461 C464 1.363 . S
N462 C464 1.356 . S
N462 H474 0.984 . S
N462 H475 0.985 . S
N463 C465 1.356 . S
N463 H468 0.984 . S
N463 H469 0.985 . S
C464 C458 1.379 . S
C464 C461 1.363 . S
C464 N462 1.356 . S
C465 C459 1.363 . S
C465 C460 1.379 . S
C465 N463 1.356 . S
N466 C458 1.356 . S
N466 H472 0.984 . S
N466 H473 0.984 . S
N467 C460 1.356 . S
N467 H470 0.984 . S
N467 H471 0.985 . S
H468 N463 0.984 . S
H469 N463 0.985 . S
H470 N467 0.984 . S
H471 N467 0.985 . S
H472 N466 0.984 . S
H473 N466 0.984 . S
H474 N462 0.984 . S
H475 N462 0.985 . S
C476 C477 1.363 . S
C476 C482 1.379 . S
C476 N484 1.356 . S
C477 C476 1.363 . S
C477 C483 1.363 . S
C478 C479 1.363 . S
C478 C483 1.379 . S
C478 N485 1.356 1_566 S
C479 C478 1.363 . S
C479 C482 1.363 . S
N480 C482 1.356 . S
N480 H492 0.984 . S
N480 H493 0.985 . S
N481 C483 1.356 . S
N481 H486 0.984 . S
N481 H487 0.985 1_556 S
C482 C476 1.379 . S
C482 C479 1.363 . S
C482 N480 1.356 . S
C483 C477 1.363 . S
C483 C478 1.379 . S
C483 N481 1.356 . S
N484 C476 1.356 . S
N484 H490 0.984 . S
N484 H491 0.984 . S
N485 C478 1.356 1_544 S
N485 H488 0.984 . S
N485 H489 0.985 . S
H486 N481 0.984 . S
H487 N481 0.985 1_554 S
H488 N485 0.984 . S
H489 N485 0.985 . S
H490 N484 0.984 . S
H491 N484 0.984 . S
H492 N480 0.984 . S
H493 N480 0.985 . S
C494 C495 1.363 . S
C494 C500 1.379 . S
C494 N502 1.356 . S
C495 C494 1.363 . S
C495 C501 1.363 . S
C496 C497 1.363 . S
C496 C501 1.379 . S
C496 N503 1.355 . S
C497 C496 1.363 . S
C497 C500 1.363 . S
N498 C500 1.356 . S
N498 H510 0.984 . S
N498 H511 0.985 . S
N499 C501 1.356 . S
N499 H504 0.984 . S
N499 H505 0.985 1_545 S
C500 C494 1.379 . S
C500 C497 1.363 . S
C500 N498 1.356 . S
C501 C495 1.363 . S
C501 C496 1.379 . S
C501 N499 1.356 . S
N502 C494 1.356 . S
N502 H508 0.984 . S
N502 H509 0.984 . S
N503 C496 1.355 . S
N503 H506 0.985 . S
N503 H507 0.986 1_545 S
H504 N499 0.984 . S
H505 N499 0.985 1_565 S
H506 N503 0.985 . S
H507 N503 0.986 1_565 S
H508 N502 0.984 . S
H509 N502 0.984 . S
H510 N498 0.984 . S
H511 N498 0.985 . S
C512 C513 1.363 . S
C512 C518 1.379 . S
C512 N520 1.356 . S
C513 C512 1.363 . S
C513 C519 1.363 . S
C514 C515 1.363 . S
C514 C519 1.379 . S
C514 N521 1.356 . S
C515 C514 1.363 . S
C515 C518 1.363 . S
N516 C518 1.356 . S
N516 H528 0.984 . S
N516 H529 0.985 . S
N517 C519 1.356 . S
N517 H522 0.984 . S
N517 H523 0.985 . S
C518 C512 1.379 . S
C518 C515 1.363 . S
C518 N516 1.356 . S
C519 C513 1.363 . S
C519 C514 1.379 . S
C519 N517 1.356 . S
N520 C512 1.356 . S
N520 H526 0.984 . S
N520 H527 0.984 . S
N521 C514 1.356 . S
N521 H524 0.984 . S
N521 H525 0.985 1_554 S
H522 N517 0.984 . S
H523 N517 0.985 . S
H524 N521 0.984 . S
H525 N521 0.985 1_556 S
H526 N520 0.984 . S
H527 N520 0.984 . S
H528 N516 0.984 . S
H529 N516 0.985 . S
C530 C531 1.363 . S
C530 C536 1.379 . S
C530 N538 1.356 . S
C531 C530 1.363 . S
C531 C537 1.363 . S
C532 C533 1.363 . S
C532 C537 1.379 . S
C532 N539 1.356 . S
C533 C532 1.363 . S
C533 C536 1.363 . S
N534 C536 1.356 . S
N534 H546 0.984 . S
N534 H547 0.985 . S
N535 C537 1.356 . S
N535 H540 0.984 . S
N535 H541 0.985 . S
C536 C530 1.379 . S
C536 C533 1.363 . S
C536 N534 1.356 . S
C537 C531 1.363 . S
C537 C532 1.379 . S
C537 N535 1.356 . S
N538 C530 1.356 . S
N538 H544 0.984 . S
N538 H545 0.984 . S
N539 C532 1.356 . S
N539 H542 0.984 . S
N539 H543 0.985 . S
H540 N535 0.984 . S
H541 N535 0.985 . S
H542 N539 0.984 . S
H543 N539 0.985 . S
H544 N538 0.984 . S
H545 N538 0.984 . S
H546 N534 0.984 . S
H547 N534 0.985 . S
C548 C549 1.363 . S
C548 C554 1.379 . S
C548 N556 1.356 . S
C549 C548 1.363 . S
C549 C555 1.363 1_655 S
C550 C551 1.363 1_455 S
C550 C555 1.379 . S
C550 N557 1.356 1_556 S
C551 C550 1.363 1_655 S
C551 C554 1.363 . S
N552 C554 1.356 . S
N552 H564 0.984 . S
N552 H565 0.985 . S
N553 C555 1.356 . S
N553 H558 0.984 . S
N553 H559 0.985 1_556 S
C554 C548 1.379 . S
C554 C551 1.363 . S
C554 N552 1.356 . S
C555 C549 1.363 1_455 S
C555 C550 1.379 . S
C555 N553 1.356 . S
N556 C548 1.356 . S
N556 H562 0.984 . S
N556 H563 0.984 . S
N557 C550 1.356 1_554 S
N557 H560 0.984 . S
N557 H561 0.985 . S
H558 N553 0.984 . S
H559 N553 0.985 1_554 S
H560 N557 0.984 . S
H561 N557 0.985 . S
H562 N556 0.984 . S
H563 N556 0.984 . S
H564 N552 0.984 . S
H565 N552 0.985 . S
C566 C567 1.363 . S
C566 C572 1.379 . S
C566 N574 1.356 . S
C567 C566 1.363 . S
C567 C573 1.363 . S
C568 C569 1.363 . S
C568 C573 1.379 . S
C568 N575 1.350 1_554 S
C569 C568 1.363 . S
C569 C572 1.363 . S
N570 C572 1.356 . S
N570 H582 0.984 . S
N570 H583 0.985 . S
N571 C573 1.356 . S
N571 H576 0.984 . S
N571 H577 0.985 1_554 S
C572 C566 1.379 . S
C572 C569 1.363 . S
C572 N570 1.356 . S
C573 C567 1.363 . S
C573 C568 1.379 . S
C573 N571 1.356 . S
N574 C566 1.356 . S
N574 H580 0.984 . S
N574 H581 0.984 . S
N575 C568 1.350 1_556 S
N575 H578 0.985 1_556 S
N575 H579 0.991 . S
H576 N571 0.984 . S
H577 N571 0.985 1_556 S
H578 N575 0.985 1_554 S
H579 N575 0.991 . S
H580 N574 0.984 . S
H581 N574 0.984 . S
H582 N570 0.984 . S
H583 N570 0.985 . S
C584 C585 1.363 . S
C584 C590 1.379 . S
C584 N592 1.356 . S
C585 C584 1.363 . S
C585 C591 1.363 . S
C586 C587 1.363 . S
C586 C591 1.379 . S
C586 N593 1.356 . S
C587 C586 1.363 . S
C587 C590 1.363 . S
N588 C590 1.356 . S
N588 H600 0.984 . S
N588 H601 0.985 . S
N589 C591 1.356 . S
N589 H594 0.984 . S
N589 H595 0.985 . S
C590 C584 1.379 . S
C590 C587 1.363 . S
C590 N588 1.356 . S
C591 C585 1.363 . S
C591 C586 1.379 . S
C591 N589 1.356 . S
N592 C584 1.356 . S
N592 H598 0.984 . S
N592 H599 0.984 . S
N593 C586 1.356 . S
N593 H596 0.984 . S
N593 H597 0.985 1_455 S
H594 N589 0.984 . S
H595 N589 0.985 . S
H596 N593 0.984 . S
H597 N593 0.985 1_655 S
H598 N592 0.984 . S
H599 N592 0.984 . S
H600 N588 0.984 . S
H601 N588 0.985 . S
C602 C603 1.363 . S
C602 C608 1.379 . S
C602 N610 1.356 . S
C603 C602 1.363 . S
C603 C609 1.363 . S
C604 C605 1.363 . S
C604 C609 1.379 . S
C604 N611 1.356 . S
C605 C604 1.363 . S
C605 C608 1.363 . S
N606 C608 1.356 . S
N606 H618 0.984 . S
N606 H619 0.985 . S
N607 C609 1.356 . S
N607 H612 0.984 . S
N607 H613 0.985 . S
C608 C602 1.379 . S
C608 C605 1.363 . S
C608 N606 1.356 . S
C609 C603 1.363 . S
C609 C604 1.379 . S
C609 N607 1.356 . S
N610 C602 1.356 . S
N610 H616 0.984 . S
N610 H617 0.984 . S
N611 C604 1.356 . S
N611 H614 0.984 . S
N611 H615 0.985 . S
H612 N607 0.984 . S
H613 N607 0.985 . S
H614 N611 0.984 . S
H615 N611 0.985 . S
H616 N610 0.984 . S
H617 N610 0.984 . S
H618 N606 0.984 . S
H619 N606 0.985 . S
C189 C9 1.849 . S
C191 C122 1.801 . S
C207 C21 1.555 . S
C209 C139 1.542 . S
C227 C162 1.107 . S
C225 C30 1.365 . S
C243 C43 1.453 . S
C245 C183 1.269 . S
C263 C142 1.584 . S
C261 C4 1.589 . S
C281 C119 1.967 . S
C279 C22 2.009 . S
C299 C181 1.142 . S
C297 C34 1.197 . S
C317 C160 1.328 . S
C315 C48 1.349 . S
C333 C8 1.737 . S
C335 C184 1.667 . S
C353 C141 1.315 . S
C351 C35 1.654 . S
C369 C47 1.673 . S
C371 C117 1.533 . S
C387 C17 1.472 . S
C389 C163 1.461 . S
C407 C121 1.546 . S
C405 C60 1.606 . S
C423 C74 1.590 . S
C425 C140 1.549 . S
C441 C82 1.172 . S
C443 C159 0.999 . S
C459 C100 1.866 . S
C461 C180 1.487 . S
C477 C61 1.890 . S
C479 C143 1.839 . S
C497 C118 1.637 . S
C495 C73 1.714 . S
C515 C182 1.417 . S
C513 C87 1.459 . S
C533 C161 1.238 . S
C531 C95 1.256 . S
C549 C56 1.515 . S
C551 C185 1.556 . S
C569 C138 1.301 . S
C567 C86 1.581 . S
C587 C120 1.311 . S
C585 C99 1.472 . S
C603 C69 1.354 . S
C605 C164 1.383 . S
