# Generated by pormake.
# Topology cml, (3,6)-cn, num edge types: 1
# Building blocks:
#     Node 0, Type 0, BuildingBlock: VETTIZ_charged_linker_0, # of connection points: 3
#     Node 1, Type 0, BuildingBlock: VETTIZ_charged_linker_0, # of connection points: 3
#     Node 2, Type 0, BuildingBlock: VETTIZ_charged_linker_0, # of connection points: 3
#     Node 3, Type 0, BuildingBlock: VETTIZ_charged_linker_0, # of connection points: 3
#     Node 4, Type 0, BuildingBlock: VETTIZ_charged_linker_0, # of connection points: 3
#     Node 5, Type 0, BuildingBlock: VETTIZ_charged_linker_0, # of connection points: 3
#     Node 6, Type 0, BuildingBlock: VETTIZ_charged_linker_0, # of connection points: 3
#     Node 7, Type 0, BuildingBlock: VETTIZ_charged_linker_0, # of connection points: 3
#     Node 8, Type 1, BuildingBlock: OJICUG_clean_sbu_0, # of connection points: 6
#     Node 9, Type 1, BuildingBlock: OJICUG_clean_sbu_0, # of connection points: 6
#     Node 10, Type 1, BuildingBlock: OJICUG_clean_sbu_0, # of connection points: 6
#     Node 11, Type 1, BuildingBlock: OJICUG_clean_sbu_0, # of connection points: 6
#     Edge 12, Type (0, 1), BuildingBlock: KIFKEQ_clean_linker_1, # of connection points: 2
#     Edge 13, Type (0, 1), BuildingBlock: KIFKEQ_clean_linker_1, # of connection points: 2
#     Edge 14, Type (0, 1), BuildingBlock: KIFKEQ_clean_linker_1, # of connection points: 2
#     Edge 15, Type (0, 1), BuildingBlock: KIFKEQ_clean_linker_1, # of connection points: 2
#     Edge 16, Type (0, 1), BuildingBlock: KIFKEQ_clean_linker_1, # of connection points: 2
#     Edge 17, Type (0, 1), BuildingBlock: KIFKEQ_clean_linker_1, # of connection points: 2
#     Edge 18, Type (0, 1), BuildingBlock: KIFKEQ_clean_linker_1, # of connection points: 2
#     Edge 19, Type (0, 1), BuildingBlock: KIFKEQ_clean_linker_1, # of connection points: 2
#     Edge 20, Type (0, 1), BuildingBlock: KIFKEQ_clean_linker_1, # of connection points: 2
#     Edge 21, Type (0, 1), BuildingBlock: KIFKEQ_clean_linker_1, # of connection points: 2
#     Edge 22, Type (0, 1), BuildingBlock: KIFKEQ_clean_linker_1, # of connection points: 2
#     Edge 23, Type (0, 1), BuildingBlock: KIFKEQ_clean_linker_1, # of connection points: 2
#     Edge 24, Type (0, 1), BuildingBlock: KIFKEQ_clean_linker_1, # of connection points: 2
#     Edge 25, Type (0, 1), BuildingBlock: KIFKEQ_clean_linker_1, # of connection points: 2
#     Edge 26, Type (0, 1), BuildingBlock: KIFKEQ_clean_linker_1, # of connection points: 2
#     Edge 27, Type (0, 1), BuildingBlock: KIFKEQ_clean_linker_1, # of connection points: 2
#     Edge 28, Type (0, 1), BuildingBlock: KIFKEQ_clean_linker_1, # of connection points: 2
#     Edge 29, Type (0, 1), BuildingBlock: KIFKEQ_clean_linker_1, # of connection points: 2
#     Edge 30, Type (0, 1), BuildingBlock: KIFKEQ_clean_linker_1, # of connection points: 2
#     Edge 31, Type (0, 1), BuildingBlock: KIFKEQ_clean_linker_1, # of connection points: 2
#     Edge 32, Type (0, 1), BuildingBlock: KIFKEQ_clean_linker_1, # of connection points: 2
#     Edge 33, Type (0, 1), BuildingBlock: KIFKEQ_clean_linker_1, # of connection points: 2
#     Edge 34, Type (0, 1), BuildingBlock: KIFKEQ_clean_linker_1, # of connection points: 2
#     Edge 35, Type (0, 1), BuildingBlock: KIFKEQ_clean_linker_1, # of connection points: 2
# Relax obj value: 0.076
# Max RMSD: 0.088
# Mean RMSD: 0.083
data_MOF--net-cml--node1-OJICUG_clean_sbu_0--node2-VETTIZ_charged_linker_0--edge1-KIFKEQ_clean_linker_1
_symmetry_space_group_name_H-M    P1
_symmetry_Int_Tables_number       1
_symmetry_cell_setting            triclinic
loop_
_symmetry_equiv_pos_as_xyz
'x, y, z'
_cell_length_a     47.811765
_cell_length_b     48.336273
_cell_length_c     45.739439
_cell_angle_alpha  89.970856
_cell_angle_beta   89.88933
_cell_angle_gamma 89.931082
loop_
_atom_site_label
_atom_site_type_symbol
_atom_site_fract_x
_atom_site_fract_y
_atom_site_fract_z
_atom_type_partial_charge
C0 C 0.31065 0.34983 0.08816 0.0
C1 C 0.33506 0.36112 0.1004 0.0
C2 C 0.34492 0.38685 0.09032 0.0
C3 C 0.30854 0.38821 0.05388 0.0
C4 C 0.29779 0.36372 0.06475 0.0
C5 C 0.27277 0.35416 0.04749 0.0
H6 H 0.19192 0.36751 0.92675 0.0
C7 C 0.29253 0.39591 0.02764 0.0
C8 C 0.27141 0.37622 0.02373 0.0
H9 H 0.18328 0.30872 0.9975 0.0
H10 H 0.2218 0.33 0.02288 0.0
H11 H 0.20308 0.42153 0.96871 0.0
H12 H 0.25804 0.36529 0.92328 0.0
H13 H 0.27283 0.39839 0.9206 0.0
H14 H 0.23907 0.39189 0.90443 0.0
H15 H 0.20568 0.4202 0.92956 0.0
H16 H 0.22929 0.44092 0.95098 0.0
C17 C 0.24678 0.35498 0.06779 0.0
C18 C 0.27943 0.3252 0.03479 0.0
C19 C 0.32795 0.47459 0.96494 0.0
C20 C 0.32172 0.48355 0.93647 0.0
C21 C 0.29851 0.47199 0.92193 0.0
C22 C 0.28262 0.45096 0.93516 0.0
C23 C 0.29016 0.44128 0.9631 0.0
C24 C 0.31237 0.45331 0.9775 0.0
C25 C 0.31887 0.43944 0.00603 0.0
C26 C 0.29685 0.41696 0.00651 0.0
C27 C 0.2799 0.41825 0.98154 0.0
C28 C 0.31412 0.46076 0.03085 0.0
C29 C 0.3491 0.42758 0.00424 0.0
C30 C 0.19845 0.35917 0.94764 0.0
C31 C 0.18461 0.33641 0.96012 0.0
C32 C 0.19345 0.32641 0.98757 0.0
C33 C 0.21591 0.33867 0.00221 0.0
C34 C 0.22981 0.36112 0.98926 0.0
C35 C 0.22079 0.37128 0.96263 0.0
C36 C 0.23775 0.39567 0.95255 0.0
C37 C 0.25817 0.39863 0.97769 0.0
C38 C 0.25368 0.37805 -0.00109 0.0
C39 C 0.21806 0.421 0.95007 0.0
C40 C 0.25264 0.38769 0.92361 0.0
H41 H 0.34064 0.41975 0.06036 0.0
H42 H 0.30254 0.33019 0.09578 0.0
H43 H 0.301 0.32471 0.02563 0.0
H44 H 0.26558 0.31927 0.01661 0.0
H45 H 0.27805 0.30904 0.05201 0.0
H46 H 0.24917 0.37073 0.08534 0.0
H47 H 0.2433 0.33467 0.07857 0.0
H48 H 0.22754 0.36118 0.05606 0.0
H49 H 0.34527 0.48334 0.97704 0.0
H50 H 0.29324 0.47849 0.89996 0.0
H51 H 0.26554 0.44257 0.92284 0.0
H52 H 0.29548 0.47385 0.02623 0.0
H53 H 0.33241 0.47474 0.03313 0.0
H54 H 0.3097 0.45096 0.05219 0.0
H55 H 0.35582 0.4241 0.98122 0.0
H56 H 0.3511 0.40698 0.01454 0.0
H57 H 0.36447 0.44188 0.01433 0.0
H58 H 0.36333 0.39618 0.09997 0.0
C59 C 0.33172 0.40051 0.06732 0.0
C60 C 0.8046 0.62942 0.46016 0.0
C61 C 0.81815 0.65281 0.4716 0.0
C62 C 0.80911 0.66368 0.49863 0.0
C63 C 0.77239 0.62932 0.50126 0.0
C64 C 0.78185 0.61807 0.47528 0.0
C65 C 0.76445 0.59386 0.4656 0.0
H66 H 0.64624 0.51873 0.48083 0.0
C67 C 0.74709 0.61403 0.51027 0.0
C68 C 0.74237 0.59317 0.48949 0.0
H69 H 0.71191 0.5077 0.41691 0.0
H70 H 0.73905 0.54397 0.43992 0.0
H71 H 0.68831 0.52382 0.53569 0.0
H72 H 0.64598 0.58336 0.48178 0.0
H73 H 0.64477 0.59636 0.51755 0.0
H74 H 0.62822 0.56373 0.50945 0.0
H75 H 0.65155 0.53066 0.53893 0.0
H76 H 0.67709 0.55037 0.55909 0.0
C77 C 0.78307 0.56759 0.46589 0.0
C78 C 0.75177 0.60087 0.43535 0.0
C79 C 0.69155 0.64512 0.5996 0.0
C80 C 0.66553 0.63683 0.61092 0.0
C81 C 0.65083 0.61521 0.59725 0.0
C82 C 0.66179 0.60196 0.57261 0.0
C83 C 0.68764 0.61059 0.56123 0.0
C84 C 0.70205 0.6319 0.57457 0.0
C85 C 0.72848 0.63913 0.55833 0.0
C86 C 0.72784 0.61814 0.53358 0.0
C87 C 0.70391 0.60149 0.53554 0.0
C88 C 0.75358 0.63419 0.57903 0.0
C89 C 0.72571 0.66928 0.54706 0.0
C90 C 0.66647 0.52422 0.47182 0.0
C91 C 0.67691 0.51078 0.4469 0.0
C92 C 0.70354 0.51793 0.4361 0.0
C93 C 0.71913 0.53902 0.44939 0.0
C94 C 0.70798 0.55294 0.4738 0.0
C95 C 0.68239 0.54494 0.48501 0.0
C96 C 0.67432 0.56106 0.51179 0.0
C97 C 0.69908 0.58043 0.51456 0.0
C98 C 0.7185 0.57591 0.49201 0.0
C99 C 0.67247 0.54058 0.53784 0.0
C100 C 0.64681 0.57688 0.50511 0.0
H101 H 0.78026 0.66149 0.53376 0.0
H102 H 0.81135 0.62031 0.43969 0.0
H103 H 0.74373 0.62249 0.43507 0.0
H104 H 0.73377 0.58777 0.42956 0.0
H105 H 0.76775 0.59898 0.41781 0.0
H106 H 0.80008 0.5693 0.48236 0.0
H107 H 0.79306 0.5641 0.44426 0.0
H108 H 0.77135 0.54882 0.47234 0.0
H109 H 0.70308 0.66191 0.60959 0.0
H110 H 0.63084 0.60842 0.60583 0.0
H111 H 0.64954 0.58565 0.56326 0.0
H112 H 0.75045 0.61502 0.5921 0.0
H113 H 0.75607 0.65166 0.59456 0.0
H114 H 0.77348 0.63101 0.56721 0.0
H115 H 0.70353 0.67455 0.54224 0.0
H116 H 0.73677 0.6728 0.52618 0.0
H117 H 0.73338 0.68433 0.56354 0.0
H118 H 0.81904 0.68181 0.50785 0.0
C119 C 0.78639 0.65202 0.51354 0.0
C120 C 0.68543 0.4791 0.96239 0.0
C121 C 0.66736 0.49573 0.97929 0.0
C122 C 0.66313 0.48886 0.00897 0.0
C123 C 0.69154 0.44773 0.00333 0.0
C124 C 0.6974 0.4554 0.97489 0.0
C125 C 0.71684 0.43526 0.96004 0.0
H126 H 0.78739 0.31379 0.96437 0.0
C127 C 0.70494 0.42072 0.00884 0.0
C128 C 0.72008 0.4134 0.9837 0.0
H129 H 0.78987 0.37633 0.89677 0.0
H130 H 0.75714 0.40439 0.92415 0.0
H131 H 0.78929 0.35591 0.01964 0.0
H132 H 0.72196 0.31566 0.97407 0.0
H133 H 0.71156 0.31804 0.01079 0.0
H134 H 0.74211 0.2979 0.00128 0.0
H135 H 0.78386 0.31913 0.01962 0.0
H136 H 0.76626 0.34111 0.04547 0.0
C137 C 0.74478 0.45032 0.95346 0.0
C138 C 0.70199 0.42361 0.93264 0.0
C139 C 0.68238 0.36884 0.10231 0.0
C140 C 0.6875 0.34164 0.1116 0.0
C141 C 0.7039 0.32402 0.09407 0.0
C142 C 0.7152 0.33355 0.06754 0.0
C143 C 0.70953 0.36078 0.05828 0.0
C144 C 0.69318 0.37781 0.07554 0.0
C145 C 0.68717 0.40517 0.06125 0.0
C146 C 0.70294 0.40198 0.03265 0.0
C147 C 0.71625 0.37612 0.03116 0.0
C148 C 0.69977 0.42836 0.08054 0.0
C149 C 0.6551 0.4073 0.0566 0.0
C150 C 0.78063 0.33338 0.95526 0.0
C151 C 0.79119 0.34283 0.92833 0.0
C152 C 0.78223 0.3687 0.91757 0.0
C153 C 0.76323 0.38494 0.93348 0.0
C154 C 0.75314 0.37529 0.96051 0.0
C155 C 0.76185 0.34988 0.97096 0.0
C156 C 0.74926 0.34308 0.00025 0.0
C157 C 0.73237 0.36906 0.00616 0.0
C158 C 0.73445 0.3877 0.98267 0.0
C159 C 0.77329 0.33942 0.02256 0.0
C160 C 0.73035 0.31725 0.99669 0.0
H161 H 0.6705 0.46066 0.04352 0.0
H162 H 0.6894 0.48375 0.9396 0.0
H163 H 0.67991 0.41822 0.93781 0.0
H164 H 0.71164 0.40439 0.92439 0.0
H165 H 0.70181 0.43907 0.91467 0.0
H166 H 0.74832 0.46783 0.9688 0.0
H167 H 0.74503 0.45891 0.93093 0.0
H168 H 0.7632 0.43673 0.95646 0.0
H169 H 0.66921 0.38254 0.1151 0.0
H170 H 0.70784 0.30291 0.10088 0.0
H171 H 0.72759 0.31926 0.05507 0.0
H172 H 0.71924 0.42121 0.09151 0.0
H173 H 0.68486 0.43487 0.09788 0.0
H174 H 0.70621 0.44669 0.06774 0.0
H175 H 0.64612 0.38679 0.05084 0.0
H176 H 0.64918 0.42091 0.03828 0.0
H177 H 0.64441 0.4146 0.07676 0.0
H178 H 0.65019 0.50173 0.02288 0.0
C179 C 0.67505 0.465 0.02102 0.0
C180 C 0.20728 0.64019 0.4529 0.0
C181 C 0.19576 0.66422 0.46536 0.0
C182 C 0.20512 0.67294 0.49307 0.0
C183 C 0.23763 0.63456 0.49494 0.0
C184 C 0.22812 0.62577 0.468 0.0
C185 C 0.24318 0.60033 0.45745 0.0
H186 H 0.35056 0.51086 0.47393 0.0
C187 C 0.25993 0.61548 0.5044 0.0
C188 C 0.26317 0.59523 0.48262 0.0
H189 H 0.29136 0.51473 0.40293 0.0
H190 H 0.2653 0.55052 0.42833 0.0
H191 H 0.35621 0.57635 0.48545 0.0
H192 H 0.30567 0.51247 0.52372 0.0
H193 H 0.31033 0.53696 0.55163 0.0
H194 H 0.34037 0.51918 0.53659 0.0
H195 H 0.36957 0.548 0.50668 0.0
H196 H 0.35794 0.57936 0.52381 0.0
C197 C 0.25876 0.60789 0.42881 0.0
C198 C 0.2216 0.57663 0.45425 0.0
C199 C 0.31337 0.63431 0.5984 0.0
C200 C 0.33481 0.61976 0.61269 0.0
C201 C 0.34457 0.59468 0.60077 0.0
C202 C 0.33365 0.58449 0.5746 0.0
C203 C 0.3127 0.5995 0.56014 0.0
C204 C 0.30238 0.62359 0.57237 0.0
C205 C 0.27901 0.6358 0.55454 0.0
C206 C 0.27745 0.61528 0.52941 0.0
C207 C 0.2976 0.59443 0.53261 0.0
C208 C 0.28831 0.66488 0.54412 0.0
C209 C 0.25202 0.63563 0.5734 0.0
C210 C 0.33193 0.51949 0.46398 0.0
C211 C 0.3231 0.51057 0.43636 0.0
C212 C 0.29849 0.52158 0.4242 0.0
C213 C 0.28358 0.5424 0.43889 0.0
C214 C 0.29343 0.55211 0.46599 0.0
C215 C 0.31675 0.54004 0.47846 0.0
C216 C 0.32362 0.55207 0.50783 0.0
C217 C 0.30131 0.57428 0.51041 0.0
C218 C 0.28391 0.57442 0.48573 0.0
C219 C 0.35343 0.56454 0.50614 0.0
C220 C 0.32004 0.52909 0.53126 0.0
H221 H 0.23221 0.66596 0.52888 0.0
H222 H 0.20069 0.63309 0.43153 0.0
H223 H 0.20472 0.57846 0.47092 0.0
H224 H 0.23086 0.55598 0.45802 0.0
H225 H 0.21159 0.57703 0.43236 0.0
H226 H 0.26815 0.62889 0.43041 0.0
H227 H 0.24423 0.60791 0.40989 0.0
H228 H 0.27645 0.59401 0.42387 0.0
H229 H 0.30527 0.65346 0.60737 0.0
H230 H 0.36121 0.58325 0.61139 0.0
H231 H 0.34226 0.56552 0.56644 0.0
H232 H 0.31071 0.66468 0.53749 0.0
H233 H 0.28586 0.68039 0.56186 0.0
H234 H 0.27688 0.67217 0.52467 0.0
H235 H 0.25204 0.61804 0.5891 0.0
H236 H 0.23289 0.63262 0.56025 0.0
H237 H 0.24999 0.655 0.58629 0.0
H238 H 0.19624 0.69113 0.50334 0.0
C239 C 0.22592 0.65821 0.50794 0.0
C240 C 0.80461 0.85848 0.10416 0.0
C241 C 0.82768 0.87078 0.11807 0.0
C242 C 0.83878 0.89554 0.10664 0.0
C243 C 0.8044 0.8953 0.06799 0.0
C244 C 0.79323 0.87119 0.07928 0.0
C245 C 0.76859 0.86123 0.06176 0.0
H246 H 0.68789 0.8739 0.94104 0.0
C247 C 0.78823 0.90298 0.04181 0.0
C248 C 0.76699 0.88334 0.03813 0.0
H249 H 0.68271 0.81212 0.00931 0.0
H250 H 0.71936 0.83498 0.03596 0.0
H251 H 0.69291 0.92573 0.98466 0.0
H252 H 0.75507 0.87764 0.93901 0.0
H253 H 0.76315 0.91291 0.93466 0.0
H254 H 0.73057 0.89993 0.9208 0.0
H255 H 0.69962 0.93048 0.94638 0.0
H256 H 0.71941 0.94873 0.9739 0.0
C257 C 0.7424 0.86145 0.08178 0.0
C258 C 0.7761 0.83246 0.04905 0.0
C259 C 0.82121 0.98294 0.97922 0.0
C260 C 0.8117 0.99422 0.9528 0.0
C261 C 0.78645 0.9847 0.94067 0.0
C262 C 0.77163 0.96304 0.95401 0.0
C263 C 0.78225 0.95092 0.9797 0.0
C264 C 0.8062 0.9615 0.99228 0.0
C265 C 0.81421 0.9466 0.01981 0.0
C266 C 0.79156 0.92474 0.02131 0.0
C267 C 0.7731 0.92714 0.99763 0.0
C268 C 0.81223 0.96736 0.04561 0.0
C269 C 0.84363 0.93374 0.01514 0.0
C270 C 0.69444 0.86547 0.96188 0.0
C271 C 0.68265 0.84092 0.97282 0.0
C272 C 0.69189 0.83062 2e-05 0.0
C273 C 0.71312 0.84399 0.01556 0.0
C274 C 0.72536 0.86793 0.00383 0.0
C275 C 0.71564 0.87859 0.9777 0.0
C276 C 0.73094 0.90441 0.96879 0.0
C277 C 0.75167 0.90723 0.99369 0.0
C278 C 0.74847 0.88563 0.014 0.0
C279 C 0.70975 0.9287 0.96813 0.0
C280 C 0.74566 0.89871 0.93919 0.0
H281 H 0.83682 0.92658 0.07421 0.0
H282 H 0.79547 0.8396 0.1126 0.0
H283 H 0.79819 0.83207 0.04133 0.0
H284 H 0.76355 0.82684 0.02976 0.0
H285 H 0.77373 0.81604 0.06587 0.0
H286 H 0.74371 0.87825 0.09835 0.0
H287 H 0.74017 0.84156 0.09373 0.0
H288 H 0.72289 0.86579 0.06967 0.0
H289 H 0.84038 0.99025 0.98916 0.0
H290 H 0.77881 0.99327 0.9203 0.0
H291 H 0.75291 0.95609 0.94343 0.0
H292 H 0.79648 0.98381 0.04124 0.0
H293 H 0.83259 0.97772 0.04954 0.0
H294 H 0.80502 0.95751 0.06613 0.0
H295 H 0.84586 0.92562 0.99249 0.0
H296 H 0.84781 0.9158 0.0294 0.0
H297 H 0.86032 0.94937 0.01853 0.0
H298 H 0.85679 0.90523 0.11668 0.0
C299 C 0.82724 0.90787 0.08182 0.0
C300 C 0.28725 0.14854 0.44218 0.0
C301 C 0.29947 0.17246 0.45406 0.0
C302 C 0.28975 0.18245 0.48122 0.0
C303 C 0.25703 0.14442 0.4847 0.0
C304 C 0.26621 0.13487 0.45786 0.0
C305 C 0.25133 0.10891 0.44864 0.0
H306 H 0.15648 0.00911 0.47894 0.0
C307 C 0.23579 0.12494 0.49581 0.0
C308 C 0.23248 0.10397 0.47487 0.0
H309 H 0.20294 0.02123 0.39885 0.0
H310 H 0.22648 0.06067 0.42005 0.0
H311 H 0.20642 0.02128 0.52338 0.0
H312 H 0.14162 0.07286 0.48756 0.0
H313 H 0.14384 0.07997 0.52515 0.0
H314 H 0.13506 0.04559 0.51334 0.0
H315 H 0.17134 0.02055 0.53734 0.0
H316 H 0.19704 0.04458 0.55116 0.0
C317 C 0.27334 0.08562 0.44507 0.0
C318 C 0.23441 0.11535 0.42054 0.0
C319 C 0.188 0.14264 0.59359 0.0
C320 C 0.1692 0.12686 0.61031 0.0
C321 C 0.16101 0.10056 0.60027 0.0
C322 C 0.17076 0.09035 0.57352 0.0
C323 C 0.18903 0.10655 0.55663 0.0
C324 C 0.19795 0.13189 0.56705 0.0
C325 C 0.21905 0.14515 0.547 0.0
C326 C 0.22029 0.12413 0.52232 0.0
C327 C 0.20235 0.1018 0.52794 0.0
C328 C 0.24724 0.14733 0.56359 0.0
C329 C 0.20705 0.17323 0.53657 0.0
C330 C 0.1721 0.02 0.46619 0.0
C331 C 0.17807 0.01204 0.43731 0.0
C332 C 0.19801 0.02709 0.42113 0.0
C333 C 0.21158 0.04998 0.43347 0.0
C334 C 0.20487 0.0581 0.46216 0.0
C335 C 0.18545 0.04314 0.47801 0.0
C336 C 0.17977 0.05559 0.50754 0.0
C337 C 0.19882 0.08067 0.50673 0.0
C338 C 0.21363 0.08189 0.48023 0.0
C339 C 0.18886 0.03449 0.53124 0.0
C340 C 0.14845 0.06387 0.50878 0.0
H341 H 0.26222 0.1772 0.51712 0.0
H342 H 0.29432 0.14025 0.42145 0.0
H343 H 0.2283 0.13755 0.41949 0.0
H344 H 0.21436 0.104 0.41964 0.0
H345 H 0.24679 0.11067 0.40057 0.0
H346 H 0.28879 0.08629 0.46322 0.0
H347 H 0.28501 0.08791 0.42419 0.0
H348 H 0.26417 0.0647 0.44591 0.0
H349 H 0.19493 0.16273 0.60115 0.0
H350 H 0.14649 0.08814 0.61289 0.0
H351 H 0.16346 0.07035 0.56691 0.0
H352 H 0.24918 0.13094 0.58056 0.0
H353 H 0.24927 0.16762 0.57476 0.0
H354 H 0.26554 0.1441 0.54916 0.0
H355 H 0.18449 0.17118 0.53104 0.0
H356 H 0.2172 0.181 0.5165 0.0
H357 H 0.20894 0.18919 0.55392 0.0
H358 H 0.29844 0.20112 0.49061 0.0
C359 C 0.26864 0.16858 0.49657 0.0
C360 C 0.17574 0.9706 0.95509 0.0
C361 C 0.15709 0.98751 0.97099 0.0
C362 C 0.15291 0.98201 0.00099 0.0
C363 C 0.1826 0.94158 0.99782 0.0
C364 C 0.18837 0.94793 0.96899 0.0
C365 C 0.2086 0.92769 0.95548 0.0
H366 H 0.28359 0.80927 0.96792 0.0
C367 C 0.19693 0.91541 0.00501 0.0
C368 C 0.21249 0.90728 0.98045 0.0
H369 H 0.28419 0.86781 0.89639 0.0
H370 H 0.2502 0.89616 0.9217 0.0
H371 H 0.28374 0.85448 0.0201 0.0
H372 H 0.21805 0.80929 0.97724 0.0
H373 H 0.20746 0.81335 0.01373 0.0
H374 H 0.2388 0.79388 0.00552 0.0
H375 H 0.27948 0.81764 0.02279 0.0
H376 H 0.2611 0.84075 0.04692 0.0
C377 C 0.23603 0.94334 0.94811 0.0
C378 C 0.19435 0.91407 0.92877 0.0
C379 C 0.17552 0.86797 0.10133 0.0
C380 C 0.18171 0.84159 0.11241 0.0
C381 C 0.19912 0.82376 0.09621 0.0
C382 C 0.21028 0.83224 0.06923 0.0
C383 C 0.20349 0.8586 0.05817 0.0
C384 C 0.18625 0.87587 0.07417 0.0
C385 C 0.17933 0.90214 0.05818 0.0
C386 C 0.19548 0.89799 0.02996 0.0
C387 C 0.20981 0.87264 0.03019 0.0
C388 C 0.19082 0.92683 0.07612 0.0
C389 C 0.14725 0.90276 0.05313 0.0
C390 C 0.27615 0.82801 0.95751 0.0
C391 C 0.28654 0.83629 0.93009 0.0
C392 C 0.27667 0.86111 0.9176 0.0
C393 C 0.25695 0.87753 0.93231 0.0
C394 C 0.24707 0.86911 0.95988 0.0
C395 C 0.25666 0.84469 0.97199 0.0
C396 C 0.24421 0.83916 0.00163 0.0
C397 C 0.22632 0.86479 0.00576 0.0
C398 C 0.22782 0.8821 0.98112 0.0
C399 C 0.26826 0.83774 0.0242 0.0
C400 C 0.22631 0.81248 -0.00029 0.0
H401 H 0.16095 0.95588 0.03711 0.0
H402 H 0.17973 0.97427 0.93212 0.0
H403 H 0.17246 0.90816 0.93418 0.0
H404 H 0.20476 0.89482 0.9217 0.0
H405 H 0.19368 0.92854 0.90991 0.0
H406 H 0.23896 0.96164 0.96254 0.0
H407 H 0.23601 0.95089 0.92517 0.0
H408 H 0.25489 0.93053 0.95178 0.0
H409 H 0.16159 0.88179 0.11303 0.0
H410 H 0.20396 0.80328 0.1044 0.0
H411 H 0.22343 0.81782 0.05783 0.0
H412 H 0.21021 0.92096 0.08804 0.0
H413 H 0.17532 0.93399 0.09259 0.0
H414 H 0.19708 0.9445 0.06221 0.0
H415 H 0.13918 0.88165 0.04835 0.0
H416 H 0.14095 0.91527 0.03409 0.0
H417 H 0.13607 0.91053 0.07279 0.0
H418 H 0.13956 0.9952 0.01412 0.0
C419 C 0.16548 0.95919 0.01441 0.0
C420 C 0.69488 0.13068 0.4524 0.0
C421 C 0.68288 0.15448 0.46487 0.0
C422 C 0.69273 0.16388 0.49215 0.0
C423 C 0.72694 0.12693 0.49329 0.0
C424 C 0.71679 0.1173 0.46692 0.0
C425 C 0.7324 0.09224 0.45623 0.0
H426 H 0.84363 0.0069 0.47 0.0
C427 C 0.75069 0.1092 0.50188 0.0
C428 C 0.7539 0.08873 0.4803 0.0
H429 H 0.7806 0.00552 0.40264 0.0
H430 H 0.75502 0.04217 0.42743 0.0
H431 H 0.84872 0.07129 0.47566 0.0
H432 H 0.80083 0.01098 0.52291 0.0
H433 H 0.80986 0.03612 0.54884 0.0
H434 H 0.83712 0.01687 0.53045 0.0
H435 H 0.86389 0.04731 0.50106 0.0
H436 H 0.85073 0.08047 0.51271 0.0
C437 C 0.74612 0.09958 0.42651 0.0
C438 C 0.71178 0.06757 0.45499 0.0
C439 C 0.80707 0.13133 0.5934 0.0
C440 C 0.8307 0.11869 0.60599 0.0
C441 C 0.84269 0.09547 0.59216 0.0
C442 C 0.83133 0.08481 0.56646 0.0
C443 C 0.80775 0.09752 0.55414 0.0
C444 C 0.79591 0.12031 0.56755 0.0
C445 C 0.77083 0.1309 0.55105 0.0
C446 C 0.76961 0.11051 0.52575 0.0
C447 C 0.79143 0.09122 0.5277 0.0
C448 C 0.7774 0.16069 0.5406 0.0
C449 C 0.74487 0.12854 0.57121 0.0
C450 C 0.82421 0.01447 0.46078 0.0
C451 C 0.81406 0.00381 0.43441 0.0
C452 C 0.78864 0.01369 0.42301 0.0
C453 C 0.77402 0.03498 0.43733 0.0
C454 C 0.78504 0.04627 0.46325 0.0
C455 C 0.80936 0.03545 0.47486 0.0
C456 C 0.81773 0.04922 0.50286 0.0
C457 C 0.7948 0.07067 0.5059 0.0
C458 C 0.7759 0.06912 0.48254 0.0
C459 C 0.84685 0.06269 0.49815 0.0
C460 C 0.81658 0.0273 0.52765 0.0
H461 H 0.7214 0.15856 0.52695 0.0
H462 H 0.68749 0.12271 0.43168 0.0
H463 H 0.69557 0.06926 0.47239 0.0
H464 H 0.72211 0.04747 0.45908 0.0
H465 H 0.70081 0.06677 0.43362 0.0
H466 H 0.75511 0.12079 0.42712 0.0
H467 H 0.73051 0.09894 0.40857 0.0
H468 H 0.76374 0.08591 0.42072 0.0
H469 H 0.79731 0.14912 0.60359 0.0
H470 H 0.86121 0.08567 0.60105 0.0
H471 H 0.84157 0.06717 0.55709 0.0
H472 H 0.79974 0.1626 0.53402 0.0
H473 H 0.77345 0.17596 0.55828 0.0
H474 H 0.76547 0.16681 0.52102 0.0
H475 H 0.74619 0.10973 0.58518 0.0
H476 H 0.72515 0.1262 0.55894 0.0
H477 H 0.74314 0.14674 0.58592 0.0
H478 H 0.68399 0.18229 0.50212 0.0
C479 C 0.71464 0.15021 0.50644 0.0
Sc480 Sc 0.0017 0.78206 0.31336 0.0
Sc481 Sc 0.00022 0.85498 0.30891 0.0
Sc482 Sc -0.00052 0.82312 0.37745 0.0
O483 O 0.00051 0.81994 0.33322 0.0
C484 C 0.96044 0.7704 0.36684 0.0
C485 C 0.95816 0.81588 0.2744 0.0
C486 C 0.95686 0.87038 0.3596 0.0
C487 C 0.0426 0.81696 0.27252 0.0
C488 C 0.04362 0.77463 0.36732 0.0
C489 C 0.04085 0.87263 0.3601 0.0
O490 O 0.96928 0.76513 0.34118 0.0
O491 O 0.96676 0.83944 0.2827 0.0
O492 O 0.9647 0.85151 0.37712 0.0
O493 O 0.03462 0.79405 0.28335 0.0
O494 O 0.03374 0.79477 0.38195 0.0
O495 O 0.03357 0.87366 0.33342 0.0
O496 O 0.03389 0.76726 0.34261 0.0
O497 O 0.0314 0.83988 0.27932 0.0
O498 O 0.0294 0.85646 0.3785 0.0
O499 O 0.96936 0.79313 0.2822 0.0
O500 O 0.96981 0.79027 0.38206 0.0
O501 O 0.96885 0.87474 0.33525 0.0
Sc502 Sc 0.99633 0.20857 0.80784 0.0
Sc503 Sc 0.995 0.13573 0.814 0.0
Sc504 Sc 0.98959 0.1762 0.87698 0.0
O505 O 0.99375 0.1736 0.83291 0.0
C506 C 0.03379 0.22392 0.86335 0.0
C507 C 0.03934 0.16904 0.77495 0.0
C508 C 0.03272 0.12577 0.8699 0.0
C509 C 0.95532 0.16963 0.77123 0.0
C510 C 0.95023 0.22555 0.85522 0.0
C511 C 0.94919 0.12591 0.86384 0.0
O512 O 0.02634 0.22769 0.83691 0.0
O513 O 0.02759 0.14722 0.78427 0.0
O514 O 0.02024 0.14423 0.88489 0.0
O515 O 0.96637 0.19311 0.77629 0.0
O516 O 0.95852 0.20807 0.87405 0.0
O517 O 0.96238 0.11887 0.84093 0.0
O518 O 0.96167 0.22821 0.83024 0.0
O519 O 0.96306 0.1474 0.78368 0.0
O520 O 0.95575 0.14699 0.87884 0.0
O521 O 0.03119 0.19314 0.78221 0.0
O522 O 0.02262 0.20591 0.87988 0.0
O523 O 0.02686 0.12091 0.84328 0.0
Sc524 Sc 0.50174 0.28622 0.30739 0.0
Sc525 Sc 0.50467 0.35924 0.30376 0.0
Sc526 Sc 0.50047 0.32649 0.37192 0.0
O527 O 0.5023 0.32391 0.32766 0.0
C528 C 0.45706 0.27792 0.3587 0.0
C529 C 0.4641 0.32227 0.2644 0.0
C530 C 0.46034 0.37609 0.35243 0.0
C531 C 0.54761 0.31968 0.27043 0.0
C532 C 0.5405 0.27434 0.36289 0.0
C533 C 0.54405 0.37436 0.35765 0.0
O534 O 0.46731 0.27129 0.33395 0.0
O535 O 0.47474 0.34504 0.27251 0.0
O536 O 0.46915 0.35854 0.37098 0.0
O537 O 0.53628 0.2971 0.27862 0.0
O538 O 0.53109 0.29455 0.3777 0.0
O539 O 0.53512 0.37809 0.33184 0.0
O540 O 0.53201 0.26875 0.33722 0.0
O541 O 0.53854 0.34328 0.27821 0.0
O542 O 0.53403 0.35608 0.37465 0.0
O543 O 0.47118 0.29909 0.27527 0.0
O544 O 0.46701 0.29723 0.37434 0.0
O545 O 0.4709 0.37873 0.32707 0.0
Sc546 Sc 0.4994 0.71217 0.81452 0.0
Sc547 Sc 0.50713 0.63965 0.81848 0.0
Sc548 Sc 0.49417 0.67756 0.88239 0.0
O549 O 0.50028 0.67651 0.83846 0.0
C550 C 0.53393 0.7297 0.87104 0.0
C551 C 0.54877 0.67834 0.78312 0.0
C552 C 0.54193 0.63168 0.87735 0.0
C553 C 0.46612 0.67056 0.77373 0.0
C554 C 0.45078 0.72337 0.86122 0.0
C555 C 0.45931 0.62414 0.8643 0.0
O556 O 0.52833 0.73242 0.84395 0.0
O557 O 0.5422 0.65512 0.79415 0.0
O558 O 0.52867 0.6502 0.89143 0.0
O559 O 0.4703 0.69496 0.78325 0.0
O560 O 0.4589 0.70485 0.87898 0.0
O561 O 0.47239 0.62019 0.84044 0.0
O562 O 0.4638 0.72885 0.83767 0.0
O563 O 0.47887 0.6495 0.7837 0.0
O564 O 0.46522 0.64363 0.88186 0.0
O565 O 0.53468 0.70029 0.7876 0.0
O566 O 0.52252 0.71149 0.88719 0.0
O567 O 0.53631 0.62553 0.85102 0.0
H568 H 0.18202 0.32244 0.90227 0.0
H569 H 0.13472 0.3195 0.98276 0.0
H570 H 0.14508 0.29662 0.87753 0.0
H571 H 0.09777 0.29397 0.95807 0.0
H572 H 0.05809 0.21851 0.91689 0.0
H573 H 0.09366 0.24739 0.93878 0.0
H574 H 0.09589 0.29818 0.86107 0.0
H575 H 0.06029 0.26878 0.83862 0.0
C576 C 0.16353 0.31664 0.91453 0.0
C577 C 0.16135 0.32269 0.94451 0.0
C578 C 0.14238 0.3019 0.90037 0.0
C579 C 0.11868 0.293 0.91593 0.0
C580 C 0.11608 0.30001 0.94564 0.0
C581 C 0.13721 0.31463 0.95979 0.0
C582 C 0.06604 0.23581 0.90433 0.0
C583 C 0.05615 0.24138 0.87599 0.0
C584 C 0.08636 0.2525 0.91703 0.0
C585 C 0.09732 0.27528 0.90182 0.0
C586 C 0.08787 0.28069 0.87329 0.0
C587 C 0.06744 0.2639 0.86048 0.0
H588 H 0.86732 0.67367 0.49244 0.0
H589 H 0.81974 0.66372 0.41294 0.0
H590 H 0.90214 0.70056 0.46579 0.0
H591 H 0.85462 0.69065 0.38625 0.0
H592 H 0.93728 0.72258 0.34486 0.0
H593 H 0.90406 0.69175 0.36931 0.0
H594 H 0.902 0.74667 0.44374 0.0
H595 H 0.93512 0.7771 0.41983 0.0
C596 C 0.86434 0.67719 0.46926 0.0
C597 C 0.84067 0.66679 0.45486 0.0
C598 C 0.88425 0.69258 0.45399 0.0
C599 C 0.88093 0.69798 0.42399 0.0
C600 C 0.85786 0.68666 0.40931 0.0
C601 C 0.8379 0.67123 0.4246 0.0
C602 C 0.92965 0.7281 0.36639 0.0
C603 C 0.93906 0.75226 0.38041 0.0
C604 C 0.91061 0.71046 0.38036 0.0
C605 C 0.90073 0.71661 0.4086 0.0
C606 C 0.90971 0.74102 0.42227 0.0
C607 C 0.92859 0.75859 0.40839 0.0
H608 H 0.79109 0.287 0.91936 0.0
H609 H 0.83894 0.36081 0.90116 0.0
H610 H 0.82829 0.25878 0.89831 0.0
H611 H 0.87617 0.33249 0.87995 0.0
H612 H 0.92945 0.27089 0.82586 0.0
H613 H 0.88915 0.29945 0.83958 0.0
H614 H 0.87589 0.24826 0.91576 0.0
H615 H 0.91557 0.21979 0.90217 0.0
C616 C 0.8095 0.2972 0.91072 0.0
C617 C 0.81224 0.32609 0.91228 0.0
C618 C 0.83077 0.28105 0.89864 0.0
C619 C 0.85528 0.29341 0.88781 0.0
C620 C 0.85744 0.3224 0.88795 0.0
C621 C 0.83612 0.3386 0.9001 0.0
C622 C 0.91785 0.26571 0.84546 0.0
C623 C 0.92583 0.24307 0.86293 0.0
C624 C 0.89485 0.28211 0.85335 0.0
C625 C 0.87926 0.27596 0.87862 0.0
C626 C 0.88718 0.25326 0.89589 0.0
C627 C 0.91015 0.23707 0.8882 0.0
H628 H 0.15066 0.64472 0.43503 0.0
H629 H 0.19277 0.72027 0.45945 0.0
H630 H 0.11493 0.67165 0.40966 0.0
H631 H 0.15717 0.74715 0.43405 0.0
H632 H 0.07058 0.78465 0.41882 0.0
H633 H 0.10787 0.7579 0.44104 0.0
H634 H 0.10784 0.70219 0.36721 0.0
H635 H 0.06995 0.72871 0.34499 0.0
C636 C 0.15242 0.66706 0.43471 0.0
C637 C 0.17437 0.68042 0.4494 0.0
C638 C 0.13201 0.68246 0.42014 0.0
C639 C 0.1332 0.71151 0.41996 0.0
C640 C 0.15544 0.72481 0.43423 0.0
C641 C 0.17579 0.70943 0.44881 0.0
C642 C 0.07849 0.76676 0.40718 0.0
C643 C 0.06715 0.75881 0.38011 0.0
C644 C 0.10004 0.75152 0.41988 0.0
C645 C 0.11081 0.72797 0.40585 0.0
C646 C 0.09972 0.7201 0.37867 0.0
C647 C 0.07813 0.73539 0.36589 0.0
H648 H 0.67889 0.78514 0.96524 0.0
H649 H 0.63867 0.862 0.94128 0.0
H650 H 0.64312 0.75948 0.939 0.0
H651 H 0.603 0.83611 0.91448 0.0
H652 H 0.5607 0.77506 0.84748 0.0
H653 H 0.5973 0.80309 0.87046 0.0
H654 H 0.59185 0.75272 0.94822 0.0
H655 H 0.5558 0.72487 0.9257 0.0
C656 C 0.66233 0.79656 0.9545 0.0
C657 C 0.66139 0.82559 0.95573 0.0
C658 C 0.64195 0.78187 0.93935 0.0
C659 C 0.62021 0.79584 0.92493 0.0
C660 C 0.61967 0.82488 0.92527 0.0
C661 C 0.64005 0.83964 0.94062 0.0
C662 C 0.56729 0.77005 0.86949 0.0
C663 C 0.55534 0.74764 0.88466 0.0
C664 C 0.58813 0.78614 0.88264 0.0
C665 C 0.59752 0.77985 0.91098 0.0
C666 C 0.58531 0.75775 0.92618 0.0
C667 C 0.56448 0.7419 0.91325 0.0
H668 H 0.34722 0.19323 0.47786 0.0
H669 H 0.3044 0.18352 0.3954 0.0
H670 H 0.38476 0.21799 0.45328 0.0
H671 H 0.34225 0.20835 0.37067 0.0
H672 H 0.43156 0.23147 0.33618 0.0
H673 H 0.39325 0.20496 0.35809 0.0
H674 H 0.38937 0.2632 0.42956 0.0
H675 H 0.42746 0.28933 0.40821 0.0
C676 C 0.34573 0.19657 0.4545 0.0
C677 C 0.32267 0.18672 0.43864 0.0
C678 C 0.36727 0.2107 0.4404 0.0
C679 C 0.3663 0.21535 0.41009 0.0
C680 C 0.34363 0.20491 0.39403 0.0
C681 C 0.32199 0.19074 0.40819 0.0
C682 C 0.42243 0.23865 0.3565 0.0
C683 C 0.43284 0.26238 0.37055 0.0
C684 C 0.40046 0.22352 0.36897 0.0
C685 C 0.38858 0.23182 0.39572 0.0
C686 C 0.39849 0.25593 0.40926 0.0
C687 C 0.4203 0.27099 0.39687 0.0
H688 H 0.28877 0.78006 0.92455 0.0
H689 H 0.33386 0.85465 0.9026 0.0
H690 H 0.32707 0.75226 0.90502 0.0
H691 H 0.37222 0.82683 0.88309 0.0
H692 H 0.42784 0.7672 0.83139 0.0
H693 H 0.38636 0.79398 0.84457 0.0
H694 H 0.37478 0.74274 0.92104 0.0
H695 H 0.41574 0.71578 0.9078 0.0
C696 C 0.30684 0.79051 0.91545 0.0
C697 C 0.30842 0.81953 0.91536 0.0
C698 C 0.32876 0.7746 0.90429 0.0
C699 C 0.35279 0.78735 0.89279 0.0
C700 C 0.35388 0.81639 0.89156 0.0
C701 C 0.33191 0.83233 0.90273 0.0
C702 C 0.41637 0.76155 0.85093 0.0
C703 C 0.42523 0.73935 0.86856 0.0
C704 C 0.39267 0.77698 0.85853 0.0
C705 C 0.37726 0.77044 0.8838 0.0
C706 C 0.38593 0.74806 0.90118 0.0
C707 C 0.4096 0.73272 0.89368 0.0
H708 H 0.63504 0.17704 0.48736 0.0
H709 H 0.6812 0.16728 0.40671 0.0
H710 H 0.60032 0.20504 0.46188 0.0
H711 H 0.6465 0.19536 0.38124 0.0
H712 H 0.56526 0.28106 0.41616 0.0
H713 H 0.5989 0.25093 0.43987 0.0
H714 H 0.59741 0.19614 0.36531 0.0
H715 H 0.5639 0.22663 0.34112 0.0
C716 C 0.63778 0.18093 0.4642 0.0
C717 C 0.6609 0.17009 0.44907 0.0
C718 C 0.61793 0.19697 0.44962 0.0
C719 C 0.6208 0.20257 0.41959 0.0
C720 C 0.64356 0.19116 0.4043 0.0
C721 C 0.66341 0.17509 0.4189 0.0
C722 C 0.57205 0.26263 0.40469 0.0
C723 C 0.56174 0.25626 0.37671 0.0
C724 C 0.59123 0.24525 0.41843 0.0
C725 C 0.6006 0.22102 0.40459 0.0
C726 C 0.59067 0.21476 0.37645 0.0
C727 C 0.57142 0.2322 0.36264 0.0
H728 H 0.30759 0.52703 0.90031 0.0
H729 H 0.37858 0.48556 0.93926 0.0
H730 H 0.33928 0.56201 0.87964 0.0
H731 H 0.40952 0.52105 0.91985 0.0
H732 H 0.43819 0.61482 0.91874 0.0
H733 H 0.40287 0.58097 0.93302 0.0
H734 H 0.39341 0.55618 0.84306 0.0
H735 H 0.42928 0.5898 0.82845 0.0
C736 C 0.32984 0.52521 0.90426 0.0
C737 C 0.34048 0.50381 0.92192 0.0
C738 C 0.34785 0.54522 0.89253 0.0
C739 C 0.37658 0.54412 0.89856 0.0
C740 C 0.38732 0.52233 0.91527 0.0
C741 C 0.36953 0.50223 0.92656 0.0
C742 C 0.42845 0.6024 0.9019 0.0
C743 C 0.43667 0.60483 0.87249 0.0
C744 C 0.40827 0.58311 0.91011 0.0
C745 C 0.39557 0.56627 0.88905 0.0
C746 C 0.40292 0.5692 0.85953 0.0
C747 C 0.42351 0.58823 0.85131 0.0
H748 H 0.69069 0.45771 0.43203 0.0
H749 H 0.62378 0.5176 0.42793 0.0
H750 H 0.66032 0.42316 0.4087 0.0
H751 H 0.59371 0.48341 0.4044 0.0
H752 H 0.56008 0.42415 0.33516 0.0
H753 H 0.59431 0.45635 0.35507 0.0
H754 H 0.61272 0.39894 0.42472 0.0
H755 H 0.57818 0.3666 0.40505 0.0
C756 C 0.6696 0.46347 0.42588 0.0
C757 C 0.65943 0.49016 0.43176 0.0
C758 C 0.65227 0.44377 0.41275 0.0
C759 C 0.62479 0.45075 0.40477 0.0
C760 C 0.61489 0.47762 0.41016 0.0
C761 C 0.63199 0.49708 0.42372 0.0
C762 C 0.57157 0.41821 0.35457 0.0
C763 C 0.56625 0.39289 0.36866 0.0
C764 C 0.59108 0.4367 0.36597 0.0
C765 C 0.606 0.43009 0.39142 0.0
C766 C 0.60154 0.40439 0.40496 0.0
C767 C 0.58167 0.38602 0.39381 0.0
H768 H 0.61356 0.51167 0.99078 0.0
H769 H 0.68487 0.5322 0.93663 0.0
H770 H 0.58652 0.54786 0.96727 0.0
H771 H 0.6571 0.56794 0.9123 0.0
H772 H 0.58102 0.59695 0.85337 0.0
H773 H 0.61401 0.5671 0.87911 0.0
H774 H 0.58548 0.6 0.96168 0.0
H775 H 0.55245 0.62989 0.93611 0.0
C776 C 0.62372 0.52419 0.97426 0.0
C777 C 0.65154 0.51899 0.96577 0.0
C778 C 0.6081 0.5449 0.9607 0.0
C779 C 0.61974 0.56073 0.93803 0.0
C780 C 0.64759 0.55587 0.92961 0.0
C781 C 0.6634 0.53532 0.94347 0.0
C782 C 0.58195 0.59805 0.877 0.0
C783 C 0.56386 0.61562 0.89269 0.0
C784 C 0.601 0.58109 0.8917 0.0
C785 C 0.60215 0.58115 0.92237 0.0
C786 C 0.58482 0.59938 0.93801 0.0
C787 C 0.56598 0.61656 0.92333 0.0
H788 H 0.30879 0.45937 0.41614 0.0
H789 H 0.37683 0.5178 0.41999 0.0
H790 H 0.33988 0.42555 0.39233 0.0
H791 H 0.40763 0.48445 0.39585 0.0
H792 H 0.44692 0.42628 0.32884 0.0
H793 H 0.41098 0.45859 0.34564 0.0
H794 H 0.38547 0.4003 0.41201 0.0
H795 H 0.42159 0.36801 0.39555 0.0
C796 C 0.33026 0.46501 0.41146 0.0
C797 C 0.34062 0.49095 0.41985 0.0
C798 C 0.34798 0.44576 0.39801 0.0
C799 C 0.37604 0.45253 0.39226 0.0
C800 C 0.38601 0.47887 0.3998 0.0
C801 C 0.36851 0.49783 0.4137 0.0
C802 C 0.43346 0.42021 0.34681 0.0
C803 C 0.43725 0.39472 0.36107 0.0
C804 C 0.41297 0.43871 0.3564 0.0
C805 C 0.39557 0.43185 0.38006 0.0
C806 C 0.39853 0.40593 0.39356 0.0
C807 C 0.41933 0.38761 0.3843 0.0
H808 H 0.79743 0.04563 0.93244 0.0
H809 H 0.86589 0.98756 0.93789 0.0
H810 H 0.8285 0.07919 0.90822 0.0
H811 H 0.89662 0.02067 0.91368 0.0
H812 H 0.93546 0.07445 0.84406 0.0
H813 H 0.89952 0.0436 0.86296 0.0
H814 H 0.87395 0.10599 0.92498 0.0
H815 H 0.91007 0.13714 0.90621 0.0
C816 C 0.81902 0.04006 0.9282 0.0
C817 C 0.82944 0.01422 0.93705 0.0
C818 C 0.83673 0.05918 0.91455 0.0
C819 C 0.86484 0.05238 0.90907 0.0
C820 C 0.87496 0.02629 0.91741 0.0
C821 C 0.85748 0.00747 0.93141 0.0
C822 C 0.92206 0.0818 0.86153 0.0
C823 C 0.92588 0.10817 0.87387 0.0
C824 C 0.90151 0.06409 0.87233 0.0
C825 C 0.88415 0.07244 0.89546 0.0
C826 C 0.88703 0.09918 0.907 0.0
C827 C 0.90783 0.11687 0.8964 0.0
H828 H 0.16831 0.96058 0.4595 0.0
H829 H 0.15135 0.01249 0.38481 0.0
H830 H 0.13791 0.92482 0.43946 0.0
H831 H 0.12014 0.97732 0.36516 0.0
H832 H 0.07871 0.90155 0.32705 0.0
H833 H 0.11513 0.93279 0.34419 0.0
H834 H 0.08944 0.91781 0.43349 0.0
H835 H 0.05391 0.88587 0.41645 0.0
C836 C 0.15811 0.96423 0.43871 0.0
C837 C 0.16208 0.98926 0.42371 0.0
C838 C 0.14056 0.94387 0.4273 0.0
C839 C 0.12626 0.94827 0.40083 0.0
C840 C 0.13104 0.97301 0.38538 0.0
C841 C 0.14889 0.99322 0.39664 0.0
C842 C 0.08094 0.90486 0.35035 0.0
C843 C 0.06334 0.89126 0.37037 0.0
C844 C 0.10177 0.92286 0.36018 0.0
C845 C 0.10528 0.92789 0.39025 0.0
C846 C 0.08778 0.91407 0.41022 0.0
C847 C 0.0672 0.89587 0.40042 0.0
H848 H 0.10286 0.00254 0.98127 0.0
H849 H 0.17412 0.02271 0.92691 0.0
H850 H 0.07568 0.03834 0.95727 0.0
H851 H 0.1462 0.05808 0.90207 0.0
H852 H 0.06999 0.08983 0.84452 0.0
H853 H 0.10233 0.05839 0.86917 0.0
H854 H 0.07609 0.09073 0.95279 0.0
H855 H 0.04381 0.12216 0.92839 0.0
C856 C 0.11294 0.01485 0.96451 0.0
C857 C 0.14087 0.00984 0.9563 0.0
C858 C 0.09724 0.03531 0.95067 0.0
C859 C 0.1089 0.05107 0.92796 0.0
C860 C 0.1367 0.04609 0.91946 0.0
C861 C 0.15261 0.02577 0.93362 0.0
C862 C 0.07128 0.09042 0.86815 0.0
C863 C 0.05408 0.10835 0.88448 0.0
C864 C 0.08994 0.07255 0.88221 0.0
C865 C 0.09154 0.07204 0.91285 0.0
C866 C 0.07504 0.09053 0.92913 0.0
C867 C 0.05663 0.10859 0.91511 0.0
H868 H 0.86408 0.01346 0.40952 0.0
H869 H 0.80316 0.94924 0.42446 0.0
H870 H 0.89623 0.9796 0.38847 0.0
H871 H 0.83555 0.91493 0.40346 0.0
H872 H 0.92115 0.8649 0.40633 0.0
H873 H 0.88329 0.89614 0.42059 0.0
H874 H 0.90048 0.94737 0.34535 0.0
H875 H 0.93826 0.91645 0.33104 0.0
C876 C 0.8575 0.99208 0.40773 0.0
C877 C 0.83131 0.98377 0.41832 0.0
C878 C 0.87579 0.97275 0.39568 0.0
C879 C 0.86834 0.94468 0.39438 0.0
C880 C 0.84178 0.93645 0.40437 0.0
C881 C 0.82325 0.95597 0.4161 0.0
C882 C 0.91677 0.88273 0.39273 0.0
C883 C 0.93299 0.88833 0.36774 0.0
C884 C 0.89492 0.90044 0.40076 0.0
C885 C 0.88907 0.92415 0.38408 0.0
C886 C 0.90473 0.92933 0.3587 0.0
C887 C 0.92637 0.91157 0.35055 0.0
H888 H 0.31759 0.34075 0.15341 0.0
H889 H 0.38986 0.34827 0.09728 0.0
H890 H 0.34805 0.32534 0.19365 0.0
H891 H 0.41999 0.33308 0.13713 0.0
H892 H 0.45727 0.36351 0.22496 0.0
H893 H 0.4244 0.36593 0.18475 0.0
H894 H 0.39081 0.28624 0.20864 0.0
H895 H 0.42438 0.28342 0.24937 0.0
C896 C 0.3398 0.33826 0.14948 0.0
C897 C 0.35157 0.34613 0.12257 0.0
C898 C 0.35714 0.32943 0.17237 0.0
C899 C 0.38627 0.3284 0.16839 0.0
C900 C 0.39759 0.33396 0.14071 0.0
C901 C 0.3804 0.34271 0.11801 0.0
C902 C 0.44292 0.34643 0.22186 0.0
C903 C 0.44349 0.32322 0.24036 0.0
C904 C 0.4242 0.3478 0.19872 0.0
C905 C 0.40534 0.32618 0.19359 0.0
C906 C 0.40529 0.30311 0.21225 0.0
C907 C 0.4245 0.30149 0.23536 0.0
H908 H 0.61432 0.66056 0.61528 0.0
H909 H 0.68894 0.64305 0.66488 0.0
H910 H 0.59102 0.67688 0.65956 0.0
H911 H 0.6655 0.65925 0.70955 0.0
H912 H 0.55879 0.71687 0.74051 0.0
H913 H 0.59192 0.71302 0.69997 0.0
H914 H 0.62437 0.6373 0.73684 0.0
H915 H 0.59132 0.641 0.77728 0.0
C916 C 0.62584 0.66071 0.63566 0.0
C917 C 0.65327 0.65043 0.63685 0.0
C918 C 0.61263 0.67023 0.66093 0.0
C919 C 0.62647 0.6693 0.68798 0.0
C920 C 0.65438 0.66012 0.68896 0.0
C921 C 0.66778 0.65098 0.66349 0.0
C922 C 0.57345 0.69977 0.74037 0.0
C923 C 0.57216 0.67902 0.76189 0.0
C924 C 0.59232 0.69754 0.7171 0.0
C925 C 0.61052 0.67476 0.71518 0.0
C926 C 0.6107 0.65517 0.73786 0.0
C927 C 0.59162 0.6572 0.7609 0.0
H928 H 0.65071 0.29905 0.11722 0.0
H929 H 0.69302 0.36256 0.16626 0.0
H930 H 0.62021 0.28985 0.15911 0.0
H931 H 0.66358 0.35269 0.20862 0.0
H932 H 0.57816 0.36364 0.25138 0.0
H933 H 0.61596 0.36413 0.21648 0.0
H934 H 0.6117 0.27509 0.20921 0.0
H935 H 0.57272 0.27459 0.24407 0.0
C936 C 0.65408 0.31031 0.13738 0.0
C937 C 0.6739 0.33166 0.1386 0.0
C938 C 0.63669 0.30503 0.1614 0.0
C939 C 0.63907 0.32092 0.18706 0.0
C940 C 0.66068 0.34059 0.18894 0.0
C941 C 0.67769 0.34612 0.16484 0.0
C942 C 0.58524 0.34402 0.24261 0.0
C943 C 0.57214 0.31906 0.25048 0.0
C944 C 0.60729 0.3443 0.22272 0.0
C945 C 0.61713 0.31963 0.21015 0.0
C946 C 0.60452 0.29449 0.21839 0.0
C947 C 0.58226 0.2942 0.23843 0.0
H948 H 0.34281 0.59293 0.66411 0.0
H949 H 0.35693 0.67115 0.62105 0.0
H950 H 0.37163 0.60786 0.70506 0.0
H951 H 0.38655 0.68598 0.66177 0.0
H952 H 0.42744 0.70717 0.75114 0.0
H953 H 0.39138 0.69736 0.71455 0.0
H954 H 0.42184 0.61345 0.70738 0.0
H955 H 0.4571 0.62287 0.74375 0.0
C956 C 0.35187 0.61347 0.66366 0.0
C957 C 0.34803 0.63078 0.63939 0.0
C958 C 0.36845 0.62199 0.68697 0.0
C959 C 0.38188 0.64786 0.68632 0.0
C960 C 0.37646 0.66596 0.66292 0.0
C961 C 0.35957 0.65749 0.63964 0.0
C962 C 0.42641 0.68667 0.74166 0.0
C963 C 0.44507 0.66578 0.75056 0.0
C964 C 0.40577 0.68107 0.72074 0.0
C965 C 0.40345 0.65449 0.70848 0.0
C966 C 0.42251 0.63391 0.71699 0.0
C967 C 0.44295 0.63944 0.73775 0.0
H968 H 0.84393 0.89689 0.16774 0.0
H969 H 0.84097 0.81623 0.12733 0.0
H970 H 0.87117 0.87815 0.20767 0.0
H971 H 0.86748 0.79688 0.16835 0.0
H972 H 0.95222 0.79025 0.22155 0.0
H973 H 0.91527 0.79923 0.1857 0.0
H974 H 0.87157 0.8495 0.24932 0.0
H975 H 0.9092 0.84171 0.28418 0.0
C976 C 0.84879 0.87499 0.16767 0.0
C977 C 0.84066 0.85811 0.14424 0.0
C978 C 0.86412 0.86409 0.19081 0.0
C979 C 0.87155 0.83592 0.19131 0.0
C980 C 0.86233 0.8187 0.16849 0.0
C981 C 0.84693 0.8297 0.14518 0.0
C982 C 0.93432 0.80265 0.22789 0.0
C983 C 0.93355 0.81564 0.25527 0.0
C984 C 0.91311 0.80775 0.20748 0.0
C985 C 0.89073 0.82559 0.21444 0.0
C986 C 0.88889 0.83635 0.24293 0.0
C987 C 0.91029 0.83175 0.26297 0.0
H988 H 0.17135 0.1034 0.66415 0.0
H989 H 0.13939 0.17435 0.61778 0.0
H990 H 0.14499 0.11699 0.70754 0.0
H991 H 0.11177 0.18744 0.66067 0.0
H992 H 0.07059 0.20942 0.74733 0.0
H993 H 0.1074 0.2026 0.71072 0.0
H994 H 0.09693 0.11406 0.71812 0.0
H995 H 0.06137 0.1207 0.75485 0.0
C996 C 0.15887 0.12211 0.66347 0.0
C997 C 0.15711 0.13773 0.63772 0.0
C998 C 0.14361 0.12984 0.68819 0.0
C999 C 0.12572 0.15298 0.68743 0.0
C1000 C 0.12541 0.1696 0.66214 0.0
C1001 C 0.14112 0.16209 0.63753 0.0
C1002 C 0.07645 0.18852 0.74134 0.0
C1003 C 0.06287 0.16565 0.75402 0.0
C1004 C 0.09746 0.18462 0.72028 0.0
C1005 C 0.10528 0.15777 0.71152 0.0
C1006 C 0.09202 0.13503 0.7247 0.0
C1007 C 0.07127 0.13889 0.74568 0.0
H1008 H 0.14975 0.79565 0.12116 0.0
H1009 H 0.18252 0.86765 0.16493 0.0
H1010 H 0.11899 0.78658 0.1629 0.0
H1011 H 0.15261 0.85822 0.20702 0.0
H1012 H 0.0653 0.8623 0.24641 0.0
H1013 H 0.10289 0.86431 0.21121 0.0
H1014 H 0.11178 0.77542 0.21505 0.0
H1015 H 0.07323 0.77321 0.25039 0.0
C1016 C 0.151 0.80895 0.14016 0.0
C1017 C 0.16816 0.83251 0.13982 0.0
C1018 C 0.13344 0.80377 0.16407 0.0
C1019 C 0.13295 0.82201 0.18802 0.0
C1020 C 0.15197 0.84419 0.18858 0.0
C1021 C 0.16922 0.84952 0.16462 0.0
C1022 C 0.0752 0.84307 0.23998 0.0
C1023 C 0.06609 0.81755 0.25128 0.0
C1024 C 0.09706 0.84428 0.21992 0.0
C1025 C 0.11064 0.82007 0.21058 0.0
C1026 C 0.1017 0.79445 0.22182 0.0
C1027 C 0.07966 0.7932 0.24207 0.0
H1028 H 0.849 0.08868 0.65239 0.0
H1029 H 0.84103 0.17266 0.6212 0.0
H1030 H 0.87552 0.10474 0.69403 0.0
H1031 H 0.86656 0.18919 0.66414 0.0
H1032 H 0.94881 0.19773 0.71969 0.0
H1033 H 0.91397 0.18848 0.6818 0.0
H1034 H 0.87421 0.12864 0.73856 0.0
H1035 H 0.90978 0.13686 0.77543 0.0
C1036 C 0.85263 0.11069 0.65469 0.0
C1037 C 0.84331 0.12936 0.63331 0.0
C1038 C 0.86753 0.12001 0.67885 0.0
C1039 C 0.87323 0.14833 0.68252 0.0
C1040 C 0.86282 0.16722 0.66179 0.0
C1041 C 0.84794 0.15781 0.6374 0.0
C1042 C 0.93235 0.1829 0.72406 0.0
C1043 C 0.93223 0.16757 0.75011 0.0
C1044 C 0.91229 0.17769 0.70248 0.0
C1045 C 0.89156 0.15741 0.70691 0.0
C1046 C 0.89034 0.14376 0.73403 0.0
C1047 C 0.91064 0.14853 0.75521 0.0
loop_
_geom_bond_atom_site_label_1
_geom_bond_atom_site_label_2
_geom_bond_distance
_geom_bond_site_symmetry_2
_ccdc_geom_bond_type
C0 C1 1.391 . S
C0 C4 1.391 . S
C0 H42 0.948 . S
C1 C0 1.391 . S
C1 C2 1.391 . S
C2 C1 1.391 . S
C2 H58 0.947 . S
C2 C59 1.392 . S
C3 C4 1.391 . S
C3 C7 1.397 . S
C3 C59 1.419 . S
C4 C0 1.391 . S
C4 C3 1.391 . S
C4 C5 1.399 . S
C5 C4 1.399 . S
C5 C8 1.396 . S
C5 C17 1.453 . S
C5 C18 1.684 . S
H6 C30 0.948 . S
C7 C3 1.397 . S
C7 C8 1.394 . S
C7 C26 1.723 . S
C8 C5 1.396 . S
C8 C7 1.394 . S
C8 C38 1.723 . S
H9 C32 0.947 1_554 S
H10 C33 0.948 . S
H11 C39 0.982 . S
H12 C40 0.979 . S
H13 C40 0.980 . S
H14 C40 0.983 . S
H15 C39 0.979 . S
H16 C39 0.977 . S
C17 C5 1.453 . S
C17 H46 0.982 . S
C17 H47 0.979 . S
C17 H48 0.977 . S
C18 C5 1.684 . S
C18 H43 0.979 . S
C18 H44 0.980 . S
C18 H45 0.983 . S
C19 C20 1.391 . S
C19 C24 1.391 . S
C19 H49 0.948 . S
C20 C19 1.391 . S
C20 C21 1.391 . S
C21 C20 1.391 . S
C21 C22 1.392 . S
C21 H50 0.947 . S
C22 C21 1.392 . S
C22 C23 1.419 . S
C22 H51 0.948 . S
C23 C22 1.419 . S
C23 C24 1.391 . S
C23 C27 1.397 . S
C24 C19 1.391 . S
C24 C23 1.391 . S
C24 C25 1.399 1_556 S
C25 C24 1.399 1_554 S
C25 C26 1.396 . S
C25 C28 1.453 . S
C25 C29 1.684 . S
C26 C7 1.723 . S
C26 C25 1.396 . S
C26 C27 1.394 1_554 S
C27 C23 1.397 . S
C27 C26 1.394 1_556 S
C27 C37 1.723 . S
C28 C25 1.453 . S
C28 H52 0.982 . S
C28 H53 0.979 . S
C28 H54 0.977 . S
C29 C25 1.684 . S
C29 H55 0.979 . S
C29 H56 0.980 . S
C29 H57 0.983 . S
C30 H6 0.948 . S
C30 C31 1.391 . S
C30 C35 1.391 . S
C31 C30 1.391 . S
C31 C32 1.391 . S
C32 H9 0.947 1_556 S
C32 C31 1.391 . S
C32 C33 1.392 1_556 S
C33 H10 0.948 . S
C33 C32 1.392 1_554 S
C33 C34 1.419 1_554 S
C34 C33 1.419 1_556 S
C34 C35 1.391 . S
C34 C38 1.397 1_556 S
C35 C30 1.391 . S
C35 C34 1.391 . S
C35 C36 1.399 . S
C36 C35 1.399 . S
C36 C37 1.396 . S
C36 C39 1.453 . S
C36 C40 1.684 . S
C37 C27 1.723 . S
C37 C36 1.396 . S
C37 C38 1.394 1_556 S
C38 C8 1.723 . S
C38 C34 1.397 1_554 S
C38 C37 1.394 1_554 S
C39 H11 0.982 . S
C39 H15 0.979 . S
C39 H16 0.977 . S
C39 C36 1.453 . S
C40 H12 0.979 . S
C40 H13 0.980 . S
C40 H14 0.983 . S
C40 C36 1.684 . S
H41 C59 0.948 . S
H42 C0 0.948 . S
H43 C18 0.979 . S
H44 C18 0.980 . S
H45 C18 0.983 . S
H46 C17 0.982 . S
H47 C17 0.979 . S
H48 C17 0.977 . S
H49 C19 0.948 . S
H50 C21 0.947 . S
H51 C22 0.948 . S
H52 C28 0.982 . S
H53 C28 0.979 . S
H54 C28 0.977 . S
H55 C29 0.979 . S
H56 C29 0.980 . S
H57 C29 0.983 . S
H58 C2 0.947 . S
C59 C2 1.392 . S
C59 C3 1.419 . S
C59 H41 0.948 . S
C60 C61 1.391 . S
C60 C64 1.391 . S
C60 H102 0.948 . S
C61 C60 1.391 . S
C61 C62 1.391 . S
C62 C61 1.391 . S
C62 H118 0.947 . S
C62 C119 1.392 . S
C63 C64 1.391 . S
C63 C67 1.397 . S
C63 C119 1.419 . S
C64 C60 1.391 . S
C64 C63 1.391 . S
C64 C65 1.399 . S
C65 C64 1.399 . S
C65 C68 1.396 . S
C65 C77 1.453 . S
C65 C78 1.684 . S
H66 C90 0.948 . S
C67 C63 1.397 . S
C67 C68 1.394 . S
C67 C86 1.723 . S
C68 C65 1.396 . S
C68 C67 1.394 . S
C68 C98 1.723 . S
H69 C92 0.947 . S
H70 C93 0.948 . S
H71 C99 0.982 . S
H72 C100 0.979 . S
H73 C100 0.980 . S
H74 C100 0.983 . S
H75 C99 0.979 . S
H76 C99 0.977 . S
C77 C65 1.453 . S
C77 H106 0.982 . S
C77 H107 0.979 . S
C77 H108 0.977 . S
C78 C65 1.684 . S
C78 H103 0.979 . S
C78 H104 0.980 . S
C78 H105 0.983 . S
C79 C80 1.391 . S
C79 C84 1.391 . S
C79 H109 0.948 . S
C80 C79 1.391 . S
C80 C81 1.391 . S
C81 C80 1.391 . S
C81 C82 1.392 . S
C81 H110 0.947 . S
C82 C81 1.392 . S
C82 C83 1.419 . S
C82 H111 0.948 . S
C83 C82 1.419 . S
C83 C84 1.391 . S
C83 C87 1.397 . S
C84 C79 1.391 . S
C84 C83 1.391 . S
C84 C85 1.399 . S
C85 C84 1.399 . S
C85 C86 1.396 . S
C85 C88 1.453 . S
C85 C89 1.684 . S
C86 C67 1.723 . S
C86 C85 1.396 . S
C86 C87 1.394 . S
C87 C83 1.397 . S
C87 C86 1.394 . S
C87 C97 1.723 . S
C88 C85 1.453 . S
C88 H112 0.982 . S
C88 H113 0.979 . S
C88 H114 0.977 . S
C89 C85 1.684 . S
C89 H115 0.979 . S
C89 H116 0.980 . S
C89 H117 0.983 . S
C90 H66 0.948 . S
C90 C91 1.391 . S
C90 C95 1.391 . S
C91 C90 1.391 . S
C91 C92 1.391 . S
C92 H69 0.947 . S
C92 C91 1.391 . S
C92 C93 1.392 . S
C93 H70 0.948 . S
C93 C92 1.392 . S
C93 C94 1.419 . S
C94 C93 1.419 . S
C94 C95 1.391 . S
C94 C98 1.397 . S
C95 C90 1.391 . S
C95 C94 1.391 . S
C95 C96 1.399 . S
C96 C95 1.399 . S
C96 C97 1.396 . S
C96 C99 1.453 . S
C96 C100 1.684 . S
C97 C87 1.723 . S
C97 C96 1.396 . S
C97 C98 1.394 . S
C98 C68 1.723 . S
C98 C94 1.397 . S
C98 C97 1.394 . S
C99 H71 0.982 . S
C99 H75 0.979 . S
C99 H76 0.977 . S
C99 C96 1.453 . S
C100 H72 0.979 . S
C100 H73 0.980 . S
C100 H74 0.983 . S
C100 C96 1.684 . S
H101 C119 0.948 . S
H102 C60 0.948 . S
H103 C78 0.979 . S
H104 C78 0.980 . S
H105 C78 0.983 . S
H106 C77 0.982 . S
H107 C77 0.979 . S
H108 C77 0.977 . S
H109 C79 0.948 . S
H110 C81 0.947 . S
H111 C82 0.948 . S
H112 C88 0.982 . S
H113 C88 0.979 . S
H114 C88 0.977 . S
H115 C89 0.979 . S
H116 C89 0.980 . S
H117 C89 0.983 . S
H118 C62 0.947 . S
C119 C62 1.392 . S
C119 C63 1.419 . S
C119 H101 0.948 . S
C120 C121 1.391 . S
C120 C124 1.391 . S
C120 H162 0.948 . S
C121 C120 1.391 . S
C121 C122 1.391 . S
C122 C121 1.391 . S
C122 H178 0.947 . S
C122 C179 1.392 . S
C123 C124 1.391 . S
C123 C127 1.397 . S
C123 C179 1.419 . S
C124 C120 1.391 . S
C124 C123 1.391 . S
C124 C125 1.399 . S
C125 C124 1.399 . S
C125 C128 1.396 . S
C125 C137 1.453 . S
C125 C138 1.684 . S
H126 C150 0.948 . S
C127 C123 1.397 . S
C127 C128 1.394 . S
C127 C146 1.723 1_556 S
C128 C125 1.396 . S
C128 C127 1.394 . S
C128 C158 1.723 . S
H129 C152 0.947 . S
H130 C153 0.948 . S
H131 C159 0.982 . S
H132 C160 0.979 . S
H133 C160 0.980 . S
H134 C160 0.983 . S
H135 C159 0.979 . S
H136 C159 0.977 . S
C137 C125 1.453 . S
C137 H166 0.982 . S
C137 H167 0.979 . S
C137 H168 0.977 . S
C138 C125 1.684 . S
C138 H163 0.979 . S
C138 H164 0.980 . S
C138 H165 0.983 . S
C139 C140 1.391 . S
C139 C144 1.391 . S
C139 H169 0.948 . S
C140 C139 1.391 . S
C140 C141 1.391 . S
C141 C140 1.391 . S
C141 C142 1.392 . S
C141 H170 0.947 . S
C142 C141 1.392 . S
C142 C143 1.419 . S
C142 H171 0.948 . S
C143 C142 1.419 . S
C143 C144 1.391 . S
C143 C147 1.397 . S
C144 C139 1.391 . S
C144 C143 1.391 . S
C144 C145 1.399 . S
C145 C144 1.399 . S
C145 C146 1.396 . S
C145 C148 1.453 . S
C145 C149 1.684 . S
C146 C127 1.723 1_554 S
C146 C145 1.396 . S
C146 C147 1.394 . S
C147 C143 1.397 . S
C147 C146 1.394 . S
C147 C157 1.723 . S
C148 C145 1.453 . S
C148 H172 0.982 . S
C148 H173 0.979 . S
C148 H174 0.977 . S
C149 C145 1.684 . S
C149 H175 0.979 . S
C149 H176 0.980 . S
C149 H177 0.983 . S
C150 H126 0.948 . S
C150 C151 1.391 . S
C150 C155 1.391 . S
C151 C150 1.391 . S
C151 C152 1.391 . S
C152 H129 0.947 . S
C152 C151 1.391 . S
C152 C153 1.392 . S
C153 H130 0.948 . S
C153 C152 1.392 . S
C153 C154 1.419 . S
C154 C153 1.419 . S
C154 C155 1.391 . S
C154 C158 1.397 . S
C155 C150 1.391 . S
C155 C154 1.391 . S
C155 C156 1.399 1_556 S
C156 C155 1.399 1_554 S
C156 C157 1.396 . S
C156 C159 1.453 . S
C156 C160 1.684 . S
C157 C147 1.723 . S
C157 C156 1.396 . S
C157 C158 1.394 1_554 S
C158 C128 1.723 . S
C158 C154 1.397 . S
C158 C157 1.394 1_556 S
C159 H131 0.982 . S
C159 H135 0.979 . S
C159 H136 0.977 . S
C159 C156 1.453 . S
C160 H132 0.979 . S
C160 H133 0.980 . S
C160 H134 0.983 . S
C160 C156 1.684 . S
H161 C179 0.948 1_554 S
H162 C120 0.948 . S
H163 C138 0.979 . S
H164 C138 0.980 . S
H165 C138 0.983 . S
H166 C137 0.982 . S
H167 C137 0.979 . S
H168 C137 0.977 . S
H169 C139 0.948 . S
H170 C141 0.947 . S
H171 C142 0.948 . S
H172 C148 0.982 . S
H173 C148 0.979 . S
H174 C148 0.977 . S
H175 C149 0.979 . S
H176 C149 0.980 . S
H177 C149 0.983 . S
H178 C122 0.947 . S
C179 C122 1.392 . S
C179 C123 1.419 . S
C179 H161 0.948 1_556 S
C180 C181 1.391 . S
C180 C184 1.391 . S
C180 H222 0.948 . S
C181 C180 1.391 . S
C181 C182 1.391 . S
C182 C181 1.391 . S
C182 H238 0.947 . S
C182 C239 1.392 . S
C183 C184 1.391 . S
C183 C187 1.397 . S
C183 C239 1.419 . S
C184 C180 1.391 . S
C184 C183 1.391 . S
C184 C185 1.399 . S
C185 C184 1.399 . S
C185 C188 1.396 . S
C185 C197 1.453 . S
C185 C198 1.684 . S
H186 C210 0.948 . S
C187 C183 1.397 . S
C187 C188 1.394 . S
C187 C206 1.723 . S
C188 C185 1.396 . S
C188 C187 1.394 . S
C188 C218 1.723 . S
H189 C212 0.947 . S
H190 C213 0.948 . S
H191 C219 0.982 . S
H192 C220 0.979 . S
H193 C220 0.980 . S
H194 C220 0.983 . S
H195 C219 0.979 . S
H196 C219 0.977 . S
C197 C185 1.453 . S
C197 H226 0.982 . S
C197 H227 0.979 . S
C197 H228 0.977 . S
C198 C185 1.684 . S
C198 H223 0.979 . S
C198 H224 0.980 . S
C198 H225 0.983 . S
C199 C200 1.391 . S
C199 C204 1.391 . S
C199 H229 0.948 . S
C200 C199 1.391 . S
C200 C201 1.391 . S
C201 C200 1.391 . S
C201 C202 1.392 . S
C201 H230 0.947 . S
C202 C201 1.392 . S
C202 C203 1.419 . S
C202 H231 0.948 . S
C203 C202 1.419 . S
C203 C204 1.391 . S
C203 C207 1.397 . S
C204 C199 1.391 . S
C204 C203 1.391 . S
C204 C205 1.399 . S
C205 C204 1.399 . S
C205 C206 1.396 . S
C205 C208 1.453 . S
C205 C209 1.684 . S
C206 C187 1.723 . S
C206 C205 1.396 . S
C206 C207 1.394 . S
C207 C203 1.397 . S
C207 C206 1.394 . S
C207 C217 1.723 . S
C208 C205 1.453 . S
C208 H232 0.982 . S
C208 H233 0.979 . S
C208 H234 0.977 . S
C209 C205 1.684 . S
C209 H235 0.979 . S
C209 H236 0.980 . S
C209 H237 0.983 . S
C210 H186 0.948 . S
C210 C211 1.391 . S
C210 C215 1.391 . S
C211 C210 1.391 . S
C211 C212 1.391 . S
C212 H189 0.947 . S
C212 C211 1.391 . S
C212 C213 1.392 . S
C213 H190 0.948 . S
C213 C212 1.392 . S
C213 C214 1.419 . S
C214 C213 1.419 . S
C214 C215 1.391 . S
C214 C218 1.397 . S
C215 C210 1.391 . S
C215 C214 1.391 . S
C215 C216 1.399 . S
C216 C215 1.399 . S
C216 C217 1.396 . S
C216 C219 1.453 . S
C216 C220 1.684 . S
C217 C207 1.723 . S
C217 C216 1.396 . S
C217 C218 1.394 . S
C218 C188 1.723 . S
C218 C214 1.397 . S
C218 C217 1.394 . S
C219 H191 0.982 . S
C219 H195 0.979 . S
C219 H196 0.977 . S
C219 C216 1.453 . S
C220 H192 0.979 . S
C220 H193 0.980 . S
C220 H194 0.983 . S
C220 C216 1.684 . S
H221 C239 0.948 . S
H222 C180 0.948 . S
H223 C198 0.979 . S
H224 C198 0.980 . S
H225 C198 0.983 . S
H226 C197 0.982 . S
H227 C197 0.979 . S
H228 C197 0.977 . S
H229 C199 0.948 . S
H230 C201 0.947 . S
H231 C202 0.948 . S
H232 C208 0.982 . S
H233 C208 0.979 . S
H234 C208 0.977 . S
H235 C209 0.979 . S
H236 C209 0.980 . S
H237 C209 0.983 . S
H238 C182 0.947 . S
C239 C182 1.392 . S
C239 C183 1.419 . S
C239 H221 0.948 . S
C240 C241 1.391 . S
C240 C244 1.391 . S
C240 H282 0.948 . S
C241 C240 1.391 . S
C241 C242 1.391 . S
C242 C241 1.391 . S
C242 H298 0.947 . S
C242 C299 1.392 . S
C243 C244 1.391 . S
C243 C247 1.397 . S
C243 C299 1.419 . S
C244 C240 1.391 . S
C244 C243 1.391 . S
C244 C245 1.399 . S
C245 C244 1.399 . S
C245 C248 1.396 . S
C245 C257 1.453 . S
C245 C258 1.684 . S
H246 C270 0.948 . S
C247 C243 1.397 . S
C247 C248 1.394 . S
C247 C266 1.723 . S
C248 C245 1.396 . S
C248 C247 1.394 . S
C248 C278 1.723 . S
H249 C272 0.947 1_554 S
H250 C273 0.948 . S
H251 C279 0.982 . S
H252 C280 0.979 . S
H253 C280 0.980 . S
H254 C280 0.983 . S
H255 C279 0.979 . S
H256 C279 0.977 . S
C257 C245 1.453 . S
C257 H286 0.982 . S
C257 H287 0.979 . S
C257 H288 0.977 . S
C258 C245 1.684 . S
C258 H283 0.979 . S
C258 H284 0.980 . S
C258 H285 0.983 . S
C259 C260 1.391 . S
C259 C264 1.391 . S
C259 H289 0.948 . S
C260 C259 1.391 . S
C260 C261 1.391 . S
C261 C260 1.391 . S
C261 C262 1.392 . S
C261 H290 0.947 . S
C262 C261 1.392 . S
C262 C263 1.419 . S
C262 H291 0.948 . S
C263 C262 1.419 . S
C263 C264 1.391 . S
C263 C267 1.397 . S
C264 C259 1.391 . S
C264 C263 1.391 . S
C264 C265 1.399 1_556 S
C265 C264 1.399 1_554 S
C265 C266 1.396 . S
C265 C268 1.453 . S
C265 C269 1.684 . S
C266 C247 1.723 . S
C266 C265 1.396 . S
C266 C267 1.394 1_554 S
C267 C263 1.397 . S
C267 C266 1.394 1_556 S
C267 C277 1.723 . S
C268 C265 1.453 . S
C268 H292 0.982 . S
C268 H293 0.979 . S
C268 H294 0.977 . S
C269 C265 1.684 . S
C269 H295 0.979 . S
C269 H296 0.980 . S
C269 H297 0.983 . S
C270 H246 0.948 . S
C270 C271 1.391 . S
C270 C275 1.391 . S
C271 C270 1.391 . S
C271 C272 1.391 . S
C272 H249 0.947 1_556 S
C272 C271 1.391 . S
C272 C273 1.392 1_556 S
C273 H250 0.948 . S
C273 C272 1.392 1_554 S
C273 C274 1.419 1_554 S
C274 C273 1.419 1_556 S
C274 C275 1.391 . S
C274 C278 1.397 1_556 S
C275 C270 1.391 . S
C275 C274 1.391 . S
C275 C276 1.399 . S
C276 C275 1.399 . S
C276 C277 1.396 . S
C276 C279 1.453 . S
C276 C280 1.684 . S
C277 C267 1.723 . S
C277 C276 1.396 . S
C277 C278 1.394 1_556 S
C278 C248 1.723 . S
C278 C274 1.397 1_554 S
C278 C277 1.394 1_554 S
C279 H251 0.982 . S
C279 H255 0.979 . S
C279 H256 0.977 . S
C279 C276 1.453 . S
C280 H252 0.979 . S
C280 H253 0.980 . S
C280 H254 0.983 . S
C280 C276 1.684 . S
H281 C299 0.948 . S
H282 C240 0.948 . S
H283 C258 0.979 . S
H284 C258 0.980 . S
H285 C258 0.983 . S
H286 C257 0.982 . S
H287 C257 0.979 . S
H288 C257 0.977 . S
H289 C259 0.948 . S
H290 C261 0.947 . S
H291 C262 0.948 . S
H292 C268 0.982 . S
H293 C268 0.979 . S
H294 C268 0.977 . S
H295 C269 0.979 . S
H296 C269 0.980 . S
H297 C269 0.983 . S
H298 C242 0.947 . S
C299 C242 1.392 . S
C299 C243 1.419 . S
C299 H281 0.948 . S
C300 C301 1.391 . S
C300 C304 1.391 . S
C300 H342 0.948 . S
C301 C300 1.391 . S
C301 C302 1.391 . S
C302 C301 1.391 . S
C302 H358 0.947 . S
C302 C359 1.392 . S
C303 C304 1.391 . S
C303 C307 1.397 . S
C303 C359 1.419 . S
C304 C300 1.391 . S
C304 C303 1.391 . S
C304 C305 1.399 . S
C305 C304 1.399 . S
C305 C308 1.396 . S
C305 C317 1.453 . S
C305 C318 1.684 . S
H306 C330 0.948 . S
C307 C303 1.397 . S
C307 C308 1.394 . S
C307 C326 1.723 . S
C308 C305 1.396 . S
C308 C307 1.394 . S
C308 C338 1.723 . S
H309 C332 0.947 . S
H310 C333 0.948 . S
H311 C339 0.982 . S
H312 C340 0.979 . S
H313 C340 0.980 . S
H314 C340 0.983 . S
H315 C339 0.979 . S
H316 C339 0.977 . S
C317 C305 1.453 . S
C317 H346 0.982 . S
C317 H347 0.979 . S
C317 H348 0.977 . S
C318 C305 1.684 . S
C318 H343 0.979 . S
C318 H344 0.980 . S
C318 H345 0.983 . S
C319 C320 1.391 . S
C319 C324 1.391 . S
C319 H349 0.948 . S
C320 C319 1.391 . S
C320 C321 1.391 . S
C321 C320 1.391 . S
C321 C322 1.392 . S
C321 H350 0.947 . S
C322 C321 1.392 . S
C322 C323 1.419 . S
C322 H351 0.948 . S
C323 C322 1.419 . S
C323 C324 1.391 . S
C323 C327 1.397 . S
C324 C319 1.391 . S
C324 C323 1.391 . S
C324 C325 1.399 . S
C325 C324 1.399 . S
C325 C326 1.396 . S
C325 C328 1.453 . S
C325 C329 1.684 . S
C326 C307 1.723 . S
C326 C325 1.396 . S
C326 C327 1.394 . S
C327 C323 1.397 . S
C327 C326 1.394 . S
C327 C337 1.723 . S
C328 C325 1.453 . S
C328 H352 0.982 . S
C328 H353 0.979 . S
C328 H354 0.977 . S
C329 C325 1.684 . S
C329 H355 0.979 . S
C329 H356 0.980 . S
C329 H357 0.983 . S
C330 H306 0.948 . S
C330 C331 1.391 . S
C330 C335 1.391 . S
C331 C330 1.391 . S
C331 C332 1.391 . S
C332 H309 0.947 . S
C332 C331 1.391 . S
C332 C333 1.392 . S
C333 H310 0.948 . S
C333 C332 1.392 . S
C333 C334 1.419 . S
C334 C333 1.419 . S
C334 C335 1.391 . S
C334 C338 1.397 . S
C335 C330 1.391 . S
C335 C334 1.391 . S
C335 C336 1.399 . S
C336 C335 1.399 . S
C336 C337 1.396 . S
C336 C339 1.453 . S
C336 C340 1.684 . S
C337 C327 1.723 . S
C337 C336 1.396 . S
C337 C338 1.394 . S
C338 C308 1.723 . S
C338 C334 1.397 . S
C338 C337 1.394 . S
C339 H311 0.982 . S
C339 H315 0.979 . S
C339 H316 0.977 . S
C339 C336 1.453 . S
C340 H312 0.979 . S
C340 H313 0.980 . S
C340 H314 0.983 . S
C340 C336 1.684 . S
H341 C359 0.948 . S
H342 C300 0.948 . S
H343 C318 0.979 . S
H344 C318 0.980 . S
H345 C318 0.983 . S
H346 C317 0.982 . S
H347 C317 0.979 . S
H348 C317 0.977 . S
H349 C319 0.948 . S
H350 C321 0.947 . S
H351 C322 0.948 . S
H352 C328 0.982 . S
H353 C328 0.979 . S
H354 C328 0.977 . S
H355 C329 0.979 . S
H356 C329 0.980 . S
H357 C329 0.983 . S
H358 C302 0.947 . S
C359 C302 1.392 . S
C359 C303 1.419 . S
C359 H341 0.948 . S
C360 C361 1.391 . S
C360 C364 1.391 . S
C360 H402 0.948 . S
C361 C360 1.391 . S
C361 C362 1.391 . S
C362 C361 1.391 . S
C362 H418 0.947 1_565 S
C362 C419 1.392 . S
C363 C364 1.391 . S
C363 C367 1.397 . S
C363 C419 1.419 . S
C364 C360 1.391 . S
C364 C363 1.391 . S
C364 C365 1.399 . S
C365 C364 1.399 . S
C365 C368 1.396 . S
C365 C377 1.453 . S
C365 C378 1.684 . S
H366 C390 0.948 . S
C367 C363 1.397 . S
C367 C368 1.394 . S
C367 C386 1.723 1_556 S
C368 C365 1.396 . S
C368 C367 1.394 . S
C368 C398 1.723 . S
H369 C392 0.947 . S
H370 C393 0.948 . S
H371 C399 0.982 . S
H372 C400 0.979 . S
H373 C400 0.980 . S
H374 C400 0.983 . S
H375 C399 0.979 . S
H376 C399 0.977 . S
C377 C365 1.453 . S
C377 H406 0.982 . S
C377 H407 0.979 . S
C377 H408 0.977 . S
C378 C365 1.684 . S
C378 H403 0.979 . S
C378 H404 0.980 . S
C378 H405 0.983 . S
C379 C380 1.391 . S
C379 C384 1.391 . S
C379 H409 0.948 . S
C380 C379 1.391 . S
C380 C381 1.391 . S
C381 C380 1.391 . S
C381 C382 1.392 . S
C381 H410 0.947 . S
C382 C381 1.392 . S
C382 C383 1.419 . S
C382 H411 0.948 . S
C383 C382 1.419 . S
C383 C384 1.391 . S
C383 C387 1.397 . S
C384 C379 1.391 . S
C384 C383 1.391 . S
C384 C385 1.399 . S
C385 C384 1.399 . S
C385 C386 1.396 . S
C385 C388 1.453 . S
C385 C389 1.684 . S
C386 C367 1.723 1_554 S
C386 C385 1.396 . S
C386 C387 1.394 . S
C387 C383 1.397 . S
C387 C386 1.394 . S
C387 C397 1.723 . S
C388 C385 1.453 . S
C388 H412 0.982 . S
C388 H413 0.979 . S
C388 H414 0.977 . S
C389 C385 1.684 . S
C389 H415 0.979 . S
C389 H416 0.980 . S
C389 H417 0.983 . S
C390 H366 0.948 . S
C390 C391 1.391 . S
C390 C395 1.391 . S
C391 C390 1.391 . S
C391 C392 1.391 . S
C392 H369 0.947 . S
C392 C391 1.391 . S
C392 C393 1.392 . S
C393 H370 0.948 . S
C393 C392 1.392 . S
C393 C394 1.419 . S
C394 C393 1.419 . S
C394 C395 1.391 . S
C394 C398 1.397 . S
C395 C390 1.391 . S
C395 C394 1.391 . S
C395 C396 1.399 1_556 S
C396 C395 1.399 1_554 S
C396 C397 1.396 . S
C396 C399 1.453 . S
C396 C400 1.684 . S
C397 C387 1.723 . S
C397 C396 1.396 . S
C397 C398 1.394 1_554 S
C398 C368 1.723 . S
C398 C394 1.397 . S
C398 C397 1.394 1_556 S
C399 H371 0.982 . S
C399 H375 0.979 . S
C399 H376 0.977 . S
C399 C396 1.453 . S
C400 H372 0.979 . S
C400 H373 0.980 . S
C400 H374 0.983 . S
C400 C396 1.684 . S
H401 C419 0.948 1_554 S
H402 C360 0.948 . S
H403 C378 0.979 . S
H404 C378 0.980 . S
H405 C378 0.983 . S
H406 C377 0.982 . S
H407 C377 0.979 . S
H408 C377 0.977 . S
H409 C379 0.948 . S
H410 C381 0.947 . S
H411 C382 0.948 . S
H412 C388 0.982 . S
H413 C388 0.979 . S
H414 C388 0.977 . S
H415 C389 0.979 . S
H416 C389 0.980 . S
H417 C389 0.983 . S
H418 C362 0.947 1_545 S
C419 C362 1.392 . S
C419 C363 1.419 . S
C419 H401 0.948 1_556 S
C420 C421 1.391 . S
C420 C424 1.391 . S
C420 H462 0.948 . S
C421 C420 1.391 . S
C421 C422 1.391 . S
C422 C421 1.391 . S
C422 H478 0.947 . S
C422 C479 1.392 . S
C423 C424 1.391 . S
C423 C427 1.397 . S
C423 C479 1.419 . S
C424 C420 1.391 . S
C424 C423 1.391 . S
C424 C425 1.399 . S
C425 C424 1.399 . S
C425 C428 1.396 . S
C425 C437 1.453 . S
C425 C438 1.684 . S
H426 C450 0.948 . S
C427 C423 1.397 . S
C427 C428 1.394 . S
C427 C446 1.723 . S
C428 C425 1.396 . S
C428 C427 1.394 . S
C428 C458 1.723 . S
H429 C452 0.947 . S
H430 C453 0.948 . S
H431 C459 0.982 . S
H432 C460 0.979 . S
H433 C460 0.980 . S
H434 C460 0.983 . S
H435 C459 0.979 . S
H436 C459 0.977 . S
C437 C425 1.453 . S
C437 H466 0.982 . S
C437 H467 0.979 . S
C437 H468 0.977 . S
C438 C425 1.684 . S
C438 H463 0.979 . S
C438 H464 0.980 . S
C438 H465 0.983 . S
C439 C440 1.391 . S
C439 C444 1.391 . S
C439 H469 0.948 . S
C440 C439 1.391 . S
C440 C441 1.391 . S
C441 C440 1.391 . S
C441 C442 1.392 . S
C441 H470 0.947 . S
C442 C441 1.392 . S
C442 C443 1.419 . S
C442 H471 0.948 . S
C443 C442 1.419 . S
C443 C444 1.391 . S
C443 C447 1.397 . S
C444 C439 1.391 . S
C444 C443 1.391 . S
C444 C445 1.399 . S
C445 C444 1.399 . S
C445 C446 1.396 . S
C445 C448 1.453 . S
C445 C449 1.684 . S
C446 C427 1.723 . S
C446 C445 1.396 . S
C446 C447 1.394 . S
C447 C443 1.397 . S
C447 C446 1.394 . S
C447 C457 1.723 . S
C448 C445 1.453 . S
C448 H472 0.982 . S
C448 H473 0.979 . S
C448 H474 0.977 . S
C449 C445 1.684 . S
C449 H475 0.979 . S
C449 H476 0.980 . S
C449 H477 0.983 . S
C450 H426 0.948 . S
C450 C451 1.391 . S
C450 C455 1.391 . S
C451 C450 1.391 . S
C451 C452 1.391 . S
C452 H429 0.947 . S
C452 C451 1.391 . S
C452 C453 1.392 . S
C453 H430 0.948 . S
C453 C452 1.392 . S
C453 C454 1.419 . S
C454 C453 1.419 . S
C454 C455 1.391 . S
C454 C458 1.397 . S
C455 C450 1.391 . S
C455 C454 1.391 . S
C455 C456 1.399 . S
C456 C455 1.399 . S
C456 C457 1.396 . S
C456 C459 1.453 . S
C456 C460 1.684 . S
C457 C447 1.723 . S
C457 C456 1.396 . S
C457 C458 1.394 . S
C458 C428 1.723 . S
C458 C454 1.397 . S
C458 C457 1.394 . S
C459 H431 0.982 . S
C459 H435 0.979 . S
C459 H436 0.977 . S
C459 C456 1.453 . S
C460 H432 0.979 . S
C460 H433 0.980 . S
C460 H434 0.983 . S
C460 C456 1.684 . S
H461 C479 0.948 . S
H462 C420 0.948 . S
H463 C438 0.979 . S
H464 C438 0.980 . S
H465 C438 0.983 . S
H466 C437 0.982 . S
H467 C437 0.979 . S
H468 C437 0.977 . S
H469 C439 0.948 . S
H470 C441 0.947 . S
H471 C442 0.948 . S
H472 C448 0.982 . S
H473 C448 0.979 . S
H474 C448 0.977 . S
H475 C449 0.979 . S
H476 C449 0.980 . S
H477 C449 0.983 . S
H478 C422 0.947 . S
C479 C422 1.392 . S
C479 C423 1.419 . S
C479 H461 0.948 . S
Sc480 O483 2.025 . S
Sc480 O490 2.105 1_455 S
Sc480 O493 2.105 . S
Sc480 O496 2.105 . S
Sc480 O499 2.105 1_455 S
Sc481 O483 2.025 . S
Sc481 O491 2.105 1_455 S
Sc481 O495 2.105 . S
Sc481 O497 2.105 . S
Sc481 O501 2.105 1_455 S
Sc482 O483 2.025 . S
Sc482 O492 2.105 1_455 S
Sc482 O494 2.105 . S
Sc482 O498 2.105 . S
Sc482 O500 2.105 1_455 S
O483 Sc480 2.025 . S
O483 Sc481 2.025 . S
O483 Sc482 2.025 . S
C484 O490 1.268 . S
C484 O500 1.268 . S
C485 O491 1.268 . S
C485 O499 1.268 . S
C486 O492 1.268 . S
C486 O501 1.268 . S
C487 O493 1.268 . S
C487 O497 1.268 . S
C488 O494 1.268 . S
C488 O496 1.268 . S
C489 O495 1.268 . S
C489 O498 1.268 . S
O490 Sc480 2.105 1_655 S
O490 C484 1.268 . S
O491 Sc481 2.105 1_655 S
O491 C485 1.268 . S
O492 Sc482 2.105 1_655 S
O492 C486 1.268 . S
O493 Sc480 2.105 . S
O493 C487 1.268 . S
O494 Sc482 2.105 . S
O494 C488 1.268 . S
O495 Sc481 2.105 . S
O495 C489 1.268 . S
O496 Sc480 2.105 . S
O496 C488 1.268 . S
O497 Sc481 2.105 . S
O497 C487 1.268 . S
O498 Sc482 2.105 . S
O498 C489 1.268 . S
O499 Sc480 2.105 1_655 S
O499 C485 1.268 . S
O500 Sc482 2.105 1_655 S
O500 C484 1.268 . S
O501 Sc481 2.105 1_655 S
O501 C486 1.268 . S
Sc502 O505 2.025 . S
Sc502 O512 2.105 . S
Sc502 O515 2.105 1_455 S
Sc502 O518 2.105 1_455 S
Sc502 O521 2.105 . S
Sc503 O505 2.025 . S
Sc503 O513 2.105 . S
Sc503 O517 2.105 1_455 S
Sc503 O519 2.105 1_455 S
Sc503 O523 2.105 . S
Sc504 O505 2.025 . S
Sc504 O514 2.105 . S
Sc504 O516 2.105 1_455 S
Sc504 O520 2.105 1_455 S
Sc504 O522 2.105 . S
O505 Sc502 2.025 . S
O505 Sc503 2.025 . S
O505 Sc504 2.025 . S
C506 O512 1.268 . S
C506 O522 1.268 . S
C507 O513 1.268 . S
C507 O521 1.268 . S
C508 O514 1.268 . S
C508 O523 1.268 . S
C509 O515 1.268 . S
C509 O519 1.268 . S
C510 O516 1.268 . S
C510 O518 1.268 . S
C511 O517 1.268 . S
C511 O520 1.268 . S
O512 Sc502 2.105 . S
O512 C506 1.268 . S
O513 Sc503 2.105 . S
O513 C507 1.268 . S
O514 Sc504 2.105 . S
O514 C508 1.268 . S
O515 Sc502 2.105 1_655 S
O515 C509 1.268 . S
O516 Sc504 2.105 1_655 S
O516 C510 1.268 . S
O517 Sc503 2.105 1_655 S
O517 C511 1.268 . S
O518 Sc502 2.105 1_655 S
O518 C510 1.268 . S
O519 Sc503 2.105 1_655 S
O519 C509 1.268 . S
O520 Sc504 2.105 1_655 S
O520 C511 1.268 . S
O521 Sc502 2.105 . S
O521 C507 1.268 . S
O522 Sc504 2.105 . S
O522 C506 1.268 . S
O523 Sc503 2.105 . S
O523 C508 1.268 . S
Sc524 O527 2.025 . S
Sc524 O534 2.105 . S
Sc524 O537 2.105 . S
Sc524 O540 2.105 . S
Sc524 O543 2.105 . S
Sc525 O527 2.025 . S
Sc525 O535 2.105 . S
Sc525 O539 2.105 . S
Sc525 O541 2.105 . S
Sc525 O545 2.105 . S
Sc526 O527 2.025 . S
Sc526 O536 2.105 . S
Sc526 O538 2.105 . S
Sc526 O542 2.105 . S
Sc526 O544 2.105 . S
O527 Sc524 2.025 . S
O527 Sc525 2.025 . S
O527 Sc526 2.025 . S
C528 O534 1.268 . S
C528 O544 1.268 . S
C529 O535 1.268 . S
C529 O543 1.268 . S
C530 O536 1.268 . S
C530 O545 1.268 . S
C531 O537 1.268 . S
C531 O541 1.268 . S
C532 O538 1.268 . S
C532 O540 1.268 . S
C533 O539 1.268 . S
C533 O542 1.268 . S
O534 Sc524 2.105 . S
O534 C528 1.268 . S
O535 Sc525 2.105 . S
O535 C529 1.268 . S
O536 Sc526 2.105 . S
O536 C530 1.268 . S
O537 Sc524 2.105 . S
O537 C531 1.268 . S
O538 Sc526 2.105 . S
O538 C532 1.268 . S
O539 Sc525 2.105 . S
O539 C533 1.268 . S
O540 Sc524 2.105 . S
O540 C532 1.268 . S
O541 Sc525 2.105 . S
O541 C531 1.268 . S
O542 Sc526 2.105 . S
O542 C533 1.268 . S
O543 Sc524 2.105 . S
O543 C529 1.268 . S
O544 Sc526 2.105 . S
O544 C528 1.268 . S
O545 Sc525 2.105 . S
O545 C530 1.268 . S
Sc546 O549 2.025 . S
Sc546 O556 2.105 . S
Sc546 O559 2.105 . S
Sc546 O562 2.105 . S
Sc546 O565 2.105 . S
Sc547 O549 2.025 . S
Sc547 O557 2.105 . S
Sc547 O561 2.105 . S
Sc547 O563 2.105 . S
Sc547 O567 2.105 . S
Sc548 O549 2.025 . S
Sc548 O558 2.105 . S
Sc548 O560 2.105 . S
Sc548 O564 2.105 . S
Sc548 O566 2.105 . S
O549 Sc546 2.025 . S
O549 Sc547 2.025 . S
O549 Sc548 2.025 . S
C550 O556 1.268 . S
C550 O566 1.268 . S
C551 O557 1.268 . S
C551 O565 1.268 . S
C552 O558 1.268 . S
C552 O567 1.268 . S
C553 O559 1.268 . S
C553 O563 1.268 . S
C554 O560 1.268 . S
C554 O562 1.268 . S
C555 O561 1.268 . S
C555 O564 1.268 . S
O556 Sc546 2.105 . S
O556 C550 1.268 . S
O557 Sc547 2.105 . S
O557 C551 1.268 . S
O558 Sc548 2.105 . S
O558 C552 1.268 . S
O559 Sc546 2.105 . S
O559 C553 1.268 . S
O560 Sc548 2.105 . S
O560 C554 1.268 . S
O561 Sc547 2.105 . S
O561 C555 1.268 . S
O562 Sc546 2.105 . S
O562 C554 1.268 . S
O563 Sc547 2.105 . S
O563 C553 1.268 . S
O564 Sc548 2.105 . S
O564 C555 1.268 . S
O565 Sc546 2.105 . S
O565 C551 1.268 . S
O566 Sc548 2.105 . S
O566 C550 1.268 . S
O567 Sc547 2.105 . S
O567 C552 1.268 . S
H568 C576 0.950 . S
H569 C581 0.950 . S
H570 C578 0.950 . S
H571 C580 0.950 . S
H572 C582 0.950 . S
H573 C584 0.950 . S
H574 C586 0.950 . S
H575 C587 0.950 . S
C576 H568 0.950 . S
C576 C577 1.386 . S
C576 C578 1.391 . S
C577 C576 1.386 . S
C577 C581 1.393 . S
C578 H570 0.950 . S
C578 C576 1.391 . S
C578 C579 1.400 . S
C579 C578 1.400 . S
C579 C580 1.398 . S
C579 C585 1.491 . S
C580 H571 0.950 . S
C580 C579 1.398 . S
C580 C581 1.391 . S
C581 H569 0.950 . S
C581 C577 1.393 . S
C581 C580 1.391 . S
C582 H572 0.950 . S
C582 C583 1.386 . S
C582 C584 1.391 . S
C583 C582 1.386 . S
C583 C587 1.393 . S
C584 H573 0.950 . S
C584 C582 1.391 . S
C584 C585 1.400 . S
C585 C579 1.491 . S
C585 C584 1.400 . S
C585 C586 1.398 . S
C586 H574 0.950 . S
C586 C585 1.398 . S
C586 C587 1.391 . S
C587 H575 0.950 . S
C587 C583 1.393 . S
C587 C586 1.391 . S
H588 C596 0.950 . S
H589 C601 0.950 . S
H590 C598 0.950 . S
H591 C600 0.950 . S
H592 C602 0.950 . S
H593 C604 0.950 . S
H594 C606 0.950 . S
H595 C607 0.950 . S
C596 H588 0.950 . S
C596 C597 1.386 . S
C596 C598 1.391 . S
C597 C596 1.386 . S
C597 C601 1.393 . S
C598 H590 0.950 . S
C598 C596 1.391 . S
C598 C599 1.400 . S
C599 C598 1.400 . S
C599 C600 1.398 . S
C599 C605 1.491 . S
C600 H591 0.950 . S
C600 C599 1.398 . S
C600 C601 1.391 . S
C601 H589 0.950 . S
C601 C597 1.393 . S
C601 C600 1.391 . S
C602 H592 0.950 . S
C602 C603 1.386 . S
C602 C604 1.391 . S
C603 C602 1.386 . S
C603 C607 1.393 . S
C604 H593 0.950 . S
C604 C602 1.391 . S
C604 C605 1.400 . S
C605 C599 1.491 . S
C605 C604 1.400 . S
C605 C606 1.398 . S
C606 H594 0.950 . S
C606 C605 1.398 . S
C606 C607 1.391 . S
C607 H595 0.950 . S
C607 C603 1.393 . S
C607 C606 1.391 . S
H608 C616 0.950 . S
H609 C621 0.950 . S
H610 C618 0.950 . S
H611 C620 0.950 . S
H612 C622 0.950 . S
H613 C624 0.950 . S
H614 C626 0.950 . S
H615 C627 0.950 . S
C616 H608 0.950 . S
C616 C617 1.386 . S
C616 C618 1.391 . S
C617 C616 1.386 . S
C617 C621 1.393 . S
C618 H610 0.950 . S
C618 C616 1.391 . S
C618 C619 1.400 . S
C619 C618 1.400 . S
C619 C620 1.398 . S
C619 C625 1.491 . S
C620 H611 0.950 . S
C620 C619 1.398 . S
C620 C621 1.391 . S
C621 H609 0.950 . S
C621 C617 1.393 . S
C621 C620 1.391 . S
C622 H612 0.950 . S
C622 C623 1.386 . S
C622 C624 1.391 . S
C623 C622 1.386 . S
C623 C627 1.393 . S
C624 H613 0.950 . S
C624 C622 1.391 . S
C624 C625 1.400 . S
C625 C619 1.491 . S
C625 C624 1.400 . S
C625 C626 1.398 . S
C626 H614 0.950 . S
C626 C625 1.398 . S
C626 C627 1.391 . S
C627 H615 0.950 . S
C627 C623 1.393 . S
C627 C626 1.391 . S
H628 C636 0.950 . S
H629 C641 0.950 . S
H630 C638 0.950 . S
H631 C640 0.950 . S
H632 C642 0.950 . S
H633 C644 0.950 . S
H634 C646 0.950 . S
H635 C647 0.950 . S
C636 H628 0.950 . S
C636 C637 1.386 . S
C636 C638 1.391 . S
C637 C636 1.386 . S
C637 C641 1.393 . S
C638 H630 0.950 . S
C638 C636 1.391 . S
C638 C639 1.400 . S
C639 C638 1.400 . S
C639 C640 1.398 . S
C639 C645 1.491 . S
C640 H631 0.950 . S
C640 C639 1.398 . S
C640 C641 1.391 . S
C641 H629 0.950 . S
C641 C637 1.393 . S
C641 C640 1.391 . S
C642 H632 0.950 . S
C642 C643 1.386 . S
C642 C644 1.391 . S
C643 C642 1.386 . S
C643 C647 1.393 . S
C644 H633 0.950 . S
C644 C642 1.391 . S
C644 C645 1.400 . S
C645 C639 1.491 . S
C645 C644 1.400 . S
C645 C646 1.398 . S
C646 H634 0.950 . S
C646 C645 1.398 . S
C646 C647 1.391 . S
C647 H635 0.950 . S
C647 C643 1.393 . S
C647 C646 1.391 . S
H648 C656 0.950 . S
H649 C661 0.950 . S
H650 C658 0.950 . S
H651 C660 0.950 . S
H652 C662 0.950 . S
H653 C664 0.950 . S
H654 C666 0.950 . S
H655 C667 0.950 . S
C656 H648 0.950 . S
C656 C657 1.386 . S
C656 C658 1.391 . S
C657 C656 1.386 . S
C657 C661 1.393 . S
C658 H650 0.950 . S
C658 C656 1.391 . S
C658 C659 1.400 . S
C659 C658 1.400 . S
C659 C660 1.398 . S
C659 C665 1.491 . S
C660 H651 0.950 . S
C660 C659 1.398 . S
C660 C661 1.391 . S
C661 H649 0.950 . S
C661 C657 1.393 . S
C661 C660 1.391 . S
C662 H652 0.950 . S
C662 C663 1.386 . S
C662 C664 1.391 . S
C663 C662 1.386 . S
C663 C667 1.393 . S
C664 H653 0.950 . S
C664 C662 1.391 . S
C664 C665 1.400 . S
C665 C659 1.491 . S
C665 C664 1.400 . S
C665 C666 1.398 . S
C666 H654 0.950 . S
C666 C665 1.398 . S
C666 C667 1.391 . S
C667 H655 0.950 . S
C667 C663 1.393 . S
C667 C666 1.391 . S
H668 C676 0.950 . S
H669 C681 0.950 . S
H670 C678 0.950 . S
H671 C680 0.950 . S
H672 C682 0.950 . S
H673 C684 0.950 . S
H674 C686 0.950 . S
H675 C687 0.950 . S
C676 H668 0.950 . S
C676 C677 1.386 . S
C676 C678 1.391 . S
C677 C676 1.386 . S
C677 C681 1.393 . S
C678 H670 0.950 . S
C678 C676 1.391 . S
C678 C679 1.400 . S
C679 C678 1.400 . S
C679 C680 1.398 . S
C679 C685 1.491 . S
C680 H671 0.950 . S
C680 C679 1.398 . S
C680 C681 1.391 . S
C681 H669 0.950 . S
C681 C677 1.393 . S
C681 C680 1.391 . S
C682 H672 0.950 . S
C682 C683 1.386 . S
C682 C684 1.391 . S
C683 C682 1.386 . S
C683 C687 1.393 . S
C684 H673 0.950 . S
C684 C682 1.391 . S
C684 C685 1.400 . S
C685 C679 1.491 . S
C685 C684 1.400 . S
C685 C686 1.398 . S
C686 H674 0.950 . S
C686 C685 1.398 . S
C686 C687 1.391 . S
C687 H675 0.950 . S
C687 C683 1.393 . S
C687 C686 1.391 . S
H688 C696 0.950 . S
H689 C701 0.950 . S
H690 C698 0.950 . S
H691 C700 0.950 . S
H692 C702 0.950 . S
H693 C704 0.950 . S
H694 C706 0.950 . S
H695 C707 0.950 . S
C696 H688 0.950 . S
C696 C697 1.386 . S
C696 C698 1.391 . S
C697 C696 1.386 . S
C697 C701 1.393 . S
C698 H690 0.950 . S
C698 C696 1.391 . S
C698 C699 1.400 . S
C699 C698 1.400 . S
C699 C700 1.398 . S
C699 C705 1.491 . S
C700 H691 0.950 . S
C700 C699 1.398 . S
C700 C701 1.391 . S
C701 H689 0.950 . S
C701 C697 1.393 . S
C701 C700 1.391 . S
C702 H692 0.950 . S
C702 C703 1.386 . S
C702 C704 1.391 . S
C703 C702 1.386 . S
C703 C707 1.393 . S
C704 H693 0.950 . S
C704 C702 1.391 . S
C704 C705 1.400 . S
C705 C699 1.491 . S
C705 C704 1.400 . S
C705 C706 1.398 . S
C706 H694 0.950 . S
C706 C705 1.398 . S
C706 C707 1.391 . S
C707 H695 0.950 . S
C707 C703 1.393 . S
C707 C706 1.391 . S
H708 C716 0.950 . S
H709 C721 0.950 . S
H710 C718 0.950 . S
H711 C720 0.950 . S
H712 C722 0.950 . S
H713 C724 0.950 . S
H714 C726 0.950 . S
H715 C727 0.950 . S
C716 H708 0.950 . S
C716 C717 1.386 . S
C716 C718 1.391 . S
C717 C716 1.386 . S
C717 C721 1.393 . S
C718 H710 0.950 . S
C718 C716 1.391 . S
C718 C719 1.400 . S
C719 C718 1.400 . S
C719 C720 1.398 . S
C719 C725 1.491 . S
C720 H711 0.950 . S
C720 C719 1.398 . S
C720 C721 1.391 . S
C721 H709 0.950 . S
C721 C717 1.393 . S
C721 C720 1.391 . S
C722 H712 0.950 . S
C722 C723 1.386 . S
C722 C724 1.391 . S
C723 C722 1.386 . S
C723 C727 1.393 . S
C724 H713 0.950 . S
C724 C722 1.391 . S
C724 C725 1.400 . S
C725 C719 1.491 . S
C725 C724 1.400 . S
C725 C726 1.398 . S
C726 H714 0.950 . S
C726 C725 1.398 . S
C726 C727 1.391 . S
C727 H715 0.950 . S
C727 C723 1.393 . S
C727 C726 1.391 . S
H728 C736 0.950 . S
H729 C741 0.950 . S
H730 C738 0.950 . S
H731 C740 0.950 . S
H732 C742 0.950 . S
H733 C744 0.950 . S
H734 C746 0.950 . S
H735 C747 0.950 . S
C736 H728 0.950 . S
C736 C737 1.386 . S
C736 C738 1.391 . S
C737 C736 1.386 . S
C737 C741 1.393 . S
C738 H730 0.950 . S
C738 C736 1.391 . S
C738 C739 1.400 . S
C739 C738 1.400 . S
C739 C740 1.398 . S
C739 C745 1.491 . S
C740 H731 0.950 . S
C740 C739 1.398 . S
C740 C741 1.391 . S
C741 H729 0.950 . S
C741 C737 1.393 . S
C741 C740 1.391 . S
C742 H732 0.950 . S
C742 C743 1.386 . S
C742 C744 1.391 . S
C743 C742 1.386 . S
C743 C747 1.393 . S
C744 H733 0.950 . S
C744 C742 1.391 . S
C744 C745 1.400 . S
C745 C739 1.491 . S
C745 C744 1.400 . S
C745 C746 1.398 . S
C746 H734 0.950 . S
C746 C745 1.398 . S
C746 C747 1.391 . S
C747 H735 0.950 . S
C747 C743 1.393 . S
C747 C746 1.391 . S
H748 C756 0.950 . S
H749 C761 0.950 . S
H750 C758 0.950 . S
H751 C760 0.950 . S
H752 C762 0.950 . S
H753 C764 0.950 . S
H754 C766 0.950 . S
H755 C767 0.950 . S
C756 H748 0.950 . S
C756 C757 1.386 . S
C756 C758 1.391 . S
C757 C756 1.386 . S
C757 C761 1.393 . S
C758 H750 0.950 . S
C758 C756 1.391 . S
C758 C759 1.400 . S
C759 C758 1.400 . S
C759 C760 1.398 . S
C759 C765 1.491 . S
C760 H751 0.950 . S
C760 C759 1.398 . S
C760 C761 1.391 . S
C761 H749 0.950 . S
C761 C757 1.393 . S
C761 C760 1.391 . S
C762 H752 0.950 . S
C762 C763 1.386 . S
C762 C764 1.391 . S
C763 C762 1.386 . S
C763 C767 1.393 . S
C764 H753 0.950 . S
C764 C762 1.391 . S
C764 C765 1.400 . S
C765 C759 1.491 . S
C765 C764 1.400 . S
C765 C766 1.398 . S
C766 H754 0.950 . S
C766 C765 1.398 . S
C766 C767 1.391 . S
C767 H755 0.950 . S
C767 C763 1.393 . S
C767 C766 1.391 . S
H768 C776 0.950 . S
H769 C781 0.950 . S
H770 C778 0.950 . S
H771 C780 0.950 . S
H772 C782 0.950 . S
H773 C784 0.950 . S
H774 C786 0.950 . S
H775 C787 0.950 . S
C776 H768 0.950 . S
C776 C777 1.386 . S
C776 C778 1.391 . S
C777 C776 1.386 . S
C777 C781 1.393 . S
C778 H770 0.950 . S
C778 C776 1.391 . S
C778 C779 1.400 . S
C779 C778 1.400 . S
C779 C780 1.398 . S
C779 C785 1.491 . S
C780 H771 0.950 . S
C780 C779 1.398 . S
C780 C781 1.391 . S
C781 H769 0.950 . S
C781 C777 1.393 . S
C781 C780 1.391 . S
C782 H772 0.950 . S
C782 C783 1.386 . S
C782 C784 1.391 . S
C783 C782 1.386 . S
C783 C787 1.393 . S
C784 H773 0.950 . S
C784 C782 1.391 . S
C784 C785 1.400 . S
C785 C779 1.491 . S
C785 C784 1.400 . S
C785 C786 1.398 . S
C786 H774 0.950 . S
C786 C785 1.398 . S
C786 C787 1.391 . S
C787 H775 0.950 . S
C787 C783 1.393 . S
C787 C786 1.391 . S
H788 C796 0.950 . S
H789 C801 0.950 . S
H790 C798 0.950 . S
H791 C800 0.950 . S
H792 C802 0.950 . S
H793 C804 0.950 . S
H794 C806 0.950 . S
H795 C807 0.950 . S
C796 H788 0.950 . S
C796 C797 1.386 . S
C796 C798 1.391 . S
C797 C796 1.386 . S
C797 C801 1.393 . S
C798 H790 0.950 . S
C798 C796 1.391 . S
C798 C799 1.400 . S
C799 C798 1.400 . S
C799 C800 1.398 . S
C799 C805 1.491 . S
C800 H791 0.950 . S
C800 C799 1.398 . S
C800 C801 1.391 . S
C801 H789 0.950 . S
C801 C797 1.393 . S
C801 C800 1.391 . S
C802 H792 0.950 . S
C802 C803 1.386 . S
C802 C804 1.391 . S
C803 C802 1.386 . S
C803 C807 1.393 . S
C804 H793 0.950 . S
C804 C802 1.391 . S
C804 C805 1.400 . S
C805 C799 1.491 . S
C805 C804 1.400 . S
C805 C806 1.398 . S
C806 H794 0.950 . S
C806 C805 1.398 . S
C806 C807 1.391 . S
C807 H795 0.950 . S
C807 C803 1.393 . S
C807 C806 1.391 . S
H808 C816 0.950 . S
H809 C821 0.950 1_565 S
H810 C818 0.950 . S
H811 C820 0.950 . S
H812 C822 0.950 . S
H813 C824 0.950 . S
H814 C826 0.950 . S
H815 C827 0.950 . S
C816 H808 0.950 . S
C816 C817 1.386 . S
C816 C818 1.391 . S
C817 C816 1.386 . S
C817 C821 1.393 . S
C818 H810 0.950 . S
C818 C816 1.391 . S
C818 C819 1.400 . S
C819 C818 1.400 . S
C819 C820 1.398 . S
C819 C825 1.491 . S
C820 H811 0.950 . S
C820 C819 1.398 . S
C820 C821 1.391 . S
C821 H809 0.950 1_545 S
C821 C817 1.393 . S
C821 C820 1.391 . S
C822 H812 0.950 . S
C822 C823 1.386 . S
C822 C824 1.391 . S
C823 C822 1.386 . S
C823 C827 1.393 . S
C824 H813 0.950 . S
C824 C822 1.391 . S
C824 C825 1.400 . S
C825 C819 1.491 . S
C825 C824 1.400 . S
C825 C826 1.398 . S
C826 H814 0.950 . S
C826 C825 1.398 . S
C826 C827 1.391 . S
C827 H815 0.950 . S
C827 C823 1.393 . S
C827 C826 1.391 . S
H828 C836 0.950 . S
H829 C841 0.950 . S
H830 C838 0.950 . S
H831 C840 0.950 . S
H832 C842 0.950 . S
H833 C844 0.950 . S
H834 C846 0.950 . S
H835 C847 0.950 . S
C836 H828 0.950 . S
C836 C837 1.386 . S
C836 C838 1.391 . S
C837 C836 1.386 . S
C837 C841 1.393 . S
C838 H830 0.950 . S
C838 C836 1.391 . S
C838 C839 1.400 . S
C839 C838 1.400 . S
C839 C840 1.398 . S
C839 C845 1.491 . S
C840 H831 0.950 . S
C840 C839 1.398 . S
C840 C841 1.391 . S
C841 H829 0.950 . S
C841 C837 1.393 . S
C841 C840 1.391 . S
C842 H832 0.950 . S
C842 C843 1.386 . S
C842 C844 1.391 . S
C843 C842 1.386 . S
C843 C847 1.393 . S
C844 H833 0.950 . S
C844 C842 1.391 . S
C844 C845 1.400 . S
C845 C839 1.491 . S
C845 C844 1.400 . S
C845 C846 1.398 . S
C846 H834 0.950 . S
C846 C845 1.398 . S
C846 C847 1.391 . S
C847 H835 0.950 . S
C847 C843 1.393 . S
C847 C846 1.391 . S
H848 C856 0.950 . S
H849 C861 0.950 . S
H850 C858 0.950 . S
H851 C860 0.950 . S
H852 C862 0.950 . S
H853 C864 0.950 . S
H854 C866 0.950 . S
H855 C867 0.950 . S
C856 H848 0.950 . S
C856 C857 1.386 . S
C856 C858 1.391 . S
C857 C856 1.386 . S
C857 C861 1.393 . S
C858 H850 0.950 . S
C858 C856 1.391 . S
C858 C859 1.400 . S
C859 C858 1.400 . S
C859 C860 1.398 . S
C859 C865 1.491 . S
C860 H851 0.950 . S
C860 C859 1.398 . S
C860 C861 1.391 . S
C861 H849 0.950 . S
C861 C857 1.393 . S
C861 C860 1.391 . S
C862 H852 0.950 . S
C862 C863 1.386 . S
C862 C864 1.391 . S
C863 C862 1.386 . S
C863 C867 1.393 . S
C864 H853 0.950 . S
C864 C862 1.391 . S
C864 C865 1.400 . S
C865 C859 1.491 . S
C865 C864 1.400 . S
C865 C866 1.398 . S
C866 H854 0.950 . S
C866 C865 1.398 . S
C866 C867 1.391 . S
C867 H855 0.950 . S
C867 C863 1.393 . S
C867 C866 1.391 . S
H868 C876 0.950 1_545 S
H869 C881 0.950 . S
H870 C878 0.950 . S
H871 C880 0.950 . S
H872 C882 0.950 . S
H873 C884 0.950 . S
H874 C886 0.950 . S
H875 C887 0.950 . S
C876 H868 0.950 1_565 S
C876 C877 1.386 . S
C876 C878 1.391 . S
C877 C876 1.386 . S
C877 C881 1.393 . S
C878 H870 0.950 . S
C878 C876 1.391 . S
C878 C879 1.400 . S
C879 C878 1.400 . S
C879 C880 1.398 . S
C879 C885 1.491 . S
C880 H871 0.950 . S
C880 C879 1.398 . S
C880 C881 1.391 . S
C881 H869 0.950 . S
C881 C877 1.393 . S
C881 C880 1.391 . S
C882 H872 0.950 . S
C882 C883 1.386 . S
C882 C884 1.391 . S
C883 C882 1.386 . S
C883 C887 1.393 . S
C884 H873 0.950 . S
C884 C882 1.391 . S
C884 C885 1.400 . S
C885 C879 1.491 . S
C885 C884 1.400 . S
C885 C886 1.398 . S
C886 H874 0.950 . S
C886 C885 1.398 . S
C886 C887 1.391 . S
C887 H875 0.950 . S
C887 C883 1.393 . S
C887 C886 1.391 . S
H888 C896 0.950 . S
H889 C901 0.950 . S
H890 C898 0.950 . S
H891 C900 0.950 . S
H892 C902 0.950 . S
H893 C904 0.950 . S
H894 C906 0.950 . S
H895 C907 0.950 . S
C896 H888 0.950 . S
C896 C897 1.386 . S
C896 C898 1.391 . S
C897 C896 1.386 . S
C897 C901 1.393 . S
C898 H890 0.950 . S
C898 C896 1.391 . S
C898 C899 1.400 . S
C899 C898 1.400 . S
C899 C900 1.398 . S
C899 C905 1.491 . S
C900 H891 0.950 . S
C900 C899 1.398 . S
C900 C901 1.391 . S
C901 H889 0.950 . S
C901 C897 1.393 . S
C901 C900 1.391 . S
C902 H892 0.950 . S
C902 C903 1.386 . S
C902 C904 1.391 . S
C903 C902 1.386 . S
C903 C907 1.393 . S
C904 H893 0.950 . S
C904 C902 1.391 . S
C904 C905 1.400 . S
C905 C899 1.491 . S
C905 C904 1.400 . S
C905 C906 1.398 . S
C906 H894 0.950 . S
C906 C905 1.398 . S
C906 C907 1.391 . S
C907 H895 0.950 . S
C907 C903 1.393 . S
C907 C906 1.391 . S
H908 C916 0.950 . S
H909 C921 0.950 . S
H910 C918 0.950 . S
H911 C920 0.950 . S
H912 C922 0.950 . S
H913 C924 0.950 . S
H914 C926 0.950 . S
H915 C927 0.950 . S
C916 H908 0.950 . S
C916 C917 1.386 . S
C916 C918 1.391 . S
C917 C916 1.386 . S
C917 C921 1.393 . S
C918 H910 0.950 . S
C918 C916 1.391 . S
C918 C919 1.400 . S
C919 C918 1.400 . S
C919 C920 1.398 . S
C919 C925 1.491 . S
C920 H911 0.950 . S
C920 C919 1.398 . S
C920 C921 1.391 . S
C921 H909 0.950 . S
C921 C917 1.393 . S
C921 C920 1.391 . S
C922 H912 0.950 . S
C922 C923 1.386 . S
C922 C924 1.391 . S
C923 C922 1.386 . S
C923 C927 1.393 . S
C924 H913 0.950 . S
C924 C922 1.391 . S
C924 C925 1.400 . S
C925 C919 1.491 . S
C925 C924 1.400 . S
C925 C926 1.398 . S
C926 H914 0.950 . S
C926 C925 1.398 . S
C926 C927 1.391 . S
C927 H915 0.950 . S
C927 C923 1.393 . S
C927 C926 1.391 . S
H928 C936 0.950 . S
H929 C941 0.950 . S
H930 C938 0.950 . S
H931 C940 0.950 . S
H932 C942 0.950 . S
H933 C944 0.950 . S
H934 C946 0.950 . S
H935 C947 0.950 . S
C936 H928 0.950 . S
C936 C937 1.386 . S
C936 C938 1.391 . S
C937 C936 1.386 . S
C937 C941 1.393 . S
C938 H930 0.950 . S
C938 C936 1.391 . S
C938 C939 1.400 . S
C939 C938 1.400 . S
C939 C940 1.398 . S
C939 C945 1.491 . S
C940 H931 0.950 . S
C940 C939 1.398 . S
C940 C941 1.391 . S
C941 H929 0.950 . S
C941 C937 1.393 . S
C941 C940 1.391 . S
C942 H932 0.950 . S
C942 C943 1.386 . S
C942 C944 1.391 . S
C943 C942 1.386 . S
C943 C947 1.393 . S
C944 H933 0.950 . S
C944 C942 1.391 . S
C944 C945 1.400 . S
C945 C939 1.491 . S
C945 C944 1.400 . S
C945 C946 1.398 . S
C946 H934 0.950 . S
C946 C945 1.398 . S
C946 C947 1.391 . S
C947 H935 0.950 . S
C947 C943 1.393 . S
C947 C946 1.391 . S
H948 C956 0.950 . S
H949 C961 0.950 . S
H950 C958 0.950 . S
H951 C960 0.950 . S
H952 C962 0.950 . S
H953 C964 0.950 . S
H954 C966 0.950 . S
H955 C967 0.950 . S
C956 H948 0.950 . S
C956 C957 1.386 . S
C956 C958 1.391 . S
C957 C956 1.386 . S
C957 C961 1.393 . S
C958 H950 0.950 . S
C958 C956 1.391 . S
C958 C959 1.400 . S
C959 C958 1.400 . S
C959 C960 1.398 . S
C959 C965 1.491 . S
C960 H951 0.950 . S
C960 C959 1.398 . S
C960 C961 1.391 . S
C961 H949 0.950 . S
C961 C957 1.393 . S
C961 C960 1.391 . S
C962 H952 0.950 . S
C962 C963 1.386 . S
C962 C964 1.391 . S
C963 C962 1.386 . S
C963 C967 1.393 . S
C964 H953 0.950 . S
C964 C962 1.391 . S
C964 C965 1.400 . S
C965 C959 1.491 . S
C965 C964 1.400 . S
C965 C966 1.398 . S
C966 H954 0.950 . S
C966 C965 1.398 . S
C966 C967 1.391 . S
C967 H955 0.950 . S
C967 C963 1.393 . S
C967 C966 1.391 . S
H968 C976 0.950 . S
H969 C981 0.950 . S
H970 C978 0.950 . S
H971 C980 0.950 . S
H972 C982 0.950 . S
H973 C984 0.950 . S
H974 C986 0.950 . S
H975 C987 0.950 . S
C976 H968 0.950 . S
C976 C977 1.386 . S
C976 C978 1.391 . S
C977 C976 1.386 . S
C977 C981 1.393 . S
C978 H970 0.950 . S
C978 C976 1.391 . S
C978 C979 1.400 . S
C979 C978 1.400 . S
C979 C980 1.398 . S
C979 C985 1.491 . S
C980 H971 0.950 . S
C980 C979 1.398 . S
C980 C981 1.391 . S
C981 H969 0.950 . S
C981 C977 1.393 . S
C981 C980 1.391 . S
C982 H972 0.950 . S
C982 C983 1.386 . S
C982 C984 1.391 . S
C983 C982 1.386 . S
C983 C987 1.393 . S
C984 H973 0.950 . S
C984 C982 1.391 . S
C984 C985 1.400 . S
C985 C979 1.491 . S
C985 C984 1.400 . S
C985 C986 1.398 . S
C986 H974 0.950 . S
C986 C985 1.398 . S
C986 C987 1.391 . S
C987 H975 0.950 . S
C987 C983 1.393 . S
C987 C986 1.391 . S
H988 C996 0.950 . S
H989 C1001 0.950 . S
H990 C998 0.950 . S
H991 C1000 0.950 . S
H992 C1002 0.950 . S
H993 C1004 0.950 . S
H994 C1006 0.950 . S
H995 C1007 0.950 . S
C996 H988 0.950 . S
C996 C997 1.386 . S
C996 C998 1.391 . S
C997 C996 1.386 . S
C997 C1001 1.393 . S
C998 H990 0.950 . S
C998 C996 1.391 . S
C998 C999 1.400 . S
C999 C998 1.400 . S
C999 C1000 1.398 . S
C999 C1005 1.491 . S
C1000 H991 0.950 . S
C1000 C999 1.398 . S
C1000 C1001 1.391 . S
C1001 H989 0.950 . S
C1001 C997 1.393 . S
C1001 C1000 1.391 . S
C1002 H992 0.950 . S
C1002 C1003 1.386 . S
C1002 C1004 1.391 . S
C1003 C1002 1.386 . S
C1003 C1007 1.393 . S
C1004 H993 0.950 . S
C1004 C1002 1.391 . S
C1004 C1005 1.400 . S
C1005 C999 1.491 . S
C1005 C1004 1.400 . S
C1005 C1006 1.398 . S
C1006 H994 0.950 . S
C1006 C1005 1.398 . S
C1006 C1007 1.391 . S
C1007 H995 0.950 . S
C1007 C1003 1.393 . S
C1007 C1006 1.391 . S
H1008 C1016 0.950 . S
H1009 C1021 0.950 . S
H1010 C1018 0.950 . S
H1011 C1020 0.950 . S
H1012 C1022 0.950 . S
H1013 C1024 0.950 . S
H1014 C1026 0.950 . S
H1015 C1027 0.950 . S
C1016 H1008 0.950 . S
C1016 C1017 1.386 . S
C1016 C1018 1.391 . S
C1017 C1016 1.386 . S
C1017 C1021 1.393 . S
C1018 H1010 0.950 . S
C1018 C1016 1.391 . S
C1018 C1019 1.400 . S
C1019 C1018 1.400 . S
C1019 C1020 1.398 . S
C1019 C1025 1.491 . S
C1020 H1011 0.950 . S
C1020 C1019 1.398 . S
C1020 C1021 1.391 . S
C1021 H1009 0.950 . S
C1021 C1017 1.393 . S
C1021 C1020 1.391 . S
C1022 H1012 0.950 . S
C1022 C1023 1.386 . S
C1022 C1024 1.391 . S
C1023 C1022 1.386 . S
C1023 C1027 1.393 . S
C1024 H1013 0.950 . S
C1024 C1022 1.391 . S
C1024 C1025 1.400 . S
C1025 C1019 1.491 . S
C1025 C1024 1.400 . S
C1025 C1026 1.398 . S
C1026 H1014 0.950 . S
C1026 C1025 1.398 . S
C1026 C1027 1.391 . S
C1027 H1015 0.950 . S
C1027 C1023 1.393 . S
C1027 C1026 1.391 . S
H1028 C1036 0.950 . S
H1029 C1041 0.950 . S
H1030 C1038 0.950 . S
H1031 C1040 0.950 . S
H1032 C1042 0.950 . S
H1033 C1044 0.950 . S
H1034 C1046 0.950 . S
H1035 C1047 0.950 . S
C1036 H1028 0.950 . S
C1036 C1037 1.386 . S
C1036 C1038 1.391 . S
C1037 C1036 1.386 . S
C1037 C1041 1.393 . S
C1038 H1030 0.950 . S
C1038 C1036 1.391 . S
C1038 C1039 1.400 . S
C1039 C1038 1.400 . S
C1039 C1040 1.398 . S
C1039 C1045 1.491 . S
C1040 H1031 0.950 . S
C1040 C1039 1.398 . S
C1040 C1041 1.391 . S
C1041 H1029 0.950 . S
C1041 C1037 1.393 . S
C1041 C1040 1.391 . S
C1042 H1032 0.950 . S
C1042 C1043 1.386 . S
C1042 C1044 1.391 . S
C1043 C1042 1.386 . S
C1043 C1047 1.393 . S
C1044 H1033 0.950 . S
C1044 C1042 1.391 . S
C1044 C1045 1.400 . S
C1045 C1039 1.491 . S
C1045 C1044 1.400 . S
C1045 C1046 1.398 . S
C1046 H1034 0.950 . S
C1046 C1045 1.398 . S
C1046 C1047 1.391 . S
C1047 H1035 0.950 . S
C1047 C1043 1.393 . S
C1047 C1046 1.391 . S
C577 C31 1.497 . S
C583 C506 1.509 . S
C603 C484 1.524 . S
C597 C61 1.523 . S
C623 C510 1.509 . S
C617 C151 1.482 . S
C643 C488 1.523 . S
C637 C181 1.542 . S
C663 C550 1.527 . S
C657 C271 1.514 . S
C683 C528 1.526 . S
C677 C301 1.521 . S
C697 C391 1.480 . S
C703 C554 1.506 . S
C723 C532 1.519 . S
C717 C421 1.542 . S
C737 C20 1.551 . S
C743 C555 1.561 . S
C763 C533 1.566 . S
C757 C91 1.544 . S
C777 C121 1.481 . S
C783 C552 1.557 . S
C797 C211 1.575 . S
C803 C530 1.562 . S
C823 C511 1.564 . S
C817 C260 1.549 1_545 S
C837 C331 1.533 1_565 S
C843 C489 1.566 . S
C863 C508 1.557 . S
C857 C361 1.481 1_545 S
C883 C486 1.565 . S
C877 C451 1.579 1_565 S
C903 C529 1.533 . S
C897 C1 1.444 . S
C923 C551 1.533 . S
C917 C80 1.458 . S
C937 C140 1.520 . S
C943 C531 1.531 . S
C963 C553 1.537 . S
C957 C200 1.489 . S
C983 C485 1.527 . S
C977 C241 1.464 . S
C997 C320 1.461 . S
C1003 C507 1.529 . S
C1017 C380 1.507 . S
C1023 C487 1.525 . S
C1037 C440 1.479 . S
C1043 C509 1.543 . S
