# Generated by pormake.
# Topology sqc, (4,8)-cn, num edge types: 1
# Building blocks:
#     Node 0, Type 0, BuildingBlock: GIZVER_clean_linker_0, # of connection points: 4
#     Node 1, Type 0, BuildingBlock: GIZVER_clean_linker_0, # of connection points: 4
#     Node 2, Type 0, BuildingBlock: GIZVER_clean_linker_0, # of connection points: 4
#     Node 3, Type 0, BuildingBlock: GIZVER_clean_linker_0, # of connection points: 4
#     Node 4, Type 0, BuildingBlock: GIZVER_clean_linker_0, # of connection points: 4
#     Node 5, Type 0, BuildingBlock: GIZVER_clean_linker_0, # of connection points: 4
#     Node 6, Type 0, BuildingBlock: GIZVER_clean_linker_0, # of connection points: 4
#     Node 7, Type 0, BuildingBlock: GIZVER_clean_linker_0, # of connection points: 4
#     Node 8, Type 1, BuildingBlock: VETTIZ_charged_sbu_0, # of connection points: 8
#     Node 9, Type 1, BuildingBlock: VETTIZ_charged_sbu_0, # of connection points: 8
#     Node 10, Type 1, BuildingBlock: VETTIZ_charged_sbu_0, # of connection points: 8
#     Node 11, Type 1, BuildingBlock: VETTIZ_charged_sbu_0, # of connection points: 8
#     Edge 12, Type (0, 1), BuildingBlock: EZIPEK_clean_linker_0, # of connection points: 2
#     Edge 13, Type (0, 1), BuildingBlock: EZIPEK_clean_linker_0, # of connection points: 2
#     Edge 14, Type (0, 1), BuildingBlock: EZIPEK_clean_linker_0, # of connection points: 2
#     Edge 15, Type (0, 1), BuildingBlock: EZIPEK_clean_linker_0, # of connection points: 2
#     Edge 16, Type (0, 1), BuildingBlock: EZIPEK_clean_linker_0, # of connection points: 2
#     Edge 17, Type (0, 1), BuildingBlock: EZIPEK_clean_linker_0, # of connection points: 2
#     Edge 18, Type (0, 1), BuildingBlock: EZIPEK_clean_linker_0, # of connection points: 2
#     Edge 19, Type (0, 1), BuildingBlock: EZIPEK_clean_linker_0, # of connection points: 2
#     Edge 20, Type (0, 1), BuildingBlock: EZIPEK_clean_linker_0, # of connection points: 2
#     Edge 21, Type (0, 1), BuildingBlock: EZIPEK_clean_linker_0, # of connection points: 2
#     Edge 22, Type (0, 1), BuildingBlock: EZIPEK_clean_linker_0, # of connection points: 2
#     Edge 23, Type (0, 1), BuildingBlock: EZIPEK_clean_linker_0, # of connection points: 2
#     Edge 24, Type (0, 1), BuildingBlock: EZIPEK_clean_linker_0, # of connection points: 2
#     Edge 25, Type (0, 1), BuildingBlock: EZIPEK_clean_linker_0, # of connection points: 2
#     Edge 26, Type (0, 1), BuildingBlock: EZIPEK_clean_linker_0, # of connection points: 2
#     Edge 27, Type (0, 1), BuildingBlock: EZIPEK_clean_linker_0, # of connection points: 2
#     Edge 28, Type (0, 1), BuildingBlock: EZIPEK_clean_linker_0, # of connection points: 2
#     Edge 29, Type (0, 1), BuildingBlock: EZIPEK_clean_linker_0, # of connection points: 2
#     Edge 30, Type (0, 1), BuildingBlock: EZIPEK_clean_linker_0, # of connection points: 2
#     Edge 31, Type (0, 1), BuildingBlock: EZIPEK_clean_linker_0, # of connection points: 2
#     Edge 32, Type (0, 1), BuildingBlock: EZIPEK_clean_linker_0, # of connection points: 2
#     Edge 33, Type (0, 1), BuildingBlock: EZIPEK_clean_linker_0, # of connection points: 2
#     Edge 34, Type (0, 1), BuildingBlock: EZIPEK_clean_linker_0, # of connection points: 2
#     Edge 35, Type (0, 1), BuildingBlock: EZIPEK_clean_linker_0, # of connection points: 2
#     Edge 36, Type (0, 1), BuildingBlock: EZIPEK_clean_linker_0, # of connection points: 2
#     Edge 37, Type (0, 1), BuildingBlock: EZIPEK_clean_linker_0, # of connection points: 2
#     Edge 38, Type (0, 1), BuildingBlock: EZIPEK_clean_linker_0, # of connection points: 2
#     Edge 39, Type (0, 1), BuildingBlock: EZIPEK_clean_linker_0, # of connection points: 2
#     Edge 40, Type (0, 1), BuildingBlock: EZIPEK_clean_linker_0, # of connection points: 2
#     Edge 41, Type (0, 1), BuildingBlock: EZIPEK_clean_linker_0, # of connection points: 2
#     Edge 42, Type (0, 1), BuildingBlock: EZIPEK_clean_linker_0, # of connection points: 2
#     Edge 43, Type (0, 1), BuildingBlock: EZIPEK_clean_linker_0, # of connection points: 2
# Relax obj value: 0.167
# Max RMSD: 0.279
# Mean RMSD: 0.219
data_MOF--net-sqc--node1-VETTIZ_charged_sbu_0--node2-GIZVER_clean_linker_0--edge1-EZIPEK_clean_linker_0
_symmetry_space_group_name_H-M    P1
_symmetry_Int_Tables_number       1
_symmetry_cell_setting            triclinic
loop_
_symmetry_equiv_pos_as_xyz
'x, y, z'
_cell_length_a     18.664721
_cell_length_b     18.691687
_cell_length_c     53.398199
_cell_angle_alpha  89.819138
_cell_angle_beta   90.160056
_cell_angle_gamma 89.110089
loop_
_atom_site_label
_atom_site_type_symbol
_atom_site_fract_x
_atom_site_fract_y
_atom_site_fract_z
_atom_type_partial_charge
H0 H 0.94705 0.97356 0.46368 0.0
H1 H 0.95536 0.04189 0.54063 0.0
H2 H 0.76236 0.95513 0.51015 0.0
H3 H 0.02469 0.06802 0.47633 0.0
H4 H 0.02366 0.10131 0.50711 0.0
H5 H 0.1179 0.98304 0.46281 0.0
H6 H 0.3086 1.0082 0.50653 0.0
H7 H 0.10255 0.04405 0.54053 0.0
C8 C 0.92394 0.97517 0.48228 0.0
C9 C 0.85206 0.95586 0.48545 0.0
C10 C 0.96267 1.0054 0.50229 0.0
C11 C 0.92817 0.01393 0.5257 0.0
C12 C 0.85439 0.99952 0.52818 0.0
C13 C 0.81929 0.96537 0.50862 0.0
C14 C 0.02746 0.0506 0.49627 0.0
C15 C 0.10098 0.01732 0.50115 0.0
C16 C 0.14291 0.99306 0.48077 0.0
C17 C 0.21802 0.98808 0.48299 0.0
C18 C 0.25052 1.00809 0.50542 0.0
C19 C 0.20995 0.02606 0.52654 0.0
C20 C 0.13453 0.02765 0.52457 0.0
H21 H 0.36231 0.85363 0.72331 0.0
H22 H 0.2595 0.83557 0.79539 0.0
H23 H 0.22186 0.02065 0.74929 0.0
H24 H 0.40666 0.77077 0.7585 0.0
H25 H 0.34815 0.74833 0.78336 0.0
H26 H 0.40776 0.70158 0.72096 0.0
H27 H 0.27263 0.5181 0.71736 0.0
H28 H 0.24007 0.67365 0.77521 0.0
C29 C 0.3234 0.87299 0.73682 0.0
C30 C 0.29253 0.94155 0.73382 0.0
C31 C 0.30849 0.83205 0.75844 0.0
C32 C 0.26621 0.8632 0.7777 0.0
C33 C 0.23693 0.93255 0.77462 0.0
C34 C 0.2447 0.96722 0.75171 0.0
C35 C 0.34927 0.76249 0.76311 0.0
C36 C 0.32166 0.69963 0.74812 0.0
C37 C 0.36013 0.67419 0.72709 0.0
C38 C 0.34301 0.60813 0.7162 0.0
C39 C 0.28404 0.57034 0.72512 0.0
C40 C 0.24895 0.59171 0.74695 0.0
C41 C 0.26607 0.6577 0.75793 0.0
H42 H 0.58624 1.01026 0.03161 0.0
H43 H 0.5845 0.18413 0.97838 0.0
H44 H 0.765 0.04007 -0.01731 0.0
H45 H 0.50823 0.12062 0.03575 0.0
H46 H 0.49728 0.18177 0.01065 0.0
H47 H 0.41897 0.03466 0.04286 0.0
H48 H 0.23526 0.03614 -0.00557 0.0
H49 H 0.42649 0.14152 0.97099 0.0
C50 C 0.60922 0.03618 0.01539 0.0
C51 C 0.68047 0.01918 0.00841 0.0
C52 C 0.57173 0.09371 0.00355 0.0
C53 C 0.60828 0.13473 -0.0146 0.0
C54 C 0.67828 0.11536 0.97804 0.0
C55 C 0.71035 0.05382 -0.01197 0.0
C56 C 0.50293 0.12369 0.01501 0.0
C57 C 0.43359 0.08794 0.00708 0.0
C58 C 0.39498 0.04761 0.02487 0.0
C59 C 0.32299 0.02985 0.02047 0.0
C60 C 0.29126 0.04832 -0.00239 0.0
C61 C 0.32813 0.08696 0.97951 0.0
C62 C 0.39953 0.10711 -0.01579 0.0
H63 H 0.13684 0.20147 0.22753 0.0
H64 H 0.2357 0.1821 0.30068 0.0
H65 H 0.23573 1.00316 0.25041 0.0
H66 H 0.09337 0.27256 0.26608 0.0
H67 H 0.1501 0.27825 0.2927 0.0
H68 H 0.10135 0.36087 0.23374 0.0
H69 H 0.26255 0.52118 0.23941 0.0
H70 H 0.26829 0.34194 0.28957 0.0
C71 C 0.16826 0.17123 0.24112 0.0
C72 C 0.18751 0.09973 0.23604 0.0
C73 C 0.18488 0.20172 0.26456 0.0
C74 C 0.2229 0.15979 0.28254 0.0
C75 C 0.24138 0.08782 0.27745 0.0
C76 C 0.22302 0.05895 0.25425 0.0
C77 C 0.15061 0.27287 0.27195 0.0
C78 C 0.18609 0.33836 0.26084 0.0
C79 C 0.15159 0.37865 0.2416 0.0
C80 C 0.17933 0.44499 0.23398 0.0
C81 C 0.24238 0.4691 0.24479 0.0
C82 C 0.27194 0.43474 0.26552 0.0
C83 C 0.24614 0.36772 0.27301 0.0
H84 H 0.66411 0.37957 0.26991 0.0
H85 H 0.76113 0.37175 0.19669 0.0
H86 H 0.79577 0.5513 0.24482 0.0
H87 H 0.61292 0.3094 0.2359 0.0
H88 H 0.65288 0.30587 0.20588 0.0
H89 H 0.61432 0.20146 0.25898 0.0
H90 H 0.72791 0.02247 0.22853 0.0
H91 H 0.78791 0.23564 0.20703 0.0
C92 C 0.7013 0.40071 0.25631 0.0
C93 C 0.73162 0.46825 0.26045 0.0
C94 C 0.71325 0.36402 0.23351 0.0
C95 C 0.75587 0.39632 0.21496 0.0
C96 C 0.78396 0.46472 0.21884 0.0
C97 C 0.77512 0.4979 0.24204 0.0
C98 C 0.66535 0.30252 0.22624 0.0
C99 C 0.69506 0.2277 0.23123 0.0
C100 C 0.65612 0.18094 0.2468 0.0
C101 C 0.67092 0.10719 0.24633 0.0
C102 C 0.72024 0.08016 0.22946 0.0
C103 C 0.76649 0.12496 0.21653 0.0
C104 C 0.75398 0.19978 0.21742 0.0
H105 H 0.66749 0.69026 0.71271 0.0
H106 H 0.79954 0.68493 0.77908 0.0
H107 H 0.78059 0.49806 0.7335 0.0
H108 H 0.65121 0.77715 0.74604 0.0
H109 H 0.70336 0.77191 0.77386 0.0
H110 H 0.73681 0.81026 0.70453 0.0
H111 H 0.78279 0.02893 0.72275 0.0
H112 H 0.77583 0.87179 0.78101 0.0
C113 C 0.70781 0.66355 0.72418 0.0
C114 C 0.72437 0.59109 0.71987 0.0
C115 C 0.73736 0.69895 0.74507 0.0
C116 C 0.78181 0.66025 0.76184 0.0
C117 C 0.79477 0.58693 0.75814 0.0
C118 C 0.77132 0.55507 0.73611 0.0
C119 C 0.70713 0.77062 0.75306 0.0
C120 C 0.7489 0.83411 0.74385 0.0
C121 C 0.74985 0.85092 0.7181 0.0
C122 C 0.76131 0.92177 0.71028 0.0
C123 C 0.77685 0.97347 0.72836 0.0
C124 C 0.78787 0.95504 0.75344 0.0
C125 C 0.77293 0.88509 0.76126 0.0
H126 H 0.4544 0.53577 0.03822 0.0
H127 H 0.46381 0.43685 0.96512 0.0
H128 H 0.26725 0.53166 -0.00815 0.0
H129 H 0.53892 0.43531 0.02997 0.0
H130 H 0.53993 0.39153 0.00069 0.0
H131 H 0.62079 0.53231 0.03894 0.0
H132 H 0.80665 0.53387 -0.00822 0.0
H133 H 0.61468 0.4363 0.96535 0.0
C134 C 0.42964 0.52253 0.02049 0.0
C135 C 0.35712 0.54111 0.01625 0.0
C136 C 0.46879 0.48342 0.00224 0.0
C137 C 0.43469 0.46652 0.97933 0.0
C138 C 0.36124 0.48255 0.97579 0.0
C139 C 0.3239 0.51935 -0.0056 0.0
C140 C 0.53866 0.44553 0.00943 0.0
C141 C 0.60753 0.48327 0.00245 0.0
C142 C 0.64562 0.52119 0.02102 0.0
C143 C 0.71795 0.53893 0.01729 0.0
C144 C 0.75035 0.5222 -0.00552 0.0
C145 C 0.71331 0.48787 0.97542 0.0
C146 C 0.64167 0.46802 0.97935 0.0
H147 H 0.073 0.52799 0.5475 0.0
H148 H 0.11121 0.62581 0.47562 0.0
H149 H 0.2847 0.52688 0.51693 0.0
H150 H 1.00449 0.64182 0.53308 0.0
H151 H 0.01709 0.67477 0.50216 0.0
H152 H 0.95075 0.51453 0.538 0.0
H153 H 0.76245 0.50165 0.49221 0.0
H154 H 0.92949 0.64538 0.47148 0.0
C155 C 0.10872 0.54147 0.53232 0.0
C156 C 0.18048 0.518 0.53323 0.0
C157 C 0.08422 0.58372 0.51199 0.0
C158 C 0.13096 0.59687 0.49192 0.0
C159 C 0.20437 0.57913 0.49391 0.0
C160 C 0.22843 0.54151 0.5151 0.0
C161 C 0.01381 0.62467 0.5134 0.0
C162 C 0.94982 0.58233 0.50506 0.0
C163 C 0.92228 0.52963 0.52105 0.0
C164 C 0.85458 0.5011 0.51648 0.0
C165 C 0.81557 0.52276 0.49537 0.0
C166 C 0.84242 0.57398 0.47898 0.0
C167 C 0.91013 0.60333 0.48361 0.0
Fe168 Fe 1.00677 0.79037 0.15057 0.0
O169 O 0.07393 0.75151 0.12491 0.0
Fe170 Fe 0.84626 0.8131 0.1202 0.0
Fe171 Fe 0.17762 0.76668 0.1287 0.0
O172 O 0.95044 0.82708 0.12147 0.0
O173 O 0.95091 0.82693 0.11902 0.0
O174 O 0.07418 0.7509 0.12242 0.0
Fe175 Fe 0.01805 0.7884 0.09279 0.0
C176 C 0.12353 0.89047 0.16081 0.0
O177 O 0.07232 0.73972 0.17772 0.0
O178 O 0.16555 0.68938 0.15555 0.0
O179 O 0.96245 0.69309 0.09015 0.0
O180 O 0.84857 0.73016 0.09515 0.0
O181 O 0.84252 0.74157 0.14984 0.0
O182 O 0.95197 0.69555 0.15024 0.0
O183 O 0.18642 0.69935 0.09884 0.0
O184 O 0.10073 0.74011 0.07025 0.0
C185 C 0.88572 0.69054 0.155 0.0
O186 O 0.94693 0.83716 0.06578 0.0
O187 O 0.85104 0.87804 0.08964 0.0
O188 O 0.0607 0.88535 0.1521 0.0
O189 O 0.16933 0.8404 0.15767 0.0
C190 C 0.12086 0.68998 0.17406 0.0
C191 C 0.15902 0.70379 0.07661 0.0
C192 C 0.14079 0.89096 0.09162 0.0
O193 O 0.18439 0.84835 0.10274 0.0
O194 O 0.07308 0.88376 0.09263 0.0
C195 C 0.89504 0.68522 0.08722 0.0
O196 O 0.84879 0.89159 0.14663 0.0
O197 O 0.9319 0.84331 0.17384 0.0
C198 C 0.88821 0.87576 0.0692 0.0
C199 C 0.88629 0.89342 0.16706 0.0
Fe200 Fe 0.52099 0.77315 0.39973 0.0
O201 O 0.47797 0.7112 0.37352 0.0
Fe202 Fe 0.54284 0.93619 0.3706 0.0
Fe203 Fe 0.49391 0.60643 0.37471 0.0
O204 O 0.55552 0.8312 0.37099 0.0
O205 O 0.55358 0.8317 0.36858 0.0
O206 O 0.4778 0.71091 0.37093 0.0
Fe207 Fe 0.51217 0.76952 0.34181 0.0
C208 C 0.61899 0.65002 0.40768 0.0
O209 O 0.47064 0.70509 0.42626 0.0
O210 O 0.41979 0.61574 0.40249 0.0
O211 O 0.41615 0.82847 0.34079 0.0
O212 O 0.45572 0.93977 0.34703 0.0
O213 O 0.47561 0.94121 0.40147 0.0
O214 O 0.42822 0.83374 0.40159 0.0
O215 O 0.42458 0.605 0.34515 0.0
O216 O 0.46436 0.6927 0.3179 0.0
C217 C 0.42654 0.89891 0.40811 0.0
O218 O 0.55494 0.84109 0.31513 0.0
O219 O 0.60347 0.93105 0.33887 0.0
O220 O 0.61477 0.71363 0.39953 0.0
O221 O 0.56849 0.607 0.40363 0.0
C222 C 0.42397 0.65458 0.42246 0.0
C223 C 0.42835 0.63509 0.32337 0.0
C224 C 0.61648 0.64511 0.33777 0.0
O225 O 0.57424 0.60096 0.34808 0.0
O226 O 0.60813 0.71253 0.34008 0.0
C227 C 0.4086 0.8966 0.33922 0.0
O228 O 0.62485 0.92827 0.39587 0.0
O229 O 0.57857 0.84424 0.42296 0.0
C230 C 0.59487 0.89729 0.31793 0.0
C231 C 0.6259 0.89166 0.41648 0.0
Fe232 Fe 0.55573 0.22656 0.68164 0.0
O233 O 0.54187 0.2112 0.64575 0.0
Fe234 Fe 0.44935 0.25057 0.6277 0.0
Fe235 Fe 0.6144 0.24821 0.62205 0.0
O236 O 0.53484 0.21127 0.64603 0.0
O237 O 0.52237 0.28556 0.60306 0.0
O238 O 0.52967 0.28555 0.60279 0.0
Fe239 Fe 0.51802 0.26584 0.5667 0.0
C240 C 0.63171 0.35038 0.66436 0.0
O241 O 0.62753 0.1459 0.67642 0.0
O242 O 0.69297 0.19525 0.64443 0.0
O243 O 0.4402 0.18831 0.57 0.0
O244 O 0.4392 0.15404 0.60981 0.0
O245 O 0.3848 0.20576 0.65586 0.0
O246 O 0.46741 0.16392 0.68506 0.0
O247 O 0.61462 0.15255 0.60382 0.0
O248 O 0.60176 0.18922 0.56495 0.0
C249 C 0.40454 0.16518 0.67467 0.0
O250 O 0.43125 0.33703 0.56927 0.0
O251 O 0.37065 0.29771 0.60445 0.0
O252 O 0.64107 0.29317 0.67656 0.0
O253 O 0.61704 0.34497 0.64124 0.0
C254 C 0.67954 0.14396 0.66041 0.0
C255 C 0.6304 0.14699 0.58103 0.0
C256 C 0.66339 0.33317 0.57465 0.0
O257 O 0.67842 0.29528 0.59449 0.0
O258 O 0.60078 0.33803 0.56396 0.0
C259 C 0.41857 0.14711 0.58734 0.0
O260 O 0.45161 0.3472 0.6464 0.0
O261 O 0.48899 0.31463 0.68423 0.0
C262 C 0.37532 0.33492 0.58384 0.0
C263 C 0.46087 0.36072 0.66952 0.0
Fe264 Fe 0.02196 0.29105 0.89524 0.0
O265 O 0.97612 0.22737 0.87032 0.0
Fe266 Fe 0.04657 0.44892 0.86452 0.0
Fe267 Fe 0.98128 0.12283 0.87394 0.0
O268 O 0.05971 0.34345 0.86566 0.0
O269 O 0.05946 0.34288 0.86314 0.0
O270 O 0.9765 0.2265 0.86808 0.0
Fe271 Fe 1.01128 0.27955 0.83792 0.0
C272 C 0.1113 0.16422 0.906 0.0
O273 O 0.96757 0.23186 0.92296 0.0
O274 O 0.90789 0.14472 0.90117 0.0
O275 O 0.91815 0.34069 0.83822 0.0
O276 O 0.9587 0.45141 0.84167 0.0
O277 O 0.98078 0.45742 0.89617 0.0
O278 O 0.93046 0.35258 0.89524 0.0
O279 O 0.91066 0.12284 0.84378 0.0
O280 O 0.95361 0.20659 0.81603 0.0
C281 C 0.92926 0.41703 0.90197 0.0
O282 O 0.05434 0.34888 0.80992 0.0
O283 O 0.10443 0.44238 0.8321 0.0
O284 O 0.11145 0.2262 0.89635 0.0
O285 O 0.05835 0.12292 0.90266 0.0
C286 C 0.91397 0.18869 0.91974 0.0
C287 C 0.91137 0.15428 0.82198 0.0
C288 C 0.10561 0.14415 0.83645 0.0
O289 O 0.0599 0.10712 0.84815 0.0
O290 O 0.10217 0.21277 0.83479 0.0
C291 C 0.91249 0.40746 0.83408 0.0
O292 O 0.13024 0.44333 0.88862 0.0
O293 O 0.08428 0.36344 0.91714 0.0
C294 C 0.09152 0.40775 0.81166 0.0
C295 C 0.13236 0.40926 0.90967 0.0
C296 C 0.31039 0.9019 0.46671 0.0
C297 C 0.26568 0.96284 0.46227 0.0
C298 C 0.32608 0.98265 0.42195 0.0
C299 C 0.37238 0.92307 0.42693 0.0
N300 N 0.4219 0.84044 0.45745 0.0
N301 N 0.24098 0.07018 0.43837 0.0
C302 C 0.36817 0.88664 0.45027 0.0
C303 C 0.27592 1.00559 0.44054 0.0
N304 N 0.29762 0.85854 0.48685 0.0
N305 N 0.32974 0.0172 0.39941 0.0
H306 H 0.20453 0.08921 0.45161 0.0
H307 H 0.25214 0.10778 0.42457 0.0
H308 H 0.36712 1.00382 0.38568 0.0
H309 H 0.2926 0.0558 0.39348 0.0
H310 H 0.32509 0.8106 0.49026 0.0
H311 H 0.25385 0.86593 0.49871 0.0
H312 H 0.42627 0.81805 0.47527 0.0
H313 H 0.46691 0.83041 0.44656 0.0
C314 C 0.30907 0.99382 0.69021 0.0
C315 C 0.32142 0.99612 0.71643 0.0
C316 C 0.35139 0.12191 0.71311 0.0
C317 C 0.35351 0.11661 0.68687 0.0
N318 N 0.33666 0.04579 0.6497 0.0
N319 N 0.37452 0.05814 0.75148 0.0
C320 C 0.33223 0.05218 0.67507 0.0
C321 C 0.34908 0.05899 0.72745 0.0
N322 N 0.2745 0.93717 0.67993 0.0
N323 N 0.35417 0.1874 0.72418 0.0
H324 H 0.37792 1.01137 0.76218 0.0
H325 H 0.39944 0.10195 0.75959 0.0
H326 H 0.35298 0.23413 0.71345 0.0
H327 H 0.34883 0.19477 0.74344 0.0
H328 H 0.25803 0.93597 0.66128 0.0
H329 H 0.25821 0.89342 0.69054 0.0
H330 H 0.33003 0.99758 0.64029 0.0
H331 H 0.34957 0.08874 0.63822 0.0
C332 C 0.23433 0.17203 0.96358 0.0
C333 C 0.28406 0.11598 0.95831 0.0
C334 C 0.21786 0.08748 0.91972 0.0
C335 C 0.16912 0.14502 0.92453 0.0
N336 N 0.13039 0.24228 0.95119 0.0
N337 N 0.33073 0.02705 0.9302 0.0
C338 C 0.17756 0.18748 0.94648 0.0
C339 C 0.27814 0.07592 0.93593 0.0
N340 N 0.23985 0.20828 -0.01425 0.0
N341 N 0.20514 0.04236 0.90018 0.0
H342 H 0.37494 0.01777 0.94185 0.0
H343 H 0.33406 1.00021 0.9132 0.0
H344 H 0.16253 0.04973 0.88773 0.0
H345 H 0.23381 0.99508 0.89706 0.0
H346 H 0.20078 0.2429 -0.00719 0.0
H347 H 0.28382 0.20242 -0.00227 0.0
H348 H 0.1387 0.28238 0.96429 0.0
H349 H 0.08278 0.24898 0.94139 0.0
C350 C 0.20821 0.05346 0.19247 0.0
C351 C 0.16253 0.06083 0.2135 0.0
C352 C 0.09567 0.95568 0.20073 0.0
C353 C 0.13867 0.94913 0.17891 0.0
N354 N 0.24189 0.98557 0.15529 0.0
N355 N 0.05532 0.02923 0.23527 0.0
C356 C 0.19654 0.99675 0.175 0.0
C357 C 0.10342 0.01558 0.21659 0.0
N358 N 0.26252 0.10098 0.18949 0.0
N359 N 0.05282 0.90071 0.20784 0.0
H360 H 0.05889 0.07334 0.24711 0.0
H361 H 1.00888 1.00027 0.23769 0.0
H362 H 0.04859 0.85381 0.19767 0.0
H363 H 0.02897 0.89721 0.22539 0.0
H364 H 0.29772 0.10154 0.17446 0.0
H365 H 0.27054 0.1431 0.20192 0.0
H366 H 0.28723 0.01535 0.15167 0.0
H367 H 0.2353 0.94439 0.14243 0.0
C368 C 0.23976 0.11464 0.56114 0.0
C369 C 0.24999 0.04662 0.5497 0.0
C370 C 0.365 0.03219 0.57186 0.0
C371 C 0.35586 0.10155 0.58169 0.0
N372 N 0.26875 0.18538 0.59748 0.0
N373 N 0.30776 0.93037 0.55256 0.0
C374 C 0.28769 0.13501 0.58031 0.0
C375 C 0.30781 1.00163 0.55804 0.0
N376 N 0.18916 0.16248 0.55267 0.0
N377 N 0.4284 0.99652 0.57539 0.0
H378 H 0.26484 0.90677 0.54332 0.0
H379 H 0.34619 0.89415 0.55931 0.0
H380 H 0.46766 0.01648 0.58728 0.0
H381 H 0.44189 0.94892 0.56633 0.0
H382 H 0.18393 0.21407 0.55987 0.0
H383 H 0.15757 0.1543 0.53691 0.0
H384 H 0.21795 0.20932 0.59805 0.0
H385 H 0.30058 0.19401 0.61322 0.0
C386 C 0.24598 1.00993 0.81356 0.0
C387 C 0.20319 0.97628 0.79488 0.0
C388 C 0.11623 0.07377 0.79816 0.0
C389 C 0.15138 0.10138 0.81926 0.0
N390 N 0.2497 0.09456 0.84823 0.0
N391 N 0.08829 0.96785 0.77474 0.0
C392 C 0.2163 0.06873 0.82748 0.0
C393 C 0.13462 1.00499 0.78938 0.0
N394 N 0.31543 0.98832 0.81716 0.0
N395 N 0.06813 0.11538 0.78545 0.0
H396 H 0.10078 0.91677 0.76799 0.0
H397 H 0.03559 0.98509 0.77173 0.0
H398 H 0.05873 0.16868 0.79031 0.0
H399 H 0.04804 0.10015 0.76809 0.0
H400 H 0.35122 0.01578 0.82847 0.0
H401 H 0.33846 0.94505 0.80775 0.0
H402 H 0.29372 0.0693 0.85665 0.0
H403 H 0.23075 0.14014 0.85752 0.0
C404 C 0.25699 0.03382 0.06212 0.0
C405 C 0.2764 0.99634 0.03985 0.0
C406 C 0.18057 0.91167 0.0479 0.0
C407 C 0.17207 0.939 0.07236 0.0
N408 N 0.19613 0.03038 0.10241 0.0
N409 N 0.26345 0.89159 0.01394 0.0
C410 C 0.20886 1.00141 0.07943 0.0
C411 C 0.24007 0.93282 0.03347 0.0
N412 N 0.28124 0.10146 0.06611 0.0
N413 N 0.1312 0.86625 0.03828 0.0
H414 H 0.30897 0.90375 0.00355 0.0
H415 H 0.24226 0.84165 0.00989 0.0
H416 H 0.08377 0.85526 0.04766 0.0
H417 H 0.13262 0.848 0.01986 0.0
H418 H 0.26377 0.13385 0.08076 0.0
H419 H 0.31449 0.12789 0.0536 0.0
H420 H 0.22632 0.0713 0.11007 0.0
H421 H 0.15556 1.0115 0.11401 0.0
C422 C 0.25073 0.01342 0.3177 0.0
C423 C 0.28203 0.04004 0.29523 0.0
C424 C 0.37424 0.9464 0.29814 0.0
C425 C 0.35275 0.92922 0.32261 0.0
N426 N 0.26663 0.94093 0.35556 0.0
N427 N 0.38328 0.03956 0.26721 0.0
C428 C 0.28964 0.96138 0.33245 0.0
C429 C 0.34685 1.00887 0.28649 0.0
N430 N 0.18348 0.03572 0.32438 0.0
N431 N 0.41833 0.90085 0.28542 0.0
H432 H 0.36661 0.08735 0.25869 0.0
H433 H 0.43381 0.02133 0.26171 0.0
H434 H 0.43529 0.85202 0.29306 0.0
H435 H 0.42778 0.90699 0.26631 0.0
H436 H 0.15514 0.01397 0.33926 0.0
H437 H 0.15391 0.07318 0.31399 0.0
H438 H 0.22427 0.96564 0.36497 0.0
H439 H 0.29224 0.89979 0.3656 0.0
C440 C 0.80877 0.10777 0.55241 0.0
C441 C 0.80758 0.03291 0.54785 0.0
C442 C 0.69136 0.02807 0.56969 0.0
C443 C 0.69472 0.10252 0.57401 0.0
N444 N 0.78106 0.1914 0.58482 0.0
N445 N 0.75851 0.91912 0.56002 0.0
C446 C 0.76064 0.13654 0.57 0.0
C447 C 0.75232 0.99192 0.55922 0.0
N448 N 0.85138 0.15307 0.53925 0.0
N449 N 0.63051 0.99231 0.57541 0.0
H450 H 0.80374 0.89205 0.55322 0.0
H451 H 0.72257 0.88675 0.5695 0.0
H452 H 0.5879 0.01735 0.5846 0.0
H453 H 0.62188 0.93938 0.57031 0.0
H454 H 0.84978 0.20825 0.54221 0.0
H455 H 0.88077 0.13801 0.52357 0.0
H456 H 0.83037 0.21638 0.58281 0.0
H457 H 0.7554 0.20003 0.60183 0.0
C458 C 0.68862 0.04633 0.28713 0.0
C459 C 0.64582 0.0555 0.26531 0.0
C460 C 0.59348 0.93715 0.27229 0.0
C461 C 0.62764 0.93415 0.29595 0.0
N462 N 0.73417 0.96353 0.3186 0.0
N463 N 0.55868 1.01005 0.23635 0.0
C464 C 0.68369 0.98212 0.30107 0.0
C465 C 0.5986 1.00073 0.25764 0.0
N466 N 0.73379 0.09913 0.29461 0.0
N467 N 0.56335 0.8771 0.26273 0.0
H468 H 0.56086 0.05661 0.22555 0.0
H469 H 0.51944 0.97474 0.23054 0.0
H470 H 0.56578 0.82807 0.27198 0.0
H471 H 0.5438 0.87345 0.24451 0.0
H472 H 0.7607 0.09843 0.31172 0.0
H473 H 0.74023 0.14669 0.2847 0.0
H474 H 0.78042 0.99251 0.32191 0.0
H475 H 0.73329 0.9141 0.32778 0.0
C476 C 0.76784 0.9177 0.0154 0.0
C477 C 0.73328 0.98041 0.02483 0.0
C478 C 0.82723 0.98926 0.05709 0.0
C479 C 0.85614 0.92247 0.04924 0.0
N480 N 0.87769 0.84659 0.01416 0.0
N481 N 0.73341 0.08024 0.05364 0.0
C482 C 0.83334 0.89301 0.02641 0.0
C483 C 0.76424 0.01777 0.04537 0.0
N484 N 0.73738 0.88142 -0.00396 0.0
N485 N 0.86229 0.02537 0.07557 0.0
H486 H 0.68918 0.1047 0.04515 0.0
H487 H 0.74949 0.10758 0.06955 0.0
H488 H 0.91034 1.00585 0.08325 0.0
H489 H 0.84795 0.07585 0.08213 0.0
H490 H 0.75715 0.83267 -0.01056 0.0
H491 H 0.68878 0.89749 -0.01209 0.0
H492 H 0.86832 0.82925 -0.00405 0.0
H493 H 0.92895 0.8345 0.02091 0.0
C494 C 0.8748 0.05141 0.76404 0.0
C495 C 0.81393 1.0112 0.77094 0.0
C496 C 0.80231 0.08374 0.80905 0.0
C497 C 0.86498 0.12155 0.80215 0.0
N498 N 0.92509 0.16879 0.76577 0.0
N499 N 0.70591 1.00656 0.79571 0.0
C500 C 0.89054 0.11431 0.77737 0.0
C501 C 0.77336 0.03225 0.79228 0.0
N502 N 0.91855 0.02922 0.74501 0.0
N503 N 0.76943 0.09878 0.83128 0.0
H504 H 0.68152 0.97206 0.78311 0.0
H505 H 0.67134 0.02464 0.80966 0.0
H506 H 0.78246 0.14351 0.84193 0.0
H507 H 0.73004 0.06694 0.83913 0.0
H508 H 0.96443 0.05653 0.73979 0.0
H509 H 0.91347 0.97974 0.73626 0.0
H510 H 0.93952 0.1669 0.74693 0.0
H511 H 0.92967 0.21911 0.77373 0.0
C512 C 0.804 0.87674 0.45125 0.0
C513 C 0.80343 0.94308 0.46393 0.0
C514 C 0.68486 0.97274 0.44677 0.0
C515 C 0.68567 0.90717 0.43366 0.0
N516 N 0.75482 0.80792 0.41709 0.0
N517 N 0.75528 0.06319 0.46723 0.0
C518 C 0.74794 0.86225 0.43398 0.0
C519 C 0.74761 0.99411 0.45945 0.0
N520 N 0.8569 0.82725 0.45609 0.0
N521 N 0.62362 0.01376 0.44762 0.0
H522 H 0.8018 0.08088 0.476 0.0
H523 H 0.71909 0.10423 0.46269 0.0
H524 H 0.57634 0.99949 0.43857 0.0
H525 H 0.61788 0.05852 0.45906 0.0
H526 H 0.8567 0.77536 0.44906 0.0
H527 H 0.89927 0.83695 0.46833 0.0
H528 H 0.80143 0.77719 0.41501 0.0
H529 H 0.71622 0.79808 0.40346 0.0
C530 C 0.83564 0.08553 0.17796 0.0
C531 C 0.82868 0.08771 0.20432 0.0
C532 C 0.87815 0.96592 0.20771 0.0
C533 C 0.88139 0.96221 0.18121 0.0
N534 N 0.89955 0.03132 0.1434 0.0
N535 N 0.87287 0.04435 0.24396 0.0
C536 C 0.87275 0.02665 0.1671 0.0
C537 C 0.86337 0.03349 0.21891 0.0
N538 N 0.80263 0.13553 0.16307 0.0
N539 N 0.88228 0.90549 0.22209 0.0
H540 H 0.86084 0.09377 0.25216 0.0
H541 H 0.89713 1.00703 0.25591 0.0
H542 H 0.88929 0.8544 0.21474 0.0
H543 H 0.87291 0.90556 0.24131 0.0
H544 H 0.79992 0.13056 0.14365 0.0
H545 H 0.77444 0.17944 0.17009 0.0
H546 H 0.89825 0.07875 0.13306 0.0
H547 H 0.93056 0.99031 0.13549 0.0
C548 C 0.79204 0.18185 0.97678 0.0
C549 C 0.72722 0.1641 0.96442 0.0
C550 C 0.78147 0.1986 0.92485 0.0
C551 C 0.85042 0.19424 0.93631 0.0
N552 N 0.92137 0.18078 0.97403 0.0
N553 N 0.65893 0.15799 0.92618 0.0
C554 C 0.85598 0.18727 0.96264 0.0
C555 C 0.72081 0.17483 0.93833 0.0
N556 N 0.79232 0.18991 0.00218 0.0
N557 N 0.77431 0.22534 0.90112 0.0
H558 H 0.61321 0.14149 0.9356 0.0
H559 H 0.65452 0.15679 0.90673 0.0
H560 H 0.81761 0.24555 0.89115 0.0
H561 H 0.72474 0.23461 0.89258 0.0
H562 H 0.83683 0.2069 0.01223 0.0
H563 H 0.74525 0.18695 0.01264 0.0
H564 H 0.92755 0.16799 -0.00708 0.0
H565 H 0.96964 0.18291 0.96434 0.0
C566 C 0.80703 0.99333 0.67492 0.0
C567 C 0.75261 0.94769 0.68397 0.0
C568 C 0.66648 0.01348 0.65813 0.0
C569 C 0.7138 0.07214 0.65801 0.0
N570 N 0.83436 0.11419 0.66123 0.0
N571 N 0.63022 0.90761 0.68028 0.0
C572 C 0.78668 0.06026 0.66399 0.0
C573 C 0.68292 0.95356 0.67346 0.0
N574 N 0.87693 0.97509 0.67926 0.0
N575 N 0.60331 0.0182 0.64528 0.0
H576 H 0.63953 0.86119 0.69055 0.0
H577 H 0.57618 0.9167 0.67628 0.0
H578 H 0.58833 0.06404 0.63536 0.0
H579 H 0.56935 0.97506 0.64279 0.0
H580 H 0.91984 1.00427 0.67247 0.0
H581 H 0.89082 0.92683 0.68809 0.0
H582 H 0.88687 0.11139 0.66783 0.0
H583 H 0.82014 0.16259 0.65265 0.0
C584 C 0.80854 0.40755 0.95897 0.0
C585 C 0.75751 0.46249 0.95389 0.0
C586 C 0.82226 0.4938 0.91527 0.0
C587 C 0.8739 0.43914 0.92074 0.0
N588 N 0.92807 0.36104 0.95157 0.0
N589 N 0.7121 0.55699 0.92753 0.0
C590 C 0.87003 0.40035 0.94361 0.0
C591 C 0.76328 0.5054 0.93202 0.0
N592 N 0.79855 0.36341 0.9791 0.0
N593 N 0.83136 0.53589 0.89459 0.0
H594 H 0.66837 0.56501 0.93938 0.0
H595 H 0.71057 0.59022 0.9119 0.0
H596 H 0.87429 0.52908 0.88234 0.0
H597 H 0.79825 0.57883 0.88962 0.0
H598 H 0.83329 0.32197 -0.01587 0.0
H599 H 0.75245 0.36548 -0.00989 0.0
H600 H 0.9326 0.3372 0.96913 0.0
H601 H 0.97585 0.35921 0.94168 0.0
C602 C 0.76758 0.53992 0.17974 0.0
C603 C 0.81372 0.509 0.19823 0.0
C604 C 0.90049 0.60229 0.19038 0.0
C605 C 0.85997 0.6277 0.16958 0.0
N606 N 0.7574 0.61272 0.14229 0.0
N607 N 0.93139 0.50079 0.21652 0.0
C608 C 0.79436 0.59386 0.16348 0.0
C609 C 0.88316 0.53621 0.20156 0.0
N610 N 0.69699 0.52171 0.17869 0.0
N611 N 0.94948 0.64507 0.20161 0.0
H612 H 0.91996 0.45189 0.22501 0.0
H613 H 0.98431 0.51684 0.21827 0.0
H614 H 0.95684 0.69802 0.1962 0.0
H615 H 0.97345 0.63171 0.21868 0.0
H616 H 0.65926 0.54925 0.16778 0.0
H617 H 0.67444 0.4831 0.1902 0.0
H618 H 0.71321 0.58475 0.13583 0.0
H619 H 0.77494 0.65118 0.12968 0.0
C620 C 0.7824 0.55588 0.43763 0.0
C621 C 0.79403 0.6002 0.45865 0.0
C622 C 0.68874 0.6736 0.44734 0.0
C623 C 0.67761 0.63021 0.42579 0.0
N624 N 0.70144 0.51736 0.40513 0.0
N625 N 0.76454 0.70566 0.48248 0.0
C626 C 0.72109 0.56784 0.42216 0.0
C627 C 0.74933 0.66075 0.46305 0.0
N628 N 0.83151 0.50324 0.43214 0.0
N629 N 0.637 0.72198 0.45432 0.0
H630 H 0.80667 0.69648 0.49498 0.0
H631 H 0.73962 0.75523 0.48511 0.0
H632 H 0.58825 0.72685 0.44504 0.0
H633 H 0.63788 0.7514 0.47081 0.0
H634 H 0.83109 0.474 0.41557 0.0
H635 H 0.877 0.49349 0.44312 0.0
H636 H 0.72541 0.46681 0.40402 0.0
H637 H 0.65748 0.52304 0.39325 0.0
C638 C 0.6833 0.54337 0.67788 0.0
C639 C 0.67848 0.54475 0.70419 0.0
C640 C 0.62789 0.4252 0.70457 0.0
C641 C 0.63481 0.42157 0.67776 0.0
N642 N 0.6329 0.49584 0.64005 0.0
N643 N 0.62112 0.50131 0.74122 0.0
C644 C 0.65097 0.48632 0.66461 0.0
C645 C 0.64108 0.49063 0.71686 0.0
N646 N 0.72063 0.59473 0.66554 0.0
N647 N 0.61032 0.36713 0.71882 0.0
H648 H 0.62703 0.55054 0.75012 0.0
H649 H 0.59398 0.46407 0.75196 0.0
H650 H 0.5868 0.32102 0.7123 0.0
H651 H 0.62039 0.36417 0.73799 0.0
H652 H 0.73258 0.5914 0.6465 0.0
H653 H 0.74329 0.63806 0.67474 0.0
H654 H 0.63976 0.5443 0.6307 0.0
H655 H 0.60186 0.46042 0.62997 0.0
C656 C 0.78121 0.53837 0.05984 0.0
C657 C 0.76379 0.57336 0.03675 0.0
C658 C 0.86196 0.6558 0.04396 0.0
C659 C 0.868 0.63251 0.06893 0.0
N660 N 0.84006 0.54648 0.10058 0.0
N661 N 0.78123 0.67457 0.0093 0.0
C662 C 0.82928 0.57212 0.07692 0.0
C663 C 0.80239 0.63488 0.02959 0.0
N664 N 0.75499 0.47206 0.06487 0.0
N665 N 0.91441 0.6962 0.03369 0.0
H666 H 0.73467 0.66413 -0.00084 0.0
H667 H 0.80619 0.72176 0.0042 0.0
H668 H 0.96008 0.7103 0.04371 0.0
H669 H 0.91677 0.70636 0.0145 0.0
H670 H 0.77063 0.44143 0.0803 0.0
H671 H 0.72187 0.44483 0.05252 0.0
H672 H 0.80937 0.50653 0.10865 0.0
H673 H 0.87915 0.56756 0.11236 0.0
C674 C 0.66914 0.57977 0.2751 0.0
C675 C 0.70793 0.51608 0.28129 0.0
C676 C 0.71021 0.55378 0.32537 0.0
C677 C 0.66834 0.61508 0.31899 0.0
N678 N 0.64177 0.70173 0.28668 0.0
N679 N 0.77534 0.44669 0.31153 0.0
C680 C 0.65917 0.63333 0.29348 0.0
C681 C 0.73186 0.50434 0.30628 0.0
N682 N 0.63814 0.58761 0.25199 0.0
N683 N 0.73121 0.54559 0.34966 0.0
H684 H 0.79197 0.41041 0.29784 0.0
H685 H 0.79644 0.43496 0.32912 0.0
H686 H 0.72235 0.58649 0.36262 0.0
H687 H 0.75922 0.50143 0.35671 0.0
H688 H 0.60325 0.62984 0.24751 0.0
H689 H 0.6405 0.54803 0.23828 0.0
H690 H 0.6396 0.71852 0.26805 0.0
H691 H 0.64106 0.7435 0.29947 0.0
C692 C 0.79382 0.47795 0.55765 0.0
C693 C 0.82018 0.45199 0.53442 0.0
C694 C 0.74948 0.34389 0.53884 0.0
C695 C 0.72336 0.36965 0.56215 0.0
N696 N 0.73917 0.44859 0.59729 0.0
N697 N 0.84033 0.35271 0.50664 0.0
C698 C 0.75197 0.43239 0.5728 0.0
C699 C 0.80372 0.38217 0.5263 0.0
N700 N 0.80443 0.54738 0.56453 0.0
N701 N 0.72143 0.28392 0.52836 0.0
H702 H 0.88095 0.37974 0.49732 0.0
H703 H 0.83558 0.29951 0.50122 0.0
H704 H 0.6843 0.2523 0.53746 0.0
H705 H 0.73221 0.26755 0.51011 0.0
H706 H 0.77906 0.57106 0.57983 0.0
H707 H 0.83385 0.5833 0.5539 0.0
H708 H 0.76426 0.49023 0.60662 0.0
H709 H 0.70953 0.41569 0.60896 0.0
C710 C 0.877 0.48902 0.77294 0.0
C711 C 0.821 0.53847 0.77847 0.0
C712 C 0.80811 0.48319 0.82004 0.0
C713 C 0.86392 0.43449 0.8141 0.0
N714 N 0.92633 0.37153 0.78147 0.0
N715 N 0.7169 0.56513 0.80418 0.0
C716 C 0.8896 0.43071 0.7893 0.0
C717 C 0.78147 0.53078 0.80118 0.0
N718 N 0.91973 0.49891 0.75251 0.0
N719 N 0.78019 0.48288 0.84359 0.0
H720 H 0.69306 0.59697 0.79036 0.0
H721 H 0.68333 0.55627 0.81938 0.0
H722 H 0.79505 0.4438 0.85673 0.0
H723 H 0.74442 0.52182 0.85012 0.0
H724 H 0.9647 0.46695 0.7488 0.0
H725 H 0.91486 0.5436 0.74083 0.0
H726 H 0.9425 0.36381 0.76299 0.0
H727 H 0.93209 0.32682 0.79295 0.0
C728 C 0.31853 0.65791 0.0353 0.0
C729 C 0.31164 0.58273 0.03399 0.0
C730 C 0.19318 0.59246 0.05396 0.0
C731 C 0.20353 0.66653 0.0576 0.0
N732 N 0.28458 0.76616 0.05675 0.0
N733 N 0.24838 0.47645 0.04572 0.0
C734 C 0.26852 0.6983 0.0496 0.0
C735 C 0.25057 0.54943 0.04449 0.0
N736 N 0.37127 0.69139 0.02221 0.0
N737 N 0.12849 0.56343 0.05968 0.0
H738 H 0.29043 0.4438 0.0394 0.0
H739 H 0.20848 0.44862 0.05501 0.0
H740 H 0.08576 0.59411 0.0666 0.0
H741 H 0.11509 0.51094 0.05549 0.0
H742 H 0.37296 0.74678 0.02004 0.0
H743 H 0.41028 0.6639 0.01195 0.0
H744 H 0.33468 0.7888 0.05408 0.0
H745 H 0.24953 0.79779 0.06707 0.0
C746 C 0.23317 0.47286 0.76912 0.0
C747 C 0.20325 0.53906 0.76034 0.0
C748 C 0.09197 0.51191 0.78178 0.0
C749 C 0.12008 0.44336 0.78898 0.0
N750 N 0.21094 0.35227 0.78379 0.0
N751 N 0.09747 0.61125 0.75268 0.0
C752 C 0.18803 0.42127 0.78023 0.0
C753 C 0.13026 0.55498 0.76469 0.0
N754 N 0.30554 0.46195 0.76913 0.0
N755 N 0.03121 0.53854 0.79257 0.0
H756 H 0.12424 0.64393 0.74002 0.0
H757 H 0.04235 0.62089 0.75349 0.0
H758 H 1.00111 0.50898 0.80498 0.0
H759 H 0.01345 0.59134 0.79035 0.0
H760 H 0.33059 0.41734 0.77723 0.0
H761 H 0.34069 0.502 0.76412 0.0
H762 H 0.25813 0.33185 0.776 0.0
H763 H 0.17899 0.31398 0.79235 0.0
C764 C 0.23882 0.48526 0.57426 0.0
C765 C 0.20757 0.46369 0.55138 0.0
C766 C 0.27567 0.35099 0.55262 0.0
C767 C 0.31007 0.37384 0.5749 0.0
N768 N 0.30864 0.4514 0.61093 0.0
N769 N 0.17751 0.36876 0.52323 0.0
C770 C 0.28599 0.43709 0.58718 0.0
C771 C 0.21946 0.39361 0.54222 0.0
N772 N 0.22652 0.55311 0.58282 0.0
N773 N 0.29856 0.29004 0.54085 0.0
H774 H 0.13604 0.39957 0.51536 0.0
H775 H 0.17899 0.31599 0.51704 0.0
H776 H 0.33651 0.25506 0.54859 0.0
H777 H 0.28206 0.27548 0.52296 0.0
H778 H 0.25446 0.5755 0.59769 0.0
H779 H 0.19003 0.58817 0.57416 0.0
H780 H 0.28806 0.49329 0.62167 0.0
H781 H 0.34322 0.41731 0.62079 0.0
C782 C 0.38989 0.48735 0.27737 0.0
C783 C 0.31573 0.48037 0.28199 0.0
C784 C 0.31511 0.59233 0.3058 0.0
C785 C 0.39039 0.59487 0.30378 0.0
N786 N 0.50127 0.54033 0.29027 0.0
N787 N 0.20946 0.51919 0.30409 0.0
C788 C 0.42831 0.54144 0.29006 0.0
C789 C 0.27887 0.53086 0.29731 0.0
N790 N 0.42326 0.44293 0.26064 0.0
N791 N 0.2786 0.64907 0.31597 0.0
H792 H 0.18173 0.47373 0.29872 0.0
H793 H 0.18166 0.55078 0.31694 0.0
H794 H 0.30463 0.69494 0.32208 0.0
H795 H 0.22293 0.65371 0.31603 0.0
H796 H 0.4753 0.45062 0.25428 0.0
H797 H 0.39726 0.40032 0.25213 0.0
H798 H 0.5324 0.49796 0.28347 0.0
H799 H 0.53017 0.58083 0.29864 0.0
C800 C 0.27487 0.51644 0.9423 0.0
C801 C 0.31831 0.46201 0.95343 0.0
C802 C 0.24937 0.37364 0.93038 0.0
C803 C 0.19494 0.42598 0.92567 0.0
N804 N 0.15512 0.54921 0.92884 0.0
N805 N 0.34354 0.33524 0.95871 0.0
C806 C 0.20772 0.49827 0.93194 0.0
C807 C 0.30523 0.38936 0.94753 0.0
N808 N 0.29725 0.58562 0.94245 0.0
N809 N 0.2507 0.31118 0.9173 0.0
H810 H 0.38301 0.34344 0.97212 0.0
H811 H 0.33272 0.28149 0.95571 0.0
H812 H 0.2144 0.3013 0.90296 0.0
H813 H 0.29279 0.274 0.91853 0.0
H814 H 0.27005 0.62689 0.93309 0.0
H815 H 0.34703 0.59964 0.94979 0.0
H816 H 0.16004 0.60154 0.93523 0.0
H817 H 0.10408 0.53745 0.92214 0.0
C818 C 0.39413 0.55677 0.6762 0.0
C819 C 0.39727 0.56464 0.70244 0.0
C820 C 0.43728 0.44196 0.70695 0.0
C821 C 0.44027 0.43292 0.68033 0.0
N822 N 0.44773 0.49795 0.64061 0.0
N823 N 0.45307 0.52613 0.74071 0.0
C824 C 0.42686 0.49515 0.66504 0.0
C825 C 0.43253 0.51172 0.71677 0.0
N826 N 0.35932 0.60722 0.66205 0.0
N827 N 0.43052 0.38541 0.72298 0.0
H828 H 0.44998 0.5777 0.74811 0.0
H829 H 0.47662 0.48792 0.75246 0.0
H830 H 0.41718 0.33443 0.71714 0.0
H831 H 0.42523 0.39156 0.74228 0.0
H832 H 0.34933 0.6006 0.64298 0.0
H833 H 0.33791 0.65392 0.66993 0.0
H834 H 0.44265 0.54438 0.62983 0.0
H835 H 0.47778 0.45802 0.63191 0.0
C836 C 0.30976 0.54782 0.4664 0.0
C837 C 0.25773 0.59936 0.47431 0.0
C838 C 0.30974 0.68526 0.44504 0.0
C839 C 0.36999 0.63896 0.44182 0.0
N840 N 0.43112 0.52807 0.45205 0.0
N841 N 0.21515 0.72257 0.47314 0.0
C842 C 0.37132 0.57092 0.45345 0.0
C843 C 0.25946 0.66984 0.46416 0.0
N844 N 0.29839 0.47642 0.46985 0.0
N845 N 0.2989 0.74194 0.42924 0.0
H846 H 0.18684 0.71784 0.48982 0.0
H847 H 0.21166 0.77368 0.46546 0.0
H848 H 0.33281 0.75232 0.41428 0.0
H849 H 0.25243 0.77352 0.4292 0.0
H850 H 0.33223 0.43678 0.46259 0.0
H851 H 0.25075 0.45683 0.47718 0.0
H852 H 0.43663 0.4804 0.46212 0.0
H853 H 0.47755 0.5436 0.44278 0.0
C854 C 0.12101 0.56471 0.2306 0.0
C855 C 0.13871 0.49886 0.21877 0.0
C856 C 0.11833 0.55626 0.17823 0.0
C857 C 0.1201 0.62466 0.18999 0.0
N858 N 0.12763 0.69361 0.2281 0.0
N859 N 0.15441 0.43128 0.18088 0.0
C860 C 0.12169 0.62901 0.21644 0.0
C861 C 0.13633 0.49402 0.19241 0.0
N862 N 0.10498 0.5652 0.2555 0.0
N863 N 0.09757 0.55059 0.15377 0.0
H864 H 0.16573 0.38433 0.19083 0.0
H865 H 0.16179 0.42712 0.16159 0.0
H866 H 0.08026 0.59453 0.14314 0.0
H867 H 0.08979 0.50161 0.14498 0.0
H868 H 0.0869 0.61075 0.26491 0.0
H869 H 0.10206 0.51784 0.26583 0.0
H870 H 0.13593 0.6985 0.24732 0.0
H871 H 0.13079 0.74194 0.21841 0.0
loop_
_geom_bond_atom_site_label_1
_geom_bond_atom_site_label_2
_geom_bond_distance
_geom_bond_site_symmetry_2
_ccdc_geom_bond_type
H0 C8 0.930 . S
H1 C11 0.930 . S
H2 C13 0.930 1_565 S
H3 C14 0.970 . S
H4 C14 0.970 . S
H5 C16 0.930 . S
H6 C18 0.930 1_565 S
H7 C20 0.930 . S
C8 H0 0.930 . S
C8 C9 1.382 1_545 S
C8 C10 1.426 . S
C9 C8 1.382 1_565 S
C9 C13 1.389 1_565 S
C10 C8 1.426 . S
C10 C11 1.375 . S
C10 C14 1.532 1_655 S
C11 H1 0.930 . S
C11 C10 1.375 . S
C11 C12 1.416 . S
C12 C11 1.416 . S
C12 C13 1.371 . S
C13 H2 0.930 1_545 S
C13 C9 1.389 1_545 S
C13 C12 1.371 . S
C14 H3 0.970 . S
C14 H4 0.970 . S
C14 C10 1.532 1_455 S
C14 C15 1.499 . S
C15 C14 1.499 . S
C15 C16 1.370 . S
C15 C20 1.415 . S
C16 H5 0.930 . S
C16 C15 1.370 . S
C16 C17 1.407 1_545 S
C17 C16 1.407 1_565 S
C17 C18 1.365 1_565 S
C18 H6 0.930 1_545 S
C18 C17 1.365 1_545 S
C18 C19 1.393 . S
C19 C18 1.393 . S
C19 C20 1.387 . S
C20 H7 0.930 . S
C20 C15 1.415 . S
C20 C19 1.387 . S
H21 C29 0.930 . S
H22 C32 0.930 . S
H23 C34 0.930 . S
H24 C35 0.970 . S
H25 C35 0.970 . S
H26 C37 0.930 . S
H27 C39 0.930 . S
H28 C41 0.930 . S
C29 H21 0.930 . S
C29 C30 1.382 . S
C29 C31 1.426 . S
C30 C29 1.382 . S
C30 C34 1.389 . S
C31 C29 1.426 . S
C31 C32 1.375 . S
C31 C35 1.532 . S
C32 H22 0.930 . S
C32 C31 1.375 . S
C32 C33 1.416 . S
C33 C32 1.416 . S
C33 C34 1.371 . S
C34 H23 0.930 . S
C34 C30 1.389 . S
C34 C33 1.371 . S
C35 H24 0.970 . S
C35 H25 0.970 . S
C35 C31 1.532 . S
C35 C36 1.499 . S
C36 C35 1.499 . S
C36 C37 1.370 . S
C36 C41 1.415 . S
C37 H26 0.930 . S
C37 C36 1.370 . S
C37 C38 1.407 . S
C38 C37 1.407 . S
C38 C39 1.365 . S
C39 H27 0.930 . S
C39 C38 1.365 . S
C39 C40 1.393 . S
C40 C39 1.393 . S
C40 C41 1.387 . S
C41 H28 0.930 . S
C41 C36 1.415 . S
C41 C40 1.387 . S
H42 C50 0.930 1_565 S
H43 C53 0.930 1_556 S
H44 C55 0.930 . S
H45 C56 0.970 . S
H46 C56 0.970 . S
H47 C58 0.930 1_565 S
H48 C60 0.930 . S
H49 C62 0.930 1_556 S
C50 H42 0.930 1_545 S
C50 C51 1.382 1_545 S
C50 C52 1.426 . S
C51 C50 1.382 1_565 S
C51 C55 1.389 . S
C52 C50 1.426 . S
C52 C53 1.375 . S
C52 C56 1.532 . S
C53 H43 0.930 1_554 S
C53 C52 1.375 . S
C53 C54 1.416 1_554 S
C54 C53 1.416 1_556 S
C54 C55 1.371 1_546 S
C55 H44 0.930 . S
C55 C51 1.389 . S
C55 C54 1.371 1_564 S
C56 H45 0.970 . S
C56 H46 0.970 . S
C56 C52 1.532 . S
C56 C57 1.499 . S
C57 C56 1.499 . S
C57 C58 1.370 . S
C57 C62 1.415 . S
C58 H47 0.930 1_545 S
C58 C57 1.370 . S
C58 C59 1.407 1_545 S
C59 C58 1.407 1_565 S
C59 C60 1.365 . S
C60 H48 0.930 . S
C60 C59 1.365 . S
C60 C61 1.393 1_564 S
C61 C60 1.393 1_546 S
C61 C62 1.387 1_556 S
C62 H49 0.930 1_554 S
C62 C57 1.415 . S
C62 C61 1.387 1_554 S
H63 C71 0.930 . S
H64 C74 0.930 . S
H65 C76 0.930 . S
H66 C77 0.970 . S
H67 C77 0.970 . S
H68 C79 0.930 . S
H69 C81 0.930 . S
H70 C83 0.930 . S
C71 H63 0.930 . S
C71 C72 1.382 . S
C71 C73 1.426 . S
C72 C71 1.382 . S
C72 C76 1.389 . S
C73 C71 1.426 . S
C73 C74 1.375 . S
C73 C77 1.532 . S
C74 H64 0.930 . S
C74 C73 1.375 . S
C74 C75 1.416 . S
C75 C74 1.416 . S
C75 C76 1.371 . S
C76 H65 0.930 . S
C76 C72 1.389 . S
C76 C75 1.371 . S
C77 H66 0.970 . S
C77 H67 0.970 . S
C77 C73 1.532 . S
C77 C78 1.499 . S
C78 C77 1.499 . S
C78 C79 1.370 . S
C78 C83 1.415 . S
C79 H68 0.930 . S
C79 C78 1.370 . S
C79 C80 1.407 . S
C80 C79 1.407 . S
C80 C81 1.365 . S
C81 H69 0.930 . S
C81 C80 1.365 . S
C81 C82 1.393 . S
C82 C81 1.393 . S
C82 C83 1.387 . S
C83 H70 0.930 . S
C83 C78 1.415 . S
C83 C82 1.387 . S
H84 C92 0.930 . S
H85 C95 0.930 . S
H86 C97 0.930 . S
H87 C98 0.970 . S
H88 C98 0.970 . S
H89 C100 0.930 . S
H90 C102 0.930 . S
H91 C104 0.930 . S
C92 H84 0.930 . S
C92 C93 1.382 . S
C92 C94 1.426 . S
C93 C92 1.382 . S
C93 C97 1.389 . S
C94 C92 1.426 . S
C94 C95 1.375 . S
C94 C98 1.532 . S
C95 H85 0.930 . S
C95 C94 1.375 . S
C95 C96 1.416 . S
C96 C95 1.416 . S
C96 C97 1.371 . S
C97 H86 0.930 . S
C97 C93 1.389 . S
C97 C96 1.371 . S
C98 H87 0.970 . S
C98 H88 0.970 . S
C98 C94 1.532 . S
C98 C99 1.499 . S
C99 C98 1.499 . S
C99 C100 1.370 . S
C99 C104 1.415 . S
C100 H89 0.930 . S
C100 C99 1.370 . S
C100 C101 1.407 . S
C101 C100 1.407 . S
C101 C102 1.365 . S
C102 H90 0.930 . S
C102 C101 1.365 . S
C102 C103 1.393 . S
C103 C102 1.393 . S
C103 C104 1.387 . S
C104 H91 0.930 . S
C104 C99 1.415 . S
C104 C103 1.387 . S
H105 C113 0.930 . S
H106 C116 0.930 . S
H107 C118 0.930 . S
H108 C119 0.970 . S
H109 C119 0.970 . S
H110 C121 0.930 . S
H111 C123 0.930 . S
H112 C125 0.930 . S
C113 H105 0.930 . S
C113 C114 1.382 . S
C113 C115 1.426 . S
C114 C113 1.382 . S
C114 C118 1.389 . S
C115 C113 1.426 . S
C115 C116 1.375 . S
C115 C119 1.532 . S
C116 H106 0.930 . S
C116 C115 1.375 . S
C116 C117 1.416 . S
C117 C116 1.416 . S
C117 C118 1.371 . S
C118 H107 0.930 . S
C118 C114 1.389 . S
C118 C117 1.371 . S
C119 H108 0.970 . S
C119 H109 0.970 . S
C119 C115 1.532 . S
C119 C120 1.499 . S
C120 C119 1.499 . S
C120 C121 1.370 . S
C120 C125 1.415 . S
C121 H110 0.930 . S
C121 C120 1.370 . S
C121 C122 1.407 . S
C122 C121 1.407 . S
C122 C123 1.365 . S
C123 H111 0.930 . S
C123 C122 1.365 . S
C123 C124 1.393 . S
C124 C123 1.393 . S
C124 C125 1.387 . S
C125 H112 0.930 . S
C125 C120 1.415 . S
C125 C124 1.387 . S
H126 C134 0.930 . S
H127 C137 0.930 1_556 S
H128 C139 0.930 . S
H129 C140 0.970 . S
H130 C140 0.970 . S
H131 C142 0.930 . S
H132 C144 0.930 . S
H133 C146 0.930 1_556 S
C134 H126 0.930 . S
C134 C135 1.382 . S
C134 C136 1.426 . S
C135 C134 1.382 . S
C135 C139 1.389 . S
C136 C134 1.426 . S
C136 C137 1.375 . S
C136 C140 1.532 . S
C137 H127 0.930 1_554 S
C137 C136 1.375 . S
C137 C138 1.416 1_554 S
C138 C137 1.416 1_556 S
C138 C139 1.371 1_556 S
C139 H128 0.930 . S
C139 C135 1.389 . S
C139 C138 1.371 1_554 S
C140 H129 0.970 . S
C140 H130 0.970 . S
C140 C136 1.532 . S
C140 C141 1.499 . S
C141 C140 1.499 . S
C141 C142 1.370 . S
C141 C146 1.415 . S
C142 H131 0.930 . S
C142 C141 1.370 . S
C142 C143 1.407 . S
C143 C142 1.407 . S
C143 C144 1.365 . S
C144 H132 0.930 . S
C144 C143 1.365 . S
C144 C145 1.393 1_554 S
C145 C144 1.393 1_556 S
C145 C146 1.387 1_556 S
C146 H133 0.930 1_554 S
C146 C141 1.415 . S
C146 C145 1.387 1_554 S
H147 C155 0.930 . S
H148 C158 0.930 . S
H149 C160 0.930 . S
H150 C161 0.970 . S
H151 C161 0.970 . S
H152 C163 0.930 . S
H153 C165 0.930 . S
H154 C167 0.930 . S
C155 H147 0.930 . S
C155 C156 1.382 . S
C155 C157 1.426 . S
C156 C155 1.382 . S
C156 C160 1.389 . S
C157 C155 1.426 . S
C157 C158 1.375 . S
C157 C161 1.532 . S
C158 H148 0.930 . S
C158 C157 1.375 . S
C158 C159 1.416 . S
C159 C158 1.416 . S
C159 C160 1.371 . S
C160 H149 0.930 . S
C160 C156 1.389 . S
C160 C159 1.371 . S
C161 H150 0.970 . S
C161 H151 0.970 . S
C161 C157 1.532 . S
C161 C162 1.499 1_455 S
C162 C161 1.499 1_655 S
C162 C163 1.370 . S
C162 C167 1.415 . S
C163 H152 0.930 . S
C163 C162 1.370 . S
C163 C164 1.407 . S
C164 C163 1.407 . S
C164 C165 1.365 . S
C165 H153 0.930 . S
C165 C164 1.365 . S
C165 C166 1.393 . S
C166 C165 1.393 . S
C166 C167 1.387 . S
C167 H154 0.930 . S
C167 C162 1.415 . S
C167 C166 1.387 . S
Fe168 O169 1.886 . S
Fe168 O172 1.715 1_455 S
Fe168 O177 2.077 . S
Fe168 O182 1.935 1_455 S
Fe168 O188 2.077 . S
Fe168 O197 1.935 1_455 S
O169 Fe168 1.886 . S
O169 Fe171 1.715 . S
Fe170 O172 1.886 . S
Fe170 O173 1.715 . S
Fe170 O180 1.935 . S
Fe170 O181 2.077 . S
Fe170 O187 1.935 . S
Fe170 O196 2.077 . S
Fe171 O169 1.715 . S
Fe171 O174 1.886 . S
Fe171 O178 1.935 . S
Fe171 O183 2.077 . S
Fe171 O189 1.935 . S
Fe171 O193 2.077 . S
O172 Fe168 1.715 1_655 S
O172 Fe170 1.886 . S
O173 Fe170 1.715 . S
O173 Fe175 1.886 1_655 S
O174 Fe171 1.886 . S
O174 Fe175 1.715 . S
Fe175 O173 1.886 1_455 S
Fe175 O174 1.715 . S
Fe175 O179 2.077 1_455 S
Fe175 O184 1.935 . S
Fe175 O186 2.077 1_455 S
Fe175 O194 1.935 . S
C176 O188 1.381 . S
C176 O189 1.421 . S
O177 Fe168 2.077 . S
O177 C190 1.381 . S
O178 Fe171 1.935 . S
O178 C190 1.421 . S
O179 Fe175 2.077 1_655 S
O179 C195 1.381 . S
O180 Fe170 1.935 . S
O180 C195 1.421 . S
O181 Fe170 2.077 . S
O181 C185 1.381 . S
O182 Fe168 1.935 1_655 S
O182 C185 1.421 . S
O183 Fe171 2.077 . S
O183 C191 1.381 . S
O184 Fe175 1.935 . S
O184 C191 1.421 . S
C185 O181 1.381 . S
C185 O182 1.421 . S
O186 Fe175 2.077 1_655 S
O186 C198 1.381 . S
O187 Fe170 1.935 . S
O187 C198 1.421 . S
O188 Fe168 2.077 . S
O188 C176 1.381 . S
O189 Fe171 1.935 . S
O189 C176 1.421 . S
C190 O177 1.381 . S
C190 O178 1.421 . S
C191 O183 1.381 . S
C191 O184 1.421 . S
C192 O193 1.381 . S
C192 O194 1.421 . S
O193 Fe171 2.077 . S
O193 C192 1.381 . S
O194 Fe175 1.935 . S
O194 C192 1.421 . S
C195 O179 1.381 . S
C195 O180 1.421 . S
O196 Fe170 2.077 . S
O196 C199 1.381 . S
O197 Fe168 1.935 1_655 S
O197 C199 1.421 . S
C198 O186 1.381 . S
C198 O187 1.421 . S
C199 O196 1.381 . S
C199 O197 1.421 . S
Fe200 O201 1.886 . S
Fe200 O204 1.715 . S
Fe200 O209 2.077 . S
Fe200 O214 1.935 . S
Fe200 O220 2.077 . S
Fe200 O229 1.935 . S
O201 Fe200 1.886 . S
O201 Fe203 1.715 . S
Fe202 O204 1.886 . S
Fe202 O205 1.715 . S
Fe202 O212 1.935 . S
Fe202 O213 2.077 . S
Fe202 O219 1.935 . S
Fe202 O228 2.077 . S
Fe203 O201 1.715 . S
Fe203 O206 1.886 . S
Fe203 O210 1.935 . S
Fe203 O215 2.077 . S
Fe203 O221 1.935 . S
Fe203 O225 2.077 . S
O204 Fe200 1.715 . S
O204 Fe202 1.886 . S
O205 Fe202 1.715 . S
O205 Fe207 1.886 . S
O206 Fe203 1.886 . S
O206 Fe207 1.715 . S
Fe207 O205 1.886 . S
Fe207 O206 1.715 . S
Fe207 O211 2.077 . S
Fe207 O216 1.935 . S
Fe207 O218 2.077 . S
Fe207 O226 1.935 . S
C208 O220 1.381 . S
C208 O221 1.421 . S
O209 Fe200 2.077 . S
O209 C222 1.381 . S
O210 Fe203 1.935 . S
O210 C222 1.421 . S
O211 Fe207 2.077 . S
O211 C227 1.381 . S
O212 Fe202 1.935 . S
O212 C227 1.421 . S
O213 Fe202 2.077 . S
O213 C217 1.381 . S
O214 Fe200 1.935 . S
O214 C217 1.421 . S
O215 Fe203 2.077 . S
O215 C223 1.381 . S
O216 Fe207 1.935 . S
O216 C223 1.421 . S
C217 O213 1.381 . S
C217 O214 1.421 . S
O218 Fe207 2.077 . S
O218 C230 1.381 . S
O219 Fe202 1.935 . S
O219 C230 1.421 . S
O220 Fe200 2.077 . S
O220 C208 1.381 . S
O221 Fe203 1.935 . S
O221 C208 1.421 . S
C222 O209 1.381 . S
C222 O210 1.421 . S
C223 O215 1.381 . S
C223 O216 1.421 . S
C224 O225 1.381 . S
C224 O226 1.421 . S
O225 Fe203 2.077 . S
O225 C224 1.381 . S
O226 Fe207 1.935 . S
O226 C224 1.421 . S
C227 O211 1.381 . S
C227 O212 1.421 . S
O228 Fe202 2.077 . S
O228 C231 1.381 . S
O229 Fe200 1.935 . S
O229 C231 1.421 . S
C230 O218 1.381 . S
C230 O219 1.421 . S
C231 O228 1.381 . S
C231 O229 1.421 . S
Fe232 O233 1.886 . S
Fe232 O236 1.715 . S
Fe232 O241 2.077 . S
Fe232 O246 1.935 . S
Fe232 O252 2.077 . S
Fe232 O261 1.935 . S
O233 Fe232 1.886 . S
O233 Fe235 1.715 . S
Fe234 O236 1.886 . S
Fe234 O237 1.715 . S
Fe234 O244 1.935 . S
Fe234 O245 2.077 . S
Fe234 O251 1.935 . S
Fe234 O260 2.077 . S
Fe235 O233 1.715 . S
Fe235 O238 1.886 . S
Fe235 O242 1.935 . S
Fe235 O247 2.077 . S
Fe235 O253 1.935 . S
Fe235 O257 2.077 . S
O236 Fe232 1.715 . S
O236 Fe234 1.886 . S
O237 Fe234 1.715 . S
O237 Fe239 1.886 . S
O238 Fe235 1.886 . S
O238 Fe239 1.715 . S
Fe239 O237 1.886 . S
Fe239 O238 1.715 . S
Fe239 O243 2.077 . S
Fe239 O248 1.935 . S
Fe239 O250 2.077 . S
Fe239 O258 1.935 . S
C240 O252 1.381 . S
C240 O253 1.421 . S
O241 Fe232 2.077 . S
O241 C254 1.381 . S
O242 Fe235 1.935 . S
O242 C254 1.421 . S
O243 Fe239 2.077 . S
O243 C259 1.381 . S
O244 Fe234 1.935 . S
O244 C259 1.421 . S
O245 Fe234 2.077 . S
O245 C249 1.381 . S
O246 Fe232 1.935 . S
O246 C249 1.421 . S
O247 Fe235 2.077 . S
O247 C255 1.381 . S
O248 Fe239 1.935 . S
O248 C255 1.421 . S
C249 O245 1.381 . S
C249 O246 1.421 . S
O250 Fe239 2.077 . S
O250 C262 1.381 . S
O251 Fe234 1.935 . S
O251 C262 1.421 . S
O252 Fe232 2.077 . S
O252 C240 1.381 . S
O253 Fe235 1.935 . S
O253 C240 1.421 . S
C254 O241 1.381 . S
C254 O242 1.421 . S
C255 O247 1.381 . S
C255 O248 1.421 . S
C256 O257 1.381 . S
C256 O258 1.421 . S
O257 Fe235 2.077 . S
O257 C256 1.381 . S
O258 Fe239 1.935 . S
O258 C256 1.421 . S
C259 O243 1.381 . S
C259 O244 1.421 . S
O260 Fe234 2.077 . S
O260 C263 1.381 . S
O261 Fe232 1.935 . S
O261 C263 1.421 . S
C262 O250 1.381 . S
C262 O251 1.421 . S
C263 O260 1.381 . S
C263 O261 1.421 . S
Fe264 O265 1.886 . S
Fe264 O268 1.715 . S
Fe264 O273 2.077 1_455 S
Fe264 O278 1.935 1_455 S
Fe264 O284 2.077 . S
Fe264 O293 1.935 . S
O265 Fe264 1.886 . S
O265 Fe267 1.715 . S
Fe266 O268 1.886 . S
Fe266 O269 1.715 . S
Fe266 O276 1.935 1_455 S
Fe266 O277 2.077 1_455 S
Fe266 O283 1.935 . S
Fe266 O292 2.077 . S
Fe267 O265 1.715 . S
Fe267 O270 1.886 . S
Fe267 O274 1.935 1_455 S
Fe267 O279 2.077 1_455 S
Fe267 O285 1.935 . S
Fe267 O289 2.077 . S
O268 Fe264 1.715 . S
O268 Fe266 1.886 . S
O269 Fe266 1.715 . S
O269 Fe271 1.886 . S
O270 Fe267 1.886 . S
O270 Fe271 1.715 . S
Fe271 O269 1.886 . S
Fe271 O270 1.715 . S
Fe271 O275 2.077 1_455 S
Fe271 O280 1.935 1_455 S
Fe271 O282 2.077 . S
Fe271 O290 1.935 . S
C272 O284 1.381 . S
C272 O285 1.421 . S
O273 Fe264 2.077 1_655 S
O273 C286 1.381 . S
O274 Fe267 1.935 1_655 S
O274 C286 1.421 . S
O275 Fe271 2.077 1_655 S
O275 C291 1.381 . S
O276 Fe266 1.935 1_655 S
O276 C291 1.421 . S
O277 Fe266 2.077 1_655 S
O277 C281 1.381 . S
O278 Fe264 1.935 1_655 S
O278 C281 1.421 . S
O279 Fe267 2.077 1_655 S
O279 C287 1.381 . S
O280 Fe271 1.935 1_655 S
O280 C287 1.421 . S
C281 O277 1.381 . S
C281 O278 1.421 . S
O282 Fe271 2.077 . S
O282 C294 1.381 . S
O283 Fe266 1.935 . S
O283 C294 1.421 . S
O284 Fe264 2.077 . S
O284 C272 1.381 . S
O285 Fe267 1.935 . S
O285 C272 1.421 . S
C286 O273 1.381 . S
C286 O274 1.421 . S
C287 O279 1.381 . S
C287 O280 1.421 . S
C288 O289 1.381 . S
C288 O290 1.421 . S
O289 Fe267 2.077 . S
O289 C288 1.381 . S
O290 Fe271 1.935 . S
O290 C288 1.421 . S
C291 O275 1.381 . S
C291 O276 1.421 . S
O292 Fe266 2.077 . S
O292 C295 1.381 . S
O293 Fe264 1.935 . S
O293 C295 1.421 . S
C294 O282 1.381 . S
C294 O283 1.421 . S
C295 O292 1.381 . S
C295 O293 1.421 . S
C296 C297 1.363 . S
C296 C302 1.379 . S
C296 N304 1.356 . S
C297 C296 1.363 . S
C297 C303 1.363 . S
C298 C299 1.363 . S
C298 C303 1.379 . S
C298 N305 1.356 . S
C299 C298 1.363 . S
C299 C302 1.363 . S
N300 C302 1.356 . S
N300 H312 0.984 . S
N300 H313 0.985 . S
N301 C303 1.356 1_545 S
N301 H306 0.984 . S
N301 H307 0.985 . S
C302 C296 1.379 . S
C302 C299 1.363 . S
C302 N300 1.356 . S
C303 C297 1.363 . S
C303 C298 1.379 . S
C303 N301 1.356 1_565 S
N304 C296 1.356 . S
N304 H310 0.984 . S
N304 H311 0.984 . S
N305 C298 1.356 . S
N305 H308 0.984 . S
N305 H309 0.985 . S
H306 N301 0.984 . S
H307 N301 0.985 . S
H308 N305 0.984 . S
H309 N305 0.985 . S
H310 N304 0.984 . S
H311 N304 0.984 . S
H312 N300 0.984 . S
H313 N300 0.985 . S
C314 C315 1.363 . S
C314 C320 1.379 1_565 S
C314 N322 1.356 . S
C315 C314 1.363 . S
C315 C321 1.363 1_565 S
C316 C317 1.363 . S
C316 C321 1.379 . S
C316 N323 1.356 . S
C317 C316 1.363 . S
C317 C320 1.363 . S
N318 C320 1.356 . S
N318 H330 0.984 . S
N318 H331 0.985 . S
N319 C321 1.356 . S
N319 H324 0.984 1_545 S
N319 H325 0.985 . S
C320 C314 1.379 1_545 S
C320 C317 1.363 . S
C320 N318 1.356 . S
C321 C315 1.363 1_545 S
C321 C316 1.379 . S
C321 N319 1.356 . S
N322 C314 1.356 . S
N322 H328 0.984 . S
N322 H329 0.984 . S
N323 C316 1.356 . S
N323 H326 0.984 . S
N323 H327 0.985 . S
H324 N319 0.984 1_565 S
H325 N319 0.985 . S
H326 N323 0.984 . S
H327 N323 0.985 . S
H328 N322 0.984 . S
H329 N322 0.984 . S
H330 N318 0.984 . S
H331 N318 0.985 . S
C332 C333 1.363 . S
C332 C338 1.379 . S
C332 N340 1.356 1_556 S
C333 C332 1.363 . S
C333 C339 1.363 . S
C334 C335 1.363 . S
C334 C339 1.379 . S
C334 N341 1.356 . S
C335 C334 1.363 . S
C335 C338 1.363 . S
N336 C338 1.356 . S
N336 H348 0.984 . S
N336 H349 0.985 . S
N337 C339 1.356 1_565 S
N337 H342 0.984 . S
N337 H343 0.985 . S
C338 C332 1.379 . S
C338 C335 1.363 . S
C338 N336 1.356 . S
C339 C333 1.363 . S
C339 C334 1.379 . S
C339 N337 1.356 1_545 S
N340 C332 1.356 1_554 S
N340 H346 0.984 . S
N340 H347 0.984 . S
N341 C334 1.356 . S
N341 H344 0.984 . S
N341 H345 0.985 1_545 S
H342 N337 0.984 . S
H343 N337 0.985 . S
H344 N341 0.984 . S
H345 N341 0.985 1_565 S
H346 N340 0.984 . S
H347 N340 0.984 . S
H348 N336 0.984 . S
H349 N336 0.985 . S
C350 C351 1.363 . S
C350 C356 1.379 1_545 S
C350 N358 1.356 . S
C351 C350 1.363 . S
C351 C357 1.363 1_545 S
C352 C353 1.363 . S
C352 C357 1.379 . S
C352 N359 1.356 . S
C353 C352 1.363 . S
C353 C356 1.363 . S
N354 C356 1.356 . S
N354 H366 0.984 . S
N354 H367 0.985 . S
N355 C357 1.356 1_545 S
N355 H360 0.984 . S
N355 H361 0.985 1_545 S
C356 C350 1.379 1_565 S
C356 C353 1.363 . S
C356 N354 1.356 . S
C357 C351 1.363 1_565 S
C357 C352 1.379 . S
C357 N355 1.356 1_565 S
N358 C350 1.356 . S
N358 H364 0.984 . S
N358 H365 0.984 . S
N359 C352 1.356 . S
N359 H362 0.984 . S
N359 H363 0.985 . S
H360 N355 0.984 . S
H361 N355 0.985 1_565 S
H362 N359 0.984 . S
H363 N359 0.985 . S
H364 N358 0.984 . S
H365 N358 0.984 . S
H366 N354 0.984 . S
H367 N354 0.985 . S
C368 C369 1.363 . S
C368 C374 1.379 . S
C368 N376 1.356 . S
C369 C368 1.363 . S
C369 C375 1.363 . S
C370 C371 1.363 . S
C370 C375 1.379 . S
C370 N377 1.356 . S
C371 C370 1.363 . S
C371 C374 1.363 . S
N372 C374 1.356 . S
N372 H384 0.984 . S
N372 H385 0.985 . S
N373 C375 1.356 1_565 S
N373 H378 0.984 . S
N373 H379 0.985 . S
C374 C368 1.379 . S
C374 C371 1.363 . S
C374 N372 1.356 . S
C375 C369 1.363 . S
C375 C370 1.379 . S
C375 N373 1.356 1_545 S
N376 C368 1.356 . S
N376 H382 0.984 . S
N376 H383 0.984 . S
N377 C370 1.356 . S
N377 H380 0.984 . S
N377 H381 0.985 1_545 S
H378 N373 0.984 . S
H379 N373 0.985 . S
H380 N377 0.984 . S
H381 N377 0.985 1_565 S
H382 N376 0.984 . S
H383 N376 0.984 . S
H384 N372 0.984 . S
H385 N372 0.985 . S
C386 C387 1.363 . S
C386 C392 1.379 1_565 S
C386 N394 1.356 . S
C387 C386 1.363 . S
C387 C393 1.363 1_565 S
C388 C389 1.363 . S
C388 C393 1.379 . S
C388 N395 1.356 . S
C389 C388 1.363 . S
C389 C392 1.363 . S
N390 C392 1.356 . S
N390 H402 0.984 1_545 S
N390 H403 0.985 . S
N391 C393 1.356 . S
N391 H396 0.984 1_545 S
N391 H397 0.985 . S
C392 C386 1.379 1_545 S
C392 C389 1.363 . S
C392 N390 1.356 . S
C393 C387 1.363 1_545 S
C393 C388 1.379 . S
C393 N391 1.356 . S
N394 C386 1.356 . S
N394 H400 0.984 . S
N394 H401 0.984 . S
N395 C388 1.356 . S
N395 H398 0.984 . S
N395 H399 0.985 . S
H396 N391 0.984 1_565 S
H397 N391 0.985 . S
H398 N395 0.984 . S
H399 N395 0.985 . S
H400 N394 0.984 . S
H401 N394 0.984 . S
H402 N390 0.984 1_565 S
H403 N390 0.985 . S
C404 C405 1.363 . S
C404 C410 1.379 . S
C404 N412 1.356 1_565 S
C405 C404 1.363 . S
C405 C411 1.363 . S
C406 C407 1.363 . S
C406 C411 1.379 . S
C406 N413 1.356 . S
C407 C406 1.363 . S
C407 C410 1.363 . S
N408 C410 1.357 . S
N408 H420 0.983 1_565 S
N408 H421 0.985 . S
N409 C411 1.356 . S
N409 H414 0.984 . S
N409 H415 0.985 . S
C410 C404 1.379 . S
C410 C407 1.363 . S
C410 N408 1.357 . S
C411 C405 1.363 . S
C411 C406 1.379 . S
C411 N409 1.356 . S
N412 C404 1.356 1_545 S
N412 H418 0.984 . S
N412 H419 0.984 . S
N413 C406 1.356 . S
N413 H416 0.984 . S
N413 H417 0.985 . S
H414 N409 0.984 . S
H415 N409 0.985 . S
H416 N413 0.984 . S
H417 N413 0.985 . S
H418 N412 0.984 . S
H419 N412 0.984 . S
H420 N408 0.983 1_545 S
H421 N408 0.985 . S
C422 C423 1.363 . S
C422 C428 1.379 1_545 S
C422 N430 1.356 . S
C423 C422 1.363 . S
C423 C429 1.363 . S
C424 C425 1.363 . S
C424 C429 1.379 1_565 S
C424 N431 1.356 . S
C425 C424 1.363 . S
C425 C428 1.363 . S
N426 C428 1.356 . S
N426 H438 0.984 . S
N426 H439 0.985 . S
N427 C429 1.356 . S
N427 H432 0.984 . S
N427 H433 0.985 . S
C428 C422 1.379 1_565 S
C428 C425 1.363 . S
C428 N426 1.356 . S
C429 C423 1.363 . S
C429 C424 1.379 1_545 S
C429 N427 1.356 . S
N430 C422 1.356 . S
N430 H436 0.984 . S
N430 H437 0.984 . S
N431 C424 1.356 . S
N431 H434 0.984 . S
N431 H435 0.985 . S
H432 N427 0.984 . S
H433 N427 0.985 . S
H434 N431 0.984 . S
H435 N431 0.985 . S
H436 N430 0.984 . S
H437 N430 0.984 . S
H438 N426 0.984 . S
H439 N426 0.985 . S
C440 C441 1.363 . S
C440 C446 1.379 . S
C440 N448 1.356 . S
C441 C440 1.363 . S
C441 C447 1.363 . S
C442 C443 1.363 . S
C442 C447 1.379 . S
C442 N449 1.356 . S
C443 C442 1.363 . S
C443 C446 1.363 . S
N444 C446 1.356 . S
N444 H456 0.984 . S
N444 H457 0.985 . S
N445 C447 1.356 1_565 S
N445 H450 0.984 . S
N445 H451 0.985 . S
C446 C440 1.379 . S
C446 C443 1.363 . S
C446 N444 1.356 . S
C447 C441 1.363 . S
C447 C442 1.379 . S
C447 N445 1.356 1_545 S
N448 C440 1.356 . S
N448 H454 0.984 . S
N448 H455 0.984 . S
N449 C442 1.356 . S
N449 H452 0.984 . S
N449 H453 0.985 1_545 S
H450 N445 0.984 . S
H451 N445 0.985 . S
H452 N449 0.984 . S
H453 N449 0.985 1_565 S
H454 N448 0.984 . S
H455 N448 0.984 . S
H456 N444 0.984 . S
H457 N444 0.985 . S
C458 C459 1.363 . S
C458 C464 1.379 1_545 S
C458 N466 1.356 . S
C459 C458 1.363 . S
C459 C465 1.352 1_545 S
C460 C461 1.363 . S
C460 C465 1.389 . S
C460 N467 1.356 . S
C461 C460 1.363 . S
C461 C464 1.363 . S
N462 C464 1.356 . S
N462 H474 0.984 1_565 S
N462 H475 0.985 . S
N463 C465 1.353 1_545 S
N463 H468 0.984 . S
N463 H469 0.985 1_545 S
C464 C458 1.379 1_565 S
C464 C461 1.363 . S
C464 N462 1.356 . S
C465 C459 1.352 1_565 S
C465 C460 1.389 . S
C465 N463 1.353 1_565 S
N466 C458 1.356 . S
N466 H472 0.984 . S
N466 H473 0.984 . S
N467 C460 1.356 . S
N467 H470 0.984 . S
N467 H471 0.985 . S
H468 N463 0.984 . S
H469 N463 0.985 1_565 S
H470 N467 0.984 . S
H471 N467 0.985 . S
H472 N466 0.984 . S
H473 N466 0.984 . S
H474 N462 0.984 1_545 S
H475 N462 0.985 . S
C476 C477 1.363 . S
C476 C482 1.379 . S
C476 N484 1.356 . S
C477 C476 1.363 . S
C477 C483 1.363 . S
C478 C479 1.363 . S
C478 C483 1.379 . S
C478 N485 1.356 . S
C479 C478 1.363 . S
C479 C482 1.363 . S
N480 C482 1.356 . S
N480 H492 0.984 . S
N480 H493 0.985 . S
N481 C483 1.356 . S
N481 H486 0.984 . S
N481 H487 0.985 . S
C482 C476 1.379 . S
C482 C479 1.363 . S
C482 N480 1.356 . S
C483 C477 1.363 . S
C483 C478 1.379 . S
C483 N481 1.356 . S
N484 C476 1.356 . S
N484 H490 0.976 1_554 S
N484 H491 0.984 . S
N485 C478 1.356 . S
N485 H488 0.984 . S
N485 H489 0.985 . S
H486 N481 0.984 . S
H487 N481 0.985 . S
H488 N485 0.984 . S
H489 N485 0.985 . S
H490 N484 0.976 1_556 S
H491 N484 0.984 . S
H492 N480 0.984 . S
H493 N480 0.985 . S
C494 C495 1.363 1_545 S
C494 C500 1.379 . S
C494 N502 1.356 1_545 S
C495 C494 1.363 1_565 S
C495 C501 1.363 . S
C496 C497 1.363 . S
C496 C501 1.379 1_545 S
C496 N503 1.356 . S
C497 C496 1.363 . S
C497 C500 1.363 . S
N498 C500 1.356 . S
N498 H510 0.984 . S
N498 H511 0.985 . S
N499 C501 1.356 . S
N499 H504 0.984 . S
N499 H505 0.985 . S
C500 C494 1.379 . S
C500 C497 1.363 . S
C500 N498 1.356 . S
C501 C495 1.363 . S
C501 C496 1.379 1_565 S
C501 N499 1.356 . S
N502 C494 1.356 1_565 S
N502 H508 0.984 . S
N502 H509 0.984 . S
N503 C496 1.356 . S
N503 H506 0.984 . S
N503 H507 0.985 . S
H504 N499 0.984 . S
H505 N499 0.985 . S
H506 N503 0.984 . S
H507 N503 0.985 . S
H508 N502 0.984 . S
H509 N502 0.984 . S
H510 N498 0.984 . S
H511 N498 0.985 . S
C512 C513 1.363 . S
C512 C518 1.379 . S
C512 N520 1.356 . S
C513 C512 1.363 . S
C513 C519 1.363 1_565 S
C514 C515 1.363 . S
C514 C519 1.379 1_565 S
C514 N521 1.356 1_565 S
C515 C514 1.363 . S
C515 C518 1.363 . S
N516 C518 1.356 . S
N516 H528 0.984 . S
N516 H529 0.985 . S
N517 C519 1.356 . S
N517 H522 0.984 . S
N517 H523 0.985 . S
C518 C512 1.379 . S
C518 C515 1.363 . S
C518 N516 1.356 . S
C519 C513 1.363 1_545 S
C519 C514 1.379 1_545 S
C519 N517 1.356 . S
N520 C512 1.356 . S
N520 H526 0.984 . S
N520 H527 0.984 . S
N521 C514 1.356 1_545 S
N521 H524 0.984 1_545 S
N521 H525 0.985 . S
H522 N517 0.984 . S
H523 N517 0.985 . S
H524 N521 0.984 1_565 S
H525 N521 0.985 . S
H526 N520 0.984 . S
H527 N520 0.984 . S
H528 N516 0.984 . S
H529 N516 0.985 . S
C530 C531 1.363 . S
C530 C536 1.379 1_545 S
C530 N538 1.356 . S
C531 C530 1.363 . S
C531 C537 1.363 . S
C532 C533 1.363 . S
C532 C537 1.379 1_565 S
C532 N539 1.356 . S
C533 C532 1.363 . S
C533 C536 1.363 . S
N534 C536 1.356 . S
N534 H546 0.984 . S
N534 H547 0.985 . S
N535 C537 1.356 . S
N535 H540 0.984 . S
N535 H541 0.985 . S
C536 C530 1.379 1_565 S
C536 C533 1.363 . S
C536 N534 1.356 . S
C537 C531 1.363 . S
C537 C532 1.379 1_545 S
C537 N535 1.356 . S
N538 C530 1.356 . S
N538 H544 0.984 . S
N538 H545 0.984 . S
N539 C532 1.356 . S
N539 H542 0.984 . S
N539 H543 0.985 . S
H540 N535 0.984 . S
H541 N535 0.985 . S
H542 N539 0.984 . S
H543 N539 0.985 . S
H544 N538 0.984 . S
H545 N538 0.984 . S
H546 N534 0.984 . S
H547 N534 0.985 . S
C548 C549 1.363 . S
C548 C554 1.379 . S
C548 N556 1.356 1_556 S
C549 C548 1.363 . S
C549 C555 1.363 . S
C550 C551 1.363 . S
C550 C555 1.379 . S
C550 N557 1.356 . S
C551 C550 1.363 . S
C551 C554 1.363 . S
N552 C554 1.356 . S
N552 H564 0.984 . S
N552 H565 0.985 . S
N553 C555 1.356 1_565 S
N553 H558 0.984 . S
N553 H559 0.985 . S
C554 C548 1.379 . S
C554 C551 1.363 . S
C554 N552 1.356 . S
C555 C549 1.363 . S
C555 C550 1.379 . S
C555 N553 1.356 1_545 S
N556 C548 1.356 1_554 S
N556 H562 0.984 . S
N556 H563 0.984 . S
N557 C550 1.356 . S
N557 H560 0.984 . S
N557 H561 0.985 . S
H558 N553 0.984 . S
H559 N553 0.985 . S
H560 N557 0.984 . S
H561 N557 0.985 . S
H562 N556 0.984 . S
H563 N556 0.984 . S
H564 N552 0.984 . S
H565 N552 0.985 . S
C566 C567 1.363 . S
C566 C572 1.379 1_565 S
C566 N574 1.356 . S
C567 C566 1.363 . S
C567 C573 1.363 1_565 S
C568 C569 1.363 . S
C568 C573 1.379 . S
C568 N575 1.356 . S
C569 C568 1.363 . S
C569 C572 1.363 . S
N570 C572 1.356 . S
N570 H582 0.984 . S
N570 H583 0.985 . S
N571 C573 1.356 1_565 S
N571 H576 0.984 . S
N571 H577 0.985 . S
C572 C566 1.379 1_545 S
C572 C569 1.363 . S
C572 N570 1.356 . S
C573 C567 1.363 1_545 S
C573 C568 1.379 . S
C573 N571 1.356 1_545 S
N574 C566 1.356 . S
N574 H580 0.984 . S
N574 H581 0.984 . S
N575 C568 1.356 . S
N575 H578 0.984 . S
N575 H579 0.985 . S
H576 N571 0.984 . S
H577 N571 0.985 . S
H578 N575 0.984 . S
H579 N575 0.985 . S
H580 N574 0.984 . S
H581 N574 0.984 . S
H582 N570 0.984 . S
H583 N570 0.985 . S
C584 C585 1.363 . S
C584 C590 1.379 . S
C584 N592 1.356 1_556 S
C585 C584 1.363 . S
C585 C591 1.363 . S
C586 C587 1.363 . S
C586 C591 1.379 . S
C586 N593 1.356 . S
C587 C586 1.363 . S
C587 C590 1.363 . S
N588 C590 1.356 . S
N588 H600 0.984 . S
N588 H601 0.985 . S
N589 C591 1.356 . S
N589 H594 0.984 . S
N589 H595 0.985 . S
C590 C584 1.379 . S
C590 C587 1.363 . S
C590 N588 1.356 . S
C591 C585 1.363 . S
C591 C586 1.379 . S
C591 N589 1.356 . S
N592 C584 1.356 1_554 S
N592 H598 0.984 . S
N592 H599 0.984 . S
N593 C586 1.356 . S
N593 H596 0.984 . S
N593 H597 0.985 . S
H594 N589 0.984 . S
H595 N589 0.985 . S
H596 N593 0.984 . S
H597 N593 0.985 . S
H598 N592 0.984 . S
H599 N592 0.984 . S
H600 N588 0.984 . S
H601 N588 0.985 . S
C602 C603 1.363 . S
C602 C608 1.379 . S
C602 N610 1.356 . S
C603 C602 1.363 . S
C603 C609 1.363 . S
C604 C605 1.363 . S
C604 C609 1.379 . S
C604 N611 1.356 . S
C605 C604 1.363 . S
C605 C608 1.363 . S
N606 C608 1.356 . S
N606 H618 0.984 . S
N606 H619 0.985 . S
N607 C609 1.356 . S
N607 H612 0.984 . S
N607 H613 0.985 . S
C608 C602 1.379 . S
C608 C605 1.363 . S
C608 N606 1.356 . S
C609 C603 1.363 . S
C609 C604 1.379 . S
C609 N607 1.356 . S
N610 C602 1.356 . S
N610 H616 0.984 . S
N610 H617 0.984 . S
N611 C604 1.356 . S
N611 H614 0.984 . S
N611 H615 0.985 . S
H612 N607 0.984 . S
H613 N607 0.985 . S
H614 N611 0.984 . S
H615 N611 0.985 . S
H616 N610 0.984 . S
H617 N610 0.984 . S
H618 N606 0.984 . S
H619 N606 0.985 . S
C620 C621 1.363 . S
C620 C626 1.379 . S
C620 N628 1.356 . S
C621 C620 1.363 . S
C621 C627 1.363 . S
C622 C623 1.363 . S
C622 C627 1.379 . S
C622 N629 1.356 . S
C623 C622 1.363 . S
C623 C626 1.363 . S
N624 C626 1.356 . S
N624 H636 0.984 . S
N624 H637 0.985 . S
N625 C627 1.356 . S
N625 H630 0.984 . S
N625 H631 0.985 . S
C626 C620 1.379 . S
C626 C623 1.363 . S
C626 N624 1.356 . S
C627 C621 1.363 . S
C627 C622 1.379 . S
C627 N625 1.356 . S
N628 C620 1.356 . S
N628 H634 0.984 . S
N628 H635 0.984 . S
N629 C622 1.356 . S
N629 H632 0.984 . S
N629 H633 0.985 . S
H630 N625 0.984 . S
H631 N625 0.985 . S
H632 N629 0.984 . S
H633 N629 0.985 . S
H634 N628 0.984 . S
H635 N628 0.984 . S
H636 N624 0.984 . S
H637 N624 0.985 . S
C638 C639 1.363 . S
C638 C644 1.379 . S
C638 N646 1.356 . S
C639 C638 1.363 . S
C639 C645 1.363 . S
C640 C641 1.363 . S
C640 C645 1.379 . S
C640 N647 1.356 . S
C641 C640 1.363 . S
C641 C644 1.363 . S
N642 C644 1.356 . S
N642 H654 0.984 . S
N642 H655 0.985 . S
N643 C645 1.356 . S
N643 H648 0.984 . S
N643 H649 0.985 . S
C644 C638 1.379 . S
C644 C641 1.363 . S
C644 N642 1.356 . S
C645 C639 1.363 . S
C645 C640 1.379 . S
C645 N643 1.356 . S
N646 C638 1.356 . S
N646 H652 0.984 . S
N646 H653 0.984 . S
N647 C640 1.356 . S
N647 H650 0.984 . S
N647 H651 0.985 . S
H648 N643 0.984 . S
H649 N643 0.985 . S
H650 N647 0.984 . S
H651 N647 0.985 . S
H652 N646 0.984 . S
H653 N646 0.984 . S
H654 N642 0.984 . S
H655 N642 0.985 . S
C656 C657 1.363 . S
C656 C662 1.379 . S
C656 N664 1.356 . S
C657 C656 1.363 . S
C657 C663 1.363 . S
C658 C659 1.363 . S
C658 C663 1.379 . S
C658 N665 1.356 . S
C659 C658 1.363 . S
C659 C662 1.363 . S
N660 C662 1.356 . S
N660 H672 0.984 . S
N660 H673 0.985 . S
N661 C663 1.356 . S
N661 H666 0.984 . S
N661 H667 0.985 . S
C662 C656 1.379 . S
C662 C659 1.363 . S
C662 N660 1.356 . S
C663 C657 1.363 . S
C663 C658 1.379 . S
C663 N661 1.356 . S
N664 C656 1.356 . S
N664 H670 0.984 . S
N664 H671 0.984 . S
N665 C658 1.356 . S
N665 H668 0.984 . S
N665 H669 0.985 . S
H666 N661 0.984 . S
H667 N661 0.985 . S
H668 N665 0.984 . S
H669 N665 0.985 . S
H670 N664 0.984 . S
H671 N664 0.984 . S
H672 N660 0.984 . S
H673 N660 0.985 . S
C674 C675 1.363 . S
C674 C680 1.379 . S
C674 N682 1.356 . S
C675 C674 1.363 . S
C675 C681 1.363 . S
C676 C677 1.363 . S
C676 C681 1.379 . S
C676 N683 1.356 . S
C677 C676 1.363 . S
C677 C680 1.363 . S
N678 C680 1.356 . S
N678 H690 0.984 . S
N678 H691 0.985 . S
N679 C681 1.356 . S
N679 H684 0.984 . S
N679 H685 0.985 . S
C680 C674 1.379 . S
C680 C677 1.363 . S
C680 N678 1.356 . S
C681 C675 1.363 . S
C681 C676 1.379 . S
C681 N679 1.356 . S
N682 C674 1.356 . S
N682 H688 0.984 . S
N682 H689 0.984 . S
N683 C676 1.356 . S
N683 H686 0.984 . S
N683 H687 0.985 . S
H684 N679 0.984 . S
H685 N679 0.985 . S
H686 N683 0.984 . S
H687 N683 0.985 . S
H688 N682 0.984 . S
H689 N682 0.984 . S
H690 N678 0.984 . S
H691 N678 0.985 . S
C692 C693 1.363 . S
C692 C698 1.379 . S
C692 N700 1.356 . S
C693 C692 1.363 . S
C693 C699 1.363 . S
C694 C695 1.363 . S
C694 C699 1.379 . S
C694 N701 1.356 . S
C695 C694 1.363 . S
C695 C698 1.363 . S
N696 C698 1.356 . S
N696 H708 0.984 . S
N696 H709 0.985 . S
N697 C699 1.356 . S
N697 H702 0.984 . S
N697 H703 0.985 . S
C698 C692 1.379 . S
C698 C695 1.363 . S
C698 N696 1.356 . S
C699 C693 1.363 . S
C699 C694 1.379 . S
C699 N697 1.356 . S
N700 C692 1.356 . S
N700 H706 0.984 . S
N700 H707 0.984 . S
N701 C694 1.356 . S
N701 H704 0.984 . S
N701 H705 0.985 . S
H702 N697 0.984 . S
H703 N697 0.985 . S
H704 N701 0.984 . S
H705 N701 0.985 . S
H706 N700 0.984 . S
H707 N700 0.984 . S
H708 N696 0.984 . S
H709 N696 0.985 . S
C710 C711 1.363 . S
C710 C716 1.379 . S
C710 N718 1.356 . S
C711 C710 1.363 . S
C711 C717 1.363 . S
C712 C713 1.363 . S
C712 C717 1.379 . S
C712 N719 1.356 . S
C713 C712 1.363 . S
C713 C716 1.363 . S
N714 C716 1.356 . S
N714 H726 0.984 . S
N714 H727 0.985 . S
N715 C717 1.356 . S
N715 H720 0.984 . S
N715 H721 0.985 . S
C716 C710 1.379 . S
C716 C713 1.363 . S
C716 N714 1.356 . S
C717 C711 1.363 . S
C717 C712 1.379 . S
C717 N715 1.356 . S
N718 C710 1.356 . S
N718 H724 0.984 . S
N718 H725 0.984 . S
N719 C712 1.356 . S
N719 H722 0.984 . S
N719 H723 0.985 . S
H720 N715 0.984 . S
H721 N715 0.985 . S
H722 N719 0.984 . S
H723 N719 0.985 . S
H724 N718 0.984 . S
H725 N718 0.984 . S
H726 N714 0.984 . S
H727 N714 0.985 . S
C728 C729 1.363 . S
C728 C734 1.379 . S
C728 N736 1.356 . S
C729 C728 1.363 . S
C729 C735 1.363 . S
C730 C731 1.363 . S
C730 C735 1.379 . S
C730 N737 1.356 . S
C731 C730 1.363 . S
C731 C734 1.363 . S
N732 C734 1.356 . S
N732 H744 0.984 . S
N732 H745 0.985 . S
N733 C735 1.356 . S
N733 H738 0.984 . S
N733 H739 0.985 . S
C734 C728 1.379 . S
C734 C731 1.363 . S
C734 N732 1.356 . S
C735 C729 1.363 . S
C735 C730 1.379 . S
C735 N733 1.356 . S
N736 C728 1.356 . S
N736 H742 0.984 . S
N736 H743 0.984 . S
N737 C730 1.356 . S
N737 H740 0.984 . S
N737 H741 0.985 . S
H738 N733 0.984 . S
H739 N733 0.985 . S
H740 N737 0.984 . S
H741 N737 0.985 . S
H742 N736 0.984 . S
H743 N736 0.984 . S
H744 N732 0.984 . S
H745 N732 0.985 . S
C746 C747 1.363 . S
C746 C752 1.379 . S
C746 N754 1.356 . S
C747 C746 1.363 . S
C747 C753 1.363 . S
C748 C749 1.363 . S
C748 C753 1.379 . S
C748 N755 1.356 . S
C749 C748 1.363 . S
C749 C752 1.363 . S
N750 C752 1.356 . S
N750 H762 0.984 . S
N750 H763 0.985 . S
N751 C753 1.356 . S
N751 H756 0.984 . S
N751 H757 0.985 . S
C752 C746 1.379 . S
C752 C749 1.363 . S
C752 N750 1.356 . S
C753 C747 1.363 . S
C753 C748 1.379 . S
C753 N751 1.356 . S
N754 C746 1.356 . S
N754 H760 0.984 . S
N754 H761 0.984 . S
N755 C748 1.356 . S
N755 H758 0.984 . S
N755 H759 0.985 1_455 S
H756 N751 0.984 . S
H757 N751 0.985 . S
H758 N755 0.984 . S
H759 N755 0.985 1_655 S
H760 N754 0.984 . S
H761 N754 0.984 . S
H762 N750 0.984 . S
H763 N750 0.985 . S
C764 C765 1.363 . S
C764 C770 1.379 . S
C764 N772 1.356 . S
C765 C764 1.363 . S
C765 C771 1.363 . S
C766 C767 1.363 . S
C766 C771 1.379 . S
C766 N773 1.356 . S
C767 C766 1.363 . S
C767 C770 1.363 . S
N768 C770 1.356 . S
N768 H780 0.984 . S
N768 H781 0.985 . S
N769 C771 1.356 . S
N769 H774 0.984 . S
N769 H775 0.985 . S
C770 C764 1.379 . S
C770 C767 1.363 . S
C770 N768 1.356 . S
C771 C765 1.363 . S
C771 C766 1.379 . S
C771 N769 1.356 . S
N772 C764 1.356 . S
N772 H778 0.984 . S
N772 H779 0.984 . S
N773 C766 1.356 . S
N773 H776 0.984 . S
N773 H777 0.985 . S
H774 N769 0.984 . S
H775 N769 0.985 . S
H776 N773 0.984 . S
H777 N773 0.985 . S
H778 N772 0.984 . S
H779 N772 0.984 . S
H780 N768 0.984 . S
H781 N768 0.985 . S
C782 C783 1.363 . S
C782 C788 1.379 . S
C782 N790 1.356 . S
C783 C782 1.363 . S
C783 C789 1.363 . S
C784 C785 1.363 . S
C784 C789 1.379 . S
C784 N791 1.356 . S
C785 C784 1.363 . S
C785 C788 1.363 . S
N786 C788 1.356 . S
N786 H798 0.984 . S
N786 H799 0.985 . S
N787 C789 1.356 . S
N787 H792 0.984 . S
N787 H793 0.985 . S
C788 C782 1.379 . S
C788 C785 1.363 . S
C788 N786 1.356 . S
C789 C783 1.363 . S
C789 C784 1.379 . S
C789 N787 1.356 . S
N790 C782 1.356 . S
N790 H796 0.984 . S
N790 H797 0.984 . S
N791 C784 1.356 . S
N791 H794 0.984 . S
N791 H795 0.985 . S
H792 N787 0.984 . S
H793 N787 0.985 . S
H794 N791 0.984 . S
H795 N791 0.985 . S
H796 N790 0.984 . S
H797 N790 0.984 . S
H798 N786 0.984 . S
H799 N786 0.985 . S
C800 C801 1.363 . S
C800 C806 1.379 . S
C800 N808 1.356 . S
C801 C800 1.363 . S
C801 C807 1.363 . S
C802 C803 1.363 . S
C802 C807 1.379 . S
C802 N809 1.356 . S
C803 C802 1.363 . S
C803 C806 1.363 . S
N804 C806 1.356 . S
N804 H816 0.984 . S
N804 H817 0.985 . S
N805 C807 1.356 . S
N805 H810 0.984 . S
N805 H811 0.985 . S
C806 C800 1.379 . S
C806 C803 1.363 . S
C806 N804 1.356 . S
C807 C801 1.363 . S
C807 C802 1.379 . S
C807 N805 1.356 . S
N808 C800 1.356 . S
N808 H814 0.984 . S
N808 H815 0.984 . S
N809 C802 1.356 . S
N809 H812 0.984 . S
N809 H813 0.985 . S
H810 N805 0.984 . S
H811 N805 0.985 . S
H812 N809 0.984 . S
H813 N809 0.985 . S
H814 N808 0.984 . S
H815 N808 0.984 . S
H816 N804 0.984 . S
H817 N804 0.985 . S
C818 C819 1.363 . S
C818 C824 1.379 . S
C818 N826 1.356 . S
C819 C818 1.363 . S
C819 C825 1.363 . S
C820 C821 1.363 . S
C820 C825 1.379 . S
C820 N827 1.356 . S
C821 C820 1.363 . S
C821 C824 1.363 . S
N822 C824 1.356 . S
N822 H834 0.984 . S
N822 H835 0.985 . S
N823 C825 1.356 . S
N823 H828 0.984 . S
N823 H829 0.985 . S
C824 C818 1.379 . S
C824 C821 1.363 . S
C824 N822 1.356 . S
C825 C819 1.363 . S
C825 C820 1.379 . S
C825 N823 1.356 . S
N826 C818 1.356 . S
N826 H832 0.984 . S
N826 H833 0.984 . S
N827 C820 1.356 . S
N827 H830 0.984 . S
N827 H831 0.985 . S
H828 N823 0.984 . S
H829 N823 0.985 . S
H830 N827 0.984 . S
H831 N827 0.985 . S
H832 N826 0.984 . S
H833 N826 0.984 . S
H834 N822 0.984 . S
H835 N822 0.985 . S
C836 C837 1.363 . S
C836 C842 1.379 . S
C836 N844 1.356 . S
C837 C836 1.363 . S
C837 C843 1.363 . S
C838 C839 1.363 . S
C838 C843 1.379 . S
C838 N845 1.356 . S
C839 C838 1.363 . S
C839 C842 1.363 . S
N840 C842 1.356 . S
N840 H852 0.984 . S
N840 H853 0.985 . S
N841 C843 1.356 . S
N841 H846 0.984 . S
N841 H847 0.985 . S
C842 C836 1.379 . S
C842 C839 1.363 . S
C842 N840 1.356 . S
C843 C837 1.363 . S
C843 C838 1.379 . S
C843 N841 1.356 . S
N844 C836 1.356 . S
N844 H850 0.984 . S
N844 H851 0.984 . S
N845 C838 1.356 . S
N845 H848 0.984 . S
N845 H849 0.985 . S
H846 N841 0.984 . S
H847 N841 0.985 . S
H848 N845 0.984 . S
H849 N845 0.985 . S
H850 N844 0.984 . S
H851 N844 0.984 . S
H852 N840 0.984 . S
H853 N840 0.985 . S
C854 C855 1.363 . S
C854 C860 1.379 . S
C854 N862 1.356 . S
C855 C854 1.363 . S
C855 C861 1.363 . S
C856 C857 1.363 . S
C856 C861 1.379 . S
C856 N863 1.356 . S
C857 C856 1.363 . S
C857 C860 1.363 . S
N858 C860 1.356 . S
N858 H870 0.984 . S
N858 H871 0.985 . S
N859 C861 1.356 . S
N859 H864 0.984 . S
N859 H865 0.985 . S
C860 C854 1.379 . S
C860 C857 1.363 . S
C860 N858 1.356 . S
C861 C855 1.363 . S
C861 C856 1.379 . S
C861 N859 1.356 . S
N862 C854 1.356 . S
N862 H868 0.984 . S
N862 H869 0.984 . S
N863 C856 1.356 . S
N863 H866 0.984 . S
N863 H867 0.985 . S
H864 N859 0.984 . S
H865 N859 0.985 . S
H866 N863 0.984 . S
H867 N863 0.985 . S
H868 N862 0.984 . S
H869 N862 0.984 . S
H870 N858 0.984 . S
H871 N858 0.985 . S
C299 C217 1.591 . S
C297 C17 1.507 . S
C315 C30 1.515 . S
C317 C249 1.555 . S
C333 C61 1.510 . S
C335 C272 1.556 . S
C353 C176 1.601 . S
C351 C72 1.545 . S
C371 C259 1.406 . S
C369 C19 1.534 . S
C389 C288 1.452 . S
C387 C33 1.488 . S
C407 C192 1.456 . S
C405 C59 1.504 . S
C425 C227 1.411 . S
C423 C75 1.462 . S
C441 C12 1.496 . S
C443 C255 1.427 . S
C459 C101 1.502 . S
C461 C230 1.411 . S
C477 C51 1.451 . S
C479 C198 1.379 . S
C497 C287 1.391 . S
C495 C124 1.459 . S
C515 C231 1.580 . S
C513 C9 1.514 . S
C531 C103 1.517 . S
C533 C199 1.569 . S
C549 C54 1.540 . S
C551 C286 1.620 . S
C569 C254 1.626 . S
C567 C122 1.552 . S
C585 C145 1.518 . S
C587 C281 1.547 . S
C603 C96 1.487 . S
C605 C185 1.580 . S
C621 C166 1.546 . S
C623 C208 1.591 . S
C639 C114 1.514 . S
C641 C240 1.570 . S
C659 C195 1.440 . S
C657 C143 1.505 . S
C675 C93 1.527 . S
C677 C224 1.424 . S
C693 C164 1.474 . S
C695 C256 1.428 . S
C713 C291 1.442 . S
C711 C117 1.494 . S
C729 C135 1.456 . S
C731 C191 1.401 . S
C747 C40 1.456 . S
C749 C294 1.372 . S
C765 C156 1.478 . S
C767 C262 1.405 . S
C785 C223 1.421 . S
C783 C82 1.491 . S
C803 C295 1.612 . S
C801 C138 1.545 . S
C821 C263 1.612 . S
C819 C38 1.548 . S
C839 C222 1.588 . S
C837 C159 1.510 . S
C857 C190 1.598 . S
C855 C80 1.524 . S
