# Generated by pormake.
# Topology eea, (3,6)-cn, num edge types: 1
# Building blocks:
#     Node 0, Type 0, BuildingBlock: BETDAH_clean_linker_0, # of connection points: 3
#     Node 1, Type 0, BuildingBlock: BETDAH_clean_linker_0, # of connection points: 3
#     Node 2, Type 0, BuildingBlock: BETDAH_clean_linker_0, # of connection points: 3
#     Node 3, Type 0, BuildingBlock: BETDAH_clean_linker_0, # of connection points: 3
#     Node 4, Type 0, BuildingBlock: BETDAH_clean_linker_0, # of connection points: 3
#     Node 5, Type 0, BuildingBlock: BETDAH_clean_linker_0, # of connection points: 3
#     Node 6, Type 0, BuildingBlock: BETDAH_clean_linker_0, # of connection points: 3
#     Node 7, Type 0, BuildingBlock: BETDAH_clean_linker_0, # of connection points: 3
#     Node 8, Type 0, BuildingBlock: BETDAH_clean_linker_0, # of connection points: 3
#     Node 9, Type 0, BuildingBlock: BETDAH_clean_linker_0, # of connection points: 3
#     Node 10, Type 0, BuildingBlock: BETDAH_clean_linker_0, # of connection points: 3
#     Node 11, Type 0, BuildingBlock: BETDAH_clean_linker_0, # of connection points: 3
#     Node 12, Type 0, BuildingBlock: BETDAH_clean_linker_0, # of connection points: 3
#     Node 13, Type 0, BuildingBlock: BETDAH_clean_linker_0, # of connection points: 3
#     Node 14, Type 0, BuildingBlock: BETDAH_clean_linker_0, # of connection points: 3
#     Node 15, Type 0, BuildingBlock: BETDAH_clean_linker_0, # of connection points: 3
#     Node 16, Type 0, BuildingBlock: BETDAH_clean_linker_0, # of connection points: 3
#     Node 17, Type 0, BuildingBlock: BETDAH_clean_linker_0, # of connection points: 3
#     Node 18, Type 1, BuildingBlock: KUMBUR_clean_sbu_0, # of connection points: 6
#     Node 19, Type 1, BuildingBlock: KUMBUR_clean_sbu_0, # of connection points: 6
#     Node 20, Type 1, BuildingBlock: KUMBUR_clean_sbu_0, # of connection points: 6
#     Node 21, Type 1, BuildingBlock: KUMBUR_clean_sbu_0, # of connection points: 6
#     Node 22, Type 1, BuildingBlock: KUMBUR_clean_sbu_0, # of connection points: 6
#     Node 23, Type 1, BuildingBlock: KUMBUR_clean_sbu_0, # of connection points: 6
#     Node 24, Type 1, BuildingBlock: KUMBUR_clean_sbu_0, # of connection points: 6
#     Node 25, Type 1, BuildingBlock: KUMBUR_clean_sbu_0, # of connection points: 6
#     Node 26, Type 1, BuildingBlock: KUMBUR_clean_sbu_0, # of connection points: 6
#     Edge 27, Type (0, 1), BuildingBlock: ZUJKAS_clean_linker_0, # of connection points: 2
#     Edge 28, Type (0, 1), BuildingBlock: ZUJKAS_clean_linker_0, # of connection points: 2
#     Edge 29, Type (0, 1), BuildingBlock: ZUJKAS_clean_linker_0, # of connection points: 2
#     Edge 30, Type (0, 1), BuildingBlock: ZUJKAS_clean_linker_0, # of connection points: 2
#     Edge 31, Type (0, 1), BuildingBlock: ZUJKAS_clean_linker_0, # of connection points: 2
#     Edge 32, Type (0, 1), BuildingBlock: ZUJKAS_clean_linker_0, # of connection points: 2
#     Edge 33, Type (0, 1), BuildingBlock: ZUJKAS_clean_linker_0, # of connection points: 2
#     Edge 34, Type (0, 1), BuildingBlock: ZUJKAS_clean_linker_0, # of connection points: 2
#     Edge 35, Type (0, 1), BuildingBlock: ZUJKAS_clean_linker_0, # of connection points: 2
#     Edge 36, Type (0, 1), BuildingBlock: ZUJKAS_clean_linker_0, # of connection points: 2
#     Edge 37, Type (0, 1), BuildingBlock: ZUJKAS_clean_linker_0, # of connection points: 2
#     Edge 38, Type (0, 1), BuildingBlock: ZUJKAS_clean_linker_0, # of connection points: 2
#     Edge 39, Type (0, 1), BuildingBlock: ZUJKAS_clean_linker_0, # of connection points: 2
#     Edge 40, Type (0, 1), BuildingBlock: ZUJKAS_clean_linker_0, # of connection points: 2
#     Edge 41, Type (0, 1), BuildingBlock: ZUJKAS_clean_linker_0, # of connection points: 2
#     Edge 42, Type (0, 1), BuildingBlock: ZUJKAS_clean_linker_0, # of connection points: 2
#     Edge 43, Type (0, 1), BuildingBlock: ZUJKAS_clean_linker_0, # of connection points: 2
#     Edge 44, Type (0, 1), BuildingBlock: ZUJKAS_clean_linker_0, # of connection points: 2
#     Edge 45, Type (0, 1), BuildingBlock: ZUJKAS_clean_linker_0, # of connection points: 2
#     Edge 46, Type (0, 1), BuildingBlock: ZUJKAS_clean_linker_0, # of connection points: 2
#     Edge 47, Type (0, 1), BuildingBlock: ZUJKAS_clean_linker_0, # of connection points: 2
#     Edge 48, Type (0, 1), BuildingBlock: ZUJKAS_clean_linker_0, # of connection points: 2
#     Edge 49, Type (0, 1), BuildingBlock: ZUJKAS_clean_linker_0, # of connection points: 2
#     Edge 50, Type (0, 1), BuildingBlock: ZUJKAS_clean_linker_0, # of connection points: 2
#     Edge 51, Type (0, 1), BuildingBlock: ZUJKAS_clean_linker_0, # of connection points: 2
#     Edge 52, Type (0, 1), BuildingBlock: ZUJKAS_clean_linker_0, # of connection points: 2
#     Edge 53, Type (0, 1), BuildingBlock: ZUJKAS_clean_linker_0, # of connection points: 2
#     Edge 54, Type (0, 1), BuildingBlock: ZUJKAS_clean_linker_0, # of connection points: 2
#     Edge 55, Type (0, 1), BuildingBlock: ZUJKAS_clean_linker_0, # of connection points: 2
#     Edge 56, Type (0, 1), BuildingBlock: ZUJKAS_clean_linker_0, # of connection points: 2
#     Edge 57, Type (0, 1), BuildingBlock: ZUJKAS_clean_linker_0, # of connection points: 2
#     Edge 58, Type (0, 1), BuildingBlock: ZUJKAS_clean_linker_0, # of connection points: 2
#     Edge 59, Type (0, 1), BuildingBlock: ZUJKAS_clean_linker_0, # of connection points: 2
#     Edge 60, Type (0, 1), BuildingBlock: ZUJKAS_clean_linker_0, # of connection points: 2
#     Edge 61, Type (0, 1), BuildingBlock: ZUJKAS_clean_linker_0, # of connection points: 2
#     Edge 62, Type (0, 1), BuildingBlock: ZUJKAS_clean_linker_0, # of connection points: 2
#     Edge 63, Type (0, 1), BuildingBlock: ZUJKAS_clean_linker_0, # of connection points: 2
#     Edge 64, Type (0, 1), BuildingBlock: ZUJKAS_clean_linker_0, # of connection points: 2
#     Edge 65, Type (0, 1), BuildingBlock: ZUJKAS_clean_linker_0, # of connection points: 2
#     Edge 66, Type (0, 1), BuildingBlock: ZUJKAS_clean_linker_0, # of connection points: 2
#     Edge 67, Type (0, 1), BuildingBlock: ZUJKAS_clean_linker_0, # of connection points: 2
#     Edge 68, Type (0, 1), BuildingBlock: ZUJKAS_clean_linker_0, # of connection points: 2
#     Edge 69, Type (0, 1), BuildingBlock: ZUJKAS_clean_linker_0, # of connection points: 2
#     Edge 70, Type (0, 1), BuildingBlock: ZUJKAS_clean_linker_0, # of connection points: 2
#     Edge 71, Type (0, 1), BuildingBlock: ZUJKAS_clean_linker_0, # of connection points: 2
#     Edge 72, Type (0, 1), BuildingBlock: ZUJKAS_clean_linker_0, # of connection points: 2
#     Edge 73, Type (0, 1), BuildingBlock: ZUJKAS_clean_linker_0, # of connection points: 2
#     Edge 74, Type (0, 1), BuildingBlock: ZUJKAS_clean_linker_0, # of connection points: 2
#     Edge 75, Type (0, 1), BuildingBlock: ZUJKAS_clean_linker_0, # of connection points: 2
#     Edge 76, Type (0, 1), BuildingBlock: ZUJKAS_clean_linker_0, # of connection points: 2
#     Edge 77, Type (0, 1), BuildingBlock: ZUJKAS_clean_linker_0, # of connection points: 2
#     Edge 78, Type (0, 1), BuildingBlock: ZUJKAS_clean_linker_0, # of connection points: 2
#     Edge 79, Type (0, 1), BuildingBlock: ZUJKAS_clean_linker_0, # of connection points: 2
#     Edge 80, Type (0, 1), BuildingBlock: ZUJKAS_clean_linker_0, # of connection points: 2
# Relax obj value: 0.022
# Max RMSD: 0.151
# Mean RMSD: 0.112
data_MOF--net-eea--node1-KUMBUR_clean_sbu_0--node2-BETDAH_clean_linker_0--edge1-ZUJKAS_clean_linker_0
_symmetry_space_group_name_H-M    P1
_symmetry_Int_Tables_number       1
_symmetry_cell_setting            triclinic
loop_
_symmetry_equiv_pos_as_xyz
'x, y, z'
_cell_length_a     71.456731
_cell_length_b     72.862238
_cell_length_c     82.522799
_cell_angle_alpha  90.192125
_cell_angle_beta   90.165927
_cell_angle_gamma 119.9631
loop_
_atom_site_label
_atom_site_type_symbol
_atom_site_fract_x
_atom_site_fract_y
_atom_site_fract_z
_atom_type_partial_charge
H0 H 0.24554 0.08363 0.43946 0.0
H1 H 0.23 0.13321 0.43282 0.0
H2 H 0.20418 0.08001 0.40023 0.0
C3 C 0.23747 0.09045 0.43274 0.0
C4 C 0.22508 0.07973 0.41904 0.0
C5 C 0.23937 0.10977 0.43789 0.0
C6 C 0.22863 0.11834 0.42904 0.0
C7 C 0.21599 0.10752 0.4154 0.0
C8 C 0.21423 0.08833 0.41061 0.0
N9 N 0.20435 0.11503 0.40631 0.0
C10 C 0.20803 0.13561 0.40671 0.0
H11 H 0.93913 0.16305 0.43706 0.0
H12 H 0.88475 0.10025 0.42941 0.0
H13 H 0.93361 0.12915 0.39297 0.0
C14 C 0.93056 0.14887 0.42969 0.0
C15 C 0.93875 0.14822 0.41437 0.0
C16 C 0.91099 0.1317 0.43528 0.0
C17 C 0.89964 0.11367 0.42523 0.0
C18 C 0.90791 0.11283 0.40996 0.0
C19 C 0.92732 0.13005 0.40471 0.0
N20 N 0.8976 0.09497 0.39946 0.0
C21 C 0.87722 0.07732 0.40144 0.0
H22 H 0.85086 0.77608 0.43681 0.0
H23 H 0.91426 0.78387 0.42972 0.0
H24 H 0.88739 0.80753 0.3944 0.0
C25 C 0.86524 0.78149 0.42952 0.0
C26 C 0.86688 0.79205 0.4149 0.0
C27 C 0.88217 0.77841 0.43508 0.0
C28 C 0.90119 0.78625 0.42572 0.0
C29 C 0.90301 0.7968 0.41101 0.0
C30 C 0.8859 0.79962 0.40582 0.0
N31 N 0.92149 0.8048 0.40083 0.0
C32 C 0.94017 0.80356 0.40314 0.0
H33 H 0.07773 0.22915 0.59376 0.0
H34 H 0.1342 0.22301 0.60127 0.0
H35 H 0.08564 0.20296 0.6381 0.0
C36 C 0.08704 0.22438 0.60123 0.0
C37 C 0.07904 0.21549 0.61654 0.0
C38 C 0.10691 0.22716 0.59548 0.0
C39 C 0.11899 0.22109 0.60549 0.0
C40 C 0.1112 0.21227 0.62087 0.0
C41 C 0.09134 0.20954 0.62618 0.0
N42 N 0.12262 0.20597 0.63158 0.0
C43 C 0.14206 0.20637 0.62876 0.0
H44 H 0.77064 0.84746 0.59158 0.0
H45 H 0.77881 0.90935 0.60075 0.0
H46 H 0.79835 0.87968 0.63658 0.0
C47 C 0.77616 0.86127 0.59932 0.0
C48 C 0.78489 0.86146 0.61463 0.0
C49 C 0.77384 0.87845 0.59416 0.0
C50 C 0.78039 0.89599 0.6046 0.0
C51 C 0.78911 0.89624 0.61997 0.0
C52 C 0.79125 0.87905 0.62482 0.0
N53 N 0.79592 0.91336 0.63104 0.0
C54 C 0.79724 0.93262 0.62772 0.0
H55 H 0.1566 0.92749 0.59025 0.0
H56 H 0.09753 0.87002 0.60117 0.0
H57 H 0.12662 0.91976 0.63678 0.0
C58 C 0.14348 0.91829 0.59853 0.0
C59 C 0.14378 0.9263 0.6141 0.0
C60 C 0.12691 0.89804 0.59375 0.0
C61 C 0.11026 0.88567 0.60473 0.0
C62 C 0.11023 0.89367 0.62029 0.0
C63 C 0.12697 0.91379 0.62481 0.0
N64 N 0.09408 0.8821 0.63202 0.0
C65 C 0.07463 0.86341 0.62948 0.0
H66 H 0.91023 0.41642 0.77162 0.0
H67 H 0.91217 0.47503 0.76039 0.0
H68 H 0.89396 0.42715 0.72369 0.0
C69 C 0.90765 0.42625 0.7631 0.0
C70 C 0.90135 0.41908 0.74712 0.0
C71 C 0.91164 0.44641 0.76802 0.0
C72 C 0.90904 0.45944 0.75675 0.0
C73 C 0.90271 0.45237 0.74072 0.0
C74 C 0.89907 0.4324 0.73604 0.0
N75 N 0.90038 0.46499 0.72875 0.0
C76 C 0.89615 0.48129 0.73191 0.0
H77 H 0.60346 0.49885 0.77008 0.0
H78 H 0.54901 0.43596 0.76316 0.0
H79 H 0.59793 0.46377 0.72663 0.0
C80 C 0.59475 0.4846 0.7628 0.0
C81 C 0.60306 0.48344 0.74766 0.0
C82 C 0.57518 0.4676 0.76852 0.0
C83 C 0.56414 0.44906 0.75897 0.0
C84 C 0.57239 0.44779 0.7438 0.0
C85 C 0.59166 0.46498 0.73829 0.0
N86 N 0.56188 0.42976 0.73348 0.0
C87 C 0.54316 0.41083 0.7369 0.0
H88 H 0.51804 0.1105 0.77167 0.0
H89 H 0.5824 0.12034 0.76553 0.0
H90 H 0.55678 0.14676 0.73149 0.0
C91 C 0.53287 0.11684 0.7648 0.0
C92 C 0.53514 0.12873 0.75081 0.0
C93 C 0.54981 0.11376 0.77036 0.0
C94 C 0.5693 0.12267 0.76151 0.0
C95 C 0.57177 0.1346 0.74744 0.0
C96 C 0.55476 0.13766 0.74236 0.0
N97 N 0.59106 0.14422 0.73809 0.0
C98 C 0.60844 0.14058 0.73907 0.0
H99 H 0.74525 0.56362 0.92725 0.0
H100 H 0.79809 0.55132 0.93206 0.0
H101 H 0.74773 0.52771 0.96765 0.0
C102 C 0.75343 0.55694 0.934 0.0
C103 C 0.74402 0.54555 0.94828 0.0
C104 C 0.77284 0.55899 0.92794 0.0
C105 C 0.78316 0.5498 0.93657 0.0
C106 C 0.77406 0.53854 0.95095 0.0
C107 C 0.75453 0.53636 0.95654 0.0
N108 N 0.7835 0.52861 0.96003 0.0
C109 C 0.80463 0.53244 0.95893 0.0
H110 H 0.43871 0.17939 0.92606 0.0
H111 H 0.44539 0.24058 0.93572 0.0
H112 H 0.46369 0.21034 0.97193 0.0
C113 C 0.44365 0.19292 0.93401 0.0
C114 C 0.45161 0.19275 0.94955 0.0
C115 C 0.44129 0.21009 0.92886 0.0
C116 C 0.44704 0.22725 0.93955 0.0
C117 C 0.45499 0.22714 0.95514 0.0
C118 C 0.45718 0.20997 0.95997 0.0
N119 N 0.46088 0.24381 0.9665 0.0
C120 C 0.46251 0.26324 0.96329 0.0
H121 H 0.82311 0.25912 0.92349 0.0
H122 H 0.76269 0.2022 0.93283 0.0
H123 H 0.79141 0.25075 0.96931 0.0
C124 C 0.80956 0.24987 0.93141 0.0
C125 C 0.80942 0.25755 0.94703 0.0
C126 C 0.7928 0.22995 0.92612 0.0
C127 C 0.77563 0.21755 0.93674 0.0
C128 C 0.77528 0.22519 0.95238 0.0
C129 C 0.7921 0.24502 0.95732 0.0
N130 N 0.75862 0.2136 0.96375 0.0
C131 C 0.73933 0.19486 0.96095 0.0
H132 H 0.5792 0.74838 0.10371 0.0
H133 H 0.58871 0.81036 0.0928 0.0
H134 H 0.56857 0.76305 0.0554 0.0
C135 C 0.57878 0.75948 0.09521 0.0
C136 C 0.57289 0.75319 0.07906 0.0
C137 C 0.58497 0.78023 0.1003 0.0
C138 C 0.5838 0.79427 0.08916 0.0
C139 C 0.57781 0.78795 0.07295 0.0
C140 C 0.57287 0.76766 0.06797 0.0
N141 N 0.57793 0.80194 0.06104 0.0
C142 C 0.5722 0.81727 0.06387 0.0
H143 H 0.27174 0.82947 0.10427 0.0
H144 H 0.21682 0.7666 0.09855 0.0
H145 H 0.2657 0.79241 0.0619 0.0
C146 C 0.26289 0.81493 0.09733 0.0
C147 C 0.27124 0.81295 0.08244 0.0
C148 C 0.24329 0.79829 0.10335 0.0
C149 C 0.23181 0.77958 0.09404 0.0
C150 C 0.24003 0.77751 0.07909 0.0
C151 C 0.25965 0.79413 0.0735 0.0
N152 N 0.22936 0.75906 0.06922 0.0
C153 C 0.20936 0.7413 0.07218 0.0
H154 H 0.18365 0.4428 0.10272 0.0
H155 H 0.24674 0.4497 0.09589 0.0
H156 H 0.21991 0.47248 0.05982 0.0
C157 C 0.19793 0.44779 0.0954 0.0
C158 C 0.19954 0.45784 0.08054 0.0
C159 C 0.2148 0.44471 0.10116 0.0
C160 C 0.23371 0.45206 0.09174 0.0
C161 C 0.2355 0.46213 0.07679 0.0
C162 C 0.21846 0.46495 0.07141 0.0
N163 N 0.25388 0.46967 0.06654 0.0
C164 C 0.27251 0.46838 0.06897 0.0
H165 H 0.41079 0.89343 0.2599 0.0
H166 H 0.46746 0.88786 0.26811 0.0
H167 H 0.41927 0.8693 0.30509 0.0
C168 C 0.42007 0.88876 0.2675 0.0
C169 C 0.41242 0.88088 0.2831 0.0
C170 C 0.43997 0.89149 0.2619 0.0
C171 C 0.45226 0.88605 0.27224 0.0
C172 C 0.44473 0.87807 0.28785 0.0
C173 C 0.42498 0.87563 0.2931 0.0
N174 N 0.45631 0.8723 0.29885 0.0
C175 C 0.47564 0.87249 0.29607 0.0
H176 H 0.1112 0.51774 0.25843 0.0
H177 H 0.10757 0.57334 0.27117 0.0
H178 H 0.12672 0.54316 0.30681 0.0
C179 C 0.11313 0.52965 0.26722 0.0
C180 C 0.12012 0.52883 0.28299 0.0
C181 C 0.10839 0.54556 0.26279 0.0
C182 C 0.111 0.56092 0.2744 0.0
C183 C 0.11767 0.55997 0.29027 0.0
C184 C 0.12195 0.54388 0.29445 0.0
N185 N 0.11977 0.57452 0.30255 0.0
C186 C 0.12252 0.59448 0.29975 0.0
H187 H 0.49416 0.59054 0.2584 0.0
H188 H 0.43022 0.53693 0.26499 0.0
H189 H 0.45636 0.58794 0.29961 0.0
C190 C 0.47943 0.58233 0.26536 0.0
C191 C 0.47755 0.59158 0.27978 0.0
C192 C 0.4625 0.56261 0.25985 0.0
C193 C 0.44333 0.55213 0.26901 0.0
C194 C 0.44129 0.56133 0.28346 0.0
C195 C 0.45833 0.58091 0.28862 0.0
N196 N 0.42251 0.55181 0.29328 0.0
C197 C 0.4044 0.53186 0.29129 0.0
Tb198 Tb 0.49557 0.98902 0.99597 0.0
C199 C 0.53815 0.06281 0.04505 0.0
C200 C 0.57619 0.07411 0.0445 0.0
C201 C 0.56465 0.09944 0.05122 0.0
C202 C 0.5544 0.05829 0.04238 0.0
C203 C 0.54298 0.0833 0.04984 0.0
C204 C 0.58125 0.09484 0.04856 0.0
C205 C 0.50471 0.06985 0.05294 0.0
N206 N 0.51749 0.0467 0.04381 0.0
C207 C 0.50078 0.04975 0.04823 0.0
C208 C 0.5259 0.08677 0.05356 0.0
Tb209 Tb 0.51251 0.01442 0.03559 0.0
N210 N 0.54876 0.03802 0.03868 0.0
C211 C 0.56425 0.03224 0.03804 0.0
C212 C 0.59214 0.06847 0.04301 0.0
C213 C 0.58612 0.04738 0.03994 0.0
H214 H 0.48431 0.03687 0.04774 0.0
H215 H 0.59831 0.04275 0.03903 0.0
H216 H 0.59791 0.10727 0.05008 0.0
H217 H 0.4914 0.07227 0.05606 0.0
H218 H 0.56 0.01606 0.03565 0.0
H219 H 0.41009 0.96264 0.99324 0.0
H220 H 0.60906 0.08013 0.04463 0.0
H221 H 0.5224 0.96525 0.98384 0.0
H222 H 0.44866 0.98878 0.9957 0.0
H223 H 0.51425 0.92923 0.97623 0.0
H224 H 0.56874 0.11535 0.05476 0.0
H225 H 0.39826 0.9248 0.98876 0.0
H226 H 0.4084 0.89681 0.98356 0.0
H227 H 0.52892 0.1023 0.05728 0.0
H228 H 0.43682 0.88767 0.97884 0.0
N229 N 0.45909 0.96612 0.99309 0.0
C230 C 0.44399 0.97243 0.99368 0.0
C231 C 0.41533 0.93625 0.98982 0.0
C232 C 0.43087 0.93006 0.98823 0.0
C233 C 0.42195 0.95759 0.99231 0.0
C234 C 0.45286 0.9456 0.98983 0.0
H235 H 0.4764 0.89975 0.97583 0.0
N236 N 0.48953 0.95625 0.98813 0.0
C237 C 0.50126 0.93215 0.97937 0.0
C238 C 0.46868 0.94046 0.98725 0.0
C239 C 0.50581 0.95258 0.98365 0.0
C240 C 0.47989 0.91554 0.9792 0.0
C241 C 0.46323 0.91965 0.98292 0.0
O242 O 0.51263 0.99685 0.97392 0.0
O243 O 0.52043 0.01417 0.01042 0.0
O244 O 0.50967 0.03676 0.01958 0.0
O245 O 0.4861 0.01325 1.00003 0.0
O246 O 0.53024 0.00068 0.9933 0.0
O247 O 0.48464 0.00025 0.97673 0.0
O248 O 0.49549 0.00591 0.05766 0.0
O249 O 0.48775 0.98934 0.02109 0.0
O250 O 0.49867 0.96689 0.01207 0.0
O251 O 0.52251 0.99061 0.03139 0.0
O252 O 0.47777 0.00243 0.03831 0.0
O253 O 0.52389 0.00327 0.05458 0.0
C254 C 0.53704 0.01533 1.00414 0.0
C255 C 0.49227 0.99315 0.95031 0.0
C256 C 0.49327 0.99855 0.9209 0.0
C257 C 0.50006 0.00664 0.93675 0.0
C258 C 0.47878 0.97668 0.91896 0.0
C259 C 0.47772 0.97152 0.94797 0.0
C260 C 0.47108 0.96336 0.93238 0.0
C261 C 0.49583 0.03201 0.0074 0.0
C262 C 0.49948 0.00178 0.96679 0.0
C263 C 0.44138 0.90383 0.982 0.0
C264 C 0.4252 0.90903 0.98467 0.0
C265 C 0.47105 0.98793 0.02737 0.0
C266 C 0.51602 0.00954 0.08117 0.0
C267 C 0.50815 0.99576 0.09455 0.0
C268 C 0.51486 0.0035 0.11049 0.0
C269 C 0.52939 0.0253 0.1127 0.0
C270 C 0.53056 0.03112 0.08377 0.0
C271 C 0.53715 0.03893 0.09945 0.0
C272 C 0.51272 0.97179 0.02412 0.0
C273 C 0.50893 0.00122 0.0646 0.0
H274 H 0.51112 0.02341 0.93859 0.0
H275 H 0.47354 0.96975 0.90701 0.0
H276 H 0.47152 0.96093 0.95817 0.0
H277 H 0.45995 0.9466 0.93068 0.0
H278 H 0.49708 0.97904 0.0925 0.0
H279 H 0.53458 0.03195 0.12473 0.0
H280 H 0.53681 0.04193 0.0737 0.0
H281 H 0.5483 0.05564 0.10135 0.0
Tb282 Tb 0.01941 0.50431 0.99774 0.0
C283 C 0.94147 0.47318 0.04315 0.0
C284 C 0.93169 0.50049 0.04294 0.0
C285 C 0.90438 0.46404 0.04848 0.0
C286 C 0.94712 0.49402 0.04086 0.0
C287 C 0.92014 0.45797 0.04731 0.0
C288 C 0.91017 0.48531 0.04638 0.0
C289 C 0.93221 0.43259 0.05072 0.0
N290 N 0.95733 0.46817 0.04246 0.0
C291 C 0.95319 0.44836 0.04679 0.0
C292 C 0.91554 0.43735 0.05079 0.0
Tb293 Tb 0.99122 0.49494 0.0359 0.0
N294 N 0.96812 0.50819 0.03779 0.0
C295 C 0.97491 0.52939 0.03739 0.0
C296 C 0.93852 0.5221 0.04212 0.0
C297 C 0.96023 0.5366 0.03935 0.0
H298 H 0.96594 0.4445 0.04677 0.0
H299 H 0.96571 0.55338 0.03881 0.0
H300 H 0.89802 0.48993 0.04785 0.0
H301 H 0.92892 0.41682 0.05373 0.0
H302 H 0.9916 0.54097 0.03536 0.0
H303 H 0.04655 0.44696 0.99677 0.0
H304 H 0.92725 0.52778 0.04388 0.0
H305 H 0.04429 0.55459 0.98637 0.0
H306 H 0.01971 0.45857 0.99789 0.0
H307 H 0.08144 0.58274 0.98021 0.0
H308 H 0.88785 0.45257 0.05154 0.0
H309 H 0.08536 0.4733 0.99397 0.0
H310 H 0.11415 0.51132 0.98992 0.0
H311 H 0.89935 0.42518 0.05401 0.0
H312 H 0.12369 0.54838 0.98529 0.0
N313 N 0.04293 0.49149 0.99619 0.0
C314 C 0.03649 0.47037 0.99659 0.0
C315 C 0.07361 0.47855 0.99445 0.0
C316 C 0.07998 0.50001 0.99303 0.0
C317 C 0.05172 0.46365 0.99598 0.0
C318 C 0.06403 0.50598 0.99384 0.0
H319 H 0.11152 0.57512 0.98136 0.0
N320 N 0.05325 0.53134 0.99135 0.0
C321 C 0.07829 0.56705 0.98338 0.0
C322 C 0.0694 0.52669 0.99129 0.0
C323 C 0.05724 0.55103 0.98683 0.0
C324 C 0.09524 0.56271 0.98409 0.0
C325 C 0.09086 0.54222 0.98782 0.0
O326 O 0.01308 0.51381 0.9753 0.0
O327 O 0.99271 0.50315 0.01077 0.0
O328 O 0.96933 0.47025 0.01902 0.0
O329 O 0.99426 0.47065 1.0006 0.0
O330 O 0.00732 0.52656 0.99427 0.0
O331 O 0.0101 0.48307 0.97805 0.0
O332 O 0.99696 0.4853 0.05849 0.0
O333 O 0.01773 0.49585 0.02286 0.0
O334 O 0.04133 0.5289 0.01459 0.0
O335 O 0.01643 0.52859 0.03295 0.0
O336 O 1.00296 0.47251 0.03944 0.0
O337 O 1.00191 0.51675 0.05526 0.0
C338 C 0.99163 0.51826 0.00437 0.0
C339 C 0.01986 0.49899 0.95225 0.0
C340 C 0.01761 0.49854 0.92269 0.0
C341 C 0.00785 0.49578 0.93797 0.0
C342 C 0.03963 0.50461 0.92195 0.0
C343 C 0.04173 0.50488 0.95124 0.0
C344 C 0.05155 0.50771 0.93616 0.0
C345 C 0.97469 0.46145 0.00716 0.0
C346 C 0.00931 0.49642 0.96801 0.0
C347 C 0.10704 0.53664 0.98776 0.0
C348 C 0.10161 0.51554 0.99039 0.0
C349 C 0.01862 0.48066 0.02932 0.0
C350 C 0.99218 0.50196 0.08137 0.0
C351 C 0.00527 0.50822 0.09531 0.0
C352 C 0.99628 0.50688 0.11075 0.0
C353 C 0.97393 0.4992 0.11192 0.0
C354 C 0.97 0.49449 0.08283 0.0
C355 C 0.96094 0.49312 0.09803 0.0
C356 C 0.036 0.53772 0.02642 0.0
C357 C 1.00202 0.50324 0.0655 0.0
H358 H 0.99097 0.49137 0.93878 0.0
H359 H 0.04754 0.50662 0.91039 0.0
H360 H 0.0512 0.50727 0.96206 0.0
H361 H 0.06844 0.51224 0.93547 0.0
H362 H 0.02247 0.5143 0.09407 0.0
H363 H 0.96636 0.49755 0.12359 0.0
H364 H 0.95968 0.48967 0.07228 0.0
H365 H 0.94377 0.48721 0.09908 0.0
Tb366 Tb 0.51903 0.50246 0.03281 0.0
C367 C 0.4731 0.53414 0.98758 0.0
C368 C 0.43522 0.50792 0.98942 0.0
C369 C 0.446 0.54466 0.984 0.0
C370 C 0.45717 0.51356 0.99022 0.0
C371 C 0.46779 0.54992 0.98413 0.0
C372 C 0.42973 0.52367 0.98665 0.0
C373 C 0.50576 0.5744 0.97999 0.0
N374 N 0.49387 0.53847 0.98772 0.0
C375 C 0.51017 0.55813 0.98338 0.0
C376 C 0.48449 0.57035 0.98055 0.0
Tb377 Tb 0.49969 0.51116 0.99442 0.0
N378 N 0.46322 0.49888 0.99276 0.0
C379 C 0.44791 0.47786 0.99337 0.0
C380 C 0.41951 0.48657 0.99101 0.0
C381 C 0.4259 0.47144 0.99273 0.0
H382 H 0.52669 0.56151 0.98303 0.0
H383 H 0.41389 0.45483 0.99367 0.0
H384 H 0.41296 0.5197 0.98616 0.0
H385 H 0.51877 0.59006 0.97698 0.0
H386 H 0.45244 0.4659 0.99484 0.0
H387 H 0.60481 0.55897 0.03335 0.0
H388 H 0.40246 0.48156 0.99055 0.0
H389 H 0.49223 0.45225 0.04444 0.0
H390 H 0.56625 0.5478 0.03223 0.0
H391 H 0.50029 0.42386 0.05077 0.0
H392 H 0.44156 0.55658 0.98152 0.0
H393 H 0.61635 0.53233 0.03656 0.0
H394 H 0.60597 0.49426 0.04105 0.0
H395 H 0.48111 0.58296 0.97787 0.0
H396 H 0.57746 0.45739 0.04591 0.0
N397 N 0.55554 0.51485 0.03442 0.0
C398 C 0.57081 0.53588 0.03374 0.0
C399 C 0.59929 0.52728 0.03611 0.0
C400 C 0.58363 0.50593 0.03776 0.0
C401 C 0.59284 0.54235 0.03435 0.0
C402 C 0.56166 0.50022 0.03698 0.0
H403 H 0.53797 0.43102 0.04981 0.0
N404 N 0.52498 0.47526 0.03955 0.0
C405 C 0.51325 0.43947 0.0476 0.0
C406 C 0.54578 0.47964 0.03968 0.0
C407 C 0.50876 0.45565 0.04405 0.0
C408 C 0.53452 0.44356 0.04701 0.0
C409 C 0.55116 0.46394 0.04325 0.0
O410 O 0.50319 0.49376 0.05532 0.0
O411 O 0.49329 0.50326 0.01967 0.0
O412 O 0.50323 0.53593 0.01118 0.0
O413 O 0.52863 0.53609 0.02913 0.0
O414 O 0.48441 0.48036 0.03666 0.0
O415 O 0.53155 0.5243 0.05217 0.0
O416 O 0.51533 0.51985 0.97185 0.0
O417 O 0.52542 0.51039 0.00757 0.0
O418 O 0.51538 0.47761 0.01607 0.0
O419 O 0.49012 0.47755 0.99804 0.0
O420 O 0.5343 0.53319 0.99051 0.0
O421 O 0.48721 0.48916 0.97519 0.0
C422 C 0.47699 0.48831 0.02635 0.0
C423 C 0.52503 0.5093 0.07837 0.0
C424 C 0.52361 0.51101 0.10797 0.0
C425 C 0.51656 0.51325 0.09249 0.0
C426 C 0.53919 0.50459 0.10898 0.0
C427 C 0.54064 0.50311 0.07973 0.0
C428 C 0.54763 0.50074 0.09497 0.0
C429 C 0.51822 0.54511 0.02258 0.0
C430 C 0.51713 0.51137 0.06237 0.0
C431 C 0.57297 0.46926 0.04334 0.0
C432 C 0.58919 0.49024 0.04058 0.0
C433 C 0.54174 0.52527 1.00083 0.0
C434 C 0.49351 0.50374 0.94886 0.0
C435 C 0.50193 0.49945 0.93488 0.0
C436 C 0.49499 0.50153 0.91934 0.0
C437 C 0.47936 0.50783 0.91806 0.0
C438 C 0.47792 0.50994 0.94729 0.0
C439 C 0.47089 0.51194 0.93195 0.0
C440 C 0.50063 0.46858 0.00448 0.0
C441 C 0.50152 0.50207 0.96492 0.0
H442 H 0.50468 0.51829 0.09137 0.0
H443 H 0.54471 0.50226 0.12062 0.0
H444 H 0.54737 0.50005 0.06906 0.0
H445 H 0.5596 0.49582 0.09593 0.0
H446 H 0.51415 0.49487 0.93612 0.0
H447 H 0.47348 0.50934 0.90631 0.0
H448 H 0.47123 0.51325 0.95788 0.0
H449 H 0.45882 0.5167 0.93081 0.0
Tb450 Tb 0.16411 0.32512 0.32921 0.0
C451 C 0.20615 0.39885 0.3781 0.0
C452 C 0.24404 0.40946 0.37825 0.0
C453 C 0.23302 0.43541 0.3841 0.0
C454 C 0.2222 0.3939 0.37594 0.0
C455 C 0.21127 0.41955 0.38251 0.0
C456 C 0.2494 0.43037 0.38199 0.0
C457 C 0.17304 0.40685 0.38476 0.0
N458 N 0.1854 0.383 0.37666 0.0
C459 C 0.16882 0.38653 0.38049 0.0
C460 C 0.19435 0.42351 0.3856 0.0
Tb461 Tb 0.17999 0.3504 0.36894 0.0
N462 N 0.21627 0.37349 0.3725 0.0
C463 C 0.23147 0.36732 0.37231 0.0
C464 C 0.25972 0.4034 0.37726 0.0
C465 C 0.25339 0.38218 0.37444 0.0
H466 H 0.15226 0.37384 0.37981 0.0
H467 H 0.26536 0.37725 0.37389 0.0
H468 H 0.26611 0.4426 0.38366 0.0
H469 H 0.15984 0.40966 0.38739 0.0
H470 H 0.22697 0.35102 0.37013 0.0
H471 H 0.07926 0.30052 0.32377 0.0
H472 H 0.27667 0.41485 0.37907 0.0
H473 H 0.19051 0.30054 0.3181 0.0
H474 H 0.11779 0.32593 0.32756 0.0
H475 H 0.18191 0.26433 0.31065 0.0
H476 H 0.23733 0.45147 0.38735 0.0
H477 H 0.06685 0.26259 0.31921 0.0
H478 H 0.07631 0.23392 0.3152 0.0
H479 H 0.19759 0.43921 0.38899 0.0
H480 H 0.10434 0.224 0.31164 0.0
N481 N 0.12764 0.30275 0.32568 0.0
C482 C 0.11288 0.30951 0.32559 0.0
C483 C 0.0839 0.27369 0.32098 0.0
C484 C 0.09912 0.26699 0.32026 0.0
C485 C 0.09085 0.29509 0.32346 0.0
C486 C 0.12111 0.28214 0.32253 0.0
H487 H 0.14385 0.23534 0.3096 0.0
N488 N 0.15766 0.29211 0.32169 0.0
C489 C 0.16903 0.26754 0.31345 0.0
C490 C 0.13673 0.27659 0.32048 0.0
C491 C 0.17383 0.28807 0.31764 0.0
C492 C 0.14754 0.2512 0.31293 0.0
C493 C 0.13103 0.2557 0.31619 0.0
O494 O 0.18167 0.33236 0.3074 0.0
O495 O 0.18871 0.34998 0.344 0.0
O496 O 0.17829 0.37298 0.35255 0.0
O497 O 0.15505 0.34975 0.33272 0.0
O498 O 0.19878 0.33625 0.32734 0.0
O499 O 0.15441 0.33703 0.30966 0.0
O500 O 0.16247 0.3425 0.39078 0.0
O501 O 0.1555 0.32561 0.35409 0.0
O502 O 0.16602 0.30266 0.34571 0.0
O503 O 0.18944 0.32611 0.36534 0.0
O504 O 0.1452 0.33884 0.37092 0.0
O505 O 0.19038 0.3389 0.38833 0.0
C506 C 0.20543 0.3509 0.33816 0.0
C507 C 0.1621 0.32936 0.28346 0.0
C508 C 0.16281 0.33491 0.25408 0.0
C509 C 0.16967 0.34295 0.26994 0.0
C510 C 0.1485 0.31302 0.25209 0.0
C511 C 0.14774 0.3077 0.28106 0.0
C512 C 0.14105 0.2996 0.26546 0.0
C513 C 0.16483 0.36847 0.34015 0.0
C514 C 0.1692 0.33793 0.29998 0.0
C515 C 0.1091 0.24021 0.31476 0.0
C516 C 0.09315 0.24586 0.31679 0.0
C517 C 0.13869 0.32443 0.35992 0.0
C518 C 0.18226 0.3457 0.41467 0.0
C519 C 0.17451 0.33191 0.42806 0.0
C520 C 0.18114 0.33969 0.44401 0.0
C521 C 0.19546 0.36154 0.44621 0.0
C522 C 0.19658 0.36733 0.41727 0.0
C523 C 0.20308 0.37517 0.43296 0.0
C524 C 0.17952 0.30726 0.35811 0.0
C525 C 0.17536 0.33736 0.39807 0.0
H526 H 0.18059 0.35974 0.27181 0.0
H527 H 0.14319 0.30617 0.24013 0.0
H528 H 0.1417 0.29704 0.29122 0.0
H529 H 0.13004 0.28282 0.26372 0.0
H530 H 0.16361 0.31514 0.42601 0.0
H531 H 0.20058 0.36821 0.45824 0.0
H532 H 0.20273 0.37815 0.40721 0.0
H533 H 0.21406 0.39192 0.43486 0.0
Tb534 Tb 0.68805 0.83721 0.33061 0.0
C535 C 0.60842 0.80765 0.37381 0.0
C536 C 0.59791 0.83423 0.37063 0.0
C537 C 0.57072 0.79786 0.37659 0.0
C538 C 0.61385 0.82821 0.37054 0.0
C539 C 0.58689 0.79228 0.37725 0.0
C540 C 0.57622 0.81883 0.37327 0.0
C541 C 0.59933 0.76766 0.38309 0.0
N542 N 0.62456 0.80303 0.37447 0.0
C543 C 0.62045 0.78352 0.37964 0.0
C544 C 0.58241 0.77197 0.38169 0.0
Tb545 Tb 0.65856 0.82975 0.36804 0.0
N546 N 0.63499 0.84257 0.36823 0.0
C547 C 0.64147 0.86366 0.3672 0.0
C548 C 0.60434 0.85561 0.36857 0.0
C549 C 0.62626 0.87043 0.36711 0.0
H550 H 0.63336 0.77995 0.38066 0.0
H551 H 0.63148 0.88708 0.36583 0.0
H552 H 0.5637 0.82308 0.3732 0.0
H553 H 0.5961 0.75212 0.3868 0.0
H554 H 0.65829 0.87539 0.36595 0.0
H555 H 0.71441 0.77931 0.333 0.0
H556 H 0.5926 0.8609 0.36849 0.0
H557 H 0.71359 0.88689 0.31785 0.0
H558 H 0.68786 0.7913 0.33283 0.0
H559 H 0.75095 0.91446 0.3116 0.0
H560 H 0.55403 0.78624 0.37903 0.0
H561 H 0.75335 0.80523 0.33029 0.0
H562 H 0.7825 0.84294 0.3256 0.0
H563 H 0.56608 0.75968 0.38443 0.0
H564 H 0.7925 0.87984 0.31966 0.0
N565 N 0.71135 0.82406 0.33048 0.0
C566 C 0.7047 0.80294 0.33157 0.0
C567 C 0.74173 0.81066 0.33022 0.0
C568 C 0.74835 0.83208 0.32813 0.0
C569 C 0.71977 0.79599 0.33169 0.0
C570 C 0.73255 0.83829 0.32819 0.0
H571 H 0.78076 0.9066 0.31409 0.0
N572 N 0.72215 0.86371 0.32421 0.0
C573 C 0.74759 0.89891 0.3154 0.0
C574 C 0.73816 0.8589 0.3249 0.0
C575 C 0.72642 0.88321 0.31892 0.0
C576 C 0.76439 0.89444 0.31687 0.0
C577 C 0.75974 0.87411 0.32142 0.0
O578 O 0.68244 0.84574 0.30751 0.0
O579 O 0.66118 0.83697 0.34263 0.0
O580 O 0.6372 0.80438 0.35142 0.0
O581 O 0.66269 0.80377 0.33415 0.0
O582 O 0.67639 0.85943 0.32545 0.0
O583 O 0.67873 0.81493 0.31166 0.0
O584 O 0.66383 0.82146 0.39134 0.0
O585 O 0.68537 0.82992 0.35602 0.0
O586 O 0.70939 0.86263 0.3472 0.0
O587 O 0.68384 0.86322 0.36443 0.0
O588 O 0.67034 0.80767 0.37334 0.0
O589 O 0.6684 0.85252 0.38666 0.0
C590 C 0.6605 0.85181 0.33538 0.0
C591 C 0.68936 0.82946 0.28549 0.0
C592 C 0.68818 0.82826 0.25588 0.0
C593 C 0.6781 0.82668 0.27087 0.0
C594 C 0.7098 0.83284 0.25582 0.0
C595 C 0.71082 0.83386 0.28513 0.0
C596 C 0.72097 0.83558 0.27035 0.0
C597 C 0.64289 0.795 0.34026 0.0
C598 C 0.67847 0.82789 0.30094 0.0
C599 C 0.77577 0.86834 0.32212 0.0
C600 C 0.77008 0.84734 0.3255 0.0
C601 C 0.68615 0.81518 0.36335 0.0
C602 C 0.65801 0.83902 0.41308 0.0
C603 C 0.67027 0.84431 0.42741 0.0
C604 C 0.66082 0.84379 0.44249 0.0
C605 C 0.63883 0.83789 0.44292 0.0
C606 C 0.63615 0.83325 0.41377 0.0
C607 C 0.62664 0.83269 0.42865 0.0
C608 C 0.70368 0.87198 0.35838 0.0
C609 C 0.6684 0.83967 0.39759 0.0
H610 H 0.66141 0.82299 0.27122 0.0
H611 H 0.71817 0.83451 0.24452 0.0
H612 H 0.71971 0.83594 0.29621 0.0
H613 H 0.73758 0.83909 0.27015 0.0
H614 H 0.68725 0.84905 0.42676 0.0
H615 H 0.63094 0.83699 0.45432 0.0
H616 H 0.62647 0.8292 0.40289 0.0
H617 H 0.60972 0.82813 0.42912 0.0
Tb618 Tb 0.18476 0.83484 0.36746 0.0
C619 C 0.14376 0.87079 0.32106 0.0
C620 C 0.1056 0.84519 0.321 0.0
C621 C 0.1177 0.88232 0.31604 0.0
C622 C 0.12728 0.85028 0.32297 0.0
C623 C 0.13928 0.88705 0.31727 0.0
C624 C 0.10087 0.86139 0.31789 0.0
C625 C 0.17767 0.91093 0.31487 0.0
N626 N 0.16432 0.87457 0.32214 0.0
C627 C 0.18127 0.89421 0.31855 0.0
C628 C 0.15659 0.9074 0.3144 0.0
Tb629 Tb 0.1687 0.84638 0.32878 0.0
N630 N 0.13259 0.83512 0.32578 0.0
C631 C 0.11688 0.81421 0.32563 0.0
C632 C 0.08942 0.82391 0.32168 0.0
C633 C 0.09511 0.80834 0.32383 0.0
H634 H 0.19765 0.89721 0.31895 0.0
H635 H 0.08274 0.79179 0.32412 0.0
H636 H 0.08431 0.85783 0.3165 0.0
H637 H 0.19117 0.92653 0.3124 0.0
H638 H 0.12089 0.80191 0.32731 0.0
H639 H 0.27014 0.89153 0.37306 0.0
H640 H 0.07257 0.81933 0.32015 0.0
H641 H 0.15723 0.78382 0.37672 0.0
H642 H 0.23183 0.88028 0.36948 0.0
H643 H 0.16492 0.75507 0.38263 0.0
H644 H 0.11388 0.89461 0.31326 0.0
H645 H 0.28154 0.86488 0.37668 0.0
H646 H 0.2711 0.82653 0.37936 0.0
H647 H 0.15384 0.92035 0.31147 0.0
H648 H 0.2424 0.78925 0.38181 0.0
N649 N 0.22111 0.84721 0.37054 0.0
C650 C 0.23631 0.8683 0.37099 0.0
C651 C 0.26458 0.85975 0.37496 0.0
C652 C 0.24895 0.83825 0.37514 0.0
C653 C 0.2582 0.87484 0.37301 0.0
C654 C 0.22709 0.83247 0.37303 0.0
H655 H 0.20269 0.76246 0.3833 0.0
N656 N 0.19029 0.8072 0.3735 0.0
C657 C 0.17807 0.77091 0.3803 0.0
C658 C 0.21108 0.81166 0.37451 0.0
C659 C 0.17378 0.78728 0.37699 0.0
C660 C 0.1994 0.77512 0.38062 0.0
C661 C 0.21627 0.79579 0.378 0.0
O662 O 0.16717 0.82447 0.38916 0.0
O663 O 0.16019 0.83698 0.35365 0.0
O664 O 0.1714 0.8704 0.34599 0.0
O665 O 0.19468 0.86869 0.36503 0.0
O666 O 0.14992 0.81263 0.36954 0.0
O667 O 0.19584 0.85509 0.38785 0.0
O668 O 0.1854 0.85588 0.30663 0.0
O669 O 0.1932 0.84443 0.34273 0.0
O670 O 0.18227 0.81115 0.35001 0.0
O671 O 0.15827 0.81243 0.33147 0.0
O672 O 0.2037 0.86811 0.32638 0.0
O673 O 0.1573 0.82499 0.30914 0.0
C674 C 0.14336 0.82155 0.3594 0.0
C675 C 0.18704 0.83808 0.41334 0.0
C676 C 0.18505 0.83995 0.4429 0.0
C677 C 0.17974 0.84379 0.42725 0.0
C678 C 0.19777 0.83021 0.44425 0.0
C679 C 0.1999 0.82868 0.41505 0.0
C680 C 0.2052 0.82476 0.43043 0.0
C681 C 0.18519 0.87847 0.35826 0.0
C682 C 0.18056 0.84146 0.39717 0.0
C683 C 0.23805 0.80123 0.37928 0.0
C684 C 0.25438 0.82245 0.37789 0.0
C685 C 0.21015 0.85951 0.33688 0.0
C686 C 0.1645 0.84022 0.28308 0.0
C687 C 0.17216 0.83467 0.26929 0.0
C688 C 0.16503 0.83616 0.25365 0.0
C689 C 0.15021 0.84345 0.2521 0.0
C690 C 0.14971 0.84738 0.28121 0.0
C691 C 0.14264 0.849 0.26579 0.0
C692 C 0.16818 0.80288 0.33793 0.0
C693 C 0.17199 0.83827 0.29928 0.0
H694 H 0.17009 0.85137 0.42583 0.0
H695 H 0.2018 0.8265 0.45599 0.0
H696 H 0.20571 0.82424 0.40455 0.0
H697 H 0.21497 0.81731 0.43166 0.0
H698 H 0.18342 0.82891 0.27079 0.0
H699 H 0.14464 0.84513 0.24027 0.0
H700 H 0.14361 0.85168 0.29163 0.0
H701 H 0.13128 0.85461 0.26443 0.0
Tb702 Tb 0.82975 0.65829 0.66244 0.0
C703 C 0.87064 0.73258 0.71111 0.0
C704 C 0.90869 0.74385 0.71142 0.0
C705 C 0.89699 0.76928 0.71723 0.0
C706 C 0.88697 0.728 0.70905 0.0
C707 C 0.87535 0.75314 0.71558 0.0
C708 C 0.91365 0.76463 0.71515 0.0
C709 C 0.837 0.73974 0.71791 0.0
N710 N 0.85001 0.71646 0.70963 0.0
C711 C 0.83319 0.71958 0.71354 0.0
C712 C 0.85818 0.75667 0.71875 0.0
Tb713 Tb 0.84528 0.68407 0.70201 0.0
N714 N 0.88142 0.70769 0.70565 0.0
C715 C 0.89692 0.70188 0.70558 0.0
C716 C 0.92467 0.73817 0.7105 0.0
C717 C 0.91873 0.71704 0.70775 0.0
H718 H 0.81674 0.7067 0.7129 0.0
H719 H 0.93093 0.71239 0.70728 0.0
H720 H 0.93026 0.77708 0.71686 0.0
H721 H 0.82361 0.74221 0.72063 0.0
H722 H 0.8927 0.68566 0.70343 0.0
H723 H 0.74492 0.63341 0.65615 0.0
H724 H 0.94154 0.74985 0.71232 0.0
H725 H 0.85638 0.63358 0.65231 0.0
H726 H 0.7834 0.65897 0.66004 0.0
H727 H 0.84794 0.5972 0.6456 0.0
H728 H 0.90098 0.78525 0.72051 0.0
H729 H 0.73264 0.59542 0.65215 0.0
H730 H 0.74223 0.56673 0.64889 0.0
H731 H 0.86109 0.77224 0.72221 0.0
H732 H 0.77035 0.5568 0.64605 0.0
N733 N 0.79333 0.63581 0.65876 0.0
C734 C 0.77854 0.64252 0.65832 0.0
C735 C 0.74967 0.60658 0.65396 0.0
C736 C 0.76493 0.59992 0.65362 0.0
C737 C 0.75655 0.62802 0.65613 0.0
C738 C 0.78689 0.61516 0.65592 0.0
H739 H 0.8099 0.56815 0.64452 0.0
N740 N 0.82347 0.62517 0.65548 0.0
C741 C 0.835 0.60046 0.64806 0.0
C742 C 0.80256 0.60961 0.65424 0.0
C743 C 0.83972 0.62108 0.65182 0.0
C744 C 0.81352 0.58409 0.64752 0.0
C745 C 0.79695 0.58862 0.65034 0.0
O746 O 0.84735 0.66502 0.64069 0.0
O747 O 0.85418 0.68348 0.67712 0.0
O748 O 0.84321 0.70637 0.68551 0.0
O749 O 0.82054 0.68287 0.66554 0.0
O750 O 0.86447 0.66966 0.66067 0.0
O751 O 0.82019 0.66992 0.64263 0.0
O752 O 0.82718 0.67521 0.72357 0.0
O753 O 0.82098 0.65901 0.68722 0.0
O754 O 0.83163 0.6362 0.67934 0.0
O755 O 0.85523 0.66009 0.69864 0.0
O756 O 0.81044 0.67229 0.70383 0.0
O757 O 0.85637 0.67374 0.72178 0.0
C758 C 0.87097 0.68447 0.67136 0.0
C759 C 0.82789 0.66173 0.61662 0.0
C760 C 0.8287 0.66685 0.58718 0.0
C761 C 0.83545 0.67513 0.603 0.0
C762 C 0.81448 0.64491 0.58535 0.0
C763 C 0.81363 0.64002 0.61439 0.0
C764 C 0.80702 0.63169 0.59884 0.0
C765 C 0.82995 0.70162 0.67294 0.0
C766 C 0.83497 0.67056 0.63308 0.0
C767 C 0.77505 0.57308 0.64888 0.0
C768 C 0.75904 0.57873 0.6505 0.0
C769 C 0.80408 0.65781 0.6929 0.0
C770 C 0.84669 0.67989 0.74782 0.0
C771 C 0.84002 0.66613 0.76124 0.0
C772 C 0.84516 0.67426 0.77724 0.0
C773 C 0.85695 0.69643 0.7794 0.0
C774 C 0.85866 0.70181 0.75041 0.0
C775 C 0.8637 0.71 0.76611 0.0
C776 C 0.84538 0.64113 0.6916 0.0
C777 C 0.8407 0.67123 0.73122 0.0
H778 H 0.8463 0.69196 0.60475 0.0
H779 H 0.80928 0.63786 0.57344 0.0
H780 H 0.80762 0.62951 0.62464 0.0
H781 H 0.7961 0.61487 0.59722 0.0
H782 H 0.83101 0.64917 0.75917 0.0
H783 H 0.86075 0.7034 0.79142 0.0
H784 H 0.86398 0.71262 0.74033 0.0
H785 H 0.87277 0.72697 0.768 0.0
Tb786 Tb 0.35539 0.17373 0.66353 0.0
C787 C 0.27668 0.13964 0.7084 0.0
C788 C 0.26499 0.16553 0.70736 0.0
C789 C 0.23889 0.12863 0.71273 0.0
C790 C 0.28135 0.16017 0.70598 0.0
C791 C 0.2555 0.12365 0.71214 0.0
C792 C 0.24364 0.14956 0.71035 0.0
C793 C 0.26918 0.0996 0.71584 0.0
N794 N 0.29326 0.13563 0.70797 0.0
C795 C 0.28994 0.11606 0.71218 0.0
C796 C 0.25182 0.10334 0.71564 0.0
Tb797 Tb 0.32664 0.16345 0.70148 0.0
N798 N 0.30222 0.1751 0.70332 0.0
C799 C 0.30803 0.19607 0.70306 0.0
C800 C 0.27073 0.18684 0.70625 0.0
C801 C 0.2924 0.2022 0.70429 0.0
H802 H 0.30316 0.1129 0.7123 0.0
H803 H 0.29709 0.21879 0.7037 0.0
H804 H 0.2308 0.15333 0.71128 0.0
H805 H 0.26658 0.08404 0.71881 0.0
H806 H 0.32466 0.2082 0.70152 0.0
H807 H 0.37977 0.11446 0.65989 0.0
H808 H 0.25867 0.19163 0.70732 0.0
H809 H 0.3818 0.22461 0.65397 0.0
H810 H 0.35414 0.12723 0.66311 0.0
H811 H 0.41938 0.25229 0.6484 0.0
H812 H 0.22246 0.11655 0.71544 0.0
H813 H 0.41855 0.13985 0.65597 0.0
H814 H 0.44841 0.17771 0.65346 0.0
H815 H 0.23578 0.0906 0.71856 0.0
H816 H 0.45933 0.2154 0.65073 0.0
N817 N 0.37808 0.16 0.66168 0.0
C818 C 0.37098 0.13872 0.66161 0.0
C819 C 0.40742 0.1457 0.65771 0.0
C820 C 0.4146 0.1674 0.65745 0.0
C821 C 0.38551 0.13131 0.65979 0.0
C822 C 0.39931 0.17409 0.65932 0.0
H823 H 0.44856 0.24337 0.64862 0.0
N824 N 0.38974 0.20044 0.65805 0.0
C825 C 0.41569 0.23628 0.65103 0.0
C826 C 0.4054 0.19513 0.65758 0.0
C827 C 0.39441 0.22055 0.65415 0.0
C828 C 0.43213 0.23121 0.65123 0.0
C829 C 0.42702 0.21031 0.65418 0.0
O830 O 0.35055 0.18471 0.64123 0.0
O831 O 0.32843 0.17228 0.67639 0.0
O832 O 0.30486 0.13906 0.68441 0.0
O833 O 0.32978 0.14009 0.66569 0.0
O834 O 0.34371 0.19627 0.6603 0.0
O835 O 0.3459 0.15325 0.64334 0.0
O836 O 0.33277 0.15437 0.7242 0.0
O837 O 0.35342 0.16479 0.68848 0.0
O838 O 0.37679 0.19774 0.681 0.0
O839 O 0.35123 0.19732 0.6987 0.0
O840 O 0.33909 0.14149 0.705 0.0
O841 O 0.33659 0.18534 0.72074 0.0
C842 C 0.32771 0.18768 0.67012 0.0
C843 C 0.3571 0.17008 0.61794 0.0
C844 C 0.35553 0.16942 0.58832 0.0
C845 C 0.34536 0.16655 0.60347 0.0
C846 C 0.3777 0.17599 0.58797 0.0
C847 C 0.37909 0.17637 0.61727 0.0
C848 C 0.38932 0.17935 0.60236 0.0
C849 C 0.31025 0.13065 0.67231 0.0
C850 C 0.34617 0.16738 0.63356 0.0
C851 C 0.44259 0.20397 0.65321 0.0
C852 C 0.43637 0.18251 0.65476 0.0
C853 C 0.35467 0.14974 0.69482 0.0
C854 C 0.327 0.17066 0.74689 0.0
C855 C 0.33976 0.17645 0.761 0.0
C856 C 0.33052 0.17526 0.77631 0.0
C857 C 0.30826 0.16813 0.7772 0.0
C858 C 0.30489 0.16367 0.74807 0.0
C859 C 0.29559 0.1624 0.76316 0.0
C860 C 0.37105 0.20652 0.6926 0.0
C861 C 0.33714 0.17218 0.7311 0.0
H862 H 0.32827 0.16133 0.60406 0.0
H863 H 0.38616 0.17875 0.57659 0.0
H864 H 0.38836 0.17902 0.6282 0.0
H865 H 0.40635 0.18436 0.60195 0.0
H866 H 0.35692 0.18213 0.76001 0.0
H867 H 0.30055 0.16668 0.78878 0.0
H868 H 0.29483 0.15921 0.73738 0.0
H869 H 0.27847 0.1569 0.76398 0.0
Tb870 Tb 0.85076 0.1695 0.69895 0.0
C871 C 0.80853 0.20329 0.65135 0.0
C872 C 0.77049 0.17726 0.65118 0.0
C873 C 0.78213 0.21404 0.64513 0.0
C874 C 0.79222 0.18277 0.65365 0.0
C875 C 0.80378 0.21914 0.64677 0.0
C876 C 0.76549 0.19309 0.64729 0.0
C877 C 0.84209 0.24326 0.64418 0.0
N878 N 0.82917 0.20739 0.65267 0.0
C879 C 0.84595 0.22692 0.64861 0.0
C880 C 0.82091 0.23943 0.64344 0.0
Tb881 Tb 0.834 0.17971 0.66011 0.0
N882 N 0.79778 0.16796 0.6572 0.0
C883 C 0.78225 0.14699 0.65758 0.0
C884 C 0.75455 0.15593 0.65207 0.0
C885 C 0.76047 0.14072 0.65524 0.0
H886 H 0.8624 0.23014 0.64917 0.0
H887 H 0.74828 0.12412 0.65578 0.0
H888 H 0.74888 0.1892 0.64552 0.0
H889 H 0.85546 0.25879 0.64134 0.0
H890 H 0.78642 0.13493 0.65992 0.0
H891 H 0.93645 0.22608 0.70216 0.0
H892 H 0.73774 0.15099 0.64988 0.0
H893 H 0.8234 0.11893 0.70956 0.0
H894 H 0.89797 0.21494 0.69993 0.0
H895 H 0.83116 0.09035 0.71598 0.0
H896 H 0.77811 0.22601 0.64174 0.0
H897 H 0.94785 0.19937 0.70559 0.0
H898 H 0.93728 0.16118 0.70965 0.0
H899 H 0.81796 0.25207 0.6399 0.0
H900 H 0.90857 0.12415 0.71352 0.0
N901 N 0.88717 0.18191 0.70166 0.0
C902 C 0.90246 0.20297 0.7015 0.0
C903 C 0.93082 0.19432 0.70464 0.0
C904 C 0.91509 0.17292 0.70577 0.0
C905 C 0.92444 0.20943 0.70275 0.0
C906 C 0.89317 0.16721 0.70434 0.0
H907 H 0.86889 0.09761 0.71615 0.0
N908 N 0.85639 0.14211 0.70571 0.0
C909 C 0.84427 0.10608 0.71326 0.0
C910 C 0.87717 0.14653 0.70647 0.0
C911 C 0.83994 0.12235 0.70966 0.0
C912 C 0.86558 0.11022 0.7133 0.0
C913 C 0.8824 0.13074 0.71013 0.0
O914 O 0.8337 0.15988 0.72093 0.0
O915 O 0.82589 0.17121 0.68516 0.0
O916 O 0.83709 0.20446 0.67677 0.0
O917 O 0.86058 0.20322 0.69588 0.0
O918 O 0.81597 0.14733 0.70142 0.0
O919 O 0.8622 0.19053 0.71883 0.0
O920 O 0.85063 0.18852 0.6379 0.0
O921 O 0.85883 0.17824 0.674 0.0
O922 O 0.84798 0.14517 0.68204 0.0
O923 O 0.82375 0.14591 0.66344 0.0
O924 O 0.86884 0.20163 0.65738 0.0
O925 O 0.82245 0.15779 0.6408 0.0
C926 C 0.80916 0.15596 0.69121 0.0
C927 C 0.85417 0.17463 0.74472 0.0
C928 C 0.85121 0.1757 0.77422 0.0
C929 C 0.84515 0.17851 0.75855 0.0
C930 C 0.8665 0.169 0.77578 0.0
C931 C 0.86942 0.16805 0.74659 0.0
C932 C 0.87552 0.16525 0.76205 0.0
C933 C 0.85098 0.21282 0.68897 0.0
C934 C 0.84721 0.17723 0.7285 0.0
C935 C 0.90419 0.13608 0.71088 0.0
C936 C 0.92053 0.15716 0.70868 0.0
C937 C 0.8756 0.1933 0.66787 0.0
C938 C 0.82974 0.1723 0.61447 0.0
C939 C 0.83781 0.16686 0.60086 0.0
C940 C 0.83089 0.16815 0.58509 0.0
C941 C 0.81582 0.1751 0.58324 0.0
C942 C 0.81469 0.17908 0.6123 0.0
C943 C 0.80781 0.18049 0.59675 0.0
C944 C 0.83377 0.13656 0.67008 0.0
C945 C 0.83716 0.17074 0.6308 0.0
H946 H 0.83322 0.18343 0.75707 0.0
H947 H 0.87177 0.16698 0.78762 0.0
H948 H 0.8766 0.16508 0.73615 0.0
H949 H 0.88735 0.1602 0.76341 0.0
H950 H 0.84925 0.16138 0.60261 0.0
H951 H 0.81042 0.17667 0.57132 0.0
H952 H 0.80825 0.18326 0.62257 0.0
H953 H 0.79626 0.18584 0.59516 0.0
H954 H 0.2848 0.8554 0.0815 0.0
H955 H 0.31847 0.88387 0.07009 0.0
H956 H 0.33802 0.83849 0.05739 0.0
H957 H 0.30456 0.81001 0.06893 0.0
H958 H 0.37047 0.87639 0.0736 0.0
H959 H 0.33349 0.8939 0.02089 0.0
H960 H 0.32168 0.89329 0.04024 0.0
H961 H 0.31955 0.86944 0.03208 0.0
C962 C 0.29634 0.85152 0.07638 0.0
C963 C 0.29197 0.83043 0.07606 0.0
C964 C 0.31545 0.86775 0.06972 0.0
C965 C 0.33057 0.86323 0.06267 0.0
C966 C 0.32647 0.84229 0.06263 0.0
H967 H 0.46149 0.94637 0.02571 0.0
H968 H 0.42704 0.91489 0.03235 0.0
C969 C 0.30732 0.82604 0.06918 0.0
C970 C 0.35091 0.8804 0.05567 0.0
H971 H 0.37074 0.9176 0.02576 0.0
C972 C 0.37059 0.88532 0.06307 0.0
C973 C 0.35097 0.89198 0.04193 0.0
C974 C 0.33033 0.88685 0.03319 0.0
C975 C 0.3903 0.90202 0.05744 0.0
C976 C 0.39038 0.91375 0.04376 0.0
C977 C 0.37069 0.90856 0.0362 0.0
C978 C 0.41055 0.93231 0.03778 0.0
C979 C 0.41075 0.90745 0.06662 0.0
C980 C 0.41245 0.95243 0.03782 0.0
C981 C 0.43197 0.97034 0.03369 0.0
C982 C 0.44989 0.96847 0.02922 0.0
C983 C 0.44784 0.94827 0.02873 0.0
C984 C 0.42823 0.9303 0.03277 0.0
H985 H 0.4073 0.90042 0.07893 0.0
H986 H 0.41976 0.90111 0.05991 0.0
H987 H 0.42133 0.92487 0.06781 0.0
H988 H 0.39905 0.95439 0.04162 0.0
H989 H 0.43324 0.98578 0.03435 0.0
H990 H 0.15595 0.42954 0.08132 0.0
H991 H 0.12645 0.43437 0.07126 0.0
H992 H 0.17251 0.49777 0.05621 0.0
H993 H 0.2021 0.49298 0.06612 0.0
H994 H 0.1139 0.46202 0.08027 0.0
H995 H 0.13692 0.47522 0.01546 0.0
H996 H 0.14914 0.46548 0.02966 0.0
H997 H 0.15793 0.49331 0.02887 0.0
C998 C 0.15983 0.44454 0.0759 0.0
C999 C 0.18147 0.46083 0.07448 0.0
C1000 C 0.14292 0.44725 0.07007 0.0
C1001 C 0.14718 0.4663 0.06266 0.0
C1002 C 0.16875 0.4827 0.06142 0.0
H1003 H 0.06132 0.51252 0.02964 0.0
H1004 H 0.09293 0.50941 0.03698 0.0
C1005 C 0.18569 0.47996 0.06717 0.0
C1006 C 0.12898 0.46918 0.05682 0.0
H1007 H 0.10851 0.48128 0.02352 0.0
C1008 C 0.11272 0.46614 0.06784 0.0
C1009 C 0.12737 0.47464 0.04059 0.0
C1010 C 0.14365 0.47716 0.02791 0.0
C1011 C 0.09512 0.46853 0.06316 0.0
C1012 C 0.0935 0.47391 0.04696 0.0
C1013 C 0.1098 0.47719 0.03594 0.0
C1014 C 0.07465 0.47564 0.04125 0.0
C1015 C 0.07845 0.4655 0.07565 0.0
C1016 C 0.05393 0.45766 0.04085 0.0
C1017 C 0.03594 0.45938 0.03647 0.0
C1018 C 0.03827 0.47906 0.03217 0.0
C1019 C 0.05905 0.49705 0.03242 0.0
C1020 C 0.07711 0.49531 0.03673 0.0
H1021 H 0.08443 0.46615 0.0882 0.0
H1022 H 0.07366 0.47777 0.07439 0.0
H1023 H 0.0638 0.44977 0.0738 0.0
H1024 H 0.05165 0.4423 0.04416 0.0
H1025 H 0.02009 0.44531 0.03659 0.0
H1026 H 0.54342 0.71533 0.09213 0.0
H1027 H 0.5337 0.67978 0.08252 0.0
H1028 H 0.58081 0.70728 0.04435 0.0
H1029 H 0.5899 0.74277 0.05356 0.0
H1030 H 0.54479 0.6759 0.03281 0.0
H1031 H 0.56591 0.64873 0.08894 0.0
H1032 H 0.54615 0.65659 0.09242 0.0
H1033 H 0.57292 0.67593 0.08599 0.0
C1034 C 0.55175 0.71371 0.08176 0.0
C1035 C 0.56742 0.73171 0.07359 0.0
C1036 C 0.5463 0.69343 0.07633 0.0
C1037 C 0.55683 0.69083 0.0629 0.0
C1038 C 0.5725 0.70887 0.05476 0.0
H1039 H 0.55497 0.57424 0.03819 0.0
H1040 H 0.56424 0.60972 0.04724 0.0
C1041 C 0.57769 0.72911 0.06001 0.0
C1042 C 0.55118 0.66938 0.05702 0.0
H1043 H 0.54641 0.62239 0.06885 0.0
C1044 C 0.54525 0.66423 0.04067 0.0
C1045 C 0.55209 0.65425 0.06721 0.0
C1046 C 0.55983 0.65921 0.08456 0.0
C1047 C 0.54009 0.64438 0.03426 0.0
C1048 C 0.54011 0.62894 0.04463 0.0
C1049 C 0.54617 0.63414 0.06094 0.0
C1050 C 0.53445 0.60748 0.03876 0.0
C1051 C 0.53528 0.64043 0.01636 0.0
C1052 C 0.51455 0.59431 0.03108 0.0
C1053 C 0.50936 0.57412 0.02565 0.0
C1054 C 0.52379 0.56655 0.02813 0.0
C1055 C 0.54351 0.57959 0.03609 0.0
C1056 C 0.54882 0.59989 0.04129 0.0
H1057 H 0.54244 0.6555 0.00948 0.0
H1058 H 0.54157 0.63043 0.01128 0.0
H1059 H 0.51754 0.63213 0.01441 0.0
H1060 H 0.5029 0.59953 0.02942 0.0
H1061 H 0.4939 0.56432 0.01975 0.0
H1062 H 0.82822 0.26827 0.97719 0.0
H1063 H 0.85613 0.30298 0.98688 0.0
H1064 H 0.86018 0.32895 0.93929 0.0
H1065 H 0.83139 0.2945 0.92969 0.0
H1066 H 0.89729 0.32769 0.97814 0.0
H1067 H 0.85233 0.37023 0.96698 0.0
H1068 H 0.83962 0.34176 0.96588 0.0
H1069 H 0.85529 0.35778 0.94914 0.0
C1070 C 0.83476 0.28141 0.96881 0.0
C1071 C 0.82728 0.27856 0.95269 0.0
C1072 C 0.8509 0.30124 0.97435 0.0
C1073 C 0.86 0.31872 0.96392 0.0
C1074 C 0.85305 0.31584 0.94769 0.0
H1075 H 0.97987 0.43635 0.98486 0.0
H1076 H 0.95238 0.40198 0.97424 0.0
C1077 C 0.83677 0.29603 0.94216 0.0
C1078 C 0.87689 0.33982 0.97006 0.0
H1079 H 0.88924 0.39132 0.9745 0.0
C1080 C 0.89551 0.3416 0.97736 0.0
C1081 C 0.87444 0.35792 0.96929 0.0
C1082 C 0.85426 0.35685 0.96255 0.0
C1083 C 0.91179 0.36095 0.9838 0.0
C1084 C 0.90967 0.37921 0.98252 0.0
C1085 C 0.89097 0.37739 0.97534 0.0
C1086 C 0.92644 0.40025 0.98885 0.0
C1087 C 0.93079 0.36146 0.99227 0.0
C1088 C 0.92091 0.41115 1.00018 0.0
C1089 C 0.93653 0.43101 0.00609 0.0
C1090 C 0.95809 0.44038 1.00087 0.0
C1091 C 0.96351 0.42955 0.98933 0.0
C1092 C 0.94783 0.40977 0.98332 0.0
H1093 H 0.92695 0.34544 0.99636 0.0
H1094 H 0.94453 0.36727 0.98373 0.0
H1095 H 0.93601 0.37223 1.00295 0.0
H1096 H 0.90447 0.40425 0.00452 0.0
H1097 H 0.9316 0.43905 0.01465 0.0
H1098 H 0.73104 0.57529 0.94933 0.0
H1099 H 0.69709 0.57116 0.95971 0.0
H1100 H 0.67576 0.50612 0.97167 0.0
H1101 H 0.70961 0.5101 0.96132 0.0
H1102 H 0.65569 0.54464 0.94979 0.0
H1103 H 0.66453 0.52741 0.01387 0.0
H1104 H 0.68671 0.53764 0.99978 0.0
H1105 H 0.66673 0.50993 0.99962 0.0
C1106 C 0.71911 0.56007 0.95411 0.0
C1107 C 0.72321 0.54307 0.95454 0.0
C1108 C 0.69972 0.55776 0.96014 0.0
C1109 C 0.68394 0.53845 0.96679 0.0
C1110 C 0.68786 0.52137 0.96705 0.0
H1111 H 0.55199 0.49341 1.00096 0.0
H1112 H 0.58664 0.4964 0.99349 0.0
C1113 C 0.70727 0.52367 0.96107 0.0
C1114 C 0.66311 0.53598 0.97284 0.0
H1115 H 0.63039 0.52292 0.00613 0.0
C1116 C 0.65026 0.53999 0.96214 0.0
C1117 C 0.65585 0.5298 0.98895 0.0
C1118 C 0.66925 0.52613 1.00128 0.0
C1119 C 0.63038 0.5378 0.96699 0.0
C1120 C 0.6232 0.53174 0.98309 0.0
C1121 C 0.6359 0.52755 0.99379 0.0
C1122 C 0.60273 0.53012 0.98901 0.0
C1123 C 0.61704 0.54167 0.95473 0.0
C1124 C 0.60038 0.54814 0.98941 0.0
C1125 C 0.5807 0.54648 0.99382 0.0
C1126 C 0.56302 0.52685 0.9982 0.0
C1127 C 0.56546 0.50885 0.99809 0.0
C1128 C 0.58523 0.51052 0.99371 0.0
H1129 H 0.62203 0.54096 0.94211 0.0
H1130 H 0.59961 0.52989 0.95601 0.0
H1131 H 0.61919 0.55768 0.95677 0.0
H1132 H 0.61371 0.56347 0.98604 0.0
H1133 H 0.57919 0.56055 0.99362 0.0
H1134 H 0.44266 0.17396 0.97936 0.0
H1135 H 0.45009 0.1466 0.98902 0.0
H1136 H 0.47316 0.14267 0.94162 0.0
H1137 H 0.46676 0.17082 0.93205 0.0
H1138 H 0.43478 0.10604 0.97971 0.0
H1139 H 0.52338 0.15231 0.97034 0.0
H1140 H 0.50641 0.16409 0.96916 0.0
H1141 H 0.50798 0.14922 0.95229 0.0
C1142 C 0.44953 0.16745 0.97102 0.0
C1143 C 0.45441 0.17482 0.95499 0.0
C1144 C 0.45361 0.15169 0.97653 0.0
C1145 C 0.4626 0.14291 0.96614 0.0
C1146 C 0.46671 0.1496 0.94996 0.0
H1147 H 0.46594 0.02746 0.98458 0.0
H1148 H 0.45788 0.05429 0.97486 0.0
C1149 C 0.46276 0.16549 0.94444 0.0
C1150 C 0.46765 0.12678 0.97235 0.0
H1151 H 0.50873 0.11619 0.97754 0.0
C1152 C 0.45095 0.10827 0.97926 0.0
C1153 C 0.48885 0.1299 0.97203 0.0
C1154 C 0.50774 0.15004 0.96571 0.0
C1155 C 0.45481 0.09264 0.98569 0.0
C1156 C 0.47584 0.09539 0.98479 0.0
C1157 C 0.49259 0.11403 0.97808 0.0
C1158 C 0.48081 0.07911 0.99074 0.0
C1159 C 0.43641 0.07358 0.99366 0.0
C1160 C 0.49692 0.08431 1.00253 0.0
C1161 C 0.50186 0.06905 0.00795 0.0
C1162 C 0.49069 0.04827 1.00175 0.0
C1163 C 0.47473 0.04321 0.98979 0.0
C1164 C 0.46995 0.05851 0.98428 0.0
H1165 H 0.42352 0.07686 0.99764 0.0
H1166 H 0.42914 0.06027 0.98483 0.0
H1167 H 0.44211 0.06846 0.00434 0.0
H1168 H 0.50568 0.10019 0.00755 0.0
H1169 H 0.51455 0.07364 0.0169 0.0
H1170 H 0.72936 0.1538 0.96002 0.0
H1171 H 0.69415 0.12288 0.96661 0.0
H1172 H 0.6671 0.16382 0.97243 0.0
H1173 H 0.70205 0.19449 0.9655 0.0
H1174 H 0.67334 0.1164 0.99517 0.0
H1175 H 0.62035 0.11642 0.94607 0.0
H1176 H 0.64943 0.13165 0.94493 0.0
H1177 H 0.63479 0.14148 0.95632 0.0
C1178 C 0.71565 0.15599 0.96222 0.0
C1179 C 0.71812 0.17631 0.96199 0.0
C1180 C 0.69563 0.1384 0.9661 0.0
C1181 C 0.67784 0.14094 0.96982 0.0
C1182 C 0.68034 0.16132 0.9692 0.0
H1183 H 0.54736 0.05711 0.00553 0.0
H1184 H 0.58219 0.08818 0.99878 0.0
C1185 C 0.7003 0.17884 0.96527 0.0
C1186 C 0.65727 0.12267 0.97565 0.0
H1187 H 0.60272 0.09497 0.96903 0.0
C1188 C 0.65792 0.11163 0.98937 0.0
C1189 C 0.6371 0.1165 0.96818 0.0
C1190 C 0.63534 0.12699 0.95297 0.0
C1191 C 0.639 0.09483 0.99594 0.0
C1192 C 0.61884 0.08873 0.98851 0.0
C1193 C 0.61815 0.09979 0.97482 0.0
C1194 C 0.59838 0.07027 0.99422 0.0
C1195 C 0.6408 0.084 0.01092 0.0
C1196 C 0.59592 0.04992 0.99406 0.0
C1197 C 0.57615 0.03225 0.99807 0.0
C1198 C 0.55843 0.03454 1.00238 0.0
C1199 C 0.56089 0.05492 1.00272 0.0
C1200 C 0.58073 0.07265 0.99871 0.0
H1201 H 0.65571 0.09447 0.01794 0.0
H1202 H 0.62665 0.07898 0.01892 0.0
H1203 H 0.64149 0.06968 0.00727 0.0
H1204 H 0.6091 0.04759 0.99028 0.0
H1205 H 0.57451 0.01666 0.9974 0.0
H1206 H 0.83241 0.55239 0.98339 0.0
H1207 H 0.86476 0.55036 0.9903 0.0
H1208 H 0.8553 0.51245 0.94753 0.0
H1209 H 0.82286 0.51454 0.94061 0.0
H1210 H 0.86443 0.51181 0.99609 0.0
H1211 H 0.92061 0.55748 0.94636 0.0
H1212 H 0.89731 0.55988 0.9513 0.0
H1213 H 0.89401 0.53717 0.94026 0.0
C1214 C 0.83758 0.54408 0.97527 0.0
C1215 C 0.82544 0.5339 0.96136 0.0
C1216 C 0.85596 0.5428 0.97927 0.0
C1217 C 0.86261 0.53139 0.96939 0.0
C1218 C 0.85074 0.52164 0.95521 0.0
H1219 H 0.94935 0.4857 1.00308 0.0
H1220 H 0.91761 0.48786 0.99483 0.0
C1221 C 0.83225 0.52285 0.95124 0.0
C1222 C 0.88103 0.52857 0.9746 0.0
H1223 H 0.93216 0.54016 0.96458 0.0
C1224 C 0.87926 0.518 0.98921 0.0
C1225 C 0.90037 0.53667 0.96564 0.0
C1226 C 0.9034 0.54859 0.95007 0.0
C1227 C 0.89628 0.51543 0.99517 0.0
C1228 C 0.91573 0.52352 0.98624 0.0
C1229 C 0.91738 0.53397 0.97153 0.0
C1230 C 0.9348 0.52199 0.99207 0.0
C1231 C 0.89338 0.50464 0.01125 0.0
C1232 C 0.9553 0.54029 0.99306 0.0
C1233 C 0.97353 0.53901 0.99759 0.0
C1234 C 0.97171 0.51944 1.00151 0.0
C1235 C 0.95122 0.50111 1.00067 0.0
C1236 C 0.93299 0.50235 0.99593 0.0
H1237 H 0.88064 0.5051 0.01865 0.0
H1238 H 0.8885 0.48778 0.00919 0.0
H1239 H 0.90864 0.51223 0.01824 0.0
H1240 H 0.95728 0.55564 0.99012 0.0
H1241 H 0.98916 0.55334 0.99788 0.0
H1242 H 0.49758 0.29765 0.97441 0.0
H1243 H 0.50237 0.33315 0.97783 0.0
H1244 H 0.44027 0.31208 0.95529 0.0
H1245 H 0.4353 0.27626 0.9522 0.0
H1246 H 0.50304 0.36254 0.95665 0.0
H1247 H 0.43374 0.33419 0.99905 0.0
H1248 H 0.4447 0.31774 0.9928 0.0
H1249 H 0.42734 0.3219 0.97937 0.0
C1250 C 0.48513 0.30076 0.96999 0.0
C1251 C 0.46612 0.2845 0.96306 0.0
C1252 C 0.48785 0.32097 0.97195 0.0
C1253 C 0.47153 0.32517 0.96706 0.0
C1254 C 0.45287 0.30906 0.95943 0.0
H1255 H 0.46676 0.44132 0.98517 0.0
H1256 H 0.45917 0.40682 0.97466 0.0
C1257 C 0.45011 0.28874 0.95754 0.0
C1258 C 0.47392 0.34617 0.97069 0.0
H1259 H 0.45311 0.37075 0.9937 0.0
C1260 C 0.49203 0.36433 0.96465 0.0
C1261 C 0.45956 0.34847 0.98118 0.0
C1262 C 0.44033 0.32959 0.98861 0.0
C1263 C 0.49636 0.38472 0.96901 0.0
C1264 C 0.48231 0.38696 0.97979 0.0
C1265 C 0.46383 0.36888 0.98543 0.0
C1266 C 0.48705 0.40793 0.98598 0.0
C1267 C 0.516 0.40371 0.96215 0.0
C1268 C 0.50507 0.41979 0.99601 0.0
C1269 C 0.50942 0.43944 1.0021 0.0
C1270 C 0.49575 0.44756 0.99831 0.0
C1271 C 0.47763 0.43556 0.98832 0.0
C1272 C 0.47325 0.41584 0.98229 0.0
H1273 H 0.52207 0.39953 0.95116 0.0
H1274 H 0.51236 0.41642 0.95902 0.0
H1275 H 0.5291 0.41012 0.97138 0.0
H1276 H 0.51573 0.41377 0.99918 0.0
H1277 H 0.5236 0.44832 0.00965 0.0
H1278 H 0.20376 0.70333 0.0808 0.0
H1279 H 0.17176 0.66867 0.07525 0.0
H1280 H 0.13826 0.69979 0.05678 0.0
H1281 H 0.17042 0.73446 0.06216 0.0
H1282 H 0.12752 0.64858 0.08421 0.0
H1283 H 0.13926 0.66443 0.01811 0.0
H1284 H 0.15955 0.68056 0.03292 0.0
H1285 H 0.13651 0.68384 0.02971 0.0
C1286 C 0.18934 0.70268 0.07593 0.0
C1287 C 0.18933 0.72136 0.07197 0.0
C1288 C 0.17112 0.68294 0.07272 0.0
C1289 C 0.15275 0.68166 0.06536 0.0
C1290 C 0.15238 0.70042 0.06224 0.0
H1291 H 0.03058 0.5644 0.04695 0.0
H1292 H 0.05824 0.5992 0.05694 0.0
C1293 C 0.17062 0.72017 0.06544 0.0
C1294 C 0.13473 0.66079 0.05993 0.0
H1295 H 0.10891 0.63227 0.02598 0.0
C1296 C 0.12335 0.64501 0.0715 0.0
C1297 C 0.12958 0.65608 0.0433 0.0
C1298 C 0.14195 0.67201 0.03025 0.0
C1299 C 0.10687 0.62467 0.06687 0.0
C1300 C 0.10151 0.62009 0.05026 0.0
C1301 C 0.11293 0.63586 0.03871 0.0
C1302 C 0.08464 0.59883 0.04447 0.0
C1303 C 0.09576 0.60807 0.07975 0.0
C1304 C 0.0902 0.5872 0.03391 0.0
C1305 C 0.07444 0.56735 0.02812 0.0
C1306 C 0.05269 0.55878 0.03264 0.0
C1307 C 0.04715 0.57048 0.04323 0.0
C1308 C 0.06297 0.59035 0.04904 0.0
H1309 H 0.10508 0.61253 0.09129 0.0
H1310 H 0.07965 0.60622 0.08222 0.0
H1311 H 0.09334 0.5925 0.07564 0.0
H1312 H 0.10683 0.59343 0.03021 0.0
H1313 H 0.07938 0.55869 0.0202 0.0
H1314 H 0.31092 0.50419 0.06736 0.0
H1315 H 0.34573 0.5075 0.06006 0.0
H1316 H 0.31612 0.4394 0.05923 0.0
H1317 H 0.28113 0.43615 0.06618 0.0
H1318 H 0.37198 0.49506 0.07372 0.0
H1319 H 0.34231 0.45422 0.01454 0.0
H1320 H 0.3268 0.46229 0.02681 0.0
H1321 H 0.32725 0.43841 0.03148 0.0
C1322 C 0.31198 0.48996 0.06588 0.0
C1323 C 0.29349 0.46993 0.06744 0.0
C1324 C 0.33184 0.49184 0.06163 0.0
C1325 C 0.33356 0.47372 0.05872 0.0
C1326 C 0.31517 0.45364 0.06099 0.0
H1327 H 0.43926 0.45287 0.0329 0.0
H1328 H 0.40459 0.4499 0.04016 0.0
C1329 C 0.29525 0.45177 0.06518 0.0
C1330 C 0.35448 0.47597 0.05308 0.0
H1331 H 0.37767 0.46246 0.02245 0.0
C1332 C 0.3732 0.48799 0.06248 0.0
C1333 C 0.35623 0.46691 0.03832 0.0
C1334 C 0.33714 0.45491 0.02711 0.0
C1335 C 0.39338 0.49076 0.05775 0.0
C1336 C 0.39503 0.48147 0.04312 0.0
C1337 C 0.37639 0.46955 0.03367 0.0
C1338 C 0.41582 0.48336 0.03774 0.0
C1339 C 0.41273 0.50323 0.06863 0.0
C1340 C 0.4336 0.5031 0.03364 0.0
C1341 C 0.4534 0.5048 0.02939 0.0
C1342 C 0.4557 0.48672 0.02896 0.0
C1343 C 0.43783 0.467 0.0329 0.0
C1344 C 0.41804 0.46529 0.03706 0.0
H1345 H 0.40799 0.5057 0.08091 0.0
H1346 H 0.42224 0.49504 0.06986 0.0
H1347 H 0.42336 0.519 0.06321 0.0
H1348 H 0.43223 0.51725 0.03391 0.0
H1349 H 0.46699 0.52028 0.02682 0.0
H1350 H 0.53557 0.81146 0.05046 0.0
H1351 H 0.52506 0.83839 0.04624 0.0
H1352 H 0.582 0.88413 0.07226 0.0
H1353 H 0.59275 0.85716 0.07617 0.0
H1354 H 0.51685 0.86355 0.06682 0.0
H1355 H 0.58856 0.91229 0.02842 0.0
H1356 H 0.58083 0.88565 0.0344 0.0
H1357 H 0.59475 0.90727 0.04846 0.0
C1358 C 0.54563 0.82721 0.05546 0.0
C1359 C 0.56488 0.83243 0.06361 0.0
C1360 C 0.53965 0.84255 0.05304 0.0
C1361 C 0.55293 0.86335 0.05869 0.0
C1362 C 0.57175 0.86828 0.06753 0.0
H1363 H 0.54566 0.97767 0.04434 0.0
H1364 H 0.55473 0.95125 0.0535 0.0
C1365 C 0.57777 0.85291 0.06989 0.0
C1366 C 0.54746 0.87992 0.0546 0.0
H1367 H 0.56533 0.92592 0.03351 0.0
C1368 C 0.52746 0.87722 0.05957 0.0
C1369 C 0.56128 0.89766 0.04504 0.0
C1370 C 0.58247 0.90087 0.03862 0.0
C1371 C 0.52097 0.89187 0.05533 0.0
C1372 C 0.53475 0.90951 0.04572 0.0
C1373 C 0.55483 0.91235 0.0409 0.0
C1374 C 0.52866 0.92523 0.04043 0.0
C1375 C 0.49954 0.8885 0.06129 0.0
C1376 C 0.51106 0.91936 0.02992 0.0
C1377 C 0.50582 0.93445 0.0246 0.0
C1378 C 0.51817 0.9557 0.02965 0.0
C1379 C 0.53578 0.96147 0.04019 0.0
C1380 C 0.54102 0.9464 0.04546 0.0
H1381 H 0.49328 0.87716 0.07153 0.0
H1382 H 0.50093 0.90372 0.06525 0.0
H1383 H 0.48756 0.88197 0.05126 0.0
H1384 H 0.50152 0.90314 0.0257 0.0
H1385 H 0.49204 0.92942 0.01662 0.0
H1386 H 0.97737 0.17095 0.4304 0.0
H1387 H 0.01121 0.20009 0.41985 0.0
H1388 H 0.97988 0.19585 0.37411 0.0
H1389 H 0.94621 0.16646 0.38448 0.0
H1390 H 0.01868 0.19969 0.36944 0.0
H1391 H 0.02672 0.26067 0.41362 0.0
H1392 H 0.02505 0.23781 0.42312 0.0
H1393 H 1.00236 0.23532 0.41173 0.0
C1394 C 0.97768 0.1764 0.41815 0.0
C1395 C 0.95912 0.16646 0.40829 0.0
C1396 C 0.99701 0.19308 0.41214 0.0
C1397 C 0.99805 0.20043 0.39624 0.0
C1398 C 0.97951 0.1905 0.3864 0.0
H1399 H 0.1003 0.32248 0.36352 0.0
H1400 H 0.0656 0.29152 0.37041 0.0
C1401 C 0.96028 0.1737 0.39234 0.0
C1402 C 0.01847 0.21824 0.38974 0.0
H1403 H 0.0569 0.26978 0.39673 0.0
C1404 C 0.027 0.21506 0.37536 0.0
C1405 C 0.02921 0.23839 0.39733 0.0
C1406 C 0.02027 0.24336 0.41221 0.0
C1407 C 0.04599 0.23138 0.36844 0.0
C1408 C 0.05711 0.25136 0.37631 0.0
C1409 C 0.0485 0.25451 0.39066 0.0
C1410 C 0.07751 0.2694 0.36993 0.0
C1411 C 0.05356 0.22716 0.35254 0.0
C1412 C 0.09575 0.26733 0.36697 0.0
C1413 C 0.11549 0.28499 0.36266 0.0
C1414 C 0.11739 0.30507 0.36143 0.0
C1415 C 0.09913 0.30709 0.36417 0.0
C1416 C 0.07936 0.28942 0.36818 0.0
H1417 H 0.0401 0.21396 0.34574 0.0
H1418 H 0.06076 0.24145 0.3448 0.0
H1419 H 0.066 0.22262 0.35491 0.0
H1420 H 0.09504 0.25228 0.36869 0.0
H1421 H 0.12945 0.28308 0.36114 0.0
H1422 H 0.82334 0.76349 0.4154 0.0
H1423 H 0.79375 0.76833 0.40556 0.0
H1424 H 0.83958 0.83224 0.39146 0.0
H1425 H 0.86925 0.82747 0.40117 0.0
H1426 H 0.78092 0.79577 0.41509 0.0
H1427 H 0.80436 0.81028 0.3504 0.0
H1428 H 0.81651 0.80028 0.36444 0.0
H1429 H 0.82524 0.82811 0.36401 0.0
C1430 C 0.82714 0.77861 0.41024 0.0
C1431 C 0.84875 0.79505 0.40903 0.0
C1432 C 0.81019 0.78133 0.40454 0.0
C1433 C 0.81436 0.80052 0.39745 0.0
C1434 C 0.83589 0.81707 0.39642 0.0
H1435 H 0.72892 0.84679 0.36361 0.0
H1436 H 0.76033 0.84357 0.37138 0.0
C1437 C 0.85287 0.81433 0.40205 0.0
C1438 C 0.79613 0.80339 0.39169 0.0
H1439 H 0.77581 0.81602 0.3586 0.0
C1440 C 0.77979 0.80009 0.40271 0.0
C1441 C 0.79461 0.80914 0.37554 0.0
C1442 C 0.81099 0.81197 0.36286 0.0
C1443 C 0.76218 0.80252 0.39811 0.0
C1444 C 0.76062 0.80816 0.38197 0.0
C1445 C 0.77702 0.8117 0.37096 0.0
C1446 C 0.74179 0.80997 0.37629 0.0
C1447 C 0.74549 0.79932 0.41065 0.0
C1448 C 0.72098 0.79212 0.37615 0.0
C1449 C 0.70308 0.7939 0.37155 0.0
C1450 C 0.70563 0.81349 0.36672 0.0
C1451 C 0.72649 0.83137 0.36679 0.0
C1452 C 0.74444 0.82956 0.37134 0.0
H1453 H 0.75163 0.80019 0.42318 0.0
H1454 H 0.74038 0.81135 0.40936 0.0
H1455 H 0.73104 0.78343 0.40891 0.0
H1456 H 0.71854 0.7768 0.37976 0.0
H1457 H 0.68716 0.77993 0.37182 0.0
H1458 H 0.21828 0.04581 0.43754 0.0
H1459 H 0.21376 0.01188 0.42812 0.0
H1460 H 0.22232 0.03373 0.37874 0.0
H1461 H 0.22742 0.06782 0.38806 0.0
H1462 H 0.18183 0.98347 0.4068 0.0
H1463 H 0.26377 0.01036 0.38254 0.0
H1464 H 0.25799 0.02641 0.39607 0.0
H1465 H 0.25149 0.02491 0.37487 0.0
C1466 C 0.21957 0.0435 0.4247 0.0
C1467 C 0.22322 0.05947 0.41354 0.0
C1468 C 0.21687 0.0241 0.41934 0.0
C1469 C 0.21796 0.02042 0.40276 0.0
C1470 C 0.22178 0.03639 0.39161 0.0
H1471 H 0.16504 0.90113 0.35134 0.0
H1472 H 0.17335 0.93553 0.3624 0.0
C1473 C 0.22445 0.05575 0.39694 0.0
C1474 C 0.21399 0.99952 0.397 0.0
H1475 H 0.23633 0.97538 0.37528 0.0
C1476 C 0.19378 0.98165 0.40001 0.0
C1477 C 0.22971 0.99721 0.38827 0.0
C1478 C 0.25204 0.0157 0.38536 0.0
C1479 C 0.18865 0.96156 0.39417 0.0
C1480 C 0.20406 0.9594 0.3849 0.0
C1481 C 0.22447 0.97716 0.38224 0.0
C1482 C 0.19932 0.93878 0.37791 0.0
C1483 C 0.16687 0.94279 0.3981 0.0
C1484 C 0.21154 0.92949 0.38266 0.0
C1485 C 0.20701 0.90993 0.37623 0.0
C1486 C 0.19025 0.89938 0.36483 0.0
C1487 C 0.17818 0.90888 0.35998 0.0
C1488 C 0.18275 0.92845 0.36641 0.0
H1489 H 0.15927 0.94609 0.4086 0.0
H1490 H 0.15597 0.93905 0.38748 0.0
H1491 H 0.16825 0.92859 0.40083 0.0
H1492 H 0.22446 0.93728 0.39148 0.0
H1493 H 0.21664 0.90311 0.38024 0.0
H1494 H 0.49212 0.6032 0.31095 0.0
H1495 H 0.52035 0.63773 0.32082 0.0
H1496 H 0.53265 0.66132 0.27188 0.0
H1497 H 0.5038 0.62705 0.26195 0.0
H1498 H 0.56349 0.66021 0.31426 0.0
H1499 H 0.52378 0.70553 0.29527 0.0
H1500 H 0.50977 0.67696 0.29548 0.0
H1501 H 0.52755 0.69124 0.27905 0.0
C1502 C 0.50064 0.61579 0.30228 0.0
C1503 C 0.4955 0.61237 0.28566 0.0
C1504 C 0.5169 0.63549 0.30794 0.0
C1505 C 0.52839 0.65224 0.29714 0.0
C1506 C 0.52371 0.64877 0.28049 0.0
H1507 H 0.64869 0.76835 0.32 0.0
H1508 H 0.62124 0.73379 0.30959 0.0
C1509 C 0.50738 0.62907 0.27481 0.0
C1510 C 0.5453 0.67326 0.30336 0.0
H1511 H 0.55967 0.72554 0.30525 0.0
C1512 C 0.56265 0.6745 0.3123 0.0
C1513 C 0.54403 0.69185 0.30102 0.0
C1514 C 0.52519 0.69139 0.29232 0.0
C1515 C 0.57887 0.69382 0.31881 0.0
C1516 C 0.57795 0.71252 0.31604 0.0
C1517 C 0.56048 0.71124 0.30724 0.0
C1518 C 0.59472 0.73352 0.3224 0.0
C1519 C 0.59656 0.69393 0.32892 0.0
C1520 C 0.58889 0.74519 0.33271 0.0
C1521 C 0.60452 0.76509 0.33854 0.0
C1522 C 0.62635 0.77377 0.33421 0.0
C1523 C 0.6321 0.76212 0.32374 0.0
C1524 C 0.61643 0.74225 0.31785 0.0
H1525 H 0.59176 0.67788 0.33357 0.0
H1526 H 0.61115 0.6992 0.32133 0.0
H1527 H 0.60093 0.70498 0.33937 0.0
H1528 H 0.57222 0.73887 0.33628 0.0
H1529 H 0.59939 0.77375 0.3463 0.0
H1530 H 0.37382 0.86484 0.26667 0.0
H1531 H 0.33944 0.86005 0.27669 0.0
H1532 H 0.36905 0.8861 0.32302 0.0
H1533 H 0.40339 0.89075 0.31313 0.0
H1534 H 0.32977 0.85102 0.32667 0.0
H1535 H 0.32309 0.90516 0.28305 0.0
H1536 H 0.32561 0.88436 0.2735 0.0
H1537 H 0.34757 0.90403 0.28553 0.0
C1538 C 0.37308 0.86975 0.27894 0.0
C1539 C 0.39146 0.87826 0.28906 0.0
C1540 C 0.35338 0.86702 0.28466 0.0
C1541 C 0.35163 0.873 0.30056 0.0
C1542 C 0.36992 0.88136 0.31071 0.0
H1543 H 0.24893 0.89478 0.3332 0.0
H1544 H 0.28333 0.89734 0.32591 0.0
C1545 C 0.38957 0.88397 0.30504 0.0
C1546 C 0.3308 0.87044 0.30672 0.0
H1547 H 0.29259 0.8846 0.29952 0.0
C1548 C 0.32166 0.85841 0.32076 0.0
C1549 C 0.32026 0.88024 0.29914 0.0
C1550 C 0.32971 0.89434 0.28457 0.0
C1551 C 0.30234 0.85586 0.32738 0.0
C1552 C 0.29153 0.86529 0.3196 0.0
C1553 C 0.30072 0.87731 0.30554 0.0
C1554 C 0.27101 0.86348 0.32589 0.0
C1555 C 0.29414 0.8436 0.34291 0.0
C1556 C 0.25252 0.84364 0.32867 0.0
C1557 C 0.2329 0.84223 0.33319 0.0
C1558 C 0.23132 0.86061 0.33487 0.0
C1559 C 0.24979 0.88039 0.33223 0.0
C1560 C 0.26943 0.88183 0.32797 0.0
H1561 H 0.30727 0.84313 0.34981 0.0
H1562 H 0.28681 0.85063 0.35075 0.0
H1563 H 0.28166 0.82703 0.34003 0.0
H1564 H 0.25296 0.82917 0.32671 0.0
H1565 H 0.2188 0.82673 0.33461 0.0
H1566 H 0.15425 0.53372 0.30125 0.0
H1567 H 0.16192 0.50624 0.31032 0.0
H1568 H 0.10576 0.45905 0.28447 0.0
H1569 H 0.09777 0.48644 0.2755 0.0
H1570 H 0.13362 0.46978 0.3288 0.0
H1571 H 0.1551 0.44866 0.26964 0.0
H1572 H 0.15477 0.47304 0.27283 0.0
H1573 H 0.12989 0.44855 0.27002 0.0
C1574 C 0.14349 0.51749 0.29751 0.0
C1575 C 0.12536 0.51224 0.28769 0.0
C1576 C 0.14796 0.50184 0.30265 0.0
C1577 C 0.13452 0.48069 0.29795 0.0
C1578 C 0.11654 0.47537 0.28799 0.0
H1579 H 0.13326 0.3638 0.31894 0.0
H1580 H 0.12583 0.39112 0.30922 0.0
C1581 C 0.11202 0.49103 0.28286 0.0
C1582 C 0.13888 0.46412 0.30406 0.0
H1583 H 0.15232 0.42734 0.2921 0.0
C1584 C 0.13778 0.46052 0.32081 0.0
C1585 C 0.14422 0.45209 0.29355 0.0
C1586 C 0.14627 0.45582 0.27551 0.0
C1587 C 0.14159 0.44493 0.32736 0.0
C1588 C 0.14707 0.43297 0.31687 0.0
C1589 C 0.14813 0.43656 0.3001 0.0
C1590 C 0.1516 0.4165 0.32302 0.0
C1591 C 0.13921 0.44108 0.34539 0.0
C1592 C 0.16872 0.42177 0.33389 0.0
C1593 C 0.17298 0.40616 0.33954 0.0
C1594 C 0.16027 0.38502 0.33433 0.0
C1595 C 0.14332 0.37988 0.32327 0.0
C1596 C 0.13904 0.39548 0.31767 0.0
H1597 H 0.12945 0.44741 0.351 0.0
H1598 H 0.1315 0.4239 0.3481 0.0
H1599 H 0.15544 0.4492 0.35116 0.0
H1600 H 0.17894 0.438 0.33786 0.0
H1601 H 0.18641 0.41075 0.3478 0.0
H1602 H 0.39731 0.49172 0.29327 0.0
H1603 H 0.36307 0.46003 0.30063 0.0
H1604 H 0.33186 0.49769 0.30208 0.0
H1605 H 0.3658 0.52903 0.29434 0.0
H1606 H 0.34105 0.45409 0.32838 0.0
H1607 H 0.28779 0.44707 0.27707 0.0
H1608 H 0.31676 0.46376 0.27626 0.0
H1609 H 0.30048 0.47292 0.28617 0.0
C1610 C 0.38291 0.49296 0.29469 0.0
C1611 C 0.3839 0.51256 0.29296 0.0
C1612 C 0.36343 0.47496 0.29901 0.0
C1613 C 0.34474 0.47636 0.30169 0.0
C1614 C 0.34581 0.496 0.29966 0.0
H1615 H 0.21551 0.39261 0.33866 0.0
H1616 H 0.25013 0.42352 0.33139 0.0
C1617 C 0.36521 0.51391 0.29526 0.0
C1618 C 0.3246 0.4578 0.30782 0.0
H1619 H 0.27026 0.42757 0.30091 0.0
C1620 C 0.32561 0.44818 0.32228 0.0
C1621 C 0.30439 0.4501 0.29993 0.0
C1622 C 0.30229 0.45886 0.28392 0.0
C1623 C 0.30698 0.43141 0.32921 0.0
C1624 C 0.28677 0.42396 0.32145 0.0
C1625 C 0.28573 0.43348 0.30696 0.0
C1626 C 0.26659 0.4057 0.32772 0.0
C1627 C 0.30901 0.42207 0.34494 0.0
C1628 C 0.26441 0.38548 0.3283 0.0
C1629 C 0.2447 0.36786 0.33255 0.0
C1630 C 0.22683 0.37013 0.33642 0.0
C1631 C 0.22912 0.39043 0.33619 0.0
C1632 C 0.24885 0.40808 0.33188 0.0
H1633 H 0.32417 0.43301 0.35151 0.0
H1634 H 0.2951 0.41818 0.35296 0.0
H1635 H 0.30918 0.4072 0.34236 0.0
H1636 H 0.27771 0.38318 0.32484 0.0
H1637 H 0.24321 0.35232 0.33236 0.0
H1638 H 0.47702 0.8364 0.29837 0.0
H1639 H 0.50877 0.83297 0.30452 0.0
H1640 H 0.54929 0.90093 0.30261 0.0
H1641 H 0.51736 0.90433 0.29678 0.0
H1642 H 0.54668 0.84446 0.28898 0.0
H1643 H 0.5634 0.88809 0.34729 0.0
H1644 H 0.53871 0.87946 0.336 0.0
H1645 H 0.56307 0.90303 0.33015 0.0
C1646 C 0.4928 0.85056 0.299 0.0
C1647 C 0.49488 0.87061 0.297 0.0
C1648 C 0.51091 0.84861 0.30259 0.0
C1649 C 0.53142 0.8667 0.30438 0.0
C1650 C 0.5336 0.88675 0.30168 0.0
H1651 H 0.6593 0.88723 0.32764 0.0
H1652 H 0.62774 0.89038 0.32023 0.0
C1653 C 0.51543 0.88869 0.29814 0.0
C1654 C 0.55033 0.8645 0.30938 0.0
H1655 H 0.58939 0.87902 0.33861 0.0
C1656 C 0.55596 0.85198 0.29986 0.0
C1657 C 0.56241 0.87416 0.32366 0.0
C1658 C 0.55651 0.88677 0.33497 0.0
C1659 C 0.57355 0.84924 0.30401 0.0
C1660 C 0.58573 0.85909 0.31818 0.0
C1661 C 0.58008 0.87153 0.32774 0.0
C1662 C 0.60469 0.85704 0.32309 0.0
C1663 C 0.57925 0.83621 0.29301 0.0
C1664 C 0.60223 0.83729 0.32735 0.0
C1665 C 0.62025 0.8355 0.33166 0.0
C1666 C 0.64102 0.85348 0.33203 0.0
C1667 C 0.64343 0.87318 0.3277 0.0
C1668 C 0.62543 0.87499 0.32347 0.0
H1669 H 0.5714 0.83359 0.28092 0.0
H1670 H 0.59701 0.844 0.29133 0.0
H1671 H 0.57375 0.8205 0.2986 0.0
H1672 H 0.58638 0.82325 0.32732 0.0
H1673 H 0.61793 0.82002 0.3345 0.0
H1674 H 0.15736 0.62784 0.31235 0.0
H1675 H 0.16385 0.66407 0.3149 0.0
H1676 H 0.1044 0.64581 0.28909 0.0
H1677 H 0.09773 0.60929 0.28682 0.0
H1678 H 0.1678 0.69391 0.29224 0.0
H1679 H 0.09629 0.66951 0.3318 0.0
H1680 H 0.1065 0.65197 0.32696 0.0
H1681 H 0.09079 0.65674 0.31231 0.0
C1682 C 0.14585 0.6317 0.30707 0.0
C1683 C 0.12709 0.61606 0.29943 0.0
C1684 C 0.14954 0.65233 0.30852 0.0
C1685 C 0.13445 0.65754 0.3024 0.0
C1686 C 0.11604 0.642 0.29415 0.0
H1687 H 0.13479 0.77673 0.31782 0.0
H1688 H 0.12634 0.74194 0.30737 0.0
C1689 C 0.11231 0.62128 0.29275 0.0
C1690 C 0.13781 0.67904 0.30535 0.0
H1691 H 0.11777 0.70587 0.32636 0.0
C1692 C 0.15678 0.69654 0.29958 0.0
C1693 C 0.1234 0.6824 0.31496 0.0
C1694 C 0.10317 0.66421 0.322 0.0
C1695 C 0.16192 0.71732 0.30341 0.0
C1696 C 0.14784 0.72063 0.3134 0.0
C1697 C 0.12852 0.7032 0.31871 0.0
C1698 C 0.15339 0.74199 0.31923 0.0
C1699 C 0.18245 0.73558 0.29683 0.0
C1700 C 0.17129 0.75339 0.32947 0.0
C1701 C 0.17614 0.77321 0.3355 0.0
C1702 C 0.16309 0.78194 0.33147 0.0
C1703 C 0.14519 0.77048 0.32116 0.0
C1704 C 0.14031 0.7506 0.31517 0.0
H1705 H 0.18836 0.73077 0.28609 0.0
H1706 H 0.18001 0.74897 0.29341 0.0
H1707 H 0.1952 0.74128 0.30633 0.0
H1708 H 0.18137 0.74683 0.33295 0.0
H1709 H 0.19016 0.78169 0.34327 0.0
H1710 H 0.85489 0.0481 0.4247 0.0
H1711 H 0.82258 0.01308 0.42029 0.0
H1712 H 0.82277 0.02752 0.36958 0.0
H1713 H 0.85451 0.06248 0.3741 0.0
H1714 H 0.78226 0.00744 0.38143 0.0
H1715 H 0.82501 0.96428 0.3988 0.0
H1716 H 0.82437 0.98128 0.41432 0.0
H1717 H 0.83897 0.99257 0.39592 0.0
C1718 C 0.84771 0.04379 0.41271 0.0
C1719 C 0.85694 0.05779 0.39972 0.0
C1720 C 0.82945 0.02377 0.41015 0.0
C1721 C 0.82046 0.01749 0.39452 0.0
C1722 C 0.82939 0.03194 0.38172 0.0
H1723 H 0.747 0.89367 0.35173 0.0
H1724 H 0.774 0.92885 0.36121 0.0
C1725 C 0.84748 0.05189 0.3843 0.0
C1726 C 0.80228 0.99574 0.39115 0.0
H1727 H 0.78841 0.94354 0.39124 0.0
C1728 C 0.78353 0.99344 0.38368 0.0
C1729 C 0.80409 0.97749 0.39385 0.0
C1730 C 0.82424 0.97894 0.40102 0.0
C1731 C 0.76673 0.97352 0.3786 0.0
C1732 C 0.76845 0.95526 0.38144 0.0
C1733 C 0.78704 0.95751 0.38916 0.0
C1734 C 0.75173 0.93383 0.37574 0.0
C1735 C 0.74772 0.97238 0.36964 0.0
C1736 C 0.73019 0.92473 0.38085 0.0
C1737 C 0.71456 0.90471 0.37517 0.0
C1738 C 0.7202 0.89324 0.3644 0.0
C1739 C 0.74191 0.90219 0.35967 0.0
C1740 C 0.75746 0.92227 0.36522 0.0
H1741 H 0.75151 0.98805 0.36476 0.0
H1742 H 0.74255 0.96086 0.35944 0.0
H1743 H 0.73395 0.96711 0.3781 0.0
H1744 H 0.72546 0.93306 0.3893 0.0
H1745 H 0.69807 0.89824 0.37926 0.0
H1746 H 0.94935 0.77157 0.40219 0.0
H1747 H 0.98441 0.77479 0.39545 0.0
H1748 H 0.01282 0.84264 0.39234 0.0
H1749 H 0.97804 0.8394 0.39945 0.0
H1750 H 0.00686 0.78962 0.3679 0.0
H1751 H 0.0582 0.83921 0.41864 0.0
H1752 H 0.02912 0.82645 0.4191 0.0
H1753 H 0.04467 0.85103 0.40847 0.0
C1754 C 0.96329 0.78717 0.40051 0.0
C1755 C 0.96122 0.80528 0.40165 0.0
C1756 C 0.98327 0.78901 0.39654 0.0
C1757 C 1.00148 0.80901 0.39361 0.0
C1758 C 0.99931 0.8271 0.39498 0.0
H1759 H 0.13336 0.85359 0.35978 0.0
H1760 H 0.09852 0.85048 0.36673 0.0
C1761 C 0.97941 0.82524 0.39901 0.0
C1762 C 0.02227 0.81088 0.38802 0.0
H1763 H 0.07663 0.83598 0.39571 0.0
C1764 C 0.02208 0.79964 0.37407 0.0
C1765 C 0.04225 0.82405 0.39596 0.0
C1766 C 0.04359 0.8357 0.41146 0.0
C1767 C 0.0412 0.80145 0.36774 0.0
C1768 C 0.06118 0.81472 0.37561 0.0
C1769 C 0.0614 0.82598 0.38954 0.0
C1770 C 0.0819 0.81648 0.37004 0.0
C1771 C 0.03981 0.78934 0.35249 0.0
C1772 C 0.08425 0.79847 0.36948 0.0
C1773 C 0.10406 0.80022 0.36535 0.0
C1774 C 0.122 0.81999 0.36162 0.0
C1775 C 0.1197 0.83806 0.36212 0.0
C1776 C 0.09982 0.8363 0.36625 0.0
H1777 H 0.02521 0.78566 0.34523 0.0
H1778 H 0.05428 0.79833 0.34482 0.0
H1779 H 0.03875 0.77411 0.35582 0.0
H1780 H 0.07091 0.78308 0.37272 0.0
H1781 H 0.1055 0.7861 0.36539 0.0
H1782 H 0.22052 0.15854 0.37963 0.0
H1783 H 0.21863 0.19054 0.37395 0.0
H1784 H 0.19702 0.19008 0.42282 0.0
H1785 H 0.1985 0.15765 0.42837 0.0
H1786 H 0.17117 0.19355 0.40067 0.0
H1787 H 0.25615 0.25189 0.38667 0.0
H1788 H 0.24655 0.22814 0.37485 0.0
H1789 H 0.24848 0.22706 0.39656 0.0
C1790 C 0.21586 0.16562 0.38923 0.0
C1791 C 0.20986 0.156 0.40444 0.0
C1792 C 0.21487 0.18392 0.38602 0.0
C1793 C 0.20803 0.19292 0.39804 0.0
C1794 C 0.20252 0.18349 0.41343 0.0
H1795 H 0.20915 0.31159 0.38108 0.0
H1796 H 0.21568 0.28415 0.39185 0.0
C1797 C 0.20344 0.1651 0.41661 0.0
C1798 C 0.20476 0.21093 0.39398 0.0
H1799 H 0.22939 0.26006 0.37692 0.0
C1800 C 0.18398 0.20821 0.39567 0.0
C1801 C 0.2215 0.23014 0.38763 0.0
C1802 C 0.24447 0.23459 0.38648 0.0
C1803 C 0.1793 0.22387 0.39064 0.0
C1804 C 0.19574 0.24252 0.38337 0.0
C1805 C 0.21671 0.24559 0.38225 0.0
C1806 C 0.19152 0.25905 0.37683 0.0
C1807 C 0.15683 0.2203 0.39325 0.0
C1808 C 0.17592 0.2541 0.36465 0.0
C1809 C 0.17197 0.26973 0.35855 0.0
C1810 C 0.18384 0.29069 0.36431 0.0
C1811 C 0.19968 0.29563 0.37635 0.0
C1812 C 0.20349 0.27996 0.38252 0.0
H1813 H 0.14838 0.20874 0.40311 0.0
H1814 H 0.15721 0.23534 0.3963 0.0
H1815 H 0.14722 0.21376 0.38197 0.0
H1816 H 0.16681 0.23815 0.35983 0.0
H1817 H 0.15951 0.26529 0.34944 0.0
H1818 H 0.6416 0.50637 0.76374 0.0
H1819 H 0.67562 0.53505 0.75306 0.0
H1820 H 0.64475 0.52988 0.70693 0.0
H1821 H 0.61089 0.50091 0.71745 0.0
H1822 H 0.68354 0.53346 0.70277 0.0
H1823 H 0.69151 0.59553 0.74579 0.0
H1824 H 0.68964 0.57284 0.75576 0.0
H1825 H 0.6671 0.5702 0.74407 0.0
C1826 C 0.64204 0.51151 0.75138 0.0
C1827 C 0.62355 0.50144 0.74146 0.0
C1828 C 0.66148 0.52794 0.74528 0.0
C1829 C 0.66272 0.53491 0.72925 0.0
C1830 C 0.64425 0.52483 0.71934 0.0
H1831 H 0.76571 0.65604 0.69581 0.0
H1832 H 0.73087 0.62527 0.70265 0.0
C1833 C 0.62489 0.50827 0.72536 0.0
C1834 C 0.68325 0.5525 0.72268 0.0
H1835 H 0.72185 0.60409 0.72924 0.0
C1836 C 0.69188 0.54895 0.70851 0.0
C1837 C 0.69402 0.57281 0.73003 0.0
C1838 C 0.685 0.57818 0.74465 0.0
C1839 C 0.711 0.56506 0.70155 0.0
C1840 C 0.72214 0.58519 0.70919 0.0
C1841 C 0.71343 0.5887 0.72335 0.0
C1842 C 0.74266 0.60305 0.70277 0.0
C1843 C 0.71869 0.56045 0.68587 0.0
C1844 C 0.76089 0.60085 0.70013 0.0
C1845 C 0.78073 0.6184 0.69584 0.0
C1846 C 0.78272 0.6385 0.6943 0.0
C1847 C 0.76447 0.64063 0.69669 0.0
C1848 C 0.74461 0.62307 0.70068 0.0
H1849 H 0.70526 0.54713 0.67913 0.0
H1850 H 0.72603 0.57456 0.67795 0.0
H1851 H 0.73104 0.55589 0.68853 0.0
H1852 H 0.76009 0.5858 0.7021 0.0
H1853 H 0.79468 0.61643 0.69458 0.0
H1854 H 0.53712 0.16522 0.73981 0.0
H1855 H 0.5074 0.17002 0.73015 0.0
H1856 H 0.46254 0.10384 0.73848 0.0
H1857 H 0.4921 0.09906 0.74844 0.0
H1858 H 0.48069 0.15354 0.70514 0.0
H1859 H 0.43153 0.12949 0.76087 0.0
H1860 H 0.45884 0.13429 0.7605 0.0
H1861 H 0.43676 0.10923 0.75374 0.0
C1862 C 0.52091 0.15168 0.73961 0.0
C1863 C 0.51701 0.13177 0.74502 0.0
C1864 C 0.50389 0.15446 0.73411 0.0
C1865 C 0.48254 0.13741 0.73386 0.0
C1866 C 0.47868 0.11744 0.73902 0.0
H1867 H 0.35713 0.11475 0.7016 0.0
H1868 H 0.3889 0.11259 0.71001 0.0
C1869 C 0.49565 0.11469 0.74466 0.0
C1870 C 0.4645 0.14035 0.72767 0.0
H1871 H 0.4141 0.13181 0.73686 0.0
C1872 C 0.46623 0.14897 0.71216 0.0
C1873 C 0.44557 0.13451 0.73679 0.0
C1874 C 0.44313 0.12658 0.75396 0.0
C1875 C 0.4494 0.15126 0.70535 0.0
C1876 C 0.43022 0.14482 0.71427 0.0
C1877 C 0.42864 0.13653 0.72989 0.0
C1878 C 0.4114 0.14616 0.70766 0.0
C1879 C 0.45197 0.15976 0.6884 0.0
C1880 C 0.41334 0.16571 0.70337 0.0
C1881 C 0.39515 0.16693 0.69847 0.0
C1882 C 0.37463 0.1486 0.69767 0.0
C1883 C 0.37278 0.12908 0.70182 0.0
C1884 C 0.39093 0.12785 0.70669 0.0
H1885 H 0.46561 0.15982 0.68193 0.0
H1886 H 0.43695 0.15006 0.68138 0.0
H1887 H 0.45506 0.17626 0.68887 0.0
H1888 H 0.42876 0.18018 0.70442 0.0
H1889 H 0.39707 0.18231 0.69592 0.0
H1890 H 0.88145 0.38192 0.7642 0.0
H1891 H 0.87419 0.3469 0.75535 0.0
H1892 H 0.90321 0.3727 0.7091 0.0
H1893 H 0.9117 0.40791 0.71815 0.0
H1894 H 0.84928 0.32272 0.73106 0.0
H1895 H 0.93315 0.3404 0.72076 0.0
H1896 H 0.92703 0.35846 0.73132 0.0
H1897 H 0.9269 0.35769 0.70951 0.0
C1898 C 0.88671 0.38025 0.75227 0.0
C1899 C 0.89723 0.39779 0.74192 0.0
C1900 C 0.88237 0.36017 0.74718 0.0
C1901 C 0.88843 0.35723 0.73165 0.0
C1902 C 0.89881 0.37466 0.72126 0.0
H1903 H 0.83348 0.23726 0.67982 0.0
H1904 H 0.84264 0.2722 0.69014 0.0
C1905 C 0.90335 0.39475 0.72639 0.0
C1906 C 0.88315 0.33579 0.72607 0.0
H1907 H 0.90515 0.30793 0.70948 0.0
C1908 C 0.86152 0.31944 0.72646 0.0
C1909 C 0.89917 0.33144 0.72028 0.0
C1910 C 0.92288 0.34787 0.72059 0.0
C1911 C 0.85539 0.29895 0.72093 0.0
C1912 C 0.87126 0.29488 0.71438 0.0
C1913 C 0.89295 0.31113 0.71429 0.0
C1914 C 0.86584 0.27379 0.70785 0.0
C1915 C 0.83205 0.28182 0.72245 0.0
C1916 C 0.87637 0.26337 0.71394 0.0
C1917 C 0.87162 0.24365 0.70774 0.0
C1918 C 0.85618 0.2339 0.69531 0.0
C1919 C 0.84564 0.24438 0.68922 0.0
C1920 C 0.85062 0.26425 0.6953 0.0
H1921 H 0.82363 0.28576 0.73197 0.0
H1922 H 0.82359 0.28018 0.71078 0.0
H1923 H 0.83062 0.26631 0.72541 0.0
H1924 H 0.88822 0.27045 0.72359 0.0
H1925 H 0.88005 0.23607 0.71277 0.0
H1926 H 0.16461 0.96289 0.59626 0.0
H1927 H 0.19413 0.99749 0.60495 0.0
H1928 H 0.1924 0.9727 0.65264 0.0
H1929 H 0.16373 0.93788 0.64386 0.0
H1930 H 0.19513 0.024 0.62806 0.0
H1931 H 0.25586 0.00055 0.64281 0.0
H1932 H 0.23138 0.98345 0.63172 0.0
H1933 H 0.23103 0.98505 0.65349 0.0
C1934 C 0.17075 0.96468 0.60852 0.0
C1935 C 0.16176 0.94749 0.61932 0.0
C1936 C 0.18754 0.98454 0.61351 0.0
C1937 C 0.19576 0.98766 0.62938 0.0
C1938 C 0.1867 0.97061 0.64023 0.0
H1939 H 0.26725 0.10795 0.67998 0.0
H1940 H 0.24002 0.07356 0.66936 0.0
C1941 C 0.17003 0.95074 0.63524 0.0
C1942 C 0.21331 0.00888 0.63477 0.0
H1943 H 0.26324 0.03444 0.6526 0.0
C1944 C 0.21009 0.02631 0.63332 0.0
C1945 C 0.233 0.01201 0.6414 0.0
C1946 C 0.23815 0.99431 0.6423 0.0
C1947 C 0.22574 0.04662 0.63869 0.0
C1948 C 0.24495 0.04951 0.64608 0.0
C1949 C 0.24841 0.0322 0.64714 0.0
C1950 C 0.26166 0.07034 0.65279 0.0
C1951 C 0.22163 0.06481 0.63614 0.0
C1952 C 0.28314 0.07975 0.64747 0.0
C1953 C 0.29893 0.09926 0.65383 0.0
C1954 C 0.29359 0.10979 0.6657 0.0
C1955 C 0.27207 0.10026 0.67103 0.0
C1956 C 0.25635 0.08068 0.66477 0.0
H1957 H 0.20989 0.06143 0.62612 0.0
H1958 H 0.21469 0.06738 0.64735 0.0
H1959 H 0.23681 0.07968 0.63333 0.0
H1960 H 0.28767 0.07204 0.63829 0.0
H1961 H 0.31531 0.10608 0.6494 0.0
H1962 H 0.06327 0.24297 0.61438 0.0
H1963 H 0.02902 0.23818 0.62469 0.0
H1964 H 0.01253 0.17633 0.64242 0.0
H1965 H 0.04682 0.18112 0.6323 0.0
H1966 H 0.98808 0.2096 0.61715 0.0
H1967 H 1.00121 0.20108 0.68227 0.0
H1968 H 0.02263 0.21008 0.66759 0.0
H1969 H 0.00348 0.18227 0.66956 0.0
C1970 C 0.05234 0.22832 0.62044 0.0
C1971 C 0.05793 0.21249 0.62257 0.0
C1972 C 0.03276 0.22563 0.62641 0.0
C1973 C 0.01825 0.20706 0.63467 0.0
C1974 C 0.02363 0.19108 0.63656 0.0
H1975 H 0.8856 0.16121 0.66832 0.0
H1976 H 0.92033 0.16404 0.66127 0.0
C1977 C 0.04326 0.19381 0.63069 0.0
C1978 C 0.99724 0.20419 0.64076 0.0
H1979 H 0.96598 0.19377 0.67468 0.0
C1980 C 0.98335 0.20623 0.62975 0.0
C1981 C 0.99089 0.19971 0.65722 0.0
C1982 C 0.00541 0.19835 0.66988 0.0
C1983 C 0.9634 0.2038 0.63466 0.0
C1984 C 0.9571 0.19936 0.65107 0.0
C1985 C 0.9708 0.19709 0.66209 0.0
C1986 C 0.93667 0.19781 0.65697 0.0
C1987 C 0.94905 0.20585 0.62222 0.0
C1988 C 0.93447 0.21589 0.65731 0.0
C1989 C 0.91478 0.21434 0.66154 0.0
C1990 C 0.8969 0.19472 0.6657 0.0
C1991 C 0.8992 0.17664 0.66564 0.0
C1992 C 0.91901 0.17822 0.66149 0.0
H1993 H 0.95407 0.20498 0.60964 0.0
H1994 H 0.93197 0.19323 0.62382 0.0
H1995 H 0.94987 0.22137 0.62383 0.0
H1996 H 0.94788 0.23118 0.65395 0.0
H1997 H 0.91338 0.22847 0.66127 0.0
H1998 H 0.77695 0.84335 0.64465 0.0
H1999 H 0.78449 0.816 0.65422 0.0
H2000 H 0.80571 0.81093 0.60638 0.0
H2001 H 0.7991 0.83898 0.59686 0.0
H2002 H 0.76853 0.77498 0.6449 0.0
H2003 H 0.85695 0.8213 0.63448 0.0
H2004 H 0.83994 0.83306 0.6337 0.0
H2005 H 0.84102 0.8181 0.61671 0.0
C2006 C 0.78341 0.83656 0.63618 0.0
C2007 C 0.78771 0.84356 0.62004 0.0
C2008 C 0.78755 0.82082 0.64165 0.0
C2009 C 0.79606 0.81174 0.63109 0.0
C2010 C 0.7996 0.81808 0.61482 0.0
H2011 H 0.80047 0.69687 0.64968 0.0
H2012 H 0.79227 0.72352 0.63972 0.0
C2013 C 0.79555 0.83391 0.60935 0.0
C2014 C 0.80126 0.79571 0.63723 0.0
H2015 H 0.84256 0.78537 0.64209 0.0
C2016 C 0.78472 0.77724 0.64431 0.0
C2017 C 0.82247 0.7989 0.6367 0.0
C2018 C 0.84118 0.81899 0.63014 0.0
C2019 C 0.78875 0.76172 0.6507 0.0
C2020 C 0.8098 0.76456 0.64964 0.0
C2021 C 0.8264 0.78315 0.64275 0.0
C2022 C 0.81496 0.74845 0.65564 0.0
C2023 C 0.77053 0.74265 0.65881 0.0
C2024 C 0.83099 0.7538 0.66751 0.0
C2025 C 0.83597 0.73865 0.6731 0.0
C2026 C 0.82494 0.71783 0.66695 0.0
C2027 C 0.80913 0.71265 0.65485 0.0
C2028 C 0.80428 0.72784 0.6492 0.0
H2029 H 0.75751 0.74578 0.66273 0.0
H2030 H 0.76338 0.7292 0.6501 0.0
H2031 H 0.77641 0.73782 0.66955 0.0
H2032 H 0.8396 0.7697 0.67251 0.0
H2033 H 0.84856 0.74333 0.68215 0.0
H2034 H 0.0645 0.8223 0.6292 0.0
H2035 H 0.02912 0.79155 0.63567 0.0
H2036 H 1.0022 0.83276 0.64028 0.0
H2037 H 0.03735 0.86327 0.63348 0.0
H2038 H 0.00756 0.78545 0.66396 0.0
H2039 H 0.95604 0.78517 0.61356 0.0
H2040 H 0.98516 0.80024 0.61284 0.0
H2041 H 0.97035 0.81031 0.62371 0.0
C2042 C 0.0508 0.82458 0.63113 0.0
C2043 C 0.05337 0.84494 0.63058 0.0
C2044 C 0.03067 0.8071 0.63494 0.0
C2045 C 0.01286 0.80976 0.63827 0.0
C2046 C 0.01547 0.83016 0.63736 0.0
H2047 H 0.88126 0.72627 0.67207 0.0
H2048 H 0.91629 0.75724 0.66562 0.0
C2049 C 0.03554 0.84759 0.63351 0.0
C2050 C 0.9921 0.79157 0.64392 0.0
H2051 H 0.93776 0.76381 0.63638 0.0
C2052 C 0.99232 0.78064 0.65785 0.0
C2053 C 0.97216 0.78535 0.63605 0.0
C2054 C 0.97087 0.79574 0.62063 0.0
C2055 C 0.9732 0.76389 0.66423 0.0
C2056 C 0.95327 0.75772 0.65639 0.0
C2057 C 0.95301 0.76867 0.64249 0.0
C2058 C 0.93262 0.7393 0.6619 0.0
C2059 C 0.97453 0.75319 0.67945 0.0
C2060 C 0.93016 0.71895 0.6621 0.0
C2061 C 0.91026 0.70132 0.66594 0.0
C2062 C 0.89242 0.70366 0.66972 0.0
C2063 C 0.89487 0.72404 0.66968 0.0
C2064 C 0.91483 0.74172 0.66584 0.0
H2065 H 0.98923 0.76373 0.68666 0.0
H2066 H 0.96014 0.74826 0.68718 0.0
H2067 H 0.97532 0.73884 0.6761 0.0
H2068 H 0.94345 0.71658 0.65874 0.0
H2069 H 0.90865 0.68573 0.66557 0.0
H2070 H 0.18398 0.23781 0.6271 0.0
H2071 H 0.21603 0.23458 0.63289 0.0
H2072 H 0.17497 0.16735 0.63996 0.0
H2073 H 0.14318 0.17058 0.63381 0.0
H2074 H 0.22566 0.22208 0.66075 0.0
H2075 H 0.22095 0.16746 0.61211 0.0
H2076 H 0.2052 0.18058 0.61161 0.0
H2077 H 0.1964 0.15699 0.62346 0.0
C2078 C 0.18196 0.22231 0.62945 0.0
C2079 C 0.16125 0.20437 0.62972 0.0
C2080 C 0.20023 0.22046 0.63287 0.0
C2081 C 0.19807 0.20065 0.63664 0.0
C2082 C 0.17726 0.18271 0.63666 0.0
H2083 H 0.28487 0.15613 0.6698 0.0
H2084 H 0.25345 0.15965 0.66276 0.0
C2085 C 0.15906 0.18456 0.63318 0.0
C2086 C 0.21726 0.19894 0.64172 0.0
H2087 H 0.24455 0.17232 0.63428 0.0
C2088 C 0.22987 0.21131 0.65485 0.0
C2089 C 0.22281 0.18483 0.63414 0.0
C2090 C 0.21076 0.17187 0.61945 0.0
C2091 C 0.24748 0.20969 0.6608 0.0
C2092 C 0.25291 0.19544 0.65332 0.0
C2093 C 0.24034 0.1831 0.64015 0.0
C2094 C 0.27188 0.19348 0.65863 0.0
C2095 C 0.25977 0.22302 0.67527 0.0
C2096 C 0.29279 0.21123 0.65867 0.0
C2097 C 0.31069 0.20926 0.66294 0.0
C2098 C 0.30817 0.18952 0.66727 0.0
C2099 C 0.28731 0.17167 0.66705 0.0
C2100 C 0.26934 0.17366 0.66285 0.0
H2101 H 0.24961 0.22733 0.68273 0.0
H2102 H 0.26579 0.2147 0.68307 0.0
H2103 H 0.27387 0.23794 0.67099 0.0
H2104 H 0.29536 0.22658 0.65504 0.0
H2105 H 0.32663 0.22319 0.66264 0.0
H2106 H 0.76766 0.94412 0.62016 0.0
H2107 H 0.77249 0.97989 0.62301 0.0
H2108 H 0.83863 0.00366 0.63799 0.0
H2109 H 0.83389 0.96819 0.63478 0.0
H2110 H 0.78183 0.00187 0.65106 0.0
H2111 H 0.8458 0.04896 0.60675 0.0
H2112 H 0.83088 0.02036 0.60629 0.0
H2113 H 0.85356 0.03429 0.61984 0.0
C2114 C 0.78333 0.9572 0.62362 0.0
C2115 C 0.80052 0.95374 0.62708 0.0
C2116 C 0.78608 0.97753 0.62531 0.0
C2117 C 0.80604 0.99454 0.63046 0.0
C2118 C 0.8233 0.99098 0.63355 0.0
H2119 H 0.85617 0.11579 0.67552 0.0
H2120 H 0.84803 0.08118 0.66491 0.0
C2121 C 0.82057 0.97073 0.6318 0.0
C2122 C 0.80835 0.01547 0.63426 0.0
H2123 H 0.84126 0.06861 0.62852 0.0
C2124 C 0.79456 0.01644 0.6459 0.0
C2125 C 0.825 0.03448 0.62754 0.0
C2126 C 0.83949 0.03447 0.61429 0.0
C2127 C 0.79761 0.03594 0.65154 0.0
C2128 C 0.81482 0.05488 0.64533 0.0
C2129 C 0.82819 0.05398 0.63333 0.0
C2130 C 0.81961 0.07579 0.65158 0.0
C2131 C 0.78298 0.03627 0.66454 0.0
C2132 C 0.80631 0.08414 0.64751 0.0
C2133 C 0.81088 0.1039 0.65355 0.0
C2134 C 0.82878 0.11556 0.66382 0.0
C2135 C 0.84211 0.10711 0.66781 0.0
C2136 C 0.83758 0.08742 0.66169 0.0
H2137 H 0.77186 0.02021 0.66936 0.0
H2138 H 0.79274 0.04673 0.67472 0.0
H2139 H 0.77315 0.04284 0.65949 0.0
H2140 H 0.79244 0.07538 0.63964 0.0
H2141 H 0.80033 0.10996 0.6502 0.0
H2142 H 0.50136 0.3997 0.74226 0.0
H2143 H 0.46969 0.36411 0.73857 0.0
H2144 H 0.51195 0.3396 0.72687 0.0
H2145 H 0.54336 0.37487 0.73095 0.0
H2146 H 0.45759 0.34155 0.71094 0.0
H2147 H 0.47106 0.29467 0.75723 0.0
H2148 H 0.48561 0.32327 0.75741 0.0
H2149 H 0.49432 0.30887 0.74464 0.0
C2150 C 0.50375 0.3865 0.73935 0.0
C2151 C 0.52462 0.38974 0.73712 0.0
C2152 C 0.48573 0.36625 0.73716 0.0
C2153 C 0.4884 0.34903 0.73271 0.0
C2154 C 0.50941 0.35239 0.73077 0.0
H2155 H 0.41487 0.22641 0.68878 0.0
H2156 H 0.44202 0.26106 0.69934 0.0
C2157 C 0.52736 0.37256 0.73303 0.0
C2158 C 0.4694 0.32804 0.72862 0.0
H2159 H 0.4472 0.27487 0.73513 0.0
C2160 C 0.45511 0.32701 0.71644 0.0
C2161 C 0.46612 0.30901 0.73577 0.0
C2162 C 0.47998 0.30901 0.7496 0.0
C2163 C 0.43825 0.30747 0.71077 0.0
C2164 C 0.43558 0.2885 0.71747 0.0
C2165 C 0.44944 0.28948 0.72994 0.0
C2166 C 0.41895 0.26747 0.71125 0.0
C2167 C 0.42384 0.30713 0.69723 0.0
C2168 C 0.397 0.25957 0.71454 0.0
C2169 C 0.3814 0.23973 0.70853 0.0
C2170 C 0.38749 0.22752 0.69903 0.0
C2171 C 0.40956 0.23549 0.69586 0.0
C2172 C 0.42513 0.25524 0.70196 0.0
H2173 H 0.42959 0.32312 0.69205 0.0
H2174 H 0.42294 0.29626 0.6874 0.0
H2175 H 0.40724 0.30108 0.70191 0.0
H2176 H 0.39196 0.26874 0.72179 0.0
H2177 H 0.36457 0.23406 0.71124 0.0
H2178 H 0.6136 0.11424 0.71896 0.0
H2179 H 0.64786 0.11653 0.71115 0.0
H2180 H 0.68207 0.1685 0.74466 0.0
H2181 H 0.64774 0.16604 0.75255 0.0
H2182 H 0.68258 0.15109 0.69705 0.0
H2183 H 0.70807 0.13093 0.75473 0.0
H2184 H 0.68079 0.12538 0.75117 0.0
H2185 H 0.70164 0.15174 0.75645 0.0
C2186 C 0.6284 0.12575 0.72495 0.0
C2187 C 0.62808 0.13969 0.73656 0.0
C2188 C 0.64798 0.12718 0.7204 0.0
C2189 C 0.66762 0.14256 0.7274 0.0
C2190 C 0.66717 0.15622 0.7393 0.0
H2191 H 0.7987 0.18775 0.69003 0.0
H2192 H 0.76426 0.18506 0.6978 0.0
C2193 C 0.64756 0.1548 0.74383 0.0
C2194 C 0.68855 0.14509 0.72152 0.0
H2195 H 0.73372 0.14367 0.73346 0.0
C2196 C 0.69379 0.14954 0.70504 0.0
C2197 C 0.70313 0.14286 0.73187 0.0
C2198 C 0.69811 0.13728 0.74951 0.0
C2199 C 0.71317 0.15194 0.6987 0.0
C2200 C 0.72783 0.14994 0.70907 0.0
C2201 C 0.72258 0.1454 0.72553 0.0
C2202 C 0.74823 0.15149 0.70297 0.0
C2203 C 0.71742 0.15558 0.68082 0.0
C2204 C 0.7507 0.13356 0.70314 0.0
C2205 C 0.77025 0.13504 0.69853 0.0
C2206 C 0.78783 0.15447 0.69363 0.0
C2207 C 0.78532 0.17243 0.69328 0.0
C2208 C 0.76565 0.17092 0.69781 0.0
H2209 H 0.70387 0.1556 0.6742 0.0
H2210 H 0.73232 0.17098 0.67876 0.0
H2211 H 0.71995 0.1429 0.6757 0.0
H2212 H 0.73758 0.11844 0.70712 0.0
H2213 H 0.77181 0.12101 0.69915 0.0
H2214 H 0.92075 0.52206 0.74166 0.0
H2215 H 0.91171 0.55034 0.7385 0.0
H2216 H 0.84956 0.50486 0.71855 0.0
H2217 H 0.85844 0.47673 0.72204 0.0
H2218 H 0.90367 0.56293 0.70977 0.0
H2219 H 0.83259 0.53699 0.74941 0.0
H2220 H 0.85027 0.526 0.75085 0.0
H2221 H 0.82936 0.51653 0.73561 0.0
C2222 C 0.90498 0.51816 0.73702 0.0
C2223 C 0.89012 0.49739 0.73225 0.0
C2224 C 0.89986 0.53424 0.73516 0.0
C2225 C 0.87982 0.52966 0.72852 0.0
C2226 C 0.86485 0.5087 0.7241 0.0
H2227 H 0.82373 0.59853 0.68507 0.0
H2228 H 0.83267 0.57206 0.69468 0.0
C2229 C 0.86995 0.49267 0.72602 0.0
C2230 C 0.87532 0.54695 0.72467 0.0
H2231 H 0.83778 0.56258 0.72902 0.0
C2232 C 0.88944 0.56303 0.71417 0.0
C2233 C 0.85666 0.54699 0.73036 0.0
C2234 C 0.84148 0.53081 0.74231 0.0
C2235 C 0.88504 0.57874 0.70879 0.0
C2236 C 0.86613 0.57844 0.71416 0.0
C2237 C 0.85219 0.56263 0.72486 0.0
C2238 C 0.86054 0.59439 0.70864 0.0
C2239 C 0.90029 0.59519 0.69701 0.0
C2240 C 0.87315 0.61561 0.71348 0.0
C2241 C 0.86815 0.63077 0.70799 0.0
C2242 C 0.85045 0.62497 0.69752 0.0
C2243 C 0.83766 0.60359 0.6929 0.0
C2244 C 0.84264 0.58842 0.69846 0.0
H2245 H 0.91192 0.59093 0.69176 0.0
H2246 H 0.89114 0.59731 0.68699 0.0
H2247 H 0.90961 0.61062 0.7034 0.0
H2248 H 0.88688 0.62044 0.72149 0.0
H2249 H 0.87828 0.64705 0.71186 0.0
H2250 H 0.41656 0.883 0.23366 0.0
H2251 H 0.42898 0.89952 0.20717 0.0
H2252 H 0.49367 0.93692 0.2261 0.0
H2253 H 0.48134 0.92062 0.25271 0.0
H2254 H 0.44747 0.94213 0.19978 0.0
H2255 H 0.50358 0.913 0.18422 0.0
H2256 H 0.48392 0.90152 0.20021 0.0
H2257 H 0.50879 0.92589 0.20363 0.0
C2258 C 0.43345 0.89473 0.23223 0.0
C2259 C 0.44792 0.90048 0.24541 0.0
C2260 C 0.44055 0.9041 0.21702 0.0
C2261 C 0.46231 0.91931 0.21453 0.0
C2262 C 0.47688 0.9249 0.22758 0.0
H2263 H 0.53764 0.00411 0.13749 0.0
H2264 H 0.52401 0.9829 0.16202 0.0
C2265 C 0.4698 0.91554 0.24282 0.0
C2266 C 0.46947 0.93009 0.19855 0.0
H2267 H 0.50488 0.94016 0.1675 0.0
C2268 C 0.4599 0.94155 0.19265 0.0
C2269 C 0.48572 0.92939 0.18924 0.0
C2270 C 0.49599 0.91663 0.19454 0.0
C2271 C 0.46652 0.9528 0.178 0.0
C2272 C 0.48289 0.95225 0.16873 0.0
C2273 C 0.49231 0.94059 0.17455 0.0
C2274 C 0.4911 0.96438 0.15335 0.0
C2275 C 0.45642 0.96579 0.17287 0.0
C2276 C 0.47728 0.96077 0.14006 0.0
C2277 C 0.48501 0.97307 0.126 0.0
C2278 C 0.50677 0.9892 0.12489 0.0
C2279 C 0.5207 0.99218 0.13801 0.0
C2280 C 0.51296 0.97992 0.15203 0.0
H2281 H 0.44828 0.96882 0.18313 0.0
H2282 H 0.46873 0.98124 0.16779 0.0
H2283 H 0.44409 0.95705 0.16335 0.0
H2284 H 0.46045 0.94857 0.14062 0.0
H2285 H 0.4738 0.97032 0.11619 0.0
H2286 H 0.12137 0.53714 0.23381 0.0
H2287 H 0.10482 0.53336 0.20711 0.0
H2288 H 0.05989 0.55014 0.22752 0.0
H2289 H 0.07594 0.55344 0.25435 0.0
H2290 H 0.05933 0.50421 0.20065 0.0
H2291 H 0.08392 0.58768 0.18612 0.0
H2292 H 0.09803 0.58074 0.2009 0.0
H2293 H 0.07266 0.57874 0.20593 0.0
C2294 C 0.10799 0.54007 0.23264 0.0
C2295 C 0.09991 0.54548 0.24627 0.0
C2296 C 0.09866 0.53803 0.21735 0.0
C2297 C 0.08127 0.54164 0.21534 0.0
C2298 C 0.07355 0.54764 0.22878 0.0
H2299 H 0.99371 0.52768 0.13768 0.0
H2300 H 0.01491 0.53604 0.16267 0.0
C2301 C 0.08278 0.54956 0.2441 0.0
C2302 C 0.07015 0.53753 0.19946 0.0
H2303 H 0.05797 0.56112 0.16873 0.0
C2304 C 0.05914 0.51665 0.19358 0.0
C2305 C 0.06985 0.5538 0.19039 0.0
C2306 C 0.08187 0.57656 0.19604 0.0
C2307 C 0.04735 0.51146 0.17902 0.0
C2308 C 0.04707 0.52774 0.16987 0.0
C2309 C 0.05825 0.54868 0.17572 0.0
C2310 C 0.0348 0.52323 0.15443 0.0
C2311 C 0.03472 0.48849 0.17388 0.0
C2312 C 0.03919 0.5136 0.14137 0.0
C2313 C 0.02685 0.50845 0.12715 0.0
C2314 C 0.01004 0.51312 0.12561 0.0
C2315 C 0.0062 0.52344 0.13855 0.0
C2316 C 0.01844 0.52842 0.1528 0.0
H2317 H 0.03181 0.47768 0.18423 0.0
H2318 H 0.01889 0.4846 0.16851 0.0
H2319 H 0.04404 0.48537 0.16463 0.0
H2320 H 0.05206 0.50987 0.14221 0.0
H2321 H 0.03021 0.50041 0.11751 0.0
H2322 H 0.49814 0.56121 0.24965 0.0
H2323 H 0.50417 0.54972 0.22335 0.0
H2324 H 0.43892 0.53086 0.20894 0.0
H2325 H 0.433 0.54312 0.23514 0.0
H2326 H 0.48435 0.51127 0.20797 0.0
H2327 H 0.47385 0.57008 0.1722 0.0
H2328 H 0.47658 0.57161 0.19397 0.0
H2329 H 0.45133 0.55289 0.18469 0.0
C2330 C 0.48507 0.55474 0.24087 0.0
C2331 C 0.46518 0.55341 0.24444 0.0
C2332 C 0.48851 0.54804 0.22585 0.0
C2333 C 0.47217 0.53982 0.214 0.0
C2334 C 0.45195 0.5376 0.21774 0.0
H2335 H 0.48182 0.5014 0.11433 0.0
H2336 H 0.46758 0.50727 0.13963 0.0
C2337 C 0.4485 0.54436 0.2328 0.0
C2338 C 0.47667 0.53389 0.19778 0.0
H2339 H 0.48165 0.54686 0.15759 0.0
C2340 C 0.48362 0.51897 0.19696 0.0
C2341 C 0.47571 0.54392 0.18337 0.0
C2342 C 0.46914 0.56065 0.18352 0.0
C2343 C 0.48995 0.51406 0.18221 0.0
C2344 C 0.48956 0.5245 0.16791 0.0
C2345 C 0.48194 0.5389 0.16859 0.0
C2346 C 0.49818 0.52154 0.15236 0.0
C2347 C 0.49715 0.4978 0.18207 0.0
C2348 C 0.5202 0.52809 0.15099 0.0
C2349 C 0.52844 0.525 0.13655 0.0
C2350 C 0.51484 0.51522 0.12308 0.0
C2351 C 0.49283 0.50912 0.12437 0.0
C2352 C 0.48461 0.51234 0.13886 0.0
H2353 H 0.49134 0.48744 0.1929 0.0
H2354 H 0.49122 0.48773 0.17101 0.0
H2355 H 0.51506 0.50605 0.18208 0.0
H2356 H 0.53106 0.53565 0.16115 0.0
H2357 H 0.54555 0.53038 0.13592 0.0
H2358 H 0.9459 0.48448 0.77744 0.0
H2359 H 0.9618 0.49465 0.80466 0.0
H2360 H 0.91105 0.4355 0.82347 0.0
H2361 H 0.89531 0.42514 0.7963 0.0
H2362 H 0.94689 0.49913 0.83479 0.0
H2363 H 0.96533 0.43361 0.83544 0.0
H2364 H 0.9569 0.4413 0.81731 0.0
H2365 H 0.93729 0.42495 0.83216 0.0
C2366 C 0.93796 0.47382 0.78745 0.0
C2367 C 0.91952 0.45391 0.78474 0.0
C2368 C 0.94708 0.47961 0.80296 0.0
C2369 C 0.93789 0.46561 0.81601 0.0
C2370 C 0.91874 0.4463 0.8135 0.0
H2371 H 0.977 0.46587 0.91588 0.0
H2372 H 0.95672 0.45885 0.89045 0.0
C2373 C 0.90972 0.44043 0.798 0.0
C2374 C 0.94885 0.47074 0.83204 0.0
H2375 H 0.97181 0.45317 0.8598 0.0
C2376 C 0.95238 0.48912 0.84025 0.0
C2377 C 0.95611 0.4577 0.83911 0.0
C2378 C 0.95393 0.4384 0.8305 0.0
C2379 C 0.96266 0.49461 0.85548 0.0
C2380 C 0.96975 0.48148 0.86256 0.0
C2381 C 0.9662 0.46312 0.85437 0.0
C2382 C 0.98138 0.48668 0.8783 0.0
C2383 C 0.9656 0.51424 0.864 0.0
C2384 C 1.00197 0.50463 0.87985 0.0
C2385 C 0.0136 0.50867 0.89435 0.0
C2386 C 0.00485 0.4948 0.90755 0.0
C2387 C 0.98408 0.47698 0.90601 0.0
C2388 C 0.97251 0.4729 0.89148 0.0
H2389 H 0.95493 0.51979 0.85883 0.0
H2390 H 0.96222 0.51129 0.87715 0.0
H2391 H 0.9826 0.52712 0.86265 0.0
H2392 H 0.00925 0.51528 0.86974 0.0
H2393 H 0.02949 0.52261 0.8952 0.0
H2394 H 0.55773 0.43835 0.79295 0.0
H2395 H 0.54338 0.44217 0.81899 0.0
H2396 H 0.55809 0.50514 0.80571 0.0
H2397 H 0.57224 0.5014 0.77971 0.0
H2398 H 0.56672 0.47632 0.84353 0.0
H2399 H 0.49276 0.47336 0.81902 0.0
H2400 H 0.50751 0.46324 0.80796 0.0
H2401 H 0.5175 0.49125 0.80891 0.0
C2402 C 0.55774 0.45293 0.79554 0.0
C2403 C 0.56615 0.46958 0.78426 0.0
C2404 C 0.54965 0.45513 0.81044 0.0
C2405 C 0.54953 0.47388 0.81421 0.0
C2406 C 0.55785 0.49047 0.80298 0.0
H2407 H 0.50797 0.52488 0.89153 0.0
H2408 H 0.52148 0.51734 0.86668 0.0
C2409 C 0.56608 0.48836 0.78818 0.0
C2410 C 0.541 0.47636 0.82996 0.0
H2411 H 0.50147 0.48372 0.84651 0.0
C2412 C 0.55235 0.47775 0.84425 0.0
C2413 C 0.52231 0.47831 0.83082 0.0
C2414 C 0.50915 0.4763 0.8159 0.0
C2415 C 0.54591 0.48176 0.85934 0.0
C2416 C 0.5273 0.48393 0.86019 0.0
C2417 C 0.51576 0.48213 0.84589 0.0
C2418 C 0.51979 0.48867 0.87565 0.0
C2419 C 0.55958 0.48444 0.87409 0.0
C2420 C 0.51427 0.47507 0.88903 0.0
C2421 C 0.50662 0.47942 0.90332 0.0
C2422 C 0.50401 0.49729 0.90444 0.0
C2423 C 0.50956 0.51086 0.89102 0.0
C2424 C 0.51734 0.5066 0.87681 0.0
H2425 H 0.57612 0.48805 0.87074 0.0
H2426 H 0.56089 0.49732 0.88208 0.0
H2427 H 0.55199 0.46949 0.8811 0.0
H2428 H 0.51549 0.46086 0.88833 0.0
H2429 H 0.5022 0.46849 0.91335 0.0
H2430 H 0.57889 0.12278 0.79531 0.0
H2431 H 0.57285 0.10399 0.82111 0.0
H2432 H 0.50785 0.05908 0.80602 0.0
H2433 H 0.51398 0.07724 0.78014 0.0
H2434 H 0.54303 0.09739 0.84476 0.0
H2435 H 0.52893 0.02009 0.82177 0.0
H2436 H 0.5406 0.04358 0.8094 0.0
H2437 H 0.51178 0.02818 0.81202 0.0
C2438 C 0.56347 0.10865 0.79736 0.0
C2439 C 0.54693 0.10156 0.7856 0.0
C2440 C 0.55997 0.09801 0.81217 0.0
C2441 C 0.53997 0.07993 0.81549 0.0
C2442 C 0.52357 0.07271 0.80369 0.0
H2443 H 0.47016 0.997 0.89384 0.0
H2444 H 0.48332 0.01775 0.86909 0.0
C2445 C 0.52703 0.0833 0.78893 0.0
C2446 C 0.53573 0.06907 0.83149 0.0
H2447 H 0.51695 0.02044 0.84882 0.0
C2448 C 0.53762 0.08062 0.84568 0.0
C2449 C 0.52873 0.04719 0.83275 0.0
C2450 C 0.5276 0.03408 0.81819 0.0
C2451 C 0.53178 0.07072 0.86093 0.0
C2452 C 0.52403 0.0487 0.86207 0.0
C2453 C 0.52274 0.03728 0.84795 0.0
C2454 C 0.51621 0.03692 0.8776 0.0
C2455 C 0.53311 0.08369 0.87563 0.0
C2456 C 0.53029 0.04081 0.89074 0.0
C2457 C 0.52283 0.02878 0.90497 0.0
C2458 C 0.50113 0.01253 0.90631 0.0
C2459 C 0.48704 0.00906 0.8932 0.0
C2460 C 0.49452 0.021 0.87902 0.0
H2461 H 0.5355 0.09948 0.87228 0.0
H2462 H 0.51821 0.07524 0.88299 0.0
H2463 H 0.54696 0.08616 0.88331 0.0
H2464 H 0.54718 0.0528 0.88986 0.0
H2465 H 0.53421 0.03177 0.9147 0.0
H2466 H 0.08349 0.21938 0.56732 0.0
H2467 H 0.09595 0.23622 0.54094 0.0
H2468 H 0.1607 0.27305 0.55989 0.0
H2469 H 0.14833 0.25638 0.5864 0.0
H2470 H 0.11448 0.27864 0.5336 0.0
H2471 H 0.17058 0.24955 0.5179 0.0
H2472 H 0.15101 0.23809 0.53395 0.0
H2473 H 0.1759 0.26248 0.5373 0.0
C2474 C 0.1004 0.23108 0.56593 0.0
C2475 C 0.11487 0.23653 0.57908 0.0
C2476 C 0.10752 0.24063 0.55077 0.0
C2477 C 0.12932 0.25576 0.54831 0.0
C2478 C 0.14389 0.2611 0.56134 0.0
H2479 H 0.20416 0.34055 0.47095 0.0
H2480 H 0.19078 0.31945 0.49555 0.0
C2481 C 0.13678 0.25154 0.57653 0.0
C2482 C 0.13652 0.26663 0.53234 0.0
H2483 H 0.17179 0.27667 0.50118 0.0
C2484 C 0.1269 0.27806 0.52645 0.0
C2485 C 0.15274 0.26594 0.52299 0.0
C2486 C 0.16305 0.2532 0.52825 0.0
C2487 C 0.13342 0.28925 0.51176 0.0
C2488 C 0.14976 0.28869 0.50245 0.0
C2489 C 0.15925 0.2771 0.50827 0.0
C2490 C 0.15783 0.30073 0.48701 0.0
C2491 C 0.12324 0.30217 0.50663 0.0
C2492 C 0.14392 0.29697 0.47375 0.0
C2493 C 0.15152 0.30918 0.45963 0.0
C2494 C 0.17323 0.3254 0.45843 0.0
C2495 C 0.18725 0.32854 0.47152 0.0
C2496 C 0.17965 0.31635 0.48559 0.0
H2497 H 0.11512 0.30521 0.5169 0.0
H2498 H 0.13551 0.31761 0.50151 0.0
H2499 H 0.11089 0.29336 0.49714 0.0
H2500 H 0.12711 0.2847 0.47437 0.0
H2501 H 0.14023 0.30631 0.44984 0.0
H2502 H 0.74429 0.89061 0.58622 0.0
H2503 H 0.7265 0.88669 0.55996 0.0
H2504 H 0.76348 0.86041 0.53941 0.0
H2505 H 0.78154 0.86452 0.56548 0.0
H2506 H 0.74469 0.90241 0.52795 0.0
H2507 H 0.69926 0.81451 0.53147 0.0
H2508 H 0.71197 0.8312 0.54894 0.0
H2509 H 0.72795 0.82668 0.53443 0.0
C2510 C 0.74887 0.88429 0.57605 0.0
C2511 C 0.76417 0.87766 0.57799 0.0
C2512 C 0.73863 0.88198 0.56109 0.0
C2513 C 0.74343 0.87293 0.54785 0.0
C2514 C 0.75924 0.86704 0.54958 0.0
H2515 H 0.69121 0.83301 0.45097 0.0
H2516 H 0.71214 0.84153 0.47612 0.0
C2517 C 0.7695 0.86936 0.56449 0.0
C2518 C 0.73154 0.86912 0.53233 0.0
H2519 H 0.69668 0.82967 0.50688 0.0
C2520 C 0.73412 0.88653 0.52334 0.0
C2521 C 0.71781 0.84837 0.52638 0.0
C2522 C 0.71387 0.82907 0.53583 0.0
C2523 C 0.72365 0.88375 0.50833 0.0
C2524 C 0.70988 0.86297 0.50238 0.0
C2525 C 0.70728 0.84558 0.51144 0.0
C2526 C 0.69789 0.85881 0.48683 0.0
C2527 C 0.72784 0.90307 0.49882 0.0
C2528 C 0.68284 0.86561 0.48452 0.0
C2529 C 0.67099 0.86094 0.47009 0.0
C2530 C 0.67379 0.84919 0.45772 0.0
C2531 C 0.68887 0.84237 0.46011 0.0
C2532 C 0.70075 0.8471 0.47453 0.0
H2533 H 0.74306 0.91734 0.50273 0.0
H2534 H 0.72879 0.90057 0.48563 0.0
H2535 H 0.71438 0.90627 0.50082 0.0
H2536 H 0.68003 0.87428 0.49397 0.0
H2537 H 0.65966 0.86659 0.46861 0.0
H2538 H 0.12541 0.86076 0.58614 0.0
H2539 H 0.13277 0.85017 0.55971 0.0
H2540 H 0.13757 0.90622 0.53817 0.0
H2541 H 0.13104 0.91718 0.56464 0.0
H2542 H 0.11473 0.84144 0.53009 0.0
H2543 H 0.19536 0.91363 0.52676 0.0
H2544 H 0.17913 0.9065 0.54481 0.0
H2545 H 0.17393 0.91958 0.52837 0.0
C2546 C 0.12775 0.87063 0.57569 0.0
C2547 C 0.12789 0.88989 0.57744 0.0
C2548 C 0.13202 0.86462 0.56061 0.0
C2549 C 0.13634 0.87769 0.547 0.0
C2550 C 0.13502 0.89622 0.54856 0.0
H2551 H 0.14613 0.83845 0.44796 0.0
H2552 H 0.13379 0.84785 0.47257 0.0
C2553 C 0.13111 0.90239 0.56365 0.0
C2554 C 0.14305 0.8724 0.53139 0.0
H2555 H 0.18332 0.89202 0.50322 0.0
C2556 C 0.12975 0.85248 0.52422 0.0
C2557 C 0.16284 0.88665 0.52384 0.0
C2558 C 0.17875 0.90768 0.53141 0.0
C2559 C 0.13559 0.84647 0.5097 0.0
C2560 C 0.15502 0.86103 0.50187 0.0
C2561 C 0.16832 0.88092 0.50908 0.0
C2562 C 0.1625 0.85572 0.48662 0.0
C2563 C 0.1212 0.82435 0.50323 0.0
C2564 C 0.18313 0.85787 0.48599 0.0
C2565 C 0.1905 0.8531 0.47179 0.0
C2566 C 0.17736 0.84588 0.45782 0.0
C2567 C 0.1568 0.84407 0.45839 0.0
C2568 C 0.14953 0.8491 0.47258 0.0
H2569 H 0.11068 0.81348 0.51284 0.0
H2570 H 0.11058 0.8248 0.49359 0.0
H2571 H 0.13086 0.81771 0.49795 0.0
H2572 H 0.19358 0.86316 0.49656 0.0
H2573 H 0.20662 0.85523 0.47178 0.0
H2574 H 0.61397 0.77248 0.11577 0.0
H2575 H 0.62949 0.78389 0.14276 0.0
H2576 H 0.59375 0.81667 0.14905 0.0
H2577 H 0.57761 0.80482 0.12196 0.0
H2578 H 0.65441 0.82649 0.15413 0.0
H2579 H 0.5797 0.77914 0.19025 0.0
H2580 H 0.58162 0.77312 0.16928 0.0
H2581 H 0.57871 0.79551 0.17438 0.0
C2582 C 0.6091 0.78185 0.12295 0.0
C2583 C 0.5943 0.78749 0.11679 0.0
C2584 C 0.61814 0.7885 0.13834 0.0
C2585 C 0.61259 0.80091 0.14797 0.0
C2586 C 0.598 0.80683 0.14188 0.0
H2587 H 0.65999 0.84213 0.24768 0.0
H2588 H 0.64119 0.83734 0.22174 0.0
C2589 C 0.58894 0.8002 0.12638 0.0
C2590 C 0.62264 0.80781 0.16424 0.0
H2591 H 0.61223 0.79904 0.20472 0.0
C2592 C 0.64517 0.82068 0.16521 0.0
C2593 C 0.61051 0.8003 0.17865 0.0
C2594 C 0.5863 0.78615 0.17822 0.0
C2595 C 0.65599 0.82573 0.18018 0.0
C2596 C 0.644 0.81738 0.19454 0.0
C2597 C 0.62137 0.80531 0.19366 0.0
C2598 C 0.65484 0.8199 0.21041 0.0
C2599 C 0.68023 0.83977 0.18047 0.0
C2600 C 0.66833 0.81126 0.21273 0.0
C2601 C 0.67895 0.81383 0.2275 0.0
C2602 C 0.67626 0.82505 0.24034 0.0
C2603 C 0.66232 0.83329 0.2381 0.0
C2604 C 0.65165 0.83067 0.22327 0.0
H2605 H 0.68616 0.84963 0.16939 0.0
H2606 H 0.68559 0.85037 0.19126 0.0
H2607 H 0.68785 0.82973 0.18103 0.0
H2608 H 0.67061 0.80246 0.20308 0.0
H2609 H 0.68915 0.80685 0.22891 0.0
H2610 H 0.20155 0.7864 0.11172 0.0
H2611 H 0.1885 0.79155 0.13783 0.0
H2612 H 0.25314 0.82033 0.15734 0.0
H2613 H 0.26628 0.81516 0.13138 0.0
H2614 H 0.19063 0.77728 0.1691 0.0
H2615 H 0.23588 0.86513 0.16639 0.0
H2616 H 0.2323 0.84868 0.14893 0.0
H2617 H 0.25236 0.85311 0.16401 0.0
C2618 C 0.21296 0.79367 0.1216 0.0
C2619 C 0.23502 0.80057 0.11938 0.0
C2620 C 0.20549 0.79668 0.1365 0.0
C2621 C 0.21991 0.8067 0.14945 0.0
C2622 C 0.2418 0.81305 0.14741 0.0
H2623 H 0.20635 0.84495 0.24704 0.0
H2624 H 0.21953 0.8365 0.22233 0.0
C2625 C 0.24929 0.81008 0.13254 0.0
C2626 C 0.21209 0.81055 0.16508 0.0
H2627 H 0.21803 0.84982 0.19101 0.0
C2628 C 0.19656 0.79314 0.17387 0.0
C2629 C 0.21988 0.83125 0.17132 0.0
C2630 C 0.23588 0.85065 0.16213 0.0
C2631 C 0.18884 0.79584 0.18884 0.0
C2632 C 0.19658 0.81655 0.19505 0.0
C2633 C 0.21217 0.83395 0.18628 0.0
C2634 C 0.18833 0.82062 0.21039 0.0
C2635 C 0.17277 0.77648 0.19801 0.0
C2636 C 0.16644 0.81454 0.2119 0.0
C2637 C 0.15885 0.81926 0.22602 0.0
C2638 C 0.17302 0.8303 0.23893 0.0
C2639 C 0.19494 0.83621 0.23743 0.0
C2640 C 0.20252 0.83151 0.22327 0.0
H2641 H 0.17313 0.76208 0.19403 0.0
H2642 H 0.17595 0.77863 0.21126 0.0
H2643 H 0.15626 0.77376 0.19574 0.0
H2644 H 0.15524 0.80647 0.20202 0.0
H2645 H 0.14184 0.81428 0.2268 0.0
H2646 H 0.17879 0.40995 0.11293 0.0
H2647 H 0.17329 0.39425 0.13981 0.0
H2648 H 0.23942 0.43868 0.15246 0.0
H2649 H 0.24505 0.45482 0.1255 0.0
H2650 H 0.22422 0.39523 0.16229 0.0
H2651 H 0.16863 0.42351 0.1815 0.0
H2652 H 0.16141 0.40948 0.1625 0.0
H2653 H 0.18625 0.4343 0.16423 0.0
C2654 C 0.1922 0.41652 0.12142 0.0
C2655 C 0.21229 0.43391 0.11707 0.0
C2656 C 0.18901 0.40749 0.13681 0.0
C2657 C 0.20579 0.41555 0.1483 0.0
C2658 C 0.22617 0.43229 0.14384 0.0
H2659 H 0.20358 0.36819 0.24749 0.0
H2660 H 0.21579 0.38964 0.2228 0.0
C2661 C 0.22939 0.44143 0.12838 0.0
C2662 C 0.20175 0.40652 0.16496 0.0
H2663 H 0.16961 0.3973 0.19805 0.0
C2664 C 0.21249 0.39588 0.17022 0.0
C2665 C 0.18648 0.40744 0.17533 0.0
C2666 C 0.17515 0.41946 0.17071 0.0
C2667 C 0.20761 0.38528 0.18521 0.0
C2668 C 0.19184 0.38568 0.19538 0.0
C2669 C 0.18163 0.3969 0.19029 0.0
C2670 C 0.18462 0.37344 0.2108 0.0
C2671 C 0.21866 0.37296 0.18971 0.0
C2672 C 0.16289 0.35773 0.2126 0.0
C2673 C 0.15584 0.34566 0.22675 0.0
C2674 C 0.17031 0.34898 0.23954 0.0
C2675 C 0.19197 0.36519 0.23793 0.0
C2676 C 0.19904 0.37731 0.22372 0.0
H2677 H 0.22663 0.37035 0.17912 0.0
H2678 H 0.23124 0.38195 0.19901 0.0
H2679 H 0.20694 0.35734 0.19489 0.0
H2680 H 0.15138 0.35456 0.20292 0.0
H2681 H 0.13896 0.33364 0.22763 0.0
H2682 H 0.78681 0.54585 0.90182 0.0
H2683 H 0.7991 0.56339 0.87557 0.0
H2684 H 0.7916 0.61534 0.8927 0.0
H2685 H 0.77864 0.59751 0.91872 0.0
H2686 H 0.77524 0.60443 0.86357 0.0
H2687 H 0.85612 0.61163 0.8626 0.0
H2688 H 0.83476 0.58473 0.86463 0.0
H2689 H 0.8395 0.60366 0.88047 0.0
C2690 C 0.78807 0.56115 0.90004 0.0
C2691 C 0.78183 0.57033 0.91238 0.0
C2692 C 0.79518 0.57123 0.88502 0.0
C2693 C 0.79668 0.59094 0.88213 0.0
C2694 C 0.79064 0.60018 0.89455 0.0
H2695 H 0.86722 0.67966 0.80582 0.0
H2696 H 0.85458 0.65864 0.8304 0.0
C2697 C 0.78324 0.58998 0.90945 0.0
C2698 C 0.80372 0.60165 0.86606 0.0
H2699 H 0.84443 0.62007 0.83821 0.0
C2700 C 0.79041 0.60788 0.85806 0.0
C2701 C 0.82361 0.60639 0.85885 0.0
C2702 C 0.83942 0.60145 0.86715 0.0
C2703 C 0.79641 0.61877 0.84323 0.0
C2704 C 0.81602 0.623 0.83579 0.0
C2705 C 0.82928 0.61666 0.84374 0.0
C2706 C 0.82376 0.63517 0.82034 0.0
C2707 C 0.78199 0.62631 0.83604 0.0
C2708 C 0.81094 0.62886 0.8062 0.0
C2709 C 0.81795 0.64121 0.79212 0.0
C2710 C 0.83813 0.66003 0.79174 0.0
C2711 C 0.85133 0.66567 0.80569 0.0
C2712 C 0.84421 0.65348 0.81978 0.0
H2713 H 0.77115 0.62712 0.84528 0.0
H2714 H 0.79164 0.64221 0.83052 0.0
H2715 H 0.77168 0.61502 0.82646 0.0
H2716 H 0.79536 0.61448 0.80609 0.0
H2717 H 0.80727 0.63628 0.78169 0.0
H2718 H 0.41148 0.22162 0.92027 0.0
H2719 H 0.39472 0.218 0.89361 0.0
H2720 H 0.43388 0.19372 0.87381 0.0
H2721 H 0.45086 0.19748 0.90031 0.0
H2722 H 0.41348 0.23473 0.86222 0.0
H2723 H 0.37088 0.14676 0.86419 0.0
H2724 H 0.38267 0.16307 0.88198 0.0
H2725 H 0.39955 0.15972 0.86758 0.0
C2726 C 0.41675 0.21581 0.91019 0.0
C2727 C 0.43234 0.20962 0.91246 0.0
C2728 C 0.4071 0.21367 0.89499 0.0
C2729 C 0.41279 0.20524 0.88183 0.0
C2730 C 0.42894 0.19984 0.88389 0.0
H2731 H 0.36262 0.16654 0.78404 0.0
H2732 H 0.38385 0.17544 0.80909 0.0
C2733 C 0.43859 0.20198 0.89905 0.0
C2734 C 0.40144 0.20149 0.86606 0.0
H2735 H 0.3683 0.16223 0.83978 0.0
C2736 C 0.40356 0.2189 0.8573 0.0
C2737 C 0.38854 0.18081 0.8597 0.0
C2738 C 0.38506 0.16147 0.86887 0.0
C2739 C 0.39337 0.21618 0.84218 0.0
C2740 C 0.38038 0.19547 0.83584 0.0
C2741 C 0.37832 0.17809 0.84462 0.0
C2742 C 0.36843 0.19133 0.82028 0.0
C2743 C 0.39695 0.23552 0.83298 0.0
C2744 C 0.35267 0.19727 0.81826 0.0
C2745 C 0.34063 0.19236 0.80391 0.0
C2746 C 0.34395 0.18122 0.79132 0.0
C2747 C 0.35984 0.17539 0.79337 0.0
C2748 C 0.3719 0.18034 0.80772 0.0
H2749 H 0.41184 0.24999 0.83713 0.0
H2750 H 0.3982 0.23349 0.81976 0.0
H2751 H 0.38307 0.23807 0.83504 0.0
H2752 H 0.3494 0.20538 0.8279 0.0
H2753 H 0.32867 0.19727 0.80269 0.0
H2754 H 0.80197 0.25177 0.89771 0.0
H2755 H 0.80799 0.24084 0.8711 0.0
H2756 H 0.79305 0.1802 0.89064 0.0
H2757 H 0.78667 0.19099 0.91728 0.0
H2758 H 0.83876 0.23135 0.86392 0.0
H2759 H 0.75882 0.1622 0.84888 0.0
H2760 H 0.76254 0.18049 0.86505 0.0
H2761 H 0.7692 0.15998 0.86816 0.0
C2762 C 0.7997 0.236 0.89628 0.0
C2763 C 0.79389 0.22225 0.90961 0.0
C2764 C 0.80312 0.22976 0.88106 0.0
C2765 C 0.80082 0.20962 0.87877 0.0
C2766 C 0.79446 0.19563 0.89196 0.0
H2767 H 0.83736 0.15221 0.80201 0.0
H2768 H 0.82444 0.16045 0.82691 0.0
C2769 C 0.79086 0.20182 0.90721 0.0
C2770 C 0.80678 0.20408 0.86295 0.0
H2771 H 0.78835 0.16744 0.83225 0.0
C2772 C 0.82764 0.21747 0.85694 0.0
C2773 C 0.79234 0.18591 0.85384 0.0
C2774 C 0.76941 0.17142 0.85921 0.0
C2775 C 0.83458 0.21304 0.84229 0.0
C2776 C 0.82021 0.19483 0.83324 0.0
C2777 C 0.79934 0.18141 0.8392 0.0
C2778 C 0.82682 0.18931 0.81775 0.0
C2779 C 0.85745 0.22762 0.83678 0.0
C2780 C 0.83205 0.20258 0.80421 0.0
C2781 C 0.83951 0.19795 0.78995 0.0
C2782 C 0.84191 0.17994 0.78897 0.0
C2783 C 0.83605 0.16638 0.80243 0.0
C2784 C 0.8285 0.17098 0.81664 0.0
H2785 H 0.86778 0.2382 0.84672 0.0
H2786 H 0.86484 0.21839 0.83213 0.0
H2787 H 0.8573 0.2377 0.82679 0.0
H2788 H 0.83062 0.21669 0.80473 0.0
H2789 H 0.84397 0.20879 0.77986 0.0
H2790 H 0.27841 0.11472 0.44718 0.0
H2791 H 0.2972 0.12835 0.47296 0.0
H2792 H 0.24866 0.14352 0.4878 0.0
H2793 H 0.22916 0.12898 0.46226 0.0
H2794 H 0.31483 0.16705 0.48782 0.0
H2795 H 0.24744 0.10611 0.5246 0.0
H2796 H 0.2481 0.10438 0.50282 0.0
H2797 H 0.24047 0.12199 0.51214 0.0
C2798 C 0.27164 0.12084 0.45595 0.0
C2799 C 0.25207 0.12042 0.45275 0.0
C2800 C 0.2825 0.12878 0.47064 0.0
C2801 C 0.2741 0.13653 0.48246 0.0
C2802 C 0.25517 0.13715 0.47901 0.0
H2803 H 0.3236 0.17883 0.58126 0.0
H2804 H 0.3035 0.17238 0.55578 0.0
C2805 C 0.24419 0.12909 0.46431 0.0
C2806 C 0.28501 0.14335 0.49847 0.0
H2807 H 0.27844 0.13125 0.5388 0.0
C2808 C 0.30683 0.15931 0.49898 0.0
C2809 C 0.27455 0.13322 0.51303 0.0
C2810 C 0.25141 0.11535 0.51319 0.0
C2811 C 0.31854 0.16516 0.51359 0.0
C2812 C 0.30821 0.15469 0.52803 0.0
C2813 C 0.28625 0.13924 0.52766 0.0
C2814 C 0.3203 0.15865 0.54346 0.0
C2815 C 0.34195 0.18239 0.51347 0.0
C2816 C 0.33607 0.15269 0.54502 0.0
C2817 C 0.34736 0.15605 0.55958 0.0
C2818 C 0.34314 0.16553 0.57291 0.0
C2819 C 0.32712 0.1713 0.57133 0.0
C2820 C 0.31572 0.16778 0.55675 0.0
H2821 H 0.34602 0.19222 0.50238 0.0
H2822 H 0.34585 0.19284 0.52427 0.0
H2823 H 0.35231 0.17505 0.51385 0.0
H2824 H 0.33952 0.14522 0.53498 0.0
H2825 H 0.35921 0.15097 0.56044 0.0
H2826 H 0.93363 0.14758 0.46362 0.0
H2827 H 0.92006 0.1517 0.48975 0.0
H2828 H 0.85559 0.12291 0.4699 0.0
H2829 H 0.86905 0.11886 0.44365 0.0
H2830 H 0.89957 0.17485 0.49596 0.0
H2831 H 0.84646 0.09047 0.51223 0.0
H2832 H 0.86661 0.09873 0.49655 0.0
H2833 H 0.84119 0.09732 0.49252 0.0
C2834 C 0.91654 0.1421 0.46479 0.0
C2835 C 0.90244 0.13293 0.45148 0.0
C2836 C 0.9088 0.14438 0.47977 0.0
C2837 C 0.88677 0.13741 0.48186 0.0
C2838 C 0.87258 0.128 0.46869 0.0
H2839 H 0.80854 0.14641 0.55791 0.0
H2840 H 0.82277 0.13906 0.53336 0.0
C2841 C 0.88031 0.1257 0.45367 0.0
C2842 C 0.87891 0.14105 0.49755 0.0
H2843 H 0.84358 0.11598 0.52848 0.0
C2844 C 0.88745 0.16197 0.50314 0.0
C2845 C 0.86304 0.12424 0.50688 0.0
C2846 C 0.8539 0.1014 0.50185 0.0
C2847 C 0.8802 0.16658 0.51758 0.0
C2848 C 0.86426 0.14978 0.52689 0.0
C2849 C 0.85581 0.12884 0.52136 0.0
C2850 C 0.8557 0.15368 0.54214 0.0
C2851 C 0.88921 0.18946 0.52246 0.0
C2852 C 0.86938 0.16399 0.55541 0.0
C2853 C 0.86133 0.1684 0.56945 0.0
C2854 C 0.83936 0.16249 0.57054 0.0
C2855 C 0.8256 0.15157 0.55739 0.0
C2856 C 0.83368 0.1472 0.54338 0.0
H2857 H 0.89704 0.20036 0.51213 0.0
H2858 H 0.87633 0.19219 0.52734 0.0
H2859 H 0.90159 0.19359 0.53208 0.0
H2860 H 0.88636 0.16877 0.55486 0.0
H2861 H 0.87242 0.17689 0.57928 0.0
H2862 H 0.91204 0.78814 0.4596 0.0
H2863 H 0.90664 0.77026 0.48579 0.0
H2864 H 0.84091 0.72557 0.47223 0.0
H2865 H 0.84634 0.74282 0.44602 0.0
H2866 H 0.87732 0.76454 0.51006 0.0
H2867 H 0.8624 0.68665 0.48781 0.0
H2868 H 0.87397 0.70991 0.47519 0.0
H2869 H 0.8452 0.69473 0.47812 0.0
C2870 C 0.89657 0.77427 0.46209 0.0
C2871 C 0.87963 0.76696 0.45066 0.0
C2872 C 0.89345 0.76415 0.47712 0.0
C2873 C 0.87344 0.74638 0.48096 0.0
C2874 C 0.85662 0.73898 0.4695 0.0
H2875 H 0.80521 0.6648 0.56024 0.0
H2876 H 0.81798 0.68524 0.53532 0.0
C2877 C 0.8597 0.74905 0.45454 0.0
C2878 C 0.86966 0.73592 0.49709 0.0
H2879 H 0.85114 0.68765 0.51497 0.0
C2880 C 0.87189 0.74779 0.51117 0.0
C2881 C 0.86263 0.71406 0.49859 0.0
C2882 C 0.86112 0.70064 0.48414 0.0
C2883 C 0.86633 0.7382 0.52655 0.0
C2884 C 0.85854 0.7162 0.52793 0.0
C2885 C 0.85695 0.70449 0.51392 0.0
C2886 C 0.85094 0.70471 0.5436 0.0
C2887 C 0.86798 0.7515 0.54112 0.0
C2888 C 0.86518 0.70889 0.55669 0.0
C2889 C 0.85793 0.69705 0.57103 0.0
C2890 C 0.83631 0.6807 0.57252 0.0
C2891 C 0.82205 0.67695 0.55947 0.0
C2892 C 0.8293 0.68872 0.5452 0.0
H2893 H 0.87027 0.76719 0.53761 0.0
H2894 H 0.85326 0.74321 0.54869 0.0
H2895 H 0.88202 0.75416 0.54866 0.0
H2896 H 0.88204 0.72093 0.55568 0.0
H2897 H 0.86943 0.70025 0.58072 0.0
loop_
_geom_bond_atom_site_label_1
_geom_bond_atom_site_label_2
_geom_bond_distance
_geom_bond_site_symmetry_2
_ccdc_geom_bond_type
H0 C3 0.929 . S
H1 C6 0.929 . S
H2 C8 0.930 . S
C3 H0 0.929 . S
C3 C4 1.398 . S
C3 C5 1.396 . S
C4 C3 1.398 . S
C4 C8 1.407 . S
C5 C3 1.396 . S
C5 C6 1.394 . S
C6 H1 0.929 . S
C6 C5 1.394 . S
C6 C7 1.382 . S
C7 C6 1.382 . S
C7 C8 1.392 . S
C7 N9 1.420 . S
C8 H2 0.930 . S
C8 C4 1.407 . S
C8 C7 1.392 . S
N9 C7 1.420 . S
N9 C10 1.244 . S
C10 N9 1.244 . S
H11 C14 0.929 . S
H12 C17 0.929 . S
H13 C19 0.930 . S
C14 H11 0.929 . S
C14 C15 1.398 . S
C14 C16 1.396 . S
C15 C14 1.398 . S
C15 C19 1.407 . S
C16 C14 1.396 . S
C16 C17 1.394 . S
C17 H12 0.929 . S
C17 C16 1.394 . S
C17 C18 1.382 . S
C18 C17 1.382 . S
C18 C19 1.392 . S
C18 N20 1.420 . S
C19 H13 0.930 . S
C19 C15 1.407 . S
C19 C18 1.392 . S
N20 C18 1.420 . S
N20 C21 1.244 . S
C21 N20 1.244 . S
H22 C25 0.929 . S
H23 C28 0.929 . S
H24 C30 0.930 . S
C25 H22 0.929 . S
C25 C26 1.398 . S
C25 C27 1.396 . S
C26 C25 1.398 . S
C26 C30 1.407 . S
C27 C25 1.396 . S
C27 C28 1.394 . S
C28 H23 0.929 . S
C28 C27 1.394 . S
C28 C29 1.382 . S
C29 C28 1.382 . S
C29 C30 1.392 . S
C29 N31 1.420 . S
C30 H24 0.930 . S
C30 C26 1.407 . S
C30 C29 1.392 . S
N31 C29 1.420 . S
N31 C32 1.244 . S
C32 N31 1.244 . S
H33 C36 0.929 . S
H34 C39 0.929 . S
H35 C41 0.930 . S
C36 H33 0.929 . S
C36 C37 1.398 . S
C36 C38 1.396 . S
C37 C36 1.398 . S
C37 C41 1.407 . S
C38 C36 1.396 . S
C38 C39 1.394 . S
C39 H34 0.929 . S
C39 C38 1.394 . S
C39 C40 1.382 . S
C40 C39 1.382 . S
C40 C41 1.392 . S
C40 N42 1.420 . S
C41 H35 0.930 . S
C41 C37 1.407 . S
C41 C40 1.392 . S
N42 C40 1.420 . S
N42 C43 1.244 . S
C43 N42 1.244 . S
H44 C47 0.929 . S
H45 C50 0.929 . S
H46 C52 0.930 . S
C47 H44 0.929 . S
C47 C48 1.398 . S
C47 C49 1.396 . S
C48 C47 1.398 . S
C48 C52 1.407 . S
C49 C47 1.396 . S
C49 C50 1.394 . S
C50 H45 0.929 . S
C50 C49 1.394 . S
C50 C51 1.382 . S
C51 C50 1.382 . S
C51 C52 1.392 . S
C51 N53 1.420 . S
C52 H46 0.930 . S
C52 C48 1.407 . S
C52 C51 1.392 . S
N53 C51 1.420 . S
N53 C54 1.244 . S
C54 N53 1.244 . S
H55 C58 0.929 . S
H56 C61 0.929 . S
H57 C63 0.930 . S
C58 H55 0.929 . S
C58 C59 1.398 . S
C58 C60 1.396 . S
C59 C58 1.398 . S
C59 C63 1.407 . S
C60 C58 1.396 . S
C60 C61 1.394 . S
C61 H56 0.929 . S
C61 C60 1.394 . S
C61 C62 1.382 . S
C62 C61 1.382 . S
C62 C63 1.392 . S
C62 N64 1.420 . S
C63 H57 0.930 . S
C63 C59 1.407 . S
C63 C62 1.392 . S
N64 C62 1.420 . S
N64 C65 1.244 . S
C65 N64 1.244 . S
H66 C69 0.929 . S
H67 C72 0.929 . S
H68 C74 0.930 . S
C69 H66 0.929 . S
C69 C70 1.398 . S
C69 C71 1.396 . S
C70 C69 1.398 . S
C70 C74 1.407 . S
C71 C69 1.396 . S
C71 C72 1.394 . S
C72 H67 0.929 . S
C72 C71 1.394 . S
C72 C73 1.382 . S
C73 C72 1.382 . S
C73 C74 1.392 . S
C73 N75 1.420 . S
C74 H68 0.930 . S
C74 C70 1.407 . S
C74 C73 1.392 . S
N75 C73 1.420 . S
N75 C76 1.244 . S
C76 N75 1.244 . S
H77 C80 0.929 . S
H78 C83 0.929 . S
H79 C85 0.930 . S
C80 H77 0.929 . S
C80 C81 1.398 . S
C80 C82 1.396 . S
C81 C80 1.398 . S
C81 C85 1.407 . S
C82 C80 1.396 . S
C82 C83 1.394 . S
C83 H78 0.929 . S
C83 C82 1.394 . S
C83 C84 1.382 . S
C84 C83 1.382 . S
C84 C85 1.392 . S
C84 N86 1.420 . S
C85 H79 0.930 . S
C85 C81 1.407 . S
C85 C84 1.392 . S
N86 C84 1.420 . S
N86 C87 1.244 . S
C87 N86 1.244 . S
H88 C91 0.929 . S
H89 C94 0.929 . S
H90 C96 0.930 . S
C91 H88 0.929 . S
C91 C92 1.398 . S
C91 C93 1.396 . S
C92 C91 1.398 . S
C92 C96 1.407 . S
C93 C91 1.396 . S
C93 C94 1.394 . S
C94 H89 0.929 . S
C94 C93 1.394 . S
C94 C95 1.382 . S
C95 C94 1.382 . S
C95 C96 1.392 . S
C95 N97 1.420 . S
C96 H90 0.930 . S
C96 C92 1.407 . S
C96 C95 1.392 . S
N97 C95 1.420 . S
N97 C98 1.244 . S
C98 N97 1.244 . S
H99 C102 0.929 . S
H100 C105 0.929 . S
H101 C107 0.930 . S
C102 H99 0.929 . S
C102 C103 1.398 . S
C102 C104 1.396 . S
C103 C102 1.398 . S
C103 C107 1.407 . S
C104 C102 1.396 . S
C104 C105 1.394 . S
C105 H100 0.929 . S
C105 C104 1.394 . S
C105 C106 1.382 . S
C106 C105 1.382 . S
C106 C107 1.392 . S
C106 N108 1.420 . S
C107 H101 0.930 . S
C107 C103 1.407 . S
C107 C106 1.392 . S
N108 C106 1.420 . S
N108 C109 1.244 . S
C109 N108 1.244 . S
H110 C113 0.929 . S
H111 C116 0.929 . S
H112 C118 0.930 . S
C113 H110 0.929 . S
C113 C114 1.398 . S
C113 C115 1.396 . S
C114 C113 1.398 . S
C114 C118 1.407 . S
C115 C113 1.396 . S
C115 C116 1.394 . S
C116 H111 0.929 . S
C116 C115 1.394 . S
C116 C117 1.382 . S
C117 C116 1.382 . S
C117 C118 1.392 . S
C117 N119 1.420 . S
C118 H112 0.930 . S
C118 C114 1.407 . S
C118 C117 1.392 . S
N119 C117 1.420 . S
N119 C120 1.244 . S
C120 N119 1.244 . S
H121 C124 0.929 . S
H122 C127 0.929 . S
H123 C129 0.930 . S
C124 H121 0.929 . S
C124 C125 1.398 . S
C124 C126 1.396 . S
C125 C124 1.398 . S
C125 C129 1.407 . S
C126 C124 1.396 . S
C126 C127 1.394 . S
C127 H122 0.929 . S
C127 C126 1.394 . S
C127 C128 1.382 . S
C128 C127 1.382 . S
C128 C129 1.392 . S
C128 N130 1.420 . S
C129 H123 0.930 . S
C129 C125 1.407 . S
C129 C128 1.392 . S
N130 C128 1.420 . S
N130 C131 1.244 . S
C131 N130 1.244 . S
H132 C135 0.929 . S
H133 C138 0.929 . S
H134 C140 0.930 . S
C135 H132 0.929 . S
C135 C136 1.398 . S
C135 C137 1.396 . S
C136 C135 1.398 . S
C136 C140 1.407 . S
C137 C135 1.396 . S
C137 C138 1.394 . S
C138 H133 0.929 . S
C138 C137 1.394 . S
C138 C139 1.382 . S
C139 C138 1.382 . S
C139 C140 1.392 . S
C139 N141 1.420 . S
C140 H134 0.930 . S
C140 C136 1.407 . S
C140 C139 1.392 . S
N141 C139 1.420 . S
N141 C142 1.244 . S
C142 N141 1.244 . S
H143 C146 0.929 . S
H144 C149 0.929 . S
H145 C151 0.930 . S
C146 H143 0.929 . S
C146 C147 1.398 . S
C146 C148 1.396 . S
C147 C146 1.398 . S
C147 C151 1.407 . S
C148 C146 1.396 . S
C148 C149 1.394 . S
C149 H144 0.929 . S
C149 C148 1.394 . S
C149 C150 1.382 . S
C150 C149 1.382 . S
C150 C151 1.392 . S
C150 N152 1.420 . S
C151 H145 0.930 . S
C151 C147 1.407 . S
C151 C150 1.392 . S
N152 C150 1.420 . S
N152 C153 1.244 . S
C153 N152 1.244 . S
H154 C157 0.929 . S
H155 C160 0.929 . S
H156 C162 0.930 . S
C157 H154 0.929 . S
C157 C158 1.398 . S
C157 C159 1.396 . S
C158 C157 1.398 . S
C158 C162 1.407 . S
C159 C157 1.396 . S
C159 C160 1.394 . S
C160 H155 0.929 . S
C160 C159 1.394 . S
C160 C161 1.382 . S
C161 C160 1.382 . S
C161 C162 1.392 . S
C161 N163 1.420 . S
C162 H156 0.930 . S
C162 C158 1.407 . S
C162 C161 1.392 . S
N163 C161 1.420 . S
N163 C164 1.244 . S
C164 N163 1.244 . S
H165 C168 0.929 . S
H166 C171 0.929 . S
H167 C173 0.930 . S
C168 H165 0.929 . S
C168 C169 1.398 . S
C168 C170 1.396 . S
C169 C168 1.398 . S
C169 C173 1.407 . S
C170 C168 1.396 . S
C170 C171 1.394 . S
C171 H166 0.929 . S
C171 C170 1.394 . S
C171 C172 1.382 . S
C172 C171 1.382 . S
C172 C173 1.392 . S
C172 N174 1.420 . S
C173 H167 0.930 . S
C173 C169 1.407 . S
C173 C172 1.392 . S
N174 C172 1.420 . S
N174 C175 1.244 . S
C175 N174 1.244 . S
H176 C179 0.929 . S
H177 C182 0.929 . S
H178 C184 0.930 . S
C179 H176 0.929 . S
C179 C180 1.398 . S
C179 C181 1.396 . S
C180 C179 1.398 . S
C180 C184 1.407 . S
C181 C179 1.396 . S
C181 C182 1.394 . S
C182 H177 0.929 . S
C182 C181 1.394 . S
C182 C183 1.382 . S
C183 C182 1.382 . S
C183 C184 1.392 . S
C183 N185 1.420 . S
C184 H178 0.930 . S
C184 C180 1.407 . S
C184 C183 1.392 . S
N185 C183 1.420 . S
N185 C186 1.244 . S
C186 N185 1.244 . S
H187 C190 0.929 . S
H188 C193 0.929 . S
H189 C195 0.930 . S
C190 H187 0.929 . S
C190 C191 1.398 . S
C190 C192 1.396 . S
C191 C190 1.398 . S
C191 C195 1.407 . S
C192 C190 1.396 . S
C192 C193 1.394 . S
C193 H188 0.929 . S
C193 C192 1.394 . S
C193 C194 1.382 . S
C194 C193 1.382 . S
C194 C195 1.392 . S
C194 N196 1.420 . S
C195 H189 0.930 . S
C195 C191 1.407 . S
C195 C194 1.392 . S
N196 C194 1.420 . S
N196 C197 1.244 . S
C197 N196 1.244 . S
Tb198 N229 2.660 . S
Tb198 N236 2.600 . S
Tb198 O242 2.546 . S
Tb198 O243 2.610 1_566 S
Tb198 O245 2.320 1_565 S
Tb198 O246 2.552 1_565 S
Tb198 O247 2.413 1_565 S
Tb198 O249 2.362 1_556 S
Tb198 O250 2.421 1_556 S
Tb198 C262 2.833 1_565 S
C199 C202 1.432 . S
C199 C203 1.414 . S
C199 N206 1.359 . S
C200 C202 1.417 . S
C200 C204 1.432 . S
C200 C212 1.410 . S
C201 C203 1.444 . S
C201 C204 1.317 . S
C201 H224 0.929 . S
C202 C199 1.432 . S
C202 C200 1.417 . S
C202 N210 1.360 . S
C203 C199 1.414 . S
C203 C201 1.444 . S
C203 C208 1.385 . S
C204 C200 1.432 . S
C204 C201 1.317 . S
C204 H216 0.930 . S
C205 C207 1.392 . S
C205 C208 1.370 . S
C205 H217 0.931 . S
N206 C199 1.359 . S
N206 C207 1.327 . S
N206 Tb209 2.600 . S
C207 C205 1.392 . S
C207 N206 1.327 . S
C207 H214 0.930 . S
C208 C203 1.385 . S
C208 C205 1.370 . S
C208 H227 0.930 . S
Tb209 N206 2.600 . S
Tb209 N210 2.660 . S
Tb209 O243 2.362 . S
Tb209 O244 2.421 . S
Tb209 O248 2.546 . S
Tb209 O249 2.610 1_545 S
Tb209 O251 2.320 1_545 S
Tb209 O252 2.552 1_545 S
Tb209 O253 2.413 1_545 S
Tb209 C273 2.833 . S
N210 C202 1.360 . S
N210 Tb209 2.660 . S
N210 C211 1.305 . S
C211 N210 1.305 . S
C211 C213 1.407 . S
C211 H218 0.930 . S
C212 C200 1.410 . S
C212 C213 1.345 . S
C212 H220 0.930 . S
C213 C211 1.407 . S
C213 C212 1.345 . S
C213 H215 0.930 . S
H214 C207 0.930 . S
H215 C213 0.930 . S
H216 C204 0.930 . S
H217 C205 0.931 . S
H218 C211 0.930 . S
H219 C233 0.930 . S
H220 C212 0.930 . S
H221 C239 0.930 . S
H222 C230 0.948 . S
H223 C237 0.931 . S
H224 C201 0.929 . S
H225 C231 0.930 . S
H226 C264 0.930 . S
H227 C208 0.930 . S
H228 C263 0.929 . S
N229 Tb198 2.660 . S
N229 C230 1.305 . S
N229 C234 1.360 . S
C230 H222 0.948 . S
C230 N229 1.305 . S
C230 C233 1.407 . S
C231 H225 0.930 . S
C231 C232 1.410 . S
C231 C233 1.345 . S
C232 C231 1.410 . S
C232 C234 1.417 . S
C232 C264 1.432 . S
C233 H219 0.930 . S
C233 C230 1.407 . S
C233 C231 1.345 . S
C234 N229 1.360 . S
C234 C232 1.417 . S
C234 C238 1.432 . S
H235 C240 0.930 . S
N236 Tb198 2.600 . S
N236 C238 1.359 . S
N236 C239 1.327 . S
C237 H223 0.931 . S
C237 C239 1.392 . S
C237 C240 1.370 . S
C238 C234 1.432 . S
C238 N236 1.359 . S
C238 C241 1.414 . S
C239 H221 0.930 . S
C239 N236 1.327 . S
C239 C237 1.392 . S
C240 H235 0.930 . S
C240 C237 1.370 . S
C240 C241 1.385 . S
C241 C238 1.414 . S
C241 C240 1.385 . S
C241 C263 1.444 . S
O242 Tb198 2.546 . S
O242 C262 1.251 1_565 S
O243 Tb198 2.610 1_544 S
O243 Tb209 2.362 . S
O243 C254 1.283 1_554 S
O244 Tb209 2.421 . S
O244 C261 1.262 . S
O245 Tb198 2.320 1_545 S
O245 C261 1.260 1_556 S
O246 Tb198 2.552 1_545 S
O246 C254 1.243 . S
O247 Tb198 2.413 1_545 S
O247 C262 1.256 . S
O248 Tb209 2.546 . S
O248 C273 1.251 . S
O249 Tb198 2.362 1_554 S
O249 Tb209 2.610 1_565 S
O249 C265 1.283 . S
O250 Tb198 2.421 1_554 S
O250 C272 1.262 . S
O251 Tb209 2.320 1_565 S
O251 C272 1.260 . S
O252 Tb209 2.552 1_565 S
O252 C265 1.243 . S
O253 Tb209 2.413 1_565 S
O253 C273 1.256 1_565 S
C254 O243 1.283 1_556 S
C254 O246 1.243 . S
C255 C257 1.382 . S
C255 C259 1.393 1_545 S
C255 C262 1.500 . S
C256 C257 1.400 . S
C256 C258 1.384 . S
C257 C255 1.382 . S
C257 C256 1.400 . S
C257 H274 0.930 . S
C258 C256 1.384 . S
C258 C260 1.339 1_545 S
C258 H275 0.931 . S
C259 C255 1.393 1_565 S
C259 C260 1.412 . S
C259 H276 0.930 . S
C260 C258 1.339 1_565 S
C260 C259 1.412 . S
C260 H277 0.974 . S
C261 O244 1.262 . S
C261 O245 1.260 1_554 S
C262 Tb198 2.833 1_545 S
C262 O242 1.251 1_545 S
C262 O247 1.256 . S
C262 C255 1.500 . S
C263 H228 0.929 . S
C263 C241 1.444 . S
C263 C264 1.317 . S
C264 H226 0.930 . S
C264 C232 1.432 . S
C264 C263 1.317 . S
C265 O249 1.283 . S
C265 O252 1.243 . S
C266 C267 1.347 1_545 S
C266 C270 1.422 . S
C266 C273 1.506 . S
C267 C266 1.347 1_565 S
C267 C268 1.400 . S
C267 H278 0.930 . S
C268 C267 1.400 . S
C268 C269 1.384 . S
C269 C268 1.384 . S
C269 C271 1.392 1_565 S
C269 H279 0.931 . S
C270 C266 1.422 . S
C270 C271 1.401 . S
C270 H280 0.930 . S
C271 C269 1.392 1_545 S
C271 C270 1.401 . S
C271 H281 0.930 . S
C272 O250 1.262 . S
C272 O251 1.260 . S
C273 Tb209 2.833 . S
C273 O248 1.251 . S
C273 O253 1.256 1_545 S
C273 C266 1.506 . S
H274 C257 0.930 . S
H275 C258 0.931 . S
H276 C259 0.930 . S
H277 C260 0.974 . S
H278 C267 0.930 . S
H279 C269 0.931 . S
H280 C270 0.930 . S
H281 C271 0.930 . S
Tb282 N313 2.660 . S
Tb282 N320 2.600 . S
Tb282 O326 2.546 . S
Tb282 O327 2.610 1_456 S
Tb282 O329 2.320 1_455 S
Tb282 O330 2.552 1_455 S
Tb282 O331 2.422 . S
Tb282 O333 2.362 1_556 S
Tb282 O334 2.421 1_556 S
Tb282 C346 2.833 . S
C283 C286 1.432 . S
C283 C287 1.414 . S
C283 N290 1.359 . S
C284 C286 1.417 . S
C284 C288 1.432 . S
C284 C296 1.410 . S
C285 C287 1.444 . S
C285 C288 1.317 . S
C285 H308 0.929 . S
C286 C283 1.432 . S
C286 C284 1.417 . S
C286 N294 1.360 . S
C287 C283 1.414 . S
C287 C285 1.444 . S
C287 C292 1.385 . S
C288 C284 1.432 . S
C288 C285 1.317 . S
C288 H300 0.930 . S
C289 C291 1.392 . S
C289 C292 1.370 . S
C289 H301 0.931 . S
N290 C283 1.359 . S
N290 C291 1.327 . S
N290 Tb293 2.600 . S
C291 C289 1.392 . S
C291 N290 1.327 . S
C291 H298 0.930 . S
C292 C287 1.385 . S
C292 C289 1.370 . S
C292 H311 0.930 . S
Tb293 N290 2.600 . S
Tb293 N294 2.660 . S
Tb293 O327 2.362 . S
Tb293 O328 2.421 . S
Tb293 O332 2.546 . S
Tb293 O333 2.610 1_655 S
Tb293 O335 2.320 1_655 S
Tb293 O336 2.552 1_655 S
Tb293 O337 2.413 1_655 S
Tb293 C357 2.825 1_655 S
N294 C286 1.360 . S
N294 Tb293 2.660 . S
N294 C295 1.305 . S
C295 N294 1.305 . S
C295 C297 1.407 . S
C295 H302 0.941 . S
C296 C284 1.410 . S
C296 C297 1.345 . S
C296 H304 0.930 . S
C297 C295 1.407 . S
C297 C296 1.345 . S
C297 H299 0.930 . S
H298 C291 0.930 . S
H299 C297 0.930 . S
H300 C288 0.930 . S
H301 C289 0.931 . S
H302 C295 0.941 . S
H303 C317 0.930 . S
H304 C296 0.930 . S
H305 C323 0.930 . S
H306 C314 0.930 . S
H307 C321 0.931 . S
H308 C285 0.929 . S
H309 C315 0.930 . S
H310 C348 0.930 . S
H311 C292 0.930 . S
H312 C347 0.929 . S
N313 Tb282 2.660 . S
N313 C314 1.305 . S
N313 C318 1.360 . S
C314 H306 0.930 . S
C314 N313 1.305 . S
C314 C317 1.407 . S
C315 H309 0.930 . S
C315 C316 1.410 . S
C315 C317 1.345 . S
C316 C315 1.410 . S
C316 C318 1.417 . S
C316 C348 1.432 . S
C317 H303 0.930 . S
C317 C314 1.407 . S
C317 C315 1.345 . S
C318 N313 1.360 . S
C318 C316 1.417 . S
C318 C322 1.432 . S
H319 C324 0.930 . S
N320 Tb282 2.600 . S
N320 C322 1.359 . S
N320 C323 1.327 . S
C321 H307 0.931 . S
C321 C323 1.392 . S
C321 C324 1.370 . S
C322 C318 1.432 . S
C322 N320 1.359 . S
C322 C325 1.414 . S
C323 H305 0.930 . S
C323 N320 1.327 . S
C323 C321 1.392 . S
C324 H319 0.930 . S
C324 C321 1.370 . S
C324 C325 1.385 . S
C325 C322 1.414 . S
C325 C324 1.385 . S
C325 C347 1.444 . S
O326 Tb282 2.546 . S
O326 C346 1.251 . S
O327 Tb282 2.610 1_654 S
O327 Tb293 2.362 . S
O327 C338 1.283 1_554 S
O328 Tb293 2.421 . S
O328 C345 1.262 . S
O329 Tb282 2.320 1_655 S
O329 C345 1.260 1_556 S
O330 Tb282 2.552 1_655 S
O330 C338 1.243 . S
O331 Tb282 2.422 . S
O331 C346 1.254 . S
O332 Tb293 2.546 . S
O332 C357 1.244 1_655 S
O333 Tb282 2.362 1_554 S
O333 Tb293 2.610 1_455 S
O333 C349 1.283 . S
O334 Tb282 2.421 1_554 S
O334 C356 1.262 . S
O335 Tb293 2.320 1_455 S
O335 C356 1.260 . S
O336 Tb293 2.552 1_455 S
O336 C349 1.243 . S
O337 Tb293 2.413 1_455 S
O337 C357 1.254 . S
C338 O327 1.283 1_556 S
C338 O330 1.243 . S
C339 C341 1.382 1_455 S
C339 C343 1.393 . S
C339 C346 1.500 . S
C340 C341 1.400 . S
C340 C342 1.384 . S
C341 C339 1.382 1_655 S
C341 C340 1.400 . S
C341 H358 0.930 . S
C342 C340 1.384 . S
C342 C344 1.392 1_655 S
C342 H359 0.931 . S
C343 C339 1.393 . S
C343 C344 1.401 . S
C343 H360 0.930 . S
C344 C342 1.392 1_455 S
C344 C343 1.401 . S
C344 H361 0.930 . S
C345 O328 1.262 . S
C345 O329 1.260 1_554 S
C346 Tb282 2.833 . S
C346 O326 1.251 . S
C346 O331 1.254 . S
C346 C339 1.500 . S
C347 H312 0.929 . S
C347 C325 1.444 . S
C347 C348 1.317 . S
C348 H310 0.930 . S
C348 C316 1.432 . S
C348 C347 1.317 . S
C349 O333 1.283 . S
C349 O336 1.243 . S
C350 C351 1.382 . S
C350 C354 1.393 1_455 S
C350 C357 1.511 . S
C351 C350 1.382 . S
C351 C352 1.400 . S
C351 H362 0.930 . S
C352 C351 1.400 . S
C352 C353 1.384 . S
C353 C352 1.384 . S
C353 C355 1.392 1_455 S
C353 H363 0.931 . S
C354 C350 1.393 1_655 S
C354 C355 1.401 . S
C354 H364 0.930 . S
C355 C353 1.392 1_655 S
C355 C354 1.401 . S
C355 H365 0.930 . S
C356 O334 1.262 . S
C356 O335 1.260 . S
C357 Tb293 2.825 1_455 S
C357 O332 1.244 1_455 S
C357 O337 1.254 . S
C357 C350 1.511 . S
H358 C341 0.930 . S
H359 C342 0.931 . S
H360 C343 0.930 . S
H361 C344 0.930 . S
H362 C351 0.930 . S
H363 C353 0.931 . S
H364 C354 0.930 . S
H365 C355 0.930 . S
Tb366 N397 2.660 . S
Tb366 N404 2.600 . S
Tb366 O410 2.546 . S
Tb366 O411 2.610 . S
Tb366 O413 2.320 . S
Tb366 O414 2.552 . S
Tb366 O415 2.413 . S
Tb366 O417 2.362 . S
Tb366 O418 2.421 . S
Tb366 C430 2.833 . S
C367 C370 1.432 . S
C367 C371 1.414 . S
C367 N374 1.359 . S
C368 C370 1.417 . S
C368 C372 1.432 . S
C368 C380 1.410 . S
C369 C371 1.444 . S
C369 C372 1.317 . S
C369 H392 0.929 . S
C370 C367 1.432 . S
C370 C368 1.417 . S
C370 N378 1.360 . S
C371 C367 1.414 . S
C371 C369 1.444 . S
C371 C376 1.385 . S
C372 C368 1.432 . S
C372 C369 1.317 . S
C372 H384 0.930 . S
C373 C375 1.392 . S
C373 C376 1.370 . S
C373 H385 0.931 . S
N374 C367 1.359 . S
N374 C375 1.327 . S
N374 Tb377 2.600 . S
C375 C373 1.392 . S
C375 N374 1.327 . S
C375 H382 0.930 . S
C376 C371 1.385 . S
C376 C373 1.370 . S
C376 H395 0.930 . S
Tb377 N374 2.600 . S
Tb377 N378 2.660 . S
Tb377 O411 2.362 1_556 S
Tb377 O412 2.421 1_556 S
Tb377 O416 2.546 . S
Tb377 O417 2.610 1_556 S
Tb377 O419 2.320 . S
Tb377 O420 2.552 . S
Tb377 O421 2.413 . S
Tb377 C441 2.833 . S
N378 C370 1.360 . S
N378 Tb377 2.660 . S
N378 C379 1.305 . S
C379 N378 1.305 . S
C379 C381 1.407 . S
C379 H386 0.930 . S
C380 C368 1.410 . S
C380 C381 1.345 . S
C380 H388 0.930 . S
C381 C379 1.407 . S
C381 C380 1.345 . S
C381 H383 0.930 . S
H382 C375 0.930 . S
H383 C381 0.930 . S
H384 C372 0.930 . S
H385 C373 0.931 . S
H386 C379 0.930 . S
H387 C401 0.930 . S
H388 C380 0.930 . S
H389 C407 0.930 . S
H390 C398 0.930 . S
H391 C405 0.931 . S
H392 C369 0.929 . S
H393 C399 0.930 . S
H394 C432 0.930 . S
H395 C376 0.930 . S
H396 C431 0.929 . S
N397 Tb366 2.660 . S
N397 C398 1.305 . S
N397 C402 1.360 . S
C398 H390 0.930 . S
C398 N397 1.305 . S
C398 C401 1.407 . S
C399 H393 0.930 . S
C399 C400 1.410 . S
C399 C401 1.345 . S
C400 C399 1.410 . S
C400 C402 1.417 . S
C400 C432 1.432 . S
C401 H387 0.930 . S
C401 C398 1.407 . S
C401 C399 1.345 . S
C402 N397 1.360 . S
C402 C400 1.417 . S
C402 C406 1.432 . S
H403 C408 0.930 . S
N404 Tb366 2.600 . S
N404 C406 1.359 . S
N404 C407 1.327 . S
C405 H391 0.931 . S
C405 C407 1.392 . S
C405 C408 1.370 . S
C406 C402 1.432 . S
C406 N404 1.359 . S
C406 C409 1.414 . S
C407 H389 0.930 . S
C407 N404 1.327 . S
C407 C405 1.392 . S
C408 H403 0.930 . S
C408 C405 1.370 . S
C408 C409 1.385 . S
C409 C406 1.414 . S
C409 C408 1.385 . S
C409 C431 1.444 . S
O410 Tb366 2.546 . S
O410 C430 1.251 . S
O411 Tb366 2.610 . S
O411 Tb377 2.362 1_554 S
O411 C422 1.283 . S
O412 Tb377 2.421 1_554 S
O412 C429 1.262 . S
O413 Tb366 2.320 . S
O413 C429 1.260 . S
O414 Tb366 2.552 . S
O414 C422 1.243 . S
O415 Tb366 2.413 . S
O415 C430 1.256 . S
O416 Tb377 2.546 . S
O416 C441 1.251 . S
O417 Tb366 2.362 . S
O417 Tb377 2.610 1_554 S
O417 C433 1.283 1_554 S
O418 Tb366 2.421 . S
O418 C440 1.262 . S
O419 Tb377 2.320 . S
O419 C440 1.260 1_556 S
O420 Tb377 2.552 . S
O420 C433 1.243 . S
O421 Tb377 2.413 . S
O421 C441 1.256 . S
C422 O411 1.283 . S
C422 O414 1.243 . S
C423 C425 1.382 . S
C423 C427 1.393 . S
C423 C430 1.500 . S
C424 C425 1.400 . S
C424 C426 1.384 . S
C425 C423 1.382 . S
C425 C424 1.400 . S
C425 H442 0.930 . S
C426 C424 1.384 . S
C426 C428 1.392 . S
C426 H443 0.931 . S
C427 C423 1.393 . S
C427 C428 1.401 . S
C427 H444 0.930 . S
C428 C426 1.392 . S
C428 C427 1.401 . S
C428 H445 0.930 . S
C429 O412 1.262 . S
C429 O413 1.260 . S
C430 Tb366 2.833 . S
C430 O410 1.251 . S
C430 O415 1.256 . S
C430 C423 1.500 . S
C431 H396 0.929 . S
C431 C409 1.444 . S
C431 C432 1.317 . S
C432 H394 0.930 . S
C432 C400 1.432 . S
C432 C431 1.317 . S
C433 O417 1.283 1_556 S
C433 O420 1.243 . S
C434 C435 1.382 . S
C434 C438 1.393 . S
C434 C441 1.500 . S
C435 C434 1.382 . S
C435 C436 1.400 . S
C435 H446 0.930 . S
C436 C435 1.400 . S
C436 C437 1.384 . S
C437 C436 1.384 . S
C437 C439 1.392 . S
C437 H447 0.931 . S
C438 C434 1.393 . S
C438 C439 1.401 . S
C438 H448 0.930 . S
C439 C437 1.392 . S
C439 C438 1.401 . S
C439 H449 0.930 . S
C440 O418 1.262 . S
C440 O419 1.260 1_554 S
C441 Tb377 2.833 . S
C441 O416 1.251 . S
C441 O421 1.256 . S
C441 C434 1.500 . S
H442 C425 0.930 . S
H443 C426 0.931 . S
H444 C427 0.930 . S
H445 C428 0.930 . S
H446 C435 0.930 . S
H447 C437 0.931 . S
H448 C438 0.930 . S
H449 C439 0.930 . S
Tb450 N481 2.660 . S
Tb450 N488 2.600 . S
Tb450 O494 2.546 . S
Tb450 O495 2.610 . S
Tb450 O497 2.320 . S
Tb450 O498 2.552 . S
Tb450 O499 2.413 . S
Tb450 O501 2.362 . S
Tb450 O502 2.421 . S
Tb450 C514 2.833 . S
C451 C454 1.432 . S
C451 C455 1.414 . S
C451 N458 1.359 . S
C452 C454 1.417 . S
C452 C456 1.432 . S
C452 C464 1.410 . S
C453 C455 1.444 . S
C453 C456 1.317 . S
C453 H476 0.929 . S
C454 C451 1.432 . S
C454 C452 1.417 . S
C454 N462 1.360 . S
C455 C451 1.414 . S
C455 C453 1.444 . S
C455 C460 1.385 . S
C456 C452 1.432 . S
C456 C453 1.317 . S
C456 H468 0.930 . S
C457 C459 1.392 . S
C457 C460 1.370 . S
C457 H469 0.931 . S
N458 C451 1.359 . S
N458 C459 1.327 . S
N458 Tb461 2.600 . S
C459 C457 1.392 . S
C459 N458 1.327 . S
C459 H466 0.930 . S
C460 C455 1.385 . S
C460 C457 1.370 . S
C460 H479 0.930 . S
Tb461 N458 2.600 . S
Tb461 N462 2.660 . S
Tb461 O495 2.362 . S
Tb461 O496 2.421 . S
Tb461 O500 2.546 . S
Tb461 O501 2.610 . S
Tb461 O503 2.320 . S
Tb461 O504 2.552 . S
Tb461 O505 2.413 . S
Tb461 C525 2.833 . S
N462 C454 1.360 . S
N462 Tb461 2.660 . S
N462 C463 1.305 . S
C463 N462 1.305 . S
C463 C465 1.407 . S
C463 H470 0.930 . S
C464 C452 1.410 . S
C464 C465 1.345 . S
C464 H472 0.930 . S
C465 C463 1.407 . S
C465 C464 1.345 . S
C465 H467 0.930 . S
H466 C459 0.930 . S
H467 C465 0.930 . S
H468 C456 0.930 . S
H469 C457 0.931 . S
H470 C463 0.930 . S
H471 C485 0.930 . S
H472 C464 0.930 . S
H473 C491 0.930 . S
H474 C482 0.930 . S
H475 C489 0.931 . S
H476 C453 0.929 . S
H477 C483 0.930 . S
H478 C516 0.930 . S
H479 C460 0.930 . S
H480 C515 0.929 . S
N481 Tb450 2.660 . S
N481 C482 1.305 . S
N481 C486 1.360 . S
C482 H474 0.930 . S
C482 N481 1.305 . S
C482 C485 1.407 . S
C483 H477 0.930 . S
C483 C484 1.410 . S
C483 C485 1.345 . S
C484 C483 1.410 . S
C484 C486 1.417 . S
C484 C516 1.432 . S
C485 H471 0.930 . S
C485 C482 1.407 . S
C485 C483 1.345 . S
C486 N481 1.360 . S
C486 C484 1.417 . S
C486 C490 1.432 . S
H487 C492 0.930 . S
N488 Tb450 2.600 . S
N488 C490 1.359 . S
N488 C491 1.327 . S
C489 H475 0.931 . S
C489 C491 1.392 . S
C489 C492 1.370 . S
C490 C486 1.432 . S
C490 N488 1.359 . S
C490 C493 1.414 . S
C491 H473 0.930 . S
C491 N488 1.327 . S
C491 C489 1.392 . S
C492 H487 0.930 . S
C492 C489 1.370 . S
C492 C493 1.385 . S
C493 C490 1.414 . S
C493 C492 1.385 . S
C493 C515 1.444 . S
O494 Tb450 2.546 . S
O494 C514 1.251 . S
O495 Tb450 2.610 . S
O495 Tb461 2.362 . S
O495 C506 1.283 . S
O496 Tb461 2.421 . S
O496 C513 1.262 . S
O497 Tb450 2.320 . S
O497 C513 1.260 . S
O498 Tb450 2.552 . S
O498 C506 1.243 . S
O499 Tb450 2.413 . S
O499 C514 1.256 . S
O500 Tb461 2.546 . S
O500 C525 1.251 . S
O501 Tb450 2.362 . S
O501 Tb461 2.610 . S
O501 C517 1.283 . S
O502 Tb450 2.421 . S
O502 C524 1.262 . S
O503 Tb461 2.320 . S
O503 C524 1.260 . S
O504 Tb461 2.552 . S
O504 C517 1.243 . S
O505 Tb461 2.413 . S
O505 C525 1.256 . S
C506 O495 1.283 . S
C506 O498 1.243 . S
C507 C509 1.382 . S
C507 C511 1.393 . S
C507 C514 1.500 . S
C508 C509 1.400 . S
C508 C510 1.384 . S
C509 C507 1.382 . S
C509 C508 1.400 . S
C509 H526 0.930 . S
C510 C508 1.384 . S
C510 C512 1.392 . S
C510 H527 0.931 . S
C511 C507 1.393 . S
C511 C512 1.401 . S
C511 H528 0.930 . S
C512 C510 1.392 . S
C512 C511 1.401 . S
C512 H529 0.930 . S
C513 O496 1.262 . S
C513 O497 1.260 . S
C514 Tb450 2.833 . S
C514 O494 1.251 . S
C514 O499 1.256 . S
C514 C507 1.500 . S
C515 H480 0.929 . S
C515 C493 1.444 . S
C515 C516 1.317 . S
C516 H478 0.930 . S
C516 C484 1.432 . S
C516 C515 1.317 . S
C517 O501 1.283 . S
C517 O504 1.243 . S
C518 C519 1.382 . S
C518 C522 1.393 . S
C518 C525 1.500 . S
C519 C518 1.382 . S
C519 C520 1.400 . S
C519 H530 0.930 . S
C520 C519 1.400 . S
C520 C521 1.384 . S
C521 C520 1.384 . S
C521 C523 1.392 . S
C521 H531 0.931 . S
C522 C518 1.393 . S
C522 C523 1.401 . S
C522 H532 0.930 . S
C523 C521 1.392 . S
C523 C522 1.401 . S
C523 H533 0.930 . S
C524 O502 1.262 . S
C524 O503 1.260 . S
C525 Tb461 2.833 . S
C525 O500 1.251 . S
C525 O505 1.256 . S
C525 C518 1.500 . S
H526 C509 0.930 . S
H527 C510 0.931 . S
H528 C511 0.930 . S
H529 C512 0.930 . S
H530 C519 0.930 . S
H531 C521 0.931 . S
H532 C522 0.930 . S
H533 C523 0.930 . S
Tb534 N565 2.660 . S
Tb534 N572 2.600 . S
Tb534 O578 2.546 . S
Tb534 O579 2.610 . S
Tb534 O581 2.320 . S
Tb534 O582 2.552 . S
Tb534 O583 2.413 . S
Tb534 O585 2.362 . S
Tb534 O586 2.421 . S
Tb534 C598 2.833 . S
C535 C538 1.432 . S
C535 C539 1.414 . S
C535 N542 1.359 . S
C536 C538 1.417 . S
C536 C540 1.432 . S
C536 C548 1.410 . S
C537 C539 1.444 . S
C537 C540 1.317 . S
C537 H560 0.929 . S
C538 C535 1.432 . S
C538 C536 1.417 . S
C538 N546 1.360 . S
C539 C535 1.414 . S
C539 C537 1.444 . S
C539 C544 1.385 . S
C540 C536 1.432 . S
C540 C537 1.317 . S
C540 H552 0.930 . S
C541 C543 1.392 . S
C541 C544 1.370 . S
C541 H553 0.931 . S
N542 C535 1.359 . S
N542 C543 1.327 . S
N542 Tb545 2.600 . S
C543 C541 1.392 . S
C543 N542 1.327 . S
C543 H550 0.930 . S
C544 C539 1.385 . S
C544 C541 1.370 . S
C544 H563 0.930 . S
Tb545 N542 2.600 . S
Tb545 N546 2.660 . S
Tb545 O579 2.362 . S
Tb545 O580 2.421 . S
Tb545 O584 2.546 . S
Tb545 O585 2.610 . S
Tb545 O587 2.320 . S
Tb545 O588 2.552 . S
Tb545 O589 2.413 . S
Tb545 C609 2.833 . S
N546 C538 1.360 . S
N546 Tb545 2.660 . S
N546 C547 1.305 . S
C547 N546 1.305 . S
C547 C549 1.407 . S
C547 H554 0.930 . S
C548 C536 1.410 . S
C548 C549 1.345 . S
C548 H556 0.930 . S
C549 C547 1.407 . S
C549 C548 1.345 . S
C549 H551 0.930 . S
H550 C543 0.930 . S
H551 C549 0.930 . S
H552 C540 0.930 . S
H553 C541 0.931 . S
H554 C547 0.930 . S
H555 C569 0.930 . S
H556 C548 0.930 . S
H557 C575 0.930 . S
H558 C566 0.930 . S
H559 C573 0.931 . S
H560 C537 0.929 . S
H561 C567 0.930 . S
H562 C600 0.930 . S
H563 C544 0.930 . S
H564 C599 0.929 . S
N565 Tb534 2.660 . S
N565 C566 1.305 . S
N565 C570 1.360 . S
C566 H558 0.930 . S
C566 N565 1.305 . S
C566 C569 1.407 . S
C567 H561 0.930 . S
C567 C568 1.410 . S
C567 C569 1.345 . S
C568 C567 1.410 . S
C568 C570 1.417 . S
C568 C600 1.432 . S
C569 H555 0.930 . S
C569 C566 1.407 . S
C569 C567 1.345 . S
C570 N565 1.360 . S
C570 C568 1.417 . S
C570 C574 1.432 . S
H571 C576 0.930 . S
N572 Tb534 2.600 . S
N572 C574 1.359 . S
N572 C575 1.327 . S
C573 H559 0.931 . S
C573 C575 1.392 . S
C573 C576 1.370 . S
C574 C570 1.432 . S
C574 N572 1.359 . S
C574 C577 1.414 . S
C575 H557 0.930 . S
C575 N572 1.327 . S
C575 C573 1.392 . S
C576 H571 0.930 . S
C576 C573 1.370 . S
C576 C577 1.385 . S
C577 C574 1.414 . S
C577 C576 1.385 . S
C577 C599 1.444 . S
O578 Tb534 2.546 . S
O578 C598 1.251 . S
O579 Tb534 2.610 . S
O579 Tb545 2.362 . S
O579 C590 1.283 . S
O580 Tb545 2.421 . S
O580 C597 1.262 . S
O581 Tb534 2.320 . S
O581 C597 1.260 . S
O582 Tb534 2.552 . S
O582 C590 1.243 . S
O583 Tb534 2.413 . S
O583 C598 1.256 . S
O584 Tb545 2.546 . S
O584 C609 1.251 . S
O585 Tb534 2.362 . S
O585 Tb545 2.610 . S
O585 C601 1.283 . S
O586 Tb534 2.421 . S
O586 C608 1.262 . S
O587 Tb545 2.320 . S
O587 C608 1.260 . S
O588 Tb545 2.552 . S
O588 C601 1.243 . S
O589 Tb545 2.413 . S
O589 C609 1.256 . S
C590 O579 1.283 . S
C590 O582 1.243 . S
C591 C593 1.382 . S
C591 C595 1.393 . S
C591 C598 1.500 . S
C592 C593 1.400 . S
C592 C594 1.384 . S
C593 C591 1.382 . S
C593 C592 1.400 . S
C593 H610 0.930 . S
C594 C592 1.384 . S
C594 C596 1.392 . S
C594 H611 0.931 . S
C595 C591 1.393 . S
C595 C596 1.401 . S
C595 H612 0.930 . S
C596 C594 1.392 . S
C596 C595 1.401 . S
C596 H613 0.930 . S
C597 O580 1.262 . S
C597 O581 1.260 . S
C598 Tb534 2.833 . S
C598 O578 1.251 . S
C598 O583 1.256 . S
C598 C591 1.500 . S
C599 H564 0.929 . S
C599 C577 1.444 . S
C599 C600 1.317 . S
C600 H562 0.930 . S
C600 C568 1.432 . S
C600 C599 1.317 . S
C601 O585 1.283 . S
C601 O588 1.243 . S
C602 C603 1.382 . S
C602 C606 1.393 . S
C602 C609 1.500 . S
C603 C602 1.382 . S
C603 C604 1.400 . S
C603 H614 0.930 . S
C604 C603 1.400 . S
C604 C605 1.384 . S
C605 C604 1.384 . S
C605 C607 1.392 . S
C605 H615 0.931 . S
C606 C602 1.393 . S
C606 C607 1.401 . S
C606 H616 0.930 . S
C607 C605 1.392 . S
C607 C606 1.401 . S
C607 H617 0.930 . S
C608 O586 1.262 . S
C608 O587 1.260 . S
C609 Tb545 2.833 . S
C609 O584 1.251 . S
C609 O589 1.256 . S
C609 C602 1.500 . S
H610 C593 0.930 . S
H611 C594 0.931 . S
H612 C595 0.930 . S
H613 C596 0.930 . S
H614 C603 0.930 . S
H615 C605 0.931 . S
H616 C606 0.930 . S
H617 C607 0.930 . S
Tb618 N649 2.660 . S
Tb618 N656 2.600 . S
Tb618 O662 2.546 . S
Tb618 O663 2.610 . S
Tb618 O665 2.320 . S
Tb618 O666 2.552 . S
Tb618 O667 2.413 . S
Tb618 O669 2.362 . S
Tb618 O670 2.421 . S
Tb618 C682 2.833 . S
C619 C622 1.432 . S
C619 C623 1.414 . S
C619 N626 1.359 . S
C620 C622 1.417 . S
C620 C624 1.432 . S
C620 C632 1.410 . S
C621 C623 1.444 . S
C621 C624 1.317 . S
C621 H644 0.929 . S
C622 C619 1.432 . S
C622 C620 1.417 . S
C622 N630 1.360 . S
C623 C619 1.414 . S
C623 C621 1.444 . S
C623 C628 1.385 . S
C624 C620 1.432 . S
C624 C621 1.317 . S
C624 H636 0.930 . S
C625 C627 1.392 . S
C625 C628 1.370 . S
C625 H637 0.931 . S
N626 C619 1.359 . S
N626 C627 1.327 . S
N626 Tb629 2.600 . S
C627 C625 1.392 . S
C627 N626 1.327 . S
C627 H634 0.930 . S
C628 C623 1.385 . S
C628 C625 1.370 . S
C628 H647 0.930 . S
Tb629 N626 2.600 . S
Tb629 N630 2.660 . S
Tb629 O663 2.362 . S
Tb629 O664 2.421 . S
Tb629 O668 2.546 . S
Tb629 O669 2.610 . S
Tb629 O671 2.320 . S
Tb629 O672 2.552 . S
Tb629 O673 2.413 . S
Tb629 C693 2.833 . S
N630 C622 1.360 . S
N630 Tb629 2.660 . S
N630 C631 1.305 . S
C631 N630 1.305 . S
C631 C633 1.407 . S
C631 H638 0.930 . S
C632 C620 1.410 . S
C632 C633 1.345 . S
C632 H640 0.930 . S
C633 C631 1.407 . S
C633 C632 1.345 . S
C633 H635 0.930 . S
H634 C627 0.930 . S
H635 C633 0.930 . S
H636 C624 0.930 . S
H637 C625 0.931 . S
H638 C631 0.930 . S
H639 C653 0.930 . S
H640 C632 0.930 . S
H641 C659 0.930 . S
H642 C650 0.930 . S
H643 C657 0.931 . S
H644 C621 0.929 . S
H645 C651 0.930 . S
H646 C684 0.930 . S
H647 C628 0.930 . S
H648 C683 0.929 . S
N649 Tb618 2.660 . S
N649 C650 1.305 . S
N649 C654 1.360 . S
C650 H642 0.930 . S
C650 N649 1.305 . S
C650 C653 1.407 . S
C651 H645 0.930 . S
C651 C652 1.410 . S
C651 C653 1.345 . S
C652 C651 1.410 . S
C652 C654 1.417 . S
C652 C684 1.432 . S
C653 H639 0.930 . S
C653 C650 1.407 . S
C653 C651 1.345 . S
C654 N649 1.360 . S
C654 C652 1.417 . S
C654 C658 1.432 . S
H655 C660 0.930 . S
N656 Tb618 2.600 . S
N656 C658 1.359 . S
N656 C659 1.327 . S
C657 H643 0.931 . S
C657 C659 1.392 . S
C657 C660 1.370 . S
C658 C654 1.432 . S
C658 N656 1.359 . S
C658 C661 1.414 . S
C659 H641 0.930 . S
C659 N656 1.327 . S
C659 C657 1.392 . S
C660 H655 0.930 . S
C660 C657 1.370 . S
C660 C661 1.385 . S
C661 C658 1.414 . S
C661 C660 1.385 . S
C661 C683 1.444 . S
O662 Tb618 2.546 . S
O662 C682 1.251 . S
O663 Tb618 2.610 . S
O663 Tb629 2.362 . S
O663 C674 1.283 . S
O664 Tb629 2.421 . S
O664 C681 1.262 . S
O665 Tb618 2.320 . S
O665 C681 1.260 . S
O666 Tb618 2.552 . S
O666 C674 1.243 . S
O667 Tb618 2.413 . S
O667 C682 1.256 . S
O668 Tb629 2.546 . S
O668 C693 1.251 . S
O669 Tb618 2.362 . S
O669 Tb629 2.610 . S
O669 C685 1.283 . S
O670 Tb618 2.421 . S
O670 C692 1.262 . S
O671 Tb629 2.320 . S
O671 C692 1.260 . S
O672 Tb629 2.552 . S
O672 C685 1.243 . S
O673 Tb629 2.413 . S
O673 C693 1.256 . S
C674 O663 1.283 . S
C674 O666 1.243 . S
C675 C677 1.382 . S
C675 C679 1.393 . S
C675 C682 1.500 . S
C676 C677 1.400 . S
C676 C678 1.384 . S
C677 C675 1.382 . S
C677 C676 1.400 . S
C677 H694 0.930 . S
C678 C676 1.384 . S
C678 C680 1.392 . S
C678 H695 0.931 . S
C679 C675 1.393 . S
C679 C680 1.401 . S
C679 H696 0.930 . S
C680 C678 1.392 . S
C680 C679 1.401 . S
C680 H697 0.930 . S
C681 O664 1.262 . S
C681 O665 1.260 . S
C682 Tb618 2.833 . S
C682 O662 1.251 . S
C682 O667 1.256 . S
C682 C675 1.500 . S
C683 H648 0.929 . S
C683 C661 1.444 . S
C683 C684 1.317 . S
C684 H646 0.930 . S
C684 C652 1.432 . S
C684 C683 1.317 . S
C685 O669 1.283 . S
C685 O672 1.243 . S
C686 C687 1.382 . S
C686 C690 1.393 . S
C686 C693 1.500 . S
C687 C686 1.382 . S
C687 C688 1.400 . S
C687 H698 0.930 . S
C688 C687 1.400 . S
C688 C689 1.384 . S
C689 C688 1.384 . S
C689 C691 1.392 . S
C689 H699 0.931 . S
C690 C686 1.393 . S
C690 C691 1.401 . S
C690 H700 0.930 . S
C691 C689 1.392 . S
C691 C690 1.401 . S
C691 H701 0.930 . S
C692 O670 1.262 . S
C692 O671 1.260 . S
C693 Tb629 2.833 . S
C693 O668 1.251 . S
C693 O673 1.256 . S
C693 C686 1.500 . S
H694 C677 0.930 . S
H695 C678 0.931 . S
H696 C679 0.930 . S
H697 C680 0.930 . S
H698 C687 0.930 . S
H699 C689 0.931 . S
H700 C690 0.930 . S
H701 C691 0.930 . S
Tb702 N733 2.660 . S
Tb702 N740 2.600 . S
Tb702 O746 2.546 . S
Tb702 O747 2.610 . S
Tb702 O749 2.320 . S
Tb702 O750 2.552 . S
Tb702 O751 2.413 . S
Tb702 O753 2.362 . S
Tb702 O754 2.421 . S
Tb702 C766 2.833 . S
C703 C706 1.432 . S
C703 C707 1.414 . S
C703 N710 1.359 . S
C704 C706 1.417 . S
C704 C708 1.432 . S
C704 C716 1.410 . S
C705 C707 1.444 . S
C705 C708 1.317 . S
C705 H728 0.929 . S
C706 C703 1.432 . S
C706 C704 1.417 . S
C706 N714 1.360 . S
C707 C703 1.414 . S
C707 C705 1.444 . S
C707 C712 1.385 . S
C708 C704 1.432 . S
C708 C705 1.317 . S
C708 H720 0.930 . S
C709 C711 1.392 . S
C709 C712 1.370 . S
C709 H721 0.931 . S
N710 C703 1.359 . S
N710 C711 1.327 . S
N710 Tb713 2.600 . S
C711 C709 1.392 . S
C711 N710 1.327 . S
C711 H718 0.930 . S
C712 C707 1.385 . S
C712 C709 1.370 . S
C712 H731 0.930 . S
Tb713 N710 2.600 . S
Tb713 N714 2.660 . S
Tb713 O747 2.362 . S
Tb713 O748 2.421 . S
Tb713 O752 2.546 . S
Tb713 O753 2.610 . S
Tb713 O755 2.320 . S
Tb713 O756 2.552 . S
Tb713 O757 2.413 . S
Tb713 C777 2.833 . S
N714 C706 1.360 . S
N714 Tb713 2.660 . S
N714 C715 1.305 . S
C715 N714 1.305 . S
C715 C717 1.407 . S
C715 H722 0.930 . S
C716 C704 1.410 . S
C716 C717 1.345 . S
C716 H724 0.930 . S
C717 C715 1.407 . S
C717 C716 1.345 . S
C717 H719 0.930 . S
H718 C711 0.930 . S
H719 C717 0.930 . S
H720 C708 0.930 . S
H721 C709 0.931 . S
H722 C715 0.930 . S
H723 C737 0.930 . S
H724 C716 0.930 . S
H725 C743 0.930 . S
H726 C734 0.930 . S
H727 C741 0.931 . S
H728 C705 0.929 . S
H729 C735 0.930 . S
H730 C768 0.930 . S
H731 C712 0.930 . S
H732 C767 0.929 . S
N733 Tb702 2.660 . S
N733 C734 1.305 . S
N733 C738 1.360 . S
C734 H726 0.930 . S
C734 N733 1.305 . S
C734 C737 1.407 . S
C735 H729 0.930 . S
C735 C736 1.410 . S
C735 C737 1.345 . S
C736 C735 1.410 . S
C736 C738 1.417 . S
C736 C768 1.432 . S
C737 H723 0.930 . S
C737 C734 1.407 . S
C737 C735 1.345 . S
C738 N733 1.360 . S
C738 C736 1.417 . S
C738 C742 1.432 . S
H739 C744 0.930 . S
N740 Tb702 2.600 . S
N740 C742 1.359 . S
N740 C743 1.327 . S
C741 H727 0.931 . S
C741 C743 1.392 . S
C741 C744 1.370 . S
C742 C738 1.432 . S
C742 N740 1.359 . S
C742 C745 1.414 . S
C743 H725 0.930 . S
C743 N740 1.327 . S
C743 C741 1.392 . S
C744 H739 0.930 . S
C744 C741 1.370 . S
C744 C745 1.385 . S
C745 C742 1.414 . S
C745 C744 1.385 . S
C745 C767 1.444 . S
O746 Tb702 2.546 . S
O746 C766 1.251 . S
O747 Tb702 2.610 . S
O747 Tb713 2.362 . S
O747 C758 1.283 . S
O748 Tb713 2.421 . S
O748 C765 1.262 . S
O749 Tb702 2.320 . S
O749 C765 1.260 . S
O750 Tb702 2.552 . S
O750 C758 1.243 . S
O751 Tb702 2.413 . S
O751 C766 1.256 . S
O752 Tb713 2.546 . S
O752 C777 1.251 . S
O753 Tb702 2.362 . S
O753 Tb713 2.610 . S
O753 C769 1.283 . S
O754 Tb702 2.421 . S
O754 C776 1.262 . S
O755 Tb713 2.320 . S
O755 C776 1.260 . S
O756 Tb713 2.552 . S
O756 C769 1.243 . S
O757 Tb713 2.413 . S
O757 C777 1.256 . S
C758 O747 1.283 . S
C758 O750 1.243 . S
C759 C761 1.382 . S
C759 C763 1.393 . S
C759 C766 1.500 . S
C760 C761 1.400 . S
C760 C762 1.384 . S
C761 C759 1.382 . S
C761 C760 1.400 . S
C761 H778 0.930 . S
C762 C760 1.384 . S
C762 C764 1.392 . S
C762 H779 0.931 . S
C763 C759 1.393 . S
C763 C764 1.401 . S
C763 H780 0.930 . S
C764 C762 1.392 . S
C764 C763 1.401 . S
C764 H781 0.930 . S
C765 O748 1.262 . S
C765 O749 1.260 . S
C766 Tb702 2.833 . S
C766 O746 1.251 . S
C766 O751 1.256 . S
C766 C759 1.500 . S
C767 H732 0.929 . S
C767 C745 1.444 . S
C767 C768 1.317 . S
C768 H730 0.930 . S
C768 C736 1.432 . S
C768 C767 1.317 . S
C769 O753 1.283 . S
C769 O756 1.243 . S
C770 C771 1.382 . S
C770 C774 1.393 . S
C770 C777 1.500 . S
C771 C770 1.382 . S
C771 C772 1.400 . S
C771 H782 0.930 . S
C772 C771 1.400 . S
C772 C773 1.384 . S
C773 C772 1.384 . S
C773 C775 1.392 . S
C773 H783 0.931 . S
C774 C770 1.393 . S
C774 C775 1.401 . S
C774 H784 0.930 . S
C775 C773 1.392 . S
C775 C774 1.401 . S
C775 H785 0.930 . S
C776 O754 1.262 . S
C776 O755 1.260 . S
C777 Tb713 2.833 . S
C777 O752 1.251 . S
C777 O757 1.256 . S
C777 C770 1.500 . S
H778 C761 0.930 . S
H779 C762 0.931 . S
H780 C763 0.930 . S
H781 C764 0.930 . S
H782 C771 0.930 . S
H783 C773 0.931 . S
H784 C774 0.930 . S
H785 C775 0.930 . S
Tb786 N817 2.660 . S
Tb786 N824 2.600 . S
Tb786 O830 2.546 . S
Tb786 O831 2.610 . S
Tb786 O833 2.320 . S
Tb786 O834 2.552 . S
Tb786 O835 2.413 . S
Tb786 O837 2.362 . S
Tb786 O838 2.421 . S
Tb786 C850 2.833 . S
C787 C790 1.432 . S
C787 C791 1.414 . S
C787 N794 1.359 . S
C788 C790 1.417 . S
C788 C792 1.432 . S
C788 C800 1.410 . S
C789 C791 1.444 . S
C789 C792 1.317 . S
C789 H812 0.929 . S
C790 C787 1.432 . S
C790 C788 1.417 . S
C790 N798 1.360 . S
C791 C787 1.414 . S
C791 C789 1.444 . S
C791 C796 1.385 . S
C792 C788 1.432 . S
C792 C789 1.317 . S
C792 H804 0.930 . S
C793 C795 1.392 . S
C793 C796 1.370 . S
C793 H805 0.931 . S
N794 C787 1.359 . S
N794 C795 1.327 . S
N794 Tb797 2.600 . S
C795 C793 1.392 . S
C795 N794 1.327 . S
C795 H802 0.930 . S
C796 C791 1.385 . S
C796 C793 1.370 . S
C796 H815 0.930 . S
Tb797 N794 2.600 . S
Tb797 N798 2.660 . S
Tb797 O831 2.362 . S
Tb797 O832 2.421 . S
Tb797 O836 2.546 . S
Tb797 O837 2.610 . S
Tb797 O839 2.320 . S
Tb797 O840 2.552 . S
Tb797 O841 2.413 . S
Tb797 C861 2.833 . S
N798 C790 1.360 . S
N798 Tb797 2.660 . S
N798 C799 1.305 . S
C799 N798 1.305 . S
C799 C801 1.407 . S
C799 H806 0.930 . S
C800 C788 1.410 . S
C800 C801 1.345 . S
C800 H808 0.930 . S
C801 C799 1.407 . S
C801 C800 1.345 . S
C801 H803 0.930 . S
H802 C795 0.930 . S
H803 C801 0.930 . S
H804 C792 0.930 . S
H805 C793 0.931 . S
H806 C799 0.930 . S
H807 C821 0.930 . S
H808 C800 0.930 . S
H809 C827 0.930 . S
H810 C818 0.930 . S
H811 C825 0.931 . S
H812 C789 0.929 . S
H813 C819 0.930 . S
H814 C852 0.930 . S
H815 C796 0.930 . S
H816 C851 0.929 . S
N817 Tb786 2.660 . S
N817 C818 1.305 . S
N817 C822 1.360 . S
C818 H810 0.930 . S
C818 N817 1.305 . S
C818 C821 1.407 . S
C819 H813 0.930 . S
C819 C820 1.410 . S
C819 C821 1.345 . S
C820 C819 1.410 . S
C820 C822 1.417 . S
C820 C852 1.432 . S
C821 H807 0.930 . S
C821 C818 1.407 . S
C821 C819 1.345 . S
C822 N817 1.360 . S
C822 C820 1.417 . S
C822 C826 1.432 . S
H823 C828 0.930 . S
N824 Tb786 2.600 . S
N824 C826 1.359 . S
N824 C827 1.327 . S
C825 H811 0.931 . S
C825 C827 1.392 . S
C825 C828 1.370 . S
C826 C822 1.432 . S
C826 N824 1.359 . S
C826 C829 1.414 . S
C827 H809 0.930 . S
C827 N824 1.327 . S
C827 C825 1.392 . S
C828 H823 0.930 . S
C828 C825 1.370 . S
C828 C829 1.385 . S
C829 C826 1.414 . S
C829 C828 1.385 . S
C829 C851 1.444 . S
O830 Tb786 2.546 . S
O830 C850 1.251 . S
O831 Tb786 2.610 . S
O831 Tb797 2.362 . S
O831 C842 1.283 . S
O832 Tb797 2.421 . S
O832 C849 1.262 . S
O833 Tb786 2.320 . S
O833 C849 1.260 . S
O834 Tb786 2.552 . S
O834 C842 1.243 . S
O835 Tb786 2.413 . S
O835 C850 1.256 . S
O836 Tb797 2.546 . S
O836 C861 1.251 . S
O837 Tb786 2.362 . S
O837 Tb797 2.610 . S
O837 C853 1.283 . S
O838 Tb786 2.421 . S
O838 C860 1.262 . S
O839 Tb797 2.320 . S
O839 C860 1.260 . S
O840 Tb797 2.552 . S
O840 C853 1.243 . S
O841 Tb797 2.413 . S
O841 C861 1.256 . S
C842 O831 1.283 . S
C842 O834 1.243 . S
C843 C845 1.382 . S
C843 C847 1.393 . S
C843 C850 1.500 . S
C844 C845 1.400 . S
C844 C846 1.384 . S
C845 C843 1.382 . S
C845 C844 1.400 . S
C845 H862 0.930 . S
C846 C844 1.384 . S
C846 C848 1.392 . S
C846 H863 0.931 . S
C847 C843 1.393 . S
C847 C848 1.401 . S
C847 H864 0.930 . S
C848 C846 1.392 . S
C848 C847 1.401 . S
C848 H865 0.930 . S
C849 O832 1.262 . S
C849 O833 1.260 . S
C850 Tb786 2.833 . S
C850 O830 1.251 . S
C850 O835 1.256 . S
C850 C843 1.500 . S
C851 H816 0.929 . S
C851 C829 1.444 . S
C851 C852 1.317 . S
C852 H814 0.930 . S
C852 C820 1.432 . S
C852 C851 1.317 . S
C853 O837 1.283 . S
C853 O840 1.243 . S
C854 C855 1.382 . S
C854 C858 1.393 . S
C854 C861 1.500 . S
C855 C854 1.382 . S
C855 C856 1.400 . S
C855 H866 0.930 . S
C856 C855 1.400 . S
C856 C857 1.384 . S
C857 C856 1.384 . S
C857 C859 1.392 . S
C857 H867 0.931 . S
C858 C854 1.393 . S
C858 C859 1.401 . S
C858 H868 0.930 . S
C859 C857 1.392 . S
C859 C858 1.401 . S
C859 H869 0.930 . S
C860 O838 1.262 . S
C860 O839 1.260 . S
C861 Tb797 2.833 . S
C861 O836 1.251 . S
C861 O841 1.256 . S
C861 C854 1.500 . S
H862 C845 0.930 . S
H863 C846 0.931 . S
H864 C847 0.930 . S
H865 C848 0.930 . S
H866 C855 0.930 . S
H867 C857 0.931 . S
H868 C858 0.930 . S
H869 C859 0.930 . S
Tb870 N901 2.660 . S
Tb870 N908 2.600 . S
Tb870 O914 2.546 . S
Tb870 O915 2.610 . S
Tb870 O917 2.320 . S
Tb870 O918 2.552 . S
Tb870 O919 2.413 . S
Tb870 O921 2.362 . S
Tb870 O922 2.421 . S
Tb870 C934 2.833 . S
C871 C874 1.432 . S
C871 C875 1.414 . S
C871 N878 1.359 . S
C872 C874 1.417 . S
C872 C876 1.432 . S
C872 C884 1.410 . S
C873 C875 1.444 . S
C873 C876 1.317 . S
C873 H896 0.929 . S
C874 C871 1.432 . S
C874 C872 1.417 . S
C874 N882 1.360 . S
C875 C871 1.414 . S
C875 C873 1.444 . S
C875 C880 1.385 . S
C876 C872 1.432 . S
C876 C873 1.317 . S
C876 H888 0.930 . S
C877 C879 1.392 . S
C877 C880 1.370 . S
C877 H889 0.931 . S
N878 C871 1.359 . S
N878 C879 1.327 . S
N878 Tb881 2.600 . S
C879 C877 1.392 . S
C879 N878 1.327 . S
C879 H886 0.930 . S
C880 C875 1.385 . S
C880 C877 1.370 . S
C880 H899 0.930 . S
Tb881 N878 2.600 . S
Tb881 N882 2.660 . S
Tb881 O915 2.362 . S
Tb881 O916 2.421 . S
Tb881 O920 2.546 . S
Tb881 O921 2.610 . S
Tb881 O923 2.320 . S
Tb881 O924 2.552 . S
Tb881 O925 2.413 . S
Tb881 C945 2.833 . S
N882 C874 1.360 . S
N882 Tb881 2.660 . S
N882 C883 1.305 . S
C883 N882 1.305 . S
C883 C885 1.407 . S
C883 H890 0.930 . S
C884 C872 1.410 . S
C884 C885 1.345 . S
C884 H892 0.930 . S
C885 C883 1.407 . S
C885 C884 1.345 . S
C885 H887 0.930 . S
H886 C879 0.930 . S
H887 C885 0.930 . S
H888 C876 0.930 . S
H889 C877 0.931 . S
H890 C883 0.930 . S
H891 C905 0.930 . S
H892 C884 0.930 . S
H893 C911 0.930 . S
H894 C902 0.930 . S
H895 C909 0.931 . S
H896 C873 0.929 . S
H897 C903 0.930 . S
H898 C936 0.930 . S
H899 C880 0.930 . S
H900 C935 0.929 . S
N901 Tb870 2.660 . S
N901 C902 1.305 . S
N901 C906 1.360 . S
C902 H894 0.930 . S
C902 N901 1.305 . S
C902 C905 1.407 . S
C903 H897 0.930 . S
C903 C904 1.410 . S
C903 C905 1.345 . S
C904 C903 1.410 . S
C904 C906 1.417 . S
C904 C936 1.432 . S
C905 H891 0.930 . S
C905 C902 1.407 . S
C905 C903 1.345 . S
C906 N901 1.360 . S
C906 C904 1.417 . S
C906 C910 1.432 . S
H907 C912 0.930 . S
N908 Tb870 2.600 . S
N908 C910 1.359 . S
N908 C911 1.327 . S
C909 H895 0.931 . S
C909 C911 1.392 . S
C909 C912 1.370 . S
C910 C906 1.432 . S
C910 N908 1.359 . S
C910 C913 1.414 . S
C911 H893 0.930 . S
C911 N908 1.327 . S
C911 C909 1.392 . S
C912 H907 0.930 . S
C912 C909 1.370 . S
C912 C913 1.385 . S
C913 C910 1.414 . S
C913 C912 1.385 . S
C913 C935 1.444 . S
O914 Tb870 2.546 . S
O914 C934 1.251 . S
O915 Tb870 2.610 . S
O915 Tb881 2.362 . S
O915 C926 1.283 . S
O916 Tb881 2.421 . S
O916 C933 1.262 . S
O917 Tb870 2.320 . S
O917 C933 1.260 . S
O918 Tb870 2.552 . S
O918 C926 1.243 . S
O919 Tb870 2.413 . S
O919 C934 1.256 . S
O920 Tb881 2.546 . S
O920 C945 1.251 . S
O921 Tb870 2.362 . S
O921 Tb881 2.610 . S
O921 C937 1.283 . S
O922 Tb870 2.421 . S
O922 C944 1.262 . S
O923 Tb881 2.320 . S
O923 C944 1.260 . S
O924 Tb881 2.552 . S
O924 C937 1.243 . S
O925 Tb881 2.413 . S
O925 C945 1.256 . S
C926 O915 1.283 . S
C926 O918 1.243 . S
C927 C929 1.382 . S
C927 C931 1.393 . S
C927 C934 1.500 . S
C928 C929 1.400 . S
C928 C930 1.384 . S
C929 C927 1.382 . S
C929 C928 1.400 . S
C929 H946 0.930 . S
C930 C928 1.384 . S
C930 C932 1.392 . S
C930 H947 0.931 . S
C931 C927 1.393 . S
C931 C932 1.401 . S
C931 H948 0.930 . S
C932 C930 1.392 . S
C932 C931 1.401 . S
C932 H949 0.930 . S
C933 O916 1.262 . S
C933 O917 1.260 . S
C934 Tb870 2.833 . S
C934 O914 1.251 . S
C934 O919 1.256 . S
C934 C927 1.500 . S
C935 H900 0.929 . S
C935 C913 1.444 . S
C935 C936 1.317 . S
C936 H898 0.930 . S
C936 C904 1.432 . S
C936 C935 1.317 . S
C937 O921 1.283 . S
C937 O924 1.243 . S
C938 C939 1.382 . S
C938 C942 1.393 . S
C938 C945 1.500 . S
C939 C938 1.382 . S
C939 C940 1.400 . S
C939 H950 0.930 . S
C940 C939 1.400 . S
C940 C941 1.384 . S
C941 C940 1.384 . S
C941 C943 1.392 . S
C941 H951 0.931 . S
C942 C938 1.393 . S
C942 C943 1.401 . S
C942 H952 0.930 . S
C943 C941 1.392 . S
C943 C942 1.401 . S
C943 H953 0.930 . S
C944 O922 1.262 . S
C944 O923 1.260 . S
C945 Tb881 2.833 . S
C945 O920 1.251 . S
C945 O925 1.256 . S
C945 C938 1.500 . S
H946 C929 0.930 . S
H947 C930 0.931 . S
H948 C931 0.930 . S
H949 C932 0.930 . S
H950 C939 0.930 . S
H951 C941 0.931 . S
H952 C942 0.930 . S
H953 C943 0.930 . S
H954 C962 0.929 . S
H955 C964 0.930 . S
H956 C966 0.930 . S
H957 C969 0.929 . S
H958 C972 0.930 . S
H959 C974 0.960 . S
H960 C974 0.960 . S
H961 C974 0.960 . S
C962 H954 0.929 . S
C962 C963 1.377 . S
C962 C964 1.384 . S
C963 C962 1.377 . S
C963 C969 1.390 . S
C964 H955 0.930 . S
C964 C962 1.384 . S
C964 C965 1.372 . S
C965 C964 1.372 . S
C965 C966 1.400 . S
C965 C970 1.490 . S
C966 H956 0.930 . S
C966 C965 1.400 . S
C966 C969 1.386 . S
H967 C983 0.930 . S
H968 C984 0.931 . S
C969 H957 0.929 . S
C969 C963 1.390 . S
C969 C966 1.386 . S
C970 C965 1.490 . S
C970 C972 1.395 . S
C970 C973 1.403 . S
H971 C977 0.930 . S
C972 H958 0.930 . S
C972 C970 1.395 . S
C972 C975 1.403 . S
C973 C970 1.403 . S
C973 C974 1.524 . S
C973 C977 1.400 . S
C974 H959 0.960 . S
C974 H960 0.960 . S
C974 H961 0.960 . S
C974 C973 1.524 . S
C975 C972 1.403 . S
C975 C976 1.392 . S
C975 C979 1.495 . S
C976 C975 1.392 . S
C976 C977 1.385 . S
C976 C978 1.478 . S
C977 H971 0.930 . S
C977 C973 1.400 . S
C977 C976 1.385 . S
C978 C976 1.478 . S
C978 C980 1.381 . S
C978 C984 1.383 . S
C979 C975 1.495 . S
C979 H985 0.959 . S
C979 H986 0.961 . S
C979 H987 0.960 . S
C980 C978 1.381 . S
C980 C981 1.394 . S
C980 H988 0.930 . S
C981 C980 1.394 . S
C981 C982 1.383 . S
C981 H989 0.929 . S
C982 C981 1.383 . S
C982 C983 1.377 . S
C983 H967 0.930 . S
C983 C982 1.377 . S
C983 C984 1.379 . S
C984 H968 0.931 . S
C984 C978 1.383 . S
C984 C983 1.379 . S
H985 C979 0.959 . S
H986 C979 0.961 . S
H987 C979 0.960 . S
H988 C980 0.930 . S
H989 C981 0.929 . S
H990 C998 0.929 . S
H991 C1000 0.930 . S
H992 C1002 0.930 . S
H993 C1005 0.929 . S
H994 C1008 0.930 . S
H995 C1010 0.960 . S
H996 C1010 0.960 . S
H997 C1010 0.960 . S
C998 H990 0.929 . S
C998 C999 1.377 . S
C998 C1000 1.384 . S
C999 C998 1.377 . S
C999 C1005 1.390 . S
C1000 H991 0.930 . S
C1000 C998 1.384 . S
C1000 C1001 1.372 . S
C1001 C1000 1.372 . S
C1001 C1002 1.400 . S
C1001 C1006 1.490 . S
C1002 H992 0.930 . S
C1002 C1001 1.400 . S
C1002 C1005 1.386 . S
H1003 C1019 0.930 . S
H1004 C1020 0.931 . S
C1005 H993 0.929 . S
C1005 C999 1.390 . S
C1005 C1002 1.386 . S
C1006 C1001 1.490 . S
C1006 C1008 1.395 . S
C1006 C1009 1.403 . S
H1007 C1013 0.930 . S
C1008 H994 0.930 . S
C1008 C1006 1.395 . S
C1008 C1011 1.403 . S
C1009 C1006 1.403 . S
C1009 C1010 1.524 . S
C1009 C1013 1.400 . S
C1010 H995 0.960 . S
C1010 H996 0.960 . S
C1010 H997 0.960 . S
C1010 C1009 1.524 . S
C1011 C1008 1.403 . S
C1011 C1012 1.392 . S
C1011 C1015 1.495 . S
C1012 C1011 1.392 . S
C1012 C1013 1.385 . S
C1012 C1014 1.478 . S
C1013 H1007 0.930 . S
C1013 C1009 1.400 . S
C1013 C1012 1.385 . S
C1014 C1012 1.478 . S
C1014 C1016 1.381 . S
C1014 C1020 1.383 . S
C1015 C1011 1.495 . S
C1015 H1021 0.959 . S
C1015 H1022 0.961 . S
C1015 H1023 0.960 . S
C1016 C1014 1.381 . S
C1016 C1017 1.394 . S
C1016 H1024 0.930 . S
C1017 C1016 1.394 . S
C1017 C1018 1.383 . S
C1017 H1025 0.929 . S
C1018 C1017 1.383 . S
C1018 C1019 1.377 . S
C1019 H1003 0.930 . S
C1019 C1018 1.377 . S
C1019 C1020 1.379 . S
C1020 H1004 0.931 . S
C1020 C1014 1.383 . S
C1020 C1019 1.379 . S
H1021 C1015 0.959 . S
H1022 C1015 0.961 . S
H1023 C1015 0.960 . S
H1024 C1016 0.930 . S
H1025 C1017 0.929 . S
H1026 C1034 0.929 . S
H1027 C1036 0.930 . S
H1028 C1038 0.930 . S
H1029 C1041 0.929 . S
H1030 C1044 0.930 . S
H1031 C1046 0.960 . S
H1032 C1046 0.960 . S
H1033 C1046 0.960 . S
C1034 H1026 0.929 . S
C1034 C1035 1.377 . S
C1034 C1036 1.384 . S
C1035 C1034 1.377 . S
C1035 C1041 1.390 . S
C1036 H1027 0.930 . S
C1036 C1034 1.384 . S
C1036 C1037 1.372 . S
C1037 C1036 1.372 . S
C1037 C1038 1.400 . S
C1037 C1042 1.490 . S
C1038 H1028 0.930 . S
C1038 C1037 1.400 . S
C1038 C1041 1.386 . S
H1039 C1055 0.930 . S
H1040 C1056 0.931 . S
C1041 H1029 0.929 . S
C1041 C1035 1.390 . S
C1041 C1038 1.386 . S
C1042 C1037 1.490 . S
C1042 C1044 1.395 . S
C1042 C1045 1.403 . S
H1043 C1049 0.930 . S
C1044 H1030 0.930 . S
C1044 C1042 1.395 . S
C1044 C1047 1.403 . S
C1045 C1042 1.403 . S
C1045 C1046 1.524 . S
C1045 C1049 1.400 . S
C1046 H1031 0.960 . S
C1046 H1032 0.960 . S
C1046 H1033 0.960 . S
C1046 C1045 1.524 . S
C1047 C1044 1.403 . S
C1047 C1048 1.392 . S
C1047 C1051 1.495 . S
C1048 C1047 1.392 . S
C1048 C1049 1.385 . S
C1048 C1050 1.478 . S
C1049 H1043 0.930 . S
C1049 C1045 1.400 . S
C1049 C1048 1.385 . S
C1050 C1048 1.478 . S
C1050 C1052 1.381 . S
C1050 C1056 1.383 . S
C1051 C1047 1.495 . S
C1051 H1057 0.959 . S
C1051 H1058 0.961 . S
C1051 H1059 0.960 . S
C1052 C1050 1.381 . S
C1052 C1053 1.394 . S
C1052 H1060 0.930 . S
C1053 C1052 1.394 . S
C1053 C1054 1.383 . S
C1053 H1061 0.929 . S
C1054 C1053 1.383 . S
C1054 C1055 1.377 . S
C1055 H1039 0.930 . S
C1055 C1054 1.377 . S
C1055 C1056 1.379 . S
C1056 H1040 0.931 . S
C1056 C1050 1.383 . S
C1056 C1055 1.379 . S
H1057 C1051 0.959 . S
H1058 C1051 0.961 . S
H1059 C1051 0.960 . S
H1060 C1052 0.930 . S
H1061 C1053 0.929 . S
H1062 C1070 0.929 . S
H1063 C1072 0.930 . S
H1064 C1074 0.930 . S
H1065 C1077 0.929 . S
H1066 C1080 0.930 . S
H1067 C1082 0.960 . S
H1068 C1082 0.960 . S
H1069 C1082 0.960 . S
C1070 H1062 0.929 . S
C1070 C1071 1.377 . S
C1070 C1072 1.384 . S
C1071 C1070 1.377 . S
C1071 C1077 1.390 . S
C1072 H1063 0.930 . S
C1072 C1070 1.384 . S
C1072 C1073 1.372 . S
C1073 C1072 1.372 . S
C1073 C1074 1.400 . S
C1073 C1078 1.490 . S
C1074 H1064 0.930 . S
C1074 C1073 1.400 . S
C1074 C1077 1.386 . S
H1075 C1091 0.930 . S
H1076 C1092 0.931 . S
C1077 H1065 0.929 . S
C1077 C1071 1.390 . S
C1077 C1074 1.386 . S
C1078 C1073 1.490 . S
C1078 C1080 1.395 . S
C1078 C1081 1.403 . S
H1079 C1085 0.930 . S
C1080 H1066 0.930 . S
C1080 C1078 1.395 . S
C1080 C1083 1.403 . S
C1081 C1078 1.403 . S
C1081 C1082 1.524 . S
C1081 C1085 1.400 . S
C1082 H1067 0.960 . S
C1082 H1068 0.960 . S
C1082 H1069 0.960 . S
C1082 C1081 1.524 . S
C1083 C1080 1.403 . S
C1083 C1084 1.392 . S
C1083 C1087 1.495 . S
C1084 C1083 1.392 . S
C1084 C1085 1.385 . S
C1084 C1086 1.478 . S
C1085 H1079 0.930 . S
C1085 C1081 1.400 . S
C1085 C1084 1.385 . S
C1086 C1084 1.478 . S
C1086 C1088 1.381 1_556 S
C1086 C1092 1.383 . S
C1087 C1083 1.495 . S
C1087 H1093 0.959 . S
C1087 H1094 0.961 . S
C1087 H1095 0.987 . S
C1088 C1086 1.381 1_554 S
C1088 C1089 1.394 . S
C1088 H1096 0.930 . S
C1089 C1088 1.394 . S
C1089 C1090 1.383 1_554 S
C1089 H1097 0.929 . S
C1090 C1089 1.383 1_556 S
C1090 C1091 1.377 . S
C1091 H1075 0.930 . S
C1091 C1090 1.377 . S
C1091 C1092 1.379 . S
C1092 H1076 0.931 . S
C1092 C1086 1.383 . S
C1092 C1091 1.379 . S
H1093 C1087 0.959 . S
H1094 C1087 0.961 . S
H1095 C1087 0.987 . S
H1096 C1088 0.930 . S
H1097 C1089 0.929 . S
H1098 C1106 0.929 . S
H1099 C1108 0.930 . S
H1100 C1110 0.930 . S
H1101 C1113 0.929 . S
H1102 C1116 0.930 . S
H1103 C1118 0.942 1_554 S
H1104 C1118 0.955 1_554 S
H1105 C1118 0.966 . S
C1106 H1098 0.929 . S
C1106 C1107 1.377 . S
C1106 C1108 1.384 . S
C1107 C1106 1.377 . S
C1107 C1113 1.390 . S
C1108 H1099 0.930 . S
C1108 C1106 1.384 . S
C1108 C1109 1.372 . S
C1109 C1108 1.372 . S
C1109 C1110 1.400 . S
C1109 C1114 1.490 . S
C1110 H1100 0.930 . S
C1110 C1109 1.400 . S
C1110 C1113 1.386 . S
H1111 C1127 0.950 . S
H1112 C1128 0.931 . S
C1113 H1101 0.929 . S
C1113 C1107 1.390 . S
C1113 C1110 1.386 . S
C1114 C1109 1.490 . S
C1114 C1116 1.395 . S
C1114 C1117 1.403 . S
H1115 C1121 0.898 1_554 S
C1116 H1102 0.930 . S
C1116 C1114 1.395 . S
C1116 C1119 1.403 . S
C1117 C1114 1.403 . S
C1117 C1118 1.539 . S
C1117 C1121 1.400 . S
C1118 H1103 0.942 1_556 S
C1118 H1104 0.955 1_556 S
C1118 H1105 0.966 . S
C1118 C1117 1.539 . S
C1119 C1116 1.403 . S
C1119 C1120 1.392 . S
C1119 C1123 1.495 . S
C1120 C1119 1.392 . S
C1120 C1121 1.385 . S
C1120 C1122 1.478 . S
C1121 H1115 0.898 1_556 S
C1121 C1117 1.400 . S
C1121 C1120 1.385 . S
C1122 C1120 1.478 . S
C1122 C1124 1.381 . S
C1122 C1128 1.383 . S
C1123 C1119 1.495 . S
C1123 H1129 0.959 . S
C1123 H1130 0.961 . S
C1123 H1131 0.960 . S
C1124 C1122 1.381 . S
C1124 C1125 1.394 . S
C1124 H1132 0.930 . S
C1125 C1124 1.394 . S
C1125 C1126 1.383 . S
C1125 H1133 0.929 . S
C1126 C1125 1.383 . S
C1126 C1127 1.377 . S
C1127 H1111 0.950 . S
C1127 C1126 1.377 . S
C1127 C1128 1.379 . S
C1128 H1112 0.931 . S
C1128 C1122 1.383 . S
C1128 C1127 1.379 . S
H1129 C1123 0.959 . S
H1130 C1123 0.961 . S
H1131 C1123 0.960 . S
H1132 C1124 0.930 . S
H1133 C1125 0.929 . S
H1134 C1142 0.929 . S
H1135 C1144 0.930 . S
H1136 C1146 0.930 . S
H1137 C1149 0.929 . S
H1138 C1152 0.930 . S
H1139 C1154 0.960 . S
H1140 C1154 0.960 . S
H1141 C1154 0.960 . S
C1142 H1134 0.929 . S
C1142 C1143 1.377 . S
C1142 C1144 1.384 . S
C1143 C1142 1.377 . S
C1143 C1149 1.390 . S
C1144 H1135 0.930 . S
C1144 C1142 1.384 . S
C1144 C1145 1.372 . S
C1145 C1144 1.372 . S
C1145 C1146 1.400 . S
C1145 C1150 1.490 . S
C1146 H1136 0.930 . S
C1146 C1145 1.400 . S
C1146 C1149 1.386 . S
H1147 C1163 0.930 . S
H1148 C1164 0.931 . S
C1149 H1137 0.929 . S
C1149 C1143 1.390 . S
C1149 C1146 1.386 . S
C1150 C1145 1.490 . S
C1150 C1152 1.395 . S
C1150 C1153 1.403 . S
H1151 C1157 0.930 . S
C1152 H1138 0.930 . S
C1152 C1150 1.395 . S
C1152 C1155 1.403 . S
C1153 C1150 1.403 . S
C1153 C1154 1.524 . S
C1153 C1157 1.400 . S
C1154 H1139 0.960 . S
C1154 H1140 0.960 . S
C1154 H1141 0.960 . S
C1154 C1153 1.524 . S
C1155 C1152 1.403 . S
C1155 C1156 1.392 . S
C1155 C1159 1.495 . S
C1156 C1155 1.392 . S
C1156 C1157 1.385 . S
C1156 C1158 1.478 . S
C1157 H1151 0.930 . S
C1157 C1153 1.400 . S
C1157 C1156 1.385 . S
C1158 C1156 1.478 . S
C1158 C1160 1.381 1_556 S
C1158 C1164 1.383 . S
C1159 C1155 1.495 . S
C1159 H1165 0.959 . S
C1159 H1166 0.961 . S
C1159 H1167 0.960 . S
C1160 C1158 1.381 1_554 S
C1160 C1161 1.394 . S
C1160 H1168 0.930 . S
C1161 C1160 1.394 . S
C1161 C1162 1.383 1_554 S
C1161 H1169 0.929 . S
C1162 C1161 1.383 1_556 S
C1162 C1163 1.377 . S
C1163 H1147 0.930 . S
C1163 C1162 1.377 . S
C1163 C1164 1.379 . S
C1164 H1148 0.931 . S
C1164 C1158 1.383 . S
C1164 C1163 1.379 . S
H1165 C1159 0.959 . S
H1166 C1159 0.961 . S
H1167 C1159 0.960 . S
H1168 C1160 0.930 . S
H1169 C1161 0.929 . S
H1170 C1178 0.929 . S
H1171 C1180 0.930 . S
H1172 C1182 0.930 . S
H1173 C1185 0.929 . S
H1174 C1188 0.930 . S
H1175 C1190 0.960 . S
H1176 C1190 0.960 . S
H1177 C1190 0.960 . S
C1178 H1170 0.929 . S
C1178 C1179 1.377 . S
C1178 C1180 1.384 . S
C1179 C1178 1.377 . S
C1179 C1185 1.390 . S
C1180 H1171 0.930 . S
C1180 C1178 1.384 . S
C1180 C1181 1.372 . S
C1181 C1180 1.372 . S
C1181 C1182 1.400 . S
C1181 C1186 1.490 . S
C1182 H1172 0.930 . S
C1182 C1181 1.400 . S
C1182 C1185 1.386 . S
H1183 C1199 0.930 . S
H1184 C1200 0.931 . S
C1185 H1173 0.929 . S
C1185 C1179 1.390 . S
C1185 C1182 1.386 . S
C1186 C1181 1.490 . S
C1186 C1188 1.395 . S
C1186 C1189 1.403 . S
H1187 C1193 0.930 . S
C1188 H1174 0.930 . S
C1188 C1186 1.395 . S
C1188 C1191 1.403 . S
C1189 C1186 1.403 . S
C1189 C1190 1.524 . S
C1189 C1193 1.400 . S
C1190 H1175 0.960 . S
C1190 H1176 0.960 . S
C1190 H1177 0.960 . S
C1190 C1189 1.524 . S
C1191 C1188 1.403 . S
C1191 C1192 1.392 . S
C1191 C1195 1.495 . S
C1192 C1191 1.392 . S
C1192 C1193 1.385 . S
C1192 C1194 1.478 . S
C1193 H1187 0.930 . S
C1193 C1189 1.400 . S
C1193 C1192 1.385 . S
C1194 C1192 1.478 . S
C1194 C1196 1.381 . S
C1194 C1200 1.383 1_556 S
C1195 C1191 1.495 . S
C1195 H1201 0.959 . S
C1195 H1202 0.961 . S
C1195 H1203 0.960 . S
C1196 C1194 1.381 . S
C1196 C1197 1.394 . S
C1196 H1204 0.930 . S
C1197 C1196 1.394 . S
C1197 C1198 1.383 . S
C1197 H1205 0.929 . S
C1198 C1197 1.383 . S
C1198 C1199 1.377 1_556 S
C1199 H1183 0.930 . S
C1199 C1198 1.377 1_554 S
C1199 C1200 1.379 . S
C1200 H1184 0.931 . S
C1200 C1194 1.383 1_554 S
C1200 C1199 1.379 . S
H1201 C1195 0.959 . S
H1202 C1195 0.961 . S
H1203 C1195 0.960 . S
H1204 C1196 0.930 . S
H1205 C1197 0.929 . S
H1206 C1214 0.929 . S
H1207 C1216 0.930 . S
H1208 C1218 0.930 . S
H1209 C1221 0.929 . S
H1210 C1224 0.930 . S
H1211 C1226 0.960 . S
H1212 C1226 0.960 . S
H1213 C1226 0.960 . S
C1214 H1206 0.929 . S
C1214 C1215 1.377 . S
C1214 C1216 1.384 . S
C1215 C1214 1.377 . S
C1215 C1221 1.390 . S
C1216 H1207 0.930 . S
C1216 C1214 1.384 . S
C1216 C1217 1.372 . S
C1217 C1216 1.372 . S
C1217 C1218 1.400 . S
C1217 C1222 1.490 . S
C1218 H1208 0.930 . S
C1218 C1217 1.400 . S
C1218 C1221 1.386 . S
H1219 C1235 0.930 . S
H1220 C1236 0.931 . S
C1221 H1209 0.929 . S
C1221 C1215 1.390 . S
C1221 C1218 1.386 . S
C1222 C1217 1.490 . S
C1222 C1224 1.395 . S
C1222 C1225 1.403 . S
H1223 C1229 0.930 . S
C1224 H1210 0.930 . S
C1224 C1222 1.395 . S
C1224 C1227 1.403 . S
C1225 C1222 1.403 . S
C1225 C1226 1.524 . S
C1225 C1229 1.400 . S
C1226 H1211 0.960 . S
C1226 H1212 0.960 . S
C1226 H1213 0.960 . S
C1226 C1225 1.524 . S
C1227 C1224 1.403 . S
C1227 C1228 1.392 . S
C1227 C1231 1.495 1_556 S
C1228 C1227 1.392 . S
C1228 C1229 1.385 . S
C1228 C1230 1.478 . S
C1229 H1223 0.930 . S
C1229 C1225 1.400 . S
C1229 C1228 1.385 . S
C1230 C1228 1.478 . S
C1230 C1232 1.381 1_556 S
C1230 C1236 1.383 . S
C1231 C1227 1.495 1_554 S
C1231 H1237 0.959 . S
C1231 H1238 0.961 1_554 S
C1231 H1239 0.960 . S
C1232 C1230 1.381 1_554 S
C1232 C1233 1.394 . S
C1232 H1240 0.930 . S
C1233 C1232 1.394 . S
C1233 C1234 1.383 1_554 S
C1233 H1241 0.929 . S
C1234 C1233 1.383 1_556 S
C1234 C1235 1.377 . S
C1235 H1219 0.930 . S
C1235 C1234 1.377 . S
C1235 C1236 1.379 . S
C1236 H1220 0.931 . S
C1236 C1230 1.383 . S
C1236 C1235 1.379 . S
H1237 C1231 0.959 . S
H1238 C1231 0.961 1_556 S
H1239 C1231 0.960 . S
H1240 C1232 0.930 . S
H1241 C1233 0.929 . S
H1242 C1250 0.929 . S
H1243 C1252 0.930 . S
H1244 C1254 0.930 . S
H1245 C1257 0.929 . S
H1246 C1260 0.930 . S
H1247 C1262 0.960 . S
H1248 C1262 0.962 1_554 S
H1249 C1262 0.960 . S
C1250 H1242 0.929 . S
C1250 C1251 1.377 . S
C1250 C1252 1.384 . S
C1251 C1250 1.377 . S
C1251 C1257 1.390 . S
C1252 H1243 0.930 . S
C1252 C1250 1.384 . S
C1252 C1253 1.372 . S
C1253 C1252 1.372 . S
C1253 C1254 1.400 . S
C1253 C1258 1.490 . S
C1254 H1244 0.930 . S
C1254 C1253 1.400 . S
C1254 C1257 1.386 . S
H1255 C1271 0.930 . S
H1256 C1272 0.931 . S
C1257 H1245 0.929 . S
C1257 C1251 1.390 . S
C1257 C1254 1.386 . S
C1258 C1253 1.490 . S
C1258 C1260 1.395 . S
C1258 C1261 1.403 . S
H1259 C1265 0.930 . S
C1260 H1246 0.930 . S
C1260 C1258 1.395 . S
C1260 C1263 1.403 . S
C1261 C1258 1.403 . S
C1261 C1262 1.524 . S
C1261 C1265 1.400 . S
C1262 H1247 0.960 . S
C1262 H1248 0.962 1_556 S
C1262 H1249 0.960 . S
C1262 C1261 1.524 . S
C1263 C1260 1.403 . S
C1263 C1264 1.392 . S
C1263 C1267 1.495 . S
C1264 C1263 1.392 . S
C1264 C1265 1.385 . S
C1264 C1266 1.478 . S
C1265 H1259 0.930 . S
C1265 C1261 1.400 . S
C1265 C1264 1.385 . S
C1266 C1264 1.478 . S
C1266 C1268 1.381 1_556 S
C1266 C1272 1.383 . S
C1267 C1263 1.495 . S
C1267 H1273 0.959 . S
C1267 H1274 0.961 . S
C1267 H1275 0.960 . S
C1268 C1266 1.381 1_554 S
C1268 C1269 1.394 . S
C1268 H1276 0.930 . S
C1269 C1268 1.394 . S
C1269 C1270 1.383 1_554 S
C1269 H1277 0.929 . S
C1270 C1269 1.383 1_556 S
C1270 C1271 1.377 . S
C1271 H1255 0.930 . S
C1271 C1270 1.377 . S
C1271 C1272 1.379 . S
C1272 H1256 0.931 . S
C1272 C1266 1.383 . S
C1272 C1271 1.379 . S
H1273 C1267 0.959 . S
H1274 C1267 0.961 . S
H1275 C1267 0.960 . S
H1276 C1268 0.930 . S
H1277 C1269 0.929 . S
H1278 C1286 0.929 . S
H1279 C1288 0.930 . S
H1280 C1290 0.930 . S
H1281 C1293 0.929 . S
H1282 C1296 0.930 . S
H1283 C1298 0.960 . S
H1284 C1298 0.960 . S
H1285 C1298 0.960 . S
C1286 H1278 0.929 . S
C1286 C1287 1.377 . S
C1286 C1288 1.384 . S
C1287 C1286 1.377 . S
C1287 C1293 1.390 . S
C1288 H1279 0.930 . S
C1288 C1286 1.384 . S
C1288 C1289 1.372 . S
C1289 C1288 1.372 . S
C1289 C1290 1.400 . S
C1289 C1294 1.490 . S
C1290 H1280 0.930 . S
C1290 C1289 1.400 . S
C1290 C1293 1.386 . S
H1291 C1307 0.930 . S
H1292 C1308 0.931 . S
C1293 H1281 0.929 . S
C1293 C1287 1.390 . S
C1293 C1290 1.386 . S
C1294 C1289 1.490 . S
C1294 C1296 1.395 . S
C1294 C1297 1.403 . S
H1295 C1301 0.930 . S
C1296 H1282 0.930 . S
C1296 C1294 1.395 . S
C1296 C1299 1.403 . S
C1297 C1294 1.403 . S
C1297 C1298 1.524 . S
C1297 C1301 1.400 . S
C1298 H1283 0.960 . S
C1298 H1284 0.960 . S
C1298 H1285 0.960 . S
C1298 C1297 1.524 . S
C1299 C1296 1.403 . S
C1299 C1300 1.392 . S
C1299 C1303 1.495 . S
C1300 C1299 1.392 . S
C1300 C1301 1.385 . S
C1300 C1302 1.478 . S
C1301 H1295 0.930 . S
C1301 C1297 1.400 . S
C1301 C1300 1.385 . S
C1302 C1300 1.478 . S
C1302 C1304 1.381 . S
C1302 C1308 1.383 . S
C1303 C1299 1.495 . S
C1303 H1309 0.959 . S
C1303 H1310 0.961 . S
C1303 H1311 0.960 . S
C1304 C1302 1.381 . S
C1304 C1305 1.394 . S
C1304 H1312 0.930 . S
C1305 C1304 1.394 . S
C1305 C1306 1.383 . S
C1305 H1313 0.929 . S
C1306 C1305 1.383 . S
C1306 C1307 1.377 . S
C1307 H1291 0.930 . S
C1307 C1306 1.377 . S
C1307 C1308 1.379 . S
C1308 H1292 0.931 . S
C1308 C1302 1.383 . S
C1308 C1307 1.379 . S
H1309 C1303 0.959 . S
H1310 C1303 0.961 . S
H1311 C1303 0.960 . S
H1312 C1304 0.930 . S
H1313 C1305 0.929 . S
H1314 C1322 0.929 . S
H1315 C1324 0.930 . S
H1316 C1326 0.930 . S
H1317 C1329 0.929 . S
H1318 C1332 0.930 . S
H1319 C1334 0.960 . S
H1320 C1334 0.960 . S
H1321 C1334 0.960 . S
C1322 H1314 0.929 . S
C1322 C1323 1.377 . S
C1322 C1324 1.384 . S
C1323 C1322 1.377 . S
C1323 C1329 1.390 . S
C1324 H1315 0.930 . S
C1324 C1322 1.384 . S
C1324 C1325 1.372 . S
C1325 C1324 1.372 . S
C1325 C1326 1.400 . S
C1325 C1330 1.490 . S
C1326 H1316 0.930 . S
C1326 C1325 1.400 . S
C1326 C1329 1.386 . S
H1327 C1343 0.930 . S
H1328 C1344 0.931 . S
C1329 H1317 0.929 . S
C1329 C1323 1.390 . S
C1329 C1326 1.386 . S
C1330 C1325 1.490 . S
C1330 C1332 1.395 . S
C1330 C1333 1.403 . S
H1331 C1337 0.930 . S
C1332 H1318 0.930 . S
C1332 C1330 1.395 . S
C1332 C1335 1.403 . S
C1333 C1330 1.403 . S
C1333 C1334 1.524 . S
C1333 C1337 1.400 . S
C1334 H1319 0.960 . S
C1334 H1320 0.960 . S
C1334 H1321 0.960 . S
C1334 C1333 1.524 . S
C1335 C1332 1.403 . S
C1335 C1336 1.392 . S
C1335 C1339 1.495 . S
C1336 C1335 1.392 . S
C1336 C1337 1.385 . S
C1336 C1338 1.478 . S
C1337 H1331 0.930 . S
C1337 C1333 1.400 . S
C1337 C1336 1.385 . S
C1338 C1336 1.478 . S
C1338 C1340 1.381 . S
C1338 C1344 1.383 . S
C1339 C1335 1.495 . S
C1339 H1345 0.959 . S
C1339 H1346 0.961 . S
C1339 H1347 0.960 . S
C1340 C1338 1.381 . S
C1340 C1341 1.394 . S
C1340 H1348 0.930 . S
C1341 C1340 1.394 . S
C1341 C1342 1.383 . S
C1341 H1349 0.929 . S
C1342 C1341 1.383 . S
C1342 C1343 1.377 . S
C1343 H1327 0.930 . S
C1343 C1342 1.377 . S
C1343 C1344 1.379 . S
C1344 H1328 0.931 . S
C1344 C1338 1.383 . S
C1344 C1343 1.379 . S
H1345 C1339 0.959 . S
H1346 C1339 0.961 . S
H1347 C1339 0.960 . S
H1348 C1340 0.930 . S
H1349 C1341 0.929 . S
H1350 C1358 0.929 . S
H1351 C1360 0.930 . S
H1352 C1362 0.930 . S
H1353 C1365 0.929 . S
H1354 C1368 0.930 . S
H1355 C1370 0.960 . S
H1356 C1370 0.960 . S
H1357 C1370 0.960 . S
C1358 H1350 0.929 . S
C1358 C1359 1.377 . S
C1358 C1360 1.384 . S
C1359 C1358 1.377 . S
C1359 C1365 1.390 . S
C1360 H1351 0.930 . S
C1360 C1358 1.384 . S
C1360 C1361 1.372 . S
C1361 C1360 1.372 . S
C1361 C1362 1.400 . S
C1361 C1366 1.490 . S
C1362 H1352 0.930 . S
C1362 C1361 1.400 . S
C1362 C1365 1.386 . S
H1363 C1379 0.930 . S
H1364 C1380 0.931 . S
C1365 H1353 0.929 . S
C1365 C1359 1.390 . S
C1365 C1362 1.386 . S
C1366 C1361 1.490 . S
C1366 C1368 1.395 . S
C1366 C1369 1.403 . S
H1367 C1373 0.930 . S
C1368 H1354 0.930 . S
C1368 C1366 1.395 . S
C1368 C1371 1.403 . S
C1369 C1366 1.403 . S
C1369 C1370 1.524 . S
C1369 C1373 1.400 . S
C1370 H1355 0.960 . S
C1370 H1356 0.960 . S
C1370 H1357 0.960 . S
C1370 C1369 1.524 . S
C1371 C1368 1.403 . S
C1371 C1372 1.392 . S
C1371 C1375 1.495 . S
C1372 C1371 1.392 . S
C1372 C1373 1.385 . S
C1372 C1374 1.478 . S
C1373 H1367 0.930 . S
C1373 C1369 1.400 . S
C1373 C1372 1.385 . S
C1374 C1372 1.478 . S
C1374 C1376 1.381 . S
C1374 C1380 1.383 . S
C1375 C1371 1.495 . S
C1375 H1381 0.959 . S
C1375 H1382 0.961 . S
C1375 H1383 0.960 . S
C1376 C1374 1.381 . S
C1376 C1377 1.394 . S
C1376 H1384 0.930 . S
C1377 C1376 1.394 . S
C1377 C1378 1.383 . S
C1377 H1385 0.929 . S
C1378 C1377 1.383 . S
C1378 C1379 1.377 . S
C1379 H1363 0.930 . S
C1379 C1378 1.377 . S
C1379 C1380 1.379 . S
C1380 H1364 0.931 . S
C1380 C1374 1.383 . S
C1380 C1379 1.379 . S
H1381 C1375 0.959 . S
H1382 C1375 0.961 . S
H1383 C1375 0.960 . S
H1384 C1376 0.930 . S
H1385 C1377 0.929 . S
H1386 C1394 0.929 . S
H1387 C1396 0.930 . S
H1388 C1398 0.930 . S
H1389 C1401 0.929 . S
H1390 C1404 0.930 . S
H1391 C1406 0.960 . S
H1392 C1406 0.960 . S
H1393 C1406 0.960 . S
C1394 H1386 0.929 . S
C1394 C1395 1.377 . S
C1394 C1396 1.384 . S
C1395 C1394 1.377 . S
C1395 C1401 1.390 . S
C1396 H1387 0.930 . S
C1396 C1394 1.384 . S
C1396 C1397 1.372 . S
C1397 C1396 1.372 . S
C1397 C1398 1.400 . S
C1397 C1402 1.490 . S
C1398 H1388 0.930 . S
C1398 C1397 1.400 . S
C1398 C1401 1.386 . S
H1399 C1415 0.930 . S
H1400 C1416 0.931 . S
C1401 H1389 0.929 . S
C1401 C1395 1.390 . S
C1401 C1398 1.386 . S
C1402 C1397 1.490 . S
C1402 C1404 1.395 1_655 S
C1402 C1405 1.403 . S
H1403 C1409 0.930 . S
C1404 H1390 0.930 . S
C1404 C1402 1.395 1_455 S
C1404 C1407 1.403 . S
C1405 C1402 1.403 . S
C1405 C1406 1.524 . S
C1405 C1409 1.400 1_655 S
C1406 H1391 0.960 . S
C1406 H1392 0.960 . S
C1406 H1393 0.960 . S
C1406 C1405 1.524 . S
C1407 C1404 1.403 . S
C1407 C1408 1.392 . S
C1407 C1411 1.495 . S
C1408 C1407 1.392 . S
C1408 C1409 1.385 . S
C1408 C1410 1.478 . S
C1409 H1403 0.930 . S
C1409 C1405 1.400 1_455 S
C1409 C1408 1.385 . S
C1410 C1408 1.478 . S
C1410 C1412 1.381 . S
C1410 C1416 1.383 . S
C1411 C1407 1.495 . S
C1411 H1417 0.959 . S
C1411 H1418 0.961 . S
C1411 H1419 0.960 . S
C1412 C1410 1.381 . S
C1412 C1413 1.394 . S
C1412 H1420 0.930 . S
C1413 C1412 1.394 . S
C1413 C1414 1.383 . S
C1413 H1421 0.929 . S
C1414 C1413 1.383 . S
C1414 C1415 1.377 . S
C1415 H1399 0.930 . S
C1415 C1414 1.377 . S
C1415 C1416 1.379 . S
C1416 H1400 0.931 . S
C1416 C1410 1.383 . S
C1416 C1415 1.379 . S
H1417 C1411 0.959 . S
H1418 C1411 0.961 . S
H1419 C1411 0.960 . S
H1420 C1412 0.930 . S
H1421 C1413 0.929 . S
H1422 C1430 0.929 . S
H1423 C1432 0.930 . S
H1424 C1434 0.930 . S
H1425 C1437 0.929 . S
H1426 C1440 0.930 . S
H1427 C1442 0.960 . S
H1428 C1442 0.960 . S
H1429 C1442 0.960 . S
C1430 H1422 0.929 . S
C1430 C1431 1.377 . S
C1430 C1432 1.384 . S
C1431 C1430 1.377 . S
C1431 C1437 1.390 . S
C1432 H1423 0.930 . S
C1432 C1430 1.384 . S
C1432 C1433 1.372 . S
C1433 C1432 1.372 . S
C1433 C1434 1.400 . S
C1433 C1438 1.490 . S
C1434 H1424 0.930 . S
C1434 C1433 1.400 . S
C1434 C1437 1.386 . S
H1435 C1451 0.930 . S
H1436 C1452 0.931 . S
C1437 H1425 0.929 . S
C1437 C1431 1.390 . S
C1437 C1434 1.386 . S
C1438 C1433 1.490 . S
C1438 C1440 1.395 . S
C1438 C1441 1.403 . S
H1439 C1445 0.930 . S
C1440 H1426 0.930 . S
C1440 C1438 1.395 . S
C1440 C1443 1.403 . S
C1441 C1438 1.403 . S
C1441 C1442 1.524 . S
C1441 C1445 1.400 . S
C1442 H1427 0.960 . S
C1442 H1428 0.960 . S
C1442 H1429 0.960 . S
C1442 C1441 1.524 . S
C1443 C1440 1.403 . S
C1443 C1444 1.392 . S
C1443 C1447 1.495 . S
C1444 C1443 1.392 . S
C1444 C1445 1.385 . S
C1444 C1446 1.478 . S
C1445 H1439 0.930 . S
C1445 C1441 1.400 . S
C1445 C1444 1.385 . S
C1446 C1444 1.478 . S
C1446 C1448 1.381 . S
C1446 C1452 1.383 . S
C1447 C1443 1.495 . S
C1447 H1453 0.959 . S
C1447 H1454 0.961 . S
C1447 H1455 0.960 . S
C1448 C1446 1.381 . S
C1448 C1449 1.394 . S
C1448 H1456 0.930 . S
C1449 C1448 1.394 . S
C1449 C1450 1.383 . S
C1449 H1457 0.929 . S
C1450 C1449 1.383 . S
C1450 C1451 1.377 . S
C1451 H1435 0.930 . S
C1451 C1450 1.377 . S
C1451 C1452 1.379 . S
C1452 H1436 0.931 . S
C1452 C1446 1.383 . S
C1452 C1451 1.379 . S
H1453 C1447 0.959 . S
H1454 C1447 0.961 . S
H1455 C1447 0.960 . S
H1456 C1448 0.930 . S
H1457 C1449 0.929 . S
H1458 C1466 0.929 . S
H1459 C1468 0.930 . S
H1460 C1470 0.930 . S
H1461 C1473 0.929 . S
H1462 C1476 0.930 . S
H1463 C1478 0.960 . S
H1464 C1478 0.960 . S
H1465 C1478 0.960 . S
C1466 H1458 0.929 . S
C1466 C1467 1.377 . S
C1466 C1468 1.384 . S
C1467 C1466 1.377 . S
C1467 C1473 1.390 . S
C1468 H1459 0.930 . S
C1468 C1466 1.384 . S
C1468 C1469 1.372 . S
C1469 C1468 1.372 . S
C1469 C1470 1.400 . S
C1469 C1474 1.490 . S
C1470 H1460 0.930 . S
C1470 C1469 1.400 . S
C1470 C1473 1.386 . S
H1471 C1487 0.930 . S
H1472 C1488 0.931 . S
C1473 H1461 0.929 . S
C1473 C1467 1.390 . S
C1473 C1470 1.386 . S
C1474 C1469 1.490 . S
C1474 C1476 1.395 . S
C1474 C1477 1.403 . S
H1475 C1481 0.930 . S
C1476 H1462 0.930 . S
C1476 C1474 1.395 . S
C1476 C1479 1.403 1_545 S
C1477 C1474 1.403 . S
C1477 C1478 1.524 . S
C1477 C1481 1.400 1_545 S
C1478 H1463 0.960 . S
C1478 H1464 0.960 . S
C1478 H1465 0.960 . S
C1478 C1477 1.524 . S
C1479 C1476 1.403 1_565 S
C1479 C1480 1.392 . S
C1479 C1483 1.495 . S
C1480 C1479 1.392 . S
C1480 C1481 1.385 . S
C1480 C1482 1.478 . S
C1481 H1475 0.930 . S
C1481 C1477 1.400 1_565 S
C1481 C1480 1.385 . S
C1482 C1480 1.478 . S
C1482 C1484 1.381 . S
C1482 C1488 1.383 . S
C1483 C1479 1.495 . S
C1483 H1489 0.959 . S
C1483 H1490 0.961 . S
C1483 H1491 0.960 . S
C1484 C1482 1.381 . S
C1484 C1485 1.394 . S
C1484 H1492 0.930 . S
C1485 C1484 1.394 . S
C1485 C1486 1.383 . S
C1485 H1493 0.929 . S
C1486 C1485 1.383 . S
C1486 C1487 1.377 . S
C1487 H1471 0.930 . S
C1487 C1486 1.377 . S
C1487 C1488 1.379 . S
C1488 H1472 0.931 . S
C1488 C1482 1.383 . S
C1488 C1487 1.379 . S
H1489 C1483 0.959 . S
H1490 C1483 0.961 . S
H1491 C1483 0.960 . S
H1492 C1484 0.930 . S
H1493 C1485 0.929 . S
H1494 C1502 0.929 . S
H1495 C1504 0.930 . S
H1496 C1506 0.930 . S
H1497 C1509 0.929 . S
H1498 C1512 0.930 . S
H1499 C1514 0.960 . S
H1500 C1514 0.960 . S
H1501 C1514 0.960 . S
C1502 H1494 0.929 . S
C1502 C1503 1.377 . S
C1502 C1504 1.384 . S
C1503 C1502 1.377 . S
C1503 C1509 1.390 . S
C1504 H1495 0.930 . S
C1504 C1502 1.384 . S
C1504 C1505 1.372 . S
C1505 C1504 1.372 . S
C1505 C1506 1.400 . S
C1505 C1510 1.490 . S
C1506 H1496 0.930 . S
C1506 C1505 1.400 . S
C1506 C1509 1.386 . S
H1507 C1523 0.930 . S
H1508 C1524 0.931 . S
C1509 H1497 0.929 . S
C1509 C1503 1.390 . S
C1509 C1506 1.386 . S
C1510 C1505 1.490 . S
C1510 C1512 1.395 . S
C1510 C1513 1.403 . S
H1511 C1517 0.930 . S
C1512 H1498 0.930 . S
C1512 C1510 1.395 . S
C1512 C1515 1.403 . S
C1513 C1510 1.403 . S
C1513 C1514 1.524 . S
C1513 C1517 1.400 . S
C1514 H1499 0.960 . S
C1514 H1500 0.960 . S
C1514 H1501 0.960 . S
C1514 C1513 1.524 . S
C1515 C1512 1.403 . S
C1515 C1516 1.392 . S
C1515 C1519 1.495 . S
C1516 C1515 1.392 . S
C1516 C1517 1.385 . S
C1516 C1518 1.478 . S
C1517 H1511 0.930 . S
C1517 C1513 1.400 . S
C1517 C1516 1.385 . S
C1518 C1516 1.478 . S
C1518 C1520 1.381 . S
C1518 C1524 1.383 . S
C1519 C1515 1.495 . S
C1519 H1525 0.959 . S
C1519 H1526 0.961 . S
C1519 H1527 0.960 . S
C1520 C1518 1.381 . S
C1520 C1521 1.394 . S
C1520 H1528 0.930 . S
C1521 C1520 1.394 . S
C1521 C1522 1.383 . S
C1521 H1529 0.929 . S
C1522 C1521 1.383 . S
C1522 C1523 1.377 . S
C1523 H1507 0.930 . S
C1523 C1522 1.377 . S
C1523 C1524 1.379 . S
C1524 H1508 0.931 . S
C1524 C1518 1.383 . S
C1524 C1523 1.379 . S
H1525 C1519 0.959 . S
H1526 C1519 0.961 . S
H1527 C1519 0.960 . S
H1528 C1520 0.930 . S
H1529 C1521 0.929 . S
H1530 C1538 0.929 . S
H1531 C1540 0.930 . S
H1532 C1542 0.930 . S
H1533 C1545 0.929 . S
H1534 C1548 0.930 . S
H1535 C1550 0.960 . S
H1536 C1550 0.960 . S
H1537 C1550 0.960 . S
C1538 H1530 0.929 . S
C1538 C1539 1.377 . S
C1538 C1540 1.384 . S
C1539 C1538 1.377 . S
C1539 C1545 1.390 . S
C1540 H1531 0.930 . S
C1540 C1538 1.384 . S
C1540 C1541 1.372 . S
C1541 C1540 1.372 . S
C1541 C1542 1.400 . S
C1541 C1546 1.490 . S
C1542 H1532 0.930 . S
C1542 C1541 1.400 . S
C1542 C1545 1.386 . S
H1543 C1559 0.930 . S
H1544 C1560 0.931 . S
C1545 H1533 0.929 . S
C1545 C1539 1.390 . S
C1545 C1542 1.386 . S
C1546 C1541 1.490 . S
C1546 C1548 1.395 . S
C1546 C1549 1.403 . S
H1547 C1553 0.930 . S
C1548 H1534 0.930 . S
C1548 C1546 1.395 . S
C1548 C1551 1.403 . S
C1549 C1546 1.403 . S
C1549 C1550 1.524 . S
C1549 C1553 1.400 . S
C1550 H1535 0.960 . S
C1550 H1536 0.960 . S
C1550 H1537 0.960 . S
C1550 C1549 1.524 . S
C1551 C1548 1.403 . S
C1551 C1552 1.392 . S
C1551 C1555 1.495 . S
C1552 C1551 1.392 . S
C1552 C1553 1.385 . S
C1552 C1554 1.478 . S
C1553 H1547 0.930 . S
C1553 C1549 1.400 . S
C1553 C1552 1.385 . S
C1554 C1552 1.478 . S
C1554 C1556 1.381 . S
C1554 C1560 1.383 . S
C1555 C1551 1.495 . S
C1555 H1561 0.959 . S
C1555 H1562 0.961 . S
C1555 H1563 0.960 . S
C1556 C1554 1.381 . S
C1556 C1557 1.394 . S
C1556 H1564 0.930 . S
C1557 C1556 1.394 . S
C1557 C1558 1.383 . S
C1557 H1565 0.929 . S
C1558 C1557 1.383 . S
C1558 C1559 1.377 . S
C1559 H1543 0.930 . S
C1559 C1558 1.377 . S
C1559 C1560 1.379 . S
C1560 H1544 0.931 . S
C1560 C1554 1.383 . S
C1560 C1559 1.379 . S
H1561 C1555 0.959 . S
H1562 C1555 0.961 . S
H1563 C1555 0.960 . S
H1564 C1556 0.930 . S
H1565 C1557 0.929 . S
H1566 C1574 0.929 . S
H1567 C1576 0.930 . S
H1568 C1578 0.930 . S
H1569 C1581 0.929 . S
H1570 C1584 0.930 . S
H1571 C1586 0.960 . S
H1572 C1586 0.960 . S
H1573 C1586 0.960 . S
C1574 H1566 0.929 . S
C1574 C1575 1.377 . S
C1574 C1576 1.384 . S
C1575 C1574 1.377 . S
C1575 C1581 1.390 . S
C1576 H1567 0.930 . S
C1576 C1574 1.384 . S
C1576 C1577 1.372 . S
C1577 C1576 1.372 . S
C1577 C1578 1.400 . S
C1577 C1582 1.490 . S
C1578 H1568 0.930 . S
C1578 C1577 1.400 . S
C1578 C1581 1.386 . S
H1579 C1595 0.930 . S
H1580 C1596 0.931 . S
C1581 H1569 0.929 . S
C1581 C1575 1.390 . S
C1581 C1578 1.386 . S
C1582 C1577 1.490 . S
C1582 C1584 1.395 . S
C1582 C1585 1.403 . S
H1583 C1589 0.930 . S
C1584 H1570 0.930 . S
C1584 C1582 1.395 . S
C1584 C1587 1.403 . S
C1585 C1582 1.403 . S
C1585 C1586 1.524 . S
C1585 C1589 1.400 . S
C1586 H1571 0.960 . S
C1586 H1572 0.960 . S
C1586 H1573 0.960 . S
C1586 C1585 1.524 . S
C1587 C1584 1.403 . S
C1587 C1588 1.392 . S
C1587 C1591 1.495 . S
C1588 C1587 1.392 . S
C1588 C1589 1.385 . S
C1588 C1590 1.478 . S
C1589 H1583 0.930 . S
C1589 C1585 1.400 . S
C1589 C1588 1.385 . S
C1590 C1588 1.478 . S
C1590 C1592 1.381 . S
C1590 C1596 1.383 . S
C1591 C1587 1.495 . S
C1591 H1597 0.959 . S
C1591 H1598 0.961 . S
C1591 H1599 0.960 . S
C1592 C1590 1.381 . S
C1592 C1593 1.394 . S
C1592 H1600 0.930 . S
C1593 C1592 1.394 . S
C1593 C1594 1.383 . S
C1593 H1601 0.929 . S
C1594 C1593 1.383 . S
C1594 C1595 1.377 . S
C1595 H1579 0.930 . S
C1595 C1594 1.377 . S
C1595 C1596 1.379 . S
C1596 H1580 0.931 . S
C1596 C1590 1.383 . S
C1596 C1595 1.379 . S
H1597 C1591 0.959 . S
H1598 C1591 0.961 . S
H1599 C1591 0.960 . S
H1600 C1592 0.930 . S
H1601 C1593 0.929 . S
H1602 C1610 0.929 . S
H1603 C1612 0.930 . S
H1604 C1614 0.930 . S
H1605 C1617 0.929 . S
H1606 C1620 0.930 . S
H1607 C1622 0.960 . S
H1608 C1622 0.960 . S
H1609 C1622 0.960 . S
C1610 H1602 0.929 . S
C1610 C1611 1.377 . S
C1610 C1612 1.384 . S
C1611 C1610 1.377 . S
C1611 C1617 1.390 . S
C1612 H1603 0.930 . S
C1612 C1610 1.384 . S
C1612 C1613 1.372 . S
C1613 C1612 1.372 . S
C1613 C1614 1.400 . S
C1613 C1618 1.490 . S
C1614 H1604 0.930 . S
C1614 C1613 1.400 . S
C1614 C1617 1.386 . S
H1615 C1631 0.930 . S
H1616 C1632 0.931 . S
C1617 H1605 0.929 . S
C1617 C1611 1.390 . S
C1617 C1614 1.386 . S
C1618 C1613 1.490 . S
C1618 C1620 1.395 . S
C1618 C1621 1.403 . S
H1619 C1625 0.930 . S
C1620 H1606 0.930 . S
C1620 C1618 1.395 . S
C1620 C1623 1.403 . S
C1621 C1618 1.403 . S
C1621 C1622 1.524 . S
C1621 C1625 1.400 . S
C1622 H1607 0.960 . S
C1622 H1608 0.960 . S
C1622 H1609 0.960 . S
C1622 C1621 1.524 . S
C1623 C1620 1.403 . S
C1623 C1624 1.392 . S
C1623 C1627 1.495 . S
C1624 C1623 1.392 . S
C1624 C1625 1.385 . S
C1624 C1626 1.478 . S
C1625 H1619 0.930 . S
C1625 C1621 1.400 . S
C1625 C1624 1.385 . S
C1626 C1624 1.478 . S
C1626 C1628 1.381 . S
C1626 C1632 1.383 . S
C1627 C1623 1.495 . S
C1627 H1633 0.959 . S
C1627 H1634 0.961 . S
C1627 H1635 0.960 . S
C1628 C1626 1.381 . S
C1628 C1629 1.394 . S
C1628 H1636 0.930 . S
C1629 C1628 1.394 . S
C1629 C1630 1.383 . S
C1629 H1637 0.929 . S
C1630 C1629 1.383 . S
C1630 C1631 1.377 . S
C1631 H1615 0.930 . S
C1631 C1630 1.377 . S
C1631 C1632 1.379 . S
C1632 H1616 0.931 . S
C1632 C1626 1.383 . S
C1632 C1631 1.379 . S
H1633 C1627 0.959 . S
H1634 C1627 0.961 . S
H1635 C1627 0.960 . S
H1636 C1628 0.930 . S
H1637 C1629 0.929 . S
H1638 C1646 0.929 . S
H1639 C1648 0.930 . S
H1640 C1650 0.930 . S
H1641 C1653 0.929 . S
H1642 C1656 0.930 . S
H1643 C1658 0.960 . S
H1644 C1658 0.960 . S
H1645 C1658 0.960 . S
C1646 H1638 0.929 . S
C1646 C1647 1.377 . S
C1646 C1648 1.384 . S
C1647 C1646 1.377 . S
C1647 C1653 1.390 . S
C1648 H1639 0.930 . S
C1648 C1646 1.384 . S
C1648 C1649 1.372 . S
C1649 C1648 1.372 . S
C1649 C1650 1.400 . S
C1649 C1654 1.490 . S
C1650 H1640 0.930 . S
C1650 C1649 1.400 . S
C1650 C1653 1.386 . S
H1651 C1667 0.930 . S
H1652 C1668 0.931 . S
C1653 H1641 0.929 . S
C1653 C1647 1.390 . S
C1653 C1650 1.386 . S
C1654 C1649 1.490 . S
C1654 C1656 1.395 . S
C1654 C1657 1.403 . S
H1655 C1661 0.930 . S
C1656 H1642 0.930 . S
C1656 C1654 1.395 . S
C1656 C1659 1.403 . S
C1657 C1654 1.403 . S
C1657 C1658 1.524 . S
C1657 C1661 1.400 . S
C1658 H1643 0.960 . S
C1658 H1644 0.960 . S
C1658 H1645 0.960 . S
C1658 C1657 1.524 . S
C1659 C1656 1.403 . S
C1659 C1660 1.392 . S
C1659 C1663 1.495 . S
C1660 C1659 1.392 . S
C1660 C1661 1.385 . S
C1660 C1662 1.478 . S
C1661 H1655 0.930 . S
C1661 C1657 1.400 . S
C1661 C1660 1.385 . S
C1662 C1660 1.478 . S
C1662 C1664 1.381 . S
C1662 C1668 1.383 . S
C1663 C1659 1.495 . S
C1663 H1669 0.959 . S
C1663 H1670 0.961 . S
C1663 H1671 0.960 . S
C1664 C1662 1.381 . S
C1664 C1665 1.394 . S
C1664 H1672 0.930 . S
C1665 C1664 1.394 . S
C1665 C1666 1.383 . S
C1665 H1673 0.929 . S
C1666 C1665 1.383 . S
C1666 C1667 1.377 . S
C1667 H1651 0.930 . S
C1667 C1666 1.377 . S
C1667 C1668 1.379 . S
C1668 H1652 0.931 . S
C1668 C1662 1.383 . S
C1668 C1667 1.379 . S
H1669 C1663 0.959 . S
H1670 C1663 0.961 . S
H1671 C1663 0.960 . S
H1672 C1664 0.930 . S
H1673 C1665 0.929 . S
H1674 C1682 0.929 . S
H1675 C1684 0.930 . S
H1676 C1686 0.930 . S
H1677 C1689 0.929 . S
H1678 C1692 0.930 . S
H1679 C1694 0.960 . S
H1680 C1694 0.960 . S
H1681 C1694 0.960 . S
C1682 H1674 0.929 . S
C1682 C1683 1.377 . S
C1682 C1684 1.384 . S
C1683 C1682 1.377 . S
C1683 C1689 1.390 . S
C1684 H1675 0.930 . S
C1684 C1682 1.384 . S
C1684 C1685 1.372 . S
C1685 C1684 1.372 . S
C1685 C1686 1.400 . S
C1685 C1690 1.490 . S
C1686 H1676 0.930 . S
C1686 C1685 1.400 . S
C1686 C1689 1.386 . S
H1687 C1703 0.930 . S
H1688 C1704 0.931 . S
C1689 H1677 0.929 . S
C1689 C1683 1.390 . S
C1689 C1686 1.386 . S
C1690 C1685 1.490 . S
C1690 C1692 1.395 . S
C1690 C1693 1.403 . S
H1691 C1697 0.930 . S
C1692 H1678 0.930 . S
C1692 C1690 1.395 . S
C1692 C1695 1.403 . S
C1693 C1690 1.403 . S
C1693 C1694 1.524 . S
C1693 C1697 1.400 . S
C1694 H1679 0.960 . S
C1694 H1680 0.960 . S
C1694 H1681 0.960 . S
C1694 C1693 1.524 . S
C1695 C1692 1.403 . S
C1695 C1696 1.392 . S
C1695 C1699 1.495 . S
C1696 C1695 1.392 . S
C1696 C1697 1.385 . S
C1696 C1698 1.478 . S
C1697 H1691 0.930 . S
C1697 C1693 1.400 . S
C1697 C1696 1.385 . S
C1698 C1696 1.478 . S
C1698 C1700 1.381 . S
C1698 C1704 1.383 . S
C1699 C1695 1.495 . S
C1699 H1705 0.959 . S
C1699 H1706 0.961 . S
C1699 H1707 0.960 . S
C1700 C1698 1.381 . S
C1700 C1701 1.394 . S
C1700 H1708 0.930 . S
C1701 C1700 1.394 . S
C1701 C1702 1.383 . S
C1701 H1709 0.929 . S
C1702 C1701 1.383 . S
C1702 C1703 1.377 . S
C1703 H1687 0.930 . S
C1703 C1702 1.377 . S
C1703 C1704 1.379 . S
C1704 H1688 0.931 . S
C1704 C1698 1.383 . S
C1704 C1703 1.379 . S
H1705 C1699 0.959 . S
H1706 C1699 0.961 . S
H1707 C1699 0.960 . S
H1708 C1700 0.930 . S
H1709 C1701 0.929 . S
H1710 C1718 0.929 . S
H1711 C1720 0.877 1_565 S
H1712 C1722 0.930 . S
H1713 C1725 0.929 . S
H1714 C1728 0.930 . S
H1715 C1730 0.960 . S
H1716 C1730 0.960 . S
H1717 C1730 0.960 . S
C1718 H1710 0.929 . S
C1718 C1719 1.377 . S
C1718 C1720 1.429 . S
C1719 C1718 1.377 . S
C1719 C1725 1.390 . S
C1720 H1711 0.877 1_545 S
C1720 C1718 1.429 . S
C1720 C1721 1.382 1_545 S
C1721 C1720 1.382 1_565 S
C1721 C1722 1.400 1_565 S
C1721 C1726 1.490 . S
C1722 H1712 0.930 . S
C1722 C1721 1.400 1_545 S
C1722 C1725 1.386 . S
H1723 C1739 0.930 . S
H1724 C1740 0.931 . S
C1725 H1713 0.929 . S
C1725 C1719 1.390 . S
C1725 C1722 1.386 . S
C1726 C1721 1.490 . S
C1726 C1728 1.395 . S
C1726 C1729 1.403 . S
H1727 C1733 0.930 . S
C1728 H1714 0.930 . S
C1728 C1726 1.395 . S
C1728 C1731 1.403 . S
C1729 C1726 1.403 . S
C1729 C1730 1.524 . S
C1729 C1733 1.400 . S
C1730 H1715 0.960 . S
C1730 H1716 0.960 . S
C1730 H1717 0.960 . S
C1730 C1729 1.524 . S
C1731 C1728 1.403 . S
C1731 C1732 1.392 . S
C1731 C1735 1.495 . S
C1732 C1731 1.392 . S
C1732 C1733 1.385 . S
C1732 C1734 1.478 . S
C1733 H1727 0.930 . S
C1733 C1729 1.400 . S
C1733 C1732 1.385 . S
C1734 C1732 1.478 . S
C1734 C1736 1.381 . S
C1734 C1740 1.383 . S
C1735 C1731 1.495 . S
C1735 H1741 0.959 . S
C1735 H1742 0.961 . S
C1735 H1743 0.960 . S
C1736 C1734 1.381 . S
C1736 C1737 1.394 . S
C1736 H1744 0.930 . S
C1737 C1736 1.394 . S
C1737 C1738 1.383 . S
C1737 H1745 0.929 . S
C1738 C1737 1.383 . S
C1738 C1739 1.377 . S
C1739 H1723 0.930 . S
C1739 C1738 1.377 . S
C1739 C1740 1.379 . S
C1740 H1724 0.931 . S
C1740 C1734 1.383 . S
C1740 C1739 1.379 . S
H1741 C1735 0.959 . S
H1742 C1735 0.961 . S
H1743 C1735 0.960 . S
H1744 C1736 0.930 . S
H1745 C1737 0.929 . S
H1746 C1754 0.929 . S
H1747 C1756 0.930 . S
H1748 C1758 0.930 . S
H1749 C1761 0.929 . S
H1750 C1764 0.930 . S
H1751 C1766 0.960 . S
H1752 C1766 0.960 . S
H1753 C1766 0.960 . S
C1754 H1746 0.929 . S
C1754 C1755 1.377 . S
C1754 C1756 1.384 1_655 S
C1755 C1754 1.377 . S
C1755 C1761 1.390 . S
C1756 H1747 0.930 . S
C1756 C1754 1.384 1_455 S
C1756 C1757 1.372 . S
C1757 C1756 1.372 . S
C1757 C1758 1.400 . S
C1757 C1762 1.490 . S
C1758 H1748 0.930 . S
C1758 C1757 1.400 . S
C1758 C1761 1.386 1_455 S
H1759 C1775 0.930 . S
H1760 C1776 0.931 . S
C1761 H1749 0.929 . S
C1761 C1755 1.390 . S
C1761 C1758 1.386 1_655 S
C1762 C1757 1.490 . S
C1762 C1764 1.395 . S
C1762 C1765 1.403 . S
H1763 C1769 0.930 . S
C1764 H1750 0.930 . S
C1764 C1762 1.395 . S
C1764 C1767 1.403 . S
C1765 C1762 1.403 . S
C1765 C1766 1.524 . S
C1765 C1769 1.400 . S
C1766 H1751 0.960 . S
C1766 H1752 0.960 . S
C1766 H1753 0.960 . S
C1766 C1765 1.524 . S
C1767 C1764 1.403 . S
C1767 C1768 1.392 . S
C1767 C1771 1.495 . S
C1768 C1767 1.392 . S
C1768 C1769 1.385 . S
C1768 C1770 1.478 . S
C1769 H1763 0.930 . S
C1769 C1765 1.400 . S
C1769 C1768 1.385 . S
C1770 C1768 1.478 . S
C1770 C1772 1.381 . S
C1770 C1776 1.383 . S
C1771 C1767 1.495 . S
C1771 H1777 0.959 . S
C1771 H1778 0.961 . S
C1771 H1779 0.960 . S
C1772 C1770 1.381 . S
C1772 C1773 1.394 . S
C1772 H1780 0.930 . S
C1773 C1772 1.394 . S
C1773 C1774 1.383 . S
C1773 H1781 0.929 . S
C1774 C1773 1.383 . S
C1774 C1775 1.377 . S
C1775 H1759 0.930 . S
C1775 C1774 1.377 . S
C1775 C1776 1.379 . S
C1776 H1760 0.931 . S
C1776 C1770 1.383 . S
C1776 C1775 1.379 . S
H1777 C1771 0.959 . S
H1778 C1771 0.961 . S
H1779 C1771 0.960 . S
H1780 C1772 0.930 . S
H1781 C1773 0.929 . S
H1782 C1790 0.929 . S
H1783 C1792 0.930 . S
H1784 C1794 0.930 . S
H1785 C1797 0.929 . S
H1786 C1800 0.930 . S
H1787 C1802 0.960 . S
H1788 C1802 0.960 . S
H1789 C1802 0.960 . S
C1790 H1782 0.929 . S
C1790 C1791 1.377 . S
C1790 C1792 1.384 . S
C1791 C1790 1.377 . S
C1791 C1797 1.390 . S
C1792 H1783 0.930 . S
C1792 C1790 1.384 . S
C1792 C1793 1.372 . S
C1793 C1792 1.372 . S
C1793 C1794 1.400 . S
C1793 C1798 1.490 . S
C1794 H1784 0.930 . S
C1794 C1793 1.400 . S
C1794 C1797 1.386 . S
H1795 C1811 0.930 . S
H1796 C1812 0.931 . S
C1797 H1785 0.929 . S
C1797 C1791 1.390 . S
C1797 C1794 1.386 . S
C1798 C1793 1.490 . S
C1798 C1800 1.395 . S
C1798 C1801 1.403 . S
H1799 C1805 0.930 . S
C1800 H1786 0.930 . S
C1800 C1798 1.395 . S
C1800 C1803 1.403 . S
C1801 C1798 1.403 . S
C1801 C1802 1.524 . S
C1801 C1805 1.400 . S
C1802 H1787 0.960 . S
C1802 H1788 0.960 . S
C1802 H1789 0.960 . S
C1802 C1801 1.524 . S
C1803 C1800 1.403 . S
C1803 C1804 1.392 . S
C1803 C1807 1.495 . S
C1804 C1803 1.392 . S
C1804 C1805 1.385 . S
C1804 C1806 1.478 . S
C1805 H1799 0.930 . S
C1805 C1801 1.400 . S
C1805 C1804 1.385 . S
C1806 C1804 1.478 . S
C1806 C1808 1.381 . S
C1806 C1812 1.383 . S
C1807 C1803 1.495 . S
C1807 H1813 0.959 . S
C1807 H1814 0.961 . S
C1807 H1815 0.960 . S
C1808 C1806 1.381 . S
C1808 C1809 1.394 . S
C1808 H1816 0.930 . S
C1809 C1808 1.394 . S
C1809 C1810 1.383 . S
C1809 H1817 0.929 . S
C1810 C1809 1.383 . S
C1810 C1811 1.377 . S
C1811 H1795 0.930 . S
C1811 C1810 1.377 . S
C1811 C1812 1.379 . S
C1812 H1796 0.931 . S
C1812 C1806 1.383 . S
C1812 C1811 1.379 . S
H1813 C1807 0.959 . S
H1814 C1807 0.961 . S
H1815 C1807 0.960 . S
H1816 C1808 0.930 . S
H1817 C1809 0.929 . S
H1818 C1826 0.929 . S
H1819 C1828 0.930 . S
H1820 C1830 0.930 . S
H1821 C1833 0.929 . S
H1822 C1836 0.930 . S
H1823 C1838 0.960 . S
H1824 C1838 0.960 . S
H1825 C1838 0.960 . S
C1826 H1818 0.929 . S
C1826 C1827 1.377 . S
C1826 C1828 1.384 . S
C1827 C1826 1.377 . S
C1827 C1833 1.390 . S
C1828 H1819 0.930 . S
C1828 C1826 1.384 . S
C1828 C1829 1.372 . S
C1829 C1828 1.372 . S
C1829 C1830 1.400 . S
C1829 C1834 1.490 . S
C1830 H1820 0.930 . S
C1830 C1829 1.400 . S
C1830 C1833 1.386 . S
H1831 C1847 0.930 . S
H1832 C1848 0.931 . S
C1833 H1821 0.929 . S
C1833 C1827 1.390 . S
C1833 C1830 1.386 . S
C1834 C1829 1.490 . S
C1834 C1836 1.395 . S
C1834 C1837 1.403 . S
H1835 C1841 0.930 . S
C1836 H1822 0.930 . S
C1836 C1834 1.395 . S
C1836 C1839 1.403 . S
C1837 C1834 1.403 . S
C1837 C1838 1.524 . S
C1837 C1841 1.400 . S
C1838 H1823 0.960 . S
C1838 H1824 0.960 . S
C1838 H1825 0.960 . S
C1838 C1837 1.524 . S
C1839 C1836 1.403 . S
C1839 C1840 1.392 . S
C1839 C1843 1.495 . S
C1840 C1839 1.392 . S
C1840 C1841 1.385 . S
C1840 C1842 1.478 . S
C1841 H1835 0.930 . S
C1841 C1837 1.400 . S
C1841 C1840 1.385 . S
C1842 C1840 1.478 . S
C1842 C1844 1.381 . S
C1842 C1848 1.383 . S
C1843 C1839 1.495 . S
C1843 H1849 0.959 . S
C1843 H1850 0.961 . S
C1843 H1851 0.960 . S
C1844 C1842 1.381 . S
C1844 C1845 1.394 . S
C1844 H1852 0.930 . S
C1845 C1844 1.394 . S
C1845 C1846 1.383 . S
C1845 H1853 0.929 . S
C1846 C1845 1.383 . S
C1846 C1847 1.377 . S
C1847 H1831 0.930 . S
C1847 C1846 1.377 . S
C1847 C1848 1.379 . S
C1848 H1832 0.931 . S
C1848 C1842 1.383 . S
C1848 C1847 1.379 . S
H1849 C1843 0.959 . S
H1850 C1843 0.961 . S
H1851 C1843 0.960 . S
H1852 C1844 0.930 . S
H1853 C1845 0.929 . S
H1854 C1862 0.929 . S
H1855 C1864 0.930 . S
H1856 C1866 0.930 . S
H1857 C1869 0.929 . S
H1858 C1872 0.930 . S
H1859 C1874 0.960 . S
H1860 C1874 0.960 . S
H1861 C1874 0.960 . S
C1862 H1854 0.929 . S
C1862 C1863 1.377 . S
C1862 C1864 1.384 . S
C1863 C1862 1.377 . S
C1863 C1869 1.390 . S
C1864 H1855 0.930 . S
C1864 C1862 1.384 . S
C1864 C1865 1.372 . S
C1865 C1864 1.372 . S
C1865 C1866 1.400 . S
C1865 C1870 1.490 . S
C1866 H1856 0.930 . S
C1866 C1865 1.400 . S
C1866 C1869 1.386 . S
H1867 C1883 0.930 . S
H1868 C1884 0.931 . S
C1869 H1857 0.929 . S
C1869 C1863 1.390 . S
C1869 C1866 1.386 . S
C1870 C1865 1.490 . S
C1870 C1872 1.395 . S
C1870 C1873 1.403 . S
H1871 C1877 0.930 . S
C1872 H1858 0.930 . S
C1872 C1870 1.395 . S
C1872 C1875 1.403 . S
C1873 C1870 1.403 . S
C1873 C1874 1.524 . S
C1873 C1877 1.400 . S
C1874 H1859 0.960 . S
C1874 H1860 0.960 . S
C1874 H1861 0.960 . S
C1874 C1873 1.524 . S
C1875 C1872 1.403 . S
C1875 C1876 1.392 . S
C1875 C1879 1.495 . S
C1876 C1875 1.392 . S
C1876 C1877 1.385 . S
C1876 C1878 1.478 . S
C1877 H1871 0.930 . S
C1877 C1873 1.400 . S
C1877 C1876 1.385 . S
C1878 C1876 1.478 . S
C1878 C1880 1.381 . S
C1878 C1884 1.383 . S
C1879 C1875 1.495 . S
C1879 H1885 0.959 . S
C1879 H1886 0.961 . S
C1879 H1887 0.960 . S
C1880 C1878 1.381 . S
C1880 C1881 1.394 . S
C1880 H1888 0.930 . S
C1881 C1880 1.394 . S
C1881 C1882 1.383 . S
C1881 H1889 0.929 . S
C1882 C1881 1.383 . S
C1882 C1883 1.377 . S
C1883 H1867 0.930 . S
C1883 C1882 1.377 . S
C1883 C1884 1.379 . S
C1884 H1868 0.931 . S
C1884 C1878 1.383 . S
C1884 C1883 1.379 . S
H1885 C1879 0.959 . S
H1886 C1879 0.961 . S
H1887 C1879 0.960 . S
H1888 C1880 0.930 . S
H1889 C1881 0.929 . S
H1890 C1898 0.929 . S
H1891 C1900 0.930 . S
H1892 C1902 0.930 . S
H1893 C1905 0.929 . S
H1894 C1908 0.930 . S
H1895 C1910 0.960 . S
H1896 C1910 0.960 . S
H1897 C1910 0.960 . S
C1898 H1890 0.929 . S
C1898 C1899 1.377 . S
C1898 C1900 1.384 . S
C1899 C1898 1.377 . S
C1899 C1905 1.390 . S
C1900 H1891 0.930 . S
C1900 C1898 1.384 . S
C1900 C1901 1.372 . S
C1901 C1900 1.372 . S
C1901 C1902 1.400 . S
C1901 C1906 1.490 . S
C1902 H1892 0.930 . S
C1902 C1901 1.400 . S
C1902 C1905 1.386 . S
H1903 C1919 0.930 . S
H1904 C1920 0.931 . S
C1905 H1893 0.929 . S
C1905 C1899 1.390 . S
C1905 C1902 1.386 . S
C1906 C1901 1.490 . S
C1906 C1908 1.395 . S
C1906 C1909 1.403 . S
H1907 C1913 0.930 . S
C1908 H1894 0.930 . S
C1908 C1906 1.395 . S
C1908 C1911 1.403 . S
C1909 C1906 1.403 . S
C1909 C1910 1.524 . S
C1909 C1913 1.400 . S
C1910 H1895 0.960 . S
C1910 H1896 0.960 . S
C1910 H1897 0.960 . S
C1910 C1909 1.524 . S
C1911 C1908 1.403 . S
C1911 C1912 1.392 . S
C1911 C1915 1.495 . S
C1912 C1911 1.392 . S
C1912 C1913 1.385 . S
C1912 C1914 1.478 . S
C1913 H1907 0.930 . S
C1913 C1909 1.400 . S
C1913 C1912 1.385 . S
C1914 C1912 1.478 . S
C1914 C1916 1.381 . S
C1914 C1920 1.383 . S
C1915 C1911 1.495 . S
C1915 H1921 0.959 . S
C1915 H1922 0.961 . S
C1915 H1923 0.960 . S
C1916 C1914 1.381 . S
C1916 C1917 1.394 . S
C1916 H1924 0.930 . S
C1917 C1916 1.394 . S
C1917 C1918 1.383 . S
C1917 H1925 0.929 . S
C1918 C1917 1.383 . S
C1918 C1919 1.377 . S
C1919 H1903 0.930 . S
C1919 C1918 1.377 . S
C1919 C1920 1.379 . S
C1920 H1904 0.931 . S
C1920 C1914 1.383 . S
C1920 C1919 1.379 . S
H1921 C1915 0.959 . S
H1922 C1915 0.961 . S
H1923 C1915 0.960 . S
H1924 C1916 0.930 . S
H1925 C1917 0.929 . S
H1926 C1934 0.929 . S
H1927 C1936 0.930 . S
H1928 C1938 0.930 . S
H1929 C1941 0.929 . S
H1930 C1944 0.930 . S
H1931 C1946 0.960 . S
H1932 C1946 0.960 . S
H1933 C1946 0.960 . S
C1934 H1926 0.929 . S
C1934 C1935 1.377 . S
C1934 C1936 1.384 . S
C1935 C1934 1.377 . S
C1935 C1941 1.390 . S
C1936 H1927 0.930 . S
C1936 C1934 1.384 . S
C1936 C1937 1.372 . S
C1937 C1936 1.372 . S
C1937 C1938 1.400 . S
C1937 C1942 1.490 . S
C1938 H1928 0.930 . S
C1938 C1937 1.400 . S
C1938 C1941 1.386 . S
H1939 C1955 0.930 . S
H1940 C1956 0.931 . S
C1941 H1929 0.929 . S
C1941 C1935 1.390 . S
C1941 C1938 1.386 . S
C1942 C1937 1.490 . S
C1942 C1944 1.395 1_565 S
C1942 C1945 1.403 . S
H1943 C1949 0.930 . S
C1944 H1930 0.930 . S
C1944 C1942 1.395 1_545 S
C1944 C1947 1.403 . S
C1945 C1942 1.403 . S
C1945 C1946 1.524 . S
C1945 C1949 1.400 1_565 S
C1946 H1931 0.960 . S
C1946 H1932 0.960 . S
C1946 H1933 0.960 . S
C1946 C1945 1.524 . S
C1947 C1944 1.403 . S
C1947 C1948 1.392 . S
C1947 C1951 1.495 . S
C1948 C1947 1.392 . S
C1948 C1949 1.385 . S
C1948 C1950 1.478 . S
C1949 H1943 0.930 . S
C1949 C1945 1.400 1_545 S
C1949 C1948 1.385 . S
C1950 C1948 1.478 . S
C1950 C1952 1.381 . S
C1950 C1956 1.383 . S
C1951 C1947 1.495 . S
C1951 H1957 0.959 . S
C1951 H1958 0.961 . S
C1951 H1959 0.960 . S
C1952 C1950 1.381 . S
C1952 C1953 1.394 . S
C1952 H1960 0.930 . S
C1953 C1952 1.394 . S
C1953 C1954 1.383 . S
C1953 H1961 0.929 . S
C1954 C1953 1.383 . S
C1954 C1955 1.377 . S
C1955 H1939 0.930 . S
C1955 C1954 1.377 . S
C1955 C1956 1.379 . S
C1956 H1940 0.931 . S
C1956 C1950 1.383 . S
C1956 C1955 1.379 . S
H1957 C1951 0.959 . S
H1958 C1951 0.961 . S
H1959 C1951 0.960 . S
H1960 C1952 0.930 . S
H1961 C1953 0.929 . S
H1962 C1970 0.929 . S
H1963 C1972 0.930 . S
H1964 C1974 0.930 . S
H1965 C1977 0.929 . S
H1966 C1980 0.930 . S
H1967 C1982 0.960 . S
H1968 C1982 0.960 . S
H1969 C1982 0.960 . S
C1970 H1962 0.929 . S
C1970 C1971 1.377 . S
C1970 C1972 1.384 . S
C1971 C1970 1.377 . S
C1971 C1977 1.390 . S
C1972 H1963 0.930 . S
C1972 C1970 1.384 . S
C1972 C1973 1.372 . S
C1973 C1972 1.372 . S
C1973 C1974 1.400 . S
C1973 C1978 1.490 . S
C1974 H1964 0.930 . S
C1974 C1973 1.400 . S
C1974 C1977 1.386 . S
H1975 C1991 0.930 . S
H1976 C1992 0.931 . S
C1977 H1965 0.929 . S
C1977 C1971 1.390 . S
C1977 C1974 1.386 . S
C1978 C1973 1.490 . S
C1978 C1980 1.395 . S
C1978 C1981 1.403 . S
H1979 C1985 0.930 . S
C1980 H1966 0.930 . S
C1980 C1978 1.395 . S
C1980 C1983 1.403 1_455 S
C1981 C1978 1.403 . S
C1981 C1982 1.524 . S
C1981 C1985 1.400 1_455 S
C1982 H1967 0.960 . S
C1982 H1968 0.960 . S
C1982 H1969 0.960 . S
C1982 C1981 1.524 . S
C1983 C1980 1.403 1_655 S
C1983 C1984 1.392 . S
C1983 C1987 1.495 . S
C1984 C1983 1.392 . S
C1984 C1985 1.385 . S
C1984 C1986 1.478 . S
C1985 H1979 0.930 . S
C1985 C1981 1.400 1_655 S
C1985 C1984 1.385 . S
C1986 C1984 1.478 . S
C1986 C1988 1.381 . S
C1986 C1992 1.383 . S
C1987 C1983 1.495 . S
C1987 H1993 0.959 . S
C1987 H1994 0.961 . S
C1987 H1995 0.960 . S
C1988 C1986 1.381 . S
C1988 C1989 1.394 . S
C1988 H1996 0.930 . S
C1989 C1988 1.394 . S
C1989 C1990 1.383 . S
C1989 H1997 0.929 . S
C1990 C1989 1.383 . S
C1990 C1991 1.377 . S
C1991 H1975 0.930 . S
C1991 C1990 1.377 . S
C1991 C1992 1.379 . S
C1992 H1976 0.931 . S
C1992 C1986 1.383 . S
C1992 C1991 1.379 . S
H1993 C1987 0.959 . S
H1994 C1987 0.961 . S
H1995 C1987 0.960 . S
H1996 C1988 0.930 . S
H1997 C1989 0.929 . S
H1998 C2006 0.929 . S
H1999 C2008 0.930 . S
H2000 C2010 0.930 . S
H2001 C2013 0.929 . S
H2002 C2016 0.930 . S
H2003 C2018 0.960 . S
H2004 C2018 0.960 . S
H2005 C2018 0.960 . S
C2006 H1998 0.929 . S
C2006 C2007 1.377 . S
C2006 C2008 1.384 . S
C2007 C2006 1.377 . S
C2007 C2013 1.390 . S
C2008 H1999 0.930 . S
C2008 C2006 1.384 . S
C2008 C2009 1.372 . S
C2009 C2008 1.372 . S
C2009 C2010 1.400 . S
C2009 C2014 1.490 . S
C2010 H2000 0.930 . S
C2010 C2009 1.400 . S
C2010 C2013 1.386 . S
H2011 C2027 0.930 . S
H2012 C2028 0.931 . S
C2013 H2001 0.929 . S
C2013 C2007 1.390 . S
C2013 C2010 1.386 . S
C2014 C2009 1.490 . S
C2014 C2016 1.395 . S
C2014 C2017 1.403 . S
H2015 C2021 0.930 . S
C2016 H2002 0.930 . S
C2016 C2014 1.395 . S
C2016 C2019 1.403 . S
C2017 C2014 1.403 . S
C2017 C2018 1.524 . S
C2017 C2021 1.400 . S
C2018 H2003 0.960 . S
C2018 H2004 0.960 . S
C2018 H2005 0.960 . S
C2018 C2017 1.524 . S
C2019 C2016 1.403 . S
C2019 C2020 1.392 . S
C2019 C2023 1.495 . S
C2020 C2019 1.392 . S
C2020 C2021 1.385 . S
C2020 C2022 1.478 . S
C2021 H2015 0.930 . S
C2021 C2017 1.400 . S
C2021 C2020 1.385 . S
C2022 C2020 1.478 . S
C2022 C2024 1.381 . S
C2022 C2028 1.383 . S
C2023 C2019 1.495 . S
C2023 H2029 0.959 . S
C2023 H2030 0.961 . S
C2023 H2031 0.960 . S
C2024 C2022 1.381 . S
C2024 C2025 1.394 . S
C2024 H2032 0.930 . S
C2025 C2024 1.394 . S
C2025 C2026 1.383 . S
C2025 H2033 0.929 . S
C2026 C2025 1.383 . S
C2026 C2027 1.377 . S
C2027 H2011 0.930 . S
C2027 C2026 1.377 . S
C2027 C2028 1.379 . S
C2028 H2012 0.931 . S
C2028 C2022 1.383 . S
C2028 C2027 1.379 . S
H2029 C2023 0.959 . S
H2030 C2023 0.961 . S
H2031 C2023 0.960 . S
H2032 C2024 0.930 . S
H2033 C2025 0.929 . S
H2034 C2042 0.929 . S
H2035 C2044 0.920 1_655 S
H2036 C2046 0.931 1_655 S
H2037 C2049 0.929 . S
H2038 C2052 0.930 . S
H2039 C2054 0.960 . S
H2040 C2054 0.960 . S
H2041 C2054 0.960 . S
C2042 H2034 0.929 . S
C2042 C2043 1.377 . S
C2042 C2044 1.418 . S
C2043 C2042 1.377 . S
C2043 C2049 1.390 . S
C2044 H2035 0.920 1_455 S
C2044 C2042 1.418 . S
C2044 C2045 1.350 1_455 S
C2045 C2044 1.350 1_655 S
C2045 C2046 1.400 1_655 S
C2045 C2050 1.490 . S
C2046 H2036 0.931 1_455 S
C2046 C2045 1.400 1_455 S
C2046 C2049 1.386 . S
H2047 C2063 0.930 . S
H2048 C2064 0.931 . S
C2049 H2037 0.929 . S
C2049 C2043 1.390 . S
C2049 C2046 1.386 . S
C2050 C2045 1.490 . S
C2050 C2052 1.395 . S
C2050 C2053 1.403 . S
H2051 C2057 0.930 . S
C2052 H2038 0.930 . S
C2052 C2050 1.395 . S
C2052 C2055 1.403 . S
C2053 C2050 1.403 . S
C2053 C2054 1.524 . S
C2053 C2057 1.400 . S
C2054 H2039 0.960 . S
C2054 H2040 0.960 . S
C2054 H2041 0.960 . S
C2054 C2053 1.524 . S
C2055 C2052 1.403 . S
C2055 C2056 1.392 . S
C2055 C2059 1.495 . S
C2056 C2055 1.392 . S
C2056 C2057 1.385 . S
C2056 C2058 1.478 . S
C2057 H2051 0.930 . S
C2057 C2053 1.400 . S
C2057 C2056 1.385 . S
C2058 C2056 1.478 . S
C2058 C2060 1.381 . S
C2058 C2064 1.383 . S
C2059 C2055 1.495 . S
C2059 H2065 0.959 . S
C2059 H2066 0.961 . S
C2059 H2067 0.960 . S
C2060 C2058 1.381 . S
C2060 C2061 1.394 . S
C2060 H2068 0.930 . S
C2061 C2060 1.394 . S
C2061 C2062 1.383 . S
C2061 H2069 0.929 . S
C2062 C2061 1.383 . S
C2062 C2063 1.377 . S
C2063 H2047 0.930 . S
C2063 C2062 1.377 . S
C2063 C2064 1.379 . S
C2064 H2048 0.931 . S
C2064 C2058 1.383 . S
C2064 C2063 1.379 . S
H2065 C2059 0.959 . S
H2066 C2059 0.961 . S
H2067 C2059 0.960 . S
H2068 C2060 0.930 . S
H2069 C2061 0.929 . S
H2070 C2078 0.929 . S
H2071 C2080 0.930 . S
H2072 C2082 0.930 . S
H2073 C2085 0.929 . S
H2074 C2088 0.930 . S
H2075 C2090 0.960 . S
H2076 C2090 0.960 . S
H2077 C2090 0.960 . S
C2078 H2070 0.929 . S
C2078 C2079 1.377 . S
C2078 C2080 1.384 . S
C2079 C2078 1.377 . S
C2079 C2085 1.390 . S
C2080 H2071 0.930 . S
C2080 C2078 1.384 . S
C2080 C2081 1.372 . S
C2081 C2080 1.372 . S
C2081 C2082 1.400 . S
C2081 C2086 1.490 . S
C2082 H2072 0.930 . S
C2082 C2081 1.400 . S
C2082 C2085 1.386 . S
H2083 C2099 0.930 . S
H2084 C2100 0.931 . S
C2085 H2073 0.929 . S
C2085 C2079 1.390 . S
C2085 C2082 1.386 . S
C2086 C2081 1.490 . S
C2086 C2088 1.395 . S
C2086 C2089 1.403 . S
H2087 C2093 0.930 . S
C2088 H2074 0.930 . S
C2088 C2086 1.395 . S
C2088 C2091 1.403 . S
C2089 C2086 1.403 . S
C2089 C2090 1.524 . S
C2089 C2093 1.400 . S
C2090 H2075 0.960 . S
C2090 H2076 0.960 . S
C2090 H2077 0.960 . S
C2090 C2089 1.524 . S
C2091 C2088 1.403 . S
C2091 C2092 1.392 . S
C2091 C2095 1.495 . S
C2092 C2091 1.392 . S
C2092 C2093 1.385 . S
C2092 C2094 1.478 . S
C2093 H2087 0.930 . S
C2093 C2089 1.400 . S
C2093 C2092 1.385 . S
C2094 C2092 1.478 . S
C2094 C2096 1.381 . S
C2094 C2100 1.383 . S
C2095 C2091 1.495 . S
C2095 H2101 0.959 . S
C2095 H2102 0.961 . S
C2095 H2103 0.960 . S
C2096 C2094 1.381 . S
C2096 C2097 1.394 . S
C2096 H2104 0.930 . S
C2097 C2096 1.394 . S
C2097 C2098 1.383 . S
C2097 H2105 0.929 . S
C2098 C2097 1.383 . S
C2098 C2099 1.377 . S
C2099 H2083 0.930 . S
C2099 C2098 1.377 . S
C2099 C2100 1.379 . S
C2100 H2084 0.931 . S
C2100 C2094 1.383 . S
C2100 C2099 1.379 . S
H2101 C2095 0.959 . S
H2102 C2095 0.961 . S
H2103 C2095 0.960 . S
H2104 C2096 0.930 . S
H2105 C2097 0.929 . S
H2106 C2114 0.929 . S
H2107 C2116 0.930 1_545 S
H2108 C2118 0.930 . S
H2109 C2121 0.929 . S
H2110 C2124 0.930 . S
H2111 C2126 0.960 . S
H2112 C2126 0.960 . S
H2113 C2126 0.960 . S
C2114 H2106 0.929 . S
C2114 C2115 1.377 . S
C2114 C2116 1.384 . S
C2115 C2114 1.377 . S
C2115 C2121 1.390 . S
C2116 H2107 0.930 1_565 S
C2116 C2114 1.384 . S
C2116 C2117 1.372 1_565 S
C2117 C2116 1.372 1_545 S
C2117 C2118 1.400 . S
C2117 C2122 1.490 . S
C2118 H2108 0.930 . S
C2118 C2117 1.400 . S
C2118 C2121 1.386 1_545 S
H2119 C2135 0.930 . S
H2120 C2136 0.931 . S
C2121 H2109 0.929 . S
C2121 C2115 1.390 . S
C2121 C2118 1.386 1_565 S
C2122 C2117 1.490 . S
C2122 C2124 1.395 . S
C2122 C2125 1.403 . S
H2123 C2129 0.930 . S
C2124 H2110 0.930 . S
C2124 C2122 1.395 . S
C2124 C2127 1.403 . S
C2125 C2122 1.403 . S
C2125 C2126 1.524 . S
C2125 C2129 1.400 . S
C2126 H2111 0.960 . S
C2126 H2112 0.960 . S
C2126 H2113 0.960 . S
C2126 C2125 1.524 . S
C2127 C2124 1.403 . S
C2127 C2128 1.392 . S
C2127 C2131 1.495 . S
C2128 C2127 1.392 . S
C2128 C2129 1.385 . S
C2128 C2130 1.478 . S
C2129 H2123 0.930 . S
C2129 C2125 1.400 . S
C2129 C2128 1.385 . S
C2130 C2128 1.478 . S
C2130 C2132 1.381 . S
C2130 C2136 1.383 . S
C2131 C2127 1.495 . S
C2131 H2137 0.959 . S
C2131 H2138 0.961 . S
C2131 H2139 0.960 . S
C2132 C2130 1.381 . S
C2132 C2133 1.394 . S
C2132 H2140 0.930 . S
C2133 C2132 1.394 . S
C2133 C2134 1.383 . S
C2133 H2141 0.929 . S
C2134 C2133 1.383 . S
C2134 C2135 1.377 . S
C2135 H2119 0.930 . S
C2135 C2134 1.377 . S
C2135 C2136 1.379 . S
C2136 H2120 0.931 . S
C2136 C2130 1.383 . S
C2136 C2135 1.379 . S
H2137 C2131 0.959 . S
H2138 C2131 0.961 . S
H2139 C2131 0.960 . S
H2140 C2132 0.930 . S
H2141 C2133 0.929 . S
H2142 C2150 0.929 . S
H2143 C2152 0.930 . S
H2144 C2154 0.930 . S
H2145 C2157 0.929 . S
H2146 C2160 0.930 . S
H2147 C2162 0.960 . S
H2148 C2162 0.960 . S
H2149 C2162 0.960 . S
C2150 H2142 0.929 . S
C2150 C2151 1.377 . S
C2150 C2152 1.384 . S
C2151 C2150 1.377 . S
C2151 C2157 1.390 . S
C2152 H2143 0.930 . S
C2152 C2150 1.384 . S
C2152 C2153 1.372 . S
C2153 C2152 1.372 . S
C2153 C2154 1.400 . S
C2153 C2158 1.490 . S
C2154 H2144 0.930 . S
C2154 C2153 1.400 . S
C2154 C2157 1.386 . S
H2155 C2171 0.930 . S
H2156 C2172 0.931 . S
C2157 H2145 0.929 . S
C2157 C2151 1.390 . S
C2157 C2154 1.386 . S
C2158 C2153 1.490 . S
C2158 C2160 1.395 . S
C2158 C2161 1.403 . S
H2159 C2165 0.930 . S
C2160 H2146 0.930 . S
C2160 C2158 1.395 . S
C2160 C2163 1.403 . S
C2161 C2158 1.403 . S
C2161 C2162 1.524 . S
C2161 C2165 1.400 . S
C2162 H2147 0.960 . S
C2162 H2148 0.960 . S
C2162 H2149 0.960 . S
C2162 C2161 1.524 . S
C2163 C2160 1.403 . S
C2163 C2164 1.392 . S
C2163 C2167 1.495 . S
C2164 C2163 1.392 . S
C2164 C2165 1.385 . S
C2164 C2166 1.478 . S
C2165 H2159 0.930 . S
C2165 C2161 1.400 . S
C2165 C2164 1.385 . S
C2166 C2164 1.478 . S
C2166 C2168 1.381 . S
C2166 C2172 1.383 . S
C2167 C2163 1.495 . S
C2167 H2173 0.959 . S
C2167 H2174 0.961 . S
C2167 H2175 0.960 . S
C2168 C2166 1.381 . S
C2168 C2169 1.394 . S
C2168 H2176 0.930 . S
C2169 C2168 1.394 . S
C2169 C2170 1.383 . S
C2169 H2177 0.929 . S
C2170 C2169 1.383 . S
C2170 C2171 1.377 . S
C2171 H2155 0.930 . S
C2171 C2170 1.377 . S
C2171 C2172 1.379 . S
C2172 H2156 0.931 . S
C2172 C2166 1.383 . S
C2172 C2171 1.379 . S
H2173 C2167 0.959 . S
H2174 C2167 0.961 . S
H2175 C2167 0.960 . S
H2176 C2168 0.930 . S
H2177 C2169 0.929 . S
H2178 C2186 0.929 . S
H2179 C2188 0.930 . S
H2180 C2190 0.930 . S
H2181 C2193 0.929 . S
H2182 C2196 0.930 . S
H2183 C2198 0.960 . S
H2184 C2198 0.960 . S
H2185 C2198 0.960 . S
C2186 H2178 0.929 . S
C2186 C2187 1.377 . S
C2186 C2188 1.384 . S
C2187 C2186 1.377 . S
C2187 C2193 1.390 . S
C2188 H2179 0.930 . S
C2188 C2186 1.384 . S
C2188 C2189 1.372 . S
C2189 C2188 1.372 . S
C2189 C2190 1.400 . S
C2189 C2194 1.490 . S
C2190 H2180 0.930 . S
C2190 C2189 1.400 . S
C2190 C2193 1.386 . S
H2191 C2207 0.930 . S
H2192 C2208 0.931 . S
C2193 H2181 0.929 . S
C2193 C2187 1.390 . S
C2193 C2190 1.386 . S
C2194 C2189 1.490 . S
C2194 C2196 1.395 . S
C2194 C2197 1.403 . S
H2195 C2201 0.930 . S
C2196 H2182 0.930 . S
C2196 C2194 1.395 . S
C2196 C2199 1.403 . S
C2197 C2194 1.403 . S
C2197 C2198 1.524 . S
C2197 C2201 1.400 . S
C2198 H2183 0.960 . S
C2198 H2184 0.960 . S
C2198 H2185 0.960 . S
C2198 C2197 1.524 . S
C2199 C2196 1.403 . S
C2199 C2200 1.392 . S
C2199 C2203 1.495 . S
C2200 C2199 1.392 . S
C2200 C2201 1.385 . S
C2200 C2202 1.478 . S
C2201 H2195 0.930 . S
C2201 C2197 1.400 . S
C2201 C2200 1.385 . S
C2202 C2200 1.478 . S
C2202 C2204 1.381 . S
C2202 C2208 1.383 . S
C2203 C2199 1.495 . S
C2203 H2209 0.959 . S
C2203 H2210 0.961 . S
C2203 H2211 0.960 . S
C2204 C2202 1.381 . S
C2204 C2205 1.394 . S
C2204 H2212 0.930 . S
C2205 C2204 1.394 . S
C2205 C2206 1.383 . S
C2205 H2213 0.929 . S
C2206 C2205 1.383 . S
C2206 C2207 1.377 . S
C2207 H2191 0.930 . S
C2207 C2206 1.377 . S
C2207 C2208 1.379 . S
C2208 H2192 0.931 . S
C2208 C2202 1.383 . S
C2208 C2207 1.379 . S
H2209 C2203 0.959 . S
H2210 C2203 0.961 . S
H2211 C2203 0.960 . S
H2212 C2204 0.930 . S
H2213 C2205 0.929 . S
H2214 C2222 0.929 . S
H2215 C2224 0.930 . S
H2216 C2226 0.930 . S
H2217 C2229 0.929 . S
H2218 C2232 0.930 . S
H2219 C2234 0.960 . S
H2220 C2234 0.960 . S
H2221 C2234 0.960 . S
C2222 H2214 0.929 . S
C2222 C2223 1.377 . S
C2222 C2224 1.384 . S
C2223 C2222 1.377 . S
C2223 C2229 1.390 . S
C2224 H2215 0.930 . S
C2224 C2222 1.384 . S
C2224 C2225 1.372 . S
C2225 C2224 1.372 . S
C2225 C2226 1.400 . S
C2225 C2230 1.490 . S
C2226 H2216 0.930 . S
C2226 C2225 1.400 . S
C2226 C2229 1.386 . S
H2227 C2243 0.930 . S
H2228 C2244 0.931 . S
C2229 H2217 0.929 . S
C2229 C2223 1.390 . S
C2229 C2226 1.386 . S
C2230 C2225 1.490 . S
C2230 C2232 1.395 . S
C2230 C2233 1.403 . S
H2231 C2237 0.930 . S
C2232 H2218 0.930 . S
C2232 C2230 1.395 . S
C2232 C2235 1.403 . S
C2233 C2230 1.403 . S
C2233 C2234 1.524 . S
C2233 C2237 1.400 . S
C2234 H2219 0.960 . S
C2234 H2220 0.960 . S
C2234 H2221 0.960 . S
C2234 C2233 1.524 . S
C2235 C2232 1.403 . S
C2235 C2236 1.392 . S
C2235 C2239 1.495 . S
C2236 C2235 1.392 . S
C2236 C2237 1.385 . S
C2236 C2238 1.478 . S
C2237 H2231 0.930 . S
C2237 C2233 1.400 . S
C2237 C2236 1.385 . S
C2238 C2236 1.478 . S
C2238 C2240 1.381 . S
C2238 C2244 1.383 . S
C2239 C2235 1.495 . S
C2239 H2245 0.959 . S
C2239 H2246 0.961 . S
C2239 H2247 0.960 . S
C2240 C2238 1.381 . S
C2240 C2241 1.394 . S
C2240 H2248 0.930 . S
C2241 C2240 1.394 . S
C2241 C2242 1.383 . S
C2241 H2249 0.929 . S
C2242 C2241 1.383 . S
C2242 C2243 1.377 . S
C2243 H2227 0.930 . S
C2243 C2242 1.377 . S
C2243 C2244 1.379 . S
C2244 H2228 0.931 . S
C2244 C2238 1.383 . S
C2244 C2243 1.379 . S
H2245 C2239 0.959 . S
H2246 C2239 0.961 . S
H2247 C2239 0.960 . S
H2248 C2240 0.930 . S
H2249 C2241 0.929 . S
H2250 C2258 0.929 . S
H2251 C2260 0.930 . S
H2252 C2262 0.930 . S
H2253 C2265 0.929 . S
H2254 C2268 0.930 . S
H2255 C2270 0.960 . S
H2256 C2270 0.960 . S
H2257 C2270 0.960 . S
C2258 H2250 0.929 . S
C2258 C2259 1.377 . S
C2258 C2260 1.384 . S
C2259 C2258 1.377 . S
C2259 C2265 1.390 . S
C2260 H2251 0.930 . S
C2260 C2258 1.384 . S
C2260 C2261 1.372 . S
C2261 C2260 1.372 . S
C2261 C2262 1.400 . S
C2261 C2266 1.490 . S
C2262 H2252 0.930 . S
C2262 C2261 1.400 . S
C2262 C2265 1.386 . S
H2263 C2279 0.930 . S
H2264 C2280 0.931 . S
C2265 H2253 0.929 . S
C2265 C2259 1.390 . S
C2265 C2262 1.386 . S
C2266 C2261 1.490 . S
C2266 C2268 1.395 . S
C2266 C2269 1.403 . S
H2267 C2273 0.930 . S
C2268 H2254 0.930 . S
C2268 C2266 1.395 . S
C2268 C2271 1.403 . S
C2269 C2266 1.403 . S
C2269 C2270 1.524 . S
C2269 C2273 1.400 . S
C2270 H2255 0.960 . S
C2270 H2256 0.960 . S
C2270 H2257 0.960 . S
C2270 C2269 1.524 . S
C2271 C2268 1.403 . S
C2271 C2272 1.392 . S
C2271 C2275 1.495 . S
C2272 C2271 1.392 . S
C2272 C2273 1.385 . S
C2272 C2274 1.478 . S
C2273 H2267 0.930 . S
C2273 C2269 1.400 . S
C2273 C2272 1.385 . S
C2274 C2272 1.478 . S
C2274 C2276 1.381 . S
C2274 C2280 1.383 . S
C2275 C2271 1.495 . S
C2275 H2281 0.959 . S
C2275 H2282 0.961 . S
C2275 H2283 0.960 . S
C2276 C2274 1.381 . S
C2276 C2277 1.394 . S
C2276 H2284 0.930 . S
C2277 C2276 1.394 . S
C2277 C2278 1.383 . S
C2277 H2285 0.929 . S
C2278 C2277 1.383 . S
C2278 C2279 1.377 . S
C2279 H2263 0.930 . S
C2279 C2278 1.377 . S
C2279 C2280 1.379 . S
C2280 H2264 0.931 . S
C2280 C2274 1.383 . S
C2280 C2279 1.379 . S
H2281 C2275 0.959 . S
H2282 C2275 0.961 . S
H2283 C2275 0.960 . S
H2284 C2276 0.930 . S
H2285 C2277 0.929 . S
H2286 C2294 0.929 . S
H2287 C2296 0.930 . S
H2288 C2298 0.930 . S
H2289 C2301 0.929 . S
H2290 C2304 0.930 . S
H2291 C2306 0.960 . S
H2292 C2306 0.960 . S
H2293 C2306 0.960 . S
C2294 H2286 0.929 . S
C2294 C2295 1.377 . S
C2294 C2296 1.384 . S
C2295 C2294 1.377 . S
C2295 C2301 1.390 . S
C2296 H2287 0.930 . S
C2296 C2294 1.384 . S
C2296 C2297 1.372 . S
C2297 C2296 1.372 . S
C2297 C2298 1.400 . S
C2297 C2302 1.490 . S
C2298 H2288 0.930 . S
C2298 C2297 1.400 . S
C2298 C2301 1.386 . S
H2299 C2315 0.930 . S
H2300 C2316 0.931 . S
C2301 H2289 0.929 . S
C2301 C2295 1.390 . S
C2301 C2298 1.386 . S
C2302 C2297 1.490 . S
C2302 C2304 1.395 . S
C2302 C2305 1.403 . S
H2303 C2309 0.930 . S
C2304 H2290 0.930 . S
C2304 C2302 1.395 . S
C2304 C2307 1.403 . S
C2305 C2302 1.403 . S
C2305 C2306 1.524 . S
C2305 C2309 1.400 . S
C2306 H2291 0.960 . S
C2306 H2292 0.960 . S
C2306 H2293 0.960 . S
C2306 C2305 1.524 . S
C2307 C2304 1.403 . S
C2307 C2308 1.392 . S
C2307 C2311 1.495 . S
C2308 C2307 1.392 . S
C2308 C2309 1.385 . S
C2308 C2310 1.478 . S
C2309 H2303 0.930 . S
C2309 C2305 1.400 . S
C2309 C2308 1.385 . S
C2310 C2308 1.478 . S
C2310 C2312 1.381 . S
C2310 C2316 1.383 . S
C2311 C2307 1.495 . S
C2311 H2317 0.959 . S
C2311 H2318 0.961 . S
C2311 H2319 0.960 . S
C2312 C2310 1.381 . S
C2312 C2313 1.394 . S
C2312 H2320 0.930 . S
C2313 C2312 1.394 . S
C2313 C2314 1.383 . S
C2313 H2321 0.929 . S
C2314 C2313 1.383 . S
C2314 C2315 1.377 . S
C2315 H2299 0.930 . S
C2315 C2314 1.377 . S
C2315 C2316 1.379 . S
C2316 H2300 0.931 . S
C2316 C2310 1.383 . S
C2316 C2315 1.379 . S
H2317 C2311 0.959 . S
H2318 C2311 0.961 . S
H2319 C2311 0.960 . S
H2320 C2312 0.930 . S
H2321 C2313 0.929 . S
H2322 C2330 0.929 . S
H2323 C2332 0.930 . S
H2324 C2334 0.930 . S
H2325 C2337 0.929 . S
H2326 C2340 0.930 . S
H2327 C2342 0.960 . S
H2328 C2342 0.960 . S
H2329 C2342 0.960 . S
C2330 H2322 0.929 . S
C2330 C2331 1.377 . S
C2330 C2332 1.384 . S
C2331 C2330 1.377 . S
C2331 C2337 1.390 . S
C2332 H2323 0.930 . S
C2332 C2330 1.384 . S
C2332 C2333 1.372 . S
C2333 C2332 1.372 . S
C2333 C2334 1.400 . S
C2333 C2338 1.490 . S
C2334 H2324 0.930 . S
C2334 C2333 1.400 . S
C2334 C2337 1.386 . S
H2335 C2351 0.930 . S
H2336 C2352 0.931 . S
C2337 H2325 0.929 . S
C2337 C2331 1.390 . S
C2337 C2334 1.386 . S
C2338 C2333 1.490 . S
C2338 C2340 1.395 . S
C2338 C2341 1.403 . S
H2339 C2345 0.930 . S
C2340 H2326 0.930 . S
C2340 C2338 1.395 . S
C2340 C2343 1.403 . S
C2341 C2338 1.403 . S
C2341 C2342 1.524 . S
C2341 C2345 1.400 . S
C2342 H2327 0.960 . S
C2342 H2328 0.960 . S
C2342 H2329 0.960 . S
C2342 C2341 1.524 . S
C2343 C2340 1.403 . S
C2343 C2344 1.392 . S
C2343 C2347 1.495 . S
C2344 C2343 1.392 . S
C2344 C2345 1.385 . S
C2344 C2346 1.478 . S
C2345 H2339 0.930 . S
C2345 C2341 1.400 . S
C2345 C2344 1.385 . S
C2346 C2344 1.478 . S
C2346 C2348 1.381 . S
C2346 C2352 1.383 . S
C2347 C2343 1.495 . S
C2347 H2353 0.959 . S
C2347 H2354 0.961 . S
C2347 H2355 0.960 . S
C2348 C2346 1.381 . S
C2348 C2349 1.394 . S
C2348 H2356 0.930 . S
C2349 C2348 1.394 . S
C2349 C2350 1.383 . S
C2349 H2357 0.929 . S
C2350 C2349 1.383 . S
C2350 C2351 1.377 . S
C2351 H2335 0.930 . S
C2351 C2350 1.377 . S
C2351 C2352 1.379 . S
C2352 H2336 0.931 . S
C2352 C2346 1.383 . S
C2352 C2351 1.379 . S
H2353 C2347 0.959 . S
H2354 C2347 0.961 . S
H2355 C2347 0.960 . S
H2356 C2348 0.930 . S
H2357 C2349 0.929 . S
H2358 C2366 0.929 . S
H2359 C2368 0.930 . S
H2360 C2370 0.930 . S
H2361 C2373 0.929 . S
H2362 C2376 0.930 . S
H2363 C2378 0.960 . S
H2364 C2378 0.960 . S
H2365 C2378 0.960 . S
C2366 H2358 0.929 . S
C2366 C2367 1.377 . S
C2366 C2368 1.384 . S
C2367 C2366 1.377 . S
C2367 C2373 1.390 . S
C2368 H2359 0.930 . S
C2368 C2366 1.384 . S
C2368 C2369 1.372 . S
C2369 C2368 1.372 . S
C2369 C2370 1.400 . S
C2369 C2374 1.490 . S
C2370 H2360 0.930 . S
C2370 C2369 1.400 . S
C2370 C2373 1.386 . S
H2371 C2387 0.930 . S
H2372 C2388 0.931 . S
C2373 H2361 0.929 . S
C2373 C2367 1.390 . S
C2373 C2370 1.386 . S
C2374 C2369 1.490 . S
C2374 C2376 1.395 . S
C2374 C2377 1.403 . S
H2375 C2381 0.930 . S
C2376 H2362 0.930 . S
C2376 C2374 1.395 . S
C2376 C2379 1.403 . S
C2377 C2374 1.403 . S
C2377 C2378 1.524 . S
C2377 C2381 1.400 . S
C2378 H2363 0.960 . S
C2378 H2364 0.960 . S
C2378 H2365 0.960 . S
C2378 C2377 1.524 . S
C2379 C2376 1.403 . S
C2379 C2380 1.392 . S
C2379 C2383 1.495 . S
C2380 C2379 1.392 . S
C2380 C2381 1.385 . S
C2380 C2382 1.478 . S
C2381 H2375 0.930 . S
C2381 C2377 1.400 . S
C2381 C2380 1.385 . S
C2382 C2380 1.478 . S
C2382 C2384 1.381 . S
C2382 C2388 1.383 . S
C2383 C2379 1.495 . S
C2383 H2389 0.959 . S
C2383 H2390 0.961 . S
C2383 H2391 0.960 . S
C2384 C2382 1.381 . S
C2384 C2385 1.394 . S
C2384 H2392 0.930 . S
C2385 C2384 1.394 . S
C2385 C2386 1.383 . S
C2385 H2393 0.929 . S
C2386 C2385 1.383 . S
C2386 C2387 1.377 . S
C2387 H2371 0.930 . S
C2387 C2386 1.377 . S
C2387 C2388 1.379 . S
C2388 H2372 0.931 . S
C2388 C2382 1.383 . S
C2388 C2387 1.379 . S
H2389 C2383 0.959 . S
H2390 C2383 0.961 . S
H2391 C2383 0.960 . S
H2392 C2384 0.930 . S
H2393 C2385 0.929 . S
H2394 C2402 0.929 . S
H2395 C2404 0.930 . S
H2396 C2406 0.930 . S
H2397 C2409 0.929 . S
H2398 C2412 0.930 . S
H2399 C2414 0.960 . S
H2400 C2414 0.960 . S
H2401 C2414 0.960 . S
C2402 H2394 0.929 . S
C2402 C2403 1.377 . S
C2402 C2404 1.384 . S
C2403 C2402 1.377 . S
C2403 C2409 1.390 . S
C2404 H2395 0.930 . S
C2404 C2402 1.384 . S
C2404 C2405 1.372 . S
C2405 C2404 1.372 . S
C2405 C2406 1.400 . S
C2405 C2410 1.490 . S
C2406 H2396 0.930 . S
C2406 C2405 1.400 . S
C2406 C2409 1.386 . S
H2407 C2423 0.930 . S
H2408 C2424 0.931 . S
C2409 H2397 0.929 . S
C2409 C2403 1.390 . S
C2409 C2406 1.386 . S
C2410 C2405 1.490 . S
C2410 C2412 1.395 . S
C2410 C2413 1.403 . S
H2411 C2417 0.930 . S
C2412 H2398 0.930 . S
C2412 C2410 1.395 . S
C2412 C2415 1.403 . S
C2413 C2410 1.403 . S
C2413 C2414 1.524 . S
C2413 C2417 1.400 . S
C2414 H2399 0.960 . S
C2414 H2400 0.960 . S
C2414 H2401 0.960 . S
C2414 C2413 1.524 . S
C2415 C2412 1.403 . S
C2415 C2416 1.392 . S
C2415 C2419 1.495 . S
C2416 C2415 1.392 . S
C2416 C2417 1.385 . S
C2416 C2418 1.478 . S
C2417 H2411 0.930 . S
C2417 C2413 1.400 . S
C2417 C2416 1.385 . S
C2418 C2416 1.478 . S
C2418 C2420 1.381 . S
C2418 C2424 1.383 . S
C2419 C2415 1.495 . S
C2419 H2425 0.959 . S
C2419 H2426 0.961 . S
C2419 H2427 0.960 . S
C2420 C2418 1.381 . S
C2420 C2421 1.394 . S
C2420 H2428 0.930 . S
C2421 C2420 1.394 . S
C2421 C2422 1.383 . S
C2421 H2429 0.929 . S
C2422 C2421 1.383 . S
C2422 C2423 1.377 . S
C2423 H2407 0.930 . S
C2423 C2422 1.377 . S
C2423 C2424 1.379 . S
C2424 H2408 0.931 . S
C2424 C2418 1.383 . S
C2424 C2423 1.379 . S
H2425 C2419 0.959 . S
H2426 C2419 0.961 . S
H2427 C2419 0.960 . S
H2428 C2420 0.930 . S
H2429 C2421 0.929 . S
H2430 C2438 0.929 . S
H2431 C2440 0.930 . S
H2432 C2442 0.930 . S
H2433 C2445 0.929 . S
H2434 C2448 0.930 . S
H2435 C2450 0.960 . S
H2436 C2450 0.960 . S
H2437 C2450 0.960 . S
C2438 H2430 0.929 . S
C2438 C2439 1.377 . S
C2438 C2440 1.384 . S
C2439 C2438 1.377 . S
C2439 C2445 1.390 . S
C2440 H2431 0.930 . S
C2440 C2438 1.384 . S
C2440 C2441 1.372 . S
C2441 C2440 1.372 . S
C2441 C2442 1.400 . S
C2441 C2446 1.490 . S
C2442 H2432 0.930 . S
C2442 C2441 1.400 . S
C2442 C2445 1.386 . S
H2443 C2459 0.930 . S
H2444 C2460 0.931 . S
C2445 H2433 0.929 . S
C2445 C2439 1.390 . S
C2445 C2442 1.386 . S
C2446 C2441 1.490 . S
C2446 C2448 1.395 . S
C2446 C2449 1.403 . S
H2447 C2453 0.930 . S
C2448 H2434 0.930 . S
C2448 C2446 1.395 . S
C2448 C2451 1.403 . S
C2449 C2446 1.403 . S
C2449 C2450 1.524 . S
C2449 C2453 1.400 . S
C2450 H2435 0.960 . S
C2450 H2436 0.960 . S
C2450 H2437 0.960 . S
C2450 C2449 1.524 . S
C2451 C2448 1.403 . S
C2451 C2452 1.392 . S
C2451 C2455 1.495 . S
C2452 C2451 1.392 . S
C2452 C2453 1.385 . S
C2452 C2454 1.478 . S
C2453 H2447 0.930 . S
C2453 C2449 1.400 . S
C2453 C2452 1.385 . S
C2454 C2452 1.478 . S
C2454 C2456 1.381 . S
C2454 C2460 1.383 . S
C2455 C2451 1.495 . S
C2455 H2461 0.959 . S
C2455 H2462 0.961 . S
C2455 H2463 0.960 . S
C2456 C2454 1.381 . S
C2456 C2457 1.394 . S
C2456 H2464 0.930 . S
C2457 C2456 1.394 . S
C2457 C2458 1.383 . S
C2457 H2465 0.929 . S
C2458 C2457 1.383 . S
C2458 C2459 1.377 . S
C2459 H2443 0.930 . S
C2459 C2458 1.377 . S
C2459 C2460 1.379 . S
C2460 H2444 0.931 . S
C2460 C2454 1.383 . S
C2460 C2459 1.379 . S
H2461 C2455 0.959 . S
H2462 C2455 0.961 . S
H2463 C2455 0.960 . S
H2464 C2456 0.930 . S
H2465 C2457 0.929 . S
H2466 C2474 0.929 . S
H2467 C2476 0.930 . S
H2468 C2478 0.930 . S
H2469 C2481 0.929 . S
H2470 C2484 0.930 . S
H2471 C2486 0.960 . S
H2472 C2486 0.960 . S
H2473 C2486 0.960 . S
C2474 H2466 0.929 . S
C2474 C2475 1.377 . S
C2474 C2476 1.384 . S
C2475 C2474 1.377 . S
C2475 C2481 1.390 . S
C2476 H2467 0.930 . S
C2476 C2474 1.384 . S
C2476 C2477 1.372 . S
C2477 C2476 1.372 . S
C2477 C2478 1.400 . S
C2477 C2482 1.490 . S
C2478 H2468 0.930 . S
C2478 C2477 1.400 . S
C2478 C2481 1.386 . S
H2479 C2495 0.930 . S
H2480 C2496 0.931 . S
C2481 H2469 0.929 . S
C2481 C2475 1.390 . S
C2481 C2478 1.386 . S
C2482 C2477 1.490 . S
C2482 C2484 1.395 . S
C2482 C2485 1.403 . S
H2483 C2489 0.930 . S
C2484 H2470 0.930 . S
C2484 C2482 1.395 . S
C2484 C2487 1.403 . S
C2485 C2482 1.403 . S
C2485 C2486 1.524 . S
C2485 C2489 1.400 . S
C2486 H2471 0.960 . S
C2486 H2472 0.960 . S
C2486 H2473 0.960 . S
C2486 C2485 1.524 . S
C2487 C2484 1.403 . S
C2487 C2488 1.392 . S
C2487 C2491 1.495 . S
C2488 C2487 1.392 . S
C2488 C2489 1.385 . S
C2488 C2490 1.478 . S
C2489 H2483 0.930 . S
C2489 C2485 1.400 . S
C2489 C2488 1.385 . S
C2490 C2488 1.478 . S
C2490 C2492 1.381 . S
C2490 C2496 1.383 . S
C2491 C2487 1.495 . S
C2491 H2497 0.959 . S
C2491 H2498 0.961 . S
C2491 H2499 0.960 . S
C2492 C2490 1.381 . S
C2492 C2493 1.394 . S
C2492 H2500 0.930 . S
C2493 C2492 1.394 . S
C2493 C2494 1.383 . S
C2493 H2501 0.929 . S
C2494 C2493 1.383 . S
C2494 C2495 1.377 . S
C2495 H2479 0.930 . S
C2495 C2494 1.377 . S
C2495 C2496 1.379 . S
C2496 H2480 0.931 . S
C2496 C2490 1.383 . S
C2496 C2495 1.379 . S
H2497 C2491 0.959 . S
H2498 C2491 0.961 . S
H2499 C2491 0.960 . S
H2500 C2492 0.930 . S
H2501 C2493 0.929 . S
H2502 C2510 0.929 . S
H2503 C2512 0.930 . S
H2504 C2514 0.930 . S
H2505 C2517 0.929 . S
H2506 C2520 0.930 . S
H2507 C2522 0.960 . S
H2508 C2522 0.960 . S
H2509 C2522 0.960 . S
C2510 H2502 0.929 . S
C2510 C2511 1.377 . S
C2510 C2512 1.384 . S
C2511 C2510 1.377 . S
C2511 C2517 1.390 . S
C2512 H2503 0.930 . S
C2512 C2510 1.384 . S
C2512 C2513 1.372 . S
C2513 C2512 1.372 . S
C2513 C2514 1.400 . S
C2513 C2518 1.490 . S
C2514 H2504 0.930 . S
C2514 C2513 1.400 . S
C2514 C2517 1.386 . S
H2515 C2531 0.930 . S
H2516 C2532 0.931 . S
C2517 H2505 0.929 . S
C2517 C2511 1.390 . S
C2517 C2514 1.386 . S
C2518 C2513 1.490 . S
C2518 C2520 1.395 . S
C2518 C2521 1.403 . S
H2519 C2525 0.930 . S
C2520 H2506 0.930 . S
C2520 C2518 1.395 . S
C2520 C2523 1.403 . S
C2521 C2518 1.403 . S
C2521 C2522 1.524 . S
C2521 C2525 1.400 . S
C2522 H2507 0.960 . S
C2522 H2508 0.960 . S
C2522 H2509 0.960 . S
C2522 C2521 1.524 . S
C2523 C2520 1.403 . S
C2523 C2524 1.392 . S
C2523 C2527 1.495 . S
C2524 C2523 1.392 . S
C2524 C2525 1.385 . S
C2524 C2526 1.478 . S
C2525 H2519 0.930 . S
C2525 C2521 1.400 . S
C2525 C2524 1.385 . S
C2526 C2524 1.478 . S
C2526 C2528 1.381 . S
C2526 C2532 1.383 . S
C2527 C2523 1.495 . S
C2527 H2533 0.959 . S
C2527 H2534 0.961 . S
C2527 H2535 0.960 . S
C2528 C2526 1.381 . S
C2528 C2529 1.394 . S
C2528 H2536 0.930 . S
C2529 C2528 1.394 . S
C2529 C2530 1.383 . S
C2529 H2537 0.929 . S
C2530 C2529 1.383 . S
C2530 C2531 1.377 . S
C2531 H2515 0.930 . S
C2531 C2530 1.377 . S
C2531 C2532 1.379 . S
C2532 H2516 0.931 . S
C2532 C2526 1.383 . S
C2532 C2531 1.379 . S
H2533 C2527 0.959 . S
H2534 C2527 0.961 . S
H2535 C2527 0.960 . S
H2536 C2528 0.930 . S
H2537 C2529 0.929 . S
H2538 C2546 0.929 . S
H2539 C2548 0.930 . S
H2540 C2550 0.930 . S
H2541 C2553 0.929 . S
H2542 C2556 0.930 . S
H2543 C2558 0.960 . S
H2544 C2558 0.960 . S
H2545 C2558 0.960 . S
C2546 H2538 0.929 . S
C2546 C2547 1.377 . S
C2546 C2548 1.384 . S
C2547 C2546 1.377 . S
C2547 C2553 1.390 . S
C2548 H2539 0.930 . S
C2548 C2546 1.384 . S
C2548 C2549 1.372 . S
C2549 C2548 1.372 . S
C2549 C2550 1.400 . S
C2549 C2554 1.490 . S
C2550 H2540 0.930 . S
C2550 C2549 1.400 . S
C2550 C2553 1.386 . S
H2551 C2567 0.930 . S
H2552 C2568 0.931 . S
C2553 H2541 0.929 . S
C2553 C2547 1.390 . S
C2553 C2550 1.386 . S
C2554 C2549 1.490 . S
C2554 C2556 1.395 . S
C2554 C2557 1.403 . S
H2555 C2561 0.930 . S
C2556 H2542 0.930 . S
C2556 C2554 1.395 . S
C2556 C2559 1.403 . S
C2557 C2554 1.403 . S
C2557 C2558 1.524 . S
C2557 C2561 1.400 . S
C2558 H2543 0.960 . S
C2558 H2544 0.960 . S
C2558 H2545 0.960 . S
C2558 C2557 1.524 . S
C2559 C2556 1.403 . S
C2559 C2560 1.392 . S
C2559 C2563 1.495 . S
C2560 C2559 1.392 . S
C2560 C2561 1.385 . S
C2560 C2562 1.478 . S
C2561 H2555 0.930 . S
C2561 C2557 1.400 . S
C2561 C2560 1.385 . S
C2562 C2560 1.478 . S
C2562 C2564 1.381 . S
C2562 C2568 1.383 . S
C2563 C2559 1.495 . S
C2563 H2569 0.959 . S
C2563 H2570 0.961 . S
C2563 H2571 0.960 . S
C2564 C2562 1.381 . S
C2564 C2565 1.394 . S
C2564 H2572 0.930 . S
C2565 C2564 1.394 . S
C2565 C2566 1.383 . S
C2565 H2573 0.929 . S
C2566 C2565 1.383 . S
C2566 C2567 1.377 . S
C2567 H2551 0.930 . S
C2567 C2566 1.377 . S
C2567 C2568 1.379 . S
C2568 H2552 0.931 . S
C2568 C2562 1.383 . S
C2568 C2567 1.379 . S
H2569 C2563 0.959 . S
H2570 C2563 0.961 . S
H2571 C2563 0.960 . S
H2572 C2564 0.930 . S
H2573 C2565 0.929 . S
H2574 C2582 0.929 . S
H2575 C2584 0.930 . S
H2576 C2586 0.930 . S
H2577 C2589 0.929 . S
H2578 C2592 0.930 . S
H2579 C2594 0.960 . S
H2580 C2594 0.960 . S
H2581 C2594 0.960 . S
C2582 H2574 0.929 . S
C2582 C2583 1.377 . S
C2582 C2584 1.384 . S
C2583 C2582 1.377 . S
C2583 C2589 1.390 . S
C2584 H2575 0.930 . S
C2584 C2582 1.384 . S
C2584 C2585 1.372 . S
C2585 C2584 1.372 . S
C2585 C2586 1.400 . S
C2585 C2590 1.490 . S
C2586 H2576 0.930 . S
C2586 C2585 1.400 . S
C2586 C2589 1.386 . S
H2587 C2603 0.930 . S
H2588 C2604 0.931 . S
C2589 H2577 0.929 . S
C2589 C2583 1.390 . S
C2589 C2586 1.386 . S
C2590 C2585 1.490 . S
C2590 C2592 1.395 . S
C2590 C2593 1.403 . S
H2591 C2597 0.930 . S
C2592 H2578 0.930 . S
C2592 C2590 1.395 . S
C2592 C2595 1.403 . S
C2593 C2590 1.403 . S
C2593 C2594 1.524 . S
C2593 C2597 1.400 . S
C2594 H2579 0.960 . S
C2594 H2580 0.960 . S
C2594 H2581 0.960 . S
C2594 C2593 1.524 . S
C2595 C2592 1.403 . S
C2595 C2596 1.392 . S
C2595 C2599 1.495 . S
C2596 C2595 1.392 . S
C2596 C2597 1.385 . S
C2596 C2598 1.478 . S
C2597 H2591 0.930 . S
C2597 C2593 1.400 . S
C2597 C2596 1.385 . S
C2598 C2596 1.478 . S
C2598 C2600 1.381 . S
C2598 C2604 1.383 . S
C2599 C2595 1.495 . S
C2599 H2605 0.959 . S
C2599 H2606 0.961 . S
C2599 H2607 0.960 . S
C2600 C2598 1.381 . S
C2600 C2601 1.394 . S
C2600 H2608 0.930 . S
C2601 C2600 1.394 . S
C2601 C2602 1.383 . S
C2601 H2609 0.929 . S
C2602 C2601 1.383 . S
C2602 C2603 1.377 . S
C2603 H2587 0.930 . S
C2603 C2602 1.377 . S
C2603 C2604 1.379 . S
C2604 H2588 0.931 . S
C2604 C2598 1.383 . S
C2604 C2603 1.379 . S
H2605 C2599 0.959 . S
H2606 C2599 0.961 . S
H2607 C2599 0.960 . S
H2608 C2600 0.930 . S
H2609 C2601 0.929 . S
H2610 C2618 0.929 . S
H2611 C2620 0.930 . S
H2612 C2622 0.930 . S
H2613 C2625 0.929 . S
H2614 C2628 0.930 . S
H2615 C2630 0.960 . S
H2616 C2630 0.960 . S
H2617 C2630 0.960 . S
C2618 H2610 0.929 . S
C2618 C2619 1.377 . S
C2618 C2620 1.384 . S
C2619 C2618 1.377 . S
C2619 C2625 1.390 . S
C2620 H2611 0.930 . S
C2620 C2618 1.384 . S
C2620 C2621 1.372 . S
C2621 C2620 1.372 . S
C2621 C2622 1.400 . S
C2621 C2626 1.490 . S
C2622 H2612 0.930 . S
C2622 C2621 1.400 . S
C2622 C2625 1.386 . S
H2623 C2639 0.930 . S
H2624 C2640 0.931 . S
C2625 H2613 0.929 . S
C2625 C2619 1.390 . S
C2625 C2622 1.386 . S
C2626 C2621 1.490 . S
C2626 C2628 1.395 . S
C2626 C2629 1.403 . S
H2627 C2633 0.930 . S
C2628 H2614 0.930 . S
C2628 C2626 1.395 . S
C2628 C2631 1.403 . S
C2629 C2626 1.403 . S
C2629 C2630 1.524 . S
C2629 C2633 1.400 . S
C2630 H2615 0.960 . S
C2630 H2616 0.960 . S
C2630 H2617 0.960 . S
C2630 C2629 1.524 . S
C2631 C2628 1.403 . S
C2631 C2632 1.392 . S
C2631 C2635 1.495 . S
C2632 C2631 1.392 . S
C2632 C2633 1.385 . S
C2632 C2634 1.478 . S
C2633 H2627 0.930 . S
C2633 C2629 1.400 . S
C2633 C2632 1.385 . S
C2634 C2632 1.478 . S
C2634 C2636 1.381 . S
C2634 C2640 1.383 . S
C2635 C2631 1.495 . S
C2635 H2641 0.959 . S
C2635 H2642 0.961 . S
C2635 H2643 0.960 . S
C2636 C2634 1.381 . S
C2636 C2637 1.394 . S
C2636 H2644 0.930 . S
C2637 C2636 1.394 . S
C2637 C2638 1.383 . S
C2637 H2645 0.929 . S
C2638 C2637 1.383 . S
C2638 C2639 1.377 . S
C2639 H2623 0.930 . S
C2639 C2638 1.377 . S
C2639 C2640 1.379 . S
C2640 H2624 0.931 . S
C2640 C2634 1.383 . S
C2640 C2639 1.379 . S
H2641 C2635 0.959 . S
H2642 C2635 0.961 . S
H2643 C2635 0.960 . S
H2644 C2636 0.930 . S
H2645 C2637 0.929 . S
H2646 C2654 0.929 . S
H2647 C2656 0.930 . S
H2648 C2658 0.930 . S
H2649 C2661 0.929 . S
H2650 C2664 0.930 . S
H2651 C2666 0.960 . S
H2652 C2666 0.960 . S
H2653 C2666 0.960 . S
C2654 H2646 0.929 . S
C2654 C2655 1.377 . S
C2654 C2656 1.384 . S
C2655 C2654 1.377 . S
C2655 C2661 1.390 . S
C2656 H2647 0.930 . S
C2656 C2654 1.384 . S
C2656 C2657 1.372 . S
C2657 C2656 1.372 . S
C2657 C2658 1.400 . S
C2657 C2662 1.490 . S
C2658 H2648 0.930 . S
C2658 C2657 1.400 . S
C2658 C2661 1.386 . S
H2659 C2675 0.930 . S
H2660 C2676 0.931 . S
C2661 H2649 0.929 . S
C2661 C2655 1.390 . S
C2661 C2658 1.386 . S
C2662 C2657 1.490 . S
C2662 C2664 1.395 . S
C2662 C2665 1.403 . S
H2663 C2669 0.930 . S
C2664 H2650 0.930 . S
C2664 C2662 1.395 . S
C2664 C2667 1.403 . S
C2665 C2662 1.403 . S
C2665 C2666 1.524 . S
C2665 C2669 1.400 . S
C2666 H2651 0.960 . S
C2666 H2652 0.960 . S
C2666 H2653 0.960 . S
C2666 C2665 1.524 . S
C2667 C2664 1.403 . S
C2667 C2668 1.392 . S
C2667 C2671 1.495 . S
C2668 C2667 1.392 . S
C2668 C2669 1.385 . S
C2668 C2670 1.478 . S
C2669 H2663 0.930 . S
C2669 C2665 1.400 . S
C2669 C2668 1.385 . S
C2670 C2668 1.478 . S
C2670 C2672 1.381 . S
C2670 C2676 1.383 . S
C2671 C2667 1.495 . S
C2671 H2677 0.959 . S
C2671 H2678 0.961 . S
C2671 H2679 0.960 . S
C2672 C2670 1.381 . S
C2672 C2673 1.394 . S
C2672 H2680 0.930 . S
C2673 C2672 1.394 . S
C2673 C2674 1.383 . S
C2673 H2681 0.929 . S
C2674 C2673 1.383 . S
C2674 C2675 1.377 . S
C2675 H2659 0.930 . S
C2675 C2674 1.377 . S
C2675 C2676 1.379 . S
C2676 H2660 0.931 . S
C2676 C2670 1.383 . S
C2676 C2675 1.379 . S
H2677 C2671 0.959 . S
H2678 C2671 0.961 . S
H2679 C2671 0.960 . S
H2680 C2672 0.930 . S
H2681 C2673 0.929 . S
H2682 C2690 0.929 . S
H2683 C2692 0.930 . S
H2684 C2694 0.930 . S
H2685 C2697 0.929 . S
H2686 C2700 0.930 . S
H2687 C2702 0.960 . S
H2688 C2702 0.960 . S
H2689 C2702 0.960 . S
C2690 H2682 0.929 . S
C2690 C2691 1.377 . S
C2690 C2692 1.384 . S
C2691 C2690 1.377 . S
C2691 C2697 1.390 . S
C2692 H2683 0.930 . S
C2692 C2690 1.384 . S
C2692 C2693 1.372 . S
C2693 C2692 1.372 . S
C2693 C2694 1.400 . S
C2693 C2698 1.490 . S
C2694 H2684 0.930 . S
C2694 C2693 1.400 . S
C2694 C2697 1.386 . S
H2695 C2711 0.930 . S
H2696 C2712 0.931 . S
C2697 H2685 0.929 . S
C2697 C2691 1.390 . S
C2697 C2694 1.386 . S
C2698 C2693 1.490 . S
C2698 C2700 1.395 . S
C2698 C2701 1.403 . S
H2699 C2705 0.930 . S
C2700 H2686 0.930 . S
C2700 C2698 1.395 . S
C2700 C2703 1.403 . S
C2701 C2698 1.403 . S
C2701 C2702 1.524 . S
C2701 C2705 1.400 . S
C2702 H2687 0.960 . S
C2702 H2688 0.960 . S
C2702 H2689 0.960 . S
C2702 C2701 1.524 . S
C2703 C2700 1.403 . S
C2703 C2704 1.392 . S
C2703 C2707 1.495 . S
C2704 C2703 1.392 . S
C2704 C2705 1.385 . S
C2704 C2706 1.478 . S
C2705 H2699 0.930 . S
C2705 C2701 1.400 . S
C2705 C2704 1.385 . S
C2706 C2704 1.478 . S
C2706 C2708 1.381 . S
C2706 C2712 1.383 . S
C2707 C2703 1.495 . S
C2707 H2713 0.959 . S
C2707 H2714 0.961 . S
C2707 H2715 0.960 . S
C2708 C2706 1.381 . S
C2708 C2709 1.394 . S
C2708 H2716 0.930 . S
C2709 C2708 1.394 . S
C2709 C2710 1.383 . S
C2709 H2717 0.929 . S
C2710 C2709 1.383 . S
C2710 C2711 1.377 . S
C2711 H2695 0.930 . S
C2711 C2710 1.377 . S
C2711 C2712 1.379 . S
C2712 H2696 0.931 . S
C2712 C2706 1.383 . S
C2712 C2711 1.379 . S
H2713 C2707 0.959 . S
H2714 C2707 0.961 . S
H2715 C2707 0.960 . S
H2716 C2708 0.930 . S
H2717 C2709 0.929 . S
H2718 C2726 0.929 . S
H2719 C2728 0.930 . S
H2720 C2730 0.930 . S
H2721 C2733 0.929 . S
H2722 C2736 0.930 . S
H2723 C2738 0.960 . S
H2724 C2738 0.960 . S
H2725 C2738 0.960 . S
C2726 H2718 0.929 . S
C2726 C2727 1.377 . S
C2726 C2728 1.384 . S
C2727 C2726 1.377 . S
C2727 C2733 1.390 . S
C2728 H2719 0.930 . S
C2728 C2726 1.384 . S
C2728 C2729 1.372 . S
C2729 C2728 1.372 . S
C2729 C2730 1.400 . S
C2729 C2734 1.490 . S
C2730 H2720 0.930 . S
C2730 C2729 1.400 . S
C2730 C2733 1.386 . S
H2731 C2747 0.930 . S
H2732 C2748 0.931 . S
C2733 H2721 0.929 . S
C2733 C2727 1.390 . S
C2733 C2730 1.386 . S
C2734 C2729 1.490 . S
C2734 C2736 1.395 . S
C2734 C2737 1.403 . S
H2735 C2741 0.930 . S
C2736 H2722 0.930 . S
C2736 C2734 1.395 . S
C2736 C2739 1.403 . S
C2737 C2734 1.403 . S
C2737 C2738 1.524 . S
C2737 C2741 1.400 . S
C2738 H2723 0.960 . S
C2738 H2724 0.960 . S
C2738 H2725 0.960 . S
C2738 C2737 1.524 . S
C2739 C2736 1.403 . S
C2739 C2740 1.392 . S
C2739 C2743 1.495 . S
C2740 C2739 1.392 . S
C2740 C2741 1.385 . S
C2740 C2742 1.478 . S
C2741 H2735 0.930 . S
C2741 C2737 1.400 . S
C2741 C2740 1.385 . S
C2742 C2740 1.478 . S
C2742 C2744 1.381 . S
C2742 C2748 1.383 . S
C2743 C2739 1.495 . S
C2743 H2749 0.959 . S
C2743 H2750 0.961 . S
C2743 H2751 0.960 . S
C2744 C2742 1.381 . S
C2744 C2745 1.394 . S
C2744 H2752 0.930 . S
C2745 C2744 1.394 . S
C2745 C2746 1.383 . S
C2745 H2753 0.929 . S
C2746 C2745 1.383 . S
C2746 C2747 1.377 . S
C2747 H2731 0.930 . S
C2747 C2746 1.377 . S
C2747 C2748 1.379 . S
C2748 H2732 0.931 . S
C2748 C2742 1.383 . S
C2748 C2747 1.379 . S
H2749 C2743 0.959 . S
H2750 C2743 0.961 . S
H2751 C2743 0.960 . S
H2752 C2744 0.930 . S
H2753 C2745 0.929 . S
H2754 C2762 0.929 . S
H2755 C2764 0.930 . S
H2756 C2766 0.930 . S
H2757 C2769 0.929 . S
H2758 C2772 0.930 . S
H2759 C2774 0.960 . S
H2760 C2774 0.960 . S
H2761 C2774 0.960 . S
C2762 H2754 0.929 . S
C2762 C2763 1.377 . S
C2762 C2764 1.384 . S
C2763 C2762 1.377 . S
C2763 C2769 1.390 . S
C2764 H2755 0.930 . S
C2764 C2762 1.384 . S
C2764 C2765 1.372 . S
C2765 C2764 1.372 . S
C2765 C2766 1.400 . S
C2765 C2770 1.490 . S
C2766 H2756 0.930 . S
C2766 C2765 1.400 . S
C2766 C2769 1.386 . S
H2767 C2783 0.930 . S
H2768 C2784 0.931 . S
C2769 H2757 0.929 . S
C2769 C2763 1.390 . S
C2769 C2766 1.386 . S
C2770 C2765 1.490 . S
C2770 C2772 1.395 . S
C2770 C2773 1.403 . S
H2771 C2777 0.930 . S
C2772 H2758 0.930 . S
C2772 C2770 1.395 . S
C2772 C2775 1.403 . S
C2773 C2770 1.403 . S
C2773 C2774 1.524 . S
C2773 C2777 1.400 . S
C2774 H2759 0.960 . S
C2774 H2760 0.960 . S
C2774 H2761 0.960 . S
C2774 C2773 1.524 . S
C2775 C2772 1.403 . S
C2775 C2776 1.392 . S
C2775 C2779 1.495 . S
C2776 C2775 1.392 . S
C2776 C2777 1.385 . S
C2776 C2778 1.478 . S
C2777 H2771 0.930 . S
C2777 C2773 1.400 . S
C2777 C2776 1.385 . S
C2778 C2776 1.478 . S
C2778 C2780 1.381 . S
C2778 C2784 1.383 . S
C2779 C2775 1.495 . S
C2779 H2785 0.959 . S
C2779 H2786 0.961 . S
C2779 H2787 0.960 . S
C2780 C2778 1.381 . S
C2780 C2781 1.394 . S
C2780 H2788 0.930 . S
C2781 C2780 1.394 . S
C2781 C2782 1.383 . S
C2781 H2789 0.929 . S
C2782 C2781 1.383 . S
C2782 C2783 1.377 . S
C2783 H2767 0.930 . S
C2783 C2782 1.377 . S
C2783 C2784 1.379 . S
C2784 H2768 0.931 . S
C2784 C2778 1.383 . S
C2784 C2783 1.379 . S
H2785 C2779 0.959 . S
H2786 C2779 0.961 . S
H2787 C2779 0.960 . S
H2788 C2780 0.930 . S
H2789 C2781 0.929 . S
H2790 C2798 0.929 . S
H2791 C2800 0.930 . S
H2792 C2802 0.930 . S
H2793 C2805 0.929 . S
H2794 C2808 0.930 . S
H2795 C2810 0.960 . S
H2796 C2810 0.960 . S
H2797 C2810 0.960 . S
C2798 H2790 0.929 . S
C2798 C2799 1.377 . S
C2798 C2800 1.384 . S
C2799 C2798 1.377 . S
C2799 C2805 1.390 . S
C2800 H2791 0.930 . S
C2800 C2798 1.384 . S
C2800 C2801 1.372 . S
C2801 C2800 1.372 . S
C2801 C2802 1.400 . S
C2801 C2806 1.490 . S
C2802 H2792 0.930 . S
C2802 C2801 1.400 . S
C2802 C2805 1.386 . S
H2803 C2819 0.930 . S
H2804 C2820 0.931 . S
C2805 H2793 0.929 . S
C2805 C2799 1.390 . S
C2805 C2802 1.386 . S
C2806 C2801 1.490 . S
C2806 C2808 1.395 . S
C2806 C2809 1.403 . S
H2807 C2813 0.930 . S
C2808 H2794 0.930 . S
C2808 C2806 1.395 . S
C2808 C2811 1.403 . S
C2809 C2806 1.403 . S
C2809 C2810 1.524 . S
C2809 C2813 1.400 . S
C2810 H2795 0.960 . S
C2810 H2796 0.960 . S
C2810 H2797 0.960 . S
C2810 C2809 1.524 . S
C2811 C2808 1.403 . S
C2811 C2812 1.392 . S
C2811 C2815 1.495 . S
C2812 C2811 1.392 . S
C2812 C2813 1.385 . S
C2812 C2814 1.478 . S
C2813 H2807 0.930 . S
C2813 C2809 1.400 . S
C2813 C2812 1.385 . S
C2814 C2812 1.478 . S
C2814 C2816 1.381 . S
C2814 C2820 1.383 . S
C2815 C2811 1.495 . S
C2815 H2821 0.959 . S
C2815 H2822 0.961 . S
C2815 H2823 0.960 . S
C2816 C2814 1.381 . S
C2816 C2817 1.394 . S
C2816 H2824 0.930 . S
C2817 C2816 1.394 . S
C2817 C2818 1.383 . S
C2817 H2825 0.929 . S
C2818 C2817 1.383 . S
C2818 C2819 1.377 . S
C2819 H2803 0.930 . S
C2819 C2818 1.377 . S
C2819 C2820 1.379 . S
C2820 H2804 0.931 . S
C2820 C2814 1.383 . S
C2820 C2819 1.379 . S
H2821 C2815 0.959 . S
H2822 C2815 0.961 . S
H2823 C2815 0.960 . S
H2824 C2816 0.930 . S
H2825 C2817 0.929 . S
H2826 C2834 0.929 . S
H2827 C2836 0.930 . S
H2828 C2838 0.930 . S
H2829 C2841 0.929 . S
H2830 C2844 0.930 . S
H2831 C2846 0.960 . S
H2832 C2846 0.960 . S
H2833 C2846 0.960 . S
C2834 H2826 0.929 . S
C2834 C2835 1.377 . S
C2834 C2836 1.384 . S
C2835 C2834 1.377 . S
C2835 C2841 1.390 . S
C2836 H2827 0.930 . S
C2836 C2834 1.384 . S
C2836 C2837 1.372 . S
C2837 C2836 1.372 . S
C2837 C2838 1.400 . S
C2837 C2842 1.490 . S
C2838 H2828 0.930 . S
C2838 C2837 1.400 . S
C2838 C2841 1.386 . S
H2839 C2855 0.930 . S
H2840 C2856 0.931 . S
C2841 H2829 0.929 . S
C2841 C2835 1.390 . S
C2841 C2838 1.386 . S
C2842 C2837 1.490 . S
C2842 C2844 1.395 . S
C2842 C2845 1.403 . S
H2843 C2849 0.930 . S
C2844 H2830 0.930 . S
C2844 C2842 1.395 . S
C2844 C2847 1.403 . S
C2845 C2842 1.403 . S
C2845 C2846 1.524 . S
C2845 C2849 1.400 . S
C2846 H2831 0.960 . S
C2846 H2832 0.960 . S
C2846 H2833 0.960 . S
C2846 C2845 1.524 . S
C2847 C2844 1.403 . S
C2847 C2848 1.392 . S
C2847 C2851 1.495 . S
C2848 C2847 1.392 . S
C2848 C2849 1.385 . S
C2848 C2850 1.478 . S
C2849 H2843 0.930 . S
C2849 C2845 1.400 . S
C2849 C2848 1.385 . S
C2850 C2848 1.478 . S
C2850 C2852 1.381 . S
C2850 C2856 1.383 . S
C2851 C2847 1.495 . S
C2851 H2857 0.959 . S
C2851 H2858 0.961 . S
C2851 H2859 0.960 . S
C2852 C2850 1.381 . S
C2852 C2853 1.394 . S
C2852 H2860 0.930 . S
C2853 C2852 1.394 . S
C2853 C2854 1.383 . S
C2853 H2861 0.929 . S
C2854 C2853 1.383 . S
C2854 C2855 1.377 . S
C2855 H2839 0.930 . S
C2855 C2854 1.377 . S
C2855 C2856 1.379 . S
C2856 H2840 0.931 . S
C2856 C2850 1.383 . S
C2856 C2855 1.379 . S
H2857 C2851 0.959 . S
H2858 C2851 0.961 . S
H2859 C2851 0.960 . S
H2860 C2852 0.930 . S
H2861 C2853 0.929 . S
H2862 C2870 0.929 . S
H2863 C2872 0.930 . S
H2864 C2874 0.930 . S
H2865 C2877 0.929 . S
H2866 C2880 0.930 . S
H2867 C2882 0.960 . S
H2868 C2882 0.960 . S
H2869 C2882 0.960 . S
C2870 H2862 0.929 . S
C2870 C2871 1.377 . S
C2870 C2872 1.384 . S
C2871 C2870 1.377 . S
C2871 C2877 1.390 . S
C2872 H2863 0.930 . S
C2872 C2870 1.384 . S
C2872 C2873 1.372 . S
C2873 C2872 1.372 . S
C2873 C2874 1.400 . S
C2873 C2878 1.490 . S
C2874 H2864 0.930 . S
C2874 C2873 1.400 . S
C2874 C2877 1.386 . S
H2875 C2891 0.930 . S
H2876 C2892 0.931 . S
C2877 H2865 0.929 . S
C2877 C2871 1.390 . S
C2877 C2874 1.386 . S
C2878 C2873 1.490 . S
C2878 C2880 1.395 . S
C2878 C2881 1.403 . S
H2879 C2885 0.930 . S
C2880 H2866 0.930 . S
C2880 C2878 1.395 . S
C2880 C2883 1.403 . S
C2881 C2878 1.403 . S
C2881 C2882 1.524 . S
C2881 C2885 1.400 . S
C2882 H2867 0.960 . S
C2882 H2868 0.960 . S
C2882 H2869 0.960 . S
C2882 C2881 1.524 . S
C2883 C2880 1.403 . S
C2883 C2884 1.392 . S
C2883 C2887 1.495 . S
C2884 C2883 1.392 . S
C2884 C2885 1.385 . S
C2884 C2886 1.478 . S
C2885 H2879 0.930 . S
C2885 C2881 1.400 . S
C2885 C2884 1.385 . S
C2886 C2884 1.478 . S
C2886 C2888 1.381 . S
C2886 C2892 1.383 . S
C2887 C2883 1.495 . S
C2887 H2893 0.959 . S
C2887 H2894 0.961 . S
C2887 H2895 0.960 . S
C2888 C2886 1.381 . S
C2888 C2889 1.394 . S
C2888 H2896 0.930 . S
C2889 C2888 1.394 . S
C2889 C2890 1.383 . S
C2889 H2897 0.929 . S
C2890 C2889 1.383 . S
C2890 C2891 1.377 . S
C2891 H2875 0.930 . S
C2891 C2890 1.377 . S
C2891 C2892 1.379 . S
C2892 H2876 0.931 . S
C2892 C2886 1.383 . S
C2892 C2891 1.379 . S
H2893 C2887 0.959 . S
H2894 C2887 0.961 . S
H2895 C2887 0.960 . S
H2896 C2888 0.930 . S
H2897 C2889 0.929 . S
C963 C147 1.431 . S
C982 C265 1.360 . S
C999 C158 1.459 . S
C1018 C349 1.376 . S
C1035 C136 1.425 . S
C1054 C429 1.420 . S
C1071 C125 1.403 . S
C1090 C345 1.378 1_556 S
C1126 C433 1.317 . S
C1107 C103 1.409 . S
C1143 C114 1.379 . S
C1162 C261 1.354 1_556 S
C1198 C254 1.414 . S
C1179 C131 1.489 . S
C1234 C338 1.483 . S
C1215 C109 1.518 . S
C1251 C120 1.513 . S
C1270 C440 1.500 1_556 S
C1287 C153 1.478 . S
C1306 C356 1.463 . S
C1323 C164 1.462 . S
C1342 C422 1.405 . S
C1378 C272 1.441 . S
C1359 C142 1.456 . S
C1414 C517 1.392 . S
C1395 C15 1.431 . S
C1431 C26 1.460 . S
C1450 C601 1.374 . S
C1467 C4 1.425 . S
C1486 C681 1.429 . S
C1503 C191 1.403 . S
C1522 C597 1.379 . S
C1539 C169 1.407 . S
C1558 C685 1.353 . S
C1575 C180 1.378 . S
C1594 C513 1.355 . S
C1611 C197 1.490 . S
C1630 C506 1.443 . S
C1647 C175 1.519 . S
C1666 C590 1.470 . S
C1702 C692 1.497 . S
C1683 C186 1.513 . S
C1719 C21 1.476 . S
C1738 C608 1.440 . S
C1774 C674 1.394 . S
C1755 C32 1.457 . S
C1791 C10 1.453 . S
C1810 C524 1.426 . S
C1846 C769 1.371 . S
C1827 C81 1.431 . S
C1863 C92 1.460 . S
C1882 C853 1.432 . S
C1918 C933 1.426 . S
C1899 C70 1.425 . S
C1954 C849 1.399 . S
C1935 C59 1.399 . S
C1990 C937 1.318 . S
C1971 C37 1.409 . S
C2007 C48 1.379 . S
C2026 C765 1.358 . S
C2043 C65 1.489 . S
C2062 C758 1.409 . S
C2079 C43 1.514 . S
C2098 C842 1.447 . S
C2134 C944 1.451 . S
C2115 C54 1.507 . S
C2151 C87 1.472 . S
C2170 C860 1.415 . S
C2187 C98 1.460 . S
C2206 C926 1.427 . S
C2223 C76 1.451 . S
C2242 C776 1.403 . S
C2259 C170 1.545 . S
C2278 C268 1.389 . S
C2314 C352 1.464 . S
C2295 C181 1.626 . S
C2331 C192 1.559 . S
C2350 C424 1.335 . S
C2367 C71 1.595 . S
C2386 C340 1.393 . S
C2403 C82 1.579 . S
C2422 C436 1.475 . S
C2458 C256 1.382 . S
C2439 C93 1.517 . S
C2475 C38 1.546 . S
C2494 C520 1.391 . S
C2511 C49 1.625 . S
C2530 C604 1.498 . S
C2547 C60 1.560 . S
C2566 C676 1.350 . S
C2583 C137 1.594 . S
C2602 C592 1.374 . S
C2638 C688 1.434 . S
C2619 C148 1.575 . S
C2655 C159 1.513 . S
C2674 C508 1.310 . S
C2691 C104 1.547 . S
C2710 C772 1.425 . S
C2727 C115 1.623 . S
C2746 C856 1.481 . S
C2782 C928 1.372 . S
C2763 C126 1.562 . S
C2799 C5 1.593 . S
C2818 C844 1.357 . S
C2835 C16 1.578 . S
C2854 C940 1.419 . S
C2871 C27 1.517 . S
C2890 C760 1.380 . S
