# Generated by pormake.
# Topology rtl, (3,6)-cn, num edge types: 1
# Building blocks:
#     Node 0, Type 0, BuildingBlock: KAKCAD_clean_linker_0, # of connection points: 3
#     Node 1, Type 0, BuildingBlock: KAKCAD_clean_linker_0, # of connection points: 3
#     Node 2, Type 0, BuildingBlock: KAKCAD_clean_linker_0, # of connection points: 3
#     Node 3, Type 0, BuildingBlock: KAKCAD_clean_linker_0, # of connection points: 3
#     Node 4, Type 1, BuildingBlock: VOLQOD_clean_sbu_1, # of connection points: 6
#     Node 5, Type 1, BuildingBlock: VOLQOD_clean_sbu_1, # of connection points: 6
#     Edge 6, Type (0, 1), BuildingBlock: EZIPEK_clean_linker_0, # of connection points: 2
#     Edge 7, Type (0, 1), BuildingBlock: EZIPEK_clean_linker_0, # of connection points: 2
#     Edge 8, Type (0, 1), BuildingBlock: EZIPEK_clean_linker_0, # of connection points: 2
#     Edge 9, Type (0, 1), BuildingBlock: EZIPEK_clean_linker_0, # of connection points: 2
#     Edge 10, Type (0, 1), BuildingBlock: EZIPEK_clean_linker_0, # of connection points: 2
#     Edge 11, Type (0, 1), BuildingBlock: EZIPEK_clean_linker_0, # of connection points: 2
#     Edge 12, Type (0, 1), BuildingBlock: EZIPEK_clean_linker_0, # of connection points: 2
#     Edge 13, Type (0, 1), BuildingBlock: EZIPEK_clean_linker_0, # of connection points: 2
#     Edge 14, Type (0, 1), BuildingBlock: EZIPEK_clean_linker_0, # of connection points: 2
#     Edge 15, Type (0, 1), BuildingBlock: EZIPEK_clean_linker_0, # of connection points: 2
#     Edge 16, Type (0, 1), BuildingBlock: EZIPEK_clean_linker_0, # of connection points: 2
#     Edge 17, Type (0, 1), BuildingBlock: EZIPEK_clean_linker_0, # of connection points: 2
# Relax obj value: 0.078
# Max RMSD: 0.156
# Mean RMSD: 0.088
data_MOF--net-rtl--node1-VOLQOD_clean_sbu_1--node2-KAKCAD_clean_linker_0--edge1-EZIPEK_clean_linker_0
_symmetry_space_group_name_H-M    P1
_symmetry_Int_Tables_number       1
_symmetry_cell_setting            triclinic
loop_
_symmetry_equiv_pos_as_xyz
'x, y, z'
_cell_length_a     35.455125
_cell_length_b     30.679503
_cell_length_c     22.979593
_cell_angle_alpha  89.907542
_cell_angle_beta   90.341111
_cell_angle_gamma 89.967882
loop_
_atom_site_label
_atom_site_type_symbol
_atom_site_fract_x
_atom_site_fract_y
_atom_site_fract_z
_atom_type_partial_charge
C0 C 0.07615 0.7677 0.81467 0.0
C1 C 0.0677 0.81221 0.81951 0.0
C2 C 0.08714 0.7439 0.86392 0.0
C3 C 0.08972 0.76437 0.91855 0.0
C4 C 0.08092 0.80898 0.92288 0.0
C5 C 0.06992 0.83261 0.87382 0.0
C6 C 0.10317 0.74029 0.97075 0.0
C7 C 0.13498 0.71313 0.96765 0.0
C8 C 0.15121 0.6954 0.01844 0.0
C9 C 0.13478 0.70458 0.07264 0.0
C10 C 0.10262 0.73108 0.0762 0.0
C11 C 0.08664 0.74809 0.02505 0.0
C12 C 0.08855 0.74646 0.1331 0.0
C13 C 0.11372 0.76545 0.17313 0.0
C14 C 0.04962 0.74784 0.1443 0.0
C15 C 0.03601 0.77003 0.1929 0.0
C16 C 0.06114 0.7916 0.2304 0.0
C17 C 0.18724 0.67081 0.01558 0.0
C18 C 0.21656 0.68546 0.97947 0.0
C19 C 0.19335 0.63394 0.05092 0.0
C20 C 0.22829 0.61281 0.05104 0.0
C21 C 0.25757 0.6282 0.01581 0.0
C22 C 0.25139 0.66427 0.97954 0.0
C23 C 0.10009 0.78801 0.22132 0.0
H24 H 0.07446 0.75159 0.77282 0.0
H25 H 0.09358 0.70957 0.85932 0.0
H26 H 0.08341 0.82598 0.96399 0.0
H27 H 0.06363 0.86703 0.87803 0.0
H28 H 0.14808 0.70728 0.9259 0.0
H29 H 0.06239 0.76951 0.02787 0.0
H30 H 0.14788 0.69265 0.11232 0.0
H31 H 0.14381 0.76529 0.16521 0.0
H32 H 0.0297 0.73329 0.11415 0.0
H33 H 0.00585 0.77238 0.19957 0.0
H34 H 0.21305 0.71418 0.95252 0.0
H35 H 0.17122 0.62168 0.0788 0.0
H36 H 0.11982 0.80448 0.24997 0.0
H37 H 0.27386 0.67664 0.95237 0.0
H38 H 0.23274 0.58497 0.07932 0.0
C39 C 0.54551 0.72388 0.7001 0.0
C40 C 0.57293 0.70663 0.73781 0.0
C41 C 0.55631 0.74889 0.65215 0.0
C42 C 0.59467 0.75716 0.64153 0.0
C43 C 0.62191 0.74126 0.68095 0.0
C44 C 0.6111 0.71604 0.72864 0.0
C45 C 0.60662 0.77869 0.58687 0.0
C46 C 0.63577 0.80958 0.58716 0.0
C47 C 0.65035 0.82591 0.53474 0.0
C48 C 0.63477 0.81168 0.48167 0.0
C49 C 0.60562 0.78067 0.48061 0.0
C50 C 0.59149 0.76477 0.53352 0.0
C51 C 0.59278 0.76089 0.42493 0.0
C52 C 0.61921 0.74904 0.38228 0.0
C53 C 0.55463 0.7498 0.41641 0.0
C54 C 0.54353 0.72537 0.368 0.0
C55 C 0.57034 0.71201 0.32718 0.0
C56 C 0.6843 0.85424 0.53512 0.0
C57 C 0.71478 0.84448 0.57241 0.0
C58 C 0.68763 0.88927 0.49585 0.0
C59 C 0.72116 0.91312 0.4928 0.0
C60 C 0.75178 0.90221 0.52889 0.0
C61 C 0.7482 0.8683 0.56932 0.0
C62 C 0.60802 0.72486 0.33373 0.0
H63 H 0.51592 0.71676 0.70675 0.0
H64 H 0.53476 0.76095 0.62262 0.0
H65 H 0.65168 0.74661 0.67347 0.0
H66 H 0.63254 0.70272 0.75738 0.0
H67 H 0.64761 0.82028 0.62832 0.0
H68 H 0.57041 0.73919 0.53319 0.0
H69 H 0.64644 0.82332 0.44104 0.0
H70 H 0.64887 0.75644 0.38783 0.0
H71 H 0.53354 0.75889 0.44807 0.0
H72 H 0.5143 0.71565 0.36336 0.0
H73 H 0.71339 0.81731 0.60247 0.0
H74 H 0.66452 0.89779 0.46696 0.0
H75 H 0.62903 0.71449 0.30262 0.0
H76 H 0.77172 0.85943 0.59725 0.0
H77 H 0.7236 0.93933 0.46139 0.0
C78 C 0.90046 0.20848 0.20347 0.0
C79 C 0.93919 0.20229 0.21262 0.0
C80 C 0.88769 0.23312 0.1562 0.0
C81 C 0.91352 0.25172 0.11716 0.0
C82 C 0.9524 0.24676 0.12784 0.0
C83 C 0.96515 0.22228 0.17537 0.0
C84 C 0.89981 0.27239 0.06264 0.0
C85 C 0.86853 0.30047 0.06291 0.0
C86 C 0.85264 0.31569 0.01047 0.0
C87 C 0.86869 0.30272 0.95741 0.0
C88 C 0.89993 0.2746 0.95649 0.0
C89 C 0.9156 0.26012 0.00929 0.0
C90 C 0.91368 0.25604 0.901 0.0
C91 C 0.88787 0.23879 0.86046 0.0
C92 C 0.95257 0.25113 0.89103 0.0
C93 C 0.96532 0.22763 0.84296 0.0
C94 C 0.93936 0.20858 0.80446 0.0
C95 C 0.81758 0.34222 0.01125 0.0
C96 C 0.81261 0.37523 0.05296 0.0
C97 C 0.78799 0.33317 0.97201 0.0
C98 C 0.75401 0.35604 0.97511 0.0
C99 C 0.74898 0.38834 0.01743 0.0
C100 C 0.77855 0.39805 0.05607 0.0
C101 C 0.90064 0.21508 0.81265 0.0
H102 H 0.88014 0.19303 0.23186 0.0
H103 H 0.85759 0.23584 0.14865 0.0
H104 H 0.97289 0.26094 0.0986 0.0
H105 H 0.99517 0.21767 0.18201 0.0
H106 H 0.85572 0.30913 0.10401 0.0
H107 H 0.93854 0.23674 0.00877 0.0
H108 H 0.85657 0.31402 0.91668 0.0
H109 H 0.85777 0.24156 0.86737 0.0
H110 H 0.97304 0.26431 0.92142 0.0
H111 H 0.99533 0.22275 0.83711 0.0
H112 H 0.83498 0.38325 0.0834 0.0
H113 H 0.79062 0.30747 0.94003 0.0
H114 H 0.88032 0.20035 0.78331 0.0
H115 H 0.77508 0.42297 0.08896 0.0
H116 H 0.73131 0.34795 0.94525 0.0
C117 C 0.39039 0.31471 0.3497 0.0
C118 C 0.42916 0.32097 0.34138 0.0
C119 C 0.37762 0.28995 0.39662 0.0
C120 C 0.40346 0.27138 0.43613 0.0
C121 C 0.44232 0.27699 0.4269 0.0
C122 C 0.45508 0.30146 0.37968 0.0
C123 C 0.38984 0.2483 0.48858 0.0
C124 C 0.36036 0.21818 0.48466 0.0
C125 C 0.34564 0.19849 0.53483 0.0
C126 C 0.36162 0.20826 0.58948 0.0
C127 C 0.39104 0.239 0.59434 0.0
C128 C 0.40477 0.25872 0.54331 0.0
C129 C 0.4053 0.25421 0.65212 0.0
C130 C 0.38089 0.25813 0.70001 0.0
C131 C 0.44256 0.26962 0.65799 0.0
C132 C 0.45376 0.29257 0.70746 0.0
C133 C 0.42853 0.29898 0.75339 0.0
C134 C 0.31205 0.16998 0.52935 0.0
C135 C 0.28173 0.18321 0.49431 0.0
C136 C 0.30961 0.13001 0.55861 0.0
C137 C 0.27872 0.10235 0.54916 0.0
C138 C 0.2502 0.11291 0.50791 0.0
C139 C 0.25105 0.15577 0.48503 0.0
C140 C 0.39268 0.27963 0.75058 0.0
H141 H 0.37008 0.32966 0.32045 0.0
H142 H 0.34752 0.28653 0.40309 0.0
H143 H 0.46279 0.26274 0.45651 0.0
H144 H 0.48511 0.30594 0.3736 0.0
H145 H 0.34861 0.21025 0.4423 0.0
H146 H 0.42584 0.2842 0.54601 0.0
H147 H 0.35025 0.193 0.6281 0.0
H148 H 0.35199 0.24696 0.69751 0.0
H149 H 0.46278 0.2657 0.62326 0.0
H150 H 0.48179 0.30659 0.70907 0.0
H151 H 0.28156 0.21519 0.47419 0.0
H152 H 0.33178 0.11984 0.58831 0.0
H153 H 0.37296 0.28374 0.78598 0.0
H154 H 0.22789 0.16918 0.46011 0.0
H155 H 0.2777 0.07344 0.57566 0.0
O156 O 0.91032 0.01252 0.51321 0.0
Zn157 Zn 0.95988 0.04466 0.51183 0.0
O158 O 0.00267 0.00428 0.51338 0.0
Zn159 Zn 0.03529 0.01767 0.58014 0.0
Zn160 Zn 0.98401 0.9444 0.51892 0.0
Zn161 Zn 0.03166 0.01027 0.44203 0.0
O162 O 0.08708 0.0375 0.555 0.0
O163 O 0.08513 0.02677 0.45942 0.0
O164 O 0.9607 0.08437 0.58117 0.0
O165 O 0.01257 0.06482 0.62968 0.0
O166 O 0.0417 0.96461 0.63093 0.0
O167 O 0.00403 0.91488 0.59059 0.0
O168 O -0.00018 0.90803 0.45049 0.0
O169 O 0.9605 0.08172 0.43983 0.0
O170 O 0.03314 0.9544 0.39711 0.0
O171 O 0.00966 0.05676 0.39007 0.0
C172 C 0.9022 0.97227 0.51788 0.0
C173 C 0.10285 0.03785 0.50536 0.0
C174 C 0.02707 0.92672 0.63015 0.0
C175 C 0.98315 0.0883 0.62422 0.0
C176 C 0.0195 0.91663 0.40584 0.0
C177 C 0.98169 0.08246 0.39536 0.0
O178 O 0.92754 0.94299 0.52112 0.0
O179 O 0.59572 0.50559 0.03339 0.0
Zn180 Zn 0.5496 0.54377 0.03492 0.0
O181 O 0.50358 0.50855 0.03488 0.0
Zn182 Zn 0.47554 0.51895 0.96267 0.0
Zn183 Zn 0.51651 0.44667 0.0403 0.0
Zn184 Zn 0.47259 0.52449 0.10153 0.0
O185 O 0.42371 0.54283 0.97931 0.0
O186 O 0.42212 0.54717 0.07593 0.0
O187 O 0.55181 0.58264 0.96455 0.0
O188 O 0.50174 0.56282 0.91208 0.0
O189 O 0.46907 0.46353 0.91706 0.0
O190 O 0.49219 0.41233 0.97564 0.0
O191 O 0.49836 0.42022 0.11492 0.0
O192 O 0.55256 0.58234 0.10548 0.0
O193 O 0.46389 0.47305 0.15409 0.0
O194 O 0.49768 0.57101 0.14958 0.0
C195 C 0.60039 0.46445 0.03337 0.0
C196 C 0.40673 0.5524 0.02626 0.0
C197 C 0.47564 0.42363 0.9287 0.0
C198 C 0.53119 0.58591 0.91927 0.0
C199 C 0.47666 0.43428 0.15459 0.0
C200 C 0.5294 0.59022 0.14621 0.0
O201 O 0.57272 0.43807 0.03566 0.0
C202 C 0.19068 0.09459 0.44997 0.0
C203 C 0.21735 0.08274 0.49322 0.0
C204 C 0.17177 0.0304 0.532 0.0
C205 C 0.14267 0.05194 0.50006 0.0
N206 N 0.12507 0.10702 0.42894 0.0
N207 N 0.23865 0.01532 0.53522 0.0
C208 C 0.1523 0.08425 0.45835 0.0
C209 C 0.20989 0.04368 0.52409 0.0
N210 N 0.20262 0.11118 0.39817 0.0
N211 N 0.16339 0.99687 0.56888 0.0
H212 H 0.26534 0.02005 0.51729 0.0
H213 H 0.23477 0.98448 0.55325 0.0
H214 H 0.13656 0.98323 0.57206 0.0
H215 H 0.18302 0.98387 0.59808 0.0
H216 H 0.18446 0.11674 0.36305 0.0
H217 H 0.2313 0.11401 0.38869 0.0
H218 H 0.13142 0.13336 0.40197 0.0
H219 H 0.09628 0.10274 0.43589 0.0
C220 C 0.32487 0.63018 0.04912 0.0
C221 C 0.29554 0.60809 0.01907 0.0
C222 C 0.33833 0.54746 -0.00187 0.0
C223 C 0.36849 0.57155 0.02316 0.0
N224 N 0.39216 0.63923 0.06251 0.0
N225 N 0.27508 0.54903 0.95743 0.0
C226 C 0.36224 0.61385 0.04605 0.0
C227 C 0.30245 0.56762 0.99137 0.0
N228 N 0.31684 0.66613 0.08191 0.0
N229 N 0.34354 0.50479 0.98308 0.0
H230 H 0.24832 0.56266 0.952 0.0
H231 H 0.2798 0.52205 0.93101 0.0
H232 H 0.36922 0.48867 0.98846 0.0
H233 H 0.32167 0.48424 0.97023 0.0
H234 H 0.3363 0.68072 0.10985 0.0
H235 H 0.28976 0.67916 0.08529 0.0
H236 H 0.38957 0.67199 0.07359 0.0
H237 H 0.42012 0.62889 0.05981 0.0
C238 C 0.80025 0.95561 0.56401 0.0
C239 C 0.78867 0.92428 0.5223 0.0
C240 C 0.84887 0.93187 0.47166 0.0
C241 C 0.86226 0.9586 0.51762 0.0
N242 N 0.8525 0.99293 0.61076 0.0
N243 N 0.80284 0.87864 0.43976 0.0
C244 C 0.83834 0.9701 0.56447 0.0
C245 C 0.81312 0.91151 0.47674 0.0
N246 N 0.77467 0.97179 0.60267 0.0
N247 N 0.86997 0.92691 0.42246 0.0
H248 H 0.77666 0.86321 0.44142 0.0
H249 H 0.82125 0.86438 0.41022 0.0
H250 H 0.89617 0.9418 0.41694 0.0
H251 H 0.86007 0.91154 0.38501 0.0
H252 H 0.78028 0.99787 0.63032 0.0
H253 H 0.74661 0.96156 0.60361 0.0
H254 H 0.83769 0.998 0.64914 0.0
H255 H 0.88025 0.0041 0.61278 0.0
C256 C 0.68907 0.40059 0.07094 0.0
C257 C 0.71196 0.41055 0.02273 0.0
C258 C 0.6613 0.45464 0.98003 0.0
C259 C 0.6391 0.44673 0.03024 0.0
N260 N 0.63411 0.41935 0.12839 0.0
N261 N 0.72356 0.45322 0.9367 0.0
C262 C 0.65358 0.42161 0.07727 0.0
C263 C 0.69918 0.43947 0.97874 0.0
N264 N 0.70169 0.36946 0.10868 0.0
N265 N 0.64569 0.47488 0.93259 0.0
H266 H 0.75156 0.44284 0.93495 0.0
H267 H 0.71715 0.47773 0.90684 0.0
H268 H 0.61791 0.48609 0.93148 0.0
H269 H 0.65915 0.47734 0.89257 0.0
H270 H 0.68613 0.35694 0.14323 0.0
H271 H 0.68613 0.35694 0.14323 0.0
H272 H 0.64504 0.40579 0.16645 0.0
H273 H 0.60816 0.43466 0.13451 0.0
C274 C 0.03031 0.86181 0.25959 0.0
C275 C 0.0469 0.82144 0.27598 0.0
C276 C 0.04544 0.84313 0.37846 0.0
C277 C 0.02657 0.88222 0.36224 0.0
N278 N 0.99254 0.92347 0.28946 0.0
N279 N 0.063 0.76961 0.35099 0.0
C280 C 0.01638 0.88993 0.30338 0.0
C281 C 0.05212 0.81079 0.33553 0.0
N282 N 0.02949 0.87437 0.20246 0.0
N283 N 0.05888 0.83787 0.43393 0.0
H284 H 0.06808 0.74517 0.32049 0.0
H285 H 0.06361 0.75861 0.39389 0.0
H286 H 0.05537 0.86109 0.46652 0.0
H287 H 0.0764 0.8122 0.44638 0.0
H288 H 0.02159 0.90552 0.189 0.0
H289 H 0.03991 0.85518 0.16878 0.0
H290 H 0.9812 0.92797 0.24795 0.0
H291 H 0.98096 0.94416 0.32062 0.0
C292 C 0.55287 0.69202 0.84052 0.0
C293 C 0.56197 0.67595 0.78452 0.0
C294 C 0.55406 0.60081 0.81857 0.0
C295 C 0.54205 0.61696 0.87319 0.0
N296 N 0.52483 0.67738 0.93462 0.0
N297 N 0.56661 0.61605 0.717 0.0
C298 C 0.54015 0.66247 0.8839 0.0
C299 C 0.56119 0.63059 0.77258 0.0
N300 N 0.55705 0.73542 0.8524 0.0
N301 N 0.5602 0.5571 0.81146 0.0
H302 H 0.57305 0.63672 0.68237 0.0
H303 H 0.56201 0.58395 0.70417 0.0
H304 H 0.55549 0.53424 0.84428 0.0
H305 H 0.57295 0.54376 0.7749 0.0
H306 H 0.55501 0.74853 0.89401 0.0
H307 H 0.56523 0.75815 0.8211 0.0
H308 H 0.51889 0.71006 0.94253 0.0
H309 H 0.51522 0.6567 0.96741 0.0
C310 C 0.95421 0.12678 0.24656 0.0
C311 C 0.95232 0.17204 0.25873 0.0
C312 C 0.97472 0.15884 0.35825 0.0
C313 C 0.97282 0.1133 0.3478 0.0
N314 N 0.95566 0.05328 0.28519 0.0
N315 N 0.95689 0.23155 0.32669 0.0
C316 C 0.96143 0.09702 0.29267 0.0
C317 C 0.96156 0.18824 0.31476 0.0
N318 N 0.94956 0.11231 0.1907 0.0
N319 N 0.99031 0.17392 0.40895 0.0
H320 H 0.94838 0.2542 0.29533 0.0
H321 H 0.95895 0.24462 0.36836 0.0
H322 H 0.00055 0.1533 0.44156 0.0
H323 H 0.99608 0.20666 0.41677 0.0
H324 H 0.95485 0.08035 0.17793 0.0
H325 H 0.94332 0.13301 0.15588 0.0
H326 H 0.94327 0.03993 0.2481 0.0
H327 H 0.96026 0.03034 0.31801 0.0
C328 C 0.47218 0.32086 0.83516 0.0
C329 C 0.43898 0.32875 0.80201 0.0
C330 C 0.42629 0.3931 0.86141 0.0
C331 C 0.46268 0.38965 0.88711 0.0
N332 N 0.52368 0.35393 0.88821 0.0
N333 N 0.38922 0.37925 0.77522 0.0
C334 C 0.48662 0.35439 0.87152 0.0
C335 C 0.41723 0.36675 0.81279 0.0
N336 N 0.48964 0.28121 0.83267 0.0
N337 N 0.39979 0.42034 0.88442 0.0
H338 H 0.38291 0.36261 0.73689 0.0
H339 H 0.37515 0.40896 0.77891 0.0
H340 H 0.40434 0.43814 0.92241 0.0
H341 H 0.3719 0.42104 0.8698 0.0
H342 H 0.51202 0.27264 0.86 0.0
H343 H 0.47918 0.25544 0.80779 0.0
H344 H 0.54285 0.33084 0.87317 0.0
H345 H 0.53636 0.37915 0.91148 0.0
C346 C 0.54775 0.69699 0.22546 0.0
C347 C 0.55965 0.68104 0.28054 0.0
C348 C 0.55015 0.60569 0.24818 0.0
C349 C 0.54012 0.62154 0.19214 0.0
N350 N 0.53252 0.6811 0.12447 0.0
N351 N 0.57643 0.62111 0.34368 0.0
C352 C 0.53991 0.66692 0.17986 0.0
C353 C 0.56193 0.63559 0.29178 0.0
N354 N 0.54308 0.74086 0.21745 0.0
N355 N 0.54813 0.56198 0.25971 0.0
H356 H 0.58422 0.64193 0.3775 0.0
H357 H 0.58305 0.5887 0.35233 0.0
H358 H 0.54234 0.53875 0.22782 0.0
H359 H 0.55027 0.54863 0.30125 0.0
H360 H 0.53071 0.75467 0.18062 0.0
H361 H 0.54946 0.76376 0.24954 0.0
H362 H 0.53595 0.7132 0.11082 0.0
H363 H 0.52485 0.66019 0.09067 0.0
C364 C 0.95494 0.13313 0.77157 0.0
C365 C 0.95243 0.17829 0.7587 0.0
C366 C 0.97434 0.16486 0.65937 0.0
C367 C 0.97356 0.1194 0.6708 0.0
N368 N 0.9578 0.05941 0.73421 0.0
N369 N 0.95585 0.2375 0.68996 0.0
C370 C 0.96263 0.10325 0.72606 0.0
C371 C 0.96109 0.19432 0.70244 0.0
N372 N 0.95045 0.11887 0.82755 0.0
N373 N 0.98887 0.17983 0.60808 0.0
H374 H 0.94732 0.26015 0.72104 0.0
H375 H 0.95753 0.25047 0.64818 0.0
H376 H 0.99879 0.15912 0.57561 0.0
H377 H 0.99387 0.21261 0.59937 0.0
H378 H 0.95629 0.08713 0.84094 0.0
H379 H 0.94366 0.13955 0.86192 0.0
H380 H 0.94566 0.04597 0.77127 0.0
H381 H 0.963 0.03634 0.70193 0.0
C382 C 0.45781 0.39094 0.30649 0.0
C383 C 0.4425 0.34934 0.2935 0.0
C384 C 0.44704 0.36473 0.18924 0.0
C385 C 0.46559 0.40459 0.20227 0.0
N386 N 0.49585 0.45129 0.2729 0.0
N387 N 0.4291 0.29297 0.22335 0.0
C388 C 0.47303 0.41652 0.26083 0.0
C389 C 0.43909 0.33509 0.23505 0.0
N390 N 0.45665 0.4067 0.36207 0.0
N391 N 0.43534 0.35607 0.13364 0.0
H392 H 0.42315 0.27027 0.25587 0.0
H393 H 0.43005 0.27949 0.1818 0.0
H394 H 0.43965 0.37739 0.09893 0.0
H395 H 0.41819 0.32969 0.12287 0.0
H396 H 0.46365 0.43868 0.37279 0.0
H397 H 0.44548 0.38912 0.39682 0.0
H398 H 0.50537 0.45879 0.31467 0.0
H399 H 0.5084 0.47012 0.24056 0.0
C400 C 0.01857 0.84887 0.75817 0.0
C401 C 0.05703 0.83826 0.76771 0.0
C402 C 0.075 0.88087 0.68205 0.0
C403 C 0.03717 0.89548 0.67661 0.0
N404 N 0.97366 0.89848 0.71373 0.0
N405 N 0.12268 0.84753 0.74365 0.0
C406 C 0.00902 0.88064 0.71557 0.0
C407 C 0.08552 0.85505 0.73087 0.0
N408 N 0.99121 0.82807 0.78937 0.0
N409 N 0.10054 0.89049 0.63954 0.0
H410 H 0.13151 0.82796 0.77832 0.0
H411 H 0.14481 0.86312 0.72255 0.0
H412 H 0.09378 0.90902 0.60283 0.0
H413 H 0.12747 0.87699 0.63792 0.0
H414 H 0.96251 0.83098 0.78026 0.0
H415 H 0.9973 0.80484 0.82129 0.0
H416 H 0.9532 0.89254 0.74507 0.0
H417 H 0.96562 0.92226 0.68362 0.0
loop_
_geom_bond_atom_site_label_1
_geom_bond_atom_site_label_2
_geom_bond_distance
_geom_bond_site_symmetry_2
_ccdc_geom_bond_type
C0 C1 1.386 . S
C0 C2 1.397 . S
C0 H24 0.931 . S
C1 C0 1.386 . S
C1 C5 1.397 . S
C2 C0 1.397 . S
C2 C3 1.384 . S
C2 H25 0.930 . S
C3 C2 1.384 . S
C3 C4 1.377 . S
C3 C6 1.481 . S
C4 C3 1.377 . S
C4 C5 1.389 . S
C4 H26 0.929 . S
C5 C1 1.397 . S
C5 C4 1.389 . S
C5 H27 0.931 . S
C6 C3 1.481 . S
C6 C7 1.387 . S
C6 C11 1.390 1_556 S
C7 C6 1.387 . S
C7 C8 1.401 1_556 S
C7 H28 0.930 . S
C8 C7 1.401 1_554 S
C8 C9 1.376 . S
C8 C17 1.511 . S
C9 C8 1.376 . S
C9 C10 1.392 . S
C9 H30 0.931 . S
C10 C9 1.392 . S
C10 C11 1.361 . S
C10 C12 1.500 . S
C11 C6 1.390 1_554 S
C11 C10 1.361 . S
C11 H29 0.931 . S
C12 C10 1.500 . S
C12 C13 1.371 . S
C12 C14 1.365 . S
C13 C12 1.371 . S
C13 C23 1.386 . S
C13 H31 0.931 . S
C14 C12 1.365 . S
C14 C15 1.409 . S
C14 H32 0.929 . S
C15 C14 1.409 . S
C15 C16 1.380 . S
C15 H33 0.930 . S
C16 C15 1.380 . S
C16 C23 1.357 . S
C17 C8 1.511 . S
C17 C18 1.341 1_554 S
C17 C19 1.371 . S
C18 C17 1.341 1_556 S
C18 C22 1.394 . S
C18 H34 0.930 . S
C19 C17 1.371 . S
C19 C20 1.392 . S
C19 H35 0.931 . S
C20 C19 1.392 . S
C20 C21 1.331 . S
C20 H38 0.932 . S
C21 C20 1.331 . S
C21 C22 1.336 1_554 S
C22 C18 1.394 . S
C22 C21 1.336 1_556 S
C22 H37 0.929 . S
C23 C13 1.386 . S
C23 C16 1.357 . S
C23 H36 0.928 . S
H24 C0 0.931 . S
H25 C2 0.930 . S
H26 C4 0.929 . S
H27 C5 0.931 . S
H28 C7 0.930 . S
H29 C11 0.931 . S
H30 C9 0.931 . S
H31 C13 0.931 . S
H32 C14 0.929 . S
H33 C15 0.930 . S
H34 C18 0.930 . S
H35 C19 0.931 . S
H36 C23 0.928 . S
H37 C22 0.929 . S
H38 C20 0.932 . S
C39 C40 1.386 . S
C39 C41 1.397 . S
C39 H63 0.931 . S
C40 C39 1.386 . S
C40 C44 1.397 . S
C41 C39 1.397 . S
C41 C42 1.384 . S
C41 H64 0.930 . S
C42 C41 1.384 . S
C42 C43 1.377 . S
C42 C45 1.481 . S
C43 C42 1.377 . S
C43 C44 1.389 . S
C43 H65 0.929 . S
C44 C40 1.397 . S
C44 C43 1.389 . S
C44 H66 0.931 . S
C45 C42 1.481 . S
C45 C46 1.387 . S
C45 C50 1.390 . S
C46 C45 1.387 . S
C46 C47 1.401 . S
C46 H67 0.930 . S
C47 C46 1.401 . S
C47 C48 1.376 . S
C47 C56 1.511 . S
C48 C47 1.376 . S
C48 C49 1.392 . S
C48 H69 0.931 . S
C49 C48 1.392 . S
C49 C50 1.361 . S
C49 C51 1.500 . S
C50 C45 1.390 . S
C50 C49 1.361 . S
C50 H68 0.931 . S
C51 C49 1.500 . S
C51 C52 1.371 . S
C51 C53 1.365 . S
C52 C51 1.371 . S
C52 C62 1.386 . S
C52 H70 0.931 . S
C53 C51 1.365 . S
C53 C54 1.409 . S
C53 H71 0.929 . S
C54 C53 1.409 . S
C54 C55 1.380 . S
C54 H72 0.930 . S
C55 C54 1.380 . S
C55 C62 1.357 . S
C56 C47 1.511 . S
C56 C57 1.341 . S
C56 C58 1.371 . S
C57 C56 1.341 . S
C57 C61 1.394 . S
C57 H73 0.930 . S
C58 C56 1.371 . S
C58 C59 1.392 . S
C58 H74 0.931 . S
C59 C58 1.392 . S
C59 C60 1.331 . S
C59 H77 0.932 . S
C60 C59 1.331 . S
C60 C61 1.336 . S
C61 C57 1.394 . S
C61 C60 1.336 . S
C61 H76 0.929 . S
C62 C52 1.386 . S
C62 C55 1.357 . S
C62 H75 0.928 . S
H63 C39 0.931 . S
H64 C41 0.930 . S
H65 C43 0.929 . S
H66 C44 0.931 . S
H67 C46 0.930 . S
H68 C50 0.931 . S
H69 C48 0.931 . S
H70 C52 0.931 . S
H71 C53 0.929 . S
H72 C54 0.930 . S
H73 C57 0.930 . S
H74 C58 0.931 . S
H75 C62 0.928 . S
H76 C61 0.929 . S
H77 C59 0.932 . S
C78 C79 1.386 . S
C78 C80 1.397 . S
C78 H102 0.931 . S
C79 C78 1.386 . S
C79 C83 1.397 . S
C80 C78 1.397 . S
C80 C81 1.384 . S
C80 H103 0.930 . S
C81 C80 1.384 . S
C81 C82 1.377 . S
C81 C84 1.481 . S
C82 C81 1.377 . S
C82 C83 1.389 . S
C82 H104 0.929 . S
C83 C79 1.397 . S
C83 C82 1.389 . S
C83 H105 0.931 . S
C84 C81 1.481 . S
C84 C85 1.387 . S
C84 C89 1.390 . S
C85 C84 1.387 . S
C85 C86 1.401 . S
C85 H106 0.930 . S
C86 C85 1.401 . S
C86 C87 1.376 1_554 S
C86 C95 1.511 . S
C87 C86 1.376 1_556 S
C87 C88 1.392 . S
C87 H108 0.931 . S
C88 C87 1.392 . S
C88 C89 1.361 1_556 S
C88 C90 1.500 . S
C89 C84 1.390 . S
C89 C88 1.361 1_554 S
C89 H107 0.931 . S
C90 C88 1.500 . S
C90 C91 1.371 . S
C90 C92 1.365 . S
C91 C90 1.371 . S
C91 C101 1.386 . S
C91 H109 0.931 . S
C92 C90 1.365 . S
C92 C93 1.409 . S
C92 H110 0.929 . S
C93 C92 1.409 . S
C93 C94 1.380 . S
C93 H111 0.930 . S
C94 C93 1.380 . S
C94 C101 1.357 . S
C95 C86 1.511 . S
C95 C96 1.341 . S
C95 C97 1.371 1_554 S
C96 C95 1.341 . S
C96 C100 1.394 . S
C96 H112 0.930 . S
C97 C95 1.371 1_556 S
C97 C98 1.392 . S
C97 H113 0.931 . S
C98 C97 1.392 . S
C98 C99 1.331 1_556 S
C98 H116 0.932 . S
C99 C98 1.331 1_554 S
C99 C100 1.336 . S
C100 C96 1.394 . S
C100 C99 1.336 . S
C100 H115 0.929 . S
C101 C91 1.386 . S
C101 C94 1.357 . S
C101 H114 0.928 . S
H102 C78 0.931 . S
H103 C80 0.930 . S
H104 C82 0.929 . S
H105 C83 0.931 . S
H106 C85 0.930 . S
H107 C89 0.931 . S
H108 C87 0.931 . S
H109 C91 0.931 . S
H110 C92 0.929 . S
H111 C93 0.930 . S
H112 C96 0.930 . S
H113 C97 0.931 . S
H114 C101 0.928 . S
H115 C100 0.929 . S
H116 C98 0.932 . S
C117 C118 1.386 . S
C117 C119 1.397 . S
C117 H141 0.931 . S
C118 C117 1.386 . S
C118 C122 1.397 . S
C119 C117 1.397 . S
C119 C120 1.384 . S
C119 H142 0.930 . S
C120 C119 1.384 . S
C120 C121 1.377 . S
C120 C123 1.481 . S
C121 C120 1.377 . S
C121 C122 1.389 . S
C121 H143 0.929 . S
C122 C118 1.397 . S
C122 C121 1.389 . S
C122 H144 0.931 . S
C123 C120 1.481 . S
C123 C124 1.387 . S
C123 C128 1.390 . S
C124 C123 1.387 . S
C124 C125 1.401 . S
C124 H145 0.930 . S
C125 C124 1.401 . S
C125 C126 1.376 . S
C125 C134 1.511 . S
C126 C125 1.376 . S
C126 C127 1.392 . S
C126 H147 0.931 . S
C127 C126 1.392 . S
C127 C128 1.361 . S
C127 C129 1.500 . S
C128 C123 1.390 . S
C128 C127 1.361 . S
C128 H146 0.931 . S
C129 C127 1.500 . S
C129 C130 1.371 . S
C129 C131 1.365 . S
C130 C129 1.371 . S
C130 C140 1.386 . S
C130 H148 0.931 . S
C131 C129 1.365 . S
C131 C132 1.409 . S
C131 H149 0.929 . S
C132 C131 1.409 . S
C132 C133 1.380 . S
C132 H150 0.930 . S
C133 C132 1.380 . S
C133 C140 1.357 . S
C134 C125 1.511 . S
C134 C135 1.341 . S
C134 C136 1.371 . S
C135 C134 1.341 . S
C135 C139 1.394 . S
C135 H151 0.930 . S
C136 C134 1.371 . S
C136 C137 1.392 . S
C136 H152 0.931 . S
C137 C136 1.392 . S
C137 C138 1.331 . S
C137 H155 0.932 . S
C138 C137 1.331 . S
C138 C139 1.336 . S
C139 C135 1.394 . S
C139 C138 1.336 . S
C139 H154 0.929 . S
C140 C130 1.386 . S
C140 C133 1.357 . S
C140 H153 0.928 . S
H141 C117 0.931 . S
H142 C119 0.930 . S
H143 C121 0.929 . S
H144 C122 0.931 . S
H145 C124 0.930 . S
H146 C128 0.931 . S
H147 C126 0.931 . S
H148 C130 0.931 . S
H149 C131 0.929 . S
H150 C132 0.930 . S
H151 C135 0.930 . S
H152 C136 0.931 . S
H153 C140 0.928 . S
H154 C139 0.929 . S
H155 C137 0.932 . S
O156 Zn157 1.953 1_565 S
O156 C172 1.225 . S
Zn157 O156 1.953 1_545 S
Zn157 O158 1.949 1_655 S
Zn157 O164 1.919 . S
Zn157 O169 1.924 . S
O158 Zn157 1.949 1_455 S
O158 Zn159 1.923 . S
O158 Zn160 1.950 1_445 S
O158 Zn161 1.945 . S
Zn159 O158 1.923 . S
Zn159 O162 1.933 . S
Zn159 O165 1.941 . S
Zn159 O166 1.965 1_545 S
Zn160 O158 1.950 1_665 S
Zn160 O167 1.938 1_655 S
Zn160 O168 1.906 1_655 S
Zn160 O178 1.953 . S
Zn161 O158 1.945 . S
Zn161 O163 1.932 . S
Zn161 O170 1.977 1_545 S
Zn161 O171 1.910 1_455 S
O162 Zn159 1.933 . S
O162 C173 1.226 . S
O163 Zn161 1.932 . S
O163 C173 1.307 . S
O164 Zn157 1.919 . S
O164 C175 1.253 . S
O165 Zn159 1.941 . S
O165 C175 1.283 1_455 S
O166 Zn159 1.965 1_565 S
O166 C174 1.303 . S
O167 Zn160 1.938 1_455 S
O167 C174 1.247 . S
O168 Zn160 1.906 1_455 S
O168 C176 1.304 . S
O169 Zn157 1.924 . S
O169 C177 1.311 . S
O170 Zn161 1.977 1_565 S
O170 C176 1.272 . S
O171 Zn161 1.910 1_655 S
O171 C177 1.231 . S
C172 O156 1.225 . S
C172 O178 1.298 . S
C173 O162 1.226 . S
C173 O163 1.307 . S
C174 O166 1.303 . S
C174 O167 1.247 . S
C175 O164 1.253 . S
C175 O165 1.283 1_655 S
C176 O168 1.304 . S
C176 O170 1.272 . S
C177 O169 1.311 . S
C177 O171 1.231 . S
O178 Zn160 1.953 . S
O178 C172 1.298 . S
O179 Zn180 1.953 . S
O179 C195 1.225 . S
Zn180 O179 1.953 . S
Zn180 O181 1.949 . S
Zn180 O187 1.919 1_554 S
Zn180 O192 1.924 . S
O181 Zn180 1.949 . S
O181 Zn182 1.923 1_554 S
O181 Zn183 1.950 . S
O181 Zn184 1.945 . S
Zn182 O181 1.923 1_556 S
Zn182 O185 1.933 . S
Zn182 O188 1.941 . S
Zn182 O189 1.965 . S
Zn183 O181 1.950 . S
Zn183 O190 1.938 1_554 S
Zn183 O191 1.906 . S
Zn183 O201 1.953 . S
Zn184 O181 1.945 . S
Zn184 O186 1.932 . S
Zn184 O193 1.977 . S
Zn184 O194 1.910 . S
O185 Zn182 1.933 . S
O185 C196 1.226 1_556 S
O186 Zn184 1.932 . S
O186 C196 1.307 . S
O187 Zn180 1.919 1_556 S
O187 C198 1.253 . S
O188 Zn182 1.941 . S
O188 C198 1.283 . S
O189 Zn182 1.965 . S
O189 C197 1.303 . S
O190 Zn183 1.938 1_556 S
O190 C197 1.247 . S
O191 Zn183 1.906 . S
O191 C199 1.304 . S
O192 Zn180 1.924 . S
O192 C200 1.311 . S
O193 Zn184 1.977 . S
O193 C199 1.272 . S
O194 Zn184 1.910 . S
O194 C200 1.231 . S
C195 O179 1.225 . S
C195 O201 1.298 . S
C196 O185 1.226 1_554 S
C196 O186 1.307 . S
C197 O189 1.303 . S
C197 O190 1.247 . S
C198 O187 1.253 . S
C198 O188 1.283 . S
C199 O191 1.304 . S
C199 O193 1.272 . S
C200 O192 1.311 . S
C200 O194 1.231 . S
O201 Zn183 1.953 . S
O201 C195 1.298 . S
C202 C203 1.363 . S
C202 C208 1.379 . S
C202 N210 1.356 . S
C203 C202 1.363 . S
C203 C209 1.363 . S
C204 C205 1.363 . S
C204 C209 1.379 . S
C204 N211 1.356 . S
C205 C204 1.363 . S
C205 C208 1.363 . S
N206 C208 1.356 . S
N206 H218 0.984 . S
N206 H219 0.985 . S
N207 C209 1.356 . S
N207 H212 0.984 . S
N207 H213 0.985 . S
C208 C202 1.379 . S
C208 C205 1.363 . S
C208 N206 1.356 . S
C209 C203 1.363 . S
C209 C204 1.379 . S
C209 N207 1.356 . S
N210 C202 1.356 . S
N210 H216 0.984 . S
N210 H217 0.984 . S
N211 C204 1.356 . S
N211 H214 0.984 . S
N211 H215 0.985 . S
H212 N207 0.984 . S
H213 N207 0.985 . S
H214 N211 0.984 . S
H215 N211 0.985 . S
H216 N210 0.984 . S
H217 N210 0.984 . S
H218 N206 0.984 . S
H219 N206 0.985 . S
C220 C221 1.363 . S
C220 C226 1.379 . S
C220 N228 1.356 . S
C221 C220 1.363 . S
C221 C227 1.363 1_554 S
C222 C223 1.363 1_556 S
C222 C227 1.379 . S
C222 N229 1.356 . S
C223 C222 1.363 1_554 S
C223 C226 1.363 . S
N224 C226 1.356 . S
N224 H236 0.984 . S
N224 H237 0.985 . S
N225 C227 1.356 . S
N225 H230 0.984 . S
N225 H231 0.985 . S
C226 C220 1.379 . S
C226 C223 1.363 . S
C226 N224 1.356 . S
C227 C221 1.363 1_556 S
C227 C222 1.379 . S
C227 N225 1.356 . S
N228 C220 1.356 . S
N228 H234 0.984 . S
N228 H235 0.984 . S
N229 C222 1.356 . S
N229 H232 0.984 . S
N229 H233 0.985 . S
H230 N225 0.984 . S
H231 N225 0.985 . S
H232 N229 0.984 . S
H233 N229 0.985 . S
H234 N228 0.984 . S
H235 N228 0.984 . S
H236 N224 0.984 . S
H237 N224 0.985 . S
C238 C239 1.363 . S
C238 C244 1.379 . S
C238 N246 1.356 . S
C239 C238 1.363 . S
C239 C245 1.363 . S
C240 C241 1.363 . S
C240 C245 1.379 . S
C240 N247 1.356 . S
C241 C240 1.363 . S
C241 C244 1.363 . S
N242 C244 1.356 . S
N242 H254 0.984 1_565 S
N242 H255 0.985 . S
N243 C245 1.356 . S
N243 H248 0.984 . S
N243 H249 0.985 . S
C244 C238 1.379 . S
C244 C241 1.363 . S
C244 N242 1.356 . S
C245 C239 1.363 . S
C245 C240 1.379 . S
C245 N243 1.356 . S
N246 C238 1.356 . S
N246 H252 0.984 . S
N246 H253 0.984 . S
N247 C240 1.356 . S
N247 H250 0.984 . S
N247 H251 0.985 . S
H248 N243 0.984 . S
H249 N243 0.985 . S
H250 N247 0.984 . S
H251 N247 0.985 . S
H252 N246 0.984 . S
H253 N246 0.984 . S
H254 N242 0.984 1_545 S
H255 N242 0.985 . S
C256 C257 1.363 . S
C256 C262 1.379 . S
C256 N264 1.356 . S
C257 C256 1.363 . S
C257 C263 1.363 1_554 S
C258 C259 1.363 1_556 S
C258 C263 1.379 . S
C258 N265 1.356 . S
C259 C258 1.363 1_554 S
C259 C262 1.363 . S
N260 C262 1.356 . S
N260 H272 0.984 . S
N260 H273 0.985 . S
N261 C263 1.356 . S
N261 H266 0.984 . S
N261 H267 0.985 . S
C262 C256 1.379 . S
C262 C259 1.363 . S
C262 N260 1.356 . S
C263 C257 1.363 1_556 S
C263 C258 1.379 . S
C263 N261 1.356 . S
N264 C256 1.356 . S
N264 H270 0.984 . S
N264 H271 0.984 . S
N265 C258 1.356 . S
N265 H268 0.984 . S
N265 H269 0.985 . S
H266 N261 0.984 . S
H267 N261 0.985 . S
H268 N265 0.984 . S
H269 N265 0.985 . S
H270 N264 0.984 . S
H271 N264 0.984 . S
H272 N260 0.984 . S
H273 N260 0.985 . S
C274 C275 1.363 . S
C274 C280 1.379 . S
C274 N282 1.356 . S
C275 C274 1.363 . S
C275 C281 1.363 . S
C276 C277 1.363 . S
C276 C281 1.379 . S
C276 N283 1.356 . S
C277 C276 1.363 . S
C277 C280 1.363 . S
N278 C280 1.356 . S
N278 H290 0.984 . S
N278 H291 0.985 . S
N279 C281 1.356 . S
N279 H284 0.984 . S
N279 H285 0.985 . S
C280 C274 1.379 . S
C280 C277 1.363 . S
C280 N278 1.356 . S
C281 C275 1.363 . S
C281 C276 1.379 . S
C281 N279 1.356 . S
N282 C274 1.356 . S
N282 H288 0.984 . S
N282 H289 0.984 . S
N283 C276 1.356 . S
N283 H286 0.984 . S
N283 H287 0.985 . S
H284 N279 0.984 . S
H285 N279 0.985 . S
H286 N283 0.984 . S
H287 N283 0.985 . S
H288 N282 0.984 . S
H289 N282 0.984 . S
H290 N278 0.984 . S
H291 N278 0.985 . S
C292 C293 1.363 . S
C292 C298 1.379 . S
C292 N300 1.356 . S
C293 C292 1.363 . S
C293 C299 1.363 . S
C294 C295 1.363 . S
C294 C299 1.379 . S
C294 N301 1.356 . S
C295 C294 1.363 . S
C295 C298 1.363 . S
N296 C298 1.356 . S
N296 H308 0.984 . S
N296 H309 0.985 . S
N297 C299 1.356 . S
N297 H302 0.984 . S
N297 H303 0.985 . S
C298 C292 1.379 . S
C298 C295 1.363 . S
C298 N296 1.356 . S
C299 C293 1.363 . S
C299 C294 1.379 . S
C299 N297 1.356 . S
N300 C292 1.356 . S
N300 H306 0.984 . S
N300 H307 0.984 . S
N301 C294 1.356 . S
N301 H304 0.984 . S
N301 H305 0.985 . S
H302 N297 0.984 . S
H303 N297 0.985 . S
H304 N301 0.984 . S
H305 N301 0.985 . S
H306 N300 0.984 . S
H307 N300 0.984 . S
H308 N296 0.984 . S
H309 N296 0.985 . S
C310 C311 1.363 . S
C310 C316 1.379 . S
C310 N318 1.356 . S
C311 C310 1.363 . S
C311 C317 1.363 . S
C312 C313 1.363 . S
C312 C317 1.379 . S
C312 N319 1.356 . S
C313 C312 1.363 . S
C313 C316 1.363 . S
N314 C316 1.356 . S
N314 H326 0.984 . S
N314 H327 0.985 . S
N315 C317 1.356 . S
N315 H320 0.984 . S
N315 H321 0.985 . S
C316 C310 1.379 . S
C316 C313 1.363 . S
C316 N314 1.356 . S
C317 C311 1.363 . S
C317 C312 1.379 . S
C317 N315 1.356 . S
N318 C310 1.356 . S
N318 H324 0.984 . S
N318 H325 0.984 . S
N319 C312 1.356 . S
N319 H322 0.984 . S
N319 H323 0.985 . S
H320 N315 0.984 . S
H321 N315 0.985 . S
H322 N319 0.984 . S
H323 N319 0.985 . S
H324 N318 0.984 . S
H325 N318 0.984 . S
H326 N314 0.984 . S
H327 N314 0.985 . S
C328 C329 1.363 . S
C328 C334 1.379 . S
C328 N336 1.356 . S
C329 C328 1.363 . S
C329 C335 1.363 . S
C330 C331 1.363 . S
C330 C335 1.379 . S
C330 N337 1.356 . S
C331 C330 1.363 . S
C331 C334 1.363 . S
N332 C334 1.356 . S
N332 H344 0.984 . S
N332 H345 0.985 . S
N333 C335 1.356 . S
N333 H338 0.984 . S
N333 H339 0.985 . S
C334 C328 1.379 . S
C334 C331 1.363 . S
C334 N332 1.356 . S
C335 C329 1.363 . S
C335 C330 1.379 . S
C335 N333 1.356 . S
N336 C328 1.356 . S
N336 H342 0.984 . S
N336 H343 0.984 . S
N337 C330 1.356 . S
N337 H340 0.984 . S
N337 H341 0.985 . S
H338 N333 0.984 . S
H339 N333 0.985 . S
H340 N337 0.984 . S
H341 N337 0.985 . S
H342 N336 0.984 . S
H343 N336 0.984 . S
H344 N332 0.984 . S
H345 N332 0.985 . S
C346 C347 1.363 . S
C346 C352 1.379 . S
C346 N354 1.356 . S
C347 C346 1.363 . S
C347 C353 1.363 . S
C348 C349 1.363 . S
C348 C353 1.379 . S
C348 N355 1.356 . S
C349 C348 1.363 . S
C349 C352 1.363 . S
N350 C352 1.356 . S
N350 H362 0.984 . S
N350 H363 0.985 . S
N351 C353 1.356 . S
N351 H356 0.984 . S
N351 H357 0.985 . S
C352 C346 1.379 . S
C352 C349 1.363 . S
C352 N350 1.356 . S
C353 C347 1.363 . S
C353 C348 1.379 . S
C353 N351 1.356 . S
N354 C346 1.356 . S
N354 H360 0.984 . S
N354 H361 0.984 . S
N355 C348 1.356 . S
N355 H358 0.984 . S
N355 H359 0.985 . S
H356 N351 0.984 . S
H357 N351 0.985 . S
H358 N355 0.984 . S
H359 N355 0.985 . S
H360 N354 0.984 . S
H361 N354 0.984 . S
H362 N350 0.984 . S
H363 N350 0.985 . S
C364 C365 1.363 . S
C364 C370 1.379 . S
C364 N372 1.356 . S
C365 C364 1.363 . S
C365 C371 1.363 . S
C366 C367 1.363 1_455 S
C366 C371 1.379 1_455 S
C366 N373 1.356 . S
C367 C366 1.363 1_655 S
C367 C370 1.363 . S
N368 C370 1.356 . S
N368 H380 0.984 . S
N368 H381 0.985 . S
N369 C371 1.356 1_455 S
N369 H374 0.984 1_455 S
N369 H375 0.985 . S
C370 C364 1.379 . S
C370 C367 1.363 . S
C370 N368 1.356 . S
C371 C365 1.363 . S
C371 C366 1.379 1_655 S
C371 N369 1.356 1_655 S
N372 C364 1.356 . S
N372 H378 0.984 . S
N372 H379 0.984 . S
N373 C366 1.356 . S
N373 H376 0.984 . S
N373 H377 0.985 . S
H374 N369 0.984 1_655 S
H375 N369 0.985 . S
H376 N373 0.984 . S
H377 N373 0.985 . S
H378 N372 0.984 . S
H379 N372 0.984 . S
H380 N368 0.984 . S
H381 N368 0.985 . S
C382 C383 1.363 . S
C382 C388 1.379 . S
C382 N390 1.356 . S
C383 C382 1.363 . S
C383 C389 1.363 . S
C384 C385 1.363 . S
C384 C389 1.379 . S
C384 N391 1.356 . S
C385 C384 1.363 . S
C385 C388 1.363 . S
N386 C388 1.356 . S
N386 H398 0.984 . S
N386 H399 0.985 . S
N387 C389 1.356 . S
N387 H392 0.984 . S
N387 H393 0.985 . S
C388 C382 1.379 . S
C388 C385 1.363 . S
C388 N386 1.356 . S
C389 C383 1.363 . S
C389 C384 1.379 . S
C389 N387 1.356 . S
N390 C382 1.356 . S
N390 H396 0.984 . S
N390 H397 0.984 . S
N391 C384 1.356 . S
N391 H394 0.984 . S
N391 H395 0.985 . S
H392 N387 0.984 . S
H393 N387 0.985 . S
H394 N391 0.984 . S
H395 N391 0.985 . S
H396 N390 0.984 . S
H397 N390 0.984 . S
H398 N386 0.984 . S
H399 N386 0.985 . S
C400 C401 1.363 . S
C400 C406 1.379 . S
C400 N408 1.356 . S
C401 C400 1.363 . S
C401 C407 1.363 . S
C402 C403 1.363 . S
C402 C407 1.379 . S
C402 N409 1.356 . S
C403 C402 1.363 . S
C403 C406 1.363 . S
N404 C406 1.356 1_655 S
N404 H416 0.984 . S
N404 H417 0.985 . S
N405 C407 1.356 . S
N405 H410 0.984 . S
N405 H411 0.985 . S
C406 C400 1.379 . S
C406 C403 1.363 . S
C406 N404 1.356 1_455 S
C407 C401 1.363 . S
C407 C402 1.379 . S
C407 N405 1.356 . S
N408 C400 1.356 . S
N408 H414 0.990 . S
N408 H415 0.984 . S
N409 C402 1.356 . S
N409 H412 0.984 . S
N409 H413 0.985 . S
H410 N405 0.984 . S
H411 N405 0.985 . S
H412 N409 0.984 . S
H413 N409 0.985 . S
H414 N408 0.990 . S
H415 N408 0.984 . S
H416 N404 0.984 . S
H417 N404 0.985 . S
C205 C173 1.696 . S
C203 C138 1.648 . S
C221 C21 1.667 . S
C223 C196 1.695 . S
C239 C60 1.671 . S
C241 C172 1.703 . S
C257 C99 1.653 . S
C259 C195 1.704 . S
C277 C176 1.704 . S
C275 C16 1.724 . S
C295 C198 1.685 . S
C293 C40 1.660 . S
C311 C79 1.735 . S
C313 C177 1.685 . S
C329 C133 1.638 . S
C331 C197 1.634 . S
C349 C200 1.685 . S
C347 C55 1.737 . S
C367 C175 1.685 . S
C365 C94 1.657 . S
C385 C199 1.704 . S
C383 C118 1.722 . S
C401 C1 1.641 . S
C403 C174 1.634 . S
