# Generated by pormake.
# Topology rtl, (3,6)-cn, num edge types: 1
# Building blocks:
#     Node 0, Type 0, BuildingBlock: VETTIZ_charged_linker_0, # of connection points: 3
#     Node 1, Type 0, BuildingBlock: VETTIZ_charged_linker_0, # of connection points: 3
#     Node 2, Type 0, BuildingBlock: VETTIZ_charged_linker_0, # of connection points: 3
#     Node 3, Type 0, BuildingBlock: VETTIZ_charged_linker_0, # of connection points: 3
#     Node 4, Type 1, BuildingBlock: VOLQOD_clean_sbu_1, # of connection points: 6
#     Node 5, Type 1, BuildingBlock: VOLQOD_clean_sbu_1, # of connection points: 6
#     Edge 6, Type (0, 1), BuildingBlock: EZIPEK_clean_linker_0, # of connection points: 2
#     Edge 7, Type (0, 1), BuildingBlock: EZIPEK_clean_linker_0, # of connection points: 2
#     Edge 8, Type (0, 1), BuildingBlock: EZIPEK_clean_linker_0, # of connection points: 2
#     Edge 9, Type (0, 1), BuildingBlock: EZIPEK_clean_linker_0, # of connection points: 2
#     Edge 10, Type (0, 1), BuildingBlock: EZIPEK_clean_linker_0, # of connection points: 2
#     Edge 11, Type (0, 1), BuildingBlock: EZIPEK_clean_linker_0, # of connection points: 2
#     Edge 12, Type (0, 1), BuildingBlock: EZIPEK_clean_linker_0, # of connection points: 2
#     Edge 13, Type (0, 1), BuildingBlock: EZIPEK_clean_linker_0, # of connection points: 2
#     Edge 14, Type (0, 1), BuildingBlock: EZIPEK_clean_linker_0, # of connection points: 2
#     Edge 15, Type (0, 1), BuildingBlock: EZIPEK_clean_linker_0, # of connection points: 2
#     Edge 16, Type (0, 1), BuildingBlock: EZIPEK_clean_linker_0, # of connection points: 2
#     Edge 17, Type (0, 1), BuildingBlock: EZIPEK_clean_linker_0, # of connection points: 2
# Relax obj value: 0.081
# Max RMSD: 0.157
# Mean RMSD: 0.091
data_MOF--net-rtl--node1-VOLQOD_clean_sbu_1--node2-VETTIZ_charged_linker_0--edge1-EZIPEK_clean_linker_0
_symmetry_space_group_name_H-M    P1
_symmetry_Int_Tables_number       1
_symmetry_cell_setting            triclinic
loop_
_symmetry_equiv_pos_as_xyz
'x, y, z'
_cell_length_a     35.011451
_cell_length_b     30.118764
_cell_length_c     23.086711
_cell_angle_alpha  89.620155
_cell_angle_beta   90.330202
_cell_angle_gamma 90.000109
loop_
_atom_site_label
_atom_site_type_symbol
_atom_site_fract_x
_atom_site_fract_y
_atom_site_fract_z
_atom_type_partial_charge
C0 C 0.09054 0.77475 0.82917 0.0
C1 C 0.06096 0.80619 0.82463 0.0
C2 C 0.03814 0.81505 0.8731 0.0
C3 C 0.07778 0.76678 0.93191 0.0
C4 C 0.09873 0.75576 0.88351 0.0
C5 C 0.13164 0.72539 0.89833 0.0
H6 H 0.24893 0.6398 0.10489 0.0
C7 C 0.09672 0.74707 0.98306 0.0
C8 C 0.12825 0.72255 0.96395 0.0
H9 H 0.2552 0.62134 0.92002 0.0
H10 H 0.19567 0.66154 0.90678 0.0
H11 H 0.22891 0.73576 0.10215 0.0
H12 H 0.15338 0.62378 0.11556 0.0
H13 H 0.14048 0.66343 0.16798 0.0
H14 H 0.18758 0.63952 0.17 0.0
H15 H 0.21854 0.71062 0.17084 0.0
H16 H 0.18946 0.7549 0.14116 0.0
C17 C 0.1691 0.74849 0.87932 0.0
C18 C 0.12443 0.67992 0.86927 0.0
C19 C 0.05563 0.79776 0.18171 0.0
C20 C 0.07475 0.79785 0.23526 0.0
C21 C 0.1079 0.77191 0.24263 0.0
C22 C 0.12268 0.74758 0.19632 0.0
C23 C 0.10483 0.75052 0.14169 0.0
C24 C 0.07184 0.7753 0.13518 0.0
C25 C 0.05996 0.78036 0.0729 0.0
C26 C 0.09077 0.75361 0.04311 0.0
C27 C 0.11657 0.73568 0.08362 0.0
C28 C 0.06148 0.8306 0.05657 0.0
C29 C 0.02017 0.7587 0.06536 0.0
C30 C 0.23698 0.644 0.0618 0.0
C31 C 0.25627 0.6278 0.01333 0.0
C32 C 0.24044 0.6338 0.95769 0.0
C33 C 0.20614 0.65722 0.9502 0.0
C34 C 0.18788 0.67506 -0.00112 0.0
C35 C 0.20287 0.6674 0.05362 0.0
C36 C 0.17983 0.68905 0.10025 0.0
C37 C 0.14807 0.71016 0.06463 0.0
C38 C 0.15333 0.70267 0.0052 0.0
C39 C 0.20532 0.72424 0.13064 0.0
C40 C 0.16454 0.65225 0.14106 0.0
H41 H 0.02809 0.80372 0.96206 0.0
H42 H 0.10805 0.76711 0.79202 0.0
H43 H 0.09333 0.67326 0.86414 0.0
H44 H 0.13528 0.65182 0.89571 0.0
H45 H 0.13742 0.67868 0.82553 0.0
H46 H 0.16899 0.78399 0.89238 0.0
H47 H 0.1724 0.74732 0.83153 0.0
H48 H 0.19487 0.73395 0.89938 0.0
H49 H 0.03047 0.81814 0.17486 0.0
H50 H 0.12305 0.77175 0.28368 0.0
H51 H 0.14833 0.729 0.20423 0.0
H52 H 0.07918 0.85 0.08753 0.0
H53 H 0.03252 0.84565 0.05608 0.0
H54 H 0.07524 0.83679 0.01428 0.0
H55 H 0.01866 0.72673 0.08969 0.0
H56 H 0.01364 0.75029 0.01985 0.0
H57 H 0.99734 0.7807 0.08207 0.0
H58 H 0.01485 0.83866 0.86993 0.0
C59 C 0.04608 0.79504 0.92652 0.0
C60 C 0.57678 0.72942 0.69467 0.0
C61 C 0.5453 0.69961 0.69538 0.0
C62 C 0.53282 0.68336 0.64085 0.0
C63 C 0.57605 0.73176 0.58969 0.0
C64 C 0.59091 0.7457 0.64181 0.0
C65 C 0.62402 0.77717 0.63342 0.0
H66 H 0.7407 0.88722 0.4473 0.0
C67 C 0.59721 0.75365 0.54265 0.0
C68 C 0.62519 0.78083 0.56762 0.0
H69 H 0.75141 0.87649 0.63318 0.0
H70 H 0.69214 0.8349 0.63758 0.0
H71 H 0.7245 0.7882 0.43209 0.0
H72 H 0.64549 0.89771 0.43839 0.0
H73 H 0.63095 0.86237 0.38195 0.0
H74 H 0.6771 0.88894 0.37858 0.0
H75 H 0.71877 0.82646 0.37277 0.0
H76 H 0.68901 0.77799 0.38012 0.0
C77 C 0.66055 0.75502 0.65865 0.0
C78 C 0.61373 0.82197 0.66169 0.0
C79 C 0.5684 0.71106 0.33571 0.0
C80 C 0.58431 0.72367 0.2827 0.0
C81 C 0.61021 0.75935 0.28033 0.0
C82 C 0.622 0.78045 0.33146 0.0
C83 C 0.60769 0.76542 0.38502 0.0
C84 C 0.58038 0.73231 0.38611 0.0
C85 C 0.5681 0.72051 0.44634 0.0
C86 C 0.59358 0.75079 0.48166 0.0
C87 C 0.61696 0.7767 0.44576 0.0
C88 C 0.57739 0.67066 0.45722 0.0
C89 C 0.52529 0.73293 0.4521 0.0
C90 C 0.72967 0.87665 0.48893 0.0
C91 C 0.75027 0.88509 0.53997 0.0
C92 C 0.73571 0.87029 0.59346 0.0
C93 C 0.70159 0.84595 0.59579 0.0
C94 C 0.68239 0.83556 0.54395 0.0
C95 C 0.69642 0.8511 0.49172 0.0
C96 C 0.67486 0.83302 0.44062 0.0
C97 C 0.64533 0.80437 0.47068 0.0
C98 C 0.64961 0.80625 0.53126 0.0
C99 C 0.703 0.80515 0.40397 0.0
C100 C 0.65621 0.87238 0.40761 0.0
H101 H 0.53555 0.68615 0.54983 0.0
H102 H 0.5916 0.73904 0.7337 0.0
H103 H 0.58403 0.83183 0.65 0.0
H104 H 0.63212 0.84954 0.64704 0.0
H105 H 0.61556 0.81952 0.70966 0.0
H106 H 0.65864 0.71817 0.65693 0.0
H107 H 0.66515 0.76435 0.70463 0.0
H108 H 0.68643 0.76323 0.63356 0.0
H109 H 0.54824 0.6838 0.33811 0.0
H110 H 0.62244 0.76947 0.23932 0.0
H111 H 0.64268 0.80658 0.32757 0.0
H112 H 0.60269 0.66 0.43186 0.0
H113 H 0.55306 0.64911 0.44443 0.0
H114 H 0.58534 0.66327 0.50266 0.0
H115 H 0.5183 0.76308 0.42599 0.0
H116 H 0.51722 0.74165 0.4968 0.0
H117 H 0.5066 0.70564 0.43658 0.0
H118 H 0.51299 0.65627 0.6366 0.0
C119 C 0.54709 0.69993 0.58885 0.0
C120 C 0.92135 0.23621 0.20647 0.0
C121 C 0.94882 0.20225 0.20927 0.0
C122 C 0.96928 0.19078 0.15946 0.0
C123 C 0.93112 0.24216 0.10278 0.0
C124 C 0.91277 0.25561 0.15253 0.0
C125 C 0.88184 0.28918 0.13978 0.0
H126 H 0.75781 0.37329 0.9438 0.0
C127 C 0.91217 0.26364 0.05283 0.0
C128 C 0.8835 0.29168 0.07391 0.0
H129 H 0.76463 0.40289 0.12631 0.0
H130 H 0.82402 0.3616 0.13414 0.0
H131 H 0.84517 0.39602 0.92179 0.0
H132 H 0.78742 0.27136 0.94763 0.0
H133 H 0.81742 0.26734 0.88676 0.0
H134 H 0.77957 0.30745 0.88642 0.0
H135 H 0.82117 0.36855 0.86332 0.0
H136 H 0.87047 0.3567 0.88133 0.0
C137 C 0.8931 0.33382 0.16818 0.0
C138 C 0.84346 0.26991 0.16146 0.0
C139 C 0.94176 0.2073 0.85205 0.0
C140 C 0.92512 0.21525 0.79775 0.0
C141 C 0.89726 0.24858 0.79126 0.0
C142 C 0.88459 0.27225 0.83962 0.0
C143 C 0.89995 0.26216 0.89462 0.0
C144 C 0.92889 0.23116 0.89972 0.0
C145 C 0.94168 0.22428 0.96121 0.0
C146 C 0.91554 0.25618 0.9925 0.0
C147 C 0.89078 0.27771 0.95348 0.0
C148 C 0.98412 0.2386 0.96599 0.0
C149 C 0.93379 0.17501 0.97773 0.0
C150 C 0.77224 0.37086 0.98534 0.0
C151 C 0.75626 0.39005 0.03486 0.0
C152 C 0.77625 0.38751 0.08796 0.0
C153 C 0.81048 0.36352 0.09242 0.0
C154 C 0.82494 0.34231 0.04316 0.0
C155 C 0.80686 0.34797 0.99027 0.0
C156 C 0.82835 0.32666 0.94166 0.0
C157 C 0.86144 0.30564 0.97456 0.0
C158 C 0.85863 0.31378 0.03427 0.0
C159 C 0.84189 0.36361 0.89941 0.0
C160 C 0.80198 0.29142 0.91365 0.0
H161 H 0.9766 0.19974 0.06947 0.0
H162 H 0.90557 0.24549 0.24474 0.0
H163 H 0.83957 0.23536 0.14571 0.0
H164 H 0.81837 0.28873 0.1462 0.0
H165 H 0.84265 0.26909 0.20955 0.0
H166 H 0.92456 0.33653 0.17431 0.0
H167 H 0.87972 0.33744 0.2114 0.0
H168 H 0.88534 0.36275 0.14071 0.0
H169 H 0.96328 0.18174 0.85762 0.0
H170 H 0.88436 0.25495 0.74926 0.0
H171 H 0.86248 0.29639 0.83266 0.0
H172 H 0.99042 0.26666 0.93593 0.0
H173 H 0.00357 0.21085 0.95487 0.0
H174 H 0.99169 0.25126 0.00942 0.0
H175 H 0.90838 0.16197 0.95416 0.0
H176 H 0.92672 0.17014 0.02381 0.0
H177 H 0.95844 0.15349 0.96675 0.0
H178 H 0.99073 0.16486 0.16141 0.0
C179 C 0.96085 0.2109 0.10627 0.0
C180 C 0.4108 0.28512 0.32687 0.0
C181 C 0.43992 0.31723 0.32341 0.0
C182 C 0.46065 0.32858 0.3734 0.0
C183 C 0.42082 0.28003 0.43078 0.0
C184 C 0.4016 0.26707 0.38126 0.0
C185 C 0.36964 0.23508 0.39468 0.0
H186 H 0.25757 0.13742 0.59789 0.0
C187 C 0.40244 0.25867 0.48089 0.0
C188 C 0.37271 0.23169 0.4604 0.0
H189 H 0.2464 0.12973 0.41208 0.0
H190 H 0.30534 0.17116 0.4002 0.0
H191 H 0.34929 0.12057 0.60383 0.0
H192 H 0.28062 0.23924 0.60059 0.0
H193 H 0.31593 0.24557 0.65423 0.0
H194 H 0.28171 0.20142 0.66103 0.0
H195 H 0.32385 0.13911 0.66644 0.0
H196 H 0.37143 0.15876 0.65041 0.0
C197 C 0.37857 0.19032 0.36517 0.0
C198 C 0.33161 0.25677 0.37476 0.0
C199 C 0.43902 0.31002 0.68146 0.0
C200 C 0.42518 0.29984 0.73669 0.0
C201 C 0.39889 0.26487 0.74377 0.0
C202 C 0.38471 0.24214 0.69534 0.0
C203 C 0.3971 0.25465 0.63967 0.0
C204 C 0.42483 0.28697 0.63382 0.0
C205 C 0.43531 0.29555 0.57195 0.0
C206 C 0.40834 0.26409 0.54115 0.0
C207 C 0.38564 0.24072 0.58081 0.0
C208 C 0.47777 0.28217 0.56383 0.0
C209 C 0.4262 0.34497 0.55804 0.0
C210 C 0.26832 0.14427 0.55483 0.0
C211 C 0.24782 0.13071 0.50579 0.0
C212 C 0.26211 0.14012 0.45021 0.0
C213 C 0.29607 0.1643 0.44355 0.0
C214 C 0.3155 0.17958 0.49304 0.0
C215 C 0.30195 0.16867 0.54751 0.0
C216 C 0.32572 0.18835 0.59519 0.0
C217 C 0.35566 0.21313 0.5605 0.0
C218 C 0.34939 0.20829 0.50062 0.0
C219 C 0.34341 0.14995 0.63137 0.0
C220 C 0.29989 0.22018 0.6301 0.0
H221 H 0.46788 0.3207 0.46352 0.0
H222 H 0.39472 0.27578 0.28864 0.0
H223 H 0.33147 0.29284 0.3849 0.0
H224 H 0.30639 0.2431 0.39695 0.0
H225 H 0.32747 0.25334 0.32726 0.0
H226 H 0.40978 0.18335 0.36628 0.0
H227 H 0.36933 0.1907 0.31906 0.0
H228 H 0.3653 0.16173 0.38748 0.0
H229 H 0.45961 0.3365 0.67535 0.0
H230 H 0.38839 0.2564 0.78648 0.0
H231 H 0.36388 0.21666 0.70292 0.0
H232 H 0.48685 0.25656 0.59604 0.0
H233 H 0.49705 0.31117 0.56902 0.0
H234 H 0.48301 0.26663 0.52126 0.0
H235 H 0.3995 0.35556 0.57993 0.0
H236 H 0.42088 0.35162 0.5117 0.0
H237 H 0.44958 0.36705 0.57317 0.0
H238 H 0.48336 0.35298 0.37115 0.0
C239 C 0.45151 0.30988 0.42693 0.0
O240 O 0.90636 0.00367 0.51436 0.0
Zn241 Zn 0.95399 0.04129 0.51382 0.0
O242 O 0.00054 0.00565 0.52002 0.0
Zn243 Zn 0.02891 0.02 0.59079 0.0
Zn244 Zn 0.98605 0.94323 0.52097 0.0
Zn245 Zn 0.0329 0.01691 0.45331 0.0
O246 O 0.08162 0.04386 0.57281 0.0
O247 O 0.08365 0.04122 0.47662 0.0
O248 O 0.95025 0.08262 0.58089 0.0
O249 O 0.00146 0.06744 0.6353 0.0
O250 O 0.03481 0.96552 0.64168 0.0
O251 O 0.00983 0.91143 0.58834 0.0
O252 O 0.00273 0.912 0.44893 0.0
O253 O 0.9538 0.0787 0.4418 0.0
O254 O 0.04222 0.96096 0.40908 0.0
O255 O 0.00903 0.06217 0.39976 0.0
C256 C 0.90137 0.96231 0.52305 0.0
C257 C 0.099 0.05009 0.52515 0.0
C258 C 0.02683 0.92469 0.63387 0.0
C259 C 0.97092 0.08923 0.62545 0.0
C260 C 0.02703 0.92257 0.4105 0.0
C261 C 0.97778 0.08371 0.40114 0.0
O262 O 0.92945 0.93576 0.52833 0.0
O263 O 0.59916 0.50693 0.0083 0.0
Zn264 Zn 0.55178 0.5446 0.00214 0.0
O265 O 0.50561 0.50909 0.01466 0.0
Zn266 Zn 0.47056 0.51976 0.95088 0.0
Zn267 Zn 0.51931 0.44642 0.01695 0.0
Zn268 Zn 0.48056 0.52546 0.08692 0.0
O269 O 0.41943 0.53987 0.97773 0.0
O270 O 0.42698 0.54788 0.07272 0.0
O271 O 0.55062 0.57784 0.92535 0.0
O272 O 0.48987 0.56856 0.9005 0.0
O273 O 0.46315 0.46495 0.90289 0.0
O274 O 0.49692 0.4136 0.95016 0.0
O275 O 0.49858 0.4168 0.08792 0.0
O276 O 0.55662 0.59022 0.06449 0.0
O277 O 0.47569 0.47244 0.14022 0.0
O278 O 0.50966 0.57451 0.12616 0.0
C279 C 0.60432 0.46528 0.01388 0.0
C280 C 0.40667 0.55079 0.02698 0.0
C281 C 0.47514 0.42523 0.90855 0.0
C282 C 0.52217 0.58684 0.89266 0.0
C283 C 0.48281 0.43131 0.13351 0.0
C284 C 0.53854 0.59746 0.11111 0.0
O285 O 0.57633 0.43835 0.01674 0.0
C286 C 0.20674 0.0641 0.52611 0.0
C287 C 0.20972 0.11003 0.51282 0.0
C288 C 0.13999 0.11681 0.50975 0.0
C289 C 0.13699 0.07126 0.52513 0.0
N290 N 0.16627 0.00275 0.55645 0.0
N291 N 0.18026 0.18206 0.5022 0.0
C292 C 0.17006 0.04527 0.53613 0.0
C293 C 0.17662 0.13698 0.50752 0.0
N294 N 0.23891 0.03835 0.52721 0.0
N295 N 0.10779 0.14058 0.49631 0.0
H296 H 0.20661 0.19809 0.4997 0.0
H297 H 0.15741 0.20405 0.50472 0.0
H298 H 0.08025 0.12782 0.50086 0.0
H299 H 0.10824 0.1721 0.47757 0.0
H300 H 0.23855 0.00388 0.53054 0.0
H301 H 0.26623 0.05124 0.52078 0.0
H302 H 0.18906 0.98342 0.57099 0.0
H303 H 0.13978 0.98766 0.56276 0.0
C304 C 0.2985 0.56068 0.01986 0.0
C305 C 0.29453 0.60751 0.02049 0.0
C306 C 0.3634 0.61618 0.03632 0.0
C307 C 0.36784 0.56965 0.02986 0.0
N308 N 0.34095 0.49725 0.01227 0.0
N309 N 0.32267 0.6806 0.02306 0.0
C310 C 0.33572 0.54174 0.02081 0.0
C311 C 0.32681 0.63551 0.02749 0.0
N312 N 0.26662 0.53444 0.01978 0.0
N313 N 0.39422 0.64191 0.05066 0.0
H314 H 0.2963 0.69614 0.01715 0.0
H315 H 0.34549 0.70267 0.02089 0.0
H316 H 0.4219 0.62947 0.0546 0.0
H317 H 0.39212 0.67505 0.0627 0.0
H318 H 0.26727 0.50013 0.0253 0.0
H319 H 0.23897 0.54734 0.01842 0.0
H320 H 0.31944 0.47588 -0.00149 0.0
H321 H 0.36754 0.48184 0.01621 0.0
C322 C 0.81795 0.88334 0.50519 0.0
C323 C 0.78884 0.90545 0.53636 0.0
C324 C 0.83454 0.96333 0.56359 0.0
C325 C 0.86208 0.9441 0.52629 0.0
N326 N 0.87583 0.89193 0.45 0.0
N327 N 0.76737 0.97113 0.58587 0.0
C328 C 0.8526 0.90585 0.49368 0.0
C329 C 0.79649 0.94689 0.56284 0.0
N330 N 0.81319 0.84026 0.48834 0.0
N331 N 0.84496 0.99567 0.60181 0.0
H332 H 0.73903 0.96046 0.58537 0.0
H333 H 0.77085 0.00357 0.60043 0.0
H334 H 0.87283 0.00743 0.60574 0.0
H335 H 0.82679 0.00752 0.63378 0.0
H336 H 0.8351 0.8215 0.47038 0.0
H337 H 0.78884 0.82173 0.49799 0.0
H338 H 0.86822 0.86664 0.42157 0.0
H339 H 0.90055 0.90884 0.43788 0.0
C340 C 0.6874 0.39392 0.06505 0.0
C341 C 0.71786 0.41107 0.03135 0.0
C342 C 0.67311 0.46126 0.98185 0.0
C343 C 0.64376 0.44773 0.02038 0.0
N344 N 0.62714 0.41064 0.11005 0.0
N345 N 0.74124 0.46862 0.96742 0.0
C346 C 0.65209 0.41681 0.06541 0.0
C347 C 0.71121 0.44713 0.99269 0.0
N348 N 0.6914 0.35481 0.09482 0.0
N349 N 0.66456 0.48564 0.93336 0.0
H350 H 0.76964 0.46008 0.97573 0.0
H351 H 0.73804 0.49768 0.94313 0.0
H352 H 0.6368 0.49483 0.92201 0.0
H353 H 0.68452 0.4926 0.90125 0.0
H354 H 0.66863 0.33912 0.11544 0.0
H355 H 0.71615 0.33562 0.09372 0.0
H356 H 0.63361 0.39117 0.1463 0.0
H357 H 0.60216 0.42912 0.11434 0.0
C358 C 0.05272 0.81353 0.33702 0.0
C359 C 0.06249 0.82916 0.28098 0.0
C360 C 0.04209 0.90376 0.30759 0.0
C361 C 0.03794 0.88972 0.36598 0.0
N362 N 0.04891 0.83228 0.43831 0.0
N363 N 0.07689 0.89224 0.21929 0.0
C364 C 0.04582 0.84481 0.38148 0.0
C365 C 0.06029 0.87523 0.26804 0.0
N366 N 0.04909 0.76907 0.34763 0.0
N367 N 0.02739 0.94343 0.28899 0.0
H368 H 0.09294 0.87302 0.19099 0.0
H369 H 0.07853 0.92625 0.21092 0.0
H370 H 0.01126 0.96409 0.31541 0.0
H371 H 0.02724 0.95303 0.2455 0.0
H372 H 0.03854 0.75642 0.38651 0.0
H373 H 0.0529 0.74516 0.31571 0.0
H374 H 0.05798 0.80073 0.45113 0.0
H375 H 0.04688 0.8545 0.47255 0.0
C376 C 0.54221 0.69402 0.80701 0.0
C377 C 0.52924 0.68064 0.75149 0.0
C378 C 0.50667 0.61086 0.79135 0.0
C379 C 0.52557 0.61972 0.84463 0.0
N380 N 0.55676 0.67368 0.90661 0.0
N381 N 0.47086 0.64781 0.71671 0.0
C382 C 0.54206 0.66257 0.85371 0.0
C383 C 0.50286 0.64526 0.75041 0.0
N384 N 0.54809 0.7381 0.81704 0.0
N385 N 0.4934 0.56949 0.7782 0.0
H386 H 0.46429 0.67659 0.69314 0.0
H387 H 0.44924 0.62398 0.71847 0.0
H388 H 0.49848 0.54165 0.80421 0.0
H389 H 0.48121 0.56242 0.73792 0.0
H390 H 0.55448 0.75129 0.8575 0.0
H391 H 0.54141 0.76208 0.7857 0.0
H392 H 0.57372 0.7016 0.91326 0.0
H393 H 0.55283 0.65461 0.94387 0.0
C394 C 0.92989 0.13737 0.27048 0.0
C395 C 0.95377 0.17497 0.2623 0.0
C396 C 0.99041 0.15545 0.34952 0.0
C397 C 0.96903 0.11555 0.35413 0.0
N398 N 0.92155 0.06537 0.31625 0.0
N399 N 0.00815 0.21902 0.2903 0.0
C400 C 0.93935 0.1058 0.31417 0.0
C401 C 0.98439 0.18391 0.30093 0.0
N402 N 0.89813 0.13194 0.23645 0.0
N403 N 0.01558 0.16668 0.39254 0.0
H404 H 0.00342 0.24172 0.25669 0.0
H405 H 0.03364 0.22438 0.31259 0.0
H406 H 0.02071 0.14657 0.42873 0.0
H407 H 0.02922 0.19732 0.3949 0.0
H408 H 0.87723 0.10813 0.24446 0.0
H409 H 0.89095 0.15339 0.20247 0.0
H410 H 0.90284 0.05408 0.28439 0.0
H411 H 0.92769 0.0413 0.34763 0.0
C412 C 0.41031 0.35772 0.81094 0.0
C413 C 0.43693 0.32808 0.78588 0.0
C414 C 0.48912 0.36403 0.8385 0.0
C415 C 0.46209 0.39117 0.86717 0.0
N416 N 0.3962 0.40519 0.89201 0.0
N417 N 0.50007 0.29619 0.78535 0.0
C418 C 0.42241 0.38545 0.85683 0.0
C419 C 0.47588 0.32901 0.80288 0.0
N420 N 0.374 0.3611 0.78924 0.0
N421 N 0.5273 0.37311 0.84262 0.0
H422 H 0.49106 0.26975 0.75968 0.0
H423 H 0.52793 0.29286 0.8009 0.0
H424 H 0.53823 0.39961 0.86636 0.0
H425 H 0.54785 0.35713 0.81783 0.0
H426 H 0.35497 0.38576 0.8019 0.0
H427 H 0.36391 0.34204 0.75488 0.0
H428 H 0.36703 0.39848 0.88961 0.0
H429 H 0.40379 0.4245 0.92759 0.0
C430 C 0.5412 0.70265 0.20042 0.0
C431 C 0.57591 0.69626 0.2313 0.0
C432 C 0.58693 0.62597 0.18141 0.0
C433 C 0.55242 0.63257 0.15006 0.0
N434 N 0.50042 0.68012 0.1204 0.0
N435 N 0.63545 0.65707 0.24454 0.0
C436 C 0.53064 0.67189 0.15674 0.0
C437 C 0.60006 0.65967 0.2193 0.0
N438 N 0.5179 0.73739 0.21425 0.0
N439 N 0.60597 0.58642 0.17742 0.0
H440 H 0.64557 0.68031 0.27417 0.0
H441 H 0.65605 0.63395 0.23286 0.0
H442 H 0.59737 0.56087 0.15 0.0
H443 H 0.6287 0.57737 0.20425 0.0
H444 H 0.49014 0.74103 0.19858 0.0
H445 H 0.52578 0.76176 0.24393 0.0
H446 H 0.48555 0.71002 0.11915 0.0
H447 H 0.49198 0.65815 0.08799 0.0
C448 C 0.96804 0.19382 0.71613 0.0
C449 C 0.93482 0.18556 0.74933 0.0
C450 C 0.92619 0.11346 0.70267 0.0
C451 C 0.95843 0.12256 0.66767 0.0
N452 N 0.00659 0.17339 0.63342 0.0
N453 N 0.87878 0.14149 0.76921 0.0
C454 C 0.97845 0.16335 0.67221 0.0
C455 C 0.91271 0.14663 0.74082 0.0
N456 N 0.99004 0.23027 0.72763 0.0
N457 N 0.90964 0.0723 0.70139 0.0
H458 H 0.86857 0.16426 0.79922 0.0
H459 H 0.85925 0.11641 0.76002 0.0
H460 H 0.91891 0.04701 0.67421 0.0
H461 H 0.88876 0.0618 0.7303 0.0
H462 H 0.01696 0.23552 0.70995 0.0
H463 H 0.98227 0.25433 0.75766 0.0
H464 H 0.01958 0.2044 0.63043 0.0
H465 H 0.01514 0.15165 0.60096 0.0
C466 C 0.42225 0.37371 0.24722 0.0
C467 C 0.44824 0.34135 0.26876 0.0
C468 C 0.49742 0.3685 0.20253 0.0
C469 C 0.47075 0.39918 0.17863 0.0
N470 N 0.4049 0.4218 0.167 0.0
N471 N 0.50682 0.30049 0.25746 0.0
C472 C 0.43223 0.39902 0.19754 0.0
C473 C 0.48462 0.33627 0.2431 0.0
N474 N 0.38888 0.38199 0.27567 0.0
N475 N 0.53531 0.37168 0.1892 0.0
H476 H 0.49794 0.27608 0.28673 0.0
H477 H 0.5321 0.29276 0.23617 0.0
H478 H 0.5462 0.39593 0.16147 0.0
H479 H 0.55647 0.35307 0.20996 0.0
H480 H 0.37116 0.40875 0.26549 0.0
H481 H 0.38036 0.36454 0.31253 0.0
H482 H 0.37581 0.41918 0.17575 0.0
H483 H 0.41073 0.43953 0.12911 0.0
C484 C 0.01909 0.82884 0.74147 0.0
C485 C 0.05463 0.83228 0.77069 0.0
C486 C 0.07448 0.89017 0.70221 0.0
C487 C 0.03676 0.89175 0.67946 0.0
N488 N 0.97093 0.86755 0.68549 0.0
N489 N 0.1142 0.87163 0.7848 0.0
C490 C 0.00843 0.86218 0.70087 0.0
C491 C 0.08199 0.86424 0.75254 0.0
N492 N 0.99563 0.79354 0.75234 0.0
N493 N 0.10338 0.91231 0.67488 0.0
H494 H 0.12066 0.8542 0.82276 0.0
H495 H 0.13282 0.89791 0.77671 0.0
H496 H 0.0993 0.93048 0.63673 0.0
H497 H 0.13201 0.90872 0.68659 0.0
H498 H 0.97098 0.78717 0.72829 0.0
H499 H 0.00291 0.7682 0.78142 0.0
H500 H 0.94883 0.84958 0.70453 0.0
H501 H 0.96125 0.89306 0.65844 0.0
loop_
_geom_bond_atom_site_label_1
_geom_bond_atom_site_label_2
_geom_bond_distance
_geom_bond_site_symmetry_2
_ccdc_geom_bond_type
C0 C1 1.391 . S
C0 C4 1.391 . S
C0 H42 0.948 . S
C1 C0 1.391 . S
C1 C2 1.391 . S
C2 C1 1.391 . S
C2 H58 0.947 . S
C2 C59 1.392 . S
C3 C4 1.391 . S
C3 C7 1.397 . S
C3 C59 1.419 . S
C4 C0 1.391 . S
C4 C3 1.391 . S
C4 C5 1.399 . S
C5 C4 1.399 . S
C5 C8 1.396 . S
C5 C17 1.453 . S
C5 C18 1.684 . S
H6 C30 0.948 . S
C7 C3 1.397 . S
C7 C8 1.394 . S
C7 C26 1.723 1_556 S
C8 C5 1.396 . S
C8 C7 1.394 . S
C8 C38 1.723 1_556 S
H9 C32 0.947 . S
H10 C33 0.948 . S
H11 C39 0.982 . S
H12 C40 0.979 . S
H13 C40 0.980 . S
H14 C40 0.983 . S
H15 C39 0.979 . S
H16 C39 0.977 . S
C17 C5 1.453 . S
C17 H46 0.982 . S
C17 H47 0.979 . S
C17 H48 0.977 . S
C18 C5 1.684 . S
C18 H43 0.979 . S
C18 H44 0.980 . S
C18 H45 0.983 . S
C19 C20 1.391 . S
C19 C24 1.391 . S
C19 H49 0.948 . S
C20 C19 1.391 . S
C20 C21 1.391 . S
C21 C20 1.391 . S
C21 C22 1.392 . S
C21 H50 0.947 . S
C22 C21 1.392 . S
C22 C23 1.419 . S
C22 H51 0.948 . S
C23 C22 1.419 . S
C23 C24 1.391 . S
C23 C27 1.397 . S
C24 C19 1.391 . S
C24 C23 1.391 . S
C24 C25 1.399 . S
C25 C24 1.399 . S
C25 C26 1.396 . S
C25 C28 1.453 . S
C25 C29 1.684 . S
C26 C7 1.723 1_554 S
C26 C25 1.396 . S
C26 C27 1.394 . S
C27 C23 1.397 . S
C27 C26 1.394 . S
C27 C37 1.723 . S
C28 C25 1.453 . S
C28 H52 0.982 . S
C28 H53 0.979 . S
C28 H54 0.977 . S
C29 C25 1.684 . S
C29 H55 0.980 1_455 S
C29 H56 0.980 . S
C29 H57 0.983 1_455 S
C30 H6 0.948 . S
C30 C31 1.391 . S
C30 C35 1.391 . S
C31 C30 1.391 . S
C31 C32 1.391 1_554 S
C32 H9 0.947 . S
C32 C31 1.391 1_556 S
C32 C33 1.392 . S
C33 H10 0.948 . S
C33 C32 1.392 . S
C33 C34 1.419 1_556 S
C34 C33 1.419 1_554 S
C34 C35 1.391 . S
C34 C38 1.397 . S
C35 C30 1.391 . S
C35 C34 1.391 . S
C35 C36 1.399 . S
C36 C35 1.399 . S
C36 C37 1.396 . S
C36 C39 1.453 . S
C36 C40 1.684 . S
C37 C27 1.723 . S
C37 C36 1.396 . S
C37 C38 1.394 . S
C38 C8 1.723 1_554 S
C38 C34 1.397 . S
C38 C37 1.394 . S
C39 H11 0.982 . S
C39 H15 0.979 . S
C39 H16 0.977 . S
C39 C36 1.453 . S
C40 H12 0.979 . S
C40 H13 0.980 . S
C40 H14 0.983 . S
C40 C36 1.684 . S
H41 C59 0.948 . S
H42 C0 0.948 . S
H43 C18 0.979 . S
H44 C18 0.980 . S
H45 C18 0.983 . S
H46 C17 0.982 . S
H47 C17 0.979 . S
H48 C17 0.977 . S
H49 C19 0.948 . S
H50 C21 0.947 . S
H51 C22 0.948 . S
H52 C28 0.982 . S
H53 C28 0.979 . S
H54 C28 0.977 . S
H55 C29 0.980 1_655 S
H56 C29 0.980 . S
H57 C29 0.983 1_655 S
H58 C2 0.947 . S
C59 C2 1.392 . S
C59 C3 1.419 . S
C59 H41 0.948 . S
C60 C61 1.391 . S
C60 C64 1.391 . S
C60 H102 0.948 . S
C61 C60 1.391 . S
C61 C62 1.391 . S
C62 C61 1.391 . S
C62 H118 0.947 . S
C62 C119 1.392 . S
C63 C64 1.391 . S
C63 C67 1.397 . S
C63 C119 1.419 . S
C64 C60 1.391 . S
C64 C63 1.391 . S
C64 C65 1.399 . S
C65 C64 1.399 . S
C65 C68 1.396 . S
C65 C77 1.453 . S
C65 C78 1.684 . S
H66 C90 0.948 . S
C67 C63 1.397 . S
C67 C68 1.394 . S
C67 C86 1.723 . S
C68 C65 1.396 . S
C68 C67 1.394 . S
C68 C98 1.723 . S
H69 C92 0.947 . S
H70 C93 0.948 . S
H71 C99 0.982 . S
H72 C100 0.979 . S
H73 C100 0.980 . S
H74 C100 0.983 . S
H75 C99 0.979 . S
H76 C99 0.977 . S
C77 C65 1.453 . S
C77 H106 0.982 . S
C77 H107 0.979 . S
C77 H108 0.977 . S
C78 C65 1.684 . S
C78 H103 0.979 . S
C78 H104 0.980 . S
C78 H105 0.983 . S
C79 C80 1.391 . S
C79 C84 1.391 . S
C79 H109 0.948 . S
C80 C79 1.391 . S
C80 C81 1.391 . S
C81 C80 1.391 . S
C81 C82 1.392 . S
C81 H110 0.947 . S
C82 C81 1.392 . S
C82 C83 1.419 . S
C82 H111 0.948 . S
C83 C82 1.419 . S
C83 C84 1.391 . S
C83 C87 1.397 . S
C84 C79 1.391 . S
C84 C83 1.391 . S
C84 C85 1.399 . S
C85 C84 1.399 . S
C85 C86 1.396 . S
C85 C88 1.453 . S
C85 C89 1.684 . S
C86 C67 1.723 . S
C86 C85 1.396 . S
C86 C87 1.394 . S
C87 C83 1.397 . S
C87 C86 1.394 . S
C87 C97 1.723 . S
C88 C85 1.453 . S
C88 H112 0.982 . S
C88 H113 0.979 . S
C88 H114 0.977 . S
C89 C85 1.684 . S
C89 H115 0.979 . S
C89 H116 0.980 . S
C89 H117 0.983 . S
C90 H66 0.948 . S
C90 C91 1.391 . S
C90 C95 1.391 . S
C91 C90 1.391 . S
C91 C92 1.391 . S
C92 H69 0.947 . S
C92 C91 1.391 . S
C92 C93 1.392 . S
C93 H70 0.948 . S
C93 C92 1.392 . S
C93 C94 1.419 . S
C94 C93 1.419 . S
C94 C95 1.391 . S
C94 C98 1.397 . S
C95 C90 1.391 . S
C95 C94 1.391 . S
C95 C96 1.399 . S
C96 C95 1.399 . S
C96 C97 1.396 . S
C96 C99 1.453 . S
C96 C100 1.684 . S
C97 C87 1.723 . S
C97 C96 1.396 . S
C97 C98 1.394 . S
C98 C68 1.723 . S
C98 C94 1.397 . S
C98 C97 1.394 . S
C99 H71 0.982 . S
C99 H75 0.979 . S
C99 H76 0.977 . S
C99 C96 1.453 . S
C100 H72 0.979 . S
C100 H73 0.980 . S
C100 H74 0.983 . S
C100 C96 1.684 . S
H101 C119 0.948 . S
H102 C60 0.948 . S
H103 C78 0.979 . S
H104 C78 0.980 . S
H105 C78 0.983 . S
H106 C77 0.982 . S
H107 C77 0.979 . S
H108 C77 0.977 . S
H109 C79 0.948 . S
H110 C81 0.947 . S
H111 C82 0.948 . S
H112 C88 0.982 . S
H113 C88 0.979 . S
H114 C88 0.977 . S
H115 C89 0.979 . S
H116 C89 0.980 . S
H117 C89 0.983 . S
H118 C62 0.947 . S
C119 C62 1.392 . S
C119 C63 1.419 . S
C119 H101 0.948 . S
C120 C121 1.391 . S
C120 C124 1.391 . S
C120 H162 0.948 . S
C121 C120 1.391 . S
C121 C122 1.391 . S
C122 C121 1.391 . S
C122 H178 0.947 . S
C122 C179 1.392 . S
C123 C124 1.391 . S
C123 C127 1.397 . S
C123 C179 1.419 . S
C124 C120 1.391 . S
C124 C123 1.391 . S
C124 C125 1.399 . S
C125 C124 1.399 . S
C125 C128 1.396 . S
C125 C137 1.453 . S
C125 C138 1.684 . S
H126 C150 0.948 . S
C127 C123 1.397 . S
C127 C128 1.394 . S
C127 C146 1.723 . S
C128 C125 1.396 . S
C128 C127 1.394 . S
C128 C158 1.723 . S
H129 C152 0.947 . S
H130 C153 0.948 . S
H131 C159 0.982 . S
H132 C160 0.979 . S
H133 C160 0.980 . S
H134 C160 0.983 . S
H135 C159 0.979 . S
H136 C159 0.977 . S
C137 C125 1.453 . S
C137 H166 0.982 . S
C137 H167 0.979 . S
C137 H168 0.977 . S
C138 C125 1.684 . S
C138 H163 0.979 . S
C138 H164 0.980 . S
C138 H165 0.983 . S
C139 C140 1.391 . S
C139 C144 1.391 . S
C139 H169 0.948 . S
C140 C139 1.391 . S
C140 C141 1.391 . S
C141 C140 1.391 . S
C141 C142 1.392 . S
C141 H170 0.947 . S
C142 C141 1.392 . S
C142 C143 1.419 . S
C142 H171 0.948 . S
C143 C142 1.419 . S
C143 C144 1.391 . S
C143 C147 1.397 . S
C144 C139 1.391 . S
C144 C143 1.391 . S
C144 C145 1.399 . S
C145 C144 1.399 . S
C145 C146 1.396 1_556 S
C145 C148 1.453 . S
C145 C149 1.684 . S
C146 C127 1.723 . S
C146 C145 1.396 1_554 S
C146 C147 1.394 1_554 S
C147 C143 1.397 . S
C147 C146 1.394 1_556 S
C147 C157 1.723 . S
C148 C145 1.453 . S
C148 H172 0.982 . S
C148 H173 0.979 . S
C148 H174 0.977 1_556 S
C149 C145 1.684 . S
C149 H175 0.979 . S
C149 H176 0.980 1_556 S
C149 H177 0.983 . S
C150 H126 0.948 . S
C150 C151 1.391 1_556 S
C150 C155 1.391 . S
C151 C150 1.391 1_554 S
C151 C152 1.391 . S
C152 H129 0.947 . S
C152 C151 1.391 . S
C152 C153 1.392 . S
C153 H130 0.948 . S
C153 C152 1.392 . S
C153 C154 1.419 . S
C154 C153 1.419 . S
C154 C155 1.391 1_554 S
C154 C158 1.397 . S
C155 C150 1.391 . S
C155 C154 1.391 1_556 S
C155 C156 1.399 . S
C156 C155 1.399 . S
C156 C157 1.396 . S
C156 C159 1.453 . S
C156 C160 1.684 . S
C157 C147 1.723 . S
C157 C156 1.396 . S
C157 C158 1.394 1_556 S
C158 C128 1.723 . S
C158 C154 1.397 . S
C158 C157 1.394 1_554 S
C159 H131 0.982 . S
C159 H135 0.979 . S
C159 H136 0.977 . S
C159 C156 1.453 . S
C160 H132 0.979 . S
C160 H133 0.980 . S
C160 H134 0.983 . S
C160 C156 1.684 . S
H161 C179 0.948 . S
H162 C120 0.948 . S
H163 C138 0.979 . S
H164 C138 0.980 . S
H165 C138 0.983 . S
H166 C137 0.982 . S
H167 C137 0.979 . S
H168 C137 0.977 . S
H169 C139 0.948 . S
H170 C141 0.947 . S
H171 C142 0.948 . S
H172 C148 0.982 . S
H173 C148 0.979 . S
H174 C148 0.977 1_554 S
H175 C149 0.979 . S
H176 C149 0.980 1_554 S
H177 C149 0.983 . S
H178 C122 0.947 . S
C179 C122 1.392 . S
C179 C123 1.419 . S
C179 H161 0.948 . S
C180 C181 1.391 . S
C180 C184 1.391 . S
C180 H222 0.948 . S
C181 C180 1.391 . S
C181 C182 1.391 . S
C182 C181 1.391 . S
C182 H238 0.947 . S
C182 C239 1.392 . S
C183 C184 1.391 . S
C183 C187 1.397 . S
C183 C239 1.419 . S
C184 C180 1.391 . S
C184 C183 1.391 . S
C184 C185 1.399 . S
C185 C184 1.399 . S
C185 C188 1.396 . S
C185 C197 1.453 . S
C185 C198 1.684 . S
H186 C210 0.948 . S
C187 C183 1.397 . S
C187 C188 1.394 . S
C187 C206 1.723 . S
C188 C185 1.396 . S
C188 C187 1.394 . S
C188 C218 1.723 . S
H189 C212 0.947 . S
H190 C213 0.948 . S
H191 C219 0.982 . S
H192 C220 0.979 . S
H193 C220 0.980 . S
H194 C220 0.983 . S
H195 C219 0.979 . S
H196 C219 0.977 . S
C197 C185 1.453 . S
C197 H226 0.982 . S
C197 H227 0.979 . S
C197 H228 0.977 . S
C198 C185 1.684 . S
C198 H223 0.979 . S
C198 H224 0.980 . S
C198 H225 0.983 . S
C199 C200 1.391 . S
C199 C204 1.391 . S
C199 H229 0.948 . S
C200 C199 1.391 . S
C200 C201 1.391 . S
C201 C200 1.391 . S
C201 C202 1.392 . S
C201 H230 0.947 . S
C202 C201 1.392 . S
C202 C203 1.419 . S
C202 H231 0.948 . S
C203 C202 1.419 . S
C203 C204 1.391 . S
C203 C207 1.397 . S
C204 C199 1.391 . S
C204 C203 1.391 . S
C204 C205 1.399 . S
C205 C204 1.399 . S
C205 C206 1.396 . S
C205 C208 1.453 . S
C205 C209 1.684 . S
C206 C187 1.723 . S
C206 C205 1.396 . S
C206 C207 1.394 . S
C207 C203 1.397 . S
C207 C206 1.394 . S
C207 C217 1.723 . S
C208 C205 1.453 . S
C208 H232 0.982 . S
C208 H233 0.979 . S
C208 H234 0.977 . S
C209 C205 1.684 . S
C209 H235 0.979 . S
C209 H236 0.980 . S
C209 H237 0.983 . S
C210 H186 0.948 . S
C210 C211 1.391 . S
C210 C215 1.391 . S
C211 C210 1.391 . S
C211 C212 1.391 . S
C212 H189 0.947 . S
C212 C211 1.391 . S
C212 C213 1.392 . S
C213 H190 0.948 . S
C213 C212 1.392 . S
C213 C214 1.419 . S
C214 C213 1.419 . S
C214 C215 1.391 . S
C214 C218 1.397 . S
C215 C210 1.391 . S
C215 C214 1.391 . S
C215 C216 1.399 . S
C216 C215 1.399 . S
C216 C217 1.396 . S
C216 C219 1.453 . S
C216 C220 1.684 . S
C217 C207 1.723 . S
C217 C216 1.396 . S
C217 C218 1.394 . S
C218 C188 1.723 . S
C218 C214 1.397 . S
C218 C217 1.394 . S
C219 H191 0.982 . S
C219 H195 0.979 . S
C219 H196 0.977 . S
C219 C216 1.453 . S
C220 H192 0.979 . S
C220 H193 0.980 . S
C220 H194 0.983 . S
C220 C216 1.684 . S
H221 C239 0.948 . S
H222 C180 0.948 . S
H223 C198 0.979 . S
H224 C198 0.980 . S
H225 C198 0.983 . S
H226 C197 0.982 . S
H227 C197 0.979 . S
H228 C197 0.977 . S
H229 C199 0.948 . S
H230 C201 0.947 . S
H231 C202 0.948 . S
H232 C208 0.982 . S
H233 C208 0.979 . S
H234 C208 0.977 . S
H235 C209 0.979 . S
H236 C209 0.980 . S
H237 C209 0.983 . S
H238 C182 0.947 . S
C239 C182 1.392 . S
C239 C183 1.419 . S
C239 H221 0.948 . S
O240 Zn241 1.953 1_565 S
O240 C256 1.225 . S
Zn241 O240 1.953 1_545 S
Zn241 O242 1.949 1_655 S
Zn241 O248 1.919 . S
Zn241 O253 1.924 . S
O242 Zn241 1.949 1_455 S
O242 Zn243 1.923 . S
O242 Zn244 1.950 1_445 S
O242 Zn245 1.945 . S
Zn243 O242 1.923 . S
Zn243 O246 1.933 . S
Zn243 O249 1.941 . S
Zn243 O250 1.965 1_545 S
Zn244 O242 1.950 1_665 S
Zn244 O251 1.938 1_655 S
Zn244 O252 1.906 1_655 S
Zn244 O262 1.953 . S
Zn245 O242 1.945 . S
Zn245 O247 1.932 . S
Zn245 O254 1.977 1_545 S
Zn245 O255 1.910 1_455 S
O246 Zn243 1.933 . S
O246 C257 1.226 . S
O247 Zn245 1.932 . S
O247 C257 1.307 . S
O248 Zn241 1.919 . S
O248 C259 1.253 . S
O249 Zn243 1.941 . S
O249 C259 1.283 1_455 S
O250 Zn243 1.965 1_565 S
O250 C258 1.303 . S
O251 Zn244 1.938 1_455 S
O251 C258 1.247 . S
O252 Zn244 1.906 1_455 S
O252 C260 1.304 . S
O253 Zn241 1.924 . S
O253 C261 1.311 . S
O254 Zn245 1.977 1_565 S
O254 C260 1.272 . S
O255 Zn245 1.910 1_655 S
O255 C261 1.231 . S
C256 O240 1.225 . S
C256 O262 1.298 . S
C257 O246 1.226 . S
C257 O247 1.307 . S
C258 O250 1.303 . S
C258 O251 1.247 . S
C259 O248 1.253 . S
C259 O249 1.283 1_655 S
C260 O252 1.304 . S
C260 O254 1.272 . S
C261 O253 1.311 . S
C261 O255 1.231 . S
O262 Zn244 1.953 . S
O262 C256 1.298 . S
O263 Zn264 1.953 . S
O263 C279 1.225 . S
Zn264 O263 1.953 . S
Zn264 O265 1.949 . S
Zn264 O271 1.919 1_554 S
Zn264 O276 1.924 . S
O265 Zn264 1.949 . S
O265 Zn266 1.923 1_554 S
O265 Zn267 1.950 . S
O265 Zn268 1.945 . S
Zn266 O265 1.923 1_556 S
Zn266 O269 1.933 . S
Zn266 O272 1.941 . S
Zn266 O273 1.965 . S
Zn267 O265 1.950 . S
Zn267 O274 1.938 1_554 S
Zn267 O275 1.906 . S
Zn267 O285 1.953 . S
Zn268 O265 1.945 . S
Zn268 O270 1.932 . S
Zn268 O277 1.977 . S
Zn268 O278 1.910 . S
O269 Zn266 1.933 . S
O269 C280 1.226 1_556 S
O270 Zn268 1.932 . S
O270 C280 1.307 . S
O271 Zn264 1.919 1_556 S
O271 C282 1.253 . S
O272 Zn266 1.941 . S
O272 C282 1.283 . S
O273 Zn266 1.965 . S
O273 C281 1.303 . S
O274 Zn267 1.938 1_556 S
O274 C281 1.247 . S
O275 Zn267 1.906 . S
O275 C283 1.304 . S
O276 Zn264 1.924 . S
O276 C284 1.311 . S
O277 Zn268 1.977 . S
O277 C283 1.272 . S
O278 Zn268 1.910 . S
O278 C284 1.231 . S
C279 O263 1.225 . S
C279 O285 1.298 . S
C280 O269 1.226 1_554 S
C280 O270 1.307 . S
C281 O273 1.303 . S
C281 O274 1.247 . S
C282 O271 1.253 . S
C282 O272 1.283 . S
C283 O275 1.304 . S
C283 O277 1.272 . S
C284 O276 1.311 . S
C284 O278 1.231 . S
O285 Zn267 1.953 . S
O285 C279 1.298 . S
C286 C287 1.363 . S
C286 C292 1.379 . S
C286 N294 1.356 . S
C287 C286 1.363 . S
C287 C293 1.363 . S
C288 C289 1.363 . S
C288 C293 1.379 . S
C288 N295 1.356 . S
C289 C288 1.363 . S
C289 C292 1.363 . S
N290 C292 1.356 . S
N290 H302 0.984 . S
N290 H303 0.985 . S
N291 C293 1.356 . S
N291 H296 0.984 . S
N291 H297 0.985 . S
C292 C286 1.379 . S
C292 C289 1.363 . S
C292 N290 1.356 . S
C293 C287 1.363 . S
C293 C288 1.379 . S
C293 N291 1.356 . S
N294 C286 1.356 . S
N294 H300 0.984 . S
N294 H301 0.984 . S
N295 C288 1.356 . S
N295 H298 0.984 . S
N295 H299 0.985 . S
H296 N291 0.984 . S
H297 N291 0.985 . S
H298 N295 0.984 . S
H299 N295 0.985 . S
H300 N294 0.984 . S
H301 N294 0.984 . S
H302 N290 0.984 . S
H303 N290 0.985 . S
C304 C305 1.363 1_556 S
C304 C310 1.379 . S
C304 N312 1.356 . S
C305 C304 1.363 1_554 S
C305 C311 1.363 . S
C306 C307 1.363 . S
C306 C311 1.379 . S
C306 N313 1.356 . S
C307 C306 1.363 . S
C307 C310 1.363 1_554 S
N308 C310 1.356 . S
N308 H320 0.984 . S
N308 H321 0.985 . S
N309 C311 1.356 . S
N309 H314 0.984 . S
N309 H315 0.985 . S
C310 C304 1.379 . S
C310 C307 1.363 1_556 S
C310 N308 1.356 . S
C311 C305 1.363 . S
C311 C306 1.379 . S
C311 N309 1.356 . S
N312 C304 1.356 . S
N312 H318 0.984 . S
N312 H319 0.984 . S
N313 C306 1.356 . S
N313 H316 0.984 . S
N313 H317 0.985 . S
H314 N309 0.984 . S
H315 N309 0.985 . S
H316 N313 0.984 . S
H317 N313 0.985 . S
H318 N312 0.984 . S
H319 N312 0.984 . S
H320 N308 0.984 . S
H321 N308 0.985 . S
C322 C323 1.363 . S
C322 C328 1.379 . S
C322 N330 1.356 . S
C323 C322 1.363 . S
C323 C329 1.363 . S
C324 C325 1.363 . S
C324 C329 1.379 . S
C324 N331 1.356 . S
C325 C324 1.363 . S
C325 C328 1.363 . S
N326 C328 1.356 . S
N326 H338 0.984 . S
N326 H339 0.985 . S
N327 C329 1.356 . S
N327 H332 0.984 . S
N327 H333 0.985 . S
C328 C322 1.379 . S
C328 C325 1.363 . S
C328 N326 1.356 . S
C329 C323 1.363 . S
C329 C324 1.379 . S
C329 N327 1.356 . S
N330 C322 1.356 . S
N330 H336 0.984 . S
N330 H337 0.984 . S
N331 C324 1.356 . S
N331 H334 0.984 . S
N331 H335 0.996 . S
H332 N327 0.984 . S
H333 N327 0.985 . S
H334 N331 0.984 . S
H335 N331 0.996 . S
H336 N330 0.984 . S
H337 N330 0.984 . S
H338 N326 0.984 . S
H339 N326 0.985 . S
C340 C341 1.363 . S
C340 C346 1.379 . S
C340 N348 1.356 . S
C341 C340 1.363 . S
C341 C347 1.363 1_554 S
C342 C343 1.363 1_556 S
C342 C347 1.379 . S
C342 N349 1.356 . S
C343 C342 1.363 1_554 S
C343 C346 1.363 . S
N344 C346 1.356 . S
N344 H356 0.984 . S
N344 H357 0.985 . S
N345 C347 1.356 . S
N345 H350 0.984 . S
N345 H351 0.985 . S
C346 C340 1.379 . S
C346 C343 1.363 . S
C346 N344 1.356 . S
C347 C341 1.363 1_556 S
C347 C342 1.379 . S
C347 N345 1.356 . S
N348 C340 1.356 . S
N348 H354 0.984 . S
N348 H355 0.984 . S
N349 C342 1.356 . S
N349 H352 0.984 . S
N349 H353 0.985 . S
H350 N345 0.984 . S
H351 N345 0.985 . S
H352 N349 0.984 . S
H353 N349 0.985 . S
H354 N348 0.984 . S
H355 N348 0.984 . S
H356 N344 0.984 . S
H357 N344 0.985 . S
C358 C359 1.363 . S
C358 C364 1.379 . S
C358 N366 1.356 . S
C359 C358 1.363 . S
C359 C365 1.363 . S
C360 C361 1.363 . S
C360 C365 1.379 . S
C360 N367 1.356 . S
C361 C360 1.363 . S
C361 C364 1.363 . S
N362 C364 1.356 . S
N362 H374 0.984 . S
N362 H375 0.985 . S
N363 C365 1.356 . S
N363 H368 0.984 . S
N363 H369 0.985 . S
C364 C358 1.379 . S
C364 C361 1.363 . S
C364 N362 1.356 . S
C365 C359 1.363 . S
C365 C360 1.379 . S
C365 N363 1.356 . S
N366 C358 1.356 . S
N366 H372 0.984 . S
N366 H373 0.984 . S
N367 C360 1.356 . S
N367 H370 0.984 . S
N367 H371 0.985 . S
H368 N363 0.984 . S
H369 N363 0.985 . S
H370 N367 0.984 . S
H371 N367 0.985 . S
H372 N366 0.984 . S
H373 N366 0.984 . S
H374 N362 0.984 . S
H375 N362 0.985 . S
C376 C377 1.363 . S
C376 C382 1.379 . S
C376 N384 1.356 . S
C377 C376 1.363 . S
C377 C383 1.363 . S
C378 C379 1.363 . S
C378 C383 1.379 . S
C378 N385 1.356 . S
C379 C378 1.363 . S
C379 C382 1.363 . S
N380 C382 1.356 . S
N380 H392 0.984 . S
N380 H393 0.985 . S
N381 C383 1.356 . S
N381 H386 0.984 . S
N381 H387 0.985 . S
C382 C376 1.379 . S
C382 C379 1.363 . S
C382 N380 1.356 . S
C383 C377 1.363 . S
C383 C378 1.379 . S
C383 N381 1.356 . S
N384 C376 1.356 . S
N384 H390 0.984 . S
N384 H391 0.984 . S
N385 C378 1.356 . S
N385 H388 0.984 . S
N385 H389 0.985 . S
H386 N381 0.984 . S
H387 N381 0.985 . S
H388 N385 0.984 . S
H389 N385 0.985 . S
H390 N384 0.984 . S
H391 N384 0.984 . S
H392 N380 0.984 . S
H393 N380 0.985 . S
C394 C395 1.363 . S
C394 C400 1.379 . S
C394 N402 1.356 . S
C395 C394 1.363 . S
C395 C401 1.363 . S
C396 C397 1.363 . S
C396 C401 1.379 . S
C396 N403 1.356 1_655 S
C397 C396 1.363 . S
C397 C400 1.363 . S
N398 C400 1.356 . S
N398 H410 0.984 . S
N398 H411 0.985 . S
N399 C401 1.356 1_455 S
N399 H404 0.984 . S
N399 H405 0.985 . S
C400 C394 1.379 . S
C400 C397 1.363 . S
C400 N398 1.356 . S
C401 C395 1.363 . S
C401 C396 1.379 . S
C401 N399 1.356 1_655 S
N402 C394 1.356 . S
N402 H408 0.984 . S
N402 H409 0.984 . S
N403 C396 1.356 1_455 S
N403 H406 0.984 1_455 S
N403 H407 0.985 . S
H404 N399 0.984 . S
H405 N399 0.985 . S
H406 N403 0.984 1_655 S
H407 N403 0.985 . S
H408 N402 0.984 . S
H409 N402 0.984 . S
H410 N398 0.984 . S
H411 N398 0.985 . S
C412 C413 1.363 . S
C412 C418 1.379 . S
C412 N420 1.356 . S
C413 C412 1.363 . S
C413 C419 1.363 . S
C414 C415 1.363 . S
C414 C419 1.379 . S
C414 N421 1.356 . S
C415 C414 1.363 . S
C415 C418 1.363 . S
N416 C418 1.356 . S
N416 H428 0.984 . S
N416 H429 0.985 . S
N417 C419 1.356 . S
N417 H422 0.984 . S
N417 H423 0.985 . S
C418 C412 1.379 . S
C418 C415 1.363 . S
C418 N416 1.356 . S
C419 C413 1.363 . S
C419 C414 1.379 . S
C419 N417 1.356 . S
N420 C412 1.356 . S
N420 H426 0.984 . S
N420 H427 0.984 . S
N421 C414 1.356 . S
N421 H424 0.984 . S
N421 H425 0.985 . S
H422 N417 0.984 . S
H423 N417 0.985 . S
H424 N421 0.984 . S
H425 N421 0.985 . S
H426 N420 0.984 . S
H427 N420 0.984 . S
H428 N416 0.984 . S
H429 N416 0.985 . S
C430 C431 1.363 . S
C430 C436 1.379 . S
C430 N438 1.356 . S
C431 C430 1.363 . S
C431 C437 1.363 . S
C432 C433 1.363 . S
C432 C437 1.379 . S
C432 N439 1.356 . S
C433 C432 1.363 . S
C433 C436 1.363 . S
N434 C436 1.356 . S
N434 H446 0.984 . S
N434 H447 0.985 . S
N435 C437 1.356 . S
N435 H440 0.984 . S
N435 H441 0.985 . S
C436 C430 1.379 . S
C436 C433 1.363 . S
C436 N434 1.356 . S
C437 C431 1.363 . S
C437 C432 1.379 . S
C437 N435 1.356 . S
N438 C430 1.356 . S
N438 H444 0.984 . S
N438 H445 0.984 . S
N439 C432 1.356 . S
N439 H442 0.984 . S
N439 H443 0.985 . S
H440 N435 0.984 . S
H441 N435 0.985 . S
H442 N439 0.984 . S
H443 N439 0.985 . S
H444 N438 0.984 . S
H445 N438 0.984 . S
H446 N434 0.984 . S
H447 N434 0.985 . S
C448 C449 1.363 . S
C448 C454 1.379 1_655 S
C448 N456 1.356 1_655 S
C449 C448 1.363 . S
C449 C455 1.363 . S
C450 C451 1.363 . S
C450 C455 1.379 . S
C450 N457 1.356 . S
C451 C450 1.363 . S
C451 C454 1.363 1_655 S
N452 C454 1.356 . S
N452 H464 0.984 . S
N452 H465 0.985 . S
N453 C455 1.356 . S
N453 H458 0.984 . S
N453 H459 0.985 . S
C454 C448 1.379 1_455 S
C454 C451 1.363 1_455 S
C454 N452 1.356 . S
C455 C449 1.363 . S
C455 C450 1.379 . S
C455 N453 1.356 . S
N456 C448 1.356 1_455 S
N456 H462 0.984 . S
N456 H463 0.998 . S
N457 C450 1.356 . S
N457 H460 0.984 . S
N457 H461 0.985 . S
H458 N453 0.984 . S
H459 N453 0.985 . S
H460 N457 0.984 . S
H461 N457 0.985 . S
H462 N456 0.984 . S
H463 N456 0.998 . S
H464 N452 0.984 . S
H465 N452 0.985 . S
C466 C467 1.363 . S
C466 C472 1.379 . S
C466 N474 1.356 . S
C467 C466 1.363 . S
C467 C473 1.363 . S
C468 C469 1.363 . S
C468 C473 1.379 . S
C468 N475 1.356 . S
C469 C468 1.363 . S
C469 C472 1.363 . S
N470 C472 1.356 . S
N470 H482 0.984 . S
N470 H483 0.985 . S
N471 C473 1.356 . S
N471 H476 0.984 . S
N471 H477 0.985 . S
C472 C466 1.379 . S
C472 C469 1.363 . S
C472 N470 1.356 . S
C473 C467 1.363 . S
C473 C468 1.379 . S
C473 N471 1.356 . S
N474 C466 1.356 . S
N474 H480 0.984 . S
N474 H481 0.984 . S
N475 C468 1.356 . S
N475 H478 0.984 . S
N475 H479 0.985 . S
H476 N471 0.984 . S
H477 N471 0.985 . S
H478 N475 0.984 . S
H479 N475 0.985 . S
H480 N474 0.984 . S
H481 N474 0.984 . S
H482 N470 0.984 . S
H483 N470 0.985 . S
C484 C485 1.363 . S
C484 C490 1.379 . S
C484 N492 1.356 . S
C485 C484 1.363 . S
C485 C491 1.363 . S
C486 C487 1.363 . S
C486 C491 1.379 . S
C486 N493 1.356 . S
C487 C486 1.363 . S
C487 C490 1.363 . S
N488 C490 1.356 1_655 S
N488 H500 0.984 . S
N488 H501 0.985 . S
N489 C491 1.356 . S
N489 H494 0.984 . S
N489 H495 0.985 . S
C490 C484 1.379 . S
C490 C487 1.363 . S
C490 N488 1.356 1_455 S
C491 C485 1.363 . S
C491 C486 1.379 . S
C491 N489 1.356 . S
N492 C484 1.356 . S
N492 H498 0.986 1_455 S
N492 H499 0.984 . S
N493 C486 1.356 . S
N493 H496 0.984 . S
N493 H497 0.985 . S
H494 N489 0.984 . S
H495 N489 0.985 . S
H496 N493 0.984 . S
H497 N493 0.985 . S
H498 N492 0.986 1_655 S
H499 N492 0.984 . S
H500 N488 0.984 . S
H501 N488 0.985 . S
C289 C257 1.697 . S
C287 C211 1.588 . S
C305 C31 1.679 . S
C307 C280 1.697 . S
C323 C91 1.682 . S
C325 C256 1.704 . S
C341 C151 1.592 . S
C343 C279 1.704 . S
C361 C260 1.708 . S
C359 C20 1.779 . S
C379 C282 1.689 . S
C377 C61 1.629 . S
C395 C121 1.641 . S
C397 C261 1.689 . S
C413 C200 1.616 . S
C415 C281 1.639 . S
C433 C284 1.689 . S
C431 C80 1.793 . S
C451 C259 1.689 . S
C449 C140 1.636 . S
C469 C283 1.708 . S
C467 C181 1.629 . S
C485 C1 1.612 . S
C487 C258 1.639 . S
