# Generated by pormake.
# Topology zzz, (3,6)-cn, num edge types: 1
# Building blocks:
#     Node 0, Type 0, BuildingBlock: MIDCAF_clean_linker_0, # of connection points: 3
#     Node 1, Type 0, BuildingBlock: MIDCAF_clean_linker_0, # of connection points: 3
#     Node 2, Type 0, BuildingBlock: MIDCAF_clean_linker_0, # of connection points: 3
#     Node 3, Type 0, BuildingBlock: MIDCAF_clean_linker_0, # of connection points: 3
#     Node 4, Type 0, BuildingBlock: MIDCAF_clean_linker_0, # of connection points: 3
#     Node 5, Type 0, BuildingBlock: MIDCAF_clean_linker_0, # of connection points: 3
#     Node 6, Type 0, BuildingBlock: MIDCAF_clean_linker_0, # of connection points: 3
#     Node 7, Type 0, BuildingBlock: MIDCAF_clean_linker_0, # of connection points: 3
#     Node 8, Type 1, BuildingBlock: JUFBIX_clean_sbu_0, # of connection points: 6
#     Node 9, Type 1, BuildingBlock: JUFBIX_clean_sbu_0, # of connection points: 6
#     Node 10, Type 1, BuildingBlock: JUFBIX_clean_sbu_0, # of connection points: 6
#     Node 11, Type 1, BuildingBlock: JUFBIX_clean_sbu_0, # of connection points: 6
#     Edge 12, Type (0, 1), BuildingBlock: EZIPEK_clean_linker_0, # of connection points: 2
#     Edge 13, Type (0, 1), BuildingBlock: EZIPEK_clean_linker_0, # of connection points: 2
#     Edge 14, Type (0, 1), BuildingBlock: EZIPEK_clean_linker_0, # of connection points: 2
#     Edge 15, Type (0, 1), BuildingBlock: EZIPEK_clean_linker_0, # of connection points: 2
#     Edge 16, Type (0, 1), BuildingBlock: EZIPEK_clean_linker_0, # of connection points: 2
#     Edge 17, Type (0, 1), BuildingBlock: EZIPEK_clean_linker_0, # of connection points: 2
#     Edge 18, Type (0, 1), BuildingBlock: EZIPEK_clean_linker_0, # of connection points: 2
#     Edge 19, Type (0, 1), BuildingBlock: EZIPEK_clean_linker_0, # of connection points: 2
#     Edge 20, Type (0, 1), BuildingBlock: EZIPEK_clean_linker_0, # of connection points: 2
#     Edge 21, Type (0, 1), BuildingBlock: EZIPEK_clean_linker_0, # of connection points: 2
#     Edge 22, Type (0, 1), BuildingBlock: EZIPEK_clean_linker_0, # of connection points: 2
#     Edge 23, Type (0, 1), BuildingBlock: EZIPEK_clean_linker_0, # of connection points: 2
#     Edge 24, Type (0, 1), BuildingBlock: EZIPEK_clean_linker_0, # of connection points: 2
#     Edge 25, Type (0, 1), BuildingBlock: EZIPEK_clean_linker_0, # of connection points: 2
#     Edge 26, Type (0, 1), BuildingBlock: EZIPEK_clean_linker_0, # of connection points: 2
#     Edge 27, Type (0, 1), BuildingBlock: EZIPEK_clean_linker_0, # of connection points: 2
#     Edge 28, Type (0, 1), BuildingBlock: EZIPEK_clean_linker_0, # of connection points: 2
#     Edge 29, Type (0, 1), BuildingBlock: EZIPEK_clean_linker_0, # of connection points: 2
#     Edge 30, Type (0, 1), BuildingBlock: EZIPEK_clean_linker_0, # of connection points: 2
#     Edge 31, Type (0, 1), BuildingBlock: EZIPEK_clean_linker_0, # of connection points: 2
#     Edge 32, Type (0, 1), BuildingBlock: EZIPEK_clean_linker_0, # of connection points: 2
#     Edge 33, Type (0, 1), BuildingBlock: EZIPEK_clean_linker_0, # of connection points: 2
#     Edge 34, Type (0, 1), BuildingBlock: EZIPEK_clean_linker_0, # of connection points: 2
#     Edge 35, Type (0, 1), BuildingBlock: EZIPEK_clean_linker_0, # of connection points: 2
# Relax obj value: 0.284
# Max RMSD: 0.231
# Mean RMSD: 0.187
data_MOF--net-zzz--node1-JUFBIX_clean_sbu_0--node2-MIDCAF_clean_linker_0--edge1-EZIPEK_clean_linker_0
_symmetry_space_group_name_H-M    P1
_symmetry_Int_Tables_number       1
_symmetry_cell_setting            triclinic
loop_
_symmetry_equiv_pos_as_xyz
'x, y, z'
_cell_length_a     45.184181
_cell_length_b     46.506636
_cell_length_c     17.996247
_cell_angle_alpha  80.816438
_cell_angle_beta   90.066695
_cell_angle_gamma 86.019175
loop_
_atom_site_label
_atom_site_type_symbol
_atom_site_fract_x
_atom_site_fract_y
_atom_site_fract_z
_atom_type_partial_charge
C0 C 0.82609 0.52559 0.55436 0.0
C1 C 0.83263 0.5535 0.56636 0.0
C2 C 0.81545 0.57805 0.5299 0.0
C3 C 0.79404 0.57484 0.4759 0.0
H4 H 0.69687 0.52112 0.31414 0.0
H5 H 0.65527 0.52065 0.22693 0.0
H6 H 0.68235 0.59956 0.09284 0.0
H7 H 0.72463 0.5994 0.17865 0.0
H8 H 0.79717 0.55241 0.11259 0.0
H9 H 0.83803 0.53988 0.03173 0.0
H10 H 0.87819 0.47949 0.21722 0.0
H11 H 0.83794 0.49273 0.29931 0.0
H12 H 0.8024 0.50086 0.48652 0.0
H13 H 0.83916 0.50644 0.58202 0.0
H14 H 0.82036 0.59976 0.53848 0.0
H15 H 0.78323 0.5942 0.44264 0.0
N16 N 0.75119 0.55427 0.35661 0.0
N17 N 0.76447 0.54348 0.23688 0.0
N18 N 0.7991 0.53415 0.33547 0.0
C19 C 0.74393 0.55345 0.28333 0.0
C20 C 0.79202 0.53364 0.26282 0.0
C21 C 0.77912 0.54458 0.38237 0.0
C22 C 0.71363 0.56046 0.25328 0.0
C23 C 0.69299 0.53917 0.26828 0.0
C24 C 0.66942 0.53874 0.21809 0.0
C25 C 0.6661 0.55979 0.15282 0.0
C26 C 0.68465 0.58308 0.14274 0.0
C27 C 0.70859 0.58313 0.19207 0.0
C28 C 0.81464 0.52371 0.21217 0.0
C29 C 0.81455 0.53625 0.13587 0.0
C30 C 0.83784 0.52919 0.0898 0.0
C31 C 0.86117 0.50907 0.11905 0.0
C32 C 0.86047 0.49529 0.19416 0.0
C33 C 0.83756 0.50289 0.24076 0.0
C34 C 0.78986 0.54708 0.45797 0.0
C35 C 0.80491 0.52241 0.50037 0.0
C36 C 0.96382 0.83331 0.45595 0.0
C37 C 0.98508 0.84066 0.50556 0.0
C38 C 0.01351 0.8263 0.50921 0.0
C39 C 0.02162 0.80741 0.45845 0.0
H40 H 0.98422 0.71997 0.28722 0.0
H41 H 0.97599 0.67751 0.22509 0.0
H42 H 0.03144 0.71147 0.04185 0.0
H43 H 0.03985 0.75323 0.10192 0.0
H44 H 0.0359 0.82786 0.07235 0.0
H45 H 0.049 0.87435 1.00082 0.0
H46 H 0.09081 0.89577 0.19854 0.0
H47 H 0.07661 0.8497 0.27154 0.0
H48 H 0.95625 0.81146 0.36165 0.0
H49 H 0.94176 0.84418 0.45231 0.0
H50 H 0.0302 0.8316 0.54715 0.0
H51 H 0.04458 0.79904 0.45736 0.0
N52 N 0.00708 0.77073 0.30318 0.0
N53 N 0.03431 0.78735 0.19516 0.0
N54 N 0.03037 0.81494 0.29244 0.0
C55 C 0.01807 0.76659 0.23441 0.0
C56 C 0.04066 0.81138 0.22391 0.0
C57 C 0.0136 0.79503 0.33227 0.0
C58 C 0.01259 0.74028 0.19981 0.0
C59 C 0.99467 0.71834 0.2338 0.0
C60 C 0.98996 0.69408 0.19848 0.0
C61 C 0.00309 0.69147 0.12876 0.0
C62 C 0.02108 0.71309 0.09547 0.0
C63 C 0.02577 0.7371 0.13028 0.0
C64 C 0.05489 0.83547 0.17761 0.0
C65 C 0.04856 0.8421 0.10013 0.0
C66 C 0.05597 0.86865 0.05927 0.0
C67 C 0.07031 0.88861 0.095 0.0
C68 C 0.07942 0.88071 0.17048 0.0
C69 C 0.07128 0.85449 0.21194 0.0
C70 C 0.00141 0.80238 0.40338 0.0
C71 C 0.972 0.81431 0.40488 0.0
C72 C 0.70327 0.99226 0.42035 0.0
C73 C 0.69713 0.96623 0.46693 0.0
C74 C 0.71504 0.94061 0.46162 0.0
C75 C 0.73587 0.94034 0.40362 0.0
H76 H 0.83745 0.97164 0.25299 0.0
H77 H 0.88647 0.97771 0.19475 0.0
H78 H 0.85237 0.95601 0.98854 0.0
H79 H 0.80415 0.94925 0.04578 0.0
H80 H 0.68229 0.94756 0.13746 0.0
H81 H 0.63979 0.96825 0.05674 0.0
H82 H 0.69114 0.03899 0.9567 0.0
H83 H 0.73424 0.0173 0.03427 0.0
H84 H 0.7266 0.01201 0.32448 0.0
H85 H 0.69006 0.01236 0.4237 0.0
H86 H 0.71095 0.92034 0.49766 0.0
H87 H 0.7468 0.91972 0.39466 0.0
N88 N 0.77855 0.96097 0.25501 0.0
N89 N 0.76352 0.96831 0.12744 0.0
N90 N 0.728 0.96925 0.22092 0.0
C91 C 0.78556 0.96254 0.1804 0.0
C92 C 0.73483 0.97135 0.1475 0.0
C93 C 0.74943 0.96414 0.27493 0.0
C94 C 0.81667 0.96055 0.15367 0.0
C95 C 0.84068 0.96732 0.19607 0.0
C96 C 0.86866 0.9708 0.1629 0.0
C97 C 0.87283 0.96765 0.08701 0.0
C98 C 0.84956 0.95872 0.04687 0.0
C99 C 0.82189 0.95506 0.07983 0.0
C100 C 0.71139 0.98075 0.09091 0.0
C101 C 0.68467 0.96699 0.09641 0.0
C102 C 0.66047 0.97882 0.05074 0.0
C103 C 0.66241 0.00509 1.00084 0.0
C104 C 0.68937 0.01853 0.99426 0.0
C105 C 0.71391 0.00612 0.03816 0.0
C106 C 0.73966 0.96589 0.35226 0.0
C107 C 0.72444 0.99211 0.36407 0.0
C108 C 0.4531 0.65298 0.10838 0.0
C109 C 0.46526 0.65305 0.03672 0.0
C110 C 0.47937 0.67759 0.00203 0.0
C111 C 0.48281 0.70106 0.04034 0.0
H112 H 0.53941 0.80496 0.19584 0.0
H113 H 0.54648 0.85361 0.12336 0.0
H114 H 0.46601 0.84949 0.99771 0.0
H115 H 0.45945 0.80089 0.06756 0.0
H116 H 0.46461 0.72628 0.39883 0.0
H117 H 0.47021 0.68744 0.50864 0.0
H118 H 0.55759 0.66221 0.43548 0.0
H119 H 0.55204 0.70111 0.32587 0.0
H120 H 0.44897 0.67484 0.20426 0.0
H121 H 0.44188 0.63435 0.13559 0.0
H122 H 0.48874 0.67805 0.94649 0.0
H123 H 0.49502 0.71912 0.01391 0.0
N124 N 0.4853 0.74946 0.13046 0.0
N125 N 0.50379 0.75841 0.24675 0.0
N126 N 0.489 0.71194 0.23379 0.0
C127 C 0.49597 0.76828 0.17302 0.0
C128 C 0.5 0.73005 0.27701 0.0
C129 C 0.48172 0.72132 0.16075 0.0
C130 C 0.49895 0.79904 0.13722 0.0
C131 C 0.52307 0.81467 0.15345 0.0
C132 C 0.52716 0.8424 0.11195 0.0
C133 C 0.50677 0.85524 0.05491 0.0
C134 C 0.48206 0.84008 0.04116 0.0
C135 C 0.47836 0.81226 0.08119 0.0
C136 C 0.50822 0.71719 0.35507 0.0
C137 C 0.48568 0.71359 0.40875 0.0
C138 C 0.48871 0.69116 0.47091 0.0
C139 C 0.51425 0.67187 0.47987 0.0
C140 C 0.53781 0.67698 0.42981 0.0
C141 C 0.53478 0.69945 0.36778 0.0
C142 C 0.47268 0.69997 0.11436 0.0
C143 C 0.45713 0.6761 0.14732 0.0
C144 C 0.15229 0.4452 0.09934 0.0
C145 C 0.14814 0.46928 0.04148 0.0
C146 C 0.16827 0.4912 0.0349 0.0
C147 C 0.18986 0.49096 0.09089 0.0
H148 H 0.25808 0.53975 0.34554 0.0
H149 H 0.30295 0.54125 0.42029 0.0
H150 H 0.32874 0.45221 0.39662 0.0
H151 H 0.28359 0.45069 0.32053 0.0
H152 H 0.18243 0.5445 0.40198 0.0
H153 H 0.14268 0.5597 0.48342 0.0
H154 H 0.09799 0.48233 0.46223 0.0
H155 H 0.1368 0.46788 0.37773 0.0
H156 H 0.17361 0.42855 0.20547 0.0
H157 H 0.13686 0.42818 0.10547 0.0
H158 H 0.16534 0.50997 0.99073 0.0
H159 H 0.20282 0.5098 0.08917 0.0
N160 N 0.2299 0.48059 0.24148 0.0
N161 N 0.21477 0.49997 0.34968 0.0
N162 N 0.17939 0.48425 0.27356 0.0
C163 C 0.23676 0.49194 0.30431 0.0
C164 C 0.18616 0.49598 0.33493 0.0
C165 C 0.20094 0.47677 0.22633 0.0
C166 C 0.26753 0.49515 0.32716 0.0
C167 C 0.27389 0.52086 0.35376 0.0
C168 C 0.29941 0.52171 0.39671 0.0
C169 C 0.31887 0.49678 0.41449 0.0
C170 C 0.31389 0.47167 0.38319 0.0
C171 C 0.28831 0.47091 0.33933 0.0
C172 C 0.16254 0.50503 0.38407 0.0
C173 C 0.16401 0.53087 0.41462 0.0
C174 C 0.14139 0.5396 0.46073 0.0
C175 C 0.11758 0.52204 0.47891 0.0
C176 C 0.11622 0.49613 0.44867 0.0
C177 C 0.13831 0.48792 0.40061 0.0
C178 C 0.19113 0.46909 0.15454 0.0
C179 C 0.17342 0.44533 0.15619 0.0
C180 C 0.97613 0.21178 0.08156 0.0
C181 C 0.00207 0.21841 0.04183 0.0
C182 C 0.01797 0.24161 0.05892 0.0
C183 C 0.01014 0.25514 0.12152 0.0
H184 H 0.95481 0.33025 0.33486 0.0
H185 H 0.96019 0.36803 0.41394 0.0
H186 H 0.045 0.32653 0.49477 0.0
H187 H 0.03913 0.28818 0.41732 0.0
H188 H 0.99134 0.21438 0.51077 0.0
H189 H 0.98322 0.1673 0.58846 0.0
H190 H 0.91891 0.15027 0.42662 0.0
H191 H 0.92764 0.19684 0.34741 0.0
H192 H 0.94876 0.21853 0.17425 0.0
H193 H 0.96309 0.19447 0.06864 0.0
H194 H 0.03774 0.24754 0.02783 0.0
H195 H 0.02431 0.27092 0.13818 0.0
N196 N 0.9912 0.2771 0.267 0.0
N197 N 0.97891 0.25812 0.39202 0.0
N198 N 0.97121 0.2314 0.29536 0.0
C199 C 0.98922 0.27996 0.34142 0.0
C200 C 0.96961 0.23389 0.36894 0.0
C201 C 0.98207 0.25249 0.24396 0.0
C202 C 0.9968 0.3067 0.36921 0.0
C203 C 0.97508 0.32989 0.36733 0.0
C204 C 0.97805 0.35131 0.41291 0.0
C205 C 0.00285 0.34993 0.46088 0.0
C206 C 0.02568 0.32798 0.45832 0.0
C207 C 0.02244 0.30626 0.4137 0.0
C208 C 0.96032 0.20901 0.42294 0.0
C209 C 0.975 0.2009 0.49268 0.0
C210 C 0.9705 0.17402 0.53678 0.0
C211 C 0.95088 0.15525 0.5123 0.0
C212 C 0.93435 0.16441 0.44577 0.0
C213 C 0.93936 0.19094 0.40081 0.0
C214 C 0.98589 0.24607 0.16612 0.0
C215 C 0.968 0.22559 0.14232 0.0
C216 C 0.29289 0.07859 0.10967 0.0
C217 C 0.31146 0.05611 0.08661 0.0
C218 C 0.30573 0.02702 0.11311 0.0
C219 C 0.28473 0.02047 0.16878 0.0
H220 H 0.19163 0.0825 0.3725 0.0
H221 H 0.14815 0.09005 0.45192 0.0
H222 H 0.15658 0.99888 0.54923 0.0
H223 H 0.20015 0.99156 0.47223 0.0
H224 H 0.27869 0.99649 0.55525 0.0
H225 H 0.32201 0.98838 0.64039 0.0
H226 H 0.37986 0.00545 0.45061 0.0
H227 H 0.33736 0.01285 0.36528 0.0
H228 H 0.26117 0.08963 0.19165 0.0
H229 H 0.29653 0.10122 0.08888 0.0
H230 H 0.31931 0.00924 0.09549 0.0
H231 H 0.28311 0.99782 0.19359 0.0
N232 N 0.23361 0.04082 0.30738 0.0
N233 N 0.25124 0.0202 0.4293 0.0
N234 N 0.28352 0.02345 0.32811 0.0
C235 C 0.22853 0.03251 0.38252 0.0
C236 C 0.27887 0.01585 0.40244 0.0
C237 C 0.26138 0.03567 0.28025 0.0
C238 C 0.19899 0.03641 0.41599 0.0
C239 C 0.1836 0.06402 0.40941 0.0
C240 C 0.15899 0.06837 0.45508 0.0
C241 C 0.14922 0.04501 0.50664 0.0
C242 C 0.16373 0.01718 0.50998 0.0
C243 C 0.1885 0.01299 0.4657 0.0
C244 C 0.30448 0.00585 0.45355 0.0
C245 C 0.30066 0.99782 0.53152 0.0
C246 C 0.32531 0.99304 0.58017 0.0
C247 C 0.35388 0.99667 0.55131 0.0
C248 C 0.35788 1.00268 0.47352 0.0
C249 C 0.33345 0.00701 0.42497 0.0
C250 C 0.26944 0.04282 0.20043 0.0
C251 C 0.2723 0.07198 0.16746 0.0
C252 C 0.52211 0.39576 0.46237 0.0
C253 C 0.53416 0.38909 0.53511 0.0
C254 C 0.54466 0.36024 0.56341 0.0
C255 C 0.54064 0.33787 0.52139 0.0
H256 H 0.48836 0.25776 0.5437 0.0
H257 H 0.48584 0.20859 0.61472 0.0
H258 H 0.51489 0.17176 0.41978 0.0
H259 H 0.51644 0.22121 0.34717 0.0
H260 H 0.45117 0.31839 0.21891 0.0
H261 H 0.43963 0.35688 0.10978 0.0
H262 H 0.53305 0.36827 0.08118 0.0
H263 H 0.54447 0.32947 0.18732 0.0
H264 H 0.50832 0.37961 0.36487 0.0
H265 H 0.5139 0.4179 0.43986 0.0
H266 H 0.55398 0.35483 0.6198 0.0
H267 H 0.54748 0.31554 0.54542 0.0
N268 N 0.51583 0.29365 0.44064 0.0
N269 N 0.50114 0.28132 0.32424 0.0
N270 N 0.51448 0.32863 0.33214 0.0
C271 C 0.5067 0.27344 0.39997 0.0
C272 C 0.50523 0.30921 0.29055 0.0
C273 C 0.51981 0.3213 0.40667 0.0
C274 C 0.50267 0.2434 0.43974 0.0
C275 C 0.49389 0.23921 0.51553 0.0
C276 C 0.49242 0.2111 0.5563 0.0
C277 C 0.50039 0.18642 0.52296 0.0
C278 C 0.50864 0.19046 0.44674 0.0
C279 C 0.50943 0.2187 0.40523 0.0
C280 C 0.49876 0.3206 0.21061 0.0
C281 C 0.46921 0.32794 0.18632 0.0
C282 C 0.46259 0.35037 0.12512 0.0
C283 C 0.48545 0.3661 0.0888 0.0
C284 C 0.51501 0.3568 0.10887 0.0
C285 C 0.52157 0.33423 0.16876 0.0
C286 C 0.52701 0.3444 0.44988 0.0
C287 C 0.5188 0.37371 0.41988 0.0
Co288 Co 0.01478 0.04087 0.83274 0.0
C289 C 0.96961 1.0038 0.88942 0.0
Co290 Co 0.00909 1.0026 0.77542 0.0
C291 C 0.01888 0.10132 0.86303 0.0
C292 C 0.01036 0.06986 0.95979 0.0
N293 N 0.01517 0.07252 0.88504 0.0
N294 N 0.01618 0.11638 0.92151 0.0
C295 C 0.01096 0.09658 0.98213 0.0
H296 H 0.02328 0.11104 0.80572 0.0
H297 H 0.00638 0.0497 0.99615 0.0
C298 C 0.05454 0.03952 0.72005 0.0
N299 N 0.00977 0.96995 0.7263 0.0
C300 C 0.98844 0.95563 0.6974 0.0
C301 C 0.03549 0.95513 0.7129 0.0
N302 N 0.00025 0.93265 0.66686 0.0
C303 C 0.02972 0.93238 0.67655 0.0
C304 C 0.97568 0.05097 0.70776 0.0
O305 O 0.04658 0.0547 0.77039 0.0
O306 O 0.04122 0.01681 0.71373 0.0
O307 O 0.98188 0.02415 0.70396 0.0
O308 O 0.98693 0.06206 0.76084 0.0
O309 O 0.97698 0.98901 0.8377 0.0
H310 H 0.05728 0.96062 0.72838 0.0
H311 H 0.96496 0.96198 0.69807 0.0
O312 O 0.98321 0.02634 0.89515 0.0
O313 O 0.04252 0.01933 0.90302 0.0
O314 O 0.03626 0.98152 0.84787 0.0
C315 C 0.04845 0.99257 0.89919 0.0
H316 H 0.00785 0.10124 0.03879 0.0
H317 H 0.04591 0.91686 0.65793 0.0
Co318 Co 0.49274 0.02783 0.82703 0.0
C319 C 0.51146 0.96789 0.86046 0.0
Co320 Co 0.52056 0.01118 0.73965 0.0
C321 C 0.44068 0.05223 0.89601 0.0
C322 C 0.47367 0.0319 0.97677 0.0
N323 N 0.46881 0.03988 0.90215 0.0
N324 N 0.4275 0.05109 0.96375 0.0
C325 C 0.44837 0.03867 0.0146 0.0
H326 H 0.42931 0.05983 0.84278 0.0
H327 H 0.49358 0.02004 0.00181 0.0
C328 C 0.50243 0.07081 0.70588 0.0
N329 N 0.54433 0.99891 0.66429 0.0
C330 C 0.57276 0.98731 0.66833 0.0
C331 C 0.53744 1.00366 0.59017 0.0
N332 N 0.58386 0.98521 0.59948 0.0
C333 C 0.56163 0.99529 0.55034 0.0
C334 C 0.46018 0.00777 0.71863 0.0
O335 O 0.48976 0.06656 0.76961 0.0
O336 O 0.51676 0.04958 0.68253 0.0
O337 O 0.48541 1.00163 0.69134 0.0
O338 O 0.45877 0.01882 0.77846 0.0
O339 O 0.52475 0.97289 0.79791 0.0
H340 H 0.51657 0.01382 0.56625 0.0
H341 H 0.58556 0.98186 0.72018 0.0
O342 O 0.49608 0.98883 0.88274 0.0
O343 O 0.52728 0.03687 0.87586 0.0
O344 O 0.55445 0.0211 0.78848 0.0
C345 C 0.55268 0.03249 0.84816 0.0
H346 H 0.44499 0.03348 0.07467 0.0
H347 H 0.56319 0.99738 0.48971 0.0
Co348 Co 0.51796 0.5194 0.80978 0.0
C349 C 0.48383 0.47579 0.88395 0.0
Co350 Co 0.47184 0.52149 0.76603 0.0
C351 C 0.56807 0.53692 0.8881 0.0
C352 C 0.57403 0.49277 0.86763 0.0
N353 N 0.55569 0.5172 0.85223 0.0
N354 N 0.59282 0.52539 0.92682 0.0
C355 C 0.59686 0.49776 0.91347 0.0
H356 H 0.55813 0.55863 0.89027 0.0
H357 H 0.57 0.47203 0.85095 0.0
C358 C 0.50642 0.56475 0.69217 0.0
N359 N 0.4337 0.52364 0.72358 0.0
C360 C 0.42334 0.50731 0.67457 0.0
C361 C 0.41173 0.54467 0.7269 0.0
N362 N 0.39624 0.51759 0.64711 0.0
C363 C 0.3887 0.54095 0.68003 0.0
C364 C 0.47771 0.55545 0.8759 0.0
O365 O 0.52716 0.55174 0.73555 0.0
O366 O 0.48074 0.55501 0.6961 0.0
O367 O 0.45854 0.54621 0.83563 0.0
O368 O 0.50464 0.54598 0.87374 0.0
O369 O 0.4635 0.48748 0.83731 0.0
H370 H 0.41276 0.56248 0.75848 0.0
H371 H 0.43573 0.48901 0.65636 0.0
O372 O 0.50856 0.48723 0.88347 0.0
O373 O 0.53075 0.49246 0.745 0.0
O374 O 0.48581 0.49706 0.69712 0.0
C375 C 0.51198 0.48521 0.69997 0.0
H376 H 0.61425 0.48195 0.93829 0.0
H377 H 0.36853 0.55496 0.66852 0.0
Co378 Co 0.99218 0.54212 0.81398 0.0
C379 C 0.0363 0.49973 0.87732 0.0
Co380 Co 0.98813 0.49781 0.78468 0.0
C381 C 0.99572 0.58428 0.91649 0.0
C382 C 0.99806 0.60398 0.80082 0.0
N383 N 0.99595 0.578 0.84552 0.0
N384 N 0.99771 0.61306 0.91739 0.0
C385 C 0.99916 0.62554 0.84484 0.0
H386 H 0.99368 0.56823 0.96652 0.0
H387 H 0.99819 0.60714 0.73996 0.0
C388 C 0.94398 0.54102 0.72291 0.0
N389 N 0.9836 0.46203 0.75153 0.0
C390 C 0.00059 0.44827 0.70387 0.0
C391 C 0.95896 0.44702 0.76043 0.0
N392 N 0.98707 0.42589 0.68195 0.0
C393 C 0.96105 0.42492 0.71801 0.0
C394 C 0.9561 0.50601 0.90925 0.0
O395 O 0.95788 0.55785 0.75717 0.0
O396 O 0.95392 0.51457 0.72517 0.0
O397 O 0.96318 0.48728 0.8672 0.0
O398 O 0.96731 0.53067 0.89782 0.0
O399 O 0.0222 0.48204 0.84552 0.0
H400 H 0.93987 0.45257 0.7926 0.0
H401 H 0.0217 0.45536 0.68242 0.0
O402 O 0.02661 0.52638 0.87004 0.0
O403 O 0.01689 0.55271 0.72954 0.0
O404 O 0.0133 0.50856 0.70315 0.0
C405 C 0.02414 0.53323 0.68942 0.0
H406 H 0.00039 0.64867 0.82527 0.0
H407 H 0.94429 0.4099 0.71177 0.0
C408 C 0.13222 0.04542 0.6395 0.0
C409 C 0.12515 0.04944 0.56131 0.0
C410 C 0.07255 0.05724 0.5908 0.0
C411 C 0.07917 0.04764 0.66805 0.0
N412 N 0.11524 0.03187 0.7674 0.0
N413 N 0.08808 0.05734 0.46203 0.0
C414 C 0.10904 0.04189 0.69307 0.0
C415 C 0.09517 0.05525 0.53662 0.0
N416 N 0.16108 0.04544 0.66231 0.0
N417 N 0.0447 0.0689 0.56967 0.0
H418 H 0.10394 0.05586 0.42055 0.0
H419 H 0.06633 0.05829 0.44202 0.0
H420 H 0.0283 0.07167 0.60915 0.0
H421 H 0.03901 0.07874 0.51494 0.0
H422 H 0.16743 0.04527 0.71802 0.0
H423 H 0.17848 0.04849 0.62443 0.0
H424 H 0.13628 0.02379 0.7877 0.0
H425 H 0.09891 0.03003 0.80847 0.0
C426 C 0.48183 0.13565 0.55125 0.0
C427 C 0.50109 0.15651 0.56914 0.0
C428 C 0.51895 0.12204 0.68117 0.0
C429 C 0.50156 0.10042 0.65947 0.0
N430 N 0.47167 0.08464 0.56425 0.0
N431 N 0.5428 0.16701 0.64183 0.0
C432 C 0.48463 0.10659 0.59148 0.0
C433 C 0.52095 0.14903 0.63176 0.0
N434 N 0.45998 0.14386 0.49799 0.0
N435 N 0.53383 0.11675 0.74869 0.0
H436 H 0.54575 0.18639 0.60543 0.0
H437 H 0.55983 0.16139 0.68162 0.0
H438 H 0.5343 0.09678 0.78462 0.0
H439 H 0.54403 0.13282 0.77152 0.0
H440 H 0.44333 0.13044 0.48833 0.0
H441 H 0.45674 0.16504 0.46844 0.0
H442 H 0.4617 0.08729 0.51114 0.0
H443 H 0.47315 0.06308 0.59169 0.0
C444 C 0.36869 0.51018 0.45385 0.0
C445 C 0.34208 0.4965 0.47328 0.0
C446 C 0.35566 0.49074 0.60724 0.0
C447 C 0.37988 0.50797 0.58813 0.0
N448 N 0.40959 0.53527 0.49532 0.0
N449 N 0.30916 0.4744 0.56797 0.0
C450 C 0.38671 0.51769 0.51183 0.0
C451 C 0.33546 0.48653 0.54992 0.0
N452 N 0.3766 0.51586 0.37996 0.0
N453 N 0.35222 0.47844 0.68058 0.0
H454 H 0.29413 0.47023 0.52765 0.0
H455 H 0.30139 0.46985 0.6227 0.0
H456 H 0.36671 0.48166 0.72326 0.0
H457 H 0.3367 0.46336 0.6983 0.0
H458 H 0.39692 0.5235 0.36201 0.0
H459 H 0.36366 0.51058 0.33665 0.0
H460 H 0.41402 0.54573 0.44137 0.0
H461 H 0.42326 0.54084 0.53677 0.0
C462 C 0.00414 0.40027 0.49633 0.0
C463 C 0.0032 0.36965 0.51888 0.0
C464 C 0.0003 0.37706 0.65084 0.0
C465 C 0.99645 0.40758 0.62735 0.0
N466 N 0.99108 0.44851 0.52655 0.0
N467 N 0.99582 0.32913 0.61798 0.0
C468 C 0.99775 0.41936 0.54975 0.0
C469 C 0.00037 0.35801 0.59643 0.0
N470 N 0.01144 0.41104 0.42409 0.0
N471 N 0.00392 0.36639 0.72571 0.0
H472 H 0.9946 0.31445 0.58017 0.0
H473 H 0.99046 0.32025 0.67274 0.0
H474 H 0.00424 0.38008 0.76635 0.0
H475 H 0.00956 0.34448 0.74644 0.0
H476 H 0.01527 0.43287 0.40612 0.0
H477 H 0.01642 0.3976 0.38392 0.0
H478 H 0.98853 0.45788 0.47016 0.0
H479 H 0.98566 0.46303 0.56372 0.0
C480 C 0.90109 0.00708 0.01413 0.0
C481 C 0.89985 0.97719 0.04526 0.0
C482 C 0.94692 0.96571 0.98433 0.0
C483 C 0.94595 0.99479 0.9446 0.0
N484 N 0.92071 0.04306 0.91864 0.0
N485 N 0.92019 0.92742 0.05697 0.0
C486 C 0.92286 0.01554 0.95942 0.0
C487 C 0.92242 0.95632 0.02954 0.0
N488 N 0.8814 0.02752 0.03695 0.0
N489 N 0.97195 0.94754 0.98238 0.0
H490 H 0.90343 0.91999 0.09342 0.0
H491 H 0.93389 0.91075 0.04013 0.0
H492 H 0.99087 0.95396 0.95293 0.0
H493 H 0.9752 0.92719 0.01619 0.0
H494 H 0.88351 0.04992 0.02423 0.0
H495 H 0.86411 0.02227 0.07381 0.0
H496 H 0.90218 0.05766 0.91882 0.0
H497 H 0.93645 0.05095 0.88012 0.0
C498 C 0.51563 0.88464 0.9275 0.0
C499 C 0.51171 0.88376 0.00608 0.0
C500 C 0.51665 0.93663 0.98874 0.0
C501 C 0.51435 0.93836 0.90918 0.0
N502 N 0.50864 0.91266 0.80311 0.0
N503 N 0.50455 0.91014 0.11055 0.0
C504 C 0.5133 0.91199 0.87841 0.0
C505 C 0.51124 0.91009 0.03658 0.0
N506 N 0.52236 0.85932 0.8997 0.0
N507 N 0.52549 0.95987 0.01882 0.0
H508 H 0.49995 0.89134 0.14733 0.0
H509 H 0.50091 0.9293 0.13341 0.0
H510 H 0.5322 0.97876 0.98576 0.0
H511 H 0.52984 0.95891 0.07609 0.0
H512 H 0.52848 0.85886 0.84407 0.0
H513 H 0.52499 0.83897 0.93401 0.0
H514 H 0.50389 0.89427 0.78019 0.0
H515 H 0.50703 0.93164 0.76376 0.0
C516 C 0.65916 0.54679 0.02361 0.0
C517 C 0.64641 0.55473 0.09041 0.0
C518 C 0.59734 0.54423 0.04766 0.0
C519 C 0.60991 0.53817 0.97911 0.0
N520 N 0.65086 0.54041 0.8943 0.0
N521 N 0.60274 0.56705 0.15869 0.0
C522 C 0.64025 0.54175 0.96475 0.0
C523 C 0.61523 0.55545 0.09999 0.0
N524 N 0.68924 0.54221 0.01805 0.0
N525 N 0.56893 0.53759 0.06486 0.0
H526 H 0.61532 0.5755 0.19775 0.0
H527 H 0.57992 0.57074 0.16452 0.0
H528 H 0.55552 0.52839 0.0292 0.0
H529 H 0.55956 0.53874 0.11724 0.0
H530 H 0.69937 0.53343 0.97392 0.0
H531 H 0.70411 0.54444 0.06072 0.0
H532 H 0.67222 0.54558 0.87801 0.0
H533 H 0.63723 0.53696 0.85013 0.0
C534 C 0.9728 0.66755 0.04129 0.0
C535 C 0.99828 0.66658 0.08812 0.0
C536 C 0.02183 0.62684 0.029 0.0
C537 C 0.99663 0.62824 0.98138 0.0
N538 N 0.94564 0.64405 0.95372 0.0
N539 N 0.04371 0.64114 0.13989 0.0
C540 C 0.97125 0.64673 0.9916 0.0
C541 C 0.02168 0.64469 0.08646 0.0
N542 N 0.95083 0.68927 0.04151 0.0
N543 N 0.04646 0.60966 0.0163 0.0
H544 H 0.04399 0.65394 0.18251 0.0
H545 H 0.06011 0.62405 0.14614 0.0
H546 H 0.04709 0.59636 0.97476 0.0
H547 H 0.06678 0.60988 0.04342 0.0
H548 H 0.93341 0.69332 0.00251 0.0
H549 H 0.95083 0.7044 0.07851 0.0
H550 H 0.92541 0.65495 0.96306 0.0
H551 H 0.94414 0.62876 0.91751 0.0
C552 C 0.96426 0.10139 0.52559 0.0
C553 C 0.94946 0.12523 0.55407 0.0
C554 C 0.93856 0.0926 0.66985 0.0
C555 C 0.95832 0.07077 0.64749 0.0
N556 N 0.98054 0.05098 0.54156 0.0
N557 N 0.91965 0.14344 0.64975 0.0
C558 C 0.96766 0.07376 0.57161 0.0
C559 C 0.93528 0.12069 0.62485 0.0
N560 N 0.97657 0.10518 0.45565 0.0
N561 N 0.92232 0.08565 0.73311 0.0
H562 H 0.91562 0.16383 0.61623 0.0
H563 H 0.91157 0.14251 0.70413 0.0
H564 H 0.92288 0.06415 0.76087 0.0
H565 H 0.9062 0.09969 0.75228 0.0
H566 H 0.98797 0.08814 0.43383 0.0
H567 H 0.97589 0.1252 0.41999 0.0
H568 H 0.98283 0.02949 0.56938 0.0
H569 H 0.98283 0.02949 0.56938 0.0
C570 C 0.40057 0.97392 0.61802 0.0
C571 C 0.37944 0.99808 0.60157 0.0
C572 C 0.41154 0.0287 0.65962 0.0
C573 C 0.43227 0.00417 0.67912 0.0
N574 N 0.44332 0.95214 0.69306 0.0
N575 N 0.36187 0.04692 0.61763 0.0
C576 C 0.42595 0.97637 0.66268 0.0
C577 C 0.38395 0.02492 0.62628 0.0
N578 N 0.39655 0.94878 0.59012 0.0
N579 N 0.41879 0.05601 0.66894 0.0
H580 H 0.34189 0.04586 0.58955 0.0
H581 H 0.36233 0.06541 0.64339 0.0
H582 H 0.43868 0.0602 0.69286 0.0
H583 H 0.40627 0.07509 0.64679 0.0
H584 H 0.41283 0.93167 0.5924 0.0
H585 H 0.37744 0.94573 0.56056 0.0
H586 H 0.43833 0.9309 0.6892 0.0
H587 H 0.46121 0.95314 0.72881 0.0
C588 C 0.50719 0.41162 0.63414 0.0
C589 C 0.53134 0.41186 0.58406 0.0
C590 C 0.54427 0.45943 0.61295 0.0
C591 C 0.51896 0.46001 0.65981 0.0
N592 N 0.47513 0.4372 0.71208 0.0
N593 N 0.57291 0.43496 0.52355 0.0
C594 C 0.50018 0.43624 0.66967 0.0
C595 C 0.55008 0.43541 0.57335 0.0
N596 N 0.49107 0.3875 0.6489 0.0
N597 N 0.56231 0.48215 0.60516 0.0
H598 H 0.57856 0.41698 0.49708 0.0
H599 H 0.58588 0.45235 0.50644 0.0
H600 H 0.55717 0.50139 0.62665 0.0
H601 H 0.58275 0.48204 0.57873 0.0
H602 H 0.47654 0.38383 0.69369 0.0
H603 H 0.49336 0.3699 0.61966 0.0
H604 H 0.45775 0.42384 0.70919 0.0
H605 H 0.47091 0.45178 0.74933 0.0
C606 C 0.10087 0.5296 0.60812 0.0
C607 C 0.09411 0.53027 0.5307 0.0
C608 C 0.04111 0.53644 0.5564 0.0
C609 C 0.04781 0.53704 0.633 0.0
N610 N 0.0843 0.54058 0.72896 0.0
N611 N 0.05722 0.53948 0.42968 0.0
C612 C 0.07779 0.53604 0.65773 0.0
C613 C 0.06431 0.53564 0.50437 0.0
N614 N 0.12879 0.52055 0.63562 0.0
N615 N 0.01244 0.53631 0.53256 0.0
H616 H 0.07283 0.54017 0.38683 0.0
H617 H 0.07283 0.54017 0.38683 0.0
H618 H 0.99459 0.53576 0.56913 0.0
H619 H 0.0068 0.53566 0.47659 0.0
H620 H 0.13401 0.51607 0.69287 0.0
H621 H 0.14628 0.51477 0.60203 0.0
H622 H 0.10572 0.54305 0.7472 0.0
H623 H 0.06818 0.54448 0.76808 0.0
C624 C 0.09007 0.92347 0.98897 0.0
C625 C 0.07267 0.91875 0.05477 0.0
C626 C 0.05542 0.97037 0.03346 0.0
C627 C 0.06569 0.97268 0.95884 0.0
N628 N 0.09689 0.95359 0.86765 0.0
N629 N 0.03616 0.93773 0.13663 0.0
C630 C 0.08483 0.94998 0.93776 0.0
C631 C 0.05504 0.94232 0.07728 0.0
N632 N 0.1112 0.90251 0.97559 0.0
N633 N 0.04582 0.99474 0.06221 0.0
H634 H 0.03397 0.91736 0.16905 0.0
H635 H 0.02054 0.95378 0.14915 0.0
H636 H 0.04841 0.01568 0.03357 0.0
H637 H 0.03961 0.99417 0.11816 0.0
H638 H 0.12608 0.90539 0.93134 0.0
H639 H 0.11546 0.88305 0.01295 0.0
H640 H 0.10814 0.93684 0.8447 0.0
H641 H 0.09473 0.9736 0.83163 0.0
C642 C 0.61078 0.02835 0.00308 0.0
C643 C 0.63534 0.01953 0.9607 0.0
C644 C 0.60709 0.03733 0.84532 0.0
C645 C 0.58066 0.03736 0.88729 0.0
N646 N 0.55802 0.04083 0.00782 0.0
N647 N 0.65663 0.01514 0.83929 0.0
C648 C 0.58263 0.03564 0.96682 0.0
C649 C 0.63371 0.02441 0.88103 0.0
N650 N 0.61474 0.03079 0.07712 0.0
N651 N 0.60671 0.05019 0.77169 0.0
H652 H 0.67624 0.00445 0.86309 0.0
H653 H 0.65497 0.01582 0.78124 0.0
H654 H 0.5875 0.06105 0.74558 0.0
H655 H 0.62602 0.0533 0.74069 0.0
H656 H 0.59846 0.03953 0.1096 0.0
H657 H 0.63535 0.02666 0.10437 0.0
H658 H 0.55695 0.03438 0.06584 0.0
H659 H 0.53901 0.05275 0.9843 0.0
C660 C 0.48157 0.60055 0.03144 0.0
C661 C 0.46502 0.62674 0.99968 0.0
C662 C 0.45528 0.6058 0.88653 0.0
C663 C 0.46982 0.57881 0.92085 0.0
N664 N 0.48976 0.54845 0.03342 0.0
N665 N 0.42987 0.65151 0.906 0.0
C666 C 0.48065 0.57553 0.99587 0.0
C667 C 0.44975 0.6284 0.93018 0.0
N668 N 0.49955 0.59993 0.09291 0.0
N669 N 0.44872 0.61086 0.8112 0.0
H670 H 0.42511 0.66836 0.93705 0.0
H671 H 0.41605 0.65239 0.85917 0.0
H672 H 0.45362 0.59572 0.77546 0.0
H673 H 0.44118 0.63132 0.78249 0.0
H674 H 0.51445 0.58228 0.11299 0.0
H675 H 0.50183 0.61801 0.11948 0.0
H676 H 0.49543 0.5445 0.09046 0.0
H677 H 0.48861 0.52951 0.00958 0.0
C678 C 0.88235 0.49086 0.00544 0.0
C679 C 0.88678 0.5034 0.07099 0.0
C680 C 0.93912 0.50665 0.0405 0.0
C681 C 0.93325 0.50042 0.96779 0.0
N682 N 0.89758 0.48895 0.87784 0.0
N683 N 0.91907 0.52701 0.14637 0.0
C684 C 0.90452 0.49265 0.94947 0.0
C685 C 0.91515 0.51217 0.08781 0.0
N686 N 0.85702 0.47724 0.99685 0.0
N687 N 0.96769 0.50628 0.06511 0.0
H688 H 0.90192 0.53249 0.18133 0.0
H689 H 0.93882 0.53628 0.15567 0.0
H690 H 0.9853 0.49928 0.03363 0.0
H691 H 0.97339 0.50874 0.11977 0.0
H692 H 0.85388 0.4653 0.9535 0.0
H693 H 0.84047 0.47535 0.0374 0.0
H694 H 0.87607 0.48644 0.86031 0.0
H695 H 0.91241 0.49154 0.83356 0.0
C696 C 0.99415 0.19501 0.92793 0.0
C697 C 0.01301 0.1985 0.98858 0.0
C698 C 0.04228 0.15382 0.97013 0.0
C699 C 0.01924 0.14684 0.92459 0.0
N700 N 0.97353 0.16094 0.8561 0.0
N701 N 0.05565 0.18037 0.06862 0.0
C702 C 0.99562 0.16785 0.90048 0.0
C703 C 0.03787 0.17817 0.00859 0.0
N704 N 0.97435 0.21747 0.89855 0.0
N705 N 0.06779 0.13607 0.97887 0.0
H706 H 0.05332 0.19745 0.09951 0.0
H707 H 0.07167 0.16413 0.09115 0.0
H708 H 0.0708 0.11792 0.95147 0.0
H709 H 0.08664 0.14092 0.0065 0.0
H710 H 0.96134 0.21724 0.85088 0.0
H711 H 0.97316 0.23746 0.91821 0.0
H712 H 0.95389 0.1739 0.84357 0.0
H713 H 0.97439 0.14138 0.83457 0.0
C714 C 0.34391 0.04948 0.97634 0.0
C715 C 0.3392 0.0619 0.04282 0.0
C716 C 0.39053 0.07618 0.03585 0.0
C717 C 0.3968 0.05812 0.98084 0.0
N718 N 0.37939 0.02394 0.90531 0.0
N719 N 0.36053 0.08368 0.14268 0.0
C720 C 0.3734 0.04414 0.95159 0.0
C721 C 0.36301 0.07486 0.07392 0.0
N722 N 0.32018 0.04233 0.93776 0.0
N723 N 0.41123 0.09429 0.05238 0.0
H724 H 0.34162 0.08178 0.1755 0.0
H725 H 0.37844 0.09028 0.17067 0.0
H726 H 0.43138 0.09583 0.02417 0.0
H727 H 0.40704 0.1098 0.08764 0.0
H728 H 0.32208 0.03543 0.88553 0.0
H729 H 0.29836 0.04629 0.95454 0.0
H730 H 0.36337 0.01112 0.88867 0.0
H731 H 0.40074 0.01775 0.88959 0.0
C732 C 0.49131 0.39402 0.95942 0.0
C733 C 0.47937 0.39323 0.03227 0.0
C734 C 0.46411 0.44575 1.00048 0.0
C735 C 0.48049 0.44717 0.93297 0.0
N736 N 0.51499 0.4229 0.85644 0.0
N737 N 0.45773 0.41967 0.12662 0.0
C738 C 0.49548 0.42136 0.91452 0.0
C739 C 0.46625 0.41939 0.05389 0.0
N740 N 0.49868 0.36854 0.93302 0.0
N741 N 0.44713 0.46972 0.01445 0.0
H742 H 0.45953 0.40123 0.16808 0.0
H743 H 0.4512 0.43872 0.14752 0.0
H744 H 0.44605 0.48961 0.97797 0.0
H745 H 0.43239 0.46918 0.05904 0.0
H746 H 0.50491 0.36783 0.87755 0.0
H747 H 0.49545 0.34811 0.96433 0.0
H748 H 0.52872 0.40513 0.84569 0.0
H749 H 0.51956 0.44245 0.82337 0.0
C750 C 0.09484 0.48797 0.03537 0.0
C751 C 0.11926 0.47513 0.99991 0.0
C752 C 0.0888 0.47609 0.88589 0.0
C753 C 0.06461 0.49021 0.92033 0.0
N754 N 0.0467 0.5141 0.02376 0.0
N755 N 0.14114 0.45891 0.89097 0.0
C756 C 0.06822 0.49734 0.99389 0.0
C757 C 0.11663 0.46955 0.92512 0.0
N758 N 0.0969 0.49101 0.10965 0.0
N759 N 0.0855 0.46968 0.81486 0.0
H760 H 0.16138 0.45302 0.91919 0.0
H761 H 0.14219 0.45717 0.83413 0.0
H762 H 0.06723 0.47722 0.78014 0.0
H763 H 0.10058 0.45632 0.79002 0.0
H764 H 0.07866 0.49577 0.14201 0.0
H765 H 0.11651 0.4869 0.14125 0.0
H766 H 0.05002 0.52392 0.0709 0.0
H767 H 0.02599 0.52021 0.99925 0.0
C768 C 0.97636 0.86129 0.62535 0.0
C769 C 0.97973 0.86616 0.54607 0.0
C770 C 0.98403 0.91842 0.54862 0.0
C771 C 0.98606 0.91243 0.62795 0.0
N772 N 0.9832 0.8793 0.74359 0.0
N773 N 0.98702 0.89936 0.43085 0.0
C774 C 0.98131 0.88423 0.66685 0.0
C775 C 0.98291 0.8949 0.507 0.0
N776 N 0.96869 0.83463 0.66046 0.0
N777 N 0.9841 0.9467 0.51358 0.0
H778 H 0.98616 0.88288 0.39805 0.0
H779 H 0.99295 0.919 0.40029 0.0
H780 H 0.98555 0.96399 0.54365 0.0
H781 H 0.98019 0.95331 0.45619 0.0
H782 H 0.96373 0.83005 0.71739 0.0
H783 H 0.96495 0.81764 0.63083 0.0
H784 H 0.98329 0.85871 0.77626 0.0
H785 H 0.98578 0.89617 0.77451 0.0
C786 C 0.66659 0.98537 0.56768 0.0
C787 C 0.66983 0.96604 0.51418 0.0
C788 C 0.61842 0.95334 0.53783 0.0
C789 C 0.61377 0.97657 0.57941 0.0
N790 N 0.63264 0.01804 0.62369 0.0
N791 N 0.64645 0.93465 0.43958 0.0
C792 C 0.63775 0.99328 0.59268 0.0
C793 C 0.64525 0.95042 0.49756 0.0
N794 N 0.69107 0.99634 0.59407 0.0
N795 N 0.59693 0.93421 0.53652 0.0
H796 H 0.66491 0.93287 0.40567 0.0
H797 H 0.62802 0.92558 0.42041 0.0
H798 H 0.57723 0.93588 0.56629 0.0
H799 H 0.59998 0.91523 0.51265 0.0
H800 H 0.69028 0.00858 0.63785 0.0
H801 H 0.7125 0.99061 0.57733 0.0
H802 H 0.64879 0.03271 0.62731 0.0
H803 H 0.61155 0.02544 0.6387 0.0
C804 C 0.50655 0.61817 0.50867 0.0
C805 C 0.5144 0.64403 0.53433 0.0
C806 C 0.51779 0.61777 0.66424 0.0
C807 C 0.51153 0.59155 0.63786 0.0
N808 N 0.50581 0.56537 0.53416 0.0
N809 N 0.53217 0.66766 0.63362 0.0
C810 C 0.50762 0.59137 0.55975 0.0
C811 C 0.52149 0.64356 0.61133 0.0
N812 N 0.49705 0.6194 0.43595 0.0
N813 N 0.51872 0.61844 0.73989 0.0
H814 H 0.53461 0.68699 0.5965 0.0
H815 H 0.54076 0.66781 0.68725 0.0
H816 H 0.51637 0.60009 0.78044 0.0
H817 H 0.51958 0.63758 0.76269 0.0
H818 H 0.48767 0.60217 0.41628 0.0
H819 H 0.49634 0.63842 0.39626 0.0
H820 H 0.50605 0.56336 0.47736 0.0
H821 H 0.50688 0.5453 0.56988 0.0
C822 C 0.86098 0.55325 0.68687 0.0
C823 C 0.86051 0.55678 0.60709 0.0
C824 C 0.9146 0.5592 0.60502 0.0
C825 C 0.91536 0.55145 0.68408 0.0
N826 N 0.89009 0.55123 0.80163 0.0
N827 N 0.8865 0.5627 0.48887 0.0
C828 C 0.88872 0.5516 0.72563 0.0
C829 C 0.8872 0.56015 0.56566 0.0
N830 N 0.835 0.5501 0.72524 0.0
N831 N 0.93993 0.56717 0.56845 0.0
H832 H 0.86686 0.56433 0.45751 0.0
H833 H 0.90541 0.56151 0.45625 0.0
H834 H 0.95948 0.56895 0.59777 0.0
H835 H 0.94081 0.57531 0.51123 0.0
H836 H 0.8338 0.54403 0.78329 0.0
H837 H 0.81433 0.55243 0.69818 0.0
H838 H 0.87165 0.55366 0.8352 0.0
H839 H 0.91013 0.55065 0.8308 0.0
loop_
_geom_bond_atom_site_label_1
_geom_bond_atom_site_label_2
_geom_bond_distance
_geom_bond_site_symmetry_2
_ccdc_geom_bond_type
C0 C1 1.384 . S
C0 H13 0.947 . S
C0 C35 1.382 . S
C1 C0 1.384 . S
C1 C2 1.378 . S
C2 C1 1.378 . S
C2 C3 1.378 . S
C2 H14 0.952 . S
C3 C2 1.378 . S
C3 H15 0.950 . S
C3 C34 1.383 . S
H4 C23 0.947 . S
H5 C24 0.946 . S
H6 C26 0.953 1_556 S
H7 C27 0.945 1_556 S
H8 C29 0.952 . S
H9 C30 0.949 . S
H10 C32 0.948 1_554 S
H11 C33 0.948 . S
H12 C35 0.951 . S
H13 C0 0.947 . S
H14 C2 0.952 . S
H15 C3 0.950 . S
N16 C19 1.382 . S
N16 C21 1.363 . S
N17 C19 1.371 . S
N17 C20 1.372 . S
N18 C20 1.361 . S
N18 C21 1.377 . S
C19 N16 1.382 . S
C19 N17 1.371 . S
C19 C22 1.480 . S
C20 N17 1.372 . S
C20 N18 1.361 . S
C20 C28 1.457 . S
C21 N16 1.363 . S
C21 N18 1.377 . S
C21 C34 1.479 . S
C22 C19 1.480 . S
C22 C23 1.383 . S
C22 C27 1.385 . S
C23 H4 0.947 . S
C23 C22 1.383 . S
C23 C24 1.388 . S
C24 H5 0.946 . S
C24 C23 1.388 . S
C24 C25 1.384 . S
C25 C24 1.384 . S
C25 C26 1.377 . S
C26 H6 0.953 1_554 S
C26 C25 1.377 . S
C26 C27 1.369 . S
C27 H7 0.945 1_554 S
C27 C22 1.385 . S
C27 C26 1.369 . S
C28 C20 1.457 . S
C28 C29 1.372 1_554 S
C28 C33 1.364 . S
C29 H8 0.952 . S
C29 C28 1.372 1_556 S
C29 C30 1.389 . S
C30 H9 0.949 . S
C30 C29 1.389 . S
C30 C31 1.387 . S
C31 C30 1.387 . S
C31 C32 1.380 . S
C32 H10 0.948 1_556 S
C32 C31 1.380 . S
C32 C33 1.373 1_556 S
C33 H11 0.948 . S
C33 C28 1.364 . S
C33 C32 1.373 1_554 S
C34 C3 1.383 . S
C34 C21 1.479 . S
C34 C35 1.398 . S
C35 C0 1.382 . S
C35 H12 0.951 . S
C35 C34 1.398 . S
C36 C37 1.384 1_655 S
C36 H49 0.947 . S
C36 C71 1.382 1_655 S
C37 C36 1.384 1_455 S
C37 C38 1.378 . S
C38 C37 1.378 . S
C38 C39 1.378 . S
C38 H50 0.952 . S
C39 C38 1.378 . S
C39 H51 0.950 . S
C39 C70 1.383 . S
H40 C59 0.947 . S
H41 C60 0.953 . S
H42 C62 0.953 1_556 S
H43 C63 0.945 1_556 S
H44 C65 0.947 1_655 S
H45 C66 0.949 . S
H46 C68 0.950 . S
H47 C69 0.948 . S
H48 C71 0.951 1_655 S
H49 C36 0.947 . S
H50 C38 0.952 . S
H51 C39 0.950 . S
N52 C55 1.382 . S
N52 C57 1.363 . S
N53 C55 1.371 . S
N53 C56 1.372 . S
N54 C56 1.361 . S
N54 C57 1.377 . S
C55 N52 1.382 . S
C55 N53 1.371 . S
C55 C58 1.480 . S
C56 N53 1.372 . S
C56 N54 1.361 . S
C56 C64 1.457 . S
C57 N52 1.363 . S
C57 N54 1.377 . S
C57 C70 1.479 . S
C58 C55 1.480 . S
C58 C59 1.383 . S
C58 C63 1.385 . S
C59 H40 0.947 . S
C59 C58 1.383 . S
C59 C60 1.384 1_455 S
C60 H41 0.953 . S
C60 C59 1.384 1_655 S
C60 C61 1.382 1_655 S
C61 C60 1.382 1_455 S
C61 C62 1.377 . S
C62 H42 0.953 1_554 S
C62 C61 1.377 . S
C62 C63 1.369 . S
C63 H43 0.945 1_554 S
C63 C58 1.385 . S
C63 C62 1.369 . S
C64 C56 1.457 . S
C64 C65 1.377 1_554 S
C64 C69 1.364 . S
C65 H44 0.947 1_455 S
C65 C64 1.377 1_556 S
C65 C66 1.389 1_455 S
C66 H45 0.949 . S
C66 C65 1.389 1_655 S
C66 C67 1.387 1_655 S
C67 C66 1.387 1_455 S
C67 C68 1.372 . S
C68 H46 0.950 . S
C68 C67 1.372 . S
C68 C69 1.379 1_556 S
C69 H47 0.948 . S
C69 C64 1.364 . S
C69 C68 1.379 1_554 S
C70 C39 1.383 . S
C70 C57 1.479 . S
C70 C71 1.398 . S
C71 C36 1.382 1_455 S
C71 H48 0.951 1_455 S
C71 C70 1.398 . S
C72 C73 1.384 . S
C72 H85 0.947 . S
C72 C107 1.382 . S
C73 C72 1.384 . S
C73 C74 1.378 . S
C74 C73 1.378 . S
C74 C75 1.378 . S
C74 H86 0.952 . S
C75 C74 1.378 . S
C75 H87 0.950 . S
C75 C106 1.383 . S
H76 C95 0.947 . S
H77 C96 0.946 . S
H78 C98 0.953 . S
H79 C99 0.945 . S
H80 C101 0.952 . S
H81 C102 0.949 . S
H82 C104 0.950 . S
H83 C105 0.948 . S
H84 C107 0.951 . S
H85 C72 0.947 . S
H86 C74 0.952 . S
H87 C75 0.950 . S
N88 C91 1.382 . S
N88 C93 1.363 . S
N89 C91 1.371 . S
N89 C92 1.372 . S
N90 C92 1.361 . S
N90 C93 1.377 . S
C91 N88 1.382 . S
C91 N89 1.371 . S
C91 C94 1.480 . S
C92 N89 1.372 . S
C92 N90 1.361 . S
C92 C100 1.457 1_554 S
C93 N88 1.363 . S
C93 N90 1.377 . S
C93 C106 1.479 . S
C94 C91 1.480 . S
C94 C95 1.383 . S
C94 C99 1.385 1_554 S
C95 H76 0.947 . S
C95 C94 1.383 . S
C95 C96 1.388 . S
C96 H77 0.946 . S
C96 C95 1.388 . S
C96 C97 1.384 . S
C97 C96 1.384 . S
C97 C98 1.377 1_554 S
C98 H78 0.953 . S
C98 C97 1.377 1_556 S
C98 C99 1.369 . S
C99 H79 0.945 . S
C99 C94 1.385 1_556 S
C99 C98 1.369 . S
C100 C92 1.457 1_556 S
C100 C101 1.372 . S
C100 C105 1.364 1_556 S
C101 H80 0.952 . S
C101 C100 1.372 . S
C101 C102 1.389 . S
C102 H81 0.949 . S
C102 C101 1.389 . S
C102 C103 1.387 . S
C103 C102 1.387 . S
C103 C104 1.372 . S
C104 H82 0.950 . S
C104 C103 1.372 . S
C104 C105 1.379 1_556 S
C105 H83 0.948 . S
C105 C100 1.364 1_554 S
C105 C104 1.379 1_554 S
C106 C75 1.383 . S
C106 C93 1.479 . S
C106 C107 1.398 . S
C107 C72 1.382 . S
C107 H84 0.951 . S
C107 C106 1.398 . S
C108 C109 1.384 . S
C108 H121 0.947 1_556 S
C108 C143 1.381 1_556 S
C109 C108 1.384 . S
C109 C110 1.378 . S
C110 C109 1.378 . S
C110 C111 1.378 . S
C110 H122 0.952 . S
C111 C110 1.378 . S
C111 H123 0.950 . S
C111 C142 1.383 1_556 S
H112 C131 0.947 1_556 S
H113 C132 0.946 . S
H114 C134 0.953 . S
H115 C135 0.945 . S
H116 C137 0.952 . S
H117 C138 0.949 . S
H118 C140 0.950 . S
H119 C141 0.948 . S
H120 C143 0.951 . S
H121 C108 0.947 1_554 S
H122 C110 0.952 . S
H123 C111 0.950 . S
N124 C127 1.382 . S
N124 C129 1.363 . S
N125 C127 1.371 . S
N125 C128 1.372 . S
N126 C128 1.361 . S
N126 C129 1.377 . S
C127 N124 1.382 . S
C127 N125 1.371 . S
C127 C130 1.480 . S
C128 N125 1.372 . S
C128 N126 1.361 . S
C128 C136 1.457 . S
C129 N124 1.363 . S
C129 N126 1.377 . S
C129 C142 1.479 . S
C130 C127 1.480 . S
C130 C131 1.383 . S
C130 C135 1.385 . S
C131 H112 0.947 1_554 S
C131 C130 1.383 . S
C131 C132 1.388 1_554 S
C132 H113 0.946 . S
C132 C131 1.388 1_556 S
C132 C133 1.384 1_556 S
C133 C132 1.384 1_554 S
C133 C134 1.377 . S
C134 H114 0.953 . S
C134 C133 1.377 . S
C134 C135 1.369 . S
C135 H115 0.945 . S
C135 C130 1.385 . S
C135 C134 1.369 . S
C136 C128 1.457 . S
C136 C137 1.372 . S
C136 C141 1.364 . S
C137 H116 0.952 . S
C137 C136 1.372 . S
C137 C138 1.389 . S
C138 H117 0.949 . S
C138 C137 1.389 . S
C138 C139 1.387 . S
C139 C138 1.387 . S
C139 C140 1.372 . S
C140 H118 0.950 . S
C140 C139 1.372 . S
C140 C141 1.379 . S
C141 H119 0.948 . S
C141 C136 1.364 . S
C141 C140 1.379 . S
C142 C111 1.383 1_554 S
C142 C129 1.479 . S
C142 C143 1.398 . S
C143 C108 1.381 1_554 S
C143 H120 0.951 . S
C143 C142 1.398 . S
C144 C145 1.384 . S
C144 H157 0.947 . S
C144 C179 1.382 . S
C145 C144 1.384 . S
C145 C146 1.378 . S
C146 C145 1.378 . S
C146 C147 1.378 . S
C146 H158 0.952 . S
C147 C146 1.378 . S
C147 H159 0.950 . S
C147 C178 1.383 . S
H148 C167 0.947 . S
H149 C168 0.946 . S
H150 C170 0.953 . S
H151 C171 0.945 . S
H152 C173 0.952 . S
H153 C174 0.949 . S
H154 C176 0.950 . S
H155 C177 0.948 . S
H156 C179 0.951 . S
H157 C144 0.947 . S
H158 C146 0.952 . S
H159 C147 0.950 . S
N160 C163 1.382 . S
N160 C165 1.363 . S
N161 C163 1.371 . S
N161 C164 1.372 . S
N162 C164 1.361 . S
N162 C165 1.377 . S
C163 N160 1.382 . S
C163 N161 1.371 . S
C163 C166 1.480 . S
C164 N161 1.372 . S
C164 N162 1.361 . S
C164 C172 1.457 . S
C165 N160 1.363 . S
C165 N162 1.377 . S
C165 C178 1.479 . S
C166 C163 1.480 . S
C166 C167 1.383 . S
C166 C171 1.385 . S
C167 H148 0.947 . S
C167 C166 1.383 . S
C167 C168 1.388 . S
C168 H149 0.946 . S
C168 C167 1.388 . S
C168 C169 1.384 . S
C169 C168 1.384 . S
C169 C170 1.377 . S
C170 H150 0.953 . S
C170 C169 1.377 . S
C170 C171 1.369 . S
C171 H151 0.945 . S
C171 C166 1.385 . S
C171 C170 1.369 . S
C172 C164 1.457 . S
C172 C173 1.372 . S
C172 C177 1.364 . S
C173 H152 0.952 . S
C173 C172 1.372 . S
C173 C174 1.389 . S
C174 H153 0.949 . S
C174 C173 1.389 . S
C174 C175 1.387 . S
C175 C174 1.387 . S
C175 C176 1.372 . S
C176 H154 0.950 . S
C176 C175 1.372 . S
C176 C177 1.379 . S
C177 H155 0.948 . S
C177 C172 1.364 . S
C177 C176 1.379 . S
C178 C147 1.383 . S
C178 C165 1.479 . S
C178 C179 1.398 . S
C179 C144 1.382 . S
C179 H156 0.951 . S
C179 C178 1.398 . S
C180 C181 1.384 1_655 S
C180 H193 0.947 . S
C180 C215 1.382 1_655 S
C181 C180 1.384 1_455 S
C181 C182 1.378 . S
C182 C181 1.378 . S
C182 C183 1.378 . S
C182 H194 0.952 . S
C183 C182 1.378 . S
C183 H195 0.950 . S
C183 C214 1.383 . S
H184 C203 0.947 . S
H185 C204 0.949 . S
H186 C206 0.953 . S
H187 C207 0.945 . S
H188 C209 0.950 1_655 S
H189 C210 0.954 . S
H190 C212 0.950 . S
H191 C213 0.948 . S
H192 C215 0.950 1_655 S
H193 C180 0.947 . S
H194 C182 0.952 . S
H195 C183 0.950 . S
N196 C199 1.382 . S
N196 C201 1.363 . S
N197 C199 1.371 . S
N197 C200 1.372 . S
N198 C200 1.361 . S
N198 C201 1.377 . S
C199 N196 1.382 . S
C199 N197 1.371 . S
C199 C202 1.480 . S
C200 N197 1.372 . S
C200 N198 1.361 . S
C200 C208 1.457 . S
C201 N196 1.363 . S
C201 N198 1.377 . S
C201 C214 1.479 . S
C202 C199 1.480 . S
C202 C203 1.383 . S
C202 C207 1.385 . S
C203 H184 0.947 . S
C203 C202 1.383 . S
C203 C204 1.388 1_455 S
C204 H185 0.949 . S
C204 C203 1.388 1_655 S
C204 C205 1.382 1_655 S
C205 C204 1.382 1_455 S
C205 C206 1.377 . S
C206 H186 0.953 . S
C206 C205 1.377 . S
C206 C207 1.369 . S
C207 H187 0.945 . S
C207 C202 1.385 . S
C207 C206 1.369 . S
C208 C200 1.457 . S
C208 C209 1.378 . S
C208 C213 1.364 . S
C209 H188 0.950 1_455 S
C209 C208 1.378 . S
C209 C210 1.383 1_455 S
C210 H189 0.954 . S
C210 C209 1.383 1_655 S
C210 C211 1.386 1_655 S
C211 C210 1.386 1_455 S
C211 C212 1.372 . S
C212 H190 0.950 . S
C212 C211 1.372 . S
C212 C213 1.379 . S
C213 H191 0.948 . S
C213 C208 1.364 . S
C213 C212 1.379 . S
C214 C183 1.383 . S
C214 C201 1.479 . S
C214 C215 1.400 . S
C215 C180 1.382 1_455 S
C215 H192 0.950 1_455 S
C215 C214 1.400 . S
C216 C217 1.384 . S
C216 H229 0.947 . S
C216 C251 1.382 . S
C217 C216 1.384 . S
C217 C218 1.378 . S
C218 C217 1.378 . S
C218 C219 1.378 . S
C218 H230 0.952 . S
C219 C218 1.378 . S
C219 H231 0.950 . S
C219 C250 1.383 . S
H220 C239 0.947 . S
H221 C240 0.946 . S
H222 C242 0.953 . S
H223 C243 0.945 . S
H224 C245 0.952 . S
H225 C246 0.949 . S
H226 C248 0.950 . S
H227 C249 0.948 . S
H228 C251 0.951 . S
H229 C216 0.947 . S
H230 C218 0.952 . S
H231 C219 0.950 . S
N232 C235 1.382 . S
N232 C237 1.363 . S
N233 C235 1.371 . S
N233 C236 1.372 . S
N234 C236 1.361 . S
N234 C237 1.377 . S
C235 N232 1.382 . S
C235 N233 1.371 . S
C235 C238 1.480 . S
C236 N233 1.372 . S
C236 N234 1.361 . S
C236 C244 1.457 . S
C237 N232 1.363 . S
C237 N234 1.377 . S
C237 C250 1.479 . S
C238 C235 1.480 . S
C238 C239 1.383 . S
C238 C243 1.385 . S
C239 H220 0.947 . S
C239 C238 1.383 . S
C239 C240 1.388 . S
C240 H221 0.946 . S
C240 C239 1.388 . S
C240 C241 1.384 . S
C241 C240 1.384 . S
C241 C242 1.377 . S
C242 H222 0.953 . S
C242 C241 1.377 . S
C242 C243 1.369 . S
C243 H223 0.945 . S
C243 C238 1.385 . S
C243 C242 1.369 . S
C244 C236 1.457 . S
C244 C245 1.372 . S
C244 C249 1.364 . S
C245 H224 0.952 . S
C245 C244 1.372 . S
C245 C246 1.389 . S
C246 H225 0.949 . S
C246 C245 1.389 . S
C246 C247 1.387 . S
C247 C246 1.387 . S
C247 C248 1.372 . S
C248 H226 0.950 . S
C248 C247 1.372 . S
C248 C249 1.379 . S
C249 H227 0.948 . S
C249 C244 1.364 . S
C249 C248 1.379 . S
C250 C219 1.383 . S
C250 C237 1.479 . S
C250 C251 1.398 . S
C251 C216 1.382 . S
C251 H228 0.951 . S
C251 C250 1.398 . S
C252 C253 1.384 . S
C252 H265 0.947 . S
C252 C287 1.382 . S
C253 C252 1.384 . S
C253 C254 1.378 . S
C254 C253 1.378 . S
C254 C255 1.378 . S
C254 H266 0.952 . S
C255 C254 1.378 . S
C255 H267 0.950 . S
C255 C286 1.383 . S
H256 C275 0.947 . S
H257 C276 0.946 . S
H258 C278 0.953 . S
H259 C279 0.945 . S
H260 C281 0.952 . S
H261 C282 0.949 . S
H262 C284 0.950 . S
H263 C285 0.948 . S
H264 C287 0.951 . S
H265 C252 0.947 . S
H266 C254 0.952 . S
H267 C255 0.950 . S
N268 C271 1.382 . S
N268 C273 1.363 . S
N269 C271 1.371 . S
N269 C272 1.372 . S
N270 C272 1.361 . S
N270 C273 1.377 . S
C271 N268 1.382 . S
C271 N269 1.371 . S
C271 C274 1.480 . S
C272 N269 1.372 . S
C272 N270 1.361 . S
C272 C280 1.457 . S
C273 N268 1.363 . S
C273 N270 1.377 . S
C273 C286 1.479 . S
C274 C271 1.480 . S
C274 C275 1.383 . S
C274 C279 1.385 . S
C275 H256 0.947 . S
C275 C274 1.383 . S
C275 C276 1.388 . S
C276 H257 0.946 . S
C276 C275 1.388 . S
C276 C277 1.384 . S
C277 C276 1.384 . S
C277 C278 1.377 . S
C278 H258 0.953 . S
C278 C277 1.377 . S
C278 C279 1.369 . S
C279 H259 0.945 . S
C279 C274 1.385 . S
C279 C278 1.369 . S
C280 C272 1.457 . S
C280 C281 1.372 . S
C280 C285 1.364 . S
C281 H260 0.952 . S
C281 C280 1.372 . S
C281 C282 1.389 . S
C282 H261 0.949 . S
C282 C281 1.389 . S
C282 C283 1.387 . S
C283 C282 1.387 . S
C283 C284 1.372 . S
C284 H262 0.950 . S
C284 C283 1.372 . S
C284 C285 1.379 . S
C285 H263 0.948 . S
C285 C280 1.364 . S
C285 C284 1.379 . S
C286 C255 1.383 . S
C286 C273 1.479 . S
C286 C287 1.398 . S
C287 C252 1.382 . S
C287 H264 0.951 . S
C287 C286 1.398 . S
Co288 N293 2.057 . S
Co288 O305 2.021 . S
Co288 O308 2.062 1_455 S
Co288 O312 2.117 1_455 S
Co288 O313 2.020 1_545 S
C289 O309 1.259 1_545 S
C289 O312 1.258 . S
Co290 N299 2.061 1_545 S
Co290 O306 2.117 1_655 S
Co290 O307 2.020 . S
Co290 O309 2.021 1_545 S
Co290 O314 2.062 1_645 S
C291 N293 1.316 . S
C291 N294 1.347 1_556 S
C291 H296 0.931 . S
C292 N293 1.375 1_655 S
C292 C295 1.350 1_556 S
C292 H297 0.930 . S
N293 Co288 2.057 . S
N293 C291 1.316 . S
N293 C292 1.375 1_455 S
N294 C291 1.347 1_554 S
N294 C295 1.373 1_455 S
C295 C292 1.350 1_554 S
C295 N294 1.373 1_655 S
C295 H316 0.931 . S
H296 C291 0.931 . S
H297 C292 0.930 . S
C298 O305 1.259 . S
C298 O306 1.258 . S
N299 Co290 2.061 1_565 S
N299 C300 1.343 . S
N299 C301 1.344 1_655 S
C300 N299 1.343 . S
C300 N302 1.347 . S
C300 H311 0.931 . S
C301 N299 1.344 1_455 S
C301 C303 1.350 . S
C301 H310 0.930 . S
N302 C300 1.347 . S
N302 C303 1.373 1_655 S
C303 C301 1.350 . S
C303 N302 1.373 1_455 S
C303 H317 0.931 . S
C304 O307 1.256 . S
C304 O308 1.255 . S
O305 Co288 2.021 . S
O305 C298 1.259 . S
O306 Co290 2.117 1_455 S
O306 C298 1.258 . S
O307 Co290 2.020 . S
O307 C304 1.256 . S
O308 Co288 2.062 1_655 S
O308 C304 1.255 . S
O309 C289 1.259 1_565 S
O309 Co290 2.021 1_565 S
H310 C301 0.930 . S
H311 C300 0.931 . S
O312 Co288 2.117 1_655 S
O312 C289 1.258 . S
O313 Co288 2.020 1_565 S
O313 C315 1.256 . S
O314 Co290 2.062 1_465 S
O314 C315 1.255 . S
C315 O313 1.256 . S
C315 O314 1.255 . S
H316 C295 0.931 . S
H317 C303 0.931 . S
Co318 N323 2.057 . S
Co318 O335 2.021 . S
Co318 O338 2.062 . S
Co318 O342 2.117 1_545 S
Co318 O343 2.020 . S
C319 O339 1.259 . S
C319 O342 1.258 . S
Co320 N329 2.057 . S
Co320 O336 2.117 . S
Co320 O337 2.020 . S
Co320 O339 2.021 1_545 S
Co320 O344 2.062 1_545 S
C321 N323 1.316 . S
C321 N324 1.347 1_556 S
C321 H326 0.931 . S
C322 N323 1.375 . S
C322 C325 1.350 1_556 S
C322 H327 0.930 1_545 S
N323 Co318 2.057 . S
N323 C321 1.316 . S
N323 C322 1.375 . S
N324 C321 1.347 1_554 S
N324 C325 1.373 . S
C325 C322 1.350 1_554 S
C325 N324 1.373 . S
C325 H346 0.931 . S
H326 C321 0.931 . S
H327 C322 0.930 1_565 S
C328 O335 1.259 . S
C328 O336 1.258 . S
N329 Co320 2.057 . S
N329 C330 1.316 1_545 S
N329 C331 1.375 . S
C330 N329 1.316 1_565 S
C330 N332 1.347 . S
C330 H341 0.931 . S
C331 N329 1.375 . S
C331 C333 1.350 . S
C331 H340 0.930 . S
N332 C330 1.347 . S
N332 C333 1.373 1_565 S
C333 C331 1.350 . S
C333 N332 1.373 1_545 S
C333 H347 0.931 . S
C334 O337 1.256 . S
C334 O338 1.255 . S
O335 Co318 2.021 . S
O335 C328 1.259 . S
O336 Co320 2.117 . S
O336 C328 1.258 . S
O337 Co320 2.020 . S
O337 C334 1.256 . S
O338 Co318 2.062 . S
O338 C334 1.255 . S
O339 C319 1.259 . S
O339 Co320 2.021 1_565 S
H340 C331 0.930 . S
H341 C330 0.931 . S
O342 Co318 2.117 1_565 S
O342 C319 1.258 . S
O343 Co318 2.020 . S
O343 C345 1.256 . S
O344 Co320 2.062 1_565 S
O344 C345 1.255 1_565 S
C345 O343 1.256 . S
C345 O344 1.255 1_545 S
H346 C325 0.931 . S
H347 C333 0.931 . S
Co348 N353 2.057 . S
Co348 O365 2.021 . S
Co348 O368 2.062 . S
Co348 O372 2.117 . S
Co348 O373 2.020 . S
C349 O369 1.259 . S
C349 O372 1.258 . S
Co350 N359 2.057 . S
Co350 O366 2.117 . S
Co350 O367 2.020 . S
Co350 O369 2.021 . S
Co350 O374 2.062 . S
C351 N353 1.316 . S
C351 N354 1.347 . S
C351 H356 0.931 . S
C352 N353 1.375 . S
C352 C355 1.350 . S
C352 H357 0.930 . S
N353 Co348 2.057 . S
N353 C351 1.316 . S
N353 C352 1.375 . S
N354 C351 1.347 . S
N354 C355 1.373 . S
C355 C352 1.350 . S
C355 N354 1.373 . S
C355 H376 0.931 . S
H356 C351 0.931 . S
H357 C352 0.930 . S
C358 O365 1.259 . S
C358 O366 1.258 . S
N359 Co350 2.057 . S
N359 C360 1.316 . S
N359 C361 1.375 . S
C360 N359 1.316 . S
C360 N362 1.347 . S
C360 H371 0.931 . S
C361 N359 1.375 . S
C361 C363 1.350 . S
C361 H370 0.930 . S
N362 C360 1.347 . S
N362 C363 1.373 . S
C363 C361 1.350 . S
C363 N362 1.373 . S
C363 H377 0.931 . S
C364 O367 1.256 . S
C364 O368 1.255 . S
O365 Co348 2.021 . S
O365 C358 1.259 . S
O366 Co350 2.117 . S
O366 C358 1.258 . S
O367 Co350 2.020 . S
O367 C364 1.256 . S
O368 Co348 2.062 . S
O368 C364 1.255 . S
O369 C349 1.259 . S
O369 Co350 2.021 . S
H370 C361 0.930 . S
H371 C360 0.931 . S
O372 Co348 2.117 . S
O372 C349 1.258 . S
O373 Co348 2.020 . S
O373 C375 1.256 . S
O374 Co350 2.062 . S
O374 C375 1.255 . S
C375 O373 1.256 . S
C375 O374 1.255 . S
H376 C355 0.931 . S
H377 C363 0.931 . S
Co378 N383 2.057 . S
Co378 O395 2.021 1_455 S
Co378 O398 2.062 1_455 S
Co378 O402 2.117 . S
Co378 O403 2.020 . S
C379 O399 1.259 . S
C379 O402 1.258 . S
Co380 N389 2.057 . S
Co380 O396 2.117 . S
Co380 O397 2.020 . S
Co380 O399 2.021 1_655 S
Co380 O404 2.062 1_655 S
C381 N383 1.316 . S
C381 N384 1.347 . S
C381 H386 0.931 1_455 S
C382 N383 1.375 . S
C382 C385 1.350 . S
C382 H387 0.930 . S
N383 Co378 2.057 . S
N383 C381 1.316 . S
N383 C382 1.375 . S
N384 C381 1.347 . S
N384 C385 1.373 . S
C385 C382 1.350 . S
C385 N384 1.373 . S
C385 H406 0.931 . S
H386 C381 0.931 1_655 S
H387 C382 0.930 . S
C388 O395 1.259 . S
C388 O396 1.258 . S
N389 Co380 2.057 . S
N389 C390 1.316 . S
N389 C391 1.375 . S
C390 N389 1.316 . S
C390 N392 1.347 . S
C390 H401 0.931 1_655 S
C391 N389 1.375 . S
C391 C393 1.350 . S
C391 H400 0.930 . S
N392 C390 1.347 . S
N392 C393 1.373 . S
C393 C391 1.350 . S
C393 N392 1.373 . S
C393 H407 0.931 . S
C394 O397 1.256 . S
C394 O398 1.255 . S
O395 Co378 2.021 1_655 S
O395 C388 1.259 . S
O396 Co380 2.117 . S
O396 C388 1.258 . S
O397 Co380 2.020 . S
O397 C394 1.256 . S
O398 Co378 2.062 1_655 S
O398 C394 1.255 . S
O399 C379 1.259 . S
O399 Co380 2.021 1_455 S
H400 C391 0.930 . S
H401 C390 0.931 1_455 S
O402 Co378 2.117 . S
O402 C379 1.258 . S
O403 Co378 2.020 . S
O403 C405 1.256 . S
O404 Co380 2.062 1_455 S
O404 C405 1.255 . S
C405 O403 1.256 . S
C405 O404 1.255 . S
H406 C385 0.931 . S
H407 C393 0.931 . S
C408 C409 1.363 . S
C408 C414 1.379 . S
C408 N416 1.356 . S
C409 C408 1.363 . S
C409 C415 1.363 . S
C410 C411 1.363 . S
C410 C415 1.379 . S
C410 N417 1.356 . S
C411 C410 1.363 . S
C411 C414 1.363 . S
N412 C414 1.356 . S
N412 H424 0.984 . S
N412 H425 0.985 . S
N413 C415 1.356 . S
N413 H418 0.984 . S
N413 H419 0.985 . S
C414 C408 1.379 . S
C414 C411 1.363 . S
C414 N412 1.356 . S
C415 C409 1.363 . S
C415 C410 1.379 . S
C415 N413 1.356 . S
N416 C408 1.356 . S
N416 H422 0.984 . S
N416 H423 0.984 . S
N417 C410 1.356 . S
N417 H420 0.984 . S
N417 H421 0.985 . S
H418 N413 0.984 . S
H419 N413 0.985 . S
H420 N417 0.984 . S
H421 N417 0.985 . S
H422 N416 0.984 . S
H423 N416 0.984 . S
H424 N412 0.984 . S
H425 N412 0.985 . S
C426 C427 1.363 . S
C426 C432 1.379 . S
C426 N434 1.356 . S
C427 C426 1.363 . S
C427 C433 1.363 . S
C428 C429 1.363 . S
C428 C433 1.379 . S
C428 N435 1.356 . S
C429 C428 1.363 . S
C429 C432 1.363 . S
N430 C432 1.356 . S
N430 H442 0.984 . S
N430 H443 0.985 . S
N431 C433 1.356 . S
N431 H436 0.984 . S
N431 H437 0.985 . S
C432 C426 1.379 . S
C432 C429 1.363 . S
C432 N430 1.356 . S
C433 C427 1.363 . S
C433 C428 1.379 . S
C433 N431 1.356 . S
N434 C426 1.356 . S
N434 H440 0.984 . S
N434 H441 0.984 . S
N435 C428 1.356 . S
N435 H438 0.984 . S
N435 H439 0.985 . S
H436 N431 0.984 . S
H437 N431 0.985 . S
H438 N435 0.984 . S
H439 N435 0.985 . S
H440 N434 0.984 . S
H441 N434 0.984 . S
H442 N430 0.984 . S
H443 N430 0.985 . S
C444 C445 1.363 . S
C444 C450 1.379 . S
C444 N452 1.356 . S
C445 C444 1.363 . S
C445 C451 1.363 . S
C446 C447 1.363 . S
C446 C451 1.379 . S
C446 N453 1.356 . S
C447 C446 1.363 . S
C447 C450 1.363 . S
N448 C450 1.356 . S
N448 H460 0.984 . S
N448 H461 0.985 . S
N449 C451 1.356 . S
N449 H454 0.984 . S
N449 H455 0.985 . S
C450 C444 1.379 . S
C450 C447 1.363 . S
C450 N448 1.356 . S
C451 C445 1.363 . S
C451 C446 1.379 . S
C451 N449 1.356 . S
N452 C444 1.356 . S
N452 H458 0.984 . S
N452 H459 0.984 . S
N453 C446 1.356 . S
N453 H456 0.984 . S
N453 H457 0.985 . S
H454 N449 0.984 . S
H455 N449 0.985 . S
H456 N453 0.984 . S
H457 N453 0.985 . S
H458 N452 0.984 . S
H459 N452 0.984 . S
H460 N448 0.984 . S
H461 N448 0.985 . S
C462 C463 1.363 1_455 S
C462 C468 1.379 . S
C462 N470 1.356 . S
C463 C462 1.363 1_655 S
C463 C469 1.363 . S
C464 C465 1.363 . S
C464 C469 1.379 . S
C464 N471 1.356 . S
C465 C464 1.363 . S
C465 C468 1.363 1_655 S
N466 C468 1.356 . S
N466 H478 0.984 . S
N466 H479 0.985 . S
N467 C469 1.356 . S
N467 H472 0.984 . S
N467 H473 0.985 . S
C468 C462 1.379 . S
C468 C465 1.363 1_455 S
C468 N466 1.356 . S
C469 C463 1.363 . S
C469 C464 1.379 . S
C469 N467 1.356 . S
N470 C462 1.356 . S
N470 H476 0.984 . S
N470 H477 0.984 . S
N471 C464 1.356 . S
N471 H474 0.984 . S
N471 H475 0.985 . S
H472 N467 0.984 . S
H473 N467 0.985 . S
H474 N471 0.984 . S
H475 N471 0.985 . S
H476 N470 0.984 . S
H477 N470 0.984 . S
H478 N466 0.984 . S
H479 N466 0.985 . S
C480 C481 1.363 . S
C480 C486 1.379 1_565 S
C480 N488 1.356 1_556 S
C481 C480 1.363 . S
C481 C487 1.363 . S
C482 C483 1.363 . S
C482 C487 1.379 . S
C482 N489 1.356 . S
C483 C482 1.363 . S
C483 C486 1.363 1_565 S
N484 C486 1.356 . S
N484 H496 0.984 . S
N484 H497 0.985 . S
N485 C487 1.356 . S
N485 H490 0.984 . S
N485 H491 0.985 . S
C486 C480 1.379 1_545 S
C486 C483 1.363 1_545 S
C486 N484 1.356 . S
C487 C481 1.363 . S
C487 C482 1.379 . S
C487 N485 1.356 . S
N488 C480 1.356 1_554 S
N488 H494 0.984 1_565 S
N488 H495 0.984 . S
N489 C482 1.356 . S
N489 H492 0.984 . S
N489 H493 0.985 . S
H490 N485 0.984 . S
H491 N485 0.985 . S
H492 N489 0.984 . S
H493 N489 0.985 . S
H494 N488 0.984 1_545 S
H495 N488 0.984 . S
H496 N484 0.984 . S
H497 N484 0.985 . S
C498 C499 1.363 . S
C498 C504 1.379 . S
C498 N506 1.356 . S
C499 C498 1.363 . S
C499 C505 1.363 1_556 S
C500 C501 1.363 . S
C500 C505 1.379 1_556 S
C500 N507 1.356 . S
C501 C500 1.363 . S
C501 C504 1.363 . S
N502 C504 1.356 . S
N502 H514 0.984 . S
N502 H515 0.985 . S
N503 C505 1.356 . S
N503 H508 0.984 . S
N503 H509 0.985 . S
C504 C498 1.379 . S
C504 C501 1.363 . S
C504 N502 1.356 . S
C505 C499 1.363 1_554 S
C505 C500 1.379 1_554 S
C505 N503 1.356 . S
N506 C498 1.356 . S
N506 H512 0.984 . S
N506 H513 0.984 . S
N507 C500 1.356 . S
N507 H510 0.984 . S
N507 H511 0.985 1_556 S
H508 N503 0.984 . S
H509 N503 0.985 . S
H510 N507 0.984 . S
H511 N507 0.985 1_554 S
H512 N506 0.984 . S
H513 N506 0.984 . S
H514 N502 0.984 . S
H515 N502 0.985 . S
C516 C517 1.363 . S
C516 C522 1.379 1_554 S
C516 N524 1.356 . S
C517 C516 1.363 . S
C517 C523 1.363 1_554 S
C518 C519 1.363 . S
C518 C523 1.379 . S
C518 N525 1.356 . S
C519 C518 1.363 . S
C519 C522 1.363 . S
N520 C522 1.356 . S
N520 H532 0.984 . S
N520 H533 0.985 . S
N521 C523 1.356 . S
N521 H526 0.984 1_556 S
N521 H527 0.985 . S
C522 C516 1.379 1_556 S
C522 C519 1.363 . S
C522 N520 1.356 . S
C523 C517 1.363 1_556 S
C523 C518 1.379 . S
C523 N521 1.356 . S
N524 C516 1.356 . S
N524 H530 0.984 . S
N524 H531 0.984 . S
N525 C518 1.356 . S
N525 H528 0.984 . S
N525 H529 0.985 . S
H526 N521 0.984 1_554 S
H527 N521 0.985 . S
H528 N525 0.984 . S
H529 N525 0.985 . S
H530 N524 0.984 . S
H531 N524 0.984 . S
H532 N520 0.984 . S
H533 N520 0.985 . S
C534 C535 1.363 1_656 S
C534 C540 1.379 . S
C534 N542 1.356 . S
C535 C534 1.363 1_454 S
C535 C541 1.363 . S
C536 C537 1.363 . S
C536 C541 1.379 1_556 S
C536 N543 1.356 . S
C537 C536 1.363 . S
C537 C540 1.363 1_455 S
N538 C540 1.356 . S
N538 H550 0.984 . S
N538 H551 0.985 . S
N539 C541 1.356 . S
N539 H544 0.984 . S
N539 H545 0.985 . S
C540 C534 1.379 . S
C540 C537 1.363 1_655 S
C540 N538 1.356 . S
C541 C535 1.363 . S
C541 C536 1.379 1_554 S
C541 N539 1.356 . S
N542 C534 1.356 . S
N542 H548 0.984 . S
N542 H549 0.984 1_556 S
N543 C536 1.356 . S
N543 H546 0.984 . S
N543 H547 0.985 . S
H544 N539 0.984 . S
H545 N539 0.985 . S
H546 N543 0.984 . S
H547 N543 0.985 . S
H548 N542 0.984 . S
H549 N542 0.984 1_554 S
H550 N538 0.984 . S
H551 N538 0.985 . S
C552 C553 1.363 . S
C552 C558 1.379 1_455 S
C552 N560 1.356 . S
C553 C552 1.363 . S
C553 C559 1.363 1_455 S
C554 C555 1.363 . S
C554 C559 1.379 . S
C554 N561 1.356 . S
C555 C554 1.363 . S
C555 C558 1.363 . S
N556 C558 1.357 1_455 S
N556 H568 1.002 . S
N556 H569 0.968 1_455 S
N557 C559 1.356 . S
N557 H562 0.984 . S
N557 H563 0.985 . S
C558 C552 1.379 1_655 S
C558 C555 1.363 . S
C558 N556 1.357 1_655 S
C559 C553 1.363 1_655 S
C559 C554 1.379 . S
C559 N557 1.356 . S
N560 C552 1.356 . S
N560 H566 0.984 . S
N560 H567 0.984 . S
N561 C554 1.356 . S
N561 H564 0.984 . S
N561 H565 0.985 . S
H562 N557 0.984 . S
H563 N557 0.985 . S
H564 N561 0.984 . S
H565 N561 0.985 . S
H566 N560 0.984 . S
H567 N560 0.984 . S
H568 N556 1.002 . S
H569 N556 0.968 1_655 S
C570 C571 1.363 . S
C570 C576 1.379 . S
C570 N578 1.356 . S
C571 C570 1.363 . S
C571 C577 1.363 . S
C572 C573 1.363 . S
C572 C577 1.379 . S
C572 N579 1.356 . S
C573 C572 1.363 . S
C573 C576 1.363 . S
N574 C576 1.356 . S
N574 H586 0.984 . S
N574 H587 0.985 . S
N575 C577 1.356 . S
N575 H580 0.984 . S
N575 H581 0.985 . S
C576 C570 1.379 . S
C576 C573 1.363 . S
C576 N574 1.356 . S
C577 C571 1.363 . S
C577 C572 1.379 . S
C577 N575 1.356 . S
N578 C570 1.356 . S
N578 H584 0.984 . S
N578 H585 0.984 . S
N579 C572 1.356 . S
N579 H582 0.984 . S
N579 H583 0.985 . S
H580 N575 0.984 . S
H581 N575 0.985 . S
H582 N579 0.984 . S
H583 N579 0.985 . S
H584 N578 0.984 . S
H585 N578 0.984 . S
H586 N574 0.984 . S
H587 N574 0.985 . S
C588 C589 1.363 . S
C588 C594 1.379 . S
C588 N596 1.356 . S
C589 C588 1.363 . S
C589 C595 1.363 . S
C590 C591 1.363 . S
C590 C595 1.379 . S
C590 N597 1.356 . S
C591 C590 1.363 . S
C591 C594 1.363 . S
N592 C594 1.356 . S
N592 H604 0.984 . S
N592 H605 0.985 . S
N593 C595 1.356 . S
N593 H598 0.984 . S
N593 H599 0.985 . S
C594 C588 1.379 . S
C594 C591 1.363 . S
C594 N592 1.356 . S
C595 C589 1.363 . S
C595 C590 1.379 . S
C595 N593 1.356 . S
N596 C588 1.356 . S
N596 H602 0.984 . S
N596 H603 0.984 . S
N597 C590 1.356 . S
N597 H600 0.984 . S
N597 H601 0.985 . S
H598 N593 0.984 . S
H599 N593 0.985 . S
H600 N597 0.984 . S
H601 N597 0.985 . S
H602 N596 0.984 . S
H603 N596 0.984 . S
H604 N592 0.984 . S
H605 N592 0.985 . S
C606 C607 1.363 . S
C606 C612 1.379 . S
C606 N614 1.356 . S
C607 C606 1.363 . S
C607 C613 1.363 . S
C608 C609 1.363 . S
C608 C613 1.379 . S
C608 N615 1.356 . S
C609 C608 1.363 . S
C609 C612 1.363 . S
N610 C612 1.356 . S
N610 H622 0.984 . S
N610 H623 0.985 . S
N611 C613 1.356 . S
N611 H616 0.984 . S
N611 H617 0.985 . S
C612 C606 1.379 . S
C612 C609 1.363 . S
C612 N610 1.356 . S
C613 C607 1.363 . S
C613 C608 1.379 . S
C613 N611 1.356 . S
N614 C606 1.356 . S
N614 H620 0.984 . S
N614 H621 0.984 . S
N615 C608 1.356 . S
N615 H618 0.984 . S
N615 H619 0.985 . S
H616 N611 0.984 . S
H617 N611 0.985 . S
H618 N615 0.984 . S
H619 N615 0.985 . S
H620 N614 0.984 . S
H621 N614 0.984 . S
H622 N610 0.984 . S
H623 N610 0.985 . S
C624 C625 1.363 1_455 S
C624 C630 1.379 . S
C624 N632 1.356 . S
C625 C624 1.363 1_655 S
C625 C631 1.363 . S
C626 C627 1.363 1_655 S
C626 C631 1.379 . S
C626 N633 1.356 . S
C627 C626 1.363 1_455 S
C627 C630 1.363 . S
N628 C630 1.356 . S
N628 H640 0.984 . S
N628 H641 0.985 . S
N629 C631 1.356 . S
N629 H634 0.984 . S
N629 H635 0.985 . S
C630 C624 1.379 . S
C630 C627 1.363 . S
C630 N628 1.356 . S
C631 C625 1.363 . S
C631 C626 1.379 . S
C631 N629 1.356 . S
N632 C624 1.356 . S
N632 H638 0.984 . S
N632 H639 0.984 . S
N633 C626 1.356 . S
N633 H636 0.984 . S
N633 H637 0.985 . S
H634 N629 0.984 . S
H635 N629 0.985 . S
H636 N633 0.984 . S
H637 N633 0.985 . S
H638 N632 0.984 . S
H639 N632 0.984 . S
H640 N628 0.984 . S
H641 N628 0.985 . S
C642 C643 1.363 . S
C642 C648 1.379 . S
C642 N650 1.356 . S
C643 C642 1.363 . S
C643 C649 1.363 . S
C644 C645 1.363 . S
C644 C649 1.379 . S
C644 N651 1.356 1_565 S
C645 C644 1.363 . S
C645 C648 1.363 . S
N646 C648 1.356 . S
N646 H658 0.984 1_556 S
N646 H659 0.985 . S
N647 C649 1.356 . S
N647 H652 0.984 . S
N647 H653 0.985 . S
C648 C642 1.379 . S
C648 C645 1.363 . S
C648 N646 1.356 . S
C649 C643 1.363 . S
C649 C644 1.379 . S
C649 N647 1.356 . S
N650 C642 1.356 . S
N650 H656 0.984 . S
N650 H657 0.984 . S
N651 C644 1.356 1_545 S
N651 H654 0.984 . S
N651 H655 0.985 . S
H652 N647 0.984 . S
H653 N647 0.985 . S
H654 N651 0.984 . S
H655 N651 0.985 . S
H656 N650 0.984 . S
H657 N650 0.984 . S
H658 N646 0.984 1_554 S
H659 N646 0.985 . S
C660 C661 1.363 . S
C660 C666 1.379 . S
C660 N668 1.356 . S
C661 C660 1.363 . S
C661 C667 1.363 . S
C662 C663 1.363 . S
C662 C667 1.379 . S
C662 N669 1.356 . S
C663 C662 1.363 . S
C663 C666 1.363 . S
N664 C666 1.356 . S
N664 H676 0.984 1_556 S
N664 H677 0.985 . S
N665 C667 1.356 . S
N665 H670 0.984 . S
N665 H671 0.985 . S
C666 C660 1.379 . S
C666 C663 1.363 . S
C666 N664 1.356 . S
C667 C661 1.363 . S
C667 C662 1.379 . S
C667 N665 1.356 . S
N668 C660 1.356 . S
N668 H674 0.984 1_556 S
N668 H675 0.984 . S
N669 C662 1.356 . S
N669 H672 0.984 . S
N669 H673 0.985 . S
H670 N665 0.984 . S
H671 N665 0.985 . S
H672 N669 0.984 . S
H673 N669 0.985 . S
H674 N668 0.984 1_554 S
H675 N668 0.984 . S
H676 N664 0.984 1_554 S
H677 N664 0.985 . S
C678 C679 1.363 . S
C678 C684 1.379 . S
C678 N686 1.356 . S
C679 C678 1.363 . S
C679 C685 1.363 . S
C680 C681 1.363 . S
C680 C685 1.379 . S
C680 N687 1.356 . S
C681 C680 1.363 . S
C681 C684 1.363 . S
N682 C684 1.356 . S
N682 H694 0.984 . S
N682 H695 0.985 . S
N683 C685 1.356 . S
N683 H688 0.984 . S
N683 H689 0.985 1_556 S
C684 C678 1.379 . S
C684 C681 1.363 . S
C684 N682 1.356 . S
C685 C679 1.363 . S
C685 C680 1.379 . S
C685 N683 1.356 . S
N686 C678 1.356 . S
N686 H692 0.984 . S
N686 H693 0.984 . S
N687 C680 1.356 . S
N687 H690 0.984 . S
N687 H691 0.985 1_556 S
H688 N683 0.984 . S
H689 N683 0.985 1_554 S
H690 N687 0.984 . S
H691 N687 0.985 1_554 S
H692 N686 0.984 . S
H693 N686 0.984 . S
H694 N682 0.984 . S
H695 N682 0.985 . S
C696 C697 1.363 1_655 S
C696 C702 1.379 . S
C696 N704 1.356 . S
C697 C696 1.363 1_455 S
C697 C703 1.363 . S
C698 C699 1.363 . S
C698 C703 1.379 . S
C698 N705 1.356 . S
C699 C698 1.363 . S
C699 C702 1.363 1_455 S
N700 C702 1.356 1_556 S
N700 H712 0.984 . S
N700 H713 0.985 . S
N701 C703 1.356 . S
N701 H706 0.984 . S
N701 H707 0.985 . S
C702 C696 1.379 . S
C702 C699 1.363 1_655 S
C702 N700 1.356 1_554 S
C703 C697 1.363 . S
C703 C698 1.379 . S
C703 N701 1.356 . S
N704 C696 1.356 . S
N704 H710 0.984 1_554 S
N704 H711 0.984 . S
N705 C698 1.356 . S
N705 H708 0.984 . S
N705 H709 0.985 . S
H706 N701 0.984 . S
H707 N701 0.985 . S
H708 N705 0.984 . S
H709 N705 0.985 . S
H710 N704 0.984 1_556 S
H711 N704 0.984 . S
H712 N700 0.984 . S
H713 N700 0.985 . S
C714 C715 1.363 . S
C714 C720 1.379 . S
C714 N722 1.356 . S
C715 C714 1.363 . S
C715 C721 1.363 . S
C716 C717 1.363 . S
C716 C721 1.379 . S
C716 N723 1.356 . S
C717 C716 1.363 . S
C717 C720 1.363 . S
N718 C720 1.356 1_556 S
N718 H730 0.984 . S
N718 H731 0.985 . S
N719 C721 1.356 . S
N719 H724 0.984 . S
N719 H725 0.985 . S
C720 C714 1.379 . S
C720 C717 1.363 . S
C720 N718 1.356 1_554 S
C721 C715 1.363 . S
C721 C716 1.379 . S
C721 N719 1.356 . S
N722 C714 1.356 . S
N722 H728 0.984 1_554 S
N722 H729 0.984 . S
N723 C716 1.356 . S
N723 H726 0.984 . S
N723 H727 0.985 . S
H724 N719 0.984 . S
H725 N719 0.985 . S
H726 N723 0.984 . S
H727 N723 0.985 . S
H728 N722 0.984 1_556 S
H729 N722 0.984 . S
H730 N718 0.984 . S
H731 N718 0.985 . S
C732 C733 1.363 1_556 S
C732 C738 1.379 . S
C732 N740 1.356 . S
C733 C732 1.363 1_554 S
C733 C739 1.363 . S
C734 C735 1.363 1_554 S
C734 C739 1.379 . S
C734 N741 1.356 . S
C735 C734 1.363 1_556 S
C735 C738 1.363 . S
N736 C738 1.356 . S
N736 H748 0.984 . S
N736 H749 0.985 . S
N737 C739 1.356 . S
N737 H742 0.984 . S
N737 H743 0.985 . S
C738 C732 1.379 . S
C738 C735 1.363 . S
C738 N736 1.356 . S
C739 C733 1.363 . S
C739 C734 1.379 . S
C739 N737 1.356 . S
N740 C732 1.356 . S
N740 H746 0.984 . S
N740 H747 0.984 1_556 S
N741 C734 1.356 . S
N741 H744 0.984 . S
N741 H745 0.985 . S
H742 N737 0.984 . S
H743 N737 0.985 . S
H744 N741 0.984 . S
H745 N741 0.985 . S
H746 N740 0.984 . S
H747 N740 0.984 1_554 S
H748 N736 0.984 . S
H749 N736 0.985 . S
C750 C751 1.363 . S
C750 C756 1.379 . S
C750 N758 1.356 . S
C751 C750 1.363 . S
C751 C757 1.363 1_554 S
C752 C753 1.363 . S
C752 C757 1.379 . S
C752 N759 1.356 . S
C753 C752 1.363 . S
C753 C756 1.363 1_556 S
N754 C756 1.356 . S
N754 H766 0.984 . S
N754 H767 0.985 . S
N755 C757 1.356 . S
N755 H760 0.984 1_556 S
N755 H761 0.985 . S
C756 C750 1.379 . S
C756 C753 1.363 1_554 S
C756 N754 1.356 . S
C757 C751 1.363 1_556 S
C757 C752 1.379 . S
C757 N755 1.356 . S
N758 C750 1.356 . S
N758 H764 0.984 . S
N758 H765 0.984 . S
N759 C752 1.356 . S
N759 H762 0.984 . S
N759 H763 0.985 . S
H760 N755 0.984 1_554 S
H761 N755 0.985 . S
H762 N759 0.984 . S
H763 N759 0.985 . S
H764 N758 0.984 . S
H765 N758 0.984 . S
H766 N754 0.984 . S
H767 N754 0.985 . S
C768 C769 1.363 . S
C768 C774 1.379 . S
C768 N776 1.356 . S
C769 C768 1.363 . S
C769 C775 1.363 1_655 S
C770 C771 1.363 1_455 S
C770 C775 1.379 . S
C770 N777 1.356 . S
C771 C770 1.363 1_655 S
C771 C774 1.363 . S
N772 C774 1.356 . S
N772 H784 0.984 . S
N772 H785 0.985 . S
N773 C775 1.356 . S
N773 H778 0.984 . S
N773 H779 0.985 . S
C774 C768 1.379 . S
C774 C771 1.363 . S
C774 N772 1.356 . S
C775 C769 1.363 1_455 S
C775 C770 1.379 . S
C775 N773 1.356 . S
N776 C768 1.356 . S
N776 H782 0.984 . S
N776 H783 0.984 . S
N777 C770 1.356 . S
N777 H780 0.984 . S
N777 H781 0.985 . S
H778 N773 0.984 . S
H779 N773 0.985 . S
H780 N777 0.984 . S
H781 N777 0.985 . S
H782 N776 0.984 . S
H783 N776 0.984 . S
H784 N772 0.984 . S
H785 N772 0.985 . S
C786 C787 1.363 . S
C786 C792 1.379 . S
C786 N794 1.356 . S
C787 C786 1.363 . S
C787 C793 1.363 . S
C788 C789 1.363 . S
C788 C793 1.379 . S
C788 N795 1.356 . S
C789 C788 1.363 . S
C789 C792 1.363 . S
N790 C792 1.356 1_545 S
N790 H802 0.984 . S
N790 H803 0.985 . S
N791 C793 1.356 . S
N791 H796 0.984 . S
N791 H797 0.985 . S
C792 C786 1.379 . S
C792 C789 1.363 . S
C792 N790 1.356 1_565 S
C793 C787 1.363 . S
C793 C788 1.379 . S
C793 N791 1.356 . S
N794 C786 1.356 . S
N794 H800 0.984 1_565 S
N794 H801 0.984 . S
N795 C788 1.356 . S
N795 H798 0.984 . S
N795 H799 0.985 . S
H796 N791 0.984 . S
H797 N791 0.985 . S
H798 N795 0.984 . S
H799 N795 0.985 . S
H800 N794 0.984 1_545 S
H801 N794 0.984 . S
H802 N790 0.984 . S
H803 N790 0.985 . S
C804 C805 1.363 . S
C804 C810 1.379 . S
C804 N812 1.356 . S
C805 C804 1.363 . S
C805 C811 1.363 . S
C806 C807 1.363 . S
C806 C811 1.379 . S
C806 N813 1.356 . S
C807 C806 1.363 . S
C807 C810 1.363 . S
N808 C810 1.356 . S
N808 H820 0.984 . S
N808 H821 0.985 . S
N809 C811 1.356 . S
N809 H814 0.984 . S
N809 H815 0.985 . S
C810 C804 1.379 . S
C810 C807 1.363 . S
C810 N808 1.356 . S
C811 C805 1.363 . S
C811 C806 1.379 . S
C811 N809 1.356 . S
N812 C804 1.356 . S
N812 H818 0.984 . S
N812 H819 0.984 . S
N813 C806 1.356 . S
N813 H816 0.984 . S
N813 H817 0.985 . S
H814 N809 0.984 . S
H815 N809 0.985 . S
H816 N813 0.984 . S
H817 N813 0.985 . S
H818 N812 0.984 . S
H819 N812 0.984 . S
H820 N808 0.984 . S
H821 N808 0.985 . S
C822 C823 1.363 . S
C822 C828 1.379 . S
C822 N830 1.356 . S
C823 C822 1.363 . S
C823 C829 1.363 . S
C824 C825 1.363 . S
C824 C829 1.379 . S
C824 N831 1.356 . S
C825 C824 1.363 . S
C825 C828 1.363 . S
N826 C828 1.356 . S
N826 H838 0.984 . S
N826 H839 0.985 . S
N827 C829 1.356 . S
N827 H832 0.984 . S
N827 H833 0.985 . S
C828 C822 1.379 . S
C828 C825 1.363 . S
C828 N826 1.356 . S
C829 C823 1.363 . S
C829 C824 1.379 . S
C829 N827 1.356 . S
N830 C822 1.356 . S
N830 H836 0.984 . S
N830 H837 0.984 . S
N831 C824 1.356 . S
N831 H834 0.984 . S
N831 H835 0.985 . S
H832 N827 0.984 . S
H833 N827 0.985 . S
H834 N831 0.984 . S
H835 N831 0.985 . S
H836 N830 0.984 . S
H837 N830 0.984 . S
H838 N826 0.984 . S
H839 N826 0.985 . S
C409 C241 1.941 . S
C411 C298 1.962 . S
C429 C328 1.817 . S
C427 C277 1.803 . S
C447 N362 1.878 . S
C445 C169 1.829 . S
C465 N392 1.492 . S
C463 C205 1.541 1_655 S
C483 C289 1.966 1_565 S
C481 C97 1.863 1_556 S
C499 C133 1.784 1_556 S
C501 C319 1.817 . S
C517 C25 1.754 . S
C519 N354 1.878 . S
C535 C61 1.518 . S
C537 N384 1.494 . S
C555 C304 0.658 . S
C553 C211 0.711 . S
C573 C334 1.212 . S
C571 C247 1.124 . S
C591 C375 0.952 . S
C589 C253 0.944 . S
C607 C175 1.088 . S
C609 C405 1.093 . S
C625 C67 0.744 1_655 S
C627 C315 0.654 . S
C645 C345 1.212 1_565 S
C643 C103 1.040 . S
C663 C364 0.952 . S
C661 C109 0.939 . S
C679 C31 0.991 . S
C681 C394 1.099 . S
C697 C181 1.705 . S
C699 N294 1.810 . S
C715 C217 1.853 . S
C717 N324 1.957 . S
C735 C349 2.011 . S
C733 C283 1.888 . S
C753 C379 2.209 . S
C751 C145 2.097 . S
C769 C37 1.718 1_655 S
C771 N302 1.811 . S
C789 N332 1.957 . S
C787 C73 1.820 . S
C807 C358 2.010 . S
C805 C139 1.854 . S
C823 C1 2.046 . S
C825 C388 2.212 . S
