# Generated by pormake.
# Topology zzz, (3,6)-cn, num edge types: 1
# Building blocks:
#     Node 0, Type 0, BuildingBlock: CUQRIR_clean_linker_1, # of connection points: 3
#     Node 1, Type 0, BuildingBlock: CUQRIR_clean_linker_1, # of connection points: 3
#     Node 2, Type 0, BuildingBlock: CUQRIR_clean_linker_1, # of connection points: 3
#     Node 3, Type 0, BuildingBlock: CUQRIR_clean_linker_1, # of connection points: 3
#     Node 4, Type 0, BuildingBlock: CUQRIR_clean_linker_1, # of connection points: 3
#     Node 5, Type 0, BuildingBlock: CUQRIR_clean_linker_1, # of connection points: 3
#     Node 6, Type 0, BuildingBlock: CUQRIR_clean_linker_1, # of connection points: 3
#     Node 7, Type 0, BuildingBlock: CUQRIR_clean_linker_1, # of connection points: 3
#     Node 8, Type 1, BuildingBlock: CUWYAW_clean_sbu_0, # of connection points: 6
#     Node 9, Type 1, BuildingBlock: CUWYAW_clean_sbu_0, # of connection points: 6
#     Node 10, Type 1, BuildingBlock: CUWYAW_clean_sbu_0, # of connection points: 6
#     Node 11, Type 1, BuildingBlock: CUWYAW_clean_sbu_0, # of connection points: 6
#     Edge 12, Type (0, 1), BuildingBlock: OJICUG_clean_linker_0, # of connection points: 2
#     Edge 13, Type (0, 1), BuildingBlock: OJICUG_clean_linker_0, # of connection points: 2
#     Edge 14, Type (0, 1), BuildingBlock: OJICUG_clean_linker_0, # of connection points: 2
#     Edge 15, Type (0, 1), BuildingBlock: OJICUG_clean_linker_0, # of connection points: 2
#     Edge 16, Type (0, 1), BuildingBlock: OJICUG_clean_linker_0, # of connection points: 2
#     Edge 17, Type (0, 1), BuildingBlock: OJICUG_clean_linker_0, # of connection points: 2
#     Edge 18, Type (0, 1), BuildingBlock: OJICUG_clean_linker_0, # of connection points: 2
#     Edge 19, Type (0, 1), BuildingBlock: OJICUG_clean_linker_0, # of connection points: 2
#     Edge 20, Type (0, 1), BuildingBlock: OJICUG_clean_linker_0, # of connection points: 2
#     Edge 21, Type (0, 1), BuildingBlock: OJICUG_clean_linker_0, # of connection points: 2
#     Edge 22, Type (0, 1), BuildingBlock: OJICUG_clean_linker_0, # of connection points: 2
#     Edge 23, Type (0, 1), BuildingBlock: OJICUG_clean_linker_0, # of connection points: 2
#     Edge 24, Type (0, 1), BuildingBlock: OJICUG_clean_linker_0, # of connection points: 2
#     Edge 25, Type (0, 1), BuildingBlock: OJICUG_clean_linker_0, # of connection points: 2
#     Edge 26, Type (0, 1), BuildingBlock: OJICUG_clean_linker_0, # of connection points: 2
#     Edge 27, Type (0, 1), BuildingBlock: OJICUG_clean_linker_0, # of connection points: 2
#     Edge 28, Type (0, 1), BuildingBlock: OJICUG_clean_linker_0, # of connection points: 2
#     Edge 29, Type (0, 1), BuildingBlock: OJICUG_clean_linker_0, # of connection points: 2
#     Edge 30, Type (0, 1), BuildingBlock: OJICUG_clean_linker_0, # of connection points: 2
#     Edge 31, Type (0, 1), BuildingBlock: OJICUG_clean_linker_0, # of connection points: 2
#     Edge 32, Type (0, 1), BuildingBlock: OJICUG_clean_linker_0, # of connection points: 2
#     Edge 33, Type (0, 1), BuildingBlock: OJICUG_clean_linker_0, # of connection points: 2
#     Edge 34, Type (0, 1), BuildingBlock: OJICUG_clean_linker_0, # of connection points: 2
#     Edge 35, Type (0, 1), BuildingBlock: OJICUG_clean_linker_0, # of connection points: 2
# Relax obj value: 0.448
# Max RMSD: 0.198
# Mean RMSD: 0.135
data_MOF--net-zzz--node1-CUWYAW_clean_sbu_0--node2-CUQRIR_clean_linker_1--edge1-OJICUG_clean_linker_0
_symmetry_space_group_name_H-M    P1
_symmetry_Int_Tables_number       1
_symmetry_cell_setting            triclinic
loop_
_symmetry_equiv_pos_as_xyz
'x, y, z'
_cell_length_a     33.571128
_cell_length_b     33.638059
_cell_length_c     9.0786442
_cell_angle_alpha  90.18254
_cell_angle_beta   90.120808
_cell_angle_gamma 90.031567
loop_
_atom_site_label
_atom_site_type_symbol
_atom_site_fract_x
_atom_site_fract_y
_atom_site_fract_z
_atom_type_partial_charge
C0 C 0.76116 0.5432 0.43626 0.0
N1 N 0.79027 0.51538 0.46095 0.0
N2 N 0.7309 0.52816 0.35038 0.0
C3 C 0.76216 0.58473 0.49571 0.0
C4 C 0.74315 0.49063 0.32138 0.0
N5 N 0.77817 0.48285 0.38945 0.0
C6 C 0.72008 0.46128 0.2274 0.0
H7 H 0.73147 0.59595 0.51388 0.0
H8 H 0.77696 0.60423 0.41407 0.0
H9 H 0.7794 0.58599 0.60006 0.0
H10 H 0.70661 0.47658 0.13129 0.0
H11 H 0.69563 0.44824 0.29326 0.0
H12 H 0.7383 0.43611 0.18769 0.0
C13 C 1.01613 0.76591 0.41676 0.0
N14 N 0.04543 0.79121 0.46468 0.0
N15 N 1.03155 0.73583 0.33289 0.0
C16 C 0.97257 0.77224 0.44229 0.0
C17 C 0.07078 0.74417 0.32918 0.0
N18 N 0.07936 0.7771 0.40903 0.0
C19 C 0.09962 0.7232 0.2288 0.0
H20 H 0.96757 0.78467 0.55413 0.0
H21 H 0.95587 0.74398 0.42855 0.0
H22 H 0.9613 0.79405 0.36078 0.0
H23 H 0.09607 0.73477 0.11527 0.0
H24 H 0.09252 0.69119 0.2235 0.0
H25 H 0.13087 0.72784 0.26456 0.0
C26 C 0.8005 1.02364 0.42363 0.0
N27 N 0.77482 0.0529 0.46813 0.0
N28 N 0.82723 0.03763 0.32281 0.0
C29 C 0.79726 0.98099 0.46848 0.0
C30 C 0.81662 0.07603 0.30635 0.0
N31 N 0.78562 0.08545 0.39481 0.0
C32 C 0.83405 0.10301 0.19095 0.0
H33 H 0.7877 0.9789 0.58517 0.0
H34 H 0.82608 0.96539 0.45279 0.0
H35 H 0.77433 0.96625 0.3991 0.0
H36 H 0.81856 0.09767 0.08468 0.0
H37 H 0.86581 0.09601 0.17226 0.0
H38 H 0.83051 0.13476 0.22126 0.0
C39 C 0.55935 0.7988 0.42102 0.0
N40 N 0.52975 0.77312 0.46221 0.0
N41 N 0.54436 0.82996 0.34183 0.0
C42 C 0.60273 0.79211 0.44954 0.0
C43 C 0.50514 0.82182 0.33368 0.0
N44 N 0.49612 0.78813 0.40735 0.0
C45 C 0.47685 0.84409 0.235 0.0
H46 H 0.6071 0.77982 0.56173 0.0
H47 H 0.6198 0.82017 0.43707 0.0
H48 H 0.61409 0.76997 0.36911 0.0
H49 H 0.48104 0.83391 0.11973 0.0
H50 H 0.4839 0.87614 0.23642 0.0
H51 H 0.44541 0.83913 0.26675 0.0
C52 C 0.30523 0.5071 0.24391 0.0
N53 N 0.27827 0.53656 0.21211 0.0
N54 N 0.33536 0.52084 0.333 0.0
C55 C 0.30034 0.46457 0.19888 0.0
C56 C 0.32519 0.55909 0.35686 0.0
N57 N 0.29159 0.56875 0.28277 0.0
C58 C 0.3451 0.58515 0.47087 0.0
H59 H 0.27922 0.44998 0.27548 0.0
H60 H 0.32929 0.4487 0.20361 0.0
H61 H 0.28761 0.46276 0.08612 0.0
H62 H 0.37761 0.57988 0.473 0.0
H63 H 0.3337 0.57711 0.58144 0.0
H64 H 0.33883 0.61703 0.45241 0.0
C65 C 0.04956 0.29729 0.27749 0.0
N66 N 1.01999 0.27168 0.23494 0.0
N67 N 0.03514 0.32636 0.3682 0.0
C68 C 0.09267 0.29208 0.2405 0.0
C69 C 0.99627 0.31716 0.38145 0.0
N70 N 0.9869 0.28469 0.30033 0.0
C71 C 0.96893 0.33692 0.49081 0.0
H72 H 0.10901 0.3206 0.25267 0.0
H73 H 0.09583 0.2805 0.1265 0.0
H74 H 0.10586 0.26999 0.31687 0.0
H75 H 0.97583 0.36895 0.49973 0.0
H76 H 0.97429 0.32412 0.60153 0.0
H77 H 0.93719 0.33243 0.46139 0.0
C78 C 0.27011 0.05194 0.29263 0.0
N79 N 0.29637 1.02298 0.2501 0.0
N80 N 0.23985 0.03646 0.3752 0.0
C81 C 0.27564 0.09534 0.26336 0.0
C82 C 0.24911 0.99758 0.38398 0.0
N83 N 0.28265 0.98923 0.30778 0.0
C84 C 0.22846 0.96915 0.48638 0.0
H85 H 0.24696 0.11149 0.27394 0.0
H86 H 0.2883 0.09978 0.15177 0.0
H87 H 0.29705 0.10763 0.34492 0.0
H88 H 0.19621 0.9755 0.48965 0.0
H89 H 0.23979 0.97382 0.59997 0.0
H90 H 0.23384 0.9378 0.4542 0.0
C91 C 0.5216 0.27314 0.32662 0.0
N92 N 0.54718 0.30387 0.29955 0.0
N93 N 0.53858 0.24573 0.41776 0.0
C94 C 0.47946 0.27116 0.27269 0.0
C95 C 0.57519 0.26097 0.4446 0.0
N96 N 0.58048 0.29602 0.37406 0.0
C97 C 0.60309 0.24535 0.56155 0.0
H98 H 0.46007 0.28735 0.35143 0.0
H99 H 0.4692 0.23983 0.26608 0.0
H100 H 0.47674 0.28554 0.16328 0.0
H101 H 0.6344 0.24723 0.52413 0.0
H102 H 0.59647 0.21408 0.59039 0.0
H103 H 0.60017 0.26391 0.66224 0.0
C104 C 0.97841 0.0648 0.48612 0.0
Eu105 Eu 1.01143 0.04101 0.72942 0.0
C106 C 0.94766 0.09149 0.43284 0.0
C107 C 0.91609 0.10391 0.52257 0.0
C108 C 0.89243 0.13581 0.47825 0.0
C109 C 0.90194 0.15657 0.34832 0.0
C110 C 0.92926 0.13933 0.24912 0.0
C111 C 0.95187 0.10694 0.29179 0.0
C112 C 0.96207 1.01424 0.95115 0.0
C113 C 1.02682 0.11279 0.96598 0.0
C114 C 0.08879 0.99927 0.20976 0.0
Eu115 Eu 0.05533 1.02275 0.96675 0.0
C116 C 0.11877 0.97193 0.26471 0.0
C117 C 0.15002 0.95832 0.1759 0.0
C118 C 0.17284 0.92602 0.22218 0.0
C119 C 0.16303 0.90619 0.35388 0.0
C120 C 0.13585 0.92434 0.45134 0.0
C121 C 0.11397 0.95703 0.40637 0.0
C122 C 0.10415 0.051 0.74652 0.0
C123 C 0.03948 0.95079 0.7306 0.0
O124 O 1.01019 0.08147 0.5423 0.0
O125 O 0.96628 0.03423 0.56102 0.0
O126 O 0.95992 1.00397 0.8145 0.0
O127 O 0.99075 0.03839 0.9669 0.0
O128 O 1.01925 0.10489 0.82542 0.0
O129 O 0.03548 0.08278 0.05246 0.0
O130 O 0.05619 0.98336 0.15706 0.0
O131 O 0.10167 1.02883 0.13109 0.0
O132 O 0.10591 0.06123 0.88325 0.0
O133 O 0.07614 1.02606 0.72992 0.0
O134 O 0.04737 0.95882 0.87085 0.0
O135 O 1.03068 0.98073 0.64408 0.0
H136 H 0.91163 0.091 0.63048 0.0
H137 H 0.87055 0.14752 0.55441 0.0
H138 H 0.93692 0.15338 0.14589 0.0
H139 H 0.9749 0.09602 0.21935 0.0
H140 H 0.15487 0.97066 0.06734 0.0
H141 H 0.19457 0.91357 0.14705 0.0
H142 H 0.12783 0.91092 0.55534 0.0
H143 H 0.0911 0.96874 0.4778 0.0
C144 C 0.50558 0.98165 0.51626 0.0
Eu145 Eu 0.52895 1.01541 0.75939 0.0
C146 C 0.47847 0.95139 0.46127 0.0
C147 C 0.46484 0.92039 0.55068 0.0
C148 C 0.4324 0.89755 0.50463 0.0
C149 C 0.4125 0.90707 0.37243 0.0
C150 C 0.43056 0.93411 0.27475 0.0
C151 C 0.4634 0.95598 0.31948 0.0
C152 C 0.55839 0.96668 0.97851 0.0
C153 C 0.45708 1.03009 0.99421 0.0
C154 C 0.57095 0.09283 0.24154 0.0
Eu155 Eu 0.54737 0.05921 0.99772 0.0
C156 C 0.59533 0.12552 0.29607 0.0
C157 C 0.60583 0.15775 0.2067 0.0
C158 C 0.63572 0.18381 0.25351 0.0
C159 C 0.65722 0.17528 0.38329 0.0
C160 C 0.64005 0.14873 0.48499 0.0
C161 C 0.60974 0.12346 0.43983 0.0
C162 C 0.51888 0.10815 0.7778 0.0
C163 C 0.61837 0.04535 0.75609 0.0
O164 O 0.48921 1.01388 0.5694 0.0
O165 O 0.53553 0.96923 0.59462 0.0
O166 O 0.56838 0.96538 0.84164 0.0
O167 O 0.53324 0.99439 0.99647 0.0
O168 O 0.46503 1.02289 0.85372 0.0
O169 O 0.48717 0.03859 0.0817 0.0
O170 O 0.58966 0.06298 0.18048 0.0
O171 O 0.53878 0.10274 0.17077 0.0
O172 O 0.50903 0.10991 0.91466 0.0
O173 O 0.54365 0.08012 0.76117 0.0
O174 O 0.6112 0.05197 0.89794 0.0
O175 O 0.58782 0.03713 0.67096 0.0
H176 H 0.47725 0.91581 0.65958 0.0
H177 H 0.41993 0.87602 0.58011 0.0
H178 H 0.41702 0.94196 0.17052 0.0
H179 H 0.47506 0.97871 0.24779 0.0
H180 H 0.59322 0.16096 0.09743 0.0
H181 H 0.64659 0.20587 0.17675 0.0
H182 H 0.65381 0.14263 0.59045 0.0
H183 H 0.59975 0.10029 0.51313 0.0
C184 C 0.62793 0.50501 0.672 0.0
Eu185 Eu 0.56167 0.52937 0.78944 0.0
C186 C 0.65872 0.47808 0.73061 0.0
C187 C 0.69087 0.4681 0.64067 0.0
C188 C 0.70168 0.42818 0.62665 0.0
C189 C 0.68004 0.39999 0.70677 0.0
C190 C 0.66303 0.41307 0.84011 0.0
C191 C 0.64954 0.45241 0.84729 0.0
C192 C 0.5858 0.56519 0.04605 0.0
C193 C 0.53202 0.4572 1.00302 0.0
C194 C 0.43855 0.56616 0.09643 0.0
Eu195 Eu 0.49939 0.54301 0.93938 0.0
C196 C 0.42231 0.59857 0.18537 0.0
C197 C 0.38789 0.61851 0.13833 0.0
C198 C 0.37525 0.65258 0.21241 0.0
C199 C 0.39706 0.66678 0.33401 0.0
C200 C 0.42784 0.64327 0.39278 0.0
C201 C 0.44076 0.60975 0.31785 0.0
C202 C 0.47372 0.50209 0.69457 0.0
C203 C 0.5294 0.6136 0.72467 0.0
O204 O 0.59334 0.48873 0.64328 0.0
O205 O 0.62446 0.53919 0.73698 0.0
O206 O 0.5917 0.57935 0.91643 0.0
O207 O 0.56058 0.53731 1.03498 0.0
O208 O 0.55224 0.46599 0.88277 0.0
O209 O 0.51006 0.48529 0.06109 0.0
O210 O 0.46977 0.5481 0.14861 0.0
O211 O 0.44056 0.57106 0.9544 0.0
O212 O 0.46854 0.49157 0.82926 0.0
O213 O 0.49883 0.53066 0.69316 0.0
O214 O 0.51588 0.60663 0.8594 0.0
O215 O 0.54401 0.58295 0.65269 0.0
H216 H 0.70293 0.48971 0.56728 0.0
H217 H 0.71962 0.41927 0.53325 0.0
H218 H 0.65054 0.39159 0.91558 0.0
H219 H 0.62764 0.46059 0.92914 0.0
H220 H 0.37232 0.60922 0.03936 0.0
H221 H 0.35134 0.67015 0.16566 0.0
H222 H 0.44532 0.65328 0.48629 0.0
H223 H 0.46646 0.59398 0.36013 0.0
C224 C 0.06568 0.58629 0.48637 0.0
Eu225 Eu 0.04203 0.55282 0.72855 0.0
C226 C 0.09431 0.61536 0.43442 0.0
C227 C 0.10958 0.64501 0.52748 0.0
C228 C 0.14355 0.66594 0.48548 0.0
C229 C 0.16315 0.65589 0.35341 0.0
C230 C 0.14366 0.6307 0.25184 0.0
C231 C 0.10945 0.61057 0.29284 0.0
C232 C 1.01502 0.60183 0.95152 0.0
C233 C 0.11554 0.53626 0.96009 0.0
C234 C 1.00122 0.47601 0.20744 0.0
Eu235 Eu 1.02453 0.50927 0.96466 0.0
C236 C 0.97419 0.44525 0.25757 0.0
C237 C 0.96207 0.4141 0.1648 0.0
C238 C 0.92952 0.39072 0.20441 0.0
C239 C 0.90803 0.39994 0.3331 0.0
C240 C 0.92472 0.42689 0.43538 0.0
C241 C 0.95769 0.44931 0.39724 0.0
C242 C 0.05213 0.46048 0.74318 0.0
C243 C 0.9513 0.52391 0.72872 0.0
O244 O 0.08045 0.55291 0.53531 0.0
O245 O 0.03685 0.59981 0.5677 0.0
O246 O 1.00407 0.60352 0.81556 0.0
O247 O 0.03983 0.57373 0.96623 0.0
O248 O 0.10672 0.54432 0.82057 0.0
O249 O 0.08571 0.52784 0.04826 0.0
O250 O 0.98476 0.50814 0.15426 0.0
O251 O 1.03158 0.46396 0.1307 0.0
O252 O 0.06268 0.45867 0.87946 0.0
O253 O 1.02708 0.48833 0.7278 0.0
O254 O 0.95988 0.51568 0.86846 0.0
O255 O 0.98114 0.53383 0.64266 0.0
H256 H 0.09727 0.64971 0.63638 0.0
H257 H 0.1573 0.68602 0.56408 0.0
H258 H 0.1571 0.62253 0.14778 0.0
H259 H 0.09675 0.58879 0.21858 0.0
H260 H 0.97563 0.4099 0.05769 0.0
H261 H 0.91794 0.36939 0.12555 0.0
H262 H 0.90985 0.43441 0.53742 0.0
H263 H 0.96822 0.47214 0.47179 0.0
C264 C 0.21144 0.06019 0.6098 0.0
C265 C 0.2074 0.05457 0.4569 0.0
H266 H 0.18242 0.0633 0.82017 0.0
C267 C 0.16858 0.05296 0.39841 0.0
H268 H 0.24085 0.06028 0.65901 0.0
C269 C 0.13483 0.0534 0.49109 0.0
C270 C 0.1391 0.05567 0.64487 0.0
H271 H 0.16473 0.048 0.28158 0.0
H272 H 0.10543 0.05054 0.44332 0.0
C273 C 0.17781 0.06105 0.70232 0.0
C274 C 0.51566 0.21613 0.65136 0.0
C275 C 0.52111 0.21277 0.4982 0.0
H276 H 0.51112 0.18611 0.85877 0.0
C277 C 0.51981 0.17457 0.43527 0.0
H278 H 0.51695 0.24514 0.70328 0.0
C279 C 0.51724 0.14036 0.52485 0.0
C280 C 0.51576 0.14374 0.67919 0.0
H281 H 0.52353 0.17127 0.31762 0.0
H282 H 0.51794 0.11121 0.47423 0.0
C283 C 0.51291 0.18216 0.74051 0.0
C284 C 0.36539 0.49576 0.5627 0.0
C285 C 0.36811 0.50125 0.40976 0.0
H286 H 0.39564 0.49207 0.76964 0.0
C287 C 0.40656 0.5011 0.34765 0.0
H288 H 0.33646 0.49647 0.61516 0.0
C289 C 0.44132 0.50059 0.43715 0.0
C290 C 0.43834 0.49859 0.59157 0.0
H291 H 0.40937 0.50379 0.22986 0.0
H292 H 0.47036 0.50259 0.3862 0.0
C293 C 0.39972 0.49415 0.65161 0.0
C294 C 0.05396 0.39677 0.39328 0.0
C295 C 0.05435 0.35802 0.45068 0.0
H296 H 0.05269 0.45976 0.4404 0.0
C297 C 0.05976 0.35364 0.60343 0.0
H298 H 0.04947 0.40078 0.2764 0.0
C299 C 0.06118 0.38701 0.69709 0.0
C300 C 0.0566 0.42575 0.64071 0.0
H301 H 0.05908 0.32423 0.65156 0.0
H302 H 0.06307 0.38226 0.81484 0.0
C303 C 0.05486 0.4303 0.48711 0.0
C304 C 0.85426 1.01433 0.08487 0.0
C305 C 0.85851 1.01828 0.23849 0.0
H306 H 0.88324 1.01019 0.87471 0.0
C307 C 0.89706 1.01523 0.29807 0.0
H308 H 0.82506 1.01733 1.03518 0.0
C309 C 0.93081 1.0123 0.20579 0.0
C310 C 0.92667 1.01191 0.05163 0.0
H311 H 0.90105 1.01824 0.41571 0.0
H312 H 0.96025 1.01178 0.25443 0.0
C313 C 0.88778 1.01093 0.99286 0.0
C314 C 0.56927 0.85935 0.1112 0.0
C315 C 0.56285 0.86277 0.26379 0.0
H316 H 0.57278 0.88904 0.90244 0.0
C317 C 0.56027 0.90134 0.32382 0.0
H318 H 0.57003 0.83016 0.06061 0.0
C319 C 0.56047 0.9353 0.23269 0.0
C320 C 0.56354 0.93158 0.07895 0.0
H321 H 0.55447 0.9048 0.44026 0.0
H322 H 0.55668 0.96442 0.28156 0.0
C323 C 0.56995 0.89322 1.02029 0.0
C324 C 0.6571 0.52363 0.32931 0.0
C325 C 0.69271 0.54486 0.30364 0.0
H326 H 0.59578 0.51404 0.27497 0.0
C327 C 0.69072 0.57745 0.20728 0.0
H328 H 0.65705 0.49742 0.39624 0.0
C329 C 0.65492 0.58642 0.13172 0.0
C330 C 0.62015 0.56321 0.15185 0.0
H331 H 0.71749 0.594 0.18192 0.0
H332 H 0.65519 0.60995 0.05058 0.0
C333 C 0.62148 0.5329 0.257 0.0
C334 C 1.00911 0.70889 0.09339 0.0
C335 C 1.01323 0.70425 0.24665 0.0
H336 H 1.0065 0.68057 0.881 0.0
C337 C 1.01295 0.66534 0.30285 0.0
H338 H 1.01051 0.73836 0.04602 0.0
C339 C 1.01206 0.63195 0.20815 0.0
C340 C 1.01108 0.63668 0.05445 0.0
H341 H 1.0167 0.66107 0.41993 0.0
H342 H 1.01349 0.60239 0.25452 0.0
C343 C 1.00766 0.67563 0.99877 0.0
C344 C 0.92918 0.24994 0.19225 0.0
C345 C 0.95099 0.26217 0.31594 0.0
H346 H 0.8889 0.20619 0.10759 0.0
C347 C 0.93944 0.24931 0.45602 0.0
H348 H 0.93644 0.2612 0.08404 0.0
C349 C 0.91057 0.22021 0.47024 0.0
C350 C 0.89714 0.20023 0.34342 0.0
H351 H 0.95553 0.25854 0.55357 0.0
H352 H 0.90625 0.20794 0.57919 0.0
C353 C 0.90109 0.21953 0.20668 0.0
C354 C 0.31954 0.93249 0.20389 0.0
C355 C 0.30566 0.95382 0.326 0.0
H356 H 0.36512 0.89357 0.12498 0.0
C357 C 0.31765 0.94263 0.46771 0.0
H358 H 0.30904 0.93952 0.09423 0.0
C359 C 0.34759 0.91482 0.48577 0.0
C360 C 0.36889 0.90188 0.36159 0.0
H361 H 0.30709 0.9584 0.56395 0.0
H362 H 0.35916 0.91096 0.59623 0.0
C363 C 0.35064 0.90537 0.22228 0.0
C364 C 0.64812 0.32166 0.42696 0.0
C365 C 0.60648 0.32606 0.43223 0.0
H366 H 0.70467 0.34106 0.51426 0.0
C367 C 0.58986 0.35502 0.52343 0.0
H368 H 0.66131 0.29903 0.35743 0.0
C369 C 0.61396 0.37807 0.61321 0.0
C370 C 0.65558 0.37242 0.61637 0.0
H371 H 0.55785 0.35827 0.53135 0.0
H372 H 0.5996 0.40049 0.68017 0.0
C373 C 0.67266 0.34491 0.51835 0.0
C374 C 0.25629 0.61358 0.44902 0.0
C375 C 0.26897 0.60415 0.30647 0.0
H376 H 0.21454 0.64433 0.57979 0.0
C377 C 0.25619 0.62722 0.18744 0.0
H378 H 0.26602 0.5963 0.54269 0.0
C379 C 0.22571 0.65487 0.20824 0.0
C380 C 0.20703 0.65751 0.34673 0.0
H381 H 0.26709 0.62121 0.07746 0.0
H382 H 0.21215 0.66835 0.1122 0.0
C383 C 0.22681 0.64174 0.46994 0.0
C384 C 0.13622 0.81322 0.51754 0.0
C385 C 0.11523 0.7997 0.39379 0.0
H386 H 0.17512 0.85843 0.6004 0.0
C387 C 0.12716 0.81181 0.25322 0.0
H388 H 0.12872 0.80256 0.62636 0.0
C389 C 0.15533 0.84152 0.23786 0.0
C390 C 0.16784 0.86259 0.3635 0.0
H391 H 0.11168 0.80157 0.15566 0.0
H392 H 0.15979 0.85313 0.12801 0.0
C393 C 0.16362 0.8442 0.50189 0.0
C394 C 0.74784 0.13427 0.25216 0.0
C395 C 0.763 0.12152 0.38766 0.0
H396 H 0.70518 0.16902 0.14136 0.0
C397 C 0.75299 0.14239 0.51613 0.0
H398 H 0.75518 0.1189 0.15107 0.0
C399 C 0.72277 0.17095 0.51154 0.0
C400 C 0.7014 0.17677 0.37949 0.0
H401 H 0.76597 0.13415 0.62091 0.0
H402 H 0.71157 0.18276 0.6146 0.0
C403 C 0.71892 0.16358 0.24736 0.0
C404 C 0.44477 0.75776 0.25288 0.0
C405 C 0.45932 0.76693 0.39356 0.0
H406 H 0.4066 0.72158 0.12492 0.0
C407 C 0.43945 0.75254 0.51801 0.0
H408 H 0.45974 0.7682 0.15502 0.0
C409 C 0.40977 0.72379 0.50081 0.0
C410 C 0.40038 0.70975 0.35876 0.0
H411 H 0.44921 0.76086 0.62746 0.0
H412 H 0.39906 0.70825 0.59729 0.0
C413 C 0.41377 0.7311 0.23604 0.0
C414 C 0.81518 0.43871 0.2268 0.0
C415 C 0.80149 0.44789 0.36811 0.0
H416 H 0.85811 0.40829 0.09997 0.0
C417 C 0.81361 0.42488 0.48822 0.0
H418 H 0.80538 0.45578 0.13247 0.0
C419 C 0.84441 0.39746 0.47006 0.0
C420 C 0.86432 0.39551 0.33383 0.0
H421 H 0.80187 0.43071 0.59714 0.0
H422 H 0.85752 0.38418 0.56734 0.0
C423 C 0.84504 0.41078 0.20858 0.0
C424 C 0.035 0.19912 0.2456 0.0
C425 C 1.02414 0.23274 0.16342 0.0
H426 H 0.04445 0.13606 0.24967 0.0
C427 C 1.01419 0.22688 1.01368 0.0
H428 H 0.04221 0.20241 0.36131 0.0
C429 C 1.01501 0.18845 0.94843 0.0
C430 C 1.02574 0.15457 1.03113 0.0
H431 H 1.00522 0.25208 0.94758 0.0
H432 H 1.00692 0.18527 0.83348 0.0
C433 C 0.03596 0.1609 0.18085 0.0
C434 C 0.36919 0.03813 0.26781 0.0
C435 C 0.33579 1.02763 0.18235 0.0
H436 H 0.43252 0.04718 0.27751 0.0
C437 C 0.34245 1.01795 1.03293 0.0
H438 H 0.36538 0.04503 0.38349 0.0
C439 C 0.38129 1.01871 0.97115 0.0
C440 C 0.41494 1.02906 0.05695 0.0
H441 H 0.31753 1.00917 0.9643 0.0
H442 H 0.38496 1.01084 0.85623 0.0
C443 C 0.40789 0.039 0.20641 0.0
C444 C 0.51119 0.36829 0.25972 0.0
C445 C 0.54035 0.34051 0.21671 0.0
H446 H 0.48613 0.42664 0.22937 0.0
C447 C 0.5657 0.35094 0.09964 0.0
H448 H 0.49165 0.36157 0.35101 0.0
C449 C 0.56204 0.38789 1.02747 0.0
C450 C 0.53394 0.41642 0.07328 0.0
H451 H 0.58866 0.33041 0.06454 0.0
H452 H 0.58177 0.39446 0.93722 0.0
C453 C 0.5083 0.40578 0.19023 0.0
C454 C 0.23151 0.54229 0.99458 0.0
C455 C 0.23835 0.5332 0.14459 0.0
H456 H 0.18866 0.55068 0.8186 0.0
C457 C 0.20452 0.52565 0.23161 0.0
H458 H 0.2566 0.54924 0.92451 0.0
C459 C 0.16551 0.52662 0.1714 0.0
C460 C 0.15826 0.53575 1.02128 0.0
H461 H 0.20828 0.51958 0.34786 0.0
H462 H 0.14075 0.52053 0.24421 0.0
C463 C 0.19229 0.54346 0.93398 0.0
C464 C 0.0511 0.83644 0.68491 0.0
C465 C 0.0411 0.83032 0.53529 0.0
H466 H 0.05878 0.87828 0.86417 0.0
C467 C 1.03043 0.86392 0.45249 0.0
H468 H 0.05992 0.81131 0.75165 0.0
C469 C 1.02982 0.9023 0.51646 0.0
C470 C 0.04017 0.90885 0.66603 0.0
H471 H 1.02322 0.86052 0.33684 0.0
H472 H 1.02155 0.92711 0.44711 0.0
C473 C 0.05062 0.875 0.74932 0.0
C474 C 0.73271 0.05595 0.69742 0.0
C475 C 0.73669 0.0483 0.54497 0.0
H476 H 0.69307 0.06145 0.8843 0.0
C477 C 0.70181 0.03987 0.46516 0.0
H478 H 0.7589 0.0632 0.7619 0.0
C479 C 0.66425 0.03886 0.53451 0.0
C480 C 0.65972 0.04677 0.68694 0.0
H481 H 0.70361 0.03458 0.34764 0.0
H482 H 0.63847 1.03216 0.46695 0.0
C483 C 0.69483 0.0552 0.76743 0.0
C484 C 0.52459 0.72808 0.68096 0.0
C485 C 0.53324 0.73374 0.5305 0.0
H486 H 0.51589 0.68672 0.8593 0.0
C487 C 0.54076 0.69955 0.445 0.0
H488 H 0.51808 0.75362 0.74967 0.0
C489 C 0.53974 0.66104 0.50778 0.0
C490 C 0.53051 0.65514 0.65821 0.0
H491 H 0.54672 0.70264 0.32844 0.0
H492 H 0.54558 0.63569 0.43723 0.0
C493 C 0.52301 0.68953 0.74354 0.0
C494 C 0.86343 0.53071 0.44984 0.0
C495 C 0.82961 0.5201 0.53238 0.0
H496 H 0.92674 0.54046 0.44442 0.0
C497 C 0.83606 0.5104 0.68218 0.0
H498 H 0.86006 0.53755 0.33404 0.0
C499 C 0.87487 0.51151 0.74676 0.0
C500 C 0.9089 0.52229 0.66392 0.0
H501 H 0.81102 0.5013 0.74904 0.0
H502 H 0.8782 0.50363 0.86166 0.0
C503 C 0.902 0.53205 0.51405 0.0
loop_
_geom_bond_atom_site_label_1
_geom_bond_atom_site_label_2
_geom_bond_distance
_geom_bond_site_symmetry_2
_ccdc_geom_bond_type
C0 N1 1.317 . S
C0 N2 1.348 . S
C0 C3 1.485 . S
N1 C0 1.317 . S
N1 N5 1.370 . S
N2 C0 1.348 . S
N2 C4 1.346 . S
C3 C0 1.485 . S
C3 H7 0.960 . S
C3 H8 0.961 . S
C3 H9 0.960 . S
C4 N2 1.346 . S
C4 N5 1.307 . S
C4 C6 1.486 . S
N5 N1 1.370 . S
N5 C4 1.307 . S
C6 C4 1.486 . S
C6 H10 0.960 . S
C6 H11 0.960 . S
C6 H12 0.959 . S
H7 C3 0.960 . S
H8 C3 0.961 . S
H9 C3 0.960 . S
H10 C6 0.960 . S
H11 C6 0.960 . S
H12 C6 0.959 . S
C13 N14 1.317 . S
C13 N15 1.348 . S
C13 C16 1.485 . S
N14 C13 1.317 . S
N14 N18 1.371 . S
N15 C13 1.348 . S
N15 C17 1.346 1_655 S
C16 C13 1.485 . S
C16 H20 0.960 1_655 S
C16 H21 0.961 . S
C16 H22 0.960 . S
C17 N15 1.346 1_455 S
C17 N18 1.307 1_455 S
C17 C19 1.486 . S
N18 N14 1.371 . S
N18 C17 1.307 1_655 S
C19 C17 1.486 . S
C19 H23 0.960 1_455 S
C19 H24 0.960 . S
C19 H25 0.959 . S
H20 C16 0.960 1_455 S
H21 C16 0.961 . S
H22 C16 0.960 . S
H23 C19 0.960 1_655 S
H24 C19 0.960 . S
H25 C19 0.959 . S
C26 N27 1.317 . S
C26 N28 1.348 . S
C26 C29 1.485 . S
N27 C26 1.317 . S
N27 N31 1.371 . S
N28 C26 1.348 . S
N28 C30 1.346 1_565 S
C29 C26 1.485 . S
C29 H33 0.960 1_565 S
C29 H34 0.961 . S
C29 H35 0.960 . S
C30 N28 1.346 1_545 S
C30 N31 1.307 1_545 S
C30 C32 1.486 . S
N31 N27 1.371 . S
N31 C30 1.307 1_565 S
C32 C30 1.486 . S
C32 H36 0.960 1_545 S
C32 H37 0.960 . S
C32 H38 0.959 . S
H33 C29 0.960 1_545 S
H34 C29 0.961 . S
H35 C29 0.960 . S
H36 C32 0.960 1_565 S
H37 C32 0.960 . S
H38 C32 0.959 . S
C39 N40 1.317 . S
C39 N41 1.348 . S
C39 C42 1.485 . S
N40 C39 1.317 . S
N40 N44 1.370 . S
N41 C39 1.348 . S
N41 C43 1.346 . S
C42 C39 1.485 . S
C42 H46 0.960 . S
C42 H47 0.961 . S
C42 H48 0.960 . S
C43 N41 1.346 . S
C43 N44 1.307 . S
C43 C45 1.486 . S
N44 N40 1.370 . S
N44 C43 1.307 . S
C45 C43 1.486 . S
C45 H49 0.960 . S
C45 H50 0.960 . S
C45 H51 0.959 . S
H46 C42 0.960 . S
H47 C42 0.961 . S
H48 C42 0.960 . S
H49 C45 0.960 . S
H50 C45 0.960 . S
H51 C45 0.959 . S
C52 N53 1.317 . S
C52 N54 1.348 1_556 S
C52 C55 1.485 . S
N53 C52 1.317 . S
N53 N57 1.370 1_556 S
N54 C52 1.348 1_554 S
N54 C56 1.346 . S
C55 C52 1.485 . S
C55 H59 0.960 . S
C55 H60 0.961 . S
C55 H61 0.960 . S
C56 N54 1.346 . S
C56 N57 1.307 . S
C56 C58 1.486 . S
N57 N53 1.370 1_554 S
N57 C56 1.307 . S
C58 C56 1.486 . S
C58 H62 0.960 . S
C58 H63 0.960 . S
C58 H64 0.959 . S
H59 C55 0.960 . S
H60 C55 0.961 . S
H61 C55 0.960 . S
H62 C58 0.960 . S
H63 C58 0.960 . S
H64 C58 0.959 . S
C65 N66 1.317 . S
C65 N67 1.348 1_556 S
C65 C68 1.485 . S
N66 C65 1.317 . S
N66 N70 1.371 1_556 S
N67 C65 1.348 1_554 S
N67 C69 1.346 1_655 S
C68 C65 1.485 . S
C68 H72 0.960 1_655 S
C68 H73 0.961 . S
C68 H74 0.960 . S
C69 N67 1.346 1_455 S
C69 N70 1.307 1_455 S
C69 C71 1.487 . S
N70 N66 1.371 1_554 S
N70 C69 1.307 1_655 S
C71 C69 1.487 . S
C71 H75 0.960 1_455 S
C71 H76 0.960 . S
C71 H77 0.959 . S
H72 C68 0.960 1_455 S
H73 C68 0.961 . S
H74 C68 0.960 . S
H75 C71 0.960 1_655 S
H76 C71 0.960 . S
H77 C71 0.959 . S
C78 N79 1.317 . S
C78 N80 1.348 1_556 S
C78 C81 1.485 . S
N79 C78 1.317 . S
N79 N83 1.371 1_556 S
N80 C78 1.348 1_554 S
N80 C82 1.346 1_565 S
C81 C78 1.485 . S
C81 H85 0.960 1_565 S
C81 H86 0.961 . S
C81 H87 0.960 . S
C82 N80 1.346 1_545 S
C82 N83 1.307 1_545 S
C82 C84 1.487 . S
N83 N79 1.371 1_554 S
N83 C82 1.307 1_565 S
C84 C82 1.487 . S
C84 H88 0.960 1_545 S
C84 H89 0.960 . S
C84 H90 0.959 . S
H85 C81 0.960 1_545 S
H86 C81 0.961 . S
H87 C81 0.960 . S
H88 C84 0.960 1_565 S
H89 C84 0.960 . S
H90 C84 0.959 . S
C91 N92 1.317 . S
C91 N93 1.348 1_556 S
C91 C94 1.485 . S
N92 C91 1.317 . S
N92 N96 1.370 1_556 S
N93 C91 1.348 1_554 S
N93 C95 1.346 . S
C94 C91 1.485 . S
C94 H98 0.960 . S
C94 H99 0.961 . S
C94 H100 0.960 . S
C95 N93 1.346 . S
C95 N96 1.307 . S
C95 C97 1.486 . S
N96 N92 1.370 1_554 S
N96 C95 1.307 . S
C97 C95 1.486 . S
C97 H101 0.960 . S
C97 H102 0.960 . S
C97 H103 0.959 . S
H98 C94 0.960 . S
H99 C94 0.961 . S
H100 C94 0.960 . S
H101 C97 0.960 . S
H102 C97 0.960 . S
H103 C97 0.959 . S
C104 Eu105 2.835 . S
C104 C106 1.500 . S
C104 O124 1.257 . S
C104 O125 1.260 . S
Eu105 C104 2.835 . S
Eu105 O124 2.473 . S
Eu105 O125 2.480 . S
Eu105 O126 2.430 . S
Eu105 O127 2.670 1_545 S
Eu105 O128 2.394 . S
Eu105 O133 2.355 1_655 S
Eu105 O135 2.374 1_545 S
C106 C104 1.500 . S
C106 C107 1.377 . S
C106 C111 1.377 . S
C107 C106 1.377 . S
C107 C108 1.395 . S
C107 H136 0.931 . S
C108 C107 1.395 . S
C108 C109 1.383 . S
C108 H137 0.931 . S
C109 C108 1.383 . S
C109 C110 1.394 . S
C110 C109 1.394 . S
C110 C111 1.378 . S
C110 H138 0.931 1_655 S
C111 C106 1.377 . S
C111 C110 1.378 . S
C111 H139 0.931 1_655 S
C112 O126 1.259 . S
C112 O127 1.270 1_545 S
C113 O128 1.251 1_455 S
C113 O129 1.251 . S
C114 Eu115 2.835 1_554 S
C114 C116 1.500 . S
C114 O130 1.257 . S
C114 O131 1.260 . S
Eu115 C114 2.835 1_556 S
Eu115 O127 2.355 1_455 S
Eu115 O129 2.374 1_565 S
Eu115 O130 2.473 1_556 S
Eu115 O131 2.480 1_556 S
Eu115 O132 2.430 . S
Eu115 O133 2.670 1_565 S
Eu115 O134 2.394 . S
C116 C114 1.500 . S
C116 C117 1.377 . S
C116 C121 1.377 . S
C117 C116 1.377 . S
C117 C118 1.395 . S
C117 H140 0.931 . S
C118 C117 1.395 . S
C118 C119 1.383 . S
C118 H141 0.931 . S
C119 C118 1.383 . S
C119 C120 1.394 . S
C120 C119 1.394 . S
C120 C121 1.378 . S
C120 H142 0.908 1_455 S
C121 C116 1.377 . S
C121 C120 1.378 . S
C121 H143 0.931 1_455 S
C122 O132 1.259 . S
C122 O133 1.270 1_565 S
C123 O134 1.251 1_655 S
C123 O135 1.251 . S
O124 C104 1.257 . S
O124 Eu105 2.473 . S
O125 C104 1.260 . S
O125 Eu105 2.480 . S
O126 Eu105 2.430 . S
O126 C112 1.259 . S
O127 Eu105 2.670 1_565 S
O127 C112 1.270 1_565 S
O127 Eu115 2.355 1_655 S
O128 Eu105 2.394 . S
O128 C113 1.251 1_655 S
O129 C113 1.251 . S
O129 Eu115 2.374 1_545 S
O130 C114 1.257 . S
O130 Eu115 2.473 1_554 S
O131 C114 1.260 . S
O131 Eu115 2.480 1_554 S
O132 Eu115 2.430 . S
O132 C122 1.259 . S
O133 Eu105 2.355 1_455 S
O133 Eu115 2.670 1_545 S
O133 C122 1.270 1_545 S
O134 Eu115 2.394 . S
O134 C123 1.251 1_455 S
O135 Eu105 2.374 1_565 S
O135 C123 1.251 . S
H136 C107 0.931 . S
H137 C108 0.931 . S
H138 C110 0.931 1_455 S
H139 C111 0.931 1_455 S
H140 C117 0.931 . S
H141 C118 0.931 . S
H142 C120 0.908 1_655 S
H143 C121 0.931 1_655 S
C144 Eu145 2.835 . S
C144 C146 1.500 . S
C144 O164 1.257 . S
C144 O165 1.260 . S
Eu145 C144 2.835 . S
Eu145 O164 2.473 . S
Eu145 O165 2.480 . S
Eu145 O166 2.430 . S
Eu145 O167 2.670 . S
Eu145 O168 2.394 . S
Eu145 O173 2.355 1_565 S
Eu145 O175 2.374 . S
C146 C144 1.500 . S
C146 C147 1.377 . S
C146 C151 1.377 . S
C147 C146 1.377 . S
C147 C148 1.395 . S
C147 H176 0.931 . S
C148 C147 1.395 . S
C148 C149 1.383 . S
C148 H177 0.931 . S
C149 C148 1.383 . S
C149 C150 1.394 . S
C150 C149 1.394 . S
C150 C151 1.378 . S
C150 H178 0.931 1_565 S
C151 C146 1.377 . S
C151 C150 1.378 . S
C151 H179 0.931 1_565 S
C152 O166 1.259 . S
C152 O167 1.270 . S
C153 O168 1.251 1_545 S
C153 O169 1.251 . S
C154 Eu155 2.835 1_554 S
C154 C156 1.500 . S
C154 O170 1.257 . S
C154 O171 1.260 . S
Eu155 C154 2.835 1_556 S
Eu155 O167 2.355 1_545 S
Eu155 O169 2.374 . S
Eu155 O170 2.473 1_556 S
Eu155 O171 2.480 1_556 S
Eu155 O172 2.430 . S
Eu155 O173 2.670 . S
Eu155 O174 2.394 . S
C156 C154 1.500 . S
C156 C157 1.377 . S
C156 C161 1.377 . S
C157 C156 1.377 . S
C157 C158 1.395 . S
C157 H180 0.931 . S
C158 C157 1.395 . S
C158 C159 1.383 . S
C158 H181 0.931 . S
C159 C158 1.383 . S
C159 C160 1.394 . S
C160 C159 1.394 . S
C160 C161 1.378 . S
C160 H182 0.931 1_545 S
C161 C156 1.377 . S
C161 C160 1.378 . S
C161 H183 0.931 1_545 S
C162 O172 1.259 . S
C162 O173 1.270 . S
C163 O174 1.251 1_565 S
C163 O175 1.251 . S
O164 C144 1.257 . S
O164 Eu145 2.473 . S
O165 C144 1.260 . S
O165 Eu145 2.480 . S
O166 Eu145 2.430 . S
O166 C152 1.259 . S
O167 Eu145 2.670 . S
O167 C152 1.270 . S
O167 Eu155 2.355 1_565 S
O168 Eu145 2.394 . S
O168 C153 1.251 1_565 S
O169 C153 1.251 . S
O169 Eu155 2.374 . S
O170 C154 1.257 . S
O170 Eu155 2.473 1_554 S
O171 C154 1.260 . S
O171 Eu155 2.480 1_554 S
O172 Eu155 2.430 . S
O172 C162 1.259 . S
O173 Eu145 2.355 1_545 S
O173 Eu155 2.670 . S
O173 C162 1.270 . S
O174 Eu155 2.394 . S
O174 C163 1.251 1_545 S
O175 Eu145 2.374 . S
O175 C163 1.251 . S
H176 C147 0.931 . S
H177 C148 0.931 . S
H178 C150 0.931 1_545 S
H179 C151 0.931 1_545 S
H180 C157 0.931 . S
H181 C158 0.931 . S
H182 C160 0.931 1_565 S
H183 C161 0.931 1_565 S
C184 Eu185 2.835 . S
C184 C186 1.500 . S
C184 O204 1.257 . S
C184 O205 1.260 . S
Eu185 C184 2.835 . S
Eu185 O204 2.473 . S
Eu185 O205 2.480 . S
Eu185 O206 2.430 . S
Eu185 O207 2.670 . S
Eu185 O208 2.394 . S
Eu185 O213 2.355 . S
Eu185 O215 2.374 . S
C186 C184 1.500 . S
C186 C187 1.377 . S
C186 C191 1.377 . S
C187 C186 1.377 . S
C187 C188 1.395 . S
C187 H216 0.931 . S
C188 C187 1.395 . S
C188 C189 1.383 . S
C188 H217 0.931 . S
C189 C188 1.383 . S
C189 C190 1.394 . S
C190 C189 1.394 . S
C190 C191 1.378 . S
C190 H218 0.931 . S
C191 C186 1.377 . S
C191 C190 1.378 . S
C191 H219 0.931 . S
C192 O206 1.259 . S
C192 O207 1.270 . S
C193 O208 1.251 . S
C193 O209 1.251 . S
C194 Eu195 2.835 1_554 S
C194 C196 1.500 . S
C194 O210 1.257 . S
C194 O211 1.260 . S
Eu195 C194 2.835 1_556 S
Eu195 O207 2.355 . S
Eu195 O209 2.374 . S
Eu195 O210 2.473 1_556 S
Eu195 O211 2.480 1_556 S
Eu195 O212 2.430 . S
Eu195 O213 2.670 . S
Eu195 O214 2.394 . S
C196 C194 1.500 . S
C196 C197 1.377 . S
C196 C201 1.377 . S
C197 C196 1.377 . S
C197 C198 1.395 . S
C197 H220 0.931 . S
C198 C197 1.395 . S
C198 C199 1.383 . S
C198 H221 0.931 . S
C199 C198 1.383 . S
C199 C200 1.394 . S
C200 C199 1.394 . S
C200 C201 1.378 . S
C200 H222 0.931 . S
C201 C196 1.377 . S
C201 C200 1.378 . S
C201 H223 0.931 . S
C202 O212 1.259 . S
C202 O213 1.270 . S
C203 O214 1.251 . S
C203 O215 1.251 . S
O204 C184 1.257 . S
O204 Eu185 2.473 . S
O205 C184 1.260 . S
O205 Eu185 2.480 . S
O206 Eu185 2.430 . S
O206 C192 1.259 . S
O207 Eu185 2.670 . S
O207 C192 1.270 . S
O207 Eu195 2.355 . S
O208 Eu185 2.394 . S
O208 C193 1.251 . S
O209 C193 1.251 . S
O209 Eu195 2.374 . S
O210 C194 1.257 . S
O210 Eu195 2.473 1_554 S
O211 C194 1.260 . S
O211 Eu195 2.480 1_554 S
O212 Eu195 2.430 . S
O212 C202 1.259 . S
O213 Eu185 2.355 . S
O213 Eu195 2.670 . S
O213 C202 1.270 . S
O214 Eu195 2.394 . S
O214 C203 1.251 . S
O215 Eu185 2.374 . S
O215 C203 1.251 . S
H216 C187 0.931 . S
H217 C188 0.931 . S
H218 C190 0.931 . S
H219 C191 0.931 . S
H220 C197 0.931 . S
H221 C198 0.931 . S
H222 C200 0.931 . S
H223 C201 0.931 . S
C224 Eu225 2.835 . S
C224 C226 1.500 . S
C224 O244 1.257 . S
C224 O245 1.260 . S
Eu225 C224 2.835 . S
Eu225 O244 2.473 . S
Eu225 O245 2.480 . S
Eu225 O246 2.430 . S
Eu225 O247 2.670 1_455 S
Eu225 O248 2.394 . S
Eu225 O253 2.355 . S
Eu225 O255 2.374 1_455 S
C226 C224 1.500 . S
C226 C227 1.377 . S
C226 C231 1.377 . S
C227 C226 1.377 . S
C227 C228 1.395 . S
C227 H256 0.931 . S
C228 C227 1.395 . S
C228 C229 1.383 . S
C228 H257 0.931 . S
C229 C228 1.383 . S
C229 C230 1.394 . S
C230 C229 1.394 . S
C230 C231 1.378 . S
C230 H258 0.931 . S
C231 C226 1.377 . S
C231 C230 1.378 . S
C231 H259 0.931 . S
C232 O246 1.263 . S
C232 O247 1.267 1_455 S
C233 O248 1.251 . S
C233 O249 1.251 . S
C234 Eu235 2.835 1_554 S
C234 C236 1.500 . S
C234 O250 1.257 . S
C234 O251 1.260 . S
Eu235 C234 2.835 1_556 S
Eu235 O247 2.355 . S
Eu235 O249 2.374 1_655 S
Eu235 O250 2.473 1_556 S
Eu235 O251 2.480 1_556 S
Eu235 O252 2.430 . S
Eu235 O253 2.670 1_655 S
Eu235 O254 2.394 . S
C236 C234 1.500 . S
C236 C237 1.377 . S
C236 C241 1.377 . S
C237 C236 1.377 . S
C237 C238 1.395 . S
C237 H260 0.931 . S
C238 C237 1.395 . S
C238 C239 1.383 . S
C238 H261 0.931 . S
C239 C238 1.383 . S
C239 C240 1.394 . S
C240 C239 1.394 . S
C240 C241 1.378 . S
C240 H262 0.931 . S
C241 C236 1.377 . S
C241 C240 1.378 . S
C241 H263 0.931 . S
C242 O252 1.260 . S
C242 O253 1.269 1_655 S
C243 O254 1.251 . S
C243 O255 1.251 . S
O244 C224 1.257 . S
O244 Eu225 2.473 . S
O245 C224 1.260 . S
O245 Eu225 2.480 . S
O246 Eu225 2.430 . S
O246 C232 1.263 . S
O247 Eu225 2.670 1_655 S
O247 C232 1.267 1_655 S
O247 Eu235 2.355 . S
O248 Eu225 2.394 . S
O248 C233 1.251 . S
O249 C233 1.251 . S
O249 Eu235 2.374 1_455 S
O250 C234 1.257 . S
O250 Eu235 2.473 1_554 S
O251 C234 1.260 . S
O251 Eu235 2.480 1_554 S
O252 Eu235 2.430 . S
O252 C242 1.260 . S
O253 Eu225 2.355 . S
O253 Eu235 2.670 1_455 S
O253 C242 1.269 1_455 S
O254 Eu235 2.394 . S
O254 C243 1.251 . S
O255 Eu225 2.374 1_655 S
O255 C243 1.251 . S
H256 C227 0.931 . S
H257 C228 0.931 . S
H258 C230 0.931 . S
H259 C231 0.931 . S
H260 C237 0.931 . S
H261 C238 0.931 . S
H262 C240 0.931 . S
H263 C241 0.931 . S
C264 C265 1.384 1_545 S
C264 H268 0.950 . S
C264 C273 1.390 . S
C265 C264 1.384 1_565 S
C265 C267 1.391 . S
H266 C273 0.950 . S
C267 C265 1.391 . S
C267 C269 1.390 . S
C267 H271 0.950 . S
H268 C264 0.950 . S
C269 C267 1.390 . S
C269 C270 1.410 . S
C269 H272 0.950 . S
C270 C269 1.410 . S
C270 C273 1.365 1_565 S
H271 C267 0.950 . S
H272 C269 0.950 . S
C273 C264 1.390 . S
C273 H266 0.950 . S
C273 C270 1.365 1_545 S
C274 C275 1.387 . S
C274 H278 0.950 . S
C274 C283 1.390 . S
C275 C274 1.387 . S
C275 C277 1.387 . S
H276 C283 0.950 . S
C277 C275 1.387 . S
C277 C279 1.390 . S
C277 H281 0.950 . S
H278 C274 0.950 . S
C279 C277 1.390 . S
C279 C280 1.387 . S
C279 H282 0.950 . S
C280 C279 1.387 . S
C280 C283 1.387 . S
H281 C277 0.950 . S
H282 C279 0.950 . S
C283 C274 1.390 . S
C283 H276 0.950 . S
C283 C280 1.387 . S
C284 C285 1.387 . S
C284 H288 0.950 . S
C284 C293 1.390 . S
C285 C284 1.387 . S
C285 C287 1.387 . S
H286 C293 0.950 . S
C287 C285 1.387 . S
C287 C289 1.390 . S
C287 H291 0.950 . S
H288 C284 0.950 . S
C289 C287 1.390 . S
C289 C290 1.387 . S
C289 H292 0.950 . S
C290 C289 1.387 . S
C290 C293 1.387 . S
H291 C287 0.950 . S
H292 C289 0.950 . S
C293 C284 1.390 . S
C293 H286 0.950 . S
C293 C290 1.387 . S
C294 C295 1.379 1_655 S
C294 H298 0.950 . S
C294 C303 1.390 . S
C295 C294 1.379 1_455 S
C295 C297 1.396 . S
H296 C303 0.950 . S
C297 C295 1.396 . S
C297 C299 1.390 . S
C297 H301 0.950 . S
H298 C294 0.950 . S
C299 C297 1.390 . S
C299 C300 1.415 . S
C299 H302 0.950 . S
C300 C299 1.415 . S
C300 C303 1.360 1_455 S
H301 C297 0.950 . S
H302 C299 0.950 . S
C303 C294 1.390 . S
C303 H296 0.950 . S
C303 C300 1.360 1_655 S
C304 C305 1.378 1_565 S
C304 H308 0.950 . S
C304 C313 1.390 . S
C305 C304 1.378 1_545 S
C305 C307 1.397 . S
H306 C313 0.950 . S
C307 C305 1.397 . S
C307 C309 1.390 . S
C307 H311 0.950 . S
H308 C304 0.950 . S
C309 C307 1.390 . S
C309 C310 1.387 . S
C309 H312 0.950 . S
C310 C309 1.387 . S
C310 C313 1.387 1_545 S
H311 C307 0.950 . S
H312 C309 0.950 . S
C313 C304 1.390 . S
C313 H306 0.950 . S
C313 C310 1.387 1_565 S
C314 C315 1.387 . S
C314 H318 0.950 . S
C314 C323 1.390 . S
C315 C314 1.387 . S
C315 C317 1.387 . S
H316 C323 0.950 . S
C317 C315 1.387 . S
C317 C319 1.390 . S
C317 H321 0.950 . S
H318 C314 0.950 . S
C319 C317 1.390 . S
C319 C320 1.387 . S
C319 H322 0.950 . S
C320 C319 1.387 . S
C320 C323 1.387 . S
H321 C317 0.950 . S
H322 C319 0.950 . S
C323 C314 1.390 . S
C323 H316 0.950 . S
C323 C320 1.387 . S
C324 C325 1.387 . S
C324 H328 0.950 . S
C324 C333 1.390 . S
C325 C324 1.387 . S
C325 C327 1.387 . S
H326 C333 0.950 . S
C327 C325 1.387 . S
C327 C329 1.390 . S
C327 H331 0.950 . S
H328 C324 0.950 . S
C329 C327 1.390 . S
C329 C330 1.387 . S
C329 H332 0.950 . S
C330 C329 1.387 . S
C330 C333 1.387 . S
H331 C327 0.950 . S
H332 C329 0.950 . S
C333 C324 1.390 . S
C333 H326 0.950 . S
C333 C330 1.387 . S
C334 C335 1.397 . S
C334 H338 0.950 . S
C334 C343 1.390 . S
C335 C334 1.397 . S
C335 C337 1.378 1_655 S
H336 C343 0.950 . S
C337 C335 1.378 1_455 S
C337 C339 1.390 . S
C337 H341 0.950 . S
H338 C334 0.950 . S
C339 C337 1.390 . S
C339 C340 1.360 1_455 S
C339 H342 0.950 . S
C340 C339 1.360 1_655 S
C340 C343 1.414 . S
H341 C337 0.950 . S
H342 C339 0.950 . S
C343 C334 1.390 . S
C343 H336 0.950 . S
C343 C340 1.414 . S
C344 C345 1.387 . S
C344 H348 0.950 1_554 S
C344 C353 1.390 . S
C345 C344 1.387 . S
C345 C347 1.387 . S
H346 C353 0.950 . S
C347 C345 1.387 . S
C347 C349 1.390 . S
C347 H351 0.950 1_655 S
H348 C344 0.950 1_556 S
C349 C347 1.390 . S
C349 C350 1.387 . S
C349 H352 0.950 . S
C350 C349 1.387 . S
C350 C353 1.387 . S
H351 C347 0.950 1_455 S
H352 C349 0.950 . S
C353 C344 1.390 . S
C353 H346 0.950 . S
C353 C350 1.387 . S
C354 C355 1.407 . S
C354 H358 0.950 1_554 S
C354 C363 1.390 . S
C355 C354 1.407 . S
C355 C357 1.390 . S
H356 C363 0.950 . S
C357 C355 1.390 . S
C357 C359 1.390 . S
C357 H361 0.950 1_565 S
H358 C354 0.950 1_556 S
C359 C357 1.390 . S
C359 C360 1.387 . S
C359 H362 0.950 . S
C360 C359 1.387 . S
C360 C363 1.387 . S
H361 C357 0.950 1_545 S
H362 C359 0.950 . S
C363 C354 1.390 . S
C363 H356 0.950 . S
C363 C360 1.387 . S
C364 C365 1.387 . S
C364 H368 0.950 . S
C364 C373 1.390 . S
C365 C364 1.387 . S
C365 C367 1.387 . S
H366 C373 0.950 . S
C367 C365 1.387 . S
C367 C369 1.390 . S
C367 H371 0.950 1_554 S
H368 C364 0.950 . S
C369 C367 1.390 . S
C369 C370 1.387 . S
C369 H372 0.950 . S
C370 C369 1.387 . S
C370 C373 1.387 . S
H371 C367 0.950 1_556 S
H372 C369 0.950 . S
C373 C364 1.390 . S
C373 H366 0.950 . S
C373 C370 1.387 . S
C374 C375 1.387 . S
C374 H378 0.950 . S
C374 C383 1.390 . S
C375 C374 1.387 . S
C375 C377 1.387 . S
H376 C383 0.950 . S
C377 C375 1.387 . S
C377 C379 1.390 . S
C377 H381 0.950 1_554 S
H378 C374 0.950 . S
C379 C377 1.390 . S
C379 C380 1.387 . S
C379 H382 0.950 . S
C380 C379 1.387 . S
C380 C383 1.387 . S
H381 C377 0.950 1_556 S
H382 C379 0.950 . S
C383 C374 1.390 . S
C383 H376 0.950 . S
C383 C380 1.387 . S
C384 C385 1.387 . S
C384 H388 0.950 . S
C384 C393 1.390 . S
C385 C384 1.387 . S
C385 C387 1.387 . S
H386 C393 0.950 . S
C387 C385 1.387 . S
C387 C389 1.390 . S
C387 H391 0.950 1_455 S
H388 C384 0.950 . S
C389 C387 1.390 . S
C389 C390 1.387 . S
C389 H392 0.950 . S
C390 C389 1.387 . S
C390 C393 1.387 . S
H391 C387 0.950 1_655 S
H392 C389 0.950 . S
C393 C384 1.390 . S
C393 H386 0.950 . S
C393 C390 1.387 . S
C394 C395 1.387 1_565 S
C394 H398 0.950 . S
C394 C403 1.390 1_565 S
C395 C394 1.387 1_545 S
C395 C397 1.387 . S
H396 C403 0.950 . S
C397 C395 1.387 . S
C397 C399 1.390 . S
C397 H401 0.950 . S
H398 C394 0.950 . S
C399 C397 1.390 . S
C399 C400 1.387 . S
C399 H402 0.950 . S
C400 C399 1.387 . S
C400 C403 1.387 . S
H401 C397 0.950 . S
H402 C399 0.950 . S
C403 C394 1.390 1_545 S
C403 H396 0.950 . S
C403 C400 1.387 . S
C404 C405 1.387 . S
C404 H408 0.950 . S
C404 C413 1.390 . S
C405 C404 1.387 . S
C405 C407 1.387 . S
H406 C413 0.950 . S
C407 C405 1.387 . S
C407 C409 1.390 . S
C407 H411 0.950 . S
H408 C404 0.950 . S
C409 C407 1.390 . S
C409 C410 1.387 . S
C409 H412 0.950 . S
C410 C409 1.387 . S
C410 C413 1.387 . S
H411 C407 0.950 . S
H412 C409 0.950 . S
C413 C404 1.390 . S
C413 H406 0.950 . S
C413 C410 1.387 . S
C414 C415 1.387 . S
C414 H418 0.950 . S
C414 C423 1.390 . S
C415 C414 1.387 . S
C415 C417 1.387 . S
H416 C423 0.950 . S
C417 C415 1.387 . S
C417 C419 1.390 . S
C417 H421 0.950 . S
H418 C414 0.950 . S
C419 C417 1.390 . S
C419 C420 1.387 . S
C419 H422 0.950 . S
C420 C419 1.387 . S
C420 C423 1.387 . S
H421 C417 0.950 . S
H422 C419 0.950 . S
C423 C414 1.390 . S
C423 H416 0.950 . S
C423 C420 1.387 . S
C424 C425 1.387 1_554 S
C424 H428 0.953 . S
C424 C433 1.390 . S
C425 C424 1.387 1_556 S
C425 C427 1.387 . S
H426 C433 0.950 . S
C427 C425 1.387 . S
C427 C429 1.390 . S
C427 H431 0.950 . S
H428 C424 0.953 . S
C429 C427 1.390 . S
C429 C430 1.387 . S
C429 H432 0.950 . S
C430 C429 1.387 . S
C430 C433 1.387 1_556 S
H431 C427 0.950 . S
H432 C429 0.950 . S
C433 C424 1.390 . S
C433 H426 0.950 . S
C433 C430 1.387 1_554 S
C434 C435 1.387 1_554 S
C434 H438 0.950 . S
C434 C443 1.390 . S
C435 C434 1.387 1_556 S
C435 C437 1.387 . S
H436 C443 0.950 . S
C437 C435 1.387 . S
C437 C439 1.390 . S
C437 H441 0.950 1_545 S
H438 C434 0.950 . S
C439 C437 1.390 . S
C439 C440 1.387 . S
C439 H442 0.950 . S
C440 C439 1.387 . S
C440 C443 1.387 1_556 S
H441 C437 0.950 1_565 S
H442 C439 0.950 . S
C443 C434 1.390 . S
C443 H436 0.950 . S
C443 C440 1.387 1_554 S
C444 C445 1.387 . S
C444 H448 0.950 . S
C444 C453 1.390 . S
C445 C444 1.387 . S
C445 C447 1.387 1_556 S
H446 C453 0.950 . S
C447 C445 1.387 1_554 S
C447 C449 1.390 . S
C447 H451 0.950 . S
H448 C444 0.950 . S
C449 C447 1.390 . S
C449 C450 1.387 1_554 S
C449 H452 0.950 . S
C450 C449 1.387 1_556 S
C450 C453 1.387 . S
H451 C447 0.950 . S
H452 C449 0.950 . S
C453 C444 1.390 . S
C453 H446 0.950 . S
C453 C450 1.387 . S
C454 C455 1.387 . S
C454 H458 0.950 . S
C454 C463 1.390 . S
C455 C454 1.387 . S
C455 C457 1.387 1_556 S
H456 C463 0.950 . S
C457 C455 1.387 1_554 S
C457 C459 1.390 . S
C457 H461 0.950 . S
H458 C454 0.950 . S
C459 C457 1.390 . S
C459 C460 1.387 1_554 S
C459 H462 0.950 . S
C460 C459 1.387 1_556 S
C460 C463 1.387 . S
H461 C457 0.950 . S
H462 C459 0.950 . S
C463 C454 1.390 . S
C463 H456 0.950 . S
C463 C460 1.387 . S
C464 C465 1.387 . S
C464 H468 0.950 . S
C464 C473 1.390 . S
C465 C464 1.387 . S
C465 C467 1.387 . S
H466 C473 0.950 . S
C467 C465 1.387 . S
C467 C469 1.390 . S
C467 H471 0.950 . S
H468 C464 0.950 . S
C469 C467 1.390 . S
C469 C470 1.387 . S
C469 H472 0.950 . S
C470 C469 1.387 . S
C470 C473 1.387 . S
H471 C467 0.950 . S
H472 C469 0.950 . S
C473 C464 1.390 . S
C473 H466 0.950 . S
C473 C470 1.387 . S
C474 C475 1.387 1_545 S
C474 H478 0.950 . S
C474 C483 1.390 1_545 S
C475 C474 1.387 1_565 S
C475 C477 1.387 . S
H476 C483 0.950 1_545 S
C477 C475 1.387 . S
C477 C479 1.390 . S
C477 H481 0.950 . S
H478 C474 0.950 . S
C479 C477 1.390 . S
C479 C480 1.387 . S
C479 H482 0.950 . S
C480 C479 1.387 . S
C480 C483 1.387 . S
H481 C477 0.950 . S
H482 C479 0.950 . S
C483 C474 1.390 1_565 S
C483 H476 0.950 1_565 S
C483 C480 1.387 . S
C484 C485 1.387 . S
C484 H488 0.950 . S
C484 C493 1.390 . S
C485 C484 1.387 . S
C485 C487 1.387 . S
H486 C493 0.950 . S
C487 C485 1.387 . S
C487 C489 1.390 . S
C487 H491 0.950 . S
H488 C484 0.950 . S
C489 C487 1.390 . S
C489 C490 1.387 . S
C489 H492 0.950 . S
C490 C489 1.387 . S
C490 C493 1.387 . S
H491 C487 0.950 . S
H492 C489 0.950 . S
C493 C484 1.390 . S
C493 H486 0.950 . S
C493 C490 1.387 . S
C494 C495 1.387 . S
C494 H498 0.950 . S
C494 C503 1.390 . S
C495 C494 1.387 . S
C495 C497 1.387 . S
H496 C503 0.950 . S
C497 C495 1.387 . S
C497 C499 1.390 . S
C497 H501 0.950 . S
H498 C494 0.950 . S
C499 C497 1.390 . S
C499 C500 1.387 . S
C499 H502 0.950 . S
C500 C499 1.387 . S
C500 C503 1.387 . S
H501 C497 0.950 . S
H502 C499 0.950 . S
C503 C494 1.390 . S
C503 H496 0.950 . S
C503 C500 1.387 . S
C265 N80 2.017 . S
C270 C122 2.204 . S
C280 C162 2.225 . S
C275 N93 2.039 . S
C290 C202 2.239 . S
C285 N54 2.058 . S
C300 C242 2.220 1_455 S
C295 N67 2.038 1_455 S
C310 C112 2.205 1_554 S
C305 N28 2.024 1_545 S
C315 N41 2.039 . S
C320 C152 2.226 1_554 S
C325 N2 2.052 . S
C330 C192 2.239 1_554 S
C335 N15 2.038 . S
C340 C232 2.219 1_654 S
C350 C109 0.782 . S
C345 N70 0.787 . S
C360 C149 0.778 . S
C355 N83 0.783 . S
C370 C189 0.779 . S
C365 N96 0.784 . S
C375 N57 0.786 . S
C380 C229 0.777 . S
C385 N18 0.798 1_455 S
C390 C119 0.792 . S
C400 C159 0.779 . S
C395 N31 0.785 1_545 S
C410 C199 0.770 . S
C405 N44 0.778 . S
C415 N5 0.781 . S
C420 C239 0.776 . S
C425 N66 2.406 1_455 S
C430 C113 2.519 . S
C435 N79 2.358 1_545 S
C440 C153 2.470 . S
C450 C193 2.452 . S
C445 N92 2.346 . S
C460 C233 2.504 . S
C455 N53 2.389 . S
C465 N14 2.395 . S
C470 C123 2.525 . S
C480 C163 2.470 . S
C475 N27 2.346 . S
C490 C203 2.452 . S
C485 N40 2.326 . S
C495 N1 2.374 . S
C500 C243 2.508 . S
