# Generated by pormake.
# Topology nom, (4,4)-cn, num edge types: 1
# Building blocks:
#     Node 0, Type 0, BuildingBlock: NAHDIM_clean_linker_0, # of connection points: 4
#     Node 1, Type 0, BuildingBlock: NAHDIM_clean_linker_0, # of connection points: 4
#     Node 2, Type 0, BuildingBlock: NAHDIM_clean_linker_0, # of connection points: 4
#     Node 3, Type 0, BuildingBlock: NAHDIM_clean_linker_0, # of connection points: 4
#     Node 4, Type 0, BuildingBlock: NAHDIM_clean_linker_0, # of connection points: 4
#     Node 5, Type 0, BuildingBlock: NAHDIM_clean_linker_0, # of connection points: 4
#     Node 6, Type 1, BuildingBlock: NAHDIM_clean_sbu_0, # of connection points: 4
#     Node 7, Type 1, BuildingBlock: NAHDIM_clean_sbu_0, # of connection points: 4
#     Node 8, Type 1, BuildingBlock: NAHDIM_clean_sbu_0, # of connection points: 4
#     Node 9, Type 1, BuildingBlock: NAHDIM_clean_sbu_0, # of connection points: 4
#     Node 10, Type 1, BuildingBlock: NAHDIM_clean_sbu_0, # of connection points: 4
#     Node 11, Type 1, BuildingBlock: NAHDIM_clean_sbu_0, # of connection points: 4
#     Edge 12, Type (0, 1), BuildingBlock: CIFDUS_clean_linker_0, # of connection points: 2
#     Edge 13, Type (0, 1), BuildingBlock: CIFDUS_clean_linker_0, # of connection points: 2
#     Edge 14, Type (0, 1), BuildingBlock: CIFDUS_clean_linker_0, # of connection points: 2
#     Edge 15, Type (0, 1), BuildingBlock: CIFDUS_clean_linker_0, # of connection points: 2
#     Edge 16, Type (0, 1), BuildingBlock: CIFDUS_clean_linker_0, # of connection points: 2
#     Edge 17, Type (0, 1), BuildingBlock: CIFDUS_clean_linker_0, # of connection points: 2
#     Edge 18, Type (0, 1), BuildingBlock: CIFDUS_clean_linker_0, # of connection points: 2
#     Edge 19, Type (0, 1), BuildingBlock: CIFDUS_clean_linker_0, # of connection points: 2
#     Edge 20, Type (0, 1), BuildingBlock: CIFDUS_clean_linker_0, # of connection points: 2
#     Edge 21, Type (0, 1), BuildingBlock: CIFDUS_clean_linker_0, # of connection points: 2
#     Edge 22, Type (0, 1), BuildingBlock: CIFDUS_clean_linker_0, # of connection points: 2
#     Edge 23, Type (0, 1), BuildingBlock: CIFDUS_clean_linker_0, # of connection points: 2
#     Edge 24, Type (0, 1), BuildingBlock: CIFDUS_clean_linker_0, # of connection points: 2
#     Edge 25, Type (0, 1), BuildingBlock: CIFDUS_clean_linker_0, # of connection points: 2
#     Edge 26, Type (0, 1), BuildingBlock: CIFDUS_clean_linker_0, # of connection points: 2
#     Edge 27, Type (0, 1), BuildingBlock: CIFDUS_clean_linker_0, # of connection points: 2
#     Edge 28, Type (0, 1), BuildingBlock: CIFDUS_clean_linker_0, # of connection points: 2
#     Edge 29, Type (0, 1), BuildingBlock: CIFDUS_clean_linker_0, # of connection points: 2
#     Edge 30, Type (0, 1), BuildingBlock: CIFDUS_clean_linker_0, # of connection points: 2
#     Edge 31, Type (0, 1), BuildingBlock: CIFDUS_clean_linker_0, # of connection points: 2
#     Edge 32, Type (0, 1), BuildingBlock: CIFDUS_clean_linker_0, # of connection points: 2
#     Edge 33, Type (0, 1), BuildingBlock: CIFDUS_clean_linker_0, # of connection points: 2
#     Edge 34, Type (0, 1), BuildingBlock: CIFDUS_clean_linker_0, # of connection points: 2
#     Edge 35, Type (0, 1), BuildingBlock: CIFDUS_clean_linker_0, # of connection points: 2
# Relax obj value: 0.064
# Max RMSD: 0.131
# Mean RMSD: 0.124
data_MOF--net-nom--node1-NAHDIM_clean_sbu_0--node2-NAHDIM_clean_linker_0--edge1-CIFDUS_clean_linker_0
_symmetry_space_group_name_H-M    P1
_symmetry_Int_Tables_number       1
_symmetry_cell_setting            triclinic
loop_
_symmetry_equiv_pos_as_xyz
'x, y, z'
_cell_length_a     51.799275
_cell_length_b     53.476476
_cell_length_c     63.738916
_cell_angle_alpha  90.09189
_cell_angle_beta   90.665832
_cell_angle_gamma 121.03529
loop_
_atom_site_label
_atom_site_type_symbol
_atom_site_fract_x
_atom_site_fract_y
_atom_site_fract_z
_atom_type_partial_charge
C0 C 0.18935 0.58603 0.23744 0.0
C1 C 0.19386 0.60426 0.25725 0.0
C2 C 0.14214 0.59141 0.26558 0.0
C3 C 0.13228 0.56301 0.27272 0.0
C4 C 0.10233 0.54442 0.27876 0.0
C5 C 0.08178 0.55432 0.2776 0.0
C6 C 0.09166 0.58296 0.27071 0.0
C7 C 0.12178 0.60116 0.26486 0.0
C8 C 0.09248 0.514 0.28614 0.0
C9 C 0.07026 0.59414 0.26925 0.0
C10 C 0.96359 0.4128 0.16926 0.0
C11 C 0.95478 0.43312 0.17961 0.0
C12 C 0.95522 0.44019 0.21722 0.0
C13 C 0.96033 0.46861 0.21774 0.0
C14 C 0.97344 0.48653 0.2355 0.0
C15 C 0.98209 0.47591 0.25291 0.0
C16 C 0.97604 0.44687 0.25261 0.0
C17 C 0.96201 0.42916 0.23488 0.0
C18 C 0.97883 0.51708 0.23542 0.0
C19 C 0.98555 0.43488 0.27059 0.0
C20 C 0.8593 0.42969 0.36161 0.0
C21 C 0.86866 0.45746 0.35357 0.0
C22 C 0.89938 0.47792 0.35089 0.0
C23 C 0.92102 0.47024 0.35615 0.0
C24 C 0.91163 0.4427 0.36513 0.0
C25 C 0.88081 0.4229 0.36801 0.0
C26 C 0.90867 0.5075 0.34203 0.0
C27 C 0.93408 0.43387 0.37114 0.0
C28 C 0.13609 0.62351 0.41696 0.0
C29 C 0.11589 0.59648 0.43002 0.0
C30 C 0.06556 0.57427 0.41455 0.0
C31 C 0.0486 0.58489 0.40522 0.0
C32 C 0.02777 0.56925 0.38901 0.0
C33 C 0.0235 0.5421 0.38238 0.0
C34 C 0.03942 0.53051 0.3926 0.0
C35 C 0.0603 0.54673 0.4086 0.0
C36 C 0.01093 0.58205 0.37858 0.0
C37 C 0.03471 0.50119 0.38635 0.0
C38 C 0.04966 0.53426 0.28273 0.0
C39 C 0.0306 0.51576 0.26682 0.0
C40 C 0.00011 0.496 0.2704 0.0
C41 C 0.98801 0.49494 0.29039 0.0
C42 C 0.95727 0.47601 0.29441 0.0
C43 C 0.9458 0.4745 0.31431 0.0
C44 C 0.96461 0.49203 0.33094 0.0
C45 C 0.95327 0.49038 0.35132 0.0
C46 C 0.97281 0.50741 0.36762 0.0
C47 C 0.00352 0.52635 0.36412 0.0
C48 C 0.01509 0.529 0.34373 0.0
C49 C 0.04573 0.54847 0.33955 0.0
C50 C 0.05706 0.55046 0.31955 0.0
C51 C 0.03825 0.53288 0.30299 0.0
C52 C 0.00726 0.51321 0.3068 0.0
C53 C 0.99561 0.51153 0.32714 0.0
C54 C 0.7933 0.37179 0.34077 0.0
C55 C 0.80753 0.40335 0.34847 0.0
O56 O 0.17074 0.60998 0.25902 0.0
O57 O 0.08658 0.59088 0.42936 0.0
O58 O 0.82973 0.40899 0.36329 0.0
O59 O 0.94463 0.42331 0.19968 0.0
H60 H 0.19428 0.59204 0.27124 0.0
H61 H 0.16814 0.56454 0.23829 0.0
H62 H 0.18815 0.59743 0.22323 0.0
H63 H 0.20828 0.58206 0.23582 0.0
H64 H 0.14758 0.55495 0.27349 0.0
H65 H 0.12953 0.62307 0.2594 0.0
H66 H 0.07534 0.49774 0.27504 0.0
H67 H 0.11155 0.51012 0.28732 0.0
H68 H 0.08181 0.51025 0.30173 0.0
H69 H 0.08145 0.61697 0.26356 0.0
H70 H 0.05125 0.57998 0.25842 0.0
H71 H 0.06061 0.59314 0.2849 0.0
H72 H 0.9757 0.45513 0.18031 0.0
H73 H 0.97177 0.42025 0.15311 0.0
H74 H 0.982 0.41299 0.17851 0.0
H75 H 0.94411 0.39003 0.16851 0.0
H76 H 0.95432 0.47683 0.20418 0.0
H77 H 0.9577 0.40706 0.23431 0.0
H78 H 0.00323 0.53293 0.23334 0.0
H79 H 0.96617 0.52021 0.22253 0.0
H80 H 0.97219 0.52213 0.25063 0.0
H81 H 0.9822 0.41309 0.26687 0.0
H82 H 0.00967 0.45005 0.27466 0.0
H83 H 0.97219 0.43281 0.28465 0.0
H84 H 0.81741 0.41739 0.33443 0.0
H85 H 0.85198 0.46311 0.34937 0.0
H86 H 0.87327 0.40156 0.37455 0.0
H87 H 0.91725 0.50909 0.32591 0.0
H88 H 0.88962 0.51146 0.34132 0.0
H89 H 0.92721 0.52497 0.3517 0.0
H90 H 0.92298 0.41102 0.37678 0.0
H91 H 0.94822 0.43617 0.35747 0.0
H92 H 0.94931 0.4486 0.38376 0.0
H93 H 0.11704 0.57796 0.42314 0.0
H94 H 0.15971 0.62843 0.41746 0.0
H95 H 0.12815 0.61953 0.40035 0.0
H96 H 0.13552 0.64276 0.42294 0.0
H97 H 0.05247 0.60594 0.41023 0.0
H98 H 0.07231 0.53778 0.41652 0.0
H99 H 0.01612 0.58502 0.36159 0.0
H100 H 0.98629 0.56672 0.37999 0.0
H101 H 0.01679 0.60343 0.38557 0.0
H102 H 0.04686 0.49413 0.397 0.0
H103 H 0.01032 0.48439 0.38639 0.0
H104 H 0.04285 0.50231 0.37015 0.0
H105 H 0.03977 0.51649 0.25145 0.0
H106 H 0.94177 0.46203 0.28221 0.0
H107 H 0.92201 0.45926 0.31651 0.0
H108 H 0.96409 0.50556 0.38331 0.0
H109 H 0.06132 0.56244 0.35171 0.0
H110 H 0.08082 0.56577 0.31727 0.0
H111 H 0.78327 0.35633 0.35402 0.0
H112 H 0.77547 0.36672 0.32879 0.0
H113 H 0.81078 0.36856 0.3335 0.0
C114 C 0.42175 0.86108 0.59076 0.0
C115 C 0.42046 0.85299 0.56754 0.0
C116 C 0.43032 0.89652 0.54806 0.0
C117 C 0.46 0.90652 0.54177 0.0
C118 C 0.4786 0.93522 0.5348 0.0
C119 C 0.46719 0.9542 0.53382 0.0
C120 C 0.43702 0.94391 0.5394 0.0
C121 C 0.41889 0.91508 0.54631 0.0
C122 C 0.5105 0.94532 0.5285 0.0
C123 C 0.42406 0.96348 0.53821 0.0
C124 C 0.64482 0.12699 0.6101 0.0
C125 C 0.61252 0.11587 0.61745 0.0
C126 C 0.57781 0.09617 0.58706 0.0
C127 C 0.55472 0.09781 0.5769 0.0
C128 C 0.53626 0.07711 0.56166 0.0
C129 C 0.54222 0.0551 0.55559 0.0
C130 C 0.56552 0.05319 0.56592 0.0
C131 C 0.58267 0.0734 0.58182 0.0
C132 C 0.51068 0.07913 0.55195 0.0
C133 C 0.57265 0.03006 0.56 0.0
C134 C 0.60064 0.16042 0.44011 0.0
C135 C 0.57119 0.15085 0.44662 0.0
C136 C 0.55065 0.12114 0.45001 0.0
C137 C 0.55992 0.10068 0.44706 0.0
C138 C 0.58912 0.11014 0.43953 0.0
C139 C 0.609 0.13996 0.43589 0.0
C140 C 0.51932 0.1117 0.45728 0.0
C141 C 0.59965 0.08892 0.43602 0.0
C142 C 0.41519 0.88677 0.39215 0.0
C143 C 0.44135 0.9074 0.37811 0.0
C144 C 0.45979 0.95584 0.39317 0.0
C145 C 0.4473 0.97209 0.40008 0.0
C146 C 0.46144 0.99331 0.41596 0.0
C147 C 0.48902 0.99864 0.4248 0.0
C148 C 0.50248 0.98322 0.41719 0.0
C149 C 0.48775 0.96202 0.4014 0.0
C150 C 0.44672 0.00963 0.42359 0.0
C151 C 0.53235 0.98903 0.42585 0.0
C152 C 0.48718 0.98496 0.52739 0.0
C153 C 0.50368 0.0056 0.54308 0.0
C154 C 0.5247 0.03457 0.53814 0.0
C155 C 0.52915 0.04338 0.51691 0.0
C156 C 0.55071 0.0721 0.51124 0.0
C157 C 0.55419 0.08082 0.49042 0.0
C158 C 0.53667 0.06101 0.47435 0.0
C159 C 0.53973 0.06979 0.45315 0.0
C160 C 0.52338 0.04915 0.43742 0.0
C161 C 0.50364 0.01986 0.44233 0.0
C162 C 0.49914 0.01095 0.46353 0.0
C163 C 0.47856 0.98188 0.46906 0.0
C164 C 0.47447 0.97332 0.48996 0.0
C165 C 0.49093 0.99347 0.50612 0.0
C166 C 0.51187 0.02285 0.50089 0.0
C167 C 0.51583 0.03162 0.47958 0.0
C168 C 0.65629 0.23198 0.45713 0.0
C169 C 0.62347 0.21155 0.45027 0.0
O170 O 0.41187 0.86912 0.55545 0.0
O171 O 0.44455 0.93481 0.37835 0.0
O172 O 0.62159 0.18918 0.43807 0.0
O173 O 0.59518 0.11734 0.60135 0.0
H174 H 0.44335 0.85789 0.5635 0.0
H175 H 0.43966 0.88426 0.59333 0.0
H176 H 0.40001 0.85836 0.59582 0.0
H177 H 0.42716 0.84726 0.60066 0.0
H178 H 0.4688 0.89208 0.54186 0.0
H179 H 0.39582 0.90705 0.55081 0.0
H180 H 0.52656 0.96439 0.53829 0.0
H181 H 0.51606 0.92795 0.53023 0.0
H182 H 0.51384 0.95249 0.51191 0.0
H183 H 0.3999 0.95195 0.5425 0.0
H184 H 0.43691 0.98246 0.54896 0.0
H185 H 0.42642 0.97211 0.52206 0.0
H186 H 0.60285 0.09285 0.62254 0.0
H187 H 0.65969 0.12972 0.62371 0.0
H188 H 0.64528 0.11119 0.59908 0.0
H189 H 0.65414 0.14808 0.6018 0.0
H190 H 0.55095 0.1153 0.58116 0.0
H191 H 0.60022 0.07159 0.58968 0.0
H192 H 0.49049 0.0571 0.54939 0.0
H193 H 0.50435 0.09216 0.56191 0.0
H194 H 0.51768 0.08995 0.53649 0.0
H195 H 0.59433 0.03442 0.56703 0.0
H196 H 0.55446 0.00854 0.56562 0.0
H197 H 0.57375 0.02858 0.54269 0.0
H198 H 0.61058 0.20267 0.46502 0.0
H199 H 0.56427 0.16657 0.44917 0.0
H200 H 0.63164 0.14757 0.43054 0.0
H201 H 0.51712 0.10519 0.474 0.0
H202 H 0.51422 0.12942 0.45583 0.0
H203 H 0.50228 0.09244 0.44807 0.0
H204 H 0.62353 0.09998 0.43109 0.0
H205 H 0.59716 0.07665 0.45065 0.0
H206 H 0.58537 0.07281 0.42371 0.0
H207 H 0.46197 0.90842 0.38432 0.0
H208 H 0.41208 0.8646 0.39184 0.0
H209 H 0.4201 0.89498 0.4086 0.0
H210 H 0.39392 0.8853 0.38689 0.0
H211 H 0.42597 0.96753 0.39335 0.0
H212 H 0.49845 0.95072 0.39538 0.0
H213 H 0.44224 0.00586 0.44064 0.0
H214 H 0.46222 0.03343 0.42144 0.0
H215 H 0.42516 0.00285 0.41517 0.0
H216 H 0.5406 0.9763 0.4175 0.0
H217 H 0.54951 0.01262 0.42463 0.0
H218 H 0.53008 0.98331 0.44273 0.0
H219 H 0.50053 0.99888 0.55937 0.0
H220 H 0.56507 0.08828 0.52285 0.0
H221 H 0.57094 0.10328 0.48708 0.0
H222 H 0.52634 0.0559 0.42115 0.0
H223 H 0.46527 0.96542 0.45729 0.0
H224 H 0.45825 0.95069 0.49329 0.0
H225 H 0.65837 0.25018 0.4669 0.0
H226 H 0.66417 0.21974 0.46664 0.0
H227 H 0.6711 0.24117 0.44331 0.0
C228 C 0.6281 0.44821 0.72247 0.0
C229 C 0.61295 0.4319 0.70194 0.0
C230 C 0.57574 0.44652 0.69462 0.0
C231 C 0.59662 0.47562 0.68925 0.0
C232 C 0.58696 0.49504 0.68409 0.0
C233 C 0.55585 0.48518 0.68413 0.0
C234 C 0.53478 0.45589 0.68928 0.0
C235 C 0.54504 0.43697 0.69446 0.0
C236 C 0.61 0.52618 0.67866 0.0
C237 C 0.50142 0.44467 0.68938 0.0
C238 C 0.57216 0.60811 0.7946 0.0
C239 C 0.54048 0.59443 0.78499 0.0
C240 C 0.53859 0.59045 0.747 0.0
C241 C 0.51381 0.56217 0.74385 0.0
C242 C 0.51116 0.54629 0.72557 0.0
C243 C 0.53392 0.55894 0.71028 0.0
C244 C 0.55842 0.58788 0.71316 0.0
C245 C 0.56009 0.60346 0.73137 0.0
C246 C 0.48438 0.51579 0.7228 0.0
C247 C 0.58337 0.60203 0.69737 0.0
C248 C 0.46921 0.6144 0.60088 0.0
C249 C 0.44939 0.58528 0.6065 0.0
C250 C 0.45957 0.56562 0.60833 0.0
C251 C 0.49028 0.57547 0.60477 0.0
C252 C 0.50991 0.60445 0.59808 0.0
C253 C 0.49893 0.62344 0.59592 0.0
C254 C 0.4377 0.53455 0.61463 0.0
C255 C 0.5427 0.61563 0.59388 0.0
C256 C 0.57437 0.44815 0.55171 0.0
C257 C 0.58134 0.47293 0.53648 0.0
C258 C 0.54683 0.4885 0.54712 0.0
C259 C 0.51661 0.47412 0.55294 0.0
C260 C 0.50676 0.48601 0.56836 0.0
C261 C 0.52767 0.51313 0.5778 0.0
C262 C 0.55782 0.52868 0.57087 0.0
C263 C 0.56707 0.51622 0.55555 0.0
C264 C 0.4744 0.46911 0.57521 0.0
C265 C 0.58053 0.55807 0.58016 0.0
C266 C 0.54537 0.50562 0.67912 0.0
C267 C 0.54317 0.52162 0.6956 0.0
C268 C 0.53338 0.54124 0.69211 0.0
C269 C 0.52481 0.54455 0.67163 0.0
C270 C 0.51374 0.56321 0.66764 0.0
C271 C 0.50616 0.5669 0.64733 0.0
C272 C 0.50939 0.55211 0.63021 0.0
C273 C 0.50227 0.55611 0.60943 0.0
C274 C 0.50739 0.54233 0.59268 0.0
C275 C 0.51904 0.52419 0.59616 0.0
C276 C 0.52473 0.51869 0.61689 0.0
C277 C 0.53513 0.49949 0.62096 0.0
C278 C 0.54143 0.49479 0.64135 0.0
C279 C 0.53815 0.50956 0.65841 0.0
C280 C 0.52763 0.52896 0.65469 0.0
C281 C 0.52036 0.53309 0.63393 0.0
C282 C 0.45791 0.66722 0.62429 0.0
C283 C 0.44198 0.63623 0.61517 0.0
O284 O 0.584 0.42704 0.70023 0.0
O285 O 0.55592 0.47503 0.53356 0.0
O286 O 0.46044 0.63432 0.60049 0.0
O287 O 0.54239 0.60552 0.76504 0.0
H288 H 0.62654 0.44511 0.68844 0.0
H289 H 0.63034 0.46998 0.72276 0.0
H290 H 0.61462 0.43575 0.73621 0.0
H291 H 0.65104 0.4515 0.724 0.0
H292 H 0.62048 0.48351 0.68916 0.0
H293 H 0.52908 0.41452 0.69856 0.0
H294 H 0.60843 0.54129 0.68983 0.0
H295 H 0.63338 0.53047 0.67917 0.0
H296 H 0.60519 0.5312 0.6627 0.0
H297 H 0.48789 0.4212 0.69352 0.0
H298 H 0.49673 0.45745 0.70084 0.0
H299 H 0.494 0.4477 0.67367 0.0
H300 H 0.53112 0.57043 0.78429 0.0
H301 H 0.57111 0.5996 0.81066 0.0
H302 H 0.5861 0.60249 0.78481 0.0
H303 H 0.58329 0.63227 0.7954 0.0
H304 H 0.49664 0.55253 0.75572 0.0
H305 H 0.57892 0.62548 0.73391 0.0
H306 H 0.49184 0.49981 0.72458 0.0
H307 H 0.46664 0.51071 0.73451 0.0
H308 H 0.4745 0.51292 0.70679 0.0
H309 H 0.60208 0.62366 0.70284 0.0
H310 H 0.59257 0.58772 0.69413 0.0
H311 H 0.57427 0.60503 0.68236 0.0
H312 H 0.43831 0.62158 0.62867 0.0
H313 H 0.42604 0.57801 0.6096 0.0
H314 H 0.51386 0.64586 0.59125 0.0
H315 H 0.44267 0.53123 0.63102 0.0
H316 H 0.41394 0.52918 0.61367 0.0
H317 H 0.44025 0.51911 0.60444 0.0
H318 H 0.55544 0.63928 0.59021 0.0
H319 H 0.55341 0.61183 0.60773 0.0
H320 H 0.54449 0.60345 0.58041 0.0
H321 H 0.60011 0.49342 0.54348 0.0
H322 H 0.59441 0.44592 0.55384 0.0
H323 H 0.5684 0.45298 0.56727 0.0
H324 H 0.55514 0.42712 0.54578 0.0
H325 H 0.50104 0.45296 0.54603 0.0
H326 H 0.59013 0.52815 0.55029 0.0
H327 H 0.4735 0.46289 0.59192 0.0
H328 H 0.46434 0.48305 0.57402 0.0
H329 H 0.46058 0.449 0.56564 0.0
H330 H 0.60231 0.56851 0.5718 0.0
H331 H 0.57145 0.57288 0.57963 0.0
H332 H 0.58481 0.55544 0.59689 0.0
H333 H 0.54957 0.51905 0.71137 0.0
H334 H 0.5109 0.57521 0.68019 0.0
H335 H 0.49802 0.58176 0.64523 0.0
H336 H 0.50289 0.54627 0.57674 0.0
H337 H 0.53842 0.48776 0.60844 0.0
H338 H 0.54931 0.47974 0.64353 0.0
H339 H 0.46345 0.68355 0.61174 0.0
H340 H 0.4434 0.66932 0.636 0.0
H341 H 0.47922 0.67212 0.63227 0.0
C342 C 0.19005 0.59556 0.90327 0.0
C343 C 0.19563 0.58769 0.88131 0.0
C344 C 0.14533 0.54759 0.87031 0.0
C345 C 0.13279 0.56504 0.86627 0.0
C346 C 0.10251 0.55241 0.86004 0.0
C347 C 0.08425 0.52173 0.85803 0.0
C348 C 0.09668 0.50408 0.86218 0.0
C349 C 0.12717 0.51731 0.86809 0.0
C350 C 0.08992 0.57188 0.85573 0.0
C351 C 0.07771 0.47125 0.8605 0.0
C352 C 0.89285 0.44423 0.96215 0.0
C353 C 0.91578 0.44685 0.94704 0.0
C354 C 0.94314 0.47438 0.91624 0.0
C355 C 0.95147 0.4543 0.90993 0.0
C356 C 0.96989 0.45978 0.89253 0.0
C357 C 0.98065 0.48605 0.88132 0.0
C358 C 0.97249 0.5064 0.88764 0.0
C359 C 0.95355 0.50012 0.90491 0.0
C360 C 0.97807 0.43752 0.8862 0.0
C361 C 0.98397 0.53484 0.87623 0.0
C362 C 0.86869 0.44299 0.76513 0.0
C363 C 0.87414 0.42151 0.77276 0.0
C364 C 0.90372 0.42788 0.77639 0.0
C365 C 0.92814 0.45652 0.77284 0.0
C366 C 0.92263 0.47779 0.7643 0.0
C367 C 0.89289 0.47052 0.76021 0.0
C368 C 0.90883 0.40425 0.78448 0.0
C369 C 0.94808 0.50843 0.76004 0.0
C370 C 0.13951 0.49212 0.71237 0.0
C371 C 0.11956 0.50414 0.70567 0.0
C372 C 0.06944 0.48109 0.72068 0.0
C373 C 0.04971 0.45457 0.73021 0.0
C374 C 0.02963 0.45273 0.74556 0.0
C375 C 0.02888 0.47799 0.75107 0.0
C376 C 0.04765 0.50457 0.7406 0.0
C377 C 0.06784 0.50587 0.72552 0.0
C378 C 0.0097 0.42397 0.75625 0.0
C379 C 0.04669 0.53166 0.7456 0.0
C380 C 0.05198 0.50825 0.85208 0.0
C381 C 0.03169 0.50384 0.86792 0.0
C382 C 0.00114 0.49236 0.86341 0.0
C383 C 0.9905 0.48568 0.84242 0.0
C384 C 0.96018 0.47529 0.83719 0.0
C385 C 0.95003 0.46903 0.81646 0.0
C386 C 0.96953 0.4718 0.80024 0.0
C387 C 0.95927 0.46486 0.77916 0.0
C388 C 0.97908 0.46709 0.76354 0.0
C389 C 0.00923 0.47677 0.7683 0.0
C390 C 0.02016 0.48477 0.78916 0.0
C391 C 0.0506 0.49552 0.79438 0.0
C392 C 0.06119 0.50365 0.8149 0.0
C393 C 0.04158 0.50052 0.83111 0.0
C394 C 0.01075 0.48941 0.82625 0.0
C395 C 0.00013 0.48195 0.8052 0.0
C396 C 0.80271 0.4407 0.78112 0.0
C397 C 0.81679 0.42237 0.77608 0.0
O398 O 0.17453 0.55882 0.8765 0.0
O399 O 0.08959 0.48204 0.70682 0.0
O400 O 0.84038 0.43787 0.76242 0.0
O401 O 0.92528 0.4697 0.93306 0.0
H402 H 0.19414 0.60227 0.86957 0.0
H403 H 0.16747 0.59313 0.90393 0.0
H404 H 0.19118 0.58105 0.91524 0.0
H405 H 0.20718 0.61859 0.90724 0.0
H406 H 0.14628 0.58849 0.86797 0.0
H407 H 0.13696 0.504 0.87126 0.0
H408 H 0.0724 0.56758 0.86742 0.0
H409 H 0.10754 0.59542 0.85651 0.0
H410 H 0.07898 0.56687 0.83995 0.0
H411 H 0.09034 0.46055 0.86536 0.0
H412 H 0.05749 0.46303 0.87044 0.0
H413 H 0.06972 0.46477 0.84404 0.0
H414 H 0.93485 0.44551 0.95411 0.0
H415 H 0.8541 0.40377 0.95403 0.0
H416 H 0.90428 0.44864 0.978 0.0
H417 H 0.89333 0.46554 0.96167 0.0
H418 H 0.94366 0.43425 0.91848 0.0
H419 H 0.94706 0.5155 0.90984 0.0
H420 H 0.9729 0.432 0.86927 0.0
H421 H 0.00265 0.44691 0.88858 0.0
H422 H 0.96586 0.41712 0.89541 0.0
H423 H 0.97679 0.549 0.88373 0.0
H424 H 0.00897 0.54686 0.87576 0.0
H425 H 0.9755 0.53036 0.85976 0.0
H426 H 0.82529 0.41867 0.79122 0.0
H427 H 0.8553 0.39984 0.77587 0.0
H428 H 0.88832 0.48671 0.75397 0.0
H429 H 0.91554 0.40841 0.8013 0.0
H430 H 0.88823 0.38225 0.78296 0.0
H431 H 0.9274 0.40436 0.77586 0.0
H432 H 0.93983 0.52289 0.75471 0.0
H433 H 0.96214 0.51804 0.77444 0.0
H434 H 0.96275 0.50786 0.74773 0.0
H435 H 0.12466 0.52226 0.71679 0.0
H436 H 0.16369 0.50947 0.7116 0.0
H437 H 0.13447 0.48429 0.72879 0.0
H438 H 0.13538 0.47356 0.7021 0.0
H439 H 0.05081 0.43548 0.72605 0.0
H440 H 0.08227 0.52616 0.71748 0.0
H441 H 0.01405 0.42659 0.77345 0.0
H442 H 0.98568 0.417 0.75355 0.0
H443 H 0.01342 0.40649 0.75045 0.0
H444 H 0.0608 0.54989 0.73484 0.0
H445 H 0.02311 0.52679 0.74458 0.0
H446 H 0.05488 0.53887 0.76193 0.0
H447 H 0.03976 0.50925 0.88404 0.0
H448 H 0.94402 0.47225 0.84904 0.0
H449 H 0.92656 0.46164 0.81339 0.0
H450 H 0.97098 0.46144 0.74745 0.0
H451 H 0.06667 0.49804 0.78263 0.0
H452 H 0.0849 0.5121 0.81794 0.0
H453 H 0.79365 0.44512 0.76662 0.0
H454 H 0.78416 0.42922 0.79249 0.0
H455 H 0.82002 0.46188 0.78823 0.0
C456 C 0.40861 0.83797 0.90632 0.0
C457 C 0.41884 0.83448 0.92823 0.0
C458 C 0.45667 0.88506 0.93822 0.0
C459 C 0.43603 0.89401 0.94261 0.0
C460 C 0.44605 0.92302 0.94817 0.0
C461 C 0.47731 0.94373 0.949 0.0
C462 C 0.49817 0.93491 0.94461 0.0
C463 C 0.48752 0.90558 0.93949 0.0
C464 C 0.42313 0.93163 0.95284 0.0
C465 C 0.53164 0.95654 0.945 0.0
C466 C 0.44089 0.03877 0.83457 0.0
C467 C 0.47056 0.05162 0.84699 0.0
C468 C 0.47565 0.05428 0.88496 0.0
C469 C 0.50273 0.05444 0.88694 0.0
C470 C 0.50993 0.04519 0.90553 0.0
C471 C 0.48935 0.03515 0.92229 0.0
C472 C 0.46261 0.03619 0.92061 0.0
C473 C 0.45647 0.04638 0.90205 0.0
C474 C 0.539 0.04516 0.90695 0.0
C475 C 0.43979 0.02518 0.93794 0.0
C476 C 0.54727 0.15719 0.03357 0.0
C477 C 0.56938 0.15325 0.02429 0.0
C478 C 0.56443 0.12512 0.02104 0.0
C479 C 0.5364 0.10049 0.02654 0.0
C480 C 0.51437 0.10453 0.03631 0.0
C481 C 0.5204 0.13291 0.04006 0.0
C482 C 0.58905 0.12177 0.01155 0.0
C483 C 0.48425 0.07892 0.04252 0.0
C484 C 0.50549 0.90542 0.08581 0.0
C485 C 0.49432 0.92077 0.10016 0.0
C486 C 0.51673 0.96956 0.08584 0.0
C487 C 0.54465 0.98898 0.07711 0.0
C488 C 0.54707 0.00764 0.06078 0.0
C489 C 0.52095 0.00715 0.05341 0.0
C490 C 0.49293 0.98875 0.06308 0.0
C491 C 0.49112 0.97011 0.0792 0.0
C492 C 0.57731 0.02722 0.05097 0.0
C493 C 0.46479 0.98837 0.05608 0.0
C494 C 0.48789 0.97483 0.9535 0.0
C495 C 0.48654 0.99142 0.93712 0.0
C496 C 0.4939 0.02022 0.94033 0.0
C497 C 0.50357 0.03324 0.96043 0.0
C498 C 0.51138 0.06222 0.96423 0.0
C499 C 0.51981 0.07446 0.98426 0.0
C500 C 0.52136 0.05838 0.00119 0.0
C501 C 0.52971 0.07053 0.02166 0.0
C502 C 0.53027 0.05362 0.03819 0.0
C503 C 0.52245 0.02469 0.03492 0.0
C504 C 0.51454 0.01232 0.01453 0.0
C505 C 0.50681 0.98333 0.01068 0.0
C506 C 0.49816 0.97103 0.99071 0.0
C507 C 0.49714 0.98729 0.97377 0.0
C508 C 0.50509 0.01665 0.97723 0.0
C509 C 0.51391 0.02921 0.99763 0.0
C510 C 0.55084 0.22506 0.02283 0.0
C511 C 0.56681 0.20772 0.02348 0.0
O512 O 0.44794 0.85719 0.93251 0.0
O513 O 0.51511 0.95053 0.10058 0.0
O514 O 0.55109 0.18403 0.03656 0.0
O515 O 0.46701 0.0607 0.86656 0.0
H516 H 0.4032 0.83441 0.94006 0.0
H517 H 0.40821 0.85849 0.90548 0.0
H518 H 0.4242 0.83869 0.89417 0.0
H519 H 0.38551 0.81948 0.90274 0.0
H520 H 0.41205 0.87871 0.94166 0.0
H521 H 0.50331 0.89859 0.93607 0.0
H522 H 0.42318 0.94579 0.9401 0.0
H523 H 0.39996 0.9124 0.95409 0.0
H524 H 0.42912 0.94436 0.96773 0.0
H525 H 0.54484 0.94653 0.94008 0.0
H526 H 0.53693 0.97505 0.93444 0.0
H527 H 0.53896 0.96561 0.9611 0.0
H528 H 0.4752 0.03353 0.84866 0.0
H529 H 0.44336 0.03164 0.81872 0.0
H530 H 0.42294 0.01947 0.84288 0.0
H531 H 0.43372 0.055 0.83289 0.0
H532 H 0.51803 0.0614 0.87387 0.0
H533 H 0.43579 0.04669 0.90037 0.0
H534 H 0.53402 0.02239 0.90554 0.0
H535 H 0.55481 0.05828 0.89433 0.0
H536 H 0.55024 0.05392 0.92242 0.0
H537 H 0.41904 0.02524 0.93342 0.0
H538 H 0.43342 0.00261 0.94224 0.0
H539 H 0.4498 0.03915 0.95211 0.0
H540 H 0.56628 0.19991 0.00716 0.0
H541 H 0.59059 0.17207 0.01976 0.0
H542 H 0.50368 0.13628 0.04745 0.0
H543 H 0.58295 0.11419 0.99503 0.0
H544 H 0.61106 0.14266 0.01169 0.0
H545 H 0.59163 0.10514 0.02017 0.0
H546 H 0.46825 0.08575 0.0474 0.0
H547 H 0.47398 0.06311 0.02928 0.0
H548 H 0.48754 0.06744 0.05583 0.0
H549 H 0.47229 0.91635 0.09373 0.0
H550 H 0.48919 0.8815 0.08551 0.0
H551 H 0.50774 0.91367 0.06955 0.0
H552 H 0.52783 0.90957 0.09129 0.0
H553 H 0.56437 0.98871 0.08264 0.0
H554 H 0.46972 0.95607 0.08662 0.0
H555 H 0.57606 0.02192 0.034 0.0
H556 H 0.58332 0.05032 0.05231 0.0
H557 H 0.59548 0.02499 0.05847 0.0
H558 H 0.44547 0.97502 0.06652 0.0
H559 H 0.46904 0.01094 0.05569 0.0
H560 H 0.45845 0.97924 0.03992 0.0
H561 H 0.4788 0.98145 0.9217 0.0
H562 H 0.51075 0.07565 0.95178 0.0
H563 H 0.52504 0.0967 0.98627 0.0
H564 H 0.53616 0.06288 0.05391 0.0
H565 H 0.5072 0.96974 0.0231 0.0
H566 H 0.4922 0.94855 0.98874 0.0
H567 H 0.5503 0.2333 0.03875 0.0
H568 H 0.56256 0.24387 0.01204 0.0
H569 H 0.5273 0.21085 0.01703 0.0
C570 C 0.63097 0.47455 0.04103 0.0
C571 C 0.62441 0.46248 0.06338 0.0
C572 C 0.61093 0.49014 0.08663 0.0
C573 C 0.58303 0.46752 0.09379 0.0
C574 C 0.56168 0.47356 0.10183 0.0
C575 C 0.5686 0.5028 0.10298 0.0
C576 C 0.59736 0.52571 0.09693 0.0
C577 C 0.61828 0.51905 0.08899 0.0
C578 C 0.5315 0.44871 0.10868 0.0
C579 C 0.6056 0.55717 0.09824 0.0
C580 C 0.4271 0.47227 0.99196 0.0
C581 C 0.44853 0.50044 0.00395 0.0
C582 C 0.45151 0.50597 0.0417 0.0
C583 C 0.4803 0.53074 0.04424 0.0
C584 C 0.49697 0.53533 0.06283 0.0
C585 C 0.48484 0.51424 0.07894 0.0
C586 C 0.4553 0.48968 0.07661 0.0
C587 C 0.43872 0.48629 0.05815 0.0
C588 C 0.528 0.56218 0.0649 0.0
C589 C 0.44174 0.46627 0.0931 0.0
C590 C 0.42742 0.57266 0.19295 0.0
C591 C 0.45447 0.59214 0.18309 0.0
C592 C 0.47622 0.58451 0.17945 0.0
C593 C 0.47011 0.55632 0.18503 0.0
C594 C 0.44296 0.53688 0.19536 0.0
C595 C 0.42224 0.54562 0.19959 0.0
C596 C 0.50553 0.60651 0.16945 0.0
C597 C 0.43549 0.50666 0.2016 0.0
C598 C 0.62856 0.50368 0.24583 0.0
C599 C 0.59803 0.49323 0.25592 0.0
C600 C 0.57609 0.5206 0.24183 0.0
C601 C 0.58727 0.54885 0.23435 0.0
C602 C 0.57194 0.5544 0.21844 0.0
C603 C 0.54451 0.53111 0.21022 0.0
C604 C 0.53222 0.50278 0.21863 0.0
C605 C 0.54814 0.49783 0.2344 0.0
C606 C 0.58542 0.58489 0.20999 0.0
C607 C 0.50253 0.47763 0.21068 0.0
C608 C 0.54505 0.50932 0.10891 0.0
C609 C 0.52624 0.50899 0.09294 0.0
C610 C 0.5043 0.5161 0.0969 0.0
C611 C 0.50115 0.52413 0.11745 0.0
C612 C 0.48006 0.53237 0.12194 0.0
C613 C 0.47677 0.53966 0.14231 0.0
C614 C 0.49475 0.53939 0.15893 0.0
C615 C 0.49175 0.54694 0.1797 0.0
C616 C 0.50895 0.54493 0.19597 0.0
C617 C 0.52935 0.53583 0.19207 0.0
C618 C 0.53378 0.52966 0.1713 0.0
C619 C 0.55524 0.52184 0.16673 0.0
C620 C 0.5592 0.51546 0.14628 0.0
C621 C 0.54151 0.51616 0.12969 0.0
C622 C 0.51962 0.52382 0.13393 0.0
C623 C 0.51615 0.5311 0.15472 0.0
C624 C 0.36045 0.57234 0.18128 0.0
C625 C 0.39487 0.5898 0.18069 0.0
O626 O 0.63124 0.4849 0.07748 0.0
O627 O 0.59256 0.51604 0.25636 0.0
O628 O 0.40591 0.57941 0.19613 0.0
O629 O 0.43619 0.50003 0.02322 0.0
H630 H 0.59997 0.44571 0.06334 0.0
H631 H 0.61526 0.48207 0.03667 0.0
H632 H 0.65432 0.49343 0.03977 0.0
H633 H 0.62761 0.45728 0.02969 0.0
H634 H 0.57784 0.44516 0.09312 0.0
H635 H 0.64012 0.53637 0.08384 0.0
H636 H 0.51347 0.44744 0.09833 0.0
H637 H 0.5303 0.42736 0.10811 0.0
H638 H 0.52691 0.45273 0.12493 0.0
H639 H 0.62926 0.57251 0.09363 0.0
H640 H 0.59037 0.56055 0.0878 0.0
H641 H 0.60246 0.56251 0.1145 0.0
H642 H 0.47006 0.50068 0.00624 0.0
H643 H 0.43663 0.47205 0.97648 0.0
H644 H 0.4239 0.45318 0.00104 0.0
H645 H 0.40474 0.47006 0.98948 0.0
H646 H 0.48983 0.54625 0.03156 0.0
H647 H 0.41634 0.46734 0.05597 0.0
H648 H 0.53182 0.57163 0.08096 0.0
H649 H 0.54516 0.55607 0.06211 0.0
H650 H 0.53144 0.57915 0.05336 0.0
H651 H 0.42014 0.44696 0.08772 0.0
H652 H 0.45767 0.45901 0.09744 0.0
H653 H 0.43737 0.47518 0.10746 0.0
H654 H 0.40141 0.58611 0.16488 0.0
H655 H 0.45862 0.61336 0.17843 0.0
H656 H 0.40133 0.53094 0.2074 0.0
H657 H 0.505 0.60075 0.15266 0.0
H658 H 0.50945 0.62897 0.17035 0.0
H659 H 0.52482 0.60639 0.17714 0.0
H660 H 0.41172 0.49284 0.20657 0.0
H661 H 0.43951 0.49563 0.18835 0.0
H662 H 0.45039 0.50836 0.21487 0.0
H663 H 0.58077 0.47469 0.24621 0.0
H664 H 0.63344 0.48573 0.24541 0.0
H665 H 0.62824 0.51062 0.22946 0.0
H666 H 0.64689 0.52251 0.25471 0.0
H667 H 0.60859 0.56637 0.24053 0.0
H668 H 0.53867 0.47622 0.24094 0.0
H669 H 0.58987 0.58486 0.19299 0.0
H670 H 0.56913 0.59237 0.21167 0.0
H671 H 0.6068 0.60068 0.21819 0.0
H672 H 0.49484 0.45754 0.22003 0.0
H673 H 0.48495 0.48362 0.21109 0.0
H674 H 0.50482 0.47276 0.1941 0.0
H675 H 0.52876 0.50313 0.0771 0.0
H676 H 0.46578 0.53318 0.10975 0.0
H677 H 0.45985 0.54543 0.14484 0.0
H678 H 0.50602 0.55001 0.21194 0.0
H679 H 0.56936 0.52074 0.1789 0.0
H680 H 0.57609 0.50966 0.14366 0.0
H681 H 0.35243 0.57509 0.19673 0.0
H682 H 0.35084 0.57964 0.1687 0.0
H683 H 0.35206 0.54879 0.17875 0.0
C684 C 0.57398 0.32245 0.41255 0.0
O685 O 0.56384 0.33502 0.42496 0.0
O686 O 0.64944 0.39725 0.39022 0.0
Zn687 Zn 0.60452 0.379 0.3924 0.0
O688 O 0.59292 0.39483 0.41696 0.0
C689 C 0.59936 0.41401 0.362 0.0
O690 O 0.61626 0.4334 0.37641 0.0
O691 O 0.58917 0.3362 0.39661 0.0
C692 C 0.61143 0.41665 0.42811 0.0
O693 O 0.64016 0.43074 0.42344 0.0
C694 C 0.66333 0.38982 0.40295 0.0
O695 O 0.64861 0.37293 0.41878 0.0
O696 O 0.58991 0.38723 0.36538 0.0
C697 C 0.28956 0.68459 0.56144 0.0
O698 O 0.29818 0.6688 0.55125 0.0
O699 O 0.27568 0.61739 0.57595 0.0
Zn700 Zn 0.24338 0.62778 0.57267 0.0
O701 O 0.21963 0.61153 0.54579 0.0
C702 C 0.19387 0.58818 0.59935 0.0
O703 O 0.18629 0.57023 0.58326 0.0
O704 O 0.2653 0.6717 0.57178 0.0
C705 C 0.20115 0.61937 0.54041 0.0
O706 O 0.19759 0.63691 0.55289 0.0
C707 C 0.27495 0.59939 0.58928 0.0
O708 O 0.25084 0.58444 0.60072 0.0
O709 O 0.21667 0.61383 0.59797 0.0
C710 C 0.60006 0.27838 0.72248 0.0
O711 O 0.61838 0.27468 0.71059 0.0
O712 O 0.64498 0.26001 0.75889 0.0
Zn713 Zn 0.60287 0.23492 0.7472 0.0
O714 O 0.60289 0.21127 0.72243 0.0
C715 C 0.5818 0.19007 0.77809 0.0
O716 O 0.60538 0.1892 0.77176 0.0
O717 O 0.58906 0.2625 0.73858 0.0
C718 C 0.58229 0.1848 0.71934 0.0
O719 O 0.55955 0.17236 0.73227 0.0
C720 C 0.66775 0.27187 0.74703 0.0
O721 O 0.66404 0.26583 0.72685 0.0
O722 O 0.57613 0.20838 0.76988 0.0
C723 C 0.42145 0.68697 0.91495 0.0
O724 O 0.39811 0.66523 0.92416 0.0
O725 O 0.37576 0.62206 0.88884 0.0
Zn726 Zn 0.41925 0.63833 0.8969 0.0
O727 O 0.42083 0.6182 0.92313 0.0
C728 C 0.43404 0.60502 0.87031 0.0
O729 O 0.4133 0.58413 0.88185 0.0
O730 O 0.43655 0.68119 0.90233 0.0
C731 C 0.44398 0.61723 0.9285 0.0
O732 O 0.46843 0.63114 0.91721 0.0
C733 C 0.35443 0.59762 0.89518 0.0
O734 O 0.3608 0.58088 0.90644 0.0
O735 O 0.44076 0.63117 0.87363 0.0
C736 C 0.73629 0.40259 0.08117 0.0
O737 O 0.72348 0.37811 0.09171 0.0
O738 O 0.73904 0.34176 0.06536 0.0
Zn739 Zn 0.77509 0.38163 0.07141 0.0
O740 O 0.79568 0.38303 0.09869 0.0
C741 C 0.80561 0.40274 0.03116 0.0
O742 O 0.78684 0.41203 0.02802 0.0
O743 O 0.76052 0.41015 0.07146 0.0
C744 C 0.81965 0.40695 0.10324 0.0
O745 O 0.82822 0.42932 0.09073 0.0
C746 C 0.72336 0.3224 0.07878 0.0
O747 O 0.73129 0.3273 0.09871 0.0
O748 O 0.80463 0.39021 0.04832 0.0
C749 C 0.42362 0.74561 0.21454 0.0
O750 O 0.41347 0.75457 0.19909 0.0
O751 O 0.36689 0.75665 0.24203 0.0
Zn752 Zn 0.411 0.78387 0.23704 0.0
O753 O 0.41744 0.80836 0.21144 0.0
C754 C 0.41849 0.82461 0.26849 0.0
O755 O 0.39725 0.8245 0.25694 0.0
O756 O 0.42691 0.75694 0.23265 0.0
C757 C 0.44348 0.82917 0.20662 0.0
O758 O 0.46657 0.83521 0.21891 0.0
C759 C 0.34497 0.75457 0.23139 0.0
O760 O 0.35031 0.77266 0.21586 0.0
O761 O 0.42914 0.80898 0.26277 0.0
H762 H 0.20881 0.65219 0.23314 0.0
H763 H 0.24604 0.61946 0.27877 0.0
H764 H 0.29539 0.66381 0.27576 0.0
H765 H 0.32836 0.71055 0.25903 0.0
H766 H 0.29215 0.74306 0.21236 0.0
H767 H 0.24189 0.70024 0.21707 0.0
C768 C 0.22771 0.655 0.24257 0.0
C769 C 0.22373 0.63274 0.25632 0.0
C770 C 0.25615 0.68041 0.24054 0.0
C771 C 0.24846 0.6364 0.26825 0.0
C772 C 0.27668 0.6617 0.26649 0.0
C773 C 0.30948 0.70848 0.24998 0.0
C774 C 0.31407 0.72998 0.2353 0.0
C775 C 0.28084 0.68368 0.25253 0.0
C776 C 0.28929 0.72682 0.22372 0.0
C777 C 0.26054 0.70231 0.22638 0.0
H778 H 0.58329 0.22671 0.46314 0.0
H779 H 0.63826 0.23404 0.41053 0.0
H780 H 0.62469 0.26638 0.39289 0.0
H781 H 0.60149 0.29639 0.39421 0.0
H782 H 0.54722 0.28969 0.44725 0.0
H783 H 0.55564 0.25273 0.4627 0.0
C784 C 0.59188 0.23504 0.44766 0.0
C785 C 0.61187 0.22819 0.43818 0.0
C786 C 0.58415 0.25374 0.43772 0.0
C787 C 0.62287 0.23909 0.41812 0.0
C788 C 0.61517 0.25759 0.40808 0.0
C789 C 0.591 0.28647 0.40895 0.0
C790 C 0.57405 0.29612 0.41966 0.0
C791 C 0.59641 0.26562 0.41797 0.0
C792 C 0.56055 0.28288 0.43872 0.0
C793 C 0.56547 0.26181 0.44763 0.0
H794 H 0.38562 0.59747 0.62913 0.0
H795 H 0.43158 0.6581 0.57913 0.0
H796 H 0.38348 0.65011 0.56553 0.0
H797 H 0.32907 0.62911 0.56977 0.0
H798 H 0.28324 0.56852 0.61997 0.0
H799 H 0.33053 0.57289 0.63134 0.0
C800 C 0.38502 0.6086 0.61509 0.0
C801 C 0.41207 0.6285 0.60523 0.0
C802 C 0.35735 0.60398 0.60745 0.0
C803 C 0.41101 0.64276 0.58701 0.0
C804 C 0.38356 0.63823 0.57928 0.0
C805 C 0.32931 0.61655 0.58303 0.0
C806 C 0.30266 0.59879 0.59414 0.0
C807 C 0.35666 0.61938 0.58964 0.0
C808 C 0.30341 0.58251 0.61119 0.0
C809 C 0.33048 0.58506 0.61777 0.0
H810 H 0.77761 0.37334 0.79684 0.0
H811 H 0.802 0.40721 0.73421 0.0
H812 H 0.75995 0.362 0.71968 0.0
H813 H 0.71375 0.3147 0.725 0.0
H814 H 0.68703 0.28246 0.78785 0.0
H815 H 0.73261 0.32497 0.80207 0.0
C816 C 0.77397 0.37052 0.77999 0.0
C817 C 0.79319 0.39333 0.76663 0.0
C818 C 0.74921 0.34485 0.77181 0.0
C819 C 0.78789 0.38978 0.74483 0.0
C820 C 0.76373 0.36399 0.73652 0.0
C821 C 0.71816 0.31672 0.74179 0.0
C822 C 0.69704 0.2955 0.75536 0.0
C823 C 0.74393 0.34162 0.74989 0.0
C824 C 0.7029 0.29858 0.77709 0.0
C825 C 0.72891 0.32289 0.78523 0.0
H826 H 0.45738 0.81919 0.91128 0.0
H827 H 0.37629 0.78469 0.94744 0.0
H828 H 0.37123 0.73674 0.94769 0.0
H829 H 0.38826 0.70414 0.93627 0.0
H830 H 0.46824 0.73749 0.89893 0.0
H831 H 0.47553 0.78645 0.90071 0.0
C832 C 0.43887 0.80121 0.91942 0.0
C833 C 0.41746 0.80556 0.92957 0.0
C834 C 0.43585 0.77353 0.91926 0.0
C835 C 0.39326 0.78198 0.93976 0.0
C836 C 0.3903 0.75455 0.93985 0.0
C837 C 0.40749 0.72213 0.92867 0.0
C838 C 0.42763 0.71711 0.91744 0.0
C839 C 0.41126 0.75002 0.92948 0.0
C840 C 0.45235 0.74072 0.90765 0.0
C841 C 0.4565 0.76871 0.90863 0.0
H842 H 0.68569 0.48515 0.06126 0.0
H843 H 0.60303 0.40806 0.07955 0.0
H844 H 0.63069 0.38367 0.08813 0.0
H845 H 0.67767 0.38324 0.08857 0.0
H846 H 0.75993 0.45885 0.06794 0.0
H847 H 0.73304 0.4848 0.06189 0.0
C848 C 0.67369 0.46292 0.0669 0.0
C849 C 0.64218 0.44813 0.06919 0.0
C850 C 0.68964 0.44878 0.07133 0.0
C851 C 0.62716 0.41968 0.07724 0.0
C852 C 0.64295 0.40575 0.08217 0.0
C853 C 0.68982 0.4055 0.08294 0.0
C854 C 0.72076 0.41914 0.07874 0.0
C855 C 0.6741 0.41994 0.079 0.0
C856 C 0.73609 0.44788 0.07125 0.0
C857 C 0.72072 0.46269 0.06778 0.0
H858 H 0.35953 0.82137 0.57469 0.0
H859 H 0.43234 0.81249 0.55147 0.0
H860 H 0.39795 0.76016 0.54636 0.0
H861 H 0.34793 0.71669 0.54997 0.0
H862 H 0.2754 0.72461 0.57502 0.0
H863 H 0.30897 0.77754 0.57805 0.0
C864 C 0.36784 0.80792 0.5686 0.0
C865 C 0.39855 0.82074 0.56376 0.0
C866 C 0.34804 0.77771 0.56608 0.0
C867 C 0.40889 0.80313 0.55551 0.0
C868 C 0.38925 0.77321 0.55258 0.0
C869 C 0.33936 0.72998 0.55595 0.0
C870 C 0.30921 0.71673 0.56226 0.0
C871 C 0.35888 0.76023 0.55803 0.0
C872 C 0.29855 0.73428 0.57011 0.0
C873 C 0.31773 0.76453 0.57185 0.0
H874 H 0.5755 0.38232 0.72378 0.0
H875 H 0.64829 0.41721 0.67972 0.0
H876 H 0.64901 0.37189 0.68087 0.0
H877 H 0.63097 0.32363 0.69592 0.0
H878 H 0.55965 0.28938 0.74124 0.0
H879 H 0.55606 0.33301 0.73788 0.0
C880 C 0.59122 0.37978 0.71425 0.0
C881 C 0.61159 0.40293 0.7015 0.0
C882 C 0.59182 0.35385 0.71525 0.0
C883 C 0.63219 0.39959 0.68947 0.0
C884 C 0.63266 0.37373 0.69017 0.0
C885 C 0.61436 0.32549 0.70488 0.0
C886 C 0.59565 0.30328 0.71884 0.0
C887 C 0.61283 0.35087 0.70319 0.0
C888 C 0.5744 0.30619 0.73042 0.0
C889 C 0.57236 0.33116 0.72854 0.0
H890 H 0.21508 0.55148 0.89514 0.0
H891 H 0.24665 0.63528 0.86661 0.0
H892 H 0.2982 0.645 0.86721 0.0
H893 H 0.33442 0.63059 0.87712 0.0
H894 H 0.30328 0.54717 0.90633 0.0
H895 H 0.25133 0.53617 0.90384 0.0
C896 C 0.23322 0.57165 0.88876 0.0
C897 C 0.22702 0.59241 0.88047 0.0
C898 C 0.26282 0.57716 0.88929 0.0
C899 C 0.25082 0.61878 0.87274 0.0
C900 C 0.28027 0.62437 0.87314 0.0
C901 C 0.31628 0.60986 0.88276 0.0
C902 C 0.32278 0.58978 0.89196 0.0
C903 C 0.28655 0.60382 0.88151 0.0
C904 C 0.29895 0.56306 0.89922 0.0
C905 C 0.26923 0.55677 0.89785 0.0
H906 H 0.58921 0.22009 0.06402 0.0
H907 H 0.61626 0.23996 0.99954 0.0
H908 H 0.66769 0.27564 0.01089 0.0
H909 H 0.7039 0.30339 0.03903 0.0
H910 H 0.67721 0.28384 0.10366 0.0
H911 H 0.62683 0.24535 0.09236 0.0
C912 C 0.60653 0.23185 0.05249 0.0
C913 C 0.59909 0.22719 0.03096 0.0
C914 C 0.63603 0.2524 0.05914 0.0
C915 C 0.6216 0.24298 0.01618 0.0
C916 C 0.65093 0.26342 0.02266 0.0
C917 C 0.68718 0.29053 0.05067 0.0
C918 C 0.69423 0.29669 0.07215 0.0
C919 C 0.65827 0.26863 0.04408 0.0
C920 C 0.67238 0.27961 0.08702 0.0
C921 C 0.64351 0.25767 0.08057 0.0
H922 H 0.40956 0.62165 0.21758 0.0
H923 H 0.40433 0.62947 0.15056 0.0
H924 H 0.41588 0.67964 0.15488 0.0
H925 H 0.42275 0.71944 0.17785 0.0
H926 H 0.42803 0.71185 0.24495 0.0
H927 H 0.422 0.66374 0.24043 0.0
C928 C 0.41164 0.63458 0.20392 0.0
C929 C 0.40639 0.62198 0.18374 0.0
C930 C 0.4182 0.66339 0.20653 0.0
C931 C 0.40861 0.63884 0.1662 0.0
C932 C 0.41509 0.66745 0.16868 0.0
C933 C 0.42304 0.70747 0.19148 0.0
C934 C 0.42547 0.71909 0.2117 0.0
C935 C 0.41926 0.67971 0.18879 0.0
C936 C 0.42612 0.70341 0.22919 0.0
C937 C 0.42248 0.67579 0.22663 0.0
H938 H 0.78164 0.38726 0.38714 0.0
H939 H 0.77928 0.42917 0.33003 0.0
H940 H 0.73635 0.43165 0.34285 0.0
H941 H 0.69682 0.41786 0.36882 0.0
H942 H 0.69807 0.37438 0.42551 0.0
H943 H 0.74442 0.3771 0.41452 0.0
C944 C 0.77205 0.39745 0.37772 0.0
C945 C 0.78372 0.40824 0.35775 0.0
C946 C 0.74711 0.39839 0.38507 0.0
C947 C 0.77082 0.42095 0.34553 0.0
C948 C 0.74624 0.42227 0.35281 0.0
C949 C 0.70746 0.40937 0.37895 0.0
C950 C 0.69379 0.39568 0.39788 0.0
C951 C 0.7338 0.4105 0.37236 0.0
C952 C 0.70798 0.3849 0.41081 0.0
C953 C 0.73445 0.38633 0.4045 0.0
H954 H 0.14977 0.57688 0.44858 0.0
H955 H 0.10891 0.62794 0.46133 0.0
H956 H 0.13055 0.63842 0.49686 0.0
H957 H 0.16264 0.63458 0.52372 0.0
H958 H 0.20428 0.58416 0.51067 0.0
H959 H 0.18056 0.57172 0.47588 0.0
C960 C 0.14532 0.58999 0.45925 0.0
C961 C 0.12739 0.60124 0.45248 0.0
C962 C 0.15805 0.59613 0.47954 0.0
C963 C 0.12225 0.61867 0.46632 0.0
C964 C 0.13472 0.62476 0.48657 0.0
C965 C 0.1664 0.62072 0.51334 0.0
C966 C 0.18533 0.61043 0.5198 0.0
C967 C 0.15286 0.6138 0.49329 0.0
C968 C 0.1899 0.59246 0.50611 0.0
C969 C 0.17637 0.58535 0.48619 0.0
H970 H 0.57777 0.09561 0.65221 0.0
H971 H 0.64347 0.17602 0.62298 0.0
H972 H 0.64043 0.20394 0.65201 0.0
H973 H 0.61876 0.20578 0.68556 0.0
H974 H 0.5505 0.1257 0.71375 0.0
H975 H 0.55476 0.09751 0.68525 0.0
C976 C 0.59172 0.11923 0.65236 0.0
C977 C 0.61179 0.13351 0.63585 0.0
C978 C 0.5892 0.13529 0.66883 0.0
C979 C 0.62877 0.16425 0.63583 0.0
C980 C 0.62683 0.18033 0.65237 0.0
C981 C 0.60485 0.18216 0.68549 0.0
C982 C 0.58444 0.16788 0.70179 0.0
C983 C 0.60715 0.16609 0.66895 0.0
C984 C 0.56635 0.13726 0.70136 0.0
C985 C 0.56883 0.1211 0.6851 0.0
H986 H 0.49579 0.5571 0.81096 0.0
H987 H 0.54193 0.64627 0.78998 0.0
H988 H 0.51268 0.65738 0.81413 0.0
H989 H 0.47523 0.642 0.84211 0.0
H990 H 0.42915 0.55255 0.86286 0.0
H991 H 0.45702 0.54128 0.83783 0.0
C992 C 0.49917 0.57887 0.81153 0.0
C993 C 0.52078 0.60078 0.79862 0.0
C994 C 0.4824 0.58508 0.82547 0.0
C995 C 0.52521 0.629 0.79966 0.0
C996 C 0.50859 0.63536 0.8135 0.0
C997 C 0.47121 0.62002 0.84111 0.0
C998 C 0.45021 0.59821 0.85443 0.0
C999 C 0.48731 0.61362 0.82663 0.0
C1000 C 0.44518 0.56979 0.85283 0.0
C1001 C 0.46113 0.5633 0.83852 0.0
H1002 H 0.90146 0.38987 0.96618 0.0
H1003 H 0.86509 0.44238 0.9171 0.0
H1004 H 0.8282 0.44229 0.95107 0.0
H1005 H 0.8128 0.42785 0.99298 0.0
H1006 H 0.84274 0.38161 0.03281 0.0
H1007 H 0.87438 0.37863 0.00664 0.0
C1008 C 0.88672 0.3982 0.96292 0.0
C1009 C 0.89134 0.42061 0.93938 0.0
C1010 C 0.86429 0.40071 0.9831 0.0
C1011 C 0.8638 0.43179 0.93182 0.0
C1012 C 0.8422 0.43293 0.95334 0.0
C1013 C 0.8265 0.41812 0.99518 0.0
C1014 C 0.8261 0.40457 0.01431 0.0
C1015 C 0.84357 0.4184 0.97853 0.0
C1016 C 0.84368 0.39142 0.01777 0.0
C1017 C 0.86208 0.38938 0.0028 0.0
H1018 H 0.44153 0.88031 0.11785 0.0
H1019 H 0.53691 0.93263 0.13104 0.0
H1020 H 0.5295 0.90978 0.16544 0.0
H1021 H 0.49605 0.87356 0.19114 0.0
H1022 H 0.40066 0.82079 0.17747 0.0
H1023 H 0.40793 0.84534 0.14397 0.0
C1024 C 0.46062 0.88696 0.1284 0.0
C1025 C 0.48964 0.90844 0.12208 0.0
C1026 C 0.45621 0.87356 0.14801 0.0
C1027 C 0.51429 0.91647 0.13571 0.0
C1028 C 0.51007 0.90332 0.15532 0.0
C1029 C 0.47682 0.86753 0.18089 0.0
C1030 C 0.44788 0.84526 0.18681 0.0
C1031 C 0.48115 0.88165 0.16155 0.0
C1032 C 0.42321 0.83778 0.17333 0.0
C1033 C 0.42733 0.8518 0.15413 0.0
H1034 H 0.57409 0.43708 0.26902 0.0
H1035 H 0.62292 0.52594 0.29186 0.0
H1036 H 0.62607 0.50906 0.32689 0.0
H1037 H 0.61705 0.46935 0.35049 0.0
H1038 H 0.5691 0.38038 0.32759 0.0
H1039 H 0.56322 0.39699 0.29314 0.0
C1040 C 0.58505 0.45267 0.28176 0.0
C1041 C 0.59786 0.48266 0.27795 0.0
C1042 C 0.58704 0.44282 0.30179 0.0
C1043 C 0.6125 0.50272 0.2945 0.0
C1044 C 0.61442 0.49309 0.31448 0.0
C1045 C 0.60512 0.45352 0.33803 0.0
C1046 C 0.59368 0.42367 0.34161 0.0
C1047 C 0.60205 0.46323 0.31824 0.0
C1048 C 0.57819 0.40349 0.32527 0.0
C1049 C 0.57487 0.41298 0.30555 0.0
H1050 H 0.46609 0.87944 0.35858 0.0
H1051 H 0.40287 0.90797 0.34825 0.0
H1052 H 0.39132 0.88612 0.31308 0.0
H1053 H 0.3978 0.85731 0.28592 0.0
H1054 H 0.46062 0.82819 0.29654 0.0
H1055 H 0.47395 0.85215 0.33089 0.0
C1056 C 0.45004 0.88113 0.34852 0.0
C1057 C 0.43561 0.89558 0.35588 0.0
C1058 C 0.4434 0.86838 0.32843 0.0
C1059 C 0.41451 0.89725 0.34281 0.0
C1060 C 0.40785 0.8847 0.32276 0.0
C1061 C 0.41457 0.85635 0.29566 0.0
C1062 C 0.42808 0.84085 0.28867 0.0
C1063 C 0.42198 0.87 0.31548 0.0
C1064 C 0.44979 0.8399 0.30153 0.0
C1065 C 0.45741 0.85356 0.3212 0.0
H1066 H 0.5469 0.43355 0.50568 0.0
H1067 H 0.63865 0.49939 0.52124 0.0
H1068 H 0.65594 0.48867 0.48882 0.0
H1069 H 0.64522 0.45942 0.45671 0.0
H1070 H 0.55351 0.39269 0.44147 0.0
H1071 H 0.536 0.40503 0.473 0.0
C1072 C 0.57062 0.44573 0.5018 0.0
C1073 C 0.59142 0.46746 0.51568 0.0
C1074 C 0.58043 0.43922 0.48325 0.0
C1075 C 0.62217 0.48279 0.51068 0.0
C1076 C 0.63207 0.47661 0.49219 0.0
C1077 C 0.62138 0.44767 0.4602 0.0
C1078 C 0.60076 0.42513 0.44674 0.0
C1079 C 0.61144 0.45471 0.47845 0.0
C1080 C 0.56993 0.41012 0.45156 0.0
C1081 C 0.55985 0.41713 0.46961 0.0
H1082 H 0.15419 0.56076 0.69364 0.0
H1083 H 0.10264 0.47334 0.66838 0.0
H1084 H 0.11912 0.4919 0.63296 0.0
H1085 H 0.151 0.53262 0.60962 0.0
H1086 H 0.20366 0.61992 0.63526 0.0
H1087 H 0.18362 0.60181 0.67001 0.0
C1088 C 0.14621 0.54587 0.68031 0.0
C1089 C 0.12698 0.5158 0.68356 0.0
C1090 C 0.15608 0.55665 0.66009 0.0
C1091 C 0.11715 0.49663 0.66621 0.0
C1092 C 0.12667 0.50722 0.646 0.0
C1093 C 0.15782 0.54775 0.62274 0.0
C1094 C 0.17898 0.57756 0.61982 0.0
C1095 C 0.14652 0.53714 0.64279 0.0
C1096 C 0.18754 0.59684 0.63704 0.0
C1097 C 0.17614 0.58651 0.65696 0.0
H1098 H 0.47775 0.10503 0.83856 0.0
H1099 H 0.51982 0.05428 0.82926 0.0
H1100 H 0.55905 0.09339 0.80834 0.0
H1101 H 0.5797 0.14074 0.79107 0.0
H1102 H 0.53611 0.19049 0.79873 0.0
H1103 H 0.49916 0.15307 0.82187 0.0
C1104 C 0.49562 0.10268 0.83201 0.0
C1105 C 0.49588 0.07682 0.83537 0.0
C1106 C 0.51771 0.12498 0.81963 0.0
C1107 C 0.51916 0.07399 0.82686 0.0
C1108 C 0.54154 0.0963 0.81488 0.0
C1109 C 0.56229 0.14354 0.79795 0.0
C1110 C 0.56064 0.16834 0.79315 0.0
C1111 C 0.5408 0.12171 0.81092 0.0
C1112 C 0.53781 0.17154 0.8021 0.0
C1113 C 0.51667 0.15016 0.81534 0.0
H1114 H 0.41058 0.52119 0.99744 0.0
H1115 H 0.49874 0.53771 0.98177 0.0
H1116 H 0.50622 0.57697 0.95834 0.0
H1117 H 0.48618 0.60405 0.94038 0.0
H1118 H 0.39719 0.5864 0.95515 0.0
H1119 H 0.39169 0.55041 0.98098 0.0
C1120 C 0.43157 0.53372 0.98911 0.0
C1121 C 0.45414 0.52672 0.99139 0.0
C1122 C 0.4355 0.55593 0.97541 0.0
C1123 C 0.48113 0.54285 0.98035 0.0
C1124 C 0.48537 0.56521 0.96691 0.0
C1125 C 0.46571 0.59259 0.94941 0.0
C1126 C 0.44208 0.5978 0.9457 0.0
C1127 C 0.46249 0.57159 0.96403 0.0
C1128 C 0.41571 0.58273 0.95759 0.0
C1129 C 0.4125 0.56209 0.97235 0.0
H1130 H 0.89536 0.39065 0.17436 0.0
H1131 H 0.96093 0.47811 0.15551 0.0
H1132 H 0.92404 0.47865 0.13158 0.0
H1133 H 0.87462 0.45296 0.11408 0.0
H1134 H 0.8094 0.36465 0.13175 0.0
H1135 H 0.84456 0.36583 0.1582 0.0
C1136 C 0.90135 0.40991 0.16518 0.0
C1137 C 0.93077 0.43431 0.16668 0.0
C1138 C 0.88019 0.40985 0.15117 0.0
C1139 C 0.9384 0.45911 0.15464 0.0
C1140 C 0.91736 0.45939 0.14093 0.0
C1141 C 0.86792 0.43405 0.12385 0.0
C1142 C 0.83949 0.40868 0.1208 0.0
C1143 C 0.88839 0.43469 0.13877 0.0
C1144 C 0.8312 0.38442 0.13368 0.0
C1145 C 0.85131 0.38505 0.14879 0.0
loop_
_geom_bond_atom_site_label_1
_geom_bond_atom_site_label_2
_geom_bond_distance
_geom_bond_site_symmetry_2
_ccdc_geom_bond_type
C0 C1 1.560 . S
C0 H61 0.959 . S
C0 H62 0.959 . S
C0 H63 0.960 . S
C1 C0 1.560 . S
C1 O56 1.426 . S
C1 H60 0.980 . S
C2 C3 1.407 . S
C2 C7 1.418 . S
C2 O56 1.334 . S
C3 C2 1.407 . S
C3 C4 1.360 . S
C3 H64 0.929 . S
C4 C3 1.360 . S
C4 C5 1.401 . S
C4 C8 1.527 . S
C5 C4 1.401 . S
C5 C6 1.405 . S
C5 C38 1.587 . S
C6 C5 1.405 . S
C6 C7 1.332 . S
C6 C9 1.496 . S
C7 C2 1.418 . S
C7 C6 1.332 . S
C7 H65 0.929 . S
C8 C4 1.527 . S
C8 H66 0.959 . S
C8 H67 0.961 . S
C8 H68 0.961 . S
C9 C6 1.496 . S
C9 H69 0.960 . S
C9 H70 0.960 . S
C9 H71 0.961 . S
C10 C11 1.517 . S
C10 H73 0.961 . S
C10 H74 0.960 . S
C10 H75 0.959 . S
C11 C10 1.517 . S
C11 O59 1.468 . S
C11 H72 0.980 . S
C12 C13 1.349 . S
C12 C17 1.367 . S
C12 O59 1.408 . S
C13 C12 1.349 . S
C13 C14 1.407 . S
C13 H76 0.930 . S
C14 C13 1.407 . S
C14 C15 1.449 . S
C14 C18 1.535 . S
C15 C14 1.449 . S
C15 C16 1.384 . S
C15 C40 1.553 1_655 S
C16 C15 1.384 . S
C16 C17 1.364 . S
C16 C19 1.450 . S
C17 C12 1.367 . S
C17 C16 1.364 . S
C17 H77 0.931 . S
C18 C14 1.535 . S
C18 H78 0.959 1_655 S
C18 H79 0.961 1_655 S
C18 H80 0.959 . S
C19 C16 1.450 . S
C19 H81 0.960 . S
C19 H82 0.960 1_655 S
C19 H83 0.960 . S
C20 C21 1.309 . S
C20 C25 1.304 . S
C20 O58 1.435 . S
C21 C20 1.309 . S
C21 C22 1.476 . S
C21 H85 0.930 . S
C22 C21 1.476 . S
C22 C23 1.400 . S
C22 C26 1.567 . S
C23 C22 1.400 . S
C23 C24 1.373 . S
C23 C45 1.432 . S
C24 C23 1.373 . S
C24 C25 1.339 . S
C24 C27 1.530 . S
C25 C20 1.304 . S
C25 C24 1.339 . S
C25 H86 0.930 . S
C26 C22 1.567 . S
C26 H87 0.961 . S
C26 H88 0.960 . S
C26 H89 0.958 . S
C27 C24 1.530 . S
C27 H90 0.961 . S
C27 H91 0.960 . S
C27 H92 0.960 . S
C28 C29 1.530 . S
C28 H94 0.961 . S
C28 H95 0.961 . S
C28 H96 0.959 . S
C29 C28 1.530 . S
C29 O57 1.412 . S
C29 H93 0.980 . S
C30 C31 1.288 . S
C30 C35 1.377 . S
C30 O57 1.393 . S
C31 C30 1.288 . S
C31 C32 1.369 . S
C31 H97 0.932 . S
C32 C31 1.369 . S
C32 C33 1.398 . S
C32 C36 1.527 . S
C33 C32 1.398 . S
C33 C34 1.380 . S
C33 C47 1.497 . S
C34 C33 1.380 . S
C34 C35 1.383 . S
C34 C37 1.603 . S
C35 C30 1.377 . S
C35 C34 1.383 . S
C35 H98 0.929 . S
C36 C32 1.527 . S
C36 H99 0.961 . S
C36 H100 0.944 1_455 S
C36 H101 0.959 . S
C37 C34 1.603 . S
C37 H102 0.960 . S
C37 H103 0.962 . S
C37 H104 0.961 . S
C38 C5 1.587 . S
C38 C39 1.360 . S
C38 C51 1.412 . S
C39 C38 1.360 . S
C39 C40 1.365 . S
C39 H105 0.929 . S
C40 C15 1.553 1_455 S
C40 C39 1.365 . S
C40 C41 1.404 . S
C41 C40 1.404 . S
C41 C42 1.395 1_455 S
C41 C52 1.451 . S
C42 C41 1.395 1_655 S
C42 C43 1.322 . S
C42 H106 0.930 . S
C43 C42 1.322 . S
C43 C44 1.459 . S
C43 H107 0.929 . S
C44 C43 1.459 . S
C44 C45 1.445 . S
C44 C53 1.395 1_655 S
C45 C23 1.432 . S
C45 C44 1.445 . S
C45 C46 1.370 . S
C46 C45 1.370 . S
C46 C47 1.438 1_655 S
C46 H108 0.930 . S
C47 C33 1.497 . S
C47 C46 1.438 1_455 S
C47 C48 1.360 . S
C48 C47 1.360 . S
C48 C49 1.401 . S
C48 C53 1.446 . S
C49 C48 1.401 . S
C49 C50 1.347 . S
C49 H109 0.929 . S
C50 C49 1.347 . S
C50 C51 1.455 . S
C50 H110 0.930 . S
C51 C38 1.412 . S
C51 C50 1.455 . S
C51 C52 1.331 . S
C52 C41 1.451 . S
C52 C51 1.331 . S
C52 C53 1.497 . S
C53 C44 1.395 1_455 S
C53 C48 1.446 . S
C53 C52 1.497 . S
C54 C55 1.582 . S
C54 H111 0.962 . S
C54 H112 0.959 . S
C54 H113 0.958 . S
C55 C54 1.582 . S
C55 O58 1.458 . S
C55 H84 0.980 . S
O56 C1 1.426 . S
O56 C2 1.334 . S
O57 C29 1.412 . S
O57 C30 1.393 . S
O58 C20 1.435 . S
O58 C55 1.458 . S
O59 C11 1.468 . S
O59 C12 1.408 . S
H60 C1 0.980 . S
H61 C0 0.959 . S
H62 C0 0.959 . S
H63 C0 0.960 . S
H64 C3 0.929 . S
H65 C7 0.929 . S
H66 C8 0.959 . S
H67 C8 0.961 . S
H68 C8 0.961 . S
H69 C9 0.960 . S
H70 C9 0.960 . S
H71 C9 0.961 . S
H72 C11 0.980 . S
H73 C10 0.961 . S
H74 C10 0.960 . S
H75 C10 0.959 . S
H76 C13 0.930 . S
H77 C17 0.931 . S
H78 C18 0.959 1_455 S
H79 C18 0.961 1_455 S
H80 C18 0.959 . S
H81 C19 0.960 . S
H82 C19 0.960 1_455 S
H83 C19 0.960 . S
H84 C55 0.980 . S
H85 C21 0.930 . S
H86 C25 0.930 . S
H87 C26 0.961 . S
H88 C26 0.960 . S
H89 C26 0.958 . S
H90 C27 0.961 . S
H91 C27 0.960 . S
H92 C27 0.960 . S
H93 C29 0.980 . S
H94 C28 0.961 . S
H95 C28 0.961 . S
H96 C28 0.959 . S
H97 C31 0.932 . S
H98 C35 0.929 . S
H99 C36 0.961 . S
H100 C36 0.944 1_655 S
H101 C36 0.959 . S
H102 C37 0.960 . S
H103 C37 0.962 . S
H104 C37 0.961 . S
H105 C39 0.929 . S
H106 C42 0.930 . S
H107 C43 0.929 . S
H108 C46 0.930 . S
H109 C49 0.929 . S
H110 C50 0.930 . S
H111 C54 0.962 . S
H112 C54 0.959 . S
H113 C54 0.958 . S
C114 C115 1.560 . S
C114 H175 0.959 . S
C114 H176 0.959 . S
C114 H177 0.960 . S
C115 C114 1.560 . S
C115 O170 1.426 . S
C115 H174 0.980 . S
C116 C117 1.407 . S
C116 C121 1.418 . S
C116 O170 1.334 . S
C117 C116 1.407 . S
C117 C118 1.360 . S
C117 H178 0.929 . S
C118 C117 1.360 . S
C118 C119 1.401 . S
C118 C122 1.527 . S
C119 C118 1.401 . S
C119 C120 1.405 . S
C119 C152 1.587 . S
C120 C119 1.405 . S
C120 C121 1.332 . S
C120 C123 1.496 . S
C121 C116 1.418 . S
C121 C120 1.332 . S
C121 H179 0.929 . S
C122 C118 1.527 . S
C122 H180 0.959 . S
C122 H181 0.961 . S
C122 H182 0.961 . S
C123 C120 1.496 . S
C123 H183 0.960 . S
C123 H184 0.960 . S
C123 H185 0.961 . S
C124 C125 1.517 . S
C124 H187 0.961 . S
C124 H188 0.960 . S
C124 H189 0.959 . S
C125 C124 1.517 . S
C125 O173 1.468 . S
C125 H186 0.980 . S
C126 C127 1.349 . S
C126 C131 1.367 . S
C126 O173 1.408 . S
C127 C126 1.349 . S
C127 C128 1.407 . S
C127 H190 0.930 . S
C128 C127 1.407 . S
C128 C129 1.449 . S
C128 C132 1.535 . S
C129 C128 1.449 . S
C129 C130 1.384 . S
C129 C154 1.553 . S
C130 C129 1.384 . S
C130 C131 1.364 . S
C130 C133 1.450 . S
C131 C126 1.367 . S
C131 C130 1.364 . S
C131 H191 0.931 . S
C132 C128 1.535 . S
C132 H192 0.959 . S
C132 H193 0.961 . S
C132 H194 0.959 . S
C133 C130 1.450 . S
C133 H195 0.960 . S
C133 H196 0.960 . S
C133 H197 0.960 . S
C134 C135 1.309 . S
C134 C139 1.304 . S
C134 O172 1.435 . S
C135 C134 1.309 . S
C135 C136 1.476 . S
C135 H199 0.930 . S
C136 C135 1.476 . S
C136 C137 1.400 . S
C136 C140 1.567 . S
C137 C136 1.400 . S
C137 C138 1.373 . S
C137 C159 1.432 . S
C138 C137 1.373 . S
C138 C139 1.339 . S
C138 C141 1.530 . S
C139 C134 1.304 . S
C139 C138 1.339 . S
C139 H200 0.930 . S
C140 C136 1.567 . S
C140 H201 0.961 . S
C140 H202 0.960 . S
C140 H203 0.958 . S
C141 C138 1.530 . S
C141 H204 0.961 . S
C141 H205 0.960 . S
C141 H206 0.960 . S
C142 C143 1.530 . S
C142 H208 0.961 . S
C142 H209 0.961 . S
C142 H210 0.959 . S
C143 C142 1.530 . S
C143 O171 1.412 . S
C143 H207 0.980 . S
C144 C145 1.288 . S
C144 C149 1.377 . S
C144 O171 1.393 . S
C145 C144 1.288 . S
C145 C146 1.369 . S
C145 H211 0.932 . S
C146 C145 1.369 . S
C146 C147 1.398 . S
C146 C150 1.527 1_565 S
C147 C146 1.398 . S
C147 C148 1.380 . S
C147 C161 1.497 1_565 S
C148 C147 1.380 . S
C148 C149 1.383 . S
C148 C151 1.603 . S
C149 C144 1.377 . S
C149 C148 1.383 . S
C149 H212 0.929 . S
C150 C146 1.527 1_545 S
C150 H213 0.961 . S
C150 H214 0.959 . S
C150 H215 0.959 1_545 S
C151 C148 1.603 . S
C151 H216 0.960 . S
C151 H217 0.962 1_565 S
C151 H218 0.961 . S
C152 C119 1.587 . S
C152 C153 1.360 . S
C152 C165 1.412 . S
C153 C152 1.360 . S
C153 C154 1.365 1_565 S
C153 H219 0.929 . S
C154 C129 1.553 . S
C154 C153 1.365 1_545 S
C154 C155 1.404 . S
C155 C154 1.404 . S
C155 C156 1.395 . S
C155 C166 1.451 . S
C156 C155 1.395 . S
C156 C157 1.322 . S
C156 H220 0.930 . S
C157 C156 1.322 . S
C157 C158 1.459 . S
C157 H221 0.929 . S
C158 C157 1.459 . S
C158 C159 1.445 . S
C158 C167 1.395 . S
C159 C137 1.432 . S
C159 C158 1.445 . S
C159 C160 1.370 . S
C160 C159 1.370 . S
C160 C161 1.438 . S
C160 H222 0.930 . S
C161 C147 1.497 1_545 S
C161 C160 1.438 . S
C161 C162 1.360 . S
C162 C161 1.360 . S
C162 C163 1.401 1_545 S
C162 C167 1.446 . S
C163 C162 1.401 1_565 S
C163 C164 1.347 . S
C163 H223 0.929 . S
C164 C163 1.347 . S
C164 C165 1.455 . S
C164 H224 0.930 . S
C165 C152 1.412 . S
C165 C164 1.455 . S
C165 C166 1.331 1_565 S
C166 C155 1.451 . S
C166 C165 1.331 1_545 S
C166 C167 1.497 . S
C167 C158 1.395 . S
C167 C162 1.446 . S
C167 C166 1.497 . S
C168 C169 1.582 . S
C168 H225 0.962 . S
C168 H226 0.959 . S
C168 H227 0.958 . S
C169 C168 1.582 . S
C169 O172 1.458 . S
C169 H198 0.980 . S
O170 C115 1.426 . S
O170 C116 1.334 . S
O171 C143 1.412 . S
O171 C144 1.393 . S
O172 C134 1.435 . S
O172 C169 1.458 . S
O173 C125 1.468 . S
O173 C126 1.408 . S
H174 C115 0.980 . S
H175 C114 0.959 . S
H176 C114 0.959 . S
H177 C114 0.960 . S
H178 C117 0.929 . S
H179 C121 0.929 . S
H180 C122 0.959 . S
H181 C122 0.961 . S
H182 C122 0.961 . S
H183 C123 0.960 . S
H184 C123 0.960 . S
H185 C123 0.961 . S
H186 C125 0.980 . S
H187 C124 0.961 . S
H188 C124 0.960 . S
H189 C124 0.959 . S
H190 C127 0.930 . S
H191 C131 0.931 . S
H192 C132 0.959 . S
H193 C132 0.961 . S
H194 C132 0.959 . S
H195 C133 0.960 . S
H196 C133 0.960 . S
H197 C133 0.960 . S
H198 C169 0.980 . S
H199 C135 0.930 . S
H200 C139 0.930 . S
H201 C140 0.961 . S
H202 C140 0.960 . S
H203 C140 0.958 . S
H204 C141 0.961 . S
H205 C141 0.960 . S
H206 C141 0.960 . S
H207 C143 0.980 . S
H208 C142 0.961 . S
H209 C142 0.961 . S
H210 C142 0.959 . S
H211 C145 0.932 . S
H212 C149 0.929 . S
H213 C150 0.961 . S
H214 C150 0.959 . S
H215 C150 0.959 1_565 S
H216 C151 0.960 . S
H217 C151 0.962 1_545 S
H218 C151 0.961 . S
H219 C153 0.929 . S
H220 C156 0.930 . S
H221 C157 0.929 . S
H222 C160 0.930 . S
H223 C163 0.929 . S
H224 C164 0.930 . S
H225 C168 0.962 . S
H226 C168 0.959 . S
H227 C168 0.958 . S
C228 C229 1.560 . S
C228 H289 0.959 . S
C228 H290 0.959 . S
C228 H291 0.960 . S
C229 C228 1.560 . S
C229 O284 1.426 . S
C229 H288 0.980 . S
C230 C231 1.407 . S
C230 C235 1.418 . S
C230 O284 1.334 . S
C231 C230 1.407 . S
C231 C232 1.360 . S
C231 H292 0.929 . S
C232 C231 1.360 . S
C232 C233 1.401 . S
C232 C236 1.527 . S
C233 C232 1.401 . S
C233 C234 1.405 . S
C233 C266 1.587 . S
C234 C233 1.405 . S
C234 C235 1.332 . S
C234 C237 1.496 . S
C235 C230 1.418 . S
C235 C234 1.332 . S
C235 H293 0.929 . S
C236 C232 1.527 . S
C236 H294 0.959 . S
C236 H295 0.961 . S
C236 H296 0.961 . S
C237 C234 1.496 . S
C237 H297 0.960 . S
C237 H298 0.960 . S
C237 H299 0.961 . S
C238 C239 1.517 . S
C238 H301 0.961 . S
C238 H302 0.960 . S
C238 H303 0.959 . S
C239 C238 1.517 . S
C239 O287 1.468 . S
C239 H300 0.980 . S
C240 C241 1.349 . S
C240 C245 1.367 . S
C240 O287 1.408 . S
C241 C240 1.349 . S
C241 C242 1.407 . S
C241 H304 0.930 . S
C242 C241 1.407 . S
C242 C243 1.449 . S
C242 C246 1.535 . S
C243 C242 1.449 . S
C243 C244 1.384 . S
C243 C268 1.553 . S
C244 C243 1.384 . S
C244 C245 1.364 . S
C244 C247 1.450 . S
C245 C240 1.367 . S
C245 C244 1.364 . S
C245 H305 0.931 . S
C246 C242 1.535 . S
C246 H306 0.959 . S
C246 H307 0.961 . S
C246 H308 0.959 . S
C247 C244 1.450 . S
C247 H309 0.960 . S
C247 H310 0.960 . S
C247 H311 0.960 . S
C248 C249 1.309 . S
C248 C253 1.304 . S
C248 O286 1.435 . S
C249 C248 1.309 . S
C249 C250 1.476 . S
C249 H313 0.930 . S
C250 C249 1.476 . S
C250 C251 1.400 . S
C250 C254 1.567 . S
C251 C250 1.400 . S
C251 C252 1.373 . S
C251 C273 1.432 . S
C252 C251 1.373 . S
C252 C253 1.339 . S
C252 C255 1.530 . S
C253 C248 1.304 . S
C253 C252 1.339 . S
C253 H314 0.930 . S
C254 C250 1.567 . S
C254 H315 0.961 . S
C254 H316 0.960 . S
C254 H317 0.958 . S
C255 C252 1.530 . S
C255 H318 0.961 . S
C255 H319 0.960 . S
C255 H320 0.960 . S
C256 C257 1.530 . S
C256 H322 0.961 . S
C256 H323 0.961 . S
C256 H324 0.959 . S
C257 C256 1.530 . S
C257 O285 1.412 . S
C257 H321 0.980 . S
C258 C259 1.288 . S
C258 C263 1.377 . S
C258 O285 1.393 . S
C259 C258 1.288 . S
C259 C260 1.369 . S
C259 H325 0.932 . S
C260 C259 1.369 . S
C260 C261 1.398 . S
C260 C264 1.527 . S
C261 C260 1.398 . S
C261 C262 1.380 . S
C261 C275 1.497 . S
C262 C261 1.380 . S
C262 C263 1.383 . S
C262 C265 1.603 . S
C263 C258 1.377 . S
C263 C262 1.383 . S
C263 H326 0.929 . S
C264 C260 1.527 . S
C264 H327 0.961 . S
C264 H328 0.959 . S
C264 H329 0.959 . S
C265 C262 1.603 . S
C265 H330 0.960 . S
C265 H331 0.962 . S
C265 H332 0.961 . S
C266 C233 1.587 . S
C266 C267 1.360 . S
C266 C279 1.412 . S
C267 C266 1.360 . S
C267 C268 1.365 . S
C267 H333 0.929 . S
C268 C243 1.553 . S
C268 C267 1.365 . S
C268 C269 1.404 . S
C269 C268 1.404 . S
C269 C270 1.395 . S
C269 C280 1.451 . S
C270 C269 1.395 . S
C270 C271 1.322 . S
C270 H334 0.930 . S
C271 C270 1.322 . S
C271 C272 1.459 . S
C271 H335 0.929 . S
C272 C271 1.459 . S
C272 C273 1.445 . S
C272 C281 1.395 . S
C273 C251 1.432 . S
C273 C272 1.445 . S
C273 C274 1.370 . S
C274 C273 1.370 . S
C274 C275 1.438 . S
C274 H336 0.930 . S
C275 C261 1.497 . S
C275 C274 1.438 . S
C275 C276 1.360 . S
C276 C275 1.360 . S
C276 C277 1.401 . S
C276 C281 1.446 . S
C277 C276 1.401 . S
C277 C278 1.347 . S
C277 H337 0.929 . S
C278 C277 1.347 . S
C278 C279 1.455 . S
C278 H338 0.930 . S
C279 C266 1.412 . S
C279 C278 1.455 . S
C279 C280 1.331 . S
C280 C269 1.451 . S
C280 C279 1.331 . S
C280 C281 1.497 . S
C281 C272 1.395 . S
C281 C276 1.446 . S
C281 C280 1.497 . S
C282 C283 1.582 . S
C282 H339 0.962 . S
C282 H340 0.959 . S
C282 H341 0.958 . S
C283 C282 1.582 . S
C283 O286 1.458 . S
C283 H312 0.980 . S
O284 C229 1.426 . S
O284 C230 1.334 . S
O285 C257 1.412 . S
O285 C258 1.393 . S
O286 C248 1.435 . S
O286 C283 1.458 . S
O287 C239 1.468 . S
O287 C240 1.408 . S
H288 C229 0.980 . S
H289 C228 0.959 . S
H290 C228 0.959 . S
H291 C228 0.960 . S
H292 C231 0.929 . S
H293 C235 0.929 . S
H294 C236 0.959 . S
H295 C236 0.961 . S
H296 C236 0.961 . S
H297 C237 0.960 . S
H298 C237 0.960 . S
H299 C237 0.961 . S
H300 C239 0.980 . S
H301 C238 0.961 . S
H302 C238 0.960 . S
H303 C238 0.959 . S
H304 C241 0.930 . S
H305 C245 0.931 . S
H306 C246 0.959 . S
H307 C246 0.961 . S
H308 C246 0.959 . S
H309 C247 0.960 . S
H310 C247 0.960 . S
H311 C247 0.960 . S
H312 C283 0.980 . S
H313 C249 0.930 . S
H314 C253 0.930 . S
H315 C254 0.961 . S
H316 C254 0.960 . S
H317 C254 0.958 . S
H318 C255 0.961 . S
H319 C255 0.960 . S
H320 C255 0.960 . S
H321 C257 0.980 . S
H322 C256 0.961 . S
H323 C256 0.961 . S
H324 C256 0.959 . S
H325 C259 0.932 . S
H326 C263 0.929 . S
H327 C264 0.961 . S
H328 C264 0.959 . S
H329 C264 0.959 . S
H330 C265 0.960 . S
H331 C265 0.962 . S
H332 C265 0.961 . S
H333 C267 0.929 . S
H334 C270 0.930 . S
H335 C271 0.929 . S
H336 C274 0.930 . S
H337 C277 0.929 . S
H338 C278 0.930 . S
H339 C282 0.962 . S
H340 C282 0.959 . S
H341 C282 0.958 . S
C342 C343 1.560 . S
C342 H403 0.959 . S
C342 H404 0.959 . S
C342 H405 0.960 . S
C343 C342 1.560 . S
C343 O398 1.426 . S
C343 H402 0.980 . S
C344 C345 1.407 . S
C344 C349 1.418 . S
C344 O398 1.334 . S
C345 C344 1.407 . S
C345 C346 1.360 . S
C345 H406 0.929 . S
C346 C345 1.360 . S
C346 C347 1.401 . S
C346 C350 1.527 . S
C347 C346 1.401 . S
C347 C348 1.405 . S
C347 C380 1.587 . S
C348 C347 1.405 . S
C348 C349 1.332 . S
C348 C351 1.496 . S
C349 C344 1.418 . S
C349 C348 1.332 . S
C349 H407 0.929 . S
C350 C346 1.527 . S
C350 H408 0.959 . S
C350 H409 0.961 . S
C350 H410 0.961 . S
C351 C348 1.496 . S
C351 H411 0.960 . S
C351 H412 0.960 . S
C351 H413 0.961 . S
C352 C353 1.517 . S
C352 H415 0.961 . S
C352 H416 0.960 . S
C352 H417 0.959 . S
C353 C352 1.517 . S
C353 O401 1.468 . S
C353 H414 0.980 . S
C354 C355 1.349 . S
C354 C359 1.367 . S
C354 O401 1.408 . S
C355 C354 1.349 . S
C355 C356 1.407 . S
C355 H418 0.930 . S
C356 C355 1.407 . S
C356 C357 1.449 . S
C356 C360 1.535 . S
C357 C356 1.449 . S
C357 C358 1.384 . S
C357 C382 1.553 1_655 S
C358 C357 1.384 . S
C358 C359 1.364 . S
C358 C361 1.450 . S
C359 C354 1.367 . S
C359 C358 1.364 . S
C359 H419 0.931 . S
C360 C356 1.535 . S
C360 H420 0.959 1_655 S
C360 H421 0.961 1_655 S
C360 H422 0.959 . S
C361 C358 1.450 . S
C361 H423 0.960 . S
C361 H424 0.960 1_655 S
C361 H425 0.960 . S
C362 C363 1.309 . S
C362 C367 1.304 . S
C362 O400 1.435 . S
C363 C362 1.309 . S
C363 C364 1.476 . S
C363 H427 0.930 . S
C364 C363 1.476 . S
C364 C365 1.400 . S
C364 C368 1.567 . S
C365 C364 1.400 . S
C365 C366 1.373 . S
C365 C387 1.432 . S
C366 C365 1.373 . S
C366 C367 1.339 . S
C366 C369 1.530 . S
C367 C362 1.304 . S
C367 C366 1.339 . S
C367 H428 0.930 . S
C368 C364 1.567 . S
C368 H429 0.961 . S
C368 H430 0.960 . S
C368 H431 0.958 . S
C369 C366 1.530 . S
C369 H432 0.961 . S
C369 H433 0.960 . S
C369 H434 0.960 . S
C370 C371 1.530 . S
C370 H436 0.961 . S
C370 H437 0.961 . S
C370 H438 0.959 . S
C371 C370 1.530 . S
C371 O399 1.412 . S
C371 H435 0.980 . S
C372 C373 1.288 . S
C372 C377 1.377 . S
C372 O399 1.393 . S
C373 C372 1.288 . S
C373 C374 1.369 . S
C373 H439 0.932 . S
C374 C373 1.369 . S
C374 C375 1.398 . S
C374 C378 1.527 . S
C375 C374 1.398 . S
C375 C376 1.380 . S
C375 C389 1.497 . S
C376 C375 1.380 . S
C376 C377 1.383 . S
C376 C379 1.603 . S
C377 C372 1.377 . S
C377 C376 1.383 . S
C377 H440 0.929 . S
C378 C374 1.527 . S
C378 H441 0.961 . S
C378 H442 0.959 1_455 S
C378 H443 0.959 . S
C379 C376 1.603 . S
C379 H444 0.960 . S
C379 H445 0.962 . S
C379 H446 0.961 . S
C380 C347 1.587 . S
C380 C381 1.360 . S
C380 C393 1.412 . S
C381 C380 1.360 . S
C381 C382 1.365 . S
C381 H447 0.929 . S
C382 C357 1.553 1_455 S
C382 C381 1.365 . S
C382 C383 1.404 . S
C383 C382 1.404 . S
C383 C384 1.395 1_455 S
C383 C394 1.451 . S
C384 C383 1.395 1_655 S
C384 C385 1.322 . S
C384 H448 0.930 . S
C385 C384 1.322 . S
C385 C386 1.459 . S
C385 H449 0.929 . S
C386 C385 1.459 . S
C386 C387 1.445 . S
C386 C395 1.395 1_655 S
C387 C365 1.432 . S
C387 C386 1.445 . S
C387 C388 1.370 . S
C388 C387 1.370 . S
C388 C389 1.438 1_655 S
C388 H450 0.930 . S
C389 C375 1.497 . S
C389 C388 1.438 1_455 S
C389 C390 1.360 . S
C390 C389 1.360 . S
C390 C391 1.401 . S
C390 C395 1.446 . S
C391 C390 1.401 . S
C391 C392 1.347 . S
C391 H451 0.929 . S
C392 C391 1.347 . S
C392 C393 1.455 . S
C392 H452 0.930 . S
C393 C380 1.412 . S
C393 C392 1.455 . S
C393 C394 1.331 . S
C394 C383 1.451 . S
C394 C393 1.331 . S
C394 C395 1.497 . S
C395 C386 1.395 1_455 S
C395 C390 1.446 . S
C395 C394 1.497 . S
C396 C397 1.582 . S
C396 H453 0.962 . S
C396 H454 0.959 . S
C396 H455 0.958 . S
C397 C396 1.582 . S
C397 O400 1.458 . S
C397 H426 0.980 . S
O398 C343 1.426 . S
O398 C344 1.334 . S
O399 C371 1.412 . S
O399 C372 1.393 . S
O400 C362 1.435 . S
O400 C397 1.458 . S
O401 C353 1.468 . S
O401 C354 1.408 . S
H402 C343 0.980 . S
H403 C342 0.959 . S
H404 C342 0.959 . S
H405 C342 0.960 . S
H406 C345 0.929 . S
H407 C349 0.929 . S
H408 C350 0.959 . S
H409 C350 0.961 . S
H410 C350 0.961 . S
H411 C351 0.960 . S
H412 C351 0.960 . S
H413 C351 0.961 . S
H414 C353 0.980 . S
H415 C352 0.961 . S
H416 C352 0.960 . S
H417 C352 0.959 . S
H418 C355 0.930 . S
H419 C359 0.931 . S
H420 C360 0.959 1_455 S
H421 C360 0.961 1_455 S
H422 C360 0.959 . S
H423 C361 0.960 . S
H424 C361 0.960 1_455 S
H425 C361 0.960 . S
H426 C397 0.980 . S
H427 C363 0.930 . S
H428 C367 0.930 . S
H429 C368 0.961 . S
H430 C368 0.960 . S
H431 C368 0.958 . S
H432 C369 0.961 . S
H433 C369 0.960 . S
H434 C369 0.960 . S
H435 C371 0.980 . S
H436 C370 0.961 . S
H437 C370 0.961 . S
H438 C370 0.959 . S
H439 C373 0.932 . S
H440 C377 0.929 . S
H441 C378 0.961 . S
H442 C378 0.959 1_655 S
H443 C378 0.959 . S
H444 C379 0.960 . S
H445 C379 0.962 . S
H446 C379 0.961 . S
H447 C381 0.929 . S
H448 C384 0.930 . S
H449 C385 0.929 . S
H450 C388 0.930 . S
H451 C391 0.929 . S
H452 C392 0.930 . S
H453 C396 0.962 . S
H454 C396 0.959 . S
H455 C396 0.958 . S
C456 C457 1.560 . S
C456 H517 0.959 . S
C456 H518 0.959 . S
C456 H519 0.960 . S
C457 C456 1.560 . S
C457 O512 1.426 . S
C457 H516 0.980 . S
C458 C459 1.407 . S
C458 C463 1.418 . S
C458 O512 1.334 . S
C459 C458 1.407 . S
C459 C460 1.360 . S
C459 H520 0.929 . S
C460 C459 1.360 . S
C460 C461 1.401 . S
C460 C464 1.527 . S
C461 C460 1.401 . S
C461 C462 1.405 . S
C461 C494 1.587 . S
C462 C461 1.405 . S
C462 C463 1.332 . S
C462 C465 1.496 . S
C463 C458 1.418 . S
C463 C462 1.332 . S
C463 H521 0.929 . S
C464 C460 1.527 . S
C464 H522 0.959 . S
C464 H523 0.961 . S
C464 H524 0.961 . S
C465 C462 1.496 . S
C465 H525 0.960 . S
C465 H526 0.960 . S
C465 H527 0.961 . S
C466 C467 1.517 . S
C466 H529 0.961 . S
C466 H530 0.960 . S
C466 H531 0.959 . S
C467 C466 1.517 . S
C467 O515 1.468 . S
C467 H528 0.980 . S
C468 C469 1.349 . S
C468 C473 1.367 . S
C468 O515 1.408 . S
C469 C468 1.349 . S
C469 C470 1.407 . S
C469 H532 0.930 . S
C470 C469 1.407 . S
C470 C471 1.449 . S
C470 C474 1.535 . S
C471 C470 1.449 . S
C471 C472 1.384 . S
C471 C496 1.553 . S
C472 C471 1.384 . S
C472 C473 1.364 . S
C472 C475 1.450 . S
C473 C468 1.367 . S
C473 C472 1.364 . S
C473 H533 0.931 . S
C474 C470 1.535 . S
C474 H534 0.959 . S
C474 H535 0.961 . S
C474 H536 0.959 . S
C475 C472 1.450 . S
C475 H537 0.960 . S
C475 H538 0.960 . S
C475 H539 0.960 . S
C476 C477 1.309 . S
C476 C481 1.304 . S
C476 O514 1.435 . S
C477 C476 1.309 . S
C477 C478 1.476 . S
C477 H541 0.930 . S
C478 C477 1.476 . S
C478 C479 1.400 . S
C478 C482 1.567 . S
C479 C478 1.400 . S
C479 C480 1.373 . S
C479 C501 1.432 . S
C480 C479 1.373 . S
C480 C481 1.339 . S
C480 C483 1.530 . S
C481 C476 1.304 . S
C481 C480 1.339 . S
C481 H542 0.930 . S
C482 C478 1.567 . S
C482 H543 0.961 . S
C482 H544 0.960 . S
C482 H545 0.958 . S
C483 C480 1.530 . S
C483 H546 0.961 . S
C483 H547 0.960 . S
C483 H548 0.960 . S
C484 C485 1.530 . S
C484 H550 0.961 . S
C484 H551 0.961 . S
C484 H552 0.959 . S
C485 C484 1.530 . S
C485 O513 1.412 . S
C485 H549 0.980 . S
C486 C487 1.288 . S
C486 C491 1.377 . S
C486 O513 1.393 . S
C487 C486 1.288 . S
C487 C488 1.369 . S
C487 H553 0.932 . S
C488 C487 1.369 . S
C488 C489 1.398 . S
C488 C492 1.527 1_565 S
C489 C488 1.398 . S
C489 C490 1.380 . S
C489 C503 1.497 1_565 S
C490 C489 1.380 . S
C490 C491 1.383 . S
C490 C493 1.603 . S
C491 C486 1.377 . S
C491 C490 1.383 . S
C491 H554 0.929 . S
C492 C488 1.527 1_545 S
C492 H555 0.961 . S
C492 H556 0.959 . S
C492 H557 0.959 . S
C493 C490 1.603 . S
C493 H558 0.960 . S
C493 H559 0.962 . S
C493 H560 0.961 . S
C494 C461 1.587 . S
C494 C495 1.360 . S
C494 C507 1.412 . S
C495 C494 1.360 . S
C495 C496 1.365 1_565 S
C495 H561 0.929 . S
C496 C471 1.553 . S
C496 C495 1.365 1_545 S
C496 C497 1.404 . S
C497 C496 1.404 . S
C497 C498 1.395 . S
C497 C508 1.451 . S
C498 C497 1.395 . S
C498 C499 1.322 . S
C498 H562 0.930 . S
C499 C498 1.322 . S
C499 C500 1.459 . S
C499 H563 0.929 . S
C500 C499 1.459 . S
C500 C501 1.445 1_556 S
C500 C509 1.395 . S
C501 C479 1.432 . S
C501 C500 1.445 1_554 S
C501 C502 1.370 . S
C502 C501 1.370 . S
C502 C503 1.438 . S
C502 H564 0.930 . S
C503 C489 1.497 1_545 S
C503 C502 1.438 . S
C503 C504 1.356 1_545 S
C504 C503 1.356 1_565 S
C504 C505 1.413 . S
C504 C509 1.437 1_564 S
C505 C504 1.413 . S
C505 C506 1.347 1_554 S
C505 H565 0.929 . S
C506 C505 1.347 1_556 S
C506 C507 1.455 . S
C506 H566 0.930 . S
C507 C494 1.412 . S
C507 C506 1.455 . S
C507 C508 1.331 1_565 S
C508 C497 1.451 . S
C508 C507 1.331 1_545 S
C508 C509 1.497 . S
C509 C500 1.395 . S
C509 C504 1.437 1_546 S
C509 C508 1.497 . S
C510 C511 1.582 . S
C510 H567 0.962 . S
C510 H568 0.959 . S
C510 H569 0.958 . S
C511 C510 1.582 . S
C511 O514 1.458 . S
C511 H540 0.980 . S
O512 C457 1.426 . S
O512 C458 1.334 . S
O513 C485 1.412 . S
O513 C486 1.393 . S
O514 C476 1.435 . S
O514 C511 1.458 . S
O515 C467 1.468 . S
O515 C468 1.408 . S
H516 C457 0.980 . S
H517 C456 0.959 . S
H518 C456 0.959 . S
H519 C456 0.960 . S
H520 C459 0.929 . S
H521 C463 0.929 . S
H522 C464 0.959 . S
H523 C464 0.961 . S
H524 C464 0.961 . S
H525 C465 0.960 . S
H526 C465 0.960 . S
H527 C465 0.961 . S
H528 C467 0.980 . S
H529 C466 0.961 . S
H530 C466 0.960 . S
H531 C466 0.959 . S
H532 C469 0.930 . S
H533 C473 0.931 . S
H534 C474 0.959 . S
H535 C474 0.961 . S
H536 C474 0.959 . S
H537 C475 0.960 . S
H538 C475 0.960 . S
H539 C475 0.960 . S
H540 C511 0.980 . S
H541 C477 0.930 . S
H542 C481 0.930 . S
H543 C482 0.961 . S
H544 C482 0.960 . S
H545 C482 0.958 . S
H546 C483 0.961 . S
H547 C483 0.960 . S
H548 C483 0.960 . S
H549 C485 0.980 . S
H550 C484 0.961 . S
H551 C484 0.961 . S
H552 C484 0.959 . S
H553 C487 0.932 . S
H554 C491 0.929 . S
H555 C492 0.961 . S
H556 C492 0.959 . S
H557 C492 0.959 . S
H558 C493 0.960 . S
H559 C493 0.962 . S
H560 C493 0.961 . S
H561 C495 0.929 . S
H562 C498 0.930 . S
H563 C499 0.929 . S
H564 C502 0.930 . S
H565 C505 0.929 . S
H566 C506 0.930 . S
H567 C510 0.962 . S
H568 C510 0.959 . S
H569 C510 0.958 . S
C570 C571 1.560 . S
C570 H631 0.959 . S
C570 H632 0.959 . S
C570 H633 0.960 . S
C571 C570 1.560 . S
C571 O626 1.426 . S
C571 H630 0.980 . S
C572 C573 1.407 . S
C572 C577 1.418 . S
C572 O626 1.334 . S
C573 C572 1.407 . S
C573 C574 1.360 . S
C573 H634 0.929 . S
C574 C573 1.360 . S
C574 C575 1.401 . S
C574 C578 1.527 . S
C575 C574 1.401 . S
C575 C576 1.405 . S
C575 C608 1.587 . S
C576 C575 1.405 . S
C576 C577 1.332 . S
C576 C579 1.496 . S
C577 C572 1.418 . S
C577 C576 1.332 . S
C577 H635 0.929 . S
C578 C574 1.527 . S
C578 H636 0.959 . S
C578 H637 0.961 . S
C578 H638 0.961 . S
C579 C576 1.496 . S
C579 H639 0.960 . S
C579 H640 0.960 . S
C579 H641 0.961 . S
C580 C581 1.494 1_556 S
C580 H643 0.981 . S
C580 H644 0.975 . S
C580 H645 0.949 1_556 S
C581 C580 1.494 1_554 S
C581 O629 1.468 . S
C581 H642 0.980 . S
C582 C583 1.349 . S
C582 C587 1.367 . S
C582 O629 1.408 . S
C583 C582 1.349 . S
C583 C584 1.407 . S
C583 H646 0.930 . S
C584 C583 1.407 . S
C584 C585 1.449 . S
C584 C588 1.535 . S
C585 C584 1.449 . S
C585 C586 1.384 . S
C585 C610 1.553 . S
C586 C585 1.384 . S
C586 C587 1.364 . S
C586 C589 1.450 . S
C587 C582 1.367 . S
C587 C586 1.364 . S
C587 H647 0.931 . S
C588 C584 1.535 . S
C588 H648 0.959 . S
C588 H649 0.961 . S
C588 H650 0.959 . S
C589 C586 1.450 . S
C589 H651 0.960 . S
C589 H652 0.960 . S
C589 H653 0.960 . S
C590 C591 1.309 . S
C590 C595 1.304 . S
C590 O628 1.435 . S
C591 C590 1.309 . S
C591 C592 1.476 . S
C591 H655 0.930 . S
C592 C591 1.476 . S
C592 C593 1.400 . S
C592 C596 1.567 . S
C593 C592 1.400 . S
C593 C594 1.373 . S
C593 C615 1.432 . S
C594 C593 1.373 . S
C594 C595 1.339 . S
C594 C597 1.530 . S
C595 C590 1.304 . S
C595 C594 1.339 . S
C595 H656 0.930 . S
C596 C592 1.567 . S
C596 H657 0.961 . S
C596 H658 0.960 . S
C596 H659 0.958 . S
C597 C594 1.530 . S
C597 H660 0.961 . S
C597 H661 0.960 . S
C597 H662 0.960 . S
C598 C599 1.530 . S
C598 H664 0.961 . S
C598 H665 0.961 . S
C598 H666 0.959 . S
C599 C598 1.530 . S
C599 O627 1.412 . S
C599 H663 0.980 . S
C600 C601 1.288 . S
C600 C605 1.377 . S
C600 O627 1.393 . S
C601 C600 1.288 . S
C601 C602 1.369 . S
C601 H667 0.932 . S
C602 C601 1.369 . S
C602 C603 1.398 . S
C602 C606 1.527 . S
C603 C602 1.398 . S
C603 C604 1.380 . S
C603 C617 1.497 . S
C604 C603 1.380 . S
C604 C605 1.383 . S
C604 C607 1.603 . S
C605 C600 1.377 . S
C605 C604 1.383 . S
C605 H668 0.929 . S
C606 C602 1.527 . S
C606 H669 0.961 . S
C606 H670 0.959 . S
C606 H671 0.959 . S
C607 C604 1.603 . S
C607 H672 0.960 . S
C607 H673 0.962 . S
C607 H674 0.961 . S
C608 C575 1.587 . S
C608 C609 1.360 . S
C608 C621 1.412 . S
C609 C608 1.360 . S
C609 C610 1.365 . S
C609 H675 0.929 . S
C610 C585 1.553 . S
C610 C609 1.365 . S
C610 C611 1.404 . S
C611 C610 1.404 . S
C611 C612 1.395 . S
C611 C622 1.451 . S
C612 C611 1.395 . S
C612 C613 1.322 . S
C612 H676 0.930 . S
C613 C612 1.322 . S
C613 C614 1.459 . S
C613 H677 0.929 . S
C614 C613 1.459 . S
C614 C615 1.445 . S
C614 C623 1.395 . S
C615 C593 1.432 . S
C615 C614 1.445 . S
C615 C616 1.370 . S
C616 C615 1.370 . S
C616 C617 1.438 . S
C616 H678 0.930 . S
C617 C603 1.497 . S
C617 C616 1.438 . S
C617 C618 1.360 . S
C618 C617 1.360 . S
C618 C619 1.401 . S
C618 C623 1.446 . S
C619 C618 1.401 . S
C619 C620 1.347 . S
C619 H679 0.929 . S
C620 C619 1.347 . S
C620 C621 1.455 . S
C620 H680 0.930 . S
C621 C608 1.412 . S
C621 C620 1.455 . S
C621 C622 1.331 . S
C622 C611 1.451 . S
C622 C621 1.331 . S
C622 C623 1.497 . S
C623 C614 1.395 . S
C623 C618 1.446 . S
C623 C622 1.497 . S
C624 C625 1.582 . S
C624 H681 0.962 . S
C624 H682 0.959 . S
C624 H683 0.958 . S
C625 C624 1.582 . S
C625 O628 1.458 . S
C625 H654 0.980 . S
O626 C571 1.426 . S
O626 C572 1.334 . S
O627 C599 1.412 . S
O627 C600 1.393 . S
O628 C590 1.435 . S
O628 C625 1.458 . S
O629 C581 1.468 . S
O629 C582 1.408 . S
H630 C571 0.980 . S
H631 C570 0.959 . S
H632 C570 0.959 . S
H633 C570 0.960 . S
H634 C573 0.929 . S
H635 C577 0.929 . S
H636 C578 0.959 . S
H637 C578 0.961 . S
H638 C578 0.961 . S
H639 C579 0.960 . S
H640 C579 0.960 . S
H641 C579 0.961 . S
H642 C581 0.980 . S
H643 C580 0.981 . S
H644 C580 0.975 . S
H645 C580 0.949 1_554 S
H646 C583 0.930 . S
H647 C587 0.931 . S
H648 C588 0.959 . S
H649 C588 0.961 . S
H650 C588 0.959 . S
H651 C589 0.960 . S
H652 C589 0.960 . S
H653 C589 0.960 . S
H654 C625 0.980 . S
H655 C591 0.930 . S
H656 C595 0.930 . S
H657 C596 0.961 . S
H658 C596 0.960 . S
H659 C596 0.958 . S
H660 C597 0.961 . S
H661 C597 0.960 . S
H662 C597 0.960 . S
H663 C599 0.980 . S
H664 C598 0.961 . S
H665 C598 0.961 . S
H666 C598 0.959 . S
H667 C601 0.932 . S
H668 C605 0.929 . S
H669 C606 0.961 . S
H670 C606 0.959 . S
H671 C606 0.959 . S
H672 C607 0.960 . S
H673 C607 0.962 . S
H674 C607 0.961 . S
H675 C609 0.929 . S
H676 C612 0.930 . S
H677 C613 0.929 . S
H678 C616 0.930 . S
H679 C619 0.929 . S
H680 C620 0.930 . S
H681 C624 0.962 . S
H682 C624 0.959 . S
H683 C624 0.958 . S
C684 O685 1.160 . S
C684 O691 1.185 . S
O685 C684 1.160 . S
O686 Zn687 1.899 . S
O686 C694 1.284 . S
Zn687 O686 1.899 . S
Zn687 O688 2.032 . S
Zn687 O691 2.086 . S
Zn687 O696 1.977 . S
O688 Zn687 2.032 . S
O688 C692 1.278 . S
C689 O690 1.203 . S
C689 O696 1.267 . S
O690 C689 1.203 . S
O691 C684 1.185 . S
O691 Zn687 2.086 . S
C692 O688 1.278 . S
C692 O693 1.211 . S
O693 C692 1.211 . S
C694 O686 1.284 . S
C694 O695 1.273 . S
O695 C694 1.273 . S
O696 Zn687 1.977 . S
O696 C689 1.267 . S
C697 O698 1.160 . S
C697 O704 1.185 . S
O698 C697 1.160 . S
O699 Zn700 1.899 . S
O699 C707 1.284 . S
Zn700 O699 1.899 . S
Zn700 O701 2.032 . S
Zn700 O704 2.086 . S
Zn700 O709 1.977 . S
O701 Zn700 2.032 . S
O701 C705 1.278 . S
C702 O703 1.203 . S
C702 O709 1.267 . S
O703 C702 1.203 . S
O704 C697 1.185 . S
O704 Zn700 2.086 . S
C705 O701 1.278 . S
C705 O706 1.211 . S
O706 C705 1.211 . S
C707 O699 1.284 . S
C707 O708 1.273 . S
O708 C707 1.273 . S
O709 Zn700 1.977 . S
O709 C702 1.267 . S
C710 O711 1.160 . S
C710 O717 1.185 . S
O711 C710 1.160 . S
O712 Zn713 1.899 . S
O712 C720 1.284 . S
Zn713 O712 1.899 . S
Zn713 O714 2.032 . S
Zn713 O717 2.086 . S
Zn713 O722 1.977 . S
O714 Zn713 2.032 . S
O714 C718 1.278 . S
C715 O716 1.203 . S
C715 O722 1.267 . S
O716 C715 1.203 . S
O717 C710 1.185 . S
O717 Zn713 2.086 . S
C718 O714 1.278 . S
C718 O719 1.211 . S
O719 C718 1.211 . S
C720 O712 1.284 . S
C720 O721 1.273 . S
O721 C720 1.273 . S
O722 Zn713 1.977 . S
O722 C715 1.267 . S
C723 O724 1.160 . S
C723 O730 1.185 . S
O724 C723 1.160 . S
O725 Zn726 1.899 . S
O725 C733 1.284 . S
Zn726 O725 1.899 . S
Zn726 O727 2.032 . S
Zn726 O730 2.086 . S
Zn726 O735 1.977 . S
O727 Zn726 2.032 . S
O727 C731 1.278 . S
C728 O729 1.203 . S
C728 O735 1.267 . S
O729 C728 1.203 . S
O730 C723 1.185 . S
O730 Zn726 2.086 . S
C731 O727 1.278 . S
C731 O732 1.211 . S
O732 C731 1.211 . S
C733 O725 1.284 . S
C733 O734 1.273 . S
O734 C733 1.273 . S
O735 Zn726 1.977 . S
O735 C728 1.267 . S
C736 O737 1.160 . S
C736 O743 1.185 . S
O737 C736 1.160 . S
O738 Zn739 1.899 . S
O738 C746 1.284 . S
Zn739 O738 1.899 . S
Zn739 O740 2.032 . S
Zn739 O743 2.086 . S
Zn739 O748 1.977 . S
O740 Zn739 2.032 . S
O740 C744 1.278 . S
C741 O742 1.203 . S
C741 O748 1.267 . S
O742 C741 1.203 . S
O743 C736 1.185 . S
O743 Zn739 2.086 . S
C744 O740 1.278 . S
C744 O745 1.211 . S
O745 C744 1.211 . S
C746 O738 1.284 . S
C746 O747 1.273 . S
O747 C746 1.273 . S
O748 Zn739 1.977 . S
O748 C741 1.267 . S
C749 O750 1.160 . S
C749 O756 1.185 . S
O750 C749 1.160 . S
O751 Zn752 1.899 . S
O751 C759 1.284 . S
Zn752 O751 1.899 . S
Zn752 O753 2.032 . S
Zn752 O756 2.086 . S
Zn752 O761 1.977 . S
O753 Zn752 2.032 . S
O753 C757 1.278 . S
C754 O755 1.203 . S
C754 O761 1.267 . S
O755 C754 1.203 . S
O756 C749 1.185 . S
O756 Zn752 2.086 . S
C757 O753 1.278 . S
C757 O758 1.211 . S
O758 C757 1.211 . S
C759 O751 1.284 . S
C759 O760 1.273 . S
O760 C759 1.273 . S
O761 Zn752 1.977 . S
O761 C754 1.267 . S
H762 C768 0.930 . S
H763 C771 0.930 . S
H764 C772 0.930 . S
H765 C773 0.930 . S
H766 C776 0.930 . S
H767 C777 0.930 . S
C768 H762 0.930 . S
C768 C769 1.355 . S
C768 C770 1.415 . S
C769 C768 1.355 . S
C769 C771 1.419 . S
C770 C768 1.415 . S
C770 C775 1.425 . S
C770 C777 1.409 . S
C771 H763 0.930 . S
C771 C769 1.419 . S
C771 C772 1.362 . S
C772 H764 0.930 . S
C772 C771 1.362 . S
C772 C775 1.409 . S
C773 H765 0.930 . S
C773 C774 1.355 . S
C773 C775 1.415 . S
C774 C773 1.355 . S
C774 C776 1.419 . S
C775 C770 1.425 . S
C775 C772 1.409 . S
C775 C773 1.415 . S
C776 H766 0.930 . S
C776 C774 1.419 . S
C776 C777 1.362 . S
C777 H767 0.930 . S
C777 C770 1.409 . S
C777 C776 1.362 . S
H778 C784 0.930 . S
H779 C787 0.930 . S
H780 C788 0.930 . S
H781 C789 0.930 . S
H782 C792 0.930 . S
H783 C793 0.930 . S
C784 H778 0.930 . S
C784 C785 1.355 . S
C784 C786 1.415 . S
C785 C784 1.355 . S
C785 C787 1.419 . S
C786 C784 1.415 . S
C786 C791 1.425 . S
C786 C793 1.409 . S
C787 H779 0.930 . S
C787 C785 1.419 . S
C787 C788 1.362 . S
C788 H780 0.930 . S
C788 C787 1.362 . S
C788 C791 1.409 . S
C789 H781 0.930 . S
C789 C790 1.355 . S
C789 C791 1.415 . S
C790 C789 1.355 . S
C790 C792 1.419 . S
C791 C786 1.425 . S
C791 C788 1.409 . S
C791 C789 1.415 . S
C792 H782 0.930 . S
C792 C790 1.419 . S
C792 C793 1.362 . S
C793 H783 0.930 . S
C793 C786 1.409 . S
C793 C792 1.362 . S
H794 C800 0.930 . S
H795 C803 0.930 . S
H796 C804 0.930 . S
H797 C805 0.930 . S
H798 C808 0.930 . S
H799 C809 0.930 . S
C800 H794 0.930 . S
C800 C801 1.355 . S
C800 C802 1.415 . S
C801 C800 1.355 . S
C801 C803 1.419 . S
C802 C800 1.415 . S
C802 C807 1.425 . S
C802 C809 1.409 . S
C803 H795 0.930 . S
C803 C801 1.419 . S
C803 C804 1.362 . S
C804 H796 0.930 . S
C804 C803 1.362 . S
C804 C807 1.409 . S
C805 H797 0.930 . S
C805 C806 1.355 . S
C805 C807 1.415 . S
C806 C805 1.355 . S
C806 C808 1.419 . S
C807 C802 1.425 . S
C807 C804 1.409 . S
C807 C805 1.415 . S
C808 H798 0.930 . S
C808 C806 1.419 . S
C808 C809 1.362 . S
C809 H799 0.930 . S
C809 C802 1.409 . S
C809 C808 1.362 . S
H810 C816 0.930 . S
H811 C819 0.930 . S
H812 C820 0.930 . S
H813 C821 0.930 . S
H814 C824 0.930 . S
H815 C825 0.930 . S
C816 H810 0.930 . S
C816 C817 1.355 . S
C816 C818 1.415 . S
C817 C816 1.355 . S
C817 C819 1.419 . S
C818 C816 1.415 . S
C818 C823 1.425 . S
C818 C825 1.409 . S
C819 H811 0.930 . S
C819 C817 1.419 . S
C819 C820 1.362 . S
C820 H812 0.930 . S
C820 C819 1.362 . S
C820 C823 1.409 . S
C821 H813 0.930 . S
C821 C822 1.355 . S
C821 C823 1.415 . S
C822 C821 1.355 . S
C822 C824 1.419 . S
C823 C818 1.425 . S
C823 C820 1.409 . S
C823 C821 1.415 . S
C824 H814 0.930 . S
C824 C822 1.419 . S
C824 C825 1.362 . S
C825 H815 0.930 . S
C825 C818 1.409 . S
C825 C824 1.362 . S
H826 C832 0.930 . S
H827 C835 0.930 . S
H828 C836 0.930 . S
H829 C837 0.930 . S
H830 C840 0.930 . S
H831 C841 0.930 . S
C832 H826 0.930 . S
C832 C833 1.355 . S
C832 C834 1.415 . S
C833 C832 1.355 . S
C833 C835 1.419 . S
C834 C832 1.415 . S
C834 C839 1.425 . S
C834 C841 1.409 . S
C835 H827 0.930 . S
C835 C833 1.419 . S
C835 C836 1.362 . S
C836 H828 0.930 . S
C836 C835 1.362 . S
C836 C839 1.409 . S
C837 H829 0.930 . S
C837 C838 1.355 . S
C837 C839 1.415 . S
C838 C837 1.355 . S
C838 C840 1.419 . S
C839 C834 1.425 . S
C839 C836 1.409 . S
C839 C837 1.415 . S
C840 H830 0.930 . S
C840 C838 1.419 . S
C840 C841 1.362 . S
C841 H831 0.930 . S
C841 C834 1.409 . S
C841 C840 1.362 . S
H842 C848 0.930 . S
H843 C851 0.930 . S
H844 C852 0.930 . S
H845 C853 0.930 . S
H846 C856 0.930 . S
H847 C857 0.930 . S
C848 H842 0.930 . S
C848 C849 1.355 . S
C848 C850 1.415 . S
C849 C848 1.355 . S
C849 C851 1.419 . S
C850 C848 1.415 . S
C850 C855 1.425 . S
C850 C857 1.409 . S
C851 H843 0.930 . S
C851 C849 1.419 . S
C851 C852 1.362 . S
C852 H844 0.930 . S
C852 C851 1.362 . S
C852 C855 1.409 . S
C853 H845 0.930 . S
C853 C854 1.355 . S
C853 C855 1.415 . S
C854 C853 1.355 . S
C854 C856 1.419 . S
C855 C850 1.425 . S
C855 C852 1.409 . S
C855 C853 1.415 . S
C856 H846 0.930 . S
C856 C854 1.419 . S
C856 C857 1.362 . S
C857 H847 0.930 . S
C857 C850 1.409 . S
C857 C856 1.362 . S
H858 C864 0.930 . S
H859 C867 0.930 . S
H860 C868 0.930 . S
H861 C869 0.930 . S
H862 C872 0.930 . S
H863 C873 0.930 . S
C864 H858 0.930 . S
C864 C865 1.355 . S
C864 C866 1.415 . S
C865 C864 1.355 . S
C865 C867 1.419 . S
C866 C864 1.415 . S
C866 C871 1.425 . S
C866 C873 1.409 . S
C867 H859 0.930 . S
C867 C865 1.419 . S
C867 C868 1.362 . S
C868 H860 0.930 . S
C868 C867 1.362 . S
C868 C871 1.409 . S
C869 H861 0.930 . S
C869 C870 1.355 . S
C869 C871 1.415 . S
C870 C869 1.355 . S
C870 C872 1.419 . S
C871 C866 1.425 . S
C871 C868 1.409 . S
C871 C869 1.415 . S
C872 H862 0.930 . S
C872 C870 1.419 . S
C872 C873 1.362 . S
C873 H863 0.930 . S
C873 C866 1.409 . S
C873 C872 1.362 . S
H874 C880 0.930 . S
H875 C883 0.930 . S
H876 C884 0.930 . S
H877 C885 0.930 . S
H878 C888 0.930 . S
H879 C889 0.930 . S
C880 H874 0.930 . S
C880 C881 1.355 . S
C880 C882 1.415 . S
C881 C880 1.355 . S
C881 C883 1.419 . S
C882 C880 1.415 . S
C882 C887 1.425 . S
C882 C889 1.409 . S
C883 H875 0.930 . S
C883 C881 1.419 . S
C883 C884 1.362 . S
C884 H876 0.930 . S
C884 C883 1.362 . S
C884 C887 1.409 . S
C885 H877 0.930 . S
C885 C886 1.355 . S
C885 C887 1.415 . S
C886 C885 1.355 . S
C886 C888 1.419 . S
C887 C882 1.425 . S
C887 C884 1.409 . S
C887 C885 1.415 . S
C888 H878 0.930 . S
C888 C886 1.419 . S
C888 C889 1.362 . S
C889 H879 0.930 . S
C889 C882 1.409 . S
C889 C888 1.362 . S
H890 C896 0.930 . S
H891 C899 0.930 . S
H892 C900 0.930 . S
H893 C901 0.930 . S
H894 C904 0.930 . S
H895 C905 0.930 . S
C896 H890 0.930 . S
C896 C897 1.355 . S
C896 C898 1.415 . S
C897 C896 1.355 . S
C897 C899 1.419 . S
C898 C896 1.415 . S
C898 C903 1.425 . S
C898 C905 1.409 . S
C899 H891 0.930 . S
C899 C897 1.419 . S
C899 C900 1.362 . S
C900 H892 0.930 . S
C900 C899 1.362 . S
C900 C903 1.409 . S
C901 H893 0.930 . S
C901 C902 1.355 . S
C901 C903 1.415 . S
C902 C901 1.355 . S
C902 C904 1.419 . S
C903 C898 1.425 . S
C903 C900 1.409 . S
C903 C901 1.415 . S
C904 H894 0.930 . S
C904 C902 1.419 . S
C904 C905 1.362 . S
C905 H895 0.930 . S
C905 C898 1.409 . S
C905 C904 1.362 . S
H906 C912 0.930 . S
H907 C915 0.930 . S
H908 C916 0.930 . S
H909 C917 0.930 . S
H910 C920 0.930 . S
H911 C921 0.930 . S
C912 H906 0.930 . S
C912 C913 1.355 . S
C912 C914 1.415 . S
C913 C912 1.355 . S
C913 C915 1.419 . S
C914 C912 1.415 . S
C914 C919 1.425 . S
C914 C921 1.409 . S
C915 H907 0.930 . S
C915 C913 1.419 . S
C915 C916 1.362 . S
C916 H908 0.930 . S
C916 C915 1.362 . S
C916 C919 1.409 . S
C917 H909 0.930 . S
C917 C918 1.355 . S
C917 C919 1.415 . S
C918 C917 1.355 . S
C918 C920 1.419 . S
C919 C914 1.425 . S
C919 C916 1.409 . S
C919 C917 1.415 . S
C920 H910 0.930 . S
C920 C918 1.419 . S
C920 C921 1.362 . S
C921 H911 0.930 . S
C921 C914 1.409 . S
C921 C920 1.362 . S
H922 C928 0.930 . S
H923 C931 0.930 . S
H924 C932 0.930 . S
H925 C933 0.930 . S
H926 C936 0.930 . S
H927 C937 0.930 . S
C928 H922 0.930 . S
C928 C929 1.355 . S
C928 C930 1.415 . S
C929 C928 1.355 . S
C929 C931 1.419 . S
C930 C928 1.415 . S
C930 C935 1.425 . S
C930 C937 1.409 . S
C931 H923 0.930 . S
C931 C929 1.419 . S
C931 C932 1.362 . S
C932 H924 0.930 . S
C932 C931 1.362 . S
C932 C935 1.409 . S
C933 H925 0.930 . S
C933 C934 1.355 . S
C933 C935 1.415 . S
C934 C933 1.355 . S
C934 C936 1.419 . S
C935 C930 1.425 . S
C935 C932 1.409 . S
C935 C933 1.415 . S
C936 H926 0.930 . S
C936 C934 1.419 . S
C936 C937 1.362 . S
C937 H927 0.930 . S
C937 C930 1.409 . S
C937 C936 1.362 . S
H938 C944 0.930 . S
H939 C947 0.930 . S
H940 C948 0.930 . S
H941 C949 0.930 . S
H942 C952 0.930 . S
H943 C953 0.930 . S
C944 H938 0.930 . S
C944 C945 1.355 . S
C944 C946 1.415 . S
C945 C944 1.355 . S
C945 C947 1.419 . S
C946 C944 1.415 . S
C946 C951 1.425 . S
C946 C953 1.409 . S
C947 H939 0.930 . S
C947 C945 1.419 . S
C947 C948 1.362 . S
C948 H940 0.930 . S
C948 C947 1.362 . S
C948 C951 1.409 . S
C949 H941 0.930 . S
C949 C950 1.355 . S
C949 C951 1.415 . S
C950 C949 1.355 . S
C950 C952 1.419 . S
C951 C946 1.425 . S
C951 C948 1.409 . S
C951 C949 1.415 . S
C952 H942 0.930 . S
C952 C950 1.419 . S
C952 C953 1.362 . S
C953 H943 0.930 . S
C953 C946 1.409 . S
C953 C952 1.362 . S
H954 C960 0.930 . S
H955 C963 0.930 . S
H956 C964 0.930 . S
H957 C965 0.930 . S
H958 C968 0.930 . S
H959 C969 0.930 . S
C960 H954 0.930 . S
C960 C961 1.355 . S
C960 C962 1.415 . S
C961 C960 1.355 . S
C961 C963 1.419 . S
C962 C960 1.415 . S
C962 C967 1.425 . S
C962 C969 1.409 . S
C963 H955 0.930 . S
C963 C961 1.419 . S
C963 C964 1.362 . S
C964 H956 0.930 . S
C964 C963 1.362 . S
C964 C967 1.409 . S
C965 H957 0.930 . S
C965 C966 1.355 . S
C965 C967 1.415 . S
C966 C965 1.355 . S
C966 C968 1.419 . S
C967 C962 1.425 . S
C967 C964 1.409 . S
C967 C965 1.415 . S
C968 H958 0.930 . S
C968 C966 1.419 . S
C968 C969 1.362 . S
C969 H959 0.930 . S
C969 C962 1.409 . S
C969 C968 1.362 . S
H970 C976 0.930 . S
H971 C979 0.930 . S
H972 C980 0.930 . S
H973 C981 0.930 . S
H974 C984 0.930 . S
H975 C985 0.930 . S
C976 H970 0.930 . S
C976 C977 1.355 . S
C976 C978 1.415 . S
C977 C976 1.355 . S
C977 C979 1.419 . S
C978 C976 1.415 . S
C978 C983 1.425 . S
C978 C985 1.409 . S
C979 H971 0.930 . S
C979 C977 1.419 . S
C979 C980 1.362 . S
C980 H972 0.930 . S
C980 C979 1.362 . S
C980 C983 1.409 . S
C981 H973 0.930 . S
C981 C982 1.355 . S
C981 C983 1.415 . S
C982 C981 1.355 . S
C982 C984 1.419 . S
C983 C978 1.425 . S
C983 C980 1.409 . S
C983 C981 1.415 . S
C984 H974 0.930 . S
C984 C982 1.419 . S
C984 C985 1.362 . S
C985 H975 0.930 . S
C985 C978 1.409 . S
C985 C984 1.362 . S
H986 C992 0.930 . S
H987 C995 0.930 . S
H988 C996 0.930 . S
H989 C997 0.930 . S
H990 C1000 0.930 . S
H991 C1001 0.930 . S
C992 H986 0.930 . S
C992 C993 1.355 . S
C992 C994 1.415 . S
C993 C992 1.355 . S
C993 C995 1.419 . S
C994 C992 1.415 . S
C994 C999 1.425 . S
C994 C1001 1.409 . S
C995 H987 0.930 . S
C995 C993 1.419 . S
C995 C996 1.362 . S
C996 H988 0.930 . S
C996 C995 1.362 . S
C996 C999 1.409 . S
C997 H989 0.930 . S
C997 C998 1.355 . S
C997 C999 1.415 . S
C998 C997 1.355 . S
C998 C1000 1.419 . S
C999 C994 1.425 . S
C999 C996 1.409 . S
C999 C997 1.415 . S
C1000 H990 0.930 . S
C1000 C998 1.419 . S
C1000 C1001 1.362 . S
C1001 H991 0.930 . S
C1001 C994 1.409 . S
C1001 C1000 1.362 . S
H1002 C1008 0.930 . S
H1003 C1011 0.930 . S
H1004 C1012 0.930 . S
H1005 C1013 0.930 . S
H1006 C1016 0.930 . S
H1007 C1017 0.930 . S
C1008 H1002 0.930 . S
C1008 C1009 1.355 . S
C1008 C1010 1.415 . S
C1009 C1008 1.355 . S
C1009 C1011 1.419 . S
C1010 C1008 1.415 . S
C1010 C1015 1.425 . S
C1010 C1017 1.409 1_556 S
C1011 H1003 0.930 . S
C1011 C1009 1.419 . S
C1011 C1012 1.362 . S
C1012 H1004 0.930 . S
C1012 C1011 1.362 . S
C1012 C1015 1.409 . S
C1013 H1005 0.930 . S
C1013 C1014 1.355 1_556 S
C1013 C1015 1.415 . S
C1014 C1013 1.355 1_554 S
C1014 C1016 1.419 . S
C1015 C1010 1.425 . S
C1015 C1012 1.409 . S
C1015 C1013 1.415 . S
C1016 H1006 0.930 . S
C1016 C1014 1.419 . S
C1016 C1017 1.362 . S
C1017 H1007 0.930 . S
C1017 C1010 1.409 1_554 S
C1017 C1016 1.362 . S
H1018 C1024 0.930 . S
H1019 C1027 0.930 . S
H1020 C1028 0.930 . S
H1021 C1029 0.930 . S
H1022 C1032 0.930 . S
H1023 C1033 0.930 . S
C1024 H1018 0.930 . S
C1024 C1025 1.355 . S
C1024 C1026 1.415 . S
C1025 C1024 1.355 . S
C1025 C1027 1.419 . S
C1026 C1024 1.415 . S
C1026 C1031 1.425 . S
C1026 C1033 1.409 . S
C1027 H1019 0.930 . S
C1027 C1025 1.419 . S
C1027 C1028 1.362 . S
C1028 H1020 0.930 . S
C1028 C1027 1.362 . S
C1028 C1031 1.409 . S
C1029 H1021 0.930 . S
C1029 C1030 1.355 . S
C1029 C1031 1.415 . S
C1030 C1029 1.355 . S
C1030 C1032 1.419 . S
C1031 C1026 1.425 . S
C1031 C1028 1.409 . S
C1031 C1029 1.415 . S
C1032 H1022 0.930 . S
C1032 C1030 1.419 . S
C1032 C1033 1.362 . S
C1033 H1023 0.930 . S
C1033 C1026 1.409 . S
C1033 C1032 1.362 . S
H1034 C1040 0.930 . S
H1035 C1043 0.930 . S
H1036 C1044 0.930 . S
H1037 C1045 0.930 . S
H1038 C1048 0.930 . S
H1039 C1049 0.930 . S
C1040 H1034 0.930 . S
C1040 C1041 1.355 . S
C1040 C1042 1.415 . S
C1041 C1040 1.355 . S
C1041 C1043 1.419 . S
C1042 C1040 1.415 . S
C1042 C1047 1.425 . S
C1042 C1049 1.409 . S
C1043 H1035 0.930 . S
C1043 C1041 1.419 . S
C1043 C1044 1.362 . S
C1044 H1036 0.930 . S
C1044 C1043 1.362 . S
C1044 C1047 1.409 . S
C1045 H1037 0.930 . S
C1045 C1046 1.355 . S
C1045 C1047 1.415 . S
C1046 C1045 1.355 . S
C1046 C1048 1.419 . S
C1047 C1042 1.425 . S
C1047 C1044 1.409 . S
C1047 C1045 1.415 . S
C1048 H1038 0.930 . S
C1048 C1046 1.419 . S
C1048 C1049 1.362 . S
C1049 H1039 0.930 . S
C1049 C1042 1.409 . S
C1049 C1048 1.362 . S
H1050 C1056 0.930 . S
H1051 C1059 0.930 . S
H1052 C1060 0.930 . S
H1053 C1061 0.930 . S
H1054 C1064 0.930 . S
H1055 C1065 0.930 . S
C1056 H1050 0.930 . S
C1056 C1057 1.355 . S
C1056 C1058 1.415 . S
C1057 C1056 1.355 . S
C1057 C1059 1.419 . S
C1058 C1056 1.415 . S
C1058 C1063 1.425 . S
C1058 C1065 1.409 . S
C1059 H1051 0.930 . S
C1059 C1057 1.419 . S
C1059 C1060 1.362 . S
C1060 H1052 0.930 . S
C1060 C1059 1.362 . S
C1060 C1063 1.409 . S
C1061 H1053 0.930 . S
C1061 C1062 1.355 . S
C1061 C1063 1.415 . S
C1062 C1061 1.355 . S
C1062 C1064 1.419 . S
C1063 C1058 1.425 . S
C1063 C1060 1.409 . S
C1063 C1061 1.415 . S
C1064 H1054 0.930 . S
C1064 C1062 1.419 . S
C1064 C1065 1.362 . S
C1065 H1055 0.930 . S
C1065 C1058 1.409 . S
C1065 C1064 1.362 . S
H1066 C1072 0.930 . S
H1067 C1075 0.930 . S
H1068 C1076 0.930 . S
H1069 C1077 0.930 . S
H1070 C1080 0.930 . S
H1071 C1081 0.930 . S
C1072 H1066 0.930 . S
C1072 C1073 1.355 . S
C1072 C1074 1.415 . S
C1073 C1072 1.355 . S
C1073 C1075 1.419 . S
C1074 C1072 1.415 . S
C1074 C1079 1.425 . S
C1074 C1081 1.409 . S
C1075 H1067 0.930 . S
C1075 C1073 1.419 . S
C1075 C1076 1.362 . S
C1076 H1068 0.930 . S
C1076 C1075 1.362 . S
C1076 C1079 1.409 . S
C1077 H1069 0.930 . S
C1077 C1078 1.355 . S
C1077 C1079 1.415 . S
C1078 C1077 1.355 . S
C1078 C1080 1.419 . S
C1079 C1074 1.425 . S
C1079 C1076 1.409 . S
C1079 C1077 1.415 . S
C1080 H1070 0.930 . S
C1080 C1078 1.419 . S
C1080 C1081 1.362 . S
C1081 H1071 0.930 . S
C1081 C1074 1.409 . S
C1081 C1080 1.362 . S
H1082 C1088 0.930 . S
H1083 C1091 0.930 . S
H1084 C1092 0.930 . S
H1085 C1093 0.930 . S
H1086 C1096 0.930 . S
H1087 C1097 0.930 . S
C1088 H1082 0.930 . S
C1088 C1089 1.355 . S
C1088 C1090 1.415 . S
C1089 C1088 1.355 . S
C1089 C1091 1.419 . S
C1090 C1088 1.415 . S
C1090 C1095 1.425 . S
C1090 C1097 1.409 . S
C1091 H1083 0.930 . S
C1091 C1089 1.419 . S
C1091 C1092 1.362 . S
C1092 H1084 0.930 . S
C1092 C1091 1.362 . S
C1092 C1095 1.409 . S
C1093 H1085 0.930 . S
C1093 C1094 1.355 . S
C1093 C1095 1.415 . S
C1094 C1093 1.355 . S
C1094 C1096 1.419 . S
C1095 C1090 1.425 . S
C1095 C1092 1.409 . S
C1095 C1093 1.415 . S
C1096 H1086 0.930 . S
C1096 C1094 1.419 . S
C1096 C1097 1.362 . S
C1097 H1087 0.930 . S
C1097 C1090 1.409 . S
C1097 C1096 1.362 . S
H1098 C1104 0.930 . S
H1099 C1107 0.930 . S
H1100 C1108 0.930 . S
H1101 C1109 0.930 . S
H1102 C1112 0.930 . S
H1103 C1113 0.930 . S
C1104 H1098 0.930 . S
C1104 C1105 1.355 . S
C1104 C1106 1.415 . S
C1105 C1104 1.355 . S
C1105 C1107 1.419 . S
C1106 C1104 1.415 . S
C1106 C1111 1.425 . S
C1106 C1113 1.409 . S
C1107 H1099 0.930 . S
C1107 C1105 1.419 . S
C1107 C1108 1.362 . S
C1108 H1100 0.930 . S
C1108 C1107 1.362 . S
C1108 C1111 1.409 . S
C1109 H1101 0.930 . S
C1109 C1110 1.355 . S
C1109 C1111 1.415 . S
C1110 C1109 1.355 . S
C1110 C1112 1.419 . S
C1111 C1106 1.425 . S
C1111 C1108 1.409 . S
C1111 C1109 1.415 . S
C1112 H1102 0.930 . S
C1112 C1110 1.419 . S
C1112 C1113 1.362 . S
C1113 H1103 0.930 . S
C1113 C1106 1.409 . S
C1113 C1112 1.362 . S
H1114 C1120 0.930 . S
H1115 C1123 0.930 1_554 S
H1116 C1124 0.930 . S
H1117 C1125 0.930 . S
H1118 C1128 0.930 . S
H1119 C1129 0.930 . S
C1120 H1114 0.930 . S
C1120 C1121 1.355 . S
C1120 C1122 1.415 1_554 S
C1121 C1120 1.355 . S
C1121 C1123 1.419 1_554 S
C1122 C1120 1.415 1_556 S
C1122 C1127 1.425 . S
C1122 C1129 1.409 . S
C1123 H1115 0.930 1_556 S
C1123 C1121 1.419 1_556 S
C1123 C1124 1.362 . S
C1124 H1116 0.930 . S
C1124 C1123 1.362 . S
C1124 C1127 1.409 . S
C1125 H1117 0.930 . S
C1125 C1126 1.355 . S
C1125 C1127 1.415 . S
C1126 C1125 1.355 . S
C1126 C1128 1.419 . S
C1127 C1122 1.425 . S
C1127 C1124 1.409 . S
C1127 C1125 1.415 . S
C1128 H1118 0.930 . S
C1128 C1126 1.419 . S
C1128 C1129 1.362 . S
C1129 H1119 0.930 . S
C1129 C1122 1.409 . S
C1129 C1128 1.362 . S
H1130 C1136 0.930 . S
H1131 C1139 0.930 . S
H1132 C1140 0.930 . S
H1133 C1141 0.930 . S
H1134 C1144 0.930 . S
H1135 C1145 0.930 . S
C1136 H1130 0.930 . S
C1136 C1137 1.355 . S
C1136 C1138 1.415 . S
C1137 C1136 1.355 . S
C1137 C1139 1.419 . S
C1138 C1136 1.415 . S
C1138 C1143 1.425 . S
C1138 C1145 1.409 . S
C1139 H1131 0.930 . S
C1139 C1137 1.419 . S
C1139 C1140 1.362 . S
C1140 H1132 0.930 . S
C1140 C1139 1.362 . S
C1140 C1143 1.409 . S
C1141 H1133 0.930 . S
C1141 C1142 1.355 . S
C1141 C1143 1.415 . S
C1142 C1141 1.355 . S
C1142 C1144 1.419 . S
C1143 C1138 1.425 . S
C1143 C1140 1.409 . S
C1143 C1141 1.415 . S
C1144 H1134 0.930 . S
C1144 C1142 1.419 . S
C1144 C1145 1.362 . S
C1145 H1135 0.930 . S
C1145 C1138 1.409 . S
C1145 C1144 1.362 . S
C774 C759 1.777 . S
C769 C1 1.359 . S
C785 C169 1.605 . S
C790 C684 1.659 . S
C801 C283 1.654 . S
C806 C707 1.938 . S
C817 C397 1.236 . S
C822 C720 1.430 . S
C838 C723 1.566 . S
C833 C457 1.149 . S
C849 C571 1.070 . S
C854 C736 1.412 . S
C865 C115 1.162 . S
C870 C697 1.520 . S
C881 C229 1.213 . S
C886 C710 1.607 . S
C897 C343 1.094 . S
C902 C733 1.342 . S
C918 C746 1.817 . S
C913 C511 1.525 . S
C934 C749 1.673 . S
C929 C625 1.487 . S
C950 C694 1.911 . S
C945 C55 1.613 . S
C961 C29 1.172 . S
C966 C705 1.417 . S
C977 C125 1.006 . S
C982 C718 1.437 . S
C998 C728 1.396 . S
C993 C239 0.934 . S
C1009 C353 0.959 . S
C1014 C741 1.394 . S
C1030 C757 1.406 . S
C1025 C485 1.168 . S
C1046 C689 1.365 . S
C1041 C599 1.193 . S
C1062 C754 1.406 . S
C1057 C143 1.069 . S
C1073 C257 1.162 . S
C1078 C692 1.415 . S
C1094 C702 1.291 . S
C1089 C371 1.214 . S
C1105 C467 0.842 . S
C1110 C715 1.407 . S
C1121 C581 0.786 . S
C1126 C731 1.417 . S
C1137 C11 0.828 . S
C1142 C744 1.485 . S
