# Generated by pormake.
# Topology cml, (3,6)-cn, num edge types: 1
# Building blocks:
#     Node 0, Type 0, BuildingBlock: CUQRIR_clean_linker_1, # of connection points: 3
#     Node 1, Type 0, BuildingBlock: CUQRIR_clean_linker_1, # of connection points: 3
#     Node 2, Type 0, BuildingBlock: CUQRIR_clean_linker_1, # of connection points: 3
#     Node 3, Type 0, BuildingBlock: CUQRIR_clean_linker_1, # of connection points: 3
#     Node 4, Type 0, BuildingBlock: CUQRIR_clean_linker_1, # of connection points: 3
#     Node 5, Type 0, BuildingBlock: CUQRIR_clean_linker_1, # of connection points: 3
#     Node 6, Type 0, BuildingBlock: CUQRIR_clean_linker_1, # of connection points: 3
#     Node 7, Type 0, BuildingBlock: CUQRIR_clean_linker_1, # of connection points: 3
#     Node 8, Type 1, BuildingBlock: OJICUG_clean_sbu_0, # of connection points: 6
#     Node 9, Type 1, BuildingBlock: OJICUG_clean_sbu_0, # of connection points: 6
#     Node 10, Type 1, BuildingBlock: OJICUG_clean_sbu_0, # of connection points: 6
#     Node 11, Type 1, BuildingBlock: OJICUG_clean_sbu_0, # of connection points: 6
#     Edge 12, Type (0, 1), BuildingBlock: XIVTED_clean_linker_0, # of connection points: 2
#     Edge 13, Type (0, 1), BuildingBlock: XIVTED_clean_linker_0, # of connection points: 2
#     Edge 14, Type (0, 1), BuildingBlock: XIVTED_clean_linker_0, # of connection points: 2
#     Edge 15, Type (0, 1), BuildingBlock: XIVTED_clean_linker_0, # of connection points: 2
#     Edge 16, Type (0, 1), BuildingBlock: XIVTED_clean_linker_0, # of connection points: 2
#     Edge 17, Type (0, 1), BuildingBlock: XIVTED_clean_linker_0, # of connection points: 2
#     Edge 18, Type (0, 1), BuildingBlock: XIVTED_clean_linker_0, # of connection points: 2
#     Edge 19, Type (0, 1), BuildingBlock: XIVTED_clean_linker_0, # of connection points: 2
#     Edge 20, Type (0, 1), BuildingBlock: XIVTED_clean_linker_0, # of connection points: 2
#     Edge 21, Type (0, 1), BuildingBlock: XIVTED_clean_linker_0, # of connection points: 2
#     Edge 22, Type (0, 1), BuildingBlock: XIVTED_clean_linker_0, # of connection points: 2
#     Edge 23, Type (0, 1), BuildingBlock: XIVTED_clean_linker_0, # of connection points: 2
#     Edge 24, Type (0, 1), BuildingBlock: XIVTED_clean_linker_0, # of connection points: 2
#     Edge 25, Type (0, 1), BuildingBlock: XIVTED_clean_linker_0, # of connection points: 2
#     Edge 26, Type (0, 1), BuildingBlock: XIVTED_clean_linker_0, # of connection points: 2
#     Edge 27, Type (0, 1), BuildingBlock: XIVTED_clean_linker_0, # of connection points: 2
#     Edge 28, Type (0, 1), BuildingBlock: XIVTED_clean_linker_0, # of connection points: 2
#     Edge 29, Type (0, 1), BuildingBlock: XIVTED_clean_linker_0, # of connection points: 2
#     Edge 30, Type (0, 1), BuildingBlock: XIVTED_clean_linker_0, # of connection points: 2
#     Edge 31, Type (0, 1), BuildingBlock: XIVTED_clean_linker_0, # of connection points: 2
#     Edge 32, Type (0, 1), BuildingBlock: XIVTED_clean_linker_0, # of connection points: 2
#     Edge 33, Type (0, 1), BuildingBlock: XIVTED_clean_linker_0, # of connection points: 2
#     Edge 34, Type (0, 1), BuildingBlock: XIVTED_clean_linker_0, # of connection points: 2
#     Edge 35, Type (0, 1), BuildingBlock: XIVTED_clean_linker_0, # of connection points: 2
# Relax obj value: 0.003
# Max RMSD: 0.059
# Mean RMSD: 0.045
data_MOF--net-cml--node1-OJICUG_clean_sbu_0--node2-CUQRIR_clean_linker_1--edge1-XIVTED_clean_linker_0
_symmetry_space_group_name_H-M    P1
_symmetry_Int_Tables_number       1
_symmetry_cell_setting            triclinic
loop_
_symmetry_equiv_pos_as_xyz
'x, y, z'
_cell_length_a     38.460638
_cell_length_b     37.460481
_cell_length_c     32.079167
_cell_angle_alpha  90.061887
_cell_angle_beta   90.020449
_cell_angle_gamma 89.940551
loop_
_atom_site_label
_atom_site_type_symbol
_atom_site_fract_x
_atom_site_fract_y
_atom_site_fract_z
_atom_type_partial_charge
C0 C 0.23433 0.34717 0.03738 0.0
N1 N 0.26099 0.37062 0.03945 0.0
N2 N 0.22035 0.34671 0.99866 0.0
C3 C 0.22107 0.32567 0.07363 0.0
C4 C 0.2394 0.37085 0.97716 0.0
N5 N 0.26393 0.38565 1.00206 0.0
C6 C 0.23705 0.37637 0.93071 0.0
H7 H 0.23507 0.29979 0.07484 0.0
H8 H 0.19286 0.32019 0.07015 0.0
H9 H 0.2257 0.33998 0.10343 0.0
H10 H 0.21809 0.39801 0.92424 0.0
H11 H 0.22802 0.35179 0.91475 0.0
H12 H 0.26257 0.3841 0.91743 0.0
C13 C 0.75966 0.64236 0.54488 0.0
N14 N 0.7343 0.61736 0.5456 0.0
N15 N 0.77871 0.63944 0.50955 0.0
C16 C 0.76331 0.67216 0.57606 0.0
C17 C 0.76394 0.61184 0.48891 0.0
N18 N 0.73696 0.59842 0.51074 0.0
C19 C 0.77486 0.59894 0.44648 0.0
H20 H 0.75475 0.69754 0.56146 0.0
H21 H 0.79092 0.6753 0.58523 0.0
H22 H 0.74766 0.66725 0.6045 0.0
H23 H 0.80275 0.60474 0.44083 0.0
H24 H 0.75918 0.61277 0.42236 0.0
H25 H 0.77014 0.56982 0.44346 0.0
C26 C 0.74186 0.33652 0.02955 0.0
N27 N 0.7175 0.36273 0.03004 0.0
N28 N 0.7599 0.33716 0.9933 0.0
C29 C 0.74522 0.30773 0.06203 0.0
C30 C 0.7457 0.36455 0.9718 0.0
N31 N 0.71975 0.37987 0.99385 0.0
C32 C 0.75826 0.37751 0.93002 0.0
H33 H 0.76481 0.31608 0.08547 0.0
H34 H 0.75402 0.28226 0.04784 0.0
H35 H 0.72013 0.30314 0.07818 0.0
H36 H 0.74364 0.36366 0.90498 0.0
H37 H 0.78636 0.37172 0.92593 0.0
H38 H 0.75379 0.40664 0.92673 0.0
C39 C 0.22345 0.64191 0.53852 0.0
N40 N 0.25043 0.61881 0.54004 0.0
N41 N 0.20804 0.64107 0.50058 0.0
C42 C 0.21241 0.66559 0.57402 0.0
C43 C 0.22671 0.61659 0.479 0.0
N44 N 0.25237 0.60297 0.50308 0.0
C45 C 0.22188 0.60873 0.43333 0.0
H46 H 0.18433 0.67215 0.57171 0.0
H47 H 0.22748 0.6908 0.57295 0.0
H48 H 0.21774 0.6524 0.60433 0.0
H49 H 0.22199 0.63407 0.41543 0.0
H50 H 0.19622 0.59591 0.42851 0.0
H51 H 0.24223 0.59065 0.42092 0.0
C52 C 0.72698 0.85601 0.03513 0.0
N53 N 0.7547 0.87812 0.03718 0.0
N54 N 0.71408 0.85478 0.99591 0.0
C55 C 0.71177 0.83645 0.07179 0.0
C56 C 0.73485 0.87713 0.97407 0.0
N57 N 0.7594 0.89156 0.99923 0.0
C58 C 0.73404 0.88103 0.92732 0.0
H59 H 0.72449 0.81 0.07479 0.0
H60 H 0.68345 0.83221 0.0674 0.0
H61 H 0.71628 0.85158 0.10106 0.0
H62 H 0.71611 0.90312 0.91902 0.0
H63 H 0.72453 0.85626 0.91218 0.0
H64 H 0.7602 0.88728 0.91475 0.0
C65 C 0.25603 0.14644 0.53395 0.0
N66 N 0.23043 0.12171 0.53513 0.0
N67 N 0.27379 0.14419 0.49757 0.0
C68 C 0.26193 0.17475 0.56652 0.0
C69 C 0.25792 0.11733 0.47674 0.0
N70 N 0.23153 0.10377 0.49946 0.0
C71 C 0.26794 0.10444 0.43397 0.0
H72 H 0.26301 0.20142 0.55153 0.0
H73 H 0.28736 0.16999 0.58186 0.0
H74 H 0.24151 0.17475 0.59087 0.0
H75 H 0.29586 0.10965 0.42774 0.0
H76 H 0.25217 0.1187 0.41029 0.0
H77 H 0.26263 0.07544 0.43085 0.0
C78 C 0.25642 0.85212 0.04485 0.0
N79 N 0.22995 0.87591 0.04453 0.0
N80 N 0.27409 0.85311 0.00835 0.0
C81 C 0.26544 0.82843 0.0811 0.0
C82 C 0.25735 0.87837 0.9858 0.0
N83 N 0.23075 0.89238 0.00794 0.0
C84 C 0.26503 0.88691 0.94086 0.0
H85 H 0.29356 0.82176 0.08098 0.0
H86 H 0.2504 0.80326 0.07878 0.0
H87 H 0.25857 0.84163 0.11098 0.0
H88 H 0.26976 0.86196 0.92305 0.0
H89 H 0.28899 0.90331 0.93929 0.0
H90 H 0.24366 0.90208 0.92588 0.0
C91 C 0.72471 0.14016 0.5432 0.0
N92 N 0.75013 0.11516 0.54445 0.0
N93 N 0.70662 0.13776 0.50706 0.0
C94 C 0.71967 0.16918 0.57514 0.0
C95 C 0.72207 0.11047 0.48647 0.0
N96 N 0.74853 0.09679 0.50909 0.0
C97 C 0.71197 0.09767 0.44371 0.0
H98 H 0.69306 0.16741 0.58823 0.0
H99 H 0.72221 0.19565 0.55992 0.0
H100 H 0.73848 0.16721 0.60121 0.0
H101 H 0.72811 0.11147 0.42006 0.0
H102 H 0.68418 0.1035 0.43728 0.0
H103 H 0.71675 0.06855 0.44078 0.0
Sc104 Sc 0.98774 0.83822 0.31165 0.0
Sc105 Sc 0.99018 0.9324 0.31389 0.0
Sc106 Sc 0.99213 0.88317 0.40761 0.0
O107 O 0.99003 0.88463 0.34434 0.0
C108 C 0.93907 0.81972 0.38823 0.0
C109 C 0.93609 0.88798 0.25937 0.0
C110 C 0.93967 0.94741 0.39132 0.0
C111 C 0.04004 0.88462 0.25669 0.0
C112 C 0.04168 0.81864 0.38408 0.0
C113 C 0.04364 0.94761 0.38761 0.0
O114 O 0.94714 0.81654 0.35001 0.0
O115 O 0.94819 0.91739 0.27278 0.0
O116 O 0.9511 0.9218 0.41343 0.0
O117 O 0.02811 0.85503 0.26977 0.0
O118 O 0.0332 0.84439 0.40779 0.0
O119 O 0.03206 0.9535 0.35114 0.0
O120 O 0.0269 0.81254 0.34933 0.0
O121 O 0.02871 0.91471 0.2693 0.0
O122 O 0.03121 0.92374 0.41129 0.0
O123 O 0.94815 0.85788 0.27047 0.0
O124 O 0.95375 0.8418 0.41257 0.0
O125 O 0.95177 0.95488 0.35542 0.0
Sc126 Sc -0.00698 0.15804 0.80772 0.0
Sc127 Sc -0.00512 0.06384 0.80892 0.0
Sc128 Sc -0.00204 0.11202 0.90329 0.0
O129 O -0.0047 0.1113 0.83995 0.0
C130 C 0.04643 0.17793 0.88013 0.0
C131 C 0.04517 0.11122 0.75239 0.0
C132 C 0.04941 0.04836 0.88221 0.0
C133 C 0.94149 0.10959 0.75432 0.0
C134 C 0.94323 0.17396 0.88505 0.0
C135 C 0.94591 0.04725 0.88625 0.0
O136 O 0.03319 0.183 0.84434 0.0
O137 O 0.03479 0.08119 0.76619 0.0
O138 O 0.03944 0.07409 0.90498 0.0
O139 O 0.95258 0.1396 0.76697 0.0
O140 O 0.95688 0.15061 0.90866 0.0
O141 O 0.95477 0.04251 0.84847 0.0
O142 O 0.9532 0.17948 0.84781 0.0
O143 O 0.95427 0.08012 0.76655 0.0
O144 O 0.95986 0.07037 0.90995 0.0
O145 O 0.03239 0.14089 0.7643 0.0
O146 O 0.03658 0.15322 0.90442 0.0
O147 O 0.03527 0.0408 0.84746 0.0
Sc148 Sc 0.49566 0.33989 0.31464 0.0
Sc149 Sc 0.49421 0.43402 0.31624 0.0
Sc150 Sc 0.49524 0.38518 0.41048 0.0
O151 O 0.49504 0.38638 0.34712 0.0
C152 C 0.44407 0.32092 0.38884 0.0
C153 C 0.44251 0.3877 0.26126 0.0
C154 C 0.44333 0.44958 0.39307 0.0
C155 C 0.5462 0.38771 0.26005 0.0
C156 C 0.54667 0.32118 0.39013 0.0
C157 C 0.54728 0.44936 0.39038 0.0
O158 O 0.45451 0.31699 0.3515 0.0
O159 O 0.45219 0.41762 0.27599 0.0
O160 O 0.45419 0.42375 0.41509 0.0
O161 O 0.53705 0.35775 0.27492 0.0
O162 O 0.53579 0.34593 0.41382 0.0
O163 O 0.53616 0.45512 0.3536 0.0
O164 O 0.53461 0.31574 0.3538 0.0
O165 O 0.53215 0.41714 0.27049 0.0
O166 O 0.53439 0.42579 0.41426 0.0
O167 O 0.45668 0.35829 0.27152 0.0
O168 O 0.45664 0.34402 0.41361 0.0
O169 O 0.45593 0.45707 0.3575 0.0
Sc170 Sc 0.49059 0.66164 0.80821 0.0
Sc171 Sc 0.49012 0.56756 0.81039 0.0
Sc172 Sc 0.49355 0.61603 0.90422 0.0
O173 O 0.49142 0.61511 0.84091 0.0
C174 C 0.5437 0.68094 0.88037 0.0
C175 C 0.54113 0.61275 0.75298 0.0
C176 C 0.54452 0.55208 0.88413 0.0
C177 C 0.43732 0.61438 0.75604 0.0
C178 C 0.44102 0.67939 0.88554 0.0
C179 C 0.44124 0.55139 0.88757 0.0
O180 O 0.5325 0.68471 0.84339 0.0
O181 O 0.53086 0.58325 0.76818 0.0
O182 O 0.5355 0.57849 0.90647 0.0
O183 O 0.44834 0.64428 0.76929 0.0
O184 O 0.45176 0.65391 0.9083 0.0
O185 O 0.44914 0.5473 0.84941 0.0
O186 O 0.45318 0.68591 0.84946 0.0
O187 O 0.45045 0.58477 0.76731 0.0
O188 O 0.4561 0.57383 0.91132 0.0
O189 O 0.5283 0.64273 0.76362 0.0
O190 O 0.53159 0.65795 0.90554 0.0
O191 O 0.52963 0.54429 0.84987 0.0
H192 H 0.22129 0.275 0.00545 0.0
H193 H 0.06058 0.2456 0.85258 0.0
H194 H 0.16315 0.36258 0.95342 0.0
H195 H 0.09377 0.16663 0.9422 0.0
H196 H 0.10337 0.28728 0.88134 0.0
H197 H 0.17927 0.23317 0.97549 0.0
C198 C 0.19932 0.28533 0.98815 0.0
C199 C 0.19518 0.32212 0.98226 0.0
C200 C 0.10124 0.26079 0.89458 0.0
C201 C 0.14784 0.2747 0.94685 0.0
C202 C 0.07705 0.23693 0.87803 0.0
C203 C 0.07355 0.20264 0.89513 0.0
C204 C 0.12236 0.25006 0.92798 0.0
C205 C 0.09542 0.19289 0.92826 0.0
C206 C 0.17557 0.26155 0.97081 0.0
C207 C 0.16701 0.33431 0.95851 0.0
N208 N 0.11897 0.21646 0.94354 0.0
N209 N 0.14438 0.3106 0.94144 0.0
H210 H 0.84001 0.66109 0.54176 0.0
H211 H 0.88882 0.7818 0.34697 0.0
H212 H 0.7696 0.67723 0.43912 0.0
H213 H 0.931 0.80088 0.46978 0.0
H214 H 0.84892 0.73789 0.377 0.0
H215 H 0.87849 0.70717 0.51271 0.0
C216 C 0.83276 0.67452 0.51319 0.0
C217 C 0.8019 0.66563 0.49262 0.0
C218 C 0.8668 0.75192 0.39731 0.0
C219 C 0.8455 0.71737 0.45898 0.0
C220 C 0.88956 0.77688 0.38023 0.0
C221 C 0.91318 0.79503 0.40594 0.0
C222 C 0.8682 0.74464 0.44019 0.0
C223 C 0.91304 0.78767 0.44886 0.0
C224 C 0.85457 0.70062 0.49662 0.0
C225 C 0.79356 0.68316 0.45537 0.0
N226 N 0.8911 0.76276 0.46461 0.0
N227 N 0.81536 0.70813 0.43953 0.0
H228 H 0.7581 0.30088 0.92078 0.0
H229 H 0.92881 0.18764 0.96697 0.0
H230 H 0.81844 0.31557 0.03259 0.0
H231 H 0.8937 0.21136 0.84213 0.0
H232 H 0.88304 0.22641 0.99463 0.0
H233 H 0.80249 0.2598 0.8943 0.0
C234 C 0.7809 0.29552 0.93955 0.0
C235 C 0.78513 0.31187 0.9785 0.0
C236 C 0.88542 0.22304 0.96121 0.0
C237 C 0.83528 0.26445 0.94918 0.0
C238 C 0.91135 0.20081 0.94539 0.0
C239 C 0.91507 0.19635 0.90216 0.0
C240 C 0.86275 0.24039 0.93363 0.0
C241 C 0.89187 0.21423 0.87564 0.0
C242 C 0.80605 0.27205 0.9246 0.0
C243 C 0.81446 0.30335 1.00239 0.0
N244 N 0.86656 0.23537 0.89183 0.0
N245 N 0.83854 0.2801 0.98735 0.0
H246 H 0.14787 0.62663 0.46053 0.0
H247 H 0.09215 0.83049 0.44247 0.0
H248 H 0.21353 0.71273 0.50181 0.0
H249 H 0.05167 0.74929 0.36008 0.0
H250 H 0.1333 0.78694 0.47055 0.0
H251 H 0.10808 0.67047 0.42925 0.0
C252 C 0.15377 0.6548 0.46291 0.0
C253 C 0.18368 0.66631 0.48382 0.0
C254 C 0.11555 0.77876 0.44612 0.0
C255 C 0.13858 0.7163 0.44895 0.0
C256 C 0.09205 0.80355 0.43014 0.0
C257 C 0.06847 0.79347 0.39891 0.0
C258 C 0.11506 0.74352 0.43128 0.0
C259 C 0.06954 0.75823 0.38398 0.0
C260 C 0.13121 0.67972 0.44519 0.0
C261 C 0.19027 0.70301 0.48664 0.0
N262 N 0.09225 0.73438 0.40061 0.0
N263 N 0.16779 0.72678 0.46956 0.0
H264 H 0.65871 0.8704 0.94745 0.0
H265 H 0.58806 0.67083 0.94577 0.0
H266 H 0.71312 0.7834 0.00614 0.0
H267 H 0.56043 0.74716 0.85053 0.0
H268 H 0.62986 0.71356 0.97397 0.0
H269 H 0.61759 0.82738 0.91703 0.0
C270 C 0.66173 0.84223 0.95401 0.0
C271 C 0.68886 0.83025 0.97956 0.0
C272 C 0.61478 0.72084 0.94675 0.0
C273 C 0.64237 0.78126 0.94548 0.0
C274 C 0.5909 0.69653 0.93069 0.0
C275 C 0.57077 0.70549 0.89575 0.0
C276 C 0.61814 0.75455 0.92818 0.0
C277 C 0.57559 0.73911 0.87736 0.0
C278 C 0.63849 0.81777 0.93669 0.0
C279 C 0.69198 0.79361 0.98736 0.0
N280 N 0.59861 0.76261 0.89404 0.0
N281 N 0.6689 0.77036 0.97052 0.0
H282 H 0.26796 0.18118 0.42589 0.0
H283 H 0.43186 0.30368 0.47008 0.0
H284 H 0.3344 0.16524 0.53237 0.0
H285 H 0.39644 0.28151 0.34493 0.0
H286 H 0.39007 0.2603 0.49673 0.0
H287 H 0.30941 0.22484 0.39836 0.0
C288 C 0.29153 0.18669 0.44317 0.0
C289 C 0.29816 0.16951 0.48114 0.0
C290 C 0.39147 0.26501 0.46346 0.0
C291 C 0.34481 0.21996 0.4508 0.0
C292 C 0.41508 0.28992 0.44822 0.0
C293 C 0.41759 0.29618 0.40519 0.0
C294 C 0.36984 0.24669 0.43557 0.0
C295 C 0.39542 0.27736 0.3783 0.0
C296 C 0.31496 0.21166 0.42766 0.0
C297 C 0.3284 0.17824 0.50316 0.0
N298 N 0.37228 0.25352 0.39398 0.0
N299 N 0.35064 0.20308 0.48775 0.0
H300 H 0.33552 0.86855 0.97196 0.0
H301 H 0.3939 0.66596 0.9474 0.0
H302 H 0.27004 0.78124 0.00985 0.0
H303 H 0.42912 0.74885 0.86409 0.0
H304 H 0.35345 0.70857 0.97914 0.0
H305 H 0.37624 0.82557 0.94085 0.0
C306 C 0.32994 0.84029 0.97384 0.0
C307 C 0.29964 0.82823 0.99343 0.0
C308 C 0.36996 0.71728 0.95376 0.0
C309 C 0.3458 0.7792 0.95872 0.0
C310 C 0.39301 0.69306 0.93569 0.0
C311 C 0.41479 0.70391 0.90301 0.0
C312 C 0.36923 0.75268 0.93958 0.0
C313 C 0.41258 0.73932 0.88899 0.0
C314 C 0.35301 0.81587 0.95617 0.0
C315 C 0.29352 0.79141 0.99566 0.0
N316 N 0.39039 0.76257 0.90763 0.0
N317 N 0.31647 0.76809 0.97855 0.0
H318 H 0.64604 0.16051 0.54055 0.0
H319 H 0.59263 0.27958 0.34655 0.0
H320 H 0.71437 0.17461 0.43552 0.0
H321 H 0.55895 0.30467 0.47159 0.0
H322 H 0.63229 0.23456 0.3752 0.0
H323 H 0.60781 0.20728 0.51239 0.0
C324 C 0.6529 0.17355 0.51162 0.0
C325 C 0.68315 0.16385 0.49016 0.0
C326 C 0.61633 0.25015 0.39626 0.0
C327 C 0.63967 0.21637 0.45751 0.0
C328 C 0.59372 0.27573 0.37999 0.0
C329 C 0.5726 0.29591 0.40678 0.0
C330 C 0.61715 0.24422 0.43944 0.0
C331 C 0.57501 0.28989 0.44988 0.0
C332 C 0.63119 0.20004 0.49556 0.0
C333 C 0.69084 0.18097 0.45244 0.0
N334 N 0.59664 0.26429 0.46488 0.0
N335 N 0.66911 0.20631 0.4371 0.0
H336 H 0.33399 0.38023 0.01089 0.0
H337 H 0.38059 0.52974 0.8515 0.0
H338 H 0.25281 0.44823 0.96319 0.0
H339 H 0.44103 0.52059 0.96431 0.0
H340 H 0.33627 0.49057 0.88239 0.0
H341 H 0.37747 0.42305 0.98555 0.0
C342 C 0.32537 0.40445 0.99573 0.0
C343 C 0.28988 0.41113 0.98951 0.0
C344 C 0.35925 0.49733 0.90025 0.0
C345 C 0.3391 0.45878 0.95879 0.0
C346 C 0.38448 0.5194 0.88269 0.0
C347 C 0.41426 0.52834 0.90558 0.0
C348 C 0.36454 0.48335 0.9403 0.0
C349 C 0.4182 0.51443 0.9459 0.0
C350 C 0.35008 0.4286 0.98104 0.0
C351 C 0.28001 0.44226 0.96834 0.0
N352 N 0.39378 0.49214 0.96188 0.0
N353 N 0.30453 0.46479 0.95315 0.0
H354 H 0.71973 0.53188 0.53514 0.0
H355 H 0.57538 0.51034 0.357 0.0
H356 H 0.69381 0.61491 0.44797 0.0
H357 H 0.58549 0.43792 0.46105 0.0
H358 H 0.62236 0.54651 0.38613 0.0
H359 H 0.67353 0.49445 0.50522 0.0
C360 C 0.704 0.54212 0.50986 0.0
C361 C 0.71004 0.57624 0.49392 0.0
C362 C 0.61424 0.52268 0.40254 0.0
C363 C 0.65803 0.534 0.45914 0.0
C364 C 0.58752 0.50196 0.38585 0.0
C365 C 0.57633 0.47112 0.40667 0.0
C366 C 0.63007 0.51235 0.44012 0.0
C367 C 0.59305 0.4616 0.44402 0.0
C368 C 0.67786 0.52089 0.49266 0.0
C369 C 0.68969 0.58851 0.46072 0.0
N370 N 0.61908 0.48212 0.45951 0.0
N371 N 0.66456 0.56737 0.44429 0.0
H372 H 0.68062 0.37281 0.92535 0.0
H373 H 0.58383 0.55995 0.95503 0.0
H374 H 0.70336 0.44444 0.02669 0.0
H375 H 0.56932 0.49049 0.8488 0.0
H376 H 0.62772 0.51886 0.98196 0.0
H377 H 0.63946 0.41618 0.8972 0.0
C378 C 0.67697 0.398 0.94136 0.0
C379 C 0.69539 0.40551 0.97793 0.0
C380 C 0.61501 0.51274 0.95269 0.0
C381 C 0.64816 0.45509 0.94655 0.0
C382 C 0.58993 0.53617 0.93722 0.0
C383 C 0.57265 0.52861 0.89962 0.0
C384 C 0.62281 0.48146 0.93049 0.0
C385 C 0.58181 0.49744 0.87794 0.0
C386 C 0.65346 0.42267 0.92549 0.0
C387 C 0.68949 0.438 0.99832 0.0
N388 N 0.60613 0.47498 0.8938 0.0
N389 N 0.66625 0.46174 0.98233 0.0
H390 H 0.30563 0.62475 0.45549 0.0
H391 H 0.3998 0.43463 0.45822 0.0
H392 H 0.26321 0.53324 0.51816 0.0
H393 H 0.42239 0.51583 0.36667 0.0
H394 H 0.35377 0.47249 0.48647 0.0
H395 H 0.35323 0.58738 0.42855 0.0
C396 C 0.30673 0.59673 0.46364 0.0
C397 C 0.28104 0.58172 0.48896 0.0
C398 C 0.36877 0.48196 0.46016 0.0
C399 C 0.33472 0.53905 0.45877 0.0
C400 C 0.39512 0.46043 0.44405 0.0
C401 C 0.415 0.47206 0.40996 0.0
C402 C 0.36246 0.51555 0.44239 0.0
C403 C 0.40763 0.5057 0.39283 0.0
C404 C 0.3336 0.57545 0.44829 0.0
C405 C 0.28299 0.54548 0.49895 0.0
N406 N 0.38204 0.52634 0.40936 0.0
N407 N 0.30949 0.52526 0.48386 0.0
H408 H 0.82892 0.88272 0.01063 0.0
H409 H 0.88611 0.026 0.84811 0.0
H410 H 0.75234 0.95331 0.95744 0.0
H411 H 0.94299 0.01759 0.96363 0.0
H412 H 0.8398 0.98893 0.87824 0.0
H413 H 0.87504 0.92255 0.98531 0.0
C414 C 0.82186 0.90689 0.99425 0.0
C415 C 0.78689 0.91521 0.98654 0.0
C416 C 0.86248 0.99532 0.89683 0.0
C417 C 0.83912 0.95937 0.95585 0.0
C418 C 0.88885 0.01617 0.8797 0.0
C419 C 0.91817 0.02478 0.9036 0.0
C420 C 0.86613 0.98221 0.93753 0.0
C421 C 0.92057 0.01162 0.94443 0.0
C422 C 0.84807 0.92932 0.97958 0.0
C423 C 0.77908 0.94614 0.96382 0.0
N424 N 0.89499 0.99053 0.96005 0.0
N425 N 0.80504 0.96695 0.94871 0.0
H426 H 0.18799 0.11924 0.43674 0.0
H427 H 0.08204 0.93695 0.45836 0.0
H428 H 0.21366 0.03803 0.52634 0.0
H429 H 0.07079 0.00891 0.35403 0.0
H430 H 0.12802 0.97492 0.48608 0.0
H431 H 0.14233 0.08062 0.40835 0.0
C432 C 0.1838 0.09313 0.45029 0.0
C433 C 0.20422 0.08149 0.48371 0.0
C434 C 0.11557 0.98233 0.45706 0.0
C435 C 0.15233 0.0374 0.45199 0.0
C436 C 0.08923 0.96072 0.44121 0.0
C437 C 0.0724 0.9698 0.40381 0.0
C438 C 0.12503 0.01342 0.43558 0.0
C439 C 0.08303 0.00081 0.38291 0.0
C440 C 0.15788 0.07115 0.43422 0.0
C441 C 0.19797 0.04781 0.5008 0.0
N442 N 0.10857 0.0216 0.3992 0.0
N443 N 0.17247 0.02682 0.48474 0.0
H444 H 0.22709 0.96363 0.01532 0.0
H445 H 0.06614 0.97997 0.85887 0.0
H446 H 0.17521 0.87237 0.96308 0.0
H447 H 0.09705 0.06477 0.94231 0.0
H448 H 0.11062 0.94151 0.89006 0.0
H449 H 0.18329 0.0028 0.98316 0.0
C450 C 0.20608 0.95207 0.99736 0.0
C451 C 0.20402 0.91516 0.99194 0.0
C452 C 0.10762 0.96857 0.90142 0.0
C453 C 0.1548 0.95906 0.95443 0.0
C454 C 0.08246 0.9906 0.88345 0.0
C455 C 0.07778 0.02556 0.89815 0.0
C456 C 0.12848 0.9818 0.93389 0.0
C457 C 0.09956 0.03789 0.93022 0.0
C458 C 0.18129 0.97419 0.97893 0.0
C459 C 0.17702 0.90089 0.96798 0.0
N460 N 0.12397 0.01605 0.94699 0.0
N461 N 0.15341 0.92293 0.94982 0.0
H462 H 0.76621 0.0306 0.53474 0.0
H463 H 0.91317 0.00975 0.3597 0.0
H464 H 0.79248 0.11308 0.4471 0.0
H465 H 0.90088 0.93558 0.46169 0.0
H466 H 0.86637 0.04605 0.38871 0.0
H467 H 0.81337 0.9934 0.50638 0.0
C468 C 0.78219 0.04077 0.50967 0.0
C469 C 0.7759 0.07465 0.49308 0.0
C470 C 0.87396 0.02185 0.40477 0.0
C471 C 0.82907 0.03267 0.46015 0.0
C472 C 0.90064 0.00103 0.38815 0.0
C473 C 0.91109 0.96955 0.4083 0.0
C474 C 0.8574 0.01106 0.44167 0.0
C475 C 0.89384 0.95969 0.44514 0.0
C476 C 0.80889 0.01966 0.49338 0.0
C477 C 0.79667 0.08684 0.46027 0.0
N478 N 0.8678 0.98034 0.4606 0.0
N479 N 0.82234 0.06583 0.44475 0.0
H480 H 0.29761 0.31738 0.07384 0.0
H481 H 0.40573 0.44399 0.22754 0.0
H482 H 0.28085 0.43085 0.08014 0.0
H483 H 0.41402 0.32899 0.22397 0.0
H484 H 0.35998 0.44083 0.17443 0.0
H485 H 0.34037 0.32201 0.1297 0.0
C486 C 0.30275 0.34324 0.08761 0.0
C487 C 0.28554 0.37369 0.07309 0.0
C488 C 0.37181 0.41635 0.18546 0.0
C489 C 0.33497 0.3796 0.13641 0.0
C490 C 0.39793 0.4181 0.21577 0.0
C491 C 0.41395 0.38671 0.23022 0.0
C492 C 0.36172 0.383 0.1695 0.0
C493 C 0.40266 0.35395 0.21381 0.0
C494 C 0.3273 0.346 0.11925 0.0
C495 C 0.29366 0.40683 0.09088 0.0
N496 N 0.3774 0.35302 0.18435 0.0
N497 N 0.31793 0.40898 0.12172 0.0
H498 H 0.68385 0.66657 0.55398 0.0
H499 H 0.58328 0.55672 0.73058 0.0
H500 H 0.71966 0.56552 0.6009 0.0
H501 H 0.56302 0.6677 0.7032 0.0
H502 H 0.62968 0.55693 0.67852 0.0
H503 H 0.63543 0.66507 0.60387 0.0
C504 C 0.68121 0.64405 0.57488 0.0
C505 C 0.70534 0.61611 0.57374 0.0
C506 C 0.61505 0.58121 0.68397 0.0
C507 C 0.65049 0.6139 0.6304 0.0
C508 C 0.58849 0.58111 0.71361 0.0
C509 C 0.56922 0.61228 0.72141 0.0
C510 C 0.62222 0.61259 0.66169 0.0
C511 C 0.57726 0.64309 0.69845 0.0
C512 C 0.65378 0.64313 0.60325 0.0
C513 C 0.70116 0.5873 0.60093 0.0
N514 N 0.60308 0.64243 0.66961 0.0
N515 N 0.6742 0.58688 0.62829 0.0
H516 H 0.64726 0.36908 0.02339 0.0
H517 H 0.60647 0.34961 0.25958 0.0
H518 H 0.73173 0.37183 0.11163 0.0
H519 H 0.54727 0.42537 0.18737 0.0
H520 H 0.64977 0.34695 0.20334 0.0
H521 H 0.60622 0.38011 0.08065 0.0
C522 C 0.65718 0.37254 0.0547 0.0
C523 C 0.69291 0.36997 0.0629 0.0
C524 C 0.62741 0.36434 0.2001 0.0
C525 C 0.64626 0.38079 0.12826 0.0
C526 C 0.60277 0.36579 0.23194 0.0
C527 C 0.57352 0.38787 0.22796 0.0
C528 C 0.62202 0.38413 0.16359 0.0
C529 C 0.56973 0.40829 0.19161 0.0
C530 C 0.63381 0.37858 0.08725 0.0
C531 C 0.70432 0.37339 0.10425 0.0
N532 N 0.59347 0.4055 0.16036 0.0
N533 N 0.68102 0.37814 0.13558 0.0
H534 H 0.29147 0.67327 0.56313 0.0
H535 H 0.40112 0.55674 0.72556 0.0
H536 H 0.26977 0.56262 0.58752 0.0
H537 H 0.408 0.67156 0.71609 0.0
H538 H 0.35506 0.55726 0.67298 0.0
H539 H 0.33665 0.67224 0.61694 0.0
C540 C 0.29633 0.64881 0.58013 0.0
C541 C 0.27713 0.61802 0.57133 0.0
C542 C 0.36662 0.58231 0.68256 0.0
C543 C 0.32872 0.61628 0.63237 0.0
C544 C 0.39295 0.58206 0.71254 0.0
C545 C 0.40858 0.61416 0.72529 0.0
C546 C 0.35599 0.61485 0.66497 0.0
C547 C 0.39678 0.64614 0.70735 0.0
C548 C 0.32205 0.64813 0.61068 0.0
C549 C 0.28444 0.58672 0.59342 0.0
N550 N 0.37133 0.64563 0.67803 0.0
N551 N 0.30976 0.58658 0.62304 0.0
H552 H 0.78754 0.8235 0.07387 0.0
H553 H 0.90364 0.94602 0.22331 0.0
H554 H 0.77762 0.93792 0.07648 0.0
H555 H 0.90256 0.83069 0.22541 0.0
H556 H 0.85759 0.94486 0.17042 0.0
H557 H 0.82986 0.82664 0.13025 0.0
C558 C 0.79404 0.84928 0.08699 0.0
C559 C 0.77887 0.88043 0.07128 0.0
C560 C 0.86742 0.91989 0.18268 0.0
C561 C 0.82795 0.8846 0.13513 0.0
C562 C 0.89369 0.92049 0.21286 0.0
C563 C 0.90722 0.88839 0.22875 0.0
C564 C 0.85469 0.88697 0.16831 0.0
C565 C 0.89322 0.85615 0.21405 0.0
C566 C 0.81836 0.85118 0.11892 0.0
C567 C 0.7888 0.91338 0.08819 0.0
N568 N 0.86791 0.85632 0.18466 0.0
N569 N 0.81289 0.91468 0.11931 0.0
H570 H 0.17768 0.16799 0.54483 0.0
H571 H 0.08856 0.05657 0.72854 0.0
H572 H 0.22132 0.07079 0.59322 0.0
H573 H 0.06474 0.16708 0.70276 0.0
H574 H 0.13342 0.05827 0.67449 0.0
H575 H 0.13163 0.16513 0.59784 0.0
C576 C 0.17723 0.14601 0.56672 0.0
C577 C 0.20287 0.11956 0.56513 0.0
C578 C 0.11838 0.08212 0.68079 0.0
C579 C 0.15081 0.11582 0.62532 0.0
C580 C 0.09272 0.08118 0.71156 0.0
C581 C 0.07285 0.11176 0.72031 0.0
C582 C 0.12394 0.11373 0.65828 0.0
C583 C 0.07949 0.1429 0.69731 0.0
C584 C 0.15121 0.14435 0.59689 0.0
C585 C 0.20163 0.09143 0.59369 0.0
N586 N 0.10435 0.14303 0.66727 0.0
N587 N 0.17593 0.09021 0.62274 0.0
H588 H 0.20901 0.93482 0.08631 0.0
H589 H 0.06708 0.82614 0.21711 0.0
H590 H 0.18807 0.82285 0.07017 0.0
H591 H 0.07713 0.94087 0.22393 0.0
H592 H 0.11289 0.82468 0.16497 0.0
H593 H 0.16182 0.93818 0.13794 0.0
C594 C 0.19425 0.91106 0.09363 0.0
C595 C 0.20228 0.8785 0.07447 0.0
C596 C 0.10509 0.85022 0.17777 0.0
C597 C 0.14892 0.88179 0.1333 0.0
C598 C 0.07891 0.85109 0.20772 0.0
C599 C 0.06811 0.8837 0.22506 0.0
C600 C 0.12087 0.88215 0.16499 0.0
C601 C 0.08452 0.91511 0.21142 0.0
C602 C 0.16752 0.91287 0.12308 0.0
C603 C 0.18286 0.84826 0.08497 0.0
N604 N 0.11013 0.91354 0.18223 0.0
N605 N 0.15713 0.85059 0.11377 0.0
H606 H 0.80122 0.16338 0.55327 0.0
H607 H 0.90055 0.05305 0.73036 0.0
H608 H 0.76282 0.06377 0.60115 0.0
H609 H 0.91763 0.16524 0.70721 0.0
H610 H 0.85412 0.05346 0.67807 0.0
H611 H 0.84876 0.16158 0.60438 0.0
C612 C 0.8031 0.14112 0.57467 0.0
C613 C 0.77848 0.11371 0.57349 0.0
C614 C 0.86805 0.07795 0.68457 0.0
C615 C 0.83235 0.11111 0.63148 0.0
C616 C 0.8946 0.07774 0.71431 0.0
C617 C 0.91301 0.10918 0.72327 0.0
C618 C 0.86018 0.10969 0.66332 0.0
C619 C 0.90407 0.1404 0.70155 0.0
C620 C 0.83 0.14004 0.60375 0.0
C621 C 0.78168 0.08518 0.60131 0.0
N622 N 0.87842 0.13982 0.6725 0.0
N623 N 0.80822 0.08453 0.6293 0.0
loop_
_geom_bond_atom_site_label_1
_geom_bond_atom_site_label_2
_geom_bond_distance
_geom_bond_site_symmetry_2
_ccdc_geom_bond_type
C0 N1 1.317 . S
C0 N2 1.348 1_554 S
C0 C3 1.485 . S
N1 C0 1.317 . S
N1 N5 1.370 1_554 S
N2 C0 1.348 1_556 S
N2 C4 1.346 . S
C3 C0 1.485 . S
C3 H7 0.960 . S
C3 H8 0.961 . S
C3 H9 0.960 . S
C4 N2 1.346 . S
C4 N5 1.307 . S
C4 C6 1.486 . S
N5 N1 1.370 1_556 S
N5 C4 1.307 . S
C6 C4 1.486 . S
C6 H10 0.960 . S
C6 H11 0.960 . S
C6 H12 0.959 . S
H7 C3 0.960 . S
H8 C3 0.961 . S
H9 C3 0.960 . S
H10 C6 0.960 . S
H11 C6 0.960 . S
H12 C6 0.959 . S
C13 N14 1.317 . S
C13 N15 1.348 . S
C13 C16 1.485 . S
N14 C13 1.317 . S
N14 N18 1.370 . S
N15 C13 1.348 . S
N15 C17 1.346 . S
C16 C13 1.485 . S
C16 H20 0.960 . S
C16 H21 0.961 . S
C16 H22 0.960 . S
C17 N15 1.346 . S
C17 N18 1.307 . S
C17 C19 1.486 . S
N18 N14 1.370 . S
N18 C17 1.307 . S
C19 C17 1.486 . S
C19 H23 0.960 . S
C19 H24 0.960 . S
C19 H25 0.959 . S
H20 C16 0.960 . S
H21 C16 0.961 . S
H22 C16 0.960 . S
H23 C19 0.960 . S
H24 C19 0.960 . S
H25 C19 0.959 . S
C26 N27 1.317 . S
C26 N28 1.348 1_554 S
C26 C29 1.485 . S
N27 C26 1.317 . S
N27 N31 1.370 1_554 S
N28 C26 1.348 1_556 S
N28 C30 1.346 . S
C29 C26 1.485 . S
C29 H33 0.960 . S
C29 H34 0.961 . S
C29 H35 0.960 . S
C30 N28 1.346 . S
C30 N31 1.307 . S
C30 C32 1.486 . S
N31 N27 1.370 1_556 S
N31 C30 1.307 . S
C32 C30 1.486 . S
C32 H36 0.960 . S
C32 H37 0.960 . S
C32 H38 0.959 . S
H33 C29 0.960 . S
H34 C29 0.961 . S
H35 C29 0.960 . S
H36 C32 0.960 . S
H37 C32 0.960 . S
H38 C32 0.959 . S
C39 N40 1.317 . S
C39 N41 1.348 . S
C39 C42 1.485 . S
N40 C39 1.317 . S
N40 N44 1.370 . S
N41 C39 1.348 . S
N41 C43 1.346 . S
C42 C39 1.485 . S
C42 H46 0.960 . S
C42 H47 0.961 . S
C42 H48 0.960 . S
C43 N41 1.346 . S
C43 N44 1.307 . S
C43 C45 1.486 . S
N44 N40 1.370 . S
N44 C43 1.307 . S
C45 C43 1.486 . S
C45 H49 0.960 . S
C45 H50 0.960 . S
C45 H51 0.959 . S
H46 C42 0.960 . S
H47 C42 0.961 . S
H48 C42 0.960 . S
H49 C45 0.960 . S
H50 C45 0.960 . S
H51 C45 0.959 . S
C52 N53 1.317 . S
C52 N54 1.348 1_554 S
C52 C55 1.485 . S
N53 C52 1.317 . S
N53 N57 1.370 1_554 S
N54 C52 1.348 1_556 S
N54 C56 1.346 . S
C55 C52 1.485 . S
C55 H59 0.960 . S
C55 H60 0.961 . S
C55 H61 0.960 . S
C56 N54 1.346 . S
C56 N57 1.307 . S
C56 C58 1.486 . S
N57 N53 1.370 1_556 S
N57 C56 1.307 . S
C58 C56 1.486 . S
C58 H62 0.960 . S
C58 H63 0.960 . S
C58 H64 0.959 . S
H59 C55 0.960 . S
H60 C55 0.961 . S
H61 C55 0.960 . S
H62 C58 0.960 . S
H63 C58 0.960 . S
H64 C58 0.959 . S
C65 N66 1.317 . S
C65 N67 1.348 . S
C65 C68 1.485 . S
N66 C65 1.317 . S
N66 N70 1.370 . S
N67 C65 1.348 . S
N67 C69 1.346 . S
C68 C65 1.485 . S
C68 H72 0.960 . S
C68 H73 0.961 . S
C68 H74 0.960 . S
C69 N67 1.346 . S
C69 N70 1.307 . S
C69 C71 1.486 . S
N70 N66 1.370 . S
N70 C69 1.307 . S
C71 C69 1.486 . S
C71 H75 0.960 . S
C71 H76 0.960 . S
C71 H77 0.959 . S
H72 C68 0.960 . S
H73 C68 0.961 . S
H74 C68 0.960 . S
H75 C71 0.960 . S
H76 C71 0.960 . S
H77 C71 0.959 . S
C78 N79 1.317 . S
C78 N80 1.348 1_554 S
C78 C81 1.485 . S
N79 C78 1.317 . S
N79 N83 1.370 1_554 S
N80 C78 1.348 1_556 S
N80 C82 1.346 . S
C81 C78 1.485 . S
C81 H85 0.960 . S
C81 H86 0.961 . S
C81 H87 0.960 . S
C82 N80 1.346 . S
C82 N83 1.307 . S
C82 C84 1.486 . S
N83 N79 1.370 1_556 S
N83 C82 1.307 . S
C84 C82 1.486 . S
C84 H88 0.960 . S
C84 H89 0.960 . S
C84 H90 0.959 . S
H85 C81 0.960 . S
H86 C81 0.961 . S
H87 C81 0.960 . S
H88 C84 0.960 . S
H89 C84 0.960 . S
H90 C84 0.959 . S
C91 N92 1.317 . S
C91 N93 1.348 . S
C91 C94 1.485 . S
N92 C91 1.317 . S
N92 N96 1.370 . S
N93 C91 1.348 . S
N93 C95 1.346 . S
C94 C91 1.485 . S
C94 H98 0.960 . S
C94 H99 0.961 . S
C94 H100 0.960 . S
C95 N93 1.346 . S
C95 N96 1.307 . S
C95 C97 1.486 . S
N96 N92 1.370 . S
N96 C95 1.307 . S
C97 C95 1.486 . S
C97 H101 0.960 . S
C97 H102 0.960 . S
C97 H103 0.959 . S
H98 C94 0.960 . S
H99 C94 0.961 . S
H100 C94 0.960 . S
H101 C97 0.960 . S
H102 C97 0.960 . S
H103 C97 0.959 . S
Sc104 O107 2.025 . S
Sc104 O114 2.105 1_455 S
Sc104 O117 2.105 . S
Sc104 O120 2.105 . S
Sc104 O123 2.105 1_455 S
Sc105 O107 2.025 . S
Sc105 O115 2.105 1_455 S
Sc105 O119 2.105 . S
Sc105 O121 2.105 . S
Sc105 O125 2.105 1_455 S
Sc106 O107 2.025 . S
Sc106 O116 2.105 1_455 S
Sc106 O118 2.105 . S
Sc106 O122 2.105 . S
Sc106 O124 2.105 1_455 S
O107 Sc104 2.025 . S
O107 Sc105 2.025 . S
O107 Sc106 2.025 . S
C108 O114 1.268 . S
C108 O124 1.268 . S
C109 O115 1.268 . S
C109 O123 1.268 . S
C110 O116 1.268 . S
C110 O125 1.268 . S
C111 O117 1.268 . S
C111 O121 1.268 . S
C112 O118 1.268 . S
C112 O120 1.268 . S
C113 O119 1.268 . S
C113 O122 1.268 . S
O114 Sc104 2.105 1_655 S
O114 C108 1.268 . S
O115 Sc105 2.105 1_655 S
O115 C109 1.268 . S
O116 Sc106 2.105 1_655 S
O116 C110 1.268 . S
O117 Sc104 2.105 . S
O117 C111 1.268 . S
O118 Sc106 2.105 . S
O118 C112 1.268 . S
O119 Sc105 2.105 . S
O119 C113 1.268 . S
O120 Sc104 2.105 . S
O120 C112 1.268 . S
O121 Sc105 2.105 . S
O121 C111 1.268 . S
O122 Sc106 2.105 . S
O122 C113 1.268 . S
O123 Sc104 2.105 1_655 S
O123 C109 1.268 . S
O124 Sc106 2.105 1_655 S
O124 C108 1.268 . S
O125 Sc105 2.105 1_655 S
O125 C110 1.268 . S
Sc126 O129 2.025 . S
Sc126 O136 2.105 . S
Sc126 O139 2.105 1_455 S
Sc126 O142 2.105 1_455 S
Sc126 O145 2.105 . S
Sc127 O129 2.025 . S
Sc127 O137 2.105 . S
Sc127 O141 2.105 1_455 S
Sc127 O143 2.105 1_455 S
Sc127 O147 2.105 . S
Sc128 O129 2.025 . S
Sc128 O138 2.105 . S
Sc128 O140 2.105 1_455 S
Sc128 O144 2.105 1_455 S
Sc128 O146 2.105 . S
O129 Sc126 2.025 . S
O129 Sc127 2.025 . S
O129 Sc128 2.025 . S
C130 O136 1.268 . S
C130 O146 1.268 . S
C131 O137 1.268 . S
C131 O145 1.268 . S
C132 O138 1.268 . S
C132 O147 1.268 . S
C133 O139 1.268 . S
C133 O143 1.268 . S
C134 O140 1.268 . S
C134 O142 1.268 . S
C135 O141 1.268 . S
C135 O144 1.268 . S
O136 Sc126 2.105 . S
O136 C130 1.268 . S
O137 Sc127 2.105 . S
O137 C131 1.268 . S
O138 Sc128 2.105 . S
O138 C132 1.268 . S
O139 Sc126 2.105 1_655 S
O139 C133 1.268 . S
O140 Sc128 2.105 1_655 S
O140 C134 1.268 . S
O141 Sc127 2.105 1_655 S
O141 C135 1.268 . S
O142 Sc126 2.105 1_655 S
O142 C134 1.268 . S
O143 Sc127 2.105 1_655 S
O143 C133 1.268 . S
O144 Sc128 2.105 1_655 S
O144 C135 1.268 . S
O145 Sc126 2.105 . S
O145 C131 1.268 . S
O146 Sc128 2.105 . S
O146 C130 1.268 . S
O147 Sc127 2.105 . S
O147 C132 1.268 . S
Sc148 O151 2.025 . S
Sc148 O158 2.105 . S
Sc148 O161 2.105 . S
Sc148 O164 2.105 . S
Sc148 O167 2.105 . S
Sc149 O151 2.025 . S
Sc149 O159 2.105 . S
Sc149 O163 2.105 . S
Sc149 O165 2.105 . S
Sc149 O169 2.105 . S
Sc150 O151 2.025 . S
Sc150 O160 2.105 . S
Sc150 O162 2.105 . S
Sc150 O166 2.105 . S
Sc150 O168 2.105 . S
O151 Sc148 2.025 . S
O151 Sc149 2.025 . S
O151 Sc150 2.025 . S
C152 O158 1.268 . S
C152 O168 1.268 . S
C153 O159 1.268 . S
C153 O167 1.268 . S
C154 O160 1.268 . S
C154 O169 1.268 . S
C155 O161 1.268 . S
C155 O165 1.268 . S
C156 O162 1.268 . S
C156 O164 1.268 . S
C157 O163 1.268 . S
C157 O166 1.268 . S
O158 Sc148 2.105 . S
O158 C152 1.268 . S
O159 Sc149 2.105 . S
O159 C153 1.268 . S
O160 Sc150 2.105 . S
O160 C154 1.268 . S
O161 Sc148 2.105 . S
O161 C155 1.268 . S
O162 Sc150 2.105 . S
O162 C156 1.268 . S
O163 Sc149 2.105 . S
O163 C157 1.268 . S
O164 Sc148 2.105 . S
O164 C156 1.268 . S
O165 Sc149 2.105 . S
O165 C155 1.268 . S
O166 Sc150 2.105 . S
O166 C157 1.268 . S
O167 Sc148 2.105 . S
O167 C153 1.268 . S
O168 Sc150 2.105 . S
O168 C152 1.268 . S
O169 Sc149 2.105 . S
O169 C154 1.268 . S
Sc170 O173 2.025 . S
Sc170 O180 2.105 . S
Sc170 O183 2.105 . S
Sc170 O186 2.105 . S
Sc170 O189 2.105 . S
Sc171 O173 2.025 . S
Sc171 O181 2.105 . S
Sc171 O185 2.105 . S
Sc171 O187 2.105 . S
Sc171 O191 2.105 . S
Sc172 O173 2.025 . S
Sc172 O182 2.105 . S
Sc172 O184 2.105 . S
Sc172 O188 2.105 . S
Sc172 O190 2.105 . S
O173 Sc170 2.025 . S
O173 Sc171 2.025 . S
O173 Sc172 2.025 . S
C174 O180 1.268 . S
C174 O190 1.268 . S
C175 O181 1.268 . S
C175 O189 1.268 . S
C176 O182 1.268 . S
C176 O191 1.268 . S
C177 O183 1.268 . S
C177 O187 1.268 . S
C178 O184 1.268 . S
C178 O186 1.268 . S
C179 O185 1.268 . S
C179 O188 1.268 . S
O180 Sc170 2.105 . S
O180 C174 1.268 . S
O181 Sc171 2.105 . S
O181 C175 1.268 . S
O182 Sc172 2.105 . S
O182 C176 1.268 . S
O183 Sc170 2.105 . S
O183 C177 1.268 . S
O184 Sc172 2.105 . S
O184 C178 1.268 . S
O185 Sc171 2.105 . S
O185 C179 1.268 . S
O186 Sc170 2.105 . S
O186 C178 1.268 . S
O187 Sc171 2.105 . S
O187 C177 1.268 . S
O188 Sc172 2.105 . S
O188 C179 1.268 . S
O189 Sc170 2.105 . S
O189 C175 1.268 . S
O190 Sc172 2.105 . S
O190 C174 1.268 . S
O191 Sc171 2.105 . S
O191 C176 1.268 . S
H192 C198 0.930 . S
H193 C202 0.930 . S
H194 C207 0.929 . S
H195 C205 0.929 . S
H196 C200 0.929 . S
H197 C206 0.929 . S
C198 H192 0.930 . S
C198 C199 1.367 . S
C198 C206 1.378 . S
C199 C198 1.367 . S
C199 C207 1.433 . S
C200 H196 0.929 . S
C200 C202 1.378 . S
C200 C204 1.350 . S
C201 C204 1.463 . S
C201 C206 1.350 . S
C201 N209 1.427 . S
C202 H193 0.930 . S
C202 C200 1.378 . S
C202 C203 1.367 . S
C203 C202 1.367 . S
C203 C205 1.433 . S
C204 C200 1.350 . S
C204 C201 1.463 . S
C204 N208 1.427 . S
C205 H195 0.929 . S
C205 C203 1.433 . S
C205 N208 1.384 . S
C206 H197 0.929 . S
C206 C198 1.378 . S
C206 C201 1.350 . S
C207 H194 0.929 . S
C207 C199 1.433 . S
C207 N209 1.384 . S
N208 C204 1.427 . S
N208 C205 1.384 . S
N209 C201 1.427 . S
N209 C207 1.384 . S
H210 C216 0.930 . S
H211 C220 0.930 . S
H212 C225 0.929 . S
H213 C223 0.929 . S
H214 C218 0.929 . S
H215 C224 0.929 . S
C216 H210 0.930 . S
C216 C217 1.367 . S
C216 C224 1.378 . S
C217 C216 1.367 . S
C217 C225 1.433 . S
C218 H214 0.929 . S
C218 C220 1.378 . S
C218 C222 1.350 . S
C219 C222 1.463 . S
C219 C224 1.350 . S
C219 N227 1.427 . S
C220 H211 0.930 . S
C220 C218 1.378 . S
C220 C221 1.367 . S
C221 C220 1.367 . S
C221 C223 1.433 . S
C222 C218 1.350 . S
C222 C219 1.463 . S
C222 N226 1.427 . S
C223 H213 0.929 . S
C223 C221 1.433 . S
C223 N226 1.384 . S
C224 H215 0.929 . S
C224 C216 1.378 . S
C224 C219 1.350 . S
C225 H212 0.929 . S
C225 C217 1.433 . S
C225 N227 1.384 . S
N226 C222 1.427 . S
N226 C223 1.384 . S
N227 C219 1.427 . S
N227 C225 1.384 . S
H228 C234 0.930 . S
H229 C238 0.930 . S
H230 C243 0.929 1_554 S
H231 C241 0.929 . S
H232 C236 0.929 . S
H233 C242 0.929 . S
C234 H228 0.930 . S
C234 C235 1.367 . S
C234 C242 1.378 . S
C235 C234 1.367 . S
C235 C243 1.433 . S
C236 H232 0.929 . S
C236 C238 1.378 . S
C236 C240 1.350 . S
C237 C240 1.463 . S
C237 C242 1.350 . S
C237 N245 1.427 . S
C238 H229 0.930 . S
C238 C236 1.378 . S
C238 C239 1.367 . S
C239 C238 1.367 . S
C239 C241 1.433 . S
C240 C236 1.350 . S
C240 C237 1.463 . S
C240 N244 1.427 . S
C241 H231 0.929 . S
C241 C239 1.433 . S
C241 N244 1.384 . S
C242 H233 0.929 . S
C242 C234 1.378 . S
C242 C237 1.350 . S
C243 H230 0.929 1_556 S
C243 C235 1.433 . S
C243 N245 1.384 . S
N244 C240 1.427 . S
N244 C241 1.384 . S
N245 C237 1.427 . S
N245 C243 1.384 . S
H246 C252 0.930 . S
H247 C256 0.930 . S
H248 C261 0.929 . S
H249 C259 0.929 . S
H250 C254 0.929 . S
H251 C260 0.929 . S
C252 H246 0.930 . S
C252 C253 1.367 . S
C252 C260 1.378 . S
C253 C252 1.367 . S
C253 C261 1.433 . S
C254 H250 0.929 . S
C254 C256 1.378 . S
C254 C258 1.350 . S
C255 C258 1.463 . S
C255 C260 1.350 . S
C255 N263 1.427 . S
C256 H247 0.930 . S
C256 C254 1.378 . S
C256 C257 1.367 . S
C257 C256 1.367 . S
C257 C259 1.433 . S
C258 C254 1.350 . S
C258 C255 1.463 . S
C258 N262 1.427 . S
C259 H249 0.929 . S
C259 C257 1.433 . S
C259 N262 1.384 . S
C260 H251 0.929 . S
C260 C252 1.378 . S
C260 C255 1.350 . S
C261 H248 0.929 . S
C261 C253 1.433 . S
C261 N263 1.384 . S
N262 C258 1.427 . S
N262 C259 1.384 . S
N263 C255 1.427 . S
N263 C261 1.384 . S
H264 C270 0.930 . S
H265 C274 0.930 . S
H266 C279 0.929 . S
H267 C277 0.929 . S
H268 C272 0.929 . S
H269 C278 0.929 . S
C270 H264 0.930 . S
C270 C271 1.367 . S
C270 C278 1.378 . S
C271 C270 1.367 . S
C271 C279 1.433 . S
C272 H268 0.929 . S
C272 C274 1.378 . S
C272 C276 1.350 . S
C273 C276 1.463 . S
C273 C278 1.350 . S
C273 N281 1.427 . S
C274 H265 0.930 . S
C274 C272 1.378 . S
C274 C275 1.367 . S
C275 C274 1.367 . S
C275 C277 1.433 . S
C276 C272 1.350 . S
C276 C273 1.463 . S
C276 N280 1.427 . S
C277 H267 0.929 . S
C277 C275 1.433 . S
C277 N280 1.384 . S
C278 H269 0.929 . S
C278 C270 1.378 . S
C278 C273 1.350 . S
C279 H266 0.929 . S
C279 C271 1.433 . S
C279 N281 1.384 . S
N280 C276 1.427 . S
N280 C277 1.384 . S
N281 C273 1.427 . S
N281 C279 1.384 . S
H282 C288 0.930 . S
H283 C292 0.930 . S
H284 C297 0.929 . S
H285 C295 0.929 . S
H286 C290 0.929 . S
H287 C296 0.929 . S
C288 H282 0.930 . S
C288 C289 1.367 . S
C288 C296 1.378 . S
C289 C288 1.367 . S
C289 C297 1.433 . S
C290 H286 0.929 . S
C290 C292 1.378 . S
C290 C294 1.350 . S
C291 C294 1.463 . S
C291 C296 1.350 . S
C291 N299 1.427 . S
C292 H283 0.930 . S
C292 C290 1.378 . S
C292 C293 1.367 . S
C293 C292 1.367 . S
C293 C295 1.433 . S
C294 C290 1.350 . S
C294 C291 1.463 . S
C294 N298 1.427 . S
C295 H285 0.929 . S
C295 C293 1.433 . S
C295 N298 1.384 . S
C296 H287 0.929 . S
C296 C288 1.378 . S
C296 C291 1.350 . S
C297 H284 0.929 . S
C297 C289 1.433 . S
C297 N299 1.384 . S
N298 C294 1.427 . S
N298 C295 1.384 . S
N299 C291 1.427 . S
N299 C297 1.384 . S
H300 C306 0.930 . S
H301 C310 0.930 . S
H302 C315 0.912 1_554 S
H303 C313 0.929 . S
H304 C308 0.929 . S
H305 C314 0.929 . S
C306 H300 0.930 . S
C306 C307 1.367 . S
C306 C314 1.378 . S
C307 C306 1.367 . S
C307 C315 1.443 . S
C308 H304 0.929 . S
C308 C310 1.378 . S
C308 C312 1.350 . S
C309 C312 1.463 . S
C309 C314 1.350 . S
C309 N317 1.427 . S
C310 H301 0.930 . S
C310 C308 1.378 . S
C310 C311 1.367 . S
C311 C310 1.367 . S
C311 C313 1.433 . S
C312 C308 1.350 . S
C312 C309 1.463 . S
C312 N316 1.427 . S
C313 H303 0.929 . S
C313 C311 1.433 . S
C313 N316 1.384 . S
C314 H305 0.929 . S
C314 C306 1.378 . S
C314 C309 1.350 . S
C315 H302 0.912 1_556 S
C315 C307 1.443 . S
C315 N317 1.391 . S
N316 C312 1.427 . S
N316 C313 1.384 . S
N317 C309 1.427 . S
N317 C315 1.391 . S
H318 C324 0.930 . S
H319 C328 0.930 . S
H320 C333 0.929 . S
H321 C331 0.929 . S
H322 C326 0.929 . S
H323 C332 0.929 . S
C324 H318 0.930 . S
C324 C325 1.367 . S
C324 C332 1.378 . S
C325 C324 1.367 . S
C325 C333 1.433 . S
C326 H322 0.929 . S
C326 C328 1.378 . S
C326 C330 1.350 . S
C327 C330 1.463 . S
C327 C332 1.350 . S
C327 N335 1.427 . S
C328 H319 0.930 . S
C328 C326 1.378 . S
C328 C329 1.367 . S
C329 C328 1.367 . S
C329 C331 1.433 . S
C330 C326 1.350 . S
C330 C327 1.463 . S
C330 N334 1.427 . S
C331 H321 0.929 . S
C331 C329 1.433 . S
C331 N334 1.384 . S
C332 H323 0.929 . S
C332 C324 1.378 . S
C332 C327 1.350 . S
C333 H320 0.929 . S
C333 C325 1.433 . S
C333 N335 1.384 . S
N334 C330 1.427 . S
N334 C331 1.384 . S
N335 C327 1.427 . S
N335 C333 1.384 . S
H336 C342 0.926 1_554 S
H337 C346 0.930 . S
H338 C351 0.929 . S
H339 C349 0.929 . S
H340 C344 0.929 . S
H341 C350 0.929 . S
C342 H336 0.926 1_556 S
C342 C343 1.369 . S
C342 C350 1.380 . S
C343 C342 1.369 . S
C343 C351 1.433 . S
C344 H340 0.929 . S
C344 C346 1.378 . S
C344 C348 1.350 . S
C345 C348 1.463 . S
C345 C350 1.350 . S
C345 N353 1.427 . S
C346 H337 0.930 . S
C346 C344 1.378 . S
C346 C347 1.367 . S
C347 C346 1.367 . S
C347 C349 1.433 . S
C348 C344 1.350 . S
C348 C345 1.463 . S
C348 N352 1.427 . S
C349 H339 0.929 . S
C349 C347 1.433 . S
C349 N352 1.384 . S
C350 H341 0.929 . S
C350 C342 1.380 . S
C350 C345 1.350 . S
C351 H338 0.929 . S
C351 C343 1.433 . S
C351 N353 1.384 . S
N352 C348 1.427 . S
N352 C349 1.384 . S
N353 C345 1.427 . S
N353 C351 1.384 . S
H354 C360 0.930 . S
H355 C364 0.930 . S
H356 C369 0.929 . S
H357 C367 0.929 . S
H358 C362 0.929 . S
H359 C368 0.929 . S
C360 H354 0.930 . S
C360 C361 1.367 . S
C360 C368 1.378 . S
C361 C360 1.367 . S
C361 C369 1.433 . S
C362 H358 0.929 . S
C362 C364 1.378 . S
C362 C366 1.350 . S
C363 C366 1.463 . S
C363 C368 1.350 . S
C363 N371 1.427 . S
C364 H355 0.930 . S
C364 C362 1.378 . S
C364 C365 1.367 . S
C365 C364 1.367 . S
C365 C367 1.433 . S
C366 C362 1.350 . S
C366 C363 1.463 . S
C366 N370 1.427 . S
C367 H357 0.929 . S
C367 C365 1.433 . S
C367 N370 1.384 . S
C368 H359 0.929 . S
C368 C360 1.378 . S
C368 C363 1.350 . S
C369 H356 0.929 . S
C369 C361 1.433 . S
C369 N371 1.384 . S
N370 C366 1.427 . S
N370 C367 1.384 . S
N371 C363 1.427 . S
N371 C369 1.384 . S
H372 C378 0.930 . S
H373 C382 0.930 . S
H374 C387 0.929 . S
H375 C385 0.929 . S
H376 C380 0.929 . S
H377 C386 0.929 . S
C378 H372 0.930 . S
C378 C379 1.367 . S
C378 C386 1.378 . S
C379 C378 1.367 . S
C379 C387 1.433 1_556 S
C380 H376 0.929 . S
C380 C382 1.378 . S
C380 C384 1.350 . S
C381 C384 1.463 . S
C381 C386 1.350 . S
C381 N389 1.427 . S
C382 H373 0.930 . S
C382 C380 1.378 . S
C382 C383 1.367 . S
C383 C382 1.367 . S
C383 C385 1.433 . S
C384 C380 1.350 . S
C384 C381 1.463 . S
C384 N388 1.427 . S
C385 H375 0.929 . S
C385 C383 1.433 . S
C385 N388 1.384 . S
C386 H377 0.929 . S
C386 C378 1.378 . S
C386 C381 1.350 . S
C387 H374 0.929 . S
C387 C379 1.433 1_554 S
C387 N389 1.384 1_554 S
N388 C384 1.427 . S
N388 C385 1.384 . S
N389 C381 1.427 . S
N389 C387 1.384 1_556 S
H390 C396 0.930 . S
H391 C400 0.930 . S
H392 C405 0.929 . S
H393 C403 0.929 . S
H394 C398 0.929 . S
H395 C404 0.929 . S
C396 H390 0.930 . S
C396 C397 1.367 . S
C396 C404 1.378 . S
C397 C396 1.367 . S
C397 C405 1.433 . S
C398 H394 0.929 . S
C398 C400 1.378 . S
C398 C402 1.350 . S
C399 C402 1.463 . S
C399 C404 1.350 . S
C399 N407 1.427 . S
C400 H391 0.930 . S
C400 C398 1.378 . S
C400 C401 1.367 . S
C401 C400 1.367 . S
C401 C403 1.433 . S
C402 C398 1.350 . S
C402 C399 1.463 . S
C402 N406 1.427 . S
C403 H393 0.929 . S
C403 C401 1.433 . S
C403 N406 1.384 . S
C404 H395 0.929 . S
C404 C396 1.378 . S
C404 C399 1.350 . S
C405 H392 0.929 . S
C405 C397 1.433 . S
C405 N407 1.384 . S
N406 C402 1.427 . S
N406 C403 1.384 . S
N407 C399 1.427 . S
N407 C405 1.384 . S
H408 C414 0.948 . S
H409 C418 0.930 . S
H410 C423 0.929 . S
H411 C421 0.929 . S
H412 C416 0.929 . S
H413 C422 0.929 . S
C414 H408 0.948 . S
C414 C415 1.358 1_554 S
C414 C422 1.369 1_554 S
C415 C414 1.358 1_556 S
C415 C423 1.433 . S
C416 H412 0.929 . S
C416 C418 1.378 . S
C416 C420 1.363 . S
C417 C420 1.447 1_565 S
C417 C422 1.350 . S
C417 N425 1.427 . S
C418 H409 0.930 . S
C418 C416 1.378 . S
C418 C419 1.367 . S
C419 C418 1.367 . S
C419 C421 1.433 . S
C420 C416 1.363 . S
C420 C417 1.447 1_545 S
C420 N424 1.429 . S
C421 H411 0.929 . S
C421 C419 1.433 . S
C421 N424 1.384 . S
C422 H413 0.929 . S
C422 C414 1.369 1_556 S
C422 C417 1.350 . S
C423 H410 0.929 . S
C423 C415 1.433 . S
C423 N425 1.384 . S
N424 C420 1.429 . S
N424 C421 1.384 . S
N425 C417 1.427 . S
N425 C423 1.384 . S
H426 C432 0.930 . S
H427 C436 0.930 . S
H428 C441 0.929 . S
H429 C439 0.929 . S
H430 C434 0.929 . S
H431 C440 0.929 . S
C432 H426 0.930 . S
C432 C433 1.367 . S
C432 C440 1.378 . S
C433 C432 1.367 . S
C433 C441 1.433 . S
C434 H430 0.929 . S
C434 C436 1.378 . S
C434 C438 1.374 . S
C435 C438 1.443 1_545 S
C435 C440 1.350 . S
C435 N443 1.427 . S
C436 H427 0.930 . S
C436 C434 1.378 . S
C436 C437 1.367 . S
C437 C436 1.367 . S
C437 C439 1.433 . S
C438 C434 1.374 . S
C438 C435 1.443 1_565 S
C438 N442 1.422 1_565 S
C439 H429 0.929 . S
C439 C437 1.433 . S
C439 N442 1.384 1_565 S
C440 H431 0.929 . S
C440 C432 1.378 . S
C440 C435 1.350 . S
C441 H428 0.929 . S
C441 C433 1.433 . S
C441 N443 1.384 . S
N442 C438 1.422 1_545 S
N442 C439 1.384 1_545 S
N443 C435 1.427 . S
N443 C441 1.384 . S
H444 C450 0.930 . S
H445 C454 0.930 . S
H446 C459 0.929 1_554 S
H447 C457 0.929 . S
H448 C452 0.929 . S
H449 C458 0.932 . S
C450 H444 0.930 . S
C450 C451 1.367 . S
C450 C458 1.378 . S
C451 C450 1.367 . S
C451 C459 1.433 . S
C452 H448 0.929 . S
C452 C454 1.378 1_565 S
C452 C456 1.350 . S
C453 C456 1.462 . S
C453 C458 1.350 . S
C453 N461 1.427 . S
C454 H445 0.930 . S
C454 C452 1.378 1_545 S
C454 C455 1.367 . S
C455 C454 1.367 . S
C455 C457 1.433 . S
C456 C452 1.350 . S
C456 C453 1.462 . S
C456 N460 1.428 1_565 S
C457 H447 0.929 . S
C457 C455 1.433 . S
C457 N460 1.384 . S
C458 H449 0.932 . S
C458 C450 1.378 . S
C458 C453 1.350 . S
C459 H446 0.929 1_556 S
C459 C451 1.433 . S
C459 N461 1.384 . S
N460 C456 1.428 1_545 S
N460 C457 1.384 . S
N461 C453 1.427 . S
N461 C459 1.384 . S
H462 C468 0.930 . S
H463 C472 0.940 . S
H464 C477 0.929 . S
H465 C475 0.929 . S
H466 C470 0.929 . S
H467 C476 0.929 1_565 S
C468 H462 0.930 . S
C468 C469 1.367 . S
C468 C476 1.378 . S
C469 C468 1.367 . S
C469 C477 1.433 . S
C470 H466 0.929 . S
C470 C472 1.378 1_545 S
C470 C474 1.356 . S
C471 C474 1.473 . S
C471 C476 1.350 . S
C471 N479 1.427 . S
C472 H463 0.940 . S
C472 C470 1.378 1_565 S
C472 C473 1.367 . S
C473 C472 1.367 . S
C473 C475 1.433 . S
C474 C470 1.356 . S
C474 C471 1.473 . S
C474 N478 1.410 1_545 S
C475 H465 0.929 . S
C475 C473 1.433 . S
C475 N478 1.384 . S
C476 H467 0.929 1_545 S
C476 C468 1.378 . S
C476 C471 1.350 . S
C477 H464 0.929 . S
C477 C469 1.433 . S
C477 N479 1.384 . S
N478 C474 1.410 1_565 S
N478 C475 1.384 . S
N479 C471 1.427 . S
N479 C477 1.384 . S
H480 C486 0.930 . S
H481 C490 0.930 . S
H482 C495 0.929 . S
H483 C493 0.929 . S
H484 C488 0.929 . S
H485 C494 0.929 . S
C486 H480 0.930 . S
C486 C487 1.367 . S
C486 C494 1.378 . S
C487 C486 1.367 . S
C487 C495 1.433 . S
C488 H484 0.929 . S
C488 C490 1.378 . S
C488 C492 1.350 . S
C489 C492 1.463 . S
C489 C494 1.350 . S
C489 N497 1.427 . S
C490 H481 0.930 . S
C490 C488 1.378 . S
C490 C491 1.367 . S
C491 C490 1.367 . S
C491 C493 1.433 . S
C492 C488 1.350 . S
C492 C489 1.463 . S
C492 N496 1.427 . S
C493 H483 0.929 . S
C493 C491 1.433 . S
C493 N496 1.384 . S
C494 H485 0.929 . S
C494 C486 1.378 . S
C494 C489 1.350 . S
C495 H482 0.929 . S
C495 C487 1.433 . S
C495 N497 1.384 . S
N496 C492 1.427 . S
N496 C493 1.384 . S
N497 C489 1.427 . S
N497 C495 1.384 . S
H498 C504 0.930 . S
H499 C508 0.930 . S
H500 C513 0.929 . S
H501 C511 0.929 . S
H502 C506 0.929 . S
H503 C512 0.929 . S
C504 H498 0.930 . S
C504 C505 1.367 . S
C504 C512 1.378 . S
C505 C504 1.367 . S
C505 C513 1.433 . S
C506 H502 0.929 . S
C506 C508 1.378 . S
C506 C510 1.350 . S
C507 C510 1.463 . S
C507 C512 1.350 . S
C507 N515 1.427 . S
C508 H499 0.930 . S
C508 C506 1.378 . S
C508 C509 1.367 . S
C509 C508 1.367 . S
C509 C511 1.433 . S
C510 C506 1.350 . S
C510 C507 1.463 . S
C510 N514 1.427 . S
C511 H501 0.929 . S
C511 C509 1.433 . S
C511 N514 1.384 . S
C512 H503 0.929 . S
C512 C504 1.378 . S
C512 C507 1.350 . S
C513 H500 0.929 . S
C513 C505 1.433 . S
C513 N515 1.384 . S
N514 C510 1.427 . S
N514 C511 1.384 . S
N515 C507 1.427 . S
N515 C513 1.384 . S
H516 C522 0.930 . S
H517 C526 0.930 . S
H518 C531 0.929 . S
H519 C529 0.929 . S
H520 C524 0.929 . S
H521 C530 0.929 . S
C522 H516 0.930 . S
C522 C523 1.367 . S
C522 C530 1.378 . S
C523 C522 1.367 . S
C523 C531 1.433 . S
C524 H520 0.929 . S
C524 C526 1.378 . S
C524 C528 1.350 . S
C525 C528 1.463 . S
C525 C530 1.350 . S
C525 N533 1.427 . S
C526 H517 0.930 . S
C526 C524 1.378 . S
C526 C527 1.367 . S
C527 C526 1.367 . S
C527 C529 1.433 . S
C528 C524 1.350 . S
C528 C525 1.463 . S
C528 N532 1.427 . S
C529 H519 0.929 . S
C529 C527 1.433 . S
C529 N532 1.384 . S
C530 H521 0.929 . S
C530 C522 1.378 . S
C530 C525 1.350 . S
C531 H518 0.929 . S
C531 C523 1.433 . S
C531 N533 1.384 . S
N532 C528 1.427 . S
N532 C529 1.384 . S
N533 C525 1.427 . S
N533 C531 1.384 . S
H534 C540 0.930 . S
H535 C544 0.930 . S
H536 C549 0.929 . S
H537 C547 0.929 . S
H538 C542 0.929 . S
H539 C548 0.929 . S
C540 H534 0.930 . S
C540 C541 1.367 . S
C540 C548 1.378 . S
C541 C540 1.367 . S
C541 C549 1.433 . S
C542 H538 0.929 . S
C542 C544 1.378 . S
C542 C546 1.350 . S
C543 C546 1.463 . S
C543 C548 1.350 . S
C543 N551 1.427 . S
C544 H535 0.930 . S
C544 C542 1.378 . S
C544 C545 1.367 . S
C545 C544 1.367 . S
C545 C547 1.433 . S
C546 C542 1.350 . S
C546 C543 1.463 . S
C546 N550 1.427 . S
C547 H537 0.929 . S
C547 C545 1.433 . S
C547 N550 1.384 . S
C548 H539 0.929 . S
C548 C540 1.378 . S
C548 C543 1.350 . S
C549 H536 0.929 . S
C549 C541 1.433 . S
C549 N551 1.384 . S
N550 C546 1.427 . S
N550 C547 1.384 . S
N551 C543 1.427 . S
N551 C549 1.384 . S
H552 C558 0.930 . S
H553 C562 0.930 . S
H554 C567 0.929 . S
H555 C565 0.929 . S
H556 C560 0.929 . S
H557 C566 0.929 . S
C558 H552 0.930 . S
C558 C559 1.367 . S
C558 C566 1.378 . S
C559 C558 1.367 . S
C559 C567 1.433 . S
C560 H556 0.929 . S
C560 C562 1.378 . S
C560 C564 1.350 . S
C561 C564 1.463 . S
C561 C566 1.350 . S
C561 N569 1.427 . S
C562 H553 0.930 . S
C562 C560 1.378 . S
C562 C563 1.367 . S
C563 C562 1.367 . S
C563 C565 1.433 . S
C564 C560 1.350 . S
C564 C561 1.463 . S
C564 N568 1.427 . S
C565 H555 0.929 . S
C565 C563 1.433 . S
C565 N568 1.384 . S
C566 H557 0.929 . S
C566 C558 1.378 . S
C566 C561 1.350 . S
C567 H554 0.929 . S
C567 C559 1.433 . S
C567 N569 1.384 . S
N568 C564 1.427 . S
N568 C565 1.384 . S
N569 C561 1.427 . S
N569 C567 1.384 . S
H570 C576 0.930 . S
H571 C580 0.930 . S
H572 C585 0.929 . S
H573 C583 0.929 . S
H574 C578 0.929 . S
H575 C584 0.929 . S
C576 H570 0.930 . S
C576 C577 1.367 . S
C576 C584 1.378 . S
C577 C576 1.367 . S
C577 C585 1.433 . S
C578 H574 0.929 . S
C578 C580 1.378 . S
C578 C582 1.350 . S
C579 C582 1.463 . S
C579 C584 1.350 . S
C579 N587 1.427 . S
C580 H571 0.930 . S
C580 C578 1.378 . S
C580 C581 1.367 . S
C581 C580 1.367 . S
C581 C583 1.433 . S
C582 C578 1.350 . S
C582 C579 1.463 . S
C582 N586 1.427 . S
C583 H573 0.929 . S
C583 C581 1.433 . S
C583 N586 1.384 . S
C584 H575 0.929 . S
C584 C576 1.378 . S
C584 C579 1.350 . S
C585 H572 0.929 . S
C585 C577 1.433 . S
C585 N587 1.384 . S
N586 C582 1.427 . S
N586 C583 1.384 . S
N587 C579 1.427 . S
N587 C585 1.384 . S
H588 C594 0.930 . S
H589 C598 0.930 . S
H590 C603 0.929 . S
H591 C601 0.929 . S
H592 C596 0.929 . S
H593 C602 0.929 . S
C594 H588 0.930 . S
C594 C595 1.367 . S
C594 C602 1.378 . S
C595 C594 1.367 . S
C595 C603 1.433 . S
C596 H592 0.929 . S
C596 C598 1.378 . S
C596 C600 1.350 . S
C597 C600 1.463 . S
C597 C602 1.350 . S
C597 N605 1.427 . S
C598 H589 0.930 . S
C598 C596 1.378 . S
C598 C599 1.367 . S
C599 C598 1.367 . S
C599 C601 1.433 . S
C600 C596 1.350 . S
C600 C597 1.463 . S
C600 N604 1.427 . S
C601 H591 0.929 . S
C601 C599 1.433 . S
C601 N604 1.384 . S
C602 H593 0.929 . S
C602 C594 1.378 . S
C602 C597 1.350 . S
C603 H590 0.929 . S
C603 C595 1.433 . S
C603 N605 1.384 . S
N604 C600 1.427 . S
N604 C601 1.384 . S
N605 C597 1.427 . S
N605 C603 1.384 . S
H606 C612 0.930 . S
H607 C616 0.930 . S
H608 C621 0.929 . S
H609 C619 0.929 . S
H610 C614 0.929 . S
H611 C620 0.929 . S
C612 H606 0.930 . S
C612 C613 1.367 . S
C612 C620 1.378 . S
C613 C612 1.367 . S
C613 C621 1.433 . S
C614 H610 0.929 . S
C614 C616 1.378 . S
C614 C618 1.350 . S
C615 C618 1.463 . S
C615 C620 1.350 . S
C615 N623 1.427 . S
C616 H607 0.930 . S
C616 C614 1.378 . S
C616 C617 1.367 . S
C617 C616 1.367 . S
C617 C619 1.433 . S
C618 C614 1.350 . S
C618 C615 1.463 . S
C618 N622 1.427 . S
C619 H609 0.929 . S
C619 C617 1.433 . S
C619 N622 1.384 . S
C620 H611 0.929 . S
C620 C612 1.378 . S
C620 C615 1.350 . S
C621 H608 0.929 . S
C621 C613 1.433 . S
C621 N623 1.384 . S
N622 C618 1.427 . S
N622 C619 1.384 . S
N623 C615 1.427 . S
N623 C621 1.384 . S
C199 N2 1.534 . S
C203 C130 1.508 . S
C221 C108 1.518 . S
C217 N15 1.538 . S
C239 C134 1.510 . S
C235 N28 1.527 . S
C257 C112 1.517 . S
C253 N41 1.530 . S
C275 C174 1.518 . S
C271 N54 1.537 . S
C293 C152 1.512 . S
C289 N67 1.536 . S
C307 N80 1.529 . S
C311 C178 1.515 . S
C329 C156 1.514 . S
C325 N93 1.528 . S
C343 N5 1.504 . S
C347 C179 1.495 . S
C365 C157 1.492 . S
C361 N18 1.506 . S
C379 N31 1.499 . S
C383 C176 1.490 . S
C397 N44 1.499 . S
C401 C154 1.491 . S
C419 C135 1.495 . S
C415 N57 1.506 . S
C433 N70 1.503 . S
C437 C113 1.494 . S
C455 C132 1.486 . S
C451 N83 1.501 . S
C473 C110 1.488 . S
C469 N96 1.506 . S
C491 C153 1.486 . S
C487 N1 1.503 . S
C509 C175 1.490 . S
C505 N14 1.503 . S
C523 N27 1.494 . S
C527 C155 1.492 . S
C545 C177 1.490 . S
C541 N40 1.488 . S
C563 C109 1.487 . S
C559 N53 1.504 . S
C577 N66 1.505 . S
C581 C131 1.492 . S
C595 N79 1.496 . S
C599 C111 1.487 . S
C613 N92 1.491 . S
C617 C133 1.494 . S
