# Generated by pormake.
# Topology ptr, (4,4)-cn, num edge types: 1
# Building blocks:
#     Node 0, Type 0, BuildingBlock: AZAVOO_clean_sbu_0, # of connection points: 4
#     Node 1, Type 0, BuildingBlock: AZAVOO_clean_sbu_0, # of connection points: 4
#     Node 2, Type 0, BuildingBlock: AZAVOO_clean_sbu_0, # of connection points: 4
#     Node 3, Type 0, BuildingBlock: AZAVOO_clean_sbu_0, # of connection points: 4
#     Node 4, Type 0, BuildingBlock: AZAVOO_clean_sbu_0, # of connection points: 4
#     Node 5, Type 0, BuildingBlock: AZAVOO_clean_sbu_0, # of connection points: 4
#     Node 6, Type 0, BuildingBlock: AZAVOO_clean_sbu_0, # of connection points: 4
#     Node 7, Type 0, BuildingBlock: AZAVOO_clean_sbu_0, # of connection points: 4
#     Node 8, Type 0, BuildingBlock: AZAVOO_clean_sbu_0, # of connection points: 4
#     Node 9, Type 0, BuildingBlock: AZAVOO_clean_sbu_0, # of connection points: 4
#     Node 10, Type 0, BuildingBlock: AZAVOO_clean_sbu_0, # of connection points: 4
#     Node 11, Type 0, BuildingBlock: AZAVOO_clean_sbu_0, # of connection points: 4
#     Node 12, Type 0, BuildingBlock: AZAVOO_clean_sbu_0, # of connection points: 4
#     Node 13, Type 0, BuildingBlock: AZAVOO_clean_sbu_0, # of connection points: 4
#     Node 14, Type 0, BuildingBlock: AZAVOO_clean_sbu_0, # of connection points: 4
#     Node 15, Type 0, BuildingBlock: AZAVOO_clean_sbu_0, # of connection points: 4
#     Node 16, Type 0, BuildingBlock: AZAVOO_clean_sbu_0, # of connection points: 4
#     Node 17, Type 0, BuildingBlock: AZAVOO_clean_sbu_0, # of connection points: 4
#     Node 18, Type 1, BuildingBlock: MIFKUJ_clean_linker_1, # of connection points: 4
#     Node 19, Type 1, BuildingBlock: MIFKUJ_clean_linker_1, # of connection points: 4
#     Node 20, Type 1, BuildingBlock: MIFKUJ_clean_linker_1, # of connection points: 4
#     Node 21, Type 1, BuildingBlock: MIFKUJ_clean_linker_1, # of connection points: 4
#     Node 22, Type 1, BuildingBlock: MIFKUJ_clean_linker_1, # of connection points: 4
#     Node 23, Type 1, BuildingBlock: MIFKUJ_clean_linker_1, # of connection points: 4
#     Node 24, Type 1, BuildingBlock: MIFKUJ_clean_linker_1, # of connection points: 4
#     Node 25, Type 1, BuildingBlock: MIFKUJ_clean_linker_1, # of connection points: 4
#     Node 26, Type 1, BuildingBlock: MIFKUJ_clean_linker_1, # of connection points: 4
#     Node 27, Type 1, BuildingBlock: MIFKUJ_clean_linker_1, # of connection points: 4
#     Node 28, Type 1, BuildingBlock: MIFKUJ_clean_linker_1, # of connection points: 4
#     Node 29, Type 1, BuildingBlock: MIFKUJ_clean_linker_1, # of connection points: 4
#     Node 30, Type 1, BuildingBlock: MIFKUJ_clean_linker_1, # of connection points: 4
#     Node 31, Type 1, BuildingBlock: MIFKUJ_clean_linker_1, # of connection points: 4
#     Node 32, Type 1, BuildingBlock: MIFKUJ_clean_linker_1, # of connection points: 4
#     Node 33, Type 1, BuildingBlock: MIFKUJ_clean_linker_1, # of connection points: 4
#     Node 34, Type 1, BuildingBlock: MIFKUJ_clean_linker_1, # of connection points: 4
#     Node 35, Type 1, BuildingBlock: MIFKUJ_clean_linker_1, # of connection points: 4
#     Edge 36, Type (0, 1), BuildingBlock: OJICUG_clean_linker_0, # of connection points: 2
#     Edge 37, Type (0, 1), BuildingBlock: OJICUG_clean_linker_0, # of connection points: 2
#     Edge 38, Type (0, 1), BuildingBlock: OJICUG_clean_linker_0, # of connection points: 2
#     Edge 39, Type (0, 1), BuildingBlock: OJICUG_clean_linker_0, # of connection points: 2
#     Edge 40, Type (0, 1), BuildingBlock: OJICUG_clean_linker_0, # of connection points: 2
#     Edge 41, Type (0, 1), BuildingBlock: OJICUG_clean_linker_0, # of connection points: 2
#     Edge 42, Type (0, 1), BuildingBlock: OJICUG_clean_linker_0, # of connection points: 2
#     Edge 43, Type (0, 1), BuildingBlock: OJICUG_clean_linker_0, # of connection points: 2
#     Edge 44, Type (0, 1), BuildingBlock: OJICUG_clean_linker_0, # of connection points: 2
#     Edge 45, Type (0, 1), BuildingBlock: OJICUG_clean_linker_0, # of connection points: 2
#     Edge 46, Type (0, 1), BuildingBlock: OJICUG_clean_linker_0, # of connection points: 2
#     Edge 47, Type (0, 1), BuildingBlock: OJICUG_clean_linker_0, # of connection points: 2
#     Edge 48, Type (0, 1), BuildingBlock: OJICUG_clean_linker_0, # of connection points: 2
#     Edge 49, Type (0, 1), BuildingBlock: OJICUG_clean_linker_0, # of connection points: 2
#     Edge 50, Type (0, 1), BuildingBlock: OJICUG_clean_linker_0, # of connection points: 2
#     Edge 51, Type (0, 1), BuildingBlock: OJICUG_clean_linker_0, # of connection points: 2
#     Edge 52, Type (0, 1), BuildingBlock: OJICUG_clean_linker_0, # of connection points: 2
#     Edge 53, Type (0, 1), BuildingBlock: OJICUG_clean_linker_0, # of connection points: 2
#     Edge 54, Type (0, 1), BuildingBlock: OJICUG_clean_linker_0, # of connection points: 2
#     Edge 55, Type (0, 1), BuildingBlock: OJICUG_clean_linker_0, # of connection points: 2
#     Edge 56, Type (0, 1), BuildingBlock: OJICUG_clean_linker_0, # of connection points: 2
#     Edge 57, Type (0, 1), BuildingBlock: OJICUG_clean_linker_0, # of connection points: 2
#     Edge 58, Type (0, 1), BuildingBlock: OJICUG_clean_linker_0, # of connection points: 2
#     Edge 59, Type (0, 1), BuildingBlock: OJICUG_clean_linker_0, # of connection points: 2
#     Edge 60, Type (0, 1), BuildingBlock: OJICUG_clean_linker_0, # of connection points: 2
#     Edge 61, Type (0, 1), BuildingBlock: OJICUG_clean_linker_0, # of connection points: 2
#     Edge 62, Type (0, 1), BuildingBlock: OJICUG_clean_linker_0, # of connection points: 2
#     Edge 63, Type (0, 1), BuildingBlock: OJICUG_clean_linker_0, # of connection points: 2
#     Edge 64, Type (0, 1), BuildingBlock: OJICUG_clean_linker_0, # of connection points: 2
#     Edge 65, Type (0, 1), BuildingBlock: OJICUG_clean_linker_0, # of connection points: 2
#     Edge 66, Type (0, 1), BuildingBlock: OJICUG_clean_linker_0, # of connection points: 2
#     Edge 67, Type (0, 1), BuildingBlock: OJICUG_clean_linker_0, # of connection points: 2
#     Edge 68, Type (0, 1), BuildingBlock: OJICUG_clean_linker_0, # of connection points: 2
#     Edge 69, Type (0, 1), BuildingBlock: OJICUG_clean_linker_0, # of connection points: 2
#     Edge 70, Type (0, 1), BuildingBlock: OJICUG_clean_linker_0, # of connection points: 2
#     Edge 71, Type (0, 1), BuildingBlock: OJICUG_clean_linker_0, # of connection points: 2
#     Edge 72, Type (0, 1), BuildingBlock: OJICUG_clean_linker_0, # of connection points: 2
#     Edge 73, Type (0, 1), BuildingBlock: OJICUG_clean_linker_0, # of connection points: 2
#     Edge 74, Type (0, 1), BuildingBlock: OJICUG_clean_linker_0, # of connection points: 2
#     Edge 75, Type (0, 1), BuildingBlock: OJICUG_clean_linker_0, # of connection points: 2
#     Edge 76, Type (0, 1), BuildingBlock: OJICUG_clean_linker_0, # of connection points: 2
#     Edge 77, Type (0, 1), BuildingBlock: OJICUG_clean_linker_0, # of connection points: 2
#     Edge 78, Type (0, 1), BuildingBlock: OJICUG_clean_linker_0, # of connection points: 2
#     Edge 79, Type (0, 1), BuildingBlock: OJICUG_clean_linker_0, # of connection points: 2
#     Edge 80, Type (0, 1), BuildingBlock: OJICUG_clean_linker_0, # of connection points: 2
#     Edge 81, Type (0, 1), BuildingBlock: OJICUG_clean_linker_0, # of connection points: 2
#     Edge 82, Type (0, 1), BuildingBlock: OJICUG_clean_linker_0, # of connection points: 2
#     Edge 83, Type (0, 1), BuildingBlock: OJICUG_clean_linker_0, # of connection points: 2
#     Edge 84, Type (0, 1), BuildingBlock: OJICUG_clean_linker_0, # of connection points: 2
#     Edge 85, Type (0, 1), BuildingBlock: OJICUG_clean_linker_0, # of connection points: 2
#     Edge 86, Type (0, 1), BuildingBlock: OJICUG_clean_linker_0, # of connection points: 2
#     Edge 87, Type (0, 1), BuildingBlock: OJICUG_clean_linker_0, # of connection points: 2
#     Edge 88, Type (0, 1), BuildingBlock: OJICUG_clean_linker_0, # of connection points: 2
#     Edge 89, Type (0, 1), BuildingBlock: OJICUG_clean_linker_0, # of connection points: 2
#     Edge 90, Type (0, 1), BuildingBlock: OJICUG_clean_linker_0, # of connection points: 2
#     Edge 91, Type (0, 1), BuildingBlock: OJICUG_clean_linker_0, # of connection points: 2
#     Edge 92, Type (0, 1), BuildingBlock: OJICUG_clean_linker_0, # of connection points: 2
#     Edge 93, Type (0, 1), BuildingBlock: OJICUG_clean_linker_0, # of connection points: 2
#     Edge 94, Type (0, 1), BuildingBlock: OJICUG_clean_linker_0, # of connection points: 2
#     Edge 95, Type (0, 1), BuildingBlock: OJICUG_clean_linker_0, # of connection points: 2
#     Edge 96, Type (0, 1), BuildingBlock: OJICUG_clean_linker_0, # of connection points: 2
#     Edge 97, Type (0, 1), BuildingBlock: OJICUG_clean_linker_0, # of connection points: 2
#     Edge 98, Type (0, 1), BuildingBlock: OJICUG_clean_linker_0, # of connection points: 2
#     Edge 99, Type (0, 1), BuildingBlock: OJICUG_clean_linker_0, # of connection points: 2
#     Edge 100, Type (0, 1), BuildingBlock: OJICUG_clean_linker_0, # of connection points: 2
#     Edge 101, Type (0, 1), BuildingBlock: OJICUG_clean_linker_0, # of connection points: 2
#     Edge 102, Type (0, 1), BuildingBlock: OJICUG_clean_linker_0, # of connection points: 2
#     Edge 103, Type (0, 1), BuildingBlock: OJICUG_clean_linker_0, # of connection points: 2
#     Edge 104, Type (0, 1), BuildingBlock: OJICUG_clean_linker_0, # of connection points: 2
#     Edge 105, Type (0, 1), BuildingBlock: OJICUG_clean_linker_0, # of connection points: 2
#     Edge 106, Type (0, 1), BuildingBlock: OJICUG_clean_linker_0, # of connection points: 2
#     Edge 107, Type (0, 1), BuildingBlock: OJICUG_clean_linker_0, # of connection points: 2
# Relax obj value: 0.079
# Max RMSD: 0.280
# Mean RMSD: 0.122
data_MOF--net-ptr--node1-AZAVOO_clean_sbu_0--node2-MIFKUJ_clean_linker_1--edge1-OJICUG_clean_linker_0
_symmetry_space_group_name_H-M    P1
_symmetry_Int_Tables_number       1
_symmetry_cell_setting            triclinic
loop_
_symmetry_equiv_pos_as_xyz
'x, y, z'
_cell_length_a     70.70081
_cell_length_b     69.56974
_cell_length_c     45.967204
_cell_angle_alpha  91.476349
_cell_angle_beta   91.227808
_cell_angle_gamma 120.01584
loop_
_atom_site_label
_atom_site_type_symbol
_atom_site_fract_x
_atom_site_fract_y
_atom_site_fract_z
_atom_type_partial_charge
Mg0 Mg 0.0124 0.34055 0.98813 0.0
O1 O 0.99689 0.35128 0.02446 0.0
O2 O 0.9707 0.35562 0.00267 0.0
Mg3 Mg 0.97032 0.34977 0.9536 0.0
C4 C 0.98155 0.35597 0.02544 0.0
C5 C 0.02715 0.31067 0.02332 0.0
O6 O 0.01276 0.2945 0.00577 0.0
O7 O 0.9821 0.30559 0.9827 0.0
O8 O 0.95855 0.31303 0.95949 0.0
O9 O 0.03684 0.37637 0.9819 0.0
O10 O 0.00449 0.358 0.95887 0.0
C11 C 0.96353 0.29926 0.97001 0.0
C12 C 0.02219 0.37654 0.96472 0.0
O13 O 0.02965 0.33004 0.02166 0.0
Mg14 Mg 0.66088 0.65009 0.0506 0.0
O15 O 0.63645 0.64152 0.01152 0.0
O16 O 0.60579 0.63842 0.02913 0.0
Mg17 Mg 0.60961 0.64264 0.07866 0.0
C18 C 0.617 0.63809 0.00792 0.0
C19 C 0.69632 0.67726 0.00363 0.0
O20 O 0.68706 0.68957 0.00296 0.0
O21 O 0.66664 0.68527 0.05671 0.0
O22 O 0.63527 0.67943 0.07528 0.0
O23 O 0.64885 0.61412 0.05583 0.0
O24 O 0.63482 0.63282 0.07716 0.0
C25 C 0.65458 0.6924 0.06705 0.0
C26 C 0.63404 0.61415 0.07189 0.0
O27 O 0.68912 0.66091 0.02022 0.0
Mg28 Mg 0.33829 0.97722 0.98275 0.0
O29 O 0.3665 0.99426 0.01666 0.0
O30 O 0.39673 0.01837 0.99477 0.0
Mg31 Mg 0.38814 0.01452 0.94566 0.0
C32 C 0.38667 0.0091 0.01757 0.0
C33 C 0.2984 0.9691 0.01997 0.0
O34 O 0.29487 0.97884 0.9981 0.0
O35 O 0.33641 0.00878 0.97751 0.0
O36 O 0.36607 0.02942 0.95211 0.0
O37 O 0.34701 0.95061 0.97527 0.0
O38 O 0.35959 0.98115 0.95035 0.0
C39 C 0.34855 0.02625 0.96377 0.0
C40 C 0.35936 0.96295 0.95518 0.0
O41 O 0.31463 0.96597 0.01969 0.0
Mg42 Mg 0.98657 0.6608 0.04226 0.0
O43 O 0.00142 0.64869 0.00676 0.0
O44 O 0.02761 0.64447 0.02875 0.0
Mg45 Mg 0.0284 0.65181 0.07754 0.0
C46 C 0.01654 0.64369 0.00601 0.0
C47 C 0.96066 0.68186 0.01634 0.0
O48 O 0.96118 0.68643 0.04436 0.0
O49 O 0.01703 0.69574 0.04633 0.0
O50 O 0.04043 0.68843 0.07012 0.0
O51 O 0.96201 0.62526 0.04979 0.0
O52 O 0.9941 0.64384 0.07319 0.0
C53 C 0.03564 0.70215 0.059 0.0
C54 C 0.97626 0.62526 0.06798 0.0
O55 O 0.97026 0.67155 0.00767 0.0
Mg56 Mg 0.33492 0.35099 0.96757 0.0
O57 O 0.36308 0.36182 0.00168 0.0
O58 O 0.39293 0.36842 0.97819 0.0
Mg59 Mg 0.38379 0.36107 0.92947 0.0
C60 C 0.38337 0.36783 0.00169 0.0
C61 C 0.29059 0.32579 0.9965 0.0
O62 O 0.2852 0.31897 0.96909 0.0
O63 O 0.33102 0.31648 0.96177 0.0
O64 O 0.36077 0.32414 0.93717 0.0
O65 O 0.34554 0.38693 0.96154 0.0
O66 O 0.35686 0.3677 0.93565 0.0
C67 C 0.34295 0.3103 0.94865 0.0
C68 C 0.35799 0.38638 0.94165 0.0
O69 O 0.31049 0.33948 0.00357 0.0
Mg70 Mg 0.65553 0.01128 0.03619 0.0
O71 O 0.63031 0.99342 0.99852 0.0
O72 O 0.60005 0.96598 0.01662 0.0
Mg73 Mg 0.60544 0.96704 0.06592 0.0
C74 C 0.61083 0.97706 0.99519 0.0
C75 C 0.70137 0.04069 0.01289 0.0
O76 O 0.70519 0.04603 0.04088 0.0
O77 O 0.662 0.98275 0.04039 0.0
O78 O 0.63154 0.95703 0.06048 0.0
O79 O 0.64303 0.03475 0.04379 0.0
O80 O 0.63055 0.00247 0.06463 0.0
C81 C 0.65061 0.96374 0.05104 0.0
C82 C 0.62921 0.01998 0.06064 0.0
O83 O 0.68206 0.02688 0.00367 0.0
Mg84 Mg 0.6746 0.67306 0.32628 0.0
O85 O 0.6573 0.68303 0.36133 0.0
O86 O 0.63219 0.68725 0.33629 0.0
Mg87 Mg 0.63277 0.68044 0.2878 0.0
C88 C 0.64199 0.68783 0.36025 0.0
C89 C 0.70843 0.66308 0.35036 0.0
O90 O 0.71426 0.67023 0.32405 0.0
O91 O 0.64534 0.6378 0.31993 0.0
O92 O 0.62123 0.64382 0.29536 0.0
O93 O 0.69869 0.70905 0.32065 0.0
O94 O 0.6671 0.69007 0.29594 0.0
C95 C 0.62677 0.63079 0.30693 0.0
C96 C 0.68443 0.70884 0.30232 0.0
O97 O 0.69119 0.66202 0.35989 0.0
Mg98 Mg 0.32536 0.98278 0.38443 0.0
O99 O 0.29647 0.97282 0.35192 0.0
O100 O 0.26762 0.96725 0.37704 0.0
Mg101 Mg 0.27807 0.97395 0.4255 0.0
C102 C 0.27642 0.96757 0.35295 0.0
C103 C 0.36633 0.01105 0.34692 0.0
O104 O 0.37161 0.02536 0.36905 0.0
O105 O 0.33047 0.01772 0.39146 0.0
O106 O 0.30194 0.01084 0.4184 0.0
O107 O 0.3143 0.94679 0.39007 0.0
O108 O 0.30427 0.96648 0.4174 0.0
C109 C 0.31955 0.02437 0.40621 0.0
C110 C 0.30275 0.94765 0.41101 0.0
O111 O 0.34838 0.99273 0.3468 0.0
Mg112 Mg 0.01232 0.32509 0.32108 0.0
O113 O 0.038 0.34047 0.35875 0.0
O114 O 0.06914 0.36672 0.34098 0.0
Mg115 Mg 0.06394 0.36687 0.29176 0.0
C116 C 0.05799 0.35573 0.36222 0.0
C117 C 0.96657 0.29564 0.34464 0.0
O118 O 0.96321 0.28944 0.31688 0.0
O119 O 0.00898 0.35584 0.31868 0.0
O120 O 0.03994 0.37957 0.29776 0.0
O121 O 0.02222 0.29965 0.31158 0.0
O122 O 0.03653 0.33229 0.29159 0.0
C123 C 0.02134 0.37455 0.30767 0.0
C124 C 0.03626 0.31381 0.29435 0.0
O125 O 0.98562 0.31032 0.35378 0.0
Mg126 Mg 0.64982 0.98909 0.38394 0.0
O127 O 0.66476 0.97709 0.34845 0.0
O128 O 0.69028 0.97196 0.37078 0.0
Mg129 Mg 0.69094 0.97914 0.41964 0.0
C130 C 0.67961 0.97171 0.34788 0.0
C131 C 0.61819 0.98641 0.33274 0.0
O132 O 0.61238 0.96532 0.33379 0.0
O133 O 0.68062 0.02383 0.38849 0.0
O134 O 0.70381 0.01589 0.41177 0.0
O135 O 0.6252 0.95333 0.39127 0.0
O136 O 0.65711 0.97222 0.41501 0.0
C137 C 0.69928 0.02984 0.40074 0.0
C138 C 0.63937 0.95362 0.40987 0.0
O139 O 0.63374 0.00046 0.34968 0.0
Mg140 Mg 0.01156 0.68451 0.31171 0.0
O141 O 0.03904 0.69472 0.3469 0.0
O142 O 0.06903 0.70098 0.32394 0.0
Mg143 Mg 0.06127 0.69548 0.27494 0.0
C144 C 0.05922 0.70021 0.34727 0.0
C145 C 0.96834 0.65387 0.34323 0.0
O146 O 0.96494 0.64115 0.31982 0.0
O147 O 0.00809 0.6503 0.30481 0.0
O148 O 0.03789 0.65826 0.28021 0.0
O149 O 0.02089 0.72003 0.3068 0.0
O150 O 0.03476 0.70274 0.28172 0.0
C151 C 0.01993 0.64427 0.29122 0.0
C152 C 0.03472 0.72084 0.28817 0.0
O153 O 0.98608 0.67233 0.34637 0.0
Mg154 Mg 0.32046 0.33775 0.36984 0.0
O155 O 0.29427 0.32063 0.33334 0.0
O156 O 0.26438 0.29295 0.3516 0.0
Mg157 Mg 0.2711 0.29342 0.4006 0.0
C158 C 0.27474 0.30442 0.3302 0.0
C159 C 0.35858 0.37464 0.33745 0.0
O160 O 0.35759 0.38628 0.35972 0.0
O161 O 0.3268 0.30893 0.37135 0.0
O162 O 0.29714 0.2836 0.39324 0.0
O163 O 0.30814 0.36101 0.38034 0.0
O164 O 0.29683 0.32876 0.40058 0.0
C165 C 0.31584 0.29005 0.38262 0.0
C166 C 0.29541 0.34637 0.3982 0.0
O167 O 0.34541 0.35387 0.33548 0.0
Mg168 Mg 0.34683 0.01045 0.6576 0.0
O169 O 0.32974 0.02256 0.68982 0.0
O170 O 0.30737 0.02926 0.66234 0.0
Mg171 Mg 0.30925 0.02133 0.61439 0.0
C172 C 0.31572 0.029 0.68713 0.0
C173 C 0.3714 0.99005 0.68423 0.0
O174 O 0.3723 0.98814 0.65584 0.0
O175 O 0.31607 0.97609 0.65108 0.0
O176 O 0.29513 0.9845 0.62322 0.0
O177 O 0.3725 0.04603 0.65134 0.0
O178 O 0.34214 0.02729 0.62421 0.0
C179 C 0.29844 0.97035 0.63615 0.0
C180 C 0.35977 0.04572 0.63043 0.0
O181 O 0.36072 -0.00113 0.69415 0.0
Mg182 Mg 0.99428 0.31563 0.71941 0.0
O183 O 0.9705 0.30627 0.67947 0.0
O184 O 0.93897 0.30177 0.69569 0.0
Mg185 Mg 0.94146 0.30513 0.74535 0.0
C186 C 0.95092 0.30223 0.67501 0.0
C187 C 0.03647 0.3473 0.6829 0.0
O188 O 0.03459 0.36387 0.69377 0.0
O189 O -0.00211 0.34994 0.72525 0.0
O190 O 0.96585 0.34242 0.74323 0.0
O191 O 0.98367 0.28002 0.72459 0.0
O192 O 0.96817 0.29729 0.74573 0.0
C193 C 0.9851 0.35617 0.73547 0.0
C194 C 0.96849 0.27913 0.74075 0.0
O195 O 0.02293 0.3275 0.68938 0.0
Mg196 Mg 0.67586 0.64495 0.64603 0.0
O197 O 0.70273 0.66268 0.68182 0.0
O198 O 0.73346 0.68704 0.66108 0.0
Mg199 Mg 0.72682 0.6836 0.6117 0.0
C200 C 0.72284 0.67784 0.68359 0.0
C201 C 0.63417 0.63568 0.68076 0.0
O202 O 0.63125 0.64622 0.6594 0.0
O203 O 0.6735 0.67608 0.64013 0.0
O204 O 0.70372 0.69748 0.6162 0.0
O205 O 0.68486 0.61842 0.63994 0.0
O206 O 0.69934 0.6498 0.61658 0.0
C207 C 0.68571 0.69375 0.62685 0.0
C208 C 0.69901 0.63162 0.62204 0.0
O209 O 0.65046 0.63263 0.68078 0.0
Mg210 Mg 0.32255 0.32176 0.70719 0.0
O211 O 0.33924 0.31123 0.67228 0.0
O212 O 0.36452 0.30657 0.6962 0.0
Mg213 Mg 0.36317 0.31211 0.74509 0.0
C214 C 0.35458 0.3065 0.67263 0.0
C215 C 0.29734 0.34354 0.68216 0.0
O216 O 0.29783 0.34744 0.71037 0.0
O217 O 0.35285 0.35668 0.71358 0.0
O218 O 0.37531 0.34888 0.7389 0.0
O219 O 0.29753 0.28589 0.71282 0.0
O220 O 0.32919 0.30389 0.73742 0.0
C221 C 0.37095 0.36283 0.72755 0.0
C222 C 0.31144 0.28548 0.73119 0.0
O223 O 0.30696 0.33343 0.67277 0.0
Mg224 Mg 0.67492 0.01792 0.64324 0.0
O225 O 0.70189 0.02759 0.67906 0.0
O226 O 0.73204 0.03368 0.65678 0.0
Mg227 Mg 0.7249 0.02865 0.60765 0.0
C228 C 0.722 0.03282 0.67989 0.0
C229 C 0.62927 0.99368 0.66888 0.0
O230 O 0.62459 0.98861 0.64092 0.0
O231 O 0.67092 0.98343 0.63624 0.0
O232 O 0.70102 0.99157 0.61226 0.0
O233 O 0.68522 0.0538 0.63839 0.0
O234 O 0.69821 0.03586 0.61313 0.0
C235 C 0.68287 0.97747 0.62272 0.0
C236 C 0.69865 0.05421 0.61937 0.0
O237 O 0.64915 0.00564 0.67746 0.0
Mg238 Mg 0.98531 0.67362 0.6986 0.0
O239 O 0.95807 0.65446 0.66337 0.0
O240 O 0.92909 0.62821 0.68522 0.0
Mg241 Mg 0.93749 0.63054 0.7338 0.0
C242 C 0.93842 0.63824 0.66242 0.0
C243 C 0.02978 0.7006 0.67339 0.0
O244 O 0.03377 0.70356 0.70169 0.0
O245 O 0.9923 0.64539 0.7021 0.0
O246 O 0.96317 0.62035 0.72528 0.0
O247 O 0.97284 0.697 0.70804 0.0
O248 O 0.9626 0.66573 0.73031 0.0
C249 C 0.98158 0.62672 0.71386 0.0
C250 C 0.96085 0.68307 0.72711 0.0
O251 O 0.01016 0.6887 0.6638 0.0
H252 H 0.14853 0.32189 0.2126 0.0
H253 H 0.12349 0.3264 0.24397 0.0
H254 H 0.06948 0.26555 0.2064 0.0
H255 H 0.09479 0.261 0.17485 0.0
H256 H 0.1587 0.28987 0.20876 0.0
H257 H 0.12561 0.32077 0.15057 0.0
H258 H 0.09732 0.32471 0.12514 0.0
H259 H 0.08213 0.2674 0.06929 0.0
H260 H 0.10939 0.26256 0.09649 0.0
H261 H 0.1717 0.26111 0.09601 0.0
H262 H 0.20104 0.2678 0.06317 0.0
H263 H 0.24165 0.33277 0.10501 0.0
H264 H 0.2125 0.32573 0.13791 0.0
H265 H 0.15219 0.28884 0.10104 0.0
H266 H 0.1829 0.2571 0.17862 0.0
H267 H 0.21062 0.25891 0.21358 0.0
H268 H 0.23441 0.32889 0.23008 0.0
H269 H 0.20668 0.32685 0.19553 0.0
C270 C 0.12347 0.2912 0.1913 0.0
C271 C 0.13133 0.3094 0.21126 0.0
C272 C 0.11704 0.312 0.22907 0.0
C273 C 0.09461 0.29635 0.22748 0.0
C274 C 0.08675 0.27775 0.2081 0.0
C275 C 0.10111 0.27524 0.18999 0.0
C276 C 0.139 0.28932 0.17201 0.0
C277 C 0.15713 0.28949 0.18517 0.0
C278 C 0.13697 0.2889 0.14124 0.0
C279 C 0.11935 0.29103 0.12598 0.0
C280 C 0.11579 0.30865 0.13341 0.0
C281 C 0.0998 0.31113 0.1184 0.0
C282 C 0.08735 0.29642 0.09498 0.0
C283 C 0.09104 0.27883 0.0875 0.0
C284 C 0.10682 0.27616 0.10286 0.0
C285 C 0.19008 0.29277 0.11965 0.0
C286 C 0.18707 0.27663 0.09829 0.0
C287 C 0.2038 0.28056 0.07945 0.0
C288 C 0.22374 0.30084 0.08144 0.0
C289 C 0.22672 0.31681 0.1032 0.0
C290 C 0.21005 0.31281 0.12206 0.0
C291 C 0.17187 0.28959 0.13797 0.0
C292 C 0.15325 0.28846 0.12458 0.0
C293 C 0.1737 0.29001 0.16859 0.0
C294 C 0.19297 0.29189 0.18442 0.0
C295 C 0.19454 0.27291 0.1892 0.0
C296 C 0.21024 0.27395 0.20926 0.0
C297 C 0.22465 0.29404 0.22457 0.0
C298 C 0.22376 0.31326 0.21836 0.0
C299 C 0.20792 0.31213 0.19867 0.0
H300 H 0.72464 0.90132 0.24035 0.0
H301 H 0.72151 0.92717 0.27356 0.0
H302 H 0.66271 0.91495 0.22605 0.0
H303 H 0.66445 0.88703 0.19576 0.0
H304 H 0.69975 0.8593 0.23578 0.0
H305 H 0.72239 0.91164 0.14605 0.0
H306 H 0.71555 0.9335 0.11079 0.0
H307 H 0.64604 0.8868 0.11303 0.0
H308 H 0.65339 0.86445 0.14598 0.0
H309 H 0.65426 0.80411 0.14417 0.0
H310 H 0.64725 0.77094 0.11632 0.0
H311 H 0.71657 0.7934 0.12051 0.0
H312 H 0.72296 0.82574 0.15072 0.0
H313 H 0.68843 0.85156 0.12833 0.0
H314 H 0.66213 0.79696 0.1992 0.0
H315 H 0.66056 0.76648 0.22557 0.0
H316 H 0.72533 0.81063 0.26329 0.0
H317 H 0.72733 0.84087 0.23479 0.0
C318 C 0.69512 0.89243 0.21483 0.0
C319 C 0.71111 0.90428 0.23701 0.0
C320 C 0.7094 0.9194 0.25588 0.0
C321 C 0.69184 0.9235 0.25277 0.0
C322 C 0.67631 0.91219 0.22976 0.0
C323 C 0.67766 0.89654 0.21156 0.0
C324 C 0.69558 0.87428 0.19737 0.0
C325 C 0.69791 0.85806 0.21221 0.0
C326 C 0.69229 0.8718 0.16667 0.0
C327 C 0.68831 0.88683 0.14901 0.0
C328 C 0.70572 0.90638 0.13897 0.0
C329 C 0.70174 0.91878 0.11877 0.0
C330 C 0.68022 0.9119 0.10866 0.0
C331 C 0.66289 0.89239 0.11937 0.0
C332 C 0.66696 0.87978 0.13879 0.0
C333 C 0.68904 0.8171 0.14975 0.0
C334 C 0.66789 0.80173 0.13918 0.0
C335 C 0.664 0.7829 0.1228 0.0
C336 C 0.68135 0.77937 0.11564 0.0
C337 C 0.7027 0.79521 0.12586 0.0
C338 C 0.70646 0.8138 0.14303 0.0
C339 C 0.69271 0.83705 0.16673 0.0
C340 C 0.69124 0.85348 0.15182 0.0
C341 C 0.69597 0.83921 0.19731 0.0
C342 C 0.6951 0.82101 0.21432 0.0
C343 C 0.67621 0.79999 0.21259 0.0
C344 C 0.67518 0.78264 0.22824 0.0
C345 C 0.69279 0.78604 0.24675 0.0
C346 C 0.71159 0.8073 0.24894 0.0
C347 C 0.71271 0.82465 0.23286 0.0
H348 H 0.10898 0.85292 0.2164 0.0
H349 H 0.08424 0.82179 0.24544 0.0
H350 H 0.10479 0.78001 0.20139 0.0
H351 H 0.13041 0.81139 0.17421 0.0
H352 H 0.15196 0.87258 0.21767 0.0
H353 H 0.09543 0.83196 0.14295 0.0
H354 H 0.07033 0.79711 0.11624 0.0
H355 H 0.12538 0.79597 0.07893 0.0
H356 H 0.15027 0.82975 0.10705 0.0
H357 H 0.20297 0.87548 0.12765 0.0
H358 H 0.23505 0.89839 0.09983 0.0
H359 H 0.2273 0.95531 0.11768 0.0
H360 H 0.19486 0.93202 0.14569 0.0
H361 H 0.16145 0.86916 0.11154 0.0
H362 H 0.21328 0.89391 0.19304 0.0
H363 H 0.2396 0.91639 0.2322 0.0
H364 H 0.1979 0.94246 0.25726 0.0
H365 H 0.17139 0.91943 0.21835 0.0
C366 C 0.12128 0.83442 0.19274 0.0
C367 C 0.10804 0.83699 0.21299 0.0
C368 C 0.09382 0.81915 0.22945 0.0
C369 C 0.09259 0.79839 0.22591 0.0
C370 C 0.10558 0.79583 0.20515 0.0
C371 C 0.11997 0.8137 0.18911 0.0
C372 C 0.13792 0.85373 0.17727 0.0
C373 C 0.15366 0.87215 0.19429 0.0
C374 C 0.14042 0.85279 0.14681 0.0
C375 C 0.12483 0.83337 0.12758 0.0
C376 C 0.10209 0.82421 0.12899 0.0
C377 C 0.08772 0.8044 0.11337 0.0
C378 C 0.09581 0.79352 0.09568 0.0
C379 C 0.11854 0.80358 0.09282 0.0
C380 C 0.13285 0.82313 0.10869 0.0
C381 C 0.19657 0.90209 0.13857 0.0
C382 C 0.20837 0.89297 0.12593 0.0
C383 C 0.22678 0.90612 0.11022 0.0
C384 C 0.23368 0.92864 0.1066 0.0
C385 C 0.22224 0.93796 0.12003 0.0
C386 C 0.20384 0.92476 0.1361 0.0
C387 C 0.1758 0.88715 0.15224 0.0
C388 C 0.1592 0.86985 0.13474 0.0
C389 C 0.17287 0.88861 0.18231 0.0
C390 C 0.19045 0.90514 0.20258 0.0
C391 C 0.21009 0.90493 0.20644 0.0
C392 C 0.22515 0.91783 0.22893 0.0
C393 C 0.22085 0.93118 0.24811 0.0
C394 C 0.20159 0.9321 0.24327 0.0
C395 C 0.1865 0.91911 0.22087 0.0
H396 H 0.26293 0.15323 0.80161 0.0
H397 H 0.26678 0.18372 0.77201 0.0
H398 H 0.33023 0.22702 0.81385 0.0
H399 H 0.32681 0.19634 0.84175 0.0
H400 H 0.2882 0.13365 0.80347 0.0
H401 H 0.27163 0.17749 0.8728 0.0
H402 H 0.28211 0.21371 0.89613 0.0
H403 H 0.3398 0.21661 0.93473 0.0
H404 H 0.32993 0.18122 0.91037 0.0
H405 H 0.33271 0.13609 0.90831 0.0
H406 H 0.34399 0.11404 0.9361 0.0
H407 H 0.28759 0.0539 0.90107 0.0
H408 H 0.27566 0.07625 0.87428 0.0
H409 H 0.29984 0.14148 0.91081 0.0
H410 H 0.32893 0.11461 0.83485 0.0
H411 H 0.33272 0.08957 0.80028 0.0
H412 H 0.26438 0.06004 0.77413 0.0
H413 H 0.26103 0.08574 0.80801 0.0
C414 C 0.29439 0.1726 0.8243 0.0
C415 C 0.27767 0.16931 0.80425 0.0
C416 C 0.27984 0.1868 0.78752 0.0
C417 C 0.29882 0.20789 0.79048 0.0
C418 C 0.31553 0.21099 0.81055 0.0
C419 C 0.31345 0.1935 0.82694 0.0
C420 C 0.29248 0.15412 0.84181 0.0
C421 C 0.29025 0.13511 0.82704 0.0
C422 C 0.29575 0.15631 0.87252 0.0
C423 C 0.30014 0.17674 0.88943 0.0
C424 C 0.28647 0.1859 0.88641 0.0
C425 C 0.29236 0.20648 0.90001 0.0
C426 C 0.31192 0.21813 0.91703 0.0
C427 C 0.32484 0.20826 0.92135 0.0
C428 C 0.31907 0.18787 0.90764 0.0
C429 C 0.30341 0.10783 0.88899 0.0
C430 C 0.32256 0.11815 0.90685 0.0
C431 C 0.32911 0.10552 0.9226 0.0
C432 C 0.31678 0.08222 0.92066 0.0
C433 C 0.29733 0.07184 0.90324 0.0
C434 C 0.29066 0.08456 0.88758 0.0
C435 C 0.29713 0.12187 0.87231 0.0
C436 C 0.29725 0.13975 0.88731 0.0
C437 C 0.29321 0.11929 0.84176 0.0
C438 C 0.29469 0.102 0.824 0.0
C439 C 0.31469 0.10245 0.82202 0.0
C440 C 0.3168 0.08803 0.80228 0.0
C441 C 0.29891 0.07284 0.78412 0.0
C442 C 0.27863 0.07179 0.78726 0.0
C443 C 0.27661 0.08635 0.80678 0.0
H444 H 0.82226 0.07568 0.819 0.0
H445 H 0.7943 0.05162 0.78218 0.0
H446 H 0.75873 0.08603 0.79943 0.0
H447 H 0.7864 0.10943 0.83694 0.0
H448 H 0.84352 0.12354 0.80866 0.0
H449 H 0.80094 0.07105 0.88413 0.0
H450 H 0.77006 0.05145 0.91608 0.0
H451 H 0.77527 0.11396 0.94263 0.0
H452 H 0.80552 0.13332 0.91045 0.0
H453 H 0.86888 0.19099 0.86474 0.0
H454 H 0.89365 0.2258 0.89124 0.0
H455 H 0.91392 0.19079 0.94893 0.0
H456 H 0.88936 0.15584 0.92151 0.0
H457 H 0.84357 0.13783 0.91483 0.0
H458 H 0.85235 0.16528 0.80137 0.0
H459 H 0.87834 0.19633 0.77346 0.0
H460 H 0.93194 0.19589 0.81965 0.0
H461 H 0.90574 0.16462 0.84773 0.0
C462 C 0.80634 0.09425 0.83072 0.0
C463 C 0.80806 0.07752 0.81545 0.0
C464 C 0.79217 0.06395 0.7942 0.0
C465 C 0.77444 0.06714 0.7874 0.0
C466 C 0.77203 0.08295 0.80418 0.0
C467 C 0.78785 0.09638 0.82567 0.0
C468 C 0.82553 0.11184 0.84768 0.0
C469 C 0.84369 0.12638 0.83203 0.0
C470 C 0.8253 0.11621 0.87782 0.0
C471 C 0.80563 0.10366 0.89505 0.0
C472 C 0.79517 0.08045 0.89646 0.0
C473 C 0.77763 0.0693 0.91473 0.0
C474 C 0.77058 0.08131 0.93202 0.0
C475 C 0.78068 0.1044 0.92991 0.0
C476 C 0.79793 0.11544 0.91151 0.0
C477 C 0.87757 0.17088 0.89079 0.0
C478 C 0.87895 0.19082 0.88271 0.0
C479 C 0.89289 0.21068 0.8982 0.0
C480 C 0.90558 0.21103 0.92244 0.0
C481 C 0.90443 0.19107 0.93031 0.0
C482 C 0.89041 0.17113 0.91471 0.0
C483 C 0.86126 0.14962 0.87576 0.0
C484 C 0.84369 0.13444 0.89168 0.0
C485 C 0.86109 0.14567 0.8454 0.0
C486 C 0.87715 0.16271 0.82664 0.0
C487 C 0.86969 0.17157 0.80514 0.0
C488 C 0.88451 0.18938 0.78937 0.0
C489 C 0.90706 0.19849 0.79458 0.0
C490 C 0.91459 0.18901 0.81518 0.0
C491 C 0.8997 0.17128 0.83125 0.0
H492 H 0.79046 0.665 0.82872 0.0
H493 H 0.76308 0.66029 0.79155 0.0
H494 H 0.78709 0.73093 0.79722 0.0
H495 H 0.81442 0.73544 0.83483 0.0
H496 H 0.8394 0.70191 0.81432 0.0
H497 H 0.78481 0.66805 0.8848 0.0
H498 H 0.75352 0.66207 0.91284 0.0
H499 H 0.78992 0.72993 0.94709 0.0
H500 H 0.82124 0.7359 0.91839 0.0
H501 H 0.88783 0.73555 0.92577 0.0
H502 H 0.91441 0.73163 0.95631 0.0
H503 H 0.89434 0.66808 0.91291 0.0
H504 H 0.86806 0.67224 0.88244 0.0
H505 H 0.84277 0.70793 0.92227 0.0
H506 H 0.90156 0.734 0.84888 0.0
H507 H 0.92727 0.72993 0.81752 0.0
H508 H 0.87558 0.66471 0.78805 0.0
H509 H 0.85014 0.66887 0.81904 0.0
C510 C 0.80422 0.70051 0.83464 0.0
C511 C 0.78934 0.67934 0.82261 0.0
C512 C 0.77371 0.6767 0.80141 0.0
C513 C 0.77298 0.69526 0.79145 0.0
C514 C 0.78736 0.71637 0.80444 0.0
C515 C 0.80284 0.71895 0.82599 0.0
C516 C 0.82322 0.70358 0.85247 0.0
C517 C 0.84028 0.70345 0.83794 0.0
C518 C 0.82417 0.7054 0.88313 0.0
C519 C 0.80517 0.70248 0.89931 0.0
C520 C 0.78593 0.68174 0.89799 0.0
C521 C 0.76816 0.67829 0.91422 0.0
C522 C 0.76933 0.69552 0.9322 0.0
C523 C 0.78853 0.71643 0.9332 0.0
C524 C 0.80642 0.71983 0.91699 0.0
C525 C 0.87617 0.70437 0.9015 0.0
C526 C 0.88932 0.72089 0.9227 0.0
C527 C 0.90444 0.71855 0.94022 0.0
C528 C 0.90659 0.69954 0.93708 0.0
C529 C 0.89349 0.68314 0.9156 0.0
C530 C 0.87841 0.6855 0.89811 0.0
C531 C 0.85916 0.70611 0.88408 0.0
C532 C 0.84242 0.70727 0.89865 0.0
C533 C 0.85798 0.70425 0.85331 0.0
C534 C 0.87407 0.70168 0.83628 0.0
C535 C 0.89591 0.71882 0.83577 0.0
C536 C 0.91045 0.71657 0.81774 0.0
C537 C 0.9033 0.69703 0.80043 0.0
C538 C 0.88149 0.67987 0.80132 0.0
C539 C 0.86698 0.68223 0.81896 0.0
H540 H 0.79529 0.64925 0.50261 0.0
H541 H 0.76973 0.65125 0.53535 0.0
H542 H 0.74792 0.58403 0.56029 0.0
H543 H 0.77289 0.58174 0.52606 0.0
H544 H 0.8164 0.60699 0.53057 0.0
H545 H 0.81663 0.6591 0.4358 0.0
H546 H 0.79256 0.66889 0.40948 0.0
H547 H 0.73663 0.60653 0.43097 0.0
H548 H 0.76092 0.59665 0.45726 0.0
H549 H 0.85625 0.59293 0.45621 0.0
H550 H 0.88867 0.60013 0.42943 0.0
H551 H 0.9007 0.666 0.41217 0.0
H552 H 0.8685 0.6588 0.43901 0.0
H553 H 0.82651 0.6287 0.42776 0.0
H554 H 0.83612 0.58095 0.52441 0.0
H555 H 0.86282 0.58388 0.5616 0.0
H556 H 0.90397 0.65336 0.54409 0.0
H557 H 0.87761 0.65002 0.50644 0.0
C558 C 0.78571 0.6152 0.51146 0.0
C559 C 0.78461 0.63471 0.51449 0.0
C560 C 0.77026 0.63597 0.53368 0.0
C561 C 0.75702 0.6179 0.55077 0.0
C562 C 0.75782 0.59819 0.54734 0.0
C563 C 0.7721 0.59688 0.52787 0.0
C564 C 0.80274 0.6149 0.49358 0.0
C565 C 0.8182 0.61098 0.50776 0.0
C566 C 0.80574 0.62148 0.46435 0.0
C567 C 0.79066 0.62708 0.44847 0.0
C568 C 0.79921 0.64741 0.43471 0.0
C569 C 0.78541 0.65302 0.41969 0.0
C570 C 0.76269 0.63845 0.41802 0.0
C571 C 0.75405 0.61819 0.43209 0.0
C572 C 0.76792 0.61251 0.44705 0.0
C573 C 0.86 0.62533 0.44954 0.0
C574 C 0.866 0.60896 0.44682 0.0
C575 C 0.88441 0.61304 0.43145 0.0
C576 C 0.8972 0.63364 0.41882 0.0
C577 C 0.8913 0.65008 0.42197 0.0
C578 C 0.87282 0.64592 0.43706 0.0
C579 C 0.84015 0.62097 0.46493 0.0
C580 C 0.82422 0.62393 0.45025 0.0
C581 C 0.8372 0.61465 0.49415 0.0
C582 C 0.85494 0.61522 0.51258 0.0
C583 C 0.85119 0.59663 0.52812 0.0
C584 C 0.86639 0.59841 0.54955 0.0
C585 C 0.88546 0.61894 0.55618 0.0
C586 C 0.88966 0.63722 0.53941 0.0
C587 C 0.87456 0.63535 0.51782 0.0
H588 H 0.40469 0.25921 0.52992 0.0
H589 H 0.39953 0.28537 0.56127 0.0
H590 H 0.34058 0.23056 0.59267 0.0
H591 H 0.34605 0.20461 0.56207 0.0
H592 H 0.38162 0.1974 0.56359 0.0
H593 H 0.39927 0.2398 0.45077 0.0
H594 H 0.38546 0.25728 0.41732 0.0
H595 H 0.32821 0.23516 0.46865 0.0
H596 H 0.34154 0.21707 0.50096 0.0
H597 H 0.34212 0.15577 0.45638 0.0
H598 H 0.32949 0.1205 0.42987 0.0
H599 H 0.38503 0.1174 0.46504 0.0
H600 H 0.39826 0.1535 0.49065 0.0
H601 H 0.37552 0.19473 0.45575 0.0
H602 H 0.34274 0.13949 0.53016 0.0
H603 H 0.33875 0.10788 0.5568 0.0
H604 H 0.4078 0.14434 0.58079 0.0
H605 H 0.41137 0.17629 0.55485 0.0
C606 C 0.37585 0.22999 0.54389 0.0
C607 C 0.39066 0.25291 0.54353 0.0
C608 C 0.38768 0.26779 0.56134 0.0
C609 C 0.36956 0.25996 0.57917 0.0
C610 C 0.35452 0.23706 0.57887 0.0
C611 C 0.35776 0.22222 0.56164 0.0
C612 C 0.37889 0.21379 0.5259 0.0
C613 C 0.38081 0.19713 0.53997 0.0
C614 C 0.37751 0.21316 0.49512 0.0
C615 C 0.37166 0.22755 0.47871 0.0
C616 C 0.38396 0.23915 0.45505 0.0
C617 C 0.37602 0.24902 0.43592 0.0
C618 C 0.35558 0.24723 0.44008 0.0
C619 C 0.34379 0.23638 0.46448 0.0
C620 C 0.35165 0.22649 0.48344 0.0
C621 C 0.37108 0.15726 0.47576 0.0
C622 C 0.35188 0.14778 0.45799 0.0
C623 C 0.34453 0.12747 0.44302 0.0
C624 C 0.35611 0.11602 0.4456 0.0
C625 C 0.37581 0.12589 0.46247 0.0
C626 C 0.38327 0.14639 0.47738 0.0
C627 C 0.37729 0.17794 0.49337 0.0
C628 C 0.37755 0.19568 0.47931 0.0
C629 C 0.3795 0.17897 0.52411 0.0
C630 C 0.37737 0.16002 0.54037 0.0
C631 C 0.35698 0.14062 0.5412 0.0
C632 C 0.3548 0.12254 0.55629 0.0
C633 C 0.37302 0.12344 0.57071 0.0
C634 C 0.39341 0.14313 0.57017 0.0
C635 C 0.39552 0.16133 0.55524 0.0
H636 H 0.76506 0.16951 0.51295 0.0
H637 H 0.73751 0.13921 0.54119 0.0
H638 H 0.78876 0.13387 0.58622 0.0
H639 H 0.81617 0.16418 0.55847 0.0
H640 H 0.82746 0.20708 0.5513 0.0
H641 H 0.77977 0.17453 0.43928 0.0
H642 H 0.75351 0.13903 0.41421 0.0
H643 H 0.7743 0.10464 0.47224 0.0
H644 H 0.80072 0.13991 0.49632 0.0
H645 H 0.86428 0.19943 0.44596 0.0
H646 H 0.89372 0.22014 0.41315 0.0
H647 H 0.89691 0.28117 0.44265 0.0
H648 H 0.86686 0.26018 0.47532 0.0
H649 H 0.82556 0.19296 0.44479 0.0
H650 H 0.88783 0.22911 0.51166 0.0
H651 H 0.91762 0.25465 0.5451 0.0
H652 H 0.87389 0.27287 0.58603 0.0
H653 H 0.84516 0.24919 0.55077 0.0
C654 C 0.7926 0.16898 0.53361 0.0
C655 C 0.77033 0.16206 0.5293 0.0
C656 C 0.75468 0.14492 0.54546 0.0
C657 C 0.76118 0.1344 0.56575 0.0
C658 C 0.78348 0.14186 0.5707 0.0
C659 C 0.79908 0.15915 0.55494 0.0
C660 C 0.80921 0.18536 0.51473 0.0
C661 C 0.82702 0.2044 0.52787 0.0
C662 C 0.80865 0.18122 0.4844 0.0
C663 C 0.79197 0.15983 0.46995 0.0
C664 C 0.77856 0.15928 0.44656 0.0
C665 C 0.76354 0.13901 0.43234 0.0
C666 C 0.76192 0.11902 0.44107 0.0
C667 C 0.77535 0.11973 0.46461 0.0
C668 C 0.79027 0.13989 0.47872 0.0
C669 C 0.86324 0.22821 0.463 0.0
C670 C 0.87119 0.21726 0.44535 0.0
C671 C 0.88801 0.22909 0.42658 0.0
C672 C 0.8974 0.25219 0.42519 0.0
C673 C 0.88994 0.26334 0.44342 0.0
C674 C 0.87283 0.2514 0.46207 0.0
C675 C 0.84441 0.21489 0.48137 0.0
C676 C 0.82592 0.19638 0.46803 0.0
C677 C 0.8449 0.21912 0.5118 0.0
C678 C 0.86418 0.23726 0.52844 0.0
C679 C 0.88495 0.23935 0.52702 0.0
C680 C 0.90193 0.2537 0.54671 0.0
C681 C 0.89833 0.26577 0.5689 0.0
C682 C 0.87773 0.26434 0.56924 0.0
C683 C 0.86103 0.25049 0.54913 0.0
H684 H 0.93479 0.50647 0.1667 0.0
H685 H 0.93608 0.53769 0.14113 0.0
H686 H 0.99288 0.54672 0.09655 0.0
H687 H 0.99133 0.51532 0.12159 0.0
H688 H 0.96211 0.47157 0.12628 0.0
H689 H 0.94733 0.50128 0.24163 0.0
H690 H 0.95988 0.53625 0.26996 0.0
H691 H 0.01206 0.57006 0.21052 0.0
H692 H 0.00023 0.53522 0.18353 0.0
H693 H 0.00357 0.45505 0.19186 0.0
H694 H 0.01546 0.43558 0.22398 0.0
H695 H 0.95906 0.41681 0.27603 0.0
H696 H 0.9467 0.4357 0.2428 0.0
H697 H 0.97051 0.48047 0.234 0.0
H698 H -0.00247 0.46386 0.12825 0.0
H699 H 0.00108 0.43561 0.10007 0.0
H700 H 0.94316 0.38413 0.13827 0.0
H701 H 0.93991 0.41261 0.16706 0.0
C702 C 0.96299 0.50863 0.14606 0.0
C703 C 0.94725 0.51492 0.151 0.0
C704 C 0.94795 0.53265 0.13639 0.0
C705 C 0.96461 0.54452 0.11704 0.0
C706 C 0.97991 0.53777 0.11144 0.0
C707 C 0.97897 0.51981 0.12558 0.0
C708 C 0.96397 0.49167 0.16388 0.0
C709 C 0.96367 0.47335 0.14986 0.0
C710 C 0.96669 0.49436 0.19458 0.0
C711 C 0.97254 0.51571 0.21007 0.0
C712 C 0.96137 0.51632 0.23467 0.0
C713 C 0.96853 0.53629 0.25079 0.0
C714 C 0.9871 0.55591 0.24268 0.0
C715 C -0.00204 0.55521 0.21775 0.0
C716 C 0.99091 0.53533 0.20186 0.0
C717 C 0.97397 0.44636 0.2145 0.0
C718 C 0.99344 0.44626 0.2097 0.0
C719 C 0.00046 0.43552 0.22851 0.0
C720 C 0.98836 0.42492 0.25283 0.0
C721 C 0.96869 0.42477 0.25744 0.0
C722 C 0.96161 0.43551 0.23848 0.0
C723 C 0.96809 0.46007 0.19654 0.0
C724 C 0.96772 0.47801 0.21055 0.0
C725 C 0.96624 0.4578 0.16578 0.0
C726 C 0.9684 0.44032 0.1496 0.0
C727 C 0.98568 0.44649 0.13073 0.0
C728 C 0.98782 0.43034 0.11489 0.0
C729 C 0.97247 0.40769 0.11716 0.0
C730 C 0.95523 0.40148 0.13622 0.0
C731 C 0.95335 0.41769 0.15258 0.0
H732 H 0.48546 0.41941 0.14054 0.0
H733 H 0.45953 0.39518 0.10183 0.0
H734 H 0.41832 0.42325 0.11972 0.0
H735 H 0.44409 0.44704 0.15865 0.0
H736 H 0.50642 0.46569 0.13835 0.0
H737 H 0.46106 0.41084 0.21406 0.0
H738 H 0.42963 0.39025 0.24463 0.0
H739 H 0.42066 0.4473 0.25063 0.0
H740 H 0.45235 0.46784 0.22095 0.0
H741 H 0.51128 0.51921 0.23566 0.0
H742 H 0.53832 0.55171 0.26401 0.0
H743 H 0.58518 0.52938 0.254 0.0
H744 H 0.55823 0.49776 0.22348 0.0
H745 H 0.49386 0.474 0.24246 0.0
H746 H 0.53023 0.52846 0.1788 0.0
H747 H 0.55828 0.55852 0.15246 0.0
H748 H 0.57656 0.51312 0.11372 0.0
H749 H 0.54931 0.48321 0.14231 0.0
C750 C 0.46663 0.43488 0.15268 0.0
C751 C 0.47059 0.41997 0.13649 0.0
C752 C 0.45582 0.40626 0.11422 0.0
C753 C 0.43689 0.40736 0.10744 0.0
C754 C 0.43254 0.42169 0.12455 0.0
C755 C 0.44728 0.43533 0.1469 0.0
C756 C 0.48391 0.45185 0.17288 0.0
C757 C 0.50399 0.46706 0.16137 0.0
C758 C 0.48014 0.45476 0.20226 0.0
C759 C 0.45898 0.44081 0.21551 0.0
C760 C 0.45197 0.41865 0.2215 0.0
C761 C 0.43403 0.40695 0.23892 0.0
C762 C 0.42292 0.41731 0.25044 0.0
C763 C 0.4292 0.43905 0.24268 0.0
C764 C 0.44716 0.45073 0.22554 0.0
C765 C 0.53281 0.5062 0.22732 0.0
C766 C 0.52737 0.52131 0.23975 0.0
C767 C 0.54292 0.53985 0.25631 0.0
C768 C 0.56418 0.54342 0.26167 0.0
C769 C 0.56925 0.52765 0.24999 0.0
C770 C 0.5538 0.50939 0.23269 0.0
C771 C 0.51655 0.48743 0.20817 0.0
C772 C 0.4967 0.47208 0.21973 0.0
C773 C 0.51997 0.48534 0.17832 0.0
C774 C 0.53807 0.50369 0.16328 0.0
C775 C 0.54074 0.52506 0.16547 0.0
C776 C 0.55649 0.54218 0.14975 0.0
C777 C 0.56954 0.53822 0.13063 0.0
C778 C 0.56694 0.5168 0.12846 0.0
C779 C 0.55132 0.49967 0.14466 0.0
H780 H 0.55069 0.06402 0.15526 0.0
H781 H 0.57621 0.06218 0.12194 0.0
H782 H 0.55879 0.99721 0.15222 0.0
H783 H 0.53227 -0.00146 0.18387 0.0
H784 H 0.50813 0.03698 0.15073 0.0
H785 H 0.56418 0.05237 0.22632 0.0
H786 H 0.58913 0.04319 0.25217 0.0
H787 H 0.53393 0.98133 0.2768 0.0
H788 H 0.50925 0.99024 0.25025 0.0
H789 H 0.45682 0.99307 0.24755 0.0
H790 H 0.42658 0.98987 0.27575 0.0
H791 H 0.44166 0.05545 0.2513 0.0
H792 H 0.47212 0.05861 0.22304 0.0
H793 H 0.49936 0.02182 0.2557 0.0
H794 H 0.44366 0.00271 0.18424 0.0
H795 H 0.41699 -4e-05 0.14798 0.0
H796 H 0.46769 0.0576 0.10707 0.0
H797 H 0.49341 0.06194 0.14575 0.0
C798 C 0.53975 0.03153 0.1723 0.0
C799 C 0.55252 0.04945 0.15482 0.0
C800 C 0.56719 0.04843 0.13589 0.0
C801 C 0.56943 0.02947 0.13419 0.0
C802 C 0.55714 0.01187 0.1525 0.0
C803 C 0.54226 0.01278 0.17108 0.0
C804 C 0.52216 0.03149 0.18924 0.0
C805 C 0.5065 0.03446 0.17395 0.0
C806 C 0.5195 0.02659 0.21905 0.0
C807 C 0.53481 0.02192 0.23609 0.0
C808 C 0.55748 0.0368 0.23722 0.0
C809 C 0.57172 0.0316 0.25218 0.0
C810 C 0.56357 0.01142 0.26639 0.0
C811 C 0.54083 0.99681 0.26568 0.0
C812 C 0.52665 0.00201 0.25077 0.0
C813 C 0.46669 0.02606 0.23322 0.0
C814 C 0.45357 0.00673 0.24816 0.0
C815 C 0.43619 0.00485 0.26405 0.0
C816 C 0.43173 0.02238 0.26559 0.0
C817 C 0.44481 0.04173 0.25052 0.0
C818 C 0.4621 0.04351 0.23431 0.0
C819 C 0.48551 0.02805 0.21728 0.0
C820 C 0.5013 0.02522 0.23272 0.0
C821 C 0.48794 0.03243 0.18726 0.0
C822 C 0.47071 0.03267 0.16812 0.0
C823 C 0.44885 0.01544 0.16837 0.0
C824 C 0.43362 0.01351 0.14686 0.0
C825 C 0.44003 0.02813 0.12368 0.0
C826 C 0.46173 0.046 0.12437 0.0
C827 C 0.4767 0.04839 0.1465 0.0
H828 H 0.47576 0.97845 0.8875 0.0
H829 H 0.44644 0.97534 0.91781 0.0
H830 H 0.39852 0.92498 0.85779 0.0
H831 H 0.42787 0.92695 0.82824 0.0
H832 H 0.49098 0.9548 0.87374 0.0
H833 H 0.46003 0.98893 0.81679 0.0
H834 H 0.43383 0.99508 0.78896 0.0
H835 H 0.41795 0.93768 0.73295 0.0
H836 H 0.44458 0.932 0.7605 0.0
H837 H 0.50723 0.93178 0.7616 0.0
H838 H 0.53717 0.93811 0.73015 0.0
H839 H 0.57805 0.00233 0.77372 0.0
H840 H 0.54817 0.99571 0.8052 0.0
H841 H 0.48845 0.9604 0.76657 0.0
H842 H 0.51916 0.92712 0.84349 0.0
H843 H 0.54775 0.93006 0.87783 0.0
H844 H 0.56799 -0.00098 0.89662 0.0
H845 H 0.53943 0.99585 0.86268 0.0
C846 C 0.45408 0.95317 0.85526 0.0
C847 C 0.459 0.96637 0.88107 0.0
C848 C 0.44231 0.96457 0.89844 0.0
C849 C 0.42042 0.94983 0.89007 0.0
C850 C 0.41538 0.93637 0.8646 0.0
C851 C 0.43212 0.93775 0.84756 0.0
C852 C 0.47203 0.95549 0.83676 0.0
C853 C 0.49032 0.95614 0.85031 0.0
C854 C 0.47147 0.95739 0.80616 0.0
C855 C 0.45424 0.95997 0.79075 0.0
C856 C 0.45068 0.9775 0.79875 0.0
C857 C 0.4356 0.98094 0.78286 0.0
C858 C 0.42381 0.96695 0.75858 0.0
C859 C 0.42701 0.94903 0.75118 0.0
C860 C 0.44216 0.94568 0.76697 0.0
C861 C 0.52562 0.96314 0.78595 0.0
C862 C 0.52274 0.94711 0.76449 0.0
C863 C 0.53982 0.95081 0.74647 0.0
C864 C 0.56003 0.97073 0.74944 0.0
C865 C 0.56287 0.98665 0.77121 0.0
C866 C 0.5458 0.9829 0.78923 0.0
C867 C 0.50713 0.95978 0.80377 0.0
C868 C 0.48874 0.95879 0.78997 0.0
C869 C 0.50801 0.95879 0.83429 0.0
C870 C 0.52738 0.96132 0.85056 0.0
C871 C 0.53016 0.94296 0.85453 0.0
C872 C 0.54638 0.94464 0.87418 0.0
C873 C 0.5601 0.96477 0.88986 0.0
C874 C 0.55792 0.9834 0.88456 0.0
C875 C 0.54157 0.98161 0.86528 0.0
H876 H 0.05928 0.56951 0.90252 0.0
H877 H 0.05691 0.59668 0.93403 0.0
H878 H -0.00237 0.58341 0.88689 0.0
H879 H -0.00138 0.55428 0.85842 0.0
H880 H 0.03427 0.52753 0.90046 0.0
H881 H 0.05544 0.57685 0.808 0.0
H882 H 0.0481 0.5978 0.77182 0.0
H883 H 0.97872 0.55101 0.77579 0.0
H884 H 0.98655 0.52955 0.80967 0.0
H885 H 0.98621 0.46643 0.82113 0.0
H886 H 0.97795 0.4324 0.79435 0.0
H887 H 0.04681 0.45992 0.77887 0.0
H888 H 0.0549 0.49329 0.80809 0.0
H889 H 0.02086 0.51588 0.79339 0.0
H890 H 0.99464 0.4659 0.87325 0.0
H891 H 0.99408 0.43576 0.89937 0.0
H892 H 0.06287 0.4777 0.92272 0.0
H893 H 0.0635 0.50735 0.89427 0.0
C894 C 0.02945 0.56002 0.87737 0.0
C895 C 0.0458 0.57251 0.89889 0.0
C896 C 0.04453 0.58839 0.91677 0.0
C897 C 0.02706 0.59259 0.91327 0.0
C898 C 0.01118 0.58061 0.89088 0.0
C899 C 0.01209 0.56423 0.8737 0.0
C900 C 0.02947 0.54118 0.86106 0.0
C901 C 0.0319 0.52543 0.87695 0.0
C902 C 0.02567 0.53762 0.83046 0.0
C903 C 0.02146 0.55205 0.81186 0.0
C904 C 0.0387 0.57136 0.80104 0.0
C905 C 0.03443 0.58324 0.78033 0.0
C906 C 0.01279 0.57609 0.77048 0.0
C907 C 0.99565 0.55678 0.78189 0.0
C908 C 0.0 0.54468 0.80183 0.0
C909 C 0.02116 0.482 0.81716 0.0
C910 C -0.00048 0.46489 0.81239 0.0
C911 C 0.99483 0.44559 0.79649 0.0
C912 C 0.01166 0.4433 0.78399 0.0
C913 C 0.03341 0.46081 0.78847 0.0
C914 C 0.03811 0.47995 0.80508 0.0
C915 C 0.02562 0.50272 0.83277 0.0
C916 C 0.02415 0.51869 0.81676 0.0
C917 C 0.02952 0.50603 0.8632 0.0
C918 C 0.02922 0.48857 0.88115 0.0
C919 C 0.00967 0.46847 0.88358 0.0
C920 C 0.00933 0.45137 0.89908 0.0
C921 C 0.02844 0.4542 0.91332 0.0
C922 C 0.04793 0.47474 0.91165 0.0
C923 C 0.0483 0.49179 0.89564 0.0
H924 H 0.4414 0.51727 0.87026 0.0
H925 H 0.41225 0.48598 0.89505 0.0
H926 H 0.44207 0.4464 0.87405 0.0
H927 H 0.47043 0.47732 0.84856 0.0
H928 H 0.49006 0.53725 0.88044 0.0
H929 H 0.43151 0.49497 0.80684 0.0
H930 H 0.40616 0.45923 0.78218 0.0
H931 H 0.46092 0.45564 0.74831 0.0
H932 H 0.48605 0.49044 0.7744 0.0
H933 H 0.53744 0.53863 0.78416 0.0
H934 H 0.56874 0.56197 0.75534 0.0
H935 H 0.5618 0.61876 0.77784 0.0
H936 H 0.53014 0.59506 0.80692 0.0
H937 H 0.49609 0.53064 0.77387 0.0
H938 H 0.55343 0.56364 0.84553 0.0
H939 H 0.58231 0.58933 0.87951 0.0
H940 H 0.53594 0.60254 0.92278 0.0
H941 H 0.5079 0.57893 0.88647 0.0
C942 C 0.45777 0.49939 0.85726 0.0
C943 C 0.44155 0.50179 0.87111 0.0
C944 C 0.425 0.48396 0.88536 0.0
C945 C 0.42464 0.46356 0.88624 0.0
C946 C 0.44146 0.46162 0.87315 0.0
C947 C 0.45779 0.47932 0.85873 0.0
C948 C 0.4748 0.51771 0.84106 0.0
C949 C 0.49122 0.53629 0.857 0.0
C950 C 0.47651 0.51556 0.81069 0.0
C951 C 0.46076 0.49525 0.79307 0.0
C952 C 0.43805 0.48644 0.79419 0.0
C953 C 0.42355 0.46613 0.77971 0.0
C954 C 0.43149 0.4544 0.76351 0.0
C955 C 0.45421 0.46396 0.76107 0.0
C956 C 0.46864 0.48404 0.77578 0.0
C957 C 0.5315 0.56515 0.79759 0.0
C958 C 0.54273 0.55614 0.78307 0.0
C959 C 0.56071 0.56953 0.76681 0.0
C960 C 0.56774 0.59219 0.76448 0.0
C961 C 0.55664 0.60132 0.77926 0.0
C962 C 0.53868 0.58788 0.79591 0.0
C963 C 0.51174 0.55016 0.81328 0.0
C964 C 0.49471 0.53218 0.79718 0.0
C965 C 0.51011 0.55235 0.84371 0.0
C966 C 0.52841 0.56958 0.86281 0.0
C967 C 0.54967 0.57284 0.86144 0.0
C968 C 0.56617 0.58723 0.88156 0.0
C969 C 0.56169 0.59807 0.90443 0.0
C970 C 0.54044 0.59504 0.90537 0.0
C971 C 0.52415 0.58119 0.8847 0.0
H972 H 0.5919 0.8228 0.4833 0.0
H973 H 0.59442 0.85469 0.45825 0.0
H974 H 0.66471 0.88947 0.47214 0.0
H975 H 0.66185 0.85803 0.49801 0.0
H976 H 0.61906 0.7986 0.47206 0.0
H977 H 0.60722 0.84531 0.54395 0.0
H978 H 0.6194 0.8818 0.56762 0.0
H979 H 0.67882 0.88431 0.59843 0.0
H980 H 0.66724 0.8487 0.57346 0.0
H981 H 0.66836 0.80295 0.57282 0.0
H982 H 0.68074 0.78113 0.59906 0.0
H983 H 0.62208 0.72084 0.5696 0.0
H984 H 0.60912 0.743 0.5445 0.0
H985 H 0.63615 0.80928 0.57846 0.0
H986 H 0.66173 0.78213 0.49829 0.0
H987 H 0.66396 0.75505 0.46582 0.0
H988 H 0.59375 0.72079 0.45099 0.0
H989 H 0.59196 0.7487 0.48238 0.0
C990 C 0.62667 0.83824 0.49271 0.0
C991 C 0.60781 0.8373 0.4807 0.0
C992 C 0.60931 0.85551 0.46632 0.0
C993 C 0.62975 0.87482 0.46346 0.0
C994 C 0.64865 0.87518 0.47456 0.0
C995 C 0.64709 0.85714 0.48914 0.0
C996 C 0.62529 0.82002 0.51007 0.0
C997 C 0.62224 0.80063 0.49546 0.0
C998 C 0.63034 0.82316 0.54038 0.0
C999 C 0.63645 0.84438 0.55651 0.0
C1000 C 0.62291 0.8538 0.55568 0.0
C1001 C 0.62976 0.87452 0.56956 0.0
C1002 C 0.65017 0.88604 0.58474 0.0
C1003 C 0.6632 0.87608 0.58651 0.0
C1004 C 0.65648 0.85558 0.57244 0.0
C1005 C 0.63788 0.77461 0.55647 0.0
C1006 C 0.65797 0.78504 0.57231 0.0
C1007 C 0.66513 0.77254 0.58713 0.0
C1008 C 0.65248 0.74926 0.58622 0.0
C1009 C 0.6321 0.73878 0.57092 0.0
C1010 C 0.62482 0.75138 0.55622 0.0
C1011 C 0.63104 0.78843 0.54033 0.0
C1012 C 0.63225 0.80686 0.55521 0.0
C1013 C 0.62578 0.78512 0.51008 0.0
C1014 C 0.62669 0.76745 0.49257 0.0
C1015 C 0.64683 0.76864 0.48818 0.0
C1016 C 0.64802 0.75298 0.46978 0.0
C1017 C 0.62905 0.73568 0.4555 0.0
C1018 C 0.60878 0.7341 0.46103 0.0
C1019 C 0.60766 0.74996 0.47909 0.0
H1020 H 0.16115 0.74846 0.48553 0.0
H1021 H 0.13452 0.72432 0.44742 0.0
H1022 H 0.0944 0.75343 0.46676 0.0
H1023 H 0.12078 0.77695 0.50536 0.0
H1024 H 0.18159 0.79581 0.48195 0.0
H1025 H 0.13426 0.73844 0.54999 0.0
H1026 H 0.10171 0.71639 0.57847 0.0
H1027 H 0.10269 0.77647 0.607 0.0
H1028 H 0.13448 0.79827 0.57811 0.0
H1029 H 0.18304 0.84344 0.58683 0.0
H1030 H 0.20776 0.8781 0.61353 0.0
H1031 H 0.2631 0.87464 0.58168 0.0
H1032 H 0.23815 0.83913 0.5562 0.0
H1033 H 0.1727 0.8036 0.58747 0.0
H1034 H 0.19771 0.85542 0.51437 0.0
H1035 H 0.22366 0.88655 0.48689 0.0
H1036 H 0.25644 0.85017 0.46399 0.0
H1037 H 0.22961 0.81856 0.49087 0.0
C1038 C 0.14288 0.76438 0.49835 0.0
C1039 C 0.14635 0.74923 0.48196 0.0
C1040 C 0.13118 0.73558 0.46003 0.0
C1041 C 0.1124 0.73709 0.45372 0.0
C1042 C 0.1085 0.75158 0.47118 0.0
C1043 C 0.1236 0.76509 0.49327 0.0
C1044 C 0.16061 0.78139 0.51792 0.0
C1045 C 0.17989 0.79714 0.50521 0.0
C1046 C 0.15776 0.78408 0.54779 0.0
C1047 C 0.13693 0.77002 0.56214 0.0
C1048 C 0.12717 0.74677 0.56187 0.0
C1049 C 0.10867 0.73423 0.57813 0.0
C1050 C 0.10002 0.74489 0.59507 0.0
C1051 C 0.1093 0.76798 0.59437 0.0
C1052 C 0.12746 0.7804 0.57793 0.0
C1053 C 0.20867 0.8387 0.56915 0.0
C1054 C 0.20048 0.84984 0.58602 0.0
C1055 C 0.21466 0.86982 0.6011 0.0
C1056 C 0.23743 0.87932 0.59949 0.0
C1057 C 0.24566 0.86773 0.58357 0.0
C1058 C 0.2314 0.84756 0.56865 0.0
C1059 C 0.19326 0.81835 0.55138 0.0
C1060 C 0.17465 0.80188 0.56436 0.0
C1061 C 0.19567 0.81609 0.52123 0.0
C1062 C 0.21202 0.8349 0.50498 0.0
C1063 C 0.21057 0.85422 0.50355 0.0
C1064 C 0.2255 0.87204 0.48791 0.0
C1065 C 0.24235 0.87102 0.47349 0.0
C1066 C 0.24358 0.85146 0.47465 0.0
C1067 C 0.22841 0.83346 0.49014 0.0
H1068 H 0.12777 0.33158 0.49226 0.0
H1069 H 0.1003 0.32994 0.45757 0.0
H1070 H 0.1194 0.39779 0.48206 0.0
H1071 H 0.14681 0.3992 0.5173 0.0
H1072 H 0.17318 0.36462 0.48615 0.0
H1073 H 0.11692 0.33604 0.55196 0.0
H1074 H 0.08698 0.33212 0.58107 0.0
H1075 H 0.13108 0.3936 0.62872 0.0
H1076 H 0.1609 0.39803 0.59821 0.0
H1077 H 0.22307 0.39771 0.59655 0.0
H1078 H 0.25018 0.39367 0.62569 0.0
H1079 H 0.22893 0.32999 0.58195 0.0
H1080 H 0.20209 0.33424 0.55287 0.0
H1081 H 0.17829 0.37115 0.59407 0.0
H1082 H 0.2357 0.3955 0.52094 0.0
H1083 H 0.26123 0.3914 0.48934 0.0
H1084 H 0.20873 0.32746 0.45714 0.0
H1085 H 0.18345 0.33161 0.48853 0.0
C1086 C 0.13924 0.36549 0.5073 0.0
C1087 C 0.12569 0.34593 0.49064 0.0
C1088 C 0.10994 0.34499 0.47095 0.0
C1089 C 0.10772 0.36375 0.46714 0.0
C1090 C 0.12082 0.38312 0.48458 0.0
C1091 C 0.13637 0.38392 0.50472 0.0
C1092 C 0.15788 0.36717 0.52477 0.0
C1093 C 0.17432 0.3661 0.50978 0.0
C1094 C 0.15933 0.36919 0.5555 0.0
C1095 C 0.14107 0.36756 0.57249 0.0
C1096 C 0.12007 0.34901 0.56811 0.0
C1097 C 0.10301 0.3466 0.58514 0.0
C1098 C 0.10666 0.36248 0.60735 0.0
C1099 C 0.12767 0.3812 0.61156 0.0
C1100 C 0.14476 0.38368 0.59431 0.0
C1101 C 0.21072 0.36644 0.57223 0.0
C1102 C 0.22438 0.38296 0.59314 0.0
C1103 C 0.23982 0.38057 0.60985 0.0
C1104 C 0.24182 0.36151 0.60615 0.0
C1105 C 0.22819 0.34508 0.58502 0.0
C1106 C 0.21278 0.34748 0.56836 0.0
C1107 C 0.19364 0.36844 0.55537 0.0
C1108 C 0.1775 0.37033 0.57044 0.0
C1109 C 0.19196 0.36641 0.52462 0.0
C1110 C 0.2078 0.36379 0.50708 0.0
C1111 C 0.22982 0.38058 0.50718 0.0
C1112 C 0.24427 0.37832 0.48901 0.0
C1113 C 0.23685 0.35915 0.47086 0.0
C1114 C 0.21484 0.34233 0.47107 0.0
C1115 C 0.20043 0.34469 0.48891 0.0
C1116 C 0.95775 0.36385 0.0572 0.0
C1117 C 0.97799 0.36517 0.05284 0.0
H1118 H 0.94008 0.37603 0.08145 0.0
C1119 C 0.99563 0.37831 0.07249 0.0
H1120 H 0.94387 0.35383 0.04242 0.0
C1121 C 0.99354 0.3913 0.09455 0.0
C1122 C 0.97366 0.39102 0.09771 0.0
H1123 H 0.01146 0.37979 0.06957 0.0
H1124 H 0.00771 0.4023 0.10837 0.0
C1125 C 0.95555 0.3765 0.07959 0.0
C1126 C 0.62169 0.57733 0.09322 0.0
C1127 C 0.61692 0.59356 0.08395 0.0
H1128 H 0.61066 0.54733 0.11604 0.0
C1129 C 0.59606 0.5906 0.08794 0.0
H1130 H 0.63773 0.57931 0.09035 0.0
C1131 C 0.58045 0.57215 0.10202 0.0
C1132 C 0.58551 0.55648 0.11296 0.0
H1133 H 0.59177 0.60253 0.08027 0.0
H1134 H 0.56446 0.57034 0.10462 0.0
C1135 C 0.60617 0.55901 0.10783 0.0
C1136 C 0.39565 0.99731 0.06404 0.0
C1137 C 0.39911 0.01444 0.04565 0.0
H1138 H 0.40621 0.98781 0.10188 0.0
C1139 C 0.41505 0.03633 0.05379 0.0
H1140 H 0.38357 0.98023 0.05807 0.0
C1141 C 0.42751 0.04098 0.07982 0.0
C1142 C 0.4249 0.02371 0.09777 0.0
H1143 H 0.41782 0.04986 0.04006 0.0
H1144 H 0.43932 0.05814 0.08555 0.0
C1145 C 0.40859 0.0018 0.08947 0.0
C1146 C 0.37649 0.96267 0.90899 0.0
C1147 C 0.37331 0.95712 0.93833 0.0
H1148 H 0.3936 0.964 0.87054 0.0
C1149 C 0.38453 0.94748 0.95131 0.0
H1150 H 0.36792 0.97006 0.89853 0.0
C1151 C 0.39962 0.94449 0.93541 0.0
C1152 C 0.40301 0.95046 0.90621 0.0
H1153 H 0.38239 0.94322 0.97397 0.0
H1154 H 0.40891 0.93792 0.94596 0.0
C1155 C 0.39102 0.95911 0.89296 0.0
C1156 C 0.00737 0.40159 0.95538 0.0
C1157 C 0.02477 0.39743 0.95406 0.0
H1158 H 0.99526 0.42327 0.94504 0.0
C1159 C 0.04419 0.41289 0.94146 0.0
H1160 H 0.99247 0.39024 0.96577 0.0
C1161 C 0.04567 0.43167 0.92879 0.0
C1162 C 0.0279 0.4355 0.92911 0.0
H1163 H 0.05784 0.40996 0.94029 0.0
H1164 H 0.06043 0.44267 0.91784 0.0
C1165 C 0.00899 0.42053 0.94339 0.0
C1166 C 0.59115 0.63775 0.96976 0.0
C1167 C 0.60589 0.63097 0.97886 0.0
H1168 H 0.56674 0.63391 0.9383 0.0
C1169 C 0.60773 0.61506 0.96174 0.0
H1170 H 0.58955 0.65013 0.98254 0.0
C1171 C 0.59396 0.60494 0.93706 0.0
C1172 C 0.57838 0.61093 0.92844 0.0
H1173 H 0.6188 0.60934 0.96852 0.0
H1174 H 0.59484 0.59158 0.9258 0.0
C1175 C 0.57786 0.62817 0.94456 0.0
C1176 C 0.04043 0.63815 0.97154 0.0
C1177 C 0.01952 0.63371 0.97901 0.0
H1178 H 0.05939 0.62982 0.94396 0.0
C1179 C 0.00124 0.61722 0.96293 0.0
H1180 H 0.0548 0.65086 0.98361 0.0
C1181 C 0.0037 0.60434 0.94109 0.0
C1182 C 0.0246 0.60806 0.93419 0.0
H1183 H 0.9849 0.61322 0.96859 0.0
H1184 H 0.98901 0.59074 0.93083 0.0
C1185 C 0.04297 0.62578 0.94905 0.0
C1186 C 0.38145 0.42787 0.93946 0.0
C1187 C 0.37405 0.40648 0.92721 0.0
H1188 H 0.40367 0.46281 0.93649 0.0
C1189 C 0.3826 0.40412 0.90095 0.0
H1190 H 0.37513 0.43013 0.95973 0.0
C1191 C 0.39855 0.42268 0.88746 0.0
C1192 C 0.40666 0.4441 0.9001 0.0
H1193 H 0.37695 0.38786 0.89071 0.0
H1194 H 0.40454 0.42017 0.86704 0.0
C1195 C 0.39772 0.44655 0.92609 0.0
C1196 C 0.60819 0.98749 0.94405 0.0
C1197 C 0.59956 0.97207 0.96611 0.0
H1198 H 0.60248 0.99715 0.90234 0.0
C1199 C 0.57905 0.95281 0.96102 0.0
H1200 H 0.62397 0.00246 0.94718 0.0
C1201 C 0.56685 0.94974 0.93526 0.0
C1202 C 0.57482 0.96593 0.91414 0.0
H1203 H 0.572 0.94051 0.97744 0.0
H1204 H 0.55061 0.93534 0.93269 0.0
C1205 C 0.59588 0.98451 0.9184 0.0
C1206 C 0.59232 0.00492 0.08061 0.0
C1207 C 0.61292 0.02322 0.07586 0.0
H1208 H 0.56217 0.9927 0.10194 0.0
C1209 C 0.61863 0.04408 0.0885 0.0
H1210 H 0.58736 0.98879 0.07053 0.0
C1211 C 0.6044 0.04628 0.10712 0.0
C1212 C 0.58409 0.02771 0.11299 0.0
H1213 H 0.63455 0.05839 0.08525 0.0
H1214 H 0.60968 0.06233 0.11777 0.0
C1215 C 0.57797 0.00717 0.09878 0.0
C1216 C 0.98952 0.60466 0.09832 0.0
C1217 C 0.97291 0.60449 0.08075 0.0
H1218 H -9e-05 0.58571 0.12311 0.0
C1219 C 0.95319 0.58431 0.07559 0.0
H1220 H 0.00469 0.61987 0.10339 0.0
C1221 C 0.95027 0.56474 0.0876 0.0
C1222 C 0.96719 0.56499 0.10447 0.0
H1223 H 0.94 0.58363 0.06233 0.0
H1224 H 0.93498 0.54938 0.08339 0.0
C1225 C 0.98678 0.58509 0.10975 0.0
C1226 C 0.38702 0.37643 0.05575 0.0
C1227 C 0.39661 0.37584 0.02948 0.0
H1228 H 0.39206 0.3864 0.10106 0.0
C1229 C 0.41932 0.38428 0.02967 0.0
H1230 H 0.36957 0.36998 0.05649 0.0
C1231 C 0.4322 0.39383 0.05516 0.0
C1232 C 0.42274 0.39513 0.08121 0.0
H1233 H 0.42733 0.38415 0.00991 0.0
H1234 H 0.44973 0.40099 0.05408 0.0
C1235 C 0.39993 0.38596 0.0813 0.0
C1236 C 0.6201 0.70225 0.38487 0.0
C1237 C 0.6368 0.69687 0.38665 0.0
H1238 H 0.60493 0.71892 0.40443 0.0
C1239 C 0.64965 0.70246 0.41262 0.0
H1240 H 0.60977 0.6982 0.36532 0.0
C1241 C 0.64658 0.7142 0.43559 0.0
C1242 C 0.63066 0.72068 0.43304 0.0
H1243 H 0.66261 0.69853 0.41482 0.0
H1244 H 0.65703 0.71862 0.45507 0.0
C1245 C 0.61716 0.71406 0.40759 0.0
C1246 C 0.28109 0.90628 0.41571 0.0
C1247 C 0.28777 0.92782 0.42682 0.0
H1248 H 0.26108 0.87131 0.42142 0.0
C1249 C 0.28008 0.93051 0.45364 0.0
H1250 H 0.2868 0.90374 0.39507 0.0
C1251 C 0.2658 0.9121 0.46894 0.0
C1252 C 0.25853 0.89046 0.45761 0.0
H1253 H 0.28523 0.94692 0.46302 0.0
H1254 H 0.26051 0.91488 0.48978 0.0
C1255 C 0.26648 0.88773 0.4309 0.0
C1256 C 0.0602 0.34335 0.41233 0.0
C1257 C 0.0692 0.35949 0.39118 0.0
H1258 H 0.06537 0.33212 0.45317 0.0
C1259 C 0.08991 0.37833 0.39702 0.0
H1260 H 0.04428 0.32866 0.40857 0.0
C1261 C 0.10184 0.38039 0.4227 0.0
C1262 C 0.09343 0.36354 0.44291 0.0
H1263 H 0.09725 0.39114 0.3813 0.0
H1264 H 0.11818 0.39456 0.42594 0.0
C1265 C 0.07227 0.34528 0.43784 0.0
C1266 C 0.06687 0.32543 0.26053 0.0
C1267 C 0.05146 0.30917 0.27814 0.0
H1268 H 0.09243 0.334 0.23078 0.0
C1269 C 0.05014 0.28833 0.27882 0.0
H1270 H 0.06809 0.34148 0.25894 0.0
C1271 C 0.06398 0.28391 0.26211 0.0
C1272 C 0.07951 0.30038 0.24485 0.0
H1273 H 0.03829 0.27539 0.29197 0.0
H1274 H 0.06275 0.26777 0.26292 0.0
C1275 C 0.08081 0.32114 0.24425 0.0
C1276 C 0.70761 0.74591 0.28126 0.0
C1277 C 0.6872 0.7295 0.29047 0.0
H1278 H 0.72536 0.77641 0.25942 0.0
C1279 C 0.66916 0.73258 0.28731 0.0
H1280 H 0.72178 0.74386 0.28357 0.0
C1281 C 0.67123 0.75135 0.2742 0.0
C1282 C 0.69135 0.7673 0.26339 0.0
H1283 H 0.65341 0.72056 0.29511 0.0
H1284 H 0.65696 0.75323 0.27234 0.0
C1285 C 0.70965 0.76457 0.26758 0.0
C1286 C 0.27165 0.96063 0.29854 0.0
C1287 C 0.26258 0.96025 0.32562 0.0
H1288 H 0.26577 0.95229 0.25279 0.0
C1289 C 0.23988 0.95162 0.32655 0.0
H1290 H 0.28908 0.96728 0.29693 0.0
C1291 C 0.22651 0.94284 0.30129 0.0
C1292 C 0.23546 0.94255 0.27434 0.0
H1293 H 0.23227 0.95099 0.34697 0.0
H1294 H 0.20902 0.93549 0.30317 0.0
C1295 C 0.25826 0.95192 0.27322 0.0
C1296 C 0.665 0.94621 0.30378 0.0
C1297 C 0.68301 0.96231 0.32066 0.0
H1298 H 0.65336 0.92072 0.27034 0.0
C1299 C 0.70407 0.96709 0.31348 0.0
H1300 H 0.64855 0.94198 0.30918 0.0
C1301 C 0.70704 0.95548 0.29039 0.0
C1302 C 0.68894 0.93816 0.27459 0.0
H1303 H 0.71825 0.97954 0.32615 0.0
H1304 H 0.72358 0.95982 0.28551 0.0
C1305 C 0.66787 0.93406 0.28132 0.0
C1306 C 0.07115 0.7461 0.26853 0.0
C1307 C 0.05012 0.74176 0.27491 0.0
H1308 H 0.10131 0.76774 0.24912 0.0
C1309 C 0.04352 0.75692 0.26695 0.0
H1310 H 0.0769 0.73506 0.27521 0.0
C1311 C 0.05739 0.77556 0.25142 0.0
C1312 C 0.07821 0.7795 0.24402 0.0
H1313 H 0.02732 0.75386 0.27164 0.0
H1314 H 0.05149 0.78643 0.24439 0.0
C1315 C 0.08511 0.76484 0.25348 0.0
C1316 C 0.24208 0.28146 0.29657 0.0
C1317 C 0.26317 0.29995 0.30137 0.0
H1318 H 0.21347 0.26502 0.26833 0.0
C1319 C 0.27241 0.31506 0.27907 0.0
H1320 H 0.23452 0.26942 0.31318 0.0
C1321 C 0.26032 0.3125 0.25336 0.0
C1322 C 0.23883 0.29468 0.24927 0.0
H1323 H 0.28866 0.32942 0.28191 0.0
H1324 H 0.26753 0.32487 0.23704 0.0
C1325 C 0.23007 0.27882 0.27075 0.0
C1326 C 0.27959 0.36965 0.41552 0.0
C1327 C 0.27998 0.34966 0.41581 0.0
H1328 H 0.26561 0.38844 0.4331 0.0
C1329 C 0.26627 0.33307 0.43447 0.0
H1330 H 0.29011 0.3828 0.40155 0.0
C1331 C 0.25233 0.33627 0.45228 0.0
C1332 C 0.25197 0.35622 0.45211 0.0
H1333 H 0.26642 0.31765 0.43572 0.0
H1334 H 0.24204 0.32322 0.46655 0.0
C1335 C 0.26574 0.37295 0.43368 0.0
C1336 C 0.64927 0.93512 0.44814 0.0
C1337 C 0.63617 0.93327 0.42365 0.0
H1338 H 0.65705 0.91835 0.48033 0.0
C1339 C 0.62041 0.91202 0.4126 0.0
H1340 H 0.66134 0.95126 0.45747 0.0
C1341 C 0.61818 0.89298 0.42549 0.0
C1342 C 0.63153 0.89485 0.44982 0.0
H1343 H 0.6101 0.9101 0.39371 0.0
H1344 H 0.60629 0.87682 0.41604 0.0
C1345 C 0.64689 0.91619 0.46116 0.0
C1346 C 0.09477 0.71515 0.37565 0.0
C1347 C 0.07219 0.70741 0.37528 0.0
H1348 H 0.12504 0.73074 0.40028 0.0
C1349 C 0.06259 0.70797 0.40156 0.0
H1350 H 0.10279 0.71501 0.3559 0.0
C1351 C 0.07543 0.71683 0.42731 0.0
C1352 C 0.09817 0.72535 0.42737 0.0
H1353 H 0.04522 0.70205 0.40214 0.0
H1354 H 0.0676 0.7173 0.44709 0.0
C1355 C 0.10757 0.72404 0.40129 0.0
C1356 C 0.3201 0.04047 0.7406 0.0
C1357 C 0.30999 0.03809 0.71299 0.0
H1358 H 0.32428 0.05287 0.78488 0.0
C1359 C 0.29522 0.04594 0.70969 0.0
H1360 H 0.33152 0.03458 0.744 0.0
C1361 C 0.29127 0.0566 0.73292 0.0
C1362 C 0.30184 0.05963 0.76032 0.0
H1363 H 0.2871 0.04448 0.68882 0.0
H1364 H 0.28052 0.06323 0.72897 0.0
C1365 C 0.31606 0.05111 0.764 0.0
C1366 C 0.93429 0.25673 0.76751 0.0
C1367 C 0.95226 0.25809 0.75325 0.0
H1368 H 0.9059 0.2367 0.79163 0.0
C1369 C 0.95513 0.23949 0.75228 0.0
H1370 H 0.93169 0.27075 0.76897 0.0
C1371 C 0.94048 0.22003 0.76574 0.0
C1372 C 0.92255 0.21877 0.77992 0.0
H1373 H 0.96892 0.24008 0.74161 0.0
H1374 H 0.9431 0.20596 0.76497 0.0
C1375 C 0.9195 0.23721 0.78051 0.0
C1376 C 0.75587 0.70235 0.7158 0.0
C1377 C 0.7346 0.68395 0.71242 0.0
H1378 H 0.78456 0.72044 0.74359 0.0
C1379 C 0.72525 0.67065 0.73639 0.0
H1380 H 0.76353 0.71303 0.69786 0.0
C1381 C 0.73735 0.67491 0.7626 0.0
C1382 C 0.75895 0.69271 0.7655 0.0
H1383 H 0.70888 0.6564 0.73461 0.0
H1384 H 0.73002 0.66393 0.78037 0.0
C1385 C 0.76788 0.70673 0.7421 0.0
C1386 C 0.73633 0.64339 0.60606 0.0
C1387 C 0.71458 0.6265 0.60825 0.0
H1388 H 0.767 0.65364 0.58693 0.0
C1389 C 0.70734 0.60578 0.59403 0.0
H1390 H 0.7424 0.65931 0.61748 0.0
C1391 C 0.72134 0.60258 0.57603 0.0
C1392 C 0.74279 0.62002 0.57234 0.0
H1393 H 0.69054 0.59256 0.5954 0.0
H1394 H 0.71504 0.58687 0.56393 0.0
C1395 C 0.75035 0.64014 0.58846 0.0
C1396 C 0.35337 0.0636 0.58817 0.0
C1397 C 0.36427 0.06584 0.61503 0.0
H1398 H 0.34813 0.07984 0.5528 0.0
C1399 C 0.37884 0.08722 0.62688 0.0
H1400 H 0.3423 0.04733 0.57824 0.0
C1401 C 0.38192 0.10602 0.61245 0.0
C1402 C 0.37063 0.10372 0.58579 0.0
H1403 H 0.38743 0.08941 0.64759 0.0
H1404 H 0.39271 0.12229 0.62253 0.0
C1405 C 0.35662 0.08227 0.57365 0.0
C1406 C 0.92781 0.30442 0.63498 0.0
C1407 C 0.94083 0.29593 0.64537 0.0
H1408 H 0.90554 0.3029 0.60173 0.0
C1409 C 0.94196 0.2794 0.6287 0.0
H1410 H 0.92686 0.31735 0.64739 0.0
C1411 C 0.92894 0.27028 0.60315 0.0
C1412 C 0.91492 0.27793 0.59328 0.0
H1413 H 0.95176 0.27245 0.63646 0.0
H1414 H 0.92904 0.25637 0.59222 0.0
C1415 C 0.91537 0.29587 0.60894 0.0
C1416 C 0.34314 0.28594 0.62407 0.0
C1417 C 0.35962 0.29822 0.64556 0.0
H1418 H 0.33337 0.26399 0.58611 0.0
C1419 C 0.38021 0.29999 0.64282 0.0
H1420 H 0.32708 0.28416 0.62568 0.0
C1421 C 0.38388 0.28873 0.61999 0.0
C1422 C 0.36692 0.27514 0.59976 0.0
H1423 H 0.39324 0.30938 0.65902 0.0
H1424 H 0.39958 0.28956 0.6192 0.0
C1425 C 0.34669 0.2743 0.60155 0.0
C1426 C 0.71455 0.095 0.61148 0.0
C1427 C 0.71453 0.075 0.60591 0.0
H1428 H 0.72935 0.12972 0.60263 0.0
C1429 C 0.72964 0.07484 0.58666 0.0
H1430 H 0.70297 0.09561 0.62598 0.0
C1431 C 0.74477 0.09425 0.57388 0.0
C1432 C 0.74486 0.11416 0.57951 0.0
H1433 H 0.7298 0.05974 0.58122 0.0
H1434 H 0.75632 0.09366 0.55925 0.0
C1435 C 0.72952 0.11445 0.59813 0.0
C1436 C 0.93515 0.64147 0.60835 0.0
C1437 C 0.9255 0.63165 0.63441 0.0
H1438 H 0.93027 0.64469 0.56299 0.0
C1439 C 0.90295 0.61626 0.63383 0.0
H1440 H 0.95251 0.65325 0.60794 0.0
C1441 C 0.8902 0.61156 0.6082 0.0
C1442 C 0.89965 0.62197 0.58234 0.0
H1443 H 0.89491 0.60836 0.65345 0.0
H1444 H 0.87274 0.60048 0.60909 0.0
C1445 C 0.92238 0.63663 0.58259 0.0
C1446 C 0.94484 0.70642 0.74364 0.0
C1447 C 0.94586 0.6868 0.74513 0.0
H1448 H 0.93059 0.72521 0.76043 0.0
C1449 C 0.93318 0.67101 0.76533 0.0
H1450 H 0.95459 0.71899 0.7285 0.0
C1451 C 0.91954 0.67453 0.78332 0.0
C1452 C 0.91845 0.69404 0.78183 0.0
H1453 H 0.93388 0.65595 0.76759 0.0
H1454 H 0.90997 0.66204 0.79867 0.0
C1455 C 0.9313 0.71007 0.76201 0.0
C1456 C 0.2867 0.24869 0.75219 0.0
C1457 C 0.30761 0.2646 0.74378 0.0
H1458 H 0.26752 0.21853 0.77426 0.0
C1459 C 0.32515 0.26091 0.74878 0.0
H1460 H 0.27289 0.25117 0.74851 0.0
C1461 C 0.32208 0.24214 0.76297 0.0
C1462 C 0.30142 0.22671 0.77291 0.0
H1463 H 0.34128 0.27248 0.74165 0.0
H1464 H 0.336 0.23982 0.76632 0.0
C1465 C 0.28364 0.22998 0.76683 0.0
C1466 C 0.75678 0.04548 0.70925 0.0
C1467 C 0.73458 0.03942 0.70822 0.0
H1468 H 0.78662 0.05909 0.7346 0.0
C1469 C 0.72509 0.04099 0.73413 0.0
H1470 H 0.7647 0.0445 0.68981 0.0
C1471 C 0.73774 0.04922 0.76016 0.0
C1472 C 0.76015 0.05601 0.76087 0.0
H1473 H 0.70802 0.03639 0.7342 0.0
H1474 H 0.73005 0.05056 0.77963 0.0
C1475 C 0.76937 0.05369 0.73514 0.0
C1476 C 0.03729 0.28527 0.04845 0.0
C1477 C 0.04174 0.3069 0.04307 0.0
H1478 H 0.04771 0.26492 0.06965 0.0
C1479 C 0.06086 0.32501 0.05566 0.0
H1480 H 0.02263 0.27095 0.03921 0.0
C1481 C 0.07548 0.32159 0.07259 0.0
C1482 C 0.07125 0.29995 0.07778 0.0
H1483 H 0.06489 0.34191 0.05177 0.0
H1484 H 0.09043 0.336 0.08093 0.0
C1485 C 0.05179 0.28182 0.06575 0.0
C1486 C 0.6521 0.72679 0.06714 0.0
C1487 C 0.66401 0.71626 0.07389 0.0
H1488 H 0.64904 0.75557 0.07325 0.0
C1489 C 0.68317 0.7276 0.09153 0.0
H1490 H 0.63729 0.7183 0.05348 0.0
C1491 C 0.68937 0.7485 0.1042 0.0
C1492 C 0.6768 0.75872 0.09884 0.0
H1493 H 0.69242 0.71958 0.09732 0.0
H1494 H 0.70326 0.75593 0.1195 0.0
C1495 C 0.6587 0.748 0.07895 0.0
C1496 C 0.286 0.94908 0.06633 0.0
C1497 C 0.283 0.96079 0.04393 0.0
H1498 H 0.27292 0.93011 0.10413 0.0
C1499 C 0.26471 0.96371 0.04406 0.0
H1500 H 0.30003 0.94672 0.06705 0.0
C1501 C 0.24921 0.95422 0.06539 0.0
C1502 C 0.25169 0.94159 0.08692 0.0
H1503 H 0.26201 0.97277 0.02721 0.0
H1504 H 0.23479 0.95589 0.06419 0.0
C1505 C 0.27048 0.93956 0.08757 0.0
C1506 C 0.3188 0.03586 0.9599 0.0
C1507 C 0.34091 0.04205 0.95754 0.0
H1508 H 0.29373 0.04377 0.95006 0.0
C1509 C 0.35521 0.0624 0.94536 0.0
H1510 H 0.30734 0.02026 0.96911 0.0
C1511 C 0.34741 0.07566 0.93425 0.0
C1512 C 0.32511 0.06896 0.93513 0.0
H1513 H 0.37236 0.0677 0.94326 0.0
H1514 H 0.35874 0.09069 0.92375 0.0
C1515 C 0.31094 0.04918 0.94868 0.0
C1516 C 0.95533 0.26003 0.9604 0.0
C1517 C 0.94797 0.27533 0.96381 0.0
H1518 H 0.94772 0.22763 0.94418 0.0
C1519 C 0.92594 0.26829 0.95694 0.0
H1520 H 0.97225 0.265 0.96538 0.0
C1521 C 0.91197 0.24702 0.94494 0.0
C1522 C 0.9197 0.23226 0.9393 0.0
H1523 H 0.91968 0.27958 0.95967 0.0
H1524 H 0.89525 0.24238 0.93915 0.0
C1525 C 0.9413 0.23865 0.94817 0.0
C1526 C 0.72523 0.70173 0.96963 0.0
C1527 C 0.71506 0.68222 0.98535 0.0
H1528 H 0.7505 0.72131 0.94047 0.0
C1529 C 0.72305 0.66737 0.98363 0.0
H1530 H 0.71949 0.71353 0.97058 0.0
C1531 C 0.74067 0.6718 0.96644 0.0
C1532 C 0.75081 0.69124 0.95067 0.0
H1533 H 0.71565 0.65221 0.9955 0.0
H1534 H 0.74651 0.66007 0.96571 0.0
C1535 C 0.74304 0.70626 0.95255 0.0
C1536 C 0.94648 0.68204 0.96569 0.0
C1537 C 0.94796 0.68754 0.99562 0.0
H1538 H 0.93264 0.68185 0.92367 0.0
C1539 C 0.93651 0.69789 0.00586 0.0
H1540 H 0.95516 0.67414 0.95703 0.0
C1541 C 0.9235 0.70217 0.9868 0.0
C1542 C 0.9216 0.69625 0.95696 0.0
H1543 H 0.93724 0.70235 0.02878 0.0
H1544 H 0.9144 0.70953 0.99568 0.0
C1545 C 0.93346 0.68635 0.94659 0.0
C1546 C 0.3496 0.2796 0.9333 0.0
C1547 C 0.33529 0.28632 0.94413 0.0
H1548 H 0.3534 0.25305 0.916 0.0
C1549 C 0.31334 0.27012 0.94791 0.0
H1550 H 0.36661 0.29159 0.93015 0.0
C1551 C 0.30572 0.24781 0.93979 0.0
C1552 C 0.31995 0.2413 0.92802 0.0
H1553 H 0.30188 0.27477 0.95614 0.0
H1554 H 0.28865 0.23572 0.94235 0.0
C1555 C 0.34204 0.25741 0.92534 0.0
C1556 C 0.73955 0.06886 1.00136 0.0
C1557 C 0.71926 0.05057 0.99237 0.0
H1558 H 0.77172 0.09286 0.98916 0.0
C1559 C 0.71619 0.04187 0.96357 0.0
H1560 H 0.74243 0.07588 0.0234 0.0
C1561 C 0.73306 0.05148 0.94406 0.0
C1562 C 0.75313 0.0701 0.95292 0.0
H1563 H 0.70075 0.02768 0.95607 0.0
H1564 H 0.73025 0.04471 0.92188 0.0
C1565 C 0.75628 0.07861 0.98177 0.0
C1566 C 0.64954 0.92771 0.05486 0.0
C1567 C 0.66116 0.95089 0.05846 0.0
H1568 H 0.64732 0.89716 0.06622 0.0
C1569 C 0.68101 0.96136 0.07477 0.0
H1570 H 0.63422 0.91936 0.04222 0.0
C1571 C 0.68798 0.94871 0.08987 0.0
C1572 C 0.67544 0.92536 0.08826 0.0
H1573 H 0.69009 0.97928 0.07809 0.0
H1574 H 0.70227 0.95734 0.10439 0.0
C1575 C 0.65689 0.91506 0.06908 0.0
C1576 C 0.07308 0.73283 0.0738 0.0
C1577 C 0.05166 0.72618 0.06385 0.0
H1578 H 0.10341 0.75883 0.09198 0.0
C1579 C 0.04534 0.74236 0.06199 0.0
H1580 H 0.07857 0.72087 0.07547 0.0
C1581 C 0.05984 0.76446 0.07139 0.0
C1582 C 0.08095 0.77081 0.08262 0.0
H1583 H 0.02894 0.73779 0.0545 0.0
H1584 H 0.05437 0.77647 0.07038 0.0
C1585 C 0.08747 0.75476 0.08311 0.0
C1586 C 0.27938 0.32427 0.04817 0.0
C1587 C 0.27361 0.31834 0.01851 0.0
H1588 H 0.26824 0.3229 0.09139 0.0
C1589 C 0.25137 0.30566 0.00992 0.0
H1590 H 0.29639 0.33387 0.05554 0.0
C1591 C 0.23523 0.29958 0.03041 0.0
C1592 C 0.24095 0.3059 0.06002 0.0
H1593 H 0.24635 0.30084 0.98723 0.0
H1594 H 0.21825 0.29049 0.02285 0.0
C1595 C 0.26324 0.31806 0.06871 0.0
C1596 C 0.7154 0.6471 0.39532 0.0
C1597 C 0.72192 0.65648 0.36802 0.0
H1598 H 0.72317 0.63398 0.43262 0.0
C1599 C 0.74165 0.6595 0.3573 0.0
H1600 H 0.70026 0.64451 0.40416 0.0
C1601 C 0.75467 0.65351 0.37349 0.0
C1602 C 0.74832 0.64426 0.40083 0.0
H1603 H 0.74717 0.66658 0.33632 0.0
H1604 H 0.76971 0.65596 0.36442 0.0
C1605 C 0.72844 0.64095 0.41152 0.0
C1606 C 0.35077 0.06381 0.40884 0.0
C1607 C 0.32852 0.04845 0.41234 0.0
H1608 H 0.37704 0.09732 0.41667 0.0
C1609 C 0.3153 0.05593 0.42493 0.0
H1610 H 0.36143 0.05857 0.39933 0.0
C1611 C 0.32423 0.07796 0.43493 0.0
C1612 C 0.34663 0.09313 0.43261 0.0
H1613 H 0.2981 0.04458 0.42796 0.0
H1614 H 0.31367 0.08286 0.44556 0.0
C1615 C 0.35977 0.08594 0.41903 0.0
C1616 C 0.95122 0.29374 0.39388 0.0
C1617 C 0.94858 0.28528 0.36502 0.0
H1618 H 0.93693 0.28996 0.43557 0.0
C1619 C 0.92864 0.26654 0.35586 0.0
H1620 H 0.96637 0.30824 0.40153 0.0
C1621 C 0.91192 0.2561 0.37533 0.0
C1622 C 0.9147 0.26429 0.4043 0.0
H1623 H 0.92604 0.25966 0.33376 0.0
H1624 H 0.8968 0.24151 0.36777 0.0
C1625 C 0.93436 0.2834 0.41331 0.0
C1626 C 0.98985 0.38038 0.29671 0.0
C1627 C 0.01251 0.38926 0.30103 0.0
H1628 H 0.96439 0.38462 0.2775 0.0
C1629 C 0.02675 0.41126 0.29365 0.0
H1630 H 0.97845 0.36345 0.30212 0.0
C1631 C 0.01869 0.42341 0.27974 0.0
C1632 C 0.99624 0.41373 0.27269 0.0
H1633 H 0.04428 0.41865 0.29707 0.0
H1634 H 0.03018 0.44002 0.27325 0.0
C1635 C 0.98178 0.3925 0.28253 0.0
C1636 C 0.6187 0.59521 0.2824 0.0
C1637 C 0.61216 0.60685 0.3011 0.0
H1638 H 0.60876 0.56659 0.25443 0.0
C1639 C 0.59044 0.59661 0.30948 0.0
H1640 H 0.63534 0.60305 0.27524 0.0
C1641 C 0.57521 0.57532 0.2984 0.0
C1642 C 0.58118 0.56421 0.27765 0.0
H1643 H 0.58508 0.60541 0.32382 0.0
H1644 H 0.55858 0.56799 0.30538 0.0
C1645 C 0.60335 0.57422 0.27052 0.0
C1646 C 0.40208 0.03514 0.32388 0.0
C1647 C 0.38208 0.01505 0.32394 0.0
H1648 H 0.43349 0.05325 0.30519 0.0
C1649 C 0.37784 -0.00181 0.30291 0.0
H1650 H 0.40581 0.04848 0.33971 0.0
C1651 C 0.39368 0.00093 0.28324 0.0
C1652 C 0.41403 0.02062 0.28401 0.0
H1653 H 0.36254 0.98256 0.3022 0.0
H1654 H 0.39019 0.98743 0.26777 0.0
C1655 C 0.41789 0.03793 0.30402 0.0
C1656 C 0.5878 0.97754 0.29616 0.0
C1657 C 0.60541 0.99334 0.31407 0.0
H1658 H 0.56112 0.97089 0.26681 0.0
C1659 C 0.60985 0.01545 0.31507 0.0
H1660 H 0.58396 0.96039 0.29468 0.0
C1661 C 0.59659 0.02146 0.29917 0.0
C1662 C 0.57857 0.00549 0.28195 0.0
H1663 H 0.62326 0.02806 0.32866 0.0
H1664 H 0.60007 0.03848 0.3011 0.0
C1665 C 0.57457 0.98354 0.2803 0.0
C1666 C 0.98892 0.60525 0.28272 0.0
C1667 C 0.01153 0.62041 0.28447 0.0
H1668 H 0.96336 0.57299 0.2676 0.0
C1669 C 0.02596 0.6132 0.27581 0.0
H1670 H 0.97738 0.61035 0.28915 0.0
C1671 C 0.01797 0.59181 0.26378 0.0
C1672 C 0.99534 0.5772 0.25977 0.0
H1673 H 0.04348 0.6244 0.27726 0.0
H1674 H 0.02956 0.58697 0.2567 0.0
C1675 C 0.98088 0.58384 0.27035 0.0
C1676 C 0.37503 0.37324 0.29028 0.0
C1677 C 0.37479 0.3855 0.31495 0.0
H1678 H 0.39023 0.37374 0.25026 0.0
C1679 C 0.39023 0.40824 0.31798 0.0
H1680 H 0.36328 0.35568 0.28727 0.0
C1681 C 0.40568 0.4185 0.2969 0.0
C1682 C 0.40599 0.40628 0.27223 0.0
H1683 H 0.39054 0.41812 0.33678 0.0
H1684 H 0.41769 0.43596 0.30026 0.0
C1685 C 0.39049 0.38354 0.26912 0.0
C1686 C 0.31408 0.25501 0.39704 0.0
C1687 C 0.32669 0.27719 0.38929 0.0
H1688 H 0.31352 0.22793 0.41868 0.0
C1689 C 0.34952 0.28814 0.39388 0.0
H1690 H 0.29648 0.24606 0.39342 0.0
C1691 C 0.35925 0.2779 0.40891 0.0
C1692 C 0.34628 0.25652 0.4193 0.0
H1693 H 0.35968 0.30528 0.38818 0.0
H1694 H 0.37664 0.28733 0.41421 0.0
C1695 C 0.3238 0.24474 0.41179 0.0
C1696 C 0.73779 0.05999 0.41074 0.0
C1697 C 0.71577 0.05371 0.4053 0.0
H1698 H 0.76963 0.08558 0.4255 0.0
C1699 C 0.70953 0.06993 0.40827 0.0
H1700 H 0.74319 0.04797 0.40827 0.0
C1701 C 0.72474 0.09157 0.41862 0.0
C1702 C 0.74643 0.09732 0.42602 0.0
H1703 H 0.69266 0.06556 0.40435 0.0
H1704 H 0.71923 0.10338 0.42234 0.0
C1705 C 0.75292 0.08152 0.42083 0.0
C1706 C 0.95311 0.66307 0.38662 0.0
C1707 C 0.95095 0.64777 0.36437 0.0
H1708 H 0.93782 0.67048 0.42143 0.0
C1709 C 0.93154 0.6271 0.36159 0.0
H1710 H 0.96789 0.67909 0.38945 0.0
C1711 C 0.91435 0.62216 0.38002 0.0
C1712 C 0.9162 0.63786 0.40141 0.0
H1713 H 0.9294 0.61492 0.34475 0.0
H1714 H 0.8993 0.6064 0.37677 0.0
C1715 C 0.93588 0.65819 0.40486 0.0
C1716 C 0.39638 0.97476 0.69166 0.0
C1717 C 0.38373 0.98315 0.70373 0.0
H1718 H 0.41907 0.96351 0.69924 0.0
C1719 C 0.3837 0.98548 0.7342 0.0
H1720 H 0.39689 0.9728 0.66828 0.0
C1721 C 0.39635 0.97986 0.75213 0.0
C1722 C 0.40932 0.97182 0.73995 0.0
H1723 H 0.37408 0.99183 0.74419 0.0
H1724 H 0.39599 0.98183 0.77552 0.0
C1725 C 0.40903 0.96924 0.70948 0.0
C1726 C 0.97969 0.38881 0.73991 0.0
C1727 C 0.99355 0.37992 0.74243 0.0
H1728 H 0.97499 0.41626 0.74939 0.0
C1729 C 0.01446 0.39295 0.75567 0.0
H1730 H 0.96354 0.3791 0.72957 0.0
C1731 C 0.02073 0.4139 0.76827 0.0
C1732 C 0.00638 0.42243 0.76725 0.0
H1733 H 0.02536 0.38632 0.75812 0.0
H1734 H 0.03632 0.42276 0.78016 0.0
C1735 C 0.98618 0.40999 0.75171 0.0
C1736 C 0.59977 0.62922 0.70392 0.0
C1737 C 0.61815 0.62643 0.70388 0.0
H1738 H 0.56939 0.62062 0.7234 0.0
C1739 C 0.62072 0.61401 0.72564 0.0
H1740 H 0.59739 0.63882 0.68756 0.0
C1741 C 0.60478 0.60372 0.74614 0.0
C1742 C 0.58595 0.60568 0.7454 0.0
H1743 H 0.63479 0.61172 0.72644 0.0
H1744 H 0.60694 0.59378 0.76221 0.0
C1745 C 0.58383 0.61897 0.72456 0.0
C1746 C 0.65598 0.7035 0.62484 0.0
C1747 C 0.67781 0.70931 0.62043 0.0
H1748 H 0.63081 0.71166 0.61757 0.0
C1749 C 0.6915 0.72916 0.60673 0.0
H1750 H 0.64499 0.68833 0.63532 0.0
C1751 C 0.68334 0.74231 0.59636 0.0
C1752 C 0.6613 0.73604 0.59956 0.0
H1753 H 0.7084 0.73419 0.60299 0.0
H1754 H 0.69414 0.75696 0.58475 0.0
C1755 C 0.64779 0.71673 0.61441 0.0
C1756 C 0.2873 0.9298 0.63513 0.0
C1757 C 0.28197 0.94652 0.63096 0.0
H1758 H 0.27734 0.8953 0.62856 0.0
C1759 C 0.2613 0.94055 0.61861 0.0
H1760 H 0.30311 0.93386 0.64451 0.0
C1761 C 0.24672 0.91866 0.60934 0.0
C1762 C 0.25234 0.90206 0.61221 0.0
H1763 H 0.2566 0.95296 0.61513 0.0
H1764 H 0.23138 0.91499 0.59872 0.0
C1765 C 0.27264 0.90777 0.62573 0.0
C1766 C 0.06876 0.3729 0.65418 0.0
C1767 C 0.05447 0.35145 0.66357 0.0
H1768 H 0.09632 0.3932 0.62868 0.0
C1769 C 0.05757 0.33383 0.65447 0.0
H1770 H 0.06678 0.38682 0.66079 0.0
C1771 C 0.07454 0.33751 0.6364 0.0
C1772 C 0.08876 0.35888 0.62677 0.0
H1773 H 0.04698 0.31713 0.66146 0.0
H1774 H 0.07666 0.32359 0.63027 0.0
C1775 C 0.08574 0.37658 0.63592 0.0
C1776 C 0.27324 0.35984 0.67328 0.0
C1777 C 0.28442 0.34945 0.66217 0.0
H1778 H 0.25097 0.37153 0.66457 0.0
C1779 C 0.28232 0.34399 0.63216 0.0
H1780 H 0.27446 0.36427 0.69628 0.0
C1781 C 0.26889 0.34832 0.61386 0.0
C1782 C 0.25728 0.35822 0.62512 0.0
H1783 H 0.29076 0.33605 0.62285 0.0
H1784 H 0.26754 0.34381 0.59087 0.0
C1785 C 0.25985 0.36415 0.65502 0.0
C1786 C 0.65299 0.93735 0.62067 0.0
C1787 C 0.67483 0.95358 0.61634 0.0
H1788 H 0.628 0.90316 0.6142 0.0
C1789 C 0.68863 0.94707 0.60318 0.0
H1790 H 0.64191 0.94182 0.63068 0.0
C1791 C 0.68064 0.92512 0.59355 0.0
C1792 C 0.65866 0.909 0.59694 0.0
H1793 H 0.70554 0.95907 0.59948 0.0
H1794 H 0.69159 0.92099 0.58248 0.0
C1795 C 0.64496 0.91526 0.61098 0.0
C1796 C 0.0448 0.7044 0.62359 0.0
C1797 C 0.04783 0.71119 0.65324 0.0
H1798 H 0.05929 0.70961 0.58179 0.0
C1799 C 0.06836 0.72839 0.66363 0.0
H1800 H 0.02916 0.69106 0.61504 0.0
C1801 C 0.08535 0.73902 0.64465 0.0
C1802 C 0.08225 0.73245 0.61501 0.0
H1803 H 0.07122 0.73396 0.68636 0.0
H1804 H 0.10094 0.7525 0.65311 0.0
C1805 C 0.06198 0.71484 0.60463 0.0
C1806 C 0.98104 0.59093 0.71722 0.0
C1807 C 0.99255 0.61413 0.7204 0.0
H1808 H 0.97928 0.56063 0.72879 0.0
C1809 C 0.01274 0.62489 0.73593 0.0
H1810 H 0.96545 0.58237 0.70521 0.0
C1811 C 0.02013 0.61253 0.75085 0.0
C1812 C 0.00768 0.58917 0.74983 0.0
H1813 H 0.02174 0.64283 0.73892 0.0
H1814 H 0.03467 0.62141 0.7649 0.0
C1815 C 0.98881 0.57856 0.73123 0.0
C1816 C 0.40798 0.39315 0.74463 0.0
C1817 C 0.38699 0.38678 0.73307 0.0
H1818 H 0.43805 0.41904 0.76364 0.0
C1819 C 0.38116 0.40321 0.72965 0.0
H1820 H 0.4131 0.381 0.74755 0.0
C1821 C 0.39573 0.42535 0.73881 0.0
C1822 C 0.41643 0.43147 0.75136 0.0
H1823 H 0.3651 0.39886 0.72089 0.0
H1824 H 0.39068 0.4376 0.73643 0.0
C1825 C 0.42243 0.41511 0.7537 0.0
C1826 C 0.61648 0.9919 0.71972 0.0
C1827 C 0.61158 0.98665 0.68977 0.0
H1828 H 0.60406 0.99061 0.76212 0.0
C1829 C 0.58958 0.97525 0.6798 0.0
H1830 H 0.63326 0.00055 0.72813 0.0
C1831 C 0.57287 0.96972 0.69924 0.0
C1832 C 0.57776 0.97538 0.72912 0.0
H1833 H 0.58524 0.97099 0.65686 0.0
H1834 H 0.55614 0.96157 0.69068 0.0
C1835 C 0.59975 0.9863 0.73918 0.0
loop_
_geom_bond_atom_site_label_1
_geom_bond_atom_site_label_2
_geom_bond_distance
_geom_bond_site_symmetry_2
_ccdc_geom_bond_type
Mg0 O1 2.028 1_556 S
Mg0 O7 1.986 1_455 S
Mg0 O9 2.114 . S
Mg0 O10 2.251 1_455 S
Mg0 O13 2.010 1_556 S
O1 Mg0 2.028 1_554 S
O1 C4 1.250 1_455 S
O2 Mg3 2.028 1_554 S
O2 C4 1.248 . S
Mg3 O2 2.028 1_556 S
Mg3 O8 2.032 . S
Mg3 O10 2.079 . S
C4 O1 1.250 1_655 S
C4 O2 1.248 . S
C5 O6 1.264 . S
C5 O13 1.249 . S
O6 C5 1.264 . S
O7 Mg0 1.986 1_655 S
O7 C11 1.246 . S
O8 Mg3 2.032 . S
O8 C11 1.259 . S
O9 Mg0 2.114 . S
O9 C12 1.252 . S
O10 Mg0 2.251 1_655 S
O10 Mg3 2.079 . S
O10 C12 1.273 1_655 S
C11 O7 1.246 . S
C11 O8 1.259 . S
C12 O9 1.252 . S
C12 O10 1.273 1_455 S
O13 Mg0 2.010 1_554 S
O13 C5 1.249 . S
Mg14 O15 2.028 1_554 S
Mg14 O21 1.986 . S
Mg14 O23 2.114 . S
Mg14 O24 2.251 . S
Mg14 O27 2.010 . S
O15 Mg14 2.028 1_556 S
O15 C18 1.250 . S
O16 Mg17 2.028 1_556 S
O16 C18 1.248 . S
Mg17 O16 2.028 1_554 S
Mg17 O22 2.032 . S
Mg17 O24 2.079 . S
C18 O15 1.250 . S
C18 O16 1.248 . S
C19 O20 1.264 1_556 S
C19 O27 1.249 1_556 S
O20 C19 1.264 1_554 S
O21 Mg14 1.986 . S
O21 C25 1.246 . S
O22 Mg17 2.032 . S
O22 C25 1.259 . S
O23 Mg14 2.114 . S
O23 C26 1.252 . S
O24 Mg14 2.251 . S
O24 Mg17 2.079 . S
O24 C26 1.273 . S
C25 O21 1.246 . S
C25 O22 1.259 . S
C26 O23 1.252 . S
C26 O24 1.273 . S
O27 Mg14 2.010 . S
O27 C19 1.249 1_554 S
Mg28 O29 2.033 1_566 S
Mg28 O35 1.986 1_565 S
Mg28 O37 2.114 . S
Mg28 O38 2.251 1_565 S
Mg28 O41 2.010 1_556 S
O29 Mg28 2.033 1_544 S
O29 C32 1.260 . S
O30 Mg31 2.028 1_554 S
O30 C32 1.248 . S
Mg31 O30 2.028 1_556 S
Mg31 O36 2.032 . S
Mg31 O38 2.079 . S
C32 O29 1.260 . S
C32 O30 1.248 . S
C33 O34 1.264 . S
C33 O41 1.249 . S
O34 C33 1.264 . S
O35 Mg28 1.986 1_545 S
O35 C39 1.246 . S
O36 Mg31 2.032 . S
O36 C39 1.259 . S
O37 Mg28 2.114 . S
O37 C40 1.252 . S
O38 Mg28 2.251 1_545 S
O38 Mg31 2.079 . S
O38 C40 1.273 1_545 S
C39 O35 1.246 . S
C39 O36 1.259 . S
C40 O37 1.252 . S
C40 O38 1.273 1_565 S
O41 Mg28 2.010 1_554 S
O41 C33 1.249 . S
Mg42 O43 2.028 1_654 S
Mg42 O49 1.986 1_655 S
Mg42 O51 2.114 . S
Mg42 O52 2.251 1_655 S
Mg42 O55 2.010 . S
O43 Mg42 2.028 1_456 S
O43 C46 1.251 . S
O44 Mg45 2.028 1_556 S
O44 C46 1.248 . S
Mg45 O44 2.028 1_554 S
Mg45 O50 2.032 . S
Mg45 O52 2.079 . S
C46 O43 1.251 . S
C46 O44 1.248 . S
C47 O48 1.285 . S
C47 O55 1.263 . S
O48 C47 1.285 . S
O49 Mg42 1.986 1_455 S
O49 C53 1.246 . S
O50 Mg45 2.032 . S
O50 C53 1.259 . S
O51 Mg42 2.114 . S
O51 C54 1.252 . S
O52 Mg42 2.251 1_455 S
O52 Mg45 2.079 . S
O52 C54 1.273 1_455 S
C53 O49 1.246 . S
C53 O50 1.259 . S
C54 O51 1.252 . S
C54 O52 1.273 1_655 S
O55 Mg42 2.010 . S
O55 C47 1.263 . S
Mg56 O57 2.028 1_556 S
Mg56 O63 1.986 . S
Mg56 O65 2.114 . S
Mg56 O66 2.251 . S
Mg56 O69 2.010 1_556 S
O57 Mg56 2.028 1_554 S
O57 C60 1.250 . S
O58 Mg59 2.028 1_554 S
O58 C60 1.248 . S
Mg59 O58 2.028 1_556 S
Mg59 O64 2.032 . S
Mg59 O66 2.079 . S
C60 O57 1.250 . S
C60 O58 1.248 . S
C61 O62 1.264 . S
C61 O69 1.249 . S
O62 C61 1.264 . S
O63 Mg56 1.986 . S
O63 C67 1.246 . S
O64 Mg59 2.032 . S
O64 C67 1.259 . S
O65 Mg56 2.114 . S
O65 C68 1.252 . S
O66 Mg56 2.251 . S
O66 Mg59 2.079 . S
O66 C68 1.273 . S
C67 O63 1.246 . S
C67 O64 1.259 . S
C68 O65 1.252 . S
C68 O66 1.273 . S
O69 Mg56 2.010 1_554 S
O69 C61 1.249 . S
Mg70 O71 2.028 1_554 S
Mg70 O77 1.986 1_545 S
Mg70 O79 2.114 . S
Mg70 O80 2.251 1_545 S
Mg70 O83 2.010 . S
O71 Mg70 2.028 1_556 S
O71 C74 1.250 1_545 S
O72 Mg73 2.028 1_556 S
O72 C74 1.248 . S
Mg73 O72 2.028 1_554 S
Mg73 O78 2.032 . S
Mg73 O80 2.079 . S
C74 O71 1.250 1_565 S
C74 O72 1.248 . S
C75 O76 1.264 . S
C75 O83 1.249 . S
O76 C75 1.264 . S
O77 Mg70 1.986 1_565 S
O77 C81 1.246 . S
O78 Mg73 2.032 . S
O78 C81 1.259 . S
O79 Mg70 2.114 . S
O79 C82 1.252 . S
O80 Mg70 2.251 1_565 S
O80 Mg73 2.079 . S
O80 C82 1.273 1_565 S
C81 O77 1.246 . S
C81 O78 1.259 . S
C82 O79 1.252 . S
C82 O80 1.273 1_545 S
O83 Mg70 2.010 . S
O83 C75 1.249 . S
Mg84 O85 2.028 . S
Mg84 O91 1.986 . S
Mg84 O93 2.114 . S
Mg84 O94 2.251 . S
Mg84 O97 2.010 . S
O85 Mg84 2.028 . S
O85 C88 1.250 . S
O86 Mg87 2.028 . S
O86 C88 1.248 . S
Mg87 O86 2.028 . S
Mg87 O92 2.032 . S
Mg87 O94 2.079 . S
C88 O85 1.250 . S
C88 O86 1.248 . S
C89 O90 1.264 . S
C89 O97 1.249 . S
O90 C89 1.264 . S
O91 Mg84 1.986 . S
O91 C95 1.246 . S
O92 Mg87 2.032 . S
O92 C95 1.259 . S
O93 Mg84 2.114 . S
O93 C96 1.252 . S
O94 Mg84 2.251 . S
O94 Mg87 2.079 . S
O94 C96 1.273 . S
C95 O91 1.246 . S
C95 O92 1.259 . S
C96 O93 1.252 . S
C96 O94 1.273 . S
O97 Mg84 2.010 . S
O97 C89 1.249 . S
Mg98 O99 2.028 . S
Mg98 O105 1.986 1_565 S
Mg98 O107 2.114 . S
Mg98 O108 2.251 . S
Mg98 O111 2.010 . S
O99 Mg98 2.028 . S
O99 C102 1.250 . S
O100 Mg101 2.028 . S
O100 C102 1.248 . S
Mg101 O100 2.028 . S
Mg101 O106 2.032 1_565 S
Mg101 O108 2.079 . S
C102 O99 1.250 . S
C102 O100 1.248 . S
C103 O104 1.264 . S
C103 O111 1.249 . S
O104 C103 1.264 . S
O105 Mg98 1.986 1_545 S
O105 C109 1.246 . S
O106 Mg101 2.032 1_545 S
O106 C109 1.259 . S
O107 Mg98 2.114 . S
O107 C110 1.252 . S
O108 Mg98 2.251 . S
O108 Mg101 2.079 . S
O108 C110 1.273 . S
C109 O105 1.246 . S
C109 O106 1.259 . S
C110 O107 1.252 . S
C110 O108 1.273 . S
O111 Mg98 2.010 . S
O111 C103 1.249 . S
Mg112 O113 2.028 . S
Mg112 O119 1.986 . S
Mg112 O121 2.114 . S
Mg112 O122 2.251 . S
Mg112 O125 2.010 1_455 S
O113 Mg112 2.028 . S
O113 C116 1.250 . S
O114 Mg115 2.028 . S
O114 C116 1.248 . S
Mg115 O114 2.028 . S
Mg115 O120 2.032 . S
Mg115 O122 2.079 . S
C116 O113 1.250 . S
C116 O114 1.248 . S
C117 O118 1.264 . S
C117 O125 1.249 . S
O118 C117 1.264 . S
O119 Mg112 1.986 . S
O119 C123 1.246 . S
O120 Mg115 2.032 . S
O120 C123 1.259 . S
O121 Mg112 2.114 . S
O121 C124 1.252 . S
O122 Mg112 2.251 . S
O122 Mg115 2.079 . S
O122 C124 1.273 . S
C123 O119 1.246 . S
C123 O120 1.259 . S
C124 O121 1.252 . S
C124 O122 1.273 . S
O125 Mg112 2.010 1_655 S
O125 C117 1.249 . S
Mg126 O127 2.028 . S
Mg126 O133 1.986 1_565 S
Mg126 O135 2.114 . S
Mg126 O136 2.251 . S
Mg126 O139 2.010 . S
O127 Mg126 2.028 . S
O127 C130 1.250 . S
O128 Mg129 2.028 . S
O128 C130 1.248 . S
Mg129 O128 2.028 . S
Mg129 O134 2.032 1_565 S
Mg129 O136 2.079 . S
C130 O127 1.250 . S
C130 O128 1.248 . S
C131 O132 1.264 . S
C131 O139 1.249 . S
O132 C131 1.264 . S
O133 Mg126 1.986 1_545 S
O133 C137 1.246 . S
O134 Mg129 2.032 1_545 S
O134 C137 1.259 . S
O135 Mg126 2.114 . S
O135 C138 1.252 . S
O136 Mg126 2.251 . S
O136 Mg129 2.079 . S
O136 C138 1.273 . S
C137 O133 1.246 . S
C137 O134 1.259 . S
C138 O135 1.252 . S
C138 O136 1.273 . S
O139 Mg126 2.010 . S
O139 C131 1.249 . S
Mg140 O141 2.028 . S
Mg140 O147 1.986 . S
Mg140 O149 2.114 . S
Mg140 O150 2.251 . S
Mg140 O153 2.010 1_455 S
O141 Mg140 2.028 . S
O141 C144 1.250 . S
O142 Mg143 2.028 . S
O142 C144 1.248 . S
Mg143 O142 2.028 . S
Mg143 O148 2.032 . S
Mg143 O150 2.079 . S
C144 O141 1.250 . S
C144 O142 1.248 . S
C145 O146 1.264 . S
C145 O153 1.249 . S
O146 C145 1.264 . S
O147 Mg140 1.986 . S
O147 C151 1.246 . S
O148 Mg143 2.032 . S
O148 C151 1.259 . S
O149 Mg140 2.114 . S
O149 C152 1.252 . S
O150 Mg140 2.251 . S
O150 Mg143 2.079 . S
O150 C152 1.273 . S
C151 O147 1.246 . S
C151 O148 1.259 . S
C152 O149 1.252 . S
C152 O150 1.273 . S
O153 Mg140 2.010 1_655 S
O153 C145 1.249 . S
Mg154 O155 2.028 . S
Mg154 O161 1.986 . S
Mg154 O163 2.114 . S
Mg154 O164 2.251 . S
Mg154 O167 2.010 . S
O155 Mg154 2.028 . S
O155 C158 1.250 . S
O156 Mg157 2.028 . S
O156 C158 1.248 . S
Mg157 O156 2.028 . S
Mg157 O162 2.032 . S
Mg157 O164 2.079 . S
C158 O155 1.250 . S
C158 O156 1.248 . S
C159 O160 1.264 . S
C159 O167 1.249 . S
O160 C159 1.264 . S
O161 Mg154 1.986 . S
O161 C165 1.246 . S
O162 Mg157 2.032 . S
O162 C165 1.259 . S
O163 Mg154 2.114 . S
O163 C166 1.252 . S
O164 Mg154 2.251 . S
O164 Mg157 2.079 . S
O164 C166 1.273 . S
C165 O161 1.246 . S
C165 O162 1.259 . S
C166 O163 1.252 . S
C166 O164 1.273 . S
O167 Mg154 2.010 . S
O167 C159 1.249 . S
Mg168 O169 2.028 . S
Mg168 O175 1.986 1_545 S
Mg168 O177 2.114 . S
Mg168 O178 2.251 . S
Mg168 O181 2.010 . S
O169 Mg168 2.028 . S
O169 C172 1.250 . S
O170 Mg171 2.028 . S
O170 C172 1.248 . S
Mg171 O170 2.028 . S
Mg171 O176 2.032 1_545 S
Mg171 O178 2.079 . S
C172 O169 1.250 . S
C172 O170 1.248 . S
C173 O174 1.264 . S
C173 O181 1.249 . S
O174 C173 1.264 . S
O175 Mg168 1.986 1_565 S
O175 C179 1.246 . S
O176 Mg171 2.032 1_565 S
O176 C179 1.259 . S
O177 Mg168 2.114 . S
O177 C180 1.252 . S
O178 Mg168 2.251 . S
O178 Mg171 2.079 . S
O178 C180 1.273 . S
C179 O175 1.246 . S
C179 O176 1.259 . S
C180 O177 1.252 . S
C180 O178 1.273 . S
O181 Mg168 2.010 . S
O181 C173 1.249 . S
Mg182 O183 2.028 . S
Mg182 O189 1.986 . S
Mg182 O191 2.114 . S
Mg182 O192 2.251 . S
Mg182 O195 2.010 1_655 S
O183 Mg182 2.028 . S
O183 C186 1.250 . S
O184 Mg185 2.028 . S
O184 C186 1.248 . S
Mg185 O184 2.028 . S
Mg185 O190 2.032 . S
Mg185 O192 2.079 . S
C186 O183 1.250 . S
C186 O184 1.248 . S
C187 O188 1.264 . S
C187 O195 1.249 . S
O188 C187 1.264 . S
O189 Mg182 1.986 . S
O189 C193 1.246 . S
O190 Mg185 2.032 . S
O190 C193 1.259 . S
O191 Mg182 2.114 . S
O191 C194 1.252 . S
O192 Mg182 2.251 . S
O192 Mg185 2.079 . S
O192 C194 1.273 . S
C193 O189 1.246 . S
C193 O190 1.259 . S
C194 O191 1.252 . S
C194 O192 1.273 . S
O195 Mg182 2.010 1_455 S
O195 C187 1.249 . S
Mg196 O197 2.028 . S
Mg196 O203 1.986 . S
Mg196 O205 2.114 . S
Mg196 O206 2.251 . S
Mg196 O209 2.010 . S
O197 Mg196 2.028 . S
O197 C200 1.250 . S
O198 Mg199 2.028 . S
O198 C200 1.248 . S
Mg199 O198 2.028 . S
Mg199 O204 2.032 . S
Mg199 O206 2.079 . S
C200 O197 1.250 . S
C200 O198 1.248 . S
C201 O202 1.264 . S
C201 O209 1.249 . S
O202 C201 1.264 . S
O203 Mg196 1.986 . S
O203 C207 1.246 . S
O204 Mg199 2.032 . S
O204 C207 1.259 . S
O205 Mg196 2.114 . S
O205 C208 1.252 . S
O206 Mg196 2.251 . S
O206 Mg199 2.079 . S
O206 C208 1.273 . S
C207 O203 1.246 . S
C207 O204 1.259 . S
C208 O205 1.252 . S
C208 O206 1.273 . S
O209 Mg196 2.010 . S
O209 C201 1.249 . S
Mg210 O211 2.028 . S
Mg210 O217 1.986 . S
Mg210 O219 2.114 . S
Mg210 O220 2.251 . S
Mg210 O223 2.010 . S
O211 Mg210 2.028 . S
O211 C214 1.250 . S
O212 Mg213 2.028 . S
O212 C214 1.248 . S
Mg213 O212 2.028 . S
Mg213 O218 2.032 . S
Mg213 O220 2.079 . S
C214 O211 1.250 . S
C214 O212 1.248 . S
C215 O216 1.264 . S
C215 O223 1.249 . S
O216 C215 1.264 . S
O217 Mg210 1.986 . S
O217 C221 1.246 . S
O218 Mg213 2.032 . S
O218 C221 1.259 . S
O219 Mg210 2.114 . S
O219 C222 1.252 . S
O220 Mg210 2.251 . S
O220 Mg213 2.079 . S
O220 C222 1.273 . S
C221 O217 1.246 . S
C221 O218 1.259 . S
C222 O219 1.252 . S
C222 O220 1.273 . S
O223 Mg210 2.010 . S
O223 C215 1.249 . S
Mg224 O225 2.028 . S
Mg224 O231 1.986 1_545 S
Mg224 O233 2.114 . S
Mg224 O234 2.251 . S
Mg224 O237 2.010 . S
O225 Mg224 2.028 . S
O225 C228 1.250 . S
O226 Mg227 2.028 . S
O226 C228 1.248 . S
Mg227 O226 2.028 . S
Mg227 O232 2.032 1_545 S
Mg227 O234 2.079 . S
C228 O225 1.250 . S
C228 O226 1.248 . S
C229 O230 1.264 . S
C229 O237 1.249 . S
O230 C229 1.264 . S
O231 Mg224 1.986 1_565 S
O231 C235 1.246 . S
O232 Mg227 2.032 1_565 S
O232 C235 1.259 . S
O233 Mg224 2.114 . S
O233 C236 1.252 . S
O234 Mg224 2.251 . S
O234 Mg227 2.079 . S
O234 C236 1.273 . S
C235 O231 1.246 . S
C235 O232 1.259 . S
C236 O233 1.252 . S
C236 O234 1.273 . S
O237 Mg224 2.010 . S
O237 C229 1.249 . S
Mg238 O239 2.028 . S
Mg238 O245 1.986 . S
Mg238 O247 2.114 . S
Mg238 O248 2.251 . S
Mg238 O251 2.010 1_655 S
O239 Mg238 2.028 . S
O239 C242 1.250 . S
O240 Mg241 2.028 . S
O240 C242 1.248 . S
Mg241 O240 2.028 . S
Mg241 O246 2.032 . S
Mg241 O248 2.079 . S
C242 O239 1.250 . S
C242 O240 1.248 . S
C243 O244 1.264 . S
C243 O251 1.249 . S
O244 C243 1.264 . S
O245 Mg238 1.986 . S
O245 C249 1.246 . S
O246 Mg241 2.032 . S
O246 C249 1.259 . S
O247 Mg238 2.114 . S
O247 C250 1.252 . S
O248 Mg238 2.251 . S
O248 Mg241 2.079 . S
O248 C250 1.273 . S
C249 O245 1.246 . S
C249 O246 1.259 . S
C250 O247 1.252 . S
C250 O248 1.273 . S
O251 Mg238 2.010 1_455 S
O251 C243 1.249 . S
H252 C271 0.949 . S
H253 C272 0.950 . S
H254 C274 0.950 . S
H255 C275 0.950 . S
H256 C277 0.950 . S
H257 C280 0.950 . S
H258 C281 0.950 . S
H259 C283 0.951 . S
H260 C284 0.949 . S
H261 C286 0.949 . S
H262 C287 0.950 . S
H263 C289 0.950 . S
H264 C290 0.950 . S
H265 C292 0.950 . S
H266 C295 0.950 . S
H267 C296 0.950 . S
H268 C298 0.951 . S
H269 C299 0.949 . S
C270 C271 1.376 . S
C270 C275 1.386 . S
C270 C276 1.483 . S
C271 H252 0.949 . S
C271 C270 1.376 . S
C271 C272 1.397 . S
C272 H253 0.950 . S
C272 C271 1.397 . S
C272 C273 1.391 . S
C273 C272 1.391 . S
C273 C274 1.405 . S
C274 H254 0.950 . S
C274 C273 1.405 . S
C274 C275 1.367 . S
C275 H255 0.950 . S
C275 C270 1.386 . S
C275 C274 1.367 . S
C276 C270 1.483 . S
C276 C277 1.382 . S
C276 C278 1.403 . S
C277 H256 0.950 . S
C277 C276 1.382 . S
C277 C293 1.411 . S
C278 C276 1.403 . S
C278 C279 1.489 . S
C278 C292 1.411 . S
C279 C278 1.489 . S
C279 C280 1.383 . S
C279 C284 1.382 . S
C280 H257 0.950 . S
C280 C279 1.383 . S
C280 C281 1.395 . S
C281 H258 0.950 . S
C281 C280 1.395 . S
C281 C282 1.288 . S
C282 C281 1.288 . S
C282 C283 1.392 . S
C283 H259 0.951 . S
C283 C282 1.392 . S
C283 C284 1.392 . S
C284 H260 0.949 . S
C284 C279 1.382 . S
C284 C283 1.392 . S
C285 C286 1.376 . S
C285 C290 1.386 . S
C285 C291 1.483 . S
C286 H261 0.949 . S
C286 C285 1.376 . S
C286 C287 1.397 . S
C287 H262 0.950 . S
C287 C286 1.397 . S
C287 C288 1.391 . S
C288 C287 1.391 . S
C288 C289 1.405 . S
C289 H263 0.950 . S
C289 C288 1.405 . S
C289 C290 1.367 . S
C290 H264 0.950 . S
C290 C285 1.386 . S
C290 C289 1.367 . S
C291 C285 1.483 . S
C291 C292 1.382 . S
C291 C293 1.403 . S
C292 H265 0.950 . S
C292 C278 1.411 . S
C292 C291 1.382 . S
C293 C277 1.411 . S
C293 C291 1.403 . S
C293 C294 1.489 . S
C294 C293 1.489 . S
C294 C295 1.383 . S
C294 C299 1.382 . S
C295 H266 0.950 . S
C295 C294 1.383 . S
C295 C296 1.395 . S
C296 H267 0.950 . S
C296 C295 1.395 . S
C296 C297 1.288 . S
C297 C296 1.288 . S
C297 C298 1.392 . S
C298 H268 0.951 . S
C298 C297 1.392 . S
C298 C299 1.392 . S
C299 H269 0.949 . S
C299 C294 1.382 . S
C299 C298 1.392 . S
H300 C319 0.949 . S
H301 C320 0.950 . S
H302 C322 0.950 . S
H303 C323 0.950 . S
H304 C325 0.950 . S
H305 C328 0.950 . S
H306 C329 0.950 . S
H307 C331 0.951 . S
H308 C332 0.949 . S
H309 C334 0.949 . S
H310 C335 0.950 . S
H311 C337 0.950 . S
H312 C338 0.950 . S
H313 C340 0.950 . S
H314 C343 0.950 . S
H315 C344 0.950 . S
H316 C346 0.951 . S
H317 C347 0.949 . S
C318 C319 1.376 . S
C318 C323 1.386 . S
C318 C324 1.483 . S
C319 H300 0.949 . S
C319 C318 1.376 . S
C319 C320 1.397 . S
C320 H301 0.950 . S
C320 C319 1.397 . S
C320 C321 1.391 . S
C321 C320 1.391 . S
C321 C322 1.405 . S
C322 H302 0.950 . S
C322 C321 1.405 . S
C322 C323 1.367 . S
C323 H303 0.950 . S
C323 C318 1.386 . S
C323 C322 1.367 . S
C324 C318 1.483 . S
C324 C325 1.382 . S
C324 C326 1.403 . S
C325 H304 0.950 . S
C325 C324 1.382 . S
C325 C341 1.411 . S
C326 C324 1.403 . S
C326 C327 1.489 . S
C326 C340 1.411 . S
C327 C326 1.489 . S
C327 C328 1.383 . S
C327 C332 1.382 . S
C328 H305 0.950 . S
C328 C327 1.383 . S
C328 C329 1.395 . S
C329 H306 0.950 . S
C329 C328 1.395 . S
C329 C330 1.288 . S
C330 C329 1.288 . S
C330 C331 1.392 . S
C331 H307 0.951 . S
C331 C330 1.392 . S
C331 C332 1.392 . S
C332 H308 0.949 . S
C332 C327 1.382 . S
C332 C331 1.392 . S
C333 C334 1.376 . S
C333 C338 1.386 . S
C333 C339 1.483 . S
C334 H309 0.949 . S
C334 C333 1.376 . S
C334 C335 1.397 . S
C335 H310 0.950 . S
C335 C334 1.397 . S
C335 C336 1.391 . S
C336 C335 1.391 . S
C336 C337 1.405 . S
C337 H311 0.950 . S
C337 C336 1.405 . S
C337 C338 1.367 . S
C338 H312 0.950 . S
C338 C333 1.386 . S
C338 C337 1.367 . S
C339 C333 1.483 . S
C339 C340 1.382 . S
C339 C341 1.403 . S
C340 H313 0.950 . S
C340 C326 1.411 . S
C340 C339 1.382 . S
C341 C325 1.411 . S
C341 C339 1.403 . S
C341 C342 1.489 . S
C342 C341 1.489 . S
C342 C343 1.383 . S
C342 C347 1.382 . S
C343 H314 0.950 . S
C343 C342 1.383 . S
C343 C344 1.395 . S
C344 H315 0.950 . S
C344 C343 1.395 . S
C344 C345 1.288 . S
C345 C344 1.288 . S
C345 C346 1.392 . S
C346 H316 0.951 . S
C346 C345 1.392 . S
C346 C347 1.392 . S
C347 H317 0.949 . S
C347 C342 1.382 . S
C347 C346 1.392 . S
H348 C367 0.949 . S
H349 C368 0.950 . S
H350 C370 0.950 . S
H351 C371 0.950 . S
H352 C373 0.950 . S
H353 C376 0.950 . S
H354 C377 0.950 . S
H355 C379 0.951 . S
H356 C380 0.949 . S
H357 C382 0.949 . S
H358 C383 0.950 . S
H359 C385 0.950 . S
H360 C386 0.950 . S
H361 C388 0.950 . S
H362 C391 0.950 . S
H363 C392 0.950 . S
H364 C394 0.951 . S
H365 C395 0.949 . S
C366 C367 1.376 . S
C366 C371 1.386 . S
C366 C372 1.483 . S
C367 H348 0.949 . S
C367 C366 1.376 . S
C367 C368 1.397 . S
C368 H349 0.950 . S
C368 C367 1.397 . S
C368 C369 1.391 . S
C369 C368 1.391 . S
C369 C370 1.405 . S
C370 H350 0.950 . S
C370 C369 1.405 . S
C370 C371 1.367 . S
C371 H351 0.950 . S
C371 C366 1.386 . S
C371 C370 1.367 . S
C372 C366 1.483 . S
C372 C373 1.382 . S
C372 C374 1.403 . S
C373 H352 0.950 . S
C373 C372 1.382 . S
C373 C389 1.411 . S
C374 C372 1.403 . S
C374 C375 1.489 . S
C374 C388 1.411 . S
C375 C374 1.489 . S
C375 C376 1.383 . S
C375 C380 1.382 . S
C376 H353 0.950 . S
C376 C375 1.383 . S
C376 C377 1.395 . S
C377 H354 0.950 . S
C377 C376 1.395 . S
C377 C378 1.288 . S
C378 C377 1.288 . S
C378 C379 1.392 . S
C379 H355 0.951 . S
C379 C378 1.392 . S
C379 C380 1.392 . S
C380 H356 0.949 . S
C380 C375 1.382 . S
C380 C379 1.392 . S
C381 C382 1.376 . S
C381 C386 1.386 . S
C381 C387 1.483 . S
C382 H357 0.949 . S
C382 C381 1.376 . S
C382 C383 1.397 . S
C383 H358 0.950 . S
C383 C382 1.397 . S
C383 C384 1.391 . S
C384 C383 1.391 . S
C384 C385 1.405 . S
C385 H359 0.950 . S
C385 C384 1.405 . S
C385 C386 1.367 . S
C386 H360 0.950 . S
C386 C381 1.386 . S
C386 C385 1.367 . S
C387 C381 1.483 . S
C387 C388 1.382 . S
C387 C389 1.403 . S
C388 H361 0.950 . S
C388 C374 1.411 . S
C388 C387 1.382 . S
C389 C373 1.411 . S
C389 C387 1.403 . S
C389 C390 1.489 . S
C390 C389 1.489 . S
C390 C391 1.383 . S
C390 C395 1.382 . S
C391 H362 0.950 . S
C391 C390 1.383 . S
C391 C392 1.395 . S
C392 H363 0.950 . S
C392 C391 1.395 . S
C392 C393 1.288 . S
C393 C392 1.288 . S
C393 C394 1.392 . S
C394 H364 0.951 . S
C394 C393 1.392 . S
C394 C395 1.392 . S
C395 H365 0.949 . S
C395 C390 1.382 . S
C395 C394 1.392 . S
H396 C415 0.949 . S
H397 C416 0.950 . S
H398 C418 0.950 . S
H399 C419 0.950 . S
H400 C421 0.950 . S
H401 C424 0.950 . S
H402 C425 0.950 . S
H403 C427 0.951 . S
H404 C428 0.949 . S
H405 C430 0.949 . S
H406 C431 0.950 . S
H407 C433 0.950 . S
H408 C434 0.950 . S
H409 C436 0.950 . S
H410 C439 0.950 . S
H411 C440 0.950 . S
H412 C442 0.951 . S
H413 C443 0.949 . S
C414 C415 1.376 . S
C414 C419 1.386 . S
C414 C420 1.483 . S
C415 H396 0.949 . S
C415 C414 1.376 . S
C415 C416 1.397 . S
C416 H397 0.950 . S
C416 C415 1.397 . S
C416 C417 1.391 . S
C417 C416 1.391 . S
C417 C418 1.405 . S
C418 H398 0.950 . S
C418 C417 1.405 . S
C418 C419 1.367 . S
C419 H399 0.950 . S
C419 C414 1.386 . S
C419 C418 1.367 . S
C420 C414 1.483 . S
C420 C421 1.382 . S
C420 C422 1.403 . S
C421 H400 0.950 . S
C421 C420 1.382 . S
C421 C437 1.411 . S
C422 C420 1.403 . S
C422 C423 1.489 . S
C422 C436 1.411 . S
C423 C422 1.489 . S
C423 C424 1.383 . S
C423 C428 1.382 . S
C424 H401 0.950 . S
C424 C423 1.383 . S
C424 C425 1.395 . S
C425 H402 0.950 . S
C425 C424 1.395 . S
C425 C426 1.288 . S
C426 C425 1.288 . S
C426 C427 1.392 . S
C427 H403 0.951 . S
C427 C426 1.392 . S
C427 C428 1.392 . S
C428 H404 0.949 . S
C428 C423 1.382 . S
C428 C427 1.392 . S
C429 C430 1.376 . S
C429 C434 1.386 . S
C429 C435 1.483 . S
C430 H405 0.949 . S
C430 C429 1.376 . S
C430 C431 1.397 . S
C431 H406 0.950 . S
C431 C430 1.397 . S
C431 C432 1.391 . S
C432 C431 1.391 . S
C432 C433 1.405 . S
C433 H407 0.950 . S
C433 C432 1.405 . S
C433 C434 1.367 . S
C434 H408 0.950 . S
C434 C429 1.386 . S
C434 C433 1.367 . S
C435 C429 1.483 . S
C435 C436 1.382 . S
C435 C437 1.403 . S
C436 H409 0.950 . S
C436 C422 1.411 . S
C436 C435 1.382 . S
C437 C421 1.411 . S
C437 C435 1.403 . S
C437 C438 1.489 . S
C438 C437 1.489 . S
C438 C439 1.383 . S
C438 C443 1.382 . S
C439 H410 0.950 . S
C439 C438 1.383 . S
C439 C440 1.395 . S
C440 H411 0.950 . S
C440 C439 1.395 . S
C440 C441 1.288 . S
C441 C440 1.288 . S
C441 C442 1.392 . S
C442 H412 0.951 . S
C442 C441 1.392 . S
C442 C443 1.392 . S
C443 H413 0.949 . S
C443 C438 1.382 . S
C443 C442 1.392 . S
H444 C463 0.949 . S
H445 C464 0.950 . S
H446 C466 0.950 . S
H447 C467 0.950 . S
H448 C469 0.950 . S
H449 C472 0.950 . S
H450 C473 0.950 . S
H451 C475 0.951 . S
H452 C476 0.949 . S
H453 C478 0.949 . S
H454 C479 0.950 . S
H455 C481 0.950 . S
H456 C482 0.950 . S
H457 C484 0.950 . S
H458 C487 0.950 . S
H459 C488 0.950 . S
H460 C490 0.951 . S
H461 C491 0.949 . S
C462 C463 1.376 . S
C462 C467 1.386 . S
C462 C468 1.483 . S
C463 H444 0.949 . S
C463 C462 1.376 . S
C463 C464 1.397 . S
C464 H445 0.950 . S
C464 C463 1.397 . S
C464 C465 1.391 . S
C465 C464 1.391 . S
C465 C466 1.405 . S
C466 H446 0.950 . S
C466 C465 1.405 . S
C466 C467 1.367 . S
C467 H447 0.950 . S
C467 C462 1.386 . S
C467 C466 1.367 . S
C468 C462 1.483 . S
C468 C469 1.382 . S
C468 C470 1.403 . S
C469 H448 0.950 . S
C469 C468 1.382 . S
C469 C485 1.411 . S
C470 C468 1.403 . S
C470 C471 1.489 . S
C470 C484 1.411 . S
C471 C470 1.489 . S
C471 C472 1.383 . S
C471 C476 1.382 . S
C472 H449 0.950 . S
C472 C471 1.383 . S
C472 C473 1.395 . S
C473 H450 0.950 . S
C473 C472 1.395 . S
C473 C474 1.288 . S
C474 C473 1.288 . S
C474 C475 1.392 . S
C475 H451 0.951 . S
C475 C474 1.392 . S
C475 C476 1.392 . S
C476 H452 0.949 . S
C476 C471 1.382 . S
C476 C475 1.392 . S
C477 C478 1.376 . S
C477 C482 1.386 . S
C477 C483 1.483 . S
C478 H453 0.949 . S
C478 C477 1.376 . S
C478 C479 1.397 . S
C479 H454 0.950 . S
C479 C478 1.397 . S
C479 C480 1.391 . S
C480 C479 1.391 . S
C480 C481 1.405 . S
C481 H455 0.950 . S
C481 C480 1.405 . S
C481 C482 1.367 . S
C482 H456 0.950 . S
C482 C477 1.386 . S
C482 C481 1.367 . S
C483 C477 1.483 . S
C483 C484 1.382 . S
C483 C485 1.403 . S
C484 H457 0.950 . S
C484 C470 1.411 . S
C484 C483 1.382 . S
C485 C469 1.411 . S
C485 C483 1.403 . S
C485 C486 1.489 . S
C486 C485 1.489 . S
C486 C487 1.383 . S
C486 C491 1.382 . S
C487 H458 0.950 . S
C487 C486 1.383 . S
C487 C488 1.395 . S
C488 H459 0.950 . S
C488 C487 1.395 . S
C488 C489 1.288 . S
C489 C488 1.288 . S
C489 C490 1.392 . S
C490 H460 0.951 . S
C490 C489 1.392 . S
C490 C491 1.392 . S
C491 H461 0.949 . S
C491 C486 1.382 . S
C491 C490 1.392 . S
H492 C511 0.949 . S
H493 C512 0.950 . S
H494 C514 0.950 . S
H495 C515 0.950 . S
H496 C517 0.950 . S
H497 C520 0.950 . S
H498 C521 0.950 . S
H499 C523 0.951 . S
H500 C524 0.949 . S
H501 C526 0.949 . S
H502 C527 0.950 . S
H503 C529 0.950 . S
H504 C530 0.950 . S
H505 C532 0.950 . S
H506 C535 0.950 . S
H507 C536 0.950 . S
H508 C538 0.951 . S
H509 C539 0.949 . S
C510 C511 1.376 . S
C510 C515 1.386 . S
C510 C516 1.483 . S
C511 H492 0.949 . S
C511 C510 1.376 . S
C511 C512 1.397 . S
C512 H493 0.950 . S
C512 C511 1.397 . S
C512 C513 1.391 . S
C513 C512 1.391 . S
C513 C514 1.405 . S
C514 H494 0.950 . S
C514 C513 1.405 . S
C514 C515 1.367 . S
C515 H495 0.950 . S
C515 C510 1.386 . S
C515 C514 1.367 . S
C516 C510 1.483 . S
C516 C517 1.382 . S
C516 C518 1.403 . S
C517 H496 0.950 . S
C517 C516 1.382 . S
C517 C533 1.411 . S
C518 C516 1.403 . S
C518 C519 1.489 . S
C518 C532 1.411 . S
C519 C518 1.489 . S
C519 C520 1.383 . S
C519 C524 1.382 . S
C520 H497 0.950 . S
C520 C519 1.383 . S
C520 C521 1.395 . S
C521 H498 0.950 . S
C521 C520 1.395 . S
C521 C522 1.288 . S
C522 C521 1.288 . S
C522 C523 1.392 . S
C523 H499 0.951 . S
C523 C522 1.392 . S
C523 C524 1.392 . S
C524 H500 0.949 . S
C524 C519 1.382 . S
C524 C523 1.392 . S
C525 C526 1.376 . S
C525 C530 1.386 . S
C525 C531 1.483 . S
C526 H501 0.949 . S
C526 C525 1.376 . S
C526 C527 1.397 . S
C527 H502 0.950 . S
C527 C526 1.397 . S
C527 C528 1.391 . S
C528 C527 1.391 . S
C528 C529 1.405 . S
C529 H503 0.950 . S
C529 C528 1.405 . S
C529 C530 1.367 . S
C530 H504 0.950 . S
C530 C525 1.386 . S
C530 C529 1.367 . S
C531 C525 1.483 . S
C531 C532 1.382 . S
C531 C533 1.403 . S
C532 H505 0.950 . S
C532 C518 1.411 . S
C532 C531 1.382 . S
C533 C517 1.411 . S
C533 C531 1.403 . S
C533 C534 1.489 . S
C534 C533 1.489 . S
C534 C535 1.383 . S
C534 C539 1.382 . S
C535 H506 0.950 . S
C535 C534 1.383 . S
C535 C536 1.395 . S
C536 H507 0.950 . S
C536 C535 1.395 . S
C536 C537 1.288 . S
C537 C536 1.288 . S
C537 C538 1.392 . S
C538 H508 0.951 . S
C538 C537 1.392 . S
C538 C539 1.392 . S
C539 H509 0.949 . S
C539 C534 1.382 . S
C539 C538 1.392 . S
H540 C559 0.949 . S
H541 C560 0.950 . S
H542 C562 0.950 . S
H543 C563 0.950 . S
H544 C565 0.950 . S
H545 C568 0.950 . S
H546 C569 0.950 . S
H547 C571 0.951 . S
H548 C572 0.949 . S
H549 C574 0.949 . S
H550 C575 0.950 . S
H551 C577 0.950 . S
H552 C578 0.950 . S
H553 C580 0.950 . S
H554 C583 0.950 . S
H555 C584 0.950 . S
H556 C586 0.951 . S
H557 C587 0.949 . S
C558 C559 1.376 . S
C558 C563 1.386 . S
C558 C564 1.483 . S
C559 H540 0.949 . S
C559 C558 1.376 . S
C559 C560 1.397 . S
C560 H541 0.950 . S
C560 C559 1.397 . S
C560 C561 1.391 . S
C561 C560 1.391 . S
C561 C562 1.405 . S
C562 H542 0.950 . S
C562 C561 1.405 . S
C562 C563 1.367 . S
C563 H543 0.950 . S
C563 C558 1.386 . S
C563 C562 1.367 . S
C564 C558 1.483 . S
C564 C565 1.382 . S
C564 C566 1.403 . S
C565 H544 0.950 . S
C565 C564 1.382 . S
C565 C581 1.411 . S
C566 C564 1.403 . S
C566 C567 1.489 . S
C566 C580 1.411 . S
C567 C566 1.489 . S
C567 C568 1.383 . S
C567 C572 1.382 . S
C568 H545 0.950 . S
C568 C567 1.383 . S
C568 C569 1.395 . S
C569 H546 0.950 . S
C569 C568 1.395 . S
C569 C570 1.288 . S
C570 C569 1.288 . S
C570 C571 1.392 . S
C571 H547 0.951 . S
C571 C570 1.392 . S
C571 C572 1.392 . S
C572 H548 0.949 . S
C572 C567 1.382 . S
C572 C571 1.392 . S
C573 C574 1.376 . S
C573 C578 1.386 . S
C573 C579 1.483 . S
C574 H549 0.949 . S
C574 C573 1.376 . S
C574 C575 1.397 . S
C575 H550 0.950 . S
C575 C574 1.397 . S
C575 C576 1.391 . S
C576 C575 1.391 . S
C576 C577 1.405 . S
C577 H551 0.950 . S
C577 C576 1.405 . S
C577 C578 1.367 . S
C578 H552 0.950 . S
C578 C573 1.386 . S
C578 C577 1.367 . S
C579 C573 1.483 . S
C579 C580 1.382 . S
C579 C581 1.403 . S
C580 H553 0.950 . S
C580 C566 1.411 . S
C580 C579 1.382 . S
C581 C565 1.411 . S
C581 C579 1.403 . S
C581 C582 1.489 . S
C582 C581 1.489 . S
C582 C583 1.383 . S
C582 C587 1.382 . S
C583 H554 0.950 . S
C583 C582 1.383 . S
C583 C584 1.395 . S
C584 H555 0.950 . S
C584 C583 1.395 . S
C584 C585 1.288 . S
C585 C584 1.288 . S
C585 C586 1.392 . S
C586 H556 0.951 . S
C586 C585 1.392 . S
C586 C587 1.392 . S
C587 H557 0.949 . S
C587 C582 1.382 . S
C587 C586 1.392 . S
H588 C607 0.949 . S
H589 C608 0.950 . S
H590 C610 0.950 . S
H591 C611 0.950 . S
H592 C613 0.950 . S
H593 C616 0.950 . S
H594 C617 0.950 . S
H595 C619 0.951 . S
H596 C620 0.949 . S
H597 C622 0.949 . S
H598 C623 0.950 . S
H599 C625 0.950 . S
H600 C626 0.950 . S
H601 C628 0.950 . S
H602 C631 0.950 . S
H603 C632 0.950 . S
H604 C634 0.951 . S
H605 C635 0.949 . S
C606 C607 1.376 . S
C606 C611 1.386 . S
C606 C612 1.483 . S
C607 H588 0.949 . S
C607 C606 1.376 . S
C607 C608 1.397 . S
C608 H589 0.950 . S
C608 C607 1.397 . S
C608 C609 1.391 . S
C609 C608 1.391 . S
C609 C610 1.405 . S
C610 H590 0.950 . S
C610 C609 1.405 . S
C610 C611 1.367 . S
C611 H591 0.950 . S
C611 C606 1.386 . S
C611 C610 1.367 . S
C612 C606 1.483 . S
C612 C613 1.382 . S
C612 C614 1.403 . S
C613 H592 0.950 . S
C613 C612 1.382 . S
C613 C629 1.411 . S
C614 C612 1.403 . S
C614 C615 1.489 . S
C614 C628 1.411 . S
C615 C614 1.489 . S
C615 C616 1.383 . S
C615 C620 1.382 . S
C616 H593 0.950 . S
C616 C615 1.383 . S
C616 C617 1.395 . S
C617 H594 0.950 . S
C617 C616 1.395 . S
C617 C618 1.288 . S
C618 C617 1.288 . S
C618 C619 1.392 . S
C619 H595 0.951 . S
C619 C618 1.392 . S
C619 C620 1.392 . S
C620 H596 0.949 . S
C620 C615 1.382 . S
C620 C619 1.392 . S
C621 C622 1.376 . S
C621 C626 1.386 . S
C621 C627 1.483 . S
C622 H597 0.949 . S
C622 C621 1.376 . S
C622 C623 1.397 . S
C623 H598 0.950 . S
C623 C622 1.397 . S
C623 C624 1.391 . S
C624 C623 1.391 . S
C624 C625 1.405 . S
C625 H599 0.950 . S
C625 C624 1.405 . S
C625 C626 1.367 . S
C626 H600 0.950 . S
C626 C621 1.386 . S
C626 C625 1.367 . S
C627 C621 1.483 . S
C627 C628 1.382 . S
C627 C629 1.403 . S
C628 H601 0.950 . S
C628 C614 1.411 . S
C628 C627 1.382 . S
C629 C613 1.411 . S
C629 C627 1.403 . S
C629 C630 1.489 . S
C630 C629 1.489 . S
C630 C631 1.383 . S
C630 C635 1.382 . S
C631 H602 0.950 . S
C631 C630 1.383 . S
C631 C632 1.395 . S
C632 H603 0.950 . S
C632 C631 1.395 . S
C632 C633 1.288 . S
C633 C632 1.288 . S
C633 C634 1.392 . S
C634 H604 0.951 . S
C634 C633 1.392 . S
C634 C635 1.392 . S
C635 H605 0.949 . S
C635 C630 1.382 . S
C635 C634 1.392 . S
H636 C655 0.949 . S
H637 C656 0.950 . S
H638 C658 0.950 . S
H639 C659 0.950 . S
H640 C661 0.950 . S
H641 C664 0.950 . S
H642 C665 0.950 . S
H643 C667 0.951 . S
H644 C668 0.949 . S
H645 C670 0.949 . S
H646 C671 0.950 . S
H647 C673 0.950 . S
H648 C674 0.950 . S
H649 C676 0.950 . S
H650 C679 0.950 . S
H651 C680 0.950 . S
H652 C682 0.951 . S
H653 C683 0.949 . S
C654 C655 1.376 . S
C654 C659 1.386 . S
C654 C660 1.483 . S
C655 H636 0.949 . S
C655 C654 1.376 . S
C655 C656 1.397 . S
C656 H637 0.950 . S
C656 C655 1.397 . S
C656 C657 1.391 . S
C657 C656 1.391 . S
C657 C658 1.405 . S
C658 H638 0.950 . S
C658 C657 1.405 . S
C658 C659 1.367 . S
C659 H639 0.950 . S
C659 C654 1.386 . S
C659 C658 1.367 . S
C660 C654 1.483 . S
C660 C661 1.382 . S
C660 C662 1.403 . S
C661 H640 0.950 . S
C661 C660 1.382 . S
C661 C677 1.411 . S
C662 C660 1.403 . S
C662 C663 1.489 . S
C662 C676 1.411 . S
C663 C662 1.489 . S
C663 C664 1.383 . S
C663 C668 1.382 . S
C664 H641 0.950 . S
C664 C663 1.383 . S
C664 C665 1.395 . S
C665 H642 0.950 . S
C665 C664 1.395 . S
C665 C666 1.288 . S
C666 C665 1.288 . S
C666 C667 1.392 . S
C667 H643 0.951 . S
C667 C666 1.392 . S
C667 C668 1.392 . S
C668 H644 0.949 . S
C668 C663 1.382 . S
C668 C667 1.392 . S
C669 C670 1.376 . S
C669 C674 1.386 . S
C669 C675 1.483 . S
C670 H645 0.949 . S
C670 C669 1.376 . S
C670 C671 1.397 . S
C671 H646 0.950 . S
C671 C670 1.397 . S
C671 C672 1.391 . S
C672 C671 1.391 . S
C672 C673 1.405 . S
C673 H647 0.950 . S
C673 C672 1.405 . S
C673 C674 1.367 . S
C674 H648 0.950 . S
C674 C669 1.386 . S
C674 C673 1.367 . S
C675 C669 1.483 . S
C675 C676 1.382 . S
C675 C677 1.403 . S
C676 H649 0.950 . S
C676 C662 1.411 . S
C676 C675 1.382 . S
C677 C661 1.411 . S
C677 C675 1.403 . S
C677 C678 1.489 . S
C678 C677 1.489 . S
C678 C679 1.383 . S
C678 C683 1.382 . S
C679 H650 0.950 . S
C679 C678 1.383 . S
C679 C680 1.395 . S
C680 H651 0.950 . S
C680 C679 1.395 . S
C680 C681 1.288 . S
C681 C680 1.288 . S
C681 C682 1.392 . S
C682 H652 0.951 . S
C682 C681 1.392 . S
C682 C683 1.392 . S
C683 H653 0.949 . S
C683 C678 1.382 . S
C683 C682 1.392 . S
H684 C703 0.949 . S
H685 C704 0.950 . S
H686 C706 0.950 . S
H687 C707 0.950 . S
H688 C709 0.950 . S
H689 C712 0.950 . S
H690 C713 0.950 . S
H691 C715 0.951 . S
H692 C716 0.949 . S
H693 C718 0.949 . S
H694 C719 0.950 . S
H695 C721 0.950 . S
H696 C722 0.950 . S
H697 C724 0.950 . S
H698 C727 0.950 . S
H699 C728 0.950 . S
H700 C730 0.951 . S
H701 C731 0.949 . S
C702 C703 1.376 . S
C702 C707 1.386 1_655 S
C702 C708 1.483 . S
C703 H684 0.949 . S
C703 C702 1.376 . S
C703 C704 1.397 . S
C704 H685 0.950 . S
C704 C703 1.397 . S
C704 C705 1.391 . S
C705 C704 1.391 . S
C705 C706 1.405 1_655 S
C706 H686 0.950 . S
C706 C705 1.405 1_455 S
C706 C707 1.367 . S
C707 H687 0.950 . S
C707 C702 1.386 1_455 S
C707 C706 1.367 . S
C708 C702 1.483 . S
C708 C709 1.382 . S
C708 C710 1.403 1_655 S
C709 H688 0.950 . S
C709 C708 1.382 . S
C709 C725 1.411 . S
C710 C708 1.403 1_455 S
C710 C711 1.489 . S
C710 C724 1.411 . S
C711 C710 1.489 . S
C711 C712 1.383 1_455 S
C711 C716 1.382 . S
C712 H689 0.950 . S
C712 C711 1.383 1_655 S
C712 C713 1.395 . S
C713 H690 0.950 . S
C713 C712 1.395 . S
C713 C714 1.288 1_655 S
C714 C713 1.288 1_455 S
C714 C715 1.392 . S
C715 H691 0.951 . S
C715 C714 1.392 . S
C715 C716 1.392 . S
C716 H692 0.949 . S
C716 C711 1.382 . S
C716 C715 1.392 . S
C717 C718 1.376 . S
C717 C722 1.386 1_455 S
C717 C723 1.483 . S
C718 H693 0.949 . S
C718 C717 1.376 . S
C718 C719 1.397 . S
C719 H694 0.950 . S
C719 C718 1.397 . S
C719 C720 1.391 . S
C720 C719 1.391 . S
C720 C721 1.405 1_455 S
C721 H695 0.950 . S
C721 C720 1.405 1_655 S
C721 C722 1.367 . S
C722 H696 0.950 . S
C722 C717 1.386 1_655 S
C722 C721 1.367 . S
C723 C717 1.483 . S
C723 C724 1.382 . S
C723 C725 1.403 1_455 S
C724 H697 0.950 . S
C724 C710 1.411 . S
C724 C723 1.382 . S
C725 C709 1.411 . S
C725 C723 1.403 1_655 S
C725 C726 1.489 . S
C726 C725 1.489 . S
C726 C727 1.383 1_655 S
C726 C731 1.382 . S
C727 H698 0.950 . S
C727 C726 1.383 1_455 S
C727 C728 1.395 . S
C728 H699 0.950 . S
C728 C727 1.395 . S
C728 C729 1.288 1_455 S
C729 C728 1.288 1_655 S
C729 C730 1.392 . S
C730 H700 0.951 . S
C730 C729 1.392 . S
C730 C731 1.392 . S
C731 H701 0.949 . S
C731 C726 1.382 . S
C731 C730 1.392 . S
H732 C751 0.949 . S
H733 C752 0.950 . S
H734 C754 0.950 . S
H735 C755 0.950 . S
H736 C757 0.950 . S
H737 C760 0.950 . S
H738 C761 0.950 . S
H739 C763 0.951 . S
H740 C764 0.949 . S
H741 C766 0.949 . S
H742 C767 0.950 . S
H743 C769 0.950 . S
H744 C770 0.950 . S
H745 C772 0.950 . S
H746 C775 0.950 . S
H747 C776 0.950 . S
H748 C778 0.951 . S
H749 C779 0.949 . S
C750 C751 1.376 . S
C750 C755 1.386 . S
C750 C756 1.483 . S
C751 H732 0.949 . S
C751 C750 1.376 . S
C751 C752 1.397 . S
C752 H733 0.950 . S
C752 C751 1.397 . S
C752 C753 1.391 . S
C753 C752 1.391 . S
C753 C754 1.405 . S
C754 H734 0.950 . S
C754 C753 1.405 . S
C754 C755 1.367 . S
C755 H735 0.950 . S
C755 C750 1.386 . S
C755 C754 1.367 . S
C756 C750 1.483 . S
C756 C757 1.382 . S
C756 C758 1.403 . S
C757 H736 0.950 . S
C757 C756 1.382 . S
C757 C773 1.411 . S
C758 C756 1.403 . S
C758 C759 1.489 . S
C758 C772 1.411 . S
C759 C758 1.489 . S
C759 C760 1.383 . S
C759 C764 1.382 . S
C760 H737 0.950 . S
C760 C759 1.383 . S
C760 C761 1.395 . S
C761 H738 0.950 . S
C761 C760 1.395 . S
C761 C762 1.288 . S
C762 C761 1.288 . S
C762 C763 1.392 . S
C763 H739 0.951 . S
C763 C762 1.392 . S
C763 C764 1.392 . S
C764 H740 0.949 . S
C764 C759 1.382 . S
C764 C763 1.392 . S
C765 C766 1.376 . S
C765 C770 1.386 . S
C765 C771 1.483 . S
C766 H741 0.949 . S
C766 C765 1.376 . S
C766 C767 1.397 . S
C767 H742 0.950 . S
C767 C766 1.397 . S
C767 C768 1.391 . S
C768 C767 1.391 . S
C768 C769 1.405 . S
C769 H743 0.950 . S
C769 C768 1.405 . S
C769 C770 1.367 . S
C770 H744 0.950 . S
C770 C765 1.386 . S
C770 C769 1.367 . S
C771 C765 1.483 . S
C771 C772 1.382 . S
C771 C773 1.403 . S
C772 H745 0.950 . S
C772 C758 1.411 . S
C772 C771 1.382 . S
C773 C757 1.411 . S
C773 C771 1.403 . S
C773 C774 1.489 . S
C774 C773 1.489 . S
C774 C775 1.383 . S
C774 C779 1.382 . S
C775 H746 0.950 . S
C775 C774 1.383 . S
C775 C776 1.395 . S
C776 H747 0.950 . S
C776 C775 1.395 . S
C776 C777 1.288 . S
C777 C776 1.288 . S
C777 C778 1.392 . S
C778 H748 0.951 . S
C778 C777 1.392 . S
C778 C779 1.392 . S
C779 H749 0.949 . S
C779 C774 1.382 . S
C779 C778 1.392 . S
H780 C799 0.949 . S
H781 C800 0.950 . S
H782 C802 0.950 . S
H783 C803 0.950 . S
H784 C805 0.950 . S
H785 C808 0.950 . S
H786 C809 0.950 . S
H787 C811 0.951 . S
H788 C812 0.949 . S
H789 C814 0.949 . S
H790 C815 0.950 . S
H791 C817 0.950 . S
H792 C818 0.950 . S
H793 C820 0.950 . S
H794 C823 0.950 . S
H795 C824 0.950 . S
H796 C826 0.951 . S
H797 C827 0.949 . S
C798 C799 1.376 . S
C798 C803 1.386 1_545 S
C798 C804 1.483 . S
C799 H780 0.949 . S
C799 C798 1.376 . S
C799 C800 1.397 . S
C800 H781 0.950 . S
C800 C799 1.397 . S
C800 C801 1.391 . S
C801 C800 1.391 . S
C801 C802 1.405 1_545 S
C802 H782 0.950 . S
C802 C801 1.405 1_565 S
C802 C803 1.367 . S
C803 H783 0.950 . S
C803 C798 1.386 1_565 S
C803 C802 1.367 . S
C804 C798 1.483 . S
C804 C805 1.382 . S
C804 C806 1.403 1_545 S
C805 H784 0.950 . S
C805 C804 1.382 . S
C805 C821 1.411 . S
C806 C804 1.403 1_565 S
C806 C807 1.489 . S
C806 C820 1.411 . S
C807 C806 1.489 . S
C807 C808 1.383 1_565 S
C807 C812 1.382 . S
C808 H785 0.950 . S
C808 C807 1.383 1_545 S
C808 C809 1.395 . S
C809 H786 0.950 . S
C809 C808 1.395 . S
C809 C810 1.288 1_545 S
C810 C809 1.288 1_565 S
C810 C811 1.392 . S
C811 H787 0.951 . S
C811 C810 1.392 . S
C811 C812 1.392 . S
C812 H788 0.949 . S
C812 C807 1.382 . S
C812 C811 1.392 . S
C813 C814 1.376 . S
C813 C818 1.386 1_565 S
C813 C819 1.483 . S
C814 H789 0.949 . S
C814 C813 1.376 . S
C814 C815 1.397 . S
C815 H790 0.950 . S
C815 C814 1.397 . S
C815 C816 1.391 . S
C816 C815 1.391 . S
C816 C817 1.405 1_565 S
C817 H791 0.950 . S
C817 C816 1.405 1_545 S
C817 C818 1.367 . S
C818 H792 0.950 . S
C818 C813 1.386 1_545 S
C818 C817 1.367 . S
C819 C813 1.483 . S
C819 C820 1.382 . S
C819 C821 1.403 1_565 S
C820 H793 0.950 . S
C820 C806 1.411 . S
C820 C819 1.382 . S
C821 C805 1.411 . S
C821 C819 1.403 1_545 S
C821 C822 1.489 . S
C822 C821 1.489 . S
C822 C823 1.383 1_545 S
C822 C827 1.382 . S
C823 H794 0.950 . S
C823 C822 1.383 1_565 S
C823 C824 1.395 . S
C824 H795 0.950 . S
C824 C823 1.395 . S
C824 C825 1.288 1_565 S
C825 C824 1.288 1_545 S
C825 C826 1.392 . S
C826 H796 0.951 . S
C826 C825 1.392 . S
C826 C827 1.392 . S
C827 H797 0.949 . S
C827 C822 1.382 . S
C827 C826 1.392 . S
H828 C847 0.949 . S
H829 C848 0.950 . S
H830 C850 0.950 . S
H831 C851 0.950 . S
H832 C853 0.950 . S
H833 C856 0.950 . S
H834 C857 0.950 . S
H835 C859 0.951 . S
H836 C860 0.949 . S
H837 C862 0.949 . S
H838 C863 0.950 . S
H839 C865 0.950 . S
H840 C866 0.950 . S
H841 C868 0.950 . S
H842 C871 0.950 . S
H843 C872 0.950 . S
H844 C874 0.951 . S
H845 C875 0.949 . S
C846 C847 1.374 . S
C846 C851 1.387 1_545 S
C846 C852 1.506 . S
C847 H828 0.949 . S
C847 C846 1.374 . S
C847 C848 1.397 . S
C848 H829 0.950 . S
C848 C847 1.397 . S
C848 C849 1.391 1_545 S
C849 C848 1.391 1_565 S
C849 C850 1.405 . S
C850 H830 0.950 . S
C850 C849 1.405 . S
C850 C851 1.367 . S
C851 H831 0.950 . S
C851 C846 1.387 1_565 S
C851 C850 1.367 . S
C852 C846 1.506 . S
C852 C853 1.360 . S
C852 C854 1.401 1_545 S
C853 H832 0.950 . S
C853 C852 1.360 . S
C853 C869 1.411 . S
C854 C852 1.401 1_565 S
C854 C855 1.484 . S
C854 C868 1.437 . S
C855 C854 1.484 . S
C855 C856 1.342 1_565 S
C855 C860 1.404 . S
C856 H833 0.950 . S
C856 C855 1.342 1_545 S
C856 C857 1.395 . S
C857 H834 0.950 . S
C857 C856 1.395 . S
C857 C858 1.288 . S
C858 C857 1.288 . S
C858 C859 1.392 1_545 S
C859 H835 0.951 . S
C859 C858 1.392 1_565 S
C859 C860 1.392 . S
C860 H836 0.949 . S
C860 C855 1.404 . S
C860 C859 1.392 . S
C861 C862 1.374 1_545 S
C861 C866 1.387 . S
C861 C867 1.501 1_545 S
C862 H837 0.949 . S
C862 C861 1.374 1_565 S
C862 C863 1.397 . S
C863 H838 0.950 . S
C863 C862 1.397 . S
C863 C864 1.391 1_565 S
C864 C863 1.391 1_545 S
C864 C865 1.405 . S
C865 H839 0.950 . S
C865 C864 1.405 . S
C865 C866 1.367 . S
C866 H840 0.950 . S
C866 C861 1.387 . S
C866 C865 1.367 . S
C867 C861 1.501 1_565 S
C867 C868 1.365 . S
C867 C869 1.401 1_565 S
C868 H841 0.950 . S
C868 C854 1.437 . S
C868 C867 1.365 . S
C869 C853 1.411 . S
C869 C867 1.401 1_545 S
C869 C870 1.514 . S
C870 C869 1.514 . S
C870 C871 1.329 1_545 S
C870 C875 1.411 . S
C871 H842 0.950 . S
C871 C870 1.329 1_565 S
C871 C872 1.395 . S
C872 H843 0.950 . S
C872 C871 1.395 . S
C872 C873 1.288 . S
C873 C872 1.288 . S
C873 C874 1.392 1_565 S
C874 H844 0.951 . S
C874 C873 1.392 1_545 S
C874 C875 1.392 . S
C875 H845 0.949 . S
C875 C870 1.411 . S
C875 C874 1.392 . S
H876 C895 0.949 . S
H877 C896 0.950 . S
H878 C898 0.950 . S
H879 C899 0.950 . S
H880 C901 0.950 . S
H881 C904 0.950 . S
H882 C905 0.950 . S
H883 C907 0.951 . S
H884 C908 0.949 . S
H885 C910 0.949 . S
H886 C911 0.950 . S
H887 C913 0.950 . S
H888 C914 0.950 . S
H889 C916 0.950 . S
H890 C919 0.950 . S
H891 C920 0.950 . S
H892 C922 0.951 . S
H893 C923 0.949 . S
C894 C895 1.376 . S
C894 C899 1.386 1_455 S
C894 C900 1.483 . S
C895 H876 0.949 . S
C895 C894 1.376 . S
C895 C896 1.397 . S
C896 H877 0.950 . S
C896 C895 1.397 . S
C896 C897 1.391 . S
C897 C896 1.391 . S
C897 C898 1.405 1_455 S
C898 H878 0.950 . S
C898 C897 1.405 1_655 S
C898 C899 1.367 . S
C899 H879 0.950 . S
C899 C894 1.386 1_655 S
C899 C898 1.367 . S
C900 C894 1.483 . S
C900 C901 1.382 . S
C900 C902 1.403 1_455 S
C901 H880 0.950 . S
C901 C900 1.382 . S
C901 C917 1.411 . S
C902 C900 1.403 1_655 S
C902 C903 1.489 . S
C902 C916 1.411 . S
C903 C902 1.489 . S
C903 C904 1.383 1_655 S
C903 C908 1.382 . S
C904 H881 0.950 . S
C904 C903 1.383 1_455 S
C904 C905 1.395 . S
C905 H882 0.950 . S
C905 C904 1.395 . S
C905 C906 1.288 1_455 S
C906 C905 1.288 1_655 S
C906 C907 1.392 . S
C907 H883 0.951 . S
C907 C906 1.392 . S
C907 C908 1.392 . S
C908 H884 0.949 . S
C908 C903 1.382 . S
C908 C907 1.392 . S
C909 C910 1.376 . S
C909 C914 1.386 1_655 S
C909 C915 1.483 . S
C910 H885 0.949 . S
C910 C909 1.376 . S
C910 C911 1.397 . S
C911 H886 0.950 . S
C911 C910 1.397 . S
C911 C912 1.391 . S
C912 C911 1.391 . S
C912 C913 1.405 1_655 S
C913 H887 0.950 . S
C913 C912 1.405 1_455 S
C913 C914 1.367 . S
C914 H888 0.950 . S
C914 C909 1.386 1_455 S
C914 C913 1.367 . S
C915 C909 1.483 . S
C915 C916 1.382 . S
C915 C917 1.403 1_655 S
C916 H889 0.950 . S
C916 C902 1.411 . S
C916 C915 1.382 . S
C917 C901 1.411 . S
C917 C915 1.403 1_455 S
C917 C918 1.489 . S
C918 C917 1.489 . S
C918 C919 1.383 1_455 S
C918 C923 1.382 . S
C919 H890 0.950 . S
C919 C918 1.383 1_655 S
C919 C920 1.395 . S
C920 H891 0.950 . S
C920 C919 1.395 . S
C920 C921 1.288 1_655 S
C921 C920 1.288 1_455 S
C921 C922 1.392 . S
C922 H892 0.951 . S
C922 C921 1.392 . S
C922 C923 1.392 . S
C923 H893 0.949 . S
C923 C918 1.382 . S
C923 C922 1.392 . S
H924 C943 0.949 . S
H925 C944 0.950 . S
H926 C946 0.950 . S
H927 C947 0.950 . S
H928 C949 0.950 . S
H929 C952 0.950 . S
H930 C953 0.950 . S
H931 C955 0.951 . S
H932 C956 0.949 . S
H933 C958 0.949 . S
H934 C959 0.950 . S
H935 C961 0.950 . S
H936 C962 0.950 . S
H937 C964 0.950 . S
H938 C967 0.950 . S
H939 C968 0.950 . S
H940 C970 0.951 . S
H941 C971 0.949 . S
C942 C943 1.376 . S
C942 C947 1.386 . S
C942 C948 1.483 . S
C943 H924 0.949 . S
C943 C942 1.376 . S
C943 C944 1.397 . S
C944 H925 0.950 . S
C944 C943 1.397 . S
C944 C945 1.391 . S
C945 C944 1.391 . S
C945 C946 1.405 . S
C946 H926 0.950 . S
C946 C945 1.405 . S
C946 C947 1.367 . S
C947 H927 0.950 . S
C947 C942 1.386 . S
C947 C946 1.367 . S
C948 C942 1.483 . S
C948 C949 1.382 . S
C948 C950 1.403 . S
C949 H928 0.950 . S
C949 C948 1.382 . S
C949 C965 1.411 . S
C950 C948 1.403 . S
C950 C951 1.489 . S
C950 C964 1.411 . S
C951 C950 1.489 . S
C951 C952 1.383 . S
C951 C956 1.382 . S
C952 H929 0.950 . S
C952 C951 1.383 . S
C952 C953 1.395 . S
C953 H930 0.950 . S
C953 C952 1.395 . S
C953 C954 1.288 . S
C954 C953 1.288 . S
C954 C955 1.392 . S
C955 H931 0.951 . S
C955 C954 1.392 . S
C955 C956 1.392 . S
C956 H932 0.949 . S
C956 C951 1.382 . S
C956 C955 1.392 . S
C957 C958 1.376 . S
C957 C962 1.386 . S
C957 C963 1.483 . S
C958 H933 0.949 . S
C958 C957 1.376 . S
C958 C959 1.397 . S
C959 H934 0.950 . S
C959 C958 1.397 . S
C959 C960 1.391 . S
C960 C959 1.391 . S
C960 C961 1.405 . S
C961 H935 0.950 . S
C961 C960 1.405 . S
C961 C962 1.367 . S
C962 H936 0.950 . S
C962 C957 1.386 . S
C962 C961 1.367 . S
C963 C957 1.483 . S
C963 C964 1.382 . S
C963 C965 1.403 . S
C964 H937 0.950 . S
C964 C950 1.411 . S
C964 C963 1.382 . S
C965 C949 1.411 . S
C965 C963 1.403 . S
C965 C966 1.489 . S
C966 C965 1.489 . S
C966 C967 1.383 . S
C966 C971 1.382 . S
C967 H938 0.950 . S
C967 C966 1.383 . S
C967 C968 1.395 . S
C968 H939 0.950 . S
C968 C967 1.395 . S
C968 C969 1.288 . S
C969 C968 1.288 . S
C969 C970 1.392 . S
C970 H940 0.951 . S
C970 C969 1.392 . S
C970 C971 1.392 . S
C971 H941 0.949 . S
C971 C966 1.382 . S
C971 C970 1.392 . S
H972 C991 0.949 . S
H973 C992 0.950 . S
H974 C994 0.950 . S
H975 C995 0.950 . S
H976 C997 0.950 . S
H977 C1000 0.950 . S
H978 C1001 0.950 . S
H979 C1003 0.951 . S
H980 C1004 0.949 . S
H981 C1006 0.949 . S
H982 C1007 0.950 . S
H983 C1009 0.950 . S
H984 C1010 0.950 . S
H985 C1012 0.950 . S
H986 C1015 0.950 . S
H987 C1016 0.950 . S
H988 C1018 0.951 . S
H989 C1019 0.949 . S
C990 C991 1.376 . S
C990 C995 1.386 . S
C990 C996 1.483 . S
C991 H972 0.949 . S
C991 C990 1.376 . S
C991 C992 1.397 . S
C992 H973 0.950 . S
C992 C991 1.397 . S
C992 C993 1.391 . S
C993 C992 1.391 . S
C993 C994 1.405 . S
C994 H974 0.950 . S
C994 C993 1.405 . S
C994 C995 1.367 . S
C995 H975 0.950 . S
C995 C990 1.386 . S
C995 C994 1.367 . S
C996 C990 1.483 . S
C996 C997 1.382 . S
C996 C998 1.403 . S
C997 H976 0.950 . S
C997 C996 1.382 . S
C997 C1013 1.411 . S
C998 C996 1.403 . S
C998 C999 1.489 . S
C998 C1012 1.411 . S
C999 C998 1.489 . S
C999 C1000 1.383 . S
C999 C1004 1.382 . S
C1000 H977 0.950 . S
C1000 C999 1.383 . S
C1000 C1001 1.395 . S
C1001 H978 0.950 . S
C1001 C1000 1.395 . S
C1001 C1002 1.288 . S
C1002 C1001 1.288 . S
C1002 C1003 1.392 . S
C1003 H979 0.951 . S
C1003 C1002 1.392 . S
C1003 C1004 1.392 . S
C1004 H980 0.949 . S
C1004 C999 1.382 . S
C1004 C1003 1.392 . S
C1005 C1006 1.376 . S
C1005 C1010 1.386 . S
C1005 C1011 1.483 . S
C1006 H981 0.949 . S
C1006 C1005 1.376 . S
C1006 C1007 1.397 . S
C1007 H982 0.950 . S
C1007 C1006 1.397 . S
C1007 C1008 1.391 . S
C1008 C1007 1.391 . S
C1008 C1009 1.405 . S
C1009 H983 0.950 . S
C1009 C1008 1.405 . S
C1009 C1010 1.367 . S
C1010 H984 0.950 . S
C1010 C1005 1.386 . S
C1010 C1009 1.367 . S
C1011 C1005 1.483 . S
C1011 C1012 1.382 . S
C1011 C1013 1.403 . S
C1012 H985 0.950 . S
C1012 C998 1.411 . S
C1012 C1011 1.382 . S
C1013 C997 1.411 . S
C1013 C1011 1.403 . S
C1013 C1014 1.489 . S
C1014 C1013 1.489 . S
C1014 C1015 1.383 . S
C1014 C1019 1.382 . S
C1015 H986 0.950 . S
C1015 C1014 1.383 . S
C1015 C1016 1.395 . S
C1016 H987 0.950 . S
C1016 C1015 1.395 . S
C1016 C1017 1.288 . S
C1017 C1016 1.288 . S
C1017 C1018 1.392 . S
C1018 H988 0.951 . S
C1018 C1017 1.392 . S
C1018 C1019 1.392 . S
C1019 H989 0.949 . S
C1019 C1014 1.382 . S
C1019 C1018 1.392 . S
H1020 C1039 0.949 . S
H1021 C1040 0.950 . S
H1022 C1042 0.950 . S
H1023 C1043 0.950 . S
H1024 C1045 0.950 . S
H1025 C1048 0.950 . S
H1026 C1049 0.950 . S
H1027 C1051 0.951 . S
H1028 C1052 0.949 . S
H1029 C1054 0.949 . S
H1030 C1055 0.950 . S
H1031 C1057 0.950 . S
H1032 C1058 0.950 . S
H1033 C1060 0.950 . S
H1034 C1063 0.950 . S
H1035 C1064 0.950 . S
H1036 C1066 0.951 . S
H1037 C1067 0.949 . S
C1038 C1039 1.376 . S
C1038 C1043 1.386 . S
C1038 C1044 1.483 . S
C1039 H1020 0.949 . S
C1039 C1038 1.376 . S
C1039 C1040 1.397 . S
C1040 H1021 0.950 . S
C1040 C1039 1.397 . S
C1040 C1041 1.391 . S
C1041 C1040 1.391 . S
C1041 C1042 1.405 . S
C1042 H1022 0.950 . S
C1042 C1041 1.405 . S
C1042 C1043 1.367 . S
C1043 H1023 0.950 . S
C1043 C1038 1.386 . S
C1043 C1042 1.367 . S
C1044 C1038 1.483 . S
C1044 C1045 1.382 . S
C1044 C1046 1.403 . S
C1045 H1024 0.950 . S
C1045 C1044 1.382 . S
C1045 C1061 1.411 . S
C1046 C1044 1.403 . S
C1046 C1047 1.489 . S
C1046 C1060 1.411 . S
C1047 C1046 1.489 . S
C1047 C1048 1.383 . S
C1047 C1052 1.382 . S
C1048 H1025 0.950 . S
C1048 C1047 1.383 . S
C1048 C1049 1.395 . S
C1049 H1026 0.950 . S
C1049 C1048 1.395 . S
C1049 C1050 1.288 . S
C1050 C1049 1.288 . S
C1050 C1051 1.392 . S
C1051 H1027 0.951 . S
C1051 C1050 1.392 . S
C1051 C1052 1.392 . S
C1052 H1028 0.949 . S
C1052 C1047 1.382 . S
C1052 C1051 1.392 . S
C1053 C1054 1.376 . S
C1053 C1058 1.386 . S
C1053 C1059 1.483 . S
C1054 H1029 0.949 . S
C1054 C1053 1.376 . S
C1054 C1055 1.397 . S
C1055 H1030 0.950 . S
C1055 C1054 1.397 . S
C1055 C1056 1.391 . S
C1056 C1055 1.391 . S
C1056 C1057 1.405 . S
C1057 H1031 0.950 . S
C1057 C1056 1.405 . S
C1057 C1058 1.367 . S
C1058 H1032 0.950 . S
C1058 C1053 1.386 . S
C1058 C1057 1.367 . S
C1059 C1053 1.483 . S
C1059 C1060 1.382 . S
C1059 C1061 1.403 . S
C1060 H1033 0.950 . S
C1060 C1046 1.411 . S
C1060 C1059 1.382 . S
C1061 C1045 1.411 . S
C1061 C1059 1.403 . S
C1061 C1062 1.489 . S
C1062 C1061 1.489 . S
C1062 C1063 1.383 . S
C1062 C1067 1.382 . S
C1063 H1034 0.950 . S
C1063 C1062 1.383 . S
C1063 C1064 1.395 . S
C1064 H1035 0.950 . S
C1064 C1063 1.395 . S
C1064 C1065 1.288 . S
C1065 C1064 1.288 . S
C1065 C1066 1.392 . S
C1066 H1036 0.951 . S
C1066 C1065 1.392 . S
C1066 C1067 1.392 . S
C1067 H1037 0.949 . S
C1067 C1062 1.382 . S
C1067 C1066 1.392 . S
H1068 C1087 0.949 . S
H1069 C1088 0.950 . S
H1070 C1090 0.950 . S
H1071 C1091 0.950 . S
H1072 C1093 0.950 . S
H1073 C1096 0.950 . S
H1074 C1097 0.950 . S
H1075 C1099 0.951 . S
H1076 C1100 0.949 . S
H1077 C1102 0.949 . S
H1078 C1103 0.950 . S
H1079 C1105 0.950 . S
H1080 C1106 0.950 . S
H1081 C1108 0.950 . S
H1082 C1111 0.950 . S
H1083 C1112 0.950 . S
H1084 C1114 0.951 . S
H1085 C1115 0.949 . S
C1086 C1087 1.376 . S
C1086 C1091 1.386 . S
C1086 C1092 1.483 . S
C1087 H1068 0.949 . S
C1087 C1086 1.376 . S
C1087 C1088 1.397 . S
C1088 H1069 0.950 . S
C1088 C1087 1.397 . S
C1088 C1089 1.391 . S
C1089 C1088 1.391 . S
C1089 C1090 1.405 . S
C1090 H1070 0.950 . S
C1090 C1089 1.405 . S
C1090 C1091 1.367 . S
C1091 H1071 0.950 . S
C1091 C1086 1.386 . S
C1091 C1090 1.367 . S
C1092 C1086 1.483 . S
C1092 C1093 1.382 . S
C1092 C1094 1.403 . S
C1093 H1072 0.950 . S
C1093 C1092 1.382 . S
C1093 C1109 1.411 . S
C1094 C1092 1.403 . S
C1094 C1095 1.489 . S
C1094 C1108 1.411 . S
C1095 C1094 1.489 . S
C1095 C1096 1.383 . S
C1095 C1100 1.382 . S
C1096 H1073 0.950 . S
C1096 C1095 1.383 . S
C1096 C1097 1.395 . S
C1097 H1074 0.950 . S
C1097 C1096 1.395 . S
C1097 C1098 1.288 . S
C1098 C1097 1.288 . S
C1098 C1099 1.392 . S
C1099 H1075 0.951 . S
C1099 C1098 1.392 . S
C1099 C1100 1.392 . S
C1100 H1076 0.949 . S
C1100 C1095 1.382 . S
C1100 C1099 1.392 . S
C1101 C1102 1.376 . S
C1101 C1106 1.386 . S
C1101 C1107 1.483 . S
C1102 H1077 0.949 . S
C1102 C1101 1.376 . S
C1102 C1103 1.397 . S
C1103 H1078 0.950 . S
C1103 C1102 1.397 . S
C1103 C1104 1.391 . S
C1104 C1103 1.391 . S
C1104 C1105 1.405 . S
C1105 H1079 0.950 . S
C1105 C1104 1.405 . S
C1105 C1106 1.367 . S
C1106 H1080 0.950 . S
C1106 C1101 1.386 . S
C1106 C1105 1.367 . S
C1107 C1101 1.483 . S
C1107 C1108 1.382 . S
C1107 C1109 1.403 . S
C1108 H1081 0.950 . S
C1108 C1094 1.411 . S
C1108 C1107 1.382 . S
C1109 C1093 1.411 . S
C1109 C1107 1.403 . S
C1109 C1110 1.489 . S
C1110 C1109 1.489 . S
C1110 C1111 1.383 . S
C1110 C1115 1.382 . S
C1111 H1082 0.950 . S
C1111 C1110 1.383 . S
C1111 C1112 1.395 . S
C1112 H1083 0.950 . S
C1112 C1111 1.395 . S
C1112 C1113 1.288 . S
C1113 C1112 1.288 . S
C1113 C1114 1.392 . S
C1114 H1084 0.951 . S
C1114 C1113 1.392 . S
C1114 C1115 1.392 . S
C1115 H1085 0.949 . S
C1115 C1110 1.382 . S
C1115 C1114 1.392 . S
C1116 C1117 1.387 . S
C1116 H1120 0.950 . S
C1116 C1125 1.390 . S
C1117 C1116 1.387 . S
C1117 C1119 1.387 1_655 S
H1118 C1125 0.950 . S
C1119 C1117 1.387 1_455 S
C1119 C1121 1.390 . S
C1119 H1123 0.950 . S
H1120 C1116 0.950 . S
C1121 C1119 1.390 . S
C1121 C1122 1.387 1_455 S
C1121 H1124 0.950 . S
C1122 C1121 1.387 1_655 S
C1122 C1125 1.387 . S
H1123 C1119 0.950 . S
H1124 C1121 0.950 . S
C1125 C1116 1.390 . S
C1125 H1118 0.950 . S
C1125 C1122 1.387 . S
C1126 C1127 1.387 . S
C1126 H1130 0.950 . S
C1126 C1135 1.390 . S
C1127 C1126 1.387 . S
C1127 C1129 1.387 . S
H1128 C1135 0.950 . S
C1129 C1127 1.387 . S
C1129 C1131 1.390 . S
C1129 H1133 0.950 . S
H1130 C1126 0.950 . S
C1131 C1129 1.390 . S
C1131 C1132 1.387 . S
C1131 H1134 0.950 . S
C1132 C1131 1.387 . S
C1132 C1135 1.387 . S
H1133 C1129 0.950 . S
H1134 C1131 0.950 . S
C1135 C1126 1.390 . S
C1135 H1128 0.950 . S
C1135 C1132 1.387 . S
C1136 C1137 1.387 1_565 S
C1136 H1140 0.950 . S
C1136 C1145 1.390 . S
C1137 C1136 1.387 1_545 S
C1137 C1139 1.387 . S
H1138 C1145 0.950 . S
C1139 C1137 1.387 . S
C1139 C1141 1.390 . S
C1139 H1143 0.950 . S
H1140 C1136 0.950 . S
C1141 C1139 1.390 . S
C1141 C1142 1.387 . S
C1141 H1144 0.950 . S
C1142 C1141 1.387 . S
C1142 C1145 1.387 1_545 S
H1143 C1139 0.950 . S
H1144 C1141 0.950 . S
C1145 C1136 1.390 . S
C1145 H1138 0.950 . S
C1145 C1142 1.387 1_565 S
C1146 C1147 1.387 . S
C1146 H1150 0.950 . S
C1146 C1155 1.390 . S
C1147 C1146 1.387 . S
C1147 C1149 1.387 1_565 S
H1148 C1155 0.950 . S
C1149 C1147 1.387 1_545 S
C1149 C1151 1.390 . S
C1149 H1153 0.950 . S
H1150 C1146 0.950 . S
C1151 C1149 1.390 . S
C1151 C1152 1.387 1_545 S
C1151 H1154 0.950 . S
C1152 C1151 1.387 1_565 S
C1152 C1155 1.387 . S
H1153 C1149 0.950 . S
H1154 C1151 0.950 . S
C1155 C1146 1.390 . S
C1155 H1148 0.950 . S
C1155 C1152 1.387 . S
C1156 C1157 1.387 1_655 S
C1156 H1160 0.950 . S
C1156 C1165 1.390 . S
C1157 C1156 1.387 1_455 S
C1157 C1159 1.387 . S
H1158 C1165 0.950 . S
C1159 C1157 1.387 . S
C1159 C1161 1.390 . S
C1159 H1163 0.950 . S
H1160 C1156 0.950 . S
C1161 C1159 1.390 . S
C1161 C1162 1.387 . S
C1161 H1164 0.950 . S
C1162 C1161 1.387 . S
C1162 C1165 1.387 1_455 S
H1163 C1159 0.950 . S
H1164 C1161 0.950 . S
C1165 C1156 1.390 . S
C1165 H1158 0.950 . S
C1165 C1162 1.387 1_655 S
C1166 C1167 1.387 . S
C1166 H1170 0.950 . S
C1166 C1175 1.390 . S
C1167 C1166 1.387 . S
C1167 C1169 1.387 . S
H1168 C1175 0.950 . S
C1169 C1167 1.387 . S
C1169 C1171 1.390 . S
C1169 H1173 0.950 . S
H1170 C1166 0.950 . S
C1171 C1169 1.390 . S
C1171 C1172 1.387 . S
C1171 H1174 0.950 . S
C1172 C1171 1.387 . S
C1172 C1175 1.387 . S
H1173 C1169 0.950 . S
H1174 C1171 0.950 . S
C1175 C1166 1.390 . S
C1175 H1168 0.950 . S
C1175 C1172 1.387 . S
C1176 C1177 1.387 . S
C1176 H1180 0.950 . S
C1176 C1185 1.390 . S
C1177 C1176 1.387 . S
C1177 C1179 1.387 1_455 S
H1178 C1185 0.950 . S
C1179 C1177 1.387 1_655 S
C1179 C1181 1.390 . S
C1179 H1183 0.950 . S
H1180 C1176 0.950 . S
C1181 C1179 1.390 . S
C1181 C1182 1.387 1_655 S
C1181 H1184 0.950 . S
C1182 C1181 1.387 1_455 S
C1182 C1185 1.387 . S
H1183 C1179 0.950 . S
H1184 C1181 0.950 . S
C1185 C1176 1.390 . S
C1185 H1178 0.950 . S
C1185 C1182 1.387 . S
C1186 C1187 1.387 . S
C1186 H1190 0.950 . S
C1186 C1195 1.390 . S
C1187 C1186 1.387 . S
C1187 C1189 1.387 . S
H1188 C1195 0.950 . S
C1189 C1187 1.387 . S
C1189 C1191 1.390 . S
C1189 H1193 0.950 . S
H1190 C1186 0.950 . S
C1191 C1189 1.390 . S
C1191 C1192 1.387 . S
C1191 H1194 0.950 . S
C1192 C1191 1.387 . S
C1192 C1195 1.387 . S
H1193 C1189 0.950 . S
H1194 C1191 0.950 . S
C1195 C1186 1.390 . S
C1195 H1188 0.950 . S
C1195 C1192 1.387 . S
C1196 C1197 1.387 1_545 S
C1196 H1200 0.950 . S
C1196 C1205 1.390 . S
C1197 C1196 1.387 1_565 S
C1197 C1199 1.387 . S
H1198 C1205 0.950 . S
C1199 C1197 1.387 . S
C1199 C1201 1.390 . S
C1199 H1203 0.950 . S
H1200 C1196 0.950 . S
C1201 C1199 1.390 . S
C1201 C1202 1.387 . S
C1201 H1204 0.950 . S
C1202 C1201 1.387 . S
C1202 C1205 1.387 1_565 S
H1203 C1199 0.950 . S
H1204 C1201 0.950 . S
C1205 C1196 1.390 . S
C1205 H1198 0.950 . S
C1205 C1202 1.387 1_545 S
C1206 C1207 1.387 1_565 S
C1206 H1210 0.950 . S
C1206 C1215 1.390 . S
C1207 C1206 1.387 1_545 S
C1207 C1209 1.387 . S
H1208 C1215 0.950 . S
C1209 C1207 1.387 . S
C1209 C1211 1.390 . S
C1209 H1213 0.950 . S
H1210 C1206 0.950 . S
C1211 C1209 1.390 . S
C1211 C1212 1.387 . S
C1211 H1214 0.950 . S
C1212 C1211 1.387 . S
C1212 C1215 1.387 1_545 S
H1213 C1209 0.950 . S
H1214 C1211 0.950 . S
C1215 C1206 1.390 . S
C1215 H1208 0.950 . S
C1215 C1212 1.387 1_565 S
C1216 C1217 1.387 . S
C1216 H1220 0.950 . S
C1216 C1225 1.390 . S
C1217 C1216 1.387 . S
C1217 C1219 1.387 1_655 S
H1218 C1225 0.950 . S
C1219 C1217 1.387 1_455 S
C1219 C1221 1.390 . S
C1219 H1223 0.950 . S
H1220 C1216 0.950 . S
C1221 C1219 1.390 . S
C1221 C1222 1.387 1_455 S
C1221 H1224 0.950 . S
C1222 C1221 1.387 1_655 S
C1222 C1225 1.387 . S
H1223 C1219 0.950 . S
H1224 C1221 0.950 . S
C1225 C1216 1.390 . S
C1225 H1218 0.950 . S
C1225 C1222 1.387 . S
C1226 C1227 1.387 . S
C1226 H1230 0.950 . S
C1226 C1235 1.390 . S
C1227 C1226 1.387 . S
C1227 C1229 1.387 . S
H1228 C1235 0.950 . S
C1229 C1227 1.387 . S
C1229 C1231 1.390 . S
C1229 H1233 0.950 . S
H1230 C1226 0.950 . S
C1231 C1229 1.390 . S
C1231 C1232 1.387 . S
C1231 H1234 0.950 . S
C1232 C1231 1.387 . S
C1232 C1235 1.387 . S
H1233 C1229 0.950 . S
H1234 C1231 0.950 . S
C1235 C1226 1.390 . S
C1235 H1228 0.950 . S
C1235 C1232 1.387 . S
C1236 C1237 1.387 . S
C1236 H1240 0.950 . S
C1236 C1245 1.390 . S
C1237 C1236 1.387 . S
C1237 C1239 1.387 . S
H1238 C1245 0.950 . S
C1239 C1237 1.387 . S
C1239 C1241 1.390 . S
C1239 H1243 0.950 . S
H1240 C1236 0.950 . S
C1241 C1239 1.390 . S
C1241 C1242 1.387 . S
C1241 H1244 0.950 . S
C1242 C1241 1.387 . S
C1242 C1245 1.387 . S
H1243 C1239 0.950 . S
H1244 C1241 0.950 . S
C1245 C1236 1.390 . S
C1245 H1238 0.950 . S
C1245 C1242 1.387 . S
C1246 C1247 1.387 . S
C1246 H1250 0.950 . S
C1246 C1255 1.390 . S
C1247 C1246 1.387 . S
C1247 C1249 1.387 . S
H1248 C1255 0.950 . S
C1249 C1247 1.387 . S
C1249 C1251 1.390 . S
C1249 H1253 0.950 . S
H1250 C1246 0.950 . S
C1251 C1249 1.390 . S
C1251 C1252 1.387 . S
C1251 H1254 0.950 . S
C1252 C1251 1.387 . S
C1252 C1255 1.387 . S
H1253 C1249 0.950 . S
H1254 C1251 0.950 . S
C1255 C1246 1.390 . S
C1255 H1248 0.950 . S
C1255 C1252 1.387 . S
C1256 C1257 1.387 . S
C1256 H1260 0.950 . S
C1256 C1265 1.390 . S
C1257 C1256 1.387 . S
C1257 C1259 1.387 . S
H1258 C1265 0.950 . S
C1259 C1257 1.387 . S
C1259 C1261 1.390 . S
C1259 H1263 0.950 . S
H1260 C1256 0.950 . S
C1261 C1259 1.390 . S
C1261 C1262 1.387 . S
C1261 H1264 0.950 . S
C1262 C1261 1.387 . S
C1262 C1265 1.387 . S
H1263 C1259 0.950 . S
H1264 C1261 0.950 . S
C1265 C1256 1.390 . S
C1265 H1258 0.950 . S
C1265 C1262 1.387 . S
C1266 C1267 1.387 . S
C1266 H1270 0.950 . S
C1266 C1275 1.390 . S
C1267 C1266 1.387 . S
C1267 C1269 1.387 . S
H1268 C1275 0.950 . S
C1269 C1267 1.387 . S
C1269 C1271 1.390 . S
C1269 H1273 0.950 . S
H1270 C1266 0.950 . S
C1271 C1269 1.390 . S
C1271 C1272 1.387 . S
C1271 H1274 0.950 . S
C1272 C1271 1.387 . S
C1272 C1275 1.387 . S
H1273 C1269 0.950 . S
H1274 C1271 0.950 . S
C1275 C1266 1.390 . S
C1275 H1268 0.950 . S
C1275 C1272 1.387 . S
C1276 C1277 1.387 . S
C1276 H1280 0.950 . S
C1276 C1285 1.390 . S
C1277 C1276 1.387 . S
C1277 C1279 1.387 . S
H1278 C1285 0.950 . S
C1279 C1277 1.387 . S
C1279 C1281 1.390 . S
C1279 H1283 0.950 . S
H1280 C1276 0.950 . S
C1281 C1279 1.390 . S
C1281 C1282 1.387 . S
C1281 H1284 0.950 . S
C1282 C1281 1.387 . S
C1282 C1285 1.387 . S
H1283 C1279 0.950 . S
H1284 C1281 0.950 . S
C1285 C1276 1.390 . S
C1285 H1278 0.950 . S
C1285 C1282 1.387 . S
C1286 C1287 1.387 . S
C1286 H1290 0.950 . S
C1286 C1295 1.390 . S
C1287 C1286 1.387 . S
C1287 C1289 1.387 . S
H1288 C1295 0.950 . S
C1289 C1287 1.387 . S
C1289 C1291 1.390 . S
C1289 H1293 0.950 . S
H1290 C1286 0.950 . S
C1291 C1289 1.390 . S
C1291 C1292 1.387 . S
C1291 H1294 0.950 . S
C1292 C1291 1.387 . S
C1292 C1295 1.387 . S
H1293 C1289 0.950 . S
H1294 C1291 0.950 . S
C1295 C1286 1.390 . S
C1295 H1288 0.950 . S
C1295 C1292 1.387 . S
C1296 C1297 1.387 . S
C1296 H1300 0.950 . S
C1296 C1305 1.390 . S
C1297 C1296 1.387 . S
C1297 C1299 1.387 . S
H1298 C1305 0.950 . S
C1299 C1297 1.387 . S
C1299 C1301 1.390 . S
C1299 H1303 0.950 . S
H1300 C1296 0.950 . S
C1301 C1299 1.390 . S
C1301 C1302 1.387 . S
C1301 H1304 0.950 . S
C1302 C1301 1.387 . S
C1302 C1305 1.387 . S
H1303 C1299 0.950 . S
H1304 C1301 0.950 . S
C1305 C1296 1.390 . S
C1305 H1298 0.950 . S
C1305 C1302 1.387 . S
C1306 C1307 1.387 . S
C1306 H1310 0.950 . S
C1306 C1315 1.390 . S
C1307 C1306 1.387 . S
C1307 C1309 1.387 . S
H1308 C1315 0.950 . S
C1309 C1307 1.387 . S
C1309 C1311 1.390 . S
C1309 H1313 0.950 . S
H1310 C1306 0.950 . S
C1311 C1309 1.390 . S
C1311 C1312 1.387 . S
C1311 H1314 0.950 . S
C1312 C1311 1.387 . S
C1312 C1315 1.387 . S
H1313 C1309 0.950 . S
H1314 C1311 0.950 . S
C1315 C1306 1.390 . S
C1315 H1308 0.950 . S
C1315 C1312 1.387 . S
C1316 C1317 1.387 . S
C1316 H1320 0.950 . S
C1316 C1325 1.390 . S
C1317 C1316 1.387 . S
C1317 C1319 1.387 . S
H1318 C1325 0.950 . S
C1319 C1317 1.387 . S
C1319 C1321 1.390 . S
C1319 H1323 0.950 . S
H1320 C1316 0.950 . S
C1321 C1319 1.390 . S
C1321 C1322 1.387 . S
C1321 H1324 0.950 . S
C1322 C1321 1.387 . S
C1322 C1325 1.387 . S
H1323 C1319 0.950 . S
H1324 C1321 0.950 . S
C1325 C1316 1.390 . S
C1325 H1318 0.950 . S
C1325 C1322 1.387 . S
C1326 C1327 1.387 . S
C1326 H1330 0.950 . S
C1326 C1335 1.390 . S
C1327 C1326 1.387 . S
C1327 C1329 1.387 . S
H1328 C1335 0.950 . S
C1329 C1327 1.387 . S
C1329 C1331 1.390 . S
C1329 H1333 0.950 . S
H1330 C1326 0.950 . S
C1331 C1329 1.390 . S
C1331 C1332 1.387 . S
C1331 H1334 0.950 . S
C1332 C1331 1.387 . S
C1332 C1335 1.387 . S
H1333 C1329 0.950 . S
H1334 C1331 0.950 . S
C1335 C1326 1.390 . S
C1335 H1328 0.950 . S
C1335 C1332 1.387 . S
C1336 C1337 1.387 . S
C1336 H1340 0.950 . S
C1336 C1345 1.390 . S
C1337 C1336 1.387 . S
C1337 C1339 1.387 . S
H1338 C1345 0.950 . S
C1339 C1337 1.387 . S
C1339 C1341 1.390 . S
C1339 H1343 0.950 . S
H1340 C1336 0.950 . S
C1341 C1339 1.390 . S
C1341 C1342 1.387 . S
C1341 H1344 0.950 . S
C1342 C1341 1.387 . S
C1342 C1345 1.387 . S
H1343 C1339 0.950 . S
H1344 C1341 0.950 . S
C1345 C1336 1.390 . S
C1345 H1338 0.950 . S
C1345 C1342 1.387 . S
C1346 C1347 1.387 . S
C1346 H1350 0.950 . S
C1346 C1355 1.390 . S
C1347 C1346 1.387 . S
C1347 C1349 1.387 . S
H1348 C1355 0.950 . S
C1349 C1347 1.387 . S
C1349 C1351 1.390 . S
C1349 H1353 0.950 . S
H1350 C1346 0.950 . S
C1351 C1349 1.390 . S
C1351 C1352 1.387 . S
C1351 H1354 0.950 . S
C1352 C1351 1.387 . S
C1352 C1355 1.387 . S
H1353 C1349 0.950 . S
H1354 C1351 0.950 . S
C1355 C1346 1.390 . S
C1355 H1348 0.950 . S
C1355 C1352 1.387 . S
C1356 C1357 1.387 . S
C1356 H1360 0.950 . S
C1356 C1365 1.390 . S
C1357 C1356 1.387 . S
C1357 C1359 1.387 . S
H1358 C1365 0.950 . S
C1359 C1357 1.387 . S
C1359 C1361 1.390 . S
C1359 H1363 0.950 . S
H1360 C1356 0.950 . S
C1361 C1359 1.390 . S
C1361 C1362 1.387 . S
C1361 H1364 0.950 . S
C1362 C1361 1.387 . S
C1362 C1365 1.387 . S
H1363 C1359 0.950 . S
H1364 C1361 0.950 . S
C1365 C1356 1.390 . S
C1365 H1358 0.950 . S
C1365 C1362 1.387 . S
C1366 C1367 1.387 . S
C1366 H1370 0.950 . S
C1366 C1375 1.390 . S
C1367 C1366 1.387 . S
C1367 C1369 1.387 . S
H1368 C1375 0.950 . S
C1369 C1367 1.387 . S
C1369 C1371 1.390 . S
C1369 H1373 0.950 . S
H1370 C1366 0.950 . S
C1371 C1369 1.390 . S
C1371 C1372 1.387 . S
C1371 H1374 0.950 . S
C1372 C1371 1.387 . S
C1372 C1375 1.387 . S
H1373 C1369 0.950 . S
H1374 C1371 0.950 . S
C1375 C1366 1.390 . S
C1375 H1368 0.950 . S
C1375 C1372 1.387 . S
C1376 C1377 1.387 . S
C1376 H1380 0.950 . S
C1376 C1385 1.390 . S
C1377 C1376 1.387 . S
C1377 C1379 1.387 . S
H1378 C1385 0.950 . S
C1379 C1377 1.387 . S
C1379 C1381 1.390 . S
C1379 H1383 0.950 . S
H1380 C1376 0.950 . S
C1381 C1379 1.390 . S
C1381 C1382 1.387 . S
C1381 H1384 0.950 . S
C1382 C1381 1.387 . S
C1382 C1385 1.387 . S
H1383 C1379 0.950 . S
H1384 C1381 0.950 . S
C1385 C1376 1.390 . S
C1385 H1378 0.950 . S
C1385 C1382 1.387 . S
C1386 C1387 1.387 . S
C1386 H1390 0.950 . S
C1386 C1395 1.390 . S
C1387 C1386 1.387 . S
C1387 C1389 1.387 . S
H1388 C1395 0.950 . S
C1389 C1387 1.387 . S
C1389 C1391 1.390 . S
C1389 H1393 0.950 . S
H1390 C1386 0.950 . S
C1391 C1389 1.390 . S
C1391 C1392 1.387 . S
C1391 H1394 0.950 . S
C1392 C1391 1.387 . S
C1392 C1395 1.387 . S
H1393 C1389 0.950 . S
H1394 C1391 0.950 . S
C1395 C1386 1.390 . S
C1395 H1388 0.950 . S
C1395 C1392 1.387 . S
C1396 C1397 1.387 . S
C1396 H1400 0.950 . S
C1396 C1405 1.390 . S
C1397 C1396 1.387 . S
C1397 C1399 1.387 . S
H1398 C1405 0.950 . S
C1399 C1397 1.387 . S
C1399 C1401 1.390 . S
C1399 H1403 0.950 . S
H1400 C1396 0.950 . S
C1401 C1399 1.390 . S
C1401 C1402 1.387 . S
C1401 H1404 0.950 . S
C1402 C1401 1.387 . S
C1402 C1405 1.387 . S
H1403 C1399 0.950 . S
H1404 C1401 0.950 . S
C1405 C1396 1.390 . S
C1405 H1398 0.950 . S
C1405 C1402 1.387 . S
C1406 C1407 1.387 . S
C1406 H1410 0.950 . S
C1406 C1415 1.390 . S
C1407 C1406 1.387 . S
C1407 C1409 1.387 . S
H1408 C1415 0.950 . S
C1409 C1407 1.387 . S
C1409 C1411 1.390 . S
C1409 H1413 0.950 . S
H1410 C1406 0.950 . S
C1411 C1409 1.390 . S
C1411 C1412 1.387 . S
C1411 H1414 0.950 . S
C1412 C1411 1.387 . S
C1412 C1415 1.387 . S
H1413 C1409 0.950 . S
H1414 C1411 0.950 . S
C1415 C1406 1.390 . S
C1415 H1408 0.950 . S
C1415 C1412 1.387 . S
C1416 C1417 1.387 . S
C1416 H1420 0.950 . S
C1416 C1425 1.390 . S
C1417 C1416 1.387 . S
C1417 C1419 1.387 . S
H1418 C1425 0.950 . S
C1419 C1417 1.387 . S
C1419 C1421 1.390 . S
C1419 H1423 0.950 . S
H1420 C1416 0.950 . S
C1421 C1419 1.390 . S
C1421 C1422 1.387 . S
C1421 H1424 0.950 . S
C1422 C1421 1.387 . S
C1422 C1425 1.387 . S
H1423 C1419 0.950 . S
H1424 C1421 0.950 . S
C1425 C1416 1.390 . S
C1425 H1418 0.950 . S
C1425 C1422 1.387 . S
C1426 C1427 1.387 . S
C1426 H1430 0.950 . S
C1426 C1435 1.390 . S
C1427 C1426 1.387 . S
C1427 C1429 1.387 . S
H1428 C1435 0.950 . S
C1429 C1427 1.387 . S
C1429 C1431 1.390 . S
C1429 H1433 0.950 . S
H1430 C1426 0.950 . S
C1431 C1429 1.390 . S
C1431 C1432 1.387 . S
C1431 H1434 0.950 . S
C1432 C1431 1.387 . S
C1432 C1435 1.387 . S
H1433 C1429 0.950 . S
H1434 C1431 0.950 . S
C1435 C1426 1.390 . S
C1435 H1428 0.950 . S
C1435 C1432 1.387 . S
C1436 C1437 1.387 . S
C1436 H1440 0.950 . S
C1436 C1445 1.390 . S
C1437 C1436 1.387 . S
C1437 C1439 1.387 . S
H1438 C1445 0.950 . S
C1439 C1437 1.387 . S
C1439 C1441 1.390 . S
C1439 H1443 0.950 . S
H1440 C1436 0.950 . S
C1441 C1439 1.390 . S
C1441 C1442 1.387 . S
C1441 H1444 0.950 . S
C1442 C1441 1.387 . S
C1442 C1445 1.387 . S
H1443 C1439 0.950 . S
H1444 C1441 0.950 . S
C1445 C1436 1.390 . S
C1445 H1438 0.950 . S
C1445 C1442 1.387 . S
C1446 C1447 1.387 . S
C1446 H1450 0.950 . S
C1446 C1455 1.390 . S
C1447 C1446 1.387 . S
C1447 C1449 1.387 . S
H1448 C1455 0.950 . S
C1449 C1447 1.387 . S
C1449 C1451 1.390 . S
C1449 H1453 0.950 . S
H1450 C1446 0.950 . S
C1451 C1449 1.390 . S
C1451 C1452 1.387 . S
C1451 H1454 0.950 . S
C1452 C1451 1.387 . S
C1452 C1455 1.387 . S
H1453 C1449 0.950 . S
H1454 C1451 0.950 . S
C1455 C1446 1.390 . S
C1455 H1448 0.950 . S
C1455 C1452 1.387 . S
C1456 C1457 1.387 . S
C1456 H1460 0.950 . S
C1456 C1465 1.390 . S
C1457 C1456 1.387 . S
C1457 C1459 1.387 . S
H1458 C1465 0.950 . S
C1459 C1457 1.387 . S
C1459 C1461 1.390 . S
C1459 H1463 0.950 . S
H1460 C1456 0.950 . S
C1461 C1459 1.390 . S
C1461 C1462 1.387 . S
C1461 H1464 0.950 . S
C1462 C1461 1.387 . S
C1462 C1465 1.387 . S
H1463 C1459 0.950 . S
H1464 C1461 0.950 . S
C1465 C1456 1.390 . S
C1465 H1458 0.950 . S
C1465 C1462 1.387 . S
C1466 C1467 1.387 . S
C1466 H1470 0.950 . S
C1466 C1475 1.390 . S
C1467 C1466 1.387 . S
C1467 C1469 1.387 . S
H1468 C1475 0.950 . S
C1469 C1467 1.387 . S
C1469 C1471 1.390 . S
C1469 H1473 0.950 . S
H1470 C1466 0.950 . S
C1471 C1469 1.390 . S
C1471 C1472 1.387 . S
C1471 H1474 0.950 . S
C1472 C1471 1.387 . S
C1472 C1475 1.387 . S
H1473 C1469 0.950 . S
H1474 C1471 0.950 . S
C1475 C1466 1.390 . S
C1475 H1468 0.950 . S
C1475 C1472 1.387 . S
C1476 C1477 1.387 . S
C1476 H1480 0.950 . S
C1476 C1485 1.390 . S
C1477 C1476 1.387 . S
C1477 C1479 1.387 . S
H1478 C1485 0.950 . S
C1479 C1477 1.387 . S
C1479 C1481 1.390 . S
C1479 H1483 0.950 . S
H1480 C1476 0.950 . S
C1481 C1479 1.390 . S
C1481 C1482 1.387 . S
C1481 H1484 0.950 . S
C1482 C1481 1.387 . S
C1482 C1485 1.387 . S
H1483 C1479 0.950 . S
H1484 C1481 0.950 . S
C1485 C1476 1.390 . S
C1485 H1478 0.950 . S
C1485 C1482 1.387 . S
C1486 C1487 1.387 . S
C1486 H1490 0.950 . S
C1486 C1495 1.390 . S
C1487 C1486 1.387 . S
C1487 C1489 1.387 . S
H1488 C1495 0.950 . S
C1489 C1487 1.387 . S
C1489 C1491 1.390 . S
C1489 H1493 0.950 . S
H1490 C1486 0.950 . S
C1491 C1489 1.390 . S
C1491 C1492 1.387 . S
C1491 H1494 0.950 . S
C1492 C1491 1.387 . S
C1492 C1495 1.387 . S
H1493 C1489 0.950 . S
H1494 C1491 0.950 . S
C1495 C1486 1.390 . S
C1495 H1488 0.950 . S
C1495 C1492 1.387 . S
C1496 C1497 1.387 . S
C1496 H1500 0.950 . S
C1496 C1505 1.390 . S
C1497 C1496 1.387 . S
C1497 C1499 1.387 . S
H1498 C1505 0.950 . S
C1499 C1497 1.387 . S
C1499 C1501 1.390 . S
C1499 H1503 0.950 . S
H1500 C1496 0.950 . S
C1501 C1499 1.390 . S
C1501 C1502 1.387 . S
C1501 H1504 0.950 . S
C1502 C1501 1.387 . S
C1502 C1505 1.387 . S
H1503 C1499 0.950 . S
H1504 C1501 0.950 . S
C1505 C1496 1.390 . S
C1505 H1498 0.950 . S
C1505 C1502 1.387 . S
C1506 C1507 1.387 . S
C1506 H1510 0.950 . S
C1506 C1515 1.390 . S
C1507 C1506 1.387 . S
C1507 C1509 1.387 . S
H1508 C1515 0.950 . S
C1509 C1507 1.387 . S
C1509 C1511 1.390 . S
C1509 H1513 0.950 . S
H1510 C1506 0.950 . S
C1511 C1509 1.390 . S
C1511 C1512 1.387 . S
C1511 H1514 0.950 . S
C1512 C1511 1.387 . S
C1512 C1515 1.387 . S
H1513 C1509 0.950 . S
H1514 C1511 0.950 . S
C1515 C1506 1.390 . S
C1515 H1508 0.950 . S
C1515 C1512 1.387 . S
C1516 C1517 1.387 . S
C1516 H1520 0.950 . S
C1516 C1525 1.390 . S
C1517 C1516 1.387 . S
C1517 C1519 1.387 . S
H1518 C1525 0.950 . S
C1519 C1517 1.387 . S
C1519 C1521 1.390 . S
C1519 H1523 0.950 . S
H1520 C1516 0.950 . S
C1521 C1519 1.390 . S
C1521 C1522 1.387 . S
C1521 H1524 0.950 . S
C1522 C1521 1.387 . S
C1522 C1525 1.387 . S
H1523 C1519 0.950 . S
H1524 C1521 0.950 . S
C1525 C1516 1.390 . S
C1525 H1518 0.950 . S
C1525 C1522 1.387 . S
C1526 C1527 1.387 . S
C1526 H1530 0.950 1_556 S
C1526 C1535 1.390 . S
C1527 C1526 1.387 . S
C1527 C1529 1.387 . S
H1528 C1535 0.950 . S
C1529 C1527 1.387 . S
C1529 C1531 1.390 . S
C1529 H1533 0.950 . S
H1530 C1526 0.950 1_554 S
C1531 C1529 1.390 . S
C1531 C1532 1.387 . S
C1531 H1534 0.950 . S
C1532 C1531 1.387 . S
C1532 C1535 1.387 . S
H1533 C1529 0.950 . S
H1534 C1531 0.950 . S
C1535 C1526 1.390 . S
C1535 H1528 0.950 . S
C1535 C1532 1.387 . S
C1536 C1537 1.387 . S
C1536 H1540 0.950 . S
C1536 C1545 1.390 . S
C1537 C1536 1.387 . S
C1537 C1539 1.387 . S
H1538 C1545 0.950 . S
C1539 C1537 1.387 . S
C1539 C1541 1.390 . S
C1539 H1543 0.950 1_556 S
H1540 C1536 0.950 . S
C1541 C1539 1.390 . S
C1541 C1542 1.387 . S
C1541 H1544 0.950 . S
C1542 C1541 1.387 . S
C1542 C1545 1.387 . S
H1543 C1539 0.950 1_554 S
H1544 C1541 0.950 . S
C1545 C1536 1.390 . S
C1545 H1538 0.950 . S
C1545 C1542 1.387 . S
C1546 C1547 1.387 . S
C1546 H1550 0.950 . S
C1546 C1555 1.390 . S
C1547 C1546 1.387 . S
C1547 C1549 1.387 . S
H1548 C1555 0.950 . S
C1549 C1547 1.387 . S
C1549 C1551 1.390 . S
C1549 H1553 0.950 . S
H1550 C1546 0.950 . S
C1551 C1549 1.390 . S
C1551 C1552 1.387 . S
C1551 H1554 0.950 . S
C1552 C1551 1.387 . S
C1552 C1555 1.387 . S
H1553 C1549 0.950 . S
H1554 C1551 0.950 . S
C1555 C1546 1.390 . S
C1555 H1548 0.950 . S
C1555 C1552 1.387 . S
C1556 C1557 1.387 . S
C1556 H1560 0.950 1_556 S
C1556 C1565 1.390 . S
C1557 C1556 1.387 . S
C1557 C1559 1.387 . S
H1558 C1565 0.950 . S
C1559 C1557 1.387 . S
C1559 C1561 1.390 . S
C1559 H1563 0.950 . S
H1560 C1556 0.950 1_554 S
C1561 C1559 1.390 . S
C1561 C1562 1.387 . S
C1561 H1564 0.950 . S
C1562 C1561 1.387 . S
C1562 C1565 1.387 . S
H1563 C1559 0.950 . S
H1564 C1561 0.950 . S
C1565 C1556 1.390 . S
C1565 H1558 0.950 . S
C1565 C1562 1.387 . S
C1566 C1567 1.387 . S
C1566 H1570 0.950 . S
C1566 C1575 1.390 . S
C1567 C1566 1.387 . S
C1567 C1569 1.387 . S
H1568 C1575 0.950 . S
C1569 C1567 1.387 . S
C1569 C1571 1.390 . S
C1569 H1573 0.950 . S
H1570 C1566 0.950 . S
C1571 C1569 1.390 . S
C1571 C1572 1.387 . S
C1571 H1574 0.950 . S
C1572 C1571 1.387 . S
C1572 C1575 1.387 . S
H1573 C1569 0.950 . S
H1574 C1571 0.950 . S
C1575 C1566 1.390 . S
C1575 H1568 0.950 . S
C1575 C1572 1.387 . S
C1576 C1577 1.387 . S
C1576 H1580 0.950 . S
C1576 C1585 1.390 . S
C1577 C1576 1.387 . S
C1577 C1579 1.387 . S
H1578 C1585 0.950 . S
C1579 C1577 1.387 . S
C1579 C1581 1.390 . S
C1579 H1583 0.950 . S
H1580 C1576 0.950 . S
C1581 C1579 1.390 . S
C1581 C1582 1.387 . S
C1581 H1584 0.950 . S
C1582 C1581 1.387 . S
C1582 C1585 1.387 . S
H1583 C1579 0.950 . S
H1584 C1581 0.950 . S
C1585 C1576 1.390 . S
C1585 H1578 0.950 . S
C1585 C1582 1.387 . S
C1586 C1587 1.387 . S
C1586 H1590 0.950 . S
C1586 C1595 1.390 . S
C1587 C1586 1.387 . S
C1587 C1589 1.387 . S
H1588 C1595 0.950 . S
C1589 C1587 1.387 . S
C1589 C1591 1.390 . S
C1589 H1593 0.950 . S
H1590 C1586 0.950 . S
C1591 C1589 1.390 . S
C1591 C1592 1.387 . S
C1591 H1594 0.950 . S
C1592 C1591 1.387 . S
C1592 C1595 1.387 . S
H1593 C1589 0.950 . S
H1594 C1591 0.950 . S
C1595 C1586 1.390 . S
C1595 H1588 0.950 . S
C1595 C1592 1.387 . S
C1596 C1597 1.387 . S
C1596 H1600 0.950 . S
C1596 C1605 1.390 . S
C1597 C1596 1.387 . S
C1597 C1599 1.387 . S
H1598 C1605 0.950 . S
C1599 C1597 1.387 . S
C1599 C1601 1.390 . S
C1599 H1603 0.950 . S
H1600 C1596 0.950 . S
C1601 C1599 1.390 . S
C1601 C1602 1.387 . S
C1601 H1604 0.950 . S
C1602 C1601 1.387 . S
C1602 C1605 1.387 . S
H1603 C1599 0.950 . S
H1604 C1601 0.950 . S
C1605 C1596 1.390 . S
C1605 H1598 0.950 . S
C1605 C1602 1.387 . S
C1606 C1607 1.387 . S
C1606 H1610 0.950 . S
C1606 C1615 1.390 . S
C1607 C1606 1.387 . S
C1607 C1609 1.387 . S
H1608 C1615 0.950 . S
C1609 C1607 1.387 . S
C1609 C1611 1.390 . S
C1609 H1613 0.950 . S
H1610 C1606 0.950 . S
C1611 C1609 1.390 . S
C1611 C1612 1.387 . S
C1611 H1614 0.950 . S
C1612 C1611 1.387 . S
C1612 C1615 1.387 . S
H1613 C1609 0.950 . S
H1614 C1611 0.950 . S
C1615 C1606 1.390 . S
C1615 H1608 0.950 . S
C1615 C1612 1.387 . S
C1616 C1617 1.387 . S
C1616 H1620 0.950 . S
C1616 C1625 1.390 . S
C1617 C1616 1.387 . S
C1617 C1619 1.387 . S
H1618 C1625 0.950 . S
C1619 C1617 1.387 . S
C1619 C1621 1.390 . S
C1619 H1623 0.950 . S
H1620 C1616 0.950 . S
C1621 C1619 1.390 . S
C1621 C1622 1.387 . S
C1621 H1624 0.950 . S
C1622 C1621 1.387 . S
C1622 C1625 1.387 . S
H1623 C1619 0.950 . S
H1624 C1621 0.950 . S
C1625 C1616 1.390 . S
C1625 H1618 0.950 . S
C1625 C1622 1.387 . S
C1626 C1627 1.387 . S
C1626 H1630 0.950 . S
C1626 C1635 1.390 . S
C1627 C1626 1.387 . S
C1627 C1629 1.387 . S
H1628 C1635 0.943 1_655 S
C1629 C1627 1.387 . S
C1629 C1631 1.390 . S
C1629 H1633 0.950 . S
H1630 C1626 0.950 . S
C1631 C1629 1.390 . S
C1631 C1632 1.387 . S
C1631 H1634 0.950 . S
C1632 C1631 1.387 . S
C1632 C1635 1.387 . S
H1633 C1629 0.950 . S
H1634 C1631 0.950 . S
C1635 C1626 1.390 . S
C1635 H1628 0.943 1_455 S
C1635 C1632 1.387 . S
C1636 C1637 1.387 . S
C1636 H1640 0.950 . S
C1636 C1645 1.390 . S
C1637 C1636 1.387 . S
C1637 C1639 1.387 . S
H1638 C1645 0.950 . S
C1639 C1637 1.387 . S
C1639 C1641 1.390 . S
C1639 H1643 0.950 . S
H1640 C1636 0.950 . S
C1641 C1639 1.390 . S
C1641 C1642 1.387 . S
C1641 H1644 0.950 . S
C1642 C1641 1.387 . S
C1642 C1645 1.387 . S
H1643 C1639 0.950 . S
H1644 C1641 0.950 . S
C1645 C1636 1.390 . S
C1645 H1638 0.950 . S
C1645 C1642 1.387 . S
C1646 C1647 1.387 1_545 S
C1646 H1650 0.950 . S
C1646 C1655 1.390 . S
C1647 C1646 1.387 1_565 S
C1647 C1649 1.387 . S
H1648 C1655 0.950 . S
C1649 C1647 1.387 . S
C1649 C1651 1.390 . S
C1649 H1653 0.950 . S
H1650 C1646 0.950 . S
C1651 C1649 1.390 . S
C1651 C1652 1.387 . S
C1651 H1654 0.950 . S
C1652 C1651 1.387 . S
C1652 C1655 1.387 1_565 S
H1653 C1649 0.950 . S
H1654 C1651 0.950 . S
C1655 C1646 1.390 . S
C1655 H1648 0.950 . S
C1655 C1652 1.387 1_545 S
C1656 C1657 1.387 . S
C1656 H1660 0.950 . S
C1656 C1665 1.390 . S
C1657 C1656 1.387 . S
C1657 C1659 1.387 1_565 S
H1658 C1665 0.950 . S
C1659 C1657 1.387 1_545 S
C1659 C1661 1.390 . S
C1659 H1663 0.950 . S
H1660 C1656 0.950 . S
C1661 C1659 1.390 . S
C1661 C1662 1.387 1_545 S
C1661 H1664 0.950 . S
C1662 C1661 1.387 1_565 S
C1662 C1665 1.387 . S
H1663 C1659 0.950 . S
H1664 C1661 0.950 . S
C1665 C1656 1.390 . S
C1665 H1658 0.950 . S
C1665 C1662 1.387 . S
C1666 C1667 1.387 . S
C1666 H1670 0.950 . S
C1666 C1675 1.390 . S
C1667 C1666 1.387 . S
C1667 C1669 1.387 . S
H1668 C1675 0.950 . S
C1669 C1667 1.387 . S
C1669 C1671 1.390 . S
C1669 H1673 0.950 . S
H1670 C1666 0.950 . S
C1671 C1669 1.390 . S
C1671 C1672 1.387 . S
C1671 H1674 0.954 1_455 S
C1672 C1671 1.387 . S
C1672 C1675 1.387 . S
H1673 C1669 0.950 . S
H1674 C1671 0.954 1_655 S
C1675 C1666 1.390 . S
C1675 H1668 0.950 . S
C1675 C1672 1.387 . S
C1676 C1677 1.387 . S
C1676 H1680 0.950 . S
C1676 C1685 1.390 . S
C1677 C1676 1.387 . S
C1677 C1679 1.387 . S
H1678 C1685 0.950 . S
C1679 C1677 1.387 . S
C1679 C1681 1.390 . S
C1679 H1683 0.950 . S
H1680 C1676 0.950 . S
C1681 C1679 1.390 . S
C1681 C1682 1.387 . S
C1681 H1684 0.950 . S
C1682 C1681 1.387 . S
C1682 C1685 1.387 . S
H1683 C1679 0.950 . S
H1684 C1681 0.950 . S
C1685 C1676 1.390 . S
C1685 H1678 0.950 . S
C1685 C1682 1.387 . S
C1686 C1687 1.387 . S
C1686 H1690 0.950 . S
C1686 C1695 1.390 . S
C1687 C1686 1.387 . S
C1687 C1689 1.387 . S
H1688 C1695 0.950 . S
C1689 C1687 1.387 . S
C1689 C1691 1.390 . S
C1689 H1693 0.950 . S
H1690 C1686 0.950 . S
C1691 C1689 1.390 . S
C1691 C1692 1.387 . S
C1691 H1694 0.950 . S
C1692 C1691 1.387 . S
C1692 C1695 1.387 . S
H1693 C1689 0.950 . S
H1694 C1691 0.950 . S
C1695 C1686 1.390 . S
C1695 H1688 0.950 . S
C1695 C1692 1.387 . S
C1696 C1697 1.387 . S
C1696 H1700 0.950 . S
C1696 C1705 1.390 . S
C1697 C1696 1.387 . S
C1697 C1699 1.387 . S
H1698 C1705 0.950 . S
C1699 C1697 1.387 . S
C1699 C1701 1.390 . S
C1699 H1703 0.950 . S
H1700 C1696 0.950 . S
C1701 C1699 1.390 . S
C1701 C1702 1.387 . S
C1701 H1704 0.950 . S
C1702 C1701 1.387 . S
C1702 C1705 1.387 . S
H1703 C1699 0.950 . S
H1704 C1701 0.950 . S
C1705 C1696 1.390 . S
C1705 H1698 0.950 . S
C1705 C1702 1.387 . S
C1706 C1707 1.387 . S
C1706 H1710 0.950 . S
C1706 C1715 1.390 . S
C1707 C1706 1.387 . S
C1707 C1709 1.387 . S
H1708 C1715 0.950 . S
C1709 C1707 1.387 . S
C1709 C1711 1.390 . S
C1709 H1713 0.950 . S
H1710 C1706 0.950 . S
C1711 C1709 1.390 . S
C1711 C1712 1.387 . S
C1711 H1714 0.950 . S
C1712 C1711 1.387 . S
C1712 C1715 1.387 . S
H1713 C1709 0.950 . S
H1714 C1711 0.950 . S
C1715 C1706 1.390 . S
C1715 H1708 0.950 . S
C1715 C1712 1.387 . S
C1716 C1717 1.387 1_565 S
C1716 H1720 0.950 . S
C1716 C1725 1.390 . S
C1717 C1716 1.387 1_545 S
C1717 C1719 1.387 . S
H1718 C1725 0.950 . S
C1719 C1717 1.387 . S
C1719 C1721 1.390 . S
C1719 H1723 0.950 . S
H1720 C1716 0.950 . S
C1721 C1719 1.390 . S
C1721 C1722 1.387 . S
C1721 H1724 0.950 . S
C1722 C1721 1.387 . S
C1722 C1725 1.387 1_545 S
H1723 C1719 0.950 . S
H1724 C1721 0.950 . S
C1725 C1716 1.390 . S
C1725 H1718 0.950 . S
C1725 C1722 1.387 1_565 S
C1726 C1727 1.387 . S
C1726 H1730 0.950 . S
C1726 C1735 1.390 . S
C1727 C1726 1.387 . S
C1727 C1729 1.387 . S
H1728 C1735 0.950 . S
C1729 C1727 1.387 . S
C1729 C1731 1.390 . S
C1729 H1733 0.950 . S
H1730 C1726 0.950 . S
C1731 C1729 1.390 . S
C1731 C1732 1.387 . S
C1731 H1734 0.950 1_655 S
C1732 C1731 1.387 . S
C1732 C1735 1.387 . S
H1733 C1729 0.950 . S
H1734 C1731 0.950 1_455 S
C1735 C1726 1.390 . S
C1735 H1728 0.950 . S
C1735 C1732 1.387 . S
C1736 C1737 1.387 . S
C1736 H1740 0.950 . S
C1736 C1745 1.390 . S
C1737 C1736 1.387 . S
C1737 C1739 1.387 . S
H1738 C1745 0.950 . S
C1739 C1737 1.387 . S
C1739 C1741 1.390 . S
C1739 H1743 0.950 . S
H1740 C1736 0.950 . S
C1741 C1739 1.390 . S
C1741 C1742 1.387 . S
C1741 H1744 0.950 . S
C1742 C1741 1.387 . S
C1742 C1745 1.387 . S
H1743 C1739 0.950 . S
H1744 C1741 0.950 . S
C1745 C1736 1.390 . S
C1745 H1738 0.950 . S
C1745 C1742 1.387 . S
C1746 C1747 1.387 . S
C1746 H1750 0.950 . S
C1746 C1755 1.390 . S
C1747 C1746 1.387 . S
C1747 C1749 1.387 . S
H1748 C1755 0.950 . S
C1749 C1747 1.387 . S
C1749 C1751 1.390 . S
C1749 H1753 0.950 . S
H1750 C1746 0.950 . S
C1751 C1749 1.390 . S
C1751 C1752 1.387 . S
C1751 H1754 0.950 . S
C1752 C1751 1.387 . S
C1752 C1755 1.387 . S
H1753 C1749 0.950 . S
H1754 C1751 0.950 . S
C1755 C1746 1.390 . S
C1755 H1748 0.950 . S
C1755 C1752 1.387 . S
C1756 C1757 1.387 . S
C1756 H1760 0.950 . S
C1756 C1765 1.390 . S
C1757 C1756 1.387 . S
C1757 C1759 1.387 . S
H1758 C1765 0.950 . S
C1759 C1757 1.387 . S
C1759 C1761 1.390 . S
C1759 H1763 0.950 . S
H1760 C1756 0.950 . S
C1761 C1759 1.390 . S
C1761 C1762 1.387 . S
C1761 H1764 0.950 . S
C1762 C1761 1.387 . S
C1762 C1765 1.387 . S
H1763 C1759 0.950 . S
H1764 C1761 0.950 . S
C1765 C1756 1.390 . S
C1765 H1758 0.950 . S
C1765 C1762 1.387 . S
C1766 C1767 1.387 . S
C1766 H1770 0.950 . S
C1766 C1775 1.390 . S
C1767 C1766 1.387 . S
C1767 C1769 1.387 . S
H1768 C1775 0.950 . S
C1769 C1767 1.387 . S
C1769 C1771 1.390 . S
C1769 H1773 0.950 . S
H1770 C1766 0.950 . S
C1771 C1769 1.390 . S
C1771 C1772 1.387 . S
C1771 H1774 0.950 . S
C1772 C1771 1.387 . S
C1772 C1775 1.387 . S
H1773 C1769 0.950 . S
H1774 C1771 0.950 . S
C1775 C1766 1.390 . S
C1775 H1768 0.950 . S
C1775 C1772 1.387 . S
C1776 C1777 1.387 . S
C1776 H1780 0.950 . S
C1776 C1785 1.390 . S
C1777 C1776 1.387 . S
C1777 C1779 1.387 . S
H1778 C1785 0.950 . S
C1779 C1777 1.387 . S
C1779 C1781 1.390 . S
C1779 H1783 0.950 . S
H1780 C1776 0.950 . S
C1781 C1779 1.390 . S
C1781 C1782 1.387 . S
C1781 H1784 0.950 . S
C1782 C1781 1.387 . S
C1782 C1785 1.387 . S
H1783 C1779 0.950 . S
H1784 C1781 0.950 . S
C1785 C1776 1.390 . S
C1785 H1778 0.950 . S
C1785 C1782 1.387 . S
C1786 C1787 1.387 . S
C1786 H1790 0.950 . S
C1786 C1795 1.390 . S
C1787 C1786 1.387 . S
C1787 C1789 1.387 . S
H1788 C1795 0.950 . S
C1789 C1787 1.387 . S
C1789 C1791 1.390 . S
C1789 H1793 0.950 . S
H1790 C1786 0.950 . S
C1791 C1789 1.390 . S
C1791 C1792 1.387 . S
C1791 H1794 0.950 . S
C1792 C1791 1.387 . S
C1792 C1795 1.387 . S
H1793 C1789 0.950 . S
H1794 C1791 0.950 . S
C1795 C1786 1.390 . S
C1795 H1788 0.950 . S
C1795 C1792 1.387 . S
C1796 C1797 1.387 . S
C1796 H1800 0.950 . S
C1796 C1805 1.390 . S
C1797 C1796 1.387 . S
C1797 C1799 1.387 . S
H1798 C1805 0.950 . S
C1799 C1797 1.387 . S
C1799 C1801 1.390 . S
C1799 H1803 0.950 . S
H1800 C1796 0.950 . S
C1801 C1799 1.390 . S
C1801 C1802 1.387 . S
C1801 H1804 0.950 . S
C1802 C1801 1.387 . S
C1802 C1805 1.387 . S
H1803 C1799 0.950 . S
H1804 C1801 0.950 . S
C1805 C1796 1.390 . S
C1805 H1798 0.950 . S
C1805 C1802 1.387 . S
C1806 C1807 1.387 . S
C1806 H1810 0.950 . S
C1806 C1815 1.390 . S
C1807 C1806 1.387 . S
C1807 C1809 1.387 . S
H1808 C1815 0.950 . S
C1809 C1807 1.387 . S
C1809 C1811 1.390 . S
C1809 H1813 0.950 . S
H1810 C1806 0.950 . S
C1811 C1809 1.390 . S
C1811 C1812 1.387 . S
C1811 H1814 0.950 . S
C1812 C1811 1.387 . S
C1812 C1815 1.387 . S
H1813 C1809 0.950 . S
H1814 C1811 0.950 . S
C1815 C1806 1.390 . S
C1815 H1808 0.950 . S
C1815 C1812 1.387 . S
C1816 C1817 1.387 . S
C1816 H1820 0.950 . S
C1816 C1825 1.390 . S
C1817 C1816 1.387 . S
C1817 C1819 1.387 . S
H1818 C1825 0.950 . S
C1819 C1817 1.387 . S
C1819 C1821 1.390 . S
C1819 H1823 0.950 . S
H1820 C1816 0.950 . S
C1821 C1819 1.390 . S
C1821 C1822 1.387 . S
C1821 H1824 0.950 . S
C1822 C1821 1.387 . S
C1822 C1825 1.387 . S
H1823 C1819 0.950 . S
H1824 C1821 0.950 . S
C1825 C1816 1.390 . S
C1825 H1818 0.950 . S
C1825 C1822 1.387 . S
C1826 C1827 1.387 . S
C1826 H1830 0.950 . S
C1826 C1835 1.390 . S
C1827 C1826 1.387 . S
C1827 C1829 1.387 1_545 S
H1828 C1835 0.950 . S
C1829 C1827 1.387 1_565 S
C1829 C1831 1.390 . S
C1829 H1833 0.950 . S
H1830 C1826 0.950 . S
C1831 C1829 1.390 . S
C1831 C1832 1.387 1_565 S
C1831 H1834 0.950 . S
C1832 C1831 1.387 1_545 S
C1832 C1835 1.387 . S
H1833 C1829 0.950 . S
H1834 C1831 0.950 . S
C1835 C1826 1.390 . S
C1835 H1828 0.950 . S
C1835 C1832 1.387 . S
C1117 C4 1.494 . S
C1122 C729 1.526 . S
C1127 C26 1.564 . S
C1132 C777 1.566 . S
C1142 C825 1.486 . S
C1137 C32 1.454 . S
C1147 C40 1.456 . S
C1152 C849 1.489 . S
C1157 C12 1.501 . S
C1162 C921 1.516 . S
C1167 C18 1.504 . S
C1172 C969 1.548 . S
C1177 C46 1.492 . S
C1182 C897 1.529 . S
C1192 C945 1.563 . S
C1187 C68 1.565 . S
C1202 C873 1.498 . S
C1197 C74 1.453 . S
C1207 C82 1.452 . S
C1212 C801 1.482 . S
C1222 C705 1.531 . S
C1217 C54 1.511 . S
C1227 C60 1.506 . S
C1232 C753 1.549 . S
C1237 C88 1.609 . S
C1242 C1017 1.648 . S
C1247 C110 1.626 . S
C1252 C1065 1.618 . S
C1262 C1089 1.597 . S
C1257 C116 1.571 . S
C1267 C124 1.515 . S
C1272 C273 1.504 . S
C1277 C96 1.565 . S
C1282 C345 1.564 . S
C1287 C102 1.550 . S
C1292 C393 1.581 . S
C1297 C130 1.556 . S
C1302 C321 1.592 . S
C1307 C152 1.623 . S
C1312 C369 1.613 . S
C1322 C297 1.567 . S
C1317 C158 1.566 . S
C1332 C1113 1.528 . S
C1327 C166 1.561 . S
C1342 C993 1.556 . S
C1337 C138 1.559 . S
C1352 C1041 1.609 . S
C1347 C144 1.575 . S
C1357 C172 1.560 . S
C1362 C441 1.599 . S
C1367 C194 1.618 . S
C1372 C489 1.610 . S
C1377 C200 1.572 . S
C1382 C513 1.599 . S
C1387 C208 1.558 . S
C1392 C561 1.544 . S
C1402 C633 1.560 . S
C1397 C180 1.563 . S
C1412 C681 1.602 . S
C1407 C186 1.565 . S
C1422 C609 1.653 . S
C1417 C214 1.615 . S
C1432 C657 1.615 . S
C1427 C236 1.628 . S
C1437 C242 1.554 . S
C1442 C585 1.559 . S
C1452 C537 1.477 . S
C1447 C250 1.507 . S
C1457 C222 1.571 . S
C1462 C417 1.570 . S
C1472 C465 1.588 . S
C1467 C228 1.557 . S
C1482 C282 1.585 . S
C1477 C5 1.327 . S
C1487 C25 1.540 . S
C1492 C336 1.470 . S
C1502 C384 1.564 . S
C1497 C33 1.362 . S
C1512 C432 1.477 . S
C1507 C39 1.507 . S
C1522 C480 1.514 . S
C1517 C11 1.572 . S
C1532 C522 1.507 . S
C1527 C19 1.244 . S
C1537 C47 1.306 1_556 S
C1542 C528 1.584 . S
C1547 C67 1.539 . S
C1552 C426 1.454 . S
C1557 C75 1.365 1_556 S
C1562 C474 1.540 . S
C1567 C81 1.515 . S
C1572 C330 1.458 . S
C1582 C378 1.484 . S
C1577 C53 1.565 . S
C1587 C61 1.241 . S
C1592 C288 1.484 . S
C1602 C570 1.547 . S
C1597 C89 1.265 . S
C1607 C109 1.585 . S
C1612 C624 1.524 . S
C1617 C117 1.314 . S
C1622 C672 1.541 . S
C1632 C720 1.315 . S
C1627 C123 1.310 . S
C1637 C95 1.499 . S
C1642 C768 1.450 . S
C1647 C103 1.146 . S
C1652 C816 1.321 . S
C1657 C131 1.142 . S
C1662 C810 1.321 . S
C1667 C151 1.346 . S
C1672 C714 1.330 . S
C1682 C762 1.456 . S
C1677 C159 1.257 . S
C1687 C165 1.491 . S
C1692 C618 1.427 . S
C1697 C137 1.571 . S
C1702 C666 1.495 . S
C1712 C576 1.532 . S
C1707 C145 1.284 . S
C1722 C858 1.354 . S
C1717 C173 1.146 . S
C1727 C193 1.321 . S
C1732 C912 1.318 . S
C1737 C201 1.255 . S
C1742 C960 1.476 . S
C1752 C1008 1.436 . S
C1747 C207 1.485 . S
C1762 C1056 1.521 . S
C1757 C179 1.582 . S
C1767 C187 1.287 . S
C1772 C1098 1.550 . S
C1777 C215 1.275 . S
C1782 C1104 1.541 . S
C1787 C235 1.585 . S
C1792 C1002 1.504 . S
C1802 C1050 1.508 . S
C1797 C243 1.302 . S
C1812 C906 1.291 . S
C1807 C249 1.282 . S
C1822 C954 1.438 . S
C1817 C221 1.504 . S
C1827 C229 1.149 . S
C1832 C864 1.335 . S
