# Generated by pormake.
# Topology zzz, (3,6)-cn, num edge types: 1
# Building blocks:
#     Node 0, Type 0, BuildingBlock: QEWDON_clean_linker_0, # of connection points: 3
#     Node 1, Type 0, BuildingBlock: QEWDON_clean_linker_0, # of connection points: 3
#     Node 2, Type 0, BuildingBlock: QEWDON_clean_linker_0, # of connection points: 3
#     Node 3, Type 0, BuildingBlock: QEWDON_clean_linker_0, # of connection points: 3
#     Node 4, Type 0, BuildingBlock: QEWDON_clean_linker_0, # of connection points: 3
#     Node 5, Type 0, BuildingBlock: QEWDON_clean_linker_0, # of connection points: 3
#     Node 6, Type 0, BuildingBlock: QEWDON_clean_linker_0, # of connection points: 3
#     Node 7, Type 0, BuildingBlock: QEWDON_clean_linker_0, # of connection points: 3
#     Node 8, Type 1, BuildingBlock: BETDIP_clean_sbu_0, # of connection points: 6
#     Node 9, Type 1, BuildingBlock: BETDIP_clean_sbu_0, # of connection points: 6
#     Node 10, Type 1, BuildingBlock: BETDIP_clean_sbu_0, # of connection points: 6
#     Node 11, Type 1, BuildingBlock: BETDIP_clean_sbu_0, # of connection points: 6
#     Edge 12, Type (0, 1), BuildingBlock: KIFKEQ_clean_linker_1, # of connection points: 2
#     Edge 13, Type (0, 1), BuildingBlock: KIFKEQ_clean_linker_1, # of connection points: 2
#     Edge 14, Type (0, 1), BuildingBlock: KIFKEQ_clean_linker_1, # of connection points: 2
#     Edge 15, Type (0, 1), BuildingBlock: KIFKEQ_clean_linker_1, # of connection points: 2
#     Edge 16, Type (0, 1), BuildingBlock: KIFKEQ_clean_linker_1, # of connection points: 2
#     Edge 17, Type (0, 1), BuildingBlock: KIFKEQ_clean_linker_1, # of connection points: 2
#     Edge 18, Type (0, 1), BuildingBlock: KIFKEQ_clean_linker_1, # of connection points: 2
#     Edge 19, Type (0, 1), BuildingBlock: KIFKEQ_clean_linker_1, # of connection points: 2
#     Edge 20, Type (0, 1), BuildingBlock: KIFKEQ_clean_linker_1, # of connection points: 2
#     Edge 21, Type (0, 1), BuildingBlock: KIFKEQ_clean_linker_1, # of connection points: 2
#     Edge 22, Type (0, 1), BuildingBlock: KIFKEQ_clean_linker_1, # of connection points: 2
#     Edge 23, Type (0, 1), BuildingBlock: KIFKEQ_clean_linker_1, # of connection points: 2
#     Edge 24, Type (0, 1), BuildingBlock: KIFKEQ_clean_linker_1, # of connection points: 2
#     Edge 25, Type (0, 1), BuildingBlock: KIFKEQ_clean_linker_1, # of connection points: 2
#     Edge 26, Type (0, 1), BuildingBlock: KIFKEQ_clean_linker_1, # of connection points: 2
#     Edge 27, Type (0, 1), BuildingBlock: KIFKEQ_clean_linker_1, # of connection points: 2
#     Edge 28, Type (0, 1), BuildingBlock: KIFKEQ_clean_linker_1, # of connection points: 2
#     Edge 29, Type (0, 1), BuildingBlock: KIFKEQ_clean_linker_1, # of connection points: 2
#     Edge 30, Type (0, 1), BuildingBlock: KIFKEQ_clean_linker_1, # of connection points: 2
#     Edge 31, Type (0, 1), BuildingBlock: KIFKEQ_clean_linker_1, # of connection points: 2
#     Edge 32, Type (0, 1), BuildingBlock: KIFKEQ_clean_linker_1, # of connection points: 2
#     Edge 33, Type (0, 1), BuildingBlock: KIFKEQ_clean_linker_1, # of connection points: 2
#     Edge 34, Type (0, 1), BuildingBlock: KIFKEQ_clean_linker_1, # of connection points: 2
#     Edge 35, Type (0, 1), BuildingBlock: KIFKEQ_clean_linker_1, # of connection points: 2
# Relax obj value: 0.165
# Max RMSD: 0.150
# Mean RMSD: 0.109
data_MOF--net-zzz--node1-BETDIP_clean_sbu_0--node2-QEWDON_clean_linker_0--edge1-KIFKEQ_clean_linker_1
_symmetry_space_group_name_H-M    P1
_symmetry_Int_Tables_number       1
_symmetry_cell_setting            triclinic
loop_
_symmetry_equiv_pos_as_xyz
'x, y, z'
_cell_length_a     56.27252
_cell_length_b     56.305407
_cell_length_c     13.238323
_cell_angle_alpha  90.043265
_cell_angle_beta   89.816485
_cell_angle_gamma 90.167003
loop_
_atom_site_label
_atom_site_type_symbol
_atom_site_fract_x
_atom_site_fract_y
_atom_site_fract_z
_atom_type_partial_charge
H0 H 0.75462 0.48854 0.23234 0.0
C1 C 0.76874 0.49508 0.28017 0.0
C2 C 0.79077 0.48366 0.27521 0.0
C3 C 0.76506 0.51431 0.34713 0.0
H4 H 0.82644 0.48215 0.33246 0.0
C5 C 0.80931 0.49091 0.33816 0.0
C6 C 0.80679 0.51019 0.40334 0.0
C7 C 0.78478 0.52222 0.40652 0.0
C8 C 0.74059 0.52522 0.35781 0.0
H9 H 0.78322 0.53751 0.45553 0.0
C10 C 0.72306 0.52382 0.28011 0.0
C11 C 0.69961 0.5324 0.29569 0.0
C12 C 0.73402 0.536 0.4498 0.0
H13 H 0.74613 0.53686 0.51293 0.0
C14 C 0.71135 0.5453 0.4639 0.0
H15 H 0.72732 0.5158 0.20815 0.0
C16 C 0.69434 0.54354 0.38813 0.0
H17 H 0.67693 0.55102 0.40226 0.0
H18 H 0.70678 0.55365 0.53504 0.0
H19 H 0.05454 0.75854 0.25324 0.0
C20 C 0.04717 0.77227 0.30102 0.0
C21 C 0.05673 0.79522 0.29393 0.0
C22 C 0.0288 0.7672 0.3711 0.0
H23 H 0.05593 0.831 0.35068 0.0
C24 C 0.0484 0.81327 0.35706 0.0
C25 C 0.03011 0.80921 0.4259 0.0
C26 C 1.01996 0.78629 0.43185 0.0
C27 C 1.01984 0.742 0.38439 0.0
H28 H 1.00538 0.78356 0.484 0.0
C29 C 1.02135 0.72451 0.30639 0.0
C30 C 1.01425 0.70061 0.32378 0.0
C31 C 1.0107 0.73487 0.47888 0.0
H32 H 1.00997 0.74696 0.54227 0.0
C33 C 1.00287 0.7117 0.49498 0.0
H34 H 0.02828 0.72923 0.23283 0.0
C35 C 1.00455 0.69479 0.41865 0.0
H36 H 0.99815 0.67701 0.43434 0.0
H37 H 0.99571 0.70671 0.56796 0.0
H38 H 0.78735 0.04339 0.20353 0.0
C39 C 0.77503 0.04122 0.26585 0.0
C40 C 0.75533 0.0563 0.27105 0.0
C41 C 0.77801 1.02269 0.33648 0.0
H42 H 0.72225 0.06373 0.34584 0.0
C43 C 0.73814 0.05283 0.34619 0.0
C44 C 0.73958 0.03387 0.41387 0.0
C45 C 0.75974 1.01899 0.40994 0.0
C46 C 0.79915 1.00638 0.32744 0.0
H47 H 0.76096 1.00464 0.46395 0.0
C48 C 0.8211 1.01413 0.28463 0.0
C49 C 0.84037 0.99828 0.2709 0.0
C50 C 0.79722 0.98246 0.35735 0.0
H51 H 0.78077 0.97534 0.38718 0.0
C52 C 0.8163 0.96692 0.34608 0.0
H53 H 0.8234 0.0325 0.26266 0.0
C54 C 0.83759 0.97465 0.30307 0.0
H55 H 0.8517 0.96184 0.29249 0.0
H56 H 0.81439 0.94856 0.36897 0.0
H57 H 0.48688 0.79576 0.25849 0.0
C58 C 0.49332 0.78127 0.30435 0.0
C59 C 0.4823 0.75908 0.29381 0.0
C60 C 0.51224 0.78461 0.37294 0.0
H61 H 0.48152 0.72269 0.34401 0.0
C62 C 0.48961 0.74005 0.35418 0.0
C63 C 0.50846 0.74229 0.4216 0.0
C64 C 0.52011 0.7645 0.42975 0.0
C65 C 0.52297 0.80908 0.38691 0.0
H66 H 0.53513 0.76591 0.48019 0.0
C67 C 0.52205 0.82695 0.31039 0.0
C68 C 0.53036 0.8504 0.32862 0.0
C69 C 0.53307 0.81528 0.4805 0.0
H70 H 0.53359 0.80282 0.54255 0.0
C71 C 0.54209 0.83801 0.49742 0.0
H72 H 0.51462 0.82291 0.23718 0.0
C73 C 0.54075 0.85537 0.42278 0.0
H74 H 0.54799 0.87279 0.43909 0.0
H75 H 0.5499 0.84232 0.56981 0.0
H76 H 0.28816 0.54511 0.25736 0.0
C77 C 0.27446 0.53878 0.20666 0.0
C78 C 0.25075 0.54075 0.23684 0.0
C79 C 0.28039 0.52946 0.11102 0.0
H80 H 0.21418 0.53606 0.19483 0.0
C81 C 0.23255 0.53384 0.17136 0.0
C82 C 0.23749 0.52543 0.07428 0.0
C83 C 0.26154 0.52313 0.04393 0.0
C84 C 0.3062 0.52809 0.08098 0.0
H85 H 0.26542 0.51629 0.96927 0.0
C86 C 0.3244 0.5239 0.1534 0.0
C87 C 0.34884 0.52513 0.12686 0.0
C88 C 0.31299 0.53268 0.98067 0.0
H89 H 0.29987 0.53646 0.92334 0.0
C90 C 0.33694 0.53353 0.95343 0.0
H91 H 0.31953 0.51957 0.23035 0.0
C92 C 0.35464 0.53008 0.02546 0.0
H93 H 0.37295 0.53189 1.00139 0.0
H94 H 0.34185 0.53748 0.87609 0.0
H95 H 0.99996 0.28762 0.26848 0.0
C96 C 1.0075 0.2742 0.21936 0.0
C97 C 1.00467 0.25029 0.24524 0.0
C98 C 1.01908 0.28066 0.12876 0.0
H99 H 1.01031 0.21401 0.20072 0.0
C100 C 1.0132 0.23252 0.18097 0.0
C101 C 0.02402 0.23806 0.08899 0.0
C102 C 0.02708 0.26224 0.06274 0.0
C103 C 1.02084 0.30652 0.10094 0.0
H104 H 0.03562 0.26655 0.99167 0.0
C105 C 0.02387 0.32458 0.17527 0.0
C106 C 1.02334 0.34905 0.14919 0.0
C107 C 1.01783 0.31344 0.99987 0.0
H108 H 1.01492 0.30039 0.94108 0.0
C109 C 1.01746 0.33739 0.97342 0.0
H110 H 0.02682 0.31957 0.25311 0.0
C111 C 1.01993 0.35498 0.04689 0.0
H112 H 1.01861 0.3733 0.02306 0.0
H113 H 1.01472 0.34239 0.89538 0.0
H114 H 0.25704 0.99981 0.25232 0.0
C115 C 0.27064 1.00623 0.20104 0.0
C116 C 0.29441 1.00227 0.22566 0.0
C117 C 0.26454 1.01789 0.11043 0.0
H118 H 0.33085 1.00564 0.17852 0.0
C119 C 0.31246 1.00921 0.1592 0.0
C120 C 0.30726 1.02009 0.06731 0.0
C121 C 0.28325 0.02471 0.04309 0.0
C122 C 0.23869 1.02168 0.08559 0.0
H123 H 0.27935 0.03366 0.97279 0.0
C124 C 0.22115 0.02447 0.16252 0.0
C125 C 0.19663 0.02599 0.13902 0.0
C126 C 0.23109 1.02118 0.9845 0.0
H127 H 0.24358 1.0185 0.92326 0.0
C128 C 0.20706 1.02321 0.96062 0.0
H129 H 0.22649 0.02562 0.2408 0.0
C130 C 0.19 0.0254 0.03668 0.0
H131 H 0.17148 0.02599 0.01494 0.0
H132 H 0.20155 1.02252 0.8824 0.0
H133 H 0.55533 0.25609 0.21308 0.0
C134 C 0.54952 0.26982 0.16188 0.0
C135 C 0.55996 0.29229 0.17081 0.0
C136 C 0.53224 0.26524 0.08696 0.0
H137 H 0.56194 0.32783 0.1125 0.0
C138 C 0.55385 0.31041 0.10385 0.0
C139 C 0.53655 0.30702 0.03009 0.0
C140 C 0.52533 0.28455 0.02299 0.0
C141 C 0.52242 0.24031 0.07339 0.0
H142 H 0.51145 0.28233 0.96745 0.0
C143 C 0.52289 0.22286 0.15188 0.0
C144 C 0.51549 0.19906 0.13426 0.0
C145 C 0.51369 0.23324 0.97832 0.0
H146 H 0.51363 0.24523 0.91462 0.0
C147 C 0.50546 0.21021 0.96196 0.0
H148 H 0.5293 0.22745 0.22621 0.0
C149 C 0.50634 0.19332 0.03859 0.0
H150 H 0.49974 0.17564 0.02251 0.0
H151 H 0.49867 0.20527 0.88842 0.0
Tb152 Tb 0.03964 1.01627 0.83468 0.0
Tb153 Tb 1.01092 0.03109 0.67018 0.0
C154 C 0.06148 1.0055 0.99311 0.0
C155 C 0.07547 0.98415 0.01683 0.0
C156 C 0.07166 0.9723 0.10843 0.0
C157 C 0.08156 0.94989 0.1246 0.0
C158 C 0.09548 0.93891 0.04928 0.0
C159 C 0.10038 0.95147 0.95993 0.0
C160 C 0.09044 0.97384 0.94375 0.0
C161 C 0.06305 1.01599 0.65994 0.0
C162 C 1.02001 0.97585 0.70034 0.0
C163 C 0.98833 0.04191 0.51409 0.0
C164 C 0.97382 0.06322 0.49642 0.0
C165 C 0.97728 0.07655 0.4083 0.0
C166 C 0.96811 0.09952 0.4013 0.0
C167 C 0.9555 0.10955 0.48279 0.0
C168 C 0.95053 0.09552 0.56773 0.0
C169 C 0.95951 0.07251 0.57431 0.0
C170 C 0.9875 0.0309 0.84541 0.0
C171 C 0.0304 0.07165 0.80398 0.0
O172 O 0.03871 1.00184 0.98096 0.0
O173 O 0.07025 1.01952 0.92366 0.0
O174 O 0.0487 0.0318 0.68952 0.0
O175 O 0.06474 1.0001 0.72959 0.0
O176 O 0.02695 0.98108 0.79276 0.0
O177 O 1.01591 0.99307 0.63465 0.0
O178 O 1.01108 0.04601 0.5248 0.0
O179 O 0.98026 0.02707 0.58197 0.0
O180 O 1.00187 1.01527 0.81459 0.0
O181 O 0.98603 0.04706 0.77689 0.0
O182 O 1.0233 0.06641 0.71182 0.0
O183 O 0.03484 0.05441 0.86928 0.0
H184 H 0.06006 0.97984 0.16544 0.0
H185 H 0.07711 0.94063 0.1938 0.0
H186 H 0.11125 0.94366 0.90104 0.0
H187 H 0.09374 0.98259 0.87227 0.0
H188 H 0.98837 0.0698 0.34772 0.0
H189 H 0.97245 0.11002 0.33521 0.0
H190 H 0.9407 0.10275 0.63112 0.0
H191 H 0.95633 0.06257 0.64295 0.0
Tb192 Tb 0.52789 0.04048 0.81799 0.0
Tb193 Tb 0.51811 1.01056 0.65316 0.0
C194 C 0.54647 0.06083 0.9675 0.0
C195 C 0.57081 0.06983 0.98344 0.0
C196 C 0.59049 0.0551 0.96587 0.0
C197 C 0.61344 0.06437 0.96855 0.0
C198 C 0.61727 0.08849 0.98984 0.0
C199 C 0.59772 0.1031 0.01151 0.0
C200 C 0.57461 0.09386 0.00756 0.0
C201 C 0.5154 0.06465 0.65413 0.0
C202 C 0.57057 0.02435 0.67162 0.0
C203 C 0.49937 0.9892 0.50732 0.0
C204 C 0.47694 0.97591 0.50632 0.0
C205 C 0.46411 0.97353 0.41669 0.0
C206 C 0.44099 0.96446 0.41905 0.0
C207 C 0.43034 0.95773 0.51134 0.0
C208 C 0.44384 0.95892 0.6002 0.0
C209 C 0.46694 0.96797 0.59772 0.0
C210 C 0.53025 0.98634 0.81732 0.0
C211 C 0.47509 0.02699 0.79778 0.0
O212 O 0.54394 0.03779 0.96035 0.0
O213 O 0.53436 0.07199 0.89852 0.0
O214 O 0.52924 0.04698 0.65668 0.0
O215 O 0.50801 0.06888 0.74489 0.0
O216 O 0.56403 0.03107 0.76353 0.0
O217 O 0.55421 1.0186 0.60491 0.0
O218 O 0.49712 1.01203 0.52249 0.0
O219 O 0.51613 0.98003 0.56276 0.0
O220 O 0.51653 1.00408 0.81433 0.0
O221 O 0.5375 0.98196 0.72674 0.0
O222 O 0.48175 1.01917 0.70769 0.0
O223 O 0.4913 0.03392 0.86323 0.0
H224 H 0.58822 0.03648 0.94773 0.0
H225 H 0.62829 0.05259 0.95452 0.0
H226 H 0.60033 0.12168 0.02989 0.0
H227 H 0.55968 0.10554 0.02148 0.0
H228 H 0.4715 0.97975 0.34578 0.0
H229 H 0.43096 0.96421 0.34937 0.0
H230 H 0.43622 0.95378 0.6722 0.0
H231 H 0.47661 0.96978 0.66801 0.0
Tb232 Tb 0.51023 0.52824 0.79667 0.0
Tb233 Tb 0.53823 0.51862 0.62276 0.0
C234 C 0.49333 0.54667 0.95422 0.0
C235 C 0.48851 0.57169 0.97921 0.0
C236 C 0.50539 0.58929 0.95685 0.0
C237 C 0.4996 0.61321 0.96575 0.0
C238 C 0.4769 0.62023 0.99901 0.0
C239 C 0.4603 0.60249 0.02536 0.0
C240 C 0.46603 0.57843 0.01497 0.0
C241 C 0.48403 0.51612 0.63834 0.0
C242 C 0.52509 0.57118 0.64903 0.0
C243 C 0.55677 0.50034 0.46882 0.0
C244 C 0.57018 0.47816 0.45935 0.0
C245 C 0.57099 0.46621 0.36688 0.0
C246 C 0.58127 0.44371 0.36075 0.0
C247 C 0.59094 0.4328 0.4472 0.0
C248 C 0.59083 0.44531 0.53906 0.0
C249 C 0.58048 0.46777 0.54512 0.0
C250 C 0.56433 0.53018 0.78268 0.0
C251 C 0.52261 0.4752 0.76849 0.0
O252 O 0.51568 0.54074 0.94413 0.0
O253 O 0.48025 0.53793 0.88191 0.0
O254 O 0.50204 0.52966 0.63709 0.0
O255 O 0.48035 0.50919 0.73027 0.0
O256 O 0.51967 0.56435 0.74213 0.0
O257 O 0.52988 0.55502 0.5798 0.0
O258 O 0.53434 0.49769 0.49255 0.0
O259 O 0.567 0.51696 0.52217 0.0
O260 O 0.54633 0.51672 0.78191 0.0
O261 O 0.56824 0.53724 0.69139 0.0
O262 O 0.53079 0.48218 0.67921 0.0
O263 O 0.51528 0.49104 0.83498 0.0
H264 H 0.52285 0.58469 0.9284 0.0
H265 H 0.51281 0.62614 0.94275 0.0
H266 H 0.44286 0.60712 0.0538 0.0
H267 H 0.45273 0.5651 0.03263 0.0
H268 H 0.56292 0.47388 0.3003 0.0
H269 H 0.58056 0.43442 0.28917 0.0
H270 H 0.59822 0.43753 0.60677 0.0
H271 H 0.57987 0.47673 0.61757 0.0
Tb272 Tb 1.0165 0.51045 0.82107 0.0
Tb273 Tb 0.02762 0.53882 0.6528 0.0
C274 C 0.99715 0.49172 0.97295 0.0
C275 C 0.97353 0.48073 0.98682 0.0
C276 C 0.95282 0.49329 0.96241 0.0
C277 C 0.93073 0.48206 0.96511 0.0
C278 C 0.9288 0.45817 0.99417 0.0
C279 C 0.94938 0.44574 0.02186 0.0
C280 C 0.97163 0.4569 0.01737 0.0
C281 C 0.02925 0.48449 0.66215 0.0
C282 C 0.97482 0.52545 0.66812 0.0
C283 C 0.04749 0.55918 0.50682 0.0
C284 C 0.07002 0.57229 0.50817 0.0
C285 C 0.08371 0.5743 0.42034 0.0
C286 C 0.10696 0.58294 0.4258 0.0
C287 C 0.11686 0.58957 0.51945 0.0
C288 C 0.10252 0.58885 0.60631 0.0
C289 C 0.07928 0.58027 0.60071 0.0
C290 C 1.01531 0.56439 0.81365 0.0
C291 C 0.06967 0.52289 0.8015 0.0
O292 O 0.99768 0.51465 0.95694 0.0
O293 O 1.01141 0.48034 0.91217 0.0
O294 O 1.01598 0.50259 0.66044 0.0
O295 O 0.03554 0.48067 0.75443 0.0
O296 O 0.98071 0.51935 0.76146 0.0
O297 O 0.99171 0.53067 0.60244 0.0
O298 O 0.04944 0.53642 0.52427 0.0
O299 O 0.03031 0.56873 0.55915 0.0
O300 O 0.02873 0.54644 0.81309 0.0
O301 O 1.00837 0.56823 0.72245 0.0
O302 O 0.06357 0.52957 0.70931 0.0
O303 O 0.05296 0.51743 0.86762 0.0
H304 H 0.95364 0.51177 0.9402 0.0
H305 H 0.91504 0.49225 0.94634 0.0
H306 H 0.94825 0.42739 0.04604 0.0
H307 H 0.98738 0.44687 0.03665 0.0
H308 H 0.07688 0.56803 0.34863 0.0
H309 H 0.11766 0.58286 0.35766 0.0
H310 H 0.1096 0.59389 0.67926 0.0
H311 H 0.06895 0.57875 0.66964 0.0
H312 H 0.19573 1.00355 0.32421 0.0
H313 H 0.15424 0.05061 0.13767 0.0
H314 H 0.16375 1.00267 0.44842 0.0
H315 H 0.12172 0.0486 0.25899 0.0
H316 H 0.0739 0.05522 0.54253 0.0
H317 H 0.10663 0.05927 0.42074 0.0
H318 H 0.12577 0.98599 0.47184 0.0
H319 H 0.09377 0.98236 0.59465 0.0
C320 C 0.17991 1.01388 0.3097 0.0
C321 C 0.17774 0.02702 0.21978 0.0
C322 C 0.16128 1.01307 0.38054 0.0
C323 C 0.13977 0.02527 0.36381 0.0
C324 C 0.1379 0.03902 0.27542 0.0
C325 C 0.15657 0.03993 0.20484 0.0
C326 C 0.08507 0.04 0.52705 0.0
C327 C 0.0813 1.01852 0.57876 0.0
C328 C 0.10386 0.04226 0.45703 0.0
C329 C 0.11927 1.02305 0.43672 0.0
C330 C 0.11487 1.00142 0.48683 0.0
C331 C 0.09628 0.99924 0.55681 0.0
H332 H 0.52804 0.15232 0.1069 0.0
H333 H 0.50757 0.20168 0.34099 0.0
H334 H 0.52758 0.12008 0.22806 0.0
H335 H 0.50855 0.1695 0.46452 0.0
H336 H 0.48701 0.10365 0.64364 0.0
H337 H 0.48797 0.13588 0.52107 0.0
H338 H 0.54556 0.10107 0.36343 0.0
H339 H 0.54381 0.06835 0.48467 0.0
C340 C 0.52348 0.1564 0.18451 0.0
C341 C 0.51743 0.17979 0.21299 0.0
C342 C 0.52356 0.13779 0.25491 0.0
C343 C 0.51785 0.14181 0.35713 0.0
C344 C 0.51257 0.16537 0.38647 0.0
C345 C 0.51235 0.18404 0.31561 0.0
C346 C 0.49976 0.10279 0.58225 0.0
C347 C 0.51528 0.08333 0.574 0.0
C348 C 0.50052 0.1215 0.51222 0.0
C349 C 0.517 0.12152 0.43177 0.0
C350 C 0.53237 0.1018 0.42304 0.0
C351 C 0.53145 0.08294 0.49285 0.0
H352 H 0.39376 0.5061 0.10004 0.0
H353 H 0.34891 0.53736 0.32988 0.0
H354 H 0.42641 0.50429 0.21984 0.0
H355 H 0.38144 0.53436 0.45076 0.0
H356 H 0.43821 0.50107 0.66113 0.0
H357 H 0.40575 0.50281 0.53955 0.0
H358 H 0.45346 0.53273 0.31752 0.0
H359 H 0.48607 0.53135 0.44056 0.0
C360 C 0.39072 0.51273 0.17572 0.0
C361 C 0.3684 0.52214 0.20381 0.0
C362 C 0.40958 0.51157 0.24474 0.0
C363 C 0.40669 0.51929 0.34497 0.0
C364 C 0.38429 0.5281 0.37431 0.0
C365 C 0.3655 0.52966 0.30476 0.0
C366 C 0.44187 0.50799 0.58633 0.0
C367 C 0.46481 0.51611 0.56077 0.0
C368 C 0.42316 0.50911 0.51674 0.0
C369 C 0.42687 0.518 0.41871 0.0
C370 C 0.44996 0.52567 0.3922 0.0
C371 C 0.46865 0.52493 0.46267 0.0
H372 H 1.0083 0.34939 0.34907 0.0
H373 H 0.04358 0.39362 0.12743 0.0
H374 H 1.01023 0.38201 0.47067 0.0
H375 H 0.04427 0.42634 0.24744 0.0
H376 H 1.01561 0.48653 0.46223 0.0
H377 H 1.01472 0.4538 0.33903 0.0
H378 H 0.04157 0.40594 0.5657 0.0
H379 H 0.04289 0.43848 0.6873 0.0
C380 C 1.01663 0.36587 0.32593 0.0
C381 C 0.02559 0.36858 0.22698 0.0
C382 C 1.01756 0.3847 0.39578 0.0
C383 C 0.02717 0.40695 0.36859 0.0
C384 C 0.03633 0.40965 0.27046 0.0
C385 C 0.03581 0.39074 0.20131 0.0
C386 C 1.02145 0.46905 0.48534 0.0
C387 C 0.02933 0.46519 0.58466 0.0
C388 C 1.02097 0.45029 0.41484 0.0
C389 C 0.02795 0.42714 0.44258 0.0
C390 C 0.03582 0.4234 0.54193 0.0
C391 C 0.03671 0.44217 0.61153 0.0
H392 H 0.846 0.02707 0.10448 0.0
H393 H 0.88631 0.98587 0.3185 0.0
H394 H 0.88236 0.03552 0.01019 0.0
H395 H 0.92267 0.99431 0.22429 0.0
H396 H 0.97715 0.99094 0.95837 0.0
H397 H 0.94238 0.9844 0.0672 0.0
H398 H 0.91948 0.05636 0.01165 0.0
H399 H 0.95378 0.06261 0.90219 0.0
C400 C 0.86265 1.02015 0.13263 0.0
C401 C 0.86303 1.00566 0.21915 0.0
C402 C 0.8836 0.02496 0.07827 0.0
C403 C 0.90562 1.01548 0.10881 0.0
C404 C 0.90609 1.00155 0.19697 0.0
C405 C 0.88515 0.99676 0.25131 0.0
C406 C 0.96479 1.00539 0.97047 0.0
C407 C 0.96817 0.02723 0.92104 0.0
C408 C 0.94485 1.0017 0.03308 0.0
C409 C 0.92781 1.01976 0.04776 0.0
C410 C 0.9318 0.04184 1.00081 0.0
C411 C 0.95164 0.04549 0.93851 0.0
H412 H 0.51927 0.89731 0.36164 0.0
H413 H 0.53636 0.84844 0.12093 0.0
H414 H 0.51938 0.93006 0.24246 0.0
H415 H 0.5352 0.88115 1.0 0.0
H416 H 0.55814 0.9471 0.82548 0.0
H417 H 0.55701 0.91457 0.94634 0.0
H418 H 0.5004 0.94977 0.10868 0.0
H419 H 0.50218 0.98278 0.98839 0.0
C420 C 0.523 0.89346 0.28304 0.0
C421 C 0.5282 0.87005 0.25188 0.0
C422 C 0.52273 0.91235 0.21398 0.0
C423 C 0.52749 0.90858 0.11077 0.0
C424 C 0.53192 0.88504 0.0789 0.0
C425 C 0.53226 0.86609 0.14828 0.0
C426 C 0.54555 0.948 0.88744 0.0
C427 C 0.53028 0.96762 0.89716 0.0
C428 C 0.54469 0.92912 0.95647 0.0
C429 C 0.52842 0.92911 0.03755 0.0
C430 C 0.51336 0.94903 0.04818 0.0
C431 C 0.51433 0.96805 0.97908 0.0
H432 H 0.70233 0.53688 0.08744 0.0
H433 H 0.65254 0.52164 0.32762 0.0
H434 H 0.66993 0.53511 0.96521 0.0
H435 H 0.62013 0.52121 0.20728 0.0
H436 H 0.56748 0.50317 0.95585 0.0
H437 H 0.60045 0.50168 0.07585 0.0
H438 H 0.63692 0.55652 0.90704 0.0
H439 H 0.60441 0.55727 0.78615 0.0
C440 C 0.68455 0.53306 0.11438 0.0
C441 C 0.68022 0.52971 0.21818 0.0
C442 C 0.66578 0.53237 0.04425 0.0
C443 C 0.64208 0.5283 0.0756 0.0
C444 C 0.63796 0.52424 0.17909 0.0
C445 C 0.65667 0.52483 0.24884 0.0
C446 C 0.58252 0.51496 0.94491 0.0
C447 C 0.58328 0.53032 0.86129 0.0
C448 C 0.60149 0.51419 0.01392 0.0
C449 C 0.62172 0.52888 1.00166 0.0
C450 C 0.62211 0.54451 0.91858 0.0
C451 C 0.60326 0.54515 0.8495 0.0
H452 H 1.00722 0.70278 0.11669 0.0
H453 H 0.02753 0.65424 0.35321 0.0
H454 H 1.00875 0.67025 0.99456 0.0
H455 H 0.02755 0.62167 0.23366 0.0
H456 H 0.0438 0.56887 0.9816 0.0
H457 H 0.04569 0.60223 0.0997 0.0
H458 H 0.98824 0.63642 0.9404 0.0
H459 H 0.98719 0.60356 0.82077 0.0
C460 C 1.0121 0.68525 0.14284 0.0
C461 C 1.01692 0.6813 0.24569 0.0
C462 C 1.01263 0.66639 0.07285 0.0
C463 C 1.01797 0.64296 0.1035 0.0
C464 C 1.02352 0.63927 0.20587 0.0
C465 C 1.02315 0.65807 0.27532 0.0
C466 C 0.03151 0.58347 0.97241 0.0
C467 C 1.01533 0.5835 0.89176 0.0
C468 C 0.03252 0.60269 0.04036 0.0
C469 C 1.01719 0.6224 0.03025 0.0
C470 C 1.00074 0.62205 0.95019 0.0
C471 C 0.99992 0.60298 0.88193 0.0
H472 H 1.0211 0.23073 0.41756 0.0
H473 H 0.95682 0.25089 0.26436 0.0
H474 H 0.99911 0.2016 0.51567 0.0
H475 H 0.93443 0.22172 0.36315 0.0
H476 H 0.93679 0.13701 0.33313 0.0
H477 H 0.94058 0.17984 0.31805 0.0
H478 H 0.96824 0.18359 0.62191 0.0
H479 H 0.96488 0.14053 0.63592 0.0
C480 C 1.00194 0.22992 0.4098 0.0
C481 C 0.9906 0.24273 0.33328 0.0
C482 C 0.98925 0.21319 0.4659 0.0
C483 C 0.9651 0.20888 0.445 0.0
C484 C 0.9531 0.22438 0.37949 0.0
C485 C 0.96583 0.24123 0.32366 0.0
C486 C 0.94293 0.14709 0.39777 0.0
C487 C 0.95098 0.13544 0.48468 0.0
C488 C 0.94485 0.17171 0.38984 0.0
C489 C 0.95504 0.18512 0.46849 0.0
C490 C 0.96052 0.17371 0.55981 0.0
C491 C 0.9585 0.14905 0.56787 0.0
H492 H 0.31323 1.02248 0.39156 0.0
H493 H 0.29277 0.95499 0.26493 0.0
H494 H 0.33983 1.0027 0.50752 0.0
H495 H 0.31914 0.93467 0.38314 0.0
H496 H 0.39841 0.97335 0.65271 0.0
H497 H 0.35565 0.97635 0.63081 0.0
H498 H 0.36105 0.93565 0.35456 0.0
H499 H 0.40346 0.93171 0.37938 0.0
C500 C 0.31346 1.00323 0.393 0.0
C501 C 0.30134 0.99018 0.31929 0.0
C502 C 0.32869 0.99176 0.45972 0.0
C503 C 0.33218 0.96705 0.45273 0.0
C504 C 0.31724 0.95376 0.38881 0.0
C505 C 0.302 0.96531 0.32177 0.0
C506 C 0.39033 0.96409 0.58984 0.0
C507 C 0.4044 0.953 0.51562 0.0
C508 C 0.36577 0.96593 0.57703 0.0
C509 C 0.35497 0.95696 0.48924 0.0
C510 C 0.36864 0.94295 0.42294 0.0
C511 C 0.39313 0.94097 0.43617 0.0
H512 H 0.60777 0.29981 0.1705 0.0
H513 H 0.54553 0.30136 0.36042 0.0
H514 H 0.62715 0.32882 0.27985 0.0
H515 H 0.56376 0.33133 0.4656 0.0
H516 H 0.58391 0.39774 0.58841 0.0
H517 H 0.588 0.35521 0.56256 0.0
H518 H 0.61796 0.36852 0.2663 0.0
H519 H 0.61561 0.41072 0.29593 0.0
C520 C 0.59876 0.30549 0.23879 0.0
C521 C 0.57512 0.29877 0.25681 0.0
C522 C 0.60964 0.32244 0.30059 0.0
C523 C 0.5966 0.33348 0.37852 0.0
C524 C 0.57444 0.32363 0.40595 0.0
C525 C 0.56385 0.30628 0.3456 0.0
C526 C 0.59233 0.39158 0.51958 0.0
C527 C 0.59872 0.40762 0.44263 0.0
C528 C 0.59446 0.3671 0.50428 0.0
C529 C 0.60254 0.35818 0.41096 0.0
C530 C 0.61156 0.3744 0.33929 0.0
C531 C 0.60979 0.3988 0.3553 0.0
H532 H 0.25593 0.58708 0.28862 0.0
H533 H 0.2291 0.51993 0.39626 0.0
H534 H 0.23038 0.60793 0.40916 0.0
H535 H 0.20352 0.54036 0.51544 0.0
H536 H 0.14686 0.57237 0.6637 0.0
H537 H 0.18956 0.56723 0.64537 0.0
H538 H 0.18817 0.60934 0.37256 0.0
H539 H 0.14575 0.61509 0.393 0.0
C540 C 0.2455 0.57681 0.342 0.0
C541 C 0.24404 0.55203 0.33293 0.0
C542 C 0.23078 0.5887 0.41049 0.0
C543 C 0.21441 0.57587 0.46985 0.0
C544 C 0.21583 0.5509 0.47107 0.0
C545 C 0.23043 0.53909 0.40247 0.0
C546 C 0.15585 0.58147 0.60249 0.0
C547 C 0.14286 0.59343 0.52755 0.0
C548 C 0.18035 0.57845 0.5919 0.0
C549 C 0.19217 0.58722 0.50592 0.0
C550 C 0.17971 0.60219 0.43957 0.0
C551 C 0.15525 0.60524 0.45031 0.0
H552 H 0.04791 0.80558 0.0994 0.0
H553 H 0.104 0.80281 0.31947 0.0
H554 H 0.06844 0.83728 0.01137 0.0
H555 H 0.12547 0.83398 0.22908 0.0
H556 H 0.11164 0.91615 0.21812 0.0
H557 H 0.11274 0.87369 0.24618 0.0
H558 H 0.09704 0.86147 0.93075 0.0
H559 H 0.09457 0.90415 0.90426 0.0
C560 C 0.06553 0.81061 0.12454 0.0
C561 C 0.07426 0.80212 0.21662 0.0
C562 C 0.07737 0.82898 0.07439 0.0
C563 C 0.0982 0.83894 0.11561 0.0
C564 C 0.10904 0.82728 0.19736 0.0
C565 C 0.097 0.80911 0.24824 0.0
C566 C 0.10881 0.90442 0.15437 0.0
C567 C 0.10236 0.91357 0.05981 0.0
C568 C 0.10984 0.87994 0.16989 0.0
C569 C 0.10459 0.86398 0.09093 0.0
C570 C 0.10075 0.8732 0.99366 0.0
C571 C 0.09953 0.89774 0.97834 0.0
H572 H 0.74804 0.10418 0.27898 0.0
H573 H 0.74707 0.04406 0.07752 0.0
H574 H 0.71972 0.12475 0.17106 0.0
H575 H 0.71798 0.06358 0.97309 0.0
H576 H 0.65243 0.08488 0.8484 0.0
H577 H 0.695 0.08924 0.87852 0.0
H578 H 0.67972 0.11484 0.18026 0.0
H579 H 0.63759 0.11157 0.14729 0.0
C580 C 0.74265 0.09591 0.20875 0.0
C581 C 0.74919 0.0724 0.18735 0.0
C582 C 0.72615 0.10749 0.14759 0.0
C583 C 0.7155 0.09538 0.0663 0.0
C584 C 0.72538 0.07353 0.03555 0.0
C585 C 0.74222 0.0622 0.09555 0.0
C586 C 0.65836 0.09229 0.91961 0.0
C587 C 0.64191 0.09742 0.99655 0.0
C588 C 0.68272 0.09471 0.93716 0.0
C589 C 0.69102 0.10166 0.03297 0.0
C590 C 0.67429 0.10948 0.10528 0.0
C591 C 0.64997 0.10747 0.08694 0.0
H592 H 0.43845 0.73802 0.2983 0.0
H593 H 0.49137 0.76642 0.09513 0.0
H594 H 0.42852 0.70758 0.17507 0.0
H595 H 0.48116 0.73624 0.97116 0.0
H596 H 0.50679 0.65673 0.04897 0.0
H597 H 0.49772 0.69819 0.06744 0.0
H598 H 0.42416 0.68443 0.99653 0.0
H599 H 0.43353 0.64236 0.96991 0.0
C600 C 0.44666 0.73887 0.22424 0.0
C601 C 0.46649 0.75365 0.20783 0.0
C602 C 0.44095 0.72141 0.15336 0.0
C603 C 0.45497 0.71895 0.06612 0.0
C604 C 0.47053 0.7375 0.03936 0.0
C605 C 0.47634 0.75488 0.11046 0.0
C606 C 0.48883 0.66238 0.03275 0.0
C607 C 0.47099 0.64595 0.00724 0.0
C608 C 0.48363 0.68634 0.04316 0.0
C609 C 0.46032 0.69464 0.0309 0.0
C610 C 0.44235 0.67849 0.00448 0.0
C611 C 0.4477 0.65438 0.99127 0.0
H612 H 0.796 0.4929 0.0773 0.0
H613 H 0.80062 0.43653 0.29593 0.0
H614 H 0.82603 0.47392 0.97506 0.0
H615 H 0.82983 0.41628 0.19043 0.0
H616 H 0.91044 0.4358 0.15804 0.0
H617 H 0.86879 0.4294 0.19378 0.0
H618 H 0.85132 0.44921 0.88691 0.0
H619 H 0.89336 0.4568 0.85369 0.0
C620 C 0.80226 0.4755 0.09969 0.0
C621 C 0.79659 0.46644 0.19524 0.0
C622 C 0.81968 0.46448 0.04104 0.0
C623 C 0.83141 0.44409 0.07709 0.0
C624 C 0.82199 0.43255 0.16273 0.0
C625 C 0.80493 0.44389 0.22251 0.0
C626 C 0.89776 0.43796 0.0973 0.0
C627 C 0.90495 0.44737 0.00419 0.0
C628 C 0.87371 0.43413 0.11729 0.0
C629 C 0.85635 0.43943 0.04401 0.0
C630 C 0.86403 0.44569 0.94624 0.0
C631 C 0.8881 0.44996 0.92694 0.0
H632 H 0.99972 0.22167 0.92479 0.0
H633 H 0.06067 0.20705 0.10988 0.0
H634 H 1.00265 0.18209 0.84938 0.0
H635 H 0.06435 0.16778 0.03282 0.0
H636 H 1.02016 0.11178 0.69341 0.0
H637 H 1.02175 0.15321 0.74732 0.0
H638 H 0.04484 0.13091 0.04326 0.0
H639 H 0.04386 0.08965 0.98838 0.0
C640 C 1.01441 0.21035 0.94595 0.0
C641 C 0.03028 0.21771 0.02167 0.0
C642 C 1.01604 0.18749 0.90331 0.0
C643 C 0.03356 0.17128 0.93558 0.0
C644 C 0.05026 0.17934 0.00721 0.0
C645 C 0.04851 0.2021 0.05013 0.0
C646 C 0.02579 0.1157 0.76981 0.0
C647 C 0.03197 0.09717 0.83624 0.0
C648 C 0.02655 0.13959 0.80111 0.0
C649 C 0.03355 0.14578 0.89993 0.0
C650 C 0.03984 0.12717 0.96598 0.0
C651 C 0.03909 0.10331 0.93467 0.0
H652 H 0.32488 0.99347 0.91197 0.0
H653 H 0.33732 0.05789 0.07906 0.0
H654 H 0.36477 0.99622 0.83823 0.0
H655 H 0.37693 0.06124 0.00402 0.0
H656 H 0.45536 0.04135 0.97716 0.0
H657 H 0.41373 0.04193 0.02636 0.0
H658 H 0.39411 1.01491 0.73273 0.0
H659 H 0.43611 1.01368 0.68431 0.0
C660 C 0.3358 1.00879 0.92941 0.0
C661 C 0.32776 0.02574 0.99962 0.0
C662 C 0.35881 1.01033 0.88775 0.0
C663 C 0.37449 0.02877 0.91603 0.0
C664 C 0.36574 0.04647 0.98176 0.0
C665 C 0.34281 0.04487 0.02345 0.0
C666 C 0.44224 0.03554 0.9227 0.0
C667 C 0.4493 0.02749 0.82656 0.0
C668 C 0.41817 0.03609 0.95071 0.0
C669 C 0.40022 0.02868 0.88353 0.0
C670 C 0.40728 1.02059 0.78713 0.0
C671 C 0.43145 1.02 0.75907 0.0
H672 H 0.56545 0.32958 0.89586 0.0
H673 H 0.49526 0.33294 0.02543 0.0
H674 H 0.56047 0.36917 0.82425 0.0
H675 H 0.48995 0.37269 0.95296 0.0
H676 H 0.50427 0.45397 0.9388 0.0
H677 H 0.50511 0.41215 0.98618 0.0
H678 H 0.54129 0.39545 0.70703 0.0
H679 H 0.54069 0.43742 0.66015 0.0
C680 C 0.54858 0.33851 0.90594 0.0
C681 C 0.53061 0.32791 0.96503 0.0
C682 C 0.54571 0.36134 0.86515 0.0
C683 C 0.52487 0.3745 0.88323 0.0
C684 C 0.5064 0.36337 0.93837 0.0
C685 C 0.50923 0.34037 0.97859 0.0
C686 C 0.51234 0.44142 0.8871 0.0
C687 C 0.52248 0.4493 0.7956 0.0
C688 C 0.51263 0.41727 0.914 0.0
C689 C 0.52319 0.40012 0.85064 0.0
C690 C 0.53315 0.408 0.75854 0.0
C691 C 0.53273 0.43217 0.73132 0.0
H692 H 0.20491 0.49005 0.09503 0.0
H693 H 0.22174 0.55083 0.91085 0.0
H694 H 0.16537 0.48801 0.02035 0.0
H695 H 0.1818 0.5494 0.83724 0.0
H696 H 0.10955 0.53295 0.68629 0.0
H697 H 0.15135 0.53078 0.73653 0.0
H698 H 0.12975 0.50962 0.03661 0.0
H699 H 0.08833 0.51106 0.98575 0.0
C700 C 0.20035 0.50256 0.03608 0.0
C701 C 0.21666 0.52032 0.00765 0.0
C702 C 0.17745 0.50172 0.99443 0.0
C703 C 0.16991 0.51885 0.92386 0.0
C704 C 0.18679 0.5358 0.89083 0.0
C705 C 0.20983 0.53655 0.93242 0.0
C706 C 0.11373 0.52773 0.76293 0.0
C707 C 0.09536 0.52206 0.83165 0.0
C708 C 0.13779 0.52662 0.79201 0.0
C709 C 0.14425 0.51983 0.89074 0.0
C710 C 0.12578 0.51438 0.95928 0.0
C711 C 0.10183 0.51542 0.93025 0.0
H712 H 0.9924 0.83894 0.39718 0.0
H713 H 0.05274 0.8272 0.5896 0.0
H714 H 0.98718 0.8786 0.4706 0.0
H715 H 0.04807 0.8668 0.66193 0.0
H716 H 0.02801 0.93591 0.81442 0.0
H717 H 0.02643 0.89444 0.7618 0.0
H718 H 1.00688 0.91628 0.46071 0.0
H719 H 1.00793 0.95775 0.51413 0.0
C720 C 1.004 0.84454 0.45789 0.0
C721 C 1.02258 0.82973 0.48953 0.0
C722 C 1.00135 0.86747 0.49874 0.0
C723 C 1.01734 0.87624 0.57191 0.0
C724 C 0.03517 0.86079 0.60697 0.0
C725 C 0.03781 0.83795 0.56598 0.0
C726 C 1.02319 0.93192 0.73709 0.0
C727 C 1.01814 0.95036 0.66866 0.0
C728 C 1.0224 0.90801 0.70663 0.0
C729 C 1.01654 0.90173 0.60665 0.0
C730 C 1.0111 0.92021 0.53871 0.0
C731 C 1.01188 0.94412 0.56922 0.0
H732 H 0.71728 0.06398 0.54483 0.0
H733 H 0.71258 0.9933 0.42128 0.0
H734 H 0.67721 0.06014 0.61373 0.0
H735 H 0.67236 0.98918 0.4913 0.0
H736 H 0.60853 0.04209 0.77711 0.0
H737 H 0.65052 0.04155 0.73177 0.0
H738 H 0.63327 1.00545 0.45347 0.0
H739 H 0.59124 1.00562 0.50056 0.0
C740 C 0.70792 0.04729 0.53529 0.0
C741 C 0.71824 0.02888 0.47826 0.0
C742 C 0.68484 0.04508 0.57459 0.0
C743 C 0.67124 0.02444 0.55732 0.0
C744 C 0.68208 1.00549 0.50489 0.0
C745 C 0.70532 1.00766 0.46621 0.0
C746 C 0.61367 0.03382 0.7069 0.0
C747 C 0.59635 0.02386 0.64311 0.0
C748 C 0.63784 0.03364 0.68028 0.0
C749 C 0.64553 1.02339 0.58878 0.0
C750 C 0.62821 1.01318 0.52525 0.0
C751 C 0.60399 1.01349 0.55186 0.0
H752 H 0.48244 0.71846 0.56167 0.0
H753 H 0.54899 0.71548 0.40094 0.0
H754 H 0.48799 0.67787 0.62018 0.0
H755 H 0.55504 0.67467 0.46097 0.0
H756 H 0.54086 0.59304 0.47415 0.0
H757 H 0.53967 0.6353 0.43128 0.0
H758 H 0.50829 0.65049 0.72234 0.0
H759 H 0.50864 0.60835 0.76224 0.0
C760 C 0.49875 0.70935 0.542 0.0
C761 C 0.51549 0.72043 0.47834 0.0
C762 C 0.50194 0.68592 0.57522 0.0
C763 C 0.52194 0.6726 0.54522 0.0
C764 C 0.53924 0.68409 0.48485 0.0
C765 C 0.53605 0.70769 0.45188 0.0
C766 C 0.53373 0.60541 0.52903 0.0
C767 C 0.52497 0.59712 0.62244 0.0
C768 C 0.53325 0.62979 0.50482 0.0
C769 C 0.52393 0.64666 0.57313 0.0
C770 C 0.5154 0.63827 0.66681 0.0
C771 C 0.51585 0.61398 0.69062 0.0
H772 H 0.83499 0.54981 0.3834 0.0
H773 H 0.82784 0.48488 0.55257 0.0
H774 H 0.87503 0.55559 0.45281 0.0
H775 H 0.86767 0.49028 0.62114 0.0
H776 H 0.93548 0.51252 0.77885 0.0
H777 H 0.89397 0.51213 0.72803 0.0
H778 H 0.91415 0.53806 0.43304 0.0
H779 H 0.95577 0.53879 0.48515 0.0
C780 C 0.84169 0.5372 0.43804 0.0
C781 C 0.82806 0.51715 0.4641 0.0
C782 C 0.86482 0.54024 0.47655 0.0
C783 C 0.8749 0.52332 0.54235 0.0
C784 C 0.86065 0.50389 0.5719 0.0
C785 C 0.83769 0.5008 0.53293 0.0
C786 C 0.93115 0.51826 0.70343 0.0
C787 C 0.94922 0.52561 0.63655 0.0
C788 C 0.9072 0.51794 0.67381 0.0
C789 C 0.90042 0.52506 0.57604 0.0
C790 C 0.91847 0.53276 0.5094 0.0
C791 C 0.94247 0.53298 0.5391 0.0
loop_
_geom_bond_atom_site_label_1
_geom_bond_atom_site_label_2
_geom_bond_distance
_geom_bond_site_symmetry_2
_ccdc_geom_bond_type
H0 C1 0.949 . S
C1 H0 0.949 . S
C1 C2 1.395 . S
C1 C3 1.391 . S
C2 C1 1.395 . S
C2 C5 1.390 . S
C3 C1 1.391 . S
C3 C7 1.387 . S
C3 C8 1.491 . S
H4 C5 0.950 . S
C5 C2 1.390 . S
C5 H4 0.950 . S
C5 C6 1.378 . S
C6 C5 1.378 . S
C6 C7 1.409 . S
C7 C3 1.387 . S
C7 C6 1.409 . S
C7 H9 0.951 . S
C8 C3 1.491 . S
C8 C10 1.382 . S
C8 C12 1.404 . S
H9 C7 0.951 . S
C10 C8 1.382 . S
C10 C11 1.390 . S
C10 H15 0.949 . S
C11 C10 1.390 . S
C11 C16 1.399 . S
C12 C8 1.404 . S
C12 H13 0.950 . S
C12 C14 1.375 . S
H13 C12 0.950 . S
C14 C12 1.375 . S
C14 C16 1.382 . S
C14 H18 0.950 . S
H15 C10 0.949 . S
C16 C11 1.399 . S
C16 C14 1.382 . S
C16 H17 0.952 . S
H17 C16 0.952 . S
H18 C14 0.950 . S
H19 C20 0.949 . S
C20 H19 0.949 . S
C20 C21 1.395 . S
C20 C22 1.391 . S
C21 C20 1.395 . S
C21 C24 1.390 1_655 S
C22 C20 1.391 . S
C22 C26 1.387 . S
C22 C27 1.491 . S
H23 C24 0.950 . S
C24 C21 1.390 1_455 S
C24 H23 0.950 . S
C24 C25 1.377 1_455 S
C25 C24 1.377 1_655 S
C25 C26 1.413 . S
C26 C22 1.387 . S
C26 C25 1.413 . S
C26 H28 0.951 . S
C27 C22 1.491 . S
C27 C29 1.382 . S
C27 C31 1.404 . S
H28 C26 0.951 . S
C29 C27 1.382 . S
C29 C30 1.390 . S
C29 H34 0.949 1_655 S
C30 C29 1.390 . S
C30 C35 1.399 . S
C31 C27 1.404 . S
C31 H32 0.950 . S
C31 C33 1.375 . S
H32 C31 0.950 . S
C33 C31 1.375 . S
C33 C35 1.382 . S
C33 H37 0.950 . S
H34 C29 0.949 1_455 S
C35 C30 1.399 . S
C35 C33 1.382 . S
C35 H36 0.952 . S
H36 C35 0.952 . S
H37 C33 0.950 . S
H38 C39 0.949 . S
C39 H38 0.949 . S
C39 C40 1.395 . S
C39 C41 1.391 . S
C40 C39 1.395 . S
C40 C43 1.390 1_565 S
C41 C39 1.391 . S
C41 C45 1.387 . S
C41 C46 1.491 . S
H42 C43 0.950 . S
C43 C40 1.390 1_545 S
C43 H42 0.950 . S
C43 C44 1.377 1_545 S
C44 C43 1.377 1_565 S
C44 C45 1.413 . S
C45 C41 1.387 . S
C45 C44 1.413 . S
C45 H47 0.951 . S
C46 C41 1.491 . S
C46 C48 1.382 . S
C46 C50 1.404 . S
H47 C45 0.951 . S
C48 C46 1.382 . S
C48 C49 1.390 . S
C48 H53 0.949 1_565 S
C49 C48 1.390 . S
C49 C54 1.399 . S
C50 C46 1.404 . S
C50 H51 0.950 . S
C50 C52 1.375 . S
H51 C50 0.950 . S
C52 C50 1.375 . S
C52 C54 1.382 . S
C52 H56 0.950 . S
H53 C48 0.949 1_545 S
C54 C49 1.399 . S
C54 C52 1.382 . S
C54 H55 0.952 . S
H55 C54 0.952 . S
H56 C52 0.950 . S
H57 C58 0.949 . S
C58 H57 0.949 . S
C58 C59 1.395 . S
C58 C60 1.391 . S
C59 C58 1.395 . S
C59 C62 1.390 . S
C60 C58 1.391 . S
C60 C64 1.387 . S
C60 C65 1.491 . S
H61 C62 0.950 . S
C62 C59 1.390 . S
C62 H61 0.950 . S
C62 C63 1.378 . S
C63 C62 1.378 . S
C63 C64 1.409 . S
C64 C60 1.387 . S
C64 C63 1.409 . S
C64 H66 0.951 . S
C65 C60 1.491 . S
C65 C67 1.382 . S
C65 C69 1.404 . S
H66 C64 0.951 . S
C67 C65 1.382 . S
C67 C68 1.390 . S
C67 H72 0.949 . S
C68 C67 1.390 . S
C68 C73 1.399 . S
C69 C65 1.404 . S
C69 H70 0.950 . S
C69 C71 1.375 . S
H70 C69 0.950 . S
C71 C69 1.375 . S
C71 C73 1.382 . S
C71 H75 0.950 . S
H72 C67 0.949 . S
C73 C68 1.399 . S
C73 C71 1.382 . S
C73 H74 0.952 . S
H74 C73 0.952 . S
H75 C71 0.950 . S
H76 C77 0.949 . S
C77 H76 0.949 . S
C77 C78 1.395 . S
C77 C79 1.391 1_554 S
C78 C77 1.395 . S
C78 C81 1.390 1_554 S
C79 C77 1.391 1_556 S
C79 C83 1.387 . S
C79 C84 1.491 . S
H80 C81 0.950 . S
C81 C78 1.390 1_556 S
C81 H80 0.950 . S
C81 C82 1.378 . S
C82 C81 1.378 . S
C82 C83 1.409 . S
C83 C79 1.387 . S
C83 C82 1.409 . S
C83 H85 0.951 . S
C84 C79 1.491 . S
C84 C86 1.374 1_556 S
C84 C88 1.411 . S
H85 C83 0.951 . S
C86 C84 1.374 1_554 S
C86 C87 1.390 . S
C86 H91 0.949 . S
C87 C86 1.390 . S
C87 C92 1.399 . S
C88 C84 1.411 . S
C88 H89 0.950 . S
C88 C90 1.375 . S
H89 C88 0.950 . S
C90 C88 1.375 . S
C90 C92 1.382 1_556 S
C90 H94 0.950 . S
H91 C86 0.949 . S
C92 C87 1.399 . S
C92 C90 1.382 1_554 S
C92 H93 0.952 . S
H93 C92 0.952 . S
H94 C90 0.950 . S
H95 C96 0.949 . S
C96 H95 0.949 . S
C96 C97 1.395 1_655 S
C96 C98 1.390 1_554 S
C97 C96 1.395 1_455 S
C97 C100 1.390 1_554 S
C98 C96 1.390 1_556 S
C98 C102 1.388 . S
C98 C103 1.491 1_556 S
H99 C100 0.950 . S
C100 C97 1.390 1_556 S
C100 H99 0.950 . S
C100 C101 1.377 1_455 S
C101 C100 1.377 1_655 S
C101 C102 1.411 . S
C102 C98 1.388 . S
C102 C101 1.411 . S
C102 H104 0.951 . S
C103 C98 1.491 1_554 S
C103 C105 1.402 . S
C103 C107 1.404 1_554 S
H104 C102 0.951 . S
C105 C103 1.402 . S
C105 C106 1.400 . S
C105 H110 0.920 1_655 S
C106 C105 1.400 . S
C106 C111 1.399 . S
C107 C103 1.404 1_556 S
C107 H108 0.950 . S
C107 C109 1.375 . S
H108 C107 0.950 . S
C109 C107 1.375 . S
C109 C111 1.382 1_556 S
C109 H113 0.950 . S
H110 C105 0.920 1_455 S
C111 C106 1.399 . S
C111 C109 1.382 1_554 S
C111 H112 0.952 . S
H112 C111 0.952 . S
H113 C109 0.950 . S
H114 C115 0.949 . S
C115 H114 0.949 . S
C115 C116 1.395 1_565 S
C115 C117 1.391 1_554 S
C116 C115 1.395 1_545 S
C116 C119 1.390 1_554 S
C117 C115 1.391 1_556 S
C117 C121 1.387 . S
C117 C122 1.491 1_556 S
H118 C119 0.950 . S
C119 C116 1.390 1_556 S
C119 H118 0.950 . S
C119 C120 1.377 1_545 S
C120 C119 1.377 1_565 S
C120 C121 1.411 . S
C121 C117 1.387 . S
C121 C120 1.411 . S
C121 H123 0.951 . S
C122 C117 1.491 1_554 S
C122 C124 1.402 . S
C122 C126 1.404 1_554 S
H123 C121 0.951 . S
C124 C122 1.402 . S
C124 C125 1.400 . S
C124 H129 0.920 1_565 S
C125 C124 1.400 . S
C125 C130 1.399 . S
C126 C122 1.404 1_556 S
C126 H127 0.950 . S
C126 C128 1.375 . S
H127 C126 0.950 . S
C128 C126 1.375 . S
C128 C130 1.382 1_556 S
C128 H132 0.950 . S
H129 C124 0.920 1_545 S
C130 C125 1.399 . S
C130 C128 1.382 1_554 S
C130 H131 0.952 . S
H131 C130 0.952 . S
H132 C128 0.950 . S
H133 C134 0.949 . S
C134 H133 0.949 . S
C134 C135 1.395 . S
C134 C136 1.391 1_554 S
C135 C134 1.395 . S
C135 C138 1.390 1_554 S
C136 C134 1.391 1_556 S
C136 C140 1.387 . S
C136 C141 1.491 . S
H137 C138 0.950 . S
C138 C135 1.390 1_556 S
C138 H137 0.950 . S
C138 C139 1.378 . S
C139 C138 1.378 . S
C139 C140 1.409 . S
C140 C136 1.387 . S
C140 C139 1.409 . S
C140 H142 0.951 . S
C141 C136 1.491 . S
C141 C143 1.382 1_556 S
C141 C145 1.404 . S
H142 C140 0.951 . S
C143 C141 1.382 1_554 S
C143 C144 1.390 . S
C143 H148 0.949 . S
C144 C143 1.390 . S
C144 C149 1.399 . S
C145 C141 1.404 . S
C145 H146 0.950 . S
C145 C147 1.375 . S
H146 C145 0.950 . S
C147 C145 1.375 . S
C147 C149 1.382 1_556 S
C147 H151 0.950 . S
H148 C143 0.949 . S
C149 C144 1.399 . S
C149 C147 1.382 1_554 S
C149 H150 0.952 . S
H150 C149 0.952 . S
H151 C147 0.950 . S
Tb152 C154 2.809 . S
Tb152 O172 2.470 1_455 S
Tb152 O173 2.440 . S
Tb152 O174 2.658 1_565 S
Tb152 O175 2.409 . S
Tb152 O176 2.378 . S
Tb152 O180 2.325 1_455 S
Tb152 O183 2.341 1_565 S
Tb153 C163 2.809 . S
Tb153 O174 2.325 1_655 S
Tb153 O177 2.341 1_545 S
Tb153 O178 2.465 1_655 S
Tb153 O179 2.440 . S
Tb153 O180 2.658 1_545 S
Tb153 O181 2.409 . S
Tb153 O182 2.378 . S
C154 Tb152 2.809 . S
C154 C155 1.514 . S
C154 O172 1.214 1_455 S
C154 O173 1.266 . S
C155 C154 1.514 . S
C155 C156 1.359 1_556 S
C155 C160 1.348 1_556 S
C156 C155 1.359 1_554 S
C156 C157 1.380 . S
C156 H184 0.929 1_455 S
C157 C156 1.380 . S
C157 C158 1.347 . S
C157 H185 0.931 1_455 S
C158 C157 1.347 . S
C158 C159 1.369 . S
C159 C158 1.369 . S
C159 C160 1.408 . S
C159 H186 0.930 . S
C160 C155 1.348 1_554 S
C160 C159 1.408 . S
C160 H187 0.930 1_554 S
C161 O174 1.281 1_565 S
C161 O175 1.254 . S
C162 O176 1.236 1_655 S
C162 O177 1.266 . S
C163 Tb153 2.809 . S
C163 C164 1.514 . S
C163 O178 1.204 1_655 S
C163 O179 1.266 . S
C164 C163 1.514 . S
C164 C165 1.359 . S
C164 C169 1.348 . S
C165 C164 1.359 . S
C165 C166 1.380 . S
C165 H188 0.929 1_655 S
C166 C165 1.380 . S
C166 C167 1.347 . S
C166 H189 0.931 1_655 S
C167 C166 1.347 . S
C167 C168 1.369 . S
C168 C167 1.369 . S
C168 C169 1.408 . S
C168 H190 0.930 . S
C169 C164 1.348 . S
C169 C168 1.408 . S
C169 H191 0.930 . S
C170 O180 1.281 1_545 S
C170 O181 1.254 . S
C171 O182 1.236 1_455 S
C171 O183 1.266 . S
O172 Tb152 2.470 1_655 S
O172 C154 1.214 1_655 S
O173 Tb152 2.440 . S
O173 C154 1.266 . S
O174 Tb152 2.658 1_545 S
O174 Tb153 2.325 1_455 S
O174 C161 1.281 1_545 S
O175 Tb152 2.409 . S
O175 C161 1.254 . S
O176 Tb152 2.378 . S
O176 C162 1.236 1_455 S
O177 Tb153 2.341 1_565 S
O177 C162 1.266 . S
O178 Tb153 2.465 1_455 S
O178 C163 1.204 1_455 S
O179 Tb153 2.440 . S
O179 C163 1.266 . S
O180 Tb152 2.325 1_655 S
O180 Tb153 2.658 1_565 S
O180 C170 1.281 1_565 S
O181 Tb153 2.409 . S
O181 C170 1.254 . S
O182 Tb153 2.378 . S
O182 C171 1.236 1_655 S
O183 Tb152 2.341 1_545 S
O183 C171 1.266 . S
H184 C156 0.929 1_655 S
H185 C157 0.931 1_655 S
H186 C159 0.930 . S
H187 C160 0.930 1_556 S
H188 C165 0.929 1_455 S
H189 C166 0.931 1_455 S
H190 C168 0.930 . S
H191 C169 0.930 . S
Tb192 C194 2.809 . S
Tb192 O212 2.464 1_545 S
Tb192 O213 2.440 . S
Tb192 O214 2.658 . S
Tb192 O215 2.409 . S
Tb192 O216 2.378 . S
Tb192 O220 2.325 1_545 S
Tb192 O223 2.341 . S
Tb193 C203 2.809 . S
Tb193 O214 2.325 1_565 S
Tb193 O217 2.341 . S
Tb193 O218 2.484 1_565 S
Tb193 O219 2.440 . S
Tb193 O220 2.658 . S
Tb193 O221 2.409 . S
Tb193 O222 2.378 . S
C194 Tb192 2.809 . S
C194 C195 1.514 . S
C194 O212 1.203 1_545 S
C194 O213 1.266 . S
C195 C194 1.514 . S
C195 C196 1.359 1_556 S
C195 C200 1.348 1_556 S
C196 C195 1.359 1_554 S
C196 C197 1.380 . S
C196 H224 0.929 1_545 S
C197 C196 1.380 . S
C197 C198 1.347 . S
C197 H225 0.931 1_545 S
C198 C197 1.347 . S
C198 C199 1.369 . S
C199 C198 1.369 . S
C199 C200 1.408 . S
C199 H226 0.930 . S
C200 C195 1.348 1_554 S
C200 C199 1.408 . S
C200 H227 0.930 1_554 S
C201 O214 1.281 . S
C201 O215 1.254 . S
C202 O216 1.236 1_565 S
C202 O217 1.266 . S
C203 Tb193 2.809 . S
C203 C204 1.514 . S
C203 O218 1.248 1_565 S
C203 O219 1.266 . S
C204 C203 1.514 . S
C204 C205 1.359 . S
C204 C209 1.348 . S
C205 C204 1.359 . S
C205 C206 1.380 . S
C205 H228 0.929 1_565 S
C206 C205 1.380 . S
C206 C207 1.347 . S
C206 H229 0.931 1_565 S
C207 C206 1.347 . S
C207 C208 1.369 . S
C208 C207 1.369 . S
C208 C209 1.408 . S
C208 H230 0.930 . S
C209 C204 1.348 . S
C209 C208 1.408 . S
C209 H231 0.930 . S
C210 O220 1.281 . S
C210 O221 1.254 . S
C211 O222 1.236 1_545 S
C211 O223 1.266 . S
O212 Tb192 2.464 1_565 S
O212 C194 1.203 1_565 S
O213 Tb192 2.440 . S
O213 C194 1.266 . S
O214 Tb192 2.658 . S
O214 Tb193 2.325 1_545 S
O214 C201 1.281 . S
O215 Tb192 2.409 . S
O215 C201 1.254 . S
O216 Tb192 2.378 . S
O216 C202 1.236 1_545 S
O217 Tb193 2.341 . S
O217 C202 1.266 . S
O218 Tb193 2.484 1_545 S
O218 C203 1.248 1_545 S
O219 Tb193 2.440 . S
O219 C203 1.266 . S
O220 Tb192 2.325 1_565 S
O220 Tb193 2.658 . S
O220 C210 1.281 . S
O221 Tb193 2.409 . S
O221 C210 1.254 . S
O222 Tb193 2.378 . S
O222 C211 1.236 1_565 S
O223 Tb192 2.341 . S
O223 C211 1.266 . S
H224 C196 0.929 1_565 S
H225 C197 0.931 1_565 S
H226 C199 0.930 . S
H227 C200 0.930 1_556 S
H228 C205 0.929 1_545 S
H229 C206 0.931 1_545 S
H230 C208 0.930 . S
H231 C209 0.930 . S
Tb232 C234 2.809 . S
Tb232 O252 2.484 . S
Tb232 O253 2.440 . S
Tb232 O254 2.658 . S
Tb232 O255 2.409 . S
Tb232 O256 2.378 . S
Tb232 O260 2.325 . S
Tb232 O263 2.341 . S
Tb233 C243 2.809 . S
Tb233 O254 2.325 . S
Tb233 O257 2.341 . S
Tb233 O258 2.484 . S
Tb233 O259 2.440 . S
Tb233 O260 2.658 . S
Tb233 O261 2.409 . S
Tb233 O262 2.378 . S
C234 Tb232 2.809 . S
C234 C235 1.514 . S
C234 O252 1.248 . S
C234 O253 1.266 . S
C235 C234 1.514 . S
C235 C236 1.359 1_556 S
C235 C240 1.348 1_556 S
C236 C235 1.359 1_554 S
C236 C237 1.380 . S
C236 H264 0.929 . S
C237 C236 1.380 . S
C237 C238 1.347 . S
C237 H265 0.931 . S
C238 C237 1.347 . S
C238 C239 1.369 . S
C239 C238 1.369 . S
C239 C240 1.408 . S
C239 H266 0.930 . S
C240 C235 1.348 1_554 S
C240 C239 1.408 . S
C240 H267 0.930 1_554 S
C241 O254 1.281 . S
C241 O255 1.254 . S
C242 O256 1.236 . S
C242 O257 1.266 . S
C243 Tb233 2.809 . S
C243 C244 1.514 . S
C243 O258 1.248 . S
C243 O259 1.266 . S
C244 C243 1.514 . S
C244 C245 1.359 . S
C244 C249 1.348 . S
C245 C244 1.359 . S
C245 C246 1.380 . S
C245 H268 0.929 . S
C246 C245 1.380 . S
C246 C247 1.347 . S
C246 H269 0.931 . S
C247 C246 1.347 . S
C247 C248 1.369 . S
C248 C247 1.369 . S
C248 C249 1.408 . S
C248 H270 0.930 . S
C249 C244 1.348 . S
C249 C248 1.408 . S
C249 H271 0.930 . S
C250 O260 1.281 . S
C250 O261 1.254 . S
C251 O262 1.236 . S
C251 O263 1.266 . S
O252 Tb232 2.484 . S
O252 C234 1.248 . S
O253 Tb232 2.440 . S
O253 C234 1.266 . S
O254 Tb232 2.658 . S
O254 Tb233 2.325 . S
O254 C241 1.281 . S
O255 Tb232 2.409 . S
O255 C241 1.254 . S
O256 Tb232 2.378 . S
O256 C242 1.236 . S
O257 Tb233 2.341 . S
O257 C242 1.266 . S
O258 Tb233 2.484 . S
O258 C243 1.248 . S
O259 Tb233 2.440 . S
O259 C243 1.266 . S
O260 Tb232 2.325 . S
O260 Tb233 2.658 . S
O260 C250 1.281 . S
O261 Tb233 2.409 . S
O261 C250 1.254 . S
O262 Tb233 2.378 . S
O262 C251 1.236 . S
O263 Tb232 2.341 . S
O263 C251 1.266 . S
H264 C236 0.929 . S
H265 C237 0.931 . S
H266 C239 0.930 . S
H267 C240 0.930 1_556 S
H268 C245 0.929 . S
H269 C246 0.931 . S
H270 C248 0.930 . S
H271 C249 0.930 . S
Tb272 C274 2.809 . S
Tb272 O292 2.484 . S
Tb272 O293 2.440 . S
Tb272 O294 2.658 1_655 S
Tb272 O295 2.409 . S
Tb272 O296 2.378 . S
Tb272 O300 2.325 . S
Tb272 O303 2.341 1_655 S
Tb273 C283 2.809 . S
Tb273 O294 2.325 . S
Tb273 O297 2.341 1_455 S
Tb273 O298 2.484 . S
Tb273 O299 2.440 . S
Tb273 O300 2.658 1_455 S
Tb273 O301 2.409 . S
Tb273 O302 2.378 . S
C274 Tb272 2.809 . S
C274 C275 1.514 . S
C274 O292 1.248 . S
C274 O293 1.266 . S
C275 C274 1.514 . S
C275 C276 1.359 1_556 S
C275 C280 1.348 1_556 S
C276 C275 1.359 1_554 S
C276 C277 1.380 . S
C276 H304 0.929 . S
C277 C276 1.380 . S
C277 C278 1.347 . S
C277 H305 0.931 . S
C278 C277 1.347 . S
C278 C279 1.369 . S
C279 C278 1.369 . S
C279 C280 1.408 . S
C279 H306 0.930 . S
C280 C275 1.348 1_554 S
C280 C279 1.408 . S
C280 H307 0.930 1_554 S
C281 O294 1.270 1_655 S
C281 O295 1.268 . S
C282 O296 1.236 . S
C282 O297 1.266 . S
C283 Tb273 2.809 . S
C283 C284 1.514 . S
C283 O298 1.248 . S
C283 O299 1.266 . S
C284 C283 1.514 . S
C284 C285 1.359 . S
C284 C289 1.348 . S
C285 C284 1.359 . S
C285 C286 1.380 . S
C285 H308 0.929 . S
C286 C285 1.380 . S
C286 C287 1.347 . S
C286 H309 0.931 . S
C287 C286 1.347 . S
C287 C288 1.369 . S
C288 C287 1.369 . S
C288 C289 1.408 . S
C288 H310 0.930 . S
C289 C284 1.348 . S
C289 C288 1.408 . S
C289 H311 0.930 . S
C290 O300 1.267 1_455 S
C290 O301 1.274 . S
C291 O302 1.236 . S
C291 O303 1.266 . S
O292 Tb272 2.484 . S
O292 C274 1.248 . S
O293 Tb272 2.440 . S
O293 C274 1.266 . S
O294 Tb272 2.658 1_455 S
O294 Tb273 2.325 . S
O294 C281 1.270 1_455 S
O295 Tb272 2.409 . S
O295 C281 1.268 . S
O296 Tb272 2.378 . S
O296 C282 1.236 . S
O297 Tb273 2.341 1_655 S
O297 C282 1.266 . S
O298 Tb273 2.484 . S
O298 C283 1.248 . S
O299 Tb273 2.440 . S
O299 C283 1.266 . S
O300 Tb272 2.325 . S
O300 Tb273 2.658 1_655 S
O300 C290 1.267 1_655 S
O301 Tb273 2.409 . S
O301 C290 1.274 . S
O302 Tb273 2.378 . S
O302 C291 1.236 . S
O303 Tb272 2.341 1_455 S
O303 C291 1.266 . S
H304 C276 0.929 . S
H305 C277 0.931 . S
H306 C279 0.930 . S
H307 C280 0.930 1_556 S
H308 C285 0.929 . S
H309 C286 0.931 . S
H310 C288 0.930 . S
H311 C289 0.930 . S
H312 C320 0.950 . S
H313 C325 0.950 . S
H314 C322 0.950 . S
H315 C324 0.950 . S
H316 C326 0.950 . S
H317 C328 0.950 . S
H318 C330 0.950 . S
H319 C331 0.950 . S
C320 H312 0.950 . S
C320 C321 1.363 1_565 S
C320 C322 1.391 . S
C321 C320 1.363 1_545 S
C321 C325 1.417 . S
C322 H314 0.950 . S
C322 C320 1.391 . S
C322 C323 1.386 1_565 S
C323 C322 1.386 1_545 S
C323 C324 1.413 . S
C323 C329 1.490 1_545 S
C324 H315 0.950 . S
C324 C323 1.413 . S
C324 C325 1.391 . S
C325 H313 0.950 . S
C325 C321 1.417 . S
C325 C324 1.391 . S
C326 H316 0.950 . S
C326 C327 1.376 1_545 S
C326 C328 1.391 . S
C327 C326 1.376 1_565 S
C327 C331 1.403 . S
C328 H317 0.950 . S
C328 C326 1.391 . S
C328 C329 1.399 1_545 S
C329 C323 1.490 1_565 S
C329 C328 1.399 1_565 S
C329 C330 1.399 . S
C330 H318 0.950 . S
C330 C329 1.399 . S
C330 C331 1.391 . S
C331 H319 0.950 . S
C331 C327 1.403 . S
C331 C330 1.391 . S
H332 C340 0.950 . S
H333 C345 0.950 . S
H334 C342 0.950 . S
H335 C344 0.950 . S
H336 C346 0.950 . S
H337 C348 0.950 . S
H338 C350 0.950 . S
H339 C351 0.950 . S
C340 H332 0.950 . S
C340 C341 1.386 . S
C340 C342 1.391 . S
C341 C340 1.386 . S
C341 C345 1.393 . S
C342 H334 0.950 . S
C342 C340 1.391 . S
C342 C343 1.400 . S
C343 C342 1.400 . S
C343 C344 1.398 . S
C343 C349 1.491 . S
C344 H335 0.950 . S
C344 C343 1.398 . S
C344 C345 1.391 . S
C345 H333 0.950 . S
C345 C341 1.393 . S
C345 C344 1.391 . S
C346 H336 0.950 . S
C346 C347 1.386 . S
C346 C348 1.391 . S
C347 C346 1.386 . S
C347 C351 1.393 . S
C348 H337 0.950 . S
C348 C346 1.391 . S
C348 C349 1.400 . S
C349 C343 1.491 . S
C349 C348 1.400 . S
C349 C350 1.398 . S
C350 H338 0.950 . S
C350 C349 1.398 . S
C350 C351 1.391 . S
C351 H339 0.950 . S
C351 C347 1.393 . S
C351 C350 1.391 . S
H352 C360 0.950 . S
H353 C365 0.950 . S
H354 C362 0.950 . S
H355 C364 0.950 . S
H356 C366 0.950 . S
H357 C368 0.950 . S
H358 C370 0.950 . S
H359 C371 0.950 . S
C360 H352 0.950 . S
C360 C361 1.386 . S
C360 C362 1.391 . S
C361 C360 1.386 . S
C361 C365 1.393 . S
C362 H354 0.950 . S
C362 C360 1.391 . S
C362 C363 1.400 . S
C363 C362 1.400 . S
C363 C364 1.398 . S
C363 C369 1.491 . S
C364 H355 0.950 . S
C364 C363 1.398 . S
C364 C365 1.391 . S
C365 H353 0.950 . S
C365 C361 1.393 . S
C365 C364 1.391 . S
C366 H356 0.950 . S
C366 C367 1.386 . S
C366 C368 1.391 . S
C367 C366 1.386 . S
C367 C371 1.393 . S
C368 H357 0.950 . S
C368 C366 1.391 . S
C368 C369 1.400 . S
C369 C363 1.491 . S
C369 C368 1.400 . S
C369 C370 1.398 . S
C370 H358 0.950 . S
C370 C369 1.398 . S
C370 C371 1.391 . S
C371 H359 0.950 . S
C371 C367 1.393 . S
C371 C370 1.391 . S
H372 C380 0.950 . S
H373 C385 0.950 . S
H374 C382 0.950 . S
H375 C384 0.950 . S
H376 C386 0.950 . S
H377 C388 0.950 . S
H378 C390 0.950 . S
H379 C391 0.950 . S
C380 H372 0.950 . S
C380 C381 1.400 . S
C380 C382 1.391 . S
C381 C380 1.400 . S
C381 C385 1.381 1_455 S
C382 H374 0.950 . S
C382 C380 1.391 . S
C382 C383 1.412 . S
C383 C382 1.412 . S
C383 C384 1.389 1_455 S
C383 C389 1.490 . S
C384 H375 0.950 . S
C384 C383 1.389 1_655 S
C384 C385 1.391 . S
C385 H373 0.950 . S
C385 C381 1.381 1_655 S
C385 C384 1.391 . S
C386 H376 0.950 . S
C386 C387 1.387 1_655 S
C386 C388 1.391 . S
C387 C386 1.387 1_455 S
C387 C391 1.391 . S
C388 H377 0.950 . S
C388 C386 1.391 . S
C388 C389 1.400 1_655 S
C389 C383 1.490 . S
C389 C388 1.400 1_455 S
C389 C390 1.399 . S
C390 H378 0.950 . S
C390 C389 1.399 . S
C390 C391 1.391 . S
C391 H379 0.950 . S
C391 C387 1.391 . S
C391 C390 1.391 . S
H392 C400 0.950 . S
H393 C405 0.950 . S
H394 C402 0.950 . S
H395 C404 0.950 . S
H396 C406 0.950 . S
H397 C408 0.950 . S
H398 C410 0.950 . S
H399 C411 0.950 . S
C400 H392 0.950 . S
C400 C401 1.400 . S
C400 C402 1.391 . S
C401 C400 1.400 . S
C401 C405 1.379 1_545 S
C402 H394 0.950 . S
C402 C400 1.391 . S
C402 C403 1.406 . S
C403 C402 1.406 . S
C403 C404 1.393 1_545 S
C403 C409 1.490 1_545 S
C404 H395 0.950 . S
C404 C403 1.393 1_565 S
C404 C405 1.391 . S
C405 H393 0.950 . S
C405 C401 1.379 1_565 S
C405 C404 1.391 . S
C406 H396 0.950 . S
C406 C407 1.401 1_554 S
C406 C408 1.391 . S
C407 C406 1.401 1_556 S
C407 C411 1.379 1_565 S
C408 H397 0.950 . S
C408 C406 1.391 . S
C408 C409 1.407 . S
C409 C403 1.490 1_565 S
C409 C408 1.407 . S
C409 C410 1.393 1_564 S
C410 H398 0.950 . S
C410 C409 1.393 1_546 S
C410 C411 1.391 . S
C411 H399 0.950 . S
C411 C407 1.379 1_545 S
C411 C410 1.391 . S
H412 C420 0.950 . S
H413 C425 0.950 . S
H414 C422 0.950 . S
H415 C424 0.950 . S
H416 C426 0.950 . S
H417 C428 0.950 . S
H418 C430 0.950 . S
H419 C431 0.950 . S
C420 H412 0.950 . S
C420 C421 1.386 . S
C420 C422 1.391 . S
C421 C420 1.386 . S
C421 C425 1.393 . S
C422 H414 0.950 . S
C422 C420 1.391 . S
C422 C423 1.400 . S
C423 C422 1.400 . S
C423 C424 1.398 . S
C423 C429 1.491 . S
C424 H415 0.950 . S
C424 C423 1.398 . S
C424 C425 1.391 . S
C425 H413 0.950 . S
C425 C421 1.393 . S
C425 C424 1.391 . S
C426 H416 0.950 . S
C426 C427 1.386 . S
C426 C428 1.391 . S
C427 C426 1.386 . S
C427 C431 1.393 1_556 S
C428 H417 0.950 . S
C428 C426 1.391 . S
C428 C429 1.400 1_556 S
C429 C423 1.491 . S
C429 C428 1.400 1_554 S
C429 C430 1.398 . S
C430 H418 0.950 . S
C430 C429 1.398 . S
C430 C431 1.391 . S
C431 H419 0.950 . S
C431 C427 1.393 1_554 S
C431 C430 1.391 . S
H432 C440 0.950 . S
H433 C445 0.950 . S
H434 C442 0.950 . S
H435 C444 0.950 . S
H436 C446 0.950 . S
H437 C448 0.950 . S
H438 C450 0.950 . S
H439 C451 0.950 . S
C440 H432 0.950 . S
C440 C441 1.386 . S
C440 C442 1.391 . S
C441 C440 1.386 . S
C441 C445 1.393 . S
C442 H434 0.950 . S
C442 C440 1.391 . S
C442 C443 1.400 . S
C443 C442 1.400 . S
C443 C444 1.398 . S
C443 C449 1.491 . S
C444 H435 0.950 . S
C444 C443 1.398 . S
C444 C445 1.391 . S
C445 H433 0.950 . S
C445 C441 1.393 . S
C445 C444 1.391 . S
C446 H436 0.950 . S
C446 C447 1.386 . S
C446 C448 1.391 1_556 S
C447 C446 1.386 . S
C447 C451 1.393 . S
C448 H437 0.950 . S
C448 C446 1.391 1_554 S
C448 C449 1.400 . S
C449 C443 1.491 . S
C449 C448 1.400 . S
C449 C450 1.398 1_554 S
C450 H438 0.950 . S
C450 C449 1.398 1_556 S
C450 C451 1.391 . S
C451 H439 0.950 . S
C451 C447 1.393 . S
C451 C450 1.391 . S
H452 C460 0.950 . S
H453 C465 0.950 . S
H454 C462 0.950 . S
H455 C464 0.950 . S
H456 C466 0.950 . S
H457 C468 0.950 . S
H458 C470 0.950 . S
H459 C471 0.950 . S
C460 H452 0.950 . S
C460 C461 1.374 1_655 S
C460 C462 1.391 . S
C461 C460 1.374 1_455 S
C461 C465 1.404 . S
C462 H454 0.950 . S
C462 C460 1.391 . S
C462 C463 1.401 . S
C463 C462 1.401 . S
C463 C464 1.397 1_655 S
C463 C469 1.490 . S
C464 H455 0.950 . S
C464 C463 1.397 1_455 S
C464 C465 1.391 . S
C465 H453 0.950 . S
C465 C461 1.404 . S
C465 C464 1.391 . S
C466 H456 0.950 . S
C466 C467 1.386 1_455 S
C466 C468 1.391 1_556 S
C467 C466 1.386 1_655 S
C467 C471 1.393 . S
C468 H457 0.950 . S
C468 C466 1.391 1_554 S
C468 C469 1.371 1_455 S
C469 C463 1.490 . S
C469 C468 1.371 1_655 S
C469 C470 1.429 1_554 S
C470 H458 0.950 . S
C470 C469 1.429 1_556 S
C470 C471 1.391 . S
C471 H459 0.950 . S
C471 C467 1.393 . S
C471 C470 1.391 . S
H472 C480 0.950 . S
H473 C485 0.950 . S
H474 C482 0.950 . S
H475 C484 0.950 . S
H476 C486 0.950 . S
H477 C488 0.950 . S
H478 C490 0.950 1_455 S
H479 C491 0.950 . S
C480 H472 0.950 . S
C480 C481 1.397 . S
C480 C482 1.391 . S
C481 C480 1.397 . S
C481 C485 1.377 1_455 S
C482 H474 0.950 . S
C482 C480 1.391 . S
C482 C483 1.400 1_455 S
C483 C482 1.400 1_655 S
C483 C484 1.398 . S
C483 C489 1.491 . S
C484 H475 0.950 . S
C484 C483 1.398 . S
C484 C485 1.391 . S
C485 H473 0.950 . S
C485 C481 1.377 1_655 S
C485 C484 1.391 . S
C486 H476 0.950 . S
C486 C487 1.386 . S
C486 C488 1.391 . S
C487 C486 1.386 . S
C487 C491 1.393 . S
C488 H477 0.950 . S
C488 C486 1.391 . S
C488 C489 1.400 . S
C489 C483 1.491 . S
C489 C488 1.400 . S
C489 C490 1.398 . S
C490 H478 0.950 1_655 S
C490 C489 1.398 . S
C490 C491 1.391 . S
C491 H479 0.950 . S
C491 C487 1.393 . S
C491 C490 1.391 . S
H492 C500 0.950 . S
H493 C505 0.950 . S
H494 C502 0.950 . S
H495 C504 0.950 . S
H496 C506 0.950 . S
H497 C508 0.950 . S
H498 C510 0.961 . S
H499 C511 0.950 . S
C500 H492 0.950 . S
C500 C501 1.386 . S
C500 C502 1.391 . S
C501 C500 1.386 . S
C501 C505 1.393 1_545 S
C502 H494 0.950 . S
C502 C500 1.391 . S
C502 C503 1.400 1_545 S
C503 C502 1.400 1_565 S
C503 C504 1.398 . S
C503 C509 1.491 . S
C504 H495 0.950 . S
C504 C503 1.398 . S
C504 C505 1.391 . S
C505 H493 0.950 . S
C505 C501 1.393 1_565 S
C505 C504 1.391 . S
C506 H496 0.950 . S
C506 C507 1.386 . S
C506 C508 1.391 . S
C507 C506 1.386 . S
C507 C511 1.393 . S
C508 H497 0.950 . S
C508 C506 1.391 . S
C508 C509 1.400 . S
C509 C503 1.491 . S
C509 C508 1.400 . S
C509 C510 1.398 . S
C510 H498 0.961 . S
C510 C509 1.398 . S
C510 C511 1.391 . S
C511 H499 0.950 . S
C511 C507 1.393 . S
C511 C510 1.391 . S
H512 C520 0.950 . S
H513 C525 0.950 . S
H514 C522 0.950 . S
H515 C524 0.950 . S
H516 C526 0.950 . S
H517 C528 0.950 . S
H518 C530 0.950 . S
H519 C531 0.950 . S
C520 H512 0.950 . S
C520 C521 1.386 . S
C520 C522 1.391 . S
C521 C520 1.386 . S
C521 C525 1.393 . S
C522 H514 0.950 . S
C522 C520 1.391 . S
C522 C523 1.400 . S
C523 C522 1.400 . S
C523 C524 1.398 . S
C523 C529 1.491 . S
C524 H515 0.950 . S
C524 C523 1.398 . S
C524 C525 1.391 . S
C525 H513 0.950 . S
C525 C521 1.393 . S
C525 C524 1.391 . S
C526 H516 0.950 . S
C526 C527 1.386 . S
C526 C528 1.391 . S
C527 C526 1.386 . S
C527 C531 1.393 . S
C528 H517 0.950 . S
C528 C526 1.391 . S
C528 C529 1.400 . S
C529 C523 1.491 . S
C529 C528 1.400 . S
C529 C530 1.398 . S
C530 H518 0.950 . S
C530 C529 1.398 . S
C530 C531 1.391 . S
C531 H519 0.950 . S
C531 C527 1.393 . S
C531 C530 1.391 . S
H532 C540 0.950 . S
H533 C545 0.950 . S
H534 C542 0.950 . S
H535 C544 0.950 . S
H536 C546 0.950 . S
H537 C548 0.950 . S
H538 C550 0.950 . S
H539 C551 0.950 . S
C540 H532 0.950 . S
C540 C541 1.386 . S
C540 C542 1.391 . S
C541 C540 1.386 . S
C541 C545 1.393 . S
C542 H534 0.950 . S
C542 C540 1.391 . S
C542 C543 1.400 . S
C543 C542 1.400 . S
C543 C544 1.398 . S
C543 C549 1.491 . S
C544 H535 0.950 . S
C544 C543 1.398 . S
C544 C545 1.391 . S
C545 H533 0.950 . S
C545 C541 1.393 . S
C545 C544 1.391 . S
C546 H536 0.950 . S
C546 C547 1.386 . S
C546 C548 1.391 . S
C547 C546 1.386 . S
C547 C551 1.393 . S
C548 H537 0.950 . S
C548 C546 1.391 . S
C548 C549 1.400 . S
C549 C543 1.491 . S
C549 C548 1.400 . S
C549 C550 1.398 . S
C550 H538 0.950 . S
C550 C549 1.398 . S
C550 C551 1.391 . S
C551 H539 0.950 . S
C551 C547 1.393 . S
C551 C550 1.391 . S
H552 C560 0.950 . S
H553 C565 0.950 . S
H554 C562 0.950 . S
H555 C564 0.950 . S
H556 C566 0.950 . S
H557 C568 0.950 . S
H558 C570 0.950 1_655 S
H559 C571 0.950 1_556 S
C560 H552 0.950 . S
C560 C561 1.386 . S
C560 C562 1.391 . S
C561 C560 1.386 . S
C561 C565 1.393 1_655 S
C562 H554 0.950 . S
C562 C560 1.391 . S
C562 C563 1.400 1_655 S
C563 C562 1.400 1_455 S
C563 C564 1.398 . S
C563 C569 1.491 . S
C564 H555 0.950 . S
C564 C563 1.398 . S
C564 C565 1.391 . S
C565 H553 0.950 . S
C565 C561 1.393 1_455 S
C565 C564 1.391 . S
C566 H556 0.950 . S
C566 C567 1.386 . S
C566 C568 1.391 . S
C567 C566 1.386 . S
C567 C571 1.393 . S
C568 H557 0.950 . S
C568 C566 1.391 . S
C568 C569 1.400 . S
C569 C563 1.491 . S
C569 C568 1.400 . S
C569 C570 1.398 . S
C570 H558 0.950 1_455 S
C570 C569 1.398 . S
C570 C571 1.391 . S
C571 H559 0.950 1_554 S
C571 C567 1.393 . S
C571 C570 1.391 . S
H572 C580 0.950 . S
H573 C585 0.950 . S
H574 C582 0.950 . S
H575 C584 0.950 . S
H576 C586 0.950 . S
H577 C588 0.950 1_565 S
H578 C590 0.950 . S
H579 C591 0.950 . S
C580 H572 0.950 . S
C580 C581 1.379 1_545 S
C580 C582 1.391 . S
C581 C580 1.379 1_565 S
C581 C585 1.397 . S
C582 H574 0.950 . S
C582 C580 1.391 . S
C582 C583 1.400 . S
C583 C582 1.400 . S
C583 C584 1.398 1_545 S
C583 C589 1.491 . S
C584 H575 0.950 . S
C584 C583 1.398 1_565 S
C584 C585 1.391 . S
C585 H573 0.950 . S
C585 C581 1.397 . S
C585 C584 1.391 . S
C586 H576 0.950 . S
C586 C587 1.386 . S
C586 C588 1.391 . S
C587 C586 1.386 . S
C587 C591 1.393 . S
C588 H577 0.950 1_545 S
C588 C586 1.391 . S
C588 C589 1.400 . S
C589 C583 1.491 . S
C589 C588 1.400 . S
C589 C590 1.398 . S
C590 H578 0.950 . S
C590 C589 1.398 . S
C590 C591 1.391 . S
C591 H579 0.950 . S
C591 C587 1.393 . S
C591 C590 1.391 . S
H592 C600 0.950 . S
H593 C605 0.950 . S
H594 C602 0.950 . S
H595 C604 0.950 . S
H596 C606 0.950 . S
H597 C608 0.950 . S
H598 C610 0.950 . S
H599 C611 0.950 . S
C600 H592 0.950 . S
C600 C601 1.386 . S
C600 C602 1.391 . S
C601 C600 1.386 . S
C601 C605 1.393 . S
C602 H594 0.950 . S
C602 C600 1.391 . S
C602 C603 1.400 . S
C603 C602 1.400 . S
C603 C604 1.398 . S
C603 C609 1.491 . S
C604 H595 0.950 . S
C604 C603 1.398 . S
C604 C605 1.391 . S
C605 H593 0.950 . S
C605 C601 1.393 . S
C605 C604 1.391 . S
C606 H596 0.950 . S
C606 C607 1.386 . S
C606 C608 1.391 . S
C607 C606 1.386 . S
C607 C611 1.393 . S
C608 H597 0.950 . S
C608 C606 1.391 . S
C608 C609 1.400 . S
C609 C603 1.491 . S
C609 C608 1.400 . S
C609 C610 1.398 . S
C610 H598 0.950 . S
C610 C609 1.398 . S
C610 C611 1.391 . S
C611 H599 0.950 . S
C611 C607 1.393 . S
C611 C610 1.391 . S
H612 C620 0.950 . S
H613 C625 0.950 . S
H614 C622 0.950 . S
H615 C624 0.950 . S
H616 C626 0.950 . S
H617 C628 0.950 . S
H618 C630 0.950 . S
H619 C631 0.950 1_556 S
C620 H612 0.950 . S
C620 C621 1.386 . S
C620 C622 1.391 . S
C621 C620 1.386 . S
C621 C625 1.393 . S
C622 H614 0.950 . S
C622 C620 1.391 . S
C622 C623 1.400 . S
C623 C622 1.400 . S
C623 C624 1.398 . S
C623 C629 1.491 . S
C624 H615 0.950 . S
C624 C623 1.398 . S
C624 C625 1.391 . S
C625 H613 0.950 . S
C625 C621 1.393 . S
C625 C624 1.391 . S
C626 H616 0.950 . S
C626 C627 1.386 . S
C626 C628 1.391 . S
C627 C626 1.386 . S
C627 C631 1.393 . S
C628 H617 0.950 . S
C628 C626 1.391 . S
C628 C629 1.400 . S
C629 C623 1.491 . S
C629 C628 1.400 . S
C629 C630 1.398 . S
C630 H618 0.950 . S
C630 C629 1.398 . S
C630 C631 1.391 . S
C631 H619 0.950 1_554 S
C631 C627 1.393 . S
C631 C630 1.391 . S
H632 C640 0.950 . S
H633 C645 0.950 . S
H634 C642 0.950 . S
H635 C644 0.950 . S
H636 C646 0.950 . S
H637 C648 0.950 . S
H638 C650 0.950 . S
H639 C651 0.950 . S
C640 H632 0.950 . S
C640 C641 1.367 1_655 S
C640 C642 1.391 . S
C641 C640 1.367 1_455 S
C641 C645 1.413 . S
C642 H634 0.950 . S
C642 C640 1.391 . S
C642 C643 1.400 1_655 S
C643 C642 1.400 1_455 S
C643 C644 1.398 . S
C643 C649 1.491 . S
C644 H635 0.950 . S
C644 C643 1.398 . S
C644 C645 1.391 . S
C645 H633 0.950 . S
C645 C641 1.413 . S
C645 C644 1.391 . S
C646 H636 0.950 . S
C646 C647 1.386 . S
C646 C648 1.391 . S
C647 C646 1.386 . S
C647 C651 1.393 1_455 S
C648 H637 0.950 . S
C648 C646 1.391 . S
C648 C649 1.400 . S
C649 C643 1.491 . S
C649 C648 1.400 . S
C649 C650 1.398 1_455 S
C650 H638 0.950 . S
C650 C649 1.398 1_655 S
C650 C651 1.391 . S
C651 H639 0.950 . S
C651 C647 1.393 1_655 S
C651 C650 1.391 . S
H652 C660 0.950 . S
H653 C665 0.950 . S
H654 C662 0.950 . S
H655 C664 0.950 . S
H656 C666 0.950 . S
H657 C668 0.950 . S
H658 C670 0.950 . S
H659 C671 0.950 . S
C660 H652 0.950 . S
C660 C661 1.386 1_565 S
C660 C662 1.391 . S
C661 C660 1.386 1_545 S
C661 C665 1.393 . S
C662 H654 0.950 . S
C662 C660 1.391 . S
C662 C663 1.400 1_565 S
C663 C662 1.400 1_545 S
C663 C664 1.398 . S
C663 C669 1.491 . S
C664 H655 0.950 . S
C664 C663 1.398 . S
C664 C665 1.391 . S
C665 H653 0.950 . S
C665 C661 1.393 . S
C665 C664 1.391 . S
C666 H656 0.950 . S
C666 C667 1.386 . S
C666 C668 1.391 . S
C667 C666 1.386 . S
C667 C671 1.393 1_545 S
C668 H657 0.950 . S
C668 C666 1.391 . S
C668 C669 1.400 . S
C669 C663 1.491 . S
C669 C668 1.400 . S
C669 C670 1.398 1_545 S
C670 H658 0.950 . S
C670 C669 1.398 1_565 S
C670 C671 1.391 . S
C671 H659 0.950 . S
C671 C667 1.393 1_565 S
C671 C670 1.391 . S
H672 C680 0.950 . S
H673 C685 0.950 . S
H674 C682 0.950 . S
H675 C684 0.950 . S
H676 C686 0.950 . S
H677 C688 0.950 . S
H678 C690 0.950 . S
H679 C691 0.950 . S
C680 H672 0.950 . S
C680 C681 1.386 . S
C680 C682 1.391 . S
C681 C680 1.386 . S
C681 C685 1.393 . S
C682 H674 0.950 . S
C682 C680 1.391 . S
C682 C683 1.400 . S
C683 C682 1.400 . S
C683 C684 1.398 . S
C683 C689 1.491 . S
C684 H675 0.950 . S
C684 C683 1.398 . S
C684 C685 1.391 . S
C685 H673 0.950 . S
C685 C681 1.393 . S
C685 C684 1.391 . S
C686 H676 0.950 . S
C686 C687 1.386 . S
C686 C688 1.391 . S
C687 C686 1.386 . S
C687 C691 1.393 . S
C688 H677 0.950 . S
C688 C686 1.391 . S
C688 C689 1.400 . S
C689 C683 1.491 . S
C689 C688 1.400 . S
C689 C690 1.398 . S
C690 H678 0.950 . S
C690 C689 1.398 . S
C690 C691 1.391 . S
C691 H679 0.950 . S
C691 C687 1.393 . S
C691 C690 1.391 . S
H692 C700 0.950 . S
H693 C705 0.950 . S
H694 C702 0.950 . S
H695 C704 0.950 . S
H696 C706 0.950 . S
H697 C708 0.950 . S
H698 C710 0.950 . S
H699 C711 0.950 . S
C700 H692 0.950 . S
C700 C701 1.386 . S
C700 C702 1.391 . S
C701 C700 1.386 . S
C701 C705 1.393 . S
C702 H694 0.950 . S
C702 C700 1.391 . S
C702 C703 1.400 . S
C703 C702 1.400 . S
C703 C704 1.398 . S
C703 C709 1.491 . S
C704 H695 0.950 . S
C704 C703 1.398 . S
C704 C705 1.391 . S
C705 H693 0.950 . S
C705 C701 1.393 . S
C705 C704 1.391 . S
C706 H696 0.950 . S
C706 C707 1.386 . S
C706 C708 1.391 . S
C707 C706 1.386 . S
C707 C711 1.393 . S
C708 H697 0.950 . S
C708 C706 1.391 . S
C708 C709 1.400 . S
C709 C703 1.491 . S
C709 C708 1.400 . S
C709 C710 1.398 . S
C710 H698 0.950 . S
C710 C709 1.398 . S
C710 C711 1.391 . S
C711 H699 0.950 . S
C711 C707 1.393 . S
C711 C710 1.391 . S
H712 C720 0.950 . S
H713 C725 0.950 . S
H714 C722 0.950 . S
H715 C724 0.950 . S
H716 C726 0.950 . S
H717 C728 0.950 . S
H718 C730 0.950 . S
H719 C731 0.950 . S
C720 H712 0.950 . S
C720 C721 1.386 . S
C720 C722 1.391 . S
C721 C720 1.386 . S
C721 C725 1.393 1_655 S
C722 H714 0.950 . S
C722 C720 1.391 . S
C722 C723 1.400 . S
C723 C722 1.400 . S
C723 C724 1.398 1_655 S
C723 C729 1.491 . S
C724 H715 0.950 . S
C724 C723 1.398 1_455 S
C724 C725 1.391 . S
C725 H713 0.950 . S
C725 C721 1.393 1_455 S
C725 C724 1.391 . S
C726 H716 0.950 . S
C726 C727 1.386 1_455 S
C726 C728 1.391 . S
C727 C726 1.386 1_655 S
C727 C731 1.393 . S
C728 H717 0.950 . S
C728 C726 1.391 . S
C728 C729 1.400 1_455 S
C729 C723 1.491 . S
C729 C728 1.400 1_655 S
C729 C730 1.398 . S
C730 H718 0.950 . S
C730 C729 1.398 . S
C730 C731 1.391 . S
C731 H719 0.950 . S
C731 C727 1.393 . S
C731 C730 1.391 . S
H732 C740 0.950 . S
H733 C745 0.950 . S
H734 C742 0.950 . S
H735 C744 0.950 . S
H736 C746 0.950 . S
H737 C748 0.950 . S
H738 C750 0.950 . S
H739 C751 0.950 . S
C740 H732 0.950 . S
C740 C741 1.386 1_545 S
C740 C742 1.391 . S
C741 C740 1.386 1_565 S
C741 C745 1.393 . S
C742 H734 0.950 . S
C742 C740 1.391 . S
C742 C743 1.400 1_545 S
C743 C742 1.400 1_565 S
C743 C744 1.398 . S
C743 C749 1.491 . S
C744 H735 0.950 . S
C744 C743 1.398 . S
C744 C745 1.391 . S
C745 H733 0.950 . S
C745 C741 1.393 . S
C745 C744 1.391 . S
C746 H736 0.950 . S
C746 C747 1.386 . S
C746 C748 1.391 . S
C747 C746 1.386 . S
C747 C751 1.393 1_565 S
C748 H737 0.950 . S
C748 C746 1.391 . S
C748 C749 1.400 . S
C749 C743 1.491 . S
C749 C748 1.400 . S
C749 C750 1.398 1_565 S
C750 H738 0.950 . S
C750 C749 1.398 1_545 S
C750 C751 1.391 . S
C751 H739 0.950 . S
C751 C747 1.393 1_545 S
C751 C750 1.391 . S
H752 C760 0.950 . S
H753 C765 0.950 . S
H754 C762 0.950 . S
H755 C764 0.950 . S
H756 C766 0.950 . S
H757 C768 0.950 . S
H758 C770 0.950 . S
H759 C771 0.950 . S
C760 H752 0.950 . S
C760 C761 1.386 . S
C760 C762 1.391 . S
C761 C760 1.386 . S
C761 C765 1.393 . S
C762 H754 0.950 . S
C762 C760 1.391 . S
C762 C763 1.400 . S
C763 C762 1.400 . S
C763 C764 1.398 . S
C763 C769 1.491 . S
C764 H755 0.950 . S
C764 C763 1.398 . S
C764 C765 1.391 . S
C765 H753 0.950 . S
C765 C761 1.393 . S
C765 C764 1.391 . S
C766 H756 0.950 . S
C766 C767 1.386 . S
C766 C768 1.391 . S
C767 C766 1.386 . S
C767 C771 1.393 . S
C768 H757 0.950 . S
C768 C766 1.391 . S
C768 C769 1.400 . S
C769 C763 1.491 . S
C769 C768 1.400 . S
C769 C770 1.398 . S
C770 H758 0.950 . S
C770 C769 1.398 . S
C770 C771 1.391 . S
C771 H759 0.950 . S
C771 C767 1.393 . S
C771 C770 1.391 . S
H772 C780 0.950 . S
H773 C785 0.950 . S
H774 C782 0.950 . S
H775 C784 0.950 . S
H776 C786 0.950 . S
H777 C788 0.950 . S
H778 C790 0.950 . S
H779 C791 0.950 . S
C780 H772 0.950 . S
C780 C781 1.386 . S
C780 C782 1.391 . S
C781 C780 1.386 . S
C781 C785 1.393 . S
C782 H774 0.950 . S
C782 C780 1.391 . S
C782 C783 1.400 . S
C783 C782 1.400 . S
C783 C784 1.398 . S
C783 C789 1.491 . S
C784 H775 0.950 . S
C784 C783 1.398 . S
C784 C785 1.391 . S
C785 H773 0.950 . S
C785 C781 1.393 . S
C785 C784 1.391 . S
C786 H776 0.950 . S
C786 C787 1.386 . S
C786 C788 1.391 . S
C787 C786 1.386 . S
C787 C791 1.393 . S
C788 H777 0.950 . S
C788 C786 1.391 . S
C788 C789 1.400 . S
C789 C783 1.491 . S
C789 C788 1.400 . S
C789 C790 1.398 . S
C790 H778 0.950 . S
C790 C789 1.398 . S
C790 C791 1.391 . S
C791 H779 0.950 . S
C791 C787 1.393 . S
C791 C790 1.391 . S
C321 C125 1.896 1_545 S
C327 C161 1.936 . S
C347 C201 1.953 . S
C341 C144 1.916 . S
C367 C241 1.961 . S
C361 C87 1.917 . S
C387 C281 1.943 1_455 S
C381 C106 1.902 1_455 S
C407 C170 1.938 1_565 S
C401 C49 1.903 1_545 S
C421 C68 1.892 . S
C427 C210 1.951 . S
C441 C11 1.916 . S
C447 C250 1.961 . S
C461 C30 1.906 1_455 S
C467 C290 1.949 1_655 S
C487 C167 0.486 . S
C481 C97 0.556 . S
C507 C207 0.538 . S
C501 C116 0.588 . S
C527 C247 0.530 . S
C521 C135 0.536 . S
C541 C78 0.551 . S
C547 C287 0.528 . S
C561 C21 0.532 . S
C567 C158 0.519 . S
C587 C198 0.503 . S
C581 C40 0.573 . S
C607 C238 0.547 . S
C601 C59 0.593 . S
C621 C2 0.543 . S
C627 C278 0.535 . S
C641 C101 2.084 1_455 S
C647 C171 2.288 . S
C661 C120 2.063 1_545 S
C667 C211 2.261 . S
C687 C251 2.245 . S
C681 C139 2.047 . S
C707 C291 2.279 . S
C701 C82 2.047 . S
C721 C25 2.089 . S
C727 C162 2.298 . S
C747 C202 2.257 . S
C741 C44 2.036 . S
C767 C242 2.250 . S
C761 C63 2.020 . S
C781 C6 2.068 . S
C787 C282 2.277 . S
