# Generated by pormake.
# Topology zzz, (3,6)-cn, num edge types: 1
# Building blocks:
#     Node 0, Type 0, BuildingBlock: MIDCAF_clean_linker_0, # of connection points: 3
#     Node 1, Type 0, BuildingBlock: MIDCAF_clean_linker_0, # of connection points: 3
#     Node 2, Type 0, BuildingBlock: MIDCAF_clean_linker_0, # of connection points: 3
#     Node 3, Type 0, BuildingBlock: MIDCAF_clean_linker_0, # of connection points: 3
#     Node 4, Type 0, BuildingBlock: MIDCAF_clean_linker_0, # of connection points: 3
#     Node 5, Type 0, BuildingBlock: MIDCAF_clean_linker_0, # of connection points: 3
#     Node 6, Type 0, BuildingBlock: MIDCAF_clean_linker_0, # of connection points: 3
#     Node 7, Type 0, BuildingBlock: MIDCAF_clean_linker_0, # of connection points: 3
#     Node 8, Type 1, BuildingBlock: PAMTOO_clean_sbu_0, # of connection points: 6
#     Node 9, Type 1, BuildingBlock: PAMTOO_clean_sbu_0, # of connection points: 6
#     Node 10, Type 1, BuildingBlock: PAMTOO_clean_sbu_0, # of connection points: 6
#     Node 11, Type 1, BuildingBlock: PAMTOO_clean_sbu_0, # of connection points: 6
#     Edge 12, Type (0, 1), BuildingBlock: TEMPAE_clean_linker_10, # of connection points: 2
#     Edge 13, Type (0, 1), BuildingBlock: TEMPAE_clean_linker_10, # of connection points: 2
#     Edge 14, Type (0, 1), BuildingBlock: TEMPAE_clean_linker_10, # of connection points: 2
#     Edge 15, Type (0, 1), BuildingBlock: TEMPAE_clean_linker_10, # of connection points: 2
#     Edge 16, Type (0, 1), BuildingBlock: TEMPAE_clean_linker_10, # of connection points: 2
#     Edge 17, Type (0, 1), BuildingBlock: TEMPAE_clean_linker_10, # of connection points: 2
#     Edge 18, Type (0, 1), BuildingBlock: TEMPAE_clean_linker_10, # of connection points: 2
#     Edge 19, Type (0, 1), BuildingBlock: TEMPAE_clean_linker_10, # of connection points: 2
#     Edge 20, Type (0, 1), BuildingBlock: TEMPAE_clean_linker_10, # of connection points: 2
#     Edge 21, Type (0, 1), BuildingBlock: TEMPAE_clean_linker_10, # of connection points: 2
#     Edge 22, Type (0, 1), BuildingBlock: TEMPAE_clean_linker_10, # of connection points: 2
#     Edge 23, Type (0, 1), BuildingBlock: TEMPAE_clean_linker_10, # of connection points: 2
#     Edge 24, Type (0, 1), BuildingBlock: TEMPAE_clean_linker_10, # of connection points: 2
#     Edge 25, Type (0, 1), BuildingBlock: TEMPAE_clean_linker_10, # of connection points: 2
#     Edge 26, Type (0, 1), BuildingBlock: TEMPAE_clean_linker_10, # of connection points: 2
#     Edge 27, Type (0, 1), BuildingBlock: TEMPAE_clean_linker_10, # of connection points: 2
#     Edge 28, Type (0, 1), BuildingBlock: TEMPAE_clean_linker_10, # of connection points: 2
#     Edge 29, Type (0, 1), BuildingBlock: TEMPAE_clean_linker_10, # of connection points: 2
#     Edge 30, Type (0, 1), BuildingBlock: TEMPAE_clean_linker_10, # of connection points: 2
#     Edge 31, Type (0, 1), BuildingBlock: TEMPAE_clean_linker_10, # of connection points: 2
#     Edge 32, Type (0, 1), BuildingBlock: TEMPAE_clean_linker_10, # of connection points: 2
#     Edge 33, Type (0, 1), BuildingBlock: TEMPAE_clean_linker_10, # of connection points: 2
#     Edge 34, Type (0, 1), BuildingBlock: TEMPAE_clean_linker_10, # of connection points: 2
#     Edge 35, Type (0, 1), BuildingBlock: TEMPAE_clean_linker_10, # of connection points: 2
# Relax obj value: 0.350
# Max RMSD: 0.278
# Mean RMSD: 0.220
data_MOF--net-zzz--node1-PAMTOO_clean_sbu_0--node2-MIDCAF_clean_linker_0--edge1-TEMPAE_clean_linker_10
_symmetry_space_group_name_H-M    P1
_symmetry_Int_Tables_number       1
_symmetry_cell_setting            triclinic
loop_
_symmetry_equiv_pos_as_xyz
'x, y, z'
_cell_length_a     64.861709
_cell_length_b     56.012323
_cell_length_c     21.138935
_cell_angle_alpha  91.238833
_cell_angle_beta   81.798621
_cell_angle_gamma 84.624041
loop_
_atom_site_label
_atom_site_type_symbol
_atom_site_fract_x
_atom_site_fract_y
_atom_site_fract_z
_atom_type_partial_charge
C0 C 0.82622 0.53675 0.53587 0.0
C1 C 0.84257 0.51802 0.53039 0.0
C2 C 0.84084 0.49741 0.49329 0.0
C3 C 0.8242 0.49624 0.45856 0.0
H4 H 0.73115 0.49799 0.41863 0.0
H5 H 0.69656 0.50065 0.38405 0.0
H6 H 0.70993 0.56592 0.28787 0.0
H7 H 0.7441 0.56328 0.32355 0.0
H8 H 0.77441 0.49562 0.19636 0.0
H9 H 0.79189 0.47997 0.09122 0.0
H10 H 0.85193 0.48357 0.15487 0.0
H11 H 0.83476 0.49915 0.25894 0.0
H12 H 0.79781 0.55091 0.50197 0.0
H13 H 0.82709 0.55286 0.56424 0.0
H14 H 0.85289 0.48245 0.48906 0.0
H15 H 0.82407 0.48052 0.42786 0.0
N16 N 0.77408 0.52404 0.41914 0.0
N17 N 0.77239 0.51542 0.31028 0.0
N18 N 0.80405 0.50802 0.34956 0.0
C19 C 0.76282 0.52359 0.36899 0.0
C20 C 0.79295 0.50765 0.30011 0.0
C21 C 0.79498 0.51611 0.40893 0.0
C22 C 0.74012 0.53071 0.37494 0.0
C23 C 0.72612 0.51362 0.39335 0.0
C24 C 0.70649 0.5149 0.37224 0.0
C25 C 0.70052 0.53326 0.33198 0.0
C26 C 0.71378 0.55161 0.31909 0.0
C27 C 0.73337 0.55026 0.34006 0.0
C28 C 0.80321 0.49864 0.23605 0.0
C29 C 0.79135 0.4932 0.1877 0.0
C30 C 0.80128 0.48418 0.12768 0.0
C31 C 0.8232 0.48083 0.11492 0.0
C32 C 0.83499 0.48639 0.16313 0.0
C33 C 0.82513 0.49514 0.22298 0.0
C34 C 0.80868 0.51562 0.45976 0.0
C35 C 0.80938 0.53559 0.50064 0.0
C36 C 0.97368 0.77446 0.55145 0.0
C37 C 0.99139 0.78643 0.52983 0.0
C38 C 1.00372 0.77839 0.47159 0.0
C39 C 0.99735 0.76056 0.43325 0.0
H40 H 0.93266 0.683 0.29383 0.0
H41 H 0.93911 0.64685 0.22511 0.0
H42 H 1.00553 0.64661 0.23006 0.0
H43 H 0.99877 0.68231 0.3017 0.0
H44 H 0.93518 0.74459 0.20348 0.0
H45 H 0.93169 0.77666 0.12859 0.0
H46 H 0.93373 0.82905 0.28024 0.0
H47 H 0.93628 0.79735 0.35501 0.0
H48 H 0.95244 0.74964 0.52775 0.0
H49 H 0.96403 0.77977 0.59658 0.0
H50 H 0.01733 0.78723 0.45285 0.0
H51 H 0.00602 0.75643 0.38595 0.0
N52 N 0.9712 0.71734 0.38044 0.0
N53 N 0.94912 0.72643 0.30298 0.0
N54 N 0.95536 0.75653 0.37374 0.0
C55 C 0.96137 0.7101 0.33128 0.0
C56 C 0.9461 0.74972 0.32373 0.0
C57 C 0.96766 0.74064 0.40261 0.0
C58 C 0.96522 0.68545 0.30286 0.0
C59 C 0.94858 0.67479 0.28165 0.0
C60 C 0.95233 0.65422 0.24163 0.0
C61 C 0.9729 0.64408 0.22048 0.0
C62 C 0.98947 0.65382 0.24542 0.0
C63 C 0.98564 0.67427 0.28659 0.0
C64 C 0.93685 0.76837 0.28472 0.0
C65 C 0.93405 0.76301 0.22138 0.0
C66 C 0.93218 0.7814 0.17825 0.0
C67 C 0.93319 0.8054 0.19773 0.0
C68 C 0.93301 0.81083 0.26309 0.0
C69 C 0.9347 0.79252 0.30616 0.0
C70 C 0.97859 0.75039 0.45229 0.0
C71 C 0.96723 0.75682 0.51272 0.0
C72 C 0.71853 0.96625 0.40923 0.0
C73 C 0.70603 0.98766 0.43032 0.0
C74 C 0.71327 0.00957 0.41037 0.0
C75 C 0.73142 0.01 0.36596 0.0
H76 H 0.81723 0.01043 0.24788 0.0
H77 H 0.85392 0.00982 0.19771 0.0
H78 H 0.84516 0.95129 0.07104 0.0
H79 H 0.80874 0.95219 0.12059 0.0
H80 H 0.76875 0.0149 0.05227 0.0
H81 H 0.74729 0.0286 0.97081 0.0
H82 H 0.69287 0.00458 0.08448 0.0
H83 H 0.71399 0.991 0.16495 0.0
H84 H 0.74491 0.9499 0.34422 0.0
H85 H 0.71338 0.94905 0.42337 0.0
H86 H 0.70422 0.02641 0.42633 0.0
H87 H 0.73551 0.02708 0.34731 0.0
N88 N 0.77696 0.98466 0.26596 0.0
N89 N 0.77621 0.99101 0.15616 0.0
N90 N 0.74505 0.99446 0.2275 0.0
C91 C 0.78726 0.98556 0.20484 0.0
C92 C 0.75513 0.99549 0.16724 0.0
C93 C 0.75562 0.98907 0.27689 0.0
C94 C 0.81028 0.98113 0.18868 0.0
C95 C 0.82345 0.9969 0.21096 0.0
C96 C 0.84435 0.99674 0.18161 0.0
C97 C 0.85248 0.98058 0.13006 0.0
C98 C 0.83955 0.9638 0.11093 0.0
C99 C 0.81868 0.96426 0.13943 0.0
C100 C 0.74301 0.00198 0.11508 0.0
C101 C 0.75225 0.01229 0.05922 0.0
C102 C 0.74002 0.02021 0.01286 0.0
C103 C 0.7185 0.0175 0.0213 0.0
C104 C 0.70949 0.00658 0.07627 0.0
C105 C 0.72157 0.99898 0.12266 0.0
C106 C 0.74292 0.98858 0.34066 0.0
C107 C 0.73675 0.96671 0.36445 0.0
C108 C 0.46027 0.68479 0.18433 0.0
C109 C 0.45588 0.68886 0.12202 0.0
C110 C 0.45871 0.71149 0.09632 0.0
C111 C 0.46758 0.72878 0.12971 0.0
H112 H 0.5108 0.77763 0.08466 0.0
H113 H 0.51999 0.81247 0.0245 0.0
H114 H 0.53176 0.84812 0.19704 0.0
H115 H 0.52254 0.81279 0.25807 0.0
H116 H 0.48494 0.73762 0.41304 0.0
H117 H 0.49598 0.71028 0.49255 0.0
H118 H 0.55924 0.70428 0.39258 0.0
H119 H 0.54802 0.73207 0.31298 0.0
H120 H 0.47313 0.69772 0.26434 0.0
H121 H 0.45849 0.66756 0.20564 0.0
H122 H 0.45507 0.71542 0.04898 0.0
H123 H 0.47062 0.7455 0.107 0.0
N124 N 0.49418 0.75883 0.18857 0.0
N125 N 0.51507 0.76545 0.26851 0.0
N126 N 0.49348 0.73387 0.27561 0.0
C127 C 0.50813 0.7719 0.21265 0.0
C128 C 0.50752 0.74644 0.30028 0.0
C129 C 0.48674 0.73983 0.21981 0.0
C130 C 0.51582 0.79247 0.17631 0.0
C131 C 0.51553 0.79275 0.10994 0.0
C132 C 0.52098 0.81268 0.07523 0.0
C133 C 0.52665 0.83304 0.10593 0.0
C134 C 0.5274 0.83268 0.17215 0.0
C135 C 0.52224 0.81244 0.20696 0.0
C136 C 0.51567 0.73709 0.35742 0.0
C137 C 0.50138 0.73131 0.40978 0.0
C138 C 0.50773 0.7156 0.45523 0.0
C139 C 0.52846 0.70494 0.4486 0.0
C140 C 0.54314 0.71213 0.39873 0.0
C141 C 0.53681 0.72825 0.35368 0.0
C142 C 0.47362 0.72385 0.18975 0.0
C143 C 0.46893 0.70211 0.21788 0.0
C144 C 0.19899 0.49966 0.98646 0.0
C145 C 0.20175 0.49321 0.92086 0.0
C146 C 0.2216 0.48264 0.89223 0.0
C147 C 0.2378 0.47745 0.92911 0.0
H148 H 0.31338 0.43963 0.10706 0.0
H149 H 0.34219 0.4514 0.15924 0.0
H150 H 0.31756 0.5257 0.15786 0.0
H151 H 0.28858 0.51371 0.1049 0.0
H152 H 0.2644 0.42993 0.23424 0.0
H153 H 0.24153 0.42429 0.33334 0.0
H154 H 0.1888 0.42502 0.22918 0.0
H155 H 0.21157 0.42976 0.13056 0.0
H156 H 0.2119 0.49813 0.07421 0.0
H157 H 0.18395 0.50743 0.01072 0.0
H158 H 0.22439 0.47762 0.84176 0.0
H159 H 0.25242 0.46792 0.9068 0.0
N160 N 0.26761 0.47807 0.04344 0.0
N161 N 0.27014 0.45121 0.12695 0.0
N162 N 0.24002 0.45484 0.07816 0.0
C163 C 0.27876 0.46764 0.08771 0.0
C164 C 0.25078 0.44471 0.12269 0.0
C165 C 0.24826 0.47113 0.03793 0.0
C166 C 0.29884 0.47576 0.10132 0.0
C167 C 0.31454 0.45857 0.11576 0.0
C168 C 0.33105 0.46534 0.14584 0.0
C169 C 0.33215 0.4895 0.16332 0.0
C170 C 0.31709 0.50691 0.14549 0.0
C171 C 0.30067 0.50012 0.11434 0.0
C172 C 0.23959 0.43161 0.17501 0.0
C173 C 0.24809 0.42783 0.23201 0.0
C174 C 0.23496 0.42462 0.28899 0.0
C175 C 0.2132 0.42534 0.28968 0.0
C176 C 0.20542 0.42473 0.23091 0.0
C177 C 0.21853 0.42775 0.17401 0.0
C178 C 0.23443 0.48272 0.99522 0.0
C179 C 0.21506 0.49439 0.02304 0.0
C180 C 0.02137 0.22815 0.93643 0.0
C181 C 0.03568 0.2092 0.95003 0.0
C182 C 0.04749 0.21251 0.99992 0.0
C183 C 0.04401 0.23369 0.03812 0.0
H184 H 1.00481 0.34963 0.147 0.0
H185 H 0.01455 0.38289 0.20918 0.0
H186 H 0.06716 0.33751 0.25803 0.0
H187 H 0.05765 0.30443 0.19341 0.0
H188 H 0.97976 0.29566 0.29094 0.0
H189 H 0.95924 0.27482 0.37413 0.0
H190 H 0.94814 0.2225 0.2329 0.0
H191 H 0.96832 0.24335 0.14976 0.0
H192 H 1.00527 0.26258 0.96724 0.0
H193 H 0.01189 0.22606 0.89879 0.0
H194 H 0.05868 0.19824 0.01134 0.0
H195 H 0.05218 0.23507 0.07912 0.0
N196 N 0.02964 0.28862 0.09464 0.0
N197 N 1.00293 0.29832 0.18172 0.0
N198 N 1.00181 0.2645 0.11638 0.0
C199 C 0.02084 0.3035 0.14533 0.0
C200 C 0.99336 0.27879 0.16783 0.0
C201 C 0.01971 0.26928 0.07949 0.0
C202 C 0.03061 0.32463 0.16501 0.0
C203 C 0.01895 0.34712 0.16887 0.0
C204 C 0.02439 0.36604 0.20524 0.0
C205 C 0.04135 0.36273 0.2399 0.0
C206 C 0.05404 0.34073 0.23182 0.0
C207 C 0.04869 0.3218 0.1946 0.0
C208 C 0.97622 0.27074 0.21393 0.0
C209 C 0.97235 0.2802 0.27718 0.0
C210 C 0.96062 0.26825 0.32498 0.0
C211 C 0.95245 0.24678 0.31025 0.0
C212 C 0.9542 0.23902 0.24588 0.0
C213 C 0.96598 0.25087 0.19818 0.0
C214 C 0.02856 0.25179 0.0274 0.0
C215 C 0.01767 0.24913 0.97527 0.0
C216 C 0.33118 0.97598 0.06484 0.0
C217 C 0.3295 0.99301 0.01749 0.0
C218 C 0.31093 0.0088 0.02298 0.0
C219 C 0.295 0.00811 0.07578 0.0
H220 H 0.21884 0.98435 0.19617 0.0
H221 H 0.18149 0.98859 0.24091 0.0
H222 H 0.19449 0.03681 0.38956 0.0
H223 H 0.23106 0.03312 0.34377 0.0
H224 H 0.26293 0.97064 0.41127 0.0
H225 H 0.28063 0.95767 0.50174 0.0
H226 H 0.33892 0.97789 0.40228 0.0
H227 H 0.32154 0.99039 0.31207 0.0
H228 H 0.31785 0.96232 0.15306 0.0
H229 H 0.34519 0.96376 0.06371 0.0
H230 H 0.30888 0.02202 0.98722 0.0
H231 H 0.28137 0.02111 0.08012 0.0
N232 N 0.26223 1.0002 0.19371 0.0
N233 N 0.26007 0.99495 0.3049 0.0
N234 N 0.2922 0.98728 0.23954 0.0
C235 C 0.25062 0.0011 0.25349 0.0
C236 C 0.28078 0.98806 0.29837 0.0
C237 C 0.2833 0.99316 0.18691 0.0
C238 C 0.22782 0.00855 0.26619 0.0
C239 C 0.21343 0.99661 0.2367 0.0
C240 C 0.1921 0.99874 0.26319 0.0
C241 C 0.1848 0.01286 0.31959 0.0
C242 C 0.19917 0.02603 0.34587 0.0
C243 C 0.22028 0.0239 0.31957 0.0
C244 C 0.29091 0.98142 0.35456 0.0
C245 C 0.27948 0.9725 0.40916 0.0
C246 C 0.28954 0.96508 0.46077 0.0
C247 C 0.31101 0.96707 0.45902 0.0
C248 C 0.32225 0.97654 0.40513 0.0
C249 C 0.31235 0.98348 0.35328 0.0
C250 C 0.29738 0.99173 0.12431 0.0
C251 C 0.31543 0.9753 0.11692 0.0
C252 C 0.49414 0.33801 0.41318 0.0
C253 C 0.51091 0.33354 0.44786 0.0
C254 C 0.52221 0.31076 0.44262 0.0
C255 C 0.5172 0.29296 0.40158 0.0
H256 H 0.52758 0.22019 0.34179 0.0
H257 H 0.52976 0.17935 0.37704 0.0
H258 H 0.48403 0.16229 0.25741 0.0
H259 H 0.48154 0.20393 0.22269 0.0
H260 H 0.51039 0.26666 0.08825 0.0
H261 H 0.50997 0.29577 0.0033 0.0
H262 H 0.45858 0.3384 0.11872 0.0
H263 H 0.45868 0.3091 0.20115 0.0
H264 H 0.47684 0.3247 0.34353 0.0
H265 H 0.4853 0.3555 0.41607 0.0
H266 H 0.53516 0.30694 0.46918 0.0
H267 H 0.52655 0.27577 0.39669 0.0
N268 N 0.50245 0.25696 0.31829 0.0
N269 N 0.49401 0.25014 0.2149 0.0
N270 N 0.49133 0.28927 0.25982 0.0
C271 C 0.50028 0.24142 0.26984 0.0
C272 C 0.4895 0.27431 0.21022 0.0
C273 C 0.49785 0.28084 0.31366 0.0
C274 C 0.50426 0.21537 0.27978 0.0
C275 C 0.51822 0.20768 0.32198 0.0
C276 C 0.5196 0.18411 0.3419 0.0
C277 C 0.50703 0.16744 0.32032 0.0
C278 C 0.49379 0.17474 0.27542 0.0
C279 C 0.49252 0.19849 0.25499 0.0
C280 C 0.48454 0.28563 0.15109 0.0
C281 C 0.49837 0.28164 0.09364 0.0
C282 C 0.49837 0.29861 0.04564 0.0
C283 C 0.48454 0.31982 0.05447 0.0
C284 C 0.46939 0.32236 0.10947 0.0
C285 C 0.46939 0.30548 0.157 0.0
C286 C 0.50113 0.29794 0.36431 0.0
C287 C 0.48938 0.32044 0.37147 0.0
Dy288 Dy 1.00207 0.00866 0.67459 0.0
Dy289 Dy 0.03311 0.98937 0.77444 0.0
C290 C 0.05218 0.00239 0.63176 0.0
O291 O 0.01068 0.96991 0.64674 0.0
O292 O 0.01776 0.9576 0.74436 0.0
O293 O 0.99489 0.01662 0.57983 0.0
O294 O 0.97096 0.02293 0.66247 0.0
O295 O 1.00149 0.99959 0.83144 0.0
O296 O 0.98229 0.99151 0.7532 0.0
O297 O 0.0387 0.02778 0.76191 0.0
O298 O 0.00646 0.04043 0.73632 0.0
O299 O 0.04547 0.99418 0.86306 0.0
O300 O 0.05429 0.96138 0.8056 0.0
C301 C 0.01356 0.95274 0.68679 0.0
O302 O 0.03419 0.01452 0.62568 0.0
O303 O 0.05442 0.98896 0.68118 0.0
C304 C 0.96944 0.04945 0.5784 0.0
C305 C 0.95687 0.09453 0.53295 0.0
C306 C 0.96414 0.09285 0.59236 0.0
C307 C 0.9705 0.07047 0.61478 0.0
C308 C 0.96198 0.05106 0.51952 0.0
C309 C 0.95579 0.07344 0.49681 0.0
C310 C 0.97591 0.02579 0.60141 0.0
C311 C 0.98375 0.99447 0.81403 0.0
C312 C 0.02392 0.04502 0.75704 0.0
C313 C 0.04302 0.95736 0.91476 0.0
C314 C 0.01746 0.92627 0.98413 0.0
C315 C 0.01099 0.95081 0.98448 0.0
C316 C 0.02376 0.96629 0.95072 0.0
C317 C 0.05018 0.93306 0.91875 0.0
C318 C 0.03749 0.9176 0.95358 0.0
C319 C 0.05263 0.97158 0.86247 0.0
H320 H 0.96541 0.10886 0.62066 0.0
H321 H 0.97634 0.06958 0.6603 0.0
H322 H 0.96102 0.035 0.49098 0.0
H323 H 0.95018 0.07428 0.45096 0.0
H324 H 0.99564 0.95778 0.00835 0.0
H325 H 0.0178 0.98493 0.94907 0.0
H326 H 0.06485 0.92571 0.89109 0.0
H327 H 0.04269 0.89863 0.95303 0.0
Dy328 Dy 0.50929 0.97594 0.65999 0.0
Dy329 Dy 0.51862 0.01925 0.75382 0.0
C330 C 0.50738 0.0293 0.61567 0.0
O331 O 0.54441 0.9738 0.64533 0.0
O332 O 0.54848 0.01115 0.68617 0.0
O333 O 0.49625 0.96274 0.57935 0.0
O334 O 0.51076 0.93772 0.64036 0.0
O335 O 0.53148 0.98495 0.79243 0.0
O336 O 0.50675 0.96345 0.75999 0.0
O337 O 0.48612 0.0111 0.7928 0.0
O338 O 0.47767 0.99395 0.70165 0.0
O339 O 0.52206 0.03402 0.84667 0.0
O340 O 0.5259 0.05584 0.76346 0.0
C341 C 0.55617 0.99118 0.65397 0.0
O342 O 0.51482 0.0072 0.59808 0.0
O343 O 0.5023 0.03551 0.67653 0.0
C344 C 0.47926 0.92888 0.60709 0.0
C345 C 0.43842 0.91522 0.61329 0.0
C346 C 0.44343 0.931 0.66025 0.0
C347 C 0.46371 0.93755 0.65744 0.0
C348 C 0.47497 0.91151 0.56361 0.0
C349 C 0.45474 0.90441 0.56729 0.0
C350 C 0.49872 0.94048 0.59612 0.0
C351 C 0.52066 0.9663 0.79799 0.0
C352 C 0.47217 0.00323 0.76001 0.0
C353 C 0.54994 0.05803 0.83454 0.0
C354 C 0.59101 0.06625 0.84996 0.0
C355 C 0.58705 0.04509 0.81909 0.0
C356 C 0.56671 0.04096 0.81188 0.0
C357 C 0.55371 0.07933 0.86501 0.0
C358 C 0.57418 0.08333 0.8733 0.0
C359 C 0.52891 0.05357 0.82274 0.0
H360 H 0.43145 0.9399 0.6962 0.0
H361 H 0.46689 0.9507 0.69213 0.0
H362 H 0.48691 0.90441 0.52493 0.0
H363 H 0.45161 0.89163 0.53154 0.0
H364 H 0.59965 0.03134 0.80222 0.0
H365 H 0.56403 0.02431 0.78886 0.0
H366 H 0.54089 0.09272 0.88245 0.0
H367 H 0.57689 0.09966 0.89788 0.0
Dy368 Dy 0.53351 0.51645 0.79592 0.0
Dy369 Dy 0.48971 0.51322 0.7259 0.0
C370 C 0.50331 0.47587 0.83107 0.0
O371 O 0.53864 0.48601 0.72415 0.0
O372 O 0.51772 0.50173 0.65456 0.0
O373 O 0.56176 0.49888 0.82521 0.0
O374 O 0.55509 0.53748 0.83624 0.0
O375 O 0.50157 0.54826 0.70008 0.0
O376 O 0.53632 0.5404 0.71179 0.0
O377 O 0.47799 0.52878 0.82402 0.0
O378 O 0.50857 0.54144 0.85198 0.0
O379 O 0.46117 0.52862 0.6938 0.0
O380 O 0.47089 0.49067 0.67842 0.0
C381 C 0.5321 0.48545 0.66831 0.0
O382 O 0.51429 0.49154 0.85508 0.0
O383 O 0.49557 0.47936 0.77744 0.0
C384 C 0.57777 0.51857 0.90433 0.0
C385 C 0.60031 0.52153 0.00942 0.0
C386 C 0.57979 0.53282 0.01305 0.0
C387 C 0.56865 0.53145 0.96086 0.0
C388 C 0.59789 0.50662 0.90167 0.0
C389 C 0.60901 0.50806 0.95342 0.0
C390 C 0.56781 0.51886 0.84541 0.0
C391 C 0.52106 0.55358 0.69027 0.0
C392 C 0.48807 0.54156 0.86027 0.0
C393 C 0.44925 0.5085 0.60575 0.0
C394 C 0.42776 0.5071 0.49764 0.0
C395 C 0.43787 0.48606 0.51878 0.0
C396 C 0.44842 0.48673 0.5721 0.0
C397 C 0.43977 0.52969 0.58334 0.0
C398 C 0.42926 0.52902 0.52975 0.0
C399 C 0.45735 0.50837 0.66831 0.0
H400 H 0.57264 0.54339 0.05533 0.0
H401 H 0.55316 0.54091 0.96415 0.0
H402 H 0.60528 0.49662 0.85863 0.0
H403 H 0.62459 0.49878 0.94927 0.0
H404 H 0.4373 0.46891 0.49475 0.0
H405 H 0.45532 0.47001 0.58825 0.0
H406 H 0.4398 0.54673 0.60855 0.0
H407 H 0.42153 0.54555 0.51522 0.0
Dy408 Dy 0.02864 0.5299 0.67951 0.0
Dy409 Dy 0.01779 0.4818 0.75547 0.0
C410 C 0.03898 0.47798 0.61201 0.0
O411 O 0.99359 0.53236 0.69323 0.0
O412 O 0.99159 0.49196 0.69938 0.0
O413 O 0.02795 0.55115 0.59541 0.0
O414 O 0.04349 0.56288 0.67253 0.0
O415 O 1.0025 0.51211 0.82214 0.0
O416 O 0.02214 0.54181 0.78214 0.0
O417 O 0.04809 0.49018 0.78561 0.0
O418 O 0.05941 0.51154 0.6983 0.0
O419 O 0.00916 0.46175 0.83994 0.0
O420 O 0.01282 0.44443 0.74616 0.0
C421 C 0.98296 0.51359 0.6906 0.0
O422 O 0.03064 0.49992 0.60649 0.0
O423 O 0.04041 0.46956 0.66866 0.0
C424 C 0.06249 0.56152 0.56871 0.0
C425 C 0.10032 0.53703 0.5098 0.0
C426 C 0.08258 0.53816 0.47856 0.0
C427 C 0.06379 0.55044 0.50766 0.0
C428 C 0.08108 0.56342 0.59483 0.0
C429 C 0.09982 0.55102 0.5659 0.0
C430 C 0.04221 0.56411 0.61162 0.0
C431 C 0.00949 0.53322 0.82827 0.0
C432 C 0.06306 0.50013 0.74999 0.0
C433 C 0.98409 0.43639 0.81821 0.0
C434 C 0.94261 0.42437 0.83531 0.0
C435 C 0.94717 0.44743 0.8167 0.0
C436 C 0.96767 0.45339 0.8087 0.0
C437 C 0.97982 0.41311 0.83517 0.0
C438 C 0.95911 0.40717 0.84431 0.0
C439 C 1.00551 0.44315 0.80647 0.0
H440 H 0.08267 0.5277 0.43479 0.0
H441 H 0.04985 0.54897 0.48561 0.0
H442 H 0.08076 0.57224 0.64113 0.0
H443 H 0.11352 0.55094 0.58978 0.0
H444 H 0.93479 0.46129 0.81127 0.0
H445 H 0.97068 0.47149 0.79595 0.0
H446 H 0.99241 0.39972 0.842 0.0
H447 H 0.95593 0.38937 0.85946 0.0
C448 C 0.15342 0.99083 0.35942 0.0
C449 C 0.16305 0.01233 0.35499 0.0
C450 C 0.13438 0.98928 0.39992 0.0
C451 C 0.12478 0.00955 0.43798 0.0
C452 C 0.13392 0.03153 0.43179 0.0
C453 C 0.15272 0.03272 0.39 0.0
C454 C 0.12499 0.9656 0.40395 0.0
C455 C 0.12437 0.05359 0.47156 0.0
C456 C 0.06809 0.01152 0.52016 0.0
C457 C 0.07066 0.00419 0.58192 0.0
C458 C 0.08548 0.01296 0.47253 0.0
C459 C 0.10601 0.00743 0.4872 0.0
C460 C 0.10867 1.00021 0.54964 0.0
C461 C 0.09103 0.99844 0.59587 0.0
C462 C 0.08187 0.02025 0.40637 0.0
C463 C 0.13023 0.99458 0.56791 0.0
H464 H 0.16119 0.97485 0.33341 0.0
H465 H 0.15963 0.0496 0.3861 0.0
H466 H 0.12622 0.95797 0.45141 0.0
H467 H 0.10811 0.96823 0.39926 0.0
H468 H 0.13297 0.95236 0.36639 0.0
H469 H 0.13279 0.06961 0.45899 0.0
H470 H 0.10774 0.05766 0.46529 0.0
H471 H 0.12472 0.05022 0.52296 0.0
H472 H 0.05244 0.01581 0.50867 0.0
H473 H 0.09322 0.9929 0.64346 0.0
H474 H 0.08935 0.00613 0.37055 0.0
H475 H 0.08926 0.03695 0.39417 0.0
H476 H 0.06497 0.02331 0.40204 0.0
H477 H 0.13889 0.97963 0.53689 0.0
H478 H 0.12968 0.98952 0.6186 0.0
H479 H 0.13927 0.01041 0.56034 0.0
C480 C 0.48759 0.13396 0.36936 0.0
C481 C 0.50666 0.14342 0.3495 0.0
C482 C 0.48673 0.11352 0.40685 0.0
C483 C 0.50536 0.10239 0.42543 0.0
C484 C 0.52477 0.11098 0.40231 0.0
C485 C 0.5252 0.13123 0.36433 0.0
C486 C 0.46574 0.1047 0.4296 0.0
C487 C 0.54502 0.09968 0.42087 0.0
C488 C 0.50241 0.07219 0.58539 0.0
C489 C 0.50553 0.04777 0.56683 0.0
C490 C 0.50197 0.09004 0.53987 0.0
C491 C 0.50444 0.08339 0.47398 0.0
C492 C 0.50696 0.05877 0.45494 0.0
C493 C 0.50764 0.04124 0.50155 0.0
C494 C 0.49946 0.11608 0.5623 0.0
C495 C 0.50929 0.05095 0.3853 0.0
H496 H 0.47315 0.14328 0.35862 0.0
H497 H 0.54006 0.13809 0.34813 0.0
H498 H 0.46655 0.08492 0.42285 0.0
H499 H 0.46131 0.10903 0.48151 0.0
H500 H 0.45323 0.11308 0.40406 0.0
H501 H 0.55892 0.10721 0.39482 0.0
H502 H 0.54495 0.10272 0.47297 0.0
H503 H 0.54661 0.08001 0.41124 0.0
H504 H 0.50084 0.07745 0.63562 0.0
H505 H 0.50994 0.02242 0.48675 0.0
H506 H 0.4858 0.12568 0.54451 0.0
H507 H 0.51351 0.12486 0.54245 0.0
H508 H 0.49727 0.11827 0.61527 0.0
H509 H 0.4962 0.05965 0.36287 0.0
H510 H 0.50962 0.03118 0.37865 0.0
H511 H 0.524 0.05672 0.35944 0.0
C512 C 0.34123 0.51088 0.26009 0.0
C513 C 0.34766 0.49584 0.20544 0.0
C514 C 0.3548 0.51434 0.30519 0.0
C515 C 0.37541 0.50264 0.29544 0.0
C516 C 0.3823 0.48836 0.23886 0.0
C517 C 0.36835 0.48505 0.19482 0.0
C518 C 0.34671 0.5296 0.36489 0.0
C519 C 0.40418 0.47579 0.22598 0.0
C520 C 0.4152 0.52314 0.39735 0.0
C521 C 0.41473 0.50592 0.44477 0.0
C522 C 0.40267 0.52224 0.34819 0.0
C523 C 0.38915 0.50383 0.34657 0.0
C524 C 0.3886 0.48645 0.39437 0.0
C525 C 0.40138 0.48768 0.44257 0.0
C526 C 0.4039 0.54099 0.29793 0.0
C527 C 0.37431 0.46663 0.39504 0.0
H528 H 0.32522 0.51905 0.26927 0.0
H529 H 0.37353 0.47359 0.15248 0.0
H530 H 0.34579 0.51814 0.40717 0.0
H531 H 0.35762 0.5432 0.37205 0.0
H532 H 0.33094 0.53897 0.36311 0.0
H533 H 0.40775 0.46714 0.17735 0.0
H534 H 0.41586 0.4887 0.23116 0.0
H535 H 0.40605 0.46179 0.26161 0.0
H536 H 0.42557 0.5372 0.39827 0.0
H537 H 0.40058 0.47453 0.47949 0.0
H538 H 0.38831 0.55106 0.29846 0.0
H539 H 0.40844 0.53222 0.24975 0.0
H540 H 0.41537 0.55396 0.30533 0.0
H541 H 0.35781 0.47445 0.39869 0.0
H542 H 0.37571 0.45451 0.43544 0.0
H543 H 0.378 0.45578 0.34961 0.0
C544 C 0.06386 0.38694 0.30013 0.0
C545 C 0.044 0.38097 0.28997 0.0
C546 C 0.06611 0.40337 0.34964 0.0
C547 C 0.0481 0.41386 0.39026 0.0
C548 C 0.02806 0.40799 0.37984 0.0
C549 C 0.02628 0.39169 0.33012 0.0
C550 C 0.08773 0.40932 0.35896 0.0
C551 C 0.00842 0.41857 0.42217 0.0
C552 C 0.04834 0.43693 0.56035 0.0
C553 C 0.04476 0.46182 0.55425 0.0
C554 C 0.05081 0.42112 0.50667 0.0
C555 C 0.04985 0.4304 0.44522 0.0
C556 C 0.04772 0.45557 0.43826 0.0
C557 C 0.0451 0.47097 0.49285 0.0
C558 C 0.05305 0.39443 0.51637 0.0
C559 C 0.04694 0.46625 0.37361 0.0
H560 H 0.07763 0.37881 0.26929 0.0
H561 H 0.0109 0.38681 0.32384 0.0
H562 H 0.08852 0.42902 0.35817 0.0
H563 H 0.09118 0.40348 0.40647 0.0
H564 H 0.10006 0.40055 0.32161 0.0
H565 H 0.994 0.41252 0.4069 0.0
H566 H 0.009 0.41336 0.47228 0.0
H567 H 0.00733 0.43844 0.42171 0.0
H568 H 0.04822 0.42965 0.60748 0.0
H569 H 0.04265 0.49019 0.48749 0.0
H570 H 0.06604 0.38544 0.48167 0.0
H571 H 0.03848 0.38678 0.50776 0.0
H572 H 0.056 0.39013 0.56555 0.0
H573 H 0.0596 0.45736 0.3376 0.0
H574 H 0.04842 0.48585 0.37487 0.0
H575 H 0.03181 0.46326 0.35744 0.0
C576 C 0.87938 0.0049 0.07168 0.0
C577 C 0.87351 0.9825 0.092 0.0
C578 C 0.89792 0.00681 0.02921 0.0
C579 C 0.9111 0.98582 0.00671 0.0
C580 C 0.90567 0.96324 0.02906 0.0
C581 C 0.88694 0.96184 0.07107 0.0
C582 C 0.90299 0.03124 0.00651 0.0
C583 C 0.91941 0.94046 0.00738 0.0
C584 C 0.94582 0.98792 0.84538 0.0
C585 C 0.96526 0.99192 0.86343 0.0
C586 C 0.92819 0.98579 0.89142 0.0
C587 C 0.92995 0.98745 0.95743 0.0
C588 C 0.94958 0.99116 0.976 0.0
C589 C 0.9669 0.99354 0.92892 0.0
C590 C 0.90757 0.98196 0.86934 0.0
C591 C 0.9523 0.99267 0.04566 0.0
H592 H 0.869 0.02093 0.08684 0.0
H593 H 0.88263 0.94448 0.08698 0.0
H594 H 0.91897 0.03453 0.01515 0.0
H595 H 0.90276 0.03196 0.95419 0.0
H596 H 0.89172 0.0459 0.03074 0.0
H597 H 0.91309 0.92438 0.02964 0.0
H598 H 0.92093 0.93801 0.95465 0.0
H599 H 0.93537 0.94167 0.01954 0.0
H600 H 0.94429 0.98665 0.79506 0.0
H601 H 0.98173 0.99674 0.94363 0.0
H602 H 0.89562 0.99685 0.88819 0.0
H603 H 0.90188 0.9651 0.88848 0.0
H604 H 0.90877 0.98097 0.81638 0.0
H605 H 0.94118 0.00719 0.07108 0.0
H606 H 0.96845 0.99613 0.05232 0.0
H607 H 0.94867 0.97563 0.06856 0.0
C608 C 0.5423 0.85291 0.00777 0.0
C609 C 0.53033 0.8549 0.06874 0.0
C610 C 0.54302 0.87248 0.96738 0.0
C611 C 0.53136 0.8946 0.98823 0.0
C612 C 0.52034 0.89716 0.05129 0.0
C613 C 0.52001 0.87728 0.09089 0.0
C614 C 0.55516 0.869 0.90085 0.0
C615 C 0.5077 0.92039 0.07544 0.0
C616 C 0.5395 0.94928 0.88589 0.0
C617 C 0.52339 0.94859 0.8482 0.0
C618 C 0.54222 0.93202 0.93231 0.0
C619 C 0.52846 0.91377 0.94139 0.0
C620 C 0.51202 0.91326 0.90411 0.0
C621 C 0.50973 0.93057 0.85805 0.0
C622 C 0.55998 0.93309 0.97096 0.0
C623 C 0.4969 0.89422 0.9123 0.0
H624 H 0.55055 0.83572 0.99076 0.0
H625 H 0.51063 0.87891 0.13779 0.0
H626 H 0.54408 0.8689 0.86542 0.0
H627 H 0.56491 0.88403 0.88967 0.0
H628 H 0.56547 0.85186 0.89483 0.0
H629 H 0.50243 0.92055 0.12782 0.0
H630 H 0.51695 0.93584 0.06441 0.0
H631 H 0.49368 0.92298 0.05086 0.0
H632 H 0.55012 0.96311 0.87864 0.0
H633 H 0.49715 0.9299 0.82955 0.0
H634 H 0.57095 0.91658 0.9612 0.0
H635 H 0.55387 0.93382 0.0228 0.0
H636 H 0.56883 0.9489 0.95989 0.0
H637 H 0.50552 0.87622 0.9012 0.0
H638 H 0.48459 0.89676 0.88086 0.0
H639 H 0.4892 0.89442 0.96269 0.0
C640 C 0.67859 0.50953 0.26961 0.0
C641 C 0.68224 0.53165 0.2964 0.0
C642 C 0.66358 0.50803 0.2281 0.0
C643 C 0.65186 0.52916 0.21249 0.0
C644 C 0.65472 0.55139 0.24171 0.0
C645 C 0.66984 0.55237 0.28318 0.0
C646 C 0.66108 0.48393 0.19825 0.0
C647 C 0.6425 0.57434 0.22686 0.0
C648 C 0.63419 0.52861 0.04809 0.0
C649 C 0.61306 0.52435 0.06234 0.0
C650 C 0.64677 0.53059 0.0965 0.0
C651 C 0.63814 0.52822 0.16124 0.0
C652 C 0.61672 0.52431 0.17622 0.0
C653 C 0.60443 0.52252 0.12668 0.0
C654 C 0.66944 0.53497 0.07814 0.0
C655 C 0.60691 0.52157 0.24448 0.0
H656 H 0.68822 0.49342 0.2784 0.0
H657 H 0.6723 0.56952 0.3041 0.0
H658 H 0.64431 0.48075 0.2034 0.0
H659 H 0.667 0.48368 0.1463 0.0
H660 H 0.66976 0.46894 0.21998 0.0
H661 H 0.645 0.58972 0.25802 0.0
H662 H 0.64735 0.57872 0.1763 0.0
H663 H 0.62552 0.57214 0.23263 0.0
H664 H 0.64093 0.53052 0.99872 0.0
H665 H 0.58817 0.5191 0.1382 0.0
H666 H 0.67972 0.5198 0.09304 0.0
H667 H 0.67277 0.55143 0.10339 0.0
H668 H 0.67364 0.537 0.02585 0.0
H669 H 0.61472 0.50555 0.26439 0.0
H670 H 0.58989 0.51961 0.24857 0.0
H671 H 0.60919 0.53736 0.27442 0.0
C672 C 0.96532 0.6264 0.11703 0.0
C673 C 0.97703 0.6251 0.16814 0.0
C674 C 0.96971 0.60986 0.06492 0.0
C675 C 0.98642 0.59159 0.06305 0.0
C676 C 0.99801 0.58973 0.11503 0.0
C677 C 0.99318 0.60647 0.16694 0.0
C678 C 0.95696 0.61257 0.01057 0.0
C679 C 0.01597 0.57052 0.11483 0.0
C680 C 0.98939 0.54016 0.93948 0.0
C681 C 1.00348 0.54779 0.88897 0.0
C682 C 0.98392 0.55398 0.99696 0.0
C683 C 0.99279 0.57588 0.00419 0.0
C684 C 0.00717 0.5835 0.95366 0.0
C685 C 0.01229 0.56944 0.89687 0.0
C686 C 0.96846 0.5453 0.04962 0.0
C687 C 0.01703 0.60672 0.95924 0.0
H688 H 0.9531 0.64094 0.11643 0.0
H689 H 1.00218 0.6051 0.20635 0.0
H690 H 0.96699 0.61776 0.96702 0.0
H691 H 0.95108 0.59525 0.99915 0.0
H692 H 0.94339 0.62639 0.02173 0.0
H693 H 0.0224 0.57031 0.1608 0.0
H694 H 0.01084 0.5526 0.10541 0.0
H695 H 0.02871 0.57355 0.07576 0.0
H696 H 0.98254 0.52345 0.93407 0.0
H697 H 0.02329 0.57552 0.85853 0.0
H698 H 0.95434 0.55839 0.05895 0.0
H699 H 0.97539 0.54408 0.09462 0.0
H700 H 0.96356 0.52748 0.03758 0.0
H701 H 1.0047 0.62205 0.96561 0.0
H702 H 0.02847 0.6097 0.91647 0.0
H703 H 0.02516 0.60674 1.00199 0.0
C704 C 0.92956 0.21603 0.35726 0.0
C705 C 0.94622 0.22998 0.36115 0.0
C706 C 0.92728 0.19565 0.39419 0.0
C707 C 0.9422 0.18903 0.43503 0.0
C708 C 0.95776 0.20439 0.44377 0.0
C709 C 0.95952 0.22475 0.40688 0.0
C710 C 0.91011 0.18008 0.38498 0.0
C711 C 0.97404 0.19797 0.48668 0.0
C712 C 0.93884 0.13633 0.54497 0.0
C713 C 0.95161 0.1183 0.50702 0.0
C714 C 0.93479 0.15929 0.52139 0.0
C715 C 0.94408 0.16432 0.45902 0.0
C716 C 0.95664 0.14599 0.42019 0.0
C717 C 0.96013 0.12317 0.44458 0.0
C718 C 0.92103 0.17827 0.56364 0.0
C719 C 0.96706 0.15068 0.3536 0.0
H720 H 0.91908 0.22021 0.32254 0.0
H721 H 0.97256 0.2353 0.40984 0.0
H722 H 0.91676 0.16434 0.35335 0.0
H723 H 0.90317 0.17323 0.43129 0.0
H724 H 0.89751 0.18995 0.36262 0.0
H725 H 0.98303 0.21334 0.49549 0.0
H726 H 0.96668 0.19186 0.53333 0.0
H727 H 0.98519 0.18296 0.46382 0.0
H728 H 0.93209 0.13246 0.59314 0.0
H729 H 0.97019 0.10932 0.41548 0.0
H730 H 0.9091 0.18729 0.53713 0.0
H731 H 0.93066 0.19222 0.57815 0.0
H732 H 0.91296 0.17071 0.60752 0.0
H733 H 0.95517 0.15765 0.324 0.0
H734 H 0.97587 0.13429 0.32913 0.0
H735 H 0.97808 0.16457 0.35603 0.0
C736 C 0.32247 0.93359 0.52587 0.0
C737 C 0.32247 0.95778 0.51029 0.0
C738 C 0.33785 0.9228 0.55943 0.0
C739 C 0.35346 0.93661 0.57697 0.0
C740 C 0.35169 0.96172 0.56891 0.0
C741 C 0.33622 0.972 0.53526 0.0
C742 C 0.33875 0.89618 0.56961 0.0
C743 C 0.36763 0.97727 0.5888 0.0
C744 C 0.40015 0.91646 0.65835 0.0
C745 C 0.41609 0.91394 0.60539 0.0
C746 C 0.37912 0.92192 0.65029 0.0
C747 C 0.37399 0.92465 0.58785 0.0
C748 C 0.3897 0.91954 0.53425 0.0
C749 C 0.41051 0.91437 0.54369 0.0
C750 C 0.36286 0.9267 0.70883 0.0
C751 C 0.38493 0.92192 0.46655 0.0
H752 H 0.31167 0.92263 0.50701 0.0
H753 H 0.33589 0.99084 0.5242 0.0
H754 H 0.35014 0.88662 0.53109 0.0
H755 H 0.34408 0.89181 0.61599 0.0
H756 H 0.32327 0.88936 0.56835 0.0
H757 H 0.36239 0.99669 0.58759 0.0
H758 H 0.3708 0.97315 0.63777 0.0
H759 H 0.38259 0.97352 0.55588 0.0
H760 H 0.40418 0.91554 0.70633 0.0
H761 H 0.42252 0.91271 0.50221 0.0
H762 H 0.34717 0.92246 0.6995 0.0
H763 H 0.36177 0.94597 0.7235 0.0
H764 H 0.36727 0.9161 0.74952 0.0
H765 H 0.3714 0.91198 0.45936 0.0
H766 H 0.39846 0.91507 0.43043 0.0
H767 H 0.38073 0.9411 0.4576 0.0
C768 C 0.50251 0.36782 0.52723 0.0
C769 C 0.51742 0.35337 0.48512 0.0
C770 C 0.50786 0.38855 0.55659 0.0
C771 C 0.52855 0.39509 0.54261 0.0
C772 C 0.54385 0.38013 0.50178 0.0
C773 C 0.53811 0.3593 0.47369 0.0
C774 C 0.49114 0.40392 0.60056 0.0
C775 C 0.56599 0.38669 0.48547 0.0
C776 C 0.53056 0.46176 0.56809 0.0
C777 C 0.536 0.46277 0.6298 0.0
C778 C 0.52955 0.43963 0.53699 0.0
C779 C 0.53373 0.41814 0.56901 0.0
C780 C 0.54053 0.41904 0.62955 0.0
C781 C 0.54183 0.44138 0.65893 0.0
C782 C 0.52258 0.43932 0.47184 0.0
C783 C 0.54471 0.39654 0.66569 0.0
H784 H 0.48653 0.36313 0.53613 0.0
H785 H 0.54956 0.34824 0.44043 0.0
H786 H 0.49696 0.40874 0.64555 0.0
H787 H 0.48705 0.4209 0.57711 0.0
H788 H 0.47668 0.3948 0.61271 0.0
H789 H 0.57636 0.37227 0.45673 0.0
H790 H 0.56597 0.40331 0.45783 0.0
H791 H 0.57266 0.39046 0.52971 0.0
H792 H 0.52612 0.47824 0.54535 0.0
H793 H 0.54591 0.44198 0.70688 0.0
H794 H 0.50637 0.43407 0.47627 0.0
H795 H 0.53273 0.42589 0.43921 0.0
H796 H 0.52284 0.45715 0.44985 0.0
H797 H 0.5298 0.38853 0.67992 0.0
H798 H 0.5517 0.40015 0.70953 0.0
H799 H 0.55536 0.38301 0.6348 0.0
C800 C 0.20337 0.45298 0.38503 0.0
C801 C 0.19856 0.43359 0.34834 0.0
C802 C 0.18761 0.46739 0.42423 0.0
C803 C 0.16661 0.46219 0.42696 0.0
C804 C 0.16204 0.44077 0.39741 0.0
C805 C 0.17815 0.42663 0.35838 0.0
C806 C 0.19321 0.48993 0.45556 0.0
C807 C 0.13986 0.43423 0.40088 0.0
C808 C 0.12472 0.50242 0.53316 0.0
C809 C 0.11805 0.51875 0.4891 0.0
C810 C 0.14033 0.48362 0.51385 0.0
C811 C 0.14954 0.48131 0.44899 0.0
C812 C 0.14292 0.49788 0.40437 0.0
C813 C 0.12712 0.51633 0.42497 0.0
C814 C 0.14681 0.46621 0.56262 0.0
C815 C 0.15253 0.49615 0.33477 0.0
H816 H 0.21903 0.45865 0.3779 0.0
H817 H 0.17441 0.41133 0.3314 0.0
H818 H 0.18932 0.50551 0.4264 0.0
H819 H 0.18413 0.49328 0.50398 0.0
H820 H 0.21016 0.48898 0.4595 0.0
H821 H 0.1394 0.41501 0.38752 0.0
H822 H 0.13107 0.43799 0.44959 0.0
H823 H 0.13168 0.44525 0.36729 0.0
H824 H 0.11727 0.50394 0.58248 0.0
H825 H 0.12184 0.5289 0.39101 0.0
H826 H 0.1455 0.44753 0.54625 0.0
H827 H 0.13714 0.46969 0.61031 0.0
H828 H 0.16344 0.4675 0.56794 0.0
H829 H 0.16965 0.49736 0.33056 0.0
H830 H 0.14567 0.51054 0.30651 0.0
H831 H 0.1502 0.47853 0.31331 0.0
C832 C 0.93231 0.84812 0.16354 0.0
C833 C 0.93893 0.82372 0.15013 0.0
C834 C 0.94256 0.86598 0.12991 0.0
C835 C 0.95958 0.85919 0.08121 0.0
C836 C 0.96463 0.83474 0.06234 0.0
C837 C 0.95434 0.81727 0.09728 0.0
C838 C 0.93647 0.89194 0.15059 0.0
C839 C 0.98229 0.82682 0.00934 0.0
C840 C 0.9849 0.90666 0.97998 0.0
C841 C 1.00248 0.90955 0.00993 0.0
C842 C 0.97069 0.89032 0.00248 0.0
C843 C 0.97401 0.87707 0.05694 0.0
C844 C 0.99162 0.88032 0.08789 0.0
C845 C 0.00583 0.89636 0.0634 0.0
C846 C 0.95262 0.88667 0.96671 0.0
C847 C 0.99555 0.86671 0.14662 0.0
H848 H 0.92005 0.85328 0.2032 0.0
H849 H 0.95973 0.79854 0.08633 0.0
H850 H 0.94829 0.89822 0.17854 0.0
H851 H 0.93616 0.9034 0.10853 0.0
H852 H 0.92091 0.89453 0.1809 0.0
H853 H 0.98178 0.80791 0.99307 0.0
H854 H 0.98175 0.83848 0.96775 0.0
H855 H 0.99748 0.82832 0.02674 0.0
H856 H 0.98256 0.91685 0.93808 0.0
H857 H 0.01947 0.89878 0.08625 0.0
H858 H 0.9556 0.86903 0.9405 0.0
H859 H 0.95046 0.90081 0.93152 0.0
H860 H 0.93785 0.88641 1.00026 0.0
H861 H 0.98168 0.86978 0.18423 0.0
H862 H 0.00944 0.8721 0.16651 0.0
H863 H 0.99803 0.84717 0.13466 0.0
C864 C 0.68967 0.01324 0.95733 0.0
C865 C 0.70482 0.02712 0.97565 0.0
C866 C 0.67349 0.02349 0.92654 0.0
C867 C 0.67259 0.04821 0.91321 0.0
C868 C 0.68897 0.06177 0.92602 0.0
C869 C 0.70493 0.05105 0.95754 0.0
C870 C 0.65646 0.00826 0.91303 0.0
C871 C 0.68886 0.08797 0.9108 0.0
C872 C 0.62955 0.06343 0.81454 0.0
C873 C 0.61248 0.06877 0.86302 0.0
C874 C 0.64993 0.05917 0.82932 0.0
C875 C 0.65311 0.06003 0.8941 0.0
C876 C 0.63621 0.06796 0.94236 0.0
C877 C 0.61603 0.07234 0.9261 0.0
C878 C 0.66761 0.05149 0.7763 0.0
C879 C 0.63896 0.06923 0.01206 0.0
H880 H 0.68986 0.9946 0.97029 0.0
H881 H 0.71667 0.06182 0.97162 0.0
H882 H 0.64158 0.01472 0.94386 0.0
H883 H 0.65376 0.00981 0.8626 0.0
H884 H 0.66031 0.98901 0.92215 0.0
H885 H 0.70464 0.09429 0.90965 0.0
H886 H 0.68339 0.09137 0.86412 0.0
H887 H 0.67793 0.09879 0.94807 0.0
H888 H 0.62679 0.0611 0.7655 0.0
H889 H 0.60283 0.07645 0.96358 0.0
H890 H 0.67056 0.03164 0.77424 0.0
H891 H 0.68228 0.0589 0.78503 0.0
H892 H 0.66379 0.05728 0.72903 0.0
H893 H 0.64161 0.05077 0.02929 0.0
H894 H 0.625 0.07858 0.04234 0.0
H895 H 0.65283 0.07867 0.01854 0.0
C896 C 0.4401 0.65007 0.10722 0.0
C897 C 0.45175 0.66836 0.08117 0.0
C898 C 0.44055 0.62804 0.07373 0.0
C899 C 0.45288 0.62433 0.01289 0.0
C900 C 0.46286 0.64356 0.98376 0.0
C901 C 0.46224 0.66529 0.01831 0.0
C902 C 0.42931 0.60815 0.10584 0.0
C903 C 0.47598 0.6405 0.9185 0.0
C904 C 0.48567 0.56643 0.96002 0.0
C905 C 0.47612 0.55884 0.90873 0.0
C906 C 0.47711 0.58667 0.99813 0.0
C907 C 0.45861 0.59972 0.98428 0.0
C908 C 0.44783 0.59084 0.93641 0.0
C909 C 0.45673 0.57037 0.89907 0.0
C910 C 0.48895 0.59523 0.04951 0.0
C911 C 0.42792 0.60402 0.92086 0.0
H912 H 0.43154 0.65248 0.1552 0.0
H913 H 0.47141 0.67915 0.99765 0.0
H914 H 0.42224 0.59763 0.07092 0.0
H915 H 0.44069 0.59571 0.12651 0.0
H916 H 0.41684 0.61523 0.1451 0.0
H917 H 0.48041 0.6579 0.89929 0.0
H918 H 0.49053 0.62875 0.92173 0.0
H919 H 0.46743 0.63173 0.88406 0.0
H920 H 0.5005 0.5573 0.96824 0.0
H921 H 0.44928 0.56452 0.85947 0.0
H922 H 0.47819 0.59958 0.09479 0.0
H923 H 0.49602 0.61188 0.03445 0.0
H924 H 0.50167 0.58167 0.05897 0.0
H925 H 0.41769 0.61127 0.96496 0.0
H926 H 0.41906 0.59224 0.89404 0.0
H927 H 0.43185 0.61942 0.8908 0.0
C928 C 0.82911 0.44932 0.02662 0.0
C929 C 0.83422 0.47086 0.05264 0.0
C930 C 0.84258 0.437 0.97595 0.0
C931 C 0.86158 0.44638 0.95218 0.0
C932 C 0.86556 0.4694 0.97391 0.0
C933 C 0.85172 0.4814 0.02361 0.0
C934 C 0.83716 0.41319 0.95177 0.0
C935 C 0.88542 0.48044 0.9491 0.0
C936 C 0.91446 0.41298 0.91755 0.0
C937 C 0.92049 0.42028 0.85532 0.0
C938 C 0.89384 0.41831 0.94772 0.0
C939 C 0.8791 0.43105 0.91431 0.0
C940 C 0.88426 0.43449 0.84811 0.0
C941 C 0.90508 0.42919 0.81926 0.0
C942 C 0.88882 0.41366 0.01807 0.0
C943 C 0.86866 0.44665 0.80978 0.0
H944 H 0.8154 0.44127 0.04854 0.0
H945 H 0.85529 0.49843 0.04268 0.0
H946 H 0.84435 0.4091 0.90139 0.0
H947 H 0.84299 0.39874 0.98168 0.0
H948 H 0.81993 0.41291 0.95537 0.0
H949 H 0.88554 0.49895 0.96893 0.0
H950 H 0.89916 0.46929 0.96206 0.0
H951 H 0.88738 0.48109 0.89623 0.0
H952 H 0.92629 0.40583 0.94534 0.0
H953 H 0.90966 0.4342 0.77037 0.0
H954 H 0.8734 0.40648 0.02863 0.0
H955 H 0.88802 0.43079 0.04615 0.0
H956 H 0.90087 0.40078 0.03449 0.0
H957 H 0.87242 0.44095 0.75843 0.0
H958 H 0.86926 0.46637 0.81322 0.0
H959 H 0.85247 0.4427 0.82804 0.0
C960 C 0.03753 0.18287 0.85082 0.0
C961 C 0.03634 0.18521 0.91749 0.0
C962 C 0.0365 0.16045 0.82057 0.0
C963 C 0.03374 0.13997 0.858 0.0
C964 C 0.0327 0.14225 0.92529 0.0
C965 C 0.03418 0.16476 0.95408 0.0
C966 C 0.03812 0.15871 0.74865 0.0
C967 C 0.02941 0.12103 0.96718 0.0
C968 C 0.00925 0.08698 0.79308 0.0
C969 C 0.02661 0.06986 0.77851 0.0
C970 C 0.0114 0.10999 0.81791 0.0
C971 C 0.03145 0.11623 0.82734 0.0
C972 C 0.04913 0.0993 0.81049 0.0
C973 C 0.04648 0.07629 0.78688 0.0
C974 C 0.99208 0.12734 0.83606 0.0
C975 C 0.07083 0.10535 0.81853 0.0
H976 H 0.03922 0.19863 0.82235 0.0
H977 H 0.03288 0.16653 0.0057 0.0
H978 H 0.05073 0.14467 0.72882 0.0
H979 H 0.02328 0.15332 0.73497 0.0
H980 H 0.04139 0.17596 0.72619 0.0
H981 H 0.02909 0.12575 0.01865 0.0
H982 H 0.01441 0.1139 0.96089 0.0
H983 H 0.04207 0.1064 0.95282 0.0
H984 H 0.99383 0.08219 0.78695 0.0
H985 H 0.06003 0.06326 0.77521 0.0
H986 H 0.99399 0.14446 0.81149 0.0
H987 H 0.98985 0.13155 0.88827 0.0
H988 H 0.97774 0.12007 0.82375 0.0
H989 H 0.0742 0.12227 0.79449 0.0
H990 H 0.08311 0.09091 0.79866 0.0
H991 H 0.07182 0.10829 0.87003 0.0
C992 C 0.361 0.97438 0.94214 0.0
C993 C 0.34783 0.99497 0.96608 0.0
C994 C 0.38023 0.97606 0.90292 0.0
C995 C 0.38638 0.99887 0.8852 0.0
C996 C 0.37241 0.01959 0.90459 0.0
C997 C 0.35348 0.01745 0.94526 0.0
C998 C 0.39443 0.95342 0.88303 0.0
C999 C 0.37786 0.04415 0.88429 0.0
C1000 C 0.44486 0.00636 0.85765 0.0
C1001 C 0.44995 0.00348 0.79096 0.0
C1002 C 0.42431 0.00494 0.88844 0.0
C1003 C 0.40813 0.00115 0.8518 0.0
C1004 C 0.41304 0.9988 0.78421 0.0
C1005 C 0.4339 0.99963 0.75479 0.0
C1006 C 0.42005 0.00677 0.9606 0.0
C1007 C 0.39649 0.99487 0.74261 0.0
H1008 H 0.3566 0.95682 0.95573 0.0
H1009 H 0.34359 0.03356 0.96296 0.0
H1010 H 0.39788 0.95166 0.83016 0.0
H1011 H 0.40956 0.95432 0.90133 0.0
H1012 H 0.38745 0.93706 0.90111 0.0
H1013 H 0.36439 0.05804 0.8964 0.0
H1014 H 0.39097 0.04935 0.90837 0.0
H1015 H 0.38315 0.04391 0.83194 0.0
H1016 H 0.45711 0.00901 0.88627 0.0
H1017 H 0.43761 0.99724 0.70326 0.0
H1018 H 0.41361 0.99022 0.97931 0.0
H1019 H 0.40815 0.02203 0.97653 0.0
H1020 H 0.43436 0.00933 0.98225 0.0
H1021 H 0.39417 0.97552 0.74059 0.0
H1022 H 0.40121 1.00037 0.69286 0.0
H1023 H 0.38126 0.00494 0.762 0.0
C1024 C 0.47005 0.35606 1.00034 0.0
C1025 C 0.48737 0.34056 0.01164 0.0
C1026 C 0.47265 0.37775 0.96931 0.0
C1027 C 0.49306 0.38397 0.94758 0.0
C1028 C 0.51058 0.36785 0.95559 0.0
C1029 C 0.50755 0.34649 0.98793 0.0
C1030 C 0.45353 0.3944 0.96162 0.0
C1031 C 0.5326 0.37354 0.93192 0.0
C1032 C 0.49841 0.43226 0.82406 0.0
C1033 C 0.50086 0.45252 0.86164 0.0
C1034 C 0.49616 0.40983 0.85117 0.0
C1035 C 0.49605 0.40757 0.91776 0.0
C1036 C 0.49855 0.42794 0.95599 0.0
C1037 C 0.50117 0.45013 0.92734 0.0
C1038 C 0.49413 0.38849 0.80836 0.0
C1039 C 0.49821 0.42636 0.02732 0.0
H1040 H 0.45438 0.35153 0.01718 0.0
H1041 H 0.52111 0.33496 0.99697 0.0
H1042 H 0.45399 0.41174 0.98753 0.0
H1043 H 0.45342 0.3983 0.91044 0.0
H1044 H 0.43873 0.38678 0.98016 0.0
H1045 H 0.54443 0.35832 0.93718 0.0
H1046 H 0.53407 0.37819 0.88082 0.0
H1047 H 0.53624 0.38939 0.95916 0.0
H1048 H 0.49858 0.43385 0.77295 0.0
H1049 H 0.50306 0.4657 0.95652 0.0
H1050 H 0.47982 0.37985 0.82617 0.0
H1051 H 0.5077 0.37492 0.80903 0.0
H1052 H 0.49345 0.39349 0.7581 0.0
H1053 H 0.48315 0.42021 0.04946 0.0
H1054 H 0.5002 0.44384 0.05037 0.0
H1055 H 0.51087 0.41292 0.0376 0.0
C1056 C 0.17995 0.47731 0.84234 0.0
C1057 C 0.18337 0.4957 0.88483 0.0
C1058 C 0.16137 0.47798 0.81466 0.0
C1059 C 0.14569 0.49742 0.83002 0.0
C1060 C 0.14943 0.51652 0.87059 0.0
C1061 C 0.16818 0.51548 0.89717 0.0
C1062 C 0.15817 0.45737 0.77108 0.0
C1063 C 0.13328 0.53772 0.88786 0.0
C1064 C 0.10094 0.50861 0.73109 0.0
C1065 C 0.08451 0.4985 0.76859 0.0
C1066 C 0.12102 0.50797 0.74959 0.0
C1067 C 0.12483 0.49712 0.80732 0.0
C1068 C 0.10838 0.48666 0.84496 0.0
C1069 C 0.08852 0.48741 0.82513 0.0
C1070 C 0.13815 0.51902 0.70754 0.0
C1071 C 0.11164 0.47501 0.90699 0.0
H1072 H 0.19138 0.4618 0.83277 0.0
H1073 H 0.17076 0.53003 0.92885 0.0
H1074 H 0.14531 0.4474 0.79437 0.0
H1075 H 0.15345 0.46418 0.72586 0.0
H1076 H 0.17249 0.44466 0.75944 0.0
H1077 H 0.13901 0.55174 0.91703 0.0
H1078 H 0.12873 0.54588 0.84389 0.0
H1079 H 0.11895 0.53162 0.91534 0.0
H1080 H 0.09807 0.5173 0.68747 0.0
H1081 H 0.07602 0.47957 0.85467 0.0
H1082 H 0.15083 0.50488 0.6889 0.0
H1083 H 0.14513 0.53228 0.73565 0.0
H1084 H 0.13241 0.52809 0.66635 0.0
H1085 H 0.12479 0.46061 0.89839 0.0
H1086 H 0.09746 0.46715 0.92998 0.0
H1087 H 0.11594 0.48847 0.94086 0.0
C1088 C 0.01588 0.81501 0.56492 0.0
C1089 C 0.9954 0.80906 0.56304 0.0
C1090 C 0.01965 0.83761 0.58884 0.0
C1091 C 1.00256 0.8547 0.61179 0.0
C1092 C 0.98189 0.84846 0.61253 0.0
C1093 C 0.97857 0.82586 0.58796 0.0
C1094 C 0.04195 0.84351 0.58736 0.0
C1095 C 0.9632 0.86606 0.63679 0.0
C1096 C 0.01059 0.90947 0.71274 0.0
C1097 C 0.01125 0.92752 0.66756 0.0
C1098 C 0.00799 0.88566 0.69532 0.0
C1099 C 0.00619 0.87964 0.63102 0.0
C1100 C 0.00715 0.89771 0.58507 0.0
C1101 C 0.00957 0.92139 0.6039 0.0
C1102 C 0.00684 0.86702 0.74593 0.0
C1103 C 1.0054 0.89208 0.51595 0.0
H1104 H 0.02901 0.80214 0.54659 0.0
H1105 H 0.96267 0.8218 0.58579 0.0
H1106 H 0.04508 0.85811 0.55369 0.0
H1107 H 0.04443 0.85012 0.63527 0.0
H1108 H 0.05347 0.82778 0.57215 0.0
H1109 H 0.9482 0.85781 0.63915 0.0
H1110 H 0.96455 0.8733 0.68513 0.0
H1111 H 0.96267 0.88146 0.60473 0.0
H1112 H 0.01182 0.91398 0.7621 0.0
H1113 H 0.01018 0.93511 0.56852 0.0
H1114 H 0.019 0.85185 0.7318 0.0
H1115 H 0.99143 0.85964 0.75046 0.0
H1116 H 0.00899 0.87445 0.79346 0.0
H1117 H 0.0176 0.87756 0.49626 0.0
H1118 H 0.00711 0.90796 0.48573 0.0
H1119 H 0.98997 0.88551 0.51247 0.0
C1120 C 0.68057 0.97237 0.51894 0.0
C1121 C 0.68451 0.98722 0.46679 0.0
C1122 C 0.66015 0.97185 0.55234 0.0
C1123 C 0.64316 0.98618 0.53251 0.0
C1124 C 0.64708 0.00099 0.47948 0.0
C1125 C 0.66761 0.0014 0.44764 0.0
C1126 C 0.65676 0.95607 0.60911 0.0
C1127 C 0.62951 0.01636 0.45602 0.0
C1128 C 0.58669 0.97115 0.57755 0.0
C1129 C 0.57874 0.98874 0.62542 0.0
C1130 C 0.60771 0.96974 0.54794 0.0
C1131 C 0.6213 0.98606 0.56717 0.0
C1132 C 0.61353 0.00332 0.61688 0.0
C1133 C 0.5924 0.00457 0.64488 0.0
C1134 C 0.61521 0.95126 0.49462 0.0
C1135 C 0.62744 0.02083 0.6398 0.0
H1136 H 0.69351 0.9614 0.53415 0.0
H1137 H 0.67038 0.01257 0.40664 0.0
H1138 H 0.64987 0.96718 0.65242 0.0
H1139 H 0.64546 0.94304 0.60101 0.0
H1140 H 0.67153 0.94601 0.61857 0.0
H1141 H 0.63507 0.02653 0.41338 0.0
H1142 H 0.61747 0.00497 0.44359 0.0
H1143 H 0.62179 0.02934 0.4945 0.0
H1144 H 0.57634 0.95886 0.56192 0.0
H1145 H 0.58657 0.01816 0.68196 0.0
H1146 H 0.62938 0.94025 0.50498 0.0
H1147 H 0.61964 0.9604 0.44934 0.0
H1148 H 0.60308 0.93914 0.48729 0.0
H1149 H 0.64143 0.01097 0.65515 0.0
H1150 H 0.61922 0.0326 0.68036 0.0
H1151 H 0.63308 0.03231 0.60012 0.0
C1152 C 0.54358 0.66257 0.45794 0.0
C1153 C 0.53362 0.68405 0.48789 0.0
C1154 C 0.54467 0.64119 0.49145 0.0
C1155 C 0.53569 0.64131 0.5566 0.0
C1156 C 0.52705 0.6633 0.58828 0.0
C1157 C 0.52602 0.68437 0.55348 0.0
C1158 C 0.55396 0.61817 0.4557 0.0
C1159 C 0.51757 0.66432 0.6579 0.0
C1160 C 0.51076 0.586 0.61822 0.0
C1161 C 0.52565 0.57529 0.65364 0.0
C1162 C 0.51408 0.60718 0.58574 0.0
C1163 C 0.5327 0.6182 0.58899 0.0
C1164 C 0.54797 0.60735 0.62386 0.0
C1165 C 0.54432 0.58594 0.65554 0.0
C1166 C 0.49747 0.61793 0.5485 0.0
C1167 C 0.56795 0.61863 0.62874 0.0
H1168 H 0.54928 0.66209 0.40712 0.0
H1169 H 0.51849 0.70096 0.57702 0.0
H1170 H 0.5645 0.60761 0.48393 0.0
H1171 H 0.5412 0.60703 0.448 0.0
H1172 H 0.56287 0.62153 0.40836 0.0
H1173 H 0.51414 0.68305 0.67758 0.0
H1174 H 0.50273 0.65569 0.66327 0.0
H1175 H 0.52822 0.65427 0.68683 0.0
H1176 H 0.49636 0.57786 0.61592 0.0
H1177 H 0.55587 0.57786 0.683 0.0
H1178 H 0.50435 0.62012 0.49806 0.0
H1179 H 0.49126 0.63602 0.56896 0.0
H1180 H 0.4842 0.60673 0.54902 0.0
H1181 H 0.5763 0.62138 0.58029 0.0
H1182 H 0.57861 0.60751 0.65556 0.0
H1183 H 0.56421 0.63656 0.65323 0.0
C1184 C 0.86201 0.52715 0.62256 0.0
C1185 C 0.86229 0.52025 0.5582 0.0
C1186 C 0.8808 0.52757 0.64901 0.0
C1187 C 0.90034 0.52126 0.60998 0.0
C1188 C 0.90064 0.51501 0.54454 0.0
C1189 C 0.88171 0.51451 0.51969 0.0
C1190 C 0.87973 0.53411 0.71908 0.0
C1191 C 0.921 0.50833 0.50083 0.0
C1192 C 0.95235 0.53827 0.65459 0.0
C1193 C 0.96117 0.51633 0.67449 0.0
C1194 C 0.93226 0.54041 0.63573 0.0
C1195 C 0.92055 0.52021 0.63721 0.0
C1196 C 0.92907 0.49829 0.65952 0.0
C1197 C 0.94922 0.4966 0.67743 0.0
C1198 C 0.92385 0.5641 0.61214 0.0
C1199 C 0.91713 0.47635 0.6629 0.0
H1200 H 0.84708 0.53152 0.65264 0.0
H1201 H 0.88209 0.50952 0.46966 0.0
H1202 H 0.88546 0.51826 0.74451 0.0
H1203 H 0.89004 0.54842 0.72555 0.0
H1204 H 0.86355 0.54034 0.74181 0.0
H1205 H 0.91861 0.50487 0.45056 0.0
H1206 H 0.93141 0.52292 0.50181 0.0
H1207 H 0.92924 0.49197 0.5178 0.0
H1208 H 0.96134 0.55366 0.65219 0.0
H1209 H 0.95572 0.47957 0.69291 0.0
H1210 H 0.90793 0.56965 0.6378 0.0
H1211 H 0.92252 0.56214 0.56057 0.0
H1212 H 0.93406 0.57856 0.61855 0.0
H1213 H 0.90179 0.48039 0.69367 0.0
H1214 H 0.92579 0.46077 0.68225 0.0
H1215 H 0.91393 0.47119 0.61452 0.0
loop_
_geom_bond_atom_site_label_1
_geom_bond_atom_site_label_2
_geom_bond_distance
_geom_bond_site_symmetry_2
_ccdc_geom_bond_type
C0 C1 1.384 . S
C0 H13 0.947 . S
C0 C35 1.382 . S
C1 C0 1.384 . S
C1 C2 1.378 . S
C2 C1 1.378 . S
C2 C3 1.378 . S
C2 H14 0.952 . S
C3 C2 1.378 . S
C3 H15 0.950 . S
C3 C34 1.383 . S
H4 C23 0.947 . S
H5 C24 0.946 . S
H6 C26 0.953 . S
H7 C27 0.945 . S
H8 C29 0.952 . S
H9 C30 0.949 . S
H10 C32 0.950 . S
H11 C33 0.948 . S
H12 C35 0.951 . S
H13 C0 0.947 . S
H14 C2 0.952 . S
H15 C3 0.950 . S
N16 C19 1.382 . S
N16 C21 1.363 . S
N17 C19 1.371 . S
N17 C20 1.372 . S
N18 C20 1.361 . S
N18 C21 1.377 . S
C19 N16 1.382 . S
C19 N17 1.371 . S
C19 C22 1.480 . S
C20 N17 1.372 . S
C20 N18 1.361 . S
C20 C28 1.457 . S
C21 N16 1.363 . S
C21 N18 1.377 . S
C21 C34 1.479 . S
C22 C19 1.480 . S
C22 C23 1.383 . S
C22 C27 1.385 . S
C23 H4 0.947 . S
C23 C22 1.383 . S
C23 C24 1.388 . S
C24 H5 0.946 . S
C24 C23 1.388 . S
C24 C25 1.384 . S
C25 C24 1.384 . S
C25 C26 1.377 . S
C26 H6 0.953 . S
C26 C25 1.377 . S
C26 C27 1.369 . S
C27 H7 0.945 . S
C27 C22 1.385 . S
C27 C26 1.369 . S
C28 C20 1.457 . S
C28 C29 1.372 . S
C28 C33 1.364 . S
C29 H8 0.952 . S
C29 C28 1.372 . S
C29 C30 1.389 . S
C30 H9 0.949 . S
C30 C29 1.389 . S
C30 C31 1.387 . S
C31 C30 1.387 . S
C31 C32 1.372 . S
C32 H10 0.950 . S
C32 C31 1.372 . S
C32 C33 1.379 . S
C33 H11 0.948 . S
C33 C28 1.364 . S
C33 C32 1.379 . S
C34 C3 1.383 . S
C34 C21 1.479 . S
C34 C35 1.398 . S
C35 C0 1.382 . S
C35 H12 0.951 . S
C35 C34 1.398 . S
C36 C37 1.384 . S
C36 H49 0.947 . S
C36 C71 1.382 . S
C37 C36 1.384 . S
C37 C38 1.378 . S
C38 C37 1.378 . S
C38 C39 1.377 . S
C38 H50 0.952 . S
C39 C38 1.377 . S
C39 H51 0.949 1_655 S
C39 C70 1.385 . S
H40 C59 0.947 . S
H41 C60 0.946 . S
H42 C62 0.953 . S
H43 C63 0.944 . S
H44 C65 0.952 . S
H45 C66 0.949 . S
H46 C68 0.935 1_455 S
H47 C69 0.962 . S
H48 C71 0.951 . S
H49 C36 0.947 . S
H50 C38 0.952 . S
H51 C39 0.949 1_455 S
N52 C55 1.382 . S
N52 C57 1.370 . S
N53 C55 1.371 . S
N53 C56 1.374 . S
N54 C56 1.360 . S
N54 C57 1.380 . S
C55 N52 1.382 . S
C55 N53 1.371 . S
C55 C58 1.480 . S
C56 N53 1.374 . S
C56 N54 1.360 . S
C56 C64 1.456 . S
C57 N52 1.370 . S
C57 N54 1.380 . S
C57 C70 1.477 . S
C58 C55 1.480 . S
C58 C59 1.383 . S
C58 C63 1.385 1_655 S
C59 H40 0.947 . S
C59 C58 1.383 . S
C59 C60 1.388 . S
C60 H41 0.946 . S
C60 C59 1.388 . S
C60 C61 1.384 . S
C61 C60 1.384 . S
C61 C62 1.377 . S
C62 H42 0.953 . S
C62 C61 1.377 . S
C62 C63 1.370 1_655 S
C63 H43 0.944 . S
C63 C58 1.385 1_455 S
C63 C62 1.370 1_455 S
C64 C56 1.456 . S
C64 C65 1.389 . S
C64 C69 1.349 1_655 S
C65 H44 0.952 . S
C65 C64 1.389 . S
C65 C66 1.389 . S
C66 H45 0.949 . S
C66 C65 1.389 . S
C66 C67 1.387 . S
C67 C66 1.387 . S
C67 C68 1.384 . S
C68 H46 0.935 1_655 S
C68 C67 1.384 . S
C68 C69 1.373 1_655 S
C69 H47 0.962 . S
C69 C64 1.349 1_455 S
C69 C68 1.373 1_455 S
C70 C39 1.385 . S
C70 C57 1.477 . S
C70 C71 1.398 . S
C71 C36 1.382 . S
C71 H48 0.951 . S
C71 C70 1.398 . S
C72 C73 1.383 1_565 S
C72 H85 0.948 . S
C72 C107 1.381 1_565 S
C73 C72 1.383 1_545 S
C73 C74 1.378 . S
C74 C73 1.378 . S
C74 C75 1.378 . S
C74 H86 0.952 . S
C75 C74 1.378 . S
C75 H87 0.950 . S
C75 C106 1.383 . S
H76 C95 0.947 . S
H77 C96 0.951 . S
H78 C98 0.953 . S
H79 C99 0.945 . S
H80 C101 0.951 1_565 S
H81 C102 0.954 . S
H82 C104 0.950 . S
H83 C105 0.948 . S
H84 C107 0.951 1_565 S
H85 C72 0.948 . S
H86 C74 0.952 . S
H87 C75 0.950 . S
N88 C91 1.382 . S
N88 C93 1.363 . S
N89 C91 1.371 . S
N89 C92 1.372 . S
N90 C92 1.361 . S
N90 C93 1.377 . S
C91 N88 1.382 . S
C91 N89 1.371 . S
C91 C94 1.480 . S
C92 N89 1.372 . S
C92 N90 1.361 . S
C92 C100 1.457 . S
C93 N88 1.363 . S
C93 N90 1.377 . S
C93 C106 1.479 . S
C94 C91 1.480 . S
C94 C95 1.383 . S
C94 C99 1.385 . S
C95 H76 0.947 . S
C95 C94 1.383 . S
C95 C96 1.389 1_545 S
C96 H77 0.951 . S
C96 C95 1.389 1_565 S
C96 C97 1.380 1_565 S
C97 C96 1.380 1_545 S
C97 C98 1.377 . S
C98 H78 0.953 . S
C98 C97 1.377 . S
C98 C99 1.369 . S
C99 H79 0.945 . S
C99 C94 1.385 . S
C99 C98 1.369 . S
C100 C92 1.457 . S
C100 C101 1.375 . S
C100 C105 1.364 . S
C101 H80 0.951 1_545 S
C101 C100 1.375 . S
C101 C102 1.384 1_545 S
C102 H81 0.954 . S
C102 C101 1.384 1_565 S
C102 C103 1.387 1_565 S
C103 C102 1.387 1_545 S
C103 C104 1.372 . S
C104 H82 0.950 . S
C104 C103 1.372 . S
C104 C105 1.379 . S
C105 H83 0.948 . S
C105 C100 1.364 . S
C105 C104 1.379 . S
C106 C75 1.383 . S
C106 C93 1.479 . S
C106 C107 1.398 . S
C107 C72 1.381 1_545 S
C107 H84 0.951 1_545 S
C107 C106 1.398 . S
C108 C109 1.384 . S
C108 H121 0.947 . S
C108 C143 1.382 1_556 S
C109 C108 1.384 . S
C109 C110 1.378 . S
C110 C109 1.378 . S
C110 C111 1.378 . S
C110 H122 0.952 . S
C111 C110 1.378 . S
C111 H123 0.950 . S
C111 C142 1.383 1_556 S
H112 C131 0.947 1_556 S
H113 C132 0.946 1_556 S
H114 C134 0.953 . S
H115 C135 0.945 . S
H116 C137 0.952 . S
H117 C138 0.949 . S
H118 C140 0.950 . S
H119 C141 0.948 . S
H120 C143 0.951 . S
H121 C108 0.947 . S
H122 C110 0.952 . S
H123 C111 0.950 . S
N124 C127 1.382 . S
N124 C129 1.363 . S
N125 C127 1.371 . S
N125 C128 1.372 . S
N126 C128 1.361 . S
N126 C129 1.377 . S
C127 N124 1.382 . S
C127 N125 1.371 . S
C127 C130 1.480 . S
C128 N125 1.372 . S
C128 N126 1.361 . S
C128 C136 1.457 . S
C129 N124 1.363 . S
C129 N126 1.377 . S
C129 C142 1.479 . S
C130 C127 1.480 . S
C130 C131 1.383 . S
C130 C135 1.385 . S
C131 H112 0.947 1_554 S
C131 C130 1.383 . S
C131 C132 1.388 . S
C132 H113 0.946 1_554 S
C132 C131 1.388 . S
C132 C133 1.384 . S
C133 C132 1.384 . S
C133 C134 1.377 . S
C134 H114 0.953 . S
C134 C133 1.377 . S
C134 C135 1.369 . S
C135 H115 0.945 . S
C135 C130 1.385 . S
C135 C134 1.369 . S
C136 C128 1.457 . S
C136 C137 1.372 . S
C136 C141 1.364 . S
C137 H116 0.952 . S
C137 C136 1.372 . S
C137 C138 1.389 . S
C138 H117 0.949 . S
C138 C137 1.389 . S
C138 C139 1.387 . S
C139 C138 1.387 . S
C139 C140 1.372 . S
C140 H118 0.950 . S
C140 C139 1.372 . S
C140 C141 1.379 . S
C141 H119 0.948 . S
C141 C136 1.364 . S
C141 C140 1.379 . S
C142 C111 1.383 1_554 S
C142 C129 1.479 . S
C142 C143 1.398 . S
C143 C108 1.382 1_554 S
C143 H120 0.951 . S
C143 C142 1.398 . S
C144 C145 1.384 . S
C144 H157 0.947 . S
C144 C179 1.382 . S
C145 C144 1.384 . S
C145 C146 1.378 . S
C146 C145 1.378 . S
C146 C147 1.378 . S
C146 H158 0.952 . S
C147 C146 1.378 . S
C147 H159 0.950 . S
C147 C178 1.383 . S
H148 C167 0.947 . S
H149 C168 0.946 . S
H150 C170 0.953 . S
H151 C171 0.945 . S
H152 C173 0.952 . S
H153 C174 0.949 . S
H154 C176 0.950 . S
H155 C177 0.948 . S
H156 C179 0.951 . S
H157 C144 0.947 . S
H158 C146 0.952 . S
H159 C147 0.950 . S
N160 C163 1.382 1_556 S
N160 C165 1.363 . S
N161 C163 1.371 . S
N161 C164 1.372 . S
N162 C164 1.361 1_556 S
N162 C165 1.377 . S
C163 N160 1.382 1_554 S
C163 N161 1.371 . S
C163 C166 1.480 . S
C164 N161 1.372 . S
C164 N162 1.361 1_554 S
C164 C172 1.457 . S
C165 N160 1.363 . S
C165 N162 1.377 . S
C165 C178 1.479 . S
C166 C163 1.480 . S
C166 C167 1.383 1_554 S
C166 C171 1.385 . S
C167 H148 0.947 . S
C167 C166 1.383 1_556 S
C167 C168 1.388 . S
C168 H149 0.946 . S
C168 C167 1.388 . S
C168 C169 1.384 1_556 S
C169 C168 1.384 1_554 S
C169 C170 1.377 . S
C170 H150 0.953 . S
C170 C169 1.377 . S
C170 C171 1.369 . S
C171 H151 0.945 . S
C171 C166 1.385 . S
C171 C170 1.369 . S
C172 C164 1.457 . S
C172 C173 1.372 . S
C172 C177 1.364 . S
C173 H152 0.952 . S
C173 C172 1.372 . S
C173 C174 1.389 . S
C174 H153 0.949 . S
C174 C173 1.389 . S
C174 C175 1.387 . S
C175 C174 1.387 . S
C175 C176 1.372 . S
C176 H154 0.950 . S
C176 C175 1.372 . S
C176 C177 1.379 . S
C177 H155 0.948 . S
C177 C172 1.364 . S
C177 C176 1.379 . S
C178 C147 1.383 . S
C178 C165 1.479 . S
C178 C179 1.398 . S
C179 C144 1.382 . S
C179 H156 0.951 . S
C179 C178 1.398 . S
C180 C181 1.384 . S
C180 H193 0.947 . S
C180 C215 1.382 . S
C181 C180 1.384 . S
C181 C182 1.378 . S
C182 C181 1.378 . S
C182 C183 1.378 . S
C182 H194 0.952 . S
C183 C182 1.378 . S
C183 H195 0.950 . S
C183 C214 1.383 . S
H184 C203 0.947 . S
H185 C204 0.946 . S
H186 C206 0.953 . S
H187 C207 0.945 . S
H188 C209 0.952 . S
H189 C210 0.949 . S
H190 C212 0.950 . S
H191 C213 0.948 . S
H192 C215 0.951 1_554 S
H193 C180 0.947 . S
H194 C182 0.952 . S
H195 C183 0.950 . S
N196 C199 1.382 . S
N196 C201 1.363 . S
N197 C199 1.371 . S
N197 C200 1.372 . S
N198 C200 1.361 . S
N198 C201 1.377 . S
C199 N196 1.382 . S
C199 N197 1.371 . S
C199 C202 1.480 . S
C200 N197 1.372 . S
C200 N198 1.361 . S
C200 C208 1.457 . S
C201 N196 1.363 . S
C201 N198 1.377 . S
C201 C214 1.479 1_554 S
C202 C199 1.480 . S
C202 C203 1.383 . S
C202 C207 1.385 . S
C203 H184 0.947 . S
C203 C202 1.383 . S
C203 C204 1.388 . S
C204 H185 0.946 . S
C204 C203 1.388 . S
C204 C205 1.384 . S
C205 C204 1.384 . S
C205 C206 1.377 . S
C206 H186 0.953 . S
C206 C205 1.377 . S
C206 C207 1.369 . S
C207 H187 0.945 . S
C207 C202 1.385 . S
C207 C206 1.369 . S
C208 C200 1.457 . S
C208 C209 1.372 . S
C208 C213 1.364 . S
C209 H188 0.952 . S
C209 C208 1.372 . S
C209 C210 1.389 . S
C210 H189 0.949 . S
C210 C209 1.389 . S
C210 C211 1.387 . S
C211 C210 1.387 . S
C211 C212 1.372 . S
C212 H190 0.950 . S
C212 C211 1.372 . S
C212 C213 1.379 . S
C213 H191 0.948 . S
C213 C208 1.364 . S
C213 C212 1.379 . S
C214 C183 1.383 . S
C214 C201 1.479 1_556 S
C214 C215 1.398 . S
C215 C180 1.382 . S
C215 H192 0.951 1_556 S
C215 C214 1.398 . S
C216 C217 1.384 . S
C216 H229 0.947 1_545 S
C216 C251 1.383 1_556 S
C217 C216 1.384 . S
C217 C218 1.378 . S
C218 C217 1.378 . S
C218 C219 1.378 1_556 S
C218 H230 0.952 . S
C219 C218 1.378 1_554 S
C219 H231 0.950 . S
C219 C250 1.383 . S
H220 C239 0.947 . S
H221 C240 0.950 . S
H222 C242 0.953 . S
H223 C243 0.945 . S
H224 C245 0.944 1_565 S
H225 C246 0.956 . S
H226 C248 0.950 . S
H227 C249 0.948 . S
H228 C251 0.951 1_565 S
H229 C216 0.947 1_565 S
H230 C218 0.952 . S
H231 C219 0.950 . S
N232 C235 1.382 . S
N232 C237 1.363 . S
N233 C235 1.371 . S
N233 C236 1.372 . S
N234 C236 1.361 . S
N234 C237 1.377 . S
C235 N232 1.382 . S
C235 N233 1.371 . S
C235 C238 1.480 . S
C236 N233 1.372 . S
C236 N234 1.361 . S
C236 C244 1.457 . S
C237 N232 1.363 . S
C237 N234 1.377 . S
C237 C250 1.479 . S
C238 C235 1.480 . S
C238 C239 1.383 . S
C238 C243 1.385 . S
C239 H220 0.947 . S
C239 C238 1.383 . S
C239 C240 1.385 1_545 S
C240 H221 0.950 . S
C240 C239 1.385 1_565 S
C240 C241 1.383 1_565 S
C241 C240 1.383 1_545 S
C241 C242 1.377 . S
C242 H222 0.953 . S
C242 C241 1.377 . S
C242 C243 1.369 . S
C243 H223 0.945 . S
C243 C238 1.385 . S
C243 C242 1.369 . S
C244 C236 1.457 . S
C244 C245 1.381 . S
C244 C249 1.364 . S
C245 H224 0.944 1_545 S
C245 C244 1.381 . S
C245 C246 1.390 1_545 S
C246 H225 0.956 . S
C246 C245 1.390 1_565 S
C246 C247 1.380 1_565 S
C247 C246 1.380 1_545 S
C247 C248 1.372 . S
C248 H226 0.950 . S
C248 C247 1.372 . S
C248 C249 1.379 . S
C249 H227 0.948 . S
C249 C244 1.364 . S
C249 C248 1.379 . S
C250 C219 1.383 . S
C250 C237 1.479 . S
C250 C251 1.398 . S
C251 C216 1.383 1_554 S
C251 H228 0.951 1_545 S
C251 C250 1.398 . S
C252 C253 1.384 . S
C252 H265 0.947 . S
C252 C287 1.382 . S
C253 C252 1.384 . S
C253 C254 1.378 . S
C254 C253 1.378 . S
C254 C255 1.378 . S
C254 H266 0.952 . S
C255 C254 1.378 . S
C255 H267 0.950 . S
C255 C286 1.383 . S
H256 C275 0.947 . S
H257 C276 0.946 . S
H258 C278 0.953 . S
H259 C279 0.945 . S
H260 C281 0.952 . S
H261 C282 0.949 . S
H262 C284 0.950 . S
H263 C285 0.948 . S
H264 C287 0.951 . S
H265 C252 0.947 . S
H266 C254 0.952 . S
H267 C255 0.950 . S
N268 C271 1.382 . S
N268 C273 1.363 . S
N269 C271 1.371 . S
N269 C272 1.372 . S
N270 C272 1.361 . S
N270 C273 1.377 . S
C271 N268 1.382 . S
C271 N269 1.371 . S
C271 C274 1.480 . S
C272 N269 1.372 . S
C272 N270 1.361 . S
C272 C280 1.457 . S
C273 N268 1.363 . S
C273 N270 1.377 . S
C273 C286 1.479 . S
C274 C271 1.480 . S
C274 C275 1.383 . S
C274 C279 1.385 . S
C275 H256 0.947 . S
C275 C274 1.383 . S
C275 C276 1.388 . S
C276 H257 0.946 . S
C276 C275 1.388 . S
C276 C277 1.384 . S
C277 C276 1.384 . S
C277 C278 1.377 . S
C278 H258 0.953 . S
C278 C277 1.377 . S
C278 C279 1.369 . S
C279 H259 0.945 . S
C279 C274 1.385 . S
C279 C278 1.369 . S
C280 C272 1.457 . S
C280 C281 1.372 . S
C280 C285 1.364 . S
C281 H260 0.952 . S
C281 C280 1.372 . S
C281 C282 1.389 . S
C282 H261 0.949 . S
C282 C281 1.389 . S
C282 C283 1.387 . S
C283 C282 1.387 . S
C283 C284 1.372 . S
C284 H262 0.950 . S
C284 C283 1.372 . S
C284 C285 1.379 . S
C285 H263 0.948 . S
C285 C280 1.364 . S
C285 C284 1.379 . S
C286 C255 1.383 . S
C286 C273 1.479 . S
C286 C287 1.398 . S
C287 C252 1.382 . S
C287 H264 0.951 . S
C287 C286 1.398 . S
Dy288 O291 2.307 1_545 S
Dy288 O293 2.395 1_655 S
Dy288 O294 2.379 . S
Dy288 O296 2.339 . S
Dy288 O298 2.298 . S
Dy288 O302 2.275 1_655 S
Dy288 C310 2.738 . S
Dy289 O292 2.298 . S
Dy289 O295 2.275 1_455 S
Dy289 O297 2.307 1_565 S
Dy289 O299 2.416 . S
Dy289 O300 2.379 . S
Dy289 O303 2.339 . S
Dy289 C319 2.738 . S
C290 O302 1.254 1_565 S
C290 O303 1.257 . S
O291 Dy288 2.307 1_565 S
O291 C301 1.266 . S
O292 Dy289 2.298 . S
O292 C301 1.236 1_455 S
O293 Dy288 2.395 1_455 S
O293 C310 1.255 1_455 S
O294 Dy288 2.379 . S
O294 C310 1.249 . S
O295 Dy289 2.275 1_655 S
O295 C311 1.254 1_565 S
O296 Dy288 2.339 . S
O296 C311 1.257 . S
O297 Dy289 2.307 1_545 S
O297 C312 1.266 . S
O298 Dy288 2.298 . S
O298 C312 1.236 1_655 S
O299 Dy289 2.416 . S
O299 C319 1.298 . S
O300 Dy289 2.379 . S
O300 C319 1.249 . S
C301 O291 1.266 . S
C301 O292 1.236 1_655 S
O302 Dy288 2.275 1_455 S
O302 C290 1.254 1_545 S
O303 Dy289 2.339 . S
O303 C290 1.257 . S
C304 C307 1.344 1_655 S
C304 C308 1.328 . S
C304 C310 1.516 . S
C305 C306 1.304 1_655 S
C305 C309 1.323 . S
C306 C305 1.304 1_455 S
C306 C307 1.371 . S
C306 H320 0.930 . S
C307 C304 1.344 1_455 S
C307 C306 1.371 . S
C307 H321 0.931 . S
C308 C304 1.328 . S
C308 C309 1.433 . S
C308 H322 0.931 . S
C309 C305 1.323 . S
C309 C308 1.433 . S
C309 H323 0.933 . S
C310 Dy288 2.738 . S
C310 O293 1.255 1_655 S
C310 O294 1.249 . S
C310 C304 1.516 . S
C311 O295 1.254 1_545 S
C311 O296 1.257 . S
C312 O297 1.266 . S
C312 O298 1.236 1_455 S
C313 C316 1.344 . S
C313 C317 1.328 . S
C313 C319 1.516 . S
C314 C315 1.304 . S
C314 C318 1.323 . S
C315 C314 1.304 . S
C315 C316 1.371 . S
C315 H324 0.930 1_455 S
C316 C313 1.344 . S
C316 C315 1.371 . S
C316 H325 0.931 1_455 S
C317 C313 1.328 . S
C317 C318 1.433 . S
C317 H326 0.931 . S
C318 C314 1.323 . S
C318 C317 1.433 . S
C318 H327 0.933 . S
C319 Dy289 2.738 . S
C319 O299 1.298 . S
C319 O300 1.249 . S
C319 C313 1.516 . S
H320 C306 0.930 . S
H321 C307 0.931 . S
H322 C308 0.931 . S
H323 C309 0.933 . S
H324 C315 0.930 1_655 S
H325 C316 0.931 1_655 S
H326 C317 0.931 . S
H327 C318 0.933 . S
Dy328 O331 2.307 . S
Dy328 O333 2.395 1_565 S
Dy328 O334 2.379 . S
Dy328 O336 2.339 . S
Dy328 O338 2.298 . S
Dy328 O342 2.275 1_565 S
Dy328 C350 2.738 . S
Dy329 O332 2.298 . S
Dy329 O335 2.275 1_545 S
Dy329 O337 2.307 . S
Dy329 O339 2.395 1_545 S
Dy329 O340 2.379 . S
Dy329 O343 2.339 . S
Dy329 C359 2.738 . S
C330 O342 1.254 . S
C330 O343 1.257 . S
O331 Dy328 2.307 . S
O331 C341 1.266 . S
O332 Dy329 2.298 . S
O332 C341 1.236 1_545 S
O333 Dy328 2.395 1_545 S
O333 C350 1.255 1_545 S
O334 Dy328 2.379 . S
O334 C350 1.249 . S
O335 Dy329 2.275 1_565 S
O335 C351 1.254 . S
O336 Dy328 2.339 . S
O336 C351 1.257 . S
O337 Dy329 2.307 . S
O337 C352 1.266 . S
O338 Dy328 2.298 . S
O338 C352 1.236 1_565 S
O339 Dy329 2.395 1_565 S
O339 C359 1.255 1_565 S
O340 Dy329 2.379 . S
O340 C359 1.249 . S
C341 O331 1.266 . S
C341 O332 1.236 1_565 S
O342 Dy328 2.275 1_545 S
O342 C330 1.254 . S
O343 Dy329 2.339 . S
O343 C330 1.257 . S
C344 C347 1.331 1_565 S
C344 C348 1.328 . S
C344 C350 1.516 . S
C345 C346 1.304 . S
C345 C349 1.323 . S
C346 C345 1.304 . S
C346 C347 1.369 1_565 S
C346 H360 0.930 1_565 S
C347 C344 1.331 1_545 S
C347 C346 1.369 1_545 S
C347 H361 0.947 . S
C348 C344 1.328 . S
C348 C349 1.433 . S
C348 H362 0.931 . S
C349 C345 1.323 . S
C349 C348 1.433 . S
C349 H363 0.933 . S
C350 Dy328 2.738 . S
C350 O333 1.255 1_565 S
C350 O334 1.249 . S
C350 C344 1.516 . S
C351 O335 1.254 . S
C351 O336 1.257 . S
C352 O337 1.266 . S
C352 O338 1.236 1_545 S
C353 C356 1.339 1_545 S
C353 C357 1.328 . S
C353 C359 1.516 . S
C354 C355 1.304 . S
C354 C358 1.323 . S
C355 C354 1.304 . S
C355 C356 1.370 1_545 S
C355 H364 0.930 1_545 S
C356 C353 1.339 1_565 S
C356 C355 1.370 1_565 S
C356 H365 0.937 . S
C357 C353 1.328 . S
C357 C358 1.433 . S
C357 H366 0.931 . S
C358 C354 1.323 . S
C358 C357 1.433 . S
C358 H367 0.933 . S
C359 Dy329 2.738 . S
C359 O339 1.255 1_545 S
C359 O340 1.249 . S
C359 C353 1.516 . S
H360 C346 0.930 1_545 S
H361 C347 0.947 . S
H362 C348 0.931 . S
H363 C349 0.933 . S
H364 C355 0.930 1_565 S
H365 C356 0.937 . S
H366 C357 0.931 . S
H367 C358 0.933 . S
Dy368 O371 2.307 . S
Dy368 O373 2.395 . S
Dy368 O374 2.379 . S
Dy368 O376 2.339 . S
Dy368 O378 2.298 . S
Dy368 O382 2.275 . S
Dy368 C390 2.738 . S
Dy369 O372 2.298 . S
Dy369 O375 2.275 . S
Dy369 O377 2.307 . S
Dy369 O379 2.395 . S
Dy369 O380 2.379 . S
Dy369 O383 2.339 . S
Dy369 C399 2.738 . S
C370 O382 1.254 . S
C370 O383 1.257 . S
O371 Dy368 2.307 . S
O371 C381 1.266 . S
O372 Dy369 2.298 . S
O372 C381 1.236 . S
O373 Dy368 2.395 . S
O373 C390 1.255 . S
O374 Dy368 2.379 . S
O374 C390 1.249 . S
O375 Dy369 2.275 . S
O375 C391 1.254 . S
O376 Dy368 2.339 . S
O376 C391 1.257 . S
O377 Dy369 2.307 . S
O377 C392 1.266 . S
O378 Dy368 2.298 . S
O378 C392 1.236 . S
O379 Dy369 2.395 . S
O379 C399 1.255 . S
O380 Dy369 2.379 . S
O380 C399 1.249 . S
C381 O371 1.266 . S
C381 O372 1.236 . S
O382 Dy368 2.275 . S
O382 C370 1.254 . S
O383 Dy369 2.339 . S
O383 C370 1.257 . S
C384 C387 1.344 . S
C384 C388 1.328 . S
C384 C390 1.516 . S
C385 C386 1.304 . S
C385 C389 1.323 . S
C386 C385 1.304 . S
C386 C387 1.371 . S
C386 H400 0.930 . S
C387 C384 1.344 . S
C387 C386 1.371 . S
C387 H401 0.931 . S
C388 C384 1.328 . S
C388 C389 1.433 . S
C388 H402 0.931 . S
C389 C385 1.323 . S
C389 C388 1.433 . S
C389 H403 0.933 . S
C390 Dy368 2.738 . S
C390 O373 1.255 . S
C390 O374 1.249 . S
C390 C384 1.516 . S
C391 O375 1.254 . S
C391 O376 1.257 . S
C392 O377 1.266 . S
C392 O378 1.236 . S
C393 C396 1.344 . S
C393 C397 1.328 . S
C393 C399 1.516 . S
C394 C395 1.304 . S
C394 C398 1.323 . S
C395 C394 1.304 . S
C395 C396 1.371 . S
C395 H404 0.930 . S
C396 C393 1.344 . S
C396 C395 1.371 . S
C396 H405 0.931 . S
C397 C393 1.328 . S
C397 C398 1.433 . S
C397 H406 0.931 . S
C398 C394 1.323 . S
C398 C397 1.433 . S
C398 H407 0.933 . S
C399 Dy369 2.738 . S
C399 O379 1.255 . S
C399 O380 1.249 . S
C399 C393 1.516 . S
H400 C386 0.930 . S
H401 C387 0.931 . S
H402 C388 0.931 . S
H403 C389 0.933 . S
H404 C395 0.930 . S
H405 C396 0.931 . S
H406 C397 0.931 . S
H407 C398 0.933 . S
Dy408 O411 2.307 1_455 S
Dy408 O413 2.395 . S
Dy408 O414 2.379 . S
Dy408 O416 2.339 . S
Dy408 O418 2.298 . S
Dy408 O422 2.275 . S
Dy408 C430 2.738 . S
Dy409 O412 2.298 . S
Dy409 O415 2.286 . S
Dy409 O417 2.307 1_655 S
Dy409 O419 2.395 . S
Dy409 O420 2.379 . S
Dy409 O423 2.339 . S
Dy409 C439 2.738 . S
C410 O422 1.254 . S
C410 O423 1.257 1_455 S
O411 Dy408 2.307 1_655 S
O411 C421 1.266 . S
O412 Dy409 2.298 . S
O412 C421 1.236 . S
O413 Dy408 2.395 . S
O413 C430 1.255 . S
O414 Dy408 2.379 . S
O414 C430 1.249 . S
O415 Dy409 2.286 . S
O415 C431 1.245 1_655 S
O416 Dy408 2.339 . S
O416 C431 1.257 . S
O417 Dy409 2.307 1_455 S
O417 C432 1.266 . S
O418 Dy408 2.298 . S
O418 C432 1.236 . S
O419 Dy409 2.395 . S
O419 C439 1.255 . S
O420 Dy409 2.379 . S
O420 C439 1.249 . S
C421 O411 1.266 . S
C421 O412 1.236 . S
O422 Dy408 2.275 . S
O422 C410 1.254 . S
O423 Dy409 2.339 . S
O423 C410 1.257 1_655 S
C424 C427 1.344 . S
C424 C428 1.328 . S
C424 C430 1.516 . S
C425 C426 1.304 . S
C425 C429 1.323 . S
C426 C425 1.304 . S
C426 C427 1.371 . S
C426 H440 0.930 . S
C427 C424 1.344 . S
C427 C426 1.371 . S
C427 H441 0.931 . S
C428 C424 1.328 . S
C428 C429 1.433 . S
C428 H442 0.931 . S
C429 C425 1.323 . S
C429 C428 1.433 . S
C429 H443 0.933 . S
C430 Dy408 2.738 . S
C430 O413 1.255 . S
C430 O414 1.249 . S
C430 C424 1.516 . S
C431 O415 1.245 1_455 S
C431 O416 1.257 . S
C432 O417 1.266 . S
C432 O418 1.236 . S
C433 C436 1.344 . S
C433 C437 1.328 . S
C433 C439 1.516 . S
C434 C435 1.301 1_554 S
C434 C438 1.317 1_554 S
C435 C434 1.301 1_556 S
C435 C436 1.371 . S
C435 H444 0.930 1_556 S
C436 C433 1.344 . S
C436 C435 1.371 . S
C436 H445 0.931 . S
C437 C433 1.328 . S
C437 C438 1.433 . S
C437 H446 0.931 . S
C438 C434 1.317 1_556 S
C438 C437 1.433 . S
C438 H447 0.933 . S
C439 Dy409 2.738 . S
C439 O419 1.255 . S
C439 O420 1.249 . S
C439 C433 1.516 . S
H440 C426 0.930 . S
H441 C427 0.931 . S
H442 C428 0.931 . S
H443 C429 0.933 . S
H444 C435 0.930 1_554 S
H445 C436 0.931 . S
H446 C437 0.931 . S
H447 C438 0.933 . S
C448 C449 1.367 1_565 S
C448 C450 1.394 . S
C448 H464 0.931 . S
C449 C448 1.367 1_545 S
C449 C453 1.398 . S
C450 C448 1.394 . S
C450 C451 1.369 1_565 S
C450 C454 1.531 . S
C451 C450 1.369 1_545 S
C451 C452 1.410 . S
C451 C459 1.508 . S
C452 C451 1.410 . S
C452 C453 1.392 . S
C452 C455 1.511 . S
C453 C449 1.398 . S
C453 C452 1.392 . S
C453 H465 0.929 . S
C454 C450 1.531 . S
C454 H466 0.960 . S
C454 H467 0.962 . S
C454 H468 0.960 . S
C455 C452 1.511 . S
C455 H469 0.961 . S
C455 H470 0.961 . S
C455 H471 0.961 . S
C456 C457 1.363 1_565 S
C456 C458 1.363 . S
C456 H472 0.931 . S
C457 C456 1.363 1_545 S
C457 C461 1.419 . S
C458 C456 1.363 . S
C458 C459 1.359 1_565 S
C458 C462 1.524 . S
C459 C451 1.508 . S
C459 C458 1.359 1_545 S
C459 C460 1.411 . S
C460 C459 1.411 . S
C460 C461 1.404 . S
C460 C463 1.539 . S
C461 C457 1.419 . S
C461 C460 1.404 . S
C461 H473 0.930 . S
C462 C458 1.524 . S
C462 H474 0.956 . S
C462 H475 0.961 1_565 S
C462 H476 0.961 . S
C463 C460 1.539 . S
C463 H477 0.958 1_545 S
C463 H478 0.961 . S
C463 H479 0.960 . S
H464 C448 0.931 . S
H465 C453 0.929 . S
H466 C454 0.960 . S
H467 C454 0.962 . S
H468 C454 0.960 . S
H469 C455 0.961 . S
H470 C455 0.961 . S
H471 C455 0.961 . S
H472 C456 0.931 . S
H473 C461 0.930 . S
H474 C462 0.956 . S
H475 C462 0.961 1_545 S
H476 C462 0.961 . S
H477 C463 0.958 1_565 S
H478 C463 0.961 . S
H479 C463 0.960 . S
C480 C481 1.391 . S
C480 C482 1.394 . S
C480 H496 0.931 . S
C481 C480 1.391 . S
C481 C485 1.376 . S
C482 C480 1.394 . S
C482 C483 1.369 . S
C482 C486 1.531 . S
C483 C482 1.369 . S
C483 C484 1.410 . S
C483 C491 1.503 . S
C484 C483 1.410 . S
C484 C485 1.392 . S
C484 C487 1.511 . S
C485 C481 1.376 . S
C485 C484 1.392 . S
C485 H497 0.929 . S
C486 C482 1.531 . S
C486 H498 0.960 . S
C486 H499 0.962 . S
C486 H500 0.960 . S
C487 C484 1.511 . S
C487 H501 0.961 . S
C487 H502 0.961 . S
C487 H503 0.961 . S
C488 C489 1.370 . S
C488 C490 1.363 . S
C488 H504 0.931 . S
C489 C488 1.370 . S
C489 C493 1.408 . S
C490 C488 1.363 . S
C490 C491 1.370 . S
C490 C494 1.524 . S
C491 C483 1.503 . S
C491 C490 1.370 . S
C491 C492 1.403 . S
C492 C491 1.403 . S
C492 C493 1.404 . S
C492 C495 1.539 . S
C493 C489 1.408 . S
C493 C492 1.404 . S
C493 H505 0.930 . S
C494 C490 1.524 . S
C494 H506 0.956 . S
C494 H507 0.961 . S
C494 H508 0.961 . S
C495 C492 1.539 . S
C495 H509 0.958 . S
C495 H510 0.961 . S
C495 H511 0.960 . S
H496 C480 0.931 . S
H497 C485 0.929 . S
H498 C486 0.960 . S
H499 C486 0.962 . S
H500 C486 0.960 . S
H501 C487 0.961 . S
H502 C487 0.961 . S
H503 C487 0.961 . S
H504 C488 0.931 . S
H505 C493 0.930 . S
H506 C494 0.956 . S
H507 C494 0.961 . S
H508 C494 0.961 . S
H509 C495 0.958 . S
H510 C495 0.961 . S
H511 C495 0.960 . S
C512 C513 1.391 . S
C512 C514 1.394 . S
C512 H528 0.931 . S
C513 C512 1.391 . S
C513 C517 1.376 . S
C514 C512 1.394 . S
C514 C515 1.369 . S
C514 C518 1.531 . S
C515 C514 1.369 . S
C515 C516 1.410 . S
C515 C523 1.503 . S
C516 C515 1.410 . S
C516 C517 1.392 . S
C516 C519 1.511 . S
C517 C513 1.376 . S
C517 C516 1.392 . S
C517 H529 0.929 . S
C518 C514 1.531 . S
C518 H530 0.960 . S
C518 H531 0.962 . S
C518 H532 0.960 . S
C519 C516 1.511 . S
C519 H533 0.961 . S
C519 H534 0.961 . S
C519 H535 0.961 . S
C520 C521 1.370 . S
C520 C522 1.363 . S
C520 H536 0.931 . S
C521 C520 1.370 . S
C521 C525 1.408 . S
C522 C520 1.363 . S
C522 C523 1.370 . S
C522 C526 1.524 . S
C523 C515 1.503 . S
C523 C522 1.370 . S
C523 C524 1.403 . S
C524 C523 1.403 . S
C524 C525 1.404 . S
C524 C527 1.539 . S
C525 C521 1.408 . S
C525 C524 1.404 . S
C525 H537 0.930 . S
C526 C522 1.524 . S
C526 H538 0.956 . S
C526 H539 0.961 . S
C526 H540 0.961 . S
C527 C524 1.539 . S
C527 H541 0.958 . S
C527 H542 0.961 . S
C527 H543 0.960 . S
H528 C512 0.931 . S
H529 C517 0.929 . S
H530 C518 0.960 . S
H531 C518 0.962 . S
H532 C518 0.960 . S
H533 C519 0.961 . S
H534 C519 0.961 . S
H535 C519 0.961 . S
H536 C520 0.931 . S
H537 C525 0.930 . S
H538 C526 0.956 . S
H539 C526 0.961 . S
H540 C526 0.961 . S
H541 C527 0.958 . S
H542 C527 0.961 . S
H543 C527 0.960 . S
C544 C545 1.391 . S
C544 C546 1.394 . S
C544 H560 0.931 . S
C545 C544 1.391 . S
C545 C549 1.376 1_455 S
C546 C544 1.394 . S
C546 C547 1.369 . S
C546 C550 1.531 . S
C547 C546 1.369 . S
C547 C548 1.410 1_455 S
C547 C555 1.503 . S
C548 C547 1.410 1_655 S
C548 C549 1.392 . S
C548 C551 1.511 . S
C549 C545 1.376 1_655 S
C549 C548 1.392 . S
C549 H561 0.929 . S
C550 C546 1.531 . S
C550 H562 0.960 . S
C550 H563 0.962 . S
C550 H564 0.960 . S
C551 C548 1.511 . S
C551 H565 0.961 . S
C551 H566 0.961 . S
C551 H567 0.961 . S
C552 C553 1.370 . S
C552 C554 1.363 . S
C552 H568 0.931 . S
C553 C552 1.370 . S
C553 C557 1.408 1_455 S
C554 C552 1.363 . S
C554 C555 1.370 . S
C554 C558 1.524 . S
C555 C547 1.503 . S
C555 C554 1.370 . S
C555 C556 1.403 1_455 S
C556 C555 1.403 1_655 S
C556 C557 1.404 . S
C556 C559 1.539 . S
C557 C553 1.408 1_655 S
C557 C556 1.404 . S
C557 H569 0.930 . S
C558 C554 1.524 . S
C558 H570 0.956 . S
C558 H571 0.961 . S
C558 H572 0.961 . S
C559 C556 1.539 . S
C559 H573 0.958 . S
C559 H574 0.961 . S
C559 H575 0.960 . S
H560 C544 0.931 . S
H561 C549 0.929 . S
H562 C550 0.960 . S
H563 C550 0.962 . S
H564 C550 0.960 . S
H565 C551 0.961 . S
H566 C551 0.961 . S
H567 C551 0.961 . S
H568 C552 0.931 . S
H569 C557 0.930 . S
H570 C558 0.956 . S
H571 C558 0.961 . S
H572 C558 0.961 . S
H573 C559 0.958 . S
H574 C559 0.961 . S
H575 C559 0.960 . S
C576 C577 1.391 . S
C576 C578 1.394 . S
C576 H592 0.931 . S
C577 C576 1.391 . S
C577 C581 1.376 1_545 S
C578 C576 1.394 . S
C578 C579 1.369 . S
C578 C582 1.531 1_554 S
C579 C578 1.369 . S
C579 C580 1.410 1_545 S
C579 C587 1.503 1_554 S
C580 C579 1.410 1_565 S
C580 C581 1.392 . S
C580 C583 1.511 . S
C581 C577 1.376 1_565 S
C581 C580 1.392 . S
C581 H593 0.929 . S
C582 C578 1.531 1_556 S
C582 H594 0.960 . S
C582 H595 0.962 . S
C582 H596 0.960 . S
C583 C580 1.511 . S
C583 H597 0.961 . S
C583 H598 0.961 . S
C583 H599 0.961 1_565 S
C584 C585 1.353 1_565 S
C584 C586 1.363 . S
C584 H600 0.931 . S
C585 C584 1.353 1_545 S
C585 C589 1.426 . S
C586 C584 1.363 . S
C586 C587 1.370 1_565 S
C586 C590 1.524 . S
C587 C579 1.503 1_556 S
C587 C586 1.370 1_545 S
C587 C588 1.403 . S
C588 C587 1.403 . S
C588 C589 1.404 . S
C588 C591 1.539 . S
C589 C585 1.426 . S
C589 C588 1.404 . S
C589 H601 0.930 . S
C590 C586 1.524 . S
C590 H602 0.956 . S
C590 H603 0.961 . S
C590 H604 0.961 . S
C591 C588 1.539 . S
C591 H605 0.958 . S
C591 H606 0.961 . S
C591 H607 0.960 1_556 S
H592 C576 0.931 . S
H593 C581 0.929 . S
H594 C582 0.960 . S
H595 C582 0.962 . S
H596 C582 0.960 . S
H597 C583 0.961 . S
H598 C583 0.961 . S
H599 C583 0.961 1_545 S
H600 C584 0.931 . S
H601 C589 0.930 . S
H602 C590 0.956 . S
H603 C590 0.961 . S
H604 C590 0.961 . S
H605 C591 0.958 . S
H606 C591 0.961 . S
H607 C591 0.960 1_554 S
C608 C609 1.391 1_556 S
C608 C610 1.394 . S
C608 H624 0.931 . S
C609 C608 1.391 1_554 S
C609 C613 1.376 . S
C610 C608 1.394 . S
C610 C611 1.369 . S
C610 C614 1.531 . S
C611 C610 1.369 . S
C611 C612 1.410 . S
C611 C619 1.503 . S
C612 C611 1.410 . S
C612 C613 1.392 1_556 S
C612 C615 1.511 1_556 S
C613 C609 1.376 . S
C613 C612 1.392 1_554 S
C613 H625 0.929 . S
C614 C610 1.531 . S
C614 H626 0.960 . S
C614 H627 0.962 . S
C614 H628 0.960 . S
C615 C612 1.511 1_554 S
C615 H629 0.961 . S
C615 H630 0.961 1_554 S
C615 H631 0.961 . S
C616 C617 1.370 . S
C616 C618 1.363 . S
C616 H632 0.931 . S
C617 C616 1.370 . S
C617 C621 1.408 . S
C618 C616 1.363 . S
C618 C619 1.370 . S
C618 C622 1.524 . S
C619 C611 1.503 . S
C619 C618 1.370 . S
C619 C620 1.403 . S
C620 C619 1.403 . S
C620 C621 1.404 . S
C620 C623 1.539 . S
C621 C617 1.408 . S
C621 C620 1.404 . S
C621 H633 0.930 . S
C622 C618 1.524 . S
C622 H634 0.956 . S
C622 H635 0.961 . S
C622 H636 0.961 . S
C623 C620 1.539 . S
C623 H637 0.958 . S
C623 H638 0.961 . S
C623 H639 0.960 . S
H624 C608 0.931 . S
H625 C613 0.929 . S
H626 C614 0.960 . S
H627 C614 0.962 . S
H628 C614 0.960 . S
H629 C615 0.961 . S
H630 C615 0.961 1_556 S
H631 C615 0.961 . S
H632 C616 0.931 . S
H633 C621 0.930 . S
H634 C622 0.956 . S
H635 C622 0.961 . S
H636 C622 0.961 . S
H637 C623 0.958 . S
H638 C623 0.961 . S
H639 C623 0.960 . S
C640 C641 1.391 . S
C640 C642 1.394 . S
C640 H656 0.931 . S
C641 C640 1.391 . S
C641 C645 1.376 . S
C642 C640 1.394 . S
C642 C643 1.369 . S
C642 C646 1.531 . S
C643 C642 1.369 . S
C643 C644 1.410 . S
C643 C651 1.503 . S
C644 C643 1.410 . S
C644 C645 1.392 . S
C644 C647 1.511 . S
C645 C641 1.376 . S
C645 C644 1.392 . S
C645 H657 0.929 . S
C646 C642 1.531 . S
C646 H658 0.960 . S
C646 H659 0.962 . S
C646 H660 0.960 . S
C647 C644 1.511 . S
C647 H661 0.961 . S
C647 H662 0.961 . S
C647 H663 0.961 . S
C648 C649 1.370 . S
C648 C650 1.363 . S
C648 H664 0.931 . S
C649 C648 1.370 . S
C649 C653 1.408 . S
C650 C648 1.363 . S
C650 C651 1.370 . S
C650 C654 1.524 . S
C651 C643 1.503 . S
C651 C650 1.370 . S
C651 C652 1.403 . S
C652 C651 1.403 . S
C652 C653 1.404 . S
C652 C655 1.539 . S
C653 C649 1.408 . S
C653 C652 1.404 . S
C653 H665 0.930 . S
C654 C650 1.524 . S
C654 H666 0.956 . S
C654 H667 0.961 . S
C654 H668 0.961 . S
C655 C652 1.539 . S
C655 H669 0.958 . S
C655 H670 0.961 . S
C655 H671 0.960 . S
H656 C640 0.931 . S
H657 C645 0.929 . S
H658 C646 0.960 . S
H659 C646 0.962 . S
H660 C646 0.960 . S
H661 C647 0.961 . S
H662 C647 0.961 . S
H663 C647 0.961 . S
H664 C648 0.931 . S
H665 C653 0.930 . S
H666 C654 0.956 . S
H667 C654 0.961 . S
H668 C654 0.961 . S
H669 C655 0.958 . S
H670 C655 0.961 . S
H671 C655 0.960 . S
C672 C673 1.391 . S
C672 C674 1.394 . S
C672 H688 0.931 . S
C673 C672 1.391 . S
C673 C677 1.376 1_655 S
C674 C672 1.394 . S
C674 C675 1.369 . S
C674 C678 1.531 . S
C675 C674 1.369 . S
C675 C676 1.410 1_655 S
C675 C683 1.503 . S
C676 C675 1.410 1_455 S
C676 C677 1.392 . S
C676 C679 1.511 . S
C677 C673 1.376 1_455 S
C677 C676 1.392 . S
C677 H689 0.929 . S
C678 C674 1.531 . S
C678 H690 0.960 . S
C678 H691 0.962 . S
C678 H692 0.960 . S
C679 C676 1.511 . S
C679 H693 0.961 . S
C679 H694 0.961 . S
C679 H695 0.961 . S
C680 C681 1.372 1_655 S
C680 C682 1.363 . S
C680 H696 0.931 . S
C681 C680 1.372 1_455 S
C681 C685 1.406 . S
C682 C680 1.363 . S
C682 C683 1.370 1_556 S
C682 C686 1.524 1_556 S
C683 C675 1.503 . S
C683 C682 1.370 1_554 S
C683 C684 1.403 1_654 S
C684 C683 1.403 1_456 S
C684 C685 1.404 . S
C684 C687 1.539 . S
C685 C681 1.406 . S
C685 C684 1.404 . S
C685 H697 0.930 . S
C686 C682 1.524 1_554 S
C686 H698 0.956 . S
C686 H699 0.961 . S
C686 H700 0.961 . S
C687 C684 1.539 . S
C687 H701 0.922 1_455 S
C687 H702 0.961 . S
C687 H703 0.960 1_556 S
H688 C672 0.931 . S
H689 C677 0.929 . S
H690 C678 0.960 . S
H691 C678 0.962 . S
H692 C678 0.960 . S
H693 C679 0.961 . S
H694 C679 0.961 . S
H695 C679 0.961 . S
H696 C680 0.931 . S
H697 C685 0.930 . S
H698 C686 0.956 . S
H699 C686 0.961 . S
H700 C686 0.961 . S
H701 C687 0.922 1_655 S
H702 C687 0.961 . S
H703 C687 0.960 1_554 S
C704 C705 1.391 1_655 S
C704 C706 1.394 . S
C704 H720 0.931 . S
C705 C704 1.391 1_455 S
C705 C709 1.376 . S
C706 C704 1.394 . S
C706 C707 1.369 1_655 S
C706 C710 1.531 . S
C707 C706 1.369 1_455 S
C707 C708 1.410 . S
C707 C715 1.503 1_455 S
C708 C707 1.410 . S
C708 C709 1.392 . S
C708 C711 1.511 . S
C709 C705 1.376 . S
C709 C708 1.392 . S
C709 H721 0.929 . S
C710 C706 1.531 . S
C710 H722 0.960 . S
C710 H723 0.962 . S
C710 H724 0.960 . S
C711 C708 1.511 . S
C711 H725 0.961 . S
C711 H726 0.961 . S
C711 H727 0.961 . S
C712 C713 1.370 . S
C712 C714 1.363 . S
C712 H728 0.931 . S
C713 C712 1.370 . S
C713 C717 1.408 . S
C714 C712 1.363 . S
C714 C715 1.370 . S
C714 C718 1.524 . S
C715 C707 1.503 1_655 S
C715 C714 1.370 . S
C715 C716 1.403 1_655 S
C716 C715 1.403 1_455 S
C716 C717 1.404 1_455 S
C716 C719 1.539 . S
C717 C713 1.408 . S
C717 C716 1.404 1_655 S
C717 H729 0.930 . S
C718 C714 1.524 . S
C718 H730 0.956 . S
C718 H731 0.961 . S
C718 H732 0.961 . S
C719 C716 1.539 . S
C719 H733 0.958 . S
C719 H734 0.961 . S
C719 H735 0.960 . S
H720 C704 0.931 . S
H721 C709 0.929 . S
H722 C710 0.960 . S
H723 C710 0.962 . S
H724 C710 0.960 . S
H725 C711 0.961 . S
H726 C711 0.961 . S
H727 C711 0.961 . S
H728 C712 0.931 . S
H729 C717 0.930 . S
H730 C718 0.956 . S
H731 C718 0.961 . S
H732 C718 0.961 . S
H733 C719 0.958 . S
H734 C719 0.961 . S
H735 C719 0.960 . S
C736 C737 1.392 1_565 S
C736 C738 1.394 . S
C736 H752 0.931 . S
C737 C736 1.392 1_545 S
C737 C741 1.375 . S
C738 C736 1.394 . S
C738 C739 1.369 . S
C738 C742 1.531 . S
C739 C738 1.369 . S
C739 C740 1.410 1_565 S
C739 C747 1.503 . S
C740 C739 1.410 1_545 S
C740 C741 1.392 . S
C740 C743 1.511 . S
C741 C737 1.375 . S
C741 C740 1.392 . S
C741 H753 0.929 . S
C742 C738 1.531 . S
C742 H754 0.960 . S
C742 H755 0.962 . S
C742 H756 0.960 . S
C743 C740 1.511 . S
C743 H757 0.961 . S
C743 H758 0.961 . S
C743 H759 0.961 . S
C744 C745 1.370 . S
C744 C746 1.363 . S
C744 H760 0.931 . S
C745 C744 1.370 . S
C745 C749 1.408 . S
C746 C744 1.363 . S
C746 C747 1.370 . S
C746 C750 1.524 1_565 S
C747 C739 1.503 . S
C747 C746 1.370 . S
C747 C748 1.403 . S
C748 C747 1.403 . S
C748 C749 1.404 . S
C748 C751 1.539 . S
C749 C745 1.408 . S
C749 C748 1.404 . S
C749 H761 0.930 . S
C750 C746 1.524 1_545 S
C750 H762 0.956 1_545 S
C750 H763 0.961 . S
C750 H764 0.961 . S
C751 C748 1.539 . S
C751 H765 0.958 . S
C751 H766 0.961 . S
C751 H767 0.960 . S
H752 C736 0.931 . S
H753 C741 0.929 . S
H754 C742 0.960 . S
H755 C742 0.962 . S
H756 C742 0.960 . S
H757 C743 0.961 . S
H758 C743 0.961 . S
H759 C743 0.961 . S
H760 C744 0.931 . S
H761 C749 0.930 . S
H762 C750 0.956 1_565 S
H763 C750 0.961 . S
H764 C750 0.961 . S
H765 C751 0.958 . S
H766 C751 0.961 . S
H767 C751 0.960 . S
C768 C769 1.391 . S
C768 C770 1.394 . S
C768 H784 0.931 . S
C769 C768 1.391 . S
C769 C773 1.376 . S
C770 C768 1.394 . S
C770 C771 1.369 . S
C770 C774 1.531 . S
C771 C770 1.369 . S
C771 C772 1.410 . S
C771 C779 1.503 . S
C772 C771 1.410 . S
C772 C773 1.392 . S
C772 C775 1.511 . S
C773 C769 1.376 . S
C773 C772 1.392 . S
C773 H785 0.929 . S
C774 C770 1.531 . S
C774 H786 0.960 . S
C774 H787 0.962 . S
C774 H788 0.960 . S
C775 C772 1.511 . S
C775 H789 0.961 . S
C775 H790 0.961 . S
C775 H791 0.961 . S
C776 C777 1.370 . S
C776 C778 1.363 . S
C776 H792 0.931 . S
C777 C776 1.370 . S
C777 C781 1.408 . S
C778 C776 1.363 . S
C778 C779 1.370 . S
C778 C782 1.524 . S
C779 C771 1.503 . S
C779 C778 1.370 . S
C779 C780 1.403 . S
C780 C779 1.403 . S
C780 C781 1.404 . S
C780 C783 1.539 . S
C781 C777 1.408 . S
C781 C780 1.404 . S
C781 H793 0.930 . S
C782 C778 1.524 . S
C782 H794 0.956 . S
C782 H795 0.961 . S
C782 H796 0.961 . S
C783 C780 1.539 . S
C783 H797 0.958 . S
C783 H798 0.961 . S
C783 H799 0.960 . S
H784 C768 0.931 . S
H785 C773 0.929 . S
H786 C774 0.960 . S
H787 C774 0.962 . S
H788 C774 0.960 . S
H789 C775 0.961 . S
H790 C775 0.961 . S
H791 C775 0.961 . S
H792 C776 0.931 . S
H793 C781 0.930 . S
H794 C782 0.956 . S
H795 C782 0.961 . S
H796 C782 0.961 . S
H797 C783 0.958 . S
H798 C783 0.961 . S
H799 C783 0.960 . S
C800 C801 1.391 . S
C800 C802 1.394 . S
C800 H816 0.931 . S
C801 C800 1.391 . S
C801 C805 1.376 . S
C802 C800 1.394 . S
C802 C803 1.369 . S
C802 C806 1.531 . S
C803 C802 1.369 . S
C803 C804 1.410 . S
C803 C811 1.503 . S
C804 C803 1.410 . S
C804 C805 1.392 . S
C804 C807 1.511 . S
C805 C801 1.376 . S
C805 C804 1.392 . S
C805 H817 0.929 . S
C806 C802 1.531 . S
C806 H818 0.960 . S
C806 H819 0.962 . S
C806 H820 0.960 . S
C807 C804 1.511 . S
C807 H821 0.961 . S
C807 H822 0.961 . S
C807 H823 0.961 . S
C808 C809 1.370 . S
C808 C810 1.363 . S
C808 H824 0.931 . S
C809 C808 1.370 . S
C809 C813 1.408 . S
C810 C808 1.363 . S
C810 C811 1.370 . S
C810 C814 1.524 . S
C811 C803 1.503 . S
C811 C810 1.370 . S
C811 C812 1.403 . S
C812 C811 1.403 . S
C812 C813 1.404 . S
C812 C815 1.539 . S
C813 C809 1.408 . S
C813 C812 1.404 . S
C813 H825 0.930 . S
C814 C810 1.524 . S
C814 H826 0.956 . S
C814 H827 0.961 . S
C814 H828 0.961 . S
C815 C812 1.539 . S
C815 H829 0.958 . S
C815 H830 0.961 . S
C815 H831 0.960 . S
H816 C800 0.931 . S
H817 C805 0.929 . S
H818 C806 0.960 . S
H819 C806 0.962 . S
H820 C806 0.960 . S
H821 C807 0.961 . S
H822 C807 0.961 . S
H823 C807 0.961 . S
H824 C808 0.931 . S
H825 C813 0.930 . S
H826 C814 0.956 . S
H827 C814 0.961 . S
H828 C814 0.961 . S
H829 C815 0.958 . S
H830 C815 0.961 . S
H831 C815 0.960 . S
C832 C833 1.391 . S
C832 C834 1.394 . S
C832 H848 0.931 . S
C833 C832 1.391 . S
C833 C837 1.376 1_655 S
C834 C832 1.394 . S
C834 C835 1.369 1_655 S
C834 C838 1.531 . S
C835 C834 1.369 1_455 S
C835 C836 1.410 . S
C835 C843 1.503 . S
C836 C835 1.410 . S
C836 C837 1.392 . S
C836 C839 1.511 . S
C837 C833 1.376 1_455 S
C837 C836 1.392 . S
C837 H849 0.929 . S
C838 C834 1.531 . S
C838 H850 0.960 . S
C838 H851 0.962 . S
C838 H852 0.960 . S
C839 C836 1.511 . S
C839 H853 0.961 1_554 S
C839 H854 0.961 1_554 S
C839 H855 0.961 . S
C840 C841 1.370 . S
C840 C842 1.363 . S
C840 H856 0.931 . S
C841 C840 1.370 . S
C841 C845 1.408 1_556 S
C842 C840 1.363 . S
C842 C843 1.370 1_556 S
C842 C846 1.524 1_455 S
C843 C835 1.503 . S
C843 C842 1.370 1_554 S
C843 C844 1.403 . S
C844 C843 1.403 . S
C844 C845 1.404 . S
C844 C847 1.539 . S
C845 C841 1.408 1_554 S
C845 C844 1.404 . S
C845 H857 0.930 . S
C846 C842 1.524 1_655 S
C846 H858 0.956 1_556 S
C846 H859 0.961 . S
C846 H860 0.961 . S
C847 C844 1.539 . S
C847 H861 0.958 . S
C847 H862 0.961 . S
C847 H863 0.960 . S
H848 C832 0.931 . S
H849 C837 0.929 . S
H850 C838 0.960 . S
H851 C838 0.962 . S
H852 C838 0.960 . S
H853 C839 0.961 1_556 S
H854 C839 0.961 1_556 S
H855 C839 0.961 . S
H856 C840 0.931 . S
H857 C845 0.930 . S
H858 C846 0.956 1_554 S
H859 C846 0.961 . S
H860 C846 0.961 . S
H861 C847 0.958 . S
H862 C847 0.961 . S
H863 C847 0.960 . S
C864 C865 1.394 . S
C864 C866 1.394 . S
C864 H880 0.931 . S
C865 C864 1.394 . S
C865 C869 1.372 1_565 S
C866 C864 1.394 . S
C866 C867 1.369 1_565 S
C866 C870 1.531 . S
C867 C866 1.369 1_545 S
C867 C868 1.410 . S
C867 C875 1.503 . S
C868 C867 1.410 . S
C868 C869 1.392 . S
C868 C871 1.511 . S
C869 C865 1.372 1_545 S
C869 C868 1.392 . S
C869 H881 0.929 . S
C870 C866 1.531 . S
C870 H882 0.960 . S
C870 H883 0.962 . S
C870 H884 0.960 . S
C871 C868 1.511 . S
C871 H885 0.961 . S
C871 H886 0.961 1_554 S
C871 H887 0.961 . S
C872 C873 1.370 . S
C872 C874 1.363 . S
C872 H888 0.931 . S
C873 C872 1.370 . S
C873 C877 1.408 1_556 S
C874 C872 1.363 . S
C874 C875 1.370 1_556 S
C874 C878 1.524 . S
C875 C867 1.503 . S
C875 C874 1.370 1_554 S
C875 C876 1.403 . S
C876 C875 1.403 . S
C876 C877 1.404 . S
C876 C879 1.539 . S
C877 C873 1.408 1_554 S
C877 C876 1.404 . S
C877 H889 0.930 . S
C878 C874 1.524 . S
C878 H890 0.956 1_545 S
C878 H891 0.961 . S
C878 H892 0.961 . S
C879 C876 1.539 . S
C879 H893 0.958 . S
C879 H894 0.961 . S
C879 H895 0.960 . S
H880 C864 0.931 . S
H881 C869 0.929 . S
H882 C870 0.960 . S
H883 C870 0.962 . S
H884 C870 0.960 . S
H885 C871 0.961 . S
H886 C871 0.961 1_556 S
H887 C871 0.961 . S
H888 C872 0.931 . S
H889 C877 0.930 . S
H890 C878 0.956 1_565 S
H891 C878 0.961 . S
H892 C878 0.961 . S
H893 C879 0.958 . S
H894 C879 0.961 . S
H895 C879 0.960 . S
C896 C897 1.391 . S
C896 C898 1.394 . S
C896 H912 0.931 . S
C897 C896 1.391 . S
C897 C901 1.376 . S
C898 C896 1.394 . S
C898 C899 1.369 . S
C898 C902 1.531 . S
C899 C898 1.369 . S
C899 C900 1.410 . S
C899 C907 1.503 . S
C900 C899 1.410 . S
C900 C901 1.392 . S
C900 C903 1.511 . S
C901 C897 1.376 . S
C901 C900 1.392 . S
C901 H913 0.929 . S
C902 C898 1.531 . S
C902 H914 0.960 . S
C902 H915 0.962 1_556 S
C902 H916 0.960 1_556 S
C903 C900 1.511 . S
C903 H917 0.961 . S
C903 H918 0.961 . S
C903 H919 0.961 . S
C904 C905 1.370 . S
C904 C906 1.363 . S
C904 H920 0.931 . S
C905 C904 1.370 . S
C905 C909 1.408 . S
C906 C904 1.363 . S
C906 C907 1.370 . S
C906 C910 1.524 . S
C907 C899 1.503 . S
C907 C906 1.370 . S
C907 C908 1.403 . S
C908 C907 1.403 . S
C908 C909 1.404 . S
C908 C911 1.539 . S
C909 C905 1.408 . S
C909 C908 1.404 . S
C909 H921 0.930 . S
C910 C906 1.524 . S
C910 H922 0.956 . S
C910 H923 0.961 . S
C910 H924 0.961 . S
C911 C908 1.539 . S
C911 H925 0.958 . S
C911 H926 0.961 . S
C911 H927 0.960 . S
H912 C896 0.931 . S
H913 C901 0.929 . S
H914 C902 0.960 . S
H915 C902 0.962 1_554 S
H916 C902 0.960 1_554 S
H917 C903 0.961 . S
H918 C903 0.961 . S
H919 C903 0.961 . S
H920 C904 0.931 . S
H921 C909 0.930 . S
H922 C910 0.956 . S
H923 C910 0.961 . S
H924 C910 0.961 . S
H925 C911 0.958 . S
H926 C911 0.961 . S
H927 C911 0.960 . S
C928 C929 1.391 . S
C928 C930 1.394 . S
C928 H944 0.931 . S
C929 C928 1.391 . S
C929 C933 1.376 . S
C930 C928 1.394 . S
C930 C931 1.369 . S
C930 C934 1.531 . S
C931 C930 1.369 . S
C931 C932 1.410 . S
C931 C939 1.503 . S
C932 C931 1.410 . S
C932 C933 1.392 . S
C932 C935 1.511 . S
C933 C929 1.376 . S
C933 C932 1.392 . S
C933 H945 0.929 . S
C934 C930 1.531 . S
C934 H946 0.960 . S
C934 H947 0.962 . S
C934 H948 0.960 . S
C935 C932 1.511 . S
C935 H949 0.961 . S
C935 H950 0.961 . S
C935 H951 0.961 . S
C936 C937 1.370 . S
C936 C938 1.363 . S
C936 H952 0.931 . S
C937 C936 1.370 . S
C937 C941 1.408 1_554 S
C938 C936 1.363 . S
C938 C939 1.370 . S
C938 C942 1.524 . S
C939 C931 1.503 . S
C939 C938 1.370 . S
C939 C940 1.403 . S
C940 C939 1.403 . S
C940 C941 1.404 1_554 S
C940 C943 1.546 . S
C941 C937 1.408 1_556 S
C941 C940 1.404 1_556 S
C941 H953 0.930 . S
C942 C938 1.524 . S
C942 H954 0.956 . S
C942 H955 0.961 . S
C942 H956 0.961 . S
C943 C940 1.546 . S
C943 H957 0.955 1_554 S
C943 H958 0.951 1_554 S
C943 H959 0.967 . S
H944 C928 0.931 . S
H945 C933 0.929 . S
H946 C934 0.960 . S
H947 C934 0.962 . S
H948 C934 0.960 . S
H949 C935 0.961 . S
H950 C935 0.961 . S
H951 C935 0.961 . S
H952 C936 0.931 . S
H953 C941 0.930 . S
H954 C942 0.956 . S
H955 C942 0.961 . S
H956 C942 0.961 . S
H957 C943 0.955 1_556 S
H958 C943 0.951 1_556 S
H959 C943 0.967 . S
C960 C961 1.391 . S
C960 C962 1.394 . S
C960 H976 0.931 1_455 S
C961 C960 1.391 . S
C961 C965 1.376 . S
C962 C960 1.394 . S
C962 C963 1.369 . S
C962 C966 1.531 1_455 S
C963 C962 1.369 . S
C963 C964 1.410 . S
C963 C971 1.503 . S
C964 C963 1.410 . S
C964 C965 1.392 . S
C964 C967 1.511 . S
C965 C961 1.376 . S
C965 C964 1.392 . S
C965 H977 0.929 . S
C966 C962 1.531 1_655 S
C966 H978 0.960 1_655 S
C966 H979 0.962 . S
C966 H980 0.960 . S
C967 C964 1.511 . S
C967 H981 0.961 . S
C967 H982 0.961 . S
C967 H983 0.961 . S
C968 C969 1.370 1_655 S
C968 C970 1.365 . S
C968 H984 0.931 . S
C969 C968 1.370 1_455 S
C969 C973 1.408 . S
C970 C968 1.365 . S
C970 C971 1.361 1_655 S
C970 C974 1.532 . S
C971 C963 1.503 . S
C971 C970 1.361 1_455 S
C971 C972 1.403 . S
C972 C971 1.403 . S
C972 C973 1.404 . S
C972 C975 1.539 . S
C973 C969 1.408 . S
C973 C972 1.404 . S
C973 H985 0.930 . S
C974 C970 1.532 . S
C974 H986 0.956 . S
C974 H987 0.961 . S
C974 H988 0.961 . S
C975 C972 1.539 . S
C975 H989 0.958 . S
C975 H990 0.961 . S
C975 H991 0.960 . S
H976 C960 0.931 1_655 S
H977 C965 0.929 . S
H978 C966 0.960 1_455 S
H979 C966 0.962 . S
H980 C966 0.960 . S
H981 C967 0.961 . S
H982 C967 0.961 . S
H983 C967 0.961 . S
H984 C968 0.931 . S
H985 C973 0.930 . S
H986 C974 0.956 . S
H987 C974 0.961 . S
H988 C974 0.961 . S
H989 C975 0.958 . S
H990 C975 0.961 . S
H991 C975 0.960 . S
C992 C993 1.391 1_565 S
C992 C994 1.394 . S
C992 H1008 0.931 . S
C993 C992 1.391 1_545 S
C993 C997 1.376 . S
C994 C992 1.394 . S
C994 C995 1.369 1_565 S
C994 C998 1.531 . S
C995 C994 1.369 1_545 S
C995 C996 1.410 . S
C995 C1003 1.503 . S
C996 C995 1.410 . S
C996 C997 1.392 . S
C996 C999 1.511 . S
C997 C993 1.376 . S
C997 C996 1.392 . S
C997 H1009 0.929 . S
C998 C994 1.531 . S
C998 H1010 0.960 . S
C998 H1011 0.962 . S
C998 H1012 0.960 . S
C999 C996 1.511 . S
C999 H1013 0.961 . S
C999 H1014 0.961 . S
C999 H1015 0.961 . S
C1000 C1001 1.353 1_565 S
C1000 C1002 1.369 . S
C1000 H1016 0.945 . S
C1001 C1000 1.353 1_545 S
C1001 C1005 1.408 . S
C1002 C1000 1.369 . S
C1002 C1003 1.370 1_565 S
C1002 C1006 1.524 . S
C1003 C995 1.503 . S
C1003 C1002 1.370 1_545 S
C1003 C1004 1.403 . S
C1004 C1003 1.403 . S
C1004 C1005 1.404 . S
C1004 C1007 1.539 . S
C1005 C1001 1.408 . S
C1005 C1004 1.404 . S
C1005 H1017 0.930 . S
C1006 C1002 1.524 . S
C1006 H1018 0.956 . S
C1006 H1019 0.961 1_565 S
C1006 H1020 0.961 . S
C1007 C1004 1.539 . S
C1007 H1021 0.958 . S
C1007 H1022 0.961 . S
C1007 H1023 0.960 . S
H1008 C992 0.931 . S
H1009 C997 0.929 . S
H1010 C998 0.960 . S
H1011 C998 0.962 . S
H1012 C998 0.960 . S
H1013 C999 0.961 . S
H1014 C999 0.961 . S
H1015 C999 0.961 . S
H1016 C1000 0.945 . S
H1017 C1005 0.930 . S
H1018 C1006 0.956 . S
H1019 C1006 0.961 1_545 S
H1020 C1006 0.961 . S
H1021 C1007 0.958 . S
H1022 C1007 0.961 . S
H1023 C1007 0.960 . S
C1024 C1025 1.391 . S
C1024 C1026 1.394 . S
C1024 H1040 0.931 . S
C1025 C1024 1.391 . S
C1025 C1029 1.376 1_554 S
C1026 C1024 1.394 . S
C1026 C1027 1.369 1_554 S
C1026 C1030 1.531 . S
C1027 C1026 1.369 1_556 S
C1027 C1028 1.410 . S
C1027 C1035 1.503 . S
C1028 C1027 1.410 . S
C1028 C1029 1.392 . S
C1028 C1031 1.511 . S
C1029 C1025 1.376 1_556 S
C1029 C1028 1.392 . S
C1029 H1041 0.929 . S
C1030 C1026 1.531 . S
C1030 H1042 0.960 . S
C1030 H1043 0.962 . S
C1030 H1044 0.960 . S
C1031 C1028 1.511 . S
C1031 H1045 0.961 . S
C1031 H1046 0.961 . S
C1031 H1047 0.961 . S
C1032 C1033 1.370 . S
C1032 C1034 1.363 . S
C1032 H1048 0.931 . S
C1033 C1032 1.370 . S
C1033 C1037 1.408 . S
C1034 C1032 1.363 . S
C1034 C1035 1.370 . S
C1034 C1038 1.524 . S
C1035 C1027 1.503 . S
C1035 C1034 1.370 . S
C1035 C1036 1.403 . S
C1036 C1035 1.403 . S
C1036 C1037 1.404 . S
C1036 C1039 1.539 1_556 S
C1037 C1033 1.408 . S
C1037 C1036 1.404 . S
C1037 H1049 0.930 . S
C1038 C1034 1.524 . S
C1038 H1050 0.956 . S
C1038 H1051 0.961 . S
C1038 H1052 0.961 . S
C1039 C1036 1.539 1_554 S
C1039 H1053 0.958 . S
C1039 H1054 0.961 . S
C1039 H1055 0.960 . S
H1040 C1024 0.931 . S
H1041 C1029 0.929 . S
H1042 C1030 0.960 . S
H1043 C1030 0.962 . S
H1044 C1030 0.960 . S
H1045 C1031 0.961 . S
H1046 C1031 0.961 . S
H1047 C1031 0.961 . S
H1048 C1032 0.931 . S
H1049 C1037 0.930 . S
H1050 C1038 0.956 . S
H1051 C1038 0.961 . S
H1052 C1038 0.961 . S
H1053 C1039 0.958 . S
H1054 C1039 0.961 . S
H1055 C1039 0.960 . S
C1056 C1057 1.391 . S
C1056 C1058 1.394 . S
C1056 H1072 0.931 . S
C1057 C1056 1.391 . S
C1057 C1061 1.376 . S
C1058 C1056 1.394 . S
C1058 C1059 1.369 . S
C1058 C1062 1.531 . S
C1059 C1058 1.369 . S
C1059 C1060 1.410 . S
C1059 C1067 1.503 . S
C1060 C1059 1.410 . S
C1060 C1061 1.392 . S
C1060 C1063 1.511 . S
C1061 C1057 1.376 . S
C1061 C1060 1.392 . S
C1061 H1073 0.929 . S
C1062 C1058 1.531 . S
C1062 H1074 0.960 . S
C1062 H1075 0.962 . S
C1062 H1076 0.960 . S
C1063 C1060 1.511 . S
C1063 H1077 0.961 . S
C1063 H1078 0.961 . S
C1063 H1079 0.961 . S
C1064 C1065 1.370 . S
C1064 C1066 1.363 . S
C1064 H1080 0.931 . S
C1065 C1064 1.370 . S
C1065 C1069 1.408 . S
C1066 C1064 1.363 . S
C1066 C1067 1.370 . S
C1066 C1070 1.524 . S
C1067 C1059 1.503 . S
C1067 C1066 1.370 . S
C1067 C1068 1.403 . S
C1068 C1067 1.403 . S
C1068 C1069 1.404 . S
C1068 C1071 1.539 . S
C1069 C1065 1.408 . S
C1069 C1068 1.404 . S
C1069 H1081 0.930 . S
C1070 C1066 1.524 . S
C1070 H1082 0.956 . S
C1070 H1083 0.961 . S
C1070 H1084 0.961 . S
C1071 C1068 1.539 . S
C1071 H1085 0.958 . S
C1071 H1086 0.961 . S
C1071 H1087 0.960 . S
H1072 C1056 0.931 . S
H1073 C1061 0.929 . S
H1074 C1062 0.960 . S
H1075 C1062 0.962 . S
H1076 C1062 0.960 . S
H1077 C1063 0.961 . S
H1078 C1063 0.961 . S
H1079 C1063 0.961 . S
H1080 C1064 0.931 . S
H1081 C1069 0.930 . S
H1082 C1070 0.956 . S
H1083 C1070 0.961 . S
H1084 C1070 0.961 . S
H1085 C1071 0.958 . S
H1086 C1071 0.961 . S
H1087 C1071 0.960 . S
C1088 C1089 1.391 1_455 S
C1088 C1090 1.394 . S
C1088 H1104 0.931 . S
C1089 C1088 1.391 1_655 S
C1089 C1093 1.376 . S
C1090 C1088 1.394 . S
C1090 C1091 1.369 1_455 S
C1090 C1094 1.531 . S
C1091 C1090 1.369 1_655 S
C1091 C1092 1.410 . S
C1091 C1099 1.503 . S
C1092 C1091 1.410 . S
C1092 C1093 1.392 . S
C1092 C1095 1.511 . S
C1093 C1089 1.376 . S
C1093 C1092 1.392 . S
C1093 H1105 0.929 . S
C1094 C1090 1.531 . S
C1094 H1106 0.960 . S
C1094 H1107 0.962 . S
C1094 H1108 0.960 . S
C1095 C1092 1.511 . S
C1095 H1109 0.961 . S
C1095 H1110 0.961 . S
C1095 H1111 0.961 . S
C1096 C1097 1.370 . S
C1096 C1098 1.363 . S
C1096 H1112 0.931 . S
C1097 C1096 1.370 . S
C1097 C1101 1.408 1_655 S
C1098 C1096 1.363 . S
C1098 C1099 1.370 . S
C1098 C1102 1.524 . S
C1099 C1091 1.503 . S
C1099 C1098 1.370 . S
C1099 C1100 1.403 1_655 S
C1100 C1099 1.403 1_455 S
C1100 C1101 1.404 . S
C1100 C1103 1.539 . S
C1101 C1097 1.408 1_455 S
C1101 C1100 1.404 . S
C1101 H1113 0.930 . S
C1102 C1098 1.524 . S
C1102 H1114 0.956 . S
C1102 H1115 0.961 . S
C1102 H1116 0.961 . S
C1103 C1100 1.539 . S
C1103 H1117 0.958 . S
C1103 H1118 0.961 . S
C1103 H1119 0.960 . S
H1104 C1088 0.931 . S
H1105 C1093 0.929 . S
H1106 C1094 0.960 . S
H1107 C1094 0.962 . S
H1108 C1094 0.960 . S
H1109 C1095 0.961 . S
H1110 C1095 0.961 . S
H1111 C1095 0.961 . S
H1112 C1096 0.931 . S
H1113 C1101 0.930 . S
H1114 C1102 0.956 . S
H1115 C1102 0.961 . S
H1116 C1102 0.961 . S
H1117 C1103 0.958 . S
H1118 C1103 0.961 . S
H1119 C1103 0.960 . S
C1120 C1121 1.392 1_565 S
C1120 C1122 1.394 . S
C1120 H1136 0.931 . S
C1121 C1120 1.392 1_545 S
C1121 C1125 1.375 . S
C1122 C1120 1.394 . S
C1122 C1123 1.366 1_565 S
C1122 C1126 1.531 . S
C1123 C1122 1.366 1_545 S
C1123 C1124 1.413 . S
C1123 C1131 1.502 1_545 S
C1124 C1123 1.413 . S
C1124 C1125 1.392 . S
C1124 C1127 1.511 . S
C1125 C1121 1.375 . S
C1125 C1124 1.392 . S
C1125 H1137 0.929 . S
C1126 C1122 1.531 . S
C1126 H1138 0.960 . S
C1126 H1139 0.962 . S
C1126 H1140 0.960 . S
C1127 C1124 1.511 . S
C1127 H1141 0.961 . S
C1127 H1142 0.961 . S
C1127 H1143 0.961 . S
C1128 C1129 1.370 . S
C1128 C1130 1.363 . S
C1128 H1144 0.931 . S
C1129 C1128 1.370 . S
C1129 C1133 1.408 1_565 S
C1130 C1128 1.363 . S
C1130 C1131 1.370 . S
C1130 C1134 1.524 . S
C1131 C1123 1.502 1_565 S
C1131 C1130 1.370 . S
C1131 C1132 1.403 1_565 S
C1132 C1131 1.403 1_545 S
C1132 C1133 1.404 . S
C1132 C1135 1.539 . S
C1133 C1129 1.408 1_545 S
C1133 C1132 1.404 . S
C1133 H1145 0.930 . S
C1134 C1130 1.524 . S
C1134 H1146 0.956 . S
C1134 H1147 0.961 . S
C1134 H1148 0.961 . S
C1135 C1132 1.539 . S
C1135 H1149 0.958 . S
C1135 H1150 0.961 . S
C1135 H1151 0.960 . S
H1136 C1120 0.931 . S
H1137 C1125 0.929 . S
H1138 C1126 0.960 . S
H1139 C1126 0.962 . S
H1140 C1126 0.960 . S
H1141 C1127 0.961 . S
H1142 C1127 0.961 . S
H1143 C1127 0.961 . S
H1144 C1128 0.931 . S
H1145 C1133 0.930 . S
H1146 C1134 0.956 . S
H1147 C1134 0.961 . S
H1148 C1134 0.961 . S
H1149 C1135 0.958 . S
H1150 C1135 0.961 . S
H1151 C1135 0.960 . S
C1152 C1153 1.391 . S
C1152 C1154 1.394 . S
C1152 H1168 0.931 . S
C1153 C1152 1.391 . S
C1153 C1157 1.376 . S
C1154 C1152 1.394 . S
C1154 C1155 1.369 . S
C1154 C1158 1.531 . S
C1155 C1154 1.369 . S
C1155 C1156 1.410 . S
C1155 C1163 1.503 . S
C1156 C1155 1.410 . S
C1156 C1157 1.392 . S
C1156 C1159 1.511 . S
C1157 C1153 1.376 . S
C1157 C1156 1.392 . S
C1157 H1169 0.929 . S
C1158 C1154 1.531 . S
C1158 H1170 0.960 . S
C1158 H1171 0.962 . S
C1158 H1172 0.960 . S
C1159 C1156 1.511 . S
C1159 H1173 0.961 . S
C1159 H1174 0.961 . S
C1159 H1175 0.961 . S
C1160 C1161 1.370 . S
C1160 C1162 1.363 . S
C1160 H1176 0.931 . S
C1161 C1160 1.370 . S
C1161 C1165 1.408 . S
C1162 C1160 1.363 . S
C1162 C1163 1.370 . S
C1162 C1166 1.524 . S
C1163 C1155 1.503 . S
C1163 C1162 1.370 . S
C1163 C1164 1.403 . S
C1164 C1163 1.403 . S
C1164 C1165 1.404 . S
C1164 C1167 1.539 . S
C1165 C1161 1.408 . S
C1165 C1164 1.404 . S
C1165 H1177 0.930 . S
C1166 C1162 1.524 . S
C1166 H1178 0.956 . S
C1166 H1179 0.961 . S
C1166 H1180 0.961 . S
C1167 C1164 1.539 . S
C1167 H1181 0.958 . S
C1167 H1182 0.961 . S
C1167 H1183 0.960 . S
H1168 C1152 0.931 . S
H1169 C1157 0.929 . S
H1170 C1158 0.960 . S
H1171 C1158 0.962 . S
H1172 C1158 0.960 . S
H1173 C1159 0.961 . S
H1174 C1159 0.961 . S
H1175 C1159 0.961 . S
H1176 C1160 0.931 . S
H1177 C1165 0.930 . S
H1178 C1166 0.956 . S
H1179 C1166 0.961 . S
H1180 C1166 0.961 . S
H1181 C1167 0.958 . S
H1182 C1167 0.961 . S
H1183 C1167 0.960 . S
C1184 C1185 1.391 . S
C1184 C1186 1.394 . S
C1184 H1200 0.931 . S
C1185 C1184 1.391 . S
C1185 C1189 1.376 . S
C1186 C1184 1.394 . S
C1186 C1187 1.369 . S
C1186 C1190 1.531 . S
C1187 C1186 1.369 . S
C1187 C1188 1.410 . S
C1187 C1195 1.503 . S
C1188 C1187 1.410 . S
C1188 C1189 1.392 . S
C1188 C1191 1.511 . S
C1189 C1185 1.376 . S
C1189 C1188 1.392 . S
C1189 H1201 0.929 . S
C1190 C1186 1.531 . S
C1190 H1202 0.960 . S
C1190 H1203 0.962 . S
C1190 H1204 0.960 . S
C1191 C1188 1.511 . S
C1191 H1205 0.961 . S
C1191 H1206 0.961 . S
C1191 H1207 0.961 . S
C1192 C1193 1.370 . S
C1192 C1194 1.363 . S
C1192 H1208 0.931 . S
C1193 C1192 1.370 . S
C1193 C1197 1.408 . S
C1194 C1192 1.363 . S
C1194 C1195 1.370 . S
C1194 C1198 1.524 . S
C1195 C1187 1.503 . S
C1195 C1194 1.370 . S
C1195 C1196 1.403 . S
C1196 C1195 1.403 . S
C1196 C1197 1.404 . S
C1196 C1199 1.539 . S
C1197 C1193 1.408 . S
C1197 C1196 1.404 . S
C1197 H1209 0.930 . S
C1198 C1194 1.524 . S
C1198 H1210 0.956 . S
C1198 H1211 0.961 . S
C1198 H1212 0.961 . S
C1199 C1196 1.539 . S
C1199 H1213 0.958 . S
C1199 H1214 0.961 . S
C1199 H1215 0.960 . S
H1200 C1184 0.931 . S
H1201 C1189 0.929 . S
H1202 C1190 0.960 . S
H1203 C1190 0.962 . S
H1204 C1190 0.960 . S
H1205 C1191 0.961 . S
H1206 C1191 0.961 . S
H1207 C1191 0.961 . S
H1208 C1192 0.931 . S
H1209 C1197 0.930 . S
H1210 C1198 0.956 . S
H1211 C1198 0.961 . S
H1212 C1198 0.961 . S
H1213 C1199 0.958 . S
H1214 C1199 0.961 . S
H1215 C1199 0.960 . S
C449 C241 1.963 . S
C457 C290 2.121 1_545 S
C489 C330 2.153 . S
C481 C277 2.087 . S
C521 C394 2.485 . S
C513 C169 2.386 . S
C553 C410 2.155 . S
C545 C205 1.942 . S
C585 C311 2.120 . S
C577 C97 1.997 . S
C609 C133 2.093 . S
C617 C351 2.152 . S
C641 C25 2.344 . S
C649 C385 2.488 1_554 S
C673 C61 1.859 . S
C681 C431 2.167 . S
C713 C305 0.376 . S
C705 C211 0.263 . S
C745 C345 0.578 . S
C737 C247 0.488 . S
C777 C381 0.492 . S
C769 C253 0.621 . S
C801 C175 0.620 . S
C809 C425 0.669 . S
C833 C67 0.276 . S
C841 C314 0.449 . S
C873 C354 0.581 . S
C865 C103 0.488 1_565 S
C905 C392 0.537 . S
C897 C109 0.431 . S
C929 C31 0.718 . S
C937 C434 0.662 . S
C961 C181 2.628 . S
C969 C312 2.918 . S
C993 C217 2.465 . S
C1001 C352 2.701 . S
C1033 C370 1.972 . S
C1025 C283 1.823 . S
C1065 C432 3.320 . S
C1057 C145 2.940 . S
C1089 C37 2.587 . S
C1097 C301 2.928 . S
C1129 C341 2.696 . S
C1121 C73 2.460 . S
C1161 C391 1.959 . S
C1153 C139 1.879 . S
C1185 C1 2.950 . S
C1193 C421 3.314 . S
