# Generated by pormake.
# Topology anh, (6,3)-cn, num edge types: 1
# Building blocks:
#     Node 0, Type 0, BuildingBlock: BETDEL_clean_sbu_0, # of connection points: 6
#     Node 1, Type 0, BuildingBlock: BETDEL_clean_sbu_0, # of connection points: 6
#     Node 2, Type 0, BuildingBlock: BETDEL_clean_sbu_0, # of connection points: 6
#     Node 3, Type 1, BuildingBlock: CUQRIR_clean_linker_1, # of connection points: 3
#     Node 4, Type 1, BuildingBlock: CUQRIR_clean_linker_1, # of connection points: 3
#     Node 5, Type 1, BuildingBlock: CUQRIR_clean_linker_1, # of connection points: 3
#     Node 6, Type 1, BuildingBlock: CUQRIR_clean_linker_1, # of connection points: 3
#     Node 7, Type 1, BuildingBlock: CUQRIR_clean_linker_1, # of connection points: 3
#     Node 8, Type 1, BuildingBlock: CUQRIR_clean_linker_1, # of connection points: 3
#     Edge 9, Type (0, 1), BuildingBlock: EZIPEK_clean_linker_0, # of connection points: 2
#     Edge 10, Type (0, 1), BuildingBlock: EZIPEK_clean_linker_0, # of connection points: 2
#     Edge 11, Type (0, 1), BuildingBlock: EZIPEK_clean_linker_0, # of connection points: 2
#     Edge 12, Type (0, 1), BuildingBlock: EZIPEK_clean_linker_0, # of connection points: 2
#     Edge 13, Type (0, 1), BuildingBlock: EZIPEK_clean_linker_0, # of connection points: 2
#     Edge 14, Type (0, 1), BuildingBlock: EZIPEK_clean_linker_0, # of connection points: 2
#     Edge 15, Type (0, 1), BuildingBlock: EZIPEK_clean_linker_0, # of connection points: 2
#     Edge 16, Type (0, 1), BuildingBlock: EZIPEK_clean_linker_0, # of connection points: 2
#     Edge 17, Type (0, 1), BuildingBlock: EZIPEK_clean_linker_0, # of connection points: 2
#     Edge 18, Type (0, 1), BuildingBlock: EZIPEK_clean_linker_0, # of connection points: 2
#     Edge 19, Type (0, 1), BuildingBlock: EZIPEK_clean_linker_0, # of connection points: 2
#     Edge 20, Type (0, 1), BuildingBlock: EZIPEK_clean_linker_0, # of connection points: 2
#     Edge 21, Type (0, 1), BuildingBlock: EZIPEK_clean_linker_0, # of connection points: 2
#     Edge 22, Type (0, 1), BuildingBlock: EZIPEK_clean_linker_0, # of connection points: 2
#     Edge 23, Type (0, 1), BuildingBlock: EZIPEK_clean_linker_0, # of connection points: 2
#     Edge 24, Type (0, 1), BuildingBlock: EZIPEK_clean_linker_0, # of connection points: 2
#     Edge 25, Type (0, 1), BuildingBlock: EZIPEK_clean_linker_0, # of connection points: 2
#     Edge 26, Type (0, 1), BuildingBlock: EZIPEK_clean_linker_0, # of connection points: 2
# Relax obj value: 0.149
# Max RMSD: 0.203
# Mean RMSD: 0.139
data_MOF--net-anh--node1-BETDEL_clean_sbu_0--node2-CUQRIR_clean_linker_1--edge1-EZIPEK_clean_linker_0
_symmetry_space_group_name_H-M    P1
_symmetry_Int_Tables_number       1
_symmetry_cell_setting            triclinic
loop_
_symmetry_equiv_pos_as_xyz
'x, y, z'
_cell_length_a     19.553006
_cell_length_b     19.734025
_cell_length_c     31.554949
_cell_angle_alpha  84.82569
_cell_angle_beta   89.927749
_cell_angle_gamma 119.85892
loop_
_atom_site_label
_atom_site_type_symbol
_atom_site_fract_x
_atom_site_fract_y
_atom_site_fract_z
_atom_type_partial_charge
Dy0 Dy 0.08229 0.44296 0.1814 0.0
C1 C 0.90998 0.59089 0.14169 0.0
C2 C 0.18627 0.38907 0.19556 0.0
Dy3 Dy 0.99846 0.52082 0.1594 0.0
O4 O 0.17905 0.43844 0.21665 0.0
O5 O 0.13739 0.37065 0.165 0.0
O6 O 1.0106 0.39202 0.24326 0.0
O7 O 0.04539 0.50725 0.22055 0.0
C8 C 1.01029 0.45492 0.25129 0.0
C9 C 1.03898 0.47139 0.09035 0.0
O10 O 0.11344 0.63123 0.17127 0.0
O11 O 0.18607 0.56844 0.17456 0.0
O12 O 0.97397 0.607 0.12036 0.0
O13 O 0.89828 0.54099 0.17445 0.0
O14 O 0.96962 0.46058 0.09932 0.0
O15 O 0.08192 0.50405 0.12016 0.0
O16 O 0.96414 0.33781 0.16722 0.0
O17 O 0.89689 0.3996 0.18311 0.0
C18 C 0.18289 0.63428 0.17436 0.0
C19 C 0.89588 0.3336 0.17709 0.0
Dy20 Dy 0.55842 0.07168 0.49892 0.0
C21 C 0.87678 0.25652 0.48579 0.0
C22 C 0.40422 0.98213 0.48394 0.0
Dy23 Dy 0.7203 0.14795 0.49111 0.0
O24 O 0.42991 1.01456 0.51871 0.0
O25 O 0.46277 0.99708 0.45825 0.0
O26 O 0.5565 0.11261 0.56171 0.0
O27 O 0.64353 0.08363 0.54809 0.0
C28 C 0.6175 0.10972 0.57533 0.0
C29 C 0.65955 0.10115 0.4163 0.0
O30 O 0.70747 0.02656 0.50546 0.0
O31 O 0.57241 0.96297 0.5065 0.0
O32 O 0.82707 0.2479 0.45706 0.0
O33 O 0.84128 0.20297 0.51757 0.0
O34 O 0.71958 0.09756 0.43089 0.0
O35 O 0.6355 0.1321 0.44181 0.0
O36 O 0.5716 0.19146 0.48418 0.0
O37 O 0.69736 0.24813 0.50563 0.0
C38 C 0.6385 0.95955 0.50885 0.0
C39 C 0.63409 0.25404 0.496 0.0
Dy40 Dy 0.60632 0.70224 0.83076 0.0
C41 C 0.46798 0.37925 0.83868 0.0
C42 C 0.6746 0.85733 0.80453 0.0
Dy43 Dy 0.5219 0.53563 0.8292 0.0
O44 O 0.69431 0.82802 0.83774 0.0
O45 O 0.61994 0.80109 0.7854 0.0
O46 O 0.56809 0.69651 0.8985 0.0
O47 O 0.58676 0.60769 0.87968 0.0
C48 C 0.56444 0.63015 0.9103 0.0
C49 C 0.5397 0.61673 0.7512 0.0
O50 O 0.41704 0.54501 0.84994 0.0
O51 O 0.47858 0.67746 0.83266 0.0
O52 O 0.50983 0.42741 0.80608 0.0
O53 O 0.45344 0.41641 0.86569 0.0
O54 O 0.47582 0.55302 0.76577 0.0
O55 O 0.58959 0.63104 0.77906 0.0
O56 O 0.71519 0.68998 0.82666 0.0
O57 O 0.64601 0.55436 0.83679 0.0
C58 C 0.41326 0.61019 0.84527 0.0
C59 C 0.71439 0.62196 0.83265 0.0
C60 C 0.53846 0.98615 0.18313 0.0
N61 N 0.58884 0.03961 0.20925 0.0
N62 N 0.47017 0.92891 0.20491 0.0
C63 C 0.55738 0.98842 0.13683 0.0
C64 C 0.48137 0.95024 0.24514 0.0
N65 N 0.55275 1.01557 0.24808 0.0
C66 C 0.42298 0.90545 0.28233 0.0
H67 H 0.54883 0.0341 0.11852 0.0
H68 H 0.51845 0.93094 0.12473 0.0
H69 H 0.62019 1.00488 0.1318 0.0
H70 H 0.43577 0.86055 0.29788 0.0
H71 H 0.3617 0.87507 0.27162 0.0
H72 H 0.42786 0.94538 0.30624 0.0
C73 C 0.63294 0.60602 0.51111 0.0
N74 N 0.62585 0.65192 0.53911 0.0
N75 N 0.62939 0.5399 0.53182 0.0
C76 C 0.6438 0.62617 0.46369 0.0
C77 C 0.61987 0.54783 0.57337 0.0
N78 N 0.61756 0.6145 0.5779 0.0
C79 C 0.61008 0.48851 0.60993 0.0
H80 H 0.59634 0.63682 0.45175 0.0
H81 H 0.6435 0.57868 0.44723 0.0
H82 H 0.70073 0.68146 0.45594 0.0
H83 H 0.63609 0.51752 0.63891 0.0
H84 H 0.63804 0.45402 0.60176 0.0
H85 H 0.54613 0.4476 0.61744 0.0
C86 C 0.05951 0.60398 0.85061 0.0
N87 N 0.10271 0.58578 0.87894 0.0
N88 N 0.99341 0.59674 0.87012 0.0
C89 C 0.08069 0.62776 0.8038 0.0
C90 C 0.99755 0.57342 0.91117 0.0
N91 N 0.06182 0.56471 0.91659 0.0
C92 C 0.9365 0.55653 0.94602 0.0
H93 H 0.10966 0.69264 0.79768 0.0
H94 H 1.0267 0.60261 0.78539 0.0
H95 H 0.12141 0.6085 0.79251 0.0
H96 H 0.91759 0.60105 0.94317 0.0
H97 H 0.95897 0.55568 0.97819 0.0
H98 H 0.88355 0.49859 0.94287 0.0
C99 C 0.10531 0.63688 0.46833 0.0
N100 N 0.06844 0.5763 0.44467 0.0
N101 N 0.13974 0.70545 0.443 0.0
C102 C 0.11693 0.62869 0.5154 0.0
C103 C 0.12099 0.68465 0.40315 0.0
N104 N 0.07766 0.60561 0.40407 0.0
C105 C 0.15365 0.74095 0.36332 0.0
H106 H 0.06058 0.58625 0.53316 0.0
H107 H 0.1414 0.68582 0.52888 0.0
H108 H 0.15802 0.60556 0.52042 0.0
H109 H 0.21738 0.76084 0.35848 0.0
H110 H 0.14857 0.79368 0.3669 0.0
H111 H 0.12255 0.71328 0.33491 0.0
C112 C 0.616 0.15428 0.81777 0.0
N113 N 0.63403 0.12286 0.78627 0.0
N114 N 0.58898 0.20135 0.80126 0.0
C115 C 0.61533 0.13162 0.86476 0.0
C116 C 0.59367 0.19984 0.75863 0.0
N117 N 0.62064 0.15159 0.74944 0.0
C118 C 0.56625 0.24057 0.72628 0.0
H119 H 0.55359 0.09068 0.87701 0.0
H120 H 0.63823 0.18384 0.88263 0.0
H121 H 0.65124 0.10292 0.87117 0.0
H122 H 0.60471 0.26122 0.69663 0.0
H123 H 0.56604 0.29109 0.73901 0.0
H124 H 0.50537 0.19816 0.71814 0.0
C125 C 0.55116 0.4729 0.14844 0.0
N126 N 0.59978 0.51751 0.11416 0.0
N127 N 0.47919 0.46587 0.14464 0.0
C128 C 0.57401 0.43615 0.18537 0.0
C129 C 0.4853 0.50734 0.10708 0.0
N130 N 0.55794 0.53763 0.08792 0.0
C131 C 0.4185 0.51487 0.08804 0.0
H132 H 0.61645 0.41877 0.17431 0.0
H133 H 0.52122 0.3842 0.20168 0.0
H134 H 0.60336 0.47975 0.20861 0.0
H135 H 0.3821 0.51968 0.11334 0.0
H136 H 0.37995 0.4614 0.07231 0.0
H137 H 0.4411 0.56692 0.06402 0.0
C138 C 0.31815 0.42478 0.22295 0.0
C139 C 0.2549 0.37614 0.19845 0.0
C140 C 0.34532 0.35331 0.15694 0.0
C141 C 0.40856 0.42109 0.17163 0.0
N142 N 0.458 0.51856 0.22117 0.0
N143 N 0.20278 0.27152 0.15336 0.0
C144 C 0.39621 0.45462 0.20639 0.0
C145 C 0.26658 0.33202 0.16928 0.0
N146 N 0.30326 0.442 0.26158 0.0
N147 N 0.36189 0.31227 0.13017 0.0
H148 H 0.14549 0.25095 0.16573 0.0
H149 H 0.20627 0.24055 0.12927 0.0
H150 H 0.42004 0.32718 0.12267 0.0
H151 H 0.31955 0.26151 0.11799 0.0
H152 H 0.34754 0.47432 0.28174 0.0
H153 H 0.24608 0.41487 0.27546 0.0
H154 H 0.45091 0.55115 0.24321 0.0
H155 H 0.516 0.5412 0.20948 0.0
C156 C 0.92104 0.38761 0.50615 0.0
C157 C 0.94183 0.33536 0.48993 0.0
C158 C 0.05939 0.44627 0.45408 0.0
C159 C 1.02725 0.49491 0.46099 0.0
N160 N 0.92704 0.51304 0.49361 0.0
N161 N 1.03122 0.31315 0.44906 0.0
C162 C 0.95815 0.46601 0.48744 0.0
C163 C 1.01181 0.36421 0.46438 0.0
N164 N 0.86404 0.36132 0.53821 0.0
N165 N 0.13612 0.47886 0.4399 0.0
H166 H 0.99863 0.25273 0.45814 0.0
H167 H 0.07716 0.33067 0.4263 0.0
H168 H 0.17356 0.53939 0.43647 0.0
H169 H 0.16424 0.44636 0.43678 0.0
H170 H 0.85035 0.39776 0.55373 0.0
H171 H 0.83629 0.30385 0.55242 0.0
H172 H 0.87477 0.49413 0.51142 0.0
H173 H 0.95118 0.57014 0.47877 0.0
C174 C 0.73249 1.00144 0.78359 0.0
C175 C 0.67263 0.93004 0.80483 0.0
C176 C 0.58629 0.98439 0.81154 0.0
C177 C 0.64728 0.05752 0.79218 0.0
N178 N 0.78495 0.14197 0.77186 0.0
N179 N 0.55349 0.86082 0.85061 0.0
C180 C 0.72254 0.06806 0.7815 0.0
C181 C 0.60294 0.92384 0.82248 0.0
N182 N 0.79779 1.00528 0.76532 0.0
N183 N 0.51204 0.97211 0.81914 0.0
H184 H 0.565 0.81602 0.86072 0.0
H185 H 0.50586 0.85727 0.86758 0.0
H186 H 0.49776 1.01614 0.81437 0.0
H187 H 0.46321 0.91666 0.82757 0.0
H188 H 0.83965 0.0541 0.74574 0.0
H189 H 0.80737 0.95757 0.76793 0.0
H190 H 0.8427 0.15396 0.7666 0.0
H191 H 0.77977 0.19156 0.77418 0.0
C192 C 0.80774 0.56291 0.0883 0.0
C193 C 0.84487 0.60122 0.12449 0.0
C194 C 0.7272 0.60841 0.14298 0.0
C195 C 0.68493 0.55441 0.11305 0.0
N196 N 0.68324 0.4725 0.0607 0.0
N197 N 0.84289 0.66543 0.18521 0.0
C198 C 0.72498 0.53067 0.086 0.0
C199 C 0.80575 0.62663 0.15115 0.0
N200 N 0.85061 0.55559 0.05667 0.0
N201 N 0.69133 0.64086 0.16399 0.0
H202 H 0.90207 0.6834 0.19017 0.0
H203 H 0.81475 0.67728 0.20909 0.0
H204 H 0.63364 0.62795 0.15863 0.0
H205 H 0.7205 0.68525 0.18375 0.0
H206 H 0.82674 0.5329 0.02828 0.0
H207 H 0.91176 0.58122 0.0562 0.0
H208 H 0.70824 0.44678 0.04355 0.0
H209 H 0.62212 0.44442 0.06058 0.0
C210 C 0.26304 0.91506 0.46567 0.0
C211 C 0.3285 0.91157 0.48212 0.0
C212 C 0.27319 0.77676 0.46797 0.0
C213 C 0.20461 0.77708 0.45415 0.0
N214 N 0.12652 0.84016 0.44678 0.0
N215 N 0.38284 0.83359 0.51304 0.0
C216 C 0.19693 0.84449 0.45515 0.0
C217 C 0.32903 0.84033 0.48809 0.0
N218 N 0.26512 0.9854 0.45929 0.0
N219 N 0.28613 0.71693 0.46058 0.0
H220 H 0.42291 0.87917 0.5298 0.0
H221 H 0.38121 0.78035 0.52098 0.0
H222 H 0.24764 0.6706 0.44401 0.0
H223 H 0.33877 0.71768 0.46698 0.0
H224 H 0.22224 0.99279 0.44342 0.0
H225 H 0.31211 0.03711 0.4685 0.0
H226 H 0.11522 0.88566 0.45046 0.0
H227 H 0.07767 0.78856 0.43886 0.0
C228 C 0.55037 0.32863 0.86625 0.0
C229 C 0.47602 0.31108 0.85122 0.0
C230 C 0.46551 0.19909 0.81981 0.0
C231 C 0.5479 0.23104 0.82394 0.0
N232 N 0.67058 0.32783 0.8499 0.0
N233 N 0.35661 0.22532 0.81924 0.0
C234 C 0.59073 0.29513 0.84789 0.0
C235 C 0.43057 0.24332 0.83073 0.0
N236 N 0.58391 0.38143 0.8955 0.0
N237 N 0.42203 0.12793 0.8047 0.0
H238 H 0.3303 0.25686 0.82865 0.0
H239 H 0.3231 0.18164 0.79976 0.0
H240 H 0.44722 0.09497 0.79663 0.0
H241 H 0.36079 0.09911 0.8036 0.0
H242 H 0.63671 0.39365 0.9093 0.0
H243 H 0.55417 0.4065 0.90902 0.0
H244 H 0.70579 0.37954 0.86366 0.0
H245 H 0.7023 0.30622 0.83496 0.0
C246 C 0.69179 0.8697 0.54023 0.0
C247 C 0.63437 0.87897 0.51623 0.0
C248 C 0.56691 0.73441 0.51008 0.0
C249 C 0.62938 0.72847 0.52965 0.0
N250 N 0.76319 0.79849 0.54994 0.0
N251 N 0.52509 0.81676 0.47001 0.0
C252 C 0.69521 0.79857 0.5408 0.0
C253 C 0.57379 0.81022 0.49904 0.0
N254 N 0.74069 0.92648 0.5648 0.0
N255 N 0.50014 0.6674 0.50207 0.0
H256 H 0.52779 0.86935 0.45924 0.0
H257 H 0.487 0.77076 0.45293 0.0
H258 H 0.49513 0.61216 0.5071 0.0
H259 H 0.44834 0.66634 0.49313 0.0
H260 H 0.77891 0.9193 0.5853 0.0
H261 H 0.73569 0.97554 0.56922 0.0
H262 H 0.81548 0.84919 0.55526 0.0
H263 H 0.76933 0.74976 0.54626 0.0
C264 C 0.85196 0.6744 0.86262 0.0
C265 C 0.79136 0.62082 0.83773 0.0
C266 C 0.86894 0.55348 0.83105 0.0
C267 C 0.93107 0.61043 0.85322 0.0
N268 N 0.98979 0.73574 0.88036 0.0
N269 N 0.75422 0.52127 0.7893 0.0
C270 C 0.92524 0.67483 0.86522 0.0
C271 C 0.80347 0.5638 0.81925 0.0
N272 N 0.83776 0.72032 0.88701 0.0
N273 N 0.87125 0.48809 0.82246 0.0
H274 H 0.70893 0.53018 0.77799 0.0
H275 H 0.76357 0.48349 0.7723 0.0
H276 H 0.91804 0.47923 0.83079 0.0
H277 H 0.82485 0.44071 0.80971 0.0
H278 H 0.87714 0.75461 0.9087 0.0
H279 H 0.78318 0.71713 0.88978 0.0
H280 H 0.99214 0.78798 0.88621 0.0
H281 H 0.04338 0.73645 0.88301 0.0
C282 C 0.31465 0.71279 0.20964 0.0
C283 C 0.25887 0.71165 0.18006 0.0
C284 C 0.34519 0.85699 0.16543 0.0
C285 C 0.40363 0.8559 0.19179 0.0
N286 N 0.45136 0.77774 0.22905 0.0
N287 N 0.23328 0.78399 0.12242 0.0
C288 C 0.39049 0.78199 0.21055 0.0
C289 C 0.2776 0.78429 0.15587 0.0
N290 N 0.29386 0.64983 0.23921 0.0
N291 N 0.35284 0.92758 0.1505 0.0
H292 H 0.18653 0.73256 0.11298 0.0
H293 H 0.2482 0.83365 0.10134 0.0
H294 H 0.40128 0.98088 0.15676 0.0
H295 H 0.30856 0.93291 0.1349 0.0
H296 H 0.3298 0.65042 0.26371 0.0
H297 H 0.23718 0.60108 0.24284 0.0
H298 H 0.44801 0.72476 0.24019 0.0
H299 H 0.50774 0.82675 0.22851 0.0
C300 C 0.69417 0.40539 0.48516 0.0
C301 C 0.63092 0.32938 0.50126 0.0
C302 C 0.55944 0.39588 0.52443 0.0
C303 C 0.62755 0.47104 0.51564 0.0
N304 N 0.76202 0.54767 0.48838 0.0
N305 N 0.50583 0.25646 0.54238 0.0
C306 C 0.6955 0.47581 0.49592 0.0
C307 C 0.56386 0.32583 0.52212 0.0
N308 N 0.7515 0.41044 0.45815 0.0
N309 N 0.48946 0.39157 0.53471 0.0
H310 H 0.50632 0.20403 0.54335 0.0
H311 H 0.4609 0.25246 0.56209 0.0
H312 H 0.48466 0.44174 0.53595 0.0
H313 H 0.43551 0.33925 0.53741 0.0
H314 H 0.79438 0.46291 0.44172 0.0
H315 H 0.7516 0.36113 0.44881 0.0
H316 H 0.81499 0.55673 0.47519 0.0
H317 H 0.76515 0.59872 0.49726 0.0
C318 C 0.31708 0.66653 0.83777 0.0
C319 C 0.3339 0.60671 0.85467 0.0
C320 C 0.19332 0.52896 0.88084 0.0
C321 C 0.1807 0.59306 0.87067 0.0
N322 N 0.24249 0.73216 0.84927 0.0
N323 N 0.28738 0.49363 0.9078 0.0
C324 C 0.24635 0.66482 0.85223 0.0
C325 C 0.27181 0.54139 0.88066 0.0
N326 N 0.36485 0.7226 0.80613 0.0
N327 N 0.13051 0.45513 0.88897 0.0
H328 H 0.34455 0.50777 0.91479 0.0
H329 H 0.24401 0.44816 0.92857 0.0
H330 H 0.07326 0.44368 0.88425 0.0
H331 H 0.13673 0.40555 0.8942 0.0
H332 H 0.35129 0.7636 0.79138 0.0
H333 H 0.41101 0.72169 0.79033 0.0
H334 H 0.29105 0.78711 0.83939 0.0
H335 H 0.19369 0.73388 0.86123 0.0
C336 C 0.81091 0.18616 0.20556 0.0
C337 C 0.81731 0.25513 0.18253 0.0
C338 C 0.67102 0.18041 0.17697 0.0
C339 C 0.66613 0.11102 0.19776 0.0
N340 N 0.73602 0.04358 0.21843 0.0
N341 N 0.75241 0.30851 0.13709 0.0
C342 C 0.73755 0.11285 0.20814 0.0
C343 C 0.74684 0.24954 0.16576 0.0
N344 N 0.87336 0.19056 0.22699 0.0
N345 N 0.60283 0.18057 0.1681 0.0
H346 H 0.80621 0.35721 0.1259 0.0
H347 H 0.70478 0.30521 0.12075 0.0
H348 H 0.54733 0.13048 0.17406 0.0
H349 H 0.60102 0.23126 0.15776 0.0
H350 H 0.8691 0.14426 0.24771 0.0
H351 H 0.9269 0.24244 0.22773 0.0
H352 H 0.78671 0.03961 0.22307 0.0
H353 H 0.68486 0.98984 0.21641 0.0
C354 C 1.01636 0.4285 0.01703 0.0
C355 C 0.06715 0.48286 0.04453 0.0
C356 C 0.13399 0.58178 0.98314 0.0
C357 C 0.07622 0.5316 0.95636 0.0
N358 N 0.96299 0.40595 0.94698 0.0
N359 N 0.19641 0.59485 0.05067 0.0
C360 C 1.01927 0.45338 0.97286 0.0
C361 C 0.13341 0.55431 0.02665 0.0
N362 N 0.96561 0.35292 0.03366 0.0
N363 N 0.18474 0.6581 0.96806 0.0
H364 H 0.20141 0.57243 0.08092 0.0
H365 H 0.24844 0.6447 0.03851 0.0
H366 H 0.18515 0.68029 0.93679 0.0
H367 H 0.22188 0.70064 0.98725 0.0
H368 H 0.93024 0.30755 0.0156 0.0
H369 H 0.96439 0.33403 0.0658 0.0
H370 H 0.91445 0.35162 0.95738 0.0
H371 H 0.96218 0.42309 0.91484 0.0
C372 C 0.62016 0.13358 0.34335 0.0
C373 C 0.63284 0.08162 0.37228 0.0
C374 C 0.60866 0.99611 0.31523 0.0
C375 C 0.58764 0.04322 0.28807 0.0
N376 N 0.5594 0.14855 0.2787 0.0
N377 N 0.62734 0.9564 0.38686 0.0
C378 C 0.58976 0.1099 0.30278 0.0
C379 C 0.62451 1.01131 0.35835 0.0
N380 N 0.64065 0.20696 0.35349 0.0
N381 N 0.61278 0.93583 0.29971 0.0
H382 H 0.63809 0.96377 0.41881 0.0
H383 H 0.61171 0.90002 0.37995 0.0
H384 H 0.59645 0.91976 0.26928 0.0
H385 H 0.6378 0.90563 0.31566 0.0
H386 H 0.63987 0.24973 0.33192 0.0
H387 H 0.66621 0.22817 0.38182 0.0
H388 H 0.55154 0.19277 0.28937 0.0
H389 H 0.53554 0.13118 0.24946 0.0
C390 C 0.64154 0.68017 0.68849 0.0
C391 C 0.56131 0.64037 0.7041 0.0
C392 C 0.52003 0.60588 0.63177 0.0
C393 C 0.59985 0.63463 0.61807 0.0
N394 N 0.7352 0.6867 0.63589 0.0
N395 N 0.42732 0.59729 0.68642 0.0
C396 C 0.66043 0.66987 0.64688 0.0
C397 C 0.50133 0.61308 0.67433 0.0
N398 N 0.69962 0.73041 0.7125 0.0
N399 N 0.46162 0.56517 0.60523 0.0
H400 H 0.41417 0.60773 0.71637 0.0
H401 H 0.38203 0.58318 0.66557 0.0
H402 H 0.47364 0.55608 0.57478 0.0
H403 H 0.40175 0.53491 0.61443 0.0
H404 H 0.75826 0.76553 0.70118 0.0
H405 H 0.68762 0.74576 0.7411 0.0
H406 H 0.78015 0.70415 0.6572 0.0
H407 H 0.74987 0.67468 0.60686 0.0
C408 C 0.56073 0.05054 0.64896 0.0
C409 C 0.62751 0.10243 0.62179 0.0
C410 C 0.69463 0.17652 0.6811 0.0
C411 C 0.6255 0.12923 0.70772 0.0
N412 N 0.48968 0.02643 0.71651 0.0
N413 N 0.76674 0.19163 0.61526 0.0
C414 C 0.55814 0.06625 0.6918 0.0
C415 C 0.69749 0.15803 0.639 0.0
N416 N 0.50082 0.98561 0.63359 0.0
N417 N 0.75455 0.24333 0.69477 0.0
H418 H 0.7691 0.17431 0.58541 0.0
H419 H 0.82155 0.22813 0.62701 0.0
H420 H 0.75161 0.26135 0.72445 0.0
H421 H 0.80328 0.28459 0.67528 0.0
H422 H 0.45276 0.94131 0.65227 0.0
H423 H 0.50349 0.9723 0.60255 0.0
H424 H 0.43592 0.98478 0.70594 0.0
H425 H 0.48529 0.04028 0.74692 0.0
C426 C 0.52003 0.5267 0.9725 0.0
C427 C 0.57051 0.60554 0.95543 0.0
C428 C 0.62152 0.63891 0.02615 0.0
C429 C 0.57357 0.5594 0.04253 0.0
N430 N 0.49036 0.42429 0.02948 0.0
N431 N 0.68621 0.73104 0.96361 0.0
C432 C 0.52806 0.50221 0.01479 0.0
C433 C 0.62664 0.66014 0.98147 0.0
N434 N 0.46046 0.47641 0.94937 0.0
N435 N 0.65871 0.69467 0.05343 0.0
H436 H 0.69425 0.74749 0.93087 0.0
H437 H 0.73253 0.76977 0.9808 0.0
H438 H 0.65455 0.6805 0.08626 0.0
H439 H 0.68783 0.75477 0.04379 0.0
H440 H 0.41596 0.42074 0.96165 0.0
H441 H 0.45118 0.49383 0.91897 0.0
H442 H 0.4631 0.37945 0.00975 0.0
H443 H 0.49285 0.40441 0.06082 0.0
C444 C 0.08914 0.49679 0.3156 0.0
C445 C 1.01785 0.4773 0.29539 0.0
C446 C 0.97968 0.53091 0.35229 0.0
C447 C 0.05636 0.56098 0.36777 0.0
N448 N 0.19083 0.59074 0.35585 0.0
N449 N 0.89505 0.47778 0.29335 0.0
C450 C 0.11313 0.54939 0.34698 0.0
C451 C 0.96258 0.49454 0.31358 0.0
N452 N 0.13319 0.46354 0.30612 0.0
N453 N 0.92427 0.53869 0.37425 0.0
H454 H 0.87978 0.44797 0.26614 0.0
H455 H 0.85612 0.49609 0.30241 0.0
H456 H 0.93718 0.56842 0.40144 0.0
H457 H 0.86514 0.51225 0.36696 0.0
H458 H 0.18289 0.47268 0.3225 0.0
H459 H 0.11376 0.41788 0.28704 0.0
H460 H 0.23544 0.59014 0.33803 0.0
H461 H 0.21153 0.63128 0.37816 0.0
loop_
_geom_bond_atom_site_label_1
_geom_bond_atom_site_label_2
_geom_bond_distance
_geom_bond_site_symmetry_2
_ccdc_geom_bond_type
Dy0 O4 2.398 . S
Dy0 O5 2.491 . S
Dy0 O6 2.403 . S
Dy0 O7 2.664 1_455 S
Dy0 O11 2.326 . S
Dy0 O15 2.310 . S
Dy0 O16 2.351 1_455 S
C1 O12 1.185 . S
C1 O13 1.355 . S
C2 O4 1.185 . S
C2 O5 1.355 . S
Dy3 O7 2.310 . S
Dy3 O10 2.351 1_655 S
Dy3 O12 2.398 . S
Dy3 O13 2.491 . S
Dy3 O14 2.403 . S
Dy3 O15 2.664 1_655 S
Dy3 O17 2.326 . S
O4 Dy0 2.398 . S
O4 C2 1.185 . S
O5 Dy0 2.491 . S
O5 C2 1.355 . S
O6 Dy0 2.403 . S
O6 C8 1.254 1_455 S
O7 Dy0 2.664 1_655 S
O7 Dy3 2.310 . S
O7 C8 1.268 . S
C8 O6 1.254 1_655 S
C8 O7 1.268 . S
C9 O14 1.254 1_455 S
C9 O15 1.268 . S
O10 Dy3 2.351 1_455 S
O10 C18 1.249 . S
O11 Dy0 2.326 . S
O11 C18 1.267 . S
O12 C1 1.185 . S
O12 Dy3 2.398 . S
O13 C1 1.355 . S
O13 Dy3 2.491 . S
O14 Dy3 2.403 . S
O14 C9 1.254 1_655 S
O15 Dy0 2.310 . S
O15 Dy3 2.664 1_455 S
O15 C9 1.268 . S
O16 Dy0 2.351 1_655 S
O16 C19 1.249 . S
O17 Dy3 2.326 . S
O17 C19 1.267 . S
C18 O10 1.249 . S
C18 O11 1.267 . S
C19 O16 1.249 . S
C19 O17 1.267 . S
Dy20 O24 2.398 . S
Dy20 O25 2.491 . S
Dy20 O26 2.403 . S
Dy20 O27 2.664 1_565 S
Dy20 O31 2.326 . S
Dy20 O35 2.310 1_565 S
Dy20 O36 2.351 1_565 S
C21 O32 1.185 . S
C21 O33 1.355 . S
C22 O24 1.185 . S
C22 O25 1.355 . S
Dy23 O27 2.310 . S
Dy23 O30 2.351 1_545 S
Dy23 O32 2.398 . S
Dy23 O33 2.491 . S
Dy23 O34 2.403 . S
Dy23 O35 2.664 . S
Dy23 O37 2.326 . S
O24 Dy20 2.398 . S
O24 C22 1.185 . S
O25 Dy20 2.491 . S
O25 C22 1.355 . S
O26 Dy20 2.403 . S
O26 C28 1.254 1_565 S
O27 Dy20 2.664 1_545 S
O27 Dy23 2.310 . S
O27 C28 1.268 . S
C28 O26 1.254 1_545 S
C28 O27 1.268 . S
C29 O34 1.254 . S
C29 O35 1.268 . S
O30 Dy23 2.351 1_565 S
O30 C38 1.249 . S
O31 Dy20 2.326 . S
O31 C38 1.267 . S
O32 C21 1.185 . S
O32 Dy23 2.398 . S
O33 C21 1.355 . S
O33 Dy23 2.491 . S
O34 Dy23 2.403 . S
O34 C29 1.254 . S
O35 Dy20 2.310 1_545 S
O35 Dy23 2.664 . S
O35 C29 1.268 . S
O36 Dy20 2.351 1_545 S
O36 C39 1.249 . S
O37 Dy23 2.326 . S
O37 C39 1.267 . S
C38 O30 1.249 . S
C38 O31 1.267 . S
C39 O36 1.249 . S
C39 O37 1.267 . S
Dy40 O44 2.398 . S
Dy40 O45 2.491 . S
Dy40 O46 2.403 . S
Dy40 O47 2.664 . S
Dy40 O51 2.326 . S
Dy40 O55 2.310 . S
Dy40 O56 2.351 . S
C41 O52 1.185 . S
C41 O53 1.355 . S
C42 O44 1.185 . S
C42 O45 1.355 . S
Dy43 O47 2.310 . S
Dy43 O50 2.351 . S
Dy43 O52 2.398 . S
Dy43 O53 2.491 . S
Dy43 O54 2.403 . S
Dy43 O55 2.664 . S
Dy43 O57 2.326 . S
O44 Dy40 2.398 . S
O44 C42 1.185 . S
O45 Dy40 2.491 . S
O45 C42 1.355 . S
O46 Dy40 2.403 . S
O46 C48 1.254 . S
O47 Dy40 2.664 . S
O47 Dy43 2.310 . S
O47 C48 1.268 . S
C48 O46 1.254 . S
C48 O47 1.268 . S
C49 O54 1.254 . S
C49 O55 1.268 . S
O50 Dy43 2.351 . S
O50 C58 1.249 . S
O51 Dy40 2.326 . S
O51 C58 1.267 . S
O52 C41 1.185 . S
O52 Dy43 2.398 . S
O53 C41 1.355 . S
O53 Dy43 2.491 . S
O54 Dy43 2.403 . S
O54 C49 1.254 . S
O55 Dy40 2.310 . S
O55 Dy43 2.664 . S
O55 C49 1.268 . S
O56 Dy40 2.351 . S
O56 C59 1.249 . S
O57 Dy43 2.326 . S
O57 C59 1.267 . S
C58 O50 1.249 . S
C58 O51 1.267 . S
C59 O56 1.249 . S
C59 O57 1.267 . S
C60 N61 1.317 1_565 S
C60 N62 1.348 . S
C60 C63 1.485 1_565 S
N61 C60 1.317 1_545 S
N61 N65 1.370 . S
N62 C60 1.348 . S
N62 C64 1.346 . S
C63 C60 1.485 1_545 S
C63 H67 0.960 . S
C63 H68 0.961 1_545 S
C63 H69 0.960 . S
C64 N62 1.346 . S
C64 N65 1.307 1_565 S
C64 C66 1.486 . S
N65 N61 1.370 . S
N65 C64 1.307 1_545 S
C66 C64 1.486 . S
C66 H70 0.960 . S
C66 H71 0.960 . S
C66 H72 0.959 . S
H67 C63 0.960 . S
H68 C63 0.961 1_565 S
H69 C63 0.960 . S
H70 C66 0.960 . S
H71 C66 0.960 . S
H72 C66 0.959 . S
C73 N74 1.317 . S
C73 N75 1.348 . S
C73 C76 1.485 . S
N74 C73 1.317 . S
N74 N78 1.370 . S
N75 C73 1.348 . S
N75 C77 1.346 . S
C76 C73 1.485 . S
C76 H80 0.960 . S
C76 H81 0.961 . S
C76 H82 0.960 . S
C77 N75 1.346 . S
C77 N78 1.307 . S
C77 C79 1.486 . S
N78 N74 1.370 . S
N78 C77 1.307 . S
C79 C77 1.486 . S
C79 H83 0.960 . S
C79 H84 0.960 . S
C79 H85 0.959 . S
H80 C76 0.960 . S
H81 C76 0.961 . S
H82 C76 0.960 . S
H83 C79 0.960 . S
H84 C79 0.960 . S
H85 C79 0.959 . S
C86 N87 1.317 . S
C86 N88 1.348 1_455 S
C86 C89 1.485 . S
N87 C86 1.317 . S
N87 N91 1.370 . S
N88 C86 1.348 1_655 S
N88 C90 1.346 . S
C89 C86 1.485 . S
C89 H93 0.960 . S
C89 H94 0.961 . S
C89 H95 0.960 . S
C90 N88 1.346 . S
C90 N91 1.307 1_655 S
C90 C92 1.486 . S
N91 N87 1.370 . S
N91 C90 1.307 1_455 S
C92 C90 1.486 . S
C92 H96 0.960 . S
C92 H97 0.960 . S
C92 H98 0.959 . S
H93 C89 0.960 . S
H94 C89 0.961 . S
H95 C89 0.960 . S
H96 C92 0.960 . S
H97 C92 0.960 . S
H98 C92 0.959 . S
C99 N100 1.317 1_455 S
C99 N101 1.348 . S
C99 C102 1.485 . S
N100 C99 1.317 1_655 S
N100 N104 1.370 1_655 S
N101 C99 1.348 . S
N101 C103 1.346 . S
C102 C99 1.485 . S
C102 H106 0.960 1_455 S
C102 H107 0.961 . S
C102 H108 0.960 1_455 S
C103 N101 1.346 . S
C103 N104 1.307 . S
C103 C105 1.486 . S
N104 N100 1.370 1_455 S
N104 C103 1.307 . S
C105 C103 1.486 . S
C105 H109 0.960 . S
C105 H110 0.960 . S
C105 H111 0.959 . S
H106 C102 0.960 1_655 S
H107 C102 0.961 . S
H108 C102 0.960 1_655 S
H109 C105 0.960 . S
H110 C105 0.960 . S
H111 C105 0.959 . S
C112 N113 1.317 . S
C112 N114 1.348 . S
C112 C115 1.485 . S
N113 C112 1.317 . S
N113 N117 1.370 . S
N114 C112 1.348 . S
N114 C116 1.346 . S
C115 C112 1.485 . S
C115 H119 0.960 . S
C115 H120 0.961 . S
C115 H121 0.960 . S
C116 N114 1.346 . S
C116 N117 1.307 . S
C116 C118 1.486 . S
N117 N113 1.370 . S
N117 C116 1.307 . S
C118 C116 1.486 . S
C118 H122 0.960 . S
C118 H123 0.960 . S
C118 H124 0.959 . S
H119 C115 0.960 . S
H120 C115 0.961 . S
H121 C115 0.960 . S
H122 C118 0.960 . S
H123 C118 0.960 . S
H124 C118 0.959 . S
C125 N126 1.317 . S
C125 N127 1.348 . S
C125 C128 1.485 . S
N126 C125 1.317 . S
N126 N130 1.370 . S
N127 C125 1.348 . S
N127 C129 1.346 . S
C128 C125 1.485 . S
C128 H132 0.960 . S
C128 H133 0.961 . S
C128 H134 0.960 . S
C129 N127 1.346 . S
C129 N130 1.307 . S
C129 C131 1.486 . S
N130 N126 1.370 . S
N130 C129 1.307 . S
C131 C129 1.486 . S
C131 H135 0.960 . S
C131 H136 0.960 . S
C131 H137 0.959 . S
H132 C128 0.960 . S
H133 C128 0.961 . S
H134 C128 0.960 . S
H135 C131 0.960 . S
H136 C131 0.960 . S
H137 C131 0.959 . S
C138 C139 1.363 . S
C138 C144 1.379 . S
C138 N146 1.356 . S
C139 C138 1.363 . S
C139 C145 1.363 . S
C140 C141 1.363 . S
C140 C145 1.379 . S
C140 N147 1.356 . S
C141 C140 1.363 . S
C141 C144 1.363 . S
N142 C144 1.356 . S
N142 H154 0.984 . S
N142 H155 0.985 . S
N143 C145 1.356 . S
N143 H148 0.984 . S
N143 H149 0.985 . S
C144 C138 1.379 . S
C144 C141 1.363 . S
C144 N142 1.356 . S
C145 C139 1.363 . S
C145 C140 1.379 . S
C145 N143 1.356 . S
N146 C138 1.356 . S
N146 H152 0.984 . S
N146 H153 0.984 . S
N147 C140 1.356 . S
N147 H150 0.984 . S
N147 H151 0.985 . S
H148 N143 0.984 . S
H149 N143 0.985 . S
H150 N147 0.984 . S
H151 N147 0.985 . S
H152 N146 0.984 . S
H153 N146 0.984 . S
H154 N142 0.984 . S
H155 N142 0.985 . S
C156 C157 1.363 . S
C156 C162 1.379 . S
C156 N164 1.356 . S
C157 C156 1.363 . S
C157 C163 1.363 . S
C158 C159 1.363 . S
C158 C163 1.379 . S
C158 N165 1.356 . S
C159 C158 1.363 . S
C159 C162 1.363 . S
N160 C162 1.356 . S
N160 H172 0.984 . S
N160 H173 0.985 . S
N161 C163 1.356 . S
N161 H166 0.984 . S
N161 H167 0.985 . S
C162 C156 1.379 . S
C162 C159 1.363 . S
C162 N160 1.356 . S
C163 C157 1.363 . S
C163 C158 1.379 . S
C163 N161 1.356 . S
N164 C156 1.356 . S
N164 H170 0.984 . S
N164 H171 0.984 . S
N165 C158 1.356 . S
N165 H168 0.984 1_655 S
N165 H169 0.985 . S
H166 N161 0.984 . S
H167 N161 0.985 . S
H168 N165 0.984 1_455 S
H169 N165 0.985 . S
H170 N164 0.984 . S
H171 N164 0.984 . S
H172 N160 0.984 . S
H173 N160 0.985 . S
C174 C175 1.363 . S
C174 C180 1.379 . S
C174 N182 1.356 . S
C175 C174 1.363 . S
C175 C181 1.363 . S
C176 C177 1.363 1_565 S
C176 C181 1.379 . S
C176 N183 1.356 1_565 S
C177 C176 1.363 1_545 S
C177 C180 1.363 1_545 S
N178 C180 1.356 1_545 S
N178 H190 0.984 . S
N178 H191 0.985 . S
N179 C181 1.356 . S
N179 H184 0.984 . S
N179 H185 0.985 . S
C180 C174 1.379 . S
C180 C177 1.363 1_565 S
C180 N178 1.356 1_565 S
C181 C175 1.363 . S
C181 C176 1.379 . S
C181 N179 1.356 . S
N182 C174 1.356 . S
N182 H188 0.984 . S
N182 H189 0.984 . S
N183 C176 1.356 1_545 S
N183 H186 0.984 . S
N183 H187 0.985 1_545 S
H184 N179 0.984 . S
H185 N179 0.985 . S
H186 N183 0.984 . S
H187 N183 0.985 1_565 S
H188 N182 0.984 . S
H189 N182 0.984 . S
H190 N178 0.984 . S
H191 N178 0.985 . S
C192 C193 1.363 . S
C192 C198 1.379 . S
C192 N200 1.356 . S
C193 C192 1.363 . S
C193 C199 1.363 . S
C194 C195 1.363 . S
C194 C199 1.379 . S
C194 N201 1.356 . S
C195 C194 1.363 . S
C195 C198 1.363 . S
N196 C198 1.356 . S
N196 H208 0.984 . S
N196 H209 0.985 . S
N197 C199 1.356 . S
N197 H202 0.984 . S
N197 H203 0.985 . S
C198 C192 1.379 . S
C198 C195 1.363 . S
C198 N196 1.356 . S
C199 C193 1.363 . S
C199 C194 1.379 . S
C199 N197 1.356 . S
N200 C192 1.356 . S
N200 H206 0.984 . S
N200 H207 0.984 . S
N201 C194 1.356 . S
N201 H204 0.984 . S
N201 H205 0.985 . S
H202 N197 0.984 . S
H203 N197 0.985 . S
H204 N201 0.984 . S
H205 N201 0.985 . S
H206 N200 0.984 . S
H207 N200 0.984 . S
H208 N196 0.984 . S
H209 N196 0.985 . S
C210 C211 1.363 . S
C210 C216 1.379 . S
C210 N218 1.356 . S
C211 C210 1.363 . S
C211 C217 1.363 . S
C212 C213 1.363 . S
C212 C217 1.379 . S
C212 N219 1.356 . S
C213 C212 1.363 . S
C213 C216 1.363 . S
N214 C216 1.356 . S
N214 H226 0.984 . S
N214 H227 0.985 . S
N215 C217 1.356 . S
N215 H220 0.984 . S
N215 H221 0.985 . S
C216 C210 1.379 . S
C216 C213 1.363 . S
C216 N214 1.356 . S
C217 C211 1.363 . S
C217 C212 1.379 . S
C217 N215 1.356 . S
N218 C210 1.356 . S
N218 H224 0.984 . S
N218 H225 0.984 . S
N219 C212 1.356 . S
N219 H222 0.984 . S
N219 H223 0.985 . S
H220 N215 0.984 . S
H221 N215 0.985 . S
H222 N219 0.984 . S
H223 N219 0.985 . S
H224 N218 0.984 . S
H225 N218 0.984 . S
H226 N214 0.984 . S
H227 N214 0.985 . S
C228 C229 1.363 . S
C228 C234 1.379 . S
C228 N236 1.356 . S
C229 C228 1.363 . S
C229 C235 1.363 . S
C230 C231 1.363 . S
C230 C235 1.379 . S
C230 N237 1.356 . S
C231 C230 1.363 . S
C231 C234 1.363 . S
N232 C234 1.356 . S
N232 H244 0.984 . S
N232 H245 0.985 . S
N233 C235 1.356 . S
N233 H238 0.984 . S
N233 H239 0.985 . S
C234 C228 1.379 . S
C234 C231 1.363 . S
C234 N232 1.356 . S
C235 C229 1.363 . S
C235 C230 1.379 . S
C235 N233 1.356 . S
N236 C228 1.356 . S
N236 H242 0.984 . S
N236 H243 0.984 . S
N237 C230 1.356 . S
N237 H240 0.984 . S
N237 H241 0.985 . S
H238 N233 0.984 . S
H239 N233 0.985 . S
H240 N237 0.984 . S
H241 N237 0.985 . S
H242 N236 0.984 . S
H243 N236 0.984 . S
H244 N232 0.984 . S
H245 N232 0.985 . S
C246 C247 1.363 . S
C246 C252 1.379 . S
C246 N254 1.356 . S
C247 C246 1.363 . S
C247 C253 1.363 . S
C248 C249 1.363 . S
C248 C253 1.379 . S
C248 N255 1.356 . S
C249 C248 1.363 . S
C249 C252 1.363 . S
N250 C252 1.356 . S
N250 H262 0.984 . S
N250 H263 0.985 . S
N251 C253 1.356 . S
N251 H256 0.984 . S
N251 H257 0.985 . S
C252 C246 1.379 . S
C252 C249 1.363 . S
C252 N250 1.356 . S
C253 C247 1.363 . S
C253 C248 1.379 . S
C253 N251 1.356 . S
N254 C246 1.356 . S
N254 H260 0.984 . S
N254 H261 0.984 . S
N255 C248 1.356 . S
N255 H258 0.984 . S
N255 H259 0.985 . S
H256 N251 0.984 . S
H257 N251 0.985 . S
H258 N255 0.984 . S
H259 N255 0.985 . S
H260 N254 0.984 . S
H261 N254 0.984 . S
H262 N250 0.984 . S
H263 N250 0.985 . S
C264 C265 1.363 . S
C264 C270 1.379 . S
C264 N272 1.356 . S
C265 C264 1.363 . S
C265 C271 1.363 . S
C266 C267 1.363 . S
C266 C271 1.379 . S
C266 N273 1.356 . S
C267 C266 1.363 . S
C267 C270 1.363 . S
N268 C270 1.356 . S
N268 H280 0.984 . S
N268 H281 0.985 1_655 S
N269 C271 1.356 . S
N269 H274 0.984 . S
N269 H275 0.985 . S
C270 C264 1.379 . S
C270 C267 1.363 . S
C270 N268 1.356 . S
C271 C265 1.363 . S
C271 C266 1.379 . S
C271 N269 1.356 . S
N272 C264 1.356 . S
N272 H278 0.984 . S
N272 H279 0.984 . S
N273 C266 1.356 . S
N273 H276 0.984 . S
N273 H277 0.985 . S
H274 N269 0.984 . S
H275 N269 0.985 . S
H276 N273 0.984 . S
H277 N273 0.985 . S
H278 N272 0.984 . S
H279 N272 0.984 . S
H280 N268 0.984 . S
H281 N268 0.985 1_455 S
C282 C283 1.363 . S
C282 C288 1.379 . S
C282 N290 1.356 . S
C283 C282 1.363 . S
C283 C289 1.363 . S
C284 C285 1.363 . S
C284 C289 1.379 . S
C284 N291 1.356 . S
C285 C284 1.363 . S
C285 C288 1.363 . S
N286 C288 1.356 . S
N286 H298 0.984 . S
N286 H299 0.985 . S
N287 C289 1.356 . S
N287 H292 0.984 . S
N287 H293 0.985 . S
C288 C282 1.379 . S
C288 C285 1.363 . S
C288 N286 1.356 . S
C289 C283 1.363 . S
C289 C284 1.379 . S
C289 N287 1.356 . S
N290 C282 1.356 . S
N290 H296 0.984 . S
N290 H297 0.984 . S
N291 C284 1.356 . S
N291 H294 0.984 . S
N291 H295 0.985 . S
H292 N287 0.984 . S
H293 N287 0.985 . S
H294 N291 0.984 . S
H295 N291 0.985 . S
H296 N290 0.984 . S
H297 N290 0.984 . S
H298 N286 0.984 . S
H299 N286 0.985 . S
C300 C301 1.363 . S
C300 C306 1.379 . S
C300 N308 1.356 . S
C301 C300 1.363 . S
C301 C307 1.363 . S
C302 C303 1.363 . S
C302 C307 1.379 . S
C302 N309 1.356 . S
C303 C302 1.363 . S
C303 C306 1.363 . S
N304 C306 1.356 . S
N304 H316 0.984 . S
N304 H317 0.985 . S
N305 C307 1.356 . S
N305 H310 0.984 . S
N305 H311 0.985 . S
C306 C300 1.379 . S
C306 C303 1.363 . S
C306 N304 1.356 . S
C307 C301 1.363 . S
C307 C302 1.379 . S
C307 N305 1.356 . S
N308 C300 1.356 . S
N308 H314 0.984 . S
N308 H315 0.984 . S
N309 C302 1.356 . S
N309 H312 0.984 . S
N309 H313 0.985 . S
H310 N305 0.984 . S
H311 N305 0.985 . S
H312 N309 0.984 . S
H313 N309 0.985 . S
H314 N308 0.984 . S
H315 N308 0.984 . S
H316 N304 0.984 . S
H317 N304 0.985 . S
C318 C319 1.363 . S
C318 C324 1.379 . S
C318 N326 1.356 . S
C319 C318 1.363 . S
C319 C325 1.363 . S
C320 C321 1.363 . S
C320 C325 1.379 . S
C320 N327 1.356 . S
C321 C320 1.363 . S
C321 C324 1.363 . S
N322 C324 1.356 . S
N322 H334 0.984 . S
N322 H335 0.985 . S
N323 C325 1.356 . S
N323 H328 0.984 . S
N323 H329 0.985 . S
C324 C318 1.379 . S
C324 C321 1.363 . S
C324 N322 1.356 . S
C325 C319 1.363 . S
C325 C320 1.379 . S
C325 N323 1.356 . S
N326 C318 1.356 . S
N326 H332 0.984 . S
N326 H333 0.984 . S
N327 C320 1.356 . S
N327 H330 0.984 . S
N327 H331 0.985 . S
H328 N323 0.984 . S
H329 N323 0.985 . S
H330 N327 0.984 . S
H331 N327 0.985 . S
H332 N326 0.984 . S
H333 N326 0.984 . S
H334 N322 0.984 . S
H335 N322 0.985 . S
C336 C337 1.363 . S
C336 C342 1.379 . S
C336 N344 1.356 . S
C337 C336 1.363 . S
C337 C343 1.363 . S
C338 C339 1.363 . S
C338 C343 1.379 . S
C338 N345 1.356 . S
C339 C338 1.363 . S
C339 C342 1.363 . S
N340 C342 1.356 . S
N340 H352 0.984 . S
N340 H353 0.985 . S
N341 C343 1.356 . S
N341 H346 0.984 . S
N341 H347 0.985 . S
C342 C336 1.379 . S
C342 C339 1.363 . S
C342 N340 1.356 . S
C343 C337 1.363 . S
C343 C338 1.379 . S
C343 N341 1.356 . S
N344 C336 1.356 . S
N344 H350 0.984 . S
N344 H351 0.984 . S
N345 C338 1.356 . S
N345 H348 0.984 . S
N345 H349 0.985 . S
H346 N341 0.984 . S
H347 N341 0.985 . S
H348 N345 0.984 . S
H349 N345 0.985 . S
H350 N344 0.984 . S
H351 N344 0.984 . S
H352 N340 0.984 . S
H353 N340 0.985 . S
C354 C355 1.363 . S
C354 C360 1.379 1_554 S
C354 N362 1.356 . S
C355 C354 1.363 . S
C355 C361 1.363 . S
C356 C357 1.363 . S
C356 C361 1.379 1_556 S
C356 N363 1.356 . S
C357 C356 1.363 . S
C357 C360 1.363 . S
N358 C360 1.356 . S
N358 H370 0.984 . S
N358 H371 0.985 . S
N359 C361 1.356 1_655 S
N359 H364 0.984 . S
N359 H365 0.985 . S
C360 C354 1.379 1_556 S
C360 C357 1.363 . S
C360 N358 1.356 . S
C361 C355 1.363 . S
C361 C356 1.379 1_554 S
C361 N359 1.356 1_455 S
N362 C354 1.356 . S
N362 H368 0.984 . S
N362 H369 0.984 . S
N363 C356 1.356 . S
N363 H366 0.984 . S
N363 H367 0.985 1_455 S
H364 N359 0.984 . S
H365 N359 0.985 . S
H366 N363 0.984 . S
H367 N363 0.985 1_655 S
H368 N362 0.984 . S
H369 N362 0.984 . S
H370 N358 0.984 . S
H371 N358 0.985 . S
C372 C373 1.363 . S
C372 C378 1.379 . S
C372 N380 1.356 . S
C373 C372 1.363 . S
C373 C379 1.363 1_545 S
C374 C375 1.363 1_565 S
C374 C379 1.379 . S
C374 N381 1.356 . S
C375 C374 1.363 1_545 S
C375 C378 1.363 . S
N376 C378 1.356 . S
N376 H388 0.984 . S
N376 H389 0.985 . S
N377 C379 1.356 . S
N377 H382 0.984 . S
N377 H383 0.985 . S
C378 C372 1.379 . S
C378 C375 1.363 . S
C378 N376 1.356 . S
C379 C373 1.363 1_565 S
C379 C374 1.379 . S
C379 N377 1.356 . S
N380 C372 1.356 . S
N380 H386 0.984 . S
N380 H387 0.984 . S
N381 C374 1.356 . S
N381 H384 0.984 . S
N381 H385 0.985 . S
H382 N377 0.984 . S
H383 N377 0.985 . S
H384 N381 0.984 . S
H385 N381 0.985 . S
H386 N380 0.984 . S
H387 N380 0.984 . S
H388 N376 0.984 . S
H389 N376 0.985 . S
C390 C391 1.363 . S
C390 C396 1.379 . S
C390 N398 1.356 . S
C391 C390 1.363 . S
C391 C397 1.363 . S
C392 C393 1.363 . S
C392 C397 1.379 . S
C392 N399 1.356 . S
C393 C392 1.363 . S
C393 C396 1.363 . S
N394 C396 1.356 . S
N394 H406 0.984 . S
N394 H407 0.985 . S
N395 C397 1.356 . S
N395 H400 0.984 . S
N395 H401 0.985 . S
C396 C390 1.379 . S
C396 C393 1.363 . S
C396 N394 1.356 . S
C397 C391 1.363 . S
C397 C392 1.379 . S
C397 N395 1.356 . S
N398 C390 1.356 . S
N398 H404 0.984 . S
N398 H405 0.984 . S
N399 C392 1.356 . S
N399 H402 0.984 . S
N399 H403 0.985 . S
H400 N395 0.984 . S
H401 N395 0.985 . S
H402 N399 0.984 . S
H403 N399 0.985 . S
H404 N398 0.984 . S
H405 N398 0.984 . S
H406 N394 0.984 . S
H407 N394 0.985 . S
C408 C409 1.363 . S
C408 C414 1.379 . S
C408 N416 1.356 1_545 S
C409 C408 1.363 . S
C409 C415 1.363 . S
C410 C411 1.363 . S
C410 C415 1.379 . S
C410 N417 1.356 . S
C411 C410 1.363 . S
C411 C414 1.363 . S
N412 C414 1.356 1_565 S
N412 H424 0.984 . S
N412 H425 0.985 . S
N413 C415 1.356 . S
N413 H418 0.984 . S
N413 H419 0.985 . S
C414 C408 1.379 . S
C414 C411 1.363 . S
C414 N412 1.356 1_545 S
C415 C409 1.363 . S
C415 C410 1.379 . S
C415 N413 1.356 . S
N416 C408 1.356 1_565 S
N416 H422 0.984 . S
N416 H423 0.984 . S
N417 C410 1.356 . S
N417 H420 0.984 . S
N417 H421 0.985 . S
H418 N413 0.984 . S
H419 N413 0.985 . S
H420 N417 0.984 . S
H421 N417 0.985 . S
H422 N416 0.984 . S
H423 N416 0.984 . S
H424 N412 0.984 . S
H425 N412 0.985 . S
C426 C427 1.363 . S
C426 C432 1.379 1_556 S
C426 N434 1.356 . S
C427 C426 1.363 . S
C427 C433 1.363 . S
C428 C429 1.363 . S
C428 C433 1.379 1_554 S
C428 N435 1.356 . S
C429 C428 1.363 . S
C429 C432 1.363 . S
N430 C432 1.356 . S
N430 H442 0.984 . S
N430 H443 0.985 . S
N431 C433 1.356 . S
N431 H436 0.984 . S
N431 H437 0.985 . S
C432 C426 1.379 1_554 S
C432 C429 1.363 . S
C432 N430 1.356 . S
C433 C427 1.363 . S
C433 C428 1.379 1_556 S
C433 N431 1.356 . S
N434 C426 1.356 . S
N434 H440 0.984 . S
N434 H441 0.984 . S
N435 C428 1.356 . S
N435 H438 0.984 . S
N435 H439 0.985 . S
H436 N431 0.984 . S
H437 N431 0.985 . S
H438 N435 0.984 . S
H439 N435 0.985 . S
H440 N434 0.984 . S
H441 N434 0.984 . S
H442 N430 0.984 . S
H443 N430 0.985 . S
C444 C445 1.363 1_455 S
C444 C450 1.379 . S
C444 N452 1.356 . S
C445 C444 1.363 1_655 S
C445 C451 1.363 . S
C446 C447 1.363 1_655 S
C446 C451 1.379 . S
C446 N453 1.356 . S
C447 C446 1.363 1_455 S
C447 C450 1.363 . S
N448 C450 1.356 . S
N448 H460 0.984 . S
N448 H461 0.985 . S
N449 C451 1.356 . S
N449 H454 0.984 . S
N449 H455 0.985 . S
C450 C444 1.379 . S
C450 C447 1.363 . S
C450 N448 1.356 . S
C451 C445 1.363 . S
C451 C446 1.379 . S
C451 N449 1.356 . S
N452 C444 1.356 . S
N452 H458 0.984 . S
N452 H459 0.984 . S
N453 C446 1.356 . S
N453 H456 0.984 . S
N453 H457 0.985 . S
H454 N449 0.984 . S
H455 N449 0.985 . S
H456 N453 0.984 . S
H457 N453 0.985 . S
H458 N452 0.984 . S
H459 N452 0.984 . S
H460 N448 0.984 . S
H461 N448 0.985 . S
C139 C2 0.929 . S
C141 N127 0.923 . S
C157 C21 0.993 . S
C159 N100 0.994 . S
C175 C42 1.016 . S
C177 N113 1.017 . S
C193 C1 1.207 . S
C195 N126 1.254 . S
C213 N101 1.176 . S
C211 C22 1.153 . S
C231 N114 1.116 . S
C229 C41 1.085 . S
C247 C38 1.823 . S
C249 N74 1.835 . S
C265 C59 1.781 . S
C267 N88 1.742 . S
C283 C18 1.930 . S
C285 N62 1.934 . S
C303 N75 1.978 . S
C301 C39 2.001 . S
C321 N87 2.111 . S
C319 C58 2.067 . S
C337 C19 1.877 . S
C339 N61 1.876 . S
C357 N91 1.584 . S
C355 C9 1.567 . S
C373 C29 1.558 . S
C375 N65 1.568 . S
C391 C49 1.513 . S
C393 N78 1.614 . S
C411 N117 1.432 . S
C409 C28 1.392 . S
C429 N130 1.443 . S
C427 C48 1.461 . S
C445 C8 1.464 . S
C447 N104 1.480 . S
