# Generated by pormake.
# Topology anh, (6,3)-cn, num edge types: 1
# Building blocks:
#     Node 0, Type 0, BuildingBlock: BETFEN_clean_sbu_0, # of connection points: 6
#     Node 1, Type 0, BuildingBlock: BETFEN_clean_sbu_0, # of connection points: 6
#     Node 2, Type 0, BuildingBlock: BETFEN_clean_sbu_0, # of connection points: 6
#     Node 3, Type 1, BuildingBlock: ESEHIV_clean_linker_0, # of connection points: 3
#     Node 4, Type 1, BuildingBlock: ESEHIV_clean_linker_0, # of connection points: 3
#     Node 5, Type 1, BuildingBlock: ESEHIV_clean_linker_0, # of connection points: 3
#     Node 6, Type 1, BuildingBlock: ESEHIV_clean_linker_0, # of connection points: 3
#     Node 7, Type 1, BuildingBlock: ESEHIV_clean_linker_0, # of connection points: 3
#     Node 8, Type 1, BuildingBlock: ESEHIV_clean_linker_0, # of connection points: 3
#     Edge 9, Type (0, 1), BuildingBlock: AJUNOK_clean_linker_0, # of connection points: 2
#     Edge 10, Type (0, 1), BuildingBlock: AJUNOK_clean_linker_0, # of connection points: 2
#     Edge 11, Type (0, 1), BuildingBlock: AJUNOK_clean_linker_0, # of connection points: 2
#     Edge 12, Type (0, 1), BuildingBlock: AJUNOK_clean_linker_0, # of connection points: 2
#     Edge 13, Type (0, 1), BuildingBlock: AJUNOK_clean_linker_0, # of connection points: 2
#     Edge 14, Type (0, 1), BuildingBlock: AJUNOK_clean_linker_0, # of connection points: 2
#     Edge 15, Type (0, 1), BuildingBlock: AJUNOK_clean_linker_0, # of connection points: 2
#     Edge 16, Type (0, 1), BuildingBlock: AJUNOK_clean_linker_0, # of connection points: 2
#     Edge 17, Type (0, 1), BuildingBlock: AJUNOK_clean_linker_0, # of connection points: 2
#     Edge 18, Type (0, 1), BuildingBlock: AJUNOK_clean_linker_0, # of connection points: 2
#     Edge 19, Type (0, 1), BuildingBlock: AJUNOK_clean_linker_0, # of connection points: 2
#     Edge 20, Type (0, 1), BuildingBlock: AJUNOK_clean_linker_0, # of connection points: 2
#     Edge 21, Type (0, 1), BuildingBlock: AJUNOK_clean_linker_0, # of connection points: 2
#     Edge 22, Type (0, 1), BuildingBlock: AJUNOK_clean_linker_0, # of connection points: 2
#     Edge 23, Type (0, 1), BuildingBlock: AJUNOK_clean_linker_0, # of connection points: 2
#     Edge 24, Type (0, 1), BuildingBlock: AJUNOK_clean_linker_0, # of connection points: 2
#     Edge 25, Type (0, 1), BuildingBlock: AJUNOK_clean_linker_0, # of connection points: 2
#     Edge 26, Type (0, 1), BuildingBlock: AJUNOK_clean_linker_0, # of connection points: 2
# Relax obj value: 0.285
# Max RMSD: 0.257
# Mean RMSD: 0.181
data_MOF--net-anh--node1-BETFEN_clean_sbu_0--node2-ESEHIV_clean_linker_0--edge1-AJUNOK_clean_linker_0
_symmetry_space_group_name_H-M    P1
_symmetry_Int_Tables_number       1
_symmetry_cell_setting            triclinic
loop_
_symmetry_equiv_pos_as_xyz
'x, y, z'
_cell_length_a     19.632324
_cell_length_b     20.425597
_cell_length_c     38.293776
_cell_angle_alpha  92.495135
_cell_angle_beta   89.973792
_cell_angle_gamma 96.460406
loop_
_atom_site_label
_atom_site_type_symbol
_atom_site_fract_x
_atom_site_fract_y
_atom_site_fract_z
_atom_type_partial_charge
Pr0 Pr 0.06039 0.57752 0.1428 0.0
Pr1 Pr 0.08265 0.71909 0.13964 0.0
C2 C 1.04416 0.44929 0.15728 0.0
C3 C 0.98538 0.40656 0.16992 0.0
C4 C 0.98154 0.33832 0.16353 0.0
C5 C 0.92456 0.29755 0.17463 0.0
C6 C 0.87087 0.32468 0.19231 0.0
C7 C 0.87415 0.39329 0.19799 0.0
C8 C 0.93113 0.43403 0.18687 0.0
C9 C 0.05451 0.61669 0.07403 0.0
C10 C 0.92262 0.65167 0.13952 0.0
C11 C 0.10522 0.85037 0.13373 0.0
C12 C 0.16899 0.89248 0.14267 0.0
C13 C 0.17198 0.96138 0.14479 0.0
C14 C 0.23266 0.99955 0.15583 0.0
C15 C 0.29101 0.96903 0.1642 0.0
C16 C 0.28768 0.90016 0.1617 0.0
C17 C 0.22699 0.86242 0.15156 0.0
C18 C 0.09068 0.67464 0.20746 0.0
C19 C 0.22166 0.64572 0.13625 0.0
O20 O 0.07108 0.49552 0.17944 0.0
O21 O 1.03726 0.46995 0.12587 0.0
O22 O 0.09929 0.64078 0.09615 0.0
O23 O 1.0104 0.57327 0.0877 0.0
O24 O 0.96476 0.69967 0.12678 0.0
O25 O 0.94771 0.60136 0.15328 0.0
O26 O 0.10933 0.80851 0.10721 0.0
O27 O 0.07351 0.82331 0.16034 0.0
O28 O 1.04413 0.65474 0.18568 0.0
O29 O 0.13567 0.71792 0.19439 0.0
O30 O 0.18236 0.59383 0.14715 0.0
O31 O 0.19352 0.69755 0.12695 0.0
H32 H 1.0225 0.31664 0.14992 0.0
H33 H 0.9224 0.24479 0.16946 0.0
H34 H 0.83336 0.41517 0.21163 0.0
H35 H 0.93304 0.48687 0.19163 0.0
H36 H 0.12722 0.98539 0.13878 0.0
H37 H 0.23383 1.05268 0.15834 0.0
H38 H 0.33106 0.87533 0.16919 0.0
H39 H 0.22468 0.80952 0.15186 0.0
Pr40 Pr 0.65317 0.13051 0.51715 0.0
Pr41 Pr 0.49646 0.11294 0.51926 0.0
C42 C 0.78584 0.16843 0.50516 0.0
C43 C 0.82327 0.22756 0.49073 0.0
C44 C 0.87416 0.26548 0.51093 0.0
C45 C 0.90833 0.32311 0.4981 0.0
C46 C 0.8925 0.343 0.46475 0.0
C47 C 0.84101 0.30571 0.44475 0.0
C48 C 0.80639 0.24857 0.45767 0.0
C49 C 0.5936 1.11078 0.58173 0.0
C50 C 0.56942 0.27073 0.52335 0.0
C51 C 0.36919 1.0744 0.53988 0.0
C52 C 0.32261 1.01874 0.52493 0.0
C53 C 0.31501 1.00981 0.48848 0.0
C54 C 0.28203 0.9512 0.47378 0.0
C55 C 0.25616 0.90012 0.49511 0.0
C56 C 0.26242 0.90933 0.53159 0.0
C57 C 0.29547 0.96828 0.54639 0.0
C58 C 0.52998 1.10879 0.44841 0.0
C59 C 0.58192 0.97353 0.51908 0.0
O60 O 0.74719 0.12914 0.48339 0.0
O61 O 0.75735 0.17743 0.53562 0.0
O62 O 0.57662 0.14894 0.55941 0.0
O63 O 0.64611 1.08151 0.5716 0.0
O64 O 0.5119 0.23068 0.52772 0.0
O65 O 0.62772 0.24455 0.51651 0.0
O66 O 0.4231 1.05671 0.55552 0.0
O67 O 0.3834 0.12519 0.52016 0.0
O68 O 0.57397 0.11654 0.47283 0.0
O69 O 0.46828 1.10324 0.46053 0.0
O70 O 0.63986 1.01199 0.51335 0.0
O71 O 0.52391 1.00098 0.52335 0.0
H72 H 0.88726 0.25058 0.53667 0.0
H73 H 0.94792 0.35149 0.51389 0.0
H74 H 0.82753 0.32094 0.41914 0.0
H75 H 0.76638 0.22111 0.44179 0.0
H76 H 0.33654 1.04713 0.47114 0.0
H77 H 0.27736 0.94552 0.44558 0.0
H78 H 0.24379 0.87024 0.54857 0.0
H79 H 0.3024 0.97342 0.57448 0.0
Pr80 Pr 0.57011 0.57293 0.82733 0.0
Pr81 Pr 0.59689 0.70719 0.83062 0.0
C82 C 0.56962 0.44261 0.82118 0.0
C83 C 0.61837 0.39947 0.83331 0.0
C84 C 0.59509 0.34828 0.85485 0.0
C85 C 0.63573 0.29797 0.85982 0.0
C86 C 0.69674 0.29625 0.84045 0.0
C87 C 0.72819 0.35653 0.82869 0.0
C88 C 0.68751 0.40705 0.82317 0.0
C89 C 0.55906 0.62128 0.89591 0.0
C90 C 0.73475 0.63368 0.83271 0.0
C91 C 0.61304 0.83516 0.84876 0.0
C92 C 0.55935 0.87919 0.84564 0.0
C93 C 0.53334 0.88969 0.81253 0.0
C94 C 0.47187 0.9163 0.80939 0.0
C95 C 0.43439 0.93293 0.83924 0.0
C96 C 0.46197 0.92566 0.87244 0.0
C97 C 0.52394 0.8987 0.87562 0.0
C98 C 0.56445 0.66152 0.76127 0.0
C99 C 0.43499 0.64654 0.82767 0.0
O100 O 0.589 0.4809 0.7957 0.0
O101 O 0.53644 0.47125 0.84575 0.0
O102 O 0.6082 0.63827 0.87572 0.0
O103 O 0.51141 0.58252 0.87985 0.0
O104 O 0.71261 0.6909 0.82783 0.0
O105 O 0.69016 0.58093 0.83594 0.0
O106 O 0.59908 0.78989 0.87156 0.0
O107 O 0.63799 0.81217 0.81952 0.0
O108 O 0.60471 0.63722 0.78145 0.0
O109 O 0.53964 0.71131 0.77676 0.0
O110 O 0.45952 0.59586 0.81173 0.0
O111 O 0.47863 0.69267 0.84293 0.0
H112 H 0.54339 0.34396 0.86511 0.0
H113 H 0.61211 0.25488 0.87254 0.0
H114 H 0.77845 0.35927 0.81679 0.0
H115 H 0.70834 0.44881 0.8085 0.0
H116 H 0.55893 0.87509 0.78884 0.0
H117 H 0.45418 0.92445 0.78331 0.0
H118 H 0.43514 0.93986 0.89579 0.0
H119 H 0.54267 0.89035 0.90148 0.0
H120 H 0.48582 1.05126 0.2864 0.0
H121 H 0.674 0.17874 0.30124 0.0
H122 H 0.58948 0.13779 0.1979 0.0
C123 C 0.52856 1.08226 0.27571 0.0
C124 C 0.53089 1.09142 0.2396 0.0
C125 C 0.57869 0.11512 0.29835 0.0
C126 C 0.63534 0.15246 0.28405 0.0
C127 C 0.64034 0.15922 0.24771 0.0
C128 C 0.58729 0.12978 0.22569 0.0
H129 H 0.57798 0.73817 0.60258 0.0
H130 H 0.57322 0.52795 0.6063 0.0
H131 H 0.57799 0.61956 0.50633 0.0
C132 C 0.57866 0.69061 0.58892 0.0
C133 C 0.57976 0.68805 0.55219 0.0
C134 C 0.57684 0.63373 0.60851 0.0
C135 C 0.57476 0.5715 0.59097 0.0
C136 C 0.5753 0.5639 0.55418 0.0
C137 C 0.57801 0.62345 0.5346 0.0
H138 H 0.97503 0.63743 0.91827 0.0
H139 H 0.19375 0.6402 0.92015 0.0
H140 H 0.08659 0.6379 0.82143 0.0
C141 C 1.02329 0.63789 0.90438 0.0
C142 C 1.02296 0.63656 0.86781 0.0
C143 C 0.08397 0.63733 0.92338 0.0
C144 C 0.14648 0.64012 0.9055 0.0
C145 C 0.14836 0.64091 0.86871 0.0
C146 C 0.08601 0.63849 0.84973 0.0
H147 H 1.00222 0.55413 0.35462 0.0
H148 H 0.14537 0.72848 0.36928 0.0
H149 H 0.0835 0.61279 0.45703 0.0
C150 C 1.03561 0.58745 0.37153 0.0
C151 C 1.03969 0.57579 0.40735 0.0
C152 C 0.07413 0.64194 0.35732 0.0
C153 C 0.11476 0.6865 0.3798 0.0
C154 C 0.11604 0.67761 0.41594 0.0
C155 C 0.07969 0.62143 0.42941 0.0
H156 H 0.58737 1.08722 0.71642 0.0
H157 H 0.36766 1.05998 0.71689 0.0
H158 H 0.48266 0.12468 0.81111 0.0
C159 C 0.53951 1.08698 0.73063 0.0
C160 C 0.54105 1.10987 0.76522 0.0
C161 C 0.47727 1.07087 0.71304 0.0
C162 C 0.41527 1.07179 0.73116 0.0
C163 C 0.41556 1.08611 0.76758 0.0
C164 C 0.47951 1.10866 0.78381 0.0
H165 H 0.46143 0.63106 0.05271 0.0
H166 H 0.68043 0.63765 0.05207 0.0
H167 H 0.57284 0.64595 0.15015 0.0
C168 C 0.5096 0.63264 0.06677 0.0
C169 C 0.50929 0.63641 0.10344 0.0
C170 C 0.57088 0.63448 0.04801 0.0
C171 C 0.63285 0.6382 0.0664 0.0
C172 C 0.63458 0.64239 0.10313 0.0
C173 C 0.57222 0.64097 0.12187 0.0
C174 C 0.33176 0.59176 0.14137 0.0
C175 C 0.2979 0.64637 0.13267 0.0
C176 C 0.4026 0.59041 0.13501 0.0
C177 C 0.44225 0.64414 0.1204 0.0
H178 H 0.30293 0.54869 0.15181 0.0
H179 H 0.42557 0.54581 0.13973 0.0
S180 S 0.38108 0.80004 0.09445 0.0
N181 N 0.31215 0.75632 0.10918 0.0
N182 N 0.44406 0.75413 0.09917 0.0
C183 C 0.41009 0.70011 0.11353 0.0
C184 C 0.33836 0.70114 0.11911 0.0
C185 C 0.93219 0.46351 0.46777 0.0
C186 C 0.93093 0.4016 0.45023 0.0
C187 C 0.96718 0.5198 0.45366 0.0
C188 C 1.00274 0.5157 0.4218 0.0
H189 H 0.90498 0.46856 0.49219 0.0
H190 H 0.96566 0.56691 0.4676 0.0
S191 S 1.0201 0.36301 0.36789 0.0
N192 N 0.97037 0.33827 0.40065 0.0
N193 N 1.03851 0.44341 0.37468 0.0
C194 C 1.00322 0.45345 0.40463 0.0
C195 C 0.96677 0.39653 0.41873 0.0
C196 C 0.37594 1.03272 0.84796 0.0
C197 C 0.37272 0.96715 0.83462 0.0
C198 C 0.36059 1.08208 0.82572 0.0
C199 C 0.35382 1.06557 0.78958 0.0
H200 H 0.40194 1.04753 0.87246 0.0
H201 H 0.37452 0.13295 0.8345 0.0
S202 S 0.27921 0.9015 0.75459 0.0
N203 N 0.31256 0.88786 0.79287 0.0
N204 N 0.29033 0.98229 0.75074 0.0
C205 C 0.32115 1.00166 0.7818 0.0
C206 C 0.33231 0.95085 0.80459 0.0
C207 C 0.82149 0.70439 0.11849 0.0
C208 C 0.84676 0.65287 0.13608 0.0
C209 C 0.75153 0.70321 0.11066 0.0
C210 C 0.70339 0.65076 0.12022 0.0
H211 H 0.85627 0.74484 0.10924 0.0
H212 H 0.73537 0.74209 0.0953 0.0
S213 S 0.74023 0.50745 0.17017 0.0
N214 N 0.81592 0.55054 0.16571 0.0
N215 N 0.68452 0.54879 0.15068 0.0
C216 C 0.72675 0.60119 0.13983 0.0
C217 C 0.79832 0.60208 0.14777 0.0
C218 C 0.25536 0.80734 0.45049 0.0
C219 C 0.22312 0.83767 0.47869 0.0
C220 C 0.22147 0.75364 0.43123 0.0
C221 C 0.15418 0.72828 0.43953 0.0
H222 H 0.30659 0.82643 0.44268 0.0
H223 H 0.2475 0.73281 0.40916 0.0
S224 S 1.04871 0.78773 0.5122 0.0
N225 N 0.12161 0.8366 0.51506 0.0
N226 N 0.05762 0.73543 0.47885 0.0
C227 C 0.12261 0.75603 0.46874 0.0
C228 C 0.1572 0.8108 0.48836 0.0
C229 C 0.67556 0.17465 0.83224 0.0
C230 C 0.69995 0.23529 0.81792 0.0
C231 C 0.62667 0.13054 0.81412 0.0
C232 C 0.6056 0.14359 0.78032 0.0
H233 H 0.68392 0.1673 0.85969 0.0
H234 H 0.60116 1.08921 0.82763 0.0
S235 S 0.68073 0.27836 0.72529 0.0
N236 N 0.71976 0.29251 0.76341 0.0
N237 N 0.628 0.21055 0.72963 0.0
C238 C 0.64182 0.19589 0.76306 0.0
C239 C 0.69111 0.24058 0.78154 0.0
C240 C 0.6425 0.86878 0.52886 0.0
C241 C 0.58163 0.89805 0.5226 0.0
C242 C 0.64219 0.80017 0.53536 0.0
C243 C 0.58133 0.75538 0.53509 0.0
H244 H 0.69104 0.89973 0.53029 0.0
H245 H 0.69022 0.78252 0.5422 0.0
S246 S 0.40745 0.80402 0.51926 0.0
N247 N 0.45804 0.87378 0.51607 0.0
N248 N 0.45813 0.74726 0.52767 0.0
C249 C 0.52047 0.78358 0.52795 0.0
C250 C 0.52049 0.85353 0.52181 0.0
C251 C 0.85834 0.68402 0.829 0.0
C252 C 0.8102 0.62969 0.83661 0.0
C253 C 0.92899 0.68404 0.83591 0.0
C254 C 0.95437 0.62953 0.85045 0.0
H255 H 0.84112 0.72801 0.81881 0.0
H256 H 0.96326 0.72841 0.83184 0.0
S257 S 0.85198 0.47443 0.87442 0.0
N258 N 0.79492 0.51934 0.859 0.0
N259 N 0.92685 0.51921 0.87103 0.0
C260 C 0.90754 0.57395 0.8566 0.0
C261 C 0.83583 0.57403 0.84995 0.0
C262 C 0.34659 1.04581 0.2105 0.0
C263 C 0.35283 1.00739 0.17964 0.0
C264 C 0.40465 1.07406 0.22905 0.0
C265 C 0.47118 1.065 0.21745 0.0
H266 H 0.29644 1.0517 0.22121 0.0
H267 H 0.39732 1.1023 0.2531 0.0
S268 S 0.51474 0.97286 0.13636 0.0
N269 N 0.43008 0.96503 0.13684 0.0
N270 N 0.53978 1.01793 0.1719 0.0
C271 C 0.47816 1.02909 0.18572 0.0
C272 C 0.41882 1.00011 0.16685 0.0
C273 C 0.62807 0.39202 0.52188 0.0
C274 C 0.5688 0.34679 0.52744 0.0
C275 C 0.62894 0.4621 0.52763 0.0
C276 C 0.57044 0.49198 0.53901 0.0
H277 H 0.67523 0.37307 0.51382 0.0
H278 H 0.67696 0.49294 0.52455 0.0
S279 S 0.40163 0.39849 0.55768 0.0
N280 N 0.44931 0.34025 0.54503 0.0
N281 N 0.45144 0.46893 0.55563 0.0
C282 C 0.51084 0.44754 0.54403 0.0
C283 C 0.50981 0.3765 0.53825 0.0
C284 C 0.31244 0.59112 0.8266 0.0
C285 C 0.35926 0.64835 0.83256 0.0
C286 C 0.24262 0.5898 0.83602 0.0
C287 C 0.21688 0.64577 0.85146 0.0
H288 H 0.3304 0.54603 0.81617 0.0
H289 H 0.20944 0.54382 0.83284 0.0
S290 S 0.315 0.80893 0.8702 0.0
N291 N 0.37209 0.76374 0.85291 0.0
N292 N 0.242 0.76038 0.87045 0.0
C293 C 0.26202 0.70379 0.85593 0.0
C294 C 0.33275 0.70535 0.84649 0.0
C295 C 0.7449 0.29165 0.19779 0.0
C296 C 0.8126 0.2813 0.20592 0.0
C297 C 0.68921 0.25122 0.21095 0.0
C298 C 0.69959 0.19983 0.23297 0.0
H299 H 0.73503 0.33104 0.18108 0.0
H300 H 0.63773 0.26094 0.20436 0.0
S301 S 0.86683 0.15311 0.26208 0.0
N302 N 0.88695 0.21671 0.23744 0.0
N303 N 0.78228 0.14024 0.26184 0.0
C304 C 0.76699 0.18902 0.24115 0.0
C305 C 0.82353 0.22987 0.22767 0.0
C306 C 0.11014 0.67007 0.02159 0.0
C307 C 0.06281 0.62123 0.03566 0.0
C308 C 0.11851 0.67435 0.9852 0.0
C309 C 0.07996 0.62978 0.96177 0.0
H310 H 0.1403 0.70565 0.03877 0.0
H311 H 0.15411 0.71358 0.97533 0.0
S312 S 0.95459 0.48892 0.98512 0.0
N313 N 0.9799 0.52514 0.023 0.0
N314 N 0.99711 0.53233 0.95517 0.0
C315 C 1.03435 0.57953 0.97558 0.0
C316 C 1.0253 0.57553 0.01236 0.0
C317 C 0.60917 1.10419 0.39653 0.0
C318 C 0.54423 0.11263 0.41049 0.0
C319 C 0.62068 1.10539 0.3602 0.0
C320 C 0.5677 0.11545 0.33682 0.0
H321 H 0.65082 1.09547 0.41365 0.0
H322 H 0.6709 1.0973 0.35032 0.0
S323 S 0.39135 0.14916 0.36077 0.0
N324 N 0.42805 0.13644 0.39821 0.0
N325 N 0.45049 0.14118 0.3308 0.0
C326 C 0.50368 0.12682 0.35078 0.0
C327 C 0.49175 0.12473 0.38738 0.0
C328 C 0.52484 0.60577 0.70381 0.0
C329 C 0.56882 0.65384 0.72264 0.0
C330 C 0.5283 0.59879 0.66704 0.0
C331 C 0.57595 0.63966 0.64775 0.0
H332 H 0.48712 0.57375 0.71755 0.0
H333 H 0.49251 0.56194 0.65358 0.0
S334 S 0.70617 0.76942 0.68556 0.0
N335 N 0.66332 0.74057 0.7198 0.0
N336 N 0.67105 0.72708 0.65114 0.0
C337 C 0.62125 0.68679 0.66665 0.0
C338 C 0.61741 0.69392 0.70394 0.0
C339 C 0.56061 1.03501 0.62938 0.0
C340 C 0.54999 1.09152 0.6115 0.0
C341 C 0.52584 1.02077 0.66043 0.0
C342 C 0.48095 1.06365 0.67483 0.0
H343 H 0.59863 1.00363 0.62042 0.0
H344 H 0.54031 0.98061 0.67539 0.0
S345 S 0.42441 0.20944 0.63399 0.0
N346 N 0.48199 0.18351 0.60683 0.0
N347 N 0.41845 0.15763 0.66606 0.0
C348 C 0.46355 0.11538 0.655 0.0
C349 C 0.49838 0.12963 0.62321 0.0
C350 C 0.51732 0.58628 0.95433 0.0
C351 C 0.56283 0.62783 0.9345 0.0
C352 C 0.52083 0.58853 -0.00916 0.0
C353 C 0.56942 0.63304 0.00914 0.0
H354 H 0.47922 0.55069 0.94158 0.0
H355 H 0.48556 0.55449 0.00483 0.0
S356 S 0.6967 0.75632 0.96955 0.0
N357 N 0.65644 0.71646 0.93574 0.0
N358 N 0.66138 0.72275 0.00463 0.0
C359 C 0.61434 0.67603 0.98966 0.0
C360 C 0.61136 0.67301 0.95231 0.0
C361 C 0.08202 0.60406 0.25917 0.0
C362 C 0.08317 0.66662 0.24531 0.0
C363 C 0.0781 0.59636 0.29539 0.0
C364 C 0.0738 0.65087 0.3189 0.0
H365 H 0.08618 0.56113 0.24205 0.0
H366 H 0.08013 0.54754 0.30505 0.0
S367 S 0.06437 0.82361 0.29451 0.0
N368 N 0.07436 0.78298 0.25696 0.0
N369 N 0.06307 0.76844 0.32483 0.0
C370 C 0.07145 0.71322 0.30492 0.0
C371 C 0.07706 0.72111 0.26817 0.0
loop_
_geom_bond_atom_site_label_1
_geom_bond_atom_site_label_2
_geom_bond_distance
_geom_bond_site_symmetry_2
_ccdc_geom_bond_type
Pr0 C2 2.880 . S
Pr0 O20 2.562 . S
Pr0 O21 2.490 . S
Pr0 O22 2.695 1_655 S
Pr0 O23 2.512 . S
Pr0 O25 2.437 . S
Pr0 O28 2.436 . S
Pr0 O30 2.438 1_655 S
Pr1 C11 2.880 . S
Pr1 O22 2.436 . S
Pr1 O24 2.438 1_455 S
Pr1 O26 2.562 . S
Pr1 O27 2.490 . S
Pr1 O28 2.695 1_455 S
Pr1 O29 2.512 . S
Pr1 O31 2.437 . S
C2 Pr0 2.880 . S
C2 C3 1.491 . S
C2 O20 1.254 . S
C2 O21 1.225 . S
C3 C2 1.491 . S
C3 C4 1.392 . S
C3 C8 1.356 . S
C4 C3 1.392 . S
C4 C5 1.368 . S
C4 H32 0.929 . S
C5 C4 1.368 . S
C5 C6 1.386 . S
C5 H33 0.929 . S
C6 C5 1.386 . S
C6 C7 1.373 . S
C7 C6 1.373 . S
C7 C8 1.409 . S
C7 H34 0.931 . S
C8 C3 1.356 . S
C8 C7 1.409 . S
C8 H35 0.930 . S
C9 O22 1.270 . S
C9 O23 1.248 1_455 S
C10 O24 1.267 . S
C10 O25 1.278 . S
C11 Pr1 2.880 . S
C11 C12 1.491 . S
C11 O26 1.254 . S
C11 O27 1.225 . S
C12 C11 1.491 . S
C12 C13 1.392 . S
C12 C17 1.356 . S
C13 C12 1.392 . S
C13 C14 1.368 . S
C13 H36 0.929 . S
C14 C13 1.368 . S
C14 C15 1.386 . S
C14 H37 0.929 . S
C15 C14 1.386 . S
C15 C16 1.373 . S
C16 C15 1.373 . S
C16 C17 1.409 . S
C16 H38 0.931 . S
C17 C12 1.356 . S
C17 C16 1.409 . S
C17 H39 0.930 . S
C18 O28 1.270 1_455 S
C18 O29 1.248 . S
C19 O30 1.267 . S
C19 O31 1.278 . S
O20 Pr0 2.562 . S
O20 C2 1.254 . S
O21 Pr0 2.490 . S
O21 C2 1.225 . S
O22 Pr0 2.695 1_455 S
O22 Pr1 2.436 . S
O22 C9 1.270 . S
O23 Pr0 2.512 . S
O23 C9 1.248 1_655 S
O24 Pr1 2.438 1_655 S
O24 C10 1.267 . S
O25 Pr0 2.437 . S
O25 C10 1.278 . S
O26 Pr1 2.562 . S
O26 C11 1.254 . S
O27 Pr1 2.490 . S
O27 C11 1.225 . S
O28 Pr0 2.436 . S
O28 Pr1 2.695 1_655 S
O28 C18 1.270 1_655 S
O29 Pr1 2.512 . S
O29 C18 1.248 . S
O30 Pr0 2.438 1_455 S
O30 C19 1.267 . S
O31 Pr1 2.437 . S
O31 C19 1.278 . S
H32 C4 0.929 . S
H33 C5 0.929 . S
H34 C7 0.931 . S
H35 C8 0.930 . S
H36 C13 0.929 . S
H37 C14 0.929 . S
H38 C16 0.931 . S
H39 C17 0.930 . S
Pr40 C42 2.880 . S
Pr40 O60 2.562 . S
Pr40 O61 2.490 . S
Pr40 O62 2.695 1_545 S
Pr40 O63 2.512 . S
Pr40 O65 2.437 . S
Pr40 O68 2.436 . S
Pr40 O70 2.438 1_545 S
Pr41 C51 2.880 . S
Pr41 O62 2.436 . S
Pr41 O64 2.438 1_565 S
Pr41 O66 2.562 . S
Pr41 O67 2.490 . S
Pr41 O68 2.695 1_565 S
Pr41 O69 2.512 . S
Pr41 O71 2.437 . S
C42 Pr40 2.880 . S
C42 C43 1.491 . S
C42 O60 1.254 . S
C42 O61 1.225 . S
C43 C42 1.491 . S
C43 C44 1.392 . S
C43 C48 1.356 . S
C44 C43 1.392 . S
C44 C45 1.368 . S
C44 H72 0.929 . S
C45 C44 1.368 . S
C45 C46 1.386 . S
C45 H73 0.929 . S
C46 C45 1.386 . S
C46 C47 1.373 . S
C47 C46 1.373 . S
C47 C48 1.409 . S
C47 H74 0.931 . S
C48 C43 1.356 . S
C48 C47 1.409 . S
C48 H75 0.930 . S
C49 O62 1.270 1_545 S
C49 O63 1.248 . S
C50 O64 1.267 . S
C50 O65 1.278 . S
C51 Pr41 2.880 . S
C51 C52 1.491 . S
C51 O66 1.254 . S
C51 O67 1.225 . S
C52 C51 1.491 . S
C52 C53 1.392 . S
C52 C57 1.356 . S
C53 C52 1.392 . S
C53 C54 1.368 . S
C53 H76 0.929 . S
C54 C53 1.368 . S
C54 C55 1.386 . S
C54 H77 0.929 . S
C55 C54 1.386 . S
C55 C56 1.373 . S
C56 C55 1.373 . S
C56 C57 1.409 . S
C56 H78 0.931 . S
C57 C52 1.356 . S
C57 C56 1.409 . S
C57 H79 0.930 . S
C58 O68 1.270 . S
C58 O69 1.248 1_545 S
C59 O70 1.267 . S
C59 O71 1.278 . S
O60 Pr40 2.562 . S
O60 C42 1.254 . S
O61 Pr40 2.490 . S
O61 C42 1.225 . S
O62 Pr40 2.695 1_565 S
O62 Pr41 2.436 . S
O62 C49 1.270 1_565 S
O63 Pr40 2.512 . S
O63 C49 1.248 . S
O64 Pr41 2.438 1_545 S
O64 C50 1.267 . S
O65 Pr40 2.437 . S
O65 C50 1.278 . S
O66 Pr41 2.562 . S
O66 C51 1.254 . S
O67 Pr41 2.490 . S
O67 C51 1.225 . S
O68 Pr40 2.436 . S
O68 Pr41 2.695 1_545 S
O68 C58 1.270 . S
O69 Pr41 2.512 . S
O69 C58 1.248 1_565 S
O70 Pr40 2.438 1_565 S
O70 C59 1.267 . S
O71 Pr41 2.437 . S
O71 C59 1.278 . S
H72 C44 0.929 . S
H73 C45 0.929 . S
H74 C47 0.931 . S
H75 C48 0.930 . S
H76 C53 0.929 . S
H77 C54 0.929 . S
H78 C56 0.931 . S
H79 C57 0.930 . S
Pr80 C82 2.880 . S
Pr80 O100 2.562 . S
Pr80 O101 2.490 . S
Pr80 O102 2.695 . S
Pr80 O103 2.512 . S
Pr80 O105 2.437 . S
Pr80 O108 2.436 . S
Pr80 O110 2.438 . S
Pr81 C91 2.880 . S
Pr81 O102 2.436 . S
Pr81 O104 2.438 . S
Pr81 O106 2.562 . S
Pr81 O107 2.490 . S
Pr81 O108 2.695 . S
Pr81 O109 2.512 . S
Pr81 O111 2.437 . S
C82 Pr80 2.880 . S
C82 C83 1.491 . S
C82 O100 1.254 . S
C82 O101 1.225 . S
C83 C82 1.491 . S
C83 C84 1.392 . S
C83 C88 1.356 . S
C84 C83 1.392 . S
C84 C85 1.368 . S
C84 H112 0.929 . S
C85 C84 1.368 . S
C85 C86 1.386 . S
C85 H113 0.929 . S
C86 C85 1.386 . S
C86 C87 1.373 . S
C87 C86 1.373 . S
C87 C88 1.409 . S
C87 H114 0.931 . S
C88 C83 1.356 . S
C88 C87 1.409 . S
C88 H115 0.930 . S
C89 O102 1.270 . S
C89 O103 1.248 . S
C90 O104 1.267 . S
C90 O105 1.278 . S
C91 Pr81 2.880 . S
C91 C92 1.491 . S
C91 O106 1.254 . S
C91 O107 1.225 . S
C92 C91 1.491 . S
C92 C93 1.392 . S
C92 C97 1.356 . S
C93 C92 1.392 . S
C93 C94 1.368 . S
C93 H116 0.929 . S
C94 C93 1.368 . S
C94 C95 1.386 . S
C94 H117 0.929 . S
C95 C94 1.386 . S
C95 C96 1.373 . S
C96 C95 1.373 . S
C96 C97 1.409 . S
C96 H118 0.931 . S
C97 C92 1.356 . S
C97 C96 1.409 . S
C97 H119 0.930 . S
C98 O108 1.270 . S
C98 O109 1.248 . S
C99 O110 1.267 . S
C99 O111 1.278 . S
O100 Pr80 2.562 . S
O100 C82 1.254 . S
O101 Pr80 2.490 . S
O101 C82 1.225 . S
O102 Pr80 2.695 . S
O102 Pr81 2.436 . S
O102 C89 1.270 . S
O103 Pr80 2.512 . S
O103 C89 1.248 . S
O104 Pr81 2.438 . S
O104 C90 1.267 . S
O105 Pr80 2.437 . S
O105 C90 1.278 . S
O106 Pr81 2.562 . S
O106 C91 1.254 . S
O107 Pr81 2.490 . S
O107 C91 1.225 . S
O108 Pr80 2.436 . S
O108 Pr81 2.695 . S
O108 C98 1.270 . S
O109 Pr81 2.512 . S
O109 C98 1.248 . S
O110 Pr80 2.438 . S
O110 C99 1.267 . S
O111 Pr81 2.437 . S
O111 C99 1.278 . S
H112 C84 0.929 . S
H113 C85 0.929 . S
H114 C87 0.931 . S
H115 C88 0.930 . S
H116 C93 0.929 . S
H117 C94 0.929 . S
H118 C96 0.931 . S
H119 C97 0.930 . S
H120 C123 0.931 . S
H121 C126 0.928 . S
H122 C128 0.930 . S
C123 H120 0.931 . S
C123 C124 1.413 . S
C123 C125 1.360 1_565 S
C124 C123 1.413 . S
C124 C128 1.429 1_565 S
C125 C123 1.360 1_545 S
C125 C126 1.372 . S
C126 H121 0.928 . S
C126 C125 1.372 . S
C126 C127 1.404 . S
C127 C126 1.404 . S
C127 C128 1.391 . S
C128 H122 0.930 . S
C128 C124 1.429 1_545 S
C128 C127 1.391 . S
H129 C132 0.931 . S
H130 C135 0.928 . S
H131 C137 0.930 . S
C132 H129 0.931 . S
C132 C133 1.413 . S
C132 C134 1.360 . S
C133 C132 1.413 . S
C133 C137 1.429 . S
C134 C132 1.360 . S
C134 C135 1.372 . S
C135 H130 0.928 . S
C135 C134 1.372 . S
C135 C136 1.404 . S
C136 C135 1.404 . S
C136 C137 1.391 . S
C137 H131 0.930 . S
C137 C133 1.429 . S
C137 C136 1.391 . S
H138 C141 0.931 . S
H139 C144 0.928 . S
H140 C146 0.930 . S
C141 H138 0.931 . S
C141 C142 1.413 . S
C141 C143 1.360 1_655 S
C142 C141 1.413 . S
C142 C146 1.429 1_655 S
C143 C141 1.360 1_455 S
C143 C144 1.372 . S
C144 H139 0.928 . S
C144 C143 1.372 . S
C144 C145 1.404 . S
C145 C144 1.404 . S
C145 C146 1.391 . S
C146 H140 0.930 . S
C146 C142 1.429 1_455 S
C146 C145 1.391 . S
H147 C150 0.931 . S
H148 C153 0.928 . S
H149 C155 0.930 . S
C150 H147 0.931 . S
C150 C151 1.413 . S
C150 C152 1.360 . S
C151 C150 1.413 . S
C151 C155 1.429 1_655 S
C152 C150 1.360 . S
C152 C153 1.372 1_655 S
C153 H148 0.928 . S
C153 C152 1.372 1_455 S
C153 C154 1.404 . S
C154 C153 1.404 . S
C154 C155 1.391 . S
C155 H149 0.930 . S
C155 C151 1.429 1_455 S
C155 C154 1.391 . S
H156 C159 0.931 . S
H157 C162 0.928 . S
H158 C164 0.930 . S
C159 H156 0.931 . S
C159 C160 1.413 . S
C159 C161 1.360 . S
C160 C159 1.413 . S
C160 C164 1.441 . S
C161 C159 1.360 . S
C161 C162 1.372 1_545 S
C162 H157 0.928 . S
C162 C161 1.372 1_565 S
C162 C163 1.404 . S
C163 C162 1.404 . S
C163 C164 1.379 1_565 S
C164 H158 0.930 . S
C164 C160 1.441 . S
C164 C163 1.379 1_545 S
H165 C168 0.931 . S
H166 C171 0.928 . S
H167 C173 0.930 . S
C168 H165 0.931 . S
C168 C169 1.413 . S
C168 C170 1.360 . S
C169 C168 1.413 . S
C169 C173 1.429 . S
C170 C168 1.360 . S
C170 C171 1.372 . S
C171 H166 0.928 . S
C171 C170 1.372 . S
C171 C172 1.404 . S
C172 C171 1.404 . S
C172 C173 1.391 . S
C173 H167 0.930 . S
C173 C169 1.429 . S
C173 C172 1.391 . S
C174 C175 1.369 . S
C174 C176 1.419 . S
C174 H178 0.930 . S
C175 C174 1.369 . S
C175 C184 1.429 . S
C176 C174 1.419 . S
C176 C177 1.363 . S
C176 H179 0.929 . S
C177 C176 1.363 . S
C177 C183 1.428 . S
H178 C174 0.930 . S
H179 C176 0.929 . S
S180 N181 1.613 . S
S180 N182 1.610 . S
N181 S180 1.613 . S
N181 C184 1.350 . S
N182 S180 1.610 . S
N182 C183 1.351 . S
C183 C177 1.428 . S
C183 N182 1.351 . S
C183 C184 1.434 . S
C184 C175 1.429 . S
C184 N181 1.350 . S
C184 C183 1.434 . S
C185 C186 1.369 . S
C185 C187 1.419 . S
C185 H189 0.930 . S
C186 C185 1.369 . S
C186 C195 1.429 . S
C187 C185 1.419 . S
C187 C188 1.363 . S
C187 H190 0.929 . S
C188 C187 1.363 . S
C188 C194 1.428 . S
H189 C185 0.930 . S
H190 C187 0.929 . S
S191 N192 1.613 . S
S191 N193 1.610 . S
N192 S191 1.613 . S
N192 C195 1.350 . S
N193 S191 1.610 . S
N193 C194 1.351 . S
C194 C188 1.428 . S
C194 N193 1.351 . S
C194 C195 1.434 . S
C195 C186 1.429 . S
C195 N192 1.350 . S
C195 C194 1.434 . S
C196 C197 1.369 . S
C196 C198 1.419 . S
C196 H200 0.930 . S
C197 C196 1.369 . S
C197 C206 1.429 . S
C198 C196 1.419 . S
C198 C199 1.363 . S
C198 H201 0.929 . S
C199 C198 1.363 . S
C199 C205 1.428 . S
H200 C196 0.930 . S
H201 C198 0.929 . S
S202 N203 1.613 . S
S202 N204 1.610 . S
N203 S202 1.613 . S
N203 C206 1.350 . S
N204 S202 1.610 . S
N204 C205 1.351 . S
C205 C199 1.428 . S
C205 N204 1.351 . S
C205 C206 1.434 . S
C206 C197 1.429 . S
C206 N203 1.350 . S
C206 C205 1.434 . S
C207 C208 1.369 . S
C207 C209 1.419 . S
C207 H211 0.930 . S
C208 C207 1.369 . S
C208 C217 1.429 . S
C209 C207 1.419 . S
C209 C210 1.363 . S
C209 H212 0.929 . S
C210 C209 1.363 . S
C210 C216 1.428 . S
H211 C207 0.930 . S
H212 C209 0.929 . S
S213 N214 1.613 . S
S213 N215 1.610 . S
N214 S213 1.613 . S
N214 C217 1.350 . S
N215 S213 1.610 . S
N215 C216 1.351 . S
C216 C210 1.428 . S
C216 N215 1.351 . S
C216 C217 1.434 . S
C217 C208 1.429 . S
C217 N214 1.350 . S
C217 C216 1.434 . S
C218 C219 1.369 . S
C218 C220 1.419 . S
C218 H222 0.930 . S
C219 C218 1.369 . S
C219 C228 1.429 . S
C220 C218 1.419 . S
C220 C221 1.363 . S
C220 H223 0.929 . S
C221 C220 1.363 . S
C221 C227 1.428 . S
H222 C218 0.930 . S
H223 C220 0.929 . S
S224 N225 1.613 . S
S224 N226 1.610 . S
N225 S224 1.613 . S
N225 C228 1.350 . S
N226 S224 1.610 . S
N226 C227 1.351 . S
C227 C221 1.428 . S
C227 N226 1.351 . S
C227 C228 1.434 . S
C228 C219 1.429 . S
C228 N225 1.350 . S
C228 C227 1.434 . S
C229 C230 1.369 . S
C229 C231 1.419 . S
C229 H233 0.930 . S
C230 C229 1.369 . S
C230 C239 1.429 . S
C231 C229 1.419 . S
C231 C232 1.363 . S
C231 H234 0.929 . S
C232 C231 1.363 . S
C232 C238 1.428 . S
H233 C229 0.930 . S
H234 C231 0.929 . S
S235 N236 1.613 . S
S235 N237 1.610 . S
N236 S235 1.613 . S
N236 C239 1.350 . S
N237 S235 1.610 . S
N237 C238 1.351 . S
C238 C232 1.428 . S
C238 N237 1.351 . S
C238 C239 1.434 . S
C239 C230 1.429 . S
C239 N236 1.350 . S
C239 C238 1.434 . S
C240 C241 1.369 . S
C240 C242 1.419 . S
C240 H244 0.930 . S
C241 C240 1.369 . S
C241 C250 1.429 . S
C242 C240 1.419 . S
C242 C243 1.363 . S
C242 H245 0.929 . S
C243 C242 1.363 . S
C243 C249 1.428 . S
H244 C240 0.930 . S
H245 C242 0.929 . S
S246 N247 1.613 . S
S246 N248 1.610 . S
N247 S246 1.613 . S
N247 C250 1.350 . S
N248 S246 1.610 . S
N248 C249 1.351 . S
C249 C243 1.428 . S
C249 N248 1.351 . S
C249 C250 1.434 . S
C250 C241 1.429 . S
C250 N247 1.350 . S
C250 C249 1.434 . S
C251 C252 1.369 . S
C251 C253 1.419 . S
C251 H255 0.930 . S
C252 C251 1.369 . S
C252 C261 1.429 . S
C253 C251 1.419 . S
C253 C254 1.363 . S
C253 H256 0.929 . S
C254 C253 1.363 . S
C254 C260 1.428 . S
H255 C251 0.930 . S
H256 C253 0.929 . S
S257 N258 1.613 . S
S257 N259 1.610 . S
N258 S257 1.613 . S
N258 C261 1.350 . S
N259 S257 1.610 . S
N259 C260 1.351 . S
C260 C254 1.428 . S
C260 N259 1.351 . S
C260 C261 1.434 . S
C261 C252 1.429 . S
C261 N258 1.350 . S
C261 C260 1.434 . S
C262 C263 1.369 . S
C262 C264 1.419 . S
C262 H266 0.930 . S
C263 C262 1.369 . S
C263 C272 1.429 . S
C264 C262 1.419 . S
C264 C265 1.363 . S
C264 H267 0.929 . S
C265 C264 1.363 . S
C265 C271 1.428 . S
H266 C262 0.930 . S
H267 C264 0.929 . S
S268 N269 1.613 . S
S268 N270 1.610 . S
N269 S268 1.613 . S
N269 C272 1.350 . S
N270 S268 1.610 . S
N270 C271 1.351 . S
C271 C265 1.428 . S
C271 N270 1.351 . S
C271 C272 1.434 . S
C272 C263 1.429 . S
C272 N269 1.350 . S
C272 C271 1.434 . S
C273 C274 1.369 . S
C273 C275 1.419 . S
C273 H277 0.930 . S
C274 C273 1.369 . S
C274 C283 1.429 . S
C275 C273 1.419 . S
C275 C276 1.363 . S
C275 H278 0.929 . S
C276 C275 1.363 . S
C276 C282 1.428 . S
H277 C273 0.930 . S
H278 C275 0.929 . S
S279 N280 1.613 . S
S279 N281 1.610 . S
N280 S279 1.613 . S
N280 C283 1.350 . S
N281 S279 1.610 . S
N281 C282 1.351 . S
C282 C276 1.428 . S
C282 N281 1.351 . S
C282 C283 1.434 . S
C283 C274 1.429 . S
C283 N280 1.350 . S
C283 C282 1.434 . S
C284 C285 1.369 . S
C284 C286 1.419 . S
C284 H288 0.930 . S
C285 C284 1.369 . S
C285 C294 1.429 . S
C286 C284 1.419 . S
C286 C287 1.363 . S
C286 H289 0.929 . S
C287 C286 1.363 . S
C287 C293 1.428 . S
H288 C284 0.930 . S
H289 C286 0.929 . S
S290 N291 1.613 . S
S290 N292 1.610 . S
N291 S290 1.613 . S
N291 C294 1.350 . S
N292 S290 1.610 . S
N292 C293 1.351 . S
C293 C287 1.428 . S
C293 N292 1.351 . S
C293 C294 1.434 . S
C294 C285 1.429 . S
C294 N291 1.350 . S
C294 C293 1.434 . S
C295 C296 1.369 . S
C295 C297 1.419 . S
C295 H299 0.930 . S
C296 C295 1.369 . S
C296 C305 1.429 . S
C297 C295 1.419 . S
C297 C298 1.363 . S
C297 H300 0.929 . S
C298 C297 1.363 . S
C298 C304 1.428 . S
H299 C295 0.930 . S
H300 C297 0.929 . S
S301 N302 1.613 . S
S301 N303 1.610 . S
N302 S301 1.613 . S
N302 C305 1.350 . S
N303 S301 1.610 . S
N303 C304 1.351 . S
C304 C298 1.428 . S
C304 N303 1.351 . S
C304 C305 1.434 . S
C305 C296 1.429 . S
C305 N302 1.350 . S
C305 C304 1.434 . S
C306 C307 1.369 . S
C306 C308 1.419 1_554 S
C306 H310 0.930 . S
C307 C306 1.369 . S
C307 C316 1.429 . S
C308 C306 1.419 1_556 S
C308 C309 1.363 . S
C308 H311 0.929 . S
C309 C308 1.363 . S
C309 C315 1.428 . S
H310 C306 0.930 . S
H311 C308 0.929 . S
S312 N313 1.613 . S
S312 N314 1.611 1_554 S
N313 S312 1.613 . S
N313 C316 1.350 1_655 S
N314 S312 1.611 1_556 S
N314 C315 1.352 1_655 S
C315 C309 1.428 . S
C315 N314 1.352 1_455 S
C315 C316 1.434 1_556 S
C316 C307 1.429 . S
C316 N313 1.350 1_455 S
C316 C315 1.434 1_554 S
C317 C318 1.369 . S
C317 C319 1.419 . S
C317 H321 0.930 . S
C318 C317 1.369 . S
C318 C327 1.429 . S
C319 C317 1.419 . S
C319 C320 1.363 . S
C319 H322 0.929 . S
C320 C319 1.363 . S
C320 C326 1.428 . S
H321 C317 0.930 . S
H322 C319 0.929 . S
S323 N324 1.613 . S
S323 N325 1.610 . S
N324 S323 1.613 . S
N324 C327 1.350 1_565 S
N325 S323 1.610 . S
N325 C326 1.351 1_565 S
C326 C320 1.428 . S
C326 N325 1.351 1_545 S
C326 C327 1.434 . S
C327 C318 1.429 . S
C327 N324 1.350 1_545 S
C327 C326 1.434 . S
C328 C329 1.369 . S
C328 C330 1.419 . S
C328 H332 0.930 . S
C329 C328 1.369 . S
C329 C338 1.429 . S
C330 C328 1.419 . S
C330 C331 1.363 . S
C330 H333 0.929 . S
C331 C330 1.363 . S
C331 C337 1.428 . S
H332 C328 0.930 . S
H333 C330 0.929 . S
S334 N335 1.613 . S
S334 N336 1.610 . S
N335 S334 1.613 . S
N335 C338 1.350 . S
N336 S334 1.610 . S
N336 C337 1.351 . S
C337 C331 1.428 . S
C337 N336 1.351 . S
C337 C338 1.434 . S
C338 C329 1.429 . S
C338 N335 1.350 . S
C338 C337 1.434 . S
C339 C340 1.369 1_565 S
C339 C341 1.419 . S
C339 H343 0.930 . S
C340 C339 1.369 1_545 S
C340 C349 1.429 . S
C341 C339 1.419 . S
C341 C342 1.363 1_565 S
C341 H344 0.929 . S
C342 C341 1.363 1_545 S
C342 C348 1.428 . S
H343 C339 0.930 . S
H344 C341 0.929 . S
S345 N346 1.613 . S
S345 N347 1.610 . S
N346 S345 1.613 . S
N346 C349 1.350 . S
N347 S345 1.610 . S
N347 C348 1.351 . S
C348 C342 1.428 . S
C348 N347 1.351 . S
C348 C349 1.434 . S
C349 C340 1.429 . S
C349 N346 1.350 . S
C349 C348 1.434 . S
C350 C351 1.369 . S
C350 C352 1.419 1_556 S
C350 H354 0.930 . S
C351 C350 1.369 . S
C351 C360 1.429 . S
C352 C350 1.419 1_554 S
C352 C353 1.363 . S
C352 H355 0.929 . S
C353 C352 1.363 . S
C353 C359 1.428 . S
H354 C350 0.930 . S
H355 C352 0.929 . S
S356 N357 1.613 . S
S356 N358 1.610 1_556 S
N357 S356 1.613 . S
N357 C360 1.350 . S
N358 S356 1.610 1_554 S
N358 C359 1.351 . S
C359 C353 1.428 . S
C359 N358 1.351 . S
C359 C360 1.434 1_554 S
C360 C351 1.429 . S
C360 N357 1.350 . S
C360 C359 1.434 1_556 S
C361 C362 1.369 1_655 S
C361 C363 1.419 . S
C361 H365 0.930 . S
C362 C361 1.369 1_455 S
C362 C371 1.429 . S
C363 C361 1.419 . S
C363 C364 1.363 . S
C363 H366 0.929 . S
C364 C363 1.363 . S
C364 C370 1.428 1_655 S
H365 C361 0.930 . S
H366 C363 0.929 . S
S367 N368 1.613 . S
S367 N369 1.610 . S
N368 S367 1.613 . S
N368 C371 1.350 . S
N369 S367 1.610 . S
N369 C370 1.351 . S
C370 C364 1.428 1_455 S
C370 N369 1.351 . S
C370 C371 1.434 . S
C371 C362 1.429 . S
C371 N368 1.350 . S
C371 C370 1.434 . S
C175 C19 1.876 . S
C177 C169 1.848 . S
C186 C46 1.627 . S
C188 C151 1.746 . S
C197 C95 0.949 . S
C199 C163 1.114 . S
C208 C10 1.889 . S
C210 C172 1.861 . S
C221 C154 1.587 . S
C219 C55 1.493 . S
C232 C160 1.370 . S
C230 C86 1.179 . S
C241 C59 3.044 . S
C243 C133 3.007 . S
C252 C90 1.921 . S
C254 C142 1.934 . S
C263 C15 1.536 . S
C265 C124 1.657 . S
C276 C136 2.986 . S
C274 C50 2.980 . S
C287 C145 1.868 . S
C285 C99 1.878 . S
C296 C6 1.447 . S
C298 C127 1.542 . S
C309 C143 1.336 . S
C307 C9 1.281 . S
C318 C58 1.418 . S
C320 C125 1.493 . S
C329 C98 1.734 . S
C331 C134 1.812 . S
C342 C161 0.979 . S
C340 C49 0.979 . S
C353 C170 1.311 . S
C351 C89 1.276 . S
C362 C18 1.407 . S
C364 C152 1.457 . S
