# Generated by pormake.
# Topology tsx, (6,3)-cn, num edge types: 1
# Building blocks:
#     Node 0, Type 0, BuildingBlock: VOLQOD_clean_sbu_1, # of connection points: 6
#     Node 1, Type 0, BuildingBlock: VOLQOD_clean_sbu_1, # of connection points: 6
#     Node 2, Type 1, BuildingBlock: ESEHIV_clean_linker_0, # of connection points: 3
#     Node 3, Type 1, BuildingBlock: ESEHIV_clean_linker_0, # of connection points: 3
#     Node 4, Type 1, BuildingBlock: ESEHIV_clean_linker_0, # of connection points: 3
#     Node 5, Type 1, BuildingBlock: ESEHIV_clean_linker_0, # of connection points: 3
#     Edge 6, Type (0, 1), BuildingBlock: FUNLAD_clean_linker_0, # of connection points: 2
#     Edge 7, Type (0, 1), BuildingBlock: FUNLAD_clean_linker_0, # of connection points: 2
#     Edge 8, Type (0, 1), BuildingBlock: FUNLAD_clean_linker_0, # of connection points: 2
#     Edge 9, Type (0, 1), BuildingBlock: FUNLAD_clean_linker_0, # of connection points: 2
#     Edge 10, Type (0, 1), BuildingBlock: FUNLAD_clean_linker_0, # of connection points: 2
#     Edge 11, Type (0, 1), BuildingBlock: FUNLAD_clean_linker_0, # of connection points: 2
#     Edge 12, Type (0, 1), BuildingBlock: FUNLAD_clean_linker_0, # of connection points: 2
#     Edge 13, Type (0, 1), BuildingBlock: FUNLAD_clean_linker_0, # of connection points: 2
#     Edge 14, Type (0, 1), BuildingBlock: FUNLAD_clean_linker_0, # of connection points: 2
#     Edge 15, Type (0, 1), BuildingBlock: FUNLAD_clean_linker_0, # of connection points: 2
#     Edge 16, Type (0, 1), BuildingBlock: FUNLAD_clean_linker_0, # of connection points: 2
#     Edge 17, Type (0, 1), BuildingBlock: FUNLAD_clean_linker_0, # of connection points: 2
# Relax obj value: 0.075
# Max RMSD: 0.108
# Mean RMSD: 0.083
data_MOF--net-tsx--node1-VOLQOD_clean_sbu_1--node2-ESEHIV_clean_linker_0--edge1-FUNLAD_clean_linker_0
_symmetry_space_group_name_H-M    P1
_symmetry_Int_Tables_number       1
_symmetry_cell_setting            triclinic
loop_
_symmetry_equiv_pos_as_xyz
'x, y, z'
_cell_length_a     22.64486
_cell_length_b     23.448246
_cell_length_c     44.519007
_cell_angle_alpha  90.263125
_cell_angle_beta   89.701729
_cell_angle_gamma 90.009238
loop_
_atom_site_label
_atom_site_type_symbol
_atom_site_fract_x
_atom_site_fract_y
_atom_site_fract_z
_atom_type_partial_charge
O0 O 0.0194 0.98273 0.08038 0.0
Zn1 Zn 0.03928 0.97933 0.03627 0.0
O2 O 0.97141 -0.00374 0.01111 0.0
Zn3 Zn 0.95666 0.93139 0.98417 0.0
Zn4 Zn 0.90322 0.00962 0.03705 0.0
Zn5 Zn 0.9865 0.06484 0.98753 0.0
O6 O 0.95396 0.95645 0.94074 0.0
O7 O 0.98214 0.04706 0.9434 0.0
O8 O 0.07446 0.90307 0.02634 0.0
O9 O 0.02155 0.8725 0.98767 0.0
O10 O 0.88047 0.89192 0.99538 0.0
O11 O 0.84452 0.94723 0.03172 0.0
O12 O 0.86372 0.08447 0.02825 0.0
O13 O 0.10311 0.03612 0.0292 0.0
O14 O 0.9249 0.12527 0.99571 0.0
O15 O 0.06715 0.09735 0.99612 0.0
C16 C 0.97235 -0.00427 0.0946 0.0
C17 C 0.9672 0.00344 0.92807 0.0
C18 C 0.84086 0.90335 0.01493 0.0
C19 C 0.06419 0.86625 0.00594 0.0
C20 C 0.87816 0.12651 0.01177 0.0
C21 C 0.10872 0.08036 0.01304 0.0
O22 O 0.92502 0.00818 0.0808 0.0
O23 O 0.55771 0.50349 0.5806 0.0
Zn24 Zn 0.58166 0.49509 0.53714 0.0
O25 O 0.51468 0.50703 0.51045 0.0
Zn26 Zn 0.4994 0.4384 0.4865 0.0
Zn27 Zn 0.44455 0.52516 0.53451 0.0
Zn28 Zn 0.53326 0.56996 0.48351 0.0
O29 O 0.50369 0.45446 0.44192 0.0
O30 O 0.53493 0.5441 0.4404 0.0
O31 O 0.61686 0.41746 0.53071 0.0
O32 O 0.56021 0.37858 0.49552 0.0
O33 O 0.41993 0.40429 0.49622 0.0
O34 O 0.3836 0.4629 0.53096 0.0
O35 O 0.40714 0.59841 0.52072 0.0
O36 O 0.6459 0.55284 0.52968 0.0
O37 O 0.47056 0.62968 0.48633 0.0
O38 O 0.61127 0.60693 0.49305 0.0
C39 C 0.51047 0.52024 0.59354 0.0
C40 C 0.52032 0.49805 0.42712 0.0
C41 C 0.3793 0.41823 0.51473 0.0
C42 C 0.60373 0.37592 0.51347 0.0
C43 C 0.42311 0.63546 0.50148 0.0
C44 C 0.65148 0.59481 0.51184 0.0
O45 O 0.4644 0.53211 0.5785 0.0
H46 H 0.94109 0.08203 0.37697 0.0
H47 H 0.07209 0.94951 0.37313 0.0
H48 H 0.00873 0.01045 0.4587 0.0
C49 C 0.97003 0.05235 0.38831 0.0
C50 C 0.97012 0.04998 0.41984 0.0
C51 C 0.00604 0.01558 0.37135 0.0
C52 C 0.04335 0.97727 0.38615 0.0
C53 C 0.0447 0.97543 0.41766 0.0
C54 C 0.00717 0.0111 0.43436 0.0
H55 H 0.93919 0.92895 0.63822 0.0
H56 H 0.0407 0.08058 0.65338 0.0
H57 H 0.01867 0.01579 0.56332 0.0
C58 C 0.9662 0.96334 0.6295 0.0
C59 C 0.97589 0.96776 0.59839 0.0
C60 C 0.98954 0.00377 0.64942 0.0
C61 C 0.02286 0.0492 0.63796 0.0
C62 C 0.03417 0.05395 0.60694 0.0
C63 C 0.00981 0.01324 0.58722 0.0
H64 H 0.42768 0.56121 0.87064 0.0
H65 H 0.593 0.47401 0.88088 0.0
H66 H 0.48925 0.51772 0.95891 0.0
C67 C 0.46075 0.54227 0.88499 0.0
C68 C 0.45227 0.54246 0.9163 0.0
C69 C 0.51132 0.51769 0.872 0.0
C70 C 0.55399 0.49337 0.89076 0.0
C71 C 0.5465 0.49323 0.92214 0.0
C72 C 0.49546 0.51789 0.93476 0.0
H73 H 0.44727 0.38812 0.14393 0.0
H74 H 0.56333 0.53312 0.14512 0.0
H75 H 0.5054 0.46218 0.0609 0.0
C76 C 0.47368 0.41934 0.13201 0.0
C77 C 0.47189 0.42126 0.10052 0.0
C78 C 0.50703 0.45932 0.14827 0.0
C79 C 0.53858 0.50152 0.1326 0.0
C80 C 0.538 0.5033 0.10099 0.0
C81 C 0.50512 0.46239 0.08525 0.0
C82 C 0.1689 0.16748 0.00178 0.0
C83 C 0.16399 0.11351 0.01513 0.0
C84 C 0.2191 0.20089 0.00652 0.0
C85 C 0.26515 0.18086 0.02479 0.0
C86 C 0.26184 0.12553 0.03641 0.0
C87 C 0.2117 0.09228 0.03179 0.0
C88 C 0.31537 0.2173 0.03396 0.0
C89 C 0.31052 0.27417 0.03703 0.0
C90 C 0.3558 0.30972 0.05196 0.0
C91 C 0.3587 0.36787 0.04501 0.0
C92 C 0.3972 0.40379 0.06045 0.0
C93 C 0.4331 0.3823 0.08343 0.0
H94 H 0.38975 0.24381 0.08153 0.0
C95 C 0.43046 0.32407 0.09038 0.0
C96 C 0.39215 0.28803 0.07481 0.0
H97 H 0.45773 0.30648 0.10798 0.0
H98 H 0.13332 0.18466 0.9884 0.0
H99 H 0.22116 0.24256 0.99622 0.0
H100 H 0.29702 0.10886 0.05025 0.0
H101 H 0.2098 0.05046 0.042 0.0
H102 H 0.35536 0.19597 0.04122 0.0
H103 H 0.27075 0.2958 0.02974 0.0
H104 H 0.33054 0.38573 0.02784 0.0
H105 H 0.39772 0.44874 0.05493 0.0
C106 C 0.09545 0.77582 0.97994 0.0
C107 C 0.10492 0.81718 0.00236 0.0
C108 C 0.1368 0.73249 0.97489 0.0
C109 C 0.18892 0.72994 0.99199 0.0
C110 C 0.19677 0.76955 0.01535 0.0
C111 C 0.15542 0.81273 0.02046 0.0
C112 C 0.2371 0.68833 0.98567 0.0
C113 C 0.24515 0.66309 0.95871 0.0
C114 C 0.2976 0.62795 0.95073 0.0
C115 C 0.29357 0.59049 0.92616 0.0
C116 C 0.34327 0.56116 0.91572 0.0
C117 C 0.39846 0.5691 0.92942 0.0
H118 H 0.35806 0.66414 0.98358 0.0
C119 C 0.40231 0.60523 0.9546 0.0
C120 C 0.35249 0.63454 0.96512 0.0
H121 H 0.44437 0.6128 0.96539 0.0
H122 H 0.05657 0.77741 0.96591 0.0
H123 H 0.12762 0.70153 0.95746 0.0
H124 H 0.23607 0.76829 0.02913 0.0
H125 H 0.16398 0.84353 0.03811 0.0
H126 H 0.26903 0.68132 0.00337 0.0
H127 H 0.21328 0.66976 0.94097 0.0
H128 H 0.25198 0.58464 0.91462 0.0
H129 H 0.33863 0.53289 0.89657 0.0
C130 C 0.79002 0.81017 0.00481 0.0
C131 C 0.79357 0.86152 0.02114 0.0
C132 C 0.75189 0.76678 0.01419 0.0
C133 C 0.71685 0.77412 0.0401 0.0
C134 C 0.71819 0.8264 0.05541 0.0
C135 C 0.75569 0.86985 0.04591 0.0
C136 C 0.68358 0.72653 0.05371 0.0
C137 C 0.66124 0.6827 0.03796 0.0
C138 C 0.6312 0.63527 0.05344 0.0
C139 C 0.57785 0.61415 0.04226 0.0
C140 C 0.54738 0.57162 0.05777 0.0
C141 C 0.57069 0.54824 0.08433 0.0
H142 H 0.69714 0.6263 0.08824 0.0
C143 C 0.6254 0.56823 0.09478 0.0
C144 C 0.65515 0.61155 0.07961 0.0
H145 H 0.64555 0.55026 0.11461 0.0
H146 H 0.81861 0.8024 0.98564 0.0
H147 H 0.75256 0.72657 0.00214 0.0
H148 H 0.69155 0.83301 0.07542 0.0
H149 H 0.757 0.90891 0.05898 0.0
H150 H 0.67659 0.72804 0.0779 0.0
H151 H 0.66223 0.68291 0.01356 0.0
H152 H 0.55879 0.63184 0.02206 0.0
H153 H 0.50496 0.558 0.04922 0.0
C154 C 0.85329 0.22365 0.99215 0.0
C155 C 0.83814 0.17639 0.00991 0.0
C156 C 0.81335 0.26838 0.98816 0.0
C157 C 0.7573 0.26698 0.002 0.0
C158 C 0.74282 0.22048 0.02036 0.0
C159 C 0.78285 0.17585 0.02444 0.0
C160 C 0.71083 0.30978 0.99524 0.0
C161 C 0.72251 0.36271 0.98513 0.0
C162 C 0.67659 0.40086 0.97245 0.0
C163 C 0.69392 0.44105 0.95086 0.0
C164 C 0.6518 0.47271 0.93538 0.0
C165 C 0.5913 0.46525 0.94134 0.0
H166 H 0.60115 0.36729 0.99718 0.0
C167 C 0.57404 0.42797 0.96441 0.0
C168 C 0.61624 0.39613 0.97988 0.0
H169 H 0.52776 0.42157 0.96966 0.0
H170 H 0.89541 0.22543 0.98055 0.0
H171 H 0.82581 0.30243 0.97311 0.0
H172 H 0.69983 0.21803 0.03108 0.0
H173 H 0.76963 0.14013 0.03828 0.0
H174 H 0.66543 0.29539 0.99715 0.0
H175 H 0.76801 0.37698 0.98348 0.0
H176 H 0.74011 0.44626 0.945 0.0
H177 H 0.66654 0.50211 0.9182 0.0
C178 C 0.70794 0.68334 0.49822 0.0
C179 C 0.70455 0.63157 0.514 0.0
C180 C 0.75581 0.72023 0.50238 0.0
C181 C 0.80132 0.70602 0.52242 0.0
C182 C 0.79937 0.65297 0.53687 0.0
C183 C 0.75145 0.61631 0.53288 0.0
C184 C 0.84985 0.74598 0.5303 0.0
C185 C 0.84459 0.80322 0.52905 0.0
C186 C 0.8863 0.84318 0.54404 0.0
C187 C 0.88636 0.90095 0.53572 0.0
C188 C 0.91807 0.94131 0.55238 0.0
C189 C 0.94972 0.92465 0.57794 0.0
H190 H 0.92086 0.78278 0.57662 0.0
C191 C 0.95199 0.86659 0.58541 0.0
C192 C 0.92055 0.82634 0.56879 0.0
H193 H 0.97654 0.85249 0.60483 0.0
H194 H 0.67292 0.69611 0.48321 0.0
H195 H 0.75658 0.75986 0.49004 0.0
H196 H 0.83403 0.64066 0.55223 0.0
H197 H 0.75069 0.57649 0.54512 0.0
H198 H 0.88895 0.72733 0.54025 0.0
H199 H 0.80596 0.8221 0.51876 0.0
H200 H 0.86012 0.91523 0.51691 0.0
H201 H 0.91533 0.98585 0.54618 0.0
C202 C 0.69912 0.32738 0.52519 0.0
C203 C 0.64232 0.32518 0.51264 0.0
C204 C 0.73862 0.28241 0.52079 0.0
C205 C 0.72184 0.23432 0.50393 0.0
C206 C 0.66378 0.23019 0.49338 0.0
C207 C 0.62446 0.27545 0.49744 0.0
C208 C 0.76518 0.19027 0.49488 0.0
C209 C 0.82028 0.20452 0.48634 0.0
C210 C 0.86017 0.16413 0.47074 0.0
C211 C 0.8974 0.18498 0.44803 0.0
C212 C 0.93294 0.14779 0.43142 0.0
C213 C 0.93274 0.08921 0.43766 0.0
H214 H 0.83348 0.08853 0.49531 0.0
C215 C 0.89708 0.06847 0.46111 0.0
C216 C 0.8608 0.10561 0.47746 0.0
H217 H 0.89652 0.02342 0.46643 0.0
H218 H 0.71404 0.36483 0.53729 0.0
H219 H 0.78276 0.28599 0.52987 0.0
H220 H 0.64979 0.19323 0.48057 0.0
H221 H 0.5807 0.27214 0.48787 0.0
H222 H 0.74907 0.14723 0.49095 0.0
H223 H 0.83388 0.24897 0.48722 0.0
H224 H 0.8979 0.22999 0.44262 0.0
H225 H 0.96082 0.16486 0.41376 0.0
C226 C 0.28887 0.38812 0.54316 0.0
C227 C 0.32794 0.37983 0.51889 0.0
C228 C 0.24408 0.34871 0.54903 0.0
C229 C 0.23728 0.3002 0.53068 0.0
C230 C 0.27396 0.29361 0.50542 0.0
C231 C 0.31922 0.33276 0.4997 0.0
C232 C 0.19396 0.2549 0.53818 0.0
C233 C 0.18327 0.2398 0.56683 0.0
C234 C 0.14522 0.19113 0.5756 0.0
C235 C 0.15771 0.16283 0.60248 0.0
C236 C 0.12246 0.11775 0.61218 0.0
C237 C 0.07284 0.10055 0.59557 0.0
H238 H 0.08467 0.19536 0.53801 0.0
C239 C 0.06033 0.12879 0.56849 0.0
C240 C 0.09626 0.17362 0.55854 0.0
H241 H 0.02205 0.11718 0.55533 0.0
H242 H 0.29386 0.42418 0.55823 0.0
H243 H 0.2153 0.35592 0.56817 0.0
H244 H 0.26913 0.25689 0.49077 0.0
H245 H 0.34813 0.32541 0.48061 0.0
H246 H 0.17529 0.23004 0.51989 0.0
H247 H 0.20714 0.26123 0.58475 0.0
H248 H 0.19527 0.17538 0.61598 0.0
H249 H 0.13439 0.09624 0.63275 0.0
C250 C 0.32709 0.68777 0.50745 0.0
C251 C 0.384 0.68421 0.49482 0.0
C252 C 0.28797 0.7304 0.49838 0.0
C253 C 0.30533 0.77051 0.47661 0.0
C254 C 0.36286 0.76803 0.46488 0.0
C255 C 0.40184 0.72558 0.47392 0.0
C256 C 0.26394 0.81251 0.46358 0.0
C257 C 0.21363 0.83015 0.47694 0.0
C258 C 0.1714 0.86937 0.46212 0.0
C259 C 0.11202 0.86928 0.47142 0.0
C260 C 0.07058 0.90378 0.45707 0.0
C261 C 0.0879 0.93882 0.4331 0.0
H262 H 0.23449 0.91009 0.43187 0.0
C263 C 0.14742 0.94019 0.42434 0.0
C264 C 0.18888 0.90636 0.43886 0.0
H265 H 0.16211 0.96821 0.40651 0.0
H266 H 0.3119 0.6564 0.52353 0.0
H267 H 0.24366 0.72995 0.50754 0.0
H268 H 0.37738 0.79835 0.44808 0.0
H269 H 0.44544 0.72434 0.46382 0.0
H270 H 0.27554 0.8283 0.44146 0.0
H271 H 0.20148 0.81396 0.49891 0.0
H272 H 0.09745 0.84176 0.48948 0.0
H273 H 0.02488 0.90239 0.46437 0.0
C274 C 0.02549 0.00157 0.14371 0.0
C275 C 0.97239 -0.00441 0.1278 0.0
C276 C 0.02544 0.00119 0.17511 0.0
C277 C 0.97233 -0.006 0.19116 0.0
C278 C 0.91948 0.98711 0.17527 0.0
C279 C 0.91933 0.98867 0.1439 0.0
C280 C 0.97124 0.99127 0.22438 0.0
C281 C 0.00671 0.0235 0.24167 0.0
C282 C 0.00521 0.02087 0.2749 0.0
C283 C 0.01471 0.0708 0.29168 0.0
C284 C 0.01399 0.06931 0.32307 0.0
C285 C 0.00532 0.01751 0.33816 0.0
H286 H 0.99028 0.92958 0.27769 0.0
C287 C -0.00319 0.96735 0.3214 0.0
C288 C -0.00363 0.96902 0.29004 0.0
H289 H 0.99014 0.92691 0.33259 0.0
H290 H 0.06707 0.00685 0.13191 0.0
H291 H 0.0671 0.00531 0.18675 0.0
H292 H 0.87811 0.981 0.18717 0.0
H293 H 0.87778 0.98346 0.13225 0.0
H294 H 0.93809 0.96426 0.23488 0.0
H295 H 0.03546 0.05495 0.23127 0.0
H296 H 0.02213 0.11112 0.28048 0.0
H297 H 0.02122 0.10843 0.33556 0.0
C298 C 0.94494 0.96237 0.87709 0.0
C299 C 0.96588 0.0077 0.89486 0.0
C300 C 0.94435 0.9666 0.84574 0.0
C301 C 0.96537 0.0162 0.83143 0.0
C302 C 0.98549 0.06163 0.8493 0.0
C303 C 0.98582 0.0575 0.88056 0.0
C304 C 0.96668 0.02312 0.79818 0.0
C305 C 0.96194 0.97974 0.77834 0.0
C306 C 0.96683 0.98721 0.7452 0.0
C307 C 0.98115 0.93959 0.72736 0.0
C308 C 0.98785 0.94481 0.69627 0.0
C309 C 0.98021 -0.00213 0.68229 0.0
H310 H 0.94403 0.07743 0.74362 0.0
C311 C 0.96448 0.04531 0.69996 0.0
C312 C 0.95742 0.04004 0.73103 0.0
H313 H 0.95708 0.08648 0.68969 0.0
H314 H 0.92868 0.92361 0.88738 0.0
H315 H 0.92675 0.93111 0.83307 0.0
H316 H 0.00155 0.10051 0.83903 0.0
H317 H 0.00214 0.09338 0.89348 0.0
H318 H 0.9753 0.0658 0.78994 0.0
H319 H 0.95799 0.93636 0.78643 0.0
H320 H 0.98819 0.89828 0.73754 0.0
H321 H 0.00026 0.90752 0.68325 0.0
C322 C 0.55863 0.51112 0.64395 0.0
C323 C 0.50901 0.52573 0.62674 0.0
C324 C 0.5571 0.51574 0.67526 0.0
C325 C 0.5057 0.53485 0.6901 0.0
C326 C 0.45658 0.55042 0.67288 0.0
C327 C 0.45804 0.54567 0.64158 0.0
C328 C 0.50206 0.54034 0.72335 0.0
C329 C 0.53511 0.50918 0.74229 0.0
C330 C 0.52954 0.51305 0.77552 0.0
C331 C 0.54551 0.46575 0.79289 0.0
C332 C 0.53998 0.46732 0.82416 0.0
C333 C 0.5189 0.51656 0.83881 0.0
H334 H 0.499 0.60091 0.7777 0.0
C335 C 0.50431 0.56446 0.82147 0.0
C336 C 0.50969 0.56283 0.79019 0.0
H337 H 0.48924 0.60349 0.83211 0.0
H338 H 0.59885 0.49614 0.63327 0.0
H339 H 0.59657 0.50509 0.68761 0.0
H340 H 0.41663 0.56579 0.68369 0.0
H341 H 0.4191 0.55762 0.62906 0.0
H342 H 0.46833 0.56859 0.73239 0.0
H343 H 0.56477 0.4769 0.7333 0.0
H344 H 0.56136 0.42702 0.78221 0.0
H345 H 0.55114 0.42951 0.83681 0.0
C346 C 0.49942 0.44838 0.37815 0.0
C347 C 0.52174 0.49583 0.39382 0.0
C348 C 0.49919 0.44732 0.34671 0.0
C349 C 0.52194 0.49363 0.33018 0.0
C350 C 0.54444 0.54079 0.34597 0.0
C351 C 0.54437 0.54196 0.37732 0.0
C352 C 0.5216 0.49592 0.29671 0.0
C353 C 0.50971 0.45118 0.27855 0.0
C354 C 0.50924 0.45489 0.24514 0.0
C355 C 0.51495 0.40445 0.22822 0.0
C356 C 0.51427 0.40584 0.19683 0.0
C357 C 0.50772 0.4578 0.18161 0.0
H358 H 0.49466 0.5465 0.24181 0.0
C359 C 0.50124 0.50822 0.19846 0.0
C360 C 0.50159 0.50684 0.22984 0.0
H361 H 0.49473 0.54874 0.18736 0.0
H362 H 0.48124 0.41227 0.39015 0.0
H363 H 0.48012 0.41052 0.33578 0.0
H364 H 0.56201 0.57723 0.33398 0.0
H365 H 0.56193 0.57926 0.3886 0.0
H366 H 0.53349 0.53647 0.28672 0.0
H367 H 0.50215 0.4094 0.28813 0.0
H368 H 0.52037 0.36377 0.23932 0.0
H369 H 0.51958 0.36627 0.18445 0.0
loop_
_geom_bond_atom_site_label_1
_geom_bond_atom_site_label_2
_geom_bond_distance
_geom_bond_site_symmetry_2
_ccdc_geom_bond_type
O0 Zn1 1.953 . S
O0 C16 1.225 1_565 S
Zn1 O0 1.953 . S
Zn1 O2 1.949 1_565 S
Zn1 O8 1.919 . S
Zn1 O13 1.924 1_565 S
O2 Zn1 1.949 1_545 S
O2 Zn3 1.923 1_444 S
O2 Zn4 1.950 1_455 S
O2 Zn5 1.945 1_554 S
Zn3 O2 1.923 1_666 S
Zn3 O6 1.933 . S
Zn3 O9 1.941 1_655 S
Zn3 O10 1.965 . S
Zn4 O2 1.950 1_655 S
Zn4 O11 1.938 1_545 S
Zn4 O12 1.906 . S
Zn4 O22 1.953 . S
Zn5 O2 1.945 1_556 S
Zn5 O7 1.932 . S
Zn5 O14 1.977 1_455 S
Zn5 O15 1.910 . S
O6 Zn3 1.933 . S
O6 C17 1.226 1_665 S
O7 Zn5 1.932 . S
O7 C17 1.307 . S
O8 Zn1 1.919 . S
O8 C19 1.252 1_554 S
O9 Zn3 1.941 1_455 S
O9 C19 1.284 . S
O10 Zn3 1.965 . S
O10 C18 1.303 1_556 S
O11 Zn4 1.938 1_565 S
O11 C18 1.247 . S
O12 Zn4 1.906 . S
O12 C20 1.304 1_554 S
O13 Zn1 1.924 1_545 S
O13 C21 1.311 . S
O14 Zn5 1.977 1_655 S
O14 C20 1.272 . S
O15 Zn5 1.910 . S
O15 C21 1.231 1_556 S
C16 O0 1.225 1_545 S
C16 O22 1.298 1_455 S
C17 O6 1.226 1_445 S
C17 O7 1.307 . S
C18 O10 1.303 1_554 S
C18 O11 1.247 . S
C19 O8 1.252 1_556 S
C19 O9 1.284 . S
C20 O12 1.304 1_556 S
C20 O14 1.272 . S
C21 O13 1.311 . S
C21 O15 1.231 1_554 S
O22 Zn4 1.953 . S
O22 C16 1.298 1_655 S
O23 Zn24 1.953 . S
O23 C39 1.225 . S
Zn24 O23 1.953 . S
Zn24 O25 1.949 . S
Zn24 O31 1.919 . S
Zn24 O36 1.924 . S
O25 Zn24 1.949 . S
O25 Zn26 1.923 . S
O25 Zn27 1.950 . S
O25 Zn28 1.945 . S
Zn26 O25 1.923 . S
Zn26 O29 1.933 . S
Zn26 O32 1.941 . S
Zn26 O33 1.965 . S
Zn27 O25 1.950 . S
Zn27 O34 1.938 . S
Zn27 O35 1.906 . S
Zn27 O45 1.953 . S
Zn28 O25 1.945 . S
Zn28 O30 1.932 . S
Zn28 O37 1.977 . S
Zn28 O38 1.910 . S
O29 Zn26 1.933 . S
O29 C40 1.226 . S
O30 Zn28 1.932 . S
O30 C40 1.307 . S
O31 Zn24 1.919 . S
O31 C42 1.253 . S
O32 Zn26 1.941 . S
O32 C42 1.283 . S
O33 Zn26 1.965 . S
O33 C41 1.303 . S
O34 Zn27 1.938 . S
O34 C41 1.247 . S
O35 Zn27 1.906 . S
O35 C43 1.304 . S
O36 Zn24 1.924 . S
O36 C44 1.311 . S
O37 Zn28 1.977 . S
O37 C43 1.272 . S
O38 Zn28 1.910 . S
O38 C44 1.231 . S
C39 O23 1.225 . S
C39 O45 1.298 . S
C40 O29 1.226 . S
C40 O30 1.307 . S
C41 O33 1.303 . S
C41 O34 1.247 . S
C42 O31 1.253 . S
C42 O32 1.283 . S
C43 O35 1.304 . S
C43 O37 1.272 . S
C44 O36 1.311 . S
C44 O38 1.231 . S
O45 Zn27 1.953 . S
O45 C39 1.298 . S
H46 C49 0.931 . S
H47 C52 0.928 . S
H48 C54 0.930 1_545 S
C49 H46 0.931 . S
C49 C50 1.413 . S
C49 C51 1.357 1_545 S
C50 C49 1.413 . S
C50 C54 1.422 1_645 S
C51 C49 1.357 1_565 S
C51 C52 1.375 1_655 S
C52 H47 0.928 . S
C52 C51 1.375 1_455 S
C52 C53 1.404 . S
C53 C52 1.404 . S
C53 C54 1.398 . S
C54 H48 0.930 1_565 S
C54 C50 1.422 1_465 S
C54 C53 1.398 . S
H55 C58 0.931 . S
H56 C61 0.928 . S
H57 C63 0.930 . S
C58 H55 0.931 . S
C58 C59 1.413 . S
C58 C60 1.360 1_665 S
C59 C58 1.413 . S
C59 C63 1.429 1_665 S
C60 C58 1.360 1_445 S
C60 C61 1.372 . S
C61 H56 0.928 . S
C61 C60 1.372 . S
C61 C62 1.404 . S
C62 C61 1.404 . S
C62 C63 1.391 . S
C63 H57 0.930 . S
C63 C59 1.429 1_445 S
C63 C62 1.391 . S
H64 C67 0.931 . S
H65 C70 0.928 . S
H66 C72 0.930 . S
C67 H64 0.931 . S
C67 C68 1.413 . S
C67 C69 1.360 . S
C68 C67 1.413 . S
C68 C72 1.429 . S
C69 C67 1.360 . S
C69 C70 1.372 . S
C70 H65 0.928 . S
C70 C69 1.372 . S
C70 C71 1.404 . S
C71 C70 1.404 . S
C71 C72 1.391 . S
C72 H66 0.930 . S
C72 C68 1.429 . S
C72 C71 1.391 . S
H73 C76 0.931 . S
H74 C79 0.928 . S
H75 C81 0.930 . S
C76 H73 0.931 . S
C76 C77 1.413 . S
C76 C78 1.360 . S
C77 C76 1.413 . S
C77 C81 1.429 . S
C78 C76 1.360 . S
C78 C79 1.372 . S
C79 H74 0.928 . S
C79 C78 1.372 . S
C79 C80 1.404 . S
C80 C79 1.404 . S
C80 C81 1.391 . S
C81 H75 0.930 . S
C81 C77 1.429 . S
C81 C80 1.391 . S
C82 C83 1.386 . S
C82 C84 1.383 . S
C82 H98 0.951 . S
C83 C82 1.386 . S
C83 C87 1.383 . S
C84 C82 1.383 . S
C84 C85 1.402 . S
C84 H99 0.951 . S
C85 C84 1.402 . S
C85 C86 1.375 . S
C85 C88 1.481 . S
C86 C85 1.375 . S
C86 C87 1.367 . S
C86 H100 0.951 . S
C87 C83 1.383 . S
C87 C86 1.367 . S
C87 H101 0.950 . S
C88 C85 1.481 . S
C88 C89 1.297 . S
C88 H102 0.950 . S
C89 C88 1.297 . S
C89 C90 1.479 . S
C89 H103 0.950 . S
C90 C89 1.479 . S
C90 C91 1.375 . S
C90 C96 1.404 . S
C91 C90 1.375 . S
C91 C92 1.369 . S
C91 H104 0.950 . S
C92 C91 1.369 . S
C92 C93 1.392 . S
C92 H105 0.951 . S
C93 C92 1.392 . S
C93 C95 1.384 . S
H94 C96 0.949 . S
C95 C93 1.384 . S
C95 C96 1.385 . S
C95 H97 0.950 . S
C96 C90 1.404 . S
C96 H94 0.949 . S
C96 C95 1.385 . S
H97 C95 0.950 . S
H98 C82 0.951 . S
H99 C84 0.951 . S
H100 C86 0.951 . S
H101 C87 0.950 . S
H102 C88 0.950 . S
H103 C89 0.950 . S
H104 C91 0.950 . S
H105 C92 0.951 . S
C106 C107 1.386 . S
C106 C108 1.383 . S
C106 H122 0.951 . S
C107 C106 1.386 . S
C107 C111 1.383 1_556 S
C108 C106 1.383 . S
C108 C109 1.402 . S
C108 H123 0.951 . S
C109 C108 1.402 . S
C109 C110 1.375 1_556 S
C109 C112 1.481 . S
C110 C109 1.375 1_554 S
C110 C111 1.367 . S
C110 H124 0.951 . S
C111 C107 1.383 1_554 S
C111 C110 1.367 . S
C111 H125 0.950 . S
C112 C109 1.481 . S
C112 C113 1.297 . S
C112 H126 0.950 . S
C113 C112 1.297 . S
C113 C114 1.479 . S
C113 H127 0.950 . S
C114 C113 1.479 . S
C114 C115 1.375 . S
C114 C120 1.404 . S
C115 C114 1.375 . S
C115 C116 1.369 . S
C115 H128 0.950 . S
C116 C115 1.369 . S
C116 C117 1.392 . S
C116 H129 0.951 . S
C117 C116 1.392 . S
C117 C119 1.384 . S
H118 C120 0.949 . S
C119 C117 1.384 . S
C119 C120 1.385 . S
C119 H121 0.950 . S
C120 C114 1.404 . S
C120 H118 0.949 . S
C120 C119 1.385 . S
H121 C119 0.950 . S
H122 C106 0.951 . S
H123 C108 0.951 . S
H124 C110 0.951 . S
H125 C111 0.950 . S
H126 C112 0.950 . S
H127 C113 0.950 . S
H128 C115 0.950 . S
H129 C116 0.951 . S
C130 C131 1.386 . S
C130 C132 1.383 . S
C130 H146 0.951 1_554 S
C131 C130 1.386 . S
C131 C135 1.383 . S
C132 C130 1.383 . S
C132 C133 1.402 . S
C132 H147 0.951 . S
C133 C132 1.402 . S
C133 C134 1.375 . S
C133 C136 1.481 . S
C134 C133 1.375 . S
C134 C135 1.367 . S
C134 H148 0.951 . S
C135 C131 1.383 . S
C135 C134 1.367 . S
C135 H149 0.950 . S
C136 C133 1.481 . S
C136 C137 1.297 . S
C136 H150 0.950 . S
C137 C136 1.297 . S
C137 C138 1.479 . S
C137 H151 0.950 . S
C138 C137 1.479 . S
C138 C139 1.375 . S
C138 C144 1.404 . S
C139 C138 1.375 . S
C139 C140 1.369 . S
C139 H152 0.950 . S
C140 C139 1.369 . S
C140 C141 1.392 . S
C140 H153 0.951 . S
C141 C140 1.392 . S
C141 C143 1.384 . S
H142 C144 0.949 . S
C143 C141 1.384 . S
C143 C144 1.385 . S
C143 H145 0.950 . S
C144 C138 1.404 . S
C144 H142 0.949 . S
C144 C143 1.385 . S
H145 C143 0.950 . S
H146 C130 0.951 1_556 S
H147 C132 0.951 . S
H148 C134 0.951 . S
H149 C135 0.950 . S
H150 C136 0.950 . S
H151 C137 0.950 . S
H152 C139 0.950 . S
H153 C140 0.951 . S
C154 C155 1.386 . S
C154 C156 1.383 . S
C154 H170 0.951 . S
C155 C154 1.386 . S
C155 C159 1.383 1_556 S
C156 C154 1.383 . S
C156 C157 1.402 . S
C156 H171 0.951 . S
C157 C156 1.402 . S
C157 C158 1.395 . S
C157 C160 1.481 . S
C158 C157 1.395 . S
C158 C159 1.361 1_556 S
C158 H172 0.937 1_556 S
C159 C155 1.383 1_554 S
C159 C158 1.361 1_554 S
C159 H173 0.950 . S
C160 C157 1.481 . S
C160 C161 1.297 . S
C160 H174 0.950 . S
C161 C160 1.297 . S
C161 C162 1.479 . S
C161 H175 0.950 . S
C162 C161 1.479 . S
C162 C163 1.375 . S
C162 C168 1.404 . S
C163 C162 1.375 . S
C163 C164 1.369 . S
C163 H176 0.950 . S
C164 C163 1.369 . S
C164 C165 1.392 . S
C164 H177 0.951 . S
C165 C164 1.392 . S
C165 C167 1.384 . S
H166 C168 0.949 . S
C167 C165 1.384 . S
C167 C168 1.385 . S
C167 H169 0.950 . S
C168 C162 1.404 . S
C168 H166 0.949 . S
C168 C167 1.385 . S
H169 C167 0.950 . S
H170 C154 0.951 . S
H171 C156 0.951 . S
H172 C158 0.937 1_554 S
H173 C159 0.950 . S
H174 C160 0.950 . S
H175 C161 0.950 . S
H176 C163 0.950 . S
H177 C164 0.951 . S
C178 C179 1.386 . S
C178 C180 1.383 . S
C178 H194 0.951 . S
C179 C178 1.386 . S
C179 C183 1.383 . S
C180 C178 1.383 . S
C180 C181 1.402 . S
C180 H195 0.951 . S
C181 C180 1.402 . S
C181 C182 1.375 . S
C181 C184 1.481 . S
C182 C181 1.375 . S
C182 C183 1.367 . S
C182 H196 0.951 . S
C183 C179 1.383 . S
C183 C182 1.367 . S
C183 H197 0.950 . S
C184 C181 1.481 . S
C184 C185 1.297 . S
C184 H198 0.950 . S
C185 C184 1.297 . S
C185 C186 1.479 . S
C185 H199 0.950 . S
C186 C185 1.479 . S
C186 C187 1.375 . S
C186 C192 1.404 . S
C187 C186 1.375 . S
C187 C188 1.369 . S
C187 H200 0.950 . S
C188 C187 1.369 . S
C188 C189 1.392 . S
C188 H201 0.951 . S
C189 C188 1.392 . S
C189 C191 1.384 . S
H190 C192 0.949 . S
C191 C189 1.384 . S
C191 C192 1.385 . S
C191 H193 0.950 . S
C192 C186 1.404 . S
C192 H190 0.949 . S
C192 C191 1.385 . S
H193 C191 0.950 . S
H194 C178 0.951 . S
H195 C180 0.951 . S
H196 C182 0.951 . S
H197 C183 0.950 . S
H198 C184 0.950 . S
H199 C185 0.950 . S
H200 C187 0.950 . S
H201 C188 0.951 . S
C202 C203 1.386 . S
C202 C204 1.383 . S
C202 H218 0.951 . S
C203 C202 1.386 . S
C203 C207 1.383 . S
C204 C202 1.383 . S
C204 C205 1.402 . S
C204 H219 0.951 . S
C205 C204 1.402 . S
C205 C206 1.375 . S
C205 C208 1.481 . S
C206 C205 1.375 . S
C206 C207 1.367 . S
C206 H220 0.951 . S
C207 C203 1.383 . S
C207 C206 1.367 . S
C207 H221 0.950 . S
C208 C205 1.481 . S
C208 C209 1.297 . S
C208 H222 0.950 . S
C209 C208 1.297 . S
C209 C210 1.479 . S
C209 H223 0.950 . S
C210 C209 1.479 . S
C210 C211 1.375 . S
C210 C216 1.404 . S
C211 C210 1.375 . S
C211 C212 1.369 . S
C211 H224 0.950 . S
C212 C211 1.369 . S
C212 C213 1.392 . S
C212 H225 0.951 . S
C213 C212 1.392 . S
C213 C215 1.384 . S
H214 C216 0.949 . S
C215 C213 1.384 . S
C215 C216 1.385 . S
C215 H217 0.950 . S
C216 C210 1.404 . S
C216 H214 0.949 . S
C216 C215 1.385 . S
H217 C215 0.950 . S
H218 C202 0.951 . S
H219 C204 0.951 . S
H220 C206 0.951 . S
H221 C207 0.950 . S
H222 C208 0.950 . S
H223 C209 0.950 . S
H224 C211 0.950 . S
H225 C212 0.951 . S
C226 C227 1.386 . S
C226 C228 1.383 . S
C226 H242 0.951 . S
C227 C226 1.386 . S
C227 C231 1.383 . S
C228 C226 1.383 . S
C228 C229 1.402 . S
C228 H243 0.951 . S
C229 C228 1.402 . S
C229 C230 1.375 . S
C229 C232 1.481 . S
C230 C229 1.375 . S
C230 C231 1.367 . S
C230 H244 0.951 . S
C231 C227 1.383 . S
C231 C230 1.367 . S
C231 H245 0.950 . S
C232 C229 1.481 . S
C232 C233 1.297 . S
C232 H246 0.950 . S
C233 C232 1.297 . S
C233 C234 1.479 . S
C233 H247 0.950 . S
C234 C233 1.479 . S
C234 C235 1.375 . S
C234 C240 1.404 . S
C235 C234 1.375 . S
C235 C236 1.369 . S
C235 H248 0.950 . S
C236 C235 1.369 . S
C236 C237 1.392 . S
C236 H249 0.951 . S
C237 C236 1.392 . S
C237 C239 1.384 . S
H238 C240 0.949 . S
C239 C237 1.384 . S
C239 C240 1.385 . S
C239 H241 0.950 . S
C240 C234 1.404 . S
C240 H238 0.949 . S
C240 C239 1.385 . S
H241 C239 0.950 . S
H242 C226 0.951 . S
H243 C228 0.951 . S
H244 C230 0.951 . S
H245 C231 0.950 . S
H246 C232 0.950 . S
H247 C233 0.950 . S
H248 C235 0.950 . S
H249 C236 0.951 . S
C250 C251 1.386 . S
C250 C252 1.383 . S
C250 H266 0.951 . S
C251 C250 1.386 . S
C251 C255 1.383 . S
C252 C250 1.383 . S
C252 C253 1.402 . S
C252 H267 0.951 . S
C253 C252 1.402 . S
C253 C254 1.375 . S
C253 C256 1.481 . S
C254 C253 1.375 . S
C254 C255 1.367 . S
C254 H268 0.951 . S
C255 C251 1.383 . S
C255 C254 1.367 . S
C255 H269 0.950 . S
C256 C253 1.481 . S
C256 C257 1.297 . S
C256 H270 0.950 . S
C257 C256 1.297 . S
C257 C258 1.479 . S
C257 H271 0.950 . S
C258 C257 1.479 . S
C258 C259 1.375 . S
C258 C264 1.404 . S
C259 C258 1.375 . S
C259 C260 1.369 . S
C259 H272 0.950 . S
C260 C259 1.369 . S
C260 C261 1.392 . S
C260 H273 0.951 . S
C261 C260 1.392 . S
C261 C263 1.384 . S
H262 C264 0.949 . S
C263 C261 1.384 . S
C263 C264 1.385 . S
C263 H265 0.950 . S
C264 C258 1.404 . S
C264 H262 0.949 . S
C264 C263 1.385 . S
H265 C263 0.950 . S
H266 C250 0.951 . S
H267 C252 0.951 . S
H268 C254 0.951 . S
H269 C255 0.950 . S
H270 C256 0.950 . S
H271 C257 0.950 . S
H272 C259 0.950 . S
H273 C260 0.951 . S
C274 C275 1.386 . S
C274 C276 1.383 . S
C274 H290 0.951 . S
C275 C274 1.386 . S
C275 C279 1.383 1_445 S
C276 C274 1.383 . S
C276 C277 1.402 1_445 S
C276 H291 0.951 . S
C277 C276 1.402 1_665 S
C277 C278 1.375 . S
C277 C280 1.481 . S
C278 C277 1.375 . S
C278 C279 1.367 . S
C278 H292 0.951 . S
C279 C275 1.383 1_665 S
C279 C278 1.367 . S
C279 H293 0.950 . S
C280 C277 1.481 . S
C280 C281 1.297 1_565 S
C280 H294 0.950 . S
C281 C280 1.297 1_545 S
C281 C282 1.479 . S
C281 H295 0.950 1_655 S
C282 C281 1.479 . S
C282 C283 1.375 1_655 S
C282 C288 1.404 1_545 S
C283 C282 1.375 1_455 S
C283 C284 1.369 . S
C283 H296 0.950 . S
C284 C283 1.369 . S
C284 C285 1.392 1_455 S
C284 H297 0.951 . S
C285 C284 1.392 1_655 S
C285 C287 1.384 1_545 S
H286 C288 0.949 . S
C287 C285 1.384 1_565 S
C287 C288 1.385 . S
C287 H289 0.950 . S
C288 C282 1.404 1_565 S
C288 H286 0.949 . S
C288 C287 1.385 . S
H289 C287 0.950 . S
H290 C274 0.951 . S
H291 C276 0.951 . S
H292 C278 0.951 . S
H293 C279 0.950 . S
H294 C280 0.950 . S
H295 C281 0.950 1_455 S
H296 C283 0.950 . S
H297 C284 0.951 . S
C298 C299 1.386 1_665 S
C298 C300 1.383 . S
C298 H314 0.951 . S
C299 C298 1.386 1_445 S
C299 C303 1.383 . S
C300 C298 1.383 . S
C300 C301 1.402 1_665 S
C300 H315 0.951 . S
C301 C300 1.402 1_445 S
C301 C302 1.375 . S
C301 C304 1.481 . S
C302 C301 1.375 . S
C302 C303 1.367 . S
C302 H316 0.951 . S
C303 C299 1.383 . S
C303 C302 1.367 . S
C303 H317 0.950 . S
C304 C301 1.481 . S
C304 C305 1.297 1_455 S
C304 H318 0.950 . S
C305 C304 1.297 1_655 S
C305 C306 1.479 . S
C305 H319 0.950 1_545 S
C306 C305 1.479 . S
C306 C307 1.375 1_545 S
C306 C312 1.404 1_655 S
C307 C306 1.375 1_565 S
C307 C308 1.369 . S
C307 H320 0.950 . S
C308 C307 1.369 . S
C308 C309 1.392 1_665 S
C308 H321 0.951 . S
C309 C308 1.392 1_445 S
C309 C311 1.384 . S
H310 C312 0.949 . S
C311 C309 1.384 . S
C311 C312 1.385 . S
C311 H313 0.950 . S
C312 C306 1.404 1_455 S
C312 H310 0.949 . S
C312 C311 1.385 . S
H313 C311 0.950 . S
H314 C298 0.951 . S
H315 C300 0.951 . S
H316 C302 0.951 . S
H317 C303 0.950 . S
H318 C304 0.950 . S
H319 C305 0.950 1_565 S
H320 C307 0.950 . S
H321 C308 0.951 . S
C322 C323 1.386 . S
C322 C324 1.383 . S
C322 H338 0.951 . S
C323 C322 1.386 . S
C323 C327 1.383 . S
C324 C322 1.383 . S
C324 C325 1.402 . S
C324 H339 0.951 . S
C325 C324 1.402 . S
C325 C326 1.375 . S
C325 C328 1.481 . S
C326 C325 1.375 . S
C326 C327 1.367 . S
C326 H340 0.951 . S
C327 C323 1.383 . S
C327 C326 1.367 . S
C327 H341 0.950 . S
C328 C325 1.481 . S
C328 C329 1.297 . S
C328 H342 0.950 . S
C329 C328 1.297 . S
C329 C330 1.479 . S
C329 H343 0.950 . S
C330 C329 1.479 . S
C330 C331 1.375 . S
C330 C336 1.404 . S
C331 C330 1.375 . S
C331 C332 1.369 . S
C331 H344 0.950 . S
C332 C331 1.369 . S
C332 C333 1.392 . S
C332 H345 0.951 . S
C333 C332 1.392 . S
C333 C335 1.384 . S
H334 C336 0.949 . S
C335 C333 1.384 . S
C335 C336 1.385 . S
C335 H337 0.950 . S
C336 C330 1.404 . S
C336 H334 0.949 . S
C336 C335 1.385 . S
H337 C335 0.950 . S
H338 C322 0.951 . S
H339 C324 0.951 . S
H340 C326 0.951 . S
H341 C327 0.950 . S
H342 C328 0.950 . S
H343 C329 0.950 . S
H344 C331 0.950 . S
H345 C332 0.951 . S
C346 C347 1.386 . S
C346 C348 1.383 . S
C346 H362 0.951 . S
C347 C346 1.386 . S
C347 C351 1.383 . S
C348 C346 1.383 . S
C348 C349 1.402 . S
C348 H363 0.951 . S
C349 C348 1.402 . S
C349 C350 1.375 . S
C349 C352 1.481 . S
C350 C349 1.375 . S
C350 C351 1.367 . S
C350 H364 0.951 . S
C351 C347 1.383 . S
C351 C350 1.367 . S
C351 H365 0.950 . S
C352 C349 1.481 . S
C352 C353 1.297 . S
C352 H366 0.950 . S
C353 C352 1.297 . S
C353 C354 1.479 . S
C353 H367 0.950 . S
C354 C353 1.479 . S
C354 C355 1.375 . S
C354 C360 1.404 . S
C355 C354 1.375 . S
C355 C356 1.369 . S
C355 H368 0.950 . S
C356 C355 1.369 . S
C356 C357 1.392 . S
C356 H369 0.951 . S
C357 C356 1.392 . S
C357 C359 1.384 . S
H358 C360 0.949 . S
C359 C357 1.384 . S
C359 C360 1.385 . S
C359 H361 0.950 . S
C360 C354 1.404 . S
C360 H358 0.949 . S
C360 C359 1.385 . S
H361 C359 0.950 . S
H362 C346 0.951 . S
H363 C348 0.951 . S
H364 C350 0.951 . S
H365 C351 0.950 . S
H366 C352 0.950 . S
H367 C353 0.950 . S
H368 C355 0.950 . S
H369 C356 0.951 . S
C93 C77 1.382 . S
C83 C21 1.409 . S
C107 C19 1.399 . S
C117 C68 1.383 . S
C131 C18 1.381 . S
C141 C80 1.376 . S
C155 C20 1.394 . S
C165 C71 1.362 . S
C179 C44 1.410 . S
C189 C59 1.384 . S
C203 C42 1.384 . S
C213 C50 1.403 . S
C237 C62 1.348 . S
C227 C41 1.347 . S
C261 C53 1.396 . S
C251 C43 1.374 . S
C275 C16 1.491 . S
C285 C51 1.483 1_545 S
C299 C17 1.458 . S
C309 C60 1.447 . S
C333 C69 1.482 . S
C323 C39 1.491 . S
C347 C40 1.453 . S
C357 C78 1.450 . S
