# Generated by pormake.
# Topology zzz, (3,6)-cn, num edge types: 1
# Building blocks:
#     Node 0, Type 0, BuildingBlock: BETDAH_clean_linker_0, # of connection points: 3
#     Node 1, Type 0, BuildingBlock: BETDAH_clean_linker_0, # of connection points: 3
#     Node 2, Type 0, BuildingBlock: BETDAH_clean_linker_0, # of connection points: 3
#     Node 3, Type 0, BuildingBlock: BETDAH_clean_linker_0, # of connection points: 3
#     Node 4, Type 0, BuildingBlock: BETDAH_clean_linker_0, # of connection points: 3
#     Node 5, Type 0, BuildingBlock: BETDAH_clean_linker_0, # of connection points: 3
#     Node 6, Type 0, BuildingBlock: BETDAH_clean_linker_0, # of connection points: 3
#     Node 7, Type 0, BuildingBlock: BETDAH_clean_linker_0, # of connection points: 3
#     Node 8, Type 1, BuildingBlock: BETFAJ_clean_sbu_0, # of connection points: 6
#     Node 9, Type 1, BuildingBlock: BETFAJ_clean_sbu_0, # of connection points: 6
#     Node 10, Type 1, BuildingBlock: BETFAJ_clean_sbu_0, # of connection points: 6
#     Node 11, Type 1, BuildingBlock: BETFAJ_clean_sbu_0, # of connection points: 6
#     Edge 12, Type (0, 1), BuildingBlock: ZUJKAS_clean_linker_0, # of connection points: 2
#     Edge 13, Type (0, 1), BuildingBlock: ZUJKAS_clean_linker_0, # of connection points: 2
#     Edge 14, Type (0, 1), BuildingBlock: ZUJKAS_clean_linker_0, # of connection points: 2
#     Edge 15, Type (0, 1), BuildingBlock: ZUJKAS_clean_linker_0, # of connection points: 2
#     Edge 16, Type (0, 1), BuildingBlock: ZUJKAS_clean_linker_0, # of connection points: 2
#     Edge 17, Type (0, 1), BuildingBlock: ZUJKAS_clean_linker_0, # of connection points: 2
#     Edge 18, Type (0, 1), BuildingBlock: ZUJKAS_clean_linker_0, # of connection points: 2
#     Edge 19, Type (0, 1), BuildingBlock: ZUJKAS_clean_linker_0, # of connection points: 2
#     Edge 20, Type (0, 1), BuildingBlock: ZUJKAS_clean_linker_0, # of connection points: 2
#     Edge 21, Type (0, 1), BuildingBlock: ZUJKAS_clean_linker_0, # of connection points: 2
#     Edge 22, Type (0, 1), BuildingBlock: ZUJKAS_clean_linker_0, # of connection points: 2
#     Edge 23, Type (0, 1), BuildingBlock: ZUJKAS_clean_linker_0, # of connection points: 2
#     Edge 24, Type (0, 1), BuildingBlock: ZUJKAS_clean_linker_0, # of connection points: 2
#     Edge 25, Type (0, 1), BuildingBlock: ZUJKAS_clean_linker_0, # of connection points: 2
#     Edge 26, Type (0, 1), BuildingBlock: ZUJKAS_clean_linker_0, # of connection points: 2
#     Edge 27, Type (0, 1), BuildingBlock: ZUJKAS_clean_linker_0, # of connection points: 2
#     Edge 28, Type (0, 1), BuildingBlock: ZUJKAS_clean_linker_0, # of connection points: 2
#     Edge 29, Type (0, 1), BuildingBlock: ZUJKAS_clean_linker_0, # of connection points: 2
#     Edge 30, Type (0, 1), BuildingBlock: ZUJKAS_clean_linker_0, # of connection points: 2
#     Edge 31, Type (0, 1), BuildingBlock: ZUJKAS_clean_linker_0, # of connection points: 2
#     Edge 32, Type (0, 1), BuildingBlock: ZUJKAS_clean_linker_0, # of connection points: 2
#     Edge 33, Type (0, 1), BuildingBlock: ZUJKAS_clean_linker_0, # of connection points: 2
#     Edge 34, Type (0, 1), BuildingBlock: ZUJKAS_clean_linker_0, # of connection points: 2
#     Edge 35, Type (0, 1), BuildingBlock: ZUJKAS_clean_linker_0, # of connection points: 2
# Relax obj value: 0.231
# Max RMSD: 0.175
# Mean RMSD: 0.161
data_MOF--net-zzz--node1-BETFAJ_clean_sbu_0--node2-BETDAH_clean_linker_0--edge1-ZUJKAS_clean_linker_0
_symmetry_space_group_name_H-M    P1
_symmetry_Int_Tables_number       1
_symmetry_cell_setting            triclinic
loop_
_symmetry_equiv_pos_as_xyz
'x, y, z'
_cell_length_a     68.812186
_cell_length_b     68.736112
_cell_length_c     17.220961
_cell_angle_alpha  90.004866
_cell_angle_beta   90.02053
_cell_angle_gamma 89.95489
loop_
_atom_site_label
_atom_site_type_symbol
_atom_site_fract_x
_atom_site_fract_y
_atom_site_fract_z
_atom_type_partial_charge
H0 H 0.79153 0.5151 0.24141 0.0
H1 H 0.7312 0.51351 0.17773 0.0
H2 H 0.7479 0.51694 0.41906 0.0
C3 C 0.77631 0.51564 0.25758 0.0
C4 C 0.77152 0.51666 0.33641 0.0
C5 C 0.7619 0.51438 0.19997 0.0
C6 C 0.74229 0.51433 0.22213 0.0
C7 C 0.73706 0.51533 0.30118 0.0
C8 C 0.7518 0.51628 0.35817 0.0
N9 N 0.71721 0.51532 0.32491 0.0
C10 C 0.70144 0.51484 0.27378 0.0
H11 H 0.0293 0.79115 0.26203 0.0
H12 H 0.01937 0.73158 0.20041 0.0
H13 H 0.99982 0.75342 0.42216 0.0
C14 C 0.0242 0.77677 0.27785 0.0
C15 C 0.01496 0.77416 0.34961 0.0
C16 C 0.02592 0.76152 0.22409 0.0
C17 C 0.01814 0.74326 0.24233 0.0
C18 C 0.00874 0.74019 0.31401 0.0
C19 C 1.00712 0.75574 0.36721 0.0
N20 N 1.00062 0.72177 0.33355 0.0
C21 C 1.00091 0.70569 0.28409 0.0
H22 H 0.71933 1.00571 0.23213 0.0
H23 H 0.78021 1.00271 0.18146 0.0
H24 H 0.76048 1.00161 0.41952 0.0
C25 C 0.73422 1.00457 0.25241 0.0
C26 C 0.73794 1.00385 0.33237 0.0
C27 C 0.74938 1.00406 0.19809 0.0
C28 C 0.76863 1.00298 0.22394 0.0
C29 C 0.77279 1.00196 0.30398 0.0
C30 C 0.75734 1.00223 0.35791 0.0
N31 N 0.79228 1.00084 0.3316 0.0
C32 C 0.80854 1.00101 0.28313 0.0
H33 H 0.52095 0.72578 0.25319 0.0
H34 H 0.51541 0.78645 0.19928 0.0
H35 H 0.5156 0.76733 0.43824 0.0
C36 C 0.51994 0.74078 0.27236 0.0
C37 C 0.51883 0.74468 0.35199 0.0
C38 C 0.51859 0.75573 0.21715 0.0
C39 C 0.51649 0.775 0.24221 0.0
C40 C 0.51568 0.7794 0.32209 0.0
C41 C 0.51653 0.76409 0.37678 0.0
N42 N 0.51386 0.79897 0.34859 0.0
C43 C 0.51375 0.8151 0.29922 0.0
H44 H 0.21751 0.50606 0.17455 0.0
H45 H 0.2783 0.50855 0.228 0.0
H46 H 0.25944 0.49999 0.99112 0.0
C47 C 0.23251 0.50503 0.15556 0.0
C48 C 0.23651 0.50241 0.07645 0.0
C49 C 0.24746 0.50726 0.21019 0.0
C50 C 0.26684 0.50676 0.1855 0.0
C51 C 0.27132 0.5039 0.10644 0.0
C52 C 0.25606 0.50204 0.05201 0.0
N53 N 0.29094 0.50282 0.08026 0.0
C54 C 0.30704 0.50304 0.12964 0.0
H55 H 0.01109 0.22025 0.17124 0.0
H56 H 0.00736 0.28085 0.23008 0.0
H57 H 0.01287 0.2632 0.99049 0.0
C58 C 0.01134 0.23541 0.15381 0.0
C59 C 0.01262 0.2399 0.07471 0.0
C60 C 0.00936 0.25005 0.21015 0.0
C61 C 0.00891 0.26958 0.1866 0.0
C62 C 0.01038 0.27448 0.10731 0.0
C63 C 0.01194 0.25952 0.05157 0.0
N64 N 0.01026 0.29421 0.082 0.0
C65 C 0.00996 0.31019 0.13198 0.0
H66 H 0.29046 0.9911 0.13796 0.0
H67 H 0.23044 0.99509 0.20444 0.0
H68 H 0.25112 0.02502 0.99984 0.0
C69 C 0.27581 0.99623 0.12658 0.0
C70 C 0.27258 0.00841 0.06292 0.0
C71 C 0.26069 0.99121 0.17732 0.0
C72 C 0.24201 0.99873 0.16438 0.0
C73 C 0.23838 0.01084 0.0998 0.0
C74 C 0.25374 0.01549 0.04886 0.0
N75 N 0.21962 0.01884 0.08543 0.0
C76 C 0.20383 0.01686 0.13558 0.0
H77 H 0.52626 0.29333 0.14444 0.0
H78 H 0.51461 0.2346 0.21364 0.0
H79 H 0.49402 0.25576 0.99219 0.0
C80 C 0.52039 0.27909 0.13087 0.0
C81 C 0.51046 0.2764 0.06064 0.0
C82 C 0.52202 0.26413 0.18587 0.0
C83 C 0.51344 0.24605 0.17069 0.0
C84 C 0.50339 0.24287 0.10049 0.0
C85 C 0.50182 0.25816 0.04601 0.0
N86 N 0.49466 0.22456 0.08345 0.0
C87 C 0.49559 0.20838 0.13238 0.0
Sm88 Sm 0.01523 1.0025 0.77349 0.0
Sm89 Sm 0.99508 0.0137 0.63284 0.0
C90 C 0.02783 0.98301 0.89544 0.0
C91 C 0.03175 0.96192 0.9025 0.0
C92 C 0.01639 0.94847 0.89992 0.0
C93 C 0.02015 0.92864 0.89241 0.0
C94 C 0.03933 0.92174 0.88721 0.0
C95 C 0.05474 0.93505 0.89385 0.0
C96 C 0.05097 0.95497 0.90146 0.0
C97 C 0.0403 0.01224 0.65506 0.0
C98 C 1.00228 0.96853 0.64729 0.0
C99 C 0.98244 0.03319 0.51128 0.0
C100 C 0.97513 0.05327 0.50978 0.0
C101 C 0.98025 0.06565 0.44868 0.0
C102 C 0.97649 0.08558 0.45385 0.0
C103 C 0.96748 0.09349 0.52031 0.0
C104 C 0.96174 0.08087 0.58021 0.0
C105 C 0.96563 0.06097 0.57518 0.0
C106 C 0.97002 1.00439 0.75202 0.0
C107 C 0.00804 0.04795 0.75868 0.0
O108 O 0.00964 0.98814 0.88675 0.0
O109 O 0.03946 0.99256 0.84918 0.0
O110 O 0.02534 1.00175 0.64747 0.0
O111 O 0.04231 0.01803 0.7263 0.0
O112 O 1.00474 0.97304 0.72123 0.0
O113 O 1.001 0.98238 0.59476 0.0
O114 O 1.00089 0.03165 0.52823 0.0
O115 O 0.97169 0.02052 0.54813 0.0
O116 O 0.98511 0.0147 0.75888 0.0
O117 O 0.9677 0.99876 0.68076 0.0
O118 O 1.00432 0.04341 0.6857 0.0
O119 O 0.01068 0.03417 0.81081 0.0
H120 H 1.00139 0.95324 0.90085 0.0
H121 H 0.00795 0.91871 0.88972 0.0
H122 H 0.06968 0.93016 0.89039 0.0
H123 H 0.0631 0.96501 0.9033 0.0
H124 H 0.98798 0.06004 0.39861 0.0
H125 H 0.98148 0.09489 0.40724 0.0
H126 H 0.95463 0.0864 0.63178 0.0
H127 H 0.96188 0.05174 0.62391 0.0
Sm128 Sm 0.51219 0.02093 0.77447 0.0
Sm129 Sm 0.50049 0.99885 0.63834 0.0
C130 C 0.53245 0.03417 0.89298 0.0
C131 C 0.55382 0.03408 0.90224 0.0
C132 C 0.56391 0.01643 0.91157 0.0
C133 C 0.58406 0.01577 0.90377 0.0
C134 C 0.59464 0.03271 0.88656 0.0
C135 C 0.58469 0.05054 0.88155 0.0
C136 C 0.56448 0.05122 0.88955 0.0
C137 C 0.50119 0.04451 0.65288 0.0
C138 C 0.54585 1.0059 0.65079 0.0
C139 C 0.48126 0.98491 0.5178 0.0
C140 C 0.46054 0.97975 0.50968 0.0
C141 C 0.44602 0.9928 0.53387 0.0
C142 C 0.42661 0.98706 0.53571 0.0
C143 C 0.42125 0.96818 0.51335 0.0
C144 C 0.43565 0.9553 0.48664 0.0
C145 C 0.45518 0.96102 0.48518 0.0
C146 C 0.51129 0.97539 0.76067 0.0
C147 C 0.46677 0.01368 0.76497 0.0
O148 O 0.52383 0.0172 0.89385 0.0
O149 O 0.52581 0.04551 0.83814 0.0
O150 O 0.51186 0.02957 0.64675 0.0
O151 O 0.49589 0.04723 0.7244 0.0
O152 O 0.54143 0.00972 0.7238 0.0
O153 O 0.53197 1.00342 0.59909 0.0
O154 O 0.48523 1.00341 0.52626 0.0
O155 O 0.49128 0.97388 0.56485 0.0
O156 O 0.50065 0.99034 0.76592 0.0
O157 O 0.51662 0.97247 0.68934 0.0
O158 O 0.47089 1.00776 0.69375 0.0
O159 O 0.4807 0.01826 0.81403 0.0
H160 H 0.55621 1.0029 0.92102 0.0
H161 H 0.59121 1.00176 0.90747 0.0
H162 H 0.59247 0.06393 0.87035 0.0
H163 H 0.55711 0.06503 0.88235 0.0
H164 H 0.44965 1.00733 0.55336 0.0
H165 H 0.41577 0.99744 0.55489 0.0
H166 H 0.43187 0.94068 0.46867 0.0
H167 H 0.46614 0.95069 0.46679 0.0
Sm168 Sm 0.49477 0.51566 0.77021 0.0
Sm169 Sm 0.5149 0.50318 0.61397 0.0
C170 C 0.48509 0.53597 0.89349 0.0
C171 C 0.4883 0.55696 0.90501 0.0
C172 C 0.50635 0.56529 0.88616 0.0
C173 C 0.50823 0.5854 0.8786 0.0
C174 C 0.49207 0.59762 0.88919 0.0
C175 C 0.47429 0.58934 0.91232 0.0
C176 C 0.47242 0.56919 0.92008 0.0
C177 C 0.4701 0.50438 0.65305 0.0
C178 C 0.50881 0.54931 0.64006 0.0
C179 C 0.52094 0.4847 0.48307 0.0
C180 C 0.53057 0.46573 0.47653 0.0
C181 C 0.52627 0.45312 0.41505 0.0
C182 C 0.53218 0.43364 0.41846 0.0
C183 C 0.54223 0.42654 0.48391 0.0
C184 C 0.54726 0.43948 0.54354 0.0
C185 C 0.54147 0.45887 0.53988 0.0
C186 C 0.54309 0.50681 0.7287 0.0
C187 C 0.50378 0.47008 0.74964 0.0
O188 O 0.50064 0.52494 0.89158 0.0
O189 O 0.47266 0.53178 0.83851 0.0
O190 O 0.48515 0.51474 0.64465 0.0
O191 O 0.46747 0.49989 0.72573 0.0
O192 O 0.50385 0.54483 0.71229 0.0
O193 O 0.51239 0.5358 0.58724 0.0
O194 O 0.50428 0.48397 0.51988 0.0
O195 O 0.53201 0.49919 0.50577 0.0
O196 O 0.52509 0.50953 0.73505 0.0
O197 O 0.54695 0.50236 0.65727 0.0
O198 O 0.50687 0.4742 0.6755 0.0
O199 O 0.50083 0.48384 0.80202 0.0
H200 H 0.51881 0.55625 0.87272 0.0
H201 H 0.52209 0.59123 0.8601 0.0
H202 H 0.46168 0.5984 0.92292 0.0
H203 H 0.45833 0.56309 0.93398 0.0
H204 H 0.51754 0.45806 0.36654 0.0
H205 H 0.52792 0.4239 0.37203 0.0
H206 H 0.55509 0.43445 0.59431 0.0
H207 H 0.54462 0.46825 0.58873 0.0
Sm208 Sm 0.99934 0.49927 0.77078 0.0
Sm209 Sm 0.00971 0.51983 0.63026 0.0
C210 C 0.98049 0.48685 0.89409 0.0
C211 C 0.96019 0.48028 0.8988 0.0
C212 C 0.94789 0.48831 0.95502 0.0
C213 C 0.92787 0.48526 0.95096 0.0
C214 C 0.91975 0.47397 0.8908 0.0
C215 C 0.93223 0.4653 0.83632 0.0
C216 C 0.95224 0.46853 0.83996 0.0
C217 C 0.00834 0.4743 0.65093 0.0
C218 C 0.96444 0.51192 0.64697 0.0
C219 C 0.02895 0.53247 0.50833 0.0
C220 C 0.04941 0.53874 0.50652 0.0
C221 C 0.06221 0.53011 0.45348 0.0
C222 C 0.08226 0.53206 0.4632 0.0
C223 C 0.08985 0.54271 0.52609 0.0
C224 C 0.07701 0.55247 0.57598 0.0
C225 C 0.05696 0.55037 0.56671 0.0
C226 C 1.00082 0.54464 0.75071 0.0
C227 C 0.04459 0.50699 0.75409 0.0
O228 O 0.98257 0.50533 0.87817 0.0
O229 O 0.99242 0.47578 0.85484 0.0
O230 O 0.99799 0.48942 0.64445 0.0
O231 O 0.01413 0.47196 0.72197 0.0
O232 O 0.96929 0.50813 0.71963 0.0
O233 O 0.97802 0.51479 0.59429 0.0
O234 O 0.02652 0.51395 0.52276 0.0
O235 O 0.0169 0.54351 0.5472 0.0
O236 O 0.01122 0.52955 0.7565 0.0
O237 O 0.99487 0.54707 0.67989 0.0
O238 O 0.03978 0.51094 0.68152 0.0
O239 O 0.031 0.5041 0.80665 0.0
H240 H 0.95367 0.49775 0.99983 0.0
H241 H 0.91871 0.49252 0.99309 0.0
H242 H 0.92654 0.45635 0.78985 0.0
H243 H 0.96137 0.46244 0.79484 0.0
H244 H 0.05673 0.52095 0.40721 0.0
H245 H 0.09187 0.5247 0.42291 0.0
H246 H 0.08244 0.56068 0.62507 0.0
H247 H 0.04744 0.55692 0.60948 0.0
H248 H 0.20145 0.0294 0.28373 0.0
H249 H 0.17275 0.02827 0.36878 0.0
H250 H 0.13996 1.00067 0.18588 0.0
H251 H 0.1687 1.00169 0.10121 0.0
H252 H 0.136 0.0453 0.34172 0.0
H253 H 0.12996 0.96511 0.3734 0.0
H254 H 0.15171 0.97679 0.33786 0.0
H255 H 0.13109 0.97372 0.275 0.0
C256 C 0.18812 0.02297 0.26222 0.0
C257 C 0.18716 0.01553 0.18652 0.0
C258 C 0.17176 0.02236 0.3106 0.0
C259 C 0.15425 0.01417 0.28411 0.0
C260 C 0.15338 1.00672 0.20816 0.0
H261 H 0.04082 0.99776 0.50663 0.0
H262 H 0.06775 0.99902 0.41312 0.0
C263 C 0.16974 1.00737 0.15977 0.0
C264 C 0.13677 0.01404 0.33507 0.0
H265 H 0.10445 0.98401 0.42641 0.0
C266 C 0.12912 0.0319 0.36038 0.0
C267 C 0.12769 0.99656 0.35891 0.0
C268 C 0.13558 0.97693 0.33555 0.0
C269 C 0.11261 0.03277 0.40837 0.0
C270 C 0.10371 0.01527 0.43335 0.0
C271 C 0.11123 0.99742 0.40728 0.0
C272 C 0.08705 0.01515 0.48868 0.0
C273 C 0.10468 0.05246 0.4307 0.0
C274 C 0.08891 0.0237 0.56239 0.0
C275 C 0.07355 0.02309 0.6155 0.0
C276 C 0.05603 0.0137 0.59655 0.0
C277 C 0.05412 1.00515 0.52278 0.0
C278 C 0.06951 1.00582 0.46943 0.0
H279 H 0.10909 0.06386 0.38849 0.0
H280 H 0.08857 0.05225 0.43437 0.0
H281 H 0.11054 0.05663 0.48838 0.0
H282 H 0.10241 0.03056 0.57952 0.0
H283 H 0.07553 0.02971 0.67205 0.0
H284 H 0.52746 0.19278 0.19968 0.0
H285 H 0.52886 0.16367 0.28259 0.0
H286 H 0.46675 0.15697 0.26084 0.0
H287 H 0.46547 0.18587 0.17701 0.0
H288 H 0.51169 0.15655 0.42221 0.0
H289 H 0.48576 0.10272 0.20637 0.0
H290 H 0.49335 0.12693 0.17951 0.0
H291 H 0.46947 0.12288 0.21872 0.0
C292 C 0.51417 0.18497 0.2125 0.0
C293 C 0.49638 0.19137 0.18201 0.0
C294 C 0.51495 0.16838 0.25979 0.0
C295 C 0.49796 0.15786 0.27698 0.0
C296 C 0.48013 0.16449 0.247 0.0
H297 H 0.48102 0.07849 0.66275 0.0
H298 H 0.48042 0.10538 0.56984 0.0
C299 C 0.47937 0.18107 0.19966 0.0
C300 C 0.49881 0.14038 0.32835 0.0
H301 H 0.48725 0.09201 0.33806 0.0
C302 C 0.50642 0.14243 0.40358 0.0
C303 C 0.49222 0.12183 0.3039 0.0
C304 C 0.48492 0.11835 0.22247 0.0
C305 C 0.50719 0.12664 0.45548 0.0
C306 C 0.49982 0.1083 0.43222 0.0
C307 C 0.49268 0.1061 0.35631 0.0
C308 C 0.49928 0.09135 0.48628 0.0
C309 C 0.51611 0.12972 0.5346 0.0
C310 C 0.5094 0.0741 0.46899 0.0
C311 C 0.50964 0.05858 0.52199 0.0
C312 C 0.49969 0.06001 0.59311 0.0
C313 C 0.48899 0.077 0.60884 0.0
C314 C 0.48873 0.09245 0.55595 0.0
H315 H 0.52582 0.14263 0.53547 0.0
H316 H 0.50437 0.1322 0.57765 0.0
H317 H 0.52459 0.11678 0.55313 0.0
H318 H 0.51751 0.07284 0.41532 0.0
H319 H 0.51796 0.04565 0.5081 0.0
H320 H 0.30983 0.48735 0.27307 0.0
H321 H 0.33857 0.48714 0.35807 0.0
H322 H 0.37108 0.51811 0.18325 0.0
H323 H 0.34226 0.51851 0.09886 0.0
H324 H 0.37536 0.47129 0.33162 0.0
H325 H 0.38048 0.55108 0.37675 0.0
H326 H 0.35911 0.53963 0.33678 0.0
H327 H 0.38006 0.54376 0.27668 0.0
C328 C 0.32312 0.49418 0.25327 0.0
C329 C 0.32393 0.50305 0.18001 0.0
C330 C 0.33952 0.49403 0.30163 0.0
C331 C 0.35695 0.50285 0.27765 0.0
C332 C 0.35773 0.51157 0.20382 0.0
H333 H 0.47007 0.51819 0.50367 0.0
H334 H 0.44339 0.51677 0.4091 0.0
C335 C 0.34132 0.51171 0.1555 0.0
C336 C 0.37438 0.50259 0.32925 0.0
H337 H 0.40638 0.53199 0.42575 0.0
C338 C 0.38211 0.48457 0.35233 0.0
C339 C 0.38328 0.5199 0.35609 0.0
C340 C 0.37524 0.5397 0.33599 0.0
C341 C 0.39856 0.48339 0.40078 0.0
C342 C 0.40735 0.5007 0.42824 0.0
C343 C 0.39972 0.51872 0.40458 0.0
C344 C 0.42402 0.50049 0.4837 0.0
C345 C 0.40656 0.46359 0.42104 0.0
C346 C 0.42208 0.49179 0.55711 0.0
C347 C 0.4373 0.49256 0.61105 0.0
C348 C 0.45476 0.50217 0.59306 0.0
C349 C 0.45683 0.51063 0.51917 0.0
C350 C 0.44157 0.50987 0.46518 0.0
H351 H 0.40202 0.45241 0.37811 0.0
H352 H 0.42268 0.46381 0.42399 0.0
H353 H 0.40091 0.45913 0.4787 0.0
H354 H 0.40859 0.48483 0.57357 0.0
H355 H 0.4352 0.48599 0.6676 0.0
H356 H 0.99717 0.34616 0.09566 0.0
H357 H 0.99747 0.37514 0.17944 0.0
H358 H 0.02253 0.34113 0.36478 0.0
H359 H 0.02248 0.31227 0.28058 0.0
H360 H 0.97945 0.38136 0.32233 0.0
H361 H 0.05949 0.38745 0.3514 0.0
H362 H 0.04811 0.3723 0.27885 0.0
H363 H 0.05003 0.36403 0.37762 0.0
C364 C 1.00276 0.34497 0.1543 0.0
C365 C 0.00985 0.32714 0.18197 0.0
C366 C 1.00293 0.36148 0.20207 0.0
C367 C 0.01031 0.36042 0.27808 0.0
C368 C 0.01715 0.34244 0.3059 0.0
H369 H 0.0239 0.43815 0.66829 0.0
H370 H 0.02402 0.4114 0.57489 0.0
C371 C 0.017 0.32594 0.25808 0.0
C372 C 0.01051 0.37802 0.32863 0.0
H373 H 0.0405 0.40758 0.43398 0.0
C374 C 0.99281 0.38719 0.34634 0.0
C375 C 0.02794 0.38564 0.35992 0.0
C376 C 0.0475 0.37698 0.34051 0.0
C377 C 0.99199 0.40337 0.39639 0.0
C378 C 0.00941 0.4109 0.42832 0.0
C379 C 0.02714 0.40186 0.40965 0.0
C380 C 0.00956 0.42758 0.48378 0.0
C381 C 0.97237 0.41178 0.4167 0.0
C382 C 1.00173 0.4458 0.46348 0.0
C383 C 1.00151 0.46114 0.51727 0.0
C384 C 0.00934 0.4586 0.592 0.0
C385 C 0.01769 0.44057 0.61128 0.0
C386 C 0.01778 0.42524 0.55785 0.0
H387 H 0.96042 0.40137 0.40433 0.0
H388 H 0.97169 0.41593 0.47896 0.0
H389 H 0.96981 0.42503 0.38132 0.0
H390 H 0.99577 0.44817 0.40607 0.0
H391 H 0.99512 0.47493 0.50055 0.0
H392 H 0.81178 0.01914 0.14461 0.0
H393 H 0.84008 0.01904 0.05768 0.0
H394 H 0.87158 0.98367 0.22215 0.0
H395 H 0.8431 0.98346 0.30824 0.0
H396 H 0.87714 0.03228 0.08051 0.0
H397 H 0.87829 0.95291 0.02265 0.0
H398 H 0.85792 0.96488 0.06821 0.0
H399 H 0.87924 0.95899 0.12395 0.0
C400 C 0.82474 0.01127 0.16175 0.0
C401 C 0.82533 1.00118 0.23245 0.0
C402 C 0.84091 0.01126 0.11229 0.0
C403 C 0.8579 1.00109 0.13266 0.0
C404 C 0.85853 0.99125 0.20423 0.0
H405 H 0.97052 0.01825 0.90129 0.0
H406 H 0.94404 0.01726 0.99668 0.0
C407 C 0.84233 0.99123 0.25358 0.0
C408 C 0.87499 1.00104 0.07943 0.0
H409 H 0.90503 0.97115 0.97549 0.0
C410 C 0.88325 0.01891 0.05756 0.0
C411 C 0.88284 0.98361 0.04865 0.0
C412 C 0.87403 0.96401 0.06635 0.0
C413 C 0.89913 0.01983 0.00622 0.0
C414 C 0.90728 1.00238 0.97695 0.0
C415 C 0.89896 0.98452 0.99855 0.0
C416 C 0.92381 1.00235 0.92093 0.0
C417 C 0.90665 0.03955 0.98209 0.0
C418 C 0.92158 0.99367 0.84762 0.0
C419 C 0.93674 0.99403 0.79352 0.0
C420 C 0.9545 1.00307 0.81149 0.0
C421 C 0.95694 0.01132 0.88557 0.0
C422 C 0.94177 0.01088 0.9399 0.0
H423 H 0.89584 0.05123 0.9933 0.0
H424 H 0.91994 0.04297 0.01595 0.0
H425 H 0.91047 0.03973 0.91946 0.0
H426 H 0.90794 0.9869 0.83166 0.0
H427 H 0.93443 0.98748 0.73706 0.0
H428 H 0.49464 0.84914 0.31877 0.0
H429 H 0.4944 0.87717 0.22982 0.0
H430 H 0.53291 0.84645 0.07471 0.0
H431 H 0.53301 0.81844 0.16331 0.0
H432 H 0.52535 0.90017 0.17545 0.0
H433 H 0.48831 0.86275 0.93143 0.0
H434 H 0.48885 0.8529 0.02857 0.0
H435 H 0.50962 0.85039 0.96604 0.0
C436 C 0.50299 0.84844 0.2655 0.0
C437 C 0.51374 0.8317 0.24727 0.0
C438 C 0.50288 0.86443 0.21485 0.0
C439 C 0.5134 0.86385 0.14491 0.0
C440 C 0.52436 0.84713 0.12745 0.0
H441 H 0.53118 0.94116 0.75317 0.0
H442 H 0.53214 0.91502 0.84952 0.0
C443 C 0.52449 0.83117 0.17815 0.0
C444 C 0.51307 0.88075 0.09058 0.0
H445 H 0.50143 0.89395 0.90487 0.0
C446 C 0.52002 0.89885 0.11641 0.0
C447 C 0.50611 0.87906 0.0135 0.0
C448 C 0.49762 0.86029 0.98324 0.0
C449 C 0.52067 0.91513 0.06673 0.0
C450 C 0.51385 0.91338 0.98943 0.0
C451 C 0.50674 0.89531 0.96393 0.0
C452 C 0.51411 0.92997 0.93344 0.0
C453 C 0.52919 0.93389 0.09686 0.0
C454 C 0.50374 0.94721 0.94839 0.0
C455 C 0.50324 0.96225 0.89331 0.0
C456 C 0.51295 0.96027 0.8219 0.0
C457 C 0.52354 0.94314 0.80757 0.0
C458 C 0.52407 0.92815 0.86259 0.0
H459 H 0.53838 0.93145 0.14901 0.0
H460 H 0.53809 0.94117 0.05166 0.0
H461 H 0.51721 0.94387 0.11347 0.0
H462 H 0.49561 0.94885 0.00182 0.0
H463 H 0.49487 0.97523 0.90588 0.0
H464 H 0.69982 0.50099 0.12672 0.0
H465 H 0.67135 0.5004 0.04064 0.0
H466 H 0.63662 0.52656 0.22124 0.0
H467 H 0.66523 0.52752 0.30663 0.0
H468 H 0.63641 0.48193 0.05904 0.0
H469 H 0.62428 0.56162 0.03849 0.0
H470 H 0.64635 0.55134 0.07751 0.0
H471 H 0.62473 0.5524 0.13599 0.0
C472 C 0.68613 0.50675 0.14759 0.0
C473 C 0.68466 0.51446 0.22277 0.0
C474 C 0.66986 0.50637 0.09856 0.0
C475 C 0.65185 0.51374 0.12378 0.0
C476 C 0.6504 0.52123 0.19958 0.0
H477 H 0.53868 0.51856 0.88106 0.0
H478 H 0.56405 0.52006 0.98196 0.0
C479 C 0.66669 0.52165 0.24851 0.0
C480 C 0.63456 0.51305 0.07138 0.0
H481 H 0.60058 0.54139 0.97998 0.0
C482 C 0.6286 0.49495 0.04186 0.0
C483 C 0.62421 0.53001 0.04913 0.0
C484 C 0.63028 0.54997 0.07628 0.0
C485 C 0.61273 0.49335 0.99071 0.0
C486 C 0.60263 0.51032 0.96736 0.0
C487 C 0.60827 0.52838 0.99809 0.0
C488 C 0.58709 0.50969 0.90707 0.0
C489 C 0.60686 0.47345 0.96217 0.0
C490 C 0.59165 0.50372 0.83134 0.0
C491 C 0.57728 0.50295 0.77404 0.0
C492 C 0.55797 0.50815 0.79091 0.0
C493 C 0.55339 0.51438 0.86649 0.0
C494 C 0.56787 0.51525 0.92404 0.0
H495 H 0.6123 0.46176 0.00109 0.0
H496 H 0.59081 0.47222 0.95758 0.0
H497 H 0.61314 0.47101 0.90363 0.0
H498 H 0.6064 0.4997 0.81637 0.0
H499 H 0.58133 0.49816 0.71633 0.0
H500 H 0.00952 0.66846 0.32079 0.0
H501 H 0.01004 0.64036 0.23237 0.0
H502 H 0.99288 0.67764 0.04271 0.0
H503 H 0.99272 0.70573 0.13093 0.0
H504 H 0.98097 0.62419 0.14524 0.0
H505 H 0.03977 0.65027 0.95183 0.0
H506 H 0.03464 0.66145 0.04439 0.0
H507 H 0.02012 0.66729 0.96064 0.0
C508 C 1.00597 0.67058 0.26006 0.0
C509 C 1.00117 0.68913 0.23213 0.0
C510 C 1.00623 0.65456 0.20967 0.0
C511 C 1.00181 0.65689 0.13048 0.0
C512 C 0.99678 0.67551 0.10303 0.0
H513 H 0.98599 0.58118 0.7343 0.0
H514 H 0.98618 0.60768 0.82931 0.0
C515 C 0.99656 0.69152 0.15342 0.0
C516 C 1.00204 0.63982 0.07704 0.0
H517 H 0.0217 0.62283 0.90766 0.0
C518 C 0.99001 0.62383 0.09367 0.0
C519 C 0.01387 0.63928 0.00976 0.0
C520 C 0.02798 0.6554 0.99086 0.0
C521 C 0.98911 0.60761 0.04385 0.0
C522 C 1.00063 0.6073 0.97592 0.0
C523 C 0.01281 0.62315 0.95965 0.0
C524 C 0.99996 0.59084 0.91996 0.0
C525 C 0.97549 0.59111 0.06297 0.0
C526 C 0.00765 0.57253 0.93943 0.0
C527 C 0.00768 0.55735 0.88494 0.0
C528 C 0.99996 0.56022 0.81018 0.0
C529 C 0.99202 0.57849 0.79141 0.0
C530 C 0.99214 0.59367 0.84557 0.0
H531 H 0.96535 0.59491 0.11082 0.0
H532 H 0.96688 0.58698 0.01096 0.0
H533 H 0.98409 0.57821 0.08094 0.0
H534 H 0.01392 0.57009 0.9963 0.0
H535 H 0.01392 0.54345 0.90101 0.0
H536 H 0.98256 0.26427 0.3137 0.0
H537 H 0.9724 0.24875 0.43493 0.0
H538 H 0.01836 0.20641 0.40842 0.0
H539 H 0.02924 0.22263 0.29181 0.0
H540 H 0.95657 0.21677 0.43428 0.0
H541 H 0.01653 0.20498 0.63346 0.0
H542 H 0.0181 0.22354 0.5594 0.0
H543 H 0.02669 0.19905 0.54104 0.0
C544 C 0.99105 0.25224 0.33609 0.0
C545 C 1.00643 0.24437 0.29246 0.0
C546 C 0.98517 0.2433 0.4053 0.0
C547 C 0.99452 0.22631 0.43155 0.0
C548 C 0.01107 0.2197 0.39152 0.0
H549 H 0.95792 0.11986 0.40789 0.0
H550 H 0.95967 0.155 0.41597 0.0
C551 C 0.0171 0.22879 0.32347 0.0
C552 C 0.98482 0.21291 0.48729 0.0
H553 H 0.99739 0.17404 0.59908 0.0
C554 C 0.96534 0.20791 0.47289 0.0
C555 C 0.99556 0.20169 0.54133 0.0
C556 C 0.0153 0.20786 0.57016 0.0
C557 C 0.95761 0.19033 0.49998 0.0
C558 C 0.96992 0.17715 0.53942 0.0
C559 C 0.98815 0.18366 0.56542 0.0
C560 C 0.966 0.1559 0.53936 0.0
C561 C 0.93676 0.18552 0.4812 0.0
C562 C 0.96931 0.14446 0.60559 0.0
C563 C 0.96891 0.12414 0.6004 0.0
C564 C 0.96529 0.11491 0.52875 0.0
C565 C 0.96107 0.12644 0.46364 0.0
C566 C 0.96165 0.14665 0.46868 0.0
H567 H 0.92749 0.19866 0.48771 0.0
H568 H 0.93567 0.1808 0.41971 0.0
H569 H 0.93098 0.17384 0.51927 0.0
H570 H 0.97292 0.15121 0.66059 0.0
H571 H 0.97233 0.11572 0.65172 0.0
H572 H 0.2808 0.95726 0.18197 0.0
H573 H 0.29865 0.94493 0.29284 0.0
H574 H 0.26926 0.98601 0.44191 0.0
H575 H 0.252 0.99913 0.32906 0.0
H576 H 0.30529 0.99299 0.44401 0.0
H577 H 0.30063 0.91432 0.48495 0.0
H578 H 0.30367 0.9182 0.38304 0.0
H579 H 0.28224 0.92745 0.43139 0.0
C580 C 0.27759 0.96315 0.23892 0.0
C581 C 0.26543 0.97944 0.2468 0.0
C582 C 0.28762 0.95588 0.30288 0.0
C583 C 0.28541 0.96451 0.3763 0.0
C584 C 0.27126 0.97911 0.38591 0.0
H585 H 0.39542 0.97378 0.63168 0.0
H586 H 0.36008 0.9695 0.62676 0.0
C587 C 0.26134 0.98657 0.32144 0.0
C588 C 0.30118 0.96198 0.43443 0.0
H589 H 0.33455 0.9282 0.49238 0.0
C590 C 0.31126 0.97879 0.45751 0.0
C591 C 0.30903 0.94351 0.45291 0.0
C592 C 0.29811 0.92492 0.43729 0.0
C593 C 0.32999 0.97767 0.48906 0.0
C594 C 0.33876 0.95921 0.49861 0.0
C595 C 0.3279 0.94235 0.48369 0.0
C596 C 0.35998 0.95751 0.51061 0.0
C597 C 0.34092 0.99633 0.50462 0.0
C598 C 0.37164 0.9512 0.44865 0.0
C599 C 0.39178 0.95358 0.45134 0.0
C600 C 0.40053 0.96241 0.516 0.0
C601 C 0.38896 0.96732 0.58047 0.0
C602 C 0.36882 0.9648 0.57795 0.0
H603 H 0.3327 0.00941 0.4857 0.0
H604 H 0.34377 0.99769 0.5678 0.0
H605 H 0.35514 0.9962 0.47415 0.0
H606 H 0.36506 0.94559 0.39604 0.0
H607 H 0.40034 0.94969 0.40088 0.0
H608 H 0.55681 0.28176 0.20894 0.0
H609 H 0.56607 0.29973 0.32378 0.0
H610 H 0.51823 0.27418 0.45008 0.0
H611 H 0.50815 0.25704 0.33219 0.0
H612 H 0.51321 0.30984 0.44922 0.0
H613 H 0.58945 0.30317 0.52869 0.0
H614 H 0.58964 0.30519 0.4253 0.0
H615 H 0.57774 0.28466 0.47077 0.0
C616 C 0.54868 0.27942 0.26202 0.0
C617 C 0.53145 0.26851 0.26118 0.0
C618 C 0.55419 0.28949 0.32858 0.0
C619 C 0.54284 0.28848 0.39633 0.0
C620 C 0.52718 0.27533 0.39856 0.0
H621 H 0.53574 0.40426 0.61251 0.0
H622 H 0.53806 0.36883 0.62291 0.0
C623 C 0.52145 0.26545 0.33121 0.0
C624 C 0.54417 0.3047 0.45333 0.0
H625 H 0.57737 0.33829 0.51391 0.0
C626 C 0.5272 0.3156 0.46677 0.0
C627 C 0.56226 0.31231 0.4781 0.0
C628 C 0.5807 0.30049 0.47553 0.0
C629 C 0.52817 0.33488 0.49284 0.0
C630 C 0.54656 0.3434 0.50535 0.0
C631 C 0.5633 0.33181 0.50212 0.0
C632 C 0.54863 0.36476 0.50593 0.0
C633 C 0.50969 0.34665 0.49873 0.0
C634 C 0.55422 0.37414 0.43712 0.0
C635 C 0.55281 0.39433 0.43065 0.0
C636 C 0.54591 0.40545 0.4932 0.0
C637 C 0.54128 0.39607 0.56352 0.0
C638 C 0.54259 0.37585 0.56972 0.0
H639 H 0.49653 0.33781 0.48653 0.0
H640 H 0.50836 0.35284 0.55802 0.0
H641 H 0.51016 0.35897 0.45707 0.0
H642 H 0.55877 0.36575 0.38705 0.0
H643 H 0.55663 0.4012 0.37615 0.0
H644 H 0.22243 0.48681 0.30025 0.0
H645 H 0.20605 0.49868 0.41622 0.0
H646 H 0.24421 0.54845 0.42222 0.0
H647 H 0.2603 0.53683 0.30364 0.0
H648 H 0.21222 0.51268 0.56813 0.0
H649 H 0.1923 0.57226 0.36182 0.0
H650 H 0.20541 0.55117 0.32861 0.0
H651 H 0.21737 0.56906 0.38786 0.0
C652 C 0.2277 0.49999 0.32761 0.0
C653 C 0.24222 0.5112 0.29203 0.0
C654 C 0.21845 0.5067 0.3943 0.0
C655 C 0.22356 0.52473 0.42661 0.0
C656 C 0.23978 0.5347 0.39715 0.0
H657 H 0.11326 0.57346 0.56566 0.0
H658 H 0.14876 0.57326 0.57885 0.0
C659 C 0.24903 0.528 0.32978 0.0
C660 C 0.20927 0.53433 0.47832 0.0
H661 H 0.17064 0.56501 0.46 0.0
C662 C 0.20346 0.52461 0.54621 0.0
C663 C 0.198 0.55014 0.4506 0.0
C664 C 0.20345 0.5613 0.37822 0.0
C665 C 0.18551 0.52872 0.58137 0.0
C666 C 0.17306 0.54261 0.54674 0.0
C667 C 0.18009 0.55416 0.48583 0.0
C668 C 0.15174 0.5423 0.55891 0.0
C669 C 0.17951 0.51722 0.65196 0.0
C670 C 0.14159 0.52496 0.54454 0.0
C671 C 0.12145 0.52508 0.53649 0.0
C672 C 0.111 0.54257 0.54198 0.0
C673 C 0.12098 0.55978 0.56083 0.0
C674 C 0.14122 0.55966 0.56879 0.0
H675 H 0.19219 0.51464 0.69055 0.0
H676 H 0.16797 0.52475 0.6856 0.0
H677 H 0.174 0.50277 0.6334 0.0
H678 H 0.14931 0.51145 0.5346 0.0
H679 H 0.1141 0.51151 0.52384 0.0
H680 H 0.05901 0.78159 0.19145 0.0
H681 H 0.06521 0.79922 0.0717 0.0
H682 H 0.01858 0.76815 0.9592 0.0
H683 H 0.01142 0.75135 0.08127 0.0
H684 H 0.07082 0.79792 0.91537 0.0
H685 H 0.99481 0.8211 0.9834 0.0
H686 H 0.00799 0.80511 0.04708 0.0
H687 H 0.99858 0.79621 0.95623 0.0
C688 C 0.0504 0.77812 0.14061 0.0
C689 C 0.03419 0.7658 0.14649 0.0
C690 C 0.05408 0.78807 0.07179 0.0
C691 C 0.04178 0.78563 0.00754 0.0
C692 C 0.02778 0.77076 0.00913 0.0
H693 H 0.02016 0.89715 0.78976 0.0
H694 H 0.02203 0.86175 0.78636 0.0
C695 C 0.02382 0.76103 0.07876 0.0
C696 C 0.0409 0.80155 0.94959 0.0
H697 H 0.01375 0.84196 0.91172 0.0
C698 C 0.05816 0.8073 0.91246 0.0
C699 C 0.02433 0.8138 0.94532 0.0
C700 C 1.00539 0.80889 0.98526 0.0
C701 C 0.05981 0.82573 0.8778 0.0
C702 C 0.04386 0.83865 0.88094 0.0
C703 C 0.02602 0.83205 0.91 0.0
C704 C 0.04588 0.85984 0.86793 0.0
C705 C 0.07888 0.83155 0.8417 0.0
C706 C 0.05873 0.87062 0.91456 0.0
C707 C 0.05734 0.89089 0.91796 0.0
C708 C 0.04299 0.90069 0.8751 0.0
C709 C 0.03107 0.88996 0.82454 0.0
C710 C 0.03237 0.86973 0.8215 0.0
H711 H 0.08645 0.8187 0.8168 0.0
H712 H 0.0768 0.84258 0.79531 0.0
H713 H 0.08845 0.83781 0.88718 0.0
H714 H 0.06888 0.86332 0.95281 0.0
H715 H 0.06666 0.89873 0.95784 0.0
H716 H 0.72444 0.98128 0.11775 0.0
H717 H 0.70971 0.98864 0.99321 0.0
H718 H 0.74856 0.03744 0.9648 0.0
H719 H 0.76314 0.03019 0.09175 0.0
H720 H 0.71314 0.04938 0.96382 0.0
H721 H 0.7135 0.98787 0.76403 0.0
H722 H 0.70864 0.97779 0.85772 0.0
H723 H 0.73147 0.99004 0.84024 0.0
C724 C 0.73031 0.99314 0.0836 0.0
C725 C 0.74465 1.00536 0.11454 0.0
C726 C 0.72209 0.99721 0.01156 0.0
C727 C 0.72811 0.01353 0.9687 0.0
C728 C 0.74378 0.02468 0.99636 0.0
H729 H 0.61646 0.05239 0.77806 0.0
H730 H 0.6519 0.05128 0.76124 0.0
C731 C 0.75208 0.02056 0.06882 0.0
C732 C 0.71478 0.02127 0.90835 0.0
H733 H 0.6799 1.00279 0.78896 0.0
C734 C 0.70643 0.03961 0.92226 0.0
C735 C 0.70619 0.00891 0.85232 0.0
C736 C 0.71566 0.99016 0.82732 0.0
C737 C 0.68798 0.04423 0.89315 0.0
C738 C 0.67783 0.03015 0.84946 0.0
C739 C 0.68757 0.01336 0.82433 0.0
C740 C 0.65642 0.02984 0.85125 0.0
C741 C 0.67833 0.0629 0.91833 0.0
C742 C 0.64741 0.01824 0.90763 0.0
C743 C 0.62741 0.01919 0.91883 0.0
C744 C 0.61593 0.03165 0.87325 0.0
C745 C 0.62496 0.04292 0.81513 0.0
C746 C 0.64512 0.0421 0.80451 0.0
H747 H 0.68879 0.07313 0.94568 0.0
H748 H 0.67151 0.07018 0.86765 0.0
H749 H 0.66667 0.0596 0.96088 0.0
H750 H 0.656 0.00892 0.94507 0.0
H751 H 0.62105 0.01053 0.96475 0.0
H752 H 0.49279 0.76867 0.1073 0.0
H753 H 0.4857 0.75267 0.98327 0.0
H754 H 0.53466 0.71438 0.01797 0.0
H755 H 0.54234 0.73089 0.13904 0.0
H756 H 0.52648 0.7195 0.86205 0.0
H757 H 0.45915 0.70168 0.02922 0.0
H758 H 0.46359 0.72656 0.00307 0.0
H759 H 0.47876 0.71484 0.07415 0.0
C760 C 0.50252 0.75741 0.08661 0.0
C761 C 0.51776 0.75055 0.13374 0.0
C762 C 0.49836 0.74819 0.01605 0.0
C763 C 0.50921 0.73187 0.99293 0.0
C764 C 0.52593 0.7268 0.03501 0.0
H765 H 0.52248 0.62153 0.9255 0.0
H766 H 0.52416 0.65667 0.91191 0.0
C767 C 0.53022 0.73611 0.10469 0.0
C768 C 0.50147 0.71748 0.93692 0.0
H769 H 0.46977 0.67939 0.93834 0.0
C770 C 0.51368 0.71107 0.87674 0.0
C771 C 0.48455 0.70661 0.95511 0.0
C772 C 0.47072 0.71264 0.01891 0.0
C773 C 0.51078 0.69291 0.84146 0.0
C774 C 0.49545 0.68095 0.8676 0.0
C775 C 0.48169 0.68854 0.91931 0.0
C776 C 0.49589 0.65958 0.85775 0.0
C777 C 0.52491 0.68604 0.78054 0.0
C778 C 0.47943 0.64947 0.83179 0.0
C779 C 0.4784 0.62926 0.83979 0.0
C780 C 0.49371 0.61886 0.87487 0.0
C781 C 0.5105 0.629 0.89761 0.0
C782 C 0.51156 0.64913 0.88918 0.0
H783 H 0.53062 0.69848 0.74629 0.0
H784 H 0.53743 0.67881 0.80917 0.0
H785 H 0.51793 0.67549 0.74053 0.0
H786 H 0.4671 0.6573 0.8082 0.0
H787 H 0.46546 0.62182 0.81988 0.0
H788 H 0.74631 0.48977 0.09012 0.0
H789 H 0.76191 0.47958 0.96895 0.0
H790 H 0.80734 0.52181 0.00702 0.0
H791 H 0.79096 0.53314 0.12301 0.0
H792 H 0.80436 0.515 0.85825 0.0
H793 H 0.80484 0.44303 0.00924 0.0
H794 H 0.78204 0.45262 0.97637 0.0
H795 H 0.79462 0.46407 0.05592 0.0
C796 C 0.75919 0.4974 0.0708 0.0
C797 C 0.76788 0.51173 0.11774 0.0
C798 C 0.76825 0.49136 0.00199 0.0
C799 C 0.78635 0.49919 0.98081 0.0
C800 C 0.79358 0.51521 0.02248 0.0
H801 H 0.89307 0.4704 0.00716 0.0
H802 H 0.85799 0.47241 0.99682 0.0
C803 C 0.78433 0.52154 0.08969 0.0
C804 C 0.79976 0.48914 0.92621 0.0
H805 H 0.83058 0.45025 0.92895 0.0
C806 C 0.80982 0.50058 0.87177 0.0
C807 C 0.80658 0.47006 0.94219 0.0
C808 C 0.79656 0.45668 0.9991 0.0
C809 C 0.82816 0.49495 0.84384 0.0
C810 C 0.83615 0.47705 0.86902 0.0
C811 C 0.82452 0.46417 0.91165 0.0
C812 C 0.85745 0.47378 0.87104 0.0
C813 C 0.83968 0.50913 0.79524 0.0
C814 C 0.86891 0.47342 0.80372 0.0
C815 C 0.8892 0.47273 0.80973 0.0
C816 C 0.8983 0.47224 0.88313 0.0
C817 C 0.88664 0.47135 0.94988 0.0
C818 C 0.86651 0.47224 0.9439 0.0
H819 H 0.83177 0.52303 0.78567 0.0
H820 H 0.85378 0.51244 0.82369 0.0
H821 H 0.84279 0.5026 0.73766 0.0
H822 H 0.86226 0.47416 0.74683 0.0
H823 H 0.89773 0.47332 0.75699 0.0
H824 H 0.03996 0.21143 0.07078 0.0
H825 H 0.03905 0.18108 0.99658 0.0
H826 H 0.9869 0.20035 0.88084 0.0
H827 H 0.98787 0.23096 0.95519 0.0
H828 H 0.98405 0.16317 0.955 0.0
H829 H 0.04906 0.16712 0.76595 0.0
H830 H 0.05374 0.17351 0.8654 0.0
H831 H 0.03782 0.18844 0.8079 0.0
C832 C 0.02862 0.20942 0.02786 0.0
C833 C 0.01407 0.22359 0.01825 0.0
C834 C 0.02812 0.19208 0.98541 0.0
C835 C 0.01299 0.18846 0.93267 0.0
C836 C 0.99879 0.2029 0.92082 0.0
H837 H 1.00667 0.07991 0.66354 0.0
H838 H 1.00716 0.11426 0.70085 0.0
C839 C 0.99942 0.22041 0.96279 0.0
C840 C 0.0111 0.16886 0.89655 0.0
H841 H 0.03556 0.13543 0.78656 0.0
C842 C 0.99519 0.15719 0.91736 0.0
C843 C 0.02553 0.16108 0.84689 0.0
C844 C 0.04243 0.17322 0.81949 0.0
C845 C 0.99376 0.13773 0.89269 0.0
C846 C 0.00877 0.12961 0.84673 0.0
C847 C 0.02422 0.14154 0.82283 0.0
C848 C 0.00882 0.10868 0.8242 0.0
C849 C 0.97624 0.12596 0.91632 0.0
C850 C 0.01002 0.09406 0.88107 0.0
C851 C 0.00998 0.07435 0.85998 0.0
C852 C 0.00869 0.06884 0.78148 0.0
C853 C 0.00766 0.08356 0.72461 0.0
C854 C 0.00791 0.10324 0.74575 0.0
H855 H 0.96393 0.13544 0.93405 0.0
H856 H 0.97137 0.1164 0.86811 0.0
H857 H 0.98013 0.1166 0.96646 0.0
H858 H 0.01106 0.0979 0.94193 0.0
H859 H 0.01081 0.06346 0.90529 0.0
H860 H 0.30159 0.03266 0.1051 0.0
H861 H 0.33342 0.03613 0.0431 0.0
H862 H 0.31467 0.99881 0.85619 0.0
H863 H 0.28261 0.99562 0.918 0.0
H864 H 0.35739 1.00463 0.02124 0.0
H865 H 0.34403 0.04143 0.73918 0.0
H866 H 0.3265 0.04169 0.81722 0.0
H867 H 0.32911 0.02048 0.75713 0.0
C868 C 0.30407 0.02581 0.04929 0.0
C869 C 0.2896 0.01415 0.01551 0.0
C870 C 0.32229 0.02766 0.01419 0.0
C871 C 0.32648 0.01784 0.94466 0.0
C872 C 0.31171 1.00687 0.90891 0.0
H873 H 0.43501 0.99735 0.69514 0.0
H874 H 0.40109 0.99862 0.73736 0.0
C875 C 0.29338 1.00507 0.94405 0.0
C876 C 0.34684 0.0174 0.91511 0.0
H877 H 0.37567 0.02859 0.75972 0.0
C878 C 0.36138 0.00999 0.9642 0.0
C879 C 0.35205 0.02411 0.84028 0.0
C880 C 0.33716 0.03253 0.78547 0.0
C881 C 0.38091 0.00903 0.94066 0.0
C882 C 0.38623 0.01612 0.86646 0.0
C883 C 0.37165 0.02329 0.81682 0.0
C884 C 0.40682 0.01605 0.83937 0.0
C885 C 0.39555 0.99993 0.99497 0.0
C886 C 0.42138 0.02571 0.88173 0.0
C887 C 0.44083 0.02498 0.8577 0.0
C888 C 0.44611 0.0148 0.79006 0.0
C889 C 0.43144 1.0055 0.74689 0.0
C890 C 0.41203 1.00615 0.77114 0.0
H891 H 0.38845 0.99025 0.03813 0.0
H892 H 0.40654 0.99134 0.9625 0.0
H893 H 0.40319 0.01159 0.02742 0.0
H894 H 0.41771 0.03385 0.93355 0.0
H895 H 0.4517 0.03246 0.89199 0.0
H896 H 0.47818 0.28997 0.98243 0.0
H897 H 0.47513 0.32077 0.91084 0.0
H898 H 0.53597 0.33229 0.94959 0.0
H899 H 0.53924 0.3014 0.01726 0.0
H900 H 0.47946 0.35625 0.96474 0.0
H901 H 0.53216 0.34715 0.7277 0.0
H902 H 0.52488 0.32711 0.78827 0.0
H903 H 0.54417 0.3432 0.81855 0.0
C904 C 0.49101 0.29879 0.97339 0.0
C905 C 0.50893 0.29321 0.00584 0.0
C906 C 0.48923 0.31651 0.93311 0.0
C907 C 0.50536 0.32891 0.92392 0.0
C908 C 0.52337 0.32294 0.95397 0.0
H909 H 0.50428 0.45483 0.89723 0.0
H910 H 0.50385 0.42056 0.93515 0.0
C911 C 0.52517 0.30528 0.99354 0.0
C912 C 0.50325 0.34876 0.88915 0.0
H913 H 0.52495 0.38069 0.76398 0.0
C914 C 0.48924 0.36149 0.92001 0.0
C915 C 0.51569 0.35566 0.82963 0.0
C916 C 0.5299 0.34246 0.78867 0.0
C917 C 0.48791 0.38101 0.89573 0.0
C918 C 0.50142 0.38835 0.84086 0.0
C919 C 0.51483 0.37536 0.8073 0.0
C920 C 0.50197 0.40937 0.81775 0.0
C921 C 0.47182 0.39343 0.92875 0.0
C922 C 0.50197 0.41472 0.73895 0.0
C923 C 0.50268 0.43435 0.71705 0.0
C924 C 0.50327 0.44921 0.77342 0.0
C925 C 0.50352 0.44384 0.85224 0.0
C926 C 0.5031 0.42418 0.87405 0.0
H927 H 0.45921 0.38441 0.94675 0.0
H928 H 0.47723 0.40111 0.98114 0.0
H929 H 0.46671 0.40442 0.8861 0.0
H930 H 0.50128 0.40368 0.6941 0.0
H931 H 0.50259 0.43785 0.65573 0.0
H932 H 0.22969 0.5225 0.94053 0.0
H933 H 0.19892 0.52377 0.86709 0.0
H934 H 0.17465 0.48007 0.01784 0.0
H935 H 0.20515 0.47859 0.09037 0.0
H936 H 0.17152 0.48775 0.80176 0.0
H937 H 0.1426 0.53564 0.0352 0.0
H938 H 0.16823 0.53413 0.01292 0.0
H939 H 0.15659 0.51476 0.06489 0.0
C940 C 0.21797 0.51277 0.95641 0.0
C941 C 0.2198 0.50055 0.02162 0.0
C942 C 0.20039 0.51358 0.91473 0.0
C943 C 0.18445 0.50215 0.93762 0.0
C944 C 0.18671 0.48908 0.99946 0.0
H945 H 0.06051 0.49548 0.89283 0.0
H946 H 0.09483 0.49482 0.92946 0.0
C947 C 0.20416 0.48827 0.04088 0.0
C948 C 0.16486 0.50489 0.90268 0.0
H949 H 0.11998 0.52334 0.9448 0.0
C950 C 0.16025 0.49571 0.83228 0.0
C951 C 0.15022 0.51524 0.94279 0.0
C952 C 0.15455 0.52565 0.01797 0.0
C953 C 0.14112 0.49592 0.80261 0.0
C954 C 0.12628 0.50586 0.84404 0.0
C955 C 0.13119 0.51558 0.91315 0.0
C956 C 0.10541 0.50575 0.81936 0.0
C957 C 0.13689 0.48475 0.72911 0.0
C958 C 0.09972 0.51216 0.74526 0.0
C959 C 0.08005 0.51222 0.7237 0.0
C960 C 0.06553 0.50634 0.77637 0.0
C961 C 0.07124 0.50013 0.85075 0.0
C962 C 0.09091 0.49978 0.87182 0.0
H963 H 0.1484 0.47387 0.71636 0.0
H964 H 0.12272 0.47712 0.73294 0.0
H965 H 0.13628 0.49504 0.67954 0.0
H966 H 0.11043 0.5174 0.70431 0.0
H967 H 0.07623 0.5171 0.66597 0.0
H968 H 0.04283 0.80082 0.38637 0.0
H969 H 0.03853 0.8321 0.45027 0.0
H970 H 0.97866 0.81796 0.49795 0.0
H971 H 0.98268 0.78677 0.42998 0.0
H972 H 0.98184 0.85349 0.43409 0.0
H973 H 0.03617 0.84876 0.67086 0.0
H974 H 0.04607 0.8427 0.57813 0.0
H975 H 0.02743 0.82758 0.61982 0.0
C976 C 0.02878 0.80421 0.41135 0.0
C977 C 0.01306 0.79128 0.40257 0.0
C978 C 0.0264 0.82208 0.44884 0.0
C979 C 0.00835 0.8274 0.48028 0.0
C980 C 0.99278 0.81418 0.47464 0.0
H981 H 0.99569 0.93678 0.73972 0.0
H982 H 0.99483 0.90247 0.70129 0.0
C983 C 0.99513 0.79625 0.43643 0.0
C984 C 1.00546 0.84737 0.51254 0.0
H985 H 0.02495 0.88076 0.63766 0.0
C986 C 0.99112 0.85934 0.47936 0.0
C987 C 0.01744 0.8551 0.57199 0.0
C988 C 0.03249 0.84281 0.61284 0.0
C989 C 0.98892 0.87892 0.50173 0.0
C990 C 1.00157 0.88691 0.55817 0.0
C991 C 0.0154 0.87475 0.59368 0.0
C992 C 1.00094 0.90791 0.58021 0.0
C993 C 0.97302 0.89086 0.46464 0.0
C994 C 1.00425 0.9225 0.52457 0.0
C995 C 1.0043 0.94219 0.54596 0.0
C996 C 1.00141 0.94771 0.62378 0.0
C997 C 0.9981 0.93307 0.67938 0.0
C998 C 0.99773 0.91342 0.65765 0.0
H999 H 0.96134 0.8815 0.4405 0.0
H1000 H 0.96649 0.90113 0.50703 0.0
H1001 H 0.97925 0.89945 0.41612 0.0
H1002 H 1.00711 0.91866 0.46467 0.0
H1003 H 1.00705 0.95306 0.50177 0.0
H1004 H 0.70921 0.031 0.33378 0.0
H1005 H 0.6789 0.03045 0.40746 0.0
H1006 H 0.69791 0.97866 0.52673 0.0
H1007 H 0.72843 0.9791 0.45198 0.0
H1008 H 0.66085 0.97523 0.46074 0.0
H1009 H 0.66548 0.04296 0.63317 0.0
H1010 H 0.67101 0.04669 0.53248 0.0
H1011 H 0.68654 0.03146 0.59065 0.0
C1012 C 0.7071 0.0197 0.37678 0.0
C1013 C 0.72121 1.00509 0.3871 0.0
C1014 C 0.6898 0.01946 0.41925 0.0
C1015 C 0.68613 1.00463 0.4733 0.0
C1016 C 0.70045 0.99033 0.48569 0.0
H1017 H 0.57788 0.00875 0.74427 0.0
H1018 H 0.61212 1.00704 0.70742 0.0
C1019 C 0.71793 0.99065 0.44341 0.0
C1020 C 0.66666 1.0033 0.51099 0.0
H1021 H 0.63351 0.02975 0.61477 0.0
C1022 C 0.65496 0.98704 0.49527 0.0
C1023 C 0.659 0.01855 0.55706 0.0
C1024 C 0.67122 0.03581 0.58009 0.0
C1025 C 0.63558 0.98603 0.52108 0.0
C1026 C 0.62747 1.00191 0.56247 0.0
C1027 C 0.63951 0.01772 0.58171 0.0
C1028 C 0.60651 1.00255 0.58507 0.0
C1029 C 0.62401 0.9679 0.50375 0.0
C1030 C 0.59179 1.00083 0.52873 0.0
C1031 C 0.57212 1.0017 0.54985 0.0
C1032 C 0.56669 1.00454 0.62778 0.0
C1033 C 0.58147 1.00647 0.68387 0.0
C1034 C 0.60112 1.00553 0.66281 0.0
H1035 H 0.63366 0.95512 0.49499 0.0
H1036 H 0.61366 0.96456 0.55135 0.0
H1037 H 0.61562 0.97011 0.44943 0.0
H1038 H 0.5955 0.99905 0.46805 0.0
H1039 H 0.56118 1.00036 0.50494 0.0
H1040 H 0.54763 0.71793 0.36846 0.0
H1041 H 0.54558 0.68627 0.43355 0.0
H1042 H 0.48849 0.7009 0.51825 0.0
H1043 H 0.49059 0.73282 0.45361 0.0
H1044 H 0.53384 0.67493 0.6049 0.0
H1045 H 0.48545 0.65044 0.36455 0.0
H1046 H 0.50197 0.67065 0.35321 0.0
H1047 H 0.48045 0.67344 0.41073 0.0
C1048 C 0.5349 0.71463 0.40305 0.0
C1049 C 0.51933 0.72788 0.40651 0.0
C1050 C 0.53372 0.69652 0.43996 0.0
C1051 C 0.51684 0.69117 0.48027 0.0
C1052 C 0.50165 0.70475 0.4874 0.0
H1053 H 0.49618 0.58078 0.72358 0.0
H1054 H 0.49818 0.61523 0.6894 0.0
C1055 C 0.50292 0.72302 0.45106 0.0
C1056 C 0.51456 0.67078 0.50808 0.0
H1057 H 0.49398 0.62722 0.45869 0.0
C1058 C 0.52494 0.66452 0.57369 0.0
C1059 C 0.50323 0.65717 0.46633 0.0
C1060 C 0.49215 0.66308 0.39449 0.0
C1061 C 0.52421 0.64501 0.59881 0.0
C1062 C 0.51296 0.63134 0.55664 0.0
C1063 C 0.5026 0.63766 0.49101 0.0
C1064 C 0.51207 0.61034 0.57847 0.0
C1065 C 0.53587 0.63903 0.66908 0.0
C1066 C 0.51886 0.59598 0.52701 0.0
C1067 C 0.51788 0.57619 0.54675 0.0
C1068 C 0.50996 0.5703 0.61831 0.0
C1069 C 0.50287 0.58475 0.66906 0.0
C1070 C 0.50395 0.60451 0.64949 0.0
H1071 H 0.54686 0.65016 0.68514 0.0
H1072 H 0.52593 0.63708 0.7192 0.0
H1073 H 0.54339 0.62497 0.65865 0.0
H1074 H 0.52506 0.60011 0.47159 0.0
H1075 H 0.52339 0.56554 0.50598 0.0
H1076 H 0.7987 0.54503 0.34972 0.0
H1077 H 0.82942 0.54354 0.42152 0.0
H1078 H 0.81255 0.48836 0.51928 0.0
H1079 H 0.78156 0.48993 0.44763 0.0
H1080 H 0.83912 0.53684 0.59044 0.0
H1081 H 0.86397 0.47895 0.38699 0.0
H1082 H 0.84369 0.49468 0.36472 0.0
H1083 H 0.84096 0.4756 0.4349 0.0
C1084 C 0.8013 0.53288 0.38841 0.0
C1085 C 0.7877 0.51767 0.39365 0.0
C1086 C 0.81888 0.532 0.42918 0.0
C1087 C 0.82339 0.51577 0.47521 0.0
C1088 C 0.80941 0.50099 0.48382 0.0
H1089 H 0.93273 0.50667 0.74149 0.0
H1090 H 0.89836 0.50724 0.70559 0.0
C1091 C 0.79165 0.50197 0.44353 0.0
C1092 C 0.84334 0.51373 0.50804 0.0
H1093 H 0.88654 0.49021 0.47872 0.0
C1094 C 0.84947 0.52653 0.56669 0.0
C1095 C 0.85688 0.5004 0.47637 0.0
C1096 C 0.85122 0.48665 0.41195 0.0
C1097 C 0.86882 0.52655 0.59369 0.0
C1098 C 0.88245 0.51335 0.56131 0.0
C1099 C 0.87618 0.50035 0.50352 0.0
C1100 C 0.90344 0.51325 0.58402 0.0
C1101 C 0.87462 0.5412 0.65463 0.0
C1102 C 0.91793 0.51615 0.5276 0.0
C1103 C 0.93768 0.51585 0.54789 0.0
C1104 C 0.94345 0.51249 0.62512 0.0
C1105 C 0.9289 0.50944 0.68147 0.0
C1106 C 0.90916 0.50981 0.66112 0.0
H1107 H 0.86397 0.55331 0.65892 0.0
H1108 H 0.87528 0.5339 0.71202 0.0
H1109 H 0.88918 0.54741 0.64199 0.0
H1110 H 0.91395 0.51876 0.46763 0.0
H1111 H 0.94841 0.51819 0.50288 0.0
loop_
_geom_bond_atom_site_label_1
_geom_bond_atom_site_label_2
_geom_bond_distance
_geom_bond_site_symmetry_2
_ccdc_geom_bond_type
H0 C3 0.929 . S
H1 C6 0.929 . S
H2 C8 0.930 . S
C3 H0 0.929 . S
C3 C4 1.398 . S
C3 C5 1.396 . S
C4 C3 1.398 . S
C4 C8 1.407 . S
C5 C3 1.396 . S
C5 C6 1.394 . S
C6 H1 0.929 . S
C6 C5 1.394 . S
C6 C7 1.382 . S
C7 C6 1.382 . S
C7 C8 1.392 . S
C7 N9 1.420 . S
C8 H2 0.930 . S
C8 C4 1.407 . S
C8 C7 1.392 . S
N9 C7 1.420 . S
N9 C10 1.244 . S
C10 N9 1.244 . S
H11 C14 0.929 . S
H12 C17 0.929 . S
H13 C19 0.930 . S
C14 H11 0.929 . S
C14 C15 1.398 1_655 S
C14 C16 1.396 . S
C15 C14 1.398 1_455 S
C15 C19 1.407 . S
C16 C14 1.396 . S
C16 C17 1.394 1_655 S
C17 H12 0.929 . S
C17 C16 1.394 1_455 S
C17 C18 1.382 . S
C18 C17 1.382 . S
C18 C19 1.392 . S
C18 N20 1.420 . S
C19 H13 0.930 . S
C19 C15 1.407 . S
C19 C18 1.392 . S
N20 C18 1.420 . S
N20 C21 1.219 1_455 S
C21 N20 1.219 1_655 S
H22 C25 0.929 . S
H23 C28 0.929 . S
H24 C30 0.930 . S
C25 H22 0.929 . S
C25 C26 1.399 . S
C25 C27 1.399 . S
C26 C25 1.399 . S
C26 C30 1.405 1_565 S
C27 C25 1.399 . S
C27 C28 1.390 1_565 S
C28 H23 0.929 . S
C28 C27 1.390 1_545 S
C28 C29 1.382 . S
C29 C28 1.382 . S
C29 C30 1.392 . S
C29 N31 1.420 . S
C30 H24 0.930 . S
C30 C26 1.405 1_545 S
C30 C29 1.392 . S
N31 C29 1.420 . S
N31 C32 1.244 1_545 S
C32 N31 1.244 1_565 S
H33 C36 0.929 . S
H34 C39 0.929 . S
H35 C41 0.930 . S
C36 H33 0.929 . S
C36 C37 1.398 . S
C36 C38 1.396 . S
C37 C36 1.398 . S
C37 C41 1.407 . S
C38 C36 1.396 . S
C38 C39 1.394 . S
C39 H34 0.929 . S
C39 C38 1.394 . S
C39 C40 1.382 . S
C40 C39 1.382 . S
C40 C41 1.392 . S
C40 N42 1.420 . S
C41 H35 0.930 . S
C41 C37 1.407 . S
C41 C40 1.392 . S
N42 C40 1.420 . S
N42 C43 1.244 . S
C43 N42 1.244 . S
H44 C47 0.929 . S
H45 C50 0.929 . S
H46 C52 0.930 . S
C47 H44 0.929 . S
C47 C48 1.398 1_554 S
C47 C49 1.396 . S
C48 C47 1.398 1_556 S
C48 C52 1.407 . S
C49 C47 1.396 . S
C49 C50 1.394 . S
C50 H45 0.929 . S
C50 C49 1.394 . S
C50 C51 1.382 . S
C51 C50 1.382 . S
C51 C52 1.392 1_554 S
C51 N53 1.420 . S
C52 H46 0.930 . S
C52 C48 1.407 . S
C52 C51 1.392 1_556 S
N53 C51 1.420 . S
N53 C54 1.244 . S
C54 N53 1.244 . S
H55 C58 0.929 . S
H56 C61 0.929 . S
H57 C63 0.930 . S
C58 H55 0.929 . S
C58 C59 1.398 1_654 S
C58 C60 1.396 1_655 S
C59 C58 1.398 1_456 S
C59 C63 1.407 . S
C60 C58 1.396 1_455 S
C60 C61 1.394 . S
C61 H56 0.929 . S
C61 C60 1.394 . S
C61 C62 1.382 . S
C62 C61 1.382 . S
C62 C63 1.392 1_554 S
C62 N64 1.420 . S
C63 H57 0.930 . S
C63 C59 1.407 . S
C63 C62 1.392 1_556 S
N64 C62 1.420 . S
N64 C65 1.272 . S
C65 N64 1.272 . S
H66 C69 0.935 . S
H67 C72 0.929 . S
H68 C74 0.930 . S
C69 H66 0.935 . S
C69 C70 1.396 1_564 S
C69 C71 1.394 1_565 S
C70 C69 1.396 1_546 S
C70 C74 1.407 . S
C71 C69 1.394 1_545 S
C71 C72 1.394 . S
C72 H67 0.929 . S
C72 C71 1.394 . S
C72 C73 1.382 . S
C73 C72 1.382 . S
C73 C74 1.392 1_554 S
C73 N75 1.420 . S
C74 H68 0.930 . S
C74 C70 1.407 . S
C74 C73 1.392 1_556 S
N75 C73 1.420 . S
N75 C76 1.258 . S
C76 N75 1.258 . S
H77 C80 0.929 . S
H78 C83 0.929 . S
H79 C85 0.930 . S
C80 H77 0.929 . S
C80 C81 1.398 1_554 S
C80 C82 1.396 . S
C81 C80 1.398 1_556 S
C81 C85 1.407 . S
C82 C80 1.396 . S
C82 C83 1.394 . S
C83 H78 0.929 . S
C83 C82 1.394 . S
C83 C84 1.382 . S
C84 C83 1.382 . S
C84 C85 1.392 1_554 S
C84 N86 1.420 . S
C85 H79 0.930 . S
C85 C81 1.407 . S
C85 C84 1.392 1_556 S
N86 C84 1.420 . S
N86 C87 1.244 . S
C87 N86 1.244 . S
Sm88 C90 2.846 . S
Sm88 O108 2.541 . S
Sm88 O109 2.450 . S
Sm88 O110 2.681 1_565 S
Sm88 O111 2.464 . S
Sm88 O112 2.396 . S
Sm88 O116 2.386 1_455 S
Sm88 O119 2.408 1_565 S
Sm89 C99 2.846 . S
Sm89 O110 2.386 1_655 S
Sm89 O113 2.408 1_545 S
Sm89 O114 2.525 1_655 S
Sm89 O115 2.450 . S
Sm89 O116 2.681 1_545 S
Sm89 O117 2.464 . S
Sm89 O118 2.396 . S
C90 Sm88 2.846 . S
C90 C91 1.506 . S
C90 O108 1.258 . S
C90 O109 1.242 . S
C91 C90 1.506 . S
C91 C92 1.358 . S
C91 C96 1.382 . S
C92 C91 1.358 . S
C92 C93 1.385 . S
C92 H120 0.930 1_455 S
C93 C92 1.385 . S
C93 C94 1.395 . S
C93 H121 0.929 1_455 S
C94 C93 1.395 . S
C94 C95 1.335 . S
C95 C94 1.335 . S
C95 C96 1.398 . S
C95 H122 0.930 . S
C96 C91 1.382 . S
C96 C95 1.398 . S
C96 H123 0.929 . S
C97 O110 1.257 1_565 S
C97 O111 1.277 . S
C98 O112 1.252 1_655 S
C98 O113 1.272 . S
C99 Sm89 2.846 . S
C99 C100 1.506 . S
C99 O114 1.219 1_655 S
C99 O115 1.242 . S
C100 C99 1.506 . S
C100 C101 1.358 . S
C100 C105 1.382 . S
C101 C100 1.358 . S
C101 C102 1.385 . S
C101 H124 0.930 1_655 S
C102 C101 1.385 . S
C102 C103 1.395 . S
C102 H125 0.929 1_655 S
C103 C102 1.395 . S
C103 C104 1.335 . S
C104 C103 1.335 . S
C104 C105 1.398 . S
C104 H126 0.930 . S
C105 C100 1.382 . S
C105 C104 1.398 . S
C105 H127 0.929 . S
C106 O116 1.271 1_545 S
C106 O117 1.251 . S
C107 O118 1.252 1_455 S
C107 O119 1.272 . S
O108 Sm88 2.541 . S
O108 C90 1.258 . S
O109 Sm88 2.450 . S
O109 C90 1.242 . S
O110 Sm88 2.681 1_545 S
O110 Sm89 2.386 1_455 S
O110 C97 1.257 1_545 S
O111 Sm88 2.464 . S
O111 C97 1.277 . S
O112 Sm88 2.396 . S
O112 C98 1.252 1_455 S
O113 Sm89 2.408 1_565 S
O113 C98 1.272 . S
O114 Sm89 2.525 1_455 S
O114 C99 1.219 1_455 S
O115 Sm89 2.450 . S
O115 C99 1.242 . S
O116 Sm88 2.386 1_655 S
O116 Sm89 2.681 1_565 S
O116 C106 1.271 1_565 S
O117 Sm89 2.464 . S
O117 C106 1.251 . S
O118 Sm89 2.396 . S
O118 C107 1.252 1_655 S
O119 Sm88 2.408 1_545 S
O119 C107 1.272 . S
H120 C92 0.930 1_655 S
H121 C93 0.929 1_655 S
H122 C95 0.930 . S
H123 C96 0.929 . S
H124 C101 0.930 1_455 S
H125 C102 0.929 1_455 S
H126 C104 0.930 . S
H127 C105 0.929 . S
Sm128 C130 2.846 . S
Sm128 O148 2.538 1_545 S
Sm128 O149 2.450 . S
Sm128 O150 2.681 . S
Sm128 O151 2.464 . S
Sm128 O152 2.396 . S
Sm128 O156 2.386 1_545 S
Sm128 O159 2.408 . S
Sm129 C139 2.846 . S
Sm129 O150 2.386 1_565 S
Sm129 O153 2.408 . S
Sm129 O154 2.533 1_565 S
Sm129 O155 2.450 . S
Sm129 O156 2.681 . S
Sm129 O157 2.464 . S
Sm129 O158 2.396 . S
C130 Sm128 2.846 . S
C130 C131 1.506 . S
C130 O148 1.251 1_545 S
C130 O149 1.242 . S
C131 C130 1.506 . S
C131 C132 1.358 . S
C131 C136 1.382 . S
C132 C131 1.358 . S
C132 C133 1.385 . S
C132 H160 0.930 1_545 S
C133 C132 1.385 . S
C133 C134 1.395 . S
C133 H161 0.929 1_545 S
C134 C133 1.395 . S
C134 C135 1.335 . S
C135 C134 1.335 . S
C135 C136 1.398 . S
C135 H162 0.930 . S
C136 C131 1.382 . S
C136 C135 1.398 . S
C136 H163 0.929 . S
C137 O150 1.271 . S
C137 O151 1.251 . S
C138 O152 1.252 1_565 S
C138 O153 1.272 . S
C139 Sm129 2.846 . S
C139 C140 1.506 . S
C139 O154 1.239 1_565 S
C139 O155 1.242 . S
C140 C139 1.506 . S
C140 C141 1.358 . S
C140 C145 1.382 . S
C141 C140 1.358 . S
C141 C142 1.385 . S
C141 H164 0.930 1_565 S
C142 C141 1.385 . S
C142 C143 1.395 . S
C142 H165 0.929 1_565 S
C143 C142 1.395 . S
C143 C144 1.335 . S
C144 C143 1.335 . S
C144 C145 1.398 . S
C144 H166 0.930 . S
C145 C140 1.382 . S
C145 C144 1.398 . S
C145 H167 0.929 . S
C146 O156 1.271 . S
C146 O157 1.251 . S
C147 O158 1.252 1_545 S
C147 O159 1.272 . S
O148 Sm128 2.538 1_565 S
O148 C130 1.251 1_565 S
O149 Sm128 2.450 . S
O149 C130 1.242 . S
O150 Sm128 2.681 . S
O150 Sm129 2.386 1_545 S
O150 C137 1.271 . S
O151 Sm128 2.464 . S
O151 C137 1.251 . S
O152 Sm128 2.396 . S
O152 C138 1.252 1_545 S
O153 Sm129 2.408 . S
O153 C138 1.272 . S
O154 Sm129 2.533 1_545 S
O154 C139 1.239 1_545 S
O155 Sm129 2.450 . S
O155 C139 1.242 . S
O156 Sm128 2.386 1_565 S
O156 Sm129 2.681 . S
O156 C146 1.271 . S
O157 Sm129 2.464 . S
O157 C146 1.251 . S
O158 Sm129 2.396 . S
O158 C147 1.252 1_565 S
O159 Sm128 2.408 . S
O159 C147 1.272 . S
H160 C132 0.930 1_565 S
H161 C133 0.929 1_565 S
H162 C135 0.930 . S
H163 C136 0.929 . S
H164 C141 0.930 1_545 S
H165 C142 0.929 1_545 S
H166 C144 0.930 . S
H167 C145 0.929 . S
Sm168 C170 2.846 . S
Sm168 O188 2.543 . S
Sm168 O189 2.450 . S
Sm168 O190 2.681 . S
Sm168 O191 2.464 . S
Sm168 O192 2.396 . S
Sm168 O196 2.386 . S
Sm168 O199 2.408 . S
Sm169 C179 2.846 . S
Sm169 O190 2.386 . S
Sm169 O193 2.408 . S
Sm169 O194 2.543 . S
Sm169 O195 2.450 . S
Sm169 O196 2.681 . S
Sm169 O197 2.464 . S
Sm169 O198 2.396 . S
C170 Sm168 2.846 . S
C170 C171 1.506 . S
C170 O188 1.261 . S
C170 O189 1.242 . S
C171 C170 1.506 . S
C171 C172 1.358 . S
C171 C176 1.382 . S
C172 C171 1.358 . S
C172 C173 1.385 . S
C172 H200 0.930 . S
C173 C172 1.385 . S
C173 C174 1.395 . S
C173 H201 0.929 . S
C174 C173 1.395 . S
C174 C175 1.335 . S
C175 C174 1.335 . S
C175 C176 1.398 . S
C175 H202 0.930 . S
C176 C171 1.382 . S
C176 C175 1.398 . S
C176 H203 0.929 . S
C177 O190 1.271 . S
C177 O191 1.251 . S
C178 O192 1.252 . S
C178 O193 1.272 . S
C179 Sm169 2.846 . S
C179 C180 1.506 . S
C179 O194 1.261 . S
C179 O195 1.242 . S
C180 C179 1.506 . S
C180 C181 1.358 . S
C180 C185 1.382 . S
C181 C180 1.358 . S
C181 C182 1.385 . S
C181 H204 0.930 . S
C182 C181 1.385 . S
C182 C183 1.395 . S
C182 H205 0.929 . S
C183 C182 1.395 . S
C183 C184 1.335 . S
C184 C183 1.335 . S
C184 C185 1.398 . S
C184 H206 0.930 . S
C185 C180 1.382 . S
C185 C184 1.398 . S
C185 H207 0.929 . S
C186 O196 1.271 . S
C186 O197 1.251 . S
C187 O198 1.252 . S
C187 O199 1.272 . S
O188 Sm168 2.543 . S
O188 C170 1.261 . S
O189 Sm168 2.450 . S
O189 C170 1.242 . S
O190 Sm168 2.681 . S
O190 Sm169 2.386 . S
O190 C177 1.271 . S
O191 Sm168 2.464 . S
O191 C177 1.251 . S
O192 Sm168 2.396 . S
O192 C178 1.252 . S
O193 Sm169 2.408 . S
O193 C178 1.272 . S
O194 Sm169 2.543 . S
O194 C179 1.261 . S
O195 Sm169 2.450 . S
O195 C179 1.242 . S
O196 Sm168 2.386 . S
O196 Sm169 2.681 . S
O196 C186 1.271 . S
O197 Sm169 2.464 . S
O197 C186 1.251 . S
O198 Sm169 2.396 . S
O198 C187 1.252 . S
O199 Sm168 2.408 . S
O199 C187 1.272 . S
H200 C172 0.930 . S
H201 C173 0.929 . S
H202 C175 0.930 . S
H203 C176 0.929 . S
H204 C181 0.930 . S
H205 C182 0.929 . S
H206 C184 0.930 . S
H207 C185 0.929 . S
Sm208 C210 2.846 . S
Sm208 O228 2.543 . S
Sm208 O229 2.450 . S
Sm208 O230 2.681 1_655 S
Sm208 O231 2.464 . S
Sm208 O232 2.396 . S
Sm208 O236 2.386 . S
Sm208 O239 2.408 1_655 S
Sm209 C219 2.846 . S
Sm209 O230 2.386 . S
Sm209 O233 2.408 1_455 S
Sm209 O234 2.543 . S
Sm209 O235 2.450 . S
Sm209 O236 2.681 1_455 S
Sm209 O237 2.464 . S
Sm209 O238 2.396 . S
C210 Sm208 2.846 . S
C210 C211 1.506 . S
C210 O228 1.261 . S
C210 O229 1.242 . S
C211 C210 1.506 . S
C211 C212 1.358 . S
C211 C216 1.382 . S
C212 C211 1.358 . S
C212 C213 1.385 . S
C212 H240 0.930 . S
C213 C212 1.385 . S
C213 C214 1.395 . S
C213 H241 0.929 . S
C214 C213 1.395 . S
C214 C215 1.335 . S
C215 C214 1.335 . S
C215 C216 1.398 . S
C215 H242 0.930 . S
C216 C211 1.382 . S
C216 C215 1.398 . S
C216 H243 0.929 . S
C217 O230 1.263 1_655 S
C217 O231 1.265 . S
C218 O232 1.252 . S
C218 O233 1.272 . S
C219 Sm209 2.846 . S
C219 C220 1.506 . S
C219 O234 1.261 . S
C219 O235 1.242 . S
C220 C219 1.506 . S
C220 C221 1.358 . S
C220 C225 1.382 . S
C221 C220 1.358 . S
C221 C222 1.385 . S
C221 H244 0.930 . S
C222 C221 1.385 . S
C222 C223 1.395 . S
C222 H245 0.929 . S
C223 C222 1.395 . S
C223 C224 1.335 . S
C224 C223 1.335 . S
C224 C225 1.398 . S
C224 H246 0.930 . S
C225 C220 1.382 . S
C225 C224 1.398 . S
C225 H247 0.929 . S
C226 O236 1.271 1_455 S
C226 O237 1.251 . S
C227 O238 1.252 . S
C227 O239 1.272 . S
O228 Sm208 2.543 . S
O228 C210 1.261 . S
O229 Sm208 2.450 . S
O229 C210 1.242 . S
O230 Sm208 2.681 1_455 S
O230 Sm209 2.386 . S
O230 C217 1.263 1_455 S
O231 Sm208 2.464 . S
O231 C217 1.265 . S
O232 Sm208 2.396 . S
O232 C218 1.252 . S
O233 Sm209 2.408 1_655 S
O233 C218 1.272 . S
O234 Sm209 2.543 . S
O234 C219 1.261 . S
O235 Sm209 2.450 . S
O235 C219 1.242 . S
O236 Sm208 2.386 . S
O236 Sm209 2.681 1_655 S
O236 C226 1.271 1_655 S
O237 Sm209 2.464 . S
O237 C226 1.251 . S
O238 Sm209 2.396 . S
O238 C227 1.252 . S
O239 Sm208 2.408 1_455 S
O239 C227 1.272 . S
H240 C212 0.930 . S
H241 C213 0.929 . S
H242 C215 0.930 . S
H243 C216 0.929 . S
H244 C221 0.930 . S
H245 C222 0.929 . S
H246 C224 0.930 . S
H247 C225 0.929 . S
H248 C256 0.929 . S
H249 C258 0.930 . S
H250 C260 0.930 . S
H251 C263 0.929 . S
H252 C266 0.930 . S
H253 C268 0.960 . S
H254 C268 0.960 1_565 S
H255 C268 0.960 . S
C256 H248 0.929 . S
C256 C257 1.344 1_565 S
C256 C258 1.384 . S
C257 C256 1.344 1_545 S
C257 C263 1.423 . S
C258 H249 0.930 . S
C258 C256 1.384 . S
C258 C259 1.369 . S
C259 C258 1.369 . S
C259 C260 1.403 1_565 S
C259 C264 1.490 . S
C260 H250 0.930 . S
C260 C259 1.403 1_545 S
C260 C263 1.386 . S
H261 C277 0.930 . S
H262 C278 0.931 . S
C263 H251 0.929 . S
C263 C257 1.423 . S
C263 C260 1.386 . S
C264 C259 1.490 . S
C264 C266 1.395 . S
C264 C267 1.402 1_565 S
H265 C271 0.930 . S
C266 H252 0.930 . S
C266 C264 1.395 . S
C266 C269 1.403 . S
C267 C264 1.402 1_545 S
C267 C268 1.524 . S
C267 C271 1.400 . S
C268 H253 0.960 . S
C268 H254 0.960 1_545 S
C268 H255 0.960 . S
C268 C267 1.524 . S
C269 C266 1.403 . S
C269 C270 1.392 . S
C269 C273 1.495 . S
C270 C269 1.392 . S
C270 C271 1.385 1_565 S
C270 C272 1.477 1_565 S
C271 H265 0.930 . S
C271 C267 1.400 . S
C271 C270 1.385 1_545 S
C272 C270 1.477 1_545 S
C272 C274 1.363 1_545 S
C272 C278 1.401 . S
C273 C269 1.495 . S
C273 H279 0.959 . S
C273 H280 0.961 1_565 S
C273 H281 0.960 . S
C274 C272 1.363 1_565 S
C274 C275 1.394 . S
C274 H282 0.930 . S
C275 C274 1.394 . S
C275 C276 1.383 1_565 S
C275 H283 0.929 . S
C276 C275 1.383 1_545 S
C276 C277 1.377 . S
C277 H261 0.930 . S
C277 C276 1.377 . S
C277 C278 1.379 . S
C278 H262 0.931 . S
C278 C272 1.401 . S
C278 C277 1.379 . S
H279 C273 0.959 . S
H280 C273 0.961 1_545 S
H281 C273 0.960 . S
H282 C274 0.930 . S
H283 C275 0.929 . S
H284 C292 0.929 . S
H285 C294 0.930 . S
H286 C296 0.930 . S
H287 C299 0.929 . S
H288 C302 0.930 . S
H289 C304 0.960 . S
H290 C304 0.960 . S
H291 C304 0.960 . S
C292 H284 0.929 . S
C292 C293 1.377 . S
C292 C294 1.384 . S
C293 C292 1.377 . S
C293 C299 1.390 . S
C294 H285 0.930 . S
C294 C292 1.384 . S
C294 C295 1.372 . S
C295 C294 1.372 . S
C295 C296 1.400 . S
C295 C300 1.490 . S
C296 H286 0.930 . S
C296 C295 1.400 . S
C296 C299 1.386 . S
H297 C313 0.930 . S
H298 C314 0.931 . S
C299 H287 0.929 . S
C299 C293 1.390 . S
C299 C296 1.386 . S
C300 C295 1.490 . S
C300 C302 1.395 . S
C300 C303 1.403 . S
H301 C307 0.930 . S
C302 H288 0.930 . S
C302 C300 1.395 . S
C302 C305 1.403 . S
C303 C300 1.403 . S
C303 C304 1.524 . S
C303 C307 1.400 . S
C304 H289 0.960 . S
C304 H290 0.960 . S
C304 H291 0.960 . S
C304 C303 1.524 . S
C305 C302 1.403 . S
C305 C306 1.392 . S
C305 C309 1.495 . S
C306 C305 1.392 . S
C306 C307 1.385 . S
C306 C308 1.478 . S
C307 H301 0.930 . S
C307 C303 1.400 . S
C307 C306 1.385 . S
C308 C306 1.478 . S
C308 C310 1.381 . S
C308 C314 1.383 . S
C309 C305 1.495 . S
C309 H315 0.959 . S
C309 H316 0.961 . S
C309 H317 0.960 . S
C310 C308 1.381 . S
C310 C311 1.394 . S
C310 H318 0.930 . S
C311 C310 1.394 . S
C311 C312 1.383 . S
C311 H319 0.929 . S
C312 C311 1.383 . S
C312 C313 1.377 . S
C313 H297 0.930 . S
C313 C312 1.377 . S
C313 C314 1.379 . S
C314 H298 0.931 . S
C314 C308 1.383 . S
C314 C313 1.379 . S
H315 C309 0.959 . S
H316 C309 0.961 . S
H317 C309 0.960 . S
H318 C310 0.930 . S
H319 C311 0.929 . S
H320 C328 0.929 . S
H321 C330 0.930 . S
H322 C332 0.930 . S
H323 C335 0.929 . S
H324 C338 0.930 . S
H325 C340 0.960 . S
H326 C340 0.960 . S
H327 C340 0.960 . S
C328 H320 0.929 . S
C328 C329 1.377 . S
C328 C330 1.384 . S
C329 C328 1.377 . S
C329 C335 1.390 . S
C330 H321 0.930 . S
C330 C328 1.384 . S
C330 C331 1.372 . S
C331 C330 1.372 . S
C331 C332 1.400 . S
C331 C336 1.490 . S
C332 H322 0.930 . S
C332 C331 1.400 . S
C332 C335 1.386 . S
H333 C349 0.930 . S
H334 C350 0.931 . S
C335 H323 0.929 . S
C335 C329 1.390 . S
C335 C332 1.386 . S
C336 C331 1.490 . S
C336 C338 1.395 . S
C336 C339 1.403 . S
H337 C343 0.930 . S
C338 H324 0.930 . S
C338 C336 1.395 . S
C338 C341 1.403 . S
C339 C336 1.403 . S
C339 C340 1.524 . S
C339 C343 1.400 . S
C340 H325 0.960 . S
C340 H326 0.960 . S
C340 H327 0.960 . S
C340 C339 1.524 . S
C341 C338 1.403 . S
C341 C342 1.392 . S
C341 C345 1.495 . S
C342 C341 1.392 . S
C342 C343 1.385 . S
C342 C344 1.478 . S
C343 H337 0.930 . S
C343 C339 1.400 . S
C343 C342 1.385 . S
C344 C342 1.478 . S
C344 C346 1.381 . S
C344 C350 1.383 . S
C345 C341 1.495 . S
C345 H351 0.959 . S
C345 H352 0.961 . S
C345 H353 0.960 . S
C346 C344 1.381 . S
C346 C347 1.394 . S
C346 H354 0.930 . S
C347 C346 1.394 . S
C347 C348 1.383 . S
C347 H355 0.929 . S
C348 C347 1.383 . S
C348 C349 1.377 . S
C349 H333 0.930 . S
C349 C348 1.377 . S
C349 C350 1.379 . S
C350 H334 0.931 . S
C350 C344 1.383 . S
C350 C349 1.379 . S
H351 C345 0.959 . S
H352 C345 0.961 . S
H353 C345 0.960 . S
H354 C346 0.930 . S
H355 C347 0.929 . S
H356 C364 0.929 . S
H357 C366 0.930 . S
H358 C368 0.930 . S
H359 C371 0.929 . S
H360 C374 0.930 . S
H361 C376 0.960 . S
H362 C376 0.960 . S
H363 C376 0.960 . S
C364 H356 0.929 . S
C364 C365 1.377 . S
C364 C366 1.384 . S
C365 C364 1.377 . S
C365 C371 1.390 1_455 S
C366 H357 0.930 . S
C366 C364 1.384 . S
C366 C367 1.372 . S
C367 C366 1.372 . S
C367 C368 1.400 1_455 S
C367 C372 1.490 . S
C368 H358 0.930 . S
C368 C367 1.400 1_655 S
C368 C371 1.386 . S
H369 C385 0.930 . S
H370 C386 0.931 . S
C371 H359 0.929 . S
C371 C365 1.390 1_655 S
C371 C368 1.386 . S
C372 C367 1.490 . S
C372 C374 1.395 1_455 S
C372 C375 1.403 . S
H373 C379 0.930 . S
C374 H360 0.930 . S
C374 C372 1.395 1_655 S
C374 C377 1.403 . S
C375 C372 1.403 . S
C375 C376 1.524 . S
C375 C379 1.400 . S
C376 H361 0.960 . S
C376 H362 0.960 . S
C376 H363 0.960 . S
C376 C375 1.524 . S
C377 C374 1.403 . S
C377 C378 1.382 1_655 S
C377 C381 1.495 . S
C378 C377 1.382 1_455 S
C378 C379 1.397 . S
C378 C380 1.477 . S
C379 H373 0.930 . S
C379 C375 1.400 . S
C379 C378 1.397 . S
C380 C378 1.477 . S
C380 C382 1.382 . S
C380 C386 1.381 1_455 S
C381 C377 1.495 . S
C381 H387 0.959 . S
C381 H388 0.961 . S
C381 H389 0.960 . S
C382 C380 1.382 . S
C382 C383 1.394 . S
C382 H390 0.930 . S
C383 C382 1.394 . S
C383 C384 1.420 . S
C383 H391 0.929 . S
C384 C383 1.420 . S
C384 C385 1.340 1_455 S
C385 H369 0.930 . S
C385 C384 1.340 1_655 S
C385 C386 1.379 . S
C386 H370 0.931 . S
C386 C380 1.381 1_655 S
C386 C385 1.379 . S
H387 C381 0.959 . S
H388 C381 0.961 . S
H389 C381 0.960 . S
H390 C382 0.930 . S
H391 C383 0.929 . S
H392 C400 0.929 . S
H393 C402 0.930 . S
H394 C404 0.930 . S
H395 C407 0.929 . S
H396 C410 0.930 . S
H397 C412 0.960 1_556 S
H398 C412 0.960 . S
H399 C412 0.960 . S
C400 H392 0.929 . S
C400 C401 1.345 1_545 S
C400 C402 1.384 . S
C401 C400 1.345 1_565 S
C401 C407 1.422 . S
C402 H393 0.930 . S
C402 C400 1.384 . S
C402 C403 1.376 . S
C403 C402 1.376 . S
C403 C404 1.396 1_545 S
C403 C408 1.490 . S
C404 H394 0.930 . S
C404 C403 1.396 1_565 S
C404 C407 1.386 . S
H405 C421 0.930 . S
H406 C422 0.931 . S
C407 H395 0.929 . S
C407 C401 1.422 . S
C407 C404 1.386 . S
C408 C403 1.490 . S
C408 C410 1.408 . S
C408 C411 1.391 1_545 S
H409 C415 0.930 . S
C410 H396 0.930 . S
C410 C408 1.408 . S
C410 C413 1.403 . S
C411 C408 1.391 1_565 S
C411 C412 1.524 . S
C411 C415 1.400 1_554 S
C412 H397 0.960 1_554 S
C412 H398 0.960 . S
C412 H399 0.960 . S
C412 C411 1.524 . S
C413 C410 1.403 . S
C413 C414 1.392 . S
C413 C417 1.495 . S
C414 C413 1.392 . S
C414 C415 1.385 1_544 S
C414 C416 1.478 1_554 S
C415 H409 0.930 . S
C415 C411 1.400 1_556 S
C415 C414 1.385 1_566 S
C416 C414 1.478 1_556 S
C416 C418 1.381 . S
C416 C422 1.383 1_545 S
C417 C413 1.495 . S
C417 H423 0.959 . S
C417 H424 0.961 . S
C417 H425 0.960 . S
C418 C416 1.381 . S
C418 C419 1.394 . S
C418 H426 0.930 . S
C419 C418 1.394 . S
C419 C420 1.361 1_545 S
C419 H427 0.929 . S
C420 C419 1.361 1_565 S
C420 C421 1.398 . S
C421 H405 0.930 . S
C421 C420 1.398 . S
C421 C422 1.379 . S
C422 H406 0.931 . S
C422 C416 1.383 1_565 S
C422 C421 1.379 . S
H423 C417 0.959 . S
H424 C417 0.961 . S
H425 C417 0.960 . S
H426 C418 0.930 . S
H427 C419 0.929 . S
H428 C436 0.929 . S
H429 C438 0.930 . S
H430 C440 0.930 . S
H431 C443 0.929 . S
H432 C446 0.930 . S
H433 C448 0.959 . S
H434 C448 0.961 1_554 S
H435 C448 0.960 1_554 S
C436 H428 0.929 . S
C436 C437 1.377 . S
C436 C438 1.384 . S
C437 C436 1.377 . S
C437 C443 1.390 . S
C438 H429 0.930 . S
C438 C436 1.384 . S
C438 C439 1.372 . S
C439 C438 1.372 . S
C439 C440 1.400 . S
C439 C444 1.490 . S
C440 H430 0.930 . S
C440 C439 1.400 . S
C440 C443 1.386 . S
H441 C457 0.930 . S
H442 C458 0.931 . S
C443 H431 0.929 . S
C443 C437 1.390 . S
C443 C440 1.386 . S
C444 C439 1.490 . S
C444 C446 1.395 . S
C444 C447 1.403 . S
H445 C451 0.930 . S
C446 H432 0.930 . S
C446 C444 1.395 . S
C446 C449 1.403 . S
C447 C444 1.403 . S
C447 C448 1.524 1_554 S
C447 C451 1.400 1_554 S
C448 H433 0.959 . S
C448 H434 0.961 1_556 S
C448 H435 0.960 1_556 S
C448 C447 1.524 1_556 S
C449 C446 1.403 . S
C449 C450 1.392 . S
C449 C453 1.495 . S
C450 C449 1.392 . S
C450 C451 1.385 1_554 S
C450 C452 1.478 1_554 S
C451 H445 0.930 . S
C451 C447 1.400 1_556 S
C451 C450 1.385 1_556 S
C452 C450 1.478 1_556 S
C452 C454 1.381 . S
C452 C458 1.383 . S
C453 C449 1.495 . S
C453 H459 0.959 . S
C453 H460 0.961 . S
C453 H461 0.960 . S
C454 C452 1.381 . S
C454 C455 1.394 . S
C454 H462 0.930 . S
C455 C454 1.394 . S
C455 C456 1.383 . S
C455 H463 0.929 . S
C456 C455 1.383 . S
C456 C457 1.377 . S
C457 H441 0.930 . S
C457 C456 1.377 . S
C457 C458 1.379 . S
C458 H442 0.931 . S
C458 C452 1.383 . S
C458 C457 1.379 . S
H459 C453 0.959 . S
H460 C453 0.961 . S
H461 C453 0.960 . S
H462 C454 0.930 . S
H463 C455 0.929 . S
H464 C472 0.929 . S
H465 C474 0.930 . S
H466 C476 0.930 . S
H467 C479 0.929 . S
H468 C482 0.930 . S
H469 C484 0.960 . S
H470 C484 0.960 . S
H471 C484 0.960 . S
C472 H464 0.929 . S
C472 C473 1.377 . S
C472 C474 1.384 . S
C473 C472 1.377 . S
C473 C479 1.390 . S
C474 H465 0.930 . S
C474 C472 1.384 . S
C474 C475 1.372 . S
C475 C474 1.372 . S
C475 C476 1.400 . S
C475 C480 1.490 . S
C476 H466 0.930 . S
C476 C475 1.400 . S
C476 C479 1.386 . S
H477 C493 0.930 . S
H478 C494 0.935 . S
C479 H467 0.929 . S
C479 C473 1.390 . S
C479 C476 1.386 . S
C480 C475 1.490 . S
C480 C482 1.395 . S
C480 C483 1.403 . S
H481 C487 0.930 1_556 S
C482 H468 0.930 . S
C482 C480 1.395 . S
C482 C485 1.403 . S
C483 C480 1.403 . S
C483 C484 1.524 . S
C483 C487 1.400 . S
C484 H469 0.960 . S
C484 H470 0.960 . S
C484 H471 0.960 . S
C484 C483 1.524 . S
C485 C482 1.403 . S
C485 C486 1.392 1_554 S
C485 C489 1.495 . S
C486 C485 1.392 1_556 S
C486 C487 1.385 1_556 S
C486 C488 1.478 . S
C487 H481 0.930 1_554 S
C487 C483 1.400 . S
C487 C486 1.385 1_554 S
C488 C486 1.478 . S
C488 C490 1.381 . S
C488 C494 1.383 . S
C489 C485 1.495 . S
C489 H495 0.959 . S
C489 H496 0.961 . S
C489 H497 0.960 1_554 S
C490 C488 1.381 . S
C490 C491 1.394 . S
C490 H498 0.930 . S
C491 C490 1.394 . S
C491 C492 1.383 . S
C491 H499 0.929 . S
C492 C491 1.383 . S
C492 C493 1.377 . S
C493 H477 0.930 . S
C493 C492 1.377 . S
C493 C494 1.379 . S
C494 H478 0.935 . S
C494 C488 1.383 . S
C494 C493 1.379 . S
H495 C489 0.959 . S
H496 C489 0.961 . S
H497 C489 0.960 1_556 S
H498 C490 0.930 . S
H499 C491 0.929 . S
H500 C508 0.929 . S
H501 C510 0.930 . S
H502 C512 0.930 . S
H503 C515 0.929 . S
H504 C518 0.930 . S
H505 C520 0.960 . S
H506 C520 0.960 1_554 S
H507 C520 0.960 1_654 S
C508 H500 0.929 . S
C508 C509 1.369 1_455 S
C508 C510 1.384 . S
C509 C508 1.369 1_655 S
C509 C515 1.398 . S
C510 H501 0.930 . S
C510 C508 1.384 . S
C510 C511 1.387 . S
C511 C510 1.387 . S
C511 C512 1.384 1_455 S
C511 C516 1.490 . S
C512 H502 0.930 . S
C512 C511 1.384 1_655 S
C512 C515 1.386 . S
H513 C529 0.930 . S
H514 C530 0.931 . S
C515 H503 0.929 . S
C515 C509 1.398 . S
C515 C512 1.386 . S
C516 C511 1.490 . S
C516 C518 1.394 . S
C516 C519 1.402 . S
H517 C523 0.930 . S
C518 H504 0.930 . S
C518 C516 1.394 . S
C518 C521 1.403 1_455 S
C519 C516 1.402 . S
C519 C520 1.527 1_554 S
C519 C523 1.399 1_554 S
C520 H505 0.960 . S
C520 H506 0.960 1_556 S
C520 H507 0.960 1_456 S
C520 C519 1.527 1_556 S
C521 C518 1.403 1_655 S
C521 C522 1.392 . S
C521 C525 1.494 . S
C522 C521 1.392 . S
C522 C523 1.385 1_654 S
C522 C524 1.477 1_554 S
C523 H517 0.930 . S
C523 C519 1.399 1_556 S
C523 C522 1.385 1_456 S
C524 C522 1.477 1_556 S
C524 C526 1.345 1_655 S
C524 C530 1.420 . S
C525 C521 1.494 . S
C525 H531 0.959 . S
C525 H532 1.013 . S
C525 H533 0.911 1_655 S
C526 C524 1.345 1_455 S
C526 C527 1.394 . S
C526 H534 0.930 . S
C527 C526 1.394 . S
C527 C528 1.335 1_455 S
C527 H535 0.929 . S
C528 C527 1.335 1_655 S
C528 C529 1.425 . S
C529 H513 0.930 . S
C529 C528 1.425 . S
C529 C530 1.379 . S
C530 H514 0.931 . S
C530 C524 1.420 . S
C530 C529 1.379 . S
H531 C525 0.959 . S
H532 C525 1.013 . S
H533 C525 0.911 1_455 S
H534 C526 0.930 . S
H535 C527 0.929 . S
H536 C544 0.929 . S
H537 C546 0.930 . S
H538 C548 0.930 . S
H539 C551 0.929 . S
H540 C554 0.930 . S
H541 C556 0.960 . S
H542 C556 0.960 . S
H543 C556 0.960 . S
C544 H536 0.929 . S
C544 C545 1.377 1_655 S
C544 C546 1.384 . S
C545 C544 1.377 1_455 S
C545 C551 1.390 . S
C546 H537 0.930 . S
C546 C544 1.384 . S
C546 C547 1.372 . S
C547 C546 1.372 . S
C547 C548 1.400 1_655 S
C547 C552 1.490 . S
C548 H538 0.930 . S
C548 C547 1.400 1_455 S
C548 C551 1.386 . S
H549 C565 0.930 . S
H550 C566 0.931 . S
C551 H539 0.929 . S
C551 C545 1.390 . S
C551 C548 1.386 . S
C552 C547 1.490 . S
C552 C554 1.395 . S
C552 C555 1.403 1_655 S
H553 C559 0.930 1_455 S
C554 H540 0.930 . S
C554 C552 1.395 . S
C554 C557 1.403 . S
C555 C552 1.403 1_455 S
C555 C556 1.524 . S
C555 C559 1.400 1_455 S
C556 H541 0.960 . S
C556 H542 0.960 . S
C556 H543 0.960 . S
C556 C555 1.524 . S
C557 C554 1.403 . S
C557 C558 1.392 . S
C557 C561 1.495 . S
C558 C557 1.392 . S
C558 C559 1.385 . S
C558 C560 1.478 . S
C559 H553 0.930 1_655 S
C559 C555 1.400 1_655 S
C559 C558 1.385 . S
C560 C558 1.478 . S
C560 C562 1.381 . S
C560 C566 1.383 . S
C561 C557 1.495 . S
C561 H567 0.959 . S
C561 H568 0.961 . S
C561 H569 0.960 . S
C562 C560 1.381 . S
C562 C563 1.394 . S
C562 H570 0.930 . S
C563 C562 1.394 . S
C563 C564 1.383 . S
C563 H571 0.929 . S
C564 C563 1.383 . S
C564 C565 1.377 . S
C565 H549 0.930 . S
C565 C564 1.377 . S
C565 C566 1.379 . S
C566 H550 0.931 . S
C566 C560 1.383 . S
C566 C565 1.379 . S
H567 C561 0.959 . S
H568 C561 0.961 . S
H569 C561 0.960 . S
H570 C562 0.930 . S
H571 C563 0.929 . S
H572 C580 0.929 . S
H573 C582 0.930 . S
H574 C584 0.930 . S
H575 C587 0.929 . S
H576 C590 0.930 . S
H577 C592 0.960 . S
H578 C592 0.960 . S
H579 C592 0.960 . S
C580 H572 0.929 . S
C580 C581 1.377 1_565 S
C580 C582 1.384 . S
C581 C580 1.377 1_545 S
C581 C587 1.390 . S
C582 H573 0.930 . S
C582 C580 1.384 . S
C582 C583 1.372 . S
C583 C582 1.372 . S
C583 C584 1.400 1_565 S
C583 C588 1.490 . S
C584 H574 0.930 . S
C584 C583 1.400 1_545 S
C584 C587 1.386 . S
H585 C601 0.930 . S
H586 C602 0.931 1_545 S
C587 H575 0.929 . S
C587 C581 1.390 . S
C587 C584 1.386 . S
C588 C583 1.490 . S
C588 C590 1.395 . S
C588 C591 1.403 . S
H589 C595 0.930 . S
C590 H576 0.930 . S
C590 C588 1.395 . S
C590 C593 1.403 . S
C591 C588 1.403 . S
C591 C592 1.524 . S
C591 C595 1.400 . S
C592 H577 0.960 . S
C592 H578 0.960 . S
C592 H579 0.960 . S
C592 C591 1.524 . S
C593 C590 1.403 . S
C593 C594 1.392 . S
C593 C597 1.495 . S
C594 C593 1.392 . S
C594 C595 1.385 . S
C594 C596 1.478 . S
C595 H589 0.930 . S
C595 C591 1.400 . S
C595 C594 1.385 . S
C596 C594 1.478 . S
C596 C598 1.381 . S
C596 C602 1.383 . S
C597 C593 1.495 . S
C597 H603 0.974 . S
C597 H604 0.961 1_565 S
C597 H605 0.960 . S
C598 C596 1.381 . S
C598 C599 1.394 . S
C598 H606 0.930 . S
C599 C598 1.394 . S
C599 C600 1.383 . S
C599 H607 0.929 . S
C600 C599 1.383 . S
C600 C601 1.377 . S
C601 H585 0.930 . S
C601 C600 1.377 . S
C601 C602 1.379 . S
C602 H586 0.931 1_565 S
C602 C596 1.383 . S
C602 C601 1.379 . S
H603 C597 0.974 . S
H604 C597 0.961 1_545 S
H605 C597 0.960 . S
H606 C598 0.930 . S
H607 C599 0.929 . S
H608 C616 0.929 . S
H609 C618 0.930 . S
H610 C620 0.930 . S
H611 C623 0.929 . S
H612 C626 0.930 . S
H613 C628 0.960 . S
H614 C628 0.960 . S
H615 C628 0.960 . S
C616 H608 0.929 . S
C616 C617 1.377 . S
C616 C618 1.384 . S
C617 C616 1.377 . S
C617 C623 1.390 . S
C618 H609 0.930 . S
C618 C616 1.384 . S
C618 C619 1.372 . S
C619 C618 1.372 . S
C619 C620 1.400 . S
C619 C624 1.490 . S
C620 H610 0.930 . S
C620 C619 1.400 . S
C620 C623 1.386 . S
H621 C637 0.930 . S
H622 C638 0.931 . S
C623 H611 0.929 . S
C623 C617 1.390 . S
C623 C620 1.386 . S
C624 C619 1.490 . S
C624 C626 1.395 . S
C624 C627 1.403 . S
H625 C631 0.930 . S
C626 H612 0.930 . S
C626 C624 1.395 . S
C626 C629 1.403 . S
C627 C624 1.403 . S
C627 C628 1.524 . S
C627 C631 1.400 . S
C628 H613 0.960 . S
C628 H614 0.960 . S
C628 H615 0.960 . S
C628 C627 1.524 . S
C629 C626 1.403 . S
C629 C630 1.392 . S
C629 C633 1.495 . S
C630 C629 1.392 . S
C630 C631 1.385 . S
C630 C632 1.478 . S
C631 H625 0.930 . S
C631 C627 1.400 . S
C631 C630 1.385 . S
C632 C630 1.478 . S
C632 C634 1.381 . S
C632 C638 1.383 . S
C633 C629 1.495 . S
C633 H639 0.959 . S
C633 H640 0.961 . S
C633 H641 0.960 . S
C634 C632 1.381 . S
C634 C635 1.394 . S
C634 H642 0.930 . S
C635 C634 1.394 . S
C635 C636 1.383 . S
C635 H643 0.929 . S
C636 C635 1.383 . S
C636 C637 1.377 . S
C637 H621 0.930 . S
C637 C636 1.377 . S
C637 C638 1.379 . S
C638 H622 0.931 . S
C638 C632 1.383 . S
C638 C637 1.379 . S
H639 C633 0.959 . S
H640 C633 0.961 . S
H641 C633 0.960 . S
H642 C634 0.930 . S
H643 C635 0.929 . S
H644 C652 0.929 . S
H645 C654 0.930 . S
H646 C656 0.930 . S
H647 C659 0.929 . S
H648 C662 0.930 . S
H649 C664 0.960 . S
H650 C664 0.960 . S
H651 C664 0.960 . S
C652 H644 0.929 . S
C652 C653 1.377 . S
C652 C654 1.384 . S
C653 C652 1.377 . S
C653 C659 1.390 . S
C654 H645 0.930 . S
C654 C652 1.384 . S
C654 C655 1.372 . S
C655 C654 1.372 . S
C655 C656 1.400 . S
C655 C660 1.490 . S
C656 H646 0.930 . S
C656 C655 1.400 . S
C656 C659 1.386 . S
H657 C673 0.930 . S
H658 C674 0.931 . S
C659 H647 0.929 . S
C659 C653 1.390 . S
C659 C656 1.386 . S
C660 C655 1.490 . S
C660 C662 1.395 . S
C660 C663 1.403 . S
H661 C667 0.930 . S
C662 H648 0.930 . S
C662 C660 1.395 . S
C662 C665 1.403 . S
C663 C660 1.403 . S
C663 C664 1.524 . S
C663 C667 1.400 . S
C664 H649 0.960 . S
C664 H650 0.960 . S
C664 H651 0.960 . S
C664 C663 1.524 . S
C665 C662 1.403 . S
C665 C666 1.392 . S
C665 C669 1.495 . S
C666 C665 1.392 . S
C666 C667 1.385 . S
C666 C668 1.478 . S
C667 H661 0.930 . S
C667 C663 1.400 . S
C667 C666 1.385 . S
C668 C666 1.478 . S
C668 C670 1.381 . S
C668 C674 1.383 . S
C669 C665 1.495 . S
C669 H675 0.959 . S
C669 H676 0.961 . S
C669 H677 0.960 . S
C670 C668 1.381 . S
C670 C671 1.394 . S
C670 H678 0.930 . S
C671 C670 1.394 . S
C671 C672 1.383 . S
C671 H679 0.929 . S
C672 C671 1.383 . S
C672 C673 1.377 . S
C673 H657 0.930 . S
C673 C672 1.377 . S
C673 C674 1.379 . S
C674 H658 0.931 . S
C674 C668 1.383 . S
C674 C673 1.379 . S
H675 C669 0.959 . S
H676 C669 0.961 . S
H677 C669 0.960 . S
H678 C670 0.930 . S
H679 C671 0.929 . S
H680 C688 0.929 . S
H681 C690 0.930 . S
H682 C692 0.930 . S
H683 C695 0.929 . S
H684 C698 0.930 . S
H685 C700 0.960 . S
H686 C700 0.960 . S
H687 C700 0.960 . S
C688 H680 0.929 . S
C688 C689 1.377 1_455 S
C688 C690 1.384 . S
C689 C688 1.377 1_655 S
C689 C695 1.390 . S
C690 H681 0.930 . S
C690 C688 1.384 . S
C690 C691 1.372 . S
C691 C690 1.372 . S
C691 C692 1.400 1_455 S
C691 C696 1.490 . S
C692 H682 0.930 . S
C692 C691 1.400 1_655 S
C692 C695 1.386 . S
H693 C709 0.930 . S
H694 C710 0.931 . S
C695 H683 0.929 . S
C695 C689 1.390 . S
C695 C692 1.386 . S
C696 C691 1.490 . S
C696 C698 1.395 . S
C696 C699 1.403 1_455 S
H697 C703 0.912 1_655 S
C698 H684 0.930 . S
C698 C696 1.395 . S
C698 C701 1.403 . S
C699 C696 1.403 1_655 S
C699 C700 1.524 . S
C699 C703 1.393 1_655 S
C700 H685 0.960 . S
C700 H686 0.960 . S
C700 H687 0.960 . S
C700 C699 1.524 . S
C701 C698 1.403 . S
C701 C702 1.392 . S
C701 C705 1.495 . S
C702 C701 1.392 . S
C702 C703 1.410 . S
C702 C704 1.478 . S
C703 H697 0.912 1_455 S
C703 C699 1.393 1_455 S
C703 C702 1.410 . S
C704 C702 1.478 . S
C704 C706 1.381 . S
C704 C710 1.383 1_554 S
C705 C701 1.495 . S
C705 H711 0.959 . S
C705 H712 0.961 . S
C705 H713 0.960 . S
C706 C704 1.381 . S
C706 C707 1.394 . S
C706 H714 0.930 . S
C707 C706 1.394 . S
C707 C708 1.383 1_554 S
C707 H715 0.929 . S
C708 C707 1.383 1_556 S
C708 C709 1.377 . S
C709 H693 0.930 . S
C709 C708 1.377 . S
C709 C710 1.379 . S
C710 H694 0.931 . S
C710 C704 1.383 1_556 S
C710 C709 1.379 . S
H711 C705 0.959 . S
H712 C705 0.961 . S
H713 C705 0.960 . S
H714 C706 0.930 . S
H715 C707 0.929 . S
H716 C724 0.929 . S
H717 C726 0.930 . S
H718 C728 0.930 . S
H719 C731 0.929 . S
H720 C734 0.930 . S
H721 C736 0.960 . S
H722 C736 0.960 . S
H723 C736 0.960 . S
C724 H716 0.929 . S
C724 C725 1.377 . S
C724 C726 1.384 . S
C725 C724 1.377 . S
C725 C731 1.390 1_565 S
C726 H717 0.930 . S
C726 C724 1.384 . S
C726 C727 1.372 1_565 S
C727 C726 1.372 1_545 S
C727 C728 1.400 . S
C727 C732 1.490 . S
C728 H718 0.930 . S
C728 C727 1.400 . S
C728 C731 1.386 . S
H729 C745 0.930 . S
H730 C746 0.931 . S
C731 H719 0.929 . S
C731 C725 1.390 1_545 S
C731 C728 1.386 . S
C732 C727 1.490 . S
C732 C734 1.395 . S
C732 C735 1.395 1_545 S
H733 C739 0.912 1_565 S
C734 H720 0.930 . S
C734 C732 1.395 . S
C734 C737 1.403 . S
C735 C732 1.395 1_565 S
C735 C736 1.535 . S
C735 C739 1.396 1_565 S
C736 H721 0.960 . S
C736 H722 0.960 . S
C736 H723 0.960 . S
C736 C735 1.535 . S
C737 C734 1.403 . S
C737 C738 1.392 . S
C737 C741 1.495 . S
C738 C737 1.392 . S
C738 C739 1.385 . S
C738 C740 1.478 . S
C739 H733 0.912 1_545 S
C739 C735 1.396 1_545 S
C739 C738 1.385 . S
C740 C738 1.478 . S
C740 C742 1.381 . S
C740 C746 1.383 1_554 S
C741 C737 1.495 . S
C741 H747 0.959 . S
C741 H748 0.961 . S
C741 H749 0.960 . S
C742 C740 1.381 . S
C742 C743 1.394 . S
C742 H750 0.930 . S
C743 C742 1.394 . S
C743 C744 1.383 1_554 S
C743 H751 0.929 . S
C744 C743 1.383 1_556 S
C744 C745 1.377 . S
C745 H729 0.930 . S
C745 C744 1.377 . S
C745 C746 1.379 . S
C746 H730 0.931 . S
C746 C740 1.383 1_556 S
C746 C745 1.379 . S
H747 C741 0.959 . S
H748 C741 0.961 . S
H749 C741 0.960 . S
H750 C742 0.930 . S
H751 C743 0.929 . S
H752 C760 0.929 . S
H753 C762 0.930 . S
H754 C764 0.930 . S
H755 C767 0.929 . S
H756 C770 0.930 . S
H757 C772 0.960 . S
H758 C772 0.960 . S
H759 C772 0.960 . S
C760 H752 0.929 . S
C760 C761 1.377 . S
C760 C762 1.384 . S
C761 C760 1.377 . S
C761 C767 1.390 . S
C762 H753 0.930 . S
C762 C760 1.384 . S
C762 C763 1.372 . S
C763 C762 1.372 . S
C763 C764 1.400 . S
C763 C768 1.490 . S
C764 H754 0.930 . S
C764 C763 1.400 . S
C764 C767 1.386 . S
H765 C781 0.930 . S
H766 C782 0.931 . S
C767 H755 0.929 . S
C767 C761 1.390 . S
C767 C764 1.386 . S
C768 C763 1.490 . S
C768 C770 1.395 . S
C768 C771 1.403 . S
H769 C775 0.930 . S
C770 H756 0.930 . S
C770 C768 1.395 . S
C770 C773 1.403 . S
C771 C768 1.403 . S
C771 C772 1.524 . S
C771 C775 1.400 . S
C772 H757 0.960 . S
C772 H758 0.960 . S
C772 H759 0.960 . S
C772 C771 1.524 . S
C773 C770 1.403 . S
C773 C774 1.392 . S
C773 C777 1.495 1_554 S
C774 C773 1.392 . S
C774 C775 1.385 . S
C774 C776 1.478 . S
C775 H769 0.930 . S
C775 C771 1.400 . S
C775 C774 1.385 . S
C776 C774 1.478 . S
C776 C778 1.381 1_554 S
C776 C782 1.383 . S
C777 C773 1.495 1_556 S
C777 H783 0.959 . S
C777 H784 0.961 . S
C777 H785 0.960 . S
C778 C776 1.381 1_556 S
C778 C779 1.394 . S
C778 H786 0.930 . S
C779 C778 1.394 . S
C779 C780 1.383 . S
C779 H787 0.929 . S
C780 C779 1.383 . S
C780 C781 1.377 1_556 S
C781 H765 0.930 . S
C781 C780 1.377 1_554 S
C781 C782 1.379 . S
C782 H766 0.931 . S
C782 C776 1.383 . S
C782 C781 1.379 . S
H783 C777 0.959 . S
H784 C777 0.961 . S
H785 C777 0.960 . S
H786 C778 0.930 . S
H787 C779 0.929 . S
H788 C796 0.929 . S
H789 C798 0.930 . S
H790 C800 0.930 . S
H791 C803 0.929 . S
H792 C806 0.930 . S
H793 C808 0.960 . S
H794 C808 0.960 . S
H795 C808 0.960 . S
C796 H788 0.929 . S
C796 C797 1.377 . S
C796 C798 1.384 . S
C797 C796 1.377 . S
C797 C803 1.390 . S
C798 H789 0.930 . S
C798 C796 1.384 . S
C798 C799 1.372 . S
C799 C798 1.372 . S
C799 C800 1.400 . S
C799 C804 1.490 . S
C800 H790 0.930 . S
C800 C799 1.400 . S
C800 C803 1.386 . S
H801 C817 0.930 . S
H802 C818 0.931 . S
C803 H791 0.929 . S
C803 C797 1.390 . S
C803 C800 1.386 . S
C804 C799 1.490 . S
C804 C806 1.395 . S
C804 C807 1.403 . S
H805 C811 0.930 . S
C806 H792 0.930 . S
C806 C804 1.395 . S
C806 C809 1.403 . S
C807 C804 1.403 . S
C807 C808 1.524 . S
C807 C811 1.400 . S
C808 H793 0.960 . S
C808 H794 0.960 . S
C808 H795 0.960 . S
C808 C807 1.524 . S
C809 C806 1.403 . S
C809 C810 1.392 . S
C809 C813 1.495 1_554 S
C810 C809 1.392 . S
C810 C811 1.385 . S
C810 C812 1.478 . S
C811 H805 0.930 . S
C811 C807 1.400 . S
C811 C810 1.385 . S
C812 C810 1.478 . S
C812 C814 1.381 1_554 S
C812 C818 1.383 . S
C813 C809 1.495 1_556 S
C813 H819 0.959 . S
C813 H820 0.961 . S
C813 H821 0.960 . S
C814 C812 1.381 1_556 S
C814 C815 1.394 . S
C814 H822 0.930 . S
C815 C814 1.394 . S
C815 C816 1.383 . S
C815 H823 0.929 . S
C816 C815 1.383 . S
C816 C817 1.377 1_556 S
C817 H801 0.930 . S
C817 C816 1.377 1_554 S
C817 C818 1.379 . S
C818 H802 0.931 . S
C818 C812 1.383 . S
C818 C817 1.379 . S
H819 C813 0.959 . S
H820 C813 0.961 . S
H821 C813 0.960 . S
H822 C814 0.930 . S
H823 C815 0.929 . S
H824 C832 0.919 1_554 S
H825 C834 0.930 . S
H826 C836 0.930 . S
H827 C839 0.929 . S
H828 C842 0.930 . S
H829 C844 0.960 . S
H830 C844 0.960 . S
H831 C844 0.960 . S
C832 H824 0.919 1_556 S
C832 C833 1.377 1_655 S
C832 C834 1.384 . S
C833 C832 1.377 1_455 S
C833 C839 1.390 . S
C834 H825 0.930 . S
C834 C832 1.384 . S
C834 C835 1.372 1_655 S
C835 C834 1.372 1_455 S
C835 C836 1.400 . S
C835 C840 1.490 . S
C836 H826 0.930 . S
C836 C835 1.400 . S
C836 C839 1.386 . S
H837 C853 0.930 . S
H838 C854 0.931 . S
C839 H827 0.929 . S
C839 C833 1.390 . S
C839 C836 1.386 . S
C840 C835 1.490 . S
C840 C842 1.395 1_455 S
C840 C843 1.403 . S
H841 C847 0.930 . S
C842 H828 0.930 . S
C842 C840 1.395 1_655 S
C842 C845 1.403 . S
C843 C840 1.403 . S
C843 C844 1.524 . S
C843 C847 1.400 . S
C844 H829 0.960 . S
C844 H830 0.960 . S
C844 H831 0.960 . S
C844 C843 1.524 . S
C845 C842 1.403 . S
C845 C846 1.392 1_655 S
C845 C849 1.495 . S
C846 C845 1.392 1_455 S
C846 C847 1.385 . S
C846 C848 1.478 . S
C847 H841 0.930 . S
C847 C843 1.400 . S
C847 C846 1.385 . S
C848 C846 1.478 . S
C848 C850 1.381 . S
C848 C854 1.383 . S
C849 C845 1.495 . S
C849 H855 0.959 . S
C849 H856 0.961 . S
C849 H857 0.960 . S
C850 C848 1.381 . S
C850 C851 1.394 . S
C850 H858 0.920 1_455 S
C851 C850 1.394 . S
C851 C852 1.383 . S
C851 H859 0.929 . S
C852 C851 1.383 . S
C852 C853 1.377 . S
C853 H837 0.930 . S
C853 C852 1.377 . S
C853 C854 1.379 . S
C854 H838 0.931 . S
C854 C848 1.383 . S
C854 C853 1.379 . S
H855 C849 0.959 . S
H856 C849 0.961 . S
H857 C849 0.960 . S
H858 C850 0.920 1_655 S
H859 C851 0.929 . S
H860 C868 0.929 . S
H861 C870 0.930 . S
H862 C872 0.930 . S
H863 C875 0.929 . S
H864 C878 0.922 1_565 S
H865 C880 0.960 . S
H866 C880 0.960 . S
H867 C880 0.960 . S
C868 H860 0.929 . S
C868 C869 1.377 . S
C868 C870 1.384 . S
C869 C868 1.377 . S
C869 C875 1.390 1_545 S
C870 H861 0.930 . S
C870 C868 1.384 . S
C870 C871 1.372 . S
C871 C870 1.372 . S
C871 C872 1.400 1_545 S
C871 C876 1.490 . S
C872 H862 0.930 . S
C872 C871 1.400 1_565 S
C872 C875 1.386 . S
H873 C889 0.930 . S
H874 C890 0.931 . S
C875 H863 0.929 . S
C875 C869 1.390 1_565 S
C875 C872 1.386 . S
C876 C871 1.490 . S
C876 C878 1.395 . S
C876 C879 1.403 . S
H877 C883 0.930 . S
C878 H864 0.922 1_545 S
C878 C876 1.395 . S
C878 C881 1.403 . S
C879 C876 1.403 . S
C879 C880 1.524 . S
C879 C883 1.400 . S
C880 H865 0.960 . S
C880 H866 0.960 . S
C880 H867 0.960 . S
C880 C879 1.524 . S
C881 C878 1.403 . S
C881 C882 1.392 . S
C881 C885 1.495 1_545 S
C882 C881 1.392 . S
C882 C883 1.385 . S
C882 C884 1.478 . S
C883 H877 0.930 . S
C883 C879 1.400 . S
C883 C882 1.385 . S
C884 C882 1.478 . S
C884 C886 1.381 . S
C884 C890 1.383 1_545 S
C885 C881 1.495 1_565 S
C885 H891 0.959 1_556 S
C885 H892 0.961 . S
C885 H893 0.960 1_565 S
C886 C884 1.381 . S
C886 C887 1.394 . S
C886 H894 0.930 . S
C887 C886 1.394 . S
C887 C888 1.383 . S
C887 H895 0.929 . S
C888 C887 1.383 . S
C888 C889 1.377 1_545 S
C889 H873 0.930 . S
C889 C888 1.377 1_565 S
C889 C890 1.379 . S
C890 H874 0.931 . S
C890 C884 1.383 1_565 S
C890 C889 1.379 . S
H891 C885 0.959 1_554 S
H892 C885 0.961 . S
H893 C885 0.960 1_545 S
H894 C886 0.930 . S
H895 C887 0.929 . S
H896 C904 0.929 . S
H897 C906 0.930 . S
H898 C908 0.930 . S
H899 C911 0.929 . S
H900 C914 0.930 . S
H901 C916 0.960 . S
H902 C916 0.960 . S
H903 C916 0.960 . S
C904 H896 0.929 . S
C904 C905 1.377 . S
C904 C906 1.384 . S
C905 C904 1.377 . S
C905 C911 1.390 . S
C906 H897 0.930 . S
C906 C904 1.384 . S
C906 C907 1.372 . S
C907 C906 1.372 . S
C907 C908 1.400 . S
C907 C912 1.490 . S
C908 H898 0.930 . S
C908 C907 1.400 . S
C908 C911 1.386 . S
H909 C925 0.930 . S
H910 C926 0.931 . S
C911 H899 0.929 . S
C911 C905 1.390 . S
C911 C908 1.386 . S
C912 C907 1.490 . S
C912 C914 1.395 . S
C912 C915 1.403 . S
H913 C919 0.930 . S
C914 H900 0.930 . S
C914 C912 1.395 . S
C914 C917 1.403 . S
C915 C912 1.403 . S
C915 C916 1.524 . S
C915 C919 1.400 . S
C916 H901 0.960 . S
C916 H902 0.960 . S
C916 H903 0.960 . S
C916 C915 1.524 . S
C917 C914 1.403 . S
C917 C918 1.392 . S
C917 C921 1.495 . S
C918 C917 1.392 . S
C918 C919 1.385 . S
C918 C920 1.478 . S
C919 H913 0.930 . S
C919 C915 1.400 . S
C919 C918 1.385 . S
C920 C918 1.478 . S
C920 C922 1.381 . S
C920 C926 1.383 . S
C921 C917 1.495 . S
C921 H927 0.959 . S
C921 H928 0.961 . S
C921 H929 0.960 . S
C922 C920 1.381 . S
C922 C923 1.394 . S
C922 H930 0.930 . S
C923 C922 1.394 . S
C923 C924 1.383 . S
C923 H931 0.929 . S
C924 C923 1.383 . S
C924 C925 1.377 . S
C925 H909 0.930 . S
C925 C924 1.377 . S
C925 C926 1.379 . S
C926 H910 0.931 . S
C926 C920 1.383 . S
C926 C925 1.379 . S
H927 C921 0.959 . S
H928 C921 0.961 . S
H929 C921 0.960 . S
H930 C922 0.930 . S
H931 C923 0.929 . S
H932 C940 0.929 . S
H933 C942 0.930 . S
H934 C944 0.930 . S
H935 C947 0.929 . S
H936 C950 0.930 . S
H937 C952 0.960 1_554 S
H938 C952 0.960 . S
H939 C952 0.960 1_554 S
C940 H932 0.929 . S
C940 C941 1.377 . S
C940 C942 1.384 . S
C941 C940 1.377 . S
C941 C947 1.390 . S
C942 H933 0.930 . S
C942 C940 1.384 . S
C942 C943 1.372 . S
C943 C942 1.372 . S
C943 C944 1.400 . S
C943 C948 1.490 . S
C944 H934 0.930 . S
C944 C943 1.400 . S
C944 C947 1.386 . S
H945 C961 0.930 . S
H946 C962 0.931 . S
C947 H935 0.929 . S
C947 C941 1.390 . S
C947 C944 1.386 . S
C948 C943 1.490 . S
C948 C950 1.395 . S
C948 C951 1.403 . S
H949 C955 0.930 . S
C950 H936 0.930 . S
C950 C948 1.395 . S
C950 C953 1.403 . S
C951 C948 1.403 . S
C951 C952 1.524 . S
C951 C955 1.400 . S
C952 H937 0.960 1_556 S
C952 H938 0.960 . S
C952 H939 0.960 1_556 S
C952 C951 1.524 . S
C953 C950 1.403 . S
C953 C954 1.392 . S
C953 C957 1.495 . S
C954 C953 1.392 . S
C954 C955 1.385 . S
C954 C956 1.478 . S
C955 H949 0.930 . S
C955 C951 1.400 . S
C955 C954 1.385 . S
C956 C954 1.478 . S
C956 C958 1.381 . S
C956 C962 1.383 . S
C957 C953 1.495 . S
C957 H963 0.959 . S
C957 H964 0.961 . S
C957 H965 0.960 . S
C958 C956 1.381 . S
C958 C959 1.394 . S
C958 H966 0.930 . S
C959 C958 1.394 . S
C959 C960 1.383 . S
C959 H967 0.929 . S
C960 C959 1.383 . S
C960 C961 1.377 . S
C961 H945 0.930 . S
C961 C960 1.377 . S
C961 C962 1.379 . S
C962 H946 0.931 . S
C962 C956 1.383 . S
C962 C961 1.379 . S
H963 C957 0.959 . S
H964 C957 0.961 . S
H965 C957 0.960 . S
H966 C958 0.930 . S
H967 C959 0.929 . S
H968 C976 0.929 . S
H969 C978 0.930 . S
H970 C980 0.930 . S
H971 C983 0.929 . S
H972 C986 0.930 . S
H973 C988 0.960 . S
H974 C988 0.960 1_455 S
H975 C988 0.960 . S
C976 H968 0.929 . S
C976 C977 1.377 1_455 S
C976 C978 1.384 . S
C977 C976 1.377 1_655 S
C977 C983 1.390 . S
C978 H969 0.930 . S
C978 C976 1.384 . S
C978 C979 1.372 1_455 S
C979 C978 1.372 1_655 S
C979 C980 1.400 . S
C979 C984 1.490 . S
C980 H970 0.930 . S
C980 C979 1.400 . S
C980 C983 1.386 . S
H981 C997 0.930 . S
H982 C998 0.931 . S
C983 H971 0.929 . S
C983 C977 1.390 . S
C983 C980 1.386 . S
C984 C979 1.490 . S
C984 C986 1.395 . S
C984 C987 1.403 . S
H985 C991 0.930 . S
C986 H972 0.930 . S
C986 C984 1.395 . S
C986 C989 1.403 . S
C987 C984 1.403 . S
C987 C988 1.524 . S
C987 C991 1.400 . S
C988 H973 0.960 . S
C988 H974 0.960 1_655 S
C988 H975 0.960 . S
C988 C987 1.524 . S
C989 C986 1.403 . S
C989 C990 1.392 . S
C989 C993 1.495 . S
C990 C989 1.392 . S
C990 C991 1.385 . S
C990 C992 1.478 . S
C991 H985 0.930 . S
C991 C987 1.400 . S
C991 C990 1.385 . S
C992 C990 1.478 . S
C992 C994 1.381 1_655 S
C992 C998 1.383 . S
C993 C989 1.495 . S
C993 H999 0.959 . S
C993 H1000 0.961 . S
C993 H1001 0.960 1_655 S
C994 C992 1.381 1_455 S
C994 C995 1.394 . S
C994 H1002 0.930 . S
C995 C994 1.394 . S
C995 C996 1.383 1_455 S
C995 H1003 0.929 . S
C996 C995 1.383 1_655 S
C996 C997 1.377 . S
C997 H981 0.930 . S
C997 C996 1.377 . S
C997 C998 1.379 . S
C998 H982 0.931 . S
C998 C992 1.383 . S
C998 C997 1.379 . S
H999 C993 0.959 . S
H1000 C993 0.961 . S
H1001 C993 0.960 1_455 S
H1002 C994 0.930 . S
H1003 C995 0.929 . S
H1004 C1012 0.929 . S
H1005 C1014 0.930 . S
H1006 C1016 0.930 . S
H1007 C1019 0.929 . S
H1008 C1022 0.930 . S
H1009 C1024 0.960 . S
H1010 C1024 0.960 . S
H1011 C1024 0.960 . S
C1012 H1004 0.929 . S
C1012 C1013 1.377 1_545 S
C1012 C1014 1.384 . S
C1013 C1012 1.377 1_565 S
C1013 C1019 1.390 . S
C1014 H1005 0.930 . S
C1014 C1012 1.384 . S
C1014 C1015 1.372 1_545 S
C1015 C1014 1.372 1_565 S
C1015 C1016 1.400 . S
C1015 C1020 1.490 . S
C1016 H1006 0.930 . S
C1016 C1015 1.400 . S
C1016 C1019 1.386 . S
H1017 C1033 0.930 . S
H1018 C1034 0.931 . S
C1019 H1007 0.929 . S
C1019 C1013 1.390 . S
C1019 C1016 1.386 . S
C1020 C1015 1.490 . S
C1020 C1022 1.395 . S
C1020 C1023 1.403 1_565 S
H1021 C1027 0.930 . S
C1022 H1008 0.930 . S
C1022 C1020 1.395 . S
C1022 C1025 1.403 . S
C1023 C1020 1.403 1_545 S
C1023 C1024 1.524 . S
C1023 C1027 1.400 . S
C1024 H1009 0.960 . S
C1024 H1010 0.960 . S
C1024 H1011 0.960 . S
C1024 C1023 1.524 . S
C1025 C1022 1.403 . S
C1025 C1026 1.392 . S
C1025 C1029 1.495 . S
C1026 C1025 1.392 . S
C1026 C1027 1.385 1_565 S
C1026 C1028 1.478 . S
C1027 H1021 0.930 . S
C1027 C1023 1.400 . S
C1027 C1026 1.385 1_545 S
C1028 C1026 1.478 . S
C1028 C1030 1.381 1_565 S
C1028 C1034 1.383 . S
C1029 C1025 1.495 . S
C1029 H1035 0.959 . S
C1029 H1036 0.961 . S
C1029 H1037 0.960 . S
C1030 C1028 1.381 1_545 S
C1030 C1031 1.394 . S
C1030 H1038 0.930 . S
C1031 C1030 1.394 . S
C1031 C1032 1.384 1_545 S
C1031 H1039 0.928 . S
C1032 C1031 1.384 1_565 S
C1032 C1033 1.377 . S
C1033 H1017 0.930 . S
C1033 C1032 1.377 . S
C1033 C1034 1.379 . S
C1034 H1018 0.931 . S
C1034 C1028 1.383 . S
C1034 C1033 1.379 . S
H1035 C1029 0.959 . S
H1036 C1029 0.961 . S
H1037 C1029 0.960 . S
H1038 C1030 0.930 . S
H1039 C1031 0.928 . S
H1040 C1048 0.929 . S
H1041 C1050 0.930 . S
H1042 C1052 0.930 . S
H1043 C1055 0.929 . S
H1044 C1058 0.930 . S
H1045 C1060 0.960 . S
H1046 C1060 0.960 . S
H1047 C1060 0.960 . S
C1048 H1040 0.929 . S
C1048 C1049 1.377 . S
C1048 C1050 1.384 . S
C1049 C1048 1.377 . S
C1049 C1055 1.390 . S
C1050 H1041 0.930 . S
C1050 C1048 1.384 . S
C1050 C1051 1.372 . S
C1051 C1050 1.372 . S
C1051 C1052 1.400 . S
C1051 C1056 1.490 . S
C1052 H1042 0.930 . S
C1052 C1051 1.400 . S
C1052 C1055 1.386 . S
H1053 C1069 0.930 . S
H1054 C1070 0.931 . S
C1055 H1043 0.929 . S
C1055 C1049 1.390 . S
C1055 C1052 1.386 . S
C1056 C1051 1.490 . S
C1056 C1058 1.395 . S
C1056 C1059 1.403 . S
H1057 C1063 0.930 . S
C1058 H1044 0.930 . S
C1058 C1056 1.395 . S
C1058 C1061 1.403 . S
C1059 C1056 1.403 . S
C1059 C1060 1.524 . S
C1059 C1063 1.400 . S
C1060 H1045 0.960 . S
C1060 H1046 0.960 . S
C1060 H1047 0.960 . S
C1060 C1059 1.524 . S
C1061 C1058 1.403 . S
C1061 C1062 1.392 . S
C1061 C1065 1.495 . S
C1062 C1061 1.392 . S
C1062 C1063 1.385 . S
C1062 C1064 1.478 . S
C1063 H1057 0.930 . S
C1063 C1059 1.400 . S
C1063 C1062 1.385 . S
C1064 C1062 1.478 . S
C1064 C1066 1.381 . S
C1064 C1070 1.383 . S
C1065 C1061 1.495 . S
C1065 H1071 0.959 . S
C1065 H1072 0.961 . S
C1065 H1073 0.960 . S
C1066 C1064 1.381 . S
C1066 C1067 1.394 . S
C1066 H1074 0.930 . S
C1067 C1066 1.394 . S
C1067 C1068 1.383 . S
C1067 H1075 0.929 . S
C1068 C1067 1.383 . S
C1068 C1069 1.377 . S
C1069 H1053 0.930 . S
C1069 C1068 1.377 . S
C1069 C1070 1.379 . S
C1070 H1054 0.931 . S
C1070 C1064 1.383 . S
C1070 C1069 1.379 . S
H1071 C1065 0.959 . S
H1072 C1065 0.961 . S
H1073 C1065 0.960 . S
H1074 C1066 0.930 . S
H1075 C1067 0.929 . S
H1076 C1084 0.929 . S
H1077 C1086 0.930 . S
H1078 C1088 0.930 . S
H1079 C1091 0.929 . S
H1080 C1094 0.930 . S
H1081 C1096 0.960 . S
H1082 C1096 0.960 . S
H1083 C1096 0.960 . S
C1084 H1076 0.929 . S
C1084 C1085 1.377 . S
C1084 C1086 1.384 . S
C1085 C1084 1.377 . S
C1085 C1091 1.390 . S
C1086 H1077 0.930 . S
C1086 C1084 1.384 . S
C1086 C1087 1.372 . S
C1087 C1086 1.372 . S
C1087 C1088 1.400 . S
C1087 C1092 1.490 . S
C1088 H1078 0.930 . S
C1088 C1087 1.400 . S
C1088 C1091 1.386 . S
H1089 C1105 0.930 . S
H1090 C1106 0.931 . S
C1091 H1079 0.929 . S
C1091 C1085 1.390 . S
C1091 C1088 1.386 . S
C1092 C1087 1.490 . S
C1092 C1094 1.395 . S
C1092 C1095 1.403 . S
H1093 C1099 0.930 . S
C1094 H1080 0.930 . S
C1094 C1092 1.395 . S
C1094 C1097 1.403 . S
C1095 C1092 1.403 . S
C1095 C1096 1.524 . S
C1095 C1099 1.400 . S
C1096 H1081 0.960 . S
C1096 H1082 0.960 . S
C1096 H1083 0.960 . S
C1096 C1095 1.524 . S
C1097 C1094 1.403 . S
C1097 C1098 1.392 . S
C1097 C1101 1.495 . S
C1098 C1097 1.392 . S
C1098 C1099 1.385 . S
C1098 C1100 1.478 . S
C1099 H1093 0.930 . S
C1099 C1095 1.400 . S
C1099 C1098 1.385 . S
C1100 C1098 1.478 . S
C1100 C1102 1.381 . S
C1100 C1106 1.383 . S
C1101 C1097 1.495 . S
C1101 H1107 0.959 . S
C1101 H1108 0.961 . S
C1101 H1109 0.960 . S
C1102 C1100 1.381 . S
C1102 C1103 1.394 . S
C1102 H1110 0.930 . S
C1103 C1102 1.394 . S
C1103 C1104 1.383 . S
C1103 H1111 0.929 . S
C1104 C1103 1.383 . S
C1104 C1105 1.377 . S
C1105 H1089 0.930 . S
C1105 C1104 1.377 . S
C1105 C1106 1.379 . S
C1106 H1090 0.931 . S
C1106 C1100 1.383 . S
C1106 C1105 1.379 . S
H1107 C1101 0.959 . S
H1108 C1101 0.961 . S
H1109 C1101 0.960 . S
H1110 C1102 0.930 . S
H1111 C1103 0.929 . S
C257 C76 1.733 . S
C276 C97 1.795 1_545 S
C312 C137 1.796 . S
C293 C87 1.731 . S
C348 C177 1.817 . S
C329 C54 1.725 . S
C384 C217 1.806 1_455 S
C365 C65 1.733 . S
C420 C106 1.809 1_565 S
C401 C32 1.727 . S
C437 C43 1.730 . S
C456 C146 1.821 . S
C473 C10 1.724 . S
C492 C186 1.801 . S
C509 C21 1.728 . S
C528 C226 1.811 1_655 S
C564 C103 0.387 . S
C545 C60 0.405 . S
C600 C143 0.308 . S
C581 C71 0.385 . S
C636 C183 0.324 . S
C617 C82 0.389 . S
C653 C49 0.381 . S
C672 C223 0.322 . S
C689 C16 0.386 . S
C708 C94 0.397 . S
C744 C134 0.377 . S
C725 C27 0.408 . S
C780 C174 0.317 . S
C761 C38 0.386 . S
C797 C5 0.397 . S
C816 C214 0.275 . S
C833 C59 1.854 . S
C852 C107 2.024 . S
C869 C70 1.860 . S
C888 C147 2.038 . S
C924 C187 2.055 . S
C905 C81 1.867 . S
C960 C227 2.048 . S
C941 C48 1.858 . S
C977 C15 1.865 1_655 S
C996 C98 2.051 . S
C1032 C138 2.052 . S
C1013 C26 1.861 . S
C1068 C178 2.056 . S
C1049 C37 1.855 . S
C1085 C4 1.857 . S
C1104 C218 2.051 . S
