# Generated by pormake.
# Topology zzz, (3,6)-cn, num edge types: 1
# Building blocks:
#     Node 0, Type 0, BuildingBlock: CUQRIR_clean_linker_1, # of connection points: 3
#     Node 1, Type 0, BuildingBlock: CUQRIR_clean_linker_1, # of connection points: 3
#     Node 2, Type 0, BuildingBlock: CUQRIR_clean_linker_1, # of connection points: 3
#     Node 3, Type 0, BuildingBlock: CUQRIR_clean_linker_1, # of connection points: 3
#     Node 4, Type 0, BuildingBlock: CUQRIR_clean_linker_1, # of connection points: 3
#     Node 5, Type 0, BuildingBlock: CUQRIR_clean_linker_1, # of connection points: 3
#     Node 6, Type 0, BuildingBlock: CUQRIR_clean_linker_1, # of connection points: 3
#     Node 7, Type 0, BuildingBlock: CUQRIR_clean_linker_1, # of connection points: 3
#     Node 8, Type 1, BuildingBlock: KUMBUR_clean_sbu_0, # of connection points: 6
#     Node 9, Type 1, BuildingBlock: KUMBUR_clean_sbu_0, # of connection points: 6
#     Node 10, Type 1, BuildingBlock: KUMBUR_clean_sbu_0, # of connection points: 6
#     Node 11, Type 1, BuildingBlock: KUMBUR_clean_sbu_0, # of connection points: 6
#     Edge 12, Type (0, 1), BuildingBlock: CIFDUS_clean_linker_0, # of connection points: 2
#     Edge 13, Type (0, 1), BuildingBlock: CIFDUS_clean_linker_0, # of connection points: 2
#     Edge 14, Type (0, 1), BuildingBlock: CIFDUS_clean_linker_0, # of connection points: 2
#     Edge 15, Type (0, 1), BuildingBlock: CIFDUS_clean_linker_0, # of connection points: 2
#     Edge 16, Type (0, 1), BuildingBlock: CIFDUS_clean_linker_0, # of connection points: 2
#     Edge 17, Type (0, 1), BuildingBlock: CIFDUS_clean_linker_0, # of connection points: 2
#     Edge 18, Type (0, 1), BuildingBlock: CIFDUS_clean_linker_0, # of connection points: 2
#     Edge 19, Type (0, 1), BuildingBlock: CIFDUS_clean_linker_0, # of connection points: 2
#     Edge 20, Type (0, 1), BuildingBlock: CIFDUS_clean_linker_0, # of connection points: 2
#     Edge 21, Type (0, 1), BuildingBlock: CIFDUS_clean_linker_0, # of connection points: 2
#     Edge 22, Type (0, 1), BuildingBlock: CIFDUS_clean_linker_0, # of connection points: 2
#     Edge 23, Type (0, 1), BuildingBlock: CIFDUS_clean_linker_0, # of connection points: 2
#     Edge 24, Type (0, 1), BuildingBlock: CIFDUS_clean_linker_0, # of connection points: 2
#     Edge 25, Type (0, 1), BuildingBlock: CIFDUS_clean_linker_0, # of connection points: 2
#     Edge 26, Type (0, 1), BuildingBlock: CIFDUS_clean_linker_0, # of connection points: 2
#     Edge 27, Type (0, 1), BuildingBlock: CIFDUS_clean_linker_0, # of connection points: 2
#     Edge 28, Type (0, 1), BuildingBlock: CIFDUS_clean_linker_0, # of connection points: 2
#     Edge 29, Type (0, 1), BuildingBlock: CIFDUS_clean_linker_0, # of connection points: 2
#     Edge 30, Type (0, 1), BuildingBlock: CIFDUS_clean_linker_0, # of connection points: 2
#     Edge 31, Type (0, 1), BuildingBlock: CIFDUS_clean_linker_0, # of connection points: 2
#     Edge 32, Type (0, 1), BuildingBlock: CIFDUS_clean_linker_0, # of connection points: 2
#     Edge 33, Type (0, 1), BuildingBlock: CIFDUS_clean_linker_0, # of connection points: 2
#     Edge 34, Type (0, 1), BuildingBlock: CIFDUS_clean_linker_0, # of connection points: 2
#     Edge 35, Type (0, 1), BuildingBlock: CIFDUS_clean_linker_0, # of connection points: 2
# Relax obj value: 0.238
# Max RMSD: 0.180
# Mean RMSD: 0.121
data_MOF--net-zzz--node1-KUMBUR_clean_sbu_0--node2-CUQRIR_clean_linker_1--edge1-CIFDUS_clean_linker_0
_symmetry_space_group_name_H-M    P1
_symmetry_Int_Tables_number       1
_symmetry_cell_setting            triclinic
loop_
_symmetry_equiv_pos_as_xyz
'x, y, z'
_cell_length_a     39.701287
_cell_length_b     40.052454
_cell_length_c     11.656083
_cell_angle_alpha  91.864258
_cell_angle_beta   89.234034
_cell_angle_gamma 90.187337
loop_
_atom_site_label
_atom_site_type_symbol
_atom_site_fract_x
_atom_site_fract_y
_atom_site_fract_z
_atom_type_partial_charge
C0 C 0.7657 0.54358 0.26954 0.0
N1 N 0.79532 0.56072 0.28543 0.0
N2 N 0.74438 0.55997 0.19843 0.0
C3 C 0.75772 0.51102 0.32439 0.0
C4 C 0.76279 0.58715 0.17002 0.0
N5 N 0.7936 0.58736 0.21987 0.0
C6 C 0.75205 0.61171 0.08222 0.0
H7 H 0.73782 0.49699 0.27784 0.0
H8 H 0.74916 0.51627 0.41415 0.0
H9 H 0.78031 0.49502 0.32798 0.0
H10 H 0.77199 0.63029 0.06361 0.0
H11 H 0.72961 0.62559 0.11479 0.0
H12 H 0.74493 0.59809 1.00164 0.0
C13 C 0.04313 0.76728 0.25692 0.0
N14 N 0.06164 0.79626 0.2747 0.0
N15 N 0.05806 0.74589 0.17657 0.0
C16 C 1.01061 0.75954 0.3172 0.0
C17 C 0.08649 0.76259 0.14782 0.0
N18 N 0.08877 0.7924 0.20627 0.0
C19 C 0.11268 0.74947 0.06199 0.0
H20 H 0.99508 0.74224 0.26348 0.0
H21 H 0.99632 0.78279 0.33769 0.0
H22 H 1.01615 0.74709 0.39845 0.0
H23 H 0.11259 0.72205 0.04989 0.0
H24 H 0.13839 0.75734 0.08764 0.0
H25 H 0.10731 0.75955 0.9767 0.0
C26 C 0.80706 1.01023 0.40373 0.0
N27 N 0.77368 1.00592 0.37789 0.0
N28 N 0.82773 0.99802 0.31647 0.0
C29 C 0.81929 0.02978 0.50659 0.0
C30 C 0.80511 0.98585 0.23987 0.0
N31 N 0.77321 0.99513 0.26905 0.0
C32 C 0.8148 0.97244 0.12126 0.0
H33 H 0.81757 0.05683 0.48974 0.0
H34 H 0.84593 1.02358 0.52397 0.0
H35 H 0.80313 1.02468 0.58251 0.0
H36 H 0.83521 0.95378 0.12632 0.0
H37 H 0.82389 0.99323 0.06812 0.0
H38 H 0.79314 0.96002 0.07852 0.0
C39 C 0.54864 0.81539 0.35019 0.0
N40 N 0.52695 0.79074 0.38301 0.0
N41 N 0.53207 0.84063 0.29773 0.0
C42 C 0.58594 0.81433 0.36785 0.0
C43 C 0.4995 0.82984 0.29956 0.0
N44 N 0.49648 0.7997 0.34881 0.0
C45 C 0.47065 0.84698 0.2418 0.0
H46 H 0.59701 0.83978 0.36801 0.0
H47 H 0.59774 0.79912 0.29704 0.0
H48 H 0.59157 0.80229 0.44982 0.0
H49 H 0.47863 0.85561 0.15608 0.0
H50 H 0.46246 0.86887 0.29552 0.0
H51 H 0.44814 0.8308 0.23207 0.0
C52 C 0.31312 0.52039 0.10034 0.0
N53 N 0.28374 0.50388 0.07404 0.0
N54 N 0.33141 0.50417 0.18122 0.0
C55 C 0.3246 0.55143 0.04259 0.0
C56 C 0.31158 0.47721 0.20279 0.0
N57 N 0.28347 0.47679 0.13771 0.0
C58 C 0.31761 0.45289 0.29689 0.0
H59 H 0.31497 0.57363 0.09193 0.0
H60 H 0.31448 0.55203 0.95436 0.0
H61 H 0.35253 0.55271 0.03872 0.0
H62 H 0.32813 0.4659 0.37393 0.0
H63 H 0.33564 0.43352 0.26514 0.0
H64 H 0.29444 0.43952 0.32302 0.0
C65 C 0.04821 0.28929 0.10311 0.0
N66 N 1.0283 0.26094 0.10206 0.0
N67 N 0.03786 0.31241 0.18687 0.0
C68 C 0.07678 0.29497 0.02092 0.0
C69 C 1.01145 0.29686 0.23642 0.0
N70 N 1.00567 0.26654 0.18601 0.0
C71 C 0.99327 0.31008 0.34351 0.0
H72 H 0.09954 0.28229 0.05216 0.0
H73 H 0.0823 0.32205 0.01492 0.0
H74 H 0.07076 0.28408 0.93482 0.0
H75 H 0.97588 0.33031 0.32036 0.0
H76 H 1.01174 0.3206 0.40547 0.0
H77 H 0.978 0.29091 0.38683 0.0
C78 C 0.27861 0.07956 0.15366 0.0
N79 N 0.30784 0.09771 0.1516 0.0
N80 N 0.25351 0.09611 0.21392 0.0
C81 C 0.27441 0.04573 0.09701 0.0
C82 C 0.26865 0.12567 0.24044 0.0
N83 N 0.30245 0.12482 0.2189 0.0
C84 C 0.25122 0.15472 0.3013 0.0
H85 H 0.28559 0.04552 1.00921 0.0
H86 H 0.24738 0.03863 0.09282 0.0
H87 H 0.28807 1.02708 0.14702 0.0
H88 H 0.23893 0.14683 0.38209 0.0
H89 H 0.23115 0.16406 0.24542 0.0
H90 H 0.26921 0.17538 0.3203 0.0
C91 C 0.49856 0.27616 0.11791 0.0
N92 N 0.51086 0.30769 0.10214 0.0
N93 N 0.50273 0.26663 0.22901 0.0
C94 C 0.48456 0.25414 0.02361 0.0
C95 C 0.51705 0.29417 0.27955 0.0
N96 N 0.52263 0.31828 0.2032 0.0
C97 C 0.52185 0.29959 0.40698 0.0
H98 H 0.45665 0.2549 0.0287 0.0
H99 H 0.49265 0.22791 0.0336 0.0
H100 H 0.49278 0.26282 0.93821 0.0
H101 H 0.54798 0.29305 0.42987 0.0
H102 H 0.50399 0.28411 0.45661 0.0
H103 H 0.51793 0.32628 0.43207 0.0
Tb104 Tb 0.07078 1.01579 0.84009 0.0
C105 C 0.98888 0.95986 0.51162 0.0
C106 C 1.00333 0.96489 0.31111 0.0
C107 C 0.9771 0.91394 0.37558 0.0
C108 C 1.00202 0.97844 0.42423 0.0
C109 C 0.97609 0.92738 0.4882 0.0
C110 C 0.99103 0.93255 0.28732 0.0
C111 C 0.96437 0.92281 0.69009 0.0
N112 N 0.9903 0.97288 0.62037 0.0
C113 C 0.97768 0.95483 0.70903 0.0
C114 C 0.96357 0.90897 0.57912 0.0
Tb115 Tb 1.00834 1.02767 0.63853 0.0
N116 N 1.01443 1.00937 0.45039 0.0
C117 C 1.02529 0.02929 0.36385 0.0
C118 C 1.01731 0.98411 0.22523 0.0
C119 C 1.02752 1.01671 0.25123 0.0
H120 H 0.97792 0.96448 0.79505 0.0
H121 H 0.03688 0.0323 0.18477 0.0
H122 H 0.99218 0.92171 0.20096 0.0
H123 H 0.95483 0.90879 0.76148 0.0
H124 H 1.03199 0.05515 0.38121 0.0
H125 H 1.02827 0.11143 0.14654 0.0
H126 H 1.01961 0.97407 0.1385 0.0
H127 H 0.14818 0.99326 0.75818 0.0
H128 H 1.02192 0.06394 1.01083 0.0
H129 H 0.2062 1.01405 0.78085 0.0
H130 H 0.96776 0.88896 0.35626 0.0
H131 H 0.08407 0.13788 0.17373 0.0
H132 H 0.1455 0.13984 0.11933 0.0
H133 H 0.95365 0.88397 0.56478 0.0
H134 H 0.19409 0.11348 0.01887 0.0
N135 N 0.07364 0.06245 0.96015 0.0
C136 C 0.04652 0.07467 0.02167 0.0
C137 C 0.08151 0.11661 0.11466 0.0
C138 C 0.10932 0.10377 0.05326 0.0
C139 C 0.05 0.10181 0.09932 0.0
C140 C 0.10456 0.07602 0.97746 0.0
H141 H 0.21707 0.06613 0.89454 0.0
N142 N 0.12575 0.03387 0.85397 0.0
C143 C 0.18542 1.0278 0.82024 0.0
C144 C 0.13157 0.06144 0.92115 0.0
C145 C 0.15238 1.01613 0.80752 0.0
C146 C 0.19145 0.05719 0.88427 0.0
C147 C 0.1644 0.07416 0.93714 0.0
O148 O 0.0612 0.99916 1.00456 0.0
O149 O 0.03998 0.99011 0.70871 0.0
O150 O 0.98192 0.02925 0.80851 0.0
O151 O 1.02128 1.00483 0.92313 0.0
O152 O 0.08944 0.9773 0.71436 0.0
O153 O 0.09816 0.97439 0.89718 0.0
O154 O 0.95653 0.03079 0.6792 0.0
O155 O 0.03445 0.05202 0.78082 0.0
O156 O 0.098 0.04203 0.70486 0.0
O157 O 0.05849 0.04166 0.55713 0.0
O158 O 1.02271 0.08104 0.64587 0.0
O159 O 0.97641 0.05087 0.52383 0.0
C160 C 0.06232 0.97136 0.65907 0.0
C161 C 0.10988 0.98075 0.0939 0.0
C162 C 0.1527 0.9553 0.21149 0.0
C163 C 0.12995 0.95354 0.119 0.0
C164 C 0.15492 0.98501 0.27752 0.0
C165 C 0.11245 1.01011 0.16109 0.0
C166 C 0.13471 1.01205 0.2513 0.0
C167 C 0.99033 1.01595 0.9067 0.0
C168 C 0.08566 0.97781 1.00028 0.0
C169 C 0.16915 0.10295 1.00703 0.0
C170 C 0.14158 0.1178 0.06476 0.0
C171 C 0.03727 0.08197 0.74439 0.0
C172 C 0.93054 0.07895 0.61352 0.0
C173 C 0.94478 0.10981 0.58924 0.0
C174 C 0.9261 0.1392 0.60214 0.0
C175 C 0.89269 0.13781 0.64243 0.0
C176 C 0.89731 0.07759 0.65575 0.0
C177 C 0.87853 0.10702 0.67073 0.0
C178 C 0.08973 0.04704 0.5971 0.0
C179 C 0.95006 0.04832 0.59058 0.0
H180 H 0.12631 0.93046 0.06949 0.0
H181 H 0.17132 0.98688 0.35085 0.0
H182 H 0.09676 0.03143 0.14653 0.0
H183 H 0.13497 0.03449 0.30194 0.0
H184 H 0.97016 0.11095 0.55409 0.0
H185 H 0.87764 0.16029 0.65062 0.0
H186 H 0.88582 0.05386 0.67556 0.0
H187 H 0.85278 0.10586 0.70202 0.0
Tb188 Tb 0.55655 0.07689 0.8349 0.0
C189 C 0.56733 0.97106 0.49685 0.0
C190 C 0.59281 0.99981 0.3383 0.0
C191 C 0.60063 0.94019 0.35149 0.0
C192 C 0.57176 0.99996 0.43742 0.0
C193 C 0.58252 0.94096 0.45563 0.0
C194 C 0.60579 0.96961 0.29281 0.0
C195 C 0.56408 0.91498 0.62828 0.0
N196 N 0.55102 0.97316 0.60019 0.0
C197 C 0.5495 0.94513 0.66593 0.0
C198 C 0.58035 0.91275 0.52224 0.0
Tb199 Tb 0.52083 1.0225 0.63663 0.0
N200 N 0.55967 0.02886 0.48608 0.0
C201 C 0.57263 0.05859 0.44879 0.0
C202 C 0.60279 0.03019 0.29368 0.0
C203 C 0.59404 0.05961 0.35268 0.0
H204 H 0.53523 0.94437 0.74486 0.0
H205 H 0.60424 0.08315 0.32513 0.0
H206 H 0.62138 0.96904 0.21573 0.0
H207 H 0.56214 0.8932 0.68062 0.0
H208 H 0.56811 0.08185 0.49468 0.0
H209 H 0.48768 0.03514 0.2135 0.0
H210 H 0.61941 0.03114 0.21932 0.0
H211 H 0.54585 0.16011 0.77507 0.0
H212 H 0.49991 0.03752 1.00454 0.0
H213 H 0.55704 0.21278 0.87801 0.0
H214 H 0.61204 0.91725 0.31832 0.0
H215 H 0.51426 0.077 0.34466 0.0
H216 H 0.55585 0.12706 0.36296 0.0
H217 H 0.5917 0.88934 0.49367 0.0
H218 H 0.57351 0.17919 0.26794 0.0
N219 N 0.53406 0.07699 0.01947 0.0
C220 C 0.51181 0.05455 0.06208 0.0
C221 C 0.52003 0.0771 0.25406 0.0
C222 C 0.53971 0.1024 0.20735 0.0
C223 C 0.50478 0.05367 0.18011 0.0
C224 C 0.54396 0.10243 0.08844 0.0
H225 H 0.56824 0.2133 0.08688 0.0
N226 N 0.54818 0.12981 0.92125 0.0
C227 C 0.5559 0.18976 0.92408 0.0
C228 C 0.55173 0.13083 0.03582 0.0
C229 C 0.54896 0.15942 0.86534 0.0
C230 C 0.56246 0.19 0.04141 0.0
C231 C 0.5597 0.16015 0.09914 0.0
O232 O 0.58493 0.10675 0.72564 0.0
O233 O 0.56727 0.04637 0.68133 0.0
O234 O 0.52529 0.99777 0.80643 0.0
O235 O 0.56132 0.02896 0.92537 0.0
O236 O 0.59872 0.04122 0.81722 0.0
O237 O 0.60087 0.09852 0.89982 0.0
O238 O 0.49243 0.97855 0.63521 0.0
O239 O 0.51014 0.04978 0.79753 0.0
O240 O 0.52467 0.10607 0.71983 0.0
O241 O 0.51296 0.07199 0.55928 0.0
O242 O 0.47384 0.05 0.67974 0.0
O243 O 0.48595 1.01371 0.50325 0.0
C244 C 0.59414 0.03161 0.71149 0.0
C245 C 0.6427 0.11203 0.76171 0.0
C246 C 0.69774 0.08636 0.76164 0.0
C247 C 0.66421 0.08741 0.79846 0.0
C248 C 0.71048 0.11113 0.69063 0.0
C249 C 0.65495 0.1362 0.6871 0.0
C250 C 0.68884 0.13578 0.65202 0.0
C251 C 0.54479 1.00062 0.89901 0.0
C252 C 0.60777 0.11298 0.80291 0.0
C253 C 0.56384 0.15815 0.21792 0.0
C254 C 0.55351 0.12896 0.27228 0.0
C255 C 0.4801 0.06027 0.78265 0.0
C256 C 0.43715 0.98986 0.59088 0.0
C257 C 0.4183 1.01786 0.56374 0.0
C258 C 0.39198 0.02954 0.63669 0.0
C259 C 0.38176 1.00944 0.72819 0.0
C260 C 0.42526 0.96929 0.67824 0.0
C261 C 0.39748 0.97895 0.74554 0.0
C262 C 0.51567 0.10214 0.61071 0.0
C263 C 0.47295 0.98799 0.55444 0.0
H264 H 0.65521 0.06932 0.85896 0.0
H265 H 0.73683 0.11129 0.66535 0.0
H266 H 0.63848 0.15554 0.65744 0.0
H267 H 0.69839 0.15471 0.59584 0.0
H268 H 0.42624 0.03169 0.49005 0.0
H269 H 0.36208 1.0171 0.78817 0.0
H270 H 0.43903 0.94715 0.70042 0.0
H271 H 0.38936 0.96372 0.81585 0.0
Tb272 Tb 0.5618 0.53702 0.62535 0.0
C273 C 0.437 0.50117 0.87802 0.0
C274 C 0.39108 0.51744 0.75728 0.0
C275 C 0.38369 0.47099 0.88408 0.0
C276 C 0.42476 0.52113 0.79329 0.0
C277 C 0.41617 0.47661 0.92692 0.0
C278 C 0.37114 0.49141 0.79944 0.0
C279 C 0.45835 0.46924 0.07075 0.0
N280 N 0.46805 0.50824 0.92071 0.0
C281 C 0.47789 0.49411 0.02074 0.0
C282 C 0.42774 0.45986 0.02203 0.0
Tb283 Tb 0.49777 0.54957 0.82987 0.0
N284 N 0.44427 0.54693 0.75795 0.0
C285 C 0.42995 0.57221 0.69938 0.0
C286 C 0.37756 0.54155 0.68726 0.0
C287 C 0.39671 0.56962 0.66154 0.0
H288 H 0.50096 0.50139 0.06218 0.0
H289 H 0.38597 0.58927 0.61211 0.0
H290 H 0.34537 0.48802 0.77176 0.0
H291 H 0.46674 0.45757 0.14777 0.0
H292 H 0.4439 0.59439 0.67925 0.0
H293 H 0.60172 0.41426 0.47115 0.0
H294 H 0.35178 0.53972 0.65823 0.0
H295 H 0.60424 0.59985 0.74746 0.0
H296 H 0.56238 0.46112 0.49722 0.0
H297 H 0.66222 0.61139 0.81015 0.0
H298 H 0.36745 0.4521 0.92004 0.0
H299 H 0.65965 0.41901 0.54496 0.0
H300 H 0.70396 0.45433 0.64244 0.0
H301 H 0.4125 0.44084 0.06187 0.0
H302 H 0.72062 0.5082 0.73275 0.0
N303 N 0.59621 0.49131 0.59725 0.0
C304 C 0.58718 0.46342 0.53331 0.0
C305 C 0.64217 0.43948 0.55957 0.0
C306 C 0.65212 0.46896 0.61724 0.0
C307 C 0.60956 0.43677 0.51716 0.0
C308 C 0.62826 0.49469 0.63492 0.0
H309 H 0.70537 0.56703 0.79412 0.0
N310 N 0.61392 0.54902 0.69836 0.0
C311 C 0.65563 0.58688 0.77541 0.0
C312 C 0.63753 0.52475 0.68611 0.0
C313 C 0.6227 0.58018 0.73979 0.0
C314 C 0.67991 0.56179 0.76625 0.0
C315 C 0.6711 0.53031 0.72034 0.0
O316 O 0.55611 0.53464 0.44711 0.0
O317 O 0.5069 0.54463 0.64632 0.0
O318 O 0.50452 0.4947 0.80589 0.0
O319 O 0.55823 0.4901 0.72306 0.0
O320 O 0.52377 0.50583 0.54183 0.0
O321 O 0.592 0.56806 0.52313 0.0
O322 O 0.51165 0.58761 0.94874 0.0
O323 O 0.5519 0.55365 0.79946 0.0
O324 O 0.55304 0.5913 0.63679 0.0
O325 O 0.50072 0.59541 0.72546 0.0
O326 O 0.53677 0.53288 0.9479 0.0
O327 O 0.45994 0.57332 0.93122 0.0
C328 C 0.49707 0.52069 0.5792 0.0
C329 C 0.60845 0.53783 0.35501 0.0
C330 C 0.61943 0.48867 0.23228 0.0
C331 C 0.5981 0.51473 0.27039 0.0
C332 C 0.65319 0.48924 0.26766 0.0
C333 C 0.64234 0.53863 0.3874 0.0
C334 C 0.66452 0.51449 0.34326 0.0
C335 C 0.53156 0.47679 0.77575 0.0
C336 C 0.58218 0.55347 0.42852 0.0
C337 C 0.6948 0.50452 0.70602 0.0
C338 C 0.6853 0.47384 0.65482 0.0
C339 C 0.56322 0.54043 0.88963 0.0
C340 C 0.477 0.59156 0.11502 0.0
C341 C 0.45115 0.61144 0.16204 0.0
C342 C 0.45294 0.62382 0.27607 0.0
C343 C 0.47727 0.61023 0.34774 0.0
C344 C 0.5009 0.57791 0.18743 0.0
C345 C 0.50017 0.58651 0.30434 0.0
C346 C 0.52607 0.60885 0.6666 0.0
C347 C 0.48135 0.59089 0.98987 0.0
H348 H 0.57164 0.51418 0.24899 0.0
H349 H 0.67052 0.46965 0.24029 0.0
H350 H 0.65117 0.55623 0.45291 0.0
H351 H 0.68993 0.51424 0.37411 0.0
H352 H 0.43223 0.62078 0.10519 0.0
H353 H 0.48013 0.6192 0.43561 0.0
H354 H 0.5209 0.56202 0.15337 0.0
H355 H 0.51896 0.57689 0.36007 0.0
Tb356 Tb 0.05245 0.55082 0.56678 0.0
C357 C 0.03891 0.42714 0.73944 0.0
C358 C 0.9919 0.40361 0.6345 0.0
C359 C 0.04045 0.36909 0.6691 0.0
C360 C 1.00786 0.43105 0.69119 0.0
C361 C 0.05514 0.3957 0.73185 0.0
C362 C 1.00874 0.373 0.6211 0.0
C363 C 0.09607 0.41705 0.86486 0.0
N364 N 0.05209 0.4534 0.80052 0.0
C365 C 0.07863 0.44733 0.87179 0.0
C366 C 0.0848 0.39138 0.79205 0.0
Tb367 Tb 1.02326 0.50431 0.79257 0.0
N368 N 0.9926 0.46125 0.7041 0.0
C369 C 0.95919 0.4636 0.6762 0.0
C370 C 0.9592 0.40749 0.595 0.0
C371 C 0.9425 0.43741 0.61849 0.0
H372 H 0.08673 0.46562 0.93541 0.0
H373 H 0.91644 0.44015 0.59443 0.0
H374 H 0.99693 0.3519 0.57714 0.0
H375 H 0.11787 0.4132 0.91724 0.0
H376 H 0.94411 0.48487 0.70104 0.0
H377 H 0.18321 0.58506 0.4924 0.0
H378 H 0.94616 0.38713 0.55087 0.0
H379 H 0.98654 0.60439 0.55908 0.0
H380 H 0.13255 0.54934 0.47212 0.0
H381 H 0.97602 0.66312 0.605 0.0
H382 H 0.05277 0.345 0.66127 0.0
H383 H 0.17886 0.64049 0.59155 0.0
H384 H 0.14162 0.68598 0.67491 0.0
H385 H 0.09804 0.36774 0.78826 0.0
H386 H 0.08421 0.70776 0.70436 0.0
N387 N 0.10061 0.58304 0.56742 0.0
C388 C 0.13058 0.57341 0.51622 0.0
C389 C 0.15673 0.62469 0.58434 0.0
C390 C 0.12515 0.63617 0.62272 0.0
C391 C 0.15926 0.59352 0.52777 0.0
C392 C 0.09713 0.61458 0.61163 0.0
H393 H 1.02237 0.70003 0.67086 0.0
N394 N 0.03854 0.60586 0.60583 0.0
C395 C 1.00105 0.65307 0.61483 0.0
C396 C 0.06487 0.62663 0.62986 0.0
C397 C 1.0072 0.61916 0.59073 0.0
C398 C 1.02725 0.67381 0.65199 0.0
C399 C 0.05983 0.66089 0.6572 0.0
O400 O 1.03149 0.5328 0.41402 0.0
O401 O 0.03583 0.50123 0.61277 0.0
O402 O 0.07869 0.51001 0.81899 0.0
O403 O 0.09856 0.53957 0.66477 0.0
O404 O 0.08147 0.50436 0.53517 0.0
O405 O 0.06477 0.57408 0.41049 0.0
O406 O 1.02252 0.48709 0.96098 0.0
O407 O 1.02874 0.55615 0.73625 0.0
O408 O 0.99693 0.54785 0.54746 0.0
O409 O 0.97821 0.53028 0.72458 0.0
O410 O 0.04464 0.54551 0.89647 0.0
O411 O 0.97775 0.50602 0.88537 0.0
C412 C 0.05899 0.48306 0.56724 0.0
C413 C 0.06681 0.53596 0.25334 0.0
C414 C 0.10629 0.49249 0.19122 0.0
C415 C 0.08116 0.50446 0.26612 0.0
C416 C 0.11306 0.51009 0.09166 0.0
C417 C 0.07383 0.55333 0.15428 0.0
C418 C 0.09638 0.53991 0.07257 0.0
C419 C 0.10376 0.52399 0.76111 0.0
C420 C 0.04824 0.55237 0.34882 0.0
C421 C 0.08767 0.68162 0.68025 0.0
C422 C 0.12036 0.66922 0.66346 0.0
C423 C 0.04125 0.56961 0.82748 0.0
C424 C 0.98554 0.51709 0.0815 0.0
C425 C 0.97893 0.55145 0.07537 0.0
C426 C 0.9671 0.56972 0.1729 0.0
C427 C 0.96637 0.55367 0.27866 0.0
C428 C 0.98381 0.50161 0.18647 0.0
C429 C 0.97451 0.51995 0.28429 0.0
C430 C 0.97204 0.54075 0.61962 0.0
C431 C 0.99164 0.49631 0.97858 0.0
H432 H 0.07559 0.49058 0.33989 0.0
H433 H 0.13286 0.502 0.03283 0.0
H434 H 0.06268 0.57755 0.14273 0.0
H435 H 0.10241 0.55337 0.99709 0.0
H436 H 0.98019 0.56311 0.99292 0.0
H437 H 0.95734 0.56633 0.35625 0.0
H438 H 0.98911 0.47521 0.19235 0.0
H439 H 0.97351 0.50779 0.36478 0.0
H440 H 0.18899 0.11904 0.24149 0.0
H441 H 0.25683 0.04385 0.35455 0.0
H442 H 0.21424 1.02497 0.49238 0.0
H443 H 0.15615 1.02759 0.57476 0.0
H444 H 0.08556 0.09799 0.44474 0.0
H445 H 0.13006 0.12101 0.32181 0.0
C446 C 0.19407 0.09793 0.29383 0.0
C447 C 0.22598 0.08214 0.28314 0.0
C448 C 0.16894 0.08685 0.37254 0.0
C449 C 0.23237 0.05573 0.35668 0.0
C450 C 0.2081 0.04533 0.43745 0.0
C451 C 0.15053 0.04828 0.52092 0.0
C452 C 0.1171 0.06083 0.5198 0.0
C453 C 0.17614 0.06047 0.44595 0.0
C454 C 0.11056 0.08729 0.44668 0.0
C455 C 0.13621 0.10058 0.37625 0.0
H456 H 0.54664 0.23754 0.36661 0.0
H457 H 0.45044 0.22081 0.20987 0.0
H458 H 0.44463 0.16787 0.31082 0.0
H459 H 0.46741 0.12619 0.45341 0.0
H460 H 0.56401 0.14869 0.60283 0.0
H461 H 0.56675 0.20077 0.50882 0.0
C462 C 0.5236 0.22325 0.35749 0.0
C463 C 0.49886 0.23404 0.28183 0.0
C464 C 0.51953 0.19419 0.42098 0.0
C465 C 0.47029 0.21339 0.26629 0.0
C466 C 0.46674 0.18316 0.32581 0.0
C467 C 0.48882 0.14268 0.46592 0.0
C468 C 0.51461 0.1337 0.54288 0.0
C469 C 0.49125 0.17316 0.40464 0.0
C470 C 0.5423 0.15554 0.55478 0.0
C471 C 0.5445 0.18532 0.49724 0.0
H472 H 0.38296 0.46439 0.24894 0.0
H473 H 0.35087 0.56709 0.25757 0.0
H474 H 0.39926 0.58235 0.37678 0.0
H475 H 0.45088 0.5657 0.48588 0.0
H476 H 0.47228 0.46113 0.51315 0.0
H477 H 0.42773 0.44728 0.37777 0.0
C478 C 0.38558 0.49004 0.27909 0.0
C479 C 0.36225 0.51422 0.24314 0.0
C480 C 0.41171 0.49827 0.35701 0.0
C481 C 0.36817 0.54765 0.27997 0.0
C482 C 0.3958 0.5564 0.35047 0.0
C483 C 0.44483 0.5399 0.46658 0.0
C484 C 0.46448 0.5146 0.51535 0.0
C485 C 0.41754 0.53183 0.3916 0.0
C486 C 0.45722 0.48129 0.4814 0.0
C487 C 0.43179 0.47328 0.4026 0.0
H488 H 1.00424 0.37093 0.21221 0.0
H489 H 0.1009 0.32679 0.2681 0.0
H490 H 0.117 0.37577 0.38929 0.0
H491 H 0.10106 0.42962 0.49681 0.0
H492 H 1.00099 0.46803 0.45561 0.0
H493 H 0.98847 0.42307 0.31686 0.0
C494 C 1.02907 0.37214 0.24955 0.0
C495 C 0.05127 0.34479 0.22937 0.0
C496 C 0.03718 0.39933 0.32582 0.0
C497 C 0.08338 0.34733 0.27913 0.0
C498 C 0.09232 0.37523 0.35078 0.0
C499 C 0.07644 0.428 0.45798 0.0
C500 C 0.05179 0.45259 0.48914 0.0
C501 C 0.06903 0.40104 0.37809 0.0
C502 C 1.0204 0.44996 0.43488 0.0
C503 C 1.01324 0.42407 0.35469 0.0
H504 H 0.88147 0.95873 0.26023 0.0
H505 H 0.84895 0.06101 0.2746 0.0
H506 H 0.89648 0.07648 0.14997 0.0
H507 H 0.94432 0.05956 0.01634 0.0
H508 H 0.97458 0.95628 0.99898 0.0
H509 H 0.93075 0.94258 0.13876 0.0
C510 C 0.8854 0.98462 0.23913 0.0
C511 C 0.86148 1.00865 0.27916 0.0
C512 C 0.91202 0.99301 0.16207 0.0
C513 C 0.86703 0.04199 0.24835 0.0
C514 C 0.89398 0.05072 0.17452 0.0
C515 C 0.94146 0.03409 0.04375 0.0
C516 C 0.96316 1.00901 0.99579 0.0
C517 C 0.9161 1.02627 0.12726 0.0
C518 C 0.95865 0.97621 0.03328 0.0
C519 C 0.93355 0.96832 0.11436 0.0
H520 H 0.50648 0.90322 0.30184 0.0
H521 H 0.58702 0.84436 0.15118 0.0
H522 H 0.60181 0.89056 0.02563 0.0
H523 H 0.58715 0.94657 0.942 0.0
H524 H 0.49123 0.98855 0.04518 0.0
H525 H 0.48649 0.95117 0.19991 0.0
C526 C 0.5267 0.89978 0.23961 0.0
C527 C 0.54493 0.86959 0.23614 0.0
C528 C 0.53235 0.92447 0.15772 0.0
C529 C 0.57247 0.86713 0.15834 0.0
C530 C 0.58058 0.89349 0.08439 0.0
C531 C 0.56543 0.94774 0.99927 0.0
C532 C 0.54157 0.97383 0.98797 0.0
C533 C 0.56001 0.92212 0.0806 0.0
C534 C 0.51242 0.97268 0.05815 0.0
C535 C 0.50894 0.95002 0.14594 0.0
H536 H 0.68557 0.59476 0.19577 0.0
H537 H 0.73113 0.50279 0.07336 0.0
H538 H 0.67938 0.4878 0.97004 0.0
H539 H 0.62028 0.50112 0.91225 0.0
H540 H 0.5785 0.59672 0.01503 0.0
H541 H 0.62873 0.60972 0.12786 0.0
C542 C 0.68429 0.57145 0.14626 0.0
C543 C 0.71239 0.54963 0.14558 0.0
C544 C 0.65478 0.56366 0.08251 0.0
C545 C 0.70986 0.51961 0.07973 0.0
C546 C 0.68026 0.51124 0.01895 0.0
C547 C 0.62251 0.52512 0.95725 0.0
C548 C 0.59577 0.54842 0.95103 0.0
C549 C 0.65243 0.53307 0.01936 0.0
C550 C 0.59878 0.57871 0.01474 0.0
C551 C 0.62762 0.58612 0.07991 0.0
H552 H 1.00892 0.71843 0.03312 0.0
H553 H 0.09355 0.69316 0.24055 0.0
H554 H 0.09917 0.63965 0.1357 0.0
H555 H 0.08455 0.60323 0.96929 0.0
H556 H 0.98801 0.61509 0.81493 0.0
H557 H 0.98321 0.67128 0.9071 0.0
C558 C 1.02779 0.70074 0.0584 0.0
C559 C 0.05157 0.71069 0.14369 0.0
C560 C 1.02967 0.66838 1.00179 0.0
C561 C 0.07518 0.68663 0.17565 0.0
C562 C 0.0788 0.65614 0.11391 0.0
C563 C 0.06192 0.61734 0.95719 0.0
C564 C 0.03785 0.60512 0.87766 0.0
C565 C 0.05699 0.64726 0.02396 0.0
C566 C 1.0086 0.62459 0.86643 0.0
C567 C 1.00535 0.65646 0.92276 0.0
H568 H 1.02726 0.2308 0.35448 0.0
H569 H 0.94011 0.25154 0.15491 0.0
H570 H 0.90528 0.21586 0.27634 0.0
H571 H 0.90071 0.1782 0.43981 0.0
H572 H 0.98641 0.16639 0.65784 0.0
H573 H 1.02061 0.20119 0.534 0.0
C574 C 1.00081 0.22654 0.33669 0.0
C575 C 0.98653 0.24137 0.24205 0.0
C576 C 0.98061 0.20915 0.41339 0.0
C577 C 0.95185 0.23814 0.22282 0.0
C578 C 0.93188 0.21868 0.29412 0.0
C579 C 0.92647 0.18438 0.46235 0.0
C580 C 0.94129 0.16961 0.55662 0.0
C581 C 0.946 0.20425 0.3903 0.0
C582 C 0.97468 0.1776 0.58531 0.0
C583 C 0.99437 0.19691 0.51347 0.0
H584 H 0.28672 0.12002 0.445 0.0
H585 H 0.36987 0.14171 0.21613 0.0
H586 H 0.40887 0.12106 0.35772 0.0
H587 H 0.41654 0.08388 0.51855 0.0
H588 H 0.32826 0.05087 0.70707 0.0
H589 H 0.29512 0.09253 0.61842 0.0
C590 C 0.31332 0.12215 0.42586 0.0
C591 C 0.32488 0.13065 0.31514 0.0
C592 C 0.33501 0.10802 0.50299 0.0
C593 C 0.35984 0.13355 0.29715 0.0
C594 C 0.38222 0.12178 0.37853 0.0
C595 C 0.38987 0.08492 0.53877 0.0
C596 C 0.37472 0.06163 0.61258 0.0
C597 C 0.36962 0.10621 0.47664 0.0
C598 C 0.34104 0.06691 0.64777 0.0
C599 C 0.32166 0.09081 0.5959 0.0
H600 H 0.50886 0.38222 0.15706 0.0
H601 H 0.5853 0.31801 0.28678 0.0
H602 H 0.62502 0.36482 0.29601 0.0
H603 H 0.6369 0.42395 0.26829 0.0
H604 H 0.56572 0.48306 0.08509 0.0
H605 H 0.52574 0.43693 0.08511 0.0
C606 C 0.53441 0.37836 0.18501 0.0
C607 C 0.54424 0.34684 0.22077 0.0
C608 C 0.55818 0.40402 0.17672 0.0
C609 C 0.57709 0.34231 0.2606 0.0
C610 C 0.59998 0.36876 0.26314 0.0
C611 C 0.61331 0.42663 0.22388 0.0
C612 C 0.60354 0.45783 0.18354 0.0
C613 C 0.59087 0.39964 0.21993 0.0
C614 C 0.57314 0.45997 0.12322 0.0
C615 C 0.55008 0.43374 0.1239 0.0
H616 H 0.24624 0.48303 0.32744 0.0
H617 H 0.25471 0.42708 1.00807 0.0
H618 H 0.19364 0.41666 1.00996 0.0
H619 H 0.13894 0.4414 0.07461 0.0
H620 H 0.13297 0.49261 0.40489 0.0
H621 H 0.19229 0.48416 0.43324 0.0
C622 C 0.23491 0.46697 0.26178 0.0
C623 C 0.25354 0.45811 0.16297 0.0
C624 C 0.2005 0.46009 0.26636 0.0
C625 C 0.23962 0.43609 0.08055 0.0
C626 C 0.20496 0.42989 0.08235 0.0
C627 C 0.15024 0.44884 0.15539 0.0
C628 C 0.13218 0.46957 0.23357 0.0
C629 C 0.18489 0.44454 0.17012 0.0
C630 C 0.14653 0.47781 0.34064 0.0
C631 C 0.18079 0.47338 0.35667 0.0
H632 H 0.12332 0.82179 0.38003 0.0
H633 H 0.11648 0.81497 1.01113 0.0
H634 H 0.15944 0.85739 0.99266 0.0
H635 H 0.18223 0.90788 0.07648 0.0
H636 H 0.15899 0.93205 0.43066 0.0
H637 H 0.14807 0.87332 0.46587 0.0
C638 C 0.13144 0.82968 0.29597 0.0
C639 C 0.1167 0.81524 0.19725 0.0
C640 C 0.15153 0.85826 0.28581 0.0
C641 C 0.12792 0.82499 0.08847 0.0
C642 C 0.15226 0.84967 0.0779 0.0
C643 C 0.17582 0.89987 0.16222 0.0
C644 C 0.16882 0.92418 0.24803 0.0
C645 C 0.16216 0.86813 0.1755 0.0
C646 C 0.16311 0.9139 0.36101 0.0
C647 C 0.1559 0.88033 0.3805 0.0
H648 H 0.73287 0.97624 0.09482 0.0
H649 H 0.78404 0.06024 0.25396 0.0
H650 H 0.77184 0.09463 0.09313 0.0
H651 H 0.74614 0.10124 0.90818 0.0
H652 H 0.69263 1.019 0.75069 0.0
H653 H 0.70911 0.98236 0.90186 0.0
C654 C 0.74039 1.00228 0.09453 0.0
C655 C 0.75789 1.01614 0.18762 0.0
C656 C 0.73499 1.02149 0.99835 0.0
C657 C 0.76874 0.04967 0.18576 0.0
C658 C 0.76286 0.06903 0.09222 0.0
C659 C 0.73952 0.07489 0.90468 0.0
C660 C 0.71921 0.06234 0.81688 0.0
C661 C 0.74638 0.0551 0.99752 0.0
C662 C 0.70975 0.02851 0.81426 0.0
C663 C 0.71805 1.00797 0.90342 0.0
H664 H 0.456 0.76461 0.4909 0.0
H665 H 0.47964 0.78096 0.13547 0.0
H666 H 0.4514 0.72941 0.07886 0.0
H667 H 0.44006 0.67411 0.13299 0.0
H668 H 0.43196 0.64932 0.49052 0.0
H669 H 0.43458 0.70878 0.54495 0.0
C670 C 0.45484 0.75663 0.40148 0.0
C671 C 0.47099 0.77563 0.31779 0.0
C672 C 0.44236 0.72482 0.37076 0.0
C673 C 0.46755 0.76648 0.20131 0.0
C674 C 0.45177 0.73681 0.16916 0.0
C675 C 0.43735 0.68112 0.22307 0.0
C676 C 0.43769 0.65685 0.30765 0.0
C677 C 0.44194 0.71463 0.25365 0.0
C678 C 0.43332 0.66738 0.42342 0.0
C679 C 0.435 0.7014 0.45466 0.0
H680 H 0.8388 0.62947 0.3203 0.0
H681 H 0.81418 0.57827 1.00194 0.0
H682 H 0.87154 0.58531 0.93146 0.0
H683 H 0.92914 0.58583 0.98944 0.0
H684 H 0.95633 0.62381 0.32606 0.0
H685 H 0.89871 0.64317 0.3597 0.0
C686 C 0.84617 0.62027 0.23535 0.0
C687 C 0.82303 0.602 0.16839 0.0
C688 C 0.88007 0.62146 0.19999 0.0
C689 C 0.83191 0.59197 0.05547 0.0
C690 C 0.86478 0.59574 0.01562 0.0
C691 C 0.92321 0.59952 0.06878 0.0
C692 C 0.94602 0.60013 0.1601 0.0
C693 C 0.88952 0.60746 0.09136 0.0
C694 C 0.93835 0.62068 0.25738 0.0
C695 C 0.90523 0.6314 0.27738 0.0
H696 H 0.08063 0.2198 1.01214 0.0
H697 H 0.97332 0.23419 1.00135 0.0
H698 H 0.96611 0.17948 0.90852 0.0
H699 H 0.98945 0.12566 0.83244 0.0
H700 H 0.0966 0.11667 0.78859 0.0
H701 H 0.10475 0.17027 0.89453 0.0
C702 C 0.05568 0.21134 0.98832 0.0
C703 C 1.02714 0.23105 0.02299 0.0
C704 C 0.05169 0.18002 0.9248 0.0
C705 C 0.99548 0.21913 0.98577 0.0
C706 C 0.99133 0.18773 0.93019 0.0
C707 C 1.01469 0.13509 0.84767 0.0
C708 C 0.0425 0.11515 0.81082 0.0
C709 C 1.01909 0.16739 0.90157 0.0
C710 C 0.07471 0.12975 0.8232 0.0
C711 C 0.07935 0.16096 0.88257 0.0
H712 H 0.35167 0.04394 0.12182 0.0
H713 H 0.33234 0.1432 1.00863 0.0
H714 H 0.38428 0.14182 0.89314 0.0
H715 H 0.43647 0.11291 0.82349 0.0
H716 H 0.45322 1.01167 0.91795 0.0
H717 H 0.40268 1.01344 0.04109 0.0
C718 C 0.35858 0.06509 0.0709 0.0
C719 C 0.33757 0.09382 0.07497 0.0
C720 C 0.3891 0.06416 1.00327 0.0
C721 C 0.34763 0.12086 1.00785 0.0
C722 C 0.37764 0.12014 0.94193 0.0
C723 C 0.42962 0.09153 0.87361 0.0
C724 C 0.45094 0.06315 0.86883 0.0
C725 C 0.39895 0.09214 0.93963 0.0
C726 C 0.43955 0.03493 0.92771 0.0
C727 C 0.4099 0.03569 0.99635 0.0
H728 H 0.56153 0.33295 0.97088 0.0
H729 H 0.45405 0.33402 0.02055 0.0
H730 H 0.45033 0.38573 0.91433 0.0
H731 H 0.47859 0.43535 0.83396 0.0
H732 H 0.58674 0.43598 0.79471 0.0
H733 H 0.58928 0.37963 0.86913 0.0
C734 C 0.53716 0.34369 0.95365 0.0
C735 C 0.508 0.32928 1.0038 0.0
C736 C 0.53548 0.37459 0.89695 0.0
C737 C 0.47674 0.34408 0.98215 0.0
C738 C 0.47475 0.37415 0.92319 0.0
C739 C 0.50276 0.42317 0.8408 0.0
C740 C 0.5325 0.44062 0.80969 0.0
C741 C 0.50409 0.3905 0.88488 0.0
C742 C 0.56338 0.42367 0.8176 0.0
C743 C 0.56486 0.39121 0.86042 0.0
H744 H 0.25047 0.47216 0.89553 0.0
H745 H 0.25007 0.56305 0.10214 0.0
H746 H 0.1971 0.5797 1.01322 0.0
H747 H 0.14778 0.56644 0.88544 0.0
H748 H 0.14225 0.46883 0.72013 0.0
H749 H 0.19915 0.45633 0.78546 0.0
C750 C 0.23836 0.49508 0.92462 0.0
C751 C 0.25448 0.5157 1.0091 0.0
C752 C 0.20615 0.50319 0.88018 0.0
C753 C 0.23892 0.54651 0.03782 0.0
C754 C 0.20818 0.55588 0.98757 0.0
C755 C 0.15871 0.5422 0.86505 0.0
C756 C 0.13986 0.51834 0.79887 0.0
C757 C 0.19101 0.53414 0.9102 0.0
C758 C 0.15552 0.48759 0.77129 0.0
C759 C 0.18826 0.4804 0.80902 0.0
H760 H 0.06941 0.86384 0.23487 0.0
H761 H 0.04011 0.79653 0.49972 0.0
H762 H 0.0346 0.84389 0.63688 0.0
H763 H 0.04211 0.905 0.68901 0.0
H764 H 0.08101 0.97008 0.43192 0.0
H765 H 0.08067 0.92364 0.28948 0.0
C766 C 0.06201 0.85918 0.32267 0.0
C767 C 0.05508 0.82558 0.35422 0.0
C768 C 0.06125 0.88668 0.40483 0.0
C769 C 0.04499 0.82135 0.46955 0.0
C770 C 0.04238 0.84872 0.54953 0.0
C771 C 0.04989 0.90924 0.60123 0.0
C772 C 0.05954 0.9422 0.57089 0.0
C773 C 0.05088 0.88159 0.51922 0.0
C774 C 0.07182 0.94593 0.45788 0.0
C775 C 0.07181 0.91907 0.37586 0.0
H776 H 0.72784 0.96596 0.48313 0.0
H777 H 0.74728 0.06876 0.40797 0.0
H778 H 0.69041 0.08374 0.47359 0.0
H779 H 0.6363 0.06929 0.57231 0.0
H780 H 0.62166 0.96911 0.68569 0.0
H781 H 0.67409 0.95166 0.58773 0.0
C782 C 0.72001 0.99186 0.48426 0.0
C783 C 0.7427 1.01613 0.44092 0.0
C784 C 0.68748 1.00085 0.52978 0.0
C785 C 0.73124 0.04938 0.44099 0.0
C786 C 0.69839 0.05804 0.47922 0.0
C787 C 0.6444 0.04359 0.57543 0.0
C788 C 0.62402 1.02052 0.63558 0.0
C789 C 0.6764 0.03426 0.52635 0.0
C790 C 0.63582 0.98741 0.63844 0.0
C791 C 0.66625 0.97745 0.58301 0.0
H792 H 0.50668 0.7654 0.58656 0.0
H793 H 0.56382 0.74089 0.27965 0.0
H794 H 0.56976 0.68301 0.34099 0.0
H795 H 0.55591 0.63802 0.47799 0.0
H796 H 0.49184 0.66133 0.77107 0.0
H797 H 0.49025 0.71998 0.71767 0.0
C798 C 0.52039 0.74734 0.533 0.0
C799 C 0.53477 0.7578 0.42804 0.0
C800 C 0.52189 0.71343 0.56587 0.0
C801 C 0.55287 0.73396 0.36105 0.0
C802 C 0.55585 0.70063 0.39572 0.0
C803 C 0.54165 0.65592 0.53065 0.0
C804 C 0.52425 0.64482 0.62991 0.0
C805 C 0.54004 0.68983 0.49724 0.0
C806 C 0.5055 0.66867 0.69482 0.0
C807 C 0.50474 0.70245 0.66441 0.0
H808 H 0.82668 0.593 0.46608 0.0
H809 H 0.8341 0.50567 0.24227 0.0
H810 H 0.88621 0.48951 0.33663 0.0
H811 H 0.931 0.50077 0.48054 0.0
H812 H 0.93034 0.59387 0.67529 0.0
H813 H 0.87466 0.60682 0.59831 0.0
C814 C 0.83984 0.57057 0.4371 0.0
C815 C 0.82569 0.5504 0.34703 0.0
C816 C 0.87132 0.56245 0.48756 0.0
C817 C 0.84339 0.52128 0.31257 0.0
C818 C 0.87358 0.51221 0.36611 0.0
C819 C 0.91936 0.52443 0.50373 0.0
C820 C 0.93598 0.54671 0.58182 0.0
C821 C 0.88805 0.5327 0.4531 0.0
C822 C 0.91876 0.57619 0.61544 0.0
C823 C 0.88682 0.58372 0.57046 0.0
loop_
_geom_bond_atom_site_label_1
_geom_bond_atom_site_label_2
_geom_bond_distance
_geom_bond_site_symmetry_2
_ccdc_geom_bond_type
C0 N1 1.317 . S
C0 N2 1.348 . S
C0 C3 1.485 . S
N1 C0 1.317 . S
N1 N5 1.370 . S
N2 C0 1.348 . S
N2 C4 1.346 . S
C3 C0 1.485 . S
C3 H7 0.960 . S
C3 H8 0.961 . S
C3 H9 0.960 . S
C4 N2 1.346 . S
C4 N5 1.307 . S
C4 C6 1.486 . S
N5 N1 1.370 . S
N5 C4 1.307 . S
C6 C4 1.486 . S
C6 H10 0.960 . S
C6 H11 0.960 . S
C6 H12 0.959 . S
H7 C3 0.960 . S
H8 C3 0.961 . S
H9 C3 0.960 . S
H10 C6 0.960 . S
H11 C6 0.960 . S
H12 C6 0.959 . S
C13 N14 1.317 . S
C13 N15 1.348 . S
C13 C16 1.485 . S
N14 C13 1.317 . S
N14 N18 1.370 . S
N15 C13 1.348 . S
N15 C17 1.346 . S
C16 C13 1.485 . S
C16 H20 0.960 . S
C16 H21 0.961 . S
C16 H22 0.960 . S
C17 N15 1.346 . S
C17 N18 1.307 . S
C17 C19 1.486 . S
N18 N14 1.370 . S
N18 C17 1.307 . S
C19 C17 1.486 . S
C19 H23 0.960 . S
C19 H24 0.960 . S
C19 H25 0.959 . S
H20 C16 0.960 . S
H21 C16 0.961 . S
H22 C16 0.960 . S
H23 C19 0.960 . S
H24 C19 0.960 . S
H25 C19 0.959 . S
C26 N27 1.317 . S
C26 N28 1.348 . S
C26 C29 1.485 . S
N27 C26 1.317 . S
N27 N31 1.370 . S
N28 C26 1.348 . S
N28 C30 1.346 . S
C29 C26 1.485 . S
C29 H33 0.960 . S
C29 H34 0.961 . S
C29 H35 0.960 . S
C30 N28 1.346 . S
C30 N31 1.307 . S
C30 C32 1.486 . S
N31 N27 1.370 . S
N31 C30 1.307 . S
C32 C30 1.486 . S
C32 H36 0.960 . S
C32 H37 0.960 . S
C32 H38 0.959 . S
H33 C29 0.960 . S
H34 C29 0.961 . S
H35 C29 0.960 . S
H36 C32 0.960 . S
H37 C32 0.960 . S
H38 C32 0.959 . S
C39 N40 1.317 . S
C39 N41 1.348 . S
C39 C42 1.485 . S
N40 C39 1.317 . S
N40 N44 1.370 . S
N41 C39 1.348 . S
N41 C43 1.346 . S
C42 C39 1.485 . S
C42 H46 0.960 . S
C42 H47 0.961 . S
C42 H48 0.960 . S
C43 N41 1.346 . S
C43 N44 1.307 . S
C43 C45 1.486 . S
N44 N40 1.370 . S
N44 C43 1.307 . S
C45 C43 1.486 . S
C45 H49 0.960 . S
C45 H50 0.960 . S
C45 H51 0.959 . S
H46 C42 0.960 . S
H47 C42 0.961 . S
H48 C42 0.960 . S
H49 C45 0.960 . S
H50 C45 0.960 . S
H51 C45 0.959 . S
C52 N53 1.317 . S
C52 N54 1.348 1_556 S
C52 C55 1.485 . S
N53 C52 1.317 . S
N53 N57 1.370 1_556 S
N54 C52 1.348 1_554 S
N54 C56 1.346 . S
C55 C52 1.485 . S
C55 H59 0.960 . S
C55 H60 0.961 . S
C55 H61 0.960 . S
C56 N54 1.346 . S
C56 N57 1.307 . S
C56 C58 1.486 . S
N57 N53 1.370 1_554 S
N57 C56 1.307 . S
C58 C56 1.486 . S
C58 H62 0.960 . S
C58 H63 0.960 . S
C58 H64 0.959 . S
H59 C55 0.960 . S
H60 C55 0.961 . S
H61 C55 0.960 . S
H62 C58 0.960 . S
H63 C58 0.960 . S
H64 C58 0.959 . S
C65 N66 1.317 . S
C65 N67 1.348 1_556 S
C65 C68 1.485 . S
N66 C65 1.317 . S
N66 N70 1.370 1_556 S
N67 C65 1.348 1_554 S
N67 C69 1.346 . S
C68 C65 1.485 . S
C68 H72 0.960 . S
C68 H73 0.961 . S
C68 H74 0.960 . S
C69 N67 1.346 . S
C69 N70 1.307 . S
C69 C71 1.486 . S
N70 N66 1.370 1_554 S
N70 C69 1.307 . S
C71 C69 1.486 . S
C71 H75 0.960 . S
C71 H76 0.960 . S
C71 H77 0.959 . S
H72 C68 0.960 . S
H73 C68 0.961 . S
H74 C68 0.960 . S
H75 C71 0.960 . S
H76 C71 0.960 . S
H77 C71 0.959 . S
C78 N79 1.317 . S
C78 N80 1.348 1_556 S
C78 C81 1.485 . S
N79 C78 1.317 . S
N79 N83 1.370 1_556 S
N80 C78 1.348 1_554 S
N80 C82 1.346 . S
C81 C78 1.485 . S
C81 H85 0.960 . S
C81 H86 0.961 . S
C81 H87 0.960 . S
C82 N80 1.346 . S
C82 N83 1.307 . S
C82 C84 1.486 . S
N83 N79 1.370 1_554 S
N83 C82 1.307 . S
C84 C82 1.486 . S
C84 H88 0.960 . S
C84 H89 0.960 . S
C84 H90 0.959 . S
H85 C81 0.960 . S
H86 C81 0.961 . S
H87 C81 0.960 . S
H88 C84 0.960 . S
H89 C84 0.960 . S
H90 C84 0.959 . S
C91 N92 1.317 . S
C91 N93 1.348 1_556 S
C91 C94 1.485 . S
N92 C91 1.317 . S
N92 N96 1.370 1_556 S
N93 C91 1.348 1_554 S
N93 C95 1.346 . S
C94 C91 1.485 . S
C94 H98 0.960 . S
C94 H99 0.961 . S
C94 H100 0.960 . S
C95 N93 1.346 . S
C95 N96 1.307 . S
C95 C97 1.486 . S
N96 N92 1.370 1_554 S
N96 C95 1.307 . S
C97 C95 1.486 . S
C97 H101 0.960 . S
C97 H102 0.960 . S
C97 H103 0.959 . S
H98 C94 0.960 . S
H99 C94 0.961 . S
H100 C94 0.960 . S
H101 C97 0.960 . S
H102 C97 0.960 . S
H103 C97 0.959 . S
Tb104 N135 2.660 1_566 S
Tb104 N142 2.600 1_565 S
Tb104 O148 2.546 . S
Tb104 O149 2.610 1_455 S
Tb104 O151 2.320 1_455 S
Tb104 O152 2.552 . S
Tb104 O153 2.413 . S
Tb104 O155 2.362 1_565 S
Tb104 O156 2.421 . S
Tb104 C168 2.833 . S
C105 C108 1.432 . S
C105 C109 1.414 . S
C105 N112 1.359 1_565 S
C106 C108 1.417 . S
C106 C110 1.432 . S
C106 C118 1.410 . S
C107 C109 1.444 . S
C107 C110 1.317 . S
C107 H130 0.929 . S
C108 C105 1.432 . S
C108 C106 1.417 . S
C108 N116 1.360 . S
C109 C105 1.414 . S
C109 C107 1.444 . S
C109 C114 1.385 1_565 S
C110 C106 1.432 . S
C110 C107 1.317 . S
C110 H122 0.930 . S
C111 C113 1.392 . S
C111 C114 1.370 . S
C111 H123 0.931 . S
N112 C105 1.359 1_545 S
N112 C113 1.327 . S
N112 Tb115 2.600 . S
C113 C111 1.392 . S
C113 N112 1.327 . S
C113 H120 0.930 . S
C114 C109 1.385 1_545 S
C114 C111 1.370 . S
C114 H133 0.930 . S
Tb115 N112 2.600 . S
Tb115 N116 2.660 1_545 S
Tb115 O149 2.362 1_545 S
Tb115 O150 2.421 . S
Tb115 O154 2.546 . S
Tb115 O155 2.610 1_655 S
Tb115 O157 2.320 1_655 S
Tb115 O158 2.552 1_655 S
Tb115 O159 2.413 . S
Tb115 C179 2.833 . S
N116 C108 1.360 . S
N116 Tb115 2.660 1_565 S
N116 C117 1.305 1_655 S
C117 N116 1.305 1_455 S
C117 C119 1.407 . S
C117 H124 0.930 . S
C118 C106 1.410 . S
C118 C119 1.345 1_655 S
C118 H126 0.930 . S
C119 C117 1.407 . S
C119 C118 1.345 1_455 S
C119 H121 0.930 . S
H120 C113 0.930 . S
H121 C119 0.930 . S
H122 C110 0.930 . S
H123 C111 0.931 . S
H124 C117 0.930 . S
H125 C139 0.930 1_655 S
H126 C118 0.930 . S
H127 C145 0.930 . S
H128 C136 0.930 1_655 S
H129 C143 0.931 . S
H130 C107 0.929 . S
H131 C137 0.930 . S
H132 C170 0.930 . S
H133 C114 0.930 . S
H134 C169 0.929 . S
N135 Tb104 2.660 1_544 S
N135 C136 1.305 . S
N135 C140 1.360 . S
C136 H128 0.930 1_455 S
C136 N135 1.305 . S
C136 C139 1.407 . S
C137 H131 0.930 . S
C137 C138 1.410 . S
C137 C139 1.345 . S
C138 C137 1.410 . S
C138 C140 1.417 . S
C138 C170 1.432 . S
C139 H125 0.930 1_455 S
C139 C136 1.407 . S
C139 C137 1.345 . S
C140 N135 1.360 . S
C140 C138 1.417 . S
C140 C144 1.432 . S
H141 C146 0.926 1_554 S
N142 Tb104 2.600 1_545 S
N142 C144 1.359 1_556 S
N142 C145 1.327 1_545 S
C143 H129 0.931 . S
C143 C145 1.392 . S
C143 C146 1.376 1_565 S
C144 C140 1.432 . S
C144 N142 1.359 1_554 S
C144 C147 1.414 . S
C145 H127 0.930 . S
C145 N142 1.327 1_565 S
C145 C143 1.392 . S
C146 H141 0.926 1_556 S
C146 C143 1.376 1_545 S
C146 C147 1.381 1_556 S
C147 C144 1.414 . S
C147 C146 1.381 1_554 S
C147 C169 1.444 . S
O148 Tb104 2.546 . S
O148 C168 1.251 . S
O149 Tb104 2.610 1_655 S
O149 Tb115 2.362 1_565 S
O149 C160 1.283 . S
O150 Tb115 2.421 . S
O150 C167 1.262 . S
O151 Tb104 2.320 1_655 S
O151 C167 1.260 1_565 S
O152 Tb104 2.552 . S
O152 C160 1.243 1_455 S
O153 Tb104 2.413 . S
O153 C168 1.256 . S
O154 Tb115 2.546 . S
O154 C179 1.251 . S
O155 Tb104 2.362 1_545 S
O155 Tb115 2.610 1_455 S
O155 C171 1.283 . S
O156 Tb104 2.421 . S
O156 C178 1.262 1_565 S
O157 Tb115 2.320 1_455 S
O157 C178 1.260 . S
O158 Tb115 2.552 1_455 S
O158 C171 1.243 . S
O159 Tb115 2.413 . S
O159 C179 1.256 . S
C160 O149 1.283 . S
C160 O152 1.243 1_655 S
C161 C163 1.382 . S
C161 C165 1.393 . S
C161 C168 1.500 1_554 S
C162 C163 1.400 . S
C162 C164 1.384 . S
C163 C161 1.382 . S
C163 C162 1.400 . S
C163 H180 0.930 . S
C164 C162 1.384 . S
C164 C166 1.392 . S
C164 H181 0.931 . S
C165 C161 1.393 . S
C165 C166 1.401 . S
C165 H182 0.930 . S
C166 C164 1.392 . S
C166 C165 1.401 . S
C166 H183 0.930 . S
C167 O150 1.262 . S
C167 O151 1.260 1_545 S
C168 Tb104 2.833 . S
C168 O148 1.251 . S
C168 O153 1.256 . S
C168 C161 1.500 1_556 S
C169 H134 0.929 . S
C169 C147 1.444 . S
C169 C170 1.317 . S
C170 H132 0.930 . S
C170 C138 1.432 . S
C170 C169 1.317 . S
C171 O155 1.283 . S
C171 O158 1.243 . S
C172 C173 1.382 . S
C172 C176 1.393 . S
C172 C179 1.500 . S
C173 C172 1.382 . S
C173 C174 1.400 . S
C173 H184 0.930 1_655 S
C174 C173 1.400 . S
C174 C175 1.384 . S
C175 C174 1.384 . S
C175 C177 1.392 . S
C175 H185 0.931 . S
C176 C172 1.393 . S
C176 C177 1.401 . S
C176 H186 0.930 . S
C177 C175 1.392 . S
C177 C176 1.401 . S
C177 H187 0.930 . S
C178 O156 1.262 1_545 S
C178 O157 1.260 . S
C179 Tb115 2.833 . S
C179 O154 1.251 . S
C179 O159 1.256 . S
C179 C172 1.500 . S
H180 C163 0.930 . S
H181 C164 0.931 . S
H182 C165 0.930 . S
H183 C166 0.930 . S
H184 C173 0.930 1_455 S
H185 C175 0.931 . S
H186 C176 0.930 . S
H187 C177 0.930 . S
Tb188 N219 2.660 1_556 S
Tb188 N226 2.600 . S
Tb188 O232 2.546 . S
Tb188 O233 2.610 1_545 S
Tb188 O235 2.320 1_545 S
Tb188 O236 2.552 . S
Tb188 O237 2.413 . S
Tb188 O239 2.362 . S
Tb188 O240 2.421 . S
Tb188 C252 2.833 . S
C189 C192 1.432 . S
C189 C193 1.414 . S
C189 N196 1.359 . S
C190 C192 1.417 . S
C190 C194 1.432 . S
C190 C202 1.410 . S
C191 C193 1.444 . S
C191 C194 1.317 . S
C191 H214 0.929 . S
C192 C189 1.432 . S
C192 C190 1.417 . S
C192 N200 1.360 . S
C193 C189 1.414 . S
C193 C191 1.444 . S
C193 C198 1.385 . S
C194 C190 1.432 . S
C194 C191 1.317 . S
C194 H206 0.930 . S
C195 C197 1.392 . S
C195 C198 1.370 . S
C195 H207 0.931 . S
N196 C189 1.359 . S
N196 C197 1.327 . S
N196 Tb199 2.600 . S
C197 C195 1.392 . S
C197 N196 1.327 . S
C197 H204 0.930 . S
C198 C193 1.385 . S
C198 C195 1.370 . S
C198 H217 0.930 . S
Tb199 N196 2.600 . S
Tb199 N200 2.660 . S
Tb199 O233 2.362 . S
Tb199 O234 2.421 . S
Tb199 O238 2.546 . S
Tb199 O239 2.610 1_565 S
Tb199 O241 2.320 1_565 S
Tb199 O242 2.552 1_565 S
Tb199 O243 2.413 . S
Tb199 C263 2.833 . S
N200 C192 1.360 . S
N200 Tb199 2.660 . S
N200 C201 1.305 1_565 S
C201 N200 1.305 1_545 S
C201 C203 1.407 . S
C201 H208 0.930 . S
C202 C190 1.410 . S
C202 C203 1.345 1_565 S
C202 H210 0.930 . S
C203 C201 1.407 . S
C203 C202 1.345 1_545 S
C203 H205 0.930 . S
H204 C197 0.930 . S
H205 C203 0.930 . S
H206 C194 0.930 . S
H207 C195 0.931 . S
H208 C201 0.930 . S
H209 C223 0.930 1_565 S
H210 C202 0.930 . S
H211 C229 0.930 . S
H212 C220 0.930 1_565 S
H213 C227 0.931 . S
H214 C191 0.929 . S
H215 C221 0.930 . S
H216 C254 0.930 . S
H217 C198 0.930 . S
H218 C253 0.929 . S
N219 Tb188 2.660 1_554 S
N219 C220 1.305 . S
N219 C224 1.360 . S
C220 H212 0.930 1_545 S
C220 N219 1.305 . S
C220 C223 1.407 . S
C221 H215 0.930 . S
C221 C222 1.410 . S
C221 C223 1.345 . S
C222 C221 1.410 . S
C222 C224 1.417 . S
C222 C254 1.432 . S
C223 H209 0.930 1_545 S
C223 C220 1.407 . S
C223 C221 1.345 . S
C224 N219 1.360 . S
C224 C222 1.417 . S
C224 C228 1.432 . S
H225 C230 0.930 . S
N226 Tb188 2.600 . S
N226 C228 1.359 1_556 S
N226 C229 1.327 . S
C227 H213 0.931 . S
C227 C229 1.392 . S
C227 C230 1.370 1_556 S
C228 C224 1.432 . S
C228 N226 1.359 1_554 S
C228 C231 1.414 . S
C229 H211 0.930 . S
C229 N226 1.327 . S
C229 C227 1.392 . S
C230 H225 0.930 . S
C230 C227 1.370 1_554 S
C230 C231 1.385 . S
C231 C228 1.414 . S
C231 C230 1.385 . S
C231 C253 1.444 . S
O232 Tb188 2.546 . S
O232 C252 1.251 . S
O233 Tb188 2.610 1_565 S
O233 Tb199 2.362 . S
O233 C244 1.283 . S
O234 Tb199 2.421 . S
O234 C251 1.262 . S
O235 Tb188 2.320 1_565 S
O235 C251 1.260 . S
O236 Tb188 2.552 . S
O236 C244 1.243 1_545 S
O237 Tb188 2.413 . S
O237 C252 1.256 . S
O238 Tb199 2.546 . S
O238 C263 1.251 . S
O239 Tb188 2.362 . S
O239 Tb199 2.610 1_545 S
O239 C255 1.283 . S
O240 Tb188 2.421 . S
O240 C262 1.262 . S
O241 Tb199 2.320 1_545 S
O241 C262 1.260 . S
O242 Tb199 2.552 1_545 S
O242 C255 1.243 . S
O243 Tb199 2.413 . S
O243 C263 1.256 . S
C244 O233 1.283 . S
C244 O236 1.243 1_565 S
C245 C247 1.382 . S
C245 C249 1.393 . S
C245 C252 1.500 1_554 S
C246 C247 1.400 . S
C246 C248 1.384 . S
C247 C245 1.382 . S
C247 C246 1.400 . S
C247 H264 0.930 . S
C248 C246 1.384 . S
C248 C250 1.392 . S
C248 H265 0.931 . S
C249 C245 1.393 . S
C249 C250 1.401 . S
C249 H266 0.930 . S
C250 C248 1.392 . S
C250 C249 1.401 . S
C250 H267 0.930 . S
C251 O234 1.262 . S
C251 O235 1.260 . S
C252 Tb188 2.833 . S
C252 O232 1.251 . S
C252 O237 1.256 . S
C252 C245 1.500 1_556 S
C253 H218 0.929 . S
C253 C231 1.444 . S
C253 C254 1.317 . S
C254 H216 0.930 . S
C254 C222 1.432 . S
C254 C253 1.317 . S
C255 O239 1.283 . S
C255 O242 1.243 . S
C256 C257 1.382 . S
C256 C260 1.393 . S
C256 C263 1.500 . S
C257 C256 1.382 . S
C257 C258 1.400 . S
C257 H268 0.930 1_565 S
C258 C257 1.400 . S
C258 C259 1.384 . S
C259 C258 1.384 . S
C259 C261 1.392 . S
C259 H269 0.931 . S
C260 C256 1.393 . S
C260 C261 1.401 . S
C260 H270 0.930 . S
C261 C259 1.392 . S
C261 C260 1.401 . S
C261 H271 0.930 . S
C262 O240 1.262 . S
C262 O241 1.260 . S
C263 Tb199 2.833 . S
C263 O238 1.251 . S
C263 O243 1.256 . S
C263 C256 1.500 . S
H264 C247 0.930 . S
H265 C248 0.931 . S
H266 C249 0.930 . S
H267 C250 0.930 . S
H268 C257 0.930 1_545 S
H269 C259 0.931 . S
H270 C260 0.930 . S
H271 C261 0.930 . S
Tb272 N303 2.660 . S
Tb272 N310 2.600 . S
Tb272 O316 2.546 . S
Tb272 O317 2.610 . S
Tb272 O319 2.320 . S
Tb272 O320 2.552 . S
Tb272 O321 2.413 . S
Tb272 O323 2.362 . S
Tb272 O324 2.421 . S
Tb272 C336 2.833 . S
C273 C276 1.432 . S
C273 C277 1.414 . S
C273 N280 1.359 . S
C274 C276 1.417 . S
C274 C278 1.432 . S
C274 C286 1.410 . S
C275 C277 1.444 . S
C275 C278 1.317 . S
C275 H298 0.929 . S
C276 C273 1.432 . S
C276 C274 1.417 . S
C276 N284 1.360 . S
C277 C273 1.414 . S
C277 C275 1.444 . S
C277 C282 1.385 1_556 S
C278 C274 1.432 . S
C278 C275 1.317 . S
C278 H290 0.930 . S
C279 C281 1.392 1_554 S
C279 C282 1.370 . S
C279 H291 0.931 . S
N280 C273 1.359 . S
N280 C281 1.327 . S
N280 Tb283 2.600 . S
C281 C279 1.392 1_556 S
C281 N280 1.327 . S
C281 H288 0.930 1_556 S
C282 C277 1.385 1_554 S
C282 C279 1.370 . S
C282 H301 0.930 . S
Tb283 N280 2.600 . S
Tb283 N284 2.660 . S
Tb283 O317 2.362 . S
Tb283 O318 2.421 . S
Tb283 O322 2.546 1_556 S
Tb283 O323 2.610 . S
Tb283 O325 2.320 . S
Tb283 O326 2.552 . S
Tb283 O327 2.413 . S
Tb283 C347 2.833 1_556 S
N284 C276 1.360 . S
N284 Tb283 2.660 . S
N284 C285 1.305 . S
C285 N284 1.305 . S
C285 C287 1.407 . S
C285 H292 0.930 . S
C286 C274 1.410 . S
C286 C287 1.345 . S
C286 H294 0.930 . S
C287 C285 1.407 . S
C287 C286 1.345 . S
C287 H289 0.930 . S
H288 C281 0.930 1_554 S
H289 C287 0.930 . S
H290 C278 0.930 . S
H291 C279 0.931 . S
H292 C285 0.930 . S
H293 C307 0.930 . S
H294 C286 0.930 . S
H295 C313 0.930 . S
H296 C304 0.930 . S
H297 C311 0.931 . S
H298 C275 0.929 . S
H299 C305 0.930 . S
H300 C338 0.930 . S
H301 C282 0.930 . S
H302 C337 0.929 . S
N303 Tb272 2.660 . S
N303 C304 1.305 . S
N303 C308 1.360 . S
C304 H296 0.930 . S
C304 N303 1.305 . S
C304 C307 1.407 . S
C305 H299 0.930 . S
C305 C306 1.410 . S
C305 C307 1.345 . S
C306 C305 1.410 . S
C306 C308 1.417 . S
C306 C338 1.432 . S
C307 H293 0.930 . S
C307 C304 1.407 . S
C307 C305 1.345 . S
C308 N303 1.360 . S
C308 C306 1.417 . S
C308 C312 1.432 . S
H309 C314 0.930 . S
N310 Tb272 2.600 . S
N310 C312 1.359 . S
N310 C313 1.327 . S
C311 H297 0.931 . S
C311 C313 1.392 . S
C311 C314 1.370 . S
C312 C308 1.432 . S
C312 N310 1.359 . S
C312 C315 1.414 . S
C313 H295 0.930 . S
C313 N310 1.327 . S
C313 C311 1.392 . S
C314 H309 0.930 . S
C314 C311 1.370 . S
C314 C315 1.385 . S
C315 C312 1.414 . S
C315 C314 1.385 . S
C315 C337 1.444 . S
O316 Tb272 2.546 . S
O316 C336 1.251 . S
O317 Tb272 2.610 . S
O317 Tb283 2.362 . S
O317 C328 1.283 . S
O318 Tb283 2.421 . S
O318 C335 1.262 . S
O319 Tb272 2.320 . S
O319 C335 1.260 . S
O320 Tb272 2.552 . S
O320 C328 1.243 . S
O321 Tb272 2.413 . S
O321 C336 1.256 . S
O322 Tb283 2.546 1_554 S
O322 C347 1.251 . S
O323 Tb272 2.362 . S
O323 Tb283 2.610 . S
O323 C339 1.283 . S
O324 Tb272 2.421 . S
O324 C346 1.262 . S
O325 Tb283 2.320 . S
O325 C346 1.260 . S
O326 Tb283 2.552 . S
O326 C339 1.243 . S
O327 Tb283 2.413 . S
O327 C347 1.256 1_556 S
C328 O317 1.283 . S
C328 O320 1.243 . S
C329 C331 1.382 . S
C329 C333 1.393 . S
C329 C336 1.500 . S
C330 C331 1.400 . S
C330 C332 1.384 . S
C331 C329 1.382 . S
C331 C330 1.400 . S
C331 H348 0.930 . S
C332 C330 1.384 . S
C332 C334 1.392 . S
C332 H349 0.931 . S
C333 C329 1.393 . S
C333 C334 1.401 . S
C333 H350 0.930 . S
C334 C332 1.392 . S
C334 C333 1.401 . S
C334 H351 0.930 . S
C335 O318 1.262 . S
C335 O319 1.260 . S
C336 Tb272 2.833 . S
C336 O316 1.251 . S
C336 O321 1.256 . S
C336 C329 1.500 . S
C337 H302 0.929 . S
C337 C315 1.444 . S
C337 C338 1.317 . S
C338 H300 0.930 . S
C338 C306 1.432 . S
C338 C337 1.317 . S
C339 O323 1.283 . S
C339 O326 1.243 . S
C340 C341 1.382 . S
C340 C344 1.393 . S
C340 C347 1.500 . S
C341 C340 1.382 . S
C341 C342 1.400 . S
C341 H352 0.930 . S
C342 C341 1.400 . S
C342 C343 1.384 . S
C343 C342 1.384 . S
C343 C345 1.392 . S
C343 H353 0.931 . S
C344 C340 1.393 . S
C344 C345 1.401 . S
C344 H354 0.930 . S
C345 C343 1.392 . S
C345 C344 1.401 . S
C345 H355 0.930 . S
C346 O324 1.262 . S
C346 O325 1.260 . S
C347 Tb283 2.833 1_554 S
C347 O322 1.251 . S
C347 O327 1.256 1_554 S
C347 C340 1.500 . S
H348 C331 0.930 . S
H349 C332 0.931 . S
H350 C333 0.930 . S
H351 C334 0.930 . S
H352 C341 0.930 . S
H353 C343 0.931 . S
H354 C344 0.930 . S
H355 C345 0.930 . S
Tb356 N387 2.660 . S
Tb356 N394 2.600 . S
Tb356 O400 2.546 . S
Tb356 O401 2.610 . S
Tb356 O403 2.320 . S
Tb356 O404 2.552 . S
Tb356 O405 2.413 . S
Tb356 O407 2.362 . S
Tb356 O408 2.421 1_455 S
Tb356 C420 2.833 . S
C357 C360 1.432 . S
C357 C361 1.414 . S
C357 N364 1.356 1_655 S
C358 C360 1.417 . S
C358 C362 1.432 . S
C358 C370 1.410 . S
C359 C361 1.444 . S
C359 C362 1.317 . S
C359 H382 0.929 . S
C360 C357 1.432 . S
C360 C358 1.417 . S
C360 N368 1.360 . S
C361 C357 1.414 . S
C361 C359 1.444 . S
C361 C366 1.385 1_656 S
C362 C358 1.432 . S
C362 C359 1.317 . S
C362 H374 0.930 . S
C363 C365 1.392 1_554 S
C363 C366 1.370 . S
C363 H375 0.931 . S
N364 C357 1.356 1_455 S
N364 C365 1.331 . S
N364 Tb367 2.598 1_455 S
C365 C363 1.392 1_556 S
C365 N364 1.331 . S
C365 H372 0.930 1_556 S
C366 C361 1.385 1_454 S
C366 C363 1.370 . S
C366 H385 0.930 . S
Tb367 N364 2.598 1_655 S
Tb367 N368 2.660 . S
Tb367 O401 2.362 1_655 S
Tb367 O402 2.421 1_655 S
Tb367 O406 2.546 1_556 S
Tb367 O407 2.610 1_655 S
Tb367 O409 2.320 . S
Tb367 O410 2.552 . S
Tb367 O411 2.413 . S
Tb367 C431 2.833 1_556 S
N368 C360 1.360 . S
N368 Tb367 2.660 . S
N368 C369 1.305 . S
C369 N368 1.305 . S
C369 C371 1.407 . S
C369 H376 0.930 . S
C370 C358 1.410 . S
C370 C371 1.345 . S
C370 H378 0.930 . S
C371 C369 1.407 . S
C371 C370 1.345 . S
C371 H373 0.930 . S
H372 C365 0.930 1_554 S
H373 C371 0.930 . S
H374 C362 0.930 . S
H375 C363 0.931 . S
H376 C369 0.930 . S
H377 C391 0.930 . S
H378 C370 0.930 . S
H379 C397 0.930 . S
H380 C388 0.930 . S
H381 C395 0.931 . S
H382 C359 0.929 . S
H383 C389 0.930 . S
H384 C422 0.930 . S
H385 C366 0.930 . S
H386 C421 0.929 . S
N387 Tb356 2.660 . S
N387 C388 1.305 . S
N387 C392 1.360 . S
C388 H380 0.930 . S
C388 N387 1.305 . S
C388 C391 1.407 . S
C389 H383 0.930 . S
C389 C390 1.410 . S
C389 C391 1.345 . S
C390 C389 1.410 . S
C390 C392 1.417 . S
C390 C422 1.432 . S
C391 H377 0.930 . S
C391 C388 1.407 . S
C391 C389 1.345 . S
C392 N387 1.360 . S
C392 C390 1.417 . S
C392 C396 1.432 . S
H393 C398 0.928 1_655 S
N394 Tb356 2.600 . S
N394 C396 1.359 . S
N394 C397 1.327 1_455 S
C395 H381 0.931 . S
C395 C397 1.392 . S
C395 C398 1.370 1_655 S
C396 C392 1.432 . S
C396 N394 1.359 . S
C396 C399 1.414 . S
C397 H379 0.930 . S
C397 N394 1.327 1_655 S
C397 C395 1.392 . S
C398 H393 0.928 1_455 S
C398 C395 1.370 1_455 S
C398 C399 1.385 . S
C399 C396 1.414 . S
C399 C398 1.385 . S
C399 C421 1.444 . S
O400 Tb356 2.546 . S
O400 C420 1.251 . S
O401 Tb356 2.610 . S
O401 Tb367 2.362 1_455 S
O401 C412 1.283 . S
O402 Tb367 2.421 1_455 S
O402 C419 1.262 . S
O403 Tb356 2.320 . S
O403 C419 1.260 . S
O404 Tb356 2.552 . S
O404 C412 1.243 . S
O405 Tb356 2.413 . S
O405 C420 1.256 . S
O406 Tb367 2.546 1_554 S
O406 C431 1.251 . S
O407 Tb356 2.362 . S
O407 Tb367 2.610 1_455 S
O407 C423 1.283 1_455 S
O408 Tb356 2.421 1_655 S
O408 C430 1.262 . S
O409 Tb367 2.320 . S
O409 C430 1.260 . S
O410 Tb367 2.552 . S
O410 C423 1.243 . S
O411 Tb367 2.413 . S
O411 C431 1.256 1_556 S
C412 O401 1.283 . S
C412 O404 1.243 . S
C413 C415 1.382 . S
C413 C417 1.393 . S
C413 C420 1.500 . S
C414 C415 1.400 . S
C414 C416 1.384 . S
C415 C413 1.382 . S
C415 C414 1.400 . S
C415 H432 0.930 . S
C416 C414 1.384 . S
C416 C418 1.392 . S
C416 H433 0.931 . S
C417 C413 1.393 . S
C417 C418 1.401 . S
C417 H434 0.930 . S
C418 C416 1.392 . S
C418 C417 1.401 . S
C418 H435 0.930 . S
C419 O402 1.262 . S
C419 O403 1.260 . S
C420 Tb356 2.833 . S
C420 O400 1.251 . S
C420 O405 1.256 . S
C420 C413 1.500 . S
C421 H386 0.929 . S
C421 C399 1.444 . S
C421 C422 1.317 . S
C422 H384 0.930 . S
C422 C390 1.432 . S
C422 C421 1.317 . S
C423 O407 1.283 1_655 S
C423 O410 1.243 . S
C424 C425 1.382 . S
C424 C428 1.393 . S
C424 C431 1.500 . S
C425 C424 1.382 . S
C425 C426 1.400 . S
C425 H436 0.930 . S
C426 C425 1.400 . S
C426 C427 1.384 . S
C427 C426 1.384 . S
C427 C429 1.392 . S
C427 H437 0.931 . S
C428 C424 1.393 . S
C428 C429 1.401 . S
C428 H438 0.930 . S
C429 C427 1.392 . S
C429 C428 1.401 . S
C429 H439 0.930 . S
C430 O408 1.262 . S
C430 O409 1.260 . S
C431 Tb367 2.833 1_554 S
C431 O406 1.251 . S
C431 O411 1.256 1_554 S
C431 C424 1.500 . S
H432 C415 0.930 . S
H433 C416 0.931 . S
H434 C417 0.930 . S
H435 C418 0.930 . S
H436 C425 0.930 . S
H437 C427 0.931 . S
H438 C428 0.930 . S
H439 C429 0.930 . S
H440 C446 0.930 . S
H441 C449 0.930 1_565 S
H442 C450 0.919 1_565 S
H443 C451 0.930 1_565 S
H444 C454 0.930 . S
H445 C455 0.930 . S
C446 H440 0.930 . S
C446 C447 1.355 . S
C446 C448 1.415 . S
C447 C446 1.355 . S
C447 C449 1.419 . S
C448 C446 1.415 . S
C448 C453 1.425 . S
C448 C455 1.409 . S
C449 H441 0.930 1_545 S
C449 C447 1.419 . S
C449 C450 1.366 . S
C450 H442 0.919 1_545 S
C450 C449 1.366 . S
C450 C453 1.416 . S
C451 H443 0.930 1_545 S
C451 C452 1.355 . S
C451 C453 1.415 . S
C452 C451 1.355 . S
C452 C454 1.419 . S
C453 C448 1.425 . S
C453 C450 1.416 . S
C453 C451 1.415 . S
C454 H444 0.930 . S
C454 C452 1.419 . S
C454 C455 1.362 . S
C455 H445 0.930 . S
C455 C448 1.409 . S
C455 C454 1.362 . S
H456 C462 0.930 . S
H457 C465 0.930 . S
H458 C466 0.930 . S
H459 C467 0.930 . S
H460 C470 0.930 . S
H461 C471 0.930 . S
C462 H456 0.930 . S
C462 C463 1.355 . S
C462 C464 1.415 . S
C463 C462 1.355 . S
C463 C465 1.419 . S
C464 C462 1.415 . S
C464 C469 1.425 . S
C464 C471 1.409 . S
C465 H457 0.930 . S
C465 C463 1.419 . S
C465 C466 1.362 . S
C466 H458 0.930 . S
C466 C465 1.362 . S
C466 C469 1.409 . S
C467 H459 0.930 . S
C467 C468 1.355 . S
C467 C469 1.415 . S
C468 C467 1.355 . S
C468 C470 1.419 . S
C469 C464 1.425 . S
C469 C466 1.409 . S
C469 C467 1.415 . S
C470 H460 0.930 . S
C470 C468 1.419 . S
C470 C471 1.362 . S
C471 H461 0.930 . S
C471 C464 1.409 . S
C471 C470 1.362 . S
H472 C478 0.930 . S
H473 C481 0.930 . S
H474 C482 0.930 . S
H475 C483 0.930 . S
H476 C486 0.930 . S
H477 C487 0.930 . S
C478 H472 0.930 . S
C478 C479 1.355 . S
C478 C480 1.415 . S
C479 C478 1.355 . S
C479 C481 1.419 . S
C480 C478 1.415 . S
C480 C485 1.425 . S
C480 C487 1.409 . S
C481 H473 0.930 . S
C481 C479 1.419 . S
C481 C482 1.362 . S
C482 H474 0.930 . S
C482 C481 1.362 . S
C482 C485 1.409 . S
C483 H475 0.930 . S
C483 C484 1.355 . S
C483 C485 1.415 . S
C484 C483 1.355 . S
C484 C486 1.419 . S
C485 C480 1.425 . S
C485 C482 1.409 . S
C485 C483 1.415 . S
C486 H476 0.930 . S
C486 C484 1.419 . S
C486 C487 1.362 . S
C487 H477 0.930 . S
C487 C480 1.409 . S
C487 C486 1.362 . S
H488 C494 0.930 . S
H489 C497 0.930 . S
H490 C498 0.930 . S
H491 C499 0.930 . S
H492 C502 0.922 1_655 S
H493 C503 0.932 1_655 S
C494 H488 0.930 . S
C494 C495 1.355 . S
C494 C496 1.415 . S
C495 C494 1.355 . S
C495 C497 1.419 . S
C496 C494 1.415 . S
C496 C501 1.425 . S
C496 C503 1.407 . S
C497 H489 0.930 . S
C497 C495 1.419 . S
C497 C498 1.362 . S
C498 H490 0.930 . S
C498 C497 1.362 . S
C498 C501 1.409 . S
C499 H491 0.930 . S
C499 C500 1.355 . S
C499 C501 1.415 . S
C500 C499 1.355 . S
C500 C502 1.427 . S
C501 C496 1.425 . S
C501 C498 1.409 . S
C501 C499 1.415 . S
C502 H492 0.922 1_455 S
C502 C500 1.427 . S
C502 C503 1.362 . S
C503 H493 0.932 1_455 S
C503 C496 1.407 . S
C503 C502 1.362 . S
H504 C510 0.930 . S
H505 C513 0.930 . S
H506 C514 0.930 . S
H507 C515 0.930 . S
H508 C518 0.930 . S
H509 C519 0.929 1_556 S
C510 H504 0.930 . S
C510 C511 1.355 . S
C510 C512 1.415 . S
C511 C510 1.355 . S
C511 C513 1.419 1_565 S
C512 C510 1.415 . S
C512 C517 1.425 . S
C512 C519 1.409 . S
C513 H505 0.930 . S
C513 C511 1.419 1_545 S
C513 C514 1.362 . S
C514 H506 0.930 . S
C514 C513 1.362 . S
C514 C517 1.409 1_545 S
C515 H507 0.930 . S
C515 C516 1.355 1_544 S
C515 C517 1.415 1_545 S
C516 C515 1.355 1_566 S
C516 C518 1.419 . S
C517 C512 1.425 . S
C517 C514 1.409 1_565 S
C517 C515 1.415 1_565 S
C518 H508 0.930 . S
C518 C516 1.419 . S
C518 C519 1.362 1_556 S
C519 H509 0.929 1_554 S
C519 C512 1.409 . S
C519 C518 1.362 1_554 S
H520 C526 0.930 . S
H521 C529 0.930 . S
H522 C530 0.930 . S
H523 C531 0.930 . S
H524 C534 0.930 . S
H525 C535 0.930 . S
C526 H520 0.930 . S
C526 C527 1.355 . S
C526 C528 1.415 . S
C527 C526 1.355 . S
C527 C529 1.419 . S
C528 C526 1.415 . S
C528 C533 1.425 . S
C528 C535 1.409 . S
C529 H521 0.930 . S
C529 C527 1.419 . S
C529 C530 1.362 . S
C530 H522 0.930 . S
C530 C529 1.362 . S
C530 C533 1.409 . S
C531 H523 0.930 . S
C531 C532 1.355 . S
C531 C533 1.415 1_556 S
C532 C531 1.355 . S
C532 C534 1.419 1_556 S
C533 C528 1.425 . S
C533 C530 1.409 . S
C533 C531 1.415 1_554 S
C534 H524 0.930 . S
C534 C532 1.419 1_554 S
C534 C535 1.362 . S
C535 H525 0.930 . S
C535 C528 1.409 . S
C535 C534 1.362 . S
H536 C542 0.930 . S
H537 C545 0.930 . S
H538 C546 0.930 . S
H539 C547 0.930 . S
H540 C550 0.930 . S
H541 C551 0.930 . S
C542 H536 0.930 . S
C542 C543 1.355 . S
C542 C544 1.415 . S
C543 C542 1.355 . S
C543 C545 1.419 . S
C544 C542 1.415 . S
C544 C549 1.425 . S
C544 C551 1.409 . S
C545 H537 0.930 . S
C545 C543 1.419 . S
C545 C546 1.362 . S
C546 H538 0.930 . S
C546 C545 1.362 . S
C546 C549 1.409 . S
C547 H539 0.930 . S
C547 C548 1.355 . S
C547 C549 1.415 1_556 S
C548 C547 1.355 . S
C548 C550 1.419 1_556 S
C549 C544 1.425 . S
C549 C546 1.409 . S
C549 C547 1.415 1_554 S
C550 H540 0.930 . S
C550 C548 1.419 1_554 S
C550 C551 1.362 . S
C551 H541 0.930 . S
C551 C544 1.409 . S
C551 C550 1.362 . S
H552 C558 0.930 . S
H553 C561 0.930 . S
H554 C562 0.930 1_455 S
H555 C563 0.930 1_455 S
H556 C566 0.930 . S
H557 C567 0.930 . S
C558 H552 0.930 . S
C558 C559 1.355 . S
C558 C560 1.415 . S
C559 C558 1.355 . S
C559 C561 1.419 . S
C560 C558 1.415 . S
C560 C565 1.425 . S
C560 C567 1.409 . S
C561 H553 0.930 . S
C561 C559 1.419 . S
C561 C562 1.362 . S
C562 H554 0.930 1_655 S
C562 C561 1.362 . S
C562 C565 1.409 . S
C563 H555 0.930 1_655 S
C563 C564 1.355 . S
C563 C565 1.415 1_556 S
C564 C563 1.355 . S
C564 C566 1.419 1_556 S
C565 C560 1.425 . S
C565 C562 1.409 . S
C565 C563 1.415 1_554 S
C566 H556 0.930 . S
C566 C564 1.419 1_554 S
C566 C567 1.362 . S
C567 H557 0.930 . S
C567 C560 1.409 . S
C567 C566 1.362 . S
H568 C574 0.930 . S
H569 C577 0.930 . S
H570 C578 0.930 1_556 S
H571 C579 0.930 . S
H572 C582 0.930 . S
H573 C583 0.930 . S
C574 H568 0.930 . S
C574 C575 1.355 . S
C574 C576 1.415 . S
C575 C574 1.355 . S
C575 C577 1.419 1_554 S
C576 C574 1.415 . S
C576 C581 1.425 . S
C576 C583 1.409 . S
C577 H569 0.930 . S
C577 C575 1.419 1_556 S
C577 C578 1.362 1_556 S
C578 H570 0.930 1_554 S
C578 C577 1.362 1_554 S
C578 C581 1.409 . S
C579 H571 0.930 . S
C579 C580 1.355 . S
C579 C581 1.415 1_655 S
C580 C579 1.355 . S
C580 C582 1.419 1_655 S
C581 C576 1.425 . S
C581 C578 1.409 . S
C581 C579 1.415 1_455 S
C582 H572 0.930 . S
C582 C580 1.419 1_455 S
C582 C583 1.362 . S
C583 H573 0.930 . S
C583 C576 1.409 . S
C583 C582 1.362 . S
H584 C590 0.930 . S
H585 C593 0.930 . S
H586 C594 0.930 . S
H587 C595 0.930 . S
H588 C598 0.930 . S
H589 C599 0.930 . S
C590 H584 0.930 . S
C590 C591 1.355 . S
C590 C592 1.415 . S
C591 C590 1.355 . S
C591 C593 1.419 . S
C592 C590 1.415 . S
C592 C597 1.425 . S
C592 C599 1.409 1_545 S
C593 H585 0.930 . S
C593 C591 1.419 . S
C593 C594 1.362 . S
C594 H586 0.930 . S
C594 C593 1.362 . S
C594 C597 1.409 . S
C595 H587 0.930 . S
C595 C596 1.355 1_545 S
C595 C597 1.415 . S
C596 C595 1.355 1_565 S
C596 C598 1.419 . S
C597 C592 1.425 . S
C597 C594 1.409 . S
C597 C595 1.415 . S
C598 H588 0.930 . S
C598 C596 1.419 . S
C598 C599 1.362 . S
C599 H589 0.930 . S
C599 C592 1.409 1_565 S
C599 C598 1.362 . S
H600 C606 0.930 . S
H601 C609 0.930 1_556 S
H602 C610 0.930 1_556 S
H603 C611 0.930 . S
H604 C614 0.930 . S
H605 C615 0.930 . S
C606 H600 0.930 . S
C606 C607 1.355 . S
C606 C608 1.415 . S
C607 C606 1.355 . S
C607 C609 1.419 . S
C608 C606 1.415 . S
C608 C613 1.425 . S
C608 C615 1.409 . S
C609 H601 0.930 1_554 S
C609 C607 1.419 . S
C609 C610 1.362 . S
C610 H602 0.930 1_554 S
C610 C609 1.362 . S
C610 C613 1.409 . S
C611 H603 0.930 . S
C611 C612 1.355 . S
C611 C613 1.415 . S
C612 C611 1.355 . S
C612 C614 1.419 . S
C613 C608 1.425 . S
C613 C610 1.409 . S
C613 C611 1.415 . S
C614 H604 0.930 . S
C614 C612 1.419 . S
C614 C615 1.362 . S
C615 H605 0.930 . S
C615 C608 1.409 . S
C615 C614 1.362 . S
H616 C622 0.930 . S
H617 C625 0.930 . S
H618 C626 0.930 . S
H619 C627 0.930 . S
H620 C630 0.930 . S
H621 C631 0.930 . S
C622 H616 0.930 . S
C622 C623 1.355 . S
C622 C624 1.415 . S
C623 C622 1.355 . S
C623 C625 1.419 . S
C624 C622 1.415 . S
C624 C629 1.425 . S
C624 C631 1.409 . S
C625 H617 0.930 . S
C625 C623 1.419 . S
C625 C626 1.362 . S
C626 H618 0.930 . S
C626 C625 1.362 . S
C626 C629 1.409 . S
C627 H619 0.930 . S
C627 C628 1.355 . S
C627 C629 1.415 . S
C628 C627 1.355 . S
C628 C630 1.419 . S
C629 C624 1.425 . S
C629 C626 1.409 . S
C629 C627 1.415 . S
C630 H620 0.930 . S
C630 C628 1.419 . S
C630 C631 1.362 . S
C631 H621 0.930 . S
C631 C624 1.409 . S
C631 C630 1.362 . S
H632 C638 0.930 1_455 S
H633 C641 0.930 . S
H634 C642 0.930 . S
H635 C643 0.930 . S
H636 C646 0.930 . S
H637 C647 0.930 . S
C638 H632 0.930 1_655 S
C638 C639 1.355 . S
C638 C640 1.413 1_655 S
C639 C638 1.355 . S
C639 C641 1.419 . S
C640 C638 1.413 1_455 S
C640 C645 1.421 1_455 S
C640 C647 1.415 . S
C641 H633 0.930 . S
C641 C639 1.419 . S
C641 C642 1.362 . S
C642 H634 0.930 . S
C642 C641 1.362 . S
C642 C645 1.409 . S
C643 H635 0.930 . S
C643 C644 1.355 1_655 S
C643 C645 1.415 . S
C644 C643 1.355 1_455 S
C644 C646 1.419 . S
C645 C640 1.421 1_655 S
C645 C642 1.409 . S
C645 C643 1.415 . S
C646 H636 0.930 . S
C646 C644 1.419 . S
C646 C647 1.362 . S
C647 H637 0.930 . S
C647 C640 1.415 . S
C647 C646 1.362 . S
H648 C654 0.930 . S
H649 C657 0.930 . S
H650 C658 0.930 . S
H651 C659 0.930 . S
H652 C662 0.930 . S
H653 C663 0.930 . S
C654 H648 0.930 . S
C654 C655 1.355 . S
C654 C656 1.415 . S
C655 C654 1.355 . S
C655 C657 1.419 1_565 S
C656 C654 1.415 . S
C656 C661 1.425 1_565 S
C656 C663 1.409 . S
C657 H649 0.930 . S
C657 C655 1.419 1_545 S
C657 C658 1.362 . S
C658 H650 0.930 . S
C658 C657 1.362 . S
C658 C661 1.409 . S
C659 H651 0.930 . S
C659 C660 1.355 . S
C659 C661 1.415 . S
C660 C659 1.355 . S
C660 C662 1.419 1_545 S
C661 C656 1.425 1_545 S
C661 C658 1.409 . S
C661 C659 1.415 . S
C662 H652 0.930 . S
C662 C660 1.419 1_565 S
C662 C663 1.362 . S
C663 H653 0.930 . S
C663 C656 1.409 . S
C663 C662 1.362 . S
H664 C670 0.930 . S
H665 C673 0.930 . S
H666 C674 0.930 . S
H667 C675 0.930 . S
H668 C678 0.930 . S
H669 C679 0.930 . S
C670 H664 0.930 . S
C670 C671 1.355 . S
C670 C672 1.415 . S
C671 C670 1.355 . S
C671 C673 1.419 . S
C672 C670 1.415 . S
C672 C677 1.425 . S
C672 C679 1.409 . S
C673 H665 0.930 . S
C673 C671 1.419 . S
C673 C674 1.362 . S
C674 H666 0.930 . S
C674 C673 1.362 . S
C674 C677 1.409 . S
C675 H667 0.930 . S
C675 C676 1.355 . S
C675 C677 1.415 . S
C676 C675 1.355 . S
C676 C678 1.419 . S
C677 C672 1.425 . S
C677 C674 1.409 . S
C677 C675 1.415 . S
C678 H668 0.930 . S
C678 C676 1.419 . S
C678 C679 1.362 . S
C679 H669 0.930 . S
C679 C672 1.409 . S
C679 C678 1.362 . S
H680 C686 0.930 . S
H681 C689 0.930 . S
H682 C690 0.930 . S
H683 C691 0.930 . S
H684 C694 0.930 . S
H685 C695 0.930 . S
C686 H680 0.930 . S
C686 C687 1.355 . S
C686 C688 1.415 . S
C687 C686 1.355 . S
C687 C689 1.419 . S
C688 C686 1.415 . S
C688 C693 1.425 . S
C688 C695 1.409 . S
C689 H681 0.930 . S
C689 C687 1.419 . S
C689 C690 1.362 . S
C690 H682 0.930 . S
C690 C689 1.362 . S
C690 C693 1.409 . S
C691 H683 0.930 . S
C691 C692 1.355 . S
C691 C693 1.415 . S
C692 C691 1.355 . S
C692 C694 1.419 . S
C693 C688 1.425 . S
C693 C690 1.409 . S
C693 C691 1.415 . S
C694 H684 0.930 . S
C694 C692 1.419 . S
C694 C695 1.362 . S
C695 H685 0.930 . S
C695 C688 1.409 . S
C695 C694 1.362 . S
H696 C702 0.930 . S
H697 C705 0.930 1_554 S
H698 C706 0.930 1_655 S
H699 C707 0.930 . S
H700 C710 0.930 . S
H701 C711 0.930 . S
C702 H696 0.930 . S
C702 C703 1.355 . S
C702 C704 1.415 . S
C703 C702 1.355 . S
C703 C705 1.419 . S
C704 C702 1.415 . S
C704 C709 1.425 . S
C704 C711 1.409 . S
C705 H697 0.930 1_556 S
C705 C703 1.419 . S
C705 C706 1.362 . S
C706 H698 0.930 1_455 S
C706 C705 1.362 . S
C706 C709 1.409 . S
C707 H699 0.930 . S
C707 C708 1.355 . S
C707 C709 1.415 . S
C708 C707 1.355 . S
C708 C710 1.419 . S
C709 C704 1.425 . S
C709 C706 1.409 . S
C709 C707 1.415 . S
C710 H700 0.930 . S
C710 C708 1.419 . S
C710 C711 1.362 . S
C711 H701 0.930 . S
C711 C704 1.409 . S
C711 C710 1.362 . S
H712 C718 0.930 . S
H713 C721 0.930 1_554 S
H714 C722 0.930 1_554 S
H715 C723 0.930 . S
H716 C726 0.930 . S
H717 C727 0.930 . S
C718 H712 0.930 . S
C718 C719 1.355 . S
C718 C720 1.415 . S
C719 C718 1.355 . S
C719 C721 1.419 . S
C720 C718 1.415 . S
C720 C725 1.425 . S
C720 C727 1.409 . S
C721 H713 0.930 1_556 S
C721 C719 1.419 . S
C721 C722 1.362 . S
C722 H714 0.930 1_556 S
C722 C721 1.362 . S
C722 C725 1.409 . S
C723 H715 0.930 . S
C723 C724 1.355 . S
C723 C725 1.415 . S
C724 C723 1.355 . S
C724 C726 1.419 . S
C725 C720 1.425 . S
C725 C722 1.409 . S
C725 C723 1.415 . S
C726 H716 0.930 . S
C726 C724 1.419 . S
C726 C727 1.362 . S
C727 H717 0.930 . S
C727 C720 1.409 . S
C727 C726 1.362 . S
H728 C734 0.930 . S
H729 C737 0.930 1_554 S
H730 C738 0.930 1_554 S
H731 C739 0.930 . S
H732 C742 0.930 . S
H733 C743 0.930 . S
C734 H728 0.930 . S
C734 C735 1.355 . S
C734 C736 1.415 . S
C735 C734 1.355 . S
C735 C737 1.419 . S
C736 C734 1.415 . S
C736 C741 1.425 . S
C736 C743 1.409 . S
C737 H729 0.930 1_556 S
C737 C735 1.419 . S
C737 C738 1.362 . S
C738 H730 0.930 1_556 S
C738 C737 1.362 . S
C738 C741 1.409 . S
C739 H731 0.930 . S
C739 C740 1.355 . S
C739 C741 1.415 . S
C740 C739 1.355 . S
C740 C742 1.419 . S
C741 C736 1.425 . S
C741 C738 1.409 . S
C741 C739 1.415 . S
C742 H732 0.930 . S
C742 C740 1.419 . S
C742 C743 1.362 . S
C743 H733 0.930 . S
C743 C736 1.409 . S
C743 C742 1.362 . S
H744 C750 0.930 . S
H745 C753 0.930 . S
H746 C754 0.930 . S
H747 C755 0.930 . S
H748 C758 0.930 . S
H749 C759 0.930 1_554 S
C750 H744 0.930 . S
C750 C751 1.355 . S
C750 C752 1.415 . S
C751 C750 1.355 . S
C751 C753 1.419 . S
C752 C750 1.415 . S
C752 C757 1.425 . S
C752 C759 1.409 . S
C753 H745 0.930 . S
C753 C751 1.419 . S
C753 C754 1.362 . S
C754 H746 0.930 . S
C754 C753 1.362 . S
C754 C757 1.409 . S
C755 H747 0.930 . S
C755 C756 1.355 . S
C755 C757 1.415 . S
C756 C755 1.355 . S
C756 C758 1.419 . S
C757 C752 1.425 . S
C757 C754 1.409 . S
C757 C755 1.415 . S
C758 H748 0.930 . S
C758 C756 1.419 . S
C758 C759 1.362 . S
C759 H749 0.930 1_556 S
C759 C752 1.409 . S
C759 C758 1.362 . S
H760 C766 0.930 . S
H761 C769 0.930 . S
H762 C770 0.930 . S
H763 C771 0.930 . S
H764 C774 0.930 . S
H765 C775 0.930 . S
C766 H760 0.930 . S
C766 C767 1.355 . S
C766 C768 1.415 . S
C767 C766 1.355 . S
C767 C769 1.419 . S
C768 C766 1.415 . S
C768 C773 1.425 . S
C768 C775 1.409 . S
C769 H761 0.930 . S
C769 C767 1.419 . S
C769 C770 1.362 . S
C770 H762 0.930 . S
C770 C769 1.362 . S
C770 C773 1.409 . S
C771 H763 0.930 . S
C771 C772 1.355 . S
C771 C773 1.415 . S
C772 C771 1.355 . S
C772 C774 1.419 . S
C773 C768 1.425 . S
C773 C770 1.409 . S
C773 C771 1.415 . S
C774 H764 0.930 . S
C774 C772 1.419 . S
C774 C775 1.362 . S
C775 H765 0.930 . S
C775 C768 1.409 . S
C775 C774 1.362 . S
H776 C782 0.930 . S
H777 C785 0.930 . S
H778 C786 0.930 . S
H779 C787 0.930 1_545 S
H780 C790 0.930 . S
H781 C791 0.930 . S
C782 H776 0.930 . S
C782 C783 1.355 . S
C782 C784 1.415 . S
C783 C782 1.355 . S
C783 C785 1.419 1_565 S
C784 C782 1.415 . S
C784 C789 1.425 . S
C784 C791 1.409 . S
C785 H777 0.930 . S
C785 C783 1.419 1_545 S
C785 C786 1.362 . S
C786 H778 0.930 . S
C786 C785 1.362 . S
C786 C789 1.409 1_545 S
C787 H779 0.930 1_565 S
C787 C788 1.355 . S
C787 C789 1.415 . S
C788 C787 1.355 . S
C788 C790 1.419 . S
C789 C784 1.425 . S
C789 C786 1.409 1_565 S
C789 C787 1.415 . S
C790 H780 0.930 . S
C790 C788 1.419 . S
C790 C791 1.362 . S
C791 H781 0.930 . S
C791 C784 1.409 . S
C791 C790 1.362 . S
H792 C798 0.930 . S
H793 C801 0.930 . S
H794 C802 0.930 . S
H795 C803 0.930 . S
H796 C806 0.930 . S
H797 C807 0.930 . S
C798 H792 0.930 . S
C798 C799 1.355 . S
C798 C800 1.415 . S
C799 C798 1.355 . S
C799 C801 1.419 . S
C800 C798 1.415 . S
C800 C805 1.425 . S
C800 C807 1.409 . S
C801 H793 0.930 . S
C801 C799 1.419 . S
C801 C802 1.362 . S
C802 H794 0.930 . S
C802 C801 1.362 . S
C802 C805 1.409 . S
C803 H795 0.930 . S
C803 C804 1.355 . S
C803 C805 1.415 . S
C804 C803 1.355 . S
C804 C806 1.419 . S
C805 C800 1.425 . S
C805 C802 1.409 . S
C805 C803 1.415 . S
C806 H796 0.930 . S
C806 C804 1.419 . S
C806 C807 1.362 . S
C807 H797 0.930 . S
C807 C800 1.409 . S
C807 C806 1.362 . S
H808 C814 0.930 . S
H809 C817 0.930 . S
H810 C818 0.930 . S
H811 C819 0.930 . S
H812 C822 0.930 . S
H813 C823 0.930 . S
C814 H808 0.930 . S
C814 C815 1.355 . S
C814 C816 1.415 . S
C815 C814 1.355 . S
C815 C817 1.419 . S
C816 C814 1.415 . S
C816 C821 1.425 . S
C816 C823 1.409 . S
C817 H809 0.930 . S
C817 C815 1.419 . S
C817 C818 1.362 . S
C818 H810 0.930 . S
C818 C817 1.362 . S
C818 C821 1.409 . S
C819 H811 0.930 . S
C819 C820 1.355 . S
C819 C821 1.415 . S
C820 C819 1.355 . S
C820 C822 1.419 . S
C821 C816 1.425 . S
C821 C818 1.409 . S
C821 C819 1.415 . S
C822 H812 0.930 . S
C822 C820 1.419 . S
C822 C823 1.362 . S
C823 H813 0.930 . S
C823 C816 1.409 . S
C823 C822 1.362 . S
C447 N80 1.918 . S
C452 C178 1.985 . S
C468 C262 1.995 . S
C463 N93 1.983 . S
C484 C328 1.913 . S
C479 N54 2.001 . S
C500 C412 1.976 . S
C495 N67 2.050 . S
C516 C167 2.003 1_565 S
C511 N28 1.971 . S
C527 N41 1.925 . S
C532 C251 1.960 . S
C543 N2 2.013 . S
C548 C339 1.918 . S
C559 N15 2.006 . S
C564 C423 1.913 . S
C580 C174 0.695 . S
C575 N70 0.701 . S
C596 C258 0.609 . S
C591 N83 0.723 . S
C612 C330 0.712 . S
C607 N96 0.613 . S
C623 N57 0.743 . S
C628 C414 0.654 . S
C639 N18 0.757 . S
C644 C162 0.633 . S
C660 C246 0.727 . S
C655 N31 0.597 . S
C676 C342 0.625 . S
C671 N44 0.712 . S
C687 N5 0.695 . S
C692 C426 0.606 . S
C703 N66 2.123 . S
C708 C171 2.105 . S
C719 N79 2.091 . S
C724 C255 2.040 . S
C740 C335 2.119 . S
C735 N92 2.005 . S
C756 C419 2.125 . S
C751 N53 2.076 . S
C767 N14 2.181 . S
C772 C160 2.117 . S
C788 C244 2.099 . S
C783 N27 2.141 . S
C804 C346 2.078 . S
C799 N40 2.056 . S
C815 N1 2.034 . S
C820 C430 2.129 . S
