# Generated by pormake.
# Topology rtl, (3,6)-cn, num edge types: 1
# Building blocks:
#     Node 0, Type 0, BuildingBlock: QEWDON_clean_linker_0, # of connection points: 3
#     Node 1, Type 0, BuildingBlock: QEWDON_clean_linker_0, # of connection points: 3
#     Node 2, Type 0, BuildingBlock: QEWDON_clean_linker_0, # of connection points: 3
#     Node 3, Type 0, BuildingBlock: QEWDON_clean_linker_0, # of connection points: 3
#     Node 4, Type 1, BuildingBlock: FUNLAD_clean_sbu_0, # of connection points: 6
#     Node 5, Type 1, BuildingBlock: FUNLAD_clean_sbu_0, # of connection points: 6
#     Edge 6, Type (0, 1), BuildingBlock: TEMPAE_clean_linker_10, # of connection points: 2
#     Edge 7, Type (0, 1), BuildingBlock: TEMPAE_clean_linker_10, # of connection points: 2
#     Edge 8, Type (0, 1), BuildingBlock: TEMPAE_clean_linker_10, # of connection points: 2
#     Edge 9, Type (0, 1), BuildingBlock: TEMPAE_clean_linker_10, # of connection points: 2
#     Edge 10, Type (0, 1), BuildingBlock: TEMPAE_clean_linker_10, # of connection points: 2
#     Edge 11, Type (0, 1), BuildingBlock: TEMPAE_clean_linker_10, # of connection points: 2
#     Edge 12, Type (0, 1), BuildingBlock: TEMPAE_clean_linker_10, # of connection points: 2
#     Edge 13, Type (0, 1), BuildingBlock: TEMPAE_clean_linker_10, # of connection points: 2
#     Edge 14, Type (0, 1), BuildingBlock: TEMPAE_clean_linker_10, # of connection points: 2
#     Edge 15, Type (0, 1), BuildingBlock: TEMPAE_clean_linker_10, # of connection points: 2
#     Edge 16, Type (0, 1), BuildingBlock: TEMPAE_clean_linker_10, # of connection points: 2
#     Edge 17, Type (0, 1), BuildingBlock: TEMPAE_clean_linker_10, # of connection points: 2
# Relax obj value: 0.015
# Max RMSD: 0.095
# Mean RMSD: 0.078
data_MOF--net-rtl--node1-FUNLAD_clean_sbu_0--node2-QEWDON_clean_linker_0--edge1-TEMPAE_clean_linker_10
_symmetry_space_group_name_H-M    P1
_symmetry_Int_Tables_number       1
_symmetry_cell_setting            triclinic
loop_
_symmetry_equiv_pos_as_xyz
'x, y, z'
_cell_length_a     42.648522
_cell_length_b     42.607727
_cell_length_c     20.899335
_cell_angle_alpha  91.57545
_cell_angle_beta   92.634051
_cell_angle_gamma 89.956564
loop_
_atom_site_label
_atom_site_type_symbol
_atom_site_fract_x
_atom_site_fract_y
_atom_site_fract_z
_atom_type_partial_charge
H0 H 0.20961 0.85926 0.1001 0.0
C1 C 0.19754 0.8645 0.05489 0.0
C2 C 0.16705 0.87716 0.05387 0.0
C3 C 0.21322 0.86008 -0.00236 0.0
H4 H 0.13019 0.89693 0.99398 0.0
C5 C 0.15259 0.88494 0.99467 0.0
C6 C 0.16737 0.87956 0.93674 0.0
C7 C 0.19794 0.86715 0.93879 0.0
C8 C 0.24707 0.85286 -0.00011 0.0
H9 H 0.21028 0.86364 0.89499 0.0
C10 C 0.25838 0.82246 0.01211 0.0
C11 C 0.29096 0.81654 0.0145 0.0
C12 C 0.26831 0.87716 0.98992 0.0
H13 H 0.25993 0.90067 0.98042 0.0
C14 C 0.3005 0.87143 0.99263 0.0
H15 H 0.24199 0.80364 0.01965 0.0
C16 C 0.3118 0.84138 0.00487 0.0
H17 H 0.33691 0.83742 0.00559 0.0
H18 H 0.31675 0.89031 0.98493 0.0
H19 H 0.70701 0.677 0.45549 0.0
C20 C 0.69477 0.67112 0.49786 0.0
C21 C 0.66471 0.65747 0.49175 0.0
C22 C 0.70988 0.67557 0.55867 0.0
H23 H 0.62802 0.63609 0.54274 0.0
C24 C 0.65001 0.64882 0.54741 0.0
C25 C 0.66405 0.65434 0.60871 0.0
C26 C 0.69419 0.66775 0.61381 0.0
C27 C 0.74352 0.68415 0.56447 0.0
H28 H 0.70589 0.67157 0.66049 0.0
C29 C 0.75467 0.71258 0.54119 0.0
C30 C 0.78704 0.71947 0.54589 0.0
C31 C 0.76486 0.6629 0.5926 0.0
H32 H 0.75676 0.64085 0.61054 0.0
C33 C 0.79688 0.66958 0.59678 0.0
H34 H 0.73834 0.72919 0.51976 0.0
C35 C 0.80795 0.69761 0.57346 0.0
H36 H 0.83289 0.70252 0.57804 0.0
H37 H 0.81316 0.65299 0.61828 0.0
H38 H 0.81255 0.17019 0.07944 0.0
C39 C 0.82484 0.16512 0.03611 0.0
C40 C 0.85514 0.15202 0.03981 0.0
C41 C 0.80962 0.17016 0.97619 0.0
H42 H 0.8922 0.1323 0.98506 0.0
C43 C 0.86993 0.14455 0.98268 0.0
C44 C 0.85566 0.15061 0.92245 0.0
C45 C 0.82524 0.16335 0.9197 0.0
C46 C 0.77591 0.17809 0.97215 0.0
H47 H 0.81331 0.16742 0.87378 0.0
C48 C 0.76491 0.20786 0.99153 0.0
C49 C 0.73247 0.21438 0.98801 0.0
C50 C 0.75443 0.15504 0.94913 0.0
H51 H 0.76254 0.132 0.93406 0.0
C52 C 0.72235 0.16135 0.94612 0.0
H53 H 0.78144 0.22576 0.00904 0.0
C54 C 0.71138 0.19077 0.9655 0.0
H55 H 0.68637 0.1953 0.9617 0.0
H56 H 0.70593 0.14343 0.92847 0.0
H57 H 0.35122 0.32204 0.61005 0.0
C58 C 0.35593 0.3345 0.56702 0.0
C59 C 0.36862 0.36499 0.57146 0.0
C60 C 0.35055 0.31937 0.50695 0.0
H61 H 0.38794 0.40219 0.51807 0.0
C62 C 0.37578 0.37987 0.51478 0.0
C63 C 0.36965 0.36555 0.45417 0.0
C64 C 0.35689 0.33509 0.45076 0.0
C65 C 0.34354 0.28549 0.50326 0.0
H66 H 0.35284 0.32308 0.40476 0.0
C67 C 0.31252 0.27415 0.49935 0.0
C68 C 0.30675 0.24154 0.49433 0.0
C69 C 0.36869 0.26429 0.50279 0.0
H70 H 0.39269 0.27274 0.50577 0.0
C71 C 0.36311 0.23209 0.49846 0.0
H72 H 0.29311 0.29058 0.49921 0.0
C73 C 0.33242 0.22073 0.49425 0.0
H74 H 0.32877 0.19556 0.49169 0.0
H75 H 0.38264 0.21585 0.4984 0.0
C76 C 0.04424 0.98222 0.3955 0.0
N77 N 0.06155 0.06915 0.49099 0.0
C78 C 0.0921 0.05987 0.49289 0.0
C79 C 0.11621 0.082 0.49577 0.0
C80 C 0.10903 0.11417 0.49682 0.0
C81 C 0.07728 0.12319 0.4942 0.0
C82 C 0.05378 0.10016 0.49145 0.0
Zn83 Zn 0.02801 0.03447 0.48809 0.0
C84 C 0.97623 0.0453 0.3929 0.0
N85 N 0.96101 0.9591 0.48212 0.0
C86 C 0.97111 0.9289 0.48689 0.0
C87 C 0.92981 0.96601 0.47821 0.0
C88 C 0.90741 0.94209 0.47994 0.0
C89 C 0.91726 0.91085 0.48659 0.0
C90 C 0.94957 0.90438 0.48953 0.0
Zn91 Zn 0.99382 0.99446 0.48416 0.0
O92 O 0.05286 0.00927 0.41664 0.0
C93 C 0.04557 0.98395 0.57993 0.0
O94 O 0.01943 0.96997 0.41507 0.0
H95 H 0.92225 0.99016 0.47471 0.0
H96 H 0.09786 0.03515 0.49218 0.0
H97 H 0.99597 0.92381 0.48945 0.0
O98 O 0.054 0.01069 0.5615 0.0
O99 O 0.02061 0.97137 0.55593 0.0
H100 H 0.02935 0.10706 0.48995 0.0
O101 O 0.96893 0.0195 0.55526 0.0
O102 O 1.00244 0.05884 0.55743 0.0
O103 O 0.96775 0.01841 0.41078 0.0
O104 O 1.00131 0.05775 0.4169 0.0
C105 C 0.97764 0.04647 0.57687 0.0
H106 H 0.14031 0.07392 0.49645 0.0
H107 H 0.07069 0.14775 0.49522 0.0
H108 H 0.88269 0.94803 0.47788 0.0
H109 H 0.95811 0.88054 0.49385 0.0
C110 C 0.47773 0.48296 0.93735 0.0
N111 N 0.56307 0.46062 0.03392 0.0
C112 C 0.55256 0.43049 0.0282 0.0
C113 C 0.57375 0.40556 0.02579 0.0
C114 C 0.60615 0.41158 0.02988 0.0
C115 C 0.61643 0.44284 0.0371 0.0
C116 C 0.59436 0.46715 0.03863 0.0
Zn117 Zn 0.53056 0.49619 0.03337 0.0
C118 C 0.54531 0.54591 0.94312 0.0
N119 N 0.46142 0.56955 0.03082 0.0
C120 C 0.43019 0.56292 0.03093 0.0
C121 C 0.47178 0.59972 0.02978 0.0
C122 C 0.45047 0.62459 0.02816 0.0
C123 C 0.4181 0.61849 0.02792 0.0
C124 C 0.40802 0.58716 0.02975 0.0
Zn125 Zn 0.494 0.534 0.0318 0.0
O126 O 0.50393 0.4724 0.95871 0.0
C127 C 0.47931 0.48415 0.12198 0.0
O128 O 0.46747 0.50893 0.95919 0.0
H129 H 0.49667 0.60457 0.03016 0.0
H130 H 0.52763 0.42573 0.02503 0.0
H131 H 0.42241 0.53878 0.03163 0.0
O132 O 0.50503 0.47304 0.10288 0.0
O133 O 0.46897 0.51002 0.10073 0.0
H134 H 0.60224 0.49127 0.04295 0.0
O135 O 0.52119 0.55851 0.10444 0.0
O136 O 0.55649 0.52083 0.10769 0.0
O137 O 0.51977 0.55718 0.9627 0.0
O138 O 0.55549 0.5199 0.96397 0.0
C139 C 0.54687 0.54747 0.12743 0.0
H140 H 0.56486 0.38176 0.02107 0.0
H141 H 0.64123 0.44844 0.04007 0.0
H142 H 0.45929 0.64842 0.02776 0.0
H143 H 0.38327 0.58144 0.0292 0.0
C144 C 0.26678 0.20369 0.44671 0.0
C145 C 0.27429 0.22864 0.48989 0.0
C146 C 0.23772 0.18836 0.44706 0.0
C147 C 0.21544 0.19827 0.49153 0.0
C148 C 0.22216 0.22455 0.53291 0.0
C149 C 0.25156 0.23945 0.53161 0.0
C150 C 0.23151 0.16056 0.40186 0.0
C151 C 0.19893 0.23596 0.58067 0.0
C152 C 0.13342 0.16419 0.46125 0.0
C153 C 0.13478 0.13783 0.50011 0.0
C154 C 0.159 0.18498 0.45992 0.0
C155 C 0.18655 0.1792 0.49824 0.0
C156 C 0.18749 0.1534 0.53955 0.0
C157 C 0.16161 0.13313 0.54009 0.0
C158 C 0.15702 0.21233 0.41554 0.0
C159 C 0.21634 0.14641 0.58139 0.0
H160 H 0.28404 0.19563 0.41348 0.0
H161 H 0.25725 0.25865 0.56524 0.0
H162 H 0.22988 0.13887 0.42974 0.0
H163 H 0.20875 0.16345 0.37479 0.0
H164 H 0.25027 0.15729 0.36711 0.0
H165 H 0.20604 0.25879 0.60384 0.0
H166 H 0.17529 0.23853 0.55701 0.0
H167 H 0.19699 0.2184 0.61852 0.0
H168 H 0.11285 0.16793 0.43 0.0
H169 H 0.16259 0.1132 0.57127 0.0
H170 H 0.17315 0.20832 0.37595 0.0
H171 H 0.1646 0.23431 0.44145 0.0
H172 H 0.1329 0.21565 0.39445 0.0
H173 H 0.23618 0.14033 0.55083 0.0
H174 H 0.21258 0.12663 0.61373 0.0
H175 H 0.22339 0.16747 0.61096 0.0
C176 C 0.32958 0.78033 0.06756 0.0
C177 C 0.30376 0.78455 0.02467 0.0
C178 C 0.34515 0.75139 0.07098 0.0
C179 C 0.33476 0.72602 0.03026 0.0
C180 C 0.30761 0.7296 0.98941 0.0
C181 C 0.29235 0.75886 0.98724 0.0
C182 C 0.37376 0.7485 0.11577 0.0
C183 C 0.29578 0.70312 0.94533 0.0
C184 C 0.39935 0.66962 0.98406 0.0
C185 C 0.39521 0.64484 0.02563 0.0
C186 C 0.37916 0.69562 0.98369 0.0
C187 C 0.35422 0.69702 0.02614 0.0
C188 C 0.34932 0.67166 0.06697 0.0
C189 C 0.36984 0.64581 0.06612 0.0
C190 C 0.38507 0.72202 0.93897 0.0
C191 C 0.32306 0.67233 0.11301 0.0
H192 H 0.33819 0.80006 0.09719 0.0
H193 H 0.27249 0.76208 0.95379 0.0
H194 H 0.37199 0.72729 0.14498 0.0
H195 H 0.39502 0.74582 0.08741 0.0
H196 H 0.37698 0.76935 0.14851 0.0
H197 H 0.27242 0.70838 0.92237 0.0
H198 H 0.31263 0.69892 0.90712 0.0
H199 H 0.2941 0.68106 0.97196 0.0
H200 H 0.41857 0.66874 0.95187 0.0
H201 H 0.36663 0.62681 0.09863 0.0
H202 H 0.39129 0.74373 0.96725 0.0
H203 H 0.36347 0.72704 0.9094 0.0
H204 H 0.40437 0.71654 0.90651 0.0
H205 H 0.32744 0.6913 0.14975 0.0
H206 H 0.32081 0.64973 0.13771 0.0
H207 H 0.3004 0.67761 0.08736 0.0
C208 C 0.82471 0.74981 0.4839 0.0
C209 C 0.79958 0.74971 0.52476 0.0
C210 C 0.84068 0.77769 0.47217 0.0
C211 C 0.8316 0.80608 0.50295 0.0
C212 C 0.80507 0.80639 0.54141 0.0
C213 C 0.78921 0.77815 0.55156 0.0
C214 C 0.86846 0.77637 0.42994 0.0
C215 C 0.79476 0.83609 0.5754 0.0
C216 C 0.89865 0.86313 0.54047 0.0
C217 C 0.89417 0.88509 0.49218 0.0
C218 C 0.87786 0.83794 0.54553 0.0
C219 C 0.85209 0.83432 0.50071 0.0
C220 C 0.84708 0.85674 0.45247 0.0
C221 C 0.86811 0.88201 0.44903 0.0
C222 C 0.88384 0.81483 0.59827 0.0
C223 C 0.82009 0.85351 0.40345 0.0
H224 H 0.83259 0.72779 0.4629 0.0
H225 H 0.76991 0.77801 0.58356 0.0
H226 H 0.86699 0.7954 0.39474 0.0
H227 H 0.89042 0.78001 0.45978 0.0
H228 H 0.8701 0.75348 0.40355 0.0
H229 H 0.77158 0.83332 0.59677 0.0
H230 H 0.81235 0.84255 0.6143 0.0
H231 H 0.79338 0.85585 0.54195 0.0
H232 H 0.9185 0.86573 0.57452 0.0
H233 H 0.86467 0.89889 0.41146 0.0
H234 H 0.88894 0.79132 0.57711 0.0
H235 H 0.86261 0.81251 0.62654 0.0
H236 H 0.90388 0.82195 0.63131 0.0
H237 H 0.82316 0.83189 0.37358 0.0
H238 H 0.81832 0.8739 0.37148 0.0
H239 H 0.79763 0.85109 0.4276 0.0
C240 C 0.73139 0.27274 0.97646 0.0
C241 C 0.72008 0.2459 0.00512 0.0
C242 C 0.7162 0.30185 0.98374 0.0
C243 C 0.68932 0.30409 0.02105 0.0
C244 C 0.67916 0.27745 0.05347 0.0
C245 C 0.69455 0.24866 0.0448 0.0
C246 C 0.72771 0.32965 0.94824 0.0
C247 C 0.65091 0.2789 0.09445 0.0
C248 C 0.65456 0.38314 0.0697 0.0
C249 C 0.62887 0.38524 0.02561 0.0
C250 C 0.675 0.35722 0.06806 0.0
C251 C 0.66975 0.33308 0.02082 0.0
C252 C 0.64445 0.33569 0.97494 0.0
C253 C 0.62428 0.36163 0.9781 0.0
C254 C 0.70155 0.35516 0.11805 0.0
C255 C 0.63822 0.31068 0.92327 0.0
H256 H 0.75101 0.2706 0.94544 0.0
H257 H 0.686 0.22795 0.06751 0.0
H258 H 0.7106 0.33503 0.90843 0.0
H259 H 0.72948 0.35078 0.98041 0.0
H260 H 0.75095 0.32517 0.92787 0.0
H261 H 0.64815 0.25717 0.12184 0.0
H262 H 0.65278 0.29923 0.12871 0.0
H263 H 0.62938 0.28222 0.06355 0.0
H264 H 0.65809 0.40128 0.1067 0.0
H265 H 0.60474 0.36343 0.94331 0.0
H266 H 0.72408 0.35081 0.09487 0.0
H267 H 0.69749 0.33505 0.14927 0.0
H268 H 0.70384 0.37687 0.14858 0.0
H269 H 0.65964 0.3065 0.89606 0.0
H270 H 0.6187 0.31712 0.88911 0.0
H271 H 0.63219 0.28824 0.94543 0.0
C272 C 0.11796 0.88303 0.11455 0.0
C273 C 0.1508 0.88537 0.11377 0.0
C274 C 0.10135 0.89679 0.16431 0.0
C275 C 0.11802 0.91202 0.21634 0.0
C276 C 0.15127 0.91183 0.21908 0.0
C277 C 0.1673 0.89893 0.16726 0.0
C278 C 0.06589 0.8969 0.15885 0.0
C279 C 0.16989 0.92667 0.27512 0.0
C280 C 0.07681 0.97962 0.2997 0.0
C281 C 0.06362 0.96453 0.35061 0.0
C282 C 0.09468 0.96275 0.25572 0.0
C283 C 0.10052 0.93036 0.26467 0.0
C284 C 0.08821 0.91535 0.31765 0.0
C285 C 0.0693 0.9325 0.3593 0.0
C286 C 0.10654 0.9794 0.19872 0.0
C287 C 0.09499 0.88124 0.33031 0.0
H288 H 0.10503 0.87171 0.07445 0.0
H289 H 0.19262 0.90096 0.16741 0.0
H290 H 0.05608 0.88738 0.20252 0.0
H291 H 0.05735 0.92141 0.15462 0.0
H292 H 0.05651 0.88292 0.11658 0.0
H293 H 0.19507 0.91995 0.27523 0.0
H294 H 0.16828 0.9526 0.27287 0.0
H295 H 0.16019 0.91976 0.32105 0.0
H296 H 0.07232 1.00441 0.29321 0.0
H297 H 0.05944 0.92103 0.39947 0.0
H298 H 0.09726 0.96766 0.1537 0.0
H299 H 0.13251 0.97805 0.19886 0.0
H300 H 0.09952 1.00451 0.19826 0.0
H301 H 0.08398 0.86617 0.29144 0.0
H302 H 0.08605 0.8739 0.37671 0.0
H303 H 0.12066 0.87689 0.33066 0.0
C304 C 0.66458 0.6302 0.71772 0.0
C305 C 0.64776 0.64365 0.666 0.0
C306 C 0.64893 0.61663 0.76784 0.0
C307 C 0.61571 0.61548 0.76504 0.0
C308 C 0.59861 0.63 0.7144 0.0
C309 C 0.61482 0.64455 0.66651 0.0
C310 C 0.66796 0.60249 0.8225 0.0
C311 C 0.56318 0.62875 0.70884 0.0
C312 C 0.57673 0.54804 0.84599 0.0
C313 C 0.56363 0.56351 0.89823 0.0
C314 C 0.5937 0.56475 0.80212 0.0
C315 C 0.59875 0.59741 0.81255 0.0
C316 C 0.58643 0.61288 0.86671 0.0
C317 C 0.56838 0.59582 0.90823 0.0
C318 C 0.60552 0.5476 0.74379 0.0
C319 C 0.59239 0.64735 0.8809 0.0
H320 H 0.68996 0.62912 0.71806 0.0
H321 H 0.60152 0.65577 0.62809 0.0
H322 H 0.65849 0.60994 0.86911 0.0
H323 H 0.66641 0.57652 0.81875 0.0
H324 H 0.6931 0.60931 0.82249 0.0
H325 H 0.5534 0.64158 0.66688 0.0
H326 H 0.55533 0.60393 0.70414 0.0
H327 H 0.55311 0.63893 0.75274 0.0
H328 H 0.57289 0.52302 0.83847 0.0
H329 H 0.55854 0.6076 0.94938 0.0
H330 H 0.63143 0.54947 0.74331 0.0
H331 H 0.59572 0.55859 0.69966 0.0
H332 H 0.599 0.52234 0.74208 0.0
H333 H 0.61796 0.65228 0.88148 0.0
H334 H 0.58327 0.65522 0.92763 0.0
H335 H 0.58106 0.66156 0.84267 0.0
C336 C 0.85382 0.12933 0.14977 0.0
C337 C 0.87084 0.14312 0.10192 0.0
C338 C 0.86931 0.11592 0.20319 0.0
C339 C 0.90255 0.11542 0.20773 0.0
C340 C 0.91975 0.13078 0.16152 0.0
C341 C 0.90366 0.14506 0.11017 0.0
C342 C 0.85014 0.10094 0.25307 0.0
C343 C 0.95522 0.1304 0.16389 0.0
C344 C 0.95044 0.09471 0.35826 0.0
C345 C 0.95638 0.06275 0.34679 0.0
C346 C 0.93154 0.11184 0.31498 0.0
C347 C 0.91953 0.09691 0.25769 0.0
C348 C 0.92548 0.06454 0.24611 0.0
C349 C 0.94333 0.04767 0.2916 0.0
C350 C 0.92464 0.14592 0.33033 0.0
C351 C 0.91392 0.04799 0.18469 0.0
H352 H 0.82849 0.1276 0.1441 0.0
H353 H 0.917 0.15654 0.07458 0.0
H354 H 0.85167 0.07502 0.24785 0.0
H355 H 0.85945 0.10763 0.302 0.0
H356 H 0.82501 0.10779 0.2484 0.0
H357 H 0.96504 0.1442 0.12516 0.0
H358 H 0.96471 0.13998 0.21067 0.0
H359 H 0.96363 0.10582 0.15909 0.0
H360 H 0.96022 0.10617 0.40167 0.0
H361 H 0.94804 0.02293 0.28299 0.0
H362 H 0.89904 0.1504 0.32478 0.0
H363 H 0.93632 0.16108 0.29631 0.0
H364 H 0.93288 0.15302 0.37983 0.0
H365 H 0.888 0.04961 0.1792 0.0
H366 H 0.9207 0.02281 0.18299 0.0
H367 H 0.92371 0.05962 0.1431 0.0
C368 C 0.37545 0.41359 0.64106 0.0
C369 C 0.37744 0.38075 0.63436 0.0
C370 C 0.38952 0.4297 0.69419 0.0
C371 C 0.40468 0.41252 0.74359 0.0
C372 C 0.40413 0.37927 0.74028 0.0
C373 C 0.39097 0.36376 0.6852 0.0
C374 C 0.39007 0.46517 0.69509 0.0
C375 C 0.41891 0.3601 0.79332 0.0
C376 C 0.47354 0.45174 0.83523 0.0
C377 C 0.4591 0.46474 0.88851 0.0
C378 C 0.45601 0.4347 0.78767 0.0
C379 C 0.42358 0.42944 0.79521 0.0
C380 C 0.40918 0.44163 0.85033 0.0
C381 C 0.42702 0.45978 0.89575 0.0
C382 C 0.47205 0.42301 0.72864 0.0
C383 C 0.37504 0.43537 0.86141 0.0
H384 H 0.36413 0.42693 0.6031 0.0
H385 H 0.39276 0.33843 0.68086 0.0
H386 H 0.38101 0.4748 0.74045 0.0
H387 H 0.41465 0.47345 0.69256 0.0
H388 H 0.37594 0.475 0.65438 0.0
H389 H 0.41174 0.33504 0.7889 0.0
H390 H 0.44484 0.36129 0.79174 0.0
H391 H 0.4124 0.36964 0.84084 0.0
H392 H 0.49839 0.4557 0.82993 0.0
H393 H 0.41608 0.46952 0.93772 0.0
H394 H 0.46006 0.43261 0.68516 0.0
H395 H 0.47044 0.39706 0.72433 0.0
H396 H 0.49721 0.42981 0.72947 0.0
H397 H 0.35997 0.44661 0.82397 0.0
H398 H 0.36809 0.44439 0.90909 0.0
H399 H 0.3703 0.40976 0.85774 0.0
C400 C 0.6164 0.6504 0.42005 0.0
C401 C 0.64926 0.64906 0.42814 0.0
C402 C 0.6006 0.63605 0.36681 0.0
C403 C 0.6181 0.62126 0.31867 0.0
C404 C 0.65132 0.6226 0.32316 0.0
C405 C 0.66655 0.63606 0.37837 0.0
C406 C 0.56516 0.63473 0.3646 0.0
C407 C 0.67079 0.6083 0.27138 0.0
C408 C 0.57955 0.55173 0.22898 0.0
C409 C 0.56589 0.56604 0.17513 0.0
C410 C 0.5968 0.56947 0.27591 0.0
C411 C 0.60156 0.60199 0.26718 0.0
C412 C 0.58887 0.61621 0.2113 0.0
C413 C 0.57056 0.59816 0.16653 0.0
C414 C 0.60908 0.55362 0.33577 0.0
C415 C 0.59454 0.65044 0.19894 0.0
H416 H 0.60284 0.66129 0.45726 0.0
H417 H 0.6919 0.63484 0.38383 0.0
H418 H 0.55532 0.64364 0.31856 0.0
H419 H 0.55742 0.60997 0.36768 0.0
H420 H 0.55504 0.64861 0.40443 0.0
H421 H 0.69565 0.61614 0.27635 0.0
H422 H 0.67029 0.58235 0.27405 0.0
H423 H 0.66102 0.61452 0.22325 0.0
H424 H 0.57582 0.52686 0.23537 0.0
H425 H 0.56031 0.60903 0.12415 0.0
H426 H 0.5992 0.56523 0.37857 0.0
H427 H 0.63496 0.55597 0.34088 0.0
H428 H 0.60299 0.52827 0.33548 0.0
H429 H 0.58256 0.66535 0.23463 0.0
H430 H 0.58582 0.65705 0.15023 0.0
H431 H 0.62 0.65581 0.20439 0.0
C432 C 0.85557 0.12747 0.81004 0.0
C433 C 0.87209 0.14111 0.86345 0.0
C434 C 0.87155 0.11463 0.75814 0.0
C435 C 0.90478 0.11448 0.7607 0.0
C436 C 0.92152 0.12939 0.81302 0.0
C437 C 0.90496 0.14314 0.86287 0.0
C438 C 0.85287 0.10002 0.70187 0.0
C439 C 0.95698 0.12925 0.81828 0.0
C440 C 0.94577 0.04798 0.67357 0.0
C441 C 0.95855 0.06367 0.62296 0.0
C442 C 0.92817 0.0643 0.71877 0.0
C443 C 0.9222 0.09677 0.71141 0.0
C444 C 0.93416 0.11243 0.65885 0.0
C445 C 0.95281 0.09579 0.61591 0.0
C446 C 0.91672 0.04699 0.77532 0.0
C447 C 0.92724 0.14668 0.64796 0.0
H448 H 0.83024 0.12557 0.80974 0.0
H449 H 0.91795 0.15453 0.90279 0.0
H450 H 0.86221 0.10764 0.65609 0.0
H451 H 0.85497 0.07409 0.70289 0.0
H452 H 0.82759 0.10627 0.70253 0.0
H453 H 0.96642 0.14259 0.86135 0.0
H454 H 0.96555 0.10469 0.82079 0.0
H455 H 0.96669 0.1395 0.77522 0.0
H456 H 0.95036 0.02313 0.67883 0.0
H457 H 0.9624 0.10773 0.57601 0.0
H458 H 0.89076 0.04821 0.77586 0.0
H459 H 0.92621 0.05831 0.82061 0.0
H460 H 0.92384 0.0219 0.77451 0.0
H461 H 0.90156 0.1509 0.64797 0.0
H462 H 0.93609 0.15463 0.60192 0.0
H463 H 0.93825 0.16133 0.68749 0.0
C464 C 0.39326 0.36516 0.34566 0.0
C465 C 0.37946 0.38184 0.39598 0.0
C466 C 0.40675 0.38098 0.29557 0.0
C467 C 0.40741 0.41422 0.29701 0.0
C468 C 0.39228 0.43114 0.34589 0.0
C469 C 0.37785 0.41475 0.39374 0.0
C470 C 0.42155 0.3621 0.24275 0.0
C471 C 0.39298 0.4666 0.35003 0.0
C472 C 0.47576 0.45351 0.22086 0.0
C473 C 0.46098 0.4664 0.16657 0.0
C474 C 0.45849 0.43661 0.26392 0.0
C475 C 0.42599 0.43138 0.25065 0.0
C476 C 0.4112 0.44359 0.19459 0.0
C477 C 0.42879 0.46158 0.15384 0.0
C478 C 0.47491 0.42492 0.32425 0.0
C479 C 0.37695 0.43739 0.17741 0.0
H480 H 0.39484 0.3398 0.34665 0.0
H481 H 0.36635 0.42789 0.43111 0.0
H482 H 0.4147 0.37168 0.19528 0.0
H483 H 0.44747 0.36363 0.24883 0.0
H484 H 0.41471 0.33694 0.24287 0.0
H485 H 0.37921 0.47622 0.38993 0.0
H486 H 0.41762 0.47477 0.35742 0.0
H487 H 0.38357 0.47653 0.30459 0.0
H488 H 0.50069 0.45734 0.2304 0.0
H489 H 0.41759 0.47123 0.11109 0.0
H490 H 0.47342 0.39896 0.32526 0.0
H491 H 0.46312 0.43442 0.3669 0.0
H492 H 0.50006 0.43183 0.32834 0.0
H493 H 0.37229 0.41176 0.1766 0.0
H494 H 0.36957 0.44678 0.13 0.0
H495 H 0.36217 0.44828 0.21422 0.0
C496 C 0.11846 0.88723 0.86764 0.0
C497 C 0.15129 0.88946 0.87564 0.0
C498 C 0.10215 0.90127 0.81626 0.0
C499 C 0.11911 0.91663 0.7697 0.0
C500 C 0.15234 0.91673 0.77432 0.0
C501 C 0.16805 0.90362 0.82782 0.0
C502 C 0.06668 0.90113 0.81387 0.0
C503 C 0.17127 0.93177 0.72413 0.0
C504 C 0.07149 0.93511 0.61746 0.0
C505 C 0.06516 0.96708 0.62735 0.0
C506 C 0.09033 0.91865 0.66197 0.0
C507 C 0.10187 0.93433 0.71886 0.0
C508 C 0.09541 0.96669 0.72894 0.0
C509 C 0.07765 0.98286 0.68226 0.0
C510 C 0.0978 0.88455 0.64825 0.0
C511 C 0.10639 0.98399 0.78992 0.0
H512 H 0.10529 0.87543 0.90303 0.0
H513 H 0.19335 0.90568 0.83326 0.0
H514 H 0.05787 0.92562 0.81713 0.0
H515 H 0.05737 0.89075 0.76764 0.0
H516 H 0.05705 0.88775 0.85342 0.0
H517 H 0.19659 0.92572 0.72946 0.0
H518 H 0.16233 0.92432 0.67536 0.0
H519 H 0.16894 0.95766 0.72812 0.0
H520 H 0.06211 0.92312 0.5743 0.0
H521 H 0.07262 1.00761 0.68965 0.0
H522 H 0.08647 0.8696 0.68313 0.0
H523 H 0.12349 0.88058 0.65386 0.0
H524 H 0.08962 0.87675 0.59914 0.0
H525 H 0.0967 0.97253 0.8318 0.0
H526 H 0.0991 0.00903 0.79054 0.0
H527 H 0.13233 0.98294 0.7959 0.0
loop_
_geom_bond_atom_site_label_1
_geom_bond_atom_site_label_2
_geom_bond_distance
_geom_bond_site_symmetry_2
_ccdc_geom_bond_type
H0 C1 0.949 . S
C1 H0 0.949 . S
C1 C2 1.395 . S
C1 C3 1.391 1_554 S
C2 C1 1.395 . S
C2 C5 1.390 . S
C3 C1 1.391 1_556 S
C3 C7 1.387 . S
C3 C8 1.491 . S
H4 C5 0.950 . S
C5 C2 1.390 . S
C5 H4 0.950 . S
C5 C6 1.378 1_554 S
C6 C5 1.378 1_556 S
C6 C7 1.409 . S
C7 C3 1.387 . S
C7 C6 1.409 . S
C7 H9 0.951 . S
C8 C3 1.491 . S
C8 C10 1.382 1_556 S
C8 C12 1.404 . S
H9 C7 0.951 . S
C10 C8 1.382 1_554 S
C10 C11 1.390 . S
C10 H15 0.949 . S
C11 C10 1.390 . S
C11 C16 1.399 1_554 S
C12 C8 1.404 . S
C12 H13 0.950 . S
C12 C14 1.375 . S
H13 C12 0.950 . S
C14 C12 1.375 . S
C14 C16 1.382 . S
C14 H18 0.950 . S
H15 C10 0.949 . S
C16 C11 1.399 1_556 S
C16 C14 1.382 . S
C16 H17 0.952 . S
H17 C16 0.952 . S
H18 C14 0.950 . S
H19 C20 0.949 . S
C20 H19 0.949 . S
C20 C21 1.395 . S
C20 C22 1.391 . S
C21 C20 1.395 . S
C21 C24 1.390 . S
C22 C20 1.391 . S
C22 C26 1.387 . S
C22 C27 1.491 . S
H23 C24 0.950 . S
C24 C21 1.390 . S
C24 H23 0.950 . S
C24 C25 1.378 . S
C25 C24 1.378 . S
C25 C26 1.409 . S
C26 C22 1.387 . S
C26 C25 1.409 . S
C26 H28 0.951 . S
C27 C22 1.491 . S
C27 C29 1.382 . S
C27 C31 1.404 . S
H28 C26 0.951 . S
C29 C27 1.382 . S
C29 C30 1.390 . S
C29 H34 0.949 . S
C30 C29 1.390 . S
C30 C35 1.399 . S
C31 C27 1.404 . S
C31 H32 0.950 . S
C31 C33 1.375 . S
H32 C31 0.950 . S
C33 C31 1.375 . S
C33 C35 1.382 . S
C33 H37 0.950 . S
H34 C29 0.949 . S
C35 C30 1.399 . S
C35 C33 1.382 . S
C35 H36 0.952 . S
H36 C35 0.952 . S
H37 C33 0.950 . S
H38 C39 0.949 . S
C39 H38 0.949 . S
C39 C40 1.395 . S
C39 C41 1.391 1_554 S
C40 C39 1.395 . S
C40 C43 1.390 . S
C41 C39 1.391 1_556 S
C41 C45 1.387 . S
C41 C46 1.491 . S
H42 C43 0.950 . S
C43 C40 1.390 . S
C43 H42 0.950 . S
C43 C44 1.378 1_554 S
C44 C43 1.378 1_556 S
C44 C45 1.409 . S
C45 C41 1.387 . S
C45 C44 1.409 . S
C45 H47 0.951 . S
C46 C41 1.491 . S
C46 C48 1.382 1_556 S
C46 C50 1.404 . S
H47 C45 0.951 . S
C48 C46 1.382 1_554 S
C48 C49 1.390 . S
C48 H53 0.949 . S
C49 C48 1.390 . S
C49 C54 1.399 1_554 S
C50 C46 1.404 . S
C50 H51 0.950 . S
C50 C52 1.375 . S
H51 C50 0.950 . S
C52 C50 1.375 . S
C52 C54 1.382 . S
C52 H56 0.950 . S
H53 C48 0.949 . S
C54 C49 1.399 1_556 S
C54 C52 1.382 . S
C54 H55 0.952 . S
H55 C54 0.952 . S
H56 C52 0.950 . S
H57 C58 0.949 . S
C58 H57 0.949 . S
C58 C59 1.395 . S
C58 C60 1.391 . S
C59 C58 1.395 . S
C59 C62 1.390 . S
C60 C58 1.391 . S
C60 C64 1.387 . S
C60 C65 1.491 . S
H61 C62 0.950 . S
C62 C59 1.390 . S
C62 H61 0.950 . S
C62 C63 1.378 . S
C63 C62 1.378 . S
C63 C64 1.409 . S
C64 C60 1.387 . S
C64 C63 1.409 . S
C64 H66 0.951 . S
C65 C60 1.491 . S
C65 C67 1.382 . S
C65 C69 1.404 . S
H66 C64 0.951 . S
C67 C65 1.382 . S
C67 C68 1.390 . S
C67 H72 0.949 . S
C68 C67 1.390 . S
C68 C73 1.399 . S
C69 C65 1.404 . S
C69 H70 0.950 . S
C69 C71 1.375 . S
H70 C69 0.950 . S
C71 C69 1.375 . S
C71 C73 1.382 . S
C71 H75 0.950 . S
H72 C67 0.949 . S
C73 C68 1.399 . S
C73 C71 1.382 . S
C73 H74 0.952 . S
H74 C73 0.952 . S
H75 C71 0.950 . S
C76 O92 1.251 . S
C76 O94 1.254 . S
N77 C78 1.333 . S
N77 C82 1.307 . S
N77 Zn83 2.020 . S
C78 N77 1.333 . S
C78 C79 1.379 . S
C78 H96 0.952 . S
C79 C78 1.379 . S
C79 C80 1.390 . S
C79 H106 0.949 . S
C80 C79 1.390 . S
C80 C81 1.357 . S
C81 C80 1.357 . S
C81 C82 1.370 . S
C81 H107 0.950 . S
C82 N77 1.307 . S
C82 C81 1.370 . S
C82 H100 0.948 . S
Zn83 N77 2.020 . S
Zn83 O92 2.039 1_545 S
Zn83 O98 2.034 1_545 S
Zn83 O102 2.026 1_455 S
Zn83 O104 2.005 1_455 S
C84 O103 1.246 . S
C84 O104 1.275 . S
N85 C86 1.307 . S
N85 C87 1.333 . S
N85 Zn91 2.020 . S
C86 N85 1.307 . S
C86 C90 1.370 . S
C86 H97 0.948 . S
C87 N85 1.333 . S
C87 C88 1.379 . S
C87 H95 0.952 . S
C88 C87 1.379 . S
C88 C89 1.390 . S
C88 H108 0.949 . S
C89 C88 1.390 . S
C89 C90 1.357 . S
C90 C86 1.370 . S
C90 C89 1.357 . S
C90 H109 0.950 . S
Zn91 N85 2.020 . S
Zn91 O94 2.025 1_655 S
Zn91 O99 2.024 1_655 S
Zn91 O101 2.039 1_565 S
Zn91 O103 2.034 1_565 S
O92 C76 1.251 . S
O92 Zn83 2.039 1_565 S
C93 O98 1.246 . S
C93 O99 1.249 . S
O94 C76 1.254 . S
O94 Zn91 2.025 1_455 S
H95 C87 0.952 . S
H96 C78 0.952 . S
H97 C86 0.948 . S
O98 Zn83 2.034 1_565 S
O98 C93 1.246 . S
O99 Zn91 2.024 1_455 S
O99 C93 1.249 . S
H100 C82 0.948 . S
O101 Zn91 2.039 1_545 S
O101 C105 1.251 . S
O102 Zn83 2.026 1_655 S
O102 C105 1.253 . S
O103 C84 1.246 . S
O103 Zn91 2.034 1_545 S
O104 Zn83 2.005 1_655 S
O104 C84 1.275 . S
C105 O101 1.251 . S
C105 O102 1.253 . S
H106 C79 0.949 . S
H107 C81 0.950 . S
H108 C88 0.949 . S
H109 C90 0.950 . S
C110 O126 1.251 . S
C110 O128 1.254 . S
N111 C112 1.333 . S
N111 C116 1.307 . S
N111 Zn117 2.020 . S
C112 N111 1.333 . S
C112 C113 1.379 . S
C112 H130 0.952 1_554 S
C113 C112 1.379 . S
C113 C114 1.390 . S
C113 H140 0.949 1_554 S
C114 C113 1.390 . S
C114 C115 1.357 . S
C115 C114 1.357 . S
C115 C116 1.370 . S
C115 H141 0.950 . S
C116 N111 1.307 . S
C116 C115 1.370 . S
C116 H134 0.948 . S
Zn117 N111 2.020 . S
Zn117 O126 2.039 1_554 S
Zn117 O132 2.034 . S
Zn117 O136 2.025 . S
Zn117 O138 2.024 1_554 S
C118 O137 1.246 . S
C118 O138 1.249 . S
N119 C120 1.307 . S
N119 C121 1.333 . S
N119 Zn125 2.020 . S
C120 N119 1.307 . S
C120 C124 1.370 . S
C120 H131 0.950 . S
C121 N119 1.333 . S
C121 C122 1.379 . S
C121 H129 0.952 . S
C122 C121 1.379 . S
C122 C123 1.390 . S
C122 H142 0.949 . S
C123 C122 1.390 . S
C123 C124 1.357 . S
C124 C120 1.370 . S
C124 C123 1.357 . S
C124 H143 0.950 . S
Zn125 N119 2.020 . S
Zn125 O128 2.025 1_554 S
Zn125 O133 2.024 . S
Zn125 O135 2.039 . S
Zn125 O137 2.034 1_554 S
O126 C110 1.251 . S
O126 Zn117 2.039 1_556 S
C127 O132 1.246 . S
C127 O133 1.249 . S
O128 C110 1.254 . S
O128 Zn125 2.025 1_556 S
H129 C121 0.952 . S
H130 C112 0.952 1_556 S
H131 C120 0.950 . S
O132 Zn117 2.034 . S
O132 C127 1.246 . S
O133 Zn125 2.024 . S
O133 C127 1.249 . S
H134 C116 0.948 . S
O135 Zn125 2.039 . S
O135 C139 1.251 . S
O136 Zn117 2.025 . S
O136 C139 1.254 . S
O137 C118 1.246 . S
O137 Zn125 2.034 1_556 S
O138 Zn117 2.024 1_556 S
O138 C118 1.249 . S
C139 O135 1.251 . S
C139 O136 1.254 . S
H140 C113 0.949 1_556 S
H141 C115 0.950 . S
H142 C122 0.949 . S
H143 C124 0.950 . S
C144 C145 1.391 . S
C144 C146 1.394 . S
C144 H160 0.931 . S
C145 C144 1.391 . S
C145 C149 1.376 . S
C146 C144 1.394 . S
C146 C147 1.369 . S
C146 C150 1.531 . S
C147 C146 1.369 . S
C147 C148 1.410 . S
C147 C155 1.503 . S
C148 C147 1.410 . S
C148 C149 1.392 . S
C148 C151 1.511 . S
C149 C145 1.376 . S
C149 C148 1.392 . S
C149 H161 0.929 . S
C150 C146 1.531 . S
C150 H162 0.960 . S
C150 H163 0.962 . S
C150 H164 0.960 . S
C151 C148 1.511 . S
C151 H165 0.961 . S
C151 H166 0.961 . S
C151 H167 0.961 . S
C152 C153 1.370 . S
C152 C154 1.363 . S
C152 H168 0.931 . S
C153 C152 1.370 . S
C153 C157 1.408 . S
C154 C152 1.363 . S
C154 C155 1.370 . S
C154 C158 1.524 . S
C155 C147 1.503 . S
C155 C154 1.370 . S
C155 C156 1.403 . S
C156 C155 1.403 . S
C156 C157 1.404 . S
C156 C159 1.539 . S
C157 C153 1.408 . S
C157 C156 1.404 . S
C157 H169 0.930 . S
C158 C154 1.524 . S
C158 H170 0.956 . S
C158 H171 0.961 . S
C158 H172 0.961 . S
C159 C156 1.539 . S
C159 H173 0.958 . S
C159 H174 0.961 . S
C159 H175 0.960 . S
H160 C144 0.931 . S
H161 C149 0.929 . S
H162 C150 0.960 . S
H163 C150 0.962 . S
H164 C150 0.960 . S
H165 C151 0.961 . S
H166 C151 0.961 . S
H167 C151 0.961 . S
H168 C152 0.931 . S
H169 C157 0.930 . S
H170 C158 0.956 . S
H171 C158 0.961 . S
H172 C158 0.961 . S
H173 C159 0.958 . S
H174 C159 0.961 . S
H175 C159 0.960 . S
C176 C177 1.391 . S
C176 C178 1.394 . S
C176 H192 0.931 1_554 S
C177 C176 1.391 . S
C177 C181 1.376 . S
C178 C176 1.394 . S
C178 C179 1.369 . S
C178 C182 1.531 1_554 S
C179 C178 1.369 . S
C179 C180 1.410 . S
C179 C187 1.503 . S
C180 C179 1.410 . S
C180 C181 1.392 . S
C180 C183 1.511 . S
C181 C177 1.376 . S
C181 C180 1.392 . S
C181 H193 0.929 . S
C182 C178 1.531 1_556 S
C182 H194 0.960 . S
C182 H195 0.962 . S
C182 H196 0.960 . S
C183 C180 1.511 . S
C183 H197 0.961 . S
C183 H198 0.961 . S
C183 H199 0.961 . S
C184 C185 1.370 1_556 S
C184 C186 1.362 1_556 S
C184 H200 0.931 . S
C185 C184 1.370 1_554 S
C185 C189 1.408 . S
C186 C184 1.362 1_554 S
C186 C187 1.380 . S
C186 C190 1.516 1_554 S
C187 C179 1.503 . S
C187 C186 1.380 . S
C187 C188 1.403 . S
C188 C187 1.403 . S
C188 C189 1.404 . S
C188 C191 1.539 . S
C189 C185 1.408 . S
C189 C188 1.404 . S
C189 H201 0.930 . S
C190 C186 1.516 1_556 S
C190 H202 0.956 . S
C190 H203 0.961 . S
C190 H204 0.961 . S
C191 C188 1.539 . S
C191 H205 0.958 . S
C191 H206 0.961 . S
C191 H207 0.960 . S
H192 C176 0.931 1_556 S
H193 C181 0.929 . S
H194 C182 0.960 . S
H195 C182 0.962 . S
H196 C182 0.960 . S
H197 C183 0.961 . S
H198 C183 0.961 . S
H199 C183 0.961 . S
H200 C184 0.931 . S
H201 C189 0.930 . S
H202 C190 0.956 . S
H203 C190 0.961 . S
H204 C190 0.961 . S
H205 C191 0.958 . S
H206 C191 0.961 . S
H207 C191 0.960 . S
C208 C209 1.391 . S
C208 C210 1.394 . S
C208 H224 0.931 . S
C209 C208 1.391 . S
C209 C213 1.376 . S
C210 C208 1.394 . S
C210 C211 1.369 . S
C210 C214 1.531 . S
C211 C210 1.369 . S
C211 C212 1.410 . S
C211 C219 1.503 . S
C212 C211 1.410 . S
C212 C213 1.392 . S
C212 C215 1.511 . S
C213 C209 1.376 . S
C213 C212 1.392 . S
C213 H225 0.929 . S
C214 C210 1.531 . S
C214 H226 0.960 . S
C214 H227 0.962 . S
C214 H228 0.960 . S
C215 C212 1.511 . S
C215 H229 0.961 . S
C215 H230 0.961 . S
C215 H231 0.961 . S
C216 C217 1.370 . S
C216 C218 1.363 . S
C216 H232 0.931 . S
C217 C216 1.370 . S
C217 C221 1.408 . S
C218 C216 1.363 . S
C218 C219 1.370 . S
C218 C222 1.524 . S
C219 C211 1.503 . S
C219 C218 1.370 . S
C219 C220 1.403 . S
C220 C219 1.403 . S
C220 C221 1.404 . S
C220 C223 1.539 . S
C221 C217 1.408 . S
C221 C220 1.404 . S
C221 H233 0.930 . S
C222 C218 1.524 . S
C222 H234 0.956 . S
C222 H235 0.961 . S
C222 H236 0.961 . S
C223 C220 1.539 . S
C223 H237 0.958 . S
C223 H238 0.961 . S
C223 H239 0.960 . S
H224 C208 0.931 . S
H225 C213 0.929 . S
H226 C214 0.960 . S
H227 C214 0.962 . S
H228 C214 0.960 . S
H229 C215 0.961 . S
H230 C215 0.961 . S
H231 C215 0.961 . S
H232 C216 0.931 . S
H233 C221 0.930 . S
H234 C222 0.956 . S
H235 C222 0.961 . S
H236 C222 0.961 . S
H237 C223 0.958 . S
H238 C223 0.961 . S
H239 C223 0.960 . S
C240 C241 1.391 . S
C240 C242 1.394 . S
C240 H256 0.931 . S
C241 C240 1.391 . S
C241 C245 1.376 1_554 S
C242 C240 1.394 . S
C242 C243 1.369 . S
C242 C246 1.531 . S
C243 C242 1.369 . S
C243 C244 1.410 1_554 S
C243 C251 1.503 . S
C244 C243 1.410 1_556 S
C244 C245 1.392 . S
C244 C247 1.511 . S
C245 C241 1.376 1_556 S
C245 C244 1.392 . S
C245 H257 0.929 . S
C246 C242 1.531 . S
C246 H258 0.960 . S
C246 H259 0.962 . S
C246 H260 0.960 . S
C247 C244 1.511 . S
C247 H261 0.961 . S
C247 H262 0.961 . S
C247 H263 0.961 . S
C248 C249 1.370 . S
C248 C250 1.363 . S
C248 H264 0.931 . S
C249 C248 1.370 . S
C249 C253 1.408 1_554 S
C250 C248 1.363 . S
C250 C251 1.370 . S
C250 C254 1.524 . S
C251 C243 1.503 . S
C251 C250 1.370 . S
C251 C252 1.403 1_554 S
C252 C251 1.403 1_556 S
C252 C253 1.404 . S
C252 C255 1.539 . S
C253 C249 1.408 1_556 S
C253 C252 1.404 . S
C253 H265 0.930 . S
C254 C250 1.524 . S
C254 H266 0.956 . S
C254 H267 0.961 . S
C254 H268 0.961 . S
C255 C252 1.539 . S
C255 H269 0.958 . S
C255 H270 0.961 . S
C255 H271 0.960 . S
H256 C240 0.931 . S
H257 C245 0.929 . S
H258 C246 0.960 . S
H259 C246 0.962 . S
H260 C246 0.960 . S
H261 C247 0.961 . S
H262 C247 0.961 . S
H263 C247 0.961 . S
H264 C248 0.931 . S
H265 C253 0.930 . S
H266 C254 0.956 . S
H267 C254 0.961 . S
H268 C254 0.961 . S
H269 C255 0.958 . S
H270 C255 0.961 . S
H271 C255 0.960 . S
C272 C273 1.391 . S
C272 C274 1.394 . S
C272 H288 0.931 . S
C273 C272 1.391 . S
C273 C277 1.376 . S
C274 C272 1.394 . S
C274 C275 1.369 . S
C274 C278 1.531 . S
C275 C274 1.369 . S
C275 C276 1.410 . S
C275 C283 1.503 . S
C276 C275 1.410 . S
C276 C277 1.392 . S
C276 C279 1.511 . S
C277 C273 1.376 . S
C277 C276 1.392 . S
C277 H289 0.929 . S
C278 C274 1.531 . S
C278 H290 0.960 . S
C278 H291 0.962 . S
C278 H292 0.960 . S
C279 C276 1.511 . S
C279 H293 0.961 . S
C279 H294 0.961 . S
C279 H295 0.961 . S
C280 C281 1.370 . S
C280 C282 1.363 . S
C280 H296 0.931 . S
C281 C280 1.370 . S
C281 C285 1.408 . S
C282 C280 1.363 . S
C282 C283 1.370 . S
C282 C286 1.524 . S
C283 C275 1.503 . S
C283 C282 1.370 . S
C283 C284 1.403 . S
C284 C283 1.403 . S
C284 C285 1.404 . S
C284 C287 1.539 . S
C285 C281 1.408 . S
C285 C284 1.404 . S
C285 H297 0.930 . S
C286 C282 1.524 . S
C286 H298 0.956 . S
C286 H299 0.961 . S
C286 H300 0.961 . S
C287 C284 1.539 . S
C287 H301 0.958 . S
C287 H302 0.961 . S
C287 H303 0.960 . S
H288 C272 0.931 . S
H289 C277 0.929 . S
H290 C278 0.960 . S
H291 C278 0.962 . S
H292 C278 0.960 . S
H293 C279 0.961 . S
H294 C279 0.961 . S
H295 C279 0.961 . S
H296 C280 0.931 . S
H297 C285 0.930 . S
H298 C286 0.956 . S
H299 C286 0.961 . S
H300 C286 0.961 . S
H301 C287 0.958 . S
H302 C287 0.961 . S
H303 C287 0.960 . S
C304 C305 1.391 . S
C304 C306 1.394 . S
C304 H320 0.931 . S
C305 C304 1.391 . S
C305 C309 1.376 . S
C306 C304 1.394 . S
C306 C307 1.369 . S
C306 C310 1.531 . S
C307 C306 1.369 . S
C307 C308 1.410 . S
C307 C315 1.503 . S
C308 C307 1.410 . S
C308 C309 1.392 . S
C308 C311 1.511 . S
C309 C305 1.376 . S
C309 C308 1.392 . S
C309 H321 0.929 . S
C310 C306 1.531 . S
C310 H322 0.960 . S
C310 H323 0.962 . S
C310 H324 0.960 . S
C311 C308 1.511 . S
C311 H325 0.961 . S
C311 H326 0.961 . S
C311 H327 0.961 . S
C312 C313 1.370 . S
C312 C314 1.363 . S
C312 H328 0.931 . S
C313 C312 1.370 . S
C313 C317 1.408 . S
C314 C312 1.363 . S
C314 C315 1.370 . S
C314 C318 1.524 . S
C315 C307 1.503 . S
C315 C314 1.370 . S
C315 C316 1.403 . S
C316 C315 1.403 . S
C316 C317 1.404 . S
C316 C319 1.539 . S
C317 C313 1.408 . S
C317 C316 1.404 . S
C317 H329 0.930 . S
C318 C314 1.524 . S
C318 H330 0.956 . S
C318 H331 0.961 . S
C318 H332 0.961 . S
C319 C316 1.539 . S
C319 H333 0.958 . S
C319 H334 0.961 . S
C319 H335 0.960 . S
H320 C304 0.931 . S
H321 C309 0.929 . S
H322 C310 0.960 . S
H323 C310 0.962 . S
H324 C310 0.960 . S
H325 C311 0.961 . S
H326 C311 0.961 . S
H327 C311 0.961 . S
H328 C312 0.931 . S
H329 C317 0.930 . S
H330 C318 0.956 . S
H331 C318 0.961 . S
H332 C318 0.961 . S
H333 C319 0.958 . S
H334 C319 0.961 . S
H335 C319 0.960 . S
C336 C337 1.391 . S
C336 C338 1.394 . S
C336 H352 0.931 . S
C337 C336 1.391 . S
C337 C341 1.376 . S
C338 C336 1.394 . S
C338 C339 1.369 . S
C338 C342 1.531 . S
C339 C338 1.369 . S
C339 C340 1.410 . S
C339 C347 1.503 . S
C340 C339 1.410 . S
C340 C341 1.392 . S
C340 C343 1.511 . S
C341 C337 1.376 . S
C341 C340 1.392 . S
C341 H353 0.929 . S
C342 C338 1.531 . S
C342 H354 0.960 . S
C342 H355 0.962 . S
C342 H356 0.960 . S
C343 C340 1.511 . S
C343 H357 0.961 . S
C343 H358 0.961 . S
C343 H359 0.961 . S
C344 C345 1.370 . S
C344 C346 1.363 . S
C344 H360 0.931 . S
C345 C344 1.370 . S
C345 C349 1.408 . S
C346 C344 1.363 . S
C346 C347 1.370 . S
C346 C350 1.524 . S
C347 C339 1.503 . S
C347 C346 1.370 . S
C347 C348 1.403 . S
C348 C347 1.403 . S
C348 C349 1.404 . S
C348 C351 1.539 . S
C349 C345 1.408 . S
C349 C348 1.404 . S
C349 H361 0.930 . S
C350 C346 1.524 . S
C350 H362 0.956 . S
C350 H363 0.961 . S
C350 H364 0.961 . S
C351 C348 1.539 . S
C351 H365 0.958 . S
C351 H366 0.961 . S
C351 H367 0.960 . S
H352 C336 0.931 . S
H353 C341 0.929 . S
H354 C342 0.960 . S
H355 C342 0.962 . S
H356 C342 0.960 . S
H357 C343 0.961 . S
H358 C343 0.961 . S
H359 C343 0.961 . S
H360 C344 0.931 . S
H361 C349 0.930 . S
H362 C350 0.956 . S
H363 C350 0.961 . S
H364 C350 0.961 . S
H365 C351 0.958 . S
H366 C351 0.961 . S
H367 C351 0.960 . S
C368 C369 1.391 . S
C368 C370 1.394 . S
C368 H384 0.931 . S
C369 C368 1.391 . S
C369 C373 1.376 . S
C370 C368 1.394 . S
C370 C371 1.369 . S
C370 C374 1.531 . S
C371 C370 1.369 . S
C371 C372 1.410 . S
C371 C379 1.503 . S
C372 C371 1.410 . S
C372 C373 1.392 . S
C372 C375 1.511 . S
C373 C369 1.376 . S
C373 C372 1.392 . S
C373 H385 0.929 . S
C374 C370 1.531 . S
C374 H386 0.960 . S
C374 H387 0.962 . S
C374 H388 0.960 . S
C375 C372 1.511 . S
C375 H389 0.961 . S
C375 H390 0.961 . S
C375 H391 0.961 . S
C376 C377 1.370 . S
C376 C378 1.363 . S
C376 H392 0.931 . S
C377 C376 1.370 . S
C377 C381 1.408 . S
C378 C376 1.363 . S
C378 C379 1.370 . S
C378 C382 1.524 . S
C379 C371 1.503 . S
C379 C378 1.370 . S
C379 C380 1.403 . S
C380 C379 1.403 . S
C380 C381 1.404 . S
C380 C383 1.539 . S
C381 C377 1.408 . S
C381 C380 1.404 . S
C381 H393 0.930 . S
C382 C378 1.524 . S
C382 H394 0.956 . S
C382 H395 0.961 . S
C382 H396 0.961 . S
C383 C380 1.539 . S
C383 H397 0.958 . S
C383 H398 0.961 . S
C383 H399 0.960 . S
H384 C368 0.931 . S
H385 C373 0.929 . S
H386 C374 0.960 . S
H387 C374 0.962 . S
H388 C374 0.960 . S
H389 C375 0.961 . S
H390 C375 0.961 . S
H391 C375 0.961 . S
H392 C376 0.931 . S
H393 C381 0.930 . S
H394 C382 0.956 . S
H395 C382 0.961 . S
H396 C382 0.961 . S
H397 C383 0.958 . S
H398 C383 0.961 . S
H399 C383 0.960 . S
C400 C401 1.391 . S
C400 C402 1.394 . S
C400 H416 0.931 . S
C401 C400 1.391 . S
C401 C405 1.376 . S
C402 C400 1.394 . S
C402 C403 1.369 . S
C402 C406 1.531 . S
C403 C402 1.369 . S
C403 C404 1.410 . S
C403 C411 1.503 . S
C404 C403 1.410 . S
C404 C405 1.392 . S
C404 C407 1.511 . S
C405 C401 1.376 . S
C405 C404 1.392 . S
C405 H417 0.929 . S
C406 C402 1.531 . S
C406 H418 0.960 . S
C406 H419 0.962 . S
C406 H420 0.960 . S
C407 C404 1.511 . S
C407 H421 0.961 . S
C407 H422 0.961 . S
C407 H423 0.961 . S
C408 C409 1.370 . S
C408 C410 1.363 . S
C408 H424 0.931 . S
C409 C408 1.370 . S
C409 C413 1.408 . S
C410 C408 1.363 . S
C410 C411 1.370 . S
C410 C414 1.524 . S
C411 C403 1.503 . S
C411 C410 1.370 . S
C411 C412 1.403 . S
C412 C411 1.403 . S
C412 C413 1.404 . S
C412 C415 1.539 . S
C413 C409 1.408 . S
C413 C412 1.404 . S
C413 H425 0.930 . S
C414 C410 1.524 . S
C414 H426 0.956 . S
C414 H427 0.961 . S
C414 H428 0.961 . S
C415 C412 1.539 . S
C415 H429 0.958 . S
C415 H430 0.961 . S
C415 H431 0.960 . S
H416 C400 0.931 . S
H417 C405 0.929 . S
H418 C406 0.960 . S
H419 C406 0.962 . S
H420 C406 0.960 . S
H421 C407 0.961 . S
H422 C407 0.961 . S
H423 C407 0.961 . S
H424 C408 0.931 . S
H425 C413 0.930 . S
H426 C414 0.956 . S
H427 C414 0.961 . S
H428 C414 0.961 . S
H429 C415 0.958 . S
H430 C415 0.961 . S
H431 C415 0.960 . S
C432 C433 1.391 . S
C432 C434 1.394 . S
C432 H448 0.931 . S
C433 C432 1.391 . S
C433 C437 1.376 . S
C434 C432 1.394 . S
C434 C435 1.369 . S
C434 C438 1.531 . S
C435 C434 1.369 . S
C435 C436 1.410 . S
C435 C443 1.503 . S
C436 C435 1.410 . S
C436 C437 1.392 . S
C436 C439 1.511 . S
C437 C433 1.376 . S
C437 C436 1.392 . S
C437 H449 0.929 . S
C438 C434 1.531 . S
C438 H450 0.960 . S
C438 H451 0.962 . S
C438 H452 0.960 . S
C439 C436 1.511 . S
C439 H453 0.961 . S
C439 H454 0.961 . S
C439 H455 0.961 . S
C440 C441 1.370 . S
C440 C442 1.363 . S
C440 H456 0.931 . S
C441 C440 1.370 . S
C441 C445 1.408 . S
C442 C440 1.363 . S
C442 C443 1.370 . S
C442 C446 1.524 . S
C443 C435 1.503 . S
C443 C442 1.370 . S
C443 C444 1.403 . S
C444 C443 1.403 . S
C444 C445 1.404 . S
C444 C447 1.539 . S
C445 C441 1.408 . S
C445 C444 1.404 . S
C445 H457 0.930 . S
C446 C442 1.524 . S
C446 H458 0.956 . S
C446 H459 0.961 . S
C446 H460 0.961 . S
C447 C444 1.539 . S
C447 H461 0.958 . S
C447 H462 0.961 . S
C447 H463 0.960 . S
H448 C432 0.931 . S
H449 C437 0.929 . S
H450 C438 0.960 . S
H451 C438 0.962 . S
H452 C438 0.960 . S
H453 C439 0.961 . S
H454 C439 0.961 . S
H455 C439 0.961 . S
H456 C440 0.931 . S
H457 C445 0.930 . S
H458 C446 0.956 . S
H459 C446 0.961 . S
H460 C446 0.961 . S
H461 C447 0.958 . S
H462 C447 0.961 . S
H463 C447 0.960 . S
C464 C465 1.391 . S
C464 C466 1.394 . S
C464 H480 0.931 . S
C465 C464 1.391 . S
C465 C469 1.376 . S
C466 C464 1.394 . S
C466 C467 1.369 . S
C466 C470 1.531 . S
C467 C466 1.369 . S
C467 C468 1.410 . S
C467 C475 1.503 . S
C468 C467 1.410 . S
C468 C469 1.392 . S
C468 C471 1.511 . S
C469 C465 1.376 . S
C469 C468 1.392 . S
C469 H481 0.929 . S
C470 C466 1.531 . S
C470 H482 0.960 . S
C470 H483 0.962 . S
C470 H484 0.960 . S
C471 C468 1.511 . S
C471 H485 0.961 . S
C471 H486 0.961 . S
C471 H487 0.961 . S
C472 C473 1.370 . S
C472 C474 1.363 . S
C472 H488 0.931 . S
C473 C472 1.370 . S
C473 C477 1.408 . S
C474 C472 1.363 . S
C474 C475 1.370 . S
C474 C478 1.524 . S
C475 C467 1.503 . S
C475 C474 1.370 . S
C475 C476 1.403 . S
C476 C475 1.403 . S
C476 C477 1.404 . S
C476 C479 1.539 . S
C477 C473 1.408 . S
C477 C476 1.404 . S
C477 H489 0.930 . S
C478 C474 1.524 . S
C478 H490 0.956 . S
C478 H491 0.961 . S
C478 H492 0.961 . S
C479 C476 1.539 . S
C479 H493 0.958 . S
C479 H494 0.961 . S
C479 H495 0.960 . S
H480 C464 0.931 . S
H481 C469 0.929 . S
H482 C470 0.960 . S
H483 C470 0.962 . S
H484 C470 0.960 . S
H485 C471 0.961 . S
H486 C471 0.961 . S
H487 C471 0.961 . S
H488 C472 0.931 . S
H489 C477 0.930 . S
H490 C478 0.956 . S
H491 C478 0.961 . S
H492 C478 0.961 . S
H493 C479 0.958 . S
H494 C479 0.961 . S
H495 C479 0.960 . S
C496 C497 1.391 . S
C496 C498 1.394 . S
C496 H512 0.931 . S
C497 C496 1.391 . S
C497 C501 1.376 . S
C498 C496 1.394 . S
C498 C499 1.369 . S
C498 C502 1.531 . S
C499 C498 1.369 . S
C499 C500 1.410 . S
C499 C507 1.503 . S
C500 C499 1.410 . S
C500 C501 1.392 . S
C500 C503 1.511 . S
C501 C497 1.376 . S
C501 C500 1.392 . S
C501 H513 0.929 . S
C502 C498 1.531 . S
C502 H514 0.960 . S
C502 H515 0.962 . S
C502 H516 0.960 . S
C503 C500 1.511 . S
C503 H517 0.961 . S
C503 H518 0.961 . S
C503 H519 0.961 . S
C504 C505 1.370 . S
C504 C506 1.363 . S
C504 H520 0.931 . S
C505 C504 1.370 . S
C505 C509 1.408 . S
C506 C504 1.363 . S
C506 C507 1.370 . S
C506 C510 1.524 . S
C507 C499 1.503 . S
C507 C506 1.370 . S
C507 C508 1.403 . S
C508 C507 1.403 . S
C508 C509 1.404 . S
C508 C511 1.539 . S
C509 C505 1.408 . S
C509 C508 1.404 . S
C509 H521 0.925 1_565 S
C510 C506 1.524 . S
C510 H522 0.956 . S
C510 H523 0.961 . S
C510 H524 0.961 . S
C511 C508 1.539 . S
C511 H525 0.958 . S
C511 H526 0.954 1_565 S
C511 H527 0.960 . S
H512 C496 0.931 . S
H513 C501 0.929 . S
H514 C502 0.960 . S
H515 C502 0.962 . S
H516 C502 0.960 . S
H517 C503 0.961 . S
H518 C503 0.961 . S
H519 C503 0.961 . S
H520 C504 0.931 . S
H521 C509 0.925 1_545 S
H522 C510 0.956 . S
H523 C510 0.961 . S
H524 C510 0.961 . S
H525 C511 0.958 . S
H526 C511 0.954 1_545 S
H527 C511 0.960 . S
C153 C80 1.539 . S
C145 C68 1.415 . S
C177 C11 1.421 . S
C185 C123 1.546 . S
C209 C30 1.459 . S
C217 C89 1.543 . S
C241 C49 1.395 . S
C249 C114 1.542 . S
C281 C76 1.621 . S
C273 C2 1.599 . S
C313 C118 1.599 . S
C305 C25 1.601 . S
C337 C40 1.559 . S
C345 C84 1.619 . S
C369 C59 1.578 . S
C377 C110 1.595 . S
C409 C139 1.501 . S
C401 C21 1.490 . S
C441 C105 1.492 . S
C433 C44 1.487 . S
C473 C127 1.506 . S
C465 C63 1.512 . S
C497 C6 1.486 . S
C505 C93 1.490 . S
