# Generated by pormake.
# Topology zzz, (3,6)-cn, num edge types: 1
# Building blocks:
#     Node 0, Type 0, BuildingBlock: KAKCAD_clean_linker_0, # of connection points: 3
#     Node 1, Type 0, BuildingBlock: KAKCAD_clean_linker_0, # of connection points: 3
#     Node 2, Type 0, BuildingBlock: KAKCAD_clean_linker_0, # of connection points: 3
#     Node 3, Type 0, BuildingBlock: KAKCAD_clean_linker_0, # of connection points: 3
#     Node 4, Type 0, BuildingBlock: KAKCAD_clean_linker_0, # of connection points: 3
#     Node 5, Type 0, BuildingBlock: KAKCAD_clean_linker_0, # of connection points: 3
#     Node 6, Type 0, BuildingBlock: KAKCAD_clean_linker_0, # of connection points: 3
#     Node 7, Type 0, BuildingBlock: KAKCAD_clean_linker_0, # of connection points: 3
#     Node 8, Type 1, BuildingBlock: KUMBOL_clean_sbu_0, # of connection points: 6
#     Node 9, Type 1, BuildingBlock: KUMBOL_clean_sbu_0, # of connection points: 6
#     Node 10, Type 1, BuildingBlock: KUMBOL_clean_sbu_0, # of connection points: 6
#     Node 11, Type 1, BuildingBlock: KUMBOL_clean_sbu_0, # of connection points: 6
#     Edge 12, Type (0, 1), BuildingBlock: CIFDUS_clean_linker_0, # of connection points: 2
#     Edge 13, Type (0, 1), BuildingBlock: CIFDUS_clean_linker_0, # of connection points: 2
#     Edge 14, Type (0, 1), BuildingBlock: CIFDUS_clean_linker_0, # of connection points: 2
#     Edge 15, Type (0, 1), BuildingBlock: CIFDUS_clean_linker_0, # of connection points: 2
#     Edge 16, Type (0, 1), BuildingBlock: CIFDUS_clean_linker_0, # of connection points: 2
#     Edge 17, Type (0, 1), BuildingBlock: CIFDUS_clean_linker_0, # of connection points: 2
#     Edge 18, Type (0, 1), BuildingBlock: CIFDUS_clean_linker_0, # of connection points: 2
#     Edge 19, Type (0, 1), BuildingBlock: CIFDUS_clean_linker_0, # of connection points: 2
#     Edge 20, Type (0, 1), BuildingBlock: CIFDUS_clean_linker_0, # of connection points: 2
#     Edge 21, Type (0, 1), BuildingBlock: CIFDUS_clean_linker_0, # of connection points: 2
#     Edge 22, Type (0, 1), BuildingBlock: CIFDUS_clean_linker_0, # of connection points: 2
#     Edge 23, Type (0, 1), BuildingBlock: CIFDUS_clean_linker_0, # of connection points: 2
#     Edge 24, Type (0, 1), BuildingBlock: CIFDUS_clean_linker_0, # of connection points: 2
#     Edge 25, Type (0, 1), BuildingBlock: CIFDUS_clean_linker_0, # of connection points: 2
#     Edge 26, Type (0, 1), BuildingBlock: CIFDUS_clean_linker_0, # of connection points: 2
#     Edge 27, Type (0, 1), BuildingBlock: CIFDUS_clean_linker_0, # of connection points: 2
#     Edge 28, Type (0, 1), BuildingBlock: CIFDUS_clean_linker_0, # of connection points: 2
#     Edge 29, Type (0, 1), BuildingBlock: CIFDUS_clean_linker_0, # of connection points: 2
#     Edge 30, Type (0, 1), BuildingBlock: CIFDUS_clean_linker_0, # of connection points: 2
#     Edge 31, Type (0, 1), BuildingBlock: CIFDUS_clean_linker_0, # of connection points: 2
#     Edge 32, Type (0, 1), BuildingBlock: CIFDUS_clean_linker_0, # of connection points: 2
#     Edge 33, Type (0, 1), BuildingBlock: CIFDUS_clean_linker_0, # of connection points: 2
#     Edge 34, Type (0, 1), BuildingBlock: CIFDUS_clean_linker_0, # of connection points: 2
#     Edge 35, Type (0, 1), BuildingBlock: CIFDUS_clean_linker_0, # of connection points: 2
# Relax obj value: 0.309
# Max RMSD: 0.224
# Mean RMSD: 0.212
data_MOF--net-zzz--node1-KUMBOL_clean_sbu_0--node2-KAKCAD_clean_linker_0--edge1-CIFDUS_clean_linker_0
_symmetry_space_group_name_H-M    P1
_symmetry_Int_Tables_number       1
_symmetry_cell_setting            triclinic
loop_
_symmetry_equiv_pos_as_xyz
'x, y, z'
_cell_length_a     51.243017
_cell_length_b     51.220436
_cell_length_c     17.789134
_cell_angle_alpha  90.951625
_cell_angle_beta   89.94938
_cell_angle_gamma 90.032098
loop_
_atom_site_label
_atom_site_type_symbol
_atom_site_fract_x
_atom_site_fract_y
_atom_site_fract_z
_atom_type_partial_charge
C0 C 0.7916 0.60544 0.97742 0.0
C1 C 0.81633 0.61379 1.00222 0.0
C2 C 0.77222 0.59945 0.02951 0.0
C3 C 0.77678 0.60308 0.1071 0.0
C4 C 0.79906 0.61725 0.12938 0.0
C5 C 0.8189 0.62214 0.07769 0.0
C6 C 0.76191 0.58742 0.16286 0.0
C7 C 0.73627 0.57941 0.14803 0.0
C8 C 0.72457 0.55905 0.18796 0.0
C9 C 0.73855 0.54741 0.24755 0.0
C10 C 0.76364 0.55694 0.26747 0.0
C11 C 0.77499 0.57656 0.22428 0.0
C12 C 0.78008 0.54605 0.32873 0.0
C13 C 0.78712 0.56219 0.39018 0.0
C14 C 0.79418 0.52288 0.31642 0.0
C15 C 0.81563 0.51668 0.36212 0.0
C16 C 0.8236 0.53345 0.42179 0.0
C17 C 0.6988 0.54948 0.1596 0.0
C18 C 0.67865 0.56762 0.14789 0.0
C19 C 0.69635 0.52438 0.12702 0.0
C20 C 0.67517 0.51827 0.07943 0.0
C21 C 0.65619 0.53725 0.06295 0.0
C22 C 0.65773 0.56165 0.10004 0.0
C23 C 0.80836 0.55589 0.43641 0.0
H24 H 0.78827 0.60034 0.91888 0.0
H25 H 0.7551 0.58931 1.00875 0.0
H26 H 0.80255 0.62199 0.18806 0.0
H27 H 0.83724 0.6295 0.09941 0.0
H28 H 0.72575 0.58798 0.10175 0.0
H29 H 0.79503 0.58197 0.23619 0.0
H30 H 0.73001 0.53141 0.2781 0.0
H31 H 0.777 0.5805 0.40004 0.0
H32 H 0.78979 0.5105 0.26811 0.0
H33 H 0.82682 0.49941 0.34757 0.0
H34 H 0.68003 0.58717 0.17182 0.0
H35 H 0.71178 0.51016 0.13371 0.0
H36 H 0.81321 0.56913 0.48235 0.0
H37 H 0.64319 0.57653 0.08985 0.0
H38 H 0.67453 0.49927 0.05187 0.0
C39 C 0.92769 0.8053 0.94913 0.0
C40 C 0.93376 0.83192 0.95806 0.0
C41 C 0.93234 0.78793 1.00779 0.0
C42 C 0.94411 0.79674 0.07538 0.0
C43 C 0.94772 0.82387 0.08566 0.0
C44 C 0.94214 0.84113 0.02865 0.0
C45 C 0.95599 0.77823 0.13029 0.0
C46 C 0.96486 0.7534 0.10735 0.0
C47 C 0.98037 0.73795 0.1543 0.0
C48 C 0.98918 0.74891 0.22412 0.0
C49 C 0.97969 0.77378 0.24916 0.0
C50 C 0.96179 0.78684 0.20358 0.0
C51 C 0.98934 0.78907 0.31697 0.0
C52 C 0.9712 0.80239 0.36351 0.0
C53 C 0.01558 0.79685 0.32202 0.0
C54 C 0.02294 0.81874 0.36648 0.0
C55 C 1.00422 0.8341 0.40608 0.0
C56 C 0.986 0.71059 0.12632 0.0
C57 C 0.96473 0.69405 0.10964 0.0
C58 C 1.01083 0.70293 0.09992 0.0
C59 C 0.01392 0.68001 0.05496 0.0
C60 C 0.99219 0.66444 0.03437 0.0
C61 C 0.96774 0.67148 0.06459 0.0
C62 C 0.97836 0.82462 0.40629 0.0
H63 H 0.92103 0.79769 0.89531 0.0
H64 H 0.9281 0.76747 0.998 0.0
H65 H 0.95715 0.83214 0.13481 0.0
H66 H 0.94746 0.86143 0.03751 0.0
H67 H 0.96047 0.746 0.05145 0.0
H68 H 0.95372 0.80512 0.22399 0.0
H69 H 1.00255 0.7381 0.25894 0.0
H70 H 0.95075 0.79705 0.36128 0.0
H71 H 0.03016 0.78732 0.287 0.0
H72 H 0.04334 0.82414 0.36677 0.0
H73 H 0.94528 0.69944 0.12812 0.0
H74 H 0.02754 0.71544 0.11006 0.0
H75 H 0.96304 0.83523 0.43526 0.0
H76 H 0.95059 0.65991 0.05148 0.0
H77 H 0.03308 0.67532 0.03283 0.0
C78 C 0.73893 0.92701 0.97772 0.0
C79 C 0.71342 0.93677 0.97364 0.0
C80 C 0.75222 0.92747 0.04634 0.0
C81 C 0.74057 0.93892 0.11077 0.0
C82 C 0.71369 0.94466 0.10814 0.0
C83 C 0.7002 0.94324 0.04041 0.0
C84 C 0.7569 0.95039 0.17266 0.0
C85 C 0.78185 0.9601 0.15664 0.0
C86 C 0.79512 0.97681 0.20676 0.0
C87 C 0.7824 0.98502 0.2742 0.0
C88 C 0.75762 0.97435 0.29303 0.0
C89 C 0.74594 0.95631 0.24306 0.0
C90 C 0.74155 0.98262 0.35986 0.0
C91 C 0.73007 0.9633 0.40455 0.0
C92 C 0.732 1.00826 0.36712 0.0
C93 C 0.71038 0.01398 0.41385 0.0
C94 C 0.6974 0.99411 0.45388 0.0
C95 C 0.8214 0.98599 0.18129 0.0
C96 C 0.84058 0.9672 0.1632 0.0
C97 C 0.82476 1.01137 0.15426 0.0
C98 C 0.84573 0.01726 0.10601 0.0
C99 C 0.86377 0.99782 0.08266 0.0
C100 C 0.86137 0.97297 0.11472 0.0
C101 C 0.70833 0.96883 0.44999 0.0
H102 H 0.74936 0.92146 0.92694 0.0
H103 H 0.77242 0.9213 0.04682 0.0
H104 H 0.7035 0.95332 0.15557 0.0
H105 H 0.68046 0.95079 0.039 0.0
H106 H 0.79067 0.9562 0.10226 0.0
H107 H 0.72707 0.94823 0.25729 0.0
H108 H 0.7917 0.99907 0.31161 0.0
H109 H 0.7367 0.94326 0.39972 0.0
H110 H 0.74006 0.02356 0.33277 0.0
H111 H 0.70339 0.03389 0.4163 0.0
H112 H 0.83827 0.94728 0.18175 0.0
H113 H 0.81011 0.02616 0.16571 0.0
H114 H 0.69924 0.95264 0.47819 0.0
H115 H 0.87445 0.95728 0.09841 0.0
H116 H 0.84708 0.03684 0.08444 0.0
C117 C 0.52584 0.73184 0.40567 0.0
C118 C 0.54364 0.71231 0.42819 0.0
C119 C 0.53411 0.75329 0.36287 0.0
C120 C 0.56044 0.75603 0.34232 0.0
C121 C 0.57845 0.73787 0.37036 0.0
C122 C 0.57023 0.71628 0.41136 0.0
C123 C 0.56884 0.77379 0.28046 0.0
C124 C 0.56168 0.80049 0.27549 0.0
C125 C 0.57048 0.81545 0.21388 0.0
C126 C 0.58542 0.80337 0.15707 0.0
C127 C 0.59093 0.77671 0.15854 0.0
C128 C 0.58319 0.76238 0.22115 0.0
C129 C 0.59918 0.76247 0.08915 0.0
C130 C 0.58618 0.7676 0.02137 0.0
C131 C 0.61419 0.73958 0.09404 0.0
C132 C 0.6117 0.71992 0.03917 0.0
C133 C 0.59441 0.72323 0.97893 0.0
C134 C 0.56267 0.84297 0.20033 0.0
C135 C 0.53738 0.8484 0.17459 0.0
C136 C 0.58226 0.86184 0.1902 0.0
C137 C 0.57729 0.88455 0.14978 0.0
C138 C 0.55254 0.88905 0.11812 0.0
C139 C 0.53235 0.8712 0.13413 0.0
C140 C 0.58396 0.74809 0.96626 0.0
H141 H 0.50531 0.73027 0.41894 0.0
H142 H 0.51966 0.76682 0.34217 0.0
H143 H 0.59895 0.73939 0.35607 0.0
H144 H 0.58486 0.70203 0.42579 0.0
H145 H 0.54965 0.80949 0.31877 0.0
H146 H 0.58654 0.74149 0.22113 0.0
H147 H 0.59123 0.81448 0.1084 0.0
H148 H 0.57463 0.78513 1.01499 0.0
H149 H 0.62509 0.73548 0.14464 0.0
H150 H 0.62025 0.70099 0.04975 0.0
H151 H 0.52204 0.834 0.18011 0.0
H152 H 0.60208 0.85789 0.20794 0.0
H153 H 0.57085 0.75115 0.91946 0.0
H154 H 0.51289 0.87418 0.11223 0.0
H155 H 0.59345 0.89754 0.13861 0.0
C156 C 0.22749 0.44668 0.36122 0.0
C157 C 0.20716 0.42961 0.33954 0.0
C158 C 0.24823 0.45146 0.31261 0.0
C159 C 0.24903 0.43936 0.24137 0.0
C160 C 0.23094 0.41954 0.22418 0.0
C161 C 0.21035 0.41443 0.27343 0.0
C162 C 0.2651 0.45112 0.18156 0.0
C163 C 0.29098 0.45836 0.19528 0.0
C164 C 0.30504 0.47357 0.14403 0.0
C165 C 0.29228 0.48202 0.0776 0.0
C166 C 0.26616 0.47414 0.06254 0.0
C167 C 0.25312 0.45862 0.1147 0.0
C168 C 0.25076 0.48172 0.99499 0.0
C169 C 0.23557 0.50461 0.99691 0.0
C170 C 0.24478 0.46246 0.94046 0.0
C171 C 0.22326 0.46521 0.89238 0.0
C172 C 0.20682 0.48725 0.89768 0.0
C173 C 0.33255 0.48063 0.16499 0.0
C174 C 0.34072 0.50678 0.17162 0.0
C175 C 0.34934 0.46109 0.1918 0.0
C176 C 0.37277 0.46747 0.22825 0.0
C177 C 0.38039 0.49364 0.23884 0.0
C178 C 0.36439 0.51321 0.20797 0.0
C179 C 0.21398 0.50743 0.94856 0.0
H180 H 0.22601 0.45879 0.41147 0.0
H181 H 0.26196 0.46678 0.32754 0.0
H182 H 0.23154 0.40949 0.17013 0.0
H183 H 0.19558 0.40046 0.2561 0.0
H184 H 0.29997 0.45277 0.24778 0.0
H185 H 0.23285 0.45351 0.10475 0.0
H186 H 0.30256 0.49415 0.03802 0.0
H187 H 0.23912 0.51943 0.03985 0.0
H188 H 0.25563 0.44431 0.93881 0.0
H189 H 0.21881 0.44942 0.85323 0.0
H190 H 0.32815 0.52233 0.15268 0.0
H191 H 0.34374 0.44072 0.18738 0.0
H192 H 0.20184 0.52462 0.95493 0.0
H193 H 0.36954 0.53361 0.21495 0.0
H194 H 0.38476 0.45179 0.24933 0.0
C195 C 0.09016 0.23219 0.35305 0.0
C196 C 0.10299 0.20904 0.33018 0.0
C197 C 0.08611 0.2522 0.30252 0.0
C198 C 0.09474 0.24958 0.22793 0.0
C199 C 0.11128 0.22861 0.20868 0.0
C200 C 0.11558 0.20858 0.25973 0.0
C201 C 0.0814 0.26483 0.16909 0.0
C202 C 0.07478 0.29098 0.18235 0.0
C203 C 0.0562 0.30377 0.13811 0.0
C204 C 0.04432 0.28961 0.07718 0.0
C205 C 0.05192 0.26325 0.06111 0.0
C206 C 0.07058 0.25157 0.1072 0.0
C207 C 0.03996 0.24553 1.00231 0.0
C208 C 0.02515 0.22403 0.02611 0.0
C209 C 0.04978 0.2447 0.92841 0.0
C210 C 0.04579 0.22259 0.88102 0.0
C211 C 0.03233 0.20022 0.90649 0.0
C212 C 0.04942 0.33123 0.16287 0.0
C213 C 0.02501 0.33731 0.19534 0.0
C214 C 0.0698 0.34946 0.17303 0.0
C215 C 0.06661 0.37189 0.21857 0.0
C216 C 0.0428 0.37721 0.25517 0.0
C217 C 0.02168 0.36013 0.24043 0.0
C218 C 0.02153 0.20184 0.97962 0.0
H219 H 0.0802 0.23379 0.40655 0.0
H220 H 0.0734 0.26811 0.31966 0.0
H221 H 0.11888 0.22651 0.15206 0.0
H222 H 0.12656 0.19161 0.24114 0.0
H223 H 0.08316 0.3011 0.23066 0.0
H224 H 0.07525 0.23112 0.09774 0.0
H225 H 0.0294 0.29878 0.04361 0.0
H226 H 0.01807 0.22351 0.08349 0.0
H227 H 0.06197 0.26047 0.90878 0.0
H228 H 0.05405 0.22288 0.82508 0.0
H229 H 1.00905 0.32352 0.19044 0.0
H230 H 0.08896 0.34535 0.14986 0.0
H231 H 1.01151 0.18538 1.00362 0.0
H232 H 1.00304 0.36352 0.26762 0.0
H233 H 0.08322 0.38468 0.2274 0.0
C234 C 0.28696 0.10357 0.35238 0.0
C235 C 0.31425 0.10199 0.34532 0.0
C236 C 0.27118 0.10288 0.28843 0.0
C237 C 0.28241 0.10163 0.21581 0.0
C238 C 0.30911 0.10813 0.21074 0.0
C239 C 0.32499 0.10748 0.27433 0.0
C240 C 0.26859 0.08801 0.151 0.0
C241 C 0.24275 0.07912 0.15856 0.0
C242 C 0.23264 0.05905 0.11255 0.0
C243 C 0.24796 0.04906 0.05207 0.0
C244 C 0.27283 0.06005 0.03735 0.0
C245 C 0.28271 0.07909 0.08749 0.0
C246 C 0.29045 0.05177 0.97367 0.0
C247 C 0.30107 0.02648 0.96877 0.0
C248 C 0.30132 0.07111 0.92787 0.0
C249 C 0.32308 0.06592 0.8822 0.0
C250 C 0.33476 0.04099 0.87949 0.0
C251 C 0.20762 0.04716 0.13837 0.0
C252 C 0.20864 0.02587 0.18692 0.0
C253 C 0.18423 0.06148 0.13486 0.0
C254 C 0.16273 0.0552 0.1806 0.0
C255 C 0.16418 0.03478 0.23285 0.0
C256 C 0.18741 0.01987 0.23362 0.0
C257 C 0.32284 0.02113 0.92212 0.0
H258 H 0.27757 0.10246 0.40672 0.0
H259 H 0.25051 0.10094 0.29797 0.0
H260 H 0.31868 0.11115 0.15756 0.0
H261 H 0.34578 0.10852 0.26504 0.0
H262 H 0.23054 0.08617 0.20397 0.0
H263 H 0.30245 0.08549 0.07787 0.0
H264 H 0.24059 0.03325 1.01691 0.0
H265 H 0.29352 1.01121 1.00417 0.0
H266 H 0.29392 0.09091 0.93104 0.0
H267 H 0.33148 0.08207 0.85209 0.0
H268 H 0.22669 0.01512 0.19328 0.0
H269 H 0.18309 0.07851 0.09973 0.0
H270 H 0.33066 1.00151 0.92104 0.0
H271 H 0.19004 1.00438 0.27348 0.0
H272 H 0.14529 0.06696 0.1763 0.0
C273 C 0.45846 0.3102 0.86042 0.0
C274 C 0.48128 0.32542 0.86604 0.0
C275 C 0.45443 0.28897 0.90766 0.0
C276 C 0.47313 0.28222 0.96167 0.0
C277 C 0.49686 0.29603 0.96352 0.0
C278 C 0.50098 0.31734 0.91581 0.0
C279 C 0.46446 0.26696 0.02773 0.0
C280 C 0.47321 0.24147 0.04367 0.0
C281 C 0.46304 0.22829 0.10667 0.0
C282 C 0.44475 0.241 0.15343 0.0
C283 C 0.43771 0.26707 0.14205 0.0
C284 C 0.44721 0.2795 0.07771 0.0
C285 C 0.42481 0.28287 0.20297 0.0
C286 C 0.43037 0.27796 0.27902 0.0
C287 C 0.41167 0.30615 0.18599 0.0
C288 C 0.40998 0.32629 0.23958 0.0
C289 C 0.42047 0.32306 0.31198 0.0
C290 C 0.47297 0.20262 0.13232 0.0
C291 C 0.45515 0.18256 0.14848 0.0
C292 C 0.49857 0.20065 0.15971 0.0
C293 C 0.50549 0.18032 0.20777 0.0
C294 C 0.48697 0.16146 0.22928 0.0
C295 C 0.46208 0.16218 0.19611 0.0
C296 C 0.42749 0.29771 0.33338 0.0
H297 H 0.44302 0.31556 0.82209 0.0
H298 H 0.43576 0.27904 0.90597 0.0
H299 H 0.51132 0.29171 1.00591 0.0
H300 H 0.51874 0.32864 0.92195 0.0
H301 H 0.48753 0.23203 1.00761 0.0
H302 H 0.44253 0.29977 0.06785 0.0
H303 H 0.43733 0.23093 0.20207 0.0
H304 H 0.43973 0.2601 0.29607 0.0
H305 H 0.40534 0.31003 0.12921 0.0
H306 H 0.40341 0.34516 0.22078 0.0
H307 H 0.43517 0.18379 0.12898 0.0
H308 H 0.51259 0.21601 0.14923 0.0
H309 H 0.43405 0.29394 0.39002 0.0
H310 H 0.44726 0.14815 0.21143 0.0
H311 H 0.52499 0.18014 0.2312 0.0
Gd312 Gd 0.98692 0.02469 0.59444 0.0
Gd313 Gd 0.04148 1.01134 0.71918 0.0
C314 C 0.06412 0.08174 0.8692 0.0
C315 C 0.10388 0.09693 0.81019 0.0
C316 C 0.08115 0.05862 0.7601 0.0
C317 C 0.06207 0.06158 0.81421 0.0
C318 C 0.10276 0.07579 0.75909 0.0
C319 C 0.08464 0.09982 0.86545 0.0
C320 C 0.0458 0.08285 0.92732 0.0
C321 C 0.02666 0.06364 0.93125 0.0
N322 N 0.04231 0.04392 0.81585 0.0
C323 C 0.02535 0.04413 0.87551 0.0
H324 H 1.01059 0.02946 0.88172 0.0
C325 C 0.10146 0.03074 0.67128 0.0
N326 N 0.07989 0.03754 0.71319 0.0
C327 C 0.12296 0.04742 0.66685 0.0
C328 C 0.12334 0.07042 0.70963 0.0
H329 H 0.10219 1.0124 0.64032 0.0
H330 H 0.08618 0.1157 0.90623 0.0
H331 H 0.02282 1.00548 0.44205 0.0
H332 H 0.04667 0.09804 0.97039 0.0
H333 H 0.01279 0.06386 0.97719 0.0
H334 H 0.12011 0.11049 0.80947 0.0
H335 H 0.9248 0.02496 0.65861 0.0
H336 H 0.98842 0.93735 0.3447 0.0
H337 H 0.02337 0.9706 0.34736 0.0
H338 H 0.9091 0.9276 0.4831 0.0
H339 H 0.13941 0.04226 0.6314 0.0
H340 H 0.14023 0.08312 0.70714 0.0
H341 H 0.94623 0.92099 0.39724 0.0
H342 H 0.88617 0.99643 0.65628 0.0
N343 N 0.98852 0.99214 0.49771 0.0
C344 C 0.98811 0.95272 0.38728 0.0
C345 C 1.00787 0.9714 0.38873 0.0
C346 C 0.9678 0.95456 0.43948 0.0
C347 C 0.96833 0.97499 0.49388 0.0
C348 C 1.00765 0.99114 0.44395 0.0
N349 N 0.94792 0.99962 0.58934 0.0
C350 C 0.94756 0.97862 0.54209 0.0
C351 C 0.90342 0.99092 0.62468 0.0
C352 C 0.90363 0.96804 0.58122 0.0
C353 C 0.92552 1.0069 0.62636 0.0
C354 C 0.92555 0.96204 0.53739 0.0
H355 H 0.88638 0.9558 0.57923 0.0
O356 O 0.95523 0.05145 0.57088 0.0
O357 O 0.01703 0.04362 0.67127 0.0
O358 O 1.00356 1.00191 0.78078 0.0
O359 O 0.96854 0.0138 0.7053 0.0
O360 O 0.97826 0.05579 0.68034 0.0
O361 O 0.98686 0.04684 0.49151 0.0
O362 O 0.07514 0.98805 0.75009 0.0
O363 O 1.0104 0.99292 0.64664 0.0
O364 O 0.02512 0.03766 0.53923 0.0
O365 O 0.05818 0.0166 0.60321 0.0
O366 O 0.04768 0.97766 0.63749 0.0
O367 O 0.04012 0.98703 0.81761 0.0
C368 C 1.00161 0.0597 0.70475 0.0
C369 C 0.92564 0.94074 0.48672 0.0
C370 C 0.94673 0.93703 0.4377 0.0
C371 C 0.96703 0.06105 0.51294 0.0
C372 C 0.97102 0.08951 0.51608 0.0
C373 C 0.94969 0.10617 0.52881 0.0
C374 C 0.9963 0.10008 0.51312 0.0
C375 C 1.00033 0.12697 0.52272 0.0
C376 C 0.95362 0.13297 0.53916 0.0
C377 C 0.9788 0.14337 0.5364 0.0
C378 C 0.97823 1.00541 0.76926 0.0
C379 C 0.02392 0.975 0.61498 0.0
C380 C 0.06259 0.97622 0.80301 0.0
C381 C 0.063 0.94758 0.79866 0.0
C382 C 0.0862 0.93423 0.81343 0.0
C383 C 0.0404 0.93346 0.77903 0.0
C384 C 0.04042 0.906 0.77851 0.0
C385 C 0.08674 0.90703 0.81023 0.0
C386 C 0.06404 0.89297 0.79382 0.0
C387 C 0.04965 0.02989 0.54572 0.0
H388 H 0.93006 0.09838 0.53201 0.0
H389 H 0.01297 0.08747 0.50393 0.0
H390 H 0.9371 0.14573 0.54912 0.0
H391 H 0.98137 0.16428 0.54279 0.0
H392 H 0.10385 0.94486 0.82773 0.0
H393 H 0.0227 0.94394 0.76566 0.0
H394 H 0.10467 0.89676 0.8224 0.0
H395 H 0.0649 0.87189 0.7962 0.0
Gd396 Gd 0.51168 0.98843 0.59072 0.0
Gd397 Gd 0.51805 0.04551 0.7209 0.0
C398 C 0.44638 0.07055 0.86058 0.0
C399 C 0.43304 0.11014 0.79818 0.0
C400 C 0.47215 0.08689 0.75804 0.0
C401 C 0.46757 0.06799 0.81015 0.0
C402 C 0.45569 0.1089 0.75378 0.0
C403 C 0.4284 0.09096 0.85177 0.0
C404 C 0.44475 0.0535 0.92081 0.0
C405 C 0.46483 0.03568 0.93223 0.0
N406 N 0.48564 0.04885 0.81733 0.0
C407 C 0.48545 0.03398 0.88077 0.0
H408 H 0.50111 0.02083 0.89385 0.0
C409 C 0.50364 0.1069 0.68176 0.0
N410 N 0.49465 0.08541 0.71857 0.0
C411 C 0.48788 0.12899 0.67436 0.0
C412 C 0.46342 0.1297 0.70889 0.0
H413 H 0.52267 0.10648 0.65542 0.0
H414 H 0.41163 0.09282 0.88863 0.0
H415 H 0.53196 0.02112 0.43403 0.0
H416 H 0.42883 0.05481 0.96083 0.0
H417 H 0.46453 0.02329 0.98092 0.0
H418 H 0.41984 0.12659 0.79459 0.0
H419 H 0.51017 0.92728 0.65583 0.0
H420 H 0.60223 0.98628 0.35455 0.0
H421 H 0.56786 0.01982 0.34478 0.0
H422 H 0.61175 0.91093 0.50673 0.0
H423 H 0.49466 0.14545 0.64231 0.0
H424 H 0.45135 0.14695 0.704 0.0
H425 H 0.61908 0.94635 0.41751 0.0
H426 H 0.53919 0.88896 0.66358 0.0
N427 N 0.5453 0.9887 0.49828 0.0
C428 C 0.58627 0.98662 0.39457 0.0
C429 C 0.56691 1.00553 0.38886 0.0
C430 C 0.58431 0.96781 0.45022 0.0
C431 C 0.56311 0.96911 0.50105 0.0
C432 C 0.54643 1.00621 0.44083 0.0
N433 N 0.53711 0.94989 0.59347 0.0
C434 C 0.55909 0.94927 0.55116 0.0
C435 C 0.54529 0.90595 0.63279 0.0
C436 C 0.56928 0.90611 0.59568 0.0
C437 C 0.52902 0.92778 0.62897 0.0
C438 C 0.57603 0.92754 0.55196 0.0
H439 H 0.58174 0.88905 0.59778 0.0
O440 O 0.48385 0.95725 0.56909 0.0
O441 O 0.49071 0.01757 0.66478 0.0
O442 O 0.51959 1.00709 0.78407 0.0
O443 O 0.52968 0.97384 0.69776 0.0
O444 O 0.47847 0.97908 0.6698 0.0
O445 O 0.49269 0.98505 0.48221 0.0
O446 O 0.54386 0.07677 0.7593 0.0
O447 O 0.53896 0.01719 0.6441 0.0
O448 O 0.50175 0.02532 0.52825 0.0
O449 O 0.50337 0.06133 0.61035 0.0
O450 O 0.54842 0.05634 0.6351 0.0
O451 O 0.54653 0.03888 0.80879 0.0
C452 C 0.47411 1.00248 0.69427 0.0
C453 C 0.59828 0.92721 0.50588 0.0
C454 C 0.60239 0.94732 0.45491 0.0
C455 C 0.47773 0.96589 0.50311 0.0
C456 C 0.44971 0.96865 0.48864 0.0
C457 C 0.43474 0.94626 0.47388 0.0
C458 C 0.43768 0.9933 0.49033 0.0
C459 C 0.41091 0.9957 0.47488 0.0
C460 C 0.40806 0.94844 0.45996 0.0
C461 C 0.3962 0.97296 0.45995 0.0
C462 C 0.52687 0.98288 0.76731 0.0
C463 C 0.55406 0.0331 0.61163 0.0
C464 C 0.55832 0.061 0.79761 0.0
C465 C 0.58613 0.05913 0.77527 0.0
C466 C 0.59729 0.07731 0.72629 0.0
C467 C 0.60045 0.03684 0.7939 0.0
C468 C 0.62465 0.03135 0.75973 0.0
C469 C 0.62166 0.07247 0.69379 0.0
C470 C 0.63511 0.04949 0.70933 0.0
C471 C 0.49973 0.05064 0.54293 0.0
H472 H 0.44373 0.92711 0.47297 0.0
H473 H 0.44916 1.01057 0.50321 0.0
H474 H 0.39661 0.9311 0.44805 0.0
H475 H 0.37566 0.97413 0.44622 0.0
H476 H 0.58677 0.09472 0.71063 0.0
H477 H 0.59226 0.02339 0.83393 0.0
H478 H 0.62981 0.08624 0.65467 0.0
H479 H 0.65343 0.0458 0.68072 0.0
Gd480 Gd 0.49296 0.52395 0.69201 0.0
Gd481 Gd 0.55021 0.50837 0.59175 0.0
C482 C 0.62779 0.5063 0.72007 0.0
C483 C 0.65198 0.54163 0.66334 0.0
C484 C 0.60771 0.53166 0.622 0.0
C485 C 0.60619 0.51183 0.6736 0.0
C486 C 0.6309 0.54639 0.61516 0.0
C487 C 0.65044 0.52159 0.7156 0.0
C488 C 0.62618 0.48532 0.76905 0.0
C489 C 0.60341 0.47052 0.77133 0.0
N490 N 0.58383 0.49764 0.67758 0.0
C491 C 0.58233 0.47704 0.72554 0.0
H492 H 0.56486 0.46569 0.73112 0.0
C493 C 0.58967 0.55218 0.51619 0.0
N494 N 0.58713 0.53564 0.57569 0.0
C495 C 0.61205 0.56743 0.50781 0.0
C496 C 0.63262 0.56483 0.55829 0.0
H497 H 0.57406 0.55395 0.47564 0.0
H498 H 0.66705 0.51778 0.75143 0.0
H499 H 0.47428 0.56211 0.54036 0.0
H500 H 0.64236 0.48042 0.80537 0.0
H501 H 0.60188 0.45432 0.80939 0.0
H502 H 0.66982 0.55289 0.65929 0.0
H503 H 0.47333 0.48042 0.82397 0.0
H504 H 0.39403 0.54796 0.50022 0.0
H505 H 0.43474 0.57143 0.47206 0.0
H506 H 0.36999 0.48486 0.6808 0.0
H507 H 0.61351 0.58098 0.46194 0.0
H508 H 0.65009 0.57648 0.55127 0.0
H509 H 0.37039 0.51564 0.57693 0.0
H510 H 0.43306 0.45834 0.86098 0.0
N511 N 0.45699 0.53396 0.61341 0.0
C512 C 0.41146 0.54395 0.53247 0.0
C513 C 0.43433 0.55736 0.51679 0.0
C514 C 0.41127 0.52557 0.58952 0.0
C515 C 0.43457 0.52079 0.62982 0.0
C516 C 0.45689 0.55225 0.55783 0.0
N517 N 0.45672 0.49826 0.72705 0.0
C518 C 0.43443 0.50268 0.68778 0.0
C519 C 0.43317 0.47058 0.81196 0.0
C520 C 0.41062 0.47361 0.76962 0.0
C521 C 0.45596 0.48338 0.79072 0.0
C522 C 0.4109 0.48999 0.70753 0.0
H523 H 0.39292 0.4637 0.78643 0.0
O524 O 0.49154 0.52334 0.81369 0.0
O525 O 0.53572 0.52214 0.70789 0.0
O526 O 0.534 0.47051 0.63914 0.0
O527 O 0.49313 0.4797 0.68986 0.0
O528 O 0.53565 0.5223 0.7082 0.0
O529 O 0.47778 0.55745 0.75437 0.0
O530 O 0.56571 0.5029 0.47918 0.0
O531 O 0.50668 0.50552 0.58734 0.0
O532 O 0.50345 0.56218 0.63554 0.0
O533 O 0.54506 0.55243 0.5887 0.0
O534 O 0.52435 0.51962 0.49274 0.0
O535 O 0.56447 0.47035 0.55474 0.0
C536 C 0.54558 0.54167 0.74617 0.0
C537 C 0.38808 0.49456 0.66651 0.0
C538 C 0.3883 0.51217 0.60754 0.0
C539 C 0.48041 0.54604 0.81904 0.0
C540 C 0.4856 0.56188 0.88642 0.0
C541 C 0.47455 0.55381 0.9544 0.0
C542 C 0.49945 0.58544 0.88378 0.0
C543 C 0.50146 0.60123 0.94874 0.0
C544 C 0.47688 0.5693 0.01914 0.0
C545 C 0.4901 0.59305 1.01635 0.0
C546 C 0.51216 0.46316 0.67279 0.0
C547 C 0.50233 0.51294 0.52153 0.0
C548 C 0.56806 0.47782 0.4858 0.0
C549 C 0.55567 0.4622 0.42561 0.0
C550 C 0.56218 0.46706 0.3504 0.0
C551 C 0.53626 0.44371 0.44174 0.0
C552 C 0.5233 0.43058 0.38316 0.0
C553 C 0.5492 0.45395 0.29205 0.0
C554 C 0.52972 0.43585 0.30824 0.0
C555 C 0.52569 0.56895 0.60253 0.0
H556 H 0.46368 0.53568 0.95699 0.0
H557 H 0.50782 0.59185 0.8312 0.0
H558 H 0.46812 0.56307 0.07127 0.0
H559 H 0.4915 0.60502 0.06696 0.0
H560 H 0.57706 0.48128 0.33687 0.0
H561 H 0.531 0.43962 0.49941 0.0
H562 H 0.55425 0.45783 0.2342 0.0
H563 H 0.52003 0.42555 0.26246 0.0
Gd564 Gd 1.00904 0.48902 0.69568 0.0
Gd565 Gd 0.02472 0.55035 0.60231 0.0
C566 C 0.01843 0.63158 0.71203 0.0
C567 C 0.98258 0.65069 0.64281 0.0
C568 C 0.99697 0.6064 0.61362 0.0
C569 C 0.01559 0.60816 0.66969 0.0
C570 C 0.98072 0.6279 0.5982 0.0
C571 C 1.00138 0.65251 0.69968 0.0
C572 C 0.03883 0.63361 0.76388 0.0
C573 C 0.0563 0.61297 0.77076 0.0
N574 N 0.0319 0.58761 0.67999 0.0
C575 C 0.05275 0.59021 0.72755 0.0
H576 H 0.0665 0.57467 0.7348 0.0
C577 C 0.9803 0.58305 0.50834 0.0
N578 N 0.9958 0.58423 0.57104 0.0
C579 C 0.96388 0.60386 0.49079 0.0
C580 C 0.96377 0.62623 0.53665 0.0
H581 H 0.98021 0.5657 0.47292 0.0
H582 H 1.00308 0.67048 0.73235 0.0
H583 H 0.96412 0.46755 0.56677 0.0
H584 H 0.0416 0.6512 0.7976 0.0
H585 H 0.07246 0.6145 0.80972 0.0
H586 H 0.97009 0.6673 0.63233 0.0
H587 H 0.05064 0.46711 0.82464 0.0
H588 H 0.98711 0.39282 0.48369 0.0
H589 H 0.95649 0.43003 0.4844 0.0
H590 H 0.05963 0.37089 0.63888 0.0
H591 H 0.95125 0.60257 0.44213 0.0
H592 H 0.95107 0.64236 0.52288 0.0
H593 H 0.02616 0.3713 0.53992 0.0
H594 H 0.07841 0.42858 0.84687 0.0
N595 N 0.99967 0.4532 0.61312 0.0
C596 C 0.99068 0.40948 0.52061 0.0
C597 C 0.97336 0.43039 0.52097 0.0
C598 C 1.01181 0.40987 0.57012 0.0
C599 C 0.01562 0.43211 0.61699 0.0
C600 C 0.97795 0.45195 0.56834 0.0
N601 N 0.03589 0.45261 0.72018 0.0
C602 C 0.03445 0.43188 0.67215 0.0
C603 C 0.06632 0.42931 0.79709 0.0
C604 C 0.06651 0.40866 0.74498 0.0
C605 C 0.05053 0.45105 0.78436 0.0
C606 C 0.05 0.40947 0.68249 0.0
H607 H 0.07867 0.39178 0.75504 0.0
O608 O 0.99963 0.47182 0.80264 0.0
O609 O 1.01024 0.53258 0.70716 0.0
O610 O 0.06014 0.53612 0.66737 0.0
O611 O 0.05353 0.4921 0.69285 0.0
O612 O 0.02197 0.51218 0.79965 0.0
O613 O 0.96858 0.48299 0.72798 0.0
O614 O 0.03333 0.56678 0.49414 0.0
O615 O 0.02461 0.50651 0.59096 0.0
O616 O 0.97396 0.50536 0.63072 0.0
O617 O 0.98126 0.54998 0.62544 0.0
O618 O 1.01154 0.52686 0.49971 0.0
O619 O 0.06472 0.56014 0.57325 0.0
C620 C 0.01792 0.53524 0.77443 0.0
C621 C 0.04759 0.3881 0.63255 0.0
C622 C 0.02851 0.38831 0.57634 0.0
C623 C 0.97479 0.47603 0.79582 0.0
C624 C 0.96255 0.49042 0.85904 0.0
C625 C 0.972 0.48717 0.93254 0.0
C626 C 0.94236 0.50837 0.84653 0.0
C627 C 0.93229 0.5234 0.90629 0.0
C628 C 0.96199 0.50217 0.99202 0.0
C629 C 0.94234 0.52036 0.97902 0.0
C630 C 0.06869 0.51311 0.69016 0.0
C631 C 0.01637 0.5039 0.52419 0.0
C632 C 0.05836 0.56717 0.50547 0.0
C633 C 0.07382 0.55671 0.44296 0.0
C634 C 0.07968 0.57321 0.38323 0.0
C635 C 0.08099 0.53026 0.4392 0.0
C636 C 0.094 0.52036 0.37539 0.0
C637 C 0.09258 0.56345 0.31983 0.0
C638 C 0.09969 0.5372 0.31573 0.0
C639 C 0.96552 0.52955 0.61993 0.0
H640 H 0.98739 0.47328 0.94385 0.0
H641 H 0.93457 0.51091 0.79047 0.0
H642 H 0.96943 0.49964 0.04836 0.0
H643 H 0.93447 0.53154 0.02605 0.0
H644 H 0.07398 0.59358 0.38531 0.0
H645 H 0.0763 0.51746 0.48526 0.0
H646 H 0.09715 0.57627 0.27386 0.0
H647 H 0.11027 0.53023 0.26663 0.0
H648 H 0.1278 0.06948 0.29454 0.0
H649 H 0.15033 0.98812 0.29789 0.0
H650 H 0.11833 0.98014 0.39537 0.0
H651 H 0.084 0.99584 0.4821 0.0
H652 H 0.05784 0.07552 0.47059 0.0
H653 H 0.09055 0.08427 0.37323 0.0
C654 C 0.12556 0.04982 0.31509 0.0
C655 C 0.14236 0.02965 0.28848 0.0
C656 C 0.10622 0.04496 0.3702 0.0
C657 C 0.13875 1.00447 0.31786 0.0
C658 C 0.12009 0.9997 0.3736 0.0
C659 C 0.08544 0.01512 0.45803 0.0
C660 C 0.06854 0.03505 0.48383 0.0
C661 C 0.1039 0.0198 0.40078 0.0
C662 C 0.07042 0.05981 0.45142 0.0
C663 C 0.08925 0.06482 0.39591 0.0
H664 H 0.47367 0.10955 0.24049 0.0
H665 H 0.51215 0.17239 0.36121 0.0
H666 H 0.51879 0.14417 0.46846 0.0
H667 H 0.51355 0.10184 0.52872 0.0
H668 H 0.47706 0.03815 0.40791 0.0
H669 H 0.46951 0.06645 0.30063 0.0
C670 C 0.48351 0.11708 0.29024 0.0
C671 C 0.4925 0.14315 0.29212 0.0
C672 C 0.48731 0.10066 0.3523 0.0
C673 C 0.50543 0.15237 0.35714 0.0
C674 C 0.50903 0.13629 0.41904 0.0
C675 C 0.50335 0.09427 0.47997 0.0
C676 C 0.49474 0.06815 0.4783 0.0
C677 C 0.4999 0.11047 0.41751 0.0
C678 C 0.48304 0.05839 0.41208 0.0
C679 C 0.47895 0.07453 0.3503 0.0
H680 H 0.39787 0.47148 0.36903 0.0
H681 H 0.41748 0.53097 0.20961 0.0
H682 H 0.45701 0.5415 0.28094 0.0
H683 H 0.48634 0.5339 0.38918 0.0
H684 H 0.46608 0.47508 0.54954 0.0
H685 H 0.42701 0.4639 0.47687 0.0
C686 C 0.41088 0.4866 0.3493 0.0
C687 C 0.40455 0.50028 0.28333 0.0
C688 C 0.43366 0.49263 0.39085 0.0
C689 C 0.42155 0.5202 0.26014 0.0
C690 C 0.44432 0.52614 0.30078 0.0
C691 C 0.47342 0.51853 0.40784 0.0
C692 C 0.47903 0.50557 0.47529 0.0
C693 C 0.45064 0.51248 0.36618 0.0
C694 C 0.46212 0.48563 0.49855 0.0
C695 C 0.43973 0.47922 0.4569 0.0
H696 H 1.00506 0.41549 0.27032 0.0
H697 H 0.07678 0.38891 0.36947 0.0
H698 H 0.07515 0.4247 0.46209 0.0
H699 H 0.05338 0.46433 0.51591 0.0
H700 H 0.98308 0.49211 0.41158 0.0
H701 H 0.98424 0.45573 0.32097 0.0
C702 C 0.02028 0.41745 0.31235 0.0
C703 C 0.04102 0.39931 0.31231 0.0
C704 C 0.01952 0.43857 0.36505 0.0
C705 C 0.06067 0.40255 0.36722 0.0
C706 C 0.05975 0.42308 0.42057 0.0
C707 C 0.0382 0.4622 0.47383 0.0
C708 C 0.01764 0.48055 0.47235 0.0
C709 C 0.03928 0.44131 0.42024 0.0
C710 C 0.99879 0.47804 0.41518 0.0
C711 C 0.99946 0.45719 0.3631 0.0
H712 H 0.91352 0.97718 0.06294 0.0
H713 H 0.85806 0.02885 0.95911 0.0
H714 H 0.88804 0.03553 0.85521 0.0
H715 H 0.92983 0.02667 0.79181 0.0
H716 H 0.98508 0.9742 0.89189 0.0
H717 H 0.9553 0.96767 0.99777 0.0
C718 C 0.9078 0.98981 1.01758 0.0
C719 C 0.88329 1.00264 0.0205 0.0
C720 C 0.92513 0.99332 0.95639 0.0
C721 C 0.8768 0.01914 0.96063 0.0
C722 C 0.89391 0.02278 0.9002 0.0
C723 C 0.93527 0.01346 0.83603 0.0
C724 C 0.95968 1.0007 0.83283 0.0
C725 C 0.91807 1.00992 0.89719 0.0
C726 C 0.96651 0.98428 0.89236 0.0
C727 C 0.94943 0.98055 0.95314 0.0
H728 H 0.52332 0.8881 0.98952 0.0
H729 H 0.57362 0.93875 0.12072 0.0
H730 H 0.57043 0.97221 0.02468 0.0
H731 H 0.55396 0.98695 0.90047 0.0
H732 H 0.50172 0.93674 0.77561 0.0
H733 H 0.50496 0.90354 0.8715 0.0
C734 C 0.5332 0.90662 0.99829 0.0
C735 C 0.54868 0.91066 0.06299 0.0
C736 C 0.53122 0.92588 0.94293 0.0
C737 C 0.56177 0.93476 0.0715 0.0
C738 C 0.5599 0.95403 1.01653 0.0
C739 C 0.54334 0.96871 0.89458 0.0
C740 C 0.52855 0.96378 0.82909 0.0
C741 C 0.54485 0.94976 0.95151 0.0
C742 C 0.51448 0.94032 0.82293 0.0
C743 C 0.51593 0.92151 0.87866 0.0
H744 H 0.64286 0.56882 0.94765 0.0
H745 H 0.62393 0.49468 0.04498 0.0
H746 H 0.58901 0.48819 0.95217 0.0
H747 H 0.56149 0.50549 0.84894 0.0
H748 H 0.58236 0.57853 0.74904 0.0
H749 H 0.61837 0.58391 0.83781 0.0
C750 C 0.63108 0.55123 0.94863 0.0
C751 C 0.63575 0.53247 1.00417 0.0
C752 C 0.61133 0.54747 0.89444 0.0
C753 C 0.62067 0.50951 1.00333 0.0
C754 C 0.60063 0.50584 0.95037 0.0
C755 C 0.5747 0.52193 0.84457 0.0
C756 C 0.5702 0.54088 0.7895 0.0
C757 C 0.59555 0.52483 0.89611 0.0
C758 C 0.58619 0.56312 0.78845 0.0
C759 C 0.60664 0.56632 0.83976 0.0
H760 H 0.02901 0.62491 0.02498 0.0
H761 H 0.95975 0.65323 0.9158 0.0
H762 H 0.96133 0.61672 0.82585 0.0
H763 H 0.98208 0.57581 0.77765 0.0
H764 H 0.05054 0.5469 0.88916 0.0
H765 H 0.04944 0.58392 0.97776 0.0
C766 C 0.01434 0.6232 0.98132 0.0
C767 C 0.9942 0.64199 0.97817 0.0
C768 C 0.01513 0.60174 0.9297 0.0
C769 C 0.9753 0.63906 0.92096 0.0
C770 C 0.9762 0.61811 0.86904 0.0
C771 C 0.9969 0.57781 0.82084 0.0
C772 C 0.01687 0.55889 0.82514 0.0
C773 C 0.99595 0.59919 0.8728 0.0
C774 C 0.03527 0.56136 0.88349 0.0
C775 C 0.03464 0.58259 0.93439 0.0
H776 H 0.09487 0.20169 0.48123 0.0
H777 H 0.09623 0.15994 0.26806 0.0
H778 H 0.06802 0.1267 0.31846 0.0
H779 H 0.03335 0.11673 0.40794 0.0
H780 H 0.02587 0.1625 0.61237 0.0
H781 H 0.06501 0.18734 0.57984 0.0
C782 C 0.08931 0.18514 0.44599 0.0
C783 C 0.09672 0.18431 0.36966 0.0
C784 C 0.07096 0.16725 0.47296 0.0
C785 C 0.09066 0.16174 0.3266 0.0
C786 C 0.07399 0.14277 0.35498 0.0
C787 C 0.04076 0.13163 0.4464 0.0
C788 C 0.02661 0.13819 0.51168 0.0
C789 C 0.06246 0.14649 0.42572 0.0
C790 C 0.03628 0.15754 0.56106 0.0
C791 C 0.05865 0.17165 0.54253 0.0
H792 H 0.36794 0.10297 0.36695 0.0
H793 H 0.29731 0.06936 0.45837 0.0
H794 H 0.32261 0.03651 0.51961 0.0
H795 H 0.36279 1.01092 0.52342 0.0
H796 H 0.4313 0.03904 0.40979 0.0
H797 H 0.40899 0.07951 0.38025 0.0
C798 C 0.35779 0.0885 0.39962 0.0
C799 C 0.33028 0.08845 0.40364 0.0
C800 C 0.37223 0.06791 0.42991 0.0
C801 C 0.31824 0.07038 0.45196 0.0
C802 C 0.33273 0.05099 0.48669 0.0
C803 C 0.3729 0.02601 0.49273 0.0
C804 C 0.39866 0.02184 0.46838 0.0
C805 C 0.35941 0.04855 0.47185 0.0
C806 C 0.41167 0.04187 0.43032 0.0
C807 C 0.39876 0.06494 0.41256 0.0
H808 H 0.46492 0.32547 0.39572 0.0
H809 H 0.40078 0.37348 0.32185 0.0
H810 H 0.42688 0.4126 0.34634 0.0
H811 H 0.47093 0.43189 0.36352 0.0
H812 H 0.534 0.38318 0.4382 0.0
H813 H 0.50489 0.34536 0.43992 0.0
C814 C 0.45589 0.34434 0.38772 0.0
C815 C 0.43108 0.34624 0.35391 0.0
C816 C 0.47109 0.36663 0.40071 0.0
C817 C 0.42017 0.37123 0.34492 0.0
C818 C 0.43511 0.39367 0.3588 0.0
C819 C 0.47794 0.41306 0.38189 0.0
C820 C 0.50443 0.40989 0.3995 0.0
C821 C 0.46112 0.39142 0.38225 0.0
C822 C 0.5136 0.38574 0.42409 0.0
C823 C 0.49702 0.3642 0.42484 0.0
H824 H 0.16046 0.42872 0.26709 0.0
H825 H 0.19398 0.44003 0.4879 0.0
H826 H 0.15619 0.46605 0.52611 0.0
H827 H 0.12124 0.49538 0.48331 0.0
H828 H 0.08946 0.48488 0.26049 0.0
H829 H 0.11853 0.44791 0.23746 0.0
C830 C 0.15916 0.43567 0.32485 0.0
C831 C 0.18077 0.43351 0.37328 0.0
C832 C 0.13784 0.45129 0.34553 0.0
C833 C 0.17815 0.44238 0.44827 0.0
C834 C 0.15657 0.45737 0.47013 0.0
C835 C 0.11997 0.4843 0.43093 0.0
C836 C 0.10404 0.49331 0.37251 0.0
C837 C 0.13741 0.46365 0.41716 0.0
C838 C 0.10222 0.47866 0.3053 0.0
C839 C 0.11887 0.45759 0.29211 0.0
H840 H 0.96011 0.81906 0.83126 0.0
H841 H 0.91977 0.88313 0.94006 0.0
H842 H 0.94806 0.91422 0.87692 0.0
H843 H 0.99171 0.92107 0.82585 0.0
H844 H 0.03232 0.85708 0.71594 0.0
H845 H 0.99621 0.82795 0.74481 0.0
C846 C 0.95649 0.83984 0.83791 0.0
C847 C 0.93867 0.84882 0.89267 0.0
C848 C 0.97359 0.8575 0.80396 0.0
C849 C 0.93388 0.87579 0.89954 0.0
C850 C 0.95034 0.89356 0.86432 0.0
C851 C 0.99244 0.90109 0.80501 0.0
C852 C 0.0155 0.89102 0.77231 0.0
C853 C 0.9716 0.88441 0.82174 0.0
C854 C 0.01548 0.86507 0.745 0.0
C855 C 0.99471 0.8484 0.76089 0.0
H856 H 0.66545 0.92994 0.91085 0.0
H857 H 0.73869 0.9701 0.88307 0.0
H858 H 0.71777 1.00212 0.80357 0.0
H859 H 0.67735 0.02378 0.76798 0.0
H860 H 0.60391 0.98307 0.79048 0.0
H861 H 0.62623 0.94643 0.84711 0.0
C862 C 0.67695 0.94505 0.88449 0.0
C863 C 0.70342 0.94786 0.90327 0.0
C864 C 0.66464 0.96388 0.84054 0.0
C865 C 0.71828 0.96743 0.86897 0.0
C866 C 0.70624 0.98605 0.82453 0.0
C867 C 0.66618 1.00664 0.78276 0.0
C868 C 0.63879 1.00689 0.77817 0.0
C869 C 0.67917 0.9853 0.81382 0.0
C870 C 0.62488 0.98418 0.79724 0.0
C871 C 0.63765 0.96297 0.82873 0.0
H872 H 0.54322 0.71527 0.98684 0.0
H873 H 0.6146 0.67881 0.91153 0.0
H874 H 0.59102 0.63764 0.88804 0.0
H875 H 0.55082 0.61126 0.90227 0.0
H876 H 0.48116 0.64794 0.98996 0.0
H877 H 0.50335 0.69011 0.99541 0.0
C878 C 0.55348 0.69857 0.96283 0.0
C879 C 0.58043 0.7001 0.94915 0.0
C880 C 0.54017 0.67501 0.95321 0.0
C881 C 0.59374 0.67806 0.92112 0.0
C882 C 0.58032 0.65458 0.90842 0.0
C883 C 0.54054 0.62865 0.92145 0.0
C884 C 0.51455 0.62674 0.946 0.0
C885 C 0.55366 0.65267 0.92626 0.0
C886 C 0.50128 0.64913 0.97148 0.0
C887 C 0.5139 0.67316 0.97437 0.0
H888 H 0.82231 0.57243 0.90555 0.0
H889 H 0.86466 0.63814 1.00049 0.0
H890 H 0.90584 0.61646 0.97001 0.0
H891 H 0.92886 0.57506 0.94058 0.0
H892 H 0.88569 0.5102 0.84571 0.0
H893 H 0.84556 0.53584 0.85038 0.0
C894 C 0.84033 0.58282 0.91703 0.0
C895 C 0.84015 0.60659 0.95823 0.0
C896 C 0.86383 0.57011 0.90056 0.0
C897 C 0.86408 0.61939 0.97155 0.0
C898 C 0.88768 0.60698 0.95425 0.0
C899 C 0.91069 0.56688 0.91954 0.0
C900 C 0.90987 0.54076 0.8944 0.0
C901 C 0.88767 0.58166 0.92306 0.0
C902 C 0.88655 0.53028 0.86575 0.0
C903 C 0.86365 0.54488 0.8687 0.0
H904 H 0.995 0.16099 0.91126 0.0
H905 H 0.06579 0.18134 0.7939 0.0
H906 H 0.06328 0.1406 0.72129 0.0
H907 H 0.04087 0.09792 0.6905 0.0
H908 H 0.97256 0.07745 0.81841 0.0
H909 H 0.97478 0.11875 0.88746 0.0
C910 C 1.01034 0.15666 0.87111 0.0
C911 C 0.03055 0.17503 0.85947 0.0
C912 C 1.00939 0.13259 0.83093 0.0
C913 C 0.04952 0.16845 0.80438 0.0
C914 C 0.0483 0.14477 0.76281 0.0
C915 C 0.0269 0.10229 0.73473 0.0
C916 C 1.00706 0.08392 0.7509 0.0
C917 C 0.02835 0.12648 0.77563 0.0
C918 C 0.98842 0.09072 0.80596 0.0
C919 C 0.98957 0.1145 0.84544 0.0
H920 H 0.37533 1.00681 0.90806 0.0
H921 H 0.3512 0.0648 0.74881 0.0
H922 H 0.39256 0.0602 0.68273 0.0
H923 H 0.43609 0.03917 0.66755 0.0
H924 H 0.45792 0.9782 0.81888 0.0
H925 H 0.41712 0.98409 0.88864 0.0
C926 C 0.37871 0.01821 0.85825 0.0
C927 C 0.35971 0.03643 0.83507 0.0
C928 C 0.40249 0.01497 0.81852 0.0
C929 C 0.36528 0.05109 0.77034 0.0
C930 C 0.38905 0.04833 0.7316 0.0
C931 C 0.43206 0.02757 0.71669 0.0
C932 C 0.45057 1.00902 0.74002 0.0
C933 C 0.40795 0.03047 0.75532 0.0
C934 C 0.44439 0.99316 0.80127 0.0
C935 C 0.42093 0.99639 0.84088 0.0
H936 H 0.52285 0.34686 0.78943 0.0
H937 H 0.44329 0.3623 0.85621 0.0
H938 H 0.44502 0.40481 0.79706 0.0
H939 H 0.4691 0.43805 0.72824 0.0
H940 H 0.54928 0.42436 0.66601 0.0
H941 H 0.54691 0.38056 0.71782 0.0
C942 C 0.5059 0.35952 0.79087 0.0
C943 C 0.48288 0.35109 0.82685 0.0
C944 C 0.50702 0.38427 0.75673 0.0
C945 C 0.4611 0.36786 0.8278 0.0
C946 C 0.46209 0.39233 0.79423 0.0
C947 C 0.48626 0.42584 0.72724 0.0
C948 C 0.50959 0.43523 0.69559 0.0
C949 C 0.48496 0.40082 0.75889 0.0
C950 C 0.53111 0.41813 0.69109 0.0
C951 C 0.52982 0.39298 0.7211 0.0
H952 H 0.1826 0.52882 0.8286 0.0
H953 H 0.17257 0.44689 0.87358 0.0
H954 H 0.13053 0.44708 0.80976 0.0
H955 H 0.09601 0.47048 0.74221 0.0
H956 H 0.10499 0.55263 0.70092 0.0
H957 H 0.14786 0.55211 0.75962 0.0
C958 C 0.17125 0.51099 0.8246 0.0
C959 C 0.18122 0.48782 0.85577 0.0
C960 C 0.14668 0.5112 0.78795 0.0
C961 C 0.16599 0.46495 0.84911 0.0
C962 C 0.1417 0.46504 0.81288 0.0
C963 C 0.10693 0.4884 0.74733 0.0
C964 C 0.09626 0.51173 0.7195 0.0
C965 C 0.13174 0.48806 0.78233 0.0
C966 C 0.11191 0.5344 0.72331 0.0
C967 C 0.13667 0.53415 0.757 0.0
H968 H 0.97957 0.86254 0.52305 0.0
H969 H 0.04427 0.86745 0.36715 0.0
H970 H 0.05569 0.90982 0.41892 0.0
H971 H 0.04773 0.94649 0.50656 0.0
H972 H 0.98125 0.94485 0.65431 0.0
H973 H 0.97004 0.90082 0.60689 0.0
C974 C 0.99606 0.87273 0.49934 0.0
C975 C 1.01118 0.86063 0.44118 0.0
C976 C 1.00219 0.89816 0.52768 0.0
C977 C 0.03257 0.87494 0.41324 0.0
C978 C 0.03905 0.89969 0.44229 0.0
C979 C 0.03057 0.93661 0.52778 0.0
C980 C 0.01495 0.94935 0.58238 0.0
C981 C 0.02407 0.91152 0.49929 0.0
C982 C 0.99316 0.93595 0.61059 0.0
C983 C 0.9869 0.91063 0.58375 0.0
H984 H 0.65941 0.0312 0.42624 0.0
H985 H 0.6768 0.96816 0.57679 0.0
H986 H 0.63388 0.97269 0.63352 0.0
H987 H 0.5907 0.995 0.64274 0.0
H988 H 0.57607 0.06107 0.50225 0.0
H989 H 0.6187 0.05561 0.4426 0.0
C990 C 0.65437 0.01874 0.47262 0.0
C991 C 0.67186 0.999 0.49523 0.0
C992 C 0.62982 0.0221 0.50784 0.0
C993 C 0.66398 0.98304 0.5553 0.0
C994 C 0.63931 0.9858 0.58897 0.0
C995 C 0.59678 1.00792 0.59835 0.0
C996 C 0.57971 0.02777 0.57469 0.0
C997 C 0.62189 1.00513 0.56542 0.0
C998 C 0.58849 0.0452 0.51995 0.0
C999 C 0.61296 0.04215 0.48598 0.0
H1000 H 0.57086 0.67993 0.5237 0.0
H1001 H 0.49598 0.6869 0.41412 0.0
H1002 H 0.48271 0.64509 0.4647 0.0
H1003 H 0.4933 0.60443 0.53292 0.0
H1004 H 0.57035 0.59568 0.62626 0.0
H1005 H 0.58186 0.63958 0.58731 0.0
C1006 C 0.55172 0.67242 0.50939 0.0
C1007 C 0.53469 0.68721 0.46418 0.0
C1008 C 0.54452 0.64758 0.53568 0.0
C1009 C 0.50964 0.67677 0.44957 0.0
C1010 C 0.50202 0.65247 0.47792 0.0
C1011 C 0.51244 0.61228 0.54563 0.0
C1012 C 0.53081 0.59675 0.58349 0.0
C1013 C 0.51939 0.63747 0.5203 0.0
C1014 C 0.55575 0.60718 0.59788 0.0
C1015 C 0.5624 0.63234 0.57538 0.0
H1016 H 0.85819 0.569 0.48537 0.0
H1017 H 0.84547 0.48599 0.45814 0.0
H1018 H 0.88717 0.47744 0.51852 0.0
H1019 H 0.92834 0.49334 0.57475 0.0
H1020 H 0.93914 0.576 0.61235 0.0
H1021 H 0.89704 0.58463 0.55417 0.0
C1022 C 0.86409 0.54895 0.49367 0.0
C1023 C 0.84836 0.52826 0.46542 0.0
C1024 C 0.88807 0.54402 0.53019 0.0
C1025 C 0.85709 0.5025 0.47678 0.0
C1026 C 0.881 0.49751 0.51214 0.0
C1027 C 0.92162 0.51325 0.57048 0.0
C1028 C 0.93786 0.53402 0.59491 0.0
C1029 C 0.89688 0.5181 0.53815 0.0
C1030 C 0.92791 0.5596 0.59101 0.0
C1031 C 0.90358 0.56458 0.55821 0.0
loop_
_geom_bond_atom_site_label_1
_geom_bond_atom_site_label_2
_geom_bond_distance
_geom_bond_site_symmetry_2
_ccdc_geom_bond_type
C0 C1 1.386 . S
C0 C2 1.397 . S
C0 H24 0.931 1_554 S
C1 C0 1.386 . S
C1 C5 1.397 . S
C2 C0 1.397 . S
C2 C3 1.384 . S
C2 H25 0.930 . S
C3 C2 1.384 . S
C3 C4 1.377 . S
C3 C6 1.481 . S
C4 C3 1.377 . S
C4 C5 1.389 . S
C4 H26 0.929 . S
C5 C1 1.397 . S
C5 C4 1.389 . S
C5 H27 0.931 . S
C6 C3 1.481 . S
C6 C7 1.387 . S
C6 C11 1.390 . S
C7 C6 1.387 . S
C7 C8 1.401 . S
C7 H28 0.930 . S
C8 C7 1.401 . S
C8 C9 1.376 . S
C8 C17 1.511 . S
C9 C8 1.376 . S
C9 C10 1.392 . S
C9 H30 0.931 . S
C10 C9 1.392 . S
C10 C11 1.361 . S
C10 C12 1.500 . S
C11 C6 1.390 . S
C11 C10 1.361 . S
C11 H29 0.931 . S
C12 C10 1.500 . S
C12 C13 1.371 . S
C12 C14 1.365 . S
C13 C12 1.371 . S
C13 C23 1.386 . S
C13 H31 0.931 . S
C14 C12 1.365 . S
C14 C15 1.409 . S
C14 H32 0.929 . S
C15 C14 1.409 . S
C15 C16 1.380 . S
C15 H33 0.930 . S
C16 C15 1.380 . S
C16 C23 1.357 . S
C17 C8 1.511 . S
C17 C18 1.341 . S
C17 C19 1.371 . S
C18 C17 1.341 . S
C18 C22 1.394 . S
C18 H34 0.930 . S
C19 C17 1.371 . S
C19 C20 1.392 . S
C19 H35 0.931 . S
C20 C19 1.392 . S
C20 C21 1.331 . S
C20 H38 0.932 . S
C21 C20 1.331 . S
C21 C22 1.336 . S
C22 C18 1.394 . S
C22 C21 1.336 . S
C22 H37 0.929 . S
C23 C13 1.386 . S
C23 C16 1.357 . S
C23 H36 0.928 . S
H24 C0 0.931 1_556 S
H25 C2 0.930 . S
H26 C4 0.929 . S
H27 C5 0.931 . S
H28 C7 0.930 . S
H29 C11 0.931 . S
H30 C9 0.931 . S
H31 C13 0.931 . S
H32 C14 0.929 . S
H33 C15 0.930 . S
H34 C18 0.930 . S
H35 C19 0.931 . S
H36 C23 0.928 . S
H37 C22 0.929 . S
H38 C20 0.932 . S
C39 C40 1.386 . S
C39 C41 1.397 . S
C39 H63 0.931 1_554 S
C40 C39 1.386 . S
C40 C44 1.397 . S
C41 C39 1.397 . S
C41 C42 1.384 . S
C41 H64 0.930 . S
C42 C41 1.384 . S
C42 C43 1.377 . S
C42 C45 1.481 . S
C43 C42 1.377 . S
C43 C44 1.389 . S
C43 H65 0.929 . S
C44 C40 1.397 . S
C44 C43 1.389 . S
C44 H66 0.931 . S
C45 C42 1.481 . S
C45 C46 1.387 . S
C45 C50 1.390 . S
C46 C45 1.387 . S
C46 C47 1.401 . S
C46 H67 0.930 . S
C47 C46 1.401 . S
C47 C48 1.376 . S
C47 C56 1.511 . S
C48 C47 1.376 . S
C48 C49 1.392 . S
C48 H69 0.931 . S
C49 C48 1.392 . S
C49 C50 1.361 . S
C49 C51 1.500 . S
C50 C45 1.390 . S
C50 C49 1.361 . S
C50 H68 0.931 . S
C51 C49 1.500 . S
C51 C52 1.371 . S
C51 C53 1.365 . S
C52 C51 1.371 . S
C52 C62 1.386 . S
C52 H70 0.931 . S
C53 C51 1.365 . S
C53 C54 1.409 . S
C53 H71 0.929 . S
C54 C53 1.409 . S
C54 C55 1.380 . S
C54 H72 0.930 . S
C55 C54 1.380 . S
C55 C62 1.357 . S
C56 C47 1.511 . S
C56 C57 1.341 . S
C56 C58 1.371 . S
C57 C56 1.341 . S
C57 C61 1.394 . S
C57 H73 0.930 . S
C58 C56 1.371 . S
C58 C59 1.392 . S
C58 H74 0.931 . S
C59 C58 1.392 . S
C59 C60 1.331 . S
C59 H77 0.932 . S
C60 C59 1.331 . S
C60 C61 1.336 . S
C61 C57 1.394 . S
C61 C60 1.336 . S
C61 H76 0.929 . S
C62 C52 1.386 . S
C62 C55 1.357 . S
C62 H75 0.928 . S
H63 C39 0.931 1_556 S
H64 C41 0.930 . S
H65 C43 0.929 . S
H66 C44 0.931 . S
H67 C46 0.930 . S
H68 C50 0.931 . S
H69 C48 0.931 . S
H70 C52 0.931 . S
H71 C53 0.929 . S
H72 C54 0.930 . S
H73 C57 0.930 . S
H74 C58 0.931 . S
H75 C62 0.928 . S
H76 C61 0.929 . S
H77 C59 0.932 . S
C78 C79 1.386 . S
C78 C80 1.397 . S
C78 H102 0.931 1_554 S
C79 C78 1.386 . S
C79 C83 1.397 . S
C80 C78 1.397 . S
C80 C81 1.384 . S
C80 H103 0.930 . S
C81 C80 1.384 . S
C81 C82 1.377 . S
C81 C84 1.481 . S
C82 C81 1.377 . S
C82 C83 1.389 . S
C82 H104 0.929 . S
C83 C79 1.397 . S
C83 C82 1.389 . S
C83 H105 0.931 . S
C84 C81 1.481 . S
C84 C85 1.387 . S
C84 C89 1.390 . S
C85 C84 1.387 . S
C85 C86 1.401 . S
C85 H106 0.930 . S
C86 C85 1.401 . S
C86 C87 1.376 . S
C86 C95 1.511 . S
C87 C86 1.376 . S
C87 C88 1.392 . S
C87 H108 0.931 . S
C88 C87 1.392 . S
C88 C89 1.361 . S
C88 C90 1.500 . S
C89 C84 1.390 . S
C89 C88 1.361 . S
C89 H107 0.931 . S
C90 C88 1.500 . S
C90 C91 1.371 . S
C90 C92 1.365 . S
C91 C90 1.371 . S
C91 C101 1.386 . S
C91 H109 0.931 . S
C92 C90 1.365 . S
C92 C93 1.409 . S
C92 H110 0.929 . S
C93 C92 1.409 . S
C93 C94 1.380 . S
C93 H111 0.930 . S
C94 C93 1.380 . S
C94 C101 1.357 . S
C95 C86 1.511 . S
C95 C96 1.341 . S
C95 C97 1.371 . S
C96 C95 1.341 . S
C96 C100 1.394 . S
C96 H112 0.930 . S
C97 C95 1.371 . S
C97 C98 1.392 . S
C97 H113 0.931 . S
C98 C97 1.392 . S
C98 C99 1.331 . S
C98 H116 0.932 . S
C99 C98 1.331 . S
C99 C100 1.336 . S
C100 C96 1.394 . S
C100 C99 1.336 . S
C100 H115 0.929 . S
C101 C91 1.386 . S
C101 C94 1.357 . S
C101 H114 0.928 . S
H102 C78 0.931 1_556 S
H103 C80 0.930 . S
H104 C82 0.929 . S
H105 C83 0.931 . S
H106 C85 0.930 . S
H107 C89 0.931 . S
H108 C87 0.931 . S
H109 C91 0.931 . S
H110 C92 0.929 . S
H111 C93 0.930 . S
H112 C96 0.930 . S
H113 C97 0.931 . S
H114 C101 0.928 . S
H115 C100 0.929 . S
H116 C98 0.932 . S
C117 C118 1.386 . S
C117 C119 1.397 . S
C117 H141 0.931 . S
C118 C117 1.386 . S
C118 C122 1.397 . S
C119 C117 1.397 . S
C119 C120 1.384 . S
C119 H142 0.930 . S
C120 C119 1.384 . S
C120 C121 1.377 . S
C120 C123 1.481 . S
C121 C120 1.377 . S
C121 C122 1.389 . S
C121 H143 0.929 . S
C122 C118 1.397 . S
C122 C121 1.389 . S
C122 H144 0.931 . S
C123 C120 1.481 . S
C123 C124 1.387 . S
C123 C128 1.390 . S
C124 C123 1.387 . S
C124 C125 1.401 . S
C124 H145 0.930 . S
C125 C124 1.401 . S
C125 C126 1.376 . S
C125 C134 1.511 . S
C126 C125 1.376 . S
C126 C127 1.392 . S
C126 H147 0.931 . S
C127 C126 1.392 . S
C127 C128 1.361 . S
C127 C129 1.500 . S
C128 C123 1.390 . S
C128 C127 1.361 . S
C128 H146 0.931 . S
C129 C127 1.500 . S
C129 C130 1.371 . S
C129 C131 1.365 . S
C130 C129 1.371 . S
C130 C140 1.386 . S
C130 H148 0.931 . S
C131 C129 1.365 . S
C131 C132 1.409 . S
C131 H149 0.929 . S
C132 C131 1.409 . S
C132 C133 1.380 . S
C132 H150 0.930 . S
C133 C132 1.380 . S
C133 C140 1.357 . S
C134 C125 1.511 . S
C134 C135 1.341 . S
C134 C136 1.371 . S
C135 C134 1.341 . S
C135 C139 1.394 . S
C135 H151 0.930 . S
C136 C134 1.371 . S
C136 C137 1.392 . S
C136 H152 0.931 . S
C137 C136 1.392 . S
C137 C138 1.331 . S
C137 H155 0.932 . S
C138 C137 1.331 . S
C138 C139 1.336 . S
C139 C135 1.394 . S
C139 C138 1.336 . S
C139 H154 0.929 . S
C140 C130 1.386 . S
C140 C133 1.357 . S
C140 H153 0.928 1_554 S
H141 C117 0.931 . S
H142 C119 0.930 . S
H143 C121 0.929 . S
H144 C122 0.931 . S
H145 C124 0.930 . S
H146 C128 0.931 . S
H147 C126 0.931 . S
H148 C130 0.931 . S
H149 C131 0.929 . S
H150 C132 0.930 . S
H151 C135 0.930 . S
H152 C136 0.931 . S
H153 C140 0.928 1_556 S
H154 C139 0.929 . S
H155 C137 0.932 . S
C156 C157 1.386 . S
C156 C158 1.397 . S
C156 H180 0.931 . S
C157 C156 1.386 . S
C157 C161 1.397 . S
C158 C156 1.397 . S
C158 C159 1.384 . S
C158 H181 0.930 . S
C159 C158 1.384 . S
C159 C160 1.377 . S
C159 C162 1.481 . S
C160 C159 1.377 . S
C160 C161 1.389 . S
C160 H182 0.929 . S
C161 C157 1.397 . S
C161 C160 1.389 . S
C161 H183 0.931 . S
C162 C159 1.481 . S
C162 C163 1.387 . S
C162 C167 1.390 . S
C163 C162 1.387 . S
C163 C164 1.401 . S
C163 H184 0.930 . S
C164 C163 1.401 . S
C164 C165 1.376 1_554 S
C164 C173 1.511 . S
C165 C164 1.376 1_556 S
C165 C166 1.392 . S
C165 H186 0.931 . S
C166 C165 1.392 . S
C166 C167 1.361 1_556 S
C166 C168 1.500 . S
C167 C162 1.390 . S
C167 C166 1.361 1_554 S
C167 H185 0.931 1_554 S
C168 C166 1.500 . S
C168 C169 1.371 . S
C168 C170 1.365 . S
C169 C168 1.371 . S
C169 C179 1.386 . S
C169 H187 0.931 . S
C170 C168 1.365 . S
C170 C171 1.409 . S
C170 H188 0.929 . S
C171 C170 1.409 . S
C171 C172 1.380 . S
C171 H189 0.930 . S
C172 C171 1.380 . S
C172 C179 1.357 . S
C173 C164 1.511 . S
C173 C174 1.341 . S
C173 C175 1.371 . S
C174 C173 1.341 . S
C174 C178 1.394 . S
C174 H190 0.930 . S
C175 C173 1.371 . S
C175 C176 1.392 . S
C175 H191 0.931 1_554 S
C176 C175 1.392 . S
C176 C177 1.331 . S
C176 H194 0.932 1_554 S
C177 C176 1.331 . S
C177 C178 1.336 . S
C178 C174 1.394 . S
C178 C177 1.336 . S
C178 H193 0.929 . S
C179 C169 1.386 . S
C179 C172 1.357 . S
C179 H192 0.928 . S
H180 C156 0.931 . S
H181 C158 0.930 . S
H182 C160 0.929 . S
H183 C161 0.931 . S
H184 C163 0.930 . S
H185 C167 0.931 1_556 S
H186 C165 0.931 . S
H187 C169 0.931 . S
H188 C170 0.929 . S
H189 C171 0.930 . S
H190 C174 0.930 . S
H191 C175 0.931 1_556 S
H192 C179 0.928 . S
H193 C178 0.929 . S
H194 C176 0.932 1_556 S
C195 C196 1.386 . S
C195 C197 1.397 . S
C195 H219 0.931 . S
C196 C195 1.386 . S
C196 C200 1.397 . S
C197 C195 1.397 . S
C197 C198 1.384 . S
C197 H220 0.930 . S
C198 C197 1.384 . S
C198 C199 1.377 . S
C198 C201 1.481 . S
C199 C198 1.377 . S
C199 C200 1.389 . S
C199 H221 0.929 . S
C200 C196 1.397 . S
C200 C199 1.389 . S
C200 H222 0.931 . S
C201 C198 1.481 . S
C201 C202 1.387 . S
C201 C206 1.390 . S
C202 C201 1.387 . S
C202 C203 1.401 . S
C202 H223 0.930 . S
C203 C202 1.401 . S
C203 C204 1.376 1_554 S
C203 C212 1.511 . S
C204 C203 1.376 1_556 S
C204 C205 1.392 . S
C204 H225 0.931 . S
C205 C204 1.392 . S
C205 C206 1.361 1_556 S
C205 C207 1.500 . S
C206 C201 1.390 . S
C206 C205 1.361 1_554 S
C206 H224 0.931 1_554 S
C207 C205 1.500 . S
C207 C208 1.371 . S
C207 C209 1.365 . S
C208 C207 1.371 . S
C208 C218 1.386 . S
C208 H226 0.931 . S
C209 C207 1.365 . S
C209 C210 1.409 . S
C209 H227 0.929 . S
C210 C209 1.409 . S
C210 C211 1.380 . S
C210 H228 0.930 . S
C211 C210 1.380 . S
C211 C218 1.357 . S
C212 C203 1.511 . S
C212 C213 1.341 . S
C212 C214 1.371 . S
C213 C212 1.341 . S
C213 C217 1.394 . S
C213 H229 0.930 . S
C214 C212 1.371 . S
C214 C215 1.392 . S
C214 H230 0.931 1_554 S
C215 C214 1.392 . S
C215 C216 1.331 . S
C215 H233 0.932 1_554 S
C216 C215 1.331 . S
C216 C217 1.336 . S
C217 C213 1.394 . S
C217 C216 1.336 . S
C217 H232 0.929 . S
C218 C208 1.386 . S
C218 C211 1.357 . S
C218 H231 0.928 . S
H219 C195 0.931 . S
H220 C197 0.930 . S
H221 C199 0.929 . S
H222 C200 0.931 . S
H223 C202 0.930 . S
H224 C206 0.931 1_556 S
H225 C204 0.931 . S
H226 C208 0.931 . S
H227 C209 0.929 . S
H228 C210 0.930 . S
H229 C213 0.930 . S
H230 C214 0.931 1_556 S
H231 C218 0.928 . S
H232 C217 0.929 . S
H233 C215 0.932 1_556 S
C234 C235 1.386 . S
C234 C236 1.397 . S
C234 H258 0.931 . S
C235 C234 1.386 . S
C235 C239 1.397 . S
C236 C234 1.397 . S
C236 C237 1.384 . S
C236 H259 0.930 . S
C237 C236 1.384 . S
C237 C238 1.377 . S
C237 C240 1.481 . S
C238 C237 1.377 . S
C238 C239 1.389 . S
C238 H260 0.929 . S
C239 C235 1.397 . S
C239 C238 1.389 . S
C239 H261 0.931 . S
C240 C237 1.481 . S
C240 C241 1.387 . S
C240 C245 1.390 . S
C241 C240 1.387 . S
C241 C242 1.401 . S
C241 H262 0.930 . S
C242 C241 1.401 . S
C242 C243 1.376 1_554 S
C242 C251 1.511 . S
C243 C242 1.376 1_556 S
C243 C244 1.392 . S
C243 H264 0.931 . S
C244 C243 1.392 . S
C244 C245 1.361 1_556 S
C244 C246 1.500 . S
C245 C240 1.390 . S
C245 C244 1.361 1_554 S
C245 H263 0.931 1_554 S
C246 C244 1.500 . S
C246 C247 1.371 . S
C246 C248 1.365 . S
C247 C246 1.371 . S
C247 C257 1.386 . S
C247 H265 0.931 . S
C248 C246 1.365 . S
C248 C249 1.409 . S
C248 H266 0.929 . S
C249 C248 1.409 . S
C249 C250 1.380 . S
C249 H267 0.930 . S
C250 C249 1.380 . S
C250 C257 1.357 . S
C251 C242 1.511 . S
C251 C252 1.341 . S
C251 C253 1.371 . S
C252 C251 1.341 . S
C252 C256 1.394 . S
C252 H268 0.930 . S
C253 C251 1.371 . S
C253 C254 1.392 . S
C253 H269 0.931 1_554 S
C254 C253 1.392 . S
C254 C255 1.331 . S
C254 H272 0.932 1_554 S
C255 C254 1.331 . S
C255 C256 1.336 . S
C256 C252 1.394 . S
C256 C255 1.336 . S
C256 H271 0.929 . S
C257 C247 1.386 . S
C257 C250 1.357 . S
C257 H270 0.928 . S
H258 C234 0.931 . S
H259 C236 0.930 . S
H260 C238 0.929 . S
H261 C239 0.931 . S
H262 C241 0.930 . S
H263 C245 0.931 1_556 S
H264 C243 0.931 . S
H265 C247 0.931 . S
H266 C248 0.929 . S
H267 C249 0.930 . S
H268 C252 0.930 . S
H269 C253 0.931 1_556 S
H270 C257 0.928 . S
H271 C256 0.929 . S
H272 C254 0.932 1_556 S
C273 C274 1.386 . S
C273 C275 1.397 . S
C273 H297 0.931 . S
C274 C273 1.386 . S
C274 C278 1.397 . S
C275 C273 1.397 . S
C275 C276 1.384 . S
C275 H298 0.930 . S
C276 C275 1.384 . S
C276 C277 1.377 . S
C276 C279 1.481 . S
C277 C276 1.377 . S
C277 C278 1.389 . S
C277 H299 0.929 . S
C278 C274 1.397 . S
C278 C277 1.389 . S
C278 H300 0.931 . S
C279 C276 1.481 . S
C279 C280 1.387 . S
C279 C284 1.390 1_556 S
C280 C279 1.387 . S
C280 C281 1.401 1_556 S
C280 H301 0.930 . S
C281 C280 1.401 1_554 S
C281 C282 1.376 . S
C281 C290 1.511 . S
C282 C281 1.376 . S
C282 C283 1.392 . S
C282 H303 0.931 . S
C283 C282 1.392 . S
C283 C284 1.361 . S
C283 C285 1.500 . S
C284 C279 1.390 1_554 S
C284 C283 1.361 . S
C284 H302 0.931 1_554 S
C285 C283 1.500 . S
C285 C286 1.371 . S
C285 C287 1.365 . S
C286 C285 1.371 . S
C286 C296 1.386 . S
C286 H304 0.931 . S
C287 C285 1.365 . S
C287 C288 1.409 . S
C287 H305 0.929 . S
C288 C287 1.409 . S
C288 C289 1.380 . S
C288 H306 0.930 . S
C289 C288 1.380 . S
C289 C296 1.357 . S
C290 C281 1.511 . S
C290 C291 1.341 . S
C290 C292 1.371 . S
C291 C290 1.341 . S
C291 C295 1.394 . S
C291 H307 0.930 1_554 S
C292 C290 1.371 . S
C292 C293 1.392 . S
C292 H308 0.931 . S
C293 C292 1.392 . S
C293 C294 1.331 . S
C293 H311 0.932 . S
C294 C293 1.331 . S
C294 C295 1.336 . S
C295 C291 1.394 . S
C295 C294 1.336 . S
C295 H310 0.929 1_554 S
C296 C286 1.386 . S
C296 C289 1.357 . S
C296 H309 0.928 . S
H297 C273 0.931 . S
H298 C275 0.930 . S
H299 C277 0.929 . S
H300 C278 0.931 . S
H301 C280 0.930 . S
H302 C284 0.931 1_556 S
H303 C282 0.931 . S
H304 C286 0.931 . S
H305 C287 0.929 . S
H306 C288 0.930 . S
H307 C291 0.930 1_556 S
H308 C292 0.931 . S
H309 C296 0.928 . S
H310 C295 0.929 1_556 S
H311 C293 0.932 . S
Gd312 N343 2.661 1_545 S
Gd312 N349 2.601 . S
Gd312 O356 2.545 . S
Gd312 O357 2.606 1_655 S
Gd312 O359 2.429 . S
Gd312 O360 2.545 1_655 S
Gd312 O361 2.412 . S
Gd312 O363 2.362 1_545 S
Gd312 O364 2.324 1_655 S
Gd312 C371 2.828 . S
Gd313 N322 2.661 1_565 S
Gd313 N326 2.601 . S
Gd313 O357 2.362 1_565 S
Gd313 O358 2.324 1_455 S
Gd313 O362 2.545 . S
Gd313 O363 2.606 1_455 S
Gd313 O365 2.429 . S
Gd313 O366 2.545 . S
Gd313 O367 2.412 . S
Gd313 C380 2.828 . S
C314 C317 1.417 . S
C314 C319 1.431 . S
C314 C320 1.412 . S
C315 C318 1.437 . S
C315 C319 1.317 . S
C315 H334 0.929 . S
C316 C317 1.426 . S
C316 C318 1.413 . S
C316 N326 1.359 1_545 S
C317 C314 1.417 . S
C317 C316 1.426 . S
C317 N322 1.350 . S
C318 C315 1.437 . S
C318 C316 1.413 . S
C318 C328 1.410 . S
C319 C314 1.431 . S
C319 C315 1.317 . S
C319 H330 0.930 . S
C320 C314 1.412 . S
C320 C321 1.355 . S
C320 H332 0.930 . S
C321 C320 1.355 . S
C321 C323 1.402 . S
C321 H333 0.930 1_455 S
N322 Gd313 2.661 1_545 S
N322 C317 1.350 . S
N322 C323 1.307 . S
C323 C321 1.402 . S
C323 N322 1.307 . S
C323 H324 0.930 1_455 S
H324 C323 0.930 1_655 S
C325 N326 1.334 . S
C325 C327 1.394 . S
C325 H329 0.930 . S
N326 Gd313 2.601 . S
N326 C316 1.359 1_565 S
N326 C325 1.334 . S
C327 C325 1.394 . S
C327 C328 1.337 1_565 S
C327 H339 0.930 . S
C328 C318 1.410 . S
C328 C327 1.337 1_545 S
C328 H340 0.934 . S
H329 C325 0.930 . S
H330 C319 0.930 . S
H331 C348 0.929 . S
H332 C320 0.930 . S
H333 C321 0.930 1_655 S
H334 C315 0.929 . S
H335 C353 0.930 . S
H336 C344 0.930 . S
H337 C345 0.930 1_455 S
H338 C369 0.929 . S
H339 C327 0.930 . S
H340 C328 0.934 . S
H341 C370 0.930 . S
H342 C351 0.930 . S
N343 Gd312 2.661 1_565 S
N343 C347 1.350 . S
N343 C348 1.308 1_655 S
C344 H336 0.930 . S
C344 C345 1.355 . S
C344 C346 1.412 . S
C345 H337 0.930 1_655 S
C345 C344 1.355 . S
C345 C348 1.402 1_655 S
C346 C344 1.412 . S
C346 C347 1.417 . S
C346 C370 1.431 . S
C347 N343 1.350 . S
C347 C346 1.417 . S
C347 C350 1.426 1_565 S
C348 H331 0.929 . S
C348 N343 1.308 1_455 S
C348 C345 1.402 1_455 S
N349 Gd312 2.601 . S
N349 C350 1.359 . S
N349 C353 1.334 . S
C350 C347 1.426 1_545 S
C350 N349 1.359 . S
C350 C354 1.414 1_545 S
C351 H342 0.930 . S
C351 C352 1.359 . S
C351 C353 1.394 . S
C352 C351 1.359 . S
C352 C354 1.392 1_545 S
C352 H355 0.929 . S
C353 H335 0.930 . S
C353 N349 1.334 . S
C353 C351 1.394 . S
C354 C350 1.414 1_565 S
C354 C352 1.392 1_565 S
C354 C369 1.435 . S
H355 C352 0.929 . S
O356 Gd312 2.545 . S
O356 C371 1.258 . S
O357 Gd312 2.606 1_455 S
O357 Gd313 2.362 1_545 S
O357 C368 1.284 . S
O358 Gd313 2.324 1_655 S
O358 C378 1.254 1_565 S
O359 Gd312 2.429 . S
O359 C378 1.268 . S
O360 Gd312 2.545 1_455 S
O360 C368 1.250 . S
O361 Gd312 2.412 . S
O361 C371 1.252 . S
O362 Gd313 2.545 . S
O362 C380 1.258 . S
O363 Gd312 2.362 1_565 S
O363 Gd313 2.606 1_655 S
O363 C379 1.284 . S
O364 Gd312 2.324 1_455 S
O364 C387 1.254 . S
O365 Gd313 2.429 . S
O365 C387 1.268 1_565 S
O366 Gd313 2.545 . S
O366 C379 1.250 1_455 S
O367 Gd313 2.412 . S
O367 C380 1.252 . S
C368 O357 1.284 . S
C368 O360 1.250 . S
C369 H338 0.929 . S
C369 C354 1.435 . S
C369 C370 1.317 . S
C370 H341 0.930 . S
C370 C346 1.431 . S
C370 C369 1.317 . S
C371 Gd312 2.828 . S
C371 O356 1.258 . S
C371 O361 1.252 . S
C371 C372 1.497 . S
C372 C371 1.497 . S
C372 C373 1.395 . S
C372 C374 1.380 . S
C373 C372 1.395 . S
C373 C376 1.398 . S
C373 H388 0.930 . S
C374 C372 1.380 . S
C374 C375 1.391 . S
C374 H389 0.930 1_655 S
C375 C374 1.391 . S
C375 C377 1.387 . S
C376 C373 1.398 . S
C376 C377 1.380 . S
C376 H390 0.930 . S
C377 C375 1.387 . S
C377 C376 1.380 . S
C377 H391 0.930 . S
C378 O358 1.254 1_545 S
C378 O359 1.268 . S
C379 O363 1.284 . S
C379 O366 1.250 1_655 S
C380 Gd313 2.828 . S
C380 O362 1.258 . S
C380 O367 1.252 . S
C380 C381 1.497 . S
C381 C380 1.497 . S
C381 C382 1.395 . S
C381 C383 1.380 . S
C382 C381 1.395 . S
C382 C385 1.398 . S
C382 H392 0.930 . S
C383 C381 1.380 . S
C383 C384 1.391 . S
C383 H393 0.967 . S
C384 C383 1.391 . S
C384 C386 1.387 . S
C385 C382 1.398 . S
C385 C386 1.380 . S
C385 H394 0.930 . S
C386 C384 1.387 . S
C386 C385 1.380 . S
C386 H395 0.930 . S
C387 O364 1.254 . S
C387 O365 1.268 1_545 S
H388 C373 0.930 . S
H389 C374 0.930 1_455 S
H390 C376 0.930 . S
H391 C377 0.930 . S
H392 C382 0.930 . S
H393 C383 0.967 . S
H394 C385 0.930 . S
H395 C386 0.930 . S
Gd396 N427 2.661 . S
Gd396 N433 2.601 . S
Gd396 O440 2.545 . S
Gd396 O441 2.606 1_565 S
Gd396 O443 2.429 . S
Gd396 O444 2.545 1_565 S
Gd396 O445 2.412 . S
Gd396 O447 2.362 . S
Gd396 O448 2.324 1_565 S
Gd396 C455 2.828 . S
Gd397 N406 2.661 . S
Gd397 N410 2.601 . S
Gd397 O441 2.362 . S
Gd397 O442 2.324 1_545 S
Gd397 O446 2.545 . S
Gd397 O447 2.606 1_545 S
Gd397 O449 2.429 . S
Gd397 O450 2.545 . S
Gd397 O451 2.412 . S
Gd397 C464 2.828 . S
C398 C401 1.417 . S
C398 C403 1.431 . S
C398 C404 1.412 . S
C399 C402 1.437 . S
C399 C403 1.317 . S
C399 H418 0.929 . S
C400 C401 1.426 . S
C400 C402 1.413 . S
C400 N410 1.359 . S
C401 C398 1.417 . S
C401 C400 1.426 . S
C401 N406 1.350 . S
C402 C399 1.437 . S
C402 C400 1.413 . S
C402 C412 1.391 . S
C403 C398 1.431 . S
C403 C399 1.317 . S
C403 H414 0.930 . S
C404 C398 1.412 . S
C404 C405 1.355 . S
C404 H416 0.930 . S
C405 C404 1.355 . S
C405 C407 1.402 . S
C405 H417 0.930 1_545 S
N406 Gd397 2.661 . S
N406 C401 1.350 . S
N406 C407 1.307 . S
C407 C405 1.402 . S
C407 N406 1.307 . S
C407 H408 0.930 1_545 S
H408 C407 0.930 1_565 S
C409 N410 1.334 . S
C409 C411 1.394 . S
C409 H413 0.930 . S
N410 Gd397 2.601 . S
N410 C400 1.359 . S
N410 C409 1.334 . S
C411 C409 1.394 . S
C411 C412 1.359 . S
C411 H423 0.930 . S
C412 C402 1.391 . S
C412 C411 1.359 . S
C412 H424 0.929 . S
H413 C409 0.930 . S
H414 C403 0.930 . S
H415 C432 0.930 . S
H416 C404 0.930 . S
H417 C405 0.930 1_565 S
H418 C399 0.929 . S
H419 C437 0.930 . S
H420 C428 0.930 . S
H421 C429 0.930 . S
H422 C453 0.929 . S
H423 C411 0.930 . S
H424 C412 0.929 . S
H425 C454 0.930 . S
H426 C435 0.930 . S
N427 Gd396 2.661 . S
N427 C431 1.350 . S
N427 C432 1.307 1_565 S
C428 H420 0.930 . S
C428 C429 1.355 1_565 S
C428 C430 1.412 . S
C429 H421 0.930 . S
C429 C428 1.355 1_545 S
C429 C432 1.402 . S
C430 C428 1.412 . S
C430 C431 1.417 . S
C430 C454 1.431 . S
C431 N427 1.350 . S
C431 C430 1.417 . S
C431 C434 1.426 . S
C432 H415 0.930 . S
C432 N427 1.307 1_545 S
C432 C429 1.402 . S
N433 Gd396 2.601 . S
N433 C434 1.359 . S
N433 C437 1.334 . S
C434 C431 1.426 . S
C434 N433 1.359 . S
C434 C438 1.413 . S
C435 H426 0.930 . S
C435 C436 1.359 . S
C435 C437 1.394 . S
C436 C435 1.359 . S
C436 C438 1.391 . S
C436 H439 0.929 . S
C437 H419 0.930 . S
C437 N433 1.334 . S
C437 C435 1.394 . S
C438 C434 1.413 . S
C438 C436 1.391 . S
C438 C453 1.437 . S
H439 C436 0.929 . S
O440 Gd396 2.545 . S
O440 C455 1.258 . S
O441 Gd396 2.606 1_545 S
O441 Gd397 2.362 . S
O441 C452 1.284 . S
O442 Gd397 2.324 1_565 S
O442 C462 1.254 . S
O443 Gd396 2.429 . S
O443 C462 1.268 . S
O444 Gd396 2.545 1_545 S
O444 C452 1.250 . S
O445 Gd396 2.412 . S
O445 C455 1.252 . S
O446 Gd397 2.545 . S
O446 C464 1.258 . S
O447 Gd396 2.362 . S
O447 Gd397 2.606 1_565 S
O447 C463 1.284 . S
O448 Gd396 2.324 1_545 S
O448 C471 1.254 . S
O449 Gd397 2.429 . S
O449 C471 1.268 . S
O450 Gd397 2.545 . S
O450 C463 1.250 1_545 S
O451 Gd397 2.412 . S
O451 C464 1.252 . S
C452 O441 1.284 . S
C452 O444 1.250 . S
C453 H422 0.929 . S
C453 C438 1.437 . S
C453 C454 1.317 . S
C454 H425 0.930 . S
C454 C430 1.431 . S
C454 C453 1.317 . S
C455 Gd396 2.828 . S
C455 O440 1.258 . S
C455 O445 1.252 . S
C455 C456 1.497 . S
C456 C455 1.497 . S
C456 C457 1.395 . S
C456 C458 1.380 . S
C457 C456 1.395 . S
C457 C460 1.398 . S
C457 H472 0.930 . S
C458 C456 1.380 . S
C458 C459 1.391 . S
C458 H473 0.930 1_565 S
C459 C458 1.391 . S
C459 C461 1.387 . S
C460 C457 1.398 . S
C460 C461 1.380 . S
C460 H474 0.930 . S
C461 C459 1.387 . S
C461 C460 1.380 . S
C461 H475 0.930 . S
C462 O442 1.254 . S
C462 O443 1.268 . S
C463 O447 1.284 . S
C463 O450 1.250 1_565 S
C464 Gd397 2.828 . S
C464 O446 1.258 . S
C464 O451 1.252 . S
C464 C465 1.497 . S
C465 C464 1.497 . S
C465 C466 1.395 . S
C465 C467 1.380 . S
C466 C465 1.395 . S
C466 C469 1.398 . S
C466 H476 0.930 . S
C467 C465 1.380 . S
C467 C468 1.391 . S
C467 H477 0.930 . S
C468 C467 1.391 . S
C468 C470 1.387 . S
C469 C466 1.398 . S
C469 C470 1.380 . S
C469 H478 0.930 . S
C470 C468 1.387 . S
C470 C469 1.380 . S
C470 H479 0.930 . S
C471 O448 1.254 . S
C471 O449 1.268 . S
H472 C457 0.930 . S
H473 C458 0.930 1_545 S
H474 C460 0.930 . S
H475 C461 0.930 . S
H476 C466 0.930 . S
H477 C467 0.930 . S
H478 C469 0.930 . S
H479 C470 0.930 . S
Gd480 N511 2.661 . S
Gd480 N517 2.601 . S
Gd480 O524 2.545 . S
Gd480 O525 2.606 . S
Gd480 O527 2.429 . S
Gd480 O528 2.545 . S
Gd480 O529 2.412 . S
Gd480 O531 2.362 . S
Gd480 O532 2.324 . S
Gd480 C539 2.828 . S
Gd481 N490 2.661 . S
Gd481 N494 2.601 . S
Gd481 O525 2.362 . S
Gd481 O526 2.324 . S
Gd481 O530 2.545 . S
Gd481 O531 2.606 . S
Gd481 O533 2.429 . S
Gd481 O534 2.545 . S
Gd481 O535 2.412 . S
Gd481 C548 2.828 . S
C482 C485 1.417 . S
C482 C487 1.431 . S
C482 C488 1.412 . S
C483 C486 1.437 . S
C483 C487 1.317 . S
C483 H502 0.929 . S
C484 C485 1.426 . S
C484 C486 1.413 . S
C484 N494 1.359 . S
C485 C482 1.417 . S
C485 C484 1.426 . S
C485 N490 1.350 . S
C486 C483 1.437 . S
C486 C484 1.413 . S
C486 C496 1.391 . S
C487 C482 1.431 . S
C487 C483 1.317 . S
C487 H498 0.930 . S
C488 C482 1.412 . S
C488 C489 1.355 . S
C488 H500 0.930 . S
C489 C488 1.355 . S
C489 C491 1.402 . S
C489 H501 0.930 . S
N490 Gd481 2.661 . S
N490 C485 1.350 . S
N490 C491 1.307 . S
C491 C489 1.402 . S
C491 N490 1.307 . S
C491 H492 0.930 . S
H492 C491 0.930 . S
C493 N494 1.334 . S
C493 C495 1.394 . S
C493 H497 0.930 . S
N494 Gd481 2.601 . S
N494 C484 1.359 . S
N494 C493 1.334 . S
C495 C493 1.394 . S
C495 C496 1.359 . S
C495 H507 0.930 . S
C496 C486 1.391 . S
C496 C495 1.359 . S
C496 H508 0.929 . S
H497 C493 0.930 . S
H498 C487 0.930 . S
H499 C516 0.930 . S
H500 C488 0.930 . S
H501 C489 0.930 . S
H502 C483 0.929 . S
H503 C521 0.930 . S
H504 C512 0.930 . S
H505 C513 0.930 . S
H506 C537 0.929 . S
H507 C495 0.930 . S
H508 C496 0.929 . S
H509 C538 0.930 . S
H510 C519 0.930 . S
N511 Gd480 2.661 . S
N511 C515 1.350 . S
N511 C516 1.307 . S
C512 H504 0.930 . S
C512 C513 1.355 . S
C512 C514 1.412 . S
C513 H505 0.930 . S
C513 C512 1.355 . S
C513 C516 1.402 . S
C514 C512 1.412 . S
C514 C515 1.417 . S
C514 C538 1.431 . S
C515 N511 1.350 . S
C515 C514 1.417 . S
C515 C518 1.426 . S
C516 H499 0.930 . S
C516 N511 1.307 . S
C516 C513 1.402 . S
N517 Gd480 2.601 . S
N517 C518 1.359 . S
N517 C521 1.334 . S
C518 C515 1.426 . S
C518 N517 1.359 . S
C518 C522 1.413 . S
C519 H510 0.930 . S
C519 C520 1.359 . S
C519 C521 1.394 . S
C520 C519 1.359 . S
C520 C522 1.391 . S
C520 H523 0.929 . S
C521 H503 0.930 . S
C521 N517 1.334 . S
C521 C519 1.394 . S
C522 C518 1.413 . S
C522 C520 1.391 . S
C522 C537 1.437 . S
H523 C520 0.929 . S
O524 Gd480 2.545 . S
O524 C539 1.258 . S
O525 Gd480 2.606 . S
O525 Gd481 2.362 . S
O525 C536 1.284 . S
O526 Gd481 2.324 . S
O526 C546 1.254 . S
O527 Gd480 2.429 . S
O527 C546 1.268 . S
O528 Gd480 2.545 . S
O528 C536 1.250 . S
O529 Gd480 2.412 . S
O529 C539 1.252 . S
O530 Gd481 2.545 . S
O530 C548 1.258 . S
O531 Gd480 2.362 . S
O531 Gd481 2.606 . S
O531 C547 1.284 . S
O532 Gd480 2.324 . S
O532 C555 1.254 . S
O533 Gd481 2.429 . S
O533 C555 1.268 . S
O534 Gd481 2.545 . S
O534 C547 1.250 . S
O535 Gd481 2.412 . S
O535 C548 1.252 . S
C536 O525 1.284 . S
C536 O528 1.250 . S
C537 H506 0.929 . S
C537 C522 1.437 . S
C537 C538 1.317 . S
C538 H509 0.930 . S
C538 C514 1.431 . S
C538 C537 1.317 . S
C539 Gd480 2.828 . S
C539 O524 1.258 . S
C539 O529 1.252 . S
C539 C540 1.497 . S
C540 C539 1.497 . S
C540 C541 1.395 . S
C540 C542 1.380 . S
C541 C540 1.395 . S
C541 C544 1.398 . S
C541 H556 0.930 . S
C542 C540 1.380 . S
C542 C543 1.391 . S
C542 H557 0.930 . S
C543 C542 1.391 . S
C543 C545 1.387 . S
C544 C541 1.398 . S
C544 C545 1.380 . S
C544 H558 0.930 1_556 S
C545 C543 1.387 . S
C545 C544 1.380 . S
C545 H559 0.930 1_556 S
C546 O526 1.254 . S
C546 O527 1.268 . S
C547 O531 1.284 . S
C547 O534 1.250 . S
C548 Gd481 2.828 . S
C548 O530 1.258 . S
C548 O535 1.252 . S
C548 C549 1.497 . S
C549 C548 1.497 . S
C549 C550 1.395 . S
C549 C551 1.380 . S
C550 C549 1.395 . S
C550 C553 1.398 . S
C550 H560 0.930 . S
C551 C549 1.380 . S
C551 C552 1.391 . S
C551 H561 0.930 . S
C552 C551 1.391 . S
C552 C554 1.387 . S
C553 C550 1.398 . S
C553 C554 1.380 . S
C553 H562 0.930 . S
C554 C552 1.387 . S
C554 C553 1.380 . S
C554 H563 0.930 . S
C555 O532 1.254 . S
C555 O533 1.268 . S
H556 C541 0.930 . S
H557 C542 0.930 . S
H558 C544 0.930 1_554 S
H559 C545 0.930 1_554 S
H560 C550 0.930 . S
H561 C551 0.930 . S
H562 C553 0.930 . S
H563 C554 0.930 . S
Gd564 N595 2.661 . S
Gd564 N601 2.601 . S
Gd564 O608 2.545 . S
Gd564 O609 2.607 . S
Gd564 O611 2.429 1_655 S
Gd564 O612 2.545 . S
Gd564 O613 2.412 . S
Gd564 O615 2.362 1_655 S
Gd564 O616 2.324 . S
Gd564 C623 2.828 . S
Gd565 N574 2.661 . S
Gd565 N578 2.601 . S
Gd565 O609 2.361 1_455 S
Gd565 O610 2.324 . S
Gd565 O614 2.545 . S
Gd565 O615 2.606 . S
Gd565 O617 2.429 1_455 S
Gd565 O618 2.545 . S
Gd565 O619 2.412 . S
Gd565 C632 2.828 . S
C566 C569 1.417 . S
C566 C571 1.431 . S
C566 C572 1.412 . S
C567 C570 1.437 . S
C567 C571 1.317 . S
C567 H586 0.929 . S
C568 C569 1.426 . S
C568 C570 1.413 . S
C568 N578 1.359 . S
C569 C566 1.417 . S
C569 C568 1.426 . S
C569 N574 1.350 . S
C570 C567 1.437 . S
C570 C568 1.413 . S
C570 C580 1.391 . S
C571 C566 1.431 . S
C571 C567 1.317 . S
C571 H582 0.930 . S
C572 C566 1.412 . S
C572 C573 1.355 . S
C572 H584 0.930 . S
C573 C572 1.355 . S
C573 C575 1.402 . S
C573 H585 0.930 . S
N574 Gd565 2.661 . S
N574 C569 1.350 . S
N574 C575 1.307 . S
C575 C573 1.402 . S
C575 N574 1.307 . S
C575 H576 0.930 . S
H576 C575 0.930 . S
C577 N578 1.360 . S
C577 C579 1.391 1_455 S
C577 H581 0.909 1_455 S
N578 Gd565 2.601 . S
N578 C568 1.359 . S
N578 C577 1.360 . S
C579 C577 1.391 1_655 S
C579 C580 1.359 1_655 S
C579 H591 0.930 . S
C580 C570 1.391 . S
C580 C579 1.359 1_455 S
C580 H592 0.929 . S
H581 C577 0.909 1_655 S
H582 C571 0.930 . S
H583 C600 0.930 . S
H584 C572 0.930 . S
H585 C573 0.930 . S
H586 C567 0.929 . S
H587 C605 0.930 . S
H588 C596 0.930 . S
H589 C597 0.930 . S
H590 C621 0.929 . S
H591 C579 0.930 . S
H592 C580 0.929 . S
H593 C622 0.930 . S
H594 C603 0.930 . S
N595 Gd564 2.661 . S
N595 C599 1.350 . S
N595 C600 1.307 . S
C596 H588 0.930 . S
C596 C597 1.355 . S
C596 C598 1.412 . S
C597 H589 0.930 . S
C597 C596 1.355 . S
C597 C600 1.402 . S
C598 C596 1.412 . S
C598 C599 1.417 . S
C598 C622 1.431 . S
C599 N595 1.350 . S
C599 C598 1.417 . S
C599 C602 1.426 . S
C600 H583 0.930 . S
C600 N595 1.307 . S
C600 C597 1.402 . S
N601 Gd564 2.601 . S
N601 C602 1.359 . S
N601 C605 1.334 1_655 S
C602 C599 1.426 . S
C602 N601 1.359 . S
C602 C606 1.413 . S
C603 H594 0.930 . S
C603 C604 1.359 1_455 S
C603 C605 1.394 . S
C604 C603 1.359 1_655 S
C604 C606 1.391 . S
C604 H607 0.927 1_655 S
C605 H587 0.930 . S
C605 N601 1.334 1_455 S
C605 C603 1.394 . S
C606 C602 1.413 . S
C606 C604 1.391 . S
C606 C621 1.437 . S
H607 C604 0.927 1_455 S
O608 Gd564 2.545 . S
O608 C623 1.258 . S
O609 Gd564 2.607 . S
O609 Gd565 2.361 1_655 S
O609 C620 1.285 . S
O610 Gd565 2.324 . S
O610 C630 1.254 . S
O611 Gd564 2.429 1_455 S
O611 C630 1.268 . S
O612 Gd564 2.545 . S
O612 C620 1.250 . S
O613 Gd564 2.412 . S
O613 C623 1.252 . S
O614 Gd565 2.545 . S
O614 C632 1.258 . S
O615 Gd564 2.362 1_455 S
O615 Gd565 2.606 . S
O615 C631 1.284 . S
O616 Gd564 2.324 . S
O616 C639 1.254 . S
O617 Gd565 2.429 1_655 S
O617 C639 1.268 . S
O618 Gd565 2.545 . S
O618 C631 1.250 . S
O619 Gd565 2.412 . S
O619 C632 1.252 . S
C620 O609 1.285 . S
C620 O612 1.250 . S
C621 H590 0.929 . S
C621 C606 1.437 . S
C621 C622 1.317 . S
C622 H593 0.930 . S
C622 C598 1.431 . S
C622 C621 1.317 . S
C623 Gd564 2.828 . S
C623 O608 1.258 . S
C623 O613 1.252 . S
C623 C624 1.497 . S
C624 C623 1.497 . S
C624 C625 1.395 . S
C624 C626 1.380 . S
C625 C624 1.395 . S
C625 C628 1.398 . S
C625 H640 0.930 . S
C626 C624 1.380 . S
C626 C627 1.391 . S
C626 H641 0.930 . S
C627 C626 1.391 . S
C627 C629 1.387 . S
C628 C625 1.398 . S
C628 C629 1.380 . S
C628 H642 0.930 1_556 S
C629 C627 1.387 . S
C629 C628 1.380 . S
C629 H643 0.930 1_556 S
C630 O610 1.254 . S
C630 O611 1.268 . S
C631 O615 1.284 . S
C631 O618 1.250 . S
C632 Gd565 2.828 . S
C632 O614 1.258 . S
C632 O619 1.252 . S
C632 C633 1.497 . S
C633 C632 1.497 . S
C633 C634 1.395 . S
C633 C635 1.380 . S
C634 C633 1.395 . S
C634 C637 1.398 . S
C634 H644 0.930 . S
C635 C633 1.380 . S
C635 C636 1.391 . S
C635 H645 0.930 . S
C636 C635 1.391 . S
C636 C638 1.387 . S
C637 C634 1.398 . S
C637 C638 1.380 . S
C637 H646 0.930 . S
C638 C636 1.387 . S
C638 C637 1.380 . S
C638 H647 0.930 . S
C639 O616 1.254 . S
C639 O617 1.268 . S
H640 C625 0.930 . S
H641 C626 0.930 . S
H642 C628 0.930 1_554 S
H643 C629 0.930 1_554 S
H644 C634 0.930 . S
H645 C635 0.930 . S
H646 C637 0.930 . S
H647 C638 0.930 . S
H648 C654 0.930 . S
H649 C657 0.930 . S
H650 C658 0.930 1_565 S
H651 C659 0.885 1_565 S
H652 C662 0.930 . S
H653 C663 0.930 . S
C654 H648 0.930 . S
C654 C655 1.355 . S
C654 C656 1.415 . S
C655 C654 1.355 . S
C655 C657 1.419 . S
C656 C654 1.415 . S
C656 C661 1.425 . S
C656 C663 1.409 . S
C657 H649 0.930 . S
C657 C655 1.419 . S
C657 C658 1.362 . S
C658 H650 0.930 1_545 S
C658 C657 1.362 . S
C658 C661 1.409 . S
C659 H651 0.885 1_545 S
C659 C660 1.355 . S
C659 C661 1.415 . S
C660 C659 1.355 . S
C660 C662 1.419 . S
C661 C656 1.425 . S
C661 C658 1.409 . S
C661 C659 1.415 . S
C662 H652 0.930 . S
C662 C660 1.419 . S
C662 C663 1.362 . S
C663 H653 0.930 . S
C663 C656 1.409 . S
C663 C662 1.362 . S
H664 C670 0.930 . S
H665 C673 0.930 . S
H666 C674 0.930 . S
H667 C675 0.930 . S
H668 C678 0.930 . S
H669 C679 0.930 . S
C670 H664 0.930 . S
C670 C671 1.355 . S
C670 C672 1.415 . S
C671 C670 1.355 . S
C671 C673 1.419 . S
C672 C670 1.415 . S
C672 C677 1.425 . S
C672 C679 1.409 . S
C673 H665 0.930 . S
C673 C671 1.419 . S
C673 C674 1.362 . S
C674 H666 0.930 . S
C674 C673 1.362 . S
C674 C677 1.409 . S
C675 H667 0.930 . S
C675 C676 1.355 . S
C675 C677 1.415 . S
C676 C675 1.355 . S
C676 C678 1.419 . S
C677 C672 1.425 . S
C677 C674 1.409 . S
C677 C675 1.415 . S
C678 H668 0.930 . S
C678 C676 1.419 . S
C678 C679 1.362 . S
C679 H669 0.930 . S
C679 C672 1.409 . S
C679 C678 1.362 . S
H680 C686 0.930 . S
H681 C689 0.930 . S
H682 C690 0.930 . S
H683 C691 0.930 . S
H684 C694 0.930 . S
H685 C695 0.930 . S
C686 H680 0.930 . S
C686 C687 1.355 . S
C686 C688 1.415 . S
C687 C686 1.355 . S
C687 C689 1.419 . S
C688 C686 1.415 . S
C688 C693 1.425 . S
C688 C695 1.409 . S
C689 H681 0.930 . S
C689 C687 1.419 . S
C689 C690 1.362 . S
C690 H682 0.930 . S
C690 C689 1.362 . S
C690 C693 1.409 . S
C691 H683 0.930 . S
C691 C692 1.355 . S
C691 C693 1.415 . S
C692 C691 1.355 . S
C692 C694 1.419 . S
C693 C688 1.425 . S
C693 C690 1.409 . S
C693 C691 1.415 . S
C694 H684 0.930 . S
C694 C692 1.419 . S
C694 C695 1.362 . S
C695 H685 0.930 . S
C695 C688 1.409 . S
C695 C694 1.362 . S
H696 C702 0.930 . S
H697 C705 0.930 . S
H698 C706 0.930 . S
H699 C707 0.930 . S
H700 C710 0.930 1_655 S
H701 C711 0.930 1_655 S
C702 H696 0.930 . S
C702 C703 1.355 . S
C702 C704 1.415 . S
C703 C702 1.355 . S
C703 C705 1.419 . S
C704 C702 1.415 . S
C704 C709 1.425 . S
C704 C711 1.409 . S
C705 H697 0.930 . S
C705 C703 1.419 . S
C705 C706 1.362 . S
C706 H698 0.930 . S
C706 C705 1.362 . S
C706 C709 1.409 . S
C707 H699 0.930 . S
C707 C708 1.355 . S
C707 C709 1.415 . S
C708 C707 1.355 . S
C708 C710 1.419 . S
C709 C704 1.425 . S
C709 C706 1.409 . S
C709 C707 1.415 . S
C710 H700 0.930 1_455 S
C710 C708 1.419 . S
C710 C711 1.362 . S
C711 H701 0.930 1_455 S
C711 C704 1.409 . S
C711 C710 1.362 . S
H712 C718 0.930 . S
H713 C721 0.930 . S
H714 C722 0.930 1_545 S
H715 C723 0.930 1_545 S
H716 C726 0.930 . S
H717 C727 0.930 . S
C718 H712 0.930 . S
C718 C719 1.355 . S
C718 C720 1.415 1_554 S
C719 C718 1.355 . S
C719 C721 1.419 . S
C720 C718 1.415 1_556 S
C720 C725 1.425 . S
C720 C727 1.409 . S
C721 H713 0.930 . S
C721 C719 1.419 . S
C721 C722 1.362 1_554 S
C722 H714 0.930 1_565 S
C722 C721 1.362 1_556 S
C722 C725 1.409 . S
C723 H715 0.930 1_565 S
C723 C724 1.355 . S
C723 C725 1.415 . S
C724 C723 1.355 . S
C724 C726 1.419 . S
C725 C720 1.425 . S
C725 C722 1.409 . S
C725 C723 1.415 . S
C726 H716 0.930 . S
C726 C724 1.419 . S
C726 C727 1.362 . S
C727 H717 0.930 . S
C727 C720 1.409 . S
C727 C726 1.362 . S
H728 C734 0.930 . S
H729 C737 0.930 . S
H730 C738 0.930 . S
H731 C739 0.930 . S
H732 C742 0.930 . S
H733 C743 0.930 . S
C734 H728 0.930 . S
C734 C735 1.355 . S
C734 C736 1.415 1_554 S
C735 C734 1.355 . S
C735 C737 1.419 . S
C736 C734 1.415 1_556 S
C736 C741 1.425 . S
C736 C743 1.409 . S
C737 H729 0.930 . S
C737 C735 1.419 . S
C737 C738 1.362 1_554 S
C738 H730 0.930 . S
C738 C737 1.362 1_556 S
C738 C741 1.409 . S
C739 H731 0.930 . S
C739 C740 1.355 . S
C739 C741 1.415 . S
C740 C739 1.355 . S
C740 C742 1.419 . S
C741 C736 1.425 . S
C741 C738 1.409 . S
C741 C739 1.415 . S
C742 H732 0.930 . S
C742 C740 1.419 . S
C742 C743 1.362 . S
C743 H733 0.930 . S
C743 C736 1.409 . S
C743 C742 1.362 . S
H744 C750 0.930 . S
H745 C753 0.930 . S
H746 C754 0.930 . S
H747 C755 0.930 . S
H748 C758 0.930 . S
H749 C759 0.930 . S
C750 H744 0.930 . S
C750 C751 1.355 . S
C750 C752 1.415 1_554 S
C751 C750 1.355 . S
C751 C753 1.419 . S
C752 C750 1.415 1_556 S
C752 C757 1.425 . S
C752 C759 1.409 . S
C753 H745 0.930 . S
C753 C751 1.419 . S
C753 C754 1.362 1_554 S
C754 H746 0.930 . S
C754 C753 1.362 1_556 S
C754 C757 1.409 . S
C755 H747 0.930 . S
C755 C756 1.355 . S
C755 C757 1.415 . S
C756 C755 1.355 . S
C756 C758 1.419 . S
C757 C752 1.425 . S
C757 C754 1.409 . S
C757 C755 1.415 . S
C758 H748 0.930 . S
C758 C756 1.419 . S
C758 C759 1.362 . S
C759 H749 0.930 . S
C759 C752 1.409 . S
C759 C758 1.362 . S
H760 C766 0.930 . S
H761 C769 0.930 . S
H762 C770 0.930 . S
H763 C771 0.930 . S
H764 C774 0.931 . S
H765 C775 0.930 1_455 S
C766 H760 0.930 . S
C766 C767 1.355 . S
C766 C768 1.415 1_554 S
C767 C766 1.355 . S
C767 C769 1.419 . S
C768 C766 1.415 1_556 S
C768 C773 1.425 . S
C768 C775 1.409 . S
C769 H761 0.930 . S
C769 C767 1.419 . S
C769 C770 1.362 1_554 S
C770 H762 0.930 . S
C770 C769 1.362 1_556 S
C770 C773 1.409 . S
C771 H763 0.930 . S
C771 C772 1.355 . S
C771 C773 1.415 . S
C772 C771 1.355 . S
C772 C774 1.418 1_655 S
C773 C768 1.425 . S
C773 C770 1.409 . S
C773 C771 1.415 . S
C774 H764 0.931 . S
C774 C772 1.418 1_455 S
C774 C775 1.362 1_455 S
C775 H765 0.930 1_655 S
C775 C768 1.409 . S
C775 C774 1.362 1_655 S
H776 C782 0.930 . S
H777 C785 0.930 . S
H778 C786 0.930 . S
H779 C787 0.930 1_655 S
H780 C790 0.930 . S
H781 C791 0.930 . S
C782 H776 0.930 . S
C782 C783 1.355 . S
C782 C784 1.415 . S
C783 C782 1.355 . S
C783 C785 1.419 . S
C784 C782 1.415 . S
C784 C789 1.425 . S
C784 C791 1.409 . S
C785 H777 0.930 . S
C785 C783 1.419 . S
C785 C786 1.362 . S
C786 H778 0.930 . S
C786 C785 1.362 . S
C786 C789 1.409 . S
C787 H779 0.930 1_455 S
C787 C788 1.355 . S
C787 C789 1.415 . S
C788 C787 1.355 . S
C788 C790 1.419 . S
C789 C784 1.425 . S
C789 C786 1.409 . S
C789 C787 1.415 . S
C790 H780 0.930 . S
C790 C788 1.419 . S
C790 C791 1.362 . S
C791 H781 0.930 . S
C791 C784 1.409 . S
C791 C790 1.362 . S
H792 C798 0.930 . S
H793 C801 0.930 . S
H794 C802 0.930 . S
H795 C803 0.923 1_565 S
H796 C806 0.930 . S
H797 C807 0.930 . S
C798 H792 0.930 . S
C798 C799 1.355 . S
C798 C800 1.415 . S
C799 C798 1.355 . S
C799 C801 1.419 . S
C800 C798 1.415 . S
C800 C805 1.425 . S
C800 C807 1.409 . S
C801 H793 0.930 . S
C801 C799 1.419 . S
C801 C802 1.362 . S
C802 H794 0.930 . S
C802 C801 1.362 . S
C802 C805 1.409 . S
C803 H795 0.923 1_545 S
C803 C804 1.355 . S
C803 C805 1.420 . S
C804 C803 1.355 . S
C804 C806 1.419 . S
C805 C800 1.425 . S
C805 C802 1.409 . S
C805 C803 1.420 . S
C806 H796 0.930 . S
C806 C804 1.419 . S
C806 C807 1.362 . S
C807 H797 0.930 . S
C807 C800 1.409 . S
C807 C806 1.362 . S
H808 C814 0.930 . S
H809 C817 0.930 . S
H810 C818 0.930 . S
H811 C819 0.930 . S
H812 C822 0.930 . S
H813 C823 0.930 . S
C814 H808 0.930 . S
C814 C815 1.355 . S
C814 C816 1.415 . S
C815 C814 1.355 . S
C815 C817 1.419 . S
C816 C814 1.415 . S
C816 C821 1.425 . S
C816 C823 1.409 . S
C817 H809 0.930 . S
C817 C815 1.419 . S
C817 C818 1.362 . S
C818 H810 0.930 . S
C818 C817 1.362 . S
C818 C821 1.409 . S
C819 H811 0.930 . S
C819 C820 1.355 . S
C819 C821 1.415 . S
C820 C819 1.355 . S
C820 C822 1.419 . S
C821 C816 1.425 . S
C821 C818 1.409 . S
C821 C819 1.415 . S
C822 H812 0.930 . S
C822 C820 1.419 . S
C822 C823 1.362 . S
C823 H813 0.930 . S
C823 C816 1.409 . S
C823 C822 1.362 . S
H824 C830 0.930 . S
H825 C833 0.930 . S
H826 C834 0.930 . S
H827 C835 0.930 . S
H828 C838 0.930 . S
H829 C839 0.930 . S
C830 H824 0.930 . S
C830 C831 1.355 . S
C830 C832 1.415 . S
C831 C830 1.355 . S
C831 C833 1.419 . S
C832 C830 1.415 . S
C832 C837 1.425 . S
C832 C839 1.409 . S
C833 H825 0.930 . S
C833 C831 1.419 . S
C833 C834 1.362 . S
C834 H826 0.930 . S
C834 C833 1.362 . S
C834 C837 1.409 . S
C835 H827 0.930 . S
C835 C836 1.355 . S
C835 C837 1.415 . S
C836 C835 1.355 . S
C836 C838 1.419 . S
C837 C832 1.425 . S
C837 C834 1.409 . S
C837 C835 1.415 . S
C838 H828 0.930 . S
C838 C836 1.419 . S
C838 C839 1.362 . S
C839 H829 0.930 . S
C839 C832 1.409 . S
C839 C838 1.362 . S
H840 C846 0.930 . S
H841 C849 0.930 . S
H842 C850 0.930 . S
H843 C851 0.930 . S
H844 C854 0.930 . S
H845 C855 0.930 . S
C846 H840 0.930 . S
C846 C847 1.356 . S
C846 C848 1.415 . S
C847 C846 1.356 . S
C847 C849 1.419 1_556 S
C848 C846 1.415 . S
C848 C853 1.425 . S
C848 C855 1.409 1_655 S
C849 H841 0.930 . S
C849 C847 1.419 1_554 S
C849 C850 1.362 1_554 S
C850 H842 0.930 . S
C850 C849 1.362 1_556 S
C850 C853 1.409 . S
C851 H843 0.930 . S
C851 C852 1.355 1_655 S
C851 C853 1.415 . S
C852 C851 1.355 1_455 S
C852 C854 1.419 . S
C853 C848 1.425 . S
C853 C850 1.409 . S
C853 C851 1.415 . S
C854 H844 0.930 . S
C854 C852 1.419 . S
C854 C855 1.362 . S
C855 H845 0.930 . S
C855 C848 1.409 1_455 S
C855 C854 1.362 . S
H856 C862 0.930 . S
H857 C865 0.930 . S
H858 C866 0.930 1_545 S
H859 C867 0.930 . S
H860 C870 0.930 . S
H861 C871 0.930 . S
C862 H856 0.930 . S
C862 C863 1.355 1_556 S
C862 C864 1.415 . S
C863 C862 1.355 1_554 S
C863 C865 1.419 . S
C864 C862 1.415 . S
C864 C869 1.425 . S
C864 C871 1.409 . S
C865 H857 0.930 . S
C865 C863 1.419 . S
C865 C866 1.362 . S
C866 H858 0.930 1_565 S
C866 C865 1.362 . S
C866 C869 1.409 1_554 S
C867 H859 0.930 . S
C867 C868 1.355 . S
C867 C869 1.415 1_545 S
C868 C867 1.355 . S
C868 C870 1.419 1_545 S
C869 C864 1.425 . S
C869 C866 1.409 1_556 S
C869 C867 1.415 1_565 S
C870 H860 0.930 . S
C870 C868 1.419 1_565 S
C870 C871 1.362 . S
C871 H861 0.930 . S
C871 C864 1.409 . S
C871 C870 1.362 . S
H872 C878 0.930 . S
H873 C881 0.930 . S
H874 C882 0.930 . S
H875 C883 0.930 . S
H876 C886 0.930 . S
H877 C887 0.930 1_554 S
C878 H872 0.930 . S
C878 C879 1.355 1_554 S
C878 C880 1.415 1_554 S
C879 C878 1.355 1_556 S
C879 C881 1.419 . S
C880 C878 1.415 1_556 S
C880 C885 1.425 . S
C880 C887 1.409 . S
C881 H873 0.930 . S
C881 C879 1.419 . S
C881 C882 1.362 . S
C882 H874 0.930 . S
C882 C881 1.362 . S
C882 C885 1.409 . S
C883 H875 0.930 . S
C883 C884 1.355 . S
C883 C885 1.415 . S
C884 C883 1.355 . S
C884 C886 1.419 . S
C885 C880 1.425 . S
C885 C882 1.409 . S
C885 C883 1.415 . S
C886 H876 0.930 . S
C886 C884 1.419 . S
C886 C887 1.362 . S
C887 H877 0.930 1_556 S
C887 C880 1.409 . S
C887 C886 1.362 . S
H888 C894 0.930 1_554 S
H889 C897 0.930 . S
H890 C898 0.930 . S
H891 C899 0.930 . S
H892 C902 0.930 . S
H893 C903 0.930 . S
C894 H888 0.930 1_556 S
C894 C895 1.355 . S
C894 C896 1.415 . S
C895 C894 1.355 . S
C895 C897 1.419 . S
C896 C894 1.415 . S
C896 C901 1.425 . S
C896 C903 1.409 . S
C897 H889 0.930 . S
C897 C895 1.419 . S
C897 C898 1.362 . S
C898 H890 0.930 . S
C898 C897 1.362 . S
C898 C901 1.409 . S
C899 H891 0.930 . S
C899 C900 1.355 . S
C899 C901 1.415 . S
C900 C899 1.355 . S
C900 C902 1.419 . S
C901 C896 1.425 . S
C901 C898 1.409 . S
C901 C899 1.415 . S
C902 H892 0.930 . S
C902 C900 1.419 . S
C902 C903 1.362 . S
C903 H893 0.930 . S
C903 C896 1.409 . S
C903 C902 1.362 . S
H904 C910 0.930 . S
H905 C913 0.930 . S
H906 C914 0.930 . S
H907 C915 0.930 . S
H908 C918 0.913 1_655 S
H909 C919 0.930 . S
C910 H904 0.930 . S
C910 C911 1.355 . S
C910 C912 1.415 . S
C911 C910 1.355 . S
C911 C913 1.419 . S
C912 C910 1.415 . S
C912 C917 1.425 . S
C912 C919 1.409 . S
C913 H905 0.930 . S
C913 C911 1.419 . S
C913 C914 1.362 . S
C914 H906 0.930 . S
C914 C913 1.362 . S
C914 C917 1.409 . S
C915 H907 0.930 . S
C915 C916 1.355 . S
C915 C917 1.415 . S
C916 C915 1.355 . S
C916 C918 1.419 . S
C917 C912 1.425 . S
C917 C914 1.409 . S
C917 C915 1.415 . S
C918 H908 0.913 1_455 S
C918 C916 1.419 . S
C918 C919 1.362 . S
C919 H909 0.930 . S
C919 C912 1.409 . S
C919 C918 1.362 . S
H920 C926 0.930 . S
H921 C929 0.930 . S
H922 C930 0.930 . S
H923 C931 0.930 . S
H924 C934 0.930 . S
H925 C935 0.930 . S
C926 H920 0.930 . S
C926 C927 1.355 . S
C926 C928 1.415 . S
C927 C926 1.355 . S
C927 C929 1.419 . S
C928 C926 1.415 . S
C928 C933 1.425 . S
C928 C935 1.409 . S
C929 H921 0.930 . S
C929 C927 1.419 . S
C929 C930 1.362 . S
C930 H922 0.930 . S
C930 C929 1.362 . S
C930 C933 1.409 . S
C931 H923 0.930 . S
C931 C932 1.355 . S
C931 C933 1.415 . S
C932 C931 1.355 . S
C932 C934 1.419 . S
C933 C928 1.425 . S
C933 C930 1.409 . S
C933 C931 1.415 . S
C934 H924 0.930 . S
C934 C932 1.419 . S
C934 C935 1.362 . S
C935 H925 0.930 . S
C935 C928 1.409 . S
C935 C934 1.362 . S
H936 C942 0.930 . S
H937 C945 0.930 . S
H938 C946 0.930 . S
H939 C947 0.930 . S
H940 C950 0.930 . S
H941 C951 0.930 . S
C942 H936 0.930 . S
C942 C943 1.355 . S
C942 C944 1.415 . S
C943 C942 1.355 . S
C943 C945 1.419 . S
C944 C942 1.415 . S
C944 C949 1.425 . S
C944 C951 1.409 . S
C945 H937 0.930 . S
C945 C943 1.419 . S
C945 C946 1.362 . S
C946 H938 0.930 . S
C946 C945 1.362 . S
C946 C949 1.409 . S
C947 H939 0.930 . S
C947 C948 1.355 . S
C947 C949 1.415 . S
C948 C947 1.355 . S
C948 C950 1.419 . S
C949 C944 1.425 . S
C949 C946 1.409 . S
C949 C947 1.415 . S
C950 H940 0.930 . S
C950 C948 1.419 . S
C950 C951 1.362 . S
C951 H941 0.930 . S
C951 C944 1.409 . S
C951 C950 1.362 . S
H952 C958 0.930 . S
H953 C961 0.930 . S
H954 C962 0.930 . S
H955 C963 0.930 . S
H956 C966 0.930 . S
H957 C967 0.930 . S
C958 H952 0.930 . S
C958 C959 1.355 . S
C958 C960 1.415 . S
C959 C958 1.355 . S
C959 C961 1.419 . S
C960 C958 1.415 . S
C960 C965 1.425 . S
C960 C967 1.409 . S
C961 H953 0.930 . S
C961 C959 1.419 . S
C961 C962 1.362 . S
C962 H954 0.930 . S
C962 C961 1.362 . S
C962 C965 1.409 . S
C963 H955 0.930 . S
C963 C964 1.355 . S
C963 C965 1.415 . S
C964 C963 1.355 . S
C964 C966 1.419 . S
C965 C960 1.425 . S
C965 C962 1.409 . S
C965 C963 1.415 . S
C966 H956 0.930 . S
C966 C964 1.419 . S
C966 C967 1.362 . S
C967 H957 0.930 . S
C967 C960 1.409 . S
C967 C966 1.362 . S
H968 C974 0.930 . S
H969 C977 0.930 . S
H970 C978 0.930 . S
H971 C979 0.930 . S
H972 C982 0.930 . S
H973 C983 0.930 . S
C974 H968 0.930 . S
C974 C975 1.355 . S
C974 C976 1.415 . S
C975 C974 1.355 . S
C975 C977 1.419 . S
C976 C974 1.415 . S
C976 C981 1.425 . S
C976 C983 1.409 . S
C977 H969 0.930 . S
C977 C975 1.419 . S
C977 C978 1.362 . S
C978 H970 0.930 . S
C978 C977 1.362 . S
C978 C981 1.409 . S
C979 H971 0.930 . S
C979 C980 1.355 . S
C979 C981 1.415 . S
C980 C979 1.355 . S
C980 C982 1.419 . S
C981 C976 1.425 . S
C981 C978 1.409 . S
C981 C979 1.415 . S
C982 H972 0.930 . S
C982 C980 1.419 . S
C982 C983 1.362 . S
C983 H973 0.930 . S
C983 C976 1.409 . S
C983 C982 1.362 . S
H984 C990 0.930 . S
H985 C993 0.930 . S
H986 C994 0.930 . S
H987 C995 0.930 . S
H988 C998 0.930 . S
H989 C999 0.930 . S
C990 H984 0.930 . S
C990 C991 1.355 . S
C990 C992 1.415 . S
C991 C990 1.355 . S
C991 C993 1.419 . S
C992 C990 1.415 . S
C992 C997 1.425 . S
C992 C999 1.409 . S
C993 H985 0.930 . S
C993 C991 1.419 . S
C993 C994 1.362 . S
C994 H986 0.930 . S
C994 C993 1.362 . S
C994 C997 1.409 . S
C995 H987 0.930 . S
C995 C996 1.355 . S
C995 C997 1.415 . S
C996 C995 1.355 . S
C996 C998 1.419 . S
C997 C992 1.425 . S
C997 C994 1.409 . S
C997 C995 1.415 . S
C998 H988 0.930 . S
C998 C996 1.419 . S
C998 C999 1.362 . S
C999 H989 0.930 . S
C999 C992 1.409 . S
C999 C998 1.362 . S
H1000 C1006 0.930 . S
H1001 C1009 0.930 . S
H1002 C1010 0.930 . S
H1003 C1011 0.930 . S
H1004 C1014 0.930 . S
H1005 C1015 0.930 . S
C1006 H1000 0.930 . S
C1006 C1007 1.355 . S
C1006 C1008 1.415 . S
C1007 C1006 1.355 . S
C1007 C1009 1.419 . S
C1008 C1006 1.415 . S
C1008 C1013 1.425 . S
C1008 C1015 1.409 . S
C1009 H1001 0.930 . S
C1009 C1007 1.419 . S
C1009 C1010 1.362 . S
C1010 H1002 0.930 . S
C1010 C1009 1.362 . S
C1010 C1013 1.409 . S
C1011 H1003 0.930 . S
C1011 C1012 1.355 . S
C1011 C1013 1.415 . S
C1012 C1011 1.355 . S
C1012 C1014 1.419 . S
C1013 C1008 1.425 . S
C1013 C1010 1.409 . S
C1013 C1011 1.415 . S
C1014 H1004 0.930 . S
C1014 C1012 1.419 . S
C1014 C1015 1.362 . S
C1015 H1005 0.930 . S
C1015 C1008 1.409 . S
C1015 C1014 1.362 . S
H1016 C1022 0.930 . S
H1017 C1025 0.930 . S
H1018 C1026 0.930 . S
H1019 C1027 0.930 . S
H1020 C1030 0.930 . S
H1021 C1031 0.930 . S
C1022 H1016 0.930 . S
C1022 C1023 1.355 . S
C1022 C1024 1.415 . S
C1023 C1022 1.355 . S
C1023 C1025 1.419 . S
C1024 C1022 1.415 . S
C1024 C1029 1.425 . S
C1024 C1031 1.409 . S
C1025 H1017 0.930 . S
C1025 C1023 1.419 . S
C1025 C1026 1.362 . S
C1026 H1018 0.930 . S
C1026 C1025 1.362 . S
C1026 C1029 1.409 . S
C1027 H1019 0.930 . S
C1027 C1028 1.355 . S
C1027 C1029 1.415 . S
C1028 C1027 1.355 . S
C1028 C1030 1.419 . S
C1029 C1024 1.425 . S
C1029 C1026 1.409 . S
C1029 C1027 1.415 . S
C1030 H1020 0.930 . S
C1030 C1028 1.419 . S
C1030 C1031 1.362 . S
C1031 H1021 0.930 . S
C1031 C1024 1.409 . S
C1031 C1030 1.362 . S
C655 C255 2.367 . S
C660 C387 2.497 . S
C676 C471 2.487 . S
C671 C294 2.360 . S
C692 C547 2.351 . S
C687 C177 2.470 . S
C708 C631 2.395 . S
C703 C216 2.516 . S
C724 C378 2.507 1_565 S
C719 C99 2.395 . S
C735 C138 2.359 . S
C740 C462 2.490 . S
C751 C21 2.472 . S
C756 C536 2.330 . S
C767 C60 2.482 . S
C772 C620 2.340 . S
C788 C375 0.830 1_455 S
C783 C196 0.746 . S
C804 C459 0.790 1_545 S
C799 C235 0.670 . S
C820 C552 0.744 . S
C815 C289 0.835 . S
C831 C157 0.808 . S
C836 C636 0.754 . S
C847 C40 0.827 1_556 S
C852 C384 0.812 . S
C868 C468 0.790 . S
C863 C79 0.668 . S
C884 C543 0.754 . S
C879 C133 0.823 1_556 S
C895 C1 0.855 1_556 S
C900 C627 0.824 . S
C911 C211 2.838 . S
C916 C368 3.012 . S
C927 C250 2.839 . S
C932 C452 2.994 . S
C948 C546 3.119 . S
C943 C274 2.703 . S
C964 C630 3.137 . S
C959 C172 2.725 . S
C975 C55 2.821 . S
C980 C379 3.020 . S
C996 C463 3.018 . S
C991 C94 2.854 . S
C1012 C555 3.124 . S
C1007 C118 2.693 . S
C1023 C16 2.713 . S
C1028 C639 3.151 . S
