# Generated by pormake.
# Topology zzz, (3,6)-cn, num edge types: 1
# Building blocks:
#     Node 0, Type 0, BuildingBlock: BETDAH_clean_linker_0, # of connection points: 3
#     Node 1, Type 0, BuildingBlock: BETDAH_clean_linker_0, # of connection points: 3
#     Node 2, Type 0, BuildingBlock: BETDAH_clean_linker_0, # of connection points: 3
#     Node 3, Type 0, BuildingBlock: BETDAH_clean_linker_0, # of connection points: 3
#     Node 4, Type 0, BuildingBlock: BETDAH_clean_linker_0, # of connection points: 3
#     Node 5, Type 0, BuildingBlock: BETDAH_clean_linker_0, # of connection points: 3
#     Node 6, Type 0, BuildingBlock: BETDAH_clean_linker_0, # of connection points: 3
#     Node 7, Type 0, BuildingBlock: BETDAH_clean_linker_0, # of connection points: 3
#     Node 8, Type 1, BuildingBlock: BETDEL_clean_sbu_0, # of connection points: 6
#     Node 9, Type 1, BuildingBlock: BETDEL_clean_sbu_0, # of connection points: 6
#     Node 10, Type 1, BuildingBlock: BETDEL_clean_sbu_0, # of connection points: 6
#     Node 11, Type 1, BuildingBlock: BETDEL_clean_sbu_0, # of connection points: 6
#     Edge 12, Type (0, 1), BuildingBlock: XIVTED_clean_linker_0, # of connection points: 2
#     Edge 13, Type (0, 1), BuildingBlock: XIVTED_clean_linker_0, # of connection points: 2
#     Edge 14, Type (0, 1), BuildingBlock: XIVTED_clean_linker_0, # of connection points: 2
#     Edge 15, Type (0, 1), BuildingBlock: XIVTED_clean_linker_0, # of connection points: 2
#     Edge 16, Type (0, 1), BuildingBlock: XIVTED_clean_linker_0, # of connection points: 2
#     Edge 17, Type (0, 1), BuildingBlock: XIVTED_clean_linker_0, # of connection points: 2
#     Edge 18, Type (0, 1), BuildingBlock: XIVTED_clean_linker_0, # of connection points: 2
#     Edge 19, Type (0, 1), BuildingBlock: XIVTED_clean_linker_0, # of connection points: 2
#     Edge 20, Type (0, 1), BuildingBlock: XIVTED_clean_linker_0, # of connection points: 2
#     Edge 21, Type (0, 1), BuildingBlock: XIVTED_clean_linker_0, # of connection points: 2
#     Edge 22, Type (0, 1), BuildingBlock: XIVTED_clean_linker_0, # of connection points: 2
#     Edge 23, Type (0, 1), BuildingBlock: XIVTED_clean_linker_0, # of connection points: 2
#     Edge 24, Type (0, 1), BuildingBlock: XIVTED_clean_linker_0, # of connection points: 2
#     Edge 25, Type (0, 1), BuildingBlock: XIVTED_clean_linker_0, # of connection points: 2
#     Edge 26, Type (0, 1), BuildingBlock: XIVTED_clean_linker_0, # of connection points: 2
#     Edge 27, Type (0, 1), BuildingBlock: XIVTED_clean_linker_0, # of connection points: 2
#     Edge 28, Type (0, 1), BuildingBlock: XIVTED_clean_linker_0, # of connection points: 2
#     Edge 29, Type (0, 1), BuildingBlock: XIVTED_clean_linker_0, # of connection points: 2
#     Edge 30, Type (0, 1), BuildingBlock: XIVTED_clean_linker_0, # of connection points: 2
#     Edge 31, Type (0, 1), BuildingBlock: XIVTED_clean_linker_0, # of connection points: 2
#     Edge 32, Type (0, 1), BuildingBlock: XIVTED_clean_linker_0, # of connection points: 2
#     Edge 33, Type (0, 1), BuildingBlock: XIVTED_clean_linker_0, # of connection points: 2
#     Edge 34, Type (0, 1), BuildingBlock: XIVTED_clean_linker_0, # of connection points: 2
#     Edge 35, Type (0, 1), BuildingBlock: XIVTED_clean_linker_0, # of connection points: 2
# Relax obj value: 0.158
# Max RMSD: 0.176
# Mean RMSD: 0.116
data_MOF--net-zzz--node1-BETDEL_clean_sbu_0--node2-BETDAH_clean_linker_0--edge1-XIVTED_clean_linker_0
_symmetry_space_group_name_H-M    P1
_symmetry_Int_Tables_number       1
_symmetry_cell_setting            triclinic
loop_
_symmetry_equiv_pos_as_xyz
'x, y, z'
_cell_length_a     49.8569
_cell_length_b     50.961623
_cell_length_c     15.088242
_cell_angle_alpha  91.551559
_cell_angle_beta   88.294734
_cell_angle_gamma 95.048748
loop_
_atom_site_label
_atom_site_type_symbol
_atom_site_fract_x
_atom_site_fract_y
_atom_site_fract_z
_atom_type_partial_charge
H0 H 0.81586 0.50262 0.10407 0.0
H1 H 0.73839 0.50559 -0.0094 0.0
H2 H 0.75497 0.54183 0.24829 0.0
C3 C 0.79527 0.50804 0.1099 0.0
C4 C 0.78756 0.52289 0.18359 0.0
C5 C 0.77775 0.5017 0.04056 0.0
C6 C 0.75159 0.50985 0.04584 0.0
C7 C 0.74296 0.52385 0.12224 0.0
C8 C 0.76115 0.53034 0.19095 0.0
N9 N 0.71661 0.53245 0.13087 0.0
C10 C 0.6974 0.52885 0.06552 0.0
H11 H 0.97979 0.81913 0.04678 0.0
H12 H 0.99326 0.74023 0.96437 0.0
H13 H 0.95911 0.75593 0.22559 0.0
C14 C 0.97801 0.79823 0.06061 0.0
C15 C 0.9677 0.78971 0.1428 0.0
C16 C 0.98742 0.78066 -0.003 0.0
C17 C 0.98591 0.7537 0.01423 0.0
C18 C 0.97526 0.74457 0.09693 0.0
C19 C 0.96669 0.76278 0.16146 0.0
N20 N 0.97317 0.71742 0.11776 0.0
C21 C 0.97777 0.69736 0.05631 0.0
H22 H 0.69265 0.01719 0.09385 0.0
H23 H 0.76815 1.00242 0.96634 0.0
H24 H 0.74533 0.96844 0.21985 0.0
C25 C 0.71189 0.00877 0.09498 0.0
C26 C 0.71707 0.99299 0.16568 0.0
C27 C 0.73001 0.01212 0.02268 0.0
C28 C 0.75428 1.00007 0.02276 0.0
C29 C 0.76022 0.98468 0.09504 0.0
C30 C 0.74122 0.9808 0.16542 0.0
N31 N 0.78474 0.97248 0.09827 0.0
C32 C 0.80579 0.97622 0.03592 0.0
H33 H 0.50964 0.69208 0.10913 0.0
H34 H 0.51055 0.76924 0.00209 0.0
H35 H 0.55263 0.75742 0.24268 0.0
C36 C 0.51537 0.71312 0.11457 0.0
C37 C 0.53206 0.72269 0.18269 0.0
C38 C 0.50745 0.72969 0.04983 0.0
C39 C 0.51599 0.75665 0.05411 0.0
C40 C 0.53188 0.76694 0.12526 0.0
C41 C 0.53978 0.74979 0.18955 0.0
N42 N 0.54098 0.79412 0.13273 0.0
C43 C 0.53679 0.81272 0.06982 0.0
H44 H 0.19782 0.5093 0.03127 0.0
H45 H 0.27509 0.50664 0.14629 0.0
H46 H 0.25965 0.47171 0.88599 0.0
C47 C 0.2185 0.50414 0.0256 0.0
C48 C 0.22661 0.48981 0.95116 0.0
C49 C 0.23577 0.51029 0.09571 0.0
C50 C 0.26207 0.50252 0.09051 0.0
C51 C 0.27109 0.48907 0.01343 0.0
C52 C 0.25316 0.48277 0.94391 0.0
N53 N 0.29759 0.48086 0.00486 0.0
C54 C 0.31658 0.48437 0.0709 0.0
H55 H 1.0021 0.19533 0.05289 0.0
H56 H 0.02301 0.27148 0.17042 0.0
H57 H 0.03134 0.2592 0.88644 0.0
C58 C 0.00825 0.21613 0.04484 0.0
C59 C 0.01564 0.22535 0.96061 0.0
C60 C 0.0111 0.23243 0.12027 0.0
C61 C 0.02039 0.25903 0.1115 0.0
C62 C 0.02697 0.26903 0.02622 0.0
C63 C 0.02526 0.25187 0.95141 0.0
N64 N 0.03609 0.29591 0.01357 0.0
C65 C 0.03429 0.31557 0.07866 0.0
H66 H 0.32413 0.9932 0.03189 0.0
H67 H 0.25018 0.01054 0.16405 0.0
H68 H 0.27371 0.04575 0.913 0.0
C69 C 0.30541 1.00259 0.0321 0.0
C70 C 0.30088 0.01936 0.96338 0.0
C71 C 0.28743 0.99953 0.10477 0.0
C72 C 0.26384 0.01267 0.10705 0.0
C73 C 0.25839 0.02891 0.03646 0.0
C74 C 0.27735 0.03264 0.96587 0.0
N75 N 0.23444 0.04213 0.03536 0.0
C76 C 0.21326 0.0382 0.09715 0.0
H77 H 0.50999 0.31895 0.02611 0.0
H78 H 0.49498 0.24243 0.13681 0.0
H79 H 0.48479 0.25298 0.85629 0.0
C80 C 0.50491 0.29791 0.01647 0.0
C81 C 0.49812 0.28795 0.93238 0.0
C82 C 0.50367 0.28176 0.0898 0.0
C83 C 0.49619 0.25476 0.07924 0.0
C84 C 0.48985 0.24407 -0.00591 0.0
C85 C 0.49028 0.26093 0.92122 0.0
N86 N 0.48264 0.2167 0.97984 0.0
C87 C 0.48429 0.19785 0.04414 0.0
Dy88 Dy 0.01842 0.99057 0.64208 0.0
C89 C 0.99903 0.06124 0.3739 0.0
C90 C 0.01858 0.95008 0.75653 0.0
Dy91 Dy 1.00037 0.02082 0.48823 0.0
O92 O 0.04002 0.96284 0.72286 0.0
O93 O 0.99741 0.96096 0.73309 0.0
O94 O 0.06137 0.00476 0.61178 0.0
O95 O 0.03428 0.99771 0.50734 0.0
C96 C 0.05793 0.0064 0.52707 0.0
C97 C 0.96088 0.00488 0.60357 0.0
O98 O 0.99556 0.98133 0.41941 0.0
O99 O 0.99886 0.95959 0.55118 0.0
O100 O 0.97833 0.05019 0.41702 0.0
O101 O 0.02005 0.04877 0.38815 0.0
O102 O 0.95734 0.0067 0.51903 0.0
O103 O 0.98454 0.01361 0.62264 0.0
O104 O 0.01926 0.02972 0.71209 0.0
O105 O 0.02098 0.05155 0.57914 0.0
C106 C 0.99345 0.95945 0.46584 0.0
C107 C 0.0233 0.05162 0.66631 0.0
Dy108 Dy 0.48546 0.9894 0.51461 0.0
C109 C 0.58345 0.03824 0.66084 0.0
C110 C 0.43444 0.97419 0.46269 0.0
Dy111 Dy 0.53221 0.02304 0.61062 0.0
O112 O 0.45587 0.96355 0.43306 0.0
O113 O 0.44105 0.99305 0.51932 0.0
O114 O 0.51605 0.96682 0.43792 0.0
O115 O 0.52543 0.00618 0.4791 0.0
C116 C 0.5349 0.98614 0.44445 0.0
C117 C 0.48263 0.02635 0.6798 0.0
O118 O 0.52383 0.05199 0.50846 0.0
O119 O 0.48403 0.02991 0.45729 0.0
O120 O 0.56184 0.04619 0.69992 0.0
O121 O 0.57688 0.02216 0.59563 0.0
O122 O 0.50143 0.04576 0.68595 0.0
O123 O 0.49223 0.00626 0.64592 0.0
O124 O 0.49332 0.96105 0.61929 0.0
O125 O 0.53408 0.98226 0.66542 0.0
C126 C 0.50188 0.05097 0.46021 0.0
C127 C 0.51575 0.96158 0.66487 0.0
Dy128 Dy 0.49472 0.52152 0.65073 0.0
C129 C 0.521 0.4532 0.36819 0.0
C130 C 0.49007 0.56095 0.7744 0.0
Dy131 Dy 0.51708 0.49253 0.4928 0.0
O132 O 0.46994 0.54621 0.74194 0.0
O133 O 0.51253 0.55263 0.74428 0.0
O134 O 0.45268 0.50744 0.61265 0.0
O135 O 0.48257 0.51538 0.51334 0.0
C136 C 0.45846 0.50652 0.52814 0.0
C137 C 0.5535 0.50793 0.6146 0.0
O138 O 0.52292 0.53232 0.43272 0.0
O139 O 0.5158 0.55355 0.56808 0.0
O140 O 0.54054 0.46318 0.41692 0.0
O141 O 0.5 0.46619 0.38299 0.0
O142 O 0.55914 0.50679 0.52994 0.0
O143 O 0.52945 0.49892 0.62995 0.0
O144 O 0.49328 0.48196 0.71191 0.0
O145 O 0.49429 0.46098 0.57422 0.0
C146 C 0.52336 0.55409 0.48319 0.0
C147 C 0.49026 0.4603 0.66124 0.0
Dy148 Dy 0.99087 0.49394 0.64852 0.0
C149 C 0.0635 0.52447 0.36847 0.0
C150 C 0.94984 0.48714 0.77144 0.0
Dy151 Dy 0.02252 0.51774 0.49163 0.0
O152 O 0.96013 0.46825 0.72627 0.0
O153 O 0.96348 0.50939 0.75419 0.0
O154 O 1.00355 0.4541 0.61101 0.0
O155 O 0.99764 0.48108 0.51115 0.0
C156 C 1.00564 0.45884 0.52673 0.0
C157 C 0.0077 0.55285 0.6135 0.0
O158 O 0.9822 0.51771 0.43061 0.0
O159 O 0.95963 0.50975 0.56516 0.0
O160 O 0.05336 0.54338 0.41399 0.0
O161 O 0.04976 0.50227 0.38556 0.0
O162 O 0.00974 0.55754 0.52915 0.0
O163 O 0.01579 0.53064 0.62897 0.0
O164 O 0.03108 0.49401 0.70972 0.0
O165 O 0.05374 0.50192 0.57529 0.0
C166 C 0.95978 0.51609 0.48058 0.0
C167 C 0.05351 0.49556 0.6599 0.0
H168 H 0.21531 0.04027 0.27588 0.0
H169 H 0.05587 0.00549 0.3456 0.0
H170 H 0.16076 0.0272 0.05998 0.0
H171 H 0.11063 0.02102 0.56048 0.0
H172 H 0.09369 0.01394 0.23958 0.0
H173 H 0.17703 0.03355 0.38145 0.0
C174 C 0.19518 0.03599 0.25106 0.0
C175 C 0.19093 0.03424 0.15984 0.0
C176 C 0.09743 0.01556 0.30992 0.0
C177 C 0.14717 0.02655 0.27918 0.0
C178 C 0.07584 0.01078 0.37038 0.0
C179 C 0.08018 0.01248 0.46185 0.0
C180 C 0.12354 0.02205 0.34124 0.0
C181 C 0.10643 0.01941 0.49047 0.0
C182 C 0.17335 0.03217 0.31104 0.0
C183 C 0.16466 0.02866 0.13025 0.0
N184 N 0.1271 0.02386 0.43045 0.0
N185 N 0.14371 0.02498 0.1898 0.0
H186 H 0.52239 0.19626 0.16715 0.0
H187 H 0.46074 0.05615 0.34656 0.0
H188 H 0.45076 0.15383 0.06606 0.0
H189 H 0.53416 0.09719 0.44201 0.0
H190 H 0.45573 0.09255 0.2482 0.0
H191 H 0.52615 0.16103 0.27296 0.0
C192 C 0.50743 0.17949 0.16778 0.0
C193 C 0.48626 0.17772 0.10854 0.0
C194 C 0.47291 0.09364 0.29081 0.0
C195 C 0.49032 0.13747 0.22836 0.0
C196 C 0.47579 0.07282 0.34721 0.0
C197 C 0.49798 0.07347 0.40272 0.0
C198 C 0.49233 0.11536 0.28964 0.0
C199 C 0.51675 0.09572 0.40041 0.0
C200 C 0.50955 0.15941 0.2279 0.0
C201 C 0.46735 0.15576 0.11118 0.0
N202 N 0.51353 0.1157 0.34474 0.0
N203 N 0.46984 0.13643 0.17008 0.0
H204 H 0.30885 0.47913 0.24776 0.0
H205 H 0.46592 0.51013 0.34831 0.0
H206 H 0.37003 0.49603 0.04485 0.0
H207 H 0.40468 0.49234 0.55094 0.0
H208 H 0.43134 0.50424 0.23578 0.0
H209 H 0.34374 0.48348 0.36008 0.0
C210 C 0.3297 0.48381 0.22725 0.0
C211 C 0.3368 0.48732 0.13773 0.0
C212 C 0.42545 0.50155 0.30481 0.0
C213 C 0.37671 0.49223 0.26471 0.0
C214 C 0.4452 0.50486 0.369 0.0
C215 C 0.4381 0.50178 0.45899 0.0
C216 C 0.3984 0.49516 0.33085 0.0
C217 C 0.41098 0.49496 0.48224 0.0
C218 C 0.34959 0.48625 0.29106 0.0
C219 C 0.36393 0.49327 0.11369 0.0
N220 N 0.39211 0.49196 0.41865 0.0
N221 N 0.38296 0.49556 0.17688 0.0
H222 H 0.04165 0.31382 0.25506 0.0
H223 H 1.00397 0.46236 0.34599 0.0
H224 H 0.02133 0.36474 0.04861 0.0
H225 H 0.02135 0.40989 0.55221 0.0
H226 H 0.01247 0.42782 0.23494 0.0
H227 H 0.03633 0.34961 0.36456 0.0
C228 C 0.03611 0.33263 0.23312 0.0
C229 C 0.03183 0.33657 0.14351 0.0
C230 C 0.0145 0.42389 0.30447 0.0
C231 C 0.02571 0.37746 0.26728 0.0
C232 C 0.00969 0.44361 0.36775 0.0
C233 C 0.01184 0.43887 0.45826 0.0
C234 C 0.0215 0.3993 0.33208 0.0
C235 C 0.01934 0.41428 0.48304 0.0
C236 C 0.03308 0.35304 0.29534 0.0
C237 C 0.02474 0.36113 0.11762 0.0
N238 N 0.02382 0.3954 0.42037 0.0
N239 N 0.02185 0.38071 0.17931 0.0
H240 H 0.8036 0.97311 0.85728 0.0
H241 H 0.96312 0.00664 0.78499 0.0
H242 H 0.85832 0.9874 0.07226 0.0
H243 H 0.90812 0.99032 0.57116 0.0
H244 H 0.92534 0.99902 0.89167 0.0
H245 H 0.84183 0.97902 0.75118 0.0
C246 C 0.82375 0.97751 0.88178 0.0
C247 C 0.82806 0.97983 0.97288 0.0
C248 C 0.92154 0.99703 0.82142 0.0
C249 C 0.87177 0.98658 0.85296 0.0
C250 C 0.94311 1.00134 0.76059 0.0
C251 C 0.93869 0.99919 0.66922 0.0
C252 C 0.89538 0.99056 0.79055 0.0
C253 C 0.91238 0.99227 0.64108 0.0
C254 C 0.84555 0.98085 0.8215 0.0
C255 C 0.85437 0.98551 0.00208 0.0
N256 N 0.89173 0.98829 0.70144 0.0
N257 N 0.87529 0.98873 0.94224 0.0
H258 H 0.49526 0.81665 0.96038 0.0
H259 H 0.55856 0.95485 0.76988 0.0
H260 H 0.57149 0.85521 0.03913 0.0
H261 H 0.48211 0.91653 0.68945 0.0
H262 H 0.56409 0.91802 0.86587 0.0
H263 H 0.49038 0.85249 0.85777 0.0
C264 C 0.51097 0.83269 0.95557 0.0
C265 C 0.53378 0.83321 0.00757 0.0
C266 C 0.54612 0.91762 0.8271 0.0
C267 C 0.52846 0.87413 0.89143 0.0
C268 C 0.54294 0.93869 0.77211 0.0
C269 C 0.51978 0.93892 0.72145 0.0
C270 C 0.52601 0.89654 0.83178 0.0
C271 C 0.50029 0.91731 0.72725 0.0
C272 C 0.50822 0.85312 0.89726 0.0
C273 C 0.55361 0.85427 -0.00031 0.0
N274 N 0.50382 0.89706 0.7815 0.0
N275 N 0.55049 0.87394 0.94276 0.0
H276 H 0.70443 0.53361 0.88821 0.0
H277 H 0.54665 0.50439 0.79482 0.0
H278 H 0.64395 0.51776 0.09411 0.0
H279 H 0.60727 0.52164 0.5898 0.0
H280 H 0.58174 0.50982 0.90586 0.0
H281 H 0.66903 0.52951 0.77761 0.0
C282 C 0.68363 0.5292 0.90975 0.0
C283 C 0.67688 0.52593 -0.00038 0.0
C284 C 0.58737 0.51249 0.83662 0.0
C285 C 0.63637 0.52131 0.87457 0.0
C286 C 0.56734 0.50944 0.77329 0.0
C287 C 0.57411 0.51248 0.68305 0.0
C288 C 0.61438 0.51861 0.80945 0.0
C289 C 0.6012 0.51904 0.65872 0.0
C290 C 0.66344 0.52691 0.84691 0.0
C291 C 0.64979 0.52033 0.02496 0.0
N292 N 0.62034 0.5218 0.72146 0.0
N293 N 0.63047 0.51818 0.9627 0.0
H294 H 0.97183 0.69853 0.87961 0.0
H295 H 0.01024 0.54995 0.79453 0.0
H296 H 0.99246 0.6488 0.08903 0.0
H297 H 0.99219 0.60174 0.58707 0.0
H298 H 1.00241 0.58503 0.90462 0.0
H299 H 0.97816 0.6626 0.77178 0.0
C300 C 0.97777 0.67997 0.90251 0.0
C301 C 0.98177 0.67641 -0.00751 0.0
C302 C 1.00012 0.58868 0.83501 0.0
C303 C 0.9889 0.63526 0.87056 0.0
C304 C 1.00452 0.56866 0.7723 0.0
C305 C 1.00195 0.57305 0.68171 0.0
C306 C 0.99308 0.61318 0.80668 0.0
C307 C 0.9945 0.59759 0.6563 0.0
C308 C 0.98134 0.65946 0.84123 0.0
C309 C 0.98929 0.65212 0.01967 0.0
N310 N 0.99039 0.61672 0.71835 0.0
N311 N 0.99264 0.63239 0.95884 0.0
H312 H 0.96462 0.2138 0.20419 0.0
H313 H 0.04388 0.09246 0.32473 0.0
H314 H 0.05091 0.21778 0.22048 0.0
H315 H 0.95762 0.09227 0.35704 0.0
H316 H 0.04669 0.13958 0.29584 0.0
H317 H 0.96113 0.17214 0.28194 0.0
C318 C 0.98274 0.20664 0.22897 0.0
C319 C 0.00809 0.21907 0.20568 0.0
C320 C 0.02712 0.12927 0.30928 0.0
C321 C 1.00447 0.17079 0.28952 0.0
C322 C 0.02548 0.10228 0.3243 0.0
C323 C 1.00045 0.08842 0.34207 0.0
C324 C 1.00352 0.1425 0.3114 0.0
C325 C 0.97729 0.1022 0.34246 0.0
C326 C 0.98082 0.18252 0.27142 0.0
C327 C 0.031 0.20876 0.2375 0.0
N328 N 0.97936 0.12847 0.32702 0.0
N329 N 0.02873 0.18476 0.27538 0.0
H330 H 0.30136 0.94901 0.1109 0.0
H331 H 0.4178 0.94034 0.3276 0.0
H332 H 0.29521 0.01943 0.27189 0.0
H333 H 0.38886 0.99517 0.52293 0.0
H334 H 0.37412 0.93724 0.25845 0.0
H335 H 0.33154 0.93319 0.21808 0.0
C336 C 0.30582 0.96075 0.17046 0.0
C337 C 0.29627 0.98573 0.18211 0.0
C338 C 0.37676 0.94931 0.31808 0.0
C339 C 0.33221 0.96875 0.30182 0.0
C340 C 0.40194 0.9512 0.35714 0.0
C341 C 0.40699 0.96835 0.42987 0.0
C342 C 0.35657 0.96478 0.35222 0.0
C343 C 0.38583 0.982 0.46588 0.0
C344 C 0.32354 0.95201 0.23078 0.0
C345 C 0.30235 1.00013 0.26035 0.0
N346 N 0.3617 0.98028 0.42574 0.0
N347 N 0.32049 0.99173 0.31625 0.0
H348 H 0.55104 0.29937 0.1638 0.0
H349 H 0.47668 0.42404 0.30799 0.0
H350 H 0.46505 0.29769 0.20265 0.0
H351 H 0.56151 0.42046 0.34942 0.0
H352 H 0.47259 0.37693 0.27193 0.0
H353 H 0.55618 0.34128 0.24703 0.0
C354 C 0.53336 0.30708 0.19461 0.0
C355 C 0.50759 0.29525 0.17631 0.0
C356 C 0.49213 0.3864 0.28898 0.0
C357 C 0.51309 0.34371 0.26637 0.0
C358 C 0.49455 0.41339 0.30799 0.0
C359 C 0.51953 0.42617 0.3307 0.0
C360 C 0.51491 0.37209 0.29173 0.0
C361 C 0.54195 0.41135 0.33118 0.0
C362 C 0.53622 0.33131 0.24033 0.0
C363 C 0.48525 0.30625 0.21576 0.0
N364 N 0.53914 0.38506 0.3116 0.0
N365 N 0.48843 0.33034 0.25659 0.0
H366 H 0.22219 0.48375 0.2449 0.0
H367 H 0.09662 0.5688 0.33009 0.0
H368 H 0.21836 0.55904 0.12543 0.0
H369 H 0.09422 0.48399 0.33276 0.0
H370 H 0.14525 0.57066 0.29368 0.0
H371 H 0.18073 0.4905 0.32977 0.0
C372 C 0.2135 0.50242 0.24064 0.0
C373 C 0.22335 0.52072 0.17747 0.0
C374 C 0.13395 0.55172 0.30244 0.0
C375 C 0.17558 0.52808 0.27079 0.0
C376 C 0.10626 0.55062 0.32189 0.0
C377 C 0.09139 0.52619 0.3329 0.0
C378 C 0.14677 0.52826 0.29633 0.0
C379 C 0.10484 0.50322 0.32338 0.0
C380 C 0.18949 0.50599 0.28736 0.0
C381 C 0.21116 0.54446 0.17344 0.0
N382 N 0.13178 0.50483 0.30615 0.0
N383 N 0.18736 0.54719 0.21752 0.0
H384 H 0.9613 0.79094 0.84926 0.0
H385 H 0.06056 0.92151 0.79738 0.0
H386 H 0.03919 0.80007 0.96726 0.0
H387 H 0.97415 0.91587 0.7753 0.0
H388 H 0.05792 0.87382 0.82333 0.0
H389 H 0.97234 0.83205 0.77132 0.0
C390 C 0.98139 0.80078 0.85432 0.0
C391 C 0.99926 0.7924 0.91533 0.0
C392 C 0.03962 0.88314 0.81261 0.0
C393 C 0.0115 0.83993 0.83068 0.0
C394 C 0.04106 0.9103 0.79913 0.0
C395 C 0.01749 0.92265 0.78571 0.0
C396 C 0.0145 0.86832 0.81074 0.0
C397 C 0.99278 0.90722 0.78675 0.0
C398 C 0.98744 0.8246 0.81178 0.0
C399 C 0.02489 0.80605 0.92075 0.0
N400 N 0.99196 0.88089 0.79865 0.0
N401 N 0.03001 0.8297 0.88126 0.0
H402 H 0.72844 0.99315 0.85211 0.0
H403 H 0.62942 0.02394 0.57873 0.0
H404 H 0.70932 0.05989 0.01603 0.0
H405 H 0.6005 0.06394 0.81343 0.0
H406 H 0.67405 0.0255 0.64184 0.0
H407 H 0.6985 0.00631 0.74028 0.0
C408 C 0.71889 0.01131 0.8626 0.0
C409 C 0.72096 0.02521 0.94384 0.0
C410 C 0.65804 0.03392 0.67983 0.0
C411 C 0.68621 0.0404 0.81674 0.0
C412 C 0.63258 0.03325 0.64345 0.0
C413 C 0.61116 0.04327 0.69211 0.0
C414 C 0.66192 0.04434 0.7661 0.0
C415 C 0.61641 0.05562 0.77451 0.0
C416 C 0.70158 0.01886 0.79867 0.0
C417 C 0.70787 0.04842 0.9546 0.0
N418 N 0.6412 0.05545 0.80953 0.0
N419 N 0.69047 0.05489 0.89291 0.0
H420 H 0.52956 0.72349 0.88604 0.0
H421 H 0.44512 0.58376 0.83758 0.0
H422 H 0.45732 0.70375 0.04238 0.0
H423 H 0.53047 0.59985 0.78554 0.0
H424 H 0.44237 0.63079 0.87627 0.0
H425 H 0.5208 0.68257 0.79955 0.0
C426 C 0.51098 0.7113 0.89862 0.0
C427 C 0.49439 0.71661 0.97222 0.0
C428 C 0.46161 0.62389 0.85603 0.0
C429 C 0.48488 0.66947 0.87684 0.0
C430 C 0.46326 0.59712 0.83527 0.0
C431 C 0.48814 0.58792 0.81 0.0
C432 C 0.48489 0.64144 0.84916 0.0
C433 C 0.51097 0.60603 0.8062 0.0
C434 C 0.50631 0.68764 0.85071 0.0
C435 C 0.47067 0.70006 0.98636 0.0
N436 N 0.50876 0.6319 0.82518 0.0
N437 N 0.46701 0.67669 0.94096 0.0
H438 H 0.79079 0.52729 0.88912 0.0
H439 H 0.91695 0.44273 0.81081 0.0
H440 H 0.79494 0.45275 0.01328 0.0
H441 H 0.91872 0.52746 0.8043 0.0
H442 H 0.86822 0.44063 0.84578 0.0
H443 H 0.83219 0.52021 0.8045 0.0
C444 C 0.79953 0.50869 0.89448 0.0
C445 C 0.78983 0.49076 0.95903 0.0
C446 C 0.8794 0.4596 0.83646 0.0
C447 C 0.83753 0.48304 0.86594 0.0
C448 C 0.90715 0.46085 0.81786 0.0
C449 C 0.92187 0.48533 0.80625 0.0
C450 C 0.8664 0.48296 0.84107 0.0
C451 C 0.90822 0.5082 0.81424 0.0
C452 C 0.82351 0.50493 0.84788 0.0
C453 C 0.80205 0.46707 0.96429 0.0
N454 N 0.88125 0.50645 0.83064 0.0
N455 N 0.82585 0.46419 0.92037 0.0
H456 H 0.05798 0.21402 0.85056 0.0
H457 H 0.99954 0.06653 0.82222 0.0
H458 H 0.97439 0.19034 0.91021 0.0
H459 H 0.05266 0.09586 0.60948 0.0
H460 H 0.99709 0.11192 0.87833 0.0
H461 H 0.06191 0.17135 0.77282 0.0
C462 C 0.04024 0.2003 0.84422 0.0
C463 C 0.01587 0.20553 0.88723 0.0
C464 C 0.00949 0.1083 0.81987 0.0
C465 C 0.02061 0.15668 0.80362 0.0
C466 C 0.01125 0.08246 0.78887 0.0
C467 C 0.02639 0.07758 0.71157 0.0
C468 C 0.02341 0.12922 0.77417 0.0
C469 C 0.04079 0.09895 0.66955 0.0
C470 C 0.0426 0.17588 0.80127 0.0
C471 C 0.99357 0.18691 0.87839 0.0
N472 N 0.03904 0.12396 0.70156 0.0
N473 N 0.99664 0.16301 0.8397 0.0
H474 H 0.33112 0.06532 0.92528 0.0
H475 H 0.44531 0.98462 0.69611 0.0
H476 H 0.32063 0.98295 0.85076 0.0
H477 H 0.45557 0.06901 0.73494 0.0
H478 H 0.39833 0.98491 0.74375 0.0
H479 H 0.37467 0.06889 0.84355 0.0
C480 C 0.33758 0.04825 0.88898 0.0
C481 C 0.32237 0.02382 0.89435 0.0
C482 C 0.41068 1.00347 0.74152 0.0
C483 C 0.37225 0.02746 0.80359 0.0
C484 C 0.43758 1.0033 0.71435 0.0
C485 C 0.45429 0.02686 0.71088 0.0
C486 C 0.40033 0.02735 0.76742 0.0
C487 C 0.4433 0.05041 0.73664 0.0
C488 C 0.36254 0.05019 0.84333 0.0
C489 C 0.3318 1.00213 0.84793 0.0
N490 N 0.41698 0.05007 0.76436 0.0
N491 N 0.35624 1.00439 0.80552 0.0
H492 H 0.53982 0.32144 0.87556 0.0
H493 H 0.46121 0.41641 0.597 0.0
H494 H 0.45549 0.29987 0.83441 0.0
H495 H 0.51266 0.44427 0.81068 0.0
H496 H 0.46268 0.37099 0.64736 0.0
H497 H 0.53566 0.36357 0.80553 0.0
C498 C 0.52067 0.32518 0.8484 0.0
C499 C 0.49792 0.30728 0.86103 0.0
C500 C 0.4733 0.38715 0.68357 0.0
C501 C 0.49301 0.35544 0.78235 0.0
C502 C 0.47237 0.41297 0.6555 0.0
C503 C 0.48659 0.43405 0.70064 0.0
C504 C 0.48937 0.38246 0.75503 0.0
C505 C 0.50108 0.42861 0.77507 0.0
C506 C 0.51824 0.34933 0.80997 0.0
C507 C 0.47351 0.31312 0.82536 0.0
N508 N 0.50248 0.40326 0.79907 0.0
N509 N 0.47156 0.33696 0.78821 0.0
H510 H 0.22143 0.50777 0.78403 0.0
H511 H 0.06326 0.47368 0.81979 0.0
H512 H 0.18328 0.45495 0.97714 0.0
H513 H 0.10358 0.50573 0.58416 0.0
H514 H 0.10729 0.46597 0.87758 0.0
H515 H 0.1791 0.50524 0.70384 0.0
C516 C 0.20444 0.4948 0.80728 0.0
C517 C 0.20574 0.48139 0.88654 0.0
C518 C 0.10641 0.47449 0.81287 0.0
C519 C 0.1571 0.47937 0.79853 0.0
C520 C 0.08129 0.47907 0.78027 0.0
C521 C 0.07966 0.4905 0.69735 0.0
C522 C 0.13004 0.4817 0.76265 0.0
C523 C 0.10376 0.49691 0.6486 0.0
C524 C 0.18017 0.49363 0.76246 0.0
C525 C 0.18299 0.4654 0.91564 0.0
N526 N 0.12789 0.49264 0.68227 0.0
N527 N 0.15944 0.46522 0.87265 0.0
H528 H 0.93537 0.82941 0.1221 0.0
H529 H 0.99693 0.91139 0.53669 0.0
H530 H 0.9861 0.79751 0.31114 0.0
H531 H 0.97092 0.94779 0.30236 0.0
H532 H 0.98353 0.86832 0.47194 0.0
H533 H 0.93742 0.8709 0.20823 0.0
C534 C 0.94621 0.83089 0.18348 0.0
C535 C 0.9609 0.81017 0.20914 0.0
C536 C 0.98063 0.88569 0.43478 0.0
C537 C 0.96359 0.85755 0.30689 0.0
C538 C 0.9883 0.91042 0.47149 0.0
C539 C 0.98524 0.93341 0.4245 0.0
C540 C 0.9696 0.8837 0.35045 0.0
C541 C 0.97389 0.93065 0.34049 0.0
C542 C 0.94762 0.85464 0.23185 0.0
C543 C 0.9745 0.81298 0.28916 0.0
N544 N 0.96649 0.90618 0.30597 0.0
N545 N 0.97587 0.83645 0.33463 0.0
H546 H 0.68706 0.94699 0.20443 0.0
H547 H 0.57132 0.0281 0.41895 0.0
H548 H 0.69726 0.02947 0.27751 0.0
H549 H 0.56261 0.94326 0.39677 0.0
H550 H 0.61843 0.02789 0.37279 0.0
H551 H 0.64323 0.94352 0.28456 0.0
C552 C 0.68049 0.9641 0.24025 0.0
C553 C 0.69568 0.98853 0.23492 0.0
C554 C 0.6064 0.00922 0.37839 0.0
C555 C 0.64549 0.98501 0.32351 0.0
C556 C 0.57943 0.00935 0.40466 0.0
C557 C 0.56316 0.98565 0.4127 0.0
C558 C 0.61724 0.9852 0.35787 0.0
C559 C 0.57457 0.96197 0.39157 0.0
C560 C 0.65537 0.96221 0.28496 0.0
C561 C 0.6861 0.01028 0.28052 0.0
N562 N 0.60096 0.96233 0.36467 0.0
N563 N 0.6615 0.00809 0.32182 0.0
H564 H 0.56428 0.68437 0.13575 0.0
H565 H 0.52183 0.60205 0.56743 0.0
H566 H 0.52011 0.71524 0.35896 0.0
H567 H 0.54254 0.56645 0.31423 0.0
H568 H 0.53144 0.64542 0.50482 0.0
H569 H 0.56786 0.64372 0.21563 0.0
C570 C 0.55622 0.68289 0.20311 0.0
C571 C 0.54193 0.70309 0.24124 0.0
C572 C 0.53409 0.62815 0.46314 0.0
C573 C 0.54529 0.65649 0.33178 0.0
C574 C 0.5286 0.60325 0.49865 0.0
C575 C 0.53107 0.58038 0.44565 0.0
C576 C 0.54234 0.6304 0.37397 0.0
C577 C 0.54011 0.58346 0.35732 0.0
C578 C 0.55794 0.65959 0.24806 0.0
C579 C 0.53148 0.70018 0.32787 0.0
N580 N 0.5453 0.60803 0.32409 0.0
N581 N 0.53305 0.67709 0.36997 0.0
H582 H 0.83066 0.55788 0.15541 0.0
H583 H 0.90996 0.50578 0.55778 0.0
H584 H 0.79367 0.50501 0.35034 0.0
H585 H 0.94933 0.53778 0.3205 0.0
H586 H 0.86654 0.51351 0.49904 0.0
H587 H 0.87292 0.56007 0.23498 0.0
C588 C 0.83122 0.54758 0.21717 0.0
C589 C 0.8087 0.53144 0.24715 0.0
C590 C 0.88465 0.51895 0.45994 0.0
C591 C 0.85707 0.53312 0.3366 0.0
C592 C 0.90957 0.51454 0.49325 0.0
C593 C 0.93348 0.52098 0.44364 0.0
C594 C 0.88344 0.5301 0.37653 0.0
C595 C 0.93147 0.53229 0.36066 0.0
C596 C 0.85541 0.54849 0.26163 0.0
C597 C 0.8105 0.51797 0.32607 0.0
N598 N 0.90684 0.53648 0.32962 0.0
N599 N 0.83444 0.51887 0.36769 0.0
loop_
_geom_bond_atom_site_label_1
_geom_bond_atom_site_label_2
_geom_bond_distance
_geom_bond_site_symmetry_2
_ccdc_geom_bond_type
H0 C3 0.929 . S
H1 C6 0.929 1_556 S
H2 C8 0.930 . S
C3 H0 0.929 . S
C3 C4 1.398 . S
C3 C5 1.396 . S
C4 C3 1.398 . S
C4 C8 1.407 . S
C5 C3 1.396 . S
C5 C6 1.394 . S
C6 H1 0.929 1_554 S
C6 C5 1.394 . S
C6 C7 1.382 . S
C7 C6 1.382 . S
C7 C8 1.392 . S
C7 N9 1.420 . S
C8 H2 0.930 . S
C8 C4 1.407 . S
C8 C7 1.392 . S
N9 C7 1.420 . S
N9 C10 1.244 . S
C10 N9 1.244 . S
H11 C14 0.929 . S
H12 C17 0.929 . S
H13 C19 0.930 . S
C14 H11 0.929 . S
C14 C15 1.393 1_655 S
C14 C16 1.394 1_654 S
C15 C14 1.393 1_455 S
C15 C19 1.416 . S
C16 C14 1.394 1_456 S
C16 C17 1.398 . S
C17 H12 0.929 . S
C17 C16 1.398 . S
C17 C18 1.382 1_556 S
C18 C17 1.382 1_554 S
C18 C19 1.392 . S
C18 N20 1.420 . S
C19 H13 0.930 . S
C19 C15 1.416 . S
C19 C18 1.392 . S
N20 C18 1.420 . S
N20 C21 1.232 1_454 S
C21 N20 1.232 1_656 S
H22 C25 0.929 . S
H23 C28 0.929 . S
H24 C30 0.930 . S
C25 H22 0.929 . S
C25 C26 1.398 . S
C25 C27 1.396 1_554 S
C26 C25 1.398 . S
C26 C30 1.407 . S
C27 C25 1.396 1_556 S
C27 C28 1.394 . S
C28 H23 0.929 . S
C28 C27 1.394 . S
C28 C29 1.382 1_556 S
C29 C28 1.382 1_554 S
C29 C30 1.392 . S
C29 N31 1.420 . S
C30 H24 0.930 . S
C30 C26 1.407 . S
C30 C29 1.392 . S
N31 C29 1.420 . S
N31 C32 1.244 1_554 S
C32 N31 1.244 1_556 S
H33 C36 0.929 . S
H34 C39 0.929 1_556 S
H35 C41 0.930 . S
C36 H33 0.929 . S
C36 C37 1.398 . S
C36 C38 1.396 . S
C37 C36 1.398 . S
C37 C41 1.407 . S
C38 C36 1.396 . S
C38 C39 1.394 . S
C39 H34 0.929 1_554 S
C39 C38 1.394 . S
C39 C40 1.382 . S
C40 C39 1.382 . S
C40 C41 1.392 . S
C40 N42 1.420 . S
C41 H35 0.930 . S
C41 C37 1.407 . S
C41 C40 1.392 . S
N42 C40 1.420 . S
N42 C43 1.244 . S
C43 N42 1.244 . S
H44 C47 0.929 . S
H45 C50 0.929 . S
H46 C52 0.930 . S
C47 H44 0.929 . S
C47 C48 1.398 1_554 S
C47 C49 1.396 . S
C48 C47 1.398 1_556 S
C48 C52 1.407 . S
C49 C47 1.396 . S
C49 C50 1.394 . S
C50 H45 0.929 . S
C50 C49 1.394 . S
C50 C51 1.382 . S
C51 C50 1.382 . S
C51 C52 1.392 1_554 S
C51 N53 1.420 . S
C52 H46 0.930 . S
C52 C48 1.407 . S
C52 C51 1.392 1_556 S
N53 C51 1.420 . S
N53 C54 1.244 . S
C54 N53 1.244 . S
H55 C58 0.929 . S
H56 C61 0.929 . S
H57 C63 0.924 1_556 S
C58 H55 0.929 . S
C58 C59 1.398 1_654 S
C58 C60 1.394 1_655 S
C59 C58 1.398 1_456 S
C59 C63 1.411 1_556 S
C60 C58 1.394 1_455 S
C60 C61 1.396 . S
C61 H56 0.929 . S
C61 C60 1.396 . S
C61 C62 1.382 . S
C62 C61 1.382 . S
C62 C63 1.398 . S
C62 N64 1.420 . S
C63 H57 0.924 1_554 S
C63 C59 1.411 1_554 S
C63 C62 1.398 . S
N64 C62 1.420 . S
N64 C65 1.236 1_455 S
C65 N64 1.236 1_655 S
H66 C69 0.929 . S
H67 C72 0.929 . S
H68 C74 0.930 1_556 S
C69 H66 0.929 . S
C69 C70 1.398 . S
C69 C71 1.396 . S
C70 C69 1.398 . S
C70 C74 1.407 . S
C71 C69 1.396 . S
C71 C72 1.394 . S
C72 H67 0.929 . S
C72 C71 1.394 . S
C72 C73 1.382 . S
C73 C72 1.382 . S
C73 C74 1.392 . S
C73 N75 1.420 . S
C74 H68 0.930 1_554 S
C74 C70 1.407 . S
C74 C73 1.392 . S
N75 C73 1.420 . S
N75 C76 1.244 . S
C76 N75 1.244 . S
H77 C80 0.929 . S
H78 C83 0.929 . S
H79 C85 0.930 . S
C80 H77 0.929 . S
C80 C81 1.398 1_554 S
C80 C82 1.396 . S
C81 C80 1.398 1_556 S
C81 C85 1.407 . S
C82 C80 1.396 . S
C82 C83 1.394 . S
C83 H78 0.929 . S
C83 C82 1.394 . S
C83 C84 1.382 . S
C84 C83 1.382 . S
C84 C85 1.392 1_554 S
C84 N86 1.420 . S
C85 H79 0.930 . S
C85 C81 1.407 . S
C85 C84 1.392 1_556 S
N86 C84 1.420 . S
N86 C87 1.244 . S
C87 N86 1.244 . S
Dy88 O92 2.398 . S
Dy88 O93 2.491 1_455 S
Dy88 O94 2.403 . S
Dy88 O95 2.664 1_565 S
Dy88 O99 2.326 . S
Dy88 O103 2.310 1_455 S
Dy88 O104 2.351 1_565 S
C89 O100 1.185 . S
C89 O101 1.355 1_655 S
C90 O92 1.185 . S
C90 O93 1.355 1_455 S
Dy91 O95 2.310 1_655 S
Dy91 O98 2.351 1_545 S
Dy91 O100 2.398 . S
Dy91 O101 2.491 1_655 S
Dy91 O102 2.403 . S
Dy91 O103 2.664 1_545 S
Dy91 O105 2.326 . S
O92 Dy88 2.398 . S
O92 C90 1.185 . S
O93 Dy88 2.491 1_655 S
O93 C90 1.355 1_655 S
O94 Dy88 2.403 . S
O94 C96 1.254 1_565 S
O95 Dy88 2.664 1_545 S
O95 Dy91 2.310 1_455 S
O95 C96 1.268 . S
C96 O94 1.254 1_545 S
C96 O95 1.268 . S
C97 O102 1.254 1_565 S
C97 O103 1.268 . S
O98 Dy91 2.351 1_565 S
O98 C106 1.249 . S
O99 Dy88 2.326 . S
O99 C106 1.267 1_455 S
O100 C89 1.185 . S
O100 Dy91 2.398 . S
O101 C89 1.355 1_455 S
O101 Dy91 2.491 1_455 S
O102 Dy91 2.403 . S
O102 C97 1.254 1_545 S
O103 Dy88 2.310 1_655 S
O103 Dy91 2.664 1_565 S
O103 C97 1.268 . S
O104 Dy88 2.351 1_545 S
O104 C107 1.249 . S
O105 Dy91 2.326 . S
O105 C107 1.267 1_655 S
C106 O98 1.249 . S
C106 O99 1.267 1_655 S
C107 O104 1.249 . S
C107 O105 1.267 1_455 S
Dy108 O112 2.398 . S
Dy108 O113 2.491 1_565 S
Dy108 O114 2.403 . S
Dy108 O115 2.664 . S
Dy108 O119 2.326 1_565 S
Dy108 O123 2.310 1_565 S
Dy108 O124 2.351 . S
C109 O120 1.185 . S
C109 O121 1.355 1_545 S
C110 O112 1.185 1_545 S
C110 O113 1.355 . S
Dy111 O115 2.310 1_545 S
Dy111 O118 2.351 . S
Dy111 O120 2.398 . S
Dy111 O121 2.491 1_545 S
Dy111 O122 2.403 . S
Dy111 O123 2.664 . S
Dy111 O125 2.326 1_545 S
O112 Dy108 2.398 . S
O112 C110 1.185 1_565 S
O113 Dy108 2.491 1_545 S
O113 C110 1.355 . S
O114 Dy108 2.403 . S
O114 C116 1.254 . S
O115 Dy108 2.664 . S
O115 Dy111 2.310 1_565 S
O115 C116 1.268 . S
C116 O114 1.254 . S
C116 O115 1.268 . S
C117 O122 1.254 . S
C117 O123 1.268 . S
O118 Dy111 2.351 . S
O118 C126 1.249 . S
O119 Dy108 2.326 1_545 S
O119 C126 1.267 . S
O120 C109 1.185 . S
O120 Dy111 2.398 . S
O121 C109 1.355 1_565 S
O121 Dy111 2.491 1_565 S
O122 Dy111 2.403 . S
O122 C117 1.254 . S
O123 Dy108 2.310 1_545 S
O123 Dy111 2.664 . S
O123 C117 1.268 . S
O124 Dy108 2.351 . S
O124 C127 1.249 . S
O125 Dy111 2.326 1_565 S
O125 C127 1.267 . S
C126 O118 1.249 . S
C126 O119 1.267 . S
C127 O124 1.249 . S
C127 O125 1.267 . S
Dy128 O132 2.398 . S
Dy128 O133 2.491 . S
Dy128 O134 2.403 . S
Dy128 O135 2.664 . S
Dy128 O139 2.326 . S
Dy128 O143 2.310 . S
Dy128 O144 2.351 . S
C129 O140 1.185 . S
C129 O141 1.355 . S
C130 O132 1.185 . S
C130 O133 1.355 . S
Dy131 O135 2.310 . S
Dy131 O138 2.351 . S
Dy131 O140 2.398 . S
Dy131 O141 2.491 . S
Dy131 O142 2.403 . S
Dy131 O143 2.664 . S
Dy131 O145 2.326 . S
O132 Dy128 2.398 . S
O132 C130 1.185 . S
O133 Dy128 2.491 . S
O133 C130 1.355 . S
O134 Dy128 2.403 . S
O134 C136 1.254 . S
O135 Dy128 2.664 . S
O135 Dy131 2.310 . S
O135 C136 1.268 . S
C136 O134 1.254 . S
C136 O135 1.268 . S
C137 O142 1.254 . S
C137 O143 1.268 . S
O138 Dy131 2.351 . S
O138 C146 1.249 . S
O139 Dy128 2.326 . S
O139 C146 1.267 . S
O140 C129 1.185 . S
O140 Dy131 2.398 . S
O141 C129 1.355 . S
O141 Dy131 2.491 . S
O142 Dy131 2.403 . S
O142 C137 1.254 . S
O143 Dy128 2.310 . S
O143 Dy131 2.664 . S
O143 C137 1.268 . S
O144 Dy128 2.351 . S
O144 C147 1.249 . S
O145 Dy131 2.326 . S
O145 C147 1.267 . S
C146 O138 1.249 . S
C146 O139 1.267 . S
C147 O144 1.249 . S
C147 O145 1.267 . S
Dy148 O152 2.398 . S
Dy148 O153 2.491 . S
Dy148 O154 2.403 . S
Dy148 O155 2.664 1_655 S
Dy148 O159 2.326 . S
Dy148 O163 2.310 . S
Dy148 O164 2.351 1_655 S
C149 O160 1.185 . S
C149 O161 1.355 . S
C150 O152 1.185 . S
C150 O153 1.355 . S
Dy151 O155 2.310 . S
Dy151 O158 2.351 1_455 S
Dy151 O160 2.398 . S
Dy151 O161 2.491 . S
Dy151 O162 2.403 . S
Dy151 O163 2.664 1_455 S
Dy151 O165 2.326 . S
O152 Dy148 2.398 . S
O152 C150 1.185 . S
O153 Dy148 2.491 . S
O153 C150 1.355 . S
O154 Dy148 2.403 . S
O154 C156 1.254 . S
O155 Dy148 2.664 1_455 S
O155 Dy151 2.310 . S
O155 C156 1.268 1_455 S
C156 O154 1.254 . S
C156 O155 1.268 1_655 S
C157 O162 1.254 . S
C157 O163 1.268 1_455 S
O158 Dy151 2.351 1_655 S
O158 C166 1.249 . S
O159 Dy148 2.326 . S
O159 C166 1.267 . S
O160 C149 1.185 . S
O160 Dy151 2.398 . S
O161 C149 1.355 . S
O161 Dy151 2.491 . S
O162 Dy151 2.403 . S
O162 C157 1.254 . S
O163 Dy148 2.310 . S
O163 Dy151 2.664 1_655 S
O163 C157 1.268 1_655 S
O164 Dy148 2.351 1_455 S
O164 C167 1.249 . S
O165 Dy151 2.326 . S
O165 C167 1.267 . S
C166 O158 1.249 . S
C166 O159 1.267 . S
C167 O164 1.249 . S
C167 O165 1.267 . S
H168 C174 0.930 . S
H169 C178 0.930 . S
H170 C183 0.929 . S
H171 C181 0.929 . S
H172 C176 0.929 . S
H173 C182 0.929 1_565 S
C174 H168 0.930 . S
C174 C175 1.367 . S
C174 C182 1.378 . S
C175 C174 1.367 . S
C175 C183 1.433 . S
C176 H172 0.929 . S
C176 C178 1.378 . S
C176 C180 1.350 . S
C177 C180 1.463 . S
C177 C182 1.350 . S
C177 N185 1.427 . S
C178 H169 0.930 . S
C178 C176 1.378 . S
C178 C179 1.367 . S
C179 C178 1.367 . S
C179 C181 1.433 1_545 S
C180 C176 1.350 . S
C180 C177 1.463 . S
C180 N184 1.428 . S
C181 H171 0.929 . S
C181 C179 1.433 1_565 S
C181 N184 1.383 1_565 S
C182 H173 0.929 1_545 S
C182 C174 1.378 . S
C182 C177 1.350 . S
C183 H170 0.929 . S
C183 C175 1.433 . S
C183 N185 1.384 . S
N184 C180 1.428 . S
N184 C181 1.383 1_545 S
N185 C177 1.427 . S
N185 C183 1.384 . S
H186 C192 0.930 . S
H187 C196 0.930 . S
H188 C201 0.929 . S
H189 C199 0.929 . S
H190 C194 0.929 . S
H191 C200 0.929 . S
C192 H186 0.930 . S
C192 C193 1.367 . S
C192 C200 1.378 . S
C193 C192 1.367 . S
C193 C201 1.433 . S
C194 H190 0.929 . S
C194 C196 1.378 . S
C194 C198 1.350 . S
C195 C198 1.463 . S
C195 C200 1.350 . S
C195 N203 1.427 . S
C196 H187 0.930 . S
C196 C194 1.378 . S
C196 C197 1.367 . S
C197 C196 1.367 . S
C197 C199 1.433 . S
C198 C194 1.350 . S
C198 C195 1.463 . S
C198 N202 1.427 . S
C199 H189 0.929 . S
C199 C197 1.433 . S
C199 N202 1.384 . S
C200 H191 0.929 . S
C200 C192 1.378 . S
C200 C195 1.350 . S
C201 H188 0.929 . S
C201 C193 1.433 . S
C201 N203 1.384 . S
N202 C198 1.427 . S
N202 C199 1.384 . S
N203 C195 1.427 . S
N203 C201 1.384 . S
H204 C210 0.930 . S
H205 C214 0.930 . S
H206 C219 0.929 . S
H207 C217 0.929 . S
H208 C212 0.929 . S
H209 C218 0.929 . S
C210 H204 0.930 . S
C210 C211 1.367 . S
C210 C218 1.378 . S
C211 C210 1.367 . S
C211 C219 1.433 . S
C212 H208 0.929 . S
C212 C214 1.378 . S
C212 C216 1.350 . S
C213 C216 1.463 . S
C213 C218 1.350 . S
C213 N221 1.427 . S
C214 H205 0.930 . S
C214 C212 1.378 . S
C214 C215 1.367 . S
C215 C214 1.367 . S
C215 C217 1.433 . S
C216 C212 1.350 . S
C216 C213 1.463 . S
C216 N220 1.427 . S
C217 H207 0.929 . S
C217 C215 1.433 . S
C217 N220 1.384 . S
C218 H209 0.929 . S
C218 C210 1.378 . S
C218 C213 1.350 . S
C219 H206 0.929 . S
C219 C211 1.433 . S
C219 N221 1.384 . S
N220 C216 1.427 . S
N220 C217 1.384 . S
N221 C213 1.427 . S
N221 C219 1.384 . S
H222 C228 0.930 . S
H223 C232 0.930 . S
H224 C237 0.929 . S
H225 C235 0.929 . S
H226 C230 0.929 . S
H227 C236 0.929 . S
C228 H222 0.930 . S
C228 C229 1.369 . S
C228 C236 1.378 . S
C229 C228 1.369 . S
C229 C237 1.430 1_455 S
C230 H226 0.929 . S
C230 C232 1.378 . S
C230 C234 1.350 . S
C231 C234 1.463 . S
C231 C236 1.350 1_655 S
C231 N239 1.427 . S
C232 H223 0.930 . S
C232 C230 1.378 . S
C232 C233 1.367 . S
C233 C232 1.367 . S
C233 C235 1.433 1_655 S
C234 C230 1.350 . S
C234 C231 1.463 . S
C234 N238 1.427 1_655 S
C235 H225 0.929 . S
C235 C233 1.433 1_455 S
C235 N238 1.384 . S
C236 H227 0.929 . S
C236 C228 1.378 . S
C236 C231 1.350 1_455 S
C237 H224 0.929 . S
C237 C229 1.430 1_655 S
C237 N239 1.384 . S
N238 C234 1.427 1_455 S
N238 C235 1.384 . S
N239 C231 1.427 . S
N239 C237 1.384 . S
H240 C246 0.930 . S
H241 C250 0.930 . S
H242 C255 0.929 . S
H243 C253 0.929 . S
H244 C248 0.929 1_545 S
H245 C254 0.929 . S
C246 H240 0.930 . S
C246 C247 1.367 . S
C246 C254 1.378 . S
C247 C246 1.367 . S
C247 C255 1.433 . S
C248 H244 0.929 1_565 S
C248 C250 1.378 1_565 S
C248 C252 1.350 . S
C249 C252 1.463 . S
C249 C254 1.350 . S
C249 N257 1.427 . S
C250 H241 0.930 . S
C250 C248 1.378 1_545 S
C250 C251 1.367 1_545 S
C251 C250 1.367 1_565 S
C251 C253 1.433 . S
C252 C248 1.350 . S
C252 C249 1.463 . S
C252 N256 1.427 . S
C253 H243 0.929 . S
C253 C251 1.433 . S
C253 N256 1.384 . S
C254 H245 0.929 . S
C254 C246 1.378 . S
C254 C249 1.350 . S
C255 H242 0.929 . S
C255 C247 1.433 . S
C255 N257 1.384 . S
N256 C252 1.427 . S
N256 C253 1.384 . S
N257 C249 1.427 . S
N257 C255 1.384 . S
H258 C264 0.930 . S
H259 C268 0.930 . S
H260 C273 0.929 . S
H261 C271 0.929 . S
H262 C266 0.929 . S
H263 C272 0.929 . S
C264 H258 0.930 . S
C264 C265 1.367 1_556 S
C264 C272 1.378 . S
C265 C264 1.367 1_554 S
C265 C273 1.433 . S
C266 H262 0.929 . S
C266 C268 1.378 . S
C266 C270 1.350 . S
C267 C270 1.463 . S
C267 C272 1.350 . S
C267 N275 1.427 . S
C268 H259 0.930 . S
C268 C266 1.378 . S
C268 C269 1.367 . S
C269 C268 1.367 . S
C269 C271 1.433 . S
C270 C266 1.350 . S
C270 C267 1.463 . S
C270 N274 1.427 . S
C271 H261 0.929 . S
C271 C269 1.433 . S
C271 N274 1.384 . S
C272 H263 0.929 . S
C272 C264 1.378 . S
C272 C267 1.350 . S
C273 H260 0.929 . S
C273 C265 1.433 . S
C273 N275 1.384 1_554 S
N274 C270 1.427 . S
N274 C271 1.384 . S
N275 C267 1.427 . S
N275 C273 1.384 1_556 S
H276 C282 0.930 . S
H277 C286 0.930 . S
H278 C291 0.929 1_554 S
H279 C289 0.929 . S
H280 C284 0.929 . S
H281 C290 0.929 . S
C282 H276 0.930 . S
C282 C283 1.367 . S
C282 C290 1.378 . S
C283 C282 1.367 . S
C283 C291 1.433 . S
C284 H280 0.929 . S
C284 C286 1.378 . S
C284 C288 1.350 . S
C285 C288 1.463 . S
C285 C290 1.350 . S
C285 N293 1.427 . S
C286 H277 0.930 . S
C286 C284 1.378 . S
C286 C287 1.367 . S
C287 C286 1.367 . S
C287 C289 1.433 . S
C288 C284 1.350 . S
C288 C285 1.463 . S
C288 N292 1.427 . S
C289 H279 0.929 . S
C289 C287 1.433 . S
C289 N292 1.384 . S
C290 H281 0.929 . S
C290 C282 1.378 . S
C290 C285 1.350 . S
C291 H278 0.929 1_556 S
C291 C283 1.433 . S
C291 N293 1.384 . S
N292 C288 1.427 . S
N292 C289 1.384 . S
N293 C285 1.427 . S
N293 C291 1.384 . S
H294 C300 0.930 . S
H295 C304 0.930 . S
H296 C309 0.929 . S
H297 C307 0.929 . S
H298 C302 0.929 . S
H299 C308 0.929 . S
C300 H294 0.930 . S
C300 C301 1.385 . S
C300 C308 1.378 . S
C301 C300 1.385 . S
C301 C309 1.417 1_455 S
C302 H298 0.929 . S
C302 C304 1.378 . S
C302 C306 1.350 . S
C303 C306 1.462 1_455 S
C303 C308 1.350 . S
C303 N311 1.427 1_455 S
C304 H295 0.930 . S
C304 C302 1.378 . S
C304 C305 1.347 1_655 S
C305 C304 1.347 1_455 S
C305 C307 1.452 . S
C306 C302 1.350 . S
C306 C303 1.462 1_655 S
C306 N310 1.428 1_655 S
C307 H297 0.929 . S
C307 C305 1.452 . S
C307 N310 1.384 . S
C308 H299 0.929 . S
C308 C300 1.378 . S
C308 C303 1.350 . S
C309 H296 0.929 . S
C309 C301 1.417 1_655 S
C309 N311 1.384 . S
N310 C306 1.428 1_455 S
N310 C307 1.384 . S
N311 C303 1.427 1_655 S
N311 C309 1.384 . S
H312 C318 0.930 . S
H313 C322 0.930 . S
H314 C327 0.929 . S
H315 C325 0.929 . S
H316 C320 0.929 . S
H317 C326 0.929 . S
C318 H312 0.930 . S
C318 C319 1.380 . S
C318 C326 1.378 . S
C319 C318 1.380 . S
C319 C327 1.420 1_655 S
C320 H316 0.929 . S
C320 C322 1.378 . S
C320 C324 1.350 1_455 S
C321 C324 1.463 . S
C321 C326 1.350 . S
C321 N329 1.427 1_655 S
C322 H313 0.930 . S
C322 C320 1.378 . S
C322 C323 1.367 1_455 S
C323 C322 1.367 1_655 S
C323 C325 1.433 . S
C324 C320 1.350 1_655 S
C324 C321 1.463 . S
C324 N328 1.427 . S
C325 H315 0.929 . S
C325 C323 1.433 . S
C325 N328 1.384 . S
C326 H317 0.929 . S
C326 C318 1.378 . S
C326 C321 1.350 . S
C327 H314 0.929 . S
C327 C319 1.420 1_455 S
C327 N329 1.384 . S
N328 C324 1.427 . S
N328 C325 1.384 . S
N329 C321 1.427 1_455 S
N329 C327 1.384 . S
H330 C336 0.930 . S
H331 C340 0.930 . S
H332 C345 0.929 . S
H333 C343 0.925 1_565 S
H334 C338 0.929 . S
H335 C344 0.929 . S
C336 H330 0.930 . S
C336 C337 1.367 . S
C336 C344 1.378 . S
C337 C336 1.367 . S
C337 C345 1.433 . S
C338 H334 0.929 . S
C338 C340 1.378 . S
C338 C342 1.350 . S
C339 C342 1.463 . S
C339 C344 1.350 . S
C339 N347 1.427 . S
C340 H331 0.930 . S
C340 C338 1.378 . S
C340 C341 1.367 . S
C341 C340 1.367 . S
C341 C343 1.434 . S
C342 C338 1.350 . S
C342 C339 1.463 . S
C342 N346 1.427 . S
C343 H333 0.925 1_545 S
C343 C341 1.434 . S
C343 N346 1.387 . S
C344 H335 0.929 . S
C344 C336 1.378 . S
C344 C339 1.350 . S
C345 H332 0.929 . S
C345 C337 1.433 . S
C345 N347 1.384 . S
N346 C342 1.427 . S
N346 C343 1.387 . S
N347 C339 1.427 . S
N347 C345 1.384 . S
H348 C354 0.930 . S
H349 C358 0.930 . S
H350 C363 0.929 . S
H351 C361 0.929 . S
H352 C356 0.929 . S
H353 C362 0.929 . S
C354 H348 0.930 . S
C354 C355 1.367 . S
C354 C362 1.378 . S
C355 C354 1.367 . S
C355 C363 1.433 . S
C356 H352 0.929 . S
C356 C358 1.378 . S
C356 C360 1.350 . S
C357 C360 1.463 . S
C357 C362 1.350 . S
C357 N365 1.427 . S
C358 H349 0.930 . S
C358 C356 1.378 . S
C358 C359 1.367 . S
C359 C358 1.367 . S
C359 C361 1.433 . S
C360 C356 1.350 . S
C360 C357 1.463 . S
C360 N364 1.427 . S
C361 H351 0.929 . S
C361 C359 1.433 . S
C361 N364 1.384 . S
C362 H353 0.929 . S
C362 C354 1.378 . S
C362 C357 1.350 . S
C363 H350 0.929 . S
C363 C355 1.433 . S
C363 N365 1.384 . S
N364 C360 1.427 . S
N364 C361 1.384 . S
N365 C357 1.427 . S
N365 C363 1.384 . S
H366 C372 0.930 . S
H367 C376 0.930 . S
H368 C381 0.929 . S
H369 C379 0.929 . S
H370 C374 0.929 . S
H371 C380 0.929 . S
C372 H366 0.930 . S
C372 C373 1.367 . S
C372 C380 1.378 . S
C373 C372 1.367 . S
C373 C381 1.433 . S
C374 H370 0.929 . S
C374 C376 1.378 . S
C374 C378 1.350 . S
C375 C378 1.463 . S
C375 C380 1.350 . S
C375 N383 1.427 . S
C376 H367 0.930 . S
C376 C374 1.378 . S
C376 C377 1.367 . S
C377 C376 1.367 . S
C377 C379 1.433 . S
C378 C374 1.350 . S
C378 C375 1.463 . S
C378 N382 1.427 . S
C379 H369 0.929 . S
C379 C377 1.433 . S
C379 N382 1.384 . S
C380 H371 0.929 . S
C380 C372 1.378 . S
C380 C375 1.350 . S
C381 H368 0.929 . S
C381 C373 1.433 . S
C381 N383 1.384 . S
N382 C378 1.427 . S
N382 C379 1.384 . S
N383 C375 1.427 . S
N383 C381 1.384 . S
H384 C390 0.930 . S
H385 C394 0.930 . S
H386 C399 0.929 1_554 S
H387 C397 0.929 . S
H388 C392 0.929 . S
H389 C398 0.929 . S
C390 H384 0.930 . S
C390 C391 1.372 . S
C390 C398 1.378 . S
C391 C390 1.372 . S
C391 C399 1.428 1_655 S
C392 H388 0.929 . S
C392 C394 1.378 . S
C392 C396 1.350 . S
C393 C396 1.463 . S
C393 C398 1.350 1_455 S
C393 N401 1.427 . S
C394 H385 0.930 . S
C394 C392 1.378 . S
C394 C395 1.367 . S
C395 C394 1.367 . S
C395 C397 1.433 1_455 S
C396 C392 1.350 . S
C396 C393 1.463 . S
C396 N400 1.427 1_455 S
C397 H387 0.929 . S
C397 C395 1.433 1_655 S
C397 N400 1.384 . S
C398 H389 0.929 . S
C398 C390 1.378 . S
C398 C393 1.350 1_655 S
C399 H386 0.929 1_556 S
C399 C391 1.428 1_455 S
C399 N401 1.384 . S
N400 C396 1.427 1_655 S
N400 C397 1.384 . S
N401 C393 1.427 . S
N401 C399 1.384 . S
H402 C408 0.930 1_554 S
H403 C412 0.930 . S
H404 C417 0.929 . S
H405 C415 0.929 . S
H406 C410 0.929 . S
H407 C416 0.929 . S
C408 H402 0.930 1_556 S
C408 C409 1.367 . S
C408 C416 1.378 . S
C409 C408 1.367 . S
C409 C417 1.433 . S
C410 H406 0.929 . S
C410 C412 1.378 1_565 S
C410 C414 1.350 . S
C411 C414 1.463 . S
C411 C416 1.350 . S
C411 N419 1.427 . S
C412 H403 0.930 . S
C412 C410 1.378 1_545 S
C412 C413 1.367 1_545 S
C413 C412 1.367 1_565 S
C413 C415 1.433 . S
C414 C410 1.350 . S
C414 C411 1.463 . S
C414 N418 1.427 . S
C415 H405 0.929 . S
C415 C413 1.433 . S
C415 N418 1.384 . S
C416 H407 0.929 . S
C416 C408 1.378 . S
C416 C411 1.350 . S
C417 H404 0.929 . S
C417 C409 1.433 . S
C417 N419 1.384 . S
N418 C414 1.427 . S
N418 C415 1.384 . S
N419 C411 1.427 . S
N419 C417 1.384 . S
H420 C426 0.930 . S
H421 C430 0.930 . S
H422 C435 0.929 . S
H423 C433 0.929 . S
H424 C428 0.929 . S
H425 C434 0.929 . S
C426 H420 0.930 . S
C426 C427 1.367 1_556 S
C426 C434 1.378 . S
C427 C426 1.367 1_554 S
C427 C435 1.433 . S
C428 H424 0.929 . S
C428 C430 1.378 . S
C428 C432 1.350 . S
C429 C432 1.463 . S
C429 C434 1.350 . S
C429 N437 1.427 . S
C430 H421 0.930 . S
C430 C428 1.378 . S
C430 C431 1.367 . S
C431 C430 1.367 . S
C431 C433 1.433 . S
C432 C428 1.350 . S
C432 C429 1.463 . S
C432 N436 1.427 . S
C433 H423 0.929 . S
C433 C431 1.433 . S
C433 N436 1.384 . S
C434 H425 0.929 . S
C434 C426 1.378 . S
C434 C429 1.350 . S
C435 H422 0.929 . S
C435 C427 1.433 . S
C435 N437 1.384 1_554 S
N436 C432 1.427 . S
N436 C433 1.384 . S
N437 C429 1.427 . S
N437 C435 1.384 1_556 S
H438 C444 0.930 . S
H439 C448 0.930 . S
H440 C453 0.934 . S
H441 C451 0.929 . S
H442 C446 0.929 . S
H443 C452 0.929 . S
C444 H438 0.930 . S
C444 C445 1.367 . S
C444 C452 1.378 . S
C445 C444 1.367 . S
C445 C453 1.433 . S
C446 H442 0.929 . S
C446 C448 1.378 . S
C446 C450 1.350 . S
C447 C450 1.463 . S
C447 C452 1.350 . S
C447 N455 1.427 . S
C448 H439 0.930 . S
C448 C446 1.378 . S
C448 C449 1.367 . S
C449 C448 1.367 . S
C449 C451 1.433 . S
C450 C446 1.350 . S
C450 C447 1.463 . S
C450 N454 1.427 . S
C451 H441 0.929 . S
C451 C449 1.433 . S
C451 N454 1.384 . S
C452 H443 0.929 . S
C452 C444 1.378 . S
C452 C447 1.350 . S
C453 H440 0.934 . S
C453 C445 1.433 . S
C453 N455 1.384 . S
N454 C450 1.427 . S
N454 C451 1.384 . S
N455 C447 1.427 . S
N455 C453 1.384 . S
H456 C462 0.930 . S
H457 C466 0.930 . S
H458 C471 0.929 . S
H459 C469 0.929 . S
H460 C464 0.929 . S
H461 C470 0.929 . S
C462 H456 0.930 . S
C462 C463 1.367 . S
C462 C470 1.378 . S
C463 C462 1.367 . S
C463 C471 1.433 1_455 S
C464 H460 0.929 . S
C464 C466 1.378 . S
C464 C468 1.350 1_655 S
C465 C468 1.463 . S
C465 C470 1.350 . S
C465 N473 1.427 1_455 S
C466 H457 0.930 . S
C466 C464 1.378 . S
C466 C467 1.367 1_655 S
C467 C466 1.367 1_455 S
C467 C469 1.433 . S
C468 C464 1.350 1_455 S
C468 C465 1.463 . S
C468 N472 1.427 . S
C469 H459 0.929 . S
C469 C467 1.433 . S
C469 N472 1.384 . S
C470 H461 0.929 . S
C470 C462 1.378 . S
C470 C465 1.350 . S
C471 H458 0.929 . S
C471 C463 1.433 1_655 S
C471 N473 1.384 . S
N472 C468 1.427 . S
N472 C469 1.384 . S
N473 C465 1.427 1_655 S
N473 C471 1.384 . S
H474 C480 0.930 . S
H475 C484 0.930 . S
H476 C489 0.929 . S
H477 C487 0.929 . S
H478 C482 0.929 1_565 S
H479 C488 0.929 . S
C480 H474 0.930 . S
C480 C481 1.367 . S
C480 C488 1.378 . S
C481 C480 1.367 . S
C481 C489 1.433 . S
C482 H478 0.929 1_545 S
C482 C484 1.378 1_545 S
C482 C486 1.350 . S
C483 C486 1.463 . S
C483 C488 1.350 . S
C483 N491 1.427 . S
C484 H475 0.930 . S
C484 C482 1.378 1_565 S
C484 C485 1.367 1_565 S
C485 C484 1.367 1_545 S
C485 C487 1.433 . S
C486 C482 1.350 . S
C486 C483 1.463 . S
C486 N490 1.427 . S
C487 H477 0.929 . S
C487 C485 1.433 . S
C487 N490 1.384 . S
C488 H479 0.929 . S
C488 C480 1.378 . S
C488 C483 1.350 . S
C489 H476 0.929 . S
C489 C481 1.433 . S
C489 N491 1.384 . S
N490 C486 1.427 . S
N490 C487 1.384 . S
N491 C483 1.427 . S
N491 C489 1.384 . S
H492 C498 0.930 . S
H493 C502 0.930 . S
H494 C507 0.929 . S
H495 C505 0.929 . S
H496 C500 0.929 . S
H497 C506 0.929 . S
C498 H492 0.930 . S
C498 C499 1.367 . S
C498 C506 1.378 . S
C499 C498 1.367 . S
C499 C507 1.433 . S
C500 H496 0.929 . S
C500 C502 1.378 . S
C500 C504 1.350 . S
C501 C504 1.463 . S
C501 C506 1.350 . S
C501 N509 1.427 . S
C502 H493 0.930 . S
C502 C500 1.378 . S
C502 C503 1.367 . S
C503 C502 1.367 . S
C503 C505 1.433 . S
C504 C500 1.350 . S
C504 C501 1.463 . S
C504 N508 1.427 . S
C505 H495 0.929 . S
C505 C503 1.433 . S
C505 N508 1.384 . S
C506 H497 0.929 . S
C506 C498 1.378 . S
C506 C501 1.350 . S
C507 H494 0.929 . S
C507 C499 1.433 . S
C507 N509 1.384 . S
N508 C504 1.427 . S
N508 C505 1.384 . S
N509 C501 1.427 . S
N509 C507 1.384 . S
H510 C516 0.930 . S
H511 C520 0.930 . S
H512 C525 0.929 . S
H513 C523 0.929 . S
H514 C518 0.929 . S
H515 C524 0.929 . S
C516 H510 0.930 . S
C516 C517 1.367 . S
C516 C524 1.378 . S
C517 C516 1.367 . S
C517 C525 1.433 . S
C518 H514 0.929 . S
C518 C520 1.378 . S
C518 C522 1.350 . S
C519 C522 1.463 . S
C519 C524 1.350 . S
C519 N527 1.427 . S
C520 H511 0.930 . S
C520 C518 1.378 . S
C520 C521 1.367 . S
C521 C520 1.367 . S
C521 C523 1.433 . S
C522 C518 1.350 . S
C522 C519 1.463 . S
C522 N526 1.427 . S
C523 H513 0.929 . S
C523 C521 1.433 . S
C523 N526 1.384 . S
C524 H515 0.929 . S
C524 C516 1.378 . S
C524 C519 1.350 . S
C525 H512 0.929 . S
C525 C517 1.433 . S
C525 N527 1.384 . S
N526 C522 1.427 . S
N526 C523 1.384 . S
N527 C519 1.427 . S
N527 C525 1.384 . S
H528 C534 0.930 . S
H529 C538 0.930 . S
H530 C543 0.929 . S
H531 C541 0.929 . S
H532 C536 0.929 . S
H533 C542 0.929 . S
C534 H528 0.930 . S
C534 C535 1.367 . S
C534 C542 1.378 . S
C535 C534 1.367 . S
C535 C543 1.433 1_655 S
C536 H532 0.929 . S
C536 C538 1.378 . S
C536 C540 1.350 1_455 S
C537 C540 1.463 . S
C537 C542 1.350 . S
C537 N545 1.427 1_655 S
C538 H529 0.930 . S
C538 C536 1.378 . S
C538 C539 1.367 1_455 S
C539 C538 1.367 1_655 S
C539 C541 1.433 . S
C540 C536 1.350 1_655 S
C540 C537 1.463 . S
C540 N544 1.427 . S
C541 H531 0.929 . S
C541 C539 1.433 . S
C541 N544 1.384 . S
C542 H533 0.929 . S
C542 C534 1.378 . S
C542 C537 1.350 . S
C543 H530 0.929 . S
C543 C535 1.433 1_455 S
C543 N545 1.384 . S
N544 C540 1.427 . S
N544 C541 1.384 . S
N545 C537 1.427 1_455 S
N545 C543 1.384 . S
H546 C552 0.930 . S
H547 C556 0.930 . S
H548 C561 0.929 . S
H549 C559 0.929 . S
H550 C554 0.929 . S
H551 C560 0.929 . S
C552 H546 0.930 . S
C552 C553 1.367 . S
C552 C560 1.378 . S
C553 C552 1.367 . S
C553 C561 1.433 . S
C554 H550 0.929 . S
C554 C556 1.378 . S
C554 C558 1.350 . S
C555 C558 1.463 . S
C555 C560 1.350 . S
C555 N563 1.427 . S
C556 H547 0.930 . S
C556 C554 1.378 . S
C556 C557 1.367 . S
C557 C556 1.367 . S
C557 C559 1.433 . S
C558 C554 1.350 . S
C558 C555 1.463 . S
C558 N562 1.427 . S
C559 H549 0.929 . S
C559 C557 1.433 . S
C559 N562 1.384 . S
C560 H551 0.929 . S
C560 C552 1.378 . S
C560 C555 1.350 . S
C561 H548 0.929 . S
C561 C553 1.433 . S
C561 N563 1.384 . S
N562 C558 1.427 . S
N562 C559 1.384 . S
N563 C555 1.427 . S
N563 C561 1.384 . S
H564 C570 0.930 . S
H565 C574 0.930 . S
H566 C579 0.929 . S
H567 C577 0.929 . S
H568 C572 0.929 . S
H569 C578 0.929 . S
C570 H564 0.930 . S
C570 C571 1.367 . S
C570 C578 1.378 . S
C571 C570 1.367 . S
C571 C579 1.433 . S
C572 H568 0.929 . S
C572 C574 1.378 . S
C572 C576 1.350 . S
C573 C576 1.463 . S
C573 C578 1.350 . S
C573 N581 1.427 . S
C574 H565 0.930 . S
C574 C572 1.378 . S
C574 C575 1.367 . S
C575 C574 1.367 . S
C575 C577 1.433 . S
C576 C572 1.350 . S
C576 C573 1.463 . S
C576 N580 1.427 . S
C577 H567 0.929 . S
C577 C575 1.433 . S
C577 N580 1.384 . S
C578 H569 0.929 . S
C578 C570 1.378 . S
C578 C573 1.350 . S
C579 H566 0.929 . S
C579 C571 1.433 . S
C579 N581 1.384 . S
N580 C576 1.427 . S
N580 C577 1.384 . S
N581 C573 1.427 . S
N581 C579 1.384 . S
H582 C588 0.930 . S
H583 C592 0.930 . S
H584 C597 0.929 . S
H585 C595 0.929 . S
H586 C590 0.929 . S
H587 C596 0.929 . S
C588 H582 0.930 . S
C588 C589 1.367 . S
C588 C596 1.378 . S
C589 C588 1.367 . S
C589 C597 1.433 . S
C590 H586 0.929 . S
C590 C592 1.378 . S
C590 C594 1.350 . S
C591 C594 1.463 . S
C591 C596 1.350 . S
C591 N599 1.427 . S
C592 H583 0.930 . S
C592 C590 1.378 . S
C592 C593 1.367 . S
C593 C592 1.367 . S
C593 C595 1.433 . S
C594 C590 1.350 . S
C594 C591 1.463 . S
C594 N598 1.427 . S
C595 H585 0.929 . S
C595 C593 1.433 . S
C595 N598 1.384 . S
C596 H587 0.929 . S
C596 C588 1.378 . S
C596 C591 1.350 . S
C597 H584 0.929 . S
C597 C589 1.433 . S
C597 N599 1.384 . S
N598 C594 1.427 . S
N598 C595 1.384 . S
N599 C591 1.427 . S
N599 C597 1.384 . S
C175 C76 1.652 . S
C179 C96 1.704 . S
C197 C126 1.797 . S
C193 C87 1.737 . S
C215 C136 1.531 . S
C211 C54 1.463 . S
C233 C156 1.394 . S
C229 C65 1.346 1_455 S
C251 C97 1.706 . S
C247 C32 1.665 . S
C265 C43 1.744 . S
C269 C127 1.799 . S
C283 C10 1.461 1_556 S
C287 C137 1.526 . S
C301 C21 1.344 1_455 S
C305 C157 1.403 . S
C323 C89 0.847 . S
C319 C60 0.856 1_655 S
C341 C110 0.580 . S
C337 C71 0.621 . S
C359 C129 1.005 . S
C355 C82 1.008 . S
C373 C49 0.744 . S
C377 C149 0.751 . S
C391 C16 0.854 1_655 S
C395 C90 0.849 . S
C413 C109 0.555 1_565 S
C409 C27 0.597 . S
C431 C130 1.011 . S
C427 C38 1.007 . S
C445 C5 0.756 1_556 S
C449 C150 0.755 . S
C463 C59 1.519 . S
C467 C107 1.592 . S
C481 C70 1.392 1_556 S
C485 C117 1.493 . S
C503 C147 1.800 . S
C499 C81 1.678 . S
C521 C167 1.796 . S
C517 C48 1.692 . S
C535 C15 1.506 1_655 S
C539 C106 1.592 . S
C557 C116 1.492 . S
C553 C26 1.375 . S
C575 C146 1.793 . S
C571 C37 1.682 . S
C589 C4 1.685 . S
C593 C166 1.796 . S
