# Generated by pormake.
# Topology zzz, (3,6)-cn, num edge types: 1
# Building blocks:
#     Node 0, Type 0, BuildingBlock: KAKCAD_clean_linker_0, # of connection points: 3
#     Node 1, Type 0, BuildingBlock: KAKCAD_clean_linker_0, # of connection points: 3
#     Node 2, Type 0, BuildingBlock: KAKCAD_clean_linker_0, # of connection points: 3
#     Node 3, Type 0, BuildingBlock: KAKCAD_clean_linker_0, # of connection points: 3
#     Node 4, Type 0, BuildingBlock: KAKCAD_clean_linker_0, # of connection points: 3
#     Node 5, Type 0, BuildingBlock: KAKCAD_clean_linker_0, # of connection points: 3
#     Node 6, Type 0, BuildingBlock: KAKCAD_clean_linker_0, # of connection points: 3
#     Node 7, Type 0, BuildingBlock: KAKCAD_clean_linker_0, # of connection points: 3
#     Node 8, Type 1, BuildingBlock: KUMBOL_clean_sbu_1, # of connection points: 6
#     Node 9, Type 1, BuildingBlock: KUMBOL_clean_sbu_1, # of connection points: 6
#     Node 10, Type 1, BuildingBlock: KUMBOL_clean_sbu_1, # of connection points: 6
#     Node 11, Type 1, BuildingBlock: KUMBOL_clean_sbu_1, # of connection points: 6
#     Edge 12, Type (0, 1), BuildingBlock: UVAHIK_clean_linker_0, # of connection points: 2
#     Edge 13, Type (0, 1), BuildingBlock: UVAHIK_clean_linker_0, # of connection points: 2
#     Edge 14, Type (0, 1), BuildingBlock: UVAHIK_clean_linker_0, # of connection points: 2
#     Edge 15, Type (0, 1), BuildingBlock: UVAHIK_clean_linker_0, # of connection points: 2
#     Edge 16, Type (0, 1), BuildingBlock: UVAHIK_clean_linker_0, # of connection points: 2
#     Edge 17, Type (0, 1), BuildingBlock: UVAHIK_clean_linker_0, # of connection points: 2
#     Edge 18, Type (0, 1), BuildingBlock: UVAHIK_clean_linker_0, # of connection points: 2
#     Edge 19, Type (0, 1), BuildingBlock: UVAHIK_clean_linker_0, # of connection points: 2
#     Edge 20, Type (0, 1), BuildingBlock: UVAHIK_clean_linker_0, # of connection points: 2
#     Edge 21, Type (0, 1), BuildingBlock: UVAHIK_clean_linker_0, # of connection points: 2
#     Edge 22, Type (0, 1), BuildingBlock: UVAHIK_clean_linker_0, # of connection points: 2
#     Edge 23, Type (0, 1), BuildingBlock: UVAHIK_clean_linker_0, # of connection points: 2
#     Edge 24, Type (0, 1), BuildingBlock: UVAHIK_clean_linker_0, # of connection points: 2
#     Edge 25, Type (0, 1), BuildingBlock: UVAHIK_clean_linker_0, # of connection points: 2
#     Edge 26, Type (0, 1), BuildingBlock: UVAHIK_clean_linker_0, # of connection points: 2
#     Edge 27, Type (0, 1), BuildingBlock: UVAHIK_clean_linker_0, # of connection points: 2
#     Edge 28, Type (0, 1), BuildingBlock: UVAHIK_clean_linker_0, # of connection points: 2
#     Edge 29, Type (0, 1), BuildingBlock: UVAHIK_clean_linker_0, # of connection points: 2
#     Edge 30, Type (0, 1), BuildingBlock: UVAHIK_clean_linker_0, # of connection points: 2
#     Edge 31, Type (0, 1), BuildingBlock: UVAHIK_clean_linker_0, # of connection points: 2
#     Edge 32, Type (0, 1), BuildingBlock: UVAHIK_clean_linker_0, # of connection points: 2
#     Edge 33, Type (0, 1), BuildingBlock: UVAHIK_clean_linker_0, # of connection points: 2
#     Edge 34, Type (0, 1), BuildingBlock: UVAHIK_clean_linker_0, # of connection points: 2
#     Edge 35, Type (0, 1), BuildingBlock: UVAHIK_clean_linker_0, # of connection points: 2
# Relax obj value: 0.286
# Max RMSD: 0.210
# Mean RMSD: 0.179
data_MOF--net-zzz--node1-KUMBOL_clean_sbu_1--node2-KAKCAD_clean_linker_0--edge1-UVAHIK_clean_linker_0
_symmetry_space_group_name_H-M    P1
_symmetry_Int_Tables_number       1
_symmetry_cell_setting            triclinic
loop_
_symmetry_equiv_pos_as_xyz
'x, y, z'
_cell_length_a     70.96829
_cell_length_b     71.10132
_cell_length_c     26.184919
_cell_angle_alpha  89.992287
_cell_angle_beta   89.899446
_cell_angle_gamma 90.454434
loop_
_atom_site_label
_atom_site_type_symbol
_atom_site_fract_x
_atom_site_fract_y
_atom_site_fract_z
_atom_type_partial_charge
C0 C 0.78975 0.58573 0.97681 0.0
C1 C 0.80711 0.57664 0.97061 0.0
C2 C 0.77823 0.58158 0.01882 0.0
C3 C 0.78378 0.56814 0.05518 0.0
C4 C 0.80146 0.55961 0.04979 0.0
C5 C 0.81299 0.56384 0.00814 0.0
C6 C 0.77072 0.56185 0.09636 0.0
C7 C 0.75155 0.55898 0.08597 0.0
C8 C 0.73929 0.55123 0.12273 0.0
C9 C 0.7466 0.54586 0.17075 0.0
C10 C 0.76581 0.5492 0.18211 0.0
C11 C 0.77758 0.55731 0.14492 0.0
C12 C 0.77458 0.54393 0.23144 0.0
C13 C 0.78191 0.5581 0.26326 0.0
C14 C 0.77966 0.5252 0.24064 0.0
C15 C 0.79275 0.52087 0.27895 0.0
C16 C 0.80098 0.5352 0.30894 0.0
C17 C 0.71911 0.54869 0.10836 0.0
C18 C 0.70954 0.56367 0.08519 0.0
C19 C 0.71031 0.53093 0.10988 0.0
C20 C 0.69282 0.52801 0.08579 0.0
C21 C 0.68376 0.54281 0.05982 0.0
C22 C 0.69218 0.56078 0.06124 0.0
C23 C 0.79484 0.55379 0.30181 0.0
H24 H 0.78492 0.59576 0.94868 0.0
H25 H 0.76481 0.58863 0.02228 0.0
H26 H 0.80607 0.54894 0.07642 0.0
H27 H 0.8261 0.5563 1.004 0.0
H28 H 0.74621 0.56207 0.04815 0.0
H29 H 0.79233 0.55972 0.15369 0.0
H30 H 0.73743 0.53954 0.19919 0.0
H31 H 0.77853 0.57271 0.25617 0.0
H32 H 0.77451 0.51408 0.21594 0.0
H33 H 0.79699 0.50638 0.28375 0.0
H34 H 0.71597 0.57753 0.08341 0.0
H35 H 0.71741 0.5191 0.12714 0.0
H36 H 0.80097 0.56521 0.32369 0.0
H37 H 0.68591 0.57253 0.04141 0.0
H38 H 0.68666 0.51403 0.08633 0.0
C39 C 0.93539 0.78245 0.98338 0.0
C40 C 0.942 0.80097 0.97875 0.0
C41 C 0.94063 0.77152 0.02537 0.0
C42 C 0.95311 0.77876 0.06251 0.0
C43 C 0.95907 0.79764 0.05833 0.0
C44 C 0.95342 0.80865 0.01714 0.0
C45 C 0.96114 0.76639 0.1029 0.0
C46 C 0.96497 0.74745 0.09244 0.0
C47 C 0.97384 0.73585 0.12845 0.0
C48 C 0.97967 0.74367 0.17556 0.0
C49 C 0.9758 0.7627 0.18665 0.0
C50 C 0.96628 0.7737 0.15068 0.0
C51 C 0.98186 0.77212 0.23445 0.0
C52 C 0.9691 0.77392 0.27512 0.0
C53 C 0.99821 0.78337 0.23412 0.0
C54 C 1.00125 0.7969 0.27223 0.0
C55 C 0.9879 0.79962 0.31138 0.0
C56 C 0.97704 0.71583 0.11412 0.0
C57 C 0.96209 0.70535 0.09295 0.0
C58 C 0.99519 0.70811 0.11338 0.0
C59 C 0.99847 0.69082 0.08889 0.0
C60 C 0.98365 0.68089 0.0647 0.0
C61 C 0.96534 0.68822 0.0685 0.0
C62 C 0.97214 0.78744 0.31333 0.0
H63 H 0.92664 0.77629 0.95382 0.0
H64 H 0.93533 0.75723 0.02781 0.0
H65 H 0.96894 0.80372 0.08524 0.0
H66 H 0.95893 0.82286 0.01361 0.0
H67 H 0.96168 0.74172 0.05515 0.0
H68 H 0.96314 0.78819 0.16003 0.0
H69 H 0.98694 0.73507 0.20328 0.0
H70 H 0.95618 0.76571 0.27557 0.0
H71 H 0.00798 0.7826 0.20236 0.0
H72 H 0.01344 0.80608 0.26892 0.0
H73 H 0.94793 0.71094 0.09294 0.0
H74 H 0.007 0.71591 0.12908 0.0
H75 H 0.9617 0.78886 0.34326 0.0
H76 H 0.95354 0.68129 0.0501 0.0
H77 H 0.01272 0.68552 0.08766 0.0
C78 C 0.72508 0.93658 1.00179 0.0
C79 C 0.70671 0.94352 0.00657 0.0
C80 C 0.73877 0.94119 0.03831 0.0
C81 C 0.73441 0.95322 0.07945 0.0
C82 C 0.71592 0.96007 0.08367 0.0
C83 C 0.70224 0.95511 0.04807 0.0
C84 C 0.74905 0.95948 0.11667 0.0
C85 C 0.76767 0.96292 0.10105 0.0
C86 C 0.78112 0.97057 0.1348 0.0
C87 C 0.77545 0.97567 0.18475 0.0
C88 C 0.75685 0.97182 0.20123 0.0
C89 C 0.74408 0.96335 0.16741 0.0
C90 C 0.74943 0.97731 0.25212 0.0
C91 C 0.74243 0.9633 0.28512 0.0
C92 C 0.74458 0.99611 0.2614 0.0
C93 C 0.73183 1.00062 0.30051 0.0
C94 C 0.72369 0.98642 0.33122 0.0
C95 C 0.8008 0.97315 0.11578 0.0
C96 C 0.80947 0.95843 0.08892 0.0
C97 C 0.81016 0.99062 0.11856 0.0
C98 C 0.82733 0.99351 0.09262 0.0
C99 C 0.83555 0.97896 0.06368 0.0
C100 C 0.82652 0.96128 0.06324 0.0
C101 C 0.72981 0.9678 0.32438 0.0
H102 H 0.72882 0.9277 0.96978 0.0
H103 H 0.75276 0.93544 0.03404 0.0
H104 H 0.71205 0.96983 0.11352 0.0
H105 H 0.68828 0.96103 0.05184 0.0
H106 H 0.77168 0.96027 0.06177 0.0
H107 H 0.72989 0.96032 0.18061 0.0
H108 H 0.78544 0.98213 0.21074 0.0
H109 H 0.74562 0.94866 0.27805 0.0
H110 H 0.74945 0.00712 0.23588 0.0
H111 H 0.72765 0.01514 0.30511 0.0
H112 H 0.80265 0.94477 0.08623 0.0
H113 H 0.80379 1.00226 0.13872 0.0
H114 H 0.72379 0.95646 0.34684 0.0
H115 H 0.83216 0.94976 0.04109 0.0
H116 H 0.83397 0.00726 0.09449 0.0
C117 C 0.52284 0.72889 0.28628 0.0
C118 C 0.5362 0.71482 0.29622 0.0
C119 C 0.52623 0.74253 0.24822 0.0
C120 C 0.5431 0.74236 0.21983 0.0
C121 C 0.55696 0.72913 0.23299 0.0
C122 C 0.55348 0.71546 0.27021 0.0
C123 C 0.54553 0.75372 0.1721 0.0
C124 C 0.5413 0.77316 0.16895 0.0
C125 C 0.5446 0.78306 0.12285 0.0
C126 C 0.55146 0.77336 0.08019 0.0
C127 C 0.555 0.75408 0.08213 0.0
C128 C 0.55212 0.74444 0.12811 0.0
C129 C 0.56076 0.74388 0.03527 0.0
C130 C 0.55177 0.74764 0.98866 0.0
C131 C 0.57466 0.72992 0.03693 0.0
C132 C 0.57904 0.71954 0.99318 0.0
C133 C 0.56958 0.72291 0.94696 0.0
C134 C 0.541 0.80348 0.11597 0.0
C135 C 0.5225 0.81016 0.11213 0.0
C136 C 0.55588 0.81513 0.09938 0.0
C137 C 0.55232 0.83232 0.07544 0.0
C138 C 0.53372 0.83847 0.06761 0.0
C139 C 0.51889 0.82751 0.08842 0.0
C140 C 0.55613 0.7373 0.94507 0.0
H141 H 0.50938 0.72867 0.30586 0.0
H142 H 0.51525 0.75244 0.23895 0.0
H143 H 0.57025 0.72878 0.21261 0.0
H144 H 0.56409 0.70493 0.2775 0.0
H145 H 0.53601 0.78055 0.20211 0.0
H146 H 0.55445 0.72939 0.12919 0.0
H147 H 0.55388 0.78093 0.04476 0.0
H148 H 0.54079 0.75809 0.98626 0.0
H149 H 0.58201 0.72691 0.07218 0.0
H150 H 0.58958 0.70865 0.99575 0.0
H151 H 0.51074 0.80134 0.12387 0.0
H152 H 0.57027 0.81018 0.10111 0.0
H153 H 0.54825 0.73999 0.9105 0.0
H154 H 0.5044 0.83189 0.08438 0.0
H155 H 0.5642 0.84003 0.05978 0.0
C156 C 0.2414 0.4556 0.26726 0.0
C157 C 0.22653 0.44269 0.26039 0.0
C158 C 0.25184 0.46205 0.22561 0.0
C159 C 0.24778 0.45569 0.17597 0.0
C160 C 0.23354 0.44205 0.1693 0.0
C161 C 0.22301 0.43562 0.21112 0.0
C162 C 0.25751 0.46441 0.13146 0.0
C163 C 0.27662 0.46927 0.13461 0.0
C164 C 0.28543 0.47996 0.09637 0.0
C165 C 0.27511 0.48523 0.05266 0.0
C166 C 0.2559 0.48002 0.04838 0.0
C167 C 0.24732 0.46968 0.08795 0.0
C168 C 0.2439 0.48607 1.00501 0.0
C169 C 0.22861 0.49803 0.01431 0.0
C170 C 0.24555 0.4776 0.95679 0.0
C171 C 0.23166 0.48038 0.91938 0.0
C172 C 0.21591 0.4918 0.92936 0.0
C173 C 0.30474 0.48692 0.10737 0.0
C174 C 0.30694 0.50169 0.14244 0.0
C175 C 0.32043 0.47592 0.0951 0.0
C176 C 0.33778 0.47902 0.1196 0.0
C177 C 0.33969 0.49296 0.15768 0.0
C178 C 0.32414 0.50467 0.16732 0.0
C179 C 0.21486 0.50096 0.97691 0.0
H180 H 0.24425 0.46165 0.30444 0.0
H181 H 0.26245 0.47281 0.23216 0.0
H182 H 0.23026 0.43667 0.13163 0.0
H183 H 0.21173 0.42554 0.20469 0.0
H184 H 0.28464 0.46534 0.16814 0.0
H185 H 0.2324 0.46637 0.08555 0.0
H186 H 0.2817 0.49382 0.02337 0.0
H187 H 0.22687 0.5045 0.05147 0.0
H188 H 0.25705 0.46809 0.94898 0.0
H189 H 0.23302 0.47324 0.88305 0.0
H190 H 0.29489 0.51001 0.15365 0.0
H191 H 0.31897 0.46417 0.06906 0.0
H192 H 0.2029 0.50966 0.98632 0.0
H193 H 0.32474 0.51535 0.1967 0.0
H194 H 0.34945 0.46993 0.11018 0.0
C195 C 0.0654 0.2421 0.27945 0.0
C196 C 0.07973 0.2287 0.27479 0.0
C197 C 0.05897 0.2518 0.23675 0.0
C198 C 0.06681 0.24848 0.18824 0.0
C199 C 0.08176 0.23571 0.1839 0.0
C200 C 0.08812 0.22587 0.22675 0.0
C201 C 0.05851 0.25756 0.1424 0.0
C202 C 0.05193 0.27601 0.14523 0.0
C203 C 0.0419 0.28408 0.10491 0.0
C204 C 0.03895 0.27367 0.05962 0.0
C205 C 0.04611 0.25519 0.0553 0.0
C206 C 0.0557 0.24734 0.0972 0.0
C207 C 0.0431 0.2432 0.00903 0.0
C208 C 0.02519 0.24107 0.98676 0.0
C209 C 0.05787 0.23193 0.99078 0.0
C210 C 0.05465 0.21815 0.95364 0.0
C211 C 0.03655 0.21524 0.93306 0.0
C212 C 0.03404 0.30305 0.114 0.0
C213 C 0.01984 0.30501 0.15096 0.0
C214 C 0.04392 0.31914 0.0977 0.0
C215 C 0.04048 0.33668 0.12048 0.0
C216 C 0.02724 0.33842 0.16049 0.0
C217 C 0.01647 0.32243 0.17391 0.0
C218 C 0.02195 0.22724 0.94927 0.0
H219 H 0.05833 0.24432 0.31563 0.0
H220 H 0.04719 0.26123 0.24152 0.0
H221 H 0.08831 0.23305 0.14723 0.0
H222 H 0.09926 0.21568 0.22209 0.0
H223 H 0.05425 0.28416 0.17971 0.0
H224 H 0.06021 0.23283 0.09544 0.0
H225 H 0.03114 0.27984 0.0284 0.0
H226 H 0.01349 0.24945 1.00003 0.0
H227 H 0.07189 0.23329 0.00674 0.0
H228 H 0.06627 0.2092 0.94291 0.0
H229 H 0.01237 0.29272 0.1651 0.0
H230 H 0.05521 0.31792 0.07006 0.0
H231 H 0.00789 0.22572 0.93378 0.0
H232 H 0.00635 0.32296 0.20481 0.0
H233 H 0.04881 0.34869 0.10826 0.0
C234 C 0.29388 0.07888 0.24046 0.0
C235 C 0.30485 0.09328 0.21828 0.0
C236 C 0.28078 0.06886 0.21123 0.0
C237 C 0.2784 0.073 0.1592 0.0
C238 C 0.28824 0.08838 0.13808 0.0
C239 C 0.30131 0.09845 0.16736 0.0
C240 C 0.26752 0.05994 0.12607 0.0
C241 C 0.25041 0.05213 0.14268 0.0
C242 C 0.24117 0.03808 0.11422 0.0
C243 C 0.24934 0.03171 0.06813 0.0
C244 C 0.26655 0.03961 0.05085 0.0
C245 C 0.2753 0.05378 0.07987 0.0
C246 C 0.27681 0.03263 1.00512 0.0
C247 C 0.28428 0.0144 1.00446 0.0
C248 C 0.28259 0.04546 0.96725 0.0
C249 C 0.29633 0.04056 0.93132 0.0
C250 C 0.30482 0.02275 0.93263 0.0
C251 C 0.22337 0.03009 0.13523 0.0
C252 C 0.22331 0.02238 0.18462 0.0
C253 C 0.20607 0.03293 0.11052 0.0
C254 C 0.18901 0.02908 0.13597 0.0
C255 C 0.18895 0.02215 0.18645 0.0
C256 C 0.20637 0.01839 0.2098 0.0
C257 C 0.2982 0.00952 0.9687 0.0
H258 H 0.29637 0.07435 0.27934 0.0
H259 H 0.27353 0.057 0.22854 0.0
H260 H 0.28643 0.0921 0.09828 0.0
H261 H 0.30931 0.10968 0.14943 0.0
H262 H 0.24426 0.05692 0.1783 0.0
H263 H 0.2889 0.05926 0.06774 0.0
H264 H 0.24258 0.02058 0.04648 0.0
H265 H 0.2803 1.00434 0.03371 0.0
H266 H 0.27725 0.05969 0.96734 0.0
H267 H 0.30112 0.05119 0.90456 0.0
H268 H 0.23646 0.02024 0.20471 0.0
H269 H 0.20574 0.0391 0.0727 0.0
H270 H 0.30424 0.9956 0.97044 0.0
H271 H 0.20697 0.01329 0.24873 0.0
H272 H 0.17588 0.03195 0.11661 0.0
C273 C 0.47246 0.29072 0.91553 0.0
C274 C 0.49084 0.29835 0.91461 0.0
C275 C 0.46755 0.27646 0.94998 0.0
C276 C 0.48077 0.26951 0.98504 0.0
C277 C 0.49951 0.27589 0.98145 0.0
C278 C 0.50451 0.29011 0.94654 0.0
C279 C 0.47399 0.25965 0.03195 0.0
C280 C 0.48238 0.24317 0.05145 0.0
C281 C 0.47674 0.23601 0.09958 0.0
C282 C 0.46318 0.24576 0.12823 0.0
C283 C 0.45493 0.26223 0.10958 0.0
C284 C 0.45992 0.26854 0.06066 0.0
C285 C 0.44305 0.27418 0.14335 0.0
C286 C 0.43097 0.2663 0.18052 0.0
C287 C 0.44513 0.29385 0.14145 0.0
C288 C 0.43607 0.30526 0.17671 0.0
C289 C 0.42488 0.29738 0.21561 0.0
C290 C 0.48507 0.21878 0.12238 0.0
C291 C 0.48342 0.20124 0.09802 0.0
C292 C 0.49214 0.21941 0.17248 0.0
C293 C 0.49649 0.20288 0.19869 0.0
C294 C 0.49388 0.18518 0.17561 0.0
C295 C 0.48771 0.1846 0.12443 0.0
C296 C 0.42208 0.2778 0.21663 0.0
H297 H 0.4614 0.2966 0.89219 0.0
H298 H 0.45297 0.27187 0.95192 0.0
H299 H 0.50998 0.27093 0.0082 0.0
H300 H 0.51893 0.29519 0.94621 0.0
H301 H 0.49337 0.23623 0.02996 0.0
H302 H 0.45354 0.2812 0.04581 0.0
H303 H 0.45953 0.24076 0.16609 0.0
H304 H 0.4288 0.25123 0.1827 0.0
H305 H 0.45468 0.30055 0.11465 0.0
H306 H 0.439 0.32023 0.17557 0.0
H307 H 0.47787 0.20033 0.05959 0.0
H308 H 0.49352 0.23273 0.19226 0.0
H309 H 0.41356 0.27136 0.24629 0.0
H310 H 0.48578 0.17125 0.10515 0.0
H311 H 0.501 0.20399 0.23806 0.0
C312 C 0.04948 0.03024 0.7317 0.0
C313 C 0.03376 0.03151 0.81377 0.0
C314 C 0.03558 0.02369 0.76453 0.0
C315 C 0.04552 0.04657 0.82835 0.0
C316 C 0.06194 0.0447 0.747 0.0
C317 C 0.05961 0.05312 0.79509 0.0
N318 N 0.05103 0.0222 0.6849 0.0
C319 C 0.06567 0.02669 0.65316 0.0
C320 C 0.07647 0.05009 0.71366 0.0
C321 C 0.07849 0.04086 0.66682 0.0
Gd322 Gd 0.98914 0.01899 0.57065 0.0
Gd323 Gd 0.02887 0.9988 0.66449 0.0
N324 N 0.02462 0.00894 0.74946 0.0
C325 C 0.02063 0.02353 0.84749 0.0
C326 C 0.01306 1.0001 0.78379 0.0
C327 C 0.01051 0.00753 0.83275 0.0
H328 H 0.006 0.98712 0.77403 0.0
H329 H 1.00096 1.00072 0.85933 0.0
H330 H 0.00819 0.00953 0.45728 0.0
H331 H 0.06713 0.01958 0.61689 0.0
H332 H 1.00171 0.98916 0.38249 0.0
H333 H 0.01878 0.02914 0.88564 0.0
H334 H 0.04417 0.0529 0.86581 0.0
H335 H 0.94854 0.02063 0.63744 0.0
H336 H 0.08635 0.06114 0.72402 0.0
H337 H 0.08986 0.04472 0.64118 0.0
H338 H 0.94216 0.95992 0.42213 0.0
H339 H 0.06886 0.06444 0.80729 0.0
H340 H 0.91035 0.9801 0.57409 0.0
H341 H 0.91805 1.00381 0.64021 0.0
N342 N 0.95883 0.0053 0.57362 0.0
C343 C 0.95441 0.99321 0.53528 0.0
C344 C 0.94572 0.00973 0.60979 0.0
C345 C 0.92395 0.98715 0.57341 0.0
C346 C 0.92826 1.00048 0.61086 0.0
C347 C 0.93693 0.98365 0.53432 0.0
H348 H 0.91951 0.96373 0.49266 0.0
N349 N 0.98349 1.00095 0.49715 0.0
C350 C 0.96706 0.9911 0.49551 0.0
C351 C 0.97555 0.97841 0.41314 0.0
C352 C 0.96273 0.97934 0.45377 0.0
C353 C 0.99556 1.00097 0.45645 0.0
C354 C 0.99191 0.98948 0.41418 0.0
O355 O 0.02736 0.03003 0.64395 0.0
O356 O 0.99583 0.03422 0.64355 0.0
O357 O 0.9967 0.0433 0.52536 0.0
O358 O 0.96763 0.03884 0.54712 0.0
O359 O 0.99855 0.99109 0.68545 0.0
O360 O 0.98179 0.01638 0.65505 0.0
O361 O 1.00022 0.98964 0.55562 0.0
O362 O 0.00738 0.97781 0.63496 0.0
O363 O 0.04257 0.97923 0.71604 0.0
O364 O 0.05246 0.98213 0.63844 0.0
O365 O 0.01963 0.02369 0.54597 0.0
O366 O 0.03577 0.99872 0.58062 0.0
C367 C 0.01272 0.04064 0.65333 0.0
C368 C 0.98364 1.00204 0.68655 0.0
C369 C 0.97996 0.07003 0.55152 0.0
C370 C 0.99612 0.1003 0.56289 0.0
C371 C 0.96658 0.09383 0.60707 0.0
C372 C 0.96564 0.07599 0.58478 0.0
C373 C 0.98167 0.10594 0.59626 0.0
C374 C 0.99512 0.08224 0.54111 0.0
C375 C 0.9801 0.0508 0.52994 0.0
C376 C 0.94567 0.96918 0.4536 0.0
C377 C 0.93279 0.97134 0.49381 0.0
H378 H 0.97276 0.96952 0.38036 0.0
C379 C 1.00234 0.97546 0.58712 0.0
C380 C 0.03398 0.01201 0.5462 0.0
C381 C 0.05125 0.95165 0.67126 0.0
C382 C 0.03246 0.92278 0.67382 0.0
C383 C 0.06212 0.92364 0.62749 0.0
C384 C 0.06479 0.94244 0.64144 0.0
C385 C 0.04599 0.91385 0.6433 0.0
C386 C 0.03514 0.9417 0.68746 0.0
C387 C 0.05288 0.97207 0.67982 0.0
H388 H 0.95552 0.09831 0.63275 0.0
H389 H 0.95385 0.06685 0.59408 0.0
H390 H 0.98179 0.11982 0.61327 0.0
H391 H 0.00641 0.07744 0.51658 0.0
H392 H 0.07254 0.91667 0.6041 0.0
H393 H 0.07716 0.94995 0.62786 0.0
H394 H 0.04423 0.89924 0.63244 0.0
H395 H 0.02438 0.94877 0.70959 0.0
C396 C 0.52496 0.95146 0.51311 0.0
C397 C 0.51106 0.92426 0.55442 0.0
C398 C 0.51175 0.94381 0.54567 0.0
C399 C 0.52454 0.91265 0.5313 0.0
C400 C 0.53796 0.93984 0.4877 0.0
C401 C 0.53798 0.92043 0.49793 0.0
N402 N 0.5242 0.97016 0.50362 0.0
C403 C 0.53516 0.97797 0.46613 0.0
C404 C 0.55009 0.948 0.45161 0.0
C405 C 0.54848 0.96712 0.44025 0.0
Gd406 Gd 0.51777 0.02847 0.65441 0.0
Gd407 Gd 0.5029 0.98789 0.55298 0.0
N408 N 0.49881 0.95543 0.56631 0.0
C409 C 0.4965 0.91698 0.58491 0.0
C410 C 0.48403 0.94835 0.59388 0.0
C411 C 0.48279 0.92907 0.60421 0.0
H412 H 0.47343 0.95768 0.60887 0.0
H413 H 0.47127 0.92356 0.62699 0.0
H414 H 0.56283 0.02074 0.69259 0.0
H415 H 0.53383 0.99269 0.45657 0.0
H416 H 0.59478 0.032 0.67011 0.0
H417 H 0.49547 0.90204 0.59269 0.0
H418 H 0.52437 0.8976 0.53787 0.0
H419 H 0.48981 0.06528 0.63712 0.0
H420 H 0.5603 0.93958 0.43126 0.0
H421 H 0.55743 0.97348 0.41143 0.0
H422 H 0.58392 0.08452 0.55895 0.0
H423 H 0.54797 0.91127 0.4792 0.0
H424 H 0.52052 0.10726 0.55272 0.0
H425 H 0.49088 0.09625 0.59334 0.0
N426 N 0.51835 0.05902 0.62027 0.0
C427 C 0.53499 0.06537 0.60156 0.0
C428 C 0.50282 0.07023 0.61998 0.0
C429 C 0.5201 0.09377 0.57193 0.0
C430 C 0.50337 0.08766 0.5951 0.0
C431 C 0.53634 0.08282 0.57624 0.0
H432 H 0.55532 0.10239 0.53832 0.0
N433 N 0.54899 0.03977 0.64252 0.0
C434 C 0.55095 0.05532 0.61297 0.0
C435 C 0.58483 0.05342 0.61878 0.0
C436 C 0.56889 0.06245 0.59962 0.0
C437 C 0.56444 0.03225 0.66592 0.0
C438 C 0.58257 0.03858 0.65328 0.0
O439 O 0.50721 0.97669 0.63336 0.0
O440 O 0.5224 0.99904 0.68514 0.0
O441 O 0.52256 0.04759 0.7178 0.0
O442 O 0.50179 0.02557 0.72488 0.0
O443 O 0.48387 0.99233 0.62159 0.0
O444 O 0.48751 0.02398 0.63112 0.0
O445 O 0.50101 0.03459 0.58234 0.0
O446 O 0.51546 0.01544 0.52575 0.0
O447 O 0.47785 1.00307 0.52958 0.0
O448 O 0.48715 0.97894 0.48616 0.0
O449 O 0.53991 0.00694 0.63077 0.0
O450 O 0.53148 1.00181 0.54807 0.0
C451 C 0.51565 0.98195 0.6761 0.0
C452 C 0.47815 0.00839 0.64076 0.0
C453 C 0.51937 0.033 0.79745 0.0
C454 C 0.54359 0.0164 0.84495 0.0
C455 C 0.51873 0.03302 0.88991 0.0
C456 C 0.51091 0.03851 0.84334 0.0
C457 C 0.53501 0.02208 0.89084 0.0
C458 C 0.53557 0.02186 0.79839 0.0
C459 C 0.51125 0.03861 0.74846 0.0
C460 C 0.57028 0.07899 0.57039 0.0
C461 C 0.554 0.08918 0.5587 0.0
H462 H 0.59888 0.05841 0.60938 0.0
C463 C 0.50766 0.0316 0.53631 0.0
C464 C 0.54439 1.00255 0.5836 0.0
C465 C 0.4779 0.00609 0.44038 0.0
C466 C 0.46751 0.03419 0.39475 0.0
C467 C 0.49537 0.01737 0.36643 0.0
C468 C 0.49293 1.00434 0.4057 0.0
C469 C 0.4829 0.03229 0.36119 0.0
C470 C 0.46513 0.02091 0.4343 0.0
C471 C 0.47685 0.99406 0.48634 0.0
H472 H 0.51217 0.03728 0.92538 0.0
H473 H 0.49832 0.04702 0.84312 0.0
H474 H 0.54081 0.01796 0.92736 0.0
H475 H 0.54206 0.01768 0.76277 0.0
H476 H 0.50718 0.0161 0.3405 0.0
H477 H 0.50311 0.99319 0.40953 0.0
H478 H 0.48552 0.04248 0.33123 0.0
H479 H 0.45344 0.02207 0.46076 0.0
C480 C 0.475 0.48631 0.7364 0.0
C481 C 0.49198 0.48773 0.81645 0.0
C482 C 0.48861 0.49467 0.76687 0.0
C483 C 0.48214 0.47171 0.8337 0.0
C484 C 0.46442 0.4708 0.75436 0.0
C485 C 0.46836 0.46328 0.80275 0.0
N486 N 0.47194 0.49355 0.68921 0.0
C487 C 0.45735 0.48717 0.65982 0.0
C488 C 0.45009 0.46348 0.72329 0.0
C489 C 0.44636 0.47188 0.67613 0.0
Gd490 Gd 0.53038 0.4987 0.56803 0.0
Gd491 Gd 0.49149 0.51862 0.66376 0.0
N492 N 0.49776 0.51021 0.74911 0.0
C493 C 0.50469 0.49748 0.84776 0.0
C494 C 0.50882 0.52066 0.78111 0.0
C495 C 0.51285 0.51423 0.83035 0.0
H496 H 0.51436 0.53412 0.7691 0.0
H497 H 0.52204 0.52234 0.85506 0.0
H498 H 0.51155 0.50485 0.45306 0.0
H499 H 0.45456 0.49363 0.62325 0.0
H500 H 0.51726 0.52437 0.37604 0.0
H501 H 0.5077 0.49261 0.88609 0.0
H502 H 0.48472 0.46604 0.87144 0.0
H503 H 0.57238 0.49714 0.62928 0.0
H504 H 0.44164 0.45156 0.7357 0.0
H505 H 0.43509 0.46654 0.65227 0.0
H506 H 0.57421 0.55845 0.415 0.0
H507 H 0.46059 0.45119 0.81696 0.0
H508 H 0.60797 0.53982 0.56477 0.0
H509 H 0.60224 0.51512 0.62968 0.0
N510 N 0.56045 0.51291 0.56846 0.0
C511 C 0.56384 0.52548 0.53035 0.0
C512 C 0.57437 0.50843 0.60219 0.0
C513 C 0.59463 0.53231 0.56527 0.0
C514 C 0.59145 0.51838 0.60197 0.0
C515 C 0.58097 0.53562 0.52789 0.0
H516 H 0.59726 0.55612 0.48481 0.0
N517 N 0.53508 0.51605 0.4932 0.0
C518 C 0.55085 0.52691 0.49113 0.0
C519 C 0.54213 0.53771 0.407 0.0
C520 C 0.55465 0.53834 0.44831 0.0
C521 C 0.52349 0.51438 0.45186 0.0
C522 C 0.52671 0.52536 0.40834 0.0
O523 O 0.49549 0.48768 0.64435 0.0
O524 O 0.52704 0.48423 0.64391 0.0
O525 O 0.52367 0.46985 0.55012 0.0
O526 O 0.55007 0.48175 0.52391 0.0
O527 O 0.52162 0.52845 0.6801 0.0
O528 O 0.53984 0.50403 0.64972 0.0
O529 O 0.51577 0.52623 0.5502 0.0
O530 O 0.51151 0.53994 0.62824 0.0
O531 O 0.47696 0.53722 0.7163 0.0
O532 O 0.46687 0.53402 0.63909 0.0
O533 O 0.49998 0.49344 0.54369 0.0
O534 O 0.48162 0.51632 0.58208 0.0
C535 C 0.51043 0.47838 0.65884 0.0
C536 C 0.53709 0.51824 0.68121 0.0
C537 C 0.53359 0.46049 0.46898 0.0
C538 C 0.51338 0.44036 0.4165 0.0
C539 C 0.536 0.46165 0.37653 0.0
C540 C 0.54189 0.46794 0.42454 0.0
C541 C 0.52177 0.44801 0.37239 0.0
C542 C 0.51953 0.4466 0.46451 0.0
C543 C 0.53816 0.46777 0.52027 0.0
C544 C 0.57115 0.54936 0.44723 0.0
C545 C 0.58427 0.54804 0.48702 0.0
H546 H 0.54459 0.54623 0.37329 0.0
C547 C 0.51493 0.54131 0.57906 0.0
C548 C 0.4846 0.50371 0.54619 0.0
C549 C 0.46414 0.56379 0.67562 0.0
C550 C 0.47915 0.59476 0.6721 0.0
C551 C 0.44547 0.59132 0.6569 0.0
C552 C 0.44672 0.57194 0.66443 0.0
C553 C 0.46154 0.60271 0.66084 0.0
C554 C 0.48033 0.57518 0.67873 0.0
C555 C 0.46545 0.54334 0.68153 0.0
H556 H 0.54239 0.46746 0.34238 0.0
H557 H 0.55266 0.47878 0.42676 0.0
H558 H 0.51749 0.44333 0.33477 0.0
H559 H 0.51288 0.44108 0.49875 0.0
H560 H 0.43197 0.59757 0.64843 0.0
H561 H 0.43414 0.56329 0.66129 0.0
H562 H 0.46006 0.61776 0.65631 0.0
H563 H 0.49384 0.56874 0.68627 0.0
C564 C 0.02778 0.47012 0.73552 0.0
C565 C 0.02608 0.48591 0.81727 0.0
C566 C 0.02 0.48383 0.76632 0.0
C567 C 0.04083 0.4747 0.8356 0.0
C568 C 0.04175 0.45804 0.75457 0.0
C569 C 0.04862 0.46075 0.80433 0.0
N570 N 0.02101 0.46806 0.68742 0.0
C571 C 0.02621 0.45312 0.65792 0.0
C572 C 0.048 0.44331 0.72347 0.0
C573 C 0.03995 0.44065 0.67526 0.0
Gd574 Gd 0.01911 0.52938 0.56665 0.0
Gd575 Gd 0.99832 0.4897 0.6606 0.0
N576 N 0.00547 0.49408 0.74771 0.0
C577 C 0.01662 0.49862 0.84885 0.0
C578 C 0.99513 0.50511 0.77971 0.0
C579 C 1.00082 0.50797 0.83025 0.0
H580 H 0.9823 0.51155 0.76661 0.0
H581 H 0.99285 0.51715 0.85502 0.0
H582 H 0.01259 0.51042 0.45197 0.0
H583 H 0.02003 0.45118 0.62056 0.0
H584 H 0.99137 0.51423 0.3776 0.0
H585 H 0.02086 0.50066 0.8882 0.0
H586 H 0.04585 0.47625 0.87444 0.0
H587 H 0.01589 0.56988 0.63393 0.0
H588 H 0.05869 0.43369 0.73675 0.0
H589 H 0.04439 0.42907 0.65139 0.0
H590 H 0.95343 0.56758 0.42194 0.0
H591 H 0.05956 0.4518 0.81947 0.0
H592 H 0.96949 0.6011 0.575 0.0
H593 H 0.99474 0.59712 0.63909 0.0
N594 N 1.00153 0.55737 0.57109 0.0
C595 C 0.98868 0.56005 0.53346 0.0
C596 C 1.0044 0.57094 0.60722 0.0
C597 C 0.97846 0.58885 0.57331 0.0
C598 C 0.99267 0.58663 0.60961 0.0
C599 C 0.97663 0.57572 0.53381 0.0
H600 H 0.95408 0.5899 0.49387 0.0
N601 N 1.00061 0.53311 0.49321 0.0
C602 C 0.98839 0.54766 0.49282 0.0
C603 C 0.97689 0.53796 0.41009 0.0
C604 C 0.97595 0.55033 0.45163 0.0
C605 C 1.00232 0.52156 0.45181 0.0
C606 C 0.99032 0.52367 0.40988 0.0
O607 O 0.03 0.49101 0.64438 0.0
O608 O 0.03496 0.52255 0.63851 0.0
O609 O 0.043 0.52512 0.51689 0.0
O610 O 0.03762 0.55286 0.54658 0.0
O611 O 0.99133 0.52014 0.68055 0.0
O612 O 0.01729 0.53653 0.65118 0.0
O613 O 0.99116 0.51487 0.55088 0.0
O614 O 0.97852 0.51184 0.63021 0.0
O615 O 0.97809 0.47472 0.7083 0.0
O616 O 0.98077 0.46759 0.62855 0.0
O617 O 0.02615 0.49926 0.54512 0.0
O618 O 1.0016 0.48126 0.57777 0.0
C619 C 0.04104 0.50577 0.65006 0.0
C620 C 1.00312 0.53454 0.6834 0.0
C621 C 0.06934 0.54217 0.54602 0.0
C622 C 0.09968 0.52637 0.5553 0.0
C623 C 0.09307 0.55472 0.60385 0.0
C624 C 0.07523 0.55584 0.58147 0.0
C625 C 0.10523 0.54007 0.59107 0.0
C626 C 0.08169 0.52758 0.53322 0.0
C627 C 0.04992 0.54182 0.52539 0.0
C628 C 0.96327 0.56539 0.45294 0.0
C629 C 0.96361 0.57807 0.49397 0.0
H630 H 0.96756 0.53952 0.37768 0.0
C631 C 0.97648 0.51492 0.58121 0.0
C632 C 0.01509 0.48427 0.54401 0.0
C633 C 0.95057 0.46584 0.66368 0.0
C634 C 0.92116 0.48343 0.66269 0.0
C635 C 0.92135 0.4501 0.64119 0.0
C636 C 0.94078 0.44954 0.64913 0.0
C637 C 0.91155 0.46688 0.64811 0.0
C638 C 0.9408 0.48278 0.66965 0.0
C639 C 0.97108 0.46524 0.67021 0.0
H640 H 0.09746 0.56522 0.63137 0.0
H641 H 0.06599 0.56717 0.59262 0.0
H642 H 0.11904 0.53967 0.60852 0.0
H643 H 0.07703 0.51678 0.50681 0.0
H644 H 0.91382 0.43745 0.63016 0.0
H645 H 0.94818 0.43641 0.64373 0.0
H646 H 0.8964 0.46672 0.64332 0.0
H647 H 0.94855 0.49543 0.67974 0.0
C648 C 0.15695 0.03381 0.21399 0.0
C649 C 0.17107 0.02003 0.21636 0.0
C650 C 0.14121 0.03293 0.2465 0.0
C651 C 0.12661 0.01278 0.37103 0.0
H652 H 0.0761 0.02632 0.32933 0.0
C653 C 0.06302 0.9998 0.50315 0.0
C654 C 0.04873 0.01338 0.5057 0.0
C655 C 0.07723 1.00097 0.46626 0.0
C656 C 0.09016 0.02271 0.34178 0.0
H657 H 0.17899 0.9939 0.25293 0.0
H658 H 0.15166 0.99235 0.30923 0.0
H659 H 0.10185 0.02723 0.26702 0.0
H660 H 0.03817 0.03879 0.47043 0.0
H661 H 0.06322 0.04096 0.40611 0.0
H662 H 0.11513 0.0084 0.44564 0.0
C663 C 0.15293 1.0041 0.28309 0.0
C664 C 0.10493 0.0232 0.30599 0.0
C665 C 0.16862 1.00496 0.25065 0.0
C666 C 0.04894 0.02808 0.46969 0.0
C667 C 0.06326 0.02927 0.43261 0.0
C668 C 0.11191 0.01235 0.40669 0.0
C669 C 0.13919 0.01827 0.28227 0.0
C670 C 0.12334 0.01806 0.32004 0.0
C671 C 0.07772 0.01579 0.43072 0.0
C672 C 0.09343 0.01711 0.39258 0.0
H673 H 0.15843 0.04573 0.18855 0.0
H674 H 0.13101 0.04416 0.24496 0.0
H675 H 0.14064 0.00918 0.38369 0.0
H676 H 0.06331 0.98814 0.52974 0.0
H677 H 0.08782 0.99008 0.46546 0.0
C678 C 0.51095 0.1663 0.24267 0.0
C679 C 0.49646 0.16758 0.20623 0.0
C680 C 0.51231 0.15062 0.27482 0.0
C681 C 0.48365 0.1111 0.32776 0.0
H682 H 0.53235 0.09295 0.37183 0.0
C683 C 0.49173 0.05975 0.49833 0.0
C684 C 0.5059 0.04611 0.49586 0.0
C685 C 0.49044 0.07375 0.46087 0.0
C686 C 0.5186 0.09766 0.3596 0.0
H687 H 0.47221 0.15292 0.17474 0.0
H688 H 0.47488 0.12537 0.22973 0.0
H689 H 0.53072 0.11808 0.30896 0.0
H690 H 0.52944 0.03603 0.4511 0.0
H691 H 0.527 0.06016 0.38516 0.0
H692 H 0.47155 0.09048 0.37794 0.0
C693 C 0.48505 0.13669 0.23406 0.0
C694 C 0.51767 0.1123 0.3239 0.0
C695 C 0.48368 0.15241 0.20191 0.0
C696 C 0.51846 0.04646 0.45435 0.0
C697 C 0.51715 0.06042 0.41677 0.0
C698 C 0.48459 0.09643 0.36346 0.0
C699 C 0.49924 0.13566 0.27146 0.0
C700 C 0.50019 0.11937 0.30772 0.0
C701 C 0.50318 0.07436 0.4196 0.0
C702 C 0.50209 0.08958 0.3802 0.0
H703 H 0.52119 0.17757 0.24685 0.0
H704 H 0.52334 0.15051 0.30332 0.0
H705 H 0.46992 0.11623 0.31678 0.0
H706 H 0.48158 0.0596 0.52924 0.0
H707 H 0.47959 0.08427 0.46476 0.0
C708 C 0.36285 0.51154 0.21181 0.0
C709 C 0.35699 0.49424 0.19058 0.0
C710 C 0.3775 0.51236 0.24758 0.0
C711 C 0.41902 0.48781 0.29765 0.0
H712 H 0.40749 0.51377 0.42385 0.0
C713 C 0.46987 0.48621 0.47219 0.0
C714 C 0.47049 0.50204 0.50437 0.0
C715 C 0.45646 0.48487 0.43294 0.0
C716 C 0.41122 0.50675 0.38863 0.0
H717 H 0.3628 0.46426 0.18998 0.0
H718 H 0.38877 0.46592 0.25064 0.0
H719 H 0.38433 0.51284 0.35564 0.0
H720 H 0.45786 0.52918 0.51915 0.0
H721 H 0.43523 0.52727 0.45019 0.0
H722 H 0.44612 0.48214 0.3298 0.0
C723 C 0.38182 0.47882 0.23968 0.0
C724 C 0.39781 0.50616 0.34952 0.0
C725 C 0.36695 0.47792 0.2045 0.0
C726 C 0.45762 0.51662 0.49574 0.0
C727 C 0.44447 0.51544 0.45612 0.0
C728 C 0.43262 0.48868 0.3365 0.0
C729 C 0.38697 0.49598 0.26251 0.0
C730 C 0.40153 0.4967 0.30355 0.0
C731 C 0.44349 0.49948 0.42429 0.0
C732 C 0.42896 0.49821 0.38268 0.0
H733 H 0.35595 0.52451 0.2014 0.0
H734 H 0.38134 0.52585 0.26391 0.0
H735 H 0.42233 0.48047 0.26255 0.0
H736 H 0.47959 0.47471 0.47772 0.0
H737 H 0.45612 0.47222 0.40996 0.0
C738 C 0.00871 0.36155 0.21393 0.0
C739 C 0.02589 0.35611 0.19159 0.0
C740 C 0.00793 0.37672 0.24804 0.0
C741 C 0.03891 0.40581 0.33295 0.0
H742 H 0.99384 0.43582 0.34702 0.0
C743 C 0.03339 0.4701 0.47085 0.0
C744 C 0.01708 0.47053 0.50146 0.0
C745 C 0.03499 0.45708 0.43077 0.0
C746 C 0.00651 0.42751 0.34368 0.0
H747 H 0.05569 0.36311 0.18709 0.0
H748 H 0.05414 0.38999 0.24412 0.0
H749 H 0.9956 0.41217 0.27984 0.0
H750 H 0.98955 0.4577 0.51313 0.0
H751 H 0.99227 0.43531 0.44321 0.0
H752 H 0.04984 0.42147 0.39659 0.0
C753 C 0.0413 0.38217 0.23651 0.0
C754 C 0.00751 0.41385 0.30523 0.0
C755 C 0.04212 0.36687 0.20282 0.0
C756 C 1.00237 0.45775 0.49064 0.0
C757 C 1.00385 0.44497 0.45022 0.0
C758 C 0.03798 0.41966 0.371 0.0
C759 C 0.02427 0.38713 0.26051 0.0
C760 C 0.02363 0.40257 0.29962 0.0
C761 C 0.02018 0.44442 0.41981 0.0
C762 C 0.02168 0.43051 0.3773 0.0
H763 H 0.99582 0.35389 0.20582 0.0
H764 H 0.99454 0.37986 0.26581 0.0
H765 H 0.05145 0.39729 0.33076 0.0
H766 H 0.04499 0.47973 0.47805 0.0
H767 H 0.04772 0.45707 0.40789 0.0
C768 C 0.86618 0.96795 0.02476 0.0
C769 C 0.85277 0.98225 0.03152 0.0
C770 C 0.8812 0.97021 0.99046 0.0
C771 C 0.90903 0.00575 0.91829 0.0
H772 H 0.91965 0.9641 0.82737 0.0
C773 C 0.95789 0.01457 0.74263 0.0
C774 C 0.96937 0.99948 0.7278 0.0
C775 C 0.94435 0.01236 0.78116 0.0
C776 C 0.91714 0.9758 0.85289 0.0
H777 H 0.84518 0.01043 0.00782 0.0
H778 H 0.87156 0.01448 0.94881 0.0
H779 H 0.89533 0.96072 0.89259 0.0
H780 H 0.97568 0.97023 0.74249 0.0
H781 H 0.95245 0.96646 0.8108 0.0
H782 H 0.93092 0.0208 0.87905 0.0
C783 C 0.87042 1.00149 0.97024 0.0
C784 C 0.90311 0.97386 0.89034 0.0
C785 C 0.85529 0.99918 1.00433 0.0
C786 C 0.96708 0.98214 0.75295 0.0
C787 C 0.9536 0.97996 0.79186 0.0
C788 C 0.92317 0.00765 0.88111 0.0
C789 C 0.88339 0.9869 0.96217 0.0
C790 C 0.89878 0.98884 0.92335 0.0
C791 C 0.94199 0.99504 0.8065 0.0
C792 C 0.92735 0.99275 0.84751 0.0
H793 H 0.865 0.95486 0.0457 0.0
H794 H 0.89112 0.95882 0.98601 0.0
H795 H 0.90627 0.01749 0.94349 0.0
H796 H 0.95939 0.02821 0.72458 0.0
H797 H 0.93557 0.02425 0.79054 0.0
C798 C 0.5143 0.85522 1.00071 0.0
C799 C 0.52998 0.85509 0.03365 0.0
C800 C 0.51195 0.86961 0.9647 0.0
C801 C 0.53024 0.91741 0.92574 0.0
H802 H 0.50788 0.90356 0.79608 0.0
C803 C 0.5159 0.9731 0.76881 0.0
C804 C 0.51737 0.96773 0.71735 0.0
C805 C 0.51711 0.95972 0.80796 0.0
C806 C 0.5144 0.90771 0.83172 0.0
H807 H 0.55495 0.87096 0.05552 0.0
H808 H 0.55142 0.89532 0.99153 0.0
H809 H 0.51072 0.88014 0.8628 0.0
H810 H 0.5212 0.94406 0.66652 0.0
H811 H 0.52392 0.92077 0.73444 0.0
H812 H 0.53484 0.94472 0.89358 0.0
C813 C 0.54067 0.88447 0.99389 0.0
C814 C 0.51571 0.89426 0.87068 0.0
C815 C 0.54287 0.87022 0.03041 0.0
C816 C 0.51998 0.94863 0.70583 0.0
C817 C 0.52141 0.93525 0.74498 0.0
C818 C 0.52917 0.93079 0.88649 0.0
C819 C 0.52533 0.88427 0.95981 0.0
C820 C 0.52362 0.89886 0.91846 0.0
C821 C 0.51994 0.94055 0.79678 0.0
C822 C 0.5212 0.92619 0.83879 0.0
H823 H 0.5041 0.84382 1.00125 0.0
H824 H 0.49967 0.86906 0.94026 0.0
H825 H 0.5362 0.92172 0.96194 0.0
H826 H 0.51348 0.98765 0.77887 0.0
H827 H 0.51548 0.96445 0.84699 0.0
C828 C 0.6526 0.55345 0.02329 0.0
C829 C 0.66646 0.53947 0.02815 0.0
C830 C 0.63757 0.55126 0.98912 0.0
C831 C 0.61055 0.51598 0.91441 0.0
H832 H 0.59922 0.55805 0.82566 0.0
C833 C 0.56323 0.50676 0.73708 0.0
C834 C 0.55126 0.52145 0.72228 0.0
C835 C 0.57645 0.50929 0.77606 0.0
C836 C 0.60193 0.54623 0.85058 0.0
H837 H 0.67479 0.51189 1.00112 0.0
H838 H 0.64837 0.50792 0.94264 0.0
H839 H 0.62322 0.56151 0.89164 0.0
H840 H 0.54393 0.55045 0.7371 0.0
H841 H 0.56666 0.55479 0.80638 0.0
H842 H 0.58921 0.5007 0.87398 0.0
C843 C 0.64919 0.52062 0.96539 0.0
C844 C 0.61576 0.54822 0.88845 0.0
C845 C 0.66434 0.52288 0.99924 0.0
C846 C 0.55288 0.53881 0.74765 0.0
C847 C 0.56605 0.54133 0.78712 0.0
C848 C 0.59661 0.51403 0.8769 0.0
C849 C 0.63579 0.53493 0.95918 0.0
C850 C 0.6204 0.53306 0.92051 0.0
C851 C 0.57803 0.52656 0.802 0.0
C852 C 0.59223 0.52905 0.84391 0.0
H853 H 0.65346 0.56626 0.04555 0.0
H854 H 0.62732 0.56241 0.98603 0.0
H855 H 0.61354 0.5041 0.93892 0.0
H856 H 0.56229 0.49311 0.71888 0.0
H857 H 0.58557 0.49767 0.78545 0.0
C858 C 1.00353 0.66265 1.00177 0.0
C859 C 0.98722 0.66387 0.03227 0.0
C860 C 0.00584 0.64782 0.96707 0.0
C861 C 0.98623 0.60052 0.92925 0.0
H862 H 0.01032 0.61246 0.80017 0.0
C863 C 0.98397 0.55109 0.75115 0.0
C864 C 1.00115 0.54861 0.72521 0.0
C865 C 0.9824 0.56451 0.79024 0.0
C866 C 1.00368 0.60885 0.83616 0.0
H867 H 0.96105 0.64953 0.05161 0.0
H868 H 0.96467 0.6243 0.99002 0.0
H869 H 0.00774 0.63662 0.86558 0.0
H870 H 0.03016 0.55833 0.72042 0.0
H871 H 0.02727 0.58192 0.78737 0.0
H872 H 0.98174 0.57281 0.89866 0.0
C873 C 0.97586 0.63466 0.99318 0.0
C874 C 1.00228 0.6227 0.87399 0.0
C875 C 0.97365 0.64937 0.02824 0.0
C876 C 0.01665 0.55993 0.7392 0.0
C877 C 0.01501 0.5735 0.77762 0.0
C878 C 0.98742 0.58672 0.89107 0.0
C879 C 0.99185 0.63379 0.96135 0.0
C880 C 0.99359 0.61877 0.9213 0.0
C881 C 0.99788 0.57599 0.80366 0.0
C882 C 0.99623 0.5907 0.84412 0.0
H883 H 0.01427 0.67353 1.0032 0.0
H884 H 0.01857 0.64751 0.94428 0.0
H885 H 0.97971 0.59674 0.96525 0.0
H886 H 0.97168 0.54281 0.74088 0.0
H887 H 0.96895 0.56621 0.80922 0.0
C888 C 0.08412 0.19657 0.31087 0.0
C889 C 0.0838 0.2161 0.31847 0.0
C890 C 0.08307 0.18433 0.35242 0.0
C891 C 0.06112 0.18445 0.47808 0.0
H892 H 0.07471 0.13182 0.47146 0.0
C893 C 0.0195 0.12603 0.58512 0.0
C894 C 0.01199 0.11321 0.54939 0.0
C895 C 0.03408 0.13842 0.57118 0.0
C896 C 0.07107 0.14655 0.4745 0.0
H897 H 0.08444 0.23815 0.3756 0.0
H898 H 0.08281 0.21672 0.44846 0.0
H899 H 0.09235 0.15486 0.42093 0.0
H900 H 0.01393 0.1037 0.47062 0.0
H901 H 0.03955 0.12465 0.44734 0.0
H902 H 0.03923 0.17591 0.52971 0.0
C903 C 0.08338 0.21087 0.41032 0.0
C904 C 0.08107 0.15973 0.44541 0.0
C905 C 0.08435 0.22313 0.36864 0.0
C906 C 0.01964 0.11289 0.49979 0.0
C907 C 0.03436 0.12494 0.48629 0.0
C908 C 0.05126 0.17129 0.50761 0.0
C909 C 0.08176 0.19135 0.40255 0.0
C910 C 0.07546 0.17865 0.44446 0.0
C911 C 0.04161 0.13793 0.52157 0.0
C912 C 0.05547 0.15211 0.50374 0.0
H913 H 0.08353 0.19069 0.27273 0.0
H914 H 0.08165 0.16943 0.3447 0.0
H915 H 0.05628 0.19886 0.47824 0.0
H916 H 0.01409 0.12655 0.62375 0.0
H917 H 0.03937 0.14844 0.59892 0.0
C918 C 0.33907 0.10168 0.2193 0.0
C919 C 0.32179 0.1005 0.24544 0.0
C920 C 0.35589 0.10391 0.24606 0.0
C921 C 0.37421 0.0898 0.36979 0.0
H922 H 0.42108 0.10658 0.30785 0.0
C923 C 0.44489 0.05818 0.42991 0.0
C924 C 0.45381 0.04974 0.38775 0.0
C925 C 0.43075 0.0715 0.42265 0.0
C926 C 0.4081 0.10205 0.32609 0.0
H927 H 0.30846 0.1029 0.31967 0.0
H928 H 0.33795 0.10695 0.36662 0.0
H929 H 0.39121 0.11907 0.27705 0.0
H930 H 0.45525 0.04944 0.30484 0.0
H931 H 0.43103 0.0728 0.2925 0.0
H932 H 0.39104 0.07211 0.41708 0.0
C933 C 0.33848 0.1057 0.32543 0.0
C934 C 0.391 0.10913 0.30839 0.0
C935 C 0.32159 0.10339 0.29856 0.0
C936 C 0.44896 0.05574 0.33834 0.0
C937 C 0.43505 0.06921 0.33117 0.0
C938 C 0.39131 0.08287 0.3878 0.0
C939 C 0.35589 0.10506 0.29969 0.0
C940 C 0.3738 0.10225 0.32803 0.0
C941 C 0.42544 0.07685 0.37314 0.0
C942 C 0.40832 0.08816 0.36422 0.0
H943 H 0.33981 0.09929 0.1785 0.0
H944 H 0.36896 0.10311 0.2248 0.0
H945 H 0.36131 0.08404 0.38573 0.0
H946 H 0.44859 0.05431 0.46858 0.0
H947 H 0.42362 0.07727 0.45567 0.0
C948 C 0.42396 0.30443 0.30889 0.0
C949 C 0.41918 0.30957 0.2588 0.0
C950 C 0.42597 0.31822 0.34657 0.0
C951 C 0.42593 0.37064 0.36701 0.0
H952 H 0.47706 0.3608 0.41075 0.0
C953 C 0.48381 0.42751 0.37639 0.0
C954 C 0.49814 0.42598 0.41308 0.0
C955 C 0.46967 0.41376 0.37296 0.0
C956 C 0.46265 0.3638 0.40012 0.0
H957 H 0.40926 0.33236 0.21126 0.0
H958 H 0.41341 0.35642 0.27588 0.0
H959 H 0.45747 0.33509 0.38203 0.0
H960 H 0.50859 0.40902 0.47573 0.0
H961 H 0.48378 0.38534 0.47042 0.0
H962 H 0.43183 0.39972 0.38236 0.0
C963 C 0.41571 0.34192 0.28669 0.0
C964 C 0.45128 0.34894 0.38379 0.0
C965 C 0.41346 0.32812 0.2493 0.0
C966 C 0.49772 0.4107 0.44716 0.0
C967 C 0.48355 0.39704 0.44393 0.0
C968 C 0.43739 0.38558 0.38329 0.0
C969 C 0.42349 0.33732 0.33441 0.0
C970 C 0.43304 0.35224 0.36493 0.0
C971 C 0.46955 0.39822 0.40623 0.0
C972 C 0.45613 0.38238 0.39809 0.0
H973 H 0.42824 0.2902 0.31763 0.0
H974 H 0.43134 0.31413 0.3836 0.0
H975 H 0.41185 0.37365 0.35352 0.0
H976 H 0.48355 0.43929 0.35019 0.0
H977 H 0.45924 0.41499 0.34304 0.0
C978 C 0.19381 0.44004 0.29493 0.0
C979 C 0.21331 0.43891 0.30323 0.0
C980 C 0.18139 0.44119 0.33611 0.0
C981 C 0.1821 0.46085 0.46424 0.0
H982 H 0.12866 0.44982 0.4543 0.0
C983 C 0.12456 0.5022 0.5752 0.0
C984 C 0.11254 0.51095 0.53982 0.0
C985 C 0.13659 0.48774 0.55953 0.0
C986 C 0.1436 0.45272 0.45826 0.0
H987 H 0.23489 0.4359 0.36111 0.0
H988 H 0.21311 0.43785 0.43329 0.0
H989 H 0.15094 0.43207 0.40241 0.0
H990 H 0.1041 0.51151 0.46008 0.0
H991 H 0.12438 0.48607 0.43369 0.0
H992 H 0.17456 0.48217 0.51823 0.0
C993 C 0.20749 0.43826 0.39489 0.0
C994 C 0.15634 0.44266 0.4284 0.0
C995 C 0.21995 0.43714 0.35358 0.0
C996 C 0.11271 0.50481 0.48878 0.0
C997 C 0.12436 0.49021 0.47353 0.0
C998 C 0.16935 0.47077 0.49453 0.0
C999 C 0.18817 0.4412 0.38659 0.0
C1000 C 0.17561 0.4474 0.42876 0.0
C1001 C 0.13645 0.48159 0.50857 0.0
C1002 C 0.14994 0.46749 0.48956 0.0
H1003 H 0.18823 0.44163 0.25672 0.0
H1004 H 0.16666 0.44367 0.32805 0.0
H1005 H 0.19681 0.46498 0.46542 0.0
H1006 H 0.12463 0.50643 0.61493 0.0
H1007 H 0.14595 0.48137 0.58708 0.0
C1008 C 0.95072 0.8066 0.88868 0.0
C1009 C 0.93969 0.81151 0.9309 0.0
C1010 C 0.95283 0.81904 0.84788 0.0
C1011 C 0.951 0.87044 0.8281 0.0
H1012 H 0.97473 0.85569 0.70111 0.0
C1013 C 0.01151 0.91291 0.74534 0.0
C1014 C 0.01585 0.91232 0.69316 0.0
C1015 C 0.99652 0.90239 0.76482 0.0
C1016 C 0.96778 0.86027 0.73571 0.0
H1017 H 0.92077 0.83219 0.96229 0.0
H1018 H 0.92327 0.8535 0.88932 0.0
H1019 H 0.95605 0.83291 0.74836 0.0
H1020 H 0.00751 0.90097 0.61987 0.0
H1021 H 0.98077 0.88291 0.6535 0.0
H1022 H 0.96221 0.89793 0.81466 0.0
C1023 C 0.93105 0.84048 0.88833 0.0
C1024 C 0.95728 0.84704 0.76344 0.0
C1025 C 0.92937 0.82821 0.92987 0.0
C1026 C 0.00453 0.90147 0.66037 0.0
C1027 C 0.98926 0.89112 0.67974 0.0
C1028 C 0.96102 0.88377 0.79969 0.0
C1029 C 0.94368 0.83657 0.84812 0.0
C1030 C 0.9498 0.85161 0.81169 0.0
C1031 C 0.98523 0.89122 0.73244 0.0
C1032 C 0.97059 0.87855 0.7549 0.0
H1033 H 0.95896 0.79383 0.88918 0.0
H1034 H 0.96288 0.81542 0.81843 0.0
H1035 H 0.94548 0.87476 0.86476 0.0
H1036 H 0.02017 0.92102 0.7715 0.0
H1037 H 0.99431 0.9025 0.80573 0.0
C1038 C 0.67415 0.93458 0.98066 0.0
C1039 C 0.69235 0.94046 0.96665 0.0
C1040 C 0.65907 0.93717 0.94741 0.0
C1041 C 0.6464 0.97334 0.85913 0.0
H1042 H 0.59847 0.94676 0.85818 0.0
C1043 C 0.57594 0.01033 0.87838 0.0
C1044 C 0.56117 0.00528 0.84544 0.0
C1045 C 0.59268 1.0002 0.8783 0.0
C1046 C 0.61183 0.95422 0.85725 0.0
H1047 H 0.70955 0.95172 0.90534 0.0
H1048 H 0.68309 0.95633 0.84692 0.0
H1049 H 0.62729 0.92986 0.88023 0.0
H1050 H 0.55244 0.98574 0.78628 0.0
H1051 H 0.58159 0.96758 0.78749 0.0
H1052 H 0.63082 0.99794 0.83939 0.0
C1053 C 0.68047 0.9498 0.88366 0.0
C1054 C 0.62828 0.94459 0.86995 0.0
C1055 C 0.69561 0.94705 0.91688 0.0
C1056 C 0.56351 0.98988 0.81233 0.0
C1057 C 0.58017 0.9795 0.81292 0.0
C1058 C 0.62998 0.98297 0.84697 0.0
C1059 C 0.66193 0.94587 0.89978 0.0
C1060 C 0.64562 0.95425 0.87305 0.0
C1061 C 0.59493 0.98468 0.84572 0.0
C1062 C 0.61248 0.97367 0.848 0.0
H1063 H 0.67137 0.9294 0.01888 0.0
H1064 H 0.64498 0.93407 0.96117 0.0
H1065 H 0.65947 0.98127 0.86163 0.0
H1066 H 0.57466 0.02228 0.90376 0.0
H1067 H 0.60381 1.00433 0.90438 0.0
C1068 C 0.57118 0.71738 0.85231 0.0
C1069 C 0.57195 0.71025 0.90237 0.0
C1070 C 0.56897 0.70521 0.81081 0.0
C1071 C 0.56672 0.65472 0.77258 0.0
H1072 H 0.52067 0.66987 0.70524 0.0
C1073 C 0.50861 0.60302 0.71982 0.0
C1074 C 0.496 0.60693 0.67996 0.0
C1075 C 0.5234 0.61535 0.7309 0.0
C1076 C 0.53382 0.66549 0.72224 0.0
H1077 H 0.57279 0.6847 0.94759 0.0
H1078 H 0.56903 0.66358 0.87553 0.0
H1079 H 0.53849 0.69272 0.75422 0.0
H1080 H 0.48992 0.62619 0.61801 0.0
H1081 H 0.51581 0.64783 0.63745 0.0
H1082 H 0.56143 0.62718 0.74257 0.0
C1083 C 0.57022 0.67853 0.8681 0.0
C1084 C 0.54409 0.67865 0.75047 0.0
C1085 C 0.57235 0.69068 0.90957 0.0
C1086 C 0.4991 0.62302 0.6498 0.0
C1087 C 0.514 0.63535 0.66074 0.0
C1088 C 0.55651 0.64155 0.74401 0.0
C1089 C 0.56759 0.6857 0.81861 0.0
C1090 C 0.56011 0.67319 0.77801 0.0
C1091 C 0.526 0.63193 0.70237 0.0
C1092 C 0.53941 0.64657 0.72076 0.0
H1093 H 0.57127 0.7324 0.84545 0.0
H1094 H 0.56728 0.71112 0.77297 0.0
H1095 H 0.57921 0.6502 0.79276 0.0
H1096 H 0.50651 0.59091 0.74433 0.0
H1097 H 0.53208 0.6124 0.76386 0.0
C1098 C 0.83807 0.57931 0.92506 0.0
C1099 C 0.8183 0.57879 0.92303 0.0
C1100 C 0.84873 0.5769 0.88076 0.0
C1101 C 0.84387 0.55086 0.76234 0.0
H1102 H 0.89594 0.5665 0.74496 0.0
C1103 C 0.91595 0.51245 0.71509 0.0
C1104 C 0.91058 0.50094 0.67385 0.0
C1105 C 0.90495 0.52771 0.7295 0.0
C1106 C 0.88136 0.56211 0.74894 0.0
H1107 H 0.79421 0.5772 0.87232 0.0
H1108 H 0.81286 0.57335 0.79475 0.0
H1109 H 0.8752 0.5846 0.8006 0.0
H1110 H 0.89017 0.49749 0.61283 0.0
H1111 H 0.87071 0.52401 0.63883 0.0
H1112 H 0.85023 0.52777 0.71336 0.0
C1113 C 0.82011 0.57527 0.83075 0.0
C1114 C 0.86949 0.57247 0.78079 0.0
C1115 C 0.80943 0.57765 0.87516 0.0
C1116 C 0.89443 0.50572 0.6457 0.0
C1117 C 0.88337 0.521 0.66028 0.0
C1118 C 0.85571 0.54054 0.73051 0.0
C1119 C 0.83984 0.57395 0.83342 0.0
C1120 C 0.85087 0.5664 0.78981 0.0
C1121 C 0.88823 0.53184 0.70325 0.0
C1122 C 0.87482 0.54551 0.72548 0.0
H1123 H 0.84529 0.58049 0.96134 0.0
H1124 H 0.86389 0.57588 0.88443 0.0
H1125 H 0.82968 0.54564 0.76866 0.0
H1126 H 0.92811 0.50911 0.73821 0.0
H1127 H 0.90895 0.53553 0.76334 0.0
C1128 C 0.04678 0.19306 0.86267 0.0
C1129 C 0.0329 0.19904 0.89748 0.0
C1130 C 0.04417 0.17678 0.83321 0.0
C1131 C 0.0154 0.13253 0.82968 0.0
H1132 H 0.03735 0.12736 0.69481 0.0
C1133 C 0.99977 0.06758 0.70377 0.0
C1134 C 0.01492 0.05953 0.67713 0.0
C1135 C 1.00178 0.08503 0.72795 0.0
C1136 C 0.03118 0.12852 0.73249 0.0
H1137 H 0.00498 0.19254 0.9268 0.0
H1138 H 1.00009 0.16479 0.87407 0.0
H1139 H 0.04041 0.15712 0.74039 0.0
H1140 H 0.04368 0.06412 0.65233 0.0
H1141 H 0.0474 0.09448 0.69548 0.0
H1142 H 0.006 0.104 0.82149 0.0
C1143 C 0.0133 0.17239 0.87051 0.0
C1144 C 0.033 0.14563 0.75889 0.0
C1145 C 0.01599 0.18859 0.90031 0.0
C1146 C 0.03192 0.06971 0.67369 0.0
C1147 C 0.03395 0.08724 0.69789 0.0
C1148 C 0.0134 0.11553 0.80308 0.0
C1149 C 0.02749 0.166 0.83716 0.0
C1150 C 0.02516 0.14791 0.80802 0.0
C1151 C 0.01897 0.09503 0.726 0.0
C1152 C 0.02123 0.11326 0.75407 0.0
H1153 H 0.05987 0.20083 0.85851 0.0
H1154 H 0.05553 0.17238 0.80841 0.0
H1155 H 0.00955 0.13342 0.86781 0.0
H1156 H 0.98638 0.06024 0.70669 0.0
H1157 H 0.98979 0.09073 0.74821 0.0
C1158 C 0.33741 0.00961 0.91952 0.0
C1159 C 0.32153 0.01874 0.89945 0.0
C1160 C 0.35383 0.00753 0.89023 0.0
C1161 C 0.37848 0.02804 0.77724 0.0
H1162 H 0.41032 0.9843 0.79089 0.0
C1163 C 0.45374 0.02614 0.69093 0.0
C1164 C 0.46007 0.00913 0.66976 0.0
C1165 C 0.43674 0.02686 0.71821 0.0
C1166 C 0.40155 0.99656 0.78615 0.0
H1167 H 0.31033 0.0321 0.83169 0.0
H1168 H 0.33878 0.02825 0.78044 0.0
H1169 H 0.38062 0.98565 0.83754 0.0
H1170 H 0.45335 0.97949 0.66114 0.0
H1171 H 0.42365 0.98081 0.70777 0.0
H1172 H 0.39917 0.03878 0.72503 0.0
C1173 C 0.33874 0.02308 0.81933 0.0
C1174 C 0.38456 0.99744 0.81351 0.0
C1175 C 0.32235 0.02522 0.8487 0.0
C1176 C 0.44897 0.99285 0.67682 0.0
C1177 C 0.43193 0.99358 0.70398 0.0
C1178 C 0.39543 0.02715 0.74983 0.0
C1179 C 0.35485 0.01446 0.83989 0.0
C1180 C 0.37277 0.01322 0.80962 0.0
C1181 C 0.42553 0.01061 0.72507 0.0
C1182 C 0.40728 0.01143 0.75398 0.0
H1183 H 0.33745 1.0047 0.95867 0.0
H1184 H 0.36595 1.00104 0.9078 0.0
H1185 H 0.36998 0.04055 0.77361 0.0
H1186 H 0.46196 0.03894 0.68666 0.0
H1187 H 0.43252 0.04017 0.73453 0.0
C1188 C 0.50754 0.32971 0.90293 0.0
C1189 C 0.49507 0.31581 0.88411 0.0
C1190 C 0.50996 0.3469 0.87732 0.0
C1191 C 0.48505 0.37936 0.79275 0.0
H1192 H 0.53426 0.4014 0.76695 0.0
C1193 C 0.49367 0.44765 0.67358 0.0
C1194 C 0.50862 0.45997 0.685 0.0
C1195 C 0.49218 0.43012 0.69779 0.0
C1196 C 0.52035 0.3957 0.77456 0.0
H1197 H 0.47617 0.30912 0.82139 0.0
H1198 H 0.47996 0.33926 0.77802 0.0
H1199 H 0.53181 0.37081 0.80865 0.0
H1200 H 0.53354 0.46385 0.73133 0.0
H1201 H 0.53068 0.43364 0.77506 0.0
H1202 H 0.47346 0.40436 0.76053 0.0
C1203 C 0.48775 0.33681 0.81291 0.0
C1204 C 0.51899 0.37804 0.79824 0.0
C1205 C 0.48555 0.31951 0.83801 0.0
C1206 C 0.52197 0.45451 0.72145 0.0
C1207 C 0.52035 0.4371 0.74629 0.0
C1208 C 0.48638 0.39715 0.76986 0.0
C1209 C 0.4998 0.35081 0.83257 0.0
C1210 C 0.50133 0.3696 0.80735 0.0
C1211 C 0.50551 0.42451 0.73458 0.0
C1212 C 0.50406 0.4056 0.76007 0.0
H1213 H 0.51491 0.3277 0.93863 0.0
H1214 H 0.51927 0.35743 0.89365 0.0
H1215 H 0.47121 0.37338 0.79995 0.0
H1216 H 0.48329 0.45144 0.64517 0.0
H1217 H 0.48073 0.42084 0.68678 0.0
C1218 C 0.19312 0.47717 0.86656 0.0
C1219 C 0.19998 0.49324 0.89212 0.0
C1220 C 0.17712 0.47815 0.8353 0.0
C1221 C 0.14622 0.51153 0.76525 0.0
H1222 H 0.10862 0.47202 0.77951 0.0
C1223 C 0.06985 0.51972 0.69132 0.0
C1224 C 0.0603 0.50386 0.67189 0.0
C1225 C 0.08771 0.51806 0.7134 0.0
C1226 C 0.11906 0.48304 0.77429 0.0
H1227 H 0.19563 0.52312 0.90297 0.0
H1228 H 0.16776 0.52482 0.84874 0.0
H1229 H 0.13824 0.46985 0.82604 0.0
H1230 H 0.06272 0.47403 0.65751 0.0
H1231 H 0.09376 0.47096 0.69677 0.0
H1232 H 0.12701 0.52477 0.71367 0.0
C1233 C 0.17477 0.51143 0.85276 0.0
C1234 C 0.1361 0.4818 0.80112 0.0
C1235 C 0.19069 0.51042 0.88428 0.0
C1236 C 0.06937 0.48638 0.67368 0.0
C1237 C 0.08724 0.48467 0.69602 0.0
C1238 C 0.12922 0.51274 0.73825 0.0
C1239 C 0.16758 0.49526 0.82838 0.0
C1240 C 0.14985 0.49612 0.79745 0.0
C1241 C 0.09661 0.50047 0.71667 0.0
C1242 C 0.11528 0.49862 0.74284 0.0
H1243 H 0.19975 0.46366 0.87201 0.0
H1244 H 0.17214 0.46545 0.81673 0.0
H1245 H 0.15658 0.52268 0.76075 0.0
H1246 H 0.06337 0.53346 0.69036 0.0
H1247 H 0.09433 0.53054 0.72915 0.0
C1248 C 0.00711 0.82246 0.36495 0.0
C1249 C 0.9895 0.81615 0.34674 0.0
C1250 C 0.0086 0.83888 0.39453 0.0
C1251 C 0.98296 0.88315 0.42183 0.0
H1252 H 0.01786 0.88783 0.5349 0.0
C1253 C 0.98329 0.94902 0.55078 0.0
C1254 C 1.00079 0.9562 0.56636 0.0
C1255 C 0.98198 0.93143 0.52692 0.0
C1256 C 0.00813 0.88685 0.50319 0.0
H1257 H 0.95961 0.82236 0.34621 0.0
H1258 H 0.96214 0.85051 0.39847 0.0
H1259 H 0.01545 0.85812 0.48845 0.0
H1260 H 0.03067 0.95076 0.56987 0.0
H1261 H 0.02856 0.91997 0.52816 0.0
H1262 H 0.97572 0.91182 0.43606 0.0
C1263 C 0.97489 0.84292 0.38941 0.0
C1264 C 0.00677 0.86977 0.47645 0.0
C1265 C 0.9734 0.82653 0.35996 0.0
C1266 C 0.01698 0.94535 0.55873 0.0
C1267 C 0.01572 0.92774 0.53475 0.0
C1268 C 0.98432 0.90018 0.44849 0.0
C1269 C 0.99253 0.84951 0.40657 0.0
C1270 C 0.9941 0.86765 0.43546 0.0
C1271 C 0.99821 0.92061 0.51787 0.0
C1272 C 0.99686 0.90229 0.48972 0.0
H1273 H 0.01982 0.8148 0.35599 0.0
H1274 H 0.02245 0.84352 0.40674 0.0
H1275 H 0.97336 0.88226 0.38982 0.0
H1276 H 0.97059 0.95701 0.55702 0.0
H1277 H 0.9682 0.92632 0.51554 0.0
C1278 C 0.70556 0.98148 0.41368 0.0
C1279 C 0.7075 0.99056 0.36615 0.0
C1280 C 0.68944 0.98411 0.44394 0.0
C1281 C 0.64706 0.01493 0.45861 0.0
H1282 H 0.62569 0.97159 0.52823 0.0
C1283 C 0.56911 0.0107 0.51931 0.0
C1284 C 0.5644 1.00281 0.56692 0.0
C1285 C 0.58763 0.01036 0.50122 0.0
C1286 C 0.63161 0.98391 0.50967 0.0
H1287 H 0.69376 0.00954 0.31345 0.0
H1288 H 0.66579 0.01397 0.36546 0.0
H1289 H 0.65597 0.96888 0.48451 0.0
H1290 H 0.57548 0.98855 0.63325 0.0
H1291 H 0.60811 0.98766 0.60112 0.0
H1292 H 0.62234 0.02973 0.4823 0.0
C1293 C 0.67688 0.00515 0.38026 0.0
C1294 C 0.64903 0.98239 0.48456 0.0
C1295 C 0.69301 1.00261 0.35024 0.0
C1296 C 0.57874 0.99474 0.59644 0.0
C1297 C 0.59735 0.99416 0.57792 0.0
C1298 C 0.62961 0.0164 0.4833 0.0
C1299 C 0.67471 0.99581 0.42739 0.0
C1300 C 0.65689 0.9978 0.45786 0.0
C1301 C 0.60199 1.00193 0.52993 0.0
C1302 C 0.62149 1.00083 0.50844 0.0
H1303 H 0.71649 0.97223 0.42743 0.0
H1304 H 0.68851 0.9769 0.48029 0.0
H1305 H 0.65277 0.02727 0.4397 0.0
H1306 H 0.55842 0.01715 0.49577 0.0
H1307 H 0.59061 0.0163 0.46394 0.0
C1308 C 0.52813 0.70045 0.38201 0.0
C1309 C 0.53176 0.69839 0.32952 0.0
C1310 C 0.52521 0.68453 0.41309 0.0
C1311 C 0.5095 0.63524 0.40877 0.0
H1312 H 0.54071 0.62692 0.52784 0.0
C1313 C 0.51266 0.56202 0.50184 0.0
C1314 C 0.51591 0.5602 0.55448 0.0
C1315 C 0.51387 0.57954 0.47774 0.0
C1316 C 0.53159 0.62907 0.49532 0.0
H1317 H 0.53474 0.67821 0.26821 0.0
H1318 H 0.52902 0.65058 0.32181 0.0
H1319 H 0.54332 0.65656 0.48086 0.0
H1320 H 0.52282 0.57564 0.62334 0.0
H1321 H 0.52468 0.60634 0.58154 0.0
H1322 H 0.49735 0.60821 0.4232 0.0
C1323 C 0.52865 0.6644 0.33921 0.0
C1324 C 0.53316 0.6461 0.4683 0.0
C1325 C 0.53197 0.6802 0.30855 0.0
C1326 C 0.52018 0.57651 0.58269 0.0
C1327 C 0.52134 0.59415 0.55853 0.0
C1328 C 0.50768 0.61842 0.43616 0.0
C1329 C 0.52539 0.66632 0.39191 0.0
C1330 C 0.52242 0.6492 0.42405 0.0
C1331 C 0.51806 0.59599 0.50562 0.0
C1332 C 0.51903 0.61478 0.47917 0.0
H1333 H 0.52799 0.71432 0.39912 0.0
H1334 H 0.52267 0.68644 0.45355 0.0
H1335 H 0.50082 0.63732 0.37527 0.0
H1336 H 0.50892 0.54989 0.47906 0.0
H1337 H 0.51171 0.58003 0.43686 0.0
C1338 C 0.81891 0.5402 0.39141 0.0
C1339 C 0.81716 0.53117 0.34381 0.0
C1340 C 0.83494 0.53759 0.42188 0.0
C1341 C 0.87728 0.5068 0.43703 0.0
H1342 H 0.89789 0.54981 0.50954 0.0
C1343 C 0.95398 0.50906 0.50957 0.0
C1344 C 0.95739 0.51622 0.55871 0.0
C1345 C 0.93613 0.51042 0.48738 0.0
C1346 C 0.89221 0.5376 0.49001 0.0
H1347 H 0.8311 0.5123 0.29112 0.0
H1348 H 0.85896 0.50793 0.34344 0.0
H1349 H 0.86809 0.55273 0.46385 0.0
H1350 H 0.94486 0.53068 0.62293 0.0
H1351 H 0.9137 0.53371 0.58326 0.0
H1352 H 0.9017 0.49187 0.46206 0.0
C1353 C 0.84779 0.5167 0.35815 0.0
C1354 C 0.87505 0.53924 0.46384 0.0
C1355 C 0.83173 0.51921 0.32794 0.0
C1356 C 0.94258 0.52493 0.58511 0.0
C1357 C 0.92478 0.5267 0.56234 0.0
C1358 C 0.89448 0.50523 0.46278 0.0
C1359 C 0.84976 0.52596 0.40543 0.0
C1360 C 0.86743 0.52392 0.43633 0.0
C1361 C 0.92127 0.51924 0.51341 0.0
C1362 C 0.90231 0.52067 0.48903 0.0
H1363 H 0.80789 0.54938 0.40509 0.0
H1364 H 0.83569 0.54472 0.45835 0.0
H1365 H 0.87175 0.49453 0.41751 0.0
H1366 H 0.96511 0.50224 0.48833 0.0
H1367 H 0.93405 0.50479 0.44935 0.0
loop_
_geom_bond_atom_site_label_1
_geom_bond_atom_site_label_2
_geom_bond_distance
_geom_bond_site_symmetry_2
_ccdc_geom_bond_type
C0 C1 1.386 . S
C0 C2 1.397 . S
C0 H24 0.931 1_554 S
C1 C0 1.386 . S
C1 C5 1.397 . S
C2 C0 1.397 . S
C2 C3 1.384 . S
C2 H25 0.930 . S
C3 C2 1.384 . S
C3 C4 1.377 . S
C3 C6 1.481 . S
C4 C3 1.377 . S
C4 C5 1.389 . S
C4 H26 0.929 . S
C5 C1 1.397 . S
C5 C4 1.389 . S
C5 H27 0.931 . S
C6 C3 1.481 . S
C6 C7 1.387 . S
C6 C11 1.390 . S
C7 C6 1.387 . S
C7 C8 1.401 . S
C7 H28 0.930 . S
C8 C7 1.401 . S
C8 C9 1.376 . S
C8 C17 1.511 . S
C9 C8 1.376 . S
C9 C10 1.392 . S
C9 H30 0.931 . S
C10 C9 1.392 . S
C10 C11 1.361 . S
C10 C12 1.500 . S
C11 C6 1.390 . S
C11 C10 1.361 . S
C11 H29 0.931 . S
C12 C10 1.500 . S
C12 C13 1.371 . S
C12 C14 1.365 . S
C13 C12 1.371 . S
C13 C23 1.386 . S
C13 H31 0.931 . S
C14 C12 1.365 . S
C14 C15 1.409 . S
C14 H32 0.929 . S
C15 C14 1.409 . S
C15 C16 1.380 . S
C15 H33 0.930 . S
C16 C15 1.380 . S
C16 C23 1.357 . S
C17 C8 1.511 . S
C17 C18 1.341 . S
C17 C19 1.371 . S
C18 C17 1.341 . S
C18 C22 1.394 . S
C18 H34 0.930 . S
C19 C17 1.371 . S
C19 C20 1.392 . S
C19 H35 0.931 . S
C20 C19 1.392 . S
C20 C21 1.331 . S
C20 H38 0.932 . S
C21 C20 1.331 . S
C21 C22 1.336 . S
C22 C18 1.394 . S
C22 C21 1.336 . S
C22 H37 0.929 . S
C23 C13 1.386 . S
C23 C16 1.357 . S
C23 H36 0.928 . S
H24 C0 0.931 1_556 S
H25 C2 0.930 . S
H26 C4 0.929 . S
H27 C5 0.931 . S
H28 C7 0.930 . S
H29 C11 0.931 . S
H30 C9 0.931 . S
H31 C13 0.931 . S
H32 C14 0.929 . S
H33 C15 0.930 . S
H34 C18 0.930 . S
H35 C19 0.931 . S
H36 C23 0.928 . S
H37 C22 0.929 . S
H38 C20 0.932 . S
C39 C40 1.386 . S
C39 C41 1.397 . S
C39 H63 0.931 1_554 S
C40 C39 1.386 . S
C40 C44 1.397 . S
C41 C39 1.397 . S
C41 C42 1.384 . S
C41 H64 0.930 . S
C42 C41 1.384 . S
C42 C43 1.377 . S
C42 C45 1.481 . S
C43 C42 1.377 . S
C43 C44 1.389 . S
C43 H65 0.929 . S
C44 C40 1.397 . S
C44 C43 1.389 . S
C44 H66 0.931 . S
C45 C42 1.481 . S
C45 C46 1.387 . S
C45 C50 1.390 . S
C46 C45 1.387 . S
C46 C47 1.401 . S
C46 H67 0.930 . S
C47 C46 1.401 . S
C47 C48 1.376 . S
C47 C56 1.511 . S
C48 C47 1.376 . S
C48 C49 1.392 . S
C48 H69 0.931 . S
C49 C48 1.392 . S
C49 C50 1.361 . S
C49 C51 1.500 . S
C50 C45 1.390 . S
C50 C49 1.361 . S
C50 H68 0.931 . S
C51 C49 1.500 . S
C51 C52 1.371 . S
C51 C53 1.365 . S
C52 C51 1.371 . S
C52 C62 1.386 . S
C52 H70 0.931 . S
C53 C51 1.365 . S
C53 C54 1.409 . S
C53 H71 0.929 . S
C54 C53 1.409 . S
C54 C55 1.380 . S
C54 H72 0.930 . S
C55 C54 1.380 . S
C55 C62 1.357 . S
C56 C47 1.511 . S
C56 C57 1.341 . S
C56 C58 1.371 . S
C57 C56 1.341 . S
C57 C61 1.394 . S
C57 H73 0.930 . S
C58 C56 1.371 . S
C58 C59 1.392 . S
C58 H74 0.931 . S
C59 C58 1.392 . S
C59 C60 1.331 . S
C59 H77 0.932 . S
C60 C59 1.331 . S
C60 C61 1.336 . S
C61 C57 1.394 . S
C61 C60 1.336 . S
C61 H76 0.929 . S
C62 C52 1.386 . S
C62 C55 1.357 . S
C62 H75 0.928 . S
H63 C39 0.931 1_556 S
H64 C41 0.930 . S
H65 C43 0.929 . S
H66 C44 0.931 . S
H67 C46 0.930 . S
H68 C50 0.931 . S
H69 C48 0.931 . S
H70 C52 0.931 . S
H71 C53 0.929 . S
H72 C54 0.930 . S
H73 C57 0.930 . S
H74 C58 0.931 . S
H75 C62 0.928 . S
H76 C61 0.929 . S
H77 C59 0.932 . S
C78 C79 1.386 . S
C78 C80 1.397 . S
C78 H102 0.931 1_554 S
C79 C78 1.386 . S
C79 C83 1.397 . S
C80 C78 1.397 . S
C80 C81 1.384 . S
C80 H103 0.930 . S
C81 C80 1.384 . S
C81 C82 1.377 . S
C81 C84 1.481 . S
C82 C81 1.377 . S
C82 C83 1.389 . S
C82 H104 0.929 . S
C83 C79 1.397 . S
C83 C82 1.389 . S
C83 H105 0.931 . S
C84 C81 1.481 . S
C84 C85 1.387 . S
C84 C89 1.390 . S
C85 C84 1.387 . S
C85 C86 1.401 . S
C85 H106 0.930 . S
C86 C85 1.401 . S
C86 C87 1.376 . S
C86 C95 1.511 . S
C87 C86 1.376 . S
C87 C88 1.392 . S
C87 H108 0.931 . S
C88 C87 1.392 . S
C88 C89 1.361 . S
C88 C90 1.500 . S
C89 C84 1.390 . S
C89 C88 1.361 . S
C89 H107 0.931 . S
C90 C88 1.500 . S
C90 C91 1.371 . S
C90 C92 1.365 . S
C91 C90 1.371 . S
C91 C101 1.386 . S
C91 H109 0.931 . S
C92 C90 1.365 . S
C92 C93 1.409 . S
C92 H110 0.929 . S
C93 C92 1.409 . S
C93 C94 1.380 . S
C93 H111 0.930 . S
C94 C93 1.380 . S
C94 C101 1.357 . S
C95 C86 1.511 . S
C95 C96 1.341 . S
C95 C97 1.371 . S
C96 C95 1.341 . S
C96 C100 1.394 . S
C96 H112 0.930 . S
C97 C95 1.371 . S
C97 C98 1.392 . S
C97 H113 0.931 . S
C98 C97 1.392 . S
C98 C99 1.331 . S
C98 H116 0.932 . S
C99 C98 1.331 . S
C99 C100 1.336 . S
C100 C96 1.394 . S
C100 C99 1.336 . S
C100 H115 0.929 . S
C101 C91 1.386 . S
C101 C94 1.357 . S
C101 H114 0.928 . S
H102 C78 0.931 1_556 S
H103 C80 0.930 . S
H104 C82 0.929 . S
H105 C83 0.931 . S
H106 C85 0.930 . S
H107 C89 0.931 . S
H108 C87 0.931 . S
H109 C91 0.931 . S
H110 C92 0.929 . S
H111 C93 0.930 . S
H112 C96 0.930 . S
H113 C97 0.931 . S
H114 C101 0.928 . S
H115 C100 0.929 . S
H116 C98 0.932 . S
C117 C118 1.386 . S
C117 C119 1.397 . S
C117 H141 0.931 . S
C118 C117 1.386 . S
C118 C122 1.397 . S
C119 C117 1.397 . S
C119 C120 1.384 . S
C119 H142 0.930 . S
C120 C119 1.384 . S
C120 C121 1.377 . S
C120 C123 1.481 . S
C121 C120 1.377 . S
C121 C122 1.389 . S
C121 H143 0.929 . S
C122 C118 1.397 . S
C122 C121 1.389 . S
C122 H144 0.931 . S
C123 C120 1.481 . S
C123 C124 1.387 . S
C123 C128 1.390 . S
C124 C123 1.387 . S
C124 C125 1.401 . S
C124 H145 0.930 . S
C125 C124 1.401 . S
C125 C126 1.376 . S
C125 C134 1.511 . S
C126 C125 1.376 . S
C126 C127 1.392 . S
C126 H147 0.931 . S
C127 C126 1.392 . S
C127 C128 1.361 . S
C127 C129 1.500 . S
C128 C123 1.390 . S
C128 C127 1.361 . S
C128 H146 0.931 . S
C129 C127 1.500 . S
C129 C130 1.371 . S
C129 C131 1.365 . S
C130 C129 1.371 . S
C130 C140 1.386 . S
C130 H148 0.931 . S
C131 C129 1.365 . S
C131 C132 1.409 . S
C131 H149 0.929 . S
C132 C131 1.409 . S
C132 C133 1.380 . S
C132 H150 0.930 . S
C133 C132 1.380 . S
C133 C140 1.357 . S
C134 C125 1.511 . S
C134 C135 1.341 . S
C134 C136 1.371 . S
C135 C134 1.341 . S
C135 C139 1.394 . S
C135 H151 0.930 . S
C136 C134 1.371 . S
C136 C137 1.392 . S
C136 H152 0.931 . S
C137 C136 1.392 . S
C137 C138 1.331 . S
C137 H155 0.932 . S
C138 C137 1.331 . S
C138 C139 1.336 . S
C139 C135 1.394 . S
C139 C138 1.336 . S
C139 H154 0.929 . S
C140 C130 1.386 . S
C140 C133 1.357 . S
C140 H153 0.928 1_554 S
H141 C117 0.931 . S
H142 C119 0.930 . S
H143 C121 0.929 . S
H144 C122 0.931 . S
H145 C124 0.930 . S
H146 C128 0.931 . S
H147 C126 0.931 . S
H148 C130 0.931 . S
H149 C131 0.929 . S
H150 C132 0.930 . S
H151 C135 0.930 . S
H152 C136 0.931 . S
H153 C140 0.928 1_556 S
H154 C139 0.929 . S
H155 C137 0.932 . S
C156 C157 1.386 . S
C156 C158 1.397 . S
C156 H180 0.931 . S
C157 C156 1.386 . S
C157 C161 1.397 . S
C158 C156 1.397 . S
C158 C159 1.384 . S
C158 H181 0.930 . S
C159 C158 1.384 . S
C159 C160 1.377 . S
C159 C162 1.481 . S
C160 C159 1.377 . S
C160 C161 1.389 . S
C160 H182 0.929 . S
C161 C157 1.397 . S
C161 C160 1.389 . S
C161 H183 0.931 . S
C162 C159 1.481 . S
C162 C163 1.387 . S
C162 C167 1.390 . S
C163 C162 1.387 . S
C163 C164 1.401 . S
C163 H184 0.930 . S
C164 C163 1.401 . S
C164 C165 1.376 1_554 S
C164 C173 1.511 . S
C165 C164 1.376 1_556 S
C165 C166 1.392 . S
C165 H186 0.931 . S
C166 C165 1.392 . S
C166 C167 1.361 1_556 S
C166 C168 1.500 . S
C167 C162 1.390 . S
C167 C166 1.361 1_554 S
C167 H185 0.931 . S
C168 C166 1.500 . S
C168 C169 1.371 . S
C168 C170 1.365 . S
C169 C168 1.371 . S
C169 C179 1.386 . S
C169 H187 0.931 . S
C170 C168 1.365 . S
C170 C171 1.409 . S
C170 H188 0.929 . S
C171 C170 1.409 . S
C171 C172 1.380 . S
C171 H189 0.930 . S
C172 C171 1.380 . S
C172 C179 1.357 . S
C173 C164 1.511 . S
C173 C174 1.341 . S
C173 C175 1.371 . S
C174 C173 1.341 . S
C174 C178 1.394 . S
C174 H190 0.930 . S
C175 C173 1.371 . S
C175 C176 1.392 . S
C175 H191 0.931 1_554 S
C176 C175 1.392 . S
C176 C177 1.331 . S
C176 H194 0.932 . S
C177 C176 1.331 . S
C177 C178 1.336 . S
C178 C174 1.394 . S
C178 C177 1.336 . S
C178 H193 0.929 . S
C179 C169 1.386 . S
C179 C172 1.357 . S
C179 H192 0.928 . S
H180 C156 0.931 . S
H181 C158 0.930 . S
H182 C160 0.929 . S
H183 C161 0.931 . S
H184 C163 0.930 . S
H185 C167 0.931 . S
H186 C165 0.931 . S
H187 C169 0.931 . S
H188 C170 0.929 . S
H189 C171 0.930 . S
H190 C174 0.930 . S
H191 C175 0.931 1_556 S
H192 C179 0.928 . S
H193 C178 0.929 . S
H194 C176 0.932 . S
C195 C196 1.386 . S
C195 C197 1.397 . S
C195 H219 0.931 . S
C196 C195 1.386 . S
C196 C200 1.397 . S
C197 C195 1.397 . S
C197 C198 1.384 . S
C197 H220 0.930 . S
C198 C197 1.384 . S
C198 C199 1.377 . S
C198 C201 1.481 . S
C199 C198 1.377 . S
C199 C200 1.389 . S
C199 H221 0.929 . S
C200 C196 1.397 . S
C200 C199 1.389 . S
C200 H222 0.931 . S
C201 C198 1.481 . S
C201 C202 1.387 . S
C201 C206 1.390 . S
C202 C201 1.387 . S
C202 C203 1.401 . S
C202 H223 0.930 . S
C203 C202 1.401 . S
C203 C204 1.376 1_554 S
C203 C212 1.511 . S
C204 C203 1.376 1_556 S
C204 C205 1.392 . S
C204 H225 0.931 . S
C205 C204 1.392 . S
C205 C206 1.361 1_556 S
C205 C207 1.500 . S
C206 C201 1.390 . S
C206 C205 1.361 1_554 S
C206 H224 0.931 . S
C207 C205 1.500 . S
C207 C208 1.371 . S
C207 C209 1.365 . S
C208 C207 1.371 . S
C208 C218 1.386 . S
C208 H226 0.931 . S
C209 C207 1.365 . S
C209 C210 1.409 . S
C209 H227 0.929 . S
C210 C209 1.409 . S
C210 C211 1.380 . S
C210 H228 0.930 . S
C211 C210 1.380 . S
C211 C218 1.357 . S
C212 C203 1.511 . S
C212 C213 1.341 . S
C212 C214 1.371 . S
C213 C212 1.341 . S
C213 C217 1.394 . S
C213 H229 0.930 . S
C214 C212 1.371 . S
C214 C215 1.392 . S
C214 H230 0.931 1_554 S
C215 C214 1.392 . S
C215 C216 1.331 . S
C215 H233 0.932 . S
C216 C215 1.331 . S
C216 C217 1.336 . S
C217 C213 1.394 . S
C217 C216 1.336 . S
C217 H232 0.929 . S
C218 C208 1.386 . S
C218 C211 1.357 . S
C218 H231 0.928 . S
H219 C195 0.931 . S
H220 C197 0.930 . S
H221 C199 0.929 . S
H222 C200 0.931 . S
H223 C202 0.930 . S
H224 C206 0.931 . S
H225 C204 0.931 . S
H226 C208 0.931 . S
H227 C209 0.929 . S
H228 C210 0.930 . S
H229 C213 0.930 . S
H230 C214 0.931 1_556 S
H231 C218 0.928 . S
H232 C217 0.929 . S
H233 C215 0.932 . S
C234 C235 1.386 . S
C234 C236 1.397 . S
C234 H258 0.931 . S
C235 C234 1.386 . S
C235 C239 1.397 . S
C236 C234 1.397 . S
C236 C237 1.384 . S
C236 H259 0.930 . S
C237 C236 1.384 . S
C237 C238 1.377 . S
C237 C240 1.481 . S
C238 C237 1.377 . S
C238 C239 1.389 . S
C238 H260 0.929 . S
C239 C235 1.397 . S
C239 C238 1.389 . S
C239 H261 0.931 . S
C240 C237 1.481 . S
C240 C241 1.387 . S
C240 C245 1.390 . S
C241 C240 1.387 . S
C241 C242 1.401 . S
C241 H262 0.930 . S
C242 C241 1.401 . S
C242 C243 1.376 1_554 S
C242 C251 1.511 . S
C243 C242 1.376 1_556 S
C243 C244 1.392 . S
C243 H264 0.931 . S
C244 C243 1.392 . S
C244 C245 1.361 1_556 S
C244 C246 1.500 . S
C245 C240 1.390 . S
C245 C244 1.361 1_554 S
C245 H263 0.931 . S
C246 C244 1.500 . S
C246 C247 1.371 . S
C246 C248 1.365 . S
C247 C246 1.371 . S
C247 C257 1.386 . S
C247 H265 0.931 . S
C248 C246 1.365 . S
C248 C249 1.409 . S
C248 H266 0.929 . S
C249 C248 1.409 . S
C249 C250 1.380 . S
C249 H267 0.930 . S
C250 C249 1.380 . S
C250 C257 1.357 . S
C251 C242 1.511 . S
C251 C252 1.341 . S
C251 C253 1.371 . S
C252 C251 1.341 . S
C252 C256 1.394 . S
C252 H268 0.930 . S
C253 C251 1.371 . S
C253 C254 1.392 . S
C253 H269 0.931 1_554 S
C254 C253 1.392 . S
C254 C255 1.331 . S
C254 H272 0.932 . S
C255 C254 1.331 . S
C255 C256 1.336 . S
C256 C252 1.394 . S
C256 C255 1.336 . S
C256 H271 0.929 . S
C257 C247 1.386 . S
C257 C250 1.357 . S
C257 H270 0.928 . S
H258 C234 0.931 . S
H259 C236 0.930 . S
H260 C238 0.929 . S
H261 C239 0.931 . S
H262 C241 0.930 . S
H263 C245 0.931 . S
H264 C243 0.931 . S
H265 C247 0.931 . S
H266 C248 0.929 . S
H267 C249 0.930 . S
H268 C252 0.930 . S
H269 C253 0.931 1_556 S
H270 C257 0.928 . S
H271 C256 0.929 . S
H272 C254 0.932 . S
C273 C274 1.386 . S
C273 C275 1.397 . S
C273 H297 0.931 . S
C274 C273 1.386 . S
C274 C278 1.397 . S
C275 C273 1.397 . S
C275 C276 1.384 . S
C275 H298 0.930 . S
C276 C275 1.384 . S
C276 C277 1.377 . S
C276 C279 1.481 . S
C277 C276 1.377 . S
C277 C278 1.389 . S
C277 H299 0.929 . S
C278 C274 1.397 . S
C278 C277 1.389 . S
C278 H300 0.931 . S
C279 C276 1.481 . S
C279 C280 1.387 . S
C279 C284 1.390 1_556 S
C280 C279 1.387 . S
C280 C281 1.401 1_556 S
C280 H301 0.930 . S
C281 C280 1.401 1_554 S
C281 C282 1.376 . S
C281 C290 1.511 . S
C282 C281 1.376 . S
C282 C283 1.392 . S
C282 H303 0.931 . S
C283 C282 1.392 . S
C283 C284 1.361 . S
C283 C285 1.500 . S
C284 C279 1.390 1_554 S
C284 C283 1.361 . S
C284 H302 0.931 . S
C285 C283 1.500 . S
C285 C286 1.371 . S
C285 C287 1.365 . S
C286 C285 1.371 . S
C286 C296 1.386 . S
C286 H304 0.931 . S
C287 C285 1.365 . S
C287 C288 1.409 . S
C287 H305 0.929 . S
C288 C287 1.409 . S
C288 C289 1.380 . S
C288 H306 0.930 . S
C289 C288 1.380 . S
C289 C296 1.357 . S
C290 C281 1.511 . S
C290 C291 1.341 . S
C290 C292 1.371 . S
C291 C290 1.341 . S
C291 C295 1.394 . S
C291 H307 0.930 1_554 S
C292 C290 1.371 . S
C292 C293 1.392 . S
C292 H308 0.931 . S
C293 C292 1.392 . S
C293 C294 1.331 . S
C293 H311 0.932 . S
C294 C293 1.331 . S
C294 C295 1.336 . S
C295 C291 1.394 . S
C295 C294 1.336 . S
C295 H310 0.929 . S
C296 C286 1.386 . S
C296 C289 1.357 . S
C296 H309 0.928 . S
H297 C273 0.931 . S
H298 C275 0.930 . S
H299 C277 0.929 . S
H300 C278 0.931 . S
H301 C280 0.930 . S
H302 C284 0.931 . S
H303 C282 0.931 . S
H304 C286 0.931 . S
H305 C287 0.929 . S
H306 C288 0.930 . S
H307 C291 0.930 1_556 S
H308 C292 0.931 . S
H309 C296 0.928 . S
H310 C295 0.929 . S
H311 C293 0.932 . S
C312 C314 1.422 . S
C312 C316 1.415 . S
C312 N318 1.369 1_545 S
C313 C314 1.421 . S
C313 C315 1.417 . S
C313 C325 1.422 . S
C314 C312 1.422 . S
C314 C313 1.421 . S
C314 N324 1.359 . S
C315 C313 1.417 . S
C315 C317 1.329 . S
C315 H334 0.930 . S
C316 C312 1.415 . S
C316 C317 1.437 . S
C316 C320 1.413 . S
C317 C315 1.329 . S
C317 C316 1.437 . S
C317 H339 0.929 . S
N318 C312 1.369 1_565 S
N318 C319 1.338 . S
N318 Gd323 2.622 . S
C319 N318 1.338 . S
C319 C321 1.378 1_565 S
C319 H331 0.929 . S
C320 C316 1.413 . S
C320 C321 1.348 . S
C320 H336 0.931 . S
C321 C319 1.378 1_545 S
C321 C320 1.348 . S
C321 H337 0.930 . S
Gd322 N342 2.622 . S
Gd322 N349 2.570 . S
Gd322 O356 2.353 1_655 S
Gd322 O357 2.447 1_655 S
Gd322 O358 2.427 . S
Gd322 O360 2.388 . S
Gd322 O361 2.386 1_545 S
Gd322 O365 2.307 1_655 S
Gd322 C375 2.805 . S
Gd323 N318 2.622 . S
Gd323 N324 2.570 1_565 S
Gd323 O355 2.386 1_565 S
Gd323 O359 2.300 1_465 S
Gd323 O362 2.353 . S
Gd323 O363 2.468 . S
Gd323 O364 2.427 . S
Gd323 O366 2.388 . S
Gd323 C387 2.805 . S
N324 C314 1.359 . S
N324 Gd323 2.570 1_545 S
N324 C326 1.343 . S
C325 C313 1.422 . S
C325 C327 1.321 . S
C325 H333 0.931 . S
C326 N324 1.343 . S
C326 C327 1.390 . S
C326 H328 0.892 1_445 S
C327 C325 1.321 . S
C327 C326 1.390 . S
C327 H329 0.930 . S
H328 C326 0.892 1_665 S
H329 C327 0.930 . S
H330 C353 0.967 . S
H331 C319 0.929 . S
H332 C354 0.922 1_455 S
H333 C325 0.931 . S
H334 C315 0.930 . S
H335 C344 0.929 . S
H336 C320 0.931 . S
H337 C321 0.930 . S
H338 C376 0.930 . S
H339 C317 0.929 . S
H340 C345 0.938 . S
H341 C346 0.930 . S
N342 Gd322 2.622 . S
N342 C343 1.369 . S
N342 C344 1.338 . S
C343 N342 1.369 . S
C343 C347 1.415 1_545 S
C343 C350 1.422 . S
C344 H335 0.929 . S
C344 N342 1.338 . S
C344 C346 1.378 . S
C345 H340 0.938 . S
C345 C346 1.339 1_565 S
C345 C347 1.415 . S
C346 H341 0.930 . S
C346 C344 1.378 . S
C346 C345 1.339 1_545 S
C347 C343 1.415 1_565 S
C347 C345 1.415 . S
C347 C377 1.437 . S
H348 C377 0.929 . S
N349 Gd322 2.570 . S
N349 C350 1.359 . S
N349 C353 1.311 1_655 S
C350 C343 1.422 . S
C350 N349 1.359 . S
C350 C352 1.421 1_545 S
C351 C352 1.422 . S
C351 C354 1.358 . S
C351 H378 0.931 . S
C352 C350 1.421 1_565 S
C352 C351 1.422 . S
C352 C376 1.417 . S
C353 H330 0.967 . S
C353 N349 1.311 1_455 S
C353 C354 1.365 1_445 S
C354 H332 0.922 1_655 S
C354 C351 1.358 . S
C354 C353 1.365 1_665 S
O355 Gd323 2.386 1_545 S
O355 C367 1.265 . S
O356 Gd322 2.353 1_455 S
O356 C367 1.242 . S
O357 Gd322 2.447 1_455 S
O357 C375 1.213 1_455 S
O358 Gd322 2.427 . S
O358 C375 1.252 . S
O359 Gd323 2.300 1_645 S
O359 C368 1.267 . S
O360 Gd322 2.388 . S
O360 C368 1.252 . S
O361 Gd322 2.386 1_565 S
O361 C379 1.265 . S
O362 Gd323 2.353 . S
O362 C379 1.242 1_455 S
O363 Gd323 2.468 . S
O363 C387 1.263 . S
O364 Gd323 2.427 . S
O364 C387 1.252 . S
O365 Gd322 2.307 1_455 S
O365 C380 1.261 . S
O366 Gd323 2.388 . S
O366 C380 1.252 1_565 S
C367 O355 1.265 . S
C367 O356 1.242 . S
C368 O359 1.267 . S
C368 O360 1.252 . S
C369 C372 1.394 . S
C369 C374 1.396 . S
C369 C375 1.500 . S
C370 C373 1.383 . S
C370 C374 1.399 . S
C371 C372 1.396 . S
C371 C373 1.365 . S
C371 H388 0.929 . S
C372 C369 1.394 . S
C372 C371 1.396 . S
C372 H389 0.930 . S
C373 C370 1.383 . S
C373 C371 1.365 . S
C373 H390 0.931 . S
C374 C369 1.396 . S
C374 C370 1.399 . S
C374 H391 0.901 1_655 S
C375 Gd322 2.805 . S
C375 O357 1.213 1_655 S
C375 O358 1.252 . S
C375 C369 1.500 . S
C376 H338 0.930 . S
C376 C352 1.417 . S
C376 C377 1.329 . S
C377 C347 1.437 . S
C377 H348 0.929 . S
C377 C376 1.329 . S
H378 C351 0.931 . S
C379 O361 1.265 . S
C379 O362 1.242 1_655 S
C380 O365 1.261 . S
C380 O366 1.252 1_545 S
C381 C384 1.394 . S
C381 C386 1.370 . S
C381 C387 1.500 . S
C382 C385 1.383 . S
C382 C386 1.395 . S
C383 C384 1.396 . S
C383 C385 1.365 . S
C383 H392 0.929 . S
C384 C381 1.394 . S
C384 C383 1.396 . S
C384 H393 0.930 . S
C385 C382 1.383 . S
C385 C383 1.365 . S
C385 H394 0.931 . S
C386 C381 1.370 . S
C386 C382 1.395 . S
C386 H395 0.930 . S
C387 Gd323 2.805 . S
C387 O363 1.263 . S
C387 O364 1.252 . S
C387 C381 1.500 . S
H388 C371 0.929 . S
H389 C372 0.930 . S
H390 C373 0.931 . S
H391 C374 0.901 1_455 S
H392 C383 0.929 . S
H393 C384 0.930 . S
H394 C385 0.931 . S
H395 C386 0.930 . S
C396 C398 1.422 . S
C396 C400 1.415 . S
C396 N402 1.369 . S
C397 C398 1.421 . S
C397 C399 1.417 . S
C397 C409 1.422 . S
C398 C396 1.422 . S
C398 C397 1.421 . S
C398 N408 1.359 . S
C399 C397 1.417 . S
C399 C401 1.329 . S
C399 H418 0.930 . S
C400 C396 1.415 . S
C400 C401 1.437 . S
C400 C404 1.413 . S
C401 C399 1.329 . S
C401 C400 1.437 . S
C401 H423 0.929 . S
N402 C396 1.369 . S
N402 C403 1.338 . S
N402 Gd407 2.622 . S
C403 N402 1.338 . S
C403 C405 1.378 . S
C403 H415 0.929 . S
C404 C400 1.413 . S
C404 C405 1.348 . S
C404 H420 0.931 . S
C405 C403 1.378 . S
C405 C404 1.348 . S
C405 H421 0.930 . S
Gd406 N426 2.622 . S
Gd406 N433 2.570 . S
Gd406 O440 2.353 1_545 S
Gd406 O441 2.468 . S
Gd406 O442 2.427 . S
Gd406 O444 2.388 . S
Gd406 O445 2.386 . S
Gd406 O449 2.307 . S
Gd406 C459 2.805 . S
Gd407 N402 2.622 . S
Gd407 N408 2.570 . S
Gd407 O439 2.386 . S
Gd407 O443 2.307 1_565 S
Gd407 O446 2.353 1_565 S
Gd407 O447 2.468 . S
Gd407 O448 2.427 . S
Gd407 O450 2.388 . S
Gd407 C471 2.805 . S
N408 C398 1.359 . S
N408 Gd407 2.570 . S
N408 C410 1.343 . S
C409 C397 1.422 . S
C409 C411 1.321 . S
C409 H417 0.931 . S
C410 N408 1.343 . S
C410 C411 1.390 . S
C410 H412 0.931 . S
C411 C409 1.321 . S
C411 C410 1.390 . S
C411 H413 0.930 . S
H412 C410 0.931 . S
H413 C411 0.930 . S
H414 C437 0.931 . S
H415 C403 0.929 . S
H416 C438 0.930 . S
H417 C409 0.931 . S
H418 C399 0.930 . S
H419 C428 0.929 . S
H420 C404 0.931 . S
H421 C405 0.930 . S
H422 C460 0.930 . S
H423 C401 0.929 . S
H424 C429 0.931 . S
H425 C430 0.930 . S
N426 Gd406 2.622 . S
N426 C427 1.369 . S
N426 C428 1.338 . S
C427 N426 1.369 . S
C427 C431 1.415 . S
C427 C434 1.422 . S
C428 H419 0.929 . S
C428 N426 1.338 . S
C428 C430 1.378 . S
C429 H424 0.931 . S
C429 C430 1.348 . S
C429 C431 1.413 . S
C430 H425 0.930 . S
C430 C428 1.378 . S
C430 C429 1.348 . S
C431 C427 1.415 . S
C431 C429 1.413 . S
C431 C461 1.437 . S
H432 C461 0.929 . S
N433 Gd406 2.570 . S
N433 C434 1.359 . S
N433 C437 1.343 . S
C434 C427 1.422 . S
C434 N433 1.359 . S
C434 C436 1.421 . S
C435 C436 1.422 . S
C435 C438 1.321 . S
C435 H462 0.931 . S
C436 C434 1.421 . S
C436 C435 1.422 . S
C436 C460 1.417 . S
C437 H414 0.931 . S
C437 N433 1.343 . S
C437 C438 1.390 . S
C438 H416 0.930 . S
C438 C435 1.321 . S
C438 C437 1.390 . S
O439 Gd407 2.386 . S
O439 C451 1.265 . S
O440 Gd406 2.353 1_565 S
O440 C451 1.242 . S
O441 Gd406 2.468 . S
O441 C459 1.263 . S
O442 Gd406 2.427 . S
O442 C459 1.252 . S
O443 Gd407 2.307 1_545 S
O443 C452 1.261 . S
O444 Gd406 2.388 . S
O444 C452 1.252 . S
O445 Gd406 2.386 . S
O445 C463 1.265 . S
O446 Gd407 2.353 1_545 S
O446 C463 1.242 . S
O447 Gd407 2.468 . S
O447 C471 1.263 . S
O448 Gd407 2.427 . S
O448 C471 1.252 . S
O449 Gd406 2.307 . S
O449 C464 1.261 1_545 S
O450 Gd407 2.388 . S
O450 C464 1.252 . S
C451 O439 1.265 . S
C451 O440 1.242 . S
C452 O443 1.261 . S
C452 O444 1.252 . S
C453 C456 1.394 . S
C453 C458 1.370 . S
C453 C459 1.500 . S
C454 C457 1.383 . S
C454 C458 1.395 . S
C455 C456 1.396 . S
C455 C457 1.365 . S
C455 H472 0.929 . S
C456 C453 1.394 . S
C456 C455 1.396 . S
C456 H473 0.930 . S
C457 C454 1.383 . S
C457 C455 1.365 . S
C457 H474 0.931 . S
C458 C453 1.370 . S
C458 C454 1.395 . S
C458 H475 0.930 . S
C459 Gd406 2.805 . S
C459 O441 1.263 . S
C459 O442 1.252 . S
C459 C453 1.500 . S
C460 H422 0.930 . S
C460 C436 1.417 . S
C460 C461 1.329 . S
C461 C431 1.437 . S
C461 H432 0.929 . S
C461 C460 1.329 . S
H462 C435 0.931 . S
C463 O445 1.265 . S
C463 O446 1.242 . S
C464 O449 1.261 1_565 S
C464 O450 1.252 . S
C465 C468 1.394 . S
C465 C470 1.370 1_565 S
C465 C471 1.500 . S
C466 C469 1.383 1_545 S
C466 C470 1.395 . S
C467 C468 1.396 . S
C467 C469 1.365 . S
C467 H476 0.929 . S
C468 C465 1.394 . S
C468 C467 1.396 . S
C468 H477 0.930 . S
C469 C466 1.383 1_565 S
C469 C467 1.365 . S
C469 H478 0.931 . S
C470 C465 1.370 1_545 S
C470 C466 1.395 . S
C470 H479 0.930 . S
C471 Gd407 2.805 . S
C471 O447 1.263 . S
C471 O448 1.252 . S
C471 C465 1.500 . S
H472 C455 0.929 . S
H473 C456 0.930 . S
H474 C457 0.931 . S
H475 C458 0.930 . S
H476 C467 0.929 . S
H477 C468 0.930 . S
H478 C469 0.931 . S
H479 C470 0.930 . S
C480 C482 1.422 . S
C480 C484 1.415 . S
C480 N486 1.369 . S
C481 C482 1.421 . S
C481 C483 1.417 . S
C481 C493 1.422 . S
C482 C480 1.422 . S
C482 C481 1.421 . S
C482 N492 1.359 . S
C483 C481 1.417 . S
C483 C485 1.329 . S
C483 H502 0.930 . S
C484 C480 1.415 . S
C484 C485 1.437 . S
C484 C488 1.413 . S
C485 C483 1.329 . S
C485 C484 1.437 . S
C485 H507 0.929 . S
N486 C480 1.369 . S
N486 C487 1.338 . S
N486 Gd491 2.622 . S
C487 N486 1.338 . S
C487 C489 1.378 . S
C487 H499 0.929 . S
C488 C484 1.413 . S
C488 C489 1.348 . S
C488 H504 0.931 . S
C489 C487 1.378 . S
C489 C488 1.348 . S
C489 H505 0.930 . S
Gd490 N510 2.622 . S
Gd490 N517 2.570 . S
Gd490 O524 2.353 . S
Gd490 O525 2.468 . S
Gd490 O526 2.427 . S
Gd490 O528 2.388 . S
Gd490 O529 2.386 . S
Gd490 O533 2.307 . S
Gd490 C543 2.805 . S
Gd491 N486 2.622 . S
Gd491 N492 2.570 . S
Gd491 O523 2.386 . S
Gd491 O527 2.307 . S
Gd491 O530 2.353 . S
Gd491 O531 2.468 . S
Gd491 O532 2.427 . S
Gd491 O534 2.388 . S
Gd491 C555 2.805 . S
N492 C482 1.359 . S
N492 Gd491 2.570 . S
N492 C494 1.343 . S
C493 C481 1.422 . S
C493 C495 1.321 . S
C493 H501 0.931 . S
C494 N492 1.343 . S
C494 C495 1.390 . S
C494 H496 0.931 . S
C495 C493 1.321 . S
C495 C494 1.390 . S
C495 H497 0.930 . S
H496 C494 0.931 . S
H497 C495 0.930 . S
H498 C521 0.931 . S
H499 C487 0.929 . S
H500 C522 0.930 . S
H501 C493 0.931 . S
H502 C483 0.930 . S
H503 C512 0.929 . S
H504 C488 0.931 . S
H505 C489 0.930 . S
H506 C544 0.930 . S
H507 C485 0.929 . S
H508 C513 0.931 . S
H509 C514 0.930 . S
N510 Gd490 2.622 . S
N510 C511 1.369 . S
N510 C512 1.338 . S
C511 N510 1.369 . S
C511 C515 1.415 . S
C511 C518 1.422 . S
C512 H503 0.929 . S
C512 N510 1.338 . S
C512 C514 1.378 . S
C513 H508 0.931 . S
C513 C514 1.348 . S
C513 C515 1.413 . S
C514 H509 0.930 . S
C514 C512 1.378 . S
C514 C513 1.348 . S
C515 C511 1.415 . S
C515 C513 1.413 . S
C515 C545 1.437 . S
H516 C545 0.929 . S
N517 Gd490 2.570 . S
N517 C518 1.359 . S
N517 C521 1.343 . S
C518 C511 1.422 . S
C518 N517 1.359 . S
C518 C520 1.421 . S
C519 C520 1.422 . S
C519 C522 1.321 . S
C519 H546 0.931 . S
C520 C518 1.421 . S
C520 C519 1.422 . S
C520 C544 1.417 . S
C521 H498 0.931 . S
C521 N517 1.343 . S
C521 C522 1.390 . S
C522 H500 0.930 . S
C522 C519 1.321 . S
C522 C521 1.390 . S
O523 Gd491 2.386 . S
O523 C535 1.265 . S
O524 Gd490 2.353 . S
O524 C535 1.242 . S
O525 Gd490 2.468 . S
O525 C543 1.263 . S
O526 Gd490 2.427 . S
O526 C543 1.252 . S
O527 Gd491 2.307 . S
O527 C536 1.261 . S
O528 Gd490 2.388 . S
O528 C536 1.252 . S
O529 Gd490 2.386 . S
O529 C547 1.265 . S
O530 Gd491 2.353 . S
O530 C547 1.242 . S
O531 Gd491 2.468 . S
O531 C555 1.263 . S
O532 Gd491 2.427 . S
O532 C555 1.252 . S
O533 Gd490 2.307 . S
O533 C548 1.261 . S
O534 Gd491 2.388 . S
O534 C548 1.252 . S
C535 O523 1.265 . S
C535 O524 1.242 . S
C536 O527 1.261 . S
C536 O528 1.252 . S
C537 C540 1.394 . S
C537 C542 1.370 . S
C537 C543 1.500 . S
C538 C541 1.383 . S
C538 C542 1.395 . S
C539 C540 1.396 . S
C539 C541 1.365 . S
C539 H556 0.929 . S
C540 C537 1.394 . S
C540 C539 1.396 . S
C540 H557 0.930 . S
C541 C538 1.383 . S
C541 C539 1.365 . S
C541 H558 0.931 . S
C542 C537 1.370 . S
C542 C538 1.395 . S
C542 H559 0.930 . S
C543 Gd490 2.805 . S
C543 O525 1.263 . S
C543 O526 1.252 . S
C543 C537 1.500 . S
C544 H506 0.930 . S
C544 C520 1.417 . S
C544 C545 1.329 . S
C545 C515 1.437 . S
C545 H516 0.929 . S
C545 C544 1.329 . S
H546 C519 0.931 . S
C547 O529 1.265 . S
C547 O530 1.242 . S
C548 O533 1.261 . S
C548 O534 1.252 . S
C549 C552 1.394 . S
C549 C554 1.370 . S
C549 C555 1.500 . S
C550 C553 1.383 . S
C550 C554 1.395 . S
C551 C552 1.396 . S
C551 C553 1.365 . S
C551 H560 0.929 . S
C552 C549 1.394 . S
C552 C551 1.396 . S
C552 H561 0.930 . S
C553 C550 1.383 . S
C553 C551 1.365 . S
C553 H562 0.931 . S
C554 C549 1.370 . S
C554 C550 1.395 . S
C554 H563 0.930 . S
C555 Gd491 2.805 . S
C555 O531 1.263 . S
C555 O532 1.252 . S
C555 C549 1.500 . S
H556 C539 0.929 . S
H557 C540 0.930 . S
H558 C541 0.931 . S
H559 C542 0.930 . S
H560 C551 0.929 . S
H561 C552 0.930 . S
H562 C553 0.931 . S
H563 C554 0.930 . S
C564 C566 1.422 . S
C564 C568 1.415 . S
C564 N570 1.369 1_455 S
C565 C566 1.421 . S
C565 C567 1.417 . S
C565 C577 1.422 . S
C566 C564 1.422 . S
C566 C565 1.421 . S
C566 N576 1.359 . S
C567 C565 1.417 . S
C567 C569 1.329 . S
C567 H586 0.930 . S
C568 C564 1.415 . S
C568 C569 1.437 . S
C568 C572 1.413 . S
C569 C567 1.329 . S
C569 C568 1.437 . S
C569 H591 0.929 . S
N570 C564 1.369 1_655 S
N570 C571 1.338 . S
N570 Gd575 2.622 . S
C571 N570 1.338 . S
C571 C573 1.378 1_655 S
C571 H583 0.929 . S
C572 C568 1.413 . S
C572 C573 1.348 . S
C572 H588 0.931 . S
C573 C571 1.378 1_455 S
C573 C572 1.348 . S
C573 H589 0.930 . S
Gd574 N594 2.622 . S
Gd574 N601 2.570 . S
Gd574 O608 2.353 . S
Gd574 O609 2.468 . S
Gd574 O610 2.427 . S
Gd574 O612 2.388 . S
Gd574 O613 2.386 1_455 S
Gd574 O617 2.307 . S
Gd574 C627 2.805 . S
Gd575 N570 2.622 . S
Gd575 N576 2.570 1_655 S
Gd575 O607 2.386 1_655 S
Gd575 O611 2.293 1_655 S
Gd575 O614 2.353 . S
Gd575 O615 2.468 . S
Gd575 O616 2.427 . S
Gd575 O618 2.388 . S
Gd575 C639 2.805 . S
N576 C566 1.359 . S
N576 Gd575 2.570 1_455 S
N576 C578 1.343 . S
C577 C565 1.422 . S
C577 C579 1.321 . S
C577 H585 0.931 . S
C578 N576 1.343 . S
C578 C579 1.390 . S
C578 H580 0.919 1_455 S
C579 C577 1.321 . S
C579 C578 1.390 . S
C579 H581 0.930 . S
H580 C578 0.919 1_655 S
H581 C579 0.930 . S
H582 C605 0.931 . S
H583 C571 0.929 . S
H584 C606 0.931 . S
H585 C577 0.931 . S
H586 C567 0.930 . S
H587 C596 0.929 . S
H588 C572 0.931 . S
H589 C573 0.930 . S
H590 C628 0.930 . S
H591 C569 0.929 . S
H592 C597 0.931 1_655 S
H593 C598 0.930 . S
N594 Gd574 2.622 . S
N594 C595 1.369 . S
N594 C596 1.338 . S
C595 N594 1.369 . S
C595 C599 1.412 1_455 S
C595 C602 1.422 . S
C596 H587 0.929 . S
C596 N594 1.338 . S
C596 C598 1.378 . S
C597 H592 0.931 1_455 S
C597 C598 1.348 . S
C597 C599 1.412 1_455 S
C598 H593 0.930 . S
C598 C596 1.378 . S
C598 C597 1.348 . S
C599 C595 1.412 1_655 S
C599 C597 1.412 1_655 S
C599 C629 1.441 . S
H600 C629 0.929 . S
N601 Gd574 2.570 . S
N601 C602 1.359 . S
N601 C605 1.343 . S
C602 C595 1.422 . S
C602 N601 1.359 . S
C602 C604 1.421 1_455 S
C603 C604 1.422 . S
C603 C606 1.325 . S
C603 H630 0.931 . S
C604 C602 1.421 1_655 S
C604 C603 1.422 . S
C604 C628 1.417 . S
C605 H582 0.931 . S
C605 N601 1.343 . S
C605 C606 1.385 1_455 S
C606 H584 0.931 . S
C606 C603 1.325 . S
C606 C605 1.385 1_655 S
O607 Gd575 2.386 1_455 S
O607 C619 1.265 . S
O608 Gd574 2.353 . S
O608 C619 1.242 . S
O609 Gd574 2.468 . S
O609 C627 1.263 . S
O610 Gd574 2.427 . S
O610 C627 1.252 . S
O611 Gd575 2.293 1_455 S
O611 C620 1.274 . S
O612 Gd574 2.388 . S
O612 C620 1.252 . S
O613 Gd574 2.386 1_655 S
O613 C631 1.265 . S
O614 Gd575 2.353 . S
O614 C631 1.242 . S
O615 Gd575 2.468 . S
O615 C639 1.263 . S
O616 Gd575 2.427 . S
O616 C639 1.252 . S
O617 Gd574 2.307 . S
O617 C632 1.261 . S
O618 Gd575 2.388 . S
O618 C632 1.252 1_655 S
C619 O607 1.265 . S
C619 O608 1.242 . S
C620 O611 1.274 . S
C620 O612 1.252 . S
C621 C624 1.394 . S
C621 C626 1.370 . S
C621 C627 1.500 . S
C622 C625 1.383 . S
C622 C626 1.395 . S
C623 C624 1.396 . S
C623 C625 1.365 . S
C623 H640 0.929 . S
C624 C621 1.394 . S
C624 C623 1.396 . S
C624 H641 0.930 . S
C625 C622 1.383 . S
C625 C623 1.365 . S
C625 H642 0.931 . S
C626 C621 1.370 . S
C626 C622 1.395 . S
C626 H643 0.930 . S
C627 Gd574 2.805 . S
C627 O609 1.263 . S
C627 O610 1.252 . S
C627 C621 1.500 . S
C628 H590 0.930 . S
C628 C604 1.417 . S
C628 C629 1.329 . S
C629 C599 1.441 . S
C629 H600 0.929 . S
C629 C628 1.329 . S
H630 C603 0.931 . S
C631 O613 1.265 . S
C631 O614 1.242 . S
C632 O617 1.261 . S
C632 O618 1.252 1_455 S
C633 C636 1.394 . S
C633 C638 1.370 . S
C633 C639 1.500 . S
C634 C637 1.383 . S
C634 C638 1.395 . S
C635 C636 1.396 . S
C635 C637 1.365 . S
C635 H644 0.929 . S
C636 C633 1.394 . S
C636 C635 1.396 . S
C636 H645 0.930 . S
C637 C634 1.383 . S
C637 C635 1.365 . S
C637 H646 0.931 . S
C638 C633 1.370 . S
C638 C634 1.395 . S
C638 H647 0.930 . S
C639 Gd575 2.805 . S
C639 O615 1.263 . S
C639 O616 1.252 . S
C639 C633 1.500 . S
H640 C623 0.929 . S
H641 C624 0.930 . S
H642 C625 0.931 . S
H643 C626 0.930 . S
H644 C635 0.929 . S
H645 C636 0.930 . S
H646 C637 0.931 . S
H647 C638 0.930 . S
C648 C649 1.349 . S
C648 C650 1.327 . S
C648 H673 0.950 . S
C649 C648 1.349 . S
C649 C665 1.349 . S
C650 C648 1.327 . S
C650 C669 1.429 . S
C650 H674 0.950 . S
C651 C668 1.574 . S
C651 C670 1.368 . S
C651 H675 0.949 . S
H652 C656 0.949 . S
C653 C654 1.349 . S
C653 C655 1.327 . S
C653 H676 0.950 1_545 S
C654 C653 1.349 . S
C654 C666 1.349 . S
C655 C653 1.327 . S
C655 C671 1.429 . S
C655 H677 0.968 . S
C656 H652 0.949 . S
C656 C664 1.574 . S
C656 C672 1.368 . S
H657 C665 0.950 . S
H658 C663 0.950 . S
H659 C664 0.949 . S
H660 C666 0.950 . S
H661 C667 0.950 . S
H662 C668 0.949 . S
C663 H658 0.950 . S
C663 C665 1.327 . S
C663 C669 1.429 . S
C664 C656 1.574 . S
C664 H659 0.949 . S
C664 C670 1.368 . S
C665 C649 1.349 . S
C665 H657 0.950 . S
C665 C663 1.327 . S
C666 C654 1.349 . S
C666 H660 0.950 . S
C666 C667 1.327 . S
C667 H661 0.950 . S
C667 C666 1.327 . S
C667 C671 1.429 . S
C668 C651 1.574 . S
C668 H662 0.949 . S
C668 C672 1.368 . S
C669 C650 1.429 . S
C669 C663 1.429 . S
C669 C670 1.523 . S
C670 C651 1.368 . S
C670 C664 1.368 . S
C670 C669 1.523 . S
C671 C655 1.429 . S
C671 C667 1.429 . S
C671 C672 1.523 . S
C672 C656 1.368 . S
C672 C668 1.368 . S
C672 C671 1.523 . S
H673 C648 0.950 . S
H674 C650 0.950 . S
H675 C651 0.949 . S
H676 C653 0.950 1_565 S
H677 C655 0.968 . S
C678 C679 1.349 . S
C678 C680 1.327 . S
C678 H703 0.950 . S
C679 C678 1.349 . S
C679 C695 1.349 . S
C680 C678 1.327 . S
C680 C699 1.429 . S
C680 H704 0.950 . S
C681 C698 1.574 . S
C681 C700 1.368 . S
C681 H705 0.949 . S
H682 C686 0.949 . S
C683 C684 1.349 . S
C683 C685 1.327 . S
C683 H706 0.950 . S
C684 C683 1.349 . S
C684 C696 1.349 . S
C685 C683 1.327 . S
C685 C701 1.429 . S
C685 H707 0.950 . S
C686 H682 0.949 . S
C686 C694 1.574 . S
C686 C702 1.368 . S
H687 C695 0.950 . S
H688 C693 0.950 . S
H689 C694 0.949 . S
H690 C696 0.950 . S
H691 C697 0.950 . S
H692 C698 0.949 . S
C693 H688 0.950 . S
C693 C695 1.327 . S
C693 C699 1.429 . S
C694 C686 1.574 . S
C694 H689 0.949 . S
C694 C700 1.368 . S
C695 C679 1.349 . S
C695 H687 0.950 . S
C695 C693 1.327 . S
C696 C684 1.349 . S
C696 H690 0.950 . S
C696 C697 1.327 . S
C697 H691 0.950 . S
C697 C696 1.327 . S
C697 C701 1.429 . S
C698 C681 1.574 . S
C698 H692 0.949 . S
C698 C702 1.368 . S
C699 C680 1.429 . S
C699 C693 1.429 . S
C699 C700 1.523 . S
C700 C681 1.368 . S
C700 C694 1.368 . S
C700 C699 1.523 . S
C701 C685 1.429 . S
C701 C697 1.429 . S
C701 C702 1.523 . S
C702 C686 1.368 . S
C702 C698 1.368 . S
C702 C701 1.523 . S
H703 C678 0.950 . S
H704 C680 0.950 . S
H705 C681 0.949 . S
H706 C683 0.950 . S
H707 C685 0.950 . S
C708 C709 1.349 . S
C708 C710 1.327 . S
C708 H733 0.950 . S
C709 C708 1.349 . S
C709 C725 1.349 . S
C710 C708 1.327 . S
C710 C729 1.429 . S
C710 H734 0.950 . S
C711 C728 1.574 . S
C711 C730 1.368 . S
C711 H735 0.949 . S
H712 C716 0.949 . S
C713 C714 1.349 . S
C713 C715 1.327 . S
C713 H736 0.950 . S
C714 C713 1.349 . S
C714 C726 1.349 . S
C715 C713 1.327 . S
C715 C731 1.429 . S
C715 H737 0.950 . S
C716 H712 0.949 . S
C716 C724 1.574 . S
C716 C732 1.368 . S
H717 C725 0.950 . S
H718 C723 0.950 . S
H719 C724 0.949 . S
H720 C726 0.950 . S
H721 C727 0.950 . S
H722 C728 0.949 . S
C723 H718 0.950 . S
C723 C725 1.327 . S
C723 C729 1.429 . S
C724 C716 1.574 . S
C724 H719 0.949 . S
C724 C730 1.368 . S
C725 C709 1.349 . S
C725 H717 0.950 . S
C725 C723 1.327 . S
C726 C714 1.349 . S
C726 H720 0.950 . S
C726 C727 1.327 . S
C727 H721 0.950 . S
C727 C726 1.327 . S
C727 C731 1.429 . S
C728 C711 1.574 . S
C728 H722 0.949 . S
C728 C732 1.368 . S
C729 C710 1.429 . S
C729 C723 1.429 . S
C729 C730 1.523 . S
C730 C711 1.368 . S
C730 C724 1.368 . S
C730 C729 1.523 . S
C731 C715 1.429 . S
C731 C727 1.429 . S
C731 C732 1.523 . S
C732 C716 1.368 . S
C732 C728 1.368 . S
C732 C731 1.523 . S
H733 C708 0.950 . S
H734 C710 0.950 . S
H735 C711 0.949 . S
H736 C713 0.950 . S
H737 C715 0.950 . S
C738 C739 1.349 . S
C738 C740 1.327 . S
C738 H763 0.950 . S
C739 C738 1.349 . S
C739 C755 1.349 . S
C740 C738 1.327 . S
C740 C759 1.429 . S
C740 H764 0.950 . S
C741 C758 1.574 . S
C741 C760 1.368 . S
C741 H765 0.949 . S
H742 C746 0.949 . S
C743 C744 1.349 . S
C743 C745 1.327 . S
C743 H766 0.950 . S
C744 C743 1.349 . S
C744 C756 1.349 . S
C745 C743 1.327 . S
C745 C761 1.429 . S
C745 H767 0.950 . S
C746 H742 0.949 . S
C746 C754 1.574 . S
C746 C762 1.368 . S
H747 C755 0.950 . S
H748 C753 0.950 . S
H749 C754 0.949 . S
H750 C756 0.950 . S
H751 C757 0.950 . S
H752 C758 0.949 . S
C753 H748 0.950 . S
C753 C755 1.327 . S
C753 C759 1.429 . S
C754 C746 1.574 . S
C754 H749 0.949 . S
C754 C760 1.368 . S
C755 C739 1.349 . S
C755 H747 0.950 . S
C755 C753 1.327 . S
C756 C744 1.349 . S
C756 H750 0.950 . S
C756 C757 1.327 . S
C757 H751 0.950 . S
C757 C756 1.327 . S
C757 C761 1.429 . S
C758 C741 1.574 . S
C758 H752 0.949 . S
C758 C762 1.368 . S
C759 C740 1.429 . S
C759 C753 1.429 . S
C759 C760 1.523 . S
C760 C741 1.368 . S
C760 C754 1.368 . S
C760 C759 1.523 . S
C761 C745 1.429 . S
C761 C757 1.429 . S
C761 C762 1.523 . S
C762 C746 1.368 . S
C762 C758 1.368 . S
C762 C761 1.523 . S
H763 C738 0.950 . S
H764 C740 0.950 . S
H765 C741 0.949 . S
H766 C743 0.950 . S
H767 C745 0.950 . S
C768 C769 1.349 . S
C768 C770 1.327 1_554 S
C768 H793 0.950 . S
C769 C768 1.349 . S
C769 C785 1.349 . S
C770 C768 1.327 1_556 S
C770 C789 1.429 . S
C770 H794 0.950 . S
C771 C788 1.574 . S
C771 C790 1.368 . S
C771 H795 0.937 1_565 S
H772 C776 0.949 . S
C773 C774 1.349 1_545 S
C773 C775 1.327 . S
C773 H796 0.950 . S
C774 C773 1.349 1_565 S
C774 C786 1.349 . S
C775 C773 1.327 . S
C775 C791 1.429 1_545 S
C775 H797 0.950 . S
C776 H772 0.949 . S
C776 C784 1.574 . S
C776 C792 1.368 . S
H777 C785 0.950 . S
H778 C783 0.950 . S
H779 C784 0.949 . S
H780 C786 0.950 . S
H781 C787 0.950 . S
H782 C788 0.949 1_545 S
C783 H778 0.950 . S
C783 C785 1.327 . S
C783 C789 1.429 1_554 S
C784 C776 1.574 . S
C784 H779 0.949 . S
C784 C790 1.368 . S
C785 C769 1.349 . S
C785 H777 0.950 . S
C785 C783 1.327 . S
C786 C774 1.349 . S
C786 H780 0.950 . S
C786 C787 1.327 . S
C787 H781 0.950 . S
C787 C786 1.327 . S
C787 C791 1.429 . S
C788 C771 1.574 . S
C788 H782 0.949 1_565 S
C788 C792 1.368 . S
C789 C770 1.429 . S
C789 C783 1.429 1_556 S
C789 C790 1.523 . S
C790 C771 1.368 . S
C790 C784 1.368 . S
C790 C789 1.523 . S
C791 C775 1.429 1_565 S
C791 C787 1.429 . S
C791 C792 1.523 . S
C792 C776 1.368 . S
C792 C788 1.368 . S
C792 C791 1.523 . S
H793 C768 0.950 . S
H794 C770 0.950 . S
H795 C771 0.937 1_545 S
H796 C773 0.950 . S
H797 C775 0.950 . S
C798 C799 1.349 . S
C798 C800 1.327 . S
C798 H823 0.950 . S
C799 C798 1.349 . S
C799 C815 1.349 . S
C800 C798 1.327 . S
C800 C819 1.429 1_554 S
C800 H824 0.950 1_554 S
C801 C818 1.574 . S
C801 C820 1.368 . S
C801 H825 0.949 . S
H802 C806 0.949 . S
C803 C804 1.349 . S
C803 C805 1.327 . S
C803 H826 0.950 . S
C804 C803 1.349 . S
C804 C816 1.349 . S
C805 C803 1.327 . S
C805 C821 1.429 . S
C805 H827 0.950 . S
C806 H802 0.949 . S
C806 C814 1.574 . S
C806 C822 1.368 . S
H807 C815 0.950 . S
H808 C813 0.950 . S
H809 C814 0.949 . S
H810 C816 0.950 . S
H811 C817 0.950 . S
H812 C818 0.949 . S
C813 H808 0.950 . S
C813 C815 1.327 . S
C813 C819 1.429 1_554 S
C814 C806 1.574 . S
C814 H809 0.949 . S
C814 C820 1.368 . S
C815 C799 1.349 . S
C815 H807 0.950 . S
C815 C813 1.327 . S
C816 C804 1.349 . S
C816 H810 0.950 . S
C816 C817 1.327 . S
C817 H811 0.950 . S
C817 C816 1.327 . S
C817 C821 1.429 . S
C818 C801 1.574 . S
C818 H812 0.949 . S
C818 C822 1.368 . S
C819 C800 1.429 1_556 S
C819 C813 1.429 1_556 S
C819 C820 1.523 . S
C820 C801 1.368 . S
C820 C814 1.368 . S
C820 C819 1.523 . S
C821 C805 1.429 . S
C821 C817 1.429 . S
C821 C822 1.523 . S
C822 C806 1.368 . S
C822 C818 1.368 . S
C822 C821 1.523 . S
H823 C798 0.950 . S
H824 C800 0.950 1_556 S
H825 C801 0.949 . S
H826 C803 0.950 . S
H827 C805 0.950 . S
C828 C829 1.349 . S
C828 C830 1.327 . S
C828 H853 0.950 . S
C829 C828 1.349 . S
C829 C845 1.349 . S
C830 C828 1.327 . S
C830 C849 1.429 1_554 S
C830 H854 0.950 1_554 S
C831 C848 1.574 . S
C831 C850 1.368 . S
C831 H855 0.949 . S
H832 C836 0.949 . S
C833 C834 1.349 . S
C833 C835 1.327 . S
C833 H856 0.950 . S
C834 C833 1.349 . S
C834 C846 1.349 . S
C835 C833 1.327 . S
C835 C851 1.429 . S
C835 H857 0.950 . S
C836 H832 0.949 . S
C836 C844 1.574 . S
C836 C852 1.368 . S
H837 C845 0.950 . S
H838 C843 0.950 . S
H839 C844 0.949 . S
H840 C846 0.950 . S
H841 C847 0.950 . S
H842 C848 0.949 . S
C843 H838 0.950 . S
C843 C845 1.327 . S
C843 C849 1.429 1_554 S
C844 C836 1.574 . S
C844 H839 0.949 . S
C844 C850 1.368 . S
C845 C829 1.349 . S
C845 H837 0.950 . S
C845 C843 1.327 . S
C846 C834 1.349 . S
C846 H840 0.950 . S
C846 C847 1.327 . S
C847 H841 0.950 . S
C847 C846 1.327 . S
C847 C851 1.429 . S
C848 C831 1.574 . S
C848 H842 0.949 . S
C848 C852 1.368 . S
C849 C830 1.429 1_556 S
C849 C843 1.429 1_556 S
C849 C850 1.523 . S
C850 C831 1.368 . S
C850 C844 1.368 . S
C850 C849 1.523 . S
C851 C835 1.429 . S
C851 C847 1.429 . S
C851 C852 1.523 . S
C852 C836 1.368 . S
C852 C848 1.368 . S
C852 C851 1.523 . S
H853 C828 0.950 . S
H854 C830 0.950 1_556 S
H855 C831 0.949 . S
H856 C833 0.950 . S
H857 C835 0.950 . S
C858 C859 1.349 . S
C858 C860 1.327 . S
C858 H883 0.950 . S
C859 C858 1.349 . S
C859 C875 1.349 . S
C860 C858 1.327 . S
C860 C879 1.429 1_554 S
C860 H884 0.950 1_554 S
C861 C878 1.574 . S
C861 C880 1.368 . S
C861 H885 0.949 . S
H862 C866 0.949 1_455 S
C863 C864 1.349 . S
C863 C865 1.327 . S
C863 H886 0.950 . S
C864 C863 1.349 . S
C864 C876 1.349 1_655 S
C865 C863 1.327 . S
C865 C881 1.429 . S
C865 H887 0.950 . S
C866 H862 0.949 1_655 S
C866 C874 1.574 . S
C866 C882 1.368 . S
H867 C875 0.950 . S
H868 C873 0.950 . S
H869 C874 0.949 1_455 S
H870 C876 0.950 . S
H871 C877 0.950 . S
H872 C878 0.949 . S
C873 H868 0.950 . S
C873 C875 1.327 . S
C873 C879 1.429 1_554 S
C874 C866 1.574 . S
C874 H869 0.949 1_655 S
C874 C880 1.368 . S
C875 C859 1.349 . S
C875 H867 0.950 . S
C875 C873 1.327 . S
C876 C864 1.349 1_455 S
C876 H870 0.950 . S
C876 C877 1.327 . S
C877 H871 0.950 . S
C877 C876 1.327 . S
C877 C881 1.429 1_455 S
C878 C861 1.574 . S
C878 H872 0.949 . S
C878 C882 1.368 . S
C879 C860 1.429 1_556 S
C879 C873 1.429 1_556 S
C879 C880 1.523 . S
C880 C861 1.368 . S
C880 C874 1.368 . S
C880 C879 1.523 . S
C881 C865 1.429 . S
C881 C877 1.429 1_655 S
C881 C882 1.523 . S
C882 C866 1.368 . S
C882 C878 1.368 . S
C882 C881 1.523 . S
H883 C858 0.950 . S
H884 C860 0.950 1_556 S
H885 C861 0.949 . S
H886 C863 0.950 . S
H887 C865 0.950 . S
C888 C889 1.349 . S
C888 C890 1.327 . S
C888 H913 0.950 . S
C889 C888 1.349 . S
C889 C905 1.349 . S
C890 C888 1.327 . S
C890 C909 1.429 . S
C890 H914 0.950 . S
C891 C908 1.574 . S
C891 C910 1.368 . S
C891 H915 0.949 . S
H892 C896 0.949 . S
C893 C894 1.357 . S
C893 C895 1.345 . S
C893 H916 0.927 1_455 S
C894 C893 1.357 . S
C894 C906 1.349 . S
C895 C893 1.345 . S
C895 C911 1.429 . S
C895 H917 0.950 . S
C896 H892 0.949 . S
C896 C904 1.574 . S
C896 C912 1.368 . S
H897 C905 0.950 . S
H898 C903 0.950 . S
H899 C904 0.949 . S
H900 C906 0.950 . S
H901 C907 0.950 . S
H902 C908 0.949 . S
C903 H898 0.950 . S
C903 C905 1.327 . S
C903 C909 1.429 . S
C904 C896 1.574 . S
C904 H899 0.949 . S
C904 C910 1.368 . S
C905 C889 1.349 . S
C905 H897 0.950 . S
C905 C903 1.327 . S
C906 C894 1.349 . S
C906 H900 0.950 . S
C906 C907 1.327 . S
C907 H901 0.950 . S
C907 C906 1.327 . S
C907 C911 1.429 . S
C908 C891 1.574 . S
C908 H902 0.949 . S
C908 C912 1.368 . S
C909 C890 1.429 . S
C909 C903 1.429 . S
C909 C910 1.523 . S
C910 C891 1.368 . S
C910 C904 1.368 . S
C910 C909 1.523 . S
C911 C895 1.429 . S
C911 C907 1.429 . S
C911 C912 1.523 . S
C912 C896 1.368 . S
C912 C908 1.368 . S
C912 C911 1.523 . S
H913 C888 0.950 . S
H914 C890 0.950 . S
H915 C891 0.949 . S
H916 C893 0.927 1_655 S
H917 C895 0.950 . S
C918 C919 1.349 . S
C918 C920 1.327 . S
C918 H943 0.950 . S
C919 C918 1.349 . S
C919 C935 1.349 . S
C920 C918 1.327 . S
C920 C939 1.429 . S
C920 H944 0.950 . S
C921 C938 1.574 . S
C921 C940 1.368 . S
C921 H945 0.949 . S
H922 C926 0.949 . S
C923 C924 1.349 . S
C923 C925 1.327 . S
C923 H946 0.950 . S
C924 C923 1.349 . S
C924 C936 1.342 1_545 S
C925 C923 1.327 . S
C925 C941 1.429 . S
C925 H947 0.950 . S
C926 H922 0.949 . S
C926 C934 1.574 . S
C926 C942 1.368 . S
H927 C935 0.950 . S
H928 C933 0.950 . S
H929 C934 0.949 . S
H930 C936 0.968 . S
H931 C937 0.950 . S
H932 C938 0.949 . S
C933 H928 0.950 . S
C933 C935 1.327 . S
C933 C939 1.429 . S
C934 C926 1.574 . S
C934 H929 0.949 . S
C934 C940 1.368 . S
C935 C919 1.349 . S
C935 H927 0.950 . S
C935 C933 1.327 . S
C936 C924 1.342 1_565 S
C936 H930 0.968 . S
C936 C937 1.317 1_565 S
C937 H931 0.950 . S
C937 C936 1.317 1_545 S
C937 C941 1.429 . S
C938 C921 1.574 . S
C938 H932 0.949 . S
C938 C942 1.368 . S
C939 C920 1.429 . S
C939 C933 1.429 . S
C939 C940 1.523 . S
C940 C921 1.368 . S
C940 C934 1.368 . S
C940 C939 1.523 . S
C941 C925 1.429 . S
C941 C937 1.429 . S
C941 C942 1.523 . S
C942 C926 1.368 . S
C942 C938 1.368 . S
C942 C941 1.523 . S
H943 C918 0.950 . S
H944 C920 0.950 . S
H945 C921 0.949 . S
H946 C923 0.950 . S
H947 C925 0.950 . S
C948 C949 1.349 . S
C948 C950 1.327 . S
C948 H973 0.950 . S
C949 C948 1.349 . S
C949 C965 1.349 . S
C950 C948 1.327 . S
C950 C969 1.429 . S
C950 H974 0.950 . S
C951 C968 1.574 . S
C951 C970 1.368 . S
C951 H975 0.949 . S
H952 C956 0.949 . S
C953 C954 1.349 . S
C953 C955 1.327 . S
C953 H976 0.950 . S
C954 C953 1.349 . S
C954 C966 1.349 . S
C955 C953 1.327 . S
C955 C971 1.429 . S
C955 H977 0.950 . S
C956 H952 0.949 . S
C956 C964 1.574 . S
C956 C972 1.368 . S
H957 C965 0.950 . S
H958 C963 0.950 . S
H959 C964 0.949 . S
H960 C966 0.950 . S
H961 C967 0.950 . S
H962 C968 0.949 . S
C963 H958 0.950 . S
C963 C965 1.327 . S
C963 C969 1.429 . S
C964 C956 1.574 . S
C964 H959 0.949 . S
C964 C970 1.368 . S
C965 C949 1.349 . S
C965 H957 0.950 . S
C965 C963 1.327 . S
C966 C954 1.349 . S
C966 H960 0.950 . S
C966 C967 1.327 . S
C967 H961 0.950 . S
C967 C966 1.327 . S
C967 C971 1.429 . S
C968 C951 1.574 . S
C968 H962 0.949 . S
C968 C972 1.368 . S
C969 C950 1.429 . S
C969 C963 1.429 . S
C969 C970 1.523 . S
C970 C951 1.368 . S
C970 C964 1.368 . S
C970 C969 1.523 . S
C971 C955 1.429 . S
C971 C967 1.429 . S
C971 C972 1.523 . S
C972 C956 1.368 . S
C972 C968 1.368 . S
C972 C971 1.523 . S
H973 C948 0.950 . S
H974 C950 0.950 . S
H975 C951 0.949 . S
H976 C953 0.950 . S
H977 C955 0.950 . S
C978 C979 1.349 . S
C978 C980 1.327 . S
C978 H1003 0.950 . S
C979 C978 1.349 . S
C979 C995 1.349 . S
C980 C978 1.327 . S
C980 C999 1.429 . S
C980 H1004 0.950 . S
C981 C998 1.574 . S
C981 C1000 1.368 . S
C981 H1005 0.949 . S
H982 C986 0.949 . S
C983 C984 1.349 . S
C983 C985 1.327 . S
C983 H1006 0.950 . S
C984 C983 1.349 . S
C984 C996 1.349 . S
C985 C983 1.327 . S
C985 C1001 1.429 . S
C985 H1007 0.950 . S
C986 H982 0.949 . S
C986 C994 1.574 . S
C986 C1002 1.368 . S
H987 C995 0.950 . S
H988 C993 0.950 . S
H989 C994 0.949 . S
H990 C996 0.950 . S
H991 C997 0.950 . S
H992 C998 0.949 . S
C993 H988 0.950 . S
C993 C995 1.327 . S
C993 C999 1.429 . S
C994 C986 1.574 . S
C994 H989 0.949 . S
C994 C1000 1.368 . S
C995 C979 1.349 . S
C995 H987 0.950 . S
C995 C993 1.327 . S
C996 C984 1.349 . S
C996 H990 0.950 . S
C996 C997 1.327 . S
C997 H991 0.950 . S
C997 C996 1.327 . S
C997 C1001 1.429 . S
C998 C981 1.574 . S
C998 H992 0.949 . S
C998 C1002 1.368 . S
C999 C980 1.429 . S
C999 C993 1.429 . S
C999 C1000 1.523 . S
C1000 C981 1.368 . S
C1000 C994 1.368 . S
C1000 C999 1.523 . S
C1001 C985 1.429 . S
C1001 C997 1.429 . S
C1001 C1002 1.523 . S
C1002 C986 1.368 . S
C1002 C998 1.368 . S
C1002 C1001 1.523 . S
H1003 C978 0.950 . S
H1004 C980 0.950 . S
H1005 C981 0.949 . S
H1006 C983 0.950 . S
H1007 C985 0.950 . S
C1008 C1009 1.349 1_556 S
C1008 C1010 1.327 . S
C1008 H1033 0.950 . S
C1009 C1008 1.349 1_554 S
C1009 C1025 1.349 . S
C1010 C1008 1.327 . S
C1010 C1029 1.429 . S
C1010 H1034 0.950 . S
C1011 C1028 1.574 . S
C1011 C1030 1.368 . S
C1011 H1035 0.949 . S
H1012 C1016 0.949 . S
C1013 C1014 1.349 . S
C1013 C1015 1.327 1_455 S
C1013 H1036 0.950 . S
C1014 C1013 1.349 . S
C1014 C1026 1.349 . S
C1015 C1013 1.327 1_655 S
C1015 C1031 1.429 . S
C1015 H1037 0.950 . S
C1016 H1012 0.949 . S
C1016 C1024 1.574 . S
C1016 C1032 1.368 . S
H1017 C1025 0.950 . S
H1018 C1023 0.950 . S
H1019 C1024 0.949 . S
H1020 C1026 0.950 . S
H1021 C1027 0.950 . S
H1022 C1028 0.949 . S
C1023 H1018 0.950 . S
C1023 C1025 1.327 . S
C1023 C1029 1.429 1_554 S
C1024 C1016 1.574 . S
C1024 H1019 0.949 . S
C1024 C1030 1.368 . S
C1025 C1009 1.349 . S
C1025 H1017 0.950 . S
C1025 C1023 1.327 . S
C1026 C1014 1.349 . S
C1026 H1020 0.950 . S
C1026 C1027 1.327 . S
C1027 H1021 0.950 . S
C1027 C1026 1.327 . S
C1027 C1031 1.429 1_455 S
C1028 C1011 1.574 . S
C1028 H1022 0.949 . S
C1028 C1032 1.368 . S
C1029 C1010 1.429 . S
C1029 C1023 1.429 1_556 S
C1029 C1030 1.523 . S
C1030 C1011 1.368 . S
C1030 C1024 1.368 . S
C1030 C1029 1.523 . S
C1031 C1015 1.429 . S
C1031 C1027 1.429 1_655 S
C1031 C1032 1.523 . S
C1032 C1016 1.368 . S
C1032 C1028 1.368 . S
C1032 C1031 1.523 . S
H1033 C1008 0.950 . S
H1034 C1010 0.950 . S
H1035 C1011 0.949 . S
H1036 C1013 0.950 . S
H1037 C1015 0.950 . S
C1038 C1039 1.349 . S
C1038 C1040 1.327 1_554 S
C1038 H1063 0.950 . S
C1039 C1038 1.349 . S
C1039 C1055 1.349 1_554 S
C1040 C1038 1.327 1_556 S
C1040 C1059 1.429 . S
C1040 H1064 0.950 . S
C1041 C1058 1.574 1_565 S
C1041 C1060 1.368 . S
C1041 H1065 0.949 1_565 S
H1042 C1046 0.949 . S
C1043 C1044 1.349 . S
C1043 C1045 1.327 . S
C1043 H1066 0.950 . S
C1044 C1043 1.349 . S
C1044 C1056 1.349 1_545 S
C1045 C1043 1.327 . S
C1045 C1061 1.429 1_545 S
C1045 H1067 0.950 . S
C1046 H1042 0.949 . S
C1046 C1054 1.574 . S
C1046 C1062 1.368 . S
H1047 C1055 0.950 . S
H1048 C1053 0.950 . S
H1049 C1054 0.949 . S
H1050 C1056 0.950 . S
H1051 C1057 0.950 . S
H1052 C1058 0.949 . S
C1053 H1048 0.950 . S
C1053 C1055 1.327 . S
C1053 C1059 1.429 . S
C1054 C1046 1.574 . S
C1054 H1049 0.949 . S
C1054 C1060 1.368 . S
C1055 C1039 1.349 1_556 S
C1055 H1047 0.950 . S
C1055 C1053 1.327 . S
C1056 C1044 1.349 1_565 S
C1056 H1050 0.950 . S
C1056 C1057 1.327 . S
C1057 H1051 0.950 . S
C1057 C1056 1.327 . S
C1057 C1061 1.429 . S
C1058 C1041 1.574 1_545 S
C1058 H1052 0.949 . S
C1058 C1062 1.368 1_545 S
C1059 C1040 1.429 . S
C1059 C1053 1.429 . S
C1059 C1060 1.523 . S
C1060 C1041 1.368 . S
C1060 C1054 1.368 . S
C1060 C1059 1.523 . S
C1061 C1045 1.429 1_565 S
C1061 C1057 1.429 . S
C1061 C1062 1.523 . S
C1062 C1046 1.368 . S
C1062 C1058 1.368 1_565 S
C1062 C1061 1.523 . S
H1063 C1038 0.950 . S
H1064 C1040 0.950 . S
H1065 C1041 0.949 1_545 S
H1066 C1043 0.950 . S
H1067 C1045 0.950 . S
C1068 C1069 1.349 1_556 S
C1068 C1070 1.327 . S
C1068 H1093 0.950 . S
C1069 C1068 1.349 1_554 S
C1069 C1085 1.349 . S
C1070 C1068 1.327 . S
C1070 C1089 1.429 . S
C1070 H1094 0.950 . S
C1071 C1088 1.574 . S
C1071 C1090 1.368 . S
C1071 H1095 0.949 . S
H1072 C1076 0.949 . S
C1073 C1074 1.349 . S
C1073 C1075 1.327 . S
C1073 H1096 0.950 . S
C1074 C1073 1.349 . S
C1074 C1086 1.349 . S
C1075 C1073 1.327 . S
C1075 C1091 1.429 . S
C1075 H1097 0.950 . S
C1076 H1072 0.949 . S
C1076 C1084 1.574 . S
C1076 C1092 1.368 . S
H1077 C1085 0.950 . S
H1078 C1083 0.950 . S
H1079 C1084 0.949 . S
H1080 C1086 0.950 . S
H1081 C1087 0.950 . S
H1082 C1088 0.949 . S
C1083 H1078 0.950 . S
C1083 C1085 1.327 . S
C1083 C1089 1.429 1_554 S
C1084 C1076 1.574 . S
C1084 H1079 0.949 . S
C1084 C1090 1.368 . S
C1085 C1069 1.349 . S
C1085 H1077 0.950 . S
C1085 C1083 1.327 . S
C1086 C1074 1.349 . S
C1086 H1080 0.950 . S
C1086 C1087 1.327 . S
C1087 H1081 0.950 . S
C1087 C1086 1.327 . S
C1087 C1091 1.429 . S
C1088 C1071 1.574 . S
C1088 H1082 0.949 . S
C1088 C1092 1.368 . S
C1089 C1070 1.429 . S
C1089 C1083 1.429 1_556 S
C1089 C1090 1.523 . S
C1090 C1071 1.368 . S
C1090 C1084 1.368 . S
C1090 C1089 1.523 . S
C1091 C1075 1.429 . S
C1091 C1087 1.429 . S
C1091 C1092 1.523 . S
C1092 C1076 1.368 . S
C1092 C1088 1.368 . S
C1092 C1091 1.523 . S
H1093 C1068 0.950 . S
H1094 C1070 0.950 . S
H1095 C1071 0.949 . S
H1096 C1073 0.950 . S
H1097 C1075 0.950 . S
C1098 C1099 1.349 . S
C1098 C1100 1.327 1_554 S
C1098 H1123 0.950 . S
C1099 C1098 1.349 . S
C1099 C1115 1.349 1_554 S
C1100 C1098 1.327 1_556 S
C1100 C1119 1.429 . S
C1100 H1124 0.950 . S
C1101 C1118 1.574 . S
C1101 C1120 1.368 . S
C1101 H1125 0.949 . S
H1102 C1106 0.949 . S
C1103 C1104 1.349 . S
C1103 C1105 1.327 . S
C1103 H1126 0.950 . S
C1104 C1103 1.349 . S
C1104 C1116 1.349 . S
C1105 C1103 1.327 . S
C1105 C1121 1.429 . S
C1105 H1127 0.950 . S
C1106 H1102 0.949 . S
C1106 C1114 1.574 . S
C1106 C1122 1.368 . S
H1107 C1115 0.950 1_554 S
H1108 C1113 0.950 . S
H1109 C1114 0.949 . S
H1110 C1116 0.950 . S
H1111 C1117 0.950 . S
H1112 C1118 0.949 . S
C1113 H1108 0.950 . S
C1113 C1115 1.327 . S
C1113 C1119 1.429 . S
C1114 C1106 1.574 . S
C1114 H1109 0.949 . S
C1114 C1120 1.368 . S
C1115 C1099 1.349 1_556 S
C1115 H1107 0.950 1_556 S
C1115 C1113 1.327 . S
C1116 C1104 1.349 . S
C1116 H1110 0.950 . S
C1116 C1117 1.327 . S
C1117 H1111 0.950 . S
C1117 C1116 1.327 . S
C1117 C1121 1.429 . S
C1118 C1101 1.574 . S
C1118 H1112 0.949 . S
C1118 C1122 1.368 . S
C1119 C1100 1.429 . S
C1119 C1113 1.429 . S
C1119 C1120 1.523 . S
C1120 C1101 1.368 . S
C1120 C1114 1.368 . S
C1120 C1119 1.523 . S
C1121 C1105 1.429 . S
C1121 C1117 1.429 . S
C1121 C1122 1.523 . S
C1122 C1106 1.368 . S
C1122 C1118 1.368 . S
C1122 C1121 1.523 . S
H1123 C1098 0.950 . S
H1124 C1100 0.950 . S
H1125 C1101 0.949 . S
H1126 C1103 0.950 . S
H1127 C1105 0.950 . S
C1128 C1129 1.349 . S
C1128 C1130 1.327 . S
C1128 H1153 0.950 . S
C1129 C1128 1.349 . S
C1129 C1145 1.349 . S
C1130 C1128 1.327 . S
C1130 C1149 1.429 . S
C1130 H1154 0.950 . S
C1131 C1148 1.574 . S
C1131 C1150 1.368 . S
C1131 H1155 0.949 . S
H1132 C1136 0.949 . S
C1133 C1134 1.349 . S
C1133 C1135 1.327 . S
C1133 H1156 0.971 . S
C1134 C1133 1.349 . S
C1134 C1146 1.349 . S
C1135 C1133 1.327 . S
C1135 C1151 1.429 . S
C1135 H1157 0.950 . S
C1136 H1132 0.949 . S
C1136 C1144 1.574 . S
C1136 C1152 1.368 . S
H1137 C1145 0.950 . S
H1138 C1143 0.950 . S
H1139 C1144 0.949 . S
H1140 C1146 0.950 . S
H1141 C1147 0.950 . S
H1142 C1148 0.949 . S
C1143 H1138 0.950 . S
C1143 C1145 1.327 . S
C1143 C1149 1.429 . S
C1144 C1136 1.574 . S
C1144 H1139 0.949 . S
C1144 C1150 1.368 . S
C1145 C1129 1.349 . S
C1145 H1137 0.950 . S
C1145 C1143 1.327 . S
C1146 C1134 1.349 . S
C1146 H1140 0.950 . S
C1146 C1147 1.327 . S
C1147 H1141 0.950 . S
C1147 C1146 1.327 . S
C1147 C1151 1.429 . S
C1148 C1131 1.574 . S
C1148 H1142 0.949 . S
C1148 C1152 1.368 . S
C1149 C1130 1.429 . S
C1149 C1143 1.429 . S
C1149 C1150 1.523 . S
C1150 C1131 1.368 . S
C1150 C1144 1.368 . S
C1150 C1149 1.523 . S
C1151 C1135 1.429 . S
C1151 C1147 1.429 . S
C1151 C1152 1.523 . S
C1152 C1136 1.368 . S
C1152 C1148 1.368 . S
C1152 C1151 1.523 . S
H1153 C1128 0.950 . S
H1154 C1130 0.950 . S
H1155 C1131 0.949 . S
H1156 C1133 0.971 . S
H1157 C1135 0.950 . S
C1158 C1159 1.349 . S
C1158 C1160 1.327 . S
C1158 H1183 0.950 . S
C1159 C1158 1.349 . S
C1159 C1175 1.349 . S
C1160 C1158 1.327 . S
C1160 C1179 1.429 . S
C1160 H1184 0.950 . S
C1161 C1178 1.574 . S
C1161 C1180 1.368 . S
C1161 H1185 0.949 . S
H1162 C1166 0.949 . S
C1163 C1164 1.349 . S
C1163 C1165 1.327 . S
C1163 H1186 0.950 . S
C1164 C1163 1.349 . S
C1164 C1176 1.349 . S
C1165 C1163 1.327 . S
C1165 C1181 1.429 . S
C1165 H1187 0.950 . S
C1166 H1162 0.949 . S
C1166 C1174 1.574 . S
C1166 C1182 1.368 . S
H1167 C1175 0.950 . S
H1168 C1173 0.950 . S
H1169 C1174 0.949 . S
H1170 C1176 0.950 1_565 S
H1171 C1177 0.927 1_565 S
H1172 C1178 0.949 . S
C1173 H1168 0.950 . S
C1173 C1175 1.327 . S
C1173 C1179 1.429 . S
C1174 C1166 1.574 . S
C1174 H1169 0.949 . S
C1174 C1180 1.368 . S
C1175 C1159 1.349 . S
C1175 H1167 0.950 . S
C1175 C1173 1.327 . S
C1176 C1164 1.349 . S
C1176 H1170 0.950 1_545 S
C1176 C1177 1.327 . S
C1177 H1171 0.927 1_545 S
C1177 C1176 1.327 . S
C1177 C1181 1.429 . S
C1178 C1161 1.574 . S
C1178 H1172 0.949 . S
C1178 C1182 1.368 . S
C1179 C1160 1.429 . S
C1179 C1173 1.429 . S
C1179 C1180 1.523 . S
C1180 C1161 1.368 . S
C1180 C1174 1.368 . S
C1180 C1179 1.523 . S
C1181 C1165 1.429 . S
C1181 C1177 1.429 . S
C1181 C1182 1.523 . S
C1182 C1166 1.368 . S
C1182 C1178 1.368 . S
C1182 C1181 1.523 . S
H1183 C1158 0.950 . S
H1184 C1160 0.950 . S
H1185 C1161 0.949 . S
H1186 C1163 0.950 . S
H1187 C1165 0.950 . S
C1188 C1189 1.349 . S
C1188 C1190 1.327 . S
C1188 H1213 0.950 . S
C1189 C1188 1.349 . S
C1189 C1205 1.349 . S
C1190 C1188 1.327 . S
C1190 C1209 1.429 . S
C1190 H1214 0.950 . S
C1191 C1208 1.574 . S
C1191 C1210 1.368 . S
C1191 H1215 0.949 . S
H1192 C1196 0.949 . S
C1193 C1194 1.349 . S
C1193 C1195 1.327 . S
C1193 H1216 0.950 . S
C1194 C1193 1.349 . S
C1194 C1206 1.349 . S
C1195 C1193 1.327 . S
C1195 C1211 1.429 . S
C1195 H1217 0.950 . S
C1196 H1192 0.949 . S
C1196 C1204 1.574 . S
C1196 C1212 1.368 . S
H1197 C1205 0.950 . S
H1198 C1203 0.950 . S
H1199 C1204 0.949 . S
H1200 C1206 0.950 . S
H1201 C1207 0.950 . S
H1202 C1208 0.949 . S
C1203 H1198 0.950 . S
C1203 C1205 1.327 . S
C1203 C1209 1.429 . S
C1204 C1196 1.574 . S
C1204 H1199 0.949 . S
C1204 C1210 1.368 . S
C1205 C1189 1.349 . S
C1205 H1197 0.950 . S
C1205 C1203 1.327 . S
C1206 C1194 1.349 . S
C1206 H1200 0.950 . S
C1206 C1207 1.327 . S
C1207 H1201 0.950 . S
C1207 C1206 1.327 . S
C1207 C1211 1.429 . S
C1208 C1191 1.574 . S
C1208 H1202 0.949 . S
C1208 C1212 1.368 . S
C1209 C1190 1.429 . S
C1209 C1203 1.429 . S
C1209 C1210 1.523 . S
C1210 C1191 1.368 . S
C1210 C1204 1.368 . S
C1210 C1209 1.523 . S
C1211 C1195 1.429 . S
C1211 C1207 1.429 . S
C1211 C1212 1.523 . S
C1212 C1196 1.368 . S
C1212 C1208 1.368 . S
C1212 C1211 1.523 . S
H1213 C1188 0.950 . S
H1214 C1190 0.950 . S
H1215 C1191 0.949 . S
H1216 C1193 0.950 . S
H1217 C1195 0.950 . S
C1218 C1219 1.349 . S
C1218 C1220 1.327 . S
C1218 H1243 0.950 . S
C1219 C1218 1.349 . S
C1219 C1235 1.349 . S
C1220 C1218 1.327 . S
C1220 C1239 1.429 . S
C1220 H1244 0.950 . S
C1221 C1238 1.574 . S
C1221 C1240 1.368 . S
C1221 H1245 0.949 . S
H1222 C1226 0.949 . S
C1223 C1224 1.349 . S
C1223 C1225 1.327 . S
C1223 H1246 0.950 . S
C1224 C1223 1.349 . S
C1224 C1236 1.349 . S
C1225 C1223 1.327 . S
C1225 C1241 1.429 . S
C1225 H1247 0.950 . S
C1226 H1222 0.949 . S
C1226 C1234 1.574 . S
C1226 C1242 1.368 . S
H1227 C1235 0.950 . S
H1228 C1233 0.950 . S
H1229 C1234 0.949 . S
H1230 C1236 0.950 . S
H1231 C1237 0.950 . S
H1232 C1238 0.949 . S
C1233 H1228 0.950 . S
C1233 C1235 1.327 . S
C1233 C1239 1.429 . S
C1234 C1226 1.574 . S
C1234 H1229 0.949 . S
C1234 C1240 1.368 . S
C1235 C1219 1.349 . S
C1235 H1227 0.950 . S
C1235 C1233 1.327 . S
C1236 C1224 1.349 . S
C1236 H1230 0.950 . S
C1236 C1237 1.327 . S
C1237 H1231 0.950 . S
C1237 C1236 1.327 . S
C1237 C1241 1.429 . S
C1238 C1221 1.574 . S
C1238 H1232 0.949 . S
C1238 C1242 1.368 . S
C1239 C1220 1.429 . S
C1239 C1233 1.429 . S
C1239 C1240 1.523 . S
C1240 C1221 1.368 . S
C1240 C1234 1.368 . S
C1240 C1239 1.523 . S
C1241 C1225 1.429 . S
C1241 C1237 1.429 . S
C1241 C1242 1.523 . S
C1242 C1226 1.368 . S
C1242 C1238 1.368 . S
C1242 C1241 1.523 . S
H1243 C1218 0.950 . S
H1244 C1220 0.950 . S
H1245 C1221 0.949 . S
H1246 C1223 0.950 . S
H1247 C1225 0.950 . S
C1248 C1249 1.349 . S
C1248 C1250 1.327 . S
C1248 H1273 0.950 . S
C1249 C1248 1.349 . S
C1249 C1265 1.349 . S
C1250 C1248 1.327 . S
C1250 C1269 1.429 . S
C1250 H1274 0.950 . S
C1251 C1268 1.574 . S
C1251 C1270 1.368 . S
C1251 H1275 0.949 . S
H1252 C1256 0.949 . S
C1253 C1254 1.349 . S
C1253 C1255 1.327 . S
C1253 H1276 0.950 . S
C1254 C1253 1.349 . S
C1254 C1266 1.349 . S
C1255 C1253 1.327 . S
C1255 C1271 1.429 . S
C1255 H1277 0.950 . S
C1256 H1252 0.949 . S
C1256 C1264 1.574 . S
C1256 C1272 1.368 . S
H1257 C1265 0.950 . S
H1258 C1263 0.950 . S
H1259 C1264 0.949 . S
H1260 C1266 0.950 1_455 S
H1261 C1267 0.937 1_455 S
H1262 C1268 0.949 . S
C1263 H1258 0.950 . S
C1263 C1265 1.327 . S
C1263 C1269 1.429 . S
C1264 C1256 1.574 . S
C1264 H1259 0.949 . S
C1264 C1270 1.368 . S
C1265 C1249 1.349 . S
C1265 H1257 0.950 . S
C1265 C1263 1.327 . S
C1266 C1254 1.349 . S
C1266 H1260 0.950 1_655 S
C1266 C1267 1.327 . S
C1267 H1261 0.937 1_655 S
C1267 C1266 1.327 . S
C1267 C1271 1.429 . S
C1268 C1251 1.574 . S
C1268 H1262 0.949 . S
C1268 C1272 1.368 . S
C1269 C1250 1.429 . S
C1269 C1263 1.429 . S
C1269 C1270 1.523 . S
C1270 C1251 1.368 . S
C1270 C1264 1.368 . S
C1270 C1269 1.523 . S
C1271 C1255 1.429 . S
C1271 C1267 1.429 . S
C1271 C1272 1.523 . S
C1272 C1256 1.368 . S
C1272 C1268 1.368 . S
C1272 C1271 1.523 . S
H1273 C1248 0.950 . S
H1274 C1250 0.950 . S
H1275 C1251 0.949 . S
H1276 C1253 0.950 . S
H1277 C1255 0.950 . S
C1278 C1279 1.349 . S
C1278 C1280 1.327 . S
C1278 H1303 0.950 . S
C1279 C1278 1.349 . S
C1279 C1295 1.349 . S
C1280 C1278 1.327 . S
C1280 C1299 1.429 . S
C1280 H1304 0.950 . S
C1281 C1298 1.574 . S
C1281 C1300 1.368 . S
C1281 H1305 0.949 . S
H1282 C1286 0.949 . S
C1283 C1284 1.349 . S
C1283 C1285 1.327 . S
C1283 H1306 0.950 . S
C1284 C1283 1.349 . S
C1284 C1296 1.349 . S
C1285 C1283 1.327 . S
C1285 C1301 1.429 . S
C1285 H1307 0.950 . S
C1286 H1282 0.949 . S
C1286 C1294 1.574 . S
C1286 C1302 1.368 . S
H1287 C1295 0.950 . S
H1288 C1293 0.950 . S
H1289 C1294 0.949 . S
H1290 C1296 0.950 . S
H1291 C1297 0.950 . S
H1292 C1298 0.949 . S
C1293 H1288 0.950 . S
C1293 C1295 1.327 . S
C1293 C1299 1.429 . S
C1294 C1286 1.574 . S
C1294 H1289 0.949 . S
C1294 C1300 1.368 . S
C1295 C1279 1.349 . S
C1295 H1287 0.950 . S
C1295 C1293 1.327 . S
C1296 C1284 1.349 . S
C1296 H1290 0.950 . S
C1296 C1297 1.327 . S
C1297 H1291 0.950 . S
C1297 C1296 1.327 . S
C1297 C1301 1.429 . S
C1298 C1281 1.574 . S
C1298 H1292 0.949 . S
C1298 C1302 1.368 . S
C1299 C1280 1.429 . S
C1299 C1293 1.429 . S
C1299 C1300 1.523 . S
C1300 C1281 1.368 . S
C1300 C1294 1.368 . S
C1300 C1299 1.523 . S
C1301 C1285 1.429 . S
C1301 C1297 1.429 . S
C1301 C1302 1.523 . S
C1302 C1286 1.368 . S
C1302 C1298 1.368 . S
C1302 C1301 1.523 . S
H1303 C1278 0.950 . S
H1304 C1280 0.950 . S
H1305 C1281 0.949 . S
H1306 C1283 0.950 . S
H1307 C1285 0.950 . S
C1308 C1309 1.349 . S
C1308 C1310 1.327 . S
C1308 H1333 0.950 . S
C1309 C1308 1.349 . S
C1309 C1325 1.349 . S
C1310 C1308 1.327 . S
C1310 C1329 1.429 . S
C1310 H1334 0.950 . S
C1311 C1328 1.574 . S
C1311 C1330 1.368 . S
C1311 H1335 0.949 . S
H1312 C1316 0.949 . S
C1313 C1314 1.349 . S
C1313 C1315 1.327 . S
C1313 H1336 0.950 . S
C1314 C1313 1.349 . S
C1314 C1326 1.349 . S
C1315 C1313 1.327 . S
C1315 C1331 1.429 . S
C1315 H1337 0.950 . S
C1316 H1312 0.949 . S
C1316 C1324 1.574 . S
C1316 C1332 1.368 . S
H1317 C1325 0.950 . S
H1318 C1323 0.950 . S
H1319 C1324 0.949 . S
H1320 C1326 0.950 . S
H1321 C1327 0.950 . S
H1322 C1328 0.949 . S
C1323 H1318 0.950 . S
C1323 C1325 1.327 . S
C1323 C1329 1.429 . S
C1324 C1316 1.574 . S
C1324 H1319 0.949 . S
C1324 C1330 1.368 . S
C1325 C1309 1.349 . S
C1325 H1317 0.950 . S
C1325 C1323 1.327 . S
C1326 C1314 1.349 . S
C1326 H1320 0.950 . S
C1326 C1327 1.327 . S
C1327 H1321 0.950 . S
C1327 C1326 1.327 . S
C1327 C1331 1.429 . S
C1328 C1311 1.574 . S
C1328 H1322 0.949 . S
C1328 C1332 1.368 . S
C1329 C1310 1.429 . S
C1329 C1323 1.429 . S
C1329 C1330 1.523 . S
C1330 C1311 1.368 . S
C1330 C1324 1.368 . S
C1330 C1329 1.523 . S
C1331 C1315 1.429 . S
C1331 C1327 1.429 . S
C1331 C1332 1.523 . S
C1332 C1316 1.368 . S
C1332 C1328 1.368 . S
C1332 C1331 1.523 . S
H1333 C1308 0.950 . S
H1334 C1310 0.950 . S
H1335 C1311 0.949 . S
H1336 C1313 0.950 . S
H1337 C1315 0.950 . S
C1338 C1339 1.349 . S
C1338 C1340 1.327 . S
C1338 H1363 0.950 . S
C1339 C1338 1.349 . S
C1339 C1355 1.349 . S
C1340 C1338 1.327 . S
C1340 C1359 1.429 . S
C1340 H1364 0.950 . S
C1341 C1358 1.574 . S
C1341 C1360 1.368 . S
C1341 H1365 0.949 . S
H1342 C1346 0.949 . S
C1343 C1344 1.349 . S
C1343 C1345 1.327 . S
C1343 H1366 0.950 . S
C1344 C1343 1.349 . S
C1344 C1356 1.349 . S
C1345 C1343 1.327 . S
C1345 C1361 1.429 . S
C1345 H1367 0.950 . S
C1346 H1342 0.949 . S
C1346 C1354 1.574 . S
C1346 C1362 1.368 . S
H1347 C1355 0.950 . S
H1348 C1353 0.950 . S
H1349 C1354 0.949 . S
H1350 C1356 0.950 . S
H1351 C1357 0.950 . S
H1352 C1358 0.949 . S
C1353 H1348 0.950 . S
C1353 C1355 1.327 . S
C1353 C1359 1.429 . S
C1354 C1346 1.574 . S
C1354 H1349 0.949 . S
C1354 C1360 1.368 . S
C1355 C1339 1.349 . S
C1355 H1347 0.950 . S
C1355 C1353 1.327 . S
C1356 C1344 1.349 . S
C1356 H1350 0.950 . S
C1356 C1357 1.327 . S
C1357 H1351 0.950 . S
C1357 C1356 1.327 . S
C1357 C1361 1.429 . S
C1358 C1341 1.574 . S
C1358 H1352 0.949 . S
C1358 C1362 1.368 . S
C1359 C1340 1.429 . S
C1359 C1353 1.429 . S
C1359 C1360 1.523 . S
C1360 C1341 1.368 . S
C1360 C1354 1.368 . S
C1360 C1359 1.523 . S
C1361 C1345 1.429 . S
C1361 C1357 1.429 . S
C1361 C1362 1.523 . S
C1362 C1346 1.368 . S
C1362 C1358 1.368 . S
C1362 C1361 1.523 . S
H1363 C1338 0.950 . S
H1364 C1340 0.950 . S
H1365 C1341 0.949 . S
H1366 C1343 0.950 . S
H1367 C1345 0.950 . S
C649 C255 2.091 . S
C654 C380 2.200 . S
C684 C463 2.228 . S
C679 C294 2.101 . S
C714 C548 2.190 . S
C709 C177 2.080 . S
C744 C632 2.175 . S
C739 C216 2.067 . S
C774 C368 2.200 1_565 S
C769 C99 2.099 . S
C799 C138 2.093 . S
C804 C451 2.228 . S
C829 C21 2.088 . S
C834 C536 2.190 . S
C859 C60 2.074 . S
C864 C620 2.175 1_655 S
C894 C370 0.433 1_455 S
C889 C196 0.316 . S
C924 C466 0.525 . S
C919 C235 0.302 . S
C954 C538 0.428 . S
C949 C289 0.325 . S
C979 C157 0.308 . S
C984 C622 0.426 . S
C1009 C40 0.301 . S
C1014 C382 0.433 . S
C1044 C454 0.525 . S
C1039 C79 0.285 . S
C1074 C550 0.428 . S
C1069 C133 0.316 . S
C1099 C1 0.293 . S
C1104 C634 0.426 . S
C1129 C211 2.421 . S
C1134 C367 2.663 . S
C1159 C250 2.402 . S
C1164 C452 2.666 . S
C1194 C535 2.691 . S
C1189 C274 2.453 . S
C1224 C619 2.687 . S
C1219 C172 2.444 . S
C1249 C55 2.419 . S
C1254 C379 2.662 . S
C1284 C464 2.666 . S
C1279 C94 2.400 . S
C1314 C547 2.692 . S
C1309 C118 2.449 . S
C1339 C16 2.443 . S
C1344 C631 2.688 . S
