# Generated by pormake.
# Topology pth, (4,4)-cn, num edge types: 1
# Building blocks:
#     Node 0, Type 0, BuildingBlock: QUQFOY_clean_sbu_1, # of connection points: 4
#     Node 1, Type 0, BuildingBlock: QUQFOY_clean_sbu_1, # of connection points: 4
#     Node 2, Type 0, BuildingBlock: QUQFOY_clean_sbu_1, # of connection points: 4
#     Node 3, Type 1, BuildingBlock: AZAVOO_clean_linker_0, # of connection points: 4
#     Node 4, Type 1, BuildingBlock: AZAVOO_clean_linker_0, # of connection points: 4
#     Node 5, Type 1, BuildingBlock: AZAVOO_clean_linker_0, # of connection points: 4
#     Edge 6, Type (0, 1), BuildingBlock: UVAHIK_clean_linker_0, # of connection points: 2
#     Edge 7, Type (0, 1), BuildingBlock: UVAHIK_clean_linker_0, # of connection points: 2
#     Edge 8, Type (0, 1), BuildingBlock: UVAHIK_clean_linker_0, # of connection points: 2
#     Edge 9, Type (0, 1), BuildingBlock: UVAHIK_clean_linker_0, # of connection points: 2
#     Edge 10, Type (0, 1), BuildingBlock: UVAHIK_clean_linker_0, # of connection points: 2
#     Edge 11, Type (0, 1), BuildingBlock: UVAHIK_clean_linker_0, # of connection points: 2
#     Edge 12, Type (0, 1), BuildingBlock: UVAHIK_clean_linker_0, # of connection points: 2
#     Edge 13, Type (0, 1), BuildingBlock: UVAHIK_clean_linker_0, # of connection points: 2
#     Edge 14, Type (0, 1), BuildingBlock: UVAHIK_clean_linker_0, # of connection points: 2
#     Edge 15, Type (0, 1), BuildingBlock: UVAHIK_clean_linker_0, # of connection points: 2
#     Edge 16, Type (0, 1), BuildingBlock: UVAHIK_clean_linker_0, # of connection points: 2
#     Edge 17, Type (0, 1), BuildingBlock: UVAHIK_clean_linker_0, # of connection points: 2
# Relax obj value: 0.109
# Max RMSD: 0.231
# Mean RMSD: 0.169
data_MOF--net-pth--node1-QUQFOY_clean_sbu_1--node2-AZAVOO_clean_linker_0--edge1-UVAHIK_clean_linker_0
_symmetry_space_group_name_H-M    P1
_symmetry_Int_Tables_number       1
_symmetry_cell_setting            triclinic
loop_
_symmetry_equiv_pos_as_xyz
'x, y, z'
_cell_length_a     31.470567
_cell_length_b     34.57837
_cell_length_c     91.286025
_cell_angle_alpha  92.311289
_cell_angle_beta   89.015076
_cell_angle_gamma 120.35192
loop_
_atom_site_label
_atom_site_type_symbol
_atom_site_fract_x
_atom_site_fract_y
_atom_site_fract_z
_atom_type_partial_charge
O0 O 0.10501 0.11985 0.02069 0.0
Cd1 Cd 0.04215 0.06661 0.02907 0.0
Cd2 Cd 0.09432 0.02642 0.02435 0.0
O3 O 0.15101 0.08849 0.01919 0.0
O4 O 0.0044 0.09419 0.03739 0.0
O5 O 0.0348 0.06232 0.05099 0.0
C6 C 0.01132 0.08381 0.05017 0.0
C7 C 0.10042 0.98767 0.04351 0.0
C8 C 0.14592 0.1223 0.01775 0.0
C9 C 0.00328 0.9915 0.00645 0.0
O10 O 0.04295 0.99103 0.00823 0.0
O11 O 0.99402 0.01731 0.01442 0.0
O12 O 0.12087 0.98876 0.03103 0.0
O13 O 0.07721 0.0095 0.04514 0.0
O14 O 0.98365 0.06187 0.36501 0.0
Cd15 Cd 0.03759 0.07367 0.34987 0.0
Cd16 Cd -0.00207 0.98439 0.35107 0.0
O17 O 0.94651 0.98808 0.36437 0.0
O18 O 0.05881 0.1346 0.34313 0.0
O19 O 0.02377 0.07395 0.32845 0.0
C20 C 0.04205 0.11672 0.33033 0.0
C21 C 0.97461 0.92835 0.33287 0.0
C22 C 0.94942 0.02426 0.36926 0.0
C23 C 0.10238 0.043 0.36168 0.0
O24 O 0.06511 0.00382 0.36034 0.0
O25 O 0.10034 0.07666 0.35755 0.0
O26 O 0.97025 0.91941 0.34656 0.0
O27 O 0.99003 0.96925 0.32944 0.0
O28 O 0.98044 0.01388 0.67558 0.0
Cd29 Cd 0.02303 0.00387 0.69007 0.0
Cd30 Cd 0.0761 0.09422 0.69107 0.0
O31 O 0.02045 0.0877 0.67776 0.0
O32 O 0.98097 0.94214 0.69698 0.0
O33 O 0.00795 0.0029 0.71153 0.0
C34 C 0.98237 0.95974 0.70982 0.0
C35 C 0.10501 0.1463 0.71061 0.0
C36 C 0.98529 0.05129 0.67235 0.0
C37 C 0.12695 0.04472 0.68015 0.0
O38 O 0.12906 0.08215 0.68229 0.0
O39 O 0.0876 0.00836 0.68277 0.0
O40 O 0.11379 0.15862 0.69723 0.0
O41 O 0.07734 0.10405 0.71292 0.0
H42 H 0.96875 0.45812 0.09239 0.0
H43 H 0.11871 0.81605 0.21685 0.0
H44 H 0.93165 0.42364 0.17444 0.0
H45 H 0.91403 0.35242 0.16255 0.0
H46 H 0.06747 0.39157 0.16682 0.0
H47 H 0.08403 0.46191 0.17926 0.0
H48 H 0.95133 0.50537 0.15357 0.0
H49 H 0.9452 0.48453 0.12742 0.0
H50 H 0.08822 0.49566 0.12935 0.0
H51 H 0.09401 0.51686 0.15547 0.0
H52 H 0.96923 0.59278 0.16998 0.0
H53 H 0.98121 0.65066 0.1531 0.0
H54 H 0.12718 0.67441 0.14315 0.0
H55 H 0.11432 0.61583 0.15987 0.0
H56 H 0.96841 0.59674 0.20357 0.0
H57 H 0.98121 0.66911 0.21302 0.0
H58 H 0.13469 0.73188 0.20079 0.0
H59 H 0.12148 0.6591 0.19158 0.0
H60 H 0.95331 0.51792 0.22056 0.0
H61 H 0.9489 0.55923 0.24232 0.0
H62 H 0.10672 0.64696 0.24108 0.0
H63 H 0.11067 0.60553 0.21924 0.0
H64 H 0.9433 0.4271 0.20604 0.0
H65 H 0.94093 0.37153 0.2224 0.0
H66 H 0.0973 0.45623 0.23023 0.0
H67 H 0.09937 0.51102 0.21363 0.0
O68 O 0.97202 0.46661 0.10272 0.0
O69 O 0.04559 0.47265 0.10431 0.0
O70 O 0.03337 0.75313 0.21918 0.0
O71 O 0.11247 0.78714 0.213 0.0
C72 C 0.02048 0.49316 0.18271 0.0
C73 C 0.02631 0.52455 0.17227 0.0
C74 C 0.03464 0.56714 0.17695 0.0
C75 C 0.03677 0.57826 0.19204 0.0
C76 C 0.03189 0.54714 0.2025 0.0
C77 C 0.02405 0.50468 0.19783 0.0
C78 C 0.00908 0.44777 0.17761 0.0
C79 C 0.96111 0.41622 0.17309 0.0
C80 C 0.95127 0.37578 0.16621 0.0
C81 C 0.98948 0.36653 0.16353 0.0
C82 C 0.03709 0.39736 0.16882 0.0
C83 C 0.04675 0.43765 0.17586 0.0
C84 C 0.02304 0.51251 0.15637 0.0
C85 C 0.98133 0.50343 0.1483 0.0
C86 C 0.97791 0.49146 0.13338 0.0
C87 C 0.01619 0.48836 0.12629 0.0
C88 C 0.05805 0.49768 0.13447 0.0
C89 C 0.06144 0.50972 0.14938 0.0
C90 C 0.04093 0.60028 0.1661 0.0
C91 C 0.00362 0.61037 0.16406 0.0
C92 C 0.01069 0.64361 0.15451 0.0
C93 C 0.05528 0.66733 0.14685 0.0
C94 C 0.09225 0.65645 0.14876 0.0
C95 C 0.08508 0.62314 0.15831 0.0
C96 C 0.04407 0.62274 0.19696 0.0
C97 C 0.00473 0.6262 0.20293 0.0
C98 C 0.01214 0.66757 0.2083 0.0
C99 C 0.05902 0.7063 0.20768 0.0
C100 C 0.09816 0.70274 0.20145 0.0
C101 C 0.09072 0.66128 0.19613 0.0
C102 C 0.0322 0.55915 0.21826 0.0
C103 C 0.98718 0.54456 0.22544 0.0
C104 C 0.98473 0.56838 0.23784 0.0
C105 C 0.02736 0.60697 0.24315 0.0
C106 C 0.0732 0.61783 0.23703 0.0
C107 C 0.07562 0.59392 0.22467 0.0
C108 C 0.02152 0.4729 0.20866 0.0
C109 C 0.9769 0.43363 0.21137 0.0
C110 C 0.97562 0.40209 0.22074 0.0
C111 C 0.01901 0.40938 0.22752 0.0
C112 C 0.06343 0.44933 0.22499 0.0
C113 C 0.06463 0.48083 0.21564 0.0
C114 C 0.01235 0.47543 0.11046 0.0
C115 C 0.06729 0.75017 0.21363 0.0
H116 H 0.57332 0.02123 0.42662 0.0
H117 H 0.29011 0.1156 0.54524 0.0
H118 H 0.56603 0.98227 0.50508 0.0
H119 H 0.62896 0.97671 0.49083 0.0
H120 H 0.73582 0.11306 0.50434 0.0
H121 H 0.67168 0.11859 0.51828 0.0
H122 H 0.49396 0.9959 0.48613 0.0
H123 H 0.51498 0.99431 0.46026 0.0
H124 H 0.64386 0.12599 0.46645 0.0
H125 H 0.62191 0.12742 0.49223 0.0
H126 H 0.41077 0.00289 0.50305 0.0
H127 H 0.36338 0.0042 0.4823 0.0
H128 H 0.48128 0.13741 0.47268 0.0
H129 H 0.52769 0.13624 0.49374 0.0
H130 H 0.40693 -0.00021 0.53804 0.0
H131 H 0.33426 0.00367 0.54572 0.0
H132 H 0.4044 0.14054 0.53184 0.0
H133 H 0.47706 0.13636 0.52436 0.0
H134 H 0.49082 0.99186 0.55476 0.0
H135 H 0.46272 0.98703 0.58015 0.0
H136 H 0.49289 0.12358 0.57918 0.0
H137 H 0.52258 0.12853 0.55405 0.0
H138 H 0.57867 0.98996 0.53796 0.0
H139 H 0.63398 0.98906 0.55627 0.0
H140 H 0.6736 0.12368 0.571 0.0
H141 H 0.62023 0.12498 0.55216 0.0
O142 O 0.56539 0.02276 0.43684 0.0
O143 O 0.63153 0.0902 0.44066 0.0
O144 O 0.28409 0.0428 0.54934 0.0
O145 O 0.31841 0.11317 0.54231 0.0
C146 C 0.57342 0.05761 0.51749 0.0
C147 C 0.54432 0.06209 0.50684 0.0
C148 C 0.50356 0.06625 0.51119 0.0
C149 C 0.4915 0.06546 0.52618 0.0
C150 C 0.52138 0.06194 0.53685 0.0
C151 C 0.56278 0.05863 0.5325 0.0
C152 C 0.61434 0.05093 0.51254 0.0
C153 C 0.60343 0.01041 0.50534 0.0
C154 C 0.63956 0.0073 0.49724 0.0
C155 C 0.68729 0.04469 0.49629 0.0
C156 C 0.69916 0.08396 0.50467 0.0
C157 C 0.66281 0.08707 0.51275 0.0
C158 C 0.55638 0.06178 0.49103 0.0
C159 C 0.52647 0.0245 0.48184 0.0
C160 C 0.53868 0.02363 0.46709 0.0
C161 C 0.58116 0.06 0.46129 0.0
C162 C 0.61091 0.09742 0.47055 0.0
C163 C 0.59851 0.09832 0.48528 0.0
C164 C 0.47254 0.06945 0.49985 0.0
C165 C 0.42581 0.03266 0.49663 0.0
C166 C 0.39914 0.0333 0.48469 0.0
C167 C 0.41891 0.07071 0.47576 0.0
C168 C 0.46495 0.10825 0.4794 0.0
C169 C 0.49154 0.10761 0.49138 0.0
C170 C 0.44725 0.06781 0.53067 0.0
C171 C 0.40656 0.03061 0.53671 0.0
C172 C 0.36508 0.0329 0.54106 0.0
C173 C 0.36352 0.07245 0.53939 0.0
C174 C 0.40437 0.10959 0.53327 0.0
C175 C 0.44587 0.10728 0.52896 0.0
C176 C 0.50835 0.06043 0.55257 0.0
C177 C 0.49216 0.02093 0.56016 0.0
C178 C 0.47589 0.01817 0.57461 0.0
C179 C 0.47538 0.05484 0.58166 0.0
C180 C 0.49343 0.09493 0.57416 0.0
C181 C 0.50991 0.09771 0.55975 0.0
C182 C 0.59574 0.05763 0.54369 0.0
C183 C 0.59972 0.01935 0.54507 0.0
C184 C 0.63092 0.01876 0.55564 0.0
C185 C 0.6583 0.05633 0.56511 0.0
C186 C 0.65375 0.09447 0.56374 0.0
C187 C 0.62296 0.09516 0.55308 0.0
C188 C 0.59436 0.05874 0.44566 0.0
C189 C 0.31955 0.07506 0.544 0.0
H190 H 0.58022 0.65876 0.9567 0.0
H191 H 0.34629 0.25694 0.84392 0.0
H192 H 0.57576 0.6634 0.87443 0.0
H193 H 0.63494 0.73393 0.8869 0.0
H194 H 0.74349 0.69215 0.88498 0.0
H195 H 0.68482 0.62315 0.8718 0.0
H196 H 0.50765 0.58817 0.89738 0.0
H197 H 0.52567 0.61874 0.92264 0.0
H198 H 0.65657 0.60764 0.92228 0.0
H199 H 0.63776 0.57668 0.89708 0.0
H200 H 0.42929 0.488 0.88487 0.0
H201 H 0.38608 0.44222 0.90583 0.0
H202 H 0.51685 0.43854 0.91714 0.0
H203 H 0.55907 0.48306 0.89588 0.0
H204 H 0.42193 0.47526 0.85066 0.0
H205 H 0.35892 0.399 0.84303 0.0
H206 H 0.45108 0.34929 0.85838 0.0
H207 H 0.51416 0.42587 0.86574 0.0
H208 H 0.49111 0.55533 0.83181 0.0
H209 H 0.44382 0.51134 0.81022 0.0
H210 H 0.50495 0.42485 0.8138 0.0
H211 H 0.55232 0.46921 0.83535 0.0
H212 H 0.57698 0.65026 0.8447 0.0
H213 H 0.62928 0.70155 0.82588 0.0
H214 H 0.69483 0.61912 0.8174 0.0
H215 H 0.64232 0.56807 0.8362 0.0
O216 O 0.57358 0.64627 0.94677 0.0
O217 O 0.64072 0.64032 0.94597 0.0
O218 O 0.32464 0.31474 0.83914 0.0
O219 O 0.37019 0.28731 0.8471 0.0
C220 C 0.58732 0.59189 0.86849 0.0
C221 C 0.56109 0.56317 0.87998 0.0
C222 C 0.52414 0.51852 0.87677 0.0
C223 C 0.51257 0.50278 0.86208 0.0
C224 C 0.53904 0.53157 0.85056 0.0
C225 C 0.5767 0.57607 0.85377 0.0
C226 C 0.6262 0.6384 0.87226 0.0
C227 C 0.61303 0.67051 0.87619 0.0
C228 C 0.64668 0.71043 0.8835 0.0
C229 C 0.69369 0.71836 0.88726 0.0
C230 C 0.70788 0.68752 0.88219 0.0
C231 C 0.6744 0.64795 0.87466 0.0
C232 C 0.57151 0.58043 0.89544 0.0
C233 C 0.54006 0.5922 0.90282 0.0
C234 C 0.55051 0.60974 0.91722 0.0
C235 C 0.59266 0.61577 0.92446 0.0
C236 C 0.62388 0.60353 0.91702 0.0
C237 C 0.61328 0.58589 0.90263 0.0
C238 C 0.49715 0.48867 0.88891 0.0
C239 C 0.44827 0.47679 0.8918 0.0
C240 C 0.42391 0.4511 0.90385 0.0
C241 C 0.4482 0.43705 0.9132 0.0
C242 C 0.49701 0.44848 0.91007 0.0
C243 C 0.52124 0.47404 0.898 0.0
C244 C 0.47261 0.45604 0.8587 0.0
C245 C 0.4283 0.4478 0.85242 0.0
C246 C 0.39241 0.40423 0.84807 0.0
C247 C 0.40005 0.36805 0.85005 0.0
C248 C 0.44406 0.37638 0.85667 0.0
C249 C 0.48004 0.42003 0.86096 0.0
C250 C 0.52458 0.51505 0.8352 0.0
C251 C 0.49595 0.52812 0.82753 0.0
C252 C 0.46883 0.50284 0.81525 0.0
C253 C 0.47002 0.46418 0.81055 0.0
C254 C 0.50279 0.45407 0.81736 0.0
C255 C 0.53015 0.47955 0.82956 0.0
C256 C 0.60611 0.60566 0.84183 0.0
C257 C 0.60264 0.64336 0.83875 0.0
C258 C 0.63262 0.67264 0.82806 0.0
C259 C 0.66631 0.66445 0.82021 0.0
C260 C 0.66891 0.62608 0.82316 0.0
C261 C 0.63907 0.59696 0.83389 0.0
C262 C 0.60392 0.63482 0.93971 0.0
C263 C 0.36256 0.32184 0.8451 0.0
C264 C 0.96424 0.1165 0.06215 0.0
C265 C 0.996 0.09939 0.06344 0.0
C266 C 0.95533 0.13753 0.07417 0.0
C267 C 0.97071 0.15951 0.11444 0.0
H268 H 0.98131 0.27193 0.10434 0.0
C269 C 0.00473 0.30325 0.1566 0.0
C270 C 0.98083 0.32741 0.15396 0.0
C271 C 0.00057 0.2698 0.14657 0.0
C272 C 0.97744 0.24033 0.10736 0.0
H273 H 0.041 0.08838 0.07853 0.0
H274 H 0.02621 0.12609 0.09953 0.0
H275 H 0.98363 0.22269 0.08511 0.0
H276 H 0.93267 0.33432 0.13886 0.0
H277 H 0.92429 0.2754 0.12173 0.0
H278 H 0.96556 0.17813 0.13684 0.0
C279 C 0.00777 0.12279 0.08926 0.0
C280 C 0.97872 0.21201 0.09631 0.0
C281 C 0.01638 0.10132 0.07722 0.0
C282 C 0.95111 0.31609 0.14138 0.0
C283 C 0.94682 0.28268 0.13143 0.0
C284 C 0.96946 0.18804 0.12557 0.0
C285 C 0.9784 0.14238 0.08772 0.0
C286 C 0.97525 0.17122 0.09968 0.0
C287 C 0.97249 0.25996 0.1337 0.0
C288 C 0.9727 0.22872 0.12211 0.0
H289 H 0.94743 0.11494 0.05172 0.0
H290 H 0.93152 0.15128 0.07273 0.0
H291 H 0.96779 0.12823 0.11737 0.0
H292 H 0.02745 0.3108 0.16627 0.0
H293 H 0.02093 0.25298 0.1486 0.0
C294 C 0.88735 0.98398 0.3888 0.0
C295 C 0.91598 0.02316 0.381 0.0
C296 C 0.86103 0.98476 0.40118 0.0
C297 C 0.81082 0.04867 0.42024 0.0
H298 H 0.82841 -0.0013 0.45538 0.0
C299 C 0.74733 0.08147 0.47605 0.0
C300 C 0.72167 0.04448 0.48502 0.0
C301 C 0.77305 0.07889 0.46382 0.0
C302 C 0.82271 0.01238 0.44563 0.0
H303 H 0.93744 0.09324 0.37961 0.0
H304 H 0.89118 0.0944 0.40112 0.0
H305 H 0.8649 0.99166 0.43233 0.0
H306 H 0.70537 0.97675 0.48867 0.0
H307 H 0.74942 0.97187 0.46709 0.0
H308 H 0.76837 0.06911 0.43342 0.0
C309 C 0.88922 0.06317 0.39769 0.0
C310 C 0.84349 0.00826 0.43244 0.0
C311 C 0.91584 0.06251 0.38541 0.0
C312 C 0.7244 0.00565 0.48189 0.0
C313 C 0.74994 0.00299 0.46958 0.0
C314 C 0.78982 0.05257 0.43339 0.0
C315 C 0.86244 0.02458 0.40588 0.0
C316 C 0.83801 0.02665 0.41965 0.0
C317 C 0.77341 0.03918 0.4602 0.0
C318 C 0.79588 0.03483 0.44627 0.0
H319 H 0.88671 0.95313 0.38569 0.0
H320 H 0.84014 0.9544 0.40721 0.0
H321 H 0.80553 0.06268 0.4105 0.0
H322 H 0.74551 0.11169 0.47802 0.0
H323 H 0.79161 0.1077 0.45698 0.0
C324 C 0.94961 0.94976 0.7355 0.0
C325 C 0.95377 0.93099 0.72199 0.0
C326 C 0.91964 0.92212 0.74657 0.0
C327 C 0.81357 0.80857 0.75161 0.0
H328 H 0.85264 0.83161 0.79254 0.0
C329 C 0.70724 0.67987 0.79564 0.0
C330 C 0.69907 0.69606 0.80912 0.0
C331 C 0.7385 0.70959 0.78525 0.0
C332 C 0.84103 0.82506 0.78117 0.0
H333 H 0.93119 0.86854 0.70968 0.0
H334 H 0.87977 0.82057 0.729 0.0
H335 H 0.90799 0.88185 0.77407 0.0
H336 H 0.71769 0.75608 0.82236 0.0
H337 H 0.77191 0.80808 0.8041 0.0
H338 H 0.74681 0.75173 0.75865 0.0
C339 C 0.89871 0.85658 0.73096 0.0
C340 C 0.8727 0.85382 0.7706 0.0
C341 C 0.92848 0.88411 0.71992 0.0
C342 C 0.72287 0.74263 0.812 0.0
C343 C 0.75431 0.77238 0.80162 0.0
C344 C 0.78203 0.77984 0.76215 0.0
C345 C 0.89333 0.87523 0.74433 0.0
C346 C 0.85946 0.84565 0.75569 0.0
C347 C 0.76239 0.75616 0.78812 0.0
C348 C 0.79553 0.78756 0.77703 0.0
H349 H 0.96861 0.98579 0.73741 0.0
H350 H 0.91602 0.93752 0.75672 0.0
H351 H 0.80179 0.80189 0.74026 0.0
H352 H 0.68912 0.64419 0.79306 0.0
H353 H 0.74438 0.69606 0.77501 0.0
C354 C 0.12353 0.93398 0.05302 0.0
C355 C 0.10188 0.96063 0.0554 0.0
C356 C 0.12206 0.90603 0.06387 0.0
C357 C 0.05059 0.84764 0.09624 0.0
H358 H 0.15953 0.82776 0.10258 0.0
C359 C 0.04746 0.73388 0.14126 0.0
C360 C 0.06338 0.70368 0.13708 0.0
C361 C 0.05458 0.76784 0.13201 0.0
C362 C 0.12872 0.83279 0.10085 0.0
H363 H 0.06312 0.98 0.0712 0.0
H364 H 0.0612 0.93165 0.09025 0.0
H365 H 0.16869 0.88373 0.08539 0.0
H366 H 0.09918 0.68544 0.1199 0.0
H367 H 0.11183 0.74492 0.10378 0.0
H368 H 0.01055 0.79653 0.11164 0.0
C369 C 0.07854 0.93178 0.07989 0.0
C370 C 0.13394 0.86481 0.09101 0.0
C371 C 0.07989 0.95967 0.06901 0.0
C372 C 0.08706 0.70851 0.12351 0.0
C373 C 0.09433 0.74258 0.11429 0.0
C374 C 0.04545 0.81576 0.10611 0.0
C375 C 0.09906 0.90422 0.07736 0.0
C376 C 0.09475 0.87228 0.08849 0.0
C377 C 0.07795 0.77246 0.11842 0.0
C378 C 0.08429 0.8077 0.10842 0.0
H379 H 0.14066 0.93387 0.04264 0.0
H380 H 0.13765 0.88482 0.06149 0.0
H381 H 0.01941 0.85202 0.09437 0.0
H382 H 0.02992 0.73159 0.15175 0.0
H383 H 0.04218 0.79076 0.13557 0.0
C384 C 0.15257 0.01247 0.37146 0.0
C385 C 0.14638 0.04936 0.36941 0.0
C386 C 0.18928 0.01641 0.38078 0.0
C387 C 0.29991 0.0971 0.40258 0.0
H388 H 0.25069 -0.00171 0.42893 0.0
C389 C 0.39007 0.10745 0.45847 0.0
C390 C 0.39251 0.06969 0.46234 0.0
C391 C 0.36476 0.10601 0.44584 0.0
C392 C 0.2653 0.02587 0.42154 0.0
H393 H 0.17574 0.12005 0.37475 0.0
H394 H 0.23914 0.12669 0.39134 0.0
H395 H 0.19987 0.99418 0.40856 0.0
H396 H 0.3722 0.00152 0.4557 0.0
H397 H 0.32767 -0.00111 0.43378 0.0
H398 H 0.36496 0.1292 0.41597 0.0
C399 C 0.2161 0.09485 0.3856 0.0
C400 C 0.23624 0.02347 0.40982 0.0
C401 C 0.17964 0.09103 0.37612 0.0
C402 C 0.36996 0.0308 0.4532 0.0
C403 C 0.34465 0.02934 0.44061 0.0
C404 C 0.32899 0.09957 0.41439 0.0
C405 C 0.22018 0.05716 0.3884 0.0
C406 C 0.25305 0.0591 0.40022 0.0
C407 C 0.3414 0.06677 0.43687 0.0
C408 C 0.31181 0.06401 0.42402 0.0
H409 H 0.12795 0.98008 0.36625 0.0
H410 H 0.19232 0.98704 0.38241 0.0
H411 H 0.31406 0.12493 0.39531 0.0
H412 H 0.40684 0.13779 0.46536 0.0
H413 H 0.36234 0.13518 0.44331 0.0
C414 C 0.13357 0.16522 0.73669 0.0
C415 C 0.13056 0.17937 0.72274 0.0
C416 C 0.16535 0.19619 0.74731 0.0
C417 C 0.24126 0.31718 0.75724 0.0
H418 H 0.32849 0.28246 0.77433 0.0
C419 C 0.4206 0.44536 0.78736 0.0
C420 C 0.43246 0.43137 0.80011 0.0
C421 C 0.38204 0.41443 0.77827 0.0
C422 C 0.30407 0.29253 0.76984 0.0
H423 H 0.15561 0.23732 0.7093 0.0
H424 H 0.21072 0.29123 0.72784 0.0
H425 H 0.26023 0.22867 0.75887 0.0
H426 H 0.41281 0.37437 0.81352 0.0
H427 H 0.34555 0.32061 0.7978 0.0
H428 H 0.28523 0.38114 0.76818 0.0
C429 C 0.18874 0.25631 0.73059 0.0
C430 C 0.26486 0.26163 0.761 0.0
C431 C 0.1573 0.22537 0.71995 0.0
C432 C 0.4053 0.38591 0.80356 0.0
C433 C 0.36664 0.35512 0.79456 0.0
C434 C 0.28036 0.34806 0.76616 0.0
C435 C 0.1943 0.24185 0.7442 0.0
C436 C 0.23325 0.27371 0.75453 0.0
C437 C 0.35433 0.369 0.78185 0.0
C438 C 0.31244 0.33618 0.77247 0.0
H439 H 0.11337 0.13 0.73917 0.0
H440 H 0.16843 0.18424 0.75781 0.0
H441 H 0.21726 0.32729 0.75246 0.0
H442 H 0.44102 0.48022 0.78445 0.0
H443 H 0.37401 0.4261 0.76844 0.0
C444 C 0.9604 0.09306 0.65605 0.0
C445 C 0.95037 0.05242 0.66199 0.0
C446 C 0.9283 0.09383 0.64585 0.0
C447 C 0.80076 0.03165 0.63265 0.0
H448 H 0.85539 0.09551 0.59689 0.0
C449 C 0.67787 0.01699 0.58412 0.0
C450 C 0.69157 0.05589 0.57636 0.0
C451 C 0.70922 0.01669 0.5947 0.0
C452 C 0.83954 0.07806 0.6069 0.0
H453 H 0.89829 0.98086 0.66211 0.0
H454 H 0.84207 0.98239 0.64438 0.0
H455 H 0.91024 0.09553 0.61541 0.0
H456 H 0.74936 0.12488 0.57358 0.0
H457 H 0.80309 0.12487 0.59238 0.0
H458 H 0.73012 0.01467 0.62429 0.0
C459 C 0.8748 0.01357 0.64762 0.0
C460 C 0.87099 0.07801 0.61748 0.0
C461 C 0.90713 0.0127 0.65771 0.0
C462 C 0.73732 0.0945 0.57947 0.0
C463 C 0.76849 0.0943 0.59012 0.0
C464 C 0.76929 0.03203 0.62212 0.0
C465 C 0.88529 0.05407 0.64151 0.0
C466 C 0.85189 0.05471 0.63043 0.0
C467 C 0.75489 0.05538 0.59784 0.0
C468 C 0.7883 0.05514 0.6091 0.0
H469 H 0.9934 0.12424 0.65911 0.0
H470 H 0.937 0.12557 0.64139 0.0
H471 H 0.78515 0.01382 0.64262 0.0
H472 H 0.64265 0.98682 0.58213 0.0
H473 H 0.69782 0.98595 0.6003 0.0
C474 C 0.98577 0.9469 0.98284 0.0
C475 C 0.96934 0.96409 0.99441 0.0
C476 C 0.95508 0.92374 0.9709 0.0
C477 C 0.82727 0.85622 0.95982 0.0
H478 H 0.87654 0.8908 0.92042 0.0
C479 C 0.70362 0.76554 0.90995 0.0
C480 C 0.72519 0.75518 0.89793 0.0
C481 C 0.73282 0.79566 0.92109 0.0
C482 C 0.86236 0.88037 0.93133 0.0
H483 H 0.90749 0.96956 0.0027 0.0
H484 H 0.85332 0.92789 0.98192 0.0
H485 H 0.92868 0.93255 0.94147 0.0
H486 H 0.79471 0.77041 0.88791 0.0
H487 H 0.84555 0.82122 0.90769 0.0
H488 H 0.76191 0.80292 0.94987 0.0
C489 C 0.89019 0.93289 0.98209 0.0
C490 C 0.89217 0.90441 0.94336 0.0
C491 C 0.92117 0.95673 0.99394 0.0
C492 C 0.77681 0.7771 0.89709 0.0
C493 C 0.80604 0.80675 0.90837 0.0
C494 C 0.79773 0.83175 0.94781 0.0
C495 C 0.90714 0.91671 0.9704 0.0
C496 C 0.87495 0.89235 0.95769 0.0
C497 C 0.78433 0.81565 0.92067 0.0
C498 C 0.81496 0.84336 0.9334 0.0
H499 H 0.02276 0.95218 0.98284 0.0
H500 H 0.96875 0.91112 0.96208 0.0
H501 H 0.81341 0.84605 0.97078 0.0
H502 H 0.66401 0.74891 0.91114 0.0
H503 H 0.71481 0.80241 0.93022 0.0
C504 C 0.98866 0.90551 0.30773 0.0
C505 C 0.96743 0.89351 0.32168 0.0
C506 C 0.99032 0.87355 0.29824 0.0
C507 C 0.94026 0.75236 0.29091 0.0
H508 H 0.07213 0.78962 0.27702 0.0
C509 C 0.99106 0.62563 0.26519 0.0
C510 C 0.02293 0.63967 0.2531 0.0
C511 C 0.98315 0.65638 0.27345 0.0
C512 C 0.0349 0.77875 0.2806 0.0
H513 H 0.92792 0.83812 0.33618 0.0
H514 H 0.93029 0.78235 0.31952 0.0
H515 H 0.05621 0.84341 0.29028 0.0
H516 H 0.07105 0.69676 0.2401 0.0
H517 H 0.05675 0.74996 0.25425 0.0
H518 H 0.9188 0.68774 0.28114 0.0
C519 C 0.94593 0.8164 0.31597 0.0
C520 C 0.0258 0.80966 0.28819 0.0
C521 C 0.94475 0.8484 0.32552 0.0
C522 C 0.04714 0.68508 0.24956 0.0
C523 C 0.03886 0.71563 0.25768 0.0
C524 C 0.94924 0.72148 0.28318 0.0
C525 C 0.97022 0.829 0.30245 0.0
C526 C 0.97848 0.79675 0.29348 0.0
C527 C 0.00651 0.70167 0.26967 0.0
C528 C -0.00324 0.73426 0.27799 0.0
H529 H 0.00644 0.94001 0.30448 0.0
H530 H 0.00874 0.88398 0.28779 0.0
H531 H 0.90338 0.7416 0.29483 0.0
H532 H 0.97195 0.59082 0.26816 0.0
H533 H 0.95864 0.64462 0.28277 0.0
C534 C 0.16579 0.00468 0.66753 0.0
C535 C 0.17049 0.04384 0.67432 0.0
C536 C 0.20649 0.0052 0.66096 0.0
C537 C 0.32533 0.08527 0.64468 0.0
H538 H 0.34124 0.98119 0.64088 0.0
C539 C 0.47163 0.08626 0.60661 0.0
C540 C 0.45201 0.05029 0.59623 0.0
C541 C 0.44527 0.08457 0.61927 0.0
C542 C 0.33737 0.01057 0.64193 0.0
H543 H 0.22204 0.11337 0.68044 0.0
H544 H 0.29321 0.11396 0.66937 0.0
H545 H 0.2793 0.98031 0.65763 0.0
H546 H 0.39067 0.98332 0.59141 0.0
H547 H 0.34499 0.98034 0.61349 0.0
H548 H 0.38238 0.11512 0.62877 0.0
C549 C 0.25788 0.08322 0.66868 0.0
C550 C 0.3018 0.01003 0.65145 0.0
C551 C 0.2171 0.08286 0.67506 0.0
C552 C 0.40711 0.01142 0.59925 0.0
C553 C 0.38088 0.00967 0.61192 0.0
C554 C 0.36103 0.08592 0.63529 0.0
C555 C 0.25284 0.04476 0.66121 0.0
C556 C 0.29455 0.04699 0.65265 0.0
C557 C 0.39891 0.04682 0.6218 0.0
C558 C 0.36661 0.04822 0.63354 0.0
H559 H 0.1303 0.9741 0.6668 0.0
H560 H 0.20107 0.97511 0.65515 0.0
H561 H 0.3203 0.11404 0.64509 0.0
H562 H 0.50659 0.11632 0.60472 0.0
H563 H 0.46031 0.11344 0.62681 0.0
C564 C 0.18187 0.2017 0.01037 0.0
C565 C 0.18605 0.16329 0.01131 0.0
C566 C 0.21615 0.23806 0.00242 0.0
C567 C 0.33728 0.28642 0.98356 0.0
H568 H 0.27655 0.32954 0.95709 0.0
C569 C 0.42807 0.3746 0.93007 0.0
C570 C 0.42286 0.41096 0.92625 0.0
C571 C 0.40343 0.34956 0.94221 0.0
C572 C 0.29425 0.31845 0.96456 0.0
H573 H 0.23112 0.13401 0.00538 0.0
H574 H 0.29022 0.19695 0.99127 0.0
H575 H 0.22694 0.27758 0.97579 0.0
H576 H 0.38914 0.45056 0.93246 0.0
H577 H 0.34563 0.40643 0.95357 0.0
H578 H 0.40431 0.3263 0.97188 0.0
C579 C 0.26088 0.19932 -0.00319 0.0
C580 C 0.26586 0.28874 0.97533 0.0
C581 C 0.22679 0.16307 0.00485 0.0
C582 C 0.39311 0.42218 0.93496 0.0
C583 C 0.36838 0.39706 0.94707 0.0
C584 C 0.36567 0.31604 0.97272 0.0
C585 C 0.25513 0.23666 0.99516 0.0
C586 C 0.28684 0.27187 0.98482 0.0
C587 C 0.373 0.3603 0.95075 0.0
C588 C 0.34423 0.33182 0.96299 0.0
H589 H 0.15122 0.20315 0.01537 0.0
H590 H 0.21129 0.26676 0.0016 0.0
H591 H 0.35467 0.2745 0.99083 0.0
H592 H 0.45026 0.36481 0.92347 0.0
H593 H 0.40708 0.32097 0.94465 0.0
C594 C 0.06144 0.1908 0.3211 0.0
C595 C 0.04166 0.1445 0.31849 0.0
C596 C 0.05774 0.21693 0.31053 0.0
C597 C 0.03714 0.22165 0.2713 0.0
H598 H 0.00023 0.3082 0.28511 0.0
C599 C 0.05569 0.36452 0.23607 0.0
C600 C 0.01821 0.3753 0.23707 0.0
C601 C 0.05574 0.33328 0.24529 0.0
C602 C 0.01006 0.2839 0.28104 0.0
H603 H 0.00377 0.08951 0.30254 0.0
H604 H -0.0027 0.13544 0.28397 0.0
H605 H 0.00614 0.25942 0.30245 0.0
H606 H 0.95108 0.36137 0.24839 0.0
H607 H 0.95089 0.30643 0.26441 0.0
H608 H 0.04086 0.24619 0.24985 0.0
C609 C 0.01579 0.1514 0.29423 0.0
C610 C 0.01402 0.25631 0.291 0.0
C611 C 0.0194 0.12511 0.30487 0.0
C612 C 0.98032 0.35361 0.24731 0.0
C613 C 0.98045 0.32245 0.25657 0.0
C614 C 0.03335 0.24943 0.26132 0.0
C615 C 0.0342 0.19745 0.29707 0.0
C616 C 0.02809 0.22522 0.28627 0.0
C617 C 0.01837 0.3122 0.25573 0.0
C618 C 0.02011 0.28108 0.26611 0.0
H619 H 0.07912 0.20689 0.33145 0.0
H620 H 0.07317 0.25248 0.31293 0.0
H621 H 0.04822 0.19811 0.26734 0.0
H622 H 0.08503 0.38023 0.22815 0.0
H623 H 0.0857 0.32642 0.24447 0.0
loop_
_geom_bond_atom_site_label_1
_geom_bond_atom_site_label_2
_geom_bond_distance
_geom_bond_site_symmetry_2
_ccdc_geom_bond_type
O0 Cd1 2.223 . S
O0 C8 1.315 . S
Cd1 O0 2.223 . S
Cd1 O4 2.297 . S
Cd1 O5 2.439 . S
Cd1 O11 2.240 . S
Cd2 O3 2.240 . S
Cd2 O10 2.223 1_545 S
Cd2 O12 2.297 1_545 S
Cd2 O13 2.439 1_545 S
O3 Cd2 2.240 . S
O3 C8 1.279 . S
O4 Cd1 2.297 . S
O4 C6 1.247 . S
O5 Cd1 2.439 . S
O5 C6 1.208 . S
C6 O4 1.247 . S
C6 O5 1.208 . S
C7 O12 1.247 . S
C7 O13 1.208 . S
C8 O0 1.315 . S
C8 O3 1.279 . S
C9 O10 1.315 . S
C9 O11 1.279 1_565 S
O10 Cd2 2.223 1_565 S
O10 C9 1.315 . S
O11 Cd1 2.240 . S
O11 C9 1.279 1_545 S
O12 Cd2 2.297 1_565 S
O12 C7 1.247 . S
O13 Cd2 2.439 1_565 S
O13 C7 1.208 . S
O14 Cd15 2.223 . S
O14 C22 1.315 1_455 S
Cd15 O14 2.223 . S
Cd15 O18 2.297 . S
Cd15 O19 2.439 . S
Cd15 O25 2.240 . S
Cd16 O17 2.240 1_565 S
Cd16 O24 2.223 1_655 S
Cd16 O26 2.297 1_655 S
Cd16 O27 2.439 1_655 S
O17 Cd16 2.240 1_545 S
O17 C22 1.279 . S
O18 Cd15 2.297 . S
O18 C20 1.247 . S
O19 Cd15 2.439 . S
O19 C20 1.208 . S
C20 O18 1.247 . S
C20 O19 1.208 . S
C21 O26 1.247 . S
C21 O27 1.208 . S
C22 O14 1.315 1_655 S
C22 O17 1.279 . S
C23 O24 1.315 1_545 S
C23 O25 1.279 . S
O24 Cd16 2.223 1_455 S
O24 C23 1.315 1_565 S
O25 Cd15 2.240 . S
O25 C23 1.279 . S
O26 Cd16 2.297 1_455 S
O26 C21 1.247 . S
O27 Cd16 2.439 1_455 S
O27 C21 1.208 . S
O28 Cd29 2.223 . S
O28 C36 1.315 . S
Cd29 O28 2.223 . S
Cd29 O32 2.297 1_445 S
Cd29 O33 2.439 . S
Cd29 O39 2.240 . S
Cd30 O31 2.240 . S
Cd30 O38 2.223 . S
Cd30 O40 2.297 . S
Cd30 O41 2.439 . S
O31 Cd30 2.240 . S
O31 C36 1.279 . S
O32 Cd29 2.297 1_665 S
O32 C34 1.247 . S
O33 Cd29 2.439 . S
O33 C34 1.208 1_445 S
C34 O32 1.247 . S
C34 O33 1.208 1_665 S
C35 O40 1.247 . S
C35 O41 1.208 . S
C36 O28 1.315 . S
C36 O31 1.279 . S
C37 O38 1.315 . S
C37 O39 1.279 . S
O38 Cd30 2.223 . S
O38 C37 1.315 . S
O39 Cd29 2.240 . S
O39 C37 1.279 . S
O40 Cd30 2.297 . S
O40 C35 1.247 . S
O41 Cd30 2.439 . S
O41 C35 1.208 . S
H42 O68 0.856 . S
H43 O71 0.854 . S
H44 C79 0.930 . S
H45 C80 0.930 . S
H46 C82 0.930 . S
H47 C83 0.930 . S
H48 C85 0.931 1_655 S
H49 C86 0.930 1_655 S
H50 C88 0.930 . S
H51 C89 0.929 . S
H52 C91 0.930 1_655 S
H53 C92 0.931 1_655 S
H54 C94 0.930 . S
H55 C95 0.929 . S
H56 C97 0.932 . S
H57 C98 0.930 1_655 S
H58 C100 0.930 . S
H59 C101 0.932 . S
H60 C103 0.930 . S
H61 C104 0.929 . S
H62 C106 0.931 . S
H63 C107 0.930 . S
H64 C109 0.929 . S
H65 C110 0.931 . S
H66 C112 0.930 . S
H67 C113 0.929 . S
O68 H42 0.856 . S
O68 C114 1.300 . S
O69 C114 1.209 . S
O70 C115 1.199 . S
O71 H43 0.854 . S
O71 C115 1.297 . S
C72 C73 1.404 . S
C72 C77 1.397 . S
C72 C78 1.492 . S
C73 C72 1.404 . S
C73 C74 1.396 . S
C73 C84 1.492 . S
C74 C73 1.396 . S
C74 C75 1.397 . S
C74 C90 1.509 . S
C75 C74 1.397 . S
C75 C76 1.412 . S
C75 C96 1.485 . S
C76 C75 1.412 . S
C76 C77 1.388 . S
C76 C102 1.490 . S
C77 C72 1.397 . S
C77 C76 1.388 . S
C77 C108 1.519 . S
C78 C72 1.492 . S
C78 C79 1.363 1_455 S
C78 C83 1.390 . S
C79 H44 0.930 . S
C79 C78 1.363 1_655 S
C79 C80 1.372 . S
C80 H45 0.930 . S
C80 C79 1.372 . S
C80 C81 1.383 1_655 S
C81 C80 1.383 1_455 S
C81 C82 1.395 . S
C82 H46 0.930 . S
C82 C81 1.395 . S
C82 C83 1.362 . S
C83 H47 0.930 . S
C83 C78 1.390 . S
C83 C82 1.362 . S
C84 C73 1.492 . S
C84 C85 1.377 . S
C84 C89 1.397 . S
C85 H48 0.931 1_455 S
C85 C84 1.377 . S
C85 C86 1.376 . S
C86 H49 0.930 1_455 S
C86 C85 1.376 . S
C86 C87 1.376 . S
C87 C86 1.376 . S
C87 C88 1.378 . S
C87 C114 1.486 . S
C88 H50 0.930 . S
C88 C87 1.378 . S
C88 C89 1.376 . S
C89 H51 0.929 . S
C89 C84 1.397 . S
C89 C88 1.376 . S
C90 C74 1.509 . S
C90 C91 1.391 . S
C90 C95 1.386 . S
C91 H52 0.930 1_455 S
C91 C90 1.391 . S
C91 C92 1.375 . S
C92 H53 0.931 1_455 S
C92 C91 1.375 . S
C92 C93 1.375 . S
C93 C92 1.375 . S
C93 C94 1.361 . S
C94 H54 0.930 . S
C94 C93 1.361 . S
C94 C95 1.399 . S
C95 H55 0.929 . S
C95 C90 1.386 . S
C95 C94 1.399 . S
C96 C75 1.485 . S
C96 C97 1.393 1_455 S
C96 C101 1.360 . S
C97 H56 0.932 . S
C97 C96 1.393 1_655 S
C97 C98 1.372 1_655 S
C98 H57 0.930 1_455 S
C98 C97 1.372 1_455 S
C98 C99 1.397 . S
C99 C98 1.397 . S
C99 C100 1.390 . S
C99 C115 1.476 . S
C100 H58 0.930 . S
C100 C99 1.390 . S
C100 C101 1.366 . S
C101 H59 0.932 . S
C101 C96 1.360 . S
C101 C100 1.366 . S
C102 C76 1.490 . S
C102 C103 1.380 1_455 S
C102 C107 1.386 . S
C103 H60 0.930 . S
C103 C102 1.380 1_655 S
C103 C104 1.381 . S
C104 H61 0.929 . S
C104 C103 1.381 . S
C104 C105 1.371 1_655 S
C105 C104 1.371 1_455 S
C105 C106 1.380 . S
C106 H62 0.931 . S
C106 C105 1.380 . S
C106 C107 1.387 . S
C107 H63 0.930 . S
C107 C102 1.386 . S
C107 C106 1.387 . S
C108 C77 1.519 . S
C108 C109 1.377 1_455 S
C108 C113 1.361 . S
C109 H64 0.929 . S
C109 C108 1.377 1_655 S
C109 C110 1.386 . S
C110 H65 0.931 . S
C110 C109 1.386 . S
C110 C111 1.363 1_655 S
C111 C110 1.363 1_455 S
C111 C112 1.385 . S
C112 H66 0.930 . S
C112 C111 1.385 . S
C112 C113 1.396 . S
C113 H67 0.929 . S
C113 C108 1.361 . S
C113 C112 1.396 . S
C114 O68 1.300 . S
C114 O69 1.209 . S
C114 C87 1.486 . S
C115 O70 1.199 . S
C115 O71 1.297 . S
C115 C99 1.476 . S
H116 O142 0.856 . S
H117 O145 0.854 . S
H118 C153 0.930 1_565 S
H119 C154 0.930 1_565 S
H120 C156 0.930 . S
H121 C157 0.930 . S
H122 C159 0.931 . S
H123 C160 0.922 1_565 S
H124 C162 0.930 . S
H125 C163 0.929 . S
H126 C165 0.929 1_565 S
H127 C166 0.931 . S
H128 C168 0.930 . S
H129 C169 0.929 . S
H130 C171 0.931 . S
H131 C172 0.930 . S
H132 C174 0.930 . S
H133 C175 0.932 . S
H134 C177 0.930 1_565 S
H135 C178 0.929 1_565 S
H136 C180 0.931 . S
H137 C181 0.930 . S
H138 C183 0.929 1_565 S
H139 C184 0.931 . S
H140 C186 0.930 . S
H141 C187 0.929 . S
O142 H116 0.856 . S
O142 C188 1.300 . S
O143 C188 1.209 . S
O144 C189 1.199 . S
O145 H117 0.854 . S
O145 C189 1.297 . S
C146 C147 1.404 . S
C146 C151 1.397 . S
C146 C152 1.492 . S
C147 C146 1.404 . S
C147 C148 1.396 . S
C147 C158 1.492 . S
C148 C147 1.396 . S
C148 C149 1.397 . S
C148 C164 1.509 . S
C149 C148 1.397 . S
C149 C150 1.412 . S
C149 C170 1.485 . S
C150 C149 1.412 . S
C150 C151 1.388 . S
C150 C176 1.490 . S
C151 C146 1.397 . S
C151 C150 1.388 . S
C151 C182 1.519 . S
C152 C146 1.492 . S
C152 C153 1.363 . S
C152 C157 1.390 . S
C153 H118 0.930 1_545 S
C153 C152 1.363 . S
C153 C154 1.372 . S
C154 H119 0.930 1_545 S
C154 C153 1.372 . S
C154 C155 1.383 . S
C155 C154 1.383 . S
C155 C156 1.395 . S
C156 H120 0.930 . S
C156 C155 1.395 . S
C156 C157 1.362 . S
C157 H121 0.930 . S
C157 C152 1.390 . S
C157 C156 1.362 . S
C158 C147 1.492 . S
C158 C159 1.377 . S
C158 C163 1.397 . S
C159 H122 0.931 . S
C159 C158 1.377 . S
C159 C160 1.376 . S
C160 H123 0.922 1_545 S
C160 C159 1.376 . S
C160 C161 1.376 . S
C161 C160 1.376 . S
C161 C162 1.378 . S
C161 C188 1.486 . S
C162 H124 0.930 . S
C162 C161 1.378 . S
C162 C163 1.376 . S
C163 H125 0.929 . S
C163 C158 1.397 . S
C163 C162 1.376 . S
C164 C148 1.509 . S
C164 C165 1.391 . S
C164 C169 1.386 . S
C165 H126 0.929 1_545 S
C165 C164 1.391 . S
C165 C166 1.375 . S
C166 H127 0.931 . S
C166 C165 1.375 . S
C166 C167 1.375 . S
C167 C166 1.375 . S
C167 C168 1.361 . S
C168 H128 0.930 . S
C168 C167 1.361 . S
C168 C169 1.399 . S
C169 H129 0.929 . S
C169 C164 1.386 . S
C169 C168 1.399 . S
C170 C149 1.485 . S
C170 C171 1.394 . S
C170 C175 1.360 . S
C171 H130 0.931 . S
C171 C170 1.394 . S
C171 C172 1.372 . S
C172 H131 0.930 . S
C172 C171 1.372 . S
C172 C173 1.397 . S
C173 C172 1.397 . S
C173 C174 1.390 . S
C173 C189 1.476 . S
C174 H132 0.930 . S
C174 C173 1.390 . S
C174 C175 1.366 . S
C175 H133 0.932 . S
C175 C170 1.360 . S
C175 C174 1.366 . S
C176 C150 1.490 . S
C176 C177 1.380 . S
C176 C181 1.386 . S
C177 H134 0.930 1_545 S
C177 C176 1.380 . S
C177 C178 1.381 . S
C178 H135 0.929 1_545 S
C178 C177 1.381 . S
C178 C179 1.371 . S
C179 C178 1.371 . S
C179 C180 1.380 . S
C180 H136 0.931 . S
C180 C179 1.380 . S
C180 C181 1.387 . S
C181 H137 0.930 . S
C181 C176 1.386 . S
C181 C180 1.387 . S
C182 C151 1.519 . S
C182 C183 1.377 . S
C182 C187 1.361 . S
C183 H138 0.929 1_545 S
C183 C182 1.377 . S
C183 C184 1.386 . S
C184 H139 0.931 . S
C184 C183 1.386 . S
C184 C185 1.363 . S
C185 C184 1.363 . S
C185 C186 1.385 . S
C186 H140 0.930 . S
C186 C185 1.385 . S
C186 C187 1.396 . S
C187 H141 0.929 . S
C187 C182 1.361 . S
C187 C186 1.396 . S
C188 O142 1.300 . S
C188 O143 1.209 . S
C188 C161 1.486 . S
C189 O144 1.199 . S
C189 O145 1.297 . S
C189 C173 1.476 . S
H190 O216 0.856 . S
H191 O219 0.854 . S
H192 C227 0.930 . S
H193 C228 0.930 . S
H194 C230 0.930 . S
H195 C231 0.930 . S
H196 C233 0.931 . S
H197 C234 0.930 . S
H198 C236 0.930 . S
H199 C237 0.929 . S
H200 C239 0.930 . S
H201 C240 0.931 . S
H202 C242 0.930 . S
H203 C243 0.929 . S
H204 C245 0.931 . S
H205 C246 0.930 . S
H206 C248 0.930 . S
H207 C249 0.932 . S
H208 C251 0.930 . S
H209 C252 0.929 . S
H210 C254 0.931 . S
H211 C255 0.930 . S
H212 C257 0.929 . S
H213 C258 0.931 . S
H214 C260 0.930 . S
H215 C261 0.929 . S
O216 H190 0.856 . S
O216 C262 1.300 . S
O217 C262 1.209 . S
O218 C263 1.199 . S
O219 H191 0.854 . S
O219 C263 1.297 . S
C220 C221 1.404 . S
C220 C225 1.397 . S
C220 C226 1.492 . S
C221 C220 1.404 . S
C221 C222 1.396 . S
C221 C232 1.492 . S
C222 C221 1.396 . S
C222 C223 1.397 . S
C222 C238 1.509 . S
C223 C222 1.397 . S
C223 C224 1.412 . S
C223 C244 1.485 . S
C224 C223 1.412 . S
C224 C225 1.388 . S
C224 C250 1.490 . S
C225 C220 1.397 . S
C225 C224 1.388 . S
C225 C256 1.519 . S
C226 C220 1.492 . S
C226 C227 1.363 . S
C226 C231 1.390 . S
C227 H192 0.930 . S
C227 C226 1.363 . S
C227 C228 1.372 . S
C228 H193 0.930 . S
C228 C227 1.372 . S
C228 C229 1.383 . S
C229 C228 1.383 . S
C229 C230 1.395 . S
C230 H194 0.930 . S
C230 C229 1.395 . S
C230 C231 1.362 . S
C231 H195 0.930 . S
C231 C226 1.390 . S
C231 C230 1.362 . S
C232 C221 1.492 . S
C232 C233 1.377 . S
C232 C237 1.397 . S
C233 H196 0.931 . S
C233 C232 1.377 . S
C233 C234 1.376 . S
C234 H197 0.930 . S
C234 C233 1.376 . S
C234 C235 1.376 . S
C235 C234 1.376 . S
C235 C236 1.378 . S
C235 C262 1.486 . S
C236 H198 0.930 . S
C236 C235 1.378 . S
C236 C237 1.376 . S
C237 H199 0.929 . S
C237 C232 1.397 . S
C237 C236 1.376 . S
C238 C222 1.509 . S
C238 C239 1.391 . S
C238 C243 1.386 . S
C239 H200 0.930 . S
C239 C238 1.391 . S
C239 C240 1.375 . S
C240 H201 0.931 . S
C240 C239 1.375 . S
C240 C241 1.375 . S
C241 C240 1.375 . S
C241 C242 1.361 . S
C242 H202 0.930 . S
C242 C241 1.361 . S
C242 C243 1.399 . S
C243 H203 0.929 . S
C243 C238 1.386 . S
C243 C242 1.399 . S
C244 C223 1.485 . S
C244 C245 1.394 . S
C244 C249 1.360 . S
C245 H204 0.931 . S
C245 C244 1.394 . S
C245 C246 1.372 . S
C246 H205 0.930 . S
C246 C245 1.372 . S
C246 C247 1.397 . S
C247 C246 1.397 . S
C247 C248 1.390 . S
C247 C263 1.476 . S
C248 H206 0.930 . S
C248 C247 1.390 . S
C248 C249 1.366 . S
C249 H207 0.932 . S
C249 C244 1.360 . S
C249 C248 1.366 . S
C250 C224 1.490 . S
C250 C251 1.380 . S
C250 C255 1.386 . S
C251 H208 0.930 . S
C251 C250 1.380 . S
C251 C252 1.381 . S
C252 H209 0.929 . S
C252 C251 1.381 . S
C252 C253 1.371 . S
C253 C252 1.371 . S
C253 C254 1.380 . S
C254 H210 0.931 . S
C254 C253 1.380 . S
C254 C255 1.387 . S
C255 H211 0.930 . S
C255 C250 1.386 . S
C255 C254 1.387 . S
C256 C225 1.519 . S
C256 C257 1.377 . S
C256 C261 1.361 . S
C257 H212 0.929 . S
C257 C256 1.377 . S
C257 C258 1.386 . S
C258 H213 0.931 . S
C258 C257 1.386 . S
C258 C259 1.363 . S
C259 C258 1.363 . S
C259 C260 1.385 . S
C260 H214 0.930 . S
C260 C259 1.385 . S
C260 C261 1.396 . S
C261 H215 0.929 . S
C261 C256 1.361 . S
C261 C260 1.396 . S
C262 O216 1.300 . S
C262 O217 1.209 . S
C262 C235 1.486 . S
C263 O218 1.199 . S
C263 O219 1.297 . S
C263 C247 1.476 . S
C264 C265 1.349 . S
C264 C266 1.327 . S
C264 H289 0.950 . S
C265 C264 1.349 . S
C265 C281 1.349 . S
C266 C264 1.327 . S
C266 C285 1.429 . S
C266 H290 0.950 . S
C267 C284 1.574 . S
C267 C286 1.368 . S
C267 H291 0.949 . S
H268 C272 0.949 . S
C269 C270 1.349 . S
C269 C271 1.327 . S
C269 H292 0.950 . S
C270 C269 1.349 . S
C270 C282 1.349 . S
C271 C269 1.327 . S
C271 C287 1.429 . S
C271 H293 0.950 . S
C272 H268 0.949 . S
C272 C280 1.574 . S
C272 C288 1.368 . S
H273 C281 0.950 . S
H274 C279 0.950 . S
H275 C280 0.949 . S
H276 C282 0.950 1_655 S
H277 C283 0.950 1_655 S
H278 C284 0.949 . S
C279 H274 0.950 . S
C279 C281 1.327 . S
C279 C285 1.429 . S
C280 C272 1.574 . S
C280 H275 0.949 . S
C280 C286 1.368 . S
C281 C265 1.349 . S
C281 H273 0.950 . S
C281 C279 1.327 . S
C282 C270 1.349 . S
C282 H276 0.950 1_455 S
C282 C283 1.327 . S
C283 H277 0.950 1_455 S
C283 C282 1.327 . S
C283 C287 1.429 . S
C284 C267 1.574 . S
C284 H278 0.949 . S
C284 C288 1.368 . S
C285 C266 1.429 . S
C285 C279 1.429 . S
C285 C286 1.523 . S
C286 C267 1.368 . S
C286 C280 1.368 . S
C286 C285 1.523 . S
C287 C271 1.429 . S
C287 C283 1.429 . S
C287 C288 1.523 . S
C288 C272 1.368 . S
C288 C284 1.368 . S
C288 C287 1.523 . S
H289 C264 0.950 . S
H290 C266 0.950 . S
H291 C267 0.949 . S
H292 C269 0.950 . S
H293 C271 0.950 . S
C294 C295 1.349 1_565 S
C294 C296 1.327 . S
C294 H319 0.950 . S
C295 C294 1.349 1_545 S
C295 C311 1.349 . S
C296 C294 1.327 . S
C296 C315 1.429 1_565 S
C296 H320 0.950 . S
C297 C314 1.574 . S
C297 C316 1.368 . S
C297 H321 0.949 . S
H298 C302 0.949 . S
C299 C300 1.349 . S
C299 C301 1.327 . S
C299 H322 0.950 . S
C300 C299 1.349 . S
C300 C312 1.353 . S
C301 C299 1.327 . S
C301 C317 1.429 . S
C301 H323 0.950 . S
C302 H298 0.949 . S
C302 C310 1.574 . S
C302 C318 1.368 1_565 S
H303 C311 0.950 . S
H304 C309 0.950 . S
H305 C310 0.949 . S
H306 C312 0.947 1_565 S
H307 C313 0.972 . S
H308 C314 0.949 . S
C309 H304 0.950 . S
C309 C311 1.327 . S
C309 C315 1.429 . S
C310 C302 1.574 . S
C310 H305 0.949 . S
C310 C316 1.368 1_565 S
C311 C295 1.349 . S
C311 H303 0.950 . S
C311 C309 1.327 . S
C312 C300 1.353 . S
C312 H306 0.947 1_545 S
C312 C313 1.319 1_545 S
C313 H307 0.972 . S
C313 C312 1.319 1_565 S
C313 C317 1.414 1_565 S
C314 C297 1.574 . S
C314 H308 0.949 . S
C314 C318 1.368 . S
C315 C296 1.429 1_545 S
C315 C309 1.429 . S
C315 C316 1.523 . S
C316 C297 1.368 . S
C316 C310 1.368 1_545 S
C316 C315 1.523 . S
C317 C301 1.429 . S
C317 C313 1.414 1_545 S
C317 C318 1.523 . S
C318 C302 1.368 1_545 S
C318 C314 1.368 . S
C318 C317 1.523 . S
H319 C294 0.950 . S
H320 C296 0.950 . S
H321 C297 0.949 . S
H322 C299 0.950 . S
H323 C301 0.950 . S
C324 C325 1.349 . S
C324 C326 1.327 . S
C324 H349 0.950 . S
C325 C324 1.349 . S
C325 C341 1.349 . S
C326 C324 1.327 . S
C326 C345 1.429 . S
C326 H350 0.950 . S
C327 C344 1.574 . S
C327 C346 1.368 . S
C327 H351 0.949 . S
H328 C332 0.949 . S
C329 C330 1.349 . S
C329 C331 1.327 . S
C329 H352 0.950 . S
C330 C329 1.349 . S
C330 C342 1.349 . S
C331 C329 1.327 . S
C331 C347 1.429 . S
C331 H353 0.950 . S
C332 H328 0.949 . S
C332 C340 1.574 . S
C332 C348 1.368 . S
H333 C341 0.950 . S
H334 C339 0.950 . S
H335 C340 0.949 . S
H336 C342 0.950 . S
H337 C343 0.950 . S
H338 C344 0.949 . S
C339 H334 0.950 . S
C339 C341 1.327 . S
C339 C345 1.429 . S
C340 C332 1.574 . S
C340 H335 0.949 . S
C340 C346 1.368 . S
C341 C325 1.349 . S
C341 H333 0.950 . S
C341 C339 1.327 . S
C342 C330 1.349 . S
C342 H336 0.950 . S
C342 C343 1.327 . S
C343 H337 0.950 . S
C343 C342 1.327 . S
C343 C347 1.429 . S
C344 C327 1.574 . S
C344 H338 0.949 . S
C344 C348 1.368 . S
C345 C326 1.429 . S
C345 C339 1.429 . S
C345 C346 1.523 . S
C346 C327 1.368 . S
C346 C340 1.368 . S
C346 C345 1.523 . S
C347 C331 1.429 . S
C347 C343 1.429 . S
C347 C348 1.523 . S
C348 C332 1.368 . S
C348 C344 1.368 . S
C348 C347 1.523 . S
H349 C324 0.950 . S
H350 C326 0.950 . S
H351 C327 0.949 . S
H352 C329 0.950 . S
H353 C331 0.950 . S
C354 C355 1.349 . S
C354 C356 1.327 . S
C354 H379 0.950 . S
C355 C354 1.349 . S
C355 C371 1.349 . S
C356 C354 1.327 . S
C356 C375 1.429 . S
C356 H380 0.950 . S
C357 C374 1.574 . S
C357 C376 1.368 . S
C357 H381 0.949 . S
H358 C362 0.949 . S
C359 C360 1.349 . S
C359 C361 1.327 . S
C359 H382 0.950 . S
C360 C359 1.349 . S
C360 C372 1.349 . S
C361 C359 1.327 . S
C361 C377 1.429 . S
C361 H383 0.950 . S
C362 H358 0.949 . S
C362 C370 1.574 . S
C362 C378 1.368 . S
H363 C371 0.950 . S
H364 C369 0.950 . S
H365 C370 0.949 . S
H366 C372 0.950 . S
H367 C373 0.950 . S
H368 C374 0.949 . S
C369 H364 0.950 . S
C369 C371 1.327 . S
C369 C375 1.429 . S
C370 C362 1.574 . S
C370 H365 0.949 . S
C370 C376 1.368 . S
C371 C355 1.349 . S
C371 H363 0.950 . S
C371 C369 1.327 . S
C372 C360 1.349 . S
C372 H366 0.950 . S
C372 C373 1.327 . S
C373 H367 0.950 . S
C373 C372 1.327 . S
C373 C377 1.429 . S
C374 C357 1.574 . S
C374 H368 0.949 . S
C374 C378 1.368 . S
C375 C356 1.429 . S
C375 C369 1.429 . S
C375 C376 1.523 . S
C376 C357 1.368 . S
C376 C370 1.368 . S
C376 C375 1.523 . S
C377 C361 1.429 . S
C377 C373 1.429 . S
C377 C378 1.523 . S
C378 C362 1.368 . S
C378 C374 1.368 . S
C378 C377 1.523 . S
H379 C354 0.950 . S
H380 C356 0.950 . S
H381 C357 0.949 . S
H382 C359 0.950 . S
H383 C361 0.950 . S
C384 C385 1.349 1_565 S
C384 C386 1.320 . S
C384 H409 0.950 . S
C385 C384 1.349 1_545 S
C385 C401 1.349 . S
C386 C384 1.320 . S
C386 C405 1.414 1_565 S
C386 H410 0.972 . S
C387 C404 1.574 . S
C387 C406 1.368 . S
C387 H411 0.949 . S
H388 C392 0.949 1_565 S
C389 C390 1.349 . S
C389 C391 1.327 . S
C389 H412 0.950 . S
C390 C389 1.349 . S
C390 C402 1.349 . S
C391 C389 1.327 . S
C391 C407 1.429 . S
C391 H413 0.950 . S
C392 H388 0.949 1_545 S
C392 C400 1.574 . S
C392 C408 1.368 . S
H393 C401 0.950 . S
H394 C399 0.950 . S
H395 C400 0.949 1_565 S
H396 C402 0.950 . S
H397 C403 0.950 . S
H398 C404 0.949 . S
C399 H394 0.950 . S
C399 C401 1.327 . S
C399 C405 1.429 . S
C400 C392 1.574 . S
C400 H395 0.949 1_545 S
C400 C406 1.368 . S
C401 C385 1.349 . S
C401 H393 0.950 . S
C401 C399 1.327 . S
C402 C390 1.349 . S
C402 H396 0.950 . S
C402 C403 1.327 . S
C403 H397 0.950 . S
C403 C402 1.327 . S
C403 C407 1.429 . S
C404 C387 1.574 . S
C404 H398 0.949 . S
C404 C408 1.368 . S
C405 C386 1.414 1_545 S
C405 C399 1.429 . S
C405 C406 1.523 . S
C406 C387 1.368 . S
C406 C400 1.368 . S
C406 C405 1.523 . S
C407 C391 1.429 . S
C407 C403 1.429 . S
C407 C408 1.523 . S
C408 C392 1.368 . S
C408 C404 1.368 . S
C408 C407 1.523 . S
H409 C384 0.950 . S
H410 C386 0.972 . S
H411 C387 0.949 . S
H412 C389 0.950 . S
H413 C391 0.950 . S
C414 C415 1.349 . S
C414 C416 1.327 . S
C414 H439 0.950 . S
C415 C414 1.349 . S
C415 C431 1.349 . S
C416 C414 1.327 . S
C416 C435 1.429 . S
C416 H440 0.950 . S
C417 C434 1.574 . S
C417 C436 1.368 . S
C417 H441 0.949 . S
H418 C422 0.949 . S
C419 C420 1.349 . S
C419 C421 1.327 . S
C419 H442 0.950 . S
C420 C419 1.349 . S
C420 C432 1.349 . S
C421 C419 1.327 . S
C421 C437 1.429 . S
C421 H443 0.950 . S
C422 H418 0.949 . S
C422 C430 1.574 . S
C422 C438 1.368 . S
H423 C431 0.950 . S
H424 C429 0.950 . S
H425 C430 0.949 . S
H426 C432 0.950 . S
H427 C433 0.950 . S
H428 C434 0.949 . S
C429 H424 0.950 . S
C429 C431 1.327 . S
C429 C435 1.429 . S
C430 C422 1.574 . S
C430 H425 0.949 . S
C430 C436 1.368 . S
C431 C415 1.349 . S
C431 H423 0.950 . S
C431 C429 1.327 . S
C432 C420 1.349 . S
C432 H426 0.950 . S
C432 C433 1.327 . S
C433 H427 0.950 . S
C433 C432 1.327 . S
C433 C437 1.429 . S
C434 C417 1.574 . S
C434 H428 0.949 . S
C434 C438 1.368 . S
C435 C416 1.429 . S
C435 C429 1.429 . S
C435 C436 1.523 . S
C436 C417 1.368 . S
C436 C430 1.368 . S
C436 C435 1.523 . S
C437 C421 1.429 . S
C437 C433 1.429 . S
C437 C438 1.523 . S
C438 C422 1.368 . S
C438 C434 1.368 . S
C438 C437 1.523 . S
H439 C414 0.950 . S
H440 C416 0.950 . S
H441 C417 0.949 . S
H442 C419 0.950 . S
H443 C421 0.950 . S
C444 C445 1.349 . S
C444 C446 1.327 . S
C444 H469 0.950 1_655 S
C445 C444 1.349 . S
C445 C461 1.349 . S
C446 C444 1.327 . S
C446 C465 1.429 . S
C446 H470 0.950 . S
C447 C464 1.574 . S
C447 C466 1.368 . S
C447 H471 0.949 . S
H448 C452 0.949 . S
C449 C450 1.349 . S
C449 C451 1.327 . S
C449 H472 0.950 . S
C450 C449 1.349 . S
C450 C462 1.349 . S
C451 C449 1.327 . S
C451 C467 1.429 . S
C451 H473 0.950 . S
C452 H448 0.949 . S
C452 C460 1.574 . S
C452 C468 1.368 . S
H453 C461 0.950 . S
H454 C459 0.950 . S
H455 C460 0.949 . S
H456 C462 0.950 . S
H457 C463 0.950 . S
H458 C464 0.949 . S
C459 H454 0.950 . S
C459 C461 1.327 . S
C459 C465 1.429 . S
C460 C452 1.574 . S
C460 H455 0.949 . S
C460 C466 1.368 . S
C461 C445 1.349 . S
C461 H453 0.950 . S
C461 C459 1.327 . S
C462 C450 1.349 . S
C462 H456 0.950 . S
C462 C463 1.327 . S
C463 H457 0.950 . S
C463 C462 1.327 . S
C463 C467 1.429 . S
C464 C447 1.574 . S
C464 H458 0.949 . S
C464 C468 1.368 . S
C465 C446 1.429 . S
C465 C459 1.429 . S
C465 C466 1.523 . S
C466 C447 1.368 . S
C466 C460 1.368 . S
C466 C465 1.523 . S
C467 C451 1.429 . S
C467 C463 1.429 . S
C467 C468 1.523 . S
C468 C452 1.368 . S
C468 C464 1.368 . S
C468 C467 1.523 . S
H469 C444 0.950 1_455 S
H470 C446 0.950 . S
H471 C447 0.949 . S
H472 C449 0.950 . S
H473 C451 0.950 . S
C474 C475 1.349 . S
C474 C476 1.327 . S
C474 H499 0.950 1_655 S
C475 C474 1.349 . S
C475 C491 1.349 1_556 S
C476 C474 1.327 . S
C476 C495 1.429 . S
C476 H500 0.950 . S
C477 C494 1.574 . S
C477 C496 1.368 . S
C477 H501 0.949 . S
H478 C482 0.949 . S
C479 C480 1.349 . S
C479 C481 1.327 . S
C479 H502 0.950 . S
C480 C479 1.349 . S
C480 C492 1.349 . S
C481 C479 1.327 . S
C481 C497 1.429 . S
C481 H503 0.950 . S
C482 H478 0.949 . S
C482 C490 1.574 . S
C482 C498 1.368 . S
H483 C491 0.950 . S
H484 C489 0.950 . S
H485 C490 0.949 . S
H486 C492 0.950 . S
H487 C493 0.950 . S
H488 C494 0.949 . S
C489 H484 0.950 . S
C489 C491 1.327 1_556 S
C489 C495 1.429 . S
C490 C482 1.574 . S
C490 H485 0.949 . S
C490 C496 1.368 . S
C491 C475 1.349 1_554 S
C491 H483 0.950 . S
C491 C489 1.327 1_554 S
C492 C480 1.349 . S
C492 H486 0.950 . S
C492 C493 1.327 . S
C493 H487 0.950 . S
C493 C492 1.327 . S
C493 C497 1.429 . S
C494 C477 1.574 . S
C494 H488 0.949 . S
C494 C498 1.368 . S
C495 C476 1.429 . S
C495 C489 1.429 . S
C495 C496 1.523 . S
C496 C477 1.368 . S
C496 C490 1.368 . S
C496 C495 1.523 . S
C497 C481 1.429 . S
C497 C493 1.429 . S
C497 C498 1.523 . S
C498 C482 1.368 . S
C498 C494 1.368 . S
C498 C497 1.523 . S
H499 C474 0.950 1_455 S
H500 C476 0.950 . S
H501 C477 0.949 . S
H502 C479 0.950 . S
H503 C481 0.950 . S
C504 C505 1.349 . S
C504 C506 1.327 . S
C504 H529 0.950 . S
C505 C504 1.349 . S
C505 C521 1.349 1_455 S
C506 C504 1.327 . S
C506 C525 1.429 . S
C506 H530 0.950 . S
C507 C524 1.574 . S
C507 C526 1.368 1_655 S
C507 H531 0.949 . S
H508 C512 0.949 . S
C509 C510 1.349 1_655 S
C509 C511 1.327 . S
C509 H532 0.950 . S
C510 C509 1.349 1_455 S
C510 C522 1.349 . S
C511 C509 1.327 . S
C511 C527 1.429 1_655 S
C511 H533 0.950 . S
C512 H508 0.949 . S
C512 C520 1.574 . S
C512 C528 1.368 . S
H513 C521 0.950 . S
H514 C519 0.950 . S
H515 C520 0.949 . S
H516 C522 0.950 . S
H517 C523 0.950 . S
H518 C524 0.949 . S
C519 H514 0.950 . S
C519 C521 1.327 . S
C519 C525 1.429 1_655 S
C520 C512 1.574 . S
C520 H515 0.949 . S
C520 C526 1.368 . S
C521 C505 1.349 1_655 S
C521 H513 0.950 . S
C521 C519 1.327 . S
C522 C510 1.349 . S
C522 H516 0.950 . S
C522 C523 1.327 . S
C523 H517 0.950 . S
C523 C522 1.327 . S
C523 C527 1.429 . S
C524 C507 1.574 . S
C524 H518 0.949 . S
C524 C528 1.368 1_655 S
C525 C506 1.429 . S
C525 C519 1.429 1_455 S
C525 C526 1.523 . S
C526 C507 1.368 1_455 S
C526 C520 1.368 . S
C526 C525 1.523 . S
C527 C511 1.429 1_455 S
C527 C523 1.429 . S
C527 C528 1.523 . S
C528 C512 1.368 . S
C528 C524 1.368 1_455 S
C528 C527 1.523 . S
H529 C504 0.950 . S
H530 C506 0.950 . S
H531 C507 0.949 . S
H532 C509 0.950 . S
H533 C511 0.950 . S
C534 C535 1.349 . S
C534 C536 1.327 . S
C534 H559 0.950 . S
C535 C534 1.349 . S
C535 C551 1.349 . S
C536 C534 1.327 . S
C536 C555 1.429 . S
C536 H560 0.938 1_545 S
C537 C554 1.574 . S
C537 C556 1.368 . S
C537 H561 0.949 . S
H538 C542 0.949 1_565 S
C539 C540 1.349 . S
C539 C541 1.327 . S
C539 H562 0.950 . S
C540 C539 1.349 . S
C540 C552 1.349 . S
C541 C539 1.327 . S
C541 C557 1.429 . S
C541 H563 0.950 . S
C542 H538 0.949 1_545 S
C542 C550 1.574 . S
C542 C558 1.368 . S
H543 C551 0.950 . S
H544 C549 0.950 . S
H545 C550 0.949 1_565 S
H546 C552 0.950 1_565 S
H547 C553 0.950 1_565 S
H548 C554 0.949 . S
C549 H544 0.950 . S
C549 C551 1.327 . S
C549 C555 1.429 . S
C550 C542 1.574 . S
C550 H545 0.949 1_545 S
C550 C556 1.368 . S
C551 C535 1.349 . S
C551 H543 0.950 . S
C551 C549 1.327 . S
C552 C540 1.349 . S
C552 H546 0.950 1_545 S
C552 C553 1.327 . S
C553 H547 0.950 1_545 S
C553 C552 1.327 . S
C553 C557 1.429 . S
C554 C537 1.574 . S
C554 H548 0.949 . S
C554 C558 1.368 . S
C555 C536 1.429 . S
C555 C549 1.429 . S
C555 C556 1.523 . S
C556 C537 1.368 . S
C556 C550 1.368 . S
C556 C555 1.523 . S
C557 C541 1.429 . S
C557 C553 1.429 . S
C557 C558 1.523 . S
C558 C542 1.368 . S
C558 C554 1.368 . S
C558 C557 1.523 . S
H559 C534 0.950 . S
H560 C536 0.938 1_565 S
H561 C537 0.949 . S
H562 C539 0.950 . S
H563 C541 0.950 . S
C564 C565 1.349 . S
C564 C566 1.327 1_554 S
C564 H589 0.950 . S
C565 C564 1.349 . S
C565 C581 1.349 . S
C566 C564 1.327 1_556 S
C566 C585 1.429 . S
C566 H590 0.950 . S
C567 C584 1.574 . S
C567 C586 1.368 . S
C567 H591 0.949 . S
H568 C572 0.949 . S
C569 C570 1.349 . S
C569 C571 1.327 . S
C569 H592 0.950 . S
C570 C569 1.349 . S
C570 C582 1.349 . S
C571 C569 1.327 . S
C571 C587 1.429 . S
C571 H593 0.950 . S
C572 H568 0.949 . S
C572 C580 1.574 . S
C572 C588 1.368 . S
H573 C581 0.950 . S
H574 C579 0.950 . S
H575 C580 0.949 . S
H576 C582 0.950 . S
H577 C583 0.950 . S
H578 C584 0.949 . S
C579 H574 0.950 . S
C579 C581 1.327 1_556 S
C579 C585 1.429 . S
C580 C572 1.574 . S
C580 H575 0.949 . S
C580 C586 1.368 . S
C581 C565 1.349 . S
C581 H573 0.950 . S
C581 C579 1.327 1_554 S
C582 C570 1.349 . S
C582 H576 0.950 . S
C582 C583 1.327 . S
C583 H577 0.950 . S
C583 C582 1.327 . S
C583 C587 1.429 . S
C584 C567 1.574 . S
C584 H578 0.949 . S
C584 C588 1.368 . S
C585 C566 1.429 . S
C585 C579 1.429 . S
C585 C586 1.523 . S
C586 C567 1.368 . S
C586 C580 1.368 . S
C586 C585 1.523 . S
C587 C571 1.429 . S
C587 C583 1.429 . S
C587 C588 1.523 . S
C588 C572 1.368 . S
C588 C584 1.368 . S
C588 C587 1.523 . S
H589 C564 0.950 . S
H590 C566 0.950 . S
H591 C567 0.949 . S
H592 C569 0.950 . S
H593 C571 0.950 . S
C594 C595 1.349 1_655 S
C594 C596 1.327 . S
C594 H619 0.950 . S
C595 C594 1.349 1_455 S
C595 C611 1.349 . S
C596 C594 1.327 . S
C596 C615 1.429 1_655 S
C596 H620 0.950 . S
C597 C614 1.574 . S
C597 C616 1.368 . S
C597 H621 0.949 . S
H598 C602 0.949 . S
C599 C600 1.349 . S
C599 C601 1.327 . S
C599 H622 0.950 . S
C600 C599 1.349 . S
C600 C612 1.349 . S
C601 C599 1.327 . S
C601 C617 1.429 . S
C601 H623 0.950 . S
C602 H598 0.949 . S
C602 C610 1.574 . S
C602 C618 1.368 1_655 S
H603 C611 0.950 . S
H604 C609 0.950 . S
H605 C610 0.949 . S
H606 C612 0.950 1_655 S
H607 C613 0.950 1_655 S
H608 C614 0.949 . S
C609 H604 0.950 . S
C609 C611 1.327 . S
C609 C615 1.429 . S
C610 C602 1.574 . S
C610 H605 0.949 . S
C610 C616 1.368 1_655 S
C611 C595 1.349 . S
C611 H603 0.950 . S
C611 C609 1.327 . S
C612 C600 1.349 . S
C612 H606 0.950 1_455 S
C612 C613 1.327 . S
C613 H607 0.950 1_455 S
C613 C612 1.327 . S
C613 C617 1.429 . S
C614 C597 1.574 . S
C614 H608 0.949 . S
C614 C618 1.368 . S
C615 C596 1.429 1_455 S
C615 C609 1.429 . S
C615 C616 1.523 . S
C616 C597 1.368 . S
C616 C610 1.368 1_455 S
C616 C615 1.523 . S
C617 C601 1.429 . S
C617 C613 1.429 . S
C617 C618 1.523 . S
C618 C602 1.368 1_455 S
C618 C614 1.368 . S
C618 C617 1.523 . S
H619 C594 0.950 . S
H620 C596 0.950 . S
H621 C597 0.949 . S
H622 C599 0.950 . S
H623 C601 0.950 . S
C270 C81 1.386 . S
C265 C6 1.437 . S
C295 C22 1.505 . S
C300 C155 1.443 . S
C325 C34 1.952 . S
C330 C259 1.975 . S
C355 C7 0.720 . S
C360 C93 0.719 . S
C390 C167 0.813 . S
C385 C23 0.812 . S
C415 C35 1.161 . S
C420 C253 1.125 . S
C450 C185 2.273 . S
C445 C36 2.264 1_655 S
C475 C9 1.802 1_656 S
C480 C229 1.733 . S
C510 C105 1.409 . S
C505 C21 1.470 . S
C540 C179 1.400 . S
C535 C37 1.467 . S
C570 C241 1.049 . S
C565 C8 1.038 . S
C595 C20 2.268 . S
C600 C111 2.295 . S
