# Generated by pormake.
# Topology eea, (3,6)-cn, num edge types: 1
# Building blocks:
#     Node 0, Type 0, BuildingBlock: VETTIZ_charged_linker_0, # of connection points: 3
#     Node 1, Type 0, BuildingBlock: VETTIZ_charged_linker_0, # of connection points: 3
#     Node 2, Type 0, BuildingBlock: VETTIZ_charged_linker_0, # of connection points: 3
#     Node 3, Type 0, BuildingBlock: VETTIZ_charged_linker_0, # of connection points: 3
#     Node 4, Type 0, BuildingBlock: VETTIZ_charged_linker_0, # of connection points: 3
#     Node 5, Type 0, BuildingBlock: VETTIZ_charged_linker_0, # of connection points: 3
#     Node 6, Type 0, BuildingBlock: VETTIZ_charged_linker_0, # of connection points: 3
#     Node 7, Type 0, BuildingBlock: VETTIZ_charged_linker_0, # of connection points: 3
#     Node 8, Type 0, BuildingBlock: VETTIZ_charged_linker_0, # of connection points: 3
#     Node 9, Type 0, BuildingBlock: VETTIZ_charged_linker_0, # of connection points: 3
#     Node 10, Type 0, BuildingBlock: VETTIZ_charged_linker_0, # of connection points: 3
#     Node 11, Type 0, BuildingBlock: VETTIZ_charged_linker_0, # of connection points: 3
#     Node 12, Type 0, BuildingBlock: VETTIZ_charged_linker_0, # of connection points: 3
#     Node 13, Type 0, BuildingBlock: VETTIZ_charged_linker_0, # of connection points: 3
#     Node 14, Type 0, BuildingBlock: VETTIZ_charged_linker_0, # of connection points: 3
#     Node 15, Type 0, BuildingBlock: VETTIZ_charged_linker_0, # of connection points: 3
#     Node 16, Type 0, BuildingBlock: VETTIZ_charged_linker_0, # of connection points: 3
#     Node 17, Type 0, BuildingBlock: VETTIZ_charged_linker_0, # of connection points: 3
#     Node 18, Type 1, BuildingBlock: KUMBUR_clean_sbu_0, # of connection points: 6
#     Node 19, Type 1, BuildingBlock: KUMBUR_clean_sbu_0, # of connection points: 6
#     Node 20, Type 1, BuildingBlock: KUMBUR_clean_sbu_0, # of connection points: 6
#     Node 21, Type 1, BuildingBlock: KUMBUR_clean_sbu_0, # of connection points: 6
#     Node 22, Type 1, BuildingBlock: KUMBUR_clean_sbu_0, # of connection points: 6
#     Node 23, Type 1, BuildingBlock: KUMBUR_clean_sbu_0, # of connection points: 6
#     Node 24, Type 1, BuildingBlock: KUMBUR_clean_sbu_0, # of connection points: 6
#     Node 25, Type 1, BuildingBlock: KUMBUR_clean_sbu_0, # of connection points: 6
#     Node 26, Type 1, BuildingBlock: KUMBUR_clean_sbu_0, # of connection points: 6
#     Edge 27, Type (0, 1), None
#     Edge 28, Type (0, 1), None
#     Edge 29, Type (0, 1), None
#     Edge 30, Type (0, 1), None
#     Edge 31, Type (0, 1), None
#     Edge 32, Type (0, 1), None
#     Edge 33, Type (0, 1), None
#     Edge 34, Type (0, 1), None
#     Edge 35, Type (0, 1), None
#     Edge 36, Type (0, 1), None
#     Edge 37, Type (0, 1), None
#     Edge 38, Type (0, 1), None
#     Edge 39, Type (0, 1), None
#     Edge 40, Type (0, 1), None
#     Edge 41, Type (0, 1), None
#     Edge 42, Type (0, 1), None
#     Edge 43, Type (0, 1), None
#     Edge 44, Type (0, 1), None
#     Edge 45, Type (0, 1), None
#     Edge 46, Type (0, 1), None
#     Edge 47, Type (0, 1), None
#     Edge 48, Type (0, 1), None
#     Edge 49, Type (0, 1), None
#     Edge 50, Type (0, 1), None
#     Edge 51, Type (0, 1), None
#     Edge 52, Type (0, 1), None
#     Edge 53, Type (0, 1), None
#     Edge 54, Type (0, 1), None
#     Edge 55, Type (0, 1), None
#     Edge 56, Type (0, 1), None
#     Edge 57, Type (0, 1), None
#     Edge 58, Type (0, 1), None
#     Edge 59, Type (0, 1), None
#     Edge 60, Type (0, 1), None
#     Edge 61, Type (0, 1), None
#     Edge 62, Type (0, 1), None
#     Edge 63, Type (0, 1), None
#     Edge 64, Type (0, 1), None
#     Edge 65, Type (0, 1), None
#     Edge 66, Type (0, 1), None
#     Edge 67, Type (0, 1), None
#     Edge 68, Type (0, 1), None
#     Edge 69, Type (0, 1), None
#     Edge 70, Type (0, 1), None
#     Edge 71, Type (0, 1), None
#     Edge 72, Type (0, 1), None
#     Edge 73, Type (0, 1), None
#     Edge 74, Type (0, 1), None
#     Edge 75, Type (0, 1), None
#     Edge 76, Type (0, 1), None
#     Edge 77, Type (0, 1), None
#     Edge 78, Type (0, 1), None
#     Edge 79, Type (0, 1), None
#     Edge 80, Type (0, 1), None
# Relax obj value: 0.007
# Max RMSD: 0.109
# Mean RMSD: 0.092
data_MOF--net-eea--node1-KUMBUR_clean_sbu_0--node2-VETTIZ_charged_linker_0--edge1-none
_symmetry_space_group_name_H-M    P1
_symmetry_Int_Tables_number       1
_symmetry_cell_setting            triclinic
loop_
_symmetry_equiv_pos_as_xyz
'x, y, z'
_cell_length_a     32.485855
_cell_length_b     33.955106
_cell_length_c     53.99431
_cell_angle_alpha  89.800047
_cell_angle_beta   90.134978
_cell_angle_gamma 119.4938
loop_
_atom_site_label
_atom_site_type_symbol
_atom_site_fract_x
_atom_site_fract_y
_atom_site_fract_z
_atom_type_partial_charge
C0 C 0.21169 0.20747 0.36843 0.0
C1 C 0.22849 0.2527 0.37534 0.0
C2 C 0.25614 0.26917 0.39702 0.0
C3 C 0.24777 0.1955 0.40508 0.0
C4 C 0.22235 0.1798 0.38333 0.0
C5 C 0.2091 0.13152 0.37815 0.0
H6 H 0.23798 0.9527 0.4057 0.0
C7 C 0.25185 0.15809 0.41658 0.0
C8 C 0.23031 0.12086 0.4006 0.0
H9 H 0.16388 0.96977 0.34362 0.0
H10 H 0.17813 0.04114 0.35968 0.0
H11 H 0.32323 0.05802 0.41321 0.0
H12 H 0.18386 0.9784 0.44374 0.0
H13 H 0.21613 0.01983 0.46608 0.0
H14 H 0.23412 0.97896 0.45782 0.0
H15 H 0.3042 0.00841 0.43217 0.0
H16 H 0.32521 0.06301 0.44589 0.0
C17 C 0.23292 0.1302 0.35349 0.0
C18 C 0.15442 0.10279 0.37802 0.0
C19 C 0.33 0.17898 0.50087 0.0
C20 C 0.33759 0.14972 0.5162 0.0
C21 C 0.3212 0.10477 0.5088 0.0
C22 C 0.29855 0.08939 0.48589 0.0
C23 C 0.29218 0.11933 0.47037 0.0
C24 C 0.30677 0.16297 0.4782 0.0
C25 C 0.29569 0.18953 0.45959 0.0
C26 C 0.27172 0.15447 0.43937 0.0
C27 C 0.27061 0.11379 0.44563 0.0
C28 C 0.34289 0.23026 0.45065 0.0
C29 C 0.26126 0.20284 0.47185 0.0
C30 C 0.22552 0.97218 0.39535 0.0
C31 C 0.20238 0.9568 0.37246 0.0
C32 C 0.1842 0.98188 0.36043 0.0
C33 C 0.19183 0.02311 0.37002 0.0
C34 C 0.21659 0.03884 0.39237 0.0
C35 C 0.23152 0.0128 0.40512 0.0
C36 C 0.25293 0.03297 0.42982 0.0
C37 C 0.25177 0.07715 0.42873 0.0
C38 C 0.23087 0.08044 0.40661 0.0
C39 C 0.30411 0.04099 0.43051 0.0
C40 C 0.22047 0.00099 0.45053 0.0
H41 H 0.28622 0.25524 0.42835 0.0
H42 H 0.19039 0.19365 0.35197 0.0
H43 H 0.13891 0.11382 0.39301 0.0
H44 H 0.14153 0.06654 0.38163 0.0
H45 H 0.13955 0.10639 0.36014 0.0
H46 H 0.26469 0.16335 0.34932 0.0
H47 H 0.20826 0.12174 0.33761 0.0
H48 H 0.24628 0.1059 0.35402 0.0
H49 H 0.34253 0.21376 0.50628 0.0
H50 H 0.32715 0.082 0.52046 0.0
H51 H 0.28766 0.05509 0.48093 0.0
H52 H 0.37267 0.22299 0.4522 0.0
H53 H 0.35232 0.26098 0.46181 0.0
H54 H 0.34207 0.23812 0.43082 0.0
H55 H 0.23315 0.17367 0.48225 0.0
H56 H 0.24245 0.21275 0.45836 0.0
H57 H 0.28023 0.23104 0.48515 0.0
H58 H 0.26977 0.30387 0.40284 0.0
C59 C 0.26559 0.24081 0.41195 0.0
C60 C 0.03444 0.20046 0.36931 0.0
C61 C 0.0598 0.24769 0.37277 0.0
C62 C 0.04083 0.26734 0.38885 0.0
C63 C 0.97733 0.19355 0.40052 0.0
C64 C 0.99204 0.17437 0.3825 0.0
C65 C 0.95824 0.12423 0.38012 0.0
H66 H 0.74401 0.94913 0.40985 0.0
C67 C 0.93644 0.15701 0.41365 0.0
C68 C 0.92387 0.11651 0.40113 0.0
H69 H 0.83685 0.95759 0.35038 0.0
H70 H 0.89796 0.02919 0.36591 0.0
H71 H 0.82341 0.97563 0.44907 0.0
H72 H 0.7672 0.05335 0.41527 0.0
H73 H 0.76978 0.05902 0.44807 0.0
H74 H 0.73607 0.00412 0.43464 0.0
H75 H 0.77968 0.98386 0.46453 0.0
H76 H 0.84206 0.02282 0.46866 0.0
C77 C 0.98557 0.0983 0.38466 0.0
C78 C 0.93374 0.11498 0.35442 0.0
C79 C 0.88178 0.1868 0.49656 0.0
C80 C 0.84836 0.15769 0.51401 0.0
C81 C 0.82203 0.11109 0.50891 0.0
C82 C 0.82783 0.09382 0.48646 0.0
C83 C 0.86065 0.12332 0.46903 0.0
C84 C 0.88794 0.1688 0.47441 0.0
C85 C 0.92289 0.19437 0.45404 0.0
C86 C 0.91298 0.15624 0.43605 0.0
C87 C 0.87552 0.11515 0.4447 0.0
C88 C 0.9733 0.21572 0.46506 0.0
C89 C 0.9106 0.22934 0.44272 0.0
C90 C 0.77718 0.96674 0.39991 0.0
C91 C 0.78419 0.94924 0.37772 0.0
C92 C 0.82916 0.97169 0.36643 0.0
C93 C 0.86481 0.01312 0.37555 0.0
C94 C 0.85586 0.03182 0.39656 0.0
C95 C 0.81365 0.00764 0.40916 0.0
C96 C 0.81299 0.03057 0.43285 0.0
C97 C 0.8588 0.07535 0.43029 0.0
C98 C 0.88364 0.07579 0.40898 0.0
C99 C 0.81441 0.00185 0.45496 0.0
C100 C 0.76913 0.03714 0.43284 0.0
H101 H 0.98922 0.25756 0.41584 0.0
H102 H 0.0484 0.18398 0.35765 0.0
H103 H 0.93945 0.1466 0.34524 0.0
H104 H 0.89479 0.09397 0.35574 0.0
H105 H 0.94692 0.09789 0.34183 0.0
H106 H 0.00872 0.11185 0.40124 0.0
H107 H 1.00833 0.10176 0.36853 0.0
H108 H 0.96173 0.06191 0.38828 0.0
H109 H 0.9026 0.22277 0.50011 0.0
H110 H 0.79588 0.08823 0.52201 0.0
H111 H 0.80602 0.05828 0.48333 0.0
H112 H 0.97837 0.18968 0.47501 0.0
H113 H 0.97936 0.2428 0.47847 0.0
H114 H 1.00126 0.23061 0.4509 0.0
H115 H 0.87284 0.21935 0.4458 0.0
H116 H 0.91497 0.23195 0.42235 0.0
H117 H 0.93247 0.26335 0.45103 0.0
H118 H 0.0599 0.30318 0.39233 0.0
C119 C 1.00027 0.24066 0.40294 0.0
C120 C 0.02318 0.81104 0.36939 0.0
C121 C 0.05312 0.7919 0.37296 0.0
C122 C 0.03605 0.75261 0.38769 0.0
C123 C 0.96542 0.75645 0.39811 0.0
C124 C 0.97823 0.79116 0.38118 0.0
C125 C 0.9392 0.8036 0.37866 0.0
H126 H 0.70491 0.73114 0.40171 0.0
C127 C 0.92026 0.7467 0.40998 0.0
C128 C 0.90255 0.77176 0.3975 0.0
H129 H 0.79689 0.84599 0.35709 0.0
H130 H 0.86424 0.83695 0.36856 0.0
H131 H 0.75026 0.6628 0.40572 0.0
H132 H 0.77405 0.78359 0.44272 0.0
H133 H 0.80085 0.761 0.46215 0.0
H134 H 0.73787 0.72935 0.45642 0.0
H135 H 0.70864 0.67075 0.42399 0.0
H136 H 0.74965 0.65718 0.43861 0.0
C137 C 0.92001 0.79381 0.35197 0.0
C138 C 0.95904 0.85354 0.38601 0.0
C139 C 0.87518 0.66509 0.4935 0.0
C140 C 0.83833 0.65572 0.51036 0.0
C141 C 0.8031 0.66637 0.50349 0.0
C142 C 0.80418 0.68551 0.48018 0.0
C143 C 0.84149 0.69524 0.46368 0.0
C144 C 0.87652 0.68548 0.47053 0.0
C145 C 0.91377 0.6988 0.45064 0.0
C146 C 0.89718 0.72156 0.4317 0.0
C147 C 0.85413 0.718 0.43914 0.0
C148 C 0.9116 0.65525 0.44021 0.0
C149 C 0.96237 0.73243 0.46187 0.0
C150 C 0.73902 0.75303 0.39337 0.0
C151 C 0.74389 0.78514 0.37529 0.0
C152 C 0.79046 0.81688 0.3679 0.0
C153 C 0.82982 0.81227 0.37514 0.0
C154 C 0.82335 0.77761 0.39171 0.0
C155 C 0.77905 0.75142 0.40208 0.0
C156 C 0.78144 0.72784 0.42525 0.0
C157 C 0.83216 0.73692 0.42415 0.0
C158 C 0.85683 0.76546 0.40408 0.0
C159 C 0.74548 0.6768 0.42339 0.0
C160 C 0.77297 0.75131 0.44783 0.0
H161 H 0.98316 0.70659 0.41224 0.0
H162 H 0.03517 0.84157 0.35852 0.0
H163 H 0.97763 0.86037 0.40414 0.0
H164 H 0.9308 0.86244 0.38808 0.0
H165 H 0.98469 0.87646 0.37198 0.0
H166 H 0.91579 0.761 0.34543 0.0
H167 H 0.94448 0.8211 0.33932 0.0
H168 H 0.88498 0.79114 0.35021 0.0
H169 H 0.90242 0.65672 0.49817 0.0
H170 H 0.7739 0.6586 0.5159 0.0
H171 H 0.77548 0.69129 0.47569 0.0
H172 H 0.87935 0.624 0.44634 0.0
H173 H 0.94254 0.65209 0.44629 0.0
H174 H 0.90993 0.6543 0.41967 0.0
H175 H 0.96121 0.76174 0.47025 0.0
H176 H 0.99097 0.746 0.448 0.0
H177 H 0.97248 0.71582 0.47658 0.0
H178 H 0.05808 0.73742 0.39103 0.0
C179 C 0.99294 0.73521 0.4004 0.0
C180 C 0.2264 0.19717 0.6588 0.0
C181 C 0.27547 0.21867 0.65247 0.0
C182 C 0.29015 0.24804 0.63173 0.0
C183 C 0.21081 0.23385 0.62374 0.0
C184 C 0.19501 0.20687 0.64467 0.0
C185 C 0.1428 0.19202 0.64914 0.0
H186 H 0.97578 0.25594 0.62898 0.0
C187 C 0.17166 0.23837 0.61262 0.0
C188 C 0.13171 0.216 0.62805 0.0
H189 H 0.95296 0.14311 0.67466 0.0
H190 H 0.02946 0.15212 0.66143 0.0
H191 H 0.08934 0.32258 0.62156 0.0
H192 H 0.98393 0.19891 0.58842 0.0
H193 H 0.02975 0.22246 0.56651 0.0
H194 H 0.99882 0.25248 0.57503 0.0
H195 H 0.03785 0.31445 0.60474 0.0
H196 H 0.09096 0.32671 0.58869 0.0
C197 C 0.13707 0.20831 0.67474 0.0
C198 C 0.11359 0.14022 0.64661 0.0
C199 C 0.19811 0.3196 0.52945 0.0
C200 C 0.16941 0.33047 0.51467 0.0
C201 C 0.12392 0.31902 0.52313 0.0
C202 C 0.10743 0.29751 0.54617 0.0
C203 C 0.13654 0.2869 0.56087 0.0
C204 C 0.18082 0.29744 0.55226 0.0
C205 C 0.20725 0.28458 0.57057 0.0
C206 C 0.16999 0.26112 0.59071 0.0
C207 C 0.12941 0.26397 0.58527 0.0
C208 C 0.25051 0.32896 0.57999 0.0
C209 C 0.22019 0.25151 0.55764 0.0
C210 C 0.9877 0.2342 0.63722 0.0
C211 C 0.96096 0.20297 0.65592 0.0
C212 C 0.97562 0.17164 0.66321 0.0
C213 C 0.01938 0.17616 0.65495 0.0
C214 C 0.04683 0.20985 0.6374 0.0
C215 C 0.028 0.23506 0.62739 0.0
C216 C 0.05061 0.25651 0.60316 0.0
C217 C 0.09132 0.24671 0.60238 0.0
C218 C 0.09068 0.22066 0.62302 0.0
C219 C 0.06811 0.30786 0.60447 0.0
C220 C 0.01409 0.23169 0.58214 0.0
H221 H 0.27302 0.27624 0.60158 0.0
H222 H 0.21278 0.17385 0.67412 0.0
H223 H 0.12146 0.12919 0.62871 0.0
H224 H 0.07522 0.1281 0.64698 0.0
H225 H 0.12208 0.12326 0.66184 0.0
H226 H 0.16299 0.2448 0.67729 0.0
H227 H 0.14274 0.18863 0.68934 0.0
H228 H 0.1014 0.20381 0.67751 0.0
H229 H 0.23362 0.3289 0.52356 0.0
H230 H 0.10167 0.32792 0.5122 0.0
H231 H 0.07317 0.29109 0.55193 0.0
H232 H 0.2477 0.35954 0.57542 0.0
H233 H 0.28401 0.334 0.57166 0.0
H234 H 0.25366 0.32958 0.60046 0.0
H235 H 0.18902 0.22482 0.5476 0.0
H236 H 0.23134 0.23348 0.5707 0.0
H237 H 0.249 0.26964 0.54395 0.0
H238 H 0.32678 0.2659 0.6259 0.0
C239 C 0.25856 0.25468 0.61733 0.0
C240 C 0.80106 0.7838 0.66075 0.0
C241 C 0.78702 0.73981 0.65237 0.0
C242 C 0.7606 0.72458 0.63025 0.0
C243 C 0.76458 0.79702 0.62468 0.0
C244 C 0.78888 0.81149 0.64682 0.0
C245 C 0.79946 0.8586 0.65337 0.0
H246 H 0.77438 0.04002 0.62587 0.0
C247 C 0.7591 0.83433 0.61419 0.0
C248 C 0.77888 0.87035 0.63106 0.0
H249 H 0.84117 0.01973 0.69027 0.0
H250 H 0.82612 0.94769 0.67436 0.0
H251 H 0.82737 0.01223 0.58899 0.0
H252 H 0.68726 0.93632 0.61929 0.0
H253 H 0.68449 0.92886 0.58687 0.0
H254 H 0.70659 0.98466 0.5993 0.0
H255 H 0.77852 0.01542 0.57566 0.0
H256 H 0.79341 0.97299 0.56608 0.0
C257 C 0.85383 0.8892 0.65502 0.0
C258 C 0.77274 0.85589 0.67763 0.0
C259 C 0.681 0.81626 0.53011 0.0
C260 C 0.67245 0.84567 0.51544 0.0
C261 C 0.68833 0.8902 0.52343 0.0
C262 C 0.71126 0.90494 0.54632 0.0
C263 C 0.71845 0.87478 0.56124 0.0
C264 C 0.70446 0.83163 0.55277 0.0
C265 C 0.71658 0.80484 0.5707 0.0
C266 C 0.73964 0.83886 0.59147 0.0
C267 C 0.73997 0.87941 0.58595 0.0
C268 C 0.75207 0.7936 0.55778 0.0
C269 C 0.66996 0.76286 0.57915 0.0
C270 C 0.78523 0.01994 0.63684 0.0
C271 C 0.80723 0.03497 0.66002 0.0
C272 C 0.82228 0.00824 0.67302 0.0
C273 C 0.81405 0.96659 0.66354 0.0
C274 C 0.79128 0.95184 0.64054 0.0
C275 C 0.77811 0.97883 0.62741 0.0
C276 C 0.75721 0.95937 0.60258 0.0
C277 C 0.75776 0.91501 0.6035 0.0
C278 C 0.77752 0.91067 0.62582 0.0
C279 C 0.79044 0.99158 0.58216 0.0
C280 C 0.70624 0.95198 0.60173 0.0
H281 H 0.72997 0.73946 0.59956 0.0
H282 H 0.82151 0.7967 0.67754 0.0
H283 H 0.73889 0.82334 0.67891 0.0
H284 H 0.76227 0.88221 0.67883 0.0
H285 H 0.79422 0.85824 0.69416 0.0
H286 H 0.87177 0.8804 0.64027 0.0
H287 H 0.86749 0.88507 0.67317 0.0
H288 H 0.8654 0.92537 0.65208 0.0
H289 H 0.66905 0.78183 0.5242 0.0
H290 H 0.68176 0.91311 0.51225 0.0
H291 H 0.72174 0.93896 0.55171 0.0
H292 H 0.77833 0.82306 0.5468 0.0
H293 H 0.73355 0.76462 0.5449 0.0
H294 H 0.7733 0.78599 0.57091 0.0
H295 H 0.63995 0.76994 0.57894 0.0
H296 H 0.67152 0.75285 0.59848 0.0
H297 H 0.6604 0.73352 0.56678 0.0
H298 H 0.7493 0.69094 0.62322 0.0
C299 C 0.74954 0.75294 0.61636 0.0
C300 C 0.98054 0.79302 0.65787 0.0
C301 C 0.95621 0.74587 0.65403 0.0
C302 C 0.97677 0.72705 0.63846 0.0
C303 C 0.04022 0.80164 0.6279 0.0
C304 C 0.02368 0.81997 0.64548 0.0
C305 C 0.05665 0.8702 0.6484 0.0
H306 H 0.27059 0.04854 0.62192 0.0
C307 C 0.08164 0.83894 0.61553 0.0
C308 C 0.09253 0.87902 0.62806 0.0
H309 H 0.17423 0.03706 0.68017 0.0
H310 H 0.11471 0.96535 0.66367 0.0
H311 H 0.25025 0.94532 0.61679 0.0
H312 H 0.19323 0.02101 0.58131 0.0
H313 H 0.17739 0.9744 0.56163 0.0
H314 H 0.23906 0.01458 0.56694 0.0
H315 H 0.28173 0.995 0.59778 0.0
H316 H 0.24993 0.94024 0.58398 0.0
C317 C 0.07966 0.8791 0.67445 0.0
C318 C 0.02893 0.89558 0.64335 0.0
C319 C 0.14334 0.81169 0.53431 0.0
C320 C 0.17722 0.84138 0.51728 0.0
C321 C 0.20232 0.88799 0.52245 0.0
C322 C 0.19471 0.90477 0.54465 0.0
C323 C 0.16128 0.8747 0.56168 0.0
C324 C 0.1353 0.82915 0.55615 0.0
C325 C 0.09913 0.80289 0.57586 0.0
C326 C 0.10691 0.8406 0.59369 0.0
C327 C 0.14432 0.88218 0.58557 0.0
C328 C 0.11155 0.76847 0.58782 0.0
C329 C 0.04954 0.78086 0.56378 0.0
C330 C 0.237 0.03033 0.6314 0.0
C331 C 0.22845 0.04707 0.65347 0.0
C332 C 0.183 0.02368 0.66417 0.0
C333 C 0.14834 0.98217 0.65449 0.0
C334 C 0.1589 0.96426 0.63362 0.0
C335 C 0.20167 0.98931 0.62167 0.0
C336 C 0.20448 0.96702 0.59815 0.0
C337 C 0.15919 0.92169 0.60005 0.0
C338 C 0.13272 0.92034 0.62086 0.0
C339 C 0.24902 0.96159 0.5991 0.0
C340 C 0.20371 0.99563 0.57581 0.0
H341 H 0.0307 0.73835 0.61267 0.0
H342 H 0.9654 0.80872 0.66931 0.0
H343 H 1.00692 0.88224 0.62637 0.0
H344 H 0.05253 0.93215 0.64013 0.0
H345 H 1.00502 0.89131 0.65905 0.0
H346 H 0.07531 0.84761 0.68314 0.0
H347 H 0.06427 0.89424 0.68701 0.0
H348 H 0.11845 0.90165 0.67388 0.0
H349 H 0.12349 0.7757 0.53064 0.0
H350 H 0.22873 0.91126 0.50959 0.0
H351 H 0.21554 0.94039 0.54789 0.0
H352 H 0.14966 0.77914 0.58554 0.0
H353 H 0.0908 0.73443 0.57935 0.0
H354 H 0.10577 0.76562 0.6081 0.0
H355 H 0.04476 0.80655 0.55326 0.0
H356 H 0.02053 0.76577 0.57735 0.0
H357 H 0.04491 0.75384 0.55066 0.0
H358 H 0.9586 0.69113 0.63491 0.0
C359 C 0.0182 0.75459 0.62518 0.0
C360 C 0.87836 0.54081 0.70177 0.0
C361 C 0.89515 0.58603 0.70868 0.0
C362 C 0.92281 0.6025 0.73035 0.0
C363 C 0.91444 0.52884 0.73842 0.0
C364 C 0.88901 0.51314 0.71667 0.0
C365 C 0.87576 0.46486 0.71149 0.0
H366 H 0.90465 0.28604 0.73903 0.0
C367 C 0.91852 0.49143 0.74991 0.0
C368 C 0.89697 0.4542 0.73393 0.0
H369 H 0.83055 0.30311 0.67695 0.0
H370 H 0.8448 0.37449 0.69301 0.0
H371 H 0.98989 0.39136 0.74655 0.0
H372 H 0.85052 0.31174 0.77707 0.0
H373 H 0.88279 0.35316 0.79941 0.0
H374 H 0.90078 0.3123 0.79116 0.0
H375 H 0.97086 0.34174 0.7655 0.0
H376 H 0.99187 0.39635 0.77923 0.0
C377 C 0.89957 0.46353 0.68682 0.0
C378 C 0.82107 0.43613 0.71136 0.0
C379 C 0.99667 0.51232 0.8342 0.0
C380 C 1.00426 0.48305 0.84953 0.0
C381 C 0.98786 0.4381 0.84213 0.0
C382 C 0.9652 0.42272 0.81922 0.0
C383 C 0.95884 0.45266 0.80371 0.0
C384 C 0.97344 0.49631 0.81153 0.0
C385 C 0.96235 0.52286 0.79292 0.0
C386 C 0.93839 0.48781 0.7727 0.0
C387 C 0.93727 0.44712 0.77897 0.0
C388 C 0.00956 0.5636 0.78399 0.0
C389 C 0.92793 0.53618 0.80518 0.0
C390 C 0.89219 0.30551 0.72869 0.0
C391 C 0.86905 0.29014 0.70579 0.0
C392 C 0.85087 0.31522 0.69376 0.0
C393 C 0.8585 0.35645 0.70336 0.0
C394 C 0.88326 0.37217 0.7257 0.0
C395 C 0.89818 0.34614 0.73845 0.0
C396 C 0.91959 0.36631 0.76315 0.0
C397 C 0.91843 0.41049 0.76206 0.0
C398 C 0.89754 0.41378 0.73994 0.0
C399 C 0.97077 0.37432 0.76384 0.0
C400 C 0.88713 0.33432 0.78386 0.0
H401 H 0.95288 0.58858 0.76168 0.0
H402 H 0.85705 0.52699 0.68531 0.0
H403 H 0.80558 0.44715 0.72636 0.0
H404 H 0.80819 0.39987 0.71495 0.0
H405 H 0.80621 0.43974 0.69348 0.0
H406 H 0.93132 0.49669 0.68264 0.0
H407 H 0.87489 0.45503 0.67094 0.0
H408 H 0.91297 0.43926 0.68736 0.0
H409 H 0.00919 0.5471 0.83961 0.0
H410 H 0.99381 0.41534 0.85379 0.0
H411 H 0.95431 0.38842 0.81427 0.0
H412 H 0.03934 0.55633 0.78553 0.0
H413 H 0.01899 0.59432 0.79514 0.0
H414 H 0.00874 0.57146 0.76415 0.0
H415 H 0.89981 0.50701 0.81558 0.0
H416 H 0.90912 0.5461 0.79169 0.0
H417 H 0.9469 0.56438 0.81849 0.0
H418 H 0.93644 0.63721 0.73617 0.0
C419 C 0.93226 0.57415 0.74528 0.0
C420 C 0.7011 0.5338 0.70265 0.0
C421 C 0.72646 0.58103 0.7061 0.0
C422 C 0.7075 0.60068 0.72218 0.0
C423 C 0.64399 0.52689 0.73385 0.0
C424 C 0.65871 0.50771 0.71583 0.0
C425 C 0.62491 0.45757 0.71345 0.0
H426 H 0.41068 0.28247 0.74318 0.0
C427 C 0.60311 0.49035 0.74698 0.0
C428 C 0.59053 0.44985 0.73446 0.0
H429 H 0.50352 0.29093 0.68371 0.0
H430 H 0.56463 0.36253 0.69924 0.0
H431 H 0.49008 0.30897 0.7824 0.0
H432 H 0.43386 0.38668 0.7486 0.0
H433 H 0.43644 0.39235 0.78141 0.0
H434 H 0.40273 0.33745 0.76798 0.0
H435 H 0.44635 0.31719 0.79786 0.0
H436 H 0.50873 0.35616 0.80199 0.0
C437 C 0.65224 0.43164 0.71799 0.0
C438 C 0.60041 0.44832 0.68775 0.0
C439 C 0.54844 0.52014 0.82989 0.0
C440 C 0.51503 0.49103 0.84734 0.0
C441 C 0.48869 0.44443 0.84224 0.0
C442 C 0.49449 0.42716 0.81979 0.0
C443 C 0.52732 0.45666 0.80236 0.0
C444 C 0.55461 0.50213 0.80774 0.0
C445 C 0.58955 0.52771 0.78738 0.0
C446 C 0.57964 0.48958 0.76938 0.0
C447 C 0.54218 0.44848 0.77803 0.0
C448 C 0.63997 0.54906 0.79839 0.0
C449 C 0.57726 0.56268 0.77605 0.0
C450 C 0.44384 0.30007 0.73325 0.0
C451 C 0.45086 0.28258 0.71106 0.0
C452 C 0.49582 0.30503 0.69976 0.0
C453 C 0.53147 0.34646 0.70888 0.0
C454 C 0.52253 0.36516 0.7299 0.0
C455 C 0.48032 0.34098 0.74249 0.0
C456 C 0.47966 0.36391 0.76618 0.0
C457 C 0.52547 0.40869 0.76362 0.0
C458 C 0.5503 0.40913 0.74231 0.0
C459 C 0.48108 0.33519 0.7883 0.0
C460 C 0.43579 0.37047 0.76617 0.0
H461 H 0.65588 0.5909 0.74917 0.0
H462 H 0.71507 0.51732 0.69099 0.0
H463 H 0.60612 0.47994 0.67858 0.0
H464 H 0.56146 0.42731 0.68907 0.0
H465 H 0.61358 0.43123 0.67516 0.0
H466 H 0.67539 0.44519 0.73457 0.0
H467 H 0.67499 0.4351 0.70186 0.0
H468 H 0.6284 0.39525 0.72161 0.0
H469 H 0.56926 0.55611 0.83345 0.0
H470 H 0.46254 0.42157 0.85534 0.0
H471 H 0.47268 0.39162 0.81666 0.0
H472 H 0.64503 0.52302 0.80835 0.0
H473 H 0.64602 0.57614 0.8118 0.0
H474 H 0.66792 0.56395 0.78423 0.0
H475 H 0.5395 0.55269 0.77913 0.0
H476 H 0.58164 0.56529 0.75568 0.0
H477 H 0.59913 0.59669 0.78436 0.0
H478 H 0.72657 0.63652 0.72566 0.0
C479 C 0.66694 0.574 0.73627 0.0
C480 C 0.68985 0.14438 0.70272 0.0
C481 C 0.71979 0.12524 0.70629 0.0
C482 C 0.70272 0.08595 0.72102 0.0
C483 C 0.63209 0.08979 0.73145 0.0
C484 C 0.6449 0.1245 0.71452 0.0
C485 C 0.60587 0.13694 0.71199 0.0
H486 H 0.37158 0.06447 0.73505 0.0
C487 C 0.58693 0.08004 0.74331 0.0
C488 C 0.56921 0.10509 0.73083 0.0
H489 H 0.46356 0.17933 0.69042 0.0
H490 H 0.53091 0.17028 0.70189 0.0
H491 H 0.41693 0.99614 0.73905 0.0
H492 H 0.44072 0.11692 0.77605 0.0
H493 H 0.46752 0.09433 0.79548 0.0
H494 H 0.40454 0.06268 0.78976 0.0
H495 H 0.37531 0.00409 0.75733 0.0
H496 H 0.41632 0.99052 0.77194 0.0
C497 C 0.58668 0.12715 0.6853 0.0
C498 C 0.6257 0.18688 0.71935 0.0
C499 C 0.54185 -0.00158 0.82684 0.0
C500 C 0.505 0.98905 0.84369 0.0
C501 C 0.46977 -0.00029 0.83682 0.0
C502 C 0.47085 0.01885 0.81352 0.0
C503 C 0.50815 0.02857 0.79701 0.0
C504 C 0.54319 0.01881 0.80386 0.0
C505 C 0.58044 0.03214 0.78397 0.0
C506 C 0.56385 0.0549 0.76504 0.0
C507 C 0.52079 0.05134 0.77247 0.0
C508 C 0.57827 0.98859 0.77354 0.0
C509 C 0.62904 0.06577 0.7952 0.0
C510 C 0.40569 0.08637 0.7267 0.0
C511 C 0.41056 0.11847 0.70862 0.0
C512 C 0.45713 0.15022 0.70124 0.0
C513 C 0.49648 0.1456 0.70847 0.0
C514 C 0.49002 0.11095 0.72504 0.0
C515 C 0.44572 0.08476 0.73541 0.0
C516 C 0.44811 0.06118 0.75858 0.0
C517 C 0.49883 0.07025 0.75749 0.0
C518 C 0.5235 0.0988 0.73742 0.0
C519 C 0.41215 0.01013 0.75673 0.0
C520 C 0.43964 0.08464 0.78116 0.0
H521 H 0.64984 0.03993 0.74557 0.0
H522 H 0.70184 0.17491 0.69186 0.0
H523 H 0.6443 0.19371 0.73747 0.0
H524 H 0.59747 0.19578 0.72141 0.0
H525 H 0.65135 0.2098 0.70531 0.0
H526 H 0.58246 0.09434 0.67876 0.0
H527 H 0.61115 0.15445 0.67266 0.0
H528 H 0.55165 0.12448 0.68355 0.0
H529 H 0.56908 0.99005 0.8315 0.0
H530 H 0.44057 0.99193 0.84924 0.0
H531 H 0.44215 0.02462 0.80903 0.0
H532 H 0.54602 0.95733 0.77968 0.0
H533 H 0.60921 0.98542 0.77962 0.0
H534 H 0.5766 0.98764 0.75301 0.0
H535 H 0.62787 0.09508 0.80359 0.0
H536 H 0.65764 0.07934 0.78134 0.0
H537 H 0.63915 0.04916 0.80991 0.0
H538 H 0.72475 0.07076 0.72437 0.0
C539 C 0.65961 0.06856 0.73374 0.0
C540 C 0.89307 0.5305 0.99213 0.0
C541 C 0.94214 0.552 0.98581 0.0
C542 C 0.95682 0.58137 0.96507 0.0
C543 C 0.87748 0.56719 0.95707 0.0
C544 C 0.86168 0.54021 0.97801 0.0
C545 C 0.80946 0.52535 0.98248 0.0
H546 H 0.64244 0.58927 0.96231 0.0
C547 C 0.83833 0.5717 0.94595 0.0
C548 C 0.79838 0.54933 0.96139 0.0
H549 H 0.61963 0.47644 1.00799 0.0
H550 H 0.69612 0.48545 0.99476 0.0
H551 H 0.75601 0.65591 0.95489 0.0
H552 H 0.6506 0.53224 0.92175 0.0
H553 H 0.69642 0.55579 0.89984 0.0
H554 H 0.66549 0.58581 0.90836 0.0
H555 H 0.70452 0.64778 0.93808 0.0
H556 H 0.75762 0.66004 0.92202 0.0
C557 C 0.80374 0.54164 1.00807 0.0
C558 C 0.78025 0.47355 0.97994 0.0
C559 C 0.86479 0.65293 0.86279 0.0
C560 C 0.83608 0.6638 0.84801 0.0
C561 C 0.79059 0.65235 0.85646 0.0
C562 C 0.7741 0.63084 0.8795 0.0
C563 C 0.80321 0.62023 0.8942 0.0
C564 C 0.84749 0.63078 0.8856 0.0
C565 C 0.87392 0.61792 0.90391 0.0
C566 C 0.83666 0.59445 0.92405 0.0
C567 C 0.79608 0.5973 0.9186 0.0
C568 C 0.91718 0.6623 0.91332 0.0
C569 C 0.88687 0.58485 0.89098 0.0
C570 C 0.65437 0.56753 0.97055 0.0
C571 C 0.62763 0.5363 0.98925 0.0
C572 C 0.64229 0.50497 0.99654 0.0
C573 C 0.68605 0.50949 0.98829 0.0
C574 C 0.71349 0.54318 0.97074 0.0
C575 C 0.69467 0.56839 0.96072 0.0
C576 C 0.71727 0.58984 0.9365 0.0
C577 C 0.75799 0.58004 0.93571 0.0
C578 C 0.75735 0.55399 0.95636 0.0
C579 C 0.73478 0.64119 0.9378 0.0
C580 C 0.68076 0.56502 0.91547 0.0
H581 H 0.93969 0.60958 0.93492 0.0
H582 H 0.87944 0.50718 1.00745 0.0
H583 H 0.78813 0.46252 0.96205 0.0
H584 H 0.74189 0.46143 0.98031 0.0
H585 H 0.78874 0.45659 0.99517 0.0
H586 H 0.82965 0.57812 1.01063 0.0
H587 H 0.8094 0.52196 0.02267 0.0
H588 H 0.76807 0.53714 1.01084 0.0
H589 H 0.90029 0.66224 0.8569 0.0
H590 H 0.76834 0.66125 0.84553 0.0
H591 H 0.73983 0.62442 0.88526 0.0
H592 H 0.91437 0.69288 0.90876 0.0
H593 H 0.95068 0.66734 0.905 0.0
H594 H 0.92032 0.66291 0.9338 0.0
H595 H 0.8557 0.55816 0.88093 0.0
H596 H 0.89802 0.56682 0.90404 0.0
H597 H 0.91567 0.60298 0.87728 0.0
H598 H 0.99345 0.59923 0.95924 0.0
C599 C 0.92522 0.58802 0.95066 0.0
C600 C 0.46772 0.11713 0.99408 0.0
C601 C 0.45368 0.07314 0.9857 0.0
C602 C 0.42726 0.05791 0.96358 0.0
C603 C 0.43124 0.13035 0.95801 0.0
C604 C 0.45554 0.14482 0.98016 0.0
C605 C 0.46613 0.19193 0.9867 0.0
H606 H 0.44105 0.37336 0.9592 0.0
C607 C 0.42576 0.16766 0.94753 0.0
C608 C 0.44554 0.20368 0.9644 0.0
H609 H 0.50783 0.35305 0.02361 0.0
H610 H 0.49277 0.28102 1.0077 0.0
H611 H 0.49404 0.34556 0.92232 0.0
H612 H 0.35393 0.26966 0.95262 0.0
H613 H 0.35116 0.2622 0.9202 0.0
H614 H 0.37326 0.31799 0.93263 0.0
H615 H 0.4452 0.34875 0.90899 0.0
H616 H 0.46008 0.30632 0.89941 0.0
C617 C 0.52049 0.22253 0.98835 0.0
C618 C 0.4394 0.18921 1.01097 0.0
C619 C 0.34767 0.14959 0.86344 0.0
C620 C 0.33912 0.179 0.84877 0.0
C621 C 0.355 0.22354 0.85676 0.0
C622 C 0.37793 0.23828 0.87965 0.0
C623 C 0.38511 0.20811 0.89457 0.0
C624 C 0.37113 0.16497 0.8861 0.0
C625 C 0.38324 0.13817 0.90403 0.0
C626 C 0.40631 0.17219 0.9248 0.0
C627 C 0.40663 0.21275 0.91928 0.0
C628 C 0.41873 0.12693 0.89112 0.0
C629 C 0.33662 0.09619 0.91248 0.0
C630 C 0.4519 0.35327 0.97017 0.0
C631 C 0.4739 0.3683 0.99336 0.0
C632 C 0.48894 0.34157 1.00635 0.0
C633 C 0.48071 0.29992 0.99687 0.0
C634 C 0.45794 0.28517 0.97388 0.0
C635 C 0.44478 0.31216 0.96075 0.0
C636 C 0.42388 0.2927 0.93591 0.0
C637 C 0.42443 0.24834 0.93683 0.0
C638 C 0.44418 0.244 0.95915 0.0
C639 C 0.45711 0.32491 0.91549 0.0
C640 C 0.3729 0.28532 0.93506 0.0
H641 H 0.39663 0.07279 0.9329 0.0
H642 H 0.48817 0.13003 1.01087 0.0
H643 H 0.40556 0.15666 1.01225 0.0
H644 H 0.42893 0.21553 1.01216 0.0
H645 H 0.46088 0.19158 0.02749 0.0
H646 H 0.53843 0.21373 0.97361 0.0
H647 H 0.53415 0.21839 1.0065 0.0
H648 H 0.53206 0.2587 0.98542 0.0
H649 H 0.33572 0.11516 0.85753 0.0
H650 H 0.34843 0.24645 0.84559 0.0
H651 H 0.38841 0.2723 0.88505 0.0
H652 H 0.44499 0.15639 0.88013 0.0
H653 H 0.40021 0.09795 0.87823 0.0
H654 H 0.43997 0.11932 0.90424 0.0
H655 H 0.30662 0.10327 0.91228 0.0
H656 H 0.33818 0.08619 0.93182 0.0
H657 H 0.32706 0.06686 0.90011 0.0
H658 H 0.41596 0.02427 0.95656 0.0
C659 C 0.4162 0.08627 0.94969 0.0
C660 C 0.6472 0.12635 0.9912 0.0
C661 C 0.62287 0.0792 0.98736 0.0
C662 C 0.64344 0.06038 0.9718 0.0
C663 C 0.70688 0.13497 0.96124 0.0
C664 C 0.69034 0.1533 0.97882 0.0
C665 C 0.72332 0.20353 0.98173 0.0
H666 H 0.93726 0.38186 0.95525 0.0
C667 C 0.7483 0.17227 0.94886 0.0
C668 C 0.75919 0.21235 0.96139 0.0
H669 H 0.8409 0.37039 1.0135 0.0
H670 H 0.78137 0.29868 0.997 0.0
H671 H 0.91692 0.27865 0.95013 0.0
H672 H 0.85989 0.35434 0.91464 0.0
H673 H 0.84405 0.30773 0.89496 0.0
H674 H 0.90573 0.34791 0.90028 0.0
H675 H 0.94839 0.32833 0.93111 0.0
H676 H 0.9166 0.27357 0.91732 0.0
C677 C 0.74632 0.21243 1.00778 0.0
C678 C 0.6956 0.22891 0.97668 0.0
C679 C 0.81 0.14501 0.86765 0.0
C680 C 0.84388 0.17471 0.85061 0.0
C681 C 0.86898 0.22132 0.85579 0.0
C682 C 0.86138 0.2381 0.87798 0.0
C683 C 0.82794 0.20802 0.89501 0.0
C684 C 0.80196 0.16248 0.88948 0.0
C685 C 0.76579 0.13622 0.9092 0.0
C686 C 0.77357 0.17392 0.92703 0.0
C687 C 0.81098 0.21551 0.9189 0.0
C688 C 0.77821 0.10179 0.92115 0.0
C689 C 0.7162 0.11419 0.89712 0.0
C690 C 0.90366 0.36366 0.96473 0.0
C691 C 0.89512 0.3804 0.98681 0.0
C692 C 0.84967 0.35701 0.9975 0.0
C693 C 0.81501 0.3155 0.98783 0.0
C694 C 0.82556 0.29759 0.96695 0.0
C695 C 0.86834 0.32264 0.955 0.0
C696 C 0.87114 0.30035 0.93149 0.0
C697 C 0.82585 0.25501 0.93339 0.0
C698 C 0.79938 0.25366 0.9542 0.0
C699 C 0.91569 0.29491 0.93243 0.0
C700 C 0.87038 0.32895 0.90915 0.0
H701 H 0.69736 0.07168 0.946 0.0
H702 H 0.63207 0.14205 1.00264 0.0
H703 H 0.67358 0.21558 0.95971 0.0
H704 H 0.71919 0.26548 0.97346 0.0
H705 H 0.67169 0.22464 0.99239 0.0
H706 H 0.74198 0.18094 0.01647 0.0
H707 H 0.73094 0.22757 0.02035 0.0
H708 H 0.78511 0.23498 1.00721 0.0
H709 H 0.79015 0.10902 0.86397 0.0
H710 H 0.89539 0.24458 0.84292 0.0
H711 H 0.8822 0.27371 0.88122 0.0
H712 H 0.81632 0.11247 0.91887 0.0
H713 H 0.75746 0.06776 0.91269 0.0
H714 H 0.77243 0.09895 0.94144 0.0
H715 H 0.71142 0.13988 0.88659 0.0
H716 H 0.68719 0.0991 0.91069 0.0
H717 H 0.71157 0.08717 0.884 0.0
H718 H 0.62526 0.02446 0.96824 0.0
C719 C 0.68486 0.08792 0.95852 0.0
C720 C 0.54502 0.87414 0.0351 0.0
C721 C 0.56181 0.91937 0.04201 0.0
C722 C 0.58947 0.93584 0.06368 0.0
C723 C 0.5811 0.86217 0.07175 0.0
C724 C 0.55567 0.84647 0.05 0.0
C725 C 0.54242 0.79819 0.04482 0.0
H726 H 0.57132 0.61938 0.07237 0.0
C727 C 0.58518 0.82476 0.08324 0.0
C728 C 0.56364 0.78753 0.06726 0.0
H729 H 0.49721 0.63644 1.01029 0.0
H730 H 0.51146 0.70781 0.02634 0.0
H731 H 0.65656 0.72469 0.07988 0.0
H732 H 0.51719 0.64507 0.11041 0.0
H733 H 0.54946 0.6865 0.13275 0.0
H734 H 0.56745 0.64564 0.12449 0.0
H735 H 0.63753 0.67508 0.09883 0.0
H736 H 0.65854 0.72968 0.11256 0.0
C737 C 0.56625 0.79686 0.02016 0.0
C738 C 0.48774 0.76946 0.04469 0.0
C739 C 0.66333 0.84565 0.16753 0.0
C740 C 0.67092 0.81639 0.18286 0.0
C741 C 0.65453 0.77144 0.17547 0.0
C742 C 0.63187 0.75606 0.15256 0.0
C743 C 0.62551 0.786 0.13704 0.0
C744 C 0.6401 0.82964 0.14487 0.0
C745 C 0.62902 0.8562 0.12625 0.0
C746 C 0.60505 0.82114 0.10604 0.0
C747 C 0.60394 0.78046 0.1123 0.0
C748 C 0.67622 0.89693 0.11732 0.0
C749 C 0.59459 0.86951 0.13851 0.0
C750 C 0.55886 0.63885 0.06202 0.0
C751 C 0.53572 0.62347 0.03912 0.0
C752 C 0.51753 0.64856 0.0271 0.0
C753 C 0.52516 0.68978 0.03669 0.0
C754 C 0.54992 0.70551 0.05903 0.0
C755 C 0.56485 0.67947 0.07178 0.0
C756 C 0.58626 0.69964 0.09649 0.0
C757 C 0.58509 0.74382 0.09539 0.0
C758 C 0.5642 0.74711 0.07328 0.0
C759 C 0.63744 0.70766 0.09718 0.0
C760 C 0.5538 0.66766 0.1172 0.0
H761 H 0.61954 0.92191 0.09501 0.0
H762 H 0.52372 0.86032 0.01864 0.0
H763 H 0.47224 0.78048 0.05969 0.0
H764 H 0.47486 0.7332 0.04829 0.0
H765 H 0.47287 0.77306 0.02681 0.0
H766 H 0.598 0.83002 0.01598 0.0
H767 H 0.54157 0.78839 1.00427 0.0
H768 H 0.57962 0.77258 0.02069 0.0
H769 H 0.67586 0.88043 0.17294 0.0
H770 H 0.66048 0.74868 0.18713 0.0
H771 H 0.62098 0.72176 0.1476 0.0
H772 H 0.706 0.88966 0.11887 0.0
H773 H 0.68565 0.92765 0.12848 0.0
H774 H 0.6754 0.90479 0.09749 0.0
H775 H 0.56648 0.84034 0.14891 0.0
H776 H 0.57578 0.87943 0.12503 0.0
H777 H 0.61356 0.89771 0.15182 0.0
H778 H 0.6031 0.97054 0.06951 0.0
C779 C 0.59892 0.90748 0.07862 0.0
C780 C 0.36776 0.86712 0.03598 0.0
C781 C 0.39312 0.91436 0.03943 0.0
C782 C 0.37416 0.934 0.05551 0.0
C783 C 0.31065 0.86022 0.06719 0.0
C784 C 0.32537 0.84103 0.04917 0.0
C785 C 0.29157 0.7909 0.04678 0.0
H786 H 0.07735 0.6158 0.07651 0.0
C787 C 0.26977 0.82368 0.08031 0.0
C788 C 0.25719 0.78318 0.0678 0.0
H789 H 0.17018 0.62426 0.01705 0.0
H790 H 0.23129 0.69586 0.03257 0.0
H791 H 0.15675 0.6423 0.11573 0.0
H792 H 0.10053 0.72001 0.08193 0.0
H793 H 0.1031 0.72568 0.11474 0.0
H794 H 0.06939 0.67078 0.10131 0.0
H795 H 0.11301 0.65052 0.1312 0.0
H796 H 0.17539 0.68948 0.13532 0.0
C797 C 0.3189 0.76497 0.05132 0.0
C798 C 0.26707 0.78165 0.02109 0.0
C799 C 0.21511 0.85347 0.16322 0.0
C800 C 0.18169 0.82436 0.18067 0.0
C801 C 0.15536 0.77776 0.17557 0.0
C802 C 0.16116 0.76048 0.15313 0.0
C803 C 0.19398 0.78999 0.13569 0.0
C804 C 0.22127 0.83546 0.14108 0.0
C805 C 0.25621 0.86104 0.12071 0.0
C806 C 0.2463 0.82291 0.10271 0.0
C807 C 0.20885 0.78181 0.11136 0.0
C808 C 0.30663 0.88239 0.13172 0.0
C809 C 0.24392 0.896 0.10939 0.0
C810 C 0.11051 0.6334 0.06658 0.0
C811 C 0.11752 0.61591 0.04439 0.0
C812 C 0.16249 0.63836 0.03309 0.0
C813 C 0.19814 0.67979 0.04221 0.0
C814 C 0.18919 0.69848 0.06323 0.0
C815 C 0.14698 0.6743 0.07583 0.0
C816 C 0.14632 0.69724 0.09951 0.0
C817 C 0.19213 0.74201 0.09696 0.0
C818 C 0.21696 0.74246 0.07564 0.0
C819 C 0.14774 0.66852 0.12163 0.0
C820 C 0.10246 0.7038 0.09951 0.0
H821 H 0.32254 0.92423 0.0825 0.0
H822 H 0.38173 0.85065 0.02432 0.0
H823 H 0.27278 0.81326 1.01191 0.0
H824 H 0.22812 0.76064 0.0224 0.0
H825 H 0.28025 0.76456 1.00849 0.0
H826 H 0.34205 0.77852 0.0679 0.0
H827 H 0.34165 0.76843 0.0352 0.0
H828 H 0.29506 0.72858 0.05495 0.0
H829 H 0.23592 0.88943 0.16678 0.0
H830 H 0.1292 0.75489 0.18867 0.0
H831 H 0.13935 0.72495 0.15 0.0
H832 H 0.3117 0.85635 0.14168 0.0
H833 H 0.31268 0.90947 0.14514 0.0
H834 H 0.33458 0.89728 0.11756 0.0
H835 H 0.20616 0.88601 0.11247 0.0
H836 H 0.2483 0.89862 0.08901 0.0
H837 H 0.26579 0.93002 0.11769 0.0
H838 H 0.39323 0.96985 0.05899 0.0
C839 C 0.3336 0.90733 0.06961 0.0
C840 C 0.35652 0.47771 0.03605 0.0
C841 C 0.38646 0.45857 0.03962 0.0
C842 C 0.36939 0.41928 0.05436 0.0
C843 C 0.29876 0.42312 0.06478 0.0
C844 C 0.31157 0.45783 0.04785 0.0
C845 C 0.27254 0.47027 0.04533 0.0
H846 H 0.03825 0.3978 0.06838 0.0
C847 C 0.25359 0.41337 0.07664 0.0
C848 C 0.23588 0.43842 0.06417 0.0
H849 H 0.13022 0.51266 0.02376 0.0
H850 H 0.19757 0.50361 0.03523 0.0
H851 H 0.0836 0.32947 0.07238 0.0
H852 H 0.10739 0.45025 0.10938 0.0
H853 H 0.13419 0.42766 0.12881 0.0
H854 H 0.07121 0.39601 0.12309 0.0
H855 H 0.04197 0.33742 0.09066 0.0
H856 H 0.08298 0.32385 0.10528 0.0
C857 C 0.25335 0.46048 0.01863 0.0
C858 C 0.29237 0.52021 0.05268 0.0
C859 C 0.20852 0.33175 0.16017 0.0
C860 C 0.17167 0.32238 0.17703 0.0
C861 C 0.13644 0.33304 0.17016 0.0
C862 C 0.13752 0.35218 0.14685 0.0
C863 C 0.17482 0.3619 0.13034 0.0
C864 C 0.20986 0.35215 0.13719 0.0
C865 C 0.24711 0.36547 0.1173 0.0
C866 C 0.23052 0.38823 0.09837 0.0
C867 C 0.18746 0.38467 0.10581 0.0
C868 C 0.24493 0.32192 0.10688 0.0
C869 C 0.29571 0.3991 0.12854 0.0
C870 C 0.07235 0.4197 0.06004 0.0
C871 C 0.07723 0.4518 0.04195 0.0
C872 C 0.1238 0.48355 0.03457 0.0
C873 C 0.16315 0.47893 0.04181 0.0
C874 C 0.15668 0.44428 0.05837 0.0
C875 C 0.11239 0.41809 0.06874 0.0
C876 C 0.11478 0.3945 0.09192 0.0
C877 C 0.1655 0.40358 0.09082 0.0
C878 C 0.19016 0.43213 0.07075 0.0
C879 C 0.07882 0.34346 0.09006 0.0
C880 C 0.10631 0.41797 0.1145 0.0
H881 H 0.3165 0.37326 0.0789 0.0
H882 H 0.36851 0.50824 0.02519 0.0
H883 H 0.31096 0.52704 0.07081 0.0
H884 H 0.26413 0.52911 0.05474 0.0
H885 H 0.31802 0.54313 0.03864 0.0
H886 H 0.24913 0.42767 1.0121 0.0
H887 H 0.27781 0.48778 1.00599 0.0
H888 H 0.21831 0.45781 0.01688 0.0
H889 H 0.23575 0.32339 0.16483 0.0
H890 H 0.10724 0.32526 0.18257 0.0
H891 H 0.10882 0.35795 0.14236 0.0
H892 H 0.21269 0.29067 0.11301 0.0
H893 H 0.27588 0.31876 0.11296 0.0
H894 H 0.24327 0.32097 0.08634 0.0
H895 H 0.29454 0.42841 0.13692 0.0
H896 H 0.32431 0.41267 0.11467 0.0
H897 H 0.30582 0.38249 0.14324 0.0
H898 H 0.39142 0.40409 0.0577 0.0
C899 C 0.32628 0.40189 0.06707 0.0
C900 C 0.55973 0.86383 0.32547 0.0
C901 C 0.60881 0.88534 0.31914 0.0
C902 C 0.62349 0.91471 0.2984 0.0
C903 C 0.54414 0.90052 0.29041 0.0
C904 C 0.52834 0.87354 0.31134 0.0
C905 C 0.47613 0.85868 0.31581 0.0
H906 H 0.3091 0.9226 0.29564 0.0
C907 C 0.505 0.90504 0.27929 0.0
C908 C 0.46504 0.88266 0.29472 0.0
H909 H 0.28629 0.80977 0.34132 0.0
H910 H 0.36279 0.81878 0.32809 0.0
H911 H 0.42267 0.98923 0.28822 0.0
H912 H 0.31726 0.86556 0.25509 0.0
H913 H 0.36308 0.88911 0.23318 0.0
H914 H 0.33215 0.91914 0.24169 0.0
H915 H 0.37117 0.98111 0.27141 0.0
H916 H 0.42428 0.99336 0.25535 0.0
C917 C 0.4704 0.87497 0.34141 0.0
C918 C 0.44692 0.80688 0.31327 0.0
C919 C 0.53145 0.98627 0.19612 0.0
C920 C 0.50274 -0.00287 0.18134 0.0
C921 C 0.45725 0.98568 0.1898 0.0
C922 C 0.44076 0.96417 0.21283 0.0
C923 C 0.46988 0.95356 0.22754 0.0
C924 C 0.51415 0.96411 0.21893 0.0
C925 C 0.54058 0.95125 0.23724 0.0
C926 C 0.50332 0.92778 0.25738 0.0
C927 C 0.46274 0.93063 0.25194 0.0
C928 C 0.58384 0.99564 0.24666 0.0
C929 C 0.55353 0.91818 0.22431 0.0
C930 C 0.32103 0.90085 0.30389 0.0
C931 C 0.29429 0.86963 0.32258 0.0
C932 C 0.30895 0.8383 0.32988 0.0
C933 C 0.35272 0.84282 0.32162 0.0
C934 C 0.38016 0.87651 0.30407 0.0
C935 C 0.36133 0.90172 0.29405 0.0
C936 C 0.38394 0.92317 0.26983 0.0
C937 C 0.42465 0.91337 0.26904 0.0
C938 C 0.42401 0.88732 0.28969 0.0
C939 C 0.40144 0.97452 0.27114 0.0
C940 C 0.34742 0.89834 0.24881 0.0
H941 H 0.60636 0.94292 0.26825 0.0
H942 H 0.54611 0.84051 0.34079 0.0
H943 H 0.4548 0.79586 0.29538 0.0
H944 H 0.40856 0.79476 0.31364 0.0
H945 H 0.45541 0.78992 0.3285 0.0
H946 H 0.49632 0.91146 0.34396 0.0
H947 H 0.47607 0.85529 0.356 0.0
H948 H 0.43473 0.87047 0.34417 0.0
H949 H 0.56696 0.99558 0.19023 0.0
H950 H 0.435 0.99458 0.17887 0.0
H951 H 0.40649 0.95774 0.21859 0.0
H952 H 0.58103 0.02621 0.24209 0.0
H953 H 0.61734 0.00068 0.23833 0.0
H954 H 0.58698 0.99625 0.26713 0.0
H955 H 0.52237 0.89149 0.21426 0.0
H956 H 0.56469 0.90016 0.23737 0.0
H957 H 0.58234 0.93632 0.21062 0.0
H958 H 0.66011 0.93258 0.29257 0.0
C959 C 0.59189 0.92136 0.284 0.0
C960 C 0.13439 0.45046 0.32741 0.0
C961 C 0.12035 0.40647 0.31903 0.0
C962 C 0.09393 0.39124 0.29691 0.0
C963 C 0.09791 0.46368 0.29135 0.0
C964 C 0.12221 0.47815 0.31349 0.0
C965 C 0.13279 0.52526 0.32004 0.0
H966 H 0.10771 0.70668 0.29253 0.0
C967 C 0.09243 0.50099 0.28086 0.0
C968 C 0.1122 0.537 0.29773 0.0
H969 H 0.17449 0.68638 0.35695 0.0
H970 H 0.15943 0.61434 0.34104 0.0
H971 H 0.1607 0.67889 0.25566 0.0
H972 H 0.02059 0.60298 0.28595 0.0
H973 H 0.01782 0.59552 0.25353 0.0
H974 H 0.03992 0.65132 0.26596 0.0
H975 H 0.11186 0.68208 0.24232 0.0
H976 H 0.12674 0.63965 0.23274 0.0
C977 C 0.18715 0.55586 0.32169 0.0
C978 C 0.10606 0.52254 0.3443 0.0
C979 C 0.01433 0.48291 0.19678 0.0
C980 C 1.00578 0.51232 0.18211 0.0
C981 C 0.02166 0.55686 0.19009 0.0
C982 C 0.04459 0.5716 0.21299 0.0
C983 C 0.05177 0.54143 0.22791 0.0
C984 C 0.03779 0.49829 0.21944 0.0
C985 C 0.0499 0.4715 0.23736 0.0
C986 C 0.07297 0.50552 0.25814 0.0
C987 C 0.07329 0.54607 0.25262 0.0
C988 C 0.0854 0.46025 0.22445 0.0
C989 C 1.00329 0.42952 0.24581 0.0
C990 C 0.11856 0.68659 0.30351 0.0
C991 C 0.14056 0.70163 0.32669 0.0
C992 C 0.1556 0.67489 0.33969 0.0
C993 C 0.14737 0.63324 0.33021 0.0
C994 C 0.1246 0.6185 0.30721 0.0
C995 C 0.11144 0.64549 0.29408 0.0
C996 C 0.09054 0.62603 0.26925 0.0
C997 C 0.09109 0.58166 0.27016 0.0
C998 C 0.11084 0.57732 0.29249 0.0
C999 C 0.12377 0.65823 0.24883 0.0
C1000 C 0.03957 0.61864 0.2684 0.0
H1001 H 0.06329 0.40612 0.26623 0.0
H1002 H 0.15484 0.46336 0.34421 0.0
H1003 H 0.07222 0.48999 0.34559 0.0
H1004 H 0.09559 0.54886 0.34549 0.0
H1005 H 0.12755 0.52491 0.36083 0.0
H1006 H 0.20509 0.54706 0.30694 0.0
H1007 H 0.20082 0.55172 0.33983 0.0
H1008 H 0.19872 0.59202 0.31876 0.0
H1009 H 1.00238 0.44849 0.19086 0.0
H1010 H 0.01509 0.57977 0.17892 0.0
H1011 H 0.05507 0.60562 0.21838 0.0
H1012 H 0.11166 0.48972 0.21347 0.0
H1013 H 0.06688 0.43128 0.21156 0.0
H1014 H 0.10663 0.45265 0.23758 0.0
H1015 H 0.97328 0.4366 0.24561 0.0
H1016 H 1.00484 0.41951 0.26515 0.0
H1017 H 0.99373 0.40018 0.23345 0.0
H1018 H 0.08263 0.35759 0.28989 0.0
C1019 C 0.08287 0.4196 0.28302 0.0
C1020 C 0.31387 0.45968 0.32453 0.0
C1021 C 0.28954 0.41253 0.32069 0.0
C1022 C 0.31011 0.39371 0.30513 0.0
C1023 C 0.37355 0.46831 0.29457 0.0
C1024 C 0.35702 0.48663 0.31215 0.0
C1025 C 0.38999 0.53686 0.31506 0.0
H1026 H 0.60392 0.7152 0.28858 0.0
C1027 C 0.41497 0.5056 0.28219 0.0
C1028 C 0.42586 0.54569 0.29473 0.0
H1029 H 0.50756 0.70373 0.34684 0.0
H1030 H 0.44804 0.63202 0.33034 0.0
H1031 H 0.58359 0.61199 0.28346 0.0
H1032 H 0.52656 0.68768 0.24798 0.0
H1033 H 0.51072 0.64107 0.2283 0.0
H1034 H 0.57239 0.68125 0.23361 0.0
H1035 H 0.61506 0.66167 0.26444 0.0
H1036 H 0.58327 0.60691 0.25065 0.0
C1037 C 0.413 0.54577 0.34112 0.0
C1038 C 0.36227 0.56224 0.31001 0.0
C1039 C 0.47668 0.47835 0.20098 0.0
C1040 C 0.51055 0.50805 0.18394 0.0
C1041 C 0.53565 0.55466 0.18912 0.0
C1042 C 0.52805 0.57144 0.21131 0.0
C1043 C 0.49462 0.54136 0.22835 0.0
C1044 C 0.46863 0.49582 0.22281 0.0
C1045 C 0.43246 0.46956 0.24253 0.0
C1046 C 0.44024 0.50726 0.26036 0.0
C1047 C 0.47765 0.54885 0.25224 0.0
C1048 C 0.44488 0.43513 0.25449 0.0
C1049 C 0.38287 0.44752 0.23045 0.0
C1050 C 0.57033 0.697 0.29806 0.0
C1051 C 0.56178 0.71374 0.32014 0.0
C1052 C 0.51633 0.69035 0.33083 0.0
C1053 C 0.48167 0.64884 0.32116 0.0
C1054 C 0.49223 0.63093 0.30029 0.0
C1055 C 0.53501 0.65598 0.28834 0.0
C1056 C 0.53781 0.63369 0.26482 0.0
C1057 C 0.49252 0.58835 0.26672 0.0
C1058 C 0.46605 0.587 0.28753 0.0
C1059 C 0.58236 0.62825 0.26576 0.0
C1060 C 0.53704 0.66229 0.24248 0.0
H1061 H 0.36403 0.40501 0.27933 0.0
H1062 H 0.29874 0.47538 0.33597 0.0
H1063 H 0.34025 0.54891 0.29304 0.0
H1064 H 0.38586 0.59882 0.30679 0.0
H1065 H 0.33835 0.55797 0.32572 0.0
H1066 H 0.40865 0.51427 0.3498 0.0
H1067 H 0.39761 0.5609 0.35368 0.0
H1068 H 0.45178 0.56831 0.34055 0.0
H1069 H 0.45682 0.44236 0.1973 0.0
H1070 H 0.56206 0.57793 0.17625 0.0
H1071 H 0.54887 0.60705 0.21455 0.0
H1072 H 0.483 0.44581 0.2522 0.0
H1073 H 0.42413 0.4011 0.24602 0.0
H1074 H 0.4391 0.43229 0.27477 0.0
H1075 H 0.37809 0.47321 0.21992 0.0
H1076 H 0.35386 0.43244 0.24402 0.0
H1077 H 0.37824 0.4205 0.21733 0.0
H1078 H 0.29193 0.35779 0.30157 0.0
C1079 C 0.35153 0.42125 0.29185 0.0
Tb1080 Tb 0.49413 0.96915 0.98412 0.0
C1081 C 0.54944 0.12269 0.05441 0.0
C1082 C 0.63481 0.16608 0.05724 0.0
C1083 C 0.58791 0.20257 0.06507 0.0
C1084 C 0.59311 0.12527 0.0519 0.0
C1085 C 0.54635 0.16114 0.06145 0.0
C1086 C 0.63206 0.20497 0.06314 0.0
C1087 C 0.46152 0.11375 0.06377 0.0
N1088 N 0.50997 0.08178 0.05143 0.0
C1089 C 0.46639 0.07647 0.05718 0.0
C1090 C 0.50164 0.15638 0.06565 0.0
Tb1091 Tb 0.52292 0.02269 0.04232 0.0
N1092 N 0.59456 0.08692 0.0464 0.0
C1093 C 0.63668 0.08692 0.0468 0.0
C1094 C 0.6778 0.16606 0.05771 0.0
C1095 C 0.67868 0.12628 0.05255 0.0
H1096 H 0.4353 0.04375 0.05564 0.0
H1097 H 0.71176 0.12584 0.05311 0.0
H1098 H 0.6638 0.23674 0.06695 0.0
H1099 H 0.42686 0.10954 0.06748 0.0
H1100 H 0.63837 0.05657 0.04323 0.0
H1101 H 0.30511 0.86547 0.97411 0.0
H1102 H 0.7104 0.19637 0.06246 0.0
H1103 H 0.58187 0.94788 0.97168 0.0
H1104 H 0.37885 0.93571 0.98255 0.0
H1105 H 0.59023 0.8811 0.96178 0.0
H1106 H 0.58624 0.23255 0.07028 0.0
H1107 H 0.30647 0.79433 0.96665 0.0
H1108 H 0.35322 0.75384 0.96343 0.0
H1109 H 0.49782 0.18513 0.07103 0.0
H1110 H 0.43078 0.75782 0.96085 0.0
N1111 N 0.42247 0.9051 0.98036 0.0
C1112 C 0.38037 0.90506 0.97973 0.0
C1113 C 0.33915 0.82506 0.97071 0.0
C1114 C 0.38225 0.82521 0.97134 0.0
C1115 C 0.33826 0.86518 0.97481 0.0
C1116 C 0.42398 0.86643 0.97588 0.0
H1117 H 0.51927 0.80524 0.95973 0.0
N1118 N 0.5073 0.90976 0.97661 0.0
C1119 C 0.55563 0.87713 0.96539 0.0
C1120 C 0.46768 0.8687 0.97414 0.0
C1121 C 0.55083 0.91486 0.97093 0.0
C1122 C 0.51548 0.83433 0.96433 0.0
C1123 C 0.47075 0.8298 0.9682 0.0
O1124 O 0.5344 0.98767 0.95137 0.0
O1125 O 0.55271 0.01875 1.00724 0.0
O1126 O 0.50006 0.06005 0.01689 0.0
O1127 O 0.45199 0.00204 0.99048 0.0
O1128 O 0.54516 0.03828 0.97331 0.0
O1129 O 0.46008 0.96679 0.95019 0.0
O1130 O 0.48521 0.00625 0.07611 0.0
O1131 O 0.46399 0.97356 0.01911 0.0
O1132 O 0.51602 0.93187 1.01022 0.0
O1133 O 0.56588 0.99111 0.03503 0.0
O1134 O 0.47086 0.95399 0.05309 0.0
O1135 O 0.55728 0.01929 0.0746 0.0
C1136 C 0.5716 0.0518 0.99241 0.0
C1137 C 0.49566 0.95915 0.91288 0.0
C1138 C 0.50116 0.96482 0.86742 0.0
C1139 C 0.49894 0.98284 0.89067 0.0
C1140 C 0.49932 0.92266 0.8667 0.0
C1141 C 0.49322 0.91684 0.91141 0.0
C1142 C 0.49494 0.89875 0.88852 0.0
C1143 C 0.46883 0.0439 0.99854 0.0
C1144 C 0.49877 0.98064 0.93725 0.0
C1145 C 0.42915 0.78816 0.96518 0.0
C1146 C 0.38499 0.78591 0.96664 0.0
C1147 C 0.44441 0.94064 0.03402 0.0
C1148 C 0.53042 0.03108 0.11332 0.0
C1149 C 0.5105 0.00451 0.13477 0.0
C1150 C 0.52201 0.02443 0.15846 0.0
C1151 C 0.55298 0.07112 0.16048 0.0
C1152 C 0.56125 0.0777 0.11585 0.0
C1153 C 0.57221 0.09756 0.13928 0.0
C1154 C 0.54803 0.94864 0.02811 0.0
C1155 C 0.52083 0.00908 0.08877 0.0
H1156 H 0.5011 0.0157 0.89151 0.0
H1157 H 0.50068 0.90793 0.84916 0.0
H1158 H 0.49073 0.89793 0.92788 0.0
H1159 H 0.49329 0.86615 0.88771 0.0
H1160 H 0.48697 0.96837 0.13308 0.0
H1161 H 0.56227 0.08708 0.17852 0.0
H1162 H 0.57749 0.09868 0.09983 0.0
H1163 H 0.59616 0.13355 0.14103 0.0
Tb1164 Tb 0.03636 0.50948 0.98726 0.0
C1165 C 0.8682 0.44802 0.0579 0.0
C1166 C 0.85461 0.51162 0.06229 0.0
C1167 C 0.79115 0.43548 0.07115 0.0
C1168 C 0.88446 0.49394 0.05614 0.0
C1169 C 0.82156 0.41827 0.06578 0.0
C1170 C 0.80777 0.48211 0.06958 0.0
C1171 C 0.84055 0.35782 0.06579 0.0
N1172 N 0.89925 0.43296 0.05366 0.0
C1173 C 0.88671 0.3888 0.05848 0.0
C1174 C 0.80766 0.3725 0.06918 0.0
Tb1175 Tb 0.97491 0.48715 0.04425 0.0
N1176 N 0.93003 0.52146 0.0492 0.0
C1177 C 0.94796 0.56731 0.0481 0.0
C1178 C 0.87277 0.55845 0.06104 0.0
C1179 C 0.91954 0.58636 0.05374 0.0
H1180 H 0.91206 0.37726 0.05618 0.0
H1181 H 0.93393 0.62263 0.05273 0.0
H1182 H 0.78434 0.49516 0.07427 0.0
H1183 H 0.83049 0.32273 0.06896 0.0
H1184 H 0.98434 0.58965 0.04311 0.0
H1185 H 0.07367 0.3705 0.9833 0.0
H1186 H 0.85091 0.57334 0.06556 0.0
H1187 H 0.10233 0.61817 0.97323 0.0
H1188 H 0.0236 0.40494 0.98867 0.0
H1189 H 0.185 0.67062 0.96137 0.0
H1190 H 0.75517 0.4132 0.07718 0.0
H1191 H 0.15869 0.41817 0.97379 0.0
H1192 H 0.22699 0.49519 0.96518 0.0
H1193 H 0.77212 0.34856 0.07517 0.0
H1194 H 0.25785 0.57712 0.95963 0.0
N1195 N 0.07934 0.4727 0.98262 0.0
C1196 C 0.06039 0.42674 0.9844 0.0
C1197 C 0.13673 0.43373 0.976 0.0
C1198 C 0.15566 0.48045 0.97334 0.0
C1199 C 0.0888 0.40676 0.98139 0.0
C1200 C 0.12563 0.49904 0.97657 0.0
H1201 H 0.24228 0.64278 0.95799 0.0
N1202 N 0.11278 0.56121 0.97722 0.0
C1203 C 0.17377 0.63541 0.96507 0.0
C1204 C 0.1431 0.54497 0.97408 0.0
C1205 C 0.12692 0.60555 0.97184 0.0
C1206 C 0.20601 0.61958 0.96321 0.0
C1207 C 0.19071 0.57373 0.96741 0.0
O1208 O 0.02761 0.53841 0.95453 0.0
O1209 O 0.97613 0.50846 1.00604 0.0
O1210 O 0.92361 0.43998 0.01758 0.0
O1211 O 0.97658 0.43954 0.98894 0.0
O1212 O 0.02134 0.56534 0.98819 0.0
O1213 O 0.01427 0.46986 0.95482 0.0
O1214 O 0.98426 0.45978 0.07734 0.0
O1215 O 0.03372 0.48855 0.02502 0.0
O1216 O 0.08778 0.55645 1.01381 0.0
O1217 O 0.03536 0.55724 0.04285 0.0
O1218 O 0.99622 0.43495 0.04719 0.0
O1219 O 0.9941 0.52737 0.07651 0.0
C1220 C 0.98039 0.54576 0.99861 0.0
C1221 C 0.0395 0.5101 0.91692 0.0
C1222 C 0.03289 0.50064 0.87211 0.0
C1223 C 0.01165 0.49142 0.89564 0.0
C1224 C 0.08203 0.52793 0.86994 0.0
C1225 C 0.08868 0.53724 0.91435 0.0
C1226 C 0.10979 0.5459 0.89103 0.0
C1227 C 0.93343 0.42186 0.99839 0.0
C1228 C 0.01638 0.5026 0.9413 0.0
C1229 C 0.22103 0.55557 0.96453 0.0
C1230 C 0.20352 0.509 0.96758 0.0
C1231 C 0.03393 0.45424 0.03392 0.0
C1232 C 0.97029 0.48721 0.11466 0.0
C1233 C 0.99799 0.50617 0.13595 0.0
C1234 C 0.977 0.49525 0.15953 0.0
C1235 C 0.92814 0.46622 0.16174 0.0
C1236 C 0.92146 0.458 0.11728 0.0
C1237 C 0.90049 0.44795 0.14064 0.0
C1238 C 0.07846 0.57457 0.03319 0.0
C1239 C 0.99356 0.49551 0.09029 0.0
H1240 H 0.97358 0.47067 0.89729 0.0
H1241 H 0.09881 0.53534 0.85191 0.0
H1242 H 0.11093 0.5524 0.93013 0.0
H1243 H 0.14773 0.56702 0.8893 0.0
H1244 H 0.03589 0.52814 0.13426 0.0
H1245 H 0.91154 0.45747 0.17981 0.0
H1246 H 0.89954 0.44202 0.1015 0.0
H1247 H 0.86282 0.42526 0.14241 0.0
Tb1248 Tb 0.52396 0.48941 0.04552 0.0
C1249 C 0.43799 0.56091 0.97135 0.0
C1250 C 0.35465 0.50587 0.9694 0.0
C1251 C 0.38143 0.58436 0.9586 0.0
C1252 C 0.40168 0.51724 0.97482 0.0
C1253 C 0.42844 0.59486 0.9627 0.0
C1254 C 0.34464 0.53985 0.96176 0.0
C1255 C 0.51258 0.64495 0.95902 0.0
N1256 N 0.48304 0.56914 0.97443 0.0
C1257 C 0.52028 0.60999 0.96724 0.0
C1258 C 0.46647 0.63759 0.95711 0.0
Tb1259 Tb 0.49152 0.50812 0.98551 0.0
N1260 N 0.41283 0.48526 0.98183 0.0
C1261 C 0.37844 0.44085 0.98352 0.0
C1262 C 0.3194 0.46046 0.97098 0.0
C1263 C 0.33129 0.42787 0.97829 0.0
H1264 H 0.55612 0.61616 0.96814 0.0
H1265 H 0.30423 0.39268 0.97965 0.0
H1266 H 0.30881 0.5319 0.95758 0.0
H1267 H 0.54221 0.67744 0.95397 0.0
H1268 H 0.38721 0.41516 0.98875 0.0
H1269 H 0.71441 0.59545 0.04805 0.0
H1270 H 0.28296 0.4502 0.96649 0.0
H1271 H 0.45395 0.38393 0.06661 0.0
H1272 H 0.63268 0.58033 0.04348 0.0
H1273 H 0.46407 0.32007 0.08114 0.0
H1274 H 0.3733 0.60997 0.95206 0.0
H1275 H 0.7304 0.53288 0.05729 0.0
H1276 H 0.69886 0.45062 0.06671 0.0
H1277 H 0.4606 0.66455 0.95043 0.0
H1278 H 0.63093 0.37563 0.07524 0.0
N1279 N 0.60179 0.5091 0.0492 0.0
C1280 C 0.63869 0.55241 0.04737 0.0
C1281 C 0.69421 0.52585 0.05525 0.0
C1282 C 0.65628 0.48196 0.05833 0.0
C1283 C 0.68532 0.56127 0.05005 0.0
C1284 C 0.60979 0.47452 0.05538 0.0
H1285 H 0.54347 0.32697 0.08122 0.0
N1286 N 0.52695 0.42616 0.0579 0.0
C1287 C 0.4944 0.3511 0.07491 0.0
C1288 C 0.57133 0.4317 0.05953 0.0
C1289 C 0.48884 0.38733 0.06677 0.0
C1290 C 0.53929 0.35509 0.07483 0.0
C1291 C 0.57854 0.39597 0.0676 0.0
O1292 O 0.48554 0.46694 0.07871 0.0
O1293 O 0.46353 0.47538 0.02112 0.0
O1294 O 0.49828 0.56213 1.01003 0.0
O1295 O 0.55202 0.56156 0.03825 0.0
O1296 O 0.46368 0.49824 0.05516 0.0
O1297 O 0.55541 0.5266 0.07798 0.0
O1298 O 0.53303 0.52111 0.95327 0.0
O1299 O 0.54596 0.50274 1.00692 0.0
O1300 O 0.50564 0.42775 0.0242 0.0
O1301 O 0.47067 0.43664 0.98845 0.0
O1302 O 0.56704 0.55615 0.98385 0.0
O1303 O 0.46014 0.47133 0.95275 0.0
C1304 C 0.43883 0.48509 0.03552 0.0
C1305 C 0.52844 0.4873 0.11658 0.0
C1306 C 0.5219 0.49024 0.16158 0.0
C1307 C 0.51681 0.5041 0.13767 0.0
C1308 C 0.53896 0.45971 0.16424 0.0
C1309 C 0.54664 0.45779 0.11979 0.0
C1310 C 0.55166 0.44395 0.14343 0.0
C1311 C 0.52857 0.58052 0.02852 0.0
C1312 C 0.51906 0.49945 0.09168 0.0
C1313 C 0.62473 0.40285 0.06942 0.0
C1314 C 0.66347 0.44567 0.0647 0.0
C1315 C 0.58285 0.53569 0.99768 0.0
C1316 C 0.49423 0.50867 0.91483 0.0
C1317 C 0.50576 0.49204 0.89364 0.0
C1318 C 0.50503 0.5094 0.86996 0.0
C1319 C 0.49271 0.54349 0.86773 0.0
C1320 C 0.48074 0.54181 0.91196 0.0
C1321 C 0.48027 0.55928 0.88862 0.0
C1322 C 0.48358 0.41295 1.00274 0.0
C1323 C 0.49838 0.49251 0.93968 0.0
H1324 H 0.50303 0.52723 0.1355 0.0
H1325 H 0.54328 0.44875 0.18246 0.0
H1326 H 0.55682 0.4451 0.10426 0.0
H1327 H 0.56543 0.42087 0.14561 0.0
H1328 H 0.5158 0.46609 0.89558 0.0
H1329 H 0.49157 0.55711 0.84972 0.0
H1330 H 0.47065 0.55441 0.92762 0.0
H1331 H 0.47006 0.58506 0.88672 0.0
Tb1332 Tb 0.16081 0.30248 0.31745 0.0
C1333 C 0.21612 0.45602 0.38774 0.0
C1334 C 0.30148 0.49941 0.39057 0.0
C1335 C 0.25458 0.5359 0.3984 0.0
C1336 C 0.25979 0.4586 0.38523 0.0
C1337 C 0.21302 0.49447 0.39478 0.0
C1338 C 0.29873 0.5383 0.39647 0.0
C1339 C 0.1282 0.44708 0.39711 0.0
N1340 N 0.17664 0.41512 0.38477 0.0
C1341 C 0.13307 0.4098 0.39052 0.0
C1342 C 0.16832 0.48971 0.39899 0.0
Tb1343 Tb 0.18959 0.35602 0.37566 0.0
N1344 N 0.26124 0.42026 0.37974 0.0
C1345 C 0.30335 0.42025 0.38013 0.0
C1346 C 0.34447 0.49939 0.39104 0.0
C1347 C 0.34536 0.45961 0.38588 0.0
H1348 H 0.10197 0.37708 0.38897 0.0
H1349 H 0.37843 0.45918 0.38644 0.0
H1350 H 0.33048 0.57007 0.40028 0.0
H1351 H 0.09353 0.44287 0.40081 0.0
H1352 H 0.30505 0.3899 0.37656 0.0
H1353 H 0.97178 0.1988 0.30744 0.0
H1354 H 0.37707 0.5297 0.39579 0.0
H1355 H 0.24855 0.28121 0.30501 0.0
H1356 H 0.04552 0.26904 0.31589 0.0
H1357 H 0.2569 0.21444 0.29511 0.0
H1358 H 0.25292 0.56588 0.40361 0.0
H1359 H 0.97314 0.12766 0.29999 0.0
H1360 H 0.0199 0.08717 0.29676 0.0
H1361 H 0.16449 0.51847 0.40436 0.0
H1362 H 0.09746 0.09115 0.29418 0.0
N1363 N 0.08915 0.23843 0.3137 0.0
C1364 C 0.04704 0.23839 0.31306 0.0
C1365 C 1.00583 0.15839 0.30404 0.0
C1366 C 0.04893 0.15854 0.30468 0.0
C1367 C 1.00493 0.19851 0.30815 0.0
C1368 C 0.09066 0.19976 0.30921 0.0
H1369 H 0.18595 0.13857 0.29306 0.0
N1370 N 0.17397 0.2431 0.30994 0.0
C1371 C 0.2223 0.21046 0.29872 0.0
C1372 C 0.13436 0.20203 0.30747 0.0
C1373 C 0.21751 0.2482 0.30426 0.0
C1374 C 0.18216 0.16766 0.29767 0.0
C1375 C 0.13743 0.16314 0.30153 0.0
O1376 O 0.20107 0.32101 0.2847 0.0
O1377 O 0.21938 0.35208 0.34057 0.0
O1378 O 0.16673 0.39338 0.35023 0.0
O1379 O 0.11866 0.33537 0.32381 0.0
O1380 O 0.21183 0.37161 0.30665 0.0
O1381 O 0.12675 0.30012 0.28352 0.0
O1382 O 0.15188 0.33958 0.40944 0.0
O1383 O 0.13067 0.30689 0.35244 0.0
O1384 O 0.18269 0.2652 0.34355 0.0
O1385 O 0.23256 0.32445 0.36836 0.0
O1386 O 0.13754 0.28732 0.38642 0.0
O1387 O 0.22395 0.35262 0.40793 0.0
C1388 C 0.23827 0.38513 0.32574 0.0
C1389 C 0.16234 0.29248 0.24621 0.0
C1390 C 0.16783 0.29815 0.20075 0.0
C1391 C 0.16562 0.31617 0.22401 0.0
C1392 C 0.16599 0.25599 0.20003 0.0
C1393 C 0.15989 0.25017 0.24475 0.0
C1394 C 0.16161 0.23208 0.22185 0.0
C1395 C 0.13551 0.37723 0.33188 0.0
C1396 C 0.16544 0.31397 0.27058 0.0
C1397 C 0.09583 0.12149 0.29851 0.0
C1398 C 0.05167 0.11924 0.29997 0.0
C1399 C 0.11108 0.27397 0.36736 0.0
C1400 C 0.19708 0.36441 0.44665 0.0
C1401 C 0.17717 0.33784 0.4681 0.0
C1402 C 0.18868 0.35776 0.4918 0.0
C1403 C 0.21964 0.40445 0.49382 0.0
C1404 C 0.22791 0.41104 0.44918 0.0
C1405 C 0.23887 0.4309 0.47261 0.0
C1406 C 0.21471 0.28197 0.36144 0.0
C1407 C 0.1875 0.34241 0.4221 0.0
H1408 H 0.16777 0.34903 0.22484 0.0
H1409 H 0.16735 0.24126 0.1825 0.0
H1410 H 0.15741 0.23126 0.26121 0.0
H1411 H 0.15996 0.19948 0.22104 0.0
H1412 H 0.15364 0.3017 0.46641 0.0
H1413 H 0.22893 0.42042 0.51185 0.0
H1414 H 0.24415 0.43202 0.43316 0.0
H1415 H 0.26281 0.46689 0.47436 0.0
Tb1416 Tb 0.70303 0.84282 0.32059 0.0
C1417 C 0.53487 0.78135 0.39123 0.0
C1418 C 0.52128 0.84495 0.39562 0.0
C1419 C 0.45782 0.76882 0.40448 0.0
C1420 C 0.55113 0.82728 0.38947 0.0
C1421 C 0.48823 0.7516 0.39912 0.0
C1422 C 0.47443 0.81545 0.40291 0.0
C1423 C 0.50722 0.69116 0.39912 0.0
N1424 N 0.56592 0.76629 0.387 0.0
C1425 C 0.55338 0.72213 0.39182 0.0
C1426 C 0.47432 0.70584 0.40251 0.0
Tb1427 Tb 0.64157 0.82048 0.37758 0.0
N1428 N 0.59669 0.8548 0.38254 0.0
C1429 C 0.61463 0.90065 0.38143 0.0
C1430 C 0.53943 0.89179 0.39437 0.0
C1431 C 0.58621 0.91969 0.38707 0.0
H1432 H 0.57873 0.71059 0.38951 0.0
H1433 H 0.60059 0.95597 0.38606 0.0
H1434 H 0.45101 0.82849 0.40761 0.0
H1435 H 0.49716 0.65606 0.4023 0.0
H1436 H 0.651 0.92299 0.37645 0.0
H1437 H 0.74034 0.70384 0.31663 0.0
H1438 H 0.51758 0.90668 0.3989 0.0
H1439 H 0.769 0.95151 0.30656 0.0
H1440 H 0.69026 0.73828 0.322 0.0
H1441 H 0.85167 0.00395 0.29471 0.0
H1442 H 0.42183 0.74653 0.41051 0.0
H1443 H 0.82535 0.75151 0.30712 0.0
H1444 H 0.89366 0.82852 0.29851 0.0
H1445 H 0.43878 0.68189 0.4085 0.0
H1446 H 0.92452 0.91046 0.29296 0.0
N1447 N 0.74601 0.80604 0.31595 0.0
C1448 C 0.72706 0.76008 0.31773 0.0
C1449 C 0.80339 0.76707 0.30934 0.0
C1450 C 0.82233 0.81378 0.30667 0.0
C1451 C 0.75547 0.7401 0.31472 0.0
C1452 C 0.79229 0.83238 0.30991 0.0
H1453 H 0.90894 0.97612 0.29133 0.0
N1454 N 0.77945 0.89455 0.31055 0.0
C1455 C 0.84044 0.96875 0.2984 0.0
C1456 C 0.80976 0.87831 0.30742 0.0
C1457 C 0.79359 0.93889 0.30518 0.0
C1458 C 0.87267 0.95292 0.29654 0.0
C1459 C 0.85737 0.90706 0.30074 0.0
O1460 O 0.69428 0.87175 0.28786 0.0
O1461 O 0.6428 0.8418 0.33937 0.0
O1462 O 0.59027 0.77331 0.35091 0.0
O1463 O 0.64325 0.77287 0.32227 0.0
O1464 O 0.68801 0.89868 0.32152 0.0
O1465 O 0.68094 0.80319 0.28815 0.0
O1466 O 0.65093 0.79312 0.41068 0.0
O1467 O 0.70038 0.82189 0.35835 0.0
O1468 O 0.75444 0.88979 0.34714 0.0
O1469 O 0.70203 0.89058 0.37619 0.0
O1470 O 0.66288 0.76829 0.38052 0.0
O1471 O 0.66077 0.86071 0.40984 0.0
C1472 C 0.64706 0.87909 0.33194 0.0
C1473 C 0.70617 0.84344 0.25025 0.0
C1474 C 0.69955 0.83397 0.20545 0.0
C1475 C 0.67832 0.82476 0.22897 0.0
C1476 C 0.74869 0.86127 0.20327 0.0
C1477 C 0.75535 0.87058 0.24768 0.0
C1478 C 0.77646 0.87923 0.22436 0.0
C1479 C 0.6001 0.7552 0.33173 0.0
C1480 C 0.68304 0.83594 0.27463 0.0
C1481 C 0.8877 0.88891 0.29786 0.0
C1482 C 0.87019 0.84233 0.30091 0.0
C1483 C 0.7006 0.78758 0.36725 0.0
C1484 C 0.63696 0.82055 0.44799 0.0
C1485 C 0.66466 0.83951 0.46928 0.0
C1486 C 0.64367 0.8286 0.49286 0.0
C1487 C 0.59481 0.79956 0.49507 0.0
C1488 C 0.58813 0.79134 0.45061 0.0
C1489 C 0.56715 0.78129 0.47398 0.0
C1490 C 0.74513 0.90791 0.36652 0.0
C1491 C 0.66022 0.82885 0.42362 0.0
H1492 H 0.64024 0.80401 0.23062 0.0
H1493 H 0.76548 0.86868 0.18524 0.0
H1494 H 0.7776 0.88574 0.26346 0.0
H1495 H 0.8144 0.90036 0.22263 0.0
H1496 H 0.70256 0.86148 0.46759 0.0
H1497 H 0.57821 0.79082 0.51315 0.0
H1498 H 0.56621 0.77536 0.43483 0.0
H1499 H 0.52949 0.7586 0.47575 0.0
Tb1500 Tb 0.19063 0.82274 0.37885 0.0
C1501 C 0.10465 0.89423 0.30468 0.0
C1502 C 0.02131 0.83919 0.30273 0.0
C1503 C 0.04809 0.91768 0.29194 0.0
C1504 C 0.06834 0.85057 0.30815 0.0
C1505 C 0.0951 0.92818 0.29603 0.0
C1506 C 0.0113 0.87318 0.29509 0.0
C1507 C 0.17924 0.97828 0.29235 0.0
N1508 N 0.1497 0.90246 0.30776 0.0
C1509 C 0.18695 0.94332 0.30057 0.0
C1510 C 0.13313 0.97092 0.29045 0.0
Tb1511 Tb 0.15819 0.84145 0.31885 0.0
N1512 N 0.0795 0.81858 0.31517 0.0
C1513 C 0.0451 0.77417 0.31686 0.0
C1514 C 0.98606 0.79378 0.30431 0.0
C1515 C 0.99795 0.76119 0.31162 0.0
H1516 H 0.22278 0.94948 0.30148 0.0
H1517 H 0.9709 0.726 0.31298 0.0
H1518 H 0.97547 0.86522 0.29091 0.0
H1519 H 0.20887 0.01077 0.28731 0.0
H1520 H 0.05387 0.74849 0.32208 0.0
H1521 H 0.38108 0.92878 0.38139 0.0
H1522 H 0.94963 0.78352 0.29982 0.0
H1523 H 0.12061 0.71725 0.39995 0.0
H1524 H 0.29935 0.91366 0.37681 0.0
H1525 H 0.13073 0.6534 0.41447 0.0
H1526 H 0.03996 0.94329 0.28539 0.0
H1527 H 0.39706 0.86621 0.39062 0.0
H1528 H 0.36552 0.78395 0.40005 0.0
H1529 H 0.12726 -0.00212 0.28376 0.0
H1530 H 0.29759 0.70895 0.40857 0.0
N1531 N 0.26845 0.84243 0.38254 0.0
C1532 C 0.30535 0.88573 0.3807 0.0
C1533 C 0.36087 0.85918 0.38858 0.0
C1534 C 0.32295 0.81529 0.39166 0.0
C1535 C 0.35199 0.8946 0.38338 0.0
C1536 C 0.27645 0.80784 0.38871 0.0
H1537 H 0.21013 0.66029 0.41455 0.0
N1538 N 0.19361 0.75948 0.39123 0.0
C1539 C 0.16106 0.68443 0.40824 0.0
C1540 C 0.23799 0.76503 0.39287 0.0
C1541 C 0.1555 0.72066 0.40011 0.0
C1542 C 0.20595 0.68841 0.40817 0.0
C1543 C 0.2452 0.72929 0.40093 0.0
O1544 O 0.1522 0.80027 0.41205 0.0
O1545 O 0.13019 0.80871 0.35445 0.0
O1546 O 0.16494 0.89545 0.34336 0.0
O1547 O 0.21869 0.89489 0.37158 0.0
O1548 O 0.13034 0.83157 0.3885 0.0
O1549 O 0.22207 0.85993 0.41131 0.0
O1550 O 0.19969 0.85444 0.2866 0.0
O1551 O 0.21263 0.83607 0.34025 0.0
O1552 O 0.1723 0.76108 0.35754 0.0
O1553 O 0.13733 0.76997 0.32178 0.0
O1554 O 0.2337 0.88948 0.31719 0.0
O1555 O 0.12681 0.80466 0.28609 0.0
C1556 C 0.1055 0.81842 0.36885 0.0
C1557 C 0.19511 0.82063 0.44991 0.0
C1558 C 0.18856 0.82357 0.49491 0.0
C1559 C 0.18347 0.83743 0.471 0.0
C1560 C 0.20562 0.79304 0.49757 0.0
C1561 C 0.21331 0.79112 0.45313 0.0
C1562 C 0.21833 0.77728 0.47676 0.0
C1563 C 0.19523 0.91385 0.36185 0.0
C1564 C 0.18572 0.83278 0.42502 0.0
C1565 C 0.29139 0.73617 0.40276 0.0
C1566 C 0.33013 0.77899 0.39804 0.0
C1567 C 0.24952 0.86901 0.33101 0.0
C1568 C 0.1609 0.842 0.24816 0.0
C1569 C 0.17242 0.82537 0.22698 0.0
C1570 C 0.17169 0.84273 0.2033 0.0
C1571 C 0.15937 0.87682 0.20106 0.0
C1572 C 0.1474 0.87514 0.2453 0.0
C1573 C 0.14693 0.89261 0.22195 0.0
C1574 C 0.15024 0.74628 0.33607 0.0
C1575 C 0.16505 0.82584 0.27301 0.0
H1576 H 0.16969 0.86056 0.46883 0.0
H1577 H 0.20994 0.78208 0.51579 0.0
H1578 H 0.22349 0.77843 0.4376 0.0
H1579 H 0.23209 0.7542 0.47894 0.0
H1580 H 0.18247 0.79942 0.22891 0.0
H1581 H 0.15823 0.89044 0.18305 0.0
H1582 H 0.13731 0.88774 0.26096 0.0
H1583 H 0.13672 0.91839 0.22005 0.0
Tb1584 Tb 0.82747 0.63582 0.65079 0.0
C1585 C 0.88278 0.78936 0.72108 0.0
C1586 C 0.96814 0.83275 0.7239 0.0
C1587 C 0.92125 0.86924 0.73174 0.0
C1588 C 0.92645 0.79194 0.71857 0.0
C1589 C 0.87969 0.82781 0.72811 0.0
C1590 C 0.9654 0.87164 0.72981 0.0
C1591 C 0.79486 0.78042 0.73044 0.0
N1592 N 0.84331 0.74846 0.7181 0.0
C1593 C 0.79973 0.74314 0.72385 0.0
C1594 C 0.83498 0.82305 0.73232 0.0
Tb1595 Tb 0.85626 0.68936 0.70899 0.0
N1596 N 0.9279 0.75359 0.71307 0.0
C1597 C 0.97002 0.75359 0.71346 0.0
C1598 C 0.01113 0.83273 0.72438 0.0
C1599 C 0.01202 0.79295 0.71921 0.0
H1600 H 0.76864 0.71042 0.72231 0.0
H1601 H 0.0451 0.79251 0.71977 0.0
H1602 H 0.99714 0.90341 0.73362 0.0
H1603 H 0.7602 0.77621 0.73415 0.0
H1604 H 0.97171 0.72324 0.70989 0.0
H1605 H 0.63845 0.53214 0.64077 0.0
H1606 H 0.04374 0.86304 0.72912 0.0
H1607 H 0.91521 0.61455 0.63835 0.0
H1608 H 0.71219 0.60238 0.64922 0.0
H1609 H 0.92357 0.54777 0.62845 0.0
H1610 H 0.91958 0.89922 0.73695 0.0
H1611 H 0.63981 0.461 0.63332 0.0
H1612 H 0.68656 0.42051 0.6301 0.0
H1613 H 0.83116 0.85181 0.7377 0.0
H1614 H 0.76412 0.42449 0.62752 0.0
N1615 N 0.75581 0.57177 0.64703 0.0
C1616 C 0.71371 0.57173 0.64639 0.0
C1617 C 0.67249 0.49173 0.63738 0.0
C1618 C 0.71559 0.49188 0.63801 0.0
C1619 C 0.6716 0.53185 0.64148 0.0
C1620 C 0.75732 0.5331 0.64254 0.0
H1621 H 0.85261 0.47191 0.6264 0.0
N1622 N 0.84063 0.57643 0.64327 0.0
C1623 C 0.88897 0.5438 0.63206 0.0
C1624 C 0.80102 0.53537 0.64081 0.0
C1625 C 0.88417 0.58153 0.6376 0.0
C1626 C 0.84882 0.501 0.631 0.0
C1627 C 0.80409 0.49648 0.63487 0.0
O1628 O 0.86773 0.65434 0.61803 0.0
O1629 O 0.88604 0.68542 0.67391 0.0
O1630 O 0.83339 0.72672 0.68356 0.0
O1631 O 0.78533 0.66871 0.65714 0.0
O1632 O 0.8785 0.70495 0.63998 0.0
O1633 O 0.79342 0.63346 0.61685 0.0
O1634 O 0.81854 0.67292 0.74278 0.0
O1635 O 0.79733 0.64023 0.68578 0.0
O1636 O 0.84935 0.59854 0.67688 0.0
O1637 O 0.89922 0.65778 0.70169 0.0
O1638 O 0.8042 0.62066 0.71975 0.0
O1639 O 0.89062 0.68596 0.74127 0.0
C1640 C 0.90494 0.71847 0.65908 0.0
C1641 C 0.829 0.62582 0.57955 0.0
C1642 C 0.83449 0.63149 0.53409 0.0
C1643 C 0.83228 0.64951 0.55734 0.0
C1644 C 0.83265 0.58933 0.53337 0.0
C1645 C 0.82656 0.5835 0.57808 0.0
C1646 C 0.82828 0.56542 0.55519 0.0
C1647 C 0.80217 0.71057 0.66521 0.0
C1648 C 0.8321 0.64731 0.60392 0.0
C1649 C 0.76249 0.45483 0.63185 0.0
C1650 C 0.71833 0.45258 0.6333 0.0
C1651 C 0.77775 0.60731 0.70069 0.0
C1652 C 0.86375 0.69775 0.77998 0.0
C1653 C 0.84383 0.67118 0.80144 0.0
C1654 C 0.85535 0.6911 0.82513 0.0
C1655 C 0.88631 0.73779 0.82715 0.0
C1656 C 0.89459 0.74437 0.78251 0.0
C1657 C 0.90555 0.76423 0.80595 0.0
C1658 C 0.88137 0.61531 0.69477 0.0
C1659 C 0.85417 0.67575 0.75543 0.0
H1660 H 0.83444 0.68237 0.55818 0.0
H1661 H 0.83401 0.5746 0.51583 0.0
H1662 H 0.82407 0.5646 0.59455 0.0
H1663 H 0.82662 0.53282 0.55437 0.0
H1664 H 0.82031 0.63504 0.79975 0.0
H1665 H 0.89561 0.75375 0.84518 0.0
H1666 H 0.91083 0.76535 0.76649 0.0
H1667 H 0.9295 0.80022 0.8077 0.0
Tb1668 Tb 0.36969 0.17616 0.65392 0.0
C1669 C 0.20153 0.11469 0.72457 0.0
C1670 C 0.18795 0.17829 0.72895 0.0
C1671 C 0.12449 0.10216 0.73781 0.0
C1672 C 0.2178 0.16062 0.7228 0.0
C1673 C 0.1549 0.08494 0.73245 0.0
C1674 C 0.14111 0.14879 0.73625 0.0
C1675 C 0.17389 0.02449 0.73245 0.0
N1676 N 0.23259 0.09963 0.72033 0.0
C1677 C 0.22005 0.05547 0.72515 0.0
C1678 C 0.14099 0.03918 0.73584 0.0
Tb1679 Tb 0.30824 0.15382 0.71091 0.0
N1680 N 0.26336 0.18814 0.71587 0.0
C1681 C 0.2813 0.23399 0.71476 0.0
C1682 C 0.2061 0.22513 0.72771 0.0
C1683 C 0.25288 0.25303 0.7204 0.0
H1684 H 0.2454 0.04393 0.72284 0.0
H1685 H 0.26726 0.2893 0.71939 0.0
H1686 H 0.11768 0.16183 0.74094 0.0
H1687 H 0.16382 0.9894 0.73563 0.0
H1688 H 0.31767 0.25633 0.70978 0.0
H1689 H 0.40701 0.03718 0.64997 0.0
H1690 H 0.18425 0.24002 0.73223 0.0
H1691 H 0.43567 0.28485 0.63989 0.0
H1692 H 0.35693 0.07161 0.65534 0.0
H1693 H 0.51833 0.33729 0.62804 0.0
H1694 H 0.0885 0.07988 0.74385 0.0
H1695 H 0.49203 0.08485 0.64046 0.0
H1696 H 0.56033 0.16186 0.63185 0.0
H1697 H 0.10545 0.01523 0.74183 0.0
H1698 H 0.59119 0.24379 0.62629 0.0
N1699 N 0.41268 0.13938 0.64928 0.0
C1700 C 0.39373 0.09341 0.65107 0.0
C1701 C 0.47006 0.10041 0.64267 0.0
C1702 C 0.489 0.14712 0.64 0.0
C1703 C 0.42214 0.07343 0.64806 0.0
C1704 C 0.45896 0.16572 0.64324 0.0
H1705 H 0.57561 0.30946 0.62466 0.0
N1706 N 0.44612 0.22788 0.64389 0.0
C1707 C 0.50711 0.30208 0.63173 0.0
C1708 C 0.47643 0.21165 0.64075 0.0
C1709 C 0.46026 0.27222 0.63851 0.0
C1710 C 0.53934 0.28626 0.62987 0.0
C1711 C 0.52404 0.2404 0.63407 0.0
O1712 O 0.36095 0.20508 0.62119 0.0
O1713 O 0.30947 0.17513 0.67271 0.0
O1714 O 0.25694 0.10665 0.68424 0.0
O1715 O 0.30991 0.10621 0.6556 0.0
O1716 O 0.35467 0.23201 0.65485 0.0
O1717 O 0.3476 0.13653 0.62149 0.0
O1718 O 0.3176 0.12646 0.74401 0.0
O1719 O 0.36705 0.15523 0.69169 0.0
O1720 O 0.42111 0.22312 0.68047 0.0
O1721 O 0.36869 0.22391 0.70952 0.0
O1722 O 0.32955 0.10163 0.71385 0.0
O1723 O 0.32744 0.19404 0.74317 0.0
C1724 C 0.31373 0.21243 0.66527 0.0
C1725 C 0.37284 0.17677 0.58358 0.0
C1726 C 0.36623 0.1673 0.53878 0.0
C1727 C 0.34499 0.15809 0.5623 0.0
C1728 C 0.41536 0.19459 0.53661 0.0
C1729 C 0.42202 0.20391 0.58101 0.0
C1730 C 0.44313 0.21256 0.5577 0.0
C1731 C 0.26677 0.08853 0.66506 0.0
C1732 C 0.34971 0.16927 0.60796 0.0
C1733 C 0.55437 0.22225 0.6312 0.0
C1734 C 0.53686 0.17567 0.63425 0.0
C1735 C 0.36727 0.12091 0.70059 0.0
C1736 C 0.30363 0.15388 0.78132 0.0
C1737 C 0.33133 0.17285 0.80262 0.0
C1738 C 0.31034 0.16193 0.8262 0.0
C1739 C 0.26148 0.1329 0.82841 0.0
C1740 C 0.2548 0.12468 0.78394 0.0
C1741 C 0.23382 0.11462 0.80731 0.0
C1742 C 0.4118 0.24125 0.69986 0.0
C1743 C 0.32689 0.16218 0.75696 0.0
H1744 H 0.30691 0.13734 0.56396 0.0
H1745 H 0.43215 0.202 0.51858 0.0
H1746 H 0.44427 0.21907 0.59679 0.0
H1747 H 0.48107 0.23368 0.55596 0.0
H1748 H 0.36923 0.19482 0.80093 0.0
H1749 H 0.24488 0.12415 0.84648 0.0
H1750 H 0.23287 0.1087 0.76817 0.0
H1751 H 0.19615 0.09193 0.80908 0.0
Tb1752 Tb 0.8573 0.15608 0.71218 0.0
C1753 C 0.77132 0.22758 0.63801 0.0
C1754 C 0.68798 0.17254 0.63607 0.0
C1755 C 0.71476 0.25103 0.62527 0.0
C1756 C 0.73501 0.18391 0.64148 0.0
C1757 C 0.76177 0.26153 0.62937 0.0
C1758 C 0.67798 0.20653 0.62842 0.0
C1759 C 0.84591 0.31162 0.62568 0.0
N1760 N 0.81637 0.23581 0.64109 0.0
C1761 C 0.85362 0.27666 0.6339 0.0
C1762 C 0.79981 0.30426 0.62378 0.0
Tb1763 Tb 0.82486 0.17478 0.65218 0.0
N1764 N 0.74616 0.15193 0.6485 0.0
C1765 C 0.71177 0.10752 0.65019 0.0
C1766 C 0.65273 0.12713 0.63765 0.0
C1767 C 0.66462 0.09454 0.64495 0.0
H1768 H 0.88945 0.28282 0.63481 0.0
H1769 H 0.63756 0.05935 0.64631 0.0
H1770 H 0.64214 0.19857 0.62424 0.0
H1771 H 0.87555 0.34411 0.62064 0.0
H1772 H 0.72053 0.08183 0.65541 0.0
H1773 H 0.04774 0.26213 0.71472 0.0
H1774 H 0.6163 0.11687 0.63316 0.0
H1775 H 0.78729 0.05059 0.73327 0.0
H1776 H 0.96601 0.247 0.71015 0.0
H1777 H 0.7974 0.98674 0.7478 0.0
H1778 H 0.70664 0.27664 0.61872 0.0
H1779 H 0.06374 0.19956 0.72396 0.0
H1780 H 0.0322 0.1173 0.73338 0.0
H1781 H 0.79394 0.33122 0.61709 0.0
H1782 H 0.96427 0.0423 0.74191 0.0
N1783 N 0.93512 0.17577 0.71587 0.0
C1784 C 0.97202 0.21908 0.71403 0.0
C1785 C 0.02754 0.19253 0.72191 0.0
C1786 C 0.98962 0.14864 0.725 0.0
C1787 C 0.01866 0.22795 0.71671 0.0
C1788 C 0.94313 0.14119 0.72205 0.0
H1789 H 0.87681 0.99364 0.74788 0.0
N1790 N 0.86029 0.09282 0.72456 0.0
C1791 C 0.82774 0.01777 0.74157 0.0
C1792 C 0.90467 0.09837 0.7262 0.0
C1793 C 0.82217 0.054 0.73343 0.0
C1794 C 0.87263 0.02176 0.7415 0.0
C1795 C 0.91188 0.06264 0.73426 0.0
O1796 O 0.81887 0.1336 0.74538 0.0
O1797 O 0.79686 0.14205 0.68779 0.0
O1798 O 0.83161 0.22879 0.6767 0.0
O1799 O 0.88535 0.22823 0.70491 0.0
O1800 O 0.79701 0.16491 0.72183 0.0
O1801 O 0.88874 0.19326 0.74465 0.0
O1802 O 0.86636 0.18777 0.61994 0.0
O1803 O 0.87929 0.16941 0.67358 0.0
O1804 O 0.83898 0.09442 0.69087 0.0
O1805 O 0.80399 0.10331 0.65511 0.0
O1806 O 0.90037 0.22281 0.65052 0.0
O1807 O 0.79347 0.138 0.61942 0.0
C1808 C 0.77216 0.15176 0.70218 0.0
C1809 C 0.86177 0.15396 0.78325 0.0
C1810 C 0.85522 0.1569 0.82824 0.0
C1811 C 0.85013 0.17076 0.80434 0.0
C1812 C 0.87228 0.12636 0.8309 0.0
C1813 C 0.87996 0.12444 0.78646 0.0
C1814 C 0.88498 0.1106 0.8101 0.0
C1815 C 0.8619 0.24719 0.69519 0.0
C1816 C 0.85239 0.16611 0.75835 0.0
C1817 C 0.95807 0.06952 0.73609 0.0
C1818 C 0.99681 0.11234 0.73137 0.0
C1819 C 0.91618 0.20235 0.66434 0.0
C1820 C 0.82757 0.17534 0.5815 0.0
C1821 C 0.83909 0.1587 0.56031 0.0
C1822 C 0.83836 0.17607 0.53663 0.0
C1823 C 0.82605 0.21016 0.53439 0.0
C1824 C 0.81407 0.20848 0.57863 0.0
C1825 C 0.81361 0.22595 0.55528 0.0
C1826 C 0.81691 0.07962 0.66941 0.0
C1827 C 0.83171 0.15917 0.60635 0.0
H1828 H 0.83636 0.19389 0.80217 0.0
H1829 H 0.8766 0.1154 0.84912 0.0
H1830 H 0.89014 0.11175 0.77093 0.0
H1831 H 0.89874 0.08752 0.81227 0.0
H1832 H 0.84914 0.13275 0.56225 0.0
H1833 H 0.82491 0.22378 0.51638 0.0
H1834 H 0.80398 0.22108 0.59429 0.0
H1835 H 0.8034 0.25173 0.55338 0.0
loop_
_geom_bond_atom_site_label_1
_geom_bond_atom_site_label_2
_geom_bond_distance
_geom_bond_site_symmetry_2
_ccdc_geom_bond_type
C0 C1 1.391 . S
C0 C4 1.391 . S
C0 H42 0.948 . S
C1 C0 1.391 . S
C1 C2 1.391 . S
C2 C1 1.391 . S
C2 H58 0.947 . S
C2 C59 1.392 . S
C3 C4 1.391 . S
C3 C7 1.397 . S
C3 C59 1.419 . S
C4 C0 1.391 . S
C4 C3 1.391 . S
C4 C5 1.399 . S
C5 C4 1.399 . S
C5 C8 1.396 . S
C5 C17 1.453 . S
C5 C18 1.684 . S
H6 C30 0.948 . S
C7 C3 1.397 . S
C7 C8 1.394 . S
C7 C26 1.723 . S
C8 C5 1.396 . S
C8 C7 1.394 . S
C8 C38 1.723 . S
H9 C32 0.946 1_565 S
H10 C33 0.948 . S
H11 C39 0.982 . S
H12 C40 0.981 1_565 S
H13 C40 0.983 . S
H14 C40 0.972 1_565 S
H15 C39 0.979 . S
H16 C39 0.977 . S
C17 C5 1.453 . S
C17 H46 0.982 . S
C17 H47 0.979 . S
C17 H48 0.977 . S
C18 C5 1.684 . S
C18 H43 0.979 . S
C18 H44 0.980 . S
C18 H45 0.983 . S
C19 C20 1.391 . S
C19 C24 1.391 . S
C19 H49 0.948 . S
C20 C19 1.391 . S
C20 C21 1.391 . S
C21 C20 1.391 . S
C21 C22 1.392 . S
C21 H50 0.947 . S
C22 C21 1.392 . S
C22 C23 1.419 . S
C22 H51 0.948 . S
C23 C22 1.419 . S
C23 C24 1.391 . S
C23 C27 1.397 . S
C24 C19 1.391 . S
C24 C23 1.391 . S
C24 C25 1.399 . S
C25 C24 1.399 . S
C25 C26 1.396 . S
C25 C28 1.453 . S
C25 C29 1.684 . S
C26 C7 1.723 . S
C26 C25 1.396 . S
C26 C27 1.394 . S
C27 C23 1.397 . S
C27 C26 1.394 . S
C27 C37 1.723 . S
C28 C25 1.453 . S
C28 H52 0.982 . S
C28 H53 0.979 . S
C28 H54 0.977 . S
C29 C25 1.684 . S
C29 H55 0.979 . S
C29 H56 0.980 . S
C29 H57 0.983 . S
C30 H6 0.948 . S
C30 C31 1.391 . S
C30 C35 1.391 1_565 S
C31 C30 1.391 . S
C31 C32 1.375 1_565 S
C32 H9 0.946 1_545 S
C32 C31 1.375 1_545 S
C32 C33 1.410 . S
C33 H10 0.948 . S
C33 C32 1.410 . S
C33 C34 1.419 . S
C34 C33 1.419 . S
C34 C35 1.391 . S
C34 C38 1.397 . S
C35 C30 1.391 1_545 S
C35 C34 1.391 . S
C35 C36 1.399 . S
C36 C35 1.399 . S
C36 C37 1.396 . S
C36 C39 1.453 . S
C36 C40 1.689 . S
C37 C27 1.723 . S
C37 C36 1.396 . S
C37 C38 1.394 . S
C38 C8 1.723 . S
C38 C34 1.397 . S
C38 C37 1.394 . S
C39 H11 0.982 . S
C39 H15 0.979 . S
C39 H16 0.977 . S
C39 C36 1.453 . S
C40 H12 0.981 1_545 S
C40 H13 0.983 . S
C40 H14 0.972 1_545 S
C40 C36 1.689 . S
H41 C59 0.948 . S
H42 C0 0.948 . S
H43 C18 0.979 . S
H44 C18 0.980 . S
H45 C18 0.983 . S
H46 C17 0.982 . S
H47 C17 0.979 . S
H48 C17 0.977 . S
H49 C19 0.948 . S
H50 C21 0.947 . S
H51 C22 0.948 . S
H52 C28 0.982 . S
H53 C28 0.979 . S
H54 C28 0.977 . S
H55 C29 0.979 . S
H56 C29 0.980 . S
H57 C29 0.983 . S
H58 C2 0.947 . S
C59 C2 1.392 . S
C59 C3 1.419 . S
C59 H41 0.948 . S
C60 C61 1.391 . S
C60 C64 1.391 1_455 S
C60 H102 0.948 . S
C61 C60 1.391 . S
C61 C62 1.391 . S
C62 C61 1.391 . S
C62 H118 0.947 . S
C62 C119 1.378 1_455 S
C63 C64 1.391 . S
C63 C67 1.397 . S
C63 C119 1.426 . S
C64 C60 1.391 1_655 S
C64 C63 1.391 . S
C64 C65 1.399 . S
C65 C64 1.399 . S
C65 C68 1.396 . S
C65 C77 1.453 . S
C65 C78 1.684 . S
H66 C90 0.948 . S
C67 C63 1.397 . S
C67 C68 1.394 . S
C67 C86 1.723 . S
C68 C65 1.396 . S
C68 C67 1.394 . S
C68 C98 1.723 . S
H69 C92 0.940 1_565 S
H70 C93 0.948 . S
H71 C99 0.982 . S
H72 C100 0.979 . S
H73 C100 0.980 . S
H74 C100 0.983 . S
H75 C99 0.979 1_565 S
H76 C99 0.977 . S
C77 C65 1.453 . S
C77 H106 0.982 . S
C77 H107 0.979 . S
C77 H108 0.977 . S
C78 C65 1.684 . S
C78 H103 0.979 . S
C78 H104 0.980 . S
C78 H105 0.983 . S
C79 C80 1.391 . S
C79 C84 1.391 . S
C79 H109 0.948 . S
C80 C79 1.391 . S
C80 C81 1.391 . S
C81 C80 1.391 . S
C81 C82 1.392 . S
C81 H110 0.947 . S
C82 C81 1.392 . S
C82 C83 1.419 . S
C82 H111 0.948 . S
C83 C82 1.419 . S
C83 C84 1.391 . S
C83 C87 1.397 . S
C84 C79 1.391 . S
C84 C83 1.391 . S
C84 C85 1.399 . S
C85 C84 1.399 . S
C85 C86 1.396 . S
C85 C88 1.453 . S
C85 C89 1.684 . S
C86 C67 1.723 . S
C86 C85 1.396 . S
C86 C87 1.394 . S
C87 C83 1.397 . S
C87 C86 1.394 . S
C87 C97 1.723 . S
C88 C85 1.453 . S
C88 H112 0.982 . S
C88 H113 0.979 . S
C88 H114 0.977 . S
C89 C85 1.684 . S
C89 H115 0.979 . S
C89 H116 0.980 . S
C89 H117 0.983 . S
C90 H66 0.948 . S
C90 C91 1.391 . S
C90 C95 1.391 1_565 S
C91 C90 1.391 . S
C91 C92 1.384 1_565 S
C92 H69 0.940 1_545 S
C92 C91 1.384 1_545 S
C92 C93 1.406 . S
C93 H70 0.948 . S
C93 C92 1.406 . S
C93 C94 1.419 . S
C94 C93 1.419 . S
C94 C95 1.391 . S
C94 C98 1.397 . S
C95 C90 1.391 1_545 S
C95 C94 1.391 . S
C95 C96 1.399 . S
C96 C95 1.399 . S
C96 C97 1.396 . S
C96 C99 1.453 . S
C96 C100 1.684 . S
C97 C87 1.723 . S
C97 C96 1.396 . S
C97 C98 1.394 . S
C98 C68 1.723 . S
C98 C94 1.397 . S
C98 C97 1.394 . S
C99 H71 0.982 . S
C99 H75 0.979 1_545 S
C99 H76 0.977 . S
C99 C96 1.453 . S
C100 H72 0.979 . S
C100 H73 0.980 . S
C100 H74 0.983 . S
C100 C96 1.684 . S
H101 C119 0.956 . S
H102 C60 0.948 . S
H103 C78 0.979 . S
H104 C78 0.980 . S
H105 C78 0.983 . S
H106 C77 0.982 . S
H107 C77 0.979 . S
H108 C77 0.977 . S
H109 C79 0.948 . S
H110 C81 0.947 . S
H111 C82 0.948 . S
H112 C88 0.982 . S
H113 C88 0.979 . S
H114 C88 0.977 . S
H115 C89 0.979 . S
H116 C89 0.980 . S
H117 C89 0.983 . S
H118 C62 0.947 . S
C119 C62 1.378 1_655 S
C119 C63 1.426 . S
C119 H101 0.956 . S
C120 C121 1.391 . S
C120 C124 1.391 1_455 S
C120 H162 0.948 . S
C121 C120 1.391 . S
C121 C122 1.391 . S
C122 C121 1.391 . S
C122 H178 0.947 . S
C122 C179 1.392 . S
C123 C124 1.391 . S
C123 C127 1.397 . S
C123 C179 1.419 1_655 S
C124 C120 1.391 1_655 S
C124 C123 1.391 . S
C124 C125 1.399 . S
C125 C124 1.399 . S
C125 C128 1.396 . S
C125 C137 1.453 . S
C125 C138 1.684 . S
H126 C150 0.948 . S
C127 C123 1.397 . S
C127 C128 1.394 . S
C127 C146 1.723 . S
C128 C125 1.396 . S
C128 C127 1.394 . S
C128 C158 1.723 . S
H129 C152 0.947 . S
H130 C153 0.948 . S
H131 C159 0.982 . S
H132 C160 0.979 . S
H133 C160 0.980 . S
H134 C160 0.983 . S
H135 C159 0.979 . S
H136 C159 0.977 . S
C137 C125 1.453 . S
C137 H166 0.982 . S
C137 H167 0.979 . S
C137 H168 0.977 . S
C138 C125 1.684 . S
C138 H163 0.979 . S
C138 H164 0.980 . S
C138 H165 0.983 . S
C139 C140 1.391 . S
C139 C144 1.391 . S
C139 H169 0.948 . S
C140 C139 1.391 . S
C140 C141 1.391 . S
C141 C140 1.391 . S
C141 C142 1.392 . S
C141 H170 0.947 . S
C142 C141 1.392 . S
C142 C143 1.419 . S
C142 H171 0.948 . S
C143 C142 1.419 . S
C143 C144 1.391 . S
C143 C147 1.397 . S
C144 C139 1.391 . S
C144 C143 1.391 . S
C144 C145 1.399 . S
C145 C144 1.399 . S
C145 C146 1.396 . S
C145 C148 1.453 . S
C145 C149 1.684 . S
C146 C127 1.723 . S
C146 C145 1.396 . S
C146 C147 1.394 . S
C147 C143 1.397 . S
C147 C146 1.394 . S
C147 C157 1.723 . S
C148 C145 1.453 . S
C148 H172 0.982 . S
C148 H173 0.979 . S
C148 H174 0.977 . S
C149 C145 1.684 . S
C149 H175 0.979 . S
C149 H176 0.980 1_655 S
C149 H177 0.983 . S
C150 H126 0.948 . S
C150 C151 1.391 . S
C150 C155 1.391 . S
C151 C150 1.391 . S
C151 C152 1.391 . S
C152 H129 0.947 . S
C152 C151 1.391 . S
C152 C153 1.392 . S
C153 H130 0.948 . S
C153 C152 1.392 . S
C153 C154 1.419 . S
C154 C153 1.419 . S
C154 C155 1.391 . S
C154 C158 1.397 . S
C155 C150 1.391 . S
C155 C154 1.391 . S
C155 C156 1.399 . S
C156 C155 1.399 . S
C156 C157 1.396 . S
C156 C159 1.453 . S
C156 C160 1.684 . S
C157 C147 1.723 . S
C157 C156 1.396 . S
C157 C158 1.394 . S
C158 C128 1.723 . S
C158 C154 1.397 . S
C158 C157 1.394 . S
C159 H131 0.982 . S
C159 H135 0.979 . S
C159 H136 0.977 . S
C159 C156 1.453 . S
C160 H132 0.979 . S
C160 H133 0.980 . S
C160 H134 0.983 . S
C160 C156 1.684 . S
H161 C179 0.948 . S
H162 C120 0.948 . S
H163 C138 0.979 . S
H164 C138 0.980 . S
H165 C138 0.983 . S
H166 C137 0.982 . S
H167 C137 0.979 . S
H168 C137 0.977 . S
H169 C139 0.948 . S
H170 C141 0.947 . S
H171 C142 0.948 . S
H172 C148 0.982 . S
H173 C148 0.979 . S
H174 C148 0.977 . S
H175 C149 0.979 . S
H176 C149 0.980 1_455 S
H177 C149 0.983 . S
H178 C122 0.947 . S
C179 C122 1.392 . S
C179 C123 1.419 1_455 S
C179 H161 0.948 . S
C180 C181 1.391 . S
C180 C184 1.391 . S
C180 H222 0.948 . S
C181 C180 1.391 . S
C181 C182 1.391 . S
C182 C181 1.391 . S
C182 H238 0.947 . S
C182 C239 1.392 . S
C183 C184 1.391 . S
C183 C187 1.397 . S
C183 C239 1.419 . S
C184 C180 1.391 . S
C184 C183 1.391 . S
C184 C185 1.399 . S
C185 C184 1.399 . S
C185 C188 1.396 . S
C185 C197 1.453 . S
C185 C198 1.684 . S
H186 C210 0.948 . S
C187 C183 1.397 . S
C187 C188 1.394 . S
C187 C206 1.723 . S
C188 C185 1.396 . S
C188 C187 1.394 . S
C188 C218 1.723 . S
H189 C212 0.947 . S
H190 C213 0.948 . S
H191 C219 0.982 . S
H192 C220 0.979 . S
H193 C220 0.972 1_455 S
H194 C220 0.983 . S
H195 C219 0.979 1_655 S
H196 C219 0.977 . S
C197 C185 1.453 . S
C197 H226 0.982 . S
C197 H227 0.979 . S
C197 H228 0.977 . S
C198 C185 1.684 . S
C198 H223 0.979 . S
C198 H224 0.980 . S
C198 H225 0.983 . S
C199 C200 1.391 . S
C199 C204 1.391 . S
C199 H229 0.948 . S
C200 C199 1.391 . S
C200 C201 1.391 . S
C201 C200 1.391 . S
C201 C202 1.392 . S
C201 H230 0.947 . S
C202 C201 1.392 . S
C202 C203 1.419 . S
C202 H231 0.948 . S
C203 C202 1.419 . S
C203 C204 1.391 . S
C203 C207 1.397 . S
C204 C199 1.391 . S
C204 C203 1.391 . S
C204 C205 1.399 . S
C205 C204 1.399 . S
C205 C206 1.396 . S
C205 C208 1.453 . S
C205 C209 1.684 . S
C206 C187 1.723 . S
C206 C205 1.396 . S
C206 C207 1.394 . S
C207 C203 1.397 . S
C207 C206 1.394 . S
C207 C217 1.723 . S
C208 C205 1.453 . S
C208 H232 0.982 . S
C208 H233 0.979 . S
C208 H234 0.977 . S
C209 C205 1.684 . S
C209 H235 0.979 . S
C209 H236 0.980 . S
C209 H237 0.983 . S
C210 H186 0.948 . S
C210 C211 1.391 . S
C210 C215 1.391 1_655 S
C211 C210 1.391 . S
C211 C212 1.391 . S
C212 H189 0.947 . S
C212 C211 1.391 . S
C212 C213 1.392 1_655 S
C213 H190 0.948 . S
C213 C212 1.392 1_455 S
C213 C214 1.419 . S
C214 C213 1.419 . S
C214 C215 1.391 . S
C214 C218 1.397 . S
C215 C210 1.391 1_455 S
C215 C214 1.391 . S
C215 C216 1.399 . S
C216 C215 1.399 . S
C216 C217 1.396 . S
C216 C219 1.453 . S
C216 C220 1.684 1_455 S
C217 C207 1.723 . S
C217 C216 1.396 . S
C217 C218 1.394 . S
C218 C188 1.723 . S
C218 C214 1.397 . S
C218 C217 1.394 . S
C219 H191 0.982 . S
C219 H195 0.979 1_455 S
C219 H196 0.977 . S
C219 C216 1.453 . S
C220 H192 0.979 . S
C220 H193 0.972 1_655 S
C220 H194 0.983 . S
C220 C216 1.684 1_655 S
H221 C239 0.948 . S
H222 C180 0.948 . S
H223 C198 0.979 . S
H224 C198 0.980 . S
H225 C198 0.983 . S
H226 C197 0.982 . S
H227 C197 0.979 . S
H228 C197 0.977 . S
H229 C199 0.948 . S
H230 C201 0.947 . S
H231 C202 0.948 . S
H232 C208 0.982 . S
H233 C208 0.979 . S
H234 C208 0.977 . S
H235 C209 0.979 . S
H236 C209 0.980 . S
H237 C209 0.983 . S
H238 C182 0.947 . S
C239 C182 1.392 . S
C239 C183 1.419 . S
C239 H221 0.948 . S
C240 C241 1.391 . S
C240 C244 1.391 . S
C240 H282 0.948 . S
C241 C240 1.391 . S
C241 C242 1.391 . S
C242 C241 1.391 . S
C242 H298 0.947 . S
C242 C299 1.392 . S
C243 C244 1.391 . S
C243 C247 1.397 . S
C243 C299 1.419 . S
C244 C240 1.391 . S
C244 C243 1.391 . S
C244 C245 1.399 . S
C245 C244 1.399 . S
C245 C248 1.396 . S
C245 C257 1.453 . S
C245 C258 1.684 . S
H246 C270 0.948 . S
C247 C243 1.397 . S
C247 C248 1.394 . S
C247 C266 1.723 . S
C248 C245 1.396 . S
C248 C247 1.394 . S
C248 C278 1.723 . S
H249 C272 0.947 1_545 S
H250 C273 0.948 . S
H251 C279 0.982 . S
H252 C280 0.979 . S
H253 C280 0.980 . S
H254 C280 0.983 . S
H255 C279 0.979 1_545 S
H256 C279 0.977 . S
C257 C245 1.453 . S
C257 H286 0.982 . S
C257 H287 0.979 . S
C257 H288 0.977 . S
C258 C245 1.684 . S
C258 H283 0.979 . S
C258 H284 0.980 . S
C258 H285 0.983 . S
C259 C260 1.391 . S
C259 C264 1.391 . S
C259 H289 0.948 . S
C260 C259 1.391 . S
C260 C261 1.391 . S
C261 C260 1.391 . S
C261 C262 1.392 . S
C261 H290 0.947 . S
C262 C261 1.392 . S
C262 C263 1.419 . S
C262 H291 0.948 . S
C263 C262 1.419 . S
C263 C264 1.391 . S
C263 C267 1.397 . S
C264 C259 1.391 . S
C264 C263 1.391 . S
C264 C265 1.399 . S
C265 C264 1.399 . S
C265 C266 1.396 . S
C265 C268 1.453 . S
C265 C269 1.684 . S
C266 C247 1.723 . S
C266 C265 1.396 . S
C266 C267 1.394 . S
C267 C263 1.397 . S
C267 C266 1.394 . S
C267 C277 1.723 . S
C268 C265 1.453 . S
C268 H292 0.982 . S
C268 H293 0.979 . S
C268 H294 0.977 . S
C269 C265 1.684 . S
C269 H295 0.979 . S
C269 H296 0.980 . S
C269 H297 0.983 . S
C270 H246 0.948 . S
C270 C271 1.391 . S
C270 C275 1.391 1_545 S
C271 C270 1.391 . S
C271 C272 1.391 1_545 S
C272 H249 0.947 1_565 S
C272 C271 1.391 1_565 S
C272 C273 1.392 . S
C273 H250 0.948 . S
C273 C272 1.392 . S
C273 C274 1.419 . S
C274 C273 1.419 . S
C274 C275 1.391 . S
C274 C278 1.397 . S
C275 C270 1.391 1_565 S
C275 C274 1.391 . S
C275 C276 1.399 . S
C276 C275 1.399 . S
C276 C277 1.396 . S
C276 C279 1.453 . S
C276 C280 1.684 . S
C277 C267 1.723 . S
C277 C276 1.396 . S
C277 C278 1.394 . S
C278 C248 1.723 . S
C278 C274 1.397 . S
C278 C277 1.394 . S
C279 H251 0.982 . S
C279 H255 0.979 1_565 S
C279 H256 0.977 . S
C279 C276 1.453 . S
C280 H252 0.979 . S
C280 H253 0.980 . S
C280 H254 0.983 . S
C280 C276 1.684 . S
H281 C299 0.948 . S
H282 C240 0.948 . S
H283 C258 0.979 . S
H284 C258 0.980 . S
H285 C258 0.983 . S
H286 C257 0.982 . S
H287 C257 0.979 . S
H288 C257 0.977 . S
H289 C259 0.948 . S
H290 C261 0.947 . S
H291 C262 0.948 . S
H292 C268 0.982 . S
H293 C268 0.979 . S
H294 C268 0.977 . S
H295 C269 0.979 . S
H296 C269 0.980 . S
H297 C269 0.983 . S
H298 C242 0.947 . S
C299 C242 1.392 . S
C299 C243 1.419 . S
C299 H281 0.948 . S
C300 C301 1.391 . S
C300 C304 1.391 1_655 S
C300 H342 0.948 . S
C301 C300 1.391 . S
C301 C302 1.391 . S
C302 C301 1.391 . S
C302 H358 0.947 . S
C302 C359 1.392 . S
C303 C304 1.391 . S
C303 C307 1.397 . S
C303 C359 1.419 1_455 S
C304 C300 1.391 1_455 S
C304 C303 1.391 . S
C304 C305 1.399 . S
C305 C304 1.399 . S
C305 C308 1.396 . S
C305 C317 1.453 . S
C305 C318 1.684 . S
H306 C330 0.948 . S
C307 C303 1.397 . S
C307 C308 1.394 . S
C307 C326 1.723 . S
C308 C305 1.396 . S
C308 C307 1.394 . S
C308 C338 1.723 . S
H309 C332 0.947 . S
H310 C333 0.948 . S
H311 C339 0.982 . S
H312 C340 0.979 . S
H313 C340 0.980 1_565 S
H314 C340 0.983 . S
H315 C339 0.979 . S
H316 C339 0.977 . S
C317 C305 1.453 . S
C317 H346 0.982 . S
C317 H347 0.979 . S
C317 H348 0.977 . S
C318 C305 1.684 . S
C318 H343 0.979 . S
C318 H344 0.980 . S
C318 H345 0.983 . S
C319 C320 1.391 . S
C319 C324 1.391 . S
C319 H349 0.948 . S
C320 C319 1.391 . S
C320 C321 1.391 . S
C321 C320 1.391 . S
C321 C322 1.392 . S
C321 H350 0.947 . S
C322 C321 1.392 . S
C322 C323 1.419 . S
C322 H351 0.948 . S
C323 C322 1.419 . S
C323 C324 1.391 . S
C323 C327 1.397 . S
C324 C319 1.391 . S
C324 C323 1.391 . S
C324 C325 1.399 . S
C325 C324 1.399 . S
C325 C326 1.396 . S
C325 C328 1.453 . S
C325 C329 1.684 . S
C326 C307 1.723 . S
C326 C325 1.396 . S
C326 C327 1.394 . S
C327 C323 1.397 . S
C327 C326 1.394 . S
C327 C337 1.723 . S
C328 C325 1.453 . S
C328 H352 0.982 . S
C328 H353 0.979 . S
C328 H354 0.977 . S
C329 C325 1.684 . S
C329 H355 0.979 . S
C329 H356 0.980 1_455 S
C329 H357 0.983 . S
C330 H306 0.948 . S
C330 C331 1.391 . S
C330 C335 1.391 1_545 S
C331 C330 1.391 . S
C331 C332 1.391 . S
C332 H309 0.947 . S
C332 C331 1.391 . S
C332 C333 1.392 1_545 S
C333 H310 0.948 . S
C333 C332 1.392 1_565 S
C333 C334 1.419 . S
C334 C333 1.419 . S
C334 C335 1.391 . S
C334 C338 1.397 . S
C335 C330 1.391 1_565 S
C335 C334 1.391 . S
C335 C336 1.399 . S
C336 C335 1.399 . S
C336 C337 1.396 . S
C336 C339 1.453 . S
C336 C340 1.684 1_565 S
C337 C327 1.723 . S
C337 C336 1.396 . S
C337 C338 1.394 . S
C338 C308 1.723 . S
C338 C334 1.397 . S
C338 C337 1.394 . S
C339 H311 0.982 . S
C339 H315 0.979 . S
C339 H316 0.977 . S
C339 C336 1.453 . S
C340 H312 0.979 . S
C340 H313 0.980 1_545 S
C340 H314 0.983 . S
C340 C336 1.684 1_545 S
H341 C359 0.948 . S
H342 C300 0.948 . S
H343 C318 0.979 . S
H344 C318 0.980 . S
H345 C318 0.983 . S
H346 C317 0.982 . S
H347 C317 0.979 . S
H348 C317 0.977 . S
H349 C319 0.948 . S
H350 C321 0.947 . S
H351 C322 0.948 . S
H352 C328 0.982 . S
H353 C328 0.979 . S
H354 C328 0.977 . S
H355 C329 0.979 . S
H356 C329 0.980 1_655 S
H357 C329 0.983 . S
H358 C302 0.947 . S
C359 C302 1.392 . S
C359 C303 1.419 1_655 S
C359 H341 0.948 . S
C360 C361 1.391 . S
C360 C364 1.391 . S
C360 H402 0.948 . S
C361 C360 1.391 . S
C361 C362 1.391 . S
C362 C361 1.391 . S
C362 H418 0.947 . S
C362 C419 1.392 . S
C363 C364 1.391 . S
C363 C367 1.397 . S
C363 C419 1.419 . S
C364 C360 1.391 . S
C364 C363 1.391 . S
C364 C365 1.399 . S
C365 C364 1.399 . S
C365 C368 1.396 . S
C365 C377 1.453 . S
C365 C378 1.684 . S
H366 C390 0.948 . S
C367 C363 1.397 . S
C367 C368 1.394 . S
C367 C386 1.723 . S
C368 C365 1.396 . S
C368 C367 1.394 . S
C368 C398 1.723 . S
H369 C392 0.947 . S
H370 C393 0.948 . S
H371 C399 0.982 . S
H372 C400 0.979 . S
H373 C400 0.980 . S
H374 C400 0.983 . S
H375 C399 0.979 . S
H376 C399 0.977 . S
C377 C365 1.453 . S
C377 H406 0.982 . S
C377 H407 0.979 . S
C377 H408 0.977 . S
C378 C365 1.684 . S
C378 H403 0.979 . S
C378 H404 0.980 . S
C378 H405 0.983 . S
C379 C380 1.391 . S
C379 C384 1.391 . S
C379 H409 0.948 . S
C380 C379 1.391 . S
C380 C381 1.391 . S
C381 C380 1.391 . S
C381 C382 1.392 . S
C381 H410 0.947 . S
C382 C381 1.392 . S
C382 C383 1.419 . S
C382 H411 0.948 . S
C383 C382 1.419 . S
C383 C384 1.391 . S
C383 C387 1.397 . S
C384 C379 1.391 . S
C384 C383 1.391 . S
C384 C385 1.399 . S
C385 C384 1.399 . S
C385 C386 1.396 . S
C385 C388 1.453 . S
C385 C389 1.684 . S
C386 C367 1.723 . S
C386 C385 1.396 . S
C386 C387 1.394 . S
C387 C383 1.397 . S
C387 C386 1.394 . S
C387 C397 1.723 . S
C388 C385 1.453 . S
C388 H412 0.982 . S
C388 H413 0.979 . S
C388 H414 0.977 . S
C389 C385 1.684 . S
C389 H415 0.979 . S
C389 H416 0.980 . S
C389 H417 0.983 . S
C390 H366 0.948 . S
C390 C391 1.391 . S
C390 C395 1.391 . S
C391 C390 1.391 . S
C391 C392 1.391 . S
C392 H369 0.947 . S
C392 C391 1.391 . S
C392 C393 1.392 . S
C393 H370 0.948 . S
C393 C392 1.392 . S
C393 C394 1.419 . S
C394 C393 1.419 . S
C394 C395 1.391 . S
C394 C398 1.397 . S
C395 C390 1.391 . S
C395 C394 1.391 . S
C395 C396 1.399 . S
C396 C395 1.399 . S
C396 C397 1.396 . S
C396 C399 1.453 . S
C396 C400 1.684 . S
C397 C387 1.723 . S
C397 C396 1.396 . S
C397 C398 1.394 . S
C398 C368 1.723 . S
C398 C394 1.397 . S
C398 C397 1.394 . S
C399 H371 0.982 . S
C399 H375 0.979 . S
C399 H376 0.977 . S
C399 C396 1.453 . S
C400 H372 0.979 . S
C400 H373 0.980 . S
C400 H374 0.983 . S
C400 C396 1.684 . S
H401 C419 0.948 . S
H402 C360 0.948 . S
H403 C378 0.979 . S
H404 C378 0.980 . S
H405 C378 0.983 . S
H406 C377 0.982 . S
H407 C377 0.979 . S
H408 C377 0.977 . S
H409 C379 0.948 . S
H410 C381 0.947 . S
H411 C382 0.948 . S
H412 C388 0.982 . S
H413 C388 0.979 . S
H414 C388 0.977 . S
H415 C389 0.979 . S
H416 C389 0.980 . S
H417 C389 0.983 . S
H418 C362 0.947 . S
C419 C362 1.392 . S
C419 C363 1.419 . S
C419 H401 0.948 . S
C420 C421 1.391 . S
C420 C424 1.391 . S
C420 H462 0.948 . S
C421 C420 1.391 . S
C421 C422 1.391 . S
C422 C421 1.391 . S
C422 H478 0.947 . S
C422 C479 1.392 . S
C423 C424 1.391 . S
C423 C427 1.397 . S
C423 C479 1.419 . S
C424 C420 1.391 . S
C424 C423 1.391 . S
C424 C425 1.399 . S
C425 C424 1.399 . S
C425 C428 1.396 . S
C425 C437 1.453 . S
C425 C438 1.684 . S
H426 C450 0.948 . S
C427 C423 1.397 . S
C427 C428 1.394 . S
C427 C446 1.723 . S
C428 C425 1.396 . S
C428 C427 1.394 . S
C428 C458 1.723 . S
H429 C452 0.947 . S
H430 C453 0.948 . S
H431 C459 0.982 . S
H432 C460 0.979 . S
H433 C460 0.980 . S
H434 C460 0.983 . S
H435 C459 0.979 . S
H436 C459 0.977 . S
C437 C425 1.453 . S
C437 H466 0.982 . S
C437 H467 0.979 . S
C437 H468 0.977 . S
C438 C425 1.684 . S
C438 H463 0.979 . S
C438 H464 0.980 . S
C438 H465 0.983 . S
C439 C440 1.391 . S
C439 C444 1.391 . S
C439 H469 0.948 . S
C440 C439 1.391 . S
C440 C441 1.391 . S
C441 C440 1.391 . S
C441 C442 1.392 . S
C441 H470 0.947 . S
C442 C441 1.392 . S
C442 C443 1.419 . S
C442 H471 0.948 . S
C443 C442 1.419 . S
C443 C444 1.391 . S
C443 C447 1.397 . S
C444 C439 1.391 . S
C444 C443 1.391 . S
C444 C445 1.399 . S
C445 C444 1.399 . S
C445 C446 1.396 . S
C445 C448 1.453 . S
C445 C449 1.684 . S
C446 C427 1.723 . S
C446 C445 1.396 . S
C446 C447 1.394 . S
C447 C443 1.397 . S
C447 C446 1.394 . S
C447 C457 1.723 . S
C448 C445 1.453 . S
C448 H472 0.982 . S
C448 H473 0.979 . S
C448 H474 0.977 . S
C449 C445 1.684 . S
C449 H475 0.979 . S
C449 H476 0.980 . S
C449 H477 0.983 . S
C450 H426 0.948 . S
C450 C451 1.391 . S
C450 C455 1.391 . S
C451 C450 1.391 . S
C451 C452 1.391 . S
C452 H429 0.947 . S
C452 C451 1.391 . S
C452 C453 1.392 . S
C453 H430 0.948 . S
C453 C452 1.392 . S
C453 C454 1.419 . S
C454 C453 1.419 . S
C454 C455 1.391 . S
C454 C458 1.397 . S
C455 C450 1.391 . S
C455 C454 1.391 . S
C455 C456 1.399 . S
C456 C455 1.399 . S
C456 C457 1.396 . S
C456 C459 1.453 . S
C456 C460 1.684 . S
C457 C447 1.723 . S
C457 C456 1.396 . S
C457 C458 1.394 . S
C458 C428 1.723 . S
C458 C454 1.397 . S
C458 C457 1.394 . S
C459 H431 0.982 . S
C459 H435 0.979 . S
C459 H436 0.977 . S
C459 C456 1.453 . S
C460 H432 0.979 . S
C460 H433 0.980 . S
C460 H434 0.983 . S
C460 C456 1.684 . S
H461 C479 0.948 . S
H462 C420 0.948 . S
H463 C438 0.979 . S
H464 C438 0.980 . S
H465 C438 0.983 . S
H466 C437 0.982 . S
H467 C437 0.979 . S
H468 C437 0.977 . S
H469 C439 0.948 . S
H470 C441 0.947 . S
H471 C442 0.948 . S
H472 C448 0.982 . S
H473 C448 0.979 . S
H474 C448 0.977 . S
H475 C449 0.979 . S
H476 C449 0.980 . S
H477 C449 0.983 . S
H478 C422 0.947 . S
C479 C422 1.392 . S
C479 C423 1.419 . S
C479 H461 0.948 . S
C480 C481 1.391 . S
C480 C484 1.391 . S
C480 H522 0.948 . S
C481 C480 1.391 . S
C481 C482 1.391 . S
C482 C481 1.391 . S
C482 H538 0.947 . S
C482 C539 1.392 . S
C483 C484 1.391 . S
C483 C487 1.397 . S
C483 C539 1.419 . S
C484 C480 1.391 . S
C484 C483 1.391 . S
C484 C485 1.399 . S
C485 C484 1.399 . S
C485 C488 1.396 . S
C485 C497 1.453 . S
C485 C498 1.684 . S
H486 C510 0.948 . S
C487 C483 1.397 . S
C487 C488 1.394 . S
C487 C506 1.723 . S
C488 C485 1.396 . S
C488 C487 1.394 . S
C488 C518 1.723 . S
H489 C512 0.947 . S
H490 C513 0.948 . S
H491 C519 0.982 . S
H492 C520 0.979 . S
H493 C520 0.980 . S
H494 C520 0.983 . S
H495 C519 0.979 . S
H496 C519 0.977 . S
C497 C485 1.453 . S
C497 H526 0.982 . S
C497 H527 0.979 . S
C497 H528 0.977 . S
C498 C485 1.684 . S
C498 H523 0.979 . S
C498 H524 0.980 . S
C498 H525 0.983 . S
C499 C500 1.391 . S
C499 C504 1.391 . S
C499 H529 0.948 . S
C500 C499 1.391 . S
C500 C501 1.391 . S
C501 C500 1.391 . S
C501 C502 1.392 . S
C501 H530 0.947 . S
C502 C501 1.392 . S
C502 C503 1.419 . S
C502 H531 0.948 . S
C503 C502 1.419 . S
C503 C504 1.391 . S
C503 C507 1.397 . S
C504 C499 1.391 . S
C504 C503 1.391 . S
C504 C505 1.399 . S
C505 C504 1.399 . S
C505 C506 1.396 . S
C505 C508 1.453 . S
C505 C509 1.684 . S
C506 C487 1.723 . S
C506 C505 1.396 . S
C506 C507 1.394 . S
C507 C503 1.397 . S
C507 C506 1.394 . S
C507 C517 1.723 . S
C508 C505 1.453 . S
C508 H532 0.982 . S
C508 H533 0.979 . S
C508 H534 0.977 . S
C509 C505 1.684 . S
C509 H535 0.979 . S
C509 H536 0.980 . S
C509 H537 0.983 . S
C510 H486 0.948 . S
C510 C511 1.391 . S
C510 C515 1.391 . S
C511 C510 1.391 . S
C511 C512 1.391 . S
C512 H489 0.947 . S
C512 C511 1.391 . S
C512 C513 1.392 . S
C513 H490 0.948 . S
C513 C512 1.392 . S
C513 C514 1.419 . S
C514 C513 1.419 . S
C514 C515 1.391 . S
C514 C518 1.397 . S
C515 C510 1.391 . S
C515 C514 1.391 . S
C515 C516 1.399 . S
C516 C515 1.399 . S
C516 C517 1.396 . S
C516 C519 1.453 . S
C516 C520 1.684 . S
C517 C507 1.723 . S
C517 C516 1.396 . S
C517 C518 1.394 . S
C518 C488 1.723 . S
C518 C514 1.397 . S
C518 C517 1.394 . S
C519 H491 0.982 . S
C519 H495 0.979 . S
C519 H496 0.977 . S
C519 C516 1.453 . S
C520 H492 0.979 . S
C520 H493 0.980 . S
C520 H494 0.983 . S
C520 C516 1.684 . S
H521 C539 0.948 . S
H522 C480 0.948 . S
H523 C498 0.979 . S
H524 C498 0.980 . S
H525 C498 0.983 . S
H526 C497 0.982 . S
H527 C497 0.979 . S
H528 C497 0.977 . S
H529 C499 0.948 . S
H530 C501 0.947 . S
H531 C502 0.948 . S
H532 C508 0.982 . S
H533 C508 0.979 . S
H534 C508 0.977 . S
H535 C509 0.979 . S
H536 C509 0.980 . S
H537 C509 0.983 . S
H538 C482 0.947 . S
C539 C482 1.392 . S
C539 C483 1.419 . S
C539 H521 0.948 . S
C540 C541 1.391 . S
C540 C544 1.391 . S
C540 H582 0.948 . S
C541 C540 1.391 . S
C541 C542 1.391 . S
C542 C541 1.391 . S
C542 H598 0.947 . S
C542 C599 1.392 . S
C543 C544 1.391 . S
C543 C547 1.397 . S
C543 C599 1.419 . S
C544 C540 1.391 . S
C544 C543 1.391 . S
C544 C545 1.399 . S
C545 C544 1.399 . S
C545 C548 1.396 . S
C545 C557 1.453 . S
C545 C558 1.684 . S
H546 C570 0.948 . S
C547 C543 1.397 . S
C547 C548 1.394 . S
C547 C566 1.723 . S
C548 C545 1.396 . S
C548 C547 1.394 . S
C548 C578 1.723 . S
H549 C572 0.947 1_554 S
H550 C573 0.948 . S
H551 C579 0.982 . S
H552 C580 0.979 . S
H553 C580 0.980 . S
H554 C580 0.983 . S
H555 C579 0.979 . S
H556 C579 0.977 . S
C557 C545 1.453 . S
C557 H586 0.982 . S
C557 H587 0.979 1_556 S
C557 H588 0.977 . S
C558 C545 1.684 . S
C558 H583 0.979 . S
C558 H584 0.980 . S
C558 H585 0.983 1_556 S
C559 C560 1.391 . S
C559 C564 1.391 . S
C559 H589 0.948 . S
C560 C559 1.391 . S
C560 C561 1.391 . S
C561 C560 1.391 . S
C561 C562 1.392 . S
C561 H590 0.947 . S
C562 C561 1.392 . S
C562 C563 1.419 . S
C562 H591 0.948 . S
C563 C562 1.419 . S
C563 C564 1.391 . S
C563 C567 1.397 . S
C564 C559 1.391 . S
C564 C563 1.391 . S
C564 C565 1.399 . S
C565 C564 1.399 . S
C565 C566 1.396 . S
C565 C568 1.453 . S
C565 C569 1.684 . S
C566 C547 1.723 . S
C566 C565 1.396 . S
C566 C567 1.394 . S
C567 C563 1.397 . S
C567 C566 1.394 . S
C567 C577 1.723 . S
C568 C565 1.453 . S
C568 H592 0.982 . S
C568 H593 0.979 . S
C568 H594 0.977 . S
C569 C565 1.684 . S
C569 H595 0.979 . S
C569 H596 0.980 . S
C569 H597 0.983 . S
C570 H546 0.948 . S
C570 C571 1.391 . S
C570 C575 1.391 . S
C571 C570 1.391 . S
C571 C572 1.391 . S
C572 H549 0.947 1_556 S
C572 C571 1.391 . S
C572 C573 1.392 . S
C573 H550 0.948 . S
C573 C572 1.392 . S
C573 C574 1.419 . S
C574 C573 1.419 . S
C574 C575 1.391 . S
C574 C578 1.397 . S
C575 C570 1.391 . S
C575 C574 1.391 . S
C575 C576 1.399 . S
C576 C575 1.399 . S
C576 C577 1.396 . S
C576 C579 1.453 . S
C576 C580 1.684 . S
C577 C567 1.723 . S
C577 C576 1.396 . S
C577 C578 1.394 . S
C578 C548 1.723 . S
C578 C574 1.397 . S
C578 C577 1.394 . S
C579 H551 0.982 . S
C579 H555 0.979 . S
C579 H556 0.977 . S
C579 C576 1.453 . S
C580 H552 0.979 . S
C580 H553 0.980 . S
C580 H554 0.983 . S
C580 C576 1.684 . S
H581 C599 0.948 . S
H582 C540 0.948 . S
H583 C558 0.979 . S
H584 C558 0.980 . S
H585 C558 0.983 1_554 S
H586 C557 0.982 . S
H587 C557 0.979 1_554 S
H588 C557 0.977 . S
H589 C559 0.948 . S
H590 C561 0.947 . S
H591 C562 0.948 . S
H592 C568 0.982 . S
H593 C568 0.979 . S
H594 C568 0.977 . S
H595 C569 0.979 . S
H596 C569 0.980 . S
H597 C569 0.983 . S
H598 C542 0.947 . S
C599 C542 1.392 . S
C599 C543 1.419 . S
C599 H581 0.948 . S
C600 C601 1.391 . S
C600 C604 1.391 . S
C600 H642 0.948 1_556 S
C601 C600 1.391 . S
C601 C602 1.391 . S
C602 C601 1.391 . S
C602 H658 0.947 . S
C602 C659 1.392 . S
C603 C604 1.391 . S
C603 C607 1.397 . S
C603 C659 1.419 . S
C604 C600 1.391 . S
C604 C603 1.391 . S
C604 C605 1.399 . S
C605 C604 1.399 . S
C605 C608 1.396 . S
C605 C617 1.453 . S
C605 C618 1.684 1_556 S
H606 C630 0.948 . S
C607 C603 1.397 . S
C607 C608 1.394 . S
C607 C626 1.723 . S
C608 C605 1.396 . S
C608 C607 1.394 . S
C608 C638 1.723 . S
H609 C632 0.947 1_554 S
H610 C633 0.948 . S
H611 C639 0.982 . S
H612 C640 0.979 . S
H613 C640 0.980 . S
H614 C640 0.983 . S
H615 C639 0.979 . S
H616 C639 0.977 . S
C617 C605 1.453 . S
C617 H646 0.982 . S
C617 H647 0.979 1_556 S
C617 H648 0.977 . S
C618 C605 1.684 1_554 S
C618 H643 0.979 . S
C618 H644 0.980 . S
C618 H645 0.983 . S
C619 C620 1.391 . S
C619 C624 1.391 . S
C619 H649 0.948 . S
C620 C619 1.391 . S
C620 C621 1.391 . S
C621 C620 1.391 . S
C621 C622 1.392 . S
C621 H650 0.947 . S
C622 C621 1.392 . S
C622 C623 1.419 . S
C622 H651 0.948 . S
C623 C622 1.419 . S
C623 C624 1.391 . S
C623 C627 1.397 . S
C624 C619 1.391 . S
C624 C623 1.391 . S
C624 C625 1.399 . S
C625 C624 1.399 . S
C625 C626 1.396 . S
C625 C628 1.453 . S
C625 C629 1.684 . S
C626 C607 1.723 . S
C626 C625 1.396 . S
C626 C627 1.394 . S
C627 C623 1.397 . S
C627 C626 1.394 . S
C627 C637 1.723 . S
C628 C625 1.453 . S
C628 H652 0.982 . S
C628 H653 0.979 . S
C628 H654 0.977 . S
C629 C625 1.684 . S
C629 H655 0.979 . S
C629 H656 0.980 . S
C629 H657 0.983 . S
C630 H606 0.948 . S
C630 C631 1.391 . S
C630 C635 1.391 . S
C631 C630 1.391 . S
C631 C632 1.391 . S
C632 H609 0.947 1_556 S
C632 C631 1.391 . S
C632 C633 1.392 . S
C633 H610 0.948 . S
C633 C632 1.392 . S
C633 C634 1.419 . S
C634 C633 1.419 . S
C634 C635 1.391 . S
C634 C638 1.397 . S
C635 C630 1.391 . S
C635 C634 1.391 . S
C635 C636 1.399 . S
C636 C635 1.399 . S
C636 C637 1.396 . S
C636 C639 1.453 . S
C636 C640 1.684 . S
C637 C627 1.723 . S
C637 C636 1.396 . S
C637 C638 1.394 . S
C638 C608 1.723 . S
C638 C634 1.397 . S
C638 C637 1.394 . S
C639 H611 0.982 . S
C639 H615 0.979 . S
C639 H616 0.977 . S
C639 C636 1.453 . S
C640 H612 0.979 . S
C640 H613 0.980 . S
C640 H614 0.983 . S
C640 C636 1.684 . S
H641 C659 0.948 . S
H642 C600 0.948 1_554 S
H643 C618 0.979 . S
H644 C618 0.980 . S
H645 C618 0.983 . S
H646 C617 0.982 . S
H647 C617 0.979 1_554 S
H648 C617 0.977 . S
H649 C619 0.948 . S
H650 C621 0.947 . S
H651 C622 0.948 . S
H652 C628 0.982 . S
H653 C628 0.979 . S
H654 C628 0.977 . S
H655 C629 0.979 . S
H656 C629 0.980 . S
H657 C629 0.983 . S
H658 C602 0.947 . S
C659 C602 1.392 . S
C659 C603 1.419 . S
C659 H641 0.948 . S
C660 C661 1.391 . S
C660 C664 1.391 . S
C660 H702 0.907 1_556 S
C661 C660 1.391 . S
C661 C662 1.391 . S
C662 C661 1.391 . S
C662 H718 0.947 . S
C662 C719 1.392 . S
C663 C664 1.391 . S
C663 C667 1.397 . S
C663 C719 1.419 . S
C664 C660 1.391 . S
C664 C663 1.391 . S
C664 C665 1.399 . S
C665 C664 1.399 . S
C665 C668 1.396 . S
C665 C677 1.453 . S
C665 C678 1.684 . S
H666 C690 0.948 . S
C667 C663 1.397 . S
C667 C668 1.394 . S
C667 C686 1.723 . S
C668 C665 1.396 . S
C668 C667 1.394 . S
C668 C698 1.723 . S
H669 C692 0.947 1_554 S
H670 C693 0.948 . S
H671 C699 0.982 . S
H672 C700 0.979 . S
H673 C700 0.980 . S
H674 C700 0.983 . S
H675 C699 0.979 . S
H676 C699 0.977 . S
C677 C665 1.453 . S
C677 H706 0.982 . S
C677 H707 0.979 1_556 S
C677 H708 0.977 . S
C678 C665 1.684 . S
C678 H703 0.979 . S
C678 H704 0.980 . S
C678 H705 0.983 1_556 S
C679 C680 1.391 . S
C679 C684 1.391 . S
C679 H709 0.948 . S
C680 C679 1.391 . S
C680 C681 1.391 . S
C681 C680 1.391 . S
C681 C682 1.392 . S
C681 H710 0.947 . S
C682 C681 1.392 . S
C682 C683 1.419 . S
C682 H711 0.948 . S
C683 C682 1.419 . S
C683 C684 1.391 . S
C683 C687 1.397 . S
C684 C679 1.391 . S
C684 C683 1.391 . S
C684 C685 1.399 . S
C685 C684 1.399 . S
C685 C686 1.396 . S
C685 C688 1.453 . S
C685 C689 1.684 . S
C686 C667 1.723 . S
C686 C685 1.396 . S
C686 C687 1.394 . S
C687 C683 1.397 . S
C687 C686 1.394 . S
C687 C697 1.723 . S
C688 C685 1.453 . S
C688 H712 0.982 . S
C688 H713 0.979 . S
C688 H714 0.977 . S
C689 C685 1.684 . S
C689 H715 0.979 . S
C689 H716 0.980 . S
C689 H717 0.983 . S
C690 H666 0.948 . S
C690 C691 1.391 . S
C690 C695 1.391 . S
C691 C690 1.391 . S
C691 C692 1.391 . S
C692 H669 0.947 1_556 S
C692 C691 1.391 . S
C692 C693 1.392 . S
C693 H670 0.948 . S
C693 C692 1.392 . S
C693 C694 1.419 . S
C694 C693 1.419 . S
C694 C695 1.391 . S
C694 C698 1.397 . S
C695 C690 1.391 . S
C695 C694 1.391 . S
C695 C696 1.399 . S
C696 C695 1.399 . S
C696 C697 1.396 . S
C696 C699 1.453 . S
C696 C700 1.684 . S
C697 C687 1.723 . S
C697 C696 1.396 . S
C697 C698 1.394 . S
C698 C668 1.723 . S
C698 C694 1.397 . S
C698 C697 1.394 . S
C699 H671 0.982 . S
C699 H675 0.979 . S
C699 H676 0.977 . S
C699 C696 1.453 . S
C700 H672 0.979 . S
C700 H673 0.980 . S
C700 H674 0.983 . S
C700 C696 1.684 . S
H701 C719 0.948 . S
H702 C660 0.907 1_554 S
H703 C678 0.979 . S
H704 C678 0.980 . S
H705 C678 0.983 1_554 S
H706 C677 0.982 . S
H707 C677 0.979 1_554 S
H708 C677 0.977 . S
H709 C679 0.948 . S
H710 C681 0.947 . S
H711 C682 0.948 . S
H712 C688 0.982 . S
H713 C688 0.979 . S
H714 C688 0.977 . S
H715 C689 0.979 . S
H716 C689 0.980 . S
H717 C689 0.983 . S
H718 C662 0.947 . S
C719 C662 1.392 . S
C719 C663 1.419 . S
C719 H701 0.948 . S
C720 C721 1.391 . S
C720 C724 1.391 . S
C720 H762 0.948 1_554 S
C721 C720 1.391 . S
C721 C722 1.391 . S
C722 C721 1.391 . S
C722 H778 0.947 . S
C722 C779 1.392 . S
C723 C724 1.391 . S
C723 C727 1.397 . S
C723 C779 1.419 . S
C724 C720 1.391 . S
C724 C723 1.391 . S
C724 C725 1.399 . S
C725 C724 1.399 . S
C725 C728 1.396 . S
C725 C737 1.453 . S
C725 C738 1.684 . S
H726 C750 0.948 . S
C727 C723 1.397 . S
C727 C728 1.394 . S
C727 C746 1.723 . S
C728 C725 1.396 . S
C728 C727 1.394 . S
C728 C758 1.723 . S
H729 C752 0.947 1_556 S
H730 C753 0.948 . S
H731 C759 0.982 . S
H732 C760 0.979 . S
H733 C760 0.980 . S
H734 C760 0.983 . S
H735 C759 0.979 . S
H736 C759 0.977 . S
C737 C725 1.453 . S
C737 H766 0.982 . S
C737 H767 0.979 1_554 S
C737 H768 0.980 . S
C738 C725 1.684 . S
C738 H763 0.979 . S
C738 H764 0.980 . S
C738 H765 0.983 1_554 S
C739 C740 1.391 . S
C739 C744 1.391 . S
C739 H769 0.948 . S
C740 C739 1.391 . S
C740 C741 1.391 . S
C741 C740 1.391 . S
C741 C742 1.392 . S
C741 H770 0.947 . S
C742 C741 1.392 . S
C742 C743 1.419 . S
C742 H771 0.948 . S
C743 C742 1.419 . S
C743 C744 1.391 . S
C743 C747 1.397 . S
C744 C739 1.391 . S
C744 C743 1.391 . S
C744 C745 1.399 . S
C745 C744 1.399 . S
C745 C746 1.396 . S
C745 C748 1.453 . S
C745 C749 1.684 . S
C746 C727 1.723 . S
C746 C745 1.396 . S
C746 C747 1.394 . S
C747 C743 1.397 . S
C747 C746 1.394 . S
C747 C757 1.723 . S
C748 C745 1.453 . S
C748 H772 0.982 . S
C748 H773 0.979 . S
C748 H774 0.977 . S
C749 C745 1.684 . S
C749 H775 0.979 . S
C749 H776 0.980 . S
C749 H777 0.983 . S
C750 H726 0.948 . S
C750 C751 1.391 . S
C750 C755 1.391 . S
C751 C750 1.391 . S
C751 C752 1.391 . S
C752 H729 0.947 1_554 S
C752 C751 1.391 . S
C752 C753 1.392 . S
C753 H730 0.948 . S
C753 C752 1.392 . S
C753 C754 1.419 . S
C754 C753 1.419 . S
C754 C755 1.391 . S
C754 C758 1.397 . S
C755 C750 1.391 . S
C755 C754 1.391 . S
C755 C756 1.399 . S
C756 C755 1.399 . S
C756 C757 1.396 . S
C756 C759 1.453 . S
C756 C760 1.684 . S
C757 C747 1.723 . S
C757 C756 1.396 . S
C757 C758 1.394 . S
C758 C728 1.723 . S
C758 C754 1.397 . S
C758 C757 1.394 . S
C759 H731 0.982 . S
C759 H735 0.979 . S
C759 H736 0.977 . S
C759 C756 1.453 . S
C760 H732 0.979 . S
C760 H733 0.980 . S
C760 H734 0.983 . S
C760 C756 1.684 . S
H761 C779 0.948 . S
H762 C720 0.948 1_556 S
H763 C738 0.979 . S
H764 C738 0.980 . S
H765 C738 0.983 1_556 S
H766 C737 0.982 . S
H767 C737 0.979 1_556 S
H768 C737 0.980 . S
H769 C739 0.948 . S
H770 C741 0.947 . S
H771 C742 0.948 . S
H772 C748 0.982 . S
H773 C748 0.979 . S
H774 C748 0.977 . S
H775 C749 0.979 . S
H776 C749 0.980 . S
H777 C749 0.983 . S
H778 C722 0.947 . S
C779 C722 1.392 . S
C779 C723 1.419 . S
C779 H761 0.948 . S
C780 C781 1.391 . S
C780 C784 1.391 . S
C780 H822 0.948 1_554 S
C781 C780 1.391 . S
C781 C782 1.391 . S
C782 C781 1.391 . S
C782 H838 0.947 . S
C782 C839 1.392 . S
C783 C784 1.391 . S
C783 C787 1.397 . S
C783 C839 1.419 . S
C784 C780 1.391 . S
C784 C783 1.391 . S
C784 C785 1.399 . S
C785 C784 1.399 . S
C785 C788 1.396 . S
C785 C797 1.453 . S
C785 C798 1.684 1_554 S
H786 C810 0.948 . S
C787 C783 1.397 . S
C787 C788 1.394 . S
C787 C806 1.723 . S
C788 C785 1.396 . S
C788 C787 1.394 . S
C788 C818 1.723 . S
H789 C812 0.947 1_556 S
H790 C813 0.948 . S
H791 C819 0.982 . S
H792 C820 0.979 . S
H793 C820 0.980 . S
H794 C820 0.983 . S
H795 C819 0.979 . S
H796 C819 0.977 . S
C797 C785 1.453 . S
C797 H826 0.982 . S
C797 H827 0.979 1_554 S
C797 H828 0.977 . S
C798 C785 1.684 1_556 S
C798 H823 0.979 . S
C798 H824 0.980 . S
C798 H825 0.983 . S
C799 C800 1.391 . S
C799 C804 1.391 . S
C799 H829 0.948 . S
C800 C799 1.391 . S
C800 C801 1.391 . S
C801 C800 1.391 . S
C801 C802 1.392 . S
C801 H830 0.947 . S
C802 C801 1.392 . S
C802 C803 1.419 . S
C802 H831 0.948 . S
C803 C802 1.419 . S
C803 C804 1.391 . S
C803 C807 1.397 . S
C804 C799 1.391 . S
C804 C803 1.391 . S
C804 C805 1.399 . S
C805 C804 1.399 . S
C805 C806 1.396 . S
C805 C808 1.453 . S
C805 C809 1.684 . S
C806 C787 1.723 . S
C806 C805 1.396 . S
C806 C807 1.394 . S
C807 C803 1.397 . S
C807 C806 1.394 . S
C807 C817 1.723 . S
C808 C805 1.453 . S
C808 H832 0.982 . S
C808 H833 0.979 . S
C808 H834 0.977 . S
C809 C805 1.684 . S
C809 H835 0.979 . S
C809 H836 0.980 . S
C809 H837 0.983 . S
C810 H786 0.948 . S
C810 C811 1.391 . S
C810 C815 1.391 . S
C811 C810 1.391 . S
C811 C812 1.391 . S
C812 H789 0.947 1_554 S
C812 C811 1.391 . S
C812 C813 1.392 . S
C813 H790 0.948 . S
C813 C812 1.392 . S
C813 C814 1.419 . S
C814 C813 1.419 . S
C814 C815 1.391 . S
C814 C818 1.397 . S
C815 C810 1.391 . S
C815 C814 1.391 . S
C815 C816 1.399 . S
C816 C815 1.399 . S
C816 C817 1.396 . S
C816 C819 1.453 . S
C816 C820 1.684 . S
C817 C807 1.723 . S
C817 C816 1.396 . S
C817 C818 1.394 . S
C818 C788 1.723 . S
C818 C814 1.397 . S
C818 C817 1.394 . S
C819 H791 0.982 . S
C819 H795 0.979 . S
C819 H796 0.977 . S
C819 C816 1.453 . S
C820 H792 0.979 . S
C820 H793 0.980 . S
C820 H794 0.983 . S
C820 C816 1.684 . S
H821 C839 0.948 . S
H822 C780 0.948 1_556 S
H823 C798 0.979 . S
H824 C798 0.980 . S
H825 C798 0.983 . S
H826 C797 0.982 . S
H827 C797 0.979 1_556 S
H828 C797 0.977 . S
H829 C799 0.948 . S
H830 C801 0.947 . S
H831 C802 0.948 . S
H832 C808 0.982 . S
H833 C808 0.979 . S
H834 C808 0.977 . S
H835 C809 0.979 . S
H836 C809 0.980 . S
H837 C809 0.983 . S
H838 C782 0.947 . S
C839 C782 1.392 . S
C839 C783 1.419 . S
C839 H821 0.948 . S
C840 C841 1.391 . S
C840 C844 1.391 . S
C840 H882 0.948 . S
C841 C840 1.391 . S
C841 C842 1.391 . S
C842 C841 1.391 . S
C842 H898 0.947 . S
C842 C899 1.392 . S
C843 C844 1.391 . S
C843 C847 1.397 . S
C843 C899 1.419 . S
C844 C840 1.391 . S
C844 C843 1.391 . S
C844 C845 1.399 . S
C845 C844 1.399 . S
C845 C848 1.396 . S
C845 C857 1.453 . S
C845 C858 1.684 . S
H846 C870 0.948 . S
C847 C843 1.397 . S
C847 C848 1.394 . S
C847 C866 1.723 . S
C848 C845 1.396 . S
C848 C847 1.394 . S
C848 C878 1.723 . S
H849 C872 0.947 1_556 S
H850 C873 0.948 . S
H851 C879 0.982 . S
H852 C880 0.979 . S
H853 C880 0.980 . S
H854 C880 0.983 . S
H855 C879 0.979 . S
H856 C879 0.977 . S
C857 C845 1.453 . S
C857 H886 0.982 . S
C857 H887 0.979 1_554 S
C857 H888 0.977 . S
C858 C845 1.684 . S
C858 H883 0.979 . S
C858 H884 0.980 . S
C858 H885 0.983 1_554 S
C859 C860 1.391 . S
C859 C864 1.391 . S
C859 H889 0.948 . S
C860 C859 1.391 . S
C860 C861 1.391 . S
C861 C860 1.391 . S
C861 C862 1.392 . S
C861 H890 0.947 . S
C862 C861 1.392 . S
C862 C863 1.419 . S
C862 H891 0.948 . S
C863 C862 1.419 . S
C863 C864 1.391 . S
C863 C867 1.397 . S
C864 C859 1.391 . S
C864 C863 1.391 . S
C864 C865 1.399 . S
C865 C864 1.399 . S
C865 C866 1.396 . S
C865 C868 1.453 . S
C865 C869 1.684 . S
C866 C847 1.723 . S
C866 C865 1.396 . S
C866 C867 1.394 . S
C867 C863 1.397 . S
C867 C866 1.394 . S
C867 C877 1.723 . S
C868 C865 1.453 . S
C868 H892 0.982 . S
C868 H893 0.979 . S
C868 H894 0.977 . S
C869 C865 1.684 . S
C869 H895 0.979 . S
C869 H896 0.980 . S
C869 H897 0.983 . S
C870 H846 0.948 . S
C870 C871 1.391 . S
C870 C875 1.391 . S
C871 C870 1.391 . S
C871 C872 1.391 . S
C872 H849 0.947 1_554 S
C872 C871 1.391 . S
C872 C873 1.392 . S
C873 H850 0.948 . S
C873 C872 1.392 . S
C873 C874 1.419 . S
C874 C873 1.419 . S
C874 C875 1.391 . S
C874 C878 1.397 . S
C875 C870 1.391 . S
C875 C874 1.391 . S
C875 C876 1.399 . S
C876 C875 1.399 . S
C876 C877 1.396 . S
C876 C879 1.453 . S
C876 C880 1.684 . S
C877 C867 1.723 . S
C877 C876 1.396 . S
C877 C878 1.394 . S
C878 C848 1.723 . S
C878 C874 1.397 . S
C878 C877 1.394 . S
C879 H851 0.982 . S
C879 H855 0.979 . S
C879 H856 0.977 . S
C879 C876 1.453 . S
C880 H852 0.979 . S
C880 H853 0.980 . S
C880 H854 0.983 . S
C880 C876 1.684 . S
H881 C899 0.948 . S
H882 C840 0.948 . S
H883 C858 0.979 . S
H884 C858 0.980 . S
H885 C858 0.983 1_556 S
H886 C857 0.982 . S
H887 C857 0.979 1_556 S
H888 C857 0.977 . S
H889 C859 0.948 . S
H890 C861 0.947 . S
H891 C862 0.948 . S
H892 C868 0.982 . S
H893 C868 0.979 . S
H894 C868 0.977 . S
H895 C869 0.979 . S
H896 C869 0.980 . S
H897 C869 0.983 . S
H898 C842 0.947 . S
C899 C842 1.392 . S
C899 C843 1.419 . S
C899 H881 0.948 . S
C900 C901 1.391 . S
C900 C904 1.391 . S
C900 H942 0.948 . S
C901 C900 1.391 . S
C901 C902 1.391 . S
C902 C901 1.391 . S
C902 H958 0.947 . S
C902 C959 1.392 . S
C903 C904 1.391 . S
C903 C907 1.397 . S
C903 C959 1.419 . S
C904 C900 1.391 . S
C904 C903 1.391 . S
C904 C905 1.399 . S
C905 C904 1.399 . S
C905 C908 1.396 . S
C905 C917 1.453 . S
C905 C918 1.684 . S
H906 C930 0.948 . S
C907 C903 1.397 . S
C907 C908 1.394 . S
C907 C926 1.723 . S
C908 C905 1.396 . S
C908 C907 1.394 . S
C908 C938 1.723 . S
H909 C932 0.947 . S
H910 C933 0.948 . S
H911 C939 0.982 . S
H912 C940 0.979 . S
H913 C940 0.980 . S
H914 C940 0.983 . S
H915 C939 0.979 . S
H916 C939 0.977 . S
C917 C905 1.453 . S
C917 H946 0.982 . S
C917 H947 0.979 . S
C917 H948 0.977 . S
C918 C905 1.684 . S
C918 H943 0.979 . S
C918 H944 0.980 . S
C918 H945 0.983 . S
C919 C920 1.391 . S
C919 C924 1.391 . S
C919 H949 0.948 . S
C920 C919 1.391 . S
C920 C921 1.391 . S
C921 C920 1.391 . S
C921 C922 1.392 . S
C921 H950 0.947 . S
C922 C921 1.392 . S
C922 C923 1.419 . S
C922 H951 0.948 . S
C923 C922 1.419 . S
C923 C924 1.391 . S
C923 C927 1.397 . S
C924 C919 1.391 . S
C924 C923 1.391 . S
C924 C925 1.399 . S
C925 C924 1.399 . S
C925 C926 1.396 . S
C925 C928 1.453 . S
C925 C929 1.684 . S
C926 C907 1.723 . S
C926 C925 1.396 . S
C926 C927 1.394 . S
C927 C923 1.397 . S
C927 C926 1.394 . S
C927 C937 1.723 . S
C928 C925 1.453 . S
C928 H952 0.982 . S
C928 H953 0.979 . S
C928 H954 0.977 . S
C929 C925 1.684 . S
C929 H955 0.979 . S
C929 H956 0.980 . S
C929 H957 0.983 . S
C930 H906 0.948 . S
C930 C931 1.391 . S
C930 C935 1.391 . S
C931 C930 1.391 . S
C931 C932 1.391 . S
C932 H909 0.947 . S
C932 C931 1.391 . S
C932 C933 1.392 . S
C933 H910 0.948 . S
C933 C932 1.392 . S
C933 C934 1.419 . S
C934 C933 1.419 . S
C934 C935 1.391 . S
C934 C938 1.397 . S
C935 C930 1.391 . S
C935 C934 1.391 . S
C935 C936 1.399 . S
C936 C935 1.399 . S
C936 C937 1.396 . S
C936 C939 1.453 . S
C936 C940 1.684 . S
C937 C927 1.723 . S
C937 C936 1.396 . S
C937 C938 1.394 . S
C938 C908 1.723 . S
C938 C934 1.397 . S
C938 C937 1.394 . S
C939 H911 0.982 . S
C939 H915 0.979 . S
C939 H916 0.977 . S
C939 C936 1.453 . S
C940 H912 0.979 . S
C940 H913 0.980 . S
C940 H914 0.983 . S
C940 C936 1.684 . S
H941 C959 0.948 . S
H942 C900 0.948 . S
H943 C918 0.979 . S
H944 C918 0.980 . S
H945 C918 0.983 . S
H946 C917 0.982 . S
H947 C917 0.979 . S
H948 C917 0.977 . S
H949 C919 0.948 . S
H950 C921 0.947 . S
H951 C922 0.948 . S
H952 C928 0.982 . S
H953 C928 0.979 . S
H954 C928 0.977 . S
H955 C929 0.979 . S
H956 C929 0.980 . S
H957 C929 0.983 . S
H958 C902 0.947 . S
C959 C902 1.392 . S
C959 C903 1.419 . S
C959 H941 0.948 . S
C960 C961 1.391 . S
C960 C964 1.391 . S
C960 H1002 0.948 . S
C961 C960 1.391 . S
C961 C962 1.391 . S
C962 C961 1.391 . S
C962 H1018 0.947 . S
C962 C1019 1.392 . S
C963 C964 1.391 . S
C963 C967 1.397 . S
C963 C1019 1.419 . S
C964 C960 1.391 . S
C964 C963 1.391 . S
C964 C965 1.399 . S
C965 C964 1.399 . S
C965 C968 1.396 . S
C965 C977 1.453 . S
C965 C978 1.684 . S
H966 C990 0.948 . S
C967 C963 1.397 . S
C967 C968 1.394 . S
C967 C986 1.723 . S
C968 C965 1.396 . S
C968 C967 1.394 . S
C968 C998 1.723 . S
H969 C992 0.947 . S
H970 C993 0.948 . S
H971 C999 0.982 . S
H972 C1000 0.979 . S
H973 C1000 0.980 . S
H974 C1000 0.983 . S
H975 C999 0.979 . S
H976 C999 0.977 . S
C977 C965 1.453 . S
C977 H1006 0.982 . S
C977 H1007 0.979 . S
C977 H1008 0.977 . S
C978 C965 1.684 . S
C978 H1003 0.979 . S
C978 H1004 0.980 . S
C978 H1005 0.983 . S
C979 C980 1.391 . S
C979 C984 1.391 . S
C979 H1009 0.948 . S
C980 C979 1.391 . S
C980 C981 1.391 . S
C981 C980 1.391 . S
C981 C982 1.392 . S
C981 H1010 0.947 . S
C982 C981 1.392 . S
C982 C983 1.419 . S
C982 H1011 0.948 . S
C983 C982 1.419 . S
C983 C984 1.391 . S
C983 C987 1.397 . S
C984 C979 1.391 . S
C984 C983 1.391 . S
C984 C985 1.399 . S
C985 C984 1.399 . S
C985 C986 1.396 . S
C985 C988 1.453 . S
C985 C989 1.684 . S
C986 C967 1.723 . S
C986 C985 1.396 . S
C986 C987 1.394 . S
C987 C983 1.397 . S
C987 C986 1.394 . S
C987 C997 1.723 . S
C988 C985 1.453 . S
C988 H1012 0.982 . S
C988 H1013 0.979 . S
C988 H1014 0.977 . S
C989 C985 1.684 . S
C989 H1015 0.979 1_455 S
C989 H1016 0.980 . S
C989 H1017 0.983 . S
C990 H966 0.948 . S
C990 C991 1.391 . S
C990 C995 1.391 . S
C991 C990 1.391 . S
C991 C992 1.391 . S
C992 H969 0.947 . S
C992 C991 1.391 . S
C992 C993 1.392 . S
C993 H970 0.948 . S
C993 C992 1.392 . S
C993 C994 1.419 . S
C994 C993 1.419 . S
C994 C995 1.391 . S
C994 C998 1.397 . S
C995 C990 1.391 . S
C995 C994 1.391 . S
C995 C996 1.399 . S
C996 C995 1.399 . S
C996 C997 1.396 . S
C996 C999 1.453 . S
C996 C1000 1.684 . S
C997 C987 1.723 . S
C997 C996 1.396 . S
C997 C998 1.394 . S
C998 C968 1.723 . S
C998 C994 1.397 . S
C998 C997 1.394 . S
C999 H971 0.982 . S
C999 H975 0.979 . S
C999 H976 0.977 . S
C999 C996 1.453 . S
C1000 H972 0.979 . S
C1000 H973 0.980 . S
C1000 H974 0.983 . S
C1000 C996 1.684 . S
H1001 C1019 0.948 . S
H1002 C960 0.948 . S
H1003 C978 0.979 . S
H1004 C978 0.980 . S
H1005 C978 0.983 . S
H1006 C977 0.982 . S
H1007 C977 0.979 . S
H1008 C977 0.977 . S
H1009 C979 0.948 . S
H1010 C981 0.947 . S
H1011 C982 0.948 . S
H1012 C988 0.982 . S
H1013 C988 0.979 . S
H1014 C988 0.977 . S
H1015 C989 0.979 1_655 S
H1016 C989 0.980 . S
H1017 C989 0.983 . S
H1018 C962 0.947 . S
C1019 C962 1.392 . S
C1019 C963 1.419 . S
C1019 H1001 0.948 . S
C1020 C1021 1.391 . S
C1020 C1024 1.391 . S
C1020 H1062 0.948 . S
C1021 C1020 1.391 . S
C1021 C1022 1.391 . S
C1022 C1021 1.391 . S
C1022 H1078 0.947 . S
C1022 C1079 1.392 . S
C1023 C1024 1.391 . S
C1023 C1027 1.397 . S
C1023 C1079 1.419 . S
C1024 C1020 1.391 . S
C1024 C1023 1.391 . S
C1024 C1025 1.399 . S
C1025 C1024 1.399 . S
C1025 C1028 1.396 . S
C1025 C1037 1.453 . S
C1025 C1038 1.684 . S
H1026 C1050 0.948 . S
C1027 C1023 1.397 . S
C1027 C1028 1.394 . S
C1027 C1046 1.723 . S
C1028 C1025 1.396 . S
C1028 C1027 1.394 . S
C1028 C1058 1.723 . S
H1029 C1052 0.947 . S
H1030 C1053 0.948 . S
H1031 C1059 0.982 . S
H1032 C1060 0.979 . S
H1033 C1060 0.980 . S
H1034 C1060 0.983 . S
H1035 C1059 0.979 . S
H1036 C1059 0.977 . S
C1037 C1025 1.453 . S
C1037 H1066 0.982 . S
C1037 H1067 0.979 . S
C1037 H1068 0.977 . S
C1038 C1025 1.684 . S
C1038 H1063 0.979 . S
C1038 H1064 0.980 . S
C1038 H1065 0.983 . S
C1039 C1040 1.391 . S
C1039 C1044 1.391 . S
C1039 H1069 0.948 . S
C1040 C1039 1.391 . S
C1040 C1041 1.391 . S
C1041 C1040 1.391 . S
C1041 C1042 1.392 . S
C1041 H1070 0.947 . S
C1042 C1041 1.392 . S
C1042 C1043 1.419 . S
C1042 H1071 0.948 . S
C1043 C1042 1.419 . S
C1043 C1044 1.391 . S
C1043 C1047 1.397 . S
C1044 C1039 1.391 . S
C1044 C1043 1.391 . S
C1044 C1045 1.399 . S
C1045 C1044 1.399 . S
C1045 C1046 1.396 . S
C1045 C1048 1.453 . S
C1045 C1049 1.684 . S
C1046 C1027 1.723 . S
C1046 C1045 1.396 . S
C1046 C1047 1.394 . S
C1047 C1043 1.397 . S
C1047 C1046 1.394 . S
C1047 C1057 1.723 . S
C1048 C1045 1.453 . S
C1048 H1072 0.982 . S
C1048 H1073 0.979 . S
C1048 H1074 0.977 . S
C1049 C1045 1.684 . S
C1049 H1075 0.979 . S
C1049 H1076 0.980 . S
C1049 H1077 0.983 . S
C1050 H1026 0.948 . S
C1050 C1051 1.391 . S
C1050 C1055 1.391 . S
C1051 C1050 1.391 . S
C1051 C1052 1.391 . S
C1052 H1029 0.947 . S
C1052 C1051 1.391 . S
C1052 C1053 1.392 . S
C1053 H1030 0.948 . S
C1053 C1052 1.392 . S
C1053 C1054 1.419 . S
C1054 C1053 1.419 . S
C1054 C1055 1.391 . S
C1054 C1058 1.397 . S
C1055 C1050 1.391 . S
C1055 C1054 1.391 . S
C1055 C1056 1.399 . S
C1056 C1055 1.399 . S
C1056 C1057 1.396 . S
C1056 C1059 1.453 . S
C1056 C1060 1.684 . S
C1057 C1047 1.723 . S
C1057 C1056 1.396 . S
C1057 C1058 1.394 . S
C1058 C1028 1.723 . S
C1058 C1054 1.397 . S
C1058 C1057 1.394 . S
C1059 H1031 0.982 . S
C1059 H1035 0.979 . S
C1059 H1036 0.977 . S
C1059 C1056 1.453 . S
C1060 H1032 0.979 . S
C1060 H1033 0.980 . S
C1060 H1034 0.983 . S
C1060 C1056 1.684 . S
H1061 C1079 0.948 . S
H1062 C1020 0.948 . S
H1063 C1038 0.979 . S
H1064 C1038 0.980 . S
H1065 C1038 0.983 . S
H1066 C1037 0.982 . S
H1067 C1037 0.979 . S
H1068 C1037 0.977 . S
H1069 C1039 0.948 . S
H1070 C1041 0.947 . S
H1071 C1042 0.948 . S
H1072 C1048 0.982 . S
H1073 C1048 0.979 . S
H1074 C1048 0.977 . S
H1075 C1049 0.979 . S
H1076 C1049 0.980 . S
H1077 C1049 0.983 . S
H1078 C1022 0.947 . S
C1079 C1022 1.392 . S
C1079 C1023 1.419 . S
C1079 H1061 0.948 . S
Tb1080 N1111 2.660 . S
Tb1080 N1118 2.600 . S
Tb1080 O1124 2.546 . S
Tb1080 O1125 2.610 1_565 S
Tb1080 O1127 2.320 1_565 S
Tb1080 O1128 2.552 1_565 S
Tb1080 O1129 2.413 . S
Tb1080 O1131 2.362 1_556 S
Tb1080 O1132 2.421 . S
Tb1080 C1144 2.833 . S
C1081 C1084 1.432 . S
C1081 C1085 1.414 . S
C1081 N1088 1.359 . S
C1082 C1084 1.417 . S
C1082 C1086 1.432 . S
C1082 C1094 1.410 . S
C1083 C1085 1.444 . S
C1083 C1086 1.317 . S
C1083 H1106 0.929 . S
C1084 C1081 1.432 . S
C1084 C1082 1.417 . S
C1084 N1092 1.360 . S
C1085 C1081 1.414 . S
C1085 C1083 1.444 . S
C1085 C1090 1.385 . S
C1086 C1082 1.432 . S
C1086 C1083 1.317 . S
C1086 H1098 0.930 . S
C1087 C1089 1.392 . S
C1087 C1090 1.370 . S
C1087 H1099 0.931 . S
N1088 C1081 1.359 . S
N1088 C1089 1.327 . S
N1088 Tb1091 2.600 . S
C1089 C1087 1.392 . S
C1089 N1088 1.327 . S
C1089 H1096 0.930 . S
C1090 C1085 1.385 . S
C1090 C1087 1.370 . S
C1090 H1109 0.930 . S
Tb1091 N1088 2.600 . S
Tb1091 N1092 2.660 . S
Tb1091 O1125 2.362 1_554 S
Tb1091 O1126 2.421 . S
Tb1091 O1130 2.546 . S
Tb1091 O1131 2.610 1_545 S
Tb1091 O1133 2.320 1_545 S
Tb1091 O1134 2.552 1_545 S
Tb1091 O1135 2.413 . S
Tb1091 C1155 2.833 . S
N1092 C1084 1.360 . S
N1092 Tb1091 2.660 . S
N1092 C1093 1.305 . S
C1093 N1092 1.305 . S
C1093 C1095 1.407 . S
C1093 H1100 0.930 . S
C1094 C1082 1.410 . S
C1094 C1095 1.345 . S
C1094 H1102 0.930 . S
C1095 C1093 1.407 . S
C1095 C1094 1.345 . S
C1095 H1097 0.930 . S
H1096 C1089 0.930 . S
H1097 C1095 0.930 . S
H1098 C1086 0.930 . S
H1099 C1087 0.931 . S
H1100 C1093 0.930 . S
H1101 C1115 0.930 . S
H1102 C1094 0.930 . S
H1103 C1121 0.930 . S
H1104 C1112 0.930 . S
H1105 C1119 0.931 . S
H1106 C1083 0.929 . S
H1107 C1113 0.930 . S
H1108 C1146 0.930 . S
H1109 C1090 0.930 . S
H1110 C1145 0.929 . S
N1111 Tb1080 2.660 . S
N1111 C1112 1.305 . S
N1111 C1116 1.360 . S
C1112 H1104 0.930 . S
C1112 N1111 1.305 . S
C1112 C1115 1.407 . S
C1113 H1107 0.930 . S
C1113 C1114 1.410 . S
C1113 C1115 1.345 . S
C1114 C1113 1.410 . S
C1114 C1116 1.417 . S
C1114 C1146 1.432 . S
C1115 H1101 0.930 . S
C1115 C1112 1.407 . S
C1115 C1113 1.345 . S
C1116 N1111 1.360 . S
C1116 C1114 1.417 . S
C1116 C1120 1.432 . S
H1117 C1122 0.930 . S
N1118 Tb1080 2.600 . S
N1118 C1120 1.359 . S
N1118 C1121 1.327 . S
C1119 H1105 0.931 . S
C1119 C1121 1.392 . S
C1119 C1122 1.370 . S
C1120 C1116 1.432 . S
C1120 N1118 1.359 . S
C1120 C1123 1.414 . S
C1121 H1103 0.930 . S
C1121 N1118 1.327 . S
C1121 C1119 1.392 . S
C1122 H1117 0.930 . S
C1122 C1119 1.370 . S
C1122 C1123 1.385 . S
C1123 C1120 1.414 . S
C1123 C1122 1.385 . S
C1123 C1145 1.444 . S
O1124 Tb1080 2.546 . S
O1124 C1144 1.251 . S
O1125 Tb1080 2.610 1_545 S
O1125 Tb1091 2.362 1_556 S
O1125 C1136 1.283 . S
O1126 Tb1091 2.421 . S
O1126 C1143 1.262 1_554 S
O1127 Tb1080 2.320 1_545 S
O1127 C1143 1.260 . S
O1128 Tb1080 2.552 1_545 S
O1128 C1136 1.243 . S
O1129 Tb1080 2.413 . S
O1129 C1144 1.256 . S
O1130 Tb1091 2.546 . S
O1130 C1155 1.251 . S
O1131 Tb1080 2.362 1_554 S
O1131 Tb1091 2.610 1_565 S
O1131 C1147 1.283 . S
O1132 Tb1080 2.421 . S
O1132 C1154 1.262 1_556 S
O1133 Tb1091 2.320 1_565 S
O1133 C1154 1.260 . S
O1134 Tb1091 2.552 1_565 S
O1134 C1147 1.243 . S
O1135 Tb1091 2.413 . S
O1135 C1155 1.256 . S
C1136 O1125 1.283 . S
C1136 O1128 1.243 . S
C1137 C1139 1.382 1_565 S
C1137 C1141 1.393 . S
C1137 C1144 1.500 . S
C1138 C1139 1.400 . S
C1138 C1140 1.384 1_545 S
C1139 C1137 1.382 1_545 S
C1139 C1138 1.400 . S
C1139 H1156 0.930 . S
C1140 C1138 1.384 1_565 S
C1140 C1142 1.392 . S
C1140 H1157 0.931 . S
C1141 C1137 1.393 . S
C1141 C1142 1.401 . S
C1141 H1158 0.930 . S
C1142 C1140 1.392 . S
C1142 C1141 1.401 . S
C1142 H1159 0.930 . S
C1143 O1126 1.262 1_556 S
C1143 O1127 1.260 . S
C1144 Tb1080 2.833 . S
C1144 O1124 1.251 . S
C1144 O1129 1.256 . S
C1144 C1137 1.500 . S
C1145 H1110 0.929 . S
C1145 C1123 1.444 . S
C1145 C1146 1.317 . S
C1146 H1108 0.930 . S
C1146 C1114 1.432 . S
C1146 C1145 1.317 . S
C1147 O1131 1.283 . S
C1147 O1134 1.243 . S
C1148 C1149 1.382 1_545 S
C1148 C1152 1.393 . S
C1148 C1155 1.500 . S
C1149 C1148 1.382 1_565 S
C1149 C1150 1.400 . S
C1149 H1160 0.930 . S
C1150 C1149 1.400 . S
C1150 C1151 1.384 1_565 S
C1151 C1150 1.384 1_545 S
C1151 C1153 1.392 . S
C1151 H1161 0.931 . S
C1152 C1148 1.393 . S
C1152 C1153 1.401 . S
C1152 H1162 0.930 . S
C1153 C1151 1.392 . S
C1153 C1152 1.401 . S
C1153 H1163 0.930 . S
C1154 O1132 1.262 1_554 S
C1154 O1133 1.260 . S
C1155 Tb1091 2.833 . S
C1155 O1130 1.251 . S
C1155 O1135 1.256 . S
C1155 C1148 1.500 . S
H1156 C1139 0.930 . S
H1157 C1140 0.931 . S
H1158 C1141 0.930 . S
H1159 C1142 0.930 . S
H1160 C1149 0.930 . S
H1161 C1151 0.931 . S
H1162 C1152 0.930 . S
H1163 C1153 0.930 . S
Tb1164 N1195 2.660 . S
Tb1164 N1202 2.600 . S
Tb1164 O1208 2.546 . S
Tb1164 O1209 2.610 1_455 S
Tb1164 O1211 2.320 1_455 S
Tb1164 O1212 2.552 1_455 S
Tb1164 O1213 2.413 . S
Tb1164 O1215 2.362 1_556 S
Tb1164 O1216 2.421 . S
Tb1164 C1228 2.833 . S
C1165 C1168 1.432 . S
C1165 C1169 1.414 . S
C1165 N1172 1.359 . S
C1166 C1168 1.417 . S
C1166 C1170 1.432 . S
C1166 C1178 1.410 . S
C1167 C1169 1.444 . S
C1167 C1170 1.317 . S
C1167 H1190 0.929 . S
C1168 C1165 1.432 . S
C1168 C1166 1.417 . S
C1168 N1176 1.360 . S
C1169 C1165 1.414 . S
C1169 C1167 1.444 . S
C1169 C1174 1.385 . S
C1170 C1166 1.432 . S
C1170 C1167 1.317 . S
C1170 H1182 0.930 . S
C1171 C1173 1.392 . S
C1171 C1174 1.370 . S
C1171 H1183 0.931 . S
N1172 C1165 1.359 . S
N1172 C1173 1.327 . S
N1172 Tb1175 2.600 . S
C1173 C1171 1.392 . S
C1173 N1172 1.327 . S
C1173 H1180 0.930 . S
C1174 C1169 1.385 . S
C1174 C1171 1.370 . S
C1174 H1193 0.930 . S
Tb1175 N1172 2.600 . S
Tb1175 N1176 2.660 . S
Tb1175 O1209 2.362 1_554 S
Tb1175 O1210 2.421 . S
Tb1175 O1214 2.546 . S
Tb1175 O1215 2.610 1_655 S
Tb1175 O1217 2.320 1_655 S
Tb1175 O1218 2.552 1_655 S
Tb1175 O1219 2.413 . S
Tb1175 C1239 2.833 . S
N1176 C1168 1.360 . S
N1176 Tb1175 2.660 . S
N1176 C1177 1.305 . S
C1177 N1176 1.305 . S
C1177 C1179 1.407 . S
C1177 H1184 0.930 . S
C1178 C1166 1.410 . S
C1178 C1179 1.345 . S
C1178 H1186 0.930 . S
C1179 C1177 1.407 . S
C1179 C1178 1.345 . S
C1179 H1181 0.930 . S
H1180 C1173 0.930 . S
H1181 C1179 0.930 . S
H1182 C1170 0.930 . S
H1183 C1171 0.931 . S
H1184 C1177 0.930 . S
H1185 C1199 0.930 . S
H1186 C1178 0.930 . S
H1187 C1205 0.930 . S
H1188 C1196 0.930 . S
H1189 C1203 0.931 . S
H1190 C1167 0.929 . S
H1191 C1197 0.930 . S
H1192 C1230 0.930 . S
H1193 C1174 0.930 . S
H1194 C1229 0.929 . S
N1195 Tb1164 2.660 . S
N1195 C1196 1.305 . S
N1195 C1200 1.360 . S
C1196 H1188 0.930 . S
C1196 N1195 1.305 . S
C1196 C1199 1.407 . S
C1197 H1191 0.930 . S
C1197 C1198 1.410 . S
C1197 C1199 1.345 . S
C1198 C1197 1.410 . S
C1198 C1200 1.417 . S
C1198 C1230 1.432 . S
C1199 H1185 0.930 . S
C1199 C1196 1.407 . S
C1199 C1197 1.345 . S
C1200 N1195 1.360 . S
C1200 C1198 1.417 . S
C1200 C1204 1.432 . S
H1201 C1206 0.930 . S
N1202 Tb1164 2.600 . S
N1202 C1204 1.359 . S
N1202 C1205 1.327 . S
C1203 H1189 0.931 . S
C1203 C1205 1.392 . S
C1203 C1206 1.370 . S
C1204 C1200 1.432 . S
C1204 N1202 1.359 . S
C1204 C1207 1.414 . S
C1205 H1187 0.930 . S
C1205 N1202 1.327 . S
C1205 C1203 1.392 . S
C1206 H1201 0.930 . S
C1206 C1203 1.370 . S
C1206 C1207 1.385 . S
C1207 C1204 1.414 . S
C1207 C1206 1.385 . S
C1207 C1229 1.444 . S
O1208 Tb1164 2.546 . S
O1208 C1228 1.251 . S
O1209 Tb1164 2.610 1_655 S
O1209 Tb1175 2.362 1_556 S
O1209 C1220 1.283 . S
O1210 Tb1175 2.421 . S
O1210 C1227 1.262 1_554 S
O1211 Tb1164 2.320 1_655 S
O1211 C1227 1.260 . S
O1212 Tb1164 2.552 1_655 S
O1212 C1220 1.243 . S
O1213 Tb1164 2.413 . S
O1213 C1228 1.256 . S
O1214 Tb1175 2.546 . S
O1214 C1239 1.251 . S
O1215 Tb1164 2.362 1_554 S
O1215 Tb1175 2.610 1_455 S
O1215 C1231 1.283 . S
O1216 Tb1164 2.421 . S
O1216 C1238 1.262 1_556 S
O1217 Tb1175 2.320 1_455 S
O1217 C1238 1.260 . S
O1218 Tb1175 2.552 1_455 S
O1218 C1231 1.243 . S
O1219 Tb1175 2.413 . S
O1219 C1239 1.256 . S
C1220 O1209 1.283 . S
C1220 O1212 1.243 . S
C1221 C1223 1.382 1_455 S
C1221 C1225 1.393 . S
C1221 C1228 1.500 . S
C1222 C1223 1.400 . S
C1222 C1224 1.384 1_655 S
C1223 C1221 1.382 1_655 S
C1223 C1222 1.400 . S
C1223 H1240 0.930 . S
C1224 C1222 1.384 1_455 S
C1224 C1226 1.392 . S
C1224 H1241 0.931 . S
C1225 C1221 1.393 . S
C1225 C1226 1.401 . S
C1225 H1242 0.930 . S
C1226 C1224 1.392 . S
C1226 C1225 1.401 . S
C1226 H1243 0.930 . S
C1227 O1210 1.262 1_556 S
C1227 O1211 1.260 . S
C1228 Tb1164 2.833 . S
C1228 O1208 1.251 . S
C1228 O1213 1.256 . S
C1228 C1221 1.500 . S
C1229 H1194 0.929 . S
C1229 C1207 1.444 . S
C1229 C1230 1.317 . S
C1230 H1192 0.930 . S
C1230 C1198 1.432 . S
C1230 C1229 1.317 . S
C1231 O1215 1.283 . S
C1231 O1218 1.243 . S
C1232 C1233 1.382 1_655 S
C1232 C1236 1.393 . S
C1232 C1239 1.500 . S
C1233 C1232 1.382 1_455 S
C1233 C1234 1.400 . S
C1233 H1244 0.930 . S
C1234 C1233 1.400 . S
C1234 C1235 1.384 1_455 S
C1235 C1234 1.384 1_655 S
C1235 C1237 1.392 . S
C1235 H1245 0.931 . S
C1236 C1232 1.393 . S
C1236 C1237 1.401 . S
C1236 H1246 0.930 . S
C1237 C1235 1.392 . S
C1237 C1236 1.401 . S
C1237 H1247 0.930 . S
C1238 O1216 1.262 1_554 S
C1238 O1217 1.260 . S
C1239 Tb1175 2.833 . S
C1239 O1214 1.251 . S
C1239 O1219 1.256 . S
C1239 C1232 1.500 . S
H1240 C1223 0.930 . S
H1241 C1224 0.931 . S
H1242 C1225 0.930 . S
H1243 C1226 0.930 . S
H1244 C1233 0.930 . S
H1245 C1235 0.931 . S
H1246 C1236 0.930 . S
H1247 C1237 0.930 . S
Tb1248 N1279 2.660 . S
Tb1248 N1286 2.600 . S
Tb1248 O1292 2.546 . S
Tb1248 O1293 2.610 . S
Tb1248 O1295 2.320 . S
Tb1248 O1296 2.552 . S
Tb1248 O1297 2.413 . S
Tb1248 O1299 2.362 1_554 S
Tb1248 O1300 2.421 . S
Tb1248 C1312 2.833 . S
C1249 C1252 1.432 . S
C1249 C1253 1.414 . S
C1249 N1256 1.359 . S
C1250 C1252 1.417 . S
C1250 C1254 1.432 . S
C1250 C1262 1.410 . S
C1251 C1253 1.444 . S
C1251 C1254 1.317 . S
C1251 H1274 0.929 . S
C1252 C1249 1.432 . S
C1252 C1250 1.417 . S
C1252 N1260 1.360 . S
C1253 C1249 1.414 . S
C1253 C1251 1.444 . S
C1253 C1258 1.385 . S
C1254 C1250 1.432 . S
C1254 C1251 1.317 . S
C1254 H1266 0.930 . S
C1255 C1257 1.392 . S
C1255 C1258 1.370 . S
C1255 H1267 0.931 . S
N1256 C1249 1.359 . S
N1256 C1257 1.327 . S
N1256 Tb1259 2.600 . S
C1257 C1255 1.392 . S
C1257 N1256 1.327 . S
C1257 H1264 0.930 . S
C1258 C1253 1.385 . S
C1258 C1255 1.370 . S
C1258 H1277 0.930 . S
Tb1259 N1256 2.600 . S
Tb1259 N1260 2.660 . S
Tb1259 O1293 2.362 1_556 S
Tb1259 O1294 2.421 . S
Tb1259 O1298 2.546 . S
Tb1259 O1299 2.610 . S
Tb1259 O1301 2.320 . S
Tb1259 O1302 2.552 . S
Tb1259 O1303 2.413 . S
Tb1259 C1323 2.833 . S
N1260 C1252 1.360 . S
N1260 Tb1259 2.660 . S
N1260 C1261 1.305 . S
C1261 N1260 1.305 . S
C1261 C1263 1.407 . S
C1261 H1268 0.930 . S
C1262 C1250 1.410 . S
C1262 C1263 1.345 . S
C1262 H1270 0.930 . S
C1263 C1261 1.407 . S
C1263 C1262 1.345 . S
C1263 H1265 0.930 . S
H1264 C1257 0.930 . S
H1265 C1263 0.930 . S
H1266 C1254 0.930 . S
H1267 C1255 0.931 . S
H1268 C1261 0.930 . S
H1269 C1283 0.930 . S
H1270 C1262 0.930 . S
H1271 C1289 0.930 . S
H1272 C1280 0.930 . S
H1273 C1287 0.931 . S
H1274 C1251 0.929 . S
H1275 C1281 0.930 . S
H1276 C1314 0.930 . S
H1277 C1258 0.930 . S
H1278 C1313 0.929 . S
N1279 Tb1248 2.660 . S
N1279 C1280 1.305 . S
N1279 C1284 1.360 . S
C1280 H1272 0.930 . S
C1280 N1279 1.305 . S
C1280 C1283 1.407 . S
C1281 H1275 0.930 . S
C1281 C1282 1.410 . S
C1281 C1283 1.345 . S
C1282 C1281 1.410 . S
C1282 C1284 1.417 . S
C1282 C1314 1.432 . S
C1283 H1269 0.930 . S
C1283 C1280 1.407 . S
C1283 C1281 1.345 . S
C1284 N1279 1.360 . S
C1284 C1282 1.417 . S
C1284 C1288 1.432 . S
H1285 C1290 0.930 . S
N1286 Tb1248 2.600 . S
N1286 C1288 1.359 . S
N1286 C1289 1.327 . S
C1287 H1273 0.931 . S
C1287 C1289 1.392 . S
C1287 C1290 1.370 . S
C1288 C1284 1.432 . S
C1288 N1286 1.359 . S
C1288 C1291 1.414 . S
C1289 H1271 0.930 . S
C1289 N1286 1.327 . S
C1289 C1287 1.392 . S
C1290 H1285 0.930 . S
C1290 C1287 1.370 . S
C1290 C1291 1.385 . S
C1291 C1288 1.414 . S
C1291 C1290 1.385 . S
C1291 C1313 1.444 . S
O1292 Tb1248 2.546 . S
O1292 C1312 1.251 . S
O1293 Tb1248 2.610 . S
O1293 Tb1259 2.362 1_554 S
O1293 C1304 1.283 . S
O1294 Tb1259 2.421 . S
O1294 C1311 1.262 1_556 S
O1295 Tb1248 2.320 . S
O1295 C1311 1.260 . S
O1296 Tb1248 2.552 . S
O1296 C1304 1.243 . S
O1297 Tb1248 2.413 . S
O1297 C1312 1.256 . S
O1298 Tb1259 2.546 . S
O1298 C1323 1.251 . S
O1299 Tb1248 2.362 1_556 S
O1299 Tb1259 2.610 . S
O1299 C1315 1.283 . S
O1300 Tb1248 2.421 . S
O1300 C1322 1.262 1_554 S
O1301 Tb1259 2.320 . S
O1301 C1322 1.260 . S
O1302 Tb1259 2.552 . S
O1302 C1315 1.243 . S
O1303 Tb1259 2.413 . S
O1303 C1323 1.256 . S
C1304 O1293 1.283 . S
C1304 O1296 1.243 . S
C1305 C1307 1.382 . S
C1305 C1309 1.393 . S
C1305 C1312 1.500 . S
C1306 C1307 1.400 . S
C1306 C1308 1.384 . S
C1307 C1305 1.382 . S
C1307 C1306 1.400 . S
C1307 H1324 0.930 . S
C1308 C1306 1.384 . S
C1308 C1310 1.392 . S
C1308 H1325 0.931 . S
C1309 C1305 1.393 . S
C1309 C1310 1.401 . S
C1309 H1326 0.930 . S
C1310 C1308 1.392 . S
C1310 C1309 1.401 . S
C1310 H1327 0.930 . S
C1311 O1294 1.262 1_554 S
C1311 O1295 1.260 . S
C1312 Tb1248 2.833 . S
C1312 O1292 1.251 . S
C1312 O1297 1.256 . S
C1312 C1305 1.500 . S
C1313 H1278 0.929 . S
C1313 C1291 1.444 . S
C1313 C1314 1.317 . S
C1314 H1276 0.930 . S
C1314 C1282 1.432 . S
C1314 C1313 1.317 . S
C1315 O1299 1.283 . S
C1315 O1302 1.243 . S
C1316 C1317 1.382 . S
C1316 C1320 1.393 . S
C1316 C1323 1.500 . S
C1317 C1316 1.382 . S
C1317 C1318 1.400 . S
C1317 H1328 0.930 . S
C1318 C1317 1.400 . S
C1318 C1319 1.384 . S
C1319 C1318 1.384 . S
C1319 C1321 1.392 . S
C1319 H1329 0.931 . S
C1320 C1316 1.393 . S
C1320 C1321 1.401 . S
C1320 H1330 0.930 . S
C1321 C1319 1.392 . S
C1321 C1320 1.401 . S
C1321 H1331 0.930 . S
C1322 O1300 1.262 1_556 S
C1322 O1301 1.260 . S
C1323 Tb1259 2.833 . S
C1323 O1298 1.251 . S
C1323 O1303 1.256 . S
C1323 C1316 1.500 . S
H1324 C1307 0.930 . S
H1325 C1308 0.931 . S
H1326 C1309 0.930 . S
H1327 C1310 0.930 . S
H1328 C1317 0.930 . S
H1329 C1319 0.931 . S
H1330 C1320 0.930 . S
H1331 C1321 0.930 . S
Tb1332 N1363 2.660 . S
Tb1332 N1370 2.600 . S
Tb1332 O1376 2.546 . S
Tb1332 O1377 2.610 . S
Tb1332 O1379 2.320 . S
Tb1332 O1380 2.552 . S
Tb1332 O1381 2.413 . S
Tb1332 O1383 2.362 . S
Tb1332 O1384 2.421 . S
Tb1332 C1396 2.833 . S
C1333 C1336 1.432 . S
C1333 C1337 1.414 . S
C1333 N1340 1.359 . S
C1334 C1336 1.417 . S
C1334 C1338 1.432 . S
C1334 C1346 1.410 . S
C1335 C1337 1.444 . S
C1335 C1338 1.317 . S
C1335 H1358 0.929 . S
C1336 C1333 1.432 . S
C1336 C1334 1.417 . S
C1336 N1344 1.360 . S
C1337 C1333 1.414 . S
C1337 C1335 1.444 . S
C1337 C1342 1.385 . S
C1338 C1334 1.432 . S
C1338 C1335 1.317 . S
C1338 H1350 0.930 . S
C1339 C1341 1.392 . S
C1339 C1342 1.370 . S
C1339 H1351 0.931 . S
N1340 C1333 1.359 . S
N1340 C1341 1.327 . S
N1340 Tb1343 2.600 . S
C1341 C1339 1.392 . S
C1341 N1340 1.327 . S
C1341 H1348 0.930 . S
C1342 C1337 1.385 . S
C1342 C1339 1.370 . S
C1342 H1361 0.930 . S
Tb1343 N1340 2.600 . S
Tb1343 N1344 2.660 . S
Tb1343 O1377 2.362 . S
Tb1343 O1378 2.421 . S
Tb1343 O1382 2.546 . S
Tb1343 O1383 2.610 . S
Tb1343 O1385 2.320 . S
Tb1343 O1386 2.552 . S
Tb1343 O1387 2.413 . S
Tb1343 C1407 2.833 . S
N1344 C1336 1.360 . S
N1344 Tb1343 2.660 . S
N1344 C1345 1.305 . S
C1345 N1344 1.305 . S
C1345 C1347 1.407 . S
C1345 H1352 0.930 . S
C1346 C1334 1.410 . S
C1346 C1347 1.345 . S
C1346 H1354 0.930 . S
C1347 C1345 1.407 . S
C1347 C1346 1.345 . S
C1347 H1349 0.930 . S
H1348 C1341 0.930 . S
H1349 C1347 0.930 . S
H1350 C1338 0.930 . S
H1351 C1339 0.931 . S
H1352 C1345 0.930 . S
H1353 C1367 0.930 . S
H1354 C1346 0.930 . S
H1355 C1373 0.930 . S
H1356 C1364 0.930 . S
H1357 C1371 0.931 . S
H1358 C1335 0.929 . S
H1359 C1365 0.930 . S
H1360 C1398 0.930 . S
H1361 C1342 0.930 . S
H1362 C1397 0.929 . S
N1363 Tb1332 2.660 . S
N1363 C1364 1.305 . S
N1363 C1368 1.360 . S
C1364 H1356 0.930 . S
C1364 N1363 1.305 . S
C1364 C1367 1.407 1_455 S
C1365 H1359 0.930 . S
C1365 C1366 1.410 . S
C1365 C1367 1.345 . S
C1366 C1365 1.410 . S
C1366 C1368 1.417 1_655 S
C1366 C1398 1.432 . S
C1367 H1353 0.930 . S
C1367 C1364 1.407 1_655 S
C1367 C1365 1.345 . S
C1368 N1363 1.360 . S
C1368 C1366 1.417 1_455 S
C1368 C1372 1.432 . S
H1369 C1374 0.930 . S
N1370 Tb1332 2.600 . S
N1370 C1372 1.359 . S
N1370 C1373 1.327 . S
C1371 H1357 0.931 . S
C1371 C1373 1.392 . S
C1371 C1374 1.370 . S
C1372 C1368 1.432 . S
C1372 N1370 1.359 . S
C1372 C1375 1.414 . S
C1373 H1355 0.930 . S
C1373 N1370 1.327 . S
C1373 C1371 1.392 . S
C1374 H1369 0.930 . S
C1374 C1371 1.370 . S
C1374 C1375 1.385 . S
C1375 C1372 1.414 . S
C1375 C1374 1.385 . S
C1375 C1397 1.444 1_455 S
O1376 Tb1332 2.546 . S
O1376 C1396 1.251 . S
O1377 Tb1332 2.610 . S
O1377 Tb1343 2.362 . S
O1377 C1388 1.283 . S
O1378 Tb1343 2.421 . S
O1378 C1395 1.262 . S
O1379 Tb1332 2.320 . S
O1379 C1395 1.260 . S
O1380 Tb1332 2.552 . S
O1380 C1388 1.243 . S
O1381 Tb1332 2.413 . S
O1381 C1396 1.256 . S
O1382 Tb1343 2.546 . S
O1382 C1407 1.251 . S
O1383 Tb1332 2.362 . S
O1383 Tb1343 2.610 . S
O1383 C1399 1.283 . S
O1384 Tb1332 2.421 . S
O1384 C1406 1.262 . S
O1385 Tb1343 2.320 . S
O1385 C1406 1.260 . S
O1386 Tb1343 2.552 . S
O1386 C1399 1.243 . S
O1387 Tb1343 2.413 . S
O1387 C1407 1.256 . S
C1388 O1377 1.283 . S
C1388 O1380 1.243 . S
C1389 C1391 1.382 . S
C1389 C1393 1.393 . S
C1389 C1396 1.500 . S
C1390 C1391 1.400 . S
C1390 C1392 1.384 . S
C1391 C1389 1.382 . S
C1391 C1390 1.400 . S
C1391 H1408 0.930 . S
C1392 C1390 1.384 . S
C1392 C1394 1.392 . S
C1392 H1409 0.931 . S
C1393 C1389 1.393 . S
C1393 C1394 1.401 . S
C1393 H1410 0.930 . S
C1394 C1392 1.392 . S
C1394 C1393 1.401 . S
C1394 H1411 0.930 . S
C1395 O1378 1.262 . S
C1395 O1379 1.260 . S
C1396 Tb1332 2.833 . S
C1396 O1376 1.251 . S
C1396 O1381 1.256 . S
C1396 C1389 1.500 . S
C1397 H1362 0.929 . S
C1397 C1375 1.444 1_655 S
C1397 C1398 1.317 . S
C1398 H1360 0.930 . S
C1398 C1366 1.432 . S
C1398 C1397 1.317 . S
C1399 O1383 1.283 . S
C1399 O1386 1.243 . S
C1400 C1401 1.382 . S
C1400 C1404 1.393 . S
C1400 C1407 1.500 . S
C1401 C1400 1.382 . S
C1401 C1402 1.400 . S
C1401 H1412 0.930 . S
C1402 C1401 1.400 . S
C1402 C1403 1.384 . S
C1403 C1402 1.384 . S
C1403 C1405 1.392 . S
C1403 H1413 0.931 . S
C1404 C1400 1.393 . S
C1404 C1405 1.401 . S
C1404 H1414 0.930 . S
C1405 C1403 1.392 . S
C1405 C1404 1.401 . S
C1405 H1415 0.930 . S
C1406 O1384 1.262 . S
C1406 O1385 1.260 . S
C1407 Tb1343 2.833 . S
C1407 O1382 1.251 . S
C1407 O1387 1.256 . S
C1407 C1400 1.500 . S
H1408 C1391 0.930 . S
H1409 C1392 0.931 . S
H1410 C1393 0.930 . S
H1411 C1394 0.930 . S
H1412 C1401 0.930 . S
H1413 C1403 0.931 . S
H1414 C1404 0.930 . S
H1415 C1405 0.930 . S
Tb1416 N1447 2.660 . S
Tb1416 N1454 2.600 . S
Tb1416 O1460 2.546 . S
Tb1416 O1461 2.610 . S
Tb1416 O1463 2.320 . S
Tb1416 O1464 2.552 . S
Tb1416 O1465 2.413 . S
Tb1416 O1467 2.362 . S
Tb1416 O1468 2.421 . S
Tb1416 C1480 2.833 . S
C1417 C1420 1.432 . S
C1417 C1421 1.414 . S
C1417 N1424 1.359 . S
C1418 C1420 1.417 . S
C1418 C1422 1.432 . S
C1418 C1430 1.410 . S
C1419 C1421 1.444 . S
C1419 C1422 1.317 . S
C1419 H1442 0.929 . S
C1420 C1417 1.432 . S
C1420 C1418 1.417 . S
C1420 N1428 1.360 . S
C1421 C1417 1.414 . S
C1421 C1419 1.444 . S
C1421 C1426 1.385 . S
C1422 C1418 1.432 . S
C1422 C1419 1.317 . S
C1422 H1434 0.930 . S
C1423 C1425 1.392 . S
C1423 C1426 1.370 . S
C1423 H1435 0.931 . S
N1424 C1417 1.359 . S
N1424 C1425 1.327 . S
N1424 Tb1427 2.600 . S
C1425 C1423 1.392 . S
C1425 N1424 1.327 . S
C1425 H1432 0.930 . S
C1426 C1421 1.385 . S
C1426 C1423 1.370 . S
C1426 H1445 0.930 . S
Tb1427 N1424 2.600 . S
Tb1427 N1428 2.660 . S
Tb1427 O1461 2.362 . S
Tb1427 O1462 2.421 . S
Tb1427 O1466 2.546 . S
Tb1427 O1467 2.610 . S
Tb1427 O1469 2.320 . S
Tb1427 O1470 2.552 . S
Tb1427 O1471 2.413 . S
Tb1427 C1491 2.833 . S
N1428 C1420 1.360 . S
N1428 Tb1427 2.660 . S
N1428 C1429 1.305 . S
C1429 N1428 1.305 . S
C1429 C1431 1.407 . S
C1429 H1436 0.930 . S
C1430 C1418 1.410 . S
C1430 C1431 1.345 . S
C1430 H1438 0.930 . S
C1431 C1429 1.407 . S
C1431 C1430 1.345 . S
C1431 H1433 0.930 . S
H1432 C1425 0.930 . S
H1433 C1431 0.930 . S
H1434 C1422 0.930 . S
H1435 C1423 0.931 . S
H1436 C1429 0.930 . S
H1437 C1451 0.930 . S
H1438 C1430 0.930 . S
H1439 C1457 0.930 . S
H1440 C1448 0.930 . S
H1441 C1455 0.931 . S
H1442 C1419 0.929 . S
H1443 C1449 0.930 . S
H1444 C1482 0.930 . S
H1445 C1426 0.930 . S
H1446 C1481 0.929 . S
N1447 Tb1416 2.660 . S
N1447 C1448 1.305 . S
N1447 C1452 1.360 . S
C1448 H1440 0.930 . S
C1448 N1447 1.305 . S
C1448 C1451 1.407 . S
C1449 H1443 0.930 . S
C1449 C1450 1.410 . S
C1449 C1451 1.345 . S
C1450 C1449 1.410 . S
C1450 C1452 1.417 . S
C1450 C1482 1.432 . S
C1451 H1437 0.930 . S
C1451 C1448 1.407 . S
C1451 C1449 1.345 . S
C1452 N1447 1.360 . S
C1452 C1450 1.417 . S
C1452 C1456 1.432 . S
H1453 C1458 0.930 . S
N1454 Tb1416 2.600 . S
N1454 C1456 1.359 . S
N1454 C1457 1.327 . S
C1455 H1441 0.931 . S
C1455 C1457 1.392 . S
C1455 C1458 1.370 . S
C1456 C1452 1.432 . S
C1456 N1454 1.359 . S
C1456 C1459 1.414 . S
C1457 H1439 0.930 . S
C1457 N1454 1.327 . S
C1457 C1455 1.392 . S
C1458 H1453 0.930 . S
C1458 C1455 1.370 . S
C1458 C1459 1.385 . S
C1459 C1456 1.414 . S
C1459 C1458 1.385 . S
C1459 C1481 1.444 . S
O1460 Tb1416 2.546 . S
O1460 C1480 1.251 . S
O1461 Tb1416 2.610 . S
O1461 Tb1427 2.362 . S
O1461 C1472 1.283 . S
O1462 Tb1427 2.421 . S
O1462 C1479 1.262 . S
O1463 Tb1416 2.320 . S
O1463 C1479 1.260 . S
O1464 Tb1416 2.552 . S
O1464 C1472 1.243 . S
O1465 Tb1416 2.413 . S
O1465 C1480 1.256 . S
O1466 Tb1427 2.546 . S
O1466 C1491 1.251 . S
O1467 Tb1416 2.362 . S
O1467 Tb1427 2.610 . S
O1467 C1483 1.283 . S
O1468 Tb1416 2.421 . S
O1468 C1490 1.262 . S
O1469 Tb1427 2.320 . S
O1469 C1490 1.260 . S
O1470 Tb1427 2.552 . S
O1470 C1483 1.243 . S
O1471 Tb1427 2.413 . S
O1471 C1491 1.256 . S
C1472 O1461 1.283 . S
C1472 O1464 1.243 . S
C1473 C1475 1.382 . S
C1473 C1477 1.393 . S
C1473 C1480 1.500 . S
C1474 C1475 1.400 . S
C1474 C1476 1.384 . S
C1475 C1473 1.382 . S
C1475 C1474 1.400 . S
C1475 H1492 0.930 . S
C1476 C1474 1.384 . S
C1476 C1478 1.392 . S
C1476 H1493 0.931 . S
C1477 C1473 1.393 . S
C1477 C1478 1.401 . S
C1477 H1494 0.930 . S
C1478 C1476 1.392 . S
C1478 C1477 1.401 . S
C1478 H1495 0.930 . S
C1479 O1462 1.262 . S
C1479 O1463 1.260 . S
C1480 Tb1416 2.833 . S
C1480 O1460 1.251 . S
C1480 O1465 1.256 . S
C1480 C1473 1.500 . S
C1481 H1446 0.929 . S
C1481 C1459 1.444 . S
C1481 C1482 1.317 . S
C1482 H1444 0.930 . S
C1482 C1450 1.432 . S
C1482 C1481 1.317 . S
C1483 O1467 1.283 . S
C1483 O1470 1.243 . S
C1484 C1485 1.382 . S
C1484 C1488 1.393 . S
C1484 C1491 1.500 . S
C1485 C1484 1.382 . S
C1485 C1486 1.400 . S
C1485 H1496 0.930 . S
C1486 C1485 1.400 . S
C1486 C1487 1.384 . S
C1487 C1486 1.384 . S
C1487 C1489 1.392 . S
C1487 H1497 0.931 . S
C1488 C1484 1.393 . S
C1488 C1489 1.401 . S
C1488 H1498 0.930 . S
C1489 C1487 1.392 . S
C1489 C1488 1.401 . S
C1489 H1499 0.930 . S
C1490 O1468 1.262 . S
C1490 O1469 1.260 . S
C1491 Tb1427 2.833 . S
C1491 O1466 1.251 . S
C1491 O1471 1.256 . S
C1491 C1484 1.500 . S
H1492 C1475 0.930 . S
H1493 C1476 0.931 . S
H1494 C1477 0.930 . S
H1495 C1478 0.930 . S
H1496 C1485 0.930 . S
H1497 C1487 0.931 . S
H1498 C1488 0.930 . S
H1499 C1489 0.930 . S
Tb1500 N1531 2.660 . S
Tb1500 N1538 2.600 . S
Tb1500 O1544 2.546 . S
Tb1500 O1545 2.610 . S
Tb1500 O1547 2.320 . S
Tb1500 O1548 2.552 . S
Tb1500 O1549 2.413 . S
Tb1500 O1551 2.362 . S
Tb1500 O1552 2.421 . S
Tb1500 C1564 2.833 . S
C1501 C1504 1.432 . S
C1501 C1505 1.414 . S
C1501 N1508 1.359 . S
C1502 C1504 1.417 1_655 S
C1502 C1506 1.432 . S
C1502 C1514 1.410 . S
C1503 C1505 1.444 1_655 S
C1503 C1506 1.317 . S
C1503 H1526 0.929 . S
C1504 C1501 1.432 . S
C1504 C1502 1.417 1_455 S
C1504 N1512 1.360 . S
C1505 C1501 1.414 . S
C1505 C1503 1.444 1_455 S
C1505 C1510 1.385 . S
C1506 C1502 1.432 . S
C1506 C1503 1.317 . S
C1506 H1518 0.930 . S
C1507 C1509 1.392 . S
C1507 C1510 1.370 . S
C1507 H1519 0.931 . S
N1508 C1501 1.359 . S
N1508 C1509 1.327 . S
N1508 Tb1511 2.600 . S
C1509 C1507 1.392 . S
C1509 N1508 1.327 . S
C1509 H1516 0.930 . S
C1510 C1505 1.385 . S
C1510 C1507 1.370 . S
C1510 H1529 0.930 . S
Tb1511 N1508 2.600 . S
Tb1511 N1512 2.660 . S
Tb1511 O1545 2.362 . S
Tb1511 O1546 2.421 . S
Tb1511 O1550 2.546 . S
Tb1511 O1551 2.610 . S
Tb1511 O1553 2.320 . S
Tb1511 O1554 2.552 . S
Tb1511 O1555 2.413 . S
Tb1511 C1575 2.833 . S
N1512 C1504 1.360 . S
N1512 Tb1511 2.660 . S
N1512 C1513 1.305 . S
C1513 N1512 1.305 . S
C1513 C1515 1.407 1_455 S
C1513 H1520 0.930 . S
C1514 C1502 1.410 . S
C1514 C1515 1.345 . S
C1514 H1522 0.930 . S
C1515 C1513 1.407 1_655 S
C1515 C1514 1.345 . S
C1515 H1517 0.930 . S
H1516 C1509 0.930 . S
H1517 C1515 0.930 . S
H1518 C1506 0.930 . S
H1519 C1507 0.931 . S
H1520 C1513 0.930 . S
H1521 C1535 0.930 . S
H1522 C1514 0.930 . S
H1523 C1541 0.930 . S
H1524 C1532 0.930 . S
H1525 C1539 0.931 . S
H1526 C1503 0.929 . S
H1527 C1533 0.930 . S
H1528 C1566 0.930 . S
H1529 C1510 0.930 . S
H1530 C1565 0.929 . S
N1531 Tb1500 2.660 . S
N1531 C1532 1.305 . S
N1531 C1536 1.360 . S
C1532 H1524 0.930 . S
C1532 N1531 1.305 . S
C1532 C1535 1.407 . S
C1533 H1527 0.930 . S
C1533 C1534 1.410 . S
C1533 C1535 1.345 . S
C1534 C1533 1.410 . S
C1534 C1536 1.417 . S
C1534 C1566 1.432 . S
C1535 H1521 0.930 . S
C1535 C1532 1.407 . S
C1535 C1533 1.345 . S
C1536 N1531 1.360 . S
C1536 C1534 1.417 . S
C1536 C1540 1.432 . S
H1537 C1542 0.930 . S
N1538 Tb1500 2.600 . S
N1538 C1540 1.359 . S
N1538 C1541 1.327 . S
C1539 H1525 0.931 . S
C1539 C1541 1.392 . S
C1539 C1542 1.370 . S
C1540 C1536 1.432 . S
C1540 N1538 1.359 . S
C1540 C1543 1.414 . S
C1541 H1523 0.930 . S
C1541 N1538 1.327 . S
C1541 C1539 1.392 . S
C1542 H1537 0.930 . S
C1542 C1539 1.370 . S
C1542 C1543 1.385 . S
C1543 C1540 1.414 . S
C1543 C1542 1.385 . S
C1543 C1565 1.444 . S
O1544 Tb1500 2.546 . S
O1544 C1564 1.251 . S
O1545 Tb1500 2.610 . S
O1545 Tb1511 2.362 . S
O1545 C1556 1.283 . S
O1546 Tb1511 2.421 . S
O1546 C1563 1.262 . S
O1547 Tb1500 2.320 . S
O1547 C1563 1.260 . S
O1548 Tb1500 2.552 . S
O1548 C1556 1.243 . S
O1549 Tb1500 2.413 . S
O1549 C1564 1.256 . S
O1550 Tb1511 2.546 . S
O1550 C1575 1.251 . S
O1551 Tb1500 2.362 . S
O1551 Tb1511 2.610 . S
O1551 C1567 1.283 . S
O1552 Tb1500 2.421 . S
O1552 C1574 1.262 . S
O1553 Tb1511 2.320 . S
O1553 C1574 1.260 . S
O1554 Tb1511 2.552 . S
O1554 C1567 1.243 . S
O1555 Tb1511 2.413 . S
O1555 C1575 1.256 . S
C1556 O1545 1.283 . S
C1556 O1548 1.243 . S
C1557 C1559 1.382 . S
C1557 C1561 1.393 . S
C1557 C1564 1.500 . S
C1558 C1559 1.400 . S
C1558 C1560 1.384 . S
C1559 C1557 1.382 . S
C1559 C1558 1.400 . S
C1559 H1576 0.930 . S
C1560 C1558 1.384 . S
C1560 C1562 1.392 . S
C1560 H1577 0.931 . S
C1561 C1557 1.393 . S
C1561 C1562 1.401 . S
C1561 H1578 0.930 . S
C1562 C1560 1.392 . S
C1562 C1561 1.401 . S
C1562 H1579 0.930 . S
C1563 O1546 1.262 . S
C1563 O1547 1.260 . S
C1564 Tb1500 2.833 . S
C1564 O1544 1.251 . S
C1564 O1549 1.256 . S
C1564 C1557 1.500 . S
C1565 H1530 0.929 . S
C1565 C1543 1.444 . S
C1565 C1566 1.317 . S
C1566 H1528 0.930 . S
C1566 C1534 1.432 . S
C1566 C1565 1.317 . S
C1567 O1551 1.283 . S
C1567 O1554 1.243 . S
C1568 C1569 1.382 . S
C1568 C1572 1.393 . S
C1568 C1575 1.500 . S
C1569 C1568 1.382 . S
C1569 C1570 1.400 . S
C1569 H1580 0.930 . S
C1570 C1569 1.400 . S
C1570 C1571 1.384 . S
C1571 C1570 1.384 . S
C1571 C1573 1.392 . S
C1571 H1581 0.931 . S
C1572 C1568 1.393 . S
C1572 C1573 1.401 . S
C1572 H1582 0.930 . S
C1573 C1571 1.392 . S
C1573 C1572 1.401 . S
C1573 H1583 0.930 . S
C1574 O1552 1.262 . S
C1574 O1553 1.260 . S
C1575 Tb1511 2.833 . S
C1575 O1550 1.251 . S
C1575 O1555 1.256 . S
C1575 C1568 1.500 . S
H1576 C1559 0.930 . S
H1577 C1560 0.931 . S
H1578 C1561 0.930 . S
H1579 C1562 0.930 . S
H1580 C1569 0.930 . S
H1581 C1571 0.931 . S
H1582 C1572 0.930 . S
H1583 C1573 0.930 . S
Tb1584 N1615 2.660 . S
Tb1584 N1622 2.600 . S
Tb1584 O1628 2.546 . S
Tb1584 O1629 2.610 . S
Tb1584 O1631 2.320 . S
Tb1584 O1632 2.552 . S
Tb1584 O1633 2.413 . S
Tb1584 O1635 2.362 . S
Tb1584 O1636 2.421 . S
Tb1584 C1648 2.833 . S
C1585 C1588 1.432 . S
C1585 C1589 1.414 . S
C1585 N1592 1.359 . S
C1586 C1588 1.417 1_455 S
C1586 C1590 1.432 . S
C1586 C1598 1.410 . S
C1587 C1589 1.444 1_455 S
C1587 C1590 1.317 . S
C1587 H1610 0.929 . S
C1588 C1585 1.432 . S
C1588 C1586 1.417 1_655 S
C1588 N1596 1.360 . S
C1589 C1585 1.414 . S
C1589 C1587 1.444 1_655 S
C1589 C1594 1.385 . S
C1590 C1586 1.432 . S
C1590 C1587 1.317 . S
C1590 H1602 0.930 . S
C1591 C1593 1.392 . S
C1591 C1594 1.370 . S
C1591 H1603 0.931 . S
N1592 C1585 1.359 . S
N1592 C1593 1.327 . S
N1592 Tb1595 2.600 . S
C1593 C1591 1.392 . S
C1593 N1592 1.327 . S
C1593 H1600 0.930 . S
C1594 C1589 1.385 . S
C1594 C1591 1.370 . S
C1594 H1613 0.930 . S
Tb1595 N1592 2.600 . S
Tb1595 N1596 2.660 . S
Tb1595 O1629 2.362 . S
Tb1595 O1630 2.421 . S
Tb1595 O1634 2.546 . S
Tb1595 O1635 2.610 . S
Tb1595 O1637 2.320 . S
Tb1595 O1638 2.552 . S
Tb1595 O1639 2.413 . S
Tb1595 C1659 2.833 . S
N1596 C1588 1.360 . S
N1596 Tb1595 2.660 . S
N1596 C1597 1.305 . S
C1597 N1596 1.305 . S
C1597 C1599 1.407 1_655 S
C1597 H1604 0.930 . S
C1598 C1586 1.410 . S
C1598 C1599 1.345 . S
C1598 H1606 0.930 . S
C1599 C1597 1.407 1_455 S
C1599 C1598 1.345 . S
C1599 H1601 0.930 . S
H1600 C1593 0.930 . S
H1601 C1599 0.930 . S
H1602 C1590 0.930 . S
H1603 C1591 0.931 . S
H1604 C1597 0.930 . S
H1605 C1619 0.930 . S
H1606 C1598 0.930 . S
H1607 C1625 0.930 . S
H1608 C1616 0.930 . S
H1609 C1623 0.931 . S
H1610 C1587 0.929 . S
H1611 C1617 0.930 . S
H1612 C1650 0.930 . S
H1613 C1594 0.930 . S
H1614 C1649 0.929 . S
N1615 Tb1584 2.660 . S
N1615 C1616 1.305 . S
N1615 C1620 1.360 . S
C1616 H1608 0.930 . S
C1616 N1615 1.305 . S
C1616 C1619 1.407 . S
C1617 H1611 0.930 . S
C1617 C1618 1.410 . S
C1617 C1619 1.345 . S
C1618 C1617 1.410 . S
C1618 C1620 1.417 . S
C1618 C1650 1.432 . S
C1619 H1605 0.930 . S
C1619 C1616 1.407 . S
C1619 C1617 1.345 . S
C1620 N1615 1.360 . S
C1620 C1618 1.417 . S
C1620 C1624 1.432 . S
H1621 C1626 0.930 . S
N1622 Tb1584 2.600 . S
N1622 C1624 1.359 . S
N1622 C1625 1.327 . S
C1623 H1609 0.931 . S
C1623 C1625 1.392 . S
C1623 C1626 1.370 . S
C1624 C1620 1.432 . S
C1624 N1622 1.359 . S
C1624 C1627 1.414 . S
C1625 H1607 0.930 . S
C1625 N1622 1.327 . S
C1625 C1623 1.392 . S
C1626 H1621 0.930 . S
C1626 C1623 1.370 . S
C1626 C1627 1.385 . S
C1627 C1624 1.414 . S
C1627 C1626 1.385 . S
C1627 C1649 1.444 . S
O1628 Tb1584 2.546 . S
O1628 C1648 1.251 . S
O1629 Tb1584 2.610 . S
O1629 Tb1595 2.362 . S
O1629 C1640 1.283 . S
O1630 Tb1595 2.421 . S
O1630 C1647 1.262 . S
O1631 Tb1584 2.320 . S
O1631 C1647 1.260 . S
O1632 Tb1584 2.552 . S
O1632 C1640 1.243 . S
O1633 Tb1584 2.413 . S
O1633 C1648 1.256 . S
O1634 Tb1595 2.546 . S
O1634 C1659 1.251 . S
O1635 Tb1584 2.362 . S
O1635 Tb1595 2.610 . S
O1635 C1651 1.283 . S
O1636 Tb1584 2.421 . S
O1636 C1658 1.262 . S
O1637 Tb1595 2.320 . S
O1637 C1658 1.260 . S
O1638 Tb1595 2.552 . S
O1638 C1651 1.243 . S
O1639 Tb1595 2.413 . S
O1639 C1659 1.256 . S
C1640 O1629 1.283 . S
C1640 O1632 1.243 . S
C1641 C1643 1.382 . S
C1641 C1645 1.393 . S
C1641 C1648 1.500 . S
C1642 C1643 1.400 . S
C1642 C1644 1.384 . S
C1643 C1641 1.382 . S
C1643 C1642 1.400 . S
C1643 H1660 0.930 . S
C1644 C1642 1.384 . S
C1644 C1646 1.392 . S
C1644 H1661 0.931 . S
C1645 C1641 1.393 . S
C1645 C1646 1.401 . S
C1645 H1662 0.930 . S
C1646 C1644 1.392 . S
C1646 C1645 1.401 . S
C1646 H1663 0.930 . S
C1647 O1630 1.262 . S
C1647 O1631 1.260 . S
C1648 Tb1584 2.833 . S
C1648 O1628 1.251 . S
C1648 O1633 1.256 . S
C1648 C1641 1.500 . S
C1649 H1614 0.929 . S
C1649 C1627 1.444 . S
C1649 C1650 1.317 . S
C1650 H1612 0.930 . S
C1650 C1618 1.432 . S
C1650 C1649 1.317 . S
C1651 O1635 1.283 . S
C1651 O1638 1.243 . S
C1652 C1653 1.382 . S
C1652 C1656 1.393 . S
C1652 C1659 1.500 . S
C1653 C1652 1.382 . S
C1653 C1654 1.400 . S
C1653 H1664 0.930 . S
C1654 C1653 1.400 . S
C1654 C1655 1.384 . S
C1655 C1654 1.384 . S
C1655 C1657 1.392 . S
C1655 H1665 0.931 . S
C1656 C1652 1.393 . S
C1656 C1657 1.401 . S
C1656 H1666 0.930 . S
C1657 C1655 1.392 . S
C1657 C1656 1.401 . S
C1657 H1667 0.930 . S
C1658 O1636 1.262 . S
C1658 O1637 1.260 . S
C1659 Tb1595 2.833 . S
C1659 O1634 1.251 . S
C1659 O1639 1.256 . S
C1659 C1652 1.500 . S
H1660 C1643 0.930 . S
H1661 C1644 0.931 . S
H1662 C1645 0.930 . S
H1663 C1646 0.930 . S
H1664 C1653 0.930 . S
H1665 C1655 0.931 . S
H1666 C1656 0.930 . S
H1667 C1657 0.930 . S
Tb1668 N1699 2.660 . S
Tb1668 N1706 2.600 . S
Tb1668 O1712 2.546 . S
Tb1668 O1713 2.610 . S
Tb1668 O1715 2.320 . S
Tb1668 O1716 2.552 . S
Tb1668 O1717 2.413 . S
Tb1668 O1719 2.362 . S
Tb1668 O1720 2.421 . S
Tb1668 C1732 2.833 . S
C1669 C1672 1.432 . S
C1669 C1673 1.414 . S
C1669 N1676 1.359 . S
C1670 C1672 1.417 . S
C1670 C1674 1.432 . S
C1670 C1682 1.410 . S
C1671 C1673 1.444 . S
C1671 C1674 1.317 . S
C1671 H1694 0.929 . S
C1672 C1669 1.432 . S
C1672 C1670 1.417 . S
C1672 N1680 1.360 . S
C1673 C1669 1.414 . S
C1673 C1671 1.444 . S
C1673 C1678 1.385 . S
C1674 C1670 1.432 . S
C1674 C1671 1.317 . S
C1674 H1686 0.930 . S
C1675 C1677 1.392 . S
C1675 C1678 1.370 . S
C1675 H1687 0.931 . S
N1676 C1669 1.359 . S
N1676 C1677 1.327 . S
N1676 Tb1679 2.600 . S
C1677 C1675 1.392 . S
C1677 N1676 1.327 . S
C1677 H1684 0.930 . S
C1678 C1673 1.385 . S
C1678 C1675 1.370 . S
C1678 H1697 0.930 . S
Tb1679 N1676 2.600 . S
Tb1679 N1680 2.660 . S
Tb1679 O1713 2.362 . S
Tb1679 O1714 2.421 . S
Tb1679 O1718 2.546 . S
Tb1679 O1719 2.610 . S
Tb1679 O1721 2.320 . S
Tb1679 O1722 2.552 . S
Tb1679 O1723 2.413 . S
Tb1679 C1743 2.833 . S
N1680 C1672 1.360 . S
N1680 Tb1679 2.660 . S
N1680 C1681 1.305 . S
C1681 N1680 1.305 . S
C1681 C1683 1.407 . S
C1681 H1688 0.930 . S
C1682 C1670 1.410 . S
C1682 C1683 1.345 . S
C1682 H1690 0.930 . S
C1683 C1681 1.407 . S
C1683 C1682 1.345 . S
C1683 H1685 0.930 . S
H1684 C1677 0.930 . S
H1685 C1683 0.930 . S
H1686 C1674 0.930 . S
H1687 C1675 0.931 . S
H1688 C1681 0.930 . S
H1689 C1703 0.930 . S
H1690 C1682 0.930 . S
H1691 C1709 0.930 . S
H1692 C1700 0.930 . S
H1693 C1707 0.931 . S
H1694 C1671 0.929 . S
H1695 C1701 0.930 . S
H1696 C1734 0.930 . S
H1697 C1678 0.930 . S
H1698 C1733 0.929 . S
N1699 Tb1668 2.660 . S
N1699 C1700 1.305 . S
N1699 C1704 1.360 . S
C1700 H1692 0.930 . S
C1700 N1699 1.305 . S
C1700 C1703 1.407 . S
C1701 H1695 0.930 . S
C1701 C1702 1.410 . S
C1701 C1703 1.345 . S
C1702 C1701 1.410 . S
C1702 C1704 1.417 . S
C1702 C1734 1.432 . S
C1703 H1689 0.930 . S
C1703 C1700 1.407 . S
C1703 C1701 1.345 . S
C1704 N1699 1.360 . S
C1704 C1702 1.417 . S
C1704 C1708 1.432 . S
H1705 C1710 0.930 . S
N1706 Tb1668 2.600 . S
N1706 C1708 1.359 . S
N1706 C1709 1.327 . S
C1707 H1693 0.931 . S
C1707 C1709 1.392 . S
C1707 C1710 1.370 . S
C1708 C1704 1.432 . S
C1708 N1706 1.359 . S
C1708 C1711 1.414 . S
C1709 H1691 0.930 . S
C1709 N1706 1.327 . S
C1709 C1707 1.392 . S
C1710 H1705 0.930 . S
C1710 C1707 1.370 . S
C1710 C1711 1.385 . S
C1711 C1708 1.414 . S
C1711 C1710 1.385 . S
C1711 C1733 1.444 . S
O1712 Tb1668 2.546 . S
O1712 C1732 1.251 . S
O1713 Tb1668 2.610 . S
O1713 Tb1679 2.362 . S
O1713 C1724 1.283 . S
O1714 Tb1679 2.421 . S
O1714 C1731 1.262 . S
O1715 Tb1668 2.320 . S
O1715 C1731 1.260 . S
O1716 Tb1668 2.552 . S
O1716 C1724 1.243 . S
O1717 Tb1668 2.413 . S
O1717 C1732 1.256 . S
O1718 Tb1679 2.546 . S
O1718 C1743 1.251 . S
O1719 Tb1668 2.362 . S
O1719 Tb1679 2.610 . S
O1719 C1735 1.283 . S
O1720 Tb1668 2.421 . S
O1720 C1742 1.262 . S
O1721 Tb1679 2.320 . S
O1721 C1742 1.260 . S
O1722 Tb1679 2.552 . S
O1722 C1735 1.243 . S
O1723 Tb1679 2.413 . S
O1723 C1743 1.256 . S
C1724 O1713 1.283 . S
C1724 O1716 1.243 . S
C1725 C1727 1.382 . S
C1725 C1729 1.393 . S
C1725 C1732 1.500 . S
C1726 C1727 1.400 . S
C1726 C1728 1.384 . S
C1727 C1725 1.382 . S
C1727 C1726 1.400 . S
C1727 H1744 0.930 . S
C1728 C1726 1.384 . S
C1728 C1730 1.392 . S
C1728 H1745 0.931 . S
C1729 C1725 1.393 . S
C1729 C1730 1.401 . S
C1729 H1746 0.930 . S
C1730 C1728 1.392 . S
C1730 C1729 1.401 . S
C1730 H1747 0.930 . S
C1731 O1714 1.262 . S
C1731 O1715 1.260 . S
C1732 Tb1668 2.833 . S
C1732 O1712 1.251 . S
C1732 O1717 1.256 . S
C1732 C1725 1.500 . S
C1733 H1698 0.929 . S
C1733 C1711 1.444 . S
C1733 C1734 1.317 . S
C1734 H1696 0.930 . S
C1734 C1702 1.432 . S
C1734 C1733 1.317 . S
C1735 O1719 1.283 . S
C1735 O1722 1.243 . S
C1736 C1737 1.382 . S
C1736 C1740 1.393 . S
C1736 C1743 1.500 . S
C1737 C1736 1.382 . S
C1737 C1738 1.400 . S
C1737 H1748 0.930 . S
C1738 C1737 1.400 . S
C1738 C1739 1.384 . S
C1739 C1738 1.384 . S
C1739 C1741 1.392 . S
C1739 H1749 0.931 . S
C1740 C1736 1.393 . S
C1740 C1741 1.401 . S
C1740 H1750 0.930 . S
C1741 C1739 1.392 . S
C1741 C1740 1.401 . S
C1741 H1751 0.930 . S
C1742 O1720 1.262 . S
C1742 O1721 1.260 . S
C1743 Tb1679 2.833 . S
C1743 O1718 1.251 . S
C1743 O1723 1.256 . S
C1743 C1736 1.500 . S
H1744 C1727 0.930 . S
H1745 C1728 0.931 . S
H1746 C1729 0.930 . S
H1747 C1730 0.930 . S
H1748 C1737 0.930 . S
H1749 C1739 0.931 . S
H1750 C1740 0.930 . S
H1751 C1741 0.930 . S
Tb1752 N1783 2.660 . S
Tb1752 N1790 2.600 . S
Tb1752 O1796 2.546 . S
Tb1752 O1797 2.610 . S
Tb1752 O1799 2.320 . S
Tb1752 O1800 2.552 . S
Tb1752 O1801 2.413 . S
Tb1752 O1803 2.362 . S
Tb1752 O1804 2.421 . S
Tb1752 C1816 2.833 . S
C1753 C1756 1.432 . S
C1753 C1757 1.414 . S
C1753 N1760 1.359 . S
C1754 C1756 1.417 . S
C1754 C1758 1.432 . S
C1754 C1766 1.410 . S
C1755 C1757 1.444 . S
C1755 C1758 1.317 . S
C1755 H1778 0.929 . S
C1756 C1753 1.432 . S
C1756 C1754 1.417 . S
C1756 N1764 1.360 . S
C1757 C1753 1.414 . S
C1757 C1755 1.444 . S
C1757 C1762 1.385 . S
C1758 C1754 1.432 . S
C1758 C1755 1.317 . S
C1758 H1770 0.930 . S
C1759 C1761 1.392 . S
C1759 C1762 1.370 . S
C1759 H1771 0.931 . S
N1760 C1753 1.359 . S
N1760 C1761 1.327 . S
N1760 Tb1763 2.600 . S
C1761 C1759 1.392 . S
C1761 N1760 1.327 . S
C1761 H1768 0.930 . S
C1762 C1757 1.385 . S
C1762 C1759 1.370 . S
C1762 H1781 0.930 . S
Tb1763 N1760 2.600 . S
Tb1763 N1764 2.660 . S
Tb1763 O1797 2.362 . S
Tb1763 O1798 2.421 . S
Tb1763 O1802 2.546 . S
Tb1763 O1803 2.610 . S
Tb1763 O1805 2.320 . S
Tb1763 O1806 2.552 . S
Tb1763 O1807 2.413 . S
Tb1763 C1827 2.833 . S
N1764 C1756 1.360 . S
N1764 Tb1763 2.660 . S
N1764 C1765 1.305 . S
C1765 N1764 1.305 . S
C1765 C1767 1.407 . S
C1765 H1772 0.930 . S
C1766 C1754 1.410 . S
C1766 C1767 1.345 . S
C1766 H1774 0.930 . S
C1767 C1765 1.407 . S
C1767 C1766 1.345 . S
C1767 H1769 0.930 . S
H1768 C1761 0.930 . S
H1769 C1767 0.930 . S
H1770 C1758 0.930 . S
H1771 C1759 0.931 . S
H1772 C1765 0.930 . S
H1773 C1787 0.930 . S
H1774 C1766 0.930 . S
H1775 C1793 0.930 . S
H1776 C1784 0.930 . S
H1777 C1791 0.931 . S
H1778 C1755 0.929 . S
H1779 C1785 0.930 . S
H1780 C1818 0.930 . S
H1781 C1762 0.930 . S
H1782 C1817 0.929 . S
N1783 Tb1752 2.660 . S
N1783 C1784 1.305 . S
N1783 C1788 1.360 . S
C1784 H1776 0.930 . S
C1784 N1783 1.305 . S
C1784 C1787 1.407 1_655 S
C1785 H1779 0.930 . S
C1785 C1786 1.410 . S
C1785 C1787 1.345 . S
C1786 C1785 1.410 . S
C1786 C1788 1.417 1_455 S
C1786 C1818 1.432 . S
C1787 H1773 0.930 . S
C1787 C1784 1.407 1_455 S
C1787 C1785 1.345 . S
C1788 N1783 1.360 . S
C1788 C1786 1.417 1_655 S
C1788 C1792 1.432 . S
H1789 C1794 0.930 . S
N1790 Tb1752 2.600 . S
N1790 C1792 1.359 . S
N1790 C1793 1.327 . S
C1791 H1777 0.931 . S
C1791 C1793 1.392 . S
C1791 C1794 1.370 . S
C1792 C1788 1.432 . S
C1792 N1790 1.359 . S
C1792 C1795 1.414 . S
C1793 H1775 0.930 . S
C1793 N1790 1.327 . S
C1793 C1791 1.392 . S
C1794 H1789 0.930 . S
C1794 C1791 1.370 . S
C1794 C1795 1.385 . S
C1795 C1792 1.414 . S
C1795 C1794 1.385 . S
C1795 C1817 1.444 1_655 S
O1796 Tb1752 2.546 . S
O1796 C1816 1.251 . S
O1797 Tb1752 2.610 . S
O1797 Tb1763 2.362 . S
O1797 C1808 1.283 . S
O1798 Tb1763 2.421 . S
O1798 C1815 1.262 . S
O1799 Tb1752 2.320 . S
O1799 C1815 1.260 . S
O1800 Tb1752 2.552 . S
O1800 C1808 1.243 . S
O1801 Tb1752 2.413 . S
O1801 C1816 1.256 . S
O1802 Tb1763 2.546 . S
O1802 C1827 1.251 . S
O1803 Tb1752 2.362 . S
O1803 Tb1763 2.610 . S
O1803 C1819 1.283 . S
O1804 Tb1752 2.421 . S
O1804 C1826 1.262 . S
O1805 Tb1763 2.320 . S
O1805 C1826 1.260 . S
O1806 Tb1763 2.552 . S
O1806 C1819 1.243 . S
O1807 Tb1763 2.413 . S
O1807 C1827 1.256 . S
C1808 O1797 1.283 . S
C1808 O1800 1.243 . S
C1809 C1811 1.382 . S
C1809 C1813 1.393 . S
C1809 C1816 1.500 . S
C1810 C1811 1.400 . S
C1810 C1812 1.384 . S
C1811 C1809 1.382 . S
C1811 C1810 1.400 . S
C1811 H1828 0.930 . S
C1812 C1810 1.384 . S
C1812 C1814 1.392 . S
C1812 H1829 0.931 . S
C1813 C1809 1.393 . S
C1813 C1814 1.401 . S
C1813 H1830 0.930 . S
C1814 C1812 1.392 . S
C1814 C1813 1.401 . S
C1814 H1831 0.930 . S
C1815 O1798 1.262 . S
C1815 O1799 1.260 . S
C1816 Tb1752 2.833 . S
C1816 O1796 1.251 . S
C1816 O1801 1.256 . S
C1816 C1809 1.500 . S
C1817 H1782 0.929 . S
C1817 C1795 1.444 1_455 S
C1817 C1818 1.317 . S
C1818 H1780 0.930 . S
C1818 C1786 1.432 . S
C1818 C1817 1.317 . S
C1819 O1803 1.283 . S
C1819 O1806 1.243 . S
C1820 C1821 1.382 . S
C1820 C1824 1.393 . S
C1820 C1827 1.500 . S
C1821 C1820 1.382 . S
C1821 C1822 1.400 . S
C1821 H1832 0.930 . S
C1822 C1821 1.400 . S
C1822 C1823 1.384 . S
C1823 C1822 1.384 . S
C1823 C1825 1.392 . S
C1823 H1833 0.931 . S
C1824 C1820 1.393 . S
C1824 C1825 1.401 . S
C1824 H1834 0.930 . S
C1825 C1823 1.392 . S
C1825 C1824 1.401 . S
C1825 H1835 0.930 . S
C1826 O1804 1.262 . S
C1826 O1805 1.260 . S
C1827 Tb1763 2.833 . S
C1827 O1802 1.251 . S
C1827 O1807 1.256 . S
C1827 C1820 1.500 . S
H1828 C1811 0.930 . S
H1829 C1812 0.931 . S
H1830 C1813 0.930 . S
H1831 C1814 0.930 . S
H1832 C1821 0.930 . S
H1833 C1823 0.931 . S
H1834 C1824 0.930 . S
H1835 C1825 0.930 . S
C781 C1147 1.550 . S
C871 C1231 1.550 . S
C751 C1311 1.518 . S
C691 C1227 1.408 . S
C1315 C571 1.430 . S
C601 C1143 1.539 . S
C1136 C661 1.393 . S
C1220 C541 1.372 . S
C631 C1322 1.659 . S
C811 C1238 1.517 . S
C841 C1304 1.267 . S
C1154 C721 1.388 . S
C1399 C61 1.551 . S
C151 C1483 1.551 . S
C31 C1563 1.518 . S
C1051 C1479 1.408 . S
C931 C1567 1.430 . S
C961 C1395 1.540 . S
C1021 C1388 1.392 . S
C901 C1472 1.370 . S
C1574 C991 1.659 . S
C91 C1490 1.517 . S
C1556 C121 1.268 . S
C1 C1406 1.387 . S
C1651 C421 1.550 . S
C511 C1735 1.550 . S
C1815 C391 1.519 . S
C1731 C331 1.408 . S
C1819 C211 1.431 . S
C241 C1647 1.541 . S
C301 C1640 1.393 . S
C181 C1724 1.370 . S
C1826 C271 1.659 . S
C451 C1742 1.517 . S
C481 C1808 1.267 . S
C361 C1658 1.386 . S
C920 C1150 1.628 . S
C1234 C980 1.398 . S
C1040 C1306 1.545 . S
C380 C1222 1.483 . S
C440 C1318 1.417 . S
C1138 C500 1.713 . S
C200 C1402 1.626 . S
C260 C1486 1.398 . S
C320 C1558 1.545 . S
C740 C1474 1.483 . S
C1570 C800 1.418 . S
C860 C1390 1.714 . S
C560 C1654 1.626 . S
C620 C1738 1.398 . S
C1810 C680 1.546 . S
C20 C1726 1.483 . S
C80 C1822 1.417 . S
C140 C1642 1.714 . S
