# Generated by pormake.
# Topology ant, (3,6)-cn, num edge types: 1
# Building blocks:
#     Node 0, Type 0, BuildingBlock: KAKCAD_clean_linker_0, # of connection points: 3
#     Node 1, Type 0, BuildingBlock: KAKCAD_clean_linker_0, # of connection points: 3
#     Node 2, Type 0, BuildingBlock: KAKCAD_clean_linker_0, # of connection points: 3
#     Node 3, Type 0, BuildingBlock: KAKCAD_clean_linker_0, # of connection points: 3
#     Node 4, Type 0, BuildingBlock: KAKCAD_clean_linker_0, # of connection points: 3
#     Node 5, Type 0, BuildingBlock: KAKCAD_clean_linker_0, # of connection points: 3
#     Node 6, Type 0, BuildingBlock: KAKCAD_clean_linker_0, # of connection points: 3
#     Node 7, Type 0, BuildingBlock: KAKCAD_clean_linker_0, # of connection points: 3
#     Node 8, Type 1, BuildingBlock: MIDCAF_clean_sbu_0, # of connection points: 6
#     Node 9, Type 1, BuildingBlock: MIDCAF_clean_sbu_0, # of connection points: 6
#     Node 10, Type 1, BuildingBlock: MIDCAF_clean_sbu_0, # of connection points: 6
#     Node 11, Type 1, BuildingBlock: MIDCAF_clean_sbu_0, # of connection points: 6
#     Edge 12, Type (0, 1), BuildingBlock: XIVTED_clean_linker_0, # of connection points: 2
#     Edge 13, Type (0, 1), BuildingBlock: XIVTED_clean_linker_0, # of connection points: 2
#     Edge 14, Type (0, 1), BuildingBlock: XIVTED_clean_linker_0, # of connection points: 2
#     Edge 15, Type (0, 1), BuildingBlock: XIVTED_clean_linker_0, # of connection points: 2
#     Edge 16, Type (0, 1), BuildingBlock: XIVTED_clean_linker_0, # of connection points: 2
#     Edge 17, Type (0, 1), BuildingBlock: XIVTED_clean_linker_0, # of connection points: 2
#     Edge 18, Type (0, 1), BuildingBlock: XIVTED_clean_linker_0, # of connection points: 2
#     Edge 19, Type (0, 1), BuildingBlock: XIVTED_clean_linker_0, # of connection points: 2
#     Edge 20, Type (0, 1), BuildingBlock: XIVTED_clean_linker_0, # of connection points: 2
#     Edge 21, Type (0, 1), BuildingBlock: XIVTED_clean_linker_0, # of connection points: 2
#     Edge 22, Type (0, 1), BuildingBlock: XIVTED_clean_linker_0, # of connection points: 2
#     Edge 23, Type (0, 1), BuildingBlock: XIVTED_clean_linker_0, # of connection points: 2
#     Edge 24, Type (0, 1), BuildingBlock: XIVTED_clean_linker_0, # of connection points: 2
#     Edge 25, Type (0, 1), BuildingBlock: XIVTED_clean_linker_0, # of connection points: 2
#     Edge 26, Type (0, 1), BuildingBlock: XIVTED_clean_linker_0, # of connection points: 2
#     Edge 27, Type (0, 1), BuildingBlock: XIVTED_clean_linker_0, # of connection points: 2
#     Edge 28, Type (0, 1), BuildingBlock: XIVTED_clean_linker_0, # of connection points: 2
#     Edge 29, Type (0, 1), BuildingBlock: XIVTED_clean_linker_0, # of connection points: 2
#     Edge 30, Type (0, 1), BuildingBlock: XIVTED_clean_linker_0, # of connection points: 2
#     Edge 31, Type (0, 1), BuildingBlock: XIVTED_clean_linker_0, # of connection points: 2
#     Edge 32, Type (0, 1), BuildingBlock: XIVTED_clean_linker_0, # of connection points: 2
#     Edge 33, Type (0, 1), BuildingBlock: XIVTED_clean_linker_0, # of connection points: 2
#     Edge 34, Type (0, 1), BuildingBlock: XIVTED_clean_linker_0, # of connection points: 2
#     Edge 35, Type (0, 1), BuildingBlock: XIVTED_clean_linker_0, # of connection points: 2
# Relax obj value: 0.103
# Max RMSD: 0.159
# Mean RMSD: 0.105
data_MOF--net-ant--node1-MIDCAF_clean_sbu_0--node2-KAKCAD_clean_linker_0--edge1-XIVTED_clean_linker_0
_symmetry_space_group_name_H-M    P1
_symmetry_Int_Tables_number       1
_symmetry_cell_setting            triclinic
loop_
_symmetry_equiv_pos_as_xyz
'x, y, z'
_cell_length_a     34.676235
_cell_length_b     34.415588
_cell_length_c     94.086123
_cell_angle_alpha  89.989129
_cell_angle_beta   94.287462
_cell_angle_gamma 89.921116
loop_
_atom_site_label
_atom_site_type_symbol
_atom_site_fract_x
_atom_site_fract_y
_atom_site_fract_z
_atom_type_partial_charge
C0 C 0.18022 0.17034 0.01593 0.0
C1 C 0.19609 0.19369 0.0056 0.0
C2 C 0.18569 0.18001 0.03039 0.0
C3 C 0.20657 0.21351 0.03472 0.0
C4 C 0.22221 0.23689 0.02437 0.0
C5 C 0.21716 0.22701 0.00999 0.0
C6 C 0.21254 0.22402 0.04998 0.0
C7 C 0.22546 0.19614 0.06005 0.0
C8 C 0.2322 0.20597 0.07448 0.0
C9 C 0.2257 0.24432 0.07892 0.0
C10 C 0.21328 0.27302 0.06885 0.0
C11 C 0.2064 0.26224 0.05445 0.0
C12 C 0.20771 0.31436 0.07305 0.0
C13 C 0.19086 0.32406 0.08571 0.0
C14 C 0.21797 0.34463 0.064 0.0
C15 C 0.21047 0.38336 0.06725 0.0
C16 C 0.19297 0.39317 0.07977 0.0
C17 C 0.24603 0.17516 0.08456 0.0
C18 C 0.22141 0.15995 0.09432 0.0
C19 C 0.28097 0.15605 0.08254 0.0
C20 C 0.28986 0.12077 0.08936 0.0
C21 C 0.26366 0.10353 0.09817 0.0
C22 C 0.2301 0.12437 0.10107 0.0
C23 C 0.18364 0.36298 0.08904 0.0
H24 H 0.16387 0.14452 0.01283 0.0
H25 H 0.17319 0.1616 0.03817 0.0
H26 H 0.2387 0.26268 0.02743 0.0
H27 H 0.22923 0.24588 0.00224 0.0
H28 H 0.23066 0.16661 0.05663 0.0
H29 H 0.19563 0.28354 0.04664 0.0
H30 H 0.23143 0.25189 0.09006 0.0
H31 H 0.18243 0.30157 0.0929 0.0
H32 H 0.2317 0.33842 0.05428 0.0
H33 H 0.21778 0.40555 0.05975 0.0
H34 H 0.19408 0.17403 0.09589 0.0
H35 H 0.30036 0.16734 0.07502 0.0
H36 H 0.1708 0.36934 0.09892 0.0
H37 H 0.20908 0.11192 0.1077 0.0
H38 H 0.31634 0.10601 0.08713 0.0
C39 C 0.12077 0.7525 0.26633 0.0
C40 C 0.09611 0.77487 0.25702 0.0
C41 C 0.12115 0.75757 0.28106 0.0
C42 C 0.09687 0.78514 0.28685 0.0
C43 C 0.07278 0.80815 0.27754 0.0
C44 C 0.07252 0.80318 0.26277 0.0
C45 C 0.09517 0.78811 0.30255 0.0
C46 C 0.12902 0.78601 0.31168 0.0
C47 C 0.12722 0.78531 0.32654 0.0
C48 C 0.09103 0.78688 0.33234 0.0
C49 C 0.0567 0.78862 0.32332 0.0
C50 C 0.05926 0.78969 0.30847 0.0
C51 C 0.01791 0.78503 0.32901 0.0
C52 C 0.0113 0.75701 0.33942 0.0
C53 C 0.98623 0.80632 0.32288 0.0
C54 C 0.94861 0.79819 0.32641 0.0
C55 C 0.94174 0.7686 0.33621 0.0
C56 C 0.16327 0.77923 0.33573 0.0
C57 C 0.18454 0.74495 0.33431 0.0
C58 C 0.17782 0.80803 0.34525 0.0
C59 C 0.21377 0.80293 0.35295 0.0
C60 C 0.23516 0.76858 0.35145 0.0
C61 C 0.21991 0.73954 0.34216 0.0
C62 C 0.97367 0.74892 0.34298 0.0
H63 H 0.13976 0.73088 0.26223 0.0
H64 H 0.13972 0.73907 0.28792 0.0
H65 H 0.05392 0.82981 0.2817 0.0
H66 H 0.05316 0.8208 0.25587 0.0
H67 H 0.15695 0.78438 0.30725 0.0
H68 H 0.03305 0.7892 0.30144 0.0
H69 H 0.08962 0.7854 0.34379 0.0
H70 H 0.03495 0.73989 0.3443 0.0
H71 H 0.99039 0.82843 0.31494 0.0
H72 H 0.92482 0.81391 0.32096 0.0
H73 H 0.17391 0.72244 0.32698 0.0
H74 H 0.16193 0.83481 0.34642 0.0
H75 H 0.96954 0.7265 0.3508 0.0
H76 H 0.23591 0.71299 0.34064 0.0
H77 H 0.22486 0.82575 0.36005 0.0
C78 C 0.58649 0.70197 0.51063 0.0
C79 C 0.59352 0.72587 0.49897 0.0
C80 C 0.60485 0.70915 0.5241 0.0
C81 C 0.63052 0.74053 0.52628 0.0
C82 C 0.63656 0.76523 0.51477 0.0
C83 C 0.61835 0.75794 0.50126 0.0
C84 C 0.6517 0.74679 0.54042 0.0
C85 C 0.66859 0.71523 0.54804 0.0
C86 C 0.6883 0.72066 0.56147 0.0
C87 C 0.69104 0.75808 0.56739 0.0
C88 C 0.67522 0.79021 0.55972 0.0
C89 C 0.65556 0.78425 0.54627 0.0
C90 C 0.6794 0.83016 0.56558 0.0
C91 C 0.67084 0.83821 0.57962 0.0
C92 C 0.69132 0.8607 0.55702 0.0
C93 C 0.69454 0.89855 0.56238 0.0
C94 C 0.6855 0.9069 0.57639 0.0
C95 C 0.70644 0.68683 0.569 0.0
C96 C 0.69125 0.67201 0.58129 0.0
C97 C 0.7368 0.66704 0.56311 0.0
C98 C 0.75077 0.63208 0.56906 0.0
C99 C 0.73402 0.61559 0.58084 0.0
C100 C 0.70473 0.6366 0.58711 0.0
C101 C 0.67358 0.87616 0.58493 0.0
H102 H 0.56705 0.67742 0.50932 0.0
H103 H 0.59905 0.69002 0.53283 0.0
H104 H 0.65644 0.78944 0.51607 0.0
H105 H 0.62499 0.77661 0.49251 0.0
H106 H 0.66668 0.68628 0.5435 0.0
H107 H 0.6425 0.80877 0.54049 0.0
H108 H 0.70653 0.76229 0.57771 0.0
H109 H 0.66116 0.8153 0.5864 0.0
H110 H 0.69857 0.85522 0.5462 0.0
H111 H 0.70456 0.92114 0.55555 0.0
H112 H 0.66761 0.68678 0.58593 0.0
H113 H 0.74906 0.67819 0.55367 0.0
H114 H 0.66564 0.88142 0.59568 0.0
H115 H 0.69071 0.62482 0.59606 0.0
H116 H 0.774 0.61745 0.56413 0.0
C117 C 0.58281 0.25459 0.75359 0.0
C118 C 0.56118 0.28305 0.74579 0.0
C119 C 0.58669 0.25589 0.76844 0.0
C120 C 0.56879 0.28552 0.7758 0.0
C121 C 0.5475 0.31429 0.76802 0.0
C122 C 0.54396 0.31323 0.75312 0.0
C123 C 0.57067 0.28502 0.79156 0.0
C124 C 0.60572 0.27829 0.79958 0.0
C125 C 0.60716 0.27523 0.81452 0.0
C126 C 0.57263 0.27911 0.82145 0.0
C127 C 0.53727 0.28609 0.81345 0.0
C128 C 0.53678 0.28909 0.79857 0.0
C129 C 0.49989 0.28858 0.8201 0.0
C130 C 0.488 0.25885 0.82902 0.0
C131 C 0.47354 0.31812 0.81583 0.0
C132 C 0.43554 0.31692 0.8197 0.0
C133 C 0.42285 0.28626 0.82805 0.0
C134 C 0.64506 0.26778 0.82256 0.0
C135 C 0.67051 0.24009 0.81748 0.0
C136 C 0.65745 0.29011 0.83454 0.0
C137 C 0.69513 0.28592 0.84092 0.0
C138 C 0.72103 0.25909 0.83551 0.0
C139 C 0.70794 0.23586 0.82384 0.0
C140 C 0.44978 0.25765 0.83294 0.0
H141 H 0.59695 0.23136 0.7482 0.0
H142 H 0.60295 0.23317 0.77417 0.0
H143 H 0.53355 0.33754 0.77347 0.0
H144 H 0.52724 0.33555 0.74734 0.0
H145 H 0.63208 0.2758 0.79413 0.0
H146 H 0.50948 0.29301 0.79232 0.0
H147 H 0.57319 0.27638 0.83294 0.0
H148 H 0.50766 0.23554 0.83237 0.0
H149 H 0.48197 0.34143 0.80897 0.0
H150 H 0.41571 0.33928 0.8156 0.0
H151 H 0.66171 0.22217 0.80835 0.0
H152 H 0.63854 0.31179 0.83865 0.0
H153 H 0.44116 0.23398 0.83959 0.0
H154 H 0.72705 0.2152 0.81925 0.0
H155 H 0.7041 0.30396 0.85 0.0
C156 C 0.04182 0.68191 0.98316 0.0
C157 C 0.07405 0.69866 0.99076 0.0
C158 C 0.03316 0.69068 0.96877 0.0
C159 C 0.0566 0.71631 0.96159 0.0
C160 C 0.08901 0.73286 0.96916 0.0
C161 C 0.09764 0.72413 0.98357 0.0
C162 C 0.04759 0.72507 0.94621 0.0
C163 C 0.0512 0.76294 0.94087 0.0
C164 C 0.04329 0.77086 0.92628 0.0
C165 C 0.03175 0.74044 0.91691 0.0
C166 C 0.02683 0.70277 0.92222 0.0
C167 C 0.0351 0.69533 0.93678 0.0
C168 C 0.01265 0.67042 0.91292 0.0
C169 C 0.97862 0.651 0.91588 0.0
C170 C 0.03566 0.65513 0.90263 0.0
C171 C 0.0263 0.61929 0.8962 0.0
C172 C 0.99362 0.59834 0.89992 0.0
C173 C 0.04574 0.81134 0.92105 0.0
C174 C 0.02373 0.8407 0.92695 0.0
C175 C 0.07062 0.8211 0.9105 0.0
C176 C 0.07394 0.8598 0.90611 0.0
C177 C 0.05173 0.88914 0.91196 0.0
C178 C 0.02638 0.87915 0.92233 0.0
C179 C 0.96901 0.61552 0.90936 0.0
H180 H 0.0232 0.66195 0.98832 0.0
H181 H 0.00775 0.67769 0.96332 0.0
H182 H 0.10792 0.75236 0.96391 0.0
H183 H 0.12238 0.738 0.98914 0.0
H184 H 0.0599 0.78644 0.94808 0.0
H185 H 0.03237 0.6659 0.9407 0.0
H186 H 0.02524 0.74633 0.90566 0.0
H187 H 0.9604 0.66242 0.92377 0.0
H188 H 0.06223 0.66953 0.9003 0.0
H189 H 0.04611 0.60689 0.88907 0.0
H190 H 0.00431 0.83381 0.93509 0.0
H191 H 0.08798 0.79893 0.90586 0.0
H192 H 0.94318 0.6007 0.91223 0.0
H193 H 0.00907 0.90125 0.92705 0.0
H194 H 0.09355 0.86679 0.89804 0.0
C195 C 0.6769 0.84366 0.2383 0.0
C196 C 0.64399 0.82394 0.24234 0.0
C197 C 0.68266 0.84914 0.22387 0.0
C198 C 0.65575 0.83472 0.21322 0.0
C199 C 0.62271 0.81538 0.21734 0.0
C200 C 0.61686 0.81017 0.2317 0.0
C201 C 0.66273 0.83774 0.19787 0.0
C202 C 0.69963 0.83069 0.19325 0.0
C203 C 0.7057 0.82931 0.17865 0.0
C204 C 0.67405 0.835 0.16856 0.0
C205 C 0.63707 0.84278 0.17307 0.0
C206 C 0.63185 0.84467 0.18768 0.0
C207 C 0.60257 0.84536 0.16285 0.0
C208 C 0.57746 0.8773 0.16322 0.0
C209 C 0.59142 0.81322 0.15437 0.0
C210 C 0.55462 0.81184 0.1472 0.0
C211 C 0.52833 0.84286 0.14821 0.0
C212 C 0.74525 0.8219 0.17415 0.0
C213 C 0.76021 0.84447 0.16342 0.0
C214 C 0.76925 0.79389 0.18123 0.0
C215 C 0.80778 0.78965 0.17807 0.0
C216 C 0.82323 0.81331 0.16774 0.0
C217 C 0.79878 0.84026 0.16026 0.0
C218 C 0.54092 0.87627 0.15585 0.0
H219 H 0.69817 0.85478 0.24629 0.0
H220 H 0.70823 0.86451 0.22105 0.0
H221 H 0.60186 0.80305 0.20946 0.0
H222 H 0.59163 0.7941 0.23445 0.0
H223 H 0.72366 0.82556 0.20106 0.0
H224 H 0.60318 0.85018 0.19111 0.0
H225 H 0.678 0.83291 0.15726 0.0
H226 H 0.58554 0.90246 0.16969 0.0
H227 H 0.61012 0.78802 0.15409 0.0
H228 H 0.54609 0.78536 0.14162 0.0
H229 H 0.74251 0.86635 0.1578 0.0
H230 H 0.75841 0.7756 0.18941 0.0
H231 H 0.52207 0.90117 0.15659 0.0
H232 H 0.80958 0.85845 0.15205 0.0
H233 H 0.82577 0.76869 0.18406 0.0
C234 C 0.57496 0.18187 0.48523 0.0
C235 C 0.59916 0.15218 0.49105 0.0
C236 C 0.57007 0.18722 0.4705 0.0
C237 C 0.58885 0.16264 0.46133 0.0
C238 C 0.61245 0.13247 0.46712 0.0
C239 C 0.61782 0.12748 0.48187 0.0
C240 C 0.58434 0.16869 0.44574 0.0
C241 C 0.5905 0.20547 0.43988 0.0
C242 C 0.58834 0.21087 0.42501 0.0
C243 C 0.57976 0.17881 0.41604 0.0
C244 C 0.57286 0.1422 0.42186 0.0
C245 C 0.57515 0.13731 0.43666 0.0
C246 C 0.56552 0.10803 0.41266 0.0
C247 C 0.53119 0.08686 0.41327 0.0
C248 C 0.59486 0.09376 0.40464 0.0
C249 C 0.591 0.05745 0.39808 0.0
C250 C 0.55738 0.03502 0.39923 0.0
C251 C 0.59537 0.24986 0.41892 0.0
C252 C 0.58083 0.28343 0.42517 0.0
C253 C 0.61658 0.25386 0.40684 0.0
C254 C 0.62274 0.29053 0.40105 0.0
C255 C 0.60798 0.32402 0.40726 0.0
C256 C 0.58715 0.32008 0.41942 0.0
C257 C 0.52692 0.05092 0.40646 0.0
H258 H 0.56065 0.20163 0.4921 0.0
H259 H 0.55161 0.21056 0.46626 0.0
H260 H 0.62743 0.11328 0.46024 0.0
H261 H 0.63663 0.10443 0.48611 0.0
H262 H 0.59834 0.22956 0.44693 0.0
H263 H 0.57039 0.10879 0.44112 0.0
H264 H 0.57783 0.1823 0.40456 0.0
H265 H 0.50819 0.09761 0.4194 0.0
H266 H 0.62174 0.10958 0.4042 0.0
H267 H 0.6154 0.04619 0.39283 0.0
H268 H 0.56387 0.28136 0.43435 0.0
H269 H 0.62877 0.22867 0.40192 0.0
H270 H 0.50023 0.03508 0.40727 0.0
H271 H 0.57483 0.34527 0.4243 0.0
H272 H 0.63927 0.29271 0.39176 0.0
C273 C 0.20105 0.29563 0.7403 0.0
C274 C 0.17552 0.26675 0.74443 0.0
C275 C 0.20222 0.30574 0.72593 0.0
C276 C 0.17755 0.2875 0.71543 0.0
C277 C 0.1522 0.2585 0.71956 0.0
C278 C 0.1513 0.24814 0.73388 0.0
C279 C 0.17783 0.29892 0.70022 0.0
C280 C 0.21282 0.30295 0.69384 0.0
C281 C 0.21352 0.31372 0.67942 0.0
C282 C 0.17806 0.32 0.67132 0.0
C283 C 0.14257 0.31539 0.67753 0.0
C284 C 0.14299 0.30531 0.69203 0.0
C285 C 0.10467 0.32071 0.66914 0.0
C286 C 0.09809 0.3519 0.65955 0.0
C287 C 0.07375 0.29559 0.67145 0.0
C288 C 0.03682 0.30272 0.66506 0.0
C289 C 0.02994 0.33471 0.65601 0.0
C290 C 0.25146 0.31701 0.67294 0.0
C291 C 0.28443 0.33054 0.68113 0.0
C292 C 0.25572 0.30479 0.65886 0.0
C293 C 0.29208 0.30519 0.65329 0.0
C294 C 0.32503 0.31719 0.66174 0.0
C295 C 0.32078 0.33018 0.67566 0.0
C296 C 0.06094 0.35881 0.65301 0.0
H297 H 0.22017 0.31033 0.74818 0.0
H298 H 0.22192 0.32834 0.72305 0.0
H299 H 0.13309 0.24372 0.71169 0.0
H300 H 0.131 0.22609 0.73674 0.0
H301 H 0.23955 0.29645 0.7001 0.0
H302 H 0.116 0.30302 0.69708 0.0
H303 H 0.17798 0.32815 0.66021 0.0
H304 H 0.12119 0.37187 0.65758 0.0
H305 H 0.07788 0.27076 0.67847 0.0
H306 H 0.01332 0.28363 0.66743 0.0
H307 H 0.2823 0.34124 0.69187 0.0
H308 H 0.23126 0.29374 0.65226 0.0
H309 H 0.05611 0.38376 0.64608 0.0
H310 H 0.34564 0.34023 0.68231 0.0
H311 H 0.29467 0.29495 0.64251 0.0
Zn312 Zn 0.2052 0.70083 0.13918 0.0
Zn313 Zn 0.12336 0.80289 0.10876 0.0
Zn314 Zn 0.16479 0.75262 0.12401 0.0
C315 C 0.12198 0.73508 0.09288 0.0
C316 C 0.19596 0.83564 0.11297 0.0
O317 O 0.1396 0.7477 0.14489 0.0
O318 O 0.18095 0.70946 0.15731 0.0
C319 C 0.17294 0.66084 0.11604 0.0
O320 O 0.14518 0.72419 0.10349 0.0
O321 O 0.10669 0.76836 0.09277 0.0
O322 O 0.16408 0.84153 0.10595 0.0
O323 O 0.20147 0.80448 0.12047 0.0
O324 O 0.18912 0.65415 0.12823 0.0
O325 O 0.16405 0.69593 0.11218 0.0
O326 O 0.22446 0.77535 0.12725 0.0
O327 O 0.25661 0.72415 0.13613 0.0
C328 C 0.25656 0.75848 0.13139 0.0
O329 O 0.11358 0.76914 0.1358 0.0
O330 O 0.08485 0.81523 0.12246 0.0
C331 C 0.15115 0.7307 0.15666 0.0
C332 C 0.08615 0.79427 0.13348 0.0
Zn333 Zn 0.54822 0.64632 0.34917 0.0
Zn334 Zn 0.64155 0.68356 0.38226 0.0
Zn335 Zn 0.59238 0.67846 0.36593 0.0
C336 C 0.59978 0.75479 0.37956 0.0
C337 C 0.67834 0.68313 0.3599 0.0
O338 O 0.60289 0.61909 0.37126 0.0
O339 O 0.5688 0.59214 0.35333 0.0
C340 C 0.50454 0.69318 0.36749 0.0
O341 O 0.57325 0.7287 0.37754 0.0
O342 O 0.63478 0.74377 0.38065 0.0
O343 O 0.68144 0.66015 0.37043 0.0
O344 O 0.64559 0.69997 0.35675 0.0
O345 O 0.50151 0.66551 0.35861 0.0
O346 O 0.53828 0.70568 0.37203 0.0
O347 O 0.60984 0.70477 0.34655 0.0
O348 O 0.56372 0.67785 0.33247 0.0
C349 C 0.59176 0.70128 0.33424 0.0
O350 O 0.56719 0.69237 0.38642 0.0
O351 O 0.61239 0.65589 0.39723 0.0
C352 C 0.59153 0.58877 0.36443 0.0
C353 C 0.57993 0.67275 0.39746 0.0
Zn354 Zn 0.63124 0.30489 0.59974 0.0
Zn355 Zn 0.71054 0.22979 0.64013 0.0
Zn356 Zn 0.67239 0.26698 0.61932 0.0
C357 C 0.75698 0.29223 0.63336 0.0
C358 C 0.69899 0.17586 0.61835 0.0
O359 O 0.6143 0.28328 0.62692 0.0
O360 O 0.58564 0.31955 0.60984 0.0
C361 C 0.69986 0.3458 0.60409 0.0
O362 O 0.72838 0.29821 0.62404 0.0
O363 O 0.75627 0.26407 0.64193 0.0
O364 O 0.71389 0.17869 0.63096 0.0
O365 O 0.68311 0.20586 0.61203 0.0
O366 O 0.66935 0.34516 0.59591 0.0
O367 O 0.706 0.31953 0.61378 0.0
O368 O 0.66353 0.22739 0.60078 0.0
O369 O 0.62431 0.26207 0.58602 0.0
C370 C 0.64281 0.23118 0.58889 0.0
O371 O 0.63799 0.26756 0.63829 0.0
O372 O 0.67319 0.23409 0.65467 0.0
C373 C 0.58495 0.30354 0.62187 0.0
C374 C 0.64314 0.25329 0.65097 0.0
Zn375 Zn 0.02599 0.15862 0.85057 0.0
Zn376 Zn 0.12774 0.29578 0.88583 0.0
Zn377 Zn 0.08489 0.2449 0.8744 0.0
C378 C 0.13475 0.23312 0.90435 0.0
C379 C 0.05561 0.33008 0.88308 0.0
O380 O 0.09859 0.22466 0.8521 0.0
O381 O 0.06918 0.17673 0.83843 0.0
C382 C 0.06534 0.16777 0.8811 0.0
O383 O 0.10863 0.22009 0.89511 0.0
O384 O 0.14968 0.26603 0.90259 0.0
O385 O 0.08905 0.33667 0.88876 0.0
O386 O 0.0479 0.29742 0.87681 0.0
O387 O 0.05044 0.17867 0.86912 0.0
O388 O 0.08443 0.19374 0.88819 0.0
O389 O 0.02561 0.26642 0.87136 0.0
O390 O 0.02389 0.21037 0.86131 0.0
C391 C 0.00544 0.2404 0.86465 0.0
O392 O 0.13034 0.2514 0.85966 0.0
O393 O 0.16087 0.3016 0.8698 0.0
C394 C 0.09463 0.20367 0.84053 0.0
C395 C 0.15756 0.27674 0.85992 0.0
H396 H 0.1306 0.42315 0.09264 0.0
H397 H 0.20503 0.64343 0.09119 0.0
H398 H 0.23563 0.45835 0.0743 0.0
H399 H 0.12522 0.60092 0.12047 0.0
H400 H 0.20509 0.57887 0.07994 0.0
H401 H 0.1185 0.49097 0.09859 0.0
C402 C 0.15122 0.44498 0.08988 0.0
C403 C 0.18447 0.43465 0.08307 0.0
C404 C 0.18686 0.58397 0.08861 0.0
C405 C 0.17008 0.51273 0.08954 0.0
C406 C 0.18641 0.62088 0.09486 0.0
C407 C 0.16478 0.62732 0.10662 0.0
C408 C 0.16546 0.55359 0.0942 0.0
C409 C 0.142 0.59698 0.11131 0.0
C410 C 0.14404 0.48379 0.09317 0.0
C411 C 0.20944 0.46468 0.07942 0.0
N412 N 0.14311 0.56134 0.10516 0.0
N413 N 0.20182 0.50224 0.08275 0.0
H414 H 0.8774 0.81495 0.33835 0.0
H415 H 0.73962 0.63702 0.35509 0.0
H416 H 0.91381 0.69491 0.33943 0.0
H417 H 0.69856 0.75491 0.35034 0.0
H418 H 0.80282 0.65772 0.34808 0.0
H419 H 0.81131 0.79393 0.3418 0.0
C420 C 0.87156 0.78419 0.33926 0.0
C421 C 0.90145 0.75672 0.3387 0.0
C422 C 0.77992 0.67907 0.34835 0.0
C423 C 0.82575 0.73246 0.3427 0.0
C424 C 0.74378 0.66718 0.35228 0.0
C425 C 0.71377 0.69421 0.35312 0.0
C426 C 0.78643 0.71849 0.34547 0.0
C427 C 0.72079 0.73304 0.34956 0.0
C428 C 0.83378 0.77222 0.34125 0.0
C429 C 0.89204 0.71727 0.34009 0.0
N430 N 0.75652 0.74412 0.34601 0.0
N431 N 0.85516 0.7064 0.34205 0.0
H432 H 0.7532 0.55366 0.56437 0.0
H433 H 0.72592 0.39691 0.62491 0.0
H434 H 0.73747 0.58435 0.60809 0.0
H435 H 0.72941 0.37202 0.58017 0.0
H436 H 0.74749 0.46365 0.62046 0.0
H437 H 0.76166 0.48638 0.5715 0.0
C438 C 0.7523 0.54659 0.57555 0.0
C439 C 0.74416 0.57513 0.58559 0.0
C440 C 0.74464 0.44322 0.6117 0.0
C441 C 0.75268 0.49695 0.59379 0.0
C442 C 0.73284 0.40506 0.61427 0.0
C443 C 0.72575 0.37926 0.60285 0.0
C444 C 0.74939 0.45521 0.59763 0.0
C445 C 0.73446 0.39124 0.58923 0.0
C446 C 0.75684 0.50782 0.57961 0.0
C447 C 0.74272 0.56341 0.59988 0.0
N448 N 0.74528 0.42844 0.58697 0.0
N449 N 0.74636 0.52517 0.60352 0.0
H450 H 0.76537 0.19338 0.83974 0.0
H451 H 0.95947 0.30478 0.86749 0.0
H452 H 0.77052 0.31796 0.84483 0.0
H453 H 0.95563 0.18553 0.85329 0.0
H454 H 0.88946 0.30981 0.86148 0.0
H455 H 0.83409 0.18944 0.84722 0.0
C456 C 0.78091 0.21997 0.84243 0.0
C457 C 0.76203 0.25612 0.84148 0.0
C458 C 0.90402 0.2826 0.85967 0.0
C459 C 0.84109 0.25173 0.85023 0.0
C460 C 0.94394 0.27971 0.86309 0.0
C461 C 0.96345 0.24473 0.86082 0.0
C462 C 0.88347 0.25014 0.8541 0.0
C463 C 0.94188 0.21314 0.85514 0.0
C464 C 0.82022 0.21767 0.84674 0.0
C465 C 0.78369 0.28943 0.84548 0.0
N466 N 0.90315 0.21658 0.85201 0.0
N467 N 0.82208 0.28645 0.84961 0.0
H468 H 0.96969 0.53775 0.91592 0.0
H469 H 0.02901 0.37593 0.86095 0.0
H470 H 0.00565 0.56406 0.87402 0.0
H471 H 0.02149 0.3576 0.90592 0.0
H472 H 0.00121 0.44118 0.86335 0.0
H473 H 0.96943 0.46902 0.91 0.0
C474 C 0.97669 0.52928 0.90533 0.0
C475 C 0.98804 0.55699 0.8955 0.0
C476 C 0.00453 0.42242 0.8726 0.0
C477 C 0.98862 0.47766 0.88878 0.0
C478 C 0.01986 0.38509 0.87119 0.0
C479 C 0.02711 0.36155 0.88325 0.0
C480 C 0.99651 0.43596 0.88617 0.0
C481 C 0.0159 0.37491 0.89637 0.0
C482 C 0.97682 0.48982 0.90201 0.0
C483 C 0.99742 0.54377 0.88204 0.0
N484 N 0.00153 0.4114 0.89752 0.0
N485 N -0.00206 0.50501 0.87913 0.0
H486 H 0.87281 0.87321 0.16346 0.0
H487 H 0.05279 0.73666 0.14868 0.0
H488 H 0.86911 0.74811 0.16636 0.0
H489 H 0.0455 0.85907 0.13904 0.0
H490 H 0.99075 0.74128 0.15966 0.0
H491 H 0.9406 0.86919 0.15844 0.0
C492 C 0.88619 0.84484 0.16297 0.0
C493 C 0.86496 0.81093 0.16511 0.0
C494 C 0.00309 0.7672 0.15533 0.0
C495 C 0.9431 0.8061 0.15956 0.0
C496 C 0.03861 0.76464 0.14919 0.0
C497 C 0.05399 0.79748 0.14284 0.0
C498 C 0.98319 0.80288 0.15513 0.0
C499 C 0.03439 0.83297 0.14368 0.0
C500 C 0.92506 0.84257 0.16022 0.0
C501 C 0.88432 0.77503 0.16478 0.0
N502 N -8e-05 0.83465 0.14958 0.0
N503 N 0.92222 0.77353 0.16193 0.0
H504 H 0.62658 0.39285 0.42077 0.0
H505 H 0.58237 0.51943 0.35051 0.0
H506 H 0.60023 0.34361 0.379 0.0
H507 H 0.62413 0.56895 0.39091 0.0
H508 H 0.59268 0.45461 0.36054 0.0
H509 H 0.6292 0.45736 0.40995 0.0
C510 C 0.6215 0.39562 0.40932 0.0
C511 C 0.61289 0.36285 0.40078 0.0
C512 C 0.59998 0.4796 0.36719 0.0
C513 C 0.61592 0.43649 0.38833 0.0
C514 C 0.59407 0.51666 0.36147 0.0
C515 C 0.60209 0.54966 0.36993 0.0
C516 C 0.61359 0.4754 0.38154 0.0
C517 C 0.61747 0.5443 0.38402 0.0
C518 C 0.62322 0.43239 0.40314 0.0
C519 C 0.60718 0.36801 0.38598 0.0
N520 N 0.62229 0.50784 0.38944 0.0
N521 N 0.60844 0.40416 0.38025 0.0
H522 H 0.97338 0.36197 0.67154 0.0
H523 H 0.80443 0.31002 0.61221 0.0
H524 H 0.99512 0.32677 0.62896 0.0
H525 H 0.78991 0.32724 0.65683 0.0
H526 H 0.87178 0.33279 0.61615 0.0
H527 H 0.90434 0.36618 0.66433 0.0
C528 C 0.96349 0.35585 0.66057 0.0
C529 C 0.98967 0.3439 0.65082 0.0
C530 C 0.85349 0.33255 0.62498 0.0
C531 C 0.9106 0.34762 0.64252 0.0
C532 C 0.81502 0.31999 0.6227 0.0
C533 C 0.7919 0.31668 0.63425 0.0
C534 C 0.86845 0.342 0.63888 0.0
C535 C 0.80698 0.3293 0.64768 0.0
C536 C 0.92411 0.35811 0.65645 0.0
C537 C 0.97561 0.33615 0.63674 0.0
N538 N 0.84433 0.34099 0.64965 0.0
N539 N 0.93684 0.33756 0.63304 0.0
H540 H 0.34764 0.34818 0.63695 0.0
H541 H 0.55592 0.25239 0.64085 0.0
H542 H 0.39054 0.28287 0.67394 0.0
H543 H 0.53078 0.36092 0.61919 0.0
H544 H 0.49377 0.25694 0.65165 0.0
H545 H 0.41246 0.34614 0.62813 0.0
C546 C 0.37072 0.3333 0.64317 0.0
C547 C 0.36389 0.31575 0.65618 0.0
C548 C 0.50222 0.27999 0.64469 0.0
C549 C 0.43777 0.31298 0.64615 0.0
C550 C 0.53793 0.27772 0.63872 0.0
C551 C 0.54918 0.30692 0.62948 0.0
C552 C 0.47703 0.31096 0.64096 0.0
C553 C 0.5235 0.33791 0.62636 0.0
C554 C 0.40767 0.33234 0.6382 0.0
C555 C 0.3948 0.29697 0.66389 0.0
N556 N 0.48855 0.33894 0.63198 0.0
N557 N 0.43039 0.29578 0.6587 0.0
H558 H 0.49874 0.80363 0.12418 0.0
H559 H 0.27707 0.83172 0.14042 0.0
H560 H 0.46303 0.87204 0.15943 0.0
H561 H 0.32115 0.72917 0.12095 0.0
H562 H 0.34265 0.85963 0.14188 0.0
H563 H 0.43087 0.78882 0.11753 0.0
C564 C 0.47682 0.81583 0.13048 0.0
C565 C 0.48707 0.83865 0.14258 0.0
C566 C 0.33772 0.83131 0.13706 0.0
C567 C 0.40911 0.82251 0.13471 0.0
C568 C 0.30037 0.81564 0.13611 0.0
C569 C 0.29395 0.77828 0.13054 0.0
C570 C 0.36846 0.80954 0.13221 0.0
C571 C 0.32513 0.75805 0.12539 0.0
C572 C 0.43805 0.80752 0.1266 0.0
C573 C 0.45693 0.85456 0.14999 0.0
N574 N 0.36106 0.77389 0.12636 0.0
N575 N 0.41941 0.84595 0.146 0.0
H576 H 0.37437 0.34597 0.83411 0.0
H577 H 0.19462 0.21293 0.84981 0.0
H578 H 0.37643 0.22132 0.82899 0.0
H579 H 0.1925 0.33808 0.84846 0.0
H580 H 0.25823 0.21391 0.83982 0.0
H581 H 0.306 0.34253 0.83793 0.0
C582 C 0.36043 0.31781 0.8337 0.0
C583 C 0.3814 0.28391 0.83118 0.0
C584 C 0.24342 0.2411 0.84143 0.0
C585 C 0.30251 0.27964 0.83576 0.0
C586 C 0.20697 0.24049 0.84696 0.0
C587 C 0.18862 0.27551 0.85005 0.0
C588 C 0.26137 0.27697 0.83911 0.0
C589 C 0.20595 0.31047 0.84634 0.0
C590 C 0.32122 0.31584 0.8359 0.0
C591 C 0.36165 0.24819 0.83109 0.0
N592 N 0.2415 0.31033 0.84127 0.0
N593 N 0.32335 0.24696 0.83341 0.0
H594 H 0.26184 0.70527 0.36663 0.0
H595 H 0.48277 0.76986 0.36696 0.0
H596 H 0.29695 0.81883 0.35326 0.0
H597 H 0.44358 0.65507 0.37699 0.0
H598 H 0.41581 0.79365 0.36725 0.0
H599 H 0.32832 0.69177 0.37561 0.0
C600 C 0.28357 0.72755 0.36574 0.0
C601 C 0.27399 0.76298 0.359 0.0
C602 C 0.42205 0.76348 0.36977 0.0
C603 C 0.35058 0.74761 0.36912 0.0
C604 C 0.4603 0.75007 0.36978 0.0
C605 C 0.46848 0.7105 0.37195 0.0
C606 C 0.39212 0.73701 0.37195 0.0
C607 C 0.43833 0.68579 0.37523 0.0
C608 C 0.32157 0.71989 0.37089 0.0
C609 C 0.30317 0.79108 0.35834 0.0
N610 N 0.40152 0.69932 0.37497 0.0
N611 N 0.34033 0.78256 0.36311 0.0
H612 H 0.66966 0.97595 0.56213 0.0
H613 H 0.69502 0.10669 0.63194 0.0
H614 H 0.70808 0.93078 0.60365 0.0
H615 H 0.70173 0.15556 0.59014 0.0
H616 H 0.69263 0.04183 0.62155 0.0
H617 H 0.67431 0.04185 0.57185 0.0
C618 C 0.67936 0.97972 0.57324 0.0
C619 C 0.6884 0.94741 0.58206 0.0
C620 C 0.69433 0.06672 0.61457 0.0
C621 C 0.69288 0.02295 0.59329 0.0
C622 C 0.69571 0.10381 0.62049 0.0
C623 C 0.69745 0.13676 0.61176 0.0
C624 C 0.69456 0.06229 0.59976 0.0
C625 C 0.69836 0.13114 0.59705 0.0
C626 C 0.6818 0.01743 0.57878 0.0
C627 C 0.70002 0.95445 0.59646 0.0
N628 N 0.69671 0.0946 0.59146 0.0
N629 N 0.70171 0.99133 0.60161 0.0
H630 H 0.28998 0.04304 0.08266 0.0
H631 H 0.21949 0.88122 0.13551 0.0
H632 H 0.2474 0.06898 0.12359 0.0
H633 H 0.23341 0.86348 0.09089 0.0
H634 H 0.24879 0.94591 0.13389 0.0
H635 H 0.28836 0.97414 0.08831 0.0
C636 C 0.28116 0.03443 0.093 0.0
C637 C 0.26848 0.0621 0.10261 0.0
C638 C 0.2465 0.9274 0.12456 0.0
C639 C 0.26577 0.98263 0.10899 0.0
C640 C 0.2303 0.89037 0.12553 0.0
C641 C 0.22454 0.86711 0.11334 0.0
C642 C 0.25677 0.94104 0.11128 0.0
C643 C 0.23781 0.88056 0.10054 0.0
C644 C 0.27995 0.9949 0.09616 0.0
C645 C 0.25676 0.04874 0.11574 0.0
N646 N 0.25296 0.9168 0.0998 0.0
N647 N 0.25526 0.00993 0.11848 0.0
H648 H 0.5224 0.97243 0.41117 0.0
H649 H 0.6444 0.81692 0.37416 0.0
H650 H 0.58959 0.00314 0.37593 0.0
H651 H 0.53302 0.78635 0.38844 0.0
H652 H 0.62857 0.88564 0.37689 0.0
H653 H 0.52775 0.90423 0.40468 0.0
C654 C 0.5376 0.96516 0.4019 0.0
C655 C 0.55592 0.99396 0.39419 0.0
C656 C 0.60752 0.86388 0.37933 0.0
C657 C 0.56322 0.91553 0.38711 0.0
C658 C 0.61664 0.82474 0.37791 0.0
C659 C 0.59005 0.79608 0.3812 0.0
C660 C 0.57193 0.87436 0.38439 0.0
C661 C 0.5543 0.80768 0.38584 0.0
C662 C 0.54082 0.92606 0.39828 0.0
C663 C 0.5759 0.98214 0.38246 0.0
N664 N 0.54642 0.84607 0.38751 0.0
N665 N 0.57959 0.94379 0.37944 0.0
H666 H 0.11698 0.93364 0.9113 0.0
H667 H 0.01147 0.11374 0.87238 0.0
H668 H 0.99336 0.93765 0.90215 0.0
H669 H 0.11438 0.12891 0.90052 0.0
H670 H 0.00838 0.04579 0.87994 0.0
H671 H 0.1208 0.00222 0.90412 0.0
C672 C 0.09073 0.94895 0.9077 0.0
C673 C 0.05479 0.93012 0.90731 0.0
C674 C 0.03158 0.06403 0.88448 0.0
C675 C 0.05898 0.00799 0.89899 0.0
C676 C 0.03346 0.10271 0.88014 0.0
C677 C 0.06319 0.12694 0.88586 0.0
C678 C 0.06011 0.04918 0.89439 0.0
C679 C 0.09085 0.11122 0.89592 0.0
C680 C 0.09289 0.98801 0.9037 0.0
C681 C 0.02158 0.95123 0.90266 0.0
N682 N 0.08886 0.07316 0.89978 0.0
N683 N 0.02449 0.98895 0.89857 0.0
H684 H 0.24957 0.19375 0.98578 0.0
H685 H 0.09009 0.18625 0.9201 0.0
H686 H 0.12852 0.17304 0.99046 0.0
H687 H 0.20545 0.23197 0.9186 0.0
H688 H 0.10731 0.16327 0.94453 0.0
H689 H 0.23718 0.18948 0.95995 0.0
C690 C 0.22042 0.18789 0.98134 0.0
C691 C 0.18988 0.18457 0.99022 0.0
C692 C 0.12901 0.17764 0.93871 0.0
C693 C 0.17539 0.17981 0.96068 0.0
C694 C 0.11928 0.19051 0.92478 0.0
C695 C 0.14627 0.21154 0.9175 0.0
C696 C 0.16601 0.18563 0.9452 0.0
C697 C 0.18364 0.21642 0.92399 0.0
C698 C 0.21336 0.18534 0.96661 0.0
C699 C 0.15283 0.17604 0.98396 0.0
N700 N 0.19228 0.20393 0.93751 0.0
N701 N 0.14644 0.17461 0.96952 0.0
H702 H 0.09521 0.70519 0.24314 0.0
H703 H 0.11777 0.79743 0.16611 0.0
H704 H 0.09368 0.82874 0.23531 0.0
H705 H 0.141 0.67774 0.17731 0.0
H706 H 0.09534 0.80831 0.18997 0.0
H707 H 0.09901 0.69383 0.21773 0.0
C708 C 0.09567 0.72997 0.23606 0.0
C709 C 0.0949 0.76799 0.2414 0.0
C710 C 0.10479 0.77956 0.1871 0.0
C711 C 0.09894 0.75518 0.21218 0.0
C712 C 0.1172 0.77327 0.17346 0.0
C713 C 0.13128 0.73667 0.1698 0.0
C714 C 0.10645 0.74893 0.19703 0.0
C715 C 0.13063 0.70648 0.17977 0.0
C716 C 0.09762 0.72347 0.22152 0.0
C717 C 0.09438 0.79896 0.23165 0.0
N718 N 0.1187 0.71333 0.19294 0.0
N719 N 0.09685 0.7919 0.21751 0.0
H720 H 0.58505 0.65352 0.48698 0.0
H721 H 0.54288 0.73557 0.4081 0.0
H722 H 0.56587 0.77501 0.47736 0.0
H723 H 0.58084 0.61901 0.41854 0.0
H724 H 0.53383 0.74712 0.43339 0.0
H725 H 0.5666 0.63772 0.4622 0.0
C726 C 0.57625 0.6769 0.47974 0.0
C727 C 0.57754 0.71577 0.48429 0.0
C728 C 0.54322 0.71873 0.43008 0.0
C729 C 0.55706 0.69778 0.45568 0.0
C730 C 0.54798 0.71201 0.41564 0.0
C731 C 0.56306 0.67646 0.41132 0.0
C732 C 0.55341 0.68952 0.44014 0.0
C733 C 0.56956 0.64699 0.4215 0.0
C734 C 0.56593 0.66782 0.46553 0.0
C735 C 0.56619 0.74472 0.47428 0.0
N736 N 0.5652 0.65434 0.43546 0.0
N737 N 0.55688 0.73519 0.46041 0.0
H738 H 0.54329 0.21997 0.7291 0.0
H739 H 0.61158 0.32187 0.65917 0.0
H740 H 0.57079 0.34187 0.7267 0.0
H741 H 0.61236 0.19858 0.66717 0.0
H742 H 0.57688 0.33176 0.6808 0.0
H743 H 0.54833 0.21446 0.70345 0.0
C744 C 0.54999 0.24567 0.72311 0.0
C745 C 0.5576 0.28119 0.73004 0.0
C746 C 0.58389 0.30251 0.67761 0.0
C747 C 0.56355 0.27514 0.70072 0.0
C748 C 0.60345 0.29691 0.66529 0.0
C749 C 0.61503 0.25944 0.66163 0.0
C750 C 0.57596 0.27033 0.68613 0.0
C751 C 0.60416 0.22794 0.66982 0.0
C752 C 0.55271 0.24258 0.70848 0.0
C753 C 0.56511 0.31386 0.72175 0.0
N754 N 0.58554 0.23411 0.68176 0.0
N755 N 0.56863 0.30992 0.70753 0.0
H756 H 0.14423 0.68768 0.00599 0.0
H757 H 0.05244 0.71659 0.07983 0.0
H758 H 0.02161 0.69287 0.01102 0.0
H759 H 0.17477 0.70182 0.0765 0.0
H760 H 0.04042 0.69518 0.0552 0.0
H761 H 0.15616 0.68242 0.0319 0.0
C762 C 0.1198 0.68746 0.01252 0.0
C763 C 0.08186 0.69125 0.0063 0.0
C764 C 0.06991 0.69566 0.05988 0.0
C765 C 0.09531 0.68485 0.03595 0.0
C766 C 0.07669 0.70757 0.07398 0.0
C767 C 0.11459 0.71089 0.08011 0.0
C768 C 0.10138 0.68811 0.05171 0.0
C769 C 0.14511 0.69927 0.07212 0.0
C770 C 0.12663 0.68411 0.02731 0.0
C771 C 0.05133 0.68989 0.01528 0.0
N772 N 0.13793 0.6892 0.05818 0.0
N773 N 0.05876 0.68727 0.02962 0.0
H774 H 0.57739 0.82999 0.25594 0.0
H775 H 0.66324 0.72756 0.32784 0.0
H776 H 0.6978 0.79868 0.26322 0.0
H777 H 0.54268 0.72931 0.313 0.0
H778 H 0.67813 0.76561 0.3068 0.0
H779 H 0.56613 0.80625 0.2797 0.0
C780 C 0.60153 0.81839 0.2626 0.0
C781 C 0.63842 0.81563 0.25751 0.0
C782 C 0.64841 0.75792 0.30826 0.0
C783 C 0.62576 0.78841 0.28472 0.0
C784 C 0.63997 0.73649 0.32028 0.0
C785 C 0.60181 0.72534 0.32211 0.0
C786 C 0.61828 0.76855 0.29819 0.0
C787 C 0.57258 0.73697 0.3119 0.0
C788 C 0.59511 0.80488 0.27616 0.0
C789 C 0.66888 0.80125 0.26673 0.0
N790 N 0.58142 0.75791 0.30039 0.0
N791 N 0.66179 0.7877 0.27986 0.0
H792 H 0.54631 0.1511 0.51117 0.0
H793 H 0.69994 0.21328 0.57196 0.0
H794 H 0.66893 0.14616 0.50638 0.0
H795 H 0.58217 0.18614 0.57967 0.0
H796 H 0.69142 0.17983 0.54899 0.0
H797 H 0.55968 0.15562 0.53699 0.0
C798 C 0.57604 0.15045 0.51561 0.0
C799 C 0.60659 0.14882 0.50668 0.0
C800 C 0.66775 0.18002 0.55587 0.0
C801 C 0.62221 0.15436 0.53614 0.0
C802 C 0.67277 0.19883 0.569 0.0
C803 C 0.64193 0.20155 0.57773 0.0
C804 C 0.63114 0.16532 0.55125 0.0
C805 C 0.60678 0.18385 0.57328 0.0
C806 C 0.5837 0.1528 0.53034 0.0
C807 C 0.64458 0.1475 0.51293 0.0
N808 N 0.6021 0.16698 0.56022 0.0
N809 N 0.65137 0.15105 0.52728 0.0
H810 H 0.17153 0.19448 0.75637 0.0
H811 H 0.11497 0.27565 0.83131 0.0
H812 H 0.1735 0.3163 0.76718 0.0
H813 H 0.12378 0.15369 0.8216 0.0
H814 H 0.14382 0.29114 0.80906 0.0
H815 H 0.16059 0.17884 0.78107 0.0
C816 C 0.16985 0.21793 0.76398 0.0
C817 C 0.17298 0.25676 0.75968 0.0
C818 C 0.1401 0.26096 0.8119 0.0
C819 C 0.16041 0.23913 0.78801 0.0
C820 C 0.12402 0.25211 0.82468 0.0
C821 C 0.11749 0.21332 0.82838 0.0
C822 C 0.14892 0.23079 0.8026 0.0
C823 C 0.12842 0.18399 0.81914 0.0
C824 C 0.1638 0.209 0.7781 0.0
C825 C 0.1713 0.28596 0.77004 0.0
N826 N 0.14327 0.19333 0.80663 0.0
N827 N 0.16466 0.27658 0.78369 0.0
loop_
_geom_bond_atom_site_label_1
_geom_bond_atom_site_label_2
_geom_bond_distance
_geom_bond_site_symmetry_2
_ccdc_geom_bond_type
C0 C1 1.386 . S
C0 C2 1.397 . S
C0 H24 0.931 . S
C1 C0 1.386 . S
C1 C5 1.397 . S
C2 C0 1.397 . S
C2 C3 1.384 . S
C2 H25 0.930 . S
C3 C2 1.384 . S
C3 C4 1.377 . S
C3 C6 1.481 . S
C4 C3 1.377 . S
C4 C5 1.389 . S
C4 H26 0.929 . S
C5 C1 1.397 . S
C5 C4 1.389 . S
C5 H27 0.931 . S
C6 C3 1.481 . S
C6 C7 1.387 . S
C6 C11 1.390 . S
C7 C6 1.387 . S
C7 C8 1.401 . S
C7 H28 0.930 . S
C8 C7 1.401 . S
C8 C9 1.376 . S
C8 C17 1.511 . S
C9 C8 1.376 . S
C9 C10 1.392 . S
C9 H30 0.931 . S
C10 C9 1.392 . S
C10 C11 1.361 . S
C10 C12 1.500 . S
C11 C6 1.390 . S
C11 C10 1.361 . S
C11 H29 0.931 . S
C12 C10 1.500 . S
C12 C13 1.371 . S
C12 C14 1.365 . S
C13 C12 1.371 . S
C13 C23 1.386 . S
C13 H31 0.931 . S
C14 C12 1.365 . S
C14 C15 1.409 . S
C14 H32 0.929 . S
C15 C14 1.409 . S
C15 C16 1.380 . S
C15 H33 0.930 . S
C16 C15 1.380 . S
C16 C23 1.357 . S
C17 C8 1.511 . S
C17 C18 1.341 . S
C17 C19 1.371 . S
C18 C17 1.341 . S
C18 C22 1.394 . S
C18 H34 0.930 . S
C19 C17 1.371 . S
C19 C20 1.392 . S
C19 H35 0.931 . S
C20 C19 1.392 . S
C20 C21 1.331 . S
C20 H38 0.932 . S
C21 C20 1.331 . S
C21 C22 1.336 . S
C22 C18 1.394 . S
C22 C21 1.336 . S
C22 H37 0.929 . S
C23 C13 1.386 . S
C23 C16 1.357 . S
C23 H36 0.928 . S
H24 C0 0.931 . S
H25 C2 0.930 . S
H26 C4 0.929 . S
H27 C5 0.931 . S
H28 C7 0.930 . S
H29 C11 0.931 . S
H30 C9 0.931 . S
H31 C13 0.931 . S
H32 C14 0.929 . S
H33 C15 0.930 . S
H34 C18 0.930 . S
H35 C19 0.931 . S
H36 C23 0.928 . S
H37 C22 0.929 . S
H38 C20 0.932 . S
C39 C40 1.386 . S
C39 C41 1.397 . S
C39 H63 0.931 . S
C40 C39 1.386 . S
C40 C44 1.397 . S
C41 C39 1.397 . S
C41 C42 1.384 . S
C41 H64 0.930 . S
C42 C41 1.384 . S
C42 C43 1.377 . S
C42 C45 1.481 . S
C43 C42 1.377 . S
C43 C44 1.389 . S
C43 H65 0.929 . S
C44 C40 1.397 . S
C44 C43 1.389 . S
C44 H66 0.931 . S
C45 C42 1.481 . S
C45 C46 1.387 . S
C45 C50 1.390 . S
C46 C45 1.387 . S
C46 C47 1.401 . S
C46 H67 0.930 . S
C47 C46 1.401 . S
C47 C48 1.376 . S
C47 C56 1.511 . S
C48 C47 1.376 . S
C48 C49 1.392 . S
C48 H69 0.931 . S
C49 C48 1.392 . S
C49 C50 1.361 . S
C49 C51 1.500 . S
C50 C45 1.390 . S
C50 C49 1.361 . S
C50 H68 0.931 . S
C51 C49 1.500 . S
C51 C52 1.371 . S
C51 C53 1.365 . S
C52 C51 1.371 . S
C52 C62 1.386 . S
C52 H70 0.931 . S
C53 C51 1.365 . S
C53 C54 1.409 1_455 S
C53 H71 0.929 . S
C54 C53 1.409 1_655 S
C54 C55 1.380 . S
C54 H72 0.930 . S
C55 C54 1.380 . S
C55 C62 1.357 1_655 S
C56 C47 1.511 . S
C56 C57 1.341 . S
C56 C58 1.371 . S
C57 C56 1.341 . S
C57 C61 1.394 . S
C57 H73 0.930 . S
C58 C56 1.371 . S
C58 C59 1.392 . S
C58 H74 0.931 . S
C59 C58 1.392 . S
C59 C60 1.331 . S
C59 H77 0.932 . S
C60 C59 1.331 . S
C60 C61 1.336 . S
C61 C57 1.394 . S
C61 C60 1.336 . S
C61 H76 0.929 . S
C62 C52 1.386 . S
C62 C55 1.357 1_455 S
C62 H75 0.928 . S
H63 C39 0.931 . S
H64 C41 0.930 . S
H65 C43 0.929 . S
H66 C44 0.931 . S
H67 C46 0.930 . S
H68 C50 0.931 . S
H69 C48 0.931 . S
H70 C52 0.931 . S
H71 C53 0.929 . S
H72 C54 0.930 . S
H73 C57 0.930 . S
H74 C58 0.931 . S
H75 C62 0.928 . S
H76 C61 0.929 . S
H77 C59 0.932 . S
C78 C79 1.386 . S
C78 C80 1.397 . S
C78 H102 0.931 . S
C79 C78 1.386 . S
C79 C83 1.397 . S
C80 C78 1.397 . S
C80 C81 1.384 . S
C80 H103 0.930 . S
C81 C80 1.384 . S
C81 C82 1.377 . S
C81 C84 1.481 . S
C82 C81 1.377 . S
C82 C83 1.389 . S
C82 H104 0.929 . S
C83 C79 1.397 . S
C83 C82 1.389 . S
C83 H105 0.931 . S
C84 C81 1.481 . S
C84 C85 1.387 . S
C84 C89 1.390 . S
C85 C84 1.387 . S
C85 C86 1.401 . S
C85 H106 0.930 . S
C86 C85 1.401 . S
C86 C87 1.376 . S
C86 C95 1.511 . S
C87 C86 1.376 . S
C87 C88 1.392 . S
C87 H108 0.931 . S
C88 C87 1.392 . S
C88 C89 1.361 . S
C88 C90 1.500 . S
C89 C84 1.390 . S
C89 C88 1.361 . S
C89 H107 0.931 . S
C90 C88 1.500 . S
C90 C91 1.371 . S
C90 C92 1.365 . S
C91 C90 1.371 . S
C91 C101 1.386 . S
C91 H109 0.931 . S
C92 C90 1.365 . S
C92 C93 1.409 . S
C92 H110 0.929 . S
C93 C92 1.409 . S
C93 C94 1.380 . S
C93 H111 0.930 . S
C94 C93 1.380 . S
C94 C101 1.357 . S
C95 C86 1.511 . S
C95 C96 1.341 . S
C95 C97 1.371 . S
C96 C95 1.341 . S
C96 C100 1.394 . S
C96 H112 0.930 . S
C97 C95 1.371 . S
C97 C98 1.392 . S
C97 H113 0.931 . S
C98 C97 1.392 . S
C98 C99 1.331 . S
C98 H116 0.932 . S
C99 C98 1.331 . S
C99 C100 1.336 . S
C100 C96 1.394 . S
C100 C99 1.336 . S
C100 H115 0.929 . S
C101 C91 1.386 . S
C101 C94 1.357 . S
C101 H114 0.928 . S
H102 C78 0.931 . S
H103 C80 0.930 . S
H104 C82 0.929 . S
H105 C83 0.931 . S
H106 C85 0.930 . S
H107 C89 0.931 . S
H108 C87 0.931 . S
H109 C91 0.931 . S
H110 C92 0.929 . S
H111 C93 0.930 . S
H112 C96 0.930 . S
H113 C97 0.931 . S
H114 C101 0.928 . S
H115 C100 0.929 . S
H116 C98 0.932 . S
C117 C118 1.386 . S
C117 C119 1.397 . S
C117 H141 0.931 . S
C118 C117 1.386 . S
C118 C122 1.397 . S
C119 C117 1.397 . S
C119 C120 1.384 . S
C119 H142 0.930 . S
C120 C119 1.384 . S
C120 C121 1.377 . S
C120 C123 1.481 . S
C121 C120 1.377 . S
C121 C122 1.389 . S
C121 H143 0.929 . S
C122 C118 1.397 . S
C122 C121 1.389 . S
C122 H144 0.931 . S
C123 C120 1.481 . S
C123 C124 1.387 . S
C123 C128 1.390 . S
C124 C123 1.387 . S
C124 C125 1.401 . S
C124 H145 0.930 . S
C125 C124 1.401 . S
C125 C126 1.376 . S
C125 C134 1.511 . S
C126 C125 1.376 . S
C126 C127 1.392 . S
C126 H147 0.931 . S
C127 C126 1.392 . S
C127 C128 1.361 . S
C127 C129 1.500 . S
C128 C123 1.390 . S
C128 C127 1.361 . S
C128 H146 0.931 . S
C129 C127 1.500 . S
C129 C130 1.371 . S
C129 C131 1.365 . S
C130 C129 1.371 . S
C130 C140 1.386 . S
C130 H148 0.931 . S
C131 C129 1.365 . S
C131 C132 1.409 . S
C131 H149 0.929 . S
C132 C131 1.409 . S
C132 C133 1.380 . S
C132 H150 0.930 . S
C133 C132 1.380 . S
C133 C140 1.357 . S
C134 C125 1.511 . S
C134 C135 1.341 . S
C134 C136 1.371 . S
C135 C134 1.341 . S
C135 C139 1.394 . S
C135 H151 0.930 . S
C136 C134 1.371 . S
C136 C137 1.392 . S
C136 H152 0.931 . S
C137 C136 1.392 . S
C137 C138 1.331 . S
C137 H155 0.932 . S
C138 C137 1.331 . S
C138 C139 1.336 . S
C139 C135 1.394 . S
C139 C138 1.336 . S
C139 H154 0.929 . S
C140 C130 1.386 . S
C140 C133 1.357 . S
C140 H153 0.928 . S
H141 C117 0.931 . S
H142 C119 0.930 . S
H143 C121 0.929 . S
H144 C122 0.931 . S
H145 C124 0.930 . S
H146 C128 0.931 . S
H147 C126 0.931 . S
H148 C130 0.931 . S
H149 C131 0.929 . S
H150 C132 0.930 . S
H151 C135 0.930 . S
H152 C136 0.931 . S
H153 C140 0.928 . S
H154 C139 0.929 . S
H155 C137 0.932 . S
C156 C157 1.386 . S
C156 C158 1.397 . S
C156 H180 0.931 . S
C157 C156 1.386 . S
C157 C161 1.397 . S
C158 C156 1.397 . S
C158 C159 1.384 . S
C158 H181 0.930 . S
C159 C158 1.384 . S
C159 C160 1.377 . S
C159 C162 1.481 . S
C160 C159 1.377 . S
C160 C161 1.389 . S
C160 H182 0.929 . S
C161 C157 1.397 . S
C161 C160 1.389 . S
C161 H183 0.931 . S
C162 C159 1.481 . S
C162 C163 1.387 . S
C162 C167 1.390 . S
C163 C162 1.387 . S
C163 C164 1.401 . S
C163 H184 0.930 . S
C164 C163 1.401 . S
C164 C165 1.376 . S
C164 C173 1.511 . S
C165 C164 1.376 . S
C165 C166 1.392 . S
C165 H186 0.931 . S
C166 C165 1.392 . S
C166 C167 1.361 . S
C166 C168 1.500 . S
C167 C162 1.390 . S
C167 C166 1.361 . S
C167 H185 0.931 . S
C168 C166 1.500 . S
C168 C169 1.371 . S
C168 C170 1.365 . S
C169 C168 1.371 . S
C169 C179 1.386 . S
C169 H187 0.931 . S
C170 C168 1.365 . S
C170 C171 1.409 . S
C170 H188 0.929 . S
C171 C170 1.409 . S
C171 C172 1.380 . S
C171 H189 0.930 . S
C172 C171 1.380 . S
C172 C179 1.357 . S
C173 C164 1.511 . S
C173 C174 1.341 . S
C173 C175 1.371 . S
C174 C173 1.341 . S
C174 C178 1.394 . S
C174 H190 0.930 . S
C175 C173 1.371 . S
C175 C176 1.392 . S
C175 H191 0.931 . S
C176 C175 1.392 . S
C176 C177 1.331 . S
C176 H194 0.932 . S
C177 C176 1.331 . S
C177 C178 1.336 . S
C178 C174 1.394 . S
C178 C177 1.336 . S
C178 H193 0.929 . S
C179 C169 1.386 . S
C179 C172 1.357 . S
C179 H192 0.928 . S
H180 C156 0.931 . S
H181 C158 0.930 . S
H182 C160 0.929 . S
H183 C161 0.931 . S
H184 C163 0.930 . S
H185 C167 0.931 . S
H186 C165 0.931 . S
H187 C169 0.931 . S
H188 C170 0.929 . S
H189 C171 0.930 . S
H190 C174 0.930 . S
H191 C175 0.931 . S
H192 C179 0.928 . S
H193 C178 0.929 . S
H194 C176 0.932 . S
C195 C196 1.386 . S
C195 C197 1.397 . S
C195 H219 0.931 . S
C196 C195 1.386 . S
C196 C200 1.397 . S
C197 C195 1.397 . S
C197 C198 1.384 . S
C197 H220 0.930 . S
C198 C197 1.384 . S
C198 C199 1.377 . S
C198 C201 1.481 . S
C199 C198 1.377 . S
C199 C200 1.389 . S
C199 H221 0.929 . S
C200 C196 1.397 . S
C200 C199 1.389 . S
C200 H222 0.931 . S
C201 C198 1.481 . S
C201 C202 1.387 . S
C201 C206 1.390 . S
C202 C201 1.387 . S
C202 C203 1.401 . S
C202 H223 0.930 . S
C203 C202 1.401 . S
C203 C204 1.376 . S
C203 C212 1.511 . S
C204 C203 1.376 . S
C204 C205 1.392 . S
C204 H225 0.931 . S
C205 C204 1.392 . S
C205 C206 1.361 . S
C205 C207 1.500 . S
C206 C201 1.390 . S
C206 C205 1.361 . S
C206 H224 0.931 . S
C207 C205 1.500 . S
C207 C208 1.371 . S
C207 C209 1.365 . S
C208 C207 1.371 . S
C208 C218 1.386 . S
C208 H226 0.931 . S
C209 C207 1.365 . S
C209 C210 1.409 . S
C209 H227 0.929 . S
C210 C209 1.409 . S
C210 C211 1.380 . S
C210 H228 0.930 . S
C211 C210 1.380 . S
C211 C218 1.357 . S
C212 C203 1.511 . S
C212 C213 1.341 . S
C212 C214 1.371 . S
C213 C212 1.341 . S
C213 C217 1.394 . S
C213 H229 0.930 . S
C214 C212 1.371 . S
C214 C215 1.392 . S
C214 H230 0.931 . S
C215 C214 1.392 . S
C215 C216 1.331 . S
C215 H233 0.932 . S
C216 C215 1.331 . S
C216 C217 1.336 . S
C217 C213 1.394 . S
C217 C216 1.336 . S
C217 H232 0.929 . S
C218 C208 1.386 . S
C218 C211 1.357 . S
C218 H231 0.928 . S
H219 C195 0.931 . S
H220 C197 0.930 . S
H221 C199 0.929 . S
H222 C200 0.931 . S
H223 C202 0.930 . S
H224 C206 0.931 . S
H225 C204 0.931 . S
H226 C208 0.931 . S
H227 C209 0.929 . S
H228 C210 0.930 . S
H229 C213 0.930 . S
H230 C214 0.931 . S
H231 C218 0.928 . S
H232 C217 0.929 . S
H233 C215 0.932 . S
C234 C235 1.386 . S
C234 C236 1.397 . S
C234 H258 0.931 . S
C235 C234 1.386 . S
C235 C239 1.397 . S
C236 C234 1.397 . S
C236 C237 1.384 . S
C236 H259 0.930 . S
C237 C236 1.384 . S
C237 C238 1.377 . S
C237 C240 1.481 . S
C238 C237 1.377 . S
C238 C239 1.389 . S
C238 H260 0.929 . S
C239 C235 1.397 . S
C239 C238 1.389 . S
C239 H261 0.931 . S
C240 C237 1.481 . S
C240 C241 1.387 . S
C240 C245 1.390 . S
C241 C240 1.387 . S
C241 C242 1.401 . S
C241 H262 0.930 . S
C242 C241 1.401 . S
C242 C243 1.376 . S
C242 C251 1.511 . S
C243 C242 1.376 . S
C243 C244 1.392 . S
C243 H264 0.931 . S
C244 C243 1.392 . S
C244 C245 1.361 . S
C244 C246 1.500 . S
C245 C240 1.390 . S
C245 C244 1.361 . S
C245 H263 0.931 . S
C246 C244 1.500 . S
C246 C247 1.371 . S
C246 C248 1.365 . S
C247 C246 1.371 . S
C247 C257 1.386 . S
C247 H265 0.931 . S
C248 C246 1.365 . S
C248 C249 1.409 . S
C248 H266 0.929 . S
C249 C248 1.409 . S
C249 C250 1.380 . S
C249 H267 0.930 . S
C250 C249 1.380 . S
C250 C257 1.357 . S
C251 C242 1.511 . S
C251 C252 1.341 . S
C251 C253 1.371 . S
C252 C251 1.341 . S
C252 C256 1.394 . S
C252 H268 0.930 . S
C253 C251 1.371 . S
C253 C254 1.392 . S
C253 H269 0.931 . S
C254 C253 1.392 . S
C254 C255 1.331 . S
C254 H272 0.932 . S
C255 C254 1.331 . S
C255 C256 1.336 . S
C256 C252 1.394 . S
C256 C255 1.336 . S
C256 H271 0.929 . S
C257 C247 1.386 . S
C257 C250 1.357 . S
C257 H270 0.928 . S
H258 C234 0.931 . S
H259 C236 0.930 . S
H260 C238 0.929 . S
H261 C239 0.931 . S
H262 C241 0.930 . S
H263 C245 0.931 . S
H264 C243 0.931 . S
H265 C247 0.931 . S
H266 C248 0.929 . S
H267 C249 0.930 . S
H268 C252 0.930 . S
H269 C253 0.931 . S
H270 C257 0.928 . S
H271 C256 0.929 . S
H272 C254 0.932 . S
C273 C274 1.386 . S
C273 C275 1.397 . S
C273 H297 0.931 . S
C274 C273 1.386 . S
C274 C278 1.397 . S
C275 C273 1.397 . S
C275 C276 1.384 . S
C275 H298 0.930 . S
C276 C275 1.384 . S
C276 C277 1.377 . S
C276 C279 1.481 . S
C277 C276 1.377 . S
C277 C278 1.389 . S
C277 H299 0.929 . S
C278 C274 1.397 . S
C278 C277 1.389 . S
C278 H300 0.931 . S
C279 C276 1.481 . S
C279 C280 1.387 . S
C279 C284 1.390 . S
C280 C279 1.387 . S
C280 C281 1.401 . S
C280 H301 0.930 . S
C281 C280 1.401 . S
C281 C282 1.376 . S
C281 C290 1.511 . S
C282 C281 1.376 . S
C282 C283 1.392 . S
C282 H303 0.931 . S
C283 C282 1.392 . S
C283 C284 1.361 . S
C283 C285 1.500 . S
C284 C279 1.390 . S
C284 C283 1.361 . S
C284 H302 0.931 . S
C285 C283 1.500 . S
C285 C286 1.371 . S
C285 C287 1.365 . S
C286 C285 1.371 . S
C286 C296 1.386 . S
C286 H304 0.931 . S
C287 C285 1.365 . S
C287 C288 1.403 1_455 S
C287 H305 0.929 . S
C288 C287 1.403 1_655 S
C288 C289 1.381 . S
C288 H306 0.936 . S
C289 C288 1.381 . S
C289 C296 1.357 1_655 S
C290 C281 1.511 . S
C290 C291 1.341 . S
C290 C292 1.371 . S
C291 C290 1.341 . S
C291 C295 1.394 . S
C291 H307 0.930 . S
C292 C290 1.371 . S
C292 C293 1.392 . S
C292 H308 0.931 . S
C293 C292 1.392 . S
C293 C294 1.331 . S
C293 H311 0.932 . S
C294 C293 1.331 . S
C294 C295 1.336 . S
C295 C291 1.394 . S
C295 C294 1.336 . S
C295 H310 0.929 . S
C296 C286 1.386 . S
C296 C289 1.357 1_455 S
C296 H309 0.928 . S
H297 C273 0.931 . S
H298 C275 0.930 . S
H299 C277 0.929 . S
H300 C278 0.931 . S
H301 C280 0.930 . S
H302 C284 0.931 . S
H303 C282 0.931 . S
H304 C286 0.931 . S
H305 C287 0.929 . S
H306 C288 0.936 . S
H307 C291 0.930 . S
H308 C292 0.931 . S
H309 C296 0.928 . S
H310 C295 0.929 . S
H311 C293 0.932 . S
Zn312 O318 1.920 . S
Zn312 O324 1.898 . S
Zn312 O327 1.905 . S
Zn313 O321 1.905 . S
Zn313 O322 1.898 . S
Zn313 O330 1.920 . S
Zn314 O317 2.080 . S
Zn314 O320 2.114 . S
Zn314 O323 2.120 . S
Zn314 O325 2.120 . S
Zn314 O326 2.114 . S
Zn314 O329 2.080 . S
C315 O320 1.166 . S
C315 O321 1.182 . S
C316 O322 1.167 . S
C316 O323 1.299 . S
O317 Zn314 2.080 . S
O317 C331 1.305 . S
O318 Zn312 1.920 . S
O318 C331 1.234 . S
C319 O324 1.167 . S
C319 O325 1.299 . S
O320 Zn314 2.114 . S
O320 C315 1.166 . S
O321 Zn313 1.905 . S
O321 C315 1.182 . S
O322 Zn313 1.898 . S
O322 C316 1.167 . S
O323 Zn314 2.120 . S
O323 C316 1.299 . S
O324 Zn312 1.898 . S
O324 C319 1.167 . S
O325 Zn314 2.120 . S
O325 C319 1.299 . S
O326 Zn314 2.114 . S
O326 C328 1.166 . S
O327 Zn312 1.905 . S
O327 C328 1.182 . S
C328 O326 1.166 . S
C328 O327 1.182 . S
O329 Zn314 2.080 . S
O329 C332 1.305 . S
O330 Zn313 1.920 . S
O330 C332 1.234 . S
C331 O317 1.305 . S
C331 O318 1.234 . S
C332 O329 1.305 . S
C332 O330 1.234 . S
Zn333 O339 1.920 . S
Zn333 O345 1.898 . S
Zn333 O348 1.905 . S
Zn334 O342 1.905 . S
Zn334 O343 1.898 . S
Zn334 O351 1.920 . S
Zn335 O338 2.080 . S
Zn335 O341 2.114 . S
Zn335 O344 2.120 . S
Zn335 O346 2.120 . S
Zn335 O347 2.114 . S
Zn335 O350 2.080 . S
C336 O341 1.166 . S
C336 O342 1.182 . S
C337 O343 1.167 . S
C337 O344 1.299 . S
O338 Zn335 2.080 . S
O338 C352 1.305 . S
O339 Zn333 1.920 . S
O339 C352 1.234 . S
C340 O345 1.167 . S
C340 O346 1.299 . S
O341 Zn335 2.114 . S
O341 C336 1.166 . S
O342 Zn334 1.905 . S
O342 C336 1.182 . S
O343 Zn334 1.898 . S
O343 C337 1.167 . S
O344 Zn335 2.120 . S
O344 C337 1.299 . S
O345 Zn333 1.898 . S
O345 C340 1.167 . S
O346 Zn335 2.120 . S
O346 C340 1.299 . S
O347 Zn335 2.114 . S
O347 C349 1.166 . S
O348 Zn333 1.905 . S
O348 C349 1.182 . S
C349 O347 1.166 . S
C349 O348 1.182 . S
O350 Zn335 2.080 . S
O350 C353 1.305 . S
O351 Zn334 1.920 . S
O351 C353 1.234 . S
C352 O338 1.305 . S
C352 O339 1.234 . S
C353 O350 1.305 . S
C353 O351 1.234 . S
Zn354 O360 1.920 . S
Zn354 O366 1.898 . S
Zn354 O369 1.905 . S
Zn355 O363 1.905 . S
Zn355 O364 1.898 . S
Zn355 O372 1.920 . S
Zn356 O359 2.080 . S
Zn356 O362 2.114 . S
Zn356 O365 2.120 . S
Zn356 O367 2.120 . S
Zn356 O368 2.114 . S
Zn356 O371 2.080 . S
C357 O362 1.166 . S
C357 O363 1.182 . S
C358 O364 1.167 . S
C358 O365 1.299 . S
O359 Zn356 2.080 . S
O359 C373 1.305 . S
O360 Zn354 1.920 . S
O360 C373 1.234 . S
C361 O366 1.167 . S
C361 O367 1.299 . S
O362 Zn356 2.114 . S
O362 C357 1.166 . S
O363 Zn355 1.905 . S
O363 C357 1.182 . S
O364 Zn355 1.898 . S
O364 C358 1.167 . S
O365 Zn356 2.120 . S
O365 C358 1.299 . S
O366 Zn354 1.898 . S
O366 C361 1.167 . S
O367 Zn356 2.120 . S
O367 C361 1.299 . S
O368 Zn356 2.114 . S
O368 C370 1.166 . S
O369 Zn354 1.905 . S
O369 C370 1.182 . S
C370 O368 1.166 . S
C370 O369 1.182 . S
O371 Zn356 2.080 . S
O371 C374 1.305 . S
O372 Zn355 1.920 . S
O372 C374 1.234 . S
C373 O359 1.305 . S
C373 O360 1.234 . S
C374 O371 1.305 . S
C374 O372 1.234 . S
Zn375 O381 1.920 . S
Zn375 O387 1.898 . S
Zn375 O390 1.905 . S
Zn376 O384 1.905 . S
Zn376 O385 1.898 . S
Zn376 O393 1.920 . S
Zn377 O380 2.080 . S
Zn377 O383 2.114 . S
Zn377 O386 2.120 . S
Zn377 O388 2.120 . S
Zn377 O389 2.114 . S
Zn377 O392 2.080 . S
C378 O383 1.166 . S
C378 O384 1.182 . S
C379 O385 1.167 . S
C379 O386 1.299 . S
O380 Zn377 2.080 . S
O380 C394 1.305 . S
O381 Zn375 1.920 . S
O381 C394 1.234 . S
C382 O387 1.167 . S
C382 O388 1.299 . S
O383 Zn377 2.114 . S
O383 C378 1.166 . S
O384 Zn376 1.905 . S
O384 C378 1.182 . S
O385 Zn376 1.898 . S
O385 C379 1.167 . S
O386 Zn377 2.120 . S
O386 C379 1.299 . S
O387 Zn375 1.898 . S
O387 C382 1.167 . S
O388 Zn377 2.120 . S
O388 C382 1.299 . S
O389 Zn377 2.114 . S
O389 C391 1.166 . S
O390 Zn375 1.905 . S
O390 C391 1.182 . S
C391 O389 1.166 . S
C391 O390 1.182 . S
O392 Zn377 2.080 . S
O392 C395 1.305 . S
O393 Zn376 1.920 . S
O393 C395 1.234 . S
C394 O380 1.305 . S
C394 O381 1.234 . S
C395 O392 1.305 . S
C395 O393 1.234 . S
H396 C402 0.930 . S
H397 C406 0.930 . S
H398 C411 0.929 . S
H399 C409 0.929 . S
H400 C404 0.929 . S
H401 C410 0.929 . S
C402 H396 0.930 . S
C402 C403 1.367 . S
C402 C410 1.378 . S
C403 C402 1.367 . S
C403 C411 1.433 . S
C404 H400 0.929 . S
C404 C406 1.378 . S
C404 C408 1.350 . S
C405 C408 1.463 . S
C405 C410 1.350 . S
C405 N413 1.427 . S
C406 H397 0.930 . S
C406 C404 1.378 . S
C406 C407 1.367 . S
C407 C406 1.367 . S
C407 C409 1.433 . S
C408 C404 1.350 . S
C408 C405 1.463 . S
C408 N412 1.427 . S
C409 H399 0.929 . S
C409 C407 1.433 . S
C409 N412 1.384 . S
C410 H401 0.929 . S
C410 C402 1.378 . S
C410 C405 1.350 . S
C411 H398 0.929 . S
C411 C403 1.433 . S
C411 N413 1.384 . S
N412 C408 1.427 . S
N412 C409 1.384 . S
N413 C405 1.427 . S
N413 C411 1.384 . S
H414 C420 0.930 . S
H415 C424 0.930 . S
H416 C429 0.929 . S
H417 C427 0.929 . S
H418 C422 0.929 . S
H419 C428 0.929 . S
C420 H414 0.930 . S
C420 C421 1.367 . S
C420 C428 1.378 . S
C421 C420 1.367 . S
C421 C429 1.433 . S
C422 H418 0.929 . S
C422 C424 1.378 . S
C422 C426 1.350 . S
C423 C426 1.463 . S
C423 C428 1.350 . S
C423 N431 1.427 . S
C424 H415 0.930 . S
C424 C422 1.378 . S
C424 C425 1.367 . S
C425 C424 1.367 . S
C425 C427 1.433 . S
C426 C422 1.350 . S
C426 C423 1.463 . S
C426 N430 1.427 . S
C427 H417 0.929 . S
C427 C425 1.433 . S
C427 N430 1.384 . S
C428 H419 0.929 . S
C428 C420 1.378 . S
C428 C423 1.350 . S
C429 H416 0.929 . S
C429 C421 1.433 . S
C429 N431 1.384 . S
N430 C426 1.427 . S
N430 C427 1.384 . S
N431 C423 1.427 . S
N431 C429 1.384 . S
H432 C438 0.930 . S
H433 C442 0.930 . S
H434 C447 0.929 . S
H435 C445 0.929 . S
H436 C440 0.929 . S
H437 C446 0.929 . S
C438 H432 0.930 . S
C438 C439 1.367 . S
C438 C446 1.378 . S
C439 C438 1.367 . S
C439 C447 1.433 . S
C440 H436 0.929 . S
C440 C442 1.378 . S
C440 C444 1.350 . S
C441 C444 1.463 . S
C441 C446 1.350 . S
C441 N449 1.427 . S
C442 H433 0.930 . S
C442 C440 1.378 . S
C442 C443 1.367 . S
C443 C442 1.367 . S
C443 C445 1.433 . S
C444 C440 1.350 . S
C444 C441 1.463 . S
C444 N448 1.427 . S
C445 H435 0.929 . S
C445 C443 1.433 . S
C445 N448 1.384 . S
C446 H437 0.929 . S
C446 C438 1.378 . S
C446 C441 1.350 . S
C447 H434 0.929 . S
C447 C439 1.433 . S
C447 N449 1.384 . S
N448 C444 1.427 . S
N448 C445 1.384 . S
N449 C441 1.427 . S
N449 C447 1.384 . S
H450 C456 0.930 . S
H451 C460 0.930 . S
H452 C465 0.929 . S
H453 C463 0.929 1_455 S
H454 C458 0.929 . S
H455 C464 0.929 . S
C456 H450 0.930 . S
C456 C457 1.367 . S
C456 C464 1.378 . S
C457 C456 1.367 . S
C457 C465 1.433 . S
C458 H454 0.929 . S
C458 C460 1.378 . S
C458 C462 1.350 . S
C459 C462 1.463 . S
C459 C464 1.350 . S
C459 N467 1.427 . S
C460 H451 0.930 . S
C460 C458 1.378 . S
C460 C461 1.367 1_655 S
C461 C460 1.367 1_455 S
C461 C463 1.433 1_455 S
C462 C458 1.350 . S
C462 C459 1.463 . S
C462 N466 1.427 . S
C463 H453 0.929 1_655 S
C463 C461 1.433 1_655 S
C463 N466 1.384 . S
C464 H455 0.929 . S
C464 C456 1.378 . S
C464 C459 1.350 . S
C465 H452 0.929 . S
C465 C457 1.433 . S
C465 N467 1.384 . S
N466 C462 1.427 . S
N466 C463 1.384 . S
N467 C459 1.427 . S
N467 C465 1.384 . S
H468 C474 0.930 . S
H469 C478 0.930 . S
H470 C483 0.929 . S
H471 C481 0.929 . S
H472 C476 0.929 . S
H473 C482 0.929 . S
C474 H468 0.930 . S
C474 C475 1.367 . S
C474 C482 1.378 . S
C475 C474 1.367 . S
C475 C483 1.433 . S
C476 H472 0.929 . S
C476 C478 1.378 . S
C476 C480 1.350 . S
C477 C480 1.463 . S
C477 C482 1.350 . S
C477 N485 1.427 . S
C478 H469 0.930 . S
C478 C476 1.378 . S
C478 C479 1.367 . S
C479 C478 1.367 . S
C479 C481 1.433 . S
C480 C476 1.350 . S
C480 C477 1.463 . S
C480 N484 1.427 . S
C481 H471 0.929 . S
C481 C479 1.433 . S
C481 N484 1.384 . S
C482 H473 0.929 . S
C482 C474 1.378 . S
C482 C477 1.350 . S
C483 H470 0.929 . S
C483 C475 1.433 . S
C483 N485 1.384 . S
N484 C480 1.427 . S
N484 C481 1.384 . S
N485 C477 1.427 . S
N485 C483 1.384 . S
H486 C492 0.930 . S
H487 C496 0.930 . S
H488 C501 0.929 . S
H489 C499 0.909 1_455 S
H490 C494 0.929 . S
H491 C500 0.929 . S
C492 H486 0.930 . S
C492 C493 1.367 . S
C492 C500 1.378 . S
C493 C492 1.367 . S
C493 C501 1.433 . S
C494 H490 0.929 . S
C494 C496 1.378 . S
C494 C498 1.350 . S
C495 C498 1.463 . S
C495 C500 1.350 . S
C495 N503 1.427 . S
C496 H487 0.930 . S
C496 C494 1.378 . S
C496 C497 1.367 1_655 S
C497 C496 1.367 1_455 S
C497 C499 1.425 1_455 S
C498 C494 1.350 . S
C498 C495 1.463 . S
C498 N502 1.427 . S
C499 H489 0.909 1_655 S
C499 C497 1.425 1_655 S
C499 N502 1.414 . S
C500 H491 0.929 . S
C500 C492 1.378 . S
C500 C495 1.350 . S
C501 H488 0.929 . S
C501 C493 1.433 . S
C501 N503 1.384 . S
N502 C498 1.427 . S
N502 C499 1.414 . S
N503 C495 1.427 . S
N503 C501 1.384 . S
H504 C510 0.930 . S
H505 C514 0.930 . S
H506 C519 0.929 . S
H507 C517 0.929 . S
H508 C512 0.929 . S
H509 C518 0.929 . S
C510 H504 0.930 . S
C510 C511 1.367 . S
C510 C518 1.378 . S
C511 C510 1.367 . S
C511 C519 1.433 . S
C512 H508 0.929 . S
C512 C514 1.378 . S
C512 C516 1.350 . S
C513 C516 1.463 . S
C513 C518 1.350 . S
C513 N521 1.427 . S
C514 H505 0.930 . S
C514 C512 1.378 . S
C514 C515 1.367 . S
C515 C514 1.367 . S
C515 C517 1.433 . S
C516 C512 1.350 . S
C516 C513 1.463 . S
C516 N520 1.427 . S
C517 H507 0.929 . S
C517 C515 1.433 . S
C517 N520 1.384 . S
C518 H509 0.929 . S
C518 C510 1.378 . S
C518 C513 1.350 . S
C519 H506 0.929 . S
C519 C511 1.433 . S
C519 N521 1.384 . S
N520 C516 1.427 . S
N520 C517 1.384 . S
N521 C513 1.427 . S
N521 C519 1.384 . S
H522 C528 0.930 . S
H523 C532 0.930 . S
H524 C537 0.929 . S
H525 C535 0.929 . S
H526 C530 0.929 . S
H527 C536 0.929 . S
C528 H522 0.930 . S
C528 C529 1.367 . S
C528 C536 1.378 . S
C529 C528 1.367 . S
C529 C537 1.433 . S
C530 H526 0.929 . S
C530 C532 1.378 . S
C530 C534 1.350 . S
C531 C534 1.463 . S
C531 C536 1.350 . S
C531 N539 1.427 . S
C532 H523 0.930 . S
C532 C530 1.378 . S
C532 C533 1.367 . S
C533 C532 1.367 . S
C533 C535 1.433 . S
C534 C530 1.350 . S
C534 C531 1.463 . S
C534 N538 1.427 . S
C535 H525 0.929 . S
C535 C533 1.433 . S
C535 N538 1.384 . S
C536 H527 0.929 . S
C536 C528 1.378 . S
C536 C531 1.350 . S
C537 H524 0.929 . S
C537 C529 1.433 . S
C537 N539 1.384 . S
N538 C534 1.427 . S
N538 C535 1.384 . S
N539 C531 1.427 . S
N539 C537 1.384 . S
H540 C546 0.930 . S
H541 C550 0.930 . S
H542 C555 0.929 . S
H543 C553 0.929 . S
H544 C548 0.929 . S
H545 C554 0.929 . S
C546 H540 0.930 . S
C546 C547 1.367 . S
C546 C554 1.378 . S
C547 C546 1.367 . S
C547 C555 1.433 . S
C548 H544 0.929 . S
C548 C550 1.378 . S
C548 C552 1.350 . S
C549 C552 1.463 . S
C549 C554 1.350 . S
C549 N557 1.427 . S
C550 H541 0.930 . S
C550 C548 1.378 . S
C550 C551 1.367 . S
C551 C550 1.367 . S
C551 C553 1.433 . S
C552 C548 1.350 . S
C552 C549 1.463 . S
C552 N556 1.427 . S
C553 H543 0.929 . S
C553 C551 1.433 . S
C553 N556 1.384 . S
C554 H545 0.929 . S
C554 C546 1.378 . S
C554 C549 1.350 . S
C555 H542 0.929 . S
C555 C547 1.433 . S
C555 N557 1.384 . S
N556 C552 1.427 . S
N556 C553 1.384 . S
N557 C549 1.427 . S
N557 C555 1.384 . S
H558 C564 0.930 . S
H559 C568 0.930 . S
H560 C573 0.929 . S
H561 C571 0.929 . S
H562 C566 0.929 . S
H563 C572 0.929 . S
C564 H558 0.930 . S
C564 C565 1.367 . S
C564 C572 1.378 . S
C565 C564 1.367 . S
C565 C573 1.433 . S
C566 H562 0.929 . S
C566 C568 1.378 . S
C566 C570 1.350 . S
C567 C570 1.463 . S
C567 C572 1.350 . S
C567 N575 1.427 . S
C568 H559 0.930 . S
C568 C566 1.378 . S
C568 C569 1.367 . S
C569 C568 1.367 . S
C569 C571 1.433 . S
C570 C566 1.350 . S
C570 C567 1.463 . S
C570 N574 1.427 . S
C571 H561 0.929 . S
C571 C569 1.433 . S
C571 N574 1.384 . S
C572 H563 0.929 . S
C572 C564 1.378 . S
C572 C567 1.350 . S
C573 H560 0.929 . S
C573 C565 1.433 . S
C573 N575 1.384 . S
N574 C570 1.427 . S
N574 C571 1.384 . S
N575 C567 1.427 . S
N575 C573 1.384 . S
H576 C582 0.930 . S
H577 C586 0.930 . S
H578 C591 0.929 . S
H579 C589 0.929 . S
H580 C584 0.929 . S
H581 C590 0.929 . S
C582 H576 0.930 . S
C582 C583 1.367 . S
C582 C590 1.378 . S
C583 C582 1.367 . S
C583 C591 1.433 . S
C584 H580 0.929 . S
C584 C586 1.378 . S
C584 C588 1.350 . S
C585 C588 1.463 . S
C585 C590 1.350 . S
C585 N593 1.427 . S
C586 H577 0.930 . S
C586 C584 1.378 . S
C586 C587 1.367 . S
C587 C586 1.367 . S
C587 C589 1.433 . S
C588 C584 1.350 . S
C588 C585 1.463 . S
C588 N592 1.427 . S
C589 H579 0.929 . S
C589 C587 1.433 . S
C589 N592 1.384 . S
C590 H581 0.929 . S
C590 C582 1.378 . S
C590 C585 1.350 . S
C591 H578 0.929 . S
C591 C583 1.433 . S
C591 N593 1.384 . S
N592 C588 1.427 . S
N592 C589 1.384 . S
N593 C585 1.427 . S
N593 C591 1.384 . S
H594 C600 0.930 . S
H595 C604 0.930 . S
H596 C609 0.929 . S
H597 C607 0.929 . S
H598 C602 0.929 . S
H599 C608 0.929 . S
C600 H594 0.930 . S
C600 C601 1.367 . S
C600 C608 1.378 . S
C601 C600 1.367 . S
C601 C609 1.433 . S
C602 H598 0.929 . S
C602 C604 1.378 . S
C602 C606 1.350 . S
C603 C606 1.463 . S
C603 C608 1.350 . S
C603 N611 1.427 . S
C604 H595 0.930 . S
C604 C602 1.378 . S
C604 C605 1.367 . S
C605 C604 1.367 . S
C605 C607 1.433 . S
C606 C602 1.350 . S
C606 C603 1.463 . S
C606 N610 1.427 . S
C607 H597 0.929 . S
C607 C605 1.433 . S
C607 N610 1.384 . S
C608 H599 0.929 . S
C608 C600 1.378 . S
C608 C603 1.350 . S
C609 H596 0.929 . S
C609 C601 1.433 . S
C609 N611 1.384 . S
N610 C606 1.427 . S
N610 C607 1.384 . S
N611 C603 1.427 . S
N611 C609 1.384 . S
H612 C618 0.930 . S
H613 C622 0.930 . S
H614 C627 0.929 . S
H615 C625 0.929 . S
H616 C620 0.929 . S
H617 C626 0.929 . S
C618 H612 0.930 . S
C618 C619 1.367 . S
C618 C626 1.378 . S
C619 C618 1.367 . S
C619 C627 1.433 . S
C620 H616 0.929 . S
C620 C622 1.378 . S
C620 C624 1.350 . S
C621 C624 1.463 1_565 S
C621 C626 1.350 . S
C621 N629 1.427 . S
C622 H613 0.930 . S
C622 C620 1.378 . S
C622 C623 1.367 . S
C623 C622 1.367 . S
C623 C625 1.433 . S
C624 C620 1.350 . S
C624 C621 1.463 1_545 S
C624 N628 1.427 . S
C625 H615 0.929 . S
C625 C623 1.433 . S
C625 N628 1.384 . S
C626 H617 0.929 . S
C626 C618 1.378 . S
C626 C621 1.350 . S
C627 H614 0.929 . S
C627 C619 1.433 . S
C627 N629 1.384 . S
N628 C624 1.427 . S
N628 C625 1.384 . S
N629 C621 1.427 . S
N629 C627 1.384 . S
H630 C636 0.930 . S
H631 C640 0.930 . S
H632 C645 0.929 . S
H633 C643 0.929 . S
H634 C638 0.929 . S
H635 C644 0.929 . S
C636 H630 0.930 . S
C636 C637 1.367 . S
C636 C644 1.378 1_545 S
C637 C636 1.367 . S
C637 C645 1.433 . S
C638 H634 0.929 . S
C638 C640 1.378 . S
C638 C642 1.350 . S
C639 C642 1.463 . S
C639 C644 1.350 . S
C639 N647 1.427 1_565 S
C640 H631 0.930 . S
C640 C638 1.378 . S
C640 C641 1.367 . S
C641 C640 1.367 . S
C641 C643 1.433 . S
C642 C638 1.350 . S
C642 C639 1.463 . S
C642 N646 1.427 . S
C643 H633 0.929 . S
C643 C641 1.433 . S
C643 N646 1.384 . S
C644 H635 0.929 . S
C644 C636 1.378 1_565 S
C644 C639 1.350 . S
C645 H632 0.929 . S
C645 C637 1.433 . S
C645 N647 1.384 . S
N646 C642 1.427 . S
N646 C643 1.384 . S
N647 C639 1.427 1_545 S
N647 C645 1.384 . S
H648 C654 0.930 . S
H649 C658 0.930 . S
H650 C663 0.929 . S
H651 C661 0.929 . S
H652 C656 0.929 . S
H653 C662 0.929 . S
C654 H648 0.930 . S
C654 C655 1.367 . S
C654 C662 1.378 1_545 S
C655 C654 1.367 . S
C655 C663 1.433 . S
C656 H652 0.929 . S
C656 C658 1.378 . S
C656 C660 1.350 . S
C657 C660 1.463 . S
C657 C662 1.350 . S
C657 N665 1.427 1_565 S
C658 H649 0.930 . S
C658 C656 1.378 . S
C658 C659 1.367 . S
C659 C658 1.367 . S
C659 C661 1.433 . S
C660 C656 1.350 . S
C660 C657 1.463 . S
C660 N664 1.427 . S
C661 H651 0.929 . S
C661 C659 1.433 . S
C661 N664 1.384 . S
C662 H653 0.929 . S
C662 C654 1.378 1_565 S
C662 C657 1.350 . S
C663 H650 0.929 . S
C663 C655 1.433 . S
C663 N665 1.384 . S
N664 C660 1.427 . S
N664 C661 1.384 . S
N665 C657 1.427 1_545 S
N665 C663 1.384 . S
H666 C672 0.930 . S
H667 C676 0.930 . S
H668 C681 0.929 . S
H669 C679 0.929 . S
H670 C674 0.929 . S
H671 C680 0.929 . S
C672 H666 0.930 . S
C672 C673 1.367 . S
C672 C680 1.378 . S
C673 C672 1.367 . S
C673 C681 1.433 . S
C674 H670 0.929 . S
C674 C676 1.378 . S
C674 C678 1.350 . S
C675 C678 1.463 . S
C675 C680 1.350 1_545 S
C675 N683 1.427 1_545 S
C676 H667 0.930 . S
C676 C674 1.378 . S
C676 C677 1.367 . S
C677 C676 1.367 . S
C677 C679 1.433 . S
C678 C674 1.350 . S
C678 C675 1.463 . S
C678 N682 1.427 . S
C679 H669 0.929 . S
C679 C677 1.433 . S
C679 N682 1.384 . S
C680 H671 0.929 . S
C680 C672 1.378 . S
C680 C675 1.350 1_565 S
C681 H668 0.929 . S
C681 C673 1.433 . S
C681 N683 1.384 . S
N682 C678 1.427 . S
N682 C679 1.384 . S
N683 C675 1.427 1_565 S
N683 C681 1.384 . S
H684 C690 0.930 . S
H685 C694 0.930 . S
H686 C699 0.929 . S
H687 C697 0.929 . S
H688 C692 0.929 . S
H689 C698 0.929 . S
C690 H684 0.930 . S
C690 C691 1.367 . S
C690 C698 1.378 . S
C691 C690 1.367 . S
C691 C699 1.433 . S
C692 H688 0.929 . S
C692 C694 1.378 . S
C692 C696 1.350 . S
C693 C696 1.463 . S
C693 C698 1.350 . S
C693 N701 1.427 . S
C694 H685 0.930 . S
C694 C692 1.378 . S
C694 C695 1.367 . S
C695 C694 1.367 . S
C695 C697 1.433 . S
C696 C692 1.350 . S
C696 C693 1.463 . S
C696 N700 1.427 . S
C697 H687 0.929 . S
C697 C695 1.433 . S
C697 N700 1.384 . S
C698 H689 0.929 . S
C698 C690 1.378 . S
C698 C693 1.350 . S
C699 H686 0.929 . S
C699 C691 1.433 . S
C699 N701 1.384 . S
N700 C696 1.427 . S
N700 C697 1.384 . S
N701 C693 1.427 . S
N701 C699 1.384 . S
H702 C708 0.930 . S
H703 C712 0.930 . S
H704 C717 0.929 . S
H705 C715 0.929 . S
H706 C710 0.929 . S
H707 C716 0.929 . S
C708 H702 0.930 . S
C708 C709 1.367 . S
C708 C716 1.378 . S
C709 C708 1.367 . S
C709 C717 1.433 . S
C710 H706 0.929 . S
C710 C712 1.378 . S
C710 C714 1.350 . S
C711 C714 1.463 . S
C711 C716 1.350 . S
C711 N719 1.427 . S
C712 H703 0.930 . S
C712 C710 1.378 . S
C712 C713 1.367 . S
C713 C712 1.367 . S
C713 C715 1.433 . S
C714 C710 1.350 . S
C714 C711 1.463 . S
C714 N718 1.427 . S
C715 H705 0.929 . S
C715 C713 1.433 . S
C715 N718 1.384 . S
C716 H707 0.929 . S
C716 C708 1.378 . S
C716 C711 1.350 . S
C717 H704 0.929 . S
C717 C709 1.433 . S
C717 N719 1.384 . S
N718 C714 1.427 . S
N718 C715 1.384 . S
N719 C711 1.427 . S
N719 C717 1.384 . S
H720 C726 0.930 . S
H721 C730 0.930 . S
H722 C735 0.929 . S
H723 C733 0.929 . S
H724 C728 0.929 . S
H725 C734 0.929 . S
C726 H720 0.930 . S
C726 C727 1.367 . S
C726 C734 1.378 . S
C727 C726 1.367 . S
C727 C735 1.433 . S
C728 H724 0.929 . S
C728 C730 1.378 . S
C728 C732 1.350 . S
C729 C732 1.463 . S
C729 C734 1.350 . S
C729 N737 1.427 . S
C730 H721 0.930 . S
C730 C728 1.378 . S
C730 C731 1.367 . S
C731 C730 1.367 . S
C731 C733 1.433 . S
C732 C728 1.350 . S
C732 C729 1.463 . S
C732 N736 1.427 . S
C733 H723 0.929 . S
C733 C731 1.433 . S
C733 N736 1.384 . S
C734 H725 0.929 . S
C734 C726 1.378 . S
C734 C729 1.350 . S
C735 H722 0.929 . S
C735 C727 1.433 . S
C735 N737 1.384 . S
N736 C732 1.427 . S
N736 C733 1.384 . S
N737 C729 1.427 . S
N737 C735 1.384 . S
H738 C744 0.930 . S
H739 C748 0.930 . S
H740 C753 0.929 . S
H741 C751 0.929 . S
H742 C746 0.929 . S
H743 C752 0.929 . S
C744 H738 0.930 . S
C744 C745 1.367 . S
C744 C752 1.378 . S
C745 C744 1.367 . S
C745 C753 1.433 . S
C746 H742 0.929 . S
C746 C748 1.378 . S
C746 C750 1.350 . S
C747 C750 1.463 . S
C747 C752 1.350 . S
C747 N755 1.427 . S
C748 H739 0.930 . S
C748 C746 1.378 . S
C748 C749 1.367 . S
C749 C748 1.367 . S
C749 C751 1.433 . S
C750 C746 1.350 . S
C750 C747 1.463 . S
C750 N754 1.427 . S
C751 H741 0.929 . S
C751 C749 1.433 . S
C751 N754 1.384 . S
C752 H743 0.929 . S
C752 C744 1.378 . S
C752 C747 1.350 . S
C753 H740 0.929 . S
C753 C745 1.433 . S
C753 N755 1.384 . S
N754 C750 1.427 . S
N754 C751 1.384 . S
N755 C747 1.427 . S
N755 C753 1.384 . S
H756 C762 0.930 . S
H757 C766 0.930 . S
H758 C771 0.929 . S
H759 C769 0.929 . S
H760 C764 0.929 . S
H761 C770 0.929 . S
C762 H756 0.930 . S
C762 C763 1.367 . S
C762 C770 1.378 . S
C763 C762 1.367 . S
C763 C771 1.433 . S
C764 H760 0.929 . S
C764 C766 1.378 . S
C764 C768 1.350 . S
C765 C768 1.463 . S
C765 C770 1.350 . S
C765 N773 1.427 . S
C766 H757 0.930 . S
C766 C764 1.378 . S
C766 C767 1.367 . S
C767 C766 1.367 . S
C767 C769 1.433 . S
C768 C764 1.350 . S
C768 C765 1.463 . S
C768 N772 1.427 . S
C769 H759 0.929 . S
C769 C767 1.433 . S
C769 N772 1.384 . S
C770 H761 0.929 . S
C770 C762 1.378 . S
C770 C765 1.350 . S
C771 H758 0.929 . S
C771 C763 1.433 . S
C771 N773 1.384 . S
N772 C768 1.427 . S
N772 C769 1.384 . S
N773 C765 1.427 . S
N773 C771 1.384 . S
H774 C780 0.930 . S
H775 C784 0.930 . S
H776 C789 0.929 . S
H777 C787 0.929 . S
H778 C782 0.929 . S
H779 C788 0.929 . S
C780 H774 0.930 . S
C780 C781 1.367 . S
C780 C788 1.378 . S
C781 C780 1.367 . S
C781 C789 1.433 . S
C782 H778 0.929 . S
C782 C784 1.378 . S
C782 C786 1.350 . S
C783 C786 1.463 . S
C783 C788 1.350 . S
C783 N791 1.427 . S
C784 H775 0.930 . S
C784 C782 1.378 . S
C784 C785 1.367 . S
C785 C784 1.367 . S
C785 C787 1.433 . S
C786 C782 1.350 . S
C786 C783 1.463 . S
C786 N790 1.427 . S
C787 H777 0.929 . S
C787 C785 1.433 . S
C787 N790 1.384 . S
C788 H779 0.929 . S
C788 C780 1.378 . S
C788 C783 1.350 . S
C789 H776 0.929 . S
C789 C781 1.433 . S
C789 N791 1.384 . S
N790 C786 1.427 . S
N790 C787 1.384 . S
N791 C783 1.427 . S
N791 C789 1.384 . S
H792 C798 0.930 . S
H793 C802 0.930 . S
H794 C807 0.929 . S
H795 C805 0.929 . S
H796 C800 0.929 . S
H797 C806 0.929 . S
C798 H792 0.930 . S
C798 C799 1.367 . S
C798 C806 1.378 . S
C799 C798 1.367 . S
C799 C807 1.433 . S
C800 H796 0.929 . S
C800 C802 1.378 . S
C800 C804 1.350 . S
C801 C804 1.463 . S
C801 C806 1.350 . S
C801 N809 1.427 . S
C802 H793 0.930 . S
C802 C800 1.378 . S
C802 C803 1.367 . S
C803 C802 1.367 . S
C803 C805 1.433 . S
C804 C800 1.350 . S
C804 C801 1.463 . S
C804 N808 1.427 . S
C805 H795 0.929 . S
C805 C803 1.433 . S
C805 N808 1.384 . S
C806 H797 0.929 . S
C806 C798 1.378 . S
C806 C801 1.350 . S
C807 H794 0.929 . S
C807 C799 1.433 . S
C807 N809 1.384 . S
N808 C804 1.427 . S
N808 C805 1.384 . S
N809 C801 1.427 . S
N809 C807 1.384 . S
H810 C816 0.930 . S
H811 C820 0.930 . S
H812 C825 0.929 . S
H813 C823 0.929 . S
H814 C818 0.929 . S
H815 C824 0.929 . S
C816 H810 0.930 . S
C816 C817 1.367 . S
C816 C824 1.378 . S
C817 C816 1.367 . S
C817 C825 1.433 . S
C818 H814 0.929 . S
C818 C820 1.378 . S
C818 C822 1.350 . S
C819 C822 1.463 . S
C819 C824 1.350 . S
C819 N827 1.427 . S
C820 H811 0.930 . S
C820 C818 1.378 . S
C820 C821 1.367 . S
C821 C820 1.367 . S
C821 C823 1.433 . S
C822 C818 1.350 . S
C822 C819 1.463 . S
C822 N826 1.427 . S
C823 H813 0.929 . S
C823 C821 1.433 . S
C823 N826 1.384 . S
C824 H815 0.929 . S
C824 C816 1.378 . S
C824 C819 1.350 . S
C825 H812 0.929 . S
C825 C817 1.433 . S
C825 N827 1.384 . S
N826 C822 1.427 . S
N826 C823 1.384 . S
N827 C819 1.427 . S
N827 C825 1.384 . S
C407 C319 1.510 . S
C403 C16 1.656 . S
C425 C337 1.323 . S
C421 C55 1.412 . S
C439 C99 1.403 . S
C443 C361 1.332 . S
C461 C391 1.335 . S
C457 C138 1.450 . S
C479 C379 1.329 . S
C475 C172 1.410 . S
C493 C216 1.400 . S
C497 C332 1.308 . S
C511 C255 1.648 . S
C515 C352 1.500 . S
C529 C289 1.465 . S
C533 C357 1.344 . S
C547 C294 1.399 . S
C551 C373 1.317 . S
C565 C211 1.469 . S
C569 C328 1.345 . S
C587 C395 1.322 . S
C583 C133 1.409 . S
C605 C340 1.318 . S
C601 C60 1.458 . S
C619 C94 1.646 . S
C623 C358 1.495 . S
C637 C21 1.415 . S
C641 C316 1.341 . S
C659 C336 1.326 . S
C655 C250 1.395 . S
C677 C382 1.506 . S
C673 C177 1.663 . S
C695 C378 1.342 . S
C691 C1 1.507 1_556 S
C713 C331 1.370 . S
C709 C40 1.446 . S
C727 C79 1.483 . S
C731 C353 1.294 . S
C745 C118 1.468 . S
C749 C374 1.375 . S
C767 C315 1.316 . S
C763 C157 1.507 1_554 S
C781 C196 1.490 . S
C785 C349 1.398 . S
C803 C370 1.356 . S
C799 C235 1.528 . S
C821 C394 1.370 . S
C817 C274 1.466 . S
