# Generated by pormake.
# Topology the, (3,8)-cn, num edge types: 1
# Building blocks:
#     Node 0, Type 0, BuildingBlock: BETDAH_clean_linker_0, # of connection points: 3
#     Node 1, Type 0, BuildingBlock: BETDAH_clean_linker_0, # of connection points: 3
#     Node 2, Type 0, BuildingBlock: BETDAH_clean_linker_0, # of connection points: 3
#     Node 3, Type 0, BuildingBlock: BETDAH_clean_linker_0, # of connection points: 3
#     Node 4, Type 0, BuildingBlock: BETDAH_clean_linker_0, # of connection points: 3
#     Node 5, Type 0, BuildingBlock: BETDAH_clean_linker_0, # of connection points: 3
#     Node 6, Type 0, BuildingBlock: BETDAH_clean_linker_0, # of connection points: 3
#     Node 7, Type 0, BuildingBlock: BETDAH_clean_linker_0, # of connection points: 3
#     Node 8, Type 1, BuildingBlock: GIZVER_clean_sbu_0, # of connection points: 8
#     Node 9, Type 1, BuildingBlock: GIZVER_clean_sbu_0, # of connection points: 8
#     Node 10, Type 1, BuildingBlock: GIZVER_clean_sbu_0, # of connection points: 8
#     Edge 11, Type (0, 1), BuildingBlock: XIVTED_clean_linker_0, # of connection points: 2
#     Edge 12, Type (0, 1), BuildingBlock: XIVTED_clean_linker_0, # of connection points: 2
#     Edge 13, Type (0, 1), BuildingBlock: XIVTED_clean_linker_0, # of connection points: 2
#     Edge 14, Type (0, 1), BuildingBlock: XIVTED_clean_linker_0, # of connection points: 2
#     Edge 15, Type (0, 1), BuildingBlock: XIVTED_clean_linker_0, # of connection points: 2
#     Edge 16, Type (0, 1), BuildingBlock: XIVTED_clean_linker_0, # of connection points: 2
#     Edge 17, Type (0, 1), BuildingBlock: XIVTED_clean_linker_0, # of connection points: 2
#     Edge 18, Type (0, 1), BuildingBlock: XIVTED_clean_linker_0, # of connection points: 2
#     Edge 19, Type (0, 1), BuildingBlock: XIVTED_clean_linker_0, # of connection points: 2
#     Edge 20, Type (0, 1), BuildingBlock: XIVTED_clean_linker_0, # of connection points: 2
#     Edge 21, Type (0, 1), BuildingBlock: XIVTED_clean_linker_0, # of connection points: 2
#     Edge 22, Type (0, 1), BuildingBlock: XIVTED_clean_linker_0, # of connection points: 2
#     Edge 23, Type (0, 1), BuildingBlock: XIVTED_clean_linker_0, # of connection points: 2
#     Edge 24, Type (0, 1), BuildingBlock: XIVTED_clean_linker_0, # of connection points: 2
#     Edge 25, Type (0, 1), BuildingBlock: XIVTED_clean_linker_0, # of connection points: 2
#     Edge 26, Type (0, 1), BuildingBlock: XIVTED_clean_linker_0, # of connection points: 2
#     Edge 27, Type (0, 1), BuildingBlock: XIVTED_clean_linker_0, # of connection points: 2
#     Edge 28, Type (0, 1), BuildingBlock: XIVTED_clean_linker_0, # of connection points: 2
#     Edge 29, Type (0, 1), BuildingBlock: XIVTED_clean_linker_0, # of connection points: 2
#     Edge 30, Type (0, 1), BuildingBlock: XIVTED_clean_linker_0, # of connection points: 2
#     Edge 31, Type (0, 1), BuildingBlock: XIVTED_clean_linker_0, # of connection points: 2
#     Edge 32, Type (0, 1), BuildingBlock: XIVTED_clean_linker_0, # of connection points: 2
#     Edge 33, Type (0, 1), BuildingBlock: XIVTED_clean_linker_0, # of connection points: 2
#     Edge 34, Type (0, 1), BuildingBlock: XIVTED_clean_linker_0, # of connection points: 2
# Relax obj value: 0.072
# Max RMSD: 0.196
# Mean RMSD: 0.130
data_MOF--net-the--node1-GIZVER_clean_sbu_0--node2-BETDAH_clean_linker_0--edge1-XIVTED_clean_linker_0
_symmetry_space_group_name_H-M    P1
_symmetry_Int_Tables_number       1
_symmetry_cell_setting            triclinic
loop_
_symmetry_equiv_pos_as_xyz
'x, y, z'
_cell_length_a     41.137537
_cell_length_b     38.583642
_cell_length_c     36.42743
_cell_angle_alpha  86.703955
_cell_angle_beta   95.869823
_cell_angle_gamma 109.79666
loop_
_atom_site_label
_atom_site_type_symbol
_atom_site_fract_x
_atom_site_fract_y
_atom_site_fract_z
_atom_type_partial_charge
H0 H 0.40311 0.31016 0.35239 0.0
H1 H 0.31728 0.24184 0.41115 0.0
H2 H 0.30294 0.32368 0.33329 0.0
C3 C 0.37639 0.30257 0.3587 0.0
C4 C 0.3545 0.31983 0.33904 0.0
C5 C 0.36355 0.27465 0.38542 0.0
C6 C 0.32846 0.26433 0.39206 0.0
C7 C 0.30707 0.28257 0.37433 0.0
C8 C 0.32001 0.31037 0.34783 0.0
N9 N 0.27213 0.27117 0.38264 0.0
C10 C 0.25508 0.29589 0.38685 0.0
H11 H 0.75239 0.27881 0.37016 0.0
H12 H 0.79038 0.34496 0.27476 0.0
H13 H 0.68835 0.26407 0.26688 0.0
C14 C 0.74807 0.28674 0.34155 0.0
C15 C 0.71667 0.26801 0.32098 0.0
C16 C 0.77456 0.31507 0.32558 0.0
C17 C 0.77014 0.32347 0.28781 0.0
C18 C 0.73908 0.30538 0.2668 0.0
C19 C 0.71222 0.27793 0.28341 0.0
N20 N 0.73629 0.31379 0.2285 0.0
C21 C 0.71015 0.32577 0.21119 0.0
H22 H 0.75933 0.64756 0.3192 0.0
H23 H 0.8066 0.74774 0.37964 0.0
H24 H 0.71957 0.73756 0.30051 0.0
C25 C 0.76034 0.67493 0.32572 0.0
C26 C 0.7366 0.68999 0.3062 0.0
C27 C 0.78584 0.69516 0.35265 0.0
C28 C 0.78652 0.73077 0.36034 0.0
C29 C 0.76211 0.74559 0.34257 0.0
C30 C 0.7374 0.72534 0.31528 0.0
N31 N 0.76629 0.78293 0.34866 0.0
C32 C 0.74197 0.79466 0.36349 0.0
H33 H 0.3051 0.74034 0.37154 0.0
H34 H 0.37624 0.76235 0.28783 0.0
H35 H 0.2819 0.67028 0.27709 0.0
C36 C 0.31184 0.73291 0.34585 0.0
C37 C 0.28914 0.70213 0.32644 0.0
C38 C 0.34366 0.75416 0.33268 0.0
C39 C 0.35222 0.74554 0.29885 0.0
C40 C 0.32982 0.71555 0.27885 0.0
C41 C 0.29865 0.69363 0.2928 0.0
N42 N 0.33729 0.70991 0.24304 0.0
C43 C 0.34856 0.68128 0.23509 0.0
H44 H 0.34035 0.74041 0.67341 0.0
H45 H 0.30077 0.66098 0.75963 0.0
H46 H 0.39659 0.74973 0.78115 0.0
C47 C 0.3429 0.73025 0.70154 0.0
C48 C 0.37144 0.74956 0.7258 0.0
C49 C 0.31727 0.69822 0.71331 0.0
C50 C 0.32039 0.68551 0.74992 0.0
C51 C 0.34932 0.70329 0.77401 0.0
C52 C 0.37499 0.73523 0.76193 0.0
N53 N 0.3505 0.68977 0.81097 0.0
C54 C 0.3799 0.68567 0.83046 0.0
H55 H 0.42501 0.29295 0.74121 0.0
H56 H 0.33345 0.31833 0.758 0.0
H57 H 0.32619 0.23342 0.68398 0.0
C58 C 0.39754 0.28798 0.73497 0.0
C59 C 0.37808 0.26086 0.70929 0.0
C60 C 0.38164 0.30839 0.75339 0.0
C61 C 0.34612 0.30278 0.74444 0.0
C62 C 0.32658 0.27634 0.71869 0.0
C63 C 0.34233 0.25499 0.70218 0.0
N64 N 0.29024 0.26814 0.71179 0.0
C65 C 0.27518 0.29303 0.69504 0.0
H66 H 0.79681 0.28425 0.68242 0.0
H67 H 0.83384 0.35736 0.77439 0.0
H68 H 0.73306 0.2749 0.77149 0.0
C69 C 0.79312 0.29392 0.7085 0.0
C70 C 0.76175 0.27645 0.72446 0.0
C71 C 0.81936 0.32378 0.72565 0.0
C72 C 0.81417 0.33476 0.76016 0.0
C73 C 0.78323 0.31731 0.77657 0.0
C74 C 0.75679 0.28861 0.75845 0.0
N75 N 0.78067 0.32628 0.81305 0.0
C76 C 0.75915 0.34514 0.82163 0.0
H77 H 0.79467 0.63544 0.7101 0.0
H78 H 0.80488 0.70357 0.61154 0.0
H79 H 0.7324 0.70573 0.68755 0.0
C80 C 0.78685 0.65534 0.69241 0.0
C81 C 0.76159 0.66904 0.70283 0.0
C82 C 0.80302 0.66832 0.65991 0.0
C83 C 0.79301 0.69401 0.63716 0.0
C84 C 0.76763 0.70743 0.64664 0.0
C85 C 0.75214 0.69541 0.67991 0.0
N86 N 0.75836 0.73249 0.62137 0.0
C87 C 0.73635 0.75151 0.62741 0.0
Co88 Co 0.11165 0.47139 0.53349 0.0
Co89 Co 0.07467 0.46086 0.47043 0.0
Co90 Co 0.04741 0.50926 0.51594 0.0
O91 O 0.06454 0.4667 0.51723 0.0
H92 H 0.04803 0.44417 0.52608 0.0
O93 O 0.0295 0.55154 0.51491 0.0
Co94 Co 0.98103 0.54363 0.50041 0.0
Co95 Co 0.02061 0.55784 0.56263 0.0
H96 H 0.04499 0.57405 0.50475 0.0
O97 O 0.07343 0.41611 0.45651 0.0
O98 O 0.1197 0.46141 0.48243 0.0
O99 O 0.07616 0.49892 0.43327 0.0
O100 O 0.07719 0.53797 0.47602 0.0
O101 O 0.00909 0.48288 0.47844 0.0
O102 O 0.93775 0.54014 0.48525 0.0
O103 O 0.98495 0.59142 0.48812 0.0
O104 O 0.96999 0.49264 0.50934 0.0
O105 O 0.01805 0.48093 0.55629 0.0
O106 O 0.02343 0.52079 0.59988 0.0
O107 O 0.97362 0.55051 0.55194 0.0
O108 O 0.01484 0.60062 0.57651 0.0
C109 C 0.1376 0.43714 0.55669 0.0
C110 C 0.11785 0.54169 0.54739 0.0
C111 C 0.08367 0.53156 0.44402 0.0
C112 C 0.10654 0.42978 0.46597 0.0
C113 C 0.95186 0.57524 0.47871 0.0
C114 C 0.97752 0.47505 0.48498 0.0
C115 C 0.01431 0.48791 0.58916 0.0
C116 C 0.98237 0.58206 0.56794 0.0
O117 O 0.1539 0.47187 0.55008 0.0
O118 O 0.1043 0.42341 0.54702 0.0
O119 O 0.08615 0.5353 0.55296 0.0
O120 O 0.12554 0.52294 0.52406 0.0
Co121 Co 0.57943 0.94931 0.51054 0.0
Co122 Co 0.59919 0.98108 0.57434 0.0
Co123 Co 0.54641 0.01542 0.53342 0.0
O124 O 0.58612 0.9976 0.52814 0.0
H125 H 0.60561 0.01646 0.51832 0.0
O126 O 0.50708 0.03393 0.53861 0.0
Co127 Co 0.51569 0.08297 0.55597 0.0
Co128 Co 0.49373 0.05069 0.49256 0.0
H129 H 0.48761 0.01556 0.54899 0.0
O130 O 0.64204 0.9761 0.58579 0.0
O131 O 0.59337 0.93364 0.56087 0.0
O132 O 0.5695 0.97562 0.61344 0.0
O133 O 0.52585 0.97786 0.57339 0.0
O134 O 0.57686 0.0507 0.57123 0.0
O135 O 0.51994 0.12634 0.57385 0.0
O136 O 0.47224 0.07569 0.56942 0.0
O137 O 0.56242 0.09713 0.54594 0.0
O138 O 0.56652 0.05295 0.49331 0.0
O139 O 0.52238 0.05295 0.45276 0.0
O140 O 0.50306 0.09926 0.50555 0.0
O141 O 0.4519 0.05954 0.48257 0.0
C142 C 0.60904 0.92399 0.48693 0.0
C143 C 0.51192 0.94519 0.49866 0.0
C144 C 0.53728 0.96815 0.60486 0.0
C145 C 0.62505 0.94241 0.57619 0.0
C146 C 0.48778 0.10957 0.58018 0.0
C147 C 0.58232 0.08525 0.56815 0.0
C148 C 0.55472 0.0612 0.46136 0.0
C149 C 0.47139 0.09278 0.4912 0.0
O150 O 0.57692 0.90623 0.49292 0.0
O151 O 0.62305 0.95831 0.49688 0.0
O152 O 0.5162 0.97961 0.49587 0.0
O153 O 0.53249 0.93384 0.52063 0.0
Co154 Co 0.50691 0.52201 0.09614 0.0
Co155 Co 0.48869 0.45725 0.06809 0.0
Co156 Co 0.55074 0.51469 0.02445 0.0
O157 O 0.50646 0.50451 0.04806 0.0
H158 H 0.48884 0.5094 0.03102 0.0
O159 O 0.59533 0.52505 1.00094 0.0
Co160 Co 0.59461 0.50404 0.95453 0.0
Co161 Co 0.61166 0.5703 0.9766 0.0
H162 H 0.61339 0.52182 0.01852 0.0
O163 O 0.4425 0.4354 0.08007 0.0
O164 O 0.48759 0.47127 0.11574 0.0
O165 O 0.51968 0.42932 0.0717 0.0
O166 O 0.56571 0.47586 0.05486 0.0
O167 O 0.52348 0.47664 0.98637 0.0
O168 O 0.5972 0.48279 0.91332 0.0
O169 O 0.63612 0.4974 0.96299 0.0
O170 O 0.55102 0.50791 0.9402 0.0
O171 O 0.5356 0.55346 0.9941 0.0
O172 O 0.57942 0.5965 0.96876 0.0
O173 O 0.61542 0.5531 0.93125 0.0
O174 O 0.65796 0.5932 0.96667 0.0
C175 C 0.47393 0.53986 0.12256 0.0
C176 C 0.57719 0.54501 0.09743 0.0
C177 C 0.55208 0.44352 0.06897 0.0
C178 C 0.45562 0.44952 0.11197 0.0
C179 C 0.62635 0.48239 0.93068 0.0
C180 C 0.52535 0.48235 0.95161 0.0
C181 C 0.54786 0.58368 0.97562 0.0
C182 C 0.64683 0.57633 0.93567 0.0
O183 O 0.50341 0.53961 0.13924 0.0
O184 O 0.46468 0.52708 0.08928 0.0
O185 O 0.5779 0.55239 0.06278 0.0
O186 O 0.55149 0.51965 0.10921 0.0
H187 H 0.27829 0.35685 0.42808 0.0
H188 H 0.08736 0.36704 0.42667 0.0
H189 H 0.1882 0.28573 0.36559 0.0
H190 H 0.17742 0.44819 0.47993 0.0
H191 H 0.12456 0.33657 0.40563 0.0
H192 H 0.24276 0.39128 0.4478 0.0
C193 C 0.25108 0.34896 0.41818 0.0
C194 C 0.23586 0.31886 0.39516 0.0
C195 C 0.13632 0.36105 0.42187 0.0
C196 C 0.19527 0.35716 0.4178 0.0
C197 C 0.11502 0.37846 0.43409 0.0
C198 C 0.12929 0.41038 0.45501 0.0
C199 C 0.17228 0.37542 0.43069 0.0
C200 C 0.16535 0.42373 0.46374 0.0
C201 C 0.23085 0.36839 0.42949 0.0
C202 C 0.20068 0.30907 0.38323 0.0
N203 N 0.18568 0.40615 0.45151 0.0
N204 N 0.18147 0.32811 0.39483 0.0
H205 H 0.69862 0.26455 0.39193 0.0
H206 H 0.54476 0.07518 0.38677 0.0
H207 H 0.67209 0.20229 0.29184 0.0
H208 H 0.61946 0.10858 0.48136 0.0
H209 H 0.58293 0.1252 0.34995 0.0
H210 H 0.65995 0.21202 0.42396 0.0
C211 C 0.6848 0.23986 0.37658 0.0
C212 C 0.68947 0.23773 0.33918 0.0
C213 C 0.59094 0.12114 0.37867 0.0
C214 C 0.64411 0.17771 0.37581 0.0
C215 C 0.5693 0.09268 0.39966 0.0
C216 C 0.57896 0.08762 0.4372 0.0
C217 C 0.62185 0.14519 0.3957 0.0
C218 C 0.61099 0.11121 0.45252 0.0
C219 C 0.66261 0.20993 0.39496 0.0
C220 C 0.66945 0.20533 0.32062 0.0
N221 N 0.63099 0.13926 0.43188 0.0
N222 N 0.64762 0.1765 0.33915 0.0
H223 H 0.81846 0.7072 0.42367 0.0
H224 H 0.90068 0.54979 0.42438 0.0
H225 H 0.81473 0.6478 0.32538 0.0
H226 H 0.95234 0.64588 0.48981 0.0
H227 H 0.86216 0.58074 0.39351 0.0
H228 H 0.86153 0.68138 0.45364 0.0
C229 C 0.82667 0.68904 0.40813 0.0
C230 C 0.81234 0.67969 0.37169 0.0
C231 C 0.882 0.59518 0.41447 0.0
C232 C 0.86115 0.64923 0.40665 0.0
C233 C 0.90393 0.57752 0.43221 0.0
C234 C 0.92987 0.59541 0.45953 0.0
C235 C 0.88526 0.63076 0.42469 0.0
C236 C 0.9329 0.63133 0.46858 0.0
C237 C 0.85124 0.67423 0.42546 0.0
C238 C 0.82391 0.65527 0.35367 0.0
N239 N 0.91053 0.64776 0.45148 0.0
N240 N 0.84723 0.64069 0.37141 0.0
H241 H 0.41177 0.76465 0.35289 0.0
H242 H 0.45651 0.95448 0.45459 0.0
H243 H 0.33211 0.81184 0.36361 0.0
H244 H 0.50696 0.87441 0.48664 0.0
H245 H 0.41472 0.9091 0.41275 0.0
H246 H 0.45216 0.81234 0.39272 0.0
C247 C 0.40293 0.78533 0.36336 0.0
C248 C 0.3686 0.78434 0.35506 0.0
C249 C 0.435 0.90169 0.42909 0.0
C250 C 0.41463 0.83899 0.40048 0.0
C251 C 0.45884 0.9275 0.45287 0.0
C252 C 0.48541 0.91835 0.47411 0.0
C253 C 0.43835 0.86694 0.42602 0.0
C254 C 0.4871 0.8829 0.47081 0.0
C255 C 0.42587 0.81234 0.38624 0.0
C256 C 0.35835 0.8116 0.36962 0.0
N257 N 0.46417 0.85871 0.44703 0.0
N258 N 0.38134 0.83801 0.39154 0.0
H259 H 0.31835 0.68084 0.64171 0.0
H260 H 0.11337 0.57569 0.61002 0.0
H261 H 0.24833 0.66921 0.72565 0.0
H262 H 0.18692 0.56864 0.53678 0.0
H263 H 0.16141 0.61622 0.64951 0.0
H264 H 0.26935 0.64594 0.59979 0.0
C265 C 0.29261 0.67119 0.65123 0.0
C266 C 0.28746 0.67788 0.68729 0.0
C267 C 0.16697 0.6059 0.6247 0.0
C268 C 0.23118 0.63769 0.63945 0.0
C269 C 0.13955 0.58289 0.60205 0.0
C270 C 0.14612 0.56853 0.57013 0.0
C271 C 0.20118 0.61487 0.61521 0.0
C272 C 0.18061 0.57881 0.56125 0.0
C273 C 0.26466 0.65108 0.62735 0.0
C274 C 0.25355 0.66431 0.69824 0.0
N275 N 0.20679 0.60126 0.58367 0.0
N276 N 0.22671 0.64488 0.67443 0.0
H277 H 0.43354 0.23818 0.73558 0.0
H278 H 0.41854 0.10329 0.57253 0.0
H279 H 0.36035 0.23061 0.63979 0.0
H280 H 0.51638 0.1617 0.63191 0.0
H281 H 0.39116 0.13988 0.60388 0.0
H282 H 0.45933 0.20085 0.70442 0.0
C283 C 0.42289 0.22908 0.70801 0.0
C284 C 0.39451 0.23802 0.69056 0.0
C285 C 0.4186 0.14448 0.61003 0.0
C286 C 0.42344 0.1937 0.65526 0.0
C287 C 0.43413 0.12352 0.59235 0.0
C288 C 0.46977 0.12955 0.59959 0.0
C289 C 0.4387 0.17082 0.63582 0.0
C290 C 0.48887 0.1563 0.62535 0.0
C291 C 0.43755 0.20739 0.69037 0.0
C292 C 0.3816 0.22408 0.65501 0.0
N293 N 0.47309 0.17569 0.64272 0.0
N294 N 0.39596 0.2025 0.63872 0.0
H295 H 0.88608 0.35782 0.75748 0.0
H296 H 0.96898 0.42135 0.56612 0.0
H297 H 0.82665 0.33652 0.65123 0.0
H298 H 0.00679 0.48707 0.66344 0.0
H299 H 0.92408 0.3777 0.60073 0.0
H300 H 0.93706 0.39441 0.72623 0.0
C301 C 0.88353 0.36069 0.7277 0.0
C302 C 0.85156 0.34401 0.70716 0.0
C303 C 0.94255 0.40142 0.6146 0.0
C304 C 0.91043 0.38481 0.67134 0.0
C305 C 0.96841 0.42623 0.595 0.0
C306 C 0.99161 0.45814 0.61184 0.0
C307 C 0.94014 0.40816 0.65147 0.0
C308 C 0.98931 0.46299 0.64931 0.0
C309 C 0.91282 0.38137 0.70995 0.0
C310 C 0.85057 0.34808 0.66846 0.0
N311 N 0.96389 0.43832 0.66789 0.0
N312 N 0.8795 0.36796 0.65189 0.0
H313 H 0.67157 0.73916 0.59551 0.0
H314 H 0.68773 0.94981 0.61413 0.0
H315 H 0.75677 0.81865 0.65657 0.0
H316 H 0.59819 0.86915 0.55953 0.0
H317 H 0.71243 0.90146 0.63139 0.0
H318 H 0.64231 0.78519 0.58493 0.0
C319 C 0.68361 0.76614 0.60739 0.0
C320 C 0.71621 0.77542 0.62716 0.0
C321 C 0.68735 0.89427 0.61569 0.0
C322 C 0.68382 0.82819 0.61447 0.0
C323 C 0.67328 0.92194 0.60563 0.0
C324 C 0.64084 0.91354 0.5853 0.0
C325 C 0.66896 0.85791 0.6052 0.0
C326 C 0.62329 0.87688 0.5752 0.0
C327 C 0.66714 0.79244 0.60114 0.0
C328 C 0.73136 0.81065 0.64148 0.0
N329 N 0.63762 0.8504 0.5852 0.0
N330 N 0.71512 0.83596 0.63462 0.0
H331 H 0.41621 0.25616 0.35946 0.0
H332 H 0.40678 0.09505 0.49762 0.0
H333 H 0.36147 0.24699 0.45674 0.0
H334 H 0.50691 0.15995 0.4625 0.0
H335 H 0.38473 0.1452 0.47637 0.0
H336 H 0.44676 0.21666 0.39043 0.0
C337 C 0.41092 0.24649 0.38743 0.0
C338 C 0.38562 0.25456 0.40515 0.0
C339 C 0.41162 0.1485 0.47375 0.0
C340 C 0.41967 0.2084 0.43992 0.0
C341 C 0.42409 0.11999 0.48566 0.0
C342 C 0.45858 0.12362 0.4817 0.0
C343 C 0.43352 0.18008 0.45663 0.0
C344 C 0.48015 0.15638 0.46612 0.0
C345 C 0.42828 0.22378 0.40494 0.0
C346 C 0.37976 0.24057 0.44135 0.0
N347 N 0.46707 0.1832 0.45338 0.0
N348 N 0.39608 0.21753 0.45722 0.0
H349 H 0.84302 0.33987 0.30944 0.0
H350 H 0.91017 0.445 0.50021 0.0
H351 H 0.77776 0.33974 0.39504 0.0
H352 H 0.97959 0.44323 0.41967 0.0
H353 H 0.86199 0.40437 0.4621 0.0
H354 H 0.89374 0.37638 0.34888 0.0
C355 C 0.83933 0.3475 0.33646 0.0
C356 C 0.80603 0.33657 0.34896 0.0
C357 C 0.88771 0.41264 0.45268 0.0
C358 C 0.86389 0.37809 0.39422 0.0
C359 C 0.91534 0.43591 0.4745 0.0
C360 C 0.94899 0.44778 0.46301 0.0
C361 C 0.8935 0.40113 0.4188 0.0
C362 C 0.95404 0.43477 0.42955 0.0
C363 C 0.86831 0.36814 0.35902 0.0
C364 C 0.8029 0.34697 0.38438 0.0
N365 N 0.92651 0.41233 0.40843 0.0
N366 N 0.83135 0.36714 0.40561 0.0
H367 H 0.76386 0.86583 0.38179 0.0
H368 H 0.58754 0.85172 0.46749 0.0
H369 H 0.67617 0.76574 0.38494 0.0
H370 H 0.67616 0.95152 0.46666 0.0
H371 H 0.6195 0.81998 0.43761 0.0
H372 H 0.73216 0.89774 0.41256 0.0
C373 C 0.73778 0.85066 0.38892 0.0
C374 C 0.72243 0.81327 0.38081 0.0
C375 C 0.63203 0.84881 0.44394 0.0
C376 C 0.68599 0.84941 0.41616 0.0
C377 C 0.61377 0.86706 0.46106 0.0
C378 C 0.62907 0.90455 0.46955 0.0
C379 C 0.666 0.86802 0.43503 0.0
C380 C 0.66324 0.92271 0.46061 0.0
C381 C 0.71973 0.86884 0.40654 0.0
C382 C 0.68877 0.79469 0.39068 0.0
N383 N 0.68048 0.90432 0.44378 0.0
N384 N 0.67164 0.81296 0.40784 0.0
H385 H 0.2261 0.66486 0.2884 0.0
H386 H 0.12599 0.59852 0.46942 0.0
H387 H 0.27572 0.68603 0.39923 0.0
H388 H 0.09732 0.53321 0.3714 0.0
H389 H 0.17379 0.64263 0.43894 0.0
H390 H 0.17259 0.62637 0.31437 0.0
C391 C 0.22599 0.6615 0.31809 0.0
C392 C 0.25587 0.679 0.34151 0.0
C393 C 0.1567 0.6189 0.42396 0.0
C394 C 0.1941 0.63601 0.37121 0.0
C395 C 0.12915 0.59385 0.44117 0.0
C396 C 0.10767 0.56189 0.42303 0.0
C397 C 0.16257 0.61235 0.38815 0.0
C398 C 0.11336 0.55733 0.38649 0.0
C399 C 0.19526 0.63975 0.33281 0.0
C400 C 0.25346 0.67404 0.37985 0.0
N401 N 0.1404 0.58221 0.37025 0.0
N402 N 0.22317 0.65321 0.39341 0.0
H403 H 0.44272 0.77571 0.7394 0.0
H404 H 0.46625 0.94688 0.59806 0.0
H405 H 0.35743 0.80491 0.68391 0.0
H406 H 0.55172 0.92839 0.66555 0.0
H407 H 0.42597 0.8967 0.63166 0.0
H408 H 0.48315 0.83289 0.71508 0.0
C409 C 0.43245 0.79424 0.7224 0.0
C410 C 0.39659 0.78512 0.71328 0.0
C411 C 0.45352 0.90387 0.63943 0.0
C412 C 0.44273 0.8505 0.6851 0.0
C413 C 0.47657 0.93265 0.62028 0.0
C414 C 0.51251 0.94184 0.62877 0.0
C415 C 0.46641 0.88378 0.66709 0.0
C416 C 0.52427 0.92233 0.65794 0.0
C417 C 0.45556 0.82684 0.70842 0.0
C418 C 0.38486 0.81022 0.69095 0.0
N419 N 0.50133 0.89398 0.67572 0.0
N420 N 0.40781 0.8415 0.67746 0.0
H421 H 0.30008 0.36389 0.66982 0.0
H422 H 0.11314 0.3642 0.57981 0.0
H423 H 0.20648 0.27046 0.67546 0.0
H424 H 0.20727 0.4578 0.57632 0.0
H425 H 0.1467 0.32872 0.61348 0.0
H426 H 0.26641 0.3986 0.63471 0.0
C427 C 0.27237 0.35086 0.66373 0.0
C428 C 0.25582 0.31455 0.67552 0.0
C429 C 0.15999 0.35702 0.60525 0.0
C430 C 0.21716 0.3536 0.63531 0.0
C431 C 0.14082 0.37725 0.58593 0.0
C432 C 0.1573 0.41412 0.5753 0.0
C433 C 0.1959 0.37375 0.61398 0.0
C434 C 0.19332 0.42954 0.58403 0.0
C435 C 0.25315 0.37053 0.64366 0.0
C436 C 0.22 0.29859 0.66688 0.0
N437 N 0.2113 0.40938 0.60286 0.0
N438 N 0.20182 0.31819 0.64728 0.0
H439 H 0.69363 0.26939 0.70757 0.0
H440 H 0.63707 0.07428 0.61181 0.0
H441 H 0.76747 0.21436 0.69692 0.0
H442 H 0.58948 0.15677 0.57989 0.0
H443 H 0.68064 0.11925 0.65252 0.0
H444 H 0.64961 0.22122 0.67098 0.0
C445 C 0.7004 0.2469 0.69789 0.0
C446 C 0.73419 0.24587 0.70506 0.0
C447 C 0.66053 0.12727 0.63655 0.0
C448 C 0.68411 0.19076 0.66343 0.0
C449 C 0.6357 0.1017 0.61339 0.0
C450 C 0.6095 0.11169 0.59242 0.0
C451 C 0.65861 0.16271 0.63928 0.0
C452 C 0.60905 0.14767 0.59552 0.0
C453 C 0.67541 0.21961 0.67685 0.0
C454 C 0.74173 0.21625 0.69167 0.0
N455 N 0.633 0.1717 0.61866 0.0
N456 N 0.71686 0.18976 0.67154 0.0
H457 H 0.86733 0.71063 0.64256 0.0
H458 H 0.91291 0.54409 0.56808 0.0
H459 H 0.80082 0.5975 0.65215 0.0
H460 H 0.99023 0.64961 0.59422 0.0
H461 H 0.86927 0.56472 0.59193 0.0
H462 H 0.91111 0.68993 0.61911 0.0
C463 C 0.86215 0.68138 0.6399 0.0
C464 C 0.83061 0.65563 0.6492 0.0
C465 C 0.89581 0.58329 0.59243 0.0
C466 C 0.88013 0.63184 0.62205 0.0
C467 C 0.92068 0.57167 0.57861 0.0
C468 C 0.95529 0.59512 0.57942 0.0
C469 C 0.90559 0.61873 0.60669 0.0
C470 C 0.96388 0.63056 0.59331 0.0
C471 C 0.88706 0.6696 0.62657 0.0
C472 C 0.82501 0.61808 0.64545 0.0
N473 N 0.93917 0.64131 0.60639 0.0
N474 N 0.84949 0.60724 0.6318 0.0
H475 H 0.41662 0.37611 0.33497 0.0
H476 H 0.38967 0.40033 0.1165 0.0
H477 H 0.32061 0.32087 0.27064 0.0
H478 H 0.47812 0.46933 0.18344 0.0
H479 H 0.36224 0.37367 0.17282 0.0
H480 H 0.43842 0.41296 0.28015 0.0
C481 C 0.40005 0.37196 0.30937 0.0
C482 C 0.36683 0.34527 0.30734 0.0
C483 C 0.38749 0.39495 0.17516 0.0
C484 C 0.39159 0.38718 0.24442 0.0
C485 C 0.40316 0.4102 0.14298 0.0
C486 C 0.43647 0.43673 0.14521 0.0
C487 C 0.40539 0.40608 0.2098 0.0
C488 C 0.45259 0.44863 0.18033 0.0
C489 C 0.41242 0.39309 0.27812 0.0
C490 C 0.34629 0.34132 0.27355 0.0
N491 N 0.4371 0.43291 0.2112 0.0
N492 N 0.35913 0.36172 0.24335 0.0
H493 H 0.44969 0.70919 0.82531 0.0
H494 H 0.47839 0.56649 0.98377 0.0
H495 H 0.36844 0.63793 0.8879 0.0
H496 H 0.56208 0.6437 0.92791 0.0
H497 H 0.43829 0.59424 0.95067 0.0
H498 H 0.49199 0.68738 0.86391 0.0
C499 C 0.44094 0.68917 0.84741 0.0
C500 C 0.40583 0.67523 0.85372 0.0
C501 C 0.46547 0.6053 0.94583 0.0
C502 C 0.45349 0.65001 0.89759 0.0
C503 C 0.48845 0.58947 0.96482 0.0
C504 C 0.52375 0.60258 0.9586 0.0
C505 C 0.47772 0.63437 0.92018 0.0
C506 C 0.53513 0.63254 0.93365 0.0
C507 C 0.46495 0.6767 0.86939 0.0
C508 C 0.39546 0.64926 0.88239 0.0
N509 N 0.51218 0.6472 0.9152 0.0
N510 N 0.41914 0.63735 0.90319 0.0
H511 H 0.4463 0.36056 0.75142 0.0
H512 H 0.46637 0.4215 0.96166 0.0
H513 H 0.36337 0.31595 0.82235 0.0
H514 H 0.52964 0.48476 0.8773 0.0
H515 H 0.43007 0.37907 0.91376 0.0
H516 H 0.47967 0.40248 0.80016 0.0
C517 C 0.43513 0.35953 0.77729 0.0
C518 C 0.40192 0.33473 0.78268 0.0
C519 C 0.45187 0.4024 0.90592 0.0
C520 C 0.44015 0.38275 0.83898 0.0
C521 C 0.47258 0.42661 0.93324 0.0
C522 C 0.50126 0.45682 0.92373 0.0
C523 C 0.46022 0.40821 0.86899 0.0
C524 C 0.50798 0.46194 0.88629 0.0
C525 C 0.45412 0.38362 0.80511 0.0
C526 C 0.38871 0.3349 0.81683 0.0
N527 N 0.48789 0.4379 0.86058 0.0
N528 N 0.4079 0.35834 0.84374 0.0
H529 H 0.69974 0.35479 0.79056 0.0
H530 H 0.68859 0.47546 0.95846 0.0
H531 H 0.77593 0.38334 0.88405 0.0
H532 H 0.61317 0.44916 0.86378 0.0
H533 H 0.72186 0.44348 0.93073 0.0
H534 H 0.66815 0.39053 0.81602 0.0
C535 C 0.70974 0.36871 0.81642 0.0
C536 C 0.74023 0.36631 0.83543 0.0
C537 C 0.69808 0.4448 0.91595 0.0
C538 C 0.70461 0.40698 0.86471 0.0
C539 C 0.67908 0.46312 0.93179 0.0
C540 C 0.64792 0.46487 0.91356 0.0
C541 C 0.68583 0.42802 0.88164 0.0
C542 C 0.63696 0.4484 0.87897 0.0
C543 C 0.69182 0.38908 0.83095 0.0
C544 C 0.75236 0.38467 0.86874 0.0
N545 N 0.65578 0.43058 0.86424 0.0
N546 N 0.7345 0.40419 0.88239 0.0
H547 H 0.75495 0.7098 0.75888 0.0
H548 H 0.63876 0.53898 0.87202 0.0
H549 H 0.7318 0.59778 0.72603 0.0
H550 H 0.7004 0.64063 0.92471 0.0
H551 H 0.66817 0.56113 0.81607 0.0
H552 H 0.72969 0.68653 0.81746 0.0
C553 C 0.74434 0.68034 0.76397 0.0
C554 C 0.74536 0.65561 0.73771 0.0
C555 C 0.6755 0.57843 0.84001 0.0
C556 C 0.71654 0.62893 0.80424 0.0
C557 C 0.65878 0.56577 0.87203 0.0
C558 C 0.66722 0.5879 0.90322 0.0
C559 C 0.70029 0.61385 0.83878 0.0
C560 C 0.69322 0.62256 0.9014 0.0
C561 C 0.73026 0.66711 0.79743 0.0
C562 C 0.73162 0.6177 0.7457 0.0
N563 N 0.70855 0.6347 0.86952 0.0
N564 N 0.71753 0.6055 0.77814 0.0
H565 H 0.69749 0.61661 0.30492 0.0
H566 H 0.62388 0.61621 0.09153 0.0
H567 H 0.72087 0.71558 0.23666 0.0
H568 H 0.59176 0.52369 0.16772 0.0
H569 H 0.66309 0.65255 0.14188 0.0
H570 H 0.66145 0.58183 0.25298 0.0
C571 C 0.69502 0.63108 0.27897 0.0
C572 C 0.71234 0.66915 0.27529 0.0
C573 C 0.64754 0.62421 0.1474 0.0
C574 C 0.67086 0.62922 0.21514 0.0
C575 C 0.62539 0.60339 0.1186 0.0
C576 C 0.60434 0.56685 0.12536 0.0
C577 C 0.64884 0.60821 0.18305 0.0
C578 C 0.60721 0.5518 0.16114 0.0
C579 C 0.67434 0.61117 0.24923 0.0
C580 C 0.70774 0.68636 0.24094 0.0
N581 N 0.62884 0.57245 0.18843 0.0
N582 N 0.6876 0.66628 0.21218 0.0
H583 H 0.40206 0.66229 0.26855 0.0
H584 H 0.4116 0.54726 0.09582 0.0
H585 H 0.3279 0.64175 0.17308 0.0
H586 H 0.48537 0.56762 0.19202 0.0
H587 H 0.37778 0.57714 0.12571 0.0
H588 H 0.43012 0.62306 0.2433 0.0
C589 C 0.39145 0.64896 0.24251 0.0
C590 C 0.36269 0.65485 0.22282 0.0
C591 C 0.40125 0.57485 0.14037 0.0
C592 C 0.39472 0.61062 0.19342 0.0
C593 C 0.42057 0.55775 0.12332 0.0
C594 C 0.45156 0.55516 0.14127 0.0
C595 C 0.41299 0.58958 0.17564 0.0
C596 C 0.46179 0.56917 0.17696 0.0
C597 C 0.40748 0.62673 0.228 0.0
C598 C 0.35 0.63752 0.18906 0.0
N599 N 0.44271 0.58595 0.19283 0.0
N600 N 0.36621 0.61632 0.17527 0.0
H601 H 0.72882 0.38993 0.17302 0.0
H602 H 0.53343 0.37519 0.10334 0.0
H603 H 0.63968 0.29848 0.2012 0.0
H604 H 0.62337 0.46638 0.07529 0.0
H605 H 0.57164 0.34552 0.13713 0.0
H606 H 0.69046 0.41758 0.13578 0.0
C607 C 0.70104 0.3758 0.17133 0.0
C608 C 0.68715 0.34213 0.19009 0.0
C609 C 0.58303 0.37192 0.12342 0.0
C610 C 0.64311 0.37326 0.14755 0.0
C611 C 0.56121 0.3889 0.10396 0.0
C612 C 0.5751 0.42352 0.08642 0.0
C613 C 0.61911 0.3896 0.12553 0.0
C614 C 0.61137 0.43977 0.08832 0.0
C615 C 0.67916 0.39148 0.15005 0.0
C616 C 0.65117 0.32463 0.1871 0.0
N617 N 0.63205 0.42278 0.10766 0.0
N618 N 0.63029 0.34044 0.1662 0.0
loop_
_geom_bond_atom_site_label_1
_geom_bond_atom_site_label_2
_geom_bond_distance
_geom_bond_site_symmetry_2
_ccdc_geom_bond_type
H0 C3 0.929 . S
H1 C6 0.929 . S
H2 C8 0.930 . S
C3 H0 0.929 . S
C3 C4 1.398 . S
C3 C5 1.396 . S
C4 C3 1.398 . S
C4 C8 1.407 . S
C5 C3 1.396 . S
C5 C6 1.394 . S
C6 H1 0.929 . S
C6 C5 1.394 . S
C6 C7 1.382 . S
C7 C6 1.382 . S
C7 C8 1.392 . S
C7 N9 1.420 . S
C8 H2 0.930 . S
C8 C4 1.407 . S
C8 C7 1.392 . S
N9 C7 1.420 . S
N9 C10 1.244 . S
C10 N9 1.244 . S
H11 C14 0.929 . S
H12 C17 0.929 . S
H13 C19 0.930 . S
C14 H11 0.929 . S
C14 C15 1.398 . S
C14 C16 1.396 . S
C15 C14 1.398 . S
C15 C19 1.407 . S
C16 C14 1.396 . S
C16 C17 1.394 . S
C17 H12 0.929 . S
C17 C16 1.394 . S
C17 C18 1.382 . S
C18 C17 1.382 . S
C18 C19 1.392 . S
C18 N20 1.420 . S
C19 H13 0.930 . S
C19 C15 1.407 . S
C19 C18 1.392 . S
N20 C18 1.420 . S
N20 C21 1.244 . S
C21 N20 1.244 . S
H22 C25 0.929 . S
H23 C28 0.929 . S
H24 C30 0.930 . S
C25 H22 0.929 . S
C25 C26 1.398 . S
C25 C27 1.396 . S
C26 C25 1.398 . S
C26 C30 1.407 . S
C27 C25 1.396 . S
C27 C28 1.394 . S
C28 H23 0.929 . S
C28 C27 1.394 . S
C28 C29 1.382 . S
C29 C28 1.382 . S
C29 C30 1.392 . S
C29 N31 1.420 . S
C30 H24 0.930 . S
C30 C26 1.407 . S
C30 C29 1.392 . S
N31 C29 1.420 . S
N31 C32 1.244 . S
C32 N31 1.244 . S
H33 C36 0.929 . S
H34 C39 0.929 . S
H35 C41 0.930 . S
C36 H33 0.929 . S
C36 C37 1.398 . S
C36 C38 1.396 . S
C37 C36 1.398 . S
C37 C41 1.407 . S
C38 C36 1.396 . S
C38 C39 1.394 . S
C39 H34 0.929 . S
C39 C38 1.394 . S
C39 C40 1.382 . S
C40 C39 1.382 . S
C40 C41 1.392 . S
C40 N42 1.420 . S
C41 H35 0.930 . S
C41 C37 1.407 . S
C41 C40 1.392 . S
N42 C40 1.420 . S
N42 C43 1.244 . S
C43 N42 1.244 . S
H44 C47 0.929 . S
H45 C50 0.929 . S
H46 C52 0.930 . S
C47 H44 0.929 . S
C47 C48 1.398 . S
C47 C49 1.396 . S
C48 C47 1.398 . S
C48 C52 1.407 . S
C49 C47 1.396 . S
C49 C50 1.394 . S
C50 H45 0.929 . S
C50 C49 1.394 . S
C50 C51 1.382 . S
C51 C50 1.382 . S
C51 C52 1.392 . S
C51 N53 1.420 . S
C52 H46 0.930 . S
C52 C48 1.407 . S
C52 C51 1.392 . S
N53 C51 1.420 . S
N53 C54 1.244 . S
C54 N53 1.244 . S
H55 C58 0.929 . S
H56 C61 0.929 . S
H57 C63 0.930 . S
C58 H55 0.929 . S
C58 C59 1.398 . S
C58 C60 1.396 . S
C59 C58 1.398 . S
C59 C63 1.407 . S
C60 C58 1.396 . S
C60 C61 1.394 . S
C61 H56 0.929 . S
C61 C60 1.394 . S
C61 C62 1.382 . S
C62 C61 1.382 . S
C62 C63 1.392 . S
C62 N64 1.420 . S
C63 H57 0.930 . S
C63 C59 1.407 . S
C63 C62 1.392 . S
N64 C62 1.420 . S
N64 C65 1.244 . S
C65 N64 1.244 . S
H66 C69 0.929 . S
H67 C72 0.929 . S
H68 C74 0.930 . S
C69 H66 0.929 . S
C69 C70 1.398 . S
C69 C71 1.396 . S
C70 C69 1.398 . S
C70 C74 1.407 . S
C71 C69 1.396 . S
C71 C72 1.394 . S
C72 H67 0.929 . S
C72 C71 1.394 . S
C72 C73 1.382 . S
C73 C72 1.382 . S
C73 C74 1.392 . S
C73 N75 1.420 . S
C74 H68 0.930 . S
C74 C70 1.407 . S
C74 C73 1.392 . S
N75 C73 1.420 . S
N75 C76 1.244 . S
C76 N75 1.244 . S
H77 C80 0.929 . S
H78 C83 0.929 . S
H79 C85 0.930 . S
C80 H77 0.929 . S
C80 C81 1.398 . S
C80 C82 1.396 . S
C81 C80 1.398 . S
C81 C85 1.407 . S
C82 C80 1.396 . S
C82 C83 1.394 . S
C83 H78 0.929 . S
C83 C82 1.394 . S
C83 C84 1.382 . S
C84 C83 1.382 . S
C84 C85 1.392 . S
C84 N86 1.420 . S
C85 H79 0.930 . S
C85 C81 1.407 . S
C85 C84 1.392 . S
N86 C84 1.420 . S
N86 C87 1.244 . S
C87 N86 1.244 . S
Co88 O91 2.042 . S
Co88 O98 2.264 . S
Co88 O117 2.286 . S
Co88 O118 2.069 . S
Co88 O120 2.015 . S
Co89 O91 2.122 . S
Co89 O97 2.073 . S
Co89 O98 2.327 . S
Co89 O99 1.976 . S
Co90 O91 2.087 . S
Co90 O93 2.087 . S
Co90 O100 2.111 . S
Co90 O101 2.143 1_455 S
Co90 O105 2.120 . S
Co90 O119 2.143 . S
O91 Co88 2.042 . S
O91 Co89 2.122 . S
O91 Co90 2.087 . S
O91 H92 0.980 . S
H92 O91 0.980 . S
O93 Co90 2.087 . S
O93 Co94 2.042 1_455 S
O93 Co95 2.122 1_455 S
O93 H96 0.980 . S
Co94 O93 2.042 1_655 S
Co94 O102 2.286 . S
Co94 O103 2.069 . S
Co94 O104 2.015 . S
Co94 O107 2.264 . S
Co95 O93 2.122 1_655 S
Co95 O106 1.976 . S
Co95 O107 2.327 . S
Co95 O108 2.073 . S
H96 O93 0.980 . S
O97 Co89 2.073 . S
O97 C112 1.245 . S
O98 Co88 2.264 . S
O98 Co89 2.327 . S
O98 C112 1.257 . S
O99 Co89 1.976 . S
O99 C111 1.251 . S
O100 Co90 2.111 . S
O100 C111 1.274 . S
O101 Co90 2.143 1_655 S
O101 C114 1.246 . S
O102 Co94 2.286 . S
O102 C113 1.259 . S
O103 Co94 2.069 . S
O103 C113 1.289 . S
O104 Co94 2.015 . S
O104 C114 1.257 . S
O105 Co90 2.120 . S
O105 C115 1.252 1_455 S
O106 Co95 1.976 . S
O106 C115 1.251 . S
O107 Co94 2.264 . S
O107 Co95 2.327 . S
O107 C116 1.257 . S
O108 Co95 2.073 . S
O108 C116 1.245 . S
C109 O117 1.259 . S
C109 O118 1.289 . S
C110 O119 1.246 . S
C110 O120 1.257 . S
C111 O99 1.251 . S
C111 O100 1.274 . S
C112 O97 1.245 . S
C112 O98 1.257 . S
C113 O102 1.259 . S
C113 O103 1.289 . S
C114 O101 1.246 . S
C114 O104 1.257 . S
C115 O105 1.252 1_655 S
C115 O106 1.251 . S
C116 O107 1.257 . S
C116 O108 1.245 . S
O117 Co88 2.286 . S
O117 C109 1.259 . S
O118 Co88 2.069 . S
O118 C109 1.289 . S
O119 Co90 2.143 . S
O119 C110 1.246 . S
O120 Co88 2.015 . S
O120 C110 1.257 . S
Co121 O124 2.042 . S
Co121 O131 2.264 . S
Co121 O150 2.286 . S
Co121 O151 2.069 . S
Co121 O153 2.015 . S
Co122 O124 2.122 . S
Co122 O130 2.073 . S
Co122 O131 2.327 . S
Co122 O132 1.976 . S
Co123 O124 2.087 1_545 S
Co123 O126 2.087 . S
Co123 O133 2.111 1_545 S
Co123 O134 2.143 . S
Co123 O138 2.111 . S
Co123 O152 2.143 1_545 S
O124 Co121 2.042 . S
O124 Co122 2.122 . S
O124 Co123 2.087 1_565 S
O124 H125 0.980 1_565 S
H125 O124 0.980 1_545 S
O126 Co123 2.087 . S
O126 Co127 2.042 . S
O126 Co128 2.122 . S
O126 H129 0.980 . S
Co127 O126 2.042 . S
Co127 O135 2.286 . S
Co127 O136 2.069 . S
Co127 O137 2.015 . S
Co127 O140 2.264 . S
Co128 O126 2.122 . S
Co128 O139 1.976 . S
Co128 O140 2.327 . S
Co128 O141 2.073 . S
H129 O126 0.980 . S
O130 Co122 2.073 . S
O130 C145 1.245 . S
O131 Co121 2.264 . S
O131 Co122 2.327 . S
O131 C145 1.257 . S
O132 Co122 1.976 . S
O132 C144 1.251 . S
O133 Co123 2.111 1_565 S
O133 C144 1.274 . S
O134 Co123 2.143 . S
O134 C147 1.246 . S
O135 Co127 2.286 . S
O135 C146 1.259 . S
O136 Co127 2.069 . S
O136 C146 1.289 . S
O137 Co127 2.015 . S
O137 C147 1.257 . S
O138 Co123 2.111 . S
O138 C148 1.274 . S
O139 Co128 1.976 . S
O139 C148 1.251 . S
O140 Co127 2.264 . S
O140 Co128 2.327 . S
O140 C149 1.257 . S
O141 Co128 2.073 . S
O141 C149 1.245 . S
C142 O150 1.259 . S
C142 O151 1.289 . S
C143 O152 1.246 . S
C143 O153 1.257 . S
C144 O132 1.251 . S
C144 O133 1.274 . S
C145 O130 1.245 . S
C145 O131 1.257 . S
C146 O135 1.259 . S
C146 O136 1.289 . S
C147 O134 1.246 . S
C147 O137 1.257 . S
C148 O138 1.274 . S
C148 O139 1.251 . S
C149 O140 1.257 . S
C149 O141 1.245 . S
O150 Co121 2.286 . S
O150 C142 1.259 . S
O151 Co121 2.069 . S
O151 C142 1.289 . S
O152 Co123 2.143 1_565 S
O152 C143 1.246 . S
O153 Co121 2.015 . S
O153 C143 1.257 . S
Co154 O157 2.042 . S
Co154 O164 2.264 . S
Co154 O183 2.286 . S
Co154 O184 2.069 . S
Co154 O186 2.015 . S
Co155 O157 2.122 . S
Co155 O163 2.073 . S
Co155 O164 2.327 . S
Co155 O165 1.976 . S
Co156 O157 2.087 . S
Co156 O159 2.087 1_554 S
Co156 O166 2.111 . S
Co156 O167 2.143 1_554 S
Co156 O171 2.111 1_554 S
Co156 O185 2.143 . S
O157 Co154 2.042 . S
O157 Co155 2.122 . S
O157 Co156 2.087 . S
O157 H158 0.980 . S
H158 O157 0.980 . S
O159 Co156 2.087 1_556 S
O159 Co160 2.042 . S
O159 Co161 2.122 . S
O159 H162 0.980 . S
Co160 O159 2.042 . S
Co160 O168 2.286 . S
Co160 O169 2.069 . S
Co160 O170 2.015 . S
Co160 O173 2.264 . S
Co161 O159 2.122 . S
Co161 O172 1.976 . S
Co161 O173 2.327 . S
Co161 O174 2.073 . S
H162 O159 0.980 . S
O163 Co155 2.073 . S
O163 C178 1.245 . S
O164 Co154 2.264 . S
O164 Co155 2.327 . S
O164 C178 1.257 . S
O165 Co155 1.976 . S
O165 C177 1.251 . S
O166 Co156 2.111 . S
O166 C177 1.274 . S
O167 Co156 2.143 1_556 S
O167 C180 1.246 . S
O168 Co160 2.286 . S
O168 C179 1.259 . S
O169 Co160 2.069 . S
O169 C179 1.289 . S
O170 Co160 2.015 . S
O170 C180 1.257 . S
O171 Co156 2.111 1_556 S
O171 C181 1.274 . S
O172 Co161 1.976 . S
O172 C181 1.251 . S
O173 Co160 2.264 . S
O173 Co161 2.327 . S
O173 C182 1.257 . S
O174 Co161 2.073 . S
O174 C182 1.245 . S
C175 O183 1.259 . S
C175 O184 1.289 . S
C176 O185 1.246 . S
C176 O186 1.257 . S
C177 O165 1.251 . S
C177 O166 1.274 . S
C178 O163 1.245 . S
C178 O164 1.257 . S
C179 O168 1.259 . S
C179 O169 1.289 . S
C180 O167 1.246 . S
C180 O170 1.257 . S
C181 O171 1.274 . S
C181 O172 1.251 . S
C182 O173 1.257 . S
C182 O174 1.245 . S
O183 Co154 2.286 . S
O183 C175 1.259 . S
O184 Co154 2.069 . S
O184 C175 1.289 . S
O185 Co156 2.143 . S
O185 C176 1.246 . S
O186 Co154 2.015 . S
O186 C176 1.257 . S
H187 C193 0.930 . S
H188 C197 0.930 . S
H189 C202 0.929 . S
H190 C200 0.929 . S
H191 C195 0.929 . S
H192 C201 0.929 . S
C193 H187 0.930 . S
C193 C194 1.367 . S
C193 C201 1.378 . S
C194 C193 1.367 . S
C194 C202 1.433 . S
C195 H191 0.929 . S
C195 C197 1.378 . S
C195 C199 1.350 . S
C196 C199 1.463 . S
C196 C201 1.350 . S
C196 N204 1.427 . S
C197 H188 0.930 . S
C197 C195 1.378 . S
C197 C198 1.367 . S
C198 C197 1.367 . S
C198 C200 1.433 . S
C199 C195 1.350 . S
C199 C196 1.463 . S
C199 N203 1.427 . S
C200 H190 0.929 . S
C200 C198 1.433 . S
C200 N203 1.384 . S
C201 H192 0.929 . S
C201 C193 1.378 . S
C201 C196 1.350 . S
C202 H189 0.929 . S
C202 C194 1.433 . S
C202 N204 1.384 . S
N203 C199 1.427 . S
N203 C200 1.384 . S
N204 C196 1.427 . S
N204 C202 1.384 . S
H205 C211 0.930 . S
H206 C215 0.930 . S
H207 C220 0.929 . S
H208 C218 0.929 . S
H209 C213 0.929 . S
H210 C219 0.929 . S
C211 H205 0.930 . S
C211 C212 1.367 . S
C211 C219 1.378 . S
C212 C211 1.367 . S
C212 C220 1.433 . S
C213 H209 0.929 . S
C213 C215 1.378 . S
C213 C217 1.350 . S
C214 C217 1.463 . S
C214 C219 1.350 . S
C214 N222 1.427 . S
C215 H206 0.930 . S
C215 C213 1.378 . S
C215 C216 1.367 . S
C216 C215 1.367 . S
C216 C218 1.433 . S
C217 C213 1.350 . S
C217 C214 1.463 . S
C217 N221 1.427 . S
C218 H208 0.929 . S
C218 C216 1.433 . S
C218 N221 1.384 . S
C219 H210 0.929 . S
C219 C211 1.378 . S
C219 C214 1.350 . S
C220 H207 0.929 . S
C220 C212 1.433 . S
C220 N222 1.384 . S
N221 C217 1.427 . S
N221 C218 1.384 . S
N222 C214 1.427 . S
N222 C220 1.384 . S
H223 C229 0.930 . S
H224 C233 0.930 . S
H225 C238 0.929 . S
H226 C236 0.929 . S
H227 C231 0.929 . S
H228 C237 0.929 . S
C229 H223 0.930 . S
C229 C230 1.367 . S
C229 C237 1.378 . S
C230 C229 1.367 . S
C230 C238 1.433 . S
C231 H227 0.929 . S
C231 C233 1.378 . S
C231 C235 1.350 . S
C232 C235 1.463 . S
C232 C237 1.350 . S
C232 N240 1.427 . S
C233 H224 0.930 . S
C233 C231 1.378 . S
C233 C234 1.367 . S
C234 C233 1.367 . S
C234 C236 1.433 . S
C235 C231 1.350 . S
C235 C232 1.463 . S
C235 N239 1.427 . S
C236 H226 0.929 . S
C236 C234 1.433 . S
C236 N239 1.384 . S
C237 H228 0.929 . S
C237 C229 1.378 . S
C237 C232 1.350 . S
C238 H225 0.929 . S
C238 C230 1.433 . S
C238 N240 1.384 . S
N239 C235 1.427 . S
N239 C236 1.384 . S
N240 C232 1.427 . S
N240 C238 1.384 . S
H241 C247 0.930 . S
H242 C251 0.930 . S
H243 C256 0.929 . S
H244 C254 0.929 . S
H245 C249 0.929 . S
H246 C255 0.929 . S
C247 H241 0.930 . S
C247 C248 1.367 . S
C247 C255 1.378 . S
C248 C247 1.367 . S
C248 C256 1.433 . S
C249 H245 0.929 . S
C249 C251 1.378 . S
C249 C253 1.350 . S
C250 C253 1.463 . S
C250 C255 1.350 . S
C250 N258 1.427 . S
C251 H242 0.930 . S
C251 C249 1.378 . S
C251 C252 1.367 . S
C252 C251 1.367 . S
C252 C254 1.433 . S
C253 C249 1.350 . S
C253 C250 1.463 . S
C253 N257 1.427 . S
C254 H244 0.929 . S
C254 C252 1.433 . S
C254 N257 1.384 . S
C255 H246 0.929 . S
C255 C247 1.378 . S
C255 C250 1.350 . S
C256 H243 0.929 . S
C256 C248 1.433 . S
C256 N258 1.384 . S
N257 C253 1.427 . S
N257 C254 1.384 . S
N258 C250 1.427 . S
N258 C256 1.384 . S
H259 C265 0.930 . S
H260 C269 0.930 . S
H261 C274 0.929 . S
H262 C272 0.929 . S
H263 C267 0.929 . S
H264 C273 0.929 . S
C265 H259 0.930 . S
C265 C266 1.367 . S
C265 C273 1.378 . S
C266 C265 1.367 . S
C266 C274 1.433 . S
C267 H263 0.929 . S
C267 C269 1.378 . S
C267 C271 1.350 . S
C268 C271 1.463 . S
C268 C273 1.350 . S
C268 N276 1.427 . S
C269 H260 0.930 . S
C269 C267 1.378 . S
C269 C270 1.367 . S
C270 C269 1.367 . S
C270 C272 1.433 . S
C271 C267 1.350 . S
C271 C268 1.463 . S
C271 N275 1.427 . S
C272 H262 0.929 . S
C272 C270 1.433 . S
C272 N275 1.384 . S
C273 H264 0.929 . S
C273 C265 1.378 . S
C273 C268 1.350 . S
C274 H261 0.929 . S
C274 C266 1.433 . S
C274 N276 1.384 . S
N275 C271 1.427 . S
N275 C272 1.384 . S
N276 C268 1.427 . S
N276 C274 1.384 . S
H277 C283 0.930 . S
H278 C287 0.930 . S
H279 C292 0.929 . S
H280 C290 0.929 . S
H281 C285 0.929 . S
H282 C291 0.929 . S
C283 H277 0.930 . S
C283 C284 1.367 . S
C283 C291 1.378 . S
C284 C283 1.367 . S
C284 C292 1.433 . S
C285 H281 0.929 . S
C285 C287 1.378 . S
C285 C289 1.350 . S
C286 C289 1.463 . S
C286 C291 1.350 . S
C286 N294 1.427 . S
C287 H278 0.930 . S
C287 C285 1.378 . S
C287 C288 1.367 . S
C288 C287 1.367 . S
C288 C290 1.433 . S
C289 C285 1.350 . S
C289 C286 1.463 . S
C289 N293 1.427 . S
C290 H280 0.929 . S
C290 C288 1.433 . S
C290 N293 1.384 . S
C291 H282 0.929 . S
C291 C283 1.378 . S
C291 C286 1.350 . S
C292 H279 0.929 . S
C292 C284 1.433 . S
C292 N294 1.384 . S
N293 C289 1.427 . S
N293 C290 1.384 . S
N294 C286 1.427 . S
N294 C292 1.384 . S
H295 C301 0.930 . S
H296 C305 0.930 . S
H297 C310 0.929 . S
H298 C308 0.929 . S
H299 C303 0.929 . S
H300 C309 0.929 . S
C301 H295 0.930 . S
C301 C302 1.367 . S
C301 C309 1.378 . S
C302 C301 1.367 . S
C302 C310 1.433 . S
C303 H299 0.929 . S
C303 C305 1.378 . S
C303 C307 1.350 . S
C304 C307 1.463 . S
C304 C309 1.350 . S
C304 N312 1.427 . S
C305 H296 0.930 . S
C305 C303 1.378 . S
C305 C306 1.367 . S
C306 C305 1.367 . S
C306 C308 1.433 . S
C307 C303 1.350 . S
C307 C304 1.463 . S
C307 N311 1.427 . S
C308 H298 0.929 . S
C308 C306 1.433 . S
C308 N311 1.384 . S
C309 H300 0.929 . S
C309 C301 1.378 . S
C309 C304 1.350 . S
C310 H297 0.929 . S
C310 C302 1.433 . S
C310 N312 1.384 . S
N311 C307 1.427 . S
N311 C308 1.384 . S
N312 C304 1.427 . S
N312 C310 1.384 . S
H313 C319 0.930 . S
H314 C323 0.930 . S
H315 C328 0.929 . S
H316 C326 0.929 . S
H317 C321 0.929 . S
H318 C327 0.929 . S
C319 H313 0.930 . S
C319 C320 1.367 . S
C319 C327 1.378 . S
C320 C319 1.367 . S
C320 C328 1.433 . S
C321 H317 0.929 . S
C321 C323 1.378 . S
C321 C325 1.350 . S
C322 C325 1.463 . S
C322 C327 1.350 . S
C322 N330 1.427 . S
C323 H314 0.930 . S
C323 C321 1.378 . S
C323 C324 1.367 . S
C324 C323 1.367 . S
C324 C326 1.433 . S
C325 C321 1.350 . S
C325 C322 1.463 . S
C325 N329 1.427 . S
C326 H316 0.929 . S
C326 C324 1.433 . S
C326 N329 1.384 . S
C327 H318 0.929 . S
C327 C319 1.378 . S
C327 C322 1.350 . S
C328 H315 0.929 . S
C328 C320 1.433 . S
C328 N330 1.384 . S
N329 C325 1.427 . S
N329 C326 1.384 . S
N330 C322 1.427 . S
N330 C328 1.384 . S
H331 C337 0.930 . S
H332 C341 0.930 . S
H333 C346 0.929 . S
H334 C344 0.929 . S
H335 C339 0.929 . S
H336 C345 0.929 . S
C337 H331 0.930 . S
C337 C338 1.367 . S
C337 C345 1.378 . S
C338 C337 1.367 . S
C338 C346 1.433 . S
C339 H335 0.929 . S
C339 C341 1.378 . S
C339 C343 1.350 . S
C340 C343 1.463 . S
C340 C345 1.350 . S
C340 N348 1.427 . S
C341 H332 0.930 . S
C341 C339 1.378 . S
C341 C342 1.367 . S
C342 C341 1.367 . S
C342 C344 1.433 . S
C343 C339 1.350 . S
C343 C340 1.463 . S
C343 N347 1.427 . S
C344 H334 0.929 . S
C344 C342 1.433 . S
C344 N347 1.384 . S
C345 H336 0.929 . S
C345 C337 1.378 . S
C345 C340 1.350 . S
C346 H333 0.929 . S
C346 C338 1.433 . S
C346 N348 1.384 . S
N347 C343 1.427 . S
N347 C344 1.384 . S
N348 C340 1.427 . S
N348 C346 1.384 . S
H349 C355 0.930 . S
H350 C359 0.930 . S
H351 C364 0.929 . S
H352 C362 0.929 . S
H353 C357 0.929 . S
H354 C363 0.929 . S
C355 H349 0.930 . S
C355 C356 1.367 . S
C355 C363 1.378 . S
C356 C355 1.367 . S
C356 C364 1.433 . S
C357 H353 0.929 . S
C357 C359 1.378 . S
C357 C361 1.350 . S
C358 C361 1.463 . S
C358 C363 1.350 . S
C358 N366 1.427 . S
C359 H350 0.930 . S
C359 C357 1.378 . S
C359 C360 1.367 . S
C360 C359 1.367 . S
C360 C362 1.433 . S
C361 C357 1.350 . S
C361 C358 1.463 . S
C361 N365 1.427 . S
C362 H352 0.929 . S
C362 C360 1.433 . S
C362 N365 1.384 . S
C363 H354 0.929 . S
C363 C355 1.378 . S
C363 C358 1.350 . S
C364 H351 0.929 . S
C364 C356 1.433 . S
C364 N366 1.384 . S
N365 C361 1.427 . S
N365 C362 1.384 . S
N366 C358 1.427 . S
N366 C364 1.384 . S
H367 C373 0.930 . S
H368 C377 0.930 . S
H369 C382 0.929 . S
H370 C380 0.929 . S
H371 C375 0.929 . S
H372 C381 0.929 . S
C373 H367 0.930 . S
C373 C374 1.367 . S
C373 C381 1.378 . S
C374 C373 1.367 . S
C374 C382 1.433 . S
C375 H371 0.929 . S
C375 C377 1.378 . S
C375 C379 1.350 . S
C376 C379 1.463 . S
C376 C381 1.350 . S
C376 N384 1.427 . S
C377 H368 0.930 . S
C377 C375 1.378 . S
C377 C378 1.367 . S
C378 C377 1.367 . S
C378 C380 1.433 . S
C379 C375 1.350 . S
C379 C376 1.463 . S
C379 N383 1.427 . S
C380 H370 0.929 . S
C380 C378 1.433 . S
C380 N383 1.384 . S
C381 H372 0.929 . S
C381 C373 1.378 . S
C381 C376 1.350 . S
C382 H369 0.929 . S
C382 C374 1.433 . S
C382 N384 1.384 . S
N383 C379 1.427 . S
N383 C380 1.384 . S
N384 C376 1.427 . S
N384 C382 1.384 . S
H385 C391 0.930 . S
H386 C395 0.930 . S
H387 C400 0.929 . S
H388 C398 0.929 . S
H389 C393 0.929 . S
H390 C399 0.929 . S
C391 H385 0.930 . S
C391 C392 1.367 . S
C391 C399 1.378 . S
C392 C391 1.367 . S
C392 C400 1.433 . S
C393 H389 0.929 . S
C393 C395 1.378 . S
C393 C397 1.350 . S
C394 C397 1.463 . S
C394 C399 1.350 . S
C394 N402 1.427 . S
C395 H386 0.930 . S
C395 C393 1.378 . S
C395 C396 1.367 . S
C396 C395 1.367 . S
C396 C398 1.433 . S
C397 C393 1.350 . S
C397 C394 1.463 . S
C397 N401 1.427 . S
C398 H388 0.929 . S
C398 C396 1.433 . S
C398 N401 1.384 . S
C399 H390 0.929 . S
C399 C391 1.378 . S
C399 C394 1.350 . S
C400 H387 0.929 . S
C400 C392 1.433 . S
C400 N402 1.384 . S
N401 C397 1.427 . S
N401 C398 1.384 . S
N402 C394 1.427 . S
N402 C400 1.384 . S
H403 C409 0.930 . S
H404 C413 0.930 . S
H405 C418 0.929 . S
H406 C416 0.929 . S
H407 C411 0.929 . S
H408 C417 0.929 . S
C409 H403 0.930 . S
C409 C410 1.367 . S
C409 C417 1.378 . S
C410 C409 1.367 . S
C410 C418 1.433 . S
C411 H407 0.929 . S
C411 C413 1.378 . S
C411 C415 1.350 . S
C412 C415 1.463 . S
C412 C417 1.350 . S
C412 N420 1.427 . S
C413 H404 0.930 . S
C413 C411 1.378 . S
C413 C414 1.367 . S
C414 C413 1.367 . S
C414 C416 1.433 . S
C415 C411 1.350 . S
C415 C412 1.463 . S
C415 N419 1.427 . S
C416 H406 0.929 . S
C416 C414 1.433 . S
C416 N419 1.384 . S
C417 H408 0.929 . S
C417 C409 1.378 . S
C417 C412 1.350 . S
C418 H405 0.929 . S
C418 C410 1.433 . S
C418 N420 1.384 . S
N419 C415 1.427 . S
N419 C416 1.384 . S
N420 C412 1.427 . S
N420 C418 1.384 . S
H421 C427 0.930 . S
H422 C431 0.930 . S
H423 C436 0.929 . S
H424 C434 0.929 . S
H425 C429 0.929 . S
H426 C435 0.929 . S
C427 H421 0.930 . S
C427 C428 1.367 . S
C427 C435 1.378 . S
C428 C427 1.367 . S
C428 C436 1.433 . S
C429 H425 0.929 . S
C429 C431 1.378 . S
C429 C433 1.350 . S
C430 C433 1.463 . S
C430 C435 1.350 . S
C430 N438 1.427 . S
C431 H422 0.930 . S
C431 C429 1.378 . S
C431 C432 1.367 . S
C432 C431 1.367 . S
C432 C434 1.433 . S
C433 C429 1.350 . S
C433 C430 1.463 . S
C433 N437 1.427 . S
C434 H424 0.929 . S
C434 C432 1.433 . S
C434 N437 1.384 . S
C435 H426 0.929 . S
C435 C427 1.378 . S
C435 C430 1.350 . S
C436 H423 0.929 . S
C436 C428 1.433 . S
C436 N438 1.384 . S
N437 C433 1.427 . S
N437 C434 1.384 . S
N438 C430 1.427 . S
N438 C436 1.384 . S
H439 C445 0.930 . S
H440 C449 0.930 . S
H441 C454 0.929 . S
H442 C452 0.929 . S
H443 C447 0.929 . S
H444 C453 0.929 . S
C445 H439 0.930 . S
C445 C446 1.367 . S
C445 C453 1.378 . S
C446 C445 1.367 . S
C446 C454 1.433 . S
C447 H443 0.929 . S
C447 C449 1.378 . S
C447 C451 1.350 . S
C448 C451 1.463 . S
C448 C453 1.350 . S
C448 N456 1.427 . S
C449 H440 0.930 . S
C449 C447 1.378 . S
C449 C450 1.367 . S
C450 C449 1.367 . S
C450 C452 1.433 . S
C451 C447 1.350 . S
C451 C448 1.463 . S
C451 N455 1.427 . S
C452 H442 0.929 . S
C452 C450 1.433 . S
C452 N455 1.384 . S
C453 H444 0.929 . S
C453 C445 1.378 . S
C453 C448 1.350 . S
C454 H441 0.929 . S
C454 C446 1.433 . S
C454 N456 1.384 . S
N455 C451 1.427 . S
N455 C452 1.384 . S
N456 C448 1.427 . S
N456 C454 1.384 . S
H457 C463 0.930 . S
H458 C467 0.930 . S
H459 C472 0.929 . S
H460 C470 0.929 . S
H461 C465 0.929 . S
H462 C471 0.929 . S
C463 H457 0.930 . S
C463 C464 1.367 . S
C463 C471 1.378 . S
C464 C463 1.367 . S
C464 C472 1.433 . S
C465 H461 0.929 . S
C465 C467 1.378 . S
C465 C469 1.350 . S
C466 C469 1.463 . S
C466 C471 1.350 . S
C466 N474 1.427 . S
C467 H458 0.930 . S
C467 C465 1.378 . S
C467 C468 1.367 . S
C468 C467 1.367 . S
C468 C470 1.433 . S
C469 C465 1.350 . S
C469 C466 1.463 . S
C469 N473 1.427 . S
C470 H460 0.929 . S
C470 C468 1.433 . S
C470 N473 1.384 . S
C471 H462 0.929 . S
C471 C463 1.378 . S
C471 C466 1.350 . S
C472 H459 0.929 . S
C472 C464 1.433 . S
C472 N474 1.384 . S
N473 C469 1.427 . S
N473 C470 1.384 . S
N474 C466 1.427 . S
N474 C472 1.384 . S
H475 C481 0.930 . S
H476 C485 0.930 . S
H477 C490 0.929 . S
H478 C488 0.929 . S
H479 C483 0.929 . S
H480 C489 0.929 . S
C481 H475 0.930 . S
C481 C482 1.367 . S
C481 C489 1.378 . S
C482 C481 1.367 . S
C482 C490 1.433 . S
C483 H479 0.929 . S
C483 C485 1.378 . S
C483 C487 1.350 . S
C484 C487 1.463 . S
C484 C489 1.350 . S
C484 N492 1.427 . S
C485 H476 0.930 . S
C485 C483 1.378 . S
C485 C486 1.367 . S
C486 C485 1.367 . S
C486 C488 1.433 . S
C487 C483 1.350 . S
C487 C484 1.463 . S
C487 N491 1.427 . S
C488 H478 0.929 . S
C488 C486 1.433 . S
C488 N491 1.384 . S
C489 H480 0.929 . S
C489 C481 1.378 . S
C489 C484 1.350 . S
C490 H477 0.929 . S
C490 C482 1.433 . S
C490 N492 1.384 . S
N491 C487 1.427 . S
N491 C488 1.384 . S
N492 C484 1.427 . S
N492 C490 1.384 . S
H493 C499 0.930 . S
H494 C503 0.930 . S
H495 C508 0.929 . S
H496 C506 0.929 . S
H497 C501 0.929 . S
H498 C507 0.929 . S
C499 H493 0.930 . S
C499 C500 1.367 . S
C499 C507 1.378 . S
C500 C499 1.367 . S
C500 C508 1.433 . S
C501 H497 0.929 . S
C501 C503 1.378 . S
C501 C505 1.350 . S
C502 C505 1.463 . S
C502 C507 1.350 . S
C502 N510 1.427 . S
C503 H494 0.930 . S
C503 C501 1.378 . S
C503 C504 1.367 . S
C504 C503 1.367 . S
C504 C506 1.433 . S
C505 C501 1.350 . S
C505 C502 1.463 . S
C505 N509 1.427 . S
C506 H496 0.929 . S
C506 C504 1.433 . S
C506 N509 1.384 . S
C507 H498 0.929 . S
C507 C499 1.378 . S
C507 C502 1.350 . S
C508 H495 0.929 . S
C508 C500 1.433 . S
C508 N510 1.384 . S
N509 C505 1.427 . S
N509 C506 1.384 . S
N510 C502 1.427 . S
N510 C508 1.384 . S
H511 C517 0.930 . S
H512 C521 0.930 . S
H513 C526 0.929 . S
H514 C524 0.929 . S
H515 C519 0.929 . S
H516 C525 0.929 . S
C517 H511 0.930 . S
C517 C518 1.367 . S
C517 C525 1.378 . S
C518 C517 1.367 . S
C518 C526 1.433 . S
C519 H515 0.929 . S
C519 C521 1.378 . S
C519 C523 1.350 . S
C520 C523 1.463 . S
C520 C525 1.350 . S
C520 N528 1.427 . S
C521 H512 0.930 . S
C521 C519 1.378 . S
C521 C522 1.367 . S
C522 C521 1.367 . S
C522 C524 1.433 . S
C523 C519 1.350 . S
C523 C520 1.463 . S
C523 N527 1.427 . S
C524 H514 0.929 . S
C524 C522 1.433 . S
C524 N527 1.384 . S
C525 H516 0.929 . S
C525 C517 1.378 . S
C525 C520 1.350 . S
C526 H513 0.929 . S
C526 C518 1.433 . S
C526 N528 1.384 . S
N527 C523 1.427 . S
N527 C524 1.384 . S
N528 C520 1.427 . S
N528 C526 1.384 . S
H529 C535 0.930 . S
H530 C539 0.930 . S
H531 C544 0.929 . S
H532 C542 0.929 . S
H533 C537 0.929 . S
H534 C543 0.929 . S
C535 H529 0.930 . S
C535 C536 1.367 . S
C535 C543 1.378 . S
C536 C535 1.367 . S
C536 C544 1.433 . S
C537 H533 0.929 . S
C537 C539 1.378 . S
C537 C541 1.350 . S
C538 C541 1.463 . S
C538 C543 1.350 . S
C538 N546 1.427 . S
C539 H530 0.930 . S
C539 C537 1.378 . S
C539 C540 1.367 . S
C540 C539 1.367 . S
C540 C542 1.433 . S
C541 C537 1.350 . S
C541 C538 1.463 . S
C541 N545 1.427 . S
C542 H532 0.929 . S
C542 C540 1.433 . S
C542 N545 1.384 . S
C543 H534 0.929 . S
C543 C535 1.378 . S
C543 C538 1.350 . S
C544 H531 0.929 . S
C544 C536 1.433 . S
C544 N546 1.384 . S
N545 C541 1.427 . S
N545 C542 1.384 . S
N546 C538 1.427 . S
N546 C544 1.384 . S
H547 C553 0.930 . S
H548 C557 0.930 . S
H549 C562 0.929 . S
H550 C560 0.929 . S
H551 C555 0.929 . S
H552 C561 0.929 . S
C553 H547 0.930 . S
C553 C554 1.367 . S
C553 C561 1.378 . S
C554 C553 1.367 . S
C554 C562 1.433 . S
C555 H551 0.929 . S
C555 C557 1.378 . S
C555 C559 1.350 . S
C556 C559 1.463 . S
C556 C561 1.350 . S
C556 N564 1.427 . S
C557 H548 0.930 . S
C557 C555 1.378 . S
C557 C558 1.367 . S
C558 C557 1.367 . S
C558 C560 1.433 . S
C559 C555 1.350 . S
C559 C556 1.463 . S
C559 N563 1.427 . S
C560 H550 0.929 . S
C560 C558 1.433 . S
C560 N563 1.384 . S
C561 H552 0.929 . S
C561 C553 1.378 . S
C561 C556 1.350 . S
C562 H549 0.929 . S
C562 C554 1.433 . S
C562 N564 1.384 . S
N563 C559 1.427 . S
N563 C560 1.384 . S
N564 C556 1.427 . S
N564 C562 1.384 . S
H565 C571 0.930 . S
H566 C575 0.930 . S
H567 C580 0.929 . S
H568 C578 0.929 . S
H569 C573 0.929 . S
H570 C579 0.929 . S
C571 H565 0.930 . S
C571 C572 1.367 . S
C571 C579 1.378 . S
C572 C571 1.367 . S
C572 C580 1.433 . S
C573 H569 0.929 . S
C573 C575 1.378 . S
C573 C577 1.350 . S
C574 C577 1.463 . S
C574 C579 1.350 . S
C574 N582 1.427 . S
C575 H566 0.930 . S
C575 C573 1.378 . S
C575 C576 1.367 . S
C576 C575 1.367 . S
C576 C578 1.433 . S
C577 C573 1.350 . S
C577 C574 1.463 . S
C577 N581 1.427 . S
C578 H568 0.929 . S
C578 C576 1.433 . S
C578 N581 1.384 . S
C579 H570 0.929 . S
C579 C571 1.378 . S
C579 C574 1.350 . S
C580 H567 0.929 . S
C580 C572 1.433 . S
C580 N582 1.384 . S
N581 C577 1.427 . S
N581 C578 1.384 . S
N582 C574 1.427 . S
N582 C580 1.384 . S
H583 C589 0.930 . S
H584 C593 0.930 . S
H585 C598 0.929 . S
H586 C596 0.929 . S
H587 C591 0.929 . S
H588 C597 0.929 . S
C589 H583 0.930 . S
C589 C590 1.367 . S
C589 C597 1.378 . S
C590 C589 1.367 . S
C590 C598 1.433 . S
C591 H587 0.929 . S
C591 C593 1.378 . S
C591 C595 1.350 . S
C592 C595 1.463 . S
C592 C597 1.350 . S
C592 N600 1.427 . S
C593 H584 0.930 . S
C593 C591 1.378 . S
C593 C594 1.367 . S
C594 C593 1.367 . S
C594 C596 1.433 . S
C595 C591 1.350 . S
C595 C592 1.463 . S
C595 N599 1.427 . S
C596 H586 0.929 . S
C596 C594 1.433 . S
C596 N599 1.384 . S
C597 H588 0.929 . S
C597 C589 1.378 . S
C597 C592 1.350 . S
C598 H585 0.929 . S
C598 C590 1.433 . S
C598 N600 1.384 . S
N599 C595 1.427 . S
N599 C596 1.384 . S
N600 C592 1.427 . S
N600 C598 1.384 . S
H601 C607 0.930 . S
H602 C611 0.930 . S
H603 C616 0.929 . S
H604 C614 0.929 . S
H605 C609 0.929 . S
H606 C615 0.929 . S
C607 H601 0.930 . S
C607 C608 1.367 . S
C607 C615 1.378 . S
C608 C607 1.367 . S
C608 C616 1.433 . S
C609 H605 0.929 . S
C609 C611 1.378 . S
C609 C613 1.350 . S
C610 C613 1.463 . S
C610 C615 1.350 . S
C610 N618 1.427 . S
C611 H602 0.930 . S
C611 C609 1.378 . S
C611 C612 1.367 . S
C612 C611 1.367 . S
C612 C614 1.433 . S
C613 C609 1.350 . S
C613 C610 1.463 . S
C613 N617 1.427 . S
C614 H604 0.929 . S
C614 C612 1.433 . S
C614 N617 1.384 . S
C615 H606 0.929 . S
C615 C607 1.378 . S
C615 C610 1.350 . S
C616 H603 0.929 . S
C616 C608 1.433 . S
C616 N618 1.384 . S
N617 C613 1.427 . S
N617 C614 1.384 . S
N618 C610 1.427 . S
N618 C616 1.384 . S
C198 C112 1.383 . S
C194 C10 1.459 . S
C216 C148 1.315 . S
C212 C15 1.411 . S
C234 C113 1.635 . S
C230 C27 1.654 . S
C252 C143 1.549 . S
C248 C38 1.604 . S
C270 C110 1.430 . S
C266 C49 1.490 . S
C284 C59 1.868 . S
C288 C146 1.877 . S
C302 C71 0.783 . S
C306 C115 0.775 . S
C324 C145 1.474 . S
C320 C87 1.521 . S
C342 C149 1.761 . S
C338 C5 1.785 . S
C360 C114 1.153 . S
C356 C16 1.193 . S
C378 C142 1.603 . S
C374 C32 1.589 . S
C396 C111 1.160 . S
C392 C37 1.293 . S
C414 C144 1.682 . S
C410 C48 1.796 . S
C428 C65 1.309 . S
C432 C109 1.310 . S
C446 C70 1.158 . S
C450 C147 1.146 . S
C468 C116 1.466 . S
C464 C82 1.549 . S
C486 C178 1.849 . S
C482 C4 1.940 . S
C500 C54 1.931 . S
C504 C181 1.794 . S
C522 C180 1.935 . S
C518 C60 1.981 . S
C536 C76 1.300 . S
C540 C179 1.288 . S
C558 C182 1.911 . S
C554 C81 2.036 . S
C572 C26 1.883 . S
C576 C176 1.810 . S
C594 C175 1.954 . S
C590 C43 1.970 . S
C608 C21 1.193 . S
C612 C177 1.112 . S
