# Generated by pormake.
# Topology pyr, (3,6)-cn, num edge types: 1
# Building blocks:
#     Node 0, Type 0, BuildingBlock: KAKCAD_clean_linker_0, # of connection points: 3
#     Node 1, Type 0, BuildingBlock: KAKCAD_clean_linker_0, # of connection points: 3
#     Node 2, Type 0, BuildingBlock: KAKCAD_clean_linker_0, # of connection points: 3
#     Node 3, Type 0, BuildingBlock: KAKCAD_clean_linker_0, # of connection points: 3
#     Node 4, Type 0, BuildingBlock: KAKCAD_clean_linker_0, # of connection points: 3
#     Node 5, Type 0, BuildingBlock: KAKCAD_clean_linker_0, # of connection points: 3
#     Node 6, Type 0, BuildingBlock: KAKCAD_clean_linker_0, # of connection points: 3
#     Node 7, Type 0, BuildingBlock: KAKCAD_clean_linker_0, # of connection points: 3
#     Node 8, Type 1, BuildingBlock: BETDIP_clean_sbu_0, # of connection points: 6
#     Node 9, Type 1, BuildingBlock: BETDIP_clean_sbu_0, # of connection points: 6
#     Node 10, Type 1, BuildingBlock: BETDIP_clean_sbu_0, # of connection points: 6
#     Node 11, Type 1, BuildingBlock: BETDIP_clean_sbu_0, # of connection points: 6
#     Edge 12, Type (0, 1), BuildingBlock: TEMPAE_clean_linker_10, # of connection points: 2
#     Edge 13, Type (0, 1), BuildingBlock: TEMPAE_clean_linker_10, # of connection points: 2
#     Edge 14, Type (0, 1), BuildingBlock: TEMPAE_clean_linker_10, # of connection points: 2
#     Edge 15, Type (0, 1), BuildingBlock: TEMPAE_clean_linker_10, # of connection points: 2
#     Edge 16, Type (0, 1), BuildingBlock: TEMPAE_clean_linker_10, # of connection points: 2
#     Edge 17, Type (0, 1), BuildingBlock: TEMPAE_clean_linker_10, # of connection points: 2
#     Edge 18, Type (0, 1), BuildingBlock: TEMPAE_clean_linker_10, # of connection points: 2
#     Edge 19, Type (0, 1), BuildingBlock: TEMPAE_clean_linker_10, # of connection points: 2
#     Edge 20, Type (0, 1), BuildingBlock: TEMPAE_clean_linker_10, # of connection points: 2
#     Edge 21, Type (0, 1), BuildingBlock: TEMPAE_clean_linker_10, # of connection points: 2
#     Edge 22, Type (0, 1), BuildingBlock: TEMPAE_clean_linker_10, # of connection points: 2
#     Edge 23, Type (0, 1), BuildingBlock: TEMPAE_clean_linker_10, # of connection points: 2
#     Edge 24, Type (0, 1), BuildingBlock: TEMPAE_clean_linker_10, # of connection points: 2
#     Edge 25, Type (0, 1), BuildingBlock: TEMPAE_clean_linker_10, # of connection points: 2
#     Edge 26, Type (0, 1), BuildingBlock: TEMPAE_clean_linker_10, # of connection points: 2
#     Edge 27, Type (0, 1), BuildingBlock: TEMPAE_clean_linker_10, # of connection points: 2
#     Edge 28, Type (0, 1), BuildingBlock: TEMPAE_clean_linker_10, # of connection points: 2
#     Edge 29, Type (0, 1), BuildingBlock: TEMPAE_clean_linker_10, # of connection points: 2
#     Edge 30, Type (0, 1), BuildingBlock: TEMPAE_clean_linker_10, # of connection points: 2
#     Edge 31, Type (0, 1), BuildingBlock: TEMPAE_clean_linker_10, # of connection points: 2
#     Edge 32, Type (0, 1), BuildingBlock: TEMPAE_clean_linker_10, # of connection points: 2
#     Edge 33, Type (0, 1), BuildingBlock: TEMPAE_clean_linker_10, # of connection points: 2
#     Edge 34, Type (0, 1), BuildingBlock: TEMPAE_clean_linker_10, # of connection points: 2
#     Edge 35, Type (0, 1), BuildingBlock: TEMPAE_clean_linker_10, # of connection points: 2
# Relax obj value: 0.118
# Max RMSD: 0.192
# Mean RMSD: 0.087
data_MOF--net-pyr--node1-BETDIP_clean_sbu_0--node2-KAKCAD_clean_linker_0--edge1-TEMPAE_clean_linker_10
_symmetry_space_group_name_H-M    P1
_symmetry_Int_Tables_number       1
_symmetry_cell_setting            triclinic
loop_
_symmetry_equiv_pos_as_xyz
'x, y, z'
_cell_length_a     44.772615
_cell_length_b     47.840651
_cell_length_c     46.294898
_cell_angle_alpha  89.369342
_cell_angle_beta   92.903402
_cell_angle_gamma 103.45069
loop_
_atom_site_label
_atom_site_type_symbol
_atom_site_fract_x
_atom_site_fract_y
_atom_site_fract_z
_atom_type_partial_charge
C0 C 0.25426 0.23295 0.31518 0.0
C1 C 0.27098 0.22514 0.33921 0.0
C2 C 0.26939 0.24659 0.29145 0.0
C3 C 0.30165 0.25291 0.29121 0.0
C4 C 0.31844 0.24531 0.31532 0.0
C5 C 0.30326 0.23159 0.33909 0.0
C6 C 0.31754 0.26686 0.26557 0.0
C7 C 0.30698 0.28872 0.25087 0.0
C8 C 0.31993 0.30029 0.22517 0.0
C9 C 0.34499 0.29104 0.21496 0.0
C10 C 0.35573 0.2687 0.22905 0.0
C11 C 0.34172 0.25686 0.25443 0.0
C12 C 0.379 0.2555 0.21583 0.0
C13 C 0.38057 0.25431 0.18559 0.0
C14 C 0.39812 0.24184 0.23316 0.0
C15 C 0.41621 0.22551 0.22067 0.0
C16 C 0.41659 0.22318 0.19042 0.0
C17 C 0.30454 0.31922 0.20733 0.0
C18 C 0.27261 0.31088 0.20172 0.0
C19 C 0.32109 0.34507 0.19555 0.0
C20 C 0.30569 0.3626 0.17901 0.0
C21 C 0.27366 0.3542 0.17361 0.0
C22 C 0.25738 0.32812 0.18507 0.0
C23 C 0.3995 0.23886 0.17313 0.0
H24 H 0.22939 0.22861 0.31472 0.0
H25 H 0.25571 0.25175 0.27306 0.0
H26 H 0.34333 0.25004 0.31584 0.0
H27 H 0.31678 0.22562 0.35718 0.0
H28 H 0.28804 0.29635 0.25903 0.0
H29 H 0.34827 0.23862 0.26476 0.0
H30 H 0.35501 0.30039 0.19527 0.0
H31 H 0.36623 0.26418 0.17121 0.0
H32 H 0.39849 0.24293 0.25652 0.0
H33 H 0.42884 0.2138 0.23494 0.0
H34 H 0.25933 0.29086 0.21017 0.0
H35 H 0.34576 0.35189 0.19955 0.0
H36 H 0.39992 0.2386 0.14978 0.0
H37 H 0.23263 0.32128 0.18169 0.0
H38 H 0.31875 0.38264 0.17043 0.0
C39 C 0.19663 0.80608 0.83341 0.0
C40 C 0.22896 0.81399 0.83555 0.0
C41 C 0.18117 0.79283 0.80837 0.0
C42 C 0.19772 0.78704 0.78506 0.0
C43 C 0.23 0.79426 0.78749 0.0
C44 C 0.24544 0.80763 0.8124 0.0
C45 C 0.1816 0.77504 0.75759 0.0
C46 C 0.15833 0.78691 0.74477 0.0
C47 C 0.14497 0.77792 0.71722 0.0
C48 C 0.15538 0.75655 0.70262 0.0
C49 C 0.17879 0.74458 0.71519 0.0
C50 C 0.19142 0.75367 0.74282 0.0
C51 C 0.19289 0.72508 0.6986 0.0
C52 C 0.20004 0.70075 0.71189 0.0
C53 C 0.20309 0.73286 0.67081 0.0
C54 C 0.22197 0.71787 0.65748 0.0
C55 C 0.23086 0.69469 0.67162 0.0
C56 C 0.12234 0.79287 0.70304 0.0
C57 C 0.10193 0.80351 0.71965 0.0
C58 C 0.1226 0.79873 0.6732 0.0
C59 C 0.10412 0.8159 0.66065 0.0
C60 C 0.08538 0.82825 0.67768 0.0
C61 C 0.08401 0.82122 0.70724 0.0
C62 C 0.21871 0.68564 0.69849 0.0
H63 H 0.18326 0.81033 0.85101 0.0
H64 H 0.15626 0.78728 0.80714 0.0
H65 H 0.24339 0.79054 0.76969 0.0
H66 H 0.27031 0.81391 0.81304 0.0
H67 H 0.15203 0.80449 0.75563 0.0
H68 H 0.20995 0.74498 0.75235 0.0
H69 H 0.14562 0.74939 0.68133 0.0
H70 H 0.19216 0.69411 0.7332 0.0
H71 H 0.1982 0.75171 0.6602 0.0
H72 H 0.2311 0.72558 0.63689 0.0
H73 H 0.10042 0.79889 0.74255 0.0
H74 H 0.13804 0.79115 0.6596 0.0
H75 H 0.22456 0.66748 0.70967 0.0
H76 H 0.0701 0.83033 0.72124 0.0
H77 H 0.10523 0.8201 0.63765 0.0
C78 C 0.7375 0.44393 0.91111 0.0
C79 C 0.75871 0.42938 0.92404 0.0
C80 C 0.71036 0.42872 0.89673 0.0
C81 C 0.70379 0.39854 0.89451 0.0
C82 C 0.72525 0.3841 0.90708 0.0
C83 C 0.75203 0.39921 0.92185 0.0
C84 C 0.67476 0.38202 0.87938 0.0
C85 C 0.66176 0.39327 0.8549 0.0
C86 C 0.6347 0.37762 0.84037 0.0
C87 C 0.62107 0.34972 0.85017 0.0
C88 C 0.6338 0.33788 0.87461 0.0
C89 C 0.66013 0.3546 0.88927 0.0
C90 C 0.62014 0.30819 0.88532 0.0
C91 C 0.58813 0.29746 0.886 0.0
C92 C 0.63943 0.29074 0.89632 0.0
C93 C 0.62725 0.26394 0.90862 0.0
C94 C 0.59528 0.25339 0.91 0.0
C95 C 0.62116 0.39085 0.81498 0.0
C96 C 0.61968 0.41988 0.81588 0.0
C97 C 0.61073 0.37521 0.7894 0.0
C98 C 0.59996 0.38854 0.76511 0.0
C99 C 0.59922 0.41783 0.76584 0.0
C100 C 0.60884 0.43313 0.79175 0.0
C101 C 0.57587 0.27042 0.89816 0.0
H102 H 0.74187 0.46714 0.91191 0.0
H103 H 0.69436 0.4407 0.88768 0.0
H104 H 0.72152 0.36098 0.90545 0.0
H105 H 0.76731 0.38701 0.93188 0.0
H106 H 0.67311 0.41408 0.84661 0.0
H107 H 0.66905 0.34629 0.9089 0.0
H108 H 0.6006 0.3373 0.83883 0.0
H109 H 0.57252 0.31025 0.87786 0.0
H110 H 0.66419 0.29791 0.89573 0.0
H111 H 0.64309 0.25183 0.91772 0.0
H112 H 0.62693 0.43246 0.83538 0.0
H113 H 0.61175 0.35288 0.78786 0.0
H114 H 0.55112 0.26293 0.89833 0.0
H115 H 0.60789 0.45546 0.79351 0.0
H116 H 0.59297 0.37607 0.74553 0.0
C117 C 0.86746 0.65371 0.2688 0.0
C118 C 0.89846 0.662 0.26151 0.0
C119 C 0.85704 0.66536 0.29295 0.0
C120 C 0.87734 0.68516 0.31137 0.0
C121 C 0.90834 0.69361 0.30403 0.0
C122 C 0.91862 0.68248 0.27942 0.0
C123 C 0.86632 0.69622 0.33832 0.0
C124 C 0.84172 0.67894 0.35305 0.0
C125 C 0.83127 0.6887 0.37829 0.0
C126 C 0.84569 0.71591 0.38927 0.0
C127 C 0.86992 0.73394 0.37509 0.0
C128 C 0.88017 0.72388 0.34966 0.0
C129 C 0.88404 0.76321 0.38723 0.0
C130 C 0.86538 0.77987 0.39878 0.0
C131 C 0.91611 0.7741 0.38893 0.0
C132 C 0.92914 0.80045 0.40273 0.0
C133 C 0.91043 0.81657 0.41517 0.0
C134 C 0.80468 0.67089 0.3931 0.0
C135 C 0.77607 0.66157 0.37816 0.0
C136 C 0.80724 0.6647 0.42271 0.0
C137 C 0.78162 0.6498 0.4372 0.0
C138 C 0.75253 0.64127 0.4226 0.0
C139 C 0.75026 0.64719 0.39275 0.0
C140 C 0.87836 0.80608 0.41259 0.0
H141 H 0.85102 0.63776 0.25619 0.0
H142 H 0.83284 0.65864 0.29703 0.0
H143 H 0.925 0.7085 0.31755 0.0
H144 H 0.94252 0.6901 0.27453 0.0
H145 H 0.83095 0.65747 0.34546 0.0
H146 H 0.89834 0.73799 0.33836 0.0
H147 H 0.83773 0.72314 0.40897 0.0
H148 H 0.84057 0.77255 0.39733 0.0
H149 H 0.93121 0.7618 0.38048 0.0
H150 H 0.95394 0.80775 0.40444 0.0
H151 H 0.77343 0.66637 0.35537 0.0
H152 H 0.82912 0.6715 0.43469 0.0
H153 H 0.86318 0.81815 0.42127 0.0
H154 H 0.72835 0.64154 0.38069 0.0
H155 H 0.78471 0.64509 0.45992 0.0
C156 C 0.71203 0.78586 0.74434 0.0
C157 C 0.71403 0.81409 0.73441 0.0
C158 C 0.69605 0.77592 0.76905 0.0
C159 C 0.6822 0.79415 0.78476 0.0
C160 C 0.68272 0.82178 0.77372 0.0
C161 C 0.69803 0.83142 0.74873 0.0
C162 C 0.67046 0.78598 0.81405 0.0
C163 C 0.68544 0.76977 0.83276 0.0
C164 C 0.67818 0.7659 0.86187 0.0
C165 C 0.65642 0.77944 0.87271 0.0
C166 C 0.64073 0.7956 0.85438 0.0
C167 C 0.64695 0.79738 0.82478 0.0
C168 C 0.62032 0.81287 0.86648 0.0
C169 C 0.60453 0.80435 0.89184 0.0
C170 C 0.61816 0.83928 0.85378 0.0
C171 C 0.60155 0.85685 0.86637 0.0
C172 C 0.58752 0.84925 0.89273 0.0
C173 C 0.69535 0.74942 0.88109 0.0
C174 C 0.70048 0.72324 0.87157 0.0
C175 C 0.70866 0.76064 0.90791 0.0
C176 C 0.72804 0.74665 0.92416 0.0
C177 C 0.73442 0.72123 0.91384 0.0
C178 C 0.71976 0.70928 0.88777 0.0
C179 C 0.58878 0.82245 0.905 0.0
H180 H 0.72395 0.77181 0.73387 0.0
H181 H 0.69552 0.75424 0.77636 0.0
H182 H 0.67271 0.83673 0.7851 0.0
H183 H 0.69818 0.85297 0.74123 0.0
H184 H 0.70421 0.76145 0.82525 0.0
H185 H 0.63416 0.80854 0.81009 0.0
H186 H 0.65247 0.77789 0.8956 0.0
H187 H 0.6048 0.78394 0.90202 0.0
H188 H 0.63022 0.8472 0.8346 0.0
H189 H 0.60043 0.87681 0.85562 0.0
H190 H 0.69012 0.71387 0.8512 0.0
H191 H 0.70531 0.78091 0.91568 0.0
H192 H 0.57855 0.81571 0.92537 0.0
H193 H 0.72379 0.68944 0.87955 0.0
H194 H 0.73918 0.75646 0.94407 0.0
C195 C 0.80944 0.25082 0.26629 0.0
C196 C 0.79337 0.26815 0.25025 0.0
C197 C 0.82306 0.25961 0.29342 0.0
C198 C 0.82145 0.28626 0.30507 0.0
C199 C 0.80663 0.30427 0.28826 0.0
C200 C 0.79243 0.29515 0.26124 0.0
C201 C 0.83263 0.29364 0.33559 0.0
C202 C 0.85758 0.28373 0.34791 0.0
C203 C 0.8644 0.28509 0.37792 0.0
C204 C 0.84747 0.29893 0.39548 0.0
C205 C 0.82364 0.3106 0.38329 0.0
C206 C 0.8162 0.30758 0.35347 0.0
C207 C 0.80455 0.32393 0.40169 0.0
C208 C 0.7919 0.30988 0.42661 0.0
C209 C 0.79694 0.34979 0.39315 0.0
C210 C 0.77636 0.36092 0.40865 0.0
C211 C 0.76273 0.3463 0.43289 0.0
C212 C 0.88702 0.26949 0.39088 0.0
C213 C 0.88847 0.24269 0.37951 0.0
C214 C 0.90627 0.28028 0.41517 0.0
C215 C 0.92611 0.26441 0.42796 0.0
C216 C 0.92727 0.23759 0.41652 0.0
C217 C 0.90842 0.22708 0.39204 0.0
C218 C 0.77106 0.32089 0.44198 0.0
H219 H 0.81002 0.22967 0.25854 0.0
H220 H 0.83346 0.24471 0.30578 0.0
H221 H 0.80534 0.32513 0.29622 0.0
H222 H 0.7802 0.30891 0.24918 0.0
H223 H 0.87118 0.27397 0.33415 0.0
H224 H 0.79631 0.31461 0.34462 0.0
H225 H 0.85215 0.29993 0.41868 0.0
H226 H 0.79716 0.28979 0.43355 0.0
H227 H 0.80646 0.36111 0.37409 0.0
H228 H 0.7702 0.3804 0.40098 0.0
H229 H 0.87343 0.23319 0.36139 0.0
H230 H 0.90596 0.30092 0.42437 0.0
H231 H 0.76108 0.30929 0.46072 0.0
H232 H 0.90822 0.20617 0.38316 0.0
H233 H 0.94043 0.27302 0.44684 0.0
C234 C 0.25986 0.63618 0.20584 0.0
C235 C 0.25677 0.64009 0.17586 0.0
C236 C 0.2866 0.65036 0.22152 0.0
C237 C 0.31111 0.66836 0.20745 0.0
C238 C 0.30818 0.67125 0.17715 0.0
C239 C 0.2812 0.65759 0.16164 0.0
C240 C 0.3391 0.68479 0.22425 0.0
C241 C 0.3504 0.67332 0.24957 0.0
C242 C 0.37615 0.68905 0.26598 0.0
C243 C 0.3911 0.71661 0.25627 0.0
C244 C 0.38062 0.72816 0.23063 0.0
C245 C 0.35452 0.71228 0.21513 0.0
C246 C 0.39673 0.75669 0.21937 0.0
C247 C 0.40199 0.78156 0.23655 0.0
C248 C 0.40526 0.75936 0.19047 0.0
C249 C 0.4184 0.78628 0.17886 0.0
C250 C 0.42291 0.8113 0.19572 0.0
C251 C 0.38741 0.67618 0.29287 0.0
C252 C 0.36641 0.65951 0.31153 0.0
C253 C 0.41906 0.67947 0.29965 0.0
C254 C 0.42934 0.66586 0.32394 0.0
C255 C 0.40827 0.64852 0.34206 0.0
C256 C 0.37668 0.64583 0.33569 0.0
C257 C 0.41468 0.80865 0.22475 0.0
H258 H 0.24115 0.62293 0.21727 0.0
H259 H 0.2876 0.64782 0.24479 0.0
H260 H 0.32668 0.68418 0.16527 0.0
H261 H 0.27937 0.66073 0.13846 0.0
H262 H 0.33956 0.65173 0.25619 0.0
H263 H 0.34588 0.72188 0.19612 0.0
H264 H 0.41095 0.72904 0.26848 0.0
H265 H 0.39545 0.78014 0.25882 0.0
H266 H 0.40149 0.74054 0.17673 0.0
H267 H 0.4243 0.7876 0.1564 0.0
H268 H 0.34189 0.65695 0.30747 0.0
H269 H 0.43594 0.69185 0.28569 0.0
H270 H 0.41804 0.82754 0.23831 0.0
H271 H 0.35979 0.63314 0.34944 0.0
H272 H 0.45384 0.66821 0.32802 0.0
C273 C 0.12664 0.26257 0.7049 0.0
C274 C 0.09448 0.25358 0.70123 0.0
C275 C 0.14046 0.28897 0.71796 0.0
C276 C 0.12259 0.3074 0.7275 0.0
C277 C 0.09035 0.29795 0.72483 0.0
C278 C 0.07647 0.27134 0.71191 0.0
C279 C 0.13768 0.33709 0.73808 0.0
C280 C 0.16345 0.35297 0.72423 0.0
C281 C 0.17774 0.3811 0.73276 0.0
C282 C 0.16577 0.39385 0.75534 0.0
C283 C 0.14047 0.37832 0.77049 0.0
C284 C 0.12654 0.34985 0.7614 0.0
C285 C 0.1292 0.39173 0.79596 0.0
C286 C 0.1495 0.41259 0.81333 0.0
C287 C 0.09817 0.38397 0.8033 0.0
C288 C 0.08793 0.39649 0.82709 0.0
C289 C 0.10817 0.41774 0.84412 0.0
C290 C 0.20566 0.39668 0.71816 0.0
C291 C 0.23059 0.38373 0.7158 0.0
C292 C 0.20727 0.42384 0.70562 0.0
C293 C 0.233 0.43743 0.69039 0.0
C294 C 0.25788 0.42438 0.68796 0.0
C295 C 0.25649 0.39752 0.7011 0.0
C296 C 0.13913 0.4256 0.83662 0.0
H297 H 0.1412 0.24919 0.69752 0.0
H298 H 0.16532 0.29511 0.72024 0.0
H299 H 0.07581 0.31158 0.73168 0.0
H300 H 0.05163 0.26516 0.70933 0.0
H301 H 0.17215 0.34371 0.70609 0.0
H302 H 0.10754 0.33719 0.77285 0.0
H303 H 0.17658 0.41586 0.76116 0.0
H304 H 0.17372 0.41892 0.80924 0.0
H305 H 0.08147 0.36838 0.79053 0.0
H306 H 0.06404 0.38921 0.83214 0.0
H307 H 0.23 0.36284 0.72534 0.0
H308 H 0.18831 0.43423 0.707 0.0
H309 H 0.15561 0.44214 0.8485 0.0
H310 H 0.2752 0.38686 0.69944 0.0
H311 H 0.23352 0.4582 0.68058 0.0
Tb312 Tb 0.96556 1.02684 0.5578 0.0
Tb313 Tb 0.03407 0.04393 0.55941 0.0
C314 C 0.90951 1.00181 0.55565 0.0
C315 C 0.88935 0.97527 0.566 0.0
C316 C 0.89892 0.94936 0.56871 0.0
C317 C 0.87952 0.92507 0.58047 0.0
C318 C 0.85041 0.92646 0.58978 0.0
C319 C 0.84099 0.95246 0.58648 0.0
C320 C 0.86021 0.9765 0.57463 0.0
C321 C 0.99125 0.07167 0.59075 0.0
C322 C 0.00512 0.99377 0.59786 0.0
C323 C 0.0894 0.07107 0.56236 0.0
C324 C 0.1107 0.08757 0.54159 0.0
C325 C 0.12196 0.11732 0.54535 0.0
C326 C 0.14143 0.13335 0.5254 0.0
C327 C 0.1502 0.11986 0.50147 0.0
C328 C 0.13922 0.09005 0.49795 0.0
C329 C 0.11965 0.07407 0.51775 0.0
C330 C 0.0094 0.99982 0.52522 0.0
C331 C 0.99411 0.07611 0.51673 0.0
O332 O 0.92831 0.99943 0.53555 0.0
O333 O 0.9225 1.02029 0.57574 0.0
O334 O 1.00064 0.04896 0.58848 0.0
O335 O 0.96593 0.0693 0.57522 0.0
O336 O 0.97994 0.99169 0.58107 0.0
O337 O 0.02771 1.01709 0.59766 0.0
O338 O 0.06671 0.08228 0.56928 0.0
O339 O 0.08055 0.04331 0.55819 0.0
O340 O 0.99923 1.02192 0.5287 0.0
O341 O 0.03577 1.0032 0.53912 0.0
O342 O 0.02109 0.07611 0.52995 0.0
O343 O 0.96923 0.05594 0.52157 0.0
H344 H 0.92146 0.94802 0.56221 0.0
H345 H 0.88742 0.90537 0.58256 0.0
H346 H 0.81915 0.95464 0.59404 0.0
H347 H 0.85257 0.99638 0.57288 0.0
H348 H 0.11552 0.12821 0.56362 0.0
H349 H 0.14975 0.15627 0.52878 0.0
H350 H 0.14526 0.07913 0.4795 0.0
H351 H 0.11134 0.05119 0.51413 0.0
Tb352 Tb 0.54301 0.04133 0.06467 0.0
Tb353 Tb 0.47692 1.02496 1.04549 0.0
C354 C 0.60038 0.05991 0.06833 0.0
C355 C 0.62159 0.08559 0.08068 0.0
C356 C 0.61251 0.11162 0.08333 0.0
C357 C 0.63214 0.13505 0.09746 0.0
C358 C 0.66082 0.13255 0.10957 0.0
C359 C 0.67002 0.10666 0.10632 0.0
C360 C 0.65059 0.08341 0.0919 0.0
C361 C 0.50905 1.00043 0.09581 0.0
C362 C 0.50014 0.07232 0.09459 0.0
C363 C 0.41948 1.00683 1.04117 0.0
C364 C 0.39778 0.98557 1.02269 0.0
C365 C 0.39438 0.95585 1.02698 0.0
C366 C 0.37454 0.9361 1.00864 0.0
C367 C 0.3578 0.94568 0.98564 0.0
C368 C 0.3607 0.97534 0.98175 0.0
C369 C 0.38036 0.99506 1.00018 0.0
C370 C 0.51093 0.06563 1.0141 0.0
C371 C 0.51997 0.99371 1.01502 0.0
O372 O 0.58312 0.0638 1.04564 0.0
O373 O 0.58504 0.04247 0.08719 0.0
O374 O 0.50702 1.00341 0.06877 0.0
O375 O 0.53195 1.02007 0.10626 0.0
O376 O 0.5284 0.0754 0.08617 0.0
O377 O 0.47736 0.0515 0.08417 0.0
O378 O 0.4373 0.99686 0.0599 0.0
O379 O 0.43428 1.03 1.0282 0.0
O380 O 0.51291 0.06285 1.04118 0.0
O381 O 0.48799 0.04592 1.00381 0.0
O382 O 0.49101 0.99322 1.01967 0.0
O383 O 0.54318 1.01161 1.0289 0.0
H384 H 0.59 0.11358 0.07523 0.0
H385 H 0.62442 0.1547 0.09995 0.0
H386 H 0.6921 0.10428 0.11536 0.0
H387 H 0.65787 0.06344 0.09017 0.0
H388 H 0.40729 0.94778 1.04425 0.0
H389 H 0.37284 0.91335 1.01203 0.0
H390 H 0.34772 0.98328 0.96445 0.0
H391 H 0.38219 1.01781 0.99661 0.0
Tb392 Tb 0.50085 0.5602 0.56162 0.0
Tb393 Tb 0.50593 0.50178 0.54288 0.0
C394 C 0.49307 0.61017 0.56604 0.0
C395 C 0.46758 0.62009 0.57807 0.0
C396 C 0.45744 0.64307 0.56515 0.0
C397 C 0.43107 0.65052 0.57445 0.0
C398 C 0.41435 0.635 0.59677 0.0
C399 C 0.42492 0.61224 0.60993 0.0
C400 C 0.45119 0.60478 0.60059 0.0
C401 C 0.52212 0.5295 0.60197 0.0
C402 C 0.44701 0.50901 0.57636 0.0
C403 C 0.51305 0.45145 0.53897 0.0
C404 C 0.53822 0.44 0.52831 0.0
C405 C 0.54452 0.41489 0.54041 0.0
C406 C 0.56931 0.40459 0.5313 0.0
C407 C 0.58809 0.41924 0.50986 0.0
C408 C 0.58171 0.44446 0.49785 0.0
C409 C 0.5571 0.45484 0.50711 0.0
C410 C 0.48466 0.53253 0.50259 0.0
C411 C 0.55938 0.55329 0.52799 0.0
O412 O 0.48555 0.59465 0.54258 0.0
O413 O 0.51035 0.59917 0.58446 0.0
O414 O 0.52841 0.53097 0.57567 0.0
O415 O 0.50482 0.54703 0.6068 0.0
O416 O 0.45518 0.53704 0.57221 0.0
O417 O 0.46431 0.49164 0.5683 0.0
O418 O 0.51994 0.4669 0.56253 0.0
O419 O 0.49746 0.46316 0.5196 0.0
O420 O 0.47837 0.53093 0.52889 0.0
O421 O 0.50206 0.51509 0.49769 0.0
O422 O 0.55195 0.52535 0.5331 0.0
O423 O 0.54141 0.57034 0.53512 0.0
H424 H 0.46948 0.65477 0.54739 0.0
H425 H 0.42332 0.66793 0.56362 0.0
H426 H 0.41286 0.60011 0.62743 0.0
H427 H 0.45834 0.58668 0.61062 0.0
H428 H 0.53039 0.40335 0.55702 0.0
H429 H 0.5736 0.38502 0.54081 0.0
H430 H 0.59607 0.45643 0.48162 0.0
H431 H 0.55298 0.47458 0.49785 0.0
Tb432 Tb 0.00404 0.56674 1.03215 0.0
Tb433 Tb 0.00595 0.51782 0.07249 0.0
C434 C 0.98796 0.60458 1.00105 0.0
C435 C 0.96161 0.61796 0.9999 0.0
C436 C 0.93482 0.60548 1.01417 0.0
C437 C 0.9091 0.61737 1.01128 0.0
C438 C 0.90981 0.6419 0.99406 0.0
C439 C 0.93704 0.65465 0.98038 0.0
C440 C 0.9627 0.64276 0.98331 0.0
C441 C 0.05767 0.56926 0.05964 0.0
C442 C 0.97654 0.56558 0.09511 0.0
C443 C 0.02495 0.48236 0.1045 0.0
C444 C 0.05294 0.47126 0.10633 0.0
C445 C 0.08153 0.48875 0.09947 0.0
C446 C 0.10829 0.47856 0.10337 0.0
C447 C 0.10683 0.45064 0.11395 0.0
C448 C 0.07795 0.4329 0.11972 0.0
C449 C 0.05128 0.44318 0.11605 0.0
C450 C 0.9519 0.51417 1.04527 0.0
C451 C 0.03192 0.51819 1.00895 0.0
O452 O 0.98151 0.57727 0.9944 0.0
O453 O 0.00685 0.61051 1.02382 0.0
O454 O 0.03155 0.56091 0.06967 0.0
O455 O 0.05451 0.57884 1.03365 0.0
O456 O 0.97694 0.57542 0.06818 0.0
O457 O 0.98891 0.54395 0.1027 0.0
O458 O 0.02888 0.5096 0.11086 0.0
O459 O 0.0064 0.47476 0.08171 0.0
O460 O 0.97793 0.52353 1.03507 0.0
O461 O 0.95582 0.50379 0.07082 0.0
O462 O 0.03234 0.50881 1.03603 0.0
O463 O 0.01937 0.53977 1.00148 0.0
H464 H 0.93358 0.58624 1.02706 0.0
H465 H 0.88859 0.6072 1.02228 0.0
H466 H 0.93819 0.67326 0.96658 0.0
H467 H 0.98318 0.65255 0.97207 0.0
H468 H 0.08328 0.51049 0.09171 0.0
H469 H 0.13015 0.49282 0.0989 0.0
H470 H 0.07597 0.41107 0.12731 0.0
H471 H 0.02939 0.42934 0.1212 0.0
C472 C 0.22798 0.18811 0.35927 0.0
C473 C 0.25463 0.21002 0.36408 0.0
C474 C 0.21183 0.17399 0.38243 0.0
C475 C 0.22267 0.18183 0.41113 0.0
C476 C 0.24971 0.20371 0.41619 0.0
C477 C 0.26537 0.21759 0.39258 0.0
C478 C 0.18312 0.15069 0.37616 0.0
C479 C 0.26195 0.21259 0.44652 0.0
C480 C 0.16416 0.16254 0.46892 0.0
C481 C 0.17012 0.13679 0.47975 0.0
C482 C 0.18156 0.17779 0.447 0.0
C483 C 0.20554 0.16707 0.43577 0.0
C484 C 0.21218 0.14149 0.44716 0.0
C485 C 0.19434 0.12662 0.46898 0.0
C486 C 0.17369 0.20491 0.43526 0.0
C487 C 0.2377 0.12949 0.43585 0.0
H488 H 0.21985 0.18182 0.33731 0.0
H489 H 0.28575 0.23471 0.39644 0.0
H490 H 0.18589 0.13013 0.38598 0.0
H491 H 0.16322 0.15633 0.38604 0.0
H492 H 0.17768 0.14727 0.35259 0.0
H493 H 0.28357 0.22964 0.44677 0.0
H494 H 0.24455 0.22062 0.45815 0.0
H495 H 0.26638 0.19374 0.45871 0.0
H496 H 0.14525 0.1703 0.47697 0.0
H497 H 0.19925 0.10691 0.47758 0.0
H498 H 0.16575 0.20179 0.41218 0.0
H499 H 0.19441 0.22293 0.4363 0.0
H500 H 0.15539 0.21113 0.44732 0.0
H501 H 0.23253 0.12361 0.41272 0.0
H502 H 0.24089 0.11016 0.448 0.0
H503 H 0.25968 0.14603 0.43719 0.0
C504 C 0.27339 0.8248 0.87216 0.0
C505 C 0.24559 0.83029 0.86098 0.0
C506 C 0.29099 0.84207 0.89407 0.0
C507 C 0.28038 0.86521 0.90527 0.0
C508 C 0.25169 0.87007 0.89505 0.0
C509 C 0.23471 0.85264 0.87292 0.0
C510 C 0.3215 0.83625 0.90442 0.0
C511 C 0.23954 0.89444 0.90661 0.0
C512 C 0.31754 0.90039 0.97551 0.0
C513 C 0.33795 0.92488 0.96525 0.0
C514 C 0.29855 0.88073 0.95626 0.0
C515 C 0.3003 0.88561 0.92611 0.0
C516 C 0.32106 0.91018 0.91567 0.0
C517 C 0.33956 0.92956 0.93538 0.0
C518 C 0.27647 0.8549 0.96814 0.0
C519 C 0.32383 0.91597 0.88365 0.0
H520 H 0.28169 0.80726 0.8634 0.0
H521 H 0.21346 0.85728 0.86422 0.0
H522 H 0.34041 0.85457 0.89854 0.0
H523 H 0.32271 0.8343 0.92832 0.0
H524 H 0.32552 0.81632 0.89485 0.0
H525 H 0.21565 0.89371 0.89831 0.0
H526 H 0.24001 0.89381 0.93059 0.0
H527 H 0.25448 0.91528 0.90027 0.0
H528 H 0.31611 0.89687 0.99862 0.0
H529 H 0.35564 0.94827 0.9274 0.0
H530 H 0.28116 0.83486 0.95958 0.0
H531 H 0.25255 0.85526 0.96095 0.0
H532 H 0.27807 0.85413 0.99215 0.0
H533 H 0.33012 0.89766 0.87294 0.0
H534 H 0.34136 0.93591 0.87911 0.0
H535 H 0.30136 0.91799 0.87371 0.0
C536 C 0.56378 0.41876 0.72163 0.0
C537 C 0.58882 0.43264 0.73979 0.0
C538 C 0.55316 0.43306 0.69784 0.0
C539 C 0.56779 0.46203 0.69201 0.0
C540 C 0.59347 0.47594 0.70985 0.0
C541 C 0.60369 0.46111 0.73334 0.0
C542 C 0.52582 0.41736 0.67932 0.0
C543 C 0.6098 0.50677 0.70449 0.0
C544 C 0.55572 0.49633 0.61859 0.0
C545 C 0.53353 0.51162 0.62446 0.0
C546 C 0.56658 0.47953 0.64009 0.0
C547 C 0.55535 0.47838 0.6683 0.0
C548 C 0.53288 0.49379 0.67424 0.0
C549 C 0.52223 0.51012 0.65228 0.0
C550 C 0.59033 0.4633 0.6327 0.0
C551 C 0.52034 0.49336 0.70396 0.0
H552 H 0.55191 0.39689 0.72642 0.0
H553 H 0.62346 0.47192 0.74673 0.0
H554 H 0.5063 0.42773 0.68144 0.0
H555 H 0.53144 0.41865 0.6562 0.0
H556 H 0.51828 0.39437 0.68544 0.0
H557 H 0.63003 0.51422 0.71971 0.0
H558 H 0.61762 0.50928 0.68206 0.0
H559 H 0.59368 0.52096 0.70682 0.0
H560 H 0.56484 0.4977 0.59724 0.0
H561 H 0.50507 0.52188 0.65697 0.0
H562 H 0.58247 0.4403 0.63856 0.0
H563 H 0.6121 0.47198 0.64546 0.0
H564 H 0.59513 0.46479 0.60935 0.0
H565 H 0.5102 0.47091 0.71049 0.0
H566 H 0.50249 0.50598 0.70491 0.0
H567 H 0.53929 0.50231 0.72004 0.0
C568 C 0.93998 0.6454 0.23558 0.0
C569 C 0.90965 0.64899 0.23575 0.0
C570 C 0.95053 0.63283 0.21188 0.0
C571 C 0.93015 0.6226 0.18789 0.0
C572 C 0.89956 0.626 0.18782 0.0
C573 C 0.88989 0.63952 0.21137 0.0
C574 C 0.98355 0.63027 0.21268 0.0
C575 C 0.87679 0.61489 0.16304 0.0
C576 C 0.96304 0.60915 0.11593 0.0
C577 C 0.9628 0.5798 0.11779 0.0
C578 C 0.95257 0.62337 0.13851 0.0
C579 C 0.94066 0.60772 0.16325 0.0
C580 C 0.93938 0.57785 0.16471 0.0
C581 C 0.95088 0.56439 0.14225 0.0
C582 C 0.95516 0.65534 0.13631 0.0
C583 C 0.92603 0.56007 0.19014 0.0
H584 H 0.95556 0.65192 0.25421 0.0
H585 H 0.86668 0.64264 0.21049 0.0
H586 H 0.98439 0.60728 0.21324 0.0
H587 H 0.99468 0.63971 0.19281 0.0
H588 H 0.99713 0.64119 0.2318 0.0
H589 H 0.85365 0.61862 0.16646 0.0
H590 H 0.88512 0.62549 0.14259 0.0
H591 H 0.87462 0.59148 0.16024 0.0
H592 H 0.97247 0.62128 0.09724 0.0
H593 H 0.95042 0.54167 0.14379 0.0
H594 H 0.97034 0.66645 0.15442 0.0
H595 H 0.9323 0.66017 0.13825 0.0
H596 H 0.96463 0.66437 0.11557 0.0
H597 H 0.94026 0.56747 0.21013 0.0
H598 H 0.92484 0.53682 0.18716 0.0
H599 H 0.90254 0.5629 0.19349 0.0
C600 C 0.45939 0.19676 0.19053 0.0
C601 C 0.43284 0.20298 0.17699 0.0
C602 C 0.47303 0.17585 0.17926 0.0
C603 C 0.46057 0.16157 0.15326 0.0
C604 C 0.43465 0.16852 0.13883 0.0
C605 C 0.42077 0.18861 0.15115 0.0
C606 C 0.50023 0.16846 0.19559 0.0
C607 C 0.42112 0.1543 0.11061 0.0
C608 C 0.50737 0.12366 0.10796 0.0
C609 C 0.49286 0.0948 0.1125 0.0
C610 C 0.49776 0.14576 0.12179 0.0
C611 C 0.47381 0.13866 0.14132 0.0
C612 C 0.46047 0.10944 0.14733 0.0
C613 C 0.46975 0.08781 0.13236 0.0
C614 C 0.51183 0.17659 0.11403 0.0
C615 C 0.43558 0.10101 0.16873 0.0
H616 H 0.46944 0.208 0.21013 0.0
H617 H 0.39988 0.1924 0.14071 0.0
H618 H 0.49441 0.14544 0.20184 0.0
H619 H 0.52011 0.17165 0.18158 0.0
H620 H 0.5073 0.18166 0.21545 0.0
H621 H 0.40277 0.16405 0.10081 0.0
H622 H 0.43935 0.15595 0.09487 0.0
H623 H 0.4112 0.13112 0.11424 0.0
H624 H 0.52505 0.12903 0.0923 0.0
H625 H 0.45872 0.06544 0.13595 0.0
H626 H 0.51924 0.18973 0.13382 0.0
H627 H 0.49431 0.18583 0.10201 0.0
H628 H 0.53192 0.17853 0.10037 0.0
H629 H 0.44238 0.11326 0.18917 0.0
H630 H 0.43056 0.07767 0.17373 0.0
H631 H 0.41413 0.10635 0.1598 0.0
C632 C 0.04092 0.85255 0.67552 0.0
C633 C 0.06916 0.84995 0.66522 0.0
C634 C 0.02713 0.87475 0.66591 0.0
C635 C 0.04148 0.8944 0.64493 0.0
C636 C 0.06922 0.89121 0.63352 0.0
C637 C 0.08291 0.86935 0.64407 0.0
C638 C 0.99771 0.87771 0.6788 0.0
C639 C 0.08494 0.91138 0.61066 0.0
C640 C 0.99803 0.94076 0.60076 0.0
C641 C 0.01042 0.96794 0.61296 0.0
C642 C 0.00711 0.91633 0.61153 0.0
C643 C 0.02839 0.9191 0.6356 0.0
C644 C 0.03939 0.94623 0.64915 0.0
C645 C 0.03065 0.97045 0.63735 0.0
C646 C 0.99554 0.88804 0.5959 0.0
C647 C 0.06153 0.94992 0.67528 0.0
H648 H 0.02968 0.83743 0.6914 0.0
H649 H 0.10497 0.86812 0.63628 0.0
H650 H 1.00165 0.89862 0.69021 0.0
H651 H 0.97966 0.8776 0.66145 0.0
H652 H 0.98899 0.86021 0.69434 0.0
H653 H 0.10496 0.90454 0.60233 0.0
H654 H 0.06847 0.91267 0.59223 0.0
H655 H 0.09307 0.93334 0.61979 0.0
H656 H 0.9827 0.93882 0.58161 0.0
H657 H 0.04018 0.99147 0.6468 0.0
H658 H 0.98685 0.87058 0.61142 0.0
H659 H 0.0148 0.88233 0.58497 0.0
H660 H 0.97693 0.8889 0.57932 0.0
H661 H 0.05305 0.93338 0.6918 0.0
H662 H 0.065 0.97153 0.68525 0.0
H663 H 0.08415 0.94696 0.66889 0.0
C664 C 0.81457 0.43525 0.93982 0.0
C665 C 0.78748 0.44531 0.94005 0.0
C666 C 0.84109 0.44854 0.95643 0.0
C667 C 0.84103 0.47311 0.97318 0.0
C668 C 0.81435 0.48426 0.97253 0.0
C669 C 0.78782 0.47006 0.95631 0.0
C670 C 0.86894 0.43575 0.95667 0.0
C671 C 0.81359 0.51083 0.98951 0.0
C672 C 0.89735 0.4866 1.03862 0.0
C673 C 0.92267 0.50597 1.02757 0.0
C674 C 0.87041 0.47623 1.02134 0.0
C675 C 0.8684 0.48603 0.99248 0.0
C676 C 0.89336 0.5067 0.98167 0.0
C677 C 0.92037 0.51607 0.99921 0.0
C678 C 0.8446 0.45388 1.03362 0.0
C679 C 0.89188 0.51833 0.95132 0.0
H680 H 0.81509 0.41673 0.92678 0.0
H681 H 0.76712 0.47802 0.95702 0.0
H682 H 0.88921 0.45203 0.94971 0.0
H683 H 0.87446 0.42917 0.979 0.0
H684 H 0.86538 0.41671 0.94228 0.0
H685 H 0.7923 0.51846 0.98444 0.0
H686 H 0.81498 0.50621 1.013 0.0
H687 H 0.83376 0.52844 0.98491 0.0
H688 H 0.89896 0.47868 0.06054 0.0
H689 H 0.93985 0.53092 0.99051 0.0
H690 H 0.84106 0.43361 1.02112 0.0
H691 H 0.8228 0.46114 1.03161 0.0
H692 H 0.84932 0.44921 0.05674 0.0
H693 H 0.89212 0.50114 0.93551 0.0
H694 H 0.91153 0.53675 0.94745 0.0
H695 H 0.87014 0.52537 0.94708 0.0
C696 C 0.7217 0.63446 0.46746 0.0
C697 C 0.72463 0.62709 0.43857 0.0
C698 C 0.6955 0.62177 0.4826 0.0
C699 C 0.67105 0.60168 0.46842 0.0
C700 C 0.6737 0.59412 0.43933 0.0
C701 C 0.70051 0.6066 0.42492 0.0
C702 C 0.69386 0.63012 0.51374 0.0
C703 C 0.64798 0.57312 0.42325 0.0
C704 C 0.61203 0.55125 0.51316 0.0
C705 C 0.5882 0.5658 0.51327 0.0
C706 C 0.63922 0.56276 0.49892 0.0
C707 C 0.64241 0.58916 0.48383 0.0
C708 C 0.61824 0.60375 0.4836 0.0
C709 C 0.59162 0.59207 0.49856 0.0
C710 C 0.66463 0.54678 0.5002 0.0
C711 C 0.62034 0.63158 0.46727 0.0
H712 H 0.73965 0.65062 0.47826 0.0
H713 H 0.70251 0.60017 0.40287 0.0
H714 H 0.6748 0.6411 0.51578 0.0
H715 H 0.68888 0.61063 0.52752 0.0
H716 H 0.71555 0.64466 0.52221 0.0
H717 H 0.65343 0.56971 0.4006 0.0
H718 H 0.64319 0.5521 0.43452 0.0
H719 H 0.6266 0.58111 0.42293 0.0
H720 H 0.60959 0.53096 0.52451 0.0
H721 H 0.57317 0.60328 0.49821 0.0
H722 H 0.68604 0.56076 0.50987 0.0
H723 H 0.66959 0.54118 0.47805 0.0
H724 H 0.65874 0.52672 0.51312 0.0
H725 H 0.64024 0.64818 0.47604 0.0
H726 H 0.59922 0.63985 0.46855 0.0
H727 H 0.62424 0.62842 0.44417 0.0
C728 C 0.26064 0.40184 0.16514 0.0
C729 C 0.25639 0.37285 0.15754 0.0
C730 C 0.2399 0.41797 0.15464 0.0
C731 C 0.21441 0.40465 0.13627 0.0
C732 C 0.2117 0.3762 0.12651 0.0
C733 C 0.23279 0.36067 0.13722 0.0
C734 C 0.24383 0.44841 0.16516 0.0
C735 C 0.18499 0.36124 0.1068 0.0
C736 C 0.1383 0.42432 0.14512 0.0
C737 C 0.13528 0.44021 0.11997 0.0
C738 C 0.16429 0.41324 0.15087 0.0
C739 C 0.18811 0.41842 0.13113 0.0
C740 C 0.18576 0.43524 0.10615 0.0
C741 C 0.15927 0.44588 0.10079 0.0
C742 C 0.1659 0.39542 0.17782 0.0
C743 C 0.21082 0.44137 0.08477 0.0
H744 H 0.27887 0.41134 0.18083 0.0
H745 H 0.22985 0.3384 0.13089 0.0
H746 H 0.23922 0.46263 0.14721 0.0
H747 H 0.22705 0.44887 0.18187 0.0
H748 H 0.26733 0.45724 0.1748 0.0
H749 H 0.18849 0.34075 0.09811 0.0
H750 H 0.16369 0.35642 0.11901 0.0
H751 H 0.18133 0.37531 0.0884 0.0
H752 H 0.12023 0.42046 0.1604 0.0
H753 H 0.15703 0.45807 0.08125 0.0
H754 H 0.18709 0.40477 0.19116 0.0
H755 H 0.16698 0.37331 0.17176 0.0
H756 H 0.14575 0.39401 0.19128 0.0
H757 H 0.23351 0.44978 0.09612 0.0
H758 H 0.20693 0.45713 0.06803 0.0
H759 H 0.21191 0.42115 0.07382 0.0
C760 C 0.55657 0.2213 0.94109 0.0
C761 C 0.58255 0.22513 0.92435 0.0
C762 C 0.54513 0.19523 0.95552 0.0
C763 C 0.56015 0.17235 0.95357 0.0
C764 C 0.58629 0.17598 0.9367 0.0
C765 C 0.59698 0.20212 0.92216 0.0
C766 C 0.51701 0.19221 0.97303 0.0
C767 C 0.60313 0.15226 0.93413 0.0
C768 C 0.54644 0.11458 1.01222 0.0
C769 C 0.52476 0.0923 0.99828 0.0
C770 C 0.55851 0.14054 0.99785 0.0
C771 C 0.54832 0.14453 0.96891 0.0
C772 C 0.52655 0.12197 0.9547 0.0
C773 C 0.51522 0.0961 0.96947 0.0
C774 C 0.58196 0.1638 1.01375 0.0
C775 C 0.51481 0.12533 0.92401 0.0
H776 H 0.54543 0.23892 0.94342 0.0
H777 H 0.61668 0.20443 0.90893 0.0
H778 H 0.49885 0.17352 0.96518 0.0
H779 H 0.52279 0.18807 0.99602 0.0
H780 H 0.50752 0.21171 0.97187 0.0
H781 H 0.6235 0.15865 0.92071 0.0
H782 H 0.61085 0.14607 0.95593 0.0
H783 H 0.58743 0.13291 0.92435 0.0
H784 H 0.55375 0.11182 1.03451 0.0
H785 H 0.49839 0.079 0.95858 0.0
H786 H 0.57273 0.18326 1.01573 0.0
H787 H 0.60307 0.16999 1.00135 0.0
H788 H 0.58834 0.15696 1.03577 0.0
H789 H 0.50355 0.1437 0.9227 0.0
H790 H 0.49802 0.10573 0.91595 0.0
H791 H 0.53425 0.1302 0.90942 0.0
C792 C 0.94932 0.86398 0.42085 0.0
C793 C 0.92414 0.84388 0.43131 0.0
C794 C 0.96238 0.88968 0.43594 0.0
C795 C 0.95016 0.89549 0.46229 0.0
C796 C 0.92472 0.87534 0.47296 0.0
C797 C 0.91204 0.84988 0.45737 0.0
C798 C 0.9894 0.9106 0.42372 0.0
C799 C 0.91115 0.88049 0.50109 0.0
C800 C 0.00334 0.9478 0.51443 0.0
C801 C 0.99341 0.97325 0.50955 0.0
C802 C 0.98911 0.9223 0.49964 0.0
C803 C 0.96457 0.92226 0.47907 0.0
C804 C 0.95421 0.94788 0.4743 0.0
C805 C 0.96866 0.97305 0.48972 0.0
C806 C 1.00054 0.89544 0.50594 0.0
C807 C 0.92812 0.9488 0.45263 0.0
H808 H 0.95864 0.85977 0.40063 0.0
H809 H 0.89289 0.83436 0.46592 0.0
H810 H 0.98398 0.93195 0.42068 0.0
H811 H 0.00964 0.91346 0.43918 0.0
H812 H 0.99575 0.90331 0.40267 0.0
H813 H 0.89089 0.8631 0.50608 0.0
H814 H 0.92874 0.88203 0.51913 0.0
H815 H 0.90406 0.90122 0.50021 0.0
H816 H 0.02224 0.94777 0.53002 0.0
H817 H 0.96097 0.9927 0.48588 0.0
H818 H 0.00939 0.88822 0.48607 0.0
H819 H 0.98133 0.87783 0.51266 0.0
H820 H 0.01912 0.89881 0.52327 0.0
H821 H 0.93429 0.94349 0.43078 0.0
H822 H 0.92244 0.9702 0.45179 0.0
H823 H 0.90727 0.93241 0.45814 0.0
C824 C 0.25593 0.67751 0.62999 0.0
C825 C 0.25506 0.682 0.65981 0.0
C826 C 0.28046 0.66826 0.61853 0.0
C827 C 0.30465 0.66336 0.63736 0.0
C828 C 0.30339 0.66694 0.66753 0.0
C829 C 0.2787 0.67628 0.67836 0.0
C830 C 0.28098 0.66457 0.58623 0.0
C831 C 0.32871 0.66189 0.68833 0.0
C832 C 0.36006 0.62039 0.6124 0.0
C833 C 0.3858 0.64226 0.60617 0.0
C834 C 0.33327 0.62691 0.6221 0.0
C835 C 0.33212 0.65599 0.62553 0.0
C836 C 0.3578 0.67816 0.6188 0.0
C837 C 0.38433 0.67103 0.60925 0.0
C838 C 0.30637 0.60267 0.62907 0.0
C839 C 0.35748 0.70945 0.62225 0.0
H840 H 0.23759 0.68158 0.61555 0.0
H841 H 0.27856 0.68017 0.70137 0.0
H842 H 0.30078 0.68041 0.57773 0.0
H843 H 0.2841 0.64286 0.58114 0.0
H844 H 0.25956 0.66758 0.57472 0.0
H845 H 0.32333 0.66387 0.71128 0.0
H846 H 0.33276 0.64017 0.68497 0.0
H847 H 0.35047 0.67772 0.6842 0.0
H848 H 0.36082 0.59811 0.60959 0.0
H849 H 0.40422 0.68803 0.6048 0.0
H850 H 0.28546 0.60497 0.61625 0.0
H851 H 0.30144 0.60362 0.65224 0.0
H852 H 0.31068 0.58122 0.62456 0.0
H853 H 0.33753 0.71429 0.60967 0.0
H854 H 0.37884 0.72409 0.61497 0.0
H855 H 0.35486 0.71411 0.64528 0.0
C856 C 0.75113 0.85499 0.7122 0.0
C857 C 0.73434 0.8263 0.71061 0.0
C858 C 0.7701 0.86734 0.69012 0.0
C859 C 0.77316 0.85044 0.66604 0.0
C860 C 0.75712 0.82123 0.66457 0.0
C861 C 0.73764 0.80955 0.68676 0.0
C862 C 0.78662 0.89868 0.69247 0.0
C863 C 0.76039 0.80243 0.63951 0.0
C864 C 0.79847 0.89665 0.60107 0.0
C865 C 0.8306 0.90199 0.60499 0.0
C866 C 0.77925 0.87817 0.61962 0.0
C867 C 0.79245 0.86411 0.6422 0.0
C868 C 0.8247 0.86707 0.64439 0.0
C869 C 0.84345 0.8862 0.62591 0.0
C870 C 0.745 0.8758 0.61661 0.0
C871 C 0.83961 0.85184 0.66771 0.0
H872 H 0.74965 0.86792 0.73091 0.0
H873 H 0.72474 0.78741 0.68522 0.0
H874 H 0.81183 0.90085 0.69251 0.0
H875 H 0.78005 0.91068 0.67347 0.0
H876 H 0.78132 0.90893 0.7124 0.0
H877 H 0.74825 0.77964 0.64268 0.0
H878 H 0.75093 0.81039 0.61927 0.0
H879 H 0.78505 0.80342 0.63651 0.0
H880 H 0.78832 0.90812 0.5844 0.0
H881 H 0.86822 0.8901 0.62916 0.0
H882 H 0.738 0.88753 0.63469 0.0
H883 H 0.73218 0.85306 0.61792 0.0
H884 H 0.73808 0.88503 0.5959 0.0
H885 H 0.83975 0.86282 0.68872 0.0
H886 H 0.86373 0.85185 0.6631 0.0
H887 H 0.82646 0.82928 0.67009 0.0
C888 C 0.78823 0.24288 0.20272 0.0
C889 C 0.77506 0.25632 0.22381 0.0
C890 C 0.76986 0.22639 0.18072 0.0
C891 C 0.73755 0.22293 0.18019 0.0
C892 C 0.72441 0.23816 0.20021 0.0
C893 C 0.74341 0.25485 0.22173 0.0
C894 C 0.78482 0.21095 0.15944 0.0
C895 C 0.69007 0.23485 0.20054 0.0
C896 C 0.68788 0.1843 0.11688 0.0
C897 C 0.68025 0.15605 0.12732 0.0
C898 C 0.70665 0.20647 0.13375 0.0
C899 C 0.71743 0.20016 0.1618 0.0
C900 C 0.70928 0.1717 0.17253 0.0
C901 C 0.69098 0.14999 0.15508 0.0
C902 C 0.71525 0.23646 0.12149 0.0
C903 C 0.71988 0.16413 0.20251 0.0
H904 H 0.81277 0.24422 0.20422 0.0
H905 H 0.73318 0.26506 0.23819 0.0
H906 H 0.77998 0.18772 0.16482 0.0
H907 H 0.77522 0.21296 0.13715 0.0
H908 H 0.81015 0.21936 0.15984 0.0
H909 H 0.68392 0.25117 0.21454 0.0
H910 H 0.68008 0.23663 0.17838 0.0
H911 H 0.67928 0.21319 0.20883 0.0
H912 H 0.67961 0.18892 0.09535 0.0
H913 H 0.68467 0.1282 0.16329 0.0
H914 H 0.74061 0.24344 0.12044 0.0
H915 H 0.70797 0.25179 0.13587 0.0
H916 H 0.70463 0.23789 0.09948 0.0
H917 H 0.74536 0.16877 0.20433 0.0
H918 H 0.71072 0.14114 0.20786 0.0
H919 H 0.71241 0.17752 0.21886 0.0
C920 C 0.40417 0.60389 0.37237 0.0
C921 C 0.41904 0.63258 0.36699 0.0
C922 C 0.41436 0.58825 0.39523 0.0
C923 C 0.44003 0.60155 0.4134 0.0
C924 C 0.4549 0.63063 0.40838 0.0
C925 C 0.44434 0.64573 0.3852 0.0
C926 C 0.39798 0.55725 0.39955 0.0
C927 C 0.48215 0.64573 0.42736 0.0
C928 C 0.45106 0.56576 0.48619 0.0
C929 C 0.47341 0.55066 0.48025 0.0
C930 C 0.44045 0.58291 0.4649 0.0
C931 C 0.45205 0.5846 0.43681 0.0
C932 C 0.4746 0.56931 0.43078 0.0
C933 C 0.48503 0.55265 0.45255 0.0
C934 C 0.41661 0.599 0.47239 0.0
C935 C 0.48751 0.57031 0.40118 0.0
H936 H 0.38489 0.59337 0.35823 0.0
H937 H 0.45577 0.66796 0.38147 0.0
H938 H 0.41413 0.54317 0.39673 0.0
H939 H 0.39001 0.55399 0.4219 0.0
H940 H 0.37785 0.55028 0.38412 0.0
H941 H 0.49039 0.66869 0.4214 0.0
H942 H 0.47601 0.64449 0.45034 0.0
H943 H 0.50135 0.63486 0.42565 0.0
H944 H 0.44166 0.56397 0.50742 0.0
H945 H 0.50231 0.54103 0.44781 0.0
H946 H 0.39503 0.59066 0.45923 0.0
H947 H 0.42464 0.62213 0.46712 0.0
H948 H 0.41142 0.59697 0.49564 0.0
H949 H 0.46871 0.56191 0.38477 0.0
H950 H 0.50519 0.55751 0.40006 0.0
H951 H 0.49799 0.59286 0.39523 0.0
C952 C 0.11712 0.44214 0.89336 0.0
C953 C 0.09718 0.43177 0.86934 0.0
C954 C 0.10757 0.45632 0.9165 0.0
C955 C 0.0769 0.4595 0.91643 0.0
C956 C 0.05635 0.44847 0.89277 0.0
C957 C 0.06679 0.43524 0.86945 0.0
C958 C 0.1305 0.46823 0.94091 0.0
C959 C 0.02325 0.45076 0.892 0.0
C960 C 0.0449 0.47423 0.98845 0.0
C961 C 0.04497 0.50352 0.9861 0.0
C962 C 0.05503 0.45961 0.96596 0.0
C963 C 0.06642 0.47479 0.9408 0.0
C964 C 0.06741 0.50459 0.93877 0.0
C965 C 0.05625 0.51845 0.96117 0.0
C966 C 0.05274 0.42773 0.9688 0.0
C967 C 0.08021 0.52188 0.91286 0.0
H968 H 0.14038 0.43915 0.89432 0.0
H969 H 0.05105 0.42803 0.85108 0.0
H970 H 0.13224 0.49163 0.94329 0.0
H971 H 0.12262 0.45791 0.9616 0.0
H972 H 0.15376 0.46485 0.93737 0.0
H973 H 0.00962 0.43941 0.87312 0.0
H974 H 0.01234 0.4416 0.91208 0.0
H975 H 0.02217 0.47368 0.89104 0.0
H976 H 0.03595 0.46246 1.0075 0.0
H977 H 0.05657 0.54112 0.95925 0.0
H978 H 0.07572 0.42308 0.96709 0.0
H979 H 0.03768 0.41617 0.95084 0.0
H980 H 0.04333 0.41903 0.98966 0.0
H981 H 0.10379 0.51933 0.9095 0.0
H982 H 0.08101 0.54513 0.91528 0.0
H983 H 0.06588 0.51382 0.89311 0.0
C984 C 0.58589 0.89972 0.90603 0.0
C985 C 0.57349 0.86997 0.90815 0.0
C986 C 0.57431 0.91951 0.92156 0.0
C987 C 0.55051 0.90942 0.94068 0.0
C988 C 0.53747 0.87958 0.94271 0.0
C989 C 0.54875 0.86026 0.92607 0.0
C990 C 0.58841 0.95123 0.91829 0.0
C991 C 0.51252 0.86797 0.96338 0.0
C992 C 0.55147 0.95922 1.00392 0.0
C993 C 0.52696 0.97179 0.99609 0.0
C994 C 0.55853 0.93806 0.98659 0.0
C995 C 0.5413 0.93002 0.96026 0.0
C996 C 0.51648 0.9427 0.95222 0.0
C997 C 0.50923 0.96314 0.97057 0.0
C998 C 0.58457 0.92445 0.99638 0.0
C999 C 0.49825 0.93536 0.92389 0.0
H1000 H 0.60542 0.90774 0.89294 0.0
H1001 H 0.5384 0.83749 0.92752 0.0
H1002 H 0.57016 0.96331 0.91485 0.0
H1003 H 0.60193 0.95957 0.93839 0.0
H1004 H 0.60388 0.95572 0.89994 0.0
H1005 H 0.50371 0.84433 0.96136 0.0
H1006 H 0.52165 0.87301 0.98594 0.0
H1007 H 0.49303 0.87844 0.95957 0.0
H1008 H 0.56486 0.96563 1.02393 0.0
H1009 H 0.49029 0.97297 0.96456 0.0
H1010 H 0.60345 0.93023 0.98122 0.0
H1011 H 0.57659 0.90068 0.9962 0.0
H1012 H 0.59401 0.93143 1.01847 0.0
H1013 H 0.51365 0.94162 0.90569 0.0
H1014 H 0.47906 0.94643 0.92127 0.0
H1015 H 0.48868 0.91184 0.92224 0.0
C1016 C 0.96277 0.20425 0.41467 0.0
C1017 C 0.94608 0.21927 0.43106 0.0
C1018 C 0.97609 0.18297 0.42732 0.0
C1019 C 0.97238 0.17642 0.45699 0.0
C1020 C 0.95746 0.19294 0.47406 0.0
C1021 C 0.94454 0.21424 0.46088 0.0
C1022 C 0.99231 0.16622 0.4085 0.0
C1023 C 0.95308 0.18667 0.50581 0.0
C1024 C 0.96297 0.09947 0.48216 0.0
C1025 C 0.99079 0.10056 0.49793 0.0
C1026 C 0.95727 0.12379 0.46787 0.0
C1027 C 0.97999 0.14991 0.46925 0.0
C1028 C 0.00881 0.1508 0.48376 0.0
C1029 C 0.01387 0.12608 0.49801 0.0
C1030 C 0.92629 0.12183 0.45243 0.0
C1031 C 0.03372 0.17816 0.48544 0.0
H1032 H 0.96441 0.20841 0.39166 0.0
H1033 H 0.93154 0.22568 0.47361 0.0
H1034 H 0.01412 0.16363 0.41945 0.0
H1035 H 0.97755 0.14438 0.40461 0.0
H1036 H 0.99744 0.17676 0.38724 0.0
H1037 H 0.94416 0.20343 0.51668 0.0
H1038 H 0.93652 0.16566 0.50828 0.0
H1039 H 0.9751 0.18505 0.51703 0.0
H1040 H 0.94508 0.0798 0.48175 0.0
H1041 H 0.03544 0.12714 0.51018 0.0
H1042 H 0.92925 0.12939 0.42979 0.0
H1043 H 0.91386 0.13598 0.46328 0.0
H1044 H 0.91174 0.09958 0.45213 0.0
H1045 H 0.03661 0.18855 0.4639 0.0
H1046 H 0.05616 0.17425 0.4936 0.0
H1047 H 0.02709 0.19351 0.50025 0.0
C1048 C 0.21681 0.59737 0.1573 0.0
C1049 C 0.22755 0.62726 0.15954 0.0
C1050 C 0.18943 0.58525 0.14115 0.0
C1051 C 0.17207 0.60352 0.12769 0.0
C1052 C 0.18268 0.63373 0.13044 0.0
C1053 C 0.21049 0.64521 0.146 0.0
C1054 C 0.17931 0.55299 0.13812 0.0
C1055 C 0.16458 0.65398 0.11703 0.0
C1056 C 0.11504 0.58074 0.06379 0.0
C1057 C 0.08693 0.57503 0.07722 0.0
C1058 C 0.14304 0.58849 0.08013 0.0
C1059 C 0.14286 0.59133 0.11056 0.0
C1060 C 0.11448 0.5847 0.12428 0.0
C1061 C 0.08686 0.57627 0.10745 0.0
C1062 C 0.17279 0.59453 0.06474 0.0
C1063 C 0.11315 0.5879 0.15656 0.0
H1064 H 0.23018 0.58355 0.1677 0.0
H1065 H 0.21878 0.66832 0.14795 0.0
H1066 H 0.1561 0.54515 0.14656 0.0
H1067 H 0.17763 0.54694 0.11492 0.0
H1068 H 0.19542 0.54179 0.1498 0.0
H1069 H 0.17538 0.67684 0.12215 0.0
H1070 H 0.16262 0.65133 0.09319 0.0
H1071 H 0.1409 0.64877 0.12486 0.0
H1072 H 0.1151 0.57945 1.04042 0.0
H1073 H 0.06512 0.57183 0.1179 0.0
H1074 H 0.189 0.58274 0.07529 0.0
H1075 H 0.18388 0.61779 0.06615 0.0
H1076 H 0.16918 0.58832 1.04154 0.0
H1077 H 0.12835 0.57576 0.16818 0.0
H1078 H 0.08946 0.58024 0.16408 0.0
H1079 H 0.12164 0.61085 0.16265 0.0
C1080 C 0.28123 0.44804 0.64305 0.0
C1081 C 0.28505 0.43831 0.67139 0.0
C1082 C 0.30678 0.45974 0.62661 0.0
C1083 C 0.33692 0.46231 0.63899 0.0
C1084 C 0.34086 0.45311 0.66785 0.0
C1085 C 0.31491 0.44097 0.68356 0.0
C1086 C 0.30153 0.46881 0.59579 0.0
C1087 C 0.37251 0.45604 0.68213 0.0
C1088 C 0.40502 0.46735 0.59123 0.0
C1089 C 0.41806 0.497 0.5912 0.0
C1090 C 0.37822 0.45587 0.60609 0.0
C1091 C 0.36438 0.47439 0.62177 0.0
C1092 C 0.37733 0.50437 0.62165 0.0
C1093 C 0.4038 0.51529 0.60622 0.0
C1094 C 0.36484 0.42385 0.60519 0.0
C1095 C 0.36365 0.52489 0.63835 0.0
H1096 H 0.25819 0.44576 0.63347 0.0
H1097 H 0.31796 0.43369 0.70554 0.0
H1098 H 0.31265 0.49188 0.59297 0.0
H1099 H 0.31228 0.45646 0.58089 0.0
H1100 H 0.27671 0.46539 0.58934 0.0
H1101 H 0.37165 0.44883 0.70503 0.0
H1102 H 0.38548 0.44316 0.67018 0.0
H1103 H 0.38556 0.47878 0.68142 0.0
H1104 H 0.41573 0.45305 0.5796 0.0
H1105 H 0.41372 0.53823 0.60652 0.0
H1106 H 0.3403 0.41936 0.59753 0.0
H1107 H 0.36574 0.41475 0.62727 0.0
H1108 H 0.37732 0.41256 0.5908 0.0
H1109 H 0.33921 0.52278 0.63119 0.0
H1110 H 0.37614 0.54765 0.63565 0.0
H1111 H 0.3642 0.51946 0.66171 0.0
C1112 C 0.78022 0.70001 0.91273 0.0
C1113 C 0.7581 0.70841 0.92885 0.0
C1114 C 0.80356 0.68879 0.92626 0.0
C1115 C 0.80485 0.68583 0.95672 0.0
C1116 C 0.78246 0.69401 0.97318 0.0
C1117 C 0.75937 0.70535 0.95903 0.0
C1118 C 0.82715 0.68053 0.90793 0.0
C1119 C 0.78304 0.69093 1.00567 0.0
C1120 C 0.85317 0.63434 0.98275 0.0
C1121 C 0.88182 0.65324 0.98873 0.0
C1122 C 0.8273 0.64474 0.97402 0.0
C1123 C 0.83023 0.67472 0.97103 0.0
C1124 C 0.85864 0.69394 0.97859 0.0
C1125 C 0.88408 0.68296 0.98742 0.0
C1126 C 0.79735 0.62357 0.96632 0.0
C1127 C 0.86268 0.72606 0.97577 0.0
H1128 H 0.77969 0.70282 0.88946 0.0
H1129 H 0.74221 0.71169 0.97154 0.0
H1130 H 0.85042 0.69352 0.91432 0.0
H1131 H 0.8274 0.65762 0.91153 0.0
H1132 H 0.82259 0.68381 0.88447 0.0
H1133 H 0.7635 0.69757 1.01524 0.0
H1134 H 0.78222 0.66828 1.01177 0.0
H1135 H 0.80484 0.70422 1.01534 0.0
H1136 H 0.85126 0.61134 0.98349 0.0
H1137 H 0.90602 0.69767 0.99256 0.0
H1138 H 0.79278 0.62341 0.94253 0.0
H1139 H 0.77796 0.63001 0.9763 0.0
H1140 H 0.79774 0.60138 0.97339 0.0
H1141 H 0.86114 0.73187 0.95255 0.0
H1142 H 0.8852 0.7381 0.98533 0.0
H1143 H 0.84407 0.73314 0.98645 0.0
C1144 C 0.42078 0.86261 0.18561 0.0
C1145 C 0.43554 0.84001 0.18266 0.0
C1146 C 0.4315 0.88929 0.17198 0.0
C1147 C 0.45797 0.89369 0.15541 0.0
C1148 C 0.47328 0.87108 0.15284 0.0
C1149 C 0.46174 0.8445 0.16626 0.0
C1150 C 0.41419 0.9126 0.17491 0.0
C1151 C 0.50185 0.87494 0.13582 0.0
C1152 C 0.47282 0.95182 0.09727 0.0
C1153 C 0.49448 0.97392 0.11153 0.0
C1154 C 0.46013 0.92595 0.1115 0.0
C1155 C 0.46967 0.92183 0.1406 0.0
C1156 C 0.49128 0.94425 0.15518 0.0
C1157 C 0.50325 0.97006 0.14054 0.0
C1158 C 0.43683 0.90284 0.09524 0.0
C1159 C 0.50239 0.9407 0.18604 0.0
H1160 H 0.40031 0.85916 0.19797 0.0
H1161 H 0.47337 0.82719 0.16408 0.0
H1162 H 0.42968 0.93215 0.18453 0.0
H1163 H 0.40602 0.91862 0.15321 0.0
H1164 H 0.39407 0.90583 0.18857 0.0
H1165 H 0.51155 0.85557 0.13657 0.0
H1166 H 0.49651 0.87973 0.11289 0.0
H1167 H 0.51968 0.89351 0.14444 0.0
H1168 H 0.46609 0.95456 0.07479 0.0
H1169 H 0.52003 0.98703 0.15167 0.0
H1170 H 0.41543 0.89682 0.10723 0.0
H1171 H 0.4459 0.88326 0.09353 0.0
H1172 H 0.43101 0.90975 0.07309 0.0
H1173 H 0.4826 0.93529 0.2002 0.0
H1174 H 0.51868 0.96039 0.19456 0.0
H1175 H 0.51404 0.9226 0.1874 0.0
C1176 C 0.09202 0.21938 0.65975 0.0
C1177 C 0.07999 0.22626 0.68549 0.0
C1178 C 0.07845 0.19403 0.64432 0.0
C1179 C 0.05229 0.1748 0.65495 0.0
C1180 C 0.04023 0.18144 0.68108 0.0
C1181 C 0.05407 0.20712 0.69591 0.0
C1182 C 0.09182 0.18808 0.61636 0.0
C1183 C 0.01259 0.16144 0.69335 0.0
C1184 C 0.99813 0.12372 0.60234 0.0
C1185 C 0.00734 0.09789 0.607 0.0
C1186 C 0.01277 0.1489 0.61752 0.0
C1187 C 0.03698 0.14821 0.63826 0.0
C1188 C 0.04643 0.12212 0.64299 0.0
C1189 C 0.03164 0.09733 0.62715 0.0
C1190 C 1.0023 0.17626 0.61131 0.0
C1191 C 0.072 0.12036 0.66495 0.0
H1192 H 0.11177 0.23419 0.65129 0.0
H1193 H 0.04479 0.21208 0.7159 0.0
H1194 H 0.09804 0.16695 0.61749 0.0
H1195 H 0.07439 0.18696 0.59824 0.0
H1196 H 0.1126 0.20485 0.61133 0.0
H1197 H 0.00663 0.16916 0.71437 0.0
H1198 H 0.99243 0.15923 0.67789 0.0
H1199 H 0.01704 0.13971 0.69649 0.0
H1200 H 0.97952 0.12434 0.5866 0.0
H1201 H 0.03885 0.0774 0.63079 0.0
H1202 H 0.02198 0.19348 0.60474 0.0
H1203 H 0.99366 0.18372 0.63117 0.0
H1204 H 0.98381 0.17344 0.59392 0.0
H1205 H 0.09348 0.13587 0.65939 0.0
H1206 H 0.07652 0.0985 0.66622 0.0
H1207 H 0.06605 0.12638 0.68665 0.0
C1208 C 0.74239 0.38596 0.45369 0.0
C1209 C 0.73854 0.35668 0.44744 0.0
C1210 C 0.71871 0.3963 0.46541 0.0
C1211 C 0.69041 0.37693 0.47073 0.0
C1212 C 0.68664 0.34726 0.46506 0.0
C1213 C 0.7108 0.33748 0.45359 0.0
C1214 C 0.72372 0.42805 0.47147 0.0
C1215 C 0.65673 0.32597 0.4702 0.0
C1216 C 0.63473 0.39945 0.52004 0.0
C1217 C 0.61428 0.4083 0.49996 0.0
C1218 C 0.65977 0.38938 0.51088 0.0
C1219 C 0.66424 0.38786 0.48093 0.0
C1220 C 0.64356 0.39664 0.46058 0.0
C1221 C 0.61892 0.40686 0.47035 0.0
C1222 C 0.68152 0.38049 0.53323 0.0
C1223 C 0.64737 0.39507 0.42844 0.0
H1224 H 0.76392 0.40082 0.44921 0.0
H1225 H 0.70758 0.31489 0.44845 0.0
H1226 H 0.70775 0.4373 0.45731 0.0
H1227 H 0.71858 0.43151 0.49417 0.0
H1228 H 0.74764 0.43997 0.46777 0.0
H1229 H 0.65797 0.30348 0.4659 0.0
H1230 H 0.6503 0.32748 0.49286 0.0
H1231 H 0.63805 0.33112 0.45596 0.0
H1232 H 0.6314 0.40084 0.54297 0.0
H1233 H 0.60296 0.41339 0.45476 0.0
H1234 H 0.70524 0.39344 0.53064 0.0
H1235 H 0.68191 0.35764 0.53001 0.0
H1236 H 0.67499 0.38323 0.55568 0.0
H1237 H 0.6701 0.4084 0.42285 0.0
H1238 H 0.62919 0.40259 0.41547 0.0
H1239 H 0.64669 0.37262 0.42213 0.0
loop_
_geom_bond_atom_site_label_1
_geom_bond_atom_site_label_2
_geom_bond_distance
_geom_bond_site_symmetry_2
_ccdc_geom_bond_type
C0 C1 1.386 . S
C0 C2 1.397 . S
C0 H24 0.931 . S
C1 C0 1.386 . S
C1 C5 1.397 . S
C2 C0 1.397 . S
C2 C3 1.384 . S
C2 H25 0.930 . S
C3 C2 1.384 . S
C3 C4 1.377 . S
C3 C6 1.481 . S
C4 C3 1.377 . S
C4 C5 1.389 . S
C4 H26 0.929 . S
C5 C1 1.397 . S
C5 C4 1.389 . S
C5 H27 0.931 . S
C6 C3 1.481 . S
C6 C7 1.387 . S
C6 C11 1.390 . S
C7 C6 1.387 . S
C7 C8 1.401 . S
C7 H28 0.930 . S
C8 C7 1.401 . S
C8 C9 1.376 . S
C8 C17 1.511 . S
C9 C8 1.376 . S
C9 C10 1.392 . S
C9 H30 0.931 . S
C10 C9 1.392 . S
C10 C11 1.361 . S
C10 C12 1.500 . S
C11 C6 1.390 . S
C11 C10 1.361 . S
C11 H29 0.931 . S
C12 C10 1.500 . S
C12 C13 1.371 . S
C12 C14 1.365 . S
C13 C12 1.371 . S
C13 C23 1.386 . S
C13 H31 0.931 . S
C14 C12 1.365 . S
C14 C15 1.409 . S
C14 H32 0.929 . S
C15 C14 1.409 . S
C15 C16 1.380 . S
C15 H33 0.930 . S
C16 C15 1.380 . S
C16 C23 1.357 . S
C17 C8 1.511 . S
C17 C18 1.341 . S
C17 C19 1.371 . S
C18 C17 1.341 . S
C18 C22 1.394 . S
C18 H34 0.930 . S
C19 C17 1.371 . S
C19 C20 1.392 . S
C19 H35 0.931 . S
C20 C19 1.392 . S
C20 C21 1.331 . S
C20 H38 0.932 . S
C21 C20 1.331 . S
C21 C22 1.336 . S
C22 C18 1.394 . S
C22 C21 1.336 . S
C22 H37 0.929 . S
C23 C13 1.386 . S
C23 C16 1.357 . S
C23 H36 0.928 . S
H24 C0 0.931 . S
H25 C2 0.930 . S
H26 C4 0.929 . S
H27 C5 0.931 . S
H28 C7 0.930 . S
H29 C11 0.931 . S
H30 C9 0.931 . S
H31 C13 0.931 . S
H32 C14 0.929 . S
H33 C15 0.930 . S
H34 C18 0.930 . S
H35 C19 0.931 . S
H36 C23 0.928 . S
H37 C22 0.929 . S
H38 C20 0.932 . S
C39 C40 1.386 . S
C39 C41 1.397 . S
C39 H63 0.931 . S
C40 C39 1.386 . S
C40 C44 1.397 . S
C41 C39 1.397 . S
C41 C42 1.384 . S
C41 H64 0.930 . S
C42 C41 1.384 . S
C42 C43 1.377 . S
C42 C45 1.481 . S
C43 C42 1.377 . S
C43 C44 1.389 . S
C43 H65 0.929 . S
C44 C40 1.397 . S
C44 C43 1.389 . S
C44 H66 0.931 . S
C45 C42 1.481 . S
C45 C46 1.387 . S
C45 C50 1.390 . S
C46 C45 1.387 . S
C46 C47 1.401 . S
C46 H67 0.930 . S
C47 C46 1.401 . S
C47 C48 1.376 . S
C47 C56 1.511 . S
C48 C47 1.376 . S
C48 C49 1.392 . S
C48 H69 0.931 . S
C49 C48 1.392 . S
C49 C50 1.361 . S
C49 C51 1.500 . S
C50 C45 1.390 . S
C50 C49 1.361 . S
C50 H68 0.931 . S
C51 C49 1.500 . S
C51 C52 1.371 . S
C51 C53 1.365 . S
C52 C51 1.371 . S
C52 C62 1.386 . S
C52 H70 0.931 . S
C53 C51 1.365 . S
C53 C54 1.409 . S
C53 H71 0.929 . S
C54 C53 1.409 . S
C54 C55 1.380 . S
C54 H72 0.930 . S
C55 C54 1.380 . S
C55 C62 1.357 . S
C56 C47 1.511 . S
C56 C57 1.341 . S
C56 C58 1.371 . S
C57 C56 1.341 . S
C57 C61 1.394 . S
C57 H73 0.930 . S
C58 C56 1.371 . S
C58 C59 1.392 . S
C58 H74 0.931 . S
C59 C58 1.392 . S
C59 C60 1.331 . S
C59 H77 0.932 . S
C60 C59 1.331 . S
C60 C61 1.336 . S
C61 C57 1.394 . S
C61 C60 1.336 . S
C61 H76 0.929 . S
C62 C52 1.386 . S
C62 C55 1.357 . S
C62 H75 0.928 . S
H63 C39 0.931 . S
H64 C41 0.930 . S
H65 C43 0.929 . S
H66 C44 0.931 . S
H67 C46 0.930 . S
H68 C50 0.931 . S
H69 C48 0.931 . S
H70 C52 0.931 . S
H71 C53 0.929 . S
H72 C54 0.930 . S
H73 C57 0.930 . S
H74 C58 0.931 . S
H75 C62 0.928 . S
H76 C61 0.929 . S
H77 C59 0.932 . S
C78 C79 1.386 . S
C78 C80 1.397 . S
C78 H102 0.931 . S
C79 C78 1.386 . S
C79 C83 1.397 . S
C80 C78 1.397 . S
C80 C81 1.384 . S
C80 H103 0.930 . S
C81 C80 1.384 . S
C81 C82 1.377 . S
C81 C84 1.481 . S
C82 C81 1.377 . S
C82 C83 1.389 . S
C82 H104 0.929 . S
C83 C79 1.397 . S
C83 C82 1.389 . S
C83 H105 0.931 . S
C84 C81 1.481 . S
C84 C85 1.387 . S
C84 C89 1.390 . S
C85 C84 1.387 . S
C85 C86 1.401 . S
C85 H106 0.930 . S
C86 C85 1.401 . S
C86 C87 1.376 . S
C86 C95 1.511 . S
C87 C86 1.376 . S
C87 C88 1.392 . S
C87 H108 0.931 . S
C88 C87 1.392 . S
C88 C89 1.361 . S
C88 C90 1.500 . S
C89 C84 1.390 . S
C89 C88 1.361 . S
C89 H107 0.931 . S
C90 C88 1.500 . S
C90 C91 1.371 . S
C90 C92 1.365 . S
C91 C90 1.371 . S
C91 C101 1.386 . S
C91 H109 0.931 . S
C92 C90 1.365 . S
C92 C93 1.409 . S
C92 H110 0.929 . S
C93 C92 1.409 . S
C93 C94 1.380 . S
C93 H111 0.930 . S
C94 C93 1.380 . S
C94 C101 1.357 . S
C95 C86 1.511 . S
C95 C96 1.341 . S
C95 C97 1.371 . S
C96 C95 1.341 . S
C96 C100 1.394 . S
C96 H112 0.930 . S
C97 C95 1.371 . S
C97 C98 1.392 . S
C97 H113 0.931 . S
C98 C97 1.392 . S
C98 C99 1.331 . S
C98 H116 0.932 . S
C99 C98 1.331 . S
C99 C100 1.336 . S
C100 C96 1.394 . S
C100 C99 1.336 . S
C100 H115 0.929 . S
C101 C91 1.386 . S
C101 C94 1.357 . S
C101 H114 0.928 . S
H102 C78 0.931 . S
H103 C80 0.930 . S
H104 C82 0.929 . S
H105 C83 0.931 . S
H106 C85 0.930 . S
H107 C89 0.931 . S
H108 C87 0.931 . S
H109 C91 0.931 . S
H110 C92 0.929 . S
H111 C93 0.930 . S
H112 C96 0.930 . S
H113 C97 0.931 . S
H114 C101 0.928 . S
H115 C100 0.929 . S
H116 C98 0.932 . S
C117 C118 1.386 . S
C117 C119 1.397 . S
C117 H141 0.931 . S
C118 C117 1.386 . S
C118 C122 1.397 . S
C119 C117 1.397 . S
C119 C120 1.384 . S
C119 H142 0.930 . S
C120 C119 1.384 . S
C120 C121 1.377 . S
C120 C123 1.481 . S
C121 C120 1.377 . S
C121 C122 1.389 . S
C121 H143 0.929 . S
C122 C118 1.397 . S
C122 C121 1.389 . S
C122 H144 0.931 . S
C123 C120 1.481 . S
C123 C124 1.387 . S
C123 C128 1.390 . S
C124 C123 1.387 . S
C124 C125 1.401 . S
C124 H145 0.930 . S
C125 C124 1.401 . S
C125 C126 1.376 . S
C125 C134 1.511 . S
C126 C125 1.376 . S
C126 C127 1.392 . S
C126 H147 0.931 . S
C127 C126 1.392 . S
C127 C128 1.361 . S
C127 C129 1.500 . S
C128 C123 1.390 . S
C128 C127 1.361 . S
C128 H146 0.931 . S
C129 C127 1.500 . S
C129 C130 1.371 . S
C129 C131 1.365 . S
C130 C129 1.371 . S
C130 C140 1.386 . S
C130 H148 0.931 . S
C131 C129 1.365 . S
C131 C132 1.409 . S
C131 H149 0.929 . S
C132 C131 1.409 . S
C132 C133 1.380 . S
C132 H150 0.930 . S
C133 C132 1.380 . S
C133 C140 1.357 . S
C134 C125 1.511 . S
C134 C135 1.341 . S
C134 C136 1.371 . S
C135 C134 1.341 . S
C135 C139 1.394 . S
C135 H151 0.930 . S
C136 C134 1.371 . S
C136 C137 1.392 . S
C136 H152 0.931 . S
C137 C136 1.392 . S
C137 C138 1.331 . S
C137 H155 0.932 . S
C138 C137 1.331 . S
C138 C139 1.336 . S
C139 C135 1.394 . S
C139 C138 1.336 . S
C139 H154 0.929 . S
C140 C130 1.386 . S
C140 C133 1.357 . S
C140 H153 0.928 . S
H141 C117 0.931 . S
H142 C119 0.930 . S
H143 C121 0.929 . S
H144 C122 0.931 . S
H145 C124 0.930 . S
H146 C128 0.931 . S
H147 C126 0.931 . S
H148 C130 0.931 . S
H149 C131 0.929 . S
H150 C132 0.930 . S
H151 C135 0.930 . S
H152 C136 0.931 . S
H153 C140 0.928 . S
H154 C139 0.929 . S
H155 C137 0.932 . S
C156 C157 1.386 . S
C156 C158 1.397 . S
C156 H180 0.931 . S
C157 C156 1.386 . S
C157 C161 1.397 . S
C158 C156 1.397 . S
C158 C159 1.384 . S
C158 H181 0.930 . S
C159 C158 1.384 . S
C159 C160 1.377 . S
C159 C162 1.481 . S
C160 C159 1.377 . S
C160 C161 1.389 . S
C160 H182 0.929 . S
C161 C157 1.397 . S
C161 C160 1.389 . S
C161 H183 0.931 . S
C162 C159 1.481 . S
C162 C163 1.387 . S
C162 C167 1.390 . S
C163 C162 1.387 . S
C163 C164 1.401 . S
C163 H184 0.930 . S
C164 C163 1.401 . S
C164 C165 1.376 . S
C164 C173 1.511 . S
C165 C164 1.376 . S
C165 C166 1.392 . S
C165 H186 0.931 . S
C166 C165 1.392 . S
C166 C167 1.361 . S
C166 C168 1.500 . S
C167 C162 1.390 . S
C167 C166 1.361 . S
C167 H185 0.931 . S
C168 C166 1.500 . S
C168 C169 1.371 . S
C168 C170 1.365 . S
C169 C168 1.371 . S
C169 C179 1.386 . S
C169 H187 0.931 . S
C170 C168 1.365 . S
C170 C171 1.409 . S
C170 H188 0.929 . S
C171 C170 1.409 . S
C171 C172 1.380 . S
C171 H189 0.930 . S
C172 C171 1.380 . S
C172 C179 1.357 . S
C173 C164 1.511 . S
C173 C174 1.341 . S
C173 C175 1.371 . S
C174 C173 1.341 . S
C174 C178 1.394 . S
C174 H190 0.930 . S
C175 C173 1.371 . S
C175 C176 1.392 . S
C175 H191 0.931 . S
C176 C175 1.392 . S
C176 C177 1.331 . S
C176 H194 0.932 . S
C177 C176 1.331 . S
C177 C178 1.336 . S
C178 C174 1.394 . S
C178 C177 1.336 . S
C178 H193 0.929 . S
C179 C169 1.386 . S
C179 C172 1.357 . S
C179 H192 0.928 . S
H180 C156 0.931 . S
H181 C158 0.930 . S
H182 C160 0.929 . S
H183 C161 0.931 . S
H184 C163 0.930 . S
H185 C167 0.931 . S
H186 C165 0.931 . S
H187 C169 0.931 . S
H188 C170 0.929 . S
H189 C171 0.930 . S
H190 C174 0.930 . S
H191 C175 0.931 . S
H192 C179 0.928 . S
H193 C178 0.929 . S
H194 C176 0.932 . S
C195 C196 1.386 . S
C195 C197 1.397 . S
C195 H219 0.931 . S
C196 C195 1.386 . S
C196 C200 1.397 . S
C197 C195 1.397 . S
C197 C198 1.384 . S
C197 H220 0.930 . S
C198 C197 1.384 . S
C198 C199 1.377 . S
C198 C201 1.481 . S
C199 C198 1.377 . S
C199 C200 1.389 . S
C199 H221 0.929 . S
C200 C196 1.397 . S
C200 C199 1.389 . S
C200 H222 0.931 . S
C201 C198 1.481 . S
C201 C202 1.387 . S
C201 C206 1.390 . S
C202 C201 1.387 . S
C202 C203 1.401 . S
C202 H223 0.930 . S
C203 C202 1.401 . S
C203 C204 1.376 . S
C203 C212 1.511 . S
C204 C203 1.376 . S
C204 C205 1.392 . S
C204 H225 0.931 . S
C205 C204 1.392 . S
C205 C206 1.361 . S
C205 C207 1.500 . S
C206 C201 1.390 . S
C206 C205 1.361 . S
C206 H224 0.931 . S
C207 C205 1.500 . S
C207 C208 1.371 . S
C207 C209 1.365 . S
C208 C207 1.371 . S
C208 C218 1.386 . S
C208 H226 0.931 . S
C209 C207 1.365 . S
C209 C210 1.409 . S
C209 H227 0.929 . S
C210 C209 1.409 . S
C210 C211 1.380 . S
C210 H228 0.930 . S
C211 C210 1.380 . S
C211 C218 1.357 . S
C212 C203 1.511 . S
C212 C213 1.341 . S
C212 C214 1.371 . S
C213 C212 1.341 . S
C213 C217 1.394 . S
C213 H229 0.930 . S
C214 C212 1.371 . S
C214 C215 1.392 . S
C214 H230 0.931 . S
C215 C214 1.392 . S
C215 C216 1.331 . S
C215 H233 0.932 . S
C216 C215 1.331 . S
C216 C217 1.336 . S
C217 C213 1.394 . S
C217 C216 1.336 . S
C217 H232 0.929 . S
C218 C208 1.386 . S
C218 C211 1.357 . S
C218 H231 0.928 . S
H219 C195 0.931 . S
H220 C197 0.930 . S
H221 C199 0.929 . S
H222 C200 0.931 . S
H223 C202 0.930 . S
H224 C206 0.931 . S
H225 C204 0.931 . S
H226 C208 0.931 . S
H227 C209 0.929 . S
H228 C210 0.930 . S
H229 C213 0.930 . S
H230 C214 0.931 . S
H231 C218 0.928 . S
H232 C217 0.929 . S
H233 C215 0.932 . S
C234 C235 1.386 . S
C234 C236 1.397 . S
C234 H258 0.931 . S
C235 C234 1.386 . S
C235 C239 1.397 . S
C236 C234 1.397 . S
C236 C237 1.384 . S
C236 H259 0.930 . S
C237 C236 1.384 . S
C237 C238 1.377 . S
C237 C240 1.481 . S
C238 C237 1.377 . S
C238 C239 1.389 . S
C238 H260 0.929 . S
C239 C235 1.397 . S
C239 C238 1.389 . S
C239 H261 0.931 . S
C240 C237 1.481 . S
C240 C241 1.387 . S
C240 C245 1.390 . S
C241 C240 1.387 . S
C241 C242 1.401 . S
C241 H262 0.930 . S
C242 C241 1.401 . S
C242 C243 1.376 . S
C242 C251 1.511 . S
C243 C242 1.376 . S
C243 C244 1.392 . S
C243 H264 0.931 . S
C244 C243 1.392 . S
C244 C245 1.361 . S
C244 C246 1.500 . S
C245 C240 1.390 . S
C245 C244 1.361 . S
C245 H263 0.931 . S
C246 C244 1.500 . S
C246 C247 1.371 . S
C246 C248 1.365 . S
C247 C246 1.371 . S
C247 C257 1.386 . S
C247 H265 0.931 . S
C248 C246 1.365 . S
C248 C249 1.409 . S
C248 H266 0.929 . S
C249 C248 1.409 . S
C249 C250 1.380 . S
C249 H267 0.930 . S
C250 C249 1.380 . S
C250 C257 1.357 . S
C251 C242 1.511 . S
C251 C252 1.341 . S
C251 C253 1.371 . S
C252 C251 1.341 . S
C252 C256 1.394 . S
C252 H268 0.930 . S
C253 C251 1.371 . S
C253 C254 1.392 . S
C253 H269 0.931 . S
C254 C253 1.392 . S
C254 C255 1.331 . S
C254 H272 0.932 . S
C255 C254 1.331 . S
C255 C256 1.336 . S
C256 C252 1.394 . S
C256 C255 1.336 . S
C256 H271 0.929 . S
C257 C247 1.386 . S
C257 C250 1.357 . S
C257 H270 0.928 . S
H258 C234 0.931 . S
H259 C236 0.930 . S
H260 C238 0.929 . S
H261 C239 0.931 . S
H262 C241 0.930 . S
H263 C245 0.931 . S
H264 C243 0.931 . S
H265 C247 0.931 . S
H266 C248 0.929 . S
H267 C249 0.930 . S
H268 C252 0.930 . S
H269 C253 0.931 . S
H270 C257 0.928 . S
H271 C256 0.929 . S
H272 C254 0.932 . S
C273 C274 1.386 . S
C273 C275 1.397 . S
C273 H297 0.931 . S
C274 C273 1.386 . S
C274 C278 1.397 . S
C275 C273 1.397 . S
C275 C276 1.384 . S
C275 H298 0.930 . S
C276 C275 1.384 . S
C276 C277 1.377 . S
C276 C279 1.481 . S
C277 C276 1.377 . S
C277 C278 1.389 . S
C277 H299 0.929 . S
C278 C274 1.397 . S
C278 C277 1.389 . S
C278 H300 0.931 . S
C279 C276 1.481 . S
C279 C280 1.387 . S
C279 C284 1.390 . S
C280 C279 1.387 . S
C280 C281 1.401 . S
C280 H301 0.930 . S
C281 C280 1.401 . S
C281 C282 1.376 . S
C281 C290 1.511 . S
C282 C281 1.376 . S
C282 C283 1.392 . S
C282 H303 0.931 . S
C283 C282 1.392 . S
C283 C284 1.361 . S
C283 C285 1.500 . S
C284 C279 1.390 . S
C284 C283 1.361 . S
C284 H302 0.931 . S
C285 C283 1.500 . S
C285 C286 1.371 . S
C285 C287 1.365 . S
C286 C285 1.371 . S
C286 C296 1.386 . S
C286 H304 0.931 . S
C287 C285 1.365 . S
C287 C288 1.409 . S
C287 H305 0.929 . S
C288 C287 1.409 . S
C288 C289 1.380 . S
C288 H306 0.930 . S
C289 C288 1.380 . S
C289 C296 1.357 . S
C290 C281 1.511 . S
C290 C291 1.341 . S
C290 C292 1.371 . S
C291 C290 1.341 . S
C291 C295 1.394 . S
C291 H307 0.930 . S
C292 C290 1.371 . S
C292 C293 1.392 . S
C292 H308 0.931 . S
C293 C292 1.392 . S
C293 C294 1.331 . S
C293 H311 0.932 . S
C294 C293 1.331 . S
C294 C295 1.336 . S
C295 C291 1.394 . S
C295 C294 1.336 . S
C295 H310 0.929 . S
C296 C286 1.386 . S
C296 C289 1.357 . S
C296 H309 0.928 . S
H297 C273 0.931 . S
H298 C275 0.930 . S
H299 C277 0.929 . S
H300 C278 0.931 . S
H301 C280 0.930 . S
H302 C284 0.931 . S
H303 C282 0.931 . S
H304 C286 0.931 . S
H305 C287 0.929 . S
H306 C288 0.930 . S
H307 C291 0.930 . S
H308 C292 0.931 . S
H309 C296 0.928 . S
H310 C295 0.929 . S
H311 C293 0.932 . S
Tb312 C314 2.828 . S
Tb312 O332 2.513 . S
Tb312 O333 2.446 . S
Tb312 O334 2.647 1_665 S
Tb312 O335 2.387 1_565 S
Tb312 O336 2.397 1_655 S
Tb312 O340 2.346 . S
Tb312 O343 2.321 1_565 S
Tb313 C323 2.809 . S
Tb313 O334 2.325 . S
Tb313 O337 2.341 1_545 S
Tb313 O338 2.484 . S
Tb313 O339 2.440 . S
Tb313 O340 2.658 1_445 S
Tb313 O341 2.409 1_545 S
Tb313 O342 2.378 1_455 S
C314 Tb312 2.828 . S
C314 C315 1.514 . S
C314 O332 1.248 . S
C314 O333 1.266 . S
C315 C314 1.514 . S
C315 C316 1.359 . S
C315 C320 1.348 . S
C316 C315 1.359 . S
C316 C317 1.380 . S
C316 H344 0.929 . S
C317 C316 1.380 . S
C317 C318 1.347 . S
C317 H345 0.931 . S
C318 C317 1.347 . S
C318 C319 1.369 . S
C319 C318 1.369 . S
C319 C320 1.408 . S
C319 H346 0.930 . S
C320 C315 1.348 . S
C320 C319 1.408 . S
C320 H347 0.930 . S
C321 O334 1.281 . S
C321 O335 1.254 1_455 S
C322 O336 1.236 . S
C322 O337 1.266 . S
C323 Tb313 2.809 . S
C323 C324 1.514 . S
C323 O338 1.248 . S
C323 O339 1.266 . S
C324 C323 1.514 . S
C324 C325 1.359 . S
C324 C329 1.348 . S
C325 C324 1.359 . S
C325 C326 1.380 . S
C325 H348 0.929 . S
C326 C325 1.380 . S
C326 C327 1.347 . S
C326 H349 0.931 . S
C327 C326 1.347 . S
C327 C328 1.369 . S
C328 C327 1.369 . S
C328 C329 1.408 . S
C328 H350 0.930 . S
C329 C324 1.348 . S
C329 C328 1.408 . S
C329 H351 0.930 . S
C330 O340 1.281 . S
C330 O341 1.254 1_655 S
C331 O342 1.236 . S
C331 O343 1.266 . S
O332 Tb312 2.513 . S
O332 C314 1.248 . S
O333 Tb312 2.446 . S
O333 C314 1.266 . S
O334 Tb312 2.647 1_445 S
O334 Tb313 2.325 . S
O334 C321 1.281 . S
O335 Tb312 2.387 1_545 S
O335 C321 1.254 1_655 S
O336 Tb312 2.397 1_455 S
O336 C322 1.236 . S
O337 Tb313 2.341 1_565 S
O337 C322 1.266 . S
O338 Tb313 2.484 . S
O338 C323 1.248 . S
O339 Tb313 2.440 . S
O339 C323 1.266 . S
O340 Tb312 2.346 . S
O340 Tb313 2.658 1_665 S
O340 C330 1.281 . S
O341 Tb313 2.409 1_565 S
O341 C330 1.254 1_455 S
O342 Tb313 2.378 1_655 S
O342 C331 1.236 . S
O343 Tb312 2.321 1_545 S
O343 C331 1.266 . S
H344 C316 0.929 . S
H345 C317 0.931 . S
H346 C319 0.930 . S
H347 C320 0.930 . S
H348 C325 0.929 . S
H349 C326 0.931 . S
H350 C328 0.930 . S
H351 C329 0.930 . S
Tb352 C354 2.809 . S
Tb352 O372 2.484 . S
Tb352 O373 2.440 . S
Tb352 O374 2.658 1_545 S
Tb352 O375 2.409 1_545 S
Tb352 O376 2.378 . S
Tb352 O380 2.325 1_554 S
Tb352 O383 2.341 1_544 S
Tb353 C363 2.809 . S
Tb353 O374 2.325 1_556 S
Tb353 O377 2.341 1_566 S
Tb353 O378 2.484 . S
Tb353 O379 2.440 . S
Tb353 O380 2.658 1_565 S
Tb353 O381 2.409 1_565 S
Tb353 O382 2.378 . S
C354 Tb352 2.809 . S
C354 C355 1.514 . S
C354 O372 1.248 . S
C354 O373 1.266 . S
C355 C354 1.514 . S
C355 C356 1.359 . S
C355 C360 1.348 . S
C356 C355 1.359 . S
C356 C357 1.380 . S
C356 H384 0.929 . S
C357 C356 1.380 . S
C357 C358 1.347 . S
C357 H385 0.931 . S
C358 C357 1.347 . S
C358 C359 1.369 . S
C359 C358 1.369 . S
C359 C360 1.408 . S
C359 H386 0.930 . S
C360 C355 1.348 . S
C360 C359 1.408 . S
C360 H387 0.930 . S
C361 O374 1.281 . S
C361 O375 1.254 . S
C362 O376 1.236 . S
C362 O377 1.266 . S
C363 Tb353 2.809 . S
C363 C364 1.514 . S
C363 O378 1.248 . S
C363 O379 1.266 . S
C364 C363 1.514 . S
C364 C365 1.359 . S
C364 C369 1.348 . S
C365 C364 1.359 . S
C365 C366 1.380 . S
C365 H388 0.929 . S
C366 C365 1.380 . S
C366 C367 1.347 . S
C366 H389 0.931 . S
C367 C366 1.347 . S
C367 C368 1.369 . S
C368 C367 1.369 . S
C368 C369 1.408 . S
C368 H390 0.930 . S
C369 C364 1.348 . S
C369 C368 1.408 . S
C369 H391 0.930 . S
C370 O380 1.281 . S
C370 O381 1.254 . S
C371 O382 1.236 . S
C371 O383 1.266 . S
O372 Tb352 2.484 . S
O372 C354 1.248 . S
O373 Tb352 2.440 . S
O373 C354 1.266 . S
O374 Tb352 2.658 1_565 S
O374 Tb353 2.325 1_554 S
O374 C361 1.281 . S
O375 Tb352 2.409 1_565 S
O375 C361 1.254 . S
O376 Tb352 2.378 . S
O376 C362 1.236 . S
O377 Tb353 2.341 1_544 S
O377 C362 1.266 . S
O378 Tb353 2.484 . S
O378 C363 1.248 . S
O379 Tb353 2.440 . S
O379 C363 1.266 . S
O380 Tb352 2.325 1_556 S
O380 Tb353 2.658 1_545 S
O380 C370 1.281 . S
O381 Tb353 2.409 1_545 S
O381 C370 1.254 . S
O382 Tb353 2.378 . S
O382 C371 1.236 . S
O383 Tb352 2.341 1_566 S
O383 C371 1.266 . S
H384 C356 0.929 . S
H385 C357 0.931 . S
H386 C359 0.930 . S
H387 C360 0.930 . S
H388 C365 0.929 . S
H389 C366 0.931 . S
H390 C368 0.930 . S
H391 C369 0.930 . S
Tb392 C394 2.809 . S
Tb392 O412 2.484 . S
Tb392 O413 2.440 . S
Tb392 O414 2.658 . S
Tb392 O415 2.409 . S
Tb392 O416 2.378 . S
Tb392 O420 2.325 . S
Tb392 O423 2.341 . S
Tb393 C403 2.809 . S
Tb393 O414 2.325 . S
Tb393 O417 2.341 . S
Tb393 O418 2.484 . S
Tb393 O419 2.440 . S
Tb393 O420 2.658 . S
Tb393 O421 2.409 . S
Tb393 O422 2.378 . S
C394 Tb392 2.809 . S
C394 C395 1.514 . S
C394 O412 1.248 . S
C394 O413 1.266 . S
C395 C394 1.514 . S
C395 C396 1.359 . S
C395 C400 1.348 . S
C396 C395 1.359 . S
C396 C397 1.380 . S
C396 H424 0.929 . S
C397 C396 1.380 . S
C397 C398 1.347 . S
C397 H425 0.931 . S
C398 C397 1.347 . S
C398 C399 1.369 . S
C399 C398 1.369 . S
C399 C400 1.408 . S
C399 H426 0.930 . S
C400 C395 1.348 . S
C400 C399 1.408 . S
C400 H427 0.930 . S
C401 O414 1.281 . S
C401 O415 1.254 . S
C402 O416 1.236 . S
C402 O417 1.266 . S
C403 Tb393 2.809 . S
C403 C404 1.514 . S
C403 O418 1.248 . S
C403 O419 1.266 . S
C404 C403 1.514 . S
C404 C405 1.359 . S
C404 C409 1.348 . S
C405 C404 1.359 . S
C405 C406 1.380 . S
C405 H428 0.929 . S
C406 C405 1.380 . S
C406 C407 1.347 . S
C406 H429 0.931 . S
C407 C406 1.347 . S
C407 C408 1.369 . S
C408 C407 1.369 . S
C408 C409 1.408 . S
C408 H430 0.930 . S
C409 C404 1.348 . S
C409 C408 1.408 . S
C409 H431 0.930 . S
C410 O420 1.281 . S
C410 O421 1.254 . S
C411 O422 1.236 . S
C411 O423 1.266 . S
O412 Tb392 2.484 . S
O412 C394 1.248 . S
O413 Tb392 2.440 . S
O413 C394 1.266 . S
O414 Tb392 2.658 . S
O414 Tb393 2.325 . S
O414 C401 1.281 . S
O415 Tb392 2.409 . S
O415 C401 1.254 . S
O416 Tb392 2.378 . S
O416 C402 1.236 . S
O417 Tb393 2.341 . S
O417 C402 1.266 . S
O418 Tb393 2.484 . S
O418 C403 1.248 . S
O419 Tb393 2.440 . S
O419 C403 1.266 . S
O420 Tb392 2.325 . S
O420 Tb393 2.658 . S
O420 C410 1.281 . S
O421 Tb393 2.409 . S
O421 C410 1.254 . S
O422 Tb393 2.378 . S
O422 C411 1.236 . S
O423 Tb392 2.341 . S
O423 C411 1.266 . S
H424 C396 0.929 . S
H425 C397 0.931 . S
H426 C399 0.930 . S
H427 C400 0.930 . S
H428 C405 0.929 . S
H429 C406 0.931 . S
H430 C408 0.930 . S
H431 C409 0.930 . S
Tb432 C434 2.835 . S
Tb432 O452 2.518 . S
Tb432 O453 2.453 . S
Tb432 O454 2.638 1_656 S
Tb432 O455 2.385 1_656 S
Tb432 O456 2.393 1_556 S
Tb432 O460 2.339 . S
Tb432 O463 2.318 1_655 S
Tb433 C443 2.809 . S
Tb433 O454 2.325 . S
Tb433 O457 2.341 1_455 S
Tb433 O458 2.484 . S
Tb433 O459 2.440 . S
Tb433 O460 2.658 1_454 S
Tb433 O461 2.428 1_455 S
Tb433 O462 2.378 1_554 S
C434 Tb432 2.835 . S
C434 C435 1.514 . S
C434 O452 1.248 . S
C434 O453 1.266 . S
C435 C434 1.514 . S
C435 C436 1.359 . S
C435 C440 1.348 . S
C436 C435 1.359 . S
C436 C437 1.380 . S
C436 H464 0.929 . S
C437 C436 1.380 . S
C437 C438 1.347 . S
C437 H465 0.931 . S
C438 C437 1.347 . S
C438 C439 1.369 . S
C439 C438 1.369 . S
C439 C440 1.408 . S
C439 H466 0.930 . S
C440 C435 1.348 . S
C440 C439 1.408 . S
C440 H467 0.930 . S
C441 O454 1.281 . S
C441 O455 1.254 . S
C442 O456 1.236 . S
C442 O457 1.266 . S
C443 Tb433 2.809 . S
C443 C444 1.514 . S
C443 O458 1.248 . S
C443 O459 1.266 . S
C444 C443 1.514 . S
C444 C445 1.359 . S
C444 C449 1.348 . S
C445 C444 1.359 . S
C445 C446 1.380 . S
C445 H468 0.929 . S
C446 C445 1.380 . S
C446 C447 1.347 . S
C446 H469 0.931 . S
C447 C446 1.347 . S
C447 C448 1.369 . S
C448 C447 1.369 . S
C448 C449 1.408 . S
C448 H470 0.930 . S
C449 C444 1.348 . S
C449 C448 1.408 . S
C449 H471 0.930 . S
C450 O460 1.281 . S
C450 O461 1.233 1_556 S
C451 O462 1.236 . S
C451 O463 1.266 . S
O452 Tb432 2.518 . S
O452 C434 1.248 . S
O453 Tb432 2.453 . S
O453 C434 1.266 . S
O454 Tb432 2.638 1_454 S
O454 Tb433 2.325 . S
O454 C441 1.281 . S
O455 Tb432 2.385 1_454 S
O455 C441 1.254 . S
O456 Tb432 2.393 1_554 S
O456 C442 1.236 . S
O457 Tb433 2.341 1_655 S
O457 C442 1.266 . S
O458 Tb433 2.484 . S
O458 C443 1.248 . S
O459 Tb433 2.440 . S
O459 C443 1.266 . S
O460 Tb432 2.339 . S
O460 Tb433 2.658 1_656 S
O460 C450 1.281 . S
O461 Tb433 2.428 1_655 S
O461 C450 1.233 1_554 S
O462 Tb433 2.378 1_556 S
O462 C451 1.236 . S
O463 Tb432 2.318 1_455 S
O463 C451 1.266 . S
H464 C436 0.929 . S
H465 C437 0.931 . S
H466 C439 0.930 . S
H467 C440 0.930 . S
H468 C445 0.929 . S
H469 C446 0.931 . S
H470 C448 0.930 . S
H471 C449 0.930 . S
C472 C473 1.391 . S
C472 C474 1.394 . S
C472 H488 0.931 . S
C473 C472 1.391 . S
C473 C477 1.376 . S
C474 C472 1.394 . S
C474 C475 1.369 . S
C474 C478 1.531 . S
C475 C474 1.369 . S
C475 C476 1.410 . S
C475 C483 1.503 . S
C476 C475 1.410 . S
C476 C477 1.392 . S
C476 C479 1.511 . S
C477 C473 1.376 . S
C477 C476 1.392 . S
C477 H489 0.929 . S
C478 C474 1.531 . S
C478 H490 0.960 . S
C478 H491 0.962 . S
C478 H492 0.960 . S
C479 C476 1.511 . S
C479 H493 0.961 . S
C479 H494 0.961 . S
C479 H495 0.961 . S
C480 C481 1.370 . S
C480 C482 1.363 . S
C480 H496 0.931 . S
C481 C480 1.370 . S
C481 C485 1.408 . S
C482 C480 1.363 . S
C482 C483 1.370 . S
C482 C486 1.524 . S
C483 C475 1.503 . S
C483 C482 1.370 . S
C483 C484 1.403 . S
C484 C483 1.403 . S
C484 C485 1.404 . S
C484 C487 1.539 . S
C485 C481 1.408 . S
C485 C484 1.404 . S
C485 H497 0.930 . S
C486 C482 1.524 . S
C486 H498 0.956 . S
C486 H499 0.961 . S
C486 H500 0.961 . S
C487 C484 1.539 . S
C487 H501 0.958 . S
C487 H502 0.961 . S
C487 H503 0.960 . S
H488 C472 0.931 . S
H489 C477 0.929 . S
H490 C478 0.960 . S
H491 C478 0.962 . S
H492 C478 0.960 . S
H493 C479 0.961 . S
H494 C479 0.961 . S
H495 C479 0.961 . S
H496 C480 0.931 . S
H497 C485 0.930 . S
H498 C486 0.956 . S
H499 C486 0.961 . S
H500 C486 0.961 . S
H501 C487 0.958 . S
H502 C487 0.961 . S
H503 C487 0.960 . S
C504 C505 1.391 . S
C504 C506 1.394 . S
C504 H520 0.931 . S
C505 C504 1.391 . S
C505 C509 1.376 . S
C506 C504 1.394 . S
C506 C507 1.369 . S
C506 C510 1.531 . S
C507 C506 1.369 . S
C507 C508 1.410 . S
C507 C515 1.503 . S
C508 C507 1.410 . S
C508 C509 1.392 . S
C508 C511 1.511 . S
C509 C505 1.376 . S
C509 C508 1.392 . S
C509 H521 0.929 . S
C510 C506 1.531 . S
C510 H522 0.960 . S
C510 H523 0.962 . S
C510 H524 0.960 . S
C511 C508 1.511 . S
C511 H525 0.961 . S
C511 H526 0.961 . S
C511 H527 0.961 . S
C512 C513 1.370 . S
C512 C514 1.363 . S
C512 H528 0.931 . S
C513 C512 1.370 . S
C513 C517 1.408 . S
C514 C512 1.363 . S
C514 C515 1.370 . S
C514 C518 1.524 . S
C515 C507 1.503 . S
C515 C514 1.370 . S
C515 C516 1.403 . S
C516 C515 1.403 . S
C516 C517 1.404 . S
C516 C519 1.539 . S
C517 C513 1.408 . S
C517 C516 1.404 . S
C517 H529 0.930 . S
C518 C514 1.524 . S
C518 H530 0.956 . S
C518 H531 0.961 . S
C518 H532 0.961 . S
C519 C516 1.539 . S
C519 H533 0.958 . S
C519 H534 0.961 . S
C519 H535 0.960 . S
H520 C504 0.931 . S
H521 C509 0.929 . S
H522 C510 0.960 . S
H523 C510 0.962 . S
H524 C510 0.960 . S
H525 C511 0.961 . S
H526 C511 0.961 . S
H527 C511 0.961 . S
H528 C512 0.931 . S
H529 C517 0.930 . S
H530 C518 0.956 . S
H531 C518 0.961 . S
H532 C518 0.961 . S
H533 C519 0.958 . S
H534 C519 0.961 . S
H535 C519 0.960 . S
C536 C537 1.391 . S
C536 C538 1.394 . S
C536 H552 0.931 . S
C537 C536 1.391 . S
C537 C541 1.376 . S
C538 C536 1.394 . S
C538 C539 1.369 . S
C538 C542 1.531 . S
C539 C538 1.369 . S
C539 C540 1.410 . S
C539 C547 1.503 . S
C540 C539 1.410 . S
C540 C541 1.392 . S
C540 C543 1.511 . S
C541 C537 1.376 . S
C541 C540 1.392 . S
C541 H553 0.929 . S
C542 C538 1.531 . S
C542 H554 0.960 . S
C542 H555 0.962 . S
C542 H556 0.960 . S
C543 C540 1.511 . S
C543 H557 0.961 . S
C543 H558 0.961 . S
C543 H559 0.961 . S
C544 C545 1.370 . S
C544 C546 1.363 . S
C544 H560 0.931 . S
C545 C544 1.370 . S
C545 C549 1.408 . S
C546 C544 1.363 . S
C546 C547 1.370 . S
C546 C550 1.524 . S
C547 C539 1.503 . S
C547 C546 1.370 . S
C547 C548 1.403 . S
C548 C547 1.403 . S
C548 C549 1.404 . S
C548 C551 1.539 . S
C549 C545 1.408 . S
C549 C548 1.404 . S
C549 H561 0.930 . S
C550 C546 1.524 . S
C550 H562 0.956 . S
C550 H563 0.961 . S
C550 H564 0.961 . S
C551 C548 1.539 . S
C551 H565 0.958 . S
C551 H566 0.961 . S
C551 H567 0.960 . S
H552 C536 0.931 . S
H553 C541 0.929 . S
H554 C542 0.960 . S
H555 C542 0.962 . S
H556 C542 0.960 . S
H557 C543 0.961 . S
H558 C543 0.961 . S
H559 C543 0.961 . S
H560 C544 0.931 . S
H561 C549 0.930 . S
H562 C550 0.956 . S
H563 C550 0.961 . S
H564 C550 0.961 . S
H565 C551 0.958 . S
H566 C551 0.961 . S
H567 C551 0.960 . S
C568 C569 1.391 . S
C568 C570 1.394 . S
C568 H584 0.931 . S
C569 C568 1.391 . S
C569 C573 1.376 . S
C570 C568 1.394 . S
C570 C571 1.369 . S
C570 C574 1.531 . S
C571 C570 1.369 . S
C571 C572 1.410 . S
C571 C579 1.503 . S
C572 C571 1.410 . S
C572 C573 1.392 . S
C572 C575 1.511 . S
C573 C569 1.376 . S
C573 C572 1.392 . S
C573 H585 0.929 . S
C574 C570 1.531 . S
C574 H586 0.960 . S
C574 H587 0.962 . S
C574 H588 0.960 . S
C575 C572 1.511 . S
C575 H589 0.961 . S
C575 H590 0.961 . S
C575 H591 0.961 . S
C576 C577 1.370 . S
C576 C578 1.363 . S
C576 H592 0.931 . S
C577 C576 1.370 . S
C577 C581 1.408 . S
C578 C576 1.363 . S
C578 C579 1.370 . S
C578 C582 1.524 . S
C579 C571 1.503 . S
C579 C578 1.370 . S
C579 C580 1.403 . S
C580 C579 1.403 . S
C580 C581 1.404 . S
C580 C583 1.539 . S
C581 C577 1.408 . S
C581 C580 1.404 . S
C581 H593 0.930 . S
C582 C578 1.524 . S
C582 H594 0.956 . S
C582 H595 0.961 . S
C582 H596 0.961 . S
C583 C580 1.539 . S
C583 H597 0.958 . S
C583 H598 0.961 . S
C583 H599 0.960 . S
H584 C568 0.931 . S
H585 C573 0.929 . S
H586 C574 0.960 . S
H587 C574 0.962 . S
H588 C574 0.960 . S
H589 C575 0.961 . S
H590 C575 0.961 . S
H591 C575 0.961 . S
H592 C576 0.931 . S
H593 C581 0.930 . S
H594 C582 0.956 . S
H595 C582 0.961 . S
H596 C582 0.961 . S
H597 C583 0.958 . S
H598 C583 0.961 . S
H599 C583 0.960 . S
C600 C601 1.391 . S
C600 C602 1.394 . S
C600 H616 0.931 . S
C601 C600 1.391 . S
C601 C605 1.376 . S
C602 C600 1.394 . S
C602 C603 1.369 . S
C602 C606 1.531 . S
C603 C602 1.369 . S
C603 C604 1.410 . S
C603 C611 1.503 . S
C604 C603 1.410 . S
C604 C605 1.392 . S
C604 C607 1.511 . S
C605 C601 1.376 . S
C605 C604 1.392 . S
C605 H617 0.929 . S
C606 C602 1.531 . S
C606 H618 0.960 . S
C606 H619 0.962 . S
C606 H620 0.960 . S
C607 C604 1.511 . S
C607 H621 0.961 . S
C607 H622 0.961 . S
C607 H623 0.961 . S
C608 C609 1.370 . S
C608 C610 1.363 . S
C608 H624 0.931 . S
C609 C608 1.370 . S
C609 C613 1.408 . S
C610 C608 1.363 . S
C610 C611 1.370 . S
C610 C614 1.524 . S
C611 C603 1.503 . S
C611 C610 1.370 . S
C611 C612 1.403 . S
C612 C611 1.403 . S
C612 C613 1.404 . S
C612 C615 1.539 . S
C613 C609 1.408 . S
C613 C612 1.404 . S
C613 H625 0.930 . S
C614 C610 1.524 . S
C614 H626 0.956 . S
C614 H627 0.961 . S
C614 H628 0.961 . S
C615 C612 1.539 . S
C615 H629 0.958 . S
C615 H630 0.961 . S
C615 H631 0.960 . S
H616 C600 0.931 . S
H617 C605 0.929 . S
H618 C606 0.960 . S
H619 C606 0.962 . S
H620 C606 0.960 . S
H621 C607 0.961 . S
H622 C607 0.961 . S
H623 C607 0.961 . S
H624 C608 0.931 . S
H625 C613 0.930 . S
H626 C614 0.956 . S
H627 C614 0.961 . S
H628 C614 0.961 . S
H629 C615 0.958 . S
H630 C615 0.961 . S
H631 C615 0.960 . S
C632 C633 1.391 . S
C632 C634 1.394 . S
C632 H648 0.931 . S
C633 C632 1.391 . S
C633 C637 1.376 . S
C634 C632 1.394 . S
C634 C635 1.369 . S
C634 C638 1.531 . S
C635 C634 1.369 . S
C635 C636 1.410 . S
C635 C643 1.503 . S
C636 C635 1.410 . S
C636 C637 1.392 . S
C636 C639 1.511 . S
C637 C633 1.376 . S
C637 C636 1.392 . S
C637 H649 0.929 . S
C638 C634 1.531 . S
C638 H650 0.960 . S
C638 H651 0.962 1_455 S
C638 H652 0.960 . S
C639 C636 1.511 . S
C639 H653 0.961 . S
C639 H654 0.961 . S
C639 H655 0.961 . S
C640 C641 1.370 . S
C640 C642 1.363 . S
C640 H656 0.931 1_455 S
C641 C640 1.370 . S
C641 C645 1.408 . S
C642 C640 1.363 . S
C642 C643 1.370 . S
C642 C646 1.531 . S
C643 C635 1.503 . S
C643 C642 1.370 . S
C643 C644 1.403 . S
C644 C643 1.403 . S
C644 C645 1.404 . S
C644 C647 1.539 . S
C645 C641 1.408 . S
C645 C644 1.404 . S
C645 H657 0.930 . S
C646 C642 1.531 . S
C646 H658 0.947 1_455 S
C646 H659 0.974 . S
C646 H660 0.950 1_455 S
C647 C644 1.539 . S
C647 H661 0.958 . S
C647 H662 0.961 . S
C647 H663 0.960 . S
H648 C632 0.931 . S
H649 C637 0.929 . S
H650 C638 0.960 . S
H651 C638 0.962 1_655 S
H652 C638 0.960 . S
H653 C639 0.961 . S
H654 C639 0.961 . S
H655 C639 0.961 . S
H656 C640 0.931 1_655 S
H657 C645 0.930 . S
H658 C646 0.947 1_655 S
H659 C646 0.974 . S
H660 C646 0.950 1_655 S
H661 C647 0.958 . S
H662 C647 0.961 . S
H663 C647 0.960 . S
C664 C665 1.391 . S
C664 C666 1.394 . S
C664 H680 0.931 . S
C665 C664 1.391 . S
C665 C669 1.376 . S
C666 C664 1.394 . S
C666 C667 1.369 . S
C666 C670 1.531 . S
C667 C666 1.369 . S
C667 C668 1.410 . S
C667 C675 1.503 . S
C668 C667 1.410 . S
C668 C669 1.392 . S
C668 C671 1.511 . S
C669 C665 1.376 . S
C669 C668 1.392 . S
C669 H681 0.929 . S
C670 C666 1.531 . S
C670 H682 0.960 . S
C670 H683 0.962 . S
C670 H684 0.960 . S
C671 C668 1.511 . S
C671 H685 0.961 . S
C671 H686 0.961 . S
C671 H687 0.961 . S
C672 C673 1.370 . S
C672 C674 1.363 . S
C672 H688 0.931 . S
C673 C672 1.370 . S
C673 C677 1.408 . S
C674 C672 1.363 . S
C674 C675 1.370 . S
C674 C678 1.524 . S
C675 C667 1.503 . S
C675 C674 1.370 . S
C675 C676 1.403 . S
C676 C675 1.403 . S
C676 C677 1.404 . S
C676 C679 1.539 . S
C677 C673 1.408 . S
C677 C676 1.404 . S
C677 H689 0.930 . S
C678 C674 1.524 . S
C678 H690 0.956 . S
C678 H691 0.961 . S
C678 H692 0.961 . S
C679 C676 1.539 . S
C679 H693 0.958 . S
C679 H694 0.961 . S
C679 H695 0.960 . S
H680 C664 0.931 . S
H681 C669 0.929 . S
H682 C670 0.960 . S
H683 C670 0.962 . S
H684 C670 0.960 . S
H685 C671 0.961 . S
H686 C671 0.961 . S
H687 C671 0.961 . S
H688 C672 0.931 . S
H689 C677 0.930 . S
H690 C678 0.956 . S
H691 C678 0.961 . S
H692 C678 0.961 . S
H693 C679 0.958 . S
H694 C679 0.961 . S
H695 C679 0.960 . S
C696 C697 1.391 . S
C696 C698 1.394 . S
C696 H712 0.931 . S
C697 C696 1.391 . S
C697 C701 1.376 . S
C698 C696 1.394 . S
C698 C699 1.369 . S
C698 C702 1.531 . S
C699 C698 1.369 . S
C699 C700 1.410 . S
C699 C707 1.503 . S
C700 C699 1.410 . S
C700 C701 1.392 . S
C700 C703 1.511 . S
C701 C697 1.376 . S
C701 C700 1.392 . S
C701 H713 0.929 . S
C702 C698 1.531 . S
C702 H714 0.960 . S
C702 H715 0.962 . S
C702 H716 0.960 . S
C703 C700 1.511 . S
C703 H717 0.961 . S
C703 H718 0.961 . S
C703 H719 0.961 . S
C704 C705 1.370 . S
C704 C706 1.363 . S
C704 H720 0.931 . S
C705 C704 1.370 . S
C705 C709 1.408 . S
C706 C704 1.363 . S
C706 C707 1.370 . S
C706 C710 1.524 . S
C707 C699 1.503 . S
C707 C706 1.370 . S
C707 C708 1.403 . S
C708 C707 1.403 . S
C708 C709 1.404 . S
C708 C711 1.539 . S
C709 C705 1.408 . S
C709 C708 1.404 . S
C709 H721 0.930 . S
C710 C706 1.524 . S
C710 H722 0.956 . S
C710 H723 0.961 . S
C710 H724 0.961 . S
C711 C708 1.539 . S
C711 H725 0.958 . S
C711 H726 0.961 . S
C711 H727 0.960 . S
H712 C696 0.931 . S
H713 C701 0.929 . S
H714 C702 0.960 . S
H715 C702 0.962 . S
H716 C702 0.960 . S
H717 C703 0.961 . S
H718 C703 0.961 . S
H719 C703 0.961 . S
H720 C704 0.931 . S
H721 C709 0.930 . S
H722 C710 0.956 . S
H723 C710 0.961 . S
H724 C710 0.961 . S
H725 C711 0.958 . S
H726 C711 0.961 . S
H727 C711 0.960 . S
C728 C729 1.391 . S
C728 C730 1.394 . S
C728 H744 0.931 . S
C729 C728 1.391 . S
C729 C733 1.376 . S
C730 C728 1.394 . S
C730 C731 1.369 . S
C730 C734 1.531 . S
C731 C730 1.369 . S
C731 C732 1.410 . S
C731 C739 1.503 . S
C732 C731 1.410 . S
C732 C733 1.392 . S
C732 C735 1.511 . S
C733 C729 1.376 . S
C733 C732 1.392 . S
C733 H745 0.929 . S
C734 C730 1.531 . S
C734 H746 0.960 . S
C734 H747 0.962 . S
C734 H748 0.960 . S
C735 C732 1.511 . S
C735 H749 0.961 . S
C735 H750 0.961 . S
C735 H751 0.961 . S
C736 C737 1.370 . S
C736 C738 1.363 . S
C736 H752 0.931 . S
C737 C736 1.370 . S
C737 C741 1.408 . S
C738 C736 1.363 . S
C738 C739 1.370 . S
C738 C742 1.524 . S
C739 C731 1.503 . S
C739 C738 1.370 . S
C739 C740 1.403 . S
C740 C739 1.403 . S
C740 C741 1.404 . S
C740 C743 1.539 . S
C741 C737 1.408 . S
C741 C740 1.404 . S
C741 H753 0.930 . S
C742 C738 1.524 . S
C742 H754 0.956 . S
C742 H755 0.961 . S
C742 H756 0.961 . S
C743 C740 1.539 . S
C743 H757 0.958 . S
C743 H758 0.961 . S
C743 H759 0.960 . S
H744 C728 0.931 . S
H745 C733 0.929 . S
H746 C734 0.960 . S
H747 C734 0.962 . S
H748 C734 0.960 . S
H749 C735 0.961 . S
H750 C735 0.961 . S
H751 C735 0.961 . S
H752 C736 0.931 . S
H753 C741 0.930 . S
H754 C742 0.956 . S
H755 C742 0.961 . S
H756 C742 0.961 . S
H757 C743 0.958 . S
H758 C743 0.961 . S
H759 C743 0.960 . S
C760 C761 1.391 . S
C760 C762 1.394 . S
C760 H776 0.931 . S
C761 C760 1.391 . S
C761 C765 1.376 . S
C762 C760 1.394 . S
C762 C763 1.369 . S
C762 C766 1.531 . S
C763 C762 1.369 . S
C763 C764 1.410 . S
C763 C771 1.503 . S
C764 C763 1.410 . S
C764 C765 1.392 . S
C764 C767 1.511 . S
C765 C761 1.376 . S
C765 C764 1.392 . S
C765 H777 0.929 . S
C766 C762 1.531 . S
C766 H778 0.960 . S
C766 H779 0.962 . S
C766 H780 0.960 . S
C767 C764 1.511 . S
C767 H781 0.961 . S
C767 H782 0.961 . S
C767 H783 0.961 . S
C768 C769 1.370 . S
C768 C770 1.363 . S
C768 H784 0.931 . S
C769 C768 1.370 . S
C769 C773 1.408 . S
C770 C768 1.363 . S
C770 C771 1.370 . S
C770 C774 1.524 . S
C771 C763 1.503 . S
C771 C770 1.370 . S
C771 C772 1.403 . S
C772 C771 1.403 . S
C772 C773 1.404 . S
C772 C775 1.539 . S
C773 C769 1.408 . S
C773 C772 1.404 . S
C773 H785 0.930 . S
C774 C770 1.524 . S
C774 H786 0.956 . S
C774 H787 0.961 . S
C774 H788 0.961 . S
C775 C772 1.539 . S
C775 H789 0.958 . S
C775 H790 0.961 . S
C775 H791 0.960 . S
H776 C760 0.931 . S
H777 C765 0.929 . S
H778 C766 0.960 . S
H779 C766 0.962 . S
H780 C766 0.960 . S
H781 C767 0.961 . S
H782 C767 0.961 . S
H783 C767 0.961 . S
H784 C768 0.931 . S
H785 C773 0.930 . S
H786 C774 0.956 . S
H787 C774 0.961 . S
H788 C774 0.961 . S
H789 C775 0.958 . S
H790 C775 0.961 . S
H791 C775 0.960 . S
C792 C793 1.391 . S
C792 C794 1.394 . S
C792 H808 0.931 . S
C793 C792 1.391 . S
C793 C797 1.376 . S
C794 C792 1.394 . S
C794 C795 1.369 . S
C794 C798 1.531 . S
C795 C794 1.369 . S
C795 C796 1.410 . S
C795 C803 1.503 . S
C796 C795 1.410 . S
C796 C797 1.392 . S
C796 C799 1.511 . S
C797 C793 1.376 . S
C797 C796 1.392 . S
C797 H809 0.929 . S
C798 C794 1.531 . S
C798 H810 0.960 . S
C798 H811 0.962 . S
C798 H812 0.960 . S
C799 C796 1.511 . S
C799 H813 0.961 . S
C799 H814 0.961 . S
C799 H815 0.961 . S
C800 C801 1.370 . S
C800 C802 1.363 . S
C800 H816 0.931 . S
C801 C800 1.370 . S
C801 C805 1.408 . S
C802 C800 1.363 . S
C802 C803 1.370 . S
C802 C806 1.524 . S
C803 C795 1.503 . S
C803 C802 1.370 . S
C803 C804 1.403 . S
C804 C803 1.403 . S
C804 C805 1.404 . S
C804 C807 1.539 . S
C805 C801 1.408 . S
C805 C804 1.404 . S
C805 H817 0.930 . S
C806 C802 1.524 . S
C806 H818 0.956 . S
C806 H819 0.961 . S
C806 H820 0.961 . S
C807 C804 1.539 . S
C807 H821 0.958 . S
C807 H822 0.961 . S
C807 H823 0.960 . S
H808 C792 0.931 . S
H809 C797 0.929 . S
H810 C798 0.960 . S
H811 C798 0.962 . S
H812 C798 0.960 . S
H813 C799 0.961 . S
H814 C799 0.961 . S
H815 C799 0.961 . S
H816 C800 0.931 . S
H817 C805 0.930 . S
H818 C806 0.956 . S
H819 C806 0.961 . S
H820 C806 0.961 . S
H821 C807 0.958 . S
H822 C807 0.961 . S
H823 C807 0.960 . S
C824 C825 1.391 . S
C824 C826 1.394 . S
C824 H840 0.931 . S
C825 C824 1.391 . S
C825 C829 1.376 . S
C826 C824 1.394 . S
C826 C827 1.369 . S
C826 C830 1.531 . S
C827 C826 1.369 . S
C827 C828 1.410 . S
C827 C835 1.503 . S
C828 C827 1.410 . S
C828 C829 1.392 . S
C828 C831 1.511 . S
C829 C825 1.376 . S
C829 C828 1.392 . S
C829 H841 0.929 . S
C830 C826 1.531 . S
C830 H842 0.960 . S
C830 H843 0.962 . S
C830 H844 0.960 . S
C831 C828 1.511 . S
C831 H845 0.961 . S
C831 H846 0.961 . S
C831 H847 0.961 . S
C832 C833 1.370 . S
C832 C834 1.363 . S
C832 H848 0.931 . S
C833 C832 1.370 . S
C833 C837 1.408 . S
C834 C832 1.363 . S
C834 C835 1.370 . S
C834 C838 1.524 . S
C835 C827 1.503 . S
C835 C834 1.370 . S
C835 C836 1.403 . S
C836 C835 1.403 . S
C836 C837 1.404 . S
C836 C839 1.539 . S
C837 C833 1.408 . S
C837 C836 1.404 . S
C837 H849 0.930 . S
C838 C834 1.524 . S
C838 H850 0.956 . S
C838 H851 0.961 . S
C838 H852 0.961 . S
C839 C836 1.539 . S
C839 H853 0.958 . S
C839 H854 0.961 . S
C839 H855 0.960 . S
H840 C824 0.931 . S
H841 C829 0.929 . S
H842 C830 0.960 . S
H843 C830 0.962 . S
H844 C830 0.960 . S
H845 C831 0.961 . S
H846 C831 0.961 . S
H847 C831 0.961 . S
H848 C832 0.931 . S
H849 C837 0.930 . S
H850 C838 0.956 . S
H851 C838 0.961 . S
H852 C838 0.961 . S
H853 C839 0.958 . S
H854 C839 0.961 . S
H855 C839 0.960 . S
C856 C857 1.391 . S
C856 C858 1.394 . S
C856 H872 0.931 . S
C857 C856 1.391 . S
C857 C861 1.376 . S
C858 C856 1.394 . S
C858 C859 1.369 . S
C858 C862 1.531 . S
C859 C858 1.369 . S
C859 C860 1.410 . S
C859 C867 1.503 . S
C860 C859 1.410 . S
C860 C861 1.392 . S
C860 C863 1.511 . S
C861 C857 1.376 . S
C861 C860 1.392 . S
C861 H873 0.929 . S
C862 C858 1.531 . S
C862 H874 0.960 . S
C862 H875 0.962 . S
C862 H876 0.960 . S
C863 C860 1.511 . S
C863 H877 0.961 . S
C863 H878 0.961 . S
C863 H879 0.961 . S
C864 C865 1.370 . S
C864 C866 1.363 . S
C864 H880 0.931 . S
C865 C864 1.370 . S
C865 C869 1.408 . S
C866 C864 1.363 . S
C866 C867 1.370 . S
C866 C870 1.524 . S
C867 C859 1.503 . S
C867 C866 1.370 . S
C867 C868 1.403 . S
C868 C867 1.403 . S
C868 C869 1.404 . S
C868 C871 1.539 . S
C869 C865 1.408 . S
C869 C868 1.404 . S
C869 H881 0.930 . S
C870 C866 1.524 . S
C870 H882 0.956 . S
C870 H883 0.961 . S
C870 H884 0.961 . S
C871 C868 1.539 . S
C871 H885 0.958 . S
C871 H886 0.961 . S
C871 H887 0.960 . S
H872 C856 0.931 . S
H873 C861 0.929 . S
H874 C862 0.960 . S
H875 C862 0.962 . S
H876 C862 0.960 . S
H877 C863 0.961 . S
H878 C863 0.961 . S
H879 C863 0.961 . S
H880 C864 0.931 . S
H881 C869 0.930 . S
H882 C870 0.956 . S
H883 C870 0.961 . S
H884 C870 0.961 . S
H885 C871 0.958 . S
H886 C871 0.961 . S
H887 C871 0.960 . S
C888 C889 1.391 . S
C888 C890 1.394 . S
C888 H904 0.931 . S
C889 C888 1.391 . S
C889 C893 1.376 . S
C890 C888 1.394 . S
C890 C891 1.369 . S
C890 C894 1.531 . S
C891 C890 1.369 . S
C891 C892 1.410 . S
C891 C899 1.503 . S
C892 C891 1.410 . S
C892 C893 1.392 . S
C892 C895 1.511 . S
C893 C889 1.376 . S
C893 C892 1.392 . S
C893 H905 0.929 . S
C894 C890 1.531 . S
C894 H906 0.960 . S
C894 H907 0.962 . S
C894 H908 0.960 . S
C895 C892 1.511 . S
C895 H909 0.961 . S
C895 H910 0.961 . S
C895 H911 0.961 . S
C896 C897 1.370 . S
C896 C898 1.363 . S
C896 H912 0.931 . S
C897 C896 1.370 . S
C897 C901 1.408 . S
C898 C896 1.363 . S
C898 C899 1.370 . S
C898 C902 1.524 . S
C899 C891 1.503 . S
C899 C898 1.370 . S
C899 C900 1.403 . S
C900 C899 1.403 . S
C900 C901 1.404 . S
C900 C903 1.539 . S
C901 C897 1.408 . S
C901 C900 1.404 . S
C901 H913 0.930 . S
C902 C898 1.524 . S
C902 H914 0.956 . S
C902 H915 0.961 . S
C902 H916 0.961 . S
C903 C900 1.539 . S
C903 H917 0.958 . S
C903 H918 0.961 . S
C903 H919 0.960 . S
H904 C888 0.931 . S
H905 C893 0.929 . S
H906 C894 0.960 . S
H907 C894 0.962 . S
H908 C894 0.960 . S
H909 C895 0.961 . S
H910 C895 0.961 . S
H911 C895 0.961 . S
H912 C896 0.931 . S
H913 C901 0.930 . S
H914 C902 0.956 . S
H915 C902 0.961 . S
H916 C902 0.961 . S
H917 C903 0.958 . S
H918 C903 0.961 . S
H919 C903 0.960 . S
C920 C921 1.391 . S
C920 C922 1.394 . S
C920 H936 0.931 . S
C921 C920 1.391 . S
C921 C925 1.376 . S
C922 C920 1.394 . S
C922 C923 1.369 . S
C922 C926 1.531 . S
C923 C922 1.369 . S
C923 C924 1.410 . S
C923 C931 1.503 . S
C924 C923 1.410 . S
C924 C925 1.392 . S
C924 C927 1.511 . S
C925 C921 1.376 . S
C925 C924 1.392 . S
C925 H937 0.929 . S
C926 C922 1.531 . S
C926 H938 0.960 . S
C926 H939 0.962 . S
C926 H940 0.960 . S
C927 C924 1.511 . S
C927 H941 0.961 . S
C927 H942 0.961 . S
C927 H943 0.961 . S
C928 C929 1.370 . S
C928 C930 1.363 . S
C928 H944 0.931 . S
C929 C928 1.370 . S
C929 C933 1.408 . S
C930 C928 1.363 . S
C930 C931 1.370 . S
C930 C934 1.524 . S
C931 C923 1.503 . S
C931 C930 1.370 . S
C931 C932 1.403 . S
C932 C931 1.403 . S
C932 C933 1.404 . S
C932 C935 1.539 . S
C933 C929 1.408 . S
C933 C932 1.404 . S
C933 H945 0.930 . S
C934 C930 1.524 . S
C934 H946 0.956 . S
C934 H947 0.961 . S
C934 H948 0.961 . S
C935 C932 1.539 . S
C935 H949 0.958 . S
C935 H950 0.961 . S
C935 H951 0.960 . S
H936 C920 0.931 . S
H937 C925 0.929 . S
H938 C926 0.960 . S
H939 C926 0.962 . S
H940 C926 0.960 . S
H941 C927 0.961 . S
H942 C927 0.961 . S
H943 C927 0.961 . S
H944 C928 0.931 . S
H945 C933 0.930 . S
H946 C934 0.956 . S
H947 C934 0.961 . S
H948 C934 0.961 . S
H949 C935 0.958 . S
H950 C935 0.961 . S
H951 C935 0.960 . S
C952 C953 1.391 . S
C952 C954 1.394 . S
C952 H968 0.931 . S
C953 C952 1.391 . S
C953 C957 1.376 . S
C954 C952 1.394 . S
C954 C955 1.369 . S
C954 C958 1.531 . S
C955 C954 1.369 . S
C955 C956 1.410 . S
C955 C963 1.503 . S
C956 C955 1.410 . S
C956 C957 1.392 . S
C956 C959 1.511 . S
C957 C953 1.376 . S
C957 C956 1.392 . S
C957 H969 0.929 . S
C958 C954 1.531 . S
C958 H970 0.960 . S
C958 H971 0.962 . S
C958 H972 0.960 . S
C959 C956 1.511 . S
C959 H973 0.961 . S
C959 H974 0.961 . S
C959 H975 0.961 . S
C960 C961 1.370 . S
C960 C962 1.363 . S
C960 H976 0.931 . S
C961 C960 1.370 . S
C961 C965 1.408 . S
C962 C960 1.363 . S
C962 C963 1.370 . S
C962 C966 1.524 . S
C963 C955 1.503 . S
C963 C962 1.370 . S
C963 C964 1.403 . S
C964 C963 1.403 . S
C964 C965 1.404 . S
C964 C967 1.539 . S
C965 C961 1.408 . S
C965 C964 1.404 . S
C965 H977 0.930 . S
C966 C962 1.524 . S
C966 H978 0.956 . S
C966 H979 0.961 . S
C966 H980 0.961 . S
C967 C964 1.539 . S
C967 H981 0.958 . S
C967 H982 0.961 . S
C967 H983 0.960 . S
H968 C952 0.931 . S
H969 C957 0.929 . S
H970 C958 0.960 . S
H971 C958 0.962 . S
H972 C958 0.960 . S
H973 C959 0.961 . S
H974 C959 0.961 . S
H975 C959 0.961 . S
H976 C960 0.931 . S
H977 C965 0.930 . S
H978 C966 0.956 . S
H979 C966 0.961 . S
H980 C966 0.961 . S
H981 C967 0.958 . S
H982 C967 0.961 . S
H983 C967 0.960 . S
C984 C985 1.391 . S
C984 C986 1.394 . S
C984 H1000 0.931 . S
C985 C984 1.391 . S
C985 C989 1.376 . S
C986 C984 1.394 . S
C986 C987 1.369 . S
C986 C990 1.531 . S
C987 C986 1.369 . S
C987 C988 1.410 . S
C987 C995 1.503 . S
C988 C987 1.410 . S
C988 C989 1.392 . S
C988 C991 1.511 . S
C989 C985 1.376 . S
C989 C988 1.392 . S
C989 H1001 0.929 . S
C990 C986 1.531 . S
C990 H1002 0.960 . S
C990 H1003 0.962 . S
C990 H1004 0.960 . S
C991 C988 1.511 . S
C991 H1005 0.961 . S
C991 H1006 0.961 . S
C991 H1007 0.961 . S
C992 C993 1.370 . S
C992 C994 1.363 . S
C992 H1008 0.931 . S
C993 C992 1.370 . S
C993 C997 1.408 . S
C994 C992 1.363 . S
C994 C995 1.370 . S
C994 C998 1.524 . S
C995 C987 1.503 . S
C995 C994 1.370 . S
C995 C996 1.403 . S
C996 C995 1.403 . S
C996 C997 1.404 . S
C996 C999 1.539 . S
C997 C993 1.408 . S
C997 C996 1.404 . S
C997 H1009 0.930 . S
C998 C994 1.524 . S
C998 H1010 0.956 . S
C998 H1011 0.961 . S
C998 H1012 0.961 . S
C999 C996 1.539 . S
C999 H1013 0.958 . S
C999 H1014 0.961 . S
C999 H1015 0.960 . S
H1000 C984 0.931 . S
H1001 C989 0.929 . S
H1002 C990 0.960 . S
H1003 C990 0.962 . S
H1004 C990 0.960 . S
H1005 C991 0.961 . S
H1006 C991 0.961 . S
H1007 C991 0.961 . S
H1008 C992 0.931 . S
H1009 C997 0.930 . S
H1010 C998 0.956 . S
H1011 C998 0.961 . S
H1012 C998 0.961 . S
H1013 C999 0.958 . S
H1014 C999 0.961 . S
H1015 C999 0.960 . S
C1016 C1017 1.391 . S
C1016 C1018 1.394 . S
C1016 H1032 0.931 . S
C1017 C1016 1.391 . S
C1017 C1021 1.376 . S
C1018 C1016 1.394 . S
C1018 C1019 1.369 . S
C1018 C1022 1.531 1_655 S
C1019 C1018 1.369 . S
C1019 C1020 1.410 . S
C1019 C1027 1.503 . S
C1020 C1019 1.410 . S
C1020 C1021 1.392 . S
C1020 C1023 1.511 . S
C1021 C1017 1.376 . S
C1021 C1020 1.392 . S
C1021 H1033 0.929 . S
C1022 C1018 1.531 1_455 S
C1022 H1034 0.960 . S
C1022 H1035 0.962 . S
C1022 H1036 0.960 . S
C1023 C1020 1.511 . S
C1023 H1037 0.961 . S
C1023 H1038 0.961 . S
C1023 H1039 0.961 . S
C1024 C1025 1.370 . S
C1024 C1026 1.363 . S
C1024 H1040 0.931 . S
C1025 C1024 1.370 . S
C1025 C1029 1.408 . S
C1026 C1024 1.363 . S
C1026 C1027 1.370 . S
C1026 C1030 1.524 . S
C1027 C1019 1.503 . S
C1027 C1026 1.370 . S
C1027 C1028 1.403 . S
C1028 C1027 1.403 . S
C1028 C1029 1.404 . S
C1028 C1031 1.539 . S
C1029 C1025 1.408 . S
C1029 C1028 1.404 . S
C1029 H1041 0.930 . S
C1030 C1026 1.524 . S
C1030 H1042 0.956 . S
C1030 H1043 0.961 . S
C1030 H1044 0.961 . S
C1031 C1028 1.539 . S
C1031 H1045 0.958 . S
C1031 H1046 0.961 . S
C1031 H1047 0.960 . S
H1032 C1016 0.931 . S
H1033 C1021 0.929 . S
H1034 C1022 0.960 . S
H1035 C1022 0.962 . S
H1036 C1022 0.960 . S
H1037 C1023 0.961 . S
H1038 C1023 0.961 . S
H1039 C1023 0.961 . S
H1040 C1024 0.931 . S
H1041 C1029 0.930 . S
H1042 C1030 0.956 . S
H1043 C1030 0.961 . S
H1044 C1030 0.961 . S
H1045 C1031 0.958 . S
H1046 C1031 0.961 . S
H1047 C1031 0.960 . S
C1048 C1049 1.391 . S
C1048 C1050 1.394 . S
C1048 H1064 0.931 . S
C1049 C1048 1.391 . S
C1049 C1053 1.376 . S
C1050 C1048 1.394 . S
C1050 C1051 1.369 . S
C1050 C1054 1.531 . S
C1051 C1050 1.369 . S
C1051 C1052 1.410 . S
C1051 C1059 1.503 . S
C1052 C1051 1.410 . S
C1052 C1053 1.392 . S
C1052 C1055 1.511 . S
C1053 C1049 1.376 . S
C1053 C1052 1.392 . S
C1053 H1065 0.929 . S
C1054 C1050 1.531 . S
C1054 H1066 0.960 . S
C1054 H1067 0.962 . S
C1054 H1068 0.960 . S
C1055 C1052 1.511 . S
C1055 H1069 0.961 . S
C1055 H1070 0.961 . S
C1055 H1071 0.961 . S
C1056 C1057 1.370 . S
C1056 C1058 1.363 . S
C1056 H1072 0.931 . S
C1057 C1056 1.370 . S
C1057 C1061 1.408 . S
C1058 C1056 1.363 . S
C1058 C1059 1.370 . S
C1058 C1062 1.524 . S
C1059 C1051 1.503 . S
C1059 C1058 1.370 . S
C1059 C1060 1.403 . S
C1060 C1059 1.403 . S
C1060 C1061 1.404 . S
C1060 C1063 1.539 . S
C1061 C1057 1.408 . S
C1061 C1060 1.404 . S
C1061 H1073 0.930 . S
C1062 C1058 1.524 . S
C1062 H1074 0.956 . S
C1062 H1075 0.961 . S
C1062 H1076 0.961 . S
C1063 C1060 1.539 . S
C1063 H1077 0.958 . S
C1063 H1078 0.961 . S
C1063 H1079 0.960 . S
H1064 C1048 0.931 . S
H1065 C1053 0.929 . S
H1066 C1054 0.960 . S
H1067 C1054 0.962 . S
H1068 C1054 0.960 . S
H1069 C1055 0.961 . S
H1070 C1055 0.961 . S
H1071 C1055 0.961 . S
H1072 C1056 0.931 . S
H1073 C1061 0.930 . S
H1074 C1062 0.956 . S
H1075 C1062 0.961 . S
H1076 C1062 0.961 . S
H1077 C1063 0.958 . S
H1078 C1063 0.961 . S
H1079 C1063 0.960 . S
C1080 C1081 1.391 . S
C1080 C1082 1.394 . S
C1080 H1096 0.931 . S
C1081 C1080 1.391 . S
C1081 C1085 1.376 . S
C1082 C1080 1.394 . S
C1082 C1083 1.369 . S
C1082 C1086 1.531 . S
C1083 C1082 1.369 . S
C1083 C1084 1.410 . S
C1083 C1091 1.503 . S
C1084 C1083 1.410 . S
C1084 C1085 1.392 . S
C1084 C1087 1.511 . S
C1085 C1081 1.376 . S
C1085 C1084 1.392 . S
C1085 H1097 0.929 . S
C1086 C1082 1.531 . S
C1086 H1098 0.960 . S
C1086 H1099 0.962 . S
C1086 H1100 0.960 . S
C1087 C1084 1.511 . S
C1087 H1101 0.961 . S
C1087 H1102 0.961 . S
C1087 H1103 0.961 . S
C1088 C1089 1.370 . S
C1088 C1090 1.363 . S
C1088 H1104 0.931 . S
C1089 C1088 1.370 . S
C1089 C1093 1.408 . S
C1090 C1088 1.363 . S
C1090 C1091 1.370 . S
C1090 C1094 1.524 . S
C1091 C1083 1.503 . S
C1091 C1090 1.370 . S
C1091 C1092 1.403 . S
C1092 C1091 1.403 . S
C1092 C1093 1.404 . S
C1092 C1095 1.539 . S
C1093 C1089 1.408 . S
C1093 C1092 1.404 . S
C1093 H1105 0.930 . S
C1094 C1090 1.524 . S
C1094 H1106 0.956 . S
C1094 H1107 0.961 . S
C1094 H1108 0.961 . S
C1095 C1092 1.539 . S
C1095 H1109 0.958 . S
C1095 H1110 0.961 . S
C1095 H1111 0.960 . S
H1096 C1080 0.931 . S
H1097 C1085 0.929 . S
H1098 C1086 0.960 . S
H1099 C1086 0.962 . S
H1100 C1086 0.960 . S
H1101 C1087 0.961 . S
H1102 C1087 0.961 . S
H1103 C1087 0.961 . S
H1104 C1088 0.931 . S
H1105 C1093 0.930 . S
H1106 C1094 0.956 . S
H1107 C1094 0.961 . S
H1108 C1094 0.961 . S
H1109 C1095 0.958 . S
H1110 C1095 0.961 . S
H1111 C1095 0.960 . S
C1112 C1113 1.391 . S
C1112 C1114 1.394 . S
C1112 H1128 0.931 . S
C1113 C1112 1.391 . S
C1113 C1117 1.376 . S
C1114 C1112 1.394 . S
C1114 C1115 1.369 . S
C1114 C1118 1.531 . S
C1115 C1114 1.369 . S
C1115 C1116 1.410 . S
C1115 C1123 1.503 . S
C1116 C1115 1.410 . S
C1116 C1117 1.392 . S
C1116 C1119 1.511 . S
C1117 C1113 1.376 . S
C1117 C1116 1.392 . S
C1117 H1129 0.929 . S
C1118 C1114 1.531 . S
C1118 H1130 0.960 . S
C1118 H1131 0.962 . S
C1118 H1132 0.960 . S
C1119 C1116 1.511 . S
C1119 H1133 0.961 . S
C1119 H1134 0.961 . S
C1119 H1135 0.961 . S
C1120 C1121 1.370 . S
C1120 C1122 1.363 . S
C1120 H1136 0.931 . S
C1121 C1120 1.370 . S
C1121 C1125 1.408 . S
C1122 C1120 1.363 . S
C1122 C1123 1.370 . S
C1122 C1126 1.524 . S
C1123 C1115 1.503 . S
C1123 C1122 1.370 . S
C1123 C1124 1.403 . S
C1124 C1123 1.403 . S
C1124 C1125 1.404 . S
C1124 C1127 1.539 . S
C1125 C1121 1.408 . S
C1125 C1124 1.404 . S
C1125 H1137 0.930 . S
C1126 C1122 1.524 . S
C1126 H1138 0.956 . S
C1126 H1139 0.961 . S
C1126 H1140 0.961 . S
C1127 C1124 1.539 . S
C1127 H1141 0.958 . S
C1127 H1142 0.961 . S
C1127 H1143 0.960 . S
H1128 C1112 0.931 . S
H1129 C1117 0.929 . S
H1130 C1118 0.960 . S
H1131 C1118 0.962 . S
H1132 C1118 0.960 . S
H1133 C1119 0.961 . S
H1134 C1119 0.961 . S
H1135 C1119 0.961 . S
H1136 C1120 0.931 . S
H1137 C1125 0.930 . S
H1138 C1126 0.956 . S
H1139 C1126 0.961 . S
H1140 C1126 0.961 . S
H1141 C1127 0.958 . S
H1142 C1127 0.961 . S
H1143 C1127 0.960 . S
C1144 C1145 1.391 . S
C1144 C1146 1.394 . S
C1144 H1160 0.931 . S
C1145 C1144 1.391 . S
C1145 C1149 1.376 . S
C1146 C1144 1.394 . S
C1146 C1147 1.369 . S
C1146 C1150 1.531 . S
C1147 C1146 1.369 . S
C1147 C1148 1.410 . S
C1147 C1155 1.503 . S
C1148 C1147 1.410 . S
C1148 C1149 1.392 . S
C1148 C1151 1.511 . S
C1149 C1145 1.376 . S
C1149 C1148 1.392 . S
C1149 H1161 0.929 . S
C1150 C1146 1.531 . S
C1150 H1162 0.960 . S
C1150 H1163 0.962 . S
C1150 H1164 0.960 . S
C1151 C1148 1.511 . S
C1151 H1165 0.961 . S
C1151 H1166 0.961 . S
C1151 H1167 0.961 . S
C1152 C1153 1.370 . S
C1152 C1154 1.363 . S
C1152 H1168 0.931 . S
C1153 C1152 1.370 . S
C1153 C1157 1.408 . S
C1154 C1152 1.363 . S
C1154 C1155 1.370 . S
C1154 C1158 1.524 . S
C1155 C1147 1.503 . S
C1155 C1154 1.370 . S
C1155 C1156 1.403 . S
C1156 C1155 1.403 . S
C1156 C1157 1.404 . S
C1156 C1159 1.539 . S
C1157 C1153 1.408 . S
C1157 C1156 1.404 . S
C1157 H1169 0.930 . S
C1158 C1154 1.524 . S
C1158 H1170 0.956 . S
C1158 H1171 0.961 . S
C1158 H1172 0.961 . S
C1159 C1156 1.539 . S
C1159 H1173 0.958 . S
C1159 H1174 0.961 . S
C1159 H1175 0.960 . S
H1160 C1144 0.931 . S
H1161 C1149 0.929 . S
H1162 C1150 0.960 . S
H1163 C1150 0.962 . S
H1164 C1150 0.960 . S
H1165 C1151 0.961 . S
H1166 C1151 0.961 . S
H1167 C1151 0.961 . S
H1168 C1152 0.931 . S
H1169 C1157 0.930 . S
H1170 C1158 0.956 . S
H1171 C1158 0.961 . S
H1172 C1158 0.961 . S
H1173 C1159 0.958 . S
H1174 C1159 0.961 . S
H1175 C1159 0.960 . S
C1176 C1177 1.391 . S
C1176 C1178 1.394 . S
C1176 H1192 0.931 . S
C1177 C1176 1.391 . S
C1177 C1181 1.376 . S
C1178 C1176 1.394 . S
C1178 C1179 1.369 . S
C1178 C1182 1.531 . S
C1179 C1178 1.369 . S
C1179 C1180 1.410 . S
C1179 C1187 1.503 . S
C1180 C1179 1.410 . S
C1180 C1181 1.392 . S
C1180 C1183 1.511 . S
C1181 C1177 1.376 . S
C1181 C1180 1.392 . S
C1181 H1193 0.929 . S
C1182 C1178 1.531 . S
C1182 H1194 0.960 . S
C1182 H1195 0.962 . S
C1182 H1196 0.960 . S
C1183 C1180 1.511 . S
C1183 H1197 0.961 . S
C1183 H1198 0.961 . S
C1183 H1199 0.961 . S
C1184 C1185 1.370 . S
C1184 C1186 1.363 . S
C1184 H1200 0.931 . S
C1185 C1184 1.370 . S
C1185 C1189 1.408 . S
C1186 C1184 1.363 . S
C1186 C1187 1.370 . S
C1186 C1190 1.524 . S
C1187 C1179 1.503 . S
C1187 C1186 1.370 . S
C1187 C1188 1.403 . S
C1188 C1187 1.403 . S
C1188 C1189 1.404 . S
C1188 C1191 1.539 . S
C1189 C1185 1.408 . S
C1189 C1188 1.404 . S
C1189 H1201 0.930 . S
C1190 C1186 1.524 . S
C1190 H1202 0.956 . S
C1190 H1203 0.961 . S
C1190 H1204 0.961 . S
C1191 C1188 1.539 . S
C1191 H1205 0.958 . S
C1191 H1206 0.961 . S
C1191 H1207 0.960 . S
H1192 C1176 0.931 . S
H1193 C1181 0.929 . S
H1194 C1182 0.960 . S
H1195 C1182 0.962 . S
H1196 C1182 0.960 . S
H1197 C1183 0.961 . S
H1198 C1183 0.961 . S
H1199 C1183 0.961 . S
H1200 C1184 0.931 . S
H1201 C1189 0.930 . S
H1202 C1190 0.956 . S
H1203 C1190 0.961 . S
H1204 C1190 0.961 . S
H1205 C1191 0.958 . S
H1206 C1191 0.961 . S
H1207 C1191 0.960 . S
C1208 C1209 1.391 . S
C1208 C1210 1.394 . S
C1208 H1224 0.931 . S
C1209 C1208 1.391 . S
C1209 C1213 1.376 . S
C1210 C1208 1.394 . S
C1210 C1211 1.369 . S
C1210 C1214 1.531 . S
C1211 C1210 1.369 . S
C1211 C1212 1.410 . S
C1211 C1219 1.503 . S
C1212 C1211 1.410 . S
C1212 C1213 1.392 . S
C1212 C1215 1.511 . S
C1213 C1209 1.376 . S
C1213 C1212 1.392 . S
C1213 H1225 0.929 . S
C1214 C1210 1.531 . S
C1214 H1226 0.960 . S
C1214 H1227 0.962 . S
C1214 H1228 0.960 . S
C1215 C1212 1.511 . S
C1215 H1229 0.961 . S
C1215 H1230 0.961 . S
C1215 H1231 0.961 . S
C1216 C1217 1.370 . S
C1216 C1218 1.363 . S
C1216 H1232 0.931 . S
C1217 C1216 1.370 . S
C1217 C1221 1.408 . S
C1218 C1216 1.363 . S
C1218 C1219 1.370 . S
C1218 C1222 1.524 . S
C1219 C1211 1.503 . S
C1219 C1218 1.370 . S
C1219 C1220 1.403 . S
C1220 C1219 1.403 . S
C1220 C1221 1.404 . S
C1220 C1223 1.539 . S
C1221 C1217 1.408 . S
C1221 C1220 1.404 . S
C1221 H1233 0.930 . S
C1222 C1218 1.524 . S
C1222 H1234 0.956 . S
C1222 H1235 0.961 . S
C1222 H1236 0.961 . S
C1223 C1220 1.539 . S
C1223 H1237 0.958 . S
C1223 H1238 0.961 . S
C1223 H1239 0.960 . S
H1224 C1208 0.931 . S
H1225 C1213 0.929 . S
H1226 C1214 0.960 . S
H1227 C1214 0.962 . S
H1228 C1214 0.960 . S
H1229 C1215 0.961 . S
H1230 C1215 0.961 . S
H1231 C1215 0.961 . S
H1232 C1216 0.931 . S
H1233 C1221 0.930 . S
H1234 C1222 0.956 . S
H1235 C1222 0.961 . S
H1236 C1222 0.961 . S
H1237 C1223 0.958 . S
H1238 C1223 0.961 . S
H1239 C1223 0.960 . S
C473 C1 1.325 . S
C481 C327 1.333 . S
C505 C40 1.272 . S
C513 C367 1.347 . S
C545 C401 2.256 . S
C537 C99 2.263 . S
C569 C118 2.636 . S
C577 C442 2.599 . S
C609 C362 1.459 . S
C601 C16 1.398 . S
C641 C322 2.214 . S
C633 C60 2.080 . S
C673 C450 1.580 . S
C665 C79 1.572 . S
C705 C411 1.795 . S
C697 C138 1.874 . S
C729 C21 1.390 . S
C737 C447 1.392 . S
C769 C370 1.993 . S
C761 C94 2.055 . S
C793 C133 2.458 . S
C801 C330 2.389 . S
C825 C55 1.555 . S
C833 C398 1.639 . S
C865 C318 1.357 . S
C857 C157 1.293 . S
C889 C196 1.255 . S
C897 C358 1.358 . S
C921 C255 2.272 . S
C929 C410 2.255 . S
C953 C289 2.632 . S
C961 C451 2.594 . S
C985 C172 1.416 . S
C993 C371 1.457 . S
C1025 C331 2.213 . S
C1017 C216 2.073 . S
C1057 C441 1.571 . S
C1049 C235 1.588 . S
C1089 C402 1.795 . S
C1081 C294 1.879 . S
C1113 C177 1.347 . S
C1121 C438 1.405 . S
C1153 C361 1.998 . S
C1145 C250 2.053 . S
C1185 C321 2.394 . S
C1177 C274 2.455 . S
C1209 C211 1.552 . S
C1217 C407 1.643 . S
