# Generated by pormake.
# Topology pth, (4,4)-cn, num edge types: 1
# Building blocks:
#     Node 0, Type 0, BuildingBlock: KUFVIS_clean_sbu_0, # of connection points: 4
#     Node 1, Type 0, BuildingBlock: KUFVIS_clean_sbu_0, # of connection points: 4
#     Node 2, Type 0, BuildingBlock: KUFVIS_clean_sbu_0, # of connection points: 4
#     Node 3, Type 1, BuildingBlock: MUDLON_clean_linker_0, # of connection points: 4
#     Node 4, Type 1, BuildingBlock: MUDLON_clean_linker_0, # of connection points: 4
#     Node 5, Type 1, BuildingBlock: MUDLON_clean_linker_0, # of connection points: 4
#     Edge 6, Type (0, 1), BuildingBlock: UVAHIK_clean_linker_0, # of connection points: 2
#     Edge 7, Type (0, 1), BuildingBlock: UVAHIK_clean_linker_0, # of connection points: 2
#     Edge 8, Type (0, 1), BuildingBlock: UVAHIK_clean_linker_0, # of connection points: 2
#     Edge 9, Type (0, 1), BuildingBlock: UVAHIK_clean_linker_0, # of connection points: 2
#     Edge 10, Type (0, 1), BuildingBlock: UVAHIK_clean_linker_0, # of connection points: 2
#     Edge 11, Type (0, 1), BuildingBlock: UVAHIK_clean_linker_0, # of connection points: 2
#     Edge 12, Type (0, 1), BuildingBlock: UVAHIK_clean_linker_0, # of connection points: 2
#     Edge 13, Type (0, 1), BuildingBlock: UVAHIK_clean_linker_0, # of connection points: 2
#     Edge 14, Type (0, 1), BuildingBlock: UVAHIK_clean_linker_0, # of connection points: 2
#     Edge 15, Type (0, 1), BuildingBlock: UVAHIK_clean_linker_0, # of connection points: 2
#     Edge 16, Type (0, 1), BuildingBlock: UVAHIK_clean_linker_0, # of connection points: 2
#     Edge 17, Type (0, 1), BuildingBlock: UVAHIK_clean_linker_0, # of connection points: 2
# Relax obj value: 0.036
# Max RMSD: 0.104
# Mean RMSD: 0.093
data_MOF--net-pth--node1-KUFVIS_clean_sbu_0--node2-MUDLON_clean_linker_0--edge1-UVAHIK_clean_linker_0
_symmetry_space_group_name_H-M    P1
_symmetry_Int_Tables_number       1
_symmetry_cell_setting            triclinic
loop_
_symmetry_equiv_pos_as_xyz
'x, y, z'
_cell_length_a     40.619111
_cell_length_b     40.693548
_cell_length_c     84.195712
_cell_angle_alpha  90.416288
_cell_angle_beta   91.685349
_cell_angle_gamma 120.18174
loop_
_atom_site_label
_atom_site_type_symbol
_atom_site_fract_x
_atom_site_fract_y
_atom_site_fract_z
_atom_type_partial_charge
Mn0 Mn 0.03856 0.01358 0.03873 0.0
Mn1 Mn 0.98545 0.03651 0.01487 0.0
C2 C 0.00329 0.97374 0.01755 0.0
C3 C 0.044 0.98448 0.06156 0.0
C4 C 0.07184 0.07543 0.01429 0.0
O5 O 0.03539 0.05464 0.05152 0.0
O6 O 0.9932 0.06176 0.03603 0.0
C7 C 0.91238 0.99822 0.03124 0.0
N8 N 0.93236 0.00319 0.01789 0.0
C9 C 0.87569 0.958 0.00301 0.0
C10 C 0.85446 0.95256 0.01657 0.0
C11 C 0.87291 0.97269 0.03075 0.0
C12 C 0.91491 0.98394 0.00419 0.0
H13 H 0.9265 0.01358 0.04217 0.0
C14 C 0.01393 0.06875 0.04879 0.0
O15 O 0.07401 0.01109 0.05496 0.0
O16 O 0.0111 0.97571 0.05515 0.0
N17 N 0.97565 0.01348 0.99407 0.0
C18 C 0.00063 0.02014 0.98238 0.0
C19 C 0.98694 0.00121 0.96757 0.0
C20 C 0.94775 0.97584 0.96489 0.0
C21 C 0.92258 0.96963 0.97706 0.0
C22 C 0.93783 0.98948 0.99155 0.0
H23 H 0.03076 0.03962 0.98436 0.0
O24 O 0.03172 0.97176 0.02388 0.0
O25 O 0.99633 0.9987 0.0239 0.0
O26 O 0.07613 0.05383 0.02398 0.0
O27 O 0.03955 0.07217 0.01062 0.0
C28 C 0.88305 0.94394 0.9755 0.0
C29 C 0.85963 0.9381 0.98847 0.0
H30 H 0.82404 0.93273 0.01627 0.0
H31 H 0.85674 0.96849 0.04129 0.0
H32 H 0.00656 0.00609 0.95824 0.0
H33 H 0.93735 0.96107 0.95349 0.0
H34 H 0.87046 0.92805 0.96447 0.0
H35 H 0.82939 0.91781 0.98721 0.0
Mn36 Mn 0.01639 0.01201 0.37146 0.0
Mn37 Mn 0.06985 0.09225 0.39364 0.0
C38 C 0.05277 0.01173 0.39292 0.0
C39 C 0.00878 0.9721 0.34999 0.0
C40 C 0.98426 0.04322 0.39604 0.0
O41 O 0.01887 0.0532 0.35717 0.0
O42 O 0.05655 0.10525 0.37258 0.0
C43 C 0.13894 0.12624 0.37457 0.0
N44 N 0.12221 0.1134 0.38872 0.0
C45 C 0.1823 0.1296 0.40165 0.0
C46 C 0.20023 0.14323 0.38723 0.0
C47 C 0.17844 0.14146 0.37363 0.0
C48 C 0.14288 0.11486 0.40187 0.0
H49 H 0.12225 0.12481 0.36409 0.0
C50 C 0.03686 0.08912 0.35977 0.0
O51 O 0.97961 0.97091 0.3565 0.0
O52 O 0.04231 0.99739 0.3556 0.0
N53 N 0.08489 0.08408 0.41431 0.0
C54 C 0.06297 0.06823 0.4271 0.0
C55 C 0.08031 0.06706 0.4416 0.0
C56 C 0.11997 0.08248 0.44284 0.0
C57 C 0.14197 0.099 0.42956 0.0
C58 C 0.12315 0.09963 0.41546 0.0
H59 H 0.03248 0.05641 0.42623 0.0
O60 O 0.02379 0.9802 0.38749 0.0
O61 O 0.05962 0.04247 0.38562 0.0
O62 O 0.97962 0.01784 0.3858 0.0
O63 O 0.01672 0.07215 0.39976 0.0
C64 C 0.18174 0.11426 0.42969 0.0
C65 C 0.20188 0.12947 0.41573 0.0
H66 H 0.23066 0.15484 0.38644 0.0
H67 H 0.19205 0.15175 0.36245 0.0
H68 H 0.06313 0.05425 0.45179 0.0
H69 H 0.1332 0.08129 0.45401 0.0
H70 H 0.19703 0.11394 0.44039 0.0
H71 H 0.23237 0.14066 0.41592 0.0
Mn72 Mn 0.03363 0.02836 0.70669 0.0
Mn73 Mn 0.01301 0.08844 0.72589 0.0
C74 C 0.07036 0.06309 0.72868 0.0
C75 C 0.06644 0.01833 0.68677 0.0
C76 C 0.96782 0.00255 0.7291 0.0
O77 O 0.9982 0.03418 0.69084 0.0
O78 O 0.99048 0.07831 0.70387 0.0
C79 C 0.05807 0.15723 0.70714 0.0
N80 N 0.04989 0.13979 0.7214 0.0
C81 C 0.09665 0.19738 0.73513 0.0
C82 C 0.10541 0.21603 0.72061 0.0
C83 C 0.0861 0.19583 0.70655 0.0
C84 C 0.06838 0.15891 0.73499 0.0
H85 H 0.04337 0.14176 0.69631 0.0
C86 C 0.98497 0.0567 0.69173 0.0
O87 O 0.03627 0.99001 0.69256 0.0
O88 O 0.07623 0.05208 0.69208 0.0
N89 N 0.03326 0.10094 0.7473 0.0
C90 C 0.02267 0.07833 0.76022 0.0
C91 C 0.03983 0.094 0.77519 0.0
C92 C 0.06747 0.13276 0.77676 0.0
C93 C 0.07769 0.15552 0.76333 0.0
C94 C 0.05936 0.1384 0.74873 0.0
H95 H 0.00137 0.04855 0.7591 0.0
O96 O 0.07025 0.03256 0.72409 0.0
O97 O 0.04922 0.07243 0.72021 0.0
O98 O 0.98816 0.99463 0.72033 0.0
O99 O 0.97431 0.03639 0.73152 0.0
C100 C 0.10577 0.19437 0.7638 0.0
C101 C 0.11532 0.21526 0.74971 0.0
H102 H 0.12713 0.24575 0.72008 0.0
H103 H 0.09284 0.20998 0.69528 0.0
H104 H 0.03182 0.07624 0.7855 0.0
H105 H 0.08078 0.14469 0.78831 0.0
H106 H 0.1206 0.20832 0.7749 0.0
H107 H 0.13733 0.24497 0.75018 0.0
H108 H 0.90925 0.62675 0.21143 0.0
N109 N 0.96098 0.61034 0.20197 0.0
H110 H 0.91467 0.6675 0.23395 0.0
H111 H 0.01733 0.63781 0.22526 0.0
H112 H 0.02288 0.67815 0.24815 0.0
H113 H 0.03368 0.66956 0.19901 0.0
H114 H 0.05392 0.71901 0.17927 0.0
H115 H 0.92291 0.60757 0.17538 0.0
H116 H 0.94328 0.65624 0.15516 0.0
H117 H 0.90654 0.54152 0.2091 0.0
H118 H 0.02466 0.60468 0.19715 0.0
H119 H 0.90957 0.48325 0.20999 0.0
H120 H 0.02757 0.54608 0.1971 0.0
H121 H 0.92185 0.33121 0.22771 0.0
H122 H 0.93863 0.30413 0.25039 0.0
H123 H 0.05236 0.35044 0.23336 0.0
H124 H 0.03598 0.37853 0.21113 0.0
H125 H 0.02759 0.39831 0.18512 0.0
H126 H 0.03865 0.36759 0.16229 0.0
H127 H 0.92551 0.27056 0.16599 0.0
H128 H 0.9151 0.30115 0.1889 0.0
H129 H 0.91049 0.37951 0.19285 0.0
H130 H 0.91182 0.44003 0.19224 0.0
H131 H 0.02691 0.49674 0.21251 0.0
N132 N 0.96467 0.36642 0.20327 0.0
H133 H 0.02581 0.436 0.21219 0.0
C134 C 0.96274 0.62933 0.21672 0.0
C135 C 0.9337 0.63729 0.21962 0.0
C136 C 0.93686 0.66049 0.23253 0.0
C137 C 0.9693 0.67624 0.24286 0.0
C138 C 0.99777 0.66688 0.2403 0.0
C139 C 0.99454 0.64361 0.22732 0.0
C140 C 0.97651 0.63507 0.18872 0.0
C141 C 0.01406 0.66602 0.18929 0.0
C142 C 0.02566 0.69427 0.17794 0.0
C143 C -2e-05 0.69194 0.16579 0.0
C144 C 0.96347 0.65934 0.16457 0.0
C145 C 0.95188 0.63129 0.17598 0.0
C146 C 0.96499 0.5772 0.20282 0.0
C147 C 0.93308 0.54264 0.20656 0.0
C148 C 0.93485 0.50933 0.2069 0.0
C149 C 0.96862 0.50966 0.20328 0.0
C150 C 0.0011 0.54469 0.19998 0.0
C151 C 0.9994 0.57826 0.19986 0.0
C152 C 0.97732 0.35632 0.21762 0.0
C153 C 0.95064 0.33628 0.22912 0.0
C154 C 0.96024 0.32089 0.24202 0.0
C155 C 0.99663 0.32494 0.24345 0.0
C156 C 0.024 0.34667 0.23238 0.0
C157 C 0.0146 0.36267 0.21967 0.0
C158 C 0.97054 0.35167 0.18871 0.0
C159 C 0.00516 0.37058 0.1809 0.0
C160 C 0.01145 0.35301 0.16792 0.0
C161 C 0.98296 0.31668 0.16241 0.0
C162 C 0.94784 0.29871 0.16986 0.0
C163 C 0.94183 0.31602 0.18293 0.0
C164 C 0.96764 0.40314 0.20278 0.0
C165 C 0.93602 0.4051 0.19708 0.0
C166 C 0.93679 0.43972 0.1969 0.0
C167 C 0.96921 0.47333 0.20265 0.0
C168 C 0.00148 0.47152 0.20796 0.0
C169 C 0.00081 0.43673 0.20792 0.0
H170 H 0.73634 0.13201 0.54458 0.0
N171 N 0.66847 0.07932 0.53303 0.0
H172 H 0.774 0.1262 0.56645 0.0
H173 H 0.64515 0.01798 0.55206 0.0
H174 H 0.68277 0.01165 0.57396 0.0
H175 H 0.65213 0.00747 0.52448 0.0
H176 H 0.67458 0.98988 0.5011 0.0
H177 H 0.70264 0.12266 0.50857 0.0
H178 H 0.72596 0.10561 0.48526 0.0
H179 H 0.65279 0.12422 0.55014 0.0
H180 H 0.59872 0.0203 0.5218 0.0
H181 H 0.59082 0.11777 0.55445 0.0
H182 H 0.53708 0.01509 0.52504 0.0
H183 H 0.40725 0.10909 0.5633 0.0
H184 H 0.36402 0.09267 0.5852 0.0
H185 H 0.33342 0.97484 0.57958 0.0
H186 H 0.37573 0.99152 0.55737 0.0
H187 H 0.3675 0.99411 0.52922 0.0
H188 H 0.32275 0.98414 0.50712 0.0
H189 H 0.3703 0.10578 0.50456 0.0
H190 H 0.41372 0.11511 0.52714 0.0
H191 H 0.48398 0.12287 0.54351 0.0
H192 H 0.54493 0.1256 0.54103 0.0
H193 H 0.48714 0.00267 0.54157 0.0
N194 N 0.41558 0.06182 0.54436 0.0
H195 H 0.42615 0.00056 0.54288 0.0
C196 C 0.68824 0.07551 0.54672 0.0
C197 C 0.72441 0.10587 0.55109 0.0
C198 C 0.74574 0.1025 0.56359 0.0
C199 C 0.73132 0.06844 0.5719 0.0
C200 C 0.69471 0.03808 0.56765 0.0
C201 C 0.6732 0.04166 0.5552 0.0
C202 C 0.67586 0.06655 0.51826 0.0
C203 C 0.66757 0.02887 0.51583 0.0
C204 C 0.68061 0.01889 0.50248 0.0
C205 C 0.70237 0.0464 0.49137 0.0
C206 C 0.70891 0.08358 0.49346 0.0
C207 C 0.69575 0.09347 0.50678 0.0
C208 C 0.63081 0.07322 0.53553 0.0
C209 C 0.62753 0.10013 0.54476 0.0
C210 C 0.59202 0.09654 0.54706 0.0
C211 C 0.55874 0.06623 0.53987 0.0
C212 C 0.56191 0.03866 0.5309 0.0
C213 C 0.59749 0.04186 0.52888 0.0
C214 C 0.39497 0.05176 0.55878 0.0
C215 C 0.39179 0.07989 0.56706 0.0
C216 C 0.3671 0.07038 0.5796 0.0
C217 C 0.34507 0.03233 0.58416 0.0
C218 C 0.34955 0.00432 0.57625 0.0
C219 C 0.37416 0.01391 0.56363 0.0
C220 C 0.39349 0.0554 0.52987 0.0
C221 C 0.36849 0.01856 0.52378 0.0
C222 C 0.34309 0.01296 0.51107 0.0
C223 C 0.34254 0.04416 0.50421 0.0
C224 C 0.36933 0.08109 0.5098 0.0
C225 C 0.3944 0.08656 0.52256 0.0
C226 C 0.45078 0.06171 0.54367 0.0
C227 C 0.48468 0.09661 0.54315 0.0
C228 C 0.51951 0.09801 0.54187 0.0
C229 C 0.52129 0.06434 0.54131 0.0
C230 C 0.48702 0.0292 0.54185 0.0
C231 C 0.45202 0.02789 0.54285 0.0
H232 H 0.64348 0.74336 0.88888 0.0
N233 N 0.62262 0.682 0.87079 0.0
H234 H 0.69247 0.76931 0.91042 0.0
H235 H 0.66221 0.64895 0.88251 0.0
H236 H 0.7122 0.67535 0.90376 0.0
H237 H 0.67472 0.66945 0.85601 0.0
H238 H 0.70938 0.70146 0.83261 0.0
H239 H 0.60695 0.7233 0.85107 0.0
H240 H 0.64035 0.75428 0.82707 0.0
H241 H 0.56259 0.66536 0.88763 0.0
H242 H 0.60863 0.61465 0.85684 0.0
H243 H 0.50518 0.60372 0.89022 0.0
H244 H 0.55023 0.55319 0.85844 0.0
H245 H 0.31779 0.41573 0.89227 0.0
H246 H 0.29221 0.37693 0.91558 0.0
H247 H 0.39417 0.36883 0.92072 0.0
H248 H 0.41854 0.40623 0.89695 0.0
H249 H 0.39645 0.37672 0.86932 0.0
H250 H 0.36335 0.32873 0.84807 0.0
H251 H 0.30091 0.38469 0.83401 0.0
H252 H 0.33344 0.43182 0.8556 0.0
H253 H 0.39075 0.50146 0.87785 0.0
H254 H 0.45015 0.56165 0.87575 0.0
H255 H 0.51211 0.50088 0.87422 0.0
N256 N 0.38106 0.4323 0.87787 0.0
H257 H 0.45192 0.44071 0.87522 0.0
C258 C 0.64962 0.69465 0.88405 0.0
C259 C 0.65809 0.7282 0.89224 0.0
C260 C 0.6859 0.74284 0.90451 0.0
C261 C 0.70611 0.72434 0.90867 0.0
C262 C 0.69717 0.69026 0.90066 0.0
C263 C 0.66877 0.67525 0.88854 0.0
C264 C 0.63863 0.69461 0.85546 0.0
C265 C 0.66668 0.68753 0.84969 0.0
C266 C 0.68632 0.70566 0.83616 0.0
C267 C 0.67809 0.73095 0.82806 0.0
C268 C 0.64804 0.73568 0.83322 0.0
C269 C 0.62868 0.71779 0.84683 0.0
C270 C 0.58951 0.64482 0.87187 0.0
C271 C 0.56 0.64087 0.88128 0.0
C272 C 0.52708 0.60561 0.88262 0.0
C273 C 0.52257 0.57339 0.87431 0.0
C274 C 0.55268 0.57723 0.8651 0.0
C275 C 0.58604 0.61256 0.86401 0.0
C276 C 0.37002 0.41411 0.89292 0.0
C277 C 0.33481 0.40609 0.89863 0.0
C278 C 0.32039 0.38403 0.91202 0.0
C279 C 0.34112 0.36967 0.92011 0.0
C280 C 0.37719 0.37896 0.91469 0.0
C281 C 0.39142 0.40078 0.90115 0.0
C282 C 0.367 0.40756 0.86404 0.0
C283 C 0.37613 0.37896 0.86149 0.0
C284 C 0.35725 0.35162 0.8493 0.0
C285 C 0.32909 0.3526 0.8395 0.0
C286 C 0.32185 0.38268 0.84156 0.0
C287 C 0.34059 0.4098 0.85376 0.0
C288 C 0.41703 0.46688 0.877 0.0
C289 C 0.41725 0.50132 0.87709 0.0
C290 C 0.45134 0.53567 0.87601 0.0
C291 C 0.48624 0.53637 0.87506 0.0
C292 C 0.48587 0.50155 0.87484 0.0
C293 C 0.45149 0.46705 0.87565 0.0
C294 C 0.98355 0.10391 0.0598 0.0
C295 C 0.01254 0.09464 0.06089 0.0
C296 C 0.98214 0.1287 0.07092 0.0
C297 C 0.04056 0.20617 0.0995 0.0
H298 H 0.94303 0.17961 0.11679 0.0
C299 C 0.02341 0.29374 0.15003 0.0
C300 C 0.99016 0.2963 0.14954 0.0
C301 C 0.02805 0.2707 0.13897 0.0
C302 C 0.97041 0.1878 0.11191 0.0
H303 H 0.06293 0.10439 0.07455 0.0
H304 H 0.06049 0.14807 0.09401 0.0
H305 H 0.94738 0.13562 0.09845 0.0
H306 H 0.93679 0.27865 0.13658 0.0
H307 H 0.9452 0.23925 0.11704 0.0
H308 H 0.0635 0.25867 0.11281 0.0
C309 C 0.03894 0.13602 0.08447 0.0
C310 C 0.9729 0.16245 0.10146 0.0
C311 C 0.04016 0.11084 0.0734 0.0
C312 C 0.96245 0.27676 0.13736 0.0
C313 C 0.96721 0.25402 0.12624 0.0
C314 C 0.03803 0.23173 0.10991 0.0
C315 C 0.00981 0.14508 0.08335 0.0
C316 C 0.0079 0.17145 0.09505 0.0
C317 C 0.99962 0.24996 0.12713 0.0
C318 C 0.00283 0.22296 0.11614 0.0
H319 H 0.96173 0.09197 0.05036 0.0
H320 H 0.9596 0.13546 0.06965 0.0
H321 H 0.06785 0.21398 0.09462 0.0
H322 H 0.04506 0.30821 0.1594 0.0
H323 H 0.05322 0.26802 0.14009 0.0
C324 C 0.95438 0.0682 0.41459 0.0
C325 C 0.95043 0.03951 0.40395 0.0
C326 C 0.92271 0.06539 0.42188 0.0
C327 C 0.84895 0.06332 0.42839 0.0
H328 H 0.77715 0.96931 0.44804 0.0
C329 C 0.72497 0.05312 0.46343 0.0
C330 C 0.72134 0.03752 0.47856 0.0
C331 C 0.74714 0.04876 0.45214 0.0
C332 C 0.7969 0.99572 0.44256 0.0
H333 H 0.90977 0.98512 0.39276 0.0
H334 H 0.85436 0.98027 0.40561 0.0
H335 H 0.82844 0.97174 0.43268 0.0
H336 H 0.7372 0.004 0.49347 0.0
H337 H 0.77562 0.99635 0.47382 0.0
H338 H 0.81856 0.08781 0.43875 0.0
C339 C 0.88216 0.00489 0.40828 0.0
C340 C 0.82606 0.99702 0.43366 0.0
C341 C 0.91391 0.00776 0.40089 0.0
C342 C 0.73888 0.01593 0.48186 0.0
C343 C 0.76097 0.01154 0.47057 0.0
C344 C 0.81979 0.062 0.43723 0.0
C345 C 0.88624 0.03381 0.41878 0.0
C346 C 0.85292 0.0311 0.4268 0.0
C347 C 0.76613 0.02868 0.45573 0.0
C348 C 0.7939 0.02842 0.4447 0.0
H349 H 0.982 0.09301 0.41732 0.0
H350 H 0.92691 0.08782 0.43015 0.0
H351 H 0.86889 0.08985 0.42305 0.0
H352 H 0.71133 0.0694 0.46043 0.0
H353 H 0.75008 0.06181 0.4407 0.0
C354 C 0.91376 0.98001 0.74749 0.0
C355 C 0.93568 0.97148 0.73744 0.0
C356 C 0.88482 0.95163 0.75611 0.0
C357 C 0.82049 0.84853 0.75867 0.0
H358 H 0.81684 0.87461 0.80273 0.0
C359 C 0.71925 0.74116 0.8046 0.0
C360 C 0.70328 0.75524 0.81544 0.0
C361 C 0.74633 0.7655 0.79401 0.0
C362 C 0.81714 0.86698 0.7904 0.0
H363 H 0.94337 0.92587 0.72829 0.0
H364 H 0.89251 0.87607 0.7435 0.0
H365 H 0.86676 0.92048 0.78632 0.0
H366 H 0.70274 0.80592 0.82327 0.0
H367 H 0.74872 0.84775 0.80458 0.0
H368 H 0.7705 0.79489 0.76286 0.0
C369 C 0.89793 0.90493 0.74458 0.0
C370 C 0.84581 0.89326 0.78101 0.0
C371 C 0.92714 0.93349 0.73594 0.0
C372 C 0.71397 0.79387 0.815 0.0
C373 C 0.74085 0.81806 0.80443 0.0
C374 C 0.79159 0.8221 0.76812 0.0
C375 C 0.87691 0.9139 0.75495 0.0
C376 C 0.84751 0.88461 0.76498 0.0
C377 C 0.75804 0.80442 0.79408 0.0
C378 C 0.7893 0.83134 0.78403 0.0
H379 H 0.9192 0.00882 0.74891 0.0
H380 H 0.86865 0.95932 0.76376 0.0
H381 H 0.82104 0.84115 0.74634 0.0
H382 H 0.71134 0.71146 0.8045 0.0
H383 H 0.75907 0.75413 0.78618 0.0
C384 C 0.01396 0.93887 0.08336 0.0
C385 C 0.04671 0.96286 0.07505 0.0
C386 C 0.01495 0.915 0.09492 0.0
C387 C 0.06398 0.86347 0.10532 0.0
H388 H 0.00816 0.8438 0.144 0.0
C389 C 0.04644 0.74705 0.14967 0.0
C390 C 0.00969 0.72494 0.15552 0.0
C391 C 0.05568 0.77944 0.14085 0.0
C392 C 0.02371 0.84881 0.13321 0.0
H393 H 0.10656 0.98157 0.07266 0.0
H394 H 0.10822 0.93936 0.09289 0.0
H395 H 0.01675 0.89612 0.12738 0.0
H396 H 0.95402 0.71988 0.15677 0.0
H397 H 0.96972 0.77531 0.14111 0.0
H398 H 0.06984 0.81532 0.1109 0.0
C399 C 0.08179 0.93913 0.09039 0.0
C400 C 0.02874 0.87887 0.12373 0.0
C401 C 0.0809 0.96342 0.07891 0.0
C402 C 0.9824 0.7358 0.15224 0.0
C403 C 0.99161 0.76803 0.14347 0.0
C404 C 0.05882 0.83324 0.1148 0.0
C405 C 0.04866 0.91431 0.09836 0.0
C406 C 0.04811 0.88595 0.10949 0.0
C407 C 0.02842 0.79048 0.1378 0.0
C408 C 0.03776 0.82499 0.12863 0.0
H409 H 0.98719 0.93782 0.08065 0.0
H410 H 0.98885 0.89592 0.10072 0.0
H411 H 0.07877 0.86806 0.09434 0.0
H412 H 0.06806 0.73936 0.15193 0.0
H413 H 0.08433 0.7962 0.13666 0.0
C414 C 0.06924 0.99093 0.4182 0.0
C415 C 0.0807 0.0105 0.40396 0.0
C416 C 0.0962 0.99021 0.42867 0.0
C417 C 0.16208 0.01722 0.45275 0.0
H418 H 0.2479 0.01019 0.43793 0.0
C419 C 0.29511 0.06051 0.49276 0.0
C420 C 0.3126 0.03824 0.49209 0.0
C421 C 0.26607 0.05445 0.4818 0.0
C422 C 0.22391 0.01179 0.44229 0.0
H423 H 0.12788 0.041 0.38853 0.0
H424 H 0.17527 0.04063 0.4069 0.0
H425 H 0.19745 0.00185 0.41903 0.0
H426 H 0.31338 0.99229 0.47922 0.0
H427 H 0.26192 0.98113 0.46023 0.0
H428 H 0.18817 0.02662 0.47601 0.0
C429 C 0.14575 0.02616 0.41017 0.0
C430 C 0.19521 0.00744 0.43143 0.0
C431 C 0.11881 0.02694 0.39977 0.0
C432 C 0.30034 0.00977 0.48013 0.0
C433 C 0.27111 0.00362 0.46916 0.0
C434 C 0.19069 0.02146 0.46359 0.0
C435 C 0.13491 0.00842 0.4249 0.0
C436 C 0.16416 0.0105 0.43652 0.0
C437 C 0.25352 0.02579 0.46994 0.0
C438 C 0.22218 0.01927 0.45847 0.0
H439 H 0.03966 0.97709 0.42138 0.0
H440 H 0.08678 0.97558 0.43976 0.0
H441 H 0.13879 0.02011 0.45706 0.0
H442 H 0.30336 0.08227 0.50196 0.0
H443 H 0.25356 0.07243 0.48261 0.0
C444 C 0.12547 0.12676 0.7356 0.0
C445 C 0.09993 0.0896 0.74012 0.0
C446 C 0.15364 0.15245 0.74636 0.0
C447 C 0.17372 0.17007 0.78932 0.0
H448 H 0.273 0.24854 0.77618 0.0
C449 C 0.32149 0.3045 0.81856 0.0
C450 C 0.30534 0.32102 0.82798 0.0
C451 C 0.29851 0.27418 0.80802 0.0
C452 C 0.24557 0.22656 0.78009 0.0
H453 H 0.08559 0.04857 0.75865 0.0
H454 H 0.1349 0.09359 0.77768 0.0
H455 H 0.23036 0.19811 0.7573 0.0
H456 H 0.25233 0.31811 0.83394 0.0
H457 H 0.2126 0.26608 0.81537 0.0
H458 H 0.18888 0.19842 0.81209 0.0
C459 C 0.13254 0.10329 0.76599 0.0
C460 C 0.22098 0.1979 0.76923 0.0
C461 C 0.10444 0.07754 0.75515 0.0
C462 C 0.26579 0.30647 0.82667 0.0
C463 C 0.2429 0.27624 0.81619 0.0
C464 C 0.19826 0.19871 0.80016 0.0
C465 C 0.15702 0.14124 0.76179 0.0
C466 C 0.18455 0.16966 0.77366 0.0
C467 C 0.25893 0.25964 0.80678 0.0
C468 C 0.2342 0.22763 0.79559 0.0
H469 H 0.12318 0.13614 0.72382 0.0
H470 H 0.17181 0.18145 0.74275 0.0
H471 H 0.14579 0.14894 0.7931 0.0
H472 H 0.35189 0.31518 0.81926 0.0
H473 H 0.31165 0.26183 0.80098 0.0
C474 C 0.94524 0.02836 0.66652 0.0
C475 C 0.96117 0.0576 0.67824 0.0
C476 C 0.92095 0.02839 0.65439 0.0
C477 C 0.89462 0.09133 0.63327 0.0
H478 H 0.79802 0.99925 0.62399 0.0
C479 C 0.77594 0.09431 0.59577 0.0
C480 C 0.75516 0.06458 0.58459 0.0
C481 C 0.80068 0.09208 0.60699 0.0
C482 C 0.82508 0.02507 0.62628 0.0
H483 H 0.96484 0.11033 0.6861 0.0
H484 H 0.92281 0.1104 0.66496 0.0
H485 H 0.84351 0.99824 0.64333 0.0
H486 H 0.74356 0.00893 0.57654 0.0
H487 H 0.78712 0.00511 0.59606 0.0
H488 H 0.87651 0.11825 0.61625 0.0
C489 C 0.92907 0.08747 0.66514 0.0
C490 C 0.85112 0.02446 0.63735 0.0
C491 C 0.95299 0.08727 0.67732 0.0
C492 C 0.75892 0.03211 0.58512 0.0
C493 C 0.78389 0.02995 0.5963 0.0
C494 C 0.86874 0.09191 0.62216 0.0
C495 C 0.91253 0.0579 0.65362 0.0
C496 C 0.88596 0.05772 0.6411 0.0
C497 C 0.80546 0.06016 0.60724 0.0
C498 C 0.83343 0.05893 0.61867 0.0
H499 H 0.95089 0.00504 0.6669 0.0
H500 H 0.90883 0.0054 0.64558 0.0
H501 H 0.9215 0.11726 0.63572 0.0
H502 H 0.77316 0.11942 0.59581 0.0
H503 H 0.81613 0.11546 0.61548 0.0
C504 C 0.93745 0.92187 0.01112 0.0
C505 C 0.97555 0.94297 0.00688 0.0
C506 C 0.91044 0.89292 0.00104 0.0
C507 C 0.89415 0.862 0.95881 0.0
H508 H 0.80488 0.77439 0.97488 0.0
C509 C 0.77387 0.74803 0.91752 0.0
C510 C 0.7375 0.74173 0.92088 0.0
C511 C 0.80452 0.76817 0.92839 0.0
C512 C 0.82972 0.7987 0.97025 0.0
H513 H 0.01654 0.94834 0.98978 0.0
H514 H 0.96931 0.89733 0.972 0.0
H515 H 0.85674 0.81704 0.99332 0.0
H516 H 0.70413 0.74993 0.9384 0.0
H517 H 0.75758 0.78457 0.95755 0.0
H518 H 0.86687 0.84344 0.93571 0.0
C519 C 0.95991 0.90397 0.98284 0.0
C520 C 0.85935 0.82325 0.98079 0.0
C521 C 0.98696 0.933 0.99299 0.0
C522 C 0.73196 0.75456 0.93554 0.0
C523 C 0.76243 0.77414 0.9465 0.0
C524 C 0.8647 0.83716 0.94825 0.0
C525 C 0.92116 0.88406 0.9866 0.0
C526 C 0.8916 0.85567 0.97524 0.0
C527 C 0.79913 0.78175 0.9429 0.0
C528 C 0.83191 0.8057 0.95391 0.0
H529 H 0.92839 0.92834 0.0221 0.0
H530 H 0.88093 0.87856 0.00432 0.0
H531 H 0.91818 0.88697 0.95412 0.0
H532 H 0.77889 0.73865 0.90624 0.0
H533 H 0.83253 0.77354 0.92538 0.0
C534 C 0.0362 0.94683 0.33041 0.0
C535 C 0.00415 0.94389 0.33767 0.0
C536 C 0.03243 0.9182 0.31997 0.0
C537 C 0.96157 0.8345 0.29559 0.0
H538 H 0.03866 0.80504 0.29899 0.0
C539 C 0.94305 0.6999 0.26391 0.0
C540 C 0.97436 0.70442 0.25544 0.0
C541 C 0.9469 0.72844 0.27442 0.0
C542 C 0.01706 0.81313 0.29783 0.0
H543 H 0.94287 0.90912 0.33936 0.0
H544 H 0.93631 0.85887 0.32134 0.0
H545 H 0.04469 0.85709 0.31572 0.0
H546 H 0.03454 0.74227 0.25174 0.0
H547 H 0.04133 0.79174 0.2703 0.0
H548 H 0.93377 0.79017 0.27781 0.0
C549 C 0.96433 0.88352 0.32352 0.0
C550 C 0.02056 0.84307 0.30736 0.0
C551 C 0.96809 0.91229 0.3339 0.0
C552 C 0.00996 0.73755 0.25823 0.0
C553 C 0.01384 0.766 0.26882 0.0
C554 C 0.95796 0.80441 0.28613 0.0
C555 C 0.99654 0.88585 0.31661 0.0
C556 C 0.99291 0.8542 0.30633 0.0
C557 C 0.98219 0.76205 0.2768 0.0
C558 C 0.98569 0.79344 0.28713 0.0
H559 H 0.06437 0.97095 0.33301 0.0
H560 H 0.05773 0.92133 0.3146 0.0
H561 H 0.94004 0.84265 0.29431 0.0
H562 H 0.91539 0.67446 0.26226 0.0
H563 H 0.92216 0.72431 0.28063 0.0
C564 C 0.0795 0.97739 0.66839 0.0
C565 C 0.09102 0.01289 0.67572 0.0
C566 C 0.10457 0.97258 0.65883 0.0
C567 C 0.2058 0.01004 0.65391 0.0
H568 H 0.1822 0.97927 0.60944 0.0
C569 C 0.32291 0.04612 0.60958 0.0
C570 C 0.31586 0.02191 0.59636 0.0
C571 C 0.29415 0.03857 0.62011 0.0
C572 C 0.18906 0.98708 0.62193 0.0
H573 H 0.1376 0.07117 0.67867 0.0
H574 H 0.18113 0.06248 0.66235 0.0
H575 H 0.13287 0.97707 0.6261 0.0
H576 H 0.27313 0.96989 0.58418 0.0
H577 H 0.22342 0.95594 0.6029 0.0
H578 H 0.26182 0.02019 0.64994 0.0
C579 C 0.15284 0.03848 0.66393 0.0
C580 C 0.16078 0.9859 0.63142 0.0
C581 C 0.12775 0.04346 0.67318 0.0
C582 C 0.27974 0.98902 0.59432 0.0
C583 C 0.25101 0.98128 0.60493 0.0
C584 C 0.23387 0.01072 0.64452 0.0
C585 C 0.14167 0.00299 0.6568 0.0
C586 C 0.16931 0.99846 0.64735 0.0
C587 C 0.25762 0.00635 0.6178 0.0
C588 C 0.22626 0.00041 0.62828 0.0
H589 H 0.05136 0.95335 0.67015 0.0
H590 H 0.09537 0.94497 0.65338 0.0
H591 H 0.21286 0.01942 0.66625 0.0
H592 H 0.35052 0.0714 0.61166 0.0
H593 H 0.3003 0.05884 0.62974 0.0
C594 C 0.13845 0.10352 0.00474 0.0
C595 C 0.10588 0.10647 0.00706 0.0
C596 C 0.17011 0.13281 -0.0025 0.0
C597 C 0.21873 0.23439 0.98997 0.0
H598 H 0.25008 0.21037 0.9506 0.0
C599 C 0.29993 0.34763 0.94388 0.0
C600 C 0.32378 0.34308 0.93342 0.0
C601 C 0.27958 0.32002 0.95499 0.0
C602 C 0.24253 0.21767 0.96177 0.0
H603 H 0.08131 0.14272 0.00407 0.0
H604 H 0.13686 0.19408 0.99181 0.0
H605 H 0.20304 0.15916 0.96634 0.0
H606 H 0.3464 0.30662 0.92713 0.0
H607 H 0.3125 0.25955 0.94705 0.0
H608 H 0.25809 0.29276 0.98558 0.0
C609 C 0.13774 0.16903 0.99545 0.0
C610 C 0.2154 0.18824 0.97073 0.0
C611 C 0.10589 0.13952 0.00234 0.0
C612 C 0.3285 0.31129 0.93502 0.0
C613 C 0.30852 0.28389 0.94631 0.0
C614 C 0.24636 0.2638 0.98118 0.0
C615 C 0.16999 0.16584 0.99285 0.0
C616 C 0.20253 0.19644 0.98466 0.0
C617 C 0.28296 0.28735 0.95615 0.0
C618 C 0.25779 0.25594 0.9667 0.0
H619 H 0.13917 0.07831 0.00822 0.0
H620 H 0.1947 0.12977 0.99557 0.0
H621 H 0.20948 0.24132 0.00079 0.0
H622 H 0.29616 0.3721 0.94323 0.0
H623 H 0.25997 0.32368 0.9622 0.0
C624 C 0.038 0.14878 0.35209 0.0
C625 C 0.03438 0.11379 0.34758 0.0
C626 C 0.03515 0.17214 0.34074 0.0
C627 C 0.00235 0.17109 0.29876 0.0
H628 H 0.05986 0.28061 0.30545 0.0
C629 C 0.0174 0.27879 0.25096 0.0
C630 C 0.00484 0.30376 0.25561 0.0
C631 C 0.02237 0.25633 0.26214 0.0
C632 C 0.04361 0.25006 0.3035 0.0
H633 H 0.02564 0.07607 0.3276 0.0
H634 H 0.02251 0.1176 0.30763 0.0
H635 H 0.06692 0.23981 0.32467 0.0
H636 H 0.98848 0.32565 0.27553 0.0
H637 H 0.9985 0.2871 0.2953 0.0
H638 H 0.98032 0.18191 0.27721 0.0
C639 C 0.0262 0.12655 0.32 0.0
C640 C 0.04736 0.22656 0.31454 0.0
C641 C 0.02823 0.10277 0.33143 0.0
C642 C 0.99824 0.30662 0.2717 0.0
C643 C 0.00403 0.28473 0.28296 0.0
C644 C 0.99927 0.19467 0.28757 0.0
C645 C 0.02943 0.16152 0.32451 0.0
C646 C 0.02649 0.18667 0.31242 0.0
C647 C 0.0156 0.25903 0.27821 0.0
C648 C 0.01963 0.23429 0.28992 0.0
H649 H 0.04228 0.15783 0.36449 0.0
H650 H 0.03684 0.19826 0.3448 0.0
H651 H 0.9852 0.14062 0.29681 0.0
H652 H 0.0223 0.27585 0.23858 0.0
H653 H 0.03143 0.23678 0.25825 0.0
loop_
_geom_bond_atom_site_label_1
_geom_bond_atom_site_label_2
_geom_bond_distance
_geom_bond_site_symmetry_2
_ccdc_geom_bond_type
Mn0 O5 2.095 . S
Mn0 O15 2.162 1_545 S
Mn0 O16 2.297 1_545 S
Mn0 O24 2.385 1_545 S
Mn0 O25 2.209 1_455 S
Mn0 O26 2.094 . S
Mn1 O6 2.121 . S
Mn1 N8 2.257 1_455 S
Mn1 N17 2.282 1_454 S
Mn1 O25 2.215 1_455 S
Mn1 O27 2.117 . S
C2 O24 1.234 1_655 S
C2 O25 1.283 1_565 S
C3 O15 1.281 . S
C3 O16 1.236 . S
C4 O26 1.240 . S
C4 O27 1.264 . S
O5 Mn0 2.095 . S
O5 C14 1.250 . S
O6 Mn1 2.121 . S
O6 C14 1.258 . S
C7 N8 1.326 . S
C7 C11 1.460 . S
C7 H13 0.929 . S
N8 Mn1 2.257 1_655 S
N8 C7 1.326 . S
N8 C12 1.362 . S
C9 C10 1.258 . S
C9 C12 1.431 . S
C9 C29 1.449 1_554 S
C10 C9 1.258 . S
C10 C11 1.477 . S
C10 H30 0.931 . S
C11 C7 1.460 . S
C11 C10 1.477 . S
C11 H31 0.930 . S
C12 N8 1.362 . S
C12 C9 1.431 . S
C12 C22 1.476 1_554 S
H13 C7 0.929 . S
C14 O5 1.250 . S
C14 O6 1.258 . S
O15 Mn0 2.162 1_565 S
O15 C3 1.281 . S
O16 Mn0 2.297 1_565 S
O16 C3 1.236 . S
N17 Mn1 2.282 1_656 S
N17 C18 1.328 1_655 S
N17 C22 1.318 . S
C18 N17 1.328 1_455 S
C18 C19 1.457 1_455 S
C18 H23 0.929 . S
C19 C18 1.457 1_655 S
C19 C20 1.291 . S
C19 H32 0.930 1_655 S
C20 C19 1.291 . S
C20 C21 1.373 . S
C20 H33 0.929 1_545 S
C21 C20 1.373 . S
C21 C22 1.396 . S
C21 C28 1.403 . S
C22 C12 1.476 1_556 S
C22 N17 1.318 . S
C22 C21 1.396 . S
H23 C18 0.929 . S
O24 Mn0 2.385 1_565 S
O24 C2 1.234 1_455 S
O25 Mn0 2.209 1_655 S
O25 Mn1 2.215 1_655 S
O25 C2 1.283 1_545 S
O26 Mn0 2.094 . S
O26 C4 1.240 . S
O27 Mn1 2.117 . S
O27 C4 1.264 . S
C28 C21 1.403 . S
C28 C29 1.399 . S
C28 H34 0.929 1_545 S
C29 C9 1.449 1_556 S
C29 C28 1.399 . S
C29 H35 0.930 . S
H30 C10 0.931 . S
H31 C11 0.930 . S
H32 C19 0.930 1_455 S
H33 C20 0.929 1_565 S
H34 C28 0.929 1_565 S
H35 C29 0.930 . S
Mn36 O41 2.095 . S
Mn36 O51 2.162 1_545 S
Mn36 O52 2.297 1_645 S
Mn36 O60 2.385 1_645 S
Mn36 O61 2.209 1_655 S
Mn36 O62 2.094 1_545 S
Mn37 O42 2.121 . S
Mn37 N44 2.257 . S
Mn37 N53 2.282 . S
Mn37 O61 2.215 . S
Mn37 O63 2.117 1_455 S
C38 O60 1.234 1_545 S
C38 O61 1.283 . S
C39 O51 1.281 1_455 S
C39 O52 1.236 . S
C40 O62 1.240 1_545 S
C40 O63 1.264 . S
O41 Mn36 2.095 . S
O41 C50 1.250 1_655 S
O42 Mn37 2.121 . S
O42 C50 1.258 . S
C43 N44 1.326 . S
C43 C47 1.460 . S
C43 H49 0.929 . S
N44 Mn37 2.257 . S
N44 C43 1.326 . S
N44 C48 1.362 . S
C45 C46 1.258 . S
C45 C48 1.431 . S
C45 C65 1.449 . S
C46 C45 1.258 . S
C46 C47 1.477 . S
C46 H66 0.931 . S
C47 C43 1.460 . S
C47 C46 1.477 . S
C47 H67 0.930 . S
C48 N44 1.362 . S
C48 C45 1.431 . S
C48 C58 1.476 . S
H49 C43 0.929 . S
C50 O41 1.250 1_455 S
C50 O42 1.258 . S
O51 Mn36 2.162 1_565 S
O51 C39 1.281 1_655 S
O52 Mn36 2.297 1_465 S
O52 C39 1.236 . S
N53 Mn37 2.282 . S
N53 C54 1.328 . S
N53 C58 1.318 . S
C54 N53 1.328 . S
C54 C55 1.457 . S
C54 H59 0.929 . S
C55 C54 1.457 . S
C55 C56 1.291 . S
C55 H68 0.931 . S
C56 C55 1.291 . S
C56 C57 1.373 . S
C56 H69 0.929 . S
C57 C56 1.373 . S
C57 C58 1.396 . S
C57 C64 1.403 . S
C58 C48 1.476 . S
C58 N53 1.318 . S
C58 C57 1.396 . S
H59 C54 0.929 . S
O60 Mn36 2.385 1_465 S
O60 C38 1.234 1_565 S
O61 Mn36 2.209 1_455 S
O61 Mn37 2.215 . S
O61 C38 1.283 . S
O62 Mn36 2.094 1_565 S
O62 C40 1.240 1_565 S
O63 Mn37 2.117 1_655 S
O63 C40 1.264 . S
C64 C57 1.403 . S
C64 C65 1.399 . S
C64 H70 0.929 . S
C65 C45 1.449 . S
C65 C64 1.399 . S
C65 H71 0.930 . S
H66 C46 0.931 . S
H67 C47 0.930 . S
H68 C55 0.931 . S
H69 C56 0.929 . S
H70 C64 0.929 . S
H71 C65 0.930 . S
Mn72 O77 2.095 1_455 S
Mn72 O87 2.162 1_545 S
Mn72 O88 2.297 . S
Mn72 O96 2.385 . S
Mn72 O97 2.209 . S
Mn72 O98 2.094 1_445 S
Mn73 O78 2.121 . S
Mn73 N80 2.257 . S
Mn73 N89 2.282 1_655 S
Mn73 O97 2.215 1_655 S
Mn73 O99 2.117 1_545 S
C74 O96 1.234 . S
C74 O97 1.283 . S
C75 O87 1.281 1_545 S
C75 O88 1.236 . S
C76 O98 1.240 . S
C76 O99 1.264 . S
O77 Mn72 2.095 1_655 S
O77 C86 1.250 . S
O78 Mn73 2.121 . S
O78 C86 1.258 . S
C79 N80 1.326 . S
C79 C83 1.460 1_655 S
C79 H85 0.929 . S
N80 Mn73 2.257 . S
N80 C79 1.326 . S
N80 C84 1.362 1_655 S
C81 C82 1.258 . S
C81 C84 1.431 . S
C81 C101 1.449 . S
C82 C81 1.258 . S
C82 C83 1.477 . S
C82 H102 0.931 . S
C83 C79 1.460 1_455 S
C83 C82 1.477 . S
C83 H103 0.927 1_455 S
C84 N80 1.362 1_455 S
C84 C81 1.431 . S
C84 C94 1.476 . S
H85 C79 0.929 . S
C86 O77 1.250 . S
C86 O78 1.258 . S
O87 Mn72 2.162 1_565 S
O87 C75 1.281 1_565 S
O88 Mn72 2.297 . S
O88 C75 1.236 . S
N89 Mn73 2.282 1_455 S
N89 C90 1.328 . S
N89 C94 1.318 . S
C90 N89 1.328 . S
C90 C91 1.457 . S
C90 H95 0.932 1_455 S
C91 C90 1.457 . S
C91 C92 1.291 . S
C91 H104 0.931 . S
C92 C91 1.291 . S
C92 C93 1.373 . S
C92 H105 0.929 . S
C93 C92 1.373 . S
C93 C94 1.396 . S
C93 C100 1.403 . S
C94 C84 1.476 . S
C94 N89 1.318 . S
C94 C93 1.396 . S
H95 C90 0.932 1_655 S
O96 Mn72 2.385 . S
O96 C74 1.234 . S
O97 Mn72 2.209 . S
O97 Mn73 2.215 1_455 S
O97 C74 1.283 . S
O98 Mn72 2.094 1_665 S
O98 C76 1.240 . S
O99 Mn73 2.117 1_565 S
O99 C76 1.264 . S
C100 C93 1.403 . S
C100 C101 1.399 . S
C100 H106 0.929 . S
C101 C81 1.449 . S
C101 C100 1.399 . S
C101 H107 0.930 . S
H102 C82 0.931 . S
H103 C83 0.927 1_655 S
H104 C91 0.931 . S
H105 C92 0.929 . S
H106 C100 0.929 . S
H107 C101 0.930 . S
H108 C135 0.929 . S
N109 C134 1.433 . S
N109 C140 1.435 . S
N109 C146 1.423 1_455 S
H110 C136 0.930 . S
H111 C139 0.931 . S
H112 C138 0.929 . S
H113 C141 0.930 . S
H114 C142 0.932 . S
H115 C145 0.929 . S
H116 C144 0.931 . S
H117 C147 0.929 . S
H118 C151 0.932 . S
H119 C148 0.931 . S
H120 C150 0.929 . S
H121 C153 0.929 . S
H122 C154 0.930 . S
H123 C156 0.929 . S
H124 C157 0.931 . S
H125 C159 0.930 . S
H126 C160 0.932 . S
H127 C162 0.931 . S
H128 C163 0.929 . S
H129 C165 0.929 . S
H130 C166 0.931 . S
H131 C168 0.929 . S
N132 C152 1.433 . S
N132 C158 1.435 . S
N132 C164 1.423 1_455 S
H133 C169 0.932 . S
C134 N109 1.433 . S
C134 C135 1.363 1_455 S
C134 C139 1.370 . S
C135 H108 0.929 . S
C135 C134 1.363 1_655 S
C135 C136 1.385 . S
C136 H110 0.930 . S
C136 C135 1.385 . S
C136 C137 1.357 1_655 S
C137 C136 1.357 1_455 S
C137 C138 1.406 . S
C138 H112 0.929 . S
C138 C137 1.406 . S
C138 C139 1.391 . S
C139 H111 0.931 . S
C139 C134 1.370 . S
C139 C138 1.391 . S
C140 N109 1.435 . S
C140 C141 1.358 . S
C140 C145 1.371 1_455 S
C141 H113 0.930 . S
C141 C140 1.358 . S
C141 C142 1.405 . S
C142 H114 0.932 . S
C142 C141 1.405 . S
C142 C143 1.383 . S
C143 C142 1.383 . S
C143 C144 1.393 1_455 S
C144 H116 0.931 . S
C144 C143 1.393 1_655 S
C144 C145 1.382 . S
C145 H115 0.929 . S
C145 C140 1.371 1_655 S
C145 C144 1.382 . S
C146 N109 1.423 1_655 S
C146 C147 1.362 . S
C146 C151 1.388 1_655 S
C147 H117 0.929 . S
C147 C146 1.362 . S
C147 C148 1.376 . S
C148 H119 0.931 . S
C148 C147 1.376 . S
C148 C149 1.396 . S
C149 C148 1.396 . S
C149 C150 1.348 1_655 S
C149 C167 1.472 . S
C150 H120 0.929 . S
C150 C149 1.348 1_455 S
C150 C151 1.443 . S
C151 H118 0.932 . S
C151 C146 1.388 1_455 S
C151 C150 1.443 . S
C152 N132 1.433 . S
C152 C153 1.363 1_455 S
C152 C157 1.370 . S
C153 H121 0.929 . S
C153 C152 1.363 1_655 S
C153 C154 1.385 . S
C154 H122 0.930 . S
C154 C153 1.385 . S
C154 C155 1.357 1_655 S
C155 C154 1.357 1_455 S
C155 C156 1.406 . S
C156 H123 0.929 . S
C156 C155 1.406 . S
C156 C157 1.391 . S
C157 H124 0.931 . S
C157 C152 1.370 . S
C157 C156 1.391 . S
C158 N132 1.435 . S
C158 C159 1.358 . S
C158 C163 1.371 1_455 S
C159 H125 0.930 . S
C159 C158 1.358 . S
C159 C160 1.405 . S
C160 H126 0.932 . S
C160 C159 1.405 . S
C160 C161 1.383 . S
C161 C160 1.383 . S
C161 C162 1.393 1_455 S
C162 H127 0.931 . S
C162 C161 1.393 1_655 S
C162 C163 1.382 . S
C163 H128 0.929 . S
C163 C158 1.371 1_655 S
C163 C162 1.382 . S
C164 N132 1.423 1_655 S
C164 C165 1.362 . S
C164 C169 1.388 1_655 S
C165 H129 0.929 . S
C165 C164 1.362 . S
C165 C166 1.376 . S
C166 H130 0.931 . S
C166 C165 1.376 . S
C166 C167 1.396 . S
C167 C149 1.472 . S
C167 C166 1.396 . S
C167 C168 1.348 1_655 S
C168 H131 0.929 . S
C168 C167 1.348 1_455 S
C168 C169 1.443 . S
C169 H133 0.932 . S
C169 C164 1.388 1_455 S
C169 C168 1.443 . S
H170 C197 0.929 . S
N171 C196 1.433 . S
N171 C202 1.435 . S
N171 C208 1.423 . S
H172 C198 0.930 . S
H173 C201 0.931 . S
H174 C200 0.929 . S
H175 C203 0.930 . S
H176 C204 0.932 . S
H177 C207 0.929 . S
H178 C206 0.931 . S
H179 C209 0.929 . S
H180 C213 0.932 . S
H181 C210 0.931 . S
H182 C212 0.929 . S
H183 C215 0.929 . S
H184 C216 0.930 . S
H185 C218 0.929 . S
H186 C219 0.931 . S
H187 C221 0.930 . S
H188 C222 0.932 . S
H189 C224 0.931 . S
H190 C225 0.929 . S
H191 C227 0.929 . S
H192 C228 0.931 . S
H193 C230 0.929 . S
N194 C214 1.433 . S
N194 C220 1.435 . S
N194 C226 1.423 . S
H195 C231 0.932 . S
C196 N171 1.433 . S
C196 C197 1.363 . S
C196 C201 1.370 . S
C197 H170 0.929 . S
C197 C196 1.363 . S
C197 C198 1.385 . S
C198 H172 0.930 . S
C198 C197 1.385 . S
C198 C199 1.357 . S
C199 C198 1.357 . S
C199 C200 1.406 . S
C200 H174 0.929 . S
C200 C199 1.406 . S
C200 C201 1.391 . S
C201 H173 0.931 . S
C201 C196 1.370 . S
C201 C200 1.391 . S
C202 N171 1.435 . S
C202 C203 1.358 . S
C202 C207 1.371 . S
C203 H175 0.930 . S
C203 C202 1.358 . S
C203 C204 1.405 . S
C204 H176 0.932 . S
C204 C203 1.405 . S
C204 C205 1.383 . S
C205 C204 1.383 . S
C205 C206 1.393 . S
C206 H178 0.931 . S
C206 C205 1.393 . S
C206 C207 1.382 . S
C207 H177 0.929 . S
C207 C202 1.371 . S
C207 C206 1.382 . S
C208 N171 1.423 . S
C208 C209 1.362 . S
C208 C213 1.388 . S
C209 H179 0.929 . S
C209 C208 1.362 . S
C209 C210 1.376 . S
C210 H181 0.931 . S
C210 C209 1.376 . S
C210 C211 1.396 . S
C211 C210 1.396 . S
C211 C212 1.348 . S
C211 C229 1.472 . S
C212 H182 0.929 . S
C212 C211 1.348 . S
C212 C213 1.443 . S
C213 H180 0.932 . S
C213 C208 1.388 . S
C213 C212 1.443 . S
C214 N194 1.433 . S
C214 C215 1.363 . S
C214 C219 1.370 . S
C215 H183 0.929 . S
C215 C214 1.363 . S
C215 C216 1.385 . S
C216 H184 0.930 . S
C216 C215 1.385 . S
C216 C217 1.357 . S
C217 C216 1.357 . S
C217 C218 1.406 . S
C218 H185 0.929 . S
C218 C217 1.406 . S
C218 C219 1.391 . S
C219 H186 0.931 . S
C219 C214 1.370 . S
C219 C218 1.391 . S
C220 N194 1.435 . S
C220 C221 1.358 . S
C220 C225 1.371 . S
C221 H187 0.930 . S
C221 C220 1.358 . S
C221 C222 1.405 . S
C222 H188 0.932 . S
C222 C221 1.405 . S
C222 C223 1.383 . S
C223 C222 1.383 . S
C223 C224 1.393 . S
C224 H189 0.931 . S
C224 C223 1.393 . S
C224 C225 1.382 . S
C225 H190 0.929 . S
C225 C220 1.371 . S
C225 C224 1.382 . S
C226 N194 1.423 . S
C226 C227 1.362 . S
C226 C231 1.388 . S
C227 H191 0.929 . S
C227 C226 1.362 . S
C227 C228 1.376 . S
C228 H192 0.931 . S
C228 C227 1.376 . S
C228 C229 1.396 . S
C229 C211 1.472 . S
C229 C228 1.396 . S
C229 C230 1.348 . S
C230 H193 0.929 . S
C230 C229 1.348 . S
C230 C231 1.443 . S
C231 H195 0.932 . S
C231 C226 1.388 . S
C231 C230 1.443 . S
H232 C259 0.929 . S
N233 C258 1.433 . S
N233 C264 1.435 . S
N233 C270 1.423 . S
H234 C260 0.930 . S
H235 C263 0.931 . S
H236 C262 0.929 . S
H237 C265 0.930 . S
H238 C266 0.932 . S
H239 C269 0.929 . S
H240 C268 0.931 . S
H241 C271 0.929 . S
H242 C275 0.932 . S
H243 C272 0.931 . S
H244 C274 0.929 . S
H245 C277 0.929 . S
H246 C278 0.930 . S
H247 C280 0.929 . S
H248 C281 0.931 . S
H249 C283 0.930 . S
H250 C284 0.932 . S
H251 C286 0.931 . S
H252 C287 0.929 . S
H253 C289 0.929 . S
H254 C290 0.931 . S
H255 C292 0.929 . S
N256 C276 1.433 . S
N256 C282 1.435 . S
N256 C288 1.423 . S
H257 C293 0.932 . S
C258 N233 1.433 . S
C258 C259 1.363 . S
C258 C263 1.370 . S
C259 H232 0.929 . S
C259 C258 1.363 . S
C259 C260 1.385 . S
C260 H234 0.930 . S
C260 C259 1.385 . S
C260 C261 1.357 . S
C261 C260 1.357 . S
C261 C262 1.406 . S
C262 H236 0.929 . S
C262 C261 1.406 . S
C262 C263 1.391 . S
C263 H235 0.931 . S
C263 C258 1.370 . S
C263 C262 1.391 . S
C264 N233 1.435 . S
C264 C265 1.358 . S
C264 C269 1.371 . S
C265 H237 0.930 . S
C265 C264 1.358 . S
C265 C266 1.405 . S
C266 H238 0.932 . S
C266 C265 1.405 . S
C266 C267 1.383 . S
C267 C266 1.383 . S
C267 C268 1.393 . S
C268 H240 0.931 . S
C268 C267 1.393 . S
C268 C269 1.382 . S
C269 H239 0.929 . S
C269 C264 1.371 . S
C269 C268 1.382 . S
C270 N233 1.423 . S
C270 C271 1.362 . S
C270 C275 1.388 . S
C271 H241 0.929 . S
C271 C270 1.362 . S
C271 C272 1.376 . S
C272 H243 0.931 . S
C272 C271 1.376 . S
C272 C273 1.396 . S
C273 C272 1.396 . S
C273 C274 1.348 . S
C273 C291 1.472 . S
C274 H244 0.929 . S
C274 C273 1.348 . S
C274 C275 1.443 . S
C275 H242 0.932 . S
C275 C270 1.388 . S
C275 C274 1.443 . S
C276 N256 1.433 . S
C276 C277 1.363 . S
C276 C281 1.370 . S
C277 H245 0.929 . S
C277 C276 1.363 . S
C277 C278 1.385 . S
C278 H246 0.930 . S
C278 C277 1.385 . S
C278 C279 1.357 . S
C279 C278 1.357 . S
C279 C280 1.406 . S
C280 H247 0.929 . S
C280 C279 1.406 . S
C280 C281 1.391 . S
C281 H248 0.931 . S
C281 C276 1.370 . S
C281 C280 1.391 . S
C282 N256 1.435 . S
C282 C283 1.358 . S
C282 C287 1.371 . S
C283 H249 0.930 . S
C283 C282 1.358 . S
C283 C284 1.405 . S
C284 H250 0.932 . S
C284 C283 1.405 . S
C284 C285 1.383 . S
C285 C284 1.383 . S
C285 C286 1.393 . S
C286 H251 0.931 . S
C286 C285 1.393 . S
C286 C287 1.382 . S
C287 H252 0.929 . S
C287 C282 1.371 . S
C287 C286 1.382 . S
C288 N256 1.423 . S
C288 C289 1.362 . S
C288 C293 1.388 . S
C289 H253 0.929 . S
C289 C288 1.362 . S
C289 C290 1.376 . S
C290 H254 0.931 . S
C290 C289 1.376 . S
C290 C291 1.396 . S
C291 C273 1.472 . S
C291 C290 1.396 . S
C291 C292 1.348 . S
C292 H255 0.929 . S
C292 C291 1.348 . S
C292 C293 1.443 . S
C293 H257 0.932 . S
C293 C288 1.388 . S
C293 C292 1.443 . S
C294 C295 1.349 . S
C294 C296 1.327 . S
C294 H319 0.950 . S
C295 C294 1.349 . S
C295 C311 1.349 . S
C296 C294 1.327 . S
C296 C315 1.429 . S
C296 H320 0.950 . S
C297 C314 1.574 . S
C297 C316 1.368 . S
C297 H321 0.949 . S
H298 C302 0.949 . S
C299 C300 1.349 . S
C299 C301 1.327 . S
C299 H322 0.950 . S
C300 C299 1.349 . S
C300 C312 1.349 . S
C301 C299 1.327 . S
C301 C317 1.429 . S
C301 H323 0.950 . S
C302 H298 0.949 . S
C302 C310 1.574 . S
C302 C318 1.368 . S
H303 C311 0.950 . S
H304 C309 0.950 . S
H305 C310 0.949 . S
H306 C312 0.950 . S
H307 C313 0.950 . S
H308 C314 0.949 . S
C309 H304 0.950 . S
C309 C311 1.327 . S
C309 C315 1.429 . S
C310 C302 1.574 . S
C310 H305 0.949 . S
C310 C316 1.368 . S
C311 C295 1.349 . S
C311 H303 0.950 . S
C311 C309 1.327 . S
C312 C300 1.349 . S
C312 H306 0.950 . S
C312 C313 1.327 . S
C313 H307 0.950 . S
C313 C312 1.327 . S
C313 C317 1.429 . S
C314 C297 1.574 . S
C314 H308 0.949 . S
C314 C318 1.368 . S
C315 C296 1.429 . S
C315 C309 1.429 . S
C315 C316 1.523 . S
C316 C297 1.368 . S
C316 C310 1.368 . S
C316 C315 1.523 . S
C317 C301 1.429 . S
C317 C313 1.429 . S
C317 C318 1.523 . S
C318 C302 1.368 . S
C318 C314 1.368 . S
C318 C317 1.523 . S
H319 C294 0.950 . S
H320 C296 0.950 . S
H321 C297 0.949 . S
H322 C299 0.950 . S
H323 C301 0.950 . S
C324 C325 1.349 1_565 S
C324 C326 1.319 1_565 S
C324 H349 0.950 . S
C325 C324 1.349 1_545 S
C325 C341 1.349 . S
C326 C324 1.319 1_545 S
C326 C345 1.445 . S
C326 H350 0.942 1_545 S
C327 C344 1.574 . S
C327 C346 1.368 . S
C327 H351 0.949 . S
H328 C332 0.949 1_565 S
C329 C330 1.349 . S
C329 C331 1.327 . S
C329 H352 0.950 . S
C330 C329 1.349 . S
C330 C342 1.349 . S
C331 C329 1.327 . S
C331 C347 1.429 . S
C331 H353 0.950 . S
C332 H328 0.949 1_545 S
C332 C340 1.574 . S
C332 C348 1.368 . S
H333 C341 0.950 . S
H334 C339 0.950 . S
H335 C340 0.949 1_565 S
H336 C342 0.950 . S
H337 C343 0.950 . S
H338 C344 0.949 . S
C339 H334 0.950 . S
C339 C341 1.327 . S
C339 C345 1.429 . S
C340 C332 1.574 . S
C340 H335 0.949 1_545 S
C340 C346 1.368 . S
C341 C325 1.349 . S
C341 H333 0.950 . S
C341 C339 1.327 . S
C342 C330 1.349 . S
C342 H336 0.950 . S
C342 C343 1.327 . S
C343 H337 0.950 . S
C343 C342 1.327 . S
C343 C347 1.429 . S
C344 C327 1.574 . S
C344 H338 0.949 . S
C344 C348 1.368 . S
C345 C326 1.445 . S
C345 C339 1.429 . S
C345 C346 1.523 . S
C346 C327 1.368 . S
C346 C340 1.368 . S
C346 C345 1.523 . S
C347 C331 1.429 . S
C347 C343 1.429 . S
C347 C348 1.523 . S
C348 C332 1.368 . S
C348 C344 1.368 . S
C348 C347 1.523 . S
H349 C324 0.950 . S
H350 C326 0.942 1_565 S
H351 C327 0.949 . S
H352 C329 0.950 . S
H353 C331 0.950 . S
C354 C355 1.349 . S
C354 C356 1.327 . S
C354 H379 0.950 . S
C355 C354 1.349 . S
C355 C371 1.349 . S
C356 C354 1.327 . S
C356 C375 1.429 . S
C356 H380 0.950 . S
C357 C374 1.574 . S
C357 C376 1.368 . S
C357 H381 0.949 . S
H358 C362 0.949 . S
C359 C360 1.349 . S
C359 C361 1.327 . S
C359 H382 0.950 . S
C360 C359 1.349 . S
C360 C372 1.349 . S
C361 C359 1.327 . S
C361 C377 1.429 . S
C361 H383 0.950 . S
C362 H358 0.949 . S
C362 C370 1.574 . S
C362 C378 1.368 . S
H363 C371 0.950 . S
H364 C369 0.950 . S
H365 C370 0.949 . S
H366 C372 0.950 . S
H367 C373 0.950 . S
H368 C374 0.949 . S
C369 H364 0.950 . S
C369 C371 1.327 . S
C369 C375 1.429 . S
C370 C362 1.574 . S
C370 H365 0.949 . S
C370 C376 1.368 . S
C371 C355 1.349 . S
C371 H363 0.950 . S
C371 C369 1.327 . S
C372 C360 1.349 . S
C372 H366 0.950 . S
C372 C373 1.327 . S
C373 H367 0.950 . S
C373 C372 1.327 . S
C373 C377 1.429 . S
C374 C357 1.574 . S
C374 H368 0.949 . S
C374 C378 1.368 . S
C375 C356 1.429 . S
C375 C369 1.429 . S
C375 C376 1.523 . S
C376 C357 1.368 . S
C376 C370 1.368 . S
C376 C375 1.523 . S
C377 C361 1.429 . S
C377 C373 1.429 . S
C377 C378 1.523 . S
C378 C362 1.368 . S
C378 C374 1.368 . S
C378 C377 1.523 . S
H379 C354 0.950 . S
H380 C356 0.950 . S
H381 C357 0.949 . S
H382 C359 0.950 . S
H383 C361 0.950 . S
C384 C385 1.349 . S
C384 C386 1.327 . S
C384 H409 0.950 1_455 S
C385 C384 1.349 . S
C385 C401 1.349 . S
C386 C384 1.327 . S
C386 C405 1.429 . S
C386 H410 0.950 1_455 S
C387 C404 1.574 . S
C387 C406 1.368 . S
C387 H411 0.949 . S
H388 C392 0.949 . S
C389 C390 1.349 . S
C389 C391 1.327 . S
C389 H412 0.950 . S
C390 C389 1.349 . S
C390 C402 1.349 1_455 S
C391 C389 1.327 . S
C391 C407 1.429 . S
C391 H413 0.950 . S
C392 H388 0.949 . S
C392 C400 1.574 . S
C392 C408 1.368 1_655 S
H393 C401 0.950 . S
H394 C399 0.950 . S
H395 C400 0.949 . S
H396 C402 0.950 . S
H397 C403 0.950 . S
H398 C404 0.949 . S
C399 H394 0.950 . S
C399 C401 1.327 . S
C399 C405 1.429 . S
C400 C392 1.574 . S
C400 H395 0.949 . S
C400 C406 1.368 1_655 S
C401 C385 1.349 . S
C401 H393 0.950 . S
C401 C399 1.327 . S
C402 C390 1.349 1_655 S
C402 H396 0.950 . S
C402 C403 1.327 . S
C403 H397 0.950 . S
C403 C402 1.327 . S
C403 C407 1.429 1_655 S
C404 C387 1.574 . S
C404 H398 0.949 . S
C404 C408 1.368 . S
C405 C386 1.429 . S
C405 C399 1.429 . S
C405 C406 1.523 . S
C406 C387 1.368 . S
C406 C400 1.368 1_455 S
C406 C405 1.523 . S
C407 C391 1.429 . S
C407 C403 1.429 1_455 S
C407 C408 1.523 . S
C408 C392 1.368 1_455 S
C408 C404 1.368 . S
C408 C407 1.523 . S
H409 C384 0.950 1_655 S
H410 C386 0.950 1_655 S
H411 C387 0.949 . S
H412 C389 0.950 . S
H413 C391 0.950 . S
C414 C415 1.349 . S
C414 C416 1.327 . S
C414 H439 0.950 1_545 S
C415 C414 1.349 . S
C415 C431 1.349 . S
C416 C414 1.327 . S
C416 C435 1.429 . S
C416 H440 0.950 1_545 S
C417 C434 1.574 . S
C417 C436 1.368 . S
C417 H441 0.949 . S
H418 C422 0.949 1_565 S
C419 C420 1.349 . S
C419 C421 1.327 . S
C419 H442 0.950 . S
C420 C419 1.349 . S
C420 C432 1.349 . S
C421 C419 1.327 . S
C421 C437 1.429 . S
C421 H443 0.950 . S
C422 H418 0.949 1_545 S
C422 C430 1.574 . S
C422 C438 1.368 . S
H423 C431 0.950 . S
H424 C429 0.950 . S
H425 C430 0.949 1_565 S
H426 C432 0.950 1_565 S
H427 C433 0.950 1_565 S
H428 C434 0.949 . S
C429 H424 0.950 . S
C429 C431 1.327 . S
C429 C435 1.429 . S
C430 C422 1.574 . S
C430 H425 0.949 1_545 S
C430 C436 1.368 . S
C431 C415 1.349 . S
C431 H423 0.950 . S
C431 C429 1.327 . S
C432 C420 1.349 . S
C432 H426 0.950 1_545 S
C432 C433 1.327 . S
C433 H427 0.950 1_545 S
C433 C432 1.327 . S
C433 C437 1.429 . S
C434 C417 1.574 . S
C434 H428 0.949 . S
C434 C438 1.368 . S
C435 C416 1.429 . S
C435 C429 1.429 . S
C435 C436 1.523 . S
C436 C417 1.368 . S
C436 C430 1.368 . S
C436 C435 1.523 . S
C437 C421 1.429 . S
C437 C433 1.429 . S
C437 C438 1.523 . S
C438 C422 1.368 . S
C438 C434 1.368 . S
C438 C437 1.523 . S
H439 C414 0.950 1_565 S
H440 C416 0.950 1_565 S
H441 C417 0.949 . S
H442 C419 0.950 . S
H443 C421 0.950 . S
C444 C445 1.349 . S
C444 C446 1.327 . S
C444 H469 0.950 . S
C445 C444 1.349 . S
C445 C461 1.349 . S
C446 C444 1.327 . S
C446 C465 1.429 . S
C446 H470 0.950 . S
C447 C464 1.574 . S
C447 C466 1.368 . S
C447 H471 0.949 . S
H448 C452 0.949 . S
C449 C450 1.349 . S
C449 C451 1.327 . S
C449 H472 0.950 . S
C450 C449 1.349 . S
C450 C462 1.349 . S
C451 C449 1.327 . S
C451 C467 1.429 . S
C451 H473 0.950 . S
C452 H448 0.949 . S
C452 C460 1.574 . S
C452 C468 1.368 . S
H453 C461 0.950 . S
H454 C459 0.950 . S
H455 C460 0.949 . S
H456 C462 0.950 . S
H457 C463 0.950 . S
H458 C464 0.949 . S
C459 H454 0.950 . S
C459 C461 1.327 . S
C459 C465 1.429 . S
C460 C452 1.574 . S
C460 H455 0.949 . S
C460 C466 1.368 . S
C461 C445 1.349 . S
C461 H453 0.950 . S
C461 C459 1.327 . S
C462 C450 1.349 . S
C462 H456 0.950 . S
C462 C463 1.327 . S
C463 H457 0.950 . S
C463 C462 1.327 . S
C463 C467 1.429 . S
C464 C447 1.574 . S
C464 H458 0.949 . S
C464 C468 1.368 . S
C465 C446 1.429 . S
C465 C459 1.429 . S
C465 C466 1.523 . S
C466 C447 1.368 . S
C466 C460 1.368 . S
C466 C465 1.523 . S
C467 C451 1.429 . S
C467 C463 1.429 . S
C467 C468 1.523 . S
C468 C452 1.368 . S
C468 C464 1.368 . S
C468 C467 1.523 . S
H469 C444 0.950 . S
H470 C446 0.950 . S
H471 C447 0.949 . S
H472 C449 0.950 . S
H473 C451 0.950 . S
C474 C475 1.349 . S
C474 C476 1.327 . S
C474 H499 0.950 1_545 S
C475 C474 1.349 . S
C475 C491 1.349 . S
C476 C474 1.327 . S
C476 C495 1.429 . S
C476 H500 0.950 1_545 S
C477 C494 1.574 . S
C477 C496 1.368 . S
C477 H501 0.949 . S
H478 C482 0.949 1_565 S
C479 C480 1.349 . S
C479 C481 1.327 . S
C479 H502 0.950 . S
C480 C479 1.349 . S
C480 C492 1.349 . S
C481 C479 1.327 . S
C481 C497 1.429 . S
C481 H503 0.950 . S
C482 H478 0.949 1_545 S
C482 C490 1.574 . S
C482 C498 1.368 . S
H483 C491 0.950 . S
H484 C489 0.950 . S
H485 C490 0.949 1_565 S
H486 C492 0.950 1_565 S
H487 C493 0.950 1_565 S
H488 C494 0.949 . S
C489 H484 0.950 . S
C489 C491 1.327 . S
C489 C495 1.429 . S
C490 C482 1.574 . S
C490 H485 0.949 1_545 S
C490 C496 1.368 . S
C491 C475 1.349 . S
C491 H483 0.950 . S
C491 C489 1.327 . S
C492 C480 1.349 . S
C492 H486 0.950 1_545 S
C492 C493 1.327 . S
C493 H487 0.950 1_545 S
C493 C492 1.327 . S
C493 C497 1.429 . S
C494 C477 1.574 . S
C494 H488 0.949 . S
C494 C498 1.368 . S
C495 C476 1.429 . S
C495 C489 1.429 . S
C495 C496 1.523 . S
C496 C477 1.368 . S
C496 C490 1.368 . S
C496 C495 1.523 . S
C497 C481 1.429 . S
C497 C493 1.429 . S
C497 C498 1.523 . S
C498 C482 1.368 . S
C498 C494 1.368 . S
C498 C497 1.523 . S
H499 C474 0.950 1_565 S
H500 C476 0.950 1_565 S
H501 C477 0.949 . S
H502 C479 0.950 . S
H503 C481 0.950 . S
C504 C505 1.349 . S
C504 C506 1.327 . S
C504 H529 0.950 . S
C505 C504 1.349 . S
C505 C521 1.349 1_554 S
C506 C504 1.327 . S
C506 C525 1.429 1_554 S
C506 H530 0.950 . S
C507 C524 1.574 . S
C507 C526 1.368 . S
C507 H531 0.949 . S
H508 C512 0.949 . S
C509 C510 1.349 . S
C509 C511 1.327 . S
C509 H532 0.950 . S
C510 C509 1.349 . S
C510 C522 1.349 . S
C511 C509 1.327 . S
C511 C527 1.429 . S
C511 H533 0.950 . S
C512 H508 0.949 . S
C512 C520 1.574 . S
C512 C528 1.368 . S
H513 C521 0.950 . S
H514 C519 0.950 . S
H515 C520 0.949 1_554 S
H516 C522 0.950 . S
H517 C523 0.950 . S
H518 C524 0.949 . S
C519 H514 0.950 . S
C519 C521 1.327 . S
C519 C525 1.429 . S
C520 C512 1.574 . S
C520 H515 0.949 1_556 S
C520 C526 1.368 . S
C521 C505 1.349 1_556 S
C521 H513 0.950 . S
C521 C519 1.327 . S
C522 C510 1.349 . S
C522 H516 0.950 . S
C522 C523 1.327 . S
C523 H517 0.950 . S
C523 C522 1.327 . S
C523 C527 1.429 . S
C524 C507 1.574 . S
C524 H518 0.949 . S
C524 C528 1.368 . S
C525 C506 1.429 1_556 S
C525 C519 1.429 . S
C525 C526 1.523 . S
C526 C507 1.368 . S
C526 C520 1.368 . S
C526 C525 1.523 . S
C527 C511 1.429 . S
C527 C523 1.429 . S
C527 C528 1.523 . S
C528 C512 1.368 . S
C528 C524 1.368 . S
C528 C527 1.523 . S
H529 C504 0.950 . S
H530 C506 0.950 . S
H531 C507 0.949 . S
H532 C509 0.950 . S
H533 C511 0.950 . S
C534 C535 1.349 . S
C534 C536 1.327 . S
C534 H559 0.950 . S
C535 C534 1.349 . S
C535 C551 1.349 1_455 S
C536 C534 1.327 . S
C536 C555 1.429 . S
C536 H560 0.950 . S
C537 C554 1.574 . S
C537 C556 1.368 1_655 S
C537 H561 0.949 . S
H538 C542 0.949 . S
C539 C540 1.349 1_655 S
C539 C541 1.327 . S
C539 H562 0.950 . S
C540 C539 1.349 1_455 S
C540 C552 1.349 . S
C541 C539 1.327 . S
C541 C557 1.429 1_655 S
C541 H563 0.950 . S
C542 H538 0.949 . S
C542 C550 1.574 . S
C542 C558 1.368 . S
H543 C551 0.950 . S
H544 C549 0.950 . S
H545 C550 0.949 . S
H546 C552 0.950 . S
H547 C553 0.950 . S
H548 C554 0.949 . S
C549 H544 0.950 . S
C549 C551 1.327 . S
C549 C555 1.429 1_655 S
C550 C542 1.574 . S
C550 H545 0.949 . S
C550 C556 1.368 . S
C551 C535 1.349 1_655 S
C551 H543 0.950 . S
C551 C549 1.327 . S
C552 C540 1.349 . S
C552 H546 0.950 . S
C552 C553 1.327 . S
C553 H547 0.950 . S
C553 C552 1.327 . S
C553 C557 1.429 . S
C554 C537 1.574 . S
C554 H548 0.949 . S
C554 C558 1.368 1_655 S
C555 C536 1.429 . S
C555 C549 1.429 1_455 S
C555 C556 1.523 . S
C556 C537 1.368 1_455 S
C556 C550 1.368 . S
C556 C555 1.523 . S
C557 C541 1.429 1_455 S
C557 C553 1.429 . S
C557 C558 1.523 . S
C558 C542 1.368 . S
C558 C554 1.368 1_455 S
C558 C557 1.523 . S
H559 C534 0.950 . S
H560 C536 0.950 . S
H561 C537 0.949 . S
H562 C539 0.950 . S
H563 C541 0.950 . S
C564 C565 1.349 1_565 S
C564 C566 1.327 . S
C564 H589 0.950 . S
C565 C564 1.349 1_545 S
C565 C581 1.349 . S
C566 C564 1.327 . S
C566 C585 1.429 1_565 S
C566 H590 0.950 . S
C567 C584 1.574 . S
C567 C586 1.368 . S
C567 H591 0.949 . S
H568 C572 0.949 . S
C569 C570 1.349 . S
C569 C571 1.327 . S
C569 H592 0.950 . S
C570 C569 1.349 . S
C570 C582 1.349 . S
C571 C569 1.327 . S
C571 C587 1.429 . S
C571 H593 0.950 . S
C572 H568 0.949 . S
C572 C580 1.574 . S
C572 C588 1.368 1_565 S
H573 C581 0.950 . S
H574 C579 0.950 . S
H575 C580 0.949 . S
H576 C582 0.950 1_565 S
H577 C583 0.950 1_565 S
H578 C584 0.949 . S
C579 H574 0.950 . S
C579 C581 1.327 . S
C579 C585 1.429 . S
C580 C572 1.574 . S
C580 H575 0.949 . S
C580 C586 1.368 1_565 S
C581 C565 1.349 . S
C581 H573 0.950 . S
C581 C579 1.327 . S
C582 C570 1.349 . S
C582 H576 0.950 1_545 S
C582 C583 1.327 . S
C583 H577 0.950 1_545 S
C583 C582 1.327 . S
C583 C587 1.429 . S
C584 C567 1.574 . S
C584 H578 0.949 . S
C584 C588 1.368 . S
C585 C566 1.429 1_545 S
C585 C579 1.429 . S
C585 C586 1.523 . S
C586 C567 1.368 . S
C586 C580 1.368 1_545 S
C586 C585 1.523 . S
C587 C571 1.429 . S
C587 C583 1.429 . S
C587 C588 1.523 . S
C588 C572 1.368 1_545 S
C588 C584 1.368 . S
C588 C587 1.523 . S
H589 C564 0.950 . S
H590 C566 0.950 . S
H591 C567 0.949 . S
H592 C569 0.950 . S
H593 C571 0.950 . S
C594 C595 1.349 1_556 S
C594 C596 1.327 . S
C594 H619 0.950 . S
C595 C594 1.349 1_554 S
C595 C611 1.349 . S
C596 C594 1.327 . S
C596 C615 1.429 . S
C596 H620 0.950 . S
C597 C614 1.574 . S
C597 C616 1.368 . S
C597 H621 0.949 1_556 S
H598 C602 0.949 . S
C599 C600 1.349 . S
C599 C601 1.327 . S
C599 H622 0.950 . S
C600 C599 1.349 . S
C600 C612 1.349 . S
C601 C599 1.327 . S
C601 C617 1.429 . S
C601 H623 0.950 . S
C602 H598 0.949 . S
C602 C610 1.574 . S
C602 C618 1.368 . S
H603 C611 0.950 . S
H604 C609 0.950 . S
H605 C610 0.949 . S
H606 C612 0.950 . S
H607 C613 0.950 . S
H608 C614 0.949 . S
C609 H604 0.950 . S
C609 C611 1.327 . S
C609 C615 1.429 1_554 S
C610 C602 1.574 . S
C610 H605 0.949 . S
C610 C616 1.368 . S
C611 C595 1.349 . S
C611 H603 0.950 . S
C611 C609 1.327 . S
C612 C600 1.349 . S
C612 H606 0.950 . S
C612 C613 1.327 . S
C613 H607 0.950 . S
C613 C612 1.327 . S
C613 C617 1.429 . S
C614 C597 1.574 . S
C614 H608 0.949 . S
C614 C618 1.368 . S
C615 C596 1.429 . S
C615 C609 1.429 1_556 S
C615 C616 1.523 . S
C616 C597 1.368 . S
C616 C610 1.368 . S
C616 C615 1.523 . S
C617 C601 1.429 . S
C617 C613 1.429 . S
C617 C618 1.523 . S
C618 C602 1.368 . S
C618 C614 1.368 . S
C618 C617 1.523 . S
H619 C594 0.950 . S
H620 C596 0.950 . S
H621 C597 0.949 1_554 S
H622 C599 0.950 . S
H623 C601 0.950 . S
C624 C625 1.349 . S
C624 C626 1.327 . S
C624 H649 0.950 1_455 S
C625 C624 1.349 . S
C625 C641 1.349 . S
C626 C624 1.327 . S
C626 C645 1.429 . S
C626 H650 0.950 1_455 S
C627 C644 1.574 . S
C627 C646 1.368 . S
C627 H651 0.949 . S
H628 C632 0.949 1_655 S
C629 C630 1.349 . S
C629 C631 1.327 . S
C629 H652 0.950 . S
C630 C629 1.349 . S
C630 C642 1.349 . S
C631 C629 1.327 . S
C631 C647 1.429 . S
C631 H653 0.950 . S
C632 H628 0.949 1_455 S
C632 C640 1.574 . S
C632 C648 1.368 . S
H633 C641 0.950 . S
H634 C639 0.950 . S
H635 C640 0.949 1_655 S
H636 C642 0.950 1_655 S
H637 C643 0.950 1_655 S
H638 C644 0.949 . S
C639 H634 0.950 . S
C639 C641 1.327 . S
C639 C645 1.429 . S
C640 C632 1.574 . S
C640 H635 0.949 1_455 S
C640 C646 1.368 . S
C641 C625 1.349 . S
C641 H633 0.950 . S
C641 C639 1.327 . S
C642 C630 1.349 . S
C642 H636 0.950 1_455 S
C642 C643 1.327 . S
C643 H637 0.950 1_455 S
C643 C642 1.327 . S
C643 C647 1.429 . S
C644 C627 1.574 . S
C644 H638 0.949 . S
C644 C648 1.368 . S
C645 C626 1.429 . S
C645 C639 1.429 . S
C645 C646 1.523 . S
C646 C627 1.368 . S
C646 C640 1.368 . S
C646 C645 1.523 . S
C647 C631 1.429 . S
C647 C643 1.429 . S
C647 C648 1.523 . S
C648 C632 1.368 . S
C648 C644 1.368 . S
C648 C647 1.523 . S
H649 C624 0.950 1_655 S
H650 C626 0.950 1_655 S
H651 C627 0.949 . S
H652 C629 0.950 . S
H653 C631 0.950 . S
C300 C161 1.341 . S
C295 C14 1.314 . S
C325 C40 1.382 . S
C330 C205 1.386 . S
C355 C76 1.365 . S
C360 C267 1.368 . S
C385 C3 1.353 . S
C390 C143 1.341 . S
C420 C223 1.379 . S
C415 C38 1.377 . S
C445 C74 1.346 . S
C450 C285 1.349 . S
C480 C199 1.589 . S
C475 C86 1.616 . S
C505 C2 1.694 . S
C510 C261 1.610 . S
C540 C137 1.603 . S
C535 C39 1.709 . S
C570 C217 1.601 . S
C565 C75 1.696 . S
C600 C279 1.623 . S
C595 C4 1.709 . S
C625 C50 1.629 . S
C630 C155 1.603 . S
