# Generated by pormake.
# Topology bwt, (3,3)-cn, num edge types: 1
# Building blocks:
#     Node 0, Type 0, BuildingBlock: OLANEW_clean_sbu_2, # of connection points: 3
#     Node 1, Type 0, BuildingBlock: OLANEW_clean_sbu_2, # of connection points: 3
#     Node 2, Type 0, BuildingBlock: OLANEW_clean_sbu_2, # of connection points: 3
#     Node 3, Type 0, BuildingBlock: OLANEW_clean_sbu_2, # of connection points: 3
#     Node 4, Type 0, BuildingBlock: OLANEW_clean_sbu_2, # of connection points: 3
#     Node 5, Type 0, BuildingBlock: OLANEW_clean_sbu_2, # of connection points: 3
#     Node 6, Type 0, BuildingBlock: OLANEW_clean_sbu_2, # of connection points: 3
#     Node 7, Type 0, BuildingBlock: OLANEW_clean_sbu_2, # of connection points: 3
#     Node 8, Type 0, BuildingBlock: OLANEW_clean_sbu_2, # of connection points: 3
#     Node 9, Type 0, BuildingBlock: OLANEW_clean_sbu_2, # of connection points: 3
#     Node 10, Type 0, BuildingBlock: OLANEW_clean_sbu_2, # of connection points: 3
#     Node 11, Type 0, BuildingBlock: OLANEW_clean_sbu_2, # of connection points: 3
#     Node 12, Type 0, BuildingBlock: OLANEW_clean_sbu_2, # of connection points: 3
#     Node 13, Type 0, BuildingBlock: OLANEW_clean_sbu_2, # of connection points: 3
#     Node 14, Type 0, BuildingBlock: OLANEW_clean_sbu_2, # of connection points: 3
#     Node 15, Type 0, BuildingBlock: OLANEW_clean_sbu_2, # of connection points: 3
#     Node 16, Type 0, BuildingBlock: OLANEW_clean_sbu_2, # of connection points: 3
#     Node 17, Type 0, BuildingBlock: OLANEW_clean_sbu_2, # of connection points: 3
#     Node 18, Type 0, BuildingBlock: OLANEW_clean_sbu_2, # of connection points: 3
#     Node 19, Type 0, BuildingBlock: OLANEW_clean_sbu_2, # of connection points: 3
#     Node 20, Type 0, BuildingBlock: OLANEW_clean_sbu_2, # of connection points: 3
#     Node 21, Type 0, BuildingBlock: OLANEW_clean_sbu_2, # of connection points: 3
#     Node 22, Type 0, BuildingBlock: OLANEW_clean_sbu_2, # of connection points: 3
#     Node 23, Type 0, BuildingBlock: OLANEW_clean_sbu_2, # of connection points: 3
#     Node 24, Type 1, BuildingBlock: BETDIP_clean_linker_0, # of connection points: 3
#     Node 25, Type 1, BuildingBlock: BETDIP_clean_linker_0, # of connection points: 3
#     Node 26, Type 1, BuildingBlock: BETDIP_clean_linker_0, # of connection points: 3
#     Node 27, Type 1, BuildingBlock: BETDIP_clean_linker_0, # of connection points: 3
#     Node 28, Type 1, BuildingBlock: BETDIP_clean_linker_0, # of connection points: 3
#     Node 29, Type 1, BuildingBlock: BETDIP_clean_linker_0, # of connection points: 3
#     Node 30, Type 1, BuildingBlock: BETDIP_clean_linker_0, # of connection points: 3
#     Node 31, Type 1, BuildingBlock: BETDIP_clean_linker_0, # of connection points: 3
#     Node 32, Type 1, BuildingBlock: BETDIP_clean_linker_0, # of connection points: 3
#     Node 33, Type 1, BuildingBlock: BETDIP_clean_linker_0, # of connection points: 3
#     Node 34, Type 1, BuildingBlock: BETDIP_clean_linker_0, # of connection points: 3
#     Node 35, Type 1, BuildingBlock: BETDIP_clean_linker_0, # of connection points: 3
#     Node 36, Type 1, BuildingBlock: BETDIP_clean_linker_0, # of connection points: 3
#     Node 37, Type 1, BuildingBlock: BETDIP_clean_linker_0, # of connection points: 3
#     Node 38, Type 1, BuildingBlock: BETDIP_clean_linker_0, # of connection points: 3
#     Node 39, Type 1, BuildingBlock: BETDIP_clean_linker_0, # of connection points: 3
#     Node 40, Type 1, BuildingBlock: BETDIP_clean_linker_0, # of connection points: 3
#     Node 41, Type 1, BuildingBlock: BETDIP_clean_linker_0, # of connection points: 3
#     Node 42, Type 1, BuildingBlock: BETDIP_clean_linker_0, # of connection points: 3
#     Node 43, Type 1, BuildingBlock: BETDIP_clean_linker_0, # of connection points: 3
#     Node 44, Type 1, BuildingBlock: BETDIP_clean_linker_0, # of connection points: 3
#     Node 45, Type 1, BuildingBlock: BETDIP_clean_linker_0, # of connection points: 3
#     Node 46, Type 1, BuildingBlock: BETDIP_clean_linker_0, # of connection points: 3
#     Node 47, Type 1, BuildingBlock: BETDIP_clean_linker_0, # of connection points: 3
#     Edge 48, Type (0, 1), BuildingBlock: MIFKUJ_clean_linker_0, # of connection points: 2
#     Edge 49, Type (0, 1), BuildingBlock: MIFKUJ_clean_linker_0, # of connection points: 2
#     Edge 50, Type (0, 1), BuildingBlock: MIFKUJ_clean_linker_0, # of connection points: 2
#     Edge 51, Type (0, 1), BuildingBlock: MIFKUJ_clean_linker_0, # of connection points: 2
#     Edge 52, Type (0, 1), BuildingBlock: MIFKUJ_clean_linker_0, # of connection points: 2
#     Edge 53, Type (0, 1), BuildingBlock: MIFKUJ_clean_linker_0, # of connection points: 2
#     Edge 54, Type (0, 1), BuildingBlock: MIFKUJ_clean_linker_0, # of connection points: 2
#     Edge 55, Type (0, 1), BuildingBlock: MIFKUJ_clean_linker_0, # of connection points: 2
#     Edge 56, Type (0, 1), BuildingBlock: MIFKUJ_clean_linker_0, # of connection points: 2
#     Edge 57, Type (0, 1), BuildingBlock: MIFKUJ_clean_linker_0, # of connection points: 2
#     Edge 58, Type (0, 1), BuildingBlock: MIFKUJ_clean_linker_0, # of connection points: 2
#     Edge 59, Type (0, 1), BuildingBlock: MIFKUJ_clean_linker_0, # of connection points: 2
#     Edge 60, Type (0, 1), BuildingBlock: MIFKUJ_clean_linker_0, # of connection points: 2
#     Edge 61, Type (0, 1), BuildingBlock: MIFKUJ_clean_linker_0, # of connection points: 2
#     Edge 62, Type (0, 1), BuildingBlock: MIFKUJ_clean_linker_0, # of connection points: 2
#     Edge 63, Type (0, 1), BuildingBlock: MIFKUJ_clean_linker_0, # of connection points: 2
#     Edge 64, Type (0, 1), BuildingBlock: MIFKUJ_clean_linker_0, # of connection points: 2
#     Edge 65, Type (0, 1), BuildingBlock: MIFKUJ_clean_linker_0, # of connection points: 2
#     Edge 66, Type (0, 1), BuildingBlock: MIFKUJ_clean_linker_0, # of connection points: 2
#     Edge 67, Type (0, 1), BuildingBlock: MIFKUJ_clean_linker_0, # of connection points: 2
#     Edge 68, Type (0, 1), BuildingBlock: MIFKUJ_clean_linker_0, # of connection points: 2
#     Edge 69, Type (0, 1), BuildingBlock: MIFKUJ_clean_linker_0, # of connection points: 2
#     Edge 70, Type (0, 1), BuildingBlock: MIFKUJ_clean_linker_0, # of connection points: 2
#     Edge 71, Type (0, 1), BuildingBlock: MIFKUJ_clean_linker_0, # of connection points: 2
#     Edge 72, Type (0, 1), BuildingBlock: MIFKUJ_clean_linker_0, # of connection points: 2
#     Edge 73, Type (0, 1), BuildingBlock: MIFKUJ_clean_linker_0, # of connection points: 2
#     Edge 74, Type (0, 1), BuildingBlock: MIFKUJ_clean_linker_0, # of connection points: 2
#     Edge 75, Type (0, 1), BuildingBlock: MIFKUJ_clean_linker_0, # of connection points: 2
#     Edge 76, Type (0, 1), BuildingBlock: MIFKUJ_clean_linker_0, # of connection points: 2
#     Edge 77, Type (0, 1), BuildingBlock: MIFKUJ_clean_linker_0, # of connection points: 2
#     Edge 78, Type (0, 1), BuildingBlock: MIFKUJ_clean_linker_0, # of connection points: 2
#     Edge 79, Type (0, 1), BuildingBlock: MIFKUJ_clean_linker_0, # of connection points: 2
#     Edge 80, Type (0, 1), BuildingBlock: MIFKUJ_clean_linker_0, # of connection points: 2
#     Edge 81, Type (0, 1), BuildingBlock: MIFKUJ_clean_linker_0, # of connection points: 2
#     Edge 82, Type (0, 1), BuildingBlock: MIFKUJ_clean_linker_0, # of connection points: 2
#     Edge 83, Type (0, 1), BuildingBlock: MIFKUJ_clean_linker_0, # of connection points: 2
#     Edge 84, Type (0, 1), BuildingBlock: MIFKUJ_clean_linker_0, # of connection points: 2
#     Edge 85, Type (0, 1), BuildingBlock: MIFKUJ_clean_linker_0, # of connection points: 2
#     Edge 86, Type (0, 1), BuildingBlock: MIFKUJ_clean_linker_0, # of connection points: 2
#     Edge 87, Type (0, 1), BuildingBlock: MIFKUJ_clean_linker_0, # of connection points: 2
#     Edge 88, Type (0, 1), BuildingBlock: MIFKUJ_clean_linker_0, # of connection points: 2
#     Edge 89, Type (0, 1), BuildingBlock: MIFKUJ_clean_linker_0, # of connection points: 2
#     Edge 90, Type (0, 1), BuildingBlock: MIFKUJ_clean_linker_0, # of connection points: 2
#     Edge 91, Type (0, 1), BuildingBlock: MIFKUJ_clean_linker_0, # of connection points: 2
#     Edge 92, Type (0, 1), BuildingBlock: MIFKUJ_clean_linker_0, # of connection points: 2
#     Edge 93, Type (0, 1), BuildingBlock: MIFKUJ_clean_linker_0, # of connection points: 2
#     Edge 94, Type (0, 1), BuildingBlock: MIFKUJ_clean_linker_0, # of connection points: 2
#     Edge 95, Type (0, 1), BuildingBlock: MIFKUJ_clean_linker_0, # of connection points: 2
#     Edge 96, Type (0, 1), BuildingBlock: MIFKUJ_clean_linker_0, # of connection points: 2
#     Edge 97, Type (0, 1), BuildingBlock: MIFKUJ_clean_linker_0, # of connection points: 2
#     Edge 98, Type (0, 1), BuildingBlock: MIFKUJ_clean_linker_0, # of connection points: 2
#     Edge 99, Type (0, 1), BuildingBlock: MIFKUJ_clean_linker_0, # of connection points: 2
#     Edge 100, Type (0, 1), BuildingBlock: MIFKUJ_clean_linker_0, # of connection points: 2
#     Edge 101, Type (0, 1), BuildingBlock: MIFKUJ_clean_linker_0, # of connection points: 2
#     Edge 102, Type (0, 1), BuildingBlock: MIFKUJ_clean_linker_0, # of connection points: 2
#     Edge 103, Type (0, 1), BuildingBlock: MIFKUJ_clean_linker_0, # of connection points: 2
#     Edge 104, Type (0, 1), BuildingBlock: MIFKUJ_clean_linker_0, # of connection points: 2
#     Edge 105, Type (0, 1), BuildingBlock: MIFKUJ_clean_linker_0, # of connection points: 2
#     Edge 106, Type (0, 1), BuildingBlock: MIFKUJ_clean_linker_0, # of connection points: 2
#     Edge 107, Type (0, 1), BuildingBlock: MIFKUJ_clean_linker_0, # of connection points: 2
#     Edge 108, Type (0, 1), BuildingBlock: MIFKUJ_clean_linker_0, # of connection points: 2
#     Edge 109, Type (0, 1), BuildingBlock: MIFKUJ_clean_linker_0, # of connection points: 2
#     Edge 110, Type (0, 1), BuildingBlock: MIFKUJ_clean_linker_0, # of connection points: 2
#     Edge 111, Type (0, 1), BuildingBlock: MIFKUJ_clean_linker_0, # of connection points: 2
#     Edge 112, Type (0, 1), BuildingBlock: MIFKUJ_clean_linker_0, # of connection points: 2
#     Edge 113, Type (0, 1), BuildingBlock: MIFKUJ_clean_linker_0, # of connection points: 2
#     Edge 114, Type (0, 1), BuildingBlock: MIFKUJ_clean_linker_0, # of connection points: 2
#     Edge 115, Type (0, 1), BuildingBlock: MIFKUJ_clean_linker_0, # of connection points: 2
#     Edge 116, Type (0, 1), BuildingBlock: MIFKUJ_clean_linker_0, # of connection points: 2
#     Edge 117, Type (0, 1), BuildingBlock: MIFKUJ_clean_linker_0, # of connection points: 2
#     Edge 118, Type (0, 1), BuildingBlock: MIFKUJ_clean_linker_0, # of connection points: 2
#     Edge 119, Type (0, 1), BuildingBlock: MIFKUJ_clean_linker_0, # of connection points: 2
# Relax obj value: 0.068
# Max RMSD: 0.117
# Mean RMSD: 0.062
data_MOF--net-bwt--node1-OLANEW_clean_sbu_2--node2-BETDIP_clean_linker_0--edge1-MIFKUJ_clean_linker_0
_symmetry_space_group_name_H-M    P1
_symmetry_Int_Tables_number       1
_symmetry_cell_setting            triclinic
loop_
_symmetry_equiv_pos_as_xyz
'x, y, z'
_cell_length_a     77.101687
_cell_length_b     77.120378
_cell_length_c     77.12048
_cell_angle_alpha  94.870747
_cell_angle_beta   94.879822
_cell_angle_gamma 94.863647
loop_
_atom_site_label
_atom_site_type_symbol
_atom_site_fract_x
_atom_site_fract_y
_atom_site_fract_z
_atom_type_partial_charge
O0 O 0.25777 0.59617 0.38341 0.0
Cd1 Cd 0.25601 0.61132 0.35676 0.0
O2 O 0.27876 0.6154 0.39593 0.0
Cd3 Cd 0.28462 0.62651 0.37181 0.0
O4 O 0.30785 0.62493 0.35771 0.0
C5 C 0.32212 0.62818 0.36742 0.0
O6 O 0.32147 0.63354 0.38398 0.0
C7 C 0.26801 0.60212 0.39678 0.0
C8 C 0.22194 0.6085 0.34077 0.0
O9 O 0.23279 0.59758 0.33635 0.0
O10 O 0.22724 0.62083 0.35273 0.0
O11 O 0.24804 0.38796 0.7736 0.0
Cd12 Cd 0.24401 0.36916 0.74617 0.0
O13 O 0.22749 0.37351 0.78617 0.0
Cd14 Cd 0.21677 0.35803 0.76202 0.0
O15 O 0.19523 0.35221 0.74148 0.0
C16 C 0.18063 0.34579 0.74575 0.0
O17 O 0.17958 0.34173 0.76186 0.0
C18 C 0.23982 0.38567 0.78695 0.0
C19 C 0.27387 0.37437 0.72854 0.0
O20 O 0.26095 0.38362 0.72621 0.0
O21 O 0.27251 0.36232 0.73894 0.0
O22 O 0.69808 0.99015 0.63348 0.0
Cd23 Cd 0.70114 0.99248 0.66538 0.0
O24 O 0.71683 0.97056 0.62955 0.0
Cd25 Cd 0.72631 0.97289 0.6572 0.0
O26 O 0.74716 0.98069 0.67806 0.0
C27 C 0.76151 0.97399 0.67652 0.0
O28 O 0.76245 0.9622 0.66337 0.0
C29 C 0.7056 0.98004 0.62327 0.0
C30 C 0.66873 0.99903 0.67666 0.0
O31 O 0.67958 0.01147 0.67313 0.0
O32 O 0.67338 0.98344 0.67535 0.0
O33 O 0.79329 0.98678 0.25184 0.0
Cd34 Cd 0.79896 0.98621 0.28345 0.0
O35 O 0.77906 0.01023 0.25443 0.0
Cd36 Cd 0.7742 0.00644 0.28133 0.0
O37 O 0.75042 0.99651 0.29212 0.0
C38 C 0.73707 0.99552 0.28107 0.0
O39 O 0.73909 0.00057 0.26545 0.0
C40 C 0.7859 0.99893 0.24487 0.0
C41 C 0.83469 0.98496 0.29204 0.0
O42 O 0.82434 0.97094 0.28875 0.0
O43 O 0.82808 0.99964 0.29155 0.0
O44 O 0.37164 0.26487 0.60053 0.0
Cd45 Cd 0.34403 0.26026 0.6137 0.0
O46 O 0.38586 0.27773 0.62477 0.0
Cd47 Cd 0.36125 0.2818 0.63569 0.0
O48 O 0.34061 0.29894 0.63111 0.0
C49 C 0.34174 0.31393 0.63955 0.0
O50 O 0.35436 0.31797 0.65217 0.0
C51 C 0.38591 0.27143 0.60899 0.0
C52 C 0.33302 0.22468 0.61073 0.0
O53 O 0.32771 0.23457 0.59922 0.0
O54 O 0.34334 0.23168 0.62383 0.0
O55 O 0.25297 0.81688 0.03674 0.0
Cd56 Cd 0.27916 0.8335 0.05163 0.0
O57 O 0.26118 0.79182 0.04431 0.0
Cd58 Cd 0.25871 0.76329 0.04264 0.0
O59 O 0.25777 0.7351 0.03643 0.0
C60 C 0.25927 0.7295 0.02071 0.0
O61 O 0.26111 0.74084 0.00905 0.0
C62 C 0.25009 0.80039 0.0364 0.0
C63 C 0.2824 0.86618 0.03872 0.0
O64 O 0.28942 0.85321 0.03161 0.0
O65 O 0.2742 0.86378 0.05222 0.0
O66 O 0.776 0.25494 0.38321 0.0
Cd67 Cd 0.75289 0.25355 0.35931 0.0
O68 O 0.792 0.2375 0.36878 0.0
Cd69 Cd 0.76979 0.22719 0.35036 0.0
O70 O 0.75019 0.20478 0.34763 0.0
C71 C 0.73897 0.20446 0.35878 0.0
O72 O 0.73871 0.21821 0.37001 0.0
C73 C 0.79023 0.24789 0.38208 0.0
C74 C 0.74092 0.28664 0.35942 0.0
O75 O 0.73316 0.27456 0.36717 0.0
O76 O 0.75402 0.2829 0.35112 0.0
O77 O 0.63227 0.66032 0.92898 0.0
Cd78 Cd 0.65778 0.65173 0.91483 0.0
O79 O 0.64243 0.68779 0.92961 0.0
Cd80 Cd 0.64259 0.71557 0.93782 0.0
O81 O 0.64528 0.74278 0.94859 0.0
C82 C 0.64662 0.7462 0.96508 0.0
O83 O 0.64603 0.73322 0.97506 0.0
C84 C 0.63072 0.67636 0.93316 0.0
C85 C 0.67308 0.62624 0.93281 0.0
O86 O 0.67752 0.64253 0.93711 0.0
O87 O 0.66159 0.622 0.91979 0.0
O88 O 0.62747 0.40829 0.24004 0.0
Cd89 Cd 0.6516 0.3927 0.22986 0.0
O90 O 0.63192 0.39658 0.26474 0.0
Cd91 Cd 0.62536 0.39126 0.29089 0.0
O92 O 0.61706 0.38543 0.31622 0.0
C93 C 0.60306 0.37565 0.31685 0.0
O94 O 0.59388 0.36943 0.30217 0.0
C95 C 0.62352 0.40653 0.25549 0.0
C96 C 0.6455 0.37966 0.19485 0.0
O97 O 0.64033 0.37071 0.20703 0.0
O98 O 0.65356 0.39483 0.19924 0.0
O99 O 0.03583 0.26581 0.82981 0.0
Cd100 Cd 0.04732 0.29443 0.84413 0.0
O101 O 0.0369 0.2758 0.80411 0.0
Cd102 Cd 0.03154 0.27411 0.7757 0.0
O103 O 0.02453 0.27491 0.74778 0.0
C104 C 0.01026 0.28084 0.74271 0.0
O105 O 5e-05 0.28625 0.75445 0.0
C106 C 0.03332 0.26324 0.81327 0.0
C107 C 0.0335 0.29991 0.87615 0.0
O108 O 0.0258 0.30457 0.86213 0.0
O109 O 0.04789 0.29289 0.87505 0.0
O110 O 0.39092 0.75866 0.24725 0.0
Cd111 Cd 0.37082 0.73252 0.23839 0.0
O112 O 0.37517 0.77621 0.23293 0.0
Cd113 Cd 0.35955 0.75407 0.21816 0.0
O114 O 0.35899 0.73578 0.19493 0.0
C115 C 0.35297 0.7403 0.18031 0.0
O116 O 0.34572 0.7551 0.17995 0.0
C117 C 0.38828 0.77399 0.24341 0.0
C118 C 0.36819 0.71351 0.26734 0.0
O119 O 0.37956 0.71059 0.25651 0.0
O120 O 0.35767 0.72511 0.26419 0.0
O121 O 0.00924 0.61974 0.71116 0.0
Cd122 Cd 0.01528 0.65151 0.71478 0.0
O123 O 0.98167 0.62036 0.70145 0.0
Cd124 Cd 0.98267 0.64749 0.71247 0.0
O125 O 0.98774 0.66696 0.73502 0.0
C126 C 0.9813 0.66282 0.7489 0.0
O127 O 0.9715 0.64796 0.74839 0.0
C128 C 0.99484 0.61178 0.70433 0.0
C129 C 0.01985 0.6624 0.68176 0.0
O130 O 0.03249 0.65713 0.6912 0.0
O131 O 0.00507 0.66306 0.68813 0.0
O132 O 0.73038 0.35787 0.62318 0.0
Cd133 Cd 0.74036 0.34143 0.64735 0.0
O134 O 0.71293 0.37224 0.639 0.0
Cd135 Cd 0.69198 0.38948 0.64172 0.0
O136 O 0.66808 0.40262 0.64365 0.0
C137 C 0.65479 0.39409 0.6485 0.0
O138 O 0.65603 0.37789 0.65222 0.0
C139 C 0.71936 0.36916 0.62453 0.0
C140 C 0.77671 0.3459 0.65413 0.0
O141 O 0.76931 0.33386 0.64276 0.0
O142 O 0.76691 0.35573 0.66233 0.0
O143 O 0.7317 0.63641 0.2469 0.0
Cd144 Cd 0.73313 0.65891 0.27142 0.0
O145 O 0.75925 0.63284 0.25358 0.0
Cd146 Cd 0.78436 0.62234 0.2502 0.0
O147 O 0.80909 0.61085 0.24819 0.0
C148 C 0.82326 0.61939 0.25483 0.0
O149 O 0.8227 0.63512 0.26266 0.0
C150 C 0.74504 0.62839 0.24399 0.0
C151 C 0.70545 0.65152 0.2914 0.0
O152 O 0.70412 0.66203 0.27944 0.0
O153 O 0.72001 0.64487 0.29416 0.0
O154 O 0.3257 0.08013 0.35397 0.0
Cd155 Cd 0.33574 0.08992 0.32694 0.0
O156 O 0.30461 0.06261 0.33932 0.0
Cd157 Cd 0.2828 0.04214 0.33606 0.0
O158 O 0.2579 0.02624 0.33529 0.0
C159 C 0.24423 0.03414 0.33683 0.0
O160 O 0.24574 0.05132 0.33878 0.0
C161 C 0.31277 0.06875 0.35389 0.0
C162 C 0.36568 0.07378 0.31987 0.0
O163 O 0.36678 0.0886 0.32896 0.0
O164 O 0.35044 0.06682 0.31382 0.0
O165 O 0.18857 0.96382 0.7325 0.0
Cd166 Cd 0.17417 0.95584 0.70312 0.0
O167 O 0.20953 0.97997 0.72247 0.0
Cd168 Cd 0.23278 0.99865 0.72366 0.0
O169 O 0.25897 0.01236 0.72594 0.0
C170 C 0.27188 0.00352 0.7291 0.0
O171 O 0.26885 0.98677 0.7309 0.0
C172 C 0.20253 0.97404 0.7354 0.0
C173 C 0.14202 0.96994 0.7007 0.0
O174 O 0.14339 0.9547 0.70585 0.0
O175 O 0.1558 0.97835 0.69634 0.0
O176 O 0.61901 0.74881 0.36489 0.0
Cd177 Cd 0.64349 0.76034 0.34972 0.0
O178 O 0.6348 0.72835 0.3737 0.0
Cd179 Cd 0.64071 0.7062 0.3885 0.0
O180 O 0.64637 0.68185 0.39943 0.0
C181 C 0.63659 0.66787 0.39461 0.0
O182 O 0.6229 0.66841 0.38337 0.0
C183 C 0.6205 0.73549 0.37336 0.0
C184 C 0.64712 0.79682 0.35273 0.0
O185 O 0.63875 0.78821 0.33918 0.0
O186 O 0.65375 0.78819 0.36472 0.0
O187 O 0.73795 0.19303 0.96112 0.0
Cd188 Cd 0.70948 0.17882 0.949 0.0
O189 O 0.72475 0.21286 0.97566 0.0
Cd190 Cd 0.72387 0.23736 0.99199 0.0
O191 O 0.72657 0.26266 0.00739 0.0
C192 C 0.72584 0.27629 0.99931 0.0
O193 O 0.7234 0.27456 0.98215 0.0
C194 C 0.73884 0.20658 0.97186 0.0
C195 C 0.70569 0.14493 0.95895 0.0
O196 O 0.71135 0.14793 0.94424 0.0
O197 O 0.70154 0.15791 0.96875 0.0
O198 O 0.24843 0.73158 0.63917 0.0
Cd199 Cd 0.271 0.73028 0.66324 0.0
O200 O 0.25829 0.75843 0.63586 0.0
Cd201 Cd 0.26056 0.78335 0.62425 0.0
O202 O 0.26051 0.80962 0.61575 0.0
C203 C 0.2498 0.81282 0.60323 0.0
O204 O 0.23895 0.80001 0.59522 0.0
C205 C 0.2473 0.74525 0.63117 0.0
C206 C 0.28632 0.69883 0.65967 0.0
O207 O 0.27254 0.70009 0.66772 0.0
O208 O 0.293 0.71253 0.65348 0.0
O209 O 0.35641 0.30166 0.04066 0.0
Cd210 Cd 0.32563 0.29855 0.0464 0.0
O211 O 0.35058 0.30422 0.01262 0.0
Cd212 Cd 0.32395 0.29231 0.01281 0.0
O213 O 0.30886 0.26685 0.00914 0.0
C214 C 0.3142 0.25548 0.01881 0.0
O215 O 0.32713 0.26021 0.03096 0.0
C216 C 0.3616 0.30492 0.02595 0.0
C217 C 0.31244 0.33106 0.0449 0.0
O218 O 0.31983 0.32674 0.05921 0.0
O219 O 0.31092 0.31986 0.03148 0.0
O220 O 0.34843 0.63028 0.73912 0.0
Cd221 Cd 0.33321 0.65351 0.75301 0.0
O222 O 0.35763 0.64812 0.72048 0.0
Cd223 Cd 0.37027 0.65378 0.69703 0.0
O224 O 0.38241 0.65522 0.67265 0.0
C225 C 0.3726 0.65566 0.65865 0.0
O226 O 0.35563 0.65531 0.65944 0.0
C227 C 0.35712 0.63312 0.7262 0.0
C228 C 0.34747 0.66337 0.78725 0.0
O229 O 0.335 0.65114 0.78388 0.0
O230 O 0.35314 0.67097 0.77441 0.0
O231 O 0.97152 0.74112 0.19536 0.0
Cd232 Cd 0.96237 0.7124 0.17982 0.0
O233 O 0.9821 0.72961 0.21861 0.0
Cd234 Cd 0.99614 0.72944 0.24465 0.0
O235 O 0.00785 0.72919 0.27155 0.0
C236 C 0.00601 0.74159 0.28302 0.0
O237 O 0.99717 0.75457 0.27846 0.0
C238 C 0.97908 0.7431 0.2108 0.0
C239 C 0.97336 0.71052 0.1462 0.0
O240 O 0.95859 0.71607 0.14918 0.0
O241 O 0.98283 0.70573 0.15909 0.0
O242 O 0.65994 0.20938 0.7174 0.0
Cd243 Cd 0.6856 0.229 0.71335 0.0
O244 O 0.65797 0.22386 0.74272 0.0
Cd245 Cd 0.6457 0.23148 0.7664 0.0
O246 O 0.63621 0.23901 0.79155 0.0
C247 C 0.64527 0.23629 0.80544 0.0
O248 O 0.65991 0.22891 0.80415 0.0
C249 C 0.65195 0.21169 0.73105 0.0
C250 C 0.67827 0.24599 0.68347 0.0
O251 O 0.68653 0.23225 0.68276 0.0
O252 O 0.67392 0.25191 0.69836 0.0
O253 O 0.09182 0.35034 0.32366 0.0
Cd254 Cd 0.10278 0.3251 0.33655 0.0
O255 O 0.06756 0.33501 0.31234 0.0
Cd256 Cd 0.04364 0.33269 0.2946 0.0
O257 O 0.02586 0.33205 0.27092 0.0
C258 C 0.02983 0.34244 0.25964 0.0
O259 O 0.04397 0.35339 0.26302 0.0
C260 C 0.07702 0.34947 0.31485 0.0
C261 C 0.08483 0.3171 0.36513 0.0
O262 O 0.09835 0.3282 0.36699 0.0
O263 O 0.07989 0.30972 0.34978 0.0
H264 H 0.30565 0.51248 0.60427 0.0
H265 H 0.29345 0.49509 0.54963 0.0
H266 H 0.30548 0.54971 0.56599 0.0
H267 H 0.28554 0.46961 0.55843 0.0
C268 C 0.29127 0.46892 0.57166 0.0
C269 C 0.30383 0.51534 0.59074 0.0
C270 C 0.30649 0.53261 0.58654 0.0
C271 C 0.29908 0.50166 0.5776 0.0
C272 C 0.29675 0.50544 0.56002 0.0
C273 C 0.29907 0.52279 0.55568 0.0
C274 C 0.30405 0.53623 0.56906 0.0
N275 N 0.29735 0.48434 0.58267 0.0
H276 H 0.2796 0.51169 0.99802 0.0
H277 H 0.26482 0.51806 0.94388 0.0
H278 H 0.276 0.46776 0.95925 0.0
H279 H 0.27372 0.54594 0.95157 0.0
C280 C 0.27124 0.54867 0.96512 0.0
C281 C 0.277 0.50625 0.98453 0.0
C282 C 0.2785 0.48845 0.98013 0.0
C283 C 0.2726 0.51723 0.97153 0.0
C284 C 0.26901 0.51006 0.95401 0.0
C285 C 0.27008 0.49217 0.94957 0.0
C286 C 0.27502 0.48156 0.96266 0.0
N287 N 0.27147 0.53523 0.97666 0.0
H288 H 0.67375 0.99258 0.38727 0.0
H289 H 0.68392 0.01999 0.43857 0.0
H290 H 0.67952 0.96386 0.43249 0.0
H291 H 0.66855 0.04035 0.42488 0.0
C292 C 0.67469 0.04021 0.4127 0.0
C293 C 0.67596 0.99235 0.40131 0.0
C294 C 0.67654 0.97634 0.40863 0.0
C295 C 0.67829 0.00813 0.41201 0.0
C296 C 0.68143 0.00786 0.43024 0.0
C297 C 0.68206 0.99192 0.43775 0.0
C298 C 0.67957 0.97624 0.42681 0.0
N299 N 0.67819 0.02406 0.40402 0.0
H300 H 0.69886 0.9632 0.01676 0.0
H301 H 0.71369 0.94506 0.06661 0.0
H302 H 0.72491 0.99905 0.05864 0.0
H303 H 0.69331 0.92342 0.0582 0.0
C304 C 0.69275 0.92133 0.04406 0.0
C305 C 0.7047 0.9659 0.0301 0.0
C306 C 0.7119 0.98288 0.0363 0.0
C307 C 0.70496 0.95224 0.04096 0.0
C308 C 0.713 0.95551 0.05816 0.0
C309 C 0.72021 0.9724 0.06461 0.0
C310 C 0.71951 0.98598 0.05363 0.0
N311 N 0.69732 0.93538 0.03401 0.0
H312 H 0.59427 0.30405 0.51693 0.0
H313 H 0.53941 0.30984 0.5066 0.0
H314 H 0.55866 0.2922 0.55524 0.0
H315 H 0.54592 0.30418 0.47838 0.0
C316 C 0.55841 0.31185 0.4784 0.0
C317 C 0.58117 0.3032 0.52109 0.0
C318 C 0.57816 0.29746 0.53747 0.0
C319 C 0.56725 0.30728 0.50969 0.0
C320 C 0.55018 0.30612 0.51498 0.0
C321 C 0.54704 0.30078 0.53148 0.0
C322 C 0.56108 0.29644 0.54255 0.0
N323 N 0.5709 0.3129 0.4932 0.0
H324 H 0.02615 0.7189 0.9636 0.0
H325 H 0.07501 0.7373 0.94535 0.0
H326 H 0.07199 0.73121 -0.00016 0.0
H327 H 0.05756 0.7454 0.92323 0.0
C328 C 0.04695 0.73505 0.92102 0.0
C329 C 0.03988 0.72347 0.96629 0.0
C330 C 0.04792 0.72446 0.98343 0.0
C331 C 0.04944 0.72824 0.95249 0.0
C332 C 0.06738 0.73385 0.95589 0.0
C333 C 0.07558 0.73506 0.97299 0.0
C334 C 0.06574 0.7303 0.98662 0.0
N335 N 0.04075 0.72668 0.93534 0.0
H336 H 0.98956 0.28912 0.52447 0.0
H337 H 0.93458 0.27772 0.52912 0.0
H338 H 0.9534 0.27867 0.47841 0.0
H339 H 0.94455 0.26856 0.55473 0.0
C340 C 0.95598 0.27744 0.55945 0.0
C341 C 0.97634 0.28598 0.5184 0.0
C342 C 0.97318 0.28391 0.50011 0.0
C343 C 0.96261 0.28341 0.52899 0.0
C344 C 0.94539 0.27934 0.52115 0.0
C345 C 0.94205 0.27733 0.50288 0.0
C346 C 0.956 0.27969 0.49252 0.0
N347 N 0.96662 0.28506 0.54742 0.0
H348 H 0.4095 0.69962 0.97616 0.0
H349 H 0.45929 0.70262 0.00645 0.0
H350 H 0.45695 0.70131 0.9505 0.0
H351 H 0.44237 0.6875 0.02476 0.0
C352 C 0.43067 0.69443 0.02419 0.0
C353 C 0.42364 0.70028 0.97673 0.0
C354 C 0.43204 0.70053 0.96129 0.0
C355 C 0.43329 0.70065 0.99299 0.0
C356 C 0.45167 0.70178 0.99391 0.0
C357 C 0.46031 0.70237 0.97861 0.0
C358 C 0.45037 0.70165 0.96238 0.0
N359 N 0.4241 0.70031 0.00817 0.0
H360 H 0.52992 0.58996 0.34433 0.0
H361 H 0.50728 0.53811 0.32562 0.0
H362 H 0.56295 0.54994 0.32975 0.0
H363 H 0.48507 0.55431 0.31506 0.0
C364 C 0.48439 0.5637 0.32626 0.0
C365 C 0.53155 0.5766 0.33963 0.0
C366 C 0.54836 0.57133 0.33796 0.0
C367 C 0.51668 0.56486 0.33482 0.0
C368 C 0.51865 0.54743 0.32883 0.0
C369 C 0.53539 0.54187 0.32745 0.0
C370 C 0.55008 0.55396 0.33182 0.0
N371 N 0.49997 0.57094 0.3364 0.0
H372 H 0.96953 0.03694 0.72543 0.0
H373 H 0.95339 0.08497 0.74853 0.0
H374 H 0.00682 0.08192 0.73769 0.0
H375 H 0.92971 0.06887 0.75366 0.0
C376 C 0.92795 0.05738 0.74433 0.0
C377 C 0.97271 0.05043 0.73068 0.0
C378 C 0.98985 0.05825 0.73089 0.0
C379 C 0.95949 0.05984 0.73706 0.0
C380 C 0.96344 0.07747 0.74364 0.0
C381 C 0.98056 0.08555 0.74399 0.0
C382 C 0.99361 0.07582 0.73751 0.0
N383 N 0.94237 0.05116 0.73616 0.0
H384 H 0.52556 0.97521 0.31018 0.0
H385 H 0.52894 0.92043 0.29662 0.0
H386 H 0.47873 0.94008 0.30041 0.0
H387 H 0.55614 0.92823 0.31525 0.0
C388 C 0.56008 0.93974 0.30882 0.0
C389 C 0.51916 0.96214 0.30693 0.0
C390 C 0.50088 0.95928 0.30598 0.0
C391 C 0.52936 0.94815 0.30409 0.0
C392 C 0.52117 0.93115 0.29963 0.0
C393 C 0.50284 0.92822 0.29797 0.0
C394 C 0.49287 0.9423 0.3015 0.0
N395 N 0.54776 0.9518 0.30472 0.0
H396 H 0.97262 0.37393 0.66791 0.0
H397 H 0.00726 0.42073 0.66851 0.0
H398 H 0.9523 0.4242 0.67192 0.0
H399 H 0.02273 0.40076 0.6522 0.0
C400 C 0.02193 0.39062 0.66114 0.0
C401 C 0.97461 0.38804 0.6684 0.0
C402 C 0.96038 0.39811 0.66984 0.0
C403 C 0.99149 0.39607 0.66777 0.0
C404 C 0.9942 0.41442 0.66869 0.0
C405 C 0.98009 0.4247 0.67014 0.0
C406 C 0.96325 0.41639 0.67069 0.0
N407 N 0.00564 0.38545 0.66736 0.0
H408 H 0.69165 0.46546 0.41942 0.0
H409 H 0.68189 0.47564 0.47333 0.0
H410 H 0.69489 0.42485 0.45393 0.0
H411 H 0.6649 0.49552 0.46172 0.0
C412 C 0.67268 0.50079 0.45196 0.0
C413 C 0.69067 0.46101 0.43229 0.0
C414 C 0.69333 0.44368 0.43507 0.0
C415 C 0.68611 0.4725 0.44588 0.0
C416 C 0.68497 0.46674 0.46266 0.0
C417 C 0.68804 0.44948 0.46573 0.0
C418 C 0.6921 0.43808 0.45177 0.0
N419 N 0.68305 0.48982 0.44228 0.0
H420 H 0.72557 0.48634 0.04275 0.0
H421 H 0.73365 0.48365 0.09831 0.0
H422 H 0.72396 0.53237 0.07784 0.0
H423 H 0.73788 0.45609 0.09206 0.0
C424 C 0.73569 0.45237 0.07812 0.0
C425 C 0.7267 0.49277 0.05591 0.0
C426 C 0.72414 0.51054 0.05859 0.0
C427 C 0.73024 0.48294 0.07002 0.0
C428 C 0.73126 0.49105 0.08721 0.0
C429 C 0.72876 0.5089 0.09014 0.0
C430 C 0.72538 0.51851 0.07573 0.0
N431 N 0.7322 0.46491 0.06611 0.0
H432 H 0.27945 0.03099 0.57675 0.0
H433 H 0.27088 0.00314 0.52546 0.0
H434 H 0.29709 0.05494 0.53223 0.0
H435 H 0.24775 0.9895 0.53821 0.0
C436 C 0.25483 0.98728 0.5505 0.0
C437 C 0.28069 0.03048 0.56282 0.0
C438 C 0.28917 0.04471 0.55577 0.0
C439 C 0.27389 0.01549 0.552 0.0
C440 C 0.27561 0.0148 0.53391 0.0
C441 C 0.28413 0.02894 0.52674 0.0
C442 C 0.29089 0.0438 0.53777 0.0
N443 N 0.26637 0.00094 0.55978 0.0
H444 H 0.27748 0.03776 0.96454 0.0
H445 H 0.26502 0.05495 0.91367 0.0
H446 H 0.26119 9e-05 0.92069 0.0
H447 H 0.29198 0.06398 0.97008 0.0
C448 C 0.28473 0.07271 0.96256 0.0
C449 C 0.27348 0.03489 0.95075 0.0
C450 C 0.26985 0.01736 0.9439 0.0
C451 C 0.27193 0.04853 0.93982 0.0
C452 C 0.26641 0.04446 0.92206 0.0
C453 C 0.26248 0.02703 0.91512 0.0
C454 C 0.26423 0.01356 0.92608 0.0
N455 N 0.27528 0.06643 0.94628 0.0
H456 H 0.41429 0.66433 0.44795 0.0
H457 H 0.46744 0.67536 0.47103 0.0
H458 H 0.45499 0.68219 0.41701 0.0
H459 H 0.45813 0.66 0.49219 0.0
C460 C 0.4444 0.66189 0.4928 0.0
C461 C 0.42789 0.66843 0.44673 0.0
C462 C 0.43315 0.67286 0.43055 0.0
C463 C 0.4401 0.66901 0.46139 0.0
C464 C 0.45782 0.67433 0.45985 0.0
C465 C 0.46312 0.6791 0.44383 0.0
C466 C 0.45079 0.67833 0.42931 0.0
N467 N 0.43385 0.66494 0.47753 0.0
H468 H 0.95722 0.30891 0.04827 0.0
H469 H 0.90762 0.28929 0.06385 0.0
H470 H 0.91638 0.28741 0.00929 0.0
H471 H 0.95872 0.32563 0.07351 0.0
C472 C 0.95254 0.31742 0.08242 0.0
C473 C 0.94393 0.30319 0.04495 0.0
C474 C 0.93807 0.29855 0.0273 0.0
C475 C 0.93276 0.30029 0.05813 0.0
C476 C 0.91589 0.29205 0.05356 0.0
C477 C 0.90977 0.28728 0.03594 0.0
C478 C 0.92093 0.29085 0.02292 0.0
N479 N 0.93825 0.30497 0.07612 0.0
H480 H 0.04488 0.71142 0.49676 0.0
H481 H 0.09664 0.7341 0.48953 0.0
H482 H 0.08728 0.70978 0.53625 0.0
H483 H 0.08282 0.74716 0.46831 0.0
C484 C 0.07143 0.73838 0.46323 0.0
C485 C 0.05853 0.71454 0.50145 0.0
C486 C 0.06485 0.70942 0.51762 0.0
C487 C 0.06982 0.72345 0.49113 0.0
C488 C 0.0876 0.72753 0.49735 0.0
C489 C 0.09398 0.72248 0.5136 0.0
C490 C 0.08252 0.71339 0.52354 0.0
N491 N 0.06294 0.72724 0.47431 0.0
H492 H 0.59614 0.31023 0.00728 0.0
H493 H 0.54398 0.30061 0.98168 0.0
H494 H 0.55225 0.32002 0.03605 0.0
H495 H 0.6023 0.2909 0.98591 0.0
C496 C 0.59357 0.29261 0.9745 0.0
C497 C 0.58213 0.31002 0.00766 0.0
C498 C 0.57544 0.31532 0.02341 0.0
C499 C 0.57072 0.3045 0.9926 0.0
C500 C 0.55266 0.30493 0.99332 0.0
C501 C 0.54578 0.31032 0.00899 0.0
C502 C 0.55732 0.31546 0.02396 0.0
N503 N 0.57684 0.29858 0.97646 0.0
H504 H 0.44638 0.43344 0.6641 0.0
H505 H 0.46377 0.48809 0.66459 0.0
H506 H 0.41018 0.4725 0.67058 0.0
H507 H 0.48738 0.4786 0.65405 0.0
C508 C 0.48885 0.46555 0.65788 0.0
C509 C 0.44351 0.44698 0.66498 0.0
C510 C 0.42641 0.45124 0.66715 0.0
C511 C 0.45707 0.46005 0.66382 0.0
C512 C 0.45349 0.47774 0.66499 0.0
C513 C 0.43642 0.48218 0.66693 0.0
C514 C 0.42309 0.4689 0.66812 0.0
N515 N 0.47415 0.45481 0.66208 0.0
H516 H 0.02818 0.96539 0.31295 0.0
H517 H 0.05091 0.91804 0.29724 0.0
H518 H 0.99644 0.92203 0.284 0.0
H519 H 0.07152 0.92777 0.31879 0.0
C520 C 0.0728 0.94186 0.3184 0.0
C521 C 0.02679 0.95221 0.30656 0.0
C522 C 0.01046 0.94495 0.29844 0.0
C523 C 0.04146 0.94262 0.30642 0.0
C524 C 0.03973 0.92556 0.29795 0.0
C525 C 0.02354 0.91824 0.28972 0.0
C526 C 0.00902 0.92797 0.28997 0.0
N527 N 0.05783 0.9508 0.31419 0.0
H528 H 0.48424 0.04031 0.71506 0.0
H529 H 0.48232 0.09453 0.73357 0.0
H530 H 0.52803 0.07784 0.71167 0.0
H531 H 0.45345 0.08812 0.72831 0.0
C532 C 0.45045 0.07437 0.72992 0.0
C533 C 0.49025 0.05364 0.71714 0.0
C534 C 0.50715 0.05757 0.71228 0.0
C535 C 0.48085 0.06694 0.72422 0.0
C536 C 0.48895 0.08419 0.7274 0.0
C537 C 0.5059 0.0881 0.72264 0.0
C538 C 0.51476 0.07482 0.71497 0.0
N539 N 0.46337 0.06243 0.72791 0.0
H540 H 0.03262 0.56837 0.27023 0.0
H541 H 0.00725 0.51598 0.26483 0.0
H542 H 0.06273 0.52472 0.27747 0.0
H543 H 0.9861 0.52787 0.24969 0.0
C544 C 0.98611 0.5411 0.25576 0.0
C545 C 0.03338 0.55441 0.27037 0.0
C546 C 0.04962 0.54785 0.27384 0.0
C547 C 0.01805 0.54306 0.26678 0.0
C548 C 0.01897 0.5249 0.26711 0.0
C549 C 0.03513 0.51815 0.27067 0.0
C550 C 0.05032 0.52975 0.27403 0.0
N551 N 0.00194 0.55044 0.2635 0.0
H552 H 0.20801 0.58612 0.31277 0.0
H553 H 0.17768 0.58213 0.30003 0.0
H554 H 0.1643 0.62258 0.33734 0.0
H555 H 0.1947 0.62668 0.35022 0.0
H556 H 0.14195 0.59282 0.3355 0.0
H557 H 0.16476 0.63062 0.29556 0.0
H558 H 0.1853 0.64131 0.2752 0.0
H559 H 0.1731 0.59386 0.24144 0.0
H560 H 0.15266 0.58276 0.26174 0.0
H561 H 0.05507 0.57814 0.29571 0.0
H562 H 0.08316 0.59494 0.30544 0.0
H563 H 0.10912 0.56043 0.27132 0.0
H564 H 0.08112 0.54404 0.26118 0.0
H565 H 0.12378 0.59317 0.27225 0.0
H566 H 0.10587 0.55348 0.31436 0.0
H567 H 0.08595 0.5416 0.33474 0.0
H568 H 0.08969 0.59172 0.36435 0.0
H569 H 0.10947 0.60395 0.34399 0.0
C570 C 0.19866 0.59428 0.31819 0.0
C571 C 0.20375 0.6067 0.33253 0.0
C572 C 0.18135 0.59206 0.31082 0.0
C573 C 0.16878 0.60219 0.31763 0.0
C574 C 0.17383 0.6147 0.33185 0.0
C575 C 0.1912 0.61702 0.33917 0.0
C576 C 0.15021 0.59884 0.31053 0.0
C577 C 0.13788 0.59331 0.32174 0.0
C578 C 0.14499 0.59918 0.29253 0.0
C579 C 0.15725 0.60581 0.28025 0.0
C580 C 0.16655 0.6224 0.28387 0.0
C581 C 0.17816 0.62855 0.27232 0.0
C582 C 0.18052 0.61826 0.25705 0.0
C583 C 0.17125 0.60181 0.25328 0.0
C584 C 0.15963 0.5956 0.26479 0.0
C585 C 0.06671 0.57444 0.28998 0.0
C586 C 0.06596 0.55963 0.27788 0.0
C587 C 0.08276 0.58396 0.29563 0.0
C588 C 0.09828 0.57873 0.28934 0.0
C589 C 0.09734 0.56466 0.27642 0.0
C590 C 0.08136 0.55521 0.27075 0.0
C591 C 0.11566 0.58676 0.29715 0.0
C592 C 0.12777 0.5931 0.28607 0.0
C593 C 0.12075 0.58703 0.31526 0.0
C594 C 0.10895 0.57968 0.32754 0.0
C595 C 0.10234 0.56199 0.32515 0.0
C596 C 0.09109 0.55519 0.3367 0.0
C597 C 0.08651 0.56591 0.3508 0.0
C598 C 0.09322 0.58344 0.3534 0.0
C599 C 0.10444 0.59032 0.34186 0.0
H600 H 0.07781 0.56062 0.35973 0.0
H601 H 0.18952 0.62304 0.24813 0.0
H602 H 0.30304 0.35629 0.72952 0.0
H603 H 0.33034 0.36348 0.71641 0.0
H604 H 0.30871 0.40789 0.69542 0.0
H605 H 0.28148 0.40087 0.70841 0.0
H606 H 0.32663 0.38758 0.67129 0.0
H607 H 0.33441 0.41463 0.73128 0.0
H608 H 0.33531 0.41399 0.76326 0.0
H609 H 0.37522 0.37842 0.76193 0.0
H610 H 0.37439 0.37869 0.72988 0.0
H611 H 0.39194 0.45002 0.65478 0.0
H612 H 0.36774 0.43108 0.66264 0.0
H613 H 0.40383 0.40151 0.69106 0.0
H614 H 0.42817 0.42158 0.68456 0.0
H615 H 0.38022 0.40794 0.71039 0.0
H616 H 0.37502 0.38142 0.65166 0.0
H617 H 0.37459 0.38055 0.61956 0.0
H618 H 0.33172 0.4126 0.61804 0.0
H619 H 0.33151 0.41321 0.65002 0.0
C620 C 0.30405 0.36751 0.72199 0.0
C621 C 0.29007 0.37799 0.71996 0.0
C622 C 0.31964 0.37158 0.71453 0.0
C623 C 0.32147 0.38619 0.70493 0.0
C624 C 0.30747 0.39648 0.70266 0.0
C625 C 0.29194 0.39246 0.71014 0.0
C626 C 0.3382 0.39141 0.69787 0.0
C627 C 0.33841 0.39196 0.67977 0.0
C628 C 0.35365 0.39661 0.70894 0.0
C629 C 0.35418 0.3965 0.72818 0.0
C630 C 0.34326 0.40655 0.73779 0.0
C631 C 0.34379 0.40628 0.75593 0.0
C632 C 0.35527 0.39612 0.76462 0.0
C633 C 0.3663 0.38625 0.75518 0.0
C634 C 0.36581 0.38646 0.73703 0.0
C635 C 0.3948 0.43949 0.6627 0.0
C636 C 0.41205 0.43759 0.66929 0.0
C637 C 0.38089 0.42836 0.66689 0.0
C638 C 0.38384 0.41458 0.67724 0.0
C639 C 0.40115 0.41199 0.68301 0.0
C640 C 0.41511 0.42341 0.67913 0.0
C641 C 0.36877 0.40438 0.68364 0.0
C642 C 0.36874 0.40299 0.7017 0.0
C643 C 0.35359 0.39805 0.67249 0.0
C644 C 0.35334 0.39745 0.65322 0.0
C645 C 0.36548 0.38825 0.64445 0.0
C646 C 0.36527 0.38771 0.62626 0.0
C647 C 0.35308 0.39646 0.61675 0.0
C648 C 0.34101 0.40568 0.62538 0.0
C649 C 0.34097 0.40603 0.64352 0.0
H650 H 0.35301 0.39611 0.60268 0.0
H651 H 0.35566 0.39594 0.77866 0.0
H652 H 0.64567 0.978 0.69253 0.0
H653 H 0.61606 0.98365 0.69921 0.0
H654 H 0.62207 0.03312 0.67699 0.0
H655 H 0.65185 0.02791 0.67114 0.0
H656 H 0.60656 0.03784 0.70424 0.0
H657 H 0.59827 0.99427 0.65506 0.0
H658 H 0.60144 0.96599 0.63871 0.0
H659 H 0.57653 0.93888 0.67763 0.0
H660 H 0.57339 0.96702 0.69433 0.0
H661 H 0.52291 0.0571 0.68222 0.0
H662 H 0.54785 0.04095 0.6757 0.0
H663 H 0.54093 0.01187 0.72033 0.0
H664 H 0.51592 0.02821 0.72704 0.0
H665 H 0.55577 0.99465 0.68448 0.0
H666 H 0.56453 0.04142 0.73309 0.0
H667 H 0.55879 0.07088 0.74501 0.0
H668 H 0.58183 0.09317 0.70223 0.0
H669 H 0.58735 0.06376 0.68987 0.0
C670 C 0.64067 0.99012 0.68918 0.0
C671 C 0.65106 0.00252 0.68131 0.0
C672 C 0.62371 0.99329 0.69289 0.0
C673 C 0.61667 0.0087 0.68835 0.0
C674 C 0.62716 0.02114 0.68067 0.0
C675 C 0.6442 0.01815 0.6773 0.0
C676 C 0.59843 0.01204 0.69154 0.0
C677 C 0.59554 0.02833 0.69988 0.0
C678 C 0.5839 0.99964 0.68604 0.0
C679 C 0.58579 0.98273 0.67605 0.0
C680 C 0.59359 0.98227 0.6602 0.0
C681 C 0.59536 0.96627 0.65086 0.0
C682 C 0.58924 0.95065 0.65716 0.0
C683 C 0.58129 0.95099 0.67279 0.0
C684 C 0.57951 0.96696 0.68219 0.0
C685 C 0.52626 0.04674 0.6902 0.0
C686 C 0.5177 0.04399 0.70523 0.0
C687 C 0.54045 0.03752 0.68645 0.0
C688 C 0.54626 0.02541 0.69766 0.0
C689 C 0.53651 0.02114 0.71152 0.0
C690 C 0.52226 0.03044 0.71532 0.0
C691 C 0.56422 0.02031 0.69696 0.0
C692 C 0.56696 0.00386 0.6891 0.0
C693 C 0.57865 0.03263 0.70255 0.0
C694 C 0.57624 0.05039 0.7105 0.0
C695 C 0.5683 0.0526 0.7262 0.0
C696 C 0.56508 0.06928 0.73302 0.0
C697 C 0.56991 0.08389 0.72437 0.0
C698 C 0.57808 0.08184 0.70892 0.0
C699 C 0.58127 0.06517 0.702 0.0
H700 H 0.56733 0.09679 0.72963 0.0
H701 H 0.59062 0.93827 0.6499 0.0
H702 H 0.85232 0.95585 0.29394 0.0
H703 H 0.88384 0.95443 0.29852 0.0
H704 H 0.89183 0.01074 0.30312 0.0
H705 H 0.86021 0.01229 0.2983 0.0
H706 H 0.91376 0.99707 0.28214 0.0
H707 H 0.89817 0.98882 0.33915 0.0
H708 H 0.88142 0.97632 0.3617 0.0
H709 H 0.89741 0.92556 0.34698 0.0
H710 H 0.91406 0.9377 0.32416 0.0
H711 H -4e-05 0.964 0.32665 0.0
H712 H 0.97223 0.97707 0.32862 0.0
H713 H 0.95725 0.96001 0.27426 0.0
H714 H 0.98508 0.9475 0.27208 0.0
H715 H 0.94079 0.96052 0.32498 0.0
H716 H 0.92984 0.986 0.25607 0.0
H717 H 0.94727 0.00053 0.23517 0.0
H718 H 0.98579 0.0211 0.27697 0.0
H719 H 0.96849 0.00691 0.29817 0.0
C720 C 0.86075 0.96796 0.29606 0.0
C721 C 0.85375 0.98419 0.29576 0.0
C722 C 0.87878 0.96712 0.29876 0.0
C723 C 0.8902 0.98249 0.30136 0.0
C724 C 0.88326 0.99873 0.30119 0.0
C725 C 0.86519 0.99958 0.29848 0.0
C726 C 0.90938 0.98141 0.30346 0.0
C727 C 0.91972 0.9892 0.29159 0.0
C728 C 0.91725 0.97156 0.31612 0.0
C729 C 0.90729 0.96417 0.32987 0.0
C730 C 0.89802 0.97497 0.34064 0.0
C731 C 0.88856 0.96795 0.35348 0.0
C732 C 0.88833 0.95015 0.35576 0.0
C733 C 0.8976 0.93934 0.3452 0.0
C734 C 0.90708 0.9463 0.33233 0.0
C735 C 0.99093 0.96344 0.31502 0.0
C736 C 0.99466 0.95465 0.29923 0.0
C737 C 0.97504 0.9708 0.31619 0.0
C738 C 0.96268 0.9696 0.30157 0.0
C739 C 0.96666 0.96134 0.28566 0.0
C740 C 0.9825 0.95402 0.28447 0.0
C741 C 0.94503 0.97557 0.30317 0.0
C742 C 0.93494 0.96866 0.31572 0.0
C743 C 0.93749 0.98652 0.29136 0.0
C744 C 0.9479 0.99528 0.2787 0.0
C745 C 0.94198 0.9937 0.26083 0.0
C746 C 0.95185 0.00186 0.24892 0.0
C747 C 0.96765 0.0117 0.25473 0.0
C748 C 0.97358 0.01343 0.27247 0.0
C749 C 0.96376 0.00531 0.28444 0.0
H750 H 0.97528 0.018 0.24549 0.0
H751 H 0.88099 0.94474 0.36571 0.0
H752 H 0.34572 0.19961 0.63012 0.0
H753 H 0.33943 0.16788 0.62451 0.0
H754 H 0.3025 0.17498 0.58102 0.0
H755 H 0.30899 0.20662 0.58628 0.0
H756 H 0.31132 0.14453 0.62321 0.0
H757 H 0.30619 0.14514 0.54776 0.0
H758 H 0.3178 0.16306 0.52557 0.0
H759 H 0.3627 0.18165 0.56113 0.0
H760 H 0.35149 0.16367 0.58343 0.0
H761 H 0.27134 0.06444 0.57794 0.0
H762 H 0.28071 0.09392 0.59177 0.0
H763 H 0.33128 0.09093 0.57216 0.0
H764 H 0.32174 0.06172 0.55794 0.0
H765 H 0.31887 0.11892 0.56341 0.0
H766 H 0.32568 0.09265 0.61683 0.0
H767 H 0.31748 0.07427 0.64 0.0
H768 H 0.27532 0.10551 0.65026 0.0
H769 H 0.28316 0.12398 0.62699 0.0
C770 C 0.33615 0.19441 0.61945 0.0
C771 C 0.32801 0.20562 0.6085 0.0
C772 C 0.33253 0.17628 0.61631 0.0
C773 C 0.32071 0.16906 0.60218 0.0
C774 C 0.31191 0.18026 0.5918 0.0
C775 C 0.31561 0.19835 0.59484 0.0
C776 C 0.31829 0.14988 0.5976 0.0
C777 C 0.31296 0.13888 0.61015 0.0
C778 C 0.32095 0.14248 0.58072 0.0
C779 C 0.32791 0.15318 0.56731 0.0
C780 C 0.31858 0.153 0.55081 0.0
C781 C 0.32508 0.16318 0.53822 0.0
C782 C 0.34095 0.17353 0.54196 0.0
C783 C 0.35038 0.17368 0.55828 0.0
C784 C 0.34395 0.16351 0.5709 0.0
C785 C 0.28459 0.06995 0.57699 0.0
C786 C 0.2958 0.06094 0.56681 0.0
C787 C 0.28996 0.08677 0.58491 0.0
C788 C 0.30672 0.09468 0.583 0.0
C789 C 0.31826 0.08517 0.57372 0.0
C790 C 0.31283 0.06849 0.56563 0.0
C791 C 0.31154 0.11344 0.5889 0.0
C792 C 0.31729 0.12445 0.57653 0.0
C793 C 0.30972 0.1207 0.60607 0.0
C794 C 0.30492 0.10961 0.62006 0.0
C795 C 0.31457 0.09552 0.62393 0.0
C796 C 0.31001 0.0851 0.63711 0.0
C797 C 0.29585 0.08868 0.64657 0.0
C798 C 0.28627 0.10274 0.64291 0.0
C799 C 0.29079 0.11321 0.62974 0.0
H800 H 0.29232 0.0806 0.65676 0.0
H801 H 0.34595 0.18141 0.53221 0.0
H802 H 0.26936 0.89626 0.05109 0.0
H803 H 0.26865 0.92361 0.03725 0.0
H804 H 0.29579 0.90172 0.99512 0.0
H805 H 0.29685 0.87448 0.00901 0.0
H806 H 0.30809 0.93499 0.00455 0.0
H807 H 0.25138 0.90311 0.99078 0.0
H808 H 0.2238 0.88758 0.99747 0.0
H809 H 0.21112 0.93383 0.02695 0.0
H810 H 0.23876 0.94957 0.02062 0.0
H811 H 0.28547 0.98744 0.93676 0.0
H812 H 0.28881 0.96347 0.95521 0.0
H813 H 0.26298 0.99083 0.99526 0.0
H814 H 0.25926 0.01475 0.97667 0.0
H815 H 0.25043 0.95653 0.98914 0.0
H816 H 0.3064 0.9891 0.0006 0.0
H817 H 0.33376 0.00442 0.99312 0.0
H818 H 0.34773 0.95675 0.96731 0.0
H819 H 0.32032 0.94118 0.97441 0.0
C820 C 0.27531 0.89732 0.03895 0.0
C821 C 0.28306 0.88316 0.03109 0.0
C822 C 0.27483 0.91293 0.03103 0.0
C823 C 0.28194 0.91461 0.01502 0.0
C824 C 0.2902 0.90071 0.00745 0.0
C825 C 0.29075 0.88512 0.0154 0.0
C826 C 0.28028 0.9306 0.00581 0.0
C827 C 0.29548 0.93962 0.00105 0.0
C828 C 0.26385 0.93688 0.00161 0.0
C829 C 0.24722 0.92745 0.0054 0.0
C830 C 0.24278 0.90992 0.99881 0.0
C831 C 0.22712 0.90109 0.00251 0.0
C832 C 0.21574 0.9097 0.01268 0.0
C833 C 0.21996 0.92717 0.01911 0.0
C834 C 0.23562 0.93605 0.01546 0.0
C835 C 0.28042 0.98832 0.94946 0.0
C836 C 0.27209 0.00297 0.95527 0.0
C837 C 0.28249 0.9747 0.96005 0.0
C838 C 0.27632 0.97547 0.97668 0.0
C839 C 0.26791 0.99003 0.9825 0.0
C840 C 0.2659 0.00372 0.97193 0.0
C841 C 0.27822 0.96081 0.98772 0.0
C842 C 0.26307 0.95202 0.9928 0.0
C843 C 0.29468 0.95471 0.99215 0.0
C844 C 0.31123 0.96401 0.98792 0.0
C845 C 0.31524 0.98191 0.99321 0.0
C846 C 0.33077 0.99064 0.98906 0.0
C847 C 0.34246 0.98157 0.97971 0.0
C848 C 0.33866 0.96375 0.97453 0.0
C849 C 0.32313 0.95497 0.97864 0.0
H850 H 0.35448 0.98835 0.97652 0.0
H851 H 0.20362 0.90284 0.01553 0.0
H852 H 0.75882 0.3165 0.35105 0.0
H853 H 0.75151 0.3466 0.35703 0.0
H854 H 0.70387 0.32757 0.37747 0.0
H855 H 0.71109 0.2975 0.37165 0.0
H856 H 0.69995 0.35573 0.35646 0.0
H857 H 0.7387 0.33948 0.40482 0.0
H858 H 0.76622 0.32944 0.41731 0.0
H859 H 0.79541 0.37291 0.39872 0.0
H860 H 0.76804 0.38306 0.38591 0.0
H861 H 0.67562 0.41237 0.42388 0.0
H862 H 0.68445 0.38956 0.40339 0.0
H863 H 0.72946 0.42349 0.39402 0.0
H864 H 0.72048 0.44652 0.41455 0.0
H865 H 0.7382 0.3918 0.4034 0.0
H866 H 0.69939 0.41192 0.36124 0.0
H867 H 0.67261 0.42217 0.34744 0.0
H868 H 0.64438 0.37263 0.3523 0.0
H869 H 0.67083 0.36225 0.36657 0.0
C870 C 0.74665 0.31871 0.35656 0.0
C871 C 0.73558 0.30464 0.36101 0.0
C872 C 0.74253 0.33591 0.35999 0.0
C873 C 0.72722 0.33928 0.3678 0.0
C874 C 0.71573 0.32522 0.37141 0.0
C875 C 0.71992 0.30806 0.36816 0.0
C876 C 0.72369 0.35734 0.37353 0.0
C877 C 0.70825 0.36366 0.36674 0.0
C878 C 0.73496 0.36793 0.3864 0.0
C879 C 0.75137 0.36189 0.39422 0.0
C880 C 0.751 0.34681 0.40327 0.0
C881 C 0.76656 0.34112 0.41043 0.0
C882 C 0.78256 0.3505 0.40875 0.0
C883 C 0.78301 0.36563 0.39997 0.0
C884 C 0.76749 0.37136 0.39277 0.0
C885 C 0.68719 0.41506 0.41715 0.0
C886 C 0.69741 0.43112 0.42076 0.0
C887 C 0.69218 0.40209 0.40539 0.0
C888 C 0.70756 0.40486 0.3971 0.0
C889 C 0.7175 0.42114 0.40022 0.0
C890 C 0.71235 0.43427 0.41185 0.0
C891 C 0.71402 0.38999 0.38684 0.0
C892 C 0.73004 0.38418 0.3928 0.0
C893 C 0.70333 0.37996 0.37311 0.0
C894 C 0.68713 0.38633 0.36509 0.0
C895 C 0.68741 0.40329 0.3596 0.0
C896 C 0.67228 0.40912 0.35166 0.0
C897 C 0.65678 0.39809 0.34902 0.0
C898 C 0.65636 0.38122 0.35439 0.0
C899 C 0.67144 0.37534 0.36241 0.0
H900 H 0.64514 0.40263 0.34274 0.0
H901 H 0.79459 0.34606 0.4143 0.0
H902 H 0.69472 0.63127 0.96308 0.0
H903 H 0.7051 0.60906 0.98108 0.0
H904 H 0.67877 0.56851 0.94365 0.0
H905 H 0.66796 0.59072 0.92576 0.0
H906 H 0.67187 0.562 0.97497 0.0
H907 H 0.72395 0.57622 0.94845 0.0
H908 H 0.74789 0.59523 0.93874 0.0
H909 H 0.76458 0.61407 0.99204 0.0
H910 H 0.74059 0.59536 0.00207 0.0
H911 H 0.73877 0.51019 0.02738 0.0
H912 H 0.73124 0.52702 0.00267 0.0
H913 H 0.69254 0.55098 0.03145 0.0
H914 H 0.6996 0.5339 0.05589 0.0
H915 H 0.73322 0.56164 0.00017 0.0
H916 H 0.65793 0.55749 0.00412 0.0
H917 H 0.63448 0.53659 0.01192 0.0
H918 H 0.6651 0.49396 0.99973 0.0
H919 H 0.68862 0.51457 0.99161 0.0
C920 C 0.69127 0.61763 0.95858 0.0
C921 C 0.68048 0.61276 0.94301 0.0
C922 C 0.69731 0.60493 0.96884 0.0
C923 C 0.69288 0.58709 0.96364 0.0
C924 C 0.68237 0.58219 0.94793 0.0
C925 C 0.67623 0.5949 0.9377 0.0
C926 C 0.6983 0.57367 0.97517 0.0
C927 C 0.6853 0.56186 0.98037 0.0
C928 C 0.7159 0.5732 0.98195 0.0
C929 C 0.73039 0.58446 0.976 0.0
C930 C 0.73265 0.58451 0.9581 0.0
C931 C 0.74624 0.59522 0.95254 0.0
C932 C 0.75773 0.60588 0.96476 0.0
C933 C 0.75567 0.60582 0.98258 0.0
C934 C 0.74209 0.59514 0.98822 0.0
C935 C 0.72853 0.51892 0.02834 0.0
C936 C 0.71977 0.52072 0.04357 0.0
C937 C 0.72434 0.5286 0.01428 0.0
C938 C 0.71122 0.54011 0.01516 0.0
C939 C 0.70254 0.542 0.03039 0.0
C940 C 0.70672 0.53236 0.04442 0.0
C941 C 0.70669 0.55045 0.00035 0.0
C942 C 0.71983 0.56167 0.99457 0.0
C943 C 0.68929 0.55013 0.99274 0.0
C944 C 0.67509 0.53761 0.99739 0.0
C945 C 0.65962 0.54365 0.00301 0.0
C946 C 0.64632 0.53186 0.00751 0.0
C947 C 0.64831 0.51397 0.00636 0.0
C948 C 0.66359 0.50783 0.00067 0.0
C949 C 0.67692 0.51956 0.99614 0.0
H950 H 0.63801 0.50486 0.00986 0.0
H951 H 0.76825 0.61416 0.96043 0.0
H952 H 0.65694 0.39423 0.16623 0.0
H953 H 0.65031 0.38314 0.13549 0.0
H954 H 0.6194 0.33863 0.15074 0.0
H955 H 0.62629 0.34939 0.18145 0.0
H956 H 0.63827 0.32875 0.12493 0.0
H957 H 0.60065 0.37474 0.13663 0.0
H958 H 0.5942 0.4047 0.14605 0.0
H959 H 0.62434 0.42478 0.10661 0.0
H960 H 0.63114 0.39494 0.0971 0.0
H961 H 0.57329 0.3035 0.05539 0.0
H962 H 0.59091 0.31424 0.08266 0.0
H963 H 0.62149 0.3504 0.05506 0.0
H964 H 0.60384 0.33957 0.0276 0.0
H965 H 0.60801 0.36585 0.08478 0.0
H966 H 0.64075 0.31816 0.06988 0.0
H967 H 0.64517 0.28772 0.06018 0.0
H968 H 0.6229 0.27024 0.10554 0.0
H969 H 0.61795 0.30054 0.11533 0.0
C970 C 0.6488 0.38203 0.16304 0.0
C971 C 0.64203 0.37275 0.17627 0.0
C972 C 0.645 0.37573 0.14546 0.0
C973 C 0.63419 0.36016 0.1408 0.0
C974 C 0.62779 0.35066 0.15403 0.0
C975 C 0.63168 0.35688 0.17158 0.0
C976 C 0.62889 0.35401 0.1222 0.0
C977 C 0.6316 0.33683 0.11616 0.0
C978 C 0.62065 0.36472 0.1106 0.0
C979 C 0.61658 0.38265 0.11631 0.0
C980 C 0.60602 0.38557 0.13007 0.0
C981 C 0.60227 0.40252 0.1354 0.0
C982 C 0.60891 0.41664 0.12698 0.0
C983 C 0.61925 0.41383 0.11316 0.0
C984 C 0.62305 0.39691 0.10779 0.0
C985 C 0.5839 0.31361 0.05513 0.0
C986 C 0.58721 0.32077 0.03947 0.0
C987 C 0.594 0.31965 0.07066 0.0
C988 C 0.60755 0.33303 0.07083 0.0
C989 C 0.61113 0.34001 0.05514 0.0
C990 C 0.60113 0.33379 0.03951 0.0
C991 C 0.61697 0.34047 0.0877 0.0
C992 C 0.61502 0.35788 0.09342 0.0
C993 C 0.62576 0.32992 0.09903 0.0
C994 C 0.62887 0.31165 0.09329 0.0
C995 C 0.63663 0.30782 0.07772 0.0
C996 C 0.63924 0.29058 0.0722 0.0
C997 C 0.6343 0.27705 0.08222 0.0
C998 C 0.62673 0.28073 0.09779 0.0
C999 C 0.62402 0.29795 0.10333 0.0
H1000 H 0.63636 0.26371 0.07794 0.0
H1001 H 0.60599 0.42976 0.13112 0.0
H1002 H 0.04664 0.29137 0.90807 0.0
H1003 H 0.03282 0.29336 0.93547 0.0
H1004 H 0.9888 0.31491 0.90966 0.0
H1005 H 0.00263 0.31323 0.8823 0.0
H1006 H 0.99799 0.33169 0.94167 0.0
H1007 H 0.98689 0.27189 0.9167 0.0
H1008 H 0.99498 0.24337 0.9046 0.0
H1009 H 0.02547 0.23782 0.95272 0.0
H1010 H 0.01774 0.26644 0.96503 0.0
H1011 H 0.93083 0.31217 0.99621 0.0
H1012 H 0.94965 0.31459 0.9724 0.0
H1013 H 0.9909 0.29357 0.00315 0.0
H1014 H 0.97197 0.29076 0.0269 0.0
H1015 H 0.98553 0.27738 0.97039 0.0
H1016 H 0.99429 0.33628 0.99626 0.0
H1017 H 0.98563 0.3646 0.00822 0.0
H1018 H 0.9591 0.3718 0.95847 0.0
H1019 H 0.96738 0.34339 0.94626 0.0
C1020 C 0.03407 0.29665 0.90825 0.0
C1021 C 0.02568 0.30204 0.89298 0.0
C1022 C 0.02617 0.29773 0.92391 0.0
C1023 C 0.00968 0.30407 0.92454 0.0
C1024 C 0.00152 0.30996 0.90946 0.0
C1025 C 0.00943 0.30893 0.89381 0.0
C1026 C 0.00061 0.30405 0.94074 0.0
C1027 C 0.99513 0.3198 0.94789 0.0
C1028 C 0.99727 0.28861 0.94908 0.0
C1029 C 0.0019 0.27139 0.94171 0.0
C1030 C 0.99543 0.26465 0.92465 0.0
C1031 C 0.99993 0.24845 0.91776 0.0
C1032 C 0.01078 0.23881 0.92787 0.0
C1033 C 0.0171 0.24532 0.9449 0.0
C1034 C 0.01265 0.26152 0.95184 0.0
C1035 C 0.94392 0.3081 0.9979 0.0
C1036 C 0.94992 0.30124 0.01339 0.0
C1037 C 0.95472 0.30964 0.98436 0.0
C1038 C 0.97173 0.3044 0.98607 0.0
C1039 C 0.97784 0.29775 0.0016 0.0
C1040 C 0.96706 0.29627 0.01519 0.0
C1041 C 0.98273 0.30499 0.97124 0.0
C1042 C 0.98855 0.28933 0.96432 0.0
C1043 C 0.98632 0.3205 0.9631 0.0
C1044 C 0.98134 0.33762 0.97038 0.0
C1045 C 0.98649 0.34383 0.9879 0.0
C1046 C 0.98167 0.35992 0.99472 0.0
C1047 C 0.97179 0.36998 0.98413 0.0
C1048 C 0.96674 0.36399 0.96667 0.0
C1049 C 0.97151 0.3479 0.95978 0.0
H1050 H 0.96808 0.38243 0.98943 0.0
H1051 H 0.01424 0.22627 0.92251 0.0
H1052 H 0.38964 0.68936 0.27806 0.0
H1053 H 0.39246 0.6781 0.3066 0.0
H1054 H 0.34954 0.70636 0.32228 0.0
H1055 H 0.34686 0.71803 0.29372 0.0
H1056 H 0.37731 0.7133 0.34537 0.0
H1057 H 0.34502 0.65938 0.31988 0.0
H1058 H 0.33755 0.63458 0.29731 0.0
H1059 H 0.39021 0.62032 0.30374 0.0
H1060 H 0.39803 0.64525 0.32604 0.0
H1061 H 0.40046 0.68454 0.42852 0.0
H1062 H 0.38124 0.68685 0.40195 0.0
H1063 H 0.41815 0.66276 0.37085 0.0
H1064 H 0.43701 0.65981 0.3973 0.0
H1065 H 0.38541 0.65231 0.35756 0.0
H1066 H 0.41916 0.70733 0.3787 0.0
H1067 H 0.42857 0.73236 0.40051 0.0
H1068 H 0.37546 0.74512 0.40109 0.0
H1069 H 0.36572 0.72001 0.37942 0.0
C1070 C 0.38056 0.69293 0.28742 0.0
C1071 C 0.3681 0.70469 0.28365 0.0
C1072 C 0.38208 0.68634 0.30373 0.0
C1073 C 0.37106 0.6912 0.31654 0.0
C1074 C 0.35812 0.70236 0.31256 0.0
C1075 C 0.35661 0.70901 0.29623 0.0
C1076 C 0.37465 0.68637 0.33463 0.0
C1077 C 0.37859 0.69988 0.34814 0.0
C1078 C 0.37669 0.66894 0.33821 0.0
C1079 C 0.37206 0.65407 0.32469 0.0
C1080 C 0.355 0.65099 0.3164 0.0
C1081 C 0.35072 0.63695 0.30362 0.0
C1082 C 0.36341 0.62591 0.29905 0.0
C1083 C 0.3804 0.62889 0.30725 0.0
C1084 C 0.38474 0.64293 0.32 0.0
C1085 C 0.40424 0.67934 0.41605 0.0
C1086 C 0.42037 0.67226 0.41494 0.0
C1087 C 0.39331 0.68076 0.40088 0.0
C1088 C 0.39842 0.67522 0.38441 0.0
C1089 C 0.41398 0.66714 0.38341 0.0
C1090 C 0.42484 0.66566 0.39852 0.0
C1091 C 0.38866 0.67922 0.36803 0.0
C1092 C 0.3836 0.6656 0.35488 0.0
C1093 C 0.38585 0.69658 0.36469 0.0
C1094 C 0.39169 0.71169 0.37764 0.0
C1095 C 0.40948 0.71541 0.38358 0.0
C1096 C 0.41487 0.72961 0.3959 0.0
C1097 C 0.40261 0.74029 0.40223 0.0
C1098 C 0.38494 0.73681 0.39621 0.0
C1099 C 0.37947 0.7226 0.38391 0.0
H1100 H 0.40681 0.75129 0.41176 0.0
H1101 H 0.36005 0.61501 0.2892 0.0
H1102 H 0.9997 0.68201 0.66161 0.0
H1103 H 0.00356 0.68904 0.63172 0.0
H1104 H 0.04837 0.65905 0.63124 0.0
H1105 H 0.04509 0.65281 0.6613 0.0
H1106 H 0.05591 0.68676 0.61743 0.0
H1107 H 0.00577 0.64444 0.60948 0.0
H1108 H 0.97619 0.63194 0.61411 0.0
H1109 H 0.95433 0.67691 0.59515 0.0
H1110 H 0.98383 0.68978 0.59061 0.0
H1111 H 0.06827 0.67811 0.5304 0.0
H1112 H 0.05511 0.66779 0.55583 0.0
H1113 H 0.02306 0.71099 0.55697 0.0
H1114 H 0.0361 0.72126 0.53127 0.0
H1115 H 0.00765 0.67789 0.56975 0.0
H1116 H 0.05987 0.71885 0.57693 0.0
H1117 H 0.08944 0.72753 0.56904 0.0
H1118 H 0.10796 0.68139 0.58878 0.0
H1119 H 0.07826 0.67201 0.59607 0.0
C1120 C 0.01039 0.67698 0.6551 0.0
C1121 C 0.02213 0.66691 0.66379 0.0
C1122 C 0.01251 0.68088 0.63797 0.0
C1123 C 0.0261 0.67436 0.62905 0.0
C1124 C 0.0378 0.66429 0.63779 0.0
C1125 C 0.03591 0.66072 0.655 0.0
C1126 C 0.02857 0.6783 0.61081 0.0
C1127 C 0.04533 0.68462 0.60705 0.0
C1128 C 0.01476 0.67586 0.59718 0.0
C1129 C 0.99702 0.66816 0.59989 0.0
C1130 C 0.99467 0.65172 0.60643 0.0
C1131 C 0.97792 0.64456 0.60901 0.0
C1132 C 0.9634 0.65365 0.60497 0.0
C1133 C 0.9656 0.6699 0.5983 0.0
C1134 C 0.98233 0.67713 0.59571 0.0
C1135 C 0.0579 0.68498 0.53566 0.0
C1136 C 0.05328 0.70054 0.52908 0.0
C1137 C 0.05039 0.67908 0.55014 0.0
C1138 C 0.03836 0.68882 0.55842 0.0
C1139 C 0.03232 0.70331 0.55073 0.0
C1140 C 0.03977 0.70917 0.53609 0.0
C1141 C 0.03493 0.6859 0.57658 0.0
C1142 C 0.01808 0.67999 0.58027 0.0
C1143 C 0.0487 0.6884 0.59016 0.0
C1144 C 0.0668 0.69466 0.58692 0.0
C1145 C 0.07023 0.71052 0.57955 0.0
C1146 C 0.08702 0.71557 0.57518 0.0
C1147 C 0.1006 0.70507 0.57847 0.0
C1148 C 0.09743 0.68952 0.58623 0.0
C1149 C 0.0806 0.6843 0.59044 0.0
H1150 H 0.11357 0.70893 0.57498 0.0
H1151 H 0.95044 0.64808 0.60698 0.0
H1152 H 0.79595 0.36801 0.67953 0.0
H1153 H 0.8277 0.37402 0.68376 0.0
H1154 H 0.83292 0.33648 0.64019 0.0
H1155 H 0.80111 0.33008 0.63612 0.0
H1156 H 0.8585 0.33482 0.66621 0.0
H1157 H 0.83463 0.37961 0.63466 0.0
H1158 H 0.81521 0.40272 0.62899 0.0
H1159 H 0.83683 0.4323 0.67676 0.0
H1160 H 0.85622 0.40924 0.68284 0.0
H1161 H 0.94389 0.37024 0.64869 0.0
H1162 H 0.91317 0.3587 0.64756 0.0
H1163 H 0.90576 0.39557 0.69102 0.0
H1164 H 0.93635 0.4072 0.69209 0.0
H1165 H 0.88144 0.39669 0.66458 0.0
H1166 H 0.90665 0.35165 0.69517 0.0
H1167 H 0.92721 0.32916 0.69893 0.0
H1168 H 0.90395 0.30021 0.65144 0.0
H1169 H 0.88345 0.32271 0.6472 0.0
C1170 C 0.80384 0.36093 0.67092 0.0
C1171 C 0.79599 0.3487 0.65737 0.0
C1172 C 0.822 0.36439 0.67334 0.0
C1173 C 0.83268 0.35591 0.66211 0.0
C1174 C 0.82494 0.3432 0.64899 0.0
C1175 C 0.80675 0.33962 0.64664 0.0
C1176 C 0.85177 0.36108 0.66346 0.0
C1177 C 0.86354 0.34831 0.66571 0.0
C1178 C 0.85836 0.3787 0.66292 0.0
C1179 C 0.84675 0.39262 0.65928 0.0
C1180 C 0.83515 0.39098 0.64402 0.0
C1181 C 0.82416 0.40408 0.64072 0.0
C1182 C 0.82475 0.41895 0.65253 0.0
C1183 C 0.83637 0.42077 0.66764 0.0
C1184 C 0.84737 0.40769 0.67101 0.0
C1185 C 0.93576 0.37565 0.65819 0.0
C1186 C 0.94243 0.38973 0.67037 0.0
C1187 C 0.91823 0.36905 0.65754 0.0
C1188 C 0.90717 0.37628 0.66922 0.0
C1189 C 0.91402 0.38988 0.68181 0.0
C1190 C 0.93148 0.39653 0.68239 0.0
C1191 C 0.88821 0.37053 0.66768 0.0
C1192 C 0.87644 0.3832 0.66524 0.0
C1193 C 0.88171 0.35283 0.66792 0.0
C1194 C 0.89359 0.33895 0.67079 0.0
C1195 C 0.90596 0.34053 0.68548 0.0
C1196 C 0.91761 0.32778 0.6877 0.0
C1197 C 0.91691 0.31328 0.67542 0.0
C1198 C 0.90449 0.31146 0.66094 0.0
C1199 C 0.89284 0.3242 0.65863 0.0
H1200 H 0.92598 0.30346 0.67713 0.0
H1201 H 0.81624 0.42908 0.64996 0.0
H1202 H 0.67456 0.66652 0.29217 0.0
H1203 H 0.64856 0.65606 0.3058 0.0
H1204 H 0.676 0.61431 0.32549 0.0
H1205 H 0.70206 0.62476 0.31217 0.0
H1206 H 0.64364 0.60344 0.30591 0.0
H1207 H 0.66681 0.64484 0.35477 0.0
H1208 H 0.6792 0.67416 0.36746 0.0
H1209 H 0.63256 0.69598 0.34855 0.0
H1210 H 0.61996 0.66677 0.33561 0.0
H1211 H 0.5804 0.56636 0.35394 0.0
H1212 H 0.60792 0.58387 0.35183 0.0
H1213 H 0.57985 0.62262 0.32723 0.0
H1214 H 0.55225 0.60491 0.32872 0.0
H1215 H 0.61264 0.63577 0.35042 0.0
H1216 H 0.58903 0.59371 0.3025 0.0
H1217 H 0.57688 0.56436 0.2899 0.0
H1218 H 0.62523 0.54366 0.30527 0.0
H1219 H 0.63753 0.5728 0.31829 0.0
C1220 C 0.67513 0.65526 0.29963 0.0
C1221 C 0.69033 0.64641 0.30104 0.0
C1222 C 0.6603 0.64936 0.30746 0.0
C1223 C 0.6604 0.63445 0.31669 0.0
C1224 C 0.67569 0.62587 0.31849 0.0
C1225 C 0.69057 0.63188 0.31087 0.0
C1226 C 0.64415 0.62695 0.3232 0.0
C1227 C 0.63699 0.61039 0.31582 0.0
C1228 C 0.6353 0.63626 0.33578 0.0
C1229 C 0.64253 0.65368 0.34408 0.0
C1230 C 0.65924 0.65591 0.35325 0.0
C1231 C 0.6663 0.6725 0.36047 0.0
C1232 C 0.65675 0.68695 0.35865 0.0
C1233 C 0.64 0.6848 0.34982 0.0
C1234 C 0.63287 0.66822 0.34259 0.0
C1235 C 0.58003 0.57877 0.34838 0.0
C1236 C 0.56418 0.58401 0.34105 0.0
C1237 C 0.59576 0.58882 0.34734 0.0
C1238 C 0.59587 0.60434 0.33911 0.0
C1239 C 0.57997 0.61065 0.33363 0.0
C1240 C 0.5642 0.60049 0.33448 0.0
C1241 C 0.61237 0.6121 0.33339 0.0
C1242 C 0.6194 0.62876 0.34066 0.0
C1243 C 0.62116 0.60285 0.32065 0.0
C1244 C 0.61401 0.58541 0.31202 0.0
C1245 C 0.59698 0.58286 0.30351 0.0
C1246 C 0.59008 0.56625 0.29619 0.0
C1247 C 0.60021 0.5521 0.29695 0.0
C1248 C 0.61733 0.5546 0.30484 0.0
C1249 C 0.62425 0.57117 0.31225 0.0
H1250 H 0.59488 0.53923 0.29133 0.0
H1251 H 0.66228 0.6998 0.36418 0.0
H1252 H 0.36734 0.04203 0.30179 0.0
H1253 H 0.39293 0.02571 0.29937 0.0
H1254 H 0.42529 0.06828 0.32907 0.0
H1255 H 0.39966 0.08464 0.33178 0.0
H1256 H 0.42362 0.03107 0.28579 0.0
H1257 H 0.4558 0.05049 0.35568 0.0
H1258 H 0.44763 0.0607 0.38483 0.0
H1259 H 0.39586 0.03521 0.37196 0.0
H1260 H 0.4038 0.02468 0.34285 0.0
H1261 H 0.50367 0.99137 0.29318 0.0
H1262 H 0.48355 0.01422 0.29605 0.0
H1263 H 0.45306 0.98277 0.32823 0.0
H1264 H 0.47328 0.96015 0.32574 0.0
H1265 H 0.45575 0.01669 0.34048 0.0
H1266 H 0.44138 0.98218 0.28504 0.0
H1267 H 0.44754 0.96927 0.25609 0.0
H1268 H 0.46006 0.02055 0.24023 0.0
H1269 H 0.4542 0.03375 0.2692 0.0
C1270 C 0.37991 0.048 0.3077 0.0
C1271 C 0.38144 0.06458 0.3171 0.0
C1272 C 0.39455 0.03868 0.30624 0.0
C1273 C 0.41098 0.0457 0.31419 0.0
C1274 C 0.41269 0.06252 0.32302 0.0
C1275 C 0.39803 0.07187 0.32451 0.0
C1276 C 0.42605 0.03497 0.31392 0.0
C1277 C 0.43076 0.02807 0.29774 0.0
C1278 C 0.43524 0.03088 0.32952 0.0
C1279 C 0.43035 0.03701 0.34703 0.0
C1280 C 0.44269 0.04705 0.3591 0.0
C1281 C 0.4381 0.05288 0.37561 0.0
C1282 C 0.42122 0.04867 0.38022 0.0
C1283 C 0.40891 0.03854 0.36835 0.0
C1284 C 0.41345 0.03265 0.35184 0.0
C1285 C 0.49287 0.98952 0.30114 0.0
C1286 C 0.48993 0.97393 0.30911 0.0
C1287 C 0.48133 0.00251 0.30267 0.0
C1288 C 0.4667 8e-05 0.31218 0.0
C1289 C 0.46424 0.98489 0.32081 0.0
C1290 C 0.47572 0.97193 0.31926 0.0
C1291 C 0.45328 0.01275 0.31236 0.0
C1292 C 0.44886 0.02 0.32852 0.0
C1293 C 0.44411 0.01685 0.29676 0.0
C1294 C 0.44755 0.00894 0.27933 0.0
C1295 C 0.44558 0.99069 0.27542 0.0
C1296 C 0.44899 0.98332 0.25901 0.0
C1297 C 0.45424 0.99408 0.24635 0.0
C1298 C 0.45603 0.01223 0.25006 0.0
C1299 C 0.45266 0.01967 0.26647 0.0
H1300 H 0.45687 0.98835 0.23364 0.0
H1301 H 0.41768 0.05321 0.393 0.0
H1302 H 0.11142 0.95673 0.71211 0.0
H1303 H 0.08446 0.97099 0.71403 0.0
H1304 H 0.10753 0.01535 0.69084 0.0
H1305 H 0.13469 0.00133 0.68921 0.0
H1306 H 0.09277 0.02578 0.71899 0.0
H1307 H 0.07506 0.98624 0.66815 0.0
H1308 H 0.07046 0.95774 0.65055 0.0
H1309 H 0.0358 0.93823 0.68662 0.0
H1310 H 0.04037 0.96656 0.70458 0.0
H1311 H 0.01553 0.06859 0.71054 0.0
H1312 H 0.04021 0.0527 0.70245 0.0
H1313 H 0.02078 0.00897 0.72888 0.0
H1314 H 0.99611 0.02484 0.73716 0.0
H1315 H 0.03336 0.99847 0.69762 0.0
H1316 H 0.05244 0.03744 0.74911 0.0
H1317 H 0.05683 0.066 0.76663 0.0
H1318 H 0.08905 0.0865 0.72898 0.0
H1319 H 0.08462 0.05812 0.7111 0.0
C1320 C 0.11071 0.96944 0.70724 0.0
C1321 C 0.12522 0.97792 0.70054 0.0
C1322 C 0.09524 0.97754 0.70827 0.0
C1323 C 0.0939 0.99418 0.70244 0.0
C1324 C 0.10826 0.00251 0.69542 0.0
C1325 C 0.12376 0.99446 0.69446 0.0
C1326 C 0.07795 0.00335 0.70465 0.0
C1327 C 0.07981 0.01992 0.71402 0.0
C1328 C 0.06099 0.99553 0.69858 0.0
C1329 C 0.05819 0.97848 0.68779 0.0
C1330 C 0.06657 0.97583 0.67241 0.0
C1331 C 0.06394 0.95971 0.66235 0.0
C1332 C 0.05288 0.94617 0.66749 0.0
C1333 C 0.04438 0.94873 0.68267 0.0
C1334 C 0.04697 0.96482 0.69278 0.0
C1335 C 0.0165 0.05559 0.71463 0.0
C1336 C 0.00397 0.04804 0.72465 0.0
C1337 C 0.03057 0.0465 0.70994 0.0
C1338 C 0.03243 0.02975 0.71527 0.0
C1339 C 0.01956 0.02188 0.72464 0.0
C1340 C 0.00547 0.03096 0.72933 0.0
C1341 C 0.04826 0.02084 0.71189 0.0
C1342 C 0.04636 0.00434 0.70241 0.0
C1343 C 0.06521 0.02869 0.71785 0.0
C1344 C 0.06805 0.04571 0.72868 0.0
C1345 C 0.06035 0.04807 0.7445 0.0
C1346 C 0.06286 0.06422 0.75451 0.0
C1347 C 0.07318 0.07807 0.7489 0.0
C1348 C 0.08104 0.07577 0.7333 0.0
C1349 C 0.07854 0.05966 0.72323 0.0
H1350 H 0.0751 0.09056 0.75666 0.0
H1351 H 0.05086 0.9337 0.65968 0.0
H1352 H 0.65604 0.81827 0.3826 0.0
H1353 H 0.65884 0.85021 0.38598 0.0
H1354 H 0.6456 0.85116 0.33064 0.0
H1355 H 0.64238 0.81903 0.32715 0.0
H1356 H 0.67724 0.87446 0.34753 0.0
H1357 H 0.6158 0.86131 0.35095 0.0
H1358 H 0.58991 0.84571 0.36123 0.0
H1359 H 0.60729 0.86532 0.41419 0.0
H1360 H 0.63342 0.88083 0.40425 0.0
H1361 H 0.64975 0.96596 0.38343 0.0
H1362 H 0.6432 0.93691 0.36742 0.0
H1363 H 0.68989 0.91994 0.39306 0.0
H1364 H 0.69644 0.94886 0.40908 0.0
H1365 H 0.63756 0.90612 0.38359 0.0
H1366 H 0.70543 0.88847 0.36119 0.0
H1367 H 0.73185 0.90336 0.35137 0.0
H1368 H 0.70284 0.94584 0.33694 0.0
H1369 H 0.67623 0.93123 0.34648 0.0
C1370 C 0.65373 0.82524 0.37113 0.0
C1371 C 0.64897 0.81615 0.35461 0.0
C1372 C 0.6553 0.84347 0.37309 0.0
C1373 C 0.65238 0.85296 0.35856 0.0
C1374 C 0.64789 0.844 0.34199 0.0
C1375 C 0.646 0.8257 0.34004 0.0
C1376 C 0.654 0.87227 0.36101 0.0
C1377 C 0.66858 0.88151 0.3553 0.0
C1378 C 0.6424 0.88132 0.37084 0.0
C1379 C 0.62662 0.87214 0.37686 0.0
C1380 C 0.61417 0.86219 0.3648 0.0
C1381 C 0.59944 0.85338 0.37056 0.0
C1382 C 0.59697 0.8545 0.38835 0.0
C1383 C 0.60921 0.86446 0.40041 0.0
C1384 C 0.62397 0.87328 0.39472 0.0
C1385 C 0.65875 0.9561 0.38538 0.0
C1386 C 0.67356 0.95957 0.3975 0.0
C1387 C 0.65495 0.93954 0.37632 0.0
C1388 C 0.66609 0.92634 0.37904 0.0
C1389 C 0.68122 0.93 0.39068 0.0
C1390 C 0.6849 0.94646 0.39987 0.0
C1391 C 0.66134 0.90834 0.37083 0.0
C1392 C 0.64616 0.89928 0.37553 0.0
C1393 C 0.67256 0.8995 0.36021 0.0
C1394 C 0.68865 0.90859 0.35449 0.0
C1395 C 0.70458 0.90091 0.35578 0.0
C1396 C 0.71966 0.90935 0.3503 0.0
C1397 C 0.71902 0.92552 0.34349 0.0
C1398 C 0.70332 0.9333 0.34218 0.0
C1399 C 0.68822 0.92492 0.34764 0.0
H1400 H 0.7307 0.93204 0.33926 0.0
H1401 H 0.58556 0.84767 0.39279 0.0
H1402 H 0.70054 0.13561 0.99155 0.0
H1403 H 0.70066 0.10654 0.00177 0.0
H1404 H 0.70783 0.08479 0.9497 0.0
H1405 H 0.70836 0.11402 0.93953 0.0
H1406 H 0.68122 0.07755 0.99516 0.0
H1407 H 0.73203 0.05003 0.95196 0.0
H1408 H 0.75721 0.06058 0.93674 0.0
H1409 H 0.76642 0.10622 0.97343 0.0
H1410 H 0.74144 0.09583 0.98898 0.0
H1411 H 0.68493 0.98953 0.0129 0.0
H1412 H 0.68304 0.01495 0.99618 0.0
H1413 H 0.73487 0.03525 0.01811 0.0
H1414 H 0.73727 0.00943 0.03399 0.0
H1415 H 0.73095 0.04209 0.9858 0.0
H1416 H 0.69715 0.04863 0.03524 0.0
H1417 H 0.67425 0.04007 0.05415 0.0
H1418 H 0.6349 0.04009 0.01126 0.0
H1419 H 0.65761 0.04844 0.99203 0.0
C1420 C 0.70208 0.12464 0.98225 0.0
C1421 C 0.70457 0.12712 0.96476 0.0
C1422 C 0.70209 0.108 0.9881 0.0
C1423 C 0.70447 0.09348 0.97657 0.0
C1424 C 0.70633 0.09584 0.95893 0.0
C1425 C 0.70656 0.11254 0.95312 0.0
C1426 C 0.7054 0.07604 0.98324 0.0
C1427 C 0.69205 0.06976 0.99301 0.0
C1428 C 0.71962 0.06593 0.98065 0.0
C1429 C 0.73474 0.07225 0.97148 0.0
C1430 C 0.73946 0.06229 0.95679 0.0
C1431 C 0.75369 0.06825 0.94811 0.0
C1432 C 0.76337 0.08409 0.95407 0.0
C1433 C 0.75887 0.09399 0.96877 0.0
C1434 C 0.74467 0.08808 0.97751 0.0
C1435 C 0.69608 0.99921 0.01387 0.0
C1436 C 0.71117 0.99754 0.02499 0.0
C1437 C 0.69491 0.01383 0.00443 0.0
C1438 C 0.70868 0.0272 0.00615 0.0
C1439 C 0.72403 0.02518 0.01663 0.0
C1440 C 0.7253 0.01049 0.02589 0.0
C1441 C 0.70686 0.04372 0.99786 0.0
C1442 C 0.72 0.04978 0.98774 0.0
C1443 C 0.69275 0.05393 0.00061 0.0
C1444 C 0.67908 0.04896 0.01216 0.0
C1445 C 0.68362 0.04668 0.02981 0.0
C1446 C 0.67068 0.04189 0.0406 0.0
C1447 C 0.65314 0.03948 0.0339 0.0
C1448 C 0.6485 0.04192 0.01642 0.0
C1449 C 0.66139 0.04669 0.00557 0.0
H1450 H 0.64314 0.03577 0.04227 0.0
H1451 H 0.77437 0.08869 0.94733 0.0
H1452 H 0.31704 0.69248 0.64602 0.0
H1453 H 0.32784 0.66412 0.63891 0.0
H1454 H 0.28309 0.63846 0.65939 0.0
H1455 H 0.27245 0.66678 0.66692 0.0
H1456 H 0.31055 0.62192 0.66722 0.0
H1457 H 0.28616 0.64545 0.6146 0.0
H1458 H 0.28459 0.66667 0.59245 0.0
H1459 H 0.33718 0.65901 0.5813 0.0
H1460 H 0.33912 0.63789 0.60355 0.0
H1461 H 0.28792 0.54215 0.61368 0.0
H1462 H 0.29219 0.56991 0.63216 0.0
H1463 H 0.33977 0.58354 0.60878 0.0
H1464 H 0.33506 0.55617 0.58971 0.0
H1465 H 0.3183 0.60723 0.60472 0.0
H1466 H 0.33843 0.57684 0.65125 0.0
H1467 H 0.34042 0.55578 0.67335 0.0
H1468 H 0.29551 0.57441 0.69554 0.0
H1469 H 0.29315 0.5956 0.67351 0.0
C1470 C 0.30962 0.68081 0.64922 0.0
C1471 C 0.29378 0.68187 0.65686 0.0
C1472 C 0.31583 0.66458 0.64515 0.0
C1473 C 0.30619 0.64909 0.64839 0.0
C1474 C 0.29079 0.6502 0.65676 0.0
C1475 C 0.28466 0.66642 0.66098 0.0
C1476 C 0.31123 0.63166 0.64194 0.0
C1477 C 0.3121 0.61857 0.65353 0.0
C1478 C 0.31409 0.62756 0.62423 0.0
C1479 C 0.31291 0.64037 0.61098 0.0
C1480 C 0.29745 0.64843 0.60756 0.0
C1481 C 0.29648 0.66041 0.59496 0.0
C1482 C 0.31082 0.66426 0.58555 0.0
C1483 C 0.32613 0.65608 0.58867 0.0
C1484 C 0.32717 0.64412 0.60127 0.0
C1485 C 0.29952 0.55091 0.61287 0.0
C1486 C 0.31109 0.54721 0.60024 0.0
C1487 C 0.30201 0.56672 0.62346 0.0
C1488 C 0.31627 0.57888 0.62175 0.0
C1489 C 0.32859 0.57445 0.61013 0.0
C1490 C 0.32594 0.55883 0.59933 0.0
C1491 C 0.31675 0.59711 0.6298 0.0
C1492 C 0.31702 0.61044 0.6185 0.0
C1493 C 0.31478 0.60127 0.64773 0.0
C1494 C 0.31568 0.58798 0.66065 0.0
C1495 C 0.3289 0.57646 0.66075 0.0
C1496 C 0.33011 0.56447 0.67331 0.0
C1497 C 0.31812 0.56376 0.68586 0.0
C1498 C 0.30484 0.57501 0.68584 0.0
C1499 C 0.3036 0.58707 0.67333 0.0
H1500 H 0.3191 0.55449 0.6956 0.0
H1501 H 0.31003 0.67352 0.57579 0.0
H1502 H 0.31722 0.35902 0.06978 0.0
H1503 H 0.30969 0.38888 0.06651 0.0
H1504 H 0.28741 0.37295 0.01377 0.0
H1505 H 0.29473 0.34317 0.01695 0.0
H1506 H 0.32171 0.41072 0.04419 0.0
H1507 H 0.25426 0.39617 0.00283 0.0
H1508 H 0.22801 0.37529 0.00138 0.0
H1509 H 0.23978 0.3667 0.05523 0.0
H1510 H 0.26596 0.38772 0.05709 0.0
H1511 H 0.30426 0.46662 0.97965 0.0
H1512 H 0.30941 0.44368 0.99891 0.0
H1513 H 0.26872 0.46035 0.02985 0.0
H1514 H 0.26345 0.4834 0.01038 0.0
H1515 H 0.2639 0.42587 0.01975 0.0
H1516 H 0.31028 0.46453 0.04822 0.0
H1517 H 0.33619 0.48596 0.05099 0.0
H1518 H 0.36574 0.44775 0.02626 0.0
H1519 H 0.33994 0.42615 0.02309 0.0
C1520 C 0.31049 0.36183 0.05758 0.0
C1521 C 0.30659 0.34873 0.04361 0.0
C1522 C 0.30624 0.37891 0.05573 0.0
C1523 C 0.29786 0.38311 0.03996 0.0
C1524 C 0.29361 0.36995 0.02616 0.0
C1525 C 0.2979 0.35294 0.02797 0.0
C1526 C 0.29467 0.40144 0.03727 0.0
C1527 C 0.30904 0.41412 0.03905 0.0
C1528 C 0.27802 0.40599 0.03103 0.0
C1529 C 0.26214 0.39348 0.03007 0.0
C1530 C 0.2512 0.38992 0.0144 0.0
C1531 C 0.23634 0.37803 0.01349 0.0
C1532 C 0.23225 0.36965 0.02819 0.0
C1533 C 0.24299 0.37317 0.04384 0.0
C1534 C 0.25786 0.38505 0.04482 0.0
C1535 C 0.29666 0.46559 0.99077 0.0
C1536 C 0.28343 0.47668 0.99353 0.0
C1537 C 0.29967 0.45257 0.00183 0.0
C1538 C 0.28952 0.45037 0.01589 0.0
C1539 C 0.27675 0.46189 0.01912 0.0
C1540 C 0.27381 0.47507 0.00809 0.0
C1541 C 0.29114 0.43484 0.0258 0.0
C1542 C 0.27649 0.42264 0.02533 0.0
C1543 C 0.30748 0.43082 0.03345 0.0
C1544 C 0.32312 0.44372 0.03537 0.0
C1545 C 0.32226 0.46072 0.04327 0.0
C1546 C 0.33695 0.4729 0.04493 0.0
C1547 C 0.3526 0.46822 0.0388 0.0
C1548 C 0.35361 0.45135 0.03102 0.0
C1549 C 0.33896 0.43912 0.02932 0.0
H1550 H 0.36395 0.47767 0.04009 0.0
H1551 H 0.22075 0.36045 0.02746 0.0
H1552 H 0.37365 0.68903 0.79851 0.0
H1553 H 0.38691 0.69686 0.82837 0.0
H1554 H 0.35232 0.65697 0.84685 0.0
H1555 H 0.33879 0.64921 0.81705 0.0
H1556 H 0.35521 0.6867 0.86844 0.0
H1557 H 0.39444 0.65005 0.84123 0.0
H1558 H 0.4134 0.64068 0.81868 0.0
H1559 H 0.44558 0.6893 0.82925 0.0
H1560 H 0.42667 0.69906 0.85172 0.0
H1561 H 0.40281 0.67845 0.95024 0.0
H1562 H 0.38725 0.67412 0.92102 0.0
H1563 H 0.42264 0.71412 0.9038 0.0
H1564 H 0.43824 0.71856 0.93303 0.0
H1565 H 0.41916 0.68522 0.88156 0.0
H1566 H 0.38034 0.72134 0.90984 0.0
H1567 H 0.36152 0.73018 0.9327 0.0
H1568 H 0.32864 0.68216 0.92049 0.0
H1569 H 0.34741 0.67291 0.8977 0.0
C1570 C 0.36882 0.68194 0.80892 0.0
C1571 C 0.35523 0.66842 0.80539 0.0
C1572 C 0.37645 0.68641 0.82598 0.0
C1573 C 0.37075 0.67736 0.83981 0.0
C1574 C 0.35694 0.66411 0.83637 0.0
C1575 C 0.34927 0.65965 0.81932 0.0
C1576 C 0.37938 0.6815 0.85779 0.0
C1577 C 0.36916 0.6862 0.87136 0.0
C1578 C 0.39764 0.68119 0.86153 0.0
C1579 C 0.40903 0.67536 0.84802 0.0
C1580 C 0.40548 0.6588 0.83864 0.0
C1581 C 0.41623 0.65341 0.8259 0.0
C1582 C 0.43065 0.66441 0.8225 0.0
C1583 C 0.43438 0.6808 0.83188 0.0
C1584 C 0.42366 0.68627 0.84463 0.0
C1585 C 0.40707 0.68656 0.94032 0.0
C1586 C 0.42177 0.69884 0.94394 0.0
C1587 C 0.39818 0.68405 0.92362 0.0
C1588 C 0.40371 0.69388 0.91025 0.0
C1589 C 0.41818 0.70637 0.91391 0.0
C1590 C 0.42709 0.70886 0.9306 0.0
C1591 C 0.39501 0.69047 0.89223 0.0
C1592 C 0.40522 0.68584 0.87865 0.0
C1593 C 0.37675 0.6908 0.88852 0.0
C1594 C 0.36538 0.69636 0.90216 0.0
C1595 C 0.36918 0.7126 0.91212 0.0
C1596 C 0.3585 0.71769 0.92505 0.0
C1597 C 0.34392 0.70672 0.92807 0.0
C1598 C 0.33995 0.69064 0.91814 0.0
C1599 C 0.3506 0.68547 0.9052 0.0
H1600 H 0.33567 0.71069 0.93809 0.0
H1601 H 0.43897 0.66021 0.81263 0.0
H1602 H 0.95757 0.72226 0.11684 0.0
H1603 H 0.96849 0.72266 0.08801 0.0
H1604 H 0.01374 0.6979 0.1066 0.0
H1605 H 0.00309 0.69778 0.13553 0.0
H1606 H 0.02319 0.72479 0.08944 0.0
H1607 H 0.97998 0.67551 0.07874 0.0
H1608 H 0.95065 0.65988 0.07819 0.0
H1609 H 0.92968 0.69526 0.04356 0.0
H1610 H 0.95886 0.71125 0.04409 0.0
H1611 H 0.0575 0.70478 0.0098 0.0
H1612 H 0.04279 0.70047 0.03615 0.0
H1613 H 0.00091 0.72951 0.017 0.0
H1614 H 0.01563 0.73394 0.99053 0.0
H1615 H 0.98906 0.70073 0.03388 0.0
H1616 H 0.0322 0.75 0.04478 0.0
H1617 H 0.06162 0.76529 0.04488 0.0
H1618 H 0.08266 0.72969 0.07922 0.0
H1619 H 0.05339 0.714 0.07909 0.0
C1620 C 0.96979 0.71679 0.11476 0.0
C1621 C 0.97948 0.71001 0.12849 0.0
C1622 C 0.97598 0.71695 0.09824 0.0
C1623 C 0.99187 0.71016 0.09508 0.0
C1624 C 0.00145 0.70321 0.10873 0.0
C1625 C 0.99533 0.70313 0.12525 0.0
C1626 C 0.99894 0.711 0.07782 0.0
C1627 C 0.0158 0.71929 0.07733 0.0
C1628 C 0.98912 0.70429 0.06195 0.0
C1629 C 0.97157 0.69469 0.0616 0.0
C1630 C 0.96909 0.68005 0.07113 0.0
C1631 C 0.9525 0.67111 0.07079 0.0
C1632 C 0.9383 0.6766 0.06088 0.0
C1633 C 0.94068 0.69103 0.05125 0.0
C1634 C 0.95725 0.70003 0.05155 0.0
C1635 C 0.0451 0.71015 0.01114 0.0
C1636 C 0.03783 0.71991 0.99823 0.0
C1637 C 0.03669 0.70764 0.02617 0.0
C1638 C 0.02092 0.71493 0.02865 0.0
C1639 C 0.0131 0.72382 0.01534 0.0
C1640 C 0.0215 0.72631 0.00024 0.0
C1641 C 0.01332 0.71428 0.04562 0.0
C1642 C 0.9964 0.70616 0.04603 0.0
C1643 C 0.02305 0.72115 0.06147 0.0
C1644 C 0.04062 0.73073 0.06179 0.0
C1645 C 0.04312 0.74536 0.05226 0.0
C1646 C 0.05977 0.7541 0.05233 0.0
C1647 C 0.07401 0.74844 0.06202 0.0
C1648 C 0.07162 0.73405 0.0717 0.0
C1649 C 0.055 0.72523 0.07164 0.0
H1650 H 0.08689 0.75523 0.06206 0.0
H1651 H 0.92547 0.66966 0.06064 0.0
H1652 H 0.65336 0.26866 0.6793 0.0
H1653 H 0.64167 0.27908 0.65213 0.0
H1654 H 0.67959 0.25272 0.62425 0.0
H1655 H 0.69079 0.24152 0.65137 0.0
H1656 H 0.65145 0.29837 0.62886 0.0
H1657 H 0.66193 0.23753 0.58358 0.0
H1658 H 0.66557 0.20617 0.58506 0.0
H1659 H 0.63651 0.2057 0.63014 0.0
H1660 H 0.63254 0.23698 0.62879 0.0
H1661 H 0.61133 0.31389 0.54545 0.0
H1662 H 0.63385 0.30652 0.56735 0.0
H1663 H 0.59961 0.26253 0.57877 0.0
H1664 H 0.57763 0.26925 0.55644 0.0
H1665 H 0.6307 0.25348 0.57992 0.0
H1666 H 0.60373 0.30349 0.60338 0.0
H1667 H 0.59509 0.33359 0.60491 0.0
H1668 H 0.64899 0.35381 0.60772 0.0
H1669 H 0.65794 0.32376 0.60598 0.0
C1670 C 0.65934 0.26522 0.66742 0.0
C1671 C 0.67284 0.25409 0.66742 0.0
C1672 C 0.65269 0.27125 0.65188 0.0
C1673 C 0.65954 0.26648 0.63604 0.0
C1674 C 0.6738 0.25627 0.63621 0.0
C1675 C 0.68024 0.24992 0.65173 0.0
C1676 C 0.65083 0.2712 0.61937 0.0
C1677 C 0.64708 0.28858 0.61807 0.0
C1678 C 0.64492 0.25844 0.60533 0.0
C1679 C 0.64717 0.23963 0.60622 0.0
C1680 C 0.65632 0.23071 0.59379 0.0
C1681 C 0.65843 0.21296 0.59461 0.0
C1682 C 0.65134 0.20397 0.60773 0.0
C1683 C 0.64206 0.21269 0.62003 0.0
C1684 C 0.63989 0.23043 0.61926 0.0
C1685 C 0.60879 0.30245 0.5524 0.0
C1686 C 0.59259 0.29231 0.54942 0.0
C1687 C 0.62159 0.29835 0.56502 0.0
C1688 C 0.61832 0.28414 0.57494 0.0
C1689 C 0.60246 0.27359 0.57136 0.0
C1690 C 0.5898 0.27756 0.55871 0.0
C1691 C 0.63081 0.28052 0.58966 0.0
C1692 C 0.63541 0.26337 0.59052 0.0
C1693 C 0.63683 0.29334 0.60362 0.0
C1694 C 0.63148 0.31139 0.60428 0.0
C1695 C 0.61372 0.31435 0.60413 0.0
C1696 C 0.60877 0.33141 0.60507 0.0
C1697 C 0.62147 0.34562 0.60633 0.0
C1698 C 0.63916 0.34279 0.60667 0.0
C1699 C 0.64418 0.32575 0.6057 0.0
H1700 H 0.61761 0.35881 0.60712 0.0
H1701 H 0.653 0.19023 0.60835 0.0
H1702 H 0.08924 0.33363 0.39823 0.0
H1703 H 0.07219 0.32773 0.42274 0.0
H1704 H 0.04148 0.28552 0.39075 0.0
H1705 H 0.05815 0.29166 0.36608 0.0
H1706 H 0.02094 0.30485 0.40742 0.0
H1707 H 0.0734 0.27846 0.42369 0.0
H1708 H 0.10513 0.27732 0.43019 0.0
H1709 H 0.10589 0.31786 0.47208 0.0
H1710 H 0.07418 0.3194 0.46568 0.0
H1711 H 0.97852 0.2631 0.47107 0.0
H1712 H 0.9997 0.26873 0.44996 0.0
H1713 H 0.02174 0.31518 0.48206 0.0
H1714 H 0.00033 0.30974 0.50326 0.0
H1715 H 0.04706 0.29505 0.46645 0.0
H1716 H 0.99398 0.32057 0.44999 0.0
H1717 H 0.96206 0.32037 0.44372 0.0
H1718 H 0.96259 0.28004 0.40186 0.0
H1719 H 0.99449 0.27979 0.40807 0.0
C1720 C 0.07892 0.32303 0.39645 0.0
C1721 C 0.07503 0.31312 0.38021 0.0
C1722 C 0.06923 0.31962 0.41051 0.0
C1723 C 0.05566 0.30606 0.40866 0.0
C1724 C 0.05188 0.29606 0.39249 0.0
C1725 C 0.06144 0.29956 0.3784 0.0
C1726 C 0.04491 0.30269 0.42331 0.0
C1727 C 0.02668 0.30249 0.42024 0.0
C1728 C 0.05239 0.30007 0.44021 0.0
C1729 C 0.07145 0.29917 0.44408 0.0
C1730 C 0.08036 0.28723 0.4342 0.0
C1731 C 0.09834 0.2865 0.43788 0.0
C1732 C 0.10753 0.29755 0.45151 0.0
C1733 C 0.09875 0.30933 0.46151 0.0
C1734 C 0.08078 0.31013 0.45787 0.0
C1735 C 0.98793 0.27448 0.4737 0.0
C1736 C 0.98758 0.28615 0.48867 0.0
C1737 C 5e-05 0.27762 0.46167 0.0
C1738 C 0.01207 0.2925 0.46435 0.0
C1739 C 0.01251 0.30364 0.47978 0.0
C1740 C 0.00032 0.30051 0.49186 0.0
C1741 C 0.02322 0.29697 0.45037 0.0
C1742 C 0.04143 0.29745 0.4536 0.0
C1743 C 0.01576 0.29974 0.43355 0.0
C1744 C 0.99661 0.30006 0.4296 0.0
C1745 C 0.98727 0.31157 0.43953 0.0
C1746 C 0.96919 0.31155 0.43597 0.0
C1747 C 0.9603 0.30017 0.42242 0.0
C1748 C 0.96949 0.28883 0.41236 0.0
C1749 C 0.98758 0.28878 0.41588 0.0
H1750 H 0.94629 0.30017 0.4197 0.0
H1751 H 0.12145 0.29696 0.45434 0.0
H1752 H 0.24737 0.57309 0.40361 0.0
H1753 H 0.25083 0.55626 0.42908 0.0
H1754 H 0.2938 0.59305 0.45141 0.0
H1755 H 0.29046 0.60991 0.42621 0.0
H1756 H 0.30159 0.55843 0.45056 0.0
H1757 H 0.2552 0.59348 0.46754 0.0
H1758 H 0.226 0.60416 0.46357 0.0
H1759 H 0.20202 0.55162 0.4616 0.0
H1760 H 0.23112 0.5406 0.46533 0.0
H1761 H 0.31826 0.54649 0.53892 0.0
H1762 H 0.31123 0.55622 0.51017 0.0
H1763 H 0.26606 0.51841 0.50171 0.0
H1764 H 0.27255 0.50919 0.53101 0.0
H1765 H 0.25735 0.54866 0.49266 0.0
H1766 H 0.30281 0.51353 0.47915 0.0
H1767 H 0.33162 0.50198 0.48266 0.0
H1768 H 0.35693 0.55266 0.47689 0.0
H1769 H 0.32828 0.5646 0.4736 0.0
C1770 C 0.25741 0.57771 0.41405 0.0
C1771 C 0.26867 0.59283 0.41284 0.0
C1772 C 0.25937 0.56807 0.42857 0.0
C1773 C 0.27262 0.57339 0.44206 0.0
C1774 C 0.28356 0.58868 0.44107 0.0
C1775 C 0.28156 0.59835 0.42667 0.0
C1776 C 0.27563 0.56288 0.45706 0.0
C1777 C 0.29198 0.55636 0.45985 0.0
C1778 C 0.2628 0.55957 0.4687 0.0
C1779 C 0.24533 0.5662 0.46649 0.0
C1780 C 0.24371 0.58419 0.46609 0.0
C1781 C 0.22718 0.59031 0.46393 0.0
C1782 C 0.21217 0.57857 0.46227 0.0
C1783 C 0.21366 0.56069 0.46284 0.0
C1784 C 0.23017 0.55451 0.46499 0.0
C1785 C 0.30682 0.54021 0.53096 0.0
C1786 C 0.2959 0.52714 0.53733 0.0
C1787 C 0.30293 0.54564 0.5144 0.0
C1788 C 0.28822 0.53791 0.50365 0.0
C1789 C 0.27751 0.52453 0.50975 0.0
C1790 C 0.28133 0.51916 0.52643 0.0
C1791 C 0.28359 0.54465 0.48654 0.0
C1792 C 0.26692 0.55043 0.48327 0.0
C1793 C 0.29607 0.54711 0.47431 0.0
C1794 C 0.31337 0.53998 0.47623 0.0
C1795 C 0.31452 0.52225 0.47875 0.0
C1796 C 0.33083 0.51562 0.48068 0.0
C1797 C 0.3461 0.52658 0.48002 0.0
C1798 C 0.34509 0.54419 0.4774 0.0
C1799 C 0.32882 0.55088 0.47547 0.0
H1800 H 0.35871 0.52143 0.48153 0.0
H1801 H 0.19938 0.58333 0.4606 0.0
H1802 H 0.26225 0.41554 0.79183 0.0
H1803 H 0.26759 0.43627 0.81792 0.0
H1804 H 0.23235 0.40371 0.84465 0.0
H1805 H 0.22663 0.38313 0.81853 0.0
H1806 H 0.22578 0.43686 0.84944 0.0
H1807 H 0.27752 0.40559 0.85306 0.0
H1808 H 0.30407 0.39437 0.84238 0.0
H1809 H 0.32554 0.44677 0.83754 0.0
H1810 H 0.29901 0.45829 0.84799 0.0
H1811 H 0.24854 0.46288 0.93856 0.0
H1812 H 0.24346 0.44802 0.9091 0.0
H1813 H 0.2769 0.48845 0.88997 0.0
H1814 H 0.28218 0.50338 0.91967 0.0
H1815 H 0.28489 0.45512 0.87923 0.0
H1816 H 0.23428 0.48643 0.87883 0.0
H1817 H 0.20791 0.49742 0.8901 0.0
H1818 H 0.18434 0.44483 0.88923 0.0
H1819 H 0.21069 0.4335 0.8782 0.0
C1820 C 0.25573 0.41272 0.8033 0.0
C1821 C 0.24401 0.39766 0.80309 0.0
C1822 C 0.25883 0.42458 0.81822 0.0
C1823 C 0.25045 0.4215 0.83328 0.0
C1824 C 0.23891 0.40638 0.83316 0.0
C1825 C 0.23572 0.39459 0.81823 0.0
C1826 C 0.25334 0.43414 0.84911 0.0
C1827 C 0.2387 0.44072 0.85604 0.0
C1828 C 0.27024 0.4397 0.85736 0.0
C1829 C 0.2862 0.43278 0.85111 0.0
C1830 C 0.28785 0.41471 0.84958 0.0
C1831 C 0.3029 0.4083 0.8436 0.0
C1832 C 0.31646 0.41985 0.83923 0.0
C1833 C 0.31502 0.43784 0.84089 0.0
C1834 C 0.29998 0.44432 0.84686 0.0
C1835 C 0.25472 0.46866 0.92805 0.0
C1836 C 0.2658 0.48423 0.93137 0.0
C1837 C 0.25173 0.46023 0.91122 0.0
C1838 C 0.25972 0.46719 0.89734 0.0
C1839 C 0.27058 0.48291 0.90052 0.0
C1840 C 0.27349 0.49146 0.91741 0.0
C1841 C 0.2573 0.45743 0.87978 0.0
C1842 C 0.272 0.45142 0.8725 0.0
C1843 C 0.24045 0.45235 0.87122 0.0
C1844 C 0.22453 0.45911 0.87779 0.0
C1845 C 0.22353 0.47719 0.88116 0.0
C1846 C 0.20857 0.48349 0.88749 0.0
C1847 C 0.19447 0.47183 0.89041 0.0
C1848 C 0.19528 0.45385 0.88697 0.0
C1849 C 0.21022 0.44748 0.88066 0.0
H1850 H 0.1829 0.47673 0.8953 0.0
H1851 H 0.32811 0.41486 0.8346 0.0
H1852 H 0.68405 0.00026 0.60556 0.0
H1853 H 0.67975 0.00191 0.57406 0.0
H1854 H 0.71453 0.9616 0.56596 0.0
H1855 H 0.71919 0.96008 0.59754 0.0
H1856 H 0.72237 0.98834 0.54733 0.0
H1857 H 0.67011 0.95323 0.55643 0.0
H1858 H 0.64304 0.9458 0.57014 0.0
H1859 H 0.62193 0.99194 0.55316 0.0
H1860 H 0.64899 0.99977 0.53954 0.0
H1861 H 0.7029 0.97118 0.45565 0.0
H1862 H 0.70657 0.96922 0.48716 0.0
H1863 H 0.6722 0.00995 0.49497 0.0
H1864 H 0.66798 0.01157 0.46334 0.0
H1865 H 0.66407 0.9831 0.51374 0.0
H1866 H 0.71631 0.01817 0.50461 0.0
H1867 H 0.74341 0.02563 0.49095 0.0
H1868 H 0.76457 0.97956 0.50806 0.0
H1869 H 0.73749 0.97169 0.52162 0.0
C1870 C 0.69067 0.99163 0.5971 0.0
C1871 C 0.70197 0.98005 0.60409 0.0
C1872 C 0.68816 0.99254 0.57907 0.0
C1873 C 0.69671 0.98177 0.56764 0.0
C1874 C 0.70781 0.97003 0.57455 0.0
C1875 C 0.71039 0.96915 0.5926 0.0
C1876 C 0.69461 0.98324 0.54853 0.0
C1877 C 0.70964 0.98693 0.53993 0.0
C1878 C 0.67797 0.98188 0.53898 0.0
C1879 C 0.66165 0.97717 0.5471 0.0
C1880 C 0.65976 0.96186 0.55573 0.0
C1881 C 0.6444 0.95757 0.56347 0.0
C1882 C 0.63079 0.96842 0.56256 0.0
C1883 C 0.63249 0.98356 0.55387 0.0
C1884 C 0.64783 0.98793 0.54612 0.0
C1885 C 0.69607 0.97968 0.46406 0.0
C1886 C 0.68511 0.99151 0.45699 0.0
C1887 C 0.69831 0.97866 0.48209 0.0
C1888 C 0.68978 0.98955 0.49343 0.0
C1889 C 0.67894 0.00146 0.48644 0.0
C1890 C 0.67666 0.00247 0.46839 0.0
C1891 C 0.69183 0.98816 0.51255 0.0
C1892 C 0.6768 0.9845 0.52115 0.0
C1893 C 0.70847 0.98954 0.5221 0.0
C1894 C 0.72479 0.99426 0.51399 0.0
C1895 C 0.72668 0.00955 0.50534 0.0
C1896 C 0.74205 0.01387 0.49764 0.0
C1897 C 0.75569 0.00305 0.4986 0.0
C1898 C 0.75399 0.98792 0.50731 0.0
C1899 C 0.73864 0.98353 0.51502 0.0
H1900 H 0.76758 0.00642 0.49264 0.0
H1901 H 0.61891 0.96507 0.56856 0.0
H1902 H 0.77091 0.023 0.22583 0.0
H1903 H 0.76252 0.02029 0.19441 0.0
H1904 H 0.78636 0.97176 0.18886 0.0
H1905 H 0.79506 0.97447 0.22028 0.0
H1906 H 0.79103 0.99129 0.16103 0.0
H1907 H 0.74371 0.97092 0.19332 0.0
H1908 H 0.72335 0.97358 0.21619 0.0
H1909 H 0.70268 0.01714 0.19309 0.0
H1910 H 0.72314 0.01491 0.17023 0.0
H1911 H 0.74265 0.95295 0.08236 0.0
H1912 H 0.75597 0.95902 0.11247 0.0
H1913 H 0.72986 0.00623 0.11798 0.0
H1914 H 0.71608 -5e-05 0.08813 0.0
H1915 H 0.72692 0.98812 0.14571 0.0
H1916 H 0.77341 0.00777 0.11258 0.0
H1917 H 0.79404 0.00534 0.08994 0.0
H1918 H 0.81626 0.96329 0.11438 0.0
H1919 H 0.79559 0.9653 0.13704 0.0
C1920 C 0.77467 0.01191 0.21791 0.0
C1921 C 0.78344 0.99882 0.22561 0.0
C1922 C 0.76982 0.01036 0.19995 0.0
C1923 C 0.77351 0.99565 0.18939 0.0
C1924 C 0.78331 0.98318 0.19681 0.0
C1925 C 0.78823 0.98473 0.21479 0.0
C1926 C 0.76587 0.99253 0.17098 0.0
C1927 C 0.77702 0.99043 0.15765 0.0
C1928 C 0.74759 0.99168 0.16661 0.0
C1929 C 0.73507 0.99286 0.18017 0.0
C1930 C 0.7349 0.98114 0.19319 0.0
C1931 C 0.72334 0.98256 0.20614 0.0
C1932 C 0.71176 0.99555 0.20612 0.0
C1933 C 0.71168 0.0071 0.19311 0.0
C1934 C 0.72325 0.00576 0.18014 0.0
C1935 C 0.73965 0.96455 0.09004 0.0
C1936 C 0.72835 0.97599 0.08286 0.0
C1937 C 0.74742 0.96811 0.10717 0.0
C1938 C 0.74408 0.9832 0.11739 0.0
C1939 C 0.73268 0.99456 0.1103 0.0
C1940 C 0.72492 0.99101 0.0932 0.0
C1941 C 0.75207 0.98694 0.13565 0.0
C1942 C 0.74096 0.98908 0.14901 0.0
C1943 C 0.77036 0.9878 0.14 0.0
C1944 C 0.78284 0.98658 0.12641 0.0
C1945 C 0.7826 0.99791 0.11305 0.0
C1946 C 0.79432 0.99662 0.10023 0.0
C1947 C 0.80642 0.98413 0.1007 0.0
C1948 C 0.80686 0.97294 0.11402 0.0
C1949 C 0.79516 0.97416 0.12687 0.0
H1950 H 0.81548 0.98316 0.09076 0.0
H1951 H 0.70283 0.99664 0.21617 0.0
H1952 H 0.41823 0.28606 0.62273 0.0
H1953 H 0.44436 0.29095 0.60736 0.0
H1954 H 0.41665 0.26548 0.55981 0.0
H1955 H 0.39045 0.26034 0.57512 0.0
H1956 H 0.44991 0.25599 0.56454 0.0
H1957 H 0.42211 0.30914 0.56528 0.0
H1958 H 0.40843 0.33414 0.57862 0.0
H1959 H 0.4562 0.351 0.6106 0.0
H1960 H 0.4701 0.32594 0.59763 0.0
H1961 H 0.51661 0.28636 0.51289 0.0
H1962 H 0.48772 0.28178 0.5237 0.0
H1963 H 0.50851 0.3071 0.57412 0.0
H1964 H 0.53715 0.31216 0.56327 0.0
H1965 H 0.47682 0.31684 0.56507 0.0
H1966 H 0.50375 0.26247 0.56608 0.0
H1967 H 0.51744 0.2373 0.55309 0.0
H1968 H 0.47129 0.22272 0.51793 0.0
H1969 H 0.45741 0.24797 0.53056 0.0
C1970 C 0.41771 0.28134 0.60904 0.0
C1971 C 0.4022 0.27292 0.60013 0.0
C1972 C 0.43263 0.28424 0.60026 0.0
C1973 C 0.43233 0.27886 0.58237 0.0
C1974 C 0.41712 0.26982 0.57359 0.0
C1975 C 0.40216 0.26691 0.58237 0.0
C1976 C 0.44781 0.28304 0.57283 0.0
C1977 C 0.45565 0.26931 0.5644 0.0
C1978 C 0.45538 0.30042 0.57283 0.0
C1979 C 0.4471 0.31558 0.58058 0.0
C1980 C 0.42966 0.31811 0.57525 0.0
C1981 C 0.42188 0.3323 0.58273 0.0
C1982 C 0.43143 0.34413 0.59548 0.0
C1983 C 0.44881 0.34181 0.60074 0.0
C1984 C 0.45665 0.32763 0.59331 0.0
C1985 C 0.51491 0.29121 0.52618 0.0
C1986 C 0.52917 0.29945 0.5373 0.0
C1987 C 0.49846 0.28845 0.53238 0.0
C1988 C 0.49605 0.29385 0.5498 0.0
C1989 C 0.51009 0.30275 0.56066 0.0
C1990 C 0.52648 0.30551 0.55449 0.0
C1991 C 0.47914 0.28976 0.55707 0.0
C1992 C 0.471 0.30353 0.56505 0.0
C1993 C 0.47132 0.27242 0.55667 0.0
C1994 C 0.47963 0.25721 0.54912 0.0
C1995 C 0.49658 0.25398 0.55548 0.0
C1996 C 0.50436 0.23969 0.5482 0.0
C1997 C 0.49526 0.22845 0.53466 0.0
C1998 C 0.47834 0.23146 0.5284 0.0
C1999 C 0.4705 0.24575 0.53562 0.0
H2000 H 0.50131 0.21739 0.52904 0.0
H2001 H 0.42538 0.35511 0.60125 0.0
H2002 H 0.22931 0.77276 0.0455 0.0
H2003 H 0.20131 0.75998 0.0306 0.0
H2004 H 0.20647 0.79555 0.99063 0.0
H2005 H 0.23427 0.8086 0.00578 0.0
H2006 H 0.17616 0.79634 0.00078 0.0
H2007 H 0.20934 0.74967 0.9827 0.0
H2008 H 0.2294 0.72658 0.98552 0.0
H2009 H 0.19541 0.70067 0.01847 0.0
H2010 H 0.17519 0.72365 0.01595 0.0
H2011 H 0.10308 0.72653 0.95458 0.0
H2012 H 0.13408 0.73685 0.96143 0.0
H2013 H 0.12146 0.7677 0.00719 0.0
H2014 H 0.09055 0.75799 0.00012 0.0
H2015 H 0.15657 0.73317 0.98907 0.0
H2016 H 0.14768 0.80486 0.01416 0.0
H2017 H 0.12774 0.82744 0.00811 0.0
H2018 H 0.11467 0.80334 0.95584 0.0
H2019 H 0.1347 0.78076 0.9615 0.0
C2020 C 0.22468 0.77751 0.03329 0.0
C2021 C 0.23403 0.7915 0.02666 0.0
C2022 C 0.20866 0.77021 0.02476 0.0
C2023 C 0.20183 0.77663 0.00933 0.0
C2024 C 0.21143 0.79035 0.0025 0.0
C2025 C 0.22731 0.79779 0.01114 0.0
C2026 C 0.18401 0.77018 0.00121 0.0
C2027 C 0.17197 0.78252 0.99811 0.0
C2028 C 0.17851 0.75215 0.99743 0.0
C2029 C 0.1908 0.73847 0.99923 0.0
C2030 C 0.20622 0.73914 0.99067 0.0
C2031 C 0.2176 0.72604 0.99219 0.0
C2032 C 0.2137 0.71221 0.00222 0.0
C2033 C 0.19841 0.71142 0.01074 0.0
C2034 C 0.18697 0.72444 0.00923 0.0
C2035 C 0.10691 0.7357 0.96596 0.0
C2036 C 0.09436 0.74146 0.9768 0.0
C2037 C 0.12463 0.74146 0.96994 0.0
C2038 C 0.13006 0.75315 0.98473 0.0
C2039 C 0.11755 0.75886 0.99558 0.0
C2040 C 0.0999 0.75316 0.9916 0.0
C2041 C 0.1488 0.75934 0.98909 0.0
C2042 C 0.16093 0.74698 0.99154 0.0
C2043 C 0.15452 0.77735 0.99191 0.0
C2044 C 0.1426 0.79103 0.98832 0.0
C2045 C 0.14062 0.80442 0.00135 0.0
C2046 C 0.12929 0.81722 0.99799 0.0
C2047 C 0.11991 0.8168 0.98162 0.0
C2048 C 0.12189 0.80361 0.96854 0.0
C2049 C 0.13322 0.7908 0.97182 0.0
H2050 H 0.11113 0.8267 0.97905 0.0
H2051 H 0.22245 0.70204 0.00333 0.0
H2052 H 0.7906 0.26892 0.41262 0.0
H2053 H 0.81376 0.2737 0.4367 0.0
H2054 H 0.84503 0.23946 0.40822 0.0
H2055 H 0.82191 0.23442 0.38421 0.0
H2056 H 0.8446 0.23255 0.44224 0.0
H2057 H 0.85322 0.28382 0.4102 0.0
H2058 H 0.84366 0.31004 0.39734 0.0
H2059 H 0.83264 0.33184 0.4479 0.0
H2060 H 0.84195 0.30564 0.46102 0.0
H2061 H 0.93171 0.25307 0.47545 0.0
H2062 H 0.90309 0.24789 0.45897 0.0
H2063 H 0.88296 0.28597 0.49438 0.0
H2064 H 0.91194 0.29163 0.51071 0.0
H2065 H 0.87425 0.29156 0.46125 0.0
H2066 H 0.8696 0.2425 0.49414 0.0
H2067 H 0.87868 0.21632 0.50737 0.0
H2068 H 0.88139 0.19026 0.45635 0.0
H2069 H 0.87258 0.21637 0.44279 0.0
C2070 C 0.80243 0.26244 0.41145 0.0
C2071 C 0.80443 0.25131 0.39645 0.0
C2072 C 0.81565 0.26521 0.42522 0.0
C2073 C 0.83114 0.257 0.4242 0.0
C2074 C 0.83315 0.24588 0.40929 0.0
C2075 C 0.81995 0.24309 0.39553 0.0
C2076 C 0.84539 0.25996 0.43858 0.0
C2077 C 0.85118 0.24543 0.44634 0.0
C2078 C 0.85345 0.27686 0.44441 0.0
C2079 C 0.84809 0.2927 0.43655 0.0
C2080 C 0.84865 0.29416 0.41855 0.0
C2081 C 0.84329 0.30902 0.41122 0.0
C2082 C 0.83749 0.32257 0.42179 0.0
C2083 C 0.83711 0.32132 0.43972 0.0
C2084 C 0.84244 0.30648 0.44712 0.0
C2085 C 0.92117 0.26028 0.4798 0.0
C2086 C 0.92408 0.27284 0.4943 0.0
C2087 C 0.90476 0.25718 0.47048 0.0
C2088 C 0.89082 0.26642 0.47554 0.0
C2089 C 0.89353 0.27865 0.4903 0.0
C2090 C 0.91002 0.28177 0.49968 0.0
C2091 C 0.87389 0.26405 0.46454 0.0
C2092 C 0.86753 0.2787 0.45741 0.0
C2093 C 0.86523 0.24725 0.45937 0.0
C2094 C 0.87051 0.23146 0.46745 0.0
C2095 C 0.87225 0.23123 0.48573 0.0
C2096 C 0.87733 0.21639 0.4933 0.0
C2097 C 0.88063 0.20164 0.48271 0.0
C2098 C 0.87883 0.20169 0.46454 0.0
C2099 C 0.87376 0.21651 0.4569 0.0
H2100 H 0.88456 0.19016 0.48859 0.0
H2101 H 0.83332 0.33406 0.41608 0.0
H2102 H 0.61224 0.70463 0.92876 0.0
H2103 H 0.58583 0.71163 0.94222 0.0
H2104 H 0.58833 0.66627 0.97119 0.0
H2105 H 0.6146 0.65909 0.95746 0.0
H2106 H 0.55755 0.66615 0.95607 0.0
H2107 H 0.59572 0.70986 0.99126 0.0
H2108 H 0.61798 0.73496 0.99826 0.0
H2109 H 0.58556 0.76721 0.96944 0.0
H2110 H 0.56316 0.74228 0.96211 0.0
H2111 H 0.48208 0.68322 0.99749 0.0
H2112 H 0.51342 0.68149 0.99542 0.0
H2113 H 0.51342 0.72079 0.95881 0.0
H2114 H 0.48219 0.72282 0.96109 0.0
H2115 H 0.54394 0.72412 0.98158 0.0
H2116 H 0.50801 0.67921 0.94363 0.0
H2117 H 0.48531 0.65442 0.93738 0.0
H2118 H 0.51429 0.62454 0.97226 0.0
H2119 H 0.53705 0.64927 0.9789 0.0
C2120 C 0.60743 0.69645 0.93837 0.0
C2121 C 0.61558 0.68145 0.94225 0.0
C2122 C 0.59231 0.70045 0.94607 0.0
C2123 C 0.58518 0.68963 0.95795 0.0
C2124 C 0.59359 0.67485 0.96212 0.0
C2125 C 0.60857 0.67074 0.95426 0.0
C2126 C 0.56802 0.69264 0.96456 0.0
C2127 C 0.55477 0.67875 0.96203 0.0
C2128 C 0.56416 0.70919 0.97194 0.0
C2129 C 0.57779 0.72413 0.97602 0.0
C2130 C 0.5934 0.72225 0.98626 0.0
C2131 C 0.60602 0.73647 0.99033 0.0
C2132 C 0.60319 0.75265 0.98427 0.0
C2133 C 0.58773 0.75466 0.97412 0.0
C2134 C 0.57505 0.7405 0.97003 0.0
C2135 C 0.48885 0.69179 0.98934 0.0
C2136 C 0.47965 0.70299 0.97927 0.0
C2137 C 0.50673 0.69074 0.98811 0.0
C2138 C 0.51567 0.70085 0.97679 0.0
C2139 C 0.50676 0.71285 0.9676 0.0
C2140 C 0.4889 0.71387 0.96878 0.0
C2141 C 0.53373 0.69766 0.97304 0.0
C2142 C 0.54699 0.71149 0.97595 0.0
C2143 C 0.5377 0.68107 0.96604 0.0
C2144 C 0.52412 0.66615 0.96191 0.0
C2145 C 0.50948 0.6674 0.95006 0.0
C2146 C 0.49661 0.65336 0.94643 0.0
C2147 C 0.49833 0.63793 0.95445 0.0
C2148 C 0.51296 0.63651 0.96608 0.0
C2149 C 0.52585 0.65053 0.96978 0.0
H2150 H 0.48836 0.62708 0.95163 0.0
H2151 H 0.61293 0.76366 0.98748 0.0
H2152 H 0.62312 0.42196 0.28852 0.0
H2153 H 0.60096 0.43933 0.29995 0.0
H2154 H 0.57058 0.43108 0.2498 0.0
H2155 H 0.59297 0.4137 0.23827 0.0
H2156 H 0.57313 0.46353 0.26017 0.0
H2157 H 0.55624 0.41299 0.28735 0.0
H2158 H 0.55796 0.38758 0.30459 0.0
H2159 H 0.57795 0.42145 0.35022 0.0
H2160 H 0.57663 0.44707 0.33324 0.0
H2161 H 0.51777 0.52172 0.29928 0.0
H2162 H 0.52529 0.49349 0.28629 0.0
H2163 H 0.5667 0.49327 0.32757 0.0
H2164 H 0.55888 0.52099 0.34086 0.0
H2165 H 0.55121 0.46085 0.31859 0.0
H2166 H 0.57274 0.51053 0.28778 0.0
H2167 H 0.56832 0.53539 0.27021 0.0
H2168 H 0.53725 0.50119 0.23043 0.0
H2169 H 0.54119 0.47619 0.24788 0.0
C2170 C 0.61145 0.42336 0.28009 0.0
C2171 C 0.60956 0.41616 0.26262 0.0
C2172 C 0.59876 0.43333 0.28663 0.0
C2173 C 0.58385 0.43624 0.27587 0.0
C2174 C 0.58188 0.42891 0.25841 0.0
C2175 C 0.59467 0.41902 0.25183 0.0
C2176 C 0.57144 0.44846 0.28239 0.0
C2177 C 0.56798 0.46265 0.27276 0.0
C2178 C 0.56473 0.44745 0.29886 0.0
C2179 C 0.56636 0.43199 0.30897 0.0
C2180 C 0.5612 0.41503 0.301 0.0
C2181 C 0.56206 0.40058 0.31075 0.0
C2182 C 0.56798 0.40293 0.32849 0.0
C2183 C 0.5733 0.41968 0.33648 0.0
C2184 C 0.57248 0.43417 0.32681 0.0
C2185 C 0.52817 0.51539 0.3058 0.0
C2186 C 0.53793 0.52367 0.32093 0.0
C2187 C 0.53253 0.49934 0.29831 0.0
C2188 C 0.54678 0.49144 0.30578 0.0
C2189 C 0.55572 0.49914 0.32152 0.0
C2190 C 0.55134 0.51507 0.32902 0.0
C2191 C 0.55363 0.47608 0.29668 0.0
C2192 C 0.55604 0.46137 0.30582 0.0
C2193 C 0.55925 0.47649 0.2797 0.0
C2194 C 0.55708 0.49155 0.26922 0.0
C2195 C 0.56488 0.50834 0.27534 0.0
C2196 C 0.56247 0.52245 0.26541 0.0
C2197 C 0.5525 0.51987 0.24925 0.0
C2198 C 0.54494 0.50318 0.24297 0.0
C2199 C 0.54723 0.48904 0.25287 0.0
H2200 H 0.55067 0.53081 0.24159 0.0
H2201 H 0.56837 0.39179 0.33608 0.0
H2202 H 0.00853 0.24103 0.8248 0.0
H2203 H 0.99792 0.21145 0.81224 0.0
H2204 H 0.03237 0.21625 0.77127 0.0
H2205 H 0.04252 0.24608 0.78349 0.0
H2206 H 0.00342 0.19939 0.75792 0.0
H2207 H 0.04251 0.19423 0.80856 0.0
H2208 H 0.05397 0.19946 0.83958 0.0
H2209 H 0.00582 0.17581 0.8548 0.0
H2210 H 0.994 0.17063 0.82386 0.0
H2211 H 0.00994 0.0996 0.76451 0.0
H2212 H 0.01794 0.13011 0.77517 0.0
H2213 H 0.9688 0.14392 0.75164 0.0
H2214 H 0.96113 0.11349 0.74001 0.0
H2215 H 0.0053 0.1515 0.79693 0.0
H2216 H 0.97365 0.18536 0.73944 0.0
H2217 H 0.96624 0.1796 0.70759 0.0
H2218 H 0.00664 0.14471 0.70453 0.0
H2219 H 0.01444 0.15044 0.7363 0.0
C2220 C 0.01368 0.2358 0.81301 0.0
C2221 C 0.02623 0.24584 0.80502 0.0
C2222 C 0.00769 0.21887 0.80589 0.0
C2223 C 0.01456 0.21146 0.79097 0.0
C2224 C 0.02683 0.22167 0.78275 0.0
C2225 C 0.03258 0.23873 0.7897 0.0
C2226 C 0.00942 0.19292 0.78427 0.0
C2227 C 0.00379 0.18893 0.76647 0.0
C2228 C 0.01022 0.17917 0.7953 0.0
C2229 C 0.01731 0.1822 0.81391 0.0
C2230 C 0.03433 0.19025 0.81853 0.0
C2231 C 0.04089 0.19319 0.8361 0.0
C2232 C 0.03061 0.18801 0.84916 0.0
C2233 C 0.01376 0.17984 0.84467 0.0
C2234 C 0.00713 0.17688 0.82713 0.0
C2235 C 0.00091 0.10914 0.76136 0.0
C2236 C 0.98496 0.10408 0.75122 0.0
C2237 C 0.00543 0.12658 0.76765 0.0
C2238 C 0.99408 0.13938 0.76406 0.0
C2239 C 0.97793 0.13434 0.75433 0.0
C2240 C 0.97346 0.11688 0.74787 0.0
C2241 C 0.99924 0.15796 0.77059 0.0
C2242 C 0.00483 0.16196 0.78839 0.0
C2243 C 0.99897 0.17162 0.75942 0.0
C2244 C 0.99448 0.16819 0.74028 0.0
C2245 C 0.98098 0.1765 0.73196 0.0
C2246 C 0.97671 0.17324 0.71392 0.0
C2247 C 0.98592 0.16174 0.70405 0.0
C2248 C 0.99947 0.15355 0.7122 0.0
C2249 C 0.0038 0.15679 0.73022 0.0
H2250 H 0.98259 0.15923 0.6901 0.0
H2251 H 0.03572 0.1903 0.86275 0.0
H2252 H 0.41743 0.77398 0.26636 0.0
H2253 H 0.4393 0.79847 0.27617 0.0
H2254 H 0.40978 0.83239 0.24593 0.0
H2255 H 0.38793 0.808 0.23595 0.0
H2256 H 0.44438 0.8355 0.24058 0.0
H2257 H 0.40963 0.83448 0.28996 0.0
H2258 H 0.39594 0.82092 0.31387 0.0
H2259 H 0.44639 0.81051 0.33652 0.0
H2260 H 0.46037 0.82382 0.31259 0.0
H2261 H 0.47515 0.92074 0.27342 0.0
H2262 H 0.45871 0.89256 0.26463 0.0
H2263 H 0.49378 0.86777 0.29927 0.0
H2264 H 0.51012 0.89628 0.30857 0.0
H2265 H 0.46003 0.85735 0.3028 0.0
H2266 H 0.49521 0.86113 0.2554 0.0
H2267 H 0.50918 0.87473 0.23168 0.0
H2268 H 0.45873 0.87951 0.20526 0.0
H2269 H 0.44444 0.86617 0.22896 0.0
C2270 C 0.41551 0.78668 0.26189 0.0
C2271 C 0.40092 0.78903 0.25035 0.0
C2272 C 0.42802 0.80066 0.26754 0.0
C2273 C 0.42614 0.81724 0.2618 0.0
C2274 C 0.4115 0.81967 0.25046 0.0
C2275 C 0.39898 0.80573 0.24484 0.0
C2276 C 0.43958 0.83205 0.26723 0.0
C2277 C 0.44771 0.84038 0.25418 0.0
C2278 C 0.44441 0.83794 0.285 0.0
C2279 C 0.43602 0.82995 0.29938 0.0
C2280 C 0.41779 0.82916 0.29995 0.0
C2281 C 0.40998 0.82155 0.31353 0.0
C2282 C 0.42028 0.81481 0.32668 0.0
C2283 C 0.43842 0.81571 0.3263 0.0
C2284 C 0.44629 0.82329 0.31275 0.0
C2285 C 0.47937 0.90931 0.2792 0.0
C2286 C 0.49383 0.91074 0.29181 0.0
C2287 C 0.47007 0.89317 0.27402 0.0
C2288 C 0.47512 0.87802 0.28116 0.0
C2289 C 0.48971 0.87931 0.29356 0.0
C2290 C 0.49908 0.89554 0.29878 0.0
C2291 C 0.46449 0.86112 0.27612 0.0
C2292 C 0.45691 0.85234 0.28922 0.0
C2293 C 0.46022 0.85475 0.25838 0.0
C2294 C 0.46875 0.86273 0.24403 0.0
C2295 C 0.48708 0.86519 0.2446 0.0
C2296 C 0.49506 0.87284 0.23114 0.0
C2297 C 0.48485 0.878 0.21699 0.0
C2298 C 0.46663 0.8755 0.21624 0.0
C2299 C 0.45858 0.86787 0.22967 0.0
H2300 H 0.49105 0.88392 0.20658 0.0
H2301 H 0.41421 0.80892 0.33718 0.0
H2302 H 0.96831 0.59119 0.68476 0.0
H2303 H 0.96635 0.55956 0.67751 0.0
H2304 H 0.01618 0.55743 0.70694 0.0
H2305 H 0.01848 0.58907 0.71377 0.0
H2306 H 0.01482 0.53729 0.67785 0.0
H2307 H 0.97665 0.54503 0.72325 0.0
H2308 H 0.95238 0.55697 0.73779 0.0
H2309 H 0.91598 0.53453 0.69489 0.0
H2310 H 0.94008 0.52265 0.67998 0.0
H2311 H 0.00644 0.4459 0.6894 0.0
H2312 H 0.00963 0.47786 0.69343 0.0
H2313 H 0.96292 0.47933 0.6588 0.0
H2314 H 0.95983 0.44742 0.65441 0.0
H2315 H 0.96259 0.49965 0.68985 0.0
H2316 H 0.00182 0.49086 0.64528 0.0
H2317 H 0.02662 0.47848 0.63208 0.0
H2318 H 0.06173 0.50243 0.67533 0.0
H2319 H 0.03709 0.51476 0.68893 0.0
C2320 C 0.97884 0.58398 0.68969 0.0
C2321 C 0.99351 0.59263 0.6999 0.0
C2322 C 0.97768 0.56588 0.68559 0.0
C2323 C 0.99101 0.55606 0.69188 0.0
C2324 C 0.00574 0.56472 0.70193 0.0
C2325 C 0.007 0.58281 0.70586 0.0
C2326 C 0.98963 0.53676 0.68807 0.0
C2327 C 0.00348 0.52905 0.68067 0.0
C2328 C 0.97472 0.526 0.69147 0.0
C2329 C 0.9602 0.53311 0.70042 0.0
C2330 C 0.96349 0.54276 0.71686 0.0
C2331 C 0.94976 0.54949 0.72518 0.0
C2332 C 0.93266 0.54655 0.71725 0.0
C2333 C 0.92924 0.53682 0.701 0.0
C2334 C 0.94293 0.53007 0.69262 0.0
C2335 C 0.99704 0.45302 0.68237 0.0
C2336 C 0.98284 0.4441 0.67163 0.0
C2337 C 0.99884 0.47128 0.68474 0.0
C2338 C 0.98651 0.48094 0.67638 0.0
C2339 C 0.97252 0.4721 0.66542 0.0
C2340 C 0.97075 0.45387 0.66298 0.0
C2341 C 0.98776 0.50024 0.67966 0.0
C2342 C 0.97389 0.50792 0.68698 0.0
C2343 C 0.00274 0.51093 0.6764 0.0
C2344 C 0.01758 0.50359 0.6682 0.0
C2345 C 0.01481 0.49337 0.65205 0.0
C2346 C 0.02884 0.48638 0.64448 0.0
C2347 C 0.04573 0.48963 0.65288 0.0
C2348 C 0.04863 0.49991 0.66885 0.0
C2349 C 0.03464 0.50691 0.67648 0.0
H2350 H 0.05658 0.48421 0.647 0.0
H2351 H 0.92205 0.55178 0.72372 0.0
H2352 H 0.71263 0.35531 0.59087 0.0
H2353 H 0.7052 0.37063 0.56516 0.0
H2354 H 0.70775 0.41924 0.59788 0.0
H2355 H 0.71438 0.40371 0.62373 0.0
H2356 H 0.68255 0.41928 0.574 0.0
H2357 H 0.74197 0.40772 0.5728 0.0
H2358 H 0.76743 0.3904 0.57371 0.0
H2359 H 0.74502 0.35864 0.5275 0.0
H2360 H 0.71929 0.37562 0.52644 0.0
H2361 H 0.70021 0.4674 0.49742 0.0
H2362 H 0.70295 0.45569 0.52601 0.0
H2363 H 0.679 0.40568 0.50272 0.0
H2364 H 0.67532 0.4174 0.47435 0.0
H2365 H 0.7161 0.4089 0.52258 0.0
H2366 H 0.65572 0.42249 0.52583 0.0
H2367 H 0.63253 0.44264 0.52559 0.0
H2368 H 0.66058 0.47452 0.56909 0.0
H2369 H 0.68407 0.45468 0.56941 0.0
C2370 C 0.71145 0.36924 0.59255 0.0
C2371 C 0.714 0.37834 0.60923 0.0
C2372 C 0.70733 0.37802 0.57786 0.0
C2373 C 0.70631 0.3962 0.57948 0.0
C2374 C 0.70847 0.40524 0.59625 0.0
C2375 C 0.71222 0.39636 0.61101 0.0
C2376 C 0.70334 0.40573 0.56365 0.0
C2377 C 0.69007 0.41715 0.56287 0.0
C2378 C 0.71317 0.40311 0.54908 0.0
C2379 C 0.72863 0.39285 0.54964 0.0
C2380 C 0.74241 0.39696 0.5629 0.0
C2381 C 0.7569 0.38722 0.56343 0.0
C2382 C 0.75782 0.3734 0.55069 0.0
C2383 C 0.74427 0.36933 0.53737 0.0
C2384 C 0.72974 0.37902 0.53679 0.0
C2385 C 0.69505 0.45407 0.49845 0.0
C2386 C 0.68775 0.44329 0.4835 0.0
C2387 C 0.69673 0.44738 0.51477 0.0
C2388 C 0.69127 0.42983 0.51636 0.0
C2389 C 0.68336 0.41925 0.50167 0.0
C2390 C 0.68141 0.42596 0.48546 0.0
C2391 C 0.69513 0.42196 0.5329 0.0
C2392 C 0.70868 0.41098 0.5338 0.0
C2393 C 0.6859 0.42537 0.54768 0.0
C2394 C 0.67175 0.43723 0.5475 0.0
C2395 C 0.65704 0.4339 0.53522 0.0
C2396 C 0.64381 0.44524 0.5351 0.0
C2397 C 0.64511 0.45988 0.54728 0.0
C2398 C 0.65961 0.46319 0.55964 0.0
C2399 C 0.67287 0.4519 0.5598 0.0
H2400 H 0.63486 0.46864 0.54716 0.0
H2401 H 0.76905 0.36587 0.55113 0.0
H2402 H 0.72329 0.62508 0.214 0.0
H2403 H 0.7206 0.60158 0.19027 0.0
H2404 H 0.76088 0.57613 0.2177 0.0
H2405 H 0.76309 0.59917 0.24181 0.0
H2406 H 0.76554 0.57878 0.18199 0.0
H2407 H 0.72109 0.55912 0.21735 0.0
H2408 H 0.69542 0.5617 0.23408 0.0
H2409 H 0.66444 0.5715 0.1876 0.0
H2410 H 0.69 0.56924 0.17063 0.0
H2411 H 0.75221 0.50558 0.1183 0.0
H2412 H 0.75494 0.52238 0.14698 0.0
H2413 H 0.71046 0.54955 0.13091 0.0
H2414 H 0.70716 0.53228 0.10269 0.0
H2415 H 0.70928 0.54326 0.16354 0.0
H2416 H 0.75357 0.56688 0.12909 0.0
H2417 H 0.77896 0.56573 0.11176 0.0
H2418 H 0.80985 0.55002 0.15571 0.0
H2419 H 0.78455 0.55087 0.17324 0.0
C2420 C 0.73158 0.61448 0.21498 0.0
C2421 C 0.74382 0.6143 0.22955 0.0
C2422 C 0.73001 0.60106 0.20144 0.0
C2423 C 0.74057 0.58715 0.20224 0.0
C2424 C 0.75276 0.58687 0.21677 0.0
C2425 C 0.75421 0.60022 0.23041 0.0
C2426 C 0.73895 0.57303 0.18777 0.0
C2427 C 0.75335 0.57076 0.17813 0.0
C2428 C 0.72294 0.56283 0.18259 0.0
C2429 C 0.70751 0.56415 0.19275 0.0
C2430 C 0.70884 0.56197 0.21072 0.0
C2431 C 0.6943 0.56335 0.22025 0.0
C2432 C 0.67832 0.5668 0.21192 0.0
C2433 C 0.67683 0.56884 0.19404 0.0
C2434 C 0.69134 0.56749 0.18446 0.0
C2435 C 0.74282 0.51489 0.12102 0.0
C2436 C 0.72962 0.51778 0.10812 0.0
C2437 C 0.74449 0.52461 0.13736 0.0
C2438 C 0.73312 0.53749 0.14099 0.0
C2439 C 0.71947 0.53978 0.12841 0.0
C2440 C 0.71771 0.53001 0.11219 0.0
C2441 C 0.73577 0.54924 0.15747 0.0
C2442 C 0.72156 0.55108 0.16751 0.0
C2443 C 0.7519 0.5592 0.1629 0.0
C2444 C 0.76712 0.55873 0.1524 0.0
C2445 C 0.76574 0.56305 0.13501 0.0
C2446 C 0.78012 0.56247 0.12516 0.0
C2447 C 0.79599 0.55775 0.13261 0.0
C2448 C 0.79754 0.55364 0.14994 0.0
C2449 C 0.78319 0.55417 0.15984 0.0
H2450 H 0.80711 0.55731 0.12496 0.0
H2451 H 0.66708 0.56786 0.21931 0.0
H2452 H 0.28024 0.05724 0.36291 0.0
H2453 H 0.27321 0.0456 0.3902 0.0
H2454 H 0.32728 0.05627 0.41074 0.0
H2455 H 0.33457 0.06661 0.38297 0.0
H2456 H 0.3152 0.02592 0.41951 0.0
H2457 H 0.29417 0.08357 0.42113 0.0
H2458 H 0.27653 0.10622 0.41009 0.0
H2459 H 0.22952 0.07264 0.41214 0.0
H2460 H 0.24692 0.04972 0.42304 0.0
H2461 H 0.31341 0.03783 0.51087 0.0
H2462 H 0.31578 0.04003 0.47973 0.0
H2463 H 0.26128 0.02141 0.46849 0.0
H2464 H 0.2588 0.01934 0.4998 0.0
H2465 H 0.26996 0.05139 0.45318 0.0
H2466 H 0.29139 0.99557 0.45616 0.0
H2467 H 0.30941 0.97359 0.46796 0.0
H2468 H 0.35606 0.0041 0.45785 0.0
H2469 H 0.33835 0.02641 0.44622 0.0
C2470 C 0.29073 0.05652 0.37298 0.0
C2471 C 0.30806 0.06232 0.37056 0.0
C2472 C 0.28663 0.05022 0.38876 0.0
C2473 C 0.2997 0.05012 0.4026 0.0
C2474 C 0.31697 0.05609 0.40023 0.0
C2475 C 0.3211 0.06215 0.3844 0.0
C2476 C 0.29552 0.04415 0.41971 0.0
C2477 C 0.30539 0.03158 0.42692 0.0
C2478 C 0.2823 0.05107 0.42916 0.0
C2479 C 0.27185 0.06488 0.42271 0.0
C2480 C 0.28008 0.08098 0.41912 0.0
C2481 C 0.27013 0.09387 0.41291 0.0
C2482 C 0.25192 0.09085 0.41037 0.0
C2483 C 0.24363 0.07495 0.41409 0.0
C2484 C 0.25352 0.06202 0.4203 0.0
C2485 C 0.30197 0.03407 0.50174 0.0
C2486 C 0.2859 0.02849 0.50773 0.0
C2487 C 0.30337 0.0352 0.48395 0.0
C2488 C 0.28873 0.03077 0.47179 0.0
C2489 C 0.27274 0.02482 0.47767 0.0
C2490 C 0.27136 0.02356 0.49551 0.0
C2491 C 0.29002 0.03358 0.45316 0.0
C2492 C 0.27959 0.04553 0.44566 0.0
C2493 C 0.30279 0.02616 0.4435 0.0
C2494 C 0.31352 0.01273 0.45041 0.0
C2495 C 0.3055 0.99767 0.45657 0.0
C2496 C 0.31566 0.98513 0.46321 0.0
C2497 C 0.33387 0.98746 0.46368 0.0
C2498 C 0.34195 0.00231 0.45748 0.0
C2499 C 0.33186 0.0149 0.45084 0.0
H2500 H 0.34171 0.97774 0.46883 0.0
H2501 H 0.24424 0.10084 0.40555 0.0
H2502 H 0.18462 0.97501 0.76423 0.0
H2503 H 0.19568 0.98462 0.79435 0.0
H2504 H 0.24744 0.99532 0.77817 0.0
H2505 H 0.23671 0.98415 0.74829 0.0
H2506 H 0.25042 0.98208 0.80719 0.0
H2507 H 0.21935 0.02868 0.78783 0.0
H2508 H 0.19463 0.04285 0.77461 0.0
H2509 H 0.16289 0.02632 0.8144 0.0
H2510 H 0.18736 0.01184 0.82772 0.0
H2511 H 0.27892 0.03673 0.88706 0.0
H2512 H 0.26953 0.02843 0.85597 0.0
H2513 H 0.22316 0.99974 0.87013 0.0
H2514 H 0.2327 0.00765 0.90119 0.0
H2515 H 0.21882 0.02418 0.84195 0.0
H2516 H 0.25155 0.97653 0.86001 0.0
H2517 H 0.27771 0.9644 0.87297 0.0
H2518 H 0.30825 0.98621 0.83469 0.0
H2519 H 0.28229 0.99872 0.82168 0.0
C2520 C 0.19839 0.97935 0.76708 0.0
C2521 C 0.20965 0.97953 0.75367 0.0
C2522 C 0.20466 0.98504 0.7843 0.0
C2523 C 0.22228 0.99133 0.78849 0.0
C2524 C 0.23371 0.9909 0.77524 0.0
C2525 C 0.22748 0.98488 0.75803 0.0
C2526 C 0.22876 0.99807 0.80675 0.0
C2527 C 0.24363 0.9915 0.81465 0.0
C2528 C 0.21991 0.0103 0.81663 0.0
C2529 C 0.20516 0.01904 0.80869 0.0
C2530 C 0.20707 0.02796 0.79369 0.0
C2531 C 0.1931 0.03606 0.78619 0.0
C2532 C 0.17719 0.03545 0.79364 0.0
C2533 C 0.17522 0.02677 0.80863 0.0
C2534 C 0.18914 0.01863 0.81618 0.0
C2535 C 0.26669 0.02873 0.88347 0.0
C2536 C 0.25651 0.02277 0.89641 0.0
C2537 C 0.26138 0.02398 0.86579 0.0
C2538 C 0.24569 0.01347 0.86085 0.0
C2539 C 0.23531 0.00787 0.87374 0.0
C2540 C 0.24077 0.01232 0.89141 0.0
C2541 C 0.24021 0.008 0.84223 0.0
C2542 C 0.22558 0.01485 0.83433 0.0
C2543 C 0.24948 0.99634 0.83226 0.0
C2544 C 0.26504 0.98873 0.84001 0.0
C2545 C 0.26388 0.97889 0.85447 0.0
C2546 C 0.27866 0.97191 0.8618 0.0
C2547 C 0.29465 0.97458 0.8547 0.0
C2548 C 0.29586 0.98418 0.84021 0.0
C2549 C 0.28112 0.99121 0.83284 0.0
H2550 H 0.30608 0.96916 0.86039 0.0
H2551 H 0.16639 0.04173 0.78781 0.0
H2552 H 0.59643 0.75435 0.38809 0.0
H2553 H 0.57211 0.74372 0.40388 0.0
H2554 H 0.58739 0.69123 0.39639 0.0
H2555 H 0.61088 0.70166 0.37947 0.0
H2556 H 0.55424 0.69028 0.39023 0.0
H2557 H 0.59413 0.71671 0.43736 0.0
H2558 H 0.6146 0.73973 0.45397 0.0
H2559 H 0.57329 0.77351 0.45744 0.0
H2560 H 0.55261 0.75078 0.44063 0.0
H2561 H 0.49138 0.66026 0.44625 0.0
H2562 H 0.52091 0.66898 0.43831 0.0
H2563 H 0.50539 0.72005 0.42892 0.0
H2564 H 0.47583 0.71122 0.43644 0.0
H2565 H 0.5408 0.71938 0.44678 0.0
H2566 H 0.50332 0.69461 0.39517 0.0
H2567 H 0.48288 0.67184 0.37842 0.0
H2568 H 0.52062 0.63437 0.38453 0.0
H2569 H 0.54135 0.6571 0.40143 0.0
C2570 C 0.59461 0.74055 0.38986 0.0
C2571 C 0.60595 0.72892 0.38306 0.0
C2572 C 0.58084 0.73451 0.39907 0.0
C2573 C 0.5782 0.71673 0.40183 0.0
C2574 C 0.58933 0.70505 0.39475 0.0
C2575 C 0.60299 0.71107 0.38535 0.0
C2576 C 0.56318 0.71024 0.41114 0.0
C2577 C 0.55161 0.69642 0.4028 0.0
C2578 C 0.55947 0.71836 0.42744 0.0
C2579 C 0.57184 0.73207 0.43762 0.0
C2580 C 0.58943 0.72909 0.44156 0.0
C2581 C 0.60107 0.74208 0.45103 0.0
C2582 C 0.59526 0.75808 0.45673 0.0
C2583 C 0.57778 0.76111 0.45301 0.0
C2584 C 0.56609 0.74817 0.44353 0.0
C2585 C 0.49447 0.67345 0.44287 0.0
C2586 C 0.48149 0.68512 0.44194 0.0
C2587 C 0.51125 0.67839 0.43831 0.0
C2588 C 0.51527 0.69515 0.43303 0.0
C2589 C 0.50255 0.70712 0.43307 0.0
C2590 C 0.48572 0.70208 0.43731 0.0
C2591 C 0.53204 0.69966 0.42574 0.0
C2592 C 0.54381 0.7131 0.43442 0.0
C2593 C 0.53608 0.69112 0.40985 0.0
C2594 C 0.52375 0.67745 0.39972 0.0
C2595 C 0.50719 0.68148 0.39307 0.0
C2596 C 0.49557 0.66857 0.38352 0.0
C2597 C 0.50037 0.65158 0.38049 0.0
C2598 C 0.51689 0.64751 0.38693 0.0
C2599 C 0.5286 0.66041 0.39647 0.0
H2600 H 0.49134 0.64157 0.37311 0.0
H2601 H 0.60429 0.76812 0.46406 0.0
H2602 H 0.74735 0.2242 0.00428 0.0
H2603 H 0.77584 0.23853 0.01631 0.0
H2604 H 0.79841 0.22022 0.96965 0.0
H2605 H 0.76968 0.20668 0.9571 0.0
H2606 H 0.8171 0.21406 0.00233 0.0
H2607 H 0.79195 0.26071 0.97353 0.0
H2608 H 0.76946 0.28084 0.96739 0.0
H2609 H 0.77475 0.30104 0.02138 0.0
H2610 H 0.79716 0.28087 0.02789 0.0
H2611 H 0.89954 0.26105 0.00991 0.0
H2612 H 0.87016 0.24764 0.00076 0.0
H2613 H 0.85007 0.27884 0.04231 0.0
H2614 H 0.87937 0.29335 0.05076 0.0
H2615 H 0.82908 0.27838 0.01445 0.0
H2616 H 0.85494 0.23388 0.04382 0.0
H2617 H 0.87712 0.21382 0.05124 0.0
H2618 H 0.86967 0.18892 0.99886 0.0
H2619 H 0.84761 0.20899 0.99104 0.0
C2620 C 0.75818 0.22381 0.99628 0.0
C2621 C 0.7561 0.21496 0.97943 0.0
C2622 C 0.77452 0.23173 0.00331 0.0
C2623 C 0.78913 0.2306 0.99376 0.0
C2624 C 0.78723 0.22131 0.97716 0.0
C2625 C 0.77084 0.2136 0.97003 0.0
C2626 C 0.80647 0.23888 0.00118 0.0
C2627 C 0.81983 0.22813 0.00483 0.0
C2628 C 0.80971 0.25717 0.00506 0.0
C2629 C 0.79612 0.26918 0.00122 0.0
C2630 C 0.7882 0.26933 0.98412 0.0
C2631 C 0.77551 0.28078 0.98057 0.0
C2632 C 0.77071 0.29223 0.99398 0.0
C2633 C 0.77852 0.29219 0.011 0.0
C2634 C 0.79123 0.28076 0.01463 0.0
C2635 C 0.88888 0.26528 0.01701 0.0
C2636 C 0.89188 0.2784 0.03104 0.0
C2637 C 0.87208 0.25735 0.01192 0.0
C2638 C 0.85789 0.26197 0.02103 0.0
C2639 C 0.86081 0.27498 0.03512 0.0
C2640 C 0.87762 0.28313 0.04007 0.0
C2641 C 0.83998 0.25358 0.01541 0.0
C2642 C 0.82643 0.2643 0.01213 0.0
C2643 C 0.83647 0.2352 0.01216 0.0
C2644 C 0.84971 0.22304 0.01681 0.0
C2645 C 0.85811 0.22421 0.03384 0.0
C2646 C 0.87066 0.21282 0.03813 0.0
C2647 C 0.87483 0.20012 0.02552 0.0
C2648 C 0.86643 0.19876 0.00861 0.0
C2649 C 0.85389 0.21013 0.00425 0.0
H2650 H 0.88454 0.19132 0.02886 0.0
H2651 H 0.761 0.30118 0.99115 0.0
H2652 H 0.23076 0.7171 0.61097 0.0
H2653 H 0.2074 0.71657 0.58757 0.0
H2654 H 0.20939 0.77286 0.59446 0.0
H2655 H 0.23157 0.77325 0.61901 0.0
H2656 H 0.17801 0.76159 0.59012 0.0
H2657 H 0.22533 0.74892 0.55758 0.0
H2658 H 0.25114 0.73452 0.54922 0.0
H2659 H 0.21993 0.6853 0.53915 0.0
H2660 H 0.19397 0.69934 0.54769 0.0
H2661 H 0.11341 0.75421 0.51663 0.0
H2662 H 0.14237 0.76174 0.5327 0.0
H2663 H 0.14466 0.70789 0.54323 0.0
H2664 H 0.116 0.70033 0.52712 0.0
H2665 H 0.17638 0.72302 0.53504 0.0
H2666 H 0.13067 0.73766 0.57369 0.0
H2667 H 0.1059 0.75393 0.58199 0.0
H2668 H 0.13618 0.80251 0.57807 0.0
H2669 H 0.16116 0.78655 0.56989 0.0
C2670 C 0.22629 0.72939 0.60747 0.0
C2671 C 0.23357 0.7453 0.61649 0.0
C2672 C 0.21305 0.72909 0.59388 0.0
C2673 C 0.20698 0.74472 0.58873 0.0
C2674 C 0.21407 0.76063 0.59789 0.0
C2675 C 0.22709 0.76089 0.61173 0.0
C2676 C 0.19244 0.74427 0.57462 0.0
C2677 C 0.17791 0.75346 0.57791 0.0
C2678 C 0.19215 0.73372 0.55859 0.0
C2679 C 0.20771 0.72518 0.55338 0.0
C2680 C 0.22399 0.735 0.55369 0.0
C2681 C 0.23864 0.72691 0.5489 0.0
C2682 C 0.23718 0.70901 0.54368 0.0
C2683 C 0.22104 0.69917 0.5432 0.0
C2684 C 0.20635 0.70719 0.54798 0.0
C2685 C 0.12032 0.74396 0.52204 0.0
C2686 C 0.11246 0.72671 0.52073 0.0
C2687 C 0.13677 0.74828 0.53132 0.0
C2688 C 0.14556 0.7354 0.53933 0.0
C2689 C 0.13811 0.71803 0.53718 0.0
C2690 C 0.12171 0.71374 0.52803 0.0
C2691 C 0.16198 0.73988 0.55091 0.0
C2692 C 0.17681 0.73144 0.54711 0.0
C2693 C 0.16274 0.75143 0.56626 0.0
C2694 C 0.14766 0.76093 0.57099 0.0
C2695 C 0.13197 0.7518 0.57448 0.0
C2696 C 0.11792 0.76095 0.57918 0.0
C2697 C 0.11942 0.77921 0.58042 0.0
C2698 C 0.13502 0.78837 0.57706 0.0
C2699 C 0.14913 0.77929 0.57244 0.0
H2700 H 0.10852 0.78625 0.58405 0.0
H2701 H 0.24854 0.70276 0.53999 0.0
H2702 H 0.38895 0.30251 0.05034 0.0
H2703 H 0.42007 0.30587 0.04649 0.0
H2704 H 0.4083 0.31882 0.99368 0.0
H2705 H 0.37705 0.31502 0.99729 0.0
H2706 H 0.4313 0.29575 0.99414 0.0
H2707 H 0.42636 0.35009 0.0268 0.0
H2708 H 0.41799 0.36986 0.05087 0.0
H2709 H 0.45051 0.34545 0.08779 0.0
H2710 H 0.4589 0.32535 0.06397 0.0
H2711 H 0.52162 0.32056 0.98459 0.0
H2712 H 0.49017 0.32145 0.98649 0.0
H2713 H 0.4952 0.30203 0.03731 0.0
H2714 H 0.52649 0.30065 0.03536 0.0
H2715 H 0.47567 0.33071 0.03633 0.0
H2716 H 0.47878 0.27518 0.00314 0.0
H2717 H 0.48717 0.25594 0.97865 0.0
H2718 H 0.45802 0.28392 0.94208 0.0
H2719 H 0.44965 0.30349 0.96636 0.0
C2720 C 0.39296 0.30626 0.03796 0.0
C2721 C 0.3805 0.30848 0.02412 0.0
C2722 C 0.41079 0.30826 0.0358 0.0
C2723 C 0.41656 0.31278 0.01985 0.0
C2724 C 0.40416 0.31533 0.0061 0.0
C2725 C 0.3863 0.3132 0.00821 0.0
C2726 C 0.43547 0.31393 0.01726 0.0
C2727 C 0.44096 0.30367 0.00319 0.0
C2728 C 0.44813 0.32403 0.02921 0.0
C2729 C 0.44315 0.33612 0.0436 0.0
C2730 C 0.43163 0.34884 0.04006 0.0
C2731 C 0.4269 0.36013 0.05366 0.0
C2732 C 0.43368 0.35889 0.07085 0.0
C2733 C 0.44525 0.34638 0.07447 0.0
C2734 C 0.45002 0.33506 0.06092 0.0
C2735 C 0.516 0.31626 0.99607 0.0
C2736 C 0.5266 0.31056 0.00984 0.0
C2737 C 0.49805 0.31687 0.99717 0.0
C2738 C 0.49039 0.3118 0.01204 0.0
C2739 C 0.5009 0.30611 0.02578 0.0
C2740 C 0.5188 0.30539 0.02466 0.0
C2741 C 0.47141 0.31239 0.01338 0.0
C2742 C 0.46594 0.32297 0.02721 0.0
C2743 C 0.45877 0.30271 0.00114 0.0
C2744 C 0.46376 0.29092 0.98655 0.0
C2745 C 0.47429 0.27733 0.98987 0.0
C2746 C 0.47901 0.26634 0.97603 0.0
C2747 C 0.47318 0.26874 0.95882 0.0
C2748 C 0.46256 0.2821 0.95541 0.0
C2749 C 0.45781 0.29313 0.96921 0.0
H2750 H 0.47685 0.26022 0.94812 0.0
H2751 H 0.43 0.36764 0.08136 0.0
H2752 H 0.38856 0.63577 0.71214 0.0
H2753 H 0.40357 0.61211 0.69866 0.0
H2754 H 0.36196 0.57465 0.70937 0.0
H2755 H 0.34659 0.59835 0.72232 0.0
H2756 H 0.39452 0.56579 0.72043 0.0
H2757 H 0.3652 0.58599 0.67059 0.0
H2758 H 0.35634 0.60584 0.64869 0.0
H2759 H 0.409 0.61225 0.63465 0.0
H2760 H 0.41829 0.59278 0.65678 0.0
H2761 H 0.40957 0.49641 0.64976 0.0
H2762 H 0.39893 0.52486 0.6571 0.0
H2763 H 0.44299 0.53802 0.69569 0.0
H2764 H 0.45355 0.50939 0.68855 0.0
H2765 H 0.41015 0.55992 0.65923 0.0
H2766 H 0.42649 0.55495 0.73266 0.0
H2767 H 0.43256 0.53255 0.75284 0.0
H2768 H 0.40126 0.49357 0.71781 0.0
H2769 H 0.39479 0.51579 0.69758 0.0
C2770 C 0.38233 0.62258 0.71109 0.0
C2771 C 0.36618 0.61895 0.71785 0.0
C2772 C 0.39103 0.60905 0.70358 0.0
C2773 C 0.38382 0.59167 0.70292 0.0
C2774 C 0.36774 0.588 0.70977 0.0
C2775 C 0.359 0.60152 0.71716 0.0
C2776 C 0.39335 0.57717 0.69583 0.0
C2777 C 0.39804 0.56462 0.70707 0.0
C2778 C 0.39782 0.5756 0.67835 0.0
C2779 C 0.39245 0.58797 0.66551 0.0
C2780 C 0.37494 0.59179 0.66301 0.0
C2781 C 0.36983 0.60294 0.65052 0.0
C2782 C 0.38208 0.6102 0.64025 0.0
C2783 C 0.39952 0.60655 0.6426 0.0
C2784 C 0.40471 0.59548 0.65515 0.0
C2785 C 0.41717 0.50553 0.65956 0.0
C2786 C 0.43225 0.50063 0.66876 0.0
C2787 C 0.41115 0.52182 0.66364 0.0
C2788 C 0.42004 0.53344 0.67709 0.0
C2789 C 0.43587 0.52916 0.68535 0.0
C2790 C 0.44194 0.51285 0.68122 0.0
C2791 C 0.41149 0.54881 0.68393 0.0
C2792 C 0.40694 0.56142 0.67267 0.0
C2793 C 0.40685 0.55039 0.70131 0.0
C2794 C 0.41035 0.53699 0.71354 0.0
C2795 C 0.42086 0.54161 0.72932 0.0
C2796 C 0.42437 0.52895 0.74076 0.0
C2797 C 0.41735 0.51164 0.73658 0.0
C2798 C 0.40674 0.50697 0.721 0.0
C2799 C 0.40315 0.51959 0.70954 0.0
H2800 H 0.42011 0.50185 0.74544 0.0
H2801 H 0.37804 0.61864 0.63044 0.0
H2802 H 0.9873 0.77226 0.19455 0.0
H2803 H 0.99605 0.80187 0.20796 0.0
H2804 H 0.99214 0.78392 0.25911 0.0
H2805 H 0.98178 0.75469 0.2456 0.0
H2806 H 0.97974 0.81292 0.25924 0.0
H2807 H 0.03296 0.7936 0.24074 0.0
H2808 H 0.05263 0.78122 0.22036 0.0
H2809 H 0.04598 0.82333 0.18809 0.0
H2810 H 0.02607 0.83585 0.20817 0.0
H2811 H 0.03034 0.88839 0.30437 0.0
H2812 H 0.02423 0.85823 0.29079 0.0
H2813 H 0.00626 0.87758 0.24222 0.0
H2814 H 0.01187 0.90772 0.25589 0.0
H2815 H 0.03116 0.84808 0.24165 0.0
H2816 H 0.97639 0.86594 0.26145 0.0
H2817 H 0.95856 0.878 0.28382 0.0
H2818 H 0.97097 0.83731 0.31623 0.0
H2819 H 0.98914 0.82519 0.29415 0.0
C2820 C 0.98832 0.77463 0.20867 0.0
C2821 C 0.98458 0.76094 0.21909 0.0
C2822 C 0.99352 0.79154 0.21634 0.0
C2823 C 0.99537 0.79507 0.23461 0.0
C2824 C 0.99118 0.78149 0.245 0.0
C2825 C 0.98565 0.76465 0.2373 0.0
C2826 C 0.0011 0.81302 0.24286 0.0
C2827 C 0.99115 0.82043 0.25552 0.0
C2828 C 0.0159 0.82304 0.23797 0.0
C2829 C 0.02789 0.81557 0.22588 0.0
C2830 C 0.03559 0.80016 0.22923 0.0
C2831 C 0.0468 0.79312 0.21775 0.0
C2832 C 0.05052 0.80146 0.20292 0.0
C2833 C 0.04307 0.81687 0.19957 0.0
C2834 C 0.03184 0.82395 0.21101 0.0
C2835 C 0.02529 0.88615 0.29075 0.0
C2836 C 0.02153 0.90025 0.28112 0.0
C2837 C 0.02179 0.869 0.28305 0.0
C2838 C 0.0148 0.86579 0.26555 0.0
C2839 C 0.0117 0.87987 0.25572 0.0
C2840 C 0.01484 0.897 0.26352 0.0
C2841 C 0.00977 0.8477 0.2578 0.0
C2842 C 0.01984 0.84037 0.2453 0.0
C2843 C 0.99534 0.83761 0.26307 0.0
C2844 C 0.98429 0.84479 0.27625 0.0
C2845 C 0.97546 0.85967 0.27342 0.0
C2846 C 0.96527 0.8665 0.28603 0.0
C2847 C 0.96367 0.85846 0.30146 0.0
C2848 C 0.97224 0.84354 0.30429 0.0
C2849 C 0.98248 0.83669 0.29173 0.0
H2850 H 0.95577 0.86375 0.31121 0.0
H2851 H 0.0592 0.79599 0.19404 0.0
H2852 H 0.63885 0.20088 0.7608 0.0
H2853 H 0.61101 0.18378 0.76293 0.0
H2854 H 0.6006 0.17995 0.70681 0.0
H2855 H 0.62803 0.19766 0.70469 0.0
H2856 H 0.57178 0.18694 0.72229 0.0
H2857 H 0.61585 0.14623 0.7279 0.0
H2858 H 0.64257 0.13518 0.74103 0.0
H2859 H 0.62054 0.13435 0.79029 0.0
H2860 H 0.59377 0.14561 0.77749 0.0
H2861 H 0.5176 0.10874 0.69868 0.0
H2862 H 0.53924 0.13409 0.70411 0.0
H2863 H 0.53795 0.13174 0.7597 0.0
H2864 H 0.51617 0.10623 0.75419 0.0
H2865 H 0.57084 0.13079 0.74932 0.0
H2866 H 0.52434 0.16693 0.74136 0.0
H2867 H 0.49753 0.17666 0.727 0.0
H2868 H 0.52383 0.18514 0.68114 0.0
H2869 H 0.55073 0.17521 0.69512 0.0
C2870 C 0.63043 0.19678 0.74897 0.0
C2871 C 0.63543 0.20095 0.73261 0.0
C2872 C 0.61464 0.18678 0.75018 0.0
C2873 C 0.60371 0.18058 0.73502 0.0
C2874 C 0.60875 0.18469 0.71868 0.0
C2875 C 0.62449 0.19469 0.71748 0.0
C2876 C 0.58719 0.16947 0.73599 0.0
C2877 C 0.57156 0.17463 0.72815 0.0
C2878 C 0.58681 0.15366 0.74408 0.0
C2879 C 0.60292 0.14698 0.75181 0.0
C2880 C 0.61678 0.14385 0.74157 0.0
C2881 C 0.63191 0.13751 0.74894 0.0
C2882 C 0.63328 0.13413 0.7665 0.0
C2883 C 0.61949 0.13702 0.77671 0.0
C2884 C 0.60433 0.14337 0.7694 0.0
C2885 C 0.52148 0.11407 0.71203 0.0
C2886 C 0.51517 0.10575 0.72603 0.0
C2887 C 0.53384 0.12852 0.71514 0.0
C2888 C 0.54015 0.13487 0.73232 0.0
C2889 C 0.53317 0.1271 0.74636 0.0
C2890 C 0.52065 0.11268 0.74323 0.0
C2891 C 0.55547 0.14808 0.73532 0.0
C2892 C 0.57093 0.1433 0.74384 0.0
C2893 C 0.55569 0.16416 0.72773 0.0
C2894 C 0.53955 0.17023 0.71928 0.0
C2895 C 0.52438 0.17075 0.72817 0.0
C2896 C 0.50917 0.17632 0.7201 0.0
C2897 C 0.50897 0.18149 0.70316 0.0
C2898 C 0.524 0.18113 0.69427 0.0
C2899 C 0.53925 0.17556 0.70227 0.0
H2900 H 0.49718 0.1858 0.69694 0.0
H2901 H 0.645 0.12921 0.77218 0.0
H2902 H 0.09619 0.37377 0.29919 0.0
H2903 H 0.08681 0.4009 0.2888 0.0
H2904 H 0.03528 0.38825 0.30481 0.0
H2905 H 0.04448 0.36073 0.31448 0.0
H2906 H 0.03179 0.40332 0.27639 0.0
H2907 H 0.06698 0.41716 0.33036 0.0
H2908 H 0.09272 0.4174 0.3517 0.0
H2909 H 0.12479 0.44362 0.31725 0.0
H2910 H 0.09927 0.44332 0.29559 0.0
H2911 H 0.0135 0.49478 0.28574 0.0
H2912 H 0.01809 0.46437 0.29039 0.0
H2913 H 0.06458 0.4684 0.26308 0.0
H2914 H 0.05983 0.4985 0.25789 0.0
H2915 H 0.06924 0.45776 0.29764 0.0
H2916 H 0.03038 0.44507 0.24459 0.0
H2917 H 0.0026 0.44639 0.22665 0.0
H2918 H 0.97483 0.419 0.26355 0.0
H2919 H 0.0024 0.41799 0.28202 0.0
C2920 C 0.08282 0.37674 0.3003 0.0
C2921 C 0.07103 0.36521 0.30756 0.0
C2922 C 0.07748 0.39226 0.29445 0.0
C2923 C 0.06043 0.39684 0.29637 0.0
C2924 C 0.04849 0.38504 0.30318 0.0
C2925 C 0.05374 0.36932 0.30868 0.0
C2926 C 0.05535 0.41424 0.29201 0.0
C2927 C 0.03989 0.41524 0.28121 0.0
C2928 C 0.06585 0.42985 0.2983 0.0
C2929 C 0.08125 0.43005 0.31128 0.0
C2930 C 0.07955 0.42286 0.32728 0.0
C2931 C 0.0941 0.42303 0.33944 0.0
C2932 C 0.11039 0.43048 0.33581 0.0
C2933 C 0.11216 0.43783 0.32003 0.0
C2934 C 0.09766 0.43767 0.30781 0.0
C2935 C 0.02444 0.48905 0.28033 0.0
C2936 C 0.03642 0.49912 0.27162 0.0
C2937 C 0.02707 0.47171 0.28307 0.0
C2938 C 0.04172 0.46424 0.27715 0.0
C2939 C 0.05326 0.47401 0.26783 0.0
C2940 C 0.05056 0.49122 0.26496 0.0
C2941 C 0.04593 0.44676 0.28183 0.0
C2942 C 0.06119 0.44581 0.29281 0.0
C2943 C 0.03497 0.43134 0.27613 0.0
C2944 C 0.01845 0.43167 0.26483 0.0
C2945 C 0.01834 0.43952 0.24901 0.0
C2946 C 0.00262 0.44023 0.23875 0.0
C2947 C 0.98695 0.43288 0.24401 0.0
C2948 C 0.98697 0.42476 0.25953 0.0
C2949 C 0.00264 0.42414 0.26991 0.0
H2950 H 0.9748 0.43337 0.236 0.0
H2951 H 0.12164 0.4306 0.34525 0.0
H2952 H 0.32783 0.61313 0.3351 0.0
H2953 H 0.35505 0.60256 0.32617 0.0
H2954 H 0.38135 0.62198 0.37657 0.0
H2955 H 0.35437 0.63278 0.38548 0.0
H2956 H 0.40154 0.62883 0.35224 0.0
H2957 H 0.36668 0.57778 0.36567 0.0
H2958 H 0.34047 0.55671 0.36305 0.0
H2959 H 0.34635 0.54452 0.30861 0.0
H2960 H 0.37248 0.5657 0.31087 0.0
H2961 H 0.47625 0.58363 0.35501 0.0
H2962 H 0.4483 0.59498 0.35982 0.0
H2963 H 0.42649 0.57095 0.30917 0.0
H2964 H 0.4544 0.55896 0.30462 0.0
H2965 H 0.40355 0.56653 0.3314 0.0
H2966 H 0.43859 0.61641 0.31718 0.0
H2967 H 0.46379 0.63863 0.31874 0.0
H2968 H 0.45623 0.65429 0.37216 0.0
H2969 H 0.4314 0.6319 0.37104 0.0
C2970 C 0.33946 0.61531 0.34421 0.0
C2971 C 0.33889 0.62364 0.36107 0.0
C2972 C 0.35498 0.60915 0.33913 0.0
C2973 C 0.37017 0.61119 0.35081 0.0
C2974 C 0.36977 0.62013 0.36737 0.0
C2975 C 0.35431 0.62632 0.37244 0.0
C2976 C 0.38652 0.60397 0.34595 0.0
C2977 C 0.40194 0.61521 0.34769 0.0
C2978 C 0.38706 0.58623 0.33974 0.0
C2979 C 0.37143 0.57343 0.3384 0.0
C2980 C 0.36231 0.57069 0.35312 0.0
C2981 C 0.34748 0.55872 0.3517 0.0
C2982 C 0.34172 0.54932 0.33566 0.0
C2983 C 0.35081 0.55183 0.32102 0.0
C2984 C 0.36564 0.5638 0.32236 0.0
C2985 C 0.46552 0.58079 0.34488 0.0
C2986 C 0.46749 0.57055 0.32935 0.0
C2987 C 0.44956 0.58737 0.34759 0.0
C2988 C 0.43536 0.58417 0.33469 0.0
C2989 C 0.43726 0.57369 0.31928 0.0
C2990 C 0.45318 0.56689 0.31666 0.0
C2991 C 0.41852 0.59154 0.3375 0.0
C2992 C 0.40304 0.58026 0.33554 0.0
C2993 C 0.41781 0.60937 0.34319 0.0
C2994 C 0.43321 0.6224 0.34406 0.0
C2995 C 0.44247 0.62446 0.32932 0.0
C2996 C 0.4567 0.6371 0.33012 0.0
C2997 C 0.46168 0.64786 0.34555 0.0
C2998 C 0.45248 0.64595 0.36022 0.0
C2999 C 0.43834 0.63327 0.35952 0.0
H3000 H 0.47264 0.6577 0.34611 0.0
H3001 H 0.33024 0.54005 0.33459 0.0
H3002 H 0.17771 0.35564 0.71239 0.0
H3003 H 0.15077 0.3591 0.69439 0.0
H3004 H 0.1203 0.33885 0.73381 0.0
H3005 H 0.14713 0.33511 0.75179 0.0
H3006 H 0.10499 0.32817 0.70058 0.0
H3007 H 0.12917 0.38193 0.73391 0.0
H3008 H 0.15228 0.40561 0.74396 0.0
H3009 H 0.15529 0.4185 0.69115 0.0
H3010 H 0.13234 0.39472 0.68076 0.0
H3011 H 0.02642 0.36895 0.68719 0.0
H3012 H 0.05355 0.35769 0.69801 0.0
H3013 H 0.08072 0.38313 0.65906 0.0
H3014 H 0.05356 0.39476 0.64847 0.0
H3015 H 0.09835 0.38988 0.68967 0.0
H3016 H 0.0717 0.33774 0.65662 0.0
H3017 H 0.0477 0.31481 0.64712 0.0
H3018 H 0.04851 0.29919 0.69928 0.0
H3019 H 0.07238 0.32217 0.70916 0.0
C3020 C 0.16529 0.35161 0.7171 0.0
C3021 C 0.16457 0.34534 0.73365 0.0
C3022 C 0.1499 0.35362 0.7068 0.0
C3023 C 0.13354 0.34951 0.71291 0.0
C3024 C 0.13278 0.34214 0.72887 0.0
C3025 C 0.14816 0.3401 0.73917 0.0
C3026 C 0.11735 0.35451 0.70358 0.0
C3027 C 0.10347 0.34166 0.69823 0.0
C3028 C 0.11548 0.37207 0.7003 0.0
C3029 C 0.12919 0.38643 0.70654 0.0
C3030 C 0.13486 0.38973 0.72443 0.0
C3031 C 0.14791 0.40318 0.73019 0.0
C3032 C 0.15529 0.41352 0.71819 0.0
C3033 C 0.14959 0.41046 0.70042 0.0
C3034 C 0.13655 0.39701 0.69459 0.0
C3035 C 0.0381 0.37189 0.68076 0.0
C3036 C 0.03791 0.38262 0.66692 0.0
C3037 C 0.05361 0.36541 0.68692 0.0
C3038 C 0.06916 0.36936 0.6792 0.0
C3039 C 0.06889 0.37986 0.66518 0.0
C3040 C 0.05339 0.38646 0.65912 0.0
C3041 C 0.08592 0.36356 0.68654 0.0
C3042 C 0.0999 0.37631 0.69168 0.0
C3043 C 0.08781 0.34593 0.68961 0.0
C3044 C 0.07378 0.33176 0.68365 0.0
C3045 C 0.06672 0.32945 0.66608 0.0
C3046 C 0.05315 0.31645 0.66063 0.0
C3047 C 0.04658 0.30556 0.67259 0.0
C3048 C 0.05362 0.30762 0.69003 0.0
C3049 C 0.0672 0.32062 0.69555 0.0
H3050 H 0.03604 0.29555 0.66832 0.0
H3051 H 0.16539 0.42392 0.72268 0.0
H3052 H 0.79433 0.96351 0.67526 0.0
H3053 H 0.82125 0.97688 0.69161 0.0
H3054 H 0.79197 0.01316 0.72008 0.0
H3055 H 0.76489 2e-05 0.70346 0.0
H3056 H 0.81877 0.02992 0.70753 0.0
H3057 H 0.81173 0.98083 0.74046 0.0
H3058 H 0.80634 0.94977 0.7455 0.0
H3059 H 0.8523 0.93822 0.72061 0.0
H3060 H 0.85784 0.96917 0.71519 0.0
H3061 H 0.89788 0.06631 0.75712 0.0
H3062 H 0.86836 0.05148 0.75014 0.0
H3063 H 0.88884 0.01261 0.71591 0.0
H3064 H 0.91825 0.02721 0.72293 0.0
H3065 H 0.86497 0.99789 0.73574 0.0
H3066 H 0.86934 0.04616 0.69957 0.0
H3067 H 0.87454 0.07716 0.69418 0.0
H3068 H 0.83314 0.09003 0.72548 0.0
H3069 H 0.82785 0.05911 0.73124 0.0
C3070 C 0.79354 0.97417 0.68517 0.0
C3071 C 0.77746 0.98075 0.68798 0.0
C3072 C 0.80896 0.98174 0.6946 0.0
C3073 C 0.80863 0.99594 0.70719 0.0
C3074 C 0.79253 0.0022 0.71044 0.0
C3075 C 0.77706 0.99464 0.70096 0.0
C3076 C 0.82527 0.00507 0.71581 0.0
C3077 C 0.82871 0.02298 0.71407 0.0
C3078 C 0.83838 0.99597 0.72405 0.0
C3079 C 0.83514 0.97733 0.72732 0.0
C3080 C 0.82062 0.97165 0.73594 0.0
C3081 C 0.81755 0.95407 0.73889 0.0
C3082 C 0.82895 0.94203 0.73335 0.0
C3083 C 0.84348 0.94756 0.72489 0.0
C3084 C 0.8466 0.96513 0.7219 0.0
C3085 C 0.89604 0.05455 0.74818 0.0
C3086 C 0.91032 0.04799 0.74051 0.0
C3087 C 0.87921 0.04612 0.74419 0.0
C3088 C 0.8764 0.03102 0.7324 0.0
C3089 C 0.89072 0.02422 0.72506 0.0
C3090 C 0.90753 0.03265 0.72903 0.0
C3091 C 0.8585 0.02258 0.72714 0.0
C3092 C 0.85487 0.00483 0.72949 0.0
C3093 C 0.84519 0.03181 0.71948 0.0
C3094 C 0.84835 0.05038 0.71601 0.0
C3095 C 0.86145 0.05563 0.70543 0.0
C3096 C 0.86439 0.07317 0.70228 0.0
C3097 C 0.85421 0.08556 0.70953 0.0
C3098 C 0.84104 0.08042 0.7199 0.0
C3099 C 0.83806 0.06289 0.7231 0.0
H3100 H 0.85651 0.09914 0.70708 0.0
H3101 H 0.82655 0.92842 0.73565 0.0
H3102 H 0.70615 0.99536 0.26119 0.0
H3103 H 0.67708 0.98478 0.26809 0.0
H3104 H 0.69888 0.96996 0.31742 0.0
H3105 H 0.72826 0.9806 0.31065 0.0
H3106 H 0.67308 0.94393 0.29679 0.0
H3107 H 0.6798 0.00521 0.31943 0.0
H3108 H 0.68714 0.03659 0.31673 0.0
H3109 H 0.64746 0.03489 0.27388 0.0
H3110 H 0.64 0.00349 0.27622 0.0
H3111 H 0.58825 0.9285 0.3268 0.0
H3112 H 0.61924 0.93704 0.3242 0.0
H3113 H 0.60459 0.96859 0.2826 0.0
H3114 H 0.57379 0.96088 0.28592 0.0
H3115 H 0.62831 0.98612 0.30247 0.0
H3116 H 0.62177 0.92679 0.27674 0.0
H3117 H 0.61421 0.89496 0.27556 0.0
H3118 H 0.65251 0.89182 0.31873 0.0
H3119 H 0.66016 0.92364 0.32012 0.0
C3120 C 0.70484 0.98984 0.27352 0.0
C3121 C 0.71953 0.9889 0.28542 0.0
C3122 C 0.6882 0.9838 0.27743 0.0
C3123 C 0.68586 0.97666 0.29328 0.0
C3124 C 0.70047 0.97539 0.3051 0.0
C3125 C 0.7172 0.98157 0.30125 0.0
C3126 C 0.66801 0.97098 0.29751 0.0
C3127 C 0.66329 0.95312 0.29834 0.0
C3128 C 0.65523 0.98298 0.29898 0.0
C3129 C 0.65943 0.00197 0.29792 0.0
C3130 C 0.6727 0.01152 0.30939 0.0
C3131 C 0.67687 0.02931 0.30793 0.0
C3132 C 0.66783 0.03769 0.29508 0.0
C3133 C 0.65448 0.02836 0.2838 0.0
C3134 C 0.65025 0.01059 0.28521 0.0
C3135 C 0.59175 0.93724 0.31711 0.0
C3136 C 0.57872 0.94415 0.30666 0.0
C3137 C 0.60943 0.94203 0.31554 0.0
C3138 C 0.61433 0.95335 0.30307 0.0
C3139 C 0.60121 0.95995 0.29241 0.0
C3140 C 0.58359 0.95551 0.29428 0.0
C3141 C 0.63303 0.95888 0.30136 0.0
C3142 C 0.638 0.97681 0.30107 0.0
C3143 C 0.64587 0.94684 0.29985 0.0
C3144 C 0.64137 0.92765 0.29877 0.0
C3145 C 0.62848 0.91933 0.28606 0.0
C3146 C 0.6242 0.90128 0.28531 0.0
C3147 C 0.63282 0.89137 0.29711 0.0
C3148 C 0.6458 0.89949 0.30962 0.0
C3149 C 0.65012 0.91753 0.31039 0.0
H3150 H 0.62947 0.8774 0.29652 0.0
H3151 H 0.67114 0.05141 0.29385 0.0
H3152 H 0.33943 0.34665 0.65539 0.0
H3153 H 0.32495 0.37036 0.64303 0.0
H3154 H 0.30584 0.33615 0.59707 0.0
H3155 H 0.32005 0.31221 0.60938 0.0
H3156 H 0.32299 0.36586 0.58891 0.0
H3157 H 0.27936 0.35037 0.62607 0.0
H3158 H 0.26598 0.34422 0.65304 0.0
H3159 H 0.28058 0.39712 0.67454 0.0
H3160 H 0.29529 0.40323 0.64841 0.0
H3161 H 0.28257 0.43714 0.55358 0.0
H3162 H 0.286 0.40827 0.56392 0.0
H3163 H 0.3069 0.4329 0.61459 0.0
H3164 H 0.30339 0.46158 0.60444 0.0
H3165 H 0.28427 0.40526 0.61765 0.0
H3166 H 0.33343 0.41834 0.58466 0.0
H3167 H 0.34797 0.42553 0.55858 0.0
H3168 H 0.32306 0.37847 0.53008 0.0
H3169 H 0.30819 0.3711 0.55597 0.0
C3170 C 0.33188 0.34405 0.6428 0.0
C3171 C 0.33097 0.32755 0.63333 0.0
C3172 C 0.32361 0.35764 0.63577 0.0
C3173 C 0.3144 0.35505 0.61913 0.0
C3174 C 0.31292 0.33843 0.60993 0.0
C3175 C 0.321 0.32475 0.61702 0.0
C3176 C 0.3077 0.37007 0.61076 0.0
C3177 C 0.31417 0.37424 0.595 0.0
C3178 C 0.29657 0.38124 0.61896 0.0
C3179 C 0.28862 0.37722 0.63524 0.0
C3180 C 0.28016 0.36058 0.63673 0.0
C3181 C 0.2724 0.35706 0.65195 0.0
C3182 C 0.27266 0.37019 0.66565 0.0
C3183 C 0.28073 0.38683 0.66415 0.0
C3184 C 0.28887 0.3903 0.64916 0.0
C3185 C 0.28781 0.43632 0.56694 0.0
C3186 C 0.29278 0.45157 0.57816 0.0
C3187 C 0.2898 0.41987 0.57281 0.0
C3188 C 0.29684 0.41845 0.58998 0.0
C3189 C 0.30143 0.43369 0.60129 0.0
C3190 C 0.29948 0.45009 0.59544 0.0
C3191 C 0.29998 0.40122 0.5962 0.0
C3192 C 0.29282 0.39664 0.61148 0.0
C3193 C 0.31069 0.3898 0.58776 0.0
C3194 C 0.31951 0.39429 0.57216 0.0
C3195 C 0.33091 0.40961 0.57278 0.0
C3196 C 0.33925 0.4137 0.55805 0.0
C3197 C 0.33639 0.4025 0.54266 0.0
C3198 C 0.32522 0.38715 0.54199 0.0
C3199 C 0.31684 0.38301 0.55669 0.0
H3200 H 0.34286 0.40568 0.53127 0.0
H3201 H 0.26648 0.36751 0.67735 0.0
H3202 H 0.26239 0.71355 0.98828 0.0
H3203 H 0.26258 0.68235 0.97983 0.0
H3204 H 0.256 0.67129 0.0329 0.0
H3205 H 0.25594 0.70257 0.04153 0.0
H3206 H 0.28135 0.6536 0.01957 0.0
H3207 H 0.22174 0.66166 0.00167 0.0
H3208 H 0.19763 0.67553 0.98689 0.0
H3209 H 0.21785 0.66428 0.9374 0.0
H3210 H 0.24205 0.65026 0.95188 0.0
H3211 H 0.26562 0.56159 0.99835 0.0
H3212 H 0.26215 0.59192 0.00851 0.0
H3213 H 0.26827 0.60715 0.95665 0.0
H3214 H 0.27153 0.57677 0.94638 0.0
H3215 H 0.24178 0.62229 0.97064 0.0
H3216 H 0.30178 0.61479 0.98886 0.0
H3217 H 0.32576 0.60083 0.00376 0.0
H3218 H 0.3049 0.61152 0.05303 0.0
H3219 H 0.28065 0.62533 0.03838 0.0
C3220 C 0.26094 0.70451 0.99817 0.0
C3221 C 0.25917 0.71056 0.01559 0.0
C3222 C 0.26094 0.68665 0.99329 0.0
C3223 C 0.25911 0.67448 0.0057 0.0
C3224 C 0.25738 0.68047 0.02311 0.0
C3225 C 0.25735 0.69834 0.02801 0.0
C3226 C 0.25963 0.65557 0.00056 0.0
C3227 C 0.2725 0.64666 0.00908 0.0
C3228 C 0.24832 0.64663 0.98664 0.0
C3229 C 0.23378 0.65503 0.97788 0.0
C3230 C 0.2211 0.66222 0.98765 0.0
C3231 C 0.20739 0.67007 0.97932 0.0
C3232 C 0.20626 0.67087 0.96124 0.0
C3233 C 0.21876 0.66368 0.95141 0.0
C3234 C 0.23243 0.65572 0.95966 0.0
C3235 C 0.26622 0.57139 0.98911 0.0
C3236 C 0.26893 0.56687 0.97157 0.0
C3237 C 0.26428 0.58873 0.99495 0.0
C3238 C 0.26513 0.60183 0.98338 0.0
C3239 C 0.26758 0.59726 0.96581 0.0
C3240 C 0.2695 0.57994 0.95997 0.0
C3241 C 0.26359 0.62035 0.98956 0.0
C3242 C 0.25054 0.62919 0.98122 0.0
C3243 C 0.27473 0.62922 0.00367 0.0
C3244 C 0.28929 0.62091 0.0125 0.0
C3245 C 0.30222 0.61402 0.00285 0.0
C3246 C 0.31588 0.60617 0.01125 0.0
C3247 C 0.31682 0.60524 0.02932 0.0
C3248 C 0.30413 0.61221 0.03903 0.0
C3249 C 0.29044 0.62007 0.03069 0.0
H3250 H 0.32741 0.59916 0.0358 0.0
H3251 H 0.19568 0.67702 0.95483 0.0
H3252 H 0.71389 0.19942 0.38127 0.0
H3253 H 0.69992 0.17157 0.38824 0.0
H3254 H 0.72663 0.14426 0.34888 0.0
H3255 H 0.74044 0.1721 0.3416 0.0
H3256 H 0.69378 0.12909 0.34994 0.0
H3257 H 0.74339 0.14844 0.39097 0.0
H3258 H 0.76163 0.16915 0.41261 0.0
H3259 H 0.71976 0.1698 0.44592 0.0
H3260 H 0.70117 0.14927 0.42434 0.0
H3261 H 0.69223 0.04587 0.38382 0.0
H3262 H 0.70035 0.07396 0.37285 0.0
H3263 H 0.67472 0.10034 0.41372 0.0
H3264 H 0.66695 0.07225 0.42501 0.0
H3265 H 0.70604 0.11622 0.41152 0.0
H3266 H 0.65697 0.09473 0.37018 0.0
H3267 H 0.64 0.07326 0.3483 0.0
H3268 H 0.68217 0.07579 0.31536 0.0
H3269 H 0.69946 0.09703 0.33713 0.0
C3270 C 0.71658 0.18753 0.37388 0.0
C3271 C 0.72846 0.18796 0.36103 0.0
C3272 C 0.70862 0.17161 0.37793 0.0
C3273 C 0.71253 0.15583 0.36934 0.0
C3274 C 0.72351 0.15628 0.35574 0.0
C3275 C 0.73141 0.17222 0.35161 0.0
C3276 C 0.70619 0.13886 0.37536 0.0
C3277 C 0.69655 0.1262 0.36337 0.0
C3278 C 0.70966 0.13518 0.39293 0.0
C3279 C 0.72083 0.14747 0.40596 0.0
C3280 C 0.73803 0.15311 0.40285 0.0
C3281 C 0.74843 0.1648 0.41511 0.0
C3282 C 0.74184 0.17083 0.43061 0.0
C3283 C 0.72484 0.16514 0.43389 0.0
C3284 C 0.71436 0.15347 0.42166 0.0
C3285 C 0.6882 0.05764 0.39038 0.0
C3286 C 0.67892 0.05692 0.40526 0.0
C3287 C 0.69278 0.07369 0.38404 0.0
C3288 C 0.68796 0.08926 0.39233 0.0
C3289 C 0.67855 0.0885 0.40709 0.0
C3290 C 0.67408 0.07247 0.4135 0.0
C3291 C 0.69345 0.10643 0.38615 0.0
C3292 C 0.70306 0.11913 0.39812 0.0
C3293 C 0.69006 0.11004 0.36854 0.0
C3294 C 0.67956 0.09737 0.35536 0.0
C3295 C 0.66266 0.09061 0.35832 0.0
C3296 C 0.65298 0.07847 0.34592 0.0
C3297 C 0.66001 0.0731 0.33046 0.0
C3298 C 0.67672 0.0799 0.32734 0.0
C3299 C 0.68646 0.092 0.33969 0.0
H3300 H 0.65248 0.06372 0.32088 0.0
H3301 H 0.74992 0.17988 0.44009 0.0
H3302 H 0.65085 0.75792 0.99978 0.0
H3303 H 0.65706 0.7881 0.01266 0.0
H3304 H 0.6554 0.80607 0.96114 0.0
H3305 H 0.64932 0.77591 0.94812 0.0
H3306 H 0.68393 0.82081 0.98197 0.0
H3307 H 0.62218 0.8116 0.98595 0.0
H3308 H 0.59524 0.79585 0.99386 0.0
H3309 H 0.61458 0.80351 0.04809 0.0
H3310 H 0.64179 0.81908 0.04048 0.0
H3311 H 0.68658 0.91101 0.00891 0.0
H3312 H 0.67704 0.88162 0.99523 0.0
H3313 H 0.67584 0.86248 0.04614 0.0
H3314 H 0.68501 0.89202 0.05991 0.0
H3315 H 0.64803 0.8485 0.02505 0.0
H3316 H 0.71007 0.85623 0.02127 0.0
H3317 H 0.73766 0.871 0.01368 0.0
H3318 H 0.71822 0.86539 0.95945 0.0
H3319 H 0.6904 0.85078 0.96676 0.0
C3320 C 0.65173 0.76829 0.99118 0.0
C3321 C 0.64963 0.76451 0.97292 0.0
C3322 C 0.65521 0.78554 0.99857 0.0
C3323 C 0.65658 0.79933 0.98785 0.0
C3324 C 0.6544 0.79561 0.96963 0.0
C3325 C 0.65088 0.77837 0.96223 0.0
C3326 C 0.66082 0.81759 0.99564 0.0
C3327 C 0.67593 0.82697 0.99118 0.0
C3328 C 0.6506 0.82544 0.00797 0.0
C3329 C 0.6341 0.81639 0.01262 0.0
C3330 C 0.62075 0.80984 0.99955 0.0
C3331 C 0.60542 0.80095 0.00398 0.0
C3332 C 0.60322 0.79864 0.02146 0.0
C3333 C 0.61632 0.80529 0.03455 0.0
C3334 C 0.63169 0.81416 0.03019 0.0
C3335 C 0.68425 0.90057 0.0172 0.0
C3336 C 0.68664 0.90374 0.03549 0.0
C3337 C 0.67884 0.88375 0.00936 0.0
C3338 C 0.67596 0.86979 0.01965 0.0
C3339 C 0.678 0.87304 0.03793 0.0
C3340 C 0.6833 0.88988 0.04578 0.0
C3341 C 0.67117 0.85174 0.01138 0.0
C3342 C 0.65598 0.84238 0.01577 0.0
C3343 C 0.68135 0.84385 0.99902 0.0
C3344 C 0.69809 0.85258 0.99459 0.0
C3345 C 0.71163 0.85827 0.00774 0.0
C3346 C 0.72732 0.86659 0.00349 0.0
C3347 C 0.72967 0.86918 0.9861 0.0
C3348 C 0.71636 0.8634 0.97292 0.0
C3349 C 0.70064 0.85509 0.97711 0.0
H3350 H 0.74183 0.87563 0.98283 0.0
H3351 H 0.59135 0.79173 0.02486 0.0
H3352 H 0.57621 0.35192 0.32258 0.0
H3353 H 0.56804 0.34298 0.35071 0.0
H3354 H 0.60937 0.37911 0.37755 0.0
H3355 H 0.61725 0.38853 0.34955 0.0
H3356 H 0.60876 0.34426 0.38773 0.0
H3357 H 0.57051 0.38957 0.38012 0.0
H3358 H 0.54829 0.40484 0.36409 0.0
H3359 H 0.51166 0.35934 0.36146 0.0
H3360 H 0.53372 0.34373 0.37736 0.0
H3361 H 0.58678 0.33441 0.47374 0.0
H3362 H 0.59376 0.34675 0.44673 0.0
H3363 H 0.54709 0.31878 0.41953 0.0
H3364 H 0.53979 0.30683 0.44672 0.0
H3365 H 0.55071 0.35046 0.40963 0.0
H3366 H 0.58846 0.3046 0.41589 0.0
H3367 H 0.61058 0.28825 0.4307 0.0
H3368 H 0.64802 0.33322 0.43441 0.0
H3369 H 0.62604 0.34993 0.41982 0.0
C3370 C 0.5835 0.35805 0.33447 0.0
C3371 C 0.5976 0.37072 0.33383 0.0
C3372 C 0.57879 0.35295 0.35051 0.0
C3373 C 0.58816 0.36036 0.36615 0.0
C3374 C 0.60207 0.37317 0.36559 0.0
C3375 C 0.60662 0.37845 0.34958 0.0
C3376 C 0.58376 0.35433 0.38308 0.0
C3377 C 0.59618 0.34584 0.3927 0.0
C3378 C 0.56718 0.35601 0.38921 0.0
C3379 C 0.55382 0.36543 0.3798 0.0
C3380 C 0.55776 0.38277 0.37602 0.0
C3381 C 0.54518 0.3915 0.36699 0.0
C3382 C 0.5286 0.38304 0.3617 0.0
C3383 C 0.52452 0.36586 0.36554 0.0
C3384 C 0.53704 0.35708 0.37459 0.0
C3385 C 0.57802 0.33088 0.462 0.0
C3386 C 0.56281 0.31953 0.46224 0.0
C3387 C 0.58204 0.3379 0.44655 0.0
C3388 C 0.5711 0.33347 0.43101 0.0
C3389 C 0.55575 0.32236 0.43134 0.0
C3390 C 0.55163 0.31549 0.44683 0.0
C3391 C 0.57571 0.34028 0.41438 0.0
C3392 C 0.56333 0.34891 0.40476 0.0
C3393 C 0.59231 0.33857 0.40814 0.0
C3394 C 0.60554 0.32857 0.41694 0.0
C3395 C 0.60137 0.31105 0.41999 0.0
C3396 C 0.61389 0.30171 0.42832 0.0
C3397 C 0.63068 0.30971 0.43354 0.0
C3398 C 0.635 0.32705 0.43039 0.0
C3399 C 0.62252 0.33646 0.42208 0.0
H3400 H 0.64035 0.30245 0.43998 0.0
H3401 H 0.51889 0.38981 0.35468 0.0
H3402 H 0.02891 0.27183 0.71523 0.0
H3403 H 0.02041 0.27291 0.68416 0.0
H3404 H 0.97159 0.29233 0.69637 0.0
H3405 H 0.9801 0.29151 0.72751 0.0
H3406 H 0.99482 0.2562 0.66352 0.0
H3407 H 0.95754 0.31834 0.66496 0.0
H3408 H 0.95748 0.3464 0.68285 0.0
H3409 H 0.01159 0.34449 0.70044 0.0
H3410 H 0.0121 0.31669 0.68232 0.0
H3411 H 0.94185 0.25966 0.58442 0.0
H3412 H 0.95169 0.26155 0.61565 0.0
H3413 H 0.99247 0.30141 0.60837 0.0
H3414 H 0.98274 0.29955 0.57714 0.0
H3415 H 0.9751 0.30902 0.63816 0.0
H3416 H 0.00332 0.2618 0.61137 0.0
H3417 H 0.00451 0.23416 0.5931 0.0
H3418 H 0.97127 0.2072 0.62603 0.0
H3419 H 0.96968 0.23475 0.64436 0.0
C3420 C 0.0164 0.27642 0.71133 0.0
C3421 C 0.0052 0.28163 0.72386 0.0
C3422 C 0.01156 0.27703 0.69354 0.0
C3423 C 0.99549 0.28297 0.68791 0.0
C3424 C 0.98422 0.28806 0.7004 0.0
C3425 C 0.98907 0.28749 0.7182 0.0
C3426 C 0.99032 0.28325 0.66895 0.0
C3427 C 0.99054 0.26778 0.65801 0.0
C3428 C 0.98483 0.29839 0.66169 0.0
C3429 C 0.98481 0.31532 0.67239 0.0
C3430 C 0.96946 0.32397 0.67255 0.0
C3431 C 0.96935 0.33984 0.68273 0.0
C3432 C 0.98453 0.34725 0.69276 0.0
C3433 C 0.99986 0.33879 0.69262 0.0
C3434 C 6e-05 0.32297 0.6824 0.0
C3435 C 0.95287 0.26887 0.58952 0.0
C3436 C 0.96161 0.27934 0.57837 0.0
C3437 C 0.95848 0.26992 0.60731 0.0
C3438 C 0.97289 0.28152 0.61425 0.0
C3439 C 0.98134 0.29237 0.60324 0.0
C3440 C 0.97581 0.29123 0.5854 0.0
C3441 C 0.97943 0.28195 0.63292 0.0
C3442 C 0.97942 0.2975 0.64375 0.0
C3443 C 0.98526 0.26696 0.64009 0.0
C3444 C 0.98625 0.25037 0.62913 0.0
C3445 C 0.99615 0.25 0.61463 0.0
C3446 C 0.99691 0.23435 0.60428 0.0
C3447 C 0.98793 0.21894 0.60837 0.0
C3448 C 0.9782 0.21915 0.62286 0.0
C3449 C 0.97738 0.23478 0.63324 0.0
H3450 H 0.98854 0.20684 0.60034 0.0
H3451 H 0.98443 0.35954 0.70062 0.0
H3452 H 0.34307 0.74711 0.14686 0.0
H3453 H 0.35364 0.73459 0.12002 0.0
H3454 H 0.38244 0.69955 0.1495 0.0
H3455 H 0.37202 0.71207 0.17645 0.0
H3456 H 0.40301 0.71829 0.12987 0.0
H3457 H 0.34806 0.6837 0.12068 0.0
H3458 H 0.31597 0.67795 0.11831 0.0
H3459 H 0.3116 0.71006 0.07559 0.0
H3460 H 0.34367 0.71623 0.07787 0.0
H3461 H 0.43689 0.67996 0.05467 0.0
H3462 H 0.42138 0.68349 0.08101 0.0
H3463 H 0.38745 0.71718 0.05545 0.0
H3464 H 0.40254 0.71327 0.02899 0.0
H3465 H 0.36907 0.69611 0.07369 0.0
H3466 H 0.42282 0.73354 0.08483 0.0
H3467 H 0.45477 0.74069 0.08728 0.0
H3468 H 0.46106 0.70478 0.12647 0.0
H3469 H 0.42914 0.69725 0.12409 0.0
C3470 C 0.35136 0.7365 0.14761 0.0
C3471 C 0.35684 0.73072 0.16383 0.0
C3472 C 0.35734 0.7293 0.13223 0.0
C3473 C 0.36883 0.71614 0.13277 0.0
C3474 C 0.3736 0.70972 0.14881 0.0
C3475 C 0.36759 0.71687 0.1642 0.0
C3476 C 0.37731 0.71048 0.11696 0.0
C3477 C 0.3956 0.71307 0.11768 0.0
C3478 C 0.3676 0.7042 0.10094 0.0
C3479 C 0.34829 0.70054 0.09954 0.0
C3480 C 0.34026 0.68966 0.11088 0.0
C3481 C 0.32207 0.6863 0.10953 0.0
C3482 C 0.31175 0.69366 0.09683 0.0
C3483 C 0.31961 0.70438 0.08543 0.0
C3484 C 0.3378 0.70779 0.08673 0.0
C3485 C 0.42606 0.68805 0.05469 0.0
C3486 C 0.42096 0.69638 0.03985 0.0
C3487 C 0.41725 0.69009 0.06974 0.0
C3488 C 0.40339 0.70079 0.07029 0.0
C3489 C 0.39808 0.70885 0.05532 0.0
C3490 C 0.40677 0.70666 0.04023 0.0
C3491 C 0.39475 0.70405 0.0866 0.0
C3492 C 0.37646 0.70109 0.08595 0.0
C3493 C 0.40443 0.71018 0.1027 0.0
C3494 C 0.42362 0.71468 0.10413 0.0
C3495 C 0.43103 0.72706 0.09387 0.0
C3496 C 0.44913 0.73121 0.09526 0.0
C3497 C 0.45994 0.72315 0.10698 0.0
C3498 C 0.45267 0.71098 0.11737 0.0
C3499 C 0.43458 0.70677 0.11601 0.0
H3500 H 0.47395 0.72638 0.10805 0.0
H3501 H 0.29767 0.69104 0.0958 0.0
H3502 H 0.00333 0.69299 0.75531 0.0
H3503 H 0.01314 0.70895 0.78374 0.0
H3504 H 0.98018 0.67272 0.80896 0.0
H3505 H 0.97011 0.6569 0.78067 0.0
H3506 H 0.9794 0.70563 0.82344 0.0
H3507 H 0.02363 0.66802 0.80714 0.0
H3508 H 0.0449 0.65669 0.78793 0.0
H3509 H 0.07257 0.70775 0.79112 0.0
H3510 H 0.05131 0.71943 0.81018 0.0
H3511 H 0.01971 0.7102 0.90982 0.0
H3512 H 0.00743 0.7017 0.87974 0.0
H3513 H 0.04354 0.74036 0.8614 0.0
H3514 H 0.05605 0.74879 0.89155 0.0
H3515 H 0.04286 0.70964 0.8424 0.0
H3516 H 0.00028 0.74657 0.86147 0.0
H3517 H 0.9791 0.75765 0.88089 0.0
H3518 H 0.94833 0.70808 0.87276 0.0
H3519 H 0.96947 0.69661 0.85348 0.0
C3520 C 0.99801 0.68854 0.76689 0.0
C3521 C 0.98606 0.67357 0.76574 0.0
C3522 C 0.00368 0.69764 0.78313 0.0
C3523 C 0.99758 0.69187 0.7985 0.0
C3524 C 0.98508 0.67739 0.79728 0.0
C3525 C 0.9794 0.66832 0.78108 0.0
C3526 C 0.00482 0.70023 0.81595 0.0
C3527 C 0.99326 0.70643 0.82764 0.0
C3528 C 0.02295 0.70165 0.82128 0.0
C3529 C 0.03578 0.69463 0.80991 0.0
C3530 C 0.03418 0.67685 0.80363 0.0
C3531 C 0.04624 0.67037 0.79279 0.0
C3532 C 0.06005 0.68151 0.78826 0.0
C3533 C 0.06185 0.69915 0.79461 0.0
C3534 C 0.0498 0.7057 0.80543 0.0
C3535 C 0.02497 0.71698 0.89941 0.0
C3536 C 0.03884 0.73019 0.90299 0.0
C3537 C 0.01787 0.71217 0.88222 0.0
C3538 C 0.02443 0.72053 0.86833 0.0
C3539 C 0.03824 0.73377 0.87192 0.0
C3540 C 0.04534 0.7386 0.88911 0.0
C3541 C 0.01741 0.71484 0.85002 0.0
C3542 C 0.02902 0.7091 0.83816 0.0
C3543 C 0.99932 0.71383 0.84456 0.0
C3544 C 0.98655 0.72069 0.85613 0.0
C3545 C 0.98907 0.73798 0.86393 0.0
C3546 C 0.97706 0.74435 0.8749 0.0
C3547 C 0.9624 0.73357 0.87809 0.0
C3548 C 0.9597 0.71641 0.87029 0.0
C3549 C 0.97169 0.70998 0.85932 0.0
H3550 H 0.95311 0.73852 0.88658 0.0
H3551 H 0.06938 0.67646 0.77986 0.0
H3552 H 0.62458 0.37962 0.65956 0.0
H3553 H 0.59691 0.39259 0.66132 0.0
H3554 H 0.61931 0.4395 0.64193 0.0
H3555 H 0.64721 0.42673 0.64043 0.0
H3556 H 0.60005 0.44726 0.66853 0.0
H3557 H 0.59211 0.4096 0.61528 0.0
H3558 H 0.59223 0.38198 0.59668 0.0
H3559 H 0.5545 0.35706 0.6266 0.0
H3560 H 0.55437 0.38445 0.64559 0.0
H3561 H 0.51851 0.48189 0.64805 0.0
H3562 H 0.54716 0.47055 0.64664 0.0
H3563 H 0.52691 0.42247 0.66548 0.0
H3564 H 0.49825 0.43361 0.66663 0.0
H3565 H 0.54542 0.41594 0.63845 0.0
H3566 H 0.5539 0.4536 0.69208 0.0
H3567 H 0.5539 0.48127 0.71063 0.0
H3568 H 0.59061 0.50634 0.67971 0.0
H3569 H 0.59066 0.47886 0.66084 0.0
C3570 C 0.62366 0.39271 0.65569 0.0
C3571 C 0.63809 0.40211 0.64977 0.0
C3572 C 0.6078 0.40008 0.65664 0.0
C3573 C 0.60596 0.41692 0.65152 0.0
C3574 C 0.62042 0.42647 0.6459 0.0
C3575 C 0.63634 0.41913 0.645 0.0
C3576 C 0.58889 0.42448 0.65194 0.0
C3577 C 0.58813 0.44054 0.66175 0.0
C3578 C 0.57329 0.41555 0.64336 0.0
C3579 C 0.57333 0.39905 0.63195 0.0
C3580 C 0.58394 0.39819 0.61799 0.0
C3581 C 0.584 0.38258 0.60736 0.0
C3582 C 0.57339 0.36778 0.61046 0.0
C3583 C 0.56272 0.36854 0.62422 0.0
C3584 C 0.56264 0.3841 0.63491 0.0
C3585 C 0.52022 0.46892 0.65192 0.0
C3586 C 0.50617 0.45865 0.65742 0.0
C3587 C 0.5366 0.46248 0.65119 0.0
C3588 C 0.53924 0.44571 0.65612 0.0
C3589 C 0.52518 0.43544 0.66162 0.0
C3590 C 0.50881 0.44185 0.66229 0.0
C3591 C 0.55653 0.43865 0.65517 0.0
C3592 C 0.55733 0.42268 0.64522 0.0
C3593 C 0.57215 0.44769 0.66359 0.0
C3594 C 0.57214 0.46422 0.67494 0.0
C3595 C 0.56186 0.46505 0.68915 0.0
C3596 C 0.56188 0.48069 0.69974 0.0
C3597 C 0.57221 0.49557 0.69632 0.0
C3598 C 0.58259 0.49482 0.68233 0.0
C3599 C 0.58262 0.47921 0.67169 0.0
H3600 H 0.5722 0.50766 0.70453 0.0
H3601 H 0.57338 0.35574 0.60216 0.0
H3602 H 0.82892 0.58716 0.2398 0.0
H3603 H 0.85666 0.57407 0.23925 0.0
H3604 H 0.88339 0.62061 0.2678 0.0
H3605 H 0.85573 0.63392 0.26821 0.0
H3606 H 0.90138 0.60899 0.2413 0.0
H3607 H 0.87401 0.5843 0.28841 0.0
H3608 H 0.85024 0.56887 0.3022 0.0
H3609 H 0.85217 0.52329 0.2666 0.0
H3610 H 0.8758 0.53853 0.25243 0.0
H3611 H 0.98042 0.57417 0.26893 0.0
H3612 H 0.95271 0.58744 0.26781 0.0
H3613 H 0.9267 0.54031 0.23971 0.0
H3614 H 0.95441 0.52686 0.241 0.0
H3615 H 0.90822 0.55209 0.26547 0.0
H3616 H 0.93604 0.57665 0.21869 0.0
H3617 H 0.95977 0.59214 0.20492 0.0
H3618 H 0.95705 0.63801 0.2399 0.0
H3619 H 0.93345 0.62271 0.25405 0.0
C3620 C 0.84069 0.59464 0.24594 0.0
C3621 C 0.8401 0.61156 0.25413 0.0
C3622 C 0.85653 0.58711 0.24567 0.0
C3623 C 0.87205 0.59629 0.25367 0.0
C3624 C 0.87156 0.61329 0.26157 0.0
C3625 C 0.85572 0.62085 0.26184 0.0
C3626 C 0.8888 0.58812 0.25391 0.0
C3627 C 0.90296 0.59665 0.24678 0.0
C3628 C 0.89071 0.57184 0.2607 0.0
C3629 C 0.87655 0.56262 0.26925 0.0
C3630 C 0.86927 0.57103 0.28343 0.0
C3631 C 0.85584 0.56231 0.29134 0.0
C3632 C 0.84967 0.54513 0.28525 0.0
C3633 C 0.85695 0.53661 0.27128 0.0
C3634 C 0.87037 0.54527 0.26332 0.0
C3635 C 0.96882 0.56665 0.26246 0.0
C3636 C 0.96955 0.54948 0.25498 0.0
C3637 C 0.95301 0.57428 0.26177 0.0
C3638 C 0.93767 0.56494 0.2535 0.0
C3639 C 0.93838 0.54776 0.24612 0.0
C3640 C 0.95419 0.54012 0.24682 0.0
C3641 C 0.92083 0.57295 0.25287 0.0
C3642 C 0.90664 0.5644 0.25995 0.0
C3643 C 0.91891 0.58923 0.24604 0.0
C3644 C 0.93309 0.59847 0.23754 0.0
C3645 C 0.9406 0.58999 0.22355 0.0
C3646 C 0.95401 0.59875 0.21565 0.0
C3647 C 0.95994 0.61604 0.22156 0.0
C3648 C 0.95245 0.62461 0.23535 0.0
C3649 C 0.93905 0.61591 0.2433 0.0
H3650 H 0.97032 0.62279 0.21543 0.0
H3651 H 0.83927 0.5384 0.29139 0.0
H3652 H 0.21244 0.04726 0.33707 0.0
H3653 H 0.18369 0.03101 0.33544 0.0
H3654 H 0.20778 0.98247 0.33383 0.0
H3655 H 0.23663 0.99865 0.33506 0.0
H3656 H 0.18062 0.9802 0.31013 0.0
H3657 H 0.19088 0.9992 0.37098 0.0
H3658 H 0.19859 0.02035 0.39686 0.0
H3659 H 0.15466 0.04843 0.38229 0.0
H3660 H 0.14682 0.02759 0.35617 0.0
H3661 H 0.10355 0.92783 0.324 0.0
H3662 H 0.13301 0.94308 0.32859 0.0
H3663 H 0.11115 0.99251 0.32537 0.0
H3664 H 0.08168 0.97734 0.32082 0.0
H3665 H 0.13747 0.99343 0.35247 0.0
H3666 H 0.12824 0.9746 0.2909 0.0
H3667 H 0.12082 0.95312 0.26523 0.0
H3668 H 0.16333 0.92407 0.28194 0.0
H3669 H 0.17085 0.94526 0.30786 0.0
C3670 C 0.21165 0.03313 0.33643 0.0
C3671 C 0.22684 0.02425 0.33621 0.0
C3672 C 0.19519 0.02386 0.33559 0.0
C3673 C 0.19358 0.00552 0.33475 0.0
C3674 C 0.20871 0.99661 0.3345 0.0
C3675 C 0.22519 0.00588 0.33524 0.0
C3676 C 0.17606 0.99567 0.33363 0.0
C3677 C 0.17131 0.9829 0.31957 0.0
C3678 C 0.16376 0.99941 0.34575 0.0
C3679 C 0.16835 0.01191 0.36152 0.0
C3680 C 0.18293 0.00996 0.37322 0.0
C3681 C 0.18732 0.02188 0.38795 0.0
C3682 C 0.17715 0.03575 0.3912 0.0
C3683 C 0.16254 0.03769 0.37975 0.0
C3684 C 0.15811 0.02582 0.36499 0.0
C3685 C 0.10506 0.94196 0.32437 0.0
C3686 C 0.09038 0.95139 0.32197 0.0
C3687 C 0.12186 0.95064 0.32694 0.0
C3688 C 0.12425 0.9689 0.32715 0.0
C3689 C 0.10957 0.9784 0.32523 0.0
C3690 C 0.09275 0.96971 0.32257 0.0
C3691 C 0.14209 0.97807 0.32896 0.0
C3692 C 0.14687 0.9907 0.34313 0.0
C3693 C 0.15446 0.97413 0.31702 0.0
C3694 C 0.14999 0.96141 0.30141 0.0
C3695 C 0.13591 0.96355 0.28918 0.0
C3696 C 0.1317 0.95144 0.27457 0.0
C3697 C 0.14156 0.93721 0.27198 0.0
C3698 C 0.15568 0.93508 0.28398 0.0
C3699 C 0.15993 0.94714 0.29862 0.0
H3700 H 0.13829 0.92785 0.26066 0.0
H3701 H 0.18056 0.04497 0.4026 0.0
H3702 H 0.28284 0.03795 0.72683 0.0
H3703 H 0.31294 0.05128 0.72844 0.0
H3704 H 0.33207 0.00116 0.73561 0.0
H3705 H 0.30207 0.98781 0.73433 0.0
H3706 H 0.35033 0.02608 0.75737 0.0
H3707 H 0.33133 0.01828 0.69599 0.0
H3708 H 0.31199 0.02143 0.66951 0.0
H3709 H 0.32174 0.07728 0.67807 0.0
H3710 H 0.34094 0.07447 0.70476 0.0
H3711 H 0.43715 0.041 0.73433 0.0
H3712 H 0.40653 0.03057 0.73582 0.0
H3713 H 0.39166 0.08275 0.73095 0.0
H3714 H 0.42235 0.09326 0.72932 0.0
H3715 H 0.37092 0.05852 0.709 0.0
H3716 H 0.39145 0.06587 0.76977 0.0
H3717 H 0.41103 0.06218 0.79592 0.0
H3718 H 0.39874 0.00656 0.78808 0.0
H3719 H 0.37926 0.0099 0.76172 0.0
C3720 C 0.29345 0.02977 0.72878 0.0
C3721 C 0.29005 0.01179 0.73037 0.0
C3722 C 0.31065 0.0374 0.72964 0.0
C3723 C 0.32477 0.02718 0.73194 0.0
C3724 C 0.32139 0.0093 0.73382 0.0
C3725 C 0.30422 0.00168 0.73302 0.0
C3726 C 0.34308 0.03502 0.73228 0.0
C3727 C 0.35487 0.03302 0.74671 0.0
C3728 C 0.34891 0.04443 0.71856 0.0
C3729 C 0.33741 0.04616 0.70249 0.0
C3730 C 0.32923 0.03124 0.69231 0.0
C3731 C 0.31831 0.03296 0.67725 0.0
C3732 C 0.31558 0.04954 0.67215 0.0
C3733 C 0.32382 0.06444 0.68206 0.0
C3734 C 0.33473 0.06279 0.69715 0.0
C3735 C 0.42739 0.05028 0.73366 0.0
C3736 C 0.43211 0.06797 0.73168 0.0
C3737 C 0.4099 0.04431 0.73459 0.0
C3738 C 0.39683 0.05591 0.73362 0.0
C3739 C 0.40154 0.07359 0.73174 0.0
C3740 C 0.41905 0.07958 0.73087 0.0
C3741 C 0.3782 0.04944 0.73402 0.0
C3742 C 0.36634 0.05169 0.71971 0.0
C3743 C 0.37233 0.04018 0.74781 0.0
C3744 C 0.38402 0.03813 0.76368 0.0
C3745 C 0.39303 0.05284 0.77353 0.0
C3746 C 0.40409 0.05082 0.78841 0.0
C3747 C 0.40616 0.03415 0.79363 0.0
C3748 C 0.39714 0.01947 0.78401 0.0
C3749 C 0.38607 0.02142 0.76911 0.0
H3750 H 0.41473 0.0326 0.80515 0.0
H3751 H 0.30711 0.05083 0.66049 0.0
H3752 H 0.66336 0.66237 0.41856 0.0
H3753 H 0.67062 0.63459 0.42903 0.0
H3754 H 0.62658 0.60777 0.39637 0.0
H3755 H 0.61941 0.63543 0.38562 0.0
H3756 H 0.65406 0.61137 0.44663 0.0
H3757 H 0.63711 0.56748 0.38119 0.0
H3758 H 0.63777 0.56934 0.34956 0.0
H3759 H 0.67638 0.6134 0.35929 0.0
H3760 H 0.67627 0.61153 0.39102 0.0
H3761 H 0.64823 0.52171 0.46233 0.0
H3762 H 0.64325 0.5508 0.45359 0.0
H3763 H 0.68723 0.54945 0.42255 0.0
H3764 H 0.69182 0.52015 0.43078 0.0
H3765 H 0.66201 0.56092 0.40464 0.0
H3766 H 0.68867 0.57518 0.46269 0.0
H3767 H 0.69293 0.57372 0.49457 0.0
H3768 H 0.64199 0.59095 0.50001 0.0
H3769 H 0.63733 0.59229 0.46812 0.0
C3770 C 0.6552 0.65056 0.41361 0.0
C3771 C 0.64081 0.65112 0.40124 0.0
C3772 C 0.65933 0.6347 0.41967 0.0
C3773 C 0.64922 0.61908 0.41343 0.0
C3774 C 0.6347 0.61963 0.40124 0.0
C3775 C 0.63058 0.63547 0.39515 0.0
C3776 C 0.65402 0.60219 0.41945 0.0
C3777 C 0.65577 0.60032 0.43745 0.0
C3778 C 0.6567 0.5879 0.40753 0.0
C3779 C 0.65656 0.58943 0.38849 0.0
C3780 C 0.64575 0.57755 0.37658 0.0
C3781 C 0.64605 0.57861 0.35862 0.0
C3782 C 0.65711 0.5915 0.35241 0.0
C3783 C 0.6678 0.60345 0.36413 0.0
C3784 C 0.66763 0.60239 0.38211 0.0
C3785 C 0.65685 0.52769 0.4537 0.0
C3786 C 0.67034 0.51867 0.44718 0.0
C3787 C 0.65407 0.54435 0.44879 0.0
C3788 C 0.66497 0.55245 0.43754 0.0
C3789 C 0.67861 0.54348 0.4312 0.0
C3790 C 0.68124 0.52674 0.43593 0.0
C3791 C 0.66177 0.56994 0.43183 0.0
C3792 C 0.66027 0.57193 0.41385 0.0
C3793 C 0.65985 0.58447 0.44382 0.0
C3794 C 0.66259 0.58368 0.463 0.0
C3795 C 0.67832 0.57853 0.47067 0.0
C3796 C 0.68082 0.57774 0.48875 0.0
C3797 C 0.66772 0.5822 0.49931 0.0
C3798 C 0.65211 0.58748 0.49182 0.0
C3799 C 0.64955 0.58827 0.47374 0.0
H3800 H 0.66968 0.58158 0.5133 0.0
H3801 H 0.65755 0.59211 0.33852 0.0
H3802 H 0.73392 0.28479 0.03448 0.0
H3803 H 0.7375 0.31401 0.05019 0.0
H3804 H 0.72584 0.33664 0.00175 0.0
H3805 H 0.72243 0.30759 0.98597 0.0
H3806 H 0.75394 0.35403 0.02064 0.0
H3807 H 0.69534 0.33187 0.03157 0.0
H3808 H 0.67358 0.311 0.0423 0.0
H3809 H 0.70032 0.31965 0.09387 0.0
H3810 H 0.72233 0.34042 0.08342 0.0
H3811 H 0.73073 0.43793 0.04415 0.0
H3812 H 0.73132 0.4074 0.03345 0.0
H3813 H 0.74261 0.39419 0.08623 0.0
H3814 H 0.74179 0.42497 0.09715 0.0
H3815 H 0.71779 0.37112 0.0684 0.0
H3816 H 0.77456 0.3952 0.0587 0.0
H3817 H 0.79663 0.41615 0.04864 0.0
H3818 H 0.77438 0.40373 0.99563 0.0
H3819 H 0.75201 0.38288 0.0054 0.0
C3820 C 0.73205 0.29599 0.02719 0.0
C3821 C 0.72781 0.29386 0.00898 0.0
C3822 C 0.73407 0.31267 0.0362 0.0
C3823 C 0.73178 0.32749 0.02716 0.0
C3824 C 0.72767 0.32538 0.00898 0.0
C3825 C 0.72566 0.30875 -1e-05 0.0
C3826 C 0.73381 0.34528 0.03647 0.0
C3827 C 0.74593 0.35781 0.03099 0.0
C3828 C 0.72384 0.35003 0.05042 0.0
C3829 C 0.7106 0.33753 0.05666 0.0
C3830 C 0.69665 0.3292 0.04517 0.0
C3831 C 0.68426 0.31742 0.05121 0.0
C3832 C 0.68562 0.31395 0.06874 0.0
C3833 C 0.69931 0.32232 0.08029 0.0
C3834 C 0.71174 0.3341 0.07432 0.0
C3835 C 0.7334 0.4286 0.05353 0.0
C3836 C 0.73628 0.43385 0.07153 0.0
C3837 C 0.73382 0.41112 0.04736 0.0
C3838 C 0.73727 0.39854 0.05901 0.0
C3839 C 0.74001 0.4037 0.07701 0.0
C3840 C 0.73958 0.42125 0.08322 0.0
C3841 C 0.73756 0.37999 0.05222 0.0
C3842 C 0.72593 0.36731 0.05819 0.0
C3843 C 0.74806 0.37505 0.03878 0.0
C3844 C 0.76152 0.38756 0.03281 0.0
C3845 C 0.77429 0.39703 0.04491 0.0
C3846 C 0.78687 0.40887 0.03926 0.0
C3847 C 0.78688 0.41129 0.02151 0.0
C3848 C 0.77434 0.40184 0.00937 0.0
C3849 C 0.76172 0.39 0.01496 0.0
H3850 H 0.79663 0.42046 0.01715 0.0
H3851 H 0.67608 0.30479 0.07339 0.0
H3852 H 0.26982 0.8423 0.61771 0.0
H3853 H 0.26897 0.87199 0.60911 0.0
H3854 H 0.22793 0.85389 0.56847 0.0
H3855 H 0.22879 0.82407 0.57687 0.0
H3856 H 0.25303 0.87537 0.55672 0.0
H3857 H 0.21859 0.87635 0.60564 0.0
H3858 H 0.2122 0.87214 0.63587 0.0
H3859 H 0.25577 0.90896 0.65558 0.0
H3860 H 0.26256 0.91321 0.62546 0.0
H3861 H 0.23278 0.95956 0.53634 0.0
H3862 H 0.23019 0.92998 0.54575 0.0
H3863 H 0.26986 0.94595 0.58834 0.0
H3864 H 0.27219 0.9756 0.57923 0.0
H3865 H 0.24412 0.92533 0.59895 0.0
H3866 H 0.27948 0.9234 0.55049 0.0
H3867 H 0.28644 0.92752 0.5204 0.0
H3868 H 0.2418 0.89237 0.50002 0.0
H3869 H 0.23444 0.88822 0.53001 0.0
C3870 C 0.26059 0.84461 0.60694 0.0
C3871 C 0.24935 0.83081 0.59798 0.0
C3872 C 0.26007 0.86162 0.60211 0.0
C3873 C 0.24824 0.86518 0.58829 0.0
C3874 C 0.23712 0.85142 0.57921 0.0
C3875 C 0.23762 0.83439 0.58405 0.0
C3876 C 0.24776 0.88322 0.58308 0.0
C3877 C 0.2508 0.88626 0.56587 0.0
C3878 C 0.24527 0.89746 0.59515 0.0
C3879 C 0.24118 0.89498 0.61329 0.0
C3880 C 0.22689 0.88344 0.61642 0.0
C3881 C 0.22318 0.88107 0.63354 0.0
C3882 C 0.2336 0.89024 0.64764 0.0
C3883 C 0.24772 0.90185 0.64465 0.0
C3884 C 0.2515 0.90426 0.62755 0.0
C3885 C 0.24082 0.95675 0.54779 0.0
C3886 C 0.2527 0.96981 0.557 0.0
C3887 C 0.23941 0.93986 0.5531 0.0
C3888 C 0.25004 0.93568 0.56759 0.0
C3889 C 0.26156 0.94887 0.5771 0.0
C3890 C 0.2629 0.9658 0.57186 0.0
C3891 C 0.24946 0.9175 0.5726 0.0
C3892 C 0.24625 0.91443 0.58977 0.0
C3893 C 0.25187 0.90322 0.56052 0.0
C3894 C 0.25631 0.90565 0.54248 0.0
C3895 C 0.27107 0.91666 0.53959 0.0
C3896 C 0.27511 0.91898 0.52255 0.0
C3897 C 0.26454 0.91025 0.50831 0.0
C3898 C 0.24995 0.89915 0.51107 0.0
C3899 C 0.24585 0.89679 0.52808 0.0
H3900 H 0.26769 0.91207 0.49513 0.0
H3901 H 0.23071 0.88838 0.66088 0.0
H3902 H 0.32366 0.22812 0.03657 0.0
H3903 H 0.31629 0.19701 0.02796 0.0
H3904 H 0.28328 0.20923 0.98348 0.0
H3905 H 0.29045 0.24048 0.9921 0.0
H3906 H 0.26897 0.18099 0.99887 0.0
H3907 H 0.3237 0.19965 0.97789 0.0
H3908 H 0.35387 0.21367 0.98031 0.0
H3909 H 0.36993 0.17781 0.01686 0.0
H3910 H 0.33978 0.16373 0.01485 0.0
H3911 H 0.26887 0.09925 0.94775 0.0
H3912 H 0.27181 0.13023 0.95849 0.0
H3913 H 0.30627 0.11939 0.00254 0.0
H3914 H 0.3035 0.08839 0.99174 0.0
H3915 H 0.31931 0.14707 0.9872 0.0
H3916 H 0.26438 0.12792 0.00756 0.0
H3917 H 0.23417 0.11397 0.00478 0.0
H3918 H 0.21842 0.15058 0.96892 0.0
H3919 H 0.2486 0.16462 0.97129 0.0
C3920 C 0.31464 0.22423 0.02509 0.0
C3921 C 0.30781 0.23679 0.0149 0.0
C3922 C 0.31048 0.20643 0.02016 0.0
C3923 C 0.2995 0.20083 0.00491 0.0
C3924 C 0.29185 0.21329 0.99526 0.0
C3925 C 0.29599 0.23114 0.00019 0.0
C3926 C 0.29693 0.18203 0.9985 0.0
C3927 C 0.27993 0.17359 0.99612 0.0
C3928 C 0.31128 0.17236 0.99517 0.0
C3929 C 0.32944 0.18075 0.99635 0.0
C3930 C 0.33363 0.19485 0.98655 0.0
C3931 C 0.35073 0.20279 0.98783 0.0
C3932 C 0.3638 0.19667 0.99877 0.0
C3933 C 0.35979 0.18255 0.00841 0.0
C3934 C 0.3427 0.17458 0.0072 0.0
C3935 C 0.27704 0.10345 0.95974 0.0
C3936 C 0.28602 0.09144 0.96893 0.0
C3937 C 0.27862 0.12115 0.96591 0.0
C3938 C 0.28914 0.12709 0.98139 0.0
C3939 C 0.29807 0.11508 0.99057 0.0
C3940 C 0.29648 0.0974 0.98442 0.0
C3941 C 0.29135 0.14592 0.98773 0.0
C3942 C 0.30831 0.15441 0.99001 0.0
C3943 C 0.27696 0.15561 0.9909 0.0
C3944 C 0.25879 0.14721 0.98946 0.0
C3945 C 0.25451 0.13291 0.99896 0.0
C3946 C 0.23738 0.125 0.99749 0.0
C3947 C 0.22439 0.13135 0.98664 0.0
C3948 C 0.2285 0.14566 0.97729 0.0
C3949 C 0.24561 0.15361 0.97871 0.0
H3950 H 0.21114 0.12522 0.98552 0.0
H3951 H 0.37703 0.20283 0.99974 0.0
H3952 H 0.35591 0.66111 0.62722 0.0
H3953 H 0.36815 0.66167 0.59908 0.0
H3954 H 0.41846 0.65205 0.62345 0.0
H3955 H 0.40636 0.65184 0.65174 0.0
H3956 H 0.42189 0.67687 0.60171 0.0
H3957 H 0.39198 0.61928 0.59829 0.0
H3958 H 0.36701 0.59751 0.59987 0.0
H3959 H 0.33735 0.62059 0.55963 0.0
H3960 H 0.36215 0.6426 0.5579 0.0
H3961 H 0.46098 0.65535 0.52364 0.0
H3962 H 0.4488 0.65382 0.55186 0.0
H3963 H 0.39849 0.66436 0.52821 0.0
H3964 H 0.41052 0.66565 0.49997 0.0
H3965 H 0.3951 0.63874 0.54959 0.0
H3966 H 0.42489 0.69634 0.55307 0.0
H3967 H 0.44983 0.7182 0.55148 0.0
H3968 H 0.47947 0.69539 0.59191 0.0
H3969 H 0.45477 0.67323 0.59357 0.0
C3970 C 0.36956 0.65907 0.62659 0.0
C3971 C 0.38013 0.65633 0.64169 0.0
C3972 C 0.37653 0.65932 0.61047 0.0
C3973 C 0.39416 0.65663 0.60909 0.0
C3974 C 0.40481 0.65413 0.6242 0.0
C3975 C 0.39788 0.65402 0.64036 0.0
C3976 C 0.40154 0.65669 0.59194 0.0
C3977 C 0.4162 0.66834 0.59038 0.0
C3978 C 0.39383 0.64588 0.57705 0.0
C3979 C 0.37889 0.63265 0.57804 0.0
C3980 C 0.3801 0.61978 0.58985 0.0
C3981 C 0.36597 0.60738 0.59075 0.0
C3982 C 0.35057 0.60766 0.57986 0.0
C3983 C 0.34929 0.62035 0.56803 0.0
C3984 C 0.36339 0.63277 0.56706 0.0
C3985 C 0.44731 0.6573 0.52449 0.0
C3986 C 0.43673 0.66066 0.50965 0.0
C3987 C 0.44039 0.65649 0.54061 0.0
C3988 C 0.42277 0.65918 0.54219 0.0
C3989 C 0.41211 0.66226 0.52729 0.0
C3990 C 0.41903 0.66304 0.51117 0.0
C3991 C 0.41549 0.6589 0.55938 0.0
C3992 C 0.40083 0.64723 0.56094 0.0
C3993 C 0.42318 0.66971 0.57428 0.0
C3994 C 0.43804 0.68302 0.57331 0.0
C3995 C 0.43678 0.6959 0.56152 0.0
C3996 C 0.45086 0.70836 0.56062 0.0
C3997 C 0.46624 0.70815 0.57155 0.0
C3998 C 0.46755 0.69551 0.58343 0.0
C3999 C 0.45351 0.68301 0.58436 0.0
H4000 H 0.47713 0.71782 0.57084 0.0
H4001 H 0.33964 0.59805 0.58054 0.0
H4002 H 0.02405 0.71626 0.2972 0.0
H4003 H 0.03517 0.71538 0.32775 0.0
H4004 H 0.01591 0.76529 0.34085 0.0
H4005 H 0.00455 0.76617 0.31043 0.0
H4006 H 0.05883 0.73597 0.34926 0.0
H4007 H 0.00164 0.76592 0.38139 0.0
H4008 H 0.96998 0.76774 0.37494 0.0
H4009 H 0.96618 0.71998 0.34132 0.0
H4010 H 0.99775 0.71776 0.34775 0.0
H4011 H 0.08342 0.75956 0.43965 0.0
H4012 H 0.07246 0.75995 0.40891 0.0
H4013 H 0.03317 0.71798 0.4144 0.0
H4014 H 0.04383 0.71778 0.44513 0.0
H4015 H 0.01925 0.74177 0.39649 0.0
H4016 H 0.07029 0.71055 0.39414 0.0
H4017 H 0.10137 0.70584 0.40029 0.0
H4018 H 0.11643 0.7508 0.37388 0.0
H4019 H 0.08544 0.75591 0.36777 0.0
C4020 C 0.02219 0.72706 0.30657 0.0
C4021 C 0.01331 0.74124 0.30138 0.0
C4022 C 0.02861 0.72656 0.32402 0.0
C4023 C 0.02621 0.74017 0.33663 0.0
C4024 C 0.01767 0.75451 0.33141 0.0
C4025 C 0.01123 0.75501 0.31398 0.0
C4026 C 0.03247 0.7393 0.35525 0.0
C4027 C 0.05019 0.73727 0.35959 0.0
C4028 C 0.02114 0.74069 0.36872 0.0
C4029 C 0.00209 0.74179 0.36492 0.0
C4030 C 0.99403 0.75578 0.37267 0.0
C4031 C 0.9761 0.75688 0.36901 0.0
C4032 C 0.96609 0.74402 0.35768 0.0
C4033 C 0.97396 0.72998 0.35004 0.0
C4034 C 0.99188 0.72881 0.35367 0.0
C4035 C 0.07242 0.75046 0.43427 0.0
C4036 C 0.0645 0.73865 0.44476 0.0
C4037 C 0.06622 0.75063 0.41671 0.0
C4038 C 0.05211 0.73886 0.40928 0.0
C4039 C 0.04406 0.72719 0.41983 0.0
C4040 C 0.0502 0.72706 0.4374 0.0
C4041 C 0.04568 0.73868 0.39054 0.0
C4042 C 0.02793 0.74054 0.38617 0.0
C4043 C 0.05691 0.73676 0.37702 0.0
C4044 C 0.07555 0.7337 0.38065 0.0
C4045 C 0.08024 0.7195 0.38976 0.0
C4046 C 0.09784 0.71675 0.39322 0.0
C4047 C 0.11087 0.72804 0.38752 0.0
C4048 C 0.10633 0.74208 0.37831 0.0
C4049 C 0.08874 0.7449 0.37483 0.0
H4050 H 0.12449 0.72588 0.39021 0.0
H4051 H 0.95221 0.7449 0.35485 0.0
H4052 H 0.61555 0.25145 0.81271 0.0
H4053 H 0.60661 0.2608 0.84143 0.0
H4054 H 0.6533 0.24293 0.86615 0.0
H4055 H 0.66221 0.23329 0.8375 0.0
H4056 H 0.62529 0.23344 0.88268 0.0
H4057 H 0.65014 0.28628 0.86228 0.0
H4058 H 0.65377 0.3087 0.84157 0.0
H4059 H 0.60041 0.31977 0.84457 0.0
H4060 H 0.59638 0.29724 0.86512 0.0
H4061 H 0.62302 0.27784 0.96701 0.0
H4062 H 0.63159 0.26797 0.93818 0.0
H4063 H 0.58413 0.28463 0.91381 0.0
H4064 H 0.57558 0.29465 0.94253 0.0
H4065 H 0.61238 0.29467 0.89711 0.0
H4066 H 0.58771 0.24188 0.91779 0.0
H4067 H 0.58429 0.21954 0.93861 0.0
H4068 H 0.63762 0.2085 0.93524 0.0
H4069 H 0.64144 0.23096 0.91458 0.0
C4070 C 0.62392 0.24949 0.82425 0.0
C4071 C 0.63964 0.24169 0.82281 0.0
C4072 C 0.61882 0.2549 0.84066 0.0
C4073 C 0.62941 0.25277 0.85592 0.0
C4074 C 0.64495 0.24473 0.85454 0.0
C4075 C 0.65004 0.23927 0.83814 0.0
C4076 C 0.62428 0.25891 0.87335 0.0
C4077 C 0.62269 0.24688 0.88592 0.0
C4078 C 0.62052 0.27637 0.87743 0.0
C4079 C 0.62291 0.28995 0.8651 0.0
C4080 C 0.63914 0.29339 0.85841 0.0
C4081 C 0.64128 0.30614 0.84672 0.0
C4082 C 0.62732 0.31562 0.84172 0.0
C4083 C 0.6112 0.3124 0.84844 0.0
C4084 C 0.60899 0.29965 0.86012 0.0
C4085 C 0.61444 0.27938 0.95548 0.0
C4086 C 0.59863 0.28692 0.957 0.0
C4087 C 0.6193 0.27368 0.93905 0.0
C4088 C 0.60839 0.27539 0.92388 0.0
C4089 C 0.59271 0.28316 0.92536 0.0
C4090 C 0.58782 0.28882 0.94179 0.0
C4091 C 0.6134 0.2692 0.90643 0.0
C4092 C 0.61497 0.28123 0.89386 0.0
C4093 C 0.61717 0.25176 0.90236 0.0
C4094 C 0.61491 0.23823 0.91477 0.0
C4095 C 0.59875 0.23479 0.9216 0.0
C4096 C 0.59673 0.22209 0.93335 0.0
C4097 C 0.61074 0.21264 0.93828 0.0
C4098 C 0.62679 0.21585 0.93143 0.0
C4099 C 0.62888 0.22855 0.91969 0.0
H4100 H 0.60915 0.20281 0.94737 0.0
H4101 H 0.629 0.32549 0.83267 0.0
H4102 H 0.03692 0.36033 0.23159 0.0
H4103 H 0.02133 0.35675 0.20245 0.0
H4104 H 0.98377 0.3186 0.21946 0.0
H4105 H 0.99957 0.32181 0.24859 0.0
H4106 H 0.99463 0.30686 0.18957 0.0
H4107 H 0.9737 0.36069 0.21128 0.0
H4108 H 0.97552 0.39123 0.22428 0.0
H4109 H 0.00438 0.40801 0.18253 0.0
H4110 H 0.003 0.37758 0.16944 0.0
H4111 H 0.93965 0.30114 0.1097 0.0
H4112 H 0.95064 0.30594 0.14062 0.0
H4113 H 0.99072 0.34428 0.12829 0.0
H4114 H 0.97956 0.33977 0.09742 0.0
H4115 H 0.97626 0.35572 0.15658 0.0
H4116 H 0.99967 0.30256 0.13631 0.0
H4117 H 0.99828 0.27235 0.12256 0.0
H4118 H 0.96568 0.25462 0.16117 0.0
H4119 H 0.96669 0.28478 0.17503 0.0
C4120 C 0.02524 0.3513 0.22921 0.0
C4121 C 0.01952 0.34131 0.24241 0.0
C4122 C 0.01628 0.34933 0.21254 0.0
C4123 C 0.00126 0.33753 0.20878 0.0
C4124 C 0.99532 0.3278 0.22205 0.0
C4125 C 0.00434 0.32968 0.23871 0.0
C4126 C 0.9924 0.3346 0.19077 0.0
C4127 C 0.99031 0.31752 0.18248 0.0
C4128 C 0.98718 0.34855 0.18133 0.0
C4129 C 0.98833 0.36682 0.18943 0.0
C4130 C 0.98059 0.37086 0.20497 0.0
C4131 C 0.98151 0.38816 0.21233 0.0
C4132 C 0.99005 0.40153 0.20421 0.0
C4133 C 0.99776 0.39764 0.18879 0.0
C4134 C 0.99691 0.38037 0.18139 0.0
C4135 C 0.95079 0.3106 0.11359 0.0
C4136 C 0.95881 0.32008 0.10119 0.0
C4137 C 0.95709 0.31328 0.13125 0.0
C4138 C 0.97162 0.32534 0.13675 0.0
C4139 C 0.9795 0.33492 0.12436 0.0
C4140 C 0.97316 0.3323 0.10674 0.0
C4141 C 0.97869 0.32805 0.15539 0.0
C4142 C 0.98044 0.34507 0.16377 0.0
C4143 C 0.98371 0.31409 0.16488 0.0
C4144 C 0.98309 0.29595 0.15658 0.0
C4145 C 0.99209 0.29224 0.14178 0.0
C4146 C 0.99139 0.27512 0.13399 0.0
C4147 C 0.98185 0.26158 0.14096 0.0
C4148 C 0.97303 0.26513 0.15577 0.0
C4149 C 0.97367 0.28223 0.1636 0.0
H4150 H 0.98133 0.24834 0.13491 0.0
H4151 H 0.99061 0.41491 0.20978 0.0
loop_
_geom_bond_atom_site_label_1
_geom_bond_atom_site_label_2
_geom_bond_distance
_geom_bond_site_symmetry_2
_ccdc_geom_bond_type
O0 Cd1 2.300 . S
O0 C7 1.275 . S
Cd1 O0 2.300 . S
Cd1 O9 2.381 . S
Cd1 O10 2.378 . S
O2 Cd3 2.385 . S
O2 C7 1.255 . S
Cd3 O2 2.385 . S
Cd3 O4 2.317 . S
O4 Cd3 2.317 . S
O4 C5 1.232 . S
C5 O4 1.232 . S
C5 O6 1.218 . S
O6 C5 1.218 . S
C7 O0 1.275 . S
C7 O2 1.255 . S
C8 O9 1.258 . S
C8 O10 1.256 . S
O9 Cd1 2.381 . S
O9 C8 1.258 . S
O10 Cd1 2.378 . S
O10 C8 1.256 . S
O11 Cd12 2.300 . S
O11 C18 1.275 . S
Cd12 O11 2.300 . S
Cd12 O20 2.381 . S
Cd12 O21 2.378 . S
O13 Cd14 2.385 . S
O13 C18 1.255 . S
Cd14 O13 2.385 . S
Cd14 O15 2.317 . S
O15 Cd14 2.317 . S
O15 C16 1.232 . S
C16 O15 1.232 . S
C16 O17 1.218 . S
O17 C16 1.218 . S
C18 O11 1.275 . S
C18 O13 1.255 . S
C19 O20 1.258 . S
C19 O21 1.256 . S
O20 Cd12 2.381 . S
O20 C19 1.258 . S
O21 Cd12 2.378 . S
O21 C19 1.256 . S
O22 Cd23 2.279 1_545 S
O22 C29 1.251 1_545 S
Cd23 O22 2.279 1_565 S
Cd23 O31 2.381 1_565 S
Cd23 O32 2.378 . S
O24 Cd25 2.385 . S
O24 C29 1.255 . S
Cd25 O24 2.385 . S
Cd25 O26 2.317 . S
O26 Cd25 2.317 . S
O26 C27 1.232 . S
C27 O26 1.232 . S
C27 O28 1.218 . S
O28 C27 1.218 . S
C29 O22 1.251 1_565 S
C29 O24 1.255 . S
C30 O31 1.258 . S
C30 O32 1.256 1_545 S
O31 Cd23 2.381 1_545 S
O31 C30 1.258 . S
O32 Cd23 2.378 . S
O32 C30 1.256 1_565 S
O33 Cd34 2.300 1_565 S
O33 C40 1.275 1_565 S
Cd34 O33 2.300 1_545 S
Cd34 O42 2.381 1_545 S
Cd34 O43 2.378 . S
O35 Cd36 2.385 . S
O35 C40 1.255 . S
Cd36 O35 2.385 . S
Cd36 O37 2.317 . S
O37 Cd36 2.317 . S
O37 C38 1.232 . S
C38 O37 1.232 . S
C38 O39 1.218 . S
O39 C38 1.218 . S
C40 O33 1.275 1_545 S
C40 O35 1.255 . S
C41 O42 1.258 1_545 S
C41 O43 1.256 . S
O42 Cd34 2.381 1_565 S
O42 C41 1.258 1_565 S
O43 Cd34 2.378 . S
O43 C41 1.256 . S
O44 Cd45 2.300 . S
O44 C51 1.275 . S
Cd45 O44 2.300 . S
Cd45 O53 2.381 . S
Cd45 O54 2.378 . S
O46 Cd47 2.385 . S
O46 C51 1.255 . S
Cd47 O46 2.385 . S
Cd47 O48 2.317 . S
O48 Cd47 2.317 . S
O48 C49 1.232 . S
C49 O48 1.232 . S
C49 O50 1.218 . S
O50 C49 1.218 . S
C51 O44 1.275 . S
C51 O46 1.255 . S
C52 O53 1.258 . S
C52 O54 1.256 . S
O53 Cd45 2.381 . S
O53 C52 1.258 . S
O54 Cd45 2.378 . S
O54 C52 1.256 . S
O55 Cd56 2.300 1_556 S
O55 C62 1.275 1_556 S
Cd56 O55 2.300 1_554 S
Cd56 O64 2.381 1_554 S
Cd56 O65 2.378 . S
O57 Cd58 2.385 . S
O57 C62 1.255 . S
Cd58 O57 2.385 . S
Cd58 O59 2.317 . S
O59 Cd58 2.317 . S
O59 C60 1.232 . S
C60 O59 1.232 . S
C60 O61 1.218 . S
O61 C60 1.218 . S
C62 O55 1.275 1_554 S
C62 O57 1.255 . S
C63 O64 1.258 1_554 S
C63 O65 1.256 . S
O64 Cd56 2.381 1_556 S
O64 C63 1.258 1_556 S
O65 Cd56 2.378 . S
O65 C63 1.256 . S
O66 Cd67 2.300 . S
O66 C73 1.275 . S
Cd67 O66 2.300 . S
Cd67 O75 2.381 . S
Cd67 O76 2.378 . S
O68 Cd69 2.385 . S
O68 C73 1.255 . S
Cd69 O68 2.385 . S
Cd69 O70 2.317 . S
O70 Cd69 2.317 . S
O70 C71 1.232 . S
C71 O70 1.232 . S
C71 O72 1.218 . S
O72 C71 1.218 . S
C73 O66 1.275 . S
C73 O68 1.255 . S
C74 O75 1.258 . S
C74 O76 1.256 . S
O75 Cd67 2.381 . S
O75 C74 1.258 . S
O76 Cd67 2.378 . S
O76 C74 1.256 . S
O77 Cd78 2.279 1_554 S
O77 C84 1.251 1_554 S
Cd78 O77 2.279 1_556 S
Cd78 O86 2.381 1_556 S
Cd78 O87 2.378 . S
O79 Cd80 2.385 . S
O79 C84 1.255 . S
Cd80 O79 2.385 . S
Cd80 O81 2.317 . S
O81 Cd80 2.317 . S
O81 C82 1.232 . S
C82 O81 1.232 . S
C82 O83 1.218 . S
O83 C82 1.218 . S
C84 O77 1.251 1_556 S
C84 O79 1.255 . S
C85 O86 1.258 . S
C85 O87 1.256 1_554 S
O86 Cd78 2.381 1_554 S
O86 C85 1.258 . S
O87 Cd78 2.378 . S
O87 C85 1.256 1_556 S
O88 Cd89 2.300 . S
O88 C95 1.275 . S
Cd89 O88 2.300 . S
Cd89 O97 2.381 . S
Cd89 O98 2.378 . S
O90 Cd91 2.385 . S
O90 C95 1.255 . S
Cd91 O90 2.385 . S
Cd91 O92 2.317 . S
O92 Cd91 2.317 . S
O92 C93 1.232 . S
C93 O92 1.232 . S
C93 O94 1.218 . S
O94 C93 1.218 . S
C95 O88 1.275 . S
C95 O90 1.255 . S
C96 O97 1.258 . S
C96 O98 1.256 . S
O97 Cd89 2.381 . S
O97 C96 1.258 . S
O98 Cd89 2.378 . S
O98 C96 1.256 . S
O99 Cd100 2.300 1_655 S
O99 C106 1.275 1_655 S
Cd100 O99 2.300 1_455 S
Cd100 O108 2.381 1_455 S
Cd100 O109 2.378 . S
O101 Cd102 2.385 . S
O101 C106 1.255 . S
Cd102 O101 2.385 . S
Cd102 O103 2.317 . S
O103 Cd102 2.317 . S
O103 C104 1.232 . S
C104 O103 1.232 . S
C104 O105 1.218 . S
O105 C104 1.218 . S
C106 O99 1.275 1_455 S
C106 O101 1.255 . S
C107 O108 1.258 1_455 S
C107 O109 1.256 . S
O108 Cd100 2.381 1_655 S
O108 C107 1.258 1_655 S
O109 Cd100 2.378 . S
O109 C107 1.256 . S
O110 Cd111 2.300 . S
O110 C117 1.275 . S
Cd111 O110 2.300 . S
Cd111 O119 2.381 . S
Cd111 O120 2.378 . S
O112 Cd113 2.385 . S
O112 C117 1.255 . S
Cd113 O112 2.385 . S
Cd113 O114 2.317 . S
O114 Cd113 2.317 . S
O114 C115 1.232 . S
C115 O114 1.232 . S
C115 O116 1.218 . S
O116 C115 1.218 . S
C117 O110 1.275 . S
C117 O112 1.255 . S
C118 O119 1.258 . S
C118 O120 1.256 . S
O119 Cd111 2.381 . S
O119 C118 1.258 . S
O120 Cd111 2.378 . S
O120 C118 1.256 . S
O121 Cd122 2.279 1_455 S
O121 C128 1.251 1_455 S
Cd122 O121 2.279 1_655 S
Cd122 O130 2.381 1_655 S
Cd122 O131 2.378 . S
O123 Cd124 2.385 . S
O123 C128 1.255 . S
Cd124 O123 2.385 . S
Cd124 O125 2.317 . S
O125 Cd124 2.317 . S
O125 C126 1.232 . S
C126 O125 1.232 . S
C126 O127 1.218 . S
O127 C126 1.218 . S
C128 O121 1.251 1_655 S
C128 O123 1.255 . S
C129 O130 1.258 . S
C129 O131 1.256 1_455 S
O130 Cd122 2.381 1_455 S
O130 C129 1.258 . S
O131 Cd122 2.378 . S
O131 C129 1.256 1_655 S
O132 Cd133 2.300 . S
O132 C139 1.275 . S
Cd133 O132 2.300 . S
Cd133 O141 2.381 . S
Cd133 O142 2.378 . S
O134 Cd135 2.385 . S
O134 C139 1.255 . S
Cd135 O134 2.385 . S
Cd135 O136 2.317 . S
O136 Cd135 2.317 . S
O136 C137 1.232 . S
C137 O136 1.232 . S
C137 O138 1.218 . S
O138 C137 1.218 . S
C139 O132 1.275 . S
C139 O134 1.255 . S
C140 O141 1.258 . S
C140 O142 1.256 . S
O141 Cd133 2.381 . S
O141 C140 1.258 . S
O142 Cd133 2.378 . S
O142 C140 1.256 . S
O143 Cd144 2.300 . S
O143 C150 1.275 . S
Cd144 O143 2.300 . S
Cd144 O152 2.381 . S
Cd144 O153 2.378 . S
O145 Cd146 2.385 . S
O145 C150 1.255 . S
Cd146 O145 2.385 . S
Cd146 O147 2.317 . S
O147 Cd146 2.317 . S
O147 C148 1.232 . S
C148 O147 1.232 . S
C148 O149 1.218 . S
O149 C148 1.218 . S
C150 O143 1.275 . S
C150 O145 1.255 . S
C151 O152 1.258 . S
C151 O153 1.256 . S
O152 Cd144 2.381 . S
O152 C151 1.258 . S
O153 Cd144 2.378 . S
O153 C151 1.256 . S
O154 Cd155 2.300 1_545 S
O154 C161 1.289 . S
Cd155 O154 2.300 1_565 S
Cd155 O163 2.381 1_565 S
Cd155 O164 2.378 . S
O156 Cd157 2.385 . S
O156 C161 1.227 1_565 S
Cd157 O156 2.385 . S
Cd157 O158 2.317 . S
O158 Cd157 2.317 . S
O158 C159 1.232 . S
C159 O158 1.232 . S
C159 O160 1.218 . S
O160 C159 1.218 . S
C161 O154 1.289 . S
C161 O156 1.227 1_545 S
C162 O163 1.258 1_565 S
C162 O164 1.256 . S
O163 Cd155 2.381 1_545 S
O163 C162 1.258 1_545 S
O164 Cd155 2.378 . S
O164 C162 1.256 . S
O165 Cd166 2.300 1_565 S
O165 C172 1.275 1_565 S
Cd166 O165 2.300 1_545 S
Cd166 O174 2.381 1_545 S
Cd166 O175 2.378 . S
O167 Cd168 2.385 . S
O167 C172 1.255 . S
Cd168 O167 2.385 . S
Cd168 O169 2.317 . S
O169 Cd168 2.317 . S
O169 C170 1.232 . S
C170 O169 1.232 . S
C170 O171 1.218 . S
O171 C170 1.218 . S
C172 O165 1.275 1_545 S
C172 O167 1.255 . S
C173 O174 1.219 1_545 S
C173 O175 1.303 . S
O174 Cd166 2.381 1_565 S
O174 C173 1.219 1_565 S
O175 Cd166 2.378 . S
O175 C173 1.303 . S
O176 Cd177 2.300 . S
O176 C183 1.275 . S
Cd177 O176 2.300 . S
Cd177 O185 2.381 . S
Cd177 O186 2.378 . S
O178 Cd179 2.385 . S
O178 C183 1.255 . S
Cd179 O178 2.385 . S
Cd179 O180 2.317 . S
O180 Cd179 2.317 . S
O180 C181 1.232 . S
C181 O180 1.232 . S
C181 O182 1.218 . S
O182 C181 1.218 . S
C183 O176 1.275 . S
C183 O178 1.255 . S
C184 O185 1.258 . S
C184 O186 1.256 . S
O185 Cd177 2.381 . S
O185 C184 1.258 . S
O186 Cd177 2.378 . S
O186 C184 1.256 . S
O187 Cd188 2.300 1_556 S
O187 C194 1.275 1_556 S
Cd188 O187 2.300 1_554 S
Cd188 O196 2.381 1_554 S
Cd188 O197 2.378 . S
O189 Cd190 2.385 . S
O189 C194 1.255 . S
Cd190 O189 2.385 . S
Cd190 O191 2.317 . S
O191 Cd190 2.317 . S
O191 C192 1.232 . S
C192 O191 1.232 . S
C192 O193 1.218 . S
O193 C192 1.218 . S
C194 O187 1.275 1_554 S
C194 O189 1.255 . S
C195 O196 1.219 1_554 S
C195 O197 1.303 . S
O196 Cd188 2.381 1_556 S
O196 C195 1.219 1_556 S
O197 Cd188 2.378 . S
O197 C195 1.303 . S
O198 Cd199 2.300 . S
O198 C205 1.275 . S
Cd199 O198 2.300 . S
Cd199 O207 2.381 . S
Cd199 O208 2.378 . S
O200 Cd201 2.385 . S
O200 C205 1.255 . S
Cd201 O200 2.385 . S
Cd201 O202 2.317 . S
O202 Cd201 2.317 . S
O202 C203 1.232 . S
C203 O202 1.232 . S
C203 O204 1.218 . S
O204 C203 1.218 . S
C205 O198 1.275 . S
C205 O200 1.255 . S
C206 O207 1.258 . S
C206 O208 1.256 . S
O207 Cd199 2.381 . S
O207 C206 1.258 . S
O208 Cd199 2.378 . S
O208 C206 1.256 . S
O209 Cd210 2.300 1_554 S
O209 C216 1.289 . S
Cd210 O209 2.300 1_556 S
Cd210 O218 2.381 1_556 S
Cd210 O219 2.378 . S
O211 Cd212 2.385 . S
O211 C216 1.227 1_556 S
Cd212 O211 2.385 . S
Cd212 O213 2.317 . S
O213 Cd212 2.317 . S
O213 C214 1.232 . S
C214 O213 1.232 . S
C214 O215 1.218 . S
O215 C214 1.218 . S
C216 O209 1.289 . S
C216 O211 1.227 1_554 S
C217 O218 1.258 1_556 S
C217 O219 1.256 . S
O218 Cd210 2.381 1_554 S
O218 C217 1.258 1_554 S
O219 Cd210 2.378 . S
O219 C217 1.256 . S
O220 Cd221 2.300 . S
O220 C227 1.275 . S
Cd221 O220 2.300 . S
Cd221 O229 2.381 . S
Cd221 O230 2.378 . S
O222 Cd223 2.385 . S
O222 C227 1.255 . S
Cd223 O222 2.385 . S
Cd223 O224 2.317 . S
O224 Cd223 2.317 . S
O224 C225 1.232 . S
C225 O224 1.232 . S
C225 O226 1.218 . S
O226 C225 1.218 . S
C227 O220 1.275 . S
C227 O222 1.255 . S
C228 O229 1.258 . S
C228 O230 1.256 . S
O229 Cd221 2.381 . S
O229 C228 1.258 . S
O230 Cd221 2.378 . S
O230 C228 1.256 . S
O231 Cd232 2.300 1_655 S
O231 C238 1.275 1_655 S
Cd232 O231 2.300 1_455 S
Cd232 O240 2.381 1_455 S
Cd232 O241 2.378 . S
O233 Cd234 2.385 . S
O233 C238 1.255 . S
Cd234 O233 2.385 . S
Cd234 O235 2.317 . S
O235 Cd234 2.317 . S
O235 C236 1.232 . S
C236 O235 1.232 . S
C236 O237 1.218 . S
O237 C236 1.218 . S
C238 O231 1.275 1_455 S
C238 O233 1.255 . S
C239 O240 1.219 1_455 S
C239 O241 1.303 . S
O240 Cd232 2.381 1_655 S
O240 C239 1.219 1_655 S
O241 Cd232 2.378 . S
O241 C239 1.303 . S
O242 Cd243 2.300 . S
O242 C249 1.275 . S
Cd243 O242 2.300 . S
Cd243 O251 2.381 . S
Cd243 O252 2.378 . S
O244 Cd245 2.385 . S
O244 C249 1.255 . S
Cd245 O244 2.385 . S
Cd245 O246 2.317 . S
O246 Cd245 2.317 . S
O246 C247 1.232 . S
C247 O246 1.232 . S
C247 O248 1.218 . S
O248 C247 1.218 . S
C249 O242 1.275 . S
C249 O244 1.255 . S
C250 O251 1.258 . S
C250 O252 1.256 . S
O251 Cd243 2.381 . S
O251 C250 1.258 . S
O252 Cd243 2.378 . S
O252 C250 1.256 . S
O253 Cd254 2.300 1_455 S
O253 C260 1.289 . S
Cd254 O253 2.300 1_655 S
Cd254 O262 2.381 1_655 S
Cd254 O263 2.378 . S
O255 Cd256 2.385 . S
O255 C260 1.227 1_655 S
Cd256 O255 2.385 . S
Cd256 O257 2.317 . S
O257 Cd256 2.317 . S
O257 C258 1.232 . S
C258 O257 1.232 . S
C258 O259 1.218 . S
O259 C258 1.218 . S
C260 O253 1.289 . S
C260 O255 1.227 1_455 S
C261 O262 1.258 1_655 S
C261 O263 1.256 . S
O262 Cd254 2.381 1_455 S
O262 C261 1.258 1_455 S
O263 Cd254 2.378 . S
O263 C261 1.256 . S
H264 C269 0.930 . S
H265 C272 0.930 . S
H266 C274 0.930 . S
H267 C268 1.016 . S
C268 H267 1.016 . S
C268 N275 1.286 . S
C269 H264 0.930 . S
C269 C270 1.397 . S
C269 C271 1.361 . S
C270 C269 1.397 . S
C270 C274 1.390 . S
C271 C269 1.361 . S
C271 C272 1.393 . S
C271 N275 1.413 . S
C272 H265 0.930 . S
C272 C271 1.393 . S
C272 C273 1.399 . S
C273 C272 1.399 . S
C273 C274 1.381 . S
C274 H266 0.930 . S
C274 C270 1.390 . S
C274 C273 1.381 . S
N275 C268 1.286 . S
N275 C271 1.413 . S
H276 C281 0.930 . S
H277 C284 0.930 . S
H278 C286 0.930 . S
H279 C280 1.016 . S
C280 H279 1.016 . S
C280 N287 1.286 . S
C281 H276 0.930 . S
C281 C282 1.397 . S
C281 C283 1.361 . S
C282 C281 1.397 . S
C282 C286 1.390 . S
C283 C281 1.361 . S
C283 C284 1.393 . S
C283 N287 1.413 . S
C284 H277 0.930 . S
C284 C283 1.393 . S
C284 C285 1.399 . S
C285 C284 1.399 . S
C285 C286 1.381 . S
C286 H278 0.930 . S
C286 C282 1.390 . S
C286 C285 1.381 . S
N287 C280 1.286 . S
N287 C283 1.413 . S
H288 C293 0.930 . S
H289 C296 0.930 . S
H290 C298 0.930 . S
H291 C292 1.016 . S
C292 H291 1.016 . S
C292 N299 1.286 . S
C293 H288 0.930 . S
C293 C294 1.397 . S
C293 C295 1.361 1_565 S
C294 C293 1.397 . S
C294 C298 1.390 . S
C295 C293 1.361 1_545 S
C295 C296 1.393 . S
C295 N299 1.413 . S
C296 H289 0.930 . S
C296 C295 1.393 . S
C296 C297 1.399 1_545 S
C297 C296 1.399 1_565 S
C297 C298 1.381 . S
C298 H290 0.930 . S
C298 C294 1.390 . S
C298 C297 1.381 . S
N299 C292 1.286 . S
N299 C295 1.413 . S
H300 C305 0.930 . S
H301 C308 0.930 . S
H302 C310 0.930 . S
H303 C304 1.016 . S
C304 H303 1.016 . S
C304 N311 1.286 . S
C305 H300 0.930 . S
C305 C306 1.397 . S
C305 C307 1.361 . S
C306 C305 1.397 . S
C306 C310 1.390 . S
C307 C305 1.361 . S
C307 C308 1.393 . S
C307 N311 1.413 . S
C308 H301 0.930 . S
C308 C307 1.393 . S
C308 C309 1.399 . S
C309 C308 1.399 . S
C309 C310 1.381 . S
C310 H302 0.930 . S
C310 C306 1.390 . S
C310 C309 1.381 . S
N311 C304 1.286 . S
N311 C307 1.413 . S
H312 C317 0.930 . S
H313 C320 0.930 . S
H314 C322 0.930 . S
H315 C316 1.016 . S
C316 H315 1.016 . S
C316 N323 1.286 . S
C317 H312 0.930 . S
C317 C318 1.397 . S
C317 C319 1.361 . S
C318 C317 1.397 . S
C318 C322 1.390 . S
C319 C317 1.361 . S
C319 C320 1.393 . S
C319 N323 1.413 . S
C320 H313 0.930 . S
C320 C319 1.393 . S
C320 C321 1.399 . S
C321 C320 1.399 . S
C321 C322 1.381 . S
C322 H314 0.930 . S
C322 C318 1.390 . S
C322 C321 1.381 . S
N323 C316 1.286 . S
N323 C319 1.413 . S
H324 C329 0.930 . S
H325 C332 0.930 . S
H326 C334 0.930 . S
H327 C328 1.016 . S
C328 H327 1.016 . S
C328 N335 1.286 . S
C329 H324 0.930 . S
C329 C330 1.397 . S
C329 C331 1.361 . S
C330 C329 1.397 . S
C330 C334 1.390 . S
C331 C329 1.361 . S
C331 C332 1.393 . S
C331 N335 1.413 . S
C332 H325 0.930 . S
C332 C331 1.393 . S
C332 C333 1.399 . S
C333 C332 1.399 . S
C333 C334 1.381 . S
C334 H326 0.930 . S
C334 C330 1.390 . S
C334 C333 1.381 . S
N335 C328 1.286 . S
N335 C331 1.413 . S
H336 C341 0.930 . S
H337 C344 0.930 . S
H338 C346 0.930 . S
H339 C340 1.016 . S
C340 H339 1.016 . S
C340 N347 1.286 . S
C341 H336 0.930 . S
C341 C342 1.397 . S
C341 C343 1.361 . S
C342 C341 1.397 . S
C342 C346 1.390 . S
C343 C341 1.361 . S
C343 C344 1.393 . S
C343 N347 1.413 . S
C344 H337 0.930 . S
C344 C343 1.393 . S
C344 C345 1.399 . S
C345 C344 1.399 . S
C345 C346 1.381 . S
C346 H338 0.930 . S
C346 C342 1.390 . S
C346 C345 1.381 . S
N347 C340 1.286 . S
N347 C343 1.413 . S
H348 C353 0.930 . S
H349 C356 0.930 . S
H350 C358 0.930 . S
H351 C352 1.016 . S
C352 H351 1.016 . S
C352 N359 1.286 . S
C353 H348 0.930 . S
C353 C354 1.397 . S
C353 C355 1.361 1_556 S
C354 C353 1.397 . S
C354 C358 1.390 . S
C355 C353 1.361 1_554 S
C355 C356 1.393 . S
C355 N359 1.413 . S
C356 H349 0.930 . S
C356 C355 1.393 . S
C356 C357 1.399 1_554 S
C357 C356 1.399 1_556 S
C357 C358 1.381 . S
C358 H350 0.930 . S
C358 C354 1.390 . S
C358 C357 1.381 . S
N359 C352 1.286 . S
N359 C355 1.413 . S
H360 C365 0.930 . S
H361 C368 0.930 . S
H362 C370 0.930 . S
H363 C364 1.016 . S
C364 H363 1.016 . S
C364 N371 1.286 . S
C365 H360 0.930 . S
C365 C366 1.397 . S
C365 C367 1.361 . S
C366 C365 1.397 . S
C366 C370 1.390 . S
C367 C365 1.361 . S
C367 C368 1.393 . S
C367 N371 1.413 . S
C368 H361 0.930 . S
C368 C367 1.393 . S
C368 C369 1.399 . S
C369 C368 1.399 . S
C369 C370 1.381 . S
C370 H362 0.930 . S
C370 C366 1.390 . S
C370 C369 1.381 . S
N371 C364 1.286 . S
N371 C367 1.413 . S
H372 C377 0.930 . S
H373 C380 0.930 . S
H374 C382 0.930 . S
H375 C376 1.016 . S
C376 H375 1.016 . S
C376 N383 1.286 . S
C377 H372 0.930 . S
C377 C378 1.397 . S
C377 C379 1.361 . S
C378 C377 1.397 . S
C378 C382 1.390 . S
C379 C377 1.361 . S
C379 C380 1.393 . S
C379 N383 1.413 . S
C380 H373 0.930 . S
C380 C379 1.393 . S
C380 C381 1.399 . S
C381 C380 1.399 . S
C381 C382 1.381 . S
C382 H374 0.930 . S
C382 C378 1.390 . S
C382 C381 1.381 . S
N383 C376 1.286 . S
N383 C379 1.413 . S
H384 C389 0.930 . S
H385 C392 0.930 . S
H386 C394 0.930 . S
H387 C388 1.016 . S
C388 H387 1.016 . S
C388 N395 1.286 . S
C389 H384 0.930 . S
C389 C390 1.397 . S
C389 C391 1.361 . S
C390 C389 1.397 . S
C390 C394 1.390 . S
C391 C389 1.361 . S
C391 C392 1.393 . S
C391 N395 1.413 . S
C392 H385 0.930 . S
C392 C391 1.393 . S
C392 C393 1.399 . S
C393 C392 1.399 . S
C393 C394 1.381 . S
C394 H386 0.930 . S
C394 C390 1.390 . S
C394 C393 1.381 . S
N395 C388 1.286 . S
N395 C391 1.413 . S
H396 C401 0.930 . S
H397 C404 0.930 . S
H398 C406 0.930 . S
H399 C400 1.016 . S
C400 H399 1.016 . S
C400 N407 1.286 . S
C401 H396 0.930 . S
C401 C402 1.397 . S
C401 C403 1.361 1_655 S
C402 C401 1.397 . S
C402 C406 1.390 . S
C403 C401 1.361 1_455 S
C403 C404 1.393 . S
C403 N407 1.413 . S
C404 H397 0.930 . S
C404 C403 1.393 . S
C404 C405 1.399 1_455 S
C405 C404 1.399 1_655 S
C405 C406 1.381 . S
C406 H398 0.930 . S
C406 C402 1.390 . S
C406 C405 1.381 . S
N407 C400 1.286 . S
N407 C403 1.413 . S
H408 C413 0.930 . S
H409 C416 0.930 . S
H410 C418 0.930 . S
H411 C412 1.016 . S
C412 H411 1.016 . S
C412 N419 1.286 . S
C413 H408 0.930 . S
C413 C414 1.397 . S
C413 C415 1.361 . S
C414 C413 1.397 . S
C414 C418 1.390 . S
C415 C413 1.361 . S
C415 C416 1.393 . S
C415 N419 1.413 . S
C416 H409 0.930 . S
C416 C415 1.393 . S
C416 C417 1.399 . S
C417 C416 1.399 . S
C417 C418 1.381 . S
C418 H410 0.930 . S
C418 C414 1.390 . S
C418 C417 1.381 . S
N419 C412 1.286 . S
N419 C415 1.413 . S
H420 C425 0.930 . S
H421 C428 0.930 . S
H422 C430 0.930 . S
H423 C424 1.016 . S
C424 H423 1.016 . S
C424 N431 1.286 . S
C425 H420 0.930 . S
C425 C426 1.397 . S
C425 C427 1.361 . S
C426 C425 1.397 . S
C426 C430 1.390 . S
C427 C425 1.361 . S
C427 C428 1.393 . S
C427 N431 1.413 . S
C428 H421 0.930 . S
C428 C427 1.393 . S
C428 C429 1.399 . S
C429 C428 1.399 . S
C429 C430 1.381 . S
C430 H422 0.930 . S
C430 C426 1.390 . S
C430 C429 1.381 . S
N431 C424 1.286 . S
N431 C427 1.413 . S
H432 C437 0.930 . S
H433 C440 0.930 . S
H434 C442 0.930 . S
H435 C436 1.016 . S
C436 H435 1.016 . S
C436 N443 1.286 . S
C437 H432 0.930 . S
C437 C438 1.397 . S
C437 C439 1.361 1_545 S
C438 C437 1.397 . S
C438 C442 1.390 . S
C439 C437 1.361 1_565 S
C439 C440 1.393 . S
C439 N443 1.413 . S
C440 H433 0.930 . S
C440 C439 1.393 . S
C440 C441 1.399 1_565 S
C441 C440 1.399 1_545 S
C441 C442 1.381 . S
C442 H434 0.930 . S
C442 C438 1.390 . S
C442 C441 1.381 . S
N443 C436 1.286 . S
N443 C439 1.413 . S
H444 C449 0.930 . S
H445 C452 0.930 . S
H446 C454 0.930 . S
H447 C448 1.016 . S
C448 H447 1.016 . S
C448 N455 1.286 . S
C449 H444 0.930 . S
C449 C450 1.397 . S
C449 C451 1.361 . S
C450 C449 1.397 . S
C450 C454 1.390 . S
C451 C449 1.361 . S
C451 C452 1.393 . S
C451 N455 1.413 . S
C452 H445 0.930 . S
C452 C451 1.393 . S
C452 C453 1.399 . S
C453 C452 1.399 . S
C453 C454 1.381 . S
C454 H446 0.930 . S
C454 C450 1.390 . S
C454 C453 1.381 . S
N455 C448 1.286 . S
N455 C451 1.413 . S
H456 C461 0.930 . S
H457 C464 0.930 . S
H458 C466 0.930 . S
H459 C460 1.016 . S
C460 H459 1.016 . S
C460 N467 1.286 . S
C461 H456 0.930 . S
C461 C462 1.397 . S
C461 C463 1.361 . S
C462 C461 1.397 . S
C462 C466 1.390 . S
C463 C461 1.361 . S
C463 C464 1.393 . S
C463 N467 1.413 . S
C464 H457 0.930 . S
C464 C463 1.393 . S
C464 C465 1.399 . S
C465 C464 1.399 . S
C465 C466 1.381 . S
C466 H458 0.930 . S
C466 C462 1.390 . S
C466 C465 1.381 . S
N467 C460 1.286 . S
N467 C463 1.413 . S
H468 C473 0.930 . S
H469 C476 0.930 . S
H470 C478 0.930 . S
H471 C472 1.016 . S
C472 H471 1.016 . S
C472 N479 1.286 . S
C473 H468 0.930 . S
C473 C474 1.397 . S
C473 C475 1.361 . S
C474 C473 1.397 . S
C474 C478 1.390 . S
C475 C473 1.361 . S
C475 C476 1.393 . S
C475 N479 1.413 . S
C476 H469 0.930 . S
C476 C475 1.393 . S
C476 C477 1.399 . S
C477 C476 1.399 . S
C477 C478 1.381 . S
C478 H470 0.930 . S
C478 C474 1.390 . S
C478 C477 1.381 . S
N479 C472 1.286 . S
N479 C475 1.413 . S
H480 C485 0.930 . S
H481 C488 0.930 . S
H482 C490 0.930 . S
H483 C484 1.016 . S
C484 H483 1.016 . S
C484 N491 1.286 . S
C485 H480 0.930 . S
C485 C486 1.397 . S
C485 C487 1.361 . S
C486 C485 1.397 . S
C486 C490 1.390 . S
C487 C485 1.361 . S
C487 C488 1.393 . S
C487 N491 1.413 . S
C488 H481 0.930 . S
C488 C487 1.393 . S
C488 C489 1.399 . S
C489 C488 1.399 . S
C489 C490 1.381 . S
C490 H482 0.930 . S
C490 C486 1.390 . S
C490 C489 1.381 . S
N491 C484 1.286 . S
N491 C487 1.413 . S
H492 C497 0.930 . S
H493 C500 0.930 . S
H494 C502 0.930 . S
H495 C496 1.016 . S
C496 H495 1.016 . S
C496 N503 1.286 . S
C497 H492 0.930 . S
C497 C498 1.397 . S
C497 C499 1.361 1_554 S
C498 C497 1.397 . S
C498 C502 1.390 . S
C499 C497 1.361 1_556 S
C499 C500 1.393 . S
C499 N503 1.413 . S
C500 H493 0.930 . S
C500 C499 1.393 . S
C500 C501 1.399 1_556 S
C501 C500 1.399 1_554 S
C501 C502 1.381 . S
C502 H494 0.930 . S
C502 C498 1.390 . S
C502 C501 1.381 . S
N503 C496 1.286 . S
N503 C499 1.413 . S
H504 C509 0.930 . S
H505 C512 0.930 . S
H506 C514 0.930 . S
H507 C508 1.016 . S
C508 H507 1.016 . S
C508 N515 1.286 . S
C509 H504 0.930 . S
C509 C510 1.397 . S
C509 C511 1.361 . S
C510 C509 1.397 . S
C510 C514 1.390 . S
C511 C509 1.361 . S
C511 C512 1.393 . S
C511 N515 1.413 . S
C512 H505 0.930 . S
C512 C511 1.393 . S
C512 C513 1.399 . S
C513 C512 1.399 . S
C513 C514 1.381 . S
C514 H506 0.930 . S
C514 C510 1.390 . S
C514 C513 1.381 . S
N515 C508 1.286 . S
N515 C511 1.413 . S
H516 C521 0.930 . S
H517 C524 0.930 . S
H518 C526 0.930 . S
H519 C520 1.016 . S
C520 H519 1.016 . S
C520 N527 1.286 . S
C521 H516 0.930 . S
C521 C522 1.397 . S
C521 C523 1.361 . S
C522 C521 1.397 . S
C522 C526 1.390 . S
C523 C521 1.361 . S
C523 C524 1.393 . S
C523 N527 1.413 . S
C524 H517 0.930 . S
C524 C523 1.393 . S
C524 C525 1.399 . S
C525 C524 1.399 . S
C525 C526 1.381 . S
C526 H518 0.930 . S
C526 C522 1.390 . S
C526 C525 1.381 . S
N527 C520 1.286 . S
N527 C523 1.413 . S
H528 C533 0.930 . S
H529 C536 0.930 . S
H530 C538 0.930 . S
H531 C532 1.016 . S
C532 H531 1.016 . S
C532 N539 1.286 . S
C533 H528 0.930 . S
C533 C534 1.397 . S
C533 C535 1.361 . S
C534 C533 1.397 . S
C534 C538 1.390 . S
C535 C533 1.361 . S
C535 C536 1.393 . S
C535 N539 1.413 . S
C536 H529 0.930 . S
C536 C535 1.393 . S
C536 C537 1.399 . S
C537 C536 1.399 . S
C537 C538 1.381 . S
C538 H530 0.930 . S
C538 C534 1.390 . S
C538 C537 1.381 . S
N539 C532 1.286 . S
N539 C535 1.413 . S
H540 C545 0.930 . S
H541 C548 0.930 . S
H542 C550 0.930 . S
H543 C544 1.016 . S
C544 H543 1.016 . S
C544 N551 1.286 . S
C545 H540 0.930 . S
C545 C546 1.397 . S
C545 C547 1.361 1_455 S
C546 C545 1.397 . S
C546 C550 1.390 . S
C547 C545 1.361 1_655 S
C547 C548 1.393 . S
C547 N551 1.413 . S
C548 H541 0.930 . S
C548 C547 1.393 . S
C548 C549 1.399 1_655 S
C549 C548 1.399 1_455 S
C549 C550 1.381 . S
C550 H542 0.930 . S
C550 C546 1.390 . S
C550 C549 1.381 . S
N551 C544 1.286 . S
N551 C547 1.413 . S
H552 C570 0.951 . S
H553 C572 0.951 . S
H554 C574 0.950 . S
H555 C575 0.950 . S
H556 C577 0.950 . S
H557 C580 0.950 . S
H558 C581 0.950 . S
H559 C583 0.950 . S
H560 C584 0.950 . S
H561 C585 0.951 . S
H562 C587 0.951 . S
H563 C589 0.950 . S
H564 C590 0.950 . S
H565 C592 0.950 . S
H566 C595 0.950 . S
H567 C596 0.950 . S
H568 C598 0.950 . S
H569 C599 0.950 . S
C570 H552 0.951 . S
C570 C571 1.366 . S
C570 C572 1.388 . S
C571 C570 1.366 . S
C571 C575 1.385 . S
C572 H553 0.951 . S
C572 C570 1.388 . S
C572 C573 1.366 . S
C573 C572 1.366 . S
C573 C574 1.414 . S
C573 C576 1.499 . S
C574 H554 0.950 . S
C574 C573 1.414 . S
C574 C575 1.374 . S
C575 H555 0.950 . S
C575 C571 1.385 . S
C575 C574 1.374 . S
C576 C573 1.499 . S
C576 C577 1.373 . S
C576 C578 1.389 . S
C577 H556 0.950 . S
C577 C576 1.373 . S
C577 C593 1.377 . S
C578 C576 1.389 . S
C578 C579 1.524 . S
C578 C592 1.377 . S
C579 C578 1.524 . S
C579 C580 1.397 . S
C579 C584 1.363 . S
C580 H557 0.950 . S
C580 C579 1.397 . S
C580 C581 1.334 . S
C581 H558 0.950 . S
C581 C580 1.334 . S
C581 C582 1.287 . S
C582 C581 1.287 . S
C582 C583 1.524 . S
C582 H601 0.913 . S
C583 H559 0.950 . S
C583 C582 1.524 . S
C583 C584 1.415 . S
C584 H560 0.950 . S
C584 C579 1.363 . S
C584 C583 1.415 . S
C585 H561 0.951 . S
C585 C586 1.366 . S
C585 C587 1.388 . S
C586 C585 1.366 . S
C586 C590 1.385 . S
C587 H562 0.951 . S
C587 C585 1.388 . S
C587 C588 1.366 . S
C588 C587 1.366 . S
C588 C589 1.414 . S
C588 C591 1.499 . S
C589 H563 0.950 . S
C589 C588 1.414 . S
C589 C590 1.374 . S
C590 H564 0.950 . S
C590 C586 1.385 . S
C590 C589 1.374 . S
C591 C588 1.499 . S
C591 C592 1.373 . S
C591 C593 1.389 . S
C592 H565 0.950 . S
C592 C578 1.377 . S
C592 C591 1.373 . S
C593 C577 1.377 . S
C593 C591 1.389 . S
C593 C594 1.524 . S
C594 C593 1.524 . S
C594 C595 1.397 . S
C594 C599 1.363 . S
C595 H566 0.950 . S
C595 C594 1.397 . S
C595 C596 1.334 . S
C596 H567 0.950 . S
C596 C595 1.334 . S
C596 C597 1.287 . S
C597 C596 1.287 . S
C597 C598 1.524 . S
C597 H600 0.999 . S
C598 H568 0.950 . S
C598 C597 1.524 . S
C598 C599 1.415 . S
C599 H569 0.950 . S
C599 C594 1.363 . S
C599 C598 1.415 . S
H600 C597 0.999 . S
H601 C582 0.913 . S
H602 C620 0.951 . S
H603 C622 0.951 . S
H604 C624 0.950 . S
H605 C625 0.950 . S
H606 C627 0.950 . S
H607 C630 0.950 . S
H608 C631 0.950 . S
H609 C633 0.950 . S
H610 C634 0.950 . S
H611 C635 0.951 . S
H612 C637 0.951 . S
H613 C639 0.950 . S
H614 C640 0.950 . S
H615 C642 0.950 . S
H616 C645 0.950 . S
H617 C646 0.950 . S
H618 C648 0.950 . S
H619 C649 0.950 . S
C620 H602 0.951 . S
C620 C621 1.366 . S
C620 C622 1.388 . S
C621 C620 1.366 . S
C621 C625 1.385 . S
C622 H603 0.951 . S
C622 C620 1.388 . S
C622 C623 1.366 . S
C623 C622 1.366 . S
C623 C624 1.414 . S
C623 C626 1.499 . S
C624 H604 0.950 . S
C624 C623 1.414 . S
C624 C625 1.374 . S
C625 H605 0.950 . S
C625 C621 1.385 . S
C625 C624 1.374 . S
C626 C623 1.499 . S
C626 C627 1.373 . S
C626 C628 1.389 . S
C627 H606 0.950 . S
C627 C626 1.373 . S
C627 C643 1.377 . S
C628 C626 1.389 . S
C628 C629 1.524 . S
C628 C642 1.377 . S
C629 C628 1.524 . S
C629 C630 1.397 . S
C629 C634 1.363 . S
C630 H607 0.950 . S
C630 C629 1.397 . S
C630 C631 1.334 . S
C631 H608 0.950 . S
C631 C630 1.334 . S
C631 C632 1.287 . S
C632 C631 1.287 . S
C632 C633 1.524 . S
C632 H651 0.913 . S
C633 H609 0.950 . S
C633 C632 1.524 . S
C633 C634 1.415 . S
C634 H610 0.950 . S
C634 C629 1.363 . S
C634 C633 1.415 . S
C635 H611 0.951 . S
C635 C636 1.366 . S
C635 C637 1.388 . S
C636 C635 1.366 . S
C636 C640 1.385 . S
C637 H612 0.951 . S
C637 C635 1.388 . S
C637 C638 1.366 . S
C638 C637 1.366 . S
C638 C639 1.414 . S
C638 C641 1.499 . S
C639 H613 0.950 . S
C639 C638 1.414 . S
C639 C640 1.374 . S
C640 H614 0.950 . S
C640 C636 1.385 . S
C640 C639 1.374 . S
C641 C638 1.499 . S
C641 C642 1.373 . S
C641 C643 1.389 . S
C642 H615 0.950 . S
C642 C628 1.377 . S
C642 C641 1.373 . S
C643 C627 1.377 . S
C643 C641 1.389 . S
C643 C644 1.524 . S
C644 C643 1.524 . S
C644 C645 1.397 . S
C644 C649 1.363 . S
C645 H616 0.950 . S
C645 C644 1.397 . S
C645 C646 1.334 . S
C646 H617 0.950 . S
C646 C645 1.334 . S
C646 C647 1.287 . S
C647 C646 1.287 . S
C647 C648 1.524 . S
C647 H650 0.999 . S
C648 H618 0.950 . S
C648 C647 1.524 . S
C648 C649 1.415 . S
C649 H619 0.950 . S
C649 C644 1.363 . S
C649 C648 1.415 . S
H650 C647 0.999 . S
H651 C632 0.913 . S
H652 C670 0.951 . S
H653 C672 0.927 1_565 S
H654 C674 0.950 . S
H655 C675 0.950 . S
H656 C677 0.950 . S
H657 C680 0.950 . S
H658 C681 0.950 . S
H659 C683 0.950 . S
H660 C684 0.950 . S
H661 C685 0.951 . S
H662 C687 0.951 . S
H663 C689 0.950 . S
H664 C690 0.950 . S
H665 C692 0.950 1_565 S
H666 C695 0.950 . S
H667 C696 0.950 . S
H668 C698 0.950 . S
H669 C699 0.950 . S
C670 H652 0.951 . S
C670 C671 1.366 1_565 S
C670 C672 1.376 1_565 S
C671 C670 1.366 1_545 S
C671 C675 1.385 . S
C672 H653 0.927 1_545 S
C672 C670 1.376 1_545 S
C672 C673 1.404 . S
C673 C672 1.404 . S
C673 C674 1.414 . S
C673 C676 1.499 . S
C674 H654 0.950 . S
C674 C673 1.414 . S
C674 C675 1.374 . S
C675 H655 0.950 . S
C675 C671 1.385 . S
C675 C674 1.374 . S
C676 C673 1.499 . S
C676 C677 1.373 . S
C676 C678 1.389 . S
C677 H656 0.950 . S
C677 C676 1.373 . S
C677 C693 1.377 . S
C678 C676 1.389 . S
C678 C679 1.524 1_545 S
C678 C692 1.377 . S
C679 C678 1.524 1_565 S
C679 C680 1.397 . S
C679 C684 1.363 . S
C680 H657 0.950 . S
C680 C679 1.397 . S
C680 C681 1.334 . S
C681 H658 0.950 . S
C681 C680 1.334 . S
C681 C682 1.287 . S
C682 C681 1.287 . S
C682 C683 1.524 . S
C682 H701 0.913 . S
C683 H659 0.950 . S
C683 C682 1.524 . S
C683 C684 1.415 . S
C684 H660 0.950 . S
C684 C679 1.363 . S
C684 C683 1.415 . S
C685 H661 0.951 . S
C685 C686 1.366 . S
C685 C687 1.388 . S
C686 C685 1.366 . S
C686 C690 1.385 . S
C687 H662 0.951 . S
C687 C685 1.388 . S
C687 C688 1.366 . S
C688 C687 1.366 . S
C688 C689 1.414 . S
C688 C691 1.499 . S
C689 H663 0.950 . S
C689 C688 1.414 . S
C689 C690 1.374 . S
C690 H664 0.950 . S
C690 C686 1.385 . S
C690 C689 1.374 . S
C691 C688 1.499 . S
C691 C692 1.373 . S
C691 C693 1.389 . S
C692 H665 0.950 1_545 S
C692 C678 1.377 . S
C692 C691 1.373 . S
C693 C677 1.377 . S
C693 C691 1.389 . S
C693 C694 1.524 . S
C694 C693 1.524 . S
C694 C695 1.397 . S
C694 C699 1.363 . S
C695 H666 0.950 . S
C695 C694 1.397 . S
C695 C696 1.334 . S
C696 H667 0.950 . S
C696 C695 1.334 . S
C696 C697 1.287 . S
C697 C696 1.287 . S
C697 C698 1.524 . S
C697 H700 0.999 . S
C698 H668 0.950 . S
C698 C697 1.524 . S
C698 C699 1.415 . S
C699 H669 0.950 . S
C699 C694 1.363 . S
C699 C698 1.415 . S
H700 C697 0.999 . S
H701 C682 0.913 . S
H702 C720 0.951 . S
H703 C722 0.951 . S
H704 C724 0.950 . S
H705 C725 0.950 . S
H706 C727 0.962 . S
H707 C730 0.950 . S
H708 C731 0.950 . S
H709 C733 0.950 . S
H710 C734 0.950 . S
H711 C735 0.917 1_445 S
H712 C737 0.951 1_545 S
H713 C739 0.950 . S
H714 C740 0.950 . S
H715 C742 0.950 . S
H716 C745 0.950 . S
H717 C746 0.925 1_565 S
H718 C748 0.950 . S
H719 C749 0.950 . S
C720 H702 0.951 . S
C720 C721 1.387 . S
C720 C722 1.388 . S
C721 C720 1.387 . S
C721 C725 1.369 1_565 S
C722 H703 0.951 . S
C722 C720 1.388 . S
C722 C723 1.366 . S
C723 C722 1.366 . S
C723 C724 1.414 1_565 S
C723 C726 1.499 . S
C724 H704 0.950 . S
C724 C723 1.414 1_545 S
C724 C725 1.374 . S
C725 H705 0.950 . S
C725 C721 1.369 1_545 S
C725 C724 1.374 . S
C726 C723 1.499 . S
C726 C727 1.365 1_565 S
C726 C728 1.389 . S
C727 H706 0.962 . S
C727 C726 1.365 1_545 S
C727 C743 1.372 1_545 S
C728 C726 1.389 . S
C728 C729 1.524 . S
C728 C742 1.377 . S
C729 C728 1.524 . S
C729 C730 1.397 . S
C729 C734 1.363 . S
C730 H707 0.950 . S
C730 C729 1.397 . S
C730 C731 1.334 . S
C731 H708 0.950 . S
C731 C730 1.334 . S
C731 C732 1.287 . S
C732 C731 1.287 . S
C732 C733 1.524 . S
C732 H751 0.913 . S
C733 H709 0.950 . S
C733 C732 1.524 . S
C733 C734 1.415 . S
C734 H710 0.950 . S
C734 C729 1.363 . S
C734 C733 1.415 . S
C735 H711 0.917 1_665 S
C735 C736 1.366 1_655 S
C735 C737 1.388 . S
C736 C735 1.366 1_455 S
C736 C740 1.385 1_455 S
C737 H712 0.951 1_565 S
C737 C735 1.388 . S
C737 C738 1.366 . S
C738 C737 1.366 . S
C738 C739 1.414 . S
C738 C741 1.499 . S
C739 H713 0.950 . S
C739 C738 1.414 . S
C739 C740 1.374 . S
C740 H714 0.950 . S
C740 C736 1.385 1_655 S
C740 C739 1.374 . S
C741 C738 1.499 . S
C741 C742 1.373 . S
C741 C743 1.389 . S
C742 H715 0.950 . S
C742 C728 1.377 . S
C742 C741 1.373 . S
C743 C727 1.372 1_565 S
C743 C741 1.389 . S
C743 C744 1.524 1_565 S
C744 C743 1.524 1_545 S
C744 C745 1.397 1_545 S
C744 C749 1.363 . S
C745 H716 0.950 . S
C745 C744 1.397 1_565 S
C745 C746 1.334 1_565 S
C746 H717 0.925 1_545 S
C746 C745 1.334 1_545 S
C746 C747 1.287 . S
C747 C746 1.287 . S
C747 C748 1.524 . S
C747 H750 0.999 . S
C748 H718 0.950 . S
C748 C747 1.524 . S
C748 C749 1.415 . S
C749 H719 0.950 . S
C749 C744 1.363 . S
C749 C748 1.415 . S
H750 C747 0.999 . S
H751 C732 0.913 . S
H752 C770 0.951 . S
H753 C772 0.951 . S
H754 C774 0.950 . S
H755 C775 0.950 . S
H756 C777 0.950 . S
H757 C780 0.950 . S
H758 C781 0.950 . S
H759 C783 0.950 . S
H760 C784 0.950 . S
H761 C785 0.951 . S
H762 C787 0.951 . S
H763 C789 0.950 . S
H764 C790 0.950 . S
H765 C792 0.950 . S
H766 C795 0.950 . S
H767 C796 0.950 . S
H768 C798 0.950 . S
H769 C799 0.950 . S
C770 H752 0.951 . S
C770 C771 1.366 . S
C770 C772 1.388 . S
C771 C770 1.366 . S
C771 C775 1.385 . S
C772 H753 0.951 . S
C772 C770 1.388 . S
C772 C773 1.366 . S
C773 C772 1.366 . S
C773 C774 1.414 . S
C773 C776 1.499 . S
C774 H754 0.950 . S
C774 C773 1.414 . S
C774 C775 1.374 . S
C775 H755 0.950 . S
C775 C771 1.385 . S
C775 C774 1.374 . S
C776 C773 1.499 . S
C776 C777 1.373 . S
C776 C778 1.389 . S
C777 H756 0.950 . S
C777 C776 1.373 . S
C777 C793 1.377 . S
C778 C776 1.389 . S
C778 C779 1.524 . S
C778 C792 1.377 . S
C779 C778 1.524 . S
C779 C780 1.397 . S
C779 C784 1.363 . S
C780 H757 0.950 . S
C780 C779 1.397 . S
C780 C781 1.334 . S
C781 H758 0.950 . S
C781 C780 1.334 . S
C781 C782 1.287 . S
C782 C781 1.287 . S
C782 C783 1.524 . S
C782 H801 0.913 . S
C783 H759 0.950 . S
C783 C782 1.524 . S
C783 C784 1.415 . S
C784 H760 0.950 . S
C784 C779 1.363 . S
C784 C783 1.415 . S
C785 H761 0.951 . S
C785 C786 1.366 . S
C785 C787 1.388 . S
C786 C785 1.366 . S
C786 C790 1.385 . S
C787 H762 0.951 . S
C787 C785 1.388 . S
C787 C788 1.366 . S
C788 C787 1.366 . S
C788 C789 1.414 . S
C788 C791 1.499 . S
C789 H763 0.950 . S
C789 C788 1.414 . S
C789 C790 1.374 . S
C790 H764 0.950 . S
C790 C786 1.385 . S
C790 C789 1.374 . S
C791 C788 1.499 . S
C791 C792 1.373 . S
C791 C793 1.389 . S
C792 H765 0.950 . S
C792 C778 1.377 . S
C792 C791 1.373 . S
C793 C777 1.377 . S
C793 C791 1.389 . S
C793 C794 1.524 . S
C794 C793 1.524 . S
C794 C795 1.397 . S
C794 C799 1.363 . S
C795 H766 0.950 . S
C795 C794 1.397 . S
C795 C796 1.334 . S
C796 H767 0.950 . S
C796 C795 1.334 . S
C796 C797 1.287 . S
C797 C796 1.287 . S
C797 C798 1.524 . S
C797 H800 0.999 . S
C798 H768 0.950 . S
C798 C797 1.524 . S
C798 C799 1.415 . S
C799 H769 0.950 . S
C799 C794 1.363 . S
C799 C798 1.415 . S
H800 C797 0.999 . S
H801 C782 0.913 . S
H802 C820 0.951 . S
H803 C822 0.951 . S
H804 C824 0.950 . S
H805 C825 0.950 . S
H806 C827 0.950 . S
H807 C830 0.950 . S
H808 C831 0.950 . S
H809 C833 0.950 1_554 S
H810 C834 0.950 1_554 S
H811 C835 0.951 . S
H812 C837 0.951 . S
H813 C839 0.965 . S
H814 C840 0.950 1_545 S
H815 C842 0.950 . S
H816 C845 0.969 . S
H817 C846 0.950 . S
H818 C848 0.950 . S
H819 C849 0.950 . S
C820 H802 0.951 . S
C820 C821 1.350 1_554 S
C820 C822 1.388 . S
C821 C820 1.350 1_556 S
C821 C825 1.409 . S
C822 H803 0.951 . S
C822 C820 1.388 . S
C822 C823 1.366 1_554 S
C823 C822 1.366 1_556 S
C823 C824 1.414 . S
C823 C826 1.499 . S
C824 H804 0.950 . S
C824 C823 1.414 . S
C824 C825 1.374 . S
C825 H805 0.950 . S
C825 C821 1.409 . S
C825 C824 1.374 . S
C826 C823 1.499 . S
C826 C827 1.373 . S
C826 C828 1.389 . S
C827 H806 0.950 . S
C827 C826 1.373 . S
C827 C843 1.377 . S
C828 C826 1.389 . S
C828 C829 1.524 . S
C828 C842 1.377 . S
C829 C828 1.524 . S
C829 C830 1.397 . S
C829 C834 1.363 . S
C830 H807 0.950 . S
C830 C829 1.397 . S
C830 C831 1.334 . S
C831 H808 0.950 . S
C831 C830 1.334 . S
C831 C832 1.287 . S
C832 C831 1.287 . S
C832 C833 1.524 . S
C832 H851 0.913 . S
C833 H809 0.950 1_556 S
C833 C832 1.524 . S
C833 C834 1.415 . S
C834 H810 0.950 1_556 S
C834 C829 1.363 . S
C834 C833 1.415 . S
C835 H811 0.951 . S
C835 C836 1.366 1_565 S
C835 C837 1.388 . S
C836 C835 1.366 1_545 S
C836 C840 1.385 1_545 S
C837 H812 0.951 . S
C837 C835 1.388 . S
C837 C838 1.366 . S
C838 C837 1.366 . S
C838 C839 1.414 . S
C838 C841 1.499 . S
C839 H813 0.965 . S
C839 C838 1.414 . S
C839 C840 1.374 . S
C840 H814 0.950 1_565 S
C840 C836 1.385 1_565 S
C840 C839 1.374 . S
C841 C838 1.499 . S
C841 C842 1.373 . S
C841 C843 1.389 . S
C842 H815 0.950 . S
C842 C828 1.377 . S
C842 C841 1.373 . S
C843 C827 1.377 . S
C843 C841 1.389 . S
C843 C844 1.524 . S
C844 C843 1.524 . S
C844 C845 1.377 1_556 S
C844 C849 1.363 . S
C845 H816 0.969 . S
C845 C844 1.377 1_554 S
C845 C846 1.335 . S
C846 H817 0.950 . S
C846 C845 1.335 . S
C846 C847 1.287 1_554 S
C847 C846 1.287 1_556 S
C847 C848 1.524 . S
C847 H850 0.999 . S
C848 H818 0.950 . S
C848 C847 1.524 . S
C848 C849 1.415 . S
C849 H819 0.950 . S
C849 C844 1.363 . S
C849 C848 1.415 . S
H850 C847 0.999 . S
H851 C832 0.913 . S
H852 C870 0.951 . S
H853 C872 0.951 . S
H854 C874 0.950 . S
H855 C875 0.950 . S
H856 C877 0.950 . S
H857 C880 0.950 . S
H858 C881 0.950 . S
H859 C883 0.950 . S
H860 C884 0.950 . S
H861 C885 0.951 . S
H862 C887 0.951 . S
H863 C889 0.950 . S
H864 C890 0.950 . S
H865 C892 0.950 . S
H866 C895 0.950 . S
H867 C896 0.950 . S
H868 C898 0.950 . S
H869 C899 0.950 . S
C870 H852 0.951 . S
C870 C871 1.366 . S
C870 C872 1.388 . S
C871 C870 1.366 . S
C871 C875 1.385 . S
C872 H853 0.951 . S
C872 C870 1.388 . S
C872 C873 1.366 . S
C873 C872 1.366 . S
C873 C874 1.414 . S
C873 C876 1.499 . S
C874 H854 0.950 . S
C874 C873 1.414 . S
C874 C875 1.374 . S
C875 H855 0.950 . S
C875 C871 1.385 . S
C875 C874 1.374 . S
C876 C873 1.499 . S
C876 C877 1.373 . S
C876 C878 1.389 . S
C877 H856 0.950 . S
C877 C876 1.373 . S
C877 C893 1.377 . S
C878 C876 1.389 . S
C878 C879 1.524 . S
C878 C892 1.377 . S
C879 C878 1.524 . S
C879 C880 1.397 . S
C879 C884 1.363 . S
C880 H857 0.950 . S
C880 C879 1.397 . S
C880 C881 1.334 . S
C881 H858 0.950 . S
C881 C880 1.334 . S
C881 C882 1.287 . S
C882 C881 1.287 . S
C882 C883 1.524 . S
C882 H901 0.913 . S
C883 H859 0.950 . S
C883 C882 1.524 . S
C883 C884 1.415 . S
C884 H860 0.950 . S
C884 C879 1.363 . S
C884 C883 1.415 . S
C885 H861 0.951 . S
C885 C886 1.366 . S
C885 C887 1.388 . S
C886 C885 1.366 . S
C886 C890 1.385 . S
C887 H862 0.951 . S
C887 C885 1.388 . S
C887 C888 1.366 . S
C888 C887 1.366 . S
C888 C889 1.414 . S
C888 C891 1.499 . S
C889 H863 0.950 . S
C889 C888 1.414 . S
C889 C890 1.374 . S
C890 H864 0.950 . S
C890 C886 1.385 . S
C890 C889 1.374 . S
C891 C888 1.499 . S
C891 C892 1.373 . S
C891 C893 1.389 . S
C892 H865 0.950 . S
C892 C878 1.377 . S
C892 C891 1.373 . S
C893 C877 1.377 . S
C893 C891 1.389 . S
C893 C894 1.524 . S
C894 C893 1.524 . S
C894 C895 1.397 . S
C894 C899 1.363 . S
C895 H866 0.950 . S
C895 C894 1.397 . S
C895 C896 1.334 . S
C896 H867 0.950 . S
C896 C895 1.334 . S
C896 C897 1.287 . S
C897 C896 1.287 . S
C897 C898 1.524 . S
C897 H900 0.999 . S
C898 H868 0.950 . S
C898 C897 1.524 . S
C898 C899 1.415 . S
C899 H869 0.950 . S
C899 C894 1.363 . S
C899 C898 1.415 . S
H900 C897 0.999 . S
H901 C882 0.913 . S
H902 C920 0.951 . S
H903 C922 0.951 . S
H904 C924 0.950 . S
H905 C925 0.950 . S
H906 C927 0.950 1_556 S
H907 C930 0.950 . S
H908 C931 0.950 . S
H909 C933 0.950 . S
H910 C934 0.950 . S
H911 C935 0.951 . S
H912 C937 0.951 . S
H913 C939 0.950 . S
H914 C940 0.950 . S
H915 C942 0.950 . S
H916 C945 0.950 . S
H917 C946 0.950 1_554 S
H918 C948 0.950 . S
H919 C949 0.950 . S
C920 H902 0.951 . S
C920 C921 1.366 . S
C920 C922 1.388 . S
C921 C920 1.366 . S
C921 C925 1.385 1_554 S
C922 H903 0.951 . S
C922 C920 1.388 . S
C922 C923 1.366 . S
C923 C922 1.366 . S
C923 C924 1.414 1_554 S
C923 C926 1.499 . S
C924 H904 0.950 . S
C924 C923 1.414 1_556 S
C924 C925 1.374 . S
C925 H905 0.950 . S
C925 C921 1.385 1_556 S
C925 C924 1.374 . S
C926 C923 1.499 . S
C926 C927 1.373 . S
C926 C928 1.389 . S
C927 H906 0.950 1_554 S
C927 C926 1.373 . S
C927 C943 1.377 . S
C928 C926 1.389 . S
C928 C929 1.524 . S
C928 C942 1.377 . S
C929 C928 1.524 . S
C929 C930 1.397 . S
C929 C934 1.363 . S
C930 H907 0.950 . S
C930 C929 1.397 . S
C930 C931 1.334 . S
C931 H908 0.950 . S
C931 C930 1.334 . S
C931 C932 1.287 . S
C932 C931 1.287 . S
C932 C933 1.524 . S
C932 H951 0.913 . S
C933 H909 0.950 . S
C933 C932 1.524 . S
C933 C934 1.415 . S
C934 H910 0.950 . S
C934 C929 1.363 . S
C934 C933 1.415 . S
C935 H911 0.951 . S
C935 C936 1.366 . S
C935 C937 1.388 . S
C936 C935 1.366 . S
C936 C940 1.385 . S
C937 H912 0.951 . S
C937 C935 1.388 . S
C937 C938 1.366 . S
C938 C937 1.366 . S
C938 C939 1.414 . S
C938 C941 1.499 . S
C939 H913 0.950 . S
C939 C938 1.414 . S
C939 C940 1.374 . S
C940 H914 0.950 . S
C940 C936 1.385 . S
C940 C939 1.374 . S
C941 C938 1.499 . S
C941 C942 1.373 . S
C941 C943 1.389 . S
C942 H915 0.950 . S
C942 C928 1.377 . S
C942 C941 1.373 . S
C943 C927 1.377 . S
C943 C941 1.389 . S
C943 C944 1.524 1_554 S
C944 C943 1.524 1_556 S
C944 C945 1.397 1_556 S
C944 C949 1.363 . S
C945 H916 0.950 . S
C945 C944 1.397 1_554 S
C945 C946 1.334 1_554 S
C946 H917 0.950 1_556 S
C946 C945 1.334 1_556 S
C946 C947 1.287 . S
C947 C946 1.287 . S
C947 C948 1.524 . S
C947 H950 0.999 . S
C948 H918 0.950 . S
C948 C947 1.524 . S
C948 C949 1.415 . S
C949 H919 0.950 . S
C949 C944 1.363 . S
C949 C948 1.415 . S
H950 C947 0.999 . S
H951 C932 0.913 . S
H952 C970 0.951 . S
H953 C972 0.951 . S
H954 C974 0.950 . S
H955 C975 0.950 . S
H956 C977 0.950 . S
H957 C980 0.950 . S
H958 C981 0.950 . S
H959 C983 0.950 . S
H960 C984 0.950 . S
H961 C985 0.951 . S
H962 C987 0.951 . S
H963 C989 0.950 . S
H964 C990 0.950 . S
H965 C992 0.950 . S
H966 C995 0.950 . S
H967 C996 0.950 . S
H968 C998 0.950 . S
H969 C999 0.950 . S
C970 H952 0.951 . S
C970 C971 1.366 . S
C970 C972 1.388 . S
C971 C970 1.366 . S
C971 C975 1.385 . S
C972 H953 0.951 . S
C972 C970 1.388 . S
C972 C973 1.366 . S
C973 C972 1.366 . S
C973 C974 1.414 . S
C973 C976 1.499 . S
C974 H954 0.950 . S
C974 C973 1.414 . S
C974 C975 1.374 . S
C975 H955 0.950 . S
C975 C971 1.385 . S
C975 C974 1.374 . S
C976 C973 1.499 . S
C976 C977 1.373 . S
C976 C978 1.389 . S
C977 H956 0.950 . S
C977 C976 1.373 . S
C977 C993 1.377 . S
C978 C976 1.389 . S
C978 C979 1.524 . S
C978 C992 1.377 . S
C979 C978 1.524 . S
C979 C980 1.397 . S
C979 C984 1.363 . S
C980 H957 0.950 . S
C980 C979 1.397 . S
C980 C981 1.334 . S
C981 H958 0.950 . S
C981 C980 1.334 . S
C981 C982 1.287 . S
C982 C981 1.287 . S
C982 C983 1.524 . S
C982 H1001 0.913 . S
C983 H959 0.950 . S
C983 C982 1.524 . S
C983 C984 1.415 . S
C984 H960 0.950 . S
C984 C979 1.363 . S
C984 C983 1.415 . S
C985 H961 0.951 . S
C985 C986 1.366 . S
C985 C987 1.388 . S
C986 C985 1.366 . S
C986 C990 1.385 . S
C987 H962 0.951 . S
C987 C985 1.388 . S
C987 C988 1.366 . S
C988 C987 1.366 . S
C988 C989 1.414 . S
C988 C991 1.499 . S
C989 H963 0.950 . S
C989 C988 1.414 . S
C989 C990 1.374 . S
C990 H964 0.950 . S
C990 C986 1.385 . S
C990 C989 1.374 . S
C991 C988 1.499 . S
C991 C992 1.373 . S
C991 C993 1.389 . S
C992 H965 0.950 . S
C992 C978 1.377 . S
C992 C991 1.373 . S
C993 C977 1.377 . S
C993 C991 1.389 . S
C993 C994 1.524 . S
C994 C993 1.524 . S
C994 C995 1.397 . S
C994 C999 1.363 . S
C995 H966 0.950 . S
C995 C994 1.397 . S
C995 C996 1.334 . S
C996 H967 0.950 . S
C996 C995 1.334 . S
C996 C997 1.287 . S
C997 C996 1.287 . S
C997 C998 1.524 . S
C997 H1000 0.999 . S
C998 H968 0.950 . S
C998 C997 1.524 . S
C998 C999 1.415 . S
C999 H969 0.950 . S
C999 C994 1.363 . S
C999 C998 1.415 . S
H1000 C997 0.999 . S
H1001 C982 0.913 . S
H1002 C1020 0.951 . S
H1003 C1022 0.951 . S
H1004 C1024 0.950 . S
H1005 C1025 0.950 . S
H1006 C1027 0.950 . S
H1007 C1030 0.950 . S
H1008 C1031 0.950 . S
H1009 C1033 0.950 . S
H1010 C1034 0.950 . S
H1011 C1035 0.951 . S
H1012 C1037 0.951 . S
H1013 C1039 0.950 . S
H1014 C1040 0.950 1_554 S
H1015 C1042 0.950 . S
H1016 C1045 0.950 . S
H1017 C1046 0.950 . S
H1018 C1048 0.970 . S
H1019 C1049 0.950 . S
C1020 H1002 0.951 . S
C1020 C1021 1.356 1_455 S
C1020 C1022 1.388 . S
C1021 C1020 1.356 1_655 S
C1021 C1025 1.403 . S
C1022 H1003 0.951 . S
C1022 C1020 1.388 . S
C1022 C1023 1.366 1_455 S
C1023 C1022 1.366 1_655 S
C1023 C1024 1.414 . S
C1023 C1026 1.499 . S
C1024 H1004 0.950 . S
C1024 C1023 1.414 . S
C1024 C1025 1.374 . S
C1025 H1005 0.950 . S
C1025 C1021 1.403 . S
C1025 C1024 1.374 . S
C1026 C1023 1.499 . S
C1026 C1027 1.373 . S
C1026 C1028 1.389 . S
C1027 H1006 0.950 . S
C1027 C1026 1.373 . S
C1027 C1043 1.377 . S
C1028 C1026 1.389 . S
C1028 C1029 1.524 . S
C1028 C1042 1.377 . S
C1029 C1028 1.524 . S
C1029 C1030 1.397 . S
C1029 C1034 1.363 . S
C1030 H1007 0.950 . S
C1030 C1029 1.397 . S
C1030 C1031 1.334 . S
C1031 H1008 0.950 . S
C1031 C1030 1.334 . S
C1031 C1032 1.287 . S
C1032 C1031 1.287 . S
C1032 C1033 1.524 . S
C1032 H1051 0.913 . S
C1033 H1009 0.950 . S
C1033 C1032 1.524 . S
C1033 C1034 1.415 . S
C1034 H1010 0.950 . S
C1034 C1029 1.363 . S
C1034 C1033 1.415 . S
C1035 H1011 0.951 . S
C1035 C1036 1.366 1_556 S
C1035 C1037 1.388 . S
C1036 C1035 1.366 1_554 S
C1036 C1040 1.385 1_554 S
C1037 H1012 0.951 . S
C1037 C1035 1.388 . S
C1037 C1038 1.366 . S
C1038 C1037 1.366 . S
C1038 C1039 1.414 . S
C1038 C1041 1.499 . S
C1039 H1013 0.950 . S
C1039 C1038 1.414 . S
C1039 C1040 1.374 . S
C1040 H1014 0.950 1_556 S
C1040 C1036 1.385 1_556 S
C1040 C1039 1.374 . S
C1041 C1038 1.499 . S
C1041 C1042 1.373 . S
C1041 C1043 1.389 . S
C1042 H1015 0.950 . S
C1042 C1028 1.377 . S
C1042 C1041 1.373 . S
C1043 C1027 1.377 . S
C1043 C1041 1.389 . S
C1043 C1044 1.524 . S
C1044 C1043 1.524 . S
C1044 C1045 1.397 1_655 S
C1044 C1049 1.363 . S
C1045 H1016 0.950 . S
C1045 C1044 1.397 1_455 S
C1045 C1046 1.334 . S
C1046 H1017 0.950 . S
C1046 C1045 1.334 . S
C1046 C1047 1.287 . S
C1047 C1046 1.287 . S
C1047 C1048 1.490 1_455 S
C1047 H1050 0.999 . S
C1048 H1018 0.970 . S
C1048 C1047 1.490 1_655 S
C1048 C1049 1.429 . S
C1049 H1019 0.950 . S
C1049 C1044 1.363 . S
C1049 C1048 1.429 . S
H1050 C1047 0.999 . S
H1051 C1032 0.913 . S
H1052 C1070 0.951 . S
H1053 C1072 0.951 . S
H1054 C1074 0.950 . S
H1055 C1075 0.950 . S
H1056 C1077 0.950 . S
H1057 C1080 0.950 . S
H1058 C1081 0.950 . S
H1059 C1083 0.950 . S
H1060 C1084 0.950 . S
H1061 C1085 0.951 . S
H1062 C1087 0.951 . S
H1063 C1089 0.950 . S
H1064 C1090 0.950 . S
H1065 C1092 0.950 . S
H1066 C1095 0.950 . S
H1067 C1096 0.950 . S
H1068 C1098 0.950 . S
H1069 C1099 0.950 . S
C1070 H1052 0.951 . S
C1070 C1071 1.366 . S
C1070 C1072 1.388 . S
C1071 C1070 1.366 . S
C1071 C1075 1.385 . S
C1072 H1053 0.951 . S
C1072 C1070 1.388 . S
C1072 C1073 1.366 . S
C1073 C1072 1.366 . S
C1073 C1074 1.414 . S
C1073 C1076 1.499 . S
C1074 H1054 0.950 . S
C1074 C1073 1.414 . S
C1074 C1075 1.374 . S
C1075 H1055 0.950 . S
C1075 C1071 1.385 . S
C1075 C1074 1.374 . S
C1076 C1073 1.499 . S
C1076 C1077 1.373 . S
C1076 C1078 1.389 . S
C1077 H1056 0.950 . S
C1077 C1076 1.373 . S
C1077 C1093 1.377 . S
C1078 C1076 1.389 . S
C1078 C1079 1.524 . S
C1078 C1092 1.377 . S
C1079 C1078 1.524 . S
C1079 C1080 1.397 . S
C1079 C1084 1.363 . S
C1080 H1057 0.950 . S
C1080 C1079 1.397 . S
C1080 C1081 1.334 . S
C1081 H1058 0.950 . S
C1081 C1080 1.334 . S
C1081 C1082 1.287 . S
C1082 C1081 1.287 . S
C1082 C1083 1.524 . S
C1082 H1101 0.913 . S
C1083 H1059 0.950 . S
C1083 C1082 1.524 . S
C1083 C1084 1.415 . S
C1084 H1060 0.950 . S
C1084 C1079 1.363 . S
C1084 C1083 1.415 . S
C1085 H1061 0.951 . S
C1085 C1086 1.366 . S
C1085 C1087 1.388 . S
C1086 C1085 1.366 . S
C1086 C1090 1.385 . S
C1087 H1062 0.951 . S
C1087 C1085 1.388 . S
C1087 C1088 1.366 . S
C1088 C1087 1.366 . S
C1088 C1089 1.414 . S
C1088 C1091 1.499 . S
C1089 H1063 0.950 . S
C1089 C1088 1.414 . S
C1089 C1090 1.374 . S
C1090 H1064 0.950 . S
C1090 C1086 1.385 . S
C1090 C1089 1.374 . S
C1091 C1088 1.499 . S
C1091 C1092 1.373 . S
C1091 C1093 1.389 . S
C1092 H1065 0.950 . S
C1092 C1078 1.377 . S
C1092 C1091 1.373 . S
C1093 C1077 1.377 . S
C1093 C1091 1.389 . S
C1093 C1094 1.524 . S
C1094 C1093 1.524 . S
C1094 C1095 1.397 . S
C1094 C1099 1.363 . S
C1095 H1066 0.950 . S
C1095 C1094 1.397 . S
C1095 C1096 1.334 . S
C1096 H1067 0.950 . S
C1096 C1095 1.334 . S
C1096 C1097 1.287 . S
C1097 C1096 1.287 . S
C1097 C1098 1.524 . S
C1097 H1100 0.999 . S
C1098 H1068 0.950 . S
C1098 C1097 1.524 . S
C1098 C1099 1.415 . S
C1099 H1069 0.950 . S
C1099 C1094 1.363 . S
C1099 C1098 1.415 . S
H1100 C1097 0.999 . S
H1101 C1082 0.913 . S
H1102 C1120 0.951 . S
H1103 C1122 0.951 1_655 S
H1104 C1124 0.950 . S
H1105 C1125 0.950 . S
H1106 C1127 0.950 . S
H1107 C1130 0.950 . S
H1108 C1131 0.950 . S
H1109 C1133 0.950 . S
H1110 C1134 0.950 . S
H1111 C1135 0.951 . S
H1112 C1137 0.951 . S
H1113 C1139 0.950 . S
H1114 C1140 0.950 . S
H1115 C1142 0.950 1_655 S
H1116 C1145 0.950 . S
H1117 C1146 0.950 . S
H1118 C1148 0.950 . S
H1119 C1149 0.950 . S
C1120 H1102 0.951 . S
C1120 C1121 1.366 1_655 S
C1120 C1122 1.388 1_655 S
C1121 C1120 1.366 1_455 S
C1121 C1125 1.385 . S
C1122 H1103 0.951 1_455 S
C1122 C1120 1.388 1_455 S
C1122 C1123 1.366 . S
C1123 C1122 1.366 . S
C1123 C1124 1.414 . S
C1123 C1126 1.499 . S
C1124 H1104 0.950 . S
C1124 C1123 1.414 . S
C1124 C1125 1.374 . S
C1125 H1105 0.950 . S
C1125 C1121 1.385 . S
C1125 C1124 1.374 . S
C1126 C1123 1.499 . S
C1126 C1127 1.373 . S
C1126 C1128 1.389 . S
C1127 H1106 0.950 . S
C1127 C1126 1.373 . S
C1127 C1143 1.377 . S
C1128 C1126 1.389 . S
C1128 C1129 1.524 1_455 S
C1128 C1142 1.377 . S
C1129 C1128 1.524 1_655 S
C1129 C1130 1.397 . S
C1129 C1134 1.363 . S
C1130 H1107 0.950 . S
C1130 C1129 1.397 . S
C1130 C1131 1.334 . S
C1131 H1108 0.950 . S
C1131 C1130 1.334 . S
C1131 C1132 1.287 . S
C1132 C1131 1.287 . S
C1132 C1133 1.524 . S
C1132 H1151 0.913 . S
C1133 H1109 0.950 . S
C1133 C1132 1.524 . S
C1133 C1134 1.415 . S
C1134 H1110 0.950 . S
C1134 C1129 1.363 . S
C1134 C1133 1.415 . S
C1135 H1111 0.951 . S
C1135 C1136 1.366 . S
C1135 C1137 1.388 . S
C1136 C1135 1.366 . S
C1136 C1140 1.385 . S
C1137 H1112 0.951 . S
C1137 C1135 1.388 . S
C1137 C1138 1.366 . S
C1138 C1137 1.366 . S
C1138 C1139 1.414 . S
C1138 C1141 1.499 . S
C1139 H1113 0.950 . S
C1139 C1138 1.414 . S
C1139 C1140 1.374 . S
C1140 H1114 0.950 . S
C1140 C1136 1.385 . S
C1140 C1139 1.374 . S
C1141 C1138 1.499 . S
C1141 C1142 1.373 . S
C1141 C1143 1.389 . S
C1142 H1115 0.950 1_455 S
C1142 C1128 1.377 . S
C1142 C1141 1.373 . S
C1143 C1127 1.377 . S
C1143 C1141 1.389 . S
C1143 C1144 1.524 . S
C1144 C1143 1.524 . S
C1144 C1145 1.397 . S
C1144 C1149 1.363 . S
C1145 H1116 0.950 . S
C1145 C1144 1.397 . S
C1145 C1146 1.334 . S
C1146 H1117 0.950 . S
C1146 C1145 1.334 . S
C1146 C1147 1.287 . S
C1147 C1146 1.287 . S
C1147 C1148 1.524 . S
C1147 H1150 0.999 . S
C1148 H1118 0.950 . S
C1148 C1147 1.524 . S
C1148 C1149 1.415 . S
C1149 H1119 0.950 . S
C1149 C1144 1.363 . S
C1149 C1148 1.415 . S
H1150 C1147 0.999 . S
H1151 C1132 0.913 . S
H1152 C1170 0.951 . S
H1153 C1172 0.951 . S
H1154 C1174 0.950 . S
H1155 C1175 0.950 . S
H1156 C1177 0.950 . S
H1157 C1180 0.950 . S
H1158 C1181 0.950 . S
H1159 C1183 0.950 . S
H1160 C1184 0.950 . S
H1161 C1185 0.951 . S
H1162 C1187 0.951 . S
H1163 C1189 0.950 . S
H1164 C1190 0.950 . S
H1165 C1192 0.950 . S
H1166 C1195 0.950 . S
H1167 C1196 0.950 . S
H1168 C1198 0.950 . S
H1169 C1199 0.950 . S
C1170 H1152 0.951 . S
C1170 C1171 1.366 . S
C1170 C1172 1.388 . S
C1171 C1170 1.366 . S
C1171 C1175 1.385 . S
C1172 H1153 0.951 . S
C1172 C1170 1.388 . S
C1172 C1173 1.366 . S
C1173 C1172 1.366 . S
C1173 C1174 1.414 . S
C1173 C1176 1.499 . S
C1174 H1154 0.950 . S
C1174 C1173 1.414 . S
C1174 C1175 1.374 . S
C1175 H1155 0.950 . S
C1175 C1171 1.385 . S
C1175 C1174 1.374 . S
C1176 C1173 1.499 . S
C1176 C1177 1.373 . S
C1176 C1178 1.389 . S
C1177 H1156 0.950 . S
C1177 C1176 1.373 . S
C1177 C1193 1.377 . S
C1178 C1176 1.389 . S
C1178 C1179 1.524 . S
C1178 C1192 1.377 . S
C1179 C1178 1.524 . S
C1179 C1180 1.397 . S
C1179 C1184 1.363 . S
C1180 H1157 0.950 . S
C1180 C1179 1.397 . S
C1180 C1181 1.334 . S
C1181 H1158 0.950 . S
C1181 C1180 1.334 . S
C1181 C1182 1.287 . S
C1182 C1181 1.287 . S
C1182 C1183 1.524 . S
C1182 H1201 0.913 . S
C1183 H1159 0.950 . S
C1183 C1182 1.524 . S
C1183 C1184 1.415 . S
C1184 H1160 0.950 . S
C1184 C1179 1.363 . S
C1184 C1183 1.415 . S
C1185 H1161 0.951 . S
C1185 C1186 1.366 . S
C1185 C1187 1.388 . S
C1186 C1185 1.366 . S
C1186 C1190 1.385 . S
C1187 H1162 0.951 . S
C1187 C1185 1.388 . S
C1187 C1188 1.366 . S
C1188 C1187 1.366 . S
C1188 C1189 1.414 . S
C1188 C1191 1.499 . S
C1189 H1163 0.950 . S
C1189 C1188 1.414 . S
C1189 C1190 1.374 . S
C1190 H1164 0.950 . S
C1190 C1186 1.385 . S
C1190 C1189 1.374 . S
C1191 C1188 1.499 . S
C1191 C1192 1.373 . S
C1191 C1193 1.389 . S
C1192 H1165 0.950 . S
C1192 C1178 1.377 . S
C1192 C1191 1.373 . S
C1193 C1177 1.377 . S
C1193 C1191 1.389 . S
C1193 C1194 1.524 . S
C1194 C1193 1.524 . S
C1194 C1195 1.397 . S
C1194 C1199 1.363 . S
C1195 H1166 0.950 . S
C1195 C1194 1.397 . S
C1195 C1196 1.334 . S
C1196 H1167 0.950 . S
C1196 C1195 1.334 . S
C1196 C1197 1.287 . S
C1197 C1196 1.287 . S
C1197 C1198 1.524 . S
C1197 H1200 0.999 . S
C1198 H1168 0.950 . S
C1198 C1197 1.524 . S
C1198 C1199 1.415 . S
C1199 H1169 0.950 . S
C1199 C1194 1.363 . S
C1199 C1198 1.415 . S
H1200 C1197 0.999 . S
H1201 C1182 0.913 . S
H1202 C1220 0.951 . S
H1203 C1222 0.951 . S
H1204 C1224 0.950 . S
H1205 C1225 0.950 . S
H1206 C1227 0.950 . S
H1207 C1230 0.950 . S
H1208 C1231 0.950 . S
H1209 C1233 0.950 . S
H1210 C1234 0.950 . S
H1211 C1235 0.951 . S
H1212 C1237 0.951 . S
H1213 C1239 0.950 . S
H1214 C1240 0.950 . S
H1215 C1242 0.950 . S
H1216 C1245 0.950 . S
H1217 C1246 0.950 . S
H1218 C1248 0.950 . S
H1219 C1249 0.950 . S
C1220 H1202 0.951 . S
C1220 C1221 1.366 . S
C1220 C1222 1.388 . S
C1221 C1220 1.366 . S
C1221 C1225 1.385 . S
C1222 H1203 0.951 . S
C1222 C1220 1.388 . S
C1222 C1223 1.366 . S
C1223 C1222 1.366 . S
C1223 C1224 1.414 . S
C1223 C1226 1.499 . S
C1224 H1204 0.950 . S
C1224 C1223 1.414 . S
C1224 C1225 1.374 . S
C1225 H1205 0.950 . S
C1225 C1221 1.385 . S
C1225 C1224 1.374 . S
C1226 C1223 1.499 . S
C1226 C1227 1.373 . S
C1226 C1228 1.389 . S
C1227 H1206 0.950 . S
C1227 C1226 1.373 . S
C1227 C1243 1.377 . S
C1228 C1226 1.389 . S
C1228 C1229 1.524 . S
C1228 C1242 1.377 . S
C1229 C1228 1.524 . S
C1229 C1230 1.397 . S
C1229 C1234 1.363 . S
C1230 H1207 0.950 . S
C1230 C1229 1.397 . S
C1230 C1231 1.334 . S
C1231 H1208 0.950 . S
C1231 C1230 1.334 . S
C1231 C1232 1.287 . S
C1232 C1231 1.287 . S
C1232 C1233 1.524 . S
C1232 H1251 0.913 . S
C1233 H1209 0.950 . S
C1233 C1232 1.524 . S
C1233 C1234 1.415 . S
C1234 H1210 0.950 . S
C1234 C1229 1.363 . S
C1234 C1233 1.415 . S
C1235 H1211 0.951 . S
C1235 C1236 1.366 . S
C1235 C1237 1.388 . S
C1236 C1235 1.366 . S
C1236 C1240 1.385 . S
C1237 H1212 0.951 . S
C1237 C1235 1.388 . S
C1237 C1238 1.366 . S
C1238 C1237 1.366 . S
C1238 C1239 1.414 . S
C1238 C1241 1.499 . S
C1239 H1213 0.950 . S
C1239 C1238 1.414 . S
C1239 C1240 1.374 . S
C1240 H1214 0.950 . S
C1240 C1236 1.385 . S
C1240 C1239 1.374 . S
C1241 C1238 1.499 . S
C1241 C1242 1.373 . S
C1241 C1243 1.389 . S
C1242 H1215 0.950 . S
C1242 C1228 1.377 . S
C1242 C1241 1.373 . S
C1243 C1227 1.377 . S
C1243 C1241 1.389 . S
C1243 C1244 1.524 . S
C1244 C1243 1.524 . S
C1244 C1245 1.397 . S
C1244 C1249 1.363 . S
C1245 H1216 0.950 . S
C1245 C1244 1.397 . S
C1245 C1246 1.334 . S
C1246 H1217 0.950 . S
C1246 C1245 1.334 . S
C1246 C1247 1.287 . S
C1247 C1246 1.287 . S
C1247 C1248 1.524 . S
C1247 H1250 0.999 . S
C1248 H1218 0.950 . S
C1248 C1247 1.524 . S
C1248 C1249 1.415 . S
C1249 H1219 0.950 . S
C1249 C1244 1.363 . S
C1249 C1248 1.415 . S
H1250 C1247 0.999 . S
H1251 C1232 0.913 . S
H1252 C1270 0.951 . S
H1253 C1272 0.951 . S
H1254 C1274 0.944 1_545 S
H1255 C1275 0.953 . S
H1256 C1277 0.950 . S
H1257 C1280 0.950 . S
H1258 C1281 0.950 . S
H1259 C1283 0.953 . S
H1260 C1284 0.950 . S
H1261 C1285 0.951 . S
H1262 C1287 0.951 . S
H1263 C1289 0.950 . S
H1264 C1290 0.950 . S
H1265 C1292 0.950 . S
H1266 C1295 0.950 . S
H1267 C1296 0.950 . S
H1268 C1298 0.950 . S
H1269 C1299 0.950 . S
C1270 H1252 0.951 . S
C1270 C1271 1.366 . S
C1270 C1272 1.388 . S
C1271 C1270 1.366 . S
C1271 C1275 1.383 1_565 S
C1272 H1253 0.951 . S
C1272 C1270 1.388 . S
C1272 C1273 1.366 . S
C1273 C1272 1.366 . S
C1273 C1274 1.414 . S
C1273 C1276 1.499 . S
C1274 H1254 0.944 1_565 S
C1274 C1273 1.414 . S
C1274 C1275 1.373 1_565 S
C1275 H1255 0.953 . S
C1275 C1271 1.383 1_545 S
C1275 C1274 1.373 1_545 S
C1276 C1273 1.499 . S
C1276 C1277 1.373 . S
C1276 C1278 1.389 . S
C1277 H1256 0.950 . S
C1277 C1276 1.373 . S
C1277 C1293 1.377 . S
C1278 C1276 1.389 . S
C1278 C1279 1.541 . S
C1278 C1292 1.377 . S
C1279 C1278 1.541 . S
C1279 C1280 1.364 1_565 S
C1279 C1284 1.378 . S
C1280 H1257 0.950 . S
C1280 C1279 1.364 1_545 S
C1280 C1281 1.334 . S
C1281 H1258 0.950 . S
C1281 C1280 1.334 . S
C1281 C1282 1.287 . S
C1282 C1281 1.287 . S
C1282 C1283 1.524 . S
C1282 H1301 0.913 . S
C1283 H1259 0.953 . S
C1283 C1282 1.524 . S
C1283 C1284 1.415 1_545 S
C1284 H1260 0.950 . S
C1284 C1279 1.378 . S
C1284 C1283 1.415 1_565 S
C1285 H1261 0.951 . S
C1285 C1286 1.366 . S
C1285 C1287 1.388 . S
C1286 C1285 1.366 . S
C1286 C1290 1.385 . S
C1287 H1262 0.951 . S
C1287 C1285 1.388 . S
C1287 C1288 1.366 . S
C1288 C1287 1.366 . S
C1288 C1289 1.414 . S
C1288 C1291 1.499 . S
C1289 H1263 0.950 . S
C1289 C1288 1.414 . S
C1289 C1290 1.374 . S
C1290 H1264 0.950 . S
C1290 C1286 1.385 . S
C1290 C1289 1.374 . S
C1291 C1288 1.499 . S
C1291 C1292 1.373 . S
C1291 C1293 1.389 . S
C1292 H1265 0.950 . S
C1292 C1278 1.377 . S
C1292 C1291 1.373 . S
C1293 C1277 1.377 . S
C1293 C1291 1.389 . S
C1293 C1294 1.524 . S
C1294 C1293 1.524 . S
C1294 C1295 1.397 . S
C1294 C1299 1.363 . S
C1295 H1266 0.950 . S
C1295 C1294 1.397 . S
C1295 C1296 1.334 . S
C1296 H1267 0.950 . S
C1296 C1295 1.334 . S
C1296 C1297 1.287 . S
C1297 C1296 1.287 . S
C1297 C1298 1.524 . S
C1297 H1300 0.999 . S
C1298 H1268 0.950 . S
C1298 C1297 1.524 . S
C1298 C1299 1.415 . S
C1299 H1269 0.950 . S
C1299 C1294 1.363 . S
C1299 C1298 1.415 . S
H1300 C1297 0.999 . S
H1301 C1282 0.913 . S
H1302 C1320 0.951 . S
H1303 C1322 0.951 . S
H1304 C1324 0.950 . S
H1305 C1325 0.950 . S
H1306 C1327 0.950 . S
H1307 C1330 0.950 . S
H1308 C1331 0.950 . S
H1309 C1333 0.950 . S
H1310 C1334 0.950 . S
H1311 C1335 0.951 . S
H1312 C1337 0.951 . S
H1313 C1339 0.950 1_565 S
H1314 C1340 0.950 1_655 S
H1315 C1342 0.948 . S
H1316 C1345 0.950 . S
H1317 C1346 0.950 . S
H1318 C1348 0.950 . S
H1319 C1349 0.950 . S
C1320 H1302 0.951 . S
C1320 C1321 1.346 1_565 S
C1320 C1322 1.388 . S
C1321 C1320 1.346 1_545 S
C1321 C1325 1.413 . S
C1322 H1303 0.951 . S
C1322 C1320 1.388 . S
C1322 C1323 1.366 1_565 S
C1323 C1322 1.366 1_545 S
C1323 C1324 1.414 . S
C1323 C1326 1.499 . S
C1324 H1304 0.950 . S
C1324 C1323 1.414 . S
C1324 C1325 1.374 . S
C1325 H1305 0.950 . S
C1325 C1321 1.413 . S
C1325 C1324 1.374 . S
C1326 C1323 1.499 . S
C1326 C1327 1.373 . S
C1326 C1328 1.389 1_545 S
C1327 H1306 0.950 . S
C1327 C1326 1.373 . S
C1327 C1343 1.377 . S
C1328 C1326 1.389 1_565 S
C1328 C1329 1.524 . S
C1328 C1342 1.375 . S
C1329 C1328 1.524 . S
C1329 C1330 1.397 . S
C1329 C1334 1.363 . S
C1330 H1307 0.950 . S
C1330 C1329 1.397 . S
C1330 C1331 1.334 . S
C1331 H1308 0.950 . S
C1331 C1330 1.334 . S
C1331 C1332 1.287 . S
C1332 C1331 1.287 . S
C1332 C1333 1.524 . S
C1332 H1351 0.913 . S
C1333 H1309 0.950 . S
C1333 C1332 1.524 . S
C1333 C1334 1.415 . S
C1334 H1310 0.950 . S
C1334 C1329 1.363 . S
C1334 C1333 1.415 . S
C1335 H1311 0.951 . S
C1335 C1336 1.366 1_455 S
C1335 C1337 1.388 . S
C1336 C1335 1.366 1_655 S
C1336 C1340 1.385 1_655 S
C1337 H1312 0.951 . S
C1337 C1335 1.388 . S
C1337 C1338 1.366 . S
C1338 C1337 1.366 . S
C1338 C1339 1.414 . S
C1338 C1341 1.499 . S
C1339 H1313 0.950 1_545 S
C1339 C1338 1.414 . S
C1339 C1340 1.374 . S
C1340 H1314 0.950 1_455 S
C1340 C1336 1.385 1_455 S
C1340 C1339 1.374 . S
C1341 C1338 1.499 . S
C1341 C1342 1.377 1_545 S
C1341 C1343 1.389 . S
C1342 H1315 0.948 . S
C1342 C1328 1.375 . S
C1342 C1341 1.377 1_565 S
C1343 C1327 1.377 . S
C1343 C1341 1.389 . S
C1343 C1344 1.524 . S
C1344 C1343 1.524 . S
C1344 C1345 1.397 . S
C1344 C1349 1.363 . S
C1345 H1316 0.950 . S
C1345 C1344 1.397 . S
C1345 C1346 1.334 . S
C1346 H1317 0.950 . S
C1346 C1345 1.334 . S
C1346 C1347 1.287 . S
C1347 C1346 1.287 . S
C1347 C1348 1.524 . S
C1347 H1350 0.999 . S
C1348 H1318 0.950 . S
C1348 C1347 1.524 . S
C1348 C1349 1.415 . S
C1349 H1319 0.950 . S
C1349 C1344 1.363 . S
C1349 C1348 1.415 . S
H1350 C1347 0.999 . S
H1351 C1332 0.913 . S
H1352 C1370 0.951 . S
H1353 C1372 0.951 . S
H1354 C1374 0.950 . S
H1355 C1375 0.950 . S
H1356 C1377 0.950 . S
H1357 C1380 0.950 . S
H1358 C1381 0.950 . S
H1359 C1383 0.950 . S
H1360 C1384 0.950 . S
H1361 C1385 0.951 . S
H1362 C1387 0.951 . S
H1363 C1389 0.950 . S
H1364 C1390 0.950 . S
H1365 C1392 0.950 . S
H1366 C1395 0.950 . S
H1367 C1396 0.950 . S
H1368 C1398 0.950 . S
H1369 C1399 0.950 . S
C1370 H1352 0.951 . S
C1370 C1371 1.366 . S
C1370 C1372 1.388 . S
C1371 C1370 1.366 . S
C1371 C1375 1.385 . S
C1372 H1353 0.951 . S
C1372 C1370 1.388 . S
C1372 C1373 1.366 . S
C1373 C1372 1.366 . S
C1373 C1374 1.414 . S
C1373 C1376 1.499 . S
C1374 H1354 0.950 . S
C1374 C1373 1.414 . S
C1374 C1375 1.374 . S
C1375 H1355 0.950 . S
C1375 C1371 1.385 . S
C1375 C1374 1.374 . S
C1376 C1373 1.499 . S
C1376 C1377 1.373 . S
C1376 C1378 1.389 . S
C1377 H1356 0.950 . S
C1377 C1376 1.373 . S
C1377 C1393 1.377 . S
C1378 C1376 1.389 . S
C1378 C1379 1.524 . S
C1378 C1392 1.377 . S
C1379 C1378 1.524 . S
C1379 C1380 1.397 . S
C1379 C1384 1.363 . S
C1380 H1357 0.950 . S
C1380 C1379 1.397 . S
C1380 C1381 1.334 . S
C1381 H1358 0.950 . S
C1381 C1380 1.334 . S
C1381 C1382 1.287 . S
C1382 C1381 1.287 . S
C1382 C1383 1.524 . S
C1382 H1401 0.913 . S
C1383 H1359 0.950 . S
C1383 C1382 1.524 . S
C1383 C1384 1.415 . S
C1384 H1360 0.950 . S
C1384 C1379 1.363 . S
C1384 C1383 1.415 . S
C1385 H1361 0.951 . S
C1385 C1386 1.366 . S
C1385 C1387 1.388 . S
C1386 C1385 1.366 . S
C1386 C1390 1.385 . S
C1387 H1362 0.951 . S
C1387 C1385 1.388 . S
C1387 C1388 1.366 . S
C1388 C1387 1.366 . S
C1388 C1389 1.414 . S
C1388 C1391 1.499 . S
C1389 H1363 0.950 . S
C1389 C1388 1.414 . S
C1389 C1390 1.374 . S
C1390 H1364 0.950 . S
C1390 C1386 1.385 . S
C1390 C1389 1.374 . S
C1391 C1388 1.499 . S
C1391 C1392 1.373 . S
C1391 C1393 1.389 . S
C1392 H1365 0.950 . S
C1392 C1378 1.377 . S
C1392 C1391 1.373 . S
C1393 C1377 1.377 . S
C1393 C1391 1.389 . S
C1393 C1394 1.524 . S
C1394 C1393 1.524 . S
C1394 C1395 1.397 . S
C1394 C1399 1.363 . S
C1395 H1366 0.950 . S
C1395 C1394 1.397 . S
C1395 C1396 1.334 . S
C1396 H1367 0.950 . S
C1396 C1395 1.334 . S
C1396 C1397 1.287 . S
C1397 C1396 1.287 . S
C1397 C1398 1.524 . S
C1397 H1400 0.999 . S
C1398 H1368 0.950 . S
C1398 C1397 1.524 . S
C1398 C1399 1.415 . S
C1399 H1369 0.950 . S
C1399 C1394 1.363 . S
C1399 C1398 1.415 . S
H1400 C1397 0.999 . S
H1401 C1382 0.913 . S
H1402 C1420 0.951 . S
H1403 C1422 0.951 . S
H1404 C1424 0.950 . S
H1405 C1425 0.950 . S
H1406 C1427 0.950 . S
H1407 C1430 0.950 . S
H1408 C1431 0.950 . S
H1409 C1433 0.950 . S
H1410 C1434 0.995 . S
H1411 C1435 0.951 1_565 S
H1412 C1437 0.951 . S
H1413 C1439 0.950 . S
H1414 C1440 0.950 . S
H1415 C1442 0.950 . S
H1416 C1445 0.950 . S
H1417 C1446 0.950 . S
H1418 C1448 0.950 . S
H1419 C1449 0.950 . S
C1420 H1402 0.951 . S
C1420 C1421 1.377 . S
C1420 C1422 1.388 . S
C1421 C1420 1.377 . S
C1421 C1425 1.380 1_554 S
C1422 H1403 0.951 . S
C1422 C1420 1.388 . S
C1422 C1423 1.366 . S
C1423 C1422 1.366 . S
C1423 C1424 1.414 1_554 S
C1423 C1426 1.499 . S
C1424 H1404 0.950 . S
C1424 C1423 1.414 1_556 S
C1424 C1425 1.374 . S
C1425 H1405 0.950 . S
C1425 C1421 1.380 1_556 S
C1425 C1424 1.374 . S
C1426 C1423 1.499 . S
C1426 C1427 1.373 . S
C1426 C1428 1.389 . S
C1427 H1406 0.950 . S
C1427 C1426 1.373 . S
C1427 C1443 1.377 . S
C1428 C1426 1.389 . S
C1428 C1429 1.524 1_554 S
C1428 C1442 1.377 . S
C1429 C1428 1.524 1_556 S
C1429 C1430 1.397 . S
C1429 C1434 1.351 1_556 S
C1430 H1407 0.950 . S
C1430 C1429 1.397 . S
C1430 C1431 1.334 . S
C1431 H1408 0.950 . S
C1431 C1430 1.334 . S
C1431 C1432 1.287 . S
C1432 C1431 1.287 . S
C1432 C1433 1.524 . S
C1432 H1451 0.913 . S
C1433 H1409 0.950 . S
C1433 C1432 1.524 . S
C1433 C1434 1.385 1_556 S
C1434 H1410 0.995 . S
C1434 C1429 1.351 1_554 S
C1434 C1433 1.385 1_554 S
C1435 H1411 0.951 1_545 S
C1435 C1436 1.366 1_545 S
C1435 C1437 1.388 . S
C1436 C1435 1.366 1_565 S
C1436 C1440 1.385 1_565 S
C1437 H1412 0.951 . S
C1437 C1435 1.388 . S
C1437 C1438 1.366 . S
C1438 C1437 1.366 . S
C1438 C1439 1.414 . S
C1438 C1441 1.499 . S
C1439 H1413 0.950 . S
C1439 C1438 1.414 . S
C1439 C1440 1.374 . S
C1440 H1414 0.950 . S
C1440 C1436 1.385 1_545 S
C1440 C1439 1.374 . S
C1441 C1438 1.499 . S
C1441 C1442 1.373 . S
C1441 C1443 1.389 . S
C1442 H1415 0.950 . S
C1442 C1428 1.377 . S
C1442 C1441 1.373 . S
C1443 C1427 1.377 . S
C1443 C1441 1.389 . S
C1443 C1444 1.524 . S
C1444 C1443 1.524 . S
C1444 C1445 1.397 . S
C1444 C1449 1.363 . S
C1445 H1416 0.950 . S
C1445 C1444 1.397 . S
C1445 C1446 1.334 . S
C1446 H1417 0.950 . S
C1446 C1445 1.334 . S
C1446 C1447 1.287 . S
C1447 C1446 1.287 . S
C1447 C1448 1.524 . S
C1447 H1450 0.999 . S
C1448 H1418 0.950 . S
C1448 C1447 1.524 . S
C1448 C1449 1.415 . S
C1449 H1419 0.950 . S
C1449 C1444 1.363 . S
C1449 C1448 1.415 . S
H1450 C1447 0.999 . S
H1451 C1432 0.913 . S
H1452 C1470 0.951 . S
H1453 C1472 0.951 . S
H1454 C1474 0.950 . S
H1455 C1475 0.950 . S
H1456 C1477 0.950 . S
H1457 C1480 0.950 . S
H1458 C1481 0.950 . S
H1459 C1483 0.950 . S
H1460 C1484 0.950 . S
H1461 C1485 0.951 . S
H1462 C1487 0.951 . S
H1463 C1489 0.950 . S
H1464 C1490 0.950 . S
H1465 C1492 0.950 . S
H1466 C1495 0.950 . S
H1467 C1496 0.950 . S
H1468 C1498 0.950 . S
H1469 C1499 0.950 . S
C1470 H1452 0.951 . S
C1470 C1471 1.366 . S
C1470 C1472 1.388 . S
C1471 C1470 1.366 . S
C1471 C1475 1.385 . S
C1472 H1453 0.951 . S
C1472 C1470 1.388 . S
C1472 C1473 1.366 . S
C1473 C1472 1.366 . S
C1473 C1474 1.414 . S
C1473 C1476 1.499 . S
C1474 H1454 0.950 . S
C1474 C1473 1.414 . S
C1474 C1475 1.374 . S
C1475 H1455 0.950 . S
C1475 C1471 1.385 . S
C1475 C1474 1.374 . S
C1476 C1473 1.499 . S
C1476 C1477 1.373 . S
C1476 C1478 1.389 . S
C1477 H1456 0.950 . S
C1477 C1476 1.373 . S
C1477 C1493 1.377 . S
C1478 C1476 1.389 . S
C1478 C1479 1.524 . S
C1478 C1492 1.377 . S
C1479 C1478 1.524 . S
C1479 C1480 1.397 . S
C1479 C1484 1.363 . S
C1480 H1457 0.950 . S
C1480 C1479 1.397 . S
C1480 C1481 1.334 . S
C1481 H1458 0.950 . S
C1481 C1480 1.334 . S
C1481 C1482 1.287 . S
C1482 C1481 1.287 . S
C1482 C1483 1.524 . S
C1482 H1501 0.913 . S
C1483 H1459 0.950 . S
C1483 C1482 1.524 . S
C1483 C1484 1.415 . S
C1484 H1460 0.950 . S
C1484 C1479 1.363 . S
C1484 C1483 1.415 . S
C1485 H1461 0.951 . S
C1485 C1486 1.366 . S
C1485 C1487 1.388 . S
C1486 C1485 1.366 . S
C1486 C1490 1.385 . S
C1487 H1462 0.951 . S
C1487 C1485 1.388 . S
C1487 C1488 1.366 . S
C1488 C1487 1.366 . S
C1488 C1489 1.414 . S
C1488 C1491 1.499 . S
C1489 H1463 0.950 . S
C1489 C1488 1.414 . S
C1489 C1490 1.374 . S
C1490 H1464 0.950 . S
C1490 C1486 1.385 . S
C1490 C1489 1.374 . S
C1491 C1488 1.499 . S
C1491 C1492 1.373 . S
C1491 C1493 1.389 . S
C1492 H1465 0.950 . S
C1492 C1478 1.377 . S
C1492 C1491 1.373 . S
C1493 C1477 1.377 . S
C1493 C1491 1.389 . S
C1493 C1494 1.524 . S
C1494 C1493 1.524 . S
C1494 C1495 1.397 . S
C1494 C1499 1.363 . S
C1495 H1466 0.950 . S
C1495 C1494 1.397 . S
C1495 C1496 1.334 . S
C1496 H1467 0.950 . S
C1496 C1495 1.334 . S
C1496 C1497 1.287 . S
C1497 C1496 1.287 . S
C1497 C1498 1.524 . S
C1497 H1500 0.999 . S
C1498 H1468 0.950 . S
C1498 C1497 1.524 . S
C1498 C1499 1.415 . S
C1499 H1469 0.950 . S
C1499 C1494 1.363 . S
C1499 C1498 1.415 . S
H1500 C1497 0.999 . S
H1501 C1482 0.913 . S
H1502 C1520 0.951 . S
H1503 C1522 0.951 . S
H1504 C1524 0.950 . S
H1505 C1525 0.950 . S
H1506 C1527 0.948 . S
H1507 C1530 0.950 . S
H1508 C1531 0.950 . S
H1509 C1533 0.950 . S
H1510 C1534 0.950 . S
H1511 C1535 0.951 . S
H1512 C1537 0.951 . S
H1513 C1539 0.950 . S
H1514 C1540 0.950 . S
H1515 C1542 0.950 . S
H1516 C1545 0.950 . S
H1517 C1546 0.950 . S
H1518 C1548 0.950 . S
H1519 C1549 0.950 1_556 S
C1520 H1502 0.951 . S
C1520 C1521 1.366 . S
C1520 C1522 1.388 . S
C1521 C1520 1.366 . S
C1521 C1525 1.385 . S
C1522 H1503 0.951 . S
C1522 C1520 1.388 . S
C1522 C1523 1.366 . S
C1523 C1522 1.366 . S
C1523 C1524 1.414 . S
C1523 C1526 1.499 . S
C1524 H1504 0.950 . S
C1524 C1523 1.414 . S
C1524 C1525 1.374 . S
C1525 H1505 0.950 . S
C1525 C1521 1.385 . S
C1525 C1524 1.374 . S
C1526 C1523 1.499 . S
C1526 C1527 1.373 . S
C1526 C1528 1.389 . S
C1527 H1506 0.948 . S
C1527 C1526 1.373 . S
C1527 C1543 1.377 . S
C1528 C1526 1.389 . S
C1528 C1529 1.524 . S
C1528 C1542 1.377 . S
C1529 C1528 1.524 . S
C1529 C1530 1.397 . S
C1529 C1534 1.363 . S
C1530 H1507 0.950 . S
C1530 C1529 1.397 . S
C1530 C1531 1.334 . S
C1531 H1508 0.950 . S
C1531 C1530 1.334 . S
C1531 C1532 1.287 . S
C1532 C1531 1.287 . S
C1532 C1533 1.524 . S
C1532 H1551 0.913 . S
C1533 H1509 0.950 . S
C1533 C1532 1.524 . S
C1533 C1534 1.415 . S
C1534 H1510 0.950 . S
C1534 C1529 1.363 . S
C1534 C1533 1.415 . S
C1535 H1511 0.951 . S
C1535 C1536 1.366 . S
C1535 C1537 1.388 . S
C1536 C1535 1.366 . S
C1536 C1540 1.385 . S
C1537 H1512 0.951 . S
C1537 C1535 1.388 . S
C1537 C1538 1.366 . S
C1538 C1537 1.366 . S
C1538 C1539 1.414 . S
C1538 C1541 1.499 . S
C1539 H1513 0.950 . S
C1539 C1538 1.414 . S
C1539 C1540 1.374 . S
C1540 H1514 0.950 . S
C1540 C1536 1.385 . S
C1540 C1539 1.374 . S
C1541 C1538 1.499 . S
C1541 C1542 1.373 . S
C1541 C1543 1.389 . S
C1542 H1515 0.950 . S
C1542 C1528 1.377 . S
C1542 C1541 1.373 . S
C1543 C1527 1.377 . S
C1543 C1541 1.389 . S
C1543 C1544 1.524 1_556 S
C1544 C1543 1.524 1_554 S
C1544 C1545 1.397 . S
C1544 C1549 1.363 . S
C1545 H1516 0.950 . S
C1545 C1544 1.397 . S
C1545 C1546 1.334 . S
C1546 H1517 0.950 . S
C1546 C1545 1.334 . S
C1546 C1547 1.287 . S
C1547 C1546 1.287 . S
C1547 C1548 1.524 . S
C1547 H1550 0.999 . S
C1548 H1518 0.950 . S
C1548 C1547 1.524 . S
C1548 C1549 1.415 . S
C1549 H1519 0.950 1_554 S
C1549 C1544 1.363 . S
C1549 C1548 1.415 . S
H1550 C1547 0.999 . S
H1551 C1532 0.913 . S
H1552 C1570 0.951 . S
H1553 C1572 0.951 . S
H1554 C1574 0.950 . S
H1555 C1575 0.950 . S
H1556 C1577 0.950 . S
H1557 C1580 0.950 . S
H1558 C1581 0.950 . S
H1559 C1583 0.950 . S
H1560 C1584 0.950 . S
H1561 C1585 0.951 . S
H1562 C1587 0.951 . S
H1563 C1589 0.950 . S
H1564 C1590 0.950 . S
H1565 C1592 0.950 . S
H1566 C1595 0.950 . S
H1567 C1596 0.950 . S
H1568 C1598 0.950 . S
H1569 C1599 0.950 . S
C1570 H1552 0.951 . S
C1570 C1571 1.366 . S
C1570 C1572 1.388 . S
C1571 C1570 1.366 . S
C1571 C1575 1.385 . S
C1572 H1553 0.951 . S
C1572 C1570 1.388 . S
C1572 C1573 1.366 . S
C1573 C1572 1.366 . S
C1573 C1574 1.414 . S
C1573 C1576 1.499 . S
C1574 H1554 0.950 . S
C1574 C1573 1.414 . S
C1574 C1575 1.374 . S
C1575 H1555 0.950 . S
C1575 C1571 1.385 . S
C1575 C1574 1.374 . S
C1576 C1573 1.499 . S
C1576 C1577 1.373 . S
C1576 C1578 1.389 . S
C1577 H1556 0.950 . S
C1577 C1576 1.373 . S
C1577 C1593 1.377 . S
C1578 C1576 1.389 . S
C1578 C1579 1.524 . S
C1578 C1592 1.377 . S
C1579 C1578 1.524 . S
C1579 C1580 1.397 . S
C1579 C1584 1.363 . S
C1580 H1557 0.950 . S
C1580 C1579 1.397 . S
C1580 C1581 1.334 . S
C1581 H1558 0.950 . S
C1581 C1580 1.334 . S
C1581 C1582 1.287 . S
C1582 C1581 1.287 . S
C1582 C1583 1.524 . S
C1582 H1601 0.913 . S
C1583 H1559 0.950 . S
C1583 C1582 1.524 . S
C1583 C1584 1.415 . S
C1584 H1560 0.950 . S
C1584 C1579 1.363 . S
C1584 C1583 1.415 . S
C1585 H1561 0.951 . S
C1585 C1586 1.366 . S
C1585 C1587 1.388 . S
C1586 C1585 1.366 . S
C1586 C1590 1.385 . S
C1587 H1562 0.951 . S
C1587 C1585 1.388 . S
C1587 C1588 1.366 . S
C1588 C1587 1.366 . S
C1588 C1589 1.414 . S
C1588 C1591 1.499 . S
C1589 H1563 0.950 . S
C1589 C1588 1.414 . S
C1589 C1590 1.374 . S
C1590 H1564 0.950 . S
C1590 C1586 1.385 . S
C1590 C1589 1.374 . S
C1591 C1588 1.499 . S
C1591 C1592 1.373 . S
C1591 C1593 1.389 . S
C1592 H1565 0.950 . S
C1592 C1578 1.377 . S
C1592 C1591 1.373 . S
C1593 C1577 1.377 . S
C1593 C1591 1.389 . S
C1593 C1594 1.524 . S
C1594 C1593 1.524 . S
C1594 C1595 1.397 . S
C1594 C1599 1.363 . S
C1595 H1566 0.950 . S
C1595 C1594 1.397 . S
C1595 C1596 1.334 . S
C1596 H1567 0.950 . S
C1596 C1595 1.334 . S
C1596 C1597 1.287 . S
C1597 C1596 1.287 . S
C1597 C1598 1.524 . S
C1597 H1600 0.999 . S
C1598 H1568 0.950 . S
C1598 C1597 1.524 . S
C1598 C1599 1.415 . S
C1599 H1569 0.950 . S
C1599 C1594 1.363 . S
C1599 C1598 1.415 . S
H1600 C1597 0.999 . S
H1601 C1582 0.913 . S
H1602 C1620 0.942 1_655 S
H1603 C1622 0.951 . S
H1604 C1624 0.950 . S
H1605 C1625 0.950 . S
H1606 C1627 0.950 . S
H1607 C1630 0.950 . S
H1608 C1631 0.950 . S
H1609 C1633 0.950 . S
H1610 C1634 0.950 . S
H1611 C1635 0.970 . S
H1612 C1637 0.951 . S
H1613 C1639 0.950 . S
H1614 C1640 0.954 . S
H1615 C1642 0.950 1_655 S
H1616 C1645 0.950 . S
H1617 C1646 0.950 . S
H1618 C1648 0.950 . S
H1619 C1649 0.950 . S
C1620 H1602 0.942 1_455 S
C1620 C1621 1.366 . S
C1620 C1622 1.397 . S
C1621 C1620 1.366 . S
C1621 C1625 1.394 . S
C1622 H1603 0.951 . S
C1622 C1620 1.397 . S
C1622 C1623 1.366 . S
C1623 C1622 1.366 . S
C1623 C1624 1.414 . S
C1623 C1626 1.499 . S
C1624 H1604 0.950 . S
C1624 C1623 1.414 . S
C1624 C1625 1.374 . S
C1625 H1605 0.950 . S
C1625 C1621 1.394 . S
C1625 C1624 1.374 . S
C1626 C1623 1.499 . S
C1626 C1627 1.373 . S
C1626 C1628 1.389 1_455 S
C1627 H1606 0.950 . S
C1627 C1626 1.373 . S
C1627 C1643 1.377 . S
C1628 C1626 1.389 1_655 S
C1628 C1629 1.524 . S
C1628 C1642 1.377 1_655 S
C1629 C1628 1.524 . S
C1629 C1630 1.397 . S
C1629 C1634 1.363 . S
C1630 H1607 0.950 . S
C1630 C1629 1.397 . S
C1630 C1631 1.334 . S
C1631 H1608 0.950 . S
C1631 C1630 1.334 . S
C1631 C1632 1.287 . S
C1632 C1631 1.287 . S
C1632 C1633 1.524 . S
C1632 H1651 0.913 . S
C1633 H1609 0.950 . S
C1633 C1632 1.524 . S
C1633 C1634 1.415 . S
C1634 H1610 0.950 . S
C1634 C1629 1.363 . S
C1634 C1633 1.415 . S
C1635 H1611 0.970 . S
C1635 C1636 1.366 1_554 S
C1635 C1637 1.388 . S
C1636 C1635 1.366 1_556 S
C1636 C1640 1.385 1_556 S
C1637 H1612 0.951 . S
C1637 C1635 1.388 . S
C1637 C1638 1.366 . S
C1638 C1637 1.366 . S
C1638 C1639 1.414 . S
C1638 C1641 1.499 . S
C1639 H1613 0.950 . S
C1639 C1638 1.414 . S
C1639 C1640 1.374 . S
C1640 H1614 0.954 . S
C1640 C1636 1.385 1_554 S
C1640 C1639 1.374 . S
C1641 C1638 1.499 . S
C1641 C1642 1.373 . S
C1641 C1643 1.389 . S
C1642 H1615 0.950 1_455 S
C1642 C1628 1.377 1_455 S
C1642 C1641 1.373 . S
C1643 C1627 1.377 . S
C1643 C1641 1.389 . S
C1643 C1644 1.524 . S
C1644 C1643 1.524 . S
C1644 C1645 1.397 . S
C1644 C1649 1.363 . S
C1645 H1616 0.950 . S
C1645 C1644 1.397 . S
C1645 C1646 1.334 . S
C1646 H1617 0.950 . S
C1646 C1645 1.334 . S
C1646 C1647 1.287 . S
C1647 C1646 1.287 . S
C1647 C1648 1.524 . S
C1647 H1650 0.999 . S
C1648 H1618 0.950 . S
C1648 C1647 1.524 . S
C1648 C1649 1.415 . S
C1649 H1619 0.950 . S
C1649 C1644 1.363 . S
C1649 C1648 1.415 . S
H1650 C1647 0.999 . S
H1651 C1632 0.913 . S
H1652 C1670 0.951 . S
H1653 C1672 0.951 . S
H1654 C1674 0.950 . S
H1655 C1675 0.950 . S
H1656 C1677 0.950 . S
H1657 C1680 0.950 . S
H1658 C1681 0.950 . S
H1659 C1683 0.950 . S
H1660 C1684 0.950 . S
H1661 C1685 0.951 . S
H1662 C1687 0.951 . S
H1663 C1689 0.950 . S
H1664 C1690 0.950 . S
H1665 C1692 0.950 . S
H1666 C1695 0.950 . S
H1667 C1696 0.950 . S
H1668 C1698 0.950 . S
H1669 C1699 0.950 . S
C1670 H1652 0.951 . S
C1670 C1671 1.366 . S
C1670 C1672 1.388 . S
C1671 C1670 1.366 . S
C1671 C1675 1.385 . S
C1672 H1653 0.951 . S
C1672 C1670 1.388 . S
C1672 C1673 1.366 . S
C1673 C1672 1.366 . S
C1673 C1674 1.414 . S
C1673 C1676 1.499 . S
C1674 H1654 0.950 . S
C1674 C1673 1.414 . S
C1674 C1675 1.374 . S
C1675 H1655 0.950 . S
C1675 C1671 1.385 . S
C1675 C1674 1.374 . S
C1676 C1673 1.499 . S
C1676 C1677 1.373 . S
C1676 C1678 1.389 . S
C1677 H1656 0.950 . S
C1677 C1676 1.373 . S
C1677 C1693 1.377 . S
C1678 C1676 1.389 . S
C1678 C1679 1.524 . S
C1678 C1692 1.377 . S
C1679 C1678 1.524 . S
C1679 C1680 1.397 . S
C1679 C1684 1.363 . S
C1680 H1657 0.950 . S
C1680 C1679 1.397 . S
C1680 C1681 1.334 . S
C1681 H1658 0.950 . S
C1681 C1680 1.334 . S
C1681 C1682 1.287 . S
C1682 C1681 1.287 . S
C1682 C1683 1.524 . S
C1682 H1701 0.913 . S
C1683 H1659 0.950 . S
C1683 C1682 1.524 . S
C1683 C1684 1.415 . S
C1684 H1660 0.950 . S
C1684 C1679 1.363 . S
C1684 C1683 1.415 . S
C1685 H1661 0.951 . S
C1685 C1686 1.366 . S
C1685 C1687 1.388 . S
C1686 C1685 1.366 . S
C1686 C1690 1.385 . S
C1687 H1662 0.951 . S
C1687 C1685 1.388 . S
C1687 C1688 1.366 . S
C1688 C1687 1.366 . S
C1688 C1689 1.414 . S
C1688 C1691 1.499 . S
C1689 H1663 0.950 . S
C1689 C1688 1.414 . S
C1689 C1690 1.374 . S
C1690 H1664 0.950 . S
C1690 C1686 1.385 . S
C1690 C1689 1.374 . S
C1691 C1688 1.499 . S
C1691 C1692 1.373 . S
C1691 C1693 1.389 . S
C1692 H1665 0.950 . S
C1692 C1678 1.377 . S
C1692 C1691 1.373 . S
C1693 C1677 1.377 . S
C1693 C1691 1.389 . S
C1693 C1694 1.524 . S
C1694 C1693 1.524 . S
C1694 C1695 1.397 . S
C1694 C1699 1.363 . S
C1695 H1666 0.950 . S
C1695 C1694 1.397 . S
C1695 C1696 1.334 . S
C1696 H1667 0.950 . S
C1696 C1695 1.334 . S
C1696 C1697 1.287 . S
C1697 C1696 1.287 . S
C1697 C1698 1.524 . S
C1697 H1700 0.999 . S
C1698 H1668 0.950 . S
C1698 C1697 1.524 . S
C1698 C1699 1.415 . S
C1699 H1669 0.950 . S
C1699 C1694 1.363 . S
C1699 C1698 1.415 . S
H1700 C1697 0.999 . S
H1701 C1682 0.913 . S
H1702 C1720 0.951 . S
H1703 C1722 0.952 . S
H1704 C1724 0.950 . S
H1705 C1725 0.950 . S
H1706 C1727 0.950 . S
H1707 C1730 0.950 . S
H1708 C1731 0.950 . S
H1709 C1733 0.950 . S
H1710 C1734 0.950 . S
H1711 C1735 0.951 . S
H1712 C1737 0.951 . S
H1713 C1739 0.950 . S
H1714 C1740 0.950 . S
H1715 C1742 0.950 1_455 S
H1716 C1745 0.950 . S
H1717 C1746 0.950 . S
H1718 C1748 0.950 . S
H1719 C1749 0.950 . S
C1720 H1702 0.951 . S
C1720 C1721 1.366 1_455 S
C1720 C1722 1.388 . S
C1721 C1720 1.366 1_655 S
C1721 C1725 1.385 . S
C1722 H1703 0.952 . S
C1722 C1720 1.388 . S
C1722 C1723 1.364 1_455 S
C1723 C1722 1.364 1_655 S
C1723 C1724 1.414 . S
C1723 C1726 1.499 . S
C1724 H1704 0.950 . S
C1724 C1723 1.414 . S
C1724 C1725 1.374 . S
C1725 H1705 0.950 . S
C1725 C1721 1.385 . S
C1725 C1724 1.374 . S
C1726 C1723 1.499 . S
C1726 C1727 1.373 . S
C1726 C1728 1.389 . S
C1727 H1706 0.950 . S
C1727 C1726 1.373 . S
C1727 C1743 1.377 . S
C1728 C1726 1.389 . S
C1728 C1729 1.524 1_655 S
C1728 C1742 1.377 . S
C1729 C1728 1.524 1_455 S
C1729 C1730 1.397 . S
C1729 C1734 1.363 . S
C1730 H1707 0.950 . S
C1730 C1729 1.397 . S
C1730 C1731 1.334 . S
C1731 H1708 0.950 . S
C1731 C1730 1.334 . S
C1731 C1732 1.287 . S
C1732 C1731 1.287 . S
C1732 C1733 1.524 . S
C1732 H1751 0.913 . S
C1733 H1709 0.950 . S
C1733 C1732 1.524 . S
C1733 C1734 1.415 . S
C1734 H1710 0.950 . S
C1734 C1729 1.363 . S
C1734 C1733 1.415 . S
C1735 H1711 0.951 . S
C1735 C1736 1.366 . S
C1735 C1737 1.388 . S
C1736 C1735 1.366 . S
C1736 C1740 1.385 . S
C1737 H1712 0.951 . S
C1737 C1735 1.388 . S
C1737 C1738 1.366 . S
C1738 C1737 1.366 . S
C1738 C1739 1.414 . S
C1738 C1741 1.499 . S
C1739 H1713 0.950 . S
C1739 C1738 1.414 . S
C1739 C1740 1.374 . S
C1740 H1714 0.950 . S
C1740 C1736 1.385 . S
C1740 C1739 1.374 . S
C1741 C1738 1.499 . S
C1741 C1742 1.373 . S
C1741 C1743 1.389 . S
C1742 H1715 0.950 1_655 S
C1742 C1728 1.377 . S
C1742 C1741 1.373 . S
C1743 C1727 1.377 . S
C1743 C1741 1.389 . S
C1743 C1744 1.524 . S
C1744 C1743 1.524 . S
C1744 C1745 1.397 . S
C1744 C1749 1.363 . S
C1745 H1716 0.950 . S
C1745 C1744 1.397 . S
C1745 C1746 1.334 . S
C1746 H1717 0.950 . S
C1746 C1745 1.334 . S
C1746 C1747 1.287 . S
C1747 C1746 1.287 . S
C1747 C1748 1.524 . S
C1747 H1750 0.999 . S
C1748 H1718 0.950 . S
C1748 C1747 1.524 . S
C1748 C1749 1.415 . S
C1749 H1719 0.950 . S
C1749 C1744 1.363 . S
C1749 C1748 1.415 . S
H1750 C1747 0.999 . S
H1751 C1732 0.913 . S
H1752 C1770 0.951 . S
H1753 C1772 0.951 . S
H1754 C1774 0.950 . S
H1755 C1775 0.950 . S
H1756 C1777 0.950 . S
H1757 C1780 0.950 . S
H1758 C1781 0.950 . S
H1759 C1783 0.950 . S
H1760 C1784 0.950 . S
H1761 C1785 0.951 . S
H1762 C1787 0.951 . S
H1763 C1789 0.950 . S
H1764 C1790 0.950 . S
H1765 C1792 0.950 . S
H1766 C1795 0.950 . S
H1767 C1796 0.950 . S
H1768 C1798 0.950 . S
H1769 C1799 0.950 . S
C1770 H1752 0.951 . S
C1770 C1771 1.366 . S
C1770 C1772 1.388 . S
C1771 C1770 1.366 . S
C1771 C1775 1.385 . S
C1772 H1753 0.951 . S
C1772 C1770 1.388 . S
C1772 C1773 1.366 . S
C1773 C1772 1.366 . S
C1773 C1774 1.414 . S
C1773 C1776 1.499 . S
C1774 H1754 0.950 . S
C1774 C1773 1.414 . S
C1774 C1775 1.374 . S
C1775 H1755 0.950 . S
C1775 C1771 1.385 . S
C1775 C1774 1.374 . S
C1776 C1773 1.499 . S
C1776 C1777 1.373 . S
C1776 C1778 1.389 . S
C1777 H1756 0.950 . S
C1777 C1776 1.373 . S
C1777 C1793 1.377 . S
C1778 C1776 1.389 . S
C1778 C1779 1.524 . S
C1778 C1792 1.377 . S
C1779 C1778 1.524 . S
C1779 C1780 1.397 . S
C1779 C1784 1.363 . S
C1780 H1757 0.950 . S
C1780 C1779 1.397 . S
C1780 C1781 1.334 . S
C1781 H1758 0.950 . S
C1781 C1780 1.334 . S
C1781 C1782 1.287 . S
C1782 C1781 1.287 . S
C1782 C1783 1.524 . S
C1782 H1801 0.913 . S
C1783 H1759 0.950 . S
C1783 C1782 1.524 . S
C1783 C1784 1.415 . S
C1784 H1760 0.950 . S
C1784 C1779 1.363 . S
C1784 C1783 1.415 . S
C1785 H1761 0.951 . S
C1785 C1786 1.366 . S
C1785 C1787 1.388 . S
C1786 C1785 1.366 . S
C1786 C1790 1.385 . S
C1787 H1762 0.951 . S
C1787 C1785 1.388 . S
C1787 C1788 1.366 . S
C1788 C1787 1.366 . S
C1788 C1789 1.414 . S
C1788 C1791 1.499 . S
C1789 H1763 0.950 . S
C1789 C1788 1.414 . S
C1789 C1790 1.374 . S
C1790 H1764 0.950 . S
C1790 C1786 1.385 . S
C1790 C1789 1.374 . S
C1791 C1788 1.499 . S
C1791 C1792 1.373 . S
C1791 C1793 1.389 . S
C1792 H1765 0.950 . S
C1792 C1778 1.377 . S
C1792 C1791 1.373 . S
C1793 C1777 1.377 . S
C1793 C1791 1.389 . S
C1793 C1794 1.524 . S
C1794 C1793 1.524 . S
C1794 C1795 1.397 . S
C1794 C1799 1.363 . S
C1795 H1766 0.950 . S
C1795 C1794 1.397 . S
C1795 C1796 1.334 . S
C1796 H1767 0.950 . S
C1796 C1795 1.334 . S
C1796 C1797 1.287 . S
C1797 C1796 1.287 . S
C1797 C1798 1.524 . S
C1797 H1800 0.999 . S
C1798 H1768 0.950 . S
C1798 C1797 1.524 . S
C1798 C1799 1.415 . S
C1799 H1769 0.950 . S
C1799 C1794 1.363 . S
C1799 C1798 1.415 . S
H1800 C1797 0.999 . S
H1801 C1782 0.913 . S
H1802 C1820 0.951 . S
H1803 C1822 0.951 . S
H1804 C1824 0.950 . S
H1805 C1825 0.950 . S
H1806 C1827 0.950 . S
H1807 C1830 0.950 . S
H1808 C1831 0.950 . S
H1809 C1833 0.950 . S
H1810 C1834 0.950 . S
H1811 C1835 0.951 . S
H1812 C1837 0.951 . S
H1813 C1839 0.950 . S
H1814 C1840 0.950 . S
H1815 C1842 0.950 . S
H1816 C1845 0.950 . S
H1817 C1846 0.950 . S
H1818 C1848 0.950 . S
H1819 C1849 0.950 . S
C1820 H1802 0.951 . S
C1820 C1821 1.366 . S
C1820 C1822 1.388 . S
C1821 C1820 1.366 . S
C1821 C1825 1.385 . S
C1822 H1803 0.951 . S
C1822 C1820 1.388 . S
C1822 C1823 1.366 . S
C1823 C1822 1.366 . S
C1823 C1824 1.414 . S
C1823 C1826 1.499 . S
C1824 H1804 0.950 . S
C1824 C1823 1.414 . S
C1824 C1825 1.374 . S
C1825 H1805 0.950 . S
C1825 C1821 1.385 . S
C1825 C1824 1.374 . S
C1826 C1823 1.499 . S
C1826 C1827 1.373 . S
C1826 C1828 1.389 . S
C1827 H1806 0.950 . S
C1827 C1826 1.373 . S
C1827 C1843 1.377 . S
C1828 C1826 1.389 . S
C1828 C1829 1.524 . S
C1828 C1842 1.377 . S
C1829 C1828 1.524 . S
C1829 C1830 1.397 . S
C1829 C1834 1.363 . S
C1830 H1807 0.950 . S
C1830 C1829 1.397 . S
C1830 C1831 1.334 . S
C1831 H1808 0.950 . S
C1831 C1830 1.334 . S
C1831 C1832 1.287 . S
C1832 C1831 1.287 . S
C1832 C1833 1.524 . S
C1832 H1851 0.913 . S
C1833 H1809 0.950 . S
C1833 C1832 1.524 . S
C1833 C1834 1.415 . S
C1834 H1810 0.950 . S
C1834 C1829 1.363 . S
C1834 C1833 1.415 . S
C1835 H1811 0.951 . S
C1835 C1836 1.366 . S
C1835 C1837 1.388 . S
C1836 C1835 1.366 . S
C1836 C1840 1.385 . S
C1837 H1812 0.951 . S
C1837 C1835 1.388 . S
C1837 C1838 1.366 . S
C1838 C1837 1.366 . S
C1838 C1839 1.414 . S
C1838 C1841 1.499 . S
C1839 H1813 0.950 . S
C1839 C1838 1.414 . S
C1839 C1840 1.374 . S
C1840 H1814 0.950 . S
C1840 C1836 1.385 . S
C1840 C1839 1.374 . S
C1841 C1838 1.499 . S
C1841 C1842 1.373 . S
C1841 C1843 1.389 . S
C1842 H1815 0.950 . S
C1842 C1828 1.377 . S
C1842 C1841 1.373 . S
C1843 C1827 1.377 . S
C1843 C1841 1.389 . S
C1843 C1844 1.524 . S
C1844 C1843 1.524 . S
C1844 C1845 1.397 . S
C1844 C1849 1.363 . S
C1845 H1816 0.950 . S
C1845 C1844 1.397 . S
C1845 C1846 1.334 . S
C1846 H1817 0.950 . S
C1846 C1845 1.334 . S
C1846 C1847 1.287 . S
C1847 C1846 1.287 . S
C1847 C1848 1.524 . S
C1847 H1850 0.999 . S
C1848 H1818 0.950 . S
C1848 C1847 1.524 . S
C1848 C1849 1.415 . S
C1849 H1819 0.950 . S
C1849 C1844 1.363 . S
C1849 C1848 1.415 . S
H1850 C1847 0.999 . S
H1851 C1832 0.913 . S
H1852 C1870 0.951 . S
H1853 C1872 0.951 . S
H1854 C1874 0.950 . S
H1855 C1875 0.950 . S
H1856 C1877 0.950 . S
H1857 C1880 0.950 1_565 S
H1858 C1881 0.950 . S
H1859 C1883 0.950 . S
H1860 C1884 0.950 . S
H1861 C1885 0.951 . S
H1862 C1887 0.951 . S
H1863 C1889 0.950 . S
H1864 C1890 0.950 . S
H1865 C1892 0.950 . S
H1866 C1895 0.950 1_545 S
H1867 C1896 0.950 . S
H1868 C1898 0.950 . S
H1869 C1899 0.950 . S
C1870 H1852 0.951 . S
C1870 C1871 1.366 1_545 S
C1870 C1872 1.388 . S
C1871 C1870 1.366 1_565 S
C1871 C1875 1.385 . S
C1872 H1853 0.951 . S
C1872 C1870 1.388 . S
C1872 C1873 1.366 1_545 S
C1873 C1872 1.366 1_565 S
C1873 C1874 1.414 . S
C1873 C1876 1.499 . S
C1874 H1854 0.950 . S
C1874 C1873 1.414 . S
C1874 C1875 1.374 . S
C1875 H1855 0.950 . S
C1875 C1871 1.385 . S
C1875 C1874 1.374 . S
C1876 C1873 1.499 . S
C1876 C1877 1.373 . S
C1876 C1878 1.389 1_565 S
C1877 H1856 0.950 . S
C1877 C1876 1.373 . S
C1877 C1893 1.377 . S
C1878 C1876 1.389 1_545 S
C1878 C1879 1.524 . S
C1878 C1892 1.377 . S
C1879 C1878 1.524 . S
C1879 C1880 1.397 . S
C1879 C1884 1.363 . S
C1880 H1857 0.950 1_545 S
C1880 C1879 1.397 . S
C1880 C1881 1.334 . S
C1881 H1858 0.950 . S
C1881 C1880 1.334 . S
C1881 C1882 1.287 . S
C1882 C1881 1.287 . S
C1882 C1883 1.524 . S
C1882 H1901 0.913 . S
C1883 H1859 0.950 . S
C1883 C1882 1.524 . S
C1883 C1884 1.415 . S
C1884 H1860 0.950 . S
C1884 C1879 1.363 . S
C1884 C1883 1.415 . S
C1885 H1861 0.951 . S
C1885 C1886 1.361 1_565 S
C1885 C1887 1.388 . S
C1886 C1885 1.361 1_545 S
C1886 C1890 1.389 . S
C1887 H1862 0.951 . S
C1887 C1885 1.388 . S
C1887 C1888 1.418 . S
C1888 C1887 1.418 . S
C1888 C1889 1.355 1_565 S
C1888 C1891 1.505 . S
C1889 H1863 0.950 . S
C1889 C1888 1.355 1_545 S
C1889 C1890 1.374 . S
C1890 H1864 0.950 . S
C1890 C1886 1.389 . S
C1890 C1889 1.374 . S
C1891 C1888 1.505 . S
C1891 C1892 1.373 1_565 S
C1891 C1893 1.389 . S
C1892 H1865 0.950 . S
C1892 C1878 1.377 . S
C1892 C1891 1.373 1_545 S
C1893 C1877 1.377 . S
C1893 C1891 1.389 . S
C1893 C1894 1.524 . S
C1894 C1893 1.524 . S
C1894 C1895 1.397 . S
C1894 C1899 1.363 . S
C1895 H1866 0.950 1_565 S
C1895 C1894 1.397 . S
C1895 C1896 1.334 . S
C1896 H1867 0.950 . S
C1896 C1895 1.334 . S
C1896 C1897 1.287 . S
C1897 C1896 1.287 . S
C1897 C1898 1.524 . S
C1897 H1900 0.999 . S
C1898 H1868 0.950 . S
C1898 C1897 1.524 . S
C1898 C1899 1.415 . S
C1899 H1869 0.950 . S
C1899 C1894 1.363 . S
C1899 C1898 1.415 . S
H1900 C1897 0.999 . S
H1901 C1882 0.913 . S
H1902 C1920 0.951 . S
H1903 C1922 0.951 . S
H1904 C1924 0.950 . S
H1905 C1925 0.950 . S
H1906 C1927 0.950 . S
H1907 C1930 0.950 . S
H1908 C1931 0.950 . S
H1909 C1933 0.950 . S
H1910 C1934 0.950 . S
H1911 C1935 0.951 . S
H1912 C1937 0.951 . S
H1913 C1939 0.950 . S
H1914 C1940 0.950 . S
H1915 C1942 0.950 . S
H1916 C1945 0.950 . S
H1917 C1946 0.950 . S
H1918 C1948 0.950 . S
H1919 C1949 0.950 . S
C1920 H1902 0.951 . S
C1920 C1921 1.366 1_545 S
C1920 C1922 1.388 . S
C1921 C1920 1.366 1_565 S
C1921 C1925 1.385 . S
C1922 H1903 0.951 . S
C1922 C1920 1.388 . S
C1922 C1923 1.366 1_545 S
C1923 C1922 1.366 1_565 S
C1923 C1924 1.414 . S
C1923 C1926 1.499 . S
C1924 H1904 0.950 . S
C1924 C1923 1.414 . S
C1924 C1925 1.374 . S
C1925 H1905 0.950 . S
C1925 C1921 1.385 . S
C1925 C1924 1.374 . S
C1926 C1923 1.499 . S
C1926 C1927 1.373 . S
C1926 C1928 1.389 . S
C1927 H1906 0.950 . S
C1927 C1926 1.373 . S
C1927 C1943 1.377 . S
C1928 C1926 1.389 . S
C1928 C1929 1.524 . S
C1928 C1942 1.377 . S
C1929 C1928 1.524 . S
C1929 C1930 1.397 . S
C1929 C1934 1.363 1_565 S
C1930 H1907 0.950 . S
C1930 C1929 1.397 . S
C1930 C1931 1.334 . S
C1931 H1908 0.950 . S
C1931 C1930 1.334 . S
C1931 C1932 1.287 . S
C1932 C1931 1.287 . S
C1932 C1933 1.524 1_565 S
C1932 H1951 0.913 . S
C1933 H1909 0.950 . S
C1933 C1932 1.524 1_545 S
C1933 C1934 1.415 . S
C1934 H1910 0.950 . S
C1934 C1929 1.363 1_545 S
C1934 C1933 1.415 . S
C1935 H1911 0.951 . S
C1935 C1936 1.366 . S
C1935 C1937 1.388 . S
C1936 C1935 1.366 . S
C1936 C1940 1.385 . S
C1937 H1912 0.951 . S
C1937 C1935 1.388 . S
C1937 C1938 1.366 . S
C1938 C1937 1.366 . S
C1938 C1939 1.414 . S
C1938 C1941 1.499 . S
C1939 H1913 0.950 . S
C1939 C1938 1.414 . S
C1939 C1940 1.374 . S
C1940 H1914 0.950 . S
C1940 C1936 1.385 . S
C1940 C1939 1.374 . S
C1941 C1938 1.499 . S
C1941 C1942 1.373 . S
C1941 C1943 1.389 . S
C1942 H1915 0.950 . S
C1942 C1928 1.377 . S
C1942 C1941 1.373 . S
C1943 C1927 1.377 . S
C1943 C1941 1.389 . S
C1943 C1944 1.524 . S
C1944 C1943 1.524 . S
C1944 C1945 1.397 . S
C1944 C1949 1.363 . S
C1945 H1916 0.950 . S
C1945 C1944 1.397 . S
C1945 C1946 1.334 . S
C1946 H1917 0.950 . S
C1946 C1945 1.334 . S
C1946 C1947 1.287 . S
C1947 C1946 1.287 . S
C1947 C1948 1.524 . S
C1947 H1950 0.999 . S
C1948 H1918 0.950 . S
C1948 C1947 1.524 . S
C1948 C1949 1.415 . S
C1949 H1919 0.950 . S
C1949 C1944 1.363 . S
C1949 C1948 1.415 . S
H1950 C1947 0.999 . S
H1951 C1932 0.913 . S
H1952 C1970 0.951 . S
H1953 C1972 0.951 . S
H1954 C1974 0.950 . S
H1955 C1975 0.950 . S
H1956 C1977 0.950 . S
H1957 C1980 0.950 . S
H1958 C1981 0.950 . S
H1959 C1983 0.950 . S
H1960 C1984 0.950 . S
H1961 C1985 0.951 . S
H1962 C1987 0.951 . S
H1963 C1989 0.950 . S
H1964 C1990 0.950 . S
H1965 C1992 0.950 . S
H1966 C1995 0.950 . S
H1967 C1996 0.950 . S
H1968 C1998 0.950 . S
H1969 C1999 0.950 . S
C1970 H1952 0.951 . S
C1970 C1971 1.366 . S
C1970 C1972 1.388 . S
C1971 C1970 1.366 . S
C1971 C1975 1.385 . S
C1972 H1953 0.951 . S
C1972 C1970 1.388 . S
C1972 C1973 1.366 . S
C1973 C1972 1.366 . S
C1973 C1974 1.414 . S
C1973 C1976 1.499 . S
C1974 H1954 0.950 . S
C1974 C1973 1.414 . S
C1974 C1975 1.374 . S
C1975 H1955 0.950 . S
C1975 C1971 1.385 . S
C1975 C1974 1.374 . S
C1976 C1973 1.499 . S
C1976 C1977 1.373 . S
C1976 C1978 1.389 . S
C1977 H1956 0.950 . S
C1977 C1976 1.373 . S
C1977 C1993 1.377 . S
C1978 C1976 1.389 . S
C1978 C1979 1.524 . S
C1978 C1992 1.377 . S
C1979 C1978 1.524 . S
C1979 C1980 1.397 . S
C1979 C1984 1.363 . S
C1980 H1957 0.950 . S
C1980 C1979 1.397 . S
C1980 C1981 1.334 . S
C1981 H1958 0.950 . S
C1981 C1980 1.334 . S
C1981 C1982 1.287 . S
C1982 C1981 1.287 . S
C1982 C1983 1.524 . S
C1982 H2001 0.913 . S
C1983 H1959 0.950 . S
C1983 C1982 1.524 . S
C1983 C1984 1.415 . S
C1984 H1960 0.950 . S
C1984 C1979 1.363 . S
C1984 C1983 1.415 . S
C1985 H1961 0.951 . S
C1985 C1986 1.366 . S
C1985 C1987 1.388 . S
C1986 C1985 1.366 . S
C1986 C1990 1.385 . S
C1987 H1962 0.951 . S
C1987 C1985 1.388 . S
C1987 C1988 1.366 . S
C1988 C1987 1.366 . S
C1988 C1989 1.414 . S
C1988 C1991 1.499 . S
C1989 H1963 0.950 . S
C1989 C1988 1.414 . S
C1989 C1990 1.374 . S
C1990 H1964 0.950 . S
C1990 C1986 1.385 . S
C1990 C1989 1.374 . S
C1991 C1988 1.499 . S
C1991 C1992 1.373 . S
C1991 C1993 1.389 . S
C1992 H1965 0.950 . S
C1992 C1978 1.377 . S
C1992 C1991 1.373 . S
C1993 C1977 1.377 . S
C1993 C1991 1.389 . S
C1993 C1994 1.524 . S
C1994 C1993 1.524 . S
C1994 C1995 1.397 . S
C1994 C1999 1.363 . S
C1995 H1966 0.950 . S
C1995 C1994 1.397 . S
C1995 C1996 1.334 . S
C1996 H1967 0.950 . S
C1996 C1995 1.334 . S
C1996 C1997 1.287 . S
C1997 C1996 1.287 . S
C1997 C1998 1.524 . S
C1997 H2000 0.999 . S
C1998 H1968 0.950 . S
C1998 C1997 1.524 . S
C1998 C1999 1.415 . S
C1999 H1969 0.950 . S
C1999 C1994 1.363 . S
C1999 C1998 1.415 . S
H2000 C1997 0.999 . S
H2001 C1982 0.913 . S
H2002 C2020 0.951 . S
H2003 C2022 0.967 . S
H2004 C2024 0.950 . S
H2005 C2025 0.950 . S
H2006 C2027 0.950 . S
H2007 C2030 0.950 . S
H2008 C2031 0.950 . S
H2009 C2033 0.950 . S
H2010 C2034 0.950 . S
H2011 C2035 0.951 . S
H2012 C2037 0.951 . S
H2013 C2039 0.950 . S
H2014 C2040 0.950 . S
H2015 C2042 0.950 1_554 S
H2016 C2045 0.950 . S
H2017 C2046 0.950 . S
H2018 C2048 0.950 . S
H2019 C2049 0.950 . S
C2020 H2002 0.951 . S
C2020 C2021 1.366 1_554 S
C2020 C2022 1.393 . S
C2021 C2020 1.366 1_556 S
C2021 C2025 1.385 . S
C2022 H2003 0.967 . S
C2022 C2020 1.393 . S
C2022 C2023 1.347 1_554 S
C2023 C2022 1.347 1_556 S
C2023 C2024 1.414 . S
C2023 C2026 1.499 . S
C2024 H2004 0.950 . S
C2024 C2023 1.414 . S
C2024 C2025 1.374 . S
C2025 H2005 0.950 . S
C2025 C2021 1.385 . S
C2025 C2024 1.374 . S
C2026 C2023 1.499 . S
C2026 C2027 1.373 . S
C2026 C2028 1.389 . S
C2027 H2006 0.950 . S
C2027 C2026 1.373 . S
C2027 C2043 1.377 . S
C2028 C2026 1.389 . S
C2028 C2029 1.524 1_556 S
C2028 C2042 1.377 . S
C2029 C2028 1.524 1_554 S
C2029 C2030 1.397 . S
C2029 C2034 1.363 . S
C2030 H2007 0.950 . S
C2030 C2029 1.397 . S
C2030 C2031 1.334 . S
C2031 H2008 0.950 . S
C2031 C2030 1.334 . S
C2031 C2032 1.287 . S
C2032 C2031 1.287 . S
C2032 C2033 1.524 . S
C2032 H2051 0.913 . S
C2033 H2009 0.950 . S
C2033 C2032 1.524 . S
C2033 C2034 1.415 . S
C2034 H2010 0.950 . S
C2034 C2029 1.363 . S
C2034 C2033 1.415 . S
C2035 H2011 0.951 . S
C2035 C2036 1.366 . S
C2035 C2037 1.388 . S
C2036 C2035 1.366 . S
C2036 C2040 1.385 . S
C2037 H2012 0.951 . S
C2037 C2035 1.388 . S
C2037 C2038 1.366 . S
C2038 C2037 1.366 . S
C2038 C2039 1.414 . S
C2038 C2041 1.499 . S
C2039 H2013 0.950 . S
C2039 C2038 1.414 . S
C2039 C2040 1.374 . S
C2040 H2014 0.950 . S
C2040 C2036 1.385 . S
C2040 C2039 1.374 . S
C2041 C2038 1.499 . S
C2041 C2042 1.373 . S
C2041 C2043 1.389 . S
C2042 H2015 0.950 1_556 S
C2042 C2028 1.377 . S
C2042 C2041 1.373 . S
C2043 C2027 1.377 . S
C2043 C2041 1.389 . S
C2043 C2044 1.524 . S
C2044 C2043 1.524 . S
C2044 C2045 1.397 . S
C2044 C2049 1.363 . S
C2045 H2016 0.950 . S
C2045 C2044 1.397 . S
C2045 C2046 1.334 . S
C2046 H2017 0.950 . S
C2046 C2045 1.334 . S
C2046 C2047 1.287 . S
C2047 C2046 1.287 . S
C2047 C2048 1.524 . S
C2047 H2050 0.999 . S
C2048 H2018 0.950 . S
C2048 C2047 1.524 . S
C2048 C2049 1.415 . S
C2049 H2019 0.950 . S
C2049 C2044 1.363 . S
C2049 C2048 1.415 . S
H2050 C2047 0.999 . S
H2051 C2032 0.913 . S
H2052 C2070 0.951 . S
H2053 C2072 0.951 . S
H2054 C2074 0.950 . S
H2055 C2075 0.950 . S
H2056 C2077 0.950 . S
H2057 C2080 0.950 . S
H2058 C2081 0.950 . S
H2059 C2083 0.950 . S
H2060 C2084 0.950 . S
H2061 C2085 0.951 . S
H2062 C2087 0.951 . S
H2063 C2089 0.950 . S
H2064 C2090 0.950 . S
H2065 C2092 0.950 . S
H2066 C2095 0.950 . S
H2067 C2096 0.950 . S
H2068 C2098 0.950 . S
H2069 C2099 0.950 . S
C2070 H2052 0.951 . S
C2070 C2071 1.366 . S
C2070 C2072 1.388 . S
C2071 C2070 1.366 . S
C2071 C2075 1.385 . S
C2072 H2053 0.951 . S
C2072 C2070 1.388 . S
C2072 C2073 1.366 . S
C2073 C2072 1.366 . S
C2073 C2074 1.414 . S
C2073 C2076 1.499 . S
C2074 H2054 0.950 . S
C2074 C2073 1.414 . S
C2074 C2075 1.374 . S
C2075 H2055 0.950 . S
C2075 C2071 1.385 . S
C2075 C2074 1.374 . S
C2076 C2073 1.499 . S
C2076 C2077 1.373 . S
C2076 C2078 1.389 . S
C2077 H2056 0.950 . S
C2077 C2076 1.373 . S
C2077 C2093 1.377 . S
C2078 C2076 1.389 . S
C2078 C2079 1.524 . S
C2078 C2092 1.377 . S
C2079 C2078 1.524 . S
C2079 C2080 1.397 . S
C2079 C2084 1.363 . S
C2080 H2057 0.950 . S
C2080 C2079 1.397 . S
C2080 C2081 1.334 . S
C2081 H2058 0.950 . S
C2081 C2080 1.334 . S
C2081 C2082 1.287 . S
C2082 C2081 1.287 . S
C2082 C2083 1.524 . S
C2082 H2101 0.913 . S
C2083 H2059 0.950 . S
C2083 C2082 1.524 . S
C2083 C2084 1.415 . S
C2084 H2060 0.950 . S
C2084 C2079 1.363 . S
C2084 C2083 1.415 . S
C2085 H2061 0.951 . S
C2085 C2086 1.366 . S
C2085 C2087 1.388 . S
C2086 C2085 1.366 . S
C2086 C2090 1.385 . S
C2087 H2062 0.951 . S
C2087 C2085 1.388 . S
C2087 C2088 1.366 . S
C2088 C2087 1.366 . S
C2088 C2089 1.414 . S
C2088 C2091 1.499 . S
C2089 H2063 0.950 . S
C2089 C2088 1.414 . S
C2089 C2090 1.374 . S
C2090 H2064 0.950 . S
C2090 C2086 1.385 . S
C2090 C2089 1.374 . S
C2091 C2088 1.499 . S
C2091 C2092 1.373 . S
C2091 C2093 1.389 . S
C2092 H2065 0.950 . S
C2092 C2078 1.377 . S
C2092 C2091 1.373 . S
C2093 C2077 1.377 . S
C2093 C2091 1.389 . S
C2093 C2094 1.524 . S
C2094 C2093 1.524 . S
C2094 C2095 1.397 . S
C2094 C2099 1.363 . S
C2095 H2066 0.950 . S
C2095 C2094 1.397 . S
C2095 C2096 1.334 . S
C2096 H2067 0.950 . S
C2096 C2095 1.334 . S
C2096 C2097 1.287 . S
C2097 C2096 1.287 . S
C2097 C2098 1.524 . S
C2097 H2100 0.999 . S
C2098 H2068 0.950 . S
C2098 C2097 1.524 . S
C2098 C2099 1.415 . S
C2099 H2069 0.950 . S
C2099 C2094 1.363 . S
C2099 C2098 1.415 . S
H2100 C2097 0.999 . S
H2101 C2082 0.913 . S
H2102 C2120 0.951 . S
H2103 C2122 0.951 . S
H2104 C2124 0.950 . S
H2105 C2125 0.950 . S
H2106 C2127 0.950 . S
H2107 C2130 0.950 . S
H2108 C2131 0.950 . S
H2109 C2133 0.950 . S
H2110 C2134 0.950 1_556 S
H2111 C2135 0.951 . S
H2112 C2137 0.951 . S
H2113 C2139 0.950 . S
H2114 C2140 0.950 . S
H2115 C2142 0.950 . S
H2116 C2145 0.950 . S
H2117 C2146 0.950 . S
H2118 C2148 0.950 . S
H2119 C2149 0.950 . S
C2120 H2102 0.951 . S
C2120 C2121 1.366 . S
C2120 C2122 1.388 . S
C2121 C2120 1.366 . S
C2121 C2125 1.385 1_556 S
C2122 H2103 0.951 . S
C2122 C2120 1.388 . S
C2122 C2123 1.366 . S
C2123 C2122 1.366 . S
C2123 C2124 1.414 1_556 S
C2123 C2126 1.499 . S
C2124 H2104 0.950 . S
C2124 C2123 1.414 1_554 S
C2124 C2125 1.374 . S
C2125 H2105 0.950 . S
C2125 C2121 1.385 1_554 S
C2125 C2124 1.374 . S
C2126 C2123 1.499 . S
C2126 C2127 1.373 . S
C2126 C2128 1.389 1_556 S
C2127 H2106 0.950 . S
C2127 C2126 1.373 . S
C2127 C2143 1.377 . S
C2128 C2126 1.389 1_554 S
C2128 C2129 1.524 . S
C2128 C2142 1.377 . S
C2129 C2128 1.524 . S
C2129 C2130 1.397 . S
C2129 C2134 1.363 . S
C2130 H2107 0.950 . S
C2130 C2129 1.397 . S
C2130 C2131 1.334 . S
C2131 H2108 0.950 . S
C2131 C2130 1.334 . S
C2131 C2132 1.287 . S
C2132 C2131 1.287 . S
C2132 C2133 1.524 . S
C2132 H2151 0.913 . S
C2133 H2109 0.950 . S
C2133 C2132 1.524 . S
C2133 C2134 1.415 . S
C2134 H2110 0.950 1_554 S
C2134 C2129 1.363 . S
C2134 C2133 1.415 . S
C2135 H2111 0.951 . S
C2135 C2136 1.365 . S
C2135 C2137 1.388 . S
C2136 C2135 1.365 . S
C2136 C2140 1.385 1_554 S
C2137 H2112 0.951 . S
C2137 C2135 1.388 . S
C2137 C2138 1.366 1_554 S
C2138 C2137 1.366 1_556 S
C2138 C2139 1.414 . S
C2138 C2141 1.499 . S
C2139 H2113 0.950 . S
C2139 C2138 1.414 . S
C2139 C2140 1.374 . S
C2140 H2114 0.950 . S
C2140 C2136 1.385 1_556 S
C2140 C2139 1.374 . S
C2141 C2138 1.499 . S
C2141 C2142 1.373 1_556 S
C2141 C2143 1.389 . S
C2142 H2115 0.950 . S
C2142 C2128 1.377 . S
C2142 C2141 1.373 1_554 S
C2143 C2127 1.377 . S
C2143 C2141 1.389 . S
C2143 C2144 1.524 . S
C2144 C2143 1.524 . S
C2144 C2145 1.397 . S
C2144 C2149 1.363 . S
C2145 H2116 0.950 . S
C2145 C2144 1.397 . S
C2145 C2146 1.334 . S
C2146 H2117 0.950 . S
C2146 C2145 1.334 . S
C2146 C2147 1.287 . S
C2147 C2146 1.287 . S
C2147 C2148 1.524 . S
C2147 H2150 0.999 . S
C2148 H2118 0.950 . S
C2148 C2147 1.524 . S
C2148 C2149 1.415 . S
C2149 H2119 0.950 . S
C2149 C2144 1.363 . S
C2149 C2148 1.415 . S
H2150 C2147 0.999 . S
H2151 C2132 0.913 . S
H2152 C2170 0.951 . S
H2153 C2172 0.951 . S
H2154 C2174 0.950 . S
H2155 C2175 0.950 . S
H2156 C2177 0.950 . S
H2157 C2180 0.950 . S
H2158 C2181 0.950 . S
H2159 C2183 0.950 . S
H2160 C2184 0.950 . S
H2161 C2185 0.951 . S
H2162 C2187 0.951 . S
H2163 C2189 0.950 . S
H2164 C2190 0.950 . S
H2165 C2192 0.950 . S
H2166 C2195 0.950 . S
H2167 C2196 0.950 . S
H2168 C2198 0.950 . S
H2169 C2199 0.950 . S
C2170 H2152 0.951 . S
C2170 C2171 1.366 . S
C2170 C2172 1.388 . S
C2171 C2170 1.366 . S
C2171 C2175 1.385 . S
C2172 H2153 0.951 . S
C2172 C2170 1.388 . S
C2172 C2173 1.366 . S
C2173 C2172 1.366 . S
C2173 C2174 1.414 . S
C2173 C2176 1.499 . S
C2174 H2154 0.950 . S
C2174 C2173 1.414 . S
C2174 C2175 1.374 . S
C2175 H2155 0.950 . S
C2175 C2171 1.385 . S
C2175 C2174 1.374 . S
C2176 C2173 1.499 . S
C2176 C2177 1.373 . S
C2176 C2178 1.389 . S
C2177 H2156 0.950 . S
C2177 C2176 1.373 . S
C2177 C2193 1.377 . S
C2178 C2176 1.389 . S
C2178 C2179 1.524 . S
C2178 C2192 1.377 . S
C2179 C2178 1.524 . S
C2179 C2180 1.397 . S
C2179 C2184 1.363 . S
C2180 H2157 0.950 . S
C2180 C2179 1.397 . S
C2180 C2181 1.334 . S
C2181 H2158 0.950 . S
C2181 C2180 1.334 . S
C2181 C2182 1.287 . S
C2182 C2181 1.287 . S
C2182 C2183 1.524 . S
C2182 H2201 0.913 . S
C2183 H2159 0.950 . S
C2183 C2182 1.524 . S
C2183 C2184 1.415 . S
C2184 H2160 0.950 . S
C2184 C2179 1.363 . S
C2184 C2183 1.415 . S
C2185 H2161 0.951 . S
C2185 C2186 1.366 . S
C2185 C2187 1.388 . S
C2186 C2185 1.366 . S
C2186 C2190 1.385 . S
C2187 H2162 0.951 . S
C2187 C2185 1.388 . S
C2187 C2188 1.366 . S
C2188 C2187 1.366 . S
C2188 C2189 1.414 . S
C2188 C2191 1.499 . S
C2189 H2163 0.950 . S
C2189 C2188 1.414 . S
C2189 C2190 1.374 . S
C2190 H2164 0.950 . S
C2190 C2186 1.385 . S
C2190 C2189 1.374 . S
C2191 C2188 1.499 . S
C2191 C2192 1.373 . S
C2191 C2193 1.389 . S
C2192 H2165 0.950 . S
C2192 C2178 1.377 . S
C2192 C2191 1.373 . S
C2193 C2177 1.377 . S
C2193 C2191 1.389 . S
C2193 C2194 1.524 . S
C2194 C2193 1.524 . S
C2194 C2195 1.397 . S
C2194 C2199 1.363 . S
C2195 H2166 0.950 . S
C2195 C2194 1.397 . S
C2195 C2196 1.334 . S
C2196 H2167 0.950 . S
C2196 C2195 1.334 . S
C2196 C2197 1.287 . S
C2197 C2196 1.287 . S
C2197 C2198 1.524 . S
C2197 H2200 0.999 . S
C2198 H2168 0.950 . S
C2198 C2197 1.524 . S
C2198 C2199 1.415 . S
C2199 H2169 0.950 . S
C2199 C2194 1.363 . S
C2199 C2198 1.415 . S
H2200 C2197 0.999 . S
H2201 C2182 0.913 . S
H2202 C2220 0.951 . S
H2203 C2222 0.951 . S
H2204 C2224 0.950 . S
H2205 C2225 0.950 . S
H2206 C2227 0.950 1_455 S
H2207 C2230 0.950 . S
H2208 C2231 0.950 . S
H2209 C2233 0.950 . S
H2210 C2234 0.950 . S
H2211 C2235 0.951 . S
H2212 C2237 0.951 . S
H2213 C2239 0.950 . S
H2214 C2240 0.950 . S
H2215 C2242 0.950 . S
H2216 C2245 0.950 1_655 S
H2217 C2246 0.950 . S
H2218 C2248 0.950 . S
H2219 C2249 0.950 . S
C2220 H2202 0.951 . S
C2220 C2221 1.366 . S
C2220 C2222 1.388 . S
C2221 C2220 1.366 . S
C2221 C2225 1.385 1_655 S
C2222 H2203 0.951 . S
C2222 C2220 1.388 . S
C2222 C2223 1.366 . S
C2223 C2222 1.366 . S
C2223 C2224 1.414 1_655 S
C2223 C2226 1.499 . S
C2224 H2204 0.950 . S
C2224 C2223 1.414 1_455 S
C2224 C2225 1.374 . S
C2225 H2205 0.950 . S
C2225 C2221 1.385 1_455 S
C2225 C2224 1.374 . S
C2226 C2223 1.499 . S
C2226 C2227 1.373 . S
C2226 C2228 1.389 . S
C2227 H2206 0.950 1_655 S
C2227 C2226 1.373 . S
C2227 C2243 1.377 . S
C2228 C2226 1.389 . S
C2228 C2229 1.524 . S
C2228 C2242 1.377 . S
C2229 C2228 1.524 . S
C2229 C2230 1.397 . S
C2229 C2234 1.363 . S
C2230 H2207 0.950 . S
C2230 C2229 1.397 . S
C2230 C2231 1.334 . S
C2231 H2208 0.950 . S
C2231 C2230 1.334 . S
C2231 C2232 1.287 . S
C2232 C2231 1.287 . S
C2232 C2233 1.524 . S
C2232 H2251 0.913 . S
C2233 H2209 0.950 . S
C2233 C2232 1.524 . S
C2233 C2234 1.415 . S
C2234 H2210 0.950 . S
C2234 C2229 1.363 . S
C2234 C2233 1.415 . S
C2235 H2211 0.951 . S
C2235 C2236 1.366 . S
C2235 C2237 1.388 . S
C2236 C2235 1.366 . S
C2236 C2240 1.385 . S
C2237 H2212 0.951 . S
C2237 C2235 1.388 . S
C2237 C2238 1.366 . S
C2238 C2237 1.366 . S
C2238 C2239 1.414 . S
C2238 C2241 1.499 . S
C2239 H2213 0.950 . S
C2239 C2238 1.414 . S
C2239 C2240 1.374 . S
C2240 H2214 0.950 . S
C2240 C2236 1.385 . S
C2240 C2239 1.374 . S
C2241 C2238 1.499 . S
C2241 C2242 1.373 . S
C2241 C2243 1.389 . S
C2242 H2215 0.950 . S
C2242 C2228 1.377 . S
C2242 C2241 1.373 . S
C2243 C2227 1.377 . S
C2243 C2241 1.389 . S
C2243 C2244 1.524 1_655 S
C2244 C2243 1.524 1_455 S
C2244 C2245 1.397 . S
C2244 C2249 1.363 . S
C2245 H2216 0.950 1_455 S
C2245 C2244 1.397 . S
C2245 C2246 1.334 . S
C2246 H2217 0.950 . S
C2246 C2245 1.334 . S
C2246 C2247 1.287 . S
C2247 C2246 1.287 . S
C2247 C2248 1.524 . S
C2247 H2250 0.999 . S
C2248 H2218 0.950 . S
C2248 C2247 1.524 . S
C2248 C2249 1.415 . S
C2249 H2219 0.950 . S
C2249 C2244 1.363 . S
C2249 C2248 1.415 . S
H2250 C2247 0.999 . S
H2251 C2232 0.913 . S
H2252 C2270 0.951 . S
H2253 C2272 0.951 . S
H2254 C2274 0.950 . S
H2255 C2275 0.950 . S
H2256 C2277 0.950 . S
H2257 C2280 0.950 . S
H2258 C2281 0.950 . S
H2259 C2283 0.950 . S
H2260 C2284 0.950 . S
H2261 C2285 0.951 . S
H2262 C2287 0.951 . S
H2263 C2289 0.950 . S
H2264 C2290 0.950 . S
H2265 C2292 0.950 . S
H2266 C2295 0.950 . S
H2267 C2296 0.950 . S
H2268 C2298 0.950 . S
H2269 C2299 0.950 . S
C2270 H2252 0.951 . S
C2270 C2271 1.366 . S
C2270 C2272 1.388 . S
C2271 C2270 1.366 . S
C2271 C2275 1.385 . S
C2272 H2253 0.951 . S
C2272 C2270 1.388 . S
C2272 C2273 1.366 . S
C2273 C2272 1.366 . S
C2273 C2274 1.414 . S
C2273 C2276 1.499 . S
C2274 H2254 0.950 . S
C2274 C2273 1.414 . S
C2274 C2275 1.374 . S
C2275 H2255 0.950 . S
C2275 C2271 1.385 . S
C2275 C2274 1.374 . S
C2276 C2273 1.499 . S
C2276 C2277 1.373 . S
C2276 C2278 1.389 . S
C2277 H2256 0.950 . S
C2277 C2276 1.373 . S
C2277 C2293 1.377 . S
C2278 C2276 1.389 . S
C2278 C2279 1.524 . S
C2278 C2292 1.377 . S
C2279 C2278 1.524 . S
C2279 C2280 1.397 . S
C2279 C2284 1.363 . S
C2280 H2257 0.950 . S
C2280 C2279 1.397 . S
C2280 C2281 1.334 . S
C2281 H2258 0.950 . S
C2281 C2280 1.334 . S
C2281 C2282 1.287 . S
C2282 C2281 1.287 . S
C2282 C2283 1.524 . S
C2282 H2301 0.913 . S
C2283 H2259 0.950 . S
C2283 C2282 1.524 . S
C2283 C2284 1.415 . S
C2284 H2260 0.950 . S
C2284 C2279 1.363 . S
C2284 C2283 1.415 . S
C2285 H2261 0.951 . S
C2285 C2286 1.366 . S
C2285 C2287 1.388 . S
C2286 C2285 1.366 . S
C2286 C2290 1.385 . S
C2287 H2262 0.951 . S
C2287 C2285 1.388 . S
C2287 C2288 1.366 . S
C2288 C2287 1.366 . S
C2288 C2289 1.414 . S
C2288 C2291 1.499 . S
C2289 H2263 0.950 . S
C2289 C2288 1.414 . S
C2289 C2290 1.374 . S
C2290 H2264 0.950 . S
C2290 C2286 1.385 . S
C2290 C2289 1.374 . S
C2291 C2288 1.499 . S
C2291 C2292 1.373 . S
C2291 C2293 1.389 . S
C2292 H2265 0.950 . S
C2292 C2278 1.377 . S
C2292 C2291 1.373 . S
C2293 C2277 1.377 . S
C2293 C2291 1.389 . S
C2293 C2294 1.524 . S
C2294 C2293 1.524 . S
C2294 C2295 1.397 . S
C2294 C2299 1.363 . S
C2295 H2266 0.950 . S
C2295 C2294 1.397 . S
C2295 C2296 1.334 . S
C2296 H2267 0.950 . S
C2296 C2295 1.334 . S
C2296 C2297 1.287 . S
C2297 C2296 1.287 . S
C2297 C2298 1.524 . S
C2297 H2300 0.999 . S
C2298 H2268 0.950 . S
C2298 C2297 1.524 . S
C2298 C2299 1.415 . S
C2299 H2269 0.950 . S
C2299 C2294 1.363 . S
C2299 C2298 1.415 . S
H2300 C2297 0.999 . S
H2301 C2282 0.913 . S
H2302 C2320 0.951 . S
H2303 C2322 0.951 . S
H2304 C2324 0.950 . S
H2305 C2325 0.950 . S
H2306 C2327 0.950 . S
H2307 C2330 0.950 . S
H2308 C2331 0.950 . S
H2309 C2333 0.950 . S
H2310 C2334 0.950 . S
H2311 C2335 0.953 . S
H2312 C2337 0.948 . S
H2313 C2339 0.950 . S
H2314 C2340 0.947 . S
H2315 C2342 0.950 . S
H2316 C2345 0.950 . S
H2317 C2346 0.950 . S
H2318 C2348 0.950 . S
H2319 C2349 0.950 . S
C2320 H2302 0.951 . S
C2320 C2321 1.366 . S
C2320 C2322 1.388 . S
C2321 C2320 1.366 . S
C2321 C2325 1.385 . S
C2322 H2303 0.951 . S
C2322 C2320 1.388 . S
C2322 C2323 1.366 . S
C2323 C2322 1.366 . S
C2323 C2324 1.414 . S
C2323 C2326 1.499 . S
C2324 H2304 0.950 . S
C2324 C2323 1.414 . S
C2324 C2325 1.374 . S
C2325 H2305 0.950 . S
C2325 C2321 1.385 . S
C2325 C2324 1.374 . S
C2326 C2323 1.499 . S
C2326 C2327 1.373 1_655 S
C2326 C2328 1.389 . S
C2327 H2306 0.950 . S
C2327 C2326 1.373 1_455 S
C2327 C2343 1.377 . S
C2328 C2326 1.389 . S
C2328 C2329 1.524 . S
C2328 C2342 1.377 . S
C2329 C2328 1.524 . S
C2329 C2330 1.397 . S
C2329 C2334 1.363 . S
C2330 H2307 0.950 . S
C2330 C2329 1.397 . S
C2330 C2331 1.334 . S
C2331 H2308 0.950 . S
C2331 C2330 1.334 . S
C2331 C2332 1.287 . S
C2332 C2331 1.287 . S
C2332 C2333 1.524 . S
C2332 H2351 0.913 . S
C2333 H2309 0.950 . S
C2333 C2332 1.524 . S
C2333 C2334 1.415 . S
C2334 H2310 0.950 . S
C2334 C2329 1.363 . S
C2334 C2333 1.415 . S
C2335 H2311 0.953 . S
C2335 C2336 1.372 . S
C2335 C2337 1.387 . S
C2336 C2335 1.372 . S
C2336 C2340 1.386 1_455 S
C2337 H2312 0.948 . S
C2337 C2335 1.387 . S
C2337 C2338 1.367 1_455 S
C2338 C2337 1.367 1_655 S
C2338 C2339 1.414 . S
C2338 C2341 1.495 . S
C2339 H2313 0.950 . S
C2339 C2338 1.414 . S
C2339 C2340 1.381 . S
C2340 H2314 0.947 . S
C2340 C2336 1.386 1_655 S
C2340 C2339 1.381 . S
C2341 C2338 1.495 . S
C2341 C2342 1.408 . S
C2341 C2343 1.364 1_655 S
C2342 H2315 0.950 . S
C2342 C2328 1.377 . S
C2342 C2341 1.408 . S
C2343 C2327 1.377 . S
C2343 C2341 1.364 1_455 S
C2343 C2344 1.524 . S
C2344 C2343 1.524 . S
C2344 C2345 1.397 . S
C2344 C2349 1.363 . S
C2345 H2316 0.950 . S
C2345 C2344 1.397 . S
C2345 C2346 1.334 . S
C2346 H2317 0.950 . S
C2346 C2345 1.334 . S
C2346 C2347 1.287 . S
C2347 C2346 1.287 . S
C2347 C2348 1.524 . S
C2347 H2350 0.999 . S
C2348 H2318 0.950 . S
C2348 C2347 1.524 . S
C2348 C2349 1.415 . S
C2349 H2319 0.950 . S
C2349 C2344 1.363 . S
C2349 C2348 1.415 . S
H2350 C2347 0.999 . S
H2351 C2332 0.913 . S
H2352 C2370 0.951 . S
H2353 C2372 0.951 . S
H2354 C2374 0.950 . S
H2355 C2375 0.950 . S
H2356 C2377 0.950 . S
H2357 C2380 0.950 . S
H2358 C2381 0.950 . S
H2359 C2383 0.950 . S
H2360 C2384 0.950 . S
H2361 C2385 0.951 . S
H2362 C2387 0.951 . S
H2363 C2389 0.950 . S
H2364 C2390 0.950 . S
H2365 C2392 0.950 . S
H2366 C2395 0.950 . S
H2367 C2396 0.950 . S
H2368 C2398 0.950 . S
H2369 C2399 0.950 . S
C2370 H2352 0.951 . S
C2370 C2371 1.366 . S
C2370 C2372 1.388 . S
C2371 C2370 1.366 . S
C2371 C2375 1.385 . S
C2372 H2353 0.951 . S
C2372 C2370 1.388 . S
C2372 C2373 1.366 . S
C2373 C2372 1.366 . S
C2373 C2374 1.414 . S
C2373 C2376 1.499 . S
C2374 H2354 0.950 . S
C2374 C2373 1.414 . S
C2374 C2375 1.374 . S
C2375 H2355 0.950 . S
C2375 C2371 1.385 . S
C2375 C2374 1.374 . S
C2376 C2373 1.499 . S
C2376 C2377 1.373 . S
C2376 C2378 1.389 . S
C2377 H2356 0.950 . S
C2377 C2376 1.373 . S
C2377 C2393 1.377 . S
C2378 C2376 1.389 . S
C2378 C2379 1.524 . S
C2378 C2392 1.377 . S
C2379 C2378 1.524 . S
C2379 C2380 1.397 . S
C2379 C2384 1.363 . S
C2380 H2357 0.950 . S
C2380 C2379 1.397 . S
C2380 C2381 1.334 . S
C2381 H2358 0.950 . S
C2381 C2380 1.334 . S
C2381 C2382 1.287 . S
C2382 C2381 1.287 . S
C2382 C2383 1.524 . S
C2382 H2401 0.913 . S
C2383 H2359 0.950 . S
C2383 C2382 1.524 . S
C2383 C2384 1.415 . S
C2384 H2360 0.950 . S
C2384 C2379 1.363 . S
C2384 C2383 1.415 . S
C2385 H2361 0.951 . S
C2385 C2386 1.366 . S
C2385 C2387 1.388 . S
C2386 C2385 1.366 . S
C2386 C2390 1.385 . S
C2387 H2362 0.951 . S
C2387 C2385 1.388 . S
C2387 C2388 1.366 . S
C2388 C2387 1.366 . S
C2388 C2389 1.414 . S
C2388 C2391 1.499 . S
C2389 H2363 0.950 . S
C2389 C2388 1.414 . S
C2389 C2390 1.374 . S
C2390 H2364 0.950 . S
C2390 C2386 1.385 . S
C2390 C2389 1.374 . S
C2391 C2388 1.499 . S
C2391 C2392 1.373 . S
C2391 C2393 1.389 . S
C2392 H2365 0.950 . S
C2392 C2378 1.377 . S
C2392 C2391 1.373 . S
C2393 C2377 1.377 . S
C2393 C2391 1.389 . S
C2393 C2394 1.524 . S
C2394 C2393 1.524 . S
C2394 C2395 1.397 . S
C2394 C2399 1.363 . S
C2395 H2366 0.950 . S
C2395 C2394 1.397 . S
C2395 C2396 1.334 . S
C2396 H2367 0.950 . S
C2396 C2395 1.334 . S
C2396 C2397 1.287 . S
C2397 C2396 1.287 . S
C2397 C2398 1.524 . S
C2397 H2400 0.999 . S
C2398 H2368 0.950 . S
C2398 C2397 1.524 . S
C2398 C2399 1.415 . S
C2399 H2369 0.950 . S
C2399 C2394 1.363 . S
C2399 C2398 1.415 . S
H2400 C2397 0.999 . S
H2401 C2382 0.913 . S
H2402 C2420 0.951 . S
H2403 C2422 0.951 . S
H2404 C2424 0.950 . S
H2405 C2425 0.950 . S
H2406 C2427 0.950 . S
H2407 C2430 0.950 . S
H2408 C2431 0.950 . S
H2409 C2433 0.950 . S
H2410 C2434 0.950 . S
H2411 C2435 0.951 . S
H2412 C2437 0.951 . S
H2413 C2439 0.950 . S
H2414 C2440 0.950 . S
H2415 C2442 0.950 . S
H2416 C2445 0.950 . S
H2417 C2446 0.950 . S
H2418 C2448 0.950 . S
H2419 C2449 0.950 . S
C2420 H2402 0.951 . S
C2420 C2421 1.366 . S
C2420 C2422 1.388 . S
C2421 C2420 1.366 . S
C2421 C2425 1.385 . S
C2422 H2403 0.951 . S
C2422 C2420 1.388 . S
C2422 C2423 1.366 . S
C2423 C2422 1.366 . S
C2423 C2424 1.414 . S
C2423 C2426 1.499 . S
C2424 H2404 0.950 . S
C2424 C2423 1.414 . S
C2424 C2425 1.374 . S
C2425 H2405 0.950 . S
C2425 C2421 1.385 . S
C2425 C2424 1.374 . S
C2426 C2423 1.499 . S
C2426 C2427 1.373 . S
C2426 C2428 1.389 . S
C2427 H2406 0.950 . S
C2427 C2426 1.373 . S
C2427 C2443 1.377 . S
C2428 C2426 1.389 . S
C2428 C2429 1.524 . S
C2428 C2442 1.377 . S
C2429 C2428 1.524 . S
C2429 C2430 1.397 . S
C2429 C2434 1.363 . S
C2430 H2407 0.950 . S
C2430 C2429 1.397 . S
C2430 C2431 1.334 . S
C2431 H2408 0.950 . S
C2431 C2430 1.334 . S
C2431 C2432 1.287 . S
C2432 C2431 1.287 . S
C2432 C2433 1.524 . S
C2432 H2451 0.913 . S
C2433 H2409 0.950 . S
C2433 C2432 1.524 . S
C2433 C2434 1.415 . S
C2434 H2410 0.950 . S
C2434 C2429 1.363 . S
C2434 C2433 1.415 . S
C2435 H2411 0.951 . S
C2435 C2436 1.366 . S
C2435 C2437 1.388 . S
C2436 C2435 1.366 . S
C2436 C2440 1.385 . S
C2437 H2412 0.951 . S
C2437 C2435 1.388 . S
C2437 C2438 1.366 . S
C2438 C2437 1.366 . S
C2438 C2439 1.414 . S
C2438 C2441 1.499 . S
C2439 H2413 0.950 . S
C2439 C2438 1.414 . S
C2439 C2440 1.374 . S
C2440 H2414 0.950 . S
C2440 C2436 1.385 . S
C2440 C2439 1.374 . S
C2441 C2438 1.499 . S
C2441 C2442 1.373 . S
C2441 C2443 1.389 . S
C2442 H2415 0.950 . S
C2442 C2428 1.377 . S
C2442 C2441 1.373 . S
C2443 C2427 1.377 . S
C2443 C2441 1.389 . S
C2443 C2444 1.524 . S
C2444 C2443 1.524 . S
C2444 C2445 1.397 . S
C2444 C2449 1.363 . S
C2445 H2416 0.950 . S
C2445 C2444 1.397 . S
C2445 C2446 1.334 . S
C2446 H2417 0.950 . S
C2446 C2445 1.334 . S
C2446 C2447 1.287 . S
C2447 C2446 1.287 . S
C2447 C2448 1.524 . S
C2447 H2450 0.999 . S
C2448 H2418 0.950 . S
C2448 C2447 1.524 . S
C2448 C2449 1.415 . S
C2449 H2419 0.950 . S
C2449 C2444 1.363 . S
C2449 C2448 1.415 . S
H2450 C2447 0.999 . S
H2451 C2432 0.913 . S
H2452 C2470 0.951 . S
H2453 C2472 0.951 . S
H2454 C2474 0.950 . S
H2455 C2475 0.950 . S
H2456 C2477 0.950 . S
H2457 C2480 0.950 . S
H2458 C2481 0.950 . S
H2459 C2483 0.950 . S
H2460 C2484 0.950 . S
H2461 C2485 0.951 . S
H2462 C2487 0.951 . S
H2463 C2489 0.950 . S
H2464 C2490 0.950 . S
H2465 C2492 0.950 . S
H2466 C2495 0.950 . S
H2467 C2496 0.950 . S
H2468 C2498 0.950 . S
H2469 C2499 0.950 1_545 S
C2470 H2452 0.951 . S
C2470 C2471 1.366 1_565 S
C2470 C2472 1.388 . S
C2471 C2470 1.366 1_545 S
C2471 C2475 1.385 . S
C2472 H2453 0.951 . S
C2472 C2470 1.388 . S
C2472 C2473 1.366 1_565 S
C2473 C2472 1.366 1_545 S
C2473 C2474 1.414 . S
C2473 C2476 1.499 . S
C2474 H2454 0.950 . S
C2474 C2473 1.414 . S
C2474 C2475 1.374 . S
C2475 H2455 0.950 . S
C2475 C2471 1.385 . S
C2475 C2474 1.374 . S
C2476 C2473 1.499 . S
C2476 C2477 1.373 1_545 S
C2476 C2478 1.389 . S
C2477 H2456 0.950 . S
C2477 C2476 1.373 1_565 S
C2477 C2493 1.377 . S
C2478 C2476 1.389 . S
C2478 C2479 1.524 . S
C2478 C2492 1.377 . S
C2479 C2478 1.524 . S
C2479 C2480 1.397 . S
C2479 C2484 1.363 . S
C2480 H2457 0.950 . S
C2480 C2479 1.397 . S
C2480 C2481 1.334 . S
C2481 H2458 0.950 . S
C2481 C2480 1.334 . S
C2481 C2482 1.287 . S
C2482 C2481 1.287 . S
C2482 C2483 1.524 . S
C2482 H2501 0.913 . S
C2483 H2459 0.950 . S
C2483 C2482 1.524 . S
C2483 C2484 1.415 . S
C2484 H2460 0.950 . S
C2484 C2479 1.363 . S
C2484 C2483 1.415 . S
C2485 H2461 0.951 . S
C2485 C2486 1.365 1_545 S
C2485 C2487 1.388 . S
C2486 C2485 1.365 1_565 S
C2486 C2490 1.385 . S
C2487 H2462 0.951 . S
C2487 C2485 1.388 . S
C2487 C2488 1.368 . S
C2488 C2487 1.368 . S
C2488 C2489 1.411 1_545 S
C2488 C2491 1.496 . S
C2489 H2463 0.950 . S
C2489 C2488 1.411 1_565 S
C2489 C2490 1.374 . S
C2490 H2464 0.950 . S
C2490 C2486 1.385 . S
C2490 C2489 1.374 . S
C2491 C2488 1.496 . S
C2491 C2492 1.390 . S
C2491 C2493 1.380 1_545 S
C2492 H2465 0.950 . S
C2492 C2478 1.377 . S
C2492 C2491 1.390 . S
C2493 C2477 1.377 . S
C2493 C2491 1.380 1_565 S
C2493 C2494 1.524 . S
C2494 C2493 1.524 . S
C2494 C2495 1.397 . S
C2494 C2499 1.363 . S
C2495 H2466 0.950 . S
C2495 C2494 1.397 . S
C2495 C2496 1.334 . S
C2496 H2467 0.950 . S
C2496 C2495 1.334 . S
C2496 C2497 1.287 . S
C2497 C2496 1.287 . S
C2497 C2498 1.524 . S
C2497 H2500 0.999 . S
C2498 H2468 0.950 . S
C2498 C2497 1.524 . S
C2498 C2499 1.415 . S
C2499 H2469 0.950 1_565 S
C2499 C2494 1.363 . S
C2499 C2498 1.415 . S
H2500 C2497 0.999 . S
H2501 C2482 0.913 . S
H2502 C2520 0.951 . S
H2503 C2522 0.951 . S
H2504 C2524 0.950 . S
H2505 C2525 0.950 . S
H2506 C2527 0.950 . S
H2507 C2530 0.950 . S
H2508 C2531 0.950 . S
H2509 C2533 0.950 . S
H2510 C2534 0.950 . S
H2511 C2535 0.951 . S
H2512 C2537 0.951 . S
H2513 C2539 0.950 . S
H2514 C2540 0.950 . S
H2515 C2542 0.950 . S
H2516 C2545 0.950 1_565 S
H2517 C2546 0.950 . S
H2518 C2548 0.950 . S
H2519 C2549 0.950 . S
C2520 H2502 0.951 . S
C2520 C2521 1.366 1_565 S
C2520 C2522 1.388 . S
C2521 C2520 1.366 1_545 S
C2521 C2525 1.385 . S
C2522 H2503 0.951 . S
C2522 C2520 1.388 . S
C2522 C2523 1.366 1_565 S
C2523 C2522 1.366 1_545 S
C2523 C2524 1.414 . S
C2523 C2526 1.499 . S
C2524 H2504 0.950 . S
C2524 C2523 1.414 . S
C2524 C2525 1.374 . S
C2525 H2505 0.950 . S
C2525 C2521 1.385 . S
C2525 C2524 1.374 . S
C2526 C2523 1.499 . S
C2526 C2527 1.373 . S
C2526 C2528 1.389 . S
C2527 H2506 0.950 . S
C2527 C2526 1.373 . S
C2527 C2543 1.377 . S
C2528 C2526 1.389 . S
C2528 C2529 1.524 . S
C2528 C2542 1.377 . S
C2529 C2528 1.524 . S
C2529 C2530 1.397 . S
C2529 C2534 1.363 . S
C2530 H2507 0.950 . S
C2530 C2529 1.397 . S
C2530 C2531 1.334 . S
C2531 H2508 0.950 . S
C2531 C2530 1.334 . S
C2531 C2532 1.287 . S
C2532 C2531 1.287 . S
C2532 C2533 1.524 . S
C2532 H2551 0.913 . S
C2533 H2509 0.950 . S
C2533 C2532 1.524 . S
C2533 C2534 1.415 . S
C2534 H2510 0.950 . S
C2534 C2529 1.363 . S
C2534 C2533 1.415 . S
C2535 H2511 0.951 . S
C2535 C2536 1.366 . S
C2535 C2537 1.388 . S
C2536 C2535 1.366 . S
C2536 C2540 1.385 . S
C2537 H2512 0.951 . S
C2537 C2535 1.388 . S
C2537 C2538 1.366 . S
C2538 C2537 1.366 . S
C2538 C2539 1.414 . S
C2538 C2541 1.499 . S
C2539 H2513 0.950 . S
C2539 C2538 1.414 . S
C2539 C2540 1.374 . S
C2540 H2514 0.950 . S
C2540 C2536 1.385 . S
C2540 C2539 1.374 . S
C2541 C2538 1.499 . S
C2541 C2542 1.373 . S
C2541 C2543 1.389 . S
C2542 H2515 0.950 . S
C2542 C2528 1.377 . S
C2542 C2541 1.373 . S
C2543 C2527 1.377 . S
C2543 C2541 1.389 . S
C2543 C2544 1.524 . S
C2544 C2543 1.524 . S
C2544 C2545 1.397 . S
C2544 C2549 1.363 . S
C2545 H2516 0.950 1_545 S
C2545 C2544 1.397 . S
C2545 C2546 1.334 1_545 S
C2546 H2517 0.950 . S
C2546 C2545 1.334 1_565 S
C2546 C2547 1.287 1_565 S
C2547 C2546 1.287 1_545 S
C2547 C2548 1.524 . S
C2547 H2550 0.999 . S
C2548 H2518 0.950 . S
C2548 C2547 1.524 . S
C2548 C2549 1.415 . S
C2549 H2519 0.950 . S
C2549 C2544 1.363 . S
C2549 C2548 1.415 . S
H2550 C2547 0.999 . S
H2551 C2532 0.913 . S
H2552 C2570 0.951 . S
H2553 C2572 0.951 . S
H2554 C2574 0.950 . S
H2555 C2575 0.950 . S
H2556 C2577 0.950 . S
H2557 C2580 0.950 . S
H2558 C2581 0.950 . S
H2559 C2583 0.950 . S
H2560 C2584 0.950 . S
H2561 C2585 0.951 . S
H2562 C2587 0.951 . S
H2563 C2589 0.950 . S
H2564 C2590 0.950 . S
H2565 C2592 0.950 . S
H2566 C2595 0.950 . S
H2567 C2596 0.950 . S
H2568 C2598 0.950 . S
H2569 C2599 0.950 . S
C2570 H2552 0.951 . S
C2570 C2571 1.366 . S
C2570 C2572 1.388 . S
C2571 C2570 1.366 . S
C2571 C2575 1.385 . S
C2572 H2553 0.951 . S
C2572 C2570 1.388 . S
C2572 C2573 1.366 . S
C2573 C2572 1.366 . S
C2573 C2574 1.414 . S
C2573 C2576 1.499 . S
C2574 H2554 0.950 . S
C2574 C2573 1.414 . S
C2574 C2575 1.374 . S
C2575 H2555 0.950 . S
C2575 C2571 1.385 . S
C2575 C2574 1.374 . S
C2576 C2573 1.499 . S
C2576 C2577 1.373 . S
C2576 C2578 1.389 . S
C2577 H2556 0.950 . S
C2577 C2576 1.373 . S
C2577 C2593 1.377 . S
C2578 C2576 1.389 . S
C2578 C2579 1.524 . S
C2578 C2592 1.377 . S
C2579 C2578 1.524 . S
C2579 C2580 1.397 . S
C2579 C2584 1.363 . S
C2580 H2557 0.950 . S
C2580 C2579 1.397 . S
C2580 C2581 1.334 . S
C2581 H2558 0.950 . S
C2581 C2580 1.334 . S
C2581 C2582 1.287 . S
C2582 C2581 1.287 . S
C2582 C2583 1.524 . S
C2582 H2601 0.913 . S
C2583 H2559 0.950 . S
C2583 C2582 1.524 . S
C2583 C2584 1.415 . S
C2584 H2560 0.950 . S
C2584 C2579 1.363 . S
C2584 C2583 1.415 . S
C2585 H2561 0.951 . S
C2585 C2586 1.366 . S
C2585 C2587 1.388 . S
C2586 C2585 1.366 . S
C2586 C2590 1.385 . S
C2587 H2562 0.951 . S
C2587 C2585 1.388 . S
C2587 C2588 1.366 . S
C2588 C2587 1.366 . S
C2588 C2589 1.414 . S
C2588 C2591 1.499 . S
C2589 H2563 0.950 . S
C2589 C2588 1.414 . S
C2589 C2590 1.374 . S
C2590 H2564 0.950 . S
C2590 C2586 1.385 . S
C2590 C2589 1.374 . S
C2591 C2588 1.499 . S
C2591 C2592 1.373 . S
C2591 C2593 1.389 . S
C2592 H2565 0.950 . S
C2592 C2578 1.377 . S
C2592 C2591 1.373 . S
C2593 C2577 1.377 . S
C2593 C2591 1.389 . S
C2593 C2594 1.524 . S
C2594 C2593 1.524 . S
C2594 C2595 1.397 . S
C2594 C2599 1.363 . S
C2595 H2566 0.950 . S
C2595 C2594 1.397 . S
C2595 C2596 1.334 . S
C2596 H2567 0.950 . S
C2596 C2595 1.334 . S
C2596 C2597 1.287 . S
C2597 C2596 1.287 . S
C2597 C2598 1.524 . S
C2597 H2600 0.999 . S
C2598 H2568 0.950 . S
C2598 C2597 1.524 . S
C2598 C2599 1.415 . S
C2599 H2569 0.950 . S
C2599 C2594 1.363 . S
C2599 C2598 1.415 . S
H2600 C2597 0.999 . S
H2601 C2582 0.913 . S
H2602 C2620 0.951 . S
H2603 C2622 0.951 . S
H2604 C2624 0.950 . S
H2605 C2625 0.950 . S
H2606 C2627 0.962 . S
H2607 C2630 0.950 . S
H2608 C2631 0.950 . S
H2609 C2633 0.950 . S
H2610 C2634 0.950 . S
H2611 C2635 0.951 . S
H2612 C2637 0.951 . S
H2613 C2639 0.950 . S
H2614 C2640 0.950 . S
H2615 C2642 0.950 . S
H2616 C2645 0.950 . S
H2617 C2646 0.950 . S
H2618 C2648 0.950 . S
H2619 C2649 0.950 . S
C2620 H2602 0.951 . S
C2620 C2621 1.366 . S
C2620 C2622 1.388 . S
C2621 C2620 1.366 . S
C2621 C2625 1.385 1_554 S
C2622 H2603 0.951 . S
C2622 C2620 1.388 . S
C2622 C2623 1.366 . S
C2623 C2622 1.366 . S
C2623 C2624 1.414 1_554 S
C2623 C2626 1.499 . S
C2624 H2604 0.950 . S
C2624 C2623 1.414 1_556 S
C2624 C2625 1.374 . S
C2625 H2605 0.950 . S
C2625 C2621 1.385 1_556 S
C2625 C2624 1.374 . S
C2626 C2623 1.499 . S
C2626 C2627 1.373 . S
C2626 C2628 1.389 . S
C2627 H2606 0.962 . S
C2627 C2626 1.373 . S
C2627 C2643 1.377 . S
C2628 C2626 1.389 . S
C2628 C2629 1.524 . S
C2628 C2642 1.377 . S
C2629 C2628 1.524 . S
C2629 C2630 1.397 . S
C2629 C2634 1.363 . S
C2630 H2607 0.950 . S
C2630 C2629 1.397 . S
C2630 C2631 1.334 . S
C2631 H2608 0.950 . S
C2631 C2630 1.334 . S
C2631 C2632 1.287 . S
C2632 C2631 1.287 . S
C2632 C2633 1.524 . S
C2632 H2651 0.913 . S
C2633 H2609 0.950 . S
C2633 C2632 1.524 . S
C2633 C2634 1.415 . S
C2634 H2610 0.950 . S
C2634 C2629 1.363 . S
C2634 C2633 1.415 . S
C2635 H2611 0.951 . S
C2635 C2636 1.366 . S
C2635 C2637 1.388 . S
C2636 C2635 1.366 . S
C2636 C2640 1.385 . S
C2637 H2612 0.951 . S
C2637 C2635 1.388 . S
C2637 C2638 1.366 . S
C2638 C2637 1.366 . S
C2638 C2639 1.414 . S
C2638 C2641 1.499 . S
C2639 H2613 0.950 . S
C2639 C2638 1.414 . S
C2639 C2640 1.374 . S
C2640 H2614 0.950 . S
C2640 C2636 1.385 . S
C2640 C2639 1.374 . S
C2641 C2638 1.499 . S
C2641 C2642 1.373 . S
C2641 C2643 1.389 . S
C2642 H2615 0.950 . S
C2642 C2628 1.377 . S
C2642 C2641 1.373 . S
C2643 C2627 1.377 . S
C2643 C2641 1.389 . S
C2643 C2644 1.524 . S
C2644 C2643 1.524 . S
C2644 C2645 1.397 . S
C2644 C2649 1.363 1_554 S
C2645 H2616 0.950 . S
C2645 C2644 1.397 . S
C2645 C2646 1.334 . S
C2646 H2617 0.950 . S
C2646 C2645 1.334 . S
C2646 C2647 1.327 . S
C2647 C2646 1.327 . S
C2647 C2648 1.490 1_554 S
C2647 H2650 0.988 1_554 S
C2648 H2618 0.950 . S
C2648 C2647 1.490 1_556 S
C2648 C2649 1.415 . S
C2649 H2619 0.950 . S
C2649 C2644 1.363 1_556 S
C2649 C2648 1.415 . S
H2650 C2647 0.988 1_556 S
H2651 C2632 0.913 . S
H2652 C2670 0.951 . S
H2653 C2672 0.951 . S
H2654 C2674 0.950 . S
H2655 C2675 0.950 . S
H2656 C2677 0.950 . S
H2657 C2680 0.950 . S
H2658 C2681 0.950 . S
H2659 C2683 0.950 . S
H2660 C2684 0.950 . S
H2661 C2685 0.951 . S
H2662 C2687 0.951 . S
H2663 C2689 0.950 . S
H2664 C2690 0.950 . S
H2665 C2692 0.950 . S
H2666 C2695 0.950 . S
H2667 C2696 0.950 . S
H2668 C2698 0.950 . S
H2669 C2699 0.950 . S
C2670 H2652 0.951 . S
C2670 C2671 1.366 . S
C2670 C2672 1.388 . S
C2671 C2670 1.366 . S
C2671 C2675 1.385 . S
C2672 H2653 0.951 . S
C2672 C2670 1.388 . S
C2672 C2673 1.366 . S
C2673 C2672 1.366 . S
C2673 C2674 1.414 . S
C2673 C2676 1.499 . S
C2674 H2654 0.950 . S
C2674 C2673 1.414 . S
C2674 C2675 1.374 . S
C2675 H2655 0.950 . S
C2675 C2671 1.385 . S
C2675 C2674 1.374 . S
C2676 C2673 1.499 . S
C2676 C2677 1.373 . S
C2676 C2678 1.389 . S
C2677 H2656 0.950 . S
C2677 C2676 1.373 . S
C2677 C2693 1.377 . S
C2678 C2676 1.389 . S
C2678 C2679 1.524 . S
C2678 C2692 1.377 . S
C2679 C2678 1.524 . S
C2679 C2680 1.397 . S
C2679 C2684 1.363 . S
C2680 H2657 0.950 . S
C2680 C2679 1.397 . S
C2680 C2681 1.334 . S
C2681 H2658 0.950 . S
C2681 C2680 1.334 . S
C2681 C2682 1.287 . S
C2682 C2681 1.287 . S
C2682 C2683 1.524 . S
C2682 H2701 0.913 . S
C2683 H2659 0.950 . S
C2683 C2682 1.524 . S
C2683 C2684 1.415 . S
C2684 H2660 0.950 . S
C2684 C2679 1.363 . S
C2684 C2683 1.415 . S
C2685 H2661 0.951 . S
C2685 C2686 1.366 . S
C2685 C2687 1.388 . S
C2686 C2685 1.366 . S
C2686 C2690 1.385 . S
C2687 H2662 0.951 . S
C2687 C2685 1.388 . S
C2687 C2688 1.366 . S
C2688 C2687 1.366 . S
C2688 C2689 1.414 . S
C2688 C2691 1.499 . S
C2689 H2663 0.950 . S
C2689 C2688 1.414 . S
C2689 C2690 1.374 . S
C2690 H2664 0.950 . S
C2690 C2686 1.385 . S
C2690 C2689 1.374 . S
C2691 C2688 1.499 . S
C2691 C2692 1.373 . S
C2691 C2693 1.389 . S
C2692 H2665 0.950 . S
C2692 C2678 1.377 . S
C2692 C2691 1.373 . S
C2693 C2677 1.377 . S
C2693 C2691 1.389 . S
C2693 C2694 1.524 . S
C2694 C2693 1.524 . S
C2694 C2695 1.397 . S
C2694 C2699 1.363 . S
C2695 H2666 0.950 . S
C2695 C2694 1.397 . S
C2695 C2696 1.334 . S
C2696 H2667 0.950 . S
C2696 C2695 1.334 . S
C2696 C2697 1.287 . S
C2697 C2696 1.287 . S
C2697 C2698 1.524 . S
C2697 H2700 0.999 . S
C2698 H2668 0.950 . S
C2698 C2697 1.524 . S
C2698 C2699 1.415 . S
C2699 H2669 0.950 . S
C2699 C2694 1.363 . S
C2699 C2698 1.415 . S
H2700 C2697 0.999 . S
H2701 C2682 0.913 . S
H2702 C2720 0.951 . S
H2703 C2722 0.951 . S
H2704 C2724 0.950 . S
H2705 C2725 0.950 . S
H2706 C2727 0.950 . S
H2707 C2730 0.950 . S
H2708 C2731 0.950 . S
H2709 C2733 0.950 . S
H2710 C2734 0.950 . S
H2711 C2735 0.951 . S
H2712 C2737 0.958 . S
H2713 C2739 0.950 . S
H2714 C2740 0.950 . S
H2715 C2742 0.950 . S
H2716 C2745 0.950 . S
H2717 C2746 0.950 . S
H2718 C2748 0.950 . S
H2719 C2749 0.950 . S
C2720 H2702 0.951 . S
C2720 C2721 1.366 . S
C2720 C2722 1.388 . S
C2721 C2720 1.366 . S
C2721 C2725 1.385 . S
C2722 H2703 0.951 . S
C2722 C2720 1.388 . S
C2722 C2723 1.366 . S
C2723 C2722 1.366 . S
C2723 C2724 1.414 . S
C2723 C2726 1.499 . S
C2724 H2704 0.950 . S
C2724 C2723 1.414 . S
C2724 C2725 1.374 . S
C2725 H2705 0.950 . S
C2725 C2721 1.385 . S
C2725 C2724 1.374 . S
C2726 C2723 1.499 . S
C2726 C2727 1.373 1_554 S
C2726 C2728 1.389 . S
C2727 H2706 0.950 . S
C2727 C2726 1.373 1_556 S
C2727 C2743 1.377 . S
C2728 C2726 1.389 . S
C2728 C2729 1.524 . S
C2728 C2742 1.377 . S
C2729 C2728 1.524 . S
C2729 C2730 1.397 . S
C2729 C2734 1.363 . S
C2730 H2707 0.950 . S
C2730 C2729 1.397 . S
C2730 C2731 1.334 . S
C2731 H2708 0.950 . S
C2731 C2730 1.334 . S
C2731 C2732 1.287 . S
C2732 C2731 1.287 . S
C2732 C2733 1.524 . S
C2732 H2751 0.913 . S
C2733 H2709 0.950 . S
C2733 C2732 1.524 . S
C2733 C2734 1.415 . S
C2734 H2710 0.950 . S
C2734 C2729 1.363 . S
C2734 C2733 1.415 . S
C2735 H2711 0.951 . S
C2735 C2736 1.365 . S
C2735 C2737 1.394 . S
C2736 C2735 1.365 . S
C2736 C2740 1.385 1_556 S
C2737 H2712 0.958 . S
C2737 C2735 1.394 . S
C2737 C2738 1.355 1_556 S
C2738 C2737 1.355 1_554 S
C2738 C2739 1.415 . S
C2738 C2741 1.494 . S
C2739 H2713 0.950 . S
C2739 C2738 1.415 . S
C2739 C2740 1.374 . S
C2740 H2714 0.950 . S
C2740 C2736 1.385 1_554 S
C2740 C2739 1.374 . S
C2741 C2738 1.494 . S
C2741 C2742 1.419 . S
C2741 C2743 1.354 1_554 S
C2742 H2715 0.950 . S
C2742 C2728 1.377 . S
C2742 C2741 1.419 . S
C2743 C2727 1.377 . S
C2743 C2741 1.354 1_556 S
C2743 C2744 1.524 . S
C2744 C2743 1.524 . S
C2744 C2745 1.397 . S
C2744 C2749 1.363 . S
C2745 H2716 0.950 . S
C2745 C2744 1.397 . S
C2745 C2746 1.334 . S
C2746 H2717 0.950 . S
C2746 C2745 1.334 . S
C2746 C2747 1.287 . S
C2747 C2746 1.287 . S
C2747 C2748 1.524 . S
C2747 H2750 0.999 . S
C2748 H2718 0.950 . S
C2748 C2747 1.524 . S
C2748 C2749 1.415 . S
C2749 H2719 0.950 . S
C2749 C2744 1.363 . S
C2749 C2748 1.415 . S
H2750 C2747 0.999 . S
H2751 C2732 0.913 . S
H2752 C2770 0.951 . S
H2753 C2772 0.951 . S
H2754 C2774 0.950 . S
H2755 C2775 0.950 . S
H2756 C2777 0.950 . S
H2757 C2780 0.950 . S
H2758 C2781 0.950 . S
H2759 C2783 0.950 . S
H2760 C2784 0.950 . S
H2761 C2785 0.951 . S
H2762 C2787 0.951 . S
H2763 C2789 0.950 . S
H2764 C2790 0.950 . S
H2765 C2792 0.950 . S
H2766 C2795 0.950 . S
H2767 C2796 0.950 . S
H2768 C2798 0.950 . S
H2769 C2799 0.950 . S
C2770 H2752 0.951 . S
C2770 C2771 1.366 . S
C2770 C2772 1.388 . S
C2771 C2770 1.366 . S
C2771 C2775 1.385 . S
C2772 H2753 0.951 . S
C2772 C2770 1.388 . S
C2772 C2773 1.366 . S
C2773 C2772 1.366 . S
C2773 C2774 1.414 . S
C2773 C2776 1.499 . S
C2774 H2754 0.950 . S
C2774 C2773 1.414 . S
C2774 C2775 1.374 . S
C2775 H2755 0.950 . S
C2775 C2771 1.385 . S
C2775 C2774 1.374 . S
C2776 C2773 1.499 . S
C2776 C2777 1.373 . S
C2776 C2778 1.389 . S
C2777 H2756 0.950 . S
C2777 C2776 1.373 . S
C2777 C2793 1.377 . S
C2778 C2776 1.389 . S
C2778 C2779 1.524 . S
C2778 C2792 1.377 . S
C2779 C2778 1.524 . S
C2779 C2780 1.397 . S
C2779 C2784 1.363 . S
C2780 H2757 0.950 . S
C2780 C2779 1.397 . S
C2780 C2781 1.334 . S
C2781 H2758 0.950 . S
C2781 C2780 1.334 . S
C2781 C2782 1.287 . S
C2782 C2781 1.287 . S
C2782 C2783 1.524 . S
C2782 H2801 0.913 . S
C2783 H2759 0.950 . S
C2783 C2782 1.524 . S
C2783 C2784 1.415 . S
C2784 H2760 0.950 . S
C2784 C2779 1.363 . S
C2784 C2783 1.415 . S
C2785 H2761 0.951 . S
C2785 C2786 1.366 . S
C2785 C2787 1.388 . S
C2786 C2785 1.366 . S
C2786 C2790 1.385 . S
C2787 H2762 0.951 . S
C2787 C2785 1.388 . S
C2787 C2788 1.366 . S
C2788 C2787 1.366 . S
C2788 C2789 1.414 . S
C2788 C2791 1.499 . S
C2789 H2763 0.950 . S
C2789 C2788 1.414 . S
C2789 C2790 1.374 . S
C2790 H2764 0.950 . S
C2790 C2786 1.385 . S
C2790 C2789 1.374 . S
C2791 C2788 1.499 . S
C2791 C2792 1.373 . S
C2791 C2793 1.389 . S
C2792 H2765 0.950 . S
C2792 C2778 1.377 . S
C2792 C2791 1.373 . S
C2793 C2777 1.377 . S
C2793 C2791 1.389 . S
C2793 C2794 1.524 . S
C2794 C2793 1.524 . S
C2794 C2795 1.397 . S
C2794 C2799 1.363 . S
C2795 H2766 0.950 . S
C2795 C2794 1.397 . S
C2795 C2796 1.334 . S
C2796 H2767 0.950 . S
C2796 C2795 1.334 . S
C2796 C2797 1.287 . S
C2797 C2796 1.287 . S
C2797 C2798 1.524 . S
C2797 H2800 0.999 . S
C2798 H2768 0.950 . S
C2798 C2797 1.524 . S
C2798 C2799 1.415 . S
C2799 H2769 0.950 . S
C2799 C2794 1.363 . S
C2799 C2798 1.415 . S
H2800 C2797 0.999 . S
H2801 C2782 0.913 . S
H2802 C2820 0.951 . S
H2803 C2822 0.951 . S
H2804 C2824 0.950 . S
H2805 C2825 0.950 . S
H2806 C2827 0.950 1_655 S
H2807 C2830 0.950 . S
H2808 C2831 0.950 . S
H2809 C2833 0.950 . S
H2810 C2834 0.950 . S
H2811 C2835 0.951 . S
H2812 C2837 0.951 . S
H2813 C2839 0.950 . S
H2814 C2840 0.950 . S
H2815 C2842 0.950 . S
H2816 C2845 0.950 . S
H2817 C2846 0.950 . S
H2818 C2848 0.950 . S
H2819 C2849 0.950 . S
C2820 H2802 0.951 . S
C2820 C2821 1.366 . S
C2820 C2822 1.388 . S
C2821 C2820 1.366 . S
C2821 C2825 1.385 . S
C2822 H2803 0.951 . S
C2822 C2820 1.388 . S
C2822 C2823 1.366 . S
C2823 C2822 1.366 . S
C2823 C2824 1.414 . S
C2823 C2826 1.499 . S
C2824 H2804 0.950 . S
C2824 C2823 1.414 . S
C2824 C2825 1.374 . S
C2825 H2805 0.950 . S
C2825 C2821 1.385 . S
C2825 C2824 1.374 . S
C2826 C2823 1.499 . S
C2826 C2827 1.373 . S
C2826 C2828 1.389 . S
C2827 H2806 0.950 1_455 S
C2827 C2826 1.373 . S
C2827 C2843 1.377 . S
C2828 C2826 1.389 . S
C2828 C2829 1.524 . S
C2828 C2842 1.377 . S
C2829 C2828 1.524 . S
C2829 C2830 1.397 . S
C2829 C2834 1.363 . S
C2830 H2807 0.950 . S
C2830 C2829 1.397 . S
C2830 C2831 1.334 . S
C2831 H2808 0.950 . S
C2831 C2830 1.334 . S
C2831 C2832 1.287 . S
C2832 C2831 1.287 . S
C2832 C2833 1.524 . S
C2832 H2851 0.913 . S
C2833 H2809 0.950 . S
C2833 C2832 1.524 . S
C2833 C2834 1.415 . S
C2834 H2810 0.950 . S
C2834 C2829 1.363 . S
C2834 C2833 1.415 . S
C2835 H2811 0.951 . S
C2835 C2836 1.366 . S
C2835 C2837 1.388 . S
C2836 C2835 1.366 . S
C2836 C2840 1.385 . S
C2837 H2812 0.951 . S
C2837 C2835 1.388 . S
C2837 C2838 1.366 . S
C2838 C2837 1.366 . S
C2838 C2839 1.414 . S
C2838 C2841 1.499 . S
C2839 H2813 0.950 . S
C2839 C2838 1.414 . S
C2839 C2840 1.374 . S
C2840 H2814 0.950 . S
C2840 C2836 1.385 . S
C2840 C2839 1.374 . S
C2841 C2838 1.499 . S
C2841 C2842 1.373 . S
C2841 C2843 1.389 . S
C2842 H2815 0.950 . S
C2842 C2828 1.377 . S
C2842 C2841 1.373 . S
C2843 C2827 1.377 . S
C2843 C2841 1.389 . S
C2843 C2844 1.524 1_455 S
C2844 C2843 1.524 1_655 S
C2844 C2845 1.397 . S
C2844 C2849 1.363 . S
C2845 H2816 0.950 . S
C2845 C2844 1.397 . S
C2845 C2846 1.334 . S
C2846 H2817 0.950 . S
C2846 C2845 1.334 . S
C2846 C2847 1.287 . S
C2847 C2846 1.287 . S
C2847 C2848 1.524 . S
C2847 H2850 0.999 . S
C2848 H2818 0.950 . S
C2848 C2847 1.524 . S
C2848 C2849 1.415 . S
C2849 H2819 0.950 . S
C2849 C2844 1.363 . S
C2849 C2848 1.415 . S
H2850 C2847 0.999 . S
H2851 C2832 0.913 . S
H2852 C2870 0.951 . S
H2853 C2872 0.951 . S
H2854 C2874 0.950 . S
H2855 C2875 0.950 . S
H2856 C2877 0.950 . S
H2857 C2880 0.950 . S
H2858 C2881 0.950 . S
H2859 C2883 0.950 . S
H2860 C2884 0.950 . S
H2861 C2885 0.951 . S
H2862 C2887 0.951 . S
H2863 C2889 0.950 . S
H2864 C2890 0.950 . S
H2865 C2892 0.950 . S
H2866 C2895 0.950 . S
H2867 C2896 0.950 . S
H2868 C2898 0.950 . S
H2869 C2899 0.950 . S
C2870 H2852 0.951 . S
C2870 C2871 1.366 . S
C2870 C2872 1.388 . S
C2871 C2870 1.366 . S
C2871 C2875 1.385 . S
C2872 H2853 0.951 . S
C2872 C2870 1.388 . S
C2872 C2873 1.366 . S
C2873 C2872 1.366 . S
C2873 C2874 1.414 . S
C2873 C2876 1.499 . S
C2874 H2854 0.950 . S
C2874 C2873 1.414 . S
C2874 C2875 1.374 . S
C2875 H2855 0.950 . S
C2875 C2871 1.385 . S
C2875 C2874 1.374 . S
C2876 C2873 1.499 . S
C2876 C2877 1.373 . S
C2876 C2878 1.389 . S
C2877 H2856 0.950 . S
C2877 C2876 1.373 . S
C2877 C2893 1.377 . S
C2878 C2876 1.389 . S
C2878 C2879 1.524 . S
C2878 C2892 1.377 . S
C2879 C2878 1.524 . S
C2879 C2880 1.397 . S
C2879 C2884 1.363 . S
C2880 H2857 0.950 . S
C2880 C2879 1.397 . S
C2880 C2881 1.334 . S
C2881 H2858 0.950 . S
C2881 C2880 1.334 . S
C2881 C2882 1.287 . S
C2882 C2881 1.287 . S
C2882 C2883 1.524 . S
C2882 H2901 0.913 . S
C2883 H2859 0.950 . S
C2883 C2882 1.524 . S
C2883 C2884 1.415 . S
C2884 H2860 0.950 . S
C2884 C2879 1.363 . S
C2884 C2883 1.415 . S
C2885 H2861 0.951 . S
C2885 C2886 1.366 . S
C2885 C2887 1.388 . S
C2886 C2885 1.366 . S
C2886 C2890 1.385 . S
C2887 H2862 0.951 . S
C2887 C2885 1.388 . S
C2887 C2888 1.366 . S
C2888 C2887 1.366 . S
C2888 C2889 1.414 . S
C2888 C2891 1.499 . S
C2889 H2863 0.950 . S
C2889 C2888 1.414 . S
C2889 C2890 1.374 . S
C2890 H2864 0.950 . S
C2890 C2886 1.385 . S
C2890 C2889 1.374 . S
C2891 C2888 1.499 . S
C2891 C2892 1.373 . S
C2891 C2893 1.389 . S
C2892 H2865 0.950 . S
C2892 C2878 1.377 . S
C2892 C2891 1.373 . S
C2893 C2877 1.377 . S
C2893 C2891 1.389 . S
C2893 C2894 1.524 . S
C2894 C2893 1.524 . S
C2894 C2895 1.397 . S
C2894 C2899 1.363 . S
C2895 H2866 0.950 . S
C2895 C2894 1.397 . S
C2895 C2896 1.334 . S
C2896 H2867 0.950 . S
C2896 C2895 1.334 . S
C2896 C2897 1.287 . S
C2897 C2896 1.287 . S
C2897 C2898 1.524 . S
C2897 H2900 0.999 . S
C2898 H2868 0.950 . S
C2898 C2897 1.524 . S
C2898 C2899 1.415 . S
C2899 H2869 0.950 . S
C2899 C2894 1.363 . S
C2899 C2898 1.415 . S
H2900 C2897 0.999 . S
H2901 C2882 0.913 . S
H2902 C2920 0.951 . S
H2903 C2922 0.951 . S
H2904 C2924 0.950 . S
H2905 C2925 0.950 . S
H2906 C2927 0.950 . S
H2907 C2930 0.950 . S
H2908 C2931 0.950 . S
H2909 C2933 0.950 . S
H2910 C2934 0.950 . S
H2911 C2935 0.951 . S
H2912 C2937 0.951 . S
H2913 C2939 0.950 . S
H2914 C2940 0.950 . S
H2915 C2942 0.950 . S
H2916 C2945 0.950 . S
H2917 C2946 0.950 . S
H2918 C2948 0.950 . S
H2919 C2949 0.950 . S
C2920 H2902 0.951 . S
C2920 C2921 1.366 . S
C2920 C2922 1.388 . S
C2921 C2920 1.366 . S
C2921 C2925 1.385 1_455 S
C2922 H2903 0.951 . S
C2922 C2920 1.388 . S
C2922 C2923 1.366 . S
C2923 C2922 1.366 . S
C2923 C2924 1.414 1_455 S
C2923 C2926 1.499 . S
C2924 H2904 0.950 . S
C2924 C2923 1.414 1_655 S
C2924 C2925 1.374 . S
C2925 H2905 0.950 . S
C2925 C2921 1.385 1_655 S
C2925 C2924 1.374 . S
C2926 C2923 1.499 . S
C2926 C2927 1.373 1_455 S
C2926 C2928 1.389 . S
C2927 H2906 0.950 . S
C2927 C2926 1.373 1_655 S
C2927 C2943 1.377 . S
C2928 C2926 1.389 . S
C2928 C2929 1.524 . S
C2928 C2942 1.377 . S
C2929 C2928 1.524 . S
C2929 C2930 1.397 . S
C2929 C2934 1.363 . S
C2930 H2907 0.950 . S
C2930 C2929 1.397 . S
C2930 C2931 1.334 . S
C2931 H2908 0.950 . S
C2931 C2930 1.334 . S
C2931 C2932 1.287 . S
C2932 C2931 1.287 . S
C2932 C2933 1.524 . S
C2932 H2951 0.913 . S
C2933 H2909 0.950 . S
C2933 C2932 1.524 . S
C2933 C2934 1.415 . S
C2934 H2910 0.950 . S
C2934 C2929 1.363 . S
C2934 C2933 1.415 . S
C2935 H2911 0.951 . S
C2935 C2936 1.367 . S
C2935 C2937 1.388 . S
C2936 C2935 1.367 . S
C2936 C2940 1.384 1_655 S
C2937 H2912 0.951 . S
C2937 C2935 1.388 . S
C2937 C2938 1.360 1_655 S
C2938 C2937 1.360 1_455 S
C2938 C2939 1.419 . S
C2938 C2941 1.500 . S
C2939 H2913 0.950 . S
C2939 C2938 1.419 . S
C2939 C2940 1.374 . S
C2940 H2914 0.950 . S
C2940 C2936 1.384 1_455 S
C2940 C2939 1.374 . S
C2941 C2938 1.500 . S
C2941 C2942 1.373 . S
C2941 C2943 1.389 1_455 S
C2942 H2915 0.950 . S
C2942 C2928 1.377 . S
C2942 C2941 1.373 . S
C2943 C2927 1.377 . S
C2943 C2941 1.389 1_655 S
C2943 C2944 1.524 . S
C2944 C2943 1.524 . S
C2944 C2945 1.397 . S
C2944 C2949 1.363 . S
C2945 H2916 0.950 . S
C2945 C2944 1.397 . S
C2945 C2946 1.334 . S
C2946 H2917 0.950 . S
C2946 C2945 1.334 . S
C2946 C2947 1.287 . S
C2947 C2946 1.287 . S
C2947 C2948 1.524 . S
C2947 H2950 0.999 . S
C2948 H2918 0.950 . S
C2948 C2947 1.524 . S
C2948 C2949 1.415 . S
C2949 H2919 0.950 . S
C2949 C2944 1.363 . S
C2949 C2948 1.415 . S
H2950 C2947 0.999 . S
H2951 C2932 0.913 . S
H2952 C2970 0.951 . S
H2953 C2972 0.951 . S
H2954 C2974 0.950 . S
H2955 C2975 0.950 . S
H2956 C2977 0.950 . S
H2957 C2980 0.950 . S
H2958 C2981 0.950 . S
H2959 C2983 0.950 . S
H2960 C2984 0.950 . S
H2961 C2985 0.951 . S
H2962 C2987 0.951 . S
H2963 C2989 0.950 . S
H2964 C2990 0.950 . S
H2965 C2992 0.950 . S
H2966 C2995 0.950 . S
H2967 C2996 0.950 . S
H2968 C2998 0.950 . S
H2969 C2999 0.950 . S
C2970 H2952 0.951 . S
C2970 C2971 1.366 . S
C2970 C2972 1.388 . S
C2971 C2970 1.366 . S
C2971 C2975 1.385 . S
C2972 H2953 0.951 . S
C2972 C2970 1.388 . S
C2972 C2973 1.366 . S
C2973 C2972 1.366 . S
C2973 C2974 1.414 . S
C2973 C2976 1.499 . S
C2974 H2954 0.950 . S
C2974 C2973 1.414 . S
C2974 C2975 1.374 . S
C2975 H2955 0.950 . S
C2975 C2971 1.385 . S
C2975 C2974 1.374 . S
C2976 C2973 1.499 . S
C2976 C2977 1.373 . S
C2976 C2978 1.389 . S
C2977 H2956 0.950 . S
C2977 C2976 1.373 . S
C2977 C2993 1.377 . S
C2978 C2976 1.389 . S
C2978 C2979 1.524 . S
C2978 C2992 1.377 . S
C2979 C2978 1.524 . S
C2979 C2980 1.397 . S
C2979 C2984 1.363 . S
C2980 H2957 0.950 . S
C2980 C2979 1.397 . S
C2980 C2981 1.334 . S
C2981 H2958 0.950 . S
C2981 C2980 1.334 . S
C2981 C2982 1.287 . S
C2982 C2981 1.287 . S
C2982 C2983 1.524 . S
C2982 H3001 0.913 . S
C2983 H2959 0.950 . S
C2983 C2982 1.524 . S
C2983 C2984 1.415 . S
C2984 H2960 0.950 . S
C2984 C2979 1.363 . S
C2984 C2983 1.415 . S
C2985 H2961 0.951 . S
C2985 C2986 1.366 . S
C2985 C2987 1.388 . S
C2986 C2985 1.366 . S
C2986 C2990 1.385 . S
C2987 H2962 0.951 . S
C2987 C2985 1.388 . S
C2987 C2988 1.366 . S
C2988 C2987 1.366 . S
C2988 C2989 1.414 . S
C2988 C2991 1.499 . S
C2989 H2963 0.950 . S
C2989 C2988 1.414 . S
C2989 C2990 1.374 . S
C2990 H2964 0.950 . S
C2990 C2986 1.385 . S
C2990 C2989 1.374 . S
C2991 C2988 1.499 . S
C2991 C2992 1.373 . S
C2991 C2993 1.389 . S
C2992 H2965 0.950 . S
C2992 C2978 1.377 . S
C2992 C2991 1.373 . S
C2993 C2977 1.377 . S
C2993 C2991 1.389 . S
C2993 C2994 1.524 . S
C2994 C2993 1.524 . S
C2994 C2995 1.397 . S
C2994 C2999 1.363 . S
C2995 H2966 0.950 . S
C2995 C2994 1.397 . S
C2995 C2996 1.334 . S
C2996 H2967 0.950 . S
C2996 C2995 1.334 . S
C2996 C2997 1.287 . S
C2997 C2996 1.287 . S
C2997 C2998 1.524 . S
C2997 H3000 0.999 . S
C2998 H2968 0.950 . S
C2998 C2997 1.524 . S
C2998 C2999 1.415 . S
C2999 H2969 0.950 . S
C2999 C2994 1.363 . S
C2999 C2998 1.415 . S
H3000 C2997 0.999 . S
H3001 C2982 0.913 . S
H3002 C3020 0.951 . S
H3003 C3022 0.951 . S
H3004 C3024 0.950 . S
H3005 C3025 0.950 . S
H3006 C3027 0.950 . S
H3007 C3030 0.950 . S
H3008 C3031 0.950 . S
H3009 C3033 0.950 . S
H3010 C3034 0.950 . S
H3011 C3035 0.951 . S
H3012 C3037 0.951 . S
H3013 C3039 0.950 . S
H3014 C3040 0.950 . S
H3015 C3042 0.950 . S
H3016 C3045 0.950 . S
H3017 C3046 0.950 . S
H3018 C3048 0.950 . S
H3019 C3049 0.950 . S
C3020 H3002 0.951 . S
C3020 C3021 1.366 . S
C3020 C3022 1.388 . S
C3021 C3020 1.366 . S
C3021 C3025 1.385 . S
C3022 H3003 0.951 . S
C3022 C3020 1.388 . S
C3022 C3023 1.366 . S
C3023 C3022 1.366 . S
C3023 C3024 1.414 . S
C3023 C3026 1.499 . S
C3024 H3004 0.950 . S
C3024 C3023 1.414 . S
C3024 C3025 1.374 . S
C3025 H3005 0.950 . S
C3025 C3021 1.385 . S
C3025 C3024 1.374 . S
C3026 C3023 1.499 . S
C3026 C3027 1.373 . S
C3026 C3028 1.389 . S
C3027 H3006 0.950 . S
C3027 C3026 1.373 . S
C3027 C3043 1.377 . S
C3028 C3026 1.389 . S
C3028 C3029 1.524 . S
C3028 C3042 1.377 . S
C3029 C3028 1.524 . S
C3029 C3030 1.397 . S
C3029 C3034 1.363 . S
C3030 H3007 0.950 . S
C3030 C3029 1.397 . S
C3030 C3031 1.334 . S
C3031 H3008 0.950 . S
C3031 C3030 1.334 . S
C3031 C3032 1.287 . S
C3032 C3031 1.287 . S
C3032 C3033 1.524 . S
C3032 H3051 0.913 . S
C3033 H3009 0.950 . S
C3033 C3032 1.524 . S
C3033 C3034 1.415 . S
C3034 H3010 0.950 . S
C3034 C3029 1.363 . S
C3034 C3033 1.415 . S
C3035 H3011 0.951 . S
C3035 C3036 1.366 . S
C3035 C3037 1.388 . S
C3036 C3035 1.366 . S
C3036 C3040 1.385 . S
C3037 H3012 0.951 . S
C3037 C3035 1.388 . S
C3037 C3038 1.366 . S
C3038 C3037 1.366 . S
C3038 C3039 1.414 . S
C3038 C3041 1.499 . S
C3039 H3013 0.950 . S
C3039 C3038 1.414 . S
C3039 C3040 1.374 . S
C3040 H3014 0.950 . S
C3040 C3036 1.385 . S
C3040 C3039 1.374 . S
C3041 C3038 1.499 . S
C3041 C3042 1.373 . S
C3041 C3043 1.389 . S
C3042 H3015 0.950 . S
C3042 C3028 1.377 . S
C3042 C3041 1.373 . S
C3043 C3027 1.377 . S
C3043 C3041 1.389 . S
C3043 C3044 1.524 . S
C3044 C3043 1.524 . S
C3044 C3045 1.397 . S
C3044 C3049 1.363 . S
C3045 H3016 0.950 . S
C3045 C3044 1.397 . S
C3045 C3046 1.334 . S
C3046 H3017 0.950 . S
C3046 C3045 1.334 . S
C3046 C3047 1.287 . S
C3047 C3046 1.287 . S
C3047 C3048 1.524 . S
C3047 H3050 0.999 . S
C3048 H3018 0.950 . S
C3048 C3047 1.524 . S
C3048 C3049 1.415 . S
C3049 H3019 0.950 . S
C3049 C3044 1.363 . S
C3049 C3048 1.415 . S
H3050 C3047 0.999 . S
H3051 C3032 0.913 . S
H3052 C3070 0.951 . S
H3053 C3072 0.951 . S
H3054 C3074 0.950 . S
H3055 C3075 0.950 . S
H3056 C3077 0.950 . S
H3057 C3080 0.950 . S
H3058 C3081 0.950 . S
H3059 C3083 0.950 . S
H3060 C3084 0.950 . S
H3061 C3085 0.951 . S
H3062 C3087 0.951 . S
H3063 C3089 0.950 1_565 S
H3064 C3090 0.950 . S
H3065 C3092 0.950 . S
H3066 C3095 0.950 . S
H3067 C3096 0.950 . S
H3068 C3098 0.950 . S
H3069 C3099 0.950 . S
C3070 H3052 0.951 . S
C3070 C3071 1.366 1_565 S
C3070 C3072 1.388 . S
C3071 C3070 1.366 1_545 S
C3071 C3075 1.385 . S
C3072 H3053 0.951 . S
C3072 C3070 1.388 . S
C3072 C3073 1.366 1_565 S
C3073 C3072 1.366 1_545 S
C3073 C3074 1.414 . S
C3073 C3076 1.499 . S
C3074 H3054 0.950 . S
C3074 C3073 1.414 . S
C3074 C3075 1.374 . S
C3075 H3055 0.950 . S
C3075 C3071 1.385 . S
C3075 C3074 1.374 . S
C3076 C3073 1.499 . S
C3076 C3077 1.373 . S
C3076 C3078 1.389 1_545 S
C3077 H3056 0.950 . S
C3077 C3076 1.373 . S
C3077 C3093 1.377 . S
C3078 C3076 1.389 1_565 S
C3078 C3079 1.524 . S
C3078 C3092 1.377 . S
C3079 C3078 1.524 . S
C3079 C3080 1.397 . S
C3079 C3084 1.363 . S
C3080 H3057 0.950 . S
C3080 C3079 1.397 . S
C3080 C3081 1.334 . S
C3081 H3058 0.950 . S
C3081 C3080 1.334 . S
C3081 C3082 1.287 . S
C3082 C3081 1.287 . S
C3082 C3083 1.524 . S
C3082 H3101 0.913 . S
C3083 H3059 0.950 . S
C3083 C3082 1.524 . S
C3083 C3084 1.415 . S
C3084 H3060 0.950 . S
C3084 C3079 1.363 . S
C3084 C3083 1.415 . S
C3085 H3061 0.951 . S
C3085 C3086 1.366 . S
C3085 C3087 1.388 . S
C3086 C3085 1.366 . S
C3086 C3090 1.385 . S
C3087 H3062 0.951 . S
C3087 C3085 1.388 . S
C3087 C3088 1.366 . S
C3088 C3087 1.366 . S
C3088 C3089 1.414 . S
C3088 C3091 1.499 . S
C3089 H3063 0.950 1_545 S
C3089 C3088 1.414 . S
C3089 C3090 1.374 . S
C3090 H3064 0.950 . S
C3090 C3086 1.385 . S
C3090 C3089 1.374 . S
C3091 C3088 1.499 . S
C3091 C3092 1.373 1_545 S
C3091 C3093 1.389 . S
C3092 H3065 0.950 . S
C3092 C3078 1.377 . S
C3092 C3091 1.373 1_565 S
C3093 C3077 1.377 . S
C3093 C3091 1.389 . S
C3093 C3094 1.524 . S
C3094 C3093 1.524 . S
C3094 C3095 1.397 . S
C3094 C3099 1.363 . S
C3095 H3066 0.950 . S
C3095 C3094 1.397 . S
C3095 C3096 1.334 . S
C3096 H3067 0.950 . S
C3096 C3095 1.334 . S
C3096 C3097 1.287 . S
C3097 C3096 1.287 . S
C3097 C3098 1.524 . S
C3097 H3100 0.999 . S
C3098 H3068 0.950 . S
C3098 C3097 1.524 . S
C3098 C3099 1.415 . S
C3099 H3069 0.950 . S
C3099 C3094 1.363 . S
C3099 C3098 1.415 . S
H3100 C3097 0.999 . S
H3101 C3082 0.913 . S
H3102 C3120 0.951 . S
H3103 C3122 0.951 . S
H3104 C3124 0.950 . S
H3105 C3125 0.950 . S
H3106 C3127 0.950 . S
H3107 C3130 0.950 . S
H3108 C3131 0.950 . S
H3109 C3133 0.950 . S
H3110 C3134 0.950 . S
H3111 C3135 0.951 . S
H3112 C3137 0.951 . S
H3113 C3139 0.950 . S
H3114 C3140 0.950 . S
H3115 C3142 0.950 1_545 S
H3116 C3145 0.950 . S
H3117 C3146 0.950 . S
H3118 C3148 0.950 . S
H3119 C3149 0.950 . S
C3120 H3102 0.951 . S
C3120 C3121 1.366 1_545 S
C3120 C3122 1.388 . S
C3121 C3120 1.366 1_565 S
C3121 C3125 1.385 . S
C3122 H3103 0.951 . S
C3122 C3120 1.388 . S
C3122 C3123 1.366 1_545 S
C3123 C3122 1.366 1_565 S
C3123 C3124 1.414 . S
C3123 C3126 1.499 . S
C3124 H3104 0.950 . S
C3124 C3123 1.414 . S
C3124 C3125 1.374 . S
C3125 H3105 0.950 . S
C3125 C3121 1.385 . S
C3125 C3124 1.374 . S
C3126 C3123 1.499 . S
C3126 C3127 1.373 . S
C3126 C3128 1.389 . S
C3127 H3106 0.950 . S
C3127 C3126 1.373 . S
C3127 C3143 1.377 . S
C3128 C3126 1.389 . S
C3128 C3129 1.524 1_565 S
C3128 C3142 1.377 . S
C3129 C3128 1.524 1_545 S
C3129 C3130 1.397 . S
C3129 C3134 1.363 . S
C3130 H3107 0.950 . S
C3130 C3129 1.397 . S
C3130 C3131 1.334 . S
C3131 H3108 0.950 . S
C3131 C3130 1.334 . S
C3131 C3132 1.287 . S
C3132 C3131 1.287 . S
C3132 C3133 1.524 . S
C3132 H3151 0.913 . S
C3133 H3109 0.950 . S
C3133 C3132 1.524 . S
C3133 C3134 1.415 . S
C3134 H3110 0.950 . S
C3134 C3129 1.363 . S
C3134 C3133 1.415 . S
C3135 H3111 0.951 . S
C3135 C3136 1.366 . S
C3135 C3137 1.388 . S
C3136 C3135 1.366 . S
C3136 C3140 1.385 . S
C3137 H3112 0.951 . S
C3137 C3135 1.388 . S
C3137 C3138 1.366 . S
C3138 C3137 1.366 . S
C3138 C3139 1.414 . S
C3138 C3141 1.499 . S
C3139 H3113 0.950 . S
C3139 C3138 1.414 . S
C3139 C3140 1.374 . S
C3140 H3114 0.950 . S
C3140 C3136 1.385 . S
C3140 C3139 1.374 . S
C3141 C3138 1.499 . S
C3141 C3142 1.373 . S
C3141 C3143 1.389 . S
C3142 H3115 0.950 1_565 S
C3142 C3128 1.377 . S
C3142 C3141 1.373 . S
C3143 C3127 1.377 . S
C3143 C3141 1.389 . S
C3143 C3144 1.524 . S
C3144 C3143 1.524 . S
C3144 C3145 1.397 . S
C3144 C3149 1.363 . S
C3145 H3116 0.950 . S
C3145 C3144 1.397 . S
C3145 C3146 1.334 . S
C3146 H3117 0.950 . S
C3146 C3145 1.334 . S
C3146 C3147 1.287 . S
C3147 C3146 1.287 . S
C3147 C3148 1.524 . S
C3147 H3150 0.999 . S
C3148 H3118 0.950 . S
C3148 C3147 1.524 . S
C3148 C3149 1.415 . S
C3149 H3119 0.950 . S
C3149 C3144 1.363 . S
C3149 C3148 1.415 . S
H3150 C3147 0.999 . S
H3151 C3132 0.913 . S
H3152 C3170 0.951 . S
H3153 C3172 0.951 . S
H3154 C3174 0.950 . S
H3155 C3175 0.950 . S
H3156 C3177 0.950 . S
H3157 C3180 0.950 . S
H3158 C3181 0.950 . S
H3159 C3183 0.950 . S
H3160 C3184 0.950 . S
H3161 C3185 0.951 . S
H3162 C3187 0.951 . S
H3163 C3189 0.950 . S
H3164 C3190 0.950 . S
H3165 C3192 0.950 . S
H3166 C3195 0.950 . S
H3167 C3196 0.950 . S
H3168 C3198 0.950 . S
H3169 C3199 0.950 . S
C3170 H3152 0.951 . S
C3170 C3171 1.366 . S
C3170 C3172 1.388 . S
C3171 C3170 1.366 . S
C3171 C3175 1.385 . S
C3172 H3153 0.951 . S
C3172 C3170 1.388 . S
C3172 C3173 1.366 . S
C3173 C3172 1.366 . S
C3173 C3174 1.414 . S
C3173 C3176 1.499 . S
C3174 H3154 0.950 . S
C3174 C3173 1.414 . S
C3174 C3175 1.374 . S
C3175 H3155 0.950 . S
C3175 C3171 1.385 . S
C3175 C3174 1.374 . S
C3176 C3173 1.499 . S
C3176 C3177 1.373 . S
C3176 C3178 1.389 . S
C3177 H3156 0.950 . S
C3177 C3176 1.373 . S
C3177 C3193 1.377 . S
C3178 C3176 1.389 . S
C3178 C3179 1.524 . S
C3178 C3192 1.377 . S
C3179 C3178 1.524 . S
C3179 C3180 1.397 . S
C3179 C3184 1.363 . S
C3180 H3157 0.950 . S
C3180 C3179 1.397 . S
C3180 C3181 1.334 . S
C3181 H3158 0.950 . S
C3181 C3180 1.334 . S
C3181 C3182 1.287 . S
C3182 C3181 1.287 . S
C3182 C3183 1.524 . S
C3182 H3201 0.913 . S
C3183 H3159 0.950 . S
C3183 C3182 1.524 . S
C3183 C3184 1.415 . S
C3184 H3160 0.950 . S
C3184 C3179 1.363 . S
C3184 C3183 1.415 . S
C3185 H3161 0.951 . S
C3185 C3186 1.366 . S
C3185 C3187 1.388 . S
C3186 C3185 1.366 . S
C3186 C3190 1.385 . S
C3187 H3162 0.951 . S
C3187 C3185 1.388 . S
C3187 C3188 1.366 . S
C3188 C3187 1.366 . S
C3188 C3189 1.414 . S
C3188 C3191 1.499 . S
C3189 H3163 0.950 . S
C3189 C3188 1.414 . S
C3189 C3190 1.374 . S
C3190 H3164 0.950 . S
C3190 C3186 1.385 . S
C3190 C3189 1.374 . S
C3191 C3188 1.499 . S
C3191 C3192 1.373 . S
C3191 C3193 1.389 . S
C3192 H3165 0.950 . S
C3192 C3178 1.377 . S
C3192 C3191 1.373 . S
C3193 C3177 1.377 . S
C3193 C3191 1.389 . S
C3193 C3194 1.524 . S
C3194 C3193 1.524 . S
C3194 C3195 1.397 . S
C3194 C3199 1.363 . S
C3195 H3166 0.950 . S
C3195 C3194 1.397 . S
C3195 C3196 1.334 . S
C3196 H3167 0.950 . S
C3196 C3195 1.334 . S
C3196 C3197 1.287 . S
C3197 C3196 1.287 . S
C3197 C3198 1.524 . S
C3197 H3200 0.999 . S
C3198 H3168 0.950 . S
C3198 C3197 1.524 . S
C3198 C3199 1.415 . S
C3199 H3169 0.950 . S
C3199 C3194 1.363 . S
C3199 C3198 1.415 . S
H3200 C3197 0.999 . S
H3201 C3182 0.913 . S
H3202 C3220 0.951 . S
H3203 C3222 0.951 . S
H3204 C3224 0.950 . S
H3205 C3225 0.950 . S
H3206 C3227 0.950 1_554 S
H3207 C3230 0.950 . S
H3208 C3231 0.950 . S
H3209 C3233 0.950 . S
H3210 C3234 0.950 . S
H3211 C3235 0.951 . S
H3212 C3237 0.951 . S
H3213 C3239 0.950 . S
H3214 C3240 0.950 . S
H3215 C3242 0.950 . S
H3216 C3245 0.950 1_556 S
H3217 C3246 0.950 . S
H3218 C3248 0.950 . S
H3219 C3249 0.950 . S
C3220 H3202 0.951 . S
C3220 C3221 1.366 . S
C3220 C3222 1.388 . S
C3221 C3220 1.366 . S
C3221 C3225 1.385 1_556 S
C3222 H3203 0.951 . S
C3222 C3220 1.388 . S
C3222 C3223 1.366 . S
C3223 C3222 1.366 . S
C3223 C3224 1.414 1_556 S
C3223 C3226 1.499 . S
C3224 H3204 0.950 . S
C3224 C3223 1.414 1_554 S
C3224 C3225 1.374 . S
C3225 H3205 0.950 . S
C3225 C3221 1.385 1_554 S
C3225 C3224 1.374 . S
C3226 C3223 1.499 . S
C3226 C3227 1.373 . S
C3226 C3228 1.389 . S
C3227 H3206 0.950 1_556 S
C3227 C3226 1.373 . S
C3227 C3243 1.377 . S
C3228 C3226 1.389 . S
C3228 C3229 1.524 . S
C3228 C3242 1.377 . S
C3229 C3228 1.524 . S
C3229 C3230 1.397 . S
C3229 C3234 1.363 . S
C3230 H3207 0.950 . S
C3230 C3229 1.397 . S
C3230 C3231 1.334 . S
C3231 H3208 0.950 . S
C3231 C3230 1.334 . S
C3231 C3232 1.287 . S
C3232 C3231 1.287 . S
C3232 C3233 1.524 . S
C3232 H3251 0.913 . S
C3233 H3209 0.950 . S
C3233 C3232 1.524 . S
C3233 C3234 1.415 . S
C3234 H3210 0.950 . S
C3234 C3229 1.363 . S
C3234 C3233 1.415 . S
C3235 H3211 0.951 . S
C3235 C3236 1.366 . S
C3235 C3237 1.388 . S
C3236 C3235 1.366 . S
C3236 C3240 1.385 . S
C3237 H3212 0.951 . S
C3237 C3235 1.388 . S
C3237 C3238 1.366 . S
C3238 C3237 1.366 . S
C3238 C3239 1.414 . S
C3238 C3241 1.499 . S
C3239 H3213 0.950 . S
C3239 C3238 1.414 . S
C3239 C3240 1.374 . S
C3240 H3214 0.950 . S
C3240 C3236 1.385 . S
C3240 C3239 1.374 . S
C3241 C3238 1.499 . S
C3241 C3242 1.373 . S
C3241 C3243 1.389 . S
C3242 H3215 0.950 . S
C3242 C3228 1.377 . S
C3242 C3241 1.373 . S
C3243 C3227 1.377 . S
C3243 C3241 1.389 . S
C3243 C3244 1.524 1_556 S
C3244 C3243 1.524 1_554 S
C3244 C3245 1.397 . S
C3244 C3249 1.363 . S
C3245 H3216 0.950 1_554 S
C3245 C3244 1.397 . S
C3245 C3246 1.334 . S
C3246 H3217 0.950 . S
C3246 C3245 1.334 . S
C3246 C3247 1.287 . S
C3247 C3246 1.287 . S
C3247 C3248 1.524 . S
C3247 H3250 0.999 . S
C3248 H3218 0.950 . S
C3248 C3247 1.524 . S
C3248 C3249 1.415 . S
C3249 H3219 0.950 . S
C3249 C3244 1.363 . S
C3249 C3248 1.415 . S
H3250 C3247 0.999 . S
H3251 C3232 0.913 . S
H3252 C3270 0.951 . S
H3253 C3272 0.951 . S
H3254 C3274 0.950 . S
H3255 C3275 0.950 . S
H3256 C3277 0.950 . S
H3257 C3280 0.950 . S
H3258 C3281 0.950 . S
H3259 C3283 0.950 . S
H3260 C3284 0.950 . S
H3261 C3285 0.951 . S
H3262 C3287 0.951 . S
H3263 C3289 0.950 . S
H3264 C3290 0.950 . S
H3265 C3292 0.950 . S
H3266 C3295 0.950 . S
H3267 C3296 0.950 . S
H3268 C3298 0.950 . S
H3269 C3299 0.950 . S
C3270 H3252 0.951 . S
C3270 C3271 1.366 . S
C3270 C3272 1.388 . S
C3271 C3270 1.366 . S
C3271 C3275 1.385 . S
C3272 H3253 0.951 . S
C3272 C3270 1.388 . S
C3272 C3273 1.366 . S
C3273 C3272 1.366 . S
C3273 C3274 1.414 . S
C3273 C3276 1.499 . S
C3274 H3254 0.950 . S
C3274 C3273 1.414 . S
C3274 C3275 1.374 . S
C3275 H3255 0.950 . S
C3275 C3271 1.385 . S
C3275 C3274 1.374 . S
C3276 C3273 1.499 . S
C3276 C3277 1.373 . S
C3276 C3278 1.389 . S
C3277 H3256 0.950 . S
C3277 C3276 1.373 . S
C3277 C3293 1.377 . S
C3278 C3276 1.389 . S
C3278 C3279 1.524 . S
C3278 C3292 1.377 . S
C3279 C3278 1.524 . S
C3279 C3280 1.397 . S
C3279 C3284 1.363 . S
C3280 H3257 0.950 . S
C3280 C3279 1.397 . S
C3280 C3281 1.334 . S
C3281 H3258 0.950 . S
C3281 C3280 1.334 . S
C3281 C3282 1.287 . S
C3282 C3281 1.287 . S
C3282 C3283 1.524 . S
C3282 H3301 0.913 . S
C3283 H3259 0.950 . S
C3283 C3282 1.524 . S
C3283 C3284 1.415 . S
C3284 H3260 0.950 . S
C3284 C3279 1.363 . S
C3284 C3283 1.415 . S
C3285 H3261 0.951 . S
C3285 C3286 1.366 . S
C3285 C3287 1.388 . S
C3286 C3285 1.366 . S
C3286 C3290 1.385 . S
C3287 H3262 0.951 . S
C3287 C3285 1.388 . S
C3287 C3288 1.366 . S
C3288 C3287 1.366 . S
C3288 C3289 1.414 . S
C3288 C3291 1.499 . S
C3289 H3263 0.950 . S
C3289 C3288 1.414 . S
C3289 C3290 1.374 . S
C3290 H3264 0.950 . S
C3290 C3286 1.385 . S
C3290 C3289 1.374 . S
C3291 C3288 1.499 . S
C3291 C3292 1.373 . S
C3291 C3293 1.389 . S
C3292 H3265 0.950 . S
C3292 C3278 1.377 . S
C3292 C3291 1.373 . S
C3293 C3277 1.377 . S
C3293 C3291 1.389 . S
C3293 C3294 1.524 . S
C3294 C3293 1.524 . S
C3294 C3295 1.397 . S
C3294 C3299 1.363 . S
C3295 H3266 0.950 . S
C3295 C3294 1.397 . S
C3295 C3296 1.334 . S
C3296 H3267 0.950 . S
C3296 C3295 1.334 . S
C3296 C3297 1.287 . S
C3297 C3296 1.287 . S
C3297 C3298 1.524 . S
C3297 H3300 0.999 . S
C3298 H3268 0.950 . S
C3298 C3297 1.524 . S
C3298 C3299 1.415 . S
C3299 H3269 0.950 . S
C3299 C3294 1.363 . S
C3299 C3298 1.415 . S
H3300 C3297 0.999 . S
H3301 C3282 0.913 . S
H3302 C3320 0.951 . S
H3303 C3322 0.951 . S
H3304 C3324 0.950 . S
H3305 C3325 0.950 . S
H3306 C3327 0.950 . S
H3307 C3330 0.950 . S
H3308 C3331 0.950 . S
H3309 C3333 0.950 . S
H3310 C3334 0.950 . S
H3311 C3335 0.951 1_556 S
H3312 C3337 0.983 . S
H3313 C3339 0.950 . S
H3314 C3340 0.950 . S
H3315 C3342 0.950 . S
H3316 C3345 0.985 . S
H3317 C3346 0.952 . S
H3318 C3348 0.950 . S
H3319 C3349 0.950 . S
C3320 H3302 0.951 . S
C3320 C3321 1.366 . S
C3320 C3322 1.388 . S
C3321 C3320 1.366 . S
C3321 C3325 1.385 1_554 S
C3322 H3303 0.951 . S
C3322 C3320 1.388 . S
C3322 C3323 1.366 . S
C3323 C3322 1.366 . S
C3323 C3324 1.414 1_554 S
C3323 C3326 1.499 . S
C3324 H3304 0.950 . S
C3324 C3323 1.414 1_556 S
C3324 C3325 1.374 . S
C3325 H3305 0.950 . S
C3325 C3321 1.385 1_556 S
C3325 C3324 1.374 . S
C3326 C3323 1.499 . S
C3326 C3327 1.373 1_554 S
C3326 C3328 1.389 . S
C3327 H3306 0.950 . S
C3327 C3326 1.373 1_556 S
C3327 C3343 1.376 1_556 S
C3328 C3326 1.389 . S
C3328 C3329 1.524 . S
C3328 C3342 1.377 . S
C3329 C3328 1.524 . S
C3329 C3330 1.397 . S
C3329 C3334 1.363 . S
C3330 H3307 0.950 . S
C3330 C3329 1.397 . S
C3330 C3331 1.334 . S
C3331 H3308 0.950 . S
C3331 C3330 1.334 . S
C3331 C3332 1.287 . S
C3332 C3331 1.287 . S
C3332 C3333 1.524 . S
C3332 H3351 0.913 . S
C3333 H3309 0.950 . S
C3333 C3332 1.524 . S
C3333 C3334 1.415 . S
C3334 H3310 0.950 . S
C3334 C3329 1.363 . S
C3334 C3333 1.415 . S
C3335 H3311 0.951 1_554 S
C3335 C3336 1.366 . S
C3335 C3337 1.388 1_554 S
C3336 C3335 1.366 . S
C3336 C3340 1.385 . S
C3337 H3312 0.983 . S
C3337 C3335 1.388 1_556 S
C3337 C3338 1.335 1_556 S
C3338 C3337 1.335 1_554 S
C3338 C3339 1.414 . S
C3338 C3341 1.499 . S
C3339 H3313 0.950 . S
C3339 C3338 1.414 . S
C3339 C3340 1.374 . S
C3340 H3314 0.950 . S
C3340 C3336 1.385 . S
C3340 C3339 1.374 . S
C3341 C3338 1.499 . S
C3341 C3342 1.373 . S
C3341 C3343 1.407 . S
C3342 H3315 0.950 . S
C3342 C3328 1.377 . S
C3342 C3341 1.373 . S
C3343 C3327 1.376 1_554 S
C3343 C3341 1.407 . S
C3343 C3344 1.509 1_554 S
C3344 C3343 1.509 1_556 S
C3344 C3345 1.381 1_556 S
C3344 C3349 1.363 . S
C3345 H3316 0.985 . S
C3345 C3344 1.381 1_554 S
C3345 C3346 1.316 1_554 S
C3346 H3317 0.952 . S
C3346 C3345 1.316 1_556 S
C3346 C3347 1.287 . S
C3347 C3346 1.287 . S
C3347 C3348 1.524 . S
C3347 H3350 0.999 . S
C3348 H3318 0.950 . S
C3348 C3347 1.524 . S
C3348 C3349 1.415 . S
C3349 H3319 0.950 . S
C3349 C3344 1.363 . S
C3349 C3348 1.415 . S
H3350 C3347 0.999 . S
H3351 C3332 0.913 . S
H3352 C3370 0.951 . S
H3353 C3372 0.951 . S
H3354 C3374 0.950 . S
H3355 C3375 0.950 . S
H3356 C3377 0.950 . S
H3357 C3380 0.950 . S
H3358 C3381 0.950 . S
H3359 C3383 0.950 . S
H3360 C3384 0.950 . S
H3361 C3385 0.951 . S
H3362 C3387 0.951 . S
H3363 C3389 0.950 . S
H3364 C3390 0.950 . S
H3365 C3392 0.950 . S
H3366 C3395 0.950 . S
H3367 C3396 0.950 . S
H3368 C3398 0.950 . S
H3369 C3399 0.950 . S
C3370 H3352 0.951 . S
C3370 C3371 1.366 . S
C3370 C3372 1.388 . S
C3371 C3370 1.366 . S
C3371 C3375 1.385 . S
C3372 H3353 0.951 . S
C3372 C3370 1.388 . S
C3372 C3373 1.366 . S
C3373 C3372 1.366 . S
C3373 C3374 1.414 . S
C3373 C3376 1.499 . S
C3374 H3354 0.950 . S
C3374 C3373 1.414 . S
C3374 C3375 1.374 . S
C3375 H3355 0.950 . S
C3375 C3371 1.385 . S
C3375 C3374 1.374 . S
C3376 C3373 1.499 . S
C3376 C3377 1.373 . S
C3376 C3378 1.389 . S
C3377 H3356 0.950 . S
C3377 C3376 1.373 . S
C3377 C3393 1.377 . S
C3378 C3376 1.389 . S
C3378 C3379 1.524 . S
C3378 C3392 1.377 . S
C3379 C3378 1.524 . S
C3379 C3380 1.397 . S
C3379 C3384 1.363 . S
C3380 H3357 0.950 . S
C3380 C3379 1.397 . S
C3380 C3381 1.334 . S
C3381 H3358 0.950 . S
C3381 C3380 1.334 . S
C3381 C3382 1.287 . S
C3382 C3381 1.287 . S
C3382 C3383 1.524 . S
C3382 H3401 0.913 . S
C3383 H3359 0.950 . S
C3383 C3382 1.524 . S
C3383 C3384 1.415 . S
C3384 H3360 0.950 . S
C3384 C3379 1.363 . S
C3384 C3383 1.415 . S
C3385 H3361 0.951 . S
C3385 C3386 1.366 . S
C3385 C3387 1.388 . S
C3386 C3385 1.366 . S
C3386 C3390 1.385 . S
C3387 H3362 0.951 . S
C3387 C3385 1.388 . S
C3387 C3388 1.366 . S
C3388 C3387 1.366 . S
C3388 C3389 1.414 . S
C3388 C3391 1.499 . S
C3389 H3363 0.950 . S
C3389 C3388 1.414 . S
C3389 C3390 1.374 . S
C3390 H3364 0.950 . S
C3390 C3386 1.385 . S
C3390 C3389 1.374 . S
C3391 C3388 1.499 . S
C3391 C3392 1.373 . S
C3391 C3393 1.389 . S
C3392 H3365 0.950 . S
C3392 C3378 1.377 . S
C3392 C3391 1.373 . S
C3393 C3377 1.377 . S
C3393 C3391 1.389 . S
C3393 C3394 1.524 . S
C3394 C3393 1.524 . S
C3394 C3395 1.397 . S
C3394 C3399 1.363 . S
C3395 H3366 0.950 . S
C3395 C3394 1.397 . S
C3395 C3396 1.334 . S
C3396 H3367 0.950 . S
C3396 C3395 1.334 . S
C3396 C3397 1.287 . S
C3397 C3396 1.287 . S
C3397 C3398 1.524 . S
C3397 H3400 0.999 . S
C3398 H3368 0.950 . S
C3398 C3397 1.524 . S
C3398 C3399 1.415 . S
C3399 H3369 0.950 . S
C3399 C3394 1.363 . S
C3399 C3398 1.415 . S
H3400 C3397 0.999 . S
H3401 C3382 0.913 . S
H3402 C3420 0.951 . S
H3403 C3422 0.951 1_455 S
H3404 C3424 0.950 . S
H3405 C3425 0.950 . S
H3406 C3427 0.950 . S
H3407 C3430 0.950 . S
H3408 C3431 0.950 . S
H3409 C3433 0.950 . S
H3410 C3434 0.950 . S
H3411 C3435 0.951 . S
H3412 C3437 0.951 . S
H3413 C3439 0.950 . S
H3414 C3440 0.950 . S
H3415 C3442 0.950 . S
H3416 C3445 0.958 . S
H3417 C3446 0.950 . S
H3418 C3448 0.950 . S
H3419 C3449 0.950 . S
C3420 H3402 0.951 . S
C3420 C3421 1.366 1_455 S
C3420 C3422 1.388 1_455 S
C3421 C3420 1.366 1_655 S
C3421 C3425 1.385 . S
C3422 H3403 0.951 1_655 S
C3422 C3420 1.388 1_655 S
C3422 C3423 1.366 . S
C3423 C3422 1.366 . S
C3423 C3424 1.414 . S
C3423 C3426 1.499 . S
C3424 H3404 0.950 . S
C3424 C3423 1.414 . S
C3424 C3425 1.374 . S
C3425 H3405 0.950 . S
C3425 C3421 1.385 . S
C3425 C3424 1.374 . S
C3426 C3423 1.499 . S
C3426 C3427 1.373 . S
C3426 C3428 1.389 . S
C3427 H3406 0.950 . S
C3427 C3426 1.373 . S
C3427 C3443 1.377 . S
C3428 C3426 1.389 . S
C3428 C3429 1.524 . S
C3428 C3442 1.377 . S
C3429 C3428 1.524 . S
C3429 C3430 1.397 . S
C3429 C3434 1.363 . S
C3430 H3407 0.950 . S
C3430 C3429 1.397 . S
C3430 C3431 1.334 . S
C3431 H3408 0.950 . S
C3431 C3430 1.334 . S
C3431 C3432 1.287 . S
C3432 C3431 1.287 . S
C3432 C3433 1.524 . S
C3432 H3451 0.913 . S
C3433 H3409 0.950 . S
C3433 C3432 1.524 . S
C3433 C3434 1.415 . S
C3434 H3410 0.950 . S
C3434 C3429 1.363 . S
C3434 C3433 1.415 . S
C3435 H3411 0.951 . S
C3435 C3436 1.366 . S
C3435 C3437 1.388 . S
C3436 C3435 1.366 . S
C3436 C3440 1.385 . S
C3437 H3412 0.951 . S
C3437 C3435 1.388 . S
C3437 C3438 1.366 . S
C3438 C3437 1.366 . S
C3438 C3439 1.414 . S
C3438 C3441 1.499 . S
C3439 H3413 0.950 . S
C3439 C3438 1.414 . S
C3439 C3440 1.374 . S
C3440 H3414 0.950 . S
C3440 C3436 1.385 . S
C3440 C3439 1.374 . S
C3441 C3438 1.499 . S
C3441 C3442 1.373 . S
C3441 C3443 1.389 . S
C3442 H3415 0.950 . S
C3442 C3428 1.377 . S
C3442 C3441 1.373 . S
C3443 C3427 1.377 . S
C3443 C3441 1.389 . S
C3443 C3444 1.524 . S
C3444 C3443 1.524 . S
C3444 C3445 1.377 1_655 S
C3444 C3449 1.363 . S
C3445 H3416 0.958 . S
C3445 C3444 1.377 1_455 S
C3445 C3446 1.346 . S
C3446 H3417 0.950 . S
C3446 C3445 1.346 . S
C3446 C3447 1.291 . S
C3447 C3446 1.291 . S
C3447 C3448 1.512 1_455 S
C3447 H3450 1.005 . S
C3448 H3418 0.950 . S
C3448 C3447 1.512 1_655 S
C3448 C3449 1.415 . S
C3449 H3419 0.950 . S
C3449 C3444 1.363 . S
C3449 C3448 1.415 . S
H3450 C3447 1.005 . S
H3451 C3432 0.913 . S
H3452 C3470 0.951 . S
H3453 C3472 0.951 . S
H3454 C3474 0.950 . S
H3455 C3475 0.950 . S
H3456 C3477 0.950 . S
H3457 C3480 0.950 . S
H3458 C3481 0.950 . S
H3459 C3483 0.950 . S
H3460 C3484 0.950 . S
H3461 C3485 0.951 . S
H3462 C3487 0.951 . S
H3463 C3489 0.950 . S
H3464 C3490 0.950 . S
H3465 C3492 0.950 . S
H3466 C3495 0.950 . S
H3467 C3496 0.950 . S
H3468 C3498 0.950 . S
H3469 C3499 0.950 . S
C3470 H3452 0.951 . S
C3470 C3471 1.366 . S
C3470 C3472 1.388 . S
C3471 C3470 1.366 . S
C3471 C3475 1.385 . S
C3472 H3453 0.951 . S
C3472 C3470 1.388 . S
C3472 C3473 1.366 . S
C3473 C3472 1.366 . S
C3473 C3474 1.414 . S
C3473 C3476 1.499 . S
C3474 H3454 0.950 . S
C3474 C3473 1.414 . S
C3474 C3475 1.374 . S
C3475 H3455 0.950 . S
C3475 C3471 1.385 . S
C3475 C3474 1.374 . S
C3476 C3473 1.499 . S
C3476 C3477 1.373 . S
C3476 C3478 1.389 . S
C3477 H3456 0.950 . S
C3477 C3476 1.373 . S
C3477 C3493 1.377 . S
C3478 C3476 1.389 . S
C3478 C3479 1.524 . S
C3478 C3492 1.377 . S
C3479 C3478 1.524 . S
C3479 C3480 1.397 . S
C3479 C3484 1.363 . S
C3480 H3457 0.950 . S
C3480 C3479 1.397 . S
C3480 C3481 1.334 . S
C3481 H3458 0.950 . S
C3481 C3480 1.334 . S
C3481 C3482 1.287 . S
C3482 C3481 1.287 . S
C3482 C3483 1.524 . S
C3482 H3501 0.913 . S
C3483 H3459 0.950 . S
C3483 C3482 1.524 . S
C3483 C3484 1.415 . S
C3484 H3460 0.950 . S
C3484 C3479 1.363 . S
C3484 C3483 1.415 . S
C3485 H3461 0.951 . S
C3485 C3486 1.366 . S
C3485 C3487 1.388 . S
C3486 C3485 1.366 . S
C3486 C3490 1.385 . S
C3487 H3462 0.951 . S
C3487 C3485 1.388 . S
C3487 C3488 1.366 . S
C3488 C3487 1.366 . S
C3488 C3489 1.414 . S
C3488 C3491 1.499 . S
C3489 H3463 0.950 . S
C3489 C3488 1.414 . S
C3489 C3490 1.374 . S
C3490 H3464 0.950 . S
C3490 C3486 1.385 . S
C3490 C3489 1.374 . S
C3491 C3488 1.499 . S
C3491 C3492 1.373 . S
C3491 C3493 1.389 . S
C3492 H3465 0.950 . S
C3492 C3478 1.377 . S
C3492 C3491 1.373 . S
C3493 C3477 1.377 . S
C3493 C3491 1.389 . S
C3493 C3494 1.524 . S
C3494 C3493 1.524 . S
C3494 C3495 1.397 . S
C3494 C3499 1.363 . S
C3495 H3466 0.950 . S
C3495 C3494 1.397 . S
C3495 C3496 1.334 . S
C3496 H3467 0.950 . S
C3496 C3495 1.334 . S
C3496 C3497 1.287 . S
C3497 C3496 1.287 . S
C3497 C3498 1.524 . S
C3497 H3500 0.999 . S
C3498 H3468 0.950 . S
C3498 C3497 1.524 . S
C3498 C3499 1.415 . S
C3499 H3469 0.950 . S
C3499 C3494 1.363 . S
C3499 C3498 1.415 . S
H3500 C3497 0.999 . S
H3501 C3482 0.913 . S
H3502 C3520 0.951 . S
H3503 C3522 0.951 . S
H3504 C3524 0.950 . S
H3505 C3525 0.950 . S
H3506 C3527 0.950 . S
H3507 C3530 0.950 . S
H3508 C3531 0.950 . S
H3509 C3533 0.950 . S
H3510 C3534 0.950 . S
H3511 C3535 0.951 . S
H3512 C3537 0.930 1_655 S
H3513 C3539 0.950 . S
H3514 C3540 0.950 . S
H3515 C3542 0.950 . S
H3516 C3545 0.950 . S
H3517 C3546 0.950 . S
H3518 C3548 0.950 . S
H3519 C3549 0.950 . S
C3520 H3502 0.951 . S
C3520 C3521 1.366 . S
C3520 C3522 1.388 . S
C3521 C3520 1.366 . S
C3521 C3525 1.385 1_455 S
C3522 H3503 0.951 . S
C3522 C3520 1.388 . S
C3522 C3523 1.366 . S
C3523 C3522 1.366 . S
C3523 C3524 1.414 1_455 S
C3523 C3526 1.499 . S
C3524 H3504 0.950 . S
C3524 C3523 1.414 1_655 S
C3524 C3525 1.374 . S
C3525 H3505 0.950 . S
C3525 C3521 1.385 1_655 S
C3525 C3524 1.374 . S
C3526 C3523 1.499 . S
C3526 C3527 1.373 1_455 S
C3526 C3528 1.389 . S
C3527 H3506 0.950 . S
C3527 C3526 1.373 1_655 S
C3527 C3543 1.377 . S
C3528 C3526 1.389 . S
C3528 C3529 1.524 . S
C3528 C3542 1.377 . S
C3529 C3528 1.524 . S
C3529 C3530 1.397 . S
C3529 C3534 1.363 . S
C3530 H3507 0.950 . S
C3530 C3529 1.397 . S
C3530 C3531 1.334 . S
C3531 H3508 0.950 . S
C3531 C3530 1.334 . S
C3531 C3532 1.287 . S
C3532 C3531 1.287 . S
C3532 C3533 1.524 . S
C3532 H3551 0.913 . S
C3533 H3509 0.950 . S
C3533 C3532 1.524 . S
C3533 C3534 1.415 . S
C3534 H3510 0.950 . S
C3534 C3529 1.363 . S
C3534 C3533 1.415 . S
C3535 H3511 0.951 . S
C3535 C3536 1.366 . S
C3535 C3537 1.388 . S
C3536 C3535 1.366 . S
C3536 C3540 1.385 . S
C3537 H3512 0.930 1_455 S
C3537 C3535 1.388 . S
C3537 C3538 1.366 . S
C3538 C3537 1.366 . S
C3538 C3539 1.414 . S
C3538 C3541 1.499 . S
C3539 H3513 0.950 . S
C3539 C3538 1.414 . S
C3539 C3540 1.374 . S
C3540 H3514 0.950 . S
C3540 C3536 1.385 . S
C3540 C3539 1.374 . S
C3541 C3538 1.499 . S
C3541 C3542 1.373 . S
C3541 C3543 1.389 1_455 S
C3542 H3515 0.950 . S
C3542 C3528 1.377 . S
C3542 C3541 1.373 . S
C3543 C3527 1.377 . S
C3543 C3541 1.389 1_655 S
C3543 C3544 1.524 . S
C3544 C3543 1.524 . S
C3544 C3545 1.397 . S
C3544 C3549 1.363 . S
C3545 H3516 0.950 . S
C3545 C3544 1.397 . S
C3545 C3546 1.334 . S
C3546 H3517 0.950 . S
C3546 C3545 1.334 . S
C3546 C3547 1.287 . S
C3547 C3546 1.287 . S
C3547 C3548 1.524 . S
C3547 H3550 0.999 . S
C3548 H3518 0.950 . S
C3548 C3547 1.524 . S
C3548 C3549 1.415 . S
C3549 H3519 0.950 . S
C3549 C3544 1.363 . S
C3549 C3548 1.415 . S
H3550 C3547 0.999 . S
H3551 C3532 0.913 . S
H3552 C3570 0.951 . S
H3553 C3572 0.951 . S
H3554 C3574 0.950 . S
H3555 C3575 0.950 . S
H3556 C3577 0.950 . S
H3557 C3580 0.950 . S
H3558 C3581 0.950 . S
H3559 C3583 0.950 . S
H3560 C3584 0.950 . S
H3561 C3585 0.951 . S
H3562 C3587 0.951 . S
H3563 C3589 0.950 . S
H3564 C3590 0.950 . S
H3565 C3592 0.950 . S
H3566 C3595 0.950 . S
H3567 C3596 0.950 . S
H3568 C3598 0.950 . S
H3569 C3599 0.950 . S
C3570 H3552 0.951 . S
C3570 C3571 1.366 . S
C3570 C3572 1.388 . S
C3571 C3570 1.366 . S
C3571 C3575 1.385 . S
C3572 H3553 0.951 . S
C3572 C3570 1.388 . S
C3572 C3573 1.366 . S
C3573 C3572 1.366 . S
C3573 C3574 1.414 . S
C3573 C3576 1.499 . S
C3574 H3554 0.950 . S
C3574 C3573 1.414 . S
C3574 C3575 1.374 . S
C3575 H3555 0.950 . S
C3575 C3571 1.385 . S
C3575 C3574 1.374 . S
C3576 C3573 1.499 . S
C3576 C3577 1.373 . S
C3576 C3578 1.389 . S
C3577 H3556 0.950 . S
C3577 C3576 1.373 . S
C3577 C3593 1.377 . S
C3578 C3576 1.389 . S
C3578 C3579 1.524 . S
C3578 C3592 1.377 . S
C3579 C3578 1.524 . S
C3579 C3580 1.397 . S
C3579 C3584 1.363 . S
C3580 H3557 0.950 . S
C3580 C3579 1.397 . S
C3580 C3581 1.334 . S
C3581 H3558 0.950 . S
C3581 C3580 1.334 . S
C3581 C3582 1.287 . S
C3582 C3581 1.287 . S
C3582 C3583 1.524 . S
C3582 H3601 0.913 . S
C3583 H3559 0.950 . S
C3583 C3582 1.524 . S
C3583 C3584 1.415 . S
C3584 H3560 0.950 . S
C3584 C3579 1.363 . S
C3584 C3583 1.415 . S
C3585 H3561 0.951 . S
C3585 C3586 1.366 . S
C3585 C3587 1.388 . S
C3586 C3585 1.366 . S
C3586 C3590 1.385 . S
C3587 H3562 0.951 . S
C3587 C3585 1.388 . S
C3587 C3588 1.366 . S
C3588 C3587 1.366 . S
C3588 C3589 1.414 . S
C3588 C3591 1.499 . S
C3589 H3563 0.950 . S
C3589 C3588 1.414 . S
C3589 C3590 1.374 . S
C3590 H3564 0.950 . S
C3590 C3586 1.385 . S
C3590 C3589 1.374 . S
C3591 C3588 1.499 . S
C3591 C3592 1.373 . S
C3591 C3593 1.389 . S
C3592 H3565 0.950 . S
C3592 C3578 1.377 . S
C3592 C3591 1.373 . S
C3593 C3577 1.377 . S
C3593 C3591 1.389 . S
C3593 C3594 1.524 . S
C3594 C3593 1.524 . S
C3594 C3595 1.397 . S
C3594 C3599 1.363 . S
C3595 H3566 0.950 . S
C3595 C3594 1.397 . S
C3595 C3596 1.334 . S
C3596 H3567 0.950 . S
C3596 C3595 1.334 . S
C3596 C3597 1.287 . S
C3597 C3596 1.287 . S
C3597 C3598 1.524 . S
C3597 H3600 0.999 . S
C3598 H3568 0.950 . S
C3598 C3597 1.524 . S
C3598 C3599 1.415 . S
C3599 H3569 0.950 . S
C3599 C3594 1.363 . S
C3599 C3598 1.415 . S
H3600 C3597 0.999 . S
H3601 C3582 0.913 . S
H3602 C3620 0.951 . S
H3603 C3622 0.951 . S
H3604 C3624 0.950 . S
H3605 C3625 0.950 . S
H3606 C3627 0.950 . S
H3607 C3630 0.950 . S
H3608 C3631 0.950 . S
H3609 C3633 0.950 . S
H3610 C3634 0.950 . S
H3611 C3635 0.951 . S
H3612 C3637 0.951 . S
H3613 C3639 0.950 . S
H3614 C3640 0.950 . S
H3615 C3642 0.950 . S
H3616 C3645 0.950 . S
H3617 C3646 0.950 . S
H3618 C3648 0.950 . S
H3619 C3649 0.950 . S
C3620 H3602 0.951 . S
C3620 C3621 1.366 . S
C3620 C3622 1.388 . S
C3621 C3620 1.366 . S
C3621 C3625 1.385 . S
C3622 H3603 0.951 . S
C3622 C3620 1.388 . S
C3622 C3623 1.366 . S
C3623 C3622 1.366 . S
C3623 C3624 1.414 . S
C3623 C3626 1.499 . S
C3624 H3604 0.950 . S
C3624 C3623 1.414 . S
C3624 C3625 1.374 . S
C3625 H3605 0.950 . S
C3625 C3621 1.385 . S
C3625 C3624 1.374 . S
C3626 C3623 1.499 . S
C3626 C3627 1.373 . S
C3626 C3628 1.389 . S
C3627 H3606 0.950 . S
C3627 C3626 1.373 . S
C3627 C3643 1.377 . S
C3628 C3626 1.389 . S
C3628 C3629 1.524 . S
C3628 C3642 1.377 . S
C3629 C3628 1.524 . S
C3629 C3630 1.397 . S
C3629 C3634 1.363 . S
C3630 H3607 0.950 . S
C3630 C3629 1.397 . S
C3630 C3631 1.334 . S
C3631 H3608 0.950 . S
C3631 C3630 1.334 . S
C3631 C3632 1.287 . S
C3632 C3631 1.287 . S
C3632 C3633 1.524 . S
C3632 H3651 0.913 . S
C3633 H3609 0.950 . S
C3633 C3632 1.524 . S
C3633 C3634 1.415 . S
C3634 H3610 0.950 . S
C3634 C3629 1.363 . S
C3634 C3633 1.415 . S
C3635 H3611 0.951 . S
C3635 C3636 1.366 . S
C3635 C3637 1.388 . S
C3636 C3635 1.366 . S
C3636 C3640 1.385 . S
C3637 H3612 0.951 . S
C3637 C3635 1.388 . S
C3637 C3638 1.366 . S
C3638 C3637 1.366 . S
C3638 C3639 1.414 . S
C3638 C3641 1.499 . S
C3639 H3613 0.950 . S
C3639 C3638 1.414 . S
C3639 C3640 1.374 . S
C3640 H3614 0.950 . S
C3640 C3636 1.385 . S
C3640 C3639 1.374 . S
C3641 C3638 1.499 . S
C3641 C3642 1.373 . S
C3641 C3643 1.389 . S
C3642 H3615 0.950 . S
C3642 C3628 1.377 . S
C3642 C3641 1.373 . S
C3643 C3627 1.377 . S
C3643 C3641 1.389 . S
C3643 C3644 1.524 . S
C3644 C3643 1.524 . S
C3644 C3645 1.397 . S
C3644 C3649 1.363 . S
C3645 H3616 0.950 . S
C3645 C3644 1.397 . S
C3645 C3646 1.334 . S
C3646 H3617 0.950 . S
C3646 C3645 1.334 . S
C3646 C3647 1.287 . S
C3647 C3646 1.287 . S
C3647 C3648 1.524 . S
C3647 H3650 0.999 . S
C3648 H3618 0.950 . S
C3648 C3647 1.524 . S
C3648 C3649 1.415 . S
C3649 H3619 0.950 . S
C3649 C3644 1.363 . S
C3649 C3648 1.415 . S
H3650 C3647 0.999 . S
H3651 C3632 0.913 . S
H3652 C3670 0.951 . S
H3653 C3672 0.951 . S
H3654 C3674 0.950 . S
H3655 C3675 0.950 . S
H3656 C3677 0.950 . S
H3657 C3680 0.950 . S
H3658 C3681 0.950 . S
H3659 C3683 0.950 . S
H3660 C3684 0.950 . S
H3661 C3685 0.951 . S
H3662 C3687 0.951 . S
H3663 C3689 0.975 . S
H3664 C3690 0.950 1_545 S
H3665 C3692 0.950 . S
H3666 C3695 0.950 . S
H3667 C3696 0.950 . S
H3668 C3698 0.950 . S
H3669 C3699 0.950 . S
C3670 H3652 0.951 . S
C3670 C3671 1.366 1_545 S
C3670 C3672 1.388 . S
C3671 C3670 1.366 1_565 S
C3671 C3675 1.385 . S
C3672 H3653 0.951 . S
C3672 C3670 1.388 . S
C3672 C3673 1.366 1_545 S
C3673 C3672 1.366 1_565 S
C3673 C3674 1.414 . S
C3673 C3676 1.499 . S
C3674 H3654 0.950 . S
C3674 C3673 1.414 . S
C3674 C3675 1.374 . S
C3675 H3655 0.950 . S
C3675 C3671 1.385 . S
C3675 C3674 1.374 . S
C3676 C3673 1.499 . S
C3676 C3677 1.373 . S
C3676 C3678 1.389 1_565 S
C3677 H3656 0.950 . S
C3677 C3676 1.373 . S
C3677 C3693 1.377 . S
C3678 C3676 1.389 1_545 S
C3678 C3679 1.524 . S
C3678 C3692 1.377 . S
C3679 C3678 1.524 . S
C3679 C3680 1.397 . S
C3679 C3684 1.363 . S
C3680 H3657 0.950 . S
C3680 C3679 1.397 . S
C3680 C3681 1.334 . S
C3681 H3658 0.950 . S
C3681 C3680 1.334 . S
C3681 C3682 1.287 . S
C3682 C3681 1.287 . S
C3682 C3683 1.524 . S
C3682 H3701 0.913 . S
C3683 H3659 0.950 . S
C3683 C3682 1.524 . S
C3683 C3684 1.415 . S
C3684 H3660 0.950 . S
C3684 C3679 1.363 . S
C3684 C3683 1.415 . S
C3685 H3661 0.951 . S
C3685 C3686 1.366 . S
C3685 C3687 1.388 . S
C3686 C3685 1.366 . S
C3686 C3690 1.385 . S
C3687 H3662 0.951 . S
C3687 C3685 1.388 . S
C3687 C3688 1.366 . S
C3688 C3687 1.366 . S
C3688 C3689 1.390 1_565 S
C3688 C3691 1.499 . S
C3689 H3663 0.975 . S
C3689 C3688 1.390 1_545 S
C3689 C3690 1.374 1_545 S
C3690 H3664 0.950 1_565 S
C3690 C3686 1.385 . S
C3690 C3689 1.374 1_565 S
C3691 C3688 1.499 . S
C3691 C3692 1.373 1_565 S
C3691 C3693 1.389 . S
C3692 H3665 0.950 . S
C3692 C3678 1.377 . S
C3692 C3691 1.373 1_545 S
C3693 C3677 1.377 . S
C3693 C3691 1.389 . S
C3693 C3694 1.524 . S
C3694 C3693 1.524 . S
C3694 C3695 1.397 . S
C3694 C3699 1.363 . S
C3695 H3666 0.950 . S
C3695 C3694 1.397 . S
C3695 C3696 1.334 . S
C3696 H3667 0.950 . S
C3696 C3695 1.334 . S
C3696 C3697 1.287 . S
C3697 C3696 1.287 . S
C3697 C3698 1.524 . S
C3697 H3700 0.999 . S
C3698 H3668 0.950 . S
C3698 C3697 1.524 . S
C3698 C3699 1.415 . S
C3699 H3669 0.950 . S
C3699 C3694 1.363 . S
C3699 C3698 1.415 . S
H3700 C3697 0.999 . S
H3701 C3682 0.913 . S
H3702 C3720 0.951 . S
H3703 C3722 0.951 . S
H3704 C3724 0.950 . S
H3705 C3725 0.950 . S
H3706 C3727 0.950 . S
H3707 C3730 0.950 . S
H3708 C3731 0.950 . S
H3709 C3733 0.950 . S
H3710 C3734 0.950 . S
H3711 C3735 0.951 . S
H3712 C3737 0.951 . S
H3713 C3739 0.950 . S
H3714 C3740 0.950 . S
H3715 C3742 0.950 . S
H3716 C3745 0.950 . S
H3717 C3746 0.950 . S
H3718 C3748 0.950 . S
H3719 C3749 0.950 . S
C3720 H3702 0.951 . S
C3720 C3721 1.366 . S
C3720 C3722 1.388 . S
C3721 C3720 1.366 . S
C3721 C3725 1.385 1_545 S
C3722 H3703 0.951 . S
C3722 C3720 1.388 . S
C3722 C3723 1.366 . S
C3723 C3722 1.366 . S
C3723 C3724 1.414 1_545 S
C3723 C3726 1.499 . S
C3724 H3704 0.950 . S
C3724 C3723 1.414 1_565 S
C3724 C3725 1.374 . S
C3725 H3705 0.950 . S
C3725 C3721 1.385 1_565 S
C3725 C3724 1.374 . S
C3726 C3723 1.499 . S
C3726 C3727 1.373 . S
C3726 C3728 1.389 . S
C3727 H3706 0.950 . S
C3727 C3726 1.373 . S
C3727 C3743 1.377 . S
C3728 C3726 1.389 . S
C3728 C3729 1.524 . S
C3728 C3742 1.377 . S
C3729 C3728 1.524 . S
C3729 C3730 1.397 . S
C3729 C3734 1.363 . S
C3730 H3707 0.950 . S
C3730 C3729 1.397 . S
C3730 C3731 1.334 . S
C3731 H3708 0.950 . S
C3731 C3730 1.334 . S
C3731 C3732 1.287 . S
C3732 C3731 1.287 . S
C3732 C3733 1.524 . S
C3732 H3751 0.913 . S
C3733 H3709 0.950 . S
C3733 C3732 1.524 . S
C3733 C3734 1.415 . S
C3734 H3710 0.950 . S
C3734 C3729 1.363 . S
C3734 C3733 1.415 . S
C3735 H3711 0.951 . S
C3735 C3736 1.366 . S
C3735 C3737 1.388 . S
C3736 C3735 1.366 . S
C3736 C3740 1.385 . S
C3737 H3712 0.951 . S
C3737 C3735 1.388 . S
C3737 C3738 1.366 . S
C3738 C3737 1.366 . S
C3738 C3739 1.414 . S
C3738 C3741 1.499 . S
C3739 H3713 0.950 . S
C3739 C3738 1.414 . S
C3739 C3740 1.374 . S
C3740 H3714 0.950 . S
C3740 C3736 1.385 . S
C3740 C3739 1.374 . S
C3741 C3738 1.499 . S
C3741 C3742 1.373 . S
C3741 C3743 1.389 . S
C3742 H3715 0.950 . S
C3742 C3728 1.377 . S
C3742 C3741 1.373 . S
C3743 C3727 1.377 . S
C3743 C3741 1.389 . S
C3743 C3744 1.524 . S
C3744 C3743 1.524 . S
C3744 C3745 1.397 . S
C3744 C3749 1.363 1_545 S
C3745 H3716 0.950 . S
C3745 C3744 1.397 . S
C3745 C3746 1.334 . S
C3746 H3717 0.950 . S
C3746 C3745 1.334 . S
C3746 C3747 1.287 . S
C3747 C3746 1.287 . S
C3747 C3748 1.524 1_545 S
C3747 H3750 1.009 . S
C3748 H3718 0.950 . S
C3748 C3747 1.524 1_565 S
C3748 C3749 1.415 . S
C3749 H3719 0.950 . S
C3749 C3744 1.363 1_565 S
C3749 C3748 1.415 . S
H3750 C3747 1.009 . S
H3751 C3732 0.913 . S
H3752 C3770 0.951 . S
H3753 C3772 0.951 . S
H3754 C3774 0.950 . S
H3755 C3775 0.950 . S
H3756 C3777 0.950 . S
H3757 C3780 0.950 . S
H3758 C3781 0.950 . S
H3759 C3783 0.950 . S
H3760 C3784 0.950 . S
H3761 C3785 0.951 . S
H3762 C3787 0.951 . S
H3763 C3789 0.950 . S
H3764 C3790 0.950 . S
H3765 C3792 0.950 . S
H3766 C3795 0.950 . S
H3767 C3796 0.950 . S
H3768 C3798 0.950 . S
H3769 C3799 0.950 . S
C3770 H3752 0.951 . S
C3770 C3771 1.366 . S
C3770 C3772 1.388 . S
C3771 C3770 1.366 . S
C3771 C3775 1.385 . S
C3772 H3753 0.951 . S
C3772 C3770 1.388 . S
C3772 C3773 1.366 . S
C3773 C3772 1.366 . S
C3773 C3774 1.414 . S
C3773 C3776 1.499 . S
C3774 H3754 0.950 . S
C3774 C3773 1.414 . S
C3774 C3775 1.374 . S
C3775 H3755 0.950 . S
C3775 C3771 1.385 . S
C3775 C3774 1.374 . S
C3776 C3773 1.499 . S
C3776 C3777 1.373 . S
C3776 C3778 1.389 . S
C3777 H3756 0.950 . S
C3777 C3776 1.373 . S
C3777 C3793 1.377 . S
C3778 C3776 1.389 . S
C3778 C3779 1.524 . S
C3778 C3792 1.377 . S
C3779 C3778 1.524 . S
C3779 C3780 1.397 . S
C3779 C3784 1.363 . S
C3780 H3757 0.950 . S
C3780 C3779 1.397 . S
C3780 C3781 1.334 . S
C3781 H3758 0.950 . S
C3781 C3780 1.334 . S
C3781 C3782 1.287 . S
C3782 C3781 1.287 . S
C3782 C3783 1.524 . S
C3782 H3801 0.913 . S
C3783 H3759 0.950 . S
C3783 C3782 1.524 . S
C3783 C3784 1.415 . S
C3784 H3760 0.950 . S
C3784 C3779 1.363 . S
C3784 C3783 1.415 . S
C3785 H3761 0.951 . S
C3785 C3786 1.366 . S
C3785 C3787 1.388 . S
C3786 C3785 1.366 . S
C3786 C3790 1.385 . S
C3787 H3762 0.951 . S
C3787 C3785 1.388 . S
C3787 C3788 1.366 . S
C3788 C3787 1.366 . S
C3788 C3789 1.414 . S
C3788 C3791 1.499 . S
C3789 H3763 0.950 . S
C3789 C3788 1.414 . S
C3789 C3790 1.374 . S
C3790 H3764 0.950 . S
C3790 C3786 1.385 . S
C3790 C3789 1.374 . S
C3791 C3788 1.499 . S
C3791 C3792 1.373 . S
C3791 C3793 1.389 . S
C3792 H3765 0.950 . S
C3792 C3778 1.377 . S
C3792 C3791 1.373 . S
C3793 C3777 1.377 . S
C3793 C3791 1.389 . S
C3793 C3794 1.524 . S
C3794 C3793 1.524 . S
C3794 C3795 1.397 . S
C3794 C3799 1.363 . S
C3795 H3766 0.950 . S
C3795 C3794 1.397 . S
C3795 C3796 1.334 . S
C3796 H3767 0.950 . S
C3796 C3795 1.334 . S
C3796 C3797 1.287 . S
C3797 C3796 1.287 . S
C3797 C3798 1.524 . S
C3797 H3800 0.999 . S
C3798 H3768 0.950 . S
C3798 C3797 1.524 . S
C3798 C3799 1.415 . S
C3799 H3769 0.950 . S
C3799 C3794 1.363 . S
C3799 C3798 1.415 . S
H3800 C3797 0.999 . S
H3801 C3782 0.913 . S
H3802 C3820 0.951 . S
H3803 C3822 0.951 . S
H3804 C3824 0.934 1_556 S
H3805 C3825 0.950 . S
H3806 C3827 0.950 1_556 S
H3807 C3830 0.950 . S
H3808 C3831 0.950 . S
H3809 C3833 0.950 . S
H3810 C3834 0.950 . S
H3811 C3835 0.951 . S
H3812 C3837 0.951 . S
H3813 C3839 0.950 . S
H3814 C3840 0.950 . S
H3815 C3842 0.950 . S
H3816 C3845 0.950 . S
H3817 C3846 0.950 . S
H3818 C3848 0.950 . S
H3819 C3849 0.950 . S
C3820 H3802 0.951 . S
C3820 C3821 1.366 . S
C3820 C3822 1.388 . S
C3821 C3820 1.366 . S
C3821 C3825 1.385 1_554 S
C3822 H3803 0.951 . S
C3822 C3820 1.388 . S
C3822 C3823 1.366 . S
C3823 C3822 1.366 . S
C3823 C3824 1.438 . S
C3823 C3826 1.499 . S
C3824 H3804 0.934 1_554 S
C3824 C3823 1.438 . S
C3824 C3825 1.368 1_554 S
C3825 H3805 0.950 . S
C3825 C3821 1.385 1_556 S
C3825 C3824 1.368 1_556 S
C3826 C3823 1.499 . S
C3826 C3827 1.373 . S
C3826 C3828 1.389 . S
C3827 H3806 0.950 1_554 S
C3827 C3826 1.373 . S
C3827 C3843 1.377 . S
C3828 C3826 1.389 . S
C3828 C3829 1.524 . S
C3828 C3842 1.377 . S
C3829 C3828 1.524 . S
C3829 C3830 1.397 . S
C3829 C3834 1.363 . S
C3830 H3807 0.950 . S
C3830 C3829 1.397 . S
C3830 C3831 1.334 . S
C3831 H3808 0.950 . S
C3831 C3830 1.334 . S
C3831 C3832 1.287 . S
C3832 C3831 1.287 . S
C3832 C3833 1.524 . S
C3832 H3851 0.913 . S
C3833 H3809 0.950 . S
C3833 C3832 1.524 . S
C3833 C3834 1.415 . S
C3834 H3810 0.950 . S
C3834 C3829 1.363 . S
C3834 C3833 1.415 . S
C3835 H3811 0.951 . S
C3835 C3836 1.366 . S
C3835 C3837 1.388 . S
C3836 C3835 1.366 . S
C3836 C3840 1.385 . S
C3837 H3812 0.951 . S
C3837 C3835 1.388 . S
C3837 C3838 1.366 . S
C3838 C3837 1.366 . S
C3838 C3839 1.414 . S
C3838 C3841 1.499 . S
C3839 H3813 0.950 . S
C3839 C3838 1.414 . S
C3839 C3840 1.374 . S
C3840 H3814 0.950 . S
C3840 C3836 1.385 . S
C3840 C3839 1.374 . S
C3841 C3838 1.499 . S
C3841 C3842 1.373 . S
C3841 C3843 1.389 . S
C3842 H3815 0.950 . S
C3842 C3828 1.377 . S
C3842 C3841 1.373 . S
C3843 C3827 1.377 . S
C3843 C3841 1.389 . S
C3843 C3844 1.524 1_554 S
C3844 C3843 1.524 1_556 S
C3844 C3845 1.397 . S
C3844 C3849 1.363 . S
C3845 H3816 0.950 . S
C3845 C3844 1.397 . S
C3845 C3846 1.334 . S
C3846 H3817 0.950 . S
C3846 C3845 1.334 . S
C3846 C3847 1.287 . S
C3847 C3846 1.287 . S
C3847 C3848 1.524 . S
C3847 H3850 0.999 . S
C3848 H3818 0.950 . S
C3848 C3847 1.524 . S
C3848 C3849 1.415 . S
C3849 H3819 0.950 . S
C3849 C3844 1.363 . S
C3849 C3848 1.415 . S
H3850 C3847 0.999 . S
H3851 C3832 0.913 . S
H3852 C3870 0.951 . S
H3853 C3872 0.951 . S
H3854 C3874 0.950 . S
H3855 C3875 0.950 . S
H3856 C3877 0.950 . S
H3857 C3880 0.950 . S
H3858 C3881 0.950 . S
H3859 C3883 0.950 . S
H3860 C3884 0.950 . S
H3861 C3885 0.951 . S
H3862 C3887 0.951 . S
H3863 C3889 0.950 . S
H3864 C3890 0.950 . S
H3865 C3892 0.950 . S
H3866 C3895 0.950 . S
H3867 C3896 0.950 . S
H3868 C3898 0.950 . S
H3869 C3899 0.950 . S
C3870 H3852 0.951 . S
C3870 C3871 1.366 . S
C3870 C3872 1.388 . S
C3871 C3870 1.366 . S
C3871 C3875 1.385 . S
C3872 H3853 0.951 . S
C3872 C3870 1.388 . S
C3872 C3873 1.366 . S
C3873 C3872 1.366 . S
C3873 C3874 1.414 . S
C3873 C3876 1.499 . S
C3874 H3854 0.950 . S
C3874 C3873 1.414 . S
C3874 C3875 1.374 . S
C3875 H3855 0.950 . S
C3875 C3871 1.385 . S
C3875 C3874 1.374 . S
C3876 C3873 1.499 . S
C3876 C3877 1.373 . S
C3876 C3878 1.389 . S
C3877 H3856 0.950 . S
C3877 C3876 1.373 . S
C3877 C3893 1.377 . S
C3878 C3876 1.389 . S
C3878 C3879 1.524 . S
C3878 C3892 1.377 . S
C3879 C3878 1.524 . S
C3879 C3880 1.397 . S
C3879 C3884 1.363 . S
C3880 H3857 0.950 . S
C3880 C3879 1.397 . S
C3880 C3881 1.334 . S
C3881 H3858 0.950 . S
C3881 C3880 1.334 . S
C3881 C3882 1.287 . S
C3882 C3881 1.287 . S
C3882 C3883 1.524 . S
C3882 H3901 0.913 . S
C3883 H3859 0.950 . S
C3883 C3882 1.524 . S
C3883 C3884 1.415 . S
C3884 H3860 0.950 . S
C3884 C3879 1.363 . S
C3884 C3883 1.415 . S
C3885 H3861 0.951 . S
C3885 C3886 1.366 . S
C3885 C3887 1.388 . S
C3886 C3885 1.366 . S
C3886 C3890 1.385 . S
C3887 H3862 0.951 . S
C3887 C3885 1.388 . S
C3887 C3888 1.366 . S
C3888 C3887 1.366 . S
C3888 C3889 1.414 . S
C3888 C3891 1.499 . S
C3889 H3863 0.950 . S
C3889 C3888 1.414 . S
C3889 C3890 1.374 . S
C3890 H3864 0.950 . S
C3890 C3886 1.385 . S
C3890 C3889 1.374 . S
C3891 C3888 1.499 . S
C3891 C3892 1.373 . S
C3891 C3893 1.389 . S
C3892 H3865 0.950 . S
C3892 C3878 1.377 . S
C3892 C3891 1.373 . S
C3893 C3877 1.377 . S
C3893 C3891 1.389 . S
C3893 C3894 1.524 . S
C3894 C3893 1.524 . S
C3894 C3895 1.397 . S
C3894 C3899 1.363 . S
C3895 H3866 0.950 . S
C3895 C3894 1.397 . S
C3895 C3896 1.334 . S
C3896 H3867 0.950 . S
C3896 C3895 1.334 . S
C3896 C3897 1.287 . S
C3897 C3896 1.287 . S
C3897 C3898 1.524 . S
C3897 H3900 0.999 . S
C3898 H3868 0.950 . S
C3898 C3897 1.524 . S
C3898 C3899 1.415 . S
C3899 H3869 0.950 . S
C3899 C3894 1.363 . S
C3899 C3898 1.415 . S
H3900 C3897 0.999 . S
H3901 C3882 0.913 . S
H3902 C3920 0.951 . S
H3903 C3922 0.951 . S
H3904 C3924 0.950 . S
H3905 C3925 0.950 . S
H3906 C3927 0.950 . S
H3907 C3930 0.950 . S
H3908 C3931 0.950 . S
H3909 C3933 0.950 . S
H3910 C3934 0.950 . S
H3911 C3935 0.951 . S
H3912 C3937 0.951 . S
H3913 C3939 0.950 . S
H3914 C3940 0.950 . S
H3915 C3942 0.950 . S
H3916 C3945 0.950 . S
H3917 C3946 0.950 . S
H3918 C3948 0.950 . S
H3919 C3949 0.950 . S
C3920 H3902 0.951 . S
C3920 C3921 1.366 . S
C3920 C3922 1.388 . S
C3921 C3920 1.366 . S
C3921 C3925 1.385 . S
C3922 H3903 0.951 . S
C3922 C3920 1.388 . S
C3922 C3923 1.366 . S
C3923 C3922 1.366 . S
C3923 C3924 1.414 . S
C3923 C3926 1.499 . S
C3924 H3904 0.950 . S
C3924 C3923 1.414 . S
C3924 C3925 1.374 . S
C3925 H3905 0.950 . S
C3925 C3921 1.385 . S
C3925 C3924 1.374 . S
C3926 C3923 1.499 . S
C3926 C3927 1.373 1_556 S
C3926 C3928 1.389 . S
C3927 H3906 0.950 . S
C3927 C3926 1.373 1_554 S
C3927 C3943 1.377 . S
C3928 C3926 1.389 . S
C3928 C3929 1.524 . S
C3928 C3942 1.377 . S
C3929 C3928 1.524 . S
C3929 C3930 1.397 . S
C3929 C3934 1.363 . S
C3930 H3907 0.950 . S
C3930 C3929 1.397 . S
C3930 C3931 1.334 . S
C3931 H3908 0.950 . S
C3931 C3930 1.334 . S
C3931 C3932 1.287 . S
C3932 C3931 1.287 . S
C3932 C3933 1.524 . S
C3932 H3951 0.913 . S
C3933 H3909 0.950 . S
C3933 C3932 1.524 . S
C3933 C3934 1.415 . S
C3934 H3910 0.950 . S
C3934 C3929 1.363 . S
C3934 C3933 1.415 . S
C3935 H3911 0.951 . S
C3935 C3936 1.366 . S
C3935 C3937 1.388 . S
C3936 C3935 1.366 . S
C3936 C3940 1.385 . S
C3937 H3912 0.951 . S
C3937 C3935 1.388 . S
C3937 C3938 1.366 . S
C3938 C3937 1.366 . S
C3938 C3939 1.414 . S
C3938 C3941 1.499 . S
C3939 H3913 0.950 . S
C3939 C3938 1.414 . S
C3939 C3940 1.374 . S
C3940 H3914 0.950 . S
C3940 C3936 1.385 . S
C3940 C3939 1.374 . S
C3941 C3938 1.499 . S
C3941 C3942 1.373 . S
C3941 C3943 1.389 1_556 S
C3942 H3915 0.950 . S
C3942 C3928 1.377 . S
C3942 C3941 1.373 . S
C3943 C3927 1.377 . S
C3943 C3941 1.389 1_554 S
C3943 C3944 1.524 . S
C3944 C3943 1.524 . S
C3944 C3945 1.397 . S
C3944 C3949 1.363 . S
C3945 H3916 0.950 . S
C3945 C3944 1.397 . S
C3945 C3946 1.334 . S
C3946 H3917 0.950 . S
C3946 C3945 1.334 . S
C3946 C3947 1.287 . S
C3947 C3946 1.287 . S
C3947 C3948 1.524 . S
C3947 H3950 0.999 . S
C3948 H3918 0.950 . S
C3948 C3947 1.524 . S
C3948 C3949 1.415 . S
C3949 H3919 0.950 . S
C3949 C3944 1.363 . S
C3949 C3948 1.415 . S
H3950 C3947 0.999 . S
H3951 C3932 0.913 . S
H3952 C3970 0.951 . S
H3953 C3972 0.951 . S
H3954 C3974 0.950 . S
H3955 C3975 0.950 . S
H3956 C3977 0.950 . S
H3957 C3980 0.950 . S
H3958 C3981 0.950 . S
H3959 C3983 0.950 . S
H3960 C3984 0.950 . S
H3961 C3985 0.951 . S
H3962 C3987 0.951 . S
H3963 C3989 0.950 . S
H3964 C3990 0.950 . S
H3965 C3992 0.950 . S
H3966 C3995 0.950 . S
H3967 C3996 0.950 . S
H3968 C3998 0.950 . S
H3969 C3999 0.950 . S
C3970 H3952 0.951 . S
C3970 C3971 1.366 . S
C3970 C3972 1.388 . S
C3971 C3970 1.366 . S
C3971 C3975 1.385 . S
C3972 H3953 0.951 . S
C3972 C3970 1.388 . S
C3972 C3973 1.366 . S
C3973 C3972 1.366 . S
C3973 C3974 1.414 . S
C3973 C3976 1.499 . S
C3974 H3954 0.950 . S
C3974 C3973 1.414 . S
C3974 C3975 1.374 . S
C3975 H3955 0.950 . S
C3975 C3971 1.385 . S
C3975 C3974 1.374 . S
C3976 C3973 1.499 . S
C3976 C3977 1.373 . S
C3976 C3978 1.389 . S
C3977 H3956 0.950 . S
C3977 C3976 1.373 . S
C3977 C3993 1.377 . S
C3978 C3976 1.389 . S
C3978 C3979 1.524 . S
C3978 C3992 1.377 . S
C3979 C3978 1.524 . S
C3979 C3980 1.397 . S
C3979 C3984 1.363 . S
C3980 H3957 0.950 . S
C3980 C3979 1.397 . S
C3980 C3981 1.334 . S
C3981 H3958 0.950 . S
C3981 C3980 1.334 . S
C3981 C3982 1.287 . S
C3982 C3981 1.287 . S
C3982 C3983 1.524 . S
C3982 H4001 0.913 . S
C3983 H3959 0.950 . S
C3983 C3982 1.524 . S
C3983 C3984 1.415 . S
C3984 H3960 0.950 . S
C3984 C3979 1.363 . S
C3984 C3983 1.415 . S
C3985 H3961 0.951 . S
C3985 C3986 1.366 . S
C3985 C3987 1.388 . S
C3986 C3985 1.366 . S
C3986 C3990 1.385 . S
C3987 H3962 0.951 . S
C3987 C3985 1.388 . S
C3987 C3988 1.366 . S
C3988 C3987 1.366 . S
C3988 C3989 1.414 . S
C3988 C3991 1.499 . S
C3989 H3963 0.950 . S
C3989 C3988 1.414 . S
C3989 C3990 1.374 . S
C3990 H3964 0.950 . S
C3990 C3986 1.385 . S
C3990 C3989 1.374 . S
C3991 C3988 1.499 . S
C3991 C3992 1.373 . S
C3991 C3993 1.389 . S
C3992 H3965 0.950 . S
C3992 C3978 1.377 . S
C3992 C3991 1.373 . S
C3993 C3977 1.377 . S
C3993 C3991 1.389 . S
C3993 C3994 1.524 . S
C3994 C3993 1.524 . S
C3994 C3995 1.397 . S
C3994 C3999 1.363 . S
C3995 H3966 0.950 . S
C3995 C3994 1.397 . S
C3995 C3996 1.334 . S
C3996 H3967 0.950 . S
C3996 C3995 1.334 . S
C3996 C3997 1.287 . S
C3997 C3996 1.287 . S
C3997 C3998 1.524 . S
C3997 H4000 0.999 . S
C3998 H3968 0.950 . S
C3998 C3997 1.524 . S
C3998 C3999 1.415 . S
C3999 H3969 0.950 . S
C3999 C3994 1.363 . S
C3999 C3998 1.415 . S
H4000 C3997 0.999 . S
H4001 C3982 0.913 . S
H4002 C4020 0.951 . S
H4003 C4022 0.951 . S
H4004 C4024 0.960 . S
H4005 C4025 0.967 . S
H4006 C4027 0.950 . S
H4007 C4030 0.950 . S
H4008 C4031 0.950 . S
H4009 C4033 0.950 . S
H4010 C4034 0.950 . S
H4011 C4035 0.951 . S
H4012 C4037 0.951 . S
H4013 C4039 0.950 . S
H4014 C4040 0.950 . S
H4015 C4042 0.950 . S
H4016 C4045 0.950 . S
H4017 C4046 0.950 . S
H4018 C4048 0.950 . S
H4019 C4049 0.950 . S
C4020 H4002 0.951 . S
C4020 C4021 1.366 . S
C4020 C4022 1.388 . S
C4021 C4020 1.366 . S
C4021 C4025 1.373 1_455 S
C4022 H4003 0.951 . S
C4022 C4020 1.388 . S
C4022 C4023 1.366 . S
C4023 C4022 1.366 . S
C4023 C4024 1.414 . S
C4023 C4026 1.499 . S
C4024 H4004 0.960 . S
C4024 C4023 1.414 . S
C4024 C4025 1.370 1_455 S
C4025 H4005 0.967 . S
C4025 C4021 1.373 1_655 S
C4025 C4024 1.370 1_655 S
C4026 C4023 1.499 . S
C4026 C4027 1.373 . S
C4026 C4028 1.389 . S
C4027 H4006 0.950 . S
C4027 C4026 1.373 . S
C4027 C4043 1.377 . S
C4028 C4026 1.389 . S
C4028 C4029 1.524 1_455 S
C4028 C4042 1.377 . S
C4029 C4028 1.524 1_655 S
C4029 C4030 1.397 . S
C4029 C4034 1.363 1_655 S
C4030 H4007 0.950 . S
C4030 C4029 1.397 . S
C4030 C4031 1.334 . S
C4031 H4008 0.950 . S
C4031 C4030 1.334 . S
C4031 C4032 1.287 . S
C4032 C4031 1.287 . S
C4032 C4033 1.524 . S
C4032 H4051 0.913 . S
C4033 H4009 0.950 . S
C4033 C4032 1.524 . S
C4033 C4034 1.415 1_655 S
C4034 H4010 0.950 . S
C4034 C4029 1.363 1_455 S
C4034 C4033 1.415 1_455 S
C4035 H4011 0.951 . S
C4035 C4036 1.366 . S
C4035 C4037 1.388 . S
C4036 C4035 1.366 . S
C4036 C4040 1.385 . S
C4037 H4012 0.951 . S
C4037 C4035 1.388 . S
C4037 C4038 1.366 . S
C4038 C4037 1.366 . S
C4038 C4039 1.414 . S
C4038 C4041 1.499 . S
C4039 H4013 0.950 . S
C4039 C4038 1.414 . S
C4039 C4040 1.374 . S
C4040 H4014 0.950 . S
C4040 C4036 1.385 . S
C4040 C4039 1.374 . S
C4041 C4038 1.499 . S
C4041 C4042 1.373 . S
C4041 C4043 1.389 . S
C4042 H4015 0.950 . S
C4042 C4028 1.377 . S
C4042 C4041 1.373 . S
C4043 C4027 1.377 . S
C4043 C4041 1.389 . S
C4043 C4044 1.524 . S
C4044 C4043 1.524 . S
C4044 C4045 1.397 . S
C4044 C4049 1.363 . S
C4045 H4016 0.950 . S
C4045 C4044 1.397 . S
C4045 C4046 1.334 . S
C4046 H4017 0.950 . S
C4046 C4045 1.334 . S
C4046 C4047 1.287 . S
C4047 C4046 1.287 . S
C4047 C4048 1.524 . S
C4047 H4050 0.999 . S
C4048 H4018 0.950 . S
C4048 C4047 1.524 . S
C4048 C4049 1.415 . S
C4049 H4019 0.950 . S
C4049 C4044 1.363 . S
C4049 C4048 1.415 . S
H4050 C4047 0.999 . S
H4051 C4032 0.913 . S
H4052 C4070 0.951 . S
H4053 C4072 0.951 . S
H4054 C4074 0.950 . S
H4055 C4075 0.950 . S
H4056 C4077 0.950 . S
H4057 C4080 0.950 . S
H4058 C4081 0.950 . S
H4059 C4083 0.950 . S
H4060 C4084 0.950 . S
H4061 C4085 0.951 . S
H4062 C4087 0.951 . S
H4063 C4089 0.950 . S
H4064 C4090 0.950 . S
H4065 C4092 0.950 . S
H4066 C4095 0.950 . S
H4067 C4096 0.950 . S
H4068 C4098 0.950 . S
H4069 C4099 0.950 . S
C4070 H4052 0.951 . S
C4070 C4071 1.366 . S
C4070 C4072 1.388 . S
C4071 C4070 1.366 . S
C4071 C4075 1.385 . S
C4072 H4053 0.951 . S
C4072 C4070 1.388 . S
C4072 C4073 1.366 . S
C4073 C4072 1.366 . S
C4073 C4074 1.414 . S
C4073 C4076 1.499 . S
C4074 H4054 0.950 . S
C4074 C4073 1.414 . S
C4074 C4075 1.374 . S
C4075 H4055 0.950 . S
C4075 C4071 1.385 . S
C4075 C4074 1.374 . S
C4076 C4073 1.499 . S
C4076 C4077 1.373 . S
C4076 C4078 1.389 . S
C4077 H4056 0.950 . S
C4077 C4076 1.373 . S
C4077 C4093 1.377 . S
C4078 C4076 1.389 . S
C4078 C4079 1.524 . S
C4078 C4092 1.377 . S
C4079 C4078 1.524 . S
C4079 C4080 1.397 . S
C4079 C4084 1.363 . S
C4080 H4057 0.950 . S
C4080 C4079 1.397 . S
C4080 C4081 1.334 . S
C4081 H4058 0.950 . S
C4081 C4080 1.334 . S
C4081 C4082 1.287 . S
C4082 C4081 1.287 . S
C4082 C4083 1.524 . S
C4082 H4101 0.913 . S
C4083 H4059 0.950 . S
C4083 C4082 1.524 . S
C4083 C4084 1.415 . S
C4084 H4060 0.950 . S
C4084 C4079 1.363 . S
C4084 C4083 1.415 . S
C4085 H4061 0.951 . S
C4085 C4086 1.366 . S
C4085 C4087 1.388 . S
C4086 C4085 1.366 . S
C4086 C4090 1.385 . S
C4087 H4062 0.951 . S
C4087 C4085 1.388 . S
C4087 C4088 1.366 . S
C4088 C4087 1.366 . S
C4088 C4089 1.414 . S
C4088 C4091 1.499 . S
C4089 H4063 0.950 . S
C4089 C4088 1.414 . S
C4089 C4090 1.374 . S
C4090 H4064 0.950 . S
C4090 C4086 1.385 . S
C4090 C4089 1.374 . S
C4091 C4088 1.499 . S
C4091 C4092 1.373 . S
C4091 C4093 1.389 . S
C4092 H4065 0.950 . S
C4092 C4078 1.377 . S
C4092 C4091 1.373 . S
C4093 C4077 1.377 . S
C4093 C4091 1.389 . S
C4093 C4094 1.524 . S
C4094 C4093 1.524 . S
C4094 C4095 1.397 . S
C4094 C4099 1.363 . S
C4095 H4066 0.950 . S
C4095 C4094 1.397 . S
C4095 C4096 1.334 . S
C4096 H4067 0.950 . S
C4096 C4095 1.334 . S
C4096 C4097 1.287 . S
C4097 C4096 1.287 . S
C4097 C4098 1.524 . S
C4097 H4100 0.999 . S
C4098 H4068 0.950 . S
C4098 C4097 1.524 . S
C4098 C4099 1.415 . S
C4099 H4069 0.950 . S
C4099 C4094 1.363 . S
C4099 C4098 1.415 . S
H4100 C4097 0.999 . S
H4101 C4082 0.913 . S
H4102 C4120 0.951 . S
H4103 C4122 0.951 . S
H4104 C4124 0.950 . S
H4105 C4125 0.950 . S
H4106 C4127 0.943 1_455 S
H4107 C4130 0.950 . S
H4108 C4131 0.950 . S
H4109 C4133 0.950 . S
H4110 C4134 0.950 . S
H4111 C4135 0.951 . S
H4112 C4137 0.951 . S
H4113 C4139 0.950 . S
H4114 C4140 0.950 . S
H4115 C4142 0.950 . S
H4116 C4145 0.950 . S
H4117 C4146 0.950 . S
H4118 C4148 0.950 . S
H4119 C4149 0.950 . S
C4120 H4102 0.951 . S
C4120 C4121 1.366 1_455 S
C4120 C4122 1.388 . S
C4121 C4120 1.366 1_655 S
C4121 C4125 1.385 . S
C4122 H4103 0.951 . S
C4122 C4120 1.388 . S
C4122 C4123 1.366 1_455 S
C4123 C4122 1.366 1_655 S
C4123 C4124 1.414 . S
C4123 C4126 1.499 . S
C4124 H4104 0.950 . S
C4124 C4123 1.414 . S
C4124 C4125 1.374 . S
C4125 H4105 0.950 . S
C4125 C4121 1.385 . S
C4125 C4124 1.374 . S
C4126 C4123 1.499 . S
C4126 C4127 1.373 . S
C4126 C4128 1.389 . S
C4127 H4106 0.943 1_655 S
C4127 C4126 1.373 . S
C4127 C4143 1.377 . S
C4128 C4126 1.389 . S
C4128 C4129 1.524 . S
C4128 C4142 1.377 . S
C4129 C4128 1.524 . S
C4129 C4130 1.397 . S
C4129 C4134 1.363 . S
C4130 H4107 0.950 . S
C4130 C4129 1.397 . S
C4130 C4131 1.334 . S
C4131 H4108 0.950 . S
C4131 C4130 1.334 . S
C4131 C4132 1.287 . S
C4132 C4131 1.287 . S
C4132 C4133 1.524 . S
C4132 H4151 0.913 . S
C4133 H4109 0.950 . S
C4133 C4132 1.524 . S
C4133 C4134 1.415 . S
C4134 H4110 0.950 . S
C4134 C4129 1.363 . S
C4134 C4133 1.415 . S
C4135 H4111 0.951 . S
C4135 C4136 1.366 . S
C4135 C4137 1.388 . S
C4136 C4135 1.366 . S
C4136 C4140 1.385 . S
C4137 H4112 0.951 . S
C4137 C4135 1.388 . S
C4137 C4138 1.366 . S
C4138 C4137 1.366 . S
C4138 C4139 1.414 . S
C4138 C4141 1.499 . S
C4139 H4113 0.950 . S
C4139 C4138 1.414 . S
C4139 C4140 1.374 . S
C4140 H4114 0.950 . S
C4140 C4136 1.385 . S
C4140 C4139 1.374 . S
C4141 C4138 1.499 . S
C4141 C4142 1.373 . S
C4141 C4143 1.389 . S
C4142 H4115 0.950 . S
C4142 C4128 1.377 . S
C4142 C4141 1.373 . S
C4143 C4127 1.377 . S
C4143 C4141 1.389 . S
C4143 C4144 1.524 1_655 S
C4144 C4143 1.524 1_455 S
C4144 C4145 1.397 . S
C4144 C4149 1.363 1_455 S
C4145 H4116 0.950 . S
C4145 C4144 1.397 . S
C4145 C4146 1.334 . S
C4146 H4117 0.950 . S
C4146 C4145 1.334 . S
C4146 C4147 1.287 . S
C4147 C4146 1.287 . S
C4147 C4148 1.524 . S
C4147 H4150 0.999 . S
C4148 H4118 0.950 . S
C4148 C4147 1.524 . S
C4148 C4149 1.415 1_455 S
C4149 H4119 0.950 . S
C4149 C4144 1.363 1_655 S
C4149 C4148 1.415 1_655 S
H4150 C4147 0.999 . S
H4151 C4132 0.913 . S
C586 C546 1.581 . S
C571 C8 1.598 . S
C636 C510 1.381 . S
C621 C19 1.386 . S
C686 C534 1.099 . S
C671 C30 1.116 . S
C736 C522 1.575 . S
C721 C41 1.558 1_565 S
C786 C438 1.580 . S
C771 C52 1.598 . S
C821 C63 1.558 1_556 S
C836 C450 1.572 . S
C886 C414 1.381 . S
C871 C74 1.386 . S
C921 C85 1.118 . S
C936 C426 1.094 . S
C986 C498 1.580 . S
C971 C96 1.598 . S
C1021 C107 1.559 1_655 S
C1036 C474 1.572 . S
C1071 C118 1.385 . S
C1086 C462 1.381 . S
C1136 C486 1.099 . S
C1121 C129 1.116 . S
C1186 C402 1.584 . S
C1171 C140 1.573 . S
C1221 C151 1.337 . S
C1236 C366 1.383 . S
C1286 C390 1.100 . S
C1271 C162 1.104 . S
C1321 C173 1.536 . S
C1336 C378 1.568 . S
C1386 C294 1.584 . S
C1371 C184 1.573 . S
C1436 C306 1.571 . S
C1421 C195 1.536 . S
C1471 C206 1.338 . S
C1486 C270 1.382 . S
C1521 C217 1.104 . S
C1536 C282 1.095 . S
C1571 C228 1.573 . S
C1586 C354 1.584 . S
C1621 C239 1.536 . S
C1636 C330 1.568 . S
C1686 C318 1.382 . S
C1671 C250 1.338 . S
C1721 C261 1.103 . S
C1736 C342 1.097 . S
C1786 C273 1.406 . S
C1771 C7 1.417 . S
C1836 C285 1.304 . S
C1821 C18 1.336 . S
C1871 C29 1.206 . S
C1886 C297 1.216 1_545 S
C1921 C40 1.037 1_565 S
C1936 C309 1.043 . S
C1986 C321 1.406 . S
C1971 C51 1.416 . S
C2021 C62 1.038 1_556 S
C2036 C333 1.043 . S
C2086 C345 1.304 . S
C2071 C73 1.336 . S
C2136 C357 1.216 1_554 S
C2121 C84 1.204 . S
C2186 C369 1.406 . S
C2171 C95 1.416 . S
C2221 C106 1.038 1_655 S
C2236 C381 1.043 . S
C2271 C117 1.336 . S
C2286 C393 1.304 . S
C2321 C128 1.206 . S
C2336 C405 1.216 1_455 S
C2371 C139 1.371 . S
C2386 C417 1.404 . S
C2421 C150 1.247 . S
C2436 C429 1.302 . S
C2471 C161 1.182 . S
C2486 C441 1.214 1_565 S
C2521 C172 1.008 . S
C2536 C453 1.043 . S
C2571 C183 1.371 . S
C2586 C465 1.404 . S
C2636 C477 1.043 . S
C2621 C194 1.009 . S
C2686 C489 1.303 . S
C2671 C205 1.247 . S
C2736 C501 1.214 1_556 S
C2721 C216 1.184 . S
C2786 C513 1.404 . S
C2771 C227 1.371 . S
C2821 C238 1.008 . S
C2836 C525 1.043 . S
C2871 C249 1.245 . S
C2886 C537 1.302 . S
C2921 C260 1.183 . S
C2936 C549 1.213 1_655 S
C2971 C5 1.342 . S
C2986 C364 1.499 . S
C3036 C400 1.503 . S
C3021 C16 1.400 . S
C3071 C27 1.220 1_545 S
C3086 C376 1.335 . S
C3136 C388 1.565 . S
C3121 C38 1.372 1_565 S
C3171 C49 1.343 . S
C3186 C268 1.499 . S
C3221 C60 1.375 1_556 S
C3236 C280 1.563 . S
C3271 C71 1.401 . S
C3286 C292 1.503 . S
C3321 C82 1.219 1_554 S
C3336 C304 1.334 . S
C3386 C316 1.499 . S
C3371 C93 1.343 . S
C3436 C340 1.564 . S
C3421 C104 1.370 1_655 S
C3471 C115 1.401 . S
C3486 C352 1.504 . S
C3521 C126 1.218 1_455 S
C3536 C328 1.333 . S
C3586 C508 1.503 . S
C3571 C137 1.251 . S
C3636 C544 1.507 . S
C3621 C148 1.202 . S
C3671 C159 1.153 . S
C3686 C520 1.335 . S
C3736 C532 1.571 . S
C3721 C170 1.230 . S
C3771 C181 1.250 . S
C3786 C412 1.503 . S
C3821 C192 1.228 . S
C3836 C424 1.569 . S
C3871 C203 1.201 . S
C3886 C436 1.508 . S
C3936 C448 1.337 . S
C3921 C214 1.158 . S
C3986 C460 1.503 . S
C3971 C225 1.252 . S
C4036 C484 1.571 . S
C4021 C236 1.229 . S
C4071 C247 1.201 . S
C4086 C496 1.508 . S
C4136 C472 1.337 . S
C4121 C258 1.158 . S
