# Generated by pormake.
# Topology tbo, (3,4)-cn, num edge types: 1
# Building blocks:
#     Node 0, Type 0, BuildingBlock: BELTOD_clean_linker_0, # of connection points: 3
#     Node 1, Type 0, BuildingBlock: BELTOD_clean_linker_0, # of connection points: 3
#     Node 2, Type 0, BuildingBlock: BELTOD_clean_linker_0, # of connection points: 3
#     Node 3, Type 0, BuildingBlock: BELTOD_clean_linker_0, # of connection points: 3
#     Node 4, Type 0, BuildingBlock: BELTOD_clean_linker_0, # of connection points: 3
#     Node 5, Type 0, BuildingBlock: BELTOD_clean_linker_0, # of connection points: 3
#     Node 6, Type 0, BuildingBlock: BELTOD_clean_linker_0, # of connection points: 3
#     Node 7, Type 0, BuildingBlock: BELTOD_clean_linker_0, # of connection points: 3
#     Node 8, Type 0, BuildingBlock: BELTOD_clean_linker_0, # of connection points: 3
#     Node 9, Type 0, BuildingBlock: BELTOD_clean_linker_0, # of connection points: 3
#     Node 10, Type 0, BuildingBlock: BELTOD_clean_linker_0, # of connection points: 3
#     Node 11, Type 0, BuildingBlock: BELTOD_clean_linker_0, # of connection points: 3
#     Node 12, Type 0, BuildingBlock: BELTOD_clean_linker_0, # of connection points: 3
#     Node 13, Type 0, BuildingBlock: BELTOD_clean_linker_0, # of connection points: 3
#     Node 14, Type 0, BuildingBlock: BELTOD_clean_linker_0, # of connection points: 3
#     Node 15, Type 0, BuildingBlock: BELTOD_clean_linker_0, # of connection points: 3
#     Node 16, Type 0, BuildingBlock: BELTOD_clean_linker_0, # of connection points: 3
#     Node 17, Type 0, BuildingBlock: BELTOD_clean_linker_0, # of connection points: 3
#     Node 18, Type 0, BuildingBlock: BELTOD_clean_linker_0, # of connection points: 3
#     Node 19, Type 0, BuildingBlock: BELTOD_clean_linker_0, # of connection points: 3
#     Node 20, Type 0, BuildingBlock: BELTOD_clean_linker_0, # of connection points: 3
#     Node 21, Type 0, BuildingBlock: BELTOD_clean_linker_0, # of connection points: 3
#     Node 22, Type 0, BuildingBlock: BELTOD_clean_linker_0, # of connection points: 3
#     Node 23, Type 0, BuildingBlock: BELTOD_clean_linker_0, # of connection points: 3
#     Node 24, Type 0, BuildingBlock: BELTOD_clean_linker_0, # of connection points: 3
#     Node 25, Type 0, BuildingBlock: BELTOD_clean_linker_0, # of connection points: 3
#     Node 26, Type 0, BuildingBlock: BELTOD_clean_linker_0, # of connection points: 3
#     Node 27, Type 0, BuildingBlock: BELTOD_clean_linker_0, # of connection points: 3
#     Node 28, Type 0, BuildingBlock: BELTOD_clean_linker_0, # of connection points: 3
#     Node 29, Type 0, BuildingBlock: BELTOD_clean_linker_0, # of connection points: 3
#     Node 30, Type 0, BuildingBlock: BELTOD_clean_linker_0, # of connection points: 3
#     Node 31, Type 0, BuildingBlock: BELTOD_clean_linker_0, # of connection points: 3
#     Node 32, Type 1, BuildingBlock: ESEHIV_clean_sbu_0, # of connection points: 4
#     Node 33, Type 1, BuildingBlock: ESEHIV_clean_sbu_0, # of connection points: 4
#     Node 34, Type 1, BuildingBlock: ESEHIV_clean_sbu_0, # of connection points: 4
#     Node 35, Type 1, BuildingBlock: ESEHIV_clean_sbu_0, # of connection points: 4
#     Node 36, Type 1, BuildingBlock: ESEHIV_clean_sbu_0, # of connection points: 4
#     Node 37, Type 1, BuildingBlock: ESEHIV_clean_sbu_0, # of connection points: 4
#     Node 38, Type 1, BuildingBlock: ESEHIV_clean_sbu_0, # of connection points: 4
#     Node 39, Type 1, BuildingBlock: ESEHIV_clean_sbu_0, # of connection points: 4
#     Node 40, Type 1, BuildingBlock: ESEHIV_clean_sbu_0, # of connection points: 4
#     Node 41, Type 1, BuildingBlock: ESEHIV_clean_sbu_0, # of connection points: 4
#     Node 42, Type 1, BuildingBlock: ESEHIV_clean_sbu_0, # of connection points: 4
#     Node 43, Type 1, BuildingBlock: ESEHIV_clean_sbu_0, # of connection points: 4
#     Node 44, Type 1, BuildingBlock: ESEHIV_clean_sbu_0, # of connection points: 4
#     Node 45, Type 1, BuildingBlock: ESEHIV_clean_sbu_0, # of connection points: 4
#     Node 46, Type 1, BuildingBlock: ESEHIV_clean_sbu_0, # of connection points: 4
#     Node 47, Type 1, BuildingBlock: ESEHIV_clean_sbu_0, # of connection points: 4
#     Node 48, Type 1, BuildingBlock: ESEHIV_clean_sbu_0, # of connection points: 4
#     Node 49, Type 1, BuildingBlock: ESEHIV_clean_sbu_0, # of connection points: 4
#     Node 50, Type 1, BuildingBlock: ESEHIV_clean_sbu_0, # of connection points: 4
#     Node 51, Type 1, BuildingBlock: ESEHIV_clean_sbu_0, # of connection points: 4
#     Node 52, Type 1, BuildingBlock: ESEHIV_clean_sbu_0, # of connection points: 4
#     Node 53, Type 1, BuildingBlock: ESEHIV_clean_sbu_0, # of connection points: 4
#     Node 54, Type 1, BuildingBlock: ESEHIV_clean_sbu_0, # of connection points: 4
#     Node 55, Type 1, BuildingBlock: ESEHIV_clean_sbu_0, # of connection points: 4
#     Edge 56, Type (0, 1), BuildingBlock: AJUNOK_clean_linker_0, # of connection points: 2
#     Edge 57, Type (0, 1), BuildingBlock: AJUNOK_clean_linker_0, # of connection points: 2
#     Edge 58, Type (0, 1), BuildingBlock: AJUNOK_clean_linker_0, # of connection points: 2
#     Edge 59, Type (0, 1), BuildingBlock: AJUNOK_clean_linker_0, # of connection points: 2
#     Edge 60, Type (0, 1), BuildingBlock: AJUNOK_clean_linker_0, # of connection points: 2
#     Edge 61, Type (0, 1), BuildingBlock: AJUNOK_clean_linker_0, # of connection points: 2
#     Edge 62, Type (0, 1), BuildingBlock: AJUNOK_clean_linker_0, # of connection points: 2
#     Edge 63, Type (0, 1), BuildingBlock: AJUNOK_clean_linker_0, # of connection points: 2
#     Edge 64, Type (0, 1), BuildingBlock: AJUNOK_clean_linker_0, # of connection points: 2
#     Edge 65, Type (0, 1), BuildingBlock: AJUNOK_clean_linker_0, # of connection points: 2
#     Edge 66, Type (0, 1), BuildingBlock: AJUNOK_clean_linker_0, # of connection points: 2
#     Edge 67, Type (0, 1), BuildingBlock: AJUNOK_clean_linker_0, # of connection points: 2
#     Edge 68, Type (0, 1), BuildingBlock: AJUNOK_clean_linker_0, # of connection points: 2
#     Edge 69, Type (0, 1), BuildingBlock: AJUNOK_clean_linker_0, # of connection points: 2
#     Edge 70, Type (0, 1), BuildingBlock: AJUNOK_clean_linker_0, # of connection points: 2
#     Edge 71, Type (0, 1), BuildingBlock: AJUNOK_clean_linker_0, # of connection points: 2
#     Edge 72, Type (0, 1), BuildingBlock: AJUNOK_clean_linker_0, # of connection points: 2
#     Edge 73, Type (0, 1), BuildingBlock: AJUNOK_clean_linker_0, # of connection points: 2
#     Edge 74, Type (0, 1), BuildingBlock: AJUNOK_clean_linker_0, # of connection points: 2
#     Edge 75, Type (0, 1), BuildingBlock: AJUNOK_clean_linker_0, # of connection points: 2
#     Edge 76, Type (0, 1), BuildingBlock: AJUNOK_clean_linker_0, # of connection points: 2
#     Edge 77, Type (0, 1), BuildingBlock: AJUNOK_clean_linker_0, # of connection points: 2
#     Edge 78, Type (0, 1), BuildingBlock: AJUNOK_clean_linker_0, # of connection points: 2
#     Edge 79, Type (0, 1), BuildingBlock: AJUNOK_clean_linker_0, # of connection points: 2
#     Edge 80, Type (0, 1), BuildingBlock: AJUNOK_clean_linker_0, # of connection points: 2
#     Edge 81, Type (0, 1), BuildingBlock: AJUNOK_clean_linker_0, # of connection points: 2
#     Edge 82, Type (0, 1), BuildingBlock: AJUNOK_clean_linker_0, # of connection points: 2
#     Edge 83, Type (0, 1), BuildingBlock: AJUNOK_clean_linker_0, # of connection points: 2
#     Edge 84, Type (0, 1), BuildingBlock: AJUNOK_clean_linker_0, # of connection points: 2
#     Edge 85, Type (0, 1), BuildingBlock: AJUNOK_clean_linker_0, # of connection points: 2
#     Edge 86, Type (0, 1), BuildingBlock: AJUNOK_clean_linker_0, # of connection points: 2
#     Edge 87, Type (0, 1), BuildingBlock: AJUNOK_clean_linker_0, # of connection points: 2
#     Edge 88, Type (0, 1), BuildingBlock: AJUNOK_clean_linker_0, # of connection points: 2
#     Edge 89, Type (0, 1), BuildingBlock: AJUNOK_clean_linker_0, # of connection points: 2
#     Edge 90, Type (0, 1), BuildingBlock: AJUNOK_clean_linker_0, # of connection points: 2
#     Edge 91, Type (0, 1), BuildingBlock: AJUNOK_clean_linker_0, # of connection points: 2
#     Edge 92, Type (0, 1), BuildingBlock: AJUNOK_clean_linker_0, # of connection points: 2
#     Edge 93, Type (0, 1), BuildingBlock: AJUNOK_clean_linker_0, # of connection points: 2
#     Edge 94, Type (0, 1), BuildingBlock: AJUNOK_clean_linker_0, # of connection points: 2
#     Edge 95, Type (0, 1), BuildingBlock: AJUNOK_clean_linker_0, # of connection points: 2
#     Edge 96, Type (0, 1), BuildingBlock: AJUNOK_clean_linker_0, # of connection points: 2
#     Edge 97, Type (0, 1), BuildingBlock: AJUNOK_clean_linker_0, # of connection points: 2
#     Edge 98, Type (0, 1), BuildingBlock: AJUNOK_clean_linker_0, # of connection points: 2
#     Edge 99, Type (0, 1), BuildingBlock: AJUNOK_clean_linker_0, # of connection points: 2
#     Edge 100, Type (0, 1), BuildingBlock: AJUNOK_clean_linker_0, # of connection points: 2
#     Edge 101, Type (0, 1), BuildingBlock: AJUNOK_clean_linker_0, # of connection points: 2
#     Edge 102, Type (0, 1), BuildingBlock: AJUNOK_clean_linker_0, # of connection points: 2
#     Edge 103, Type (0, 1), BuildingBlock: AJUNOK_clean_linker_0, # of connection points: 2
#     Edge 104, Type (0, 1), BuildingBlock: AJUNOK_clean_linker_0, # of connection points: 2
#     Edge 105, Type (0, 1), BuildingBlock: AJUNOK_clean_linker_0, # of connection points: 2
#     Edge 106, Type (0, 1), BuildingBlock: AJUNOK_clean_linker_0, # of connection points: 2
#     Edge 107, Type (0, 1), BuildingBlock: AJUNOK_clean_linker_0, # of connection points: 2
#     Edge 108, Type (0, 1), BuildingBlock: AJUNOK_clean_linker_0, # of connection points: 2
#     Edge 109, Type (0, 1), BuildingBlock: AJUNOK_clean_linker_0, # of connection points: 2
#     Edge 110, Type (0, 1), BuildingBlock: AJUNOK_clean_linker_0, # of connection points: 2
#     Edge 111, Type (0, 1), BuildingBlock: AJUNOK_clean_linker_0, # of connection points: 2
#     Edge 112, Type (0, 1), BuildingBlock: AJUNOK_clean_linker_0, # of connection points: 2
#     Edge 113, Type (0, 1), BuildingBlock: AJUNOK_clean_linker_0, # of connection points: 2
#     Edge 114, Type (0, 1), BuildingBlock: AJUNOK_clean_linker_0, # of connection points: 2
#     Edge 115, Type (0, 1), BuildingBlock: AJUNOK_clean_linker_0, # of connection points: 2
#     Edge 116, Type (0, 1), BuildingBlock: AJUNOK_clean_linker_0, # of connection points: 2
#     Edge 117, Type (0, 1), BuildingBlock: AJUNOK_clean_linker_0, # of connection points: 2
#     Edge 118, Type (0, 1), BuildingBlock: AJUNOK_clean_linker_0, # of connection points: 2
#     Edge 119, Type (0, 1), BuildingBlock: AJUNOK_clean_linker_0, # of connection points: 2
#     Edge 120, Type (0, 1), BuildingBlock: AJUNOK_clean_linker_0, # of connection points: 2
#     Edge 121, Type (0, 1), BuildingBlock: AJUNOK_clean_linker_0, # of connection points: 2
#     Edge 122, Type (0, 1), BuildingBlock: AJUNOK_clean_linker_0, # of connection points: 2
#     Edge 123, Type (0, 1), BuildingBlock: AJUNOK_clean_linker_0, # of connection points: 2
#     Edge 124, Type (0, 1), BuildingBlock: AJUNOK_clean_linker_0, # of connection points: 2
#     Edge 125, Type (0, 1), BuildingBlock: AJUNOK_clean_linker_0, # of connection points: 2
#     Edge 126, Type (0, 1), BuildingBlock: AJUNOK_clean_linker_0, # of connection points: 2
#     Edge 127, Type (0, 1), BuildingBlock: AJUNOK_clean_linker_0, # of connection points: 2
#     Edge 128, Type (0, 1), BuildingBlock: AJUNOK_clean_linker_0, # of connection points: 2
#     Edge 129, Type (0, 1), BuildingBlock: AJUNOK_clean_linker_0, # of connection points: 2
#     Edge 130, Type (0, 1), BuildingBlock: AJUNOK_clean_linker_0, # of connection points: 2
#     Edge 131, Type (0, 1), BuildingBlock: AJUNOK_clean_linker_0, # of connection points: 2
#     Edge 132, Type (0, 1), BuildingBlock: AJUNOK_clean_linker_0, # of connection points: 2
#     Edge 133, Type (0, 1), BuildingBlock: AJUNOK_clean_linker_0, # of connection points: 2
#     Edge 134, Type (0, 1), BuildingBlock: AJUNOK_clean_linker_0, # of connection points: 2
#     Edge 135, Type (0, 1), BuildingBlock: AJUNOK_clean_linker_0, # of connection points: 2
#     Edge 136, Type (0, 1), BuildingBlock: AJUNOK_clean_linker_0, # of connection points: 2
#     Edge 137, Type (0, 1), BuildingBlock: AJUNOK_clean_linker_0, # of connection points: 2
#     Edge 138, Type (0, 1), BuildingBlock: AJUNOK_clean_linker_0, # of connection points: 2
#     Edge 139, Type (0, 1), BuildingBlock: AJUNOK_clean_linker_0, # of connection points: 2
#     Edge 140, Type (0, 1), BuildingBlock: AJUNOK_clean_linker_0, # of connection points: 2
#     Edge 141, Type (0, 1), BuildingBlock: AJUNOK_clean_linker_0, # of connection points: 2
#     Edge 142, Type (0, 1), BuildingBlock: AJUNOK_clean_linker_0, # of connection points: 2
#     Edge 143, Type (0, 1), BuildingBlock: AJUNOK_clean_linker_0, # of connection points: 2
#     Edge 144, Type (0, 1), BuildingBlock: AJUNOK_clean_linker_0, # of connection points: 2
#     Edge 145, Type (0, 1), BuildingBlock: AJUNOK_clean_linker_0, # of connection points: 2
#     Edge 146, Type (0, 1), BuildingBlock: AJUNOK_clean_linker_0, # of connection points: 2
#     Edge 147, Type (0, 1), BuildingBlock: AJUNOK_clean_linker_0, # of connection points: 2
#     Edge 148, Type (0, 1), BuildingBlock: AJUNOK_clean_linker_0, # of connection points: 2
#     Edge 149, Type (0, 1), BuildingBlock: AJUNOK_clean_linker_0, # of connection points: 2
#     Edge 150, Type (0, 1), BuildingBlock: AJUNOK_clean_linker_0, # of connection points: 2
#     Edge 151, Type (0, 1), BuildingBlock: AJUNOK_clean_linker_0, # of connection points: 2
# Relax obj value: 0.004
# Max RMSD: 0.126
# Mean RMSD: 0.052
data_MOF--net-tbo--node1-ESEHIV_clean_sbu_0--node2-BELTOD_clean_linker_0--edge1-AJUNOK_clean_linker_0
_symmetry_space_group_name_H-M    P1
_symmetry_Int_Tables_number       1
_symmetry_cell_setting            triclinic
loop_
_symmetry_equiv_pos_as_xyz
'x, y, z'
_cell_length_a     64.8266
_cell_length_b     65.458983
_cell_length_c     63.99213
_cell_angle_alpha  90.014175
_cell_angle_beta   92.995025
_cell_angle_gamma 90.971721
loop_
_atom_site_label
_atom_site_type_symbol
_atom_site_fract_x
_atom_site_fract_y
_atom_site_fract_z
_atom_type_partial_charge
P0 P 0.20003 0.18268 0.20364 0.0
H1 H 0.17753 0.18744 0.24173 0.0
H2 H 0.14475 0.20368 0.24842 0.0
H3 H 0.13257 0.21142 0.18192 0.0
H4 H 0.16477 0.19454 0.17533 0.0
H5 H 0.23259 0.15841 0.22412 0.0
H6 H 0.23786 0.12185 0.2279 0.0
H7 H 0.18342 0.10998 0.18758 0.0
H8 H 0.17752 0.14686 0.18494 0.0
H9 H 0.21685 0.22291 0.19478 0.0
H10 H 0.19801 0.16903 0.15948 0.0
O11 O 0.2149 0.19334 0.22291 0.0
H12 H 0.22242 0.24127 0.16237 0.0
H13 H 0.20296 0.18764 0.12678 0.0
C14 C 0.17381 0.18995 0.20806 0.0
C15 C 0.16755 0.19216 0.22857 0.0
C16 C 0.14889 0.20163 0.23238 0.0
C17 C 0.13607 0.20901 0.21572 0.0
C18 C 0.14188 0.20572 0.19512 0.0
C19 C 0.16047 0.19613 0.19134 0.0
C20 C 0.20437 0.15543 0.20462 0.0
C21 C 0.22167 0.148 0.21615 0.0
C22 C 0.22484 0.12699 0.21811 0.0
C23 C 0.21092 0.11282 0.20836 0.0
C24 C 0.19414 0.12037 0.19587 0.0
C25 C 0.1908 0.14148 0.19418 0.0
C26 C 0.20738 0.19447 0.1796 0.0
C27 C 0.2142 0.21491 0.18005 0.0
C28 C 0.21704 0.22552 0.16148 0.0
C29 C 0.21268 0.21604 0.14202 0.0
C30 C 0.2064 0.19535 0.14156 0.0
C31 C 0.20367 0.18467 0.16023 0.0
P32 P 0.88438 0.1696 0.17265 0.0
H33 H 0.92548 0.1584 0.18827 0.0
H34 H 0.95001 0.1733 0.21453 0.0
H35 H 0.90849 0.22315 0.22318 0.0
H36 H 0.88372 0.20783 0.19712 0.0
H37 H 0.88012 0.12499 0.17061 0.0
H38 H 0.86513 0.09985 0.19383 0.0
H39 H 0.84385 0.14856 0.23236 0.0
H40 H 0.85921 0.17378 0.2091 0.0
H41 H 0.89134 0.20874 0.15189 0.0
H42 H 0.84039 0.16662 0.1591 0.0
O43 O 0.8975 0.157 0.15512 0.0
H44 H 0.8703 0.22821 0.12624 0.0
H45 H 0.81915 0.18624 0.13383 0.0
C46 C 0.90301 0.18228 0.19036 0.0
C47 C 0.92175 0.17268 0.19562 0.0
C48 C 0.93574 0.18116 0.2107 0.0
C49 C 0.93117 0.19933 0.22106 0.0
C50 C 0.91233 0.20895 0.21574 0.0
C51 C 0.89829 0.20039 0.20063 0.0
C52 C 0.87082 0.15127 0.18816 0.0
C53 C 0.87208 0.13033 0.18392 0.0
C54 C 0.86351 0.11594 0.19722 0.0
C55 C 0.85358 0.12221 0.21509 0.0
C56 C 0.8518 0.14325 0.21896 0.0
C57 C 0.86037 0.15767 0.20559 0.0
C58 C 0.86735 0.18645 0.15778 0.0
C59 C 0.87544 0.20401 0.14842 0.0
C60 C 0.86341 0.21508 0.13367 0.0
C61 C 0.84312 0.20863 0.12774 0.0
C62 C 0.83484 0.1914 0.13771 0.0
C63 C 0.8469 0.18034 0.15243 0.0
P64 P 0.85645 0.87336 0.16451 0.0
H65 H 0.86851 0.91566 0.1733 0.0
H66 H 0.85311 0.94299 0.1928 0.0
H67 H 0.80395 0.90181 0.20958 0.0
H68 H 0.81937 0.87438 0.18956 0.0
H69 H 0.89671 0.85669 0.15641 0.0
H70 H 0.92256 0.83864 0.17794 0.0
H71 H 0.88185 0.83791 0.22924 0.0
H72 H 0.85608 0.85677 0.20762 0.0
H73 H 0.81621 0.8836 0.14498 0.0
H74 H 0.85521 0.83092 0.14925 0.0
O75 O 0.87008 0.88533 0.14663 0.0
H76 H 0.79306 0.86585 0.11942 0.0
H77 H 0.83199 0.81302 0.1236 0.0
C78 C 0.84496 0.89304 0.17973 0.0
C79 C 0.85434 0.91247 0.18101 0.0
C80 C 0.84551 0.92812 0.19217 0.0
C81 C 0.82715 0.92467 0.20249 0.0
C82 C 0.81782 0.90509 0.20138 0.0
C83 C 0.82673 0.88936 0.19015 0.0
C84 C 0.87448 0.85829 0.18041 0.0
C85 C 0.89322 0.85262 0.17226 0.0
C86 C 0.90798 0.84206 0.18457 0.0
C87 C 0.90424 0.83654 0.2053 0.0
C88 C 0.88526 0.84197 0.21337 0.0
C89 C 0.87047 0.85266 0.201 0.0
C90 C 0.83714 0.85839 0.14962 0.0
C91 C 0.81941 0.86793 0.14102 0.0
C92 C 0.80618 0.85778 0.12632 0.0
C93 C 0.81056 0.83794 0.11964 0.0
C94 C 0.82816 0.82827 0.12852 0.0
C95 C 0.84135 0.83842 0.14333 0.0
P96 P 0.13851 0.83251 0.14678 0.0
H97 H 0.14738 0.87581 0.13964 0.0
H98 H 0.16237 0.90302 0.16197 0.0
H99 H 0.17576 0.85904 0.21091 0.0
H100 H 0.16003 0.83186 0.18859 0.0
H101 H 0.13033 0.79416 0.1249 0.0
H102 H 0.14988 0.77438 0.10065 0.0
H103 H 0.20143 0.81664 0.10973 0.0
H104 H 0.18181 0.83627 0.13447 0.0
H105 H 0.09631 0.83794 0.15926 0.0
H106 H 0.1443 0.79374 0.16963 0.0
O107 O 0.12321 0.84452 0.12915 0.0
H108 H 0.07335 0.81749 0.18038 0.0
H109 H 0.12116 0.77285 0.19035 0.0
C110 C 0.15221 0.85183 0.16257 0.0
C111 C 0.15356 0.87195 0.15516 0.0
C112 C 0.16224 0.88754 0.16794 0.0
C113 C 0.16992 0.88335 0.18843 0.0
C114 C 0.16945 0.86294 0.19546 0.0
C115 C 0.16064 0.84733 0.18264 0.0
C116 C 0.15477 0.81642 0.13193 0.0
C117 C 0.14605 0.7989 0.12217 0.0
C118 C 0.15718 0.78769 0.10813 0.0
C119 C 0.17724 0.79387 0.10332 0.0
C120 C 0.18616 0.81125 0.11342 0.0
C121 C 0.17495 0.8225 0.12754 0.0
C122 C 0.12193 0.81725 0.16267 0.0
C123 C 0.10185 0.82373 0.16593 0.0
C124 C 0.08867 0.81194 0.17787 0.0
C125 C 0.09537 0.79349 0.18697 0.0
C126 C 0.11557 0.78706 0.1837 0.0
C127 C 0.12879 0.79894 0.1718 0.0
P128 P 0.20758 0.85257 0.83608 0.0
H129 H 0.18631 0.83816 0.79751 0.0
H130 H 0.15072 0.8274 0.78854 0.0
H131 H 0.13323 0.84518 0.85002 0.0
H132 H 0.16915 0.85611 0.85897 0.0
H133 H 0.2453 0.86946 0.81987 0.0
H134 H 0.2587 0.90417 0.81585 0.0
H135 H 0.20255 0.92807 0.83887 0.0
H136 H 0.189 0.89293 0.84285 0.0
H137 H 0.19322 0.81959 0.86294 0.0
H138 H 0.23963 0.86766 0.86675 0.0
O139 O 0.22091 0.83748 0.82086 0.0
H140 H 0.20704 0.80575 0.89619 0.0
H141 H 0.25354 0.85375 0.89989 0.0
C142 C 0.18051 0.84765 0.82904 0.0
C143 C 0.17485 0.83993 0.80907 0.0
C144 C 0.15449 0.83367 0.80396 0.0
C145 C 0.13918 0.83522 0.81862 0.0
C146 C 0.14465 0.84385 0.83835 0.0
C147 C 0.16516 0.85007 0.8435 0.0
C148 C 0.21598 0.87857 0.83133 0.0
C149 C 0.23568 0.8821 0.82383 0.0
C150 C 0.24347 0.90198 0.82178 0.0
C151 C 0.2318 0.91883 0.82731 0.0
C152 C 0.21188 0.91534 0.83451 0.0
C153 C 0.20411 0.89532 0.83672 0.0
C154 C 0.21491 0.84506 0.86256 0.0
C155 C 0.20592 0.82759 0.87122 0.0
C156 C 0.21388 0.81964 0.89022 0.0
C157 C 0.23124 0.82882 0.90074 0.0
C158 C 0.24008 0.84645 0.89218 0.0
C159 C 0.232 0.85449 0.87327 0.0
P160 P 0.21311 0.20718 0.84374 0.0
H161 H 0.24886 0.22943 0.86303 0.0
H162 H 0.25958 0.23724 0.89922 0.0
H163 H 0.20973 0.19912 0.92023 0.0
H164 H 0.19859 0.19191 0.8837 0.0
H165 H 0.20157 0.18988 0.8029 0.0
H166 H 0.20535 0.15584 0.78762 0.0
H167 H 0.22901 0.13357 0.84748 0.0
H168 H 0.22548 0.16758 0.86261 0.0
H169 H 0.19923 0.24801 0.83216 0.0
H170 H 0.17127 0.19092 0.85018 0.0
O171 O 0.22858 0.22055 0.82857 0.0
H172 H 0.16516 0.26332 0.82806 0.0
H173 H 0.13701 0.20638 0.84678 0.0
C174 C 0.22288 0.21007 0.8706 0.0
C175 C 0.2404 0.22242 0.87536 0.0
C176 C 0.24671 0.22672 0.89617 0.0
C177 C 0.2357 0.21863 0.91272 0.0
C178 C 0.21857 0.20561 0.90787 0.0
C179 C 0.21219 0.20143 0.88701 0.0
C180 C 0.21302 0.18127 0.83395 0.0
C181 C 0.20725 0.17757 0.81283 0.0
C182 C 0.20949 0.15817 0.80407 0.0
C183 C 0.21733 0.14203 0.81638 0.0
C184 C 0.2226 0.14564 0.8377 0.0
C185 C 0.22057 0.16512 0.84638 0.0
C186 C 0.18775 0.21817 0.84097 0.0
C187 C 0.18573 0.23873 0.83518 0.0
C188 C 0.16623 0.24754 0.83301 0.0
C189 C 0.1483 0.23602 0.83679 0.0
C190 C 0.15044 0.21554 0.8432 0.0
C191 C 0.17001 0.2067 0.84527 0.0
P192 P 0.88247 0.1751 0.85118 0.0
H193 H 0.87002 0.13234 0.85566 0.0
H194 H 0.85279 0.10757 0.83183 0.0
H195 H 0.84538 0.15439 0.78467 0.0
H196 H 0.86226 0.17923 0.80869 0.0
H197 H 0.92725 0.1751 0.84726 0.0
H198 H 0.95108 0.19739 0.82946 0.0
H199 H 0.89967 0.23208 0.80377 0.0
H200 H 0.87584 0.21032 0.82266 0.0
H201 H 0.85251 0.16091 0.88028 0.0
H202 H 0.87763 0.21906 0.86153 0.0
O203 O 0.89743 0.16076 0.86711 0.0
H204 H 0.83522 0.17756 0.90839 0.0
H205 H 0.85911 0.23606 0.8886 0.0
C206 C 0.86784 0.15765 0.83393 0.0
C207 C 0.8646 0.13738 0.84026 0.0
C208 C 0.85479 0.12318 0.82659 0.0
C209 C 0.8478 0.12898 0.80633 0.0
C210 C 0.8504 0.14947 0.80024 0.0
C211 C 0.86024 0.1637 0.81397 0.0
C212 C 0.89969 0.19121 0.83668 0.0
C213 C 0.92099 0.18753 0.8379 0.0
C214 C 0.93467 0.20017 0.82747 0.0
C215 C 0.92737 0.21671 0.81539 0.0
C216 C 0.90589 0.21978 0.81335 0.0
C217 C 0.89221 0.20723 0.82401 0.0
C218 C 0.86608 0.18867 0.86838 0.0
C219 C 0.85364 0.17739 0.88165 0.0
C220 C 0.84358 0.18701 0.89771 0.0
C221 C 0.84539 0.2083 0.90069 0.0
C222 C 0.85734 0.21966 0.88686 0.0
C223 C 0.86776 0.20993 0.87107 0.0
P224 P 0.85715 0.89686 0.86362 0.0
H225 H 0.89132 0.91897 0.84586 0.0
H226 H 0.91815 0.90905 0.8225 0.0
H227 H 0.89045 0.84877 0.81657 0.0
H228 H 0.86334 0.85889 0.83971 0.0
H229 H 0.83561 0.93311 0.87703 0.0
H230 H 0.81124 0.95609 0.85894 0.0
H231 H 0.81091 0.91785 0.80394 0.0
H232 H 0.83518 0.89473 0.82224 0.0
H233 H 0.87575 0.85966 0.88065 0.0
H234 H 0.816 0.8877 0.879 0.0
O235 O 0.86991 0.9113 0.88168 0.0
H236 H 0.86303 0.83248 0.90302 0.0
H237 H 0.80347 0.86117 0.90223 0.0
C238 C 0.87568 0.88951 0.845 0.0
C239 C 0.89092 0.90366 0.83944 0.0
C240 C 0.90616 0.89802 0.82598 0.0
C241 C 0.9064 0.87812 0.81779 0.0
C242 C 0.8907 0.86415 0.82282 0.0
C243 C 0.87527 0.86991 0.8361 0.0
C244 C 0.83755 0.91245 0.85082 0.0
C245 C 0.83026 0.92961 0.8611 0.0
C246 C 0.81639 0.94279 0.85073 0.0
C247 C 0.80948 0.939 0.82988 0.0
C248 C 0.81603 0.92121 0.81997 0.0
C249 C 0.82995 0.90804 0.83038 0.0
C250 C 0.84664 0.87535 0.87749 0.0
C251 C 0.85974 0.85973 0.8847 0.0
C252 C 0.85251 0.84431 0.89773 0.0
C253 C 0.83212 0.84443 0.90424 0.0
C254 C 0.81904 0.86018 0.89701 0.0
C255 C 0.82624 0.87547 0.88376 0.0
P256 P 0.1887 0.72433 0.68015 0.0
H257 H 0.17093 0.73958 0.71785 0.0
H258 H 0.1395 0.75831 0.724 0.0
H259 H 0.12208 0.75533 0.65798 0.0
H260 H 0.15324 0.73609 0.65201 0.0
H261 H 0.21652 0.69138 0.67085 0.0
H262 H 0.21985 0.65645 0.68398 0.0
H263 H 0.16391 0.66309 0.71694 0.0
H264 H 0.16087 0.69815 0.70405 0.0
H265 H 0.21529 0.75615 0.66349 0.0
H266 H 0.17859 0.70513 0.63918 0.0
O267 O 0.2065 0.73476 0.69687 0.0
H268 H 0.22688 0.7634 0.62854 0.0
H269 H 0.18938 0.7129 0.60382 0.0
C270 C 0.16458 0.73663 0.68446 0.0
C271 C 0.16028 0.74283 0.70471 0.0
C272 C 0.14236 0.75362 0.7082 0.0
C273 C 0.12833 0.75838 0.69147 0.0
C274 C 0.13244 0.7517 0.67123 0.0
C275 C 0.15036 0.7408 0.66778 0.0
C276 C 0.18822 0.69731 0.68604 0.0
C277 C 0.20465 0.68514 0.68042 0.0
C278 C 0.20652 0.66513 0.68794 0.0
C279 C 0.19202 0.65687 0.70137 0.0
C280 C 0.17533 0.66898 0.70663 0.0
C281 C 0.17349 0.68902 0.6991 0.0
C282 C 0.19658 0.72971 0.65403 0.0
C283 C 0.20969 0.7465 0.6506 0.0
C284 C 0.2161 0.75081 0.63052 0.0
C285 C 0.20932 0.73857 0.61338 0.0
C286 C 0.19536 0.7223 0.61675 0.0
C287 C 0.18914 0.71785 0.63693 0.0
P288 P 0.88705 0.69274 0.67095 0.0
H289 H 0.92327 0.71647 0.66001 0.0
H290 H 0.95027 0.73499 0.68072 0.0
H291 H 0.91819 0.72236 0.73685 0.0
H292 H 0.89102 0.70411 0.71602 0.0
H293 H 0.89466 0.64925 0.67778 0.0
H294 H 0.87952 0.6235 0.70027 0.0
H295 H 0.83832 0.66846 0.72313 0.0
H296 H 0.85324 0.6943 0.70004 0.0
H297 H 0.88499 0.7356 0.65623 0.0
H298 H 0.84879 0.68001 0.64846 0.0
O299 O 0.90109 0.6802 0.65414 0.0
H300 H 0.86338 0.75185 0.62856 0.0
H301 H 0.82712 0.69621 0.62098 0.0
C302 C 0.90513 0.70875 0.68639 0.0
C303 C 0.92188 0.71788 0.67674 0.0
C304 C 0.93738 0.72836 0.68862 0.0
C305 C 0.93645 0.73005 0.71046 0.0
C306 C 0.91928 0.72149 0.72005 0.0
C307 C 0.90373 0.71097 0.7081 0.0
C308 C 0.87499 0.67372 0.6871 0.0
C309 C 0.88222 0.65363 0.68741 0.0
C310 C 0.87359 0.63888 0.70029 0.0
C311 C 0.85783 0.64401 0.71347 0.0
C312 C 0.85057 0.66415 0.71321 0.0
C313 C 0.859 0.67887 0.7 0.0
C314 C 0.86835 0.70663 0.65473 0.0
C315 C 0.8721 0.72703 0.64901 0.0
C316 C 0.85978 0.73631 0.6331 0.0
C317 C 0.84375 0.72521 0.62235 0.0
C318 C 0.83957 0.70506 0.62871 0.0
C319 C 0.85179 0.69586 0.64464 0.0
P320 P 0.85992 0.39197 0.67622 0.0
H321 H 0.86912 0.41705 0.71325 0.0
H322 H 0.85005 0.4428 0.73113 0.0
H323 H 0.79734 0.43234 0.68825 0.0
H324 H 0.8166 0.40597 0.67034 0.0
H325 H 0.90443 0.38805 0.67143 0.0
H326 H 0.93268 0.37553 0.69451 0.0
H327 H 0.8893 0.36084 0.74144 0.0
H328 H 0.86096 0.37318 0.71807 0.0
H329 H 0.8336 0.39171 0.63773 0.0
H330 H 0.85666 0.34713 0.68231 0.0
O331 O 0.87082 0.40676 0.65849 0.0
H332 H 0.81972 0.36418 0.61492 0.0
H333 H 0.84277 0.3196 0.65959 0.0
C334 C 0.8441 0.40885 0.69089 0.0
C335 C 0.85328 0.41972 0.70794 0.0
C336 C 0.84238 0.43466 0.7181 0.0
C337 C 0.82213 0.43957 0.71119 0.0
C338 C 0.81293 0.42891 0.69392 0.0
C339 C 0.82386 0.41368 0.68383 0.0
C340 C 0.88059 0.38179 0.69311 0.0
C341 C 0.90093 0.38212 0.68665 0.0
C342 C 0.91711 0.37502 0.6999 0.0
C343 C 0.91326 0.36721 0.71981 0.0
C344 C 0.89277 0.36654 0.72611 0.0
C345 C 0.87657 0.37369 0.71282 0.0
C346 C 0.84627 0.37161 0.66176 0.0
C347 C 0.83534 0.37604 0.64283 0.0
C348 C 0.82746 0.36026 0.62976 0.0
C349 C 0.83047 0.33967 0.63525 0.0
C350 C 0.8406 0.33528 0.65468 0.0
C351 C 0.8484 0.35109 0.66781 0.0
P352 P 0.15683 0.38142 0.65798 0.0
H353 H 0.19566 0.39959 0.64465 0.0
H354 H 0.21903 0.42601 0.66001 0.0
H355 H 0.18159 0.42931 0.71362 0.0
H356 H 0.15857 0.40241 0.69854 0.0
H357 H 0.13904 0.35853 0.62264 0.0
H358 H 0.15261 0.33315 0.59933 0.0
H359 H 0.212 0.33754 0.63317 0.0
H360 H 0.19782 0.36204 0.65731 0.0
H361 H 0.11396 0.38608 0.6694 0.0
H362 H 0.16471 0.34636 0.68558 0.0
O363 O 0.14155 0.39616 0.64282 0.0
H364 H 0.09176 0.36626 0.69187 0.0
H365 H 0.14239 0.32619 0.70788 0.0
C366 C 0.1758 0.39837 0.67082 0.0
C367 C 0.19286 0.40543 0.66005 0.0
C368 C 0.20613 0.42065 0.66874 0.0
C369 C 0.20218 0.42955 0.68805 0.0
C370 C 0.18502 0.42258 0.69876 0.0
C371 C 0.17197 0.40711 0.69022 0.0
C372 C 0.16762 0.36271 0.64121 0.0
C373 C 0.15498 0.35402 0.62506 0.0
C374 C 0.16278 0.33952 0.61173 0.0
C375 C 0.18345 0.33339 0.61425 0.0
C376 C 0.19595 0.34171 0.63091 0.0
C377 C 0.18797 0.35602 0.6445 0.0
C378 C 0.14101 0.36771 0.67585 0.0
C379 C 0.12036 0.37311 0.67781 0.0
C380 C 0.10761 0.36165 0.69051 0.0
C381 C 0.1153 0.34464 0.7016 0.0
C382 C 0.13607 0.33934 0.69969 0.0
C383 C 0.14884 0.35084 0.68697 0.0
P384 P 0.20713 0.32868 0.3363 0.0
H385 H 0.18127 0.31144 0.30192 0.0
H386 H 0.14527 0.29972 0.29871 0.0
H387 H 0.13746 0.31704 0.36288 0.0
H388 H 0.17369 0.32892 0.36599 0.0
H389 H 0.24483 0.35145 0.32917 0.0
H390 H 0.25183 0.38404 0.31226 0.0
H391 H 0.18637 0.39562 0.30664 0.0
H392 H 0.17945 0.36245 0.32295 0.0
H393 H 0.22174 0.29151 0.35622 0.0
H394 H 0.21682 0.35481 0.37355 0.0
O395 O 0.21944 0.31375 0.32004 0.0
H396 H 0.23803 0.28398 0.39056 0.0
H397 H 0.2333 0.34732 0.40821 0.0
C398 C 0.18024 0.32085 0.33426 0.0
C399 C 0.17188 0.31267 0.31535 0.0
C400 C 0.15131 0.30585 0.31356 0.0
C401 C 0.13856 0.30731 0.33058 0.0
C402 C 0.14689 0.31578 0.34948 0.0
C403 C 0.16758 0.32254 0.35128 0.0
C404 C 0.21166 0.35453 0.32747 0.0
C405 C 0.23199 0.36117 0.32467 0.0
C406 C 0.23597 0.37993 0.31509 0.0
C407 C 0.21968 0.39268 0.30831 0.0
C408 C 0.19928 0.38619 0.31164 0.0
C409 C 0.1953 0.36727 0.32112 0.0
C410 C 0.21839 0.32377 0.3622 0.0
C411 C 0.22423 0.30383 0.36742 0.0
C412 C 0.2336 0.29955 0.38704 0.0
C413 C 0.2371 0.31508 0.40204 0.0
C414 C 0.23074 0.33503 0.397 0.0
C415 C 0.22142 0.33934 0.3772 0.0
P416 P 0.20449 0.67496 0.32833 0.0
H417 H 0.21306 0.65052 0.3668 0.0
H418 H 0.22726 0.66018 0.4018 0.0
H419 H 0.22484 0.72376 0.38439 0.0
H420 H 0.21156 0.7141 0.3491 0.0
H421 H 0.2416 0.65186 0.33815 0.0
H422 H 0.25325 0.61827 0.32789 0.0
H423 H 0.19548 0.60813 0.29235 0.0
H424 H 0.18348 0.64147 0.30373 0.0
H425 H 0.1863 0.70829 0.30366 0.0
H426 H 0.16421 0.65927 0.34199 0.0
O427 O 0.21933 0.68937 0.31346 0.0
H428 H 0.15152 0.72166 0.2995 0.0
H429 H 0.12898 0.67283 0.33792 0.0
C430 C 0.21185 0.68159 0.35511 0.0
C431 C 0.2157 0.66653 0.3704 0.0
C432 C 0.22373 0.67202 0.39041 0.0
C433 C 0.22728 0.69266 0.39559 0.0
C434 C 0.22228 0.70774 0.38067 0.0
C435 C 0.2147 0.70223 0.36056 0.0
C436 C 0.2113 0.6489 0.32245 0.0
C437 C 0.23112 0.64214 0.32872 0.0
C438 C 0.23792 0.62299 0.32259 0.0
C439 C 0.22525 0.61023 0.30953 0.0
C440 C 0.20543 0.61717 0.303 0.0
C441 C 0.19853 0.63631 0.30942 0.0
C442 C 0.17792 0.68249 0.32285 0.0
C443 C 0.17392 0.70012 0.31092 0.0
C444 C 0.15397 0.70793 0.30867 0.0
C445 C 0.13741 0.69834 0.31833 0.0
C446 C 0.14132 0.68042 0.33002 0.0
C447 C 0.16144 0.67264 0.33235 0.0
P448 P 0.8722 0.64244 0.36802 0.0
H449 H 0.85303 0.60564 0.38383 0.0
H450 H 0.83035 0.57919 0.36762 0.0
H451 H 0.8328 0.61011 0.30818 0.0
H452 H 0.85524 0.63677 0.3246 0.0
H453 H 0.91451 0.638 0.35534 0.0
H454 H 0.93675 0.65891 0.33396 0.0
H455 H 0.88567 0.69871 0.31873 0.0
H456 H 0.86367 0.67808 0.34096 0.0
H457 H 0.8274 0.64994 0.36619 0.0
H458 H 0.88145 0.66984 0.4034 0.0
O459 O 0.88844 0.63076 0.38503 0.0
H460 H 0.80531 0.66676 0.39051 0.0
H461 H 0.8593 0.68689 0.42773 0.0
C462 C 0.85632 0.6228 0.35527 0.0
C463 C 0.84884 0.60663 0.36726 0.0
C464 C 0.83583 0.59157 0.35802 0.0
C465 C 0.83 0.59248 0.3366 0.0
C466 C 0.83702 0.60907 0.32474 0.0
C467 C 0.85004 0.62416 0.33403 0.0
C468 C 0.88759 0.65683 0.35022 0.0
C469 C 0.90806 0.65123 0.34742 0.0
C470 C 0.92074 0.66309 0.335 0.0
C471 C 0.91315 0.68074 0.32494 0.0
C472 C 0.8922 0.68556 0.32675 0.0
C473 C 0.87956 0.67375 0.33936 0.0
C474 C 0.85611 0.65837 0.38316 0.0
C475 C 0.83458 0.65814 0.37941 0.0
C476 C 0.82193 0.66772 0.39334 0.0
C477 C 0.83059 0.67798 0.41107 0.0
C478 C 0.85221 0.67919 0.41412 0.0
C479 C 0.86487 0.66945 0.40025 0.0
P480 P 0.87428 0.36344 0.39422 0.0
H481 H 0.91784 0.37239 0.39001 0.0
H482 H 0.94339 0.35916 0.36724 0.0
H483 H 0.89907 0.31387 0.34324 0.0
H484 H 0.87311 0.32783 0.36576 0.0
H485 H 0.88072 0.40721 0.38817 0.0
H486 H 0.86819 0.43091 0.36114 0.0
H487 H 0.83128 0.38243 0.33161 0.0
H488 H 0.84403 0.35856 0.35883 0.0
H489 H 0.87379 0.32037 0.40744 0.0
H490 H 0.83378 0.37212 0.40957 0.0
O491 O 0.88622 0.37661 0.41379 0.0
H492 H 0.85133 0.30133 0.43027 0.0
H493 H 0.81171 0.35353 0.4332 0.0
C494 C 0.89376 0.35062 0.38019 0.0
C495 C 0.91372 0.35925 0.38031 0.0
C496 C 0.92839 0.35162 0.36726 0.0
C497 C 0.92348 0.33513 0.35372 0.0
C498 C 0.9034 0.32648 0.3536 0.0
C499 C 0.88863 0.33427 0.36662 0.0
C500 C 0.86284 0.38126 0.37582 0.0
C501 C 0.86961 0.40171 0.37616 0.0
C502 C 0.86249 0.41526 0.36066 0.0
C503 C 0.84858 0.40855 0.34443 0.0
C504 C 0.84196 0.38798 0.34399 0.0
C505 C 0.84905 0.37442 0.3596 0.0
C506 C 0.8552 0.34749 0.40627 0.0
C507 C 0.85984 0.32744 0.41227 0.0
C508 C 0.84708 0.31666 0.4256 0.0
C509 C 0.82963 0.32586 0.43364 0.0
C510 C 0.82467 0.34575 0.42701 0.0
C511 C 0.83734 0.35643 0.41348 0.0
P512 P 0.6966 0.20517 0.69913 0.0
H513 H 0.68693 0.24096 0.72391 0.0
H514 H 0.65634 0.2506 0.74216 0.0
H515 H 0.62351 0.19753 0.71667 0.0
H516 H 0.65421 0.18805 0.6982 0.0
H517 H 0.68743 0.17792 0.7336 0.0
H518 H 0.69402 0.14176 0.74039 0.0
H519 H 0.71993 0.13652 0.67986 0.0
H520 H 0.71275 0.17251 0.67292 0.0
H521 H 0.66699 0.2144 0.66349 0.0
H522 H 0.73297 0.21477 0.67595 0.0
O523 O 0.71608 0.21562 0.71375 0.0
H524 H 0.67194 0.22782 0.62812 0.0
H525 H 0.73799 0.22792 0.64085 0.0
C526 C 0.67294 0.21364 0.70989 0.0
C527 C 0.67311 0.23149 0.72203 0.0
C528 C 0.65564 0.23694 0.73256 0.0
C529 C 0.63754 0.22477 0.73097 0.0
C530 C 0.63715 0.20732 0.71807 0.0
C531 C 0.65469 0.20185 0.70756 0.0
C532 C 0.69903 0.17785 0.70249 0.0
C533 C 0.69404 0.16886 0.72154 0.0
C534 C 0.698 0.14822 0.72552 0.0
C535 C 0.70723 0.13612 0.71058 0.0
C536 C 0.71225 0.14521 0.69148 0.0
C537 C 0.70822 0.16586 0.6875 0.0
C538 C 0.69959 0.21391 0.67254 0.0
C539 C 0.68251 0.21738 0.65867 0.0
C540 C 0.68536 0.22506 0.63847 0.0
C541 C 0.70535 0.22948 0.63184 0.0
C542 C 0.72237 0.22537 0.64565 0.0
C543 C 0.71951 0.21767 0.6657 0.0
P544 P 0.38561 0.19835 0.66627 0.0
H545 H 0.42853 0.19057 0.67826 0.0
H546 H 0.45482 0.20903 0.69982 0.0
H547 H 0.41124 0.25647 0.71083 0.0
H548 H 0.38476 0.23781 0.68901 0.0
H549 H 0.3744 0.15518 0.66044 0.0
H550 H 0.35976 0.1294 0.68317 0.0
H551 H 0.35374 0.17512 0.73103 0.0
H552 H 0.369 0.20086 0.70828 0.0
H553 H 0.38912 0.23874 0.64661 0.0
H554 H 0.343 0.19082 0.65036 0.0
O555 O 0.39835 0.18528 0.64878 0.0
H556 H 0.36708 0.25632 0.62026 0.0
H557 H 0.32111 0.20822 0.62384 0.0
C558 C 0.4048 0.213 0.68166 0.0
C559 C 0.42463 0.20507 0.68504 0.0
C560 C 0.43967 0.21562 0.6974 0.0
C561 C 0.43518 0.23432 0.70678 0.0
C562 C 0.41526 0.24231 0.70341 0.0
C563 C 0.40011 0.23162 0.69106 0.0
C564 C 0.37316 0.17991 0.68277 0.0
C565 C 0.37 0.15971 0.67584 0.0
C566 C 0.36152 0.14496 0.68884 0.0
C567 C 0.35587 0.15006 0.70909 0.0
C568 C 0.35843 0.17052 0.71576 0.0
C569 C 0.36698 0.1853 0.7027 0.0
C570 C 0.36749 0.21372 0.65098 0.0
C571 C 0.37399 0.23232 0.64231 0.0
C572 C 0.36147 0.24231 0.62713 0.0
C573 C 0.34247 0.23356 0.61992 0.0
C574 C 0.33575 0.21523 0.62903 0.0
C575 C 0.34817 0.20539 0.64435 0.0
P576 P 0.368 0.90872 0.65914 0.0
H577 H 0.36671 0.95305 0.66305 0.0
H578 H 0.3445 0.97602 0.6812 0.0
H579 H 0.30782 0.92448 0.70063 0.0
H580 H 0.33012 0.90131 0.68202 0.0
H581 H 0.41292 0.90545 0.66117 0.0
H582 H 0.43747 0.8895 0.68589 0.0
H583 H 0.38744 0.87085 0.724 0.0
H584 H 0.36286 0.88783 0.69955 0.0
H585 H 0.35128 0.90903 0.61613 0.0
H586 H 0.35745 0.86498 0.66608 0.0
O587 O 0.38177 0.9231 0.64321 0.0
H588 H 0.33876 0.88213 0.59212 0.0
H589 H 0.34423 0.83802 0.6422 0.0
C590 C 0.35003 0.92542 0.67103 0.0
C591 C 0.35365 0.94661 0.6708 0.0
C592 C 0.34082 0.95982 0.68106 0.0
C593 C 0.32418 0.95212 0.69204 0.0
C594 C 0.32041 0.93086 0.69211 0.0
C595 C 0.33317 0.91762 0.68157 0.0
C596 C 0.38599 0.89788 0.67846 0.0
C597 C 0.40715 0.89815 0.67492 0.0
C598 C 0.42121 0.88878 0.68898 0.0
C599 C 0.41437 0.87847 0.70667 0.0
C600 C 0.39319 0.87864 0.7105 0.0
C601 C 0.37912 0.8883 0.69651 0.0
C602 C 0.35552 0.88907 0.64288 0.0
C603 C 0.34957 0.89363 0.62206 0.0
C604 C 0.34225 0.87821 0.60834 0.0
C605 C 0.34033 0.8579 0.61526 0.0
C606 C 0.34565 0.85349 0.63636 0.0
C607 C 0.35311 0.86895 0.65007 0.0
P608 P 0.6477 0.86114 0.65093 0.0
H609 H 0.68799 0.87638 0.6388 0.0
H610 H 0.71112 0.90367 0.65234 0.0
H611 H 0.66966 0.91513 0.70156 0.0
H612 H 0.64711 0.88714 0.68851 0.0
H613 H 0.63549 0.83753 0.61367 0.0
H614 H 0.65249 0.811 0.5943 0.0
H615 H 0.7036 0.81224 0.64036 0.0
H616 H 0.68646 0.83895 0.65974 0.0
H617 H 0.60964 0.8769 0.66637 0.0
H618 H 0.64571 0.82247 0.6747 0.0
O619 O 0.63419 0.87425 0.6327 0.0
H620 H 0.5838 0.86265 0.68902 0.0
H621 H 0.61983 0.80814 0.69749 0.0
C622 C 0.66614 0.87915 0.66304 0.0
C623 C 0.68419 0.8843 0.65292 0.0
C624 C 0.69729 0.90014 0.66051 0.0
C625 C 0.69241 0.91151 0.6782 0.0
C626 C 0.67425 0.90634 0.68828 0.0
C627 C 0.66126 0.89033 0.68077 0.0
C628 C 0.66004 0.84068 0.63773 0.0
C629 C 0.65036 0.83212 0.61962 0.0
C630 C 0.66 0.81684 0.60865 0.0
C631 C 0.6795 0.80977 0.61567 0.0
C632 C 0.68876 0.81771 0.63439 0.0
C633 C 0.67901 0.83296 0.64544 0.0
C634 C 0.62952 0.85071 0.66869 0.0
C635 C 0.612 0.86187 0.67306 0.0
C636 C 0.59722 0.8537 0.68597 0.0
C637 C 0.59964 0.83415 0.69476 0.0
C638 C 0.61734 0.82304 0.69055 0.0
C639 C 0.63222 0.83131 0.67769 0.0
P640 P 0.69591 0.83006 0.34567 0.0
H641 H 0.67359 0.83908 0.30632 0.0
H642 H 0.63784 0.83315 0.29313 0.0
H643 H 0.62287 0.8094 0.35355 0.0
H644 H 0.65836 0.81611 0.36681 0.0
H645 H 0.73436 0.84351 0.32776 0.0
H646 H 0.7498 0.87724 0.32215 0.0
H647 H 0.696 0.90542 0.34592 0.0
H648 H 0.68039 0.87149 0.35107 0.0
H649 H 0.68931 0.79398 0.37193 0.0
H650 H 0.72045 0.8526 0.37877 0.0
O651 O 0.70766 0.81299 0.33122 0.0
H652 H 0.70441 0.78368 0.40624 0.0
H653 H 0.73593 0.84205 0.41247 0.0
C654 C 0.66871 0.82819 0.33762 0.0
C655 C 0.66249 0.833 0.31687 0.0
C656 C 0.64207 0.82946 0.30927 0.0
C657 C 0.62736 0.82096 0.32227 0.0
C658 C 0.6336 0.81643 0.34319 0.0
C659 C 0.65404 0.82008 0.3508 0.0
C660 C 0.706 0.85502 0.33932 0.0
C661 C 0.72568 0.85693 0.33136 0.0
C662 C 0.73459 0.87622 0.32837 0.0
C663 C 0.72406 0.894 0.33342 0.0
C664 C 0.70431 0.89203 0.34144 0.0
C665 C 0.69537 0.87268 0.34439 0.0
C666 C 0.70326 0.82424 0.37276 0.0
C667 C 0.69884 0.80486 0.38098 0.0
C668 C 0.70758 0.79893 0.40053 0.0
C669 C 0.72129 0.81212 0.412 0.0
C670 C 0.72538 0.83162 0.40397 0.0
C671 C 0.71638 0.83767 0.38464 0.0
P672 P 0.68851 0.18138 0.33406 0.0
H673 H 0.72979 0.18133 0.35359 0.0
H674 H 0.74398 0.18891 0.38885 0.0
H675 H 0.68227 0.19725 0.40939 0.0
H676 H 0.66816 0.19025 0.37364 0.0
H677 H 0.71043 0.16607 0.29841 0.0
H678 H 0.72234 0.13226 0.28922 0.0
H679 H 0.69082 0.10634 0.3411 0.0
H680 H 0.68035 0.14054 0.35121 0.0
H681 H 0.66758 0.21805 0.31887 0.0
H682 H 0.64963 0.15734 0.33776 0.0
O683 O 0.70202 0.1978 0.31994 0.0
H684 H 0.63147 0.22581 0.30997 0.0
H685 H 0.6134 0.16505 0.32872 0.0
C686 C 0.69793 0.18517 0.36094 0.0
C687 C 0.71927 0.18459 0.36571 0.0
C688 C 0.72737 0.18877 0.38599 0.0
C689 C 0.71428 0.19339 0.40214 0.0
C690 C 0.6928 0.19376 0.39734 0.0
C691 C 0.68469 0.18965 0.37692 0.0
C692 C 0.69467 0.15591 0.32568 0.0
C693 C 0.70603 0.15314 0.30784 0.0
C694 C 0.71269 0.1337 0.30244 0.0
C695 C 0.70792 0.11656 0.31463 0.0
C696 C 0.69537 0.11926 0.33173 0.0
C697 C 0.68911 0.13879 0.33739 0.0
C698 C 0.66146 0.18701 0.3288 0.0
C699 C 0.65592 0.20633 0.32107 0.0
C700 C 0.63525 0.21074 0.31585 0.0
C701 C 0.61958 0.19602 0.3185 0.0
C702 C 0.62511 0.17675 0.32658 0.0
C703 C 0.64586 0.17231 0.33172 0.0
P704 P 0.36153 0.13153 0.38288 0.0
H705 H 0.36406 0.08865 0.37051 0.0
H706 H 0.33947 0.06546 0.35203 0.0
H707 H 0.29926 0.11599 0.33763 0.0
H708 H 0.32415 0.13931 0.35603 0.0
H709 H 0.40541 0.14036 0.3916 0.0
H710 H 0.4295 0.16514 0.37754 0.0
H711 H 0.38176 0.18514 0.33297 0.0
H712 H 0.35743 0.1604 0.34749 0.0
H713 H 0.32163 0.12186 0.40007 0.0
H714 H 0.36574 0.17206 0.4028 0.0
O715 O 0.37497 0.11601 0.39896 0.0
H716 H 0.29994 0.14018 0.42371 0.0
H717 H 0.34412 0.19029 0.42667 0.0
C718 C 0.34582 0.11569 0.36493 0.0
C719 C 0.35014 0.09487 0.36312 0.0
C720 C 0.33596 0.08155 0.35273 0.0
C721 C 0.31715 0.08881 0.34393 0.0
C722 C 0.31353 0.10993 0.34444 0.0
C723 C 0.32778 0.12328 0.35486 0.0
C724 C 0.37965 0.14827 0.37039 0.0
C725 C 0.40011 0.14984 0.37861 0.0
C726 C 0.41392 0.16407 0.37057 0.0
C727 C 0.40755 0.17723 0.35423 0.0
C728 C 0.38707 0.17546 0.34579 0.0
C729 C 0.37321 0.16116 0.3539 0.0
C730 C 0.34502 0.14584 0.39911 0.0
C731 C 0.32651 0.13695 0.40545 0.0
C732 C 0.31416 0.14736 0.41904 0.0
C733 C 0.32039 0.1666 0.42699 0.0
C734 C 0.33906 0.1754 0.42085 0.0
C735 C 0.35131 0.16506 0.40706 0.0
P736 P 0.36207 0.87534 0.36123 0.0
H737 H 0.40707 0.87411 0.36785 0.0
H738 H 0.43307 0.85039 0.35686 0.0
H739 H 0.38556 0.81481 0.32313 0.0
H740 H 0.35943 0.83879 0.33416 0.0
H741 H 0.31844 0.8864 0.35857 0.0
H742 H 0.29762 0.90577 0.3331 0.0
H743 H 0.3494 0.91056 0.29353 0.0
H744 H 0.37039 0.89082 0.31929 0.0
H745 H 0.36087 0.87819 0.40694 0.0
H746 H 0.33004 0.84303 0.35722 0.0
O747 O 0.37437 0.89493 0.3734 0.0
H748 H 0.34122 0.85969 0.43266 0.0
H749 H 0.31013 0.82452 0.38297 0.0
C750 C 0.38124 0.85831 0.35177 0.0
C751 C 0.40216 0.86133 0.35797 0.0
C752 C 0.41707 0.84773 0.35168 0.0
C753 C 0.41137 0.83063 0.33927 0.0
C754 C 0.39039 0.82767 0.33297 0.0
C755 C 0.37546 0.84142 0.33915 0.0
C756 C 0.34583 0.88651 0.34058 0.0
C757 C 0.32526 0.89102 0.34419 0.0
C758 C 0.31335 0.90226 0.32963 0.0
C759 C 0.32184 0.90968 0.31126 0.0
C760 C 0.34246 0.90513 0.30757 0.0
C761 C 0.35437 0.89365 0.32215 0.0
C762 C 0.34691 0.86203 0.3801 0.0
C763 C 0.34968 0.86666 0.40149 0.0
C764 C 0.33825 0.85622 0.41621 0.0
C765 C 0.32383 0.84087 0.40985 0.0
C766 C 0.32104 0.83634 0.38836 0.0
C767 C 0.33247 0.84682 0.37364 0.0
P768 P 0.70274 0.69269 0.19737 0.0
H769 H 0.68964 0.70674 0.23744 0.0
H770 H 0.65604 0.71161 0.25192 0.0
H771 H 0.62601 0.68989 0.19411 0.0
H772 H 0.66001 0.68549 0.17942 0.0
H773 H 0.74002 0.67794 0.21989 0.0
H774 H 0.75451 0.64397 0.22426 0.0
H775 H 0.69997 0.61754 0.19254 0.0
H776 H 0.68565 0.65182 0.18781 0.0
H777 H 0.68301 0.72052 0.16615 0.0
H778 H 0.73055 0.67509 0.1681 0.0
O779 O 0.71863 0.70964 0.20965 0.0
H780 H 0.69189 0.72966 0.13032 0.0
H781 H 0.7392 0.68404 0.13275 0.0
C782 C 0.67736 0.69629 0.20714 0.0
C783 C 0.67586 0.70322 0.22773 0.0
C784 C 0.65659 0.70583 0.2361 0.0
C785 C 0.63827 0.70138 0.22414 0.0
C786 C 0.63979 0.69393 0.20359 0.0
C787 C 0.6592 0.69134 0.19518 0.0
C788 C 0.71161 0.66738 0.20377 0.0
C789 C 0.73098 0.66486 0.21414 0.0
C790 C 0.73932 0.64542 0.21657 0.0
C791 C 0.72851 0.62811 0.20851 0.0
C792 C 0.70885 0.63063 0.19854 0.0
C793 C 0.70051 0.65015 0.19612 0.0
C794 C 0.7057 0.69675 0.16973 0.0
C795 C 0.69492 0.71215 0.15875 0.0
C796 C 0.70008 0.71744 0.13836 0.0
C797 C 0.71641 0.70771 0.12891 0.0
C798 C 0.72675 0.69198 0.13975 0.0
C799 C 0.72156 0.68667 0.15995 0.0
P800 P 0.37988 0.67246 0.14798 0.0
H801 H 0.42305 0.68482 0.1459 0.0
H802 H 0.44691 0.70458 0.16902 0.0
H803 H 0.39758 0.71585 0.21013 0.0
H804 H 0.37372 0.69553 0.18694 0.0
H805 H 0.34082 0.65359 0.13276 0.0
H806 H 0.31848 0.62729 0.14688 0.0
H807 H 0.3564 0.62728 0.20436 0.0
H808 H 0.37905 0.65357 0.18991 0.0
H809 H 0.39131 0.68398 0.10602 0.0
H810 H 0.34151 0.69612 0.1461 0.0
O811 O 0.39491 0.65621 0.13594 0.0
H812 H 0.37281 0.7014 0.07714 0.0
H813 H 0.32267 0.71332 0.11702 0.0
C814 C 0.39673 0.68818 0.16501 0.0
C815 C 0.4173 0.69154 0.15987 0.0
C816 C 0.43091 0.70316 0.17296 0.0
C817 C 0.42419 0.71196 0.19139 0.0
C818 C 0.40329 0.7092 0.19609 0.0
C819 C 0.38964 0.69754 0.18292 0.0
C820 C 0.3612 0.6563 0.16056 0.0
C821 C 0.34399 0.64853 0.14869 0.0
C822 C 0.33118 0.63337 0.15679 0.0
C823 C 0.33538 0.62537 0.17693 0.0
C824 C 0.35263 0.6332 0.18885 0.0
C825 C 0.36546 0.64843 0.1807 0.0
C826 C 0.36752 0.68827 0.12803 0.0
C827 C 0.37647 0.69058 0.10869 0.0
C828 C 0.36591 0.70058 0.09218 0.0
C829 C 0.34623 0.70863 0.09474 0.0
C830 C 0.33789 0.70748 0.1146 0.0
C831 C 0.34855 0.69749 0.13117 0.0
P832 P 0.38335 0.36613 0.17668 0.0
H833 H 0.39168 0.38245 0.21926 0.0
H834 H 0.37518 0.40909 0.2392 0.0
H835 H 0.32849 0.41529 0.18915 0.0
H836 H 0.34492 0.38856 0.16938 0.0
H837 H 0.42213 0.34725 0.16743 0.0
H838 H 0.44268 0.32039 0.18438 0.0
H839 H 0.39921 0.31625 0.23316 0.0
H840 H 0.37838 0.34283 0.21574 0.0
H841 H 0.37418 0.37205 0.1317 0.0
H842 H 0.3562 0.32996 0.17954 0.0
O843 O 0.39936 0.38125 0.16385 0.0
H844 H 0.353 0.35277 0.10551 0.0
H845 H 0.33533 0.31032 0.15329 0.0
C846 C 0.36915 0.3829 0.1931 0.0
C847 C 0.37754 0.38907 0.21284 0.0
C848 C 0.36816 0.40441 0.22419 0.0
C849 C 0.35044 0.41423 0.21582 0.0
C850 C 0.3421 0.40802 0.19604 0.0
C851 C 0.35137 0.39255 0.18482 0.0
C852 C 0.399 0.34744 0.19061 0.0
C853 C 0.4171 0.34072 0.18189 0.0
C854 C 0.42883 0.3253 0.19156 0.0
C855 C 0.42256 0.31607 0.21006 0.0
C856 C 0.40431 0.32279 0.21873 0.0
C857 C 0.39253 0.3382 0.20897 0.0
C858 C 0.36682 0.35244 0.15761 0.0
C859 C 0.36572 0.35864 0.13659 0.0
C860 C 0.35374 0.3475 0.12157 0.0
C861 C 0.34248 0.33001 0.12729 0.0
C862 C 0.34361 0.32386 0.1484 0.0
C863 C 0.35557 0.33505 0.16343 0.0
P864 P 0.6551 0.35949 0.17218 0.0
H865 H 0.6597 0.40406 0.16933 0.0
H866 H 0.68184 0.42891 0.18871 0.0
H867 H 0.70751 0.38032 0.22699 0.0
H868 H 0.6854 0.35539 0.20733 0.0
H869 H 0.64441 0.32173 0.1495 0.0
H870 H 0.66301 0.30106 0.12504 0.0
H871 H 0.71737 0.33928 0.13644 0.0
H872 H 0.69854 0.36017 0.16049 0.0
H873 H 0.61973 0.37438 0.19292 0.0
H874 H 0.65448 0.31883 0.19266 0.0
O875 O 0.63999 0.37196 0.15474 0.0
H876 H 0.59679 0.35935 0.21812 0.0
H877 H 0.63142 0.30361 0.21794 0.0
C878 C 0.67111 0.37785 0.18675 0.0
C879 C 0.67003 0.39871 0.1819 0.0
C880 C 0.68256 0.41294 0.19311 0.0
C881 C 0.69644 0.40653 0.20928 0.0
C882 C 0.69711 0.38565 0.21443 0.0
C883 C 0.68452 0.37142 0.20324 0.0
C884 C 0.67019 0.34216 0.15736 0.0
C885 C 0.66049 0.32535 0.14715 0.0
C886 C 0.67117 0.31353 0.13316 0.0
C887 C 0.69182 0.31832 0.12898 0.0
C888 C 0.70153 0.33513 0.13934 0.0
C889 C 0.6908 0.34696 0.15331 0.0
C890 C 0.63843 0.34753 0.19047 0.0
C891 C 0.62233 0.35887 0.19819 0.0
C892 C 0.60933 0.35034 0.21273 0.0
C893 C 0.61218 0.33025 0.21985 0.0
C894 C 0.62865 0.31902 0.21244 0.0
C895 C 0.6418 0.32766 0.19797 0.0
P896 P 0.70823 0.35085 0.84729 0.0
H897 H 0.68757 0.35588 0.8063 0.0
H898 H 0.65152 0.35206 0.79315 0.0
H899 H 0.63336 0.33986 0.85594 0.0
H900 H 0.66949 0.34382 0.86903 0.0
H901 H 0.74891 0.36537 0.83597 0.0
H902 H 0.76401 0.39947 0.8314 0.0
H903 H 0.70704 0.42644 0.84875 0.0
H904 H 0.69192 0.39212 0.85329 0.0
H905 H 0.71432 0.30959 0.86352 0.0
H906 H 0.71374 0.37061 0.88879 0.0
O907 O 0.72029 0.33567 0.83106 0.0
H908 H 0.72615 0.29646 0.89779 0.0
H909 H 0.72508 0.35749 0.9233 0.0
C910 C 0.68124 0.34994 0.8386 0.0
C911 C 0.6758 0.3525 0.81726 0.0
C912 C 0.65523 0.35018 0.80973 0.0
C913 C 0.63963 0.34536 0.82345 0.0
C914 C 0.64504 0.34356 0.84498 0.0
C915 C 0.66569 0.34578 0.85249 0.0
C916 C 0.71916 0.37621 0.84459 0.0
C917 C 0.73961 0.37859 0.83875 0.0
C918 C 0.74825 0.39808 0.83616 0.0
C919 C 0.73672 0.41561 0.83972 0.0
C920 C 0.71636 0.4132 0.84609 0.0
C921 C 0.70766 0.39363 0.84853 0.0
C922 C 0.71358 0.34114 0.87345 0.0
C923 C 0.7165 0.32014 0.87651 0.0
C924 C 0.7232 0.31263 0.89615 0.0
C925 C 0.72702 0.32597 0.9132 0.0
C926 C 0.72287 0.34688 0.91036 0.0
C927 C 0.71622 0.35439 0.89065 0.0
P928 P 0.69954 0.70889 0.84192 0.0
H929 H 0.73648 0.72732 0.86308 0.0
H930 H 0.74253 0.7427 0.89762 0.0
H931 H 0.68284 0.72035 0.91524 0.0
H932 H 0.67669 0.70525 0.88034 0.0
H933 H 0.70084 0.68871 0.80157 0.0
H934 H 0.7122 0.65498 0.79115 0.0
H935 H 0.717 0.63684 0.8561 0.0
H936 H 0.70645 0.67101 0.86642 0.0
H937 H 0.68449 0.74923 0.83176 0.0
H938 H 0.6581 0.68913 0.84042 0.0
O939 O 0.71536 0.7225 0.82731 0.0
H940 H 0.64998 0.76332 0.82701 0.0
H941 H 0.62319 0.70333 0.836 0.0
C942 C 0.70604 0.71528 0.869 0.0
C943 C 0.72486 0.72528 0.87448 0.0
C944 C 0.72836 0.73401 0.89435 0.0
C945 C 0.71317 0.73276 0.90924 0.0
C946 C 0.69479 0.7217 0.90408 0.0
C947 C 0.69131 0.71296 0.88417 0.0
C948 C 0.703 0.68246 0.83477 0.0
C949 C 0.70392 0.67731 0.81355 0.0
C950 C 0.71026 0.6579 0.80758 0.0
C951 C 0.71555 0.64307 0.82275 0.0
C952 C 0.71325 0.64792 0.84399 0.0
C953 C 0.70712 0.66745 0.84995 0.0
C954 C 0.67385 0.71808 0.836 0.0
C955 C 0.67123 0.73901 0.8324 0.0
C956 C 0.65148 0.74711 0.82999 0.0
C957 C 0.63388 0.73449 0.83148 0.0
C958 C 0.6365 0.7134 0.83479 0.0
C959 C 0.65638 0.70527 0.83722 0.0
P960 P 0.37603 0.65396 0.84066 0.0
H961 H 0.36828 0.61004 0.84368 0.0
H962 H 0.35126 0.58503 0.82005 0.0
H963 H 0.3408 0.63218 0.77369 0.0
H964 H 0.35738 0.65733 0.79773 0.0
H965 H 0.42042 0.65707 0.83489 0.0
H966 H 0.4422 0.68302 0.81913 0.0
H967 H 0.38782 0.71679 0.7998 0.0
H968 H 0.36612 0.69112 0.81645 0.0
H969 H 0.33649 0.639 0.85535 0.0
H970 H 0.37406 0.69384 0.86168 0.0
O971 O 0.39164 0.64142 0.8576 0.0
H972 H 0.31291 0.65248 0.88019 0.0
H973 H 0.34999 0.70782 0.88599 0.0
C974 C 0.36446 0.63552 0.82237 0.0
C975 C 0.36262 0.61498 0.82832 0.0
C976 C 0.35303 0.60062 0.81469 0.0
C977 C 0.34509 0.60649 0.79475 0.0
C978 C 0.34691 0.62713 0.78886 0.0
C979 C 0.35644 0.64153 0.80258 0.0
C980 C 0.39167 0.67243 0.82732 0.0
C981 C 0.41314 0.67007 0.82731 0.0
C982 C 0.4256 0.68482 0.81809 0.0
C983 C 0.41681 0.70217 0.80852 0.0
C984 C 0.39514 0.70389 0.80754 0.0
C985 C 0.3827 0.68919 0.81694 0.0
C986 C 0.35674 0.66564 0.85603 0.0
C987 C 0.33934 0.65423 0.86153 0.0
C988 C 0.32577 0.66202 0.87576 0.0
C989 C 0.32929 0.68143 0.88485 0.0
C990 C 0.34674 0.69286 0.87924 0.0
C991 C 0.3604 0.68497 0.86512 0.0
P992 P 0.36995 0.40277 0.88168 0.0
H993 H 0.40849 0.41151 0.8619 0.0
H994 H 0.43448 0.38978 0.84756 0.0
H995 H 0.39485 0.33693 0.85545 0.0
H996 H 0.36911 0.35881 0.87055 0.0
H997 H 0.3476 0.43914 0.8912 0.0
H998 H 0.32307 0.4603 0.87109 0.0
H999 H 0.32843 0.42116 0.81737 0.0
H1000 H 0.35339 0.40012 0.83765 0.0
H1001 H 0.37633 0.3932 0.9261 0.0
H1002 H 0.33035 0.38035 0.87649 0.0
O1003 O 0.38513 0.41886 0.896 0.0
H1004 H 0.35498 0.37568 0.95102 0.0
H1005 H 0.30908 0.36213 0.90136 0.0
C1006 C 0.38691 0.38682 0.86745 0.0
C1007 C 0.40522 0.3953 0.86025 0.0
C1008 C 0.42005 0.38282 0.85188 0.0
C1009 C 0.41674 0.36157 0.85016 0.0
C1010 C 0.39795 0.35321 0.85665 0.0
C1011 C 0.38315 0.36574 0.86517 0.0
C1012 C 0.35265 0.41835 0.86577 0.0
C1013 C 0.3437 0.43524 0.87501 0.0
C1014 C 0.32956 0.44724 0.86355 0.0
C1015 C 0.32396 0.44256 0.84257 0.0
C1016 C 0.33278 0.42543 0.83337 0.0
C1017 C 0.34699 0.41336 0.84493 0.0
C1018 C 0.35484 0.38823 0.89949 0.0
C1019 C 0.36172 0.38641 0.92051 0.0
C1020 C 0.34956 0.37623 0.93474 0.0
C1021 C 0.33042 0.36735 0.92812 0.0
C1022 C 0.32371 0.36892 0.90693 0.0
C1023 C 0.33588 0.37922 0.8927 0.0
Cu1024 Cu 0.26724 0.28122 0.02606 0.0
N1025 N 0.26695 0.30558 0.01096 0.0
N1026 N 0.27912 0.3285 0.98863 0.0
C1027 C 0.28009 0.30915 0.99577 0.0
C1028 C 0.26438 0.33739 0.99951 0.0
C1029 C 0.25697 0.32321 0.01343 0.0
O1030 O 0.26765 0.25967 1.00485 0.0
C1031 C 0.28705 0.29692 0.06105 0.0
O1032 O 0.26959 0.30684 0.05981 0.0
H1033 H 0.29041 0.29771 0.99033 0.0
H1034 H 0.24575 0.32582 0.02502 0.0
N1035 N 0.24398 0.27646 0.04163 0.0
N1036 N 0.22576 0.26296 0.06708 0.0
C1037 C 0.24386 0.26316 0.05764 0.0
C1038 C 0.2252 0.28497 0.04073 0.0
C1039 C 0.21387 0.2766 0.05642 0.0
C1040 C 0.25107 0.25899 0.99316 0.0
O1041 O 0.23635 0.27176 0.99711 0.0
H1042 H 0.25712 0.25422 0.06265 0.0
H1043 H 0.22013 0.29646 0.02955 0.0
O1044 O 0.29049 0.28394 0.04677 0.0
H1045 H 0.25993 0.35321 0.99812 0.0
H1046 H 0.1981 0.28018 0.05956 0.0
Cu1047 Cu 0.77363 0.25907 0.02086 0.0
N1048 N 0.74988 0.26315 0.03815 0.0
N1049 N 0.72948 0.27339 0.06315 0.0
C1050 C 0.74756 0.27659 0.05386 0.0
C1051 C 0.72008 0.25763 0.05266 0.0
C1052 C 0.7327 0.25133 0.03734 0.0
O1053 O 0.78833 0.24362 0.04508 0.0
C1054 C 0.7649 0.29134 0.99022 0.0
O1055 O 0.78089 0.30009 1.00025 0.0
H1056 H 0.75901 0.28808 0.05873 0.0
H1057 H 0.72972 0.23881 0.0265 0.0
N1058 N 0.79714 0.25428 1.00334 0.0
N1059 N 0.81583 0.24407 0.97679 0.0
C1060 C 0.7966 0.24665 0.98369 0.0
C1061 C 0.81725 0.25679 0.00906 0.0
C1062 C 0.82876 0.25053 0.99281 0.0
C1063 C 0.7982 0.2527 0.06024 0.0
O1064 O 0.79902 0.27277 0.06038 0.0
H1065 H 0.78235 0.24334 0.97472 0.0
H1066 H 0.82316 0.26244 0.02412 0.0
O1067 O 0.75867 0.27393 0.99647 0.0
H1068 H 0.70506 0.25118 0.05577 0.0
H1069 H 0.84546 0.25029 0.99305 0.0
Cu1070 Cu 0.76198 0.77705 0.01038 0.0
N1071 N 0.78414 0.77741 0.99275 0.0
N1072 N 0.80416 0.78899 0.96778 0.0
C1073 C 0.78594 0.79063 0.97679 0.0
C1074 C 0.81452 0.77449 0.97879 0.0
C1075 C 0.80207 0.7673 0.9942 0.0
O1076 O 0.73783 0.78957 0.99611 0.0
C1077 C 0.76265 0.80033 0.04918 0.0
O1078 O 0.74269 0.79658 0.04942 0.0
H1079 H 0.77428 0.80167 0.97228 0.0
H1080 H 0.80601 0.75595 1.00596 0.0
N1081 N 0.75425 0.75168 0.02176 0.0
N1082 N 0.74274 0.73139 0.04709 0.0
C1083 C 0.75464 0.74777 0.0425 0.0
C1084 C 0.74171 0.73705 0.01299 0.0
C1085 C 0.73471 0.72453 0.0285 0.0
C1086 C 0.7239 0.78824 0.98113 0.0
O1087 O 0.71044 0.80305 0.98002 0.0
H1088 H 0.76182 0.75791 0.05416 0.0
H1089 H 0.73629 0.73647 0.9968 0.0
O1090 O 0.77254 0.79392 0.03387 0.0
H1091 H 0.83003 0.76964 0.97603 0.0
H1092 H 0.72348 0.71217 0.02639 0.0
Cu1093 Cu 0.26212 0.74684 0.99674 0.0
N1094 N 0.23874 0.74356 0.01248 0.0
N1095 N 0.21642 0.7512 0.03682 0.0
C1096 C 0.236 0.75328 0.03071 0.0
C1097 C 0.20649 0.73975 0.02174 0.0
C1098 C 0.22021 0.73523 1.00672 0.0
O1099 O 0.28587 0.74663 0.0168 0.0
C1100 C 0.26881 0.78109 0.96889 0.0
O1101 O 0.28783 0.77487 0.96738 0.0
H1102 H 0.24774 0.76301 0.03839 0.0
H1103 H 0.21645 0.72766 0.99198 0.0
N1104 N 0.26481 0.72592 0.9768 0.0
N1105 N 0.27694 0.70832 0.95011 0.0
C1106 C 0.2793 0.72507 0.9624 0.0
C1107 C 0.2532 0.70881 0.97373 0.0
C1108 C 0.26058 0.698 0.95727 0.0
C1109 C 0.29065 0.72906 0.02395 0.0
O1110 O 0.28028 0.71295 0.01666 0.0
H1111 H 0.29138 0.73649 0.96092 0.0
H1112 H 0.24054 0.70418 0.98306 0.0
O1113 O 0.25718 0.77211 0.9815 0.0
H1114 H 0.19021 0.73571 0.0211 0.0
H1115 H 0.2547 0.6834 0.95139 0.0
Cu1116 Cu 0.02519 0.2682 0.27785 0.0
N1117 N 0.04053 0.26916 0.25397 0.0
N1118 N 0.06506 0.25752 0.2339 0.0
C1119 C 0.05935 0.2608 0.25356 0.0
C1120 C 0.04929 0.26438 0.22134 0.0
C1121 C 0.03409 0.27142 0.23378 0.0
O1122 O 0.0463 0.26954 0.30084 0.0
C1123 C 0.99021 0.24082 0.27915 0.0
O1124 O 0.98297 0.2536 0.29262 0.0
H1125 H 0.0678 0.2553 0.26742 0.0
H1126 H 0.0188 0.27612 0.22845 0.0
N1127 N 1.00677 0.28985 0.28023 0.0
N1128 N 0.98292 0.30888 0.29481 0.0
C1129 C 0.9979 0.29496 0.29806 0.0
C1130 C 0.99725 0.30111 0.26514 0.0
C1131 C 0.98252 0.31282 0.27408 0.0
C1132 C 0.05385 0.28731 0.30505 0.0
O1133 O 0.04543 0.30317 0.29563 0.0
H1134 H 1.00135 0.28736 0.31281 0.0
H1135 H 1.00011 0.3002 0.24869 0.0
O1136 O 1.00884 0.24301 0.27396 0.0
H1137 H 0.0483 0.2634 0.20443 0.0
H1138 H 0.97188 0.32296 0.26584 0.0
Cu1139 Cu 0.77917 0.0164 0.2797 0.0
N1140 N 0.80227 0.03401 0.28062 0.0
N1141 N 0.8226 0.05934 0.2696 0.0
C1142 C 0.80442 0.04917 0.26666 0.0
C1143 C 0.83238 0.05014 0.28612 0.0
C1144 C 0.81978 0.0345 0.2929 0.0
O1145 O 0.75546 0.03447 0.28046 0.0
C1146 C 0.79855 0.98813 0.25766 0.0
O1147 O 0.81053 0.99101 0.27464 0.0
H1148 H 0.79286 0.0525 0.25436 0.0
H1149 H 0.82346 0.02388 0.30541 0.0
N1150 N 0.77741 0.99849 0.30238 0.0
N1151 N 0.76563 0.97145 0.31977 0.0
C1152 C 0.76453 0.98216 0.30177 0.0
C1153 C 0.78719 0.99812 0.32147 0.0
C1154 C 0.78003 0.98132 0.33219 0.0
C1155 C 0.75581 0.04443 0.29765 0.0
O1156 O 0.77113 0.04119 0.31143 0.0
H1157 H 0.75489 0.97797 0.28807 0.0
H1158 H 0.79859 1.00925 0.32725 0.0
O1159 O 0.78205 0.99851 0.25553 0.0
H1160 H 0.84785 0.05384 0.2923 0.0
H1161 H 0.7849 0.97679 0.34793 0.0
Cu1162 Cu 1.00779 0.75106 0.27042 0.0
N1163 N 0.99366 0.77599 0.26872 0.0
N1164 N 0.97024 0.79827 0.25589 0.0
C1165 C 0.97656 0.77867 0.25615 0.0
C1166 C 0.98381 0.80824 0.26919 0.0
C1167 C 0.99829 0.79451 0.27698 0.0
O1168 O 0.98651 0.73011 0.27473 0.0
C1169 C 0.03809 0.76338 0.2459 0.0
O1170 O 0.04011 0.77566 0.26214 0.0
H1171 H 0.969 0.76634 0.2473 0.0
H1172 H 0.01158 0.79797 0.28737 0.0
N1173 N 0.0281 0.74847 0.29242 0.0
N1174 N 0.05755 0.73748 0.30835 0.0
C1175 C 0.04367 0.73505 0.29201 0.0
C1176 C 0.03221 0.75983 0.30973 0.0
C1177 C 0.05043 0.75315 0.3195 0.0
C1178 C 0.97618 0.73397 0.29069 0.0
O1179 O 0.98163 0.75009 0.30204 0.0
H1180 H 0.04536 0.72445 0.27924 0.0
H1181 H 0.02304 0.77247 0.31453 0.0
O1182 O 0.02339 0.75011 0.2451 0.0
H1183 H 0.98374 0.82446 0.27247 0.0
H1184 H 0.05806 0.75959 0.33351 0.0
Cu1185 Cu 0.24109 0.99644 0.25664 0.0
N1186 N 0.24298 0.00983 0.2825 0.0
N1187 N 0.25699 0.03102 0.30698 0.0
C1188 C 0.25702 0.02482 0.28689 0.0
C1189 C 0.24213 0.01954 0.31558 0.0
C1190 C 0.23354 1.00641 0.30043 0.0
O1191 O 0.23918 0.01882 0.2362 0.0
C1192 C 0.2635 0.96386 0.27022 0.0
O1193 O 0.24633 0.96186 0.28012 0.0
H1194 H 0.2677 0.03049 0.27569 0.0
H1195 H 0.22172 0.99486 0.30253 0.0
N1196 N 0.21772 0.97908 0.25234 0.0
N1197 N 0.19819 0.95273 0.23977 0.0
C1198 C 0.21645 0.96296 0.23912 0.0
C1199 C 0.19954 0.97916 0.26158 0.0
C1200 C 0.18745 0.96304 0.25379 0.0
C1201 C 0.22285 0.02929 0.23771 0.0
O1202 O 0.20965 0.02347 0.25149 0.0
H1203 H 0.2289 0.9586 0.2295 0.0
H1204 H 0.1953 0.9902 0.2731 0.0
O1205 O 0.26531 0.97883 0.25759 0.0
H1206 H 0.23784 0.02043 0.33166 0.0
H1207 H 0.17179 0.95952 0.25785 0.0
Cu1208 Cu 0.02185 0.81437 0.76135 0.0
N1209 N 0.03432 0.81413 0.73565 0.0
N1210 N 0.05685 0.80413 0.71259 0.0
C1211 C 0.05377 0.80821 0.73282 0.0
C1212 C 0.03876 0.80809 0.70212 0.0
C1213 C 0.02487 0.81428 0.71641 0.0
O1214 O 0.04378 0.81785 0.78331 0.0
C1215 C 1.00631 0.77435 0.75125 0.0
O1216 O 0.0242 0.77185 0.74294 0.0
H1217 H 0.06494 0.80512 0.74549 0.0
H1218 H 1.00861 0.81709 0.71323 0.0
N1219 N 1.00438 0.83658 0.7631 0.0
N1220 N 0.97765 0.85494 0.77278 0.0
C1221 C 0.98589 0.83616 0.77176 0.0
C1222 C 1.00811 0.85627 0.75846 0.0
C1223 C 0.99167 0.86766 0.76444 0.0
C1224 C 0.05778 0.805 0.78804 0.0
O1225 O 0.05612 0.78652 0.78003 0.0
H1226 H 0.97888 0.82237 0.77771 0.0
H1227 H 0.02216 0.86203 0.752 0.0
O1228 O 1.00375 0.79023 0.76227 0.0
H1229 H 0.03548 0.80565 0.68554 0.0
H1230 H 0.99073 0.88413 0.76375 0.0
Cu1231 Cu 0.27855 0.04338 0.77094 0.0
N1232 N 0.30253 0.05978 0.77105 0.0
N1233 N 0.32379 0.08465 0.76044 0.0
C1234 C 0.30463 0.07619 0.75857 0.0
C1235 C 0.33421 0.07294 0.77468 0.0
C1236 C 0.32105 0.05763 0.78121 0.0
O1237 O 0.25606 0.06309 0.77087 0.0
C1238 C 0.29359 0.01138 0.74942 0.0
O1239 O 0.30516 0.01141 0.76689 0.0
H1240 H 0.29232 0.08162 0.74802 0.0
H1241 H 0.32492 0.04544 0.79205 0.0
N1242 N 0.27706 0.02622 0.79439 0.0
N1243 N 0.26782 0.99893 0.81306 0.0
C1244 C 0.26629 1.00842 0.79434 0.0
C1245 C 0.28564 0.0282 0.81391 0.0
C1246 C 0.27997 0.01134 0.82547 0.0
C1247 C 0.24286 0.06339 0.78498 0.0
O1248 O 0.24115 0.04745 0.79722 0.0
H1249 H 0.25769 1.0024 0.78068 0.0
H1250 H 0.29524 0.041 0.81935 0.0
O1251 O 0.27983 0.02504 0.74684 0.0
H1252 H 0.35042 0.07468 0.77939 0.0
H1253 H 0.28422 1.00863 0.8418 0.0
Cu1254 Cu 0.02545 0.29385 0.77883 0.0
N1255 N 0.00995 0.31773 0.77932 0.0
N1256 N 0.98398 0.33845 0.76989 0.0
C1257 C 0.99191 0.31966 0.76814 0.0
C1258 C 0.99777 0.34894 0.78249 0.0
C1259 C 0.01376 0.33605 0.78841 0.0
O1260 O 1.0049 0.27161 0.77785 0.0
C1261 C 0.0582 0.30985 0.75921 0.0
O1262 O 0.05919 0.31948 0.77725 0.0
H1263 H 0.98513 0.30764 0.75825 0.0
H1264 H 0.02736 0.3399 0.79822 0.0
N1265 N 0.04305 0.28941 0.80254 0.0
N1266 N 0.07002 0.2765 0.82112 0.0
C1267 C 0.05892 0.27639 0.80268 0.0
C1268 C 0.04408 0.29821 0.82158 0.0
C1269 C 0.06081 0.29034 0.83305 0.0
C1270 C 0.99267 0.27295 0.79278 0.0
O1271 O 0.99619 0.28741 0.80682 0.0
H1272 H 0.06275 0.2677 0.78907 0.0
H1273 H 0.03371 0.3098 0.82659 0.0
O1274 O 0.04348 0.29694 0.75542 0.0
H1275 H 0.99647 0.36481 0.78691 0.0
H1276 H 0.0659 0.29459 0.84886 0.0
Cu1277 Cu 0.76394 0.02589 0.74471 0.0
N1278 N 0.78832 0.04114 0.7424 0.0
N1279 N 0.81163 0.06537 0.75227 0.0
C1280 C 0.79159 0.05935 0.7519 0.0
C1281 C 0.82138 0.05023 0.74263 0.0
C1282 C 0.80699 0.03526 0.73665 0.0
O1283 O 0.74246 0.04655 0.7438 0.0
C1284 C 0.76062 0.9947 0.77706 0.0
O1285 O 0.744 0.98761 0.76677 0.0
H1286 H 0.77981 0.06702 0.76018 0.0
H1287 H 0.81027 0.02047 0.73022 0.0
N1288 N 0.75912 1.0068 0.72283 0.0
N1289 N 0.74465 0.98086 0.70412 0.0
C1290 C 0.74297 0.99355 0.72056 0.0
C1291 C 0.77107 1.00272 0.70679 0.0
C1292 C 0.76218 0.98676 0.69522 0.0
C1293 C 0.73763 0.05403 0.72581 0.0
O1294 O 0.74547 0.04588 0.7093 0.0
H1295 H 0.73008 0.99329 0.73061 0.0
H1296 H 0.78535 0.01063 0.70374 0.0
O1297 O 0.76904 0.01128 0.77112 0.0
H1298 H 0.8379 0.04945 0.74112 0.0
H1299 H 0.76839 0.97965 0.68168 0.0
Cu1300 Cu 0.27877 0.77081 0.51021 0.0
N1301 N 0.30124 0.77637 0.52894 0.0
N1302 N 0.31855 0.79473 0.55388 0.0
C1303 C 0.29989 0.78968 0.54481 0.0
C1304 C 0.33219 0.78362 0.54359 0.0
C1305 C 0.32147 0.77239 0.52808 0.0
O1306 O 0.25483 0.76931 0.52756 0.0
C1307 C 0.29411 0.78901 0.47588 0.0
O1308 O 0.30614 0.77323 0.47894 0.0
H1309 H 0.28539 0.79599 0.54909 0.0
H1310 H 0.32806 0.76297 0.51635 0.0
N1311 N 0.27911 0.74578 0.49603 0.0
N1312 N 0.26834 0.72254 0.47206 0.0
C1313 C 0.26564 0.74137 0.47992 0.0
C1314 C 0.29107 0.72926 0.49845 0.0
C1315 C 0.28448 0.71488 0.48357 0.0
C1316 C 0.25568 0.75385 0.53973 0.0
O1317 O 0.27172 0.74192 0.53913 0.0
H1318 H 0.25448 0.75219 0.47371 0.0
H1319 H 0.30364 0.72779 0.51011 0.0
O1320 O 0.27971 0.79183 0.48844 0.0
H1321 H 0.34881 0.78445 0.54626 0.0
H1322 H 0.29104 0.69998 0.48142 0.0
Cu1323 Cu 0.76252 0.74842 0.5179 0.0
N1324 N 0.76415 0.72683 0.49888 0.0
N1325 N 0.77711 0.7082 0.47347 0.0
C1326 C 0.78116 0.72219 0.48872 0.0
C1327 C 0.75688 0.70338 0.47453 0.0
C1328 C 0.74891 0.71493 0.49014 0.0
O1329 O 0.75855 0.77316 0.5012 0.0
C1330 C 0.79253 0.75822 0.5526 0.0
O1331 O 0.78339 0.7758 0.5547 0.0
H1332 H 0.79609 0.72939 0.49218 0.0
H1333 H 0.73296 0.71513 0.4942 0.0
N1334 N 0.73851 0.74658 0.53285 0.0
N1335 N 0.71666 0.75702 0.5565 0.0
C1336 C 0.73657 0.75358 0.55245 0.0
C1337 C 0.7191 0.74519 0.52435 0.0
C1338 C 0.70562 0.75137 0.53894 0.0
C1339 C 0.7666 0.77667 0.4838 0.0
O1340 O 0.78299 0.76655 0.47898 0.0
H1341 H 0.74957 0.7575 0.56299 0.0
H1342 H 0.71515 0.74221 0.50801 0.0
O1343 O 0.78661 0.74642 0.53753 0.0
H1344 H 0.74823 0.69294 0.46412 0.0
H1345 H 0.6892 0.7536 0.53608 0.0
Cu1346 Cu 0.76359 0.2624 0.52637 0.0
N1347 N 0.76082 0.23799 0.51079 0.0
N1348 N 0.75065 0.21751 0.48386 0.0
C1349 C 0.75259 0.23694 0.49098 0.0
C1350 C 0.75794 0.20586 0.49996 0.0
C1351 C 0.76424 0.21851 0.51648 0.0
O1352 O 0.7707 0.28351 0.50604 0.0
C1353 C 0.72732 0.25129 0.54743 0.0
O1354 O 0.72606 0.23551 0.53475 0.0
H1355 H 0.7478 0.25026 0.48209 0.0
H1356 H 0.76997 0.21374 0.53185 0.0
N1357 N 0.7851 0.2634 0.54715 0.0
N1358 N 0.80341 0.2775 0.57436 0.0
C1359 C 0.78957 0.28058 0.5582 0.0
C1360 C 0.79647 0.24874 0.55664 0.0
C1361 C 0.80782 0.25742 0.57342 0.0
C1362 C 0.78849 0.2807 0.49891 0.0
O1363 O 0.79915 0.26498 0.50589 0.0
H1364 H 0.78224 0.29501 0.55475 0.0
H1365 H 0.7959 0.23278 0.55234 0.0
O1366 O 0.73958 0.2661 0.54339 0.0
H1367 H 0.75787 0.18934 0.50025 0.0
H1368 H 0.81769 0.24929 0.58463 0.0
Cu1369 Cu 0.26018 0.26069 0.51704 0.0
N1370 N 0.23582 0.26476 0.53072 0.0
N1371 N 0.21393 0.27886 0.55217 0.0
C1372 C 0.23368 0.27361 0.54951 0.0
C1373 C 0.20326 0.27307 0.53446 0.0
C1374 C 0.21678 0.26448 0.52126 0.0
O1375 O 0.28342 0.25712 0.53725 0.0
C1376 C 0.27208 0.2831 0.48073 0.0
O1377 O 0.28684 0.26975 0.47947 0.0
H1378 H 0.24652 0.27781 0.56018 0.0
H1379 H 0.21328 0.26007 0.50517 0.0
N1380 N 0.25851 0.23625 0.50185 0.0
N1381 N 0.26899 0.21054 0.4822 0.0
C1382 C 0.2747 0.22733 0.49343 0.0
C1383 C 0.24196 0.22449 0.49605 0.0
C1384 C 0.24836 0.20869 0.48379 0.0
C1385 C 0.29109 0.26877 0.55167 0.0
O1386 O 0.28439 0.28751 0.55321 0.0
H1387 H 0.29026 0.23357 0.49487 0.0
H1388 H 0.2263 0.22726 0.50011 0.0
O1389 O 0.26138 0.28301 0.49685 0.0
H1390 H 0.18712 0.27612 0.53075 0.0
H1391 H 0.23857 0.19692 0.4764 0.0
Cu1392 Cu 0.78175 0.54012 0.78102 0.0
N1393 N 0.806 0.55597 0.77912 0.0
N1394 N 0.82669 0.58048 0.76701 0.0
C1395 C 0.80882 0.56979 0.76387 0.0
C1396 C 0.83563 0.57296 0.78484 0.0
C1397 C 0.82284 0.55779 0.79227 0.0
O1398 O 0.75955 0.56001 0.78364 0.0
C1399 C 0.79595 0.50836 0.75932 0.0
O1400 O 0.80958 0.51094 0.77507 0.0
H1401 H 0.79764 0.57239 0.75102 0.0
H1402 H 0.82553 0.54897 0.80638 0.0
N1403 N 0.78121 0.52297 0.80461 0.0
N1404 N 0.7724 0.49536 0.82303 0.0
C1405 C 0.77065 0.50506 0.80445 0.0
C1406 C 0.79005 0.52469 0.82408 0.0
C1407 C 0.78462 0.50765 0.83548 0.0
C1408 C 0.76292 0.57169 0.79955 0.0
O1409 O 0.7797 0.56865 0.81144 0.0
H1410 H 0.76176 0.49924 0.79087 0.0
H1411 H 0.7998 0.5373 0.82963 0.0
O1412 O 0.78101 0.52086 0.75736 0.0
H1413 H 0.85037 0.57799 0.79193 0.0
H1414 H 0.78968 0.50435 0.8515 0.0
Cu1415 Cu 0.24876 0.5327 0.75132 0.0
N1416 N 0.25022 0.51657 0.77557 0.0
N1417 N 0.26429 0.49424 0.79847 0.0
C1418 C 0.26775 0.51012 0.78556 0.0
C1419 C 0.24366 0.49099 0.79706 0.0
C1420 C 0.23505 0.50465 0.7828 0.0
O1421 O 0.24316 0.51413 0.72781 0.0
C1422 C 0.29225 0.54582 0.75124 0.0
O1423 O 0.29758 0.52682 0.7482 0.0
H1424 H 0.28288 0.51624 0.78263 0.0
H1425 H 0.21912 0.50478 0.77688 0.0
N1426 N 0.22706 0.55118 0.75095 0.0
N1427 N 0.20914 0.5789 0.74129 0.0
C1428 C 0.225 0.56667 0.73716 0.0
C1429 C 0.21204 0.55369 0.76441 0.0
C1430 C 0.20099 0.57083 0.75852 0.0
C1431 C 0.2506 0.49626 0.72725 0.0
O1432 O 0.26563 0.49139 0.7408 0.0
H1433 H 0.23565 0.56945 0.72496 0.0
H1434 H 0.20968 0.54414 0.77789 0.0
O1435 O 0.27323 0.55024 0.75112 0.0
H1436 H 0.23558 0.47866 0.80462 0.0
H1437 H 0.18819 0.57708 0.76649 0.0
Cu1438 Cu 0.27773 0.51138 0.24726 0.0
N1439 N 0.25708 0.49082 0.2459 0.0
N1440 N 0.24044 0.46309 0.25769 0.0
C1441 C 0.24999 0.4811 0.26276 0.0
C1442 C 0.24097 0.46184 0.23665 0.0
C1443 C 0.25138 0.47882 0.22947 0.0
O1444 O 0.3038 0.49655 0.24688 0.0
C1445 C 0.25406 0.53595 0.27104 0.0
O1446 O 0.24015 0.52834 0.2574 0.0
H1447 H 0.25309 0.4866 0.27856 0.0
H1448 H 0.25605 0.48131 0.21367 0.0
N1449 N 0.27763 0.52874 0.22398 0.0
N1450 N 0.28723 0.55556 0.20472 0.0
C1451 C 0.29172 0.54387 0.22169 0.0
C1452 C 0.26369 0.5308 0.20783 0.0
C1453 C 0.26963 0.54729 0.19586 0.0
C1454 C 0.30677 0.47965 0.25642 0.0
O1455 O 0.29452 0.47449 0.27129 0.0
H1456 H 0.30468 0.54667 0.23274 0.0
H1457 H 0.24999 0.5213 0.20518 0.0
O1458 O 0.27268 0.52986 0.27054 0.0
H1459 H 0.23578 0.44877 0.22731 0.0
H1460 H 0.26161 0.55269 0.18172 0.0
Cu1461 Cu 0.7746 0.50158 0.25885 0.0
N1462 N 0.79824 0.48578 0.2625 0.0
N1463 N 0.81934 0.46431 0.27982 0.0
C1464 C 0.80149 0.47451 0.27985 0.0
C1465 C 0.8276 0.46909 0.26148 0.0
C1466 C 0.81456 0.48255 0.25082 0.0
O1467 O 0.75152 0.48231 0.2548 0.0
C1468 C 0.79182 0.53008 0.28448 0.0
O1469 O 0.80503 0.52846 0.26972 0.0
H1470 H 0.79067 0.47362 0.29214 0.0
H1471 H 0.81683 0.4894 0.23573 0.0
N1472 N 0.77391 0.51974 0.23637 0.0
N1473 N 0.76512 0.5485 0.2196 0.0
C1474 C 0.76361 0.53734 0.23714 0.0
C1475 C 0.78228 0.51957 0.21756 0.0
C1476 C 0.77688 0.53741 0.20714 0.0
C1477 C 0.7543 0.46939 0.24034 0.0
O1478 O 0.77093 0.47125 0.22958 0.0
H1479 H 0.75511 0.54186 0.25045 0.0
H1480 H 0.79174 0.50753 0.2119 0.0
O1481 O 0.77543 0.51898 0.28353 0.0
H1482 H 0.8421 0.46348 0.25631 0.0
H1483 H 0.78169 0.54205 0.19189 0.0
Cu1484 Cu 0.52719 0.29197 0.78735 0.0
N1485 N 0.51067 0.29712 0.81002 0.0
N1486 N 0.48521 0.31136 0.82719 0.0
C1487 C 0.49316 0.30797 0.80839 0.0
C1488 C 0.49813 0.30187 0.84116 0.0
C1489 C 0.51382 0.29318 0.83057 0.0
O1490 O 0.50802 0.28626 0.76338 0.0
C1491 C 0.55362 0.32531 0.79983 0.0
O1492 O 0.54159 0.32686 0.8156 0.0
H1493 H 0.48654 0.31335 0.79358 0.0
H1494 H 0.52703 0.28538 0.83752 0.0
N1495 N 0.54395 0.26903 0.78988 0.0
N1496 N 0.56926 0.24886 0.78001 0.0
C1497 C 0.55557 0.26331 0.77412 0.0
C1498 C 0.55052 0.25782 0.80648 0.0
C1499 C 0.56622 0.24538 0.80042 0.0
C1500 C 0.49714 0.27012 0.76607 0.0
O1501 O 0.50005 0.2601 0.78375 0.0
H1502 H 0.55502 0.27079 0.75902 0.0
H1503 H 0.54516 0.25928 0.82209 0.0
O1504 O 0.54786 0.31382 0.78442 0.0
H1505 H 0.49682 0.30192 0.85796 0.0
H1506 H 0.57521 0.23517 0.81043 0.0
Cu1507 Cu 0.50917 0.78762 0.77471 0.0
N1508 N 0.52685 0.78382 0.79837 0.0
N1509 N 0.55428 0.77223 0.81715 0.0
C1510 C 0.54461 0.7735 0.79803 0.0
C1511 C 0.54198 0.78207 0.83013 0.0
C1512 C 0.52504 0.7892 0.81848 0.0
O1513 O 0.52714 0.79058 0.75125 0.0
C1514 C 0.47578 0.76634 0.7879 0.0
O1515 O 0.47748 0.78179 0.80101 0.0
H1516 H 0.55039 0.76711 0.78391 0.0
H1517 H 0.5122 0.79741 0.82431 0.0
N1518 N 0.49415 0.8118 0.77495 0.0
N1519 N 0.47258 0.83559 0.76215 0.0
C1520 C 0.48011 0.8167 0.75964 0.0
C1521 C 0.49543 0.82803 0.78789 0.0
C1522 C 0.48201 0.84272 0.78007 0.0
C1523 C 0.53943 0.80597 0.75357 0.0
O1524 O 0.53858 0.81696 0.77068 0.0
H1525 H 0.47562 0.80649 0.74684 0.0
H1526 H 0.50578 0.82935 0.80166 0.0
O1527 O 0.48897 0.76506 0.77384 0.0
H1528 H 0.54471 0.78357 0.84689 0.0
H1529 H 0.4799 0.85773 0.78665 0.0
Cu1530 Cu 0.51906 0.76111 0.27528 0.0
N1531 N 0.50151 0.76325 0.2977 0.0
N1532 N 0.47588 0.7759 0.31576 0.0
C1533 C 0.4872 0.77788 0.29874 0.0
C1534 C 0.4835 0.75938 0.32599 0.0
C1535 C 0.49929 0.75159 0.3148 0.0
O1536 O 0.50004 0.75808 0.25047 0.0
C1537 C 0.54666 0.78807 0.29564 0.0
O1538 O 0.53946 0.77801 0.31151 0.0
H1539 H 0.48494 0.78963 0.28697 0.0
H1540 H 0.5085 0.73845 0.31891 0.0
N1541 N 0.53626 0.73837 0.27511 0.0
N1542 N 0.56229 0.7197 0.26408 0.0
C1543 C 0.55246 0.7377 0.26277 0.0
C1544 C 0.53582 0.72012 0.28479 0.0
C1545 C 0.552 0.70863 0.27813 0.0
C1546 C 0.48755 0.7429 0.25227 0.0
O1547 O 0.48957 0.73165 0.26923 0.0
H1548 H 0.55705 0.75043 0.25317 0.0
H1549 H 0.52445 0.71534 0.29563 0.0
O1550 O 0.53895 0.78418 0.27722 0.0
H1551 H 0.47833 0.75357 0.34069 0.0
H1552 H 0.55569 0.69321 0.28297 0.0
Cu1553 Cu 0.50913 0.25483 0.28502 0.0
N1554 N 0.49151 0.25159 0.30727 0.0
N1555 N 0.46717 0.23728 0.32645 0.0
C1556 C 0.48086 0.23433 0.31157 0.0
C1557 C 0.46978 0.25705 0.3322 0.0
C1558 C 0.48474 0.26583 0.32032 0.0
O1559 O 0.49235 0.25964 0.25917 0.0
C1560 C 0.53732 0.2282 0.30315 0.0
O1561 O 0.53091 0.23751 0.31973 0.0
H1562 H 0.48222 0.2202 0.30299 0.0
H1563 H 0.48983 0.28164 0.32075 0.0
N1564 N 0.52597 0.27825 0.28694 0.0
N1565 N 0.55052 0.29864 0.27437 0.0
C1566 C 0.54431 0.27922 0.27798 0.0
C1567 C 0.52047 0.29778 0.28947 0.0
C1568 C 0.53572 0.3104 0.28198 0.0
C1569 C 0.47278 0.25713 0.2573 0.0
O1570 O 0.46345 0.24633 0.27137 0.0
H1571 H 0.55206 0.26582 0.27268 0.0
H1572 H 0.50553 0.30252 0.29425 0.0
O1573 O 0.52877 0.23243 0.28527 0.0
H1574 H 0.46135 0.26472 0.34397 0.0
H1575 H 0.53498 0.32684 0.28039 0.0
C1576 C 0.2258 0.21984 0.106 0.0
C1577 C 0.21465 0.22782 0.12231 0.0
C1578 C 0.22897 0.23126 0.08786 0.0
C1579 C 0.22096 0.25102 0.08522 0.0
H1580 H 0.2326 0.20488 0.10749 0.0
H1581 H 0.23789 0.22461 0.07582 0.0
S1582 S 0.18975 0.27846 0.12289 0.0
N1583 N 0.19466 0.25629 0.13422 0.0
N1584 N 0.20105 0.27788 0.10037 0.0
C1585 C 0.20933 0.25896 0.10118 0.0
C1586 C 0.20611 0.24735 0.11967 0.0
C1587 C 0.83004 0.24088 0.11058 0.0
C1588 C 0.83102 0.21942 0.11067 0.0
C1589 C 0.81928 0.25139 0.09437 0.0
C1590 C 0.80909 0.24093 0.07743 0.0
H1591 H 0.8376 0.24966 0.12322 0.0
H1592 H 0.81905 0.26791 0.09516 0.0
S1593 S 0.80771 0.18464 0.06975 0.0
N1594 N 0.82139 0.18806 0.092 0.0
N1595 N 0.80106 0.20768 0.06171 0.0
C1596 C 0.80998 0.21943 0.07732 0.0
C1597 C 0.82093 0.20873 0.09386 0.0
C1598 C 0.80751 0.82008 0.08492 0.0
C1599 C 0.79782 0.82807 0.10222 0.0
C1600 C 0.79599 0.81145 0.06786 0.0
C1601 C 0.77422 0.81027 0.06736 0.0
H1602 H 0.82418 0.82079 0.08438 0.0
H1603 H 0.80433 0.80558 0.05498 0.0
S1604 S 0.74139 0.82844 0.10925 0.0
N1605 N 0.76522 0.83389 0.11812 0.0
N1606 N 0.74349 0.81767 0.08614 0.0
C1607 C 0.76432 0.81809 0.08469 0.0
C1608 C 0.77612 0.827 0.10205 0.0
C1609 C 0.17726 0.77878 0.06735 0.0
C1610 C 0.18796 0.78299 0.08662 0.0
C1611 C 0.18662 0.76839 0.05131 0.0
C1612 C 0.20713 0.76169 0.05379 0.0
H1613 H 0.16152 0.7838 0.06453 0.0
H1614 H 0.17778 0.76591 0.03669 0.0
S1615 S 0.2416 0.76788 0.10162 0.0
N1616 N 0.22003 0.77911 0.10753 0.0
N1617 N 0.23763 0.75941 0.07741 0.0
C1618 C 0.21802 0.7657 0.07302 0.0
C1619 C 0.20846 0.77638 0.0894 0.0
C1620 C 0.26216 0.81426 0.92023 0.0
C1621 C 0.24105 0.81901 0.91964 0.0
C1622 C 0.27128 0.80288 0.93676 0.0
C1623 C 0.25967 0.79586 0.95341 0.0
H1624 H 0.27153 0.81861 0.90736 0.0
H1625 H 0.28738 0.79891 0.936 0.0
S1626 S 0.20434 0.80679 0.96052 0.0
N1627 N 0.20925 0.81764 0.93799 0.0
N1628 N 0.22621 0.79642 0.96913 0.0
C1629 C 0.23877 0.80159 0.95355 0.0
C1630 C 0.22951 0.81306 0.93664 0.0
C1631 C 0.22408 0.23262 0.94642 0.0
C1632 C 0.24036 0.2259 0.93463 0.0
C1633 C 0.22786 0.24226 0.9658 0.0
C1634 C 0.2481 0.24564 0.97438 0.0
H1635 H 0.20825 0.23137 0.94019 0.0
H1636 H 0.21471 0.24776 0.97378 0.0
S1637 S 0.29615 0.2288 0.95104 0.0
N1638 N 0.27753 0.22154 0.93389 0.0
N1639 N 0.28462 0.23994 0.97034 0.0
C1640 C 0.26453 0.23797 0.96339 0.0
C1641 C 0.26067 0.22812 0.9435 0.0
C1642 C 0.8483 0.23303 0.93089 0.0
C1643 C 0.83648 0.21836 0.9192 0.0
C1644 C 0.84117 0.24164 0.94921 0.0
C1645 C 0.82194 0.23591 0.95694 0.0
H1646 H 0.86352 0.23757 0.92622 0.0
H1647 H 0.85101 0.25282 0.95747 0.0
S1648 S 0.78436 0.19889 0.93157 0.0
N1649 N 0.80383 0.1995 0.91595 0.0
N1650 N 0.79093 0.21477 0.95092 0.0
C1651 C 0.8097 0.22156 0.94516 0.0
C1652 C 0.81687 0.21298 0.92627 0.0
C1653 C 0.83794 0.82401 0.93728 0.0
C1654 C 0.82504 0.829 0.91963 0.0
C1655 C 0.8313 0.81043 0.95263 0.0
C1656 C 0.81143 0.80148 0.95106 0.0
H1657 H 0.85311 0.8311 0.93959 0.0
H1658 H 0.84148 0.80745 0.9662 0.0
S1659 S 0.77255 0.80732 0.90702 0.0
N1660 N 0.79209 0.82222 0.90071 0.0
N1661 N 0.77954 0.79712 0.92985 0.0
C1662 C 0.79861 0.80577 0.93328 0.0
C1663 C 0.80542 0.81942 0.91753 0.0
C1664 C 0.11891 0.23685 0.23516 0.0
C1665 C 0.11751 0.22129 0.2199 0.0
C1666 C 0.10184 0.24883 0.23931 0.0
C1667 C 0.08269 0.24591 0.22826 0.0
H1668 H 0.1334 0.23993 0.24389 0.0
H1669 H 0.10361 0.26053 0.25127 0.0
S1670 S 0.07029 0.2063 0.18784 0.0
N1671 N 0.09498 0.20299 0.19444 0.0
N1672 N 0.06301 0.22566 0.20212 0.0
C1673 C 0.081 0.2304 0.21301 0.0
C1674 C 0.09836 0.21808 0.20887 0.0
C1675 C 0.83312 0.0902 0.22156 0.0
C1676 C 0.84533 0.10666 0.2296 0.0
C1677 C 0.82571 0.07494 0.23473 0.0
C1678 C 0.83035 0.07538 0.25647 0.0
H1679 H 0.82922 0.08913 0.20492 0.0
H1680 H 0.81655 0.06249 0.22776 0.0
S1681 S 0.86161 0.1152 0.28542 0.0
N1682 N 0.86179 0.12246 0.26072 0.0
N1683 N 0.84759 0.09389 0.28549 0.0
C1684 C 0.84247 0.09178 0.26475 0.0
C1685 C 0.84996 0.1074 0.25133 0.0
C1686 C 0.92602 0.83258 0.23892 0.0
C1687 C 0.9204 0.8257 0.2185 0.0
C1688 C 0.94217 0.8235 0.25102 0.0
C1689 C 0.9533 0.80704 0.24333 0.0
H1690 H 0.91821 0.84542 0.24543 0.0
H1691 H 0.94596 0.82943 0.26657 0.0
S1692 S 0.94436 0.7829 0.19098 0.0
N1693 N 0.92684 0.80087 0.19146 0.0
N1694 N 0.95745 0.78434 0.21377 0.0
C1695 C 0.94764 0.79985 0.22302 0.0
C1696 C 0.93119 0.80905 0.21074 0.0
C1697 C 0.19108 0.91565 0.19465 0.0
C1698 C 0.17785 0.90043 0.20236 0.0
C1699 C 0.19785 0.93246 0.20702 0.0
C1700 C 0.19156 0.9349 0.2276 0.0
H1701 H 0.19624 0.91459 0.17886 0.0
H1702 H 0.20774 0.94387 0.20023 0.0
S1703 S 0.15754 0.89911 0.25554 0.0
N1704 N 0.15889 0.88889 0.23208 0.0
N1705 N 0.17202 0.92009 0.25543 0.0
C1706 C 0.17862 0.91963 0.23564 0.0
C1707 C 0.17173 0.9025 0.22304 0.0
C1708 C 0.11507 0.80749 0.80457 0.0
C1709 C 0.11786 0.82719 0.81319 0.0
C1710 C 0.09545 0.80007 0.79757 0.0
C1711 C 0.07773 0.81211 0.79865 0.0
H1712 H 0.12826 0.79779 0.80289 0.0
H1713 H 0.09438 0.78502 0.79051 0.0
S1714 S 0.0765 0.86447 0.82102 0.0
N1715 N 0.10111 0.85831 0.82332 0.0
N1716 N 0.06425 0.84451 0.81017 0.0
C1717 C 0.0802 0.83161 0.80797 0.0
C1718 C 0.10022 0.8391 0.81525 0.0
C1719 C 0.23345 0.12052 0.7893 0.0
C1720 C 0.22125 0.1218 0.8068 0.0
C1721 C 0.23937 0.10153 0.7815 0.0
C1722 C 0.23322 0.08303 0.79081 0.0
H1723 H 0.23926 0.13432 0.78216 0.0
H1724 H 0.2496 0.10144 0.76865 0.0
S1725 S 0.1985 0.07821 0.83509 0.0
N1726 N 0.20141 0.10309 0.83182 0.0
N1727 N 0.21219 0.06743 0.81719 0.0
C1728 C 0.21987 0.08418 0.8075 0.0
C1729 C 0.21402 0.10352 0.81551 0.0
C1730 C 0.95987 0.22449 0.79653 0.0
C1731 C 0.94238 0.23148 0.80651 0.0
C1732 C 0.97565 0.23808 0.79074 0.0
C1733 C 0.97458 0.25909 0.79497 0.0
H1734 H 0.96165 0.20831 0.79374 0.0
H1735 H 0.98922 0.23198 0.78396 0.0
S1736 S 0.9314 0.28551 0.81891 0.0
N1737 N 0.92456 0.26112 0.81907 0.0
N1738 N 0.95389 0.2865 0.80797 0.0
C1739 C 0.95671 0.26638 0.80386 0.0
C1740 C 0.94068 0.25264 0.80967 0.0
C1741 C 0.77813 0.94717 0.80682 0.0
C1742 C 0.79614 0.95389 0.81817 0.0
C1743 C 0.76613 0.96072 0.7945 0.0
C1744 C 0.77178 0.98153 0.79279 0.0
H1745 H 0.77342 0.93122 0.80725 0.0
H1746 H 0.75273 0.95458 0.78564 0.0
S1747 S 0.81734 1.00693 0.81997 0.0
N1748 N 0.8188 0.98282 0.82738 0.0
N1749 N 0.79633 1.00829 0.80434 0.0
C1750 C 0.78946 0.98856 0.80459 0.0
C1751 C 0.8016 0.97476 0.81723 0.0
C1752 C 0.23303 0.08145 0.21329 0.0
C1753 C 0.21333 0.09043 0.21262 0.0
C1754 C 0.23598 0.06117 0.2201 0.0
C1755 C 0.21936 0.04908 0.22661 0.0
H1756 H 0.24641 0.09037 0.20908 0.0
H1757 H 0.25153 0.05531 0.22125 0.0
S1758 S 0.16442 0.06455 0.22628 0.0
N1759 N 0.17682 0.08503 0.21816 0.0
N1760 N 0.18219 0.04703 0.23022 0.0
C1761 C 0.19944 0.05749 0.22489 0.0
C1762 C 0.19646 0.07808 0.21808 0.0
C1763 C 0.2297 0.95475 0.81354 0.0
C1764 C 0.24056 0.93991 0.82535 0.0
C1765 C 0.23858 0.97409 0.80988 0.0
C1766 C 0.25852 0.97944 0.81816 0.0
H1767 H 0.2145 0.95117 0.80653 0.0
H1768 H 0.22982 0.98492 0.80039 0.0
S1769 S 0.29294 0.94637 0.851 0.0
N1770 N 0.27196 0.93216 0.84603 0.0
N1771 N 0.28861 0.96838 0.83909 0.0
C1772 C 0.26927 0.96494 0.8305 0.0
C1773 C 0.26031 0.94521 0.83408 0.0
C1774 C 0.12419 0.2652 0.84172 0.0
C1775 C 0.12755 0.24551 0.83378 0.0
C1776 C 0.10521 0.27499 0.83805 0.0
C1777 C 0.08885 0.26556 0.82614 0.0
H1778 H 0.13641 0.27321 0.85074 0.0
H1779 H 0.10356 0.2903 0.84406 0.0
S1780 S 0.08923 0.21372 0.80263 0.0
N1781 N 0.1126 0.21678 0.81384 0.0
N1782 N 0.07687 0.23493 0.80741 0.0
C1783 C 0.09179 0.24568 0.81857 0.0
C1784 C 0.11111 0.23571 0.82231 0.0
C1785 C 0.84859 0.09468 0.78894 0.0
C1786 C 0.83857 0.11337 0.79148 0.0
C1787 C 0.84005 0.07937 0.77564 0.0
C1788 C 0.82103 0.08203 0.76441 0.0
H1789 H 0.86318 0.09183 0.79739 0.0
H1790 H 0.84812 0.06509 0.77465 0.0
S1791 S 0.78883 0.12835 0.76496 0.0
N1792 N 0.80872 0.1338 0.78132 0.0
N1793 N 0.79282 0.10513 0.75608 0.0
C1794 C 0.81102 0.10079 0.76648 0.0
C1795 C 0.81976 0.11643 0.78 0.0
C1796 C 0.93534 0.85454 0.81105 0.0
C1797 C 0.92369 0.87169 0.80504 0.0
C1798 C 0.95271 0.84903 0.80028 0.0
C1799 C 0.95909 0.86037 0.78297 0.0
H1800 H 0.93136 0.84567 0.8246 0.0
H1801 H 0.96154 0.83611 0.80598 0.0
S1802 S 0.93225 0.90517 0.75948 0.0
N1803 N 0.91875 0.89911 0.77983 0.0
N1804 N 0.95112 0.88854 0.75927 0.0
C1805 C 0.94709 0.87714 0.77635 0.0
C1806 C 0.92948 0.88283 0.78745 0.0
C1807 C 0.8326 0.95156 0.22993 0.0
C1808 C 0.81896 0.94116 0.21568 0.0
C1809 C 0.82574 0.96698 0.24285 0.0
C1810 C 0.8049 0.97285 0.24213 0.0
H1811 H 0.84875 0.9475 0.23142 0.0
H1812 H 0.83699 0.97424 0.25368 0.0
S1813 S 0.76295 0.95095 0.20693 0.0
N1814 N 0.78365 0.93817 0.20106 0.0
N1815 N 0.77068 0.96729 0.22554 0.0
C1816 C 0.79107 0.96289 0.22767 0.0
C1817 C 0.79809 0.94696 0.21449 0.0
C1818 C 0.06062 0.77822 0.19471 0.0
C1819 C 0.0816 0.78188 0.20085 0.0
C1820 C 0.04663 0.77019 0.20881 0.0
C1821 C 0.05318 0.76573 0.22954 0.0
H1822 H 0.05482 0.78237 0.17913 0.0
H1823 H 0.03042 0.76884 0.2039 0.0
S1824 S 0.1065 0.77081 0.25308 0.0
N1825 N 0.10827 0.77904 0.22884 0.0
N1826 N 0.08207 0.76396 0.25513 0.0
C1827 C 0.07425 0.76814 0.23549 0.0
C1828 C 0.08846 0.77619 0.2212 0.0
C1829 C 0.96726 0.2103 0.23272 0.0
C1830 C 0.94626 0.20831 0.23705 0.0
C1831 C 0.98162 0.21975 0.24697 0.0
C1832 C 0.97558 0.22763 0.26618 0.0
H1833 H 0.97256 0.20515 0.21786 0.0
H1834 H 0.9974 0.22162 0.24242 0.0
S1835 S 0.92288 0.22374 0.28622 0.0
N1836 N 0.92052 0.21308 0.26281 0.0
N1837 N 0.94735 0.23101 0.28952 0.0
C1838 C 0.95479 0.2248 0.27114 0.0
C1839 C 0.94018 0.21516 0.2566 0.0
C1840 C 0.22035 0.76196 0.58447 0.0
C1841 C 0.21811 0.74202 0.59254 0.0
C1842 C 0.23126 0.76575 0.56636 0.0
C1843 C 0.24047 0.74971 0.55581 0.0
H1844 H 0.21418 0.77483 0.5926 0.0
H1845 H 0.23348 0.78139 0.56132 0.0
S1846 S 0.23769 0.6946 0.56932 0.0
N1847 N 0.2251 0.70599 0.58767 0.0
N1848 N 0.2451 0.713 0.55363 0.0
C1849 C 0.23732 0.72963 0.56302 0.0
C1850 C 0.22627 0.72579 0.58136 0.0
C1851 C 0.82248 0.75326 0.60543 0.0
C1852 C 0.83199 0.73418 0.60396 0.0
C1853 C 0.81037 0.76128 0.58854 0.0
C1854 C 0.8074 0.75062 0.5694 0.0
H1855 H 0.8239 0.76179 0.61996 0.0
H1856 H 0.80282 0.7757 0.59075 0.0
S1857 S 0.83129 0.70117 0.55677 0.0
N1858 N 0.83918 0.7057 0.58129 0.0
N1859 N 0.81665 0.72061 0.54964 0.0
C1860 C 0.81766 0.73192 0.5675 0.0
C1861 C 0.82986 0.72376 0.58472 0.0
C1862 C 0.80358 0.32299 0.61075 0.0
C1863 C 0.8236 0.32298 0.62039 0.0
C1864 C 0.79708 0.30801 0.59599 0.0
C1865 C 0.81032 0.29236 0.59014 0.0
H1866 H 0.7928 0.33469 0.61467 0.0
H1867 H 0.78148 0.30868 0.58917 0.0
S1868 S 0.86474 0.28619 0.60979 0.0
N1869 N 0.85689 0.30636 0.62246 0.0
N1870 N 0.84473 0.27833 0.59469 0.0
C1871 C 0.83039 0.29217 0.59966 0.0
C1872 C 0.837 0.30742 0.61474 0.0
C1873 C 0.18696 0.32197 0.57732 0.0
C1874 C 0.19189 0.31914 0.5988 0.0
C1875 C 0.19411 0.3087 0.56228 0.0
C1876 C 0.2067 0.29216 0.56804 0.0
H1877 H 0.17759 0.33469 0.572 0.0
H1878 H 0.19002 0.31159 0.54594 0.0
S1879 S 0.22376 0.27745 0.622 0.0
N1880 N 0.20977 0.298 0.62505 0.0
N1881 N 0.22369 0.27338 0.59651 0.0
C1882 C 0.21198 0.28916 0.58935 0.0
C1883 C 0.20448 0.30257 0.60479 0.0
C1884 C 0.26567 0.29871 0.4236 0.0
C1885 C 0.24738 0.31002 0.42275 0.0
C1886 C 0.27429 0.29129 0.44262 0.0
C1887 C 0.2649 0.29468 0.46166 0.0
H1888 H 0.27307 0.29504 0.40931 0.0
H1889 H 0.28794 0.28201 0.44217 0.0
S1890 S 0.21763 0.32495 0.46812 0.0
N1891 N 0.22086 0.32546 0.44269 0.0
N1892 N 0.23697 0.31161 0.4785 0.0
C1893 C 0.24719 0.30698 0.46115 0.0
C1894 C 0.23847 0.31461 0.44171 0.0
C1895 C 0.25746 0.69357 0.42165 0.0
C1896 C 0.23687 0.69863 0.41625 0.0
C1897 C 0.26749 0.70088 0.44024 0.0
C1898 C 0.25722 0.71342 0.45412 0.0
H1899 H 0.26607 0.6845 0.41106 0.0
H1900 H 0.28359 0.69732 0.44336 0.0
S1901 S 0.20219 0.72842 0.44833 0.0
N1902 N 0.20602 0.71534 0.42684 0.0
N1903 N 0.22445 0.72848 0.46212 0.0
C1904 C 0.23624 0.71762 0.44931 0.0
C1905 C 0.22618 0.71039 0.43029 0.0
C1906 C 0.80176 0.67359 0.43533 0.0
C1907 C 0.81704 0.68624 0.42697 0.0
C1908 C 0.78894 0.68083 0.4506 0.0
C1909 C 0.79086 0.70101 0.4581 0.0
H1910 H 0.79987 0.65786 0.4302 0.0
H1911 H 0.77755 0.67048 0.45674 0.0
S1912 S 0.82726 0.7408 0.43981 0.0
N1913 N 0.83272 0.72016 0.42647 0.0
N1914 N 0.80844 0.73394 0.45489 0.0
C1915 C 0.8059 0.71392 0.44961 0.0
C1916 C 0.81902 0.70649 0.43412 0.0
C1917 C 0.82943 0.30582 0.46696 0.0
C1918 C 0.81816 0.31543 0.45046 0.0
C1919 C 0.81952 0.29538 0.4828 0.0
C1920 C 0.79783 0.29418 0.4831 0.0
H1921 H 0.84616 0.3063 0.46769 0.0
H1922 H 0.82906 0.28799 0.49487 0.0
S1923 S 0.76092 0.31685 0.44382 0.0
N1924 N 0.78388 0.32318 0.43552 0.0
N1925 N 0.76527 0.30377 0.46564 0.0
C1926 C 0.78625 0.30418 0.46711 0.0
C1927 C 0.7964 0.31475 0.45074 0.0
C1928 C 0.11179 0.78838 0.70779 0.0
C1929 C 0.10978 0.77069 0.69528 0.0
C1930 C 0.09448 0.79964 0.71271 0.0
C1931 C 0.0745 0.79378 0.70517 0.0
H1932 H 0.12686 0.79348 0.71403 0.0
H1933 H 0.09666 0.8129 0.72276 0.0
S1934 S 0.06067 0.74826 0.67252 0.0
N1935 N 0.08609 0.7476 0.67584 0.0
N1936 N 0.0536 0.76889 0.68498 0.0
C1937 C 0.07226 0.77633 0.69237 0.0
C1938 C 0.08989 0.76477 0.68745 0.0
C1939 C 0.84097 0.6098 0.71909 0.0
C1940 C 0.84924 0.62824 0.7275 0.0
C1941 C 0.83343 0.59438 0.73208 0.0
C1942 C 0.83432 0.59662 0.75397 0.0
H1943 H 0.84028 0.60731 0.70233 0.0
H1944 H 0.82718 0.58042 0.72499 0.0
S1945 S 0.85433 0.642 0.78376 0.0
N1946 N 0.85761 0.64796 0.75905 0.0
N1947 N 0.84374 0.61885 0.78345 0.0
C1948 C 0.84253 0.61497 0.76257 0.0
C1949 C 0.84988 0.63082 0.74933 0.0
C1950 C 0.94868 0.37224 0.73716 0.0
C1951 C 0.93072 0.35997 0.73387 0.0
C1952 C 0.96575 0.36543 0.74954 0.0
C1953 C 0.96564 0.34599 0.75888 0.0
H1954 H 0.9496 0.3872 0.73001 0.0
H1955 H 0.97939 0.37518 0.75127 0.0
S1956 S 0.92219 0.30829 0.75601 0.0
N1957 N 0.91373 0.32764 0.74157 0.0
N1958 N 0.94571 0.31498 0.7649 0.0
C1959 C 0.94763 0.33377 0.75613 0.0
C1960 C 0.9302 0.34073 0.74365 0.0
C1961 C 0.2063 0.46564 0.70073 0.0
C1962 C 0.21528 0.44676 0.6966 0.0
C1963 C 0.21812 0.48194 0.70953 0.0
C1964 C 0.23934 0.47989 0.71493 0.0
H1965 H 0.18993 0.46776 0.69728 0.0
H1966 H 0.21033 0.49599 0.7129 0.0
S1967 S 0.27033 0.4337 0.70653 0.0
N1968 N 0.24674 0.42712 0.69773 0.0
N1969 N 0.26895 0.45755 0.71472 0.0
C1970 C 0.24859 0.46119 0.71043 0.0
C1971 C 0.23658 0.44469 0.70115 0.0
C1972 C 0.11098 0.28167 0.31882 0.0
C1973 C 0.11643 0.30076 0.32795 0.0
C1974 C 0.09029 0.27647 0.31317 0.0
C1975 C 0.07434 0.2903 0.31617 0.0
H1976 H 0.1229 0.27099 0.31529 0.0
H1977 H 0.08699 0.26214 0.3051 0.0
S1978 S 0.08008 0.34136 0.34122 0.0
N1979 N 0.1039 0.3328 0.34116 0.0
N1980 N 0.06515 0.32311 0.33048 0.0
C1981 C 0.07945 0.30887 0.32643 0.0
C1982 C 0.10044 0.31408 0.33234 0.0
C1983 C 0.25352 0.58902 0.29509 0.0
C1984 C 0.2332 0.5903 0.30195 0.0
C1985 C 0.26085 0.57089 0.28646 0.0
C1986 C 0.24808 0.55337 0.28419 0.0
H1987 H 0.26362 0.60238 0.29559 0.0
H1988 H 0.27617 0.57097 0.28046 0.0
S1989 S 0.19484 0.54756 0.30227 0.0
N1990 N 0.20143 0.57147 0.30801 0.0
N1991 N 0.21491 0.53778 0.29121 0.0
C1992 C 0.22816 0.55411 0.29187 0.0
C1993 C 0.22079 0.57245 0.30085 0.0
C1994 C 0.94218 0.6871 0.30066 0.0
C1995 C 0.9276 0.69478 0.31417 0.0
C1996 C 0.95732 0.69992 0.29222 0.0
C1997 C 0.95863 0.72086 0.2972 0.0
H1998 H 0.9421 0.67097 0.29689 0.0
H1999 H 0.96855 0.69324 0.28241 0.0
S2000 S 0.92353 0.74881 0.3309 0.0
N2001 N 0.91517 0.72488 0.33149 0.0
N2002 N 0.94314 0.74889 0.31548 0.0
C2003 C 0.94366 0.72883 0.31006 0.0
C2004 C 0.92829 0.71584 0.31856 0.0
C2005 C 0.84284 0.41842 0.30666 0.0
C2006 C 0.84114 0.42305 0.32798 0.0
C2007 C 0.83622 0.4322 0.29095 0.0
C2008 C 0.82737 0.45091 0.29605 0.0
H2009 H 0.8495 0.40412 0.3021 0.0
H2010 H 0.83758 0.42801 0.27472 0.0
S2011 S 0.81968 0.47031 0.34953 0.0
N2012 N 0.8301 0.44769 0.35333 0.0
N2013 N 0.81778 0.47352 0.32392 0.0
C2014 C 0.82572 0.45572 0.31731 0.0
C2015 C 0.83258 0.44182 0.33325 0.0
C2016 C 0.19356 0.63365 0.73273 0.0
C2017 C 0.19512 0.63628 0.71101 0.0
C2018 C 0.1977 0.61479 0.74244 0.0
C2019 C 0.20362 0.59778 0.73084 0.0
H2020 H 0.1897 0.64644 0.74244 0.0
H2021 H 0.19687 0.61369 0.75925 0.0
S2022 S 0.20751 0.59583 0.67323 0.0
N2023 N 0.2013 0.61969 0.67798 0.0
N2024 N 0.2091 0.58434 0.69621 0.0
C2025 C 0.20457 0.6 0.70903 0.0
C2026 C 0.20032 0.61919 0.69914 0.0
C2027 C 0.21276 0.41644 0.27784 0.0
C2028 C 0.22401 0.412 0.29668 0.0
C2029 C 0.21787 0.43342 0.26555 0.0
C2030 C 0.23437 0.4468 0.27159 0.0
H2031 H 0.20032 0.40631 0.27214 0.0
H2032 H 0.209 0.43595 0.251 0.0
S2033 S 0.26815 0.44249 0.32013 0.0
N2034 N 0.25171 0.42306 0.32137 0.0
N2035 N 0.26178 0.45441 0.29807 0.0
C2036 C 0.24541 0.44282 0.29071 0.0
C2037 C 0.24014 0.42557 0.30325 0.0
C2038 C 0.11431 0.72872 0.32067 0.0
C2039 C 0.11646 0.7077 0.31666 0.0
C2040 C 0.09502 0.73821 0.31839 0.0
C2041 C 0.07705 0.72716 0.31172 0.0
H2042 H 0.12771 0.73797 0.3256 0.0
H2043 H 0.09425 0.75446 0.32136 0.0
S2044 S 0.07405 0.6717 0.29965 0.0
N2045 N 0.09874 0.67608 0.30605 0.0
N2046 N 0.06255 0.69389 0.30177 0.0
C2047 C 0.07891 0.7061 0.30789 0.0
C2048 C 0.09854 0.69638 0.31041 0.0
C2049 C 0.80041 0.57989 0.31279 0.0
C2050 C 0.81765 0.57561 0.3263 0.0
C2051 C 0.79035 0.5644 0.30071 0.0
C2052 C 0.79723 0.54418 0.30181 0.0
H2053 H 0.7952 0.59545 0.31092 0.0
H2054 H 0.77808 0.5685 0.28942 0.0
S2055 S 0.84122 0.52483 0.33485 0.0
N2056 N 0.84066 0.54944 0.3404 0.0
N2057 N 0.8218 0.52054 0.31758 0.0
C2058 C 0.81379 0.53955 0.31586 0.0
C2059 C 0.82397 0.55521 0.3282 0.0
C2060 C 0.93316 0.32475 0.31771 0.0
C2061 C 0.93892 0.32781 0.33902 0.0
C2062 C 0.94763 0.31886 0.30336 0.0
C2063 C 0.96846 0.31568 0.30971 0.0
H2064 H 0.91738 0.32725 0.31199 0.0
H2065 H 0.94237 0.31651 0.2872 0.0
S2066 S 0.99155 0.32152 0.36374 0.0
N2067 N 0.96692 0.32679 0.36582 0.0
N2068 N 0.99415 0.31636 0.33877 0.0
C2069 C 0.97443 0.31867 0.33097 0.0
C2070 C 0.95969 0.32459 0.3456 0.0
C2071 C 0.81116 0.45519 0.74435 0.0
C2072 C 0.8112 0.45585 0.7224 0.0
C2073 C 0.80467 0.47185 0.75591 0.0
C2074 C 0.79783 0.48992 0.74607 0.0
H2075 H 0.81707 0.44198 0.75276 0.0
H2076 H 0.80588 0.47087 0.77283 0.0
S2077 S 0.7932 0.49897 0.6889 0.0
N2078 N 0.80244 0.47564 0.69111 0.0
N2079 N 0.79006 0.507 0.713 0.0
C2080 C 0.79641 0.49038 0.72409 0.0
C2081 C 0.80314 0.47332 0.71222 0.0
C2082 C 0.08167 0.32674 0.70876 0.0
C2083 C 0.10177 0.33311 0.71575 0.0
C2084 C 0.06791 0.31778 0.72254 0.0
C2085 C 0.07371 0.31519 0.74383 0.0
H2086 H 0.07639 0.32916 0.69263 0.0
H2087 H 0.05234 0.3139 0.71675 0.0
S2088 S 0.1249 0.32792 0.7697 0.0
N2089 N 0.12699 0.3351 0.74517 0.0
N2090 N 0.10128 0.31832 0.77094 0.0
C2091 C 0.09402 0.32065 0.75077 0.0
C2092 C 0.10802 0.32958 0.73677 0.0
C2093 C 0.97433 0.73497 0.71948 0.0
C2094 C 0.95382 0.74016 0.723 0.0
C2095 C 0.99112 0.74529 0.72968 0.0
C2096 C 0.9882 0.76139 0.74381 0.0
H2097 H 0.97746 0.72301 0.70843 0.0
H2098 H 1.00654 0.74103 0.72583 0.0
S2099 S 0.93742 0.7802 0.75936 0.0
N2100 N 0.93144 0.76185 0.74229 0.0
N2101 N 0.9629 0.78123 0.76158 0.0
C2102 C 0.9677 0.76614 0.74817 0.0
C2103 C 0.95057 0.75556 0.73775 0.0
C2104 C 0.6993 0.22776 0.59266 0.0
C2105 C 0.70871 0.23754 0.61036 0.0
C2106 C 0.70441 0.23328 0.5723 0.0
C2107 C 0.719 0.24897 0.56869 0.0
H2108 H 0.68868 0.21502 0.59457 0.0
H2109 H 0.69746 0.22456 0.55929 0.0
S2110 S 0.7461 0.28112 0.60976 0.0
N2111 N 0.7318 0.26503 0.62292 0.0
N2112 N 0.74144 0.27539 0.58481 0.0
C2113 C 0.72752 0.25976 0.58625 0.0
C2114 C 0.72241 0.25402 0.607 0.0
C2115 C 0.32389 0.26313 0.60271 0.0
C2116 C 0.33031 0.24273 0.602 0.0
C2117 C 0.31171 0.27164 0.58616 0.0
C2118 C 0.30567 0.26015 0.56814 0.0
H2119 H 0.32788 0.27241 0.6164 0.0
H2120 H 0.30665 0.28722 0.58775 0.0
S2121 S 0.32073 0.20664 0.55774 0.0
N2122 N 0.3312 0.21175 0.58127 0.0
N2123 N 0.30865 0.22757 0.55014 0.0
C2124 C 0.31281 0.23994 0.56697 0.0
C2125 C 0.32501 0.23128 0.58388 0.0
C2126 C 0.345 0.8232 0.59937 0.0
C2127 C 0.33366 0.84133 0.60023 0.0
C2128 C 0.3399 0.80803 0.58431 0.0
C2129 C 0.32319 0.8103 0.5696 0.0
H2130 H 0.35825 0.82091 0.61008 0.0
H2131 H 0.34914 0.79441 0.58417 0.0
S2132 S 0.28835 0.85483 0.56546 0.0
N2133 N 0.30451 0.86034 0.58552 0.0
N2134 N 0.29545 0.83241 0.5568 0.0
C2135 C 0.3116 0.8283 0.57045 0.0
C2136 C 0.31672 0.84365 0.58584 0.0
C2137 C 0.6801 0.77728 0.5949 0.0
C2138 C 0.69042 0.795 0.60269 0.0
C2139 C 0.6892 0.76445 0.58056 0.0
C2140 C 0.70894 0.76884 0.57339 0.0
H2141 H 0.66466 0.77355 0.5996 0.0
H2142 H 0.68053 0.75122 0.5746 0.0
S2143 S 0.74217 0.81378 0.58865 0.0
N2144 N 0.72139 0.81635 0.60219 0.0
N2145 N 0.7384 0.79247 0.57509 0.0
C2146 C 0.71963 0.7863 0.58145 0.0
C2147 C 0.71038 0.79931 0.59613 0.0
C2148 C 0.75427 0.80438 0.43249 0.0
C2149 C 0.73254 0.80498 0.43144 0.0
C2150 C 0.76524 0.79601 0.44989 0.0
C2151 C 0.75495 0.78832 0.46715 0.0
H2152 H 0.76281 0.80972 0.41939 0.0
H2153 H 0.78189 0.79513 0.44959 0.0
S2154 S 0.69812 0.7877 0.4726 0.0
N2155 N 0.70116 0.79804 0.4494 0.0
N2156 N 0.72161 0.78277 0.48232 0.0
C2157 C 0.73322 0.78969 0.46663 0.0
C2158 C 0.72207 0.79785 0.44872 0.0
C2159 C 0.71639 0.216 0.43414 0.0
C2160 C 0.72315 0.19864 0.42361 0.0
C2161 C 0.72537 0.22198 0.45373 0.0
C2162 C 0.74144 0.21082 0.46378 0.0
H2163 H 0.70434 0.22534 0.42697 0.0
H2164 H 0.71957 0.23545 0.46111 0.0
S2165 S 0.76444 0.16379 0.44319 0.0
N2166 N 0.74647 0.16991 0.42516 0.0
N2167 N 0.76368 0.18144 0.46155 0.0
C2168 C 0.74818 0.19327 0.45355 0.0
C2169 C 0.739 0.18716 0.43361 0.0
C2170 C 0.28639 0.18066 0.43627 0.0
C2171 C 0.30738 0.17742 0.44169 0.0
C2172 C 0.27386 0.19114 0.44975 0.0
C2173 C 0.28182 0.19868 0.46919 0.0
H2174 H 0.27972 0.1754 0.42131 0.0
H2175 H 0.25795 0.19381 0.44466 0.0
S2176 S 0.33522 0.19202 0.49169 0.0
N2177 N 0.33525 0.18124 0.46835 0.0
N2178 N 0.31162 0.20062 0.49387 0.0
C2179 C 0.30264 0.19495 0.47505 0.0
C2180 C 0.31543 0.18441 0.46126 0.0
C2181 C 0.31423 0.80684 0.42447 0.0
C2182 C 0.31337 0.82824 0.42569 0.0
C2183 C 0.30691 0.7944 0.44036 0.0
C2184 C 0.29819 0.80276 0.45809 0.0
H2185 H 0.3215 0.79961 0.41158 0.0
H2186 H 0.30868 0.77803 0.43901 0.0
S2187 S 0.29042 0.85781 0.46795 0.0
N2188 N 0.3017 0.85728 0.44539 0.0
N2189 N 0.28784 0.83374 0.4753 0.0
C2190 C 0.29617 0.82407 0.45905 0.0
C2191 C 0.30386 0.83683 0.44289 0.0
C2192 C 0.62246 0.23433 0.76493 0.0
C2193 C 0.61952 0.23004 0.74338 0.0
C2194 C 0.60589 0.23983 0.77694 0.0
C2195 C 0.58577 0.2415 0.76785 0.0
H2196 H 0.63772 0.23345 0.77257 0.0
H2197 H 0.60896 0.24339 0.79335 0.0
S2198 S 0.56966 0.23147 0.71226 0.0
N2199 N 0.5948 0.22755 0.71357 0.0
N2200 N 0.5637 0.2378 0.73617 0.0
C2201 C 0.58256 0.23699 0.74641 0.0
C2202 C 0.59939 0.23124 0.7342 0.0
C2203 C 0.33209 0.12006 0.71496 0.0
C2204 C 0.34736 0.13393 0.72298 0.0
C2205 C 0.32439 0.10422 0.72732 0.0
C2206 C 0.3317 0.10142 0.74823 0.0
H2207 H 0.32599 0.12144 0.69895 0.0
H2208 H 0.31289 0.09382 0.72025 0.0
S2209 S 0.37135 0.13374 0.77695 0.0
N2210 N 0.36948 0.14381 0.75328 0.0
N2211 N 0.3547 0.11436 0.77659 0.0
C2212 C 0.34681 0.11531 0.75654 0.0
C2213 C 0.35465 0.13149 0.74394 0.0
C2214 C 0.42921 0.8695 0.74263 0.0
C2215 C 0.42929 0.86719 0.72075 0.0
C2216 C 0.44348 0.85929 0.75605 0.0
C2217 C 0.45824 0.84623 0.74812 0.0
H2218 H 0.4182 0.87948 0.74943 0.0
H2219 H 0.44281 0.86144 0.77277 0.0
S2220 S 0.46499 0.83498 0.69202 0.0
N2221 N 0.44521 0.85053 0.69183 0.0
N2222 N 0.47239 0.83206 0.71689 0.0
C2223 C 0.45851 0.84385 0.72627 0.0
C2224 C 0.44397 0.85415 0.71265 0.0
C2225 C 0.71327 0.94322 0.67062 0.0
C2226 C 0.70577 0.92929 0.68536 0.0
C2227 C 0.72589 0.96002 0.67684 0.0
C2228 C 0.73133 0.96375 0.69806 0.0
H2229 H 0.7092 0.94124 0.6541 0.0
H2230 H 0.73128 0.97034 0.66499 0.0
S2231 S 0.71737 0.93122 0.74278 0.0
N2232 N 0.70593 0.91984 0.72214 0.0
N2233 N 0.72927 0.95162 0.73375 0.0
C2234 C 0.72412 0.94995 0.71296 0.0
C2235 C 0.71143 0.9327 0.70664 0.0
C2236 C 0.60275 0.80529 0.29451 0.0
C2237 C 0.60593 0.81573 0.31377 0.0
C2238 C 0.58302 0.79787 0.28756 0.0
C2239 C 0.56577 0.80059 0.29965 0.0
H2240 H 0.61578 0.80183 0.28527 0.0
H2241 H 0.58157 0.78876 0.27341 0.0
S2242 S 0.56498 0.82975 0.34931 0.0
N2243 N 0.58943 0.83071 0.34324 0.0
N2244 N 0.55267 0.81635 0.33052 0.0
C2245 C 0.56849 0.81215 0.31815 0.0
C2246 C 0.58846 0.8198 0.32514 0.0
C2247 C 0.71912 0.08909 0.28997 0.0
C2248 C 0.71765 0.09647 0.31058 0.0
C2249 C 0.73046 0.07149 0.28579 0.0
C2250 C 0.74085 0.06071 0.30205 0.0
H2251 H 0.71187 0.09726 0.27692 0.0
H2252 H 0.73185 0.06688 0.26967 0.0
S2253 S 0.74083 0.07277 0.35883 0.0
N2254 N 0.72709 0.09098 0.3474 0.0
N2255 N 0.74758 0.05779 0.33971 0.0
C2256 C 0.73863 0.06736 0.32277 0.0
C2257 C 0.72726 0.08524 0.32699 0.0
C2258 C 0.44257 0.18735 0.34207 0.0
C2259 C 0.42233 0.19289 0.34646 0.0
C2260 C 0.45705 0.2019 0.33552 0.0
C2261 C 0.452 0.22264 0.33333 0.0
H2262 H 0.44725 0.1716 0.34364 0.0
H2263 H 0.47244 0.19693 0.33241 0.0
S2264 S 0.40103 0.24509 0.34246 0.0
N2265 N 0.39801 0.22063 0.34804 0.0
N2266 N 0.42505 0.24784 0.33539 0.0
C2267 C 0.43178 0.22838 0.3375 0.0
C2268 C 0.417 0.21354 0.34409 0.0
C2269 C 0.2887 0.91596 0.29073 0.0
C2270 C 0.30893 0.92253 0.29663 0.0
C2271 C 0.27467 0.92909 0.28049 0.0
C2272 C 0.28026 0.94933 0.27558 0.0
H2273 H 0.28336 0.90082 0.29495 0.0
H2274 H 0.25893 0.92365 0.27735 0.0
S2275 S 0.3318 0.97361 0.28605 0.0
N2276 N 0.33431 0.95026 0.29555 0.0
N2277 N 0.30782 0.97492 0.27607 0.0
C2278 C 0.30083 0.95571 0.28001 0.0
C2279 C 0.31519 0.9423 0.2906 0.0
C2280 C 0.72277 0.10921 0.73453 0.0
C2281 C 0.71257 0.11442 0.71529 0.0
C2282 C 0.72969 0.08924 0.73849 0.0
C2283 C 0.72674 0.07374 0.72333 0.0
H2284 H 0.72624 0.12085 0.74628 0.0
H2285 H 0.73838 0.08624 0.75306 0.0
S2286 S 0.69833 0.0786 0.67174 0.0
N2287 N 0.69785 0.10174 0.68197 0.0
N2288 N 0.71117 0.06447 0.68921 0.0
C2289 C 0.71563 0.07849 0.70452 0.0
C2290 C 0.7085 0.09873 0.70054 0.0
C2291 C 0.75458 0.91798 0.33819 0.0
C2292 C 0.73401 0.91442 0.33067 0.0
C2293 C 0.76462 0.93682 0.33509 0.0
C2294 C 0.75457 0.95275 0.32416 0.0
H2295 H 0.76301 0.90607 0.34649 0.0
H2296 H 0.78056 0.93874 0.34077 0.0
S2297 S 0.70045 0.95161 0.30213 0.0
N2298 N 0.70381 0.92863 0.31227 0.0
N2299 N 0.72255 0.96411 0.30677 0.0
C2300 C 0.73387 0.94956 0.31698 0.0
C2301 C 0.72362 0.93041 0.32018 0.0
C2302 C 0.59166 0.21054 0.29426 0.0
C2303 C 0.59756 0.20126 0.3135 0.0
C2304 C 0.57154 0.21781 0.29021 0.0
C2305 C 0.55666 0.21636 0.30541 0.0
H2306 H 0.60288 0.2127 0.28245 0.0
H2307 H 0.56802 0.2257 0.27561 0.0
S2308 S 0.56375 0.19215 0.35769 0.0
N2309 N 0.58642 0.19001 0.34735 0.0
N2310 N 0.54879 0.20371 0.33985 0.0
C2311 C 0.56208 0.20627 0.32429 0.0
C2312 C 0.58246 0.19871 0.32831 0.0
C2313 C 0.29194 0.07733 0.31486 0.0
C2314 C 0.3011 0.07424 0.335 0.0
C2315 C 0.27734 0.06331 0.30597 0.0
C2316 C 0.27107 0.04582 0.31698 0.0
H2317 H 0.29643 0.09046 0.30573 0.0
H2318 H 0.2709 0.06615 0.2903 0.0
S2319 S 0.2898 0.03114 0.37057 0.0
N2320 N 0.30228 0.05275 0.36602 0.0
N2321 N 0.27508 0.02638 0.34923 0.0
C2322 C 0.2798 0.04279 0.3373 0.0
C2323 C 0.29476 0.05698 0.3463 0.0
C2324 C 0.44551 0.82359 0.32407 0.0
C2325 C 0.42746 0.81612 0.33297 0.0
C2326 C 0.46114 0.81036 0.31843 0.0
C2327 C 0.45953 0.78914 0.32173 0.0
H2328 H 0.44753 0.83981 0.32133 0.0
H2329 H 0.47476 0.81684 0.3117 0.0
S2330 S 0.41541 0.76179 0.34447 0.0
N2331 N 0.40891 0.78608 0.34483 0.0
N2332 N 0.43822 0.76125 0.33416 0.0
C2333 C 0.44157 0.78146 0.33061 0.0
C2334 C 0.42555 0.79492 0.33619 0.0
C2335 C 0.31155 0.96179 0.72683 0.0
C2336 C 0.31261 0.96609 0.7054 0.0
C2337 C 0.30421 0.97623 0.74066 0.0
C2338 C 0.29731 0.99545 0.73363 0.0
H2339 H 0.31759 0.94762 0.73319 0.0
H2340 H 0.30465 0.97256 0.75719 0.0
S2341 S 0.29455 0.01333 0.67865 0.0
N2342 N 0.30446 0.99029 0.67746 0.0
N2343 N 0.29038 0.01737 0.70357 0.0
C2344 C 0.29694 0.99946 0.71207 0.0
C2345 C 0.30472 0.98482 0.69794 0.0
C2346 C 0.57843 0.83852 0.72579 0.0
C2347 C 0.58422 0.82612 0.70926 0.0
C2348 C 0.56391 0.83174 0.73975 0.0
C2349 C 0.55435 0.81227 0.73779 0.0
H2350 H 0.58535 0.85358 0.72812 0.0
H2351 H 0.56016 0.84202 0.75221 0.0
S2352 S 0.56381 0.77399 0.69677 0.0
N2353 N 0.57913 0.79351 0.69138 0.0
N2354 N 0.55167 0.7807 0.71772 0.0
C2355 C 0.55986 0.7997 0.72121 0.0
C2356 C 0.57487 0.80661 0.70699 0.0
C2357 C 0.46036 0.23268 0.73752 0.0
C2358 C 0.45091 0.24432 0.72137 0.0
C2359 C 0.47534 0.24126 0.75156 0.0
C2360 C 0.48175 0.26186 0.75004 0.0
H2361 H 0.45596 0.21678 0.73949 0.0
H2362 H 0.48196 0.23152 0.76374 0.0
S2363 S 0.46208 0.29889 0.71022 0.0
N2364 N 0.44912 0.2775 0.7044 0.0
N2365 N 0.47752 0.2937 0.73084 0.0
C2366 C 0.4726 0.2737 0.73382 0.0
C2367 C 0.45708 0.26494 0.71955 0.0
C2368 C 0.70922 0.71466 0.09063 0.0
C2369 C 0.72329 0.71427 0.10809 0.0
C2370 C 0.71573 0.71995 0.0707 0.0
C2371 C 0.7365 0.72532 0.06756 0.0
H2372 H 0.69314 0.71056 0.09233 0.0
H2373 H 0.70435 0.72015 0.05772 0.0
S2374 S 0.77926 0.72726 0.10834 0.0
N2375 N 0.75882 0.72014 0.12107 0.0
N2376 N 0.77099 0.73003 0.08367 0.0
C2377 C 0.75063 0.72522 0.08496 0.0
C2378 C 0.74406 0.71968 0.10518 0.0
C2379 C 0.33142 0.70308 0.05836 0.0
C2380 C 0.33357 0.71575 0.07614 0.0
C2381 C 0.31816 0.70809 0.04124 0.0
C2382 C 0.30671 0.72614 0.04096 0.0
H2383 H 0.33943 0.6887 0.05801 0.0
H2384 H 0.31651 0.69745 0.02826 0.0
S2385 S 0.30747 0.76514 0.08303 0.0
N2386 N 0.32367 0.74761 0.09208 0.0
N2387 N 0.29881 0.75713 0.05964 0.0
C2388 C 0.30923 0.7394 0.05823 0.0
C2389 C 0.32258 0.73414 0.0759 0.0
C2390 C 0.33625 0.31366 0.0917 0.0
C2391 C 0.32889 0.3189 0.11135 0.0
C2392 C 0.32303 0.30505 0.07575 0.0
C2393 C 0.30193 0.30169 0.07883 0.0
H2394 H 0.35226 0.31668 0.08848 0.0
H2395 H 0.32909 0.30208 0.06061 0.0
S2396 S 0.27517 0.31147 0.12763 0.0
N2397 N 0.29926 0.31907 0.13311 0.0
N2398 N 0.27458 0.30295 0.10332 0.0
C2399 C 0.29462 0.30604 0.09864 0.0
C2400 C 0.30803 0.31462 0.11485 0.0
C2401 C 0.71367 0.31662 0.09753 0.0
C2402 C 0.70279 0.30644 0.1131 0.0
C2403 C 0.72292 0.30575 0.08161 0.0
C2404 C 0.72156 0.2843 0.08058 0.0
H2405 H 0.71451 0.33316 0.09727 0.0
H2406 H 0.73059 0.31419 0.06962 0.0
S2407 S 0.6975 0.25023 0.11909 0.0
N2408 N 0.69314 0.27352 0.12756 0.0
N2409 N 0.7103 0.25322 0.09763 0.0
C2410 C 0.71149 0.27392 0.09649 0.0
C2411 C 0.70216 0.28494 0.11272 0.0
C2412 C 0.72834 0.30006 0.94238 0.0
C2413 C 0.73617 0.3181 0.93352 0.0
C2414 C 0.73747 0.29175 0.96082 0.0
C2415 C 0.75491 0.30106 0.97121 0.0
H2416 H 0.71504 0.29224 0.93495 0.0
H2417 H 0.73087 0.27777 0.96685 0.0
S2418 S 0.78178 0.34833 0.95408 0.0
N2419 N 0.76268 0.34479 0.9363 0.0
N2420 N 0.77967 0.32945 0.97097 0.0
C2421 C 0.76279 0.31923 0.96257 0.0
C2422 C 0.75348 0.32767 0.94378 0.0
C2423 C 0.69985 0.75734 0.93526 0.0
C2424 C 0.71571 0.74462 0.9292 0.0
C2425 C 0.70268 0.77047 0.95255 0.0
C2426 C 0.7215 0.77164 0.96477 0.0
H2427 H 0.68535 0.75778 0.92607 0.0
H2428 H 0.68995 0.78022 0.95598 0.0
S2429 S 0.76694 0.73916 0.95684 0.0
N2430 N 0.75016 0.7323 0.93778 0.0
N2431 N 0.75547 0.75697 0.97007 0.0
C2432 C 0.73707 0.75814 0.95936 0.0
C2433 C 0.73419 0.7447 0.94167 0.0
C2434 C 0.32393 0.69808 0.91965 0.0
C2435 C 0.31544 0.68922 0.90095 0.0
C2436 C 0.31128 0.70458 0.93547 0.0
C2437 C 0.28966 0.70234 0.93334 0.0
H2438 H 0.34052 0.69956 0.92231 0.0
H2439 H 0.3185 0.71093 0.94973 0.0
S2440 S 0.25949 0.68239 0.88667 0.0
N2441 N 0.28382 0.68028 0.88063 0.0
N2442 N 0.26021 0.69215 0.91051 0.0
C2443 C 0.28093 0.69403 0.91458 0.0
C2444 C 0.29376 0.68757 0.89838 0.0
C2445 C 0.2963 0.3615 0.94432 0.0
C2446 C 0.31737 0.35681 0.94341 0.0
C2447 C 0.28394 0.35233 0.95921 0.0
C2448 C 0.29211 0.33798 0.97361 0.0
H2449 H 0.2894 0.3726 0.93365 0.0
H2450 H 0.26781 0.35634 0.95935 0.0
S2451 S 0.34637 0.32046 0.97782 0.0
N2452 N 0.34575 0.33663 0.95803 0.0
N2453 N 0.32277 0.31992 0.98633 0.0
C2454 C 0.31315 0.33316 0.97286 0.0
C2455 C 0.3257 0.34246 0.95771 0.0
C2456 C 0.61442 0.69813 0.25387 0.0
C2457 C 0.61786 0.70476 0.23335 0.0
C2458 C 0.59603 0.70253 0.26357 0.0
C2459 C 0.58038 0.71394 0.25325 0.0
H2460 H 0.62616 0.68962 0.26262 0.0
H2461 H 0.59433 0.69752 0.27952 0.0
S2462 S 0.58103 0.73384 0.19895 0.0
N2463 N 0.60359 0.72273 0.20281 0.0
N2464 N 0.56897 0.73062 0.22083 0.0
C2465 C 0.58332 0.72013 0.23252 0.0
C2466 C 0.60202 0.7156 0.22261 0.0
C2467 C 0.33219 0.5907 0.19373 0.0
C2468 C 0.32258 0.60801 0.1848 0.0
C2469 C 0.32056 0.57373 0.2002 0.0
C2470 C 0.29883 0.57327 0.19797 0.0
H2471 H 0.34888 0.59005 0.19531 0.0
H2472 H 0.32869 0.56066 0.20667 0.0
S2473 S 0.26601 0.61551 0.17766 0.0
N2474 N 0.28988 0.62417 0.17552 0.0
N2475 N 0.26813 0.59232 0.1876 0.0
C2476 C 0.28899 0.59064 0.18951 0.0
C2477 C 0.30083 0.60796 0.18298 0.0
C2478 C 0.45686 0.30254 0.22341 0.0
C2479 C 0.43531 0.29979 0.22042 0.0
C2480 C 0.46907 0.28807 0.23427 0.0
C2481 C 0.46024 0.27024 0.24264 0.0
H2482 H 0.4643 0.31635 0.21798 0.0
H2483 H 0.48543 0.2914 0.2369 0.0
S2484 S 0.40494 0.25444 0.23654 0.0
N2485 N 0.406 0.27684 0.22476 0.0
N2486 N 0.42879 0.24981 0.24537 0.0
C2487 C 0.43885 0.26684 0.23883 0.0
C2488 C 0.42643 0.28156 0.22773 0.0
C2489 C 0.70413 0.44 0.2277 0.0
C2490 C 0.71116 0.42149 0.21958 0.0
C2491 C 0.71811 0.45515 0.23559 0.0
C2492 C 0.73954 0.45241 0.23519 0.0
H2493 H 0.68773 0.44292 0.22758 0.0
H2494 H 0.71212 0.46941 0.2411 0.0
S2495 S 0.76579 0.40635 0.21661 0.0
N2496 N 0.74093 0.40104 0.2125 0.0
N2497 N 0.7671 0.42937 0.22718 0.0
C2498 C 0.7467 0.43371 0.22778 0.0
C2499 C 0.73254 0.41828 0.22001 0.0
C2500 C 0.60155 0.35142 0.82485 0.0
C2501 C 0.61785 0.34172 0.81537 0.0
C2502 C 0.58084 0.347 0.81869 0.0
C2503 C 0.5755 0.33262 0.80281 0.0
H2504 H 0.60482 0.36226 0.83743 0.0
H2505 H 0.56889 0.35443 0.82697 0.0
S2506 S 0.61251 0.30293 0.77299 0.0
N2507 N 0.62732 0.31721 0.78913 0.0
N2508 N 0.5885 0.30892 0.7775 0.0
C2509 C 0.59171 0.32331 0.79269 0.0
C2510 C 0.61283 0.32783 0.799 0.0
C2511 C 0.7439 0.6179 0.82844 0.0
C2512 C 0.72601 0.62381 0.81681 0.0
C2513 C 0.75523 0.60097 0.82274 0.0
C2514 C 0.74938 0.58898 0.805 0.0
H2515 H 0.74966 0.62681 0.84185 0.0
H2516 H 0.76899 0.59754 0.83232 0.0
S2517 S 0.70297 0.59703 0.76974 0.0
N2518 N 0.70227 0.61564 0.78713 0.0
N2519 N 0.72385 0.58384 0.77622 0.0
C2520 C 0.73127 0.59439 0.79335 0.0
C2521 C 0.71959 0.61178 0.79924 0.0
C2522 C 0.44757 0.71478 0.78923 0.0
C2523 C 0.43041 0.71901 0.80112 0.0
C2524 C 0.46173 0.73028 0.78402 0.0
C2525 C 0.45939 0.75054 0.79075 0.0
H2526 H 0.45027 0.69929 0.78424 0.0
H2527 H 0.47501 0.7262 0.77541 0.0
S2528 S 0.41655 0.76987 0.82131 0.0
N2529 N 0.41165 0.74515 0.81884 0.0
N2530 N 0.43783 0.77418 0.80883 0.0
C2531 C 0.44188 0.75507 0.80196 0.0
C2532 C 0.42751 0.73936 0.8072 0.0
C2533 C 0.2901 0.46075 0.83957 0.0
C2534 C 0.30873 0.45551 0.83066 0.0
C2535 C 0.27571 0.47336 0.82897 0.0
C2536 C 0.27946 0.48147 0.80915 0.0
H2537 H 0.28655 0.45494 0.85484 0.0
H2538 H 0.26161 0.477 0.83642 0.0
S2539 S 0.32566 0.47211 0.77875 0.0
N2540 N 0.33006 0.45937 0.80075 0.0
N2541 N 0.30292 0.48273 0.78068 0.0
C2542 C 0.29795 0.47624 0.79998 0.0
C2543 C 0.31257 0.46332 0.81074 0.0
C2544 C 0.7466 0.60142 0.23025 0.0
C2545 C 0.73788 0.60757 0.21073 0.0
C2546 C 0.75568 0.58227 0.23287 0.0
C2547 C 0.75655 0.56849 0.21606 0.0
H2548 H 0.7462 0.61141 0.24372 0.0
H2549 H 0.76218 0.57825 0.24822 0.0
S2550 S 0.7364 0.57736 0.16157 0.0
N2551 N 0.73116 0.59856 0.17409 0.0
N2552 N 0.74795 0.56236 0.17915 0.0
C2553 C 0.7481 0.57449 0.19638 0.0
C2554 C 0.73877 0.59403 0.1937 0.0
C2555 C 0.7548 0.44051 0.81687 0.0
C2556 C 0.74583 0.43625 0.83599 0.0
C2557 C 0.76343 0.45981 0.81281 0.0
C2558 C 0.76373 0.47555 0.82781 0.0
H2559 H 0.75493 0.42887 0.80484 0.0
H2560 H 0.77013 0.46239 0.79786 0.0
S2561 S 0.74247 0.47225 0.88041 0.0
N2562 N 0.73792 0.44935 0.87014 0.0
N2563 N 0.7542 0.48563 0.86249 0.0
C2564 C 0.75497 0.47148 0.84705 0.0
C2565 C 0.74596 0.45187 0.85111 0.0
C2566 C 0.59791 0.7351 0.81499 0.0
C2567 C 0.61292 0.74345 0.82934 0.0
C2568 C 0.57868 0.74438 0.81141 0.0
C2569 C 0.57362 0.76225 0.82217 0.0
H2570 H 0.60127 0.72164 0.80601 0.0
H2571 H 0.56771 0.73758 0.8 0.0
S2572 S 0.60715 0.78947 0.86226 0.0
N2573 N 0.62106 0.76999 0.85519 0.0
N2574 N 0.5851 0.78758 0.8482 0.0
C2575 C 0.58827 0.77039 0.83702 0.0
C2576 C 0.60788 0.76098 0.84062 0.0
C2577 C 0.31392 0.59653 0.772 0.0
C2578 C 0.33342 0.59144 0.78097 0.0
C2579 C 0.30132 0.58194 0.76129 0.0
C2580 C 0.30764 0.56158 0.75904 0.0
H2581 H 0.30787 0.61167 0.77414 0.0
H2582 H 0.28611 0.58654 0.75547 0.0
S2583 S 0.35858 0.54114 0.77719 0.0
N2584 N 0.35945 0.56522 0.78494 0.0
N2585 N 0.33567 0.53766 0.76507 0.0
C2586 C 0.32766 0.5566 0.7668 0.0
C2587 C 0.34052 0.57152 0.77775 0.0
C2588 C 0.43889 0.33044 0.85434 0.0
C2589 C 0.43339 0.3481 0.84293 0.0
C2590 C 0.45558 0.31843 0.84893 0.0
C2591 C 0.46748 0.32348 0.8318 0.0
H2592 H 0.43058 0.32614 0.86797 0.0
H2593 H 0.45925 0.3051 0.85831 0.0
S2594 S 0.45905 0.36785 0.79632 0.0
N2595 N 0.44064 0.36951 0.81307 0.0
N2596 N 0.47237 0.3475 0.80337 0.0
C2597 C 0.46191 0.34093 0.82001 0.0
C2598 C 0.44484 0.35309 0.82548 0.0
C2599 C 0.33686 0.45001 0.21703 0.0
C2600 C 0.34094 0.43135 0.22725 0.0
C2601 C 0.32694 0.46599 0.227 0.0
C2602 C 0.32039 0.46393 0.24758 0.0
H2603 H 0.34118 0.45221 0.20104 0.0
H2604 H 0.32367 0.47977 0.21814 0.0
S2605 S 0.32804 0.4183 0.2815 0.0
N2606 N 0.33829 0.41197 0.25937 0.0
N2607 N 0.31956 0.44177 0.27809 0.0
C2608 C 0.32493 0.44551 0.25818 0.0
C2609 C 0.33521 0.42932 0.24806 0.0
C2610 C 0.59256 0.33164 0.25269 0.0
C2611 C 0.59753 0.32105 0.23451 0.0
C2612 C 0.57757 0.32398 0.26586 0.0
C2613 C 0.56692 0.30545 0.26138 0.0
H2614 H 0.60021 0.34607 0.25666 0.0
H2615 H 0.57415 0.33269 0.27961 0.0
S2616 S 0.57325 0.27261 0.21481 0.0
N2617 N 0.59016 0.29147 0.21232 0.0
N2618 N 0.56183 0.27722 0.23674 0.0
C2619 C 0.57179 0.29471 0.24322 0.0
C2620 C 0.58713 0.30247 0.22989 0.0
C2621 C 0.43958 0.71643 0.22781 0.0
C2622 C 0.43936 0.72212 0.20664 0.0
C2623 C 0.45488 0.7238 0.24228 0.0
C2624 C 0.47073 0.73732 0.23637 0.0
H2625 H 0.42825 0.70554 0.23317 0.0
H2626 H 0.4544 0.71846 0.25827 0.0
S2627 S 0.47616 0.75852 0.18317 0.0
N2628 N 0.45558 0.7433 0.18067 0.0
N2629 N 0.48446 0.75711 0.20798 0.0
C2630 C 0.47027 0.74386 0.21542 0.0
C2631 C 0.45464 0.73623 0.20055 0.0
loop_
_geom_bond_atom_site_label_1
_geom_bond_atom_site_label_2
_geom_bond_distance
_geom_bond_site_symmetry_2
_ccdc_geom_bond_type
P0 O11 1.490 . S
P0 C14 1.812 . S
P0 C20 1.803 . S
P0 C26 1.819 . S
H1 C15 0.941 . S
H2 C16 0.939 . S
H3 C18 0.940 . S
H4 C19 0.940 . S
H5 C21 0.939 . S
H6 C22 0.942 . S
H7 C24 0.940 . S
H8 C25 0.939 . S
H9 C27 0.941 . S
H10 C31 0.939 . S
O11 P0 1.490 . S
H12 C28 0.939 . S
H13 C30 0.940 . S
C14 P0 1.812 . S
C14 C15 1.389 . S
C14 C19 1.391 . S
C15 H1 0.941 . S
C15 C14 1.389 . S
C15 C16 1.397 . S
C16 H2 0.939 . S
C16 C15 1.397 . S
C16 C17 1.378 . S
C17 C16 1.378 . S
C17 C18 1.378 . S
C18 H3 0.940 . S
C18 C17 1.378 . S
C18 C19 1.396 . S
C19 H4 0.940 . S
C19 C14 1.391 . S
C19 C18 1.396 . S
C20 P0 1.803 . S
C20 C21 1.378 . S
C20 C25 1.400 . S
C21 H5 0.939 . S
C21 C20 1.378 . S
C21 C22 1.361 . S
C22 H6 0.942 . S
C22 C21 1.361 . S
C22 C23 1.369 . S
C23 C22 1.369 . S
C23 C24 1.404 . S
C24 H7 0.940 . S
C24 C23 1.404 . S
C24 C25 1.389 . S
C25 H8 0.939 . S
C25 C20 1.400 . S
C25 C24 1.389 . S
C26 P0 1.819 . S
C26 C27 1.391 . S
C26 C31 1.391 . S
C27 H9 0.941 . S
C27 C26 1.391 . S
C27 C28 1.396 . S
C28 H12 0.939 . S
C28 C27 1.396 . S
C28 C29 1.397 . S
C29 C28 1.397 . S
C29 C30 1.385 . S
C30 H13 0.940 . S
C30 C29 1.385 . S
C30 C31 1.388 . S
C31 H10 0.939 . S
C31 C26 1.391 . S
C31 C30 1.388 . S
P32 O43 1.490 . S
P32 C46 1.812 . S
P32 C52 1.803 . S
P32 C58 1.819 . S
H33 C47 0.941 . S
H34 C48 0.939 . S
H35 C50 0.940 . S
H36 C51 0.940 . S
H37 C53 0.939 . S
H38 C54 0.942 . S
H39 C56 0.940 . S
H40 C57 0.939 . S
H41 C59 0.941 . S
H42 C63 0.939 . S
O43 P32 1.490 . S
H44 C60 0.939 . S
H45 C62 0.940 . S
C46 P32 1.812 . S
C46 C47 1.389 . S
C46 C51 1.391 . S
C47 H33 0.941 . S
C47 C46 1.389 . S
C47 C48 1.397 . S
C48 H34 0.939 . S
C48 C47 1.397 . S
C48 C49 1.378 . S
C49 C48 1.378 . S
C49 C50 1.378 . S
C50 H35 0.940 . S
C50 C49 1.378 . S
C50 C51 1.396 . S
C51 H36 0.940 . S
C51 C46 1.391 . S
C51 C50 1.396 . S
C52 P32 1.803 . S
C52 C53 1.378 . S
C52 C57 1.400 . S
C53 H37 0.939 . S
C53 C52 1.378 . S
C53 C54 1.361 . S
C54 H38 0.942 . S
C54 C53 1.361 . S
C54 C55 1.369 . S
C55 C54 1.369 . S
C55 C56 1.404 . S
C56 H39 0.940 . S
C56 C55 1.404 . S
C56 C57 1.389 . S
C57 H40 0.939 . S
C57 C52 1.400 . S
C57 C56 1.389 . S
C58 P32 1.819 . S
C58 C59 1.391 . S
C58 C63 1.391 . S
C59 H41 0.941 . S
C59 C58 1.391 . S
C59 C60 1.396 . S
C60 H44 0.939 . S
C60 C59 1.396 . S
C60 C61 1.397 . S
C61 C60 1.397 . S
C61 C62 1.385 . S
C62 H45 0.940 . S
C62 C61 1.385 . S
C62 C63 1.388 . S
C63 H42 0.939 . S
C63 C58 1.391 . S
C63 C62 1.388 . S
P64 O75 1.490 . S
P64 C78 1.812 . S
P64 C84 1.803 . S
P64 C90 1.819 . S
H65 C79 0.941 . S
H66 C80 0.939 . S
H67 C82 0.940 . S
H68 C83 0.940 . S
H69 C85 0.939 . S
H70 C86 0.942 . S
H71 C88 0.940 . S
H72 C89 0.939 . S
H73 C91 0.941 . S
H74 C95 0.939 . S
O75 P64 1.490 . S
H76 C92 0.939 . S
H77 C94 0.940 . S
C78 P64 1.812 . S
C78 C79 1.389 . S
C78 C83 1.391 . S
C79 H65 0.941 . S
C79 C78 1.389 . S
C79 C80 1.397 . S
C80 H66 0.939 . S
C80 C79 1.397 . S
C80 C81 1.378 . S
C81 C80 1.378 . S
C81 C82 1.378 . S
C82 H67 0.940 . S
C82 C81 1.378 . S
C82 C83 1.396 . S
C83 H68 0.940 . S
C83 C78 1.391 . S
C83 C82 1.396 . S
C84 P64 1.803 . S
C84 C85 1.378 . S
C84 C89 1.400 . S
C85 H69 0.939 . S
C85 C84 1.378 . S
C85 C86 1.361 . S
C86 H70 0.942 . S
C86 C85 1.361 . S
C86 C87 1.369 . S
C87 C86 1.369 . S
C87 C88 1.404 . S
C88 H71 0.940 . S
C88 C87 1.404 . S
C88 C89 1.389 . S
C89 H72 0.939 . S
C89 C84 1.400 . S
C89 C88 1.389 . S
C90 P64 1.819 . S
C90 C91 1.391 . S
C90 C95 1.391 . S
C91 H73 0.941 . S
C91 C90 1.391 . S
C91 C92 1.396 . S
C92 H76 0.939 . S
C92 C91 1.396 . S
C92 C93 1.397 . S
C93 C92 1.397 . S
C93 C94 1.385 . S
C94 H77 0.940 . S
C94 C93 1.385 . S
C94 C95 1.388 . S
C95 H74 0.939 . S
C95 C90 1.391 . S
C95 C94 1.388 . S
P96 O107 1.490 . S
P96 C110 1.812 . S
P96 C116 1.803 . S
P96 C122 1.819 . S
H97 C111 0.941 . S
H98 C112 0.939 . S
H99 C114 0.940 . S
H100 C115 0.940 . S
H101 C117 0.939 . S
H102 C118 0.942 . S
H103 C120 0.940 . S
H104 C121 0.939 . S
H105 C123 0.941 . S
H106 C127 0.939 . S
O107 P96 1.490 . S
H108 C124 0.939 . S
H109 C126 0.940 . S
C110 P96 1.812 . S
C110 C111 1.389 . S
C110 C115 1.391 . S
C111 H97 0.941 . S
C111 C110 1.389 . S
C111 C112 1.397 . S
C112 H98 0.939 . S
C112 C111 1.397 . S
C112 C113 1.378 . S
C113 C112 1.378 . S
C113 C114 1.378 . S
C114 H99 0.940 . S
C114 C113 1.378 . S
C114 C115 1.396 . S
C115 H100 0.940 . S
C115 C110 1.391 . S
C115 C114 1.396 . S
C116 P96 1.803 . S
C116 C117 1.378 . S
C116 C121 1.400 . S
C117 H101 0.939 . S
C117 C116 1.378 . S
C117 C118 1.361 . S
C118 H102 0.942 . S
C118 C117 1.361 . S
C118 C119 1.369 . S
C119 C118 1.369 . S
C119 C120 1.404 . S
C120 H103 0.940 . S
C120 C119 1.404 . S
C120 C121 1.389 . S
C121 H104 0.939 . S
C121 C116 1.400 . S
C121 C120 1.389 . S
C122 P96 1.819 . S
C122 C123 1.391 . S
C122 C127 1.391 . S
C123 H105 0.941 . S
C123 C122 1.391 . S
C123 C124 1.396 . S
C124 H108 0.939 . S
C124 C123 1.396 . S
C124 C125 1.397 . S
C125 C124 1.397 . S
C125 C126 1.385 . S
C126 H109 0.940 . S
C126 C125 1.385 . S
C126 C127 1.388 . S
C127 H106 0.939 . S
C127 C122 1.391 . S
C127 C126 1.388 . S
P128 O139 1.490 . S
P128 C142 1.812 . S
P128 C148 1.803 . S
P128 C154 1.819 . S
H129 C143 0.941 . S
H130 C144 0.939 . S
H131 C146 0.940 . S
H132 C147 0.940 . S
H133 C149 0.939 . S
H134 C150 0.942 . S
H135 C152 0.940 . S
H136 C153 0.939 . S
H137 C155 0.941 . S
H138 C159 0.939 . S
O139 P128 1.490 . S
H140 C156 0.939 . S
H141 C158 0.940 . S
C142 P128 1.812 . S
C142 C143 1.389 . S
C142 C147 1.391 . S
C143 H129 0.941 . S
C143 C142 1.389 . S
C143 C144 1.397 . S
C144 H130 0.939 . S
C144 C143 1.397 . S
C144 C145 1.378 . S
C145 C144 1.378 . S
C145 C146 1.378 . S
C146 H131 0.940 . S
C146 C145 1.378 . S
C146 C147 1.396 . S
C147 H132 0.940 . S
C147 C142 1.391 . S
C147 C146 1.396 . S
C148 P128 1.803 . S
C148 C149 1.378 . S
C148 C153 1.400 . S
C149 H133 0.939 . S
C149 C148 1.378 . S
C149 C150 1.361 . S
C150 H134 0.942 . S
C150 C149 1.361 . S
C150 C151 1.369 . S
C151 C150 1.369 . S
C151 C152 1.404 . S
C152 H135 0.940 . S
C152 C151 1.404 . S
C152 C153 1.389 . S
C153 H136 0.939 . S
C153 C148 1.400 . S
C153 C152 1.389 . S
C154 P128 1.819 . S
C154 C155 1.391 . S
C154 C159 1.391 . S
C155 H137 0.941 . S
C155 C154 1.391 . S
C155 C156 1.396 . S
C156 H140 0.939 . S
C156 C155 1.396 . S
C156 C157 1.397 . S
C157 C156 1.397 . S
C157 C158 1.385 . S
C158 H141 0.940 . S
C158 C157 1.385 . S
C158 C159 1.388 . S
C159 H138 0.939 . S
C159 C154 1.391 . S
C159 C158 1.388 . S
P160 O171 1.490 . S
P160 C174 1.812 . S
P160 C180 1.803 . S
P160 C186 1.819 . S
H161 C175 0.941 . S
H162 C176 0.939 . S
H163 C178 0.940 . S
H164 C179 0.940 . S
H165 C181 0.939 . S
H166 C182 0.942 . S
H167 C184 0.940 . S
H168 C185 0.939 . S
H169 C187 0.941 . S
H170 C191 0.939 . S
O171 P160 1.490 . S
H172 C188 0.939 . S
H173 C190 0.940 . S
C174 P160 1.812 . S
C174 C175 1.389 . S
C174 C179 1.391 . S
C175 H161 0.941 . S
C175 C174 1.389 . S
C175 C176 1.397 . S
C176 H162 0.939 . S
C176 C175 1.397 . S
C176 C177 1.378 . S
C177 C176 1.378 . S
C177 C178 1.378 . S
C178 H163 0.940 . S
C178 C177 1.378 . S
C178 C179 1.396 . S
C179 H164 0.940 . S
C179 C174 1.391 . S
C179 C178 1.396 . S
C180 P160 1.803 . S
C180 C181 1.378 . S
C180 C185 1.400 . S
C181 H165 0.939 . S
C181 C180 1.378 . S
C181 C182 1.361 . S
C182 H166 0.942 . S
C182 C181 1.361 . S
C182 C183 1.369 . S
C183 C182 1.369 . S
C183 C184 1.404 . S
C184 H167 0.940 . S
C184 C183 1.404 . S
C184 C185 1.389 . S
C185 H168 0.939 . S
C185 C180 1.400 . S
C185 C184 1.389 . S
C186 P160 1.819 . S
C186 C187 1.391 . S
C186 C191 1.391 . S
C187 H169 0.941 . S
C187 C186 1.391 . S
C187 C188 1.396 . S
C188 H172 0.939 . S
C188 C187 1.396 . S
C188 C189 1.397 . S
C189 C188 1.397 . S
C189 C190 1.385 . S
C190 H173 0.940 . S
C190 C189 1.385 . S
C190 C191 1.388 . S
C191 H170 0.939 . S
C191 C186 1.391 . S
C191 C190 1.388 . S
P192 O203 1.490 . S
P192 C206 1.812 . S
P192 C212 1.803 . S
P192 C218 1.819 . S
H193 C207 0.941 . S
H194 C208 0.939 . S
H195 C210 0.940 . S
H196 C211 0.940 . S
H197 C213 0.939 . S
H198 C214 0.942 . S
H199 C216 0.940 . S
H200 C217 0.939 . S
H201 C219 0.941 . S
H202 C223 0.939 . S
O203 P192 1.490 . S
H204 C220 0.939 . S
H205 C222 0.940 . S
C206 P192 1.812 . S
C206 C207 1.389 . S
C206 C211 1.391 . S
C207 H193 0.941 . S
C207 C206 1.389 . S
C207 C208 1.397 . S
C208 H194 0.939 . S
C208 C207 1.397 . S
C208 C209 1.378 . S
C209 C208 1.378 . S
C209 C210 1.378 . S
C210 H195 0.940 . S
C210 C209 1.378 . S
C210 C211 1.396 . S
C211 H196 0.940 . S
C211 C206 1.391 . S
C211 C210 1.396 . S
C212 P192 1.803 . S
C212 C213 1.378 . S
C212 C217 1.400 . S
C213 H197 0.939 . S
C213 C212 1.378 . S
C213 C214 1.361 . S
C214 H198 0.942 . S
C214 C213 1.361 . S
C214 C215 1.369 . S
C215 C214 1.369 . S
C215 C216 1.404 . S
C216 H199 0.940 . S
C216 C215 1.404 . S
C216 C217 1.389 . S
C217 H200 0.939 . S
C217 C212 1.400 . S
C217 C216 1.389 . S
C218 P192 1.819 . S
C218 C219 1.391 . S
C218 C223 1.391 . S
C219 H201 0.941 . S
C219 C218 1.391 . S
C219 C220 1.396 . S
C220 H204 0.939 . S
C220 C219 1.396 . S
C220 C221 1.397 . S
C221 C220 1.397 . S
C221 C222 1.385 . S
C222 H205 0.940 . S
C222 C221 1.385 . S
C222 C223 1.388 . S
C223 H202 0.939 . S
C223 C218 1.391 . S
C223 C222 1.388 . S
P224 O235 1.490 . S
P224 C238 1.812 . S
P224 C244 1.803 . S
P224 C250 1.819 . S
H225 C239 0.941 . S
H226 C240 0.939 . S
H227 C242 0.940 . S
H228 C243 0.940 . S
H229 C245 0.939 . S
H230 C246 0.942 . S
H231 C248 0.940 . S
H232 C249 0.939 . S
H233 C251 0.941 . S
H234 C255 0.939 . S
O235 P224 1.490 . S
H236 C252 0.939 . S
H237 C254 0.940 . S
C238 P224 1.812 . S
C238 C239 1.389 . S
C238 C243 1.391 . S
C239 H225 0.941 . S
C239 C238 1.389 . S
C239 C240 1.397 . S
C240 H226 0.939 . S
C240 C239 1.397 . S
C240 C241 1.378 . S
C241 C240 1.378 . S
C241 C242 1.378 . S
C242 H227 0.940 . S
C242 C241 1.378 . S
C242 C243 1.396 . S
C243 H228 0.940 . S
C243 C238 1.391 . S
C243 C242 1.396 . S
C244 P224 1.803 . S
C244 C245 1.378 . S
C244 C249 1.400 . S
C245 H229 0.939 . S
C245 C244 1.378 . S
C245 C246 1.361 . S
C246 H230 0.942 . S
C246 C245 1.361 . S
C246 C247 1.369 . S
C247 C246 1.369 . S
C247 C248 1.404 . S
C248 H231 0.940 . S
C248 C247 1.404 . S
C248 C249 1.389 . S
C249 H232 0.939 . S
C249 C244 1.400 . S
C249 C248 1.389 . S
C250 P224 1.819 . S
C250 C251 1.391 . S
C250 C255 1.391 . S
C251 H233 0.941 . S
C251 C250 1.391 . S
C251 C252 1.396 . S
C252 H236 0.939 . S
C252 C251 1.396 . S
C252 C253 1.397 . S
C253 C252 1.397 . S
C253 C254 1.385 . S
C254 H237 0.940 . S
C254 C253 1.385 . S
C254 C255 1.388 . S
C255 H234 0.939 . S
C255 C250 1.391 . S
C255 C254 1.388 . S
P256 O267 1.490 . S
P256 C270 1.812 . S
P256 C276 1.803 . S
P256 C282 1.819 . S
H257 C271 0.941 . S
H258 C272 0.939 . S
H259 C274 0.940 . S
H260 C275 0.940 . S
H261 C277 0.939 . S
H262 C278 0.942 . S
H263 C280 0.940 . S
H264 C281 0.939 . S
H265 C283 0.941 . S
H266 C287 0.939 . S
O267 P256 1.490 . S
H268 C284 0.939 . S
H269 C286 0.940 . S
C270 P256 1.812 . S
C270 C271 1.389 . S
C270 C275 1.391 . S
C271 H257 0.941 . S
C271 C270 1.389 . S
C271 C272 1.397 . S
C272 H258 0.939 . S
C272 C271 1.397 . S
C272 C273 1.378 . S
C273 C272 1.378 . S
C273 C274 1.378 . S
C274 H259 0.940 . S
C274 C273 1.378 . S
C274 C275 1.396 . S
C275 H260 0.940 . S
C275 C270 1.391 . S
C275 C274 1.396 . S
C276 P256 1.803 . S
C276 C277 1.378 . S
C276 C281 1.400 . S
C277 H261 0.939 . S
C277 C276 1.378 . S
C277 C278 1.361 . S
C278 H262 0.942 . S
C278 C277 1.361 . S
C278 C279 1.369 . S
C279 C278 1.369 . S
C279 C280 1.404 . S
C280 H263 0.940 . S
C280 C279 1.404 . S
C280 C281 1.389 . S
C281 H264 0.939 . S
C281 C276 1.400 . S
C281 C280 1.389 . S
C282 P256 1.819 . S
C282 C283 1.391 . S
C282 C287 1.391 . S
C283 H265 0.941 . S
C283 C282 1.391 . S
C283 C284 1.396 . S
C284 H268 0.939 . S
C284 C283 1.396 . S
C284 C285 1.397 . S
C285 C284 1.397 . S
C285 C286 1.385 . S
C286 H269 0.940 . S
C286 C285 1.385 . S
C286 C287 1.388 . S
C287 H266 0.939 . S
C287 C282 1.391 . S
C287 C286 1.388 . S
P288 O299 1.490 . S
P288 C302 1.812 . S
P288 C308 1.803 . S
P288 C314 1.819 . S
H289 C303 0.941 . S
H290 C304 0.939 . S
H291 C306 0.940 . S
H292 C307 0.940 . S
H293 C309 0.939 . S
H294 C310 0.942 . S
H295 C312 0.940 . S
H296 C313 0.939 . S
H297 C315 0.941 . S
H298 C319 0.939 . S
O299 P288 1.490 . S
H300 C316 0.939 . S
H301 C318 0.940 . S
C302 P288 1.812 . S
C302 C303 1.389 . S
C302 C307 1.391 . S
C303 H289 0.941 . S
C303 C302 1.389 . S
C303 C304 1.397 . S
C304 H290 0.939 . S
C304 C303 1.397 . S
C304 C305 1.378 . S
C305 C304 1.378 . S
C305 C306 1.378 . S
C306 H291 0.940 . S
C306 C305 1.378 . S
C306 C307 1.396 . S
C307 H292 0.940 . S
C307 C302 1.391 . S
C307 C306 1.396 . S
C308 P288 1.803 . S
C308 C309 1.378 . S
C308 C313 1.400 . S
C309 H293 0.939 . S
C309 C308 1.378 . S
C309 C310 1.361 . S
C310 H294 0.942 . S
C310 C309 1.361 . S
C310 C311 1.369 . S
C311 C310 1.369 . S
C311 C312 1.404 . S
C312 H295 0.940 . S
C312 C311 1.404 . S
C312 C313 1.389 . S
C313 H296 0.939 . S
C313 C308 1.400 . S
C313 C312 1.389 . S
C314 P288 1.819 . S
C314 C315 1.391 . S
C314 C319 1.391 . S
C315 H297 0.941 . S
C315 C314 1.391 . S
C315 C316 1.396 . S
C316 H300 0.939 . S
C316 C315 1.396 . S
C316 C317 1.397 . S
C317 C316 1.397 . S
C317 C318 1.385 . S
C318 H301 0.940 . S
C318 C317 1.385 . S
C318 C319 1.388 . S
C319 H298 0.939 . S
C319 C314 1.391 . S
C319 C318 1.388 . S
P320 O331 1.490 . S
P320 C334 1.812 . S
P320 C340 1.803 . S
P320 C346 1.819 . S
H321 C335 0.941 . S
H322 C336 0.939 . S
H323 C338 0.940 . S
H324 C339 0.940 . S
H325 C341 0.939 . S
H326 C342 0.942 . S
H327 C344 0.940 . S
H328 C345 0.939 . S
H329 C347 0.941 . S
H330 C351 0.939 . S
O331 P320 1.490 . S
H332 C348 0.939 . S
H333 C350 0.940 . S
C334 P320 1.812 . S
C334 C335 1.389 . S
C334 C339 1.391 . S
C335 H321 0.941 . S
C335 C334 1.389 . S
C335 C336 1.397 . S
C336 H322 0.939 . S
C336 C335 1.397 . S
C336 C337 1.378 . S
C337 C336 1.378 . S
C337 C338 1.378 . S
C338 H323 0.940 . S
C338 C337 1.378 . S
C338 C339 1.396 . S
C339 H324 0.940 . S
C339 C334 1.391 . S
C339 C338 1.396 . S
C340 P320 1.803 . S
C340 C341 1.378 . S
C340 C345 1.400 . S
C341 H325 0.939 . S
C341 C340 1.378 . S
C341 C342 1.361 . S
C342 H326 0.942 . S
C342 C341 1.361 . S
C342 C343 1.369 . S
C343 C342 1.369 . S
C343 C344 1.404 . S
C344 H327 0.940 . S
C344 C343 1.404 . S
C344 C345 1.389 . S
C345 H328 0.939 . S
C345 C340 1.400 . S
C345 C344 1.389 . S
C346 P320 1.819 . S
C346 C347 1.391 . S
C346 C351 1.391 . S
C347 H329 0.941 . S
C347 C346 1.391 . S
C347 C348 1.396 . S
C348 H332 0.939 . S
C348 C347 1.396 . S
C348 C349 1.397 . S
C349 C348 1.397 . S
C349 C350 1.385 . S
C350 H333 0.940 . S
C350 C349 1.385 . S
C350 C351 1.388 . S
C351 H330 0.939 . S
C351 C346 1.391 . S
C351 C350 1.388 . S
P352 O363 1.490 . S
P352 C366 1.812 . S
P352 C372 1.803 . S
P352 C378 1.819 . S
H353 C367 0.941 . S
H354 C368 0.939 . S
H355 C370 0.940 . S
H356 C371 0.940 . S
H357 C373 0.939 . S
H358 C374 0.942 . S
H359 C376 0.940 . S
H360 C377 0.939 . S
H361 C379 0.941 . S
H362 C383 0.939 . S
O363 P352 1.490 . S
H364 C380 0.939 . S
H365 C382 0.940 . S
C366 P352 1.812 . S
C366 C367 1.389 . S
C366 C371 1.391 . S
C367 H353 0.941 . S
C367 C366 1.389 . S
C367 C368 1.397 . S
C368 H354 0.939 . S
C368 C367 1.397 . S
C368 C369 1.378 . S
C369 C368 1.378 . S
C369 C370 1.378 . S
C370 H355 0.940 . S
C370 C369 1.378 . S
C370 C371 1.396 . S
C371 H356 0.940 . S
C371 C366 1.391 . S
C371 C370 1.396 . S
C372 P352 1.803 . S
C372 C373 1.378 . S
C372 C377 1.400 . S
C373 H357 0.939 . S
C373 C372 1.378 . S
C373 C374 1.361 . S
C374 H358 0.942 . S
C374 C373 1.361 . S
C374 C375 1.369 . S
C375 C374 1.369 . S
C375 C376 1.404 . S
C376 H359 0.940 . S
C376 C375 1.404 . S
C376 C377 1.389 . S
C377 H360 0.939 . S
C377 C372 1.400 . S
C377 C376 1.389 . S
C378 P352 1.819 . S
C378 C379 1.391 . S
C378 C383 1.391 . S
C379 H361 0.941 . S
C379 C378 1.391 . S
C379 C380 1.396 . S
C380 H364 0.939 . S
C380 C379 1.396 . S
C380 C381 1.397 . S
C381 C380 1.397 . S
C381 C382 1.385 . S
C382 H365 0.940 . S
C382 C381 1.385 . S
C382 C383 1.388 . S
C383 H362 0.939 . S
C383 C378 1.391 . S
C383 C382 1.388 . S
P384 O395 1.490 . S
P384 C398 1.812 . S
P384 C404 1.803 . S
P384 C410 1.819 . S
H385 C399 0.941 . S
H386 C400 0.939 . S
H387 C402 0.940 . S
H388 C403 0.940 . S
H389 C405 0.939 . S
H390 C406 0.942 . S
H391 C408 0.940 . S
H392 C409 0.939 . S
H393 C411 0.941 . S
H394 C415 0.939 . S
O395 P384 1.490 . S
H396 C412 0.939 . S
H397 C414 0.940 . S
C398 P384 1.812 . S
C398 C399 1.389 . S
C398 C403 1.391 . S
C399 H385 0.941 . S
C399 C398 1.389 . S
C399 C400 1.397 . S
C400 H386 0.939 . S
C400 C399 1.397 . S
C400 C401 1.378 . S
C401 C400 1.378 . S
C401 C402 1.378 . S
C402 H387 0.940 . S
C402 C401 1.378 . S
C402 C403 1.396 . S
C403 H388 0.940 . S
C403 C398 1.391 . S
C403 C402 1.396 . S
C404 P384 1.803 . S
C404 C405 1.378 . S
C404 C409 1.400 . S
C405 H389 0.939 . S
C405 C404 1.378 . S
C405 C406 1.361 . S
C406 H390 0.942 . S
C406 C405 1.361 . S
C406 C407 1.369 . S
C407 C406 1.369 . S
C407 C408 1.404 . S
C408 H391 0.940 . S
C408 C407 1.404 . S
C408 C409 1.389 . S
C409 H392 0.939 . S
C409 C404 1.400 . S
C409 C408 1.389 . S
C410 P384 1.819 . S
C410 C411 1.391 . S
C410 C415 1.391 . S
C411 H393 0.941 . S
C411 C410 1.391 . S
C411 C412 1.396 . S
C412 H396 0.939 . S
C412 C411 1.396 . S
C412 C413 1.397 . S
C413 C412 1.397 . S
C413 C414 1.385 . S
C414 H397 0.940 . S
C414 C413 1.385 . S
C414 C415 1.388 . S
C415 H394 0.939 . S
C415 C410 1.391 . S
C415 C414 1.388 . S
P416 O427 1.490 . S
P416 C430 1.812 . S
P416 C436 1.803 . S
P416 C442 1.819 . S
H417 C431 0.941 . S
H418 C432 0.939 . S
H419 C434 0.940 . S
H420 C435 0.940 . S
H421 C437 0.939 . S
H422 C438 0.942 . S
H423 C440 0.940 . S
H424 C441 0.939 . S
H425 C443 0.941 . S
H426 C447 0.939 . S
O427 P416 1.490 . S
H428 C444 0.939 . S
H429 C446 0.940 . S
C430 P416 1.812 . S
C430 C431 1.389 . S
C430 C435 1.391 . S
C431 H417 0.941 . S
C431 C430 1.389 . S
C431 C432 1.397 . S
C432 H418 0.939 . S
C432 C431 1.397 . S
C432 C433 1.378 . S
C433 C432 1.378 . S
C433 C434 1.378 . S
C434 H419 0.940 . S
C434 C433 1.378 . S
C434 C435 1.396 . S
C435 H420 0.940 . S
C435 C430 1.391 . S
C435 C434 1.396 . S
C436 P416 1.803 . S
C436 C437 1.378 . S
C436 C441 1.400 . S
C437 H421 0.939 . S
C437 C436 1.378 . S
C437 C438 1.361 . S
C438 H422 0.942 . S
C438 C437 1.361 . S
C438 C439 1.369 . S
C439 C438 1.369 . S
C439 C440 1.404 . S
C440 H423 0.940 . S
C440 C439 1.404 . S
C440 C441 1.389 . S
C441 H424 0.939 . S
C441 C436 1.400 . S
C441 C440 1.389 . S
C442 P416 1.819 . S
C442 C443 1.391 . S
C442 C447 1.391 . S
C443 H425 0.941 . S
C443 C442 1.391 . S
C443 C444 1.396 . S
C444 H428 0.939 . S
C444 C443 1.396 . S
C444 C445 1.397 . S
C445 C444 1.397 . S
C445 C446 1.385 . S
C446 H429 0.940 . S
C446 C445 1.385 . S
C446 C447 1.388 . S
C447 H426 0.939 . S
C447 C442 1.391 . S
C447 C446 1.388 . S
P448 O459 1.490 . S
P448 C462 1.812 . S
P448 C468 1.803 . S
P448 C474 1.819 . S
H449 C463 0.941 . S
H450 C464 0.939 . S
H451 C466 0.940 . S
H452 C467 0.940 . S
H453 C469 0.939 . S
H454 C470 0.942 . S
H455 C472 0.940 . S
H456 C473 0.939 . S
H457 C475 0.941 . S
H458 C479 0.939 . S
O459 P448 1.490 . S
H460 C476 0.939 . S
H461 C478 0.940 . S
C462 P448 1.812 . S
C462 C463 1.389 . S
C462 C467 1.391 . S
C463 H449 0.941 . S
C463 C462 1.389 . S
C463 C464 1.397 . S
C464 H450 0.939 . S
C464 C463 1.397 . S
C464 C465 1.378 . S
C465 C464 1.378 . S
C465 C466 1.378 . S
C466 H451 0.940 . S
C466 C465 1.378 . S
C466 C467 1.396 . S
C467 H452 0.940 . S
C467 C462 1.391 . S
C467 C466 1.396 . S
C468 P448 1.803 . S
C468 C469 1.378 . S
C468 C473 1.400 . S
C469 H453 0.939 . S
C469 C468 1.378 . S
C469 C470 1.361 . S
C470 H454 0.942 . S
C470 C469 1.361 . S
C470 C471 1.369 . S
C471 C470 1.369 . S
C471 C472 1.404 . S
C472 H455 0.940 . S
C472 C471 1.404 . S
C472 C473 1.389 . S
C473 H456 0.939 . S
C473 C468 1.400 . S
C473 C472 1.389 . S
C474 P448 1.819 . S
C474 C475 1.391 . S
C474 C479 1.391 . S
C475 H457 0.941 . S
C475 C474 1.391 . S
C475 C476 1.396 . S
C476 H460 0.939 . S
C476 C475 1.396 . S
C476 C477 1.397 . S
C477 C476 1.397 . S
C477 C478 1.385 . S
C478 H461 0.940 . S
C478 C477 1.385 . S
C478 C479 1.388 . S
C479 H458 0.939 . S
C479 C474 1.391 . S
C479 C478 1.388 . S
P480 O491 1.490 . S
P480 C494 1.812 . S
P480 C500 1.803 . S
P480 C506 1.819 . S
H481 C495 0.941 . S
H482 C496 0.939 . S
H483 C498 0.940 . S
H484 C499 0.940 . S
H485 C501 0.939 . S
H486 C502 0.942 . S
H487 C504 0.940 . S
H488 C505 0.939 . S
H489 C507 0.941 . S
H490 C511 0.939 . S
O491 P480 1.490 . S
H492 C508 0.939 . S
H493 C510 0.940 . S
C494 P480 1.812 . S
C494 C495 1.389 . S
C494 C499 1.391 . S
C495 H481 0.941 . S
C495 C494 1.389 . S
C495 C496 1.397 . S
C496 H482 0.939 . S
C496 C495 1.397 . S
C496 C497 1.378 . S
C497 C496 1.378 . S
C497 C498 1.378 . S
C498 H483 0.940 . S
C498 C497 1.378 . S
C498 C499 1.396 . S
C499 H484 0.940 . S
C499 C494 1.391 . S
C499 C498 1.396 . S
C500 P480 1.803 . S
C500 C501 1.378 . S
C500 C505 1.400 . S
C501 H485 0.939 . S
C501 C500 1.378 . S
C501 C502 1.361 . S
C502 H486 0.942 . S
C502 C501 1.361 . S
C502 C503 1.369 . S
C503 C502 1.369 . S
C503 C504 1.404 . S
C504 H487 0.940 . S
C504 C503 1.404 . S
C504 C505 1.389 . S
C505 H488 0.939 . S
C505 C500 1.400 . S
C505 C504 1.389 . S
C506 P480 1.819 . S
C506 C507 1.391 . S
C506 C511 1.391 . S
C507 H489 0.941 . S
C507 C506 1.391 . S
C507 C508 1.396 . S
C508 H492 0.939 . S
C508 C507 1.396 . S
C508 C509 1.397 . S
C509 C508 1.397 . S
C509 C510 1.385 . S
C510 H493 0.940 . S
C510 C509 1.385 . S
C510 C511 1.388 . S
C511 H490 0.939 . S
C511 C506 1.391 . S
C511 C510 1.388 . S
P512 O523 1.490 . S
P512 C526 1.812 . S
P512 C532 1.803 . S
P512 C538 1.819 . S
H513 C527 0.941 . S
H514 C528 0.939 . S
H515 C530 0.940 . S
H516 C531 0.940 . S
H517 C533 0.939 . S
H518 C534 0.942 . S
H519 C536 0.940 . S
H520 C537 0.939 . S
H521 C539 0.941 . S
H522 C543 0.939 . S
O523 P512 1.490 . S
H524 C540 0.939 . S
H525 C542 0.940 . S
C526 P512 1.812 . S
C526 C527 1.389 . S
C526 C531 1.391 . S
C527 H513 0.941 . S
C527 C526 1.389 . S
C527 C528 1.397 . S
C528 H514 0.939 . S
C528 C527 1.397 . S
C528 C529 1.378 . S
C529 C528 1.378 . S
C529 C530 1.378 . S
C530 H515 0.940 . S
C530 C529 1.378 . S
C530 C531 1.396 . S
C531 H516 0.940 . S
C531 C526 1.391 . S
C531 C530 1.396 . S
C532 P512 1.803 . S
C532 C533 1.378 . S
C532 C537 1.400 . S
C533 H517 0.939 . S
C533 C532 1.378 . S
C533 C534 1.361 . S
C534 H518 0.942 . S
C534 C533 1.361 . S
C534 C535 1.369 . S
C535 C534 1.369 . S
C535 C536 1.404 . S
C536 H519 0.940 . S
C536 C535 1.404 . S
C536 C537 1.389 . S
C537 H520 0.939 . S
C537 C532 1.400 . S
C537 C536 1.389 . S
C538 P512 1.819 . S
C538 C539 1.391 . S
C538 C543 1.391 . S
C539 H521 0.941 . S
C539 C538 1.391 . S
C539 C540 1.396 . S
C540 H524 0.939 . S
C540 C539 1.396 . S
C540 C541 1.397 . S
C541 C540 1.397 . S
C541 C542 1.385 . S
C542 H525 0.940 . S
C542 C541 1.385 . S
C542 C543 1.388 . S
C543 H522 0.939 . S
C543 C538 1.391 . S
C543 C542 1.388 . S
P544 O555 1.490 . S
P544 C558 1.812 . S
P544 C564 1.803 . S
P544 C570 1.819 . S
H545 C559 0.941 . S
H546 C560 0.939 . S
H547 C562 0.940 . S
H548 C563 0.940 . S
H549 C565 0.939 . S
H550 C566 0.942 . S
H551 C568 0.940 . S
H552 C569 0.939 . S
H553 C571 0.941 . S
H554 C575 0.939 . S
O555 P544 1.490 . S
H556 C572 0.939 . S
H557 C574 0.940 . S
C558 P544 1.812 . S
C558 C559 1.389 . S
C558 C563 1.391 . S
C559 H545 0.941 . S
C559 C558 1.389 . S
C559 C560 1.397 . S
C560 H546 0.939 . S
C560 C559 1.397 . S
C560 C561 1.378 . S
C561 C560 1.378 . S
C561 C562 1.378 . S
C562 H547 0.940 . S
C562 C561 1.378 . S
C562 C563 1.396 . S
C563 H548 0.940 . S
C563 C558 1.391 . S
C563 C562 1.396 . S
C564 P544 1.803 . S
C564 C565 1.378 . S
C564 C569 1.400 . S
C565 H549 0.939 . S
C565 C564 1.378 . S
C565 C566 1.361 . S
C566 H550 0.942 . S
C566 C565 1.361 . S
C566 C567 1.369 . S
C567 C566 1.369 . S
C567 C568 1.404 . S
C568 H551 0.940 . S
C568 C567 1.404 . S
C568 C569 1.389 . S
C569 H552 0.939 . S
C569 C564 1.400 . S
C569 C568 1.389 . S
C570 P544 1.819 . S
C570 C571 1.391 . S
C570 C575 1.391 . S
C571 H553 0.941 . S
C571 C570 1.391 . S
C571 C572 1.396 . S
C572 H556 0.939 . S
C572 C571 1.396 . S
C572 C573 1.397 . S
C573 C572 1.397 . S
C573 C574 1.385 . S
C574 H557 0.940 . S
C574 C573 1.385 . S
C574 C575 1.388 . S
C575 H554 0.939 . S
C575 C570 1.391 . S
C575 C574 1.388 . S
P576 O587 1.490 . S
P576 C590 1.812 . S
P576 C596 1.803 . S
P576 C602 1.819 . S
H577 C591 0.941 . S
H578 C592 0.939 . S
H579 C594 0.940 . S
H580 C595 0.940 . S
H581 C597 0.939 . S
H582 C598 0.942 . S
H583 C600 0.940 . S
H584 C601 0.939 . S
H585 C603 0.941 . S
H586 C607 0.939 . S
O587 P576 1.490 . S
H588 C604 0.939 . S
H589 C606 0.940 . S
C590 P576 1.812 . S
C590 C591 1.389 . S
C590 C595 1.391 . S
C591 H577 0.941 . S
C591 C590 1.389 . S
C591 C592 1.397 . S
C592 H578 0.939 . S
C592 C591 1.397 . S
C592 C593 1.378 . S
C593 C592 1.378 . S
C593 C594 1.378 . S
C594 H579 0.940 . S
C594 C593 1.378 . S
C594 C595 1.396 . S
C595 H580 0.940 . S
C595 C590 1.391 . S
C595 C594 1.396 . S
C596 P576 1.803 . S
C596 C597 1.378 . S
C596 C601 1.400 . S
C597 H581 0.939 . S
C597 C596 1.378 . S
C597 C598 1.361 . S
C598 H582 0.942 . S
C598 C597 1.361 . S
C598 C599 1.369 . S
C599 C598 1.369 . S
C599 C600 1.404 . S
C600 H583 0.940 . S
C600 C599 1.404 . S
C600 C601 1.389 . S
C601 H584 0.939 . S
C601 C596 1.400 . S
C601 C600 1.389 . S
C602 P576 1.819 . S
C602 C603 1.391 . S
C602 C607 1.391 . S
C603 H585 0.941 . S
C603 C602 1.391 . S
C603 C604 1.396 . S
C604 H588 0.939 . S
C604 C603 1.396 . S
C604 C605 1.397 . S
C605 C604 1.397 . S
C605 C606 1.385 . S
C606 H589 0.940 . S
C606 C605 1.385 . S
C606 C607 1.388 . S
C607 H586 0.939 . S
C607 C602 1.391 . S
C607 C606 1.388 . S
P608 O619 1.490 . S
P608 C622 1.812 . S
P608 C628 1.803 . S
P608 C634 1.819 . S
H609 C623 0.941 . S
H610 C624 0.939 . S
H611 C626 0.940 . S
H612 C627 0.940 . S
H613 C629 0.939 . S
H614 C630 0.942 . S
H615 C632 0.940 . S
H616 C633 0.939 . S
H617 C635 0.941 . S
H618 C639 0.939 . S
O619 P608 1.490 . S
H620 C636 0.939 . S
H621 C638 0.940 . S
C622 P608 1.812 . S
C622 C623 1.389 . S
C622 C627 1.391 . S
C623 H609 0.941 . S
C623 C622 1.389 . S
C623 C624 1.397 . S
C624 H610 0.939 . S
C624 C623 1.397 . S
C624 C625 1.378 . S
C625 C624 1.378 . S
C625 C626 1.378 . S
C626 H611 0.940 . S
C626 C625 1.378 . S
C626 C627 1.396 . S
C627 H612 0.940 . S
C627 C622 1.391 . S
C627 C626 1.396 . S
C628 P608 1.803 . S
C628 C629 1.378 . S
C628 C633 1.400 . S
C629 H613 0.939 . S
C629 C628 1.378 . S
C629 C630 1.361 . S
C630 H614 0.942 . S
C630 C629 1.361 . S
C630 C631 1.369 . S
C631 C630 1.369 . S
C631 C632 1.404 . S
C632 H615 0.940 . S
C632 C631 1.404 . S
C632 C633 1.389 . S
C633 H616 0.939 . S
C633 C628 1.400 . S
C633 C632 1.389 . S
C634 P608 1.819 . S
C634 C635 1.391 . S
C634 C639 1.391 . S
C635 H617 0.941 . S
C635 C634 1.391 . S
C635 C636 1.396 . S
C636 H620 0.939 . S
C636 C635 1.396 . S
C636 C637 1.397 . S
C637 C636 1.397 . S
C637 C638 1.385 . S
C638 H621 0.940 . S
C638 C637 1.385 . S
C638 C639 1.388 . S
C639 H618 0.939 . S
C639 C634 1.391 . S
C639 C638 1.388 . S
P640 O651 1.490 . S
P640 C654 1.812 . S
P640 C660 1.803 . S
P640 C666 1.819 . S
H641 C655 0.941 . S
H642 C656 0.939 . S
H643 C658 0.940 . S
H644 C659 0.940 . S
H645 C661 0.939 . S
H646 C662 0.942 . S
H647 C664 0.940 . S
H648 C665 0.939 . S
H649 C667 0.941 . S
H650 C671 0.939 . S
O651 P640 1.490 . S
H652 C668 0.939 . S
H653 C670 0.940 . S
C654 P640 1.812 . S
C654 C655 1.389 . S
C654 C659 1.391 . S
C655 H641 0.941 . S
C655 C654 1.389 . S
C655 C656 1.397 . S
C656 H642 0.939 . S
C656 C655 1.397 . S
C656 C657 1.378 . S
C657 C656 1.378 . S
C657 C658 1.378 . S
C658 H643 0.940 . S
C658 C657 1.378 . S
C658 C659 1.396 . S
C659 H644 0.940 . S
C659 C654 1.391 . S
C659 C658 1.396 . S
C660 P640 1.803 . S
C660 C661 1.378 . S
C660 C665 1.400 . S
C661 H645 0.939 . S
C661 C660 1.378 . S
C661 C662 1.361 . S
C662 H646 0.942 . S
C662 C661 1.361 . S
C662 C663 1.369 . S
C663 C662 1.369 . S
C663 C664 1.404 . S
C664 H647 0.940 . S
C664 C663 1.404 . S
C664 C665 1.389 . S
C665 H648 0.939 . S
C665 C660 1.400 . S
C665 C664 1.389 . S
C666 P640 1.819 . S
C666 C667 1.391 . S
C666 C671 1.391 . S
C667 H649 0.941 . S
C667 C666 1.391 . S
C667 C668 1.396 . S
C668 H652 0.939 . S
C668 C667 1.396 . S
C668 C669 1.397 . S
C669 C668 1.397 . S
C669 C670 1.385 . S
C670 H653 0.940 . S
C670 C669 1.385 . S
C670 C671 1.388 . S
C671 H650 0.939 . S
C671 C666 1.391 . S
C671 C670 1.388 . S
P672 O683 1.490 . S
P672 C686 1.812 . S
P672 C692 1.803 . S
P672 C698 1.819 . S
H673 C687 0.941 . S
H674 C688 0.939 . S
H675 C690 0.940 . S
H676 C691 0.940 . S
H677 C693 0.939 . S
H678 C694 0.942 . S
H679 C696 0.940 . S
H680 C697 0.939 . S
H681 C699 0.941 . S
H682 C703 0.939 . S
O683 P672 1.490 . S
H684 C700 0.939 . S
H685 C702 0.940 . S
C686 P672 1.812 . S
C686 C687 1.389 . S
C686 C691 1.391 . S
C687 H673 0.941 . S
C687 C686 1.389 . S
C687 C688 1.397 . S
C688 H674 0.939 . S
C688 C687 1.397 . S
C688 C689 1.378 . S
C689 C688 1.378 . S
C689 C690 1.378 . S
C690 H675 0.940 . S
C690 C689 1.378 . S
C690 C691 1.396 . S
C691 H676 0.940 . S
C691 C686 1.391 . S
C691 C690 1.396 . S
C692 P672 1.803 . S
C692 C693 1.378 . S
C692 C697 1.400 . S
C693 H677 0.939 . S
C693 C692 1.378 . S
C693 C694 1.361 . S
C694 H678 0.942 . S
C694 C693 1.361 . S
C694 C695 1.369 . S
C695 C694 1.369 . S
C695 C696 1.404 . S
C696 H679 0.940 . S
C696 C695 1.404 . S
C696 C697 1.389 . S
C697 H680 0.939 . S
C697 C692 1.400 . S
C697 C696 1.389 . S
C698 P672 1.819 . S
C698 C699 1.391 . S
C698 C703 1.391 . S
C699 H681 0.941 . S
C699 C698 1.391 . S
C699 C700 1.396 . S
C700 H684 0.939 . S
C700 C699 1.396 . S
C700 C701 1.397 . S
C701 C700 1.397 . S
C701 C702 1.385 . S
C702 H685 0.940 . S
C702 C701 1.385 . S
C702 C703 1.388 . S
C703 H682 0.939 . S
C703 C698 1.391 . S
C703 C702 1.388 . S
P704 O715 1.490 . S
P704 C718 1.812 . S
P704 C724 1.803 . S
P704 C730 1.819 . S
H705 C719 0.941 . S
H706 C720 0.939 . S
H707 C722 0.940 . S
H708 C723 0.940 . S
H709 C725 0.939 . S
H710 C726 0.942 . S
H711 C728 0.940 . S
H712 C729 0.939 . S
H713 C731 0.941 . S
H714 C735 0.939 . S
O715 P704 1.490 . S
H716 C732 0.939 . S
H717 C734 0.940 . S
C718 P704 1.812 . S
C718 C719 1.389 . S
C718 C723 1.391 . S
C719 H705 0.941 . S
C719 C718 1.389 . S
C719 C720 1.397 . S
C720 H706 0.939 . S
C720 C719 1.397 . S
C720 C721 1.378 . S
C721 C720 1.378 . S
C721 C722 1.378 . S
C722 H707 0.940 . S
C722 C721 1.378 . S
C722 C723 1.396 . S
C723 H708 0.940 . S
C723 C718 1.391 . S
C723 C722 1.396 . S
C724 P704 1.803 . S
C724 C725 1.378 . S
C724 C729 1.400 . S
C725 H709 0.939 . S
C725 C724 1.378 . S
C725 C726 1.361 . S
C726 H710 0.942 . S
C726 C725 1.361 . S
C726 C727 1.369 . S
C727 C726 1.369 . S
C727 C728 1.404 . S
C728 H711 0.940 . S
C728 C727 1.404 . S
C728 C729 1.389 . S
C729 H712 0.939 . S
C729 C724 1.400 . S
C729 C728 1.389 . S
C730 P704 1.819 . S
C730 C731 1.391 . S
C730 C735 1.391 . S
C731 H713 0.941 . S
C731 C730 1.391 . S
C731 C732 1.396 . S
C732 H716 0.939 . S
C732 C731 1.396 . S
C732 C733 1.397 . S
C733 C732 1.397 . S
C733 C734 1.385 . S
C734 H717 0.940 . S
C734 C733 1.385 . S
C734 C735 1.388 . S
C735 H714 0.939 . S
C735 C730 1.391 . S
C735 C734 1.388 . S
P736 O747 1.490 . S
P736 C750 1.812 . S
P736 C756 1.803 . S
P736 C762 1.819 . S
H737 C751 0.941 . S
H738 C752 0.939 . S
H739 C754 0.940 . S
H740 C755 0.940 . S
H741 C757 0.939 . S
H742 C758 0.942 . S
H743 C760 0.940 . S
H744 C761 0.939 . S
H745 C763 0.941 . S
H746 C767 0.939 . S
O747 P736 1.490 . S
H748 C764 0.939 . S
H749 C766 0.940 . S
C750 P736 1.812 . S
C750 C751 1.389 . S
C750 C755 1.391 . S
C751 H737 0.941 . S
C751 C750 1.389 . S
C751 C752 1.397 . S
C752 H738 0.939 . S
C752 C751 1.397 . S
C752 C753 1.378 . S
C753 C752 1.378 . S
C753 C754 1.378 . S
C754 H739 0.940 . S
C754 C753 1.378 . S
C754 C755 1.396 . S
C755 H740 0.940 . S
C755 C750 1.391 . S
C755 C754 1.396 . S
C756 P736 1.803 . S
C756 C757 1.378 . S
C756 C761 1.400 . S
C757 H741 0.939 . S
C757 C756 1.378 . S
C757 C758 1.361 . S
C758 H742 0.942 . S
C758 C757 1.361 . S
C758 C759 1.369 . S
C759 C758 1.369 . S
C759 C760 1.404 . S
C760 H743 0.940 . S
C760 C759 1.404 . S
C760 C761 1.389 . S
C761 H744 0.939 . S
C761 C756 1.400 . S
C761 C760 1.389 . S
C762 P736 1.819 . S
C762 C763 1.391 . S
C762 C767 1.391 . S
C763 H745 0.941 . S
C763 C762 1.391 . S
C763 C764 1.396 . S
C764 H748 0.939 . S
C764 C763 1.396 . S
C764 C765 1.397 . S
C765 C764 1.397 . S
C765 C766 1.385 . S
C766 H749 0.940 . S
C766 C765 1.385 . S
C766 C767 1.388 . S
C767 H746 0.939 . S
C767 C762 1.391 . S
C767 C766 1.388 . S
P768 O779 1.490 . S
P768 C782 1.812 . S
P768 C788 1.803 . S
P768 C794 1.819 . S
H769 C783 0.941 . S
H770 C784 0.939 . S
H771 C786 0.940 . S
H772 C787 0.940 . S
H773 C789 0.939 . S
H774 C790 0.942 . S
H775 C792 0.940 . S
H776 C793 0.939 . S
H777 C795 0.941 . S
H778 C799 0.939 . S
O779 P768 1.490 . S
H780 C796 0.939 . S
H781 C798 0.940 . S
C782 P768 1.812 . S
C782 C783 1.389 . S
C782 C787 1.391 . S
C783 H769 0.941 . S
C783 C782 1.389 . S
C783 C784 1.397 . S
C784 H770 0.939 . S
C784 C783 1.397 . S
C784 C785 1.378 . S
C785 C784 1.378 . S
C785 C786 1.378 . S
C786 H771 0.940 . S
C786 C785 1.378 . S
C786 C787 1.396 . S
C787 H772 0.940 . S
C787 C782 1.391 . S
C787 C786 1.396 . S
C788 P768 1.803 . S
C788 C789 1.378 . S
C788 C793 1.400 . S
C789 H773 0.939 . S
C789 C788 1.378 . S
C789 C790 1.361 . S
C790 H774 0.942 . S
C790 C789 1.361 . S
C790 C791 1.369 . S
C791 C790 1.369 . S
C791 C792 1.404 . S
C792 H775 0.940 . S
C792 C791 1.404 . S
C792 C793 1.389 . S
C793 H776 0.939 . S
C793 C788 1.400 . S
C793 C792 1.389 . S
C794 P768 1.819 . S
C794 C795 1.391 . S
C794 C799 1.391 . S
C795 H777 0.941 . S
C795 C794 1.391 . S
C795 C796 1.396 . S
C796 H780 0.939 . S
C796 C795 1.396 . S
C796 C797 1.397 . S
C797 C796 1.397 . S
C797 C798 1.385 . S
C798 H781 0.940 . S
C798 C797 1.385 . S
C798 C799 1.388 . S
C799 H778 0.939 . S
C799 C794 1.391 . S
C799 C798 1.388 . S
P800 O811 1.490 . S
P800 C814 1.812 . S
P800 C820 1.803 . S
P800 C826 1.819 . S
H801 C815 0.941 . S
H802 C816 0.939 . S
H803 C818 0.940 . S
H804 C819 0.940 . S
H805 C821 0.939 . S
H806 C822 0.942 . S
H807 C824 0.940 . S
H808 C825 0.939 . S
H809 C827 0.941 . S
H810 C831 0.939 . S
O811 P800 1.490 . S
H812 C828 0.939 . S
H813 C830 0.940 . S
C814 P800 1.812 . S
C814 C815 1.389 . S
C814 C819 1.391 . S
C815 H801 0.941 . S
C815 C814 1.389 . S
C815 C816 1.397 . S
C816 H802 0.939 . S
C816 C815 1.397 . S
C816 C817 1.378 . S
C817 C816 1.378 . S
C817 C818 1.378 . S
C818 H803 0.940 . S
C818 C817 1.378 . S
C818 C819 1.396 . S
C819 H804 0.940 . S
C819 C814 1.391 . S
C819 C818 1.396 . S
C820 P800 1.803 . S
C820 C821 1.378 . S
C820 C825 1.400 . S
C821 H805 0.939 . S
C821 C820 1.378 . S
C821 C822 1.361 . S
C822 H806 0.942 . S
C822 C821 1.361 . S
C822 C823 1.369 . S
C823 C822 1.369 . S
C823 C824 1.404 . S
C824 H807 0.940 . S
C824 C823 1.404 . S
C824 C825 1.389 . S
C825 H808 0.939 . S
C825 C820 1.400 . S
C825 C824 1.389 . S
C826 P800 1.819 . S
C826 C827 1.391 . S
C826 C831 1.391 . S
C827 H809 0.941 . S
C827 C826 1.391 . S
C827 C828 1.396 . S
C828 H812 0.939 . S
C828 C827 1.396 . S
C828 C829 1.397 . S
C829 C828 1.397 . S
C829 C830 1.385 . S
C830 H813 0.940 . S
C830 C829 1.385 . S
C830 C831 1.388 . S
C831 H810 0.939 . S
C831 C826 1.391 . S
C831 C830 1.388 . S
P832 O843 1.490 . S
P832 C846 1.812 . S
P832 C852 1.803 . S
P832 C858 1.819 . S
H833 C847 0.941 . S
H834 C848 0.939 . S
H835 C850 0.940 . S
H836 C851 0.940 . S
H837 C853 0.939 . S
H838 C854 0.942 . S
H839 C856 0.940 . S
H840 C857 0.939 . S
H841 C859 0.941 . S
H842 C863 0.939 . S
O843 P832 1.490 . S
H844 C860 0.939 . S
H845 C862 0.940 . S
C846 P832 1.812 . S
C846 C847 1.389 . S
C846 C851 1.391 . S
C847 H833 0.941 . S
C847 C846 1.389 . S
C847 C848 1.397 . S
C848 H834 0.939 . S
C848 C847 1.397 . S
C848 C849 1.378 . S
C849 C848 1.378 . S
C849 C850 1.378 . S
C850 H835 0.940 . S
C850 C849 1.378 . S
C850 C851 1.396 . S
C851 H836 0.940 . S
C851 C846 1.391 . S
C851 C850 1.396 . S
C852 P832 1.803 . S
C852 C853 1.378 . S
C852 C857 1.400 . S
C853 H837 0.939 . S
C853 C852 1.378 . S
C853 C854 1.361 . S
C854 H838 0.942 . S
C854 C853 1.361 . S
C854 C855 1.369 . S
C855 C854 1.369 . S
C855 C856 1.404 . S
C856 H839 0.940 . S
C856 C855 1.404 . S
C856 C857 1.389 . S
C857 H840 0.939 . S
C857 C852 1.400 . S
C857 C856 1.389 . S
C858 P832 1.819 . S
C858 C859 1.391 . S
C858 C863 1.391 . S
C859 H841 0.941 . S
C859 C858 1.391 . S
C859 C860 1.396 . S
C860 H844 0.939 . S
C860 C859 1.396 . S
C860 C861 1.397 . S
C861 C860 1.397 . S
C861 C862 1.385 . S
C862 H845 0.940 . S
C862 C861 1.385 . S
C862 C863 1.388 . S
C863 H842 0.939 . S
C863 C858 1.391 . S
C863 C862 1.388 . S
P864 O875 1.490 . S
P864 C878 1.812 . S
P864 C884 1.803 . S
P864 C890 1.819 . S
H865 C879 0.941 . S
H866 C880 0.939 . S
H867 C882 0.940 . S
H868 C883 0.940 . S
H869 C885 0.939 . S
H870 C886 0.942 . S
H871 C888 0.940 . S
H872 C889 0.939 . S
H873 C891 0.941 . S
H874 C895 0.939 . S
O875 P864 1.490 . S
H876 C892 0.939 . S
H877 C894 0.940 . S
C878 P864 1.812 . S
C878 C879 1.389 . S
C878 C883 1.391 . S
C879 H865 0.941 . S
C879 C878 1.389 . S
C879 C880 1.397 . S
C880 H866 0.939 . S
C880 C879 1.397 . S
C880 C881 1.378 . S
C881 C880 1.378 . S
C881 C882 1.378 . S
C882 H867 0.940 . S
C882 C881 1.378 . S
C882 C883 1.396 . S
C883 H868 0.940 . S
C883 C878 1.391 . S
C883 C882 1.396 . S
C884 P864 1.803 . S
C884 C885 1.378 . S
C884 C889 1.400 . S
C885 H869 0.939 . S
C885 C884 1.378 . S
C885 C886 1.361 . S
C886 H870 0.942 . S
C886 C885 1.361 . S
C886 C887 1.369 . S
C887 C886 1.369 . S
C887 C888 1.404 . S
C888 H871 0.940 . S
C888 C887 1.404 . S
C888 C889 1.389 . S
C889 H872 0.939 . S
C889 C884 1.400 . S
C889 C888 1.389 . S
C890 P864 1.819 . S
C890 C891 1.391 . S
C890 C895 1.391 . S
C891 H873 0.941 . S
C891 C890 1.391 . S
C891 C892 1.396 . S
C892 H876 0.939 . S
C892 C891 1.396 . S
C892 C893 1.397 . S
C893 C892 1.397 . S
C893 C894 1.385 . S
C894 H877 0.940 . S
C894 C893 1.385 . S
C894 C895 1.388 . S
C895 H874 0.939 . S
C895 C890 1.391 . S
C895 C894 1.388 . S
P896 O907 1.490 . S
P896 C910 1.812 . S
P896 C916 1.803 . S
P896 C922 1.819 . S
H897 C911 0.941 . S
H898 C912 0.939 . S
H899 C914 0.940 . S
H900 C915 0.940 . S
H901 C917 0.939 . S
H902 C918 0.942 . S
H903 C920 0.940 . S
H904 C921 0.939 . S
H905 C923 0.941 . S
H906 C927 0.939 . S
O907 P896 1.490 . S
H908 C924 0.939 . S
H909 C926 0.940 . S
C910 P896 1.812 . S
C910 C911 1.389 . S
C910 C915 1.391 . S
C911 H897 0.941 . S
C911 C910 1.389 . S
C911 C912 1.397 . S
C912 H898 0.939 . S
C912 C911 1.397 . S
C912 C913 1.378 . S
C913 C912 1.378 . S
C913 C914 1.378 . S
C914 H899 0.940 . S
C914 C913 1.378 . S
C914 C915 1.396 . S
C915 H900 0.940 . S
C915 C910 1.391 . S
C915 C914 1.396 . S
C916 P896 1.803 . S
C916 C917 1.378 . S
C916 C921 1.400 . S
C917 H901 0.939 . S
C917 C916 1.378 . S
C917 C918 1.361 . S
C918 H902 0.942 . S
C918 C917 1.361 . S
C918 C919 1.369 . S
C919 C918 1.369 . S
C919 C920 1.404 . S
C920 H903 0.940 . S
C920 C919 1.404 . S
C920 C921 1.389 . S
C921 H904 0.939 . S
C921 C916 1.400 . S
C921 C920 1.389 . S
C922 P896 1.819 . S
C922 C923 1.391 . S
C922 C927 1.391 . S
C923 H905 0.941 . S
C923 C922 1.391 . S
C923 C924 1.396 . S
C924 H908 0.939 . S
C924 C923 1.396 . S
C924 C925 1.397 . S
C925 C924 1.397 . S
C925 C926 1.385 . S
C926 H909 0.940 . S
C926 C925 1.385 . S
C926 C927 1.388 . S
C927 H906 0.939 . S
C927 C922 1.391 . S
C927 C926 1.388 . S
P928 O939 1.490 . S
P928 C942 1.812 . S
P928 C948 1.803 . S
P928 C954 1.819 . S
H929 C943 0.941 . S
H930 C944 0.939 . S
H931 C946 0.940 . S
H932 C947 0.940 . S
H933 C949 0.939 . S
H934 C950 0.942 . S
H935 C952 0.940 . S
H936 C953 0.939 . S
H937 C955 0.941 . S
H938 C959 0.939 . S
O939 P928 1.490 . S
H940 C956 0.939 . S
H941 C958 0.940 . S
C942 P928 1.812 . S
C942 C943 1.389 . S
C942 C947 1.391 . S
C943 H929 0.941 . S
C943 C942 1.389 . S
C943 C944 1.397 . S
C944 H930 0.939 . S
C944 C943 1.397 . S
C944 C945 1.378 . S
C945 C944 1.378 . S
C945 C946 1.378 . S
C946 H931 0.940 . S
C946 C945 1.378 . S
C946 C947 1.396 . S
C947 H932 0.940 . S
C947 C942 1.391 . S
C947 C946 1.396 . S
C948 P928 1.803 . S
C948 C949 1.378 . S
C948 C953 1.400 . S
C949 H933 0.939 . S
C949 C948 1.378 . S
C949 C950 1.361 . S
C950 H934 0.942 . S
C950 C949 1.361 . S
C950 C951 1.369 . S
C951 C950 1.369 . S
C951 C952 1.404 . S
C952 H935 0.940 . S
C952 C951 1.404 . S
C952 C953 1.389 . S
C953 H936 0.939 . S
C953 C948 1.400 . S
C953 C952 1.389 . S
C954 P928 1.819 . S
C954 C955 1.391 . S
C954 C959 1.391 . S
C955 H937 0.941 . S
C955 C954 1.391 . S
C955 C956 1.396 . S
C956 H940 0.939 . S
C956 C955 1.396 . S
C956 C957 1.397 . S
C957 C956 1.397 . S
C957 C958 1.385 . S
C958 H941 0.940 . S
C958 C957 1.385 . S
C958 C959 1.388 . S
C959 H938 0.939 . S
C959 C954 1.391 . S
C959 C958 1.388 . S
P960 O971 1.490 . S
P960 C974 1.812 . S
P960 C980 1.803 . S
P960 C986 1.819 . S
H961 C975 0.941 . S
H962 C976 0.939 . S
H963 C978 0.940 . S
H964 C979 0.940 . S
H965 C981 0.939 . S
H966 C982 0.942 . S
H967 C984 0.940 . S
H968 C985 0.939 . S
H969 C987 0.941 . S
H970 C991 0.939 . S
O971 P960 1.490 . S
H972 C988 0.939 . S
H973 C990 0.940 . S
C974 P960 1.812 . S
C974 C975 1.389 . S
C974 C979 1.391 . S
C975 H961 0.941 . S
C975 C974 1.389 . S
C975 C976 1.397 . S
C976 H962 0.939 . S
C976 C975 1.397 . S
C976 C977 1.378 . S
C977 C976 1.378 . S
C977 C978 1.378 . S
C978 H963 0.940 . S
C978 C977 1.378 . S
C978 C979 1.396 . S
C979 H964 0.940 . S
C979 C974 1.391 . S
C979 C978 1.396 . S
C980 P960 1.803 . S
C980 C981 1.378 . S
C980 C985 1.400 . S
C981 H965 0.939 . S
C981 C980 1.378 . S
C981 C982 1.361 . S
C982 H966 0.942 . S
C982 C981 1.361 . S
C982 C983 1.369 . S
C983 C982 1.369 . S
C983 C984 1.404 . S
C984 H967 0.940 . S
C984 C983 1.404 . S
C984 C985 1.389 . S
C985 H968 0.939 . S
C985 C980 1.400 . S
C985 C984 1.389 . S
C986 P960 1.819 . S
C986 C987 1.391 . S
C986 C991 1.391 . S
C987 H969 0.941 . S
C987 C986 1.391 . S
C987 C988 1.396 . S
C988 H972 0.939 . S
C988 C987 1.396 . S
C988 C989 1.397 . S
C989 C988 1.397 . S
C989 C990 1.385 . S
C990 H973 0.940 . S
C990 C989 1.385 . S
C990 C991 1.388 . S
C991 H970 0.939 . S
C991 C986 1.391 . S
C991 C990 1.388 . S
P992 O1003 1.490 . S
P992 C1006 1.812 . S
P992 C1012 1.803 . S
P992 C1018 1.819 . S
H993 C1007 0.941 . S
H994 C1008 0.939 . S
H995 C1010 0.940 . S
H996 C1011 0.940 . S
H997 C1013 0.939 . S
H998 C1014 0.942 . S
H999 C1016 0.940 . S
H1000 C1017 0.939 . S
H1001 C1019 0.941 . S
H1002 C1023 0.939 . S
O1003 P992 1.490 . S
H1004 C1020 0.939 . S
H1005 C1022 0.940 . S
C1006 P992 1.812 . S
C1006 C1007 1.389 . S
C1006 C1011 1.391 . S
C1007 H993 0.941 . S
C1007 C1006 1.389 . S
C1007 C1008 1.397 . S
C1008 H994 0.939 . S
C1008 C1007 1.397 . S
C1008 C1009 1.378 . S
C1009 C1008 1.378 . S
C1009 C1010 1.378 . S
C1010 H995 0.940 . S
C1010 C1009 1.378 . S
C1010 C1011 1.396 . S
C1011 H996 0.940 . S
C1011 C1006 1.391 . S
C1011 C1010 1.396 . S
C1012 P992 1.803 . S
C1012 C1013 1.378 . S
C1012 C1017 1.400 . S
C1013 H997 0.939 . S
C1013 C1012 1.378 . S
C1013 C1014 1.361 . S
C1014 H998 0.942 . S
C1014 C1013 1.361 . S
C1014 C1015 1.369 . S
C1015 C1014 1.369 . S
C1015 C1016 1.404 . S
C1016 H999 0.940 . S
C1016 C1015 1.404 . S
C1016 C1017 1.389 . S
C1017 H1000 0.939 . S
C1017 C1012 1.400 . S
C1017 C1016 1.389 . S
C1018 P992 1.819 . S
C1018 C1019 1.391 . S
C1018 C1023 1.391 . S
C1019 H1001 0.941 . S
C1019 C1018 1.391 . S
C1019 C1020 1.396 . S
C1020 H1004 0.939 . S
C1020 C1019 1.396 . S
C1020 C1021 1.397 . S
C1021 C1020 1.397 . S
C1021 C1022 1.385 . S
C1022 H1005 0.940 . S
C1022 C1021 1.385 . S
C1022 C1023 1.388 . S
C1023 H1002 0.939 . S
C1023 C1018 1.391 . S
C1023 C1022 1.388 . S
Cu1024 N1025 1.999 . S
Cu1024 O1030 1.993 . S
Cu1024 N1035 1.985 . S
Cu1024 O1044 1.959 . S
N1025 Cu1024 1.999 . S
N1025 C1027 1.263 1_554 S
N1025 C1029 1.389 . S
N1026 C1027 1.358 . S
N1026 C1028 1.400 . S
C1027 N1025 1.263 1_556 S
C1027 N1026 1.358 . S
C1027 H1033 0.930 . S
C1028 N1026 1.400 . S
C1028 C1029 1.351 1_556 S
C1028 H1045 0.930 . S
C1029 N1025 1.389 . S
C1029 C1028 1.351 1_554 S
C1029 H1034 0.930 . S
O1030 Cu1024 1.993 . S
O1030 C1040 1.270 1_554 S
C1031 O1032 1.261 . S
C1031 O1044 1.251 . S
O1032 C1031 1.261 . S
H1033 C1027 0.930 . S
H1034 C1029 0.930 . S
N1035 Cu1024 1.985 . S
N1035 C1037 1.335 . S
N1035 C1038 1.390 . S
N1036 C1037 1.345 . S
N1036 C1039 1.336 . S
C1037 N1035 1.335 . S
C1037 N1036 1.345 . S
C1037 H1042 0.930 . S
C1038 N1035 1.390 . S
C1038 C1039 1.346 . S
C1038 H1043 0.930 . S
C1039 N1036 1.336 . S
C1039 C1038 1.346 . S
C1039 H1046 0.929 . S
C1040 O1030 1.270 1_556 S
C1040 O1041 1.216 . S
O1041 C1040 1.216 . S
H1042 C1037 0.930 . S
H1043 C1038 0.930 . S
O1044 Cu1024 1.959 . S
O1044 C1031 1.251 . S
H1045 C1028 0.930 . S
H1046 C1039 0.929 . S
Cu1047 N1048 1.999 . S
Cu1047 O1053 1.974 . S
Cu1047 N1058 1.985 1_554 S
Cu1047 O1067 1.959 1_554 S
N1048 Cu1047 1.999 . S
N1048 C1050 1.263 . S
N1048 C1052 1.389 . S
N1049 C1050 1.358 . S
N1049 C1051 1.400 . S
C1050 N1048 1.263 . S
C1050 N1049 1.358 . S
C1050 H1056 0.930 . S
C1051 N1049 1.400 . S
C1051 C1052 1.351 . S
C1051 H1068 0.930 . S
C1052 N1048 1.389 . S
C1052 C1051 1.351 . S
C1052 H1057 0.930 . S
O1053 Cu1047 1.974 . S
O1053 C1063 1.282 . S
C1054 O1055 1.261 . S
C1054 O1067 1.251 . S
O1055 C1054 1.261 . S
H1056 C1050 0.930 . S
H1057 C1052 0.930 . S
N1058 Cu1047 1.985 1_556 S
N1058 C1060 1.335 . S
N1058 C1061 1.390 . S
N1059 C1060 1.345 . S
N1059 C1062 1.336 . S
C1060 N1058 1.335 . S
C1060 N1059 1.345 . S
C1060 H1065 0.930 . S
C1061 N1058 1.390 . S
C1061 C1062 1.346 . S
C1061 H1066 0.930 1_556 S
C1062 N1059 1.336 . S
C1062 C1061 1.346 . S
C1062 H1069 0.929 . S
C1063 O1053 1.282 . S
C1063 O1064 1.216 . S
O1064 C1063 1.216 . S
H1065 C1060 0.930 . S
H1066 C1061 0.930 1_554 S
O1067 Cu1047 1.959 1_556 S
O1067 C1054 1.251 . S
H1068 C1051 0.930 . S
H1069 C1062 0.929 . S
Cu1070 N1071 1.999 1_554 S
Cu1070 O1076 1.974 1_554 S
Cu1070 N1081 1.985 . S
Cu1070 O1090 1.959 . S
N1071 Cu1070 1.999 1_556 S
N1071 C1073 1.263 . S
N1071 C1075 1.389 . S
N1072 C1073 1.358 . S
N1072 C1074 1.400 . S
C1073 N1071 1.263 . S
C1073 N1072 1.358 . S
C1073 H1079 0.930 . S
C1074 N1072 1.400 . S
C1074 C1075 1.351 . S
C1074 H1091 0.930 . S
C1075 N1071 1.389 . S
C1075 C1074 1.351 . S
C1075 H1080 0.930 1_556 S
O1076 Cu1070 1.974 1_556 S
O1076 C1086 1.282 . S
C1077 O1078 1.261 . S
C1077 O1090 1.251 . S
O1078 C1077 1.261 . S
H1079 C1073 0.930 . S
H1080 C1075 0.930 1_554 S
N1081 Cu1070 1.985 . S
N1081 C1083 1.335 . S
N1081 C1084 1.390 . S
N1082 C1083 1.345 . S
N1082 C1085 1.336 . S
C1083 N1081 1.335 . S
C1083 N1082 1.345 . S
C1083 H1088 0.930 . S
C1084 N1081 1.390 . S
C1084 C1085 1.346 . S
C1084 H1089 0.930 . S
C1085 N1082 1.336 . S
C1085 C1084 1.346 . S
C1085 H1092 0.929 . S
C1086 O1076 1.282 . S
C1086 O1087 1.216 . S
O1087 C1086 1.216 . S
H1088 C1083 0.930 . S
H1089 C1084 0.930 . S
O1090 Cu1070 1.959 . S
O1090 C1077 1.251 . S
H1091 C1074 0.930 . S
H1092 C1085 0.929 . S
Cu1093 N1094 1.972 1_556 S
Cu1093 O1099 1.941 1_556 S
Cu1093 N1104 2.012 . S
Cu1093 O1113 1.992 . S
N1094 Cu1093 1.972 1_554 S
N1094 C1096 1.263 . S
N1094 C1098 1.389 . S
N1095 C1096 1.358 . S
N1095 C1097 1.400 . S
C1096 N1094 1.263 . S
C1096 N1095 1.358 . S
C1096 H1102 0.930 . S
C1097 N1095 1.400 . S
C1097 C1098 1.351 . S
C1097 H1114 0.930 . S
C1098 N1094 1.389 . S
C1098 C1097 1.351 . S
C1098 H1103 0.930 . S
O1099 Cu1093 1.941 1_554 S
O1099 C1109 1.282 . S
C1100 O1101 1.261 . S
C1100 O1113 1.251 . S
O1101 C1100 1.261 . S
H1102 C1096 0.930 . S
H1103 C1098 0.930 . S
N1104 Cu1093 2.012 . S
N1104 C1106 1.335 . S
N1104 C1107 1.390 . S
N1105 C1106 1.345 . S
N1105 C1108 1.336 . S
C1106 N1104 1.335 . S
C1106 N1105 1.345 . S
C1106 H1111 0.930 . S
C1107 N1104 1.390 . S
C1107 C1108 1.346 . S
C1107 H1112 0.925 1_556 S
C1108 N1105 1.336 . S
C1108 C1107 1.346 . S
C1108 H1115 0.929 . S
C1109 O1099 1.282 . S
C1109 O1110 1.216 . S
O1110 C1109 1.216 . S
H1111 C1106 0.930 . S
H1112 C1107 0.925 1_554 S
O1113 Cu1093 1.992 . S
O1113 C1100 1.251 . S
H1114 C1097 0.930 . S
H1115 C1108 0.929 . S
Cu1116 N1117 1.999 . S
Cu1116 O1122 1.974 . S
Cu1116 N1127 1.985 1_455 S
Cu1116 O1136 1.959 1_455 S
N1117 Cu1116 1.999 . S
N1117 C1119 1.263 . S
N1117 C1121 1.389 . S
N1118 C1119 1.358 . S
N1118 C1120 1.400 . S
C1119 N1117 1.263 . S
C1119 N1118 1.358 . S
C1119 H1125 0.930 . S
C1120 N1118 1.400 . S
C1120 C1121 1.351 . S
C1120 H1137 0.930 . S
C1121 N1117 1.389 . S
C1121 C1120 1.351 . S
C1121 H1126 0.930 . S
O1122 Cu1116 1.974 . S
O1122 C1132 1.282 . S
C1123 O1124 1.261 . S
C1123 O1136 1.251 . S
O1124 C1123 1.261 . S
H1125 C1119 0.930 . S
H1126 C1121 0.930 . S
N1127 Cu1116 1.985 1_655 S
N1127 C1129 1.335 . S
N1127 C1130 1.390 . S
N1128 C1129 1.345 . S
N1128 C1131 1.336 . S
C1129 N1127 1.335 . S
C1129 N1128 1.345 . S
C1129 H1134 0.930 . S
C1130 N1127 1.390 . S
C1130 C1131 1.346 . S
C1130 H1135 0.930 1_655 S
C1131 N1128 1.336 . S
C1131 C1130 1.346 . S
C1131 H1138 0.929 . S
C1132 O1122 1.282 . S
C1132 O1133 1.216 . S
O1133 C1132 1.216 . S
H1134 C1129 0.930 . S
H1135 C1130 0.930 1_455 S
O1136 Cu1116 1.959 1_655 S
O1136 C1123 1.251 . S
H1137 C1120 0.930 . S
H1138 C1131 0.929 . S
Cu1139 N1140 1.999 . S
Cu1139 O1145 1.974 . S
Cu1139 N1150 1.985 1_545 S
Cu1139 O1159 1.959 1_545 S
N1140 Cu1139 1.999 . S
N1140 C1142 1.263 . S
N1140 C1144 1.389 . S
N1141 C1142 1.358 . S
N1141 C1143 1.400 . S
C1142 N1140 1.263 . S
C1142 N1141 1.358 . S
C1142 H1148 0.930 . S
C1143 N1141 1.400 . S
C1143 C1144 1.351 . S
C1143 H1160 0.930 . S
C1144 N1140 1.389 . S
C1144 C1143 1.351 . S
C1144 H1149 0.930 . S
O1145 Cu1139 1.974 . S
O1145 C1155 1.282 . S
C1146 O1147 1.261 . S
C1146 O1159 1.251 . S
O1147 C1146 1.261 . S
H1148 C1142 0.930 . S
H1149 C1144 0.930 . S
N1150 Cu1139 1.985 1_565 S
N1150 C1152 1.335 . S
N1150 C1153 1.390 . S
N1151 C1152 1.345 . S
N1151 C1154 1.336 . S
C1152 N1150 1.335 . S
C1152 N1151 1.345 . S
C1152 H1157 0.930 . S
C1153 N1150 1.390 . S
C1153 C1154 1.346 . S
C1153 H1158 0.930 1_565 S
C1154 N1151 1.336 . S
C1154 C1153 1.346 . S
C1154 H1161 0.929 . S
C1155 O1145 1.282 . S
C1155 O1156 1.216 . S
O1156 C1155 1.216 . S
H1157 C1152 0.930 . S
H1158 C1153 0.930 1_545 S
O1159 Cu1139 1.959 1_565 S
O1159 C1146 1.251 . S
H1160 C1143 0.930 . S
H1161 C1154 0.929 . S
Cu1162 N1163 2.002 1_455 S
Cu1162 O1168 1.976 1_455 S
Cu1162 N1173 1.983 . S
Cu1162 O1182 1.956 . S
N1163 Cu1162 2.002 1_655 S
N1163 C1165 1.263 . S
N1163 C1167 1.389 . S
N1164 C1165 1.358 . S
N1164 C1166 1.400 . S
C1165 N1163 1.263 . S
C1165 N1164 1.358 . S
C1165 H1171 0.930 . S
C1166 N1164 1.400 . S
C1166 C1167 1.351 . S
C1166 H1183 0.930 . S
C1167 N1163 1.389 . S
C1167 C1166 1.351 . S
C1167 H1172 0.930 . S
O1168 Cu1162 1.976 1_655 S
O1168 C1178 1.282 . S
C1169 O1170 1.261 . S
C1169 O1182 1.251 . S
O1170 C1169 1.261 . S
H1171 C1165 0.930 . S
H1172 C1167 0.930 . S
N1173 Cu1162 1.983 . S
N1173 C1175 1.335 . S
N1173 C1176 1.390 . S
N1174 C1175 1.345 . S
N1174 C1177 1.336 . S
C1175 N1173 1.335 . S
C1175 N1174 1.345 . S
C1175 H1180 0.930 . S
C1176 N1173 1.390 . S
C1176 C1177 1.346 . S
C1176 H1181 0.930 . S
C1177 N1174 1.336 . S
C1177 C1176 1.346 . S
C1177 H1184 0.929 . S
C1178 O1168 1.282 . S
C1178 O1179 1.216 . S
O1179 C1178 1.216 . S
H1180 C1175 0.930 . S
H1181 C1176 0.930 . S
O1182 Cu1162 1.956 . S
O1182 C1169 1.251 . S
H1183 C1166 0.930 . S
H1184 C1177 0.929 . S
Cu1185 N1186 1.983 1_565 S
Cu1185 O1191 1.953 1_565 S
Cu1185 N1196 2.000 . S
Cu1185 O1205 1.979 . S
N1186 Cu1185 1.983 1_545 S
N1186 C1188 1.263 . S
N1186 C1190 1.389 . S
N1187 C1188 1.358 . S
N1187 C1189 1.400 . S
C1188 N1186 1.263 . S
C1188 N1187 1.358 . S
C1188 H1194 0.930 . S
C1189 N1187 1.400 . S
C1189 C1190 1.351 . S
C1189 H1206 0.930 . S
C1190 N1186 1.389 . S
C1190 C1189 1.351 . S
C1190 H1195 0.930 . S
O1191 Cu1185 1.953 1_545 S
O1191 C1201 1.282 . S
C1192 O1193 1.261 . S
C1192 O1205 1.251 . S
O1193 C1192 1.261 . S
H1194 C1188 0.930 . S
H1195 C1190 0.930 . S
N1196 Cu1185 2.000 . S
N1196 C1198 1.335 . S
N1196 C1199 1.390 . S
N1197 C1198 1.345 . S
N1197 C1200 1.336 . S
C1198 N1196 1.335 . S
C1198 N1197 1.345 . S
C1198 H1203 0.930 . S
C1199 N1196 1.390 . S
C1199 C1200 1.346 . S
C1199 H1204 0.930 . S
C1200 N1197 1.336 . S
C1200 C1199 1.346 . S
C1200 H1207 0.929 . S
C1201 O1191 1.282 . S
C1201 O1202 1.216 . S
O1202 C1201 1.216 . S
H1203 C1198 0.930 . S
H1204 C1199 0.930 . S
O1205 Cu1185 1.979 . S
O1205 C1192 1.251 . S
H1206 C1189 0.930 . S
H1207 C1200 0.929 . S
Cu1208 N1209 1.999 . S
Cu1208 O1214 1.974 . S
Cu1208 N1219 1.985 1_455 S
Cu1208 O1228 1.959 1_455 S
N1209 Cu1208 1.999 . S
N1209 C1211 1.263 . S
N1209 C1213 1.389 . S
N1210 C1211 1.358 . S
N1210 C1212 1.400 . S
C1211 N1209 1.263 . S
C1211 N1210 1.358 . S
C1211 H1217 0.930 . S
C1212 N1210 1.400 . S
C1212 C1213 1.351 . S
C1212 H1229 0.930 . S
C1213 N1209 1.389 . S
C1213 C1212 1.351 . S
C1213 H1218 0.930 . S
O1214 Cu1208 1.974 . S
O1214 C1224 1.282 . S
C1215 O1216 1.261 . S
C1215 O1228 1.251 . S
O1216 C1215 1.261 . S
H1217 C1211 0.930 . S
H1218 C1213 0.930 . S
N1219 Cu1208 1.985 1_655 S
N1219 C1221 1.335 . S
N1219 C1222 1.390 . S
N1220 C1221 1.345 . S
N1220 C1223 1.336 . S
C1221 N1219 1.335 . S
C1221 N1220 1.345 . S
C1221 H1226 0.930 . S
C1222 N1219 1.390 . S
C1222 C1223 1.346 . S
C1222 H1227 0.930 1_655 S
C1223 N1220 1.336 . S
C1223 C1222 1.346 . S
C1223 H1230 0.929 . S
C1224 O1214 1.282 . S
C1224 O1225 1.216 . S
O1225 C1224 1.216 . S
H1226 C1221 0.930 . S
H1227 C1222 0.930 1_455 S
O1228 Cu1208 1.959 1_655 S
O1228 C1215 1.251 . S
H1229 C1212 0.930 . S
H1230 C1223 0.929 . S
Cu1231 N1232 1.999 . S
Cu1231 O1237 1.974 . S
Cu1231 N1242 1.985 1_545 S
Cu1231 O1251 1.959 1_545 S
N1232 Cu1231 1.999 . S
N1232 C1234 1.263 . S
N1232 C1236 1.389 . S
N1233 C1234 1.358 . S
N1233 C1235 1.400 . S
C1234 N1232 1.263 . S
C1234 N1233 1.358 . S
C1234 H1240 0.930 . S
C1235 N1233 1.400 . S
C1235 C1236 1.351 . S
C1235 H1252 0.930 . S
C1236 N1232 1.389 . S
C1236 C1235 1.351 . S
C1236 H1241 0.930 . S
O1237 Cu1231 1.974 . S
O1237 C1247 1.282 . S
C1238 O1239 1.261 . S
C1238 O1251 1.251 . S
O1239 C1238 1.261 . S
H1240 C1234 0.930 . S
H1241 C1236 0.930 . S
N1242 Cu1231 1.985 1_565 S
N1242 C1244 1.335 . S
N1242 C1245 1.393 . S
N1243 C1244 1.345 . S
N1243 C1246 1.336 . S
C1244 N1242 1.335 . S
C1244 N1243 1.345 . S
C1244 H1249 0.930 . S
C1245 N1242 1.393 . S
C1245 C1246 1.363 . S
C1245 H1250 0.913 1_565 S
C1246 N1243 1.336 . S
C1246 C1245 1.363 . S
C1246 H1253 0.929 . S
C1247 O1237 1.282 . S
C1247 O1248 1.216 . S
O1248 C1247 1.216 . S
H1249 C1244 0.930 . S
H1250 C1245 0.913 1_545 S
O1251 Cu1231 1.959 1_565 S
O1251 C1238 1.251 . S
H1252 C1235 0.930 . S
H1253 C1246 0.929 . S
Cu1254 N1255 1.999 . S
Cu1254 O1260 1.974 . S
Cu1254 N1265 1.985 . S
Cu1254 O1274 1.959 . S
N1255 Cu1254 1.999 . S
N1255 C1257 1.263 1_455 S
N1255 C1259 1.389 . S
N1256 C1257 1.358 . S
N1256 C1258 1.400 . S
C1257 N1255 1.263 1_655 S
C1257 N1256 1.358 . S
C1257 H1263 0.930 . S
C1258 N1256 1.400 . S
C1258 C1259 1.351 1_655 S
C1258 H1275 0.930 . S
C1259 N1255 1.389 . S
C1259 C1258 1.351 1_455 S
C1259 H1264 0.930 . S
O1260 Cu1254 1.974 . S
O1260 C1270 1.282 1_455 S
C1261 O1262 1.261 . S
C1261 O1274 1.251 . S
O1262 C1261 1.261 . S
H1263 C1257 0.930 . S
H1264 C1259 0.930 . S
N1265 Cu1254 1.985 . S
N1265 C1267 1.335 . S
N1265 C1268 1.390 . S
N1266 C1267 1.345 . S
N1266 C1269 1.336 . S
C1267 N1265 1.335 . S
C1267 N1266 1.345 . S
C1267 H1272 0.930 . S
C1268 N1265 1.390 . S
C1268 C1269 1.346 . S
C1268 H1273 0.930 . S
C1269 N1266 1.336 . S
C1269 C1268 1.346 . S
C1269 H1276 0.929 . S
C1270 O1260 1.282 1_655 S
C1270 O1271 1.216 1_655 S
O1271 C1270 1.216 1_455 S
H1272 C1267 0.930 . S
H1273 C1268 0.930 . S
O1274 Cu1254 1.959 . S
O1274 C1261 1.251 . S
H1275 C1258 0.930 . S
H1276 C1269 0.929 . S
Cu1277 N1278 1.999 . S
Cu1277 O1283 1.974 . S
Cu1277 N1288 1.985 . S
Cu1277 O1297 1.959 1_545 S
N1278 Cu1277 1.999 . S
N1278 C1280 1.263 . S
N1278 C1282 1.389 . S
N1279 C1280 1.358 . S
N1279 C1281 1.400 . S
C1280 N1278 1.263 . S
C1280 N1279 1.358 . S
C1280 H1286 0.930 . S
C1281 N1279 1.400 . S
C1281 C1282 1.351 . S
C1281 H1298 0.930 . S
C1282 N1278 1.389 . S
C1282 C1281 1.351 . S
C1282 H1287 0.930 . S
O1283 Cu1277 1.974 . S
O1283 C1293 1.282 . S
C1284 O1285 1.235 1_565 S
C1284 O1297 1.251 . S
O1285 C1284 1.235 1_545 S
H1286 C1280 0.930 . S
H1287 C1282 0.930 . S
N1288 Cu1277 1.985 . S
N1288 C1290 1.335 1_545 S
N1288 C1291 1.390 . S
N1289 C1290 1.345 . S
N1289 C1292 1.336 . S
C1290 N1288 1.335 1_565 S
C1290 N1289 1.345 . S
C1290 H1295 0.930 . S
C1291 N1288 1.390 . S
C1291 C1292 1.346 1_545 S
C1291 H1296 0.930 . S
C1292 N1289 1.336 . S
C1292 C1291 1.346 1_565 S
C1292 H1299 0.929 . S
C1293 O1283 1.282 . S
C1293 O1294 1.216 . S
O1294 C1293 1.216 . S
H1295 C1290 0.930 . S
H1296 C1291 0.930 . S
O1297 Cu1277 1.959 1_565 S
O1297 C1284 1.251 . S
H1298 C1281 0.930 . S
H1299 C1292 0.929 . S
Cu1300 N1301 1.999 . S
Cu1300 O1306 1.974 . S
Cu1300 N1311 1.985 . S
Cu1300 O1320 1.959 . S
N1301 Cu1300 1.999 . S
N1301 C1303 1.263 . S
N1301 C1305 1.389 . S
N1302 C1303 1.358 . S
N1302 C1304 1.400 . S
C1303 N1301 1.263 . S
C1303 N1302 1.358 . S
C1303 H1309 0.930 . S
C1304 N1302 1.400 . S
C1304 C1305 1.351 . S
C1304 H1321 0.930 . S
C1305 N1301 1.389 . S
C1305 C1304 1.351 . S
C1305 H1310 0.930 . S
O1306 Cu1300 1.974 . S
O1306 C1316 1.282 . S
C1307 O1308 1.261 . S
C1307 O1320 1.251 . S
O1308 C1307 1.261 . S
H1309 C1303 0.930 . S
H1310 C1305 0.930 . S
N1311 Cu1300 1.985 . S
N1311 C1313 1.335 . S
N1311 C1314 1.390 . S
N1312 C1313 1.345 . S
N1312 C1315 1.336 . S
C1313 N1311 1.335 . S
C1313 N1312 1.345 . S
C1313 H1318 0.930 . S
C1314 N1311 1.390 . S
C1314 C1315 1.346 . S
C1314 H1319 0.930 . S
C1315 N1312 1.336 . S
C1315 C1314 1.346 . S
C1315 H1322 0.929 . S
C1316 O1306 1.282 . S
C1316 O1317 1.216 . S
O1317 C1316 1.216 . S
H1318 C1313 0.930 . S
H1319 C1314 0.930 . S
O1320 Cu1300 1.959 . S
O1320 C1307 1.251 . S
H1321 C1304 0.930 . S
H1322 C1315 0.929 . S
Cu1323 N1324 1.999 . S
Cu1323 O1329 1.974 . S
Cu1323 N1334 1.985 . S
Cu1323 O1343 1.959 . S
N1324 Cu1323 1.999 . S
N1324 C1326 1.263 . S
N1324 C1328 1.389 . S
N1325 C1326 1.358 . S
N1325 C1327 1.400 . S
C1326 N1324 1.263 . S
C1326 N1325 1.358 . S
C1326 H1332 0.930 . S
C1327 N1325 1.400 . S
C1327 C1328 1.351 . S
C1327 H1344 0.930 . S
C1328 N1324 1.389 . S
C1328 C1327 1.351 . S
C1328 H1333 0.930 . S
O1329 Cu1323 1.974 . S
O1329 C1339 1.282 . S
C1330 O1331 1.261 . S
C1330 O1343 1.251 . S
O1331 C1330 1.261 . S
H1332 C1326 0.930 . S
H1333 C1328 0.930 . S
N1334 Cu1323 1.985 . S
N1334 C1336 1.335 . S
N1334 C1337 1.390 . S
N1335 C1336 1.345 . S
N1335 C1338 1.336 . S
C1336 N1334 1.335 . S
C1336 N1335 1.345 . S
C1336 H1341 0.930 . S
C1337 N1334 1.390 . S
C1337 C1338 1.346 . S
C1337 H1342 0.930 . S
C1338 N1335 1.336 . S
C1338 C1337 1.346 . S
C1338 H1345 0.929 . S
C1339 O1329 1.282 . S
C1339 O1340 1.216 . S
O1340 C1339 1.216 . S
H1341 C1336 0.930 . S
H1342 C1337 0.930 . S
O1343 Cu1323 1.959 . S
O1343 C1330 1.251 . S
H1344 C1327 0.930 . S
H1345 C1338 0.929 . S
Cu1346 N1347 1.999 . S
Cu1346 O1352 1.974 . S
Cu1346 N1357 1.985 . S
Cu1346 O1366 1.959 . S
N1347 Cu1346 1.999 . S
N1347 C1349 1.263 . S
N1347 C1351 1.389 . S
N1348 C1349 1.358 . S
N1348 C1350 1.400 . S
C1349 N1347 1.263 . S
C1349 N1348 1.358 . S
C1349 H1355 0.930 . S
C1350 N1348 1.400 . S
C1350 C1351 1.351 . S
C1350 H1367 0.930 . S
C1351 N1347 1.389 . S
C1351 C1350 1.351 . S
C1351 H1356 0.930 . S
O1352 Cu1346 1.974 . S
O1352 C1362 1.282 . S
C1353 O1354 1.261 . S
C1353 O1366 1.251 . S
O1354 C1353 1.261 . S
H1355 C1349 0.930 . S
H1356 C1351 0.930 . S
N1357 Cu1346 1.985 . S
N1357 C1359 1.335 . S
N1357 C1360 1.390 . S
N1358 C1359 1.345 . S
N1358 C1361 1.336 . S
C1359 N1357 1.335 . S
C1359 N1358 1.345 . S
C1359 H1364 0.930 . S
C1360 N1357 1.390 . S
C1360 C1361 1.346 . S
C1360 H1365 0.930 . S
C1361 N1358 1.336 . S
C1361 C1360 1.346 . S
C1361 H1368 0.929 . S
C1362 O1352 1.282 . S
C1362 O1363 1.216 . S
O1363 C1362 1.216 . S
H1364 C1359 0.930 . S
H1365 C1360 0.930 . S
O1366 Cu1346 1.959 . S
O1366 C1353 1.251 . S
H1367 C1350 0.930 . S
H1368 C1361 0.929 . S
Cu1369 N1370 1.999 . S
Cu1369 O1375 1.974 . S
Cu1369 N1380 1.985 . S
Cu1369 O1389 1.959 . S
N1370 Cu1369 1.999 . S
N1370 C1372 1.263 . S
N1370 C1374 1.389 . S
N1371 C1372 1.358 . S
N1371 C1373 1.400 . S
C1372 N1370 1.263 . S
C1372 N1371 1.358 . S
C1372 H1378 0.930 . S
C1373 N1371 1.400 . S
C1373 C1374 1.351 . S
C1373 H1390 0.930 . S
C1374 N1370 1.389 . S
C1374 C1373 1.351 . S
C1374 H1379 0.930 . S
O1375 Cu1369 1.974 . S
O1375 C1385 1.282 . S
C1376 O1377 1.261 . S
C1376 O1389 1.251 . S
O1377 C1376 1.261 . S
H1378 C1372 0.930 . S
H1379 C1374 0.930 . S
N1380 Cu1369 1.985 . S
N1380 C1382 1.335 . S
N1380 C1383 1.390 . S
N1381 C1382 1.345 . S
N1381 C1384 1.336 . S
C1382 N1380 1.335 . S
C1382 N1381 1.345 . S
C1382 H1387 0.930 . S
C1383 N1380 1.390 . S
C1383 C1384 1.346 . S
C1383 H1388 0.930 . S
C1384 N1381 1.336 . S
C1384 C1383 1.346 . S
C1384 H1391 0.929 . S
C1385 O1375 1.282 . S
C1385 O1386 1.216 . S
O1386 C1385 1.216 . S
H1387 C1382 0.930 . S
H1388 C1383 0.930 . S
O1389 Cu1369 1.959 . S
O1389 C1376 1.251 . S
H1390 C1373 0.930 . S
H1391 C1384 0.929 . S
Cu1392 N1393 1.999 . S
Cu1392 O1398 1.974 . S
Cu1392 N1403 1.985 . S
Cu1392 O1412 1.959 . S
N1393 Cu1392 1.999 . S
N1393 C1395 1.263 . S
N1393 C1397 1.389 . S
N1394 C1395 1.358 . S
N1394 C1396 1.400 . S
C1395 N1393 1.263 . S
C1395 N1394 1.358 . S
C1395 H1401 0.930 . S
C1396 N1394 1.400 . S
C1396 C1397 1.351 . S
C1396 H1413 0.930 . S
C1397 N1393 1.389 . S
C1397 C1396 1.351 . S
C1397 H1402 0.930 . S
O1398 Cu1392 1.974 . S
O1398 C1408 1.282 . S
C1399 O1400 1.261 . S
C1399 O1412 1.251 . S
O1400 C1399 1.261 . S
H1401 C1395 0.930 . S
H1402 C1397 0.930 . S
N1403 Cu1392 1.985 . S
N1403 C1405 1.335 . S
N1403 C1406 1.390 . S
N1404 C1405 1.345 . S
N1404 C1407 1.336 . S
C1405 N1403 1.335 . S
C1405 N1404 1.345 . S
C1405 H1410 0.930 . S
C1406 N1403 1.390 . S
C1406 C1407 1.346 . S
C1406 H1411 0.930 . S
C1407 N1404 1.336 . S
C1407 C1406 1.346 . S
C1407 H1414 0.929 . S
C1408 O1398 1.282 . S
C1408 O1409 1.216 . S
O1409 C1408 1.216 . S
H1410 C1405 0.930 . S
H1411 C1406 0.930 . S
O1412 Cu1392 1.959 . S
O1412 C1399 1.251 . S
H1413 C1396 0.930 . S
H1414 C1407 0.929 . S
Cu1415 N1416 1.999 . S
Cu1415 O1421 1.974 . S
Cu1415 N1426 1.985 . S
Cu1415 O1435 1.959 . S
N1416 Cu1415 1.999 . S
N1416 C1418 1.263 . S
N1416 C1420 1.389 . S
N1417 C1418 1.358 . S
N1417 C1419 1.400 . S
C1418 N1416 1.263 . S
C1418 N1417 1.358 . S
C1418 H1424 0.930 . S
C1419 N1417 1.400 . S
C1419 C1420 1.351 . S
C1419 H1436 0.930 . S
C1420 N1416 1.389 . S
C1420 C1419 1.351 . S
C1420 H1425 0.930 . S
O1421 Cu1415 1.974 . S
O1421 C1431 1.282 . S
C1422 O1423 1.261 . S
C1422 O1435 1.251 . S
O1423 C1422 1.261 . S
H1424 C1418 0.930 . S
H1425 C1420 0.930 . S
N1426 Cu1415 1.985 . S
N1426 C1428 1.335 . S
N1426 C1429 1.390 . S
N1427 C1428 1.345 . S
N1427 C1430 1.336 . S
C1428 N1426 1.335 . S
C1428 N1427 1.345 . S
C1428 H1433 0.930 . S
C1429 N1426 1.390 . S
C1429 C1430 1.346 . S
C1429 H1434 0.930 . S
C1430 N1427 1.336 . S
C1430 C1429 1.346 . S
C1430 H1437 0.929 . S
C1431 O1421 1.282 . S
C1431 O1432 1.216 . S
O1432 C1431 1.216 . S
H1433 C1428 0.930 . S
H1434 C1429 0.930 . S
O1435 Cu1415 1.959 . S
O1435 C1422 1.251 . S
H1436 C1419 0.930 . S
H1437 C1430 0.929 . S
Cu1438 N1439 1.999 . S
Cu1438 O1444 1.974 . S
Cu1438 N1449 1.985 . S
Cu1438 O1458 1.959 . S
N1439 Cu1438 1.999 . S
N1439 C1441 1.263 . S
N1439 C1443 1.389 . S
N1440 C1441 1.358 . S
N1440 C1442 1.400 . S
C1441 N1439 1.263 . S
C1441 N1440 1.358 . S
C1441 H1447 0.930 . S
C1442 N1440 1.400 . S
C1442 C1443 1.351 . S
C1442 H1459 0.930 . S
C1443 N1439 1.389 . S
C1443 C1442 1.351 . S
C1443 H1448 0.930 . S
O1444 Cu1438 1.974 . S
O1444 C1454 1.282 . S
C1445 O1446 1.261 . S
C1445 O1458 1.251 . S
O1446 C1445 1.261 . S
H1447 C1441 0.930 . S
H1448 C1443 0.930 . S
N1449 Cu1438 1.985 . S
N1449 C1451 1.335 . S
N1449 C1452 1.390 . S
N1450 C1451 1.345 . S
N1450 C1453 1.336 . S
C1451 N1449 1.335 . S
C1451 N1450 1.345 . S
C1451 H1456 0.930 . S
C1452 N1449 1.390 . S
C1452 C1453 1.346 . S
C1452 H1457 0.930 . S
C1453 N1450 1.336 . S
C1453 C1452 1.346 . S
C1453 H1460 0.929 . S
C1454 O1444 1.282 . S
C1454 O1455 1.216 . S
O1455 C1454 1.216 . S
H1456 C1451 0.930 . S
H1457 C1452 0.930 . S
O1458 Cu1438 1.959 . S
O1458 C1445 1.251 . S
H1459 C1442 0.930 . S
H1460 C1453 0.929 . S
Cu1461 N1462 1.999 . S
Cu1461 O1467 1.974 . S
Cu1461 N1472 1.985 . S
Cu1461 O1481 1.959 . S
N1462 Cu1461 1.999 . S
N1462 C1464 1.263 . S
N1462 C1466 1.389 . S
N1463 C1464 1.358 . S
N1463 C1465 1.400 . S
C1464 N1462 1.263 . S
C1464 N1463 1.358 . S
C1464 H1470 0.930 . S
C1465 N1463 1.400 . S
C1465 C1466 1.351 . S
C1465 H1482 0.930 . S
C1466 N1462 1.389 . S
C1466 C1465 1.351 . S
C1466 H1471 0.930 . S
O1467 Cu1461 1.974 . S
O1467 C1477 1.282 . S
C1468 O1469 1.261 . S
C1468 O1481 1.251 . S
O1469 C1468 1.261 . S
H1470 C1464 0.930 . S
H1471 C1466 0.930 . S
N1472 Cu1461 1.985 . S
N1472 C1474 1.335 . S
N1472 C1475 1.390 . S
N1473 C1474 1.345 . S
N1473 C1476 1.336 . S
C1474 N1472 1.335 . S
C1474 N1473 1.345 . S
C1474 H1479 0.930 . S
C1475 N1472 1.390 . S
C1475 C1476 1.346 . S
C1475 H1480 0.930 . S
C1476 N1473 1.336 . S
C1476 C1475 1.346 . S
C1476 H1483 0.929 . S
C1477 O1467 1.282 . S
C1477 O1478 1.216 . S
O1478 C1477 1.216 . S
H1479 C1474 0.930 . S
H1480 C1475 0.930 . S
O1481 Cu1461 1.959 . S
O1481 C1468 1.251 . S
H1482 C1465 0.930 . S
H1483 C1476 0.929 . S
Cu1484 N1485 1.999 . S
Cu1484 O1490 1.974 . S
Cu1484 N1495 1.985 . S
Cu1484 O1504 1.959 . S
N1485 Cu1484 1.999 . S
N1485 C1487 1.263 . S
N1485 C1489 1.389 . S
N1486 C1487 1.358 . S
N1486 C1488 1.400 . S
C1487 N1485 1.263 . S
C1487 N1486 1.358 . S
C1487 H1493 0.930 . S
C1488 N1486 1.400 . S
C1488 C1489 1.351 . S
C1488 H1505 0.930 . S
C1489 N1485 1.389 . S
C1489 C1488 1.351 . S
C1489 H1494 0.930 . S
O1490 Cu1484 1.974 . S
O1490 C1500 1.282 . S
C1491 O1492 1.261 . S
C1491 O1504 1.251 . S
O1492 C1491 1.261 . S
H1493 C1487 0.930 . S
H1494 C1489 0.930 . S
N1495 Cu1484 1.985 . S
N1495 C1497 1.335 . S
N1495 C1498 1.390 . S
N1496 C1497 1.345 . S
N1496 C1499 1.336 . S
C1497 N1495 1.335 . S
C1497 N1496 1.345 . S
C1497 H1502 0.930 . S
C1498 N1495 1.390 . S
C1498 C1499 1.346 . S
C1498 H1503 0.930 . S
C1499 N1496 1.336 . S
C1499 C1498 1.346 . S
C1499 H1506 0.929 . S
C1500 O1490 1.282 . S
C1500 O1501 1.216 . S
O1501 C1500 1.216 . S
H1502 C1497 0.930 . S
H1503 C1498 0.930 . S
O1504 Cu1484 1.959 . S
O1504 C1491 1.251 . S
H1505 C1488 0.930 . S
H1506 C1499 0.929 . S
Cu1507 N1508 1.999 . S
Cu1507 O1513 1.974 . S
Cu1507 N1518 1.985 . S
Cu1507 O1527 1.959 . S
N1508 Cu1507 1.999 . S
N1508 C1510 1.263 . S
N1508 C1512 1.389 . S
N1509 C1510 1.358 . S
N1509 C1511 1.400 . S
C1510 N1508 1.263 . S
C1510 N1509 1.358 . S
C1510 H1516 0.930 . S
C1511 N1509 1.400 . S
C1511 C1512 1.351 . S
C1511 H1528 0.930 . S
C1512 N1508 1.389 . S
C1512 C1511 1.351 . S
C1512 H1517 0.930 . S
O1513 Cu1507 1.974 . S
O1513 C1523 1.282 . S
C1514 O1515 1.261 . S
C1514 O1527 1.251 . S
O1515 C1514 1.261 . S
H1516 C1510 0.930 . S
H1517 C1512 0.930 . S
N1518 Cu1507 1.985 . S
N1518 C1520 1.335 . S
N1518 C1521 1.390 . S
N1519 C1520 1.345 . S
N1519 C1522 1.336 . S
C1520 N1518 1.335 . S
C1520 N1519 1.345 . S
C1520 H1525 0.930 . S
C1521 N1518 1.390 . S
C1521 C1522 1.346 . S
C1521 H1526 0.930 . S
C1522 N1519 1.336 . S
C1522 C1521 1.346 . S
C1522 H1529 0.929 . S
C1523 O1513 1.282 . S
C1523 O1524 1.216 . S
O1524 C1523 1.216 . S
H1525 C1520 0.930 . S
H1526 C1521 0.930 . S
O1527 Cu1507 1.959 . S
O1527 C1514 1.251 . S
H1528 C1511 0.930 . S
H1529 C1522 0.929 . S
Cu1530 N1531 1.999 . S
Cu1530 O1536 1.974 . S
Cu1530 N1541 1.985 . S
Cu1530 O1550 1.959 . S
N1531 Cu1530 1.999 . S
N1531 C1533 1.263 . S
N1531 C1535 1.389 . S
N1532 C1533 1.358 . S
N1532 C1534 1.400 . S
C1533 N1531 1.263 . S
C1533 N1532 1.358 . S
C1533 H1539 0.930 . S
C1534 N1532 1.400 . S
C1534 C1535 1.351 . S
C1534 H1551 0.930 . S
C1535 N1531 1.389 . S
C1535 C1534 1.351 . S
C1535 H1540 0.930 . S
O1536 Cu1530 1.974 . S
O1536 C1546 1.282 . S
C1537 O1538 1.261 . S
C1537 O1550 1.251 . S
O1538 C1537 1.261 . S
H1539 C1533 0.930 . S
H1540 C1535 0.930 . S
N1541 Cu1530 1.985 . S
N1541 C1543 1.335 . S
N1541 C1544 1.390 . S
N1542 C1543 1.345 . S
N1542 C1545 1.336 . S
C1543 N1541 1.335 . S
C1543 N1542 1.345 . S
C1543 H1548 0.930 . S
C1544 N1541 1.390 . S
C1544 C1545 1.346 . S
C1544 H1549 0.930 . S
C1545 N1542 1.336 . S
C1545 C1544 1.346 . S
C1545 H1552 0.929 . S
C1546 O1536 1.282 . S
C1546 O1547 1.216 . S
O1547 C1546 1.216 . S
H1548 C1543 0.930 . S
H1549 C1544 0.930 . S
O1550 Cu1530 1.959 . S
O1550 C1537 1.251 . S
H1551 C1534 0.930 . S
H1552 C1545 0.929 . S
Cu1553 N1554 1.999 . S
Cu1553 O1559 1.974 . S
Cu1553 N1564 1.985 . S
Cu1553 O1573 1.959 . S
N1554 Cu1553 1.999 . S
N1554 C1556 1.263 . S
N1554 C1558 1.389 . S
N1555 C1556 1.358 . S
N1555 C1557 1.400 . S
C1556 N1554 1.263 . S
C1556 N1555 1.358 . S
C1556 H1562 0.930 . S
C1557 N1555 1.400 . S
C1557 C1558 1.351 . S
C1557 H1574 0.930 . S
C1558 N1554 1.389 . S
C1558 C1557 1.351 . S
C1558 H1563 0.930 . S
O1559 Cu1553 1.974 . S
O1559 C1569 1.282 . S
C1560 O1561 1.261 . S
C1560 O1573 1.251 . S
O1561 C1560 1.261 . S
H1562 C1556 0.930 . S
H1563 C1558 0.930 . S
N1564 Cu1553 1.985 . S
N1564 C1566 1.335 . S
N1564 C1567 1.390 . S
N1565 C1566 1.345 . S
N1565 C1568 1.336 . S
C1566 N1564 1.335 . S
C1566 N1565 1.345 . S
C1566 H1571 0.930 . S
C1567 N1564 1.390 . S
C1567 C1568 1.346 . S
C1567 H1572 0.930 . S
C1568 N1565 1.336 . S
C1568 C1567 1.346 . S
C1568 H1575 0.929 . S
C1569 O1559 1.282 . S
C1569 O1570 1.216 . S
O1570 C1569 1.216 . S
H1571 C1566 0.930 . S
H1572 C1567 0.930 . S
O1573 Cu1553 1.959 . S
O1573 C1560 1.251 . S
H1574 C1557 0.930 . S
H1575 C1568 0.929 . S
C1576 C1577 1.369 . S
C1576 C1578 1.419 . S
C1576 H1580 0.930 . S
C1577 C1576 1.369 . S
C1577 C1586 1.429 . S
C1578 C1576 1.419 . S
C1578 C1579 1.363 . S
C1578 H1581 0.929 . S
C1579 C1578 1.363 . S
C1579 C1585 1.428 . S
H1580 C1576 0.930 . S
H1581 C1578 0.929 . S
S1582 N1583 1.613 . S
S1582 N1584 1.610 . S
N1583 S1582 1.613 . S
N1583 C1586 1.350 . S
N1584 S1582 1.610 . S
N1584 C1585 1.351 . S
C1585 C1579 1.428 . S
C1585 N1584 1.351 . S
C1585 C1586 1.434 . S
C1586 C1577 1.429 . S
C1586 N1583 1.350 . S
C1586 C1585 1.434 . S
C1587 C1588 1.369 . S
C1587 C1589 1.419 . S
C1587 H1591 0.930 . S
C1588 C1587 1.369 . S
C1588 C1597 1.429 . S
C1589 C1587 1.419 . S
C1589 C1590 1.363 . S
C1589 H1592 0.929 . S
C1590 C1589 1.363 . S
C1590 C1596 1.428 . S
H1591 C1587 0.930 . S
H1592 C1589 0.929 . S
S1593 N1594 1.613 . S
S1593 N1595 1.610 . S
N1594 S1593 1.613 . S
N1594 C1597 1.350 . S
N1595 S1593 1.610 . S
N1595 C1596 1.351 . S
C1596 C1590 1.428 . S
C1596 N1595 1.351 . S
C1596 C1597 1.434 . S
C1597 C1588 1.429 . S
C1597 N1594 1.350 . S
C1597 C1596 1.434 . S
C1598 C1599 1.369 . S
C1598 C1600 1.419 . S
C1598 H1602 0.930 . S
C1599 C1598 1.369 . S
C1599 C1608 1.429 . S
C1600 C1598 1.419 . S
C1600 C1601 1.363 . S
C1600 H1603 0.929 . S
C1601 C1600 1.363 . S
C1601 C1607 1.428 . S
H1602 C1598 0.930 . S
H1603 C1600 0.929 . S
S1604 N1605 1.613 . S
S1604 N1606 1.610 . S
N1605 S1604 1.613 . S
N1605 C1608 1.350 . S
N1606 S1604 1.610 . S
N1606 C1607 1.351 . S
C1607 C1601 1.428 . S
C1607 N1606 1.351 . S
C1607 C1608 1.434 . S
C1608 C1599 1.429 . S
C1608 N1605 1.350 . S
C1608 C1607 1.434 . S
C1609 C1610 1.369 . S
C1609 C1611 1.419 . S
C1609 H1613 0.930 . S
C1610 C1609 1.369 . S
C1610 C1619 1.429 . S
C1611 C1609 1.419 . S
C1611 C1612 1.363 . S
C1611 H1614 0.929 . S
C1612 C1611 1.363 . S
C1612 C1618 1.428 . S
H1613 C1609 0.930 . S
H1614 C1611 0.929 . S
S1615 N1616 1.613 . S
S1615 N1617 1.610 . S
N1616 S1615 1.613 . S
N1616 C1619 1.350 . S
N1617 S1615 1.610 . S
N1617 C1618 1.351 . S
C1618 C1612 1.428 . S
C1618 N1617 1.351 . S
C1618 C1619 1.434 . S
C1619 C1610 1.429 . S
C1619 N1616 1.350 . S
C1619 C1618 1.434 . S
C1620 C1621 1.369 . S
C1620 C1622 1.419 . S
C1620 H1624 0.930 . S
C1621 C1620 1.369 . S
C1621 C1630 1.429 . S
C1622 C1620 1.419 . S
C1622 C1623 1.363 . S
C1622 H1625 0.929 . S
C1623 C1622 1.363 . S
C1623 C1629 1.428 . S
H1624 C1620 0.930 . S
H1625 C1622 0.929 . S
S1626 N1627 1.613 . S
S1626 N1628 1.610 . S
N1627 S1626 1.613 . S
N1627 C1630 1.350 . S
N1628 S1626 1.610 . S
N1628 C1629 1.351 . S
C1629 C1623 1.428 . S
C1629 N1628 1.351 . S
C1629 C1630 1.434 . S
C1630 C1621 1.429 . S
C1630 N1627 1.350 . S
C1630 C1629 1.434 . S
C1631 C1632 1.369 . S
C1631 C1633 1.419 . S
C1631 H1635 0.930 . S
C1632 C1631 1.369 . S
C1632 C1641 1.429 . S
C1633 C1631 1.419 . S
C1633 C1634 1.363 . S
C1633 H1636 0.929 . S
C1634 C1633 1.363 . S
C1634 C1640 1.428 . S
H1635 C1631 0.930 . S
H1636 C1633 0.929 . S
S1637 N1638 1.613 . S
S1637 N1639 1.610 . S
N1638 S1637 1.613 . S
N1638 C1641 1.350 . S
N1639 S1637 1.610 . S
N1639 C1640 1.351 . S
C1640 C1634 1.428 . S
C1640 N1639 1.351 . S
C1640 C1641 1.434 . S
C1641 C1632 1.429 . S
C1641 N1638 1.350 . S
C1641 C1640 1.434 . S
C1642 C1643 1.369 . S
C1642 C1644 1.419 . S
C1642 H1646 0.930 . S
C1643 C1642 1.369 . S
C1643 C1652 1.429 . S
C1644 C1642 1.419 . S
C1644 C1645 1.363 . S
C1644 H1647 0.929 . S
C1645 C1644 1.363 . S
C1645 C1651 1.428 . S
H1646 C1642 0.930 . S
H1647 C1644 0.929 . S
S1648 N1649 1.613 . S
S1648 N1650 1.610 . S
N1649 S1648 1.613 . S
N1649 C1652 1.350 . S
N1650 S1648 1.610 . S
N1650 C1651 1.351 . S
C1651 C1645 1.428 . S
C1651 N1650 1.351 . S
C1651 C1652 1.434 . S
C1652 C1643 1.429 . S
C1652 N1649 1.350 . S
C1652 C1651 1.434 . S
C1653 C1654 1.369 . S
C1653 C1655 1.419 . S
C1653 H1657 0.930 . S
C1654 C1653 1.369 . S
C1654 C1663 1.429 . S
C1655 C1653 1.419 . S
C1655 C1656 1.363 . S
C1655 H1658 0.929 . S
C1656 C1655 1.363 . S
C1656 C1662 1.428 . S
H1657 C1653 0.930 . S
H1658 C1655 0.929 . S
S1659 N1660 1.613 . S
S1659 N1661 1.610 . S
N1660 S1659 1.613 . S
N1660 C1663 1.350 . S
N1661 S1659 1.610 . S
N1661 C1662 1.351 . S
C1662 C1656 1.428 . S
C1662 N1661 1.351 . S
C1662 C1663 1.434 . S
C1663 C1654 1.429 . S
C1663 N1660 1.350 . S
C1663 C1662 1.434 . S
C1664 C1665 1.369 . S
C1664 C1666 1.419 . S
C1664 H1668 0.930 . S
C1665 C1664 1.369 . S
C1665 C1674 1.429 . S
C1666 C1664 1.419 . S
C1666 C1667 1.363 . S
C1666 H1669 0.929 . S
C1667 C1666 1.363 . S
C1667 C1673 1.428 . S
H1668 C1664 0.930 . S
H1669 C1666 0.929 . S
S1670 N1671 1.613 . S
S1670 N1672 1.610 . S
N1671 S1670 1.613 . S
N1671 C1674 1.350 . S
N1672 S1670 1.610 . S
N1672 C1673 1.351 . S
C1673 C1667 1.428 . S
C1673 N1672 1.351 . S
C1673 C1674 1.434 . S
C1674 C1665 1.429 . S
C1674 N1671 1.350 . S
C1674 C1673 1.434 . S
C1675 C1676 1.369 . S
C1675 C1677 1.419 . S
C1675 H1679 0.930 . S
C1676 C1675 1.369 . S
C1676 C1685 1.429 . S
C1677 C1675 1.419 . S
C1677 C1678 1.363 . S
C1677 H1680 0.929 . S
C1678 C1677 1.363 . S
C1678 C1684 1.428 . S
H1679 C1675 0.930 . S
H1680 C1677 0.929 . S
S1681 N1682 1.613 . S
S1681 N1683 1.610 . S
N1682 S1681 1.613 . S
N1682 C1685 1.350 . S
N1683 S1681 1.610 . S
N1683 C1684 1.351 . S
C1684 C1678 1.428 . S
C1684 N1683 1.351 . S
C1684 C1685 1.434 . S
C1685 C1676 1.429 . S
C1685 N1682 1.350 . S
C1685 C1684 1.434 . S
C1686 C1687 1.369 . S
C1686 C1688 1.419 . S
C1686 H1690 0.930 . S
C1687 C1686 1.369 . S
C1687 C1696 1.429 . S
C1688 C1686 1.419 . S
C1688 C1689 1.363 . S
C1688 H1691 0.929 . S
C1689 C1688 1.363 . S
C1689 C1695 1.428 . S
H1690 C1686 0.930 . S
H1691 C1688 0.929 . S
S1692 N1693 1.613 . S
S1692 N1694 1.610 . S
N1693 S1692 1.613 . S
N1693 C1696 1.350 . S
N1694 S1692 1.610 . S
N1694 C1695 1.351 . S
C1695 C1689 1.428 . S
C1695 N1694 1.351 . S
C1695 C1696 1.434 . S
C1696 C1687 1.429 . S
C1696 N1693 1.350 . S
C1696 C1695 1.434 . S
C1697 C1698 1.369 . S
C1697 C1699 1.419 . S
C1697 H1701 0.930 . S
C1698 C1697 1.369 . S
C1698 C1707 1.429 . S
C1699 C1697 1.419 . S
C1699 C1700 1.363 . S
C1699 H1702 0.929 . S
C1700 C1699 1.363 . S
C1700 C1706 1.428 . S
H1701 C1697 0.930 . S
H1702 C1699 0.929 . S
S1703 N1704 1.613 . S
S1703 N1705 1.610 . S
N1704 S1703 1.613 . S
N1704 C1707 1.350 . S
N1705 S1703 1.610 . S
N1705 C1706 1.351 . S
C1706 C1700 1.428 . S
C1706 N1705 1.351 . S
C1706 C1707 1.434 . S
C1707 C1698 1.429 . S
C1707 N1704 1.350 . S
C1707 C1706 1.434 . S
C1708 C1709 1.369 . S
C1708 C1710 1.419 . S
C1708 H1712 0.930 . S
C1709 C1708 1.369 . S
C1709 C1718 1.429 . S
C1710 C1708 1.419 . S
C1710 C1711 1.363 . S
C1710 H1713 0.929 . S
C1711 C1710 1.363 . S
C1711 C1717 1.428 . S
H1712 C1708 0.930 . S
H1713 C1710 0.929 . S
S1714 N1715 1.613 . S
S1714 N1716 1.610 . S
N1715 S1714 1.613 . S
N1715 C1718 1.350 . S
N1716 S1714 1.610 . S
N1716 C1717 1.351 . S
C1717 C1711 1.428 . S
C1717 N1716 1.351 . S
C1717 C1718 1.434 . S
C1718 C1709 1.429 . S
C1718 N1715 1.350 . S
C1718 C1717 1.434 . S
C1719 C1720 1.369 . S
C1719 C1721 1.419 . S
C1719 H1723 0.930 . S
C1720 C1719 1.369 . S
C1720 C1729 1.429 . S
C1721 C1719 1.419 . S
C1721 C1722 1.363 . S
C1721 H1724 0.929 . S
C1722 C1721 1.363 . S
C1722 C1728 1.428 . S
H1723 C1719 0.930 . S
H1724 C1721 0.929 . S
S1725 N1726 1.613 . S
S1725 N1727 1.610 . S
N1726 S1725 1.613 . S
N1726 C1729 1.350 . S
N1727 S1725 1.610 . S
N1727 C1728 1.351 . S
C1728 C1722 1.428 . S
C1728 N1727 1.351 . S
C1728 C1729 1.434 . S
C1729 C1720 1.429 . S
C1729 N1726 1.350 . S
C1729 C1728 1.434 . S
C1730 C1731 1.369 . S
C1730 C1732 1.419 . S
C1730 H1734 0.930 . S
C1731 C1730 1.369 . S
C1731 C1740 1.429 . S
C1732 C1730 1.419 . S
C1732 C1733 1.363 . S
C1732 H1735 0.929 . S
C1733 C1732 1.363 . S
C1733 C1739 1.428 . S
H1734 C1730 0.930 . S
H1735 C1732 0.929 . S
S1736 N1737 1.613 . S
S1736 N1738 1.610 . S
N1737 S1736 1.613 . S
N1737 C1740 1.350 . S
N1738 S1736 1.610 . S
N1738 C1739 1.351 . S
C1739 C1733 1.428 . S
C1739 N1738 1.351 . S
C1739 C1740 1.434 . S
C1740 C1731 1.429 . S
C1740 N1737 1.350 . S
C1740 C1739 1.434 . S
C1741 C1742 1.369 . S
C1741 C1743 1.419 . S
C1741 H1745 0.930 . S
C1742 C1741 1.369 . S
C1742 C1751 1.429 . S
C1743 C1741 1.419 . S
C1743 C1744 1.363 . S
C1743 H1746 0.929 . S
C1744 C1743 1.363 . S
C1744 C1750 1.428 . S
H1745 C1741 0.930 . S
H1746 C1743 0.929 . S
S1747 N1748 1.613 . S
S1747 N1749 1.610 . S
N1748 S1747 1.613 . S
N1748 C1751 1.350 . S
N1749 S1747 1.610 . S
N1749 C1750 1.351 . S
C1750 C1744 1.428 . S
C1750 N1749 1.351 . S
C1750 C1751 1.434 . S
C1751 C1742 1.429 . S
C1751 N1748 1.350 . S
C1751 C1750 1.434 . S
C1752 C1753 1.369 . S
C1752 C1754 1.419 . S
C1752 H1756 0.930 . S
C1753 C1752 1.369 . S
C1753 C1762 1.429 . S
C1754 C1752 1.419 . S
C1754 C1755 1.363 . S
C1754 H1757 0.929 . S
C1755 C1754 1.363 . S
C1755 C1761 1.428 . S
H1756 C1752 0.930 . S
H1757 C1754 0.929 . S
S1758 N1759 1.613 . S
S1758 N1760 1.610 . S
N1759 S1758 1.613 . S
N1759 C1762 1.350 . S
N1760 S1758 1.610 . S
N1760 C1761 1.351 . S
C1761 C1755 1.428 . S
C1761 N1760 1.351 . S
C1761 C1762 1.434 . S
C1762 C1753 1.429 . S
C1762 N1759 1.350 . S
C1762 C1761 1.434 . S
C1763 C1764 1.369 . S
C1763 C1765 1.419 . S
C1763 H1767 0.930 . S
C1764 C1763 1.369 . S
C1764 C1773 1.429 . S
C1765 C1763 1.419 . S
C1765 C1766 1.363 . S
C1765 H1768 0.929 . S
C1766 C1765 1.363 . S
C1766 C1772 1.428 . S
H1767 C1763 0.930 . S
H1768 C1765 0.929 . S
S1769 N1770 1.613 . S
S1769 N1771 1.610 . S
N1770 S1769 1.613 . S
N1770 C1773 1.350 . S
N1771 S1769 1.610 . S
N1771 C1772 1.351 . S
C1772 C1766 1.428 . S
C1772 N1771 1.351 . S
C1772 C1773 1.434 . S
C1773 C1764 1.429 . S
C1773 N1770 1.350 . S
C1773 C1772 1.434 . S
C1774 C1775 1.369 . S
C1774 C1776 1.419 . S
C1774 H1778 0.930 . S
C1775 C1774 1.369 . S
C1775 C1784 1.429 . S
C1776 C1774 1.419 . S
C1776 C1777 1.363 . S
C1776 H1779 0.929 . S
C1777 C1776 1.363 . S
C1777 C1783 1.428 . S
H1778 C1774 0.930 . S
H1779 C1776 0.929 . S
S1780 N1781 1.613 . S
S1780 N1782 1.610 . S
N1781 S1780 1.613 . S
N1781 C1784 1.350 . S
N1782 S1780 1.610 . S
N1782 C1783 1.351 . S
C1783 C1777 1.428 . S
C1783 N1782 1.351 . S
C1783 C1784 1.434 . S
C1784 C1775 1.429 . S
C1784 N1781 1.350 . S
C1784 C1783 1.434 . S
C1785 C1786 1.369 . S
C1785 C1787 1.419 . S
C1785 H1789 0.930 . S
C1786 C1785 1.369 . S
C1786 C1795 1.429 . S
C1787 C1785 1.419 . S
C1787 C1788 1.363 . S
C1787 H1790 0.929 . S
C1788 C1787 1.363 . S
C1788 C1794 1.428 . S
H1789 C1785 0.930 . S
H1790 C1787 0.929 . S
S1791 N1792 1.613 . S
S1791 N1793 1.610 . S
N1792 S1791 1.613 . S
N1792 C1795 1.350 . S
N1793 S1791 1.610 . S
N1793 C1794 1.351 . S
C1794 C1788 1.428 . S
C1794 N1793 1.351 . S
C1794 C1795 1.434 . S
C1795 C1786 1.429 . S
C1795 N1792 1.350 . S
C1795 C1794 1.434 . S
C1796 C1797 1.369 . S
C1796 C1798 1.419 . S
C1796 H1800 0.930 . S
C1797 C1796 1.369 . S
C1797 C1806 1.429 . S
C1798 C1796 1.419 . S
C1798 C1799 1.363 . S
C1798 H1801 0.929 . S
C1799 C1798 1.363 . S
C1799 C1805 1.428 . S
H1800 C1796 0.930 . S
H1801 C1798 0.929 . S
S1802 N1803 1.613 . S
S1802 N1804 1.610 . S
N1803 S1802 1.613 . S
N1803 C1806 1.350 . S
N1804 S1802 1.610 . S
N1804 C1805 1.351 . S
C1805 C1799 1.428 . S
C1805 N1804 1.351 . S
C1805 C1806 1.434 . S
C1806 C1797 1.429 . S
C1806 N1803 1.350 . S
C1806 C1805 1.434 . S
C1807 C1808 1.369 . S
C1807 C1809 1.419 . S
C1807 H1811 0.930 . S
C1808 C1807 1.369 . S
C1808 C1817 1.429 . S
C1809 C1807 1.419 . S
C1809 C1810 1.363 . S
C1809 H1812 0.929 . S
C1810 C1809 1.363 . S
C1810 C1816 1.428 . S
H1811 C1807 0.930 . S
H1812 C1809 0.929 . S
S1813 N1814 1.613 . S
S1813 N1815 1.610 . S
N1814 S1813 1.613 . S
N1814 C1817 1.350 . S
N1815 S1813 1.610 . S
N1815 C1816 1.351 . S
C1816 C1810 1.428 . S
C1816 N1815 1.351 . S
C1816 C1817 1.434 . S
C1817 C1808 1.429 . S
C1817 N1814 1.350 . S
C1817 C1816 1.434 . S
C1818 C1819 1.369 . S
C1818 C1820 1.419 . S
C1818 H1822 0.930 . S
C1819 C1818 1.369 . S
C1819 C1828 1.429 . S
C1820 C1818 1.419 . S
C1820 C1821 1.363 . S
C1820 H1823 0.929 . S
C1821 C1820 1.363 . S
C1821 C1827 1.428 . S
H1822 C1818 0.930 . S
H1823 C1820 0.929 . S
S1824 N1825 1.613 . S
S1824 N1826 1.610 . S
N1825 S1824 1.613 . S
N1825 C1828 1.350 . S
N1826 S1824 1.610 . S
N1826 C1827 1.351 . S
C1827 C1821 1.428 . S
C1827 N1826 1.351 . S
C1827 C1828 1.434 . S
C1828 C1819 1.429 . S
C1828 N1825 1.350 . S
C1828 C1827 1.434 . S
C1829 C1830 1.369 . S
C1829 C1831 1.419 . S
C1829 H1833 0.930 . S
C1830 C1829 1.369 . S
C1830 C1839 1.429 . S
C1831 C1829 1.419 . S
C1831 C1832 1.363 . S
C1831 H1834 0.929 . S
C1832 C1831 1.363 . S
C1832 C1838 1.428 . S
H1833 C1829 0.930 . S
H1834 C1831 0.929 . S
S1835 N1836 1.613 . S
S1835 N1837 1.610 . S
N1836 S1835 1.613 . S
N1836 C1839 1.350 . S
N1837 S1835 1.610 . S
N1837 C1838 1.351 . S
C1838 C1832 1.428 . S
C1838 N1837 1.351 . S
C1838 C1839 1.434 . S
C1839 C1830 1.429 . S
C1839 N1836 1.350 . S
C1839 C1838 1.434 . S
C1840 C1841 1.369 . S
C1840 C1842 1.419 . S
C1840 H1844 0.930 . S
C1841 C1840 1.369 . S
C1841 C1850 1.429 . S
C1842 C1840 1.419 . S
C1842 C1843 1.363 . S
C1842 H1845 0.929 . S
C1843 C1842 1.363 . S
C1843 C1849 1.428 . S
H1844 C1840 0.930 . S
H1845 C1842 0.929 . S
S1846 N1847 1.613 . S
S1846 N1848 1.610 . S
N1847 S1846 1.613 . S
N1847 C1850 1.350 . S
N1848 S1846 1.610 . S
N1848 C1849 1.351 . S
C1849 C1843 1.428 . S
C1849 N1848 1.351 . S
C1849 C1850 1.434 . S
C1850 C1841 1.429 . S
C1850 N1847 1.350 . S
C1850 C1849 1.434 . S
C1851 C1852 1.369 . S
C1851 C1853 1.419 . S
C1851 H1855 0.930 . S
C1852 C1851 1.369 . S
C1852 C1861 1.429 . S
C1853 C1851 1.419 . S
C1853 C1854 1.363 . S
C1853 H1856 0.929 . S
C1854 C1853 1.363 . S
C1854 C1860 1.428 . S
H1855 C1851 0.930 . S
H1856 C1853 0.929 . S
S1857 N1858 1.613 . S
S1857 N1859 1.610 . S
N1858 S1857 1.613 . S
N1858 C1861 1.350 . S
N1859 S1857 1.610 . S
N1859 C1860 1.351 . S
C1860 C1854 1.428 . S
C1860 N1859 1.351 . S
C1860 C1861 1.434 . S
C1861 C1852 1.429 . S
C1861 N1858 1.350 . S
C1861 C1860 1.434 . S
C1862 C1863 1.369 . S
C1862 C1864 1.419 . S
C1862 H1866 0.930 . S
C1863 C1862 1.369 . S
C1863 C1872 1.429 . S
C1864 C1862 1.419 . S
C1864 C1865 1.363 . S
C1864 H1867 0.929 . S
C1865 C1864 1.363 . S
C1865 C1871 1.428 . S
H1866 C1862 0.930 . S
H1867 C1864 0.929 . S
S1868 N1869 1.613 . S
S1868 N1870 1.610 . S
N1869 S1868 1.613 . S
N1869 C1872 1.350 . S
N1870 S1868 1.610 . S
N1870 C1871 1.351 . S
C1871 C1865 1.428 . S
C1871 N1870 1.351 . S
C1871 C1872 1.434 . S
C1872 C1863 1.429 . S
C1872 N1869 1.350 . S
C1872 C1871 1.434 . S
C1873 C1874 1.369 . S
C1873 C1875 1.419 . S
C1873 H1877 0.930 . S
C1874 C1873 1.369 . S
C1874 C1883 1.429 . S
C1875 C1873 1.419 . S
C1875 C1876 1.363 . S
C1875 H1878 0.929 . S
C1876 C1875 1.363 . S
C1876 C1882 1.428 . S
H1877 C1873 0.930 . S
H1878 C1875 0.929 . S
S1879 N1880 1.613 . S
S1879 N1881 1.610 . S
N1880 S1879 1.613 . S
N1880 C1883 1.350 . S
N1881 S1879 1.610 . S
N1881 C1882 1.351 . S
C1882 C1876 1.428 . S
C1882 N1881 1.351 . S
C1882 C1883 1.434 . S
C1883 C1874 1.429 . S
C1883 N1880 1.350 . S
C1883 C1882 1.434 . S
C1884 C1885 1.369 . S
C1884 C1886 1.419 . S
C1884 H1888 0.930 . S
C1885 C1884 1.369 . S
C1885 C1894 1.429 . S
C1886 C1884 1.419 . S
C1886 C1887 1.363 . S
C1886 H1889 0.929 . S
C1887 C1886 1.363 . S
C1887 C1893 1.428 . S
H1888 C1884 0.930 . S
H1889 C1886 0.929 . S
S1890 N1891 1.613 . S
S1890 N1892 1.610 . S
N1891 S1890 1.613 . S
N1891 C1894 1.350 . S
N1892 S1890 1.610 . S
N1892 C1893 1.351 . S
C1893 C1887 1.428 . S
C1893 N1892 1.351 . S
C1893 C1894 1.434 . S
C1894 C1885 1.429 . S
C1894 N1891 1.350 . S
C1894 C1893 1.434 . S
C1895 C1896 1.369 . S
C1895 C1897 1.419 . S
C1895 H1899 0.930 . S
C1896 C1895 1.369 . S
C1896 C1905 1.429 . S
C1897 C1895 1.419 . S
C1897 C1898 1.363 . S
C1897 H1900 0.929 . S
C1898 C1897 1.363 . S
C1898 C1904 1.428 . S
H1899 C1895 0.930 . S
H1900 C1897 0.929 . S
S1901 N1902 1.613 . S
S1901 N1903 1.610 . S
N1902 S1901 1.613 . S
N1902 C1905 1.350 . S
N1903 S1901 1.610 . S
N1903 C1904 1.351 . S
C1904 C1898 1.428 . S
C1904 N1903 1.351 . S
C1904 C1905 1.434 . S
C1905 C1896 1.429 . S
C1905 N1902 1.350 . S
C1905 C1904 1.434 . S
C1906 C1907 1.369 . S
C1906 C1908 1.419 . S
C1906 H1910 0.930 . S
C1907 C1906 1.369 . S
C1907 C1916 1.429 . S
C1908 C1906 1.419 . S
C1908 C1909 1.363 . S
C1908 H1911 0.929 . S
C1909 C1908 1.363 . S
C1909 C1915 1.428 . S
H1910 C1906 0.930 . S
H1911 C1908 0.929 . S
S1912 N1913 1.613 . S
S1912 N1914 1.610 . S
N1913 S1912 1.613 . S
N1913 C1916 1.350 . S
N1914 S1912 1.610 . S
N1914 C1915 1.351 . S
C1915 C1909 1.428 . S
C1915 N1914 1.351 . S
C1915 C1916 1.434 . S
C1916 C1907 1.429 . S
C1916 N1913 1.350 . S
C1916 C1915 1.434 . S
C1917 C1918 1.369 . S
C1917 C1919 1.419 . S
C1917 H1921 0.930 . S
C1918 C1917 1.369 . S
C1918 C1927 1.429 . S
C1919 C1917 1.419 . S
C1919 C1920 1.363 . S
C1919 H1922 0.929 . S
C1920 C1919 1.363 . S
C1920 C1926 1.428 . S
H1921 C1917 0.930 . S
H1922 C1919 0.929 . S
S1923 N1924 1.613 . S
S1923 N1925 1.610 . S
N1924 S1923 1.613 . S
N1924 C1927 1.350 . S
N1925 S1923 1.610 . S
N1925 C1926 1.351 . S
C1926 C1920 1.428 . S
C1926 N1925 1.351 . S
C1926 C1927 1.434 . S
C1927 C1918 1.429 . S
C1927 N1924 1.350 . S
C1927 C1926 1.434 . S
C1928 C1929 1.369 . S
C1928 C1930 1.419 . S
C1928 H1932 0.930 . S
C1929 C1928 1.369 . S
C1929 C1938 1.429 . S
C1930 C1928 1.419 . S
C1930 C1931 1.363 . S
C1930 H1933 0.929 . S
C1931 C1930 1.363 . S
C1931 C1937 1.428 . S
H1932 C1928 0.930 . S
H1933 C1930 0.929 . S
S1934 N1935 1.613 . S
S1934 N1936 1.610 . S
N1935 S1934 1.613 . S
N1935 C1938 1.350 . S
N1936 S1934 1.610 . S
N1936 C1937 1.351 . S
C1937 C1931 1.428 . S
C1937 N1936 1.351 . S
C1937 C1938 1.434 . S
C1938 C1929 1.429 . S
C1938 N1935 1.350 . S
C1938 C1937 1.434 . S
C1939 C1940 1.369 . S
C1939 C1941 1.419 . S
C1939 H1943 0.930 . S
C1940 C1939 1.369 . S
C1940 C1949 1.429 . S
C1941 C1939 1.419 . S
C1941 C1942 1.363 . S
C1941 H1944 0.929 . S
C1942 C1941 1.363 . S
C1942 C1948 1.428 . S
H1943 C1939 0.930 . S
H1944 C1941 0.929 . S
S1945 N1946 1.613 . S
S1945 N1947 1.610 . S
N1946 S1945 1.613 . S
N1946 C1949 1.350 . S
N1947 S1945 1.610 . S
N1947 C1948 1.351 . S
C1948 C1942 1.428 . S
C1948 N1947 1.351 . S
C1948 C1949 1.434 . S
C1949 C1940 1.429 . S
C1949 N1946 1.350 . S
C1949 C1948 1.434 . S
C1950 C1951 1.369 . S
C1950 C1952 1.419 . S
C1950 H1954 0.930 . S
C1951 C1950 1.369 . S
C1951 C1960 1.429 . S
C1952 C1950 1.419 . S
C1952 C1953 1.363 . S
C1952 H1955 0.929 . S
C1953 C1952 1.363 . S
C1953 C1959 1.428 . S
H1954 C1950 0.930 . S
H1955 C1952 0.929 . S
S1956 N1957 1.613 . S
S1956 N1958 1.610 . S
N1957 S1956 1.613 . S
N1957 C1960 1.350 . S
N1958 S1956 1.610 . S
N1958 C1959 1.351 . S
C1959 C1953 1.428 . S
C1959 N1958 1.351 . S
C1959 C1960 1.434 . S
C1960 C1951 1.429 . S
C1960 N1957 1.350 . S
C1960 C1959 1.434 . S
C1961 C1962 1.369 . S
C1961 C1963 1.419 . S
C1961 H1965 0.930 . S
C1962 C1961 1.369 . S
C1962 C1971 1.429 . S
C1963 C1961 1.419 . S
C1963 C1964 1.363 . S
C1963 H1966 0.929 . S
C1964 C1963 1.363 . S
C1964 C1970 1.428 . S
H1965 C1961 0.930 . S
H1966 C1963 0.929 . S
S1967 N1968 1.613 . S
S1967 N1969 1.610 . S
N1968 S1967 1.613 . S
N1968 C1971 1.350 . S
N1969 S1967 1.610 . S
N1969 C1970 1.351 . S
C1970 C1964 1.428 . S
C1970 N1969 1.351 . S
C1970 C1971 1.434 . S
C1971 C1962 1.429 . S
C1971 N1968 1.350 . S
C1971 C1970 1.434 . S
C1972 C1973 1.369 . S
C1972 C1974 1.419 . S
C1972 H1976 0.930 . S
C1973 C1972 1.369 . S
C1973 C1982 1.429 . S
C1974 C1972 1.419 . S
C1974 C1975 1.363 . S
C1974 H1977 0.929 . S
C1975 C1974 1.363 . S
C1975 C1981 1.428 . S
H1976 C1972 0.930 . S
H1977 C1974 0.929 . S
S1978 N1979 1.613 . S
S1978 N1980 1.610 . S
N1979 S1978 1.613 . S
N1979 C1982 1.350 . S
N1980 S1978 1.610 . S
N1980 C1981 1.351 . S
C1981 C1975 1.428 . S
C1981 N1980 1.351 . S
C1981 C1982 1.434 . S
C1982 C1973 1.429 . S
C1982 N1979 1.350 . S
C1982 C1981 1.434 . S
C1983 C1984 1.369 . S
C1983 C1985 1.419 . S
C1983 H1987 0.930 . S
C1984 C1983 1.369 . S
C1984 C1993 1.429 . S
C1985 C1983 1.419 . S
C1985 C1986 1.363 . S
C1985 H1988 0.929 . S
C1986 C1985 1.363 . S
C1986 C1992 1.428 . S
H1987 C1983 0.930 . S
H1988 C1985 0.929 . S
S1989 N1990 1.613 . S
S1989 N1991 1.610 . S
N1990 S1989 1.613 . S
N1990 C1993 1.350 . S
N1991 S1989 1.610 . S
N1991 C1992 1.351 . S
C1992 C1986 1.428 . S
C1992 N1991 1.351 . S
C1992 C1993 1.434 . S
C1993 C1984 1.429 . S
C1993 N1990 1.350 . S
C1993 C1992 1.434 . S
C1994 C1995 1.369 . S
C1994 C1996 1.419 . S
C1994 H1998 0.930 . S
C1995 C1994 1.369 . S
C1995 C2004 1.429 . S
C1996 C1994 1.419 . S
C1996 C1997 1.363 . S
C1996 H1999 0.929 . S
C1997 C1996 1.363 . S
C1997 C2003 1.428 . S
H1998 C1994 0.930 . S
H1999 C1996 0.929 . S
S2000 N2001 1.613 . S
S2000 N2002 1.610 . S
N2001 S2000 1.613 . S
N2001 C2004 1.350 . S
N2002 S2000 1.610 . S
N2002 C2003 1.351 . S
C2003 C1997 1.428 . S
C2003 N2002 1.351 . S
C2003 C2004 1.434 . S
C2004 C1995 1.429 . S
C2004 N2001 1.350 . S
C2004 C2003 1.434 . S
C2005 C2006 1.369 . S
C2005 C2007 1.419 . S
C2005 H2009 0.930 . S
C2006 C2005 1.369 . S
C2006 C2015 1.429 . S
C2007 C2005 1.419 . S
C2007 C2008 1.363 . S
C2007 H2010 0.929 . S
C2008 C2007 1.363 . S
C2008 C2014 1.428 . S
H2009 C2005 0.930 . S
H2010 C2007 0.929 . S
S2011 N2012 1.613 . S
S2011 N2013 1.610 . S
N2012 S2011 1.613 . S
N2012 C2015 1.350 . S
N2013 S2011 1.610 . S
N2013 C2014 1.351 . S
C2014 C2008 1.428 . S
C2014 N2013 1.351 . S
C2014 C2015 1.434 . S
C2015 C2006 1.429 . S
C2015 N2012 1.350 . S
C2015 C2014 1.434 . S
C2016 C2017 1.369 . S
C2016 C2018 1.419 . S
C2016 H2020 0.930 . S
C2017 C2016 1.369 . S
C2017 C2026 1.429 . S
C2018 C2016 1.419 . S
C2018 C2019 1.363 . S
C2018 H2021 0.929 . S
C2019 C2018 1.363 . S
C2019 C2025 1.428 . S
H2020 C2016 0.930 . S
H2021 C2018 0.929 . S
S2022 N2023 1.613 . S
S2022 N2024 1.610 . S
N2023 S2022 1.613 . S
N2023 C2026 1.350 . S
N2024 S2022 1.610 . S
N2024 C2025 1.351 . S
C2025 C2019 1.428 . S
C2025 N2024 1.351 . S
C2025 C2026 1.434 . S
C2026 C2017 1.429 . S
C2026 N2023 1.350 . S
C2026 C2025 1.434 . S
C2027 C2028 1.369 . S
C2027 C2029 1.419 . S
C2027 H2031 0.930 . S
C2028 C2027 1.369 . S
C2028 C2037 1.429 . S
C2029 C2027 1.419 . S
C2029 C2030 1.363 . S
C2029 H2032 0.929 . S
C2030 C2029 1.363 . S
C2030 C2036 1.428 . S
H2031 C2027 0.930 . S
H2032 C2029 0.929 . S
S2033 N2034 1.613 . S
S2033 N2035 1.610 . S
N2034 S2033 1.613 . S
N2034 C2037 1.350 . S
N2035 S2033 1.610 . S
N2035 C2036 1.351 . S
C2036 C2030 1.428 . S
C2036 N2035 1.351 . S
C2036 C2037 1.434 . S
C2037 C2028 1.429 . S
C2037 N2034 1.350 . S
C2037 C2036 1.434 . S
C2038 C2039 1.369 . S
C2038 C2040 1.419 . S
C2038 H2042 0.930 . S
C2039 C2038 1.369 . S
C2039 C2048 1.429 . S
C2040 C2038 1.419 . S
C2040 C2041 1.363 . S
C2040 H2043 0.929 . S
C2041 C2040 1.363 . S
C2041 C2047 1.428 . S
H2042 C2038 0.930 . S
H2043 C2040 0.929 . S
S2044 N2045 1.613 . S
S2044 N2046 1.610 . S
N2045 S2044 1.613 . S
N2045 C2048 1.350 . S
N2046 S2044 1.610 . S
N2046 C2047 1.351 . S
C2047 C2041 1.428 . S
C2047 N2046 1.351 . S
C2047 C2048 1.434 . S
C2048 C2039 1.429 . S
C2048 N2045 1.350 . S
C2048 C2047 1.434 . S
C2049 C2050 1.369 . S
C2049 C2051 1.419 . S
C2049 H2053 0.930 . S
C2050 C2049 1.369 . S
C2050 C2059 1.429 . S
C2051 C2049 1.419 . S
C2051 C2052 1.363 . S
C2051 H2054 0.929 . S
C2052 C2051 1.363 . S
C2052 C2058 1.428 . S
H2053 C2049 0.930 . S
H2054 C2051 0.929 . S
S2055 N2056 1.613 . S
S2055 N2057 1.610 . S
N2056 S2055 1.613 . S
N2056 C2059 1.350 . S
N2057 S2055 1.610 . S
N2057 C2058 1.351 . S
C2058 C2052 1.428 . S
C2058 N2057 1.351 . S
C2058 C2059 1.434 . S
C2059 C2050 1.429 . S
C2059 N2056 1.350 . S
C2059 C2058 1.434 . S
C2060 C2061 1.369 . S
C2060 C2062 1.419 . S
C2060 H2064 0.930 . S
C2061 C2060 1.369 . S
C2061 C2070 1.429 . S
C2062 C2060 1.419 . S
C2062 C2063 1.363 . S
C2062 H2065 0.929 . S
C2063 C2062 1.363 . S
C2063 C2069 1.428 . S
H2064 C2060 0.930 . S
H2065 C2062 0.929 . S
S2066 N2067 1.613 . S
S2066 N2068 1.610 . S
N2067 S2066 1.613 . S
N2067 C2070 1.350 . S
N2068 S2066 1.610 . S
N2068 C2069 1.351 . S
C2069 C2063 1.428 . S
C2069 N2068 1.351 . S
C2069 C2070 1.434 . S
C2070 C2061 1.429 . S
C2070 N2067 1.350 . S
C2070 C2069 1.434 . S
C2071 C2072 1.369 . S
C2071 C2073 1.419 . S
C2071 H2075 0.930 . S
C2072 C2071 1.369 . S
C2072 C2081 1.429 . S
C2073 C2071 1.419 . S
C2073 C2074 1.363 . S
C2073 H2076 0.929 . S
C2074 C2073 1.363 . S
C2074 C2080 1.428 . S
H2075 C2071 0.930 . S
H2076 C2073 0.929 . S
S2077 N2078 1.613 . S
S2077 N2079 1.610 . S
N2078 S2077 1.613 . S
N2078 C2081 1.350 . S
N2079 S2077 1.610 . S
N2079 C2080 1.351 . S
C2080 C2074 1.428 . S
C2080 N2079 1.351 . S
C2080 C2081 1.434 . S
C2081 C2072 1.429 . S
C2081 N2078 1.350 . S
C2081 C2080 1.434 . S
C2082 C2083 1.369 . S
C2082 C2084 1.419 . S
C2082 H2086 0.930 . S
C2083 C2082 1.369 . S
C2083 C2092 1.429 . S
C2084 C2082 1.419 . S
C2084 C2085 1.363 . S
C2084 H2087 0.929 . S
C2085 C2084 1.363 . S
C2085 C2091 1.428 . S
H2086 C2082 0.930 . S
H2087 C2084 0.929 . S
S2088 N2089 1.613 . S
S2088 N2090 1.610 . S
N2089 S2088 1.613 . S
N2089 C2092 1.350 . S
N2090 S2088 1.610 . S
N2090 C2091 1.351 . S
C2091 C2085 1.428 . S
C2091 N2090 1.351 . S
C2091 C2092 1.434 . S
C2092 C2083 1.429 . S
C2092 N2089 1.350 . S
C2092 C2091 1.434 . S
C2093 C2094 1.369 . S
C2093 C2095 1.419 . S
C2093 H2097 0.930 . S
C2094 C2093 1.369 . S
C2094 C2103 1.429 . S
C2095 C2093 1.419 . S
C2095 C2096 1.363 . S
C2095 H2098 0.929 . S
C2096 C2095 1.363 . S
C2096 C2102 1.428 . S
H2097 C2093 0.930 . S
H2098 C2095 0.929 . S
S2099 N2100 1.613 . S
S2099 N2101 1.610 . S
N2100 S2099 1.613 . S
N2100 C2103 1.350 . S
N2101 S2099 1.610 . S
N2101 C2102 1.351 . S
C2102 C2096 1.428 . S
C2102 N2101 1.351 . S
C2102 C2103 1.434 . S
C2103 C2094 1.429 . S
C2103 N2100 1.350 . S
C2103 C2102 1.434 . S
C2104 C2105 1.369 . S
C2104 C2106 1.419 . S
C2104 H2108 0.930 . S
C2105 C2104 1.369 . S
C2105 C2114 1.429 . S
C2106 C2104 1.419 . S
C2106 C2107 1.363 . S
C2106 H2109 0.929 . S
C2107 C2106 1.363 . S
C2107 C2113 1.428 . S
H2108 C2104 0.930 . S
H2109 C2106 0.929 . S
S2110 N2111 1.613 . S
S2110 N2112 1.610 . S
N2111 S2110 1.613 . S
N2111 C2114 1.350 . S
N2112 S2110 1.610 . S
N2112 C2113 1.351 . S
C2113 C2107 1.428 . S
C2113 N2112 1.351 . S
C2113 C2114 1.434 . S
C2114 C2105 1.429 . S
C2114 N2111 1.350 . S
C2114 C2113 1.434 . S
C2115 C2116 1.369 . S
C2115 C2117 1.419 . S
C2115 H2119 0.930 . S
C2116 C2115 1.369 . S
C2116 C2125 1.429 . S
C2117 C2115 1.419 . S
C2117 C2118 1.363 . S
C2117 H2120 0.929 . S
C2118 C2117 1.363 . S
C2118 C2124 1.428 . S
H2119 C2115 0.930 . S
H2120 C2117 0.929 . S
S2121 N2122 1.613 . S
S2121 N2123 1.610 . S
N2122 S2121 1.613 . S
N2122 C2125 1.350 . S
N2123 S2121 1.610 . S
N2123 C2124 1.351 . S
C2124 C2118 1.428 . S
C2124 N2123 1.351 . S
C2124 C2125 1.434 . S
C2125 C2116 1.429 . S
C2125 N2122 1.350 . S
C2125 C2124 1.434 . S
C2126 C2127 1.369 . S
C2126 C2128 1.419 . S
C2126 H2130 0.930 . S
C2127 C2126 1.369 . S
C2127 C2136 1.429 . S
C2128 C2126 1.419 . S
C2128 C2129 1.363 . S
C2128 H2131 0.929 . S
C2129 C2128 1.363 . S
C2129 C2135 1.428 . S
H2130 C2126 0.930 . S
H2131 C2128 0.929 . S
S2132 N2133 1.613 . S
S2132 N2134 1.610 . S
N2133 S2132 1.613 . S
N2133 C2136 1.350 . S
N2134 S2132 1.610 . S
N2134 C2135 1.351 . S
C2135 C2129 1.428 . S
C2135 N2134 1.351 . S
C2135 C2136 1.434 . S
C2136 C2127 1.429 . S
C2136 N2133 1.350 . S
C2136 C2135 1.434 . S
C2137 C2138 1.369 . S
C2137 C2139 1.419 . S
C2137 H2141 0.930 . S
C2138 C2137 1.369 . S
C2138 C2147 1.429 . S
C2139 C2137 1.419 . S
C2139 C2140 1.363 . S
C2139 H2142 0.929 . S
C2140 C2139 1.363 . S
C2140 C2146 1.428 . S
H2141 C2137 0.930 . S
H2142 C2139 0.929 . S
S2143 N2144 1.613 . S
S2143 N2145 1.610 . S
N2144 S2143 1.613 . S
N2144 C2147 1.350 . S
N2145 S2143 1.610 . S
N2145 C2146 1.351 . S
C2146 C2140 1.428 . S
C2146 N2145 1.351 . S
C2146 C2147 1.434 . S
C2147 C2138 1.429 . S
C2147 N2144 1.350 . S
C2147 C2146 1.434 . S
C2148 C2149 1.369 . S
C2148 C2150 1.419 . S
C2148 H2152 0.930 . S
C2149 C2148 1.369 . S
C2149 C2158 1.429 . S
C2150 C2148 1.419 . S
C2150 C2151 1.363 . S
C2150 H2153 0.929 . S
C2151 C2150 1.363 . S
C2151 C2157 1.428 . S
H2152 C2148 0.930 . S
H2153 C2150 0.929 . S
S2154 N2155 1.613 . S
S2154 N2156 1.610 . S
N2155 S2154 1.613 . S
N2155 C2158 1.350 . S
N2156 S2154 1.610 . S
N2156 C2157 1.351 . S
C2157 C2151 1.428 . S
C2157 N2156 1.351 . S
C2157 C2158 1.434 . S
C2158 C2149 1.429 . S
C2158 N2155 1.350 . S
C2158 C2157 1.434 . S
C2159 C2160 1.369 . S
C2159 C2161 1.419 . S
C2159 H2163 0.930 . S
C2160 C2159 1.369 . S
C2160 C2169 1.429 . S
C2161 C2159 1.419 . S
C2161 C2162 1.363 . S
C2161 H2164 0.929 . S
C2162 C2161 1.363 . S
C2162 C2168 1.428 . S
H2163 C2159 0.930 . S
H2164 C2161 0.929 . S
S2165 N2166 1.613 . S
S2165 N2167 1.610 . S
N2166 S2165 1.613 . S
N2166 C2169 1.350 . S
N2167 S2165 1.610 . S
N2167 C2168 1.351 . S
C2168 C2162 1.428 . S
C2168 N2167 1.351 . S
C2168 C2169 1.434 . S
C2169 C2160 1.429 . S
C2169 N2166 1.350 . S
C2169 C2168 1.434 . S
C2170 C2171 1.369 . S
C2170 C2172 1.419 . S
C2170 H2174 0.930 . S
C2171 C2170 1.369 . S
C2171 C2180 1.429 . S
C2172 C2170 1.419 . S
C2172 C2173 1.363 . S
C2172 H2175 0.929 . S
C2173 C2172 1.363 . S
C2173 C2179 1.428 . S
H2174 C2170 0.930 . S
H2175 C2172 0.929 . S
S2176 N2177 1.613 . S
S2176 N2178 1.610 . S
N2177 S2176 1.613 . S
N2177 C2180 1.350 . S
N2178 S2176 1.610 . S
N2178 C2179 1.351 . S
C2179 C2173 1.428 . S
C2179 N2178 1.351 . S
C2179 C2180 1.434 . S
C2180 C2171 1.429 . S
C2180 N2177 1.350 . S
C2180 C2179 1.434 . S
C2181 C2182 1.369 . S
C2181 C2183 1.419 . S
C2181 H2185 0.930 . S
C2182 C2181 1.369 . S
C2182 C2191 1.429 . S
C2183 C2181 1.419 . S
C2183 C2184 1.363 . S
C2183 H2186 0.929 . S
C2184 C2183 1.363 . S
C2184 C2190 1.428 . S
H2185 C2181 0.930 . S
H2186 C2183 0.929 . S
S2187 N2188 1.613 . S
S2187 N2189 1.610 . S
N2188 S2187 1.613 . S
N2188 C2191 1.350 . S
N2189 S2187 1.610 . S
N2189 C2190 1.351 . S
C2190 C2184 1.428 . S
C2190 N2189 1.351 . S
C2190 C2191 1.434 . S
C2191 C2182 1.429 . S
C2191 N2188 1.350 . S
C2191 C2190 1.434 . S
C2192 C2193 1.369 . S
C2192 C2194 1.419 . S
C2192 H2196 0.930 . S
C2193 C2192 1.369 . S
C2193 C2202 1.429 . S
C2194 C2192 1.419 . S
C2194 C2195 1.363 . S
C2194 H2197 0.929 . S
C2195 C2194 1.363 . S
C2195 C2201 1.428 . S
H2196 C2192 0.930 . S
H2197 C2194 0.929 . S
S2198 N2199 1.613 . S
S2198 N2200 1.610 . S
N2199 S2198 1.613 . S
N2199 C2202 1.350 . S
N2200 S2198 1.610 . S
N2200 C2201 1.351 . S
C2201 C2195 1.428 . S
C2201 N2200 1.351 . S
C2201 C2202 1.434 . S
C2202 C2193 1.429 . S
C2202 N2199 1.350 . S
C2202 C2201 1.434 . S
C2203 C2204 1.369 . S
C2203 C2205 1.419 . S
C2203 H2207 0.930 . S
C2204 C2203 1.369 . S
C2204 C2213 1.429 . S
C2205 C2203 1.419 . S
C2205 C2206 1.363 . S
C2205 H2208 0.929 . S
C2206 C2205 1.363 . S
C2206 C2212 1.428 . S
H2207 C2203 0.930 . S
H2208 C2205 0.929 . S
S2209 N2210 1.613 . S
S2209 N2211 1.610 . S
N2210 S2209 1.613 . S
N2210 C2213 1.350 . S
N2211 S2209 1.610 . S
N2211 C2212 1.351 . S
C2212 C2206 1.428 . S
C2212 N2211 1.351 . S
C2212 C2213 1.434 . S
C2213 C2204 1.429 . S
C2213 N2210 1.350 . S
C2213 C2212 1.434 . S
C2214 C2215 1.369 . S
C2214 C2216 1.419 . S
C2214 H2218 0.930 . S
C2215 C2214 1.369 . S
C2215 C2224 1.429 . S
C2216 C2214 1.419 . S
C2216 C2217 1.363 . S
C2216 H2219 0.929 . S
C2217 C2216 1.363 . S
C2217 C2223 1.428 . S
H2218 C2214 0.930 . S
H2219 C2216 0.929 . S
S2220 N2221 1.613 . S
S2220 N2222 1.610 . S
N2221 S2220 1.613 . S
N2221 C2224 1.350 . S
N2222 S2220 1.610 . S
N2222 C2223 1.351 . S
C2223 C2217 1.428 . S
C2223 N2222 1.351 . S
C2223 C2224 1.434 . S
C2224 C2215 1.429 . S
C2224 N2221 1.350 . S
C2224 C2223 1.434 . S
C2225 C2226 1.369 . S
C2225 C2227 1.419 . S
C2225 H2229 0.930 . S
C2226 C2225 1.369 . S
C2226 C2235 1.429 . S
C2227 C2225 1.419 . S
C2227 C2228 1.363 . S
C2227 H2230 0.929 . S
C2228 C2227 1.363 . S
C2228 C2234 1.428 . S
H2229 C2225 0.930 . S
H2230 C2227 0.929 . S
S2231 N2232 1.613 . S
S2231 N2233 1.610 . S
N2232 S2231 1.613 . S
N2232 C2235 1.350 . S
N2233 S2231 1.610 . S
N2233 C2234 1.351 . S
C2234 C2228 1.428 . S
C2234 N2233 1.351 . S
C2234 C2235 1.434 . S
C2235 C2226 1.429 . S
C2235 N2232 1.350 . S
C2235 C2234 1.434 . S
C2236 C2237 1.369 . S
C2236 C2238 1.419 . S
C2236 H2240 0.930 . S
C2237 C2236 1.369 . S
C2237 C2246 1.429 . S
C2238 C2236 1.419 . S
C2238 C2239 1.363 . S
C2238 H2241 0.929 . S
C2239 C2238 1.363 . S
C2239 C2245 1.428 . S
H2240 C2236 0.930 . S
H2241 C2238 0.929 . S
S2242 N2243 1.613 . S
S2242 N2244 1.610 . S
N2243 S2242 1.613 . S
N2243 C2246 1.350 . S
N2244 S2242 1.610 . S
N2244 C2245 1.351 . S
C2245 C2239 1.428 . S
C2245 N2244 1.351 . S
C2245 C2246 1.434 . S
C2246 C2237 1.429 . S
C2246 N2243 1.350 . S
C2246 C2245 1.434 . S
C2247 C2248 1.369 . S
C2247 C2249 1.419 . S
C2247 H2251 0.930 . S
C2248 C2247 1.369 . S
C2248 C2257 1.429 . S
C2249 C2247 1.419 . S
C2249 C2250 1.363 . S
C2249 H2252 0.929 . S
C2250 C2249 1.363 . S
C2250 C2256 1.428 . S
H2251 C2247 0.930 . S
H2252 C2249 0.929 . S
S2253 N2254 1.613 . S
S2253 N2255 1.610 . S
N2254 S2253 1.613 . S
N2254 C2257 1.350 . S
N2255 S2253 1.610 . S
N2255 C2256 1.351 . S
C2256 C2250 1.428 . S
C2256 N2255 1.351 . S
C2256 C2257 1.434 . S
C2257 C2248 1.429 . S
C2257 N2254 1.350 . S
C2257 C2256 1.434 . S
C2258 C2259 1.369 . S
C2258 C2260 1.419 . S
C2258 H2262 0.930 . S
C2259 C2258 1.369 . S
C2259 C2268 1.429 . S
C2260 C2258 1.419 . S
C2260 C2261 1.363 . S
C2260 H2263 0.929 . S
C2261 C2260 1.363 . S
C2261 C2267 1.428 . S
H2262 C2258 0.930 . S
H2263 C2260 0.929 . S
S2264 N2265 1.613 . S
S2264 N2266 1.610 . S
N2265 S2264 1.613 . S
N2265 C2268 1.350 . S
N2266 S2264 1.610 . S
N2266 C2267 1.351 . S
C2267 C2261 1.428 . S
C2267 N2266 1.351 . S
C2267 C2268 1.434 . S
C2268 C2259 1.429 . S
C2268 N2265 1.350 . S
C2268 C2267 1.434 . S
C2269 C2270 1.369 . S
C2269 C2271 1.419 . S
C2269 H2273 0.930 . S
C2270 C2269 1.369 . S
C2270 C2279 1.429 . S
C2271 C2269 1.419 . S
C2271 C2272 1.363 . S
C2271 H2274 0.929 . S
C2272 C2271 1.363 . S
C2272 C2278 1.428 . S
H2273 C2269 0.930 . S
H2274 C2271 0.929 . S
S2275 N2276 1.613 . S
S2275 N2277 1.610 . S
N2276 S2275 1.613 . S
N2276 C2279 1.350 . S
N2277 S2275 1.610 . S
N2277 C2278 1.351 . S
C2278 C2272 1.428 . S
C2278 N2277 1.351 . S
C2278 C2279 1.434 . S
C2279 C2270 1.429 . S
C2279 N2276 1.350 . S
C2279 C2278 1.434 . S
C2280 C2281 1.369 . S
C2280 C2282 1.419 . S
C2280 H2284 0.930 . S
C2281 C2280 1.369 . S
C2281 C2290 1.429 . S
C2282 C2280 1.419 . S
C2282 C2283 1.363 . S
C2282 H2285 0.929 . S
C2283 C2282 1.363 . S
C2283 C2289 1.428 . S
H2284 C2280 0.930 . S
H2285 C2282 0.929 . S
S2286 N2287 1.613 . S
S2286 N2288 1.610 . S
N2287 S2286 1.613 . S
N2287 C2290 1.350 . S
N2288 S2286 1.610 . S
N2288 C2289 1.351 . S
C2289 C2283 1.428 . S
C2289 N2288 1.351 . S
C2289 C2290 1.434 . S
C2290 C2281 1.429 . S
C2290 N2287 1.350 . S
C2290 C2289 1.434 . S
C2291 C2292 1.369 . S
C2291 C2293 1.419 . S
C2291 H2295 0.930 . S
C2292 C2291 1.369 . S
C2292 C2301 1.429 . S
C2293 C2291 1.419 . S
C2293 C2294 1.363 . S
C2293 H2296 0.929 . S
C2294 C2293 1.363 . S
C2294 C2300 1.428 . S
H2295 C2291 0.930 . S
H2296 C2293 0.929 . S
S2297 N2298 1.613 . S
S2297 N2299 1.610 . S
N2298 S2297 1.613 . S
N2298 C2301 1.350 . S
N2299 S2297 1.610 . S
N2299 C2300 1.351 . S
C2300 C2294 1.428 . S
C2300 N2299 1.351 . S
C2300 C2301 1.434 . S
C2301 C2292 1.429 . S
C2301 N2298 1.350 . S
C2301 C2300 1.434 . S
C2302 C2303 1.369 . S
C2302 C2304 1.419 . S
C2302 H2306 0.930 . S
C2303 C2302 1.369 . S
C2303 C2312 1.429 . S
C2304 C2302 1.419 . S
C2304 C2305 1.363 . S
C2304 H2307 0.929 . S
C2305 C2304 1.363 . S
C2305 C2311 1.428 . S
H2306 C2302 0.930 . S
H2307 C2304 0.929 . S
S2308 N2309 1.613 . S
S2308 N2310 1.610 . S
N2309 S2308 1.613 . S
N2309 C2312 1.350 . S
N2310 S2308 1.610 . S
N2310 C2311 1.351 . S
C2311 C2305 1.428 . S
C2311 N2310 1.351 . S
C2311 C2312 1.434 . S
C2312 C2303 1.429 . S
C2312 N2309 1.350 . S
C2312 C2311 1.434 . S
C2313 C2314 1.369 . S
C2313 C2315 1.419 . S
C2313 H2317 0.930 . S
C2314 C2313 1.369 . S
C2314 C2323 1.429 . S
C2315 C2313 1.419 . S
C2315 C2316 1.363 . S
C2315 H2318 0.929 . S
C2316 C2315 1.363 . S
C2316 C2322 1.428 . S
H2317 C2313 0.930 . S
H2318 C2315 0.929 . S
S2319 N2320 1.613 . S
S2319 N2321 1.610 . S
N2320 S2319 1.613 . S
N2320 C2323 1.350 . S
N2321 S2319 1.610 . S
N2321 C2322 1.351 . S
C2322 C2316 1.428 . S
C2322 N2321 1.351 . S
C2322 C2323 1.434 . S
C2323 C2314 1.429 . S
C2323 N2320 1.350 . S
C2323 C2322 1.434 . S
C2324 C2325 1.369 . S
C2324 C2326 1.419 . S
C2324 H2328 0.930 . S
C2325 C2324 1.369 . S
C2325 C2334 1.429 . S
C2326 C2324 1.419 . S
C2326 C2327 1.363 . S
C2326 H2329 0.929 . S
C2327 C2326 1.363 . S
C2327 C2333 1.428 . S
H2328 C2324 0.930 . S
H2329 C2326 0.929 . S
S2330 N2331 1.613 . S
S2330 N2332 1.610 . S
N2331 S2330 1.613 . S
N2331 C2334 1.350 . S
N2332 S2330 1.610 . S
N2332 C2333 1.351 . S
C2333 C2327 1.428 . S
C2333 N2332 1.351 . S
C2333 C2334 1.434 . S
C2334 C2325 1.429 . S
C2334 N2331 1.350 . S
C2334 C2333 1.434 . S
C2335 C2336 1.369 . S
C2335 C2337 1.419 . S
C2335 H2339 0.930 . S
C2336 C2335 1.369 . S
C2336 C2345 1.429 . S
C2337 C2335 1.419 . S
C2337 C2338 1.363 . S
C2337 H2340 0.929 . S
C2338 C2337 1.363 . S
C2338 C2344 1.428 . S
H2339 C2335 0.930 . S
H2340 C2337 0.929 . S
S2341 N2342 1.613 . S
S2341 N2343 1.610 . S
N2342 S2341 1.613 . S
N2342 C2345 1.350 . S
N2343 S2341 1.610 . S
N2343 C2344 1.351 . S
C2344 C2338 1.428 . S
C2344 N2343 1.351 . S
C2344 C2345 1.434 . S
C2345 C2336 1.429 . S
C2345 N2342 1.350 . S
C2345 C2344 1.434 . S
C2346 C2347 1.369 . S
C2346 C2348 1.419 . S
C2346 H2350 0.930 . S
C2347 C2346 1.369 . S
C2347 C2356 1.429 . S
C2348 C2346 1.419 . S
C2348 C2349 1.363 . S
C2348 H2351 0.929 . S
C2349 C2348 1.363 . S
C2349 C2355 1.428 . S
H2350 C2346 0.930 . S
H2351 C2348 0.929 . S
S2352 N2353 1.613 . S
S2352 N2354 1.610 . S
N2353 S2352 1.613 . S
N2353 C2356 1.350 . S
N2354 S2352 1.610 . S
N2354 C2355 1.351 . S
C2355 C2349 1.428 . S
C2355 N2354 1.351 . S
C2355 C2356 1.434 . S
C2356 C2347 1.429 . S
C2356 N2353 1.350 . S
C2356 C2355 1.434 . S
C2357 C2358 1.369 . S
C2357 C2359 1.419 . S
C2357 H2361 0.930 . S
C2358 C2357 1.369 . S
C2358 C2367 1.429 . S
C2359 C2357 1.419 . S
C2359 C2360 1.363 . S
C2359 H2362 0.929 . S
C2360 C2359 1.363 . S
C2360 C2366 1.428 . S
H2361 C2357 0.930 . S
H2362 C2359 0.929 . S
S2363 N2364 1.613 . S
S2363 N2365 1.610 . S
N2364 S2363 1.613 . S
N2364 C2367 1.350 . S
N2365 S2363 1.610 . S
N2365 C2366 1.351 . S
C2366 C2360 1.428 . S
C2366 N2365 1.351 . S
C2366 C2367 1.434 . S
C2367 C2358 1.429 . S
C2367 N2364 1.350 . S
C2367 C2366 1.434 . S
C2368 C2369 1.369 . S
C2368 C2370 1.419 . S
C2368 H2372 0.930 . S
C2369 C2368 1.369 . S
C2369 C2378 1.429 . S
C2370 C2368 1.419 . S
C2370 C2371 1.363 . S
C2370 H2373 0.929 . S
C2371 C2370 1.363 . S
C2371 C2377 1.428 . S
H2372 C2368 0.930 . S
H2373 C2370 0.929 . S
S2374 N2375 1.613 . S
S2374 N2376 1.610 . S
N2375 S2374 1.613 . S
N2375 C2378 1.350 . S
N2376 S2374 1.610 . S
N2376 C2377 1.351 . S
C2377 C2371 1.428 . S
C2377 N2376 1.351 . S
C2377 C2378 1.434 . S
C2378 C2369 1.429 . S
C2378 N2375 1.350 . S
C2378 C2377 1.434 . S
C2379 C2380 1.369 . S
C2379 C2381 1.419 . S
C2379 H2383 0.930 . S
C2380 C2379 1.369 . S
C2380 C2389 1.429 . S
C2381 C2379 1.419 . S
C2381 C2382 1.363 . S
C2381 H2384 0.929 . S
C2382 C2381 1.363 . S
C2382 C2388 1.428 . S
H2383 C2379 0.930 . S
H2384 C2381 0.929 . S
S2385 N2386 1.613 . S
S2385 N2387 1.610 . S
N2386 S2385 1.613 . S
N2386 C2389 1.350 . S
N2387 S2385 1.610 . S
N2387 C2388 1.351 . S
C2388 C2382 1.428 . S
C2388 N2387 1.351 . S
C2388 C2389 1.434 . S
C2389 C2380 1.429 . S
C2389 N2386 1.350 . S
C2389 C2388 1.434 . S
C2390 C2391 1.369 . S
C2390 C2392 1.419 . S
C2390 H2394 0.930 . S
C2391 C2390 1.369 . S
C2391 C2400 1.429 . S
C2392 C2390 1.419 . S
C2392 C2393 1.363 . S
C2392 H2395 0.929 . S
C2393 C2392 1.363 . S
C2393 C2399 1.428 . S
H2394 C2390 0.930 . S
H2395 C2392 0.929 . S
S2396 N2397 1.613 . S
S2396 N2398 1.610 . S
N2397 S2396 1.613 . S
N2397 C2400 1.350 . S
N2398 S2396 1.610 . S
N2398 C2399 1.351 . S
C2399 C2393 1.428 . S
C2399 N2398 1.351 . S
C2399 C2400 1.434 . S
C2400 C2391 1.429 . S
C2400 N2397 1.350 . S
C2400 C2399 1.434 . S
C2401 C2402 1.369 . S
C2401 C2403 1.419 . S
C2401 H2405 0.930 . S
C2402 C2401 1.369 . S
C2402 C2411 1.429 . S
C2403 C2401 1.419 . S
C2403 C2404 1.363 . S
C2403 H2406 0.929 . S
C2404 C2403 1.363 . S
C2404 C2410 1.428 . S
H2405 C2401 0.930 . S
H2406 C2403 0.929 . S
S2407 N2408 1.613 . S
S2407 N2409 1.610 . S
N2408 S2407 1.613 . S
N2408 C2411 1.350 . S
N2409 S2407 1.610 . S
N2409 C2410 1.351 . S
C2410 C2404 1.428 . S
C2410 N2409 1.351 . S
C2410 C2411 1.434 . S
C2411 C2402 1.429 . S
C2411 N2408 1.350 . S
C2411 C2410 1.434 . S
C2412 C2413 1.369 . S
C2412 C2414 1.419 . S
C2412 H2416 0.930 . S
C2413 C2412 1.369 . S
C2413 C2422 1.429 . S
C2414 C2412 1.419 . S
C2414 C2415 1.363 . S
C2414 H2417 0.929 . S
C2415 C2414 1.363 . S
C2415 C2421 1.428 . S
H2416 C2412 0.930 . S
H2417 C2414 0.929 . S
S2418 N2419 1.613 . S
S2418 N2420 1.610 . S
N2419 S2418 1.613 . S
N2419 C2422 1.350 . S
N2420 S2418 1.610 . S
N2420 C2421 1.351 . S
C2421 C2415 1.428 . S
C2421 N2420 1.351 . S
C2421 C2422 1.434 . S
C2422 C2413 1.429 . S
C2422 N2419 1.350 . S
C2422 C2421 1.434 . S
C2423 C2424 1.369 . S
C2423 C2425 1.419 . S
C2423 H2427 0.930 . S
C2424 C2423 1.369 . S
C2424 C2433 1.429 . S
C2425 C2423 1.419 . S
C2425 C2426 1.363 . S
C2425 H2428 0.929 . S
C2426 C2425 1.363 . S
C2426 C2432 1.428 . S
H2427 C2423 0.930 . S
H2428 C2425 0.929 . S
S2429 N2430 1.613 . S
S2429 N2431 1.610 . S
N2430 S2429 1.613 . S
N2430 C2433 1.350 . S
N2431 S2429 1.610 . S
N2431 C2432 1.351 . S
C2432 C2426 1.428 . S
C2432 N2431 1.351 . S
C2432 C2433 1.434 . S
C2433 C2424 1.429 . S
C2433 N2430 1.350 . S
C2433 C2432 1.434 . S
C2434 C2435 1.369 . S
C2434 C2436 1.419 . S
C2434 H2438 0.930 . S
C2435 C2434 1.369 . S
C2435 C2444 1.429 . S
C2436 C2434 1.419 . S
C2436 C2437 1.363 . S
C2436 H2439 0.929 . S
C2437 C2436 1.363 . S
C2437 C2443 1.428 . S
H2438 C2434 0.930 . S
H2439 C2436 0.929 . S
S2440 N2441 1.613 . S
S2440 N2442 1.610 . S
N2441 S2440 1.613 . S
N2441 C2444 1.350 . S
N2442 S2440 1.610 . S
N2442 C2443 1.351 . S
C2443 C2437 1.428 . S
C2443 N2442 1.351 . S
C2443 C2444 1.434 . S
C2444 C2435 1.429 . S
C2444 N2441 1.350 . S
C2444 C2443 1.434 . S
C2445 C2446 1.369 . S
C2445 C2447 1.419 . S
C2445 H2449 0.930 . S
C2446 C2445 1.369 . S
C2446 C2455 1.429 . S
C2447 C2445 1.419 . S
C2447 C2448 1.363 . S
C2447 H2450 0.929 . S
C2448 C2447 1.363 . S
C2448 C2454 1.428 . S
H2449 C2445 0.930 . S
H2450 C2447 0.929 . S
S2451 N2452 1.613 . S
S2451 N2453 1.610 . S
N2452 S2451 1.613 . S
N2452 C2455 1.350 . S
N2453 S2451 1.610 . S
N2453 C2454 1.351 . S
C2454 C2448 1.428 . S
C2454 N2453 1.351 . S
C2454 C2455 1.434 . S
C2455 C2446 1.429 . S
C2455 N2452 1.350 . S
C2455 C2454 1.434 . S
C2456 C2457 1.369 . S
C2456 C2458 1.419 . S
C2456 H2460 0.930 . S
C2457 C2456 1.369 . S
C2457 C2466 1.429 . S
C2458 C2456 1.419 . S
C2458 C2459 1.363 . S
C2458 H2461 0.929 . S
C2459 C2458 1.363 . S
C2459 C2465 1.428 . S
H2460 C2456 0.930 . S
H2461 C2458 0.929 . S
S2462 N2463 1.613 . S
S2462 N2464 1.610 . S
N2463 S2462 1.613 . S
N2463 C2466 1.350 . S
N2464 S2462 1.610 . S
N2464 C2465 1.351 . S
C2465 C2459 1.428 . S
C2465 N2464 1.351 . S
C2465 C2466 1.434 . S
C2466 C2457 1.429 . S
C2466 N2463 1.350 . S
C2466 C2465 1.434 . S
C2467 C2468 1.369 . S
C2467 C2469 1.419 . S
C2467 H2471 0.930 . S
C2468 C2467 1.369 . S
C2468 C2477 1.429 . S
C2469 C2467 1.419 . S
C2469 C2470 1.363 . S
C2469 H2472 0.929 . S
C2470 C2469 1.363 . S
C2470 C2476 1.428 . S
H2471 C2467 0.930 . S
H2472 C2469 0.929 . S
S2473 N2474 1.613 . S
S2473 N2475 1.610 . S
N2474 S2473 1.613 . S
N2474 C2477 1.350 . S
N2475 S2473 1.610 . S
N2475 C2476 1.351 . S
C2476 C2470 1.428 . S
C2476 N2475 1.351 . S
C2476 C2477 1.434 . S
C2477 C2468 1.429 . S
C2477 N2474 1.350 . S
C2477 C2476 1.434 . S
C2478 C2479 1.369 . S
C2478 C2480 1.419 . S
C2478 H2482 0.930 . S
C2479 C2478 1.369 . S
C2479 C2488 1.429 . S
C2480 C2478 1.419 . S
C2480 C2481 1.363 . S
C2480 H2483 0.929 . S
C2481 C2480 1.363 . S
C2481 C2487 1.428 . S
H2482 C2478 0.930 . S
H2483 C2480 0.929 . S
S2484 N2485 1.613 . S
S2484 N2486 1.610 . S
N2485 S2484 1.613 . S
N2485 C2488 1.350 . S
N2486 S2484 1.610 . S
N2486 C2487 1.351 . S
C2487 C2481 1.428 . S
C2487 N2486 1.351 . S
C2487 C2488 1.434 . S
C2488 C2479 1.429 . S
C2488 N2485 1.350 . S
C2488 C2487 1.434 . S
C2489 C2490 1.369 . S
C2489 C2491 1.419 . S
C2489 H2493 0.930 . S
C2490 C2489 1.369 . S
C2490 C2499 1.429 . S
C2491 C2489 1.419 . S
C2491 C2492 1.363 . S
C2491 H2494 0.929 . S
C2492 C2491 1.363 . S
C2492 C2498 1.428 . S
H2493 C2489 0.930 . S
H2494 C2491 0.929 . S
S2495 N2496 1.613 . S
S2495 N2497 1.610 . S
N2496 S2495 1.613 . S
N2496 C2499 1.350 . S
N2497 S2495 1.610 . S
N2497 C2498 1.351 . S
C2498 C2492 1.428 . S
C2498 N2497 1.351 . S
C2498 C2499 1.434 . S
C2499 C2490 1.429 . S
C2499 N2496 1.350 . S
C2499 C2498 1.434 . S
C2500 C2501 1.369 . S
C2500 C2502 1.419 . S
C2500 H2504 0.930 . S
C2501 C2500 1.369 . S
C2501 C2510 1.429 . S
C2502 C2500 1.419 . S
C2502 C2503 1.363 . S
C2502 H2505 0.929 . S
C2503 C2502 1.363 . S
C2503 C2509 1.428 . S
H2504 C2500 0.930 . S
H2505 C2502 0.929 . S
S2506 N2507 1.613 . S
S2506 N2508 1.610 . S
N2507 S2506 1.613 . S
N2507 C2510 1.350 . S
N2508 S2506 1.610 . S
N2508 C2509 1.351 . S
C2509 C2503 1.428 . S
C2509 N2508 1.351 . S
C2509 C2510 1.434 . S
C2510 C2501 1.429 . S
C2510 N2507 1.350 . S
C2510 C2509 1.434 . S
C2511 C2512 1.369 . S
C2511 C2513 1.419 . S
C2511 H2515 0.930 . S
C2512 C2511 1.369 . S
C2512 C2521 1.429 . S
C2513 C2511 1.419 . S
C2513 C2514 1.363 . S
C2513 H2516 0.929 . S
C2514 C2513 1.363 . S
C2514 C2520 1.428 . S
H2515 C2511 0.930 . S
H2516 C2513 0.929 . S
S2517 N2518 1.613 . S
S2517 N2519 1.610 . S
N2518 S2517 1.613 . S
N2518 C2521 1.350 . S
N2519 S2517 1.610 . S
N2519 C2520 1.351 . S
C2520 C2514 1.428 . S
C2520 N2519 1.351 . S
C2520 C2521 1.434 . S
C2521 C2512 1.429 . S
C2521 N2518 1.350 . S
C2521 C2520 1.434 . S
C2522 C2523 1.369 . S
C2522 C2524 1.419 . S
C2522 H2526 0.930 . S
C2523 C2522 1.369 . S
C2523 C2532 1.429 . S
C2524 C2522 1.419 . S
C2524 C2525 1.363 . S
C2524 H2527 0.929 . S
C2525 C2524 1.363 . S
C2525 C2531 1.428 . S
H2526 C2522 0.930 . S
H2527 C2524 0.929 . S
S2528 N2529 1.613 . S
S2528 N2530 1.610 . S
N2529 S2528 1.613 . S
N2529 C2532 1.350 . S
N2530 S2528 1.610 . S
N2530 C2531 1.351 . S
C2531 C2525 1.428 . S
C2531 N2530 1.351 . S
C2531 C2532 1.434 . S
C2532 C2523 1.429 . S
C2532 N2529 1.350 . S
C2532 C2531 1.434 . S
C2533 C2534 1.369 . S
C2533 C2535 1.419 . S
C2533 H2537 0.930 . S
C2534 C2533 1.369 . S
C2534 C2543 1.429 . S
C2535 C2533 1.419 . S
C2535 C2536 1.363 . S
C2535 H2538 0.929 . S
C2536 C2535 1.363 . S
C2536 C2542 1.428 . S
H2537 C2533 0.930 . S
H2538 C2535 0.929 . S
S2539 N2540 1.613 . S
S2539 N2541 1.610 . S
N2540 S2539 1.613 . S
N2540 C2543 1.350 . S
N2541 S2539 1.610 . S
N2541 C2542 1.351 . S
C2542 C2536 1.428 . S
C2542 N2541 1.351 . S
C2542 C2543 1.434 . S
C2543 C2534 1.429 . S
C2543 N2540 1.350 . S
C2543 C2542 1.434 . S
C2544 C2545 1.369 . S
C2544 C2546 1.419 . S
C2544 H2548 0.930 . S
C2545 C2544 1.369 . S
C2545 C2554 1.429 . S
C2546 C2544 1.419 . S
C2546 C2547 1.363 . S
C2546 H2549 0.929 . S
C2547 C2546 1.363 . S
C2547 C2553 1.428 . S
H2548 C2544 0.930 . S
H2549 C2546 0.929 . S
S2550 N2551 1.613 . S
S2550 N2552 1.610 . S
N2551 S2550 1.613 . S
N2551 C2554 1.350 . S
N2552 S2550 1.610 . S
N2552 C2553 1.351 . S
C2553 C2547 1.428 . S
C2553 N2552 1.351 . S
C2553 C2554 1.434 . S
C2554 C2545 1.429 . S
C2554 N2551 1.350 . S
C2554 C2553 1.434 . S
C2555 C2556 1.369 . S
C2555 C2557 1.419 . S
C2555 H2559 0.930 . S
C2556 C2555 1.369 . S
C2556 C2565 1.429 . S
C2557 C2555 1.419 . S
C2557 C2558 1.363 . S
C2557 H2560 0.929 . S
C2558 C2557 1.363 . S
C2558 C2564 1.428 . S
H2559 C2555 0.930 . S
H2560 C2557 0.929 . S
S2561 N2562 1.613 . S
S2561 N2563 1.610 . S
N2562 S2561 1.613 . S
N2562 C2565 1.350 . S
N2563 S2561 1.610 . S
N2563 C2564 1.351 . S
C2564 C2558 1.428 . S
C2564 N2563 1.351 . S
C2564 C2565 1.434 . S
C2565 C2556 1.429 . S
C2565 N2562 1.350 . S
C2565 C2564 1.434 . S
C2566 C2567 1.369 . S
C2566 C2568 1.419 . S
C2566 H2570 0.930 . S
C2567 C2566 1.369 . S
C2567 C2576 1.429 . S
C2568 C2566 1.419 . S
C2568 C2569 1.363 . S
C2568 H2571 0.929 . S
C2569 C2568 1.363 . S
C2569 C2575 1.428 . S
H2570 C2566 0.930 . S
H2571 C2568 0.929 . S
S2572 N2573 1.613 . S
S2572 N2574 1.610 . S
N2573 S2572 1.613 . S
N2573 C2576 1.350 . S
N2574 S2572 1.610 . S
N2574 C2575 1.351 . S
C2575 C2569 1.428 . S
C2575 N2574 1.351 . S
C2575 C2576 1.434 . S
C2576 C2567 1.429 . S
C2576 N2573 1.350 . S
C2576 C2575 1.434 . S
C2577 C2578 1.369 . S
C2577 C2579 1.419 . S
C2577 H2581 0.930 . S
C2578 C2577 1.369 . S
C2578 C2587 1.429 . S
C2579 C2577 1.419 . S
C2579 C2580 1.363 . S
C2579 H2582 0.929 . S
C2580 C2579 1.363 . S
C2580 C2586 1.428 . S
H2581 C2577 0.930 . S
H2582 C2579 0.929 . S
S2583 N2584 1.613 . S
S2583 N2585 1.610 . S
N2584 S2583 1.613 . S
N2584 C2587 1.350 . S
N2585 S2583 1.610 . S
N2585 C2586 1.351 . S
C2586 C2580 1.428 . S
C2586 N2585 1.351 . S
C2586 C2587 1.434 . S
C2587 C2578 1.429 . S
C2587 N2584 1.350 . S
C2587 C2586 1.434 . S
C2588 C2589 1.369 . S
C2588 C2590 1.419 . S
C2588 H2592 0.930 . S
C2589 C2588 1.369 . S
C2589 C2598 1.429 . S
C2590 C2588 1.419 . S
C2590 C2591 1.363 . S
C2590 H2593 0.929 . S
C2591 C2590 1.363 . S
C2591 C2597 1.428 . S
H2592 C2588 0.930 . S
H2593 C2590 0.929 . S
S2594 N2595 1.613 . S
S2594 N2596 1.610 . S
N2595 S2594 1.613 . S
N2595 C2598 1.350 . S
N2596 S2594 1.610 . S
N2596 C2597 1.351 . S
C2597 C2591 1.428 . S
C2597 N2596 1.351 . S
C2597 C2598 1.434 . S
C2598 C2589 1.429 . S
C2598 N2595 1.350 . S
C2598 C2597 1.434 . S
C2599 C2600 1.369 . S
C2599 C2601 1.419 . S
C2599 H2603 0.930 . S
C2600 C2599 1.369 . S
C2600 C2609 1.429 . S
C2601 C2599 1.419 . S
C2601 C2602 1.363 . S
C2601 H2604 0.929 . S
C2602 C2601 1.363 . S
C2602 C2608 1.428 . S
H2603 C2599 0.930 . S
H2604 C2601 0.929 . S
S2605 N2606 1.613 . S
S2605 N2607 1.610 . S
N2606 S2605 1.613 . S
N2606 C2609 1.350 . S
N2607 S2605 1.610 . S
N2607 C2608 1.351 . S
C2608 C2602 1.428 . S
C2608 N2607 1.351 . S
C2608 C2609 1.434 . S
C2609 C2600 1.429 . S
C2609 N2606 1.350 . S
C2609 C2608 1.434 . S
C2610 C2611 1.369 . S
C2610 C2612 1.419 . S
C2610 H2614 0.930 . S
C2611 C2610 1.369 . S
C2611 C2620 1.429 . S
C2612 C2610 1.419 . S
C2612 C2613 1.363 . S
C2612 H2615 0.929 . S
C2613 C2612 1.363 . S
C2613 C2619 1.428 . S
H2614 C2610 0.930 . S
H2615 C2612 0.929 . S
S2616 N2617 1.613 . S
S2616 N2618 1.610 . S
N2617 S2616 1.613 . S
N2617 C2620 1.350 . S
N2618 S2616 1.610 . S
N2618 C2619 1.351 . S
C2619 C2613 1.428 . S
C2619 N2618 1.351 . S
C2619 C2620 1.434 . S
C2620 C2611 1.429 . S
C2620 N2617 1.350 . S
C2620 C2619 1.434 . S
C2621 C2622 1.369 . S
C2621 C2623 1.419 . S
C2621 H2625 0.930 . S
C2622 C2621 1.369 . S
C2622 C2631 1.429 . S
C2623 C2621 1.419 . S
C2623 C2624 1.363 . S
C2623 H2626 0.929 . S
C2624 C2623 1.363 . S
C2624 C2630 1.428 . S
H2625 C2621 0.930 . S
H2626 C2623 0.929 . S
S2627 N2628 1.613 . S
S2627 N2629 1.610 . S
N2628 S2627 1.613 . S
N2628 C2631 1.350 . S
N2629 S2627 1.610 . S
N2629 C2630 1.351 . S
C2630 C2624 1.428 . S
C2630 N2629 1.351 . S
C2630 C2631 1.434 . S
C2631 C2622 1.429 . S
C2631 N2628 1.350 . S
C2631 C2630 1.434 . S
C1579 N1036 1.499 . S
C1577 C29 1.500 . S
C1590 C1063 1.619 . S
C1588 C61 1.600 . S
C1599 C93 1.525 . S
C1601 C1077 1.541 . S
C1612 N1095 1.450 . S
C1610 C119 1.474 . S
C1621 C157 1.575 . S
C1623 C1100 1.619 . S
C1632 C177 1.499 . S
C1634 C1040 1.523 . S
C1643 C221 1.441 . S
C1645 N1059 1.408 . S
C1656 N1072 1.478 . S
C1654 C253 1.502 . S
C1667 N1118 1.400 . S
C1665 C17 1.408 . S
C1676 C55 1.494 . S
C1678 N1141 1.489 . S
C1687 C87 1.551 . S
C1689 N1164 1.544 . S
C1700 N1197 1.423 . S
C1698 C113 1.454 . S
C1709 C145 1.506 . S
C1711 C1224 1.524 . S
C1722 C1247 1.558 . S
C1720 C183 1.534 . S
C1731 C215 1.510 . S
C1733 C1270 1.522 . S
C1744 C1284 1.411 . S
C1742 C247 1.403 . S
C1753 C23 1.404 . S
C1755 C1201 1.457 . S
C1764 C151 1.434 . S
C1766 N1243 1.431 . S
C1777 N1266 1.458 . S
C1775 C189 1.454 . S
C1786 C209 1.472 . S
C1788 N1279 1.443 . S
C1799 N1220 1.437 . S
C1797 C241 1.479 . S
C1810 C1146 1.655 . S
C1808 C81 1.643 . S
C1819 C125 1.524 . S
C1821 C1169 1.534 . S
C1832 C1123 1.620 . S
C1830 C49 1.601 . S
C1843 C1316 1.510 . S
C1841 C285 1.452 . S
C1852 C317 1.594 . S
C1854 C1330 1.621 . S
C1863 C349 1.519 . S
C1865 N1358 1.471 . S
C1876 N1371 1.440 . S
C1874 C375 1.459 . S
C1885 C413 1.583 . S
C1887 C1376 1.629 . S
C1896 C433 1.490 . S
C1898 N1312 1.461 . S
C1907 C477 1.528 . S
C1909 N1325 1.512 . S
C1918 C509 1.476 . S
C1920 C1362 1.478 . S
C1931 N1210 1.409 . S
C1929 C273 1.412 . S
C1940 C311 1.464 . S
C1942 N1394 1.440 . S
C1953 N1256 1.448 . S
C1951 C343 1.462 . S
C1962 C369 1.501 . S
C1964 C1431 1.525 . S
C1973 C401 1.536 . S
C1975 C1132 1.564 . S
C1986 C1445 1.588 . S
C1984 C439 1.548 . S
C1995 C471 1.530 . S
C1997 C1178 1.533 . S
C2008 N1463 1.382 . S
C2006 C503 1.402 . S
C2017 C279 1.418 . S
C2019 N1427 1.412 . S
C2030 N1440 1.479 . S
C2028 C407 1.461 . S
C2039 C445 1.455 . S
C2041 N1174 1.458 . S
C2052 C1468 1.445 . S
C2050 C465 1.431 . S
C2061 C497 1.453 . S
C2063 N1128 1.418 . S
C2072 C337 1.550 . S
C2074 C1399 1.563 . S
C2083 C381 1.577 . S
C2085 C1261 1.585 . S
C2094 C305 1.583 . S
C2096 C1215 1.604 . S
C2105 C541 1.513 . S
C2107 C1353 1.570 . S
C2118 C1385 1.561 . S
C2116 C573 1.541 . S
C2127 C605 1.489 . S
C2129 N1302 1.472 . S
C2138 C631 1.446 . S
C2140 N1335 1.412 . S
C2149 C669 1.589 . S
C2151 C1339 1.633 . S
C2160 C689 1.529 . S
C2162 N1348 1.528 . S
C2173 N1381 1.372 . S
C2171 C733 1.426 . S
C2182 C765 1.503 . S
C2184 C1307 1.523 . S
C2195 N1496 1.430 . S
C2193 C529 1.430 . S
C2204 C567 1.416 . S
C2206 N1233 1.409 . S
C2217 N1519 1.380 . S
C2215 C599 1.424 . S
C2226 C625 1.474 . S
C2228 N1289 1.463 . S
C2237 C657 1.514 . S
C2239 C1537 1.543 . S
C2248 C695 1.602 . S
C2250 C1155 1.643 . S
C2261 N1555 1.390 . S
C2259 C727 1.423 . S
C2270 C759 1.456 . S
C2272 C1192 1.462 . S
C2283 C1293 1.487 . S
C2281 C535 1.435 . S
C2294 N1151 1.480 . S
C2292 C663 1.486 . S
C2303 C701 1.550 . S
C2305 C1560 1.591 . S
C2314 C721 1.404 . S
C2316 N1187 1.359 . S
C2327 N1532 1.507 . S
C2325 C753 1.512 . S
C2338 C1238 1.564 . S
C2336 C593 1.547 . S
C2349 C1523 1.596 . S
C2347 C637 1.585 . S
C2360 C1500 1.590 . S
C2358 C561 1.556 . S
C2369 C797 1.404 . S
C2371 N1082 1.418 . S
C2380 C829 1.566 . S
C2382 C1109 1.583 . S
C2393 C1031 1.569 . S
C2391 C861 1.547 . S
C2404 N1049 1.387 . S
C2402 C887 1.414 . S
C2415 C1054 1.639 . S
C2413 C925 1.589 . S
C2426 C1086 1.550 . S
C2424 C945 1.514 . S
C2437 N1105 1.499 . S
C2435 C989 1.539 . S
C2446 C1021 1.542 . S
C2448 N1026 1.511 . S
C2457 C785 1.352 . S
C2459 N1542 1.353 . S
C2470 N1450 1.446 . S
C2468 C823 1.454 . S
C2481 C1569 1.594 . S
C2479 C855 1.571 . S
C2492 C1477 1.392 . S
C2490 C881 1.389 . S
C2501 C913 1.524 . S
C2503 C1491 1.560 . S
C2514 C1408 1.567 . S
C2512 C951 1.540 . S
C2525 C1514 1.644 . S
C2523 C983 1.632 . S
C2534 C1015 1.458 . S
C2536 N1417 1.422 . S
C2547 N1473 1.341 . S
C2545 C791 1.347 . S
C2558 N1404 1.435 . S
C2556 C919 1.440 . S
C2569 N1509 1.413 . S
C2567 C957 1.412 . S
C2578 C977 1.502 . S
C2580 C1422 1.512 . S
C2589 C1009 1.467 . S
C2591 N1486 1.439 . S
C2600 C849 1.641 . S
C2602 C1454 1.656 . S
C2611 C893 1.440 . S
C2613 N1565 1.411 . S
C2624 C1546 1.561 . S
C2622 C817 1.541 . S
