# Generated by pormake.
# Topology ptr, (4,4)-cn, num edge types: 1
# Building blocks:
#     Node 0, Type 0, BuildingBlock: KUFVIS_clean_sbu_0, # of connection points: 4
#     Node 1, Type 0, BuildingBlock: KUFVIS_clean_sbu_0, # of connection points: 4
#     Node 2, Type 0, BuildingBlock: KUFVIS_clean_sbu_0, # of connection points: 4
#     Node 3, Type 0, BuildingBlock: KUFVIS_clean_sbu_0, # of connection points: 4
#     Node 4, Type 0, BuildingBlock: KUFVIS_clean_sbu_0, # of connection points: 4
#     Node 5, Type 0, BuildingBlock: KUFVIS_clean_sbu_0, # of connection points: 4
#     Node 6, Type 0, BuildingBlock: KUFVIS_clean_sbu_0, # of connection points: 4
#     Node 7, Type 0, BuildingBlock: KUFVIS_clean_sbu_0, # of connection points: 4
#     Node 8, Type 0, BuildingBlock: KUFVIS_clean_sbu_0, # of connection points: 4
#     Node 9, Type 0, BuildingBlock: KUFVIS_clean_sbu_0, # of connection points: 4
#     Node 10, Type 0, BuildingBlock: KUFVIS_clean_sbu_0, # of connection points: 4
#     Node 11, Type 0, BuildingBlock: KUFVIS_clean_sbu_0, # of connection points: 4
#     Node 12, Type 0, BuildingBlock: KUFVIS_clean_sbu_0, # of connection points: 4
#     Node 13, Type 0, BuildingBlock: KUFVIS_clean_sbu_0, # of connection points: 4
#     Node 14, Type 0, BuildingBlock: KUFVIS_clean_sbu_0, # of connection points: 4
#     Node 15, Type 0, BuildingBlock: KUFVIS_clean_sbu_0, # of connection points: 4
#     Node 16, Type 0, BuildingBlock: KUFVIS_clean_sbu_0, # of connection points: 4
#     Node 17, Type 0, BuildingBlock: KUFVIS_clean_sbu_0, # of connection points: 4
#     Node 18, Type 1, BuildingBlock: AZAVOO_clean_linker_0, # of connection points: 4
#     Node 19, Type 1, BuildingBlock: AZAVOO_clean_linker_0, # of connection points: 4
#     Node 20, Type 1, BuildingBlock: AZAVOO_clean_linker_0, # of connection points: 4
#     Node 21, Type 1, BuildingBlock: AZAVOO_clean_linker_0, # of connection points: 4
#     Node 22, Type 1, BuildingBlock: AZAVOO_clean_linker_0, # of connection points: 4
#     Node 23, Type 1, BuildingBlock: AZAVOO_clean_linker_0, # of connection points: 4
#     Node 24, Type 1, BuildingBlock: AZAVOO_clean_linker_0, # of connection points: 4
#     Node 25, Type 1, BuildingBlock: AZAVOO_clean_linker_0, # of connection points: 4
#     Node 26, Type 1, BuildingBlock: AZAVOO_clean_linker_0, # of connection points: 4
#     Node 27, Type 1, BuildingBlock: AZAVOO_clean_linker_0, # of connection points: 4
#     Node 28, Type 1, BuildingBlock: AZAVOO_clean_linker_0, # of connection points: 4
#     Node 29, Type 1, BuildingBlock: AZAVOO_clean_linker_0, # of connection points: 4
#     Node 30, Type 1, BuildingBlock: AZAVOO_clean_linker_0, # of connection points: 4
#     Node 31, Type 1, BuildingBlock: AZAVOO_clean_linker_0, # of connection points: 4
#     Node 32, Type 1, BuildingBlock: AZAVOO_clean_linker_0, # of connection points: 4
#     Node 33, Type 1, BuildingBlock: AZAVOO_clean_linker_0, # of connection points: 4
#     Node 34, Type 1, BuildingBlock: AZAVOO_clean_linker_0, # of connection points: 4
#     Node 35, Type 1, BuildingBlock: AZAVOO_clean_linker_0, # of connection points: 4
#     Edge 36, Type (0, 1), BuildingBlock: KIFKEQ_clean_linker_1, # of connection points: 2
#     Edge 37, Type (0, 1), BuildingBlock: KIFKEQ_clean_linker_1, # of connection points: 2
#     Edge 38, Type (0, 1), BuildingBlock: KIFKEQ_clean_linker_1, # of connection points: 2
#     Edge 39, Type (0, 1), BuildingBlock: KIFKEQ_clean_linker_1, # of connection points: 2
#     Edge 40, Type (0, 1), BuildingBlock: KIFKEQ_clean_linker_1, # of connection points: 2
#     Edge 41, Type (0, 1), BuildingBlock: KIFKEQ_clean_linker_1, # of connection points: 2
#     Edge 42, Type (0, 1), BuildingBlock: KIFKEQ_clean_linker_1, # of connection points: 2
#     Edge 43, Type (0, 1), BuildingBlock: KIFKEQ_clean_linker_1, # of connection points: 2
#     Edge 44, Type (0, 1), BuildingBlock: KIFKEQ_clean_linker_1, # of connection points: 2
#     Edge 45, Type (0, 1), BuildingBlock: KIFKEQ_clean_linker_1, # of connection points: 2
#     Edge 46, Type (0, 1), BuildingBlock: KIFKEQ_clean_linker_1, # of connection points: 2
#     Edge 47, Type (0, 1), BuildingBlock: KIFKEQ_clean_linker_1, # of connection points: 2
#     Edge 48, Type (0, 1), BuildingBlock: KIFKEQ_clean_linker_1, # of connection points: 2
#     Edge 49, Type (0, 1), BuildingBlock: KIFKEQ_clean_linker_1, # of connection points: 2
#     Edge 50, Type (0, 1), BuildingBlock: KIFKEQ_clean_linker_1, # of connection points: 2
#     Edge 51, Type (0, 1), BuildingBlock: KIFKEQ_clean_linker_1, # of connection points: 2
#     Edge 52, Type (0, 1), BuildingBlock: KIFKEQ_clean_linker_1, # of connection points: 2
#     Edge 53, Type (0, 1), BuildingBlock: KIFKEQ_clean_linker_1, # of connection points: 2
#     Edge 54, Type (0, 1), BuildingBlock: KIFKEQ_clean_linker_1, # of connection points: 2
#     Edge 55, Type (0, 1), BuildingBlock: KIFKEQ_clean_linker_1, # of connection points: 2
#     Edge 56, Type (0, 1), BuildingBlock: KIFKEQ_clean_linker_1, # of connection points: 2
#     Edge 57, Type (0, 1), BuildingBlock: KIFKEQ_clean_linker_1, # of connection points: 2
#     Edge 58, Type (0, 1), BuildingBlock: KIFKEQ_clean_linker_1, # of connection points: 2
#     Edge 59, Type (0, 1), BuildingBlock: KIFKEQ_clean_linker_1, # of connection points: 2
#     Edge 60, Type (0, 1), BuildingBlock: KIFKEQ_clean_linker_1, # of connection points: 2
#     Edge 61, Type (0, 1), BuildingBlock: KIFKEQ_clean_linker_1, # of connection points: 2
#     Edge 62, Type (0, 1), BuildingBlock: KIFKEQ_clean_linker_1, # of connection points: 2
#     Edge 63, Type (0, 1), BuildingBlock: KIFKEQ_clean_linker_1, # of connection points: 2
#     Edge 64, Type (0, 1), BuildingBlock: KIFKEQ_clean_linker_1, # of connection points: 2
#     Edge 65, Type (0, 1), BuildingBlock: KIFKEQ_clean_linker_1, # of connection points: 2
#     Edge 66, Type (0, 1), BuildingBlock: KIFKEQ_clean_linker_1, # of connection points: 2
#     Edge 67, Type (0, 1), BuildingBlock: KIFKEQ_clean_linker_1, # of connection points: 2
#     Edge 68, Type (0, 1), BuildingBlock: KIFKEQ_clean_linker_1, # of connection points: 2
#     Edge 69, Type (0, 1), BuildingBlock: KIFKEQ_clean_linker_1, # of connection points: 2
#     Edge 70, Type (0, 1), BuildingBlock: KIFKEQ_clean_linker_1, # of connection points: 2
#     Edge 71, Type (0, 1), BuildingBlock: KIFKEQ_clean_linker_1, # of connection points: 2
#     Edge 72, Type (0, 1), BuildingBlock: KIFKEQ_clean_linker_1, # of connection points: 2
#     Edge 73, Type (0, 1), BuildingBlock: KIFKEQ_clean_linker_1, # of connection points: 2
#     Edge 74, Type (0, 1), BuildingBlock: KIFKEQ_clean_linker_1, # of connection points: 2
#     Edge 75, Type (0, 1), BuildingBlock: KIFKEQ_clean_linker_1, # of connection points: 2
#     Edge 76, Type (0, 1), BuildingBlock: KIFKEQ_clean_linker_1, # of connection points: 2
#     Edge 77, Type (0, 1), BuildingBlock: KIFKEQ_clean_linker_1, # of connection points: 2
#     Edge 78, Type (0, 1), BuildingBlock: KIFKEQ_clean_linker_1, # of connection points: 2
#     Edge 79, Type (0, 1), BuildingBlock: KIFKEQ_clean_linker_1, # of connection points: 2
#     Edge 80, Type (0, 1), BuildingBlock: KIFKEQ_clean_linker_1, # of connection points: 2
#     Edge 81, Type (0, 1), BuildingBlock: KIFKEQ_clean_linker_1, # of connection points: 2
#     Edge 82, Type (0, 1), BuildingBlock: KIFKEQ_clean_linker_1, # of connection points: 2
#     Edge 83, Type (0, 1), BuildingBlock: KIFKEQ_clean_linker_1, # of connection points: 2
#     Edge 84, Type (0, 1), BuildingBlock: KIFKEQ_clean_linker_1, # of connection points: 2
#     Edge 85, Type (0, 1), BuildingBlock: KIFKEQ_clean_linker_1, # of connection points: 2
#     Edge 86, Type (0, 1), BuildingBlock: KIFKEQ_clean_linker_1, # of connection points: 2
#     Edge 87, Type (0, 1), BuildingBlock: KIFKEQ_clean_linker_1, # of connection points: 2
#     Edge 88, Type (0, 1), BuildingBlock: KIFKEQ_clean_linker_1, # of connection points: 2
#     Edge 89, Type (0, 1), BuildingBlock: KIFKEQ_clean_linker_1, # of connection points: 2
#     Edge 90, Type (0, 1), BuildingBlock: KIFKEQ_clean_linker_1, # of connection points: 2
#     Edge 91, Type (0, 1), BuildingBlock: KIFKEQ_clean_linker_1, # of connection points: 2
#     Edge 92, Type (0, 1), BuildingBlock: KIFKEQ_clean_linker_1, # of connection points: 2
#     Edge 93, Type (0, 1), BuildingBlock: KIFKEQ_clean_linker_1, # of connection points: 2
#     Edge 94, Type (0, 1), BuildingBlock: KIFKEQ_clean_linker_1, # of connection points: 2
#     Edge 95, Type (0, 1), BuildingBlock: KIFKEQ_clean_linker_1, # of connection points: 2
#     Edge 96, Type (0, 1), BuildingBlock: KIFKEQ_clean_linker_1, # of connection points: 2
#     Edge 97, Type (0, 1), BuildingBlock: KIFKEQ_clean_linker_1, # of connection points: 2
#     Edge 98, Type (0, 1), BuildingBlock: KIFKEQ_clean_linker_1, # of connection points: 2
#     Edge 99, Type (0, 1), BuildingBlock: KIFKEQ_clean_linker_1, # of connection points: 2
#     Edge 100, Type (0, 1), BuildingBlock: KIFKEQ_clean_linker_1, # of connection points: 2
#     Edge 101, Type (0, 1), BuildingBlock: KIFKEQ_clean_linker_1, # of connection points: 2
#     Edge 102, Type (0, 1), BuildingBlock: KIFKEQ_clean_linker_1, # of connection points: 2
#     Edge 103, Type (0, 1), BuildingBlock: KIFKEQ_clean_linker_1, # of connection points: 2
#     Edge 104, Type (0, 1), BuildingBlock: KIFKEQ_clean_linker_1, # of connection points: 2
#     Edge 105, Type (0, 1), BuildingBlock: KIFKEQ_clean_linker_1, # of connection points: 2
#     Edge 106, Type (0, 1), BuildingBlock: KIFKEQ_clean_linker_1, # of connection points: 2
#     Edge 107, Type (0, 1), BuildingBlock: KIFKEQ_clean_linker_1, # of connection points: 2
# Relax obj value: 0.057
# Max RMSD: 0.199
# Mean RMSD: 0.130
data_MOF--net-ptr--node1-KUFVIS_clean_sbu_0--node2-AZAVOO_clean_linker_0--edge1-KIFKEQ_clean_linker_1
_symmetry_space_group_name_H-M    P1
_symmetry_Int_Tables_number       1
_symmetry_cell_setting            triclinic
loop_
_symmetry_equiv_pos_as_xyz
'x, y, z'
_cell_length_a     82.844561
_cell_length_b     81.143755
_cell_length_c     70.028332
_cell_angle_alpha  92.330402
_cell_angle_beta   92.964778
_cell_angle_gamma 119.54355
loop_
_atom_site_label
_atom_site_type_symbol
_atom_site_fract_x
_atom_site_fract_y
_atom_site_fract_z
_atom_type_partial_charge
Mn0 Mn 0.00379 0.36664 0.01687 0.0
Mn1 Mn 0.04375 0.40873 0.0183 0.0
C2 C 0.00722 0.38794 0.99449 0.0
C3 C 0.98636 0.33444 0.00712 0.0
C4 C 0.01332 0.40091 0.04473 0.0
O5 O 0.02148 0.36247 0.03451 0.0
O6 O 0.04763 0.39052 0.03328 0.0
C7 C 0.06508 0.39541 0.99598 0.0
N8 N 0.05823 0.40747 0.9985 0.0
C9 C 0.07186 0.42338 0.97048 0.0
C10 C 0.07916 0.41121 0.96764 0.0
C11 C 0.07571 0.39713 0.98042 0.0
C12 C 0.06131 0.42094 0.9862 0.0
H13 H 0.06243 0.38456 0.00574 0.0
C14 C 0.03875 0.37377 0.03903 0.0
O15 O 0.98254 0.34163 0.02195 0.0
O16 O 0.00061 0.34589 0.99824 0.0
N17 N 0.04251 0.42799 0.00447 0.0
C18 C 0.0345 0.43861 0.00925 0.0
C19 C 0.03679 0.45345 0.99802 0.0
C20 C 0.04749 0.45739 0.98216 0.0
C21 C 0.05585 0.44649 0.97771 0.0
C22 C 0.05324 0.43201 0.98953 0.0
H23 H 0.0264 0.43576 0.02153 0.0
O24 O 0.99079 0.37454 0.99776 0.0
O25 O 0.02128 0.3882 0.004 0.0
O26 O 0.00217 0.38389 0.03793 0.0
O27 O 0.02934 0.41132 0.03869 0.0
C28 C 0.06659 0.44935 0.96193 0.0
C29 C 0.07451 0.43773 0.95826 0.0
H30 H 0.08737 0.41249 0.95566 0.0
H31 H 0.08124 0.38764 0.97828 0.0
H32 H 0.03035 0.46185 0.00159 0.0
H33 H 0.04925 0.46886 0.97354 0.0
H34 H 0.06873 0.46034 0.95244 0.0
H35 H 0.0826 0.43996 0.94599 0.0
Mn36 Mn 0.63069 0.62357 0.06632 0.0
Mn37 Mn 0.62954 0.58137 0.06383 0.0
C38 C 0.61252 0.60056 0.08602 0.0
C39 C 0.64479 0.65524 0.07799 0.0
C40 C 0.60853 0.59192 0.03457 0.0
O41 O 0.65299 0.62881 0.05166 0.0
O42 O 0.65221 0.60072 0.05229 0.0
C43 C 0.66243 0.59201 0.09083 0.0
N44 N 0.64393 0.58058 0.08563 0.0
C45 C 0.64006 0.56257 0.11318 0.0
C46 C 0.6591 0.57407 0.11876 0.0
C47 C 0.67032 0.58888 0.10755 0.0
C48 C 0.633 0.56635 0.09635 0.0
H49 H 0.67108 0.60347 0.0823 0.0
C50 C 0.65968 0.618 0.04783 0.0
O51 O 0.63433 0.64916 0.06197 0.0
O52 O 0.64714 0.64293 0.08721 0.0
N53 N 0.60859 0.56131 0.07448 0.0
C54 C 0.59041 0.5518 0.06735 0.0
C55 C 0.5773 0.53665 0.07699 0.0
C56 C 0.58302 0.53134 0.09375 0.0
C57 C 0.60185 0.54115 0.10064 0.0
C58 C 0.61431 0.556 0.09032 0.0
H59 H 0.58591 0.55583 0.05451 0.0
O60 O 0.60929 0.6143 0.08257 0.0
O61 O 0.6266 0.60092 0.07816 0.0
O62 O 0.61333 0.60821 0.04269 0.0
O63 O 0.61393 0.58079 0.0411 0.0
C64 C 0.60869 0.53695 0.1175 0.0
C65 C 0.62778 0.54769 0.12379 0.0
H66 H 0.66523 0.57175 0.13168 0.0
H67 H 0.68501 0.59787 0.11181 0.0
H68 H 0.56279 0.52914 0.07156 0.0
H69 H 0.57284 0.51977 0.10124 0.0
H70 H 0.59936 0.52562 0.12585 0.0
H71 H 0.63284 0.54445 0.13688 0.0
Mn72 Mn 0.37475 0.99302 0.02612 0.0
Mn73 Mn 0.41659 0.03315 0.02973 0.0
C74 C 0.39781 0.99678 0.04884 0.0
C75 C 0.34429 0.97701 0.03515 0.0
C76 C 0.40466 0.00157 0.99813 0.0
O77 O 0.36955 0.01122 0.01155 0.0
O78 O 0.39752 0.03787 0.01644 0.0
C79 C 0.4083 0.05692 0.05615 0.0
N80 N 0.41882 0.04881 0.05197 0.0
C81 C 0.43823 0.06273 0.08142 0.0
C82 C 0.42769 0.07134 0.08597 0.0
C83 C 0.41264 0.06839 0.0733 0.0
C84 C 0.43336 0.05158 0.06404 0.0
H85 H 0.39667 0.05463 0.04649 0.0
C86 C 0.38035 0.02889 0.00991 0.0
O87 O 0.34871 0.97158 0.01951 0.0
O88 O 0.35742 0.99166 0.04527 0.0
N89 N 0.43616 0.03064 0.04258 0.0
C90 C 0.44389 0.02003 0.03687 0.0
C91 C 0.45867 0.02074 0.04835 0.0
C92 C 0.46534 0.03236 0.06557 0.0
C93 C 0.45716 0.04317 0.07115 0.0
C94 C 0.44259 0.04202 0.05903 0.0
H95 H 0.43865 0.01086 0.02381 0.0
O96 O 0.38419 0.97995 0.04324 0.0
O97 O 0.39747 0.01086 0.04099 0.0
O98 O 0.38867 0.99021 0.00373 0.0
O99 O 0.41584 0.01783 0.00672 0.0
C100 C 0.46256 0.05462 0.08852 0.0
C101 C 0.4531 0.0644 0.09365 0.0
H102 H 0.43089 0.08007 0.09926 0.0
H103 H 0.40437 0.0749 0.07677 0.0
H104 H 0.4648 0.01224 0.04402 0.0
H105 H 0.47657 0.03268 0.07451 0.0
H106 H 0.47374 0.05573 0.0982 0.0
H107 H 0.45718 0.07291 0.10718 0.0
Mn108 Mn 0.99583 0.63936 0.03655 0.0
Mn109 Mn 0.03515 0.63655 0.04214 0.0
C110 C 0.00044 0.61964 0.01563 0.0
C111 C 0.97965 0.65365 0.02366 0.0
C112 C 0.00255 0.61598 0.06615 0.0
O113 O 0.01276 0.66277 0.05424 0.0
O114 O 0.03817 0.65944 0.05715 0.0
C115 C 0.05938 0.6706 0.02211 0.0
N116 N 0.05186 0.65163 0.02406 0.0
C117 C 0.06839 0.64831 0.99828 0.0
C118 C 0.07643 0.66783 0.99608 0.0
C119 C 0.07186 0.679 0.00802 0.0
C120 C 0.0561 0.64074 0.01261 0.0
H121 H 0.05589 0.67923 0.03122 0.0
C122 C 0.02938 0.66831 0.06097 0.0
O123 O 0.97445 0.64405 0.03874 0.0
O124 O 0.99445 0.65532 0.0165 0.0
N125 N 0.03464 0.61535 0.02846 0.0
C126 C 0.02489 0.59658 0.03168 0.0
C127 C 0.02751 0.58339 0.02063 0.0
C128 C 0.04024 0.58964 0.00648 0.0
C129 C 0.05026 0.60904 0.00354 0.0
C130 C 0.04715 0.62155 0.01509 0.0
H131 H 0.01494 0.59167 0.04239 0.0
O132 O 0.98379 0.61677 0.01766 0.0
O133 O 0.01401 0.63413 0.02576 0.0
O134 O 0.99241 0.62226 0.05873 0.0
O135 O 0.01861 0.62028 0.06084 0.0
C136 C 0.06284 0.61641 0.98926 0.0
C137 C 0.07187 0.63602 0.98661 0.0
H138 H 0.086 0.67436 0.98518 0.0
H139 H 0.07793 0.69407 0.00635 0.0
H140 H 0.01965 0.56843 0.02291 0.0
H141 H 0.04206 0.5794 0.99782 0.0
H142 H 0.06545 0.60707 0.98005 0.0
H143 H 0.08132 0.64147 0.9754 0.0
Mn144 Mn 0.36998 0.37978 0.01726 0.0
Mn145 Mn 0.40833 0.37528 0.01816 0.0
C146 C 0.39461 0.39793 0.03985 0.0
C147 C 0.34009 0.3685 0.02746 0.0
C148 C 0.39952 0.397 0.9887 0.0
O149 O 0.36154 0.35533 0.00066 0.0
O150 O 0.38673 0.35176 0.0055 0.0
C151 C 0.3975 0.34446 0.04439 0.0
N152 N 0.40969 0.36236 0.03987 0.0
C153 C 0.43025 0.36747 0.06779 0.0
C154 C 0.41802 0.349 0.07263 0.0
C155 C 0.40153 0.33748 0.06092 0.0
C156 C 0.42554 0.37361 0.05109 0.0
H157 H 0.38477 0.33561 0.03548 0.0
C158 C 0.36994 0.34582 0.99873 0.0
O159 O 0.34503 0.37803 0.01229 0.0
O160 O 0.35235 0.36546 0.03632 0.0
N161 N 0.43022 0.39691 0.03024 0.0
C162 C 0.4398 0.41482 0.02436 0.0
C163 C 0.45621 0.42841 0.03502 0.0
C164 C 0.4627 0.42341 0.05149 0.0
C165 C 0.45269 0.40485 0.05717 0.0
C166 C 0.43645 0.39189 0.04595 0.0
H167 H 0.43491 0.41876 0.01171 0.0
O168 O 0.38219 0.40283 0.03573 0.0
O169 O 0.39198 0.38234 0.03093 0.0
O170 O 0.38486 0.3955 0.99555 0.0
O171 O 0.40846 0.3892 0.99568 0.0
C172 C 0.458 0.39879 0.07372 0.0
C173 C 0.44675 0.38014 0.07907 0.0
H174 H 0.42103 0.3436 0.08543 0.0
H175 H 0.39195 0.32327 0.06464 0.0
H176 H 0.46384 0.44272 0.03057 0.0
H177 H 0.47529 0.43397 0.05975 0.0
H178 H 0.47055 0.40846 0.0826 0.0
H179 H 0.4508 0.37577 0.09203 0.0
Mn180 Mn 0.624 0.01071 0.04295 0.0
Mn181 Mn 0.584 0.96883 0.04023 0.0
C182 C 0.59933 0.00569 0.02192 0.0
C183 C 0.65373 0.02839 0.03253 0.0
C184 C 0.59614 0.99906 0.07336 0.0
O185 O 0.63138 0.9932 0.05589 0.0
O186 O 0.60479 0.9651 0.05028 0.0
C187 C 0.59149 0.94739 0.01013 0.0
N188 N 0.58079 0.95453 0.01659 0.0
C189 C 0.5597 0.94156 0.98812 0.0
C190 C 0.57043 0.93396 0.98121 0.0
C191 C 0.58641 0.93691 0.99226 0.0
C192 C 0.56533 0.9517 0.00612 0.0
H193 H 0.60384 0.94971 0.01853 0.0
C194 C 0.62202 0.97518 0.0564 0.0
O195 O 0.64966 0.03299 0.04887 0.0
O196 O 0.64061 0.01367 0.02249 0.0
N197 N 0.563 0.97069 0.03041 0.0
C198 C 0.55504 0.98023 0.03843 0.0
C199 C 0.53939 0.97949 0.02877 0.0
C200 C 0.53207 0.96893 0.011 0.0
C201 C 0.54045 0.95916 0.00306 0.0
C202 C 0.55592 0.96029 0.01343 0.0
H203 H 0.56067 0.98845 0.05203 0.0
O204 O 0.61238 0.02287 0.02735 0.0
O205 O 0.60122 0.99215 0.029 0.0
O206 O 0.61069 0.01196 0.06651 0.0
O207 O 0.5858 0.98254 0.06488 0.0
C208 C 0.53433 0.94874 0.98506 0.0
C209 C 0.54393 0.93992 0.97761 0.0
H210 H 0.56667 0.92603 0.96735 0.0
H211 H 0.59483 0.93118 0.98698 0.0
H212 H 0.53304 0.98712 0.03495 0.0
H213 H 0.52012 0.96856 0.00349 0.0
H214 H 0.52244 0.94767 0.9767 0.0
H215 H 0.53927 0.9322 0.96362 0.0
Mn216 Mn 0.66695 0.70393 0.35089 0.0
Mn217 Mn 0.70722 0.74571 0.3535 0.0
C218 C 0.67129 0.7257 0.32872 0.0
C219 C 0.64964 0.67186 0.34058 0.0
C220 C 0.67655 0.73718 0.37993 0.0
O221 O 0.68427 0.69934 0.36876 0.0
O222 O 0.71107 0.72678 0.36713 0.0
C223 C 0.72886 0.73382 0.32989 0.0
N224 N 0.7218 0.74557 0.33329 0.0
C225 C 0.73542 0.76295 0.30599 0.0
C226 C 0.74294 0.7511 0.30225 0.0
C227 C 0.7396 0.73645 0.31423 0.0
C228 C 0.72482 0.75963 0.32179 0.0
H229 H 0.7263 0.72253 0.33905 0.0
C230 C 0.70174 0.71004 0.37284 0.0
O231 O 0.64545 0.67884 0.3553 0.0
O232 O 0.6641 0.68346 0.33208 0.0
N233 N 0.70568 0.76541 0.34084 0.0
C234 C 0.6971 0.77532 0.34618 0.0
C235 C 0.69906 0.79049 0.33568 0.0
C236 C 0.70993 0.79542 0.31993 0.0
C237 C 0.71875 0.78512 0.31479 0.0
C238 C 0.71646 0.77028 0.32592 0.0
H239 H 0.68884 0.77169 0.35837 0.0
O240 O 0.65463 0.71241 0.33149 0.0
O241 O 0.68491 0.72561 0.3387 0.0
O242 O 0.66492 0.72078 0.37204 0.0
O243 O 0.69291 0.74733 0.37454 0.0
C244 C 0.72958 0.7889 0.29898 0.0
C245 C 0.73784 0.77776 0.29453 0.0
H246 H 0.7512 0.75306 0.29017 0.0
H247 H 0.74528 0.72719 0.31139 0.0
H248 H 0.69223 0.79839 0.33975 0.0
H249 H 0.71143 0.80715 0.31189 0.0
H250 H 0.73148 0.8002 0.29002 0.0
H251 H 0.74597 0.78066 0.28221 0.0
Mn252 Mn 0.29841 0.9565 0.40074 0.0
Mn253 Mn 0.29449 0.913 0.39881 0.0
C254 C 0.27918 0.93417 0.42048 0.0
C255 C 0.3136 0.98835 0.41213 0.0
C256 C 0.27505 0.92489 0.3692 0.0
O257 O 0.32056 0.96033 0.38646 0.0
O258 O 0.31752 0.93122 0.38701 0.0
C259 C 0.32705 0.92233 0.42579 0.0
N260 N 0.30845 0.91163 0.42068 0.0
C261 C 0.30373 0.89369 0.44841 0.0
C262 C 0.32286 0.90443 0.45391 0.0
C263 C 0.33456 0.91884 0.44257 0.0
C264 C 0.29706 0.8978 0.43154 0.0
H265 H 0.33608 0.93347 0.41716 0.0
C266 C 0.32607 0.94852 0.38258 0.0
O267 O 0.30339 0.98246 0.39596 0.0
O268 O 0.31519 0.97573 0.42163 0.0
N269 N 0.27306 0.89383 0.40968 0.0
C270 C 0.25489 0.88497 0.40253 0.0
C271 C 0.24135 0.87022 0.41223 0.0
C272 C 0.24664 0.86462 0.42905 0.0
C273 C 0.26545 0.87375 0.43596 0.0
C274 C 0.27834 0.88822 0.42558 0.0
H275 H 0.25074 0.88921 0.38962 0.0
O276 O 0.2769 0.94844 0.41671 0.0
O277 O 0.29291 0.93356 0.41287 0.0
O278 O 0.28094 0.94155 0.37702 0.0
O279 O 0.2793 0.91303 0.37605 0.0
C280 C 0.27188 0.8692 0.45287 0.0
C281 C 0.291 0.87921 0.45912 0.0
H282 H 0.3287 0.90182 0.46687 0.0
H283 H 0.34932 0.92725 0.44677 0.0
H284 H 0.22687 0.86322 0.40678 0.0
H285 H 0.23615 0.85332 0.43655 0.0
H286 H 0.26222 0.85817 0.46127 0.0
H287 H 0.29576 0.87572 0.47224 0.0
Mn288 Mn 0.04189 0.32803 0.36021 0.0
Mn289 Mn 0.08276 0.36899 0.3656 0.0
C290 C 0.06566 0.33087 0.38141 0.0
C291 C 0.01173 0.31087 0.37007 0.0
C292 C 0.07071 0.34049 0.33076 0.0
O293 O 0.03601 0.34702 0.348 0.0
O294 O 0.06288 0.37434 0.35609 0.0
C295 C 0.07508 0.38867 0.39734 0.0
N296 N 0.08562 0.38162 0.39021 0.0
C297 C 0.10554 0.39152 0.41953 0.0
C298 C 0.09499 0.39903 0.42712 0.0
C299 C 0.07967 0.39757 0.41598 0.0
C300 C 0.10038 0.38293 0.40081 0.0
H301 H 0.0632 0.38744 0.38888 0.0
C302 C 0.04593 0.36511 0.3489 0.0
O303 O 0.01567 0.30671 0.35343 0.0
O304 O 0.02512 0.32495 0.38052 0.0
N305 N 0.10302 0.36566 0.375 0.0
C306 C 0.11109 0.35672 0.36598 0.0
C307 C 0.12631 0.3564 0.3754 0.0
C308 C 0.13309 0.3653 0.39395 0.0
C309 C 0.12463 0.37452 0.4029 0.0
C310 C 0.10964 0.37455 0.39272 0.0
H311 H 0.10592 0.34982 0.35174 0.0
O312 O 0.05214 0.31419 0.3752 0.0
O313 O 0.06462 0.34514 0.37508 0.0
O314 O 0.05572 0.32739 0.33681 0.0
O315 O 0.08112 0.3566 0.34008 0.0
C316 C 0.13026 0.38335 0.42164 0.0
C317 C 0.12071 0.39183 0.42996 0.0
H318 H 0.0984 0.40578 0.44155 0.0
H319 H 0.07138 0.40322 0.42179 0.0
H320 H 0.13274 0.34923 0.36841 0.0
H321 H 0.14469 0.36484 0.40126 0.0
H322 H 0.14175 0.38347 0.42989 0.0
H323 H 0.125 0.39833 0.44449 0.0
Mn324 Mn 0.66412 0.96565 0.37136 0.0
Mn325 Mn 0.70364 0.96314 0.37568 0.0
C326 C 0.66805 0.94526 0.35064 0.0
C327 C 0.64744 0.97941 0.35851 0.0
C328 C 0.67268 0.94476 0.40222 0.0
O329 O 0.68186 0.98973 0.38804 0.0
O330 O 0.70788 0.98733 0.38867 0.0
C331 C 0.7267 0.99449 0.35196 0.0
N332 N 0.71898 0.97588 0.35569 0.0
C333 C 0.73297 0.9693 0.32932 0.0
C334 C 0.74117 0.98843 0.32527 0.0
C335 C 0.73799 0.00106 0.33662 0.0
C336 C 0.72193 0.9636 0.34485 0.0
H337 H 0.72424 0.00423 0.36063 0.0
C338 C 0.69906 0.99604 0.3931 0.0
O339 O 0.6429 0.97048 0.37405 0.0
O340 O 0.66195 0.98081 0.35088 0.0
N341 N 0.70158 0.94049 0.3637 0.0
C342 C 0.6918 0.92231 0.36885 0.0
C343 C 0.69299 0.90778 0.35854 0.0
C344 C 0.70433 0.91212 0.34318 0.0
C345 C 0.71444 0.93097 0.3383 0.0
C346 C 0.71281 0.94486 0.34917 0.0
H347 H 0.68306 0.9189 0.38064 0.0
O348 O 0.65149 0.94238 0.35318 0.0
O349 O 0.68178 0.95999 0.36023 0.0
O350 O 0.66156 0.94947 0.39406 0.0
O351 O 0.68867 0.94936 0.39654 0.0
C352 C 0.72576 0.93645 0.32282 0.0
C353 C 0.735 0.95559 0.31832 0.0
H354 H 0.7498 0.99353 0.31338 0.0
H355 H 0.74419 0.01582 0.33352 0.0
H356 H 0.68513 0.89327 0.36238 0.0
H357 H 0.70506 0.90085 0.33513 0.0
H358 H 0.72722 0.92599 0.31409 0.0
H359 H 0.74343 0.95958 0.3062 0.0
Mn360 Mn 0.03453 0.71596 0.34781 0.0
Mn361 Mn 0.07553 0.71688 0.34531 0.0
C362 C 0.05938 0.7354 0.36962 0.0
C363 C 0.00504 0.70207 0.35951 0.0
C364 C 0.06185 0.73631 0.31799 0.0
O365 O 0.02771 0.69224 0.33049 0.0
O366 O 0.05518 0.69269 0.33248 0.0
C367 C 0.06935 0.68581 0.3699 0.0
N368 N 0.07958 0.70433 0.36596 0.0
C369 C 0.10155 0.71103 0.39305 0.0
C370 C 0.09131 0.692 0.39734 0.0
C371 C 0.07512 0.67935 0.38573 0.0
C372 C 0.09518 0.71662 0.37702 0.0
H373 H 0.05687 0.67607 0.36103 0.0
C374 C 0.03786 0.68489 0.32679 0.0
O375 O 0.00851 0.71167 0.34437 0.0
O376 O 0.01847 0.70018 0.36736 0.0
N377 N 0.09634 0.73955 0.35736 0.0
C378 C 0.10388 0.75769 0.35203 0.0
C379 C 0.11976 0.77225 0.36262 0.0
C380 C 0.1278 0.768 0.37846 0.0
C381 C 0.11987 0.74921 0.38357 0.0
C382 C 0.10409 0.73527 0.37243 0.0
H383 H 0.09775 0.76104 0.33988 0.0
O384 O 0.04565 0.73866 0.3667 0.0
O385 O 0.05799 0.72072 0.35987 0.0
O386 O 0.04713 0.73297 0.32601 0.0
O387 O 0.07286 0.7304 0.32368 0.0
C388 C 0.12678 0.74382 0.3995 0.0
C389 C 0.11761 0.72475 0.40427 0.0
H390 H 0.09566 0.68699 0.4096 0.0
H391 H 0.0671 0.66466 0.38901 0.0
H392 H 0.12578 0.78673 0.35861 0.0
H393 H 0.13996 0.7793 0.38668 0.0
H394 H 0.13898 0.75428 0.40836 0.0
H395 H 0.12287 0.72085 0.41674 0.0
Mn396 Mn 0.29171 0.34393 0.37847 0.0
Mn397 Mn 0.25202 0.30185 0.37721 0.0
C398 C 0.26659 0.33789 0.35756 0.0
C399 C 0.32115 0.36158 0.36733 0.0
C400 C 0.26445 0.33304 0.4094 0.0
O401 O 0.29964 0.32705 0.39197 0.0
O402 O 0.27319 0.29872 0.3872 0.0
C403 C 0.25898 0.27944 0.34772 0.0
N404 N 0.24837 0.28676 0.35403 0.0
C405 C 0.22648 0.27243 0.32626 0.0
C406 C 0.23712 0.26466 0.31951 0.0
C407 C 0.25345 0.2682 0.33028 0.0
C408 C 0.23257 0.28335 0.34384 0.0
H409 H 0.27157 0.28219 0.35592 0.0
C410 C 0.29048 0.30907 0.39298 0.0
O411 O 0.31727 0.36656 0.3836 0.0
O412 O 0.30802 0.34646 0.35781 0.0
N413 N 0.23071 0.3032 0.36749 0.0
C414 C 0.22288 0.31299 0.37525 0.0
C415 C 0.20692 0.31174 0.36576 0.0
C416 C 0.19916 0.30043 0.34845 0.0
C417 C 0.20743 0.29043 0.34078 0.0
C418 C 0.22324 0.29211 0.35095 0.0
H419 H 0.22883 0.32178 0.3885 0.0
O420 O 0.27951 0.35527 0.36243 0.0
O421 O 0.26884 0.32476 0.36514 0.0
O422 O 0.27876 0.34581 0.40211 0.0
O423 O 0.2542 0.31629 0.40143 0.0
C424 C 0.20086 0.27924 0.32323 0.0
C425 C 0.21036 0.27021 0.31599 0.0
H426 H 0.23301 0.25614 0.30598 0.0
H427 H 0.26179 0.26233 0.32511 0.0
H428 H 0.20066 0.31956 0.37173 0.0
H429 H 0.18696 0.29966 0.34107 0.0
H430 H 0.1887 0.27772 0.31502 0.0
H431 H 0.20534 0.26189 0.30233 0.0
Mn432 Mn 0.33557 0.03525 0.68195 0.0
Mn433 Mn 0.37734 0.07533 0.68434 0.0
C434 C 0.34105 0.05738 0.65994 0.0
C435 C 0.31685 0.00333 0.67183 0.0
C436 C 0.3474 0.0688 0.71117 0.0
O437 O 0.35198 0.02948 0.69977 0.0
O438 O 0.37998 0.05531 0.69731 0.0
C439 C 0.39684 0.06162 0.65956 0.0
N440 N 0.39104 0.07433 0.66362 0.0
C441 C 0.40497 0.0916 0.63635 0.0
C442 C 0.41124 0.07879 0.63198 0.0
C443 C 0.4071 0.0637 0.6436 0.0
C444 C 0.3948 0.08879 0.65244 0.0
H445 H 0.3936 0.04995 0.6684 0.0
C446 C 0.3696 0.0389 0.7033 0.0
O447 O 0.31336 0.01082 0.68668 0.0
O448 O 0.33137 0.01432 0.66305 0.0
N449 N 0.37706 0.09595 0.67229 0.0
C450 C 0.36956 0.10675 0.67817 0.0
C451 C 0.37232 0.12238 0.668 0.0
C452 C 0.38289 0.12685 0.65202 0.0
C453 C 0.39062 0.11565 0.64635 0.0
C454 C 0.38758 0.10038 0.65716 0.0
H455 H 0.36154 0.10349 0.69052 0.0
O456 O 0.32412 0.04475 0.66273 0.0
O457 O 0.35425 0.05634 0.66971 0.0
O458 O 0.33489 0.05287 0.70308 0.0
O459 O 0.36395 0.07788 0.70592 0.0
C460 C 0.40107 0.11893 0.63027 0.0
C461 C 0.40817 0.10686 0.62523 0.0
H462 H 0.41912 0.08032 0.61965 0.0
H463 H 0.41179 0.05369 0.64025 0.0
H464 H 0.36633 0.13098 0.67248 0.0
H465 H 0.38497 0.13891 0.64421 0.0
H466 H 0.40354 0.13055 0.62156 0.0
H467 H 0.41599 0.10938 0.6127 0.0
Mn468 Mn 0.96316 0.28798 0.73221 0.0
Mn469 Mn 0.96294 0.24622 0.73039 0.0
C470 C 0.94484 0.2647 0.75164 0.0
C471 C 0.97591 0.31945 0.7441 0.0
C472 C 0.942 0.2561 0.70039 0.0
O473 O 0.9861 0.29387 0.71835 0.0
O474 O 0.98556 0.26589 0.71912 0.0
C475 C 0.99564 0.25768 0.75796 0.0
N476 N 0.97725 0.24589 0.75252 0.0
C477 C 0.97339 0.22811 0.78024 0.0
C478 C 0.99233 0.23998 0.78608 0.0
C479 C 0.00348 0.25485 0.7749 0.0
C480 C 0.96637 0.23159 0.7632 0.0
H481 H 0.00424 0.26919 0.74947 0.0
C482 C 0.99302 0.28321 0.71477 0.0
O483 O 0.96608 0.31328 0.72771 0.0
O484 O 0.97866 0.30743 0.75341 0.0
N485 N 0.94206 0.2259 0.74087 0.0
C486 C 0.92397 0.21603 0.73349 0.0
C487 C 0.91092 0.20077 0.74306 0.0
C488 C 0.91663 0.19573 0.76001 0.0
C489 C 0.93537 0.20592 0.76717 0.0
C490 C 0.94778 0.22087 0.75691 0.0
H491 H 0.91948 0.21986 0.7205 0.0
O492 O 0.94122 0.2781 0.74777 0.0
O493 O 0.9593 0.2655 0.7443 0.0
O494 O 0.94655 0.27243 0.70823 0.0
O495 O 0.94744 0.24516 0.70735 0.0
C496 C 0.94218 0.20201 0.78424 0.0
C497 C 0.96117 0.21312 0.7908 0.0
H498 H 0.99841 0.23788 0.79917 0.0
H499 H 0.01808 0.26412 0.77936 0.0
H500 H 0.89648 0.19297 0.73743 0.0
H501 H 0.9065 0.18407 0.76745 0.0
H502 H 0.93289 0.19062 0.79255 0.0
H503 H 0.9662 0.21011 0.80404 0.0
Mn504 Mn 0.70658 0.65982 0.69179 0.0
Mn505 Mn 0.74624 0.70193 0.69407 0.0
C506 C 0.73194 0.66499 0.71194 0.0
C507 C 0.67727 0.6418 0.70327 0.0
C508 C 0.73373 0.672 0.66055 0.0
O509 O 0.6986 0.67727 0.67956 0.0
O510 O 0.72507 0.70549 0.68491 0.0
C511 C 0.73881 0.72239 0.72527 0.0
N512 N 0.7496 0.71563 0.71817 0.0
C513 C 0.77062 0.72755 0.74674 0.0
C514 C 0.75979 0.73475 0.75431 0.0
C515 C 0.74382 0.73214 0.74353 0.0
C516 C 0.76504 0.71811 0.7284 0.0
H517 H 0.72644 0.72028 0.7171 0.0
C518 C 0.70776 0.69532 0.67912 0.0
O519 O 0.68077 0.63742 0.6865 0.0
O520 O 0.69064 0.65655 0.71301 0.0
N521 N 0.76759 0.70028 0.70306 0.0
C522 C 0.77588 0.69149 0.69419 0.0
C523 C 0.79176 0.69228 0.70333 0.0
C524 C 0.79896 0.70208 0.72146 0.0
C525 C 0.79025 0.71109 0.73027 0.0
C526 C 0.77459 0.71002 0.72038 0.0
H527 H 0.77036 0.68385 0.6803 0.0
O528 O 0.71887 0.64778 0.70663 0.0
O529 O 0.7296 0.6784 0.70524 0.0
O530 O 0.7194 0.65898 0.66762 0.0
O531 O 0.7441 0.68856 0.669 0.0
C532 C 0.79627 0.72076 0.74864 0.0
C533 C 0.78646 0.72898 0.75687 0.0
H534 H 0.76351 0.74214 0.76846 0.0
H535 H 0.73533 0.73756 0.74932 0.0
H536 H 0.79838 0.68524 0.69646 0.0
H537 H 0.81108 0.70245 0.72856 0.0
H538 H 0.80827 0.72172 0.75668 0.0
H539 H 0.79107 0.73615 0.77112 0.0
Mn540 Mn 0.33211 0.30132 0.70179 0.0
Mn541 Mn 0.37281 0.30118 0.70702 0.0
C542 C 0.33763 0.2821 0.68112 0.0
C543 C 0.31445 0.31407 0.68908 0.0
C544 C 0.34136 0.28084 0.73258 0.0
O545 O 0.34862 0.32534 0.71904 0.0
O546 O 0.37552 0.32463 0.72035 0.0
C547 C 0.39526 0.33357 0.68417 0.0
N548 N 0.38835 0.31497 0.68757 0.0
C549 C 0.40389 0.31012 0.66165 0.0
C550 C 0.41128 0.32927 0.65794 0.0
C551 C 0.40691 0.34102 0.66922 0.0
C552 C 0.39244 0.30352 0.67679 0.0
H553 H 0.39188 0.34263 0.69278 0.0
C554 C 0.3658 0.33239 0.72463 0.0
O555 O 0.31003 0.30467 0.70433 0.0
O556 O 0.32935 0.31644 0.68154 0.0
N557 N 0.37236 0.27938 0.69487 0.0
C558 C 0.3633 0.26104 0.69968 0.0
C559 C 0.36574 0.24731 0.68941 0.0
C560 C 0.37759 0.2526 0.67444 0.0
C561 C 0.38697 0.27161 0.66994 0.0
C562 C 0.38408 0.2847 0.68076 0.0
H563 H 0.3542 0.2569 0.71119 0.0
O564 O 0.32073 0.27839 0.68325 0.0
O565 O 0.35082 0.29707 0.69099 0.0
O566 O 0.32989 0.28496 0.72421 0.0
O567 O 0.35769 0.28638 0.72735 0.0
C568 C 0.39873 0.27802 0.65487 0.0
C569 C 0.40716 0.29725 0.65071 0.0
H570 H 0.4202 0.33505 0.64637 0.0
H571 H 0.41248 0.35579 0.66638 0.0
H572 H 0.35845 0.23266 0.69296 0.0
H573 H 0.37928 0.24193 0.66641 0.0
H574 H 0.40115 0.26821 0.64619 0.0
H575 H 0.41596 0.30195 0.63891 0.0
Mn576 Mn 0.70315 0.04858 0.68207 0.0
Mn577 Mn 0.74124 0.04354 0.68229 0.0
C578 C 0.72758 0.0653 0.70525 0.0
C579 C 0.67347 0.03835 0.69249 0.0
C580 C 0.73389 0.06749 0.65466 0.0
O581 O 0.69412 0.02435 0.66487 0.0
O582 O 0.71997 0.02167 0.66706 0.0
C583 C 0.72806 0.00969 0.70466 0.0
N584 N 0.74084 0.02808 0.70234 0.0
C585 C 0.75914 0.02997 0.73103 0.0
C586 C 0.74624 0.011 0.73366 0.0
C587 C 0.73063 0.00083 0.72043 0.0
C588 C 0.75593 0.038 0.71496 0.0
H589 H 0.716 0.00185 0.69457 0.0
C590 C 0.70298 0.01564 0.66095 0.0
O591 O 0.6787 0.04801 0.67743 0.0
O592 O 0.6852 0.03427 0.70087 0.0
N593 N 0.76279 0.06362 0.69665 0.0
C594 C 0.77324 0.08213 0.69272 0.0
C595 C 0.78902 0.09445 0.70499 0.0
C596 C 0.79395 0.08761 0.72108 0.0
C597 C 0.7831 0.06845 0.72472 0.0
C598 C 0.76761 0.0568 0.7119 0.0
H599 H 0.76948 0.08749 0.68042 0.0
O600 O 0.7158 0.07105 0.70121 0.0
O601 O 0.72466 0.0499 0.69563 0.0
O602 O 0.7185 0.06477 0.66072 0.0
O603 O 0.74306 0.05997 0.66167 0.0
C604 C 0.78679 0.06058 0.7408 0.0
C605 C 0.77481 0.04136 0.74396 0.0
H606 H 0.7481 0.00416 0.74588 0.0
H607 H 0.72056 0.98622 0.72242 0.0
H608 H 0.79731 0.10922 0.70211 0.0
H609 H 0.80601 0.09721 0.73064 0.0
H610 H 0.79863 0.06926 0.75099 0.0
H611 H 0.77764 0.03554 0.75653 0.0
Mn612 Mn 0.95077 0.6735 0.70755 0.0
Mn613 Mn 0.91034 0.63215 0.70696 0.0
C614 C 0.92516 0.66872 0.68824 0.0
C615 C 0.9797 0.69078 0.6953 0.0
C616 C 0.92458 0.66312 0.73958 0.0
O617 O 0.9585 0.65587 0.71968 0.0
O618 O 0.93126 0.62825 0.71601 0.0
C619 C 0.91605 0.60971 0.67638 0.0
N620 N 0.90581 0.61716 0.68347 0.0
C621 C 0.883 0.6031 0.65641 0.0
C622 C 0.89324 0.59519 0.64887 0.0
C623 C 0.90985 0.59855 0.65888 0.0
C624 C 0.8898 0.614 0.67397 0.0
H625 H 0.92884 0.6123 0.68402 0.0
C626 C 0.94878 0.63798 0.72097 0.0
O627 O 0.9767 0.69557 0.71214 0.0
O628 O 0.96603 0.67597 0.6859 0.0
N629 N 0.88907 0.63403 0.69824 0.0
C630 C 0.88164 0.6439 0.70672 0.0
C631 C 0.86542 0.64277 0.69808 0.0
C632 C 0.85694 0.63142 0.6809 0.0
C633 C 0.86477 0.62131 0.6725 0.0
C634 C 0.88092 0.62293 0.6818 0.0
H635 H 0.88811 0.65265 0.71992 0.0
O636 O 0.93867 0.68583 0.69309 0.0
O637 O 0.92715 0.65503 0.69479 0.0
O638 O 0.93906 0.67544 0.73215 0.0
O639 O 0.91348 0.64661 0.73147 0.0
C640 C 0.85742 0.61001 0.65507 0.0
C641 C 0.86655 0.60094 0.647 0.0
H642 H 0.88858 0.58667 0.63531 0.0
H643 H 0.91788 0.59257 0.6531 0.0
H644 H 0.85948 0.65065 0.70462 0.0
H645 H 0.8445 0.6307 0.6742 0.0
H646 H 0.84491 0.60844 0.64758 0.0
H647 H 0.86094 0.59258 0.63341 0.0
H648 H 0.16663 0.35799 0.03563 0.0
H649 H 0.26694 0.30171 0.18451 0.0
H650 H 0.16224 0.36022 0.141 0.0
H651 H 0.13936 0.36639 0.12429 0.0
H652 H 0.09831 0.30682 0.12315 0.0
H653 H 0.12145 0.30076 0.14005 0.0
H654 H 0.19052 0.35889 0.11593 0.0
H655 H 0.18492 0.36393 0.08258 0.0
H656 H 0.13859 0.30645 0.07464 0.0
H657 H 0.14448 0.30155 0.10797 0.0
H658 H 0.22156 0.35611 0.14087 0.0
H659 H 0.24499 0.36194 0.11823 0.0
H660 H 0.20734 0.30808 0.08701 0.0
H661 H 0.1841 0.3022 0.11007 0.0
H662 H 0.21958 0.34858 0.18395 0.0
H663 H 0.24692 0.34649 0.19521 0.0
H664 H 0.22498 0.29274 0.16182 0.0
H665 H 0.19758 0.29489 0.15087 0.0
H666 H 0.18532 0.34778 0.20347 0.0
H667 H 0.1954 0.34669 0.23667 0.0
H668 H 0.18881 0.29133 0.22253 0.0
H669 H 0.17774 0.29199 0.18951 0.0
H670 H 0.15794 0.3534 0.18077 0.0
H671 H 0.13993 0.35457 0.20688 0.0
H672 H 0.11861 0.29473 0.2128 0.0
H673 H 0.13664 0.29364 0.18648 0.0
O674 O 0.16869 0.35565 0.04872 0.0
O675 O 0.14496 0.32601 0.04542 0.0
O676 O 0.26688 0.33052 0.19728 0.0
O677 O 0.25628 0.30291 0.18025 0.0
C678 C 0.15851 0.32618 0.14801 0.0
C679 C 0.17108 0.32693 0.13467 0.0
C680 C 0.18688 0.32564 0.1408 0.0
C681 C 0.18976 0.32291 0.16021 0.0
C682 C 0.17691 0.32168 0.1735 0.0
C683 C 0.16129 0.32341 0.16741 0.0
C684 C 0.14348 0.33006 0.14163 0.0
C685 C 0.14818 0.34858 0.13755 0.0
C686 C 0.13517 0.35204 0.12789 0.0
C687 C 0.11719 0.33701 0.12216 0.0
C688 C 0.11208 0.31863 0.12742 0.0
C689 C 0.12521 0.31516 0.13708 0.0
C690 C 0.16797 0.32983 0.11429 0.0
C691 C 0.17927 0.34737 0.1069 0.0
C692 C 0.17599 0.35022 0.08787 0.0
C693 C 0.1613 0.33559 0.07594 0.0
C694 C 0.15002 0.31801 0.08344 0.0
C695 C 0.15335 0.31517 0.10245 0.0
C696 C 0.20117 0.32869 0.12719 0.0
C697 C 0.21843 0.34552 0.12922 0.0
C698 C 0.23171 0.34891 0.11613 0.0
C699 C 0.22801 0.33553 0.10072 0.0
C700 C 0.2107 0.31861 0.09879 0.0
C701 C 0.19739 0.31524 0.1119 0.0
C702 C 0.20656 0.32183 0.16669 0.0
C703 C 0.22068 0.33634 0.17914 0.0
C704 C 0.2363 0.33512 0.18552 0.0
C705 C 0.23812 0.31942 0.17944 0.0
C706 C 0.22401 0.30501 0.1668 0.0
C707 C 0.20837 0.30621 0.16049 0.0
C708 C 0.18069 0.31992 0.19408 0.0
C709 C 0.18538 0.33511 0.20768 0.0
C710 C 0.19118 0.33452 0.22658 0.0
C711 C 0.19282 0.31893 0.23201 0.0
C712 C 0.18758 0.30347 0.21859 0.0
C713 C 0.18132 0.30385 0.1998 0.0
C714 C 0.14854 0.32342 0.18164 0.0
C715 C 0.14908 0.34045 0.18742 0.0
C716 C 0.13894 0.34113 0.20246 0.0
C717 C 0.12796 0.32476 0.21199 0.0
C718 C 0.12684 0.30753 0.20566 0.0
C719 C 0.13714 0.30689 0.19067 0.0
C720 C 0.15777 0.33872 0.05577 0.0
C721 C 0.25465 0.31802 0.18623 0.0
H722 H 0.68593 0.83123 0.0358 0.0
H723 H 0.70294 0.96717 0.20394 0.0
H724 H 0.66607 0.81313 0.13382 0.0
H725 H 0.66252 0.78321 0.12025 0.0
H726 H 0.71562 0.79698 0.14864 0.0
H727 H 0.71963 0.82763 0.16152 0.0
H728 H 0.66751 0.84108 0.11336 0.0
H729 H 0.66982 0.8354 0.07932 0.0
H730 H 0.72795 0.85261 0.09136 0.0
H731 H 0.7255 0.85849 0.12536 0.0
H732 H 0.65981 0.86242 0.13644 0.0
H733 H 0.65128 0.88119 0.11618 0.0
H734 H 0.70949 0.92107 0.11186 0.0
H735 H 0.71797 0.90176 0.13192 0.0
H736 H 0.66445 0.87374 0.18299 0.0
H737 H 0.66199 0.90081 0.19596 0.0
H738 H 0.71851 0.93881 0.18288 0.0
H739 H 0.72086 0.91157 0.17022 0.0
H740 H 0.66802 0.84298 0.20545 0.0
H741 H 0.66466 0.85475 0.23701 0.0
H742 H 0.71913 0.90406 0.23617 0.0
H743 H 0.72278 0.8919 0.20503 0.0
H744 H 0.66751 0.80932 0.17853 0.0
H745 H 0.66481 0.78785 0.20331 0.0
H746 H 0.71879 0.82987 0.22972 0.0
H747 H 0.72176 0.85107 0.20446 0.0
O748 O 0.68537 0.8337 0.04931 0.0
O749 O 0.71518 0.84261 0.05626 0.0
O750 O 0.67454 0.93606 0.20533 0.0
O751 O 0.70346 0.95623 0.19869 0.0
C752 C 0.69534 0.84119 0.1557 0.0
C753 C 0.69514 0.85386 0.1425 0.0
C754 C 0.69403 0.86988 0.14909 0.0
C755 C 0.69462 0.87415 0.16888 0.0
C756 C 0.69585 0.86211 0.18221 0.0
C757 C 0.69573 0.84534 0.17563 0.0
C758 C 0.69328 0.82276 0.14833 0.0
C759 C 0.67712 0.8099 0.13687 0.0
C760 C 0.67506 0.79281 0.12921 0.0
C761 C 0.6889 0.788 0.13328 0.0
C762 C 0.70484 0.80052 0.14527 0.0
C763 C 0.70711 0.81792 0.15262 0.0
C764 C 0.69642 0.8505 0.12177 0.0
C765 C 0.6808 0.8439 0.10858 0.0
C766 C 0.68213 0.84052 0.08916 0.0
C767 C 0.69909 0.84362 0.0826 0.0
C768 C 0.71469 0.85014 0.09591 0.0
C769 C 0.71334 0.85352 0.11533 0.0
C770 C 0.68946 0.88065 0.13539 0.0
C771 C 0.67071 0.87499 0.13077 0.0
C772 C 0.66588 0.88568 0.11922 0.0
C773 C 0.67975 0.90247 0.11239 0.0
C774 C 0.69858 0.90813 0.11694 0.0
C775 C 0.70342 0.89715 0.12827 0.0
C776 C 0.69282 0.89073 0.17567 0.0
C777 C 0.67625 0.88794 0.18289 0.0
C778 C 0.67489 0.90342 0.19029 0.0
C779 C 0.69008 0.92199 0.19049 0.0
C780 C 0.70657 0.92472 0.18296 0.0
C781 C 0.70792 0.9092 0.17563 0.0
C782 C 0.69562 0.86663 0.20293 0.0
C783 C 0.67954 0.8559 0.21244 0.0
C784 C 0.6776 0.86265 0.23037 0.0
C785 C 0.6916 0.88033 0.23878 0.0
C786 C 0.70817 0.8904 0.22986 0.0
C787 C 0.71027 0.88347 0.21216 0.0
C788 C 0.69488 0.83172 0.18962 0.0
C789 C 0.67896 0.81371 0.18937 0.0
C790 C 0.67741 0.8015 0.20353 0.0
C791 C 0.69158 0.80729 0.21838 0.0
C792 C 0.70765 0.82517 0.21844 0.0
C793 C 0.70936 0.83723 0.20405 0.0
C794 C 0.70044 0.83997 0.06196 0.0
C795 C 0.68881 0.93846 0.19861 0.0
H796 H 0.13689 0.84082 0.03575 0.0
H797 H 0.29453 0.9588 0.18571 0.0
H798 H 0.12796 0.84146 0.13612 0.0
H799 H 0.10094 0.81101 0.12405 0.0
H800 H 0.12816 0.78162 0.14755 0.0
H801 H 0.15472 0.81199 0.15985 0.0
H802 H 0.16137 0.87557 0.11424 0.0
H803 H 0.15048 0.86559 0.08039 0.0
H804 H 0.15708 0.81631 0.08597 0.0
H805 H 0.16816 0.82657 0.11973 0.0
H806 H 0.20175 0.91075 0.13604 0.0
H807 H 0.22529 0.92857 0.11386 0.0
H808 H 0.22842 0.87828 0.09816 0.0
H809 H 0.20541 0.86074 0.12082 0.0
H810 H 0.2017 0.91345 0.18235 0.0
H811 H 0.23172 0.94197 0.19149 0.0
H812 H 0.26 0.91372 0.1686 0.0
H813 H 0.22992 0.88521 0.15977 0.0
H814 H 0.17046 0.88139 0.20843 0.0
H815 H 0.1836 0.89088 0.242 0.0
H816 H 0.22763 0.87936 0.22915 0.0
H817 H 0.2141 0.86914 0.19603 0.0
H818 H 0.13168 0.84709 0.17955 0.0
H819 H 0.11087 0.82822 0.20347 0.0
H820 H 0.15298 0.81623 0.2265 0.0
H821 H 0.17338 0.83421 0.20194 0.0
O822 O 0.14132 0.84455 0.04914 0.0
O823 O 0.14488 0.8194 0.05278 0.0
O824 O 0.26727 0.96151 0.19406 0.0
O825 O 0.28247 0.94769 0.18232 0.0
C826 C 0.16053 0.84724 0.15441 0.0
C827 C 0.17185 0.85781 0.14003 0.0
C828 C 0.18929 0.87416 0.14519 0.0
C829 C 0.19533 0.88003 0.1648 0.0
C830 C 0.18404 0.86943 0.17924 0.0
C831 C 0.16645 0.85316 0.17404 0.0
C832 C 0.14328 0.8289 0.14883 0.0
C833 C 0.12789 0.82839 0.13887 0.0
C834 C 0.11255 0.81099 0.1319 0.0
C835 C 0.11238 0.79383 0.13475 0.0
C836 C 0.12762 0.79448 0.14533 0.0
C837 C 0.14288 0.81183 0.15233 0.0
C838 C 0.16544 0.85174 0.11944 0.0
C839 C 0.16049 0.86265 0.10809 0.0
C840 C 0.15425 0.8569 0.08878 0.0
C841 C 0.15286 0.84012 0.08048 0.0
C842 C 0.15794 0.82928 0.09192 0.0
C843 C 0.16422 0.83507 0.11121 0.0
C844 C 0.20186 0.88444 0.13011 0.0
C845 C 0.20741 0.90355 0.12771 0.0
C846 C 0.22083 0.91369 0.11507 0.0
C847 C 0.22866 0.90478 0.10432 0.0
C848 C 0.22247 0.88543 0.10612 0.0
C849 C 0.20932 0.8754 0.11902 0.0
C850 C 0.21363 0.89731 0.17032 0.0
C851 C 0.2144 0.91345 0.17937 0.0
C852 C 0.23156 0.92972 0.18455 0.0
C853 C 0.24827 0.93014 0.18073 0.0
C854 C 0.24741 0.91389 0.17171 0.0
C855 C 0.23025 0.89761 0.1666 0.0
C856 C 0.19142 0.87474 0.19972 0.0
C857 C 0.18282 0.88074 0.21294 0.0
C858 C 0.19031 0.88614 0.23203 0.0
C859 C 0.20668 0.88598 0.238 0.0
C860 C 0.21512 0.8798 0.2248 0.0
C861 C 0.20743 0.87402 0.20591 0.0
C862 C 0.15414 0.84217 0.18902 0.0
C863 C 0.13639 0.84031 0.18968 0.0
C864 C 0.12455 0.82959 0.20332 0.0
C865 C 0.13043 0.82093 0.21683 0.0
C866 C 0.14824 0.82297 0.21633 0.0
C867 C 0.1599 0.83327 0.20237 0.0
C868 C 0.14613 0.83401 0.05999 0.0
C869 C 0.26653 0.94742 0.18613 0.0
H870 H 0.29772 0.16616 0.02367 0.0
H871 H 0.33453 0.05596 0.86806 0.0
H872 H 0.28413 0.17075 0.92368 0.0
H873 H 0.28831 0.20101 0.93776 0.0
H874 H 0.34207 0.23084 0.91508 0.0
H875 H 0.33833 0.2007 0.90204 0.0
H876 H 0.28411 0.13464 0.94408 0.0
H877 H 0.28478 0.14322 0.97814 0.0
H878 H 0.3391 0.19255 0.9753 0.0
H879 H 0.33836 0.18367 0.94133 0.0
H880 H 0.28968 0.10039 0.92343 0.0
H881 H 0.30015 0.08188 0.94196 0.0
H882 H 0.35388 0.13222 0.95501 0.0
H883 H 0.34355 0.15035 0.93598 0.0
H884 H 0.283 0.0976 0.87891 0.0
H885 H 0.28533 0.06971 0.86857 0.0
H886 H 0.34437 0.10066 0.88575 0.0
H887 H 0.34184 0.12849 0.89583 0.0
H888 H 0.28281 0.12278 0.85182 0.0
H889 H 0.28678 0.1118 0.82006 0.0
H890 H 0.34649 0.1438 0.8324 0.0
H891 H 0.34238 0.15437 0.86405 0.0
H892 H 0.28164 0.16543 0.87037 0.0
H893 H 0.28378 0.18737 0.84606 0.0
H894 H 0.3424 0.20628 0.84436 0.0
H895 H 0.34017 0.18468 0.86862 0.0
O896 O 0.29779 0.16297 0.01022 0.0
O897 O 0.32566 0.18819 0.00797 0.0
O898 O 0.30283 0.05153 0.86329 0.0
O899 O 0.33321 0.06677 0.87202 0.0
C900 C 0.30968 0.16519 0.90545 0.0
C901 C 0.31044 0.15341 0.91949 0.0
C902 C 0.31132 0.13697 0.91385 0.0
C903 C 0.31075 0.13192 0.8942 0.0
C904 C 0.31017 0.14369 0.88024 0.0
C905 C 0.30973 0.16036 0.88581 0.0
C906 C 0.3108 0.18351 0.91156 0.0
C907 C 0.29667 0.18386 0.92151 0.0
C908 C 0.29906 0.20108 0.92953 0.0
C909 C 0.31543 0.21819 0.9273 0.0
C910 C 0.32918 0.21787 0.91667 0.0
C911 C 0.327 0.20067 0.9091 0.0
C912 C 0.31109 0.15863 0.94021 0.0
C913 C 0.29615 0.14727 0.95087 0.0
C914 C 0.29656 0.15222 0.9703 0.0
C915 C 0.31196 0.16862 0.97943 0.0
C916 C 0.327 0.17987 0.96871 0.0
C917 C 0.32659 0.17487 0.94929 0.0
C918 C 0.31587 0.12669 0.92834 0.0
C919 C 0.30356 0.10746 0.93066 0.0
C920 C 0.30956 0.09694 0.94125 0.0
C921 C 0.32794 0.10555 0.9497 0.0
C922 C 0.33977 0.12511 0.94836 0.0
C923 C 0.3338 0.13556 0.93773 0.0
C924 C 0.31223 0.11498 0.88817 0.0
C925 C 0.2964 0.0983 0.8804 0.0
C926 C 0.29778 0.08241 0.87453 0.0
C927 C 0.31504 0.08295 0.87635 0.0
C928 C 0.33087 0.09975 0.88416 0.0
C929 C 0.32948 0.11565 0.88996 0.0
C930 C 0.31232 0.13952 0.86005 0.0
C931 C 0.29671 0.12771 0.84743 0.0
C932 C 0.299 0.12138 0.82942 0.0
C933 C 0.31694 0.127 0.8238 0.0
C934 C 0.33252 0.13947 0.83624 0.0
C935 C 0.33022 0.14554 0.85428 0.0
C936 C 0.31073 0.17343 0.87113 0.0
C937 C 0.2949 0.17435 0.86469 0.0
C938 C 0.29614 0.18681 0.85082 0.0
C939 C 0.31328 0.19862 0.84342 0.0
C940 C 0.32906 0.19759 0.84999 0.0
C941 C 0.32778 0.18511 0.86368 0.0
C942 C 0.31229 0.17391 1.00005 0.0
C943 C 0.31658 0.06611 0.87014 0.0
H944 H 0.8411 0.1799 0.03692 0.0
H945 H 0.71972 0.03373 0.87613 0.0
H946 H 0.84372 0.19037 0.93643 0.0
H947 H 0.87155 0.21811 0.95194 0.0
H948 H 0.9055 0.19504 0.93268 0.0
H949 H 0.87736 0.16666 0.91783 0.0
H950 H 0.81263 0.16223 0.95621 0.0
H951 H 0.82059 0.17117 0.9906 0.0
H952 H 0.8628 0.15461 0.9891 0.0
H953 H 0.85453 0.14549 0.95475 0.0
H954 H 0.77884 0.13295 0.92869 0.0
H955 H 0.75503 0.1165 0.95087 0.0
H956 H 0.78737 0.09266 0.97505 0.0
H957 H 0.81096 0.1089 0.95241 0.0
H958 H 0.7786 0.12725 0.88408 0.0
H959 H 0.74863 0.10015 0.87173 0.0
H960 H 0.7637 0.0622 0.899 0.0
H961 H 0.79372 0.08941 0.91104 0.0
H962 H 0.81477 0.15665 0.86409 0.0
H963 H 0.80314 0.14517 0.83053 0.0
H964 H 0.80174 0.09238 0.84062 0.0
H965 H 0.8141 0.10419 0.87393 0.0
H966 H 0.84839 0.18994 0.89168 0.0
H967 H 0.869 0.20842 0.86757 0.0
H968 H 0.87572 0.1606 0.85027 0.0
H969 H 0.85551 0.14234 0.87484 0.0
O970 O 0.8381 0.17616 0.02334 0.0
O971 O 0.85968 0.16754 0.02178 0.0
O972 O 0.72442 0.06481 0.86704 0.0
O973 O 0.73145 0.0447 0.88087 0.0
C974 C 0.84118 0.15872 0.91894 0.0
C975 C 0.82824 0.14786 0.93207 0.0
C976 C 0.81088 0.13215 0.92529 0.0
C977 C 0.80674 0.12673 0.90546 0.0
C978 C 0.81994 0.13709 0.89233 0.0
C979 C 0.83712 0.15327 0.89904 0.0
C980 C 0.85848 0.17638 0.92624 0.0
C981 C 0.85714 0.19124 0.93556 0.0
C982 C 0.87298 0.20704 0.94437 0.0
C983 C 0.89049 0.20847 0.94358 0.0
C984 C 0.89205 0.19409 0.93346 0.0
C985 C 0.87607 0.17801 0.92496 0.0
C986 C 0.83291 0.15308 0.95302 0.0
C987 C 0.82347 0.16038 0.96337 0.0
C988 C 0.82811 0.16556 0.983 0.0
C989 C 0.84233 0.16359 0.99261 0.0
C990 C 0.85177 0.15629 0.98215 0.0
C991 C 0.84708 0.15108 0.96254 0.0
C992 C 0.79656 0.12203 0.93889 0.0
C993 C 0.78074 0.12413 0.93875 0.0
C994 C 0.76726 0.11488 0.95157 0.0
C995 C 0.76936 0.10335 0.96481 0.0
C996 C 0.78529 0.10133 0.96494 0.0
C997 C 0.79879 0.11062 0.95209 0.0
C998 C 0.78834 0.11028 0.8984 0.0
C999 C 0.77541 0.11306 0.88733 0.0
C1000 C 0.7583 0.09757 0.88032 0.0
C1001 C 0.75378 0.07899 0.88436 0.0
C1002 C 0.76673 0.0763 0.89561 0.0
C1003 C 0.78387 0.09181 0.90256 0.0
C1004 C 0.81522 0.13123 0.87148 0.0
C1005 C 0.81246 0.14283 0.85892 0.0
C1006 C 0.8058 0.13627 0.83981 0.0
C1007 C 0.80148 0.11789 0.83313 0.0
C1008 C 0.8049 0.10657 0.84552 0.0
C1009 C 0.81193 0.11328 0.86448 0.0
C1010 C 0.85049 0.1648 0.88511 0.0
C1011 C 0.85459 0.18356 0.88295 0.0
C1012 C 0.86632 0.19408 0.86916 0.0
C1013 C 0.87392 0.18592 0.85705 0.0
C1014 C 0.86993 0.16718 0.85933 0.0
C1015 C 0.85844 0.15677 0.87335 0.0
C1016 C 0.84728 0.16919 0.01344 0.0
C1017 C 0.73565 0.06247 0.87687 0.0
H1018 H 0.85861 0.70077 0.04267 0.0
H1019 H 0.71003 0.65299 0.88091 0.0
H1020 H 0.87386 0.71342 0.94425 0.0
H1021 H 0.90045 0.71259 0.96031 0.0
H1022 H 0.88078 0.65654 0.93299 0.0
H1023 H 0.8542 0.65737 0.91727 0.0
H1024 H 0.83811 0.70996 0.96425 0.0
H1025 H 0.84682 0.71112 0.99841 0.0
H1026 H 0.84469 0.65703 0.98925 0.0
H1027 H 0.83575 0.65593 0.95517 0.0
H1028 H 0.79912 0.70187 0.94251 0.0
H1029 H 0.77455 0.69359 0.9645 0.0
H1030 H 0.77198 0.6396 0.97096 0.0
H1031 H 0.7965 0.64806 0.94917 0.0
H1032 H 0.80248 0.70638 0.89537 0.0
H1033 H 0.77246 0.70293 0.88399 0.0
H1034 H 0.7447 0.6449 0.89984 0.0
H1035 H 0.77482 0.64846 0.91093 0.0
H1036 H 0.83564 0.70841 0.871 0.0
H1037 H 0.82334 0.70584 0.83762 0.0
H1038 H 0.78215 0.64735 0.84326 0.0
H1039 H 0.79469 0.64988 0.87632 0.0
H1040 H 0.87157 0.71377 0.89354 0.0
H1041 H 0.89156 0.71391 0.86866 0.0
H1042 H 0.85467 0.65371 0.85553 0.0
H1043 H 0.83491 0.65373 0.88025 0.0
O1044 O 0.85502 0.69995 0.02914 0.0
O1045 O 0.85384 0.67218 0.02364 0.0
O1046 O 0.73704 0.68463 0.87733 0.0
O1047 O 0.72208 0.65475 0.88533 0.0
C1048 C 0.84426 0.68436 0.92286 0.0
C1049 C 0.83149 0.68253 0.93645 0.0
C1050 C 0.81383 0.67995 0.93029 0.0
C1051 C 0.80914 0.67983 0.91059 0.0
C1052 C 0.82175 0.68137 0.89694 0.0
C1053 C 0.83928 0.68355 0.90308 0.0
C1054 C 0.86214 0.6855 0.92951 0.0
C1055 C 0.87555 0.70115 0.94142 0.0
C1056 C 0.89061 0.70059 0.95069 0.0
C1057 C 0.89263 0.68445 0.94799 0.0
C1058 C 0.87972 0.66925 0.9352 0.0
C1059 C 0.86457 0.66973 0.92612 0.0
C1060 C 0.83643 0.68294 0.95724 0.0
C1061 C 0.83947 0.69835 0.96968 0.0
C1062 C 0.84448 0.69899 0.98917 0.0
C1063 C 0.84652 0.6842 0.99655 0.0
C1064 C 0.8433 0.66868 0.98403 0.0
C1065 C 0.83823 0.66804 0.96455 0.0
C1066 C 0.79964 0.6756 0.94432 0.0
C1067 C 0.79329 0.68832 0.9488 0.0
C1068 C 0.77922 0.68352 0.96127 0.0
C1069 C 0.77132 0.66593 0.96952 0.0
C1070 C 0.77794 0.65337 0.96514 0.0
C1071 C 0.79193 0.65815 0.95265 0.0
C1072 C 0.7908 0.67772 0.9041 0.0
C1073 C 0.78989 0.69295 0.89639 0.0
C1074 C 0.77273 0.69094 0.88991 0.0
C1075 C 0.75616 0.67364 0.89104 0.0
C1076 C 0.75717 0.65842 0.8988 0.0
C1077 C 0.77434 0.66043 0.90522 0.0
C1078 C 0.8159 0.6794 0.87614 0.0
C1079 C 0.8242 0.69496 0.86487 0.0
C1080 C 0.81719 0.69346 0.84586 0.0
C1081 C 0.80168 0.67645 0.83797 0.0
C1082 C 0.79396 0.66069 0.84907 0.0
C1083 C 0.8011 0.66211 0.86792 0.0
C1084 C 0.85184 0.68373 0.88865 0.0
C1085 C 0.86794 0.70063 0.88533 0.0
C1086 C 0.87925 0.7007 0.87111 0.0
C1087 C 0.87472 0.6838 0.86025 0.0
C1088 C 0.85867 0.66689 0.86385 0.0
C1089 C 0.84732 0.66688 0.87787 0.0
C1090 C 0.852 0.685 0.01724 0.0
C1091 C 0.7379 0.67142 0.88414 0.0
H1092 H 0.83406 0.68918 0.36427 0.0
H1093 H 0.93204 0.64061 0.52108 0.0
H1094 H 0.8253 0.69301 0.46843 0.0
H1095 H 0.80221 0.69874 0.45154 0.0
H1096 H 0.76092 0.63954 0.45303 0.0
H1097 H 0.78433 0.63387 0.47002 0.0
H1098 H 0.85507 0.69198 0.44587 0.0
H1099 H 0.85067 0.69622 0.41197 0.0
H1100 H 0.80411 0.63886 0.40433 0.0
H1101 H 0.80881 0.63474 0.43821 0.0
H1102 H 0.88554 0.6903 0.47387 0.0
H1103 H 0.9104 0.69589 0.45324 0.0
H1104 H 0.87414 0.64225 0.42102 0.0
H1105 H 0.84929 0.63669 0.44191 0.0
H1106 H 0.88173 0.68429 0.51621 0.0
H1107 H 0.90948 0.68364 0.52886 0.0
H1108 H 0.88996 0.62951 0.49701 0.0
H1109 H 0.86217 0.63024 0.48464 0.0
H1110 H 0.84528 0.68276 0.53292 0.0
H1111 H 0.85297 0.68293 0.56696 0.0
H1112 H 0.85115 0.62905 0.55653 0.0
H1113 H 0.84162 0.62821 0.52283 0.0
H1114 H 0.81716 0.68534 0.50948 0.0
H1115 H 0.79763 0.68485 0.53461 0.0
H1116 H 0.77931 0.62542 0.5402 0.0
H1117 H 0.79941 0.62631 0.51539 0.0
O1118 O 0.83562 0.68716 0.3776 0.0
O1119 O 0.81173 0.65761 0.37446 0.0
O1120 O 0.93054 0.66901 0.53249 0.0
O1121 O 0.92117 0.64121 0.51632 0.0
C1122 C 0.82149 0.65947 0.47762 0.0
C1123 C 0.83481 0.66054 0.4651 0.0
C1124 C 0.85069 0.65985 0.4723 0.0
C1125 C 0.853 0.65763 0.49199 0.0
C1126 C 0.83948 0.65619 0.50446 0.0
C1127 C 0.8236 0.65696 0.49724 0.0
C1128 C 0.80649 0.66302 0.47027 0.0
C1129 C 0.8112 0.68134 0.46537 0.0
C1130 C 0.79806 0.68454 0.45565 0.0
C1131 C 0.7799 0.6695 0.45073 0.0
C1132 C 0.77484 0.65134 0.45666 0.0
C1133 C 0.78813 0.6481 0.46635 0.0
C1134 C 0.83234 0.66302 0.44444 0.0
C1135 C 0.84403 0.6803 0.4368 0.0
C1136 C 0.84144 0.6827 0.41746 0.0
C1137 C 0.82705 0.66787 0.40543 0.0
C1138 C 0.81534 0.65056 0.41318 0.0
C1139 C 0.81798 0.64817 0.43252 0.0
C1140 C 0.86565 0.663 0.45953 0.0
C1141 C 0.883 0.67968 0.46245 0.0
C1142 C 0.89718 0.68284 0.45065 0.0
C1143 C 0.89428 0.66946 0.43555 0.0
C1144 C 0.87677 0.65288 0.43244 0.0
C1145 C 0.8626 0.64964 0.44439 0.0
C1146 C 0.8699 0.65726 0.49961 0.0
C1147 C 0.88344 0.67226 0.51207 0.0
C1148 C 0.89929 0.67188 0.51923 0.0
C1149 C 0.90193 0.6565 0.51396 0.0
C1150 C 0.88836 0.64155 0.50137 0.0
C1151 C 0.87249 0.64193 0.49427 0.0
C1152 C 0.84279 0.65543 0.52539 0.0
C1153 C 0.84597 0.67071 0.53812 0.0
C1154 C 0.8507 0.67092 0.55756 0.0
C1155 C 0.85297 0.65613 0.56461 0.0
C1156 C 0.84929 0.64058 0.55182 0.0
C1157 C 0.84404 0.64015 0.53245 0.0
C1158 C 0.80967 0.65585 0.51052 0.0
C1159 C 0.80863 0.67212 0.51585 0.0
C1160 C 0.79741 0.67178 0.53026 0.0
C1161 C 0.78687 0.65509 0.53959 0.0
C1162 C 0.78743 0.63861 0.53363 0.0
C1163 C 0.79877 0.63901 0.5193 0.0
C1164 C 0.82428 0.67049 0.3849 0.0
C1165 C 0.91876 0.65603 0.52152 0.0
H1166 H 0.35354 0.16329 0.36913 0.0
H1167 H 0.3738 0.30149 0.53697 0.0
H1168 H 0.33557 0.14657 0.46746 0.0
H1169 H 0.33191 0.11649 0.45417 0.0
H1170 H 0.38519 0.1305 0.48226 0.0
H1171 H 0.38934 0.16131 0.4948 0.0
H1172 H 0.33661 0.17427 0.44705 0.0
H1173 H 0.33828 0.16811 0.41296 0.0
H1174 H 0.39654 0.1854 0.42393 0.0
H1175 H 0.39473 0.19177 0.458 0.0
H1176 H 0.32969 0.19604 0.46939 0.0
H1177 H 0.32115 0.21512 0.44965 0.0
H1178 H 0.37935 0.25538 0.44589 0.0
H1179 H 0.38784 0.23575 0.4654 0.0
H1180 H 0.33476 0.20801 0.51597 0.0
H1181 H 0.33248 0.23521 0.52887 0.0
H1182 H 0.38916 0.27289 0.51604 0.0
H1183 H 0.39131 0.24552 0.50343 0.0
H1184 H 0.33868 0.17784 0.5392 0.0
H1185 H 0.33585 0.19047 0.57053 0.0
H1186 H 0.39056 0.23913 0.56859 0.0
H1187 H 0.39369 0.22611 0.53769 0.0
H1188 H 0.33737 0.14355 0.51236 0.0
H1189 H 0.33495 0.12202 0.53694 0.0
H1190 H 0.38953 0.16367 0.56239 0.0
H1191 H 0.39215 0.18496 0.53736 0.0
O1192 O 0.35323 0.16595 0.38265 0.0
O1193 O 0.38312 0.17491 0.38906 0.0
O1194 O 0.34524 0.27049 0.53826 0.0
O1195 O 0.37424 0.2905 0.53173 0.0
C1196 C 0.36506 0.17487 0.48899 0.0
C1197 C 0.36473 0.18742 0.4757 0.0
C1198 C 0.36391 0.20363 0.48222 0.0
C1199 C 0.36485 0.20816 0.50202 0.0
C1200 C 0.36619 0.19625 0.51542 0.0
C1201 C 0.36579 0.1793 0.50892 0.0
C1202 C 0.3629 0.15634 0.48176 0.0
C1203 C 0.34664 0.14336 0.47049 0.0
C1204 C 0.34451 0.12618 0.46301 0.0
C1205 C 0.35836 0.12138 0.4671 0.0
C1206 C 0.37439 0.13402 0.4789 0.0
C1207 C 0.37674 0.15152 0.48604 0.0
C1208 C 0.36563 0.18376 0.45494 0.0
C1209 C 0.34979 0.177 0.44203 0.0
C1210 C 0.35075 0.17335 0.42258 0.0
C1211 C 0.36756 0.17632 0.4157 0.0
C1212 C 0.38338 0.18301 0.42874 0.0
C1213 C 0.3824 0.18667 0.44819 0.0
C1214 C 0.35934 0.21441 0.46853 0.0
C1215 C 0.34059 0.20872 0.4639 0.0
C1216 C 0.33576 0.21962 0.45266 0.0
C1217 C 0.34961 0.23663 0.44618 0.0
C1218 C 0.36845 0.24228 0.4507 0.0
C1219 C 0.3733 0.23111 0.4617 0.0
C1220 C 0.36318 0.22483 0.50876 0.0
C1221 C 0.34663 0.22217 0.5159 0.0
C1222 C 0.34537 0.23772 0.52327 0.0
C1223 C 0.36066 0.25624 0.52351 0.0
C1224 C 0.37714 0.25884 0.51607 0.0
C1225 C 0.37839 0.24325 0.50877 0.0
C1226 C 0.36637 0.2011 0.53615 0.0
C1227 C 0.35038 0.19079 0.54592 0.0
C1228 C 0.34873 0.19804 0.56372 0.0
C1229 C 0.36294 0.2158 0.57173 0.0
C1230 C 0.37944 0.22542 0.56259 0.0
C1231 C 0.38125 0.21799 0.54503 0.0
C1232 C 0.36498 0.16578 0.523 0.0
C1233 C 0.34898 0.14787 0.52297 0.0
C1234 C 0.3476 0.13562 0.53701 0.0
C1235 C 0.36205 0.14124 0.55152 0.0
C1236 C 0.37817 0.15908 0.5514 0.0
C1237 C 0.37968 0.17119 0.53714 0.0
C1238 C 0.36852 0.17238 0.39503 0.0
C1239 C 0.3595 0.27278 0.53161 0.0
H1240 H 0.80263 0.16633 0.36662 0.0
H1241 H 0.95621 0.29742 0.5152 0.0
H1242 H 0.79263 0.17019 0.46737 0.0
H1243 H 0.76806 0.13875 0.45369 0.0
H1244 H 0.7988 0.11343 0.47823 0.0
H1245 H 0.82325 0.14474 0.49162 0.0
H1246 H 0.82406 0.20391 0.44412 0.0
H1247 H 0.81388 0.19234 0.41042 0.0
H1248 H 0.82665 0.14734 0.4187 0.0
H1249 H 0.837 0.15921 0.45229 0.0
H1250 H 0.86126 0.23971 0.46105 0.0
H1251 H 0.88377 0.25688 0.43783 0.0
H1252 H 0.89809 0.21231 0.43464 0.0
H1253 H 0.87501 0.19503 0.45708 0.0
H1254 H 0.86348 0.24578 0.51093 0.0
H1255 H 0.89216 0.27597 0.51937 0.0
H1256 H 0.92437 0.25079 0.49978 0.0
H1257 H 0.89563 0.22065 0.49166 0.0
H1258 H 0.83589 0.21285 0.54034 0.0
H1259 H 0.84873 0.22031 0.57391 0.0
H1260 H 0.89388 0.21141 0.55835 0.0
H1261 H 0.88032 0.20284 0.52538 0.0
H1262 H 0.79795 0.17861 0.51396 0.0
H1263 H 0.77959 0.16021 0.53958 0.0
H1264 H 0.82273 0.14706 0.556 0.0
H1265 H 0.84091 0.16542 0.53045 0.0
O1266 O 0.80681 0.17072 0.37995 0.0
O1267 O 0.81353 0.1478 0.38498 0.0
O1268 O 0.92747 0.29787 0.52209 0.0
O1269 O 0.94466 0.28564 0.51207 0.0
C1270 C 0.82614 0.17872 0.4857 0.0
C1271 C 0.83709 0.18931 0.4711 0.0
C1272 C 0.85402 0.2063 0.47594 0.0
C1273 C 0.85996 0.21287 0.4954 0.0
C1274 C 0.84931 0.20205 0.51007 0.0
C1275 C 0.83219 0.18509 0.50521 0.0
C1276 C 0.8097 0.1597 0.48046 0.0
C1277 C 0.79379 0.15776 0.47013 0.0
C1278 C 0.77981 0.13985 0.46238 0.0
C1279 C 0.78168 0.12375 0.46476 0.0
C1280 C 0.79714 0.12566 0.47601 0.0
C1281 C 0.81101 0.14348 0.4838 0.0
C1282 C 0.83112 0.18232 0.45063 0.0
C1283 C 0.82468 0.19159 0.43859 0.0
C1284 C 0.81885 0.18493 0.41937 0.0
C1285 C 0.8194 0.16888 0.41188 0.0
C1286 C 0.826 0.15971 0.42401 0.0
C1287 C 0.83188 0.16642 0.44321 0.0
C1288 C 0.86653 0.21615 0.46074 0.0
C1289 C 0.86909 0.23359 0.45506 0.0
C1290 C 0.88209 0.24342 0.44189 0.0
C1291 C 0.89294 0.2361 0.43435 0.0
C1292 C 0.88986 0.21831 0.43978 0.0
C1293 C 0.87673 0.20843 0.45273 0.0
C1294 C 0.87747 0.2311 0.50051 0.0
C1295 C 0.87675 0.24683 0.50849 0.0
C1296 C 0.89315 0.26405 0.51327 0.0
C1297 C 0.91057 0.26582 0.51017 0.0
C1298 C 0.9112 0.24995 0.50228 0.0
C1299 C 0.8948 0.23274 0.49754 0.0
C1300 C 0.85722 0.2074 0.53038 0.0
C1301 C 0.84851 0.21245 0.54428 0.0
C1302 C 0.85595 0.21684 0.56342 0.0
C1303 C 0.87234 0.2164 0.56893 0.0
C1304 C 0.88106 0.21153 0.55482 0.0
C1305 C 0.87348 0.2069 0.53584 0.0
C1306 C 0.82089 0.17357 0.52049 0.0
C1307 C 0.80339 0.17171 0.52309 0.0
C1308 C 0.7929 0.16115 0.53768 0.0
C1309 C 0.79977 0.15232 0.54996 0.0
C1310 C 0.81719 0.15399 0.54706 0.0
C1311 C 0.82759 0.16444 0.53244 0.0
C1312 C 0.81309 0.16178 0.39148 0.0
C1313 C 0.92802 0.2841 0.51516 0.0
H1314 H 0.98749 0.5195 0.35405 0.0
H1315 H 0.99157 0.38875 0.17907 0.0
H1316 H 0.95592 0.51392 0.23924 0.0
H1317 H 0.96165 0.54554 0.25099 0.0
H1318 H 0.0203 0.5644 0.26089 0.0
H1319 H 0.01451 0.53305 0.24923 0.0
H1320 H 0.96027 0.492 0.27398 0.0
H1321 H 0.9664 0.50252 0.30814 0.0
H1322 H 0.02315 0.51422 0.30606 0.0
H1323 H 0.01688 0.50384 0.27187 0.0
H1324 H 0.96462 0.45268 0.27187 0.0
H1325 H 0.97387 0.435 0.29329 0.0
H1326 H 0.02439 0.45374 0.26459 0.0
H1327 H 0.01544 0.47189 0.24405 0.0
H1328 H 0.95405 0.43188 0.22816 0.0
H1329 H 0.95298 0.40257 0.21611 0.0
H1330 H 0.00495 0.43582 0.19071 0.0
H1331 H 0.006 0.46498 0.20311 0.0
H1332 H 0.94915 0.44928 0.18874 0.0
H1333 H 0.95069 0.43654 0.15698 0.0
H1334 H 0.00514 0.48534 0.15337 0.0
H1335 H 0.0035 0.49786 0.18504 0.0
H1336 H 0.94833 0.48886 0.19221 0.0
H1337 H 0.94644 0.5085 0.16736 0.0
H1338 H 0.00292 0.55209 0.18479 0.0
H1339 H 0.00503 0.53216 0.20893 0.0
O1340 O 0.98537 0.51538 0.34054 0.0
O1341 O 0.01438 0.52106 0.33873 0.0
O1342 O 0.9653 0.38365 0.19793 0.0
O1343 O 0.99175 0.4001 0.1842 0.0
C1344 C 0.98176 0.50233 0.23653 0.0
C1345 C 0.98431 0.49089 0.24972 0.0
C1346 C 0.98392 0.47404 0.24305 0.0
C1347 C 0.9803 0.46826 0.22329 0.0
C1348 C 0.97759 0.47959 0.21007 0.0
C1349 C 0.97839 0.49671 0.21666 0.0
C1350 C 0.98481 0.52125 0.24344 0.0
C1351 C 0.96997 0.52495 0.24394 0.0
C1352 C 0.97325 0.54292 0.25067 0.0
C1353 C 0.99143 0.55743 0.25669 0.0
C1354 C 0.00619 0.55359 0.25607 0.0
C1355 C 0.0029 0.53568 0.24957 0.0
C1356 C 0.98808 0.49701 0.27052 0.0
C1357 C 0.97401 0.49682 0.28095 0.0
C1358 C 0.97755 0.50283 0.30045 0.0
C1359 C 0.99526 0.50917 0.30985 0.0
C1360 C 0.00935 0.50937 0.29929 0.0
C1361 C 0.00579 0.50339 0.27978 0.0
C1362 C 0.98933 0.46347 0.25637 0.0
C1363 C 0.97773 0.45303 0.27039 0.0
C1364 C 0.98298 0.44285 0.28248 0.0
C1365 C 0.9999 0.44297 0.2807 0.0
C1366 C 0.01144 0.45357 0.26664 0.0
C1367 C 0.00627 0.4638 0.25473 0.0
C1368 C 0.98 0.45052 0.21635 0.0
C1369 C 0.96522 0.43278 0.22006 0.0
C1370 C 0.96463 0.41608 0.21312 0.0
C1371 C 0.97884 0.41686 0.20236 0.0
C1372 C 0.99375 0.4347 0.19888 0.0
C1373 C 0.99436 0.45138 0.2059 0.0
C1374 C 0.97625 0.47444 0.18922 0.0
C1375 C 0.96114 0.45747 0.18081 0.0
C1376 C 0.96212 0.45015 0.16277 0.0
C1377 C 0.97815 0.45982 0.15281 0.0
C1378 C 0.99256 0.47761 0.16061 0.0
C1379 C 0.99163 0.48484 0.17869 0.0
C1380 C 0.97673 0.50916 0.20259 0.0
C1381 C 0.96023 0.50271 0.19074 0.0
C1382 C 0.95916 0.51391 0.17661 0.0
C1383 C 0.97447 0.53187 0.17435 0.0
C1384 C 0.99081 0.53846 0.1865 0.0
C1385 C 0.992 0.52711 0.20032 0.0
C1386 C 0.99898 0.51557 0.33056 0.0
C1387 C 0.97816 0.39917 0.19474 0.0
H1388 H 0.50633 0.51202 0.37122 0.0
H1389 H 0.38519 0.37099 0.20761 0.0
H1390 H 0.50933 0.5253 0.27084 0.0
H1391 H 0.53682 0.55331 0.28644 0.0
H1392 H 0.57175 0.53158 0.26685 0.0
H1393 H 0.54394 0.50291 0.25189 0.0
H1394 H 0.47857 0.49669 0.29032 0.0
H1395 H 0.48623 0.50463 0.32487 0.0
H1396 H 0.52858 0.48833 0.32248 0.0
H1397 H 0.52061 0.48021 0.28796 0.0
H1398 H 0.44497 0.46816 0.26229 0.0
H1399 H 0.42107 0.45106 0.28418 0.0
H1400 H 0.45332 0.42663 0.30713 0.0
H1401 H 0.47699 0.44349 0.28476 0.0
H1402 H 0.44522 0.46422 0.21762 0.0
H1403 H 0.41503 0.43767 0.20493 0.0
H1404 H 0.42932 0.39843 0.23051 0.0
H1405 H 0.45955 0.4251 0.24291 0.0
H1406 H 0.48251 0.49454 0.1984 0.0
H1407 H 0.47263 0.48522 0.1644 0.0
H1408 H 0.46819 0.43056 0.1725 0.0
H1409 H 0.47965 0.44074 0.206 0.0
H1410 H 0.51582 0.52633 0.22599 0.0
H1411 H 0.5368 0.54479 0.20211 0.0
H1412 H 0.54245 0.49642 0.18434 0.0
H1413 H 0.52188 0.47818 0.20867 0.0
O1414 O 0.50346 0.50869 0.35757 0.0
O1415 O 0.52512 0.50022 0.35555 0.0
O1416 O 0.39037 0.40251 0.19957 0.0
O1417 O 0.39702 0.38175 0.21247 0.0
C1418 C 0.5075 0.49427 0.25278 0.0
C1419 C 0.49442 0.48306 0.26563 0.0
C1420 C 0.47707 0.46753 0.2585 0.0
C1421 C 0.47303 0.46272 0.23856 0.0
C1422 C 0.48638 0.47342 0.2257 0.0
C1423 C 0.50363 0.4893 0.23279 0.0
C1424 C 0.5246 0.51194 0.26045 0.0
C1425 C 0.52289 0.5265 0.26995 0.0
C1426 C 0.53853 0.54245 0.27882 0.0
C1427 C 0.55623 0.54436 0.27792 0.0
C1428 C 0.55815 0.53026 0.26771 0.0
C1429 C 0.54237 0.514 0.25916 0.0
C1430 C 0.49894 0.48773 0.28667 0.0
C1431 C 0.48938 0.49468 0.29732 0.0
C1432 C 0.49384 0.49928 0.31703 0.0
C1433 C 0.50801 0.49709 0.32644 0.0
C1434 C 0.51758 0.49016 0.31569 0.0
C1435 C 0.51307 0.48552 0.29598 0.0
C1436 C 0.46265 0.45698 0.27188 0.0
C1437 C 0.44682 0.45905 0.272 0.0
C1438 C 0.43329 0.44943 0.28466 0.0
C1439 C 0.43533 0.43756 0.29749 0.0
C1440 C 0.45126 0.43554 0.29733 0.0
C1441 C 0.46482 0.4452 0.28464 0.0
C1442 C 0.45458 0.44657 0.23113 0.0
C1443 C 0.44182 0.44988 0.22041 0.0
C1444 C 0.42458 0.43469 0.21322 0.0
C1445 C 0.41977 0.41591 0.2167 0.0
C1446 C 0.43258 0.4127 0.22756 0.0
C1447 C 0.44983 0.4279 0.2347 0.0
C1448 C 0.48177 0.46831 0.20471 0.0
C1449 C 0.47985 0.48075 0.19268 0.0
C1450 C 0.47392 0.47525 0.17328 0.0
C1451 C 0.46934 0.45701 0.1656 0.0
C1452 C 0.4718 0.44481 0.17768 0.0
C1453 C 0.47816 0.45051 0.19695 0.0
C1454 C 0.51736 0.50091 0.21917 0.0
C1455 C 0.52188 0.51983 0.21723 0.0
C1456 C 0.53382 0.53034 0.20357 0.0
C1457 C 0.54121 0.52201 0.19137 0.0
C1458 C 0.53684 0.50314 0.19347 0.0
C1459 C 0.52515 0.49274 0.20736 0.0
C1460 C 0.51276 0.50207 0.34738 0.0
C1461 C 0.40149 0.39972 0.20904 0.0
H1462 H 0.51674 0.00869 0.37697 0.0
H1463 H 0.38064 0.97946 0.20041 0.0
H1464 H 0.53901 0.03526 0.27774 0.0
H1465 H 0.56552 0.03447 0.29406 0.0
H1466 H 0.54404 0.97695 0.2699 0.0
H1467 H 0.51755 0.9778 0.25391 0.0
H1468 H 0.50424 0.02918 0.30068 0.0
H1469 H 0.51031 0.02582 0.33448 0.0
H1470 H 0.50107 0.96941 0.31953 0.0
H1471 H 0.49485 0.9729 0.28582 0.0
H1472 H 0.46986 0.0269 0.28241 0.0
H1473 H 0.44507 0.0189 0.30405 0.0
H1474 H 0.43036 0.95983 0.29713 0.0
H1475 H 0.45512 0.968 0.27551 0.0
H1476 H 0.46486 0.0315 0.24687 0.0
H1477 H 0.43531 0.02854 0.23441 0.0
H1478 H 0.41627 0.97048 0.21344 0.0
H1479 H 0.44583 0.97362 0.22614 0.0
H1480 H 0.48735 0.03685 0.21588 0.0
H1481 H 0.47506 0.03726 0.18338 0.0
H1482 H 0.46889 0.98221 0.16841 0.0
H1483 H 0.48044 0.98149 0.20117 0.0
H1484 H 0.53142 0.0403 0.22307 0.0
H1485 H 0.55205 0.04301 0.19795 0.0
H1486 H 0.52956 0.98217 0.1951 0.0
H1487 H 0.5093 0.97973 0.22018 0.0
O1488 O 0.51421 0.00968 0.36355 0.0
O1489 O 0.5094 0.98079 0.3551 0.0
O1490 O 0.40271 0.01079 0.21694 0.0
O1491 O 0.39236 0.98095 0.20568 0.0
C1492 C 0.50907 0.00609 0.25725 0.0
C1493 C 0.49572 0.00352 0.27036 0.0
C1494 C 0.47889 0.00267 0.26396 0.0
C1495 C 0.47551 0.00473 0.2445 0.0
C1496 C 0.48888 0.00745 0.23137 0.0
C1497 C 0.50558 0.00789 0.23769 0.0
C1498 C 0.52657 0.00672 0.26433 0.0
C1499 C 0.5403 0.02267 0.27564 0.0
C1500 C 0.5553 0.02212 0.28508 0.0
C1501 C 0.55684 0.00564 0.28326 0.0
C1502 C 0.54339 0.98995 0.27135 0.0
C1503 C 0.52831 0.99045 0.26208 0.0
C1504 C 0.4992 0.00132 0.29085 0.0
C1505 C 0.50349 0.0161 0.30477 0.0
C1506 C 0.50698 0.01415 0.32405 0.0
C1507 C 0.50622 0.99736 0.32971 0.0
C1508 C 0.50181 0.98254 0.31566 0.0
C1509 C 0.49829 0.9845 0.29641 0.0
C1510 C 0.46414 0.998 0.27731 0.0
C1511 C 0.4612 0.01224 0.28553 0.0
C1512 C 0.44705 0.00764 0.29784 0.0
C1513 C 0.43574 0.98872 0.30228 0.0
C1514 C 0.43894 0.97455 0.29416 0.0
C1515 C 0.45299 0.97916 0.28176 0.0
C1516 C 0.45736 0.00272 0.23754 0.0
C1517 C 0.45419 0.0181 0.23977 0.0
C1518 C 0.43735 0.01639 0.23255 0.0
C1519 C 0.42341 0.99925 0.22293 0.0
C1520 C 0.42668 0.98386 0.22079 0.0
C1521 C 0.44352 0.98559 0.22805 0.0
C1522 C 0.48481 0.00916 0.21087 0.0
C1523 C 0.48364 0.02503 0.20549 0.0
C1524 C 0.47661 0.02523 0.187 0.0
C1525 C 0.47104 0.00975 0.1735 0.0
C1526 C 0.47327 0.99437 0.17855 0.0
C1527 C 0.47993 0.99399 0.19719 0.0
C1528 C 0.51912 0.00986 0.22366 0.0
C1529 C 0.53122 0.02764 0.21718 0.0
C1530 C 0.54287 0.02913 0.20275 0.0
C1531 C 0.54257 0.01282 0.19457 0.0
C1532 C 0.5305 0.99507 0.20134 0.0
C1533 C 0.51889 0.99362 0.21569 0.0
C1534 C 0.51002 0.99537 0.35018 0.0
C1535 C 0.40557 0.99742 0.21504 0.0
H1536 H 0.49528 0.0394 0.70528 0.0
H1537 H 0.6106 0.99211 0.84561 0.0
H1538 H 0.48625 0.0298 0.81232 0.0
H1539 H 0.45971 0.03096 0.7967 0.0
H1540 H 0.43175 0.97034 0.78302 0.0
H1541 H 0.45811 0.96914 0.79945 0.0
H1542 H 0.51923 0.03725 0.78477 0.0
H1543 H 0.5128 0.04388 0.75231 0.0
H1544 H 0.47536 0.98382 0.73843 0.0
H1545 H 0.48208 0.97741 0.77087 0.0
H1546 H 0.55542 0.03592 0.80592 0.0
H1547 H 0.57989 0.04268 0.78429 0.0
H1548 H 0.54434 0.9888 0.75219 0.0
H1549 H 0.51996 0.98207 0.77404 0.0
H1550 H 0.55346 0.02794 0.84919 0.0
H1551 H 0.58298 0.0297 0.85951 0.0
H1552 H 0.56693 0.97837 0.82383 0.0
H1553 H 0.53736 0.97664 0.81384 0.0
H1554 H 0.51664 0.02033 0.86988 0.0
H1555 H 0.52716 0.01844 0.90269 0.0
H1556 H 0.52813 0.96749 0.88452 0.0
H1557 H 0.51693 0.96899 0.85189 0.0
H1558 H 0.48373 0.02066 0.84692 0.0
H1559 H 0.46336 0.01585 0.8727 0.0
H1560 H 0.45553 0.95956 0.87756 0.0
H1561 H 0.47533 0.96414 0.85111 0.0
O1562 O 0.49775 0.03646 0.71798 0.0
O1563 O 0.47856 0.00545 0.71161 0.0
O1564 O 0.60656 0.01801 0.86001 0.0
O1565 O 0.59903 0.99175 0.84178 0.0
C1566 C 0.49126 0.99935 0.81343 0.0
C1567 C 0.50462 0.00303 0.79999 0.0
C1568 C 0.52162 0.00389 0.80563 0.0
C1569 C 0.52523 0.00096 0.82478 0.0
C1570 C 0.51183 0.9972 0.83824 0.0
C1571 C 0.49476 0.99635 0.83257 0.0
C1572 C 0.47392 0.99936 0.80722 0.0
C1573 C 0.47409 0.01668 0.80661 0.0
C1574 C 0.459 0.01733 0.79767 0.0
C1575 C 0.44377 0.00072 0.78877 0.0
C1576 C 0.44335 0.98328 0.78991 0.0
C1577 C 0.45828 0.98257 0.79931 0.0
C1578 C 0.50108 0.00688 0.78013 0.0
C1579 C 0.50972 0.02556 0.77464 0.0
C1580 C 0.50599 0.02929 0.75612 0.0
C1581 C 0.49353 0.01438 0.74278 0.0
C1582 C 0.485 0.99564 0.74835 0.0
C1583 C 0.48879 0.99193 0.76686 0.0
C1584 C 0.53595 0.00845 0.79165 0.0
C1585 C 0.5529 0.02561 0.79418 0.0
C1586 C 0.56686 0.02943 0.78184 0.0
C1587 C 0.56408 0.01623 0.76658 0.0
C1588 C 0.54684 0.99932 0.76369 0.0
C1589 C 0.53292 0.99543 0.77618 0.0
C1590 C 0.54326 0.00214 0.83082 0.0
C1591 C 0.55633 0.01706 0.84368 0.0
C1592 C 0.57319 0.01805 0.84951 0.0
C1593 C 0.57731 0.00416 0.84249 0.0
C1594 C 0.5642 0.98929 0.82951 0.0
C1595 C 0.54732 0.98829 0.82374 0.0
C1596 C 0.51611 0.99485 0.85848 0.0
C1597 C 0.51865 0.00848 0.87309 0.0
C1598 C 0.52464 0.0074 0.89178 0.0
C1599 C 0.52851 0.99288 0.896 0.0
C1600 C 0.52532 0.97886 0.88153 0.0
C1601 C 0.51897 0.97973 0.86295 0.0
C1602 C 0.48083 0.99265 0.84685 0.0
C1603 C 0.4771 0.00703 0.85303 0.0
C1604 C 0.46556 0.00431 0.86786 0.0
C1605 C 0.45784 0.98731 0.87709 0.0
C1606 C 0.46132 0.9728 0.8707 0.0
C1607 C 0.47257 0.97539 0.85559 0.0
C1608 C 0.48945 0.01841 0.72318 0.0
C1609 C 0.59519 0.00513 0.84866 0.0
H1610 H 0.9973 0.48528 0.70579 0.0
H1611 H 0.03138 0.63226 0.87043 0.0
H1612 H 0.98619 0.47361 0.8062 0.0
H1613 H 0.98121 0.44298 0.79365 0.0
H1614 H 0.03608 0.4574 0.818 0.0
H1615 H 0.0414 0.48882 0.82934 0.0
H1616 H 0.9866 0.50106 0.7849 0.0
H1617 H 0.98564 0.49301 0.75069 0.0
H1618 H 0.04371 0.50849 0.75762 0.0
H1619 H 0.04453 0.51673 0.79181 0.0
H1620 H 0.98249 0.52593 0.80673 0.0
H1621 H 0.97471 0.54462 0.78549 0.0
H1622 H 0.033 0.58037 0.77739 0.0
H1623 H 0.04067 0.56112 0.79842 0.0
H1624 H 0.98967 0.53809 0.85327 0.0
H1625 H 0.98887 0.56622 0.86591 0.0
H1626 H 0.04439 0.60196 0.84878 0.0
H1627 H 0.04509 0.57367 0.83646 0.0
H1628 H 0.99392 0.50852 0.87676 0.0
H1629 H 0.99304 0.52299 0.90786 0.0
H1630 H 0.04785 0.57027 0.90224 0.0
H1631 H 0.04898 0.55546 0.87152 0.0
H1632 H 0.9909 0.47238 0.85052 0.0
H1633 H 0.99032 0.45132 0.8749 0.0
H1634 H 0.04583 0.49368 0.89722 0.0
H1635 H 0.04671 0.51442 0.87223 0.0
O1636 O 0.99803 0.48866 0.71933 0.0
O1637 O 0.02788 0.49673 0.72367 0.0
O1638 O 0.00279 0.60188 0.87402 0.0
O1639 O 0.03122 0.62092 0.86529 0.0
C1640 C 0.01711 0.5025 0.82518 0.0
C1641 C 0.01637 0.51458 0.81157 0.0
C1642 C 0.01639 0.53133 0.81779 0.0
C1643 C 0.01831 0.53667 0.8375 0.0
C1644 C 0.02005 0.52517 0.85117 0.0
C1645 C 0.01899 0.50781 0.84505 0.0
C1646 C 0.01425 0.48357 0.81842 0.0
C1647 C 0.99724 0.47026 0.80861 0.0
C1648 C 0.99432 0.45259 0.80172 0.0
C1649 C 0.00819 0.44756 0.80489 0.0
C1650 C 0.02517 0.46084 0.81505 0.0
C1651 C 0.0282 0.47874 0.82169 0.0
C1652 C 0.01571 0.50975 0.79076 0.0
C1653 C 0.99916 0.50295 0.77896 0.0
C1654 C 0.99862 0.49823 0.75944 0.0
C1655 C 0.01462 0.50016 0.75139 0.0
C1656 C 0.03115 0.50688 0.76333 0.0
C1657 C 0.03167 0.51161 0.78285 0.0
C1658 C 0.01208 0.5421 0.80387 0.0
C1659 C 0.99353 0.53758 0.80009 0.0
C1660 C 0.98913 0.54822 0.78797 0.0
C1661 C 0.00327 0.5638 0.77975 0.0
C1662 C 0.02189 0.56836 0.78355 0.0
C1663 C 0.02627 0.55742 0.79544 0.0
C1664 C 0.01743 0.55388 0.84395 0.0
C1665 C 0.0016 0.55202 0.85219 0.0
C1666 C 0.00119 0.56811 0.85941 0.0
C1667 C 0.0166 0.58635 0.8584 0.0
C1668 C 0.03231 0.58814 0.84981 0.0
C1669 C 0.03272 0.57202 0.84267 0.0
C1670 C 0.02148 0.531 0.87185 0.0
C1671 C 0.00606 0.52158 0.88263 0.0
C1672 C 0.00552 0.52988 0.90031 0.0
C1673 C 0.02029 0.5478 0.90721 0.0
C1674 C 0.03627 0.55649 0.89709 0.0
C1675 C 0.03695 0.54803 0.87965 0.0
C1676 C 0.01891 0.49487 0.85948 0.0
C1677 C 0.00309 0.47697 0.86041 0.0
C1678 C 0.00274 0.465 0.87433 0.0
C1679 C 0.01805 0.47094 0.88783 0.0
C1680 C 0.03386 0.48886 0.88695 0.0
C1681 C 0.03436 0.50067 0.87275 0.0
C1682 C 0.01398 0.4951 0.73065 0.0
C1683 C 0.01637 0.60346 0.86637 0.0
H1684 H 0.46818 0.49923 0.70208 0.0
H1685 H 0.62341 0.62748 0.85049 0.0
H1686 H 0.45941 0.50455 0.80374 0.0
H1687 H 0.43251 0.47416 0.79127 0.0
H1688 H 0.46031 0.44475 0.8132 0.0
H1689 H 0.48678 0.47503 0.82585 0.0
H1690 H 0.49131 0.53645 0.77971 0.0
H1691 H 0.48067 0.52521 0.74602 0.0
H1692 H 0.49073 0.47832 0.75371 0.0
H1693 H 0.50153 0.48985 0.78731 0.0
H1694 H 0.52852 0.57117 0.79682 0.0
H1695 H 0.55125 0.58825 0.77376 0.0
H1696 H 0.56407 0.54264 0.76957 0.0
H1697 H 0.54078 0.52547 0.79188 0.0
H1698 H 0.53062 0.577 0.84629 0.0
H1699 H 0.55955 0.60694 0.85476 0.0
H1700 H 0.59106 0.58105 0.83491 0.0
H1701 H 0.56206 0.55115 0.82677 0.0
H1702 H 0.50171 0.54399 0.87497 0.0
H1703 H 0.51521 0.55391 0.90838 0.0
H1704 H 0.56091 0.54549 0.89453 0.0
H1705 H 0.54703 0.53478 0.86157 0.0
H1706 H 0.46473 0.51061 0.85023 0.0
H1707 H 0.44636 0.49167 0.87556 0.0
H1708 H 0.48881 0.47692 0.88994 0.0
H1709 H 0.50707 0.49604 0.86485 0.0
O1710 O 0.47253 0.50348 0.71541 0.0
O1711 O 0.47787 0.47958 0.72014 0.0
O1712 O 0.59493 0.6284 0.85749 0.0
O1713 O 0.61176 0.6158 0.84733 0.0
C1714 C 0.49226 0.51028 0.82102 0.0
C1715 C 0.50331 0.52069 0.80641 0.0
C1716 C 0.52052 0.53738 0.81124 0.0
C1717 C 0.52657 0.54388 0.8307 0.0
C1718 C 0.51581 0.53319 0.84538 0.0
C1719 C 0.49853 0.51643 0.84053 0.0
C1720 C 0.47498 0.49194 0.81573 0.0
C1721 C 0.45945 0.49146 0.80613 0.0
C1722 C 0.44419 0.47412 0.79892 0.0
C1723 C 0.44425 0.45699 0.80117 0.0
C1724 C 0.4596 0.45758 0.81147 0.0
C1725 C 0.47479 0.47488 0.81869 0.0
C1726 C 0.49708 0.5139 0.78593 0.0
C1727 C 0.49125 0.52379 0.77405 0.0
C1728 C 0.48515 0.51731 0.75483 0.0
C1729 C 0.4848 0.50083 0.74718 0.0
C1730 C 0.49078 0.49103 0.75915 0.0
C1731 C 0.49691 0.49756 0.77835 0.0
C1732 C 0.53304 0.54711 0.79601 0.0
C1733 C 0.53606 0.5648 0.79063 0.0
C1734 C 0.54918 0.57458 0.77757 0.0
C1735 C 0.55969 0.56695 0.76982 0.0
C1736 C 0.55612 0.5489 0.7749 0.0
C1737 C 0.54287 0.53907 0.78777 0.0
C1738 C 0.54423 0.56198 0.83576 0.0
C1739 C 0.54379 0.57784 0.84379 0.0
C1740 C 0.56033 0.59491 0.8486 0.0
C1741 C 0.57763 0.5964 0.84545 0.0
C1742 C 0.57799 0.58042 0.83746 0.0
C1743 C 0.56144 0.56335 0.83271 0.0
C1744 C 0.52349 0.53885 0.86576 0.0
C1745 C 0.51453 0.5441 0.87922 0.0
C1746 C 0.52222 0.54976 0.89822 0.0
C1747 C 0.53915 0.5506 0.90387 0.0
C1748 C 0.54796 0.54517 0.89043 0.0
C1749 C 0.54009 0.53912 0.87163 0.0
C1750 C 0.48732 0.50485 0.85582 0.0
C1751 C 0.47002 0.50328 0.8589 0.0
C1752 C 0.45952 0.49239 0.87331 0.0
C1753 C 0.46615 0.48287 0.8849 0.0
C1754 C 0.48343 0.48436 0.88157 0.0
C1755 C 0.49388 0.49522 0.86719 0.0
C1756 C 0.47821 0.49393 0.72679 0.0
C1757 C 0.59524 0.61452 0.85048 0.0
H1758 H 0.62083 0.83273 0.69282 0.0
H1759 H 0.6559 0.71516 0.54499 0.0
H1760 H 0.61297 0.83983 0.58936 0.0
H1761 H 0.6194 0.87191 0.59998 0.0
H1762 H 0.67641 0.89466 0.58604 0.0
H1763 H 0.66982 0.86284 0.57545 0.0
H1764 H 0.60861 0.80126 0.61336 0.0
H1765 H 0.60839 0.81023 0.6471 0.0
H1766 H 0.66533 0.85566 0.64686 0.0
H1767 H 0.66543 0.84639 0.6132 0.0
H1768 H 0.61272 0.76433 0.59456 0.0
H1769 H 0.62046 0.74482 0.61486 0.0
H1770 H 0.67536 0.79302 0.62941 0.0
H1771 H 0.66762 0.81221 0.60904 0.0
H1772 H 0.60777 0.76101 0.55082 0.0
H1773 H 0.60877 0.732 0.54212 0.0
H1774 H 0.66756 0.76102 0.56042 0.0
H1775 H 0.66638 0.78996 0.56886 0.0
H1776 H 0.60952 0.78519 0.52321 0.0
H1777 H 0.61361 0.77438 0.4914 0.0
H1778 H 0.67329 0.80696 0.50368 0.0
H1779 H 0.66908 0.81727 0.53543 0.0
H1780 H 0.61018 0.82931 0.53923 0.0
H1781 H 0.61338 0.85129 0.51463 0.0
H1782 H 0.67221 0.87022 0.51575 0.0
H1783 H 0.6689 0.84857 0.5404 0.0
O1784 O 0.62124 0.8294 0.67949 0.0
O1785 O 0.65049 0.8526 0.67859 0.0
O1786 O 0.62493 0.71224 0.5388 0.0
O1787 O 0.65513 0.72645 0.54821 0.0
C1788 C 0.63764 0.82976 0.57592 0.0
C1789 C 0.63689 0.81772 0.59033 0.0
C1790 C 0.6366 0.80053 0.5853 0.0
C1791 C 0.6363 0.79504 0.56581 0.0
C1792 C 0.63681 0.80693 0.55144 0.0
C1793 C 0.63754 0.8243 0.55647 0.0
C1794 C 0.64087 0.84908 0.58138 0.0
C1795 C 0.62675 0.85183 0.58842 0.0
C1796 C 0.63048 0.87011 0.59455 0.0
C1797 C 0.64838 0.88588 0.59369 0.0
C1798 C 0.66237 0.88295 0.58647 0.0
C1799 C 0.65865 0.86476 0.58043 0.0
C1800 C 0.63695 0.8233 0.6108 0.0
C1801 C 0.62101 0.81314 0.62063 0.0
C1802 C 0.62093 0.81831 0.63989 0.0
C1803 C 0.63682 0.83371 0.64966 0.0
C1804 C 0.65283 0.84378 0.63975 0.0
C1805 C 0.6529 0.83857 0.6205 0.0
C1806 C 0.63959 0.7897 0.60037 0.0
C1807 C 0.62626 0.77074 0.60249 0.0
C1808 C 0.63073 0.75961 0.61397 0.0
C1809 C 0.64854 0.76737 0.62367 0.0
C1810 C 0.66145 0.78668 0.62235 0.0
C1811 C 0.65703 0.7977 0.61074 0.0
C1812 C 0.63699 0.77751 0.56047 0.0
C1813 C 0.62085 0.76106 0.55286 0.0
C1814 C 0.62146 0.74452 0.54795 0.0
C1815 C 0.63825 0.74419 0.5506 0.0
C1816 C 0.65441 0.76078 0.55821 0.0
C1817 C 0.65378 0.77732 0.56305 0.0
C1818 C 0.63902 0.80217 0.53145 0.0
C1819 C 0.62344 0.79018 0.51885 0.0
C1820 C 0.62579 0.78397 0.50081 0.0
C1821 C 0.64377 0.78993 0.4951 0.0
C1822 C 0.6593 0.80238 0.5076 0.0
C1823 C 0.65693 0.8083 0.52569 0.0
C1824 C 0.63929 0.83731 0.54145 0.0
C1825 C 0.62371 0.83823 0.53409 0.0
C1826 C 0.62556 0.85072 0.52005 0.0
C1827 C 0.64306 0.86255 0.51333 0.0
C1828 C 0.6586 0.86151 0.52082 0.0
C1829 C 0.65671 0.84902 0.53475 0.0
C1830 C 0.63667 0.8392 0.67011 0.0
C1831 C 0.63896 0.72664 0.54549 0.0
H1832 H 0.16053 0.849 0.70041 0.0
H1833 H 0.04752 0.70446 0.53584 0.0
H1834 H 0.17088 0.8611 0.59615 0.0
H1835 H 0.19789 0.8893 0.61178 0.0
H1836 H 0.23045 0.86106 0.60783 0.0
H1837 H 0.20332 0.83308 0.59135 0.0
H1838 H 0.13824 0.83241 0.61815 0.0
H1839 H 0.14381 0.84122 0.65269 0.0
H1840 H 0.18391 0.82178 0.65651 0.0
H1841 H 0.17806 0.81287 0.62199 0.0
H1842 H 0.10492 0.80169 0.59011 0.0
H1843 H 0.07942 0.78392 0.61014 0.0
H1844 H 0.11047 0.7596 0.6363 0.0
H1845 H 0.13601 0.77753 0.61614 0.0
H1846 H 0.10706 0.7978 0.54654 0.0
H1847 H 0.0773 0.77112 0.53303 0.0
H1848 H 0.091 0.7321 0.56005 0.0
H1849 H 0.12081 0.75889 0.57328 0.0
H1850 H 0.14519 0.82922 0.52982 0.0
H1851 H 0.13614 0.82084 0.49559 0.0
H1852 H 0.13169 0.76601 0.50232 0.0
H1853 H 0.14215 0.77517 0.53622 0.0
H1854 H 0.17767 0.86004 0.55744 0.0
H1855 H 0.19965 0.87866 0.53441 0.0
H1856 H 0.20598 0.83046 0.51787 0.0
H1857 H 0.18453 0.81207 0.54156 0.0
O1858 O 0.15849 0.84534 0.68679 0.0
O1859 O 0.17902 0.8352 0.68797 0.0
O1860 O 0.05286 0.73592 0.52732 0.0
O1861 O 0.05921 0.71527 0.54098 0.0
C1862 C 0.16825 0.82776 0.5844 0.0
C1863 C 0.15443 0.81677 0.59664 0.0
C1864 C 0.13736 0.80126 0.58889 0.0
C1865 C 0.13424 0.79646 0.5689 0.0
C1866 C 0.14818 0.80731 0.55663 0.0
C1867 C 0.16525 0.82301 0.56439 0.0
C1868 C 0.18521 0.84513 0.59264 0.0
C1869 C 0.18392 0.86111 0.5985 0.0
C1870 C 0.19933 0.87712 0.60762 0.0
C1871 C 0.2163 0.87737 0.61135 0.0
C1872 C 0.21764 0.86141 0.60507 0.0
C1873 C 0.20219 0.84541 0.59571 0.0
C1874 C 0.15769 0.82194 0.61763 0.0
C1875 C 0.14814 0.82998 0.62651 0.0
C1876 C 0.15139 0.83504 0.64622 0.0
C1877 C 0.1643 0.8322 0.65737 0.0
C1878 C 0.17387 0.82415 0.64836 0.0
C1879 C 0.17057 0.81906 0.62865 0.0
C1880 C 0.12222 0.79076 0.60155 0.0
C1881 C 0.10619 0.7925 0.60015 0.0
C1882 C 0.09165 0.78233 0.61158 0.0
C1883 C 0.09289 0.77027 0.62472 0.0
C1884 C 0.10917 0.76889 0.62642 0.0
C1885 C 0.12371 0.77903 0.61488 0.0
C1886 C 0.11611 0.78025 0.56081 0.0
C1887 C 0.10363 0.78347 0.54945 0.0
C1888 C 0.08664 0.76821 0.54179 0.0
C1889 C 0.08178 0.74946 0.54545 0.0
C1890 C 0.0943 0.74634 0.55694 0.0
C1891 C 0.11132 0.76161 0.56454 0.0
C1892 C 0.14429 0.8028 0.53553 0.0
C1893 C 0.14271 0.81559 0.52377 0.0
C1894 C 0.13728 0.81065 0.50424 0.0
C1895 C 0.13292 0.79263 0.49613 0.0
C1896 C 0.13513 0.78009 0.50791 0.0
C1897 C 0.14093 0.78521 0.52737 0.0
C1898 C 0.17965 0.83474 0.55141 0.0
C1899 C 0.1842 0.85364 0.54927 0.0
C1900 C 0.19666 0.86423 0.53604 0.0
C1901 C 0.20449 0.85598 0.5244 0.0
C1902 C 0.20007 0.83711 0.52664 0.0
C1903 C 0.18788 0.82664 0.54016 0.0
C1904 C 0.16776 0.83764 0.67829 0.0
C1905 C 0.06374 0.7332 0.53734 0.0
H1906 H 0.19305 0.35846 0.71078 0.0
H1907 H 0.04415 0.31791 0.55211 0.0
H1908 H 0.20879 0.374 0.61167 0.0
H1909 H 0.23432 0.37107 0.62734 0.0
H1910 H 0.21091 0.3144 0.6 0.0
H1911 H 0.18526 0.31729 0.58486 0.0
H1912 H 0.17364 0.37136 0.63345 0.0
H1913 H 0.18225 0.37111 0.66736 0.0
H1914 H 0.17656 0.31562 0.656 0.0
H1915 H 0.16773 0.31596 0.6222 0.0
H1916 H 0.13459 0.36546 0.61154 0.0
H1917 H 0.11023 0.35811 0.63359 0.0
H1918 H 0.10544 0.30314 0.63993 0.0
H1919 H 0.12971 0.31063 0.618 0.0
H1920 H 0.13684 0.36967 0.56473 0.0
H1921 H 0.10692 0.36692 0.55416 0.0
H1922 H 0.07855 0.30876 0.56962 0.0
H1923 H 0.10857 0.31163 0.5799 0.0
H1924 H 0.16866 0.37132 0.53962 0.0
H1925 H 0.15593 0.36855 0.5064 0.0
H1926 H 0.11556 0.30981 0.51222 0.0
H1927 H 0.12855 0.31254 0.54514 0.0
H1928 H 0.20352 0.37754 0.56107 0.0
H1929 H 0.22392 0.37931 0.53595 0.0
H1930 H 0.19104 0.31848 0.52391 0.0
H1931 H 0.17066 0.3169 0.54873 0.0
O1932 O 0.1895 0.35822 0.69734 0.0
O1933 O 0.18646 0.32974 0.69072 0.0
O1934 O 0.07144 0.34927 0.54826 0.0
O1935 O 0.05617 0.31937 0.55615 0.0
C1936 C 0.17783 0.34594 0.59094 0.0
C1937 C 0.16527 0.34415 0.60476 0.0
C1938 C 0.14787 0.34238 0.59898 0.0
C1939 C 0.14309 0.34264 0.57937 0.0
C1940 C 0.15551 0.34415 0.56551 0.0
C1941 C 0.17295 0.346 0.57132 0.0
C1942 C 0.19522 0.34589 0.59707 0.0
C1943 C 0.20947 0.36116 0.60872 0.0
C1944 C 0.22402 0.35945 0.61765 0.0
C1945 C 0.22449 0.34241 0.61508 0.0
C1946 C 0.21076 0.32759 0.60249 0.0
C1947 C 0.19625 0.32931 0.5936 0.0
C1948 C 0.17021 0.34375 0.62538 0.0
C1949 C 0.17422 0.35915 0.63835 0.0
C1950 C 0.17916 0.35898 0.65769 0.0
C1951 C 0.18016 0.34337 0.66439 0.0
C1952 C 0.17598 0.32788 0.65132 0.0
C1953 C 0.17098 0.32806 0.632 0.0
C1954 C 0.13398 0.33862 0.61325 0.0
C1955 C 0.12834 0.35191 0.61783 0.0
C1956 C 0.11438 0.34764 0.63034 0.0
C1957 C 0.10591 0.33004 0.63854 0.0
C1958 C 0.11187 0.31693 0.63412 0.0
C1959 C 0.12572 0.32117 0.62157 0.0
C1960 C 0.12485 0.34091 0.5732 0.0
C1961 C 0.12414 0.35636 0.56582 0.0
C1962 C 0.10704 0.35475 0.5598 0.0
C1963 C 0.09033 0.33763 0.56109 0.0
C1964 C 0.09113 0.32216 0.56848 0.0
C1965 C 0.10825 0.32378 0.57443 0.0
C1966 C 0.14941 0.34217 0.54481 0.0
C1967 C 0.15733 0.35777 0.53356 0.0
C1968 C 0.15007 0.35617 0.51464 0.0
C1969 C 0.13468 0.33901 0.50686 0.0
C1970 C 0.1273 0.32325 0.51795 0.0
C1971 C 0.1347 0.32478 0.5367 0.0
C1972 C 0.1857 0.34708 0.55671 0.0
C1973 C 0.20083 0.36463 0.55302 0.0
C1974 C 0.21238 0.36563 0.53867 0.0
C1975 C 0.20911 0.34902 0.52809 0.0
C1976 C 0.19403 0.33147 0.53202 0.0
C1977 C 0.18236 0.33053 0.54611 0.0
C1978 C 0.18555 0.34329 0.68491 0.0
C1979 C 0.07213 0.33585 0.55476 0.0
H1980 H 0.98041 0.38394 0.06182 0.0
H1981 H 0.03239 0.43686 0.06244 0.0
H1982 H 0.97032 0.39793 0.08664 0.0
H1983 H 0.0224 0.45062 0.08748 0.0
H1984 H 0.9925 0.47571 0.11958 0.0
H1985 H 1.0 0.46121 0.09273 0.0
H1986 H 0.97792 0.40866 0.12054 0.0
H1987 H 0.97039 0.42311 0.14726 0.0
C1988 C 0.98973 0.39852 0.06727 0.0
C1989 C 0.00725 0.40923 0.06012 0.0
C1990 C 0.98395 0.40651 0.08156 0.0
C1991 C 0.99552 0.42541 0.089 0.0
C1992 C 0.01301 0.43612 0.08184 0.0
C1993 C 0.01881 0.42815 0.06758 0.0
C1994 C 0.98914 0.46102 0.11985 0.0
C1995 C 0.98081 0.45055 0.13549 0.0
C1996 C 0.99349 0.45274 0.10453 0.0
C1997 C 0.98966 0.43381 0.10455 0.0
C1998 C 0.98083 0.42318 0.11994 0.0
C1999 C 0.97646 0.43146 0.13524 0.0
H2000 H 0.62771 0.5954 0.11889 0.0
H2001 H 0.57526 0.57834 0.08707 0.0
H2002 H 0.61118 0.57574 0.14471 0.0
H2003 H 0.55866 0.5585 0.1127 0.0
H2004 H 0.53755 0.51024 0.15356 0.0
H2005 H 0.5555 0.52862 0.12782 0.0
H2006 H 0.5889 0.57646 0.16879 0.0
H2007 H 0.5709 0.5581 0.19453 0.0
C2008 C 0.61265 0.58716 0.11735 0.0
C2009 C 0.60268 0.58777 0.10083 0.0
C2010 C 0.60321 0.5761 0.13214 0.0
C2011 C 0.58366 0.56547 0.13059 0.0
C2012 C 0.57374 0.5663 0.11411 0.0
C2013 C 0.58318 0.57763 0.0995 0.0
C2014 C 0.54887 0.52461 0.15708 0.0
C2015 C 0.55283 0.53278 0.17602 0.0
C2016 C 0.55903 0.53515 0.14235 0.0
C2017 C 0.57354 0.55396 0.14633 0.0
C2018 C 0.57785 0.56195 0.16535 0.0
C2019 C 0.5675 0.55151 0.18003 0.0
H2020 H 0.41705 0.97848 0.05739 0.0
H2021 H 0.40353 0.01984 0.08033 0.0
H2022 H 0.43517 0.98186 0.08748 0.0
H2023 H 0.42248 0.02432 0.10987 0.0
H2024 H 0.44033 0.01316 0.1677 0.0
H2025 H 0.42283 0.0099 0.13748 0.0
H2026 H 0.4627 0.00162 0.10696 0.0
H2027 H 0.47956 0.00384 0.13758 0.0
C2028 C 0.41829 0.98854 0.06882 0.0
C2029 C 0.40958 0.99946 0.06641 0.0
C2030 C 0.42877 0.99063 0.08599 0.0
C2031 C 0.43051 0.00352 0.10115 0.0
C2032 C 0.42137 0.01411 0.0987 0.0
C2033 C 0.41078 0.01185 0.08164 0.0
C2034 C 0.44537 0.01078 0.15448 0.0
C2035 C 0.46129 0.00884 0.15488 0.0
C2036 C 0.43541 0.00899 0.13711 0.0
C2037 C 0.44134 0.00557 0.11964 0.0
C2038 C 0.4575 0.00391 0.12009 0.0
C2039 C 0.46727 0.00533 0.13757 0.0
H2040 H 0.38319 0.9775 0.96692 0.0
H2041 H 0.44029 0.01363 0.98964 0.0
H2042 H 0.39416 0.97106 0.93704 0.0
H2043 H 0.45104 0.00677 0.9603 0.0
H2044 H 0.46352 0.97653 0.91197 0.0
H2045 H 0.44891 0.9769 0.94137 0.0
H2046 H 0.41418 0.9944 0.91046 0.0
H2047 H 0.42899 0.99428 0.88103 0.0
C2048 C 0.39801 0.98378 0.96569 0.0
C2049 C 0.41085 0.99605 0.98068 0.0
C2050 C 0.40427 0.98017 0.9486 0.0
C2051 C 0.42344 0.98836 0.94644 0.0
C2052 C 0.43619 0.00011 0.96165 0.0
C2053 C 0.43 0.00407 0.97846 0.0
C2054 C 0.45252 0.9801 0.91138 0.0
C2055 C 0.4474 0.98541 0.89425 0.0
C2056 C 0.44423 0.98039 0.92819 0.0
C2057 C 0.43042 0.98567 0.92815 0.0
C2058 C 0.42467 0.99012 0.91083 0.0
C2059 C 0.43322 0.99018 0.89407 0.0
H2060 H 0.02627 0.39201 0.96307 0.0
H2061 H 0.99141 0.40995 0.99032 0.0
H2062 H 0.02898 0.4119 0.93658 0.0
H2063 H 0.99416 0.42996 0.964 0.0
H2064 H 0.02383 0.48034 0.92619 0.0
H2065 H 0.02088 0.45975 0.9519 0.0
H2066 H 0.00744 0.4135 0.90982 0.0
H2067 H 0.01 0.43406 0.88406 0.0
C2068 C 0.01935 0.40038 0.96339 0.0
C2069 C 0.0092 0.40012 0.97889 0.0
C2070 C 0.02072 0.41155 0.94822 0.0
C2071 C 0.01195 0.42261 0.9484 0.0
C2072 C 0.00131 0.42182 0.96369 0.0
C2073 C 0.99971 0.41041 0.97867 0.0
C2074 C 0.02038 0.46581 0.92249 0.0
C2075 C 0.01717 0.45873 0.90324 0.0
C2076 C 0.01862 0.45403 0.93716 0.0
C2077 C 0.014 0.43508 0.93281 0.0
C2078 C 0.01114 0.4281 0.91352 0.0
C2079 C 0.01252 0.43978 0.89885 0.0
H2080 H 0.60322 0.61439 0.00994 0.0
H2081 H 0.58697 0.55579 0.01773 0.0
H2082 H 0.58515 0.60472 0.97884 0.0
H2083 H 0.56865 0.54619 0.98671 0.0
H2084 H 0.52404 0.53697 0.9374 0.0
H2085 H 0.53962 0.54705 0.96999 0.0
H2086 H 0.58949 0.58961 0.94709 0.0
H2087 H 0.57407 0.57934 0.91463 0.0
C2088 C 0.59562 0.59943 0.00515 0.0
C2089 C 0.59659 0.58587 0.0163 0.0
C2090 C 0.58534 0.59394 0.98732 0.0
C2091 C 0.57554 0.57474 0.98043 0.0
C2092 C 0.576 0.56108 0.99179 0.0
C2093 C 0.58656 0.5666 0.00948 0.0
C2094 C 0.53827 0.54858 0.93945 0.0
C2095 C 0.54792 0.55739 0.92362 0.0
C2096 C 0.54718 0.55425 0.95799 0.0
C2097 C 0.56572 0.5691 0.96099 0.0
C2098 C 0.57516 0.57823 0.94517 0.0
C2099 C 0.56639 0.57232 0.92664 0.0
H2100 H 0.02417 0.63438 0.98795 0.0
H2101 H 0.98221 0.5815 0.00721 0.0
H2102 H 0.02965 0.61716 0.96211 0.0
H2103 H 0.98679 0.56404 0.98074 0.0
H2104 H 0.0122 0.53702 0.94357 0.0
H2105 H 0.00771 0.55466 0.96998 0.0
H2106 H 0.01744 0.59951 0.9329 0.0
H2107 H 0.02289 0.58231 0.9071 0.0
C2108 C 0.01621 0.619 0.98663 0.0
C2109 C 0.00343 0.60913 0.99995 0.0
C2110 C 0.01907 0.6091 0.97164 0.0
C2111 C 0.00883 0.58911 0.9694 0.0
C2112 C 0.99534 0.57936 0.98232 0.0
C2113 C 0.99259 0.58931 0.99738 0.0
C2114 C 0.01351 0.55074 0.94127 0.0
C2115 C 0.01808 0.55847 0.92348 0.0
C2116 C 0.01078 0.56079 0.95628 0.0
C2117 C 0.01215 0.57855 0.95362 0.0
C2118 C 0.01665 0.58612 0.93568 0.0
C2119 C 0.01972 0.57626 0.92085 0.0
H2120 H 0.43107 0.40417 0.97189 0.0
H2121 H 0.38652 0.41751 0.96879 0.0
H2122 H 0.44586 0.42535 0.94715 0.0
H2123 H 0.40168 0.43904 0.94368 0.0
H2124 H 0.42826 0.45902 0.88427 0.0
H2125 H 0.41089 0.43864 0.9092 0.0
H2126 H 0.46197 0.46038 0.94546 0.0
H2127 H 0.47924 0.48084 0.92084 0.0
C2128 C 0.42431 0.41155 0.96592 0.0
C2129 C 0.40756 0.40913 0.97253 0.0
C2130 C 0.43294 0.42384 0.95176 0.0
C2131 C 0.4251 0.43408 0.94365 0.0
C2132 C 0.40805 0.43132 0.9497 0.0
C2133 C 0.3994 0.41902 0.96409 0.0
C2134 C 0.43574 0.45966 0.89768 0.0
C2135 C 0.45521 0.47138 0.90043 0.0
C2136 C 0.42577 0.44798 0.91194 0.0
C2137 C 0.4351 0.44773 0.92918 0.0
C2138 C 0.45443 0.45996 0.93217 0.0
C2139 C 0.46435 0.47165 0.91802 0.0
H2140 H 0.59556 0.98409 0.99006 0.0
H2141 H 0.57711 0.02104 0.01421 0.0
H2142 H 0.57664 0.97905 0.96041 0.0
H2143 H 0.55898 0.01719 0.98392 0.0
H2144 H 0.51692 0.995 0.93146 0.0
H2145 H 0.53271 0.99672 0.96266 0.0
H2146 H 0.5769 0.99508 0.93381 0.0
H2147 H 0.56062 0.99235 0.90299 0.0
C2148 C 0.5872 0.99095 0.989 0.0
C2149 C 0.58713 0.00233 0.00453 0.0
C2150 C 0.57662 0.98838 0.97189 0.0
C2151 C 0.56626 0.99775 0.96965 0.0
C2152 C 0.56646 0.00944 0.98522 0.0
C2153 C 0.57691 0.01178 0.0025 0.0
C2154 C 0.52994 0.99483 0.93196 0.0
C2155 C 0.53751 0.99334 0.91493 0.0
C2156 C 0.53905 0.99595 0.94977 0.0
C2157 C 0.55609 0.99598 0.95084 0.0
C2158 C 0.5636 0.9946 0.93366 0.0
C2159 C 0.55434 0.99312 0.91595 0.0
H2160 H 0.6065 0.03371 0.09238 0.0
H2161 H 0.57339 0.97317 0.0969 0.0
H2162 H 0.59619 0.03936 0.12302 0.0
H2163 H 0.56329 0.97882 0.12714 0.0
H2164 H 0.5616 0.99368 0.18895 0.0
H2165 H 0.57692 0.99228 0.16063 0.0
H2166 H 0.56512 0.03325 0.1354 0.0
H2167 H 0.54947 0.03446 0.16365 0.0
C2168 C 0.59716 0.02165 0.09993 0.0
C2169 C 0.59074 0.00299 0.09215 0.0
C2170 C 0.59121 0.02489 0.11739 0.0
C2171 C 0.57903 0.00953 0.12752 0.0
C2172 C 0.57288 0.99095 0.11983 0.0
C2173 C 0.57858 0.98773 0.10238 0.0
C2174 C 0.56231 0.00245 0.17741 0.0
C2175 C 0.55405 0.01396 0.17847 0.0
C2176 C 0.57114 0.00169 0.16122 0.0
C2177 C 0.57204 0.0125 0.14572 0.0
C2178 C 0.56475 0.02485 0.14718 0.0
C2179 C 0.55579 0.02554 0.16338 0.0
H2180 H 0.0129 0.59024 0.07607 0.0
H2181 H 0.97651 0.61187 0.09122 0.0
H2182 H 0.00224 0.56886 0.10163 0.0
H2183 H 0.96631 0.59065 0.11752 0.0
H2184 H 0.9838 0.56927 0.17634 0.0
H2185 H 0.98727 0.5889 0.14941 0.0
H2186 H 0.96856 0.53973 0.10969 0.0
H2187 H 0.96478 0.52005 0.13654 0.0
C2188 C 0.00255 0.59039 0.08477 0.0
C2189 C 0.99549 0.60272 0.08151 0.0
C2190 C 0.99642 0.57807 0.09938 0.0
C2191 C 0.9834 0.57807 0.11139 0.0
C2192 C 0.97632 0.59039 0.10833 0.0
C2193 C 0.98212 0.60246 0.0933 0.0
C2194 C 0.98007 0.56263 0.16185 0.0
C2195 C 0.97407 0.54319 0.15846 0.0
C2196 C 0.98193 0.5738 0.14651 0.0
C2197 C 0.97817 0.56576 0.12757 0.0
C2198 C 0.97149 0.54619 0.12421 0.0
C2199 C 0.96928 0.53496 0.13954 0.0
H2200 H 0.40001 0.38132 0.07035 0.0
H2201 H 0.41786 0.4358 0.04779 0.0
H2202 H 0.42071 0.39698 0.09946 0.0
H2203 H 0.43819 0.45164 0.07727 0.0
H2204 H 0.44569 0.46569 0.14507 0.0
H2205 H 0.4301 0.45275 0.11323 0.0
H2206 H 0.45698 0.41896 0.10906 0.0
H2207 H 0.47364 0.43272 0.14042 0.0
C2208 C 0.40875 0.39664 0.07149 0.0
C2209 C 0.40803 0.40738 0.05663 0.0
C2210 C 0.42047 0.40558 0.08813 0.0
C2211 C 0.43117 0.42548 0.09045 0.0
C2212 C 0.43016 0.43626 0.07572 0.0
C2213 C 0.41861 0.42726 0.05893 0.0
C2214 C 0.44883 0.45598 0.13722 0.0
C2215 C 0.46096 0.45026 0.1455 0.0
C2216 C 0.43977 0.4485 0.11899 0.0
C2217 C 0.44235 0.43487 0.10877 0.0
C2218 C 0.45471 0.4294 0.11673 0.0
C2219 C 0.46411 0.43718 0.13479 0.0
H2220 H 0.64149 0.72393 0.39177 0.0
H2221 H 0.6987 0.7682 0.40469 0.0
H2222 H 0.63224 0.73706 0.41819 0.0
H2223 H 0.68958 0.78087 0.43144 0.0
H2224 H 0.66687 0.80996 0.46813 0.0
H2225 H 0.67368 0.79742 0.43928 0.0
H2226 H 0.6343 0.74029 0.45229 0.0
H2227 H 0.62713 0.75299 0.48078 0.0
C2228 C 0.65212 0.73639 0.40031 0.0
C2229 C 0.67085 0.74499 0.39609 0.0
C2230 C 0.64682 0.74388 0.41552 0.0
C2231 C 0.66014 0.76007 0.42696 0.0
C2232 C 0.67886 0.76863 0.42272 0.0
C2233 C 0.68413 0.76125 0.40744 0.0
C2234 C 0.65957 0.79474 0.46466 0.0
C2235 C 0.64652 0.78243 0.47666 0.0
C2236 C 0.66354 0.78752 0.44822 0.0
C2237 C 0.65471 0.76781 0.44354 0.0
C2238 C 0.64121 0.75555 0.45529 0.0
C2239 C 0.6371 0.7628 0.47163 0.0
H2240 H 0.24171 0.91365 0.42124 0.0
H2241 H 0.29325 0.92816 0.45361 0.0
H2242 H 0.22418 0.89405 0.44663 0.0
H2243 H 0.2758 0.90879 0.47919 0.0
H2244 H 0.23469 0.89171 0.52835 0.0
H2245 H 0.25344 0.91025 0.50306 0.0
H2246 H 0.2198 0.8633 0.46124 0.0
H2247 H 0.20122 0.8447 0.48655 0.0
C2248 C 0.24922 0.91248 0.43377 0.0
C2249 C 0.26872 0.92177 0.4353 0.0
C2250 C 0.23925 0.90129 0.44823 0.0
C2251 C 0.24866 0.89978 0.46477 0.0
C2252 C 0.26822 0.90968 0.46657 0.0
C2253 C 0.27818 0.92058 0.45193 0.0
C2254 C 0.23143 0.88535 0.51376 0.0
C2255 C 0.21655 0.8668 0.50937 0.0
C2256 C 0.24218 0.89589 0.49934 0.0
C2257 C 0.23802 0.8882 0.48022 0.0
C2258 C 0.22325 0.86958 0.47586 0.0
C2259 C 0.21271 0.85892 0.49033 0.0
H2260 H 0.06657 0.3481 0.41531 0.0
H2261 H 0.08976 0.31731 0.38698 0.0
H2262 H 0.08417 0.35037 0.44536 0.0
H2263 H 0.10774 0.3198 0.41717 0.0
H2264 H 0.15045 0.34978 0.47278 0.0
H2265 H 0.13447 0.34797 0.44149 0.0
H2266 H 0.08209 0.32416 0.46719 0.0
H2267 H 0.09789 0.32582 0.49821 0.0
C2268 C 0.07567 0.34205 0.41554 0.0
C2269 C 0.07726 0.33295 0.39888 0.0
C2270 C 0.08562 0.34323 0.43269 0.0
C2271 C 0.09733 0.33531 0.4335 0.0
C2272 C 0.09894 0.32618 0.41681 0.0
C2273 C 0.08868 0.32471 0.39965 0.0
C2274 C 0.13552 0.34414 0.47165 0.0
C2275 C 0.12536 0.33784 0.48783 0.0
C2276 C 0.12641 0.34301 0.4538 0.0
C2277 C 0.1071 0.33593 0.45203 0.0
C2278 C 0.09701 0.32973 0.46823 0.0
C2279 C 0.10602 0.33057 0.48592 0.0
H2280 H 0.06224 0.3064 0.31174 0.0
H2281 H 0.09338 0.36711 0.30778 0.0
H2282 H 0.07537 0.30175 0.28281 0.0
H2283 H 0.10585 0.36252 0.27876 0.0
H2284 H 0.1429 0.35138 0.24219 0.0
H2285 H 0.12804 0.35412 0.2702 0.0
H2286 H 0.07684 0.30384 0.24864 0.0
H2287 H 0.09208 0.30086 0.22068 0.0
C2288 C 0.07164 0.31872 0.30455 0.0
C2289 C 0.07693 0.33713 0.31222 0.0
C2290 C 0.07915 0.31606 0.28793 0.0
C2291 C 0.09196 0.33177 0.27856 0.0
C2292 C 0.09651 0.35009 0.28585 0.0
C2293 C 0.08923 0.35273 0.30247 0.0
C2294 C 0.12843 0.34098 0.24335 0.0
C2295 C 0.1186 0.32604 0.22911 0.0
C2296 C 0.11985 0.34256 0.25942 0.0
C2297 C 0.10109 0.32937 0.26163 0.0
C2298 C 0.09132 0.3142 0.24752 0.0
C2299 C 0.10001 0.31251 0.23146 0.0
H2300 H 0.65679 0.74864 0.32196 0.0
H2301 H 0.69122 0.72802 0.29859 0.0
H2302 H 0.6616 0.7682 0.29471 0.0
H2303 H 0.69601 0.74742 0.27126 0.0
H2304 H 0.68205 0.76989 0.21616 0.0
H2305 H 0.67674 0.74953 0.24277 0.0
H2306 H 0.68958 0.79695 0.28299 0.0
H2307 H 0.69515 0.8173 0.25648 0.0
C2308 C 0.6654 0.74838 0.31096 0.0
C2309 C 0.67418 0.73746 0.31252 0.0
C2310 C 0.66819 0.75953 0.29545 0.0
C2311 C 0.67931 0.75943 0.281 0.0
C2312 C 0.68736 0.74774 0.28218 0.0
C2313 C 0.6848 0.73684 0.29785 0.0
C2314 C 0.68382 0.77591 0.23072 0.0
C2315 C 0.68908 0.79512 0.23435 0.0
C2316 C 0.68086 0.76433 0.2459 0.0
C2317 C 0.68276 0.7717 0.26491 0.0
C2318 C 0.68799 0.79091 0.26848 0.0
C2319 C 0.69128 0.80256 0.25336 0.0
H2320 H 0.27165 0.9482 0.34421 0.0
H2321 H 0.25181 0.88896 0.3526 0.0
H2322 H 0.2538 0.9392 0.31303 0.0
H2323 H 0.23375 0.88005 0.32146 0.0
H2324 H 0.19076 0.87315 0.2714 0.0
H2325 H 0.20605 0.88272 0.30413 0.0
H2326 H 0.25728 0.92314 0.28164 0.0
H2327 H 0.24212 0.91339 0.24906 0.0
C2328 C 0.26331 0.93326 0.33954 0.0
C2329 C 0.26322 0.9193 0.35088 0.0
C2330 C 0.25316 0.92814 0.32166 0.0
C2331 C 0.24244 0.90895 0.31488 0.0
C2332 C 0.24182 0.89494 0.32644 0.0
C2333 C 0.25224 0.90006 0.34419 0.0
C2334 C 0.20523 0.88419 0.27357 0.0
C2335 C 0.21533 0.89254 0.25782 0.0
C2336 C 0.21397 0.88956 0.2922 0.0
C2337 C 0.23281 0.90366 0.29535 0.0
C2338 C 0.24271 0.91235 0.2796 0.0
C2339 C 0.2341 0.90672 0.26101 0.0
H2340 H 0.69014 0.96123 0.32219 0.0
H2341 H 0.65122 0.90708 0.34178 0.0
H2342 H 0.69589 0.94534 0.29541 0.0
H2343 H 0.65608 0.89082 0.31431 0.0
H2344 H 0.68407 0.86792 0.27469 0.0
H2345 H 0.67801 0.8835 0.30189 0.0
H2346 H 0.68337 0.92799 0.26621 0.0
H2347 H 0.69047 0.91295 0.23971 0.0
C2348 C 0.68286 0.94584 0.32069 0.0
C2349 C 0.67088 0.93529 0.33434 0.0
C2350 C 0.68587 0.93668 0.30517 0.0
C2351 C 0.67657 0.91672 0.3027 0.0
C2352 C 0.66386 0.90618 0.316 0.0
C2353 C 0.66095 0.91543 0.33163 0.0
C2354 C 0.68405 0.8811 0.27289 0.0
C2355 C 0.68795 0.88944 0.25534 0.0
C2356 C 0.68041 0.88995 0.28833 0.0
C2357 C 0.68022 0.90707 0.28632 0.0
C2358 C 0.68383 0.91511 0.26852 0.0
C2359 C 0.68782 0.90648 0.25328 0.0
H2360 H 0.06714 0.77211 0.31614 0.0
H2361 H 0.06965 0.72736 0.28341 0.0
H2362 H 0.08193 0.79372 0.29088 0.0
H2363 H 0.08377 0.74863 0.25797 0.0
H2364 H 0.09561 0.7903 0.21018 0.0
H2365 H 0.07576 0.76976 0.23385 0.0
H2366 H 0.1171 0.80541 0.2794 0.0
H2367 H 0.13715 0.82562 0.2557 0.0
C2368 C 0.07031 0.76678 0.30327 0.0
C2369 C 0.06719 0.74812 0.30154 0.0
C2370 C 0.07886 0.77911 0.28895 0.0
C2371 C 0.08393 0.77276 0.27253 0.0
C2372 C 0.07984 0.75379 0.27041 0.0
C2373 C 0.07178 0.74165 0.28491 0.0
C2374 C 0.10031 0.79381 0.22527 0.0
C2375 C 0.11788 0.80944 0.23118 0.0
C2376 C 0.089 0.78211 0.23876 0.0
C2377 C 0.0949 0.78613 0.2584 0.0
C2378 C 0.11218 0.80216 0.26435 0.0
C2379 C 0.12367 0.8136 0.25083 0.0
H2380 H 0.24413 0.35279 0.34887 0.0
H2381 H 0.2624 0.31497 0.32668 0.0
H2382 H 0.22528 0.34732 0.3187 0.0
H2383 H 0.24262 0.30814 0.29733 0.0
H2384 H 0.22421 0.31716 0.23894 0.0
H2385 H 0.24138 0.32151 0.26963 0.0
H2386 H 0.19885 0.32648 0.29855 0.0
H2387 H 0.18238 0.32337 0.26738 0.0
C2388 C 0.24374 0.34299 0.33763 0.0
C2389 C 0.2541 0.33376 0.34021 0.0
C2390 C 0.23285 0.33969 0.32042 0.0
C2391 C 0.23229 0.32719 0.30547 0.0
C2392 C 0.24285 0.31809 0.30826 0.0
C2393 C 0.25392 0.32167 0.32525 0.0
C2394 C 0.2185 0.319 0.25192 0.0
C2395 C 0.20199 0.31982 0.25093 0.0
C2396 C 0.22826 0.3214 0.26957 0.0
C2397 C 0.22151 0.32425 0.28673 0.0
C2398 C 0.20467 0.32465 0.28568 0.0
C2399 C 0.19512 0.32268 0.2679 0.0
H2400 H 0.27589 0.36804 0.42844 0.0
H2401 H 0.24059 0.3077 0.43261 0.0
H2402 H 0.26546 0.37425 0.45875 0.0
H2403 H 0.23019 0.31388 0.46227 0.0
H2404 H 0.22504 0.32702 0.52265 0.0
H2405 H 0.24148 0.32541 0.49538 0.0
H2406 H 0.23626 0.37088 0.47121 0.0
H2407 H 0.22007 0.3727 0.49884 0.0
C2408 C 0.26604 0.35614 0.43583 0.0
C2409 C 0.25907 0.33738 0.42804 0.0
C2410 C 0.26001 0.3597 0.45311 0.0
C2411 C 0.2471 0.34455 0.463 0.0
C2412 C 0.24039 0.32587 0.45526 0.0
C2413 C 0.24626 0.32234 0.43807 0.0
C2414 C 0.22758 0.33679 0.5116 0.0
C2415 C 0.22107 0.34979 0.51271 0.0
C2416 C 0.23697 0.33588 0.49597 0.0
C2417 C 0.23991 0.34781 0.48096 0.0
C2418 C 0.23431 0.36156 0.48258 0.0
C2419 C 0.225 0.36257 0.49835 0.0
H2420 H 0.69452 0.93698 0.42633 0.0
H2421 H 0.63822 0.92675 0.41663 0.0
H2422 H 0.6858 0.91811 0.45382 0.0
H2423 H 0.62953 0.90778 0.44456 0.0
H2424 H 0.62058 0.8558 0.48044 0.0
H2425 H 0.62642 0.87665 0.45427 0.0
H2426 H 0.67648 0.92004 0.4864 0.0
H2427 H 0.67063 0.89933 0.51249 0.0
C2428 C 0.68026 0.93077 0.43007 0.0
C2429 C 0.66707 0.93343 0.41921 0.0
C2430 C 0.67531 0.92005 0.44597 0.0
C2431 C 0.65702 0.91159 0.45145 0.0
C2432 C 0.64373 0.91411 0.44062 0.0
C2433 C 0.64874 0.92503 0.4247 0.0
C2434 C 0.63263 0.86993 0.48204 0.0
C2435 C 0.64531 0.87582 0.49838 0.0
C2436 C 0.63596 0.88186 0.46707 0.0
C2437 C 0.65204 0.89987 0.46819 0.0
C2438 C 0.66417 0.90609 0.48496 0.0
C2439 C 0.66084 0.89422 0.49988 0.0
H2440 H 0.06718 0.7187 0.39846 0.0
H2441 H 0.08025 0.77337 0.37916 0.0
H2442 H 0.08768 0.73417 0.42769 0.0
H2443 H 0.10057 0.789 0.40868 0.0
H2444 H 0.13838 0.76977 0.4702 0.0
H2445 H 0.12234 0.75683 0.43841 0.0
H2446 H 0.09373 0.78885 0.44407 0.0
H2447 H 0.10894 0.8011 0.47613 0.0
C2448 C 0.07484 0.73407 0.40033 0.0
C2449 C 0.0728 0.74495 0.38637 0.0
C2450 C 0.08649 0.74291 0.41704 0.0
C2451 C 0.09586 0.76278 0.42031 0.0
C2452 C 0.09356 0.77366 0.40643 0.0
C2453 C 0.08203 0.76478 0.3896 0.0
C2454 C 0.12865 0.77404 0.46474 0.0
C2455 C 0.12491 0.78642 0.47589 0.0
C2456 C 0.11958 0.76672 0.44646 0.0
C2457 C 0.10685 0.77189 0.4388 0.0
C2458 C 0.10368 0.78484 0.44954 0.0
C2459 C 0.11249 0.79192 0.46792 0.0
H2460 H 0.37064 0.0997 0.73574 0.0
H2461 H 0.31264 0.05757 0.72277 0.0
H2462 H 0.36227 0.11385 0.76197 0.0
H2463 H 0.30423 0.07212 0.74859 0.0
H2464 H 0.29941 0.08979 0.8104 0.0
H2465 H 0.30629 0.07583 0.78271 0.0
H2466 H 0.3474 0.13194 0.76875 0.0
H2467 H 0.34078 0.14578 0.79679 0.0
C2468 C 0.35609 0.09351 0.73839 0.0
C2469 C 0.34234 0.07743 0.72718 0.0
C2470 C 0.35127 0.10173 0.75335 0.0
C2471 C 0.33256 0.09418 0.75737 0.0
C2472 C 0.3188 0.07816 0.74608 0.0
C2473 C 0.32363 0.06984 0.73122 0.0
C2474 C 0.30968 0.09913 0.8012 0.0
C2475 C 0.31958 0.11884 0.80572 0.0
C2476 C 0.31364 0.09115 0.78532 0.0
C2477 C 0.32751 0.10275 0.77355 0.0
C2478 C 0.33692 0.12256 0.77773 0.0
C2479 C 0.33307 0.1305 0.7937 0.0
H2480 H 0.9076 0.24186 0.75239 0.0
H2481 H 0.96004 0.26027 0.78488 0.0
H2482 H 0.89106 0.22199 0.77804 0.0
H2483 H 0.94358 0.24056 0.81068 0.0
H2484 H 0.90311 0.22227 0.86012 0.0
H2485 H 0.92095 0.24075 0.83437 0.0
H2486 H 0.88839 0.19254 0.79355 0.0
H2487 H 0.87057 0.17404 0.81931 0.0
C2488 C 0.91553 0.24145 0.76498 0.0
C2489 C 0.93503 0.25197 0.7665 0.0
C2490 C 0.90613 0.2301 0.77959 0.0
C2491 C 0.91607 0.22962 0.79625 0.0
C2492 C 0.93559 0.24064 0.79798 0.0
C2493 C 0.945 0.25174 0.78321 0.0
C2494 C 0.89985 0.21562 0.84565 0.0
C2495 C 0.88545 0.19675 0.84168 0.0
C2496 C 0.91011 0.22613 0.83097 0.0
C2497 C 0.90599 0.21807 0.81198 0.0
C2498 C 0.89176 0.19912 0.80805 0.0
C2499 C 0.88167 0.18852 0.82278 0.0
H2500 H 0.75725 0.65299 0.71802 0.0
H2501 H 0.73329 0.68364 0.74509 0.0
H2502 H 0.77581 0.65696 0.74827 0.0
H2503 H 0.75151 0.68744 0.77516 0.0
H2504 H 0.76502 0.66363 0.82887 0.0
H2505 H 0.74957 0.6619 0.79764 0.0
H2506 H 0.80222 0.68533 0.77251 0.0
H2507 H 0.81786 0.68717 0.80404 0.0
C2508 C 0.75618 0.66076 0.73039 0.0
C2509 C 0.74428 0.66843 0.72925 0.0
C2510 C 0.76678 0.66308 0.74759 0.0
C2511 C 0.76506 0.67252 0.76398 0.0
C2512 C 0.75305 0.68007 0.76275 0.0
C2513 C 0.74275 0.67802 0.74556 0.0
C2514 C 0.7733 0.6683 0.81667 0.0
C2515 C 0.79261 0.67542 0.81882 0.0
C2516 C 0.76448 0.66744 0.79885 0.0
C2517 C 0.77473 0.67348 0.78272 0.0
C2518 C 0.79404 0.68049 0.78475 0.0
C2519 C 0.80295 0.68163 0.80273 0.0
H2520 H 0.75506 0.69774 0.63597 0.0
H2521 H 0.72464 0.63738 0.64246 0.0
H2522 H 0.76553 0.69191 0.60592 0.0
H2523 H 0.73533 0.63158 0.61219 0.0
H2524 H 0.78222 0.6366 0.57265 0.0
H2525 H 0.76692 0.63893 0.60064 0.0
H2526 H 0.75256 0.67681 0.57244 0.0
H2527 H 0.76733 0.67408 0.54416 0.0
C2528 C 0.75051 0.68319 0.63094 0.0
C2529 C 0.73903 0.66802 0.64168 0.0
C2530 C 0.75643 0.67986 0.61362 0.0
C2531 C 0.75123 0.66129 0.60666 0.0
C2532 C 0.73961 0.64605 0.61725 0.0
C2533 C 0.73342 0.64937 0.63451 0.0
C2534 C 0.77543 0.64507 0.57216 0.0
C2535 C 0.77617 0.65525 0.55609 0.0
C2536 C 0.76669 0.64643 0.58827 0.0
C2537 C 0.75864 0.65814 0.58879 0.0
C2538 C 0.75887 0.66786 0.57256 0.0
C2539 C 0.76742 0.66636 0.55638 0.0
H2540 H 0.36011 0.05913 0.62918 0.0
H2541 H 0.3285 0.08214 0.65473 0.0
H2542 H 0.36547 0.0793 0.6024 0.0
H2543 H 0.33386 0.10243 0.62804 0.0
H2544 H 0.35151 0.10358 0.54864 0.0
H2545 H 0.34638 0.08288 0.57487 0.0
H2546 H 0.36209 0.13046 0.61599 0.0
H2547 H 0.36735 0.15113 0.58982 0.0
C2548 C 0.35446 0.06866 0.62905 0.0
C2549 C 0.34447 0.06971 0.64416 0.0
C2550 C 0.35734 0.08001 0.61371 0.0
C2551 C 0.35024 0.09255 0.61329 0.0
C2552 C 0.33975 0.09312 0.6282 0.0
C2553 C 0.33665 0.08155 0.64339 0.0
C2554 C 0.35394 0.10957 0.56331 0.0
C2555 C 0.35986 0.12891 0.56727 0.0
C2556 C 0.35111 0.09779 0.57827 0.0
C2557 C 0.35383 0.1051 0.59743 0.0
C2558 C 0.35983 0.12446 0.60136 0.0
C2559 C 0.36296 0.13629 0.58642 0.0
H2560 H 0.92099 0.21976 0.68402 0.0
H2561 H 0.93612 0.27786 0.67525 0.0
H2562 H 0.90209 0.20933 0.65356 0.0
H2563 H 0.91804 0.26762 0.64435 0.0
H2564 H 0.87382 0.2434 0.59516 0.0
H2565 H 0.88843 0.25184 0.62778 0.0
H2566 H 0.9052 0.20937 0.62072 0.0
H2567 H 0.88935 0.19996 0.58883 0.0
C2568 C 0.92035 0.23033 0.67555 0.0
C2569 C 0.9301 0.24965 0.68208 0.0
C2570 C 0.90959 0.22436 0.65798 0.0
C2571 C 0.90857 0.23761 0.64632 0.0
C2572 C 0.91818 0.25693 0.65301 0.0
C2573 C 0.92869 0.26285 0.67071 0.0
C2574 C 0.88027 0.23558 0.60071 0.0
C2575 C 0.8805 0.22109 0.58922 0.0
C2576 C 0.88893 0.24063 0.61937 0.0
C2577 C 0.8982 0.23144 0.62695 0.0
C2578 C 0.89806 0.21667 0.61557 0.0
C2579 C 0.88921 0.21147 0.59706 0.0
H2580 H 0.32183 0.24399 0.67302 0.0
H2581 H 0.36028 0.29807 0.65296 0.0
H2582 H 0.32752 0.22766 0.64629 0.0
H2583 H 0.36692 0.2821 0.62692 0.0
H2584 H 0.36238 0.24873 0.57191 0.0
H2585 H 0.35532 0.26434 0.59793 0.0
H2586 H 0.34955 0.22041 0.63465 0.0
H2587 H 0.35552 0.20424 0.60794 0.0
C2588 C 0.33168 0.25232 0.66295 0.0
C2589 C 0.34122 0.2722 0.66534 0.0
C2590 C 0.33508 0.24303 0.64774 0.0
C2591 C 0.34791 0.2535 0.63452 0.0
C2592 C 0.35685 0.27348 0.63664 0.0
C2593 C 0.35333 0.28269 0.65175 0.0
C2594 C 0.35967 0.24252 0.58562 0.0
C2595 C 0.3596 0.22543 0.58809 0.0
C2596 C 0.35571 0.25149 0.60059 0.0
C2597 C 0.35192 0.24373 0.61852 0.0
C2598 C 0.35205 0.22664 0.62097 0.0
C2599 C 0.35564 0.21745 0.6058 0.0
H2600 H 0.76745 0.07817 0.64065 0.0
H2601 H 0.7196 0.08608 0.63323 0.0
H2602 H 0.78203 0.09937 0.61593 0.0
H2603 H 0.73463 0.10779 0.60821 0.0
H2604 H 0.76216 0.12727 0.54927 0.0
H2605 H 0.74514 0.10767 0.57483 0.0
H2606 H 0.796 0.13339 0.61202 0.0
H2607 H 0.81292 0.15287 0.58665 0.0
C2608 C 0.75996 0.08443 0.63379 0.0
C2609 C 0.74227 0.08036 0.63909 0.0
C2610 C 0.76847 0.09677 0.61964 0.0
C2611 C 0.75963 0.10548 0.61025 0.0
C2612 C 0.74179 0.10127 0.6152 0.0
C2613 C 0.73322 0.08889 0.62956 0.0
C2614 C 0.76963 0.12891 0.56301 0.0
C2615 C 0.78896 0.14142 0.56582 0.0
C2616 C 0.75987 0.11771 0.57765 0.0
C2617 C 0.76926 0.11879 0.59537 0.0
C2618 C 0.78842 0.13191 0.5984 0.0
C2619 C 0.79814 0.14305 0.58383 0.0
H2620 H 0.91763 0.64598 0.65608 0.0
H2621 H 0.90398 0.68563 0.68335 0.0
H2622 H 0.89684 0.64171 0.62797 0.0
H2623 H 0.8836 0.68196 0.65474 0.0
H2624 H 0.87838 0.68826 0.5867 0.0
H2625 H 0.89272 0.69036 0.61852 0.0
H2626 H 0.86031 0.6295 0.61979 0.0
H2627 H 0.84485 0.62727 0.58841 0.0
C2628 C 0.90977 0.65339 0.65619 0.0
C2629 C 0.91169 0.66548 0.67208 0.0
C2630 C 0.89798 0.65104 0.64012 0.0
C2631 C 0.88845 0.66129 0.6394 0.0
C2632 C 0.89068 0.67375 0.65513 0.0
C2633 C 0.90226 0.67585 0.6714 0.0
C2634 C 0.87372 0.67532 0.59392 0.0
C2635 C 0.86042 0.65755 0.5848 0.0
C2636 C 0.88205 0.67657 0.61216 0.0
C2637 C 0.87758 0.6601 0.62152 0.0
C2638 C 0.86398 0.6424 0.61279 0.0
C2639 C 0.85531 0.64115 0.59472 0.0
H2640 H 0.89846 0.63879 0.76186 0.0
H2641 H 0.94002 0.69797 0.76025 0.0
H2642 H 0.88961 0.64587 0.79213 0.0
H2643 H 0.93111 0.70504 0.79111 0.0
H2644 H 0.88848 0.70852 0.83209 0.0
H2645 H 0.90342 0.70526 0.80403 0.0
H2646 H 0.90185 0.65541 0.8256 0.0
H2647 H 0.88681 0.65857 0.85342 0.0
C2648 C 0.90584 0.65335 0.76801 0.0
C2649 C 0.91998 0.66782 0.75852 0.0
C2650 C 0.90083 0.65737 0.78553 0.0
C2651 C 0.90976 0.67598 0.79414 0.0
C2652 C 0.92396 0.69055 0.78478 0.0
C2653 C 0.9291 0.68649 0.76717 0.0
C2654 C 0.8917 0.69712 0.83099 0.0
C2655 C 0.88622 0.68361 0.84477 0.0
C2656 C 0.90027 0.69526 0.81495 0.0
C2657 C 0.90354 0.6799 0.81246 0.0
C2658 C 0.89914 0.66716 0.8269 0.0
C2659 C 0.89053 0.66896 0.84283 0.0
H2660 H 0.3069 0.2624 0.74694 0.0
H2661 H 0.36329 0.27279 0.75628 0.0
H2662 H 0.29838 0.24336 0.77482 0.0
H2663 H 0.35474 0.25386 0.78372 0.0
H2664 H 0.34033 0.23554 0.84247 0.0
H2665 H 0.34566 0.25611 0.81635 0.0
H2666 H 0.29544 0.21233 0.78478 0.0
H2667 H 0.29008 0.19164 0.81106 0.0
C2668 C 0.31747 0.26068 0.7549 0.0
C2669 C 0.3358 0.2692 0.74935 0.0
C2670 C 0.31256 0.24972 0.7708 0.0
C2671 C 0.32594 0.24729 0.78155 0.0
C2672 C 0.34419 0.25576 0.77595 0.0
C2673 C 0.34905 0.26653 0.76008 0.0
C2674 C 0.33037 0.23034 0.83001 0.0
C2675 C 0.31496 0.21187 0.82866 0.0
C2676 C 0.33341 0.24211 0.81506 0.0
C2677 C 0.32113 0.23571 0.7984 0.0
C2678 C 0.30511 0.21766 0.79748 0.0
C2679 C 0.30205 0.20583 0.81251 0.0
H2680 H 0.73021 0.04546 0.73408 0.0
H2681 H 0.75128 0.10241 0.71692 0.0
H2682 H 0.74965 0.05778 0.76415 0.0
H2683 H 0.7699 0.11512 0.74765 0.0
H2684 H 0.81252 0.13247 0.79861 0.0
H2685 H 0.79586 0.1194 0.76696 0.0
H2686 H 0.75145 0.073 0.79334 0.0
H2687 H 0.76866 0.08554 0.82452 0.0
C2688 C 0.73925 0.06067 0.73674 0.0
C2689 C 0.73995 0.07299 0.72298 0.0
C2690 C 0.75014 0.0678 0.75413 0.0
C2691 C 0.76146 0.08751 0.75844 0.0
C2692 C 0.76175 0.09986 0.74471 0.0
C2693 C 0.75101 0.09265 0.72718 0.0
C2694 C 0.79927 0.11938 0.79746 0.0
C2695 C 0.79189 0.10989 0.81387 0.0
C2696 C 0.78964 0.11195 0.77939 0.0
C2697 C 0.77224 0.0951 0.77748 0.0
C2698 C 0.76496 0.08572 0.79406 0.0
C2699 C 0.77475 0.09294 0.81199 0.0
H2700 H 0.02652 0.33861 0.05291 0.0
H2701 H 0.07501 0.39451 0.05344 0.0
H2702 H 0.04462 0.32831 0.0727 0.0
H2703 H 0.09275 0.38435 0.07337 0.0
H2704 H 0.1255 0.35604 0.08999 0.0
H2705 H 0.10569 0.36361 0.06972 0.0
H2706 H 0.06034 0.33337 0.1052 0.0
H2707 H 0.0803 0.32552 0.12546 0.0
C2708 C 0.04096 0.34872 0.05729 0.0
C2709 C 0.04931 0.36736 0.05145 0.0
C2710 C 0.05129 0.34283 0.0687 0.0
C2711 C 0.07016 0.35546 0.07445 0.0
C2712 C 0.07835 0.37414 0.06886 0.0
C2713 C 0.0681 0.38 0.05749 0.0
C2714 C 0.11131 0.35107 0.09351 0.0
C2715 C 0.10451 0.34051 0.10948 0.0
C2716 C 0.09996 0.3554 0.08191 0.0
C2717 C 0.08154 0.34937 0.08604 0.0
C2718 C 0.07447 0.33817 0.10163 0.0
C2719 C 0.08587 0.33373 0.11324 0.0
H2720 H 0.67206 0.67368 0.10725 0.0
H2721 H 0.63672 0.68199 0.06587 0.0
H2722 H 0.68566 0.70666 0.12003 0.0
H2723 H 0.64958 0.71454 0.07909 0.0
H2724 H 0.68397 0.77628 0.09563 0.0
H2725 H 0.67586 0.74487 0.08166 0.0
H2726 H 0.67855 0.72693 0.13852 0.0
H2727 H 0.68762 0.75879 0.15225 0.0
C2728 C 0.66717 0.68255 0.10093 0.0
C2729 C 0.65334 0.67528 0.08556 0.0
C2730 C 0.67489 0.70143 0.10832 0.0
C2731 C 0.66879 0.71336 0.10061 0.0
C2732 C 0.65498 0.70598 0.08516 0.0
C2733 C 0.64746 0.68723 0.07764 0.0
C2734 C 0.68311 0.76564 0.10503 0.0
C2735 C 0.68632 0.76979 0.12495 0.0
C2736 C 0.6783 0.7476 0.0971 0.0
C2737 C 0.6762 0.73318 0.10895 0.0
C2738 C 0.68019 0.73767 0.12891 0.0
C2739 C 0.68533 0.75587 0.13682 0.0
H2740 H 0.32782 0.9918 0.05702 0.0
H2741 H 0.31847 0.9392 0.02888 0.0
H2742 H 0.29847 0.97493 0.07151 0.0
H2743 H 0.28949 0.92191 0.04432 0.0
H2744 H 0.23229 0.89621 0.0671 0.0
H2745 H 0.25863 0.91407 0.04805 0.0
H2746 H 0.28682 0.95557 0.09632 0.0
H2747 H 0.2602 0.93819 0.11476 0.0
C2748 C 0.31941 0.97657 0.05393 0.0
C2749 C 0.32545 0.96678 0.04194 0.0
C2750 C 0.30263 0.96682 0.0624 0.0
C2751 C 0.29165 0.94692 0.05951 0.0
C2752 C 0.2974 0.93722 0.04683 0.0
C2753 C 0.31406 0.94709 0.038 0.0
C2754 C 0.2441 0.90927 0.07347 0.0
C2755 C 0.24417 0.91592 0.09233 0.0
C2756 C 0.25926 0.91946 0.06263 0.0
C2757 C 0.27496 0.93638 0.07053 0.0
C2758 C 0.27488 0.94294 0.08945 0.0
C2759 C 0.25963 0.93293 0.10013 0.0
H2760 H 0.39811 0.06696 0.0049 0.0
H2761 H 0.34472 0.01565 0.99402 0.0
H2762 H 0.38506 0.08511 0.99069 0.0
H2763 H 0.33179 0.03387 0.97947 0.0
H2764 H 0.31095 0.077 0.97381 0.0
H2765 H 0.32337 0.05812 0.98816 0.0
H2766 H 0.37373 0.08896 0.95952 0.0
H2767 H 0.3614 0.10775 0.9453 0.0
C2768 C 0.38363 0.05949 0.99935 0.0
C2769 C 0.37251 0.03979 0.00057 0.0
C2770 C 0.37616 0.06992 0.99113 0.0
C2771 C 0.35739 0.06094 0.98391 0.0
C2772 C 0.34624 0.04125 0.9851 0.0
C2773 C 0.35372 0.03079 0.99332 0.0
C2774 C 0.32464 0.07967 0.97056 0.0
C2775 C 0.33528 0.09402 0.95862 0.0
C2776 C 0.33174 0.06884 0.97873 0.0
C2777 C 0.34959 0.07212 0.97507 0.0
C2778 C 0.36009 0.08633 0.96295 0.0
C2779 C 0.35303 0.09713 0.95483 0.0
H2780 H 0.99351 0.31397 0.98029 0.0
H2781 H 0.9517 0.30985 0.01721 0.0
H2782 H 0.97227 0.28184 0.96621 0.0
H2783 H 0.93019 0.27825 0.00262 0.0
H2784 H 0.89681 0.21751 0.98184 0.0
H2785 H 0.92201 0.24637 0.99882 0.0
H2786 H 0.94538 0.26578 0.94487 0.0
H2787 H 0.92062 0.2363 0.92823 0.0
C2788 C 0.97979 0.30615 0.98544 0.0
C2789 C 0.97423 0.31443 0.99981 0.0
C2790 C 0.96756 0.28778 0.97728 0.0
C2791 C 0.94942 0.2774 0.98314 0.0
C2792 C 0.94412 0.28558 0.99792 0.0
C2793 C 0.95643 0.30381 0.00624 0.0
C2794 C 0.90759 0.22787 0.97377 0.0
C2795 C 0.90688 0.22487 0.95382 0.0
C2796 C 0.92193 0.24447 0.98341 0.0
C2797 C 0.93565 0.25863 0.97323 0.0
C2798 C 0.93524 0.25517 0.95327 0.0
C2799 C 0.92104 0.23836 0.94368 0.0
H2800 H 0.67946 0.60048 0.03785 0.0
H2801 H 0.67884 0.65324 0.03415 0.0
H2802 H 0.70689 0.61292 0.01973 0.0
H2803 H 0.70644 0.66572 0.01633 0.0
H2804 H 0.74124 0.67129 0.96497 0.0
H2805 H 0.71493 0.66042 0.98468 0.0
H2806 H 0.73995 0.63685 0.02232 0.0
H2807 H 0.76629 0.64777 0.00265 0.0
C2808 C 0.6852 0.61476 0.03329 0.0
C2809 C 0.67683 0.62579 0.03743 0.0
C2810 C 0.70102 0.62194 0.023 0.0
C2811 C 0.70885 0.64031 0.01655 0.0
C2812 C 0.70062 0.65142 0.02086 0.0
C2813 C 0.68483 0.64427 0.0312 0.0
C2814 C 0.74127 0.66405 0.97762 0.0
C2815 C 0.75585 0.66035 0.98219 0.0
C2816 C 0.72618 0.65779 0.98891 0.0
C2817 C 0.72529 0.64768 0.00503 0.0
C2818 C 0.74004 0.6443 0.00981 0.0
C2819 C 0.75514 0.65058 0.99854 0.0
H2820 H 0.98709 0.67313 0.99149 0.0
H2821 H 0.94709 0.65111 0.03405 0.0
H2822 H 0.96752 0.68292 0.97382 0.0
H2823 H 0.92737 0.66074 0.01618 0.0
H2824 H 0.90284 0.69343 0.98637 0.0
H2825 H 0.92531 0.68844 0.00562 0.0
H2826 H 0.93739 0.66599 0.95473 0.0
H2827 H 0.91528 0.67139 0.93546 0.0
C2828 C 0.97418 0.67052 0.99718 0.0
C2829 C 0.96858 0.66123 0.01412 0.0
C2830 C 0.96293 0.67604 0.98697 0.0
C2831 C 0.94582 0.67246 0.9935 0.0
C2832 C 0.94054 0.66383 0.01085 0.0
C2833 C 0.9518 0.65824 0.02104 0.0
C2834 C 0.91056 0.68776 0.97926 0.0
C2835 C 0.90733 0.68283 0.95939 0.0
C2836 C 0.92327 0.68471 0.99032 0.0
C2837 C 0.9331 0.67678 0.98172 0.0
C2838 C 0.93019 0.67231 0.96177 0.0
C2839 C 0.91741 0.67524 0.95075 0.0
H2840 H 0.37631 0.31625 0.00294 0.0
H2841 H 0.34053 0.33219 0.97138 0.0
H2842 H 0.3599 0.28481 0.98592 0.0
H2843 H 0.32436 0.30066 0.95397 0.0
H2844 H 0.32585 0.25217 0.91225 0.0
H2845 H 0.33663 0.28297 0.93 0.0
H2846 H 0.32518 0.25558 0.9831 0.0
H2847 H 0.31412 0.22478 0.96535 0.0
C2848 C 0.36494 0.31305 0.99237 0.0
C2849 C 0.35972 0.32671 0.98848 0.0
C2850 C 0.35548 0.29501 0.98274 0.0
C2851 C 0.34084 0.29035 0.96875 0.0
C2852 C 0.3356 0.30396 0.96475 0.0
C2853 C 0.34482 0.32193 0.97471 0.0
C2854 C 0.32528 0.25275 0.92767 0.0
C2855 C 0.31916 0.23619 0.93748 0.0
C2856 C 0.33136 0.27029 0.93778 0.0
C2857 C 0.33177 0.27157 0.95787 0.0
C2858 C 0.32501 0.25491 0.9676 0.0
C2859 C 0.3186 0.23733 0.95747 0.0
H2860 H 0.66626 0.01859 0.00145 0.0
H2861 H 0.68305 0.06293 0.04685 0.0
H2862 H 0.69573 0.03699 0.98767 0.0
H2863 H 0.71293 0.08144 0.03303 0.0
H2864 H 0.75007 0.11661 0.98496 0.0
H2865 H 0.72355 0.09855 0.00362 0.0
H2866 H 0.72907 0.04877 0.99338 0.0
H2867 H 0.75516 0.06663 0.9742 0.0
C2868 C 0.67634 0.03223 0.00861 0.0
C2869 C 0.67228 0.03936 0.0252 0.0
C2870 C 0.69333 0.04272 0.00078 0.0
C2871 C 0.70671 0.06065 0.00928 0.0
C2872 C 0.70283 0.0677 0.02609 0.0
C2873 C 0.68578 0.05709 0.03404 0.0
C2874 C 0.74564 0.10181 0.98674 0.0
C2875 C 0.75459 0.09299 0.97791 0.0
C2876 C 0.73059 0.09154 0.99762 0.0
C2877 C 0.72413 0.0722 0.99987 0.0
C2878 C 0.73358 0.0636 0.99171 0.0
C2879 C 0.74864 0.07388 0.98087 0.0
H2880 H 0.60644 0.938 0.06448 0.0
H2881 H 0.65946 0.98978 0.06532 0.0
H2882 H 0.62212 0.92146 0.0764 0.0
H2883 H 0.67523 0.97298 0.07679 0.0
H2884 H 0.69215 0.94028 0.11934 0.0
H2885 H 0.67922 0.95862 0.10486 0.0
H2886 H 0.64198 0.90968 0.0665 0.0
H2887 H 0.65459 0.89133 0.0814 0.0
C2888 C 0.62146 0.94586 0.0671 0.0
C2889 C 0.63166 0.96525 0.06396 0.0
C2890 C 0.63048 0.9363 0.07379 0.0
C2891 C 0.64996 0.94584 0.07737 0.0
C2892 C 0.6602 0.96525 0.07431 0.0
C2893 C 0.65115 0.97487 0.06771 0.0
C2894 C 0.68147 0.93364 0.10755 0.0
C2895 C 0.67424 0.9144 0.10154 0.0
C2896 C 0.67405 0.9441 0.09925 0.0
C2897 C 0.65936 0.93553 0.08472 0.0
C2898 C 0.65294 0.91658 0.078 0.0
C2899 C 0.66023 0.9061 0.0864 0.0
H2900 H 0.06019 0.67995 0.08569 0.0
H2901 H 0.02121 0.69716 0.06454 0.0
H2902 H 0.07777 0.71003 0.10498 0.0
H2903 H 0.03899 0.72742 0.08391 0.0
H2904 H 0.094 0.7868 0.09909 0.0
H2905 H 0.07161 0.75606 0.08285 0.0
H2906 H 0.07423 0.72827 0.13322 0.0
H2907 H 0.09624 0.75903 0.14976 0.0
C2908 C 0.0553 0.6901 0.08523 0.0
C2909 C 0.03933 0.68617 0.07351 0.0
C2910 C 0.0653 0.70728 0.09641 0.0
C2911 C 0.05972 0.72103 0.09596 0.0
C2912 C 0.04363 0.71707 0.08445 0.0
C2913 C 0.03343 0.69973 0.07345 0.0
C2914 C 0.08944 0.77422 0.10693 0.0
C2915 C 0.09707 0.77541 0.1257 0.0
C2916 C 0.07664 0.7566 0.09757 0.0
C2917 C 0.07132 0.73979 0.10672 0.0
C2918 C 0.07831 0.741 0.12574 0.0
C2919 C 0.09096 0.75862 0.13517 0.0
H2920 H 0.32522 0.34373 0.05487 0.0
H2921 H 0.31351 0.37838 0.01767 0.0
H2922 H 0.29666 0.33478 0.07005 0.0
H2923 H 0.28451 0.36917 0.03289 0.0
H2924 H 0.25068 0.36883 0.08486 0.0
H2925 H 0.27607 0.37546 0.06472 0.0
H2926 H 0.26286 0.3169 0.06487 0.0
H2927 H 0.23787 0.31042 0.08552 0.0
C2928 C 0.31641 0.34928 0.04976 0.0
C2929 C 0.3217 0.36186 0.03511 0.0
C2930 C 0.29992 0.34401 0.0584 0.0
C2931 C 0.28826 0.35124 0.05271 0.0
C2932 C 0.29328 0.36348 0.03771 0.0
C2933 C 0.30981 0.36866 0.02891 0.0
C2934 C 0.2532 0.35737 0.08059 0.0
C2935 C 0.24236 0.33914 0.087 0.0
C2936 C 0.2676 0.36111 0.06883 0.0
C2937 C 0.27157 0.34674 0.06325 0.0
C2938 C 0.2603 0.32835 0.06909 0.0
C2939 C 0.24587 0.32459 0.0808 0.0
H2940 H 0.7385 0.7292 0.38566 0.0
H2941 H 0.68848 0.67468 0.38662 0.0
H2942 H 0.75591 0.71768 0.4041 0.0
H2943 H 0.70625 0.66302 0.40496 0.0
H2944 H 0.74361 0.65924 0.45598 0.0
H2945 H 0.72347 0.66774 0.43688 0.0
H2946 H 0.76682 0.69524 0.39853 0.0
H2947 H 0.78683 0.68703 0.41764 0.0
C2948 C 0.73118 0.71471 0.38973 0.0
C2949 C 0.71206 0.70285 0.38452 0.0
C2950 C 0.74123 0.70807 0.40024 0.0
C2951 C 0.73251 0.68936 0.40578 0.0
C2952 C 0.71333 0.67753 0.40094 0.0
C2953 C 0.70319 0.6842 0.39037 0.0
C2954 C 0.74867 0.66692 0.44334 0.0
C2955 C 0.76686 0.67282 0.43846 0.0
C2956 C 0.73717 0.67175 0.4324 0.0
C2957 C 0.7437 0.68245 0.41641 0.0
C2958 C 0.76156 0.68743 0.41106 0.0
C2959 C 0.77302 0.68272 0.42198 0.0
H2960 H 0.34029 0.00637 0.44206 0.0
H2961 H 0.3068 0.01566 0.39924 0.0
H2962 H 0.35413 0.03939 0.45484 0.0
H2963 H 0.31983 0.0482 0.41242 0.0
H2964 H 0.35422 0.10975 0.42951 0.0
H2965 H 0.34616 0.07832 0.41566 0.0
H2966 H 0.34709 0.06003 0.4727 0.0
H2967 H 0.35618 0.09193 0.48632 0.0
C2968 C 0.33587 0.01547 0.43541 0.0
C2969 C 0.32248 0.00844 0.41963 0.0
C2970 C 0.34371 0.03437 0.44279 0.0
C2971 C 0.33817 0.04658 0.43469 0.0
C2972 C 0.32482 0.03945 0.41882 0.0
C2973 C 0.31719 0.02069 0.41131 0.0
C2974 C 0.353 0.09903 0.43898 0.0
C2975 C 0.35574 0.10311 0.45891 0.0
C2976 C 0.3482 0.08097 0.43111 0.0
C2977 C 0.34562 0.06644 0.44304 0.0
C2978 C 0.34911 0.07084 0.46303 0.0
C2979 C 0.35426 0.08907 0.47088 0.0
H2980 H 0.97901 0.2822 0.35139 0.0
H2981 H 0.00246 0.315 0.40575 0.0
H2982 H 0.94869 0.26464 0.36468 0.0
H2983 H 0.97282 0.29729 0.41907 0.0
H2984 H 0.91597 0.27475 0.43657 0.0
H2985 H 0.94267 0.29299 0.41865 0.0
H2986 H 0.93263 0.24146 0.38714 0.0
H2987 H 0.90494 0.2233 0.40409 0.0
C2988 C 0.9777 0.28565 0.36613 0.0
C2989 C 0.99313 0.30005 0.37746 0.0
C2990 C 0.96037 0.27555 0.37379 0.0
C2991 C 0.95819 0.27963 0.39294 0.0
C2992 C 0.97372 0.29402 0.40415 0.0
C2993 C 0.99086 0.30412 0.39651 0.0
C2994 C 0.91906 0.26729 0.42547 0.0
C2995 C 0.90827 0.24744 0.42199 0.0
C2996 C 0.93464 0.27776 0.41536 0.0
C2997 C 0.94012 0.2687 0.40168 0.0
C2998 C 0.92887 0.24897 0.39754 0.0
C2999 C 0.91311 0.23849 0.4075 0.0
H3000 H 0.01584 0.35268 0.32267 0.0
H3001 H 0.0572 0.40254 0.35732 0.0
H3002 H 0.00381 0.37156 0.30791 0.0
H3003 H 0.0447 0.42122 0.34325 0.0
H3004 H 0.03476 0.45343 0.29663 0.0
H3005 H 0.04468 0.43435 0.31407 0.0
H3006 H 0.98763 0.38867 0.31155 0.0
H3007 H 0.97785 0.40742 0.29288 0.0
C3008 C 0.02217 0.36761 0.32736 0.0
C3009 C 0.03761 0.37615 0.341 0.0
C3010 C 0.0152 0.37843 0.31898 0.0
C3011 C 0.02336 0.398 0.32425 0.0
C3012 C 0.03833 0.40632 0.33848 0.0
C3013 C 0.04546 0.39557 0.34663 0.0
C3014 C 0.02431 0.43927 0.29965 0.0
C3015 C 0.00553 0.4319 0.29311 0.0
C3016 C 0.02998 0.42839 0.30995 0.0
C3017 C 0.01698 0.4099 0.31425 0.0
C3018 C 0.99807 0.40274 0.30827 0.0
C3019 C 0.99242 0.41359 0.29778 0.0
H3020 H 0.65752 0.65183 0.31395 0.0
H3021 H 0.61495 0.64678 0.35023 0.0
H3022 H 0.63699 0.61946 0.30005 0.0
H3023 H 0.59414 0.61491 0.33582 0.0
H3024 H 0.56249 0.55384 0.31611 0.0
H3025 H 0.58713 0.58328 0.33276 0.0
H3026 H 0.61016 0.60246 0.27863 0.0
H3027 H 0.58597 0.57244 0.26232 0.0
C3028 C 0.64378 0.64377 0.31898 0.0
C3029 C 0.63781 0.65183 0.33315 0.0
C3030 C 0.63196 0.62526 0.31093 0.0
C3031 C 0.61383 0.61451 0.31671 0.0
C3032 C 0.60809 0.62253 0.33122 0.0
C3033 C 0.61999 0.64091 0.33942 0.0
C3034 C 0.57309 0.56428 0.30793 0.0
C3035 C 0.57244 0.56106 0.28802 0.0
C3036 C 0.5871 0.58121 0.31738 0.0
C3037 C 0.60052 0.59546 0.30704 0.0
C3038 C 0.60023 0.59179 0.28714 0.0
C3039 C 0.58637 0.57466 0.27774 0.0
H3040 H 0.34991 0.98454 0.37272 0.0
H3041 H 0.34069 0.92717 0.36836 0.0
H3042 H 0.37707 0.99485 0.35446 0.0
H3043 H 0.36753 0.93742 0.34968 0.0
H3044 H 0.42648 0.96487 0.33129 0.0
H3045 H 0.40084 0.95582 0.35167 0.0
H3046 H 0.38467 0.99193 0.32232 0.0
H3047 H 0.41049 0.00116 0.30217 0.0
C3048 C 0.35363 0.9741 0.36786 0.0
C3049 C 0.34302 0.95499 0.37201 0.0
C3050 C 0.36917 0.98001 0.35727 0.0
C3051 C 0.37448 0.96697 0.35051 0.0
C3052 C 0.36402 0.94792 0.35487 0.0
C3053 C 0.34853 0.94201 0.36551 0.0
C3054 C 0.41741 0.97083 0.32918 0.0
C3055 C 0.42049 0.98369 0.3151 0.0
C3056 C 0.40269 0.96562 0.34084 0.0
C3057 C 0.39062 0.97308 0.33862 0.0
C3058 C 0.39385 0.98612 0.32465 0.0
C3059 C 0.40863 0.9914 0.31307 0.0
H3060 H 0.61543 0.97739 0.37 0.0
H3061 H 0.65315 0.99697 0.32517 0.0
H3062 H 0.59468 0.98575 0.35215 0.0
H3063 H 0.63254 0.00546 0.30749 0.0
H3064 H 0.57855 0.99135 0.27093 0.0
H3065 H 0.60152 0.98706 0.29002 0.0
H3066 H 0.5919 0.01274 0.34021 0.0
H3067 H 0.56861 0.01667 0.32115 0.0
C3068 C 0.61942 0.98373 0.35649 0.0
C3069 C 0.63586 0.98639 0.34895 0.0
C3070 C 0.60757 0.98858 0.3463 0.0
C3071 C 0.6119 0.99611 0.32832 0.0
C3072 C 0.62868 0.99941 0.32115 0.0
C3073 C 0.64054 0.99464 0.33135 0.0
C3074 C 0.58139 0.99612 0.28603 0.0
C3075 C 0.57179 0.00434 0.29454 0.0
C3076 C 0.59465 0.99382 0.29693 0.0
C3077 C 0.59853 0.99958 0.31663 0.0
C3078 C 0.58912 0.00805 0.3251 0.0
C3079 C 0.57594 0.01048 0.31415 0.0
H3080 H 0.00099 0.66099 0.31418 0.0
H3081 H 0.05573 0.66682 0.31318 0.0
H3082 H 0.98773 0.63052 0.2951 0.0
H3083 H 0.04251 0.63663 0.29453 0.0
H3084 H 0.01854 0.59162 0.24684 0.0
H3085 H 0.02809 0.62291 0.26218 0.0
H3086 H 0.98283 0.59768 0.29876 0.0
H3087 H 0.97316 0.56625 0.28318 0.0
C3088 C 0.01019 0.65585 0.3099 0.0
C3089 C 0.02945 0.66642 0.31521 0.0
C3090 C 0.00258 0.63838 0.29904 0.0
C3091 C 0.0141 0.63129 0.29315 0.0
C3092 C 0.0333 0.64187 0.29849 0.0
C3093 C 0.04086 0.65916 0.30937 0.0
C3094 C 0.01052 0.59279 0.25802 0.0
C3095 C 0.99529 0.57651 0.26403 0.0
C3096 C 0.01599 0.61068 0.26682 0.0
C3097 C 0.0064 0.6127 0.28191 0.0
C3098 C 0.99045 0.59657 0.28713 0.0
C3099 C 0.98492 0.5786 0.27824 0.0
H3100 H 0.3505 0.39635 0.38101 0.0
H3101 H 0.33305 0.35181 0.33569 0.0
H3102 H 0.37987 0.41501 0.3664 0.0
H3103 H 0.36202 0.37039 0.32109 0.0
H3104 H 0.42117 0.40062 0.30619 0.0
H3105 H 0.39538 0.38249 0.32562 0.0
H3106 H 0.38982 0.4321 0.33709 0.0
H3107 H 0.41606 0.45042 0.31822 0.0
C3108 C 0.35298 0.39051 0.36804 0.0
C3109 C 0.33943 0.37265 0.35947 0.0
C3110 C 0.36974 0.40121 0.35962 0.0
C3111 C 0.3733 0.39417 0.34259 0.0
C3112 C 0.35988 0.37613 0.33435 0.0
C3113 C 0.34317 0.36553 0.34266 0.0
C3114 C 0.41469 0.40777 0.31317 0.0
C3115 C 0.42058 0.42693 0.31052 0.0
C3116 C 0.39979 0.39733 0.32415 0.0
C3117 C 0.39043 0.40581 0.33277 0.0
C3118 C 0.39679 0.42517 0.33076 0.0
C3119 C 0.41168 0.4356 0.31974 0.0
H3120 H 0.32806 0.32422 0.40174 0.0
H3121 H 0.27543 0.27203 0.40128 0.0
H3122 H 0.3443 0.30768 0.41271 0.0
H3123 H 0.29158 0.25576 0.41263 0.0
H3124 H 0.32451 0.2261 0.41524 0.0
H3125 H 0.31164 0.24463 0.40128 0.0
H3126 H 0.34872 0.29283 0.44052 0.0
H3127 H 0.36189 0.27431 0.45412 0.0
C3128 C 0.31993 0.30928 0.40412 0.0
C3129 C 0.30042 0.29945 0.40057 0.0
C3130 C 0.32925 0.29982 0.41043 0.0
C3131 C 0.31926 0.28036 0.41333 0.0
C3132 C 0.29975 0.27065 0.41008 0.0
C3133 C 0.29046 0.28005 0.40373 0.0
C3134 C 0.33008 0.24076 0.42064 0.0
C3135 C 0.34408 0.24878 0.4358 0.0
C3136 C 0.32264 0.25132 0.41277 0.0
C3137 C 0.32891 0.27009 0.42005 0.0
C3138 C 0.34364 0.27845 0.43453 0.0
C3139 C 0.3512 0.26788 0.44231 0.0
H3140 H 0.69096 0.02502 0.39695 0.0
H3141 H 0.73123 0.00861 0.41557 0.0
H3142 H 0.71018 0.05619 0.41437 0.0
H3143 H 0.74992 0.03919 0.43334 0.0
H3144 H 0.79047 0.10152 0.44289 0.0
H3145 H 0.76958 0.07091 0.42585 0.0
H3146 H 0.72227 0.07348 0.44574 0.0
H3147 H 0.74345 0.10466 0.46248 0.0
C3148 C 0.70377 0.02797 0.40493 0.0
C3149 C 0.7097 0.01444 0.40465 0.0
C3150 C 0.71474 0.04579 0.41497 0.0
C3151 C 0.73175 0.05031 0.42502 0.0
C3152 C 0.7372 0.03643 0.42532 0.0
C3153 C 0.7264 0.01881 0.41518 0.0
C3154 C 0.77561 0.09549 0.44372 0.0
C3155 C 0.76857 0.10528 0.45424 0.0
C3156 C 0.76361 0.07791 0.434 0.0
C3157 C 0.74423 0.06954 0.43469 0.0
C3158 C 0.73712 0.07955 0.44486 0.0
C3159 C 0.7492 0.09733 0.45449 0.0
H3160 H 0.99455 0.68073 0.39023 0.0
H3161 H 0.9752 0.7069 0.34932 0.0
H3162 H 0.96692 0.67138 0.40742 0.0
H3163 H 0.94746 0.69765 0.36679 0.0
H3164 H 0.89262 0.66407 0.39635 0.0
H3165 H 0.91827 0.67016 0.37653 0.0
H3166 H 0.95625 0.68884 0.42754 0.0
H3167 H 0.93071 0.68238 0.44724 0.0
C3168 C 0.98432 0.68438 0.3848 0.0
C3169 C 0.98716 0.69471 0.36848 0.0
C3170 C 0.96851 0.67909 0.39474 0.0
C3171 C 0.95511 0.68399 0.38864 0.0
C3172 C 0.9575 0.6936 0.37182 0.0
C3173 C 0.97341 0.69895 0.36184 0.0
C3174 C 0.90643 0.66931 0.40329 0.0
C3175 C 0.90964 0.67278 0.42336 0.0
C3176 C 0.92113 0.67295 0.39194 0.0
C3177 C 0.93929 0.67993 0.40045 0.0
C3178 C 0.94241 0.68324 0.42053 0.0
C3179 C 0.92779 0.67974 0.43182 0.0
H3180 H 0.40491 0.04495 0.7022 0.0
H3181 H 0.35476 0.01428 0.73123 0.0
H3182 H 0.42042 0.03238 0.72269 0.0
H3183 H 0.37057 0.00212 0.75209 0.0
H3184 H 0.42177 0.01525 0.79916 0.0
H3185 H 0.4015 0.02177 0.77774 0.0
H3186 H 0.41465 0.99713 0.72939 0.0
H3187 H 0.43454 0.99022 0.75084 0.0
C3188 C 0.3972 0.03549 0.71291 0.0
C3189 C 0.37864 0.0306 0.71514 0.0
C3190 C 0.40603 0.02823 0.72453 0.0
C3191 C 0.39662 0.01629 0.73886 0.0
C3192 C 0.37805 0.0113 0.74109 0.0
C3193 C 0.36904 0.0182 0.72914 0.0
C3194 C 0.41993 0.01086 0.78402 0.0
C3195 C 0.42953 0.00216 0.77658 0.0
C3196 C 0.40836 0.01453 0.77182 0.0
C3197 C 0.40662 0.00995 0.752 0.0
C3198 C 0.41581 0.00076 0.74465 0.0
C3199 C 0.42705 0.99672 0.75689 0.0
H3200 H 0.00322 0.33927 0.77302 0.0
H3201 H 0.96354 0.34357 0.73399 0.0
H3202 H 0.01253 0.37082 0.78822 0.0
H3203 H 0.97255 0.37476 0.7495 0.0
H3204 H 0.97556 0.41353 0.80258 0.0
H3205 H 0.96919 0.38326 0.78718 0.0
H3206 H 0.02681 0.40763 0.77554 0.0
H3207 H 0.0332 0.43846 0.78999 0.0
C3208 C 0.99659 0.347 0.76763 0.0
C3209 C 0.98264 0.33898 0.75236 0.0
C3210 C 0.00195 0.365 0.77627 0.0
C3211 C 0.99314 0.37503 0.77004 0.0
C3212 C 0.97945 0.36718 0.75458 0.0
C3213 C 0.97437 0.3494 0.74568 0.0
C3214 C 0.98689 0.41263 0.79656 0.0
C3215 C 0.00485 0.42862 0.79728 0.0
C3216 C 0.98323 0.39523 0.78786 0.0
C3217 C 0.99749 0.39327 0.78009 0.0
C3218 C 0.01562 0.40888 0.7815 0.0
C3219 C 0.01925 0.42646 0.78988 0.0
H3220 H 0.64423 0.61303 0.68545 0.0
H3221 H 0.66936 0.6453 0.73976 0.0
H3222 H 0.61445 0.59534 0.69965 0.0
H3223 H 0.6402 0.6274 0.75401 0.0
H3224 H 0.58358 0.60544 0.77276 0.0
H3225 H 0.61026 0.6235 0.75473 0.0
H3226 H 0.59875 0.57203 0.72201 0.0
H3227 H 0.57112 0.55407 0.73912 0.0
C3228 C 0.64341 0.61628 0.7004 0.0
C3229 C 0.65912 0.63063 0.71143 0.0
C3230 C 0.62639 0.60611 0.70858 0.0
C3231 C 0.62479 0.61004 0.72798 0.0
C3232 C 0.64065 0.62427 0.73893 0.0
C3233 C 0.6575 0.63447 0.73076 0.0
C3234 C 0.58636 0.59796 0.7614 0.0
C3235 C 0.57515 0.57819 0.75757 0.0
C3236 C 0.60193 0.60832 0.75123 0.0
C3237 C 0.60695 0.59921 0.73712 0.0
C3238 C 0.59534 0.57957 0.73273 0.0
C3239 C 0.57961 0.56921 0.74277 0.0
H3240 H 0.72173 0.73354 0.67711 0.0
H3241 H 0.67128 0.67945 0.66472 0.0
H3242 H 0.70571 0.74974 0.66506 0.0
H3243 H 0.65516 0.69583 0.65296 0.0
H3244 H 0.64212 0.7321 0.61143 0.0
H3245 H 0.65519 0.71392 0.62583 0.0
H3246 H 0.68158 0.75709 0.67288 0.0
H3247 H 0.66855 0.7753 0.65841 0.0
C3248 C 0.7072 0.72507 0.6719 0.0
C3249 C 0.69785 0.70514 0.67184 0.0
C3250 C 0.69796 0.73441 0.66514 0.0
C3251 C 0.67912 0.72409 0.65814 0.0
C3252 C 0.66972 0.70418 0.65811 0.0
C3253 C 0.67896 0.69481 0.66492 0.0
C3254 C 0.65036 0.73749 0.62507 0.0
C3255 C 0.65438 0.75518 0.63375 0.0
C3256 C 0.65789 0.72709 0.63331 0.0
C3257 C 0.66959 0.73416 0.6504 0.0
C3258 C 0.67293 0.75145 0.6595 0.0
C3259 C 0.66542 0.76184 0.65126 0.0
H3260 H 0.31457 0.98695 0.63635 0.0
H3261 H 0.29057 0.97488 0.69084 0.0
H3262 H 0.29141 0.95528 0.62304 0.0
H3263 H 0.26795 0.94277 0.67791 0.0
H3264 H 0.21556 0.89923 0.64165 0.0
H3265 H 0.24103 0.92844 0.65702 0.0
H3266 H 0.27932 0.92224 0.62173 0.0
H3267 H 0.25342 0.89362 0.60525 0.0
C3268 C 0.30456 0.97735 0.6456 0.0
C3269 C 0.30421 0.98343 0.66455 0.0
C3270 C 0.29134 0.95911 0.63801 0.0
C3271 C 0.27764 0.94643 0.64932 0.0
C3272 C 0.27797 0.95227 0.66862 0.0
C3273 C 0.291 0.97063 0.67609 0.0
C3274 C 0.22937 0.90416 0.63699 0.0
C3275 C 0.23235 0.89423 0.62194 0.0
C3276 C 0.2441 0.9208 0.6461 0.0
C3277 C 0.26231 0.92782 0.64064 0.0
C3278 C 0.26544 0.91745 0.62611 0.0
C3279 C 0.25062 0.90089 0.61681 0.0
H3280 H 0.01299 0.26575 0.70547 0.0
H3281 H 0.01264 0.31862 0.70143 0.0
H3282 H 0.04081 0.27821 0.68807 0.0
H3283 H 0.04073 0.33117 0.68431 0.0
H3284 H 0.07654 0.3365 0.63371 0.0
H3285 H 0.05006 0.32619 0.6531 0.0
H3286 H 0.07376 0.30169 0.69118 0.0
H3287 H 0.10023 0.31198 0.67177 0.0
C3288 C 0.01888 0.28008 0.701 0.0
C3289 C 0.01045 0.29112 0.70482 0.0
C3290 C 0.03495 0.28727 0.69112 0.0
C3291 C 0.04302 0.3057 0.68478 0.0
C3292 C 0.03474 0.31684 0.68879 0.0
C3293 C 0.01867 0.30966 0.69871 0.0
C3294 C 0.07625 0.32918 0.64639 0.0
C3295 C 0.09046 0.32498 0.65113 0.0
C3296 C 0.06105 0.32326 0.65751 0.0
C3297 C 0.05972 0.31301 0.67364 0.0
C3298 C 0.07418 0.30924 0.67865 0.0
C3299 C 0.08936 0.31516 0.66754 0.0
H3300 H 0.32054 0.33421 0.65736 0.0
H3301 H 0.28107 0.30878 0.69987 0.0
H3302 H 0.29932 0.34233 0.64028 0.0
H3303 H 0.25995 0.31716 0.68293 0.0
H3304 H 0.21824 0.31119 0.63361 0.0
H3305 H 0.24065 0.30603 0.65245 0.0
H3306 H 0.2844 0.36216 0.64214 0.0
H3307 H 0.26194 0.36714 0.62274 0.0
C3308 C 0.30744 0.33058 0.6632 0.0
C3309 C 0.30242 0.32072 0.6799 0.0
C3310 C 0.29532 0.33532 0.65346 0.0
C3311 C 0.27789 0.33026 0.66016 0.0
C3312 C 0.27316 0.32099 0.67723 0.0
C3313 C 0.28531 0.31629 0.68701 0.0
C3314 C 0.23268 0.32237 0.63518 0.0
C3315 C 0.23836 0.3395 0.62652 0.0
C3316 C 0.24547 0.31951 0.64622 0.0
C3317 C 0.26429 0.33372 0.64887 0.0
C3318 C 0.27001 0.3509 0.64026 0.0
C3319 C 0.25715 0.3538 0.62926 0.0
H3320 H 0.71862 0.99865 0.64057 0.0
H3321 H 0.66532 0.99123 0.65451 0.0
H3322 H 0.70304 0.96782 0.62253 0.0
H3323 H 0.64967 0.96011 0.63635 0.0
H3324 H 0.63738 0.89613 0.62625 0.0
H3325 H 0.64862 0.92825 0.64067 0.0
H3326 H 0.6814 0.95154 0.5927 0.0
H3327 H 0.66993 0.91954 0.57807 0.0
C3328 C 0.70355 0.99049 0.63969 0.0
C3329 C 0.69321 0.99739 0.64903 0.0
C3330 C 0.69462 0.97287 0.62922 0.0
C3331 C 0.67514 0.9616 0.62799 0.0
C3332 C 0.66472 0.96851 0.63713 0.0
C3333 C 0.67367 0.98634 0.64742 0.0
C3334 C 0.64659 0.9081 0.61853 0.0
C3335 C 0.65297 0.90526 0.60114 0.0
C3336 C 0.65304 0.92649 0.62681 0.0
C3337 C 0.66606 0.94236 0.61791 0.0
C3338 C 0.67161 0.93954 0.60003 0.0
C3339 C 0.66508 0.92122 0.5917 0.0
H3340 H 0.9892 0.68228 0.66128 0.0
H3341 H 0.01039 0.72441 0.70943 0.0
H3342 H 0.01721 0.70129 0.6453 0.0
H3343 H 0.03857 0.74371 0.69316 0.0
H3344 H 0.05616 0.75045 0.61207 0.0
H3345 H 0.02974 0.73146 0.63028 0.0
H3346 H 0.06693 0.74428 0.68113 0.0
H3347 H 0.09352 0.76383 0.66289 0.0
C3348 C 0.99988 0.69559 0.66851 0.0
C3349 C 0.9975 0.70192 0.68657 0.0
C3350 C 0.01591 0.70654 0.65928 0.0
C3351 C 0.02999 0.72412 0.66784 0.0
C3352 C 0.02797 0.73018 0.68623 0.0
C3353 C 0.01183 0.71918 0.69551 0.0
C3354 C 0.05872 0.74939 0.62717 0.0
C3355 C 0.07692 0.75869 0.63605 0.0
C3356 C 0.04359 0.73833 0.63757 0.0
C3357 C 0.04626 0.73627 0.65712 0.0
C3358 C 0.06444 0.74569 0.6661 0.0
C3359 C 0.07965 0.75672 0.65563 0.0
H3360 H 0.98629 0.65138 0.72801 0.0
H3361 H 0.93247 0.60129 0.73064 0.0
H3362 H 0.00142 0.63404 0.73977 0.0
H3363 H 0.94751 0.58428 0.74283 0.0
H3364 H 0.97744 0.55202 0.74935 0.0
H3365 H 0.96585 0.57066 0.7332 0.0
H3366 H 0.00575 0.6208 0.76862 0.0
H3367 H 0.01769 0.60213 0.78429 0.0
C3368 C 0.97768 0.63673 0.73117 0.0
C3369 C 0.95815 0.62773 0.72836 0.0
C3370 C 0.98636 0.62681 0.73795 0.0
C3371 C 0.9757 0.60773 0.7421 0.0
C3372 C 0.95619 0.59882 0.73935 0.0
C3373 C 0.94754 0.60866 0.7325 0.0
C3374 C 0.9839 0.5671 0.7534 0.0
C3375 C 0.99834 0.57567 0.76809 0.0
C3376 C 0.9772 0.57775 0.74429 0.0
C3377 C 0.98463 0.59715 0.74987 0.0
C3378 C 0.99978 0.60593 0.76389 0.0
C3379 C 0.00663 0.59527 0.77288 0.0
H3380 H 0.35568 0.35984 0.72845 0.0
H3381 H 0.39718 0.34563 0.7487 0.0
H3382 H 0.3721 0.38997 0.74837 0.0
H3383 H 0.41331 0.37545 0.76854 0.0
H3384 H 0.42838 0.42175 0.81514 0.0
H3385 H 0.40729 0.39126 0.79757 0.0
H3386 H 0.40463 0.42023 0.7482 0.0
H3387 H 0.42615 0.45075 0.76548 0.0
C3388 C 0.36819 0.36306 0.73723 0.0
C3389 C 0.37518 0.35039 0.73694 0.0
C3390 C 0.37758 0.3803 0.74856 0.0
C3391 C 0.39388 0.38494 0.76006 0.0
C3392 C 0.40064 0.37212 0.76 0.0
C3393 C 0.39147 0.35511 0.74849 0.0
C3394 C 0.42325 0.42165 0.80057 0.0
C3395 C 0.42917 0.43871 0.79165 0.0
C3396 C 0.41113 0.4042 0.79056 0.0
C3397 C 0.40448 0.40342 0.7715 0.0
C3398 C 0.40944 0.42045 0.76294 0.0
C3399 C 0.42174 0.43793 0.77288 0.0
H3400 H 0.64669 0.04758 0.68112 0.0
H3401 H 0.66018 0.01786 0.72328 0.0
H3402 H 0.61934 0.04196 0.69799 0.0
H3403 H 0.63314 0.01234 0.73988 0.0
H3404 H 0.60047 0.02929 0.77839 0.0
H3405 H 0.62576 0.03406 0.75897 0.0
H3406 H 0.588 0.01535 0.70781 0.0
H3407 H 0.56254 0.01077 0.72735 0.0
C3408 C 0.6437 0.03966 0.69379 0.0
C3409 C 0.65571 0.03332 0.70094 0.0
C3410 C 0.62806 0.03644 0.70342 0.0
C3411 C 0.62427 0.02696 0.72042 0.0
C3412 C 0.63588 0.02 0.72705 0.0
C3413 C 0.65135 0.0231 0.71743 0.0
C3414 C 0.59757 0.02639 0.76298 0.0
C3415 C 0.5795 0.01967 0.75442 0.0
C3416 C 0.61203 0.02895 0.75187 0.0
C3417 C 0.60884 0.02494 0.73187 0.0
C3418 C 0.59087 0.0186 0.72318 0.0
C3419 C 0.5763 0.01585 0.73437 0.0
loop_
_geom_bond_atom_site_label_1
_geom_bond_atom_site_label_2
_geom_bond_distance
_geom_bond_site_symmetry_2
_ccdc_geom_bond_type
Mn0 O5 2.095 1_655 S
Mn0 O15 2.162 . S
Mn0 O16 2.264 1_554 S
Mn0 O24 2.406 . S
Mn0 O25 2.209 1_655 S
Mn0 O26 2.094 . S
Mn1 O6 2.121 . S
Mn1 N8 2.257 . S
Mn1 N17 2.282 . S
Mn1 O25 2.215 . S
Mn1 O27 2.117 . S
C2 O24 1.228 1_456 S
C2 O25 1.283 1_556 S
C3 O15 1.281 . S
C3 O16 1.220 1_554 S
C4 O26 1.240 1_455 S
C4 O27 1.264 . S
O5 Mn0 2.095 1_455 S
O5 C14 1.250 . S
O6 Mn1 2.121 . S
O6 C14 1.258 . S
C7 N8 1.326 . S
C7 C11 1.454 1_554 S
C7 H13 0.929 . S
N8 Mn1 2.257 . S
N8 C7 1.326 . S
N8 C12 1.362 . S
C9 C10 1.258 . S
C9 C12 1.431 1_556 S
C9 C29 1.449 . S
C10 C9 1.258 . S
C10 C11 1.480 . S
C10 H30 0.931 . S
C11 C7 1.454 1_556 S
C11 C10 1.480 . S
C11 H31 0.932 . S
C12 N8 1.362 . S
C12 C9 1.431 1_554 S
C12 C22 1.476 . S
H13 C7 0.929 . S
C14 O5 1.250 . S
C14 O6 1.258 . S
O15 Mn0 2.162 . S
O15 C3 1.281 . S
O16 Mn0 2.264 1_556 S
O16 C3 1.220 1_556 S
N17 Mn1 2.282 . S
N17 C18 1.328 . S
N17 C22 1.318 . S
C18 N17 1.328 . S
C18 C19 1.457 . S
C18 H23 0.929 . S
C19 C18 1.457 . S
C19 C20 1.291 . S
C19 H32 0.931 . S
C20 C19 1.291 . S
C20 C21 1.373 . S
C20 H33 0.952 . S
C21 C20 1.373 . S
C21 C22 1.396 . S
C21 C28 1.403 1_554 S
C22 C12 1.476 . S
C22 N17 1.318 . S
C22 C21 1.396 . S
H23 C18 0.929 . S
O24 Mn0 2.406 . S
O24 C2 1.228 1_654 S
O25 Mn0 2.209 1_455 S
O25 Mn1 2.215 . S
O25 C2 1.283 1_554 S
O26 Mn0 2.094 . S
O26 C4 1.240 1_655 S
O27 Mn1 2.117 . S
O27 C4 1.264 . S
C28 C21 1.403 1_556 S
C28 C29 1.399 . S
C28 H34 0.929 . S
C29 C9 1.449 . S
C29 C28 1.399 . S
C29 H35 0.930 . S
H30 C10 0.931 . S
H31 C11 0.932 . S
H32 C19 0.931 . S
H33 C20 0.952 . S
H34 C28 0.929 . S
H35 C29 0.930 . S
Mn36 O41 2.095 . S
Mn36 O51 2.162 . S
Mn36 O52 2.297 . S
Mn36 O60 2.385 . S
Mn36 O61 2.209 . S
Mn36 O62 2.094 . S
Mn37 O42 2.121 . S
Mn37 N44 2.257 . S
Mn37 N53 2.282 . S
Mn37 O61 2.215 . S
Mn37 O63 2.117 . S
C38 O60 1.234 . S
C38 O61 1.283 . S
C39 O51 1.281 . S
C39 O52 1.236 . S
C40 O62 1.240 . S
C40 O63 1.264 . S
O41 Mn36 2.095 . S
O41 C50 1.250 . S
O42 Mn37 2.121 . S
O42 C50 1.258 . S
C43 N44 1.326 . S
C43 C47 1.460 . S
C43 H49 0.929 . S
N44 Mn37 2.257 . S
N44 C43 1.326 . S
N44 C48 1.362 . S
C45 C46 1.258 . S
C45 C48 1.431 . S
C45 C65 1.449 . S
C46 C45 1.258 . S
C46 C47 1.477 . S
C46 H66 0.931 . S
C47 C43 1.460 . S
C47 C46 1.477 . S
C47 H67 0.930 . S
C48 N44 1.362 . S
C48 C45 1.431 . S
C48 C58 1.476 . S
H49 C43 0.929 . S
C50 O41 1.250 . S
C50 O42 1.258 . S
O51 Mn36 2.162 . S
O51 C39 1.281 . S
O52 Mn36 2.297 . S
O52 C39 1.236 . S
N53 Mn37 2.282 . S
N53 C54 1.328 . S
N53 C58 1.318 . S
C54 N53 1.328 . S
C54 C55 1.457 . S
C54 H59 0.929 . S
C55 C54 1.457 . S
C55 C56 1.291 . S
C55 H68 0.931 . S
C56 C55 1.291 . S
C56 C57 1.373 . S
C56 H69 0.929 . S
C57 C56 1.373 . S
C57 C58 1.396 . S
C57 C64 1.403 . S
C58 C48 1.476 . S
C58 N53 1.318 . S
C58 C57 1.396 . S
H59 C54 0.929 . S
O60 Mn36 2.385 . S
O60 C38 1.234 . S
O61 Mn36 2.209 . S
O61 Mn37 2.215 . S
O61 C38 1.283 . S
O62 Mn36 2.094 . S
O62 C40 1.240 . S
O63 Mn37 2.117 . S
O63 C40 1.264 . S
C64 C57 1.403 . S
C64 C65 1.399 . S
C64 H70 0.929 . S
C65 C45 1.449 . S
C65 C64 1.399 . S
C65 H71 0.930 . S
H66 C46 0.931 . S
H67 C47 0.930 . S
H68 C55 0.931 . S
H69 C56 0.929 . S
H70 C64 0.929 . S
H71 C65 0.930 . S
Mn72 O77 2.095 1_565 S
Mn72 O87 2.162 . S
Mn72 O88 2.297 . S
Mn72 O96 2.385 . S
Mn72 O97 2.209 1_565 S
Mn72 O98 2.116 . S
Mn73 O78 2.121 . S
Mn73 N80 2.257 . S
Mn73 N89 2.282 . S
Mn73 O97 2.215 . S
Mn73 O99 2.143 . S
C74 O96 1.234 1_545 S
C74 O97 1.283 . S
C75 O87 1.281 . S
C75 O88 1.236 . S
C76 O98 1.228 1_556 S
C76 O99 1.252 1_566 S
O77 Mn72 2.095 1_545 S
O77 C86 1.250 . S
O78 Mn73 2.121 . S
O78 C86 1.258 . S
C79 N80 1.326 . S
C79 C83 1.460 . S
C79 H85 0.929 . S
N80 Mn73 2.257 . S
N80 C79 1.326 . S
N80 C84 1.362 . S
C81 C82 1.258 . S
C81 C84 1.431 . S
C81 C101 1.449 . S
C82 C81 1.258 . S
C82 C83 1.477 . S
C82 H102 0.931 . S
C83 C79 1.460 . S
C83 C82 1.477 . S
C83 H103 0.930 . S
C84 N80 1.362 . S
C84 C81 1.431 . S
C84 C94 1.476 . S
H85 C79 0.929 . S
C86 O77 1.250 . S
C86 O78 1.258 . S
O87 Mn72 2.162 . S
O87 C75 1.281 . S
O88 Mn72 2.297 . S
O88 C75 1.236 . S
N89 Mn73 2.282 . S
N89 C90 1.328 . S
N89 C94 1.318 . S
C90 N89 1.328 . S
C90 C91 1.457 . S
C90 H95 0.929 . S
C91 C90 1.457 . S
C91 C92 1.291 . S
C91 H104 0.931 . S
C92 C91 1.291 . S
C92 C93 1.373 . S
C92 H105 0.929 . S
C93 C92 1.373 . S
C93 C94 1.396 . S
C93 C100 1.403 . S
C94 C84 1.476 . S
C94 N89 1.318 . S
C94 C93 1.396 . S
H95 C90 0.929 . S
O96 Mn72 2.385 . S
O96 C74 1.234 1_565 S
O97 Mn72 2.209 1_545 S
O97 Mn73 2.215 . S
O97 C74 1.283 . S
O98 Mn72 2.116 . S
O98 C76 1.228 1_554 S
O99 Mn73 2.143 . S
O99 C76 1.252 1_544 S
C100 C93 1.403 . S
C100 C101 1.399 . S
C100 H106 0.929 . S
C101 C81 1.449 . S
C101 C100 1.399 . S
C101 H107 0.930 . S
H102 C82 0.931 . S
H103 C83 0.930 . S
H104 C91 0.931 . S
H105 C92 0.929 . S
H106 C100 0.929 . S
H107 C101 0.930 . S
Mn108 O113 2.095 1_655 S
Mn108 O123 2.162 . S
Mn108 O124 2.297 . S
Mn108 O132 2.385 . S
Mn108 O133 2.209 1_655 S
Mn108 O134 2.094 . S
Mn109 O114 2.121 . S
Mn109 N116 2.257 . S
Mn109 N125 2.282 . S
Mn109 O133 2.215 . S
Mn109 O135 2.117 . S
C110 O132 1.234 1_455 S
C110 O133 1.283 . S
C111 O123 1.281 . S
C111 O124 1.236 . S
C112 O134 1.240 . S
C112 O135 1.264 1_655 S
O113 Mn108 2.095 1_455 S
O113 C122 1.250 . S
O114 Mn109 2.121 . S
O114 C122 1.258 . S
C115 N116 1.326 . S
C115 C119 1.460 . S
C115 H121 0.929 . S
N116 Mn109 2.257 . S
N116 C115 1.326 . S
N116 C120 1.362 . S
C117 C118 1.258 . S
C117 C120 1.431 . S
C117 C137 1.449 . S
C118 C117 1.258 . S
C118 C119 1.477 . S
C118 H138 0.931 . S
C119 C115 1.460 . S
C119 C118 1.477 . S
C119 H139 0.930 . S
C120 N116 1.362 . S
C120 C117 1.431 . S
C120 C130 1.476 . S
H121 C115 0.929 . S
C122 O113 1.250 . S
C122 O114 1.258 . S
O123 Mn108 2.162 . S
O123 C111 1.281 . S
O124 Mn108 2.297 . S
O124 C111 1.236 . S
N125 Mn109 2.282 . S
N125 C126 1.328 . S
N125 C130 1.318 . S
C126 N125 1.328 . S
C126 C127 1.457 . S
C126 H131 0.929 . S
C127 C126 1.457 . S
C127 C128 1.291 . S
C127 H140 0.931 . S
C128 C127 1.291 . S
C128 C129 1.373 . S
C128 H141 0.929 . S
C129 C128 1.373 . S
C129 C130 1.396 . S
C129 C136 1.403 . S
C130 C120 1.476 . S
C130 N125 1.318 . S
C130 C129 1.396 . S
H131 C126 0.929 . S
O132 Mn108 2.385 . S
O132 C110 1.234 1_655 S
O133 Mn108 2.209 1_455 S
O133 Mn109 2.215 . S
O133 C110 1.283 . S
O134 Mn108 2.094 . S
O134 C112 1.240 . S
O135 Mn109 2.117 . S
O135 C112 1.264 1_455 S
C136 C129 1.403 . S
C136 C137 1.399 . S
C136 H142 0.931 1_554 S
C137 C117 1.449 . S
C137 C136 1.399 . S
C137 H143 0.930 1_554 S
H138 C118 0.931 . S
H139 C119 0.930 . S
H140 C127 0.931 . S
H141 C128 0.929 . S
H142 C136 0.931 1_556 S
H143 C137 0.930 1_556 S
Mn144 O149 2.095 1_554 S
Mn144 O159 2.162 . S
Mn144 O160 2.297 . S
Mn144 O168 2.385 . S
Mn144 O169 2.209 . S
Mn144 O170 2.094 1_554 S
Mn145 O150 2.121 . S
Mn145 N152 2.257 1_556 S
Mn145 N161 2.282 1_556 S
Mn145 O169 2.215 1_556 S
Mn145 O171 2.117 . S
C146 O168 1.234 . S
C146 O169 1.283 . S
C147 O159 1.281 . S
C147 O160 1.236 . S
C148 O170 1.240 . S
C148 O171 1.264 . S
O149 Mn144 2.095 1_556 S
O149 C158 1.250 . S
O150 Mn145 2.121 . S
O150 C158 1.258 . S
C151 N152 1.326 . S
C151 C155 1.460 . S
C151 H157 0.929 . S
N152 Mn145 2.257 1_554 S
N152 C151 1.326 . S
N152 C156 1.362 . S
C153 C154 1.258 . S
C153 C156 1.431 . S
C153 C173 1.449 . S
C154 C153 1.258 . S
C154 C155 1.477 . S
C154 H174 0.931 . S
C155 C151 1.460 . S
C155 C154 1.477 . S
C155 H175 0.930 . S
C156 N152 1.362 . S
C156 C153 1.431 . S
C156 C166 1.476 . S
H157 C151 0.929 . S
C158 O149 1.250 . S
C158 O150 1.258 . S
O159 Mn144 2.162 . S
O159 C147 1.281 . S
O160 Mn144 2.297 . S
O160 C147 1.236 . S
N161 Mn145 2.282 1_554 S
N161 C162 1.328 . S
N161 C166 1.318 . S
C162 N161 1.328 . S
C162 C163 1.457 . S
C162 H167 0.929 . S
C163 C162 1.457 . S
C163 C164 1.291 . S
C163 H176 0.931 . S
C164 C163 1.291 . S
C164 C165 1.373 . S
C164 H177 0.929 . S
C165 C164 1.373 . S
C165 C166 1.396 . S
C165 C172 1.403 . S
C166 C156 1.476 . S
C166 N161 1.318 . S
C166 C165 1.396 . S
H167 C162 0.929 . S
O168 Mn144 2.385 . S
O168 C146 1.234 . S
O169 Mn144 2.209 . S
O169 Mn145 2.215 1_554 S
O169 C146 1.283 . S
O170 Mn144 2.094 1_556 S
O170 C148 1.240 . S
O171 Mn145 2.117 . S
O171 C148 1.264 . S
C172 C165 1.403 . S
C172 C173 1.399 . S
C172 H178 0.929 . S
C173 C153 1.449 . S
C173 C172 1.399 . S
C173 H179 0.930 . S
H174 C154 0.931 . S
H175 C155 0.930 . S
H176 C163 0.931 . S
H177 C164 0.929 . S
H178 C172 0.929 . S
H179 C173 0.930 . S
Mn180 O185 2.095 1_545 S
Mn180 O195 2.162 . S
Mn180 O196 2.297 . S
Mn180 O204 2.385 . S
Mn180 O205 2.209 1_545 S
Mn180 O206 2.094 . S
Mn181 O186 2.121 . S
Mn181 N188 2.257 . S
Mn181 N197 2.282 . S
Mn181 O205 2.215 . S
Mn181 O207 2.117 . S
C182 O204 1.234 . S
C182 O205 1.283 1_545 S
C183 O195 1.281 . S
C183 O196 1.236 . S
C184 O206 1.240 . S
C184 O207 1.264 1_545 S
O185 Mn180 2.095 1_565 S
O185 C194 1.250 . S
O186 Mn181 2.121 . S
O186 C194 1.258 . S
C187 N188 1.326 . S
C187 C191 1.460 . S
C187 H193 0.929 . S
N188 Mn181 2.257 . S
N188 C187 1.326 . S
N188 C192 1.362 . S
C189 C190 1.258 . S
C189 C192 1.431 . S
C189 C209 1.428 1_554 S
C190 C189 1.258 . S
C190 C191 1.477 . S
C190 H210 0.931 1_554 S
C191 C187 1.460 . S
C191 C190 1.477 . S
C191 H211 0.930 . S
C192 N188 1.362 . S
C192 C189 1.431 . S
C192 C202 1.476 . S
H193 C187 0.929 . S
C194 O185 1.250 . S
C194 O186 1.258 . S
O195 Mn180 2.162 . S
O195 C183 1.281 . S
O196 Mn180 2.297 . S
O196 C183 1.236 . S
N197 Mn181 2.282 . S
N197 C198 1.328 . S
N197 C202 1.318 . S
C198 N197 1.328 . S
C198 C199 1.457 . S
C198 H203 0.929 . S
C199 C198 1.457 . S
C199 C200 1.291 . S
C199 H212 0.931 . S
C200 C199 1.291 . S
C200 C201 1.373 . S
C200 H213 0.929 . S
C201 C200 1.373 . S
C201 C202 1.396 . S
C201 C208 1.403 . S
C202 C192 1.476 . S
C202 N197 1.318 . S
C202 C201 1.396 . S
H203 C198 0.929 . S
O204 Mn180 2.385 . S
O204 C182 1.234 . S
O205 Mn180 2.209 1_565 S
O205 Mn181 2.215 . S
O205 C182 1.283 1_565 S
O206 Mn180 2.094 . S
O206 C184 1.240 . S
O207 Mn181 2.117 . S
O207 C184 1.264 1_565 S
C208 C201 1.403 . S
C208 C209 1.392 1_554 S
C208 H214 0.929 1_554 S
C209 C189 1.428 1_556 S
C209 C208 1.392 1_556 S
C209 H215 0.962 . S
H210 C190 0.931 1_556 S
H211 C191 0.930 . S
H212 C199 0.931 . S
H213 C200 0.929 . S
H214 C208 0.929 1_556 S
H215 C209 0.962 . S
Mn216 O221 2.095 . S
Mn216 O231 2.162 . S
Mn216 O232 2.297 . S
Mn216 O240 2.385 . S
Mn216 O241 2.209 . S
Mn216 O242 2.094 . S
Mn217 O222 2.121 . S
Mn217 N224 2.257 . S
Mn217 N233 2.282 . S
Mn217 O241 2.215 . S
Mn217 O243 2.117 . S
C218 O240 1.234 . S
C218 O241 1.283 . S
C219 O231 1.281 . S
C219 O232 1.236 . S
C220 O242 1.240 . S
C220 O243 1.264 . S
O221 Mn216 2.095 . S
O221 C230 1.250 . S
O222 Mn217 2.121 . S
O222 C230 1.258 . S
C223 N224 1.326 . S
C223 C227 1.460 . S
C223 H229 0.929 . S
N224 Mn217 2.257 . S
N224 C223 1.326 . S
N224 C228 1.362 . S
C225 C226 1.258 . S
C225 C228 1.431 . S
C225 C245 1.449 . S
C226 C225 1.258 . S
C226 C227 1.477 . S
C226 H246 0.931 . S
C227 C223 1.460 . S
C227 C226 1.477 . S
C227 H247 0.930 . S
C228 N224 1.362 . S
C228 C225 1.431 . S
C228 C238 1.476 . S
H229 C223 0.929 . S
C230 O221 1.250 . S
C230 O222 1.258 . S
O231 Mn216 2.162 . S
O231 C219 1.281 . S
O232 Mn216 2.297 . S
O232 C219 1.236 . S
N233 Mn217 2.282 . S
N233 C234 1.328 . S
N233 C238 1.318 . S
C234 N233 1.328 . S
C234 C235 1.457 . S
C234 H239 0.929 . S
C235 C234 1.457 . S
C235 C236 1.291 . S
C235 H248 0.931 . S
C236 C235 1.291 . S
C236 C237 1.373 . S
C236 H249 0.929 . S
C237 C236 1.373 . S
C237 C238 1.396 . S
C237 C244 1.403 . S
C238 C228 1.476 . S
C238 N233 1.318 . S
C238 C237 1.396 . S
H239 C234 0.929 . S
O240 Mn216 2.385 . S
O240 C218 1.234 . S
O241 Mn216 2.209 . S
O241 Mn217 2.215 . S
O241 C218 1.283 . S
O242 Mn216 2.094 . S
O242 C220 1.240 . S
O243 Mn217 2.117 . S
O243 C220 1.264 . S
C244 C237 1.403 . S
C244 C245 1.399 . S
C244 H250 0.929 . S
C245 C225 1.449 . S
C245 C244 1.399 . S
C245 H251 0.930 . S
H246 C226 0.931 . S
H247 C227 0.930 . S
H248 C235 0.931 . S
H249 C236 0.929 . S
H250 C244 0.929 . S
H251 C245 0.930 . S
Mn252 O257 2.095 . S
Mn252 O267 2.162 . S
Mn252 O268 2.297 . S
Mn252 O276 2.385 . S
Mn252 O277 2.209 . S
Mn252 O278 2.094 . S
Mn253 O258 2.121 . S
Mn253 N260 2.257 . S
Mn253 N269 2.282 . S
Mn253 O277 2.215 . S
Mn253 O279 2.117 . S
C254 O276 1.234 . S
C254 O277 1.283 . S
C255 O267 1.281 . S
C255 O268 1.236 . S
C256 O278 1.240 . S
C256 O279 1.264 . S
O257 Mn252 2.095 . S
O257 C266 1.250 . S
O258 Mn253 2.121 . S
O258 C266 1.258 . S
C259 N260 1.326 . S
C259 C263 1.460 . S
C259 H265 0.929 . S
N260 Mn253 2.257 . S
N260 C259 1.326 . S
N260 C264 1.362 . S
C261 C262 1.258 . S
C261 C264 1.431 . S
C261 C281 1.449 . S
C262 C261 1.258 . S
C262 C263 1.477 . S
C262 H282 0.931 . S
C263 C259 1.460 . S
C263 C262 1.477 . S
C263 H283 0.930 . S
C264 N260 1.362 . S
C264 C261 1.431 . S
C264 C274 1.476 . S
H265 C259 0.929 . S
C266 O257 1.250 . S
C266 O258 1.258 . S
O267 Mn252 2.162 . S
O267 C255 1.281 . S
O268 Mn252 2.297 . S
O268 C255 1.236 . S
N269 Mn253 2.282 . S
N269 C270 1.328 . S
N269 C274 1.318 . S
C270 N269 1.328 . S
C270 C271 1.457 . S
C270 H275 0.929 . S
C271 C270 1.457 . S
C271 C272 1.291 . S
C271 H284 0.931 . S
C272 C271 1.291 . S
C272 C273 1.373 . S
C272 H285 0.929 . S
C273 C272 1.373 . S
C273 C274 1.396 . S
C273 C280 1.403 . S
C274 C264 1.476 . S
C274 N269 1.318 . S
C274 C273 1.396 . S
H275 C270 0.929 . S
O276 Mn252 2.385 . S
O276 C254 1.234 . S
O277 Mn252 2.209 . S
O277 Mn253 2.215 . S
O277 C254 1.283 . S
O278 Mn252 2.094 . S
O278 C256 1.240 . S
O279 Mn253 2.117 . S
O279 C256 1.264 . S
C280 C273 1.403 . S
C280 C281 1.399 . S
C280 H286 0.929 . S
C281 C261 1.449 . S
C281 C280 1.399 . S
C281 H287 0.930 . S
H282 C262 0.931 . S
H283 C263 0.930 . S
H284 C271 0.931 . S
H285 C272 0.929 . S
H286 C280 0.929 . S
H287 C281 0.930 . S
Mn288 O293 2.095 . S
Mn288 O303 2.162 . S
Mn288 O304 2.297 . S
Mn288 O312 2.385 . S
Mn288 O313 2.209 . S
Mn288 O314 2.094 . S
Mn289 O294 2.121 . S
Mn289 N296 2.257 . S
Mn289 N305 2.282 . S
Mn289 O313 2.215 . S
Mn289 O315 2.117 . S
C290 O312 1.234 . S
C290 O313 1.283 . S
C291 O303 1.281 . S
C291 O304 1.236 . S
C292 O314 1.240 . S
C292 O315 1.264 . S
O293 Mn288 2.095 . S
O293 C302 1.250 . S
O294 Mn289 2.121 . S
O294 C302 1.258 . S
C295 N296 1.326 . S
C295 C299 1.460 . S
C295 H301 0.929 . S
N296 Mn289 2.257 . S
N296 C295 1.326 . S
N296 C300 1.362 . S
C297 C298 1.258 . S
C297 C300 1.431 . S
C297 C317 1.449 . S
C298 C297 1.258 . S
C298 C299 1.477 . S
C298 H318 0.931 . S
C299 C295 1.460 . S
C299 C298 1.477 . S
C299 H319 0.930 . S
C300 N296 1.362 . S
C300 C297 1.431 . S
C300 C310 1.476 . S
H301 C295 0.929 . S
C302 O293 1.250 . S
C302 O294 1.258 . S
O303 Mn288 2.162 . S
O303 C291 1.281 . S
O304 Mn288 2.297 . S
O304 C291 1.236 . S
N305 Mn289 2.282 . S
N305 C306 1.328 . S
N305 C310 1.318 . S
C306 N305 1.328 . S
C306 C307 1.457 . S
C306 H311 0.929 . S
C307 C306 1.457 . S
C307 C308 1.291 . S
C307 H320 0.931 . S
C308 C307 1.291 . S
C308 C309 1.373 . S
C308 H321 0.929 . S
C309 C308 1.373 . S
C309 C310 1.396 . S
C309 C316 1.403 . S
C310 C300 1.476 . S
C310 N305 1.318 . S
C310 C309 1.396 . S
H311 C306 0.929 . S
O312 Mn288 2.385 . S
O312 C290 1.234 . S
O313 Mn288 2.209 . S
O313 Mn289 2.215 . S
O313 C290 1.283 . S
O314 Mn288 2.094 . S
O314 C292 1.240 . S
O315 Mn289 2.117 . S
O315 C292 1.264 . S
C316 C309 1.403 . S
C316 C317 1.399 . S
C316 H322 0.929 . S
C317 C297 1.449 . S
C317 C316 1.399 . S
C317 H323 0.930 . S
H318 C298 0.931 . S
H319 C299 0.930 . S
H320 C307 0.931 . S
H321 C308 0.929 . S
H322 C316 0.929 . S
H323 C317 0.930 . S
Mn324 O329 2.095 . S
Mn324 O339 2.162 . S
Mn324 O340 2.297 . S
Mn324 O348 2.385 . S
Mn324 O349 2.209 . S
Mn324 O350 2.094 . S
Mn325 O330 2.121 . S
Mn325 N332 2.257 . S
Mn325 N341 2.282 . S
Mn325 O349 2.215 . S
Mn325 O351 2.117 . S
C326 O348 1.234 . S
C326 O349 1.283 . S
C327 O339 1.281 . S
C327 O340 1.236 . S
C328 O350 1.240 . S
C328 O351 1.264 . S
O329 Mn324 2.095 . S
O329 C338 1.250 . S
O330 Mn325 2.121 . S
O330 C338 1.258 . S
C331 N332 1.326 . S
C331 C335 1.466 1_565 S
C331 H337 0.929 1_565 S
N332 Mn325 2.257 . S
N332 C331 1.326 . S
N332 C336 1.362 . S
C333 C334 1.258 . S
C333 C336 1.431 . S
C333 C353 1.449 . S
C334 C333 1.258 . S
C334 C335 1.439 1_565 S
C334 H354 0.931 . S
C335 C331 1.466 1_545 S
C335 C334 1.439 1_545 S
C335 H355 0.962 . S
C336 N332 1.362 . S
C336 C333 1.431 . S
C336 C346 1.476 . S
H337 C331 0.929 1_545 S
C338 O329 1.250 . S
C338 O330 1.258 . S
O339 Mn324 2.162 . S
O339 C327 1.281 . S
O340 Mn324 2.297 . S
O340 C327 1.236 . S
N341 Mn325 2.282 . S
N341 C342 1.328 . S
N341 C346 1.318 . S
C342 N341 1.328 . S
C342 C343 1.457 . S
C342 H347 0.929 . S
C343 C342 1.457 . S
C343 C344 1.291 . S
C343 H356 0.931 . S
C344 C343 1.291 . S
C344 C345 1.373 . S
C344 H357 0.929 . S
C345 C344 1.373 . S
C345 C346 1.396 . S
C345 C352 1.403 . S
C346 C336 1.476 . S
C346 N341 1.318 . S
C346 C345 1.396 . S
H347 C342 0.929 . S
O348 Mn324 2.385 . S
O348 C326 1.234 . S
O349 Mn324 2.209 . S
O349 Mn325 2.215 . S
O349 C326 1.283 . S
O350 Mn324 2.094 . S
O350 C328 1.240 . S
O351 Mn325 2.117 . S
O351 C328 1.264 . S
C352 C345 1.403 . S
C352 C353 1.399 . S
C352 H358 0.929 . S
C353 C333 1.449 . S
C353 C352 1.399 . S
C353 H359 0.930 . S
H354 C334 0.931 . S
H355 C335 0.962 . S
H356 C343 0.931 . S
H357 C344 0.929 . S
H358 C352 0.929 . S
H359 C353 0.930 . S
Mn360 O365 2.095 . S
Mn360 O375 2.162 . S
Mn360 O376 2.297 . S
Mn360 O384 2.385 . S
Mn360 O385 2.209 . S
Mn360 O386 2.094 . S
Mn361 O366 2.121 . S
Mn361 N368 2.257 . S
Mn361 N377 2.282 . S
Mn361 O385 2.215 . S
Mn361 O387 2.117 . S
C362 O384 1.234 . S
C362 O385 1.283 . S
C363 O375 1.281 . S
C363 O376 1.236 . S
C364 O386 1.240 . S
C364 O387 1.264 . S
O365 Mn360 2.095 . S
O365 C374 1.250 . S
O366 Mn361 2.121 . S
O366 C374 1.258 . S
C367 N368 1.326 . S
C367 C371 1.460 . S
C367 H373 0.929 . S
N368 Mn361 2.257 . S
N368 C367 1.326 . S
N368 C372 1.362 . S
C369 C370 1.258 . S
C369 C372 1.431 . S
C369 C389 1.449 . S
C370 C369 1.258 . S
C370 C371 1.477 . S
C370 H390 0.931 . S
C371 C367 1.460 . S
C371 C370 1.477 . S
C371 H391 0.930 . S
C372 N368 1.362 . S
C372 C369 1.431 . S
C372 C382 1.476 . S
H373 C367 0.929 . S
C374 O365 1.250 . S
C374 O366 1.258 . S
O375 Mn360 2.162 . S
O375 C363 1.281 . S
O376 Mn360 2.297 . S
O376 C363 1.236 . S
N377 Mn361 2.282 . S
N377 C378 1.328 . S
N377 C382 1.318 . S
C378 N377 1.328 . S
C378 C379 1.457 . S
C378 H383 0.929 . S
C379 C378 1.457 . S
C379 C380 1.291 . S
C379 H392 0.931 . S
C380 C379 1.291 . S
C380 C381 1.373 . S
C380 H393 0.929 . S
C381 C380 1.373 . S
C381 C382 1.396 . S
C381 C388 1.403 . S
C382 C372 1.476 . S
C382 N377 1.318 . S
C382 C381 1.396 . S
H383 C378 0.929 . S
O384 Mn360 2.385 . S
O384 C362 1.234 . S
O385 Mn360 2.209 . S
O385 Mn361 2.215 . S
O385 C362 1.283 . S
O386 Mn360 2.094 . S
O386 C364 1.240 . S
O387 Mn361 2.117 . S
O387 C364 1.264 . S
C388 C381 1.403 . S
C388 C389 1.399 . S
C388 H394 0.929 . S
C389 C369 1.449 . S
C389 C388 1.399 . S
C389 H395 0.930 . S
H390 C370 0.931 . S
H391 C371 0.930 . S
H392 C379 0.931 . S
H393 C380 0.929 . S
H394 C388 0.929 . S
H395 C389 0.930 . S
Mn396 O401 2.095 . S
Mn396 O411 2.162 . S
Mn396 O412 2.297 . S
Mn396 O420 2.385 . S
Mn396 O421 2.209 . S
Mn396 O422 2.094 . S
Mn397 O402 2.121 . S
Mn397 N404 2.257 . S
Mn397 N413 2.282 . S
Mn397 O421 2.215 . S
Mn397 O423 2.117 . S
C398 O420 1.234 . S
C398 O421 1.283 . S
C399 O411 1.281 . S
C399 O412 1.236 . S
C400 O422 1.240 . S
C400 O423 1.264 . S
O401 Mn396 2.095 . S
O401 C410 1.250 . S
O402 Mn397 2.121 . S
O402 C410 1.258 . S
C403 N404 1.326 . S
C403 C407 1.460 . S
C403 H409 0.929 . S
N404 Mn397 2.257 . S
N404 C403 1.326 . S
N404 C408 1.362 . S
C405 C406 1.258 . S
C405 C408 1.431 . S
C405 C425 1.449 . S
C406 C405 1.258 . S
C406 C407 1.477 . S
C406 H426 0.931 . S
C407 C403 1.460 . S
C407 C406 1.477 . S
C407 H427 0.930 . S
C408 N404 1.362 . S
C408 C405 1.431 . S
C408 C418 1.476 . S
H409 C403 0.929 . S
C410 O401 1.250 . S
C410 O402 1.258 . S
O411 Mn396 2.162 . S
O411 C399 1.281 . S
O412 Mn396 2.297 . S
O412 C399 1.236 . S
N413 Mn397 2.282 . S
N413 C414 1.328 . S
N413 C418 1.318 . S
C414 N413 1.328 . S
C414 C415 1.457 . S
C414 H419 0.929 . S
C415 C414 1.457 . S
C415 C416 1.291 . S
C415 H428 0.931 . S
C416 C415 1.291 . S
C416 C417 1.373 . S
C416 H429 0.929 . S
C417 C416 1.373 . S
C417 C418 1.396 . S
C417 C424 1.403 . S
C418 C408 1.476 . S
C418 N413 1.318 . S
C418 C417 1.396 . S
H419 C414 0.929 . S
O420 Mn396 2.385 . S
O420 C398 1.234 . S
O421 Mn396 2.209 . S
O421 Mn397 2.215 . S
O421 C398 1.283 . S
O422 Mn396 2.094 . S
O422 C400 1.240 . S
O423 Mn397 2.117 . S
O423 C400 1.264 . S
C424 C417 1.403 . S
C424 C425 1.399 . S
C424 H430 0.929 . S
C425 C405 1.449 . S
C425 C424 1.399 . S
C425 H431 0.930 . S
H426 C406 0.931 . S
H427 C407 0.930 . S
H428 C415 0.931 . S
H429 C416 0.929 . S
H430 C424 0.929 . S
H431 C425 0.930 . S
Mn432 O437 2.095 . S
Mn432 O447 2.162 . S
Mn432 O448 2.297 . S
Mn432 O456 2.385 . S
Mn432 O457 2.209 . S
Mn432 O458 2.094 . S
Mn433 O438 2.121 . S
Mn433 N440 2.257 . S
Mn433 N449 2.282 . S
Mn433 O457 2.215 . S
Mn433 O459 2.117 . S
C434 O456 1.234 . S
C434 O457 1.283 . S
C435 O447 1.281 . S
C435 O448 1.236 . S
C436 O458 1.240 . S
C436 O459 1.264 . S
O437 Mn432 2.095 . S
O437 C446 1.250 . S
O438 Mn433 2.121 . S
O438 C446 1.258 . S
C439 N440 1.326 . S
C439 C443 1.460 . S
C439 H445 0.929 . S
N440 Mn433 2.257 . S
N440 C439 1.326 . S
N440 C444 1.362 . S
C441 C442 1.258 . S
C441 C444 1.431 . S
C441 C461 1.449 . S
C442 C441 1.258 . S
C442 C443 1.477 . S
C442 H462 0.931 . S
C443 C439 1.460 . S
C443 C442 1.477 . S
C443 H463 0.930 . S
C444 N440 1.362 . S
C444 C441 1.431 . S
C444 C454 1.476 . S
H445 C439 0.929 . S
C446 O437 1.250 . S
C446 O438 1.258 . S
O447 Mn432 2.162 . S
O447 C435 1.281 . S
O448 Mn432 2.297 . S
O448 C435 1.236 . S
N449 Mn433 2.282 . S
N449 C450 1.328 . S
N449 C454 1.318 . S
C450 N449 1.328 . S
C450 C451 1.457 . S
C450 H455 0.929 . S
C451 C450 1.457 . S
C451 C452 1.291 . S
C451 H464 0.931 . S
C452 C451 1.291 . S
C452 C453 1.373 . S
C452 H465 0.929 . S
C453 C452 1.373 . S
C453 C454 1.396 . S
C453 C460 1.403 . S
C454 C444 1.476 . S
C454 N449 1.318 . S
C454 C453 1.396 . S
H455 C450 0.929 . S
O456 Mn432 2.385 . S
O456 C434 1.234 . S
O457 Mn432 2.209 . S
O457 Mn433 2.215 . S
O457 C434 1.283 . S
O458 Mn432 2.094 . S
O458 C436 1.240 . S
O459 Mn433 2.117 . S
O459 C436 1.264 . S
C460 C453 1.403 . S
C460 C461 1.399 . S
C460 H466 0.929 . S
C461 C441 1.449 . S
C461 C460 1.399 . S
C461 H467 0.930 . S
H462 C442 0.931 . S
H463 C443 0.930 . S
H464 C451 0.931 . S
H465 C452 0.929 . S
H466 C460 0.929 . S
H467 C461 0.930 . S
Mn468 O473 2.095 . S
Mn468 O483 2.162 . S
Mn468 O484 2.297 . S
Mn468 O492 2.385 . S
Mn468 O493 2.209 . S
Mn468 O494 2.094 . S
Mn469 O474 2.121 . S
Mn469 N476 2.257 . S
Mn469 N485 2.282 . S
Mn469 O493 2.215 . S
Mn469 O495 2.117 . S
C470 O492 1.234 . S
C470 O493 1.283 . S
C471 O483 1.281 . S
C471 O484 1.236 . S
C472 O494 1.240 . S
C472 O495 1.264 . S
O473 Mn468 2.095 . S
O473 C482 1.250 . S
O474 Mn469 2.121 . S
O474 C482 1.258 . S
C475 N476 1.326 . S
C475 C479 1.460 . S
C475 H481 0.929 . S
N476 Mn469 2.257 . S
N476 C475 1.326 . S
N476 C480 1.362 . S
C477 C478 1.258 . S
C477 C480 1.431 . S
C477 C497 1.449 . S
C478 C477 1.258 . S
C478 C479 1.477 . S
C478 H498 0.931 . S
C479 C475 1.460 . S
C479 C478 1.477 . S
C479 H499 0.930 1_655 S
C480 N476 1.362 . S
C480 C477 1.431 . S
C480 C490 1.476 . S
H481 C475 0.929 . S
C482 O473 1.250 . S
C482 O474 1.258 . S
O483 Mn468 2.162 . S
O483 C471 1.281 . S
O484 Mn468 2.297 . S
O484 C471 1.236 . S
N485 Mn469 2.282 . S
N485 C486 1.328 . S
N485 C490 1.318 . S
C486 N485 1.328 . S
C486 C487 1.457 . S
C486 H491 0.929 . S
C487 C486 1.457 . S
C487 C488 1.291 . S
C487 H500 0.931 . S
C488 C487 1.291 . S
C488 C489 1.373 . S
C488 H501 0.929 . S
C489 C488 1.373 . S
C489 C490 1.396 . S
C489 C496 1.403 . S
C490 C480 1.476 . S
C490 N485 1.318 . S
C490 C489 1.396 . S
H491 C486 0.929 . S
O492 Mn468 2.385 . S
O492 C470 1.234 . S
O493 Mn468 2.209 . S
O493 Mn469 2.215 . S
O493 C470 1.283 . S
O494 Mn468 2.094 . S
O494 C472 1.240 . S
O495 Mn469 2.117 . S
O495 C472 1.264 . S
C496 C489 1.403 . S
C496 C497 1.399 . S
C496 H502 0.929 . S
C497 C477 1.449 . S
C497 C496 1.399 . S
C497 H503 0.930 . S
H498 C478 0.931 . S
H499 C479 0.930 1_455 S
H500 C487 0.931 . S
H501 C488 0.929 . S
H502 C496 0.929 . S
H503 C497 0.930 . S
Mn504 O509 2.095 . S
Mn504 O519 2.162 . S
Mn504 O520 2.297 . S
Mn504 O528 2.385 . S
Mn504 O529 2.209 . S
Mn504 O530 2.094 . S
Mn505 O510 2.121 . S
Mn505 N512 2.257 . S
Mn505 N521 2.282 . S
Mn505 O529 2.215 . S
Mn505 O531 2.117 . S
C506 O528 1.234 . S
C506 O529 1.283 . S
C507 O519 1.281 . S
C507 O520 1.236 . S
C508 O530 1.240 . S
C508 O531 1.264 . S
O509 Mn504 2.095 . S
O509 C518 1.250 . S
O510 Mn505 2.121 . S
O510 C518 1.258 . S
C511 N512 1.326 . S
C511 C515 1.460 . S
C511 H517 0.929 . S
N512 Mn505 2.257 . S
N512 C511 1.326 . S
N512 C516 1.362 . S
C513 C514 1.258 . S
C513 C516 1.431 . S
C513 C533 1.449 . S
C514 C513 1.258 . S
C514 C515 1.477 . S
C514 H534 0.931 . S
C515 C511 1.460 . S
C515 C514 1.477 . S
C515 H535 0.930 . S
C516 N512 1.362 . S
C516 C513 1.431 . S
C516 C526 1.476 . S
H517 C511 0.929 . S
C518 O509 1.250 . S
C518 O510 1.258 . S
O519 Mn504 2.162 . S
O519 C507 1.281 . S
O520 Mn504 2.297 . S
O520 C507 1.236 . S
N521 Mn505 2.282 . S
N521 C522 1.328 . S
N521 C526 1.318 . S
C522 N521 1.328 . S
C522 C523 1.457 . S
C522 H527 0.929 . S
C523 C522 1.457 . S
C523 C524 1.291 . S
C523 H536 0.931 . S
C524 C523 1.291 . S
C524 C525 1.373 . S
C524 H537 0.929 . S
C525 C524 1.373 . S
C525 C526 1.396 . S
C525 C532 1.403 . S
C526 C516 1.476 . S
C526 N521 1.318 . S
C526 C525 1.396 . S
H527 C522 0.929 . S
O528 Mn504 2.385 . S
O528 C506 1.234 . S
O529 Mn504 2.209 . S
O529 Mn505 2.215 . S
O529 C506 1.283 . S
O530 Mn504 2.094 . S
O530 C508 1.240 . S
O531 Mn505 2.117 . S
O531 C508 1.264 . S
C532 C525 1.403 . S
C532 C533 1.399 . S
C532 H538 0.929 . S
C533 C513 1.449 . S
C533 C532 1.399 . S
C533 H539 0.930 . S
H534 C514 0.931 . S
H535 C515 0.930 . S
H536 C523 0.931 . S
H537 C524 0.929 . S
H538 C532 0.929 . S
H539 C533 0.930 . S
Mn540 O545 2.095 . S
Mn540 O555 2.162 . S
Mn540 O556 2.297 . S
Mn540 O564 2.385 . S
Mn540 O565 2.209 . S
Mn540 O566 2.094 . S
Mn541 O546 2.121 . S
Mn541 N548 2.257 . S
Mn541 N557 2.282 . S
Mn541 O565 2.215 . S
Mn541 O567 2.117 . S
C542 O564 1.234 . S
C542 O565 1.283 . S
C543 O555 1.281 . S
C543 O556 1.236 . S
C544 O566 1.240 . S
C544 O567 1.264 . S
O545 Mn540 2.095 . S
O545 C554 1.250 . S
O546 Mn541 2.121 . S
O546 C554 1.258 . S
C547 N548 1.326 . S
C547 C551 1.460 . S
C547 H553 0.929 . S
N548 Mn541 2.257 . S
N548 C547 1.326 . S
N548 C552 1.362 . S
C549 C550 1.258 . S
C549 C552 1.431 . S
C549 C569 1.449 . S
C550 C549 1.258 . S
C550 C551 1.477 . S
C550 H570 0.931 . S
C551 C547 1.460 . S
C551 C550 1.477 . S
C551 H571 0.930 . S
C552 N548 1.362 . S
C552 C549 1.431 . S
C552 C562 1.476 . S
H553 C547 0.929 . S
C554 O545 1.250 . S
C554 O546 1.258 . S
O555 Mn540 2.162 . S
O555 C543 1.281 . S
O556 Mn540 2.297 . S
O556 C543 1.236 . S
N557 Mn541 2.282 . S
N557 C558 1.328 . S
N557 C562 1.318 . S
C558 N557 1.328 . S
C558 C559 1.457 . S
C558 H563 0.929 . S
C559 C558 1.457 . S
C559 C560 1.291 . S
C559 H572 0.931 . S
C560 C559 1.291 . S
C560 C561 1.373 . S
C560 H573 0.929 . S
C561 C560 1.373 . S
C561 C562 1.396 . S
C561 C568 1.403 . S
C562 C552 1.476 . S
C562 N557 1.318 . S
C562 C561 1.396 . S
H563 C558 0.929 . S
O564 Mn540 2.385 . S
O564 C542 1.234 . S
O565 Mn540 2.209 . S
O565 Mn541 2.215 . S
O565 C542 1.283 . S
O566 Mn540 2.094 . S
O566 C544 1.240 . S
O567 Mn541 2.117 . S
O567 C544 1.264 . S
C568 C561 1.403 . S
C568 C569 1.399 . S
C568 H574 0.929 . S
C569 C549 1.449 . S
C569 C568 1.399 . S
C569 H575 0.930 . S
H570 C550 0.931 . S
H571 C551 0.930 . S
H572 C559 0.931 . S
H573 C560 0.929 . S
H574 C568 0.929 . S
H575 C569 0.930 . S
Mn576 O581 2.095 . S
Mn576 O591 2.162 . S
Mn576 O592 2.297 . S
Mn576 O600 2.385 . S
Mn576 O601 2.209 . S
Mn576 O602 2.094 . S
Mn577 O582 2.121 . S
Mn577 N584 2.257 . S
Mn577 N593 2.282 . S
Mn577 O601 2.215 . S
Mn577 O603 2.117 . S
C578 O600 1.234 . S
C578 O601 1.283 . S
C579 O591 1.281 . S
C579 O592 1.236 . S
C580 O602 1.240 . S
C580 O603 1.264 . S
O581 Mn576 2.095 . S
O581 C590 1.250 . S
O582 Mn577 2.121 . S
O582 C590 1.258 . S
C583 N584 1.326 . S
C583 C587 1.460 . S
C583 H589 0.929 . S
N584 Mn577 2.257 . S
N584 C583 1.326 . S
N584 C588 1.362 . S
C585 C586 1.258 . S
C585 C588 1.431 . S
C585 C605 1.449 . S
C586 C585 1.258 . S
C586 C587 1.477 . S
C586 H606 0.931 . S
C587 C583 1.460 . S
C587 C586 1.477 . S
C587 H607 0.930 1_545 S
C588 N584 1.362 . S
C588 C585 1.431 . S
C588 C598 1.476 . S
H589 C583 0.929 . S
C590 O581 1.250 . S
C590 O582 1.258 . S
O591 Mn576 2.162 . S
O591 C579 1.281 . S
O592 Mn576 2.297 . S
O592 C579 1.236 . S
N593 Mn577 2.282 . S
N593 C594 1.328 . S
N593 C598 1.318 . S
C594 N593 1.328 . S
C594 C595 1.457 . S
C594 H599 0.929 . S
C595 C594 1.457 . S
C595 C596 1.291 . S
C595 H608 0.931 . S
C596 C595 1.291 . S
C596 C597 1.373 . S
C596 H609 0.929 . S
C597 C596 1.373 . S
C597 C598 1.396 . S
C597 C604 1.403 . S
C598 C588 1.476 . S
C598 N593 1.318 . S
C598 C597 1.396 . S
H599 C594 0.929 . S
O600 Mn576 2.385 . S
O600 C578 1.234 . S
O601 Mn576 2.209 . S
O601 Mn577 2.215 . S
O601 C578 1.283 . S
O602 Mn576 2.094 . S
O602 C580 1.240 . S
O603 Mn577 2.117 . S
O603 C580 1.264 . S
C604 C597 1.403 . S
C604 C605 1.399 . S
C604 H610 0.929 . S
C605 C585 1.449 . S
C605 C604 1.399 . S
C605 H611 0.930 . S
H606 C586 0.931 . S
H607 C587 0.930 1_565 S
H608 C595 0.931 . S
H609 C596 0.929 . S
H610 C604 0.929 . S
H611 C605 0.930 . S
Mn612 O617 2.095 . S
Mn612 O627 2.162 . S
Mn612 O628 2.297 . S
Mn612 O636 2.385 . S
Mn612 O637 2.209 . S
Mn612 O638 2.094 . S
Mn613 O618 2.121 . S
Mn613 N620 2.257 . S
Mn613 N629 2.282 . S
Mn613 O637 2.215 . S
Mn613 O639 2.117 . S
C614 O636 1.234 . S
C614 O637 1.283 . S
C615 O627 1.281 . S
C615 O628 1.236 . S
C616 O638 1.240 . S
C616 O639 1.264 . S
O617 Mn612 2.095 . S
O617 C626 1.250 . S
O618 Mn613 2.121 . S
O618 C626 1.258 . S
C619 N620 1.326 . S
C619 C623 1.460 . S
C619 H625 0.929 . S
N620 Mn613 2.257 . S
N620 C619 1.326 . S
N620 C624 1.362 . S
C621 C622 1.258 . S
C621 C624 1.431 . S
C621 C641 1.449 . S
C622 C621 1.258 . S
C622 C623 1.477 . S
C622 H642 0.931 . S
C623 C619 1.460 . S
C623 C622 1.477 . S
C623 H643 0.930 . S
C624 N620 1.362 . S
C624 C621 1.431 . S
C624 C634 1.476 . S
H625 C619 0.929 . S
C626 O617 1.250 . S
C626 O618 1.258 . S
O627 Mn612 2.162 . S
O627 C615 1.281 . S
O628 Mn612 2.297 . S
O628 C615 1.236 . S
N629 Mn613 2.282 . S
N629 C630 1.328 . S
N629 C634 1.318 . S
C630 N629 1.328 . S
C630 C631 1.457 . S
C630 H635 0.929 . S
C631 C630 1.457 . S
C631 C632 1.291 . S
C631 H644 0.931 . S
C632 C631 1.291 . S
C632 C633 1.373 . S
C632 H645 0.929 . S
C633 C632 1.373 . S
C633 C634 1.396 . S
C633 C640 1.403 . S
C634 C624 1.476 . S
C634 N629 1.318 . S
C634 C633 1.396 . S
H635 C630 0.929 . S
O636 Mn612 2.385 . S
O636 C614 1.234 . S
O637 Mn612 2.209 . S
O637 Mn613 2.215 . S
O637 C614 1.283 . S
O638 Mn612 2.094 . S
O638 C616 1.240 . S
O639 Mn613 2.117 . S
O639 C616 1.264 . S
C640 C633 1.403 . S
C640 C641 1.399 . S
C640 H646 0.929 . S
C641 C621 1.449 . S
C641 C640 1.399 . S
C641 H647 0.930 . S
H642 C622 0.931 . S
H643 C623 0.930 . S
H644 C631 0.931 . S
H645 C632 0.929 . S
H646 C640 0.929 . S
H647 C641 0.930 . S
H648 O674 0.856 . S
H649 O677 0.854 . S
H650 C685 0.930 . S
H651 C686 0.930 . S
H652 C688 0.930 . S
H653 C689 0.930 . S
H654 C691 0.931 . S
H655 C692 0.930 . S
H656 C694 0.930 . S
H657 C695 0.929 . S
H658 C697 0.930 . S
H659 C698 0.931 . S
H660 C700 0.930 . S
H661 C701 0.929 . S
H662 C703 0.931 . S
H663 C704 0.930 . S
H664 C706 0.930 . S
H665 C707 0.932 . S
H666 C709 0.930 . S
H667 C710 0.929 . S
H668 C712 0.931 . S
H669 C713 0.930 . S
H670 C715 0.929 . S
H671 C716 0.931 . S
H672 C718 0.930 . S
H673 C719 0.929 . S
O674 H648 0.856 . S
O674 C720 1.300 . S
O675 C720 1.209 . S
O676 C721 1.199 . S
O677 H649 0.854 . S
O677 C721 1.297 . S
C678 C679 1.404 . S
C678 C683 1.397 . S
C678 C684 1.492 . S
C679 C678 1.404 . S
C679 C680 1.396 . S
C679 C690 1.492 . S
C680 C679 1.396 . S
C680 C681 1.397 . S
C680 C696 1.509 . S
C681 C680 1.397 . S
C681 C682 1.412 . S
C681 C702 1.485 . S
C682 C681 1.412 . S
C682 C683 1.388 . S
C682 C708 1.490 . S
C683 C678 1.397 . S
C683 C682 1.388 . S
C683 C714 1.519 . S
C684 C678 1.492 . S
C684 C685 1.363 . S
C684 C689 1.390 . S
C685 H650 0.930 . S
C685 C684 1.363 . S
C685 C686 1.372 . S
C686 H651 0.930 . S
C686 C685 1.372 . S
C686 C687 1.383 . S
C687 C686 1.383 . S
C687 C688 1.395 . S
C688 H652 0.930 . S
C688 C687 1.395 . S
C688 C689 1.362 . S
C689 H653 0.930 . S
C689 C684 1.390 . S
C689 C688 1.362 . S
C690 C679 1.492 . S
C690 C691 1.377 . S
C690 C695 1.397 . S
C691 H654 0.931 . S
C691 C690 1.377 . S
C691 C692 1.376 . S
C692 H655 0.930 . S
C692 C691 1.376 . S
C692 C693 1.376 . S
C693 C692 1.376 . S
C693 C694 1.378 . S
C693 C720 1.486 . S
C694 H656 0.930 . S
C694 C693 1.378 . S
C694 C695 1.376 . S
C695 H657 0.929 . S
C695 C690 1.397 . S
C695 C694 1.376 . S
C696 C680 1.509 . S
C696 C697 1.391 . S
C696 C701 1.386 . S
C697 H658 0.930 . S
C697 C696 1.391 . S
C697 C698 1.375 . S
C698 H659 0.931 . S
C698 C697 1.375 . S
C698 C699 1.375 . S
C699 C698 1.375 . S
C699 C700 1.361 . S
C700 H660 0.930 . S
C700 C699 1.361 . S
C700 C701 1.399 . S
C701 H661 0.929 . S
C701 C696 1.386 . S
C701 C700 1.399 . S
C702 C681 1.485 . S
C702 C703 1.394 . S
C702 C707 1.360 . S
C703 H662 0.931 . S
C703 C702 1.394 . S
C703 C704 1.372 . S
C704 H663 0.930 . S
C704 C703 1.372 . S
C704 C705 1.397 . S
C705 C704 1.397 . S
C705 C706 1.390 . S
C705 C721 1.476 . S
C706 H664 0.930 . S
C706 C705 1.390 . S
C706 C707 1.366 . S
C707 H665 0.932 . S
C707 C702 1.360 . S
C707 C706 1.366 . S
C708 C682 1.490 . S
C708 C709 1.380 . S
C708 C713 1.386 . S
C709 H666 0.930 . S
C709 C708 1.380 . S
C709 C710 1.381 . S
C710 H667 0.929 . S
C710 C709 1.381 . S
C710 C711 1.371 . S
C711 C710 1.371 . S
C711 C712 1.380 . S
C712 H668 0.931 . S
C712 C711 1.380 . S
C712 C713 1.387 . S
C713 H669 0.930 . S
C713 C708 1.386 . S
C713 C712 1.387 . S
C714 C683 1.519 . S
C714 C715 1.377 . S
C714 C719 1.361 . S
C715 H670 0.929 . S
C715 C714 1.377 . S
C715 C716 1.386 . S
C716 H671 0.931 . S
C716 C715 1.386 . S
C716 C717 1.363 . S
C717 C716 1.363 . S
C717 C718 1.385 . S
C718 H672 0.930 . S
C718 C717 1.385 . S
C718 C719 1.396 . S
C719 H673 0.929 . S
C719 C714 1.361 . S
C719 C718 1.396 . S
C720 O674 1.300 . S
C720 O675 1.209 . S
C720 C693 1.486 . S
C721 O676 1.199 . S
C721 O677 1.297 . S
C721 C705 1.476 . S
H722 O748 0.856 . S
H723 O751 0.854 . S
H724 C759 0.930 . S
H725 C760 0.930 . S
H726 C762 0.930 . S
H727 C763 0.930 . S
H728 C765 0.931 . S
H729 C766 0.930 . S
H730 C768 0.930 . S
H731 C769 0.929 . S
H732 C771 0.930 . S
H733 C772 0.931 . S
H734 C774 0.930 . S
H735 C775 0.929 . S
H736 C777 0.931 . S
H737 C778 0.930 . S
H738 C780 0.930 . S
H739 C781 0.932 . S
H740 C783 0.930 . S
H741 C784 0.929 . S
H742 C786 0.931 . S
H743 C787 0.930 . S
H744 C789 0.929 . S
H745 C790 0.931 . S
H746 C792 0.930 . S
H747 C793 0.929 . S
O748 H722 0.856 . S
O748 C794 1.300 . S
O749 C794 1.209 . S
O750 C795 1.199 . S
O751 H723 0.854 . S
O751 C795 1.297 . S
C752 C753 1.404 . S
C752 C757 1.397 . S
C752 C758 1.492 . S
C753 C752 1.404 . S
C753 C754 1.396 . S
C753 C764 1.492 . S
C754 C753 1.396 . S
C754 C755 1.397 . S
C754 C770 1.509 . S
C755 C754 1.397 . S
C755 C756 1.412 . S
C755 C776 1.485 . S
C756 C755 1.412 . S
C756 C757 1.388 . S
C756 C782 1.490 . S
C757 C752 1.397 . S
C757 C756 1.388 . S
C757 C788 1.519 . S
C758 C752 1.492 . S
C758 C759 1.363 . S
C758 C763 1.390 . S
C759 H724 0.930 . S
C759 C758 1.363 . S
C759 C760 1.372 . S
C760 H725 0.930 . S
C760 C759 1.372 . S
C760 C761 1.383 . S
C761 C760 1.383 . S
C761 C762 1.395 . S
C762 H726 0.930 . S
C762 C761 1.395 . S
C762 C763 1.362 . S
C763 H727 0.930 . S
C763 C758 1.390 . S
C763 C762 1.362 . S
C764 C753 1.492 . S
C764 C765 1.377 . S
C764 C769 1.397 . S
C765 H728 0.931 . S
C765 C764 1.377 . S
C765 C766 1.376 . S
C766 H729 0.930 . S
C766 C765 1.376 . S
C766 C767 1.376 . S
C767 C766 1.376 . S
C767 C768 1.378 . S
C767 C794 1.486 . S
C768 H730 0.930 . S
C768 C767 1.378 . S
C768 C769 1.376 . S
C769 H731 0.929 . S
C769 C764 1.397 . S
C769 C768 1.376 . S
C770 C754 1.509 . S
C770 C771 1.391 . S
C770 C775 1.386 . S
C771 H732 0.930 . S
C771 C770 1.391 . S
C771 C772 1.375 . S
C772 H733 0.931 . S
C772 C771 1.375 . S
C772 C773 1.375 . S
C773 C772 1.375 . S
C773 C774 1.361 . S
C774 H734 0.930 . S
C774 C773 1.361 . S
C774 C775 1.399 . S
C775 H735 0.929 . S
C775 C770 1.386 . S
C775 C774 1.399 . S
C776 C755 1.485 . S
C776 C777 1.394 . S
C776 C781 1.360 . S
C777 H736 0.931 . S
C777 C776 1.394 . S
C777 C778 1.372 . S
C778 H737 0.930 . S
C778 C777 1.372 . S
C778 C779 1.397 . S
C779 C778 1.397 . S
C779 C780 1.390 . S
C779 C795 1.476 . S
C780 H738 0.930 . S
C780 C779 1.390 . S
C780 C781 1.366 . S
C781 H739 0.932 . S
C781 C776 1.360 . S
C781 C780 1.366 . S
C782 C756 1.490 . S
C782 C783 1.380 . S
C782 C787 1.386 . S
C783 H740 0.930 . S
C783 C782 1.380 . S
C783 C784 1.381 . S
C784 H741 0.929 . S
C784 C783 1.381 . S
C784 C785 1.371 . S
C785 C784 1.371 . S
C785 C786 1.380 . S
C786 H742 0.931 . S
C786 C785 1.380 . S
C786 C787 1.387 . S
C787 H743 0.930 . S
C787 C782 1.386 . S
C787 C786 1.387 . S
C788 C757 1.519 . S
C788 C789 1.377 . S
C788 C793 1.361 . S
C789 H744 0.929 . S
C789 C788 1.377 . S
C789 C790 1.386 . S
C790 H745 0.931 . S
C790 C789 1.386 . S
C790 C791 1.363 . S
C791 C790 1.363 . S
C791 C792 1.385 . S
C792 H746 0.930 . S
C792 C791 1.385 . S
C792 C793 1.396 . S
C793 H747 0.929 . S
C793 C788 1.361 . S
C793 C792 1.396 . S
C794 O748 1.300 . S
C794 O749 1.209 . S
C794 C767 1.486 . S
C795 O750 1.199 . S
C795 O751 1.297 . S
C795 C779 1.476 . S
H796 O822 0.856 . S
H797 O825 0.854 . S
H798 C833 0.930 . S
H799 C834 0.930 . S
H800 C836 0.930 . S
H801 C837 0.930 . S
H802 C839 0.931 . S
H803 C840 0.930 . S
H804 C842 0.930 . S
H805 C843 0.929 . S
H806 C845 0.930 . S
H807 C846 0.931 . S
H808 C848 0.930 . S
H809 C849 0.929 . S
H810 C851 0.931 . S
H811 C852 0.930 . S
H812 C854 0.930 . S
H813 C855 0.932 . S
H814 C857 0.930 . S
H815 C858 0.929 . S
H816 C860 0.931 . S
H817 C861 0.930 . S
H818 C863 0.929 . S
H819 C864 0.931 . S
H820 C866 0.930 . S
H821 C867 0.929 . S
O822 H796 0.856 . S
O822 C868 1.300 . S
O823 C868 1.209 . S
O824 C869 1.199 . S
O825 H797 0.854 . S
O825 C869 1.297 . S
C826 C827 1.404 . S
C826 C831 1.397 . S
C826 C832 1.492 . S
C827 C826 1.404 . S
C827 C828 1.396 . S
C827 C838 1.492 . S
C828 C827 1.396 . S
C828 C829 1.397 . S
C828 C844 1.509 . S
C829 C828 1.397 . S
C829 C830 1.412 . S
C829 C850 1.485 . S
C830 C829 1.412 . S
C830 C831 1.388 . S
C830 C856 1.490 . S
C831 C826 1.397 . S
C831 C830 1.388 . S
C831 C862 1.519 . S
C832 C826 1.492 . S
C832 C833 1.363 . S
C832 C837 1.390 . S
C833 H798 0.930 . S
C833 C832 1.363 . S
C833 C834 1.372 . S
C834 H799 0.930 . S
C834 C833 1.372 . S
C834 C835 1.383 . S
C835 C834 1.383 . S
C835 C836 1.395 . S
C836 H800 0.930 . S
C836 C835 1.395 . S
C836 C837 1.362 . S
C837 H801 0.930 . S
C837 C832 1.390 . S
C837 C836 1.362 . S
C838 C827 1.492 . S
C838 C839 1.377 . S
C838 C843 1.397 . S
C839 H802 0.931 . S
C839 C838 1.377 . S
C839 C840 1.376 . S
C840 H803 0.930 . S
C840 C839 1.376 . S
C840 C841 1.376 . S
C841 C840 1.376 . S
C841 C842 1.378 . S
C841 C868 1.486 . S
C842 H804 0.930 . S
C842 C841 1.378 . S
C842 C843 1.376 . S
C843 H805 0.929 . S
C843 C838 1.397 . S
C843 C842 1.376 . S
C844 C828 1.509 . S
C844 C845 1.391 . S
C844 C849 1.386 . S
C845 H806 0.930 . S
C845 C844 1.391 . S
C845 C846 1.375 . S
C846 H807 0.931 . S
C846 C845 1.375 . S
C846 C847 1.375 . S
C847 C846 1.375 . S
C847 C848 1.361 . S
C848 H808 0.930 . S
C848 C847 1.361 . S
C848 C849 1.399 . S
C849 H809 0.929 . S
C849 C844 1.386 . S
C849 C848 1.399 . S
C850 C829 1.485 . S
C850 C851 1.394 . S
C850 C855 1.360 . S
C851 H810 0.931 . S
C851 C850 1.394 . S
C851 C852 1.372 . S
C852 H811 0.930 . S
C852 C851 1.372 . S
C852 C853 1.397 . S
C853 C852 1.397 . S
C853 C854 1.390 . S
C853 C869 1.476 . S
C854 H812 0.930 . S
C854 C853 1.390 . S
C854 C855 1.366 . S
C855 H813 0.932 . S
C855 C850 1.360 . S
C855 C854 1.366 . S
C856 C830 1.490 . S
C856 C857 1.380 . S
C856 C861 1.386 . S
C857 H814 0.930 . S
C857 C856 1.380 . S
C857 C858 1.381 . S
C858 H815 0.929 . S
C858 C857 1.381 . S
C858 C859 1.371 . S
C859 C858 1.371 . S
C859 C860 1.380 . S
C860 H816 0.931 . S
C860 C859 1.380 . S
C860 C861 1.387 . S
C861 H817 0.930 . S
C861 C856 1.386 . S
C861 C860 1.387 . S
C862 C831 1.519 . S
C862 C863 1.377 . S
C862 C867 1.361 . S
C863 H818 0.929 . S
C863 C862 1.377 . S
C863 C864 1.386 . S
C864 H819 0.931 . S
C864 C863 1.386 . S
C864 C865 1.363 . S
C865 C864 1.363 . S
C865 C866 1.385 . S
C866 H820 0.930 . S
C866 C865 1.385 . S
C866 C867 1.396 . S
C867 H821 0.929 . S
C867 C862 1.361 . S
C867 C866 1.396 . S
C868 O822 1.300 . S
C868 O823 1.209 . S
C868 C841 1.486 . S
C869 O824 1.199 . S
C869 O825 1.297 . S
C869 C853 1.476 . S
H870 O896 0.856 . S
H871 O899 0.854 . S
H872 C907 0.930 . S
H873 C908 0.930 . S
H874 C910 0.930 . S
H875 C911 0.930 . S
H876 C913 0.931 . S
H877 C914 0.930 . S
H878 C916 0.930 . S
H879 C917 0.929 . S
H880 C919 0.930 . S
H881 C920 0.931 . S
H882 C922 0.930 . S
H883 C923 0.929 . S
H884 C925 0.931 . S
H885 C926 0.930 . S
H886 C928 0.930 . S
H887 C929 0.932 . S
H888 C931 0.930 . S
H889 C932 0.929 . S
H890 C934 0.931 . S
H891 C935 0.930 . S
H892 C937 0.929 . S
H893 C938 0.931 . S
H894 C940 0.930 . S
H895 C941 0.929 . S
O896 H870 0.856 . S
O896 C942 1.300 1_554 S
O897 C942 1.209 1_554 S
O898 C943 1.199 . S
O899 H871 0.854 . S
O899 C943 1.297 . S
C900 C901 1.404 . S
C900 C905 1.397 . S
C900 C906 1.492 . S
C901 C900 1.404 . S
C901 C902 1.396 . S
C901 C912 1.492 . S
C902 C901 1.396 . S
C902 C903 1.397 . S
C902 C918 1.509 . S
C903 C902 1.397 . S
C903 C904 1.412 . S
C903 C924 1.485 . S
C904 C903 1.412 . S
C904 C905 1.388 . S
C904 C930 1.490 . S
C905 C900 1.397 . S
C905 C904 1.388 . S
C905 C936 1.519 . S
C906 C900 1.492 . S
C906 C907 1.363 . S
C906 C911 1.390 . S
C907 H872 0.930 . S
C907 C906 1.363 . S
C907 C908 1.372 . S
C908 H873 0.930 . S
C908 C907 1.372 . S
C908 C909 1.383 . S
C909 C908 1.383 . S
C909 C910 1.395 . S
C910 H874 0.930 . S
C910 C909 1.395 . S
C910 C911 1.362 . S
C911 H875 0.930 . S
C911 C906 1.390 . S
C911 C910 1.362 . S
C912 C901 1.492 . S
C912 C913 1.377 . S
C912 C917 1.397 . S
C913 H876 0.931 . S
C913 C912 1.377 . S
C913 C914 1.376 . S
C914 H877 0.930 . S
C914 C913 1.376 . S
C914 C915 1.376 . S
C915 C914 1.376 . S
C915 C916 1.378 . S
C915 C942 1.486 . S
C916 H878 0.930 . S
C916 C915 1.378 . S
C916 C917 1.376 . S
C917 H879 0.929 . S
C917 C912 1.397 . S
C917 C916 1.376 . S
C918 C902 1.509 . S
C918 C919 1.391 . S
C918 C923 1.386 . S
C919 H880 0.930 . S
C919 C918 1.391 . S
C919 C920 1.375 . S
C920 H881 0.931 . S
C920 C919 1.375 . S
C920 C921 1.375 . S
C921 C920 1.375 . S
C921 C922 1.361 . S
C922 H882 0.930 . S
C922 C921 1.361 . S
C922 C923 1.399 . S
C923 H883 0.929 . S
C923 C918 1.386 . S
C923 C922 1.399 . S
C924 C903 1.485 . S
C924 C925 1.394 . S
C924 C929 1.360 . S
C925 H884 0.931 . S
C925 C924 1.394 . S
C925 C926 1.372 . S
C926 H885 0.930 . S
C926 C925 1.372 . S
C926 C927 1.397 . S
C927 C926 1.397 . S
C927 C928 1.390 . S
C927 C943 1.476 . S
C928 H886 0.930 . S
C928 C927 1.390 . S
C928 C929 1.366 . S
C929 H887 0.932 . S
C929 C924 1.360 . S
C929 C928 1.366 . S
C930 C904 1.490 . S
C930 C931 1.380 . S
C930 C935 1.386 . S
C931 H888 0.930 . S
C931 C930 1.380 . S
C931 C932 1.381 . S
C932 H889 0.929 . S
C932 C931 1.381 . S
C932 C933 1.371 . S
C933 C932 1.371 . S
C933 C934 1.380 . S
C934 H890 0.931 . S
C934 C933 1.380 . S
C934 C935 1.387 . S
C935 H891 0.930 . S
C935 C930 1.386 . S
C935 C934 1.387 . S
C936 C905 1.519 . S
C936 C937 1.377 . S
C936 C941 1.361 . S
C937 H892 0.929 . S
C937 C936 1.377 . S
C937 C938 1.386 . S
C938 H893 0.931 . S
C938 C937 1.386 . S
C938 C939 1.363 . S
C939 C938 1.363 . S
C939 C940 1.385 . S
C940 H894 0.930 . S
C940 C939 1.385 . S
C940 C941 1.396 . S
C941 H895 0.929 . S
C941 C936 1.361 . S
C941 C940 1.396 . S
C942 O896 1.300 1_556 S
C942 O897 1.209 1_556 S
C942 C915 1.486 . S
C943 O898 1.199 . S
C943 O899 1.297 . S
C943 C927 1.476 . S
H944 O970 0.856 . S
H945 O973 0.854 . S
H946 C981 0.930 . S
H947 C982 0.930 . S
H948 C984 0.930 . S
H949 C985 0.930 . S
H950 C987 0.931 . S
H951 C988 0.930 . S
H952 C990 0.930 . S
H953 C991 0.929 . S
H954 C993 0.930 . S
H955 C994 0.931 . S
H956 C996 0.930 . S
H957 C997 0.929 . S
H958 C999 0.931 . S
H959 C1000 0.930 . S
H960 C1002 0.930 . S
H961 C1003 0.932 . S
H962 C1005 0.930 . S
H963 C1006 0.929 . S
H964 C1008 0.931 . S
H965 C1009 0.930 . S
H966 C1011 0.929 . S
H967 C1012 0.931 . S
H968 C1014 0.930 . S
H969 C1015 0.929 . S
O970 H944 0.856 . S
O970 C1016 1.332 . S
O971 C1016 1.234 . S
O972 C1017 1.199 . S
O973 H945 0.854 . S
O973 C1017 1.297 . S
C974 C975 1.404 . S
C974 C979 1.397 . S
C974 C980 1.492 . S
C975 C974 1.404 . S
C975 C976 1.396 . S
C975 C986 1.492 . S
C976 C975 1.396 . S
C976 C977 1.397 . S
C976 C992 1.509 . S
C977 C976 1.397 . S
C977 C978 1.412 . S
C977 C998 1.485 . S
C978 C977 1.412 . S
C978 C979 1.388 . S
C978 C1004 1.490 . S
C979 C974 1.397 . S
C979 C978 1.388 . S
C979 C1010 1.519 . S
C980 C974 1.492 . S
C980 C981 1.363 . S
C980 C985 1.390 . S
C981 H946 0.930 . S
C981 C980 1.363 . S
C981 C982 1.372 . S
C982 H947 0.930 . S
C982 C981 1.372 . S
C982 C983 1.383 . S
C983 C982 1.383 . S
C983 C984 1.395 . S
C984 H948 0.930 . S
C984 C983 1.395 . S
C984 C985 1.362 . S
C985 H949 0.930 . S
C985 C980 1.390 . S
C985 C984 1.362 . S
C986 C975 1.492 . S
C986 C987 1.377 . S
C986 C991 1.397 . S
C987 H950 0.931 . S
C987 C986 1.377 . S
C987 C988 1.376 . S
C988 H951 0.930 . S
C988 C987 1.376 . S
C988 C989 1.376 . S
C989 C988 1.376 . S
C989 C990 1.378 . S
C989 C1016 1.428 1_556 S
C990 H952 0.930 . S
C990 C989 1.378 . S
C990 C991 1.376 . S
C991 H953 0.929 . S
C991 C986 1.397 . S
C991 C990 1.376 . S
C992 C976 1.509 . S
C992 C993 1.391 . S
C992 C997 1.386 . S
C993 H954 0.930 . S
C993 C992 1.391 . S
C993 C994 1.375 . S
C994 H955 0.931 . S
C994 C993 1.375 . S
C994 C995 1.375 . S
C995 C994 1.375 . S
C995 C996 1.361 . S
C996 H956 0.930 . S
C996 C995 1.361 . S
C996 C997 1.399 . S
C997 H957 0.929 . S
C997 C992 1.386 . S
C997 C996 1.399 . S
C998 C977 1.485 . S
C998 C999 1.394 . S
C998 C1003 1.360 . S
C999 H958 0.931 . S
C999 C998 1.394 . S
C999 C1000 1.372 . S
C1000 H959 0.930 . S
C1000 C999 1.372 . S
C1000 C1001 1.397 . S
C1001 C1000 1.397 . S
C1001 C1002 1.390 . S
C1001 C1017 1.476 . S
C1002 H960 0.930 . S
C1002 C1001 1.390 . S
C1002 C1003 1.366 . S
C1003 H961 0.932 . S
C1003 C998 1.360 . S
C1003 C1002 1.366 . S
C1004 C978 1.490 . S
C1004 C1005 1.380 . S
C1004 C1009 1.386 . S
C1005 H962 0.930 . S
C1005 C1004 1.380 . S
C1005 C1006 1.381 . S
C1006 H963 0.929 . S
C1006 C1005 1.381 . S
C1006 C1007 1.371 . S
C1007 C1006 1.371 . S
C1007 C1008 1.380 . S
C1008 H964 0.931 . S
C1008 C1007 1.380 . S
C1008 C1009 1.387 . S
C1009 H965 0.930 . S
C1009 C1004 1.386 . S
C1009 C1008 1.387 . S
C1010 C979 1.519 . S
C1010 C1011 1.377 . S
C1010 C1015 1.361 . S
C1011 H966 0.929 . S
C1011 C1010 1.377 . S
C1011 C1012 1.386 . S
C1012 H967 0.931 . S
C1012 C1011 1.386 . S
C1012 C1013 1.363 . S
C1013 C1012 1.363 . S
C1013 C1014 1.385 . S
C1014 H968 0.930 . S
C1014 C1013 1.385 . S
C1014 C1015 1.396 . S
C1015 H969 0.929 . S
C1015 C1010 1.361 . S
C1015 C1014 1.396 . S
C1016 O970 1.332 . S
C1016 O971 1.234 . S
C1016 C989 1.428 1_554 S
C1017 O972 1.199 . S
C1017 O973 1.297 . S
C1017 C1001 1.476 . S
H1018 O1044 0.856 . S
H1019 O1047 0.854 . S
H1020 C1055 0.930 . S
H1021 C1056 0.930 . S
H1022 C1058 0.930 . S
H1023 C1059 0.930 . S
H1024 C1061 0.931 . S
H1025 C1062 0.930 . S
H1026 C1064 0.930 . S
H1027 C1065 0.929 . S
H1028 C1067 0.930 . S
H1029 C1068 0.931 . S
H1030 C1070 0.930 . S
H1031 C1071 0.929 . S
H1032 C1073 0.931 . S
H1033 C1074 0.930 . S
H1034 C1076 0.930 . S
H1035 C1077 0.932 . S
H1036 C1079 0.930 . S
H1037 C1080 0.929 . S
H1038 C1082 0.931 . S
H1039 C1083 0.930 . S
H1040 C1085 0.929 . S
H1041 C1086 0.931 . S
H1042 C1088 0.930 . S
H1043 C1089 0.929 . S
O1044 H1018 0.856 . S
O1044 C1090 1.300 . S
O1045 C1090 1.209 . S
O1046 C1091 1.199 . S
O1047 H1019 0.854 . S
O1047 C1091 1.297 . S
C1048 C1049 1.404 . S
C1048 C1053 1.397 . S
C1048 C1054 1.492 . S
C1049 C1048 1.404 . S
C1049 C1050 1.396 . S
C1049 C1060 1.492 . S
C1050 C1049 1.396 . S
C1050 C1051 1.397 . S
C1050 C1066 1.509 . S
C1051 C1050 1.397 . S
C1051 C1052 1.412 . S
C1051 C1072 1.485 . S
C1052 C1051 1.412 . S
C1052 C1053 1.388 . S
C1052 C1078 1.490 . S
C1053 C1048 1.397 . S
C1053 C1052 1.388 . S
C1053 C1084 1.519 . S
C1054 C1048 1.492 . S
C1054 C1055 1.363 . S
C1054 C1059 1.390 . S
C1055 H1020 0.930 . S
C1055 C1054 1.363 . S
C1055 C1056 1.372 . S
C1056 H1021 0.930 . S
C1056 C1055 1.372 . S
C1056 C1057 1.383 . S
C1057 C1056 1.383 . S
C1057 C1058 1.395 . S
C1058 H1022 0.930 . S
C1058 C1057 1.395 . S
C1058 C1059 1.362 . S
C1059 H1023 0.930 . S
C1059 C1054 1.390 . S
C1059 C1058 1.362 . S
C1060 C1049 1.492 . S
C1060 C1061 1.377 . S
C1060 C1065 1.397 . S
C1061 H1024 0.931 . S
C1061 C1060 1.377 . S
C1061 C1062 1.376 . S
C1062 H1025 0.930 . S
C1062 C1061 1.376 . S
C1062 C1063 1.376 . S
C1063 C1062 1.376 . S
C1063 C1064 1.378 . S
C1063 C1090 1.486 1_556 S
C1064 H1026 0.930 . S
C1064 C1063 1.378 . S
C1064 C1065 1.376 . S
C1065 H1027 0.929 . S
C1065 C1060 1.397 . S
C1065 C1064 1.376 . S
C1066 C1050 1.509 . S
C1066 C1067 1.391 . S
C1066 C1071 1.386 . S
C1067 H1028 0.930 . S
C1067 C1066 1.391 . S
C1067 C1068 1.375 . S
C1068 H1029 0.931 . S
C1068 C1067 1.375 . S
C1068 C1069 1.375 . S
C1069 C1068 1.375 . S
C1069 C1070 1.361 . S
C1070 H1030 0.930 . S
C1070 C1069 1.361 . S
C1070 C1071 1.399 . S
C1071 H1031 0.929 . S
C1071 C1066 1.386 . S
C1071 C1070 1.399 . S
C1072 C1051 1.485 . S
C1072 C1073 1.394 . S
C1072 C1077 1.360 . S
C1073 H1032 0.931 . S
C1073 C1072 1.394 . S
C1073 C1074 1.372 . S
C1074 H1033 0.930 . S
C1074 C1073 1.372 . S
C1074 C1075 1.397 . S
C1075 C1074 1.397 . S
C1075 C1076 1.390 . S
C1075 C1091 1.476 . S
C1076 H1034 0.930 . S
C1076 C1075 1.390 . S
C1076 C1077 1.366 . S
C1077 H1035 0.932 . S
C1077 C1072 1.360 . S
C1077 C1076 1.366 . S
C1078 C1052 1.490 . S
C1078 C1079 1.380 . S
C1078 C1083 1.386 . S
C1079 H1036 0.930 . S
C1079 C1078 1.380 . S
C1079 C1080 1.381 . S
C1080 H1037 0.929 . S
C1080 C1079 1.381 . S
C1080 C1081 1.371 . S
C1081 C1080 1.371 . S
C1081 C1082 1.380 . S
C1082 H1038 0.931 . S
C1082 C1081 1.380 . S
C1082 C1083 1.387 . S
C1083 H1039 0.930 . S
C1083 C1078 1.386 . S
C1083 C1082 1.387 . S
C1084 C1053 1.519 . S
C1084 C1085 1.377 . S
C1084 C1089 1.361 . S
C1085 H1040 0.929 . S
C1085 C1084 1.377 . S
C1085 C1086 1.386 . S
C1086 H1041 0.931 . S
C1086 C1085 1.386 . S
C1086 C1087 1.363 . S
C1087 C1086 1.363 . S
C1087 C1088 1.385 . S
C1088 H1042 0.930 . S
C1088 C1087 1.385 . S
C1088 C1089 1.396 . S
C1089 H1043 0.929 . S
C1089 C1084 1.361 . S
C1089 C1088 1.396 . S
C1090 O1044 1.300 . S
C1090 O1045 1.209 . S
C1090 C1063 1.486 1_554 S
C1091 O1046 1.199 . S
C1091 O1047 1.297 . S
C1091 C1075 1.476 . S
H1092 O1118 0.856 . S
H1093 O1121 0.854 . S
H1094 C1129 0.930 . S
H1095 C1130 0.930 . S
H1096 C1132 0.930 . S
H1097 C1133 0.930 . S
H1098 C1135 0.931 . S
H1099 C1136 0.930 . S
H1100 C1138 0.930 . S
H1101 C1139 0.929 . S
H1102 C1141 0.930 . S
H1103 C1142 0.931 . S
H1104 C1144 0.930 . S
H1105 C1145 0.929 . S
H1106 C1147 0.931 . S
H1107 C1148 0.930 . S
H1108 C1150 0.930 . S
H1109 C1151 0.932 . S
H1110 C1153 0.930 . S
H1111 C1154 0.929 . S
H1112 C1156 0.931 . S
H1113 C1157 0.930 . S
H1114 C1159 0.929 . S
H1115 C1160 0.931 . S
H1116 C1162 0.930 . S
H1117 C1163 0.929 . S
O1118 H1092 0.856 . S
O1118 C1164 1.300 . S
O1119 C1164 1.209 . S
O1120 C1165 1.199 . S
O1121 H1093 0.854 . S
O1121 C1165 1.297 . S
C1122 C1123 1.404 . S
C1122 C1127 1.397 . S
C1122 C1128 1.492 . S
C1123 C1122 1.404 . S
C1123 C1124 1.396 . S
C1123 C1134 1.492 . S
C1124 C1123 1.396 . S
C1124 C1125 1.397 . S
C1124 C1140 1.509 . S
C1125 C1124 1.397 . S
C1125 C1126 1.412 . S
C1125 C1146 1.485 . S
C1126 C1125 1.412 . S
C1126 C1127 1.388 . S
C1126 C1152 1.490 . S
C1127 C1122 1.397 . S
C1127 C1126 1.388 . S
C1127 C1158 1.519 . S
C1128 C1122 1.492 . S
C1128 C1129 1.363 . S
C1128 C1133 1.390 . S
C1129 H1094 0.930 . S
C1129 C1128 1.363 . S
C1129 C1130 1.372 . S
C1130 H1095 0.930 . S
C1130 C1129 1.372 . S
C1130 C1131 1.383 . S
C1131 C1130 1.383 . S
C1131 C1132 1.395 . S
C1132 H1096 0.930 . S
C1132 C1131 1.395 . S
C1132 C1133 1.362 . S
C1133 H1097 0.930 . S
C1133 C1128 1.390 . S
C1133 C1132 1.362 . S
C1134 C1123 1.492 . S
C1134 C1135 1.377 . S
C1134 C1139 1.397 . S
C1135 H1098 0.931 . S
C1135 C1134 1.377 . S
C1135 C1136 1.376 . S
C1136 H1099 0.930 . S
C1136 C1135 1.376 . S
C1136 C1137 1.376 . S
C1137 C1136 1.376 . S
C1137 C1138 1.378 . S
C1137 C1164 1.486 . S
C1138 H1100 0.930 . S
C1138 C1137 1.378 . S
C1138 C1139 1.376 . S
C1139 H1101 0.929 . S
C1139 C1134 1.397 . S
C1139 C1138 1.376 . S
C1140 C1124 1.509 . S
C1140 C1141 1.391 . S
C1140 C1145 1.386 . S
C1141 H1102 0.930 . S
C1141 C1140 1.391 . S
C1141 C1142 1.375 . S
C1142 H1103 0.931 . S
C1142 C1141 1.375 . S
C1142 C1143 1.375 . S
C1143 C1142 1.375 . S
C1143 C1144 1.361 . S
C1144 H1104 0.930 . S
C1144 C1143 1.361 . S
C1144 C1145 1.399 . S
C1145 H1105 0.929 . S
C1145 C1140 1.386 . S
C1145 C1144 1.399 . S
C1146 C1125 1.485 . S
C1146 C1147 1.394 . S
C1146 C1151 1.360 . S
C1147 H1106 0.931 . S
C1147 C1146 1.394 . S
C1147 C1148 1.372 . S
C1148 H1107 0.930 . S
C1148 C1147 1.372 . S
C1148 C1149 1.397 . S
C1149 C1148 1.397 . S
C1149 C1150 1.390 . S
C1149 C1165 1.476 . S
C1150 H1108 0.930 . S
C1150 C1149 1.390 . S
C1150 C1151 1.366 . S
C1151 H1109 0.932 . S
C1151 C1146 1.360 . S
C1151 C1150 1.366 . S
C1152 C1126 1.490 . S
C1152 C1153 1.380 . S
C1152 C1157 1.386 . S
C1153 H1110 0.930 . S
C1153 C1152 1.380 . S
C1153 C1154 1.381 . S
C1154 H1111 0.929 . S
C1154 C1153 1.381 . S
C1154 C1155 1.371 . S
C1155 C1154 1.371 . S
C1155 C1156 1.380 . S
C1156 H1112 0.931 . S
C1156 C1155 1.380 . S
C1156 C1157 1.387 . S
C1157 H1113 0.930 . S
C1157 C1152 1.386 . S
C1157 C1156 1.387 . S
C1158 C1127 1.519 . S
C1158 C1159 1.377 . S
C1158 C1163 1.361 . S
C1159 H1114 0.929 . S
C1159 C1158 1.377 . S
C1159 C1160 1.386 . S
C1160 H1115 0.931 . S
C1160 C1159 1.386 . S
C1160 C1161 1.363 . S
C1161 C1160 1.363 . S
C1161 C1162 1.385 . S
C1162 H1116 0.930 . S
C1162 C1161 1.385 . S
C1162 C1163 1.396 . S
C1163 H1117 0.929 . S
C1163 C1158 1.361 . S
C1163 C1162 1.396 . S
C1164 O1118 1.300 . S
C1164 O1119 1.209 . S
C1164 C1137 1.486 . S
C1165 O1120 1.199 . S
C1165 O1121 1.297 . S
C1165 C1149 1.476 . S
H1166 O1192 0.856 . S
H1167 O1195 0.854 . S
H1168 C1203 0.930 . S
H1169 C1204 0.930 . S
H1170 C1206 0.930 . S
H1171 C1207 0.930 . S
H1172 C1209 0.931 . S
H1173 C1210 0.930 . S
H1174 C1212 0.930 . S
H1175 C1213 0.929 . S
H1176 C1215 0.930 . S
H1177 C1216 0.931 . S
H1178 C1218 0.930 . S
H1179 C1219 0.929 . S
H1180 C1221 0.931 . S
H1181 C1222 0.930 . S
H1182 C1224 0.930 . S
H1183 C1225 0.932 . S
H1184 C1227 0.930 . S
H1185 C1228 0.929 . S
H1186 C1230 0.931 . S
H1187 C1231 0.930 . S
H1188 C1233 0.929 . S
H1189 C1234 0.931 . S
H1190 C1236 0.930 . S
H1191 C1237 0.929 . S
O1192 H1166 0.856 . S
O1192 C1238 1.300 . S
O1193 C1238 1.209 . S
O1194 C1239 1.199 . S
O1195 H1167 0.854 . S
O1195 C1239 1.297 . S
C1196 C1197 1.404 . S
C1196 C1201 1.397 . S
C1196 C1202 1.492 . S
C1197 C1196 1.404 . S
C1197 C1198 1.396 . S
C1197 C1208 1.492 . S
C1198 C1197 1.396 . S
C1198 C1199 1.397 . S
C1198 C1214 1.509 . S
C1199 C1198 1.397 . S
C1199 C1200 1.412 . S
C1199 C1220 1.485 . S
C1200 C1199 1.412 . S
C1200 C1201 1.388 . S
C1200 C1226 1.490 . S
C1201 C1196 1.397 . S
C1201 C1200 1.388 . S
C1201 C1232 1.519 . S
C1202 C1196 1.492 . S
C1202 C1203 1.363 . S
C1202 C1207 1.390 . S
C1203 H1168 0.930 . S
C1203 C1202 1.363 . S
C1203 C1204 1.372 . S
C1204 H1169 0.930 . S
C1204 C1203 1.372 . S
C1204 C1205 1.383 . S
C1205 C1204 1.383 . S
C1205 C1206 1.395 . S
C1206 H1170 0.930 . S
C1206 C1205 1.395 . S
C1206 C1207 1.362 . S
C1207 H1171 0.930 . S
C1207 C1202 1.390 . S
C1207 C1206 1.362 . S
C1208 C1197 1.492 . S
C1208 C1209 1.377 . S
C1208 C1213 1.397 . S
C1209 H1172 0.931 . S
C1209 C1208 1.377 . S
C1209 C1210 1.376 . S
C1210 H1173 0.930 . S
C1210 C1209 1.376 . S
C1210 C1211 1.376 . S
C1211 C1210 1.376 . S
C1211 C1212 1.378 . S
C1211 C1238 1.486 . S
C1212 H1174 0.930 . S
C1212 C1211 1.378 . S
C1212 C1213 1.376 . S
C1213 H1175 0.929 . S
C1213 C1208 1.397 . S
C1213 C1212 1.376 . S
C1214 C1198 1.509 . S
C1214 C1215 1.391 . S
C1214 C1219 1.386 . S
C1215 H1176 0.930 . S
C1215 C1214 1.391 . S
C1215 C1216 1.375 . S
C1216 H1177 0.931 . S
C1216 C1215 1.375 . S
C1216 C1217 1.375 . S
C1217 C1216 1.375 . S
C1217 C1218 1.361 . S
C1218 H1178 0.930 . S
C1218 C1217 1.361 . S
C1218 C1219 1.399 . S
C1219 H1179 0.929 . S
C1219 C1214 1.386 . S
C1219 C1218 1.399 . S
C1220 C1199 1.485 . S
C1220 C1221 1.394 . S
C1220 C1225 1.360 . S
C1221 H1180 0.931 . S
C1221 C1220 1.394 . S
C1221 C1222 1.372 . S
C1222 H1181 0.930 . S
C1222 C1221 1.372 . S
C1222 C1223 1.397 . S
C1223 C1222 1.397 . S
C1223 C1224 1.390 . S
C1223 C1239 1.476 . S
C1224 H1182 0.930 . S
C1224 C1223 1.390 . S
C1224 C1225 1.366 . S
C1225 H1183 0.932 . S
C1225 C1220 1.360 . S
C1225 C1224 1.366 . S
C1226 C1200 1.490 . S
C1226 C1227 1.380 . S
C1226 C1231 1.386 . S
C1227 H1184 0.930 . S
C1227 C1226 1.380 . S
C1227 C1228 1.381 . S
C1228 H1185 0.929 . S
C1228 C1227 1.381 . S
C1228 C1229 1.371 . S
C1229 C1228 1.371 . S
C1229 C1230 1.380 . S
C1230 H1186 0.931 . S
C1230 C1229 1.380 . S
C1230 C1231 1.387 . S
C1231 H1187 0.930 . S
C1231 C1226 1.386 . S
C1231 C1230 1.387 . S
C1232 C1201 1.519 . S
C1232 C1233 1.377 . S
C1232 C1237 1.361 . S
C1233 H1188 0.929 . S
C1233 C1232 1.377 . S
C1233 C1234 1.386 . S
C1234 H1189 0.931 . S
C1234 C1233 1.386 . S
C1234 C1235 1.363 . S
C1235 C1234 1.363 . S
C1235 C1236 1.385 . S
C1236 H1190 0.930 . S
C1236 C1235 1.385 . S
C1236 C1237 1.396 . S
C1237 H1191 0.929 . S
C1237 C1232 1.361 . S
C1237 C1236 1.396 . S
C1238 O1192 1.300 . S
C1238 O1193 1.209 . S
C1238 C1211 1.486 . S
C1239 O1194 1.199 . S
C1239 O1195 1.297 . S
C1239 C1223 1.476 . S
H1240 O1266 0.856 . S
H1241 O1269 0.854 . S
H1242 C1277 0.930 . S
H1243 C1278 0.930 . S
H1244 C1280 0.930 . S
H1245 C1281 0.930 . S
H1246 C1283 0.931 . S
H1247 C1284 0.930 . S
H1248 C1286 0.930 . S
H1249 C1287 0.929 . S
H1250 C1289 0.930 . S
H1251 C1290 0.931 . S
H1252 C1292 0.930 . S
H1253 C1293 0.929 . S
H1254 C1295 0.931 . S
H1255 C1296 0.930 . S
H1256 C1298 0.930 . S
H1257 C1299 0.932 . S
H1258 C1301 0.930 . S
H1259 C1302 0.929 . S
H1260 C1304 0.931 . S
H1261 C1305 0.930 . S
H1262 C1307 0.929 . S
H1263 C1308 0.931 . S
H1264 C1310 0.930 . S
H1265 C1311 0.929 . S
O1266 H1240 0.856 . S
O1266 C1312 1.300 . S
O1267 C1312 1.209 . S
O1268 C1313 1.199 . S
O1269 H1241 0.854 . S
O1269 C1313 1.297 . S
C1270 C1271 1.404 . S
C1270 C1275 1.397 . S
C1270 C1276 1.492 . S
C1271 C1270 1.404 . S
C1271 C1272 1.396 . S
C1271 C1282 1.492 . S
C1272 C1271 1.396 . S
C1272 C1273 1.397 . S
C1272 C1288 1.509 . S
C1273 C1272 1.397 . S
C1273 C1274 1.412 . S
C1273 C1294 1.485 . S
C1274 C1273 1.412 . S
C1274 C1275 1.388 . S
C1274 C1300 1.490 . S
C1275 C1270 1.397 . S
C1275 C1274 1.388 . S
C1275 C1306 1.519 . S
C1276 C1270 1.492 . S
C1276 C1277 1.363 . S
C1276 C1281 1.390 . S
C1277 H1242 0.930 . S
C1277 C1276 1.363 . S
C1277 C1278 1.372 . S
C1278 H1243 0.930 . S
C1278 C1277 1.372 . S
C1278 C1279 1.383 . S
C1279 C1278 1.383 . S
C1279 C1280 1.395 . S
C1280 H1244 0.930 . S
C1280 C1279 1.395 . S
C1280 C1281 1.362 . S
C1281 H1245 0.930 . S
C1281 C1276 1.390 . S
C1281 C1280 1.362 . S
C1282 C1271 1.492 . S
C1282 C1283 1.377 . S
C1282 C1287 1.397 . S
C1283 H1246 0.931 . S
C1283 C1282 1.377 . S
C1283 C1284 1.376 . S
C1284 H1247 0.930 . S
C1284 C1283 1.376 . S
C1284 C1285 1.376 . S
C1285 C1284 1.376 . S
C1285 C1286 1.378 . S
C1285 C1312 1.486 . S
C1286 H1248 0.930 . S
C1286 C1285 1.378 . S
C1286 C1287 1.376 . S
C1287 H1249 0.929 . S
C1287 C1282 1.397 . S
C1287 C1286 1.376 . S
C1288 C1272 1.509 . S
C1288 C1289 1.391 . S
C1288 C1293 1.386 . S
C1289 H1250 0.930 . S
C1289 C1288 1.391 . S
C1289 C1290 1.375 . S
C1290 H1251 0.931 . S
C1290 C1289 1.375 . S
C1290 C1291 1.375 . S
C1291 C1290 1.375 . S
C1291 C1292 1.361 . S
C1292 H1252 0.930 . S
C1292 C1291 1.361 . S
C1292 C1293 1.399 . S
C1293 H1253 0.929 . S
C1293 C1288 1.386 . S
C1293 C1292 1.399 . S
C1294 C1273 1.485 . S
C1294 C1295 1.394 . S
C1294 C1299 1.360 . S
C1295 H1254 0.931 . S
C1295 C1294 1.394 . S
C1295 C1296 1.372 . S
C1296 H1255 0.930 . S
C1296 C1295 1.372 . S
C1296 C1297 1.397 . S
C1297 C1296 1.397 . S
C1297 C1298 1.390 . S
C1297 C1313 1.476 . S
C1298 H1256 0.930 . S
C1298 C1297 1.390 . S
C1298 C1299 1.366 . S
C1299 H1257 0.932 . S
C1299 C1294 1.360 . S
C1299 C1298 1.366 . S
C1300 C1274 1.490 . S
C1300 C1301 1.380 . S
C1300 C1305 1.386 . S
C1301 H1258 0.930 . S
C1301 C1300 1.380 . S
C1301 C1302 1.381 . S
C1302 H1259 0.929 . S
C1302 C1301 1.381 . S
C1302 C1303 1.371 . S
C1303 C1302 1.371 . S
C1303 C1304 1.380 . S
C1304 H1260 0.931 . S
C1304 C1303 1.380 . S
C1304 C1305 1.387 . S
C1305 H1261 0.930 . S
C1305 C1300 1.386 . S
C1305 C1304 1.387 . S
C1306 C1275 1.519 . S
C1306 C1307 1.377 . S
C1306 C1311 1.361 . S
C1307 H1262 0.929 . S
C1307 C1306 1.377 . S
C1307 C1308 1.386 . S
C1308 H1263 0.931 . S
C1308 C1307 1.386 . S
C1308 C1309 1.363 . S
C1309 C1308 1.363 . S
C1309 C1310 1.385 . S
C1310 H1264 0.930 . S
C1310 C1309 1.385 . S
C1310 C1311 1.396 . S
C1311 H1265 0.929 . S
C1311 C1306 1.361 . S
C1311 C1310 1.396 . S
C1312 O1266 1.300 . S
C1312 O1267 1.209 . S
C1312 C1285 1.486 . S
C1313 O1268 1.199 . S
C1313 O1269 1.297 . S
C1313 C1297 1.476 . S
H1314 O1340 0.856 . S
H1315 O1343 0.854 . S
H1316 C1351 0.930 . S
H1317 C1352 0.930 . S
H1318 C1354 0.930 . S
H1319 C1355 0.930 . S
H1320 C1357 0.931 . S
H1321 C1358 0.906 1_655 S
H1322 C1360 0.930 . S
H1323 C1361 0.929 . S
H1324 C1363 0.930 . S
H1325 C1364 0.929 . S
H1326 C1366 0.930 . S
H1327 C1367 0.929 . S
H1328 C1369 0.931 . S
H1329 C1370 0.930 . S
H1330 C1372 0.930 . S
H1331 C1373 0.932 . S
H1332 C1375 0.930 . S
H1333 C1376 0.929 . S
H1334 C1378 0.931 . S
H1335 C1379 0.930 . S
H1336 C1381 0.929 . S
H1337 C1382 0.931 . S
H1338 C1384 0.930 . S
H1339 C1385 0.929 . S
O1340 H1314 0.856 . S
O1340 C1386 1.300 . S
O1341 C1386 1.209 . S
O1342 C1387 1.199 1_655 S
O1343 H1315 0.854 . S
O1343 C1387 1.297 . S
C1344 C1345 1.404 . S
C1344 C1349 1.394 . S
C1344 C1350 1.492 . S
C1345 C1344 1.404 . S
C1345 C1346 1.396 . S
C1345 C1356 1.492 . S
C1346 C1345 1.396 . S
C1346 C1347 1.397 . S
C1346 C1362 1.509 . S
C1347 C1346 1.397 . S
C1347 C1348 1.420 . S
C1347 C1368 1.485 . S
C1348 C1347 1.420 . S
C1348 C1349 1.405 . S
C1348 C1374 1.491 1_455 S
C1349 C1344 1.394 . S
C1349 C1348 1.405 . S
C1349 C1380 1.495 1_455 S
C1350 C1344 1.492 . S
C1350 C1351 1.363 1_455 S
C1350 C1355 1.390 . S
C1351 H1316 0.930 . S
C1351 C1350 1.363 1_655 S
C1351 C1352 1.372 . S
C1352 H1317 0.930 . S
C1352 C1351 1.372 . S
C1352 C1353 1.383 . S
C1353 C1352 1.383 . S
C1353 C1354 1.395 1_655 S
C1354 H1318 0.930 . S
C1354 C1353 1.395 1_455 S
C1354 C1355 1.362 . S
C1355 H1319 0.930 . S
C1355 C1350 1.390 . S
C1355 C1354 1.362 . S
C1356 C1345 1.492 . S
C1356 C1357 1.377 1_455 S
C1356 C1361 1.397 . S
C1357 H1320 0.931 . S
C1357 C1356 1.377 1_655 S
C1357 C1358 1.380 1_655 S
C1358 H1321 0.906 1_455 S
C1358 C1357 1.380 1_455 S
C1358 C1359 1.398 . S
C1359 C1358 1.398 . S
C1359 C1360 1.378 . S
C1359 C1386 1.486 . S
C1360 H1322 0.930 . S
C1360 C1359 1.378 . S
C1360 C1361 1.376 . S
C1361 H1323 0.929 . S
C1361 C1356 1.397 . S
C1361 C1360 1.376 . S
C1362 C1346 1.509 . S
C1362 C1363 1.391 1_455 S
C1362 C1367 1.386 . S
C1363 H1324 0.930 . S
C1363 C1362 1.391 1_655 S
C1363 C1364 1.373 . S
C1364 H1325 0.929 . S
C1364 C1363 1.373 . S
C1364 C1365 1.379 1_655 S
C1365 C1364 1.379 1_455 S
C1365 C1366 1.361 . S
C1366 H1326 0.930 . S
C1366 C1365 1.361 . S
C1366 C1367 1.399 . S
C1367 H1327 0.929 . S
C1367 C1362 1.386 . S
C1367 C1366 1.399 . S
C1368 C1347 1.485 . S
C1368 C1369 1.394 1_455 S
C1368 C1373 1.360 . S
C1369 H1328 0.931 . S
C1369 C1368 1.394 1_655 S
C1369 C1370 1.372 . S
C1370 H1329 0.930 . S
C1370 C1369 1.372 . S
C1370 C1371 1.397 1_655 S
C1371 C1370 1.397 1_455 S
C1371 C1372 1.390 . S
C1371 C1387 1.476 . S
C1372 H1330 0.930 . S
C1372 C1371 1.390 . S
C1372 C1373 1.366 . S
C1373 H1331 0.932 . S
C1373 C1368 1.360 . S
C1373 C1372 1.366 . S
C1374 C1348 1.491 1_655 S
C1374 C1375 1.380 . S
C1374 C1379 1.386 1_655 S
C1375 H1332 0.930 . S
C1375 C1374 1.380 . S
C1375 C1376 1.381 . S
C1376 H1333 0.929 . S
C1376 C1375 1.381 . S
C1376 C1377 1.371 . S
C1377 C1376 1.371 . S
C1377 C1378 1.380 1_655 S
C1378 H1334 0.931 . S
C1378 C1377 1.380 1_455 S
C1378 C1379 1.387 . S
C1379 H1335 0.930 . S
C1379 C1374 1.386 1_455 S
C1379 C1378 1.387 . S
C1380 C1349 1.495 1_655 S
C1380 C1381 1.396 . S
C1380 C1385 1.348 1_655 S
C1381 H1336 0.929 . S
C1381 C1380 1.396 . S
C1381 C1382 1.386 . S
C1382 H1337 0.931 . S
C1382 C1381 1.386 . S
C1382 C1383 1.364 1_655 S
C1383 C1382 1.364 1_455 S
C1383 C1384 1.383 . S
C1384 H1338 0.930 . S
C1384 C1383 1.383 . S
C1384 C1385 1.396 . S
C1385 H1339 0.929 . S
C1385 C1380 1.348 1_455 S
C1385 C1384 1.396 . S
C1386 O1340 1.300 . S
C1386 O1341 1.209 . S
C1386 C1359 1.486 . S
C1387 O1342 1.199 1_455 S
C1387 O1343 1.297 . S
C1387 C1371 1.476 . S
H1388 O1414 0.856 . S
H1389 O1417 0.854 . S
H1390 C1425 0.930 . S
H1391 C1426 0.930 . S
H1392 C1428 0.930 . S
H1393 C1429 0.930 . S
H1394 C1431 0.931 . S
H1395 C1432 0.930 . S
H1396 C1434 0.930 . S
H1397 C1435 0.929 . S
H1398 C1437 0.930 . S
H1399 C1438 0.931 . S
H1400 C1440 0.930 . S
H1401 C1441 0.929 . S
H1402 C1443 0.931 . S
H1403 C1444 0.930 . S
H1404 C1446 0.930 . S
H1405 C1447 0.932 . S
H1406 C1449 0.930 . S
H1407 C1450 0.929 . S
H1408 C1452 0.931 . S
H1409 C1453 0.930 . S
H1410 C1455 0.929 . S
H1411 C1456 0.931 . S
H1412 C1458 0.930 . S
H1413 C1459 0.929 . S
O1414 H1388 0.856 . S
O1414 C1460 1.300 . S
O1415 C1460 1.209 . S
O1416 C1461 1.199 . S
O1417 H1389 0.854 . S
O1417 C1461 1.297 . S
C1418 C1419 1.404 . S
C1418 C1423 1.397 . S
C1418 C1424 1.492 . S
C1419 C1418 1.404 . S
C1419 C1420 1.396 . S
C1419 C1430 1.492 . S
C1420 C1419 1.396 . S
C1420 C1421 1.397 . S
C1420 C1436 1.509 . S
C1421 C1420 1.397 . S
C1421 C1422 1.412 . S
C1421 C1442 1.485 . S
C1422 C1421 1.412 . S
C1422 C1423 1.388 . S
C1422 C1448 1.490 . S
C1423 C1418 1.397 . S
C1423 C1422 1.388 . S
C1423 C1454 1.519 . S
C1424 C1418 1.492 . S
C1424 C1425 1.363 . S
C1424 C1429 1.390 . S
C1425 H1390 0.930 . S
C1425 C1424 1.363 . S
C1425 C1426 1.372 . S
C1426 H1391 0.930 . S
C1426 C1425 1.372 . S
C1426 C1427 1.383 . S
C1427 C1426 1.383 . S
C1427 C1428 1.395 . S
C1428 H1392 0.930 . S
C1428 C1427 1.395 . S
C1428 C1429 1.362 . S
C1429 H1393 0.930 . S
C1429 C1424 1.390 . S
C1429 C1428 1.362 . S
C1430 C1419 1.492 . S
C1430 C1431 1.377 . S
C1430 C1435 1.397 . S
C1431 H1394 0.931 . S
C1431 C1430 1.377 . S
C1431 C1432 1.376 . S
C1432 H1395 0.930 . S
C1432 C1431 1.376 . S
C1432 C1433 1.376 . S
C1433 C1432 1.376 . S
C1433 C1434 1.378 . S
C1433 C1460 1.486 . S
C1434 H1396 0.930 . S
C1434 C1433 1.378 . S
C1434 C1435 1.376 . S
C1435 H1397 0.929 . S
C1435 C1430 1.397 . S
C1435 C1434 1.376 . S
C1436 C1420 1.509 . S
C1436 C1437 1.391 . S
C1436 C1441 1.386 . S
C1437 H1398 0.930 . S
C1437 C1436 1.391 . S
C1437 C1438 1.375 . S
C1438 H1399 0.931 . S
C1438 C1437 1.375 . S
C1438 C1439 1.375 . S
C1439 C1438 1.375 . S
C1439 C1440 1.361 . S
C1440 H1400 0.930 . S
C1440 C1439 1.361 . S
C1440 C1441 1.399 . S
C1441 H1401 0.929 . S
C1441 C1436 1.386 . S
C1441 C1440 1.399 . S
C1442 C1421 1.485 . S
C1442 C1443 1.394 . S
C1442 C1447 1.360 . S
C1443 H1402 0.931 . S
C1443 C1442 1.394 . S
C1443 C1444 1.372 . S
C1444 H1403 0.930 . S
C1444 C1443 1.372 . S
C1444 C1445 1.397 . S
C1445 C1444 1.397 . S
C1445 C1446 1.390 . S
C1445 C1461 1.476 . S
C1446 H1404 0.930 . S
C1446 C1445 1.390 . S
C1446 C1447 1.366 . S
C1447 H1405 0.932 . S
C1447 C1442 1.360 . S
C1447 C1446 1.366 . S
C1448 C1422 1.490 . S
C1448 C1449 1.380 . S
C1448 C1453 1.386 . S
C1449 H1406 0.930 . S
C1449 C1448 1.380 . S
C1449 C1450 1.381 . S
C1450 H1407 0.929 . S
C1450 C1449 1.381 . S
C1450 C1451 1.371 . S
C1451 C1450 1.371 . S
C1451 C1452 1.380 . S
C1452 H1408 0.931 . S
C1452 C1451 1.380 . S
C1452 C1453 1.387 . S
C1453 H1409 0.930 . S
C1453 C1448 1.386 . S
C1453 C1452 1.387 . S
C1454 C1423 1.519 . S
C1454 C1455 1.377 . S
C1454 C1459 1.361 . S
C1455 H1410 0.929 . S
C1455 C1454 1.377 . S
C1455 C1456 1.386 . S
C1456 H1411 0.931 . S
C1456 C1455 1.386 . S
C1456 C1457 1.363 . S
C1457 C1456 1.363 . S
C1457 C1458 1.385 . S
C1458 H1412 0.930 . S
C1458 C1457 1.385 . S
C1458 C1459 1.396 . S
C1459 H1413 0.929 . S
C1459 C1454 1.361 . S
C1459 C1458 1.396 . S
C1460 O1414 1.300 . S
C1460 O1415 1.209 . S
C1460 C1433 1.486 . S
C1461 O1416 1.199 . S
C1461 O1417 1.297 . S
C1461 C1445 1.476 . S
H1462 O1488 0.856 . S
H1463 O1491 0.854 . S
H1464 C1499 0.930 . S
H1465 C1500 0.930 . S
H1466 C1502 0.930 . S
H1467 C1503 0.930 . S
H1468 C1505 0.931 . S
H1469 C1506 0.946 . S
H1470 C1508 0.930 . S
H1471 C1509 0.929 . S
H1472 C1511 0.930 . S
H1473 C1512 0.990 . S
H1474 C1514 0.930 . S
H1475 C1515 0.929 . S
H1476 C1517 0.931 . S
H1477 C1518 0.930 . S
H1478 C1520 0.930 . S
H1479 C1521 0.932 . S
H1480 C1523 0.930 . S
H1481 C1524 0.929 . S
H1482 C1526 0.931 . S
H1483 C1527 0.930 . S
H1484 C1529 0.929 . S
H1485 C1530 0.931 . S
H1486 C1532 0.930 . S
H1487 C1533 0.929 . S
O1488 H1462 0.856 . S
O1488 C1534 1.300 . S
O1489 C1534 1.209 . S
O1490 C1535 1.199 1_545 S
O1491 H1463 0.854 . S
O1491 C1535 1.297 . S
C1492 C1493 1.404 . S
C1492 C1497 1.413 . S
C1492 C1498 1.492 . S
C1493 C1492 1.404 . S
C1493 C1494 1.396 . S
C1493 C1504 1.492 . S
C1494 C1493 1.396 . S
C1494 C1495 1.397 . S
C1494 C1510 1.509 . S
C1495 C1494 1.397 . S
C1495 C1496 1.409 . S
C1495 C1516 1.485 . S
C1496 C1495 1.409 . S
C1496 C1497 1.373 . S
C1496 C1522 1.484 1_565 S
C1497 C1492 1.413 . S
C1497 C1496 1.373 . S
C1497 C1528 1.535 1_565 S
C1498 C1492 1.492 . S
C1498 C1499 1.363 1_565 S
C1498 C1503 1.390 . S
C1499 H1464 0.930 . S
C1499 C1498 1.363 1_545 S
C1499 C1500 1.372 . S
C1500 H1465 0.930 . S
C1500 C1499 1.372 . S
C1500 C1501 1.383 . S
C1501 C1500 1.383 . S
C1501 C1502 1.395 1_545 S
C1502 H1466 0.930 . S
C1502 C1501 1.395 1_565 S
C1502 C1503 1.362 . S
C1503 H1467 0.930 . S
C1503 C1498 1.390 . S
C1503 C1502 1.362 . S
C1504 C1493 1.492 . S
C1504 C1505 1.377 1_565 S
C1504 C1509 1.397 . S
C1505 H1468 0.931 . S
C1505 C1504 1.377 1_545 S
C1505 C1506 1.383 . S
C1506 H1469 0.946 . S
C1506 C1505 1.383 . S
C1506 C1507 1.352 1_545 S
C1507 C1506 1.352 1_565 S
C1507 C1508 1.378 . S
C1507 C1534 1.486 . S
C1508 H1470 0.930 . S
C1508 C1507 1.378 . S
C1508 C1509 1.376 . S
C1509 H1471 0.929 . S
C1509 C1504 1.397 . S
C1509 C1508 1.376 . S
C1510 C1494 1.509 . S
C1510 C1511 1.391 1_565 S
C1510 C1515 1.386 . S
C1511 H1472 0.930 . S
C1511 C1510 1.391 1_545 S
C1511 C1512 1.367 . S
C1512 H1473 0.990 . S
C1512 C1511 1.367 . S
C1512 C1513 1.328 1_545 S
C1513 C1512 1.328 1_565 S
C1513 C1514 1.361 . S
C1514 H1474 0.930 . S
C1514 C1513 1.361 . S
C1514 C1515 1.399 . S
C1515 H1475 0.929 . S
C1515 C1510 1.386 . S
C1515 C1514 1.399 . S
C1516 C1495 1.485 . S
C1516 C1517 1.394 1_565 S
C1516 C1521 1.360 . S
C1517 H1476 0.931 . S
C1517 C1516 1.394 1_545 S
C1517 C1518 1.372 . S
C1518 H1477 0.930 . S
C1518 C1517 1.372 . S
C1518 C1519 1.397 1_545 S
C1519 C1518 1.397 1_565 S
C1519 C1520 1.390 . S
C1519 C1535 1.476 . S
C1520 H1478 0.930 . S
C1520 C1519 1.390 . S
C1520 C1521 1.366 . S
C1521 H1479 0.932 . S
C1521 C1516 1.360 . S
C1521 C1520 1.366 . S
C1522 C1496 1.484 1_545 S
C1522 C1523 1.380 . S
C1522 C1527 1.386 1_545 S
C1523 H1480 0.930 . S
C1523 C1522 1.380 . S
C1523 C1524 1.381 . S
C1524 H1481 0.929 . S
C1524 C1523 1.381 . S
C1524 C1525 1.371 . S
C1525 C1524 1.371 . S
C1525 C1526 1.380 1_545 S
C1526 H1482 0.931 . S
C1526 C1525 1.380 1_565 S
C1526 C1527 1.387 . S
C1527 H1483 0.930 . S
C1527 C1522 1.386 1_565 S
C1527 C1526 1.387 . S
C1528 C1497 1.535 1_545 S
C1528 C1529 1.379 . S
C1528 C1533 1.357 1_545 S
C1529 H1484 0.929 . S
C1529 C1528 1.379 . S
C1529 C1530 1.386 . S
C1530 H1485 0.931 . S
C1530 C1529 1.386 . S
C1530 C1531 1.333 1_545 S
C1531 C1530 1.333 1_565 S
C1531 C1532 1.401 . S
C1532 H1486 0.930 . S
C1532 C1531 1.401 . S
C1532 C1533 1.396 . S
C1533 H1487 0.929 . S
C1533 C1528 1.357 1_565 S
C1533 C1532 1.396 . S
C1534 O1488 1.300 . S
C1534 O1489 1.209 . S
C1534 C1507 1.486 . S
C1535 O1490 1.199 1_565 S
C1535 O1491 1.297 . S
C1535 C1519 1.476 . S
H1536 O1562 0.856 . S
H1537 O1565 0.854 . S
H1538 C1573 0.930 . S
H1539 C1574 0.930 . S
H1540 C1576 0.930 . S
H1541 C1577 0.930 . S
H1542 C1579 0.931 . S
H1543 C1580 0.930 . S
H1544 C1582 0.930 . S
H1545 C1583 0.929 . S
H1546 C1585 0.930 . S
H1547 C1586 0.931 . S
H1548 C1588 0.930 . S
H1549 C1589 0.929 . S
H1550 C1591 0.931 . S
H1551 C1592 0.930 . S
H1552 C1594 0.930 . S
H1553 C1595 0.932 . S
H1554 C1597 0.930 . S
H1555 C1598 0.929 . S
H1556 C1600 0.931 . S
H1557 C1601 0.930 . S
H1558 C1603 0.929 . S
H1559 C1604 0.931 . S
H1560 C1606 0.930 . S
H1561 C1607 0.929 . S
O1562 H1536 0.856 . S
O1562 C1608 1.300 . S
O1563 C1608 1.209 1_565 S
O1564 C1609 1.199 1_545 S
O1565 H1537 0.854 . S
O1565 C1609 1.297 . S
C1566 C1567 1.404 . S
C1566 C1571 1.397 1_545 S
C1566 C1572 1.492 . S
C1567 C1566 1.404 . S
C1567 C1568 1.431 . S
C1567 C1578 1.492 . S
C1568 C1567 1.431 . S
C1568 C1569 1.382 1_545 S
C1568 C1584 1.505 . S
C1569 C1568 1.382 1_565 S
C1569 C1570 1.417 . S
C1569 C1590 1.489 . S
C1570 C1569 1.417 . S
C1570 C1571 1.375 . S
C1570 C1596 1.491 . S
C1571 C1566 1.397 1_565 S
C1571 C1570 1.375 . S
C1571 C1602 1.519 . S
C1572 C1566 1.492 . S
C1572 C1573 1.363 . S
C1572 C1577 1.390 1_545 S
C1573 H1538 0.930 . S
C1573 C1572 1.363 . S
C1573 C1574 1.372 . S
C1574 H1539 0.930 . S
C1574 C1573 1.372 . S
C1574 C1575 1.383 . S
C1575 C1574 1.383 . S
C1575 C1576 1.395 1_545 S
C1576 H1540 0.930 . S
C1576 C1575 1.395 1_565 S
C1576 C1577 1.362 . S
C1577 H1541 0.930 . S
C1577 C1572 1.390 1_565 S
C1577 C1576 1.362 . S
C1578 C1567 1.492 . S
C1578 C1579 1.377 . S
C1578 C1583 1.397 1_545 S
C1579 H1542 0.931 . S
C1579 C1578 1.377 . S
C1579 C1580 1.376 . S
C1580 H1543 0.930 . S
C1580 C1579 1.376 . S
C1580 C1581 1.376 . S
C1581 C1580 1.376 . S
C1581 C1582 1.378 1_545 S
C1581 C1608 1.486 . S
C1582 H1544 0.930 . S
C1582 C1581 1.378 1_565 S
C1582 C1583 1.376 . S
C1583 H1545 0.929 . S
C1583 C1578 1.397 1_565 S
C1583 C1582 1.376 . S
C1584 C1568 1.505 . S
C1584 C1585 1.415 . S
C1584 C1589 1.347 1_545 S
C1585 H1546 0.930 . S
C1585 C1584 1.415 . S
C1585 C1586 1.375 . S
C1586 H1547 0.931 . S
C1586 C1585 1.375 . S
C1586 C1587 1.394 . S
C1587 C1586 1.394 . S
C1587 C1588 1.351 1_545 S
C1588 H1548 0.930 . S
C1588 C1587 1.351 1_565 S
C1588 C1589 1.399 . S
C1589 H1549 0.929 . S
C1589 C1584 1.347 1_565 S
C1589 C1588 1.399 . S
C1590 C1569 1.489 . S
C1590 C1591 1.394 1_565 S
C1590 C1595 1.360 . S
C1591 H1550 0.931 . S
C1591 C1590 1.394 1_545 S
C1591 C1592 1.372 . S
C1592 H1551 0.930 . S
C1592 C1591 1.372 . S
C1592 C1593 1.397 1_545 S
C1593 C1592 1.397 1_565 S
C1593 C1594 1.390 . S
C1593 C1609 1.476 . S
C1594 H1552 0.930 . S
C1594 C1593 1.390 . S
C1594 C1595 1.366 . S
C1595 H1553 0.932 . S
C1595 C1590 1.360 . S
C1595 C1594 1.366 . S
C1596 C1570 1.491 . S
C1596 C1597 1.363 1_565 S
C1596 C1601 1.407 . S
C1597 H1554 0.930 . S
C1597 C1596 1.363 1_545 S
C1597 C1598 1.381 . S
C1598 H1555 0.929 . S
C1598 C1597 1.381 . S
C1598 C1599 1.435 . S
C1599 C1598 1.435 . S
C1599 C1600 1.327 1_545 S
C1600 H1556 0.931 . S
C1600 C1599 1.327 1_565 S
C1600 C1601 1.387 . S
C1601 H1557 0.930 . S
C1601 C1596 1.407 . S
C1601 C1600 1.387 . S
C1602 C1571 1.519 . S
C1602 C1603 1.377 1_565 S
C1602 C1607 1.361 . S
C1603 H1558 0.929 . S
C1603 C1602 1.377 1_545 S
C1603 C1604 1.386 . S
C1604 H1559 0.931 . S
C1604 C1603 1.386 . S
C1604 C1605 1.363 1_545 S
C1605 C1604 1.363 1_565 S
C1605 C1606 1.385 . S
C1606 H1560 0.930 . S
C1606 C1605 1.385 . S
C1606 C1607 1.396 . S
C1607 H1561 0.929 . S
C1607 C1602 1.361 . S
C1607 C1606 1.396 . S
C1608 O1562 1.300 . S
C1608 O1563 1.209 1_545 S
C1608 C1581 1.486 . S
C1609 O1564 1.199 1_565 S
C1609 O1565 1.297 . S
C1609 C1593 1.476 . S
H1610 O1636 0.856 . S
H1611 O1639 0.854 . S
H1612 C1647 0.930 . S
H1613 C1648 0.930 . S
H1614 C1650 0.930 . S
H1615 C1651 0.930 . S
H1616 C1653 0.931 . S
H1617 C1654 0.930 . S
H1618 C1656 0.930 . S
H1619 C1657 0.929 . S
H1620 C1659 0.930 . S
H1621 C1660 0.931 . S
H1622 C1662 0.930 . S
H1623 C1663 0.929 . S
H1624 C1665 0.931 . S
H1625 C1666 0.930 . S
H1626 C1668 0.930 . S
H1627 C1669 0.932 . S
H1628 C1671 0.930 . S
H1629 C1672 0.929 . S
H1630 C1674 0.931 . S
H1631 C1675 0.930 . S
H1632 C1677 0.929 . S
H1633 C1678 0.931 . S
H1634 C1680 0.930 . S
H1635 C1681 0.929 . S
O1636 H1610 0.856 . S
O1636 C1682 1.300 . S
O1637 C1682 1.209 1_455 S
O1638 C1683 1.199 1_655 S
O1639 H1611 0.854 . S
O1639 C1683 1.297 . S
C1640 C1641 1.404 . S
C1640 C1645 1.396 1_655 S
C1640 C1646 1.492 . S
C1641 C1640 1.404 . S
C1641 C1642 1.396 . S
C1641 C1652 1.492 . S
C1642 C1641 1.396 . S
C1642 C1643 1.397 1_655 S
C1642 C1658 1.509 . S
C1643 C1642 1.397 1_455 S
C1643 C1644 1.394 . S
C1643 C1664 1.486 . S
C1644 C1643 1.394 . S
C1644 C1645 1.417 . S
C1644 C1670 1.484 . S
C1645 C1640 1.396 1_455 S
C1645 C1644 1.417 . S
C1645 C1676 1.516 . S
C1646 C1640 1.492 . S
C1646 C1647 1.363 . S
C1646 C1651 1.390 1_655 S
C1647 H1612 0.930 . S
C1647 C1646 1.363 . S
C1647 C1648 1.372 . S
C1648 H1613 0.930 . S
C1648 C1647 1.372 . S
C1648 C1649 1.383 . S
C1649 C1648 1.383 . S
C1649 C1650 1.395 1_655 S
C1650 H1614 0.930 . S
C1650 C1649 1.395 1_455 S
C1650 C1651 1.362 . S
C1651 H1615 0.930 . S
C1651 C1646 1.390 1_455 S
C1651 C1650 1.362 . S
C1652 C1641 1.492 . S
C1652 C1653 1.377 . S
C1652 C1657 1.397 1_655 S
C1653 H1616 0.931 . S
C1653 C1652 1.377 . S
C1653 C1654 1.376 . S
C1654 H1617 0.930 . S
C1654 C1653 1.376 . S
C1654 C1655 1.376 . S
C1655 C1654 1.376 . S
C1655 C1656 1.378 1_655 S
C1655 C1682 1.486 . S
C1656 H1618 0.930 . S
C1656 C1655 1.378 1_455 S
C1656 C1657 1.376 . S
C1657 H1619 0.929 . S
C1657 C1652 1.397 1_455 S
C1657 C1656 1.376 . S
C1658 C1642 1.509 . S
C1658 C1659 1.391 . S
C1658 C1663 1.386 1_655 S
C1659 H1620 0.930 . S
C1659 C1658 1.391 . S
C1659 C1660 1.375 . S
C1660 H1621 0.931 . S
C1660 C1659 1.375 . S
C1660 C1661 1.375 . S
C1661 C1660 1.375 . S
C1661 C1662 1.361 1_655 S
C1662 H1622 0.930 . S
C1662 C1661 1.361 1_455 S
C1662 C1663 1.399 . S
C1663 H1623 0.929 . S
C1663 C1658 1.386 1_455 S
C1663 C1662 1.399 . S
C1664 C1643 1.486 . S
C1664 C1665 1.394 1_455 S
C1664 C1669 1.360 . S
C1665 H1624 0.931 . S
C1665 C1664 1.394 1_655 S
C1665 C1666 1.372 . S
C1666 H1625 0.930 . S
C1666 C1665 1.372 . S
C1666 C1667 1.397 1_655 S
C1667 C1666 1.397 1_455 S
C1667 C1668 1.390 . S
C1667 C1683 1.476 . S
C1668 H1626 0.930 . S
C1668 C1667 1.390 . S
C1668 C1669 1.366 . S
C1669 H1627 0.932 . S
C1669 C1664 1.360 . S
C1669 C1668 1.366 . S
C1670 C1644 1.484 . S
C1670 C1671 1.380 1_455 S
C1670 C1675 1.386 . S
C1671 H1628 0.930 . S
C1671 C1670 1.380 1_655 S
C1671 C1672 1.381 . S
C1672 H1629 0.929 . S
C1672 C1671 1.381 . S
C1672 C1673 1.371 1_655 S
C1673 C1672 1.371 1_455 S
C1673 C1674 1.380 . S
C1674 H1630 0.931 . S
C1674 C1673 1.380 . S
C1674 C1675 1.387 . S
C1675 H1631 0.930 . S
C1675 C1670 1.386 . S
C1675 C1674 1.387 . S
C1676 C1645 1.516 . S
C1676 C1677 1.377 1_455 S
C1676 C1681 1.361 . S
C1677 H1632 0.929 . S
C1677 C1676 1.377 1_655 S
C1677 C1678 1.386 . S
C1678 H1633 0.931 . S
C1678 C1677 1.386 . S
C1678 C1679 1.363 1_655 S
C1679 C1678 1.363 1_455 S
C1679 C1680 1.385 . S
C1680 H1634 0.930 . S
C1680 C1679 1.385 . S
C1680 C1681 1.396 . S
C1681 H1635 0.929 . S
C1681 C1676 1.361 . S
C1681 C1680 1.396 . S
C1682 O1636 1.300 . S
C1682 O1637 1.209 1_655 S
C1682 C1655 1.486 . S
C1683 O1638 1.199 1_455 S
C1683 O1639 1.297 . S
C1683 C1667 1.476 . S
H1684 O1710 0.856 . S
H1685 O1713 0.854 . S
H1686 C1721 0.930 . S
H1687 C1722 0.930 . S
H1688 C1724 0.930 . S
H1689 C1725 0.930 . S
H1690 C1727 0.931 . S
H1691 C1728 0.930 . S
H1692 C1730 0.930 . S
H1693 C1731 0.929 . S
H1694 C1733 0.930 . S
H1695 C1734 0.931 . S
H1696 C1736 0.930 . S
H1697 C1737 0.929 . S
H1698 C1739 0.931 . S
H1699 C1740 0.930 . S
H1700 C1742 0.930 . S
H1701 C1743 0.932 . S
H1702 C1745 0.930 . S
H1703 C1746 0.929 . S
H1704 C1748 0.931 . S
H1705 C1749 0.930 . S
H1706 C1751 0.929 . S
H1707 C1752 0.931 . S
H1708 C1754 0.930 . S
H1709 C1755 0.929 . S
O1710 H1684 0.856 . S
O1710 C1756 1.300 . S
O1711 C1756 1.209 . S
O1712 C1757 1.199 . S
O1713 H1685 0.854 . S
O1713 C1757 1.297 . S
C1714 C1715 1.404 . S
C1714 C1719 1.397 . S
C1714 C1720 1.492 . S
C1715 C1714 1.404 . S
C1715 C1716 1.396 . S
C1715 C1726 1.492 . S
C1716 C1715 1.396 . S
C1716 C1717 1.397 . S
C1716 C1732 1.509 . S
C1717 C1716 1.397 . S
C1717 C1718 1.412 . S
C1717 C1738 1.485 . S
C1718 C1717 1.412 . S
C1718 C1719 1.388 . S
C1718 C1744 1.490 . S
C1719 C1714 1.397 . S
C1719 C1718 1.388 . S
C1719 C1750 1.519 . S
C1720 C1714 1.492 . S
C1720 C1721 1.363 . S
C1720 C1725 1.390 . S
C1721 H1686 0.930 . S
C1721 C1720 1.363 . S
C1721 C1722 1.372 . S
C1722 H1687 0.930 . S
C1722 C1721 1.372 . S
C1722 C1723 1.383 . S
C1723 C1722 1.383 . S
C1723 C1724 1.395 . S
C1724 H1688 0.930 . S
C1724 C1723 1.395 . S
C1724 C1725 1.362 . S
C1725 H1689 0.930 . S
C1725 C1720 1.390 . S
C1725 C1724 1.362 . S
C1726 C1715 1.492 . S
C1726 C1727 1.377 . S
C1726 C1731 1.397 . S
C1727 H1690 0.931 . S
C1727 C1726 1.377 . S
C1727 C1728 1.376 . S
C1728 H1691 0.930 . S
C1728 C1727 1.376 . S
C1728 C1729 1.376 . S
C1729 C1728 1.376 . S
C1729 C1730 1.378 . S
C1729 C1756 1.486 . S
C1730 H1692 0.930 . S
C1730 C1729 1.378 . S
C1730 C1731 1.376 . S
C1731 H1693 0.929 . S
C1731 C1726 1.397 . S
C1731 C1730 1.376 . S
C1732 C1716 1.509 . S
C1732 C1733 1.391 . S
C1732 C1737 1.386 . S
C1733 H1694 0.930 . S
C1733 C1732 1.391 . S
C1733 C1734 1.375 . S
C1734 H1695 0.931 . S
C1734 C1733 1.375 . S
C1734 C1735 1.375 . S
C1735 C1734 1.375 . S
C1735 C1736 1.361 . S
C1736 H1696 0.930 . S
C1736 C1735 1.361 . S
C1736 C1737 1.399 . S
C1737 H1697 0.929 . S
C1737 C1732 1.386 . S
C1737 C1736 1.399 . S
C1738 C1717 1.485 . S
C1738 C1739 1.394 . S
C1738 C1743 1.360 . S
C1739 H1698 0.931 . S
C1739 C1738 1.394 . S
C1739 C1740 1.372 . S
C1740 H1699 0.930 . S
C1740 C1739 1.372 . S
C1740 C1741 1.397 . S
C1741 C1740 1.397 . S
C1741 C1742 1.390 . S
C1741 C1757 1.476 . S
C1742 H1700 0.930 . S
C1742 C1741 1.390 . S
C1742 C1743 1.366 . S
C1743 H1701 0.932 . S
C1743 C1738 1.360 . S
C1743 C1742 1.366 . S
C1744 C1718 1.490 . S
C1744 C1745 1.380 . S
C1744 C1749 1.386 . S
C1745 H1702 0.930 . S
C1745 C1744 1.380 . S
C1745 C1746 1.381 . S
C1746 H1703 0.929 . S
C1746 C1745 1.381 . S
C1746 C1747 1.371 . S
C1747 C1746 1.371 . S
C1747 C1748 1.380 . S
C1748 H1704 0.931 . S
C1748 C1747 1.380 . S
C1748 C1749 1.387 . S
C1749 H1705 0.930 . S
C1749 C1744 1.386 . S
C1749 C1748 1.387 . S
C1750 C1719 1.519 . S
C1750 C1751 1.377 . S
C1750 C1755 1.361 . S
C1751 H1706 0.929 . S
C1751 C1750 1.377 . S
C1751 C1752 1.386 . S
C1752 H1707 0.931 . S
C1752 C1751 1.386 . S
C1752 C1753 1.363 . S
C1753 C1752 1.363 . S
C1753 C1754 1.385 . S
C1754 H1708 0.930 . S
C1754 C1753 1.385 . S
C1754 C1755 1.396 . S
C1755 H1709 0.929 . S
C1755 C1750 1.361 . S
C1755 C1754 1.396 . S
C1756 O1710 1.300 . S
C1756 O1711 1.209 . S
C1756 C1729 1.486 . S
C1757 O1712 1.199 . S
C1757 O1713 1.297 . S
C1757 C1741 1.476 . S
H1758 O1784 0.856 . S
H1759 O1787 0.854 . S
H1760 C1795 0.930 . S
H1761 C1796 0.930 . S
H1762 C1798 0.930 . S
H1763 C1799 0.930 . S
H1764 C1801 0.931 . S
H1765 C1802 0.930 . S
H1766 C1804 0.930 . S
H1767 C1805 0.929 . S
H1768 C1807 0.930 . S
H1769 C1808 0.931 . S
H1770 C1810 0.930 . S
H1771 C1811 0.929 . S
H1772 C1813 0.931 . S
H1773 C1814 0.930 . S
H1774 C1816 0.930 . S
H1775 C1817 0.932 . S
H1776 C1819 0.930 . S
H1777 C1820 0.929 . S
H1778 C1822 0.931 . S
H1779 C1823 0.930 . S
H1780 C1825 0.929 . S
H1781 C1826 0.931 . S
H1782 C1828 0.930 . S
H1783 C1829 0.929 . S
O1784 H1758 0.856 . S
O1784 C1830 1.300 . S
O1785 C1830 1.209 . S
O1786 C1831 1.199 . S
O1787 H1759 0.854 . S
O1787 C1831 1.297 . S
C1788 C1789 1.404 . S
C1788 C1793 1.397 . S
C1788 C1794 1.492 . S
C1789 C1788 1.404 . S
C1789 C1790 1.396 . S
C1789 C1800 1.492 . S
C1790 C1789 1.396 . S
C1790 C1791 1.397 . S
C1790 C1806 1.509 . S
C1791 C1790 1.397 . S
C1791 C1792 1.412 . S
C1791 C1812 1.485 . S
C1792 C1791 1.412 . S
C1792 C1793 1.388 . S
C1792 C1818 1.490 . S
C1793 C1788 1.397 . S
C1793 C1792 1.388 . S
C1793 C1824 1.519 . S
C1794 C1788 1.492 . S
C1794 C1795 1.363 . S
C1794 C1799 1.390 . S
C1795 H1760 0.930 . S
C1795 C1794 1.363 . S
C1795 C1796 1.372 . S
C1796 H1761 0.930 . S
C1796 C1795 1.372 . S
C1796 C1797 1.383 . S
C1797 C1796 1.383 . S
C1797 C1798 1.395 . S
C1798 H1762 0.930 . S
C1798 C1797 1.395 . S
C1798 C1799 1.362 . S
C1799 H1763 0.930 . S
C1799 C1794 1.390 . S
C1799 C1798 1.362 . S
C1800 C1789 1.492 . S
C1800 C1801 1.377 . S
C1800 C1805 1.397 . S
C1801 H1764 0.931 . S
C1801 C1800 1.377 . S
C1801 C1802 1.376 . S
C1802 H1765 0.930 . S
C1802 C1801 1.376 . S
C1802 C1803 1.376 . S
C1803 C1802 1.376 . S
C1803 C1804 1.378 . S
C1803 C1830 1.486 . S
C1804 H1766 0.930 . S
C1804 C1803 1.378 . S
C1804 C1805 1.376 . S
C1805 H1767 0.929 . S
C1805 C1800 1.397 . S
C1805 C1804 1.376 . S
C1806 C1790 1.509 . S
C1806 C1807 1.391 . S
C1806 C1811 1.386 . S
C1807 H1768 0.930 . S
C1807 C1806 1.391 . S
C1807 C1808 1.375 . S
C1808 H1769 0.931 . S
C1808 C1807 1.375 . S
C1808 C1809 1.375 . S
C1809 C1808 1.375 . S
C1809 C1810 1.361 . S
C1810 H1770 0.930 . S
C1810 C1809 1.361 . S
C1810 C1811 1.399 . S
C1811 H1771 0.929 . S
C1811 C1806 1.386 . S
C1811 C1810 1.399 . S
C1812 C1791 1.485 . S
C1812 C1813 1.394 . S
C1812 C1817 1.360 . S
C1813 H1772 0.931 . S
C1813 C1812 1.394 . S
C1813 C1814 1.372 . S
C1814 H1773 0.930 . S
C1814 C1813 1.372 . S
C1814 C1815 1.397 . S
C1815 C1814 1.397 . S
C1815 C1816 1.390 . S
C1815 C1831 1.476 . S
C1816 H1774 0.930 . S
C1816 C1815 1.390 . S
C1816 C1817 1.366 . S
C1817 H1775 0.932 . S
C1817 C1812 1.360 . S
C1817 C1816 1.366 . S
C1818 C1792 1.490 . S
C1818 C1819 1.380 . S
C1818 C1823 1.386 . S
C1819 H1776 0.930 . S
C1819 C1818 1.380 . S
C1819 C1820 1.381 . S
C1820 H1777 0.929 . S
C1820 C1819 1.381 . S
C1820 C1821 1.371 . S
C1821 C1820 1.371 . S
C1821 C1822 1.380 . S
C1822 H1778 0.931 . S
C1822 C1821 1.380 . S
C1822 C1823 1.387 . S
C1823 H1779 0.930 . S
C1823 C1818 1.386 . S
C1823 C1822 1.387 . S
C1824 C1793 1.519 . S
C1824 C1825 1.377 . S
C1824 C1829 1.361 . S
C1825 H1780 0.929 . S
C1825 C1824 1.377 . S
C1825 C1826 1.386 . S
C1826 H1781 0.931 . S
C1826 C1825 1.386 . S
C1826 C1827 1.363 . S
C1827 C1826 1.363 . S
C1827 C1828 1.385 . S
C1828 H1782 0.930 . S
C1828 C1827 1.385 . S
C1828 C1829 1.396 . S
C1829 H1783 0.929 . S
C1829 C1824 1.361 . S
C1829 C1828 1.396 . S
C1830 O1784 1.300 . S
C1830 O1785 1.209 . S
C1830 C1803 1.486 . S
C1831 O1786 1.199 . S
C1831 O1787 1.297 . S
C1831 C1815 1.476 . S
H1832 O1858 0.856 . S
H1833 O1861 0.854 . S
H1834 C1869 0.930 . S
H1835 C1870 0.930 . S
H1836 C1872 0.930 . S
H1837 C1873 0.930 . S
H1838 C1875 0.931 . S
H1839 C1876 0.930 . S
H1840 C1878 0.930 . S
H1841 C1879 0.929 . S
H1842 C1881 0.930 . S
H1843 C1882 0.931 . S
H1844 C1884 0.930 . S
H1845 C1885 0.929 . S
H1846 C1887 0.931 . S
H1847 C1888 0.930 . S
H1848 C1890 0.930 . S
H1849 C1891 0.932 . S
H1850 C1893 0.930 . S
H1851 C1894 0.929 . S
H1852 C1896 0.931 . S
H1853 C1897 0.930 . S
H1854 C1899 0.929 . S
H1855 C1900 0.931 . S
H1856 C1902 0.930 . S
H1857 C1903 0.929 . S
O1858 H1832 0.856 . S
O1858 C1904 1.300 . S
O1859 C1904 1.209 . S
O1860 C1905 1.199 . S
O1861 H1833 0.854 . S
O1861 C1905 1.297 . S
C1862 C1863 1.404 . S
C1862 C1867 1.397 . S
C1862 C1868 1.492 . S
C1863 C1862 1.404 . S
C1863 C1864 1.396 . S
C1863 C1874 1.492 . S
C1864 C1863 1.396 . S
C1864 C1865 1.397 . S
C1864 C1880 1.509 . S
C1865 C1864 1.397 . S
C1865 C1866 1.412 . S
C1865 C1886 1.485 . S
C1866 C1865 1.412 . S
C1866 C1867 1.388 . S
C1866 C1892 1.490 . S
C1867 C1862 1.397 . S
C1867 C1866 1.388 . S
C1867 C1898 1.519 . S
C1868 C1862 1.492 . S
C1868 C1869 1.363 . S
C1868 C1873 1.390 . S
C1869 H1834 0.930 . S
C1869 C1868 1.363 . S
C1869 C1870 1.372 . S
C1870 H1835 0.930 . S
C1870 C1869 1.372 . S
C1870 C1871 1.383 . S
C1871 C1870 1.383 . S
C1871 C1872 1.395 . S
C1872 H1836 0.930 . S
C1872 C1871 1.395 . S
C1872 C1873 1.362 . S
C1873 H1837 0.930 . S
C1873 C1868 1.390 . S
C1873 C1872 1.362 . S
C1874 C1863 1.492 . S
C1874 C1875 1.377 . S
C1874 C1879 1.397 . S
C1875 H1838 0.931 . S
C1875 C1874 1.377 . S
C1875 C1876 1.376 . S
C1876 H1839 0.930 . S
C1876 C1875 1.376 . S
C1876 C1877 1.376 . S
C1877 C1876 1.376 . S
C1877 C1878 1.378 . S
C1877 C1904 1.486 . S
C1878 H1840 0.930 . S
C1878 C1877 1.378 . S
C1878 C1879 1.376 . S
C1879 H1841 0.929 . S
C1879 C1874 1.397 . S
C1879 C1878 1.376 . S
C1880 C1864 1.509 . S
C1880 C1881 1.391 . S
C1880 C1885 1.386 . S
C1881 H1842 0.930 . S
C1881 C1880 1.391 . S
C1881 C1882 1.375 . S
C1882 H1843 0.931 . S
C1882 C1881 1.375 . S
C1882 C1883 1.375 . S
C1883 C1882 1.375 . S
C1883 C1884 1.361 . S
C1884 H1844 0.930 . S
C1884 C1883 1.361 . S
C1884 C1885 1.399 . S
C1885 H1845 0.929 . S
C1885 C1880 1.386 . S
C1885 C1884 1.399 . S
C1886 C1865 1.485 . S
C1886 C1887 1.394 . S
C1886 C1891 1.360 . S
C1887 H1846 0.931 . S
C1887 C1886 1.394 . S
C1887 C1888 1.372 . S
C1888 H1847 0.930 . S
C1888 C1887 1.372 . S
C1888 C1889 1.397 . S
C1889 C1888 1.397 . S
C1889 C1890 1.390 . S
C1889 C1905 1.476 . S
C1890 H1848 0.930 . S
C1890 C1889 1.390 . S
C1890 C1891 1.366 . S
C1891 H1849 0.932 . S
C1891 C1886 1.360 . S
C1891 C1890 1.366 . S
C1892 C1866 1.490 . S
C1892 C1893 1.380 . S
C1892 C1897 1.386 . S
C1893 H1850 0.930 . S
C1893 C1892 1.380 . S
C1893 C1894 1.381 . S
C1894 H1851 0.929 . S
C1894 C1893 1.381 . S
C1894 C1895 1.371 . S
C1895 C1894 1.371 . S
C1895 C1896 1.380 . S
C1896 H1852 0.931 . S
C1896 C1895 1.380 . S
C1896 C1897 1.387 . S
C1897 H1853 0.930 . S
C1897 C1892 1.386 . S
C1897 C1896 1.387 . S
C1898 C1867 1.519 . S
C1898 C1899 1.377 . S
C1898 C1903 1.361 . S
C1899 H1854 0.929 . S
C1899 C1898 1.377 . S
C1899 C1900 1.386 . S
C1900 H1855 0.931 . S
C1900 C1899 1.386 . S
C1900 C1901 1.363 . S
C1901 C1900 1.363 . S
C1901 C1902 1.385 . S
C1902 H1856 0.930 . S
C1902 C1901 1.385 . S
C1902 C1903 1.396 . S
C1903 H1857 0.929 . S
C1903 C1898 1.361 . S
C1903 C1902 1.396 . S
C1904 O1858 1.300 . S
C1904 O1859 1.209 . S
C1904 C1877 1.486 . S
C1905 O1860 1.199 . S
C1905 O1861 1.297 . S
C1905 C1889 1.476 . S
H1906 O1932 0.856 . S
H1907 O1935 0.854 . S
H1908 C1943 0.930 . S
H1909 C1944 0.930 . S
H1910 C1946 0.930 . S
H1911 C1947 0.930 . S
H1912 C1949 0.931 . S
H1913 C1950 0.930 . S
H1914 C1952 0.930 . S
H1915 C1953 0.929 . S
H1916 C1955 0.930 . S
H1917 C1956 0.931 . S
H1918 C1958 0.930 . S
H1919 C1959 0.929 . S
H1920 C1961 0.931 . S
H1921 C1962 0.930 . S
H1922 C1964 0.930 . S
H1923 C1965 0.932 . S
H1924 C1967 0.930 . S
H1925 C1968 0.929 . S
H1926 C1970 0.931 . S
H1927 C1971 0.930 . S
H1928 C1973 0.929 . S
H1929 C1974 0.931 . S
H1930 C1976 0.930 . S
H1931 C1977 0.929 . S
O1932 H1906 0.856 . S
O1932 C1978 1.300 . S
O1933 C1978 1.209 . S
O1934 C1979 1.199 . S
O1935 H1907 0.854 . S
O1935 C1979 1.297 . S
C1936 C1937 1.404 . S
C1936 C1941 1.397 . S
C1936 C1942 1.492 . S
C1937 C1936 1.404 . S
C1937 C1938 1.396 . S
C1937 C1948 1.492 . S
C1938 C1937 1.396 . S
C1938 C1939 1.397 . S
C1938 C1954 1.509 . S
C1939 C1938 1.397 . S
C1939 C1940 1.412 . S
C1939 C1960 1.485 . S
C1940 C1939 1.412 . S
C1940 C1941 1.388 . S
C1940 C1966 1.490 . S
C1941 C1936 1.397 . S
C1941 C1940 1.388 . S
C1941 C1972 1.519 . S
C1942 C1936 1.492 . S
C1942 C1943 1.363 . S
C1942 C1947 1.390 . S
C1943 H1908 0.930 . S
C1943 C1942 1.363 . S
C1943 C1944 1.372 . S
C1944 H1909 0.930 . S
C1944 C1943 1.372 . S
C1944 C1945 1.383 . S
C1945 C1944 1.383 . S
C1945 C1946 1.395 . S
C1946 H1910 0.930 . S
C1946 C1945 1.395 . S
C1946 C1947 1.362 . S
C1947 H1911 0.930 . S
C1947 C1942 1.390 . S
C1947 C1946 1.362 . S
C1948 C1937 1.492 . S
C1948 C1949 1.377 . S
C1948 C1953 1.397 . S
C1949 H1912 0.931 . S
C1949 C1948 1.377 . S
C1949 C1950 1.376 . S
C1950 H1913 0.930 . S
C1950 C1949 1.376 . S
C1950 C1951 1.376 . S
C1951 C1950 1.376 . S
C1951 C1952 1.378 . S
C1951 C1978 1.486 . S
C1952 H1914 0.930 . S
C1952 C1951 1.378 . S
C1952 C1953 1.376 . S
C1953 H1915 0.929 . S
C1953 C1948 1.397 . S
C1953 C1952 1.376 . S
C1954 C1938 1.509 . S
C1954 C1955 1.391 . S
C1954 C1959 1.386 . S
C1955 H1916 0.930 . S
C1955 C1954 1.391 . S
C1955 C1956 1.375 . S
C1956 H1917 0.931 . S
C1956 C1955 1.375 . S
C1956 C1957 1.375 . S
C1957 C1956 1.375 . S
C1957 C1958 1.361 . S
C1958 H1918 0.930 . S
C1958 C1957 1.361 . S
C1958 C1959 1.399 . S
C1959 H1919 0.929 . S
C1959 C1954 1.386 . S
C1959 C1958 1.399 . S
C1960 C1939 1.485 . S
C1960 C1961 1.394 . S
C1960 C1965 1.360 . S
C1961 H1920 0.931 . S
C1961 C1960 1.394 . S
C1961 C1962 1.372 . S
C1962 H1921 0.930 . S
C1962 C1961 1.372 . S
C1962 C1963 1.397 . S
C1963 C1962 1.397 . S
C1963 C1964 1.390 . S
C1963 C1979 1.476 . S
C1964 H1922 0.930 . S
C1964 C1963 1.390 . S
C1964 C1965 1.366 . S
C1965 H1923 0.932 . S
C1965 C1960 1.360 . S
C1965 C1964 1.366 . S
C1966 C1940 1.490 . S
C1966 C1967 1.380 . S
C1966 C1971 1.386 . S
C1967 H1924 0.930 . S
C1967 C1966 1.380 . S
C1967 C1968 1.381 . S
C1968 H1925 0.929 . S
C1968 C1967 1.381 . S
C1968 C1969 1.371 . S
C1969 C1968 1.371 . S
C1969 C1970 1.380 . S
C1970 H1926 0.931 . S
C1970 C1969 1.380 . S
C1970 C1971 1.387 . S
C1971 H1927 0.930 . S
C1971 C1966 1.386 . S
C1971 C1970 1.387 . S
C1972 C1941 1.519 . S
C1972 C1973 1.377 . S
C1972 C1977 1.361 . S
C1973 H1928 0.929 . S
C1973 C1972 1.377 . S
C1973 C1974 1.386 . S
C1974 H1929 0.931 . S
C1974 C1973 1.386 . S
C1974 C1975 1.363 . S
C1975 C1974 1.363 . S
C1975 C1976 1.385 . S
C1976 H1930 0.930 . S
C1976 C1975 1.385 . S
C1976 C1977 1.396 . S
C1977 H1931 0.929 . S
C1977 C1972 1.361 . S
C1977 C1976 1.396 . S
C1978 O1932 1.300 . S
C1978 O1933 1.209 . S
C1978 C1951 1.486 . S
C1979 O1934 1.199 . S
C1979 O1935 1.297 . S
C1979 C1963 1.476 . S
H1980 C1988 0.950 . S
H1981 C1993 0.950 . S
H1982 C1990 0.950 . S
H1983 C1992 0.950 . S
H1984 C1994 0.950 1_455 S
H1985 C1996 0.950 . S
H1986 C1998 0.950 . S
H1987 C1999 0.950 . S
C1988 H1980 0.950 . S
C1988 C1989 1.386 . S
C1988 C1990 1.391 . S
C1989 C1988 1.386 . S
C1989 C1993 1.393 1_655 S
C1990 H1982 0.950 . S
C1990 C1988 1.391 . S
C1990 C1991 1.400 . S
C1991 C1990 1.400 . S
C1991 C1992 1.398 1_655 S
C1991 C1997 1.491 . S
C1992 H1983 0.950 . S
C1992 C1991 1.398 1_455 S
C1992 C1993 1.391 . S
C1993 H1981 0.950 . S
C1993 C1989 1.393 1_455 S
C1993 C1992 1.391 . S
C1994 H1984 0.950 1_655 S
C1994 C1995 1.386 . S
C1994 C1996 1.391 1_655 S
C1995 C1994 1.386 . S
C1995 C1999 1.393 . S
C1996 H1985 0.950 . S
C1996 C1994 1.391 1_455 S
C1996 C1997 1.400 1_455 S
C1997 C1991 1.491 . S
C1997 C1996 1.400 1_655 S
C1997 C1998 1.398 . S
C1998 H1986 0.950 . S
C1998 C1997 1.398 . S
C1998 C1999 1.391 . S
C1999 H1987 0.950 . S
C1999 C1995 1.393 . S
C1999 C1998 1.391 . S
H2000 C2008 0.950 . S
H2001 C2013 0.950 . S
H2002 C2010 0.950 . S
H2003 C2012 0.950 . S
H2004 C2014 0.950 . S
H2005 C2016 0.950 . S
H2006 C2018 0.950 . S
H2007 C2019 0.950 . S
C2008 H2000 0.950 . S
C2008 C2009 1.386 . S
C2008 C2010 1.391 . S
C2009 C2008 1.386 . S
C2009 C2013 1.393 . S
C2010 H2002 0.950 . S
C2010 C2008 1.391 . S
C2010 C2011 1.400 . S
C2011 C2010 1.400 . S
C2011 C2012 1.398 . S
C2011 C2017 1.491 . S
C2012 H2003 0.950 . S
C2012 C2011 1.398 . S
C2012 C2013 1.391 . S
C2013 H2001 0.950 . S
C2013 C2009 1.393 . S
C2013 C2012 1.391 . S
C2014 H2004 0.950 . S
C2014 C2015 1.386 . S
C2014 C2016 1.391 . S
C2015 C2014 1.386 . S
C2015 C2019 1.393 . S
C2016 H2005 0.950 . S
C2016 C2014 1.391 . S
C2016 C2017 1.400 . S
C2017 C2011 1.491 . S
C2017 C2016 1.400 . S
C2017 C2018 1.398 . S
C2018 H2006 0.950 . S
C2018 C2017 1.398 . S
C2018 C2019 1.391 . S
C2019 H2007 0.950 . S
C2019 C2015 1.393 . S
C2019 C2018 1.391 . S
H2020 C2028 0.950 . S
H2021 C2033 0.950 . S
H2022 C2030 0.950 . S
H2023 C2032 0.950 . S
H2024 C2034 0.950 . S
H2025 C2036 0.950 . S
H2026 C2038 0.950 . S
H2027 C2039 0.992 . S
C2028 H2020 0.950 . S
C2028 C2029 1.386 1_565 S
C2028 C2030 1.391 . S
C2029 C2028 1.386 1_545 S
C2029 C2033 1.393 . S
C2030 H2022 0.950 . S
C2030 C2028 1.391 . S
C2030 C2031 1.400 1_565 S
C2031 C2030 1.400 1_545 S
C2031 C2032 1.398 . S
C2031 C2037 1.491 . S
C2032 H2023 0.950 . S
C2032 C2031 1.398 . S
C2032 C2033 1.391 . S
C2033 H2021 0.950 . S
C2033 C2029 1.393 . S
C2033 C2032 1.391 . S
C2034 H2024 0.950 . S
C2034 C2035 1.386 . S
C2034 C2036 1.391 . S
C2035 C2034 1.386 . S
C2035 C2039 1.364 1_545 S
C2036 H2025 0.950 . S
C2036 C2034 1.391 . S
C2036 C2037 1.400 . S
C2037 C2031 1.491 . S
C2037 C2036 1.400 . S
C2037 C2038 1.398 1_545 S
C2038 H2026 0.950 . S
C2038 C2037 1.398 1_565 S
C2038 C2039 1.379 . S
C2039 H2027 0.992 . S
C2039 C2035 1.364 1_565 S
C2039 C2038 1.379 . S
H2040 C2048 0.950 1_545 S
H2041 C2053 0.950 . S
H2042 C2050 0.950 1_545 S
H2043 C2052 0.950 . S
H2044 C2054 0.950 . S
H2045 C2056 0.950 . S
H2046 C2058 0.950 . S
H2047 C2059 0.950 . S
C2048 H2040 0.950 1_565 S
C2048 C2049 1.386 . S
C2048 C2050 1.391 . S
C2049 C2048 1.386 . S
C2049 C2053 1.393 . S
C2050 H2042 0.950 1_565 S
C2050 C2048 1.391 . S
C2050 C2051 1.400 . S
C2051 C2050 1.400 . S
C2051 C2052 1.398 . S
C2051 C2057 1.491 . S
C2052 H2043 0.950 . S
C2052 C2051 1.398 . S
C2052 C2053 1.391 . S
C2053 H2041 0.950 . S
C2053 C2049 1.393 . S
C2053 C2052 1.391 . S
C2054 H2044 0.950 . S
C2054 C2055 1.386 . S
C2054 C2056 1.391 . S
C2055 C2054 1.386 . S
C2055 C2059 1.393 . S
C2056 H2045 0.950 . S
C2056 C2054 1.391 . S
C2056 C2057 1.400 . S
C2057 C2051 1.491 . S
C2057 C2056 1.400 . S
C2057 C2058 1.398 . S
C2058 H2046 0.950 . S
C2058 C2057 1.398 . S
C2058 C2059 1.391 . S
C2059 H2047 0.950 . S
C2059 C2055 1.393 . S
C2059 C2058 1.391 . S
H2060 C2068 0.950 . S
H2061 C2073 0.950 . S
H2062 C2070 0.950 . S
H2063 C2072 0.950 . S
H2064 C2074 0.950 . S
H2065 C2076 0.950 . S
H2066 C2078 0.950 . S
H2067 C2079 0.950 . S
C2068 H2060 0.950 . S
C2068 C2069 1.386 . S
C2068 C2070 1.391 . S
C2069 C2068 1.386 . S
C2069 C2073 1.393 . S
C2070 H2062 0.950 . S
C2070 C2068 1.391 . S
C2070 C2071 1.400 . S
C2071 C2070 1.400 . S
C2071 C2072 1.398 . S
C2071 C2077 1.491 . S
C2072 H2063 0.950 . S
C2072 C2071 1.398 . S
C2072 C2073 1.391 . S
C2073 H2061 0.950 . S
C2073 C2069 1.393 . S
C2073 C2072 1.391 . S
C2074 H2064 0.950 . S
C2074 C2075 1.386 . S
C2074 C2076 1.391 . S
C2075 C2074 1.386 . S
C2075 C2079 1.393 . S
C2076 H2065 0.950 . S
C2076 C2074 1.391 . S
C2076 C2077 1.400 . S
C2077 C2071 1.491 . S
C2077 C2076 1.400 . S
C2077 C2078 1.398 . S
C2078 H2066 0.950 . S
C2078 C2077 1.398 . S
C2078 C2079 1.391 . S
C2079 H2067 0.950 . S
C2079 C2075 1.393 . S
C2079 C2078 1.391 . S
H2080 C2088 0.950 . S
H2081 C2093 0.950 . S
H2082 C2090 0.950 . S
H2083 C2092 0.950 . S
H2084 C2094 0.950 . S
H2085 C2096 0.950 . S
H2086 C2098 0.950 . S
H2087 C2099 0.950 . S
C2088 H2080 0.950 . S
C2088 C2089 1.386 1_556 S
C2088 C2090 1.391 . S
C2089 C2088 1.386 1_554 S
C2089 C2093 1.393 . S
C2090 H2082 0.950 . S
C2090 C2088 1.391 . S
C2090 C2091 1.400 . S
C2091 C2090 1.400 . S
C2091 C2092 1.398 . S
C2091 C2097 1.491 . S
C2092 H2083 0.950 . S
C2092 C2091 1.398 . S
C2092 C2093 1.391 1_556 S
C2093 H2081 0.950 . S
C2093 C2089 1.393 . S
C2093 C2092 1.391 1_554 S
C2094 H2084 0.950 . S
C2094 C2095 1.386 . S
C2094 C2096 1.391 . S
C2095 C2094 1.386 . S
C2095 C2099 1.393 . S
C2096 H2085 0.950 . S
C2096 C2094 1.391 . S
C2096 C2097 1.400 . S
C2097 C2091 1.491 . S
C2097 C2096 1.400 . S
C2097 C2098 1.398 . S
C2098 H2086 0.950 . S
C2098 C2097 1.398 . S
C2098 C2099 1.391 . S
C2099 H2087 0.950 . S
C2099 C2095 1.393 . S
C2099 C2098 1.391 . S
H2100 C2108 0.950 . S
H2101 C2113 0.950 . S
H2102 C2110 0.950 . S
H2103 C2112 0.931 1_554 S
H2104 C2114 0.950 . S
H2105 C2116 0.950 . S
H2106 C2118 0.977 . S
H2107 C2119 0.945 . S
C2108 H2100 0.950 . S
C2108 C2109 1.386 1_556 S
C2108 C2110 1.391 . S
C2109 C2108 1.386 1_554 S
C2109 C2113 1.393 . S
C2110 H2102 0.950 . S
C2110 C2108 1.391 . S
C2110 C2111 1.400 . S
C2111 C2110 1.400 . S
C2111 C2112 1.398 . S
C2111 C2117 1.491 . S
C2112 H2103 0.931 1_556 S
C2112 C2111 1.398 . S
C2112 C2113 1.391 1_556 S
C2113 H2101 0.950 . S
C2113 C2109 1.393 . S
C2113 C2112 1.391 1_554 S
C2114 H2104 0.950 . S
C2114 C2115 1.386 . S
C2114 C2116 1.391 . S
C2115 C2114 1.386 . S
C2115 C2119 1.426 . S
C2116 H2105 0.950 . S
C2116 C2114 1.391 . S
C2116 C2117 1.400 . S
C2117 C2111 1.491 . S
C2117 C2116 1.400 . S
C2117 C2118 1.398 . S
C2118 H2106 0.977 . S
C2118 C2117 1.398 . S
C2118 C2119 1.366 . S
C2119 H2107 0.945 . S
C2119 C2115 1.426 . S
C2119 C2118 1.366 . S
H2120 C2128 0.950 . S
H2121 C2133 0.950 . S
H2122 C2130 0.950 . S
H2123 C2132 0.950 . S
H2124 C2134 0.950 . S
H2125 C2136 0.950 . S
H2126 C2138 0.950 . S
H2127 C2139 0.950 . S
C2128 H2120 0.950 . S
C2128 C2129 1.386 . S
C2128 C2130 1.391 . S
C2129 C2128 1.386 . S
C2129 C2133 1.393 . S
C2130 H2122 0.950 . S
C2130 C2128 1.391 . S
C2130 C2131 1.400 . S
C2131 C2130 1.400 . S
C2131 C2132 1.398 . S
C2131 C2137 1.491 . S
C2132 H2123 0.950 . S
C2132 C2131 1.398 . S
C2132 C2133 1.391 . S
C2133 H2121 0.950 . S
C2133 C2129 1.393 . S
C2133 C2132 1.391 . S
C2134 H2124 0.950 . S
C2134 C2135 1.386 . S
C2134 C2136 1.391 . S
C2135 C2134 1.386 . S
C2135 C2139 1.393 . S
C2136 H2125 0.950 . S
C2136 C2134 1.391 . S
C2136 C2137 1.400 . S
C2137 C2131 1.491 . S
C2137 C2136 1.400 . S
C2137 C2138 1.398 . S
C2138 H2126 0.950 . S
C2138 C2137 1.398 . S
C2138 C2139 1.391 . S
C2139 H2127 0.950 . S
C2139 C2135 1.393 . S
C2139 C2138 1.391 . S
H2140 C2148 0.950 . S
H2141 C2153 0.950 . S
H2142 C2150 0.950 . S
H2143 C2152 0.950 . S
H2144 C2154 0.950 . S
H2145 C2156 0.950 . S
H2146 C2158 0.950 . S
H2147 C2159 0.950 . S
C2148 H2140 0.950 . S
C2148 C2149 1.422 1_556 S
C2148 C2150 1.391 . S
C2149 C2148 1.422 1_554 S
C2149 C2153 1.335 1_565 S
C2150 H2142 0.950 . S
C2150 C2148 1.391 . S
C2150 C2151 1.395 1_565 S
C2151 C2150 1.395 1_545 S
C2151 C2152 1.401 . S
C2151 C2157 1.493 . S
C2152 H2143 0.950 . S
C2152 C2151 1.401 . S
C2152 C2153 1.391 1_556 S
C2153 H2141 0.950 . S
C2153 C2149 1.335 1_545 S
C2153 C2152 1.391 1_554 S
C2154 H2144 0.950 . S
C2154 C2155 1.386 . S
C2154 C2156 1.391 . S
C2155 C2154 1.386 . S
C2155 C2159 1.393 1_545 S
C2156 H2145 0.950 . S
C2156 C2154 1.391 . S
C2156 C2157 1.400 . S
C2157 C2151 1.493 . S
C2157 C2156 1.400 . S
C2157 C2158 1.398 1_545 S
C2158 H2146 0.950 . S
C2158 C2157 1.398 1_565 S
C2158 C2159 1.391 . S
C2159 H2147 0.950 . S
C2159 C2155 1.393 1_565 S
C2159 C2158 1.391 . S
H2160 C2168 0.950 . S
H2161 C2173 0.950 . S
H2162 C2170 0.950 . S
H2163 C2172 0.950 . S
H2164 C2174 0.950 . S
H2165 C2176 0.950 . S
H2166 C2178 0.950 . S
H2167 C2179 0.950 . S
C2168 H2160 0.950 . S
C2168 C2169 1.386 . S
C2168 C2170 1.391 . S
C2169 C2168 1.386 . S
C2169 C2173 1.393 1_545 S
C2170 H2162 0.950 . S
C2170 C2168 1.391 . S
C2170 C2171 1.400 . S
C2171 C2170 1.400 . S
C2171 C2172 1.398 1_545 S
C2171 C2177 1.491 . S
C2172 H2163 0.950 . S
C2172 C2171 1.398 1_565 S
C2172 C2173 1.391 . S
C2173 H2161 0.950 . S
C2173 C2169 1.393 1_565 S
C2173 C2172 1.391 . S
C2174 H2164 0.950 . S
C2174 C2175 1.338 1_565 S
C2174 C2176 1.391 . S
C2175 C2174 1.338 1_545 S
C2175 C2179 1.433 . S
C2176 H2165 0.950 . S
C2176 C2174 1.391 . S
C2176 C2177 1.400 1_565 S
C2177 C2171 1.491 . S
C2177 C2176 1.400 1_545 S
C2177 C2178 1.398 . S
C2178 H2166 0.950 . S
C2178 C2177 1.398 . S
C2178 C2179 1.391 . S
C2179 H2167 0.950 . S
C2179 C2175 1.433 . S
C2179 C2178 1.391 . S
H2180 C2188 0.950 . S
H2181 C2193 0.950 . S
H2182 C2190 0.950 . S
H2183 C2192 0.950 . S
H2184 C2194 0.950 . S
H2185 C2196 0.950 . S
H2186 C2198 0.950 . S
H2187 C2199 0.950 . S
C2188 H2180 0.950 . S
C2188 C2189 1.386 . S
C2188 C2190 1.391 . S
C2189 C2188 1.386 . S
C2189 C2193 1.393 1_655 S
C2190 H2182 0.950 . S
C2190 C2188 1.391 . S
C2190 C2191 1.400 . S
C2191 C2190 1.400 . S
C2191 C2192 1.398 1_655 S
C2191 C2197 1.491 . S
C2192 H2183 0.950 . S
C2192 C2191 1.398 1_455 S
C2192 C2193 1.391 . S
C2193 H2181 0.950 . S
C2193 C2189 1.393 1_455 S
C2193 C2192 1.391 . S
C2194 H2184 0.950 . S
C2194 C2195 1.379 1_455 S
C2194 C2196 1.391 . S
C2195 C2194 1.379 1_655 S
C2195 C2199 1.406 . S
C2196 H2185 0.950 . S
C2196 C2194 1.391 . S
C2196 C2197 1.400 1_455 S
C2197 C2191 1.491 . S
C2197 C2196 1.400 1_655 S
C2197 C2198 1.398 . S
C2198 H2186 0.950 . S
C2198 C2197 1.398 . S
C2198 C2199 1.391 . S
C2199 H2187 0.950 . S
C2199 C2195 1.406 . S
C2199 C2198 1.391 . S
H2200 C2208 0.950 . S
H2201 C2213 0.950 . S
H2202 C2210 0.950 . S
H2203 C2212 0.950 . S
H2204 C2214 0.950 . S
H2205 C2216 0.950 . S
H2206 C2218 0.950 . S
H2207 C2219 0.950 . S
C2208 H2200 0.950 . S
C2208 C2209 1.386 . S
C2208 C2210 1.391 . S
C2209 C2208 1.386 . S
C2209 C2213 1.393 . S
C2210 H2202 0.950 . S
C2210 C2208 1.391 . S
C2210 C2211 1.400 . S
C2211 C2210 1.400 . S
C2211 C2212 1.398 . S
C2211 C2217 1.491 . S
C2212 H2203 0.950 . S
C2212 C2211 1.398 . S
C2212 C2213 1.391 . S
C2213 H2201 0.950 . S
C2213 C2209 1.393 . S
C2213 C2212 1.391 . S
C2214 H2204 0.950 . S
C2214 C2215 1.386 . S
C2214 C2216 1.391 . S
C2215 C2214 1.386 . S
C2215 C2219 1.393 . S
C2216 H2205 0.950 . S
C2216 C2214 1.391 . S
C2216 C2217 1.400 . S
C2217 C2211 1.491 . S
C2217 C2216 1.400 . S
C2217 C2218 1.398 . S
C2218 H2206 0.950 . S
C2218 C2217 1.398 . S
C2218 C2219 1.391 . S
C2219 H2207 0.950 . S
C2219 C2215 1.393 . S
C2219 C2218 1.391 . S
H2220 C2228 0.950 . S
H2221 C2233 0.950 . S
H2222 C2230 0.950 . S
H2223 C2232 0.950 . S
H2224 C2234 0.950 . S
H2225 C2236 0.950 . S
H2226 C2238 0.950 . S
H2227 C2239 0.950 . S
C2228 H2220 0.950 . S
C2228 C2229 1.386 . S
C2228 C2230 1.391 . S
C2229 C2228 1.386 . S
C2229 C2233 1.393 . S
C2230 H2222 0.950 . S
C2230 C2228 1.391 . S
C2230 C2231 1.400 . S
C2231 C2230 1.400 . S
C2231 C2232 1.398 . S
C2231 C2237 1.491 . S
C2232 H2223 0.950 . S
C2232 C2231 1.398 . S
C2232 C2233 1.391 . S
C2233 H2221 0.950 . S
C2233 C2229 1.393 . S
C2233 C2232 1.391 . S
C2234 H2224 0.950 . S
C2234 C2235 1.386 . S
C2234 C2236 1.391 . S
C2235 C2234 1.386 . S
C2235 C2239 1.393 . S
C2236 H2225 0.950 . S
C2236 C2234 1.391 . S
C2236 C2237 1.400 . S
C2237 C2231 1.491 . S
C2237 C2236 1.400 . S
C2237 C2238 1.398 . S
C2238 H2226 0.950 . S
C2238 C2237 1.398 . S
C2238 C2239 1.391 . S
C2239 H2227 0.950 . S
C2239 C2235 1.393 . S
C2239 C2238 1.391 . S
H2240 C2248 0.950 . S
H2241 C2253 0.950 . S
H2242 C2250 0.950 . S
H2243 C2252 0.950 . S
H2244 C2254 0.950 . S
H2245 C2256 0.950 . S
H2246 C2258 0.950 . S
H2247 C2259 0.950 . S
C2248 H2240 0.950 . S
C2248 C2249 1.386 . S
C2248 C2250 1.391 . S
C2249 C2248 1.386 . S
C2249 C2253 1.393 . S
C2250 H2242 0.950 . S
C2250 C2248 1.391 . S
C2250 C2251 1.400 . S
C2251 C2250 1.400 . S
C2251 C2252 1.398 . S
C2251 C2257 1.491 . S
C2252 H2243 0.950 . S
C2252 C2251 1.398 . S
C2252 C2253 1.391 . S
C2253 H2241 0.950 . S
C2253 C2249 1.393 . S
C2253 C2252 1.391 . S
C2254 H2244 0.950 . S
C2254 C2255 1.386 . S
C2254 C2256 1.391 . S
C2255 C2254 1.386 . S
C2255 C2259 1.393 . S
C2256 H2245 0.950 . S
C2256 C2254 1.391 . S
C2256 C2257 1.400 . S
C2257 C2251 1.491 . S
C2257 C2256 1.400 . S
C2257 C2258 1.398 . S
C2258 H2246 0.950 . S
C2258 C2257 1.398 . S
C2258 C2259 1.391 . S
C2259 H2247 0.950 . S
C2259 C2255 1.393 . S
C2259 C2258 1.391 . S
H2260 C2268 0.950 . S
H2261 C2273 0.950 . S
H2262 C2270 0.950 . S
H2263 C2272 0.950 . S
H2264 C2274 0.950 . S
H2265 C2276 0.950 . S
H2266 C2278 0.950 . S
H2267 C2279 0.950 . S
C2268 H2260 0.950 . S
C2268 C2269 1.386 . S
C2268 C2270 1.391 . S
C2269 C2268 1.386 . S
C2269 C2273 1.393 . S
C2270 H2262 0.950 . S
C2270 C2268 1.391 . S
C2270 C2271 1.400 . S
C2271 C2270 1.400 . S
C2271 C2272 1.398 . S
C2271 C2277 1.491 . S
C2272 H2263 0.950 . S
C2272 C2271 1.398 . S
C2272 C2273 1.391 . S
C2273 H2261 0.950 . S
C2273 C2269 1.393 . S
C2273 C2272 1.391 . S
C2274 H2264 0.950 . S
C2274 C2275 1.386 . S
C2274 C2276 1.391 . S
C2275 C2274 1.386 . S
C2275 C2279 1.393 . S
C2276 H2265 0.950 . S
C2276 C2274 1.391 . S
C2276 C2277 1.400 . S
C2277 C2271 1.491 . S
C2277 C2276 1.400 . S
C2277 C2278 1.398 . S
C2278 H2266 0.950 . S
C2278 C2277 1.398 . S
C2278 C2279 1.391 . S
C2279 H2267 0.950 . S
C2279 C2275 1.393 . S
C2279 C2278 1.391 . S
H2280 C2288 0.950 . S
H2281 C2293 0.950 . S
H2282 C2290 0.950 . S
H2283 C2292 0.950 . S
H2284 C2294 0.950 . S
H2285 C2296 0.950 . S
H2286 C2298 0.950 . S
H2287 C2299 0.950 . S
C2288 H2280 0.950 . S
C2288 C2289 1.386 . S
C2288 C2290 1.391 . S
C2289 C2288 1.386 . S
C2289 C2293 1.393 . S
C2290 H2282 0.950 . S
C2290 C2288 1.391 . S
C2290 C2291 1.400 . S
C2291 C2290 1.400 . S
C2291 C2292 1.398 . S
C2291 C2297 1.491 . S
C2292 H2283 0.950 . S
C2292 C2291 1.398 . S
C2292 C2293 1.391 . S
C2293 H2281 0.950 . S
C2293 C2289 1.393 . S
C2293 C2292 1.391 . S
C2294 H2284 0.950 . S
C2294 C2295 1.386 . S
C2294 C2296 1.391 . S
C2295 C2294 1.386 . S
C2295 C2299 1.393 . S
C2296 H2285 0.950 . S
C2296 C2294 1.391 . S
C2296 C2297 1.400 . S
C2297 C2291 1.491 . S
C2297 C2296 1.400 . S
C2297 C2298 1.398 . S
C2298 H2286 0.950 . S
C2298 C2297 1.398 . S
C2298 C2299 1.391 . S
C2299 H2287 0.950 . S
C2299 C2295 1.393 . S
C2299 C2298 1.391 . S
H2300 C2308 0.950 . S
H2301 C2313 0.950 . S
H2302 C2310 0.950 . S
H2303 C2312 0.950 . S
H2304 C2314 0.950 . S
H2305 C2316 0.950 . S
H2306 C2318 0.950 . S
H2307 C2319 0.950 . S
C2308 H2300 0.950 . S
C2308 C2309 1.386 . S
C2308 C2310 1.391 . S
C2309 C2308 1.386 . S
C2309 C2313 1.393 . S
C2310 H2302 0.950 . S
C2310 C2308 1.391 . S
C2310 C2311 1.400 . S
C2311 C2310 1.400 . S
C2311 C2312 1.398 . S
C2311 C2317 1.491 . S
C2312 H2303 0.950 . S
C2312 C2311 1.398 . S
C2312 C2313 1.391 . S
C2313 H2301 0.950 . S
C2313 C2309 1.393 . S
C2313 C2312 1.391 . S
C2314 H2304 0.950 . S
C2314 C2315 1.386 . S
C2314 C2316 1.391 . S
C2315 C2314 1.386 . S
C2315 C2319 1.393 . S
C2316 H2305 0.950 . S
C2316 C2314 1.391 . S
C2316 C2317 1.400 . S
C2317 C2311 1.491 . S
C2317 C2316 1.400 . S
C2317 C2318 1.398 . S
C2318 H2306 0.950 . S
C2318 C2317 1.398 . S
C2318 C2319 1.391 . S
C2319 H2307 0.950 . S
C2319 C2315 1.393 . S
C2319 C2318 1.391 . S
H2320 C2328 0.950 . S
H2321 C2333 0.950 . S
H2322 C2330 0.950 . S
H2323 C2332 0.950 . S
H2324 C2334 0.950 . S
H2325 C2336 0.950 . S
H2326 C2338 0.950 . S
H2327 C2339 0.950 . S
C2328 H2320 0.950 . S
C2328 C2329 1.386 . S
C2328 C2330 1.391 . S
C2329 C2328 1.386 . S
C2329 C2333 1.393 . S
C2330 H2322 0.950 . S
C2330 C2328 1.391 . S
C2330 C2331 1.400 . S
C2331 C2330 1.400 . S
C2331 C2332 1.398 . S
C2331 C2337 1.491 . S
C2332 H2323 0.950 . S
C2332 C2331 1.398 . S
C2332 C2333 1.391 . S
C2333 H2321 0.950 . S
C2333 C2329 1.393 . S
C2333 C2332 1.391 . S
C2334 H2324 0.950 . S
C2334 C2335 1.386 . S
C2334 C2336 1.391 . S
C2335 C2334 1.386 . S
C2335 C2339 1.393 . S
C2336 H2325 0.950 . S
C2336 C2334 1.391 . S
C2336 C2337 1.400 . S
C2337 C2331 1.491 . S
C2337 C2336 1.400 . S
C2337 C2338 1.398 . S
C2338 H2326 0.950 . S
C2338 C2337 1.398 . S
C2338 C2339 1.391 . S
C2339 H2327 0.950 . S
C2339 C2335 1.393 . S
C2339 C2338 1.391 . S
H2340 C2348 0.950 . S
H2341 C2353 0.950 . S
H2342 C2350 0.950 . S
H2343 C2352 0.950 . S
H2344 C2354 0.950 . S
H2345 C2356 0.950 . S
H2346 C2358 0.950 . S
H2347 C2359 0.950 . S
C2348 H2340 0.950 . S
C2348 C2349 1.386 . S
C2348 C2350 1.391 . S
C2349 C2348 1.386 . S
C2349 C2353 1.393 . S
C2350 H2342 0.950 . S
C2350 C2348 1.391 . S
C2350 C2351 1.400 . S
C2351 C2350 1.400 . S
C2351 C2352 1.398 . S
C2351 C2357 1.491 . S
C2352 H2343 0.950 . S
C2352 C2351 1.398 . S
C2352 C2353 1.391 . S
C2353 H2341 0.950 . S
C2353 C2349 1.393 . S
C2353 C2352 1.391 . S
C2354 H2344 0.950 . S
C2354 C2355 1.386 . S
C2354 C2356 1.391 . S
C2355 C2354 1.386 . S
C2355 C2359 1.393 . S
C2356 H2345 0.950 . S
C2356 C2354 1.391 . S
C2356 C2357 1.400 . S
C2357 C2351 1.491 . S
C2357 C2356 1.400 . S
C2357 C2358 1.398 . S
C2358 H2346 0.950 . S
C2358 C2357 1.398 . S
C2358 C2359 1.391 . S
C2359 H2347 0.950 . S
C2359 C2355 1.393 . S
C2359 C2358 1.391 . S
H2360 C2368 0.950 . S
H2361 C2373 0.950 . S
H2362 C2370 0.950 . S
H2363 C2372 0.950 . S
H2364 C2374 0.950 . S
H2365 C2376 0.950 . S
H2366 C2378 0.950 . S
H2367 C2379 0.950 . S
C2368 H2360 0.950 . S
C2368 C2369 1.386 . S
C2368 C2370 1.391 . S
C2369 C2368 1.386 . S
C2369 C2373 1.393 . S
C2370 H2362 0.950 . S
C2370 C2368 1.391 . S
C2370 C2371 1.400 . S
C2371 C2370 1.400 . S
C2371 C2372 1.398 . S
C2371 C2377 1.491 . S
C2372 H2363 0.950 . S
C2372 C2371 1.398 . S
C2372 C2373 1.391 . S
C2373 H2361 0.950 . S
C2373 C2369 1.393 . S
C2373 C2372 1.391 . S
C2374 H2364 0.950 . S
C2374 C2375 1.386 . S
C2374 C2376 1.391 . S
C2375 C2374 1.386 . S
C2375 C2379 1.393 . S
C2376 H2365 0.950 . S
C2376 C2374 1.391 . S
C2376 C2377 1.400 . S
C2377 C2371 1.491 . S
C2377 C2376 1.400 . S
C2377 C2378 1.398 . S
C2378 H2366 0.950 . S
C2378 C2377 1.398 . S
C2378 C2379 1.391 . S
C2379 H2367 0.950 . S
C2379 C2375 1.393 . S
C2379 C2378 1.391 . S
H2380 C2388 0.950 . S
H2381 C2393 0.950 . S
H2382 C2390 0.950 . S
H2383 C2392 0.950 . S
H2384 C2394 0.950 . S
H2385 C2396 0.950 . S
H2386 C2398 0.950 . S
H2387 C2399 0.950 . S
C2388 H2380 0.950 . S
C2388 C2389 1.386 . S
C2388 C2390 1.391 . S
C2389 C2388 1.386 . S
C2389 C2393 1.393 . S
C2390 H2382 0.950 . S
C2390 C2388 1.391 . S
C2390 C2391 1.400 . S
C2391 C2390 1.400 . S
C2391 C2392 1.398 . S
C2391 C2397 1.491 . S
C2392 H2383 0.950 . S
C2392 C2391 1.398 . S
C2392 C2393 1.391 . S
C2393 H2381 0.950 . S
C2393 C2389 1.393 . S
C2393 C2392 1.391 . S
C2394 H2384 0.950 . S
C2394 C2395 1.386 . S
C2394 C2396 1.391 . S
C2395 C2394 1.386 . S
C2395 C2399 1.393 . S
C2396 H2385 0.950 . S
C2396 C2394 1.391 . S
C2396 C2397 1.400 . S
C2397 C2391 1.491 . S
C2397 C2396 1.400 . S
C2397 C2398 1.398 . S
C2398 H2386 0.950 . S
C2398 C2397 1.398 . S
C2398 C2399 1.391 . S
C2399 H2387 0.950 . S
C2399 C2395 1.393 . S
C2399 C2398 1.391 . S
H2400 C2408 0.950 . S
H2401 C2413 0.950 . S
H2402 C2410 0.950 . S
H2403 C2412 0.950 . S
H2404 C2414 0.950 . S
H2405 C2416 0.950 . S
H2406 C2418 0.950 . S
H2407 C2419 0.950 . S
C2408 H2400 0.950 . S
C2408 C2409 1.386 . S
C2408 C2410 1.391 . S
C2409 C2408 1.386 . S
C2409 C2413 1.393 . S
C2410 H2402 0.950 . S
C2410 C2408 1.391 . S
C2410 C2411 1.400 . S
C2411 C2410 1.400 . S
C2411 C2412 1.398 . S
C2411 C2417 1.491 . S
C2412 H2403 0.950 . S
C2412 C2411 1.398 . S
C2412 C2413 1.391 . S
C2413 H2401 0.950 . S
C2413 C2409 1.393 . S
C2413 C2412 1.391 . S
C2414 H2404 0.950 . S
C2414 C2415 1.386 . S
C2414 C2416 1.391 . S
C2415 C2414 1.386 . S
C2415 C2419 1.393 . S
C2416 H2405 0.950 . S
C2416 C2414 1.391 . S
C2416 C2417 1.400 . S
C2417 C2411 1.491 . S
C2417 C2416 1.400 . S
C2417 C2418 1.398 . S
C2418 H2406 0.950 . S
C2418 C2417 1.398 . S
C2418 C2419 1.391 . S
C2419 H2407 0.950 . S
C2419 C2415 1.393 . S
C2419 C2418 1.391 . S
H2420 C2428 0.950 . S
H2421 C2433 0.950 . S
H2422 C2430 0.950 . S
H2423 C2432 0.950 . S
H2424 C2434 0.950 . S
H2425 C2436 0.950 . S
H2426 C2438 0.950 . S
H2427 C2439 0.950 . S
C2428 H2420 0.950 . S
C2428 C2429 1.386 . S
C2428 C2430 1.391 . S
C2429 C2428 1.386 . S
C2429 C2433 1.393 . S
C2430 H2422 0.950 . S
C2430 C2428 1.391 . S
C2430 C2431 1.400 . S
C2431 C2430 1.400 . S
C2431 C2432 1.398 . S
C2431 C2437 1.491 . S
C2432 H2423 0.950 . S
C2432 C2431 1.398 . S
C2432 C2433 1.391 . S
C2433 H2421 0.950 . S
C2433 C2429 1.393 . S
C2433 C2432 1.391 . S
C2434 H2424 0.950 . S
C2434 C2435 1.386 . S
C2434 C2436 1.391 . S
C2435 C2434 1.386 . S
C2435 C2439 1.393 . S
C2436 H2425 0.950 . S
C2436 C2434 1.391 . S
C2436 C2437 1.400 . S
C2437 C2431 1.491 . S
C2437 C2436 1.400 . S
C2437 C2438 1.398 . S
C2438 H2426 0.950 . S
C2438 C2437 1.398 . S
C2438 C2439 1.391 . S
C2439 H2427 0.950 . S
C2439 C2435 1.393 . S
C2439 C2438 1.391 . S
H2440 C2448 0.950 . S
H2441 C2453 0.950 . S
H2442 C2450 0.950 . S
H2443 C2452 0.950 . S
H2444 C2454 0.950 . S
H2445 C2456 0.950 . S
H2446 C2458 0.950 . S
H2447 C2459 0.950 . S
C2448 H2440 0.950 . S
C2448 C2449 1.386 . S
C2448 C2450 1.391 . S
C2449 C2448 1.386 . S
C2449 C2453 1.393 . S
C2450 H2442 0.950 . S
C2450 C2448 1.391 . S
C2450 C2451 1.400 . S
C2451 C2450 1.400 . S
C2451 C2452 1.398 . S
C2451 C2457 1.491 . S
C2452 H2443 0.950 . S
C2452 C2451 1.398 . S
C2452 C2453 1.391 . S
C2453 H2441 0.950 . S
C2453 C2449 1.393 . S
C2453 C2452 1.391 . S
C2454 H2444 0.950 . S
C2454 C2455 1.386 . S
C2454 C2456 1.391 . S
C2455 C2454 1.386 . S
C2455 C2459 1.393 . S
C2456 H2445 0.950 . S
C2456 C2454 1.391 . S
C2456 C2457 1.400 . S
C2457 C2451 1.491 . S
C2457 C2456 1.400 . S
C2457 C2458 1.398 . S
C2458 H2446 0.950 . S
C2458 C2457 1.398 . S
C2458 C2459 1.391 . S
C2459 H2447 0.950 . S
C2459 C2455 1.393 . S
C2459 C2458 1.391 . S
H2460 C2468 0.950 . S
H2461 C2473 0.950 . S
H2462 C2470 0.950 . S
H2463 C2472 0.950 . S
H2464 C2474 0.950 . S
H2465 C2476 0.950 . S
H2466 C2478 0.950 . S
H2467 C2479 0.950 . S
C2468 H2460 0.950 . S
C2468 C2469 1.386 . S
C2468 C2470 1.391 . S
C2469 C2468 1.386 . S
C2469 C2473 1.393 . S
C2470 H2462 0.950 . S
C2470 C2468 1.391 . S
C2470 C2471 1.400 . S
C2471 C2470 1.400 . S
C2471 C2472 1.398 . S
C2471 C2477 1.491 . S
C2472 H2463 0.950 . S
C2472 C2471 1.398 . S
C2472 C2473 1.391 . S
C2473 H2461 0.950 . S
C2473 C2469 1.393 . S
C2473 C2472 1.391 . S
C2474 H2464 0.950 . S
C2474 C2475 1.386 . S
C2474 C2476 1.391 . S
C2475 C2474 1.386 . S
C2475 C2479 1.393 . S
C2476 H2465 0.950 . S
C2476 C2474 1.391 . S
C2476 C2477 1.400 . S
C2477 C2471 1.491 . S
C2477 C2476 1.400 . S
C2477 C2478 1.398 . S
C2478 H2466 0.950 . S
C2478 C2477 1.398 . S
C2478 C2479 1.391 . S
C2479 H2467 0.950 . S
C2479 C2475 1.393 . S
C2479 C2478 1.391 . S
H2480 C2488 0.950 . S
H2481 C2493 0.950 . S
H2482 C2490 0.950 . S
H2483 C2492 0.950 . S
H2484 C2494 0.950 . S
H2485 C2496 0.950 . S
H2486 C2498 0.950 . S
H2487 C2499 0.950 . S
C2488 H2480 0.950 . S
C2488 C2489 1.386 . S
C2488 C2490 1.391 . S
C2489 C2488 1.386 . S
C2489 C2493 1.393 . S
C2490 H2482 0.950 . S
C2490 C2488 1.391 . S
C2490 C2491 1.400 . S
C2491 C2490 1.400 . S
C2491 C2492 1.398 . S
C2491 C2497 1.491 . S
C2492 H2483 0.950 . S
C2492 C2491 1.398 . S
C2492 C2493 1.391 . S
C2493 H2481 0.950 . S
C2493 C2489 1.393 . S
C2493 C2492 1.391 . S
C2494 H2484 0.950 . S
C2494 C2495 1.386 . S
C2494 C2496 1.391 . S
C2495 C2494 1.386 . S
C2495 C2499 1.393 . S
C2496 H2485 0.950 . S
C2496 C2494 1.391 . S
C2496 C2497 1.400 . S
C2497 C2491 1.491 . S
C2497 C2496 1.400 . S
C2497 C2498 1.398 . S
C2498 H2486 0.950 . S
C2498 C2497 1.398 . S
C2498 C2499 1.391 . S
C2499 H2487 0.950 . S
C2499 C2495 1.393 . S
C2499 C2498 1.391 . S
H2500 C2508 0.950 . S
H2501 C2513 0.950 . S
H2502 C2510 0.950 . S
H2503 C2512 0.950 . S
H2504 C2514 0.950 . S
H2505 C2516 0.950 . S
H2506 C2518 0.950 . S
H2507 C2519 0.950 . S
C2508 H2500 0.950 . S
C2508 C2509 1.386 . S
C2508 C2510 1.391 . S
C2509 C2508 1.386 . S
C2509 C2513 1.393 . S
C2510 H2502 0.950 . S
C2510 C2508 1.391 . S
C2510 C2511 1.400 . S
C2511 C2510 1.400 . S
C2511 C2512 1.398 . S
C2511 C2517 1.491 . S
C2512 H2503 0.950 . S
C2512 C2511 1.398 . S
C2512 C2513 1.391 . S
C2513 H2501 0.950 . S
C2513 C2509 1.393 . S
C2513 C2512 1.391 . S
C2514 H2504 0.950 . S
C2514 C2515 1.386 . S
C2514 C2516 1.391 . S
C2515 C2514 1.386 . S
C2515 C2519 1.393 . S
C2516 H2505 0.950 . S
C2516 C2514 1.391 . S
C2516 C2517 1.400 . S
C2517 C2511 1.491 . S
C2517 C2516 1.400 . S
C2517 C2518 1.398 . S
C2518 H2506 0.950 . S
C2518 C2517 1.398 . S
C2518 C2519 1.391 . S
C2519 H2507 0.950 . S
C2519 C2515 1.393 . S
C2519 C2518 1.391 . S
H2520 C2528 0.950 . S
H2521 C2533 0.950 . S
H2522 C2530 0.950 . S
H2523 C2532 0.950 . S
H2524 C2534 0.950 . S
H2525 C2536 0.950 . S
H2526 C2538 0.950 . S
H2527 C2539 0.950 . S
C2528 H2520 0.950 . S
C2528 C2529 1.386 . S
C2528 C2530 1.391 . S
C2529 C2528 1.386 . S
C2529 C2533 1.393 . S
C2530 H2522 0.950 . S
C2530 C2528 1.391 . S
C2530 C2531 1.400 . S
C2531 C2530 1.400 . S
C2531 C2532 1.398 . S
C2531 C2537 1.491 . S
C2532 H2523 0.950 . S
C2532 C2531 1.398 . S
C2532 C2533 1.391 . S
C2533 H2521 0.950 . S
C2533 C2529 1.393 . S
C2533 C2532 1.391 . S
C2534 H2524 0.950 . S
C2534 C2535 1.386 . S
C2534 C2536 1.391 . S
C2535 C2534 1.386 . S
C2535 C2539 1.393 . S
C2536 H2525 0.950 . S
C2536 C2534 1.391 . S
C2536 C2537 1.400 . S
C2537 C2531 1.491 . S
C2537 C2536 1.400 . S
C2537 C2538 1.398 . S
C2538 H2526 0.950 . S
C2538 C2537 1.398 . S
C2538 C2539 1.391 . S
C2539 H2527 0.950 . S
C2539 C2535 1.393 . S
C2539 C2538 1.391 . S
H2540 C2548 0.950 . S
H2541 C2553 0.950 . S
H2542 C2550 0.950 . S
H2543 C2552 0.950 . S
H2544 C2554 0.950 . S
H2545 C2556 0.950 . S
H2546 C2558 0.950 . S
H2547 C2559 0.950 . S
C2548 H2540 0.950 . S
C2548 C2549 1.386 . S
C2548 C2550 1.391 . S
C2549 C2548 1.386 . S
C2549 C2553 1.393 . S
C2550 H2542 0.950 . S
C2550 C2548 1.391 . S
C2550 C2551 1.400 . S
C2551 C2550 1.400 . S
C2551 C2552 1.398 . S
C2551 C2557 1.491 . S
C2552 H2543 0.950 . S
C2552 C2551 1.398 . S
C2552 C2553 1.391 . S
C2553 H2541 0.950 . S
C2553 C2549 1.393 . S
C2553 C2552 1.391 . S
C2554 H2544 0.950 . S
C2554 C2555 1.386 . S
C2554 C2556 1.391 . S
C2555 C2554 1.386 . S
C2555 C2559 1.393 . S
C2556 H2545 0.950 . S
C2556 C2554 1.391 . S
C2556 C2557 1.400 . S
C2557 C2551 1.491 . S
C2557 C2556 1.400 . S
C2557 C2558 1.398 . S
C2558 H2546 0.950 . S
C2558 C2557 1.398 . S
C2558 C2559 1.391 . S
C2559 H2547 0.950 . S
C2559 C2555 1.393 . S
C2559 C2558 1.391 . S
H2560 C2568 0.950 . S
H2561 C2573 0.950 . S
H2562 C2570 0.950 . S
H2563 C2572 0.950 . S
H2564 C2574 0.950 . S
H2565 C2576 0.950 . S
H2566 C2578 0.950 . S
H2567 C2579 0.950 . S
C2568 H2560 0.950 . S
C2568 C2569 1.386 . S
C2568 C2570 1.391 . S
C2569 C2568 1.386 . S
C2569 C2573 1.393 . S
C2570 H2562 0.950 . S
C2570 C2568 1.391 . S
C2570 C2571 1.400 . S
C2571 C2570 1.400 . S
C2571 C2572 1.398 . S
C2571 C2577 1.491 . S
C2572 H2563 0.950 . S
C2572 C2571 1.398 . S
C2572 C2573 1.391 . S
C2573 H2561 0.950 . S
C2573 C2569 1.393 . S
C2573 C2572 1.391 . S
C2574 H2564 0.950 . S
C2574 C2575 1.386 . S
C2574 C2576 1.391 . S
C2575 C2574 1.386 . S
C2575 C2579 1.393 . S
C2576 H2565 0.950 . S
C2576 C2574 1.391 . S
C2576 C2577 1.400 . S
C2577 C2571 1.491 . S
C2577 C2576 1.400 . S
C2577 C2578 1.398 . S
C2578 H2566 0.950 . S
C2578 C2577 1.398 . S
C2578 C2579 1.391 . S
C2579 H2567 0.950 . S
C2579 C2575 1.393 . S
C2579 C2578 1.391 . S
H2580 C2588 0.950 . S
H2581 C2593 0.950 . S
H2582 C2590 0.950 . S
H2583 C2592 0.950 . S
H2584 C2594 0.950 . S
H2585 C2596 0.950 . S
H2586 C2598 0.950 . S
H2587 C2599 0.950 . S
C2588 H2580 0.950 . S
C2588 C2589 1.386 . S
C2588 C2590 1.391 . S
C2589 C2588 1.386 . S
C2589 C2593 1.393 . S
C2590 H2582 0.950 . S
C2590 C2588 1.391 . S
C2590 C2591 1.400 . S
C2591 C2590 1.400 . S
C2591 C2592 1.398 . S
C2591 C2597 1.491 . S
C2592 H2583 0.950 . S
C2592 C2591 1.398 . S
C2592 C2593 1.391 . S
C2593 H2581 0.950 . S
C2593 C2589 1.393 . S
C2593 C2592 1.391 . S
C2594 H2584 0.950 . S
C2594 C2595 1.386 . S
C2594 C2596 1.391 . S
C2595 C2594 1.386 . S
C2595 C2599 1.393 . S
C2596 H2585 0.950 . S
C2596 C2594 1.391 . S
C2596 C2597 1.400 . S
C2597 C2591 1.491 . S
C2597 C2596 1.400 . S
C2597 C2598 1.398 . S
C2598 H2586 0.950 . S
C2598 C2597 1.398 . S
C2598 C2599 1.391 . S
C2599 H2587 0.950 . S
C2599 C2595 1.393 . S
C2599 C2598 1.391 . S
H2600 C2608 0.950 . S
H2601 C2613 0.950 . S
H2602 C2610 0.950 . S
H2603 C2612 0.950 . S
H2604 C2614 0.950 . S
H2605 C2616 0.950 . S
H2606 C2618 0.950 . S
H2607 C2619 0.950 . S
C2608 H2600 0.950 . S
C2608 C2609 1.386 . S
C2608 C2610 1.391 . S
C2609 C2608 1.386 . S
C2609 C2613 1.393 . S
C2610 H2602 0.950 . S
C2610 C2608 1.391 . S
C2610 C2611 1.400 . S
C2611 C2610 1.400 . S
C2611 C2612 1.398 . S
C2611 C2617 1.491 . S
C2612 H2603 0.950 . S
C2612 C2611 1.398 . S
C2612 C2613 1.391 . S
C2613 H2601 0.950 . S
C2613 C2609 1.393 . S
C2613 C2612 1.391 . S
C2614 H2604 0.950 . S
C2614 C2615 1.386 . S
C2614 C2616 1.391 . S
C2615 C2614 1.386 . S
C2615 C2619 1.393 . S
C2616 H2605 0.950 . S
C2616 C2614 1.391 . S
C2616 C2617 1.400 . S
C2617 C2611 1.491 . S
C2617 C2616 1.400 . S
C2617 C2618 1.398 . S
C2618 H2606 0.950 . S
C2618 C2617 1.398 . S
C2618 C2619 1.391 . S
C2619 H2607 0.950 . S
C2619 C2615 1.393 . S
C2619 C2618 1.391 . S
H2620 C2628 0.950 . S
H2621 C2633 0.950 . S
H2622 C2630 0.950 . S
H2623 C2632 0.950 . S
H2624 C2634 0.950 . S
H2625 C2636 0.950 . S
H2626 C2638 0.950 . S
H2627 C2639 0.950 . S
C2628 H2620 0.950 . S
C2628 C2629 1.386 . S
C2628 C2630 1.391 . S
C2629 C2628 1.386 . S
C2629 C2633 1.393 . S
C2630 H2622 0.950 . S
C2630 C2628 1.391 . S
C2630 C2631 1.400 . S
C2631 C2630 1.400 . S
C2631 C2632 1.398 . S
C2631 C2637 1.491 . S
C2632 H2623 0.950 . S
C2632 C2631 1.398 . S
C2632 C2633 1.391 . S
C2633 H2621 0.950 . S
C2633 C2629 1.393 . S
C2633 C2632 1.391 . S
C2634 H2624 0.950 . S
C2634 C2635 1.386 . S
C2634 C2636 1.391 . S
C2635 C2634 1.386 . S
C2635 C2639 1.393 . S
C2636 H2625 0.950 . S
C2636 C2634 1.391 . S
C2636 C2637 1.400 . S
C2637 C2631 1.491 . S
C2637 C2636 1.400 . S
C2637 C2638 1.398 . S
C2638 H2626 0.950 . S
C2638 C2637 1.398 . S
C2638 C2639 1.391 . S
C2639 H2627 0.950 . S
C2639 C2635 1.393 . S
C2639 C2638 1.391 . S
H2640 C2648 0.950 . S
H2641 C2653 0.950 . S
H2642 C2650 0.950 . S
H2643 C2652 0.950 . S
H2644 C2654 0.950 . S
H2645 C2656 0.950 . S
H2646 C2658 0.950 . S
H2647 C2659 0.950 . S
C2648 H2640 0.950 . S
C2648 C2649 1.386 . S
C2648 C2650 1.391 . S
C2649 C2648 1.386 . S
C2649 C2653 1.393 . S
C2650 H2642 0.950 . S
C2650 C2648 1.391 . S
C2650 C2651 1.400 . S
C2651 C2650 1.400 . S
C2651 C2652 1.398 . S
C2651 C2657 1.491 . S
C2652 H2643 0.950 . S
C2652 C2651 1.398 . S
C2652 C2653 1.391 . S
C2653 H2641 0.950 . S
C2653 C2649 1.393 . S
C2653 C2652 1.391 . S
C2654 H2644 0.950 . S
C2654 C2655 1.386 . S
C2654 C2656 1.391 . S
C2655 C2654 1.386 . S
C2655 C2659 1.393 . S
C2656 H2645 0.950 . S
C2656 C2654 1.391 . S
C2656 C2657 1.400 . S
C2657 C2651 1.491 . S
C2657 C2656 1.400 . S
C2657 C2658 1.398 . S
C2658 H2646 0.950 . S
C2658 C2657 1.398 . S
C2658 C2659 1.391 . S
C2659 H2647 0.950 . S
C2659 C2655 1.393 . S
C2659 C2658 1.391 . S
H2660 C2668 0.950 . S
H2661 C2673 0.950 . S
H2662 C2670 0.950 . S
H2663 C2672 0.950 . S
H2664 C2674 0.950 . S
H2665 C2676 0.950 . S
H2666 C2678 0.950 . S
H2667 C2679 0.950 . S
C2668 H2660 0.950 . S
C2668 C2669 1.386 . S
C2668 C2670 1.391 . S
C2669 C2668 1.386 . S
C2669 C2673 1.393 . S
C2670 H2662 0.950 . S
C2670 C2668 1.391 . S
C2670 C2671 1.400 . S
C2671 C2670 1.400 . S
C2671 C2672 1.398 . S
C2671 C2677 1.491 . S
C2672 H2663 0.950 . S
C2672 C2671 1.398 . S
C2672 C2673 1.391 . S
C2673 H2661 0.950 . S
C2673 C2669 1.393 . S
C2673 C2672 1.391 . S
C2674 H2664 0.950 . S
C2674 C2675 1.386 . S
C2674 C2676 1.391 . S
C2675 C2674 1.386 . S
C2675 C2679 1.393 . S
C2676 H2665 0.950 . S
C2676 C2674 1.391 . S
C2676 C2677 1.400 . S
C2677 C2671 1.491 . S
C2677 C2676 1.400 . S
C2677 C2678 1.398 . S
C2678 H2666 0.950 . S
C2678 C2677 1.398 . S
C2678 C2679 1.391 . S
C2679 H2667 0.950 . S
C2679 C2675 1.393 . S
C2679 C2678 1.391 . S
H2680 C2688 0.950 . S
H2681 C2693 0.950 . S
H2682 C2690 0.950 . S
H2683 C2692 0.950 . S
H2684 C2694 0.950 . S
H2685 C2696 0.950 . S
H2686 C2698 0.950 . S
H2687 C2699 0.950 . S
C2688 H2680 0.950 . S
C2688 C2689 1.386 . S
C2688 C2690 1.391 . S
C2689 C2688 1.386 . S
C2689 C2693 1.393 . S
C2690 H2682 0.950 . S
C2690 C2688 1.391 . S
C2690 C2691 1.400 . S
C2691 C2690 1.400 . S
C2691 C2692 1.398 . S
C2691 C2697 1.491 . S
C2692 H2683 0.950 . S
C2692 C2691 1.398 . S
C2692 C2693 1.391 . S
C2693 H2681 0.950 . S
C2693 C2689 1.393 . S
C2693 C2692 1.391 . S
C2694 H2684 0.950 . S
C2694 C2695 1.386 . S
C2694 C2696 1.391 . S
C2695 C2694 1.386 . S
C2695 C2699 1.393 . S
C2696 H2685 0.950 . S
C2696 C2694 1.391 . S
C2696 C2697 1.400 . S
C2697 C2691 1.491 . S
C2697 C2696 1.400 . S
C2697 C2698 1.398 . S
C2698 H2686 0.950 . S
C2698 C2697 1.398 . S
C2698 C2699 1.391 . S
C2699 H2687 0.950 . S
C2699 C2695 1.393 . S
C2699 C2698 1.391 . S
H2700 C2708 0.950 . S
H2701 C2713 0.950 . S
H2702 C2710 0.950 . S
H2703 C2712 0.950 . S
H2704 C2714 0.950 . S
H2705 C2716 0.950 . S
H2706 C2718 0.950 . S
H2707 C2719 0.950 . S
C2708 H2700 0.950 . S
C2708 C2709 1.386 . S
C2708 C2710 1.391 . S
C2709 C2708 1.386 . S
C2709 C2713 1.393 . S
C2710 H2702 0.950 . S
C2710 C2708 1.391 . S
C2710 C2711 1.400 . S
C2711 C2710 1.400 . S
C2711 C2712 1.398 . S
C2711 C2717 1.491 . S
C2712 H2703 0.950 . S
C2712 C2711 1.398 . S
C2712 C2713 1.391 . S
C2713 H2701 0.950 . S
C2713 C2709 1.393 . S
C2713 C2712 1.391 . S
C2714 H2704 0.950 . S
C2714 C2715 1.386 . S
C2714 C2716 1.391 . S
C2715 C2714 1.386 . S
C2715 C2719 1.393 . S
C2716 H2705 0.950 . S
C2716 C2714 1.391 . S
C2716 C2717 1.400 . S
C2717 C2711 1.491 . S
C2717 C2716 1.400 . S
C2717 C2718 1.398 . S
C2718 H2706 0.950 . S
C2718 C2717 1.398 . S
C2718 C2719 1.391 . S
C2719 H2707 0.950 . S
C2719 C2715 1.393 . S
C2719 C2718 1.391 . S
H2720 C2728 0.950 . S
H2721 C2733 0.950 . S
H2722 C2730 0.950 . S
H2723 C2732 0.950 . S
H2724 C2734 0.950 . S
H2725 C2736 0.950 . S
H2726 C2738 0.950 . S
H2727 C2739 0.950 . S
C2728 H2720 0.950 . S
C2728 C2729 1.386 . S
C2728 C2730 1.391 . S
C2729 C2728 1.386 . S
C2729 C2733 1.393 . S
C2730 H2722 0.950 . S
C2730 C2728 1.391 . S
C2730 C2731 1.400 . S
C2731 C2730 1.400 . S
C2731 C2732 1.398 . S
C2731 C2737 1.491 . S
C2732 H2723 0.950 . S
C2732 C2731 1.398 . S
C2732 C2733 1.391 . S
C2733 H2721 0.950 . S
C2733 C2729 1.393 . S
C2733 C2732 1.391 . S
C2734 H2724 0.950 . S
C2734 C2735 1.386 . S
C2734 C2736 1.391 . S
C2735 C2734 1.386 . S
C2735 C2739 1.393 . S
C2736 H2725 0.950 . S
C2736 C2734 1.391 . S
C2736 C2737 1.400 . S
C2737 C2731 1.491 . S
C2737 C2736 1.400 . S
C2737 C2738 1.398 . S
C2738 H2726 0.950 . S
C2738 C2737 1.398 . S
C2738 C2739 1.391 . S
C2739 H2727 0.950 . S
C2739 C2735 1.393 . S
C2739 C2738 1.391 . S
H2740 C2748 0.950 . S
H2741 C2753 0.950 . S
H2742 C2750 0.950 . S
H2743 C2752 0.950 . S
H2744 C2754 0.950 . S
H2745 C2756 0.950 . S
H2746 C2758 0.950 . S
H2747 C2759 0.950 . S
C2748 H2740 0.950 . S
C2748 C2749 1.386 . S
C2748 C2750 1.391 . S
C2749 C2748 1.386 . S
C2749 C2753 1.393 . S
C2750 H2742 0.950 . S
C2750 C2748 1.391 . S
C2750 C2751 1.400 . S
C2751 C2750 1.400 . S
C2751 C2752 1.398 . S
C2751 C2757 1.491 . S
C2752 H2743 0.950 . S
C2752 C2751 1.398 . S
C2752 C2753 1.391 . S
C2753 H2741 0.950 . S
C2753 C2749 1.393 . S
C2753 C2752 1.391 . S
C2754 H2744 0.950 . S
C2754 C2755 1.386 . S
C2754 C2756 1.391 . S
C2755 C2754 1.386 . S
C2755 C2759 1.393 . S
C2756 H2745 0.950 . S
C2756 C2754 1.391 . S
C2756 C2757 1.400 . S
C2757 C2751 1.491 . S
C2757 C2756 1.400 . S
C2757 C2758 1.398 . S
C2758 H2746 0.950 . S
C2758 C2757 1.398 . S
C2758 C2759 1.391 . S
C2759 H2747 0.950 . S
C2759 C2755 1.393 . S
C2759 C2758 1.391 . S
H2760 C2768 0.950 . S
H2761 C2773 0.950 . S
H2762 C2770 0.950 . S
H2763 C2772 0.950 . S
H2764 C2774 0.950 . S
H2765 C2776 0.950 1_554 S
H2766 C2778 0.950 . S
H2767 C2779 0.950 . S
C2768 H2760 0.950 . S
C2768 C2769 1.386 1_556 S
C2768 C2770 1.391 . S
C2769 C2768 1.386 1_554 S
C2769 C2773 1.393 . S
C2770 H2762 0.950 . S
C2770 C2768 1.391 . S
C2770 C2771 1.400 . S
C2771 C2770 1.400 . S
C2771 C2772 1.398 1_556 S
C2771 C2777 1.491 . S
C2772 H2763 0.950 . S
C2772 C2771 1.398 1_554 S
C2772 C2773 1.391 . S
C2773 H2761 0.950 . S
C2773 C2769 1.393 . S
C2773 C2772 1.391 . S
C2774 H2764 0.950 . S
C2774 C2775 1.386 . S
C2774 C2776 1.391 . S
C2775 C2774 1.386 . S
C2775 C2779 1.393 . S
C2776 H2765 0.950 1_556 S
C2776 C2774 1.391 . S
C2776 C2777 1.400 . S
C2777 C2771 1.491 . S
C2777 C2776 1.400 . S
C2777 C2778 1.398 . S
C2778 H2766 0.950 . S
C2778 C2777 1.398 . S
C2778 C2779 1.391 . S
C2779 H2767 0.950 . S
C2779 C2775 1.393 . S
C2779 C2778 1.391 . S
H2780 C2788 0.950 . S
H2781 C2793 0.933 1_554 S
H2782 C2790 0.950 . S
H2783 C2792 0.950 . S
H2784 C2794 0.950 . S
H2785 C2796 0.950 . S
H2786 C2798 0.950 . S
H2787 C2799 0.950 . S
C2788 H2780 0.950 . S
C2788 C2789 1.386 . S
C2788 C2790 1.391 . S
C2789 C2788 1.386 . S
C2789 C2793 1.402 . S
C2790 H2782 0.950 . S
C2790 C2788 1.391 . S
C2790 C2791 1.400 . S
C2791 C2790 1.400 . S
C2791 C2792 1.398 . S
C2791 C2797 1.491 . S
C2792 H2783 0.950 . S
C2792 C2791 1.398 . S
C2792 C2793 1.399 . S
C2793 H2781 0.933 1_556 S
C2793 C2789 1.402 . S
C2793 C2792 1.399 . S
C2794 H2784 0.950 . S
C2794 C2795 1.386 . S
C2794 C2796 1.391 . S
C2795 C2794 1.386 . S
C2795 C2799 1.393 . S
C2796 H2785 0.950 . S
C2796 C2794 1.391 . S
C2796 C2797 1.400 . S
C2797 C2791 1.491 . S
C2797 C2796 1.400 . S
C2797 C2798 1.398 . S
C2798 H2786 0.950 . S
C2798 C2797 1.398 . S
C2798 C2799 1.391 . S
C2799 H2787 0.950 . S
C2799 C2795 1.393 . S
C2799 C2798 1.391 . S
H2800 C2808 0.950 . S
H2801 C2813 0.950 . S
H2802 C2810 0.950 . S
H2803 C2812 0.950 1_556 S
H2804 C2814 0.950 . S
H2805 C2816 0.950 . S
H2806 C2818 0.950 . S
H2807 C2819 0.950 1_554 S
C2808 H2800 0.950 . S
C2808 C2809 1.386 . S
C2808 C2810 1.391 . S
C2809 C2808 1.386 . S
C2809 C2813 1.393 . S
C2810 H2802 0.950 . S
C2810 C2808 1.391 . S
C2810 C2811 1.400 . S
C2811 C2810 1.400 . S
C2811 C2812 1.398 . S
C2811 C2817 1.491 . S
C2812 H2803 0.950 1_554 S
C2812 C2811 1.398 . S
C2812 C2813 1.391 . S
C2813 H2801 0.950 . S
C2813 C2809 1.393 . S
C2813 C2812 1.391 . S
C2814 H2804 0.950 . S
C2814 C2815 1.386 . S
C2814 C2816 1.391 . S
C2815 C2814 1.386 . S
C2815 C2819 1.391 . S
C2816 H2805 0.950 . S
C2816 C2814 1.391 . S
C2816 C2817 1.400 1_556 S
C2817 C2811 1.491 . S
C2817 C2816 1.400 1_554 S
C2817 C2818 1.398 . S
C2818 H2806 0.950 . S
C2818 C2817 1.398 . S
C2818 C2819 1.392 1_554 S
C2819 H2807 0.950 1_556 S
C2819 C2815 1.391 . S
C2819 C2818 1.392 1_556 S
H2820 C2828 0.950 . S
H2821 C2833 0.950 . S
H2822 C2830 0.950 . S
H2823 C2832 0.950 . S
H2824 C2834 0.950 . S
H2825 C2836 0.950 . S
H2826 C2838 0.950 . S
H2827 C2839 0.950 . S
C2828 H2820 0.950 . S
C2828 C2829 1.386 1_556 S
C2828 C2830 1.391 . S
C2829 C2828 1.386 1_554 S
C2829 C2833 1.393 . S
C2830 H2822 0.950 . S
C2830 C2828 1.391 . S
C2830 C2831 1.400 . S
C2831 C2830 1.400 . S
C2831 C2832 1.398 1_556 S
C2831 C2837 1.491 . S
C2832 H2823 0.950 . S
C2832 C2831 1.398 1_554 S
C2832 C2833 1.391 . S
C2833 H2821 0.950 . S
C2833 C2829 1.393 . S
C2833 C2832 1.391 . S
C2834 H2824 0.950 . S
C2834 C2835 1.386 . S
C2834 C2836 1.391 . S
C2835 C2834 1.386 . S
C2835 C2839 1.393 . S
C2836 H2825 0.950 . S
C2836 C2834 1.391 . S
C2836 C2837 1.400 . S
C2837 C2831 1.491 . S
C2837 C2836 1.400 . S
C2837 C2838 1.398 . S
C2838 H2826 0.950 . S
C2838 C2837 1.398 . S
C2838 C2839 1.391 . S
C2839 H2827 0.950 . S
C2839 C2835 1.393 . S
C2839 C2838 1.391 . S
H2840 C2848 0.950 1_554 S
H2841 C2853 0.950 . S
H2842 C2850 0.950 . S
H2843 C2852 0.950 . S
H2844 C2854 0.950 . S
H2845 C2856 0.950 . S
H2846 C2858 0.950 . S
H2847 C2859 0.950 . S
C2848 H2840 0.950 1_556 S
C2848 C2849 1.386 . S
C2848 C2850 1.391 . S
C2849 C2848 1.386 . S
C2849 C2853 1.393 . S
C2850 H2842 0.950 . S
C2850 C2848 1.391 . S
C2850 C2851 1.400 . S
C2851 C2850 1.400 . S
C2851 C2852 1.398 . S
C2851 C2857 1.491 . S
C2852 H2843 0.950 . S
C2852 C2851 1.398 . S
C2852 C2853 1.391 . S
C2853 H2841 0.950 . S
C2853 C2849 1.393 . S
C2853 C2852 1.391 . S
C2854 H2844 0.950 . S
C2854 C2855 1.386 . S
C2854 C2856 1.391 . S
C2855 C2854 1.386 . S
C2855 C2859 1.393 . S
C2856 H2845 0.950 . S
C2856 C2854 1.391 . S
C2856 C2857 1.400 . S
C2857 C2851 1.491 . S
C2857 C2856 1.400 . S
C2857 C2858 1.398 . S
C2858 H2846 0.950 . S
C2858 C2857 1.398 . S
C2858 C2859 1.391 . S
C2859 H2847 0.950 . S
C2859 C2855 1.393 . S
C2859 C2858 1.391 . S
H2860 C2868 0.950 . S
H2861 C2873 0.950 . S
H2862 C2870 0.950 . S
H2863 C2872 0.936 1_556 S
H2864 C2874 0.950 . S
H2865 C2876 0.950 . S
H2866 C2878 0.950 . S
H2867 C2879 0.950 . S
C2868 H2860 0.950 . S
C2868 C2869 1.386 . S
C2868 C2870 1.391 . S
C2869 C2868 1.386 . S
C2869 C2873 1.393 . S
C2870 H2862 0.950 . S
C2870 C2868 1.391 . S
C2870 C2871 1.376 1_554 S
C2871 C2870 1.376 1_556 S
C2871 C2872 1.395 1_556 S
C2871 C2877 1.519 . S
C2872 H2863 0.936 1_554 S
C2872 C2871 1.395 1_554 S
C2872 C2873 1.407 . S
C2873 H2861 0.950 . S
C2873 C2869 1.393 . S
C2873 C2872 1.407 . S
C2874 H2864 0.950 . S
C2874 C2875 1.386 . S
C2874 C2876 1.391 . S
C2875 C2874 1.386 . S
C2875 C2879 1.393 . S
C2876 H2865 0.950 . S
C2876 C2874 1.391 . S
C2876 C2877 1.400 . S
C2877 C2871 1.519 . S
C2877 C2876 1.400 . S
C2877 C2878 1.398 . S
C2878 H2866 0.950 . S
C2878 C2877 1.398 . S
C2878 C2879 1.391 . S
C2879 H2867 0.950 . S
C2879 C2875 1.393 . S
C2879 C2878 1.391 . S
H2880 C2888 0.950 . S
H2881 C2893 0.950 . S
H2882 C2890 0.950 . S
H2883 C2892 0.950 . S
H2884 C2894 0.950 . S
H2885 C2896 0.950 . S
H2886 C2898 0.950 . S
H2887 C2899 0.950 . S
C2888 H2880 0.950 . S
C2888 C2889 1.386 . S
C2888 C2890 1.391 . S
C2889 C2888 1.386 . S
C2889 C2893 1.393 . S
C2890 H2882 0.950 . S
C2890 C2888 1.391 . S
C2890 C2891 1.400 . S
C2891 C2890 1.400 . S
C2891 C2892 1.398 . S
C2891 C2897 1.491 . S
C2892 H2883 0.950 . S
C2892 C2891 1.398 . S
C2892 C2893 1.391 . S
C2893 H2881 0.950 . S
C2893 C2889 1.393 . S
C2893 C2892 1.391 . S
C2894 H2884 0.950 . S
C2894 C2895 1.386 . S
C2894 C2896 1.391 . S
C2895 C2894 1.386 . S
C2895 C2899 1.393 . S
C2896 H2885 0.950 . S
C2896 C2894 1.391 . S
C2896 C2897 1.400 . S
C2897 C2891 1.491 . S
C2897 C2896 1.400 . S
C2897 C2898 1.398 . S
C2898 H2886 0.950 . S
C2898 C2897 1.398 . S
C2898 C2899 1.391 . S
C2899 H2887 0.950 . S
C2899 C2895 1.393 . S
C2899 C2898 1.391 . S
H2900 C2908 0.950 . S
H2901 C2913 0.950 . S
H2902 C2910 0.950 . S
H2903 C2912 0.950 . S
H2904 C2914 0.950 . S
H2905 C2916 0.950 . S
H2906 C2918 0.950 . S
H2907 C2919 0.950 . S
C2908 H2900 0.950 . S
C2908 C2909 1.386 . S
C2908 C2910 1.391 . S
C2909 C2908 1.386 . S
C2909 C2913 1.393 . S
C2910 H2902 0.950 . S
C2910 C2908 1.391 . S
C2910 C2911 1.400 . S
C2911 C2910 1.400 . S
C2911 C2912 1.398 . S
C2911 C2917 1.491 . S
C2912 H2903 0.950 . S
C2912 C2911 1.398 . S
C2912 C2913 1.391 . S
C2913 H2901 0.950 . S
C2913 C2909 1.393 . S
C2913 C2912 1.391 . S
C2914 H2904 0.950 . S
C2914 C2915 1.386 . S
C2914 C2916 1.391 . S
C2915 C2914 1.386 . S
C2915 C2919 1.393 . S
C2916 H2905 0.950 . S
C2916 C2914 1.391 . S
C2916 C2917 1.400 . S
C2917 C2911 1.491 . S
C2917 C2916 1.400 . S
C2917 C2918 1.398 . S
C2918 H2906 0.950 . S
C2918 C2917 1.398 . S
C2918 C2919 1.391 . S
C2919 H2907 0.950 . S
C2919 C2915 1.393 . S
C2919 C2918 1.391 . S
H2920 C2928 0.950 . S
H2921 C2933 0.950 . S
H2922 C2930 0.950 . S
H2923 C2932 0.950 . S
H2924 C2934 0.950 . S
H2925 C2936 0.950 . S
H2926 C2938 0.950 . S
H2927 C2939 0.950 . S
C2928 H2920 0.950 . S
C2928 C2929 1.386 . S
C2928 C2930 1.391 . S
C2929 C2928 1.386 . S
C2929 C2933 1.393 . S
C2930 H2922 0.950 . S
C2930 C2928 1.391 . S
C2930 C2931 1.400 . S
C2931 C2930 1.400 . S
C2931 C2932 1.398 . S
C2931 C2937 1.491 . S
C2932 H2923 0.950 . S
C2932 C2931 1.398 . S
C2932 C2933 1.391 . S
C2933 H2921 0.950 . S
C2933 C2929 1.393 . S
C2933 C2932 1.391 . S
C2934 H2924 0.950 . S
C2934 C2935 1.386 . S
C2934 C2936 1.391 . S
C2935 C2934 1.386 . S
C2935 C2939 1.393 . S
C2936 H2925 0.950 . S
C2936 C2934 1.391 . S
C2936 C2937 1.400 . S
C2937 C2931 1.491 . S
C2937 C2936 1.400 . S
C2937 C2938 1.398 . S
C2938 H2926 0.950 . S
C2938 C2937 1.398 . S
C2938 C2939 1.391 . S
C2939 H2927 0.950 . S
C2939 C2935 1.393 . S
C2939 C2938 1.391 . S
H2940 C2948 0.950 . S
H2941 C2953 0.950 . S
H2942 C2950 0.950 . S
H2943 C2952 0.950 . S
H2944 C2954 0.950 . S
H2945 C2956 0.950 . S
H2946 C2958 0.950 . S
H2947 C2959 0.950 . S
C2948 H2940 0.950 . S
C2948 C2949 1.386 . S
C2948 C2950 1.391 . S
C2949 C2948 1.386 . S
C2949 C2953 1.393 . S
C2950 H2942 0.950 . S
C2950 C2948 1.391 . S
C2950 C2951 1.400 . S
C2951 C2950 1.400 . S
C2951 C2952 1.398 . S
C2951 C2957 1.491 . S
C2952 H2943 0.950 . S
C2952 C2951 1.398 . S
C2952 C2953 1.391 . S
C2953 H2941 0.950 . S
C2953 C2949 1.393 . S
C2953 C2952 1.391 . S
C2954 H2944 0.950 . S
C2954 C2955 1.386 . S
C2954 C2956 1.391 . S
C2955 C2954 1.386 . S
C2955 C2959 1.393 . S
C2956 H2945 0.950 . S
C2956 C2954 1.391 . S
C2956 C2957 1.400 . S
C2957 C2951 1.491 . S
C2957 C2956 1.400 . S
C2957 C2958 1.398 . S
C2958 H2946 0.950 . S
C2958 C2957 1.398 . S
C2958 C2959 1.391 . S
C2959 H2947 0.950 . S
C2959 C2955 1.393 . S
C2959 C2958 1.391 . S
H2960 C2968 0.950 . S
H2961 C2973 0.950 . S
H2962 C2970 0.950 . S
H2963 C2972 0.950 . S
H2964 C2974 0.950 . S
H2965 C2976 0.950 . S
H2966 C2978 0.950 . S
H2967 C2979 0.950 . S
C2968 H2960 0.950 . S
C2968 C2969 1.386 . S
C2968 C2970 1.391 . S
C2969 C2968 1.386 . S
C2969 C2973 1.393 . S
C2970 H2962 0.950 . S
C2970 C2968 1.391 . S
C2970 C2971 1.400 . S
C2971 C2970 1.400 . S
C2971 C2972 1.398 . S
C2971 C2977 1.491 . S
C2972 H2963 0.950 . S
C2972 C2971 1.398 . S
C2972 C2973 1.391 . S
C2973 H2961 0.950 . S
C2973 C2969 1.393 . S
C2973 C2972 1.391 . S
C2974 H2964 0.950 . S
C2974 C2975 1.386 . S
C2974 C2976 1.391 . S
C2975 C2974 1.386 . S
C2975 C2979 1.393 . S
C2976 H2965 0.950 . S
C2976 C2974 1.391 . S
C2976 C2977 1.400 . S
C2977 C2971 1.491 . S
C2977 C2976 1.400 . S
C2977 C2978 1.398 . S
C2978 H2966 0.950 . S
C2978 C2977 1.398 . S
C2978 C2979 1.391 . S
C2979 H2967 0.950 . S
C2979 C2975 1.393 . S
C2979 C2978 1.391 . S
H2980 C2988 0.950 . S
H2981 C2993 0.950 . S
H2982 C2990 0.950 . S
H2983 C2992 0.950 . S
H2984 C2994 0.950 . S
H2985 C2996 0.950 . S
H2986 C2998 0.950 . S
H2987 C2999 0.950 . S
C2988 H2980 0.950 . S
C2988 C2989 1.386 . S
C2988 C2990 1.391 . S
C2989 C2988 1.386 . S
C2989 C2993 1.393 . S
C2990 H2982 0.950 . S
C2990 C2988 1.391 . S
C2990 C2991 1.400 . S
C2991 C2990 1.400 . S
C2991 C2992 1.398 . S
C2991 C2997 1.491 . S
C2992 H2983 0.950 . S
C2992 C2991 1.398 . S
C2992 C2993 1.391 . S
C2993 H2981 0.950 . S
C2993 C2989 1.393 . S
C2993 C2992 1.391 . S
C2994 H2984 0.950 . S
C2994 C2995 1.386 . S
C2994 C2996 1.391 . S
C2995 C2994 1.386 . S
C2995 C2999 1.393 . S
C2996 H2985 0.950 . S
C2996 C2994 1.391 . S
C2996 C2997 1.400 . S
C2997 C2991 1.491 . S
C2997 C2996 1.400 . S
C2997 C2998 1.398 . S
C2998 H2986 0.950 . S
C2998 C2997 1.398 . S
C2998 C2999 1.391 . S
C2999 H2987 0.950 . S
C2999 C2995 1.393 . S
C2999 C2998 1.391 . S
H3000 C3008 0.950 . S
H3001 C3013 0.950 . S
H3002 C3010 0.950 . S
H3003 C3012 0.950 . S
H3004 C3014 0.950 . S
H3005 C3016 0.950 . S
H3006 C3018 0.950 . S
H3007 C3019 0.950 . S
C3008 H3000 0.950 . S
C3008 C3009 1.386 . S
C3008 C3010 1.391 . S
C3009 C3008 1.386 . S
C3009 C3013 1.393 . S
C3010 H3002 0.950 . S
C3010 C3008 1.391 . S
C3010 C3011 1.400 . S
C3011 C3010 1.400 . S
C3011 C3012 1.398 . S
C3011 C3017 1.491 . S
C3012 H3003 0.950 . S
C3012 C3011 1.398 . S
C3012 C3013 1.391 . S
C3013 H3001 0.950 . S
C3013 C3009 1.393 . S
C3013 C3012 1.391 . S
C3014 H3004 0.950 . S
C3014 C3015 1.386 . S
C3014 C3016 1.391 . S
C3015 C3014 1.386 . S
C3015 C3019 1.393 . S
C3016 H3005 0.950 . S
C3016 C3014 1.391 . S
C3016 C3017 1.400 . S
C3017 C3011 1.491 . S
C3017 C3016 1.400 . S
C3017 C3018 1.398 . S
C3018 H3006 0.950 . S
C3018 C3017 1.398 . S
C3018 C3019 1.391 . S
C3019 H3007 0.950 . S
C3019 C3015 1.393 . S
C3019 C3018 1.391 . S
H3020 C3028 0.950 . S
H3021 C3033 0.950 . S
H3022 C3030 0.950 . S
H3023 C3032 0.950 . S
H3024 C3034 0.950 . S
H3025 C3036 0.950 . S
H3026 C3038 0.950 . S
H3027 C3039 0.950 . S
C3028 H3020 0.950 . S
C3028 C3029 1.386 . S
C3028 C3030 1.391 . S
C3029 C3028 1.386 . S
C3029 C3033 1.393 . S
C3030 H3022 0.950 . S
C3030 C3028 1.391 . S
C3030 C3031 1.400 . S
C3031 C3030 1.400 . S
C3031 C3032 1.398 . S
C3031 C3037 1.491 . S
C3032 H3023 0.950 . S
C3032 C3031 1.398 . S
C3032 C3033 1.391 . S
C3033 H3021 0.950 . S
C3033 C3029 1.393 . S
C3033 C3032 1.391 . S
C3034 H3024 0.950 . S
C3034 C3035 1.386 . S
C3034 C3036 1.391 . S
C3035 C3034 1.386 . S
C3035 C3039 1.393 . S
C3036 H3025 0.950 . S
C3036 C3034 1.391 . S
C3036 C3037 1.400 . S
C3037 C3031 1.491 . S
C3037 C3036 1.400 . S
C3037 C3038 1.398 . S
C3038 H3026 0.950 . S
C3038 C3037 1.398 . S
C3038 C3039 1.391 . S
C3039 H3027 0.950 . S
C3039 C3035 1.393 . S
C3039 C3038 1.391 . S
H3040 C3048 0.950 . S
H3041 C3053 0.950 . S
H3042 C3050 0.950 . S
H3043 C3052 0.950 . S
H3044 C3054 0.950 . S
H3045 C3056 0.950 . S
H3046 C3058 0.950 . S
H3047 C3059 0.938 1_545 S
C3048 H3040 0.950 . S
C3048 C3049 1.386 . S
C3048 C3050 1.391 . S
C3049 C3048 1.386 . S
C3049 C3053 1.393 . S
C3050 H3042 0.950 . S
C3050 C3048 1.391 . S
C3050 C3051 1.400 . S
C3051 C3050 1.400 . S
C3051 C3052 1.398 . S
C3051 C3057 1.491 . S
C3052 H3043 0.950 . S
C3052 C3051 1.398 . S
C3052 C3053 1.391 . S
C3053 H3041 0.950 . S
C3053 C3049 1.393 . S
C3053 C3052 1.391 . S
C3054 H3044 0.950 . S
C3054 C3055 1.386 . S
C3054 C3056 1.391 . S
C3055 C3054 1.386 . S
C3055 C3059 1.393 . S
C3056 H3045 0.950 . S
C3056 C3054 1.391 . S
C3056 C3057 1.400 . S
C3057 C3051 1.491 . S
C3057 C3056 1.400 . S
C3057 C3058 1.398 . S
C3058 H3046 0.950 . S
C3058 C3057 1.398 . S
C3058 C3059 1.391 . S
C3059 H3047 0.938 1_565 S
C3059 C3055 1.393 . S
C3059 C3058 1.391 . S
H3060 C3068 0.950 . S
H3061 C3073 0.950 . S
H3062 C3070 0.950 . S
H3063 C3072 0.950 . S
H3064 C3074 0.950 . S
H3065 C3076 0.950 . S
H3066 C3078 0.950 . S
H3067 C3079 0.950 . S
C3068 H3060 0.950 . S
C3068 C3069 1.386 . S
C3068 C3070 1.391 . S
C3069 C3068 1.386 . S
C3069 C3073 1.393 . S
C3070 H3062 0.950 . S
C3070 C3068 1.391 . S
C3070 C3071 1.400 . S
C3071 C3070 1.400 . S
C3071 C3072 1.398 . S
C3071 C3077 1.491 . S
C3072 H3063 0.950 . S
C3072 C3071 1.398 . S
C3072 C3073 1.391 . S
C3073 H3061 0.950 . S
C3073 C3069 1.393 . S
C3073 C3072 1.391 . S
C3074 H3064 0.950 . S
C3074 C3075 1.389 1_545 S
C3074 C3076 1.391 1_545 S
C3075 C3074 1.389 1_565 S
C3075 C3079 1.395 . S
C3076 H3065 0.950 . S
C3076 C3074 1.391 1_565 S
C3076 C3077 1.400 . S
C3077 C3071 1.491 . S
C3077 C3076 1.400 . S
C3077 C3078 1.398 . S
C3078 H3066 0.950 . S
C3078 C3077 1.398 . S
C3078 C3079 1.391 . S
C3079 H3067 0.950 . S
C3079 C3075 1.395 . S
C3079 C3078 1.391 . S
H3080 C3088 0.950 . S
H3081 C3093 0.950 . S
H3082 C3090 0.959 . S
H3083 C3092 0.950 . S
H3084 C3094 0.950 . S
H3085 C3096 0.950 . S
H3086 C3098 0.950 . S
H3087 C3099 0.950 . S
C3088 H3080 0.950 . S
C3088 C3089 1.386 . S
C3088 C3090 1.391 . S
C3089 C3088 1.386 . S
C3089 C3093 1.393 . S
C3090 H3082 0.959 . S
C3090 C3088 1.391 . S
C3090 C3091 1.400 . S
C3091 C3090 1.400 . S
C3091 C3092 1.398 . S
C3091 C3097 1.491 . S
C3092 H3083 0.950 . S
C3092 C3091 1.398 . S
C3092 C3093 1.391 . S
C3093 H3081 0.950 . S
C3093 C3089 1.393 . S
C3093 C3092 1.391 . S
C3094 H3084 0.950 . S
C3094 C3095 1.382 1_455 S
C3094 C3096 1.391 . S
C3095 C3094 1.382 1_655 S
C3095 C3099 1.398 . S
C3096 H3085 0.950 . S
C3096 C3094 1.391 . S
C3096 C3097 1.400 . S
C3097 C3091 1.491 . S
C3097 C3096 1.400 . S
C3097 C3098 1.398 1_455 S
C3098 H3086 0.950 . S
C3098 C3097 1.398 1_655 S
C3098 C3099 1.391 . S
C3099 H3087 0.950 . S
C3099 C3095 1.398 . S
C3099 C3098 1.391 . S
H3100 C3108 0.950 . S
H3101 C3113 0.950 . S
H3102 C3110 0.950 . S
H3103 C3112 0.950 . S
H3104 C3114 0.950 . S
H3105 C3116 0.950 . S
H3106 C3118 0.950 . S
H3107 C3119 0.950 . S
C3108 H3100 0.950 . S
C3108 C3109 1.386 . S
C3108 C3110 1.391 . S
C3109 C3108 1.386 . S
C3109 C3113 1.393 . S
C3110 H3102 0.950 . S
C3110 C3108 1.391 . S
C3110 C3111 1.400 . S
C3111 C3110 1.400 . S
C3111 C3112 1.398 . S
C3111 C3117 1.491 . S
C3112 H3103 0.950 . S
C3112 C3111 1.398 . S
C3112 C3113 1.391 . S
C3113 H3101 0.950 . S
C3113 C3109 1.393 . S
C3113 C3112 1.391 . S
C3114 H3104 0.950 . S
C3114 C3115 1.386 . S
C3114 C3116 1.391 . S
C3115 C3114 1.386 . S
C3115 C3119 1.393 . S
C3116 H3105 0.950 . S
C3116 C3114 1.391 . S
C3116 C3117 1.400 . S
C3117 C3111 1.491 . S
C3117 C3116 1.400 . S
C3117 C3118 1.398 . S
C3118 H3106 0.950 . S
C3118 C3117 1.398 . S
C3118 C3119 1.391 . S
C3119 H3107 0.950 . S
C3119 C3115 1.393 . S
C3119 C3118 1.391 . S
H3120 C3128 0.950 . S
H3121 C3133 0.950 . S
H3122 C3130 0.950 . S
H3123 C3132 0.950 . S
H3124 C3134 0.950 . S
H3125 C3136 0.950 . S
H3126 C3138 0.950 . S
H3127 C3139 0.950 . S
C3128 H3120 0.950 . S
C3128 C3129 1.386 . S
C3128 C3130 1.391 . S
C3129 C3128 1.386 . S
C3129 C3133 1.393 . S
C3130 H3122 0.950 . S
C3130 C3128 1.391 . S
C3130 C3131 1.400 . S
C3131 C3130 1.400 . S
C3131 C3132 1.398 . S
C3131 C3137 1.491 . S
C3132 H3123 0.950 . S
C3132 C3131 1.398 . S
C3132 C3133 1.391 . S
C3133 H3121 0.950 . S
C3133 C3129 1.393 . S
C3133 C3132 1.391 . S
C3134 H3124 0.950 . S
C3134 C3135 1.386 . S
C3134 C3136 1.391 . S
C3135 C3134 1.386 . S
C3135 C3139 1.393 . S
C3136 H3125 0.950 . S
C3136 C3134 1.391 . S
C3136 C3137 1.400 . S
C3137 C3131 1.491 . S
C3137 C3136 1.400 . S
C3137 C3138 1.398 . S
C3138 H3126 0.950 . S
C3138 C3137 1.398 . S
C3138 C3139 1.391 . S
C3139 H3127 0.950 . S
C3139 C3135 1.393 . S
C3139 C3138 1.391 . S
H3140 C3148 0.950 . S
H3141 C3153 0.950 . S
H3142 C3150 0.950 . S
H3143 C3152 0.950 . S
H3144 C3154 0.950 . S
H3145 C3156 0.950 . S
H3146 C3158 0.950 . S
H3147 C3159 0.950 . S
C3148 H3140 0.950 . S
C3148 C3149 1.386 . S
C3148 C3150 1.391 . S
C3149 C3148 1.386 . S
C3149 C3153 1.393 . S
C3150 H3142 0.950 . S
C3150 C3148 1.391 . S
C3150 C3151 1.400 . S
C3151 C3150 1.400 . S
C3151 C3152 1.398 . S
C3151 C3157 1.491 . S
C3152 H3143 0.950 . S
C3152 C3151 1.398 . S
C3152 C3153 1.391 . S
C3153 H3141 0.950 . S
C3153 C3149 1.393 . S
C3153 C3152 1.391 . S
C3154 H3144 0.950 . S
C3154 C3155 1.386 . S
C3154 C3156 1.391 . S
C3155 C3154 1.386 . S
C3155 C3159 1.393 . S
C3156 H3145 0.950 . S
C3156 C3154 1.391 . S
C3156 C3157 1.400 . S
C3157 C3151 1.491 . S
C3157 C3156 1.400 . S
C3157 C3158 1.398 . S
C3158 H3146 0.950 . S
C3158 C3157 1.398 . S
C3158 C3159 1.391 . S
C3159 H3147 0.950 . S
C3159 C3155 1.393 . S
C3159 C3158 1.391 . S
H3160 C3168 0.950 . S
H3161 C3173 0.950 . S
H3162 C3170 0.950 . S
H3163 C3172 0.950 . S
H3164 C3174 0.950 . S
H3165 C3176 0.950 . S
H3166 C3178 0.950 . S
H3167 C3179 0.950 . S
C3168 H3160 0.950 . S
C3168 C3169 1.386 . S
C3168 C3170 1.391 . S
C3169 C3168 1.386 . S
C3169 C3173 1.393 . S
C3170 H3162 0.950 . S
C3170 C3168 1.391 . S
C3170 C3171 1.400 . S
C3171 C3170 1.400 . S
C3171 C3172 1.398 . S
C3171 C3177 1.491 . S
C3172 H3163 0.950 . S
C3172 C3171 1.398 . S
C3172 C3173 1.391 . S
C3173 H3161 0.950 . S
C3173 C3169 1.393 . S
C3173 C3172 1.391 . S
C3174 H3164 0.950 . S
C3174 C3175 1.386 . S
C3174 C3176 1.391 . S
C3175 C3174 1.386 . S
C3175 C3179 1.393 . S
C3176 H3165 0.950 . S
C3176 C3174 1.391 . S
C3176 C3177 1.400 . S
C3177 C3171 1.491 . S
C3177 C3176 1.400 . S
C3177 C3178 1.398 . S
C3178 H3166 0.950 . S
C3178 C3177 1.398 . S
C3178 C3179 1.391 . S
C3179 H3167 0.950 . S
C3179 C3175 1.393 . S
C3179 C3178 1.391 . S
H3180 C3188 0.950 . S
H3181 C3193 0.950 . S
H3182 C3190 0.950 . S
H3183 C3192 0.950 . S
H3184 C3194 0.950 . S
H3185 C3196 0.950 . S
H3186 C3198 0.950 . S
H3187 C3199 0.950 . S
C3188 H3180 0.950 . S
C3188 C3189 1.386 . S
C3188 C3190 1.391 . S
C3189 C3188 1.386 . S
C3189 C3193 1.393 . S
C3190 H3182 0.950 . S
C3190 C3188 1.391 . S
C3190 C3191 1.400 . S
C3191 C3190 1.400 . S
C3191 C3192 1.398 . S
C3191 C3197 1.491 . S
C3192 H3183 0.950 . S
C3192 C3191 1.398 . S
C3192 C3193 1.391 . S
C3193 H3181 0.950 . S
C3193 C3189 1.393 . S
C3193 C3192 1.391 . S
C3194 H3184 0.950 . S
C3194 C3195 1.386 . S
C3194 C3196 1.391 . S
C3195 C3194 1.386 . S
C3195 C3199 1.393 . S
C3196 H3185 0.950 . S
C3196 C3194 1.391 . S
C3196 C3197 1.400 . S
C3197 C3191 1.491 . S
C3197 C3196 1.400 . S
C3197 C3198 1.398 . S
C3198 H3186 0.950 . S
C3198 C3197 1.398 . S
C3198 C3199 1.391 . S
C3199 H3187 0.950 . S
C3199 C3195 1.393 . S
C3199 C3198 1.391 . S
H3200 C3208 0.950 . S
H3201 C3213 0.950 . S
H3202 C3210 0.950 1_455 S
H3203 C3212 0.950 . S
H3204 C3214 0.950 . S
H3205 C3216 0.950 . S
H3206 C3218 0.950 1_455 S
H3207 C3219 0.950 . S
C3208 H3200 0.950 . S
C3208 C3209 1.386 . S
C3208 C3210 1.391 . S
C3209 C3208 1.386 . S
C3209 C3213 1.393 . S
C3210 H3202 0.950 1_655 S
C3210 C3208 1.391 . S
C3210 C3211 1.400 . S
C3211 C3210 1.400 . S
C3211 C3212 1.398 . S
C3211 C3217 1.491 . S
C3212 H3203 0.950 . S
C3212 C3211 1.398 . S
C3212 C3213 1.391 . S
C3213 H3201 0.950 . S
C3213 C3209 1.393 . S
C3213 C3212 1.391 . S
C3214 H3204 0.950 . S
C3214 C3215 1.386 . S
C3214 C3216 1.391 . S
C3215 C3214 1.386 . S
C3215 C3219 1.393 1_655 S
C3216 H3205 0.950 . S
C3216 C3214 1.391 . S
C3216 C3217 1.400 . S
C3217 C3211 1.491 . S
C3217 C3216 1.400 . S
C3217 C3218 1.398 . S
C3218 H3206 0.950 1_655 S
C3218 C3217 1.398 . S
C3218 C3219 1.391 1_655 S
C3219 H3207 0.950 . S
C3219 C3215 1.393 1_455 S
C3219 C3218 1.391 1_455 S
H3220 C3228 0.950 . S
H3221 C3233 0.950 . S
H3222 C3230 0.950 . S
H3223 C3232 0.950 . S
H3224 C3234 0.950 . S
H3225 C3236 0.950 . S
H3226 C3238 0.950 . S
H3227 C3239 0.950 . S
C3228 H3220 0.950 . S
C3228 C3229 1.386 . S
C3228 C3230 1.391 . S
C3229 C3228 1.386 . S
C3229 C3233 1.393 . S
C3230 H3222 0.950 . S
C3230 C3228 1.391 . S
C3230 C3231 1.400 . S
C3231 C3230 1.400 . S
C3231 C3232 1.398 . S
C3231 C3237 1.491 . S
C3232 H3223 0.950 . S
C3232 C3231 1.398 . S
C3232 C3233 1.391 . S
C3233 H3221 0.950 . S
C3233 C3229 1.393 . S
C3233 C3232 1.391 . S
C3234 H3224 0.950 . S
C3234 C3235 1.386 . S
C3234 C3236 1.391 . S
C3235 C3234 1.386 . S
C3235 C3239 1.393 . S
C3236 H3225 0.950 . S
C3236 C3234 1.391 . S
C3236 C3237 1.400 . S
C3237 C3231 1.491 . S
C3237 C3236 1.400 . S
C3237 C3238 1.398 . S
C3238 H3226 0.950 . S
C3238 C3237 1.398 . S
C3238 C3239 1.391 . S
C3239 H3227 0.950 . S
C3239 C3235 1.393 . S
C3239 C3238 1.391 . S
H3240 C3248 0.950 . S
H3241 C3253 0.950 . S
H3242 C3250 0.950 . S
H3243 C3252 0.950 . S
H3244 C3254 0.950 . S
H3245 C3256 0.950 . S
H3246 C3258 0.950 . S
H3247 C3259 0.950 . S
C3248 H3240 0.950 . S
C3248 C3249 1.386 . S
C3248 C3250 1.391 . S
C3249 C3248 1.386 . S
C3249 C3253 1.393 . S
C3250 H3242 0.950 . S
C3250 C3248 1.391 . S
C3250 C3251 1.400 . S
C3251 C3250 1.400 . S
C3251 C3252 1.398 . S
C3251 C3257 1.491 . S
C3252 H3243 0.950 . S
C3252 C3251 1.398 . S
C3252 C3253 1.391 . S
C3253 H3241 0.950 . S
C3253 C3249 1.393 . S
C3253 C3252 1.391 . S
C3254 H3244 0.950 . S
C3254 C3255 1.386 . S
C3254 C3256 1.391 . S
C3255 C3254 1.386 . S
C3255 C3259 1.393 . S
C3256 H3245 0.950 . S
C3256 C3254 1.391 . S
C3256 C3257 1.400 . S
C3257 C3251 1.491 . S
C3257 C3256 1.400 . S
C3257 C3258 1.398 . S
C3258 H3246 0.950 . S
C3258 C3257 1.398 . S
C3258 C3259 1.391 . S
C3259 H3247 0.950 . S
C3259 C3255 1.393 . S
C3259 C3258 1.391 . S
H3260 C3268 0.950 . S
H3261 C3273 0.950 . S
H3262 C3270 0.950 . S
H3263 C3272 0.950 . S
H3264 C3274 0.950 . S
H3265 C3276 0.950 . S
H3266 C3278 0.950 . S
H3267 C3279 0.950 . S
C3268 H3260 0.950 . S
C3268 C3269 1.386 . S
C3268 C3270 1.391 . S
C3269 C3268 1.386 . S
C3269 C3273 1.393 . S
C3270 H3262 0.950 . S
C3270 C3268 1.391 . S
C3270 C3271 1.400 . S
C3271 C3270 1.400 . S
C3271 C3272 1.398 . S
C3271 C3277 1.491 . S
C3272 H3263 0.950 . S
C3272 C3271 1.398 . S
C3272 C3273 1.391 . S
C3273 H3261 0.950 . S
C3273 C3269 1.393 . S
C3273 C3272 1.391 . S
C3274 H3264 0.950 . S
C3274 C3275 1.386 . S
C3274 C3276 1.391 . S
C3275 C3274 1.386 . S
C3275 C3279 1.393 . S
C3276 H3265 0.950 . S
C3276 C3274 1.391 . S
C3276 C3277 1.400 . S
C3277 C3271 1.491 . S
C3277 C3276 1.400 . S
C3277 C3278 1.398 . S
C3278 H3266 0.950 . S
C3278 C3277 1.398 . S
C3278 C3279 1.391 . S
C3279 H3267 0.950 . S
C3279 C3275 1.393 . S
C3279 C3278 1.391 . S
H3280 C3288 0.950 . S
H3281 C3293 0.950 . S
H3282 C3290 0.950 . S
H3283 C3292 0.950 . S
H3284 C3294 0.950 . S
H3285 C3296 0.950 . S
H3286 C3298 0.950 . S
H3287 C3299 0.950 . S
C3288 H3280 0.950 . S
C3288 C3289 1.386 . S
C3288 C3290 1.391 . S
C3289 C3288 1.386 . S
C3289 C3293 1.393 . S
C3290 H3282 0.950 . S
C3290 C3288 1.391 . S
C3290 C3291 1.400 . S
C3291 C3290 1.400 . S
C3291 C3292 1.398 . S
C3291 C3297 1.491 . S
C3292 H3283 0.950 . S
C3292 C3291 1.398 . S
C3292 C3293 1.391 . S
C3293 H3281 0.950 . S
C3293 C3289 1.393 . S
C3293 C3292 1.391 . S
C3294 H3284 0.950 . S
C3294 C3295 1.386 . S
C3294 C3296 1.391 . S
C3295 C3294 1.386 . S
C3295 C3299 1.393 . S
C3296 H3285 0.950 . S
C3296 C3294 1.391 . S
C3296 C3297 1.400 . S
C3297 C3291 1.491 . S
C3297 C3296 1.400 . S
C3297 C3298 1.398 . S
C3298 H3286 0.950 . S
C3298 C3297 1.398 . S
C3298 C3299 1.391 . S
C3299 H3287 0.950 . S
C3299 C3295 1.393 . S
C3299 C3298 1.391 . S
H3300 C3308 0.950 . S
H3301 C3313 0.950 . S
H3302 C3310 0.950 . S
H3303 C3312 0.950 . S
H3304 C3314 0.950 . S
H3305 C3316 0.950 . S
H3306 C3318 0.950 . S
H3307 C3319 0.950 . S
C3308 H3300 0.950 . S
C3308 C3309 1.386 . S
C3308 C3310 1.391 . S
C3309 C3308 1.386 . S
C3309 C3313 1.393 . S
C3310 H3302 0.950 . S
C3310 C3308 1.391 . S
C3310 C3311 1.400 . S
C3311 C3310 1.400 . S
C3311 C3312 1.398 . S
C3311 C3317 1.491 . S
C3312 H3303 0.950 . S
C3312 C3311 1.398 . S
C3312 C3313 1.391 . S
C3313 H3301 0.950 . S
C3313 C3309 1.393 . S
C3313 C3312 1.391 . S
C3314 H3304 0.950 . S
C3314 C3315 1.386 . S
C3314 C3316 1.391 . S
C3315 C3314 1.386 . S
C3315 C3319 1.393 . S
C3316 H3305 0.950 . S
C3316 C3314 1.391 . S
C3316 C3317 1.400 . S
C3317 C3311 1.491 . S
C3317 C3316 1.400 . S
C3317 C3318 1.398 . S
C3318 H3306 0.950 . S
C3318 C3317 1.398 . S
C3318 C3319 1.391 . S
C3319 H3307 0.950 . S
C3319 C3315 1.393 . S
C3319 C3318 1.391 . S
H3320 C3328 0.950 . S
H3321 C3333 0.950 . S
H3322 C3330 0.950 . S
H3323 C3332 0.950 . S
H3324 C3334 0.950 . S
H3325 C3336 0.950 . S
H3326 C3338 0.950 . S
H3327 C3339 0.950 . S
C3328 H3320 0.950 . S
C3328 C3329 1.386 . S
C3328 C3330 1.391 . S
C3329 C3328 1.386 . S
C3329 C3333 1.393 . S
C3330 H3322 0.950 . S
C3330 C3328 1.391 . S
C3330 C3331 1.400 . S
C3331 C3330 1.400 . S
C3331 C3332 1.398 . S
C3331 C3337 1.491 . S
C3332 H3323 0.950 . S
C3332 C3331 1.398 . S
C3332 C3333 1.391 . S
C3333 H3321 0.950 . S
C3333 C3329 1.393 . S
C3333 C3332 1.391 . S
C3334 H3324 0.950 . S
C3334 C3335 1.386 . S
C3334 C3336 1.391 . S
C3335 C3334 1.386 . S
C3335 C3339 1.393 . S
C3336 H3325 0.950 . S
C3336 C3334 1.391 . S
C3336 C3337 1.400 . S
C3337 C3331 1.491 . S
C3337 C3336 1.400 . S
C3337 C3338 1.398 . S
C3338 H3326 0.950 . S
C3338 C3337 1.398 . S
C3338 C3339 1.391 . S
C3339 H3327 0.950 . S
C3339 C3335 1.393 . S
C3339 C3338 1.391 . S
H3340 C3348 0.950 . S
H3341 C3353 0.950 . S
H3342 C3350 0.950 . S
H3343 C3352 0.950 . S
H3344 C3354 0.950 . S
H3345 C3356 0.950 . S
H3346 C3358 0.950 . S
H3347 C3359 0.950 . S
C3348 H3340 0.950 . S
C3348 C3349 1.386 . S
C3348 C3350 1.391 . S
C3349 C3348 1.386 . S
C3349 C3353 1.393 . S
C3350 H3342 0.950 . S
C3350 C3348 1.391 . S
C3350 C3351 1.400 . S
C3351 C3350 1.400 . S
C3351 C3352 1.398 . S
C3351 C3357 1.491 . S
C3352 H3343 0.950 . S
C3352 C3351 1.398 . S
C3352 C3353 1.391 . S
C3353 H3341 0.950 . S
C3353 C3349 1.393 . S
C3353 C3352 1.391 . S
C3354 H3344 0.950 . S
C3354 C3355 1.386 . S
C3354 C3356 1.391 . S
C3355 C3354 1.386 . S
C3355 C3359 1.393 . S
C3356 H3345 0.950 . S
C3356 C3354 1.391 . S
C3356 C3357 1.400 . S
C3357 C3351 1.491 . S
C3357 C3356 1.400 . S
C3357 C3358 1.398 . S
C3358 H3346 0.950 . S
C3358 C3357 1.398 . S
C3358 C3359 1.391 . S
C3359 H3347 0.950 . S
C3359 C3355 1.393 . S
C3359 C3358 1.391 . S
H3360 C3368 0.950 . S
H3361 C3373 0.950 . S
H3362 C3370 0.950 1_455 S
H3363 C3372 0.950 . S
H3364 C3374 0.950 . S
H3365 C3376 0.950 . S
H3366 C3378 0.950 . S
H3367 C3379 0.950 . S
C3368 H3360 0.950 . S
C3368 C3369 1.386 . S
C3368 C3370 1.391 . S
C3369 C3368 1.386 . S
C3369 C3373 1.393 . S
C3370 H3362 0.950 1_655 S
C3370 C3368 1.391 . S
C3370 C3371 1.400 . S
C3371 C3370 1.400 . S
C3371 C3372 1.398 . S
C3371 C3377 1.491 . S
C3372 H3363 0.950 . S
C3372 C3371 1.398 . S
C3372 C3373 1.391 . S
C3373 H3361 0.950 . S
C3373 C3369 1.393 . S
C3373 C3372 1.391 . S
C3374 H3364 0.950 . S
C3374 C3375 1.386 . S
C3374 C3376 1.391 . S
C3375 C3374 1.386 . S
C3375 C3379 1.393 1_655 S
C3376 H3365 0.950 . S
C3376 C3374 1.391 . S
C3376 C3377 1.400 . S
C3377 C3371 1.491 . S
C3377 C3376 1.400 . S
C3377 C3378 1.398 1_655 S
C3378 H3366 0.950 . S
C3378 C3377 1.398 1_455 S
C3378 C3379 1.391 . S
C3379 H3367 0.950 . S
C3379 C3375 1.393 1_455 S
C3379 C3378 1.391 . S
H3380 C3388 0.950 . S
H3381 C3393 0.950 . S
H3382 C3390 0.950 . S
H3383 C3392 0.950 . S
H3384 C3394 0.950 . S
H3385 C3396 0.950 . S
H3386 C3398 0.950 . S
H3387 C3399 0.950 . S
C3388 H3380 0.950 . S
C3388 C3389 1.386 . S
C3388 C3390 1.391 . S
C3389 C3388 1.386 . S
C3389 C3393 1.393 . S
C3390 H3382 0.950 . S
C3390 C3388 1.391 . S
C3390 C3391 1.400 . S
C3391 C3390 1.400 . S
C3391 C3392 1.398 . S
C3391 C3397 1.491 . S
C3392 H3383 0.950 . S
C3392 C3391 1.398 . S
C3392 C3393 1.391 . S
C3393 H3381 0.950 . S
C3393 C3389 1.393 . S
C3393 C3392 1.391 . S
C3394 H3384 0.950 . S
C3394 C3395 1.386 . S
C3394 C3396 1.391 . S
C3395 C3394 1.386 . S
C3395 C3399 1.393 . S
C3396 H3385 0.950 . S
C3396 C3394 1.391 . S
C3396 C3397 1.400 . S
C3397 C3391 1.491 . S
C3397 C3396 1.400 . S
C3397 C3398 1.398 . S
C3398 H3386 0.950 . S
C3398 C3397 1.398 . S
C3398 C3399 1.391 . S
C3399 H3387 0.950 . S
C3399 C3395 1.393 . S
C3399 C3398 1.391 . S
H3400 C3408 0.950 . S
H3401 C3413 0.950 . S
H3402 C3410 0.950 . S
H3403 C3412 0.950 . S
H3404 C3414 0.950 1_565 S
H3405 C3416 0.950 . S
H3406 C3418 0.950 . S
H3407 C3419 0.950 . S
C3408 H3400 0.950 . S
C3408 C3409 1.386 . S
C3408 C3410 1.391 . S
C3409 C3408 1.386 . S
C3409 C3413 1.393 . S
C3410 H3402 0.950 . S
C3410 C3408 1.391 . S
C3410 C3411 1.400 . S
C3411 C3410 1.400 . S
C3411 C3412 1.398 . S
C3411 C3417 1.491 . S
C3412 H3403 0.950 . S
C3412 C3411 1.398 . S
C3412 C3413 1.391 . S
C3413 H3401 0.950 . S
C3413 C3409 1.393 . S
C3413 C3412 1.391 . S
C3414 H3404 0.950 1_545 S
C3414 C3415 1.386 . S
C3414 C3416 1.391 . S
C3415 C3414 1.386 . S
C3415 C3419 1.393 . S
C3416 H3405 0.950 . S
C3416 C3414 1.391 . S
C3416 C3417 1.400 . S
C3417 C3411 1.491 . S
C3417 C3416 1.400 . S
C3417 C3418 1.398 . S
C3418 H3406 0.950 . S
C3418 C3417 1.398 . S
C3418 C3419 1.391 . S
C3419 H3407 0.950 . S
C3419 C3415 1.393 . S
C3419 C3418 1.391 . S
C1989 C4 1.193 1_655 S
C1995 C1377 1.162 . S
C2009 C38 1.742 . S
C2015 C1457 1.707 . S
C2035 C1525 1.278 . S
C2029 C74 1.314 . S
C2049 C76 1.644 . S
C2055 C1605 1.657 . S
C2069 C2 1.537 . S
C2075 C1679 1.567 . S
C2089 C40 1.602 . S
C2095 C1747 1.532 . S
C2109 C110 1.156 . S
C2115 C1673 1.128 . S
C2135 C1753 1.431 . S
C2129 C148 1.427 . S
C2155 C1599 1.325 . S
C2149 C182 1.351 1_565 S
C2169 C184 1.667 . S
C2175 C1531 1.736 1_545 S
C2195 C1383 1.433 1_655 S
C2189 C112 1.413 . S
C2209 C146 1.489 . S
C2215 C1451 1.474 . S
C2229 C220 1.490 . S
C2235 C1821 1.386 . S
C2249 C254 1.801 . S
C2255 C1901 1.722 . S
C2275 C1969 1.548 . S
C2269 C290 1.640 . S
C2289 C292 1.828 . S
C2295 C717 1.780 . S
C2309 C218 1.810 . S
C2315 C791 1.750 . S
C2329 C256 1.625 . S
C2335 C859 1.550 . S
C2349 C326 1.257 . S
C2355 C785 1.216 . S
C2369 C364 1.497 . S
C2375 C865 1.505 . S
C2395 C711 1.491 . S
C2389 C398 1.489 . S
C2415 C1975 1.849 . S
C2409 C400 1.839 . S
C2435 C1827 1.465 . S
C2429 C328 1.475 . S
C2455 C1895 1.524 . S
C2449 C362 1.548 . S
C2469 C436 1.385 . S
C2475 C933 1.277 . S
C2489 C470 1.815 . S
C2495 C1013 1.736 . S
C2509 C506 1.660 . S
C2515 C1081 1.559 . S
C2529 C508 1.926 . S
C2535 C1161 1.878 . S
C2555 C1235 1.724 . S
C2549 C434 1.794 . S
C2575 C1303 1.551 . S
C2569 C472 1.662 . S
C2595 C1229 1.344 . S
C2589 C542 1.373 . S
C2615 C1309 1.476 . S
C2609 C580 1.480 . S
C2629 C614 1.433 . S
C2635 C1155 1.417 . S
C2655 C1087 1.730 . S
C2649 C616 1.730 . S
C2669 C544 1.510 . S
C2675 C939 1.516 . S
C2695 C1007 1.494 . S
C2689 C578 1.513 . S
C2715 C687 2.004 . S
C2709 C14 2.009 . S
C2729 C39 1.486 . S
C2735 C761 1.479 . S
C2755 C847 1.476 . S
C2749 C75 1.492 . S
C2775 C921 1.175 . S
C2769 C86 1.193 . S
C2795 C983 1.619 . S
C2789 C3 1.640 1_556 S
C2815 C1069 1.597 . S
C2809 C50 1.564 . S
C2829 C111 2.134 . S
C2835 C1057 2.046 . S
C2849 C158 1.656 . S
C2855 C909 1.550 . S
C2869 C183 1.843 . S
C2875 C995 1.801 . S
C2889 C194 1.598 . S
C2895 C773 1.494 . S
C2915 C835 1.719 . S
C2909 C122 1.803 . S
C2929 C147 1.715 . S
C2935 C699 1.673 . S
C2955 C1131 1.933 . S
C2949 C230 1.933 . S
C2969 C255 1.632 1_545 S
C2975 C1205 1.616 . S
C2989 C291 1.544 1_655 S
C2995 C1291 1.529 . S
C3015 C1365 1.012 . S
C3009 C302 1.021 . S
C3029 C219 1.559 . S
C3035 C1427 1.547 . S
C3049 C266 1.406 . S
C3055 C1513 1.454 . S
C3069 C327 1.754 . S
C3075 C1501 1.683 1_565 S
C3089 C374 1.356 . S
C3095 C1353 1.326 . S
C3115 C1439 1.719 . S
C3109 C399 1.774 . S
C3129 C410 1.572 . S
C3135 C1217 1.504 . S
C3149 C338 1.817 1_545 S
C3155 C1279 1.745 . S
C3175 C1143 1.770 . S
C3169 C363 1.819 1_655 S
C3195 C1575 1.787 . S
C3189 C446 1.738 . S
C3209 C471 1.302 . S
C3215 C1649 1.303 . S
C3229 C507 1.435 . S
C3235 C1735 1.425 . S
C3255 C1809 1.192 . S
C3249 C518 1.198 . S
C3275 C1871 1.663 . S
C3269 C435 1.678 1_565 S
C3289 C482 1.657 1_455 S
C3295 C1957 1.695 . S
C3309 C543 2.065 . S
C3315 C1945 1.964 . S
C3329 C590 1.777 1_565 S
C3335 C1797 1.709 . S
C3355 C1883 1.809 . S
C3349 C615 1.867 1_455 S
C3375 C1661 1.161 . S
C3369 C626 1.158 . S
C3395 C1723 1.649 . S
C3389 C554 1.727 . S
C3409 C579 1.453 . S
C3415 C1587 1.425 . S
