# Generated by pormake.
# Topology pyr, (3,6)-cn, num edge types: 1
# Building blocks:
#     Node 0, Type 0, BuildingBlock: BELTOD_clean_linker_0, # of connection points: 3
#     Node 1, Type 0, BuildingBlock: BELTOD_clean_linker_0, # of connection points: 3
#     Node 2, Type 0, BuildingBlock: BELTOD_clean_linker_0, # of connection points: 3
#     Node 3, Type 0, BuildingBlock: BELTOD_clean_linker_0, # of connection points: 3
#     Node 4, Type 0, BuildingBlock: BELTOD_clean_linker_0, # of connection points: 3
#     Node 5, Type 0, BuildingBlock: BELTOD_clean_linker_0, # of connection points: 3
#     Node 6, Type 0, BuildingBlock: BELTOD_clean_linker_0, # of connection points: 3
#     Node 7, Type 0, BuildingBlock: BELTOD_clean_linker_0, # of connection points: 3
#     Node 8, Type 1, BuildingBlock: VOLQOD_clean_sbu_1, # of connection points: 6
#     Node 9, Type 1, BuildingBlock: VOLQOD_clean_sbu_1, # of connection points: 6
#     Node 10, Type 1, BuildingBlock: VOLQOD_clean_sbu_1, # of connection points: 6
#     Node 11, Type 1, BuildingBlock: VOLQOD_clean_sbu_1, # of connection points: 6
#     Edge 12, Type (0, 1), BuildingBlock: OJICUG_clean_linker_0, # of connection points: 2
#     Edge 13, Type (0, 1), BuildingBlock: OJICUG_clean_linker_0, # of connection points: 2
#     Edge 14, Type (0, 1), BuildingBlock: OJICUG_clean_linker_0, # of connection points: 2
#     Edge 15, Type (0, 1), BuildingBlock: OJICUG_clean_linker_0, # of connection points: 2
#     Edge 16, Type (0, 1), BuildingBlock: OJICUG_clean_linker_0, # of connection points: 2
#     Edge 17, Type (0, 1), BuildingBlock: OJICUG_clean_linker_0, # of connection points: 2
#     Edge 18, Type (0, 1), BuildingBlock: OJICUG_clean_linker_0, # of connection points: 2
#     Edge 19, Type (0, 1), BuildingBlock: OJICUG_clean_linker_0, # of connection points: 2
#     Edge 20, Type (0, 1), BuildingBlock: OJICUG_clean_linker_0, # of connection points: 2
#     Edge 21, Type (0, 1), BuildingBlock: OJICUG_clean_linker_0, # of connection points: 2
#     Edge 22, Type (0, 1), BuildingBlock: OJICUG_clean_linker_0, # of connection points: 2
#     Edge 23, Type (0, 1), BuildingBlock: OJICUG_clean_linker_0, # of connection points: 2
#     Edge 24, Type (0, 1), BuildingBlock: OJICUG_clean_linker_0, # of connection points: 2
#     Edge 25, Type (0, 1), BuildingBlock: OJICUG_clean_linker_0, # of connection points: 2
#     Edge 26, Type (0, 1), BuildingBlock: OJICUG_clean_linker_0, # of connection points: 2
#     Edge 27, Type (0, 1), BuildingBlock: OJICUG_clean_linker_0, # of connection points: 2
#     Edge 28, Type (0, 1), BuildingBlock: OJICUG_clean_linker_0, # of connection points: 2
#     Edge 29, Type (0, 1), BuildingBlock: OJICUG_clean_linker_0, # of connection points: 2
#     Edge 30, Type (0, 1), BuildingBlock: OJICUG_clean_linker_0, # of connection points: 2
#     Edge 31, Type (0, 1), BuildingBlock: OJICUG_clean_linker_0, # of connection points: 2
#     Edge 32, Type (0, 1), BuildingBlock: OJICUG_clean_linker_0, # of connection points: 2
#     Edge 33, Type (0, 1), BuildingBlock: OJICUG_clean_linker_0, # of connection points: 2
#     Edge 34, Type (0, 1), BuildingBlock: OJICUG_clean_linker_0, # of connection points: 2
#     Edge 35, Type (0, 1), BuildingBlock: OJICUG_clean_linker_0, # of connection points: 2
# Relax obj value: 0.036
# Max RMSD: 0.117
# Mean RMSD: 0.050
data_MOF--net-pry--node1-VOLQOD_clean_sbu_1--node2-BELTOD_clean_linker_0--edge1-OJICUG_clean_linker_0
_symmetry_space_group_name_H-M    P1
_symmetry_Int_Tables_number       1
_symmetry_cell_setting            triclinic
loop_
_symmetry_equiv_pos_as_xyz
'x, y, z'
_cell_length_a     32.496704
_cell_length_b     32.849383
_cell_length_c     32.44013
_cell_angle_alpha  89.897344
_cell_angle_beta   90.506394
_cell_angle_gamma 90.191461
loop_
_atom_site_label
_atom_site_type_symbol
_atom_site_fract_x
_atom_site_fract_y
_atom_site_fract_z
_atom_type_partial_charge
P0 P 0.16441 0.16053 0.15595 0.0
H1 H 0.22692 0.18132 0.09645 0.0
H2 H 0.27601 0.1402 0.05841 0.0
H3 H 0.21574 0.0307 0.10113 0.0
H4 H 0.16644 0.07217 0.13901 0.0
H5 H 0.11089 0.22312 0.18706 0.0
H6 H 0.07039 0.27608 0.1534 0.0
H7 H 0.09953 0.22513 0.03447 0.0
H8 H 0.14015 0.17197 0.06855 0.0
H9 H 0.2 0.10896 0.21869 0.0
H10 H 0.07793 0.14415 0.17974 0.0
O11 O 0.19817 0.19086 0.17998 0.0
H12 H 0.17129 0.07321 0.27778 0.0
H13 H 0.049 0.10987 0.24001 0.0
C14 C 0.19362 0.12981 0.12108 0.0
C15 C 0.2237 0.14848 0.09685 0.0
C16 C 0.2516 0.12491 0.07496 0.0
C17 C 0.24994 0.08218 0.07711 0.0
C18 C 0.21804 0.06356 0.09937 0.0
C19 C 0.18986 0.08726 0.121 0.0
C20 C 0.12846 0.19367 0.13037 0.0
C21 C 0.10775 0.22276 0.15378 0.0
C22 C 0.08447 0.25294 0.13447 0.0
C23 C 0.0818 0.25482 0.09123 0.0
C24 C 0.10131 0.2246 0.06782 0.0
C25 C 0.12442 0.19414 0.0873 0.0
C26 C 0.14122 0.12985 0.1954 0.0
C27 C 0.16694 0.10878 0.2228 0.0
C28 C 0.1505 0.08855 0.25665 0.0
C29 C 0.10794 0.08945 0.26405 0.0
C30 C 0.0819 0.10863 0.23515 0.0
C31 C 0.09846 0.12862 0.20091 0.0
P32 P 0.43201 0.91369 0.5859 0.0
H33 H 0.50495 0.89808 0.63667 0.0
H34 H 0.52133 0.91173 0.70917 0.0
H35 H 0.40305 0.96989 0.72294 0.0
H36 H 0.38792 0.95792 0.65064 0.0
H37 H 0.44959 0.87095 0.50953 0.0
H38 H 0.45891 0.79867 0.4935 0.0
H39 H 0.44381 0.76884 0.62225 0.0
H40 H 0.43421 0.8408 0.63796 0.0
H41 H 0.38566 0.96754 0.53041 0.0
H42 H 0.35964 0.87558 0.62162 0.0
O43 O 0.45955 0.94336 0.55466 0.0
H44 H 0.3121 0.97963 0.52123 0.0
H45 H 0.28599 0.88847 0.61385 0.0
C46 C 0.44485 0.92602 0.63851 0.0
C47 C 0.48273 0.91395 0.65538 0.0
C48 C 0.49189 0.92151 0.69687 0.0
C49 C 0.46333 0.94154 0.72205 0.0
C50 C 0.42593 0.95467 0.70448 0.0
C51 C 0.41699 0.94735 0.66305 0.0
C52 C 0.44257 0.86125 0.57506 0.0
C53 C 0.4489 0.84884 0.53433 0.0
C54 C 0.45383 0.80761 0.52517 0.0
C55 C 0.4524 0.77828 0.55672 0.0
C56 C 0.44581 0.7909 0.59748 0.0
C57 C 0.44049 0.83203 0.6065 0.0
C58 C 0.37795 0.9208 0.57677 0.0
C59 C 0.36408 0.9499 0.54841 0.0
C60 C 0.32199 0.95698 0.54346 0.0
C61 C 0.2931 0.93532 0.56716 0.0
C62 C 0.30728 0.9054 0.59483 0.0
C63 C 0.34937 0.89811 0.59944 0.0
P64 P 0.64878 0.35667 0.85583 0.0
H65 H 0.71617 0.32973 0.90739 0.0
H66 H 0.76592 0.3658 0.95059 0.0
H67 H 0.70049 0.47833 0.9289 0.0
H68 H 0.65096 0.44187 0.88516 0.0
H69 H 0.61155 0.28344 0.82281 0.0
H70 H 0.57559 0.22629 0.85467 0.0
H71 H 0.58548 0.28548 0.97327 0.0
H72 H 0.62169 0.34264 0.94105 0.0
H73 H 0.66552 0.42028 0.79654 0.0
H74 H 0.55838 0.36514 0.8513 0.0
O75 O 0.68053 0.33516 0.82216 0.0
H76 H 0.62156 0.45673 0.7478 0.0
H77 H 0.51407 0.40166 0.8026 0.0
C78 C 0.6804 0.38323 0.89266 0.0
C79 C 0.71219 0.36205 0.91249 0.0
C80 C 0.7404 0.38271 0.93748 0.0
C81 C 0.73727 0.42503 0.94306 0.0
C82 C 0.70398 0.44582 0.92477 0.0
C83 C 0.67565 0.42501 0.89978 0.0
C84 C 0.62017 0.31652 0.87981 0.0
C85 C 0.60582 0.28413 0.85564 0.0
C86 C 0.58488 0.25176 0.87381 0.0
C87 C 0.5779 0.25139 0.91649 0.0
C88 C 0.5909 0.2848 0.94038 0.0
C89 C 0.61167 0.31735 0.92206 0.0
C90 C 0.61529 0.38962 0.82699 0.0
C91 C 0.63244 0.41679 0.79865 0.0
C92 C 0.6072 0.4378 0.771 0.0
C93 C 0.56431 0.43182 0.77121 0.0
C94 C 0.54703 0.40647 0.80145 0.0
C95 C 0.57238 0.38561 0.8293 0.0
P96 P 0.83511 0.65222 0.37588 0.0
H97 H 0.85201 0.7351 0.35112 0.0
H98 H 0.89502 0.7886 0.38002 0.0
H99 H 0.93222 0.708 0.47907 0.0
H100 H 0.88736 0.65461 0.45031 0.0
H101 H 0.81173 0.60144 0.30683 0.0
H102 H 0.85136 0.56573 0.25477 0.0
H103 H 0.96423 0.6013 0.3166 0.0
H104 H 0.92425 0.63726 0.36859 0.0
H105 H 0.78105 0.67233 0.44291 0.0
H106 H 0.83244 0.5635 0.39017 0.0
O107 O 0.79798 0.67474 0.34833 0.0
H108 H 0.73166 0.63125 0.48081 0.0
H109 H 0.78351 0.52204 0.42853 0.0
C110 C 0.86595 0.69135 0.3991 0.0
C111 C 0.86907 0.72901 0.37927 0.0
C112 C 0.89423 0.75941 0.39556 0.0
C113 C 0.91748 0.75245 0.43166 0.0
C114 C 0.91448 0.71439 0.45141 0.0
C115 C 0.8889 0.68394 0.4351 0.0
C116 C 0.86509 0.62268 0.34087 0.0
C117 C 0.845 0.60123 0.30936 0.0
C118 C 0.86768 0.58047 0.27992 0.0
C119 C 0.91092 0.58085 0.2816 0.0
C120 C 0.93095 0.60089 0.31438 0.0
C121 C 0.90812 0.62148 0.34403 0.0
C122 C 0.8099 0.62105 0.41338 0.0
C123 C 0.78267 0.63947 0.44072 0.0
C124 C 0.75455 0.61584 0.46252 0.0
C125 C 0.75327 0.57336 0.45716 0.0
C126 C 0.78331 0.55475 0.43269 0.0
C127 C 0.81139 0.57848 0.41081 0.0
P128 P 0.93678 0.93694 0.94706 0.0
H129 H 0.88994 0.96157 0.01928 0.0
H130 H 0.81601 0.96754 0.03176 0.0
H131 H 0.79109 0.93523 0.90484 0.0
H132 H 0.86461 0.92828 0.89301 0.0
H133 H 0.00504 0.89463 0.98856 0.0
H134 H 0.01858 0.82237 0.0015 0.0
H135 H 0.90239 0.79159 0.9432 0.0
H136 H 0.89033 0.86289 0.92872 0.0
H137 H 0.90994 -0.00012 0.88918 0.0
H138 H 0.99502 0.89942 0.88993 0.0
O139 O 0.96445 0.96666 0.9785 0.0
H140 H 0.92251 0.01078 0.81616 0.0
H141 H 0.01001 0.91172 0.81752 0.0
C142 C 0.88279 0.94568 0.95496 0.0
C143 C 0.86852 0.95637 0.99406 0.0
C144 C 0.8263 0.9597 0.00113 0.0
C145 C 0.79772 0.95192 0.96924 0.0
C146 C 0.81226 0.94106 0.93014 0.0
C147 C 0.85437 0.93776 0.92316 0.0
C148 C 0.9463 0.88422 0.95845 0.0
C149 C 0.9825 0.87222 0.97879 0.0
C150 C 0.9901 0.83094 0.98628 0.0
C151 C 0.96155 0.80111 0.97342 0.0
C152 C 0.92538 0.81355 0.953 0.0
C153 C 0.91812 0.85459 0.94518 0.0
C154 C 0.95034 0.94791 0.89455 0.0
C155 C 0.93162 0.98035 0.87364 0.0
C156 C 0.93926 0.98682 0.83186 0.0
C157 C 0.9669 0.96175 0.8105 0.0
C158 C 0.98754 0.93081 0.83246 0.0
C159 C 0.97924 0.92392 0.87408 0.0
P160 P 0.63276 0.13511 0.39096 0.0
H161 H 0.64786 0.18513 0.4633 0.0
H162 H 0.60575 0.23812 0.49443 0.0
H163 H 0.50109 0.1978 0.42253 0.0
H164 H 0.54257 0.14376 0.39276 0.0
H165 H 0.69956 0.09047 0.35578 0.0
H166 H 0.75911 0.05673 0.38567 0.0
H167 H 0.70891 0.07341 0.50749 0.0
H168 H 0.64918 0.10788 0.47696 0.0
H169 H 0.5903 0.16721 0.31965 0.0
H170 H 0.61419 0.04872 0.37197 0.0
O171 O 0.66008 0.17226 0.36902 0.0
H172 H 0.561 0.13542 0.25814 0.0
H173 H 0.58526 0.01651 0.30965 0.0
C174 C 0.59852 0.16048 0.42563 0.0
C175 C 0.6153 0.18614 0.45596 0.0
C176 C 0.59126 0.21651 0.47364 0.0
C177 C 0.55041 0.22206 0.46049 0.0
C178 C 0.53259 0.194 0.43304 0.0
C179 C 0.55643 0.16315 0.41597 0.0
C180 C 0.67024 0.10197 0.41413 0.0
C181 C 0.70087 0.08601 0.38887 0.0
C182 C 0.7349 0.06651 0.40608 0.0
C183 C 0.739 0.06255 0.44908 0.0
C184 C 0.70695 0.07654 0.4743 0.0
C185 C 0.67272 0.09613 0.45689 0.0
C186 C 0.60537 0.1103 0.34969 0.0
C187 C 0.58882 0.1343 0.31803 0.0
C188 C 0.57202 0.11614 0.28301 0.0
C189 C 0.57154 0.07358 0.27902 0.0
C190 C 0.58534 0.04939 0.31209 0.0
C191 C 0.60216 0.06774 0.34743 0.0
P192 P 0.42589 0.57316 0.07984 0.0
H193 H 0.37781 0.55713 0.00529 0.0
H194 H 0.30382 0.54915 0.99255 0.0
H195 H 0.28157 0.56183 0.12307 0.0
H196 H 0.35502 0.57068 0.13534 0.0
H197 H 0.50212 0.61428 0.05737 0.0
H198 H 0.51953 0.6861 0.04666 0.0
H199 H 0.39261 0.71862 0.06733 0.0
H200 H 0.37572 0.64719 0.07873 0.0
H201 H 0.44507 0.49811 0.12413 0.0
H202 H 0.43244 0.62566 0.1526 0.0
O203 O 0.4533 0.54276 0.04952 0.0
H204 H 0.45556 0.48309 0.19748 0.0
H205 H 0.44354 0.61106 0.22544 0.0
C206 C 0.37198 0.56363 0.07127 0.0
C207 C 0.35695 0.5577 0.03113 0.0
C208 C 0.31471 0.55313 0.02394 0.0
C209 C 0.28682 0.55481 0.05683 0.0
C210 C 0.30216 0.56081 0.09702 0.0
C211 C 0.34432 0.56539 0.10413 0.0
C212 C 0.43753 0.62536 0.06791 0.0
C213 C 0.47802 0.63689 0.05903 0.0
C214 C 0.48789 0.6779 0.05294 0.0
C215 C 0.45742 0.70803 0.05612 0.0
C216 C 0.41685 0.6962 0.06507 0.0
C217 C 0.40705 0.65525 0.07108 0.0
C218 C 0.4388 0.56302 0.13285 0.0
C219 C 0.44538 0.52293 0.14605 0.0
C220 C 0.45136 0.51442 0.18792 0.0
C221 C 0.45031 0.54591 0.21721 0.0
C222 C 0.4441 0.5861 0.20367 0.0
C223 C 0.43822 0.59454 0.1619 0.0
P224 P 0.11158 0.39934 0.65252 0.0
H225 H 0.15169 0.32143 0.64635 0.0
H226 H 0.12971 0.25545 0.61995 0.0
H227 H 0.01132 0.30597 0.58677 0.0
H228 H 0.03376 0.37253 0.61347 0.0
H229 H 0.16815 0.46735 0.6597 0.0
H230 H 0.22162 0.49285 0.61414 0.0
H231 H 0.1793 0.41139 0.5184 0.0
H232 H 0.12431 0.38721 0.56342 0.0
H233 H 0.03904 0.37659 0.69862 0.0
H234 H 0.09658 0.48769 0.65687 0.0
O235 O 0.1431 0.38888 0.692 0.0
H236 H 0.00246 0.41457 0.75103 0.0
H237 H 0.06159 0.52529 0.71087 0.0
C238 C 0.09396 0.35139 0.63276 0.0
C239 C 0.12092 0.31831 0.63363 0.0
C240 C 0.10844 0.28074 0.61822 0.0
C241 C 0.0688 0.27567 0.6014 0.0
C242 C 0.04187 0.30906 0.60003 0.0
C243 C 0.05462 0.34694 0.61522 0.0
C244 C 0.14221 0.42548 0.615 0.0
C245 C 0.16902 0.45635 0.62827 0.0
C246 C 0.19958 0.47091 0.60222 0.0
C247 C 0.20441 0.45398 0.5629 0.0
C248 C 0.17592 0.42493 0.54861 0.0
C249 C 0.14466 0.41104 0.57442 0.0
C250 C 0.07095 0.42913 0.67403 0.0
C251 C 0.04219 0.40941 0.69915 0.0
C252 C 0.02126 0.43116 0.72922 0.0
C253 C 0.02977 0.47262 0.7351 0.0
C254 C 0.0547 0.49325 0.70678 0.0
C255 C 0.07497 0.4716 0.67611 0.0
O256 O 0.9953 0.09483 0.56316 0.0
Zn257 Zn 0.97617 0.03635 0.55948 0.0
O258 O 0.01291 0.00329 0.52597 0.0
Zn259 Zn 0.98573 0.98824 0.47444 0.0
Zn260 Zn 0.06096 0.03527 0.51316 0.0
Zn261 Zn 0.02987 0.95424 0.55617 0.0
O262 O 0.98582 0.92781 0.46837 0.0
O263 O 0.00711 0.90355 0.52898 0.0
O264 O 0.91853 0.03594 0.53591 0.0
O265 O 0.92621 0.00474 0.47572 0.0
O266 O 0.01285 0.01268 0.42392 0.0
O267 O 0.06729 0.04212 0.45275 0.0
O268 O 0.11223 0.00939 0.53395 0.0
O269 O 0.97525 0.01483 0.61748 0.0
O270 O 0.0922 0.94942 0.55833 0.0
O271 O 0.01012 0.95673 0.6149 0.0
C272 C 0.02926 0.11144 0.55326 0.0
C273 C 0.99285 0.89814 0.49269 0.0
C274 C 0.04626 0.0328 0.42093 0.0
C275 C 0.90367 0.02255 0.50205 0.0
C276 C 0.12053 0.97489 0.54966 0.0
C277 C 0.9896 0.98304 0.63486 0.0
O278 O 0.05736 0.09126 0.53567 0.0
O279 O 0.49594 0.07714 0.96438 0.0
Zn280 Zn 0.4754 0.01959 0.97093 0.0
O281 O 0.51089 0.98732 0.00719 0.0
Zn282 Zn 0.53481 0.94226 0.97615 0.0
Zn283 Zn 0.55496 0.02202 0.02692 0.0
Zn284 Zn 0.47968 0.96688 0.05471 0.0
O285 O 0.51627 0.88889 -1e-05 0.0
O286 O 0.47835 0.90536 0.05418 0.0
O287 O 0.47348 0.99614 0.91405 0.0
O288 O 0.51652 0.94381 0.91649 0.0
O289 O 0.59717 0.9439 0.97738 0.0
O290 O 0.61001 0.00038 0.01253 0.0
O291 O 0.5537 0.02692 0.08742 0.0
O292 O 0.41824 0.0228 0.99334 0.0
O293 O 0.50375 0.98663 0.10964 0.0
O294 O 0.4211 0.98736 0.05169 0.0
C295 C 0.52674 0.09593 0.9797 0.0
C296 C 0.49416 0.87871 0.03059 0.0
C297 C 0.6225 0.96934 0.99305 0.0
C298 C 0.49187 0.9668 0.89656 0.0
C299 C 0.5331 0.0116 0.1167 0.0
C300 C 0.40119 0.00903 0.02571 0.0
O301 O 0.55167 0.07822 0.00412 0.0
O302 O 0.51361 0.50866 0.5986 0.0
Zn303 Zn 0.51542 0.52882 0.54073 0.0
O304 O 0.48134 0.49593 0.50404 0.0
Zn305 Zn 0.51519 0.47218 0.46094 0.0
Zn306 Zn 0.45604 0.45217 0.53608 0.0
Zn307 Zn 0.4393 0.53083 0.47884 0.0
O308 O 0.49659 0.49015 0.40455 0.0
O309 O 0.44378 0.53083 0.417 0.0
O310 O 0.57425 0.52801 0.52357 0.0
O311 O 0.57451 0.48897 0.46783 0.0
O312 O 0.51271 0.41116 0.46257 0.0
O313 O 0.47471 0.39688 0.51737 0.0
O314 O 0.39469 0.45469 0.52975 0.0
O315 O 0.49751 0.58689 0.54136 0.0
O316 O 0.38265 0.51106 0.49343 0.0
O317 O 0.44467 0.58911 0.49771 0.0
C318 C 0.49472 0.47979 0.61653 0.0
C319 C 0.46792 0.51345 0.39187 0.0
C320 C 0.49641 0.38558 0.48706 0.0
C321 C 0.59334 0.51101 0.49423 0.0
C322 C 0.36994 0.47979 0.51282 0.0
C323 C 0.4693 0.60662 0.5228 0.0
O324 O 0.47104 0.45583 0.59653 0.0
O325 O 0.96403 0.50176 0.10939 0.0
Zn326 Zn 0.96704 0.48119 0.05144 0.0
O327 O -0.00081 0.51834 0.01754 0.0
Zn328 Zn 0.96241 0.54331 0.97703 0.0
Zn329 Zn 0.02444 0.5607 0.05177 0.0
Zn330 Zn 0.04231 0.48809 0.98975 0.0
O331 O 0.97899 0.52921 0.91964 0.0
O332 O 0.03616 0.49306 0.92835 0.0
O333 O 0.90896 0.47529 0.03007 0.0
O334 O 0.9043 0.52345 0.98231 0.0
O335 O 0.96418 0.60407 0.98088 0.0
O336 O 0.00893 0.61668 0.03143 0.0
O337 O 0.08636 0.55717 0.05158 0.0
O338 O 0.9922 0.42553 0.05282 0.0
O339 O 0.09838 0.50903 0.00539 0.0
O340 O 0.04173 0.42879 0.00628 0.0
C341 C 0.98073 0.53151 0.12836 0.0
C342 C 0.00933 0.50983 0.90512 0.0
C343 C 0.98443 0.62899 0.00325 0.0
C344 C 0.88804 0.49507 0.00343 0.0
C345 C 0.11131 0.53572 0.03082 0.0
C346 C 0.02093 0.40878 0.0326 0.0
O347 O 0.00481 0.55615 0.11007 0.0
C348 C 0.05449 0.05181 0.30554 0.0
C349 C 0.09171 0.07371 0.30362 0.0
H350 H 0.01082 0.02127 0.3442 0.0
C351 C 0.11339 0.08183 0.34033 0.0
H352 H 0.03716 0.04504 0.27771 0.0
C353 C 0.09856 0.06826 0.37801 0.0
C354 C 0.06145 0.04629 0.38021 0.0
H355 H 0.14164 0.09942 0.34011 0.0
H356 H 0.11626 0.07539 0.40553 0.0
C357 C 0.03952 0.0381 0.34355 0.0
C358 C 0.49167 0.91832 0.79055 0.0
C359 C 0.47199 0.94834 0.76657 0.0
H360 H 0.51333 0.90047 0.85044 0.0
C361 C 0.4595 0.98455 0.78571 0.0
H362 H 0.50119 0.88984 0.77692 0.0
C363 C 0.46579 0.99032 0.82788 0.0
C364 C 0.48516 0.96022 0.85191 0.0
H365 H 0.44499 0.00866 0.76808 0.0
H366 H 0.45572 0.01861 0.84154 0.0
C367 C 0.49835 0.92427 0.83275 0.0
C368 C 0.51094 0.42219 0.71605 0.0
C369 C 0.53893 0.4479 0.73674 0.0
H370 H 0.47454 0.41226 0.66172 0.0
C371 C 0.54671 0.48683 0.72062 0.0
H372 H 0.50449 0.39189 0.72759 0.0
C373 C 0.52979 0.4984 0.68274 0.0
C374 C 0.50475 0.47125 0.66023 0.0
H375 H 0.56756 0.50756 0.7363 0.0
H376 H 0.53819 0.5278 0.67012 0.0
C377 C 0.49392 0.43379 0.67815 0.0
C378 C 0.9223 0.52722 0.22829 0.0
C379 C 0.9345 0.56395 0.24686 0.0
H380 H 0.92776 0.48777 0.17639 0.0
C381 C 0.96614 0.587 0.22892 0.0
H382 H 0.89842 0.50855 0.24186 0.0
C383 C 0.98304 0.57513 0.19146 0.0
C384 C 0.96857 0.54001 0.17125 0.0
H385 H 0.97601 0.61558 0.24243 0.0
H386 H 0.00587 0.59468 0.17737 0.0
C387 C 0.9392 0.51531 0.19085 0.0
C388 C 0.30305 0.02765 0.08456 0.0
C389 C 0.28416 0.05781 0.06019 0.0
H390 H 0.35482 0.98834 0.09274 0.0
C391 C 0.30139 0.06784 0.02194 0.0
H392 H 0.29066 0.01948 0.11435 0.0
C393 C 0.33825 0.0501 0.00957 0.0
C394 C 0.35877 0.02211 0.03533 0.0
H395 H 0.28719 0.09061 0.0023 0.0
H396 H 0.35157 0.05985 0.98068 0.0
C397 C 0.34001 0.00999 0.07228 0.0
C398 C 0.23591 0.98565 0.5595 0.0
C399 C 0.24858 0.94503 0.56399 0.0
H400 H 0.1858 0.0268 0.55177 0.0
C401 C 0.21847 0.91418 0.56565 0.0
H402 H 0.25814 0.01028 0.55919 0.0
C403 C 0.17665 0.92377 0.56209 0.0
C404 C 0.16424 0.96434 0.55647 0.0
H405 H 0.22721 0.88254 0.56881 0.0
H406 H 0.15418 0.89935 0.56269 0.0
C407 C 0.19433 0.99515 0.55558 0.0
C408 C 0.78703 0.48325 0.9461 0.0
C409 C 0.77122 0.4475 0.96389 0.0
H410 H 0.83612 0.52659 0.94488 0.0
C411 C 0.79131 0.4309 -0.00143 0.0
H412 H 0.77251 0.49667 0.91916 0.0
C413 C 0.82811 0.44787 0.01316 0.0
C414 C 0.84555 0.48181 0.99335 0.0
H415 H 0.77945 0.40377 0.0134 0.0
H416 H 0.84382 0.43317 0.03871 0.0
C417 C 0.82375 0.50026 0.96071 0.0
C418 C 0.69807 0.55933 0.50887 0.0
C419 C 0.71681 0.55011 0.47119 0.0
H420 H 0.64432 0.55388 0.54595 0.0
C421 C 0.69693 0.52304 0.44395 0.0
H422 H 0.71294 0.57958 0.53075 0.0
C423 C 0.6577 0.50818 0.45266 0.0
C424 C 0.63749 0.52025 0.48869 0.0
H425 H 0.7103 0.51559 0.41446 0.0
H426 H 0.64234 0.48921 0.42995 0.0
C427 C 0.65875 0.54458 0.51753 0.0
C428 C 0.08225 0.31113 0.03905 0.0
C429 C 0.06218 0.29052 0.07117 0.0
H430 H 0.08492 0.36463 0.00147 0.0
C431 C 0.02572 0.30692 0.08699 0.0
H432 H 0.11059 0.29944 0.02642 0.0
C433 C 0.01111 0.34441 0.0729 0.0
C434 C 0.03269 0.36636 0.04269 0.0
H435 H 0.00925 0.29141 0.11132 0.0
H436 H 0.98378 0.35687 0.08692 0.0
C437 C 0.06765 0.34867 0.02494 0.0
C438 C 0.57946 0.19817 0.97143 0.0
C439 C 0.56044 0.21461 0.93616 0.0
H440 H 0.58359 0.14784 0.01295 0.0
C441 C 0.52738 0.19355 0.91774 0.0
H442 H 0.60523 0.21355 0.98608 0.0
C443 C 0.51497 0.15573 0.93306 0.0
C444 C 0.53565 0.1382 0.96689 0.0
H445 H 0.51188 0.20581 0.89077 0.0
H446 H 0.49036 0.13955 0.91734 0.0
C447 C 0.56725 0.16033 0.9866 0.0
C448 C 0.96439 0.8121 0.42194 0.0
C449 C 0.94347 0.78568 0.44876 0.0
H450 H 0.99647 0.86857 0.41506 0.0
C451 C 0.94447 0.79371 0.49135 0.0
H452 H 0.96534 0.80613 0.38913 0.0
C453 C 0.96334 0.82913 0.50633 0.0
C454 C 0.98091 0.85715 0.47884 0.0
H455 H 0.92859 0.774 0.51281 0.0
H456 H 0.96171 0.83588 0.53895 0.0
C457 C 0.98249 0.84769 0.43676 0.0
C458 C 0.43544 0.71666 0.51438 0.0
C459 C 0.45726 0.73455 0.54727 0.0
H460 H 0.42178 0.66202 0.48098 0.0
C461 C 0.48326 0.71026 0.5717 0.0
H462 H 0.41491 0.7347 0.49529 0.0
C463 C 0.48732 0.66882 0.56351 0.0
C464 C 0.46516 0.65069 0.53091 0.0
H465 H 0.5007 0.72339 0.59703 0.0
H466 H 0.50761 0.65096 0.58301 0.0
C467 C 0.43918 0.67505 0.50638 0.0
C468 C 0.97191 0.00624 0.74744 0.0
C469 C 0.97338 0.96725 0.76542 0.0
H470 H 0.97535 0.04167 0.69218 0.0
C471 C 0.9802 0.93343 0.73978 0.0
H472 H 0.96761 0.03313 0.76614 0.0
C473 C 0.98564 0.93852 0.6974 0.0
C474 C 0.98357 0.97742 0.67957 0.0
H475 H 0.98069 0.90284 0.75223 0.0
H476 H 0.99083 0.91189 0.6785 0.0
C477 C 0.97653 0.01121 0.70499 0.0
C478 C 0.58191 0.07099 0.20365 0.0
C479 C 0.56185 0.05552 0.23839 0.0
H480 H 0.58886 0.06924 0.13872 0.0
C481 C 0.53312 0.02377 0.23353 0.0
H482 H 0.60476 0.09494 0.20665 0.0
C483 C 0.52362 0.0088 0.19402 0.0
C484 C 0.54325 0.02509 0.15913 0.0
H485 H 0.51744 0.01128 0.26005 0.0
H486 H 0.50081 0.98489 0.19079 0.0
C487 C 0.57285 0.05598 0.16466 0.0
C488 C 0.4287 0.55607 0.29038 0.0
C489 C 0.45453 0.53693 0.26186 0.0
H490 H 0.41247 0.56358 0.35358 0.0
C491 C 0.48434 0.5094 0.27632 0.0
H492 H 0.40499 0.57695 0.2801 0.0
C493 C 0.48857 0.50157 0.3185 0.0
C494 C 0.46295 0.521 0.34709 0.0
H495 H 0.50487 0.49442 0.25509 0.0
H496 H 0.5121 0.48045 0.32867 0.0
C497 C 0.43283 0.54818 0.33249 0.0
C498 C 0.05698 0.50001 0.80063 0.0
C499 C 0.0226 0.49026 0.77601 0.0
H500 H 0.07959 0.51309 0.86132 0.0
C501 C 0.98323 0.49042 0.79337 0.0
H502 H 0.08773 0.49928 0.788 0.0
C503 C 0.97853 0.49902 0.83526 0.0
C504 C 0.01332 0.5061 0.86031 0.0
H505 H 0.95647 0.48234 0.77493 0.0
H506 H 0.94806 0.49787 0.84851 0.0
C507 C 0.05243 0.50738 0.84256 0.0
C508 C 0.73737 0.98786 -0.00044 0.0
C509 C 0.75289 0.95532 0.97652 0.0
H510 H 0.68428 0.01778 0.02282 0.0
C511 C 0.72522 0.92662 0.95977 0.0
H512 H 0.75784 0.01071 0.01246 0.0
C513 C 0.68286 0.93075 0.96548 0.0
C514 C 0.66733 0.96368 0.98804 0.0
H515 H 0.73633 0.90088 0.94233 0.0
H516 H 0.66233 0.90831 0.95195 0.0
C517 C 0.69512 0.992 0.00526 0.0
C518 C 0.79658 0.06769 0.50095 0.0
C519 C 0.77845 0.0477 0.46701 0.0
H520 H 0.85038 0.07539 0.53874 0.0
C521 C 0.80052 0.01658 0.44746 0.0
H522 H 0.78066 0.0921 0.51647 0.0
C523 C 0.84075 0.00757 0.45971 0.0
C524 C 0.85967 0.02911 0.49215 0.0
H525 H 0.78716 -1e-05 0.42178 0.0
H526 H 0.85734 0.98432 0.4431 0.0
C527 C 0.83672 0.05835 0.51351 0.0
C528 C 0.2139 0.57541 0.07047 0.0
C529 C 0.24188 0.55059 0.04938 0.0
H530 H 0.15089 0.59036 0.08112 0.0
C531 C 0.22658 0.52141 0.02154 0.0
H532 H 0.22474 0.59861 0.09165 0.0
C533 C 0.18424 0.51683 0.01529 0.0
C534 C 0.15622 0.54134 0.03673 0.0
H535 H 0.2473 0.50154 0.00515 0.0
H536 H 0.17352 0.49375 0.9939 0.0
C537 C 0.17156 0.57083 0.06424 0.0
C538 C 0.25819 0.5005 0.53438 0.0
C539 C 0.24335 0.46088 0.54105 0.0
H540 H 0.3103 0.53758 0.51913 0.0
C541 C 0.26905 0.42753 0.53347 0.0
H542 H 0.23886 0.52661 0.54035 0.0
C543 C 0.30993 0.43373 0.52245 0.0
C544 C 0.3255 0.47337 0.51802 0.0
H545 H 0.2584 0.39671 0.53895 0.0
H546 H 0.32979 0.40755 0.51891 0.0
C547 C 0.29893 0.5067 0.52237 0.0
C548 C 0.98719 0.74346 0.01786 0.0
C549 C 0.9692 0.75713 0.98077 0.0
H550 H 0.00613 0.69215 0.05416 0.0
C551 C 0.95742 0.72828 0.95091 0.0
H552 H 0.99624 0.76482 0.04168 0.0
C553 C 0.96234 0.6868 0.95837 0.0
C554 C 0.97976 0.67309 0.99562 0.0
H555 H 0.94441 0.73771 0.92158 0.0
H556 H 0.9527 0.66547 0.93472 0.0
C557 C 0.99261 0.70183 0.02513 0.0
C558 C 0.45118 0.78139 0.07646 0.0
C559 C 0.46782 0.75166 0.05037 0.0
H560 H 0.44657 0.8447 0.09092 0.0
C561 C 0.49403 0.76396 0.01846 0.0
H562 H 0.43136 0.7728 0.10172 0.0
C563 C 0.50293 0.80514 0.01237 0.0
C564 C 0.48587 0.83497 0.03811 0.0
H565 H 0.50701 0.74182 -0.00238 0.0
H566 H 0.52287 0.81355 0.98715 0.0
C567 C 0.46012 0.82259 0.07042 0.0
C568 C 0.01851 0.21774 0.59722 0.0
C569 C 0.05615 0.23533 0.58566 0.0
H570 H 0.98038 0.16438 0.59624 0.0
C571 C 0.08327 0.21299 0.56115 0.0
H572 H -0.00283 0.23437 0.61628 0.0
C573 C 0.07389 0.17317 0.54988 0.0
C574 C 0.03711 0.15473 0.56287 0.0
H575 H 0.1122 0.22612 0.55126 0.0
H576 H 0.09598 0.15664 0.53159 0.0
C577 C 0.00907 0.17767 0.58595 0.0
C578 C 0.52051 0.28655 0.43453 0.0
C579 C 0.53006 0.26133 0.46824 0.0
H580 H 0.50281 0.34605 0.41425 0.0
C581 C 0.52516 0.27616 0.50843 0.0
H582 H 0.52469 0.27591 0.40324 0.0
C583 C 0.51181 0.31613 0.51472 0.0
C584 C 0.50457 0.342 0.48088 0.0
H585 H 0.53277 0.25725 0.53478 0.0
H586 H 0.5093 0.32744 0.54595 0.0
C587 C 0.50835 0.32668 0.44078 0.0
loop_
_geom_bond_atom_site_label_1
_geom_bond_atom_site_label_2
_geom_bond_distance
_geom_bond_site_symmetry_2
_ccdc_geom_bond_type
P0 O11 1.490 . S
P0 C14 1.812 . S
P0 C20 1.803 . S
P0 C26 1.819 . S
H1 C15 0.941 . S
H2 C16 0.939 . S
H3 C18 0.940 . S
H4 C19 0.940 . S
H5 C21 0.939 . S
H6 C22 0.942 . S
H7 C24 0.940 . S
H8 C25 0.939 . S
H9 C27 0.941 . S
H10 C31 0.939 . S
O11 P0 1.490 . S
H12 C28 0.939 . S
H13 C30 0.940 . S
C14 P0 1.812 . S
C14 C15 1.389 . S
C14 C19 1.391 . S
C15 H1 0.941 . S
C15 C14 1.389 . S
C15 C16 1.397 . S
C16 H2 0.939 . S
C16 C15 1.397 . S
C16 C17 1.378 . S
C17 C16 1.378 . S
C17 C18 1.378 . S
C18 H3 0.940 . S
C18 C17 1.378 . S
C18 C19 1.396 . S
C19 H4 0.940 . S
C19 C14 1.391 . S
C19 C18 1.396 . S
C20 P0 1.803 . S
C20 C21 1.378 . S
C20 C25 1.400 . S
C21 H5 0.939 . S
C21 C20 1.378 . S
C21 C22 1.361 . S
C22 H6 0.942 . S
C22 C21 1.361 . S
C22 C23 1.369 . S
C23 C22 1.369 . S
C23 C24 1.404 . S
C24 H7 0.940 . S
C24 C23 1.404 . S
C24 C25 1.389 . S
C25 H8 0.939 . S
C25 C20 1.400 . S
C25 C24 1.389 . S
C26 P0 1.819 . S
C26 C27 1.391 . S
C26 C31 1.391 . S
C27 H9 0.941 . S
C27 C26 1.391 . S
C27 C28 1.396 . S
C28 H12 0.939 . S
C28 C27 1.396 . S
C28 C29 1.397 . S
C29 C28 1.397 . S
C29 C30 1.385 . S
C30 H13 0.940 . S
C30 C29 1.385 . S
C30 C31 1.388 . S
C31 H10 0.939 . S
C31 C26 1.391 . S
C31 C30 1.388 . S
P32 O43 1.490 . S
P32 C46 1.812 . S
P32 C52 1.803 . S
P32 C58 1.819 . S
H33 C47 0.941 . S
H34 C48 0.939 . S
H35 C50 0.940 . S
H36 C51 0.940 . S
H37 C53 0.939 . S
H38 C54 0.942 . S
H39 C56 0.940 . S
H40 C57 0.939 . S
H41 C59 0.941 . S
H42 C63 0.939 . S
O43 P32 1.490 . S
H44 C60 0.939 . S
H45 C62 0.940 . S
C46 P32 1.812 . S
C46 C47 1.389 . S
C46 C51 1.391 . S
C47 H33 0.941 . S
C47 C46 1.389 . S
C47 C48 1.397 . S
C48 H34 0.939 . S
C48 C47 1.397 . S
C48 C49 1.378 . S
C49 C48 1.378 . S
C49 C50 1.378 . S
C50 H35 0.940 . S
C50 C49 1.378 . S
C50 C51 1.396 . S
C51 H36 0.940 . S
C51 C46 1.391 . S
C51 C50 1.396 . S
C52 P32 1.803 . S
C52 C53 1.378 . S
C52 C57 1.400 . S
C53 H37 0.939 . S
C53 C52 1.378 . S
C53 C54 1.361 . S
C54 H38 0.942 . S
C54 C53 1.361 . S
C54 C55 1.369 . S
C55 C54 1.369 . S
C55 C56 1.404 . S
C56 H39 0.940 . S
C56 C55 1.404 . S
C56 C57 1.389 . S
C57 H40 0.939 . S
C57 C52 1.400 . S
C57 C56 1.389 . S
C58 P32 1.819 . S
C58 C59 1.391 . S
C58 C63 1.391 . S
C59 H41 0.941 . S
C59 C58 1.391 . S
C59 C60 1.396 . S
C60 H44 0.939 . S
C60 C59 1.396 . S
C60 C61 1.397 . S
C61 C60 1.397 . S
C61 C62 1.385 . S
C62 H45 0.940 . S
C62 C61 1.385 . S
C62 C63 1.388 . S
C63 H42 0.939 . S
C63 C58 1.391 . S
C63 C62 1.388 . S
P64 O75 1.490 . S
P64 C78 1.812 . S
P64 C84 1.803 . S
P64 C90 1.819 . S
H65 C79 0.941 . S
H66 C80 0.939 . S
H67 C82 0.940 . S
H68 C83 0.940 . S
H69 C85 0.939 . S
H70 C86 0.942 . S
H71 C88 0.940 . S
H72 C89 0.939 . S
H73 C91 0.941 . S
H74 C95 0.939 . S
O75 P64 1.490 . S
H76 C92 0.939 . S
H77 C94 0.940 . S
C78 P64 1.812 . S
C78 C79 1.389 . S
C78 C83 1.391 . S
C79 H65 0.941 . S
C79 C78 1.389 . S
C79 C80 1.397 . S
C80 H66 0.939 . S
C80 C79 1.397 . S
C80 C81 1.378 . S
C81 C80 1.378 . S
C81 C82 1.378 . S
C82 H67 0.940 . S
C82 C81 1.378 . S
C82 C83 1.396 . S
C83 H68 0.940 . S
C83 C78 1.391 . S
C83 C82 1.396 . S
C84 P64 1.803 . S
C84 C85 1.378 . S
C84 C89 1.400 . S
C85 H69 0.939 . S
C85 C84 1.378 . S
C85 C86 1.361 . S
C86 H70 0.942 . S
C86 C85 1.361 . S
C86 C87 1.369 . S
C87 C86 1.369 . S
C87 C88 1.404 . S
C88 H71 0.940 . S
C88 C87 1.404 . S
C88 C89 1.389 . S
C89 H72 0.939 . S
C89 C84 1.400 . S
C89 C88 1.389 . S
C90 P64 1.819 . S
C90 C91 1.391 . S
C90 C95 1.391 . S
C91 H73 0.941 . S
C91 C90 1.391 . S
C91 C92 1.396 . S
C92 H76 0.939 . S
C92 C91 1.396 . S
C92 C93 1.397 . S
C93 C92 1.397 . S
C93 C94 1.385 . S
C94 H77 0.940 . S
C94 C93 1.385 . S
C94 C95 1.388 . S
C95 H74 0.939 . S
C95 C90 1.391 . S
C95 C94 1.388 . S
P96 O107 1.490 . S
P96 C110 1.812 . S
P96 C116 1.803 . S
P96 C122 1.819 . S
H97 C111 0.941 . S
H98 C112 0.939 . S
H99 C114 0.940 . S
H100 C115 0.940 . S
H101 C117 0.939 . S
H102 C118 0.942 . S
H103 C120 0.940 . S
H104 C121 0.939 . S
H105 C123 0.941 . S
H106 C127 0.939 . S
O107 P96 1.490 . S
H108 C124 0.939 . S
H109 C126 0.940 . S
C110 P96 1.812 . S
C110 C111 1.389 . S
C110 C115 1.391 . S
C111 H97 0.941 . S
C111 C110 1.389 . S
C111 C112 1.397 . S
C112 H98 0.939 . S
C112 C111 1.397 . S
C112 C113 1.378 . S
C113 C112 1.378 . S
C113 C114 1.378 . S
C114 H99 0.940 . S
C114 C113 1.378 . S
C114 C115 1.396 . S
C115 H100 0.940 . S
C115 C110 1.391 . S
C115 C114 1.396 . S
C116 P96 1.803 . S
C116 C117 1.378 . S
C116 C121 1.400 . S
C117 H101 0.939 . S
C117 C116 1.378 . S
C117 C118 1.361 . S
C118 H102 0.942 . S
C118 C117 1.361 . S
C118 C119 1.369 . S
C119 C118 1.369 . S
C119 C120 1.404 . S
C120 H103 0.940 . S
C120 C119 1.404 . S
C120 C121 1.389 . S
C121 H104 0.939 . S
C121 C116 1.400 . S
C121 C120 1.389 . S
C122 P96 1.819 . S
C122 C123 1.391 . S
C122 C127 1.391 . S
C123 H105 0.941 . S
C123 C122 1.391 . S
C123 C124 1.396 . S
C124 H108 0.939 . S
C124 C123 1.396 . S
C124 C125 1.397 . S
C125 C124 1.397 . S
C125 C126 1.385 . S
C126 H109 0.940 . S
C126 C125 1.385 . S
C126 C127 1.388 . S
C127 H106 0.939 . S
C127 C122 1.391 . S
C127 C126 1.388 . S
P128 O139 1.490 . S
P128 C142 1.812 . S
P128 C148 1.803 . S
P128 C154 1.819 . S
H129 C143 0.941 . S
H130 C144 0.936 1_545 S
H131 C146 0.940 . S
H132 C147 0.940 . S
H133 C149 0.936 1_455 S
H134 C150 0.942 1_455 S
H135 C152 0.940 . S
H136 C153 0.939 . S
H137 C155 0.941 . S
H138 C159 0.939 . S
O139 P128 1.490 . S
H140 C156 0.939 . S
H141 C158 0.940 . S
C142 P128 1.812 . S
C142 C143 1.389 1_556 S
C142 C147 1.391 . S
C143 H129 0.941 . S
C143 C142 1.389 1_554 S
C143 C144 1.397 . S
C144 H130 0.936 1_565 S
C144 C143 1.397 . S
C144 C145 1.378 1_554 S
C145 C144 1.378 1_556 S
C145 C146 1.378 . S
C146 H131 0.940 . S
C146 C145 1.378 . S
C146 C147 1.396 . S
C147 H132 0.940 . S
C147 C142 1.391 . S
C147 C146 1.396 . S
C148 P128 1.803 . S
C148 C149 1.378 . S
C148 C153 1.400 . S
C149 H133 0.936 1_655 S
C149 C148 1.378 . S
C149 C150 1.361 . S
C150 H134 0.942 1_655 S
C150 C149 1.361 . S
C150 C151 1.369 . S
C151 C150 1.369 . S
C151 C152 1.404 . S
C152 H135 0.940 . S
C152 C151 1.404 . S
C152 C153 1.389 . S
C153 H136 0.939 . S
C153 C148 1.400 . S
C153 C152 1.389 . S
C154 P128 1.819 . S
C154 C155 1.391 1_565 S
C154 C159 1.391 . S
C155 H137 0.941 . S
C155 C154 1.391 1_545 S
C155 C156 1.396 . S
C156 H140 0.939 . S
C156 C155 1.396 . S
C156 C157 1.397 1_545 S
C157 C156 1.397 1_565 S
C157 C158 1.385 . S
C158 H141 0.940 . S
C158 C157 1.385 . S
C158 C159 1.388 . S
C159 H138 0.939 . S
C159 C154 1.391 . S
C159 C158 1.388 . S
P160 O171 1.490 . S
P160 C174 1.812 . S
P160 C180 1.803 . S
P160 C186 1.819 . S
H161 C175 0.941 . S
H162 C176 0.939 . S
H163 C178 0.940 . S
H164 C179 0.940 . S
H165 C181 0.939 . S
H166 C182 0.942 . S
H167 C184 0.940 . S
H168 C185 0.939 . S
H169 C187 0.941 . S
H170 C191 0.939 . S
O171 P160 1.490 . S
H172 C188 0.939 . S
H173 C190 0.936 1_565 S
C174 P160 1.812 . S
C174 C175 1.389 . S
C174 C179 1.391 . S
C175 H161 0.941 . S
C175 C174 1.389 . S
C175 C176 1.397 . S
C176 H162 0.939 . S
C176 C175 1.397 . S
C176 C177 1.378 . S
C177 C176 1.378 . S
C177 C178 1.378 . S
C178 H163 0.940 . S
C178 C177 1.378 . S
C178 C179 1.396 . S
C179 H164 0.940 . S
C179 C174 1.391 . S
C179 C178 1.396 . S
C180 P160 1.803 . S
C180 C181 1.378 . S
C180 C185 1.400 . S
C181 H165 0.939 . S
C181 C180 1.378 . S
C181 C182 1.361 . S
C182 H166 0.942 . S
C182 C181 1.361 . S
C182 C183 1.369 . S
C183 C182 1.369 . S
C183 C184 1.404 . S
C184 H167 0.940 . S
C184 C183 1.404 . S
C184 C185 1.389 . S
C185 H168 0.939 . S
C185 C180 1.400 . S
C185 C184 1.389 . S
C186 P160 1.819 . S
C186 C187 1.391 . S
C186 C191 1.391 . S
C187 H169 0.941 . S
C187 C186 1.391 . S
C187 C188 1.396 . S
C188 H172 0.939 . S
C188 C187 1.396 . S
C188 C189 1.397 . S
C189 C188 1.397 . S
C189 C190 1.385 . S
C190 H173 0.936 1_545 S
C190 C189 1.385 . S
C190 C191 1.388 . S
C191 H170 0.939 . S
C191 C186 1.391 . S
C191 C190 1.388 . S
P192 O203 1.490 . S
P192 C206 1.812 . S
P192 C212 1.803 . S
P192 C218 1.819 . S
H193 C207 0.941 . S
H194 C208 0.939 1_556 S
H195 C210 0.940 . S
H196 C211 0.940 . S
H197 C213 0.939 . S
H198 C214 0.942 . S
H199 C216 0.940 . S
H200 C217 0.939 . S
H201 C219 0.941 . S
H202 C223 0.939 . S
O203 P192 1.490 . S
H204 C220 0.939 . S
H205 C222 0.940 . S
C206 P192 1.812 . S
C206 C207 1.389 . S
C206 C211 1.391 . S
C207 H193 0.941 . S
C207 C206 1.389 . S
C207 C208 1.397 . S
C208 H194 0.939 1_554 S
C208 C207 1.397 . S
C208 C209 1.378 . S
C209 C208 1.378 . S
C209 C210 1.378 . S
C210 H195 0.940 . S
C210 C209 1.378 . S
C210 C211 1.396 . S
C211 H196 0.940 . S
C211 C206 1.391 . S
C211 C210 1.396 . S
C212 P192 1.803 . S
C212 C213 1.378 . S
C212 C217 1.400 . S
C213 H197 0.939 . S
C213 C212 1.378 . S
C213 C214 1.361 . S
C214 H198 0.942 . S
C214 C213 1.361 . S
C214 C215 1.369 . S
C215 C214 1.369 . S
C215 C216 1.404 . S
C216 H199 0.940 . S
C216 C215 1.404 . S
C216 C217 1.389 . S
C217 H200 0.939 . S
C217 C212 1.400 . S
C217 C216 1.389 . S
C218 P192 1.819 . S
C218 C219 1.391 . S
C218 C223 1.391 . S
C219 H201 0.941 . S
C219 C218 1.391 . S
C219 C220 1.396 . S
C220 H204 0.939 . S
C220 C219 1.396 . S
C220 C221 1.397 . S
C221 C220 1.397 . S
C221 C222 1.385 . S
C222 H205 0.940 . S
C222 C221 1.385 . S
C222 C223 1.388 . S
C223 H202 0.939 . S
C223 C218 1.391 . S
C223 C222 1.388 . S
P224 O235 1.490 . S
P224 C238 1.812 . S
P224 C244 1.803 . S
P224 C250 1.819 . S
H225 C239 0.941 . S
H226 C240 0.939 . S
H227 C242 0.940 . S
H228 C243 0.940 . S
H229 C245 0.939 . S
H230 C246 0.942 . S
H231 C248 0.940 . S
H232 C249 0.939 . S
H233 C251 0.941 . S
H234 C255 0.939 . S
O235 P224 1.490 . S
H236 C252 0.939 . S
H237 C254 0.940 . S
C238 P224 1.812 . S
C238 C239 1.389 . S
C238 C243 1.391 . S
C239 H225 0.941 . S
C239 C238 1.389 . S
C239 C240 1.397 . S
C240 H226 0.939 . S
C240 C239 1.397 . S
C240 C241 1.378 . S
C241 C240 1.378 . S
C241 C242 1.378 . S
C242 H227 0.940 . S
C242 C241 1.378 . S
C242 C243 1.396 . S
C243 H228 0.940 . S
C243 C238 1.391 . S
C243 C242 1.396 . S
C244 P224 1.803 . S
C244 C245 1.378 . S
C244 C249 1.400 . S
C245 H229 0.939 . S
C245 C244 1.378 . S
C245 C246 1.361 . S
C246 H230 0.942 . S
C246 C245 1.361 . S
C246 C247 1.369 . S
C247 C246 1.369 . S
C247 C248 1.404 . S
C248 H231 0.940 . S
C248 C247 1.404 . S
C248 C249 1.389 . S
C249 H232 0.939 . S
C249 C244 1.400 . S
C249 C248 1.389 . S
C250 P224 1.819 . S
C250 C251 1.391 . S
C250 C255 1.391 . S
C251 H233 0.941 . S
C251 C250 1.391 . S
C251 C252 1.396 . S
C252 H236 0.939 . S
C252 C251 1.396 . S
C252 C253 1.397 . S
C253 C252 1.397 . S
C253 C254 1.385 . S
C254 H237 0.940 . S
C254 C253 1.385 . S
C254 C255 1.388 . S
C255 H234 0.939 . S
C255 C250 1.391 . S
C255 C254 1.388 . S
O256 Zn257 1.953 . S
O256 C272 1.225 1_655 S
Zn257 O256 1.953 . S
Zn257 O258 1.949 1_655 S
Zn257 O264 1.919 . S
Zn257 O269 1.924 . S
O258 Zn257 1.949 1_455 S
O258 Zn259 1.923 1_445 S
O258 Zn260 1.950 . S
O258 Zn261 1.945 1_545 S
Zn259 O258 1.923 1_665 S
Zn259 O262 1.933 . S
Zn259 O265 1.941 1_565 S
Zn259 O266 1.965 1_665 S
Zn260 O258 1.950 . S
Zn260 O267 1.938 . S
Zn260 O268 1.906 1_545 S
Zn260 O278 1.953 . S
Zn261 O258 1.945 1_565 S
Zn261 O263 1.932 1_455 S
Zn261 O270 1.977 . S
Zn261 O271 1.910 1_455 S
O262 Zn259 1.933 . S
O262 C273 1.226 . S
O263 Zn261 1.932 1_655 S
O263 C273 1.307 . S
O264 Zn257 1.919 . S
O264 C275 1.253 . S
O265 Zn259 1.941 1_545 S
O265 C275 1.283 . S
O266 Zn259 1.965 1_445 S
O266 C274 1.303 . S
O267 Zn260 1.938 . S
O267 C274 1.247 . S
O268 Zn260 1.906 1_565 S
O268 C276 1.304 . S
O269 Zn257 1.924 . S
O269 C277 1.311 1_545 S
O270 Zn261 1.977 . S
O270 C276 1.272 . S
O271 Zn261 1.910 1_655 S
O271 C277 1.231 . S
C272 O256 1.225 1_455 S
C272 O278 1.298 . S
C273 O262 1.226 . S
C273 O263 1.307 . S
C274 O266 1.303 . S
C274 O267 1.247 . S
C275 O264 1.253 . S
C275 O265 1.283 . S
C276 O268 1.304 . S
C276 O270 1.272 . S
C277 O269 1.311 1_565 S
C277 O271 1.231 . S
O278 Zn260 1.953 . S
O278 C272 1.298 . S
O279 Zn280 1.953 . S
O279 C295 1.225 . S
Zn280 O279 1.953 . S
Zn280 O281 1.949 1_556 S
Zn280 O287 1.919 . S
Zn280 O292 1.924 1_556 S
O281 Zn280 1.949 1_554 S
O281 Zn282 1.923 1_545 S
O281 Zn283 1.950 . S
O281 Zn284 1.945 1_545 S
Zn282 O281 1.923 1_565 S
Zn282 O285 1.933 . S
Zn282 O288 1.941 1_554 S
Zn282 O289 1.965 1_554 S
Zn283 O281 1.950 . S
Zn283 O290 1.938 . S
Zn283 O291 1.906 . S
Zn283 O301 1.953 . S
Zn284 O281 1.945 1_565 S
Zn284 O286 1.932 . S
Zn284 O293 1.977 1_565 S
Zn284 O294 1.910 1_565 S
O285 Zn282 1.933 . S
O285 C296 1.226 . S
O286 Zn284 1.932 . S
O286 C296 1.307 . S
O287 Zn280 1.919 . S
O287 C298 1.253 1_545 S
O288 Zn282 1.941 1_556 S
O288 C298 1.283 . S
O289 Zn282 1.965 1_556 S
O289 C297 1.303 . S
O290 Zn283 1.938 . S
O290 C297 1.247 1_544 S
O291 Zn283 1.906 . S
O291 C299 1.304 . S
O292 Zn280 1.924 1_554 S
O292 C300 1.311 . S
O293 Zn284 1.977 1_545 S
O293 C299 1.272 . S
O294 Zn284 1.910 1_545 S
O294 C300 1.231 . S
C295 O279 1.225 . S
C295 O301 1.298 1_556 S
C296 O285 1.226 . S
C296 O286 1.307 . S
C297 O289 1.303 . S
C297 O290 1.247 1_566 S
C298 O287 1.253 1_565 S
C298 O288 1.283 . S
C299 O291 1.304 . S
C299 O293 1.272 . S
C300 O292 1.311 . S
C300 O294 1.231 . S
O301 Zn283 1.953 . S
O301 C295 1.298 1_554 S
O302 Zn303 1.953 . S
O302 C318 1.225 . S
Zn303 O302 1.953 . S
Zn303 O304 1.949 . S
Zn303 O310 1.919 . S
Zn303 O315 1.924 . S
O304 Zn303 1.949 . S
O304 Zn305 1.923 . S
O304 Zn306 1.950 . S
O304 Zn307 1.945 . S
Zn305 O304 1.923 . S
Zn305 O308 1.933 . S
Zn305 O311 1.941 . S
Zn305 O312 1.965 . S
Zn306 O304 1.950 . S
Zn306 O313 1.938 . S
Zn306 O314 1.906 . S
Zn306 O324 1.953 . S
Zn307 O304 1.945 . S
Zn307 O309 1.932 . S
Zn307 O316 1.977 . S
Zn307 O317 1.910 . S
O308 Zn305 1.933 . S
O308 C319 1.226 . S
O309 Zn307 1.932 . S
O309 C319 1.307 . S
O310 Zn303 1.919 . S
O310 C321 1.253 . S
O311 Zn305 1.941 . S
O311 C321 1.283 . S
O312 Zn305 1.965 . S
O312 C320 1.303 . S
O313 Zn306 1.938 . S
O313 C320 1.247 . S
O314 Zn306 1.906 . S
O314 C322 1.304 . S
O315 Zn303 1.924 . S
O315 C323 1.311 . S
O316 Zn307 1.977 . S
O316 C322 1.272 . S
O317 Zn307 1.910 . S
O317 C323 1.231 . S
C318 O302 1.225 . S
C318 O324 1.298 . S
C319 O308 1.226 . S
C319 O309 1.307 . S
C320 O312 1.303 . S
C320 O313 1.247 . S
C321 O310 1.253 . S
C321 O311 1.283 . S
C322 O314 1.304 . S
C322 O316 1.272 . S
C323 O315 1.311 . S
C323 O317 1.231 . S
O324 Zn306 1.953 . S
O324 C318 1.298 . S
O325 Zn326 1.953 . S
O325 C341 1.225 . S
Zn326 O325 1.953 . S
Zn326 O327 1.949 1_655 S
Zn326 O333 1.919 . S
Zn326 O338 1.924 . S
O327 Zn326 1.949 1_455 S
O327 Zn328 1.923 1_454 S
O327 Zn329 1.950 . S
O327 Zn330 1.945 1_554 S
Zn328 O327 1.923 1_656 S
Zn328 O331 1.933 1_655 S
Zn328 O334 1.941 . S
Zn328 O335 1.965 . S
Zn329 O327 1.950 . S
Zn329 O336 1.938 . S
Zn329 O337 1.906 . S
Zn329 O347 1.953 . S
Zn330 O327 1.945 1_556 S
Zn330 O332 1.932 . S
Zn330 O339 1.977 1_556 S
Zn330 O340 1.910 1_556 S
O331 Zn328 1.933 1_455 S
O331 C342 1.226 . S
O332 Zn330 1.932 . S
O332 C342 1.307 . S
O333 Zn326 1.919 . S
O333 C344 1.253 1_554 S
O334 Zn328 1.941 . S
O334 C344 1.283 . S
O335 Zn328 1.965 . S
O335 C343 1.303 . S
O336 Zn329 1.938 . S
O336 C343 1.247 1_454 S
O337 Zn329 1.906 . S
O337 C345 1.304 . S
O338 Zn326 1.924 . S
O338 C346 1.311 1_655 S
O339 Zn330 1.977 1_554 S
O339 C345 1.272 . S
O340 Zn330 1.910 1_554 S
O340 C346 1.231 . S
C341 O325 1.225 . S
C341 O347 1.298 1_655 S
C342 O331 1.226 . S
C342 O332 1.307 . S
C343 O335 1.303 . S
C343 O336 1.247 1_656 S
C344 O333 1.253 1_556 S
C344 O334 1.283 . S
C345 O337 1.304 . S
C345 O339 1.272 . S
C346 O338 1.311 1_455 S
C346 O340 1.231 . S
O347 Zn329 1.953 . S
O347 C341 1.298 1_455 S
C348 C349 1.387 . S
C348 H352 0.950 . S
C348 C357 1.390 . S
C349 C348 1.387 . S
C349 C351 1.387 . S
H350 C357 0.950 . S
C351 C349 1.387 . S
C351 C353 1.390 . S
C351 H355 0.950 . S
H352 C348 0.950 . S
C353 C351 1.390 . S
C353 C354 1.387 . S
C353 H356 0.950 . S
C354 C353 1.387 . S
C354 C357 1.387 . S
H355 C351 0.950 . S
H356 C353 0.950 . S
C357 C348 1.390 . S
C357 H350 0.950 . S
C357 C354 1.387 . S
C358 C359 1.387 . S
C358 H362 0.950 . S
C358 C367 1.390 . S
C359 C358 1.387 . S
C359 C361 1.387 . S
H360 C367 0.950 . S
C361 C359 1.387 . S
C361 C363 1.390 . S
C361 H365 0.950 . S
H362 C358 0.950 . S
C363 C361 1.390 . S
C363 C364 1.387 . S
C363 H366 0.950 . S
C364 C363 1.387 . S
C364 C367 1.387 . S
H365 C361 0.950 . S
H366 C363 0.950 . S
C367 C358 1.390 . S
C367 H360 0.950 . S
C367 C364 1.387 . S
C368 C369 1.387 . S
C368 H372 0.950 . S
C368 C377 1.390 . S
C369 C368 1.387 . S
C369 C371 1.387 . S
H370 C377 0.950 . S
C371 C369 1.387 . S
C371 C373 1.390 . S
C371 H375 0.950 . S
H372 C368 0.950 . S
C373 C371 1.390 . S
C373 C374 1.387 . S
C373 H376 0.950 . S
C374 C373 1.387 . S
C374 C377 1.387 . S
H375 C371 0.950 . S
H376 C373 0.950 . S
C377 C368 1.390 . S
C377 H370 0.950 . S
C377 C374 1.387 . S
C378 C379 1.387 . S
C378 H382 0.950 . S
C378 C387 1.390 . S
C379 C378 1.387 . S
C379 C381 1.387 . S
H380 C387 0.950 . S
C381 C379 1.387 . S
C381 C383 1.390 . S
C381 H385 0.950 . S
H382 C378 0.950 . S
C383 C381 1.390 . S
C383 C384 1.387 . S
C383 H386 0.950 . S
C384 C383 1.387 . S
C384 C387 1.387 . S
H385 C381 0.950 . S
H386 C383 0.950 . S
C387 C378 1.390 . S
C387 H380 0.950 . S
C387 C384 1.387 . S
C388 C389 1.387 . S
C388 H392 0.950 . S
C388 C397 1.390 . S
C389 C388 1.387 . S
C389 C391 1.387 . S
H390 C397 0.950 . S
C391 C389 1.387 . S
C391 C393 1.390 . S
C391 H395 0.950 . S
H392 C388 0.950 . S
C393 C391 1.390 . S
C393 C394 1.387 . S
C393 H396 0.950 . S
C394 C393 1.387 . S
C394 C397 1.387 . S
H395 C391 0.950 . S
H396 C393 0.950 . S
C397 C388 1.390 . S
C397 H390 0.950 . S
C397 C394 1.387 . S
C398 C399 1.387 . S
C398 H402 0.950 . S
C398 C407 1.390 . S
C399 C398 1.387 . S
C399 C401 1.387 . S
H400 C407 0.950 . S
C401 C399 1.387 . S
C401 C403 1.390 . S
C401 H405 0.950 . S
H402 C398 0.950 . S
C403 C401 1.390 . S
C403 C404 1.387 . S
C403 H406 0.950 . S
C404 C403 1.387 . S
C404 C407 1.387 . S
H405 C401 0.950 . S
H406 C403 0.950 . S
C407 C398 1.390 . S
C407 H400 0.950 . S
C407 C404 1.387 . S
C408 C409 1.387 . S
C408 H412 0.950 . S
C408 C417 1.390 . S
C409 C408 1.387 . S
C409 C411 1.387 . S
H410 C417 0.950 . S
C411 C409 1.387 . S
C411 C413 1.390 . S
C411 H415 0.950 . S
H412 C408 0.950 . S
C413 C411 1.390 . S
C413 C414 1.387 . S
C413 H416 0.950 1_556 S
C414 C413 1.387 . S
C414 C417 1.387 . S
H415 C411 0.950 . S
H416 C413 0.950 1_554 S
C417 C408 1.390 . S
C417 H410 0.950 . S
C417 C414 1.387 . S
C418 C419 1.387 . S
C418 H422 0.950 . S
C418 C427 1.390 . S
C419 C418 1.387 . S
C419 C421 1.387 . S
H420 C427 0.950 . S
C421 C419 1.387 . S
C421 C423 1.390 . S
C421 H425 0.950 . S
H422 C418 0.950 . S
C423 C421 1.390 . S
C423 C424 1.387 . S
C423 H426 0.950 . S
C424 C423 1.387 . S
C424 C427 1.387 . S
H425 C421 0.950 . S
H426 C423 0.950 . S
C427 C418 1.390 . S
C427 H420 0.950 . S
C427 C424 1.387 . S
C428 C429 1.387 . S
C428 H432 0.950 . S
C428 C437 1.390 . S
C429 C428 1.387 . S
C429 C431 1.387 . S
H430 C437 0.950 . S
C431 C429 1.387 . S
C431 C433 1.390 . S
C431 H435 0.950 . S
H432 C428 0.950 . S
C433 C431 1.390 . S
C433 C434 1.387 . S
C433 H436 0.950 1_455 S
C434 C433 1.387 . S
C434 C437 1.387 . S
H435 C431 0.950 . S
H436 C433 0.950 1_655 S
C437 C428 1.390 . S
C437 H430 0.950 . S
C437 C434 1.387 . S
C438 C439 1.387 . S
C438 H442 0.950 1_556 S
C438 C447 1.390 1_556 S
C439 C438 1.387 . S
C439 C441 1.387 . S
H440 C447 0.950 . S
C441 C439 1.387 . S
C441 C443 1.390 . S
C441 H445 0.950 . S
H442 C438 0.950 1_554 S
C443 C441 1.390 . S
C443 C444 1.387 . S
C443 H446 0.950 . S
C444 C443 1.387 . S
C444 C447 1.387 1_556 S
H445 C441 0.950 . S
H446 C443 0.950 . S
C447 C438 1.390 1_554 S
C447 H440 0.950 . S
C447 C444 1.387 1_554 S
C448 C449 1.387 . S
C448 H452 0.950 . S
C448 C457 1.390 . S
C449 C448 1.387 . S
C449 C451 1.387 . S
H450 C457 0.950 . S
C451 C449 1.387 . S
C451 C453 1.390 . S
C451 H455 0.950 . S
H452 C448 0.950 . S
C453 C451 1.390 . S
C453 C454 1.387 . S
C453 H456 0.950 . S
C454 C453 1.387 . S
C454 C457 1.387 . S
H455 C451 0.950 . S
H456 C453 0.950 . S
C457 C448 1.390 . S
C457 H450 0.950 . S
C457 C454 1.387 . S
C458 C459 1.387 . S
C458 H462 0.950 . S
C458 C467 1.390 . S
C459 C458 1.387 . S
C459 C461 1.387 . S
H460 C467 0.950 . S
C461 C459 1.387 . S
C461 C463 1.390 . S
C461 H465 0.950 . S
H462 C458 0.950 . S
C463 C461 1.390 . S
C463 C464 1.387 . S
C463 H466 0.950 . S
C464 C463 1.387 . S
C464 C467 1.387 . S
H465 C461 0.950 . S
H466 C463 0.950 . S
C467 C458 1.390 . S
C467 H460 0.950 . S
C467 C464 1.387 . S
C468 C469 1.387 1_545 S
C468 H472 0.950 . S
C468 C477 1.390 . S
C469 C468 1.387 1_565 S
C469 C471 1.387 . S
H470 C477 0.950 . S
C471 C469 1.387 . S
C471 C473 1.390 . S
C471 H475 0.950 . S
H472 C468 0.950 . S
C473 C471 1.390 . S
C473 C474 1.387 . S
C473 H476 0.950 . S
C474 C473 1.387 . S
C474 C477 1.387 1_565 S
H475 C471 0.950 . S
H476 C473 0.950 . S
C477 C468 1.390 . S
C477 H470 0.950 . S
C477 C474 1.387 1_545 S
C478 C479 1.387 . S
C478 H482 0.950 . S
C478 C487 1.390 . S
C479 C478 1.387 . S
C479 C481 1.387 1_545 S
H480 C487 0.950 . S
C481 C479 1.387 1_565 S
C481 C483 1.390 . S
C481 H485 0.950 . S
H482 C478 0.950 . S
C483 C481 1.390 . S
C483 C484 1.387 1_565 S
C483 H486 0.950 . S
C484 C483 1.387 1_545 S
C484 C487 1.387 . S
H485 C481 0.950 . S
H486 C483 0.950 . S
C487 C478 1.390 . S
C487 H480 0.950 . S
C487 C484 1.387 . S
C488 C489 1.387 . S
C488 H492 0.950 . S
C488 C497 1.390 . S
C489 C488 1.387 . S
C489 C491 1.387 . S
H490 C497 0.950 . S
C491 C489 1.387 . S
C491 C493 1.390 . S
C491 H495 0.950 . S
H492 C488 0.950 . S
C493 C491 1.390 . S
C493 C494 1.387 . S
C493 H496 0.950 . S
C494 C493 1.387 . S
C494 C497 1.387 . S
H495 C491 0.950 . S
H496 C493 0.950 . S
C497 C488 1.390 . S
C497 H490 0.950 . S
C497 C494 1.387 . S
C498 C499 1.387 . S
C498 H502 0.950 . S
C498 C507 1.390 . S
C499 C498 1.387 . S
C499 C501 1.387 . S
H500 C507 0.950 . S
C501 C499 1.387 . S
C501 C503 1.390 . S
C501 H505 0.950 1_455 S
H502 C498 0.950 . S
C503 C501 1.390 . S
C503 C504 1.387 . S
C503 H506 0.950 1_455 S
C504 C503 1.387 . S
C504 C507 1.387 . S
H505 C501 0.950 1_655 S
H506 C503 0.950 1_655 S
C507 C498 1.390 . S
C507 H500 0.950 . S
C507 C504 1.387 . S
C508 C509 1.387 1_545 S
C508 H512 0.950 . S
C508 C517 1.390 . S
C509 C508 1.387 1_565 S
C509 C511 1.387 1_556 S
H510 C517 0.950 . S
C511 C509 1.387 1_554 S
C511 C513 1.390 . S
C511 H515 0.950 . S
H512 C508 0.950 . S
C513 C511 1.390 . S
C513 C514 1.387 1_554 S
C513 H516 0.950 . S
C514 C513 1.387 1_556 S
C514 C517 1.387 1_565 S
H515 C511 0.950 . S
H516 C513 0.950 . S
C517 C508 1.390 . S
C517 H510 0.950 . S
C517 C514 1.387 1_545 S
C518 C519 1.387 . S
C518 H522 0.950 . S
C518 C527 1.390 . S
C519 C518 1.387 . S
C519 C521 1.387 1_545 S
H520 C527 0.950 . S
C521 C519 1.387 1_565 S
C521 C523 1.390 . S
C521 H525 0.950 . S
H522 C518 0.950 . S
C523 C521 1.390 . S
C523 C524 1.387 1_565 S
C523 H526 0.950 . S
C524 C523 1.387 1_545 S
C524 C527 1.387 . S
H525 C521 0.950 . S
H526 C523 0.950 . S
C527 C518 1.390 . S
C527 H520 0.950 . S
C527 C524 1.387 . S
C528 C529 1.387 . S
C528 H532 0.950 . S
C528 C537 1.390 . S
C529 C528 1.387 . S
C529 C531 1.387 . S
H530 C537 0.950 . S
C531 C529 1.387 . S
C531 C533 1.390 . S
C531 H535 0.950 . S
H532 C528 0.950 . S
C533 C531 1.390 . S
C533 C534 1.387 . S
C533 H536 0.950 . S
C534 C533 1.387 . S
C534 C537 1.387 . S
H535 C531 0.950 . S
H536 C533 0.950 . S
C537 C528 1.390 . S
C537 H530 0.950 . S
C537 C534 1.387 . S
C538 C539 1.387 . S
C538 H542 0.950 . S
C538 C547 1.390 . S
C539 C538 1.387 . S
C539 C541 1.387 . S
H540 C547 0.950 . S
C541 C539 1.387 . S
C541 C543 1.390 . S
C541 H545 0.950 . S
H542 C538 0.950 . S
C543 C541 1.390 . S
C543 C544 1.387 . S
C543 H546 0.950 . S
C544 C543 1.387 . S
C544 C547 1.387 . S
H545 C541 0.950 . S
H546 C543 0.950 . S
C547 C538 1.390 . S
C547 H540 0.950 . S
C547 C544 1.387 . S
C548 C549 1.387 1_554 S
C548 H552 0.950 1_655 S
C548 C557 1.390 . S
C549 C548 1.387 1_556 S
C549 C551 1.387 . S
H550 C557 0.950 1_455 S
C551 C549 1.387 . S
C551 C553 1.390 . S
C551 H555 0.950 . S
H552 C548 0.950 1_455 S
C553 C551 1.390 . S
C553 C554 1.387 . S
C553 H556 0.950 . S
C554 C553 1.387 . S
C554 C557 1.387 1_556 S
H555 C551 0.950 . S
H556 C553 0.950 . S
C557 C548 1.390 . S
C557 H550 0.950 1_655 S
C557 C554 1.387 1_554 S
C558 C559 1.387 . S
C558 H562 0.950 . S
C558 C567 1.390 . S
C559 C558 1.387 . S
C559 C561 1.387 . S
H560 C567 0.950 . S
C561 C559 1.387 . S
C561 C563 1.390 . S
C561 H565 0.950 1_554 S
H562 C558 0.950 . S
C563 C561 1.390 . S
C563 C564 1.387 . S
C563 H566 0.951 1_554 S
C564 C563 1.387 . S
C564 C567 1.387 . S
H565 C561 0.950 1_556 S
H566 C563 0.951 1_556 S
C567 C558 1.390 . S
C567 H560 0.950 . S
C567 C564 1.387 . S
C568 C569 1.387 . S
C568 H572 0.950 . S
C568 C577 1.390 . S
C569 C568 1.387 . S
C569 C571 1.387 . S
H570 C577 0.950 . S
C571 C569 1.387 . S
C571 C573 1.390 . S
C571 H575 0.950 . S
H572 C568 0.950 . S
C573 C571 1.390 . S
C573 C574 1.387 . S
C573 H576 0.950 . S
C574 C573 1.387 . S
C574 C577 1.387 . S
H575 C571 0.950 . S
H576 C573 0.950 . S
C577 C568 1.390 . S
C577 H570 0.950 . S
C577 C574 1.387 . S
C578 C579 1.387 . S
C578 H582 0.950 . S
C578 C587 1.390 . S
C579 C578 1.387 . S
C579 C581 1.387 . S
H580 C587 0.950 . S
C581 C579 1.387 . S
C581 C583 1.390 . S
C581 H585 0.950 . S
H582 C578 0.950 . S
C583 C581 1.390 . S
C583 C584 1.387 . S
C583 H586 0.950 . S
C584 C583 1.387 . S
C584 C587 1.387 . S
H585 C581 0.950 . S
H586 C583 0.950 . S
C587 C578 1.390 . S
C587 H580 0.950 . S
C587 C584 1.387 . S
C349 C29 1.552 . S
C354 C274 1.610 . S
C359 C49 1.565 . S
C364 C298 1.516 . S
C374 C318 1.497 . S
C369 C93 1.384 . S
C379 C119 1.348 . S
C384 C341 1.448 . S
C394 C300 1.614 . S
C389 C17 1.606 . S
C404 C276 1.642 . S
C399 C61 1.692 . S
C414 C344 1.544 . S
C409 C81 1.506 . S
C424 C321 1.586 . S
C419 C125 1.527 . S
C429 C23 1.370 . S
C434 C346 1.385 . S
C444 C295 1.602 . S
C439 C87 1.505 . S
C449 C113 1.550 . S
C454 C273 1.644 . S
C459 C55 1.451 . S
C464 C323 1.396 . S
C474 C277 1.681 . S
C469 C157 1.683 . S
C479 C189 1.506 . S
C484 C299 1.640 . S
C489 C221 1.771 . S
C494 C319 1.758 . S
C499 C253 1.600 . S
C504 C342 1.768 . S
C509 C145 1.689 . S
C514 C297 1.624 . S
C524 C275 1.629 . S
C519 C183 1.447 . S
C534 C345 1.542 . S
C529 C209 1.591 . S
C544 C322 1.530 . S
C539 C247 1.459 . S
C549 C151 1.884 . S
C554 C343 1.806 . S
C564 C296 1.616 . S
C559 C215 1.644 . S
C574 C272 1.644 . S
C569 C241 1.502 . S
C579 C177 1.714 . S
C584 C320 1.809 . S
