# Generated by pormake.
# Topology sqc, (4,8)-cn, num edge types: 1
# Building blocks:
#     Node 0, Type 0, BuildingBlock: KUFVIS_clean_linker_0, # of connection points: 4
#     Node 1, Type 0, BuildingBlock: KUFVIS_clean_linker_0, # of connection points: 4
#     Node 2, Type 0, BuildingBlock: KUFVIS_clean_linker_0, # of connection points: 4
#     Node 3, Type 0, BuildingBlock: KUFVIS_clean_linker_0, # of connection points: 4
#     Node 4, Type 0, BuildingBlock: KUFVIS_clean_linker_0, # of connection points: 4
#     Node 5, Type 0, BuildingBlock: KUFVIS_clean_linker_0, # of connection points: 4
#     Node 6, Type 0, BuildingBlock: KUFVIS_clean_linker_0, # of connection points: 4
#     Node 7, Type 0, BuildingBlock: KUFVIS_clean_linker_0, # of connection points: 4
#     Node 8, Type 1, BuildingBlock: TAGTUT_clean_sbu_3, # of connection points: 8
#     Node 9, Type 1, BuildingBlock: TAGTUT_clean_sbu_3, # of connection points: 8
#     Node 10, Type 1, BuildingBlock: TAGTUT_clean_sbu_3, # of connection points: 8
#     Node 11, Type 1, BuildingBlock: TAGTUT_clean_sbu_3, # of connection points: 8
#     Edge 12, Type (0, 1), BuildingBlock: CIFDUS_clean_linker_0, # of connection points: 2
#     Edge 13, Type (0, 1), BuildingBlock: CIFDUS_clean_linker_0, # of connection points: 2
#     Edge 14, Type (0, 1), BuildingBlock: CIFDUS_clean_linker_0, # of connection points: 2
#     Edge 15, Type (0, 1), BuildingBlock: CIFDUS_clean_linker_0, # of connection points: 2
#     Edge 16, Type (0, 1), BuildingBlock: CIFDUS_clean_linker_0, # of connection points: 2
#     Edge 17, Type (0, 1), BuildingBlock: CIFDUS_clean_linker_0, # of connection points: 2
#     Edge 18, Type (0, 1), BuildingBlock: CIFDUS_clean_linker_0, # of connection points: 2
#     Edge 19, Type (0, 1), BuildingBlock: CIFDUS_clean_linker_0, # of connection points: 2
#     Edge 20, Type (0, 1), BuildingBlock: CIFDUS_clean_linker_0, # of connection points: 2
#     Edge 21, Type (0, 1), BuildingBlock: CIFDUS_clean_linker_0, # of connection points: 2
#     Edge 22, Type (0, 1), BuildingBlock: CIFDUS_clean_linker_0, # of connection points: 2
#     Edge 23, Type (0, 1), BuildingBlock: CIFDUS_clean_linker_0, # of connection points: 2
#     Edge 24, Type (0, 1), BuildingBlock: CIFDUS_clean_linker_0, # of connection points: 2
#     Edge 25, Type (0, 1), BuildingBlock: CIFDUS_clean_linker_0, # of connection points: 2
#     Edge 26, Type (0, 1), BuildingBlock: CIFDUS_clean_linker_0, # of connection points: 2
#     Edge 27, Type (0, 1), BuildingBlock: CIFDUS_clean_linker_0, # of connection points: 2
#     Edge 28, Type (0, 1), BuildingBlock: CIFDUS_clean_linker_0, # of connection points: 2
#     Edge 29, Type (0, 1), BuildingBlock: CIFDUS_clean_linker_0, # of connection points: 2
#     Edge 30, Type (0, 1), BuildingBlock: CIFDUS_clean_linker_0, # of connection points: 2
#     Edge 31, Type (0, 1), BuildingBlock: CIFDUS_clean_linker_0, # of connection points: 2
#     Edge 32, Type (0, 1), BuildingBlock: CIFDUS_clean_linker_0, # of connection points: 2
#     Edge 33, Type (0, 1), BuildingBlock: CIFDUS_clean_linker_0, # of connection points: 2
#     Edge 34, Type (0, 1), BuildingBlock: CIFDUS_clean_linker_0, # of connection points: 2
#     Edge 35, Type (0, 1), BuildingBlock: CIFDUS_clean_linker_0, # of connection points: 2
#     Edge 36, Type (0, 1), BuildingBlock: CIFDUS_clean_linker_0, # of connection points: 2
#     Edge 37, Type (0, 1), BuildingBlock: CIFDUS_clean_linker_0, # of connection points: 2
#     Edge 38, Type (0, 1), BuildingBlock: CIFDUS_clean_linker_0, # of connection points: 2
#     Edge 39, Type (0, 1), BuildingBlock: CIFDUS_clean_linker_0, # of connection points: 2
#     Edge 40, Type (0, 1), BuildingBlock: CIFDUS_clean_linker_0, # of connection points: 2
#     Edge 41, Type (0, 1), BuildingBlock: CIFDUS_clean_linker_0, # of connection points: 2
#     Edge 42, Type (0, 1), BuildingBlock: CIFDUS_clean_linker_0, # of connection points: 2
#     Edge 43, Type (0, 1), BuildingBlock: CIFDUS_clean_linker_0, # of connection points: 2
# Relax obj value: 0.174
# Max RMSD: 0.270
# Mean RMSD: 0.221
data_MOF--net-sqc--node1-TAGTUT_clean_sbu_3--node2-KUFVIS_clean_linker_0--edge1-CIFDUS_clean_linker_0
_symmetry_space_group_name_H-M    P1
_symmetry_Int_Tables_number       1
_symmetry_cell_setting            triclinic
loop_
_symmetry_equiv_pos_as_xyz
'x, y, z'
_cell_length_a     21.620292
_cell_length_b     21.514874
_cell_length_c     65.344635
_cell_angle_alpha  90.347524
_cell_angle_beta   90.052101
_cell_angle_gamma 90.02189
loop_
_atom_site_label
_atom_site_type_symbol
_atom_site_fract_x
_atom_site_fract_y
_atom_site_fract_z
_atom_type_partial_charge
H0 H 0.85884 0.03433 0.47197 0.0
H1 H 0.02695 1.00285 0.5053 0.0
H2 H 0.02273 0.98093 0.43993 0.0
H3 H 0.11216 0.93572 0.44466 0.0
H4 H 0.28437 0.98928 0.47136 0.0
H5 H 0.11686 0.04976 0.49973 0.0
C6 C 0.90662 0.01965 0.47245 0.0
C7 C 0.93528 1.00112 0.45418 0.0
C8 C 0.93877 0.02041 0.49108 0.0
C9 C 1.00234 1.00585 0.49095 0.0
C10 C 0.03469 0.99574 0.47249 0.0
C11 C 0.99989 0.99157 0.45419 0.0
C12 C 0.10441 0.99184 0.47248 0.0
C13 C 0.13673 0.96007 0.45668 0.0
C14 C 0.20165 0.96111 0.45599 0.0
C15 C 0.23431 0.98962 0.4719 0.0
C16 C 0.20466 0.02077 0.48787 0.0
C17 C 0.13958 0.02307 0.48785 0.0
H18 H 0.33204 0.91572 0.71452 0.0
H19 H 0.24746 0.7493 0.73759 0.0
H20 H 0.39366 0.74054 0.69254 0.0
H21 H 0.3547 0.65116 0.6852 0.0
H22 H 0.30451 0.48417 0.71566 0.0
H23 H 0.28512 0.65883 0.7472 0.0
C24 C 0.32704 0.86571 0.71489 0.0
C25 C 0.36267 0.83063 0.70128 0.0
C26 C 0.28581 0.83733 0.7285 0.0
C27 C 0.28216 0.77167 0.72831 0.0
C28 C 0.32187 0.73504 0.71584 0.0
C29 C 0.36273 0.76595 0.70252 0.0
C30 C 0.31922 0.66515 0.71613 0.0
C31 C 0.33844 0.62944 0.69906 0.0
C32 C 0.33517 0.56451 0.69933 0.0
C33 C 0.30961 0.53427 0.71617 0.0
C34 C 0.28997 0.56812 0.73335 0.0
C35 C 0.29694 0.63327 0.73345 0.0
H36 H 0.85275 0.05044 -0.01636 0.0
H37 H 0.67177 0.01677 0.00699 0.0
H38 H 0.6984 0.06965 0.94359 0.0
H39 H 0.60607 0.09953 0.94353 0.0
H40 H 0.4291 0.02802 0.95891 0.0
H41 H 0.583 0.98513 -0.0025 0.0
C42 C 0.80315 0.04907 -0.01888 0.0
C43 C 0.77877 0.06544 0.96213 0.0
C44 C 0.76431 0.02967 -0.00314 0.0
C45 C 0.70009 0.02959 -0.00591 0.0
C46 C 0.67398 0.0453 -0.02508 0.0
C47 C 0.71487 0.06164 0.95894 0.0
C48 C 0.6053 0.04261 -0.02884 0.0
C49 C 0.57893 0.07147 0.9538 0.0
C50 C 0.51667 0.06289 0.9489 0.0
C51 C 0.47802 0.03141 0.96242 0.0
C52 C 0.50156 1.00562 -0.01958 0.0
C53 C 0.56536 1.00947 -0.01566 0.0
H54 H 0.38019 0.53789 0.21613 0.0
H55 H 0.37174 0.37038 0.25048 0.0
H56 H 0.31959 0.36907 0.1867 0.0
H57 H 0.27361 0.2807 0.19531 0.0
H58 H 0.34349 0.10916 0.21986 0.0
H59 H 0.41047 0.28 0.24362 0.0
C60 C 0.36978 0.48864 0.21663 0.0
C61 C 0.34494 0.45827 0.19942 0.0
C62 C 0.37948 0.45662 0.23486 0.0
C63 C 0.36628 0.3932 0.23588 0.0
C64 C 0.34782 0.35964 0.2183 0.0
C65 C 0.33604 0.39323 0.20018 0.0
C66 C 0.34343 0.28995 0.21894 0.0
C67 C 0.30422 0.25609 0.20552 0.0
C68 C 0.30376 0.19033 0.20544 0.0
C69 C 0.34081 0.15936 0.21977 0.0
C70 C 0.37583 0.19189 0.23421 0.0
C71 C 0.37961 0.25648 0.23311 0.0
H72 H 0.81941 0.42372 0.21409 0.0
H73 H 0.8652 0.27292 0.25364 0.0
H74 H 0.8667 0.24734 0.18775 0.0
H75 H 0.93916 0.17854 0.19531 0.0
H76 H 0.93535 1.01023 0.22953 0.0
H77 H 0.83685 0.17012 0.25204 0.0
C78 C 0.83145 0.37508 0.2159 0.0
C79 C 0.84279 0.33813 0.19867 0.0
C80 C 0.83899 0.35157 0.23555 0.0
C81 C 0.85781 0.28975 0.23825 0.0
C82 C 0.86779 0.25053 0.2211 0.0
C83 C 0.85988 0.27572 0.20128 0.0
C84 C 0.8874 0.18416 0.22381 0.0
C85 C 0.92375 0.15413 0.20881 0.0
C86 C 0.93995 0.09155 0.21085 0.0
C87 C 0.92225 0.0587 0.22823 0.0
C88 C 0.88495 0.08641 0.2432 0.0
C89 C 0.86779 0.14932 0.24093 0.0
H90 H 0.90172 1.00878 0.7185 0.0
H91 H 0.93305 0.83595 0.74836 0.0
H92 H 0.78957 0.85094 0.7026 0.0
H93 H 0.80754 0.74778 0.69988 0.0
H94 H 0.79183 0.59858 0.74269 0.0
H95 H 0.86645 0.77283 0.76262 0.0
C96 C 0.89215 0.95939 0.71947 0.0
C97 C 0.84431 0.93334 0.70779 0.0
C98 C 0.92267 0.92445 0.73431 0.0
C99 C 0.90796 0.86179 0.73687 0.0
C100 C 0.85924 0.83423 0.72577 0.0
C101 C 0.828 0.87057 0.71105 0.0
C102 C 0.83892 0.7693 0.7306 0.0
C103 C 0.81219 0.73106 0.7154 0.0
C104 C 0.79414 0.66983 0.7198 0.0
C105 C 0.80407 0.64635 0.73948 0.0
C106 C 0.83223 0.68255 0.75474 0.0
C107 C 0.84757 0.74448 0.7504 0.0
H108 H 0.75873 0.49798 -0.02407 0.0
H109 H 0.59068 0.40626 0.95872 0.0
H110 H 0.58497 0.57496 -0.0054 0.0
H111 H 0.4978 0.5292 0.00641 0.0
H112 H 0.33052 0.46567 -0.02225 0.0
H113 H 0.50287 0.45011 0.94575 0.0
C114 C 0.70894 0.49578 -0.02391 0.0
C115 C 0.67594 0.54071 -0.01274 0.0
C116 C 0.67913 0.44805 0.96521 0.0
C117 C 0.61406 0.44486 0.96606 0.0
C118 C 0.57898 0.4906 -0.02353 0.0
C119 C 0.61077 0.53868 -0.01311 0.0
C120 C 0.50945 0.48746 -0.02353 0.0
C121 C 0.47449 0.5086 -0.00661 0.0
C122 C 0.40939 0.50343 -0.00642 0.0
C123 C 0.3798 0.47432 -0.02298 0.0
C124 C 0.41276 0.45542 0.95966 0.0
C125 C 0.47747 0.46287 0.95941 0.0
H126 H 0.39085 0.51147 0.47295 0.0
H127 H 0.23064 0.53135 0.51045 0.0
H128 H 0.22272 0.57295 0.44554 0.0
H129 H 0.13488 0.61202 0.45153 0.0
H130 H 0.9661 0.57083 0.48219 0.0
H131 H 0.1359 0.50728 0.50803 0.0
C132 C 0.34209 0.52265 0.47436 0.0
C133 C 0.30981 0.54578 0.45755 0.0
C134 C 0.31268 0.51665 0.49322 0.0
C135 C 0.25061 0.53367 0.49533 0.0
C136 C 0.21525 0.55193 0.47819 0.0
C137 C 0.24651 0.55882 0.45926 0.0
C138 C 0.1463 0.56076 0.47997 0.0
C139 C 0.11227 0.5911 0.46449 0.0
C140 C 0.04755 0.5917 0.46483 0.0
C141 C 0.01615 0.56802 0.48177 0.0
C142 C 0.04833 0.5392 0.49772 0.0
C143 C 0.11293 0.53443 0.49647 0.0
C144 C 0.17117 0.66949 0.11924 0.0
C145 C 0.95535 0.56754 0.11442 0.0
C146 C 0.93409 0.67587 0.05964 0.0
Mg147 Mg 0.22402 0.79947 0.10216 0.0
Mg148 Mg 0.13885 0.91534 0.08437 0.0
O149 O 0.15138 0.83001 0.08609 0.0
Mg150 Mg 0.08893 0.76794 0.09454 0.0
O151 O 0.03245 0.69995 0.10305 0.0
Mg152 Mg 0.06593 0.63275 0.08477 0.0
Mg153 Mg 0.94666 0.7084 0.10512 0.0
C154 C 0.00975 0.86965 0.06677 0.0
O155 O 0.0436 0.83053 0.11887 0.0
O156 O 0.28435 0.86765 0.08314 0.0
O157 O 0.94481 0.79704 0.12142 0.0
O158 O 0.21058 0.87689 0.12737 0.0
O159 O 0.22094 0.93517 0.06725 0.0
O160 O 0.15018 0.95142 0.11435 0.0
O161 O 0.13127 0.70405 0.07001 0.0
O162 O 0.23058 0.72616 0.07726 0.0
C163 C 0.18964 0.69486 0.06743 0.0
C164 C 0.27457 0.91192 0.07045 0.0
O165 O 0.01941 0.81296 0.07203 0.0
O166 O 1.00282 0.56507 0.10265 0.0
O167 O 0.04729 0.91411 0.07104 0.0
O168 O 0.98621 0.6472 0.06052 0.0
O169 O 0.92698 0.61863 0.11835 0.0
O170 O 0.91247 0.70621 0.07482 0.0
O171 O 0.1585 0.72772 0.11739 0.0
O172 O 0.14176 0.62739 0.10912 0.0
C173 C 0.18254 0.92937 0.12888 0.0
C174 C 0.98817 0.83593 0.12569 0.0
C175 C 0.71853 0.85362 0.37068 0.0
C176 C 0.80942 0.63229 0.37341 0.0
C177 C 0.72143 0.60693 0.31431 0.0
Mg178 Mg 0.59392 0.90515 0.34918 0.0
Mg179 Mg 0.47989 0.81324 0.33476 0.0
O180 O 0.56475 0.83011 0.33375 0.0
Mg181 Mg 0.62399 0.76853 0.34469 0.0
O182 O 0.68777 0.71193 0.35575 0.0
Mg183 Mg 0.76139 0.74075 0.33973 0.0
Mg184 Mg 0.67426 0.62657 0.35752 0.0
C185 C 0.52708 0.68755 0.3156 0.0
O186 O 0.5548 0.72717 0.36831 0.0
O187 O 0.52711 0.9607 0.3281 0.0
O188 O 0.58476 0.62757 0.3722 0.0
O189 O 0.51435 0.89918 0.37299 0.0
O190 O 0.45188 0.89415 0.31839 0.0
O191 O 0.44647 0.8248 0.36502 0.0
O192 O 0.69551 0.80535 0.32126 0.0
O193 O 0.67069 0.90592 0.32583 0.0
C194 C 0.7047 0.8636 0.31777 0.0
C195 C 0.47728 0.94797 0.31815 0.0
O196 O 0.5829 0.69807 0.32151 0.0
O197 O 0.81976 0.67922 0.36179 0.0
O198 O 0.48129 0.7225 0.3205 0.0
O199 O 0.75452 0.65617 0.31653 0.0
O200 O 0.75675 0.60509 0.37417 0.0
O201 O 0.68176 0.59032 0.32756 0.0
O202 O 0.66089 0.84162 0.3675 0.0
O203 O 0.76169 0.82112 0.36244 0.0
C204 C 0.46529 0.86796 0.37688 0.0
C205 C 0.54692 0.67232 0.37565 0.0
C206 C 0.69276 0.16068 0.6273 0.0
C207 C 0.472 0.06888 0.61757 0.0
C208 C 0.47325 0.15315 0.55962 0.0
Mg209 Mg 0.75415 0.28725 0.60785 0.0
Mg210 Mg 0.66758 0.4033 0.59159 0.0
O211 O 0.68293 0.31786 0.59118 0.0
Mg212 Mg 0.61882 0.25681 0.59879 0.0
O213 O 0.55881 0.19134 0.60643 0.0
Mg214 Mg 0.5951 0.11898 0.59117 0.0
Mg215 Mg 0.47438 0.20523 0.60242 0.0
C216 C 0.54513 0.3568 0.56979 0.0
O217 O 0.5674 0.32408 0.62107 0.0
O218 O 0.81467 0.3545 0.5877 0.0
O219 O 0.46783 0.29451 0.61751 0.0
O220 O 0.74198 0.36358 0.6326 0.0
O221 O 0.74898 0.42577 0.57481 0.0
O222 O 0.67592 0.43645 0.62225 0.0
O223 O 0.66422 0.18701 0.576 0.0
O224 O 0.76138 0.21301 0.58401 0.0
C225 C 0.72299 0.17892 0.57418 0.0
C226 C 0.8026 0.40079 0.57593 0.0
O227 O 0.55564 0.29964 0.57421 0.0
O228 O 0.52499 0.05899 0.60926 0.0
O229 O 0.57873 0.40186 0.5764 0.0
O230 O 0.52212 0.12341 0.56487 0.0
O231 O 0.44458 0.12164 0.61692 0.0
O232 O 0.45063 0.19569 0.57097 0.0
O233 O 0.68487 0.21903 0.6238 0.0
O234 O 0.66316 0.11866 0.61737 0.0
C235 C 0.71169 0.41379 0.63578 0.0
C236 C 0.50921 0.33186 0.6245 0.0
C237 C 0.19193 0.32399 0.8714 0.0
C238 C 0.29542 0.11374 0.85676 0.0
C239 C 0.17234 0.10102 0.80507 0.0
Mg240 Mg 0.05295 0.37644 0.85968 0.0
Mg241 Mg 0.9369 0.28586 0.84452 0.0
O242 O 0.02088 0.3046 0.84348 0.0
Mg243 Mg 0.08871 0.2445 0.84808 0.0
O244 O 0.16113 0.18958 0.85223 0.0
Mg245 Mg 0.21972 0.22912 0.8325 0.0
Mg246 Mg 0.15403 0.10339 0.85106 0.0
C247 C 0.98478 0.16535 0.82169 0.0
O248 O 0.0382 0.18913 0.87338 0.0
O249 O 0.97483 0.43534 0.84423 0.0
O250 O 0.078 0.09221 0.87194 0.0
O251 O 0.98506 0.35543 0.88725 0.0
O252 O 0.90263 0.37038 0.83146 0.0
O253 O 0.91249 0.28966 0.87569 0.0
O254 O 0.14079 0.29413 0.8222 0.0
O255 O 0.11484 0.39054 0.83217 0.0
C256 C 0.14399 0.35352 0.82014 0.0
C257 C 0.92464 0.42516 0.83414 0.0
O258 O 0.04132 0.17867 0.82563 0.0
O259 O 0.29511 0.16545 0.847 0.0
O260 O 0.9388 0.19704 0.82851 0.0
O261 O 0.20187 0.15279 0.80669 0.0
O262 O 0.24625 0.08226 0.86009 0.0
O263 O 0.14391 0.07728 0.82016 0.0
O264 O 0.13338 0.31196 0.87133 0.0
O265 O 0.22906 0.29867 0.85847 0.0
C266 C 0.93589 0.32275 0.88995 0.0
C267 C 0.03985 0.13214 0.87926 0.0
H268 H 0.2967 0.01731 0.43728 0.0
H269 H 0.18942 0.8483 0.43576 0.0
H270 H 0.26324 0.80279 0.41123 0.0
H271 H 0.36147 0.81063 0.39171 0.0
H272 H 0.47361 0.97607 0.39833 0.0
H273 H 0.39616 0.02201 0.4206 0.0
C274 C 0.28954 0.97015 0.43177 0.0
C275 C 0.23822 0.93584 0.43859 0.0
C276 C 0.334 0.94314 0.41912 0.0
C277 C 0.22844 0.87577 0.4307 0.0
C278 C 0.27114 0.84951 0.41696 0.0
C279 C 0.36946 0.85626 0.39832 0.0
C280 C 0.42351 0.88976 0.39332 0.0
C281 C 0.32484 0.88242 0.41143 0.0
C282 C 0.43292 0.94893 0.40197 0.0
C283 C 0.38827 0.97566 0.41454 0.0
H284 H 0.30805 0.90404 0.67415 0.0
H285 H 0.48546 0.82771 0.69037 0.0
H286 H 0.53532 0.89065 0.66373 0.0
H287 H 0.52823 0.975 0.6382 0.0
H288 H 0.34942 0.05262 0.62367 0.0
H289 H 0.29983 0.98089 0.64721 0.0
C290 C 0.35765 0.90107 0.67174 0.0
C291 C 0.39351 0.86262 0.68425 0.0
C292 C 0.38542 0.93752 0.65677 0.0
C293 C 0.45737 0.85765 0.68088 0.0
C294 C 0.48565 0.89362 0.66574 0.0
C295 C 0.47833 0.97523 0.63993 0.0
C296 C 0.44244 0.01922 0.6294 0.0
C297 C 0.4502 0.93477 0.6539 0.0
C298 C 0.37793 0.01955 0.63182 0.0
C299 C 0.34957 0.97867 0.64526 0.0
H300 H 0.46735 0.98929 0.92014 0.0
H301 H 0.51141 0.18061 0.93332 0.0
H302 H 0.45604 0.21324 0.90235 0.0
H303 H 0.38067 0.18764 0.87513 0.0
H304 H 0.33338 0.99577 0.86355 0.0
H305 H 0.40573 0.96259 0.88999 0.0
C306 C 0.46537 0.03804 0.916 0.0
C307 C 0.49189 0.08279 0.92899 0.0
C308 C 0.43291 0.05614 0.89853 0.0
C309 C 0.4905 0.14569 0.92351 0.0
C310 C 0.45876 0.16421 0.9059 0.0
C311 C 0.38804 0.13852 0.8779 0.0
C312 C 0.35163 0.09409 0.8676 0.0
C313 C 0.42784 0.11997 0.89372 0.0
C314 C 0.36083 0.03063 0.87143 0.0
C315 C 0.40172 0.01172 0.88664 0.0
H316 H 0.2553 0.07223 0.2096 0.0
H317 H 0.26886 0.22311 0.16626 0.0
H318 H 0.22315 0.15717 0.14001 0.0
H319 H 0.19281 0.0537 0.12799 0.0
H320 H 0.20253 0.89757 0.16895 0.0
H321 H 0.22959 0.96793 0.1973 0.0
C322 C 0.25009 0.09095 0.19435 0.0
C323 C 0.26758 0.15296 0.19009 0.0
C324 C 0.22905 0.05121 0.17875 0.0
C325 C 0.25592 0.17625 0.17037 0.0
C326 C 0.23049 0.13813 0.15514 0.0
C327 C 0.2 0.03511 0.14321 0.0
C328 C 0.19495 0.97068 0.14652 0.0
C329 C 0.21883 0.07515 0.15901 0.0
C330 C 0.2061 0.947 0.16611 0.0
C331 C 0.22142 0.98722 0.18226 0.0
H332 H 0.31228 0.9793 0.5043 0.0
H333 H 0.18705 0.13543 0.50646 0.0
H334 H 0.26138 0.19297 0.52772 0.0
H335 H 0.36388 0.19937 0.54473 0.0
H336 H 0.49198 0.0463 0.53796 0.0
H337 H 0.41617 0.98937 0.51781 0.0
C338 C 0.30126 0.02642 0.50903 0.0
C339 C 0.24418 0.0531 0.50343 0.0
C340 C 0.34568 0.06064 0.51983 0.0
C341 C 0.23016 0.11323 0.51061 0.0
C342 C 0.27319 0.14661 0.52246 0.0
C343 C 0.37573 0.15407 0.5385 0.0
C344 C 0.43369 0.12711 0.54309 0.0
C345 C 0.3316 0.12109 0.52687 0.0
C346 C 0.44809 0.06848 0.53475 0.0
C347 C 0.40437 0.03537 0.52343 0.0
H348 H 0.24638 0.95939 0.72414 0.0
H349 H 0.2407 0.80536 0.76652 0.0
H350 H 0.19382 0.87234 0.79205 0.0
H351 H 0.16941 0.9762 0.80432 0.0
H352 H 0.19626 0.1346 0.76513 0.0
H353 H 0.22258 0.06448 0.73661 0.0
C354 C 0.23647 0.94006 0.73903 0.0
C355 C 0.2491 0.87669 0.7432 0.0
C356 C 0.21412 0.9801 0.75441 0.0
C357 C 0.23163 0.85312 0.76241 0.0
C358 C 0.2054 0.89181 0.77727 0.0
C359 C 0.17997 0.99569 0.78946 0.0
C360 C 0.18061 0.06068 0.78682 0.0
C361 C 0.19854 0.9556 0.77367 0.0
C362 C 0.19551 0.08485 0.76754 0.0
C363 C 0.21061 0.04472 0.7513 0.0
H364 H 0.50341 0.01517 0.02202 0.0
H365 H 0.40314 0.92974 -0.02797 0.0
H366 H 0.32374 0.89441 -0.00431 0.0
H367 H 0.27973 0.89271 0.03021 0.0
H368 H 0.38215 0.9705 0.08076 0.0
H369 H 0.4645 1.00367 0.05728 0.0
C370 C 0.46489 0.98771 0.01636 0.0
C371 C 0.45868 0.97618 -0.00478 0.0
C372 C 0.41963 0.96683 0.03009 0.0
C373 C 0.40826 0.9407 -0.01185 0.0
C374 C 0.36291 0.92026 0.00166 0.0
C375 C 0.32027 0.91691 0.03599 0.0
C376 C 0.32507 0.93043 0.05692 0.0
C377 C 0.36747 0.93425 0.02255 0.0
C378 C 0.37784 0.96044 0.06456 0.0
C379 C 0.42468 0.97918 0.05118 0.0
H380 H 0.31955 0.10869 0.25801 0.0
H381 H 0.49523 0.19897 0.24878 0.0
H382 H 0.5416 0.1349 0.27576 0.0
H383 H 0.53306 0.04707 0.29995 0.0
H384 H 0.35671 0.95556 0.30737 0.0
H385 H 0.30954 0.02644 0.28306 0.0
C386 C 0.36808 0.11424 0.2619 0.0
C387 C 0.40434 0.15742 0.25129 0.0
C388 C 0.39416 0.07699 0.27703 0.0
C389 C 0.46664 0.1656 0.25675 0.0
C390 C 0.49307 0.12892 0.27208 0.0
C391 C 0.48416 0.04339 0.29644 0.0
C392 C 0.44849 0.9959 0.30528 0.0
C393 C 0.45744 0.08363 0.28206 0.0
C394 C 0.38525 0.99131 0.30057 0.0
C395 C 0.3582 0.03178 0.28668 0.0
H396 H 0.81473 1.00921 0.5013 0.0
H397 H 0.98951 0.07882 0.52464 0.0
H398 H 0.93732 0.12148 0.55409 0.0
H399 H 0.84356 0.15149 0.57087 0.0
H400 H 0.66563 0.10305 0.54519 0.0
H401 H 0.71795 0.04046 0.5187 0.0
C402 C 0.84171 0.03445 0.51258 0.0
C403 C 0.90664 0.04068 0.51028 0.0
C404 C 0.81074 0.06348 0.52896 0.0
C405 C 0.94016 0.0715 0.52579 0.0
C406 C 0.91013 0.09699 0.54266 0.0
C407 C 0.81548 0.12737 0.55957 0.0
C408 C 0.75054 0.13309 0.55981 0.0
C409 C 0.84557 0.09495 0.544 0.0
C410 C 0.71563 0.09993 0.54527 0.0
C411 C 0.74562 0.06449 0.5301 0.0
H412 H 0.84468 0.96581 0.24173 0.0
H413 H 0.87113 0.12042 0.28335 0.0
H414 H 0.8267 0.05954 0.31111 0.0
H415 H 0.77248 0.96661 0.32267 0.0
H416 H 0.7432 0.8126 0.28129 0.0
H417 H 0.80047 0.8678 0.25448 0.0
C418 C 0.84211 0.98591 0.25696 0.0
C419 C 0.86093 0.04806 0.26037 0.0
C420 C 0.81688 0.95044 0.2729 0.0
C421 C 0.85598 0.07335 0.28017 0.0
C422 C 0.83113 0.03834 0.29609 0.0
C423 C 0.77984 0.94453 0.30789 0.0
C424 C 0.75336 0.88593 0.30382 0.0
C425 C 0.81041 0.97742 0.2925 0.0
C426 C 0.76359 0.85743 0.28477 0.0
C427 C 0.79545 0.88946 0.2694 0.0
H428 H 0.79369 0.91088 0.004 0.0
H429 H 0.80326 0.09502 0.02998 0.0
H430 H 0.87676 0.05886 0.05588 0.0
H431 H 0.9487 0.97882 0.06761 0.0
H432 H 0.94433 0.79592 0.04029 0.0
H433 H 0.8575 0.82686 0.01856 0.0
C434 C 0.81043 0.94224 0.01584 0.0
C435 C 0.79312 1.00509 0.01546 0.0
C436 C 0.85422 0.92154 0.03009 0.0
C437 C 0.81565 0.04624 0.03038 0.0
C438 C 0.85804 0.02571 0.04496 0.0
C439 C 0.92837 0.9456 0.057 0.0
C440 C 0.95318 0.88541 0.05532 0.0
C441 C 0.87947 0.96414 0.04439 0.0
C442 C 0.92574 0.84238 0.04187 0.0
C443 C 0.87643 0.86023 0.02937 0.0
H444 H 0.88577 0.93535 0.7728 0.0
H445 H 0.02945 0.99216 0.73131 0.0
H446 H 0.06599 0.06935 0.75635 0.0
H447 H 0.04748 0.12911 0.78804 0.0
H448 H 0.89435 0.08007 0.827 0.0
H449 H 0.87051 0.99097 0.80496 0.0
C450 C 0.92649 0.96323 0.76962 0.0
C451 C 0.95575 0.95802 0.75057 0.0
C452 C 0.94443 1.00949 0.78345 0.0
C453 C 1.00717 0.99525 0.74612 0.0
C454 C 0.02753 0.03953 0.76032 0.0
C455 C 0.00954 0.0982 0.79178 0.0
C456 C 0.97236 0.11072 0.80891 0.0
C457 C 0.99503 0.04852 0.7787 0.0
C458 C 0.92283 0.07133 0.81365 0.0
C459 C 0.90953 0.02038 0.80117 0.0
H460 H 0.81623 0.95823 0.45267 0.0
H461 H 0.96584 0.0175 0.41341 0.0
H462 H 0.90629 0.98545 0.38347 0.0
H463 H 0.81709 0.92961 0.36891 0.0
H464 H 0.66647 0.87487 0.40805 0.0
H465 H 0.71972 0.92064 0.43762 0.0
C466 C 0.83556 0.9664 0.43763 0.0
C467 C 0.89648 0.98948 0.43555 0.0
C468 C 0.80046 0.94946 0.42042 0.0
C469 C 0.92024 0.99805 0.41572 0.0
C470 C 0.88584 0.98043 0.39851 0.0
C471 C 0.79513 0.92955 0.38384 0.0
C472 C 0.73834 0.89856 0.38644 0.0
C473 C 0.82668 0.9545 0.40075 0.0
C474 C 0.70994 0.89888 0.40572 0.0
C475 C 0.74088 0.92415 0.42264 0.0
H476 H 0.87803 0.05651 0.17752 0.0
H477 H 0.05593 0.04356 0.20679 0.0
H478 H 0.08836 0.96487 0.18174 0.0
H479 H 0.06276 0.8939 0.15321 0.0
H480 H 0.8799 0.89932 0.1268 0.0
H481 H 0.85288 0.98751 0.14874 0.0
C482 C 0.92463 0.03779 0.17787 0.0
C483 C 0.96524 0.05623 0.19349 0.0
C484 C 0.94177 0.99098 0.16404 0.0
C485 C 0.02474 0.03064 0.19449 0.0
C486 C 0.04307 0.98557 0.18027 0.0
C487 C 0.01726 0.9149 0.15218 0.0
C488 C 0.97317 0.89017 0.13857 0.0
C489 C 1.00147 0.96435 0.16527 0.0
C490 C 0.9142 0.91722 0.1374 0.0
C491 C 0.89888 0.96778 0.14983 0.0
H492 H 0.88642 0.01142 0.95054 0.0
H493 H 0.76368 0.1632 0.93621 0.0
H494 H 0.83321 0.19649 0.90891 0.0
H495 H 0.92982 0.18338 0.8897 0.0
H496 H 0.05306 0.03277 0.90451 0.0
H497 H 0.98254 0.99827 0.93125 0.0
C498 C 0.87527 0.05219 0.94158 0.0
C499 C 0.82034 0.08502 0.94541 0.0
C500 C 0.9156 0.07143 0.92613 0.0
C501 C 0.80564 0.13697 0.93341 0.0
C502 C 0.84551 0.15631 0.91794 0.0
C503 C 0.94152 0.14367 0.89895 0.0
C504 C 0.99677 0.11134 0.89529 0.0
C505 C 0.90079 0.12412 0.91427 0.0
C506 C 0.01068 0.05855 0.90701 0.0
C507 C 0.97051 0.03884 0.92233 0.0
H508 H 0.88561 0.02795 0.68336 0.0
H509 H 0.71894 0.93305 0.70215 0.0
H510 H 0.65735 1.00196 0.68097 0.0
H511 H 0.65076 0.08546 0.65609 0.0
H512 H 0.81512 0.1815 0.63666 0.0
H513 H 0.8777 0.11825 0.66018 0.0
C514 C 0.83575 0.02266 0.683 0.0
C515 C 0.80726 0.97437 0.69415 0.0
C516 C 0.8002 0.0636 0.67111 0.0
C517 C 0.74257 0.9682 0.69331 0.0
C518 C 0.70709 1.00831 0.68145 0.0
C519 C 0.70019 0.09356 0.65741 0.0
C520 C 0.72855 0.13811 0.64488 0.0
C521 C 0.73545 0.05574 0.67023 0.0
C522 C 0.79241 0.14819 0.64649 0.0
C523 C 0.82808 0.11129 0.65965 0.0
H524 H 0.79974 0.40706 -0.02951 0.0
H525 H 0.64373 0.39149 0.92915 0.0
H526 H 0.70908 0.34019 0.90415 0.0
H527 H 0.81211 0.31731 0.89145 0.0
H528 H 0.97197 0.3522 0.92938 0.0
H529 H 0.90378 0.38149 0.95794 0.0
C530 C 0.77969 0.39368 0.95592 0.0
C531 C 0.71646 0.4055 0.95175 0.0
C532 C 0.81873 0.36889 0.94076 0.0
C533 C 0.69161 0.38345 0.93315 0.0
C534 C 0.72934 0.35476 0.91858 0.0
C535 C 0.83232 0.33016 0.90608 0.0
C536 C 0.89711 0.33243 0.90834 0.0
C537 C 0.79322 0.34987 0.92188 0.0
C538 C 0.92231 0.35014 0.92729 0.0
C539 C 0.88329 0.36689 0.94355 0.0
H540 H 0.93462 0.33362 0.1706 0.0
H541 H 0.75487 0.41326 0.18193 0.0
H542 H 0.77136 0.48877 0.1547 0.0
H543 H 0.84408 0.5428 0.13205 0.0
H544 H 0.02449 0.46357 0.12102 0.0
H545 H 1.00026 0.37695 0.14352 0.0
C546 C 0.89818 0.36597 0.16657 0.0
C547 C 0.84406 0.36861 0.17841 0.0
C548 C 0.90868 0.41028 0.15126 0.0
C549 C 0.79725 0.41097 0.17312 0.0
C550 C 0.80685 0.45442 0.15768 0.0
C551 C 0.87772 0.50608 0.13434 0.0
C552 C 0.93642 0.51039 0.12523 0.0
C553 C 0.86364 0.45644 0.14738 0.0
C554 C 0.97909 0.46177 0.12799 0.0
C555 C 0.96537 0.41219 0.14091 0.0
H556 H 0.96448 0.52055 0.44542 0.0
H557 H 0.05317 0.69964 0.44261 0.0
H558 H 0.99115 0.72617 0.41234 0.0
H559 H 0.90662 0.70001 0.38821 0.0
H560 H 0.81864 0.52014 0.39196 0.0
H561 H 0.88623 0.49188 0.42023 0.0
C562 C 0.96998 0.56551 0.43819 0.0
C563 C 0.0121 0.60868 0.44634 0.0
C564 C 0.93467 0.57998 0.42094 0.0
C565 C 0.02036 0.66607 0.43662 0.0
C566 C 0.98504 0.68109 0.41936 0.0
C567 C 0.9031 0.65423 0.39497 0.0
C568 C 0.85739 0.61237 0.38807 0.0
C569 C 0.94146 0.6386 0.41154 0.0
C570 C 0.85309 0.55337 0.39707 0.0
C571 C 0.89156 0.5372 0.41328 0.0
H572 H 0.82265 0.5488 0.71274 0.0
H573 H 0.70832 0.69823 0.6904 0.0
H574 H 0.66794 0.63 0.66342 0.0
H575 H 0.66905 0.52945 0.64542 0.0
H576 H 0.78345 0.38053 0.66832 0.0
H577 H 0.81773 0.44665 0.69651 0.0
C578 C 0.78797 0.56629 0.70224 0.0
C579 C 0.76849 0.62855 0.7036 0.0
C580 C 0.7646 0.5268 0.687 0.0
C581 C 0.72468 0.65071 0.68952 0.0
C582 C 0.70124 0.61161 0.67421 0.0
C583 C 0.70085 0.51108 0.65672 0.0
C584 C 0.72418 0.45026 0.65459 0.0
C585 C 0.72137 0.54974 0.6727 0.0
C586 C 0.76506 0.42724 0.66947 0.0
C587 C 0.78498 0.46512 0.68555 0.0
H588 H 0.79008 0.59425 -0.01963 0.0
H589 H 0.64113 0.58938 0.02451 0.0
H590 H 0.70647 0.64222 0.04937 0.0
H591 H 0.80996 0.67162 0.06072 0.0
H592 H 0.96441 0.65634 0.01925 0.0
H593 H 0.89356 0.62679 -0.00855 0.0
C594 C 0.77172 0.60383 -0.00451 0.0
C595 C 0.71079 0.58558 0.00057 0.0
C596 C 0.81122 0.62933 0.01038 0.0
C597 C 0.6874 0.60244 0.01992 0.0
C598 C 0.72519 0.63195 0.03434 0.0
C599 C 0.82815 0.66296 0.04549 0.0
C600 C 0.89236 0.66598 0.042 0.0
C601 C 0.7878 0.64285 0.03004 0.0
C602 C 0.91523 0.6539 0.02229 0.0
C603 C 0.87472 0.63709 0.00646 0.0
H604 H 0.72906 0.38788 0.25023 0.0
H605 H 0.92506 0.41408 0.25788 0.0
H606 H 0.90622 0.50156 0.28139 0.0
H607 H 0.83303 0.57178 0.2992 0.0
H608 H 0.63729 0.53805 0.29365 0.0
H609 H 0.65635 0.45397 0.2693 0.0
C610 C 0.76741 0.41202 0.25748 0.0
C611 C 0.82818 0.39428 0.25285 0.0
C612 C 0.7561 0.46219 0.27073 0.0
C613 C 0.87791 0.42635 0.26179 0.0
C614 C 0.8671 0.47678 0.27493 0.0
C615 C 0.79472 0.5468 0.29226 0.0
C616 C 0.73367 0.56276 0.29747 0.0
C617 C 0.80632 0.4957 0.27928 0.0
C618 C 0.68442 0.52833 0.28914 0.0
C619 C 0.69538 0.47945 0.27554 0.0
H620 H 0.94179 0.47314 0.4956 0.0
H621 H 0.07763 0.54065 0.5387 0.0
H622 H 0.01667 0.49885 0.56708 0.0
H623 H 0.91993 0.44891 0.57976 0.0
H624 H 0.78243 0.39018 0.53589 0.0
H625 H 0.84828 0.4233 0.50776 0.0
C626 C 0.95792 0.47939 0.5112 0.0
C627 C 0.01371 0.51085 0.515 0.0
C628 C 0.92204 0.45687 0.52735 0.0
C629 C 0.03481 0.51653 0.53532 0.0
C630 C 0.9998 0.49296 0.55157 0.0
C631 C 0.90511 0.44301 0.56401 0.0
C632 C 0.84667 0.41741 0.55976 0.0
C633 C 0.94274 0.46381 0.5478 0.0
C634 C 0.82728 0.41016 0.53939 0.0
C635 C 0.86481 0.42904 0.52332 0.0
H636 H 0.76759 0.59961 0.7778 0.0
H637 H 0.94193 0.69696 0.77514 0.0
H638 H 0.98328 0.63093 0.80211 0.0
H639 H 0.97541 0.5351 0.82233 0.0
H640 H 0.80405 0.43211 0.82232 0.0
H641 H 0.75645 0.51012 0.80042 0.0
C642 C 0.81446 0.6068 0.78326 0.0
C643 C 0.85181 0.65256 0.77418 0.0
C644 C 0.83892 0.56681 0.79809 0.0
C645 C 0.9119 0.66233 0.78185 0.0
C646 C 0.93592 0.62402 0.79713 0.0
C647 C 0.92727 0.53043 0.81789 0.0
C648 C 0.89354 0.47751 0.82376 0.0
C649 C 0.90068 0.57454 0.80476 0.0
C650 C 0.83127 0.472 0.8178 0.0
C651 C 0.80399 0.51661 0.80528 0.0
H652 H 0.29525 0.55738 -0.00908 0.0
H653 H 0.43696 0.50874 0.03474 0.0
H654 H 0.37698 0.55799 0.06194 0.0
H655 H 0.28828 0.6211 0.07271 0.0
H656 H 0.1447 0.66587 0.02941 0.0
H657 H 0.20004 0.60796 0.00263 0.0
C658 C 0.31265 0.55582 0.00647 0.0
C659 C 0.37128 0.52967 0.0106 0.0
C660 C 0.27719 0.58274 0.02214 0.0
C661 C 0.39303 0.52978 0.03089 0.0
C662 C 0.35837 0.55732 0.04653 0.0
C663 C 0.26855 0.61707 0.05748 0.0
C664 C 0.21297 0.64801 0.05287 0.0
C665 C 0.30102 0.58482 0.04223 0.0
C666 C 0.18728 0.64208 0.03326 0.0
C667 C 0.21931 0.60971 0.01794 0.0
H668 H 0.3162 0.45297 0.74934 0.0
H669 H 0.1924 0.60969 0.75599 0.0
H670 H 0.13816 0.55677 0.78331 0.0
H671 H 0.12362 0.46647 0.80456 0.0
H672 H 0.2409 0.30554 0.79741 0.0
H673 H 0.29873 0.3591 0.77031 0.0
C674 C 0.27704 0.47542 0.75662 0.0
C675 C 0.25901 0.53578 0.75063 0.0
C676 C 0.24449 0.44381 0.772 0.0
C677 C 0.20858 0.56418 0.76052 0.0
C678 C 0.17692 0.53362 0.77602 0.0
C679 C 0.16208 0.44288 0.7972 0.0
C680 C 0.17847 0.38233 0.80314 0.0
C681 C 0.19437 0.47356 0.78179 0.0
C682 C 0.22749 0.35217 0.79311 0.0
C683 C 0.2606 0.38291 0.77772 0.0
H684 H 0.36067 0.40194 0.49713 0.0
H685 H 0.34166 0.57796 0.52828 0.0
H686 H 0.40863 0.54143 0.556 0.0
H687 H 0.47906 0.46277 0.56957 0.0
H688 H 0.49665 0.28537 0.53899 0.0
H689 H 0.42227 0.31831 0.51294 0.0
C690 C 0.37094 0.43176 0.51014 0.0
C691 C 0.34747 0.49253 0.51077 0.0
C692 C 0.40889 0.41024 0.52597 0.0
C693 C 0.35983 0.53106 0.52764 0.0
C694 C 0.39804 0.51025 0.54338 0.0
C695 C 0.46619 0.43118 0.55728 0.0
C696 C 0.49392 0.37229 0.55591 0.0
C697 C 0.42384 0.45048 0.54244 0.0
C698 C 0.47595 0.33108 0.54025 0.0
C699 C 0.43383 0.35003 0.52532 0.0
H700 H 0.48792 0.51772 0.23844 0.0
H701 H 0.32275 0.46977 0.27165 0.0
H702 H 0.35698 0.53326 0.3008 0.0
H703 H 0.42985 0.60923 0.31543 0.0
H704 H 0.59605 0.65579 0.28252 0.0
H705 H 0.56626 0.5852 0.25467 0.0
C706 C 0.45992 0.52099 0.25218 0.0
C707 C 0.4028 0.49015 0.253 0.0
C708 C 0.48013 0.55706 0.26882 0.0
C709 C 0.36686 0.49355 0.27083 0.0
C710 C 0.38633 0.52981 0.2874 0.0
C711 C 0.45989 0.60291 0.30228 0.0
C712 C 0.51491 0.63723 0.3009 0.0
C713 C 0.44229 0.56267 0.28639 0.0
C714 C 0.5537 0.62918 0.28389 0.0
C715 C 0.53644 0.58934 0.26793 0.0
H716 H 0.29772 0.4852 0.9447 0.0
H717 H 0.45142 0.35963 0.93518 0.0
H718 H 0.39608 0.31006 0.90711 0.0
H719 H 0.30471 0.29986 0.88613 0.0
H720 H 0.14654 0.4185 0.89613 0.0
H721 H 0.20251 0.47186 0.92403 0.0
C722 C 0.31896 0.44649 0.93668 0.0
C723 C 0.37914 0.42656 0.9421 0.0
C724 C 0.28596 0.41656 0.92091 0.0
C725 C 0.40604 0.37705 0.93118 0.0
C726 C 0.37411 0.34808 0.91526 0.0
C727 C 0.28225 0.33779 0.89425 0.0
C728 C 0.22184 0.35602 0.88887 0.0
C729 C 0.31422 0.36733 0.9101 0.0
C730 C 0.19306 0.40391 0.89996 0.0
C731 C 0.22517 0.4344 0.9158 0.0
H732 H 0.45428 0.54735 0.68821 0.0
H733 H 0.26724 0.49685 0.67252 0.0
H734 H 0.30532 0.42387 0.64655 0.0
H735 H 0.39104 0.36911 0.63051 0.0
H736 H 0.57902 0.41299 0.64765 0.0
H737 H 0.54161 0.49468 0.6707 0.0
C738 C 0.4222 0.52098 0.67878 0.0
C739 C 0.35826 0.5272 0.682 0.0
C740 C 0.44458 0.47785 0.66435 0.0
C741 C 0.31663 0.49258 0.67008 0.0
C742 C 0.3384 0.45086 0.65536 0.0
C743 C 0.42411 0.39656 0.63919 0.0
C744 C 0.48789 0.38458 0.63739 0.0
C745 C 0.4022 0.44215 0.65272 0.0
C746 C 0.52979 0.42129 0.64865 0.0
C747 C 0.50835 0.46782 0.66192 0.0
H748 H 0.33693 0.65861 0.44248 0.0
H749 H 0.36196 0.46273 0.43138 0.0
H750 H 0.43384 0.48524 0.40339 0.0
H751 H 0.49652 0.56034 0.38452 0.0
H752 H 0.47945 0.75601 0.39799 0.0
H753 H 0.39686 0.73436 0.42243 0.0
C754 C 0.35719 0.62115 0.43354 0.0
C755 C 0.34413 0.55924 0.43864 0.0
C756 C 0.4001 0.63453 0.41807 0.0
C757 C 0.37127 0.51067 0.42743 0.0
C758 C 0.41251 0.52357 0.41159 0.0
C759 C 0.4744 0.59836 0.39267 0.0
C760 C 0.49364 0.65991 0.38924 0.0
C761 C 0.42847 0.58528 0.40715 0.0
C762 C 0.46441 0.70852 0.39992 0.0
C763 C 0.41765 0.69604 0.41408 0.0
H764 H 0.29659 0.57568 0.19909 0.0
H765 H 0.34895 0.42499 0.15858 0.0
H766 H 0.30543 0.48114 0.12967 0.0
H767 H 0.24422 0.56837 0.11654 0.0
H768 H 0.19647 0.72086 0.15664 0.0
H769 H 0.25012 0.66985 0.18499 0.0
C770 C 0.30044 0.55549 0.18392 0.0
C771 C 0.3254 0.49531 0.18125 0.0
C772 C 0.27664 0.58862 0.16725 0.0
C773 C 0.32847 0.47016 0.16135 0.0
C774 C 0.30415 0.50257 0.14472 0.0
C775 C 0.24671 0.59099 0.13141 0.0
C776 C 0.21589 0.6478 0.13465 0.0
C777 C 0.27681 0.56107 0.1476 0.0
C778 C 0.22001 0.67719 0.15382 0.0
C779 C 0.25005 0.64769 0.17005 0.0
loop_
_geom_bond_atom_site_label_1
_geom_bond_atom_site_label_2
_geom_bond_distance
_geom_bond_site_symmetry_2
_ccdc_geom_bond_type
H0 C6 0.930 . S
H1 C9 0.931 . S
H2 C11 0.931 . S
H3 C13 0.930 . S
H4 C15 0.930 . S
H5 C17 0.931 . S
C6 H0 0.930 . S
C6 C7 1.380 1_545 S
C6 C8 1.394 . S
C7 C6 1.380 1_565 S
C7 C11 1.382 . S
C8 C6 1.394 . S
C8 C9 1.400 . S
C9 H1 0.931 . S
C9 C8 1.400 . S
C9 C10 1.375 1_545 S
C10 C9 1.375 1_565 S
C10 C11 1.415 . S
C10 C12 1.501 1_655 S
C11 H2 0.931 . S
C11 C7 1.382 . S
C11 C10 1.415 . S
C12 C10 1.501 1_455 S
C12 C13 1.384 . S
C12 C17 1.408 1_565 S
C13 H3 0.930 . S
C13 C12 1.384 . S
C13 C14 1.389 . S
C14 C13 1.389 . S
C14 C15 1.405 . S
C15 H4 0.930 . S
C15 C14 1.405 . S
C15 C16 1.364 1_565 S
C16 C15 1.364 1_545 S
C16 C17 1.400 . S
C17 H5 0.931 . S
C17 C12 1.408 1_545 S
C17 C16 1.400 . S
H18 C24 0.930 . S
H19 C27 0.931 . S
H20 C29 0.931 . S
H21 C31 0.930 . S
H22 C33 0.930 . S
H23 C35 0.931 . S
C24 H18 0.930 . S
C24 C25 1.380 . S
C24 C26 1.394 . S
C25 C24 1.380 . S
C25 C29 1.382 . S
C26 C24 1.394 . S
C26 C27 1.400 . S
C27 H19 0.931 . S
C27 C26 1.400 . S
C27 C28 1.375 . S
C28 C27 1.375 . S
C28 C29 1.415 . S
C28 C30 1.501 . S
C29 H20 0.931 . S
C29 C25 1.382 . S
C29 C28 1.415 . S
C30 C28 1.501 . S
C30 C31 1.384 . S
C30 C35 1.408 . S
C31 H21 0.930 . S
C31 C30 1.384 . S
C31 C32 1.389 . S
C32 C31 1.389 . S
C32 C33 1.405 . S
C33 H22 0.930 . S
C33 C32 1.405 . S
C33 C34 1.364 . S
C34 C33 1.364 . S
C34 C35 1.400 . S
C35 H23 0.931 . S
C35 C30 1.408 . S
C35 C34 1.400 . S
H36 C42 0.930 . S
H37 C45 0.931 . S
H38 C47 0.931 . S
H39 C49 0.930 . S
H40 C51 0.930 . S
H41 C53 0.931 . S
C42 H36 0.930 . S
C42 C43 1.380 1_564 S
C42 C44 1.394 . S
C43 C42 1.380 1_546 S
C43 C47 1.382 . S
C44 C42 1.394 . S
C44 C45 1.400 . S
C45 H37 0.931 . S
C45 C44 1.400 . S
C45 C46 1.375 1_565 S
C46 C45 1.375 1_545 S
C46 C47 1.415 1_554 S
C46 C48 1.501 . S
C47 H38 0.931 . S
C47 C43 1.382 . S
C47 C46 1.415 1_556 S
C48 C46 1.501 . S
C48 C49 1.384 1_554 S
C48 C53 1.408 1_545 S
C49 H39 0.930 . S
C49 C48 1.384 1_556 S
C49 C50 1.389 . S
C50 C49 1.389 . S
C50 C51 1.405 1_556 S
C51 H40 0.930 . S
C51 C50 1.405 1_554 S
C51 C52 1.364 1_545 S
C52 C51 1.364 1_565 S
C52 C53 1.400 . S
C53 H41 0.931 . S
C53 C48 1.408 1_565 S
C53 C52 1.400 . S
H54 C60 0.930 . S
H55 C63 0.931 . S
H56 C65 0.931 . S
H57 C67 0.930 . S
H58 C69 0.930 . S
H59 C71 0.931 . S
C60 H54 0.930 . S
C60 C61 1.380 . S
C60 C62 1.394 . S
C61 C60 1.380 . S
C61 C65 1.382 . S
C62 C60 1.394 . S
C62 C63 1.400 . S
C63 H55 0.931 . S
C63 C62 1.400 . S
C63 C64 1.375 . S
C64 C63 1.375 . S
C64 C65 1.415 . S
C64 C66 1.501 . S
C65 H56 0.931 . S
C65 C61 1.382 . S
C65 C64 1.415 . S
C66 C64 1.501 . S
C66 C67 1.384 . S
C66 C71 1.408 . S
C67 H57 0.930 . S
C67 C66 1.384 . S
C67 C68 1.389 . S
C68 C67 1.389 . S
C68 C69 1.405 . S
C69 H58 0.930 . S
C69 C68 1.405 . S
C69 C70 1.364 . S
C70 C69 1.364 . S
C70 C71 1.400 . S
C71 H59 0.931 . S
C71 C66 1.408 . S
C71 C70 1.400 . S
H72 C78 0.930 . S
H73 C81 0.931 . S
H74 C83 0.931 . S
H75 C85 0.930 . S
H76 C87 0.930 1_565 S
H77 C89 0.931 . S
C78 H72 0.930 . S
C78 C79 1.380 . S
C78 C80 1.394 . S
C79 C78 1.380 . S
C79 C83 1.382 . S
C80 C78 1.394 . S
C80 C81 1.400 . S
C81 H73 0.931 . S
C81 C80 1.400 . S
C81 C82 1.375 . S
C82 C81 1.375 . S
C82 C83 1.415 . S
C82 C84 1.501 . S
C83 H74 0.931 . S
C83 C79 1.382 . S
C83 C82 1.415 . S
C84 C82 1.501 . S
C84 C85 1.384 . S
C84 C89 1.408 . S
C85 H75 0.930 . S
C85 C84 1.384 . S
C85 C86 1.389 . S
C86 C85 1.389 . S
C86 C87 1.405 . S
C87 H76 0.930 1_545 S
C87 C86 1.405 . S
C87 C88 1.364 . S
C88 C87 1.364 . S
C88 C89 1.400 . S
C89 H77 0.931 . S
C89 C84 1.408 . S
C89 C88 1.400 . S
H90 C96 0.930 1_545 S
H91 C99 0.931 . S
H92 C101 0.931 . S
H93 C103 0.930 . S
H94 C105 0.930 . S
H95 C107 0.931 . S
C96 H90 0.930 1_565 S
C96 C97 1.380 . S
C96 C98 1.394 . S
C97 C96 1.380 . S
C97 C101 1.382 . S
C98 C96 1.394 . S
C98 C99 1.400 . S
C99 H91 0.931 . S
C99 C98 1.400 . S
C99 C100 1.375 . S
C100 C99 1.375 . S
C100 C101 1.415 . S
C100 C102 1.501 . S
C101 H92 0.931 . S
C101 C97 1.382 . S
C101 C100 1.415 . S
C102 C100 1.501 . S
C102 C103 1.384 . S
C102 C107 1.408 . S
C103 H93 0.930 . S
C103 C102 1.384 . S
C103 C104 1.389 . S
C104 C103 1.389 . S
C104 C105 1.405 . S
C105 H94 0.930 . S
C105 C104 1.405 . S
C105 C106 1.364 . S
C106 C105 1.364 . S
C106 C107 1.400 . S
C107 H95 0.931 . S
C107 C102 1.408 . S
C107 C106 1.400 . S
H108 C114 0.930 . S
H109 C117 0.931 . S
H110 C119 0.931 . S
H111 C121 0.930 . S
H112 C123 0.930 . S
H113 C125 0.931 . S
C114 H108 0.930 . S
C114 C115 1.380 . S
C114 C116 1.394 1_554 S
C115 C114 1.380 . S
C115 C119 1.382 . S
C116 C114 1.394 1_556 S
C116 C117 1.400 . S
C117 H109 0.931 . S
C117 C116 1.400 . S
C117 C118 1.375 1_556 S
C118 C117 1.375 1_554 S
C118 C119 1.415 . S
C118 C120 1.501 . S
C119 H110 0.931 . S
C119 C115 1.382 . S
C119 C118 1.415 . S
C120 C118 1.501 . S
C120 C121 1.384 . S
C120 C125 1.408 1_554 S
C121 H111 0.930 . S
C121 C120 1.384 . S
C121 C122 1.389 . S
C122 C121 1.389 . S
C122 C123 1.405 . S
C123 H112 0.930 . S
C123 C122 1.405 . S
C123 C124 1.364 1_554 S
C124 C123 1.364 1_556 S
C124 C125 1.400 . S
C125 H113 0.931 . S
C125 C120 1.408 1_556 S
C125 C124 1.400 . S
H126 C132 0.930 . S
H127 C135 0.931 . S
H128 C137 0.931 . S
H129 C139 0.930 . S
H130 C141 0.930 1_655 S
H131 C143 0.931 . S
C132 H126 0.930 . S
C132 C133 1.380 . S
C132 C134 1.394 . S
C133 C132 1.380 . S
C133 C137 1.382 . S
C134 C132 1.394 . S
C134 C135 1.400 . S
C135 H127 0.931 . S
C135 C134 1.400 . S
C135 C136 1.375 . S
C136 C135 1.375 . S
C136 C137 1.415 . S
C136 C138 1.501 . S
C137 H128 0.931 . S
C137 C133 1.382 . S
C137 C136 1.415 . S
C138 C136 1.501 . S
C138 C139 1.384 . S
C138 C143 1.408 . S
C139 H129 0.930 . S
C139 C138 1.384 . S
C139 C140 1.389 . S
C140 C139 1.389 . S
C140 C141 1.405 . S
C141 H130 0.930 1_455 S
C141 C140 1.405 . S
C141 C142 1.364 . S
C142 C141 1.364 . S
C142 C143 1.400 . S
C143 H131 0.931 . S
C143 C138 1.408 . S
C143 C142 1.400 . S
C144 O171 1.312 . S
C144 O172 1.208 . S
C145 O166 1.331 1_655 S
C145 O169 1.244 . S
C146 O168 1.264 1_655 S
C146 O170 1.273 . S
Mg147 O149 1.936 . S
Mg147 O156 2.081 . S
Mg147 O158 2.023 . S
Mg147 O162 2.031 . S
Mg147 O171 2.291 . S
Mg148 O149 1.963 . S
Mg148 O159 1.942 . S
Mg148 O160 1.955 . S
Mg148 O167 1.986 . S
O149 Mg147 1.936 . S
O149 Mg148 1.963 . S
O149 Mg150 1.915 . S
Mg150 O149 1.915 . S
Mg150 O151 1.915 . S
Mg150 O155 2.013 . S
Mg150 O161 2.114 . S
Mg150 O165 2.013 . S
Mg150 O171 2.114 . S
O151 Mg150 1.915 . S
O151 Mg152 1.936 . S
O151 Mg153 1.963 1_455 S
Mg152 O151 1.936 . S
Mg152 O161 2.291 . S
Mg152 O166 2.081 . S
Mg152 O168 2.023 . S
Mg152 O172 2.031 . S
Mg153 O151 1.963 1_655 S
Mg153 O157 1.986 . S
Mg153 O169 1.942 . S
Mg153 O170 1.955 . S
C154 O165 1.191 . S
C154 O167 1.307 . S
O155 Mg150 2.013 . S
O155 C174 1.191 . S
O156 Mg147 2.081 . S
O156 C164 1.331 . S
O157 Mg153 1.986 . S
O157 C174 1.307 1_655 S
O158 Mg147 2.023 . S
O158 C173 1.264 . S
O159 Mg148 1.942 . S
O159 C164 1.244 . S
O160 Mg148 1.955 . S
O160 C173 1.273 . S
O161 Mg150 2.114 . S
O161 Mg152 2.291 . S
O161 C163 1.312 . S
O162 Mg147 2.031 . S
O162 C163 1.208 . S
C163 O161 1.312 . S
C163 O162 1.208 . S
C164 O156 1.331 . S
C164 O159 1.244 . S
O165 Mg150 2.013 . S
O165 C154 1.191 . S
O166 C145 1.331 1_455 S
O166 Mg152 2.081 . S
O167 Mg148 1.986 . S
O167 C154 1.307 . S
O168 C146 1.264 1_455 S
O168 Mg152 2.023 . S
O169 C145 1.244 . S
O169 Mg153 1.942 . S
O170 C146 1.273 . S
O170 Mg153 1.955 . S
O171 C144 1.312 . S
O171 Mg147 2.291 . S
O171 Mg150 2.114 . S
O172 C144 1.208 . S
O172 Mg152 2.031 . S
C173 O158 1.264 . S
C173 O160 1.273 . S
C174 O155 1.191 . S
C174 O157 1.307 1_455 S
C175 O202 1.312 . S
C175 O203 1.208 . S
C176 O197 1.331 . S
C176 O200 1.244 . S
C177 O199 1.264 . S
C177 O201 1.273 . S
Mg178 O180 1.936 . S
Mg178 O187 2.081 . S
Mg178 O189 2.023 . S
Mg178 O193 2.031 . S
Mg178 O202 2.291 . S
Mg179 O180 1.963 . S
Mg179 O190 1.942 . S
Mg179 O191 1.955 . S
Mg179 O198 1.986 . S
O180 Mg178 1.936 . S
O180 Mg179 1.963 . S
O180 Mg181 1.915 . S
Mg181 O180 1.915 . S
Mg181 O182 1.915 . S
Mg181 O186 2.013 . S
Mg181 O192 2.114 . S
Mg181 O196 2.013 . S
Mg181 O202 2.114 . S
O182 Mg181 1.915 . S
O182 Mg183 1.936 . S
O182 Mg184 1.963 . S
Mg183 O182 1.936 . S
Mg183 O192 2.291 . S
Mg183 O197 2.081 . S
Mg183 O199 2.023 . S
Mg183 O203 2.031 . S
Mg184 O182 1.963 . S
Mg184 O188 1.986 . S
Mg184 O200 1.942 . S
Mg184 O201 1.955 . S
C185 O196 1.191 . S
C185 O198 1.307 . S
O186 Mg181 2.013 . S
O186 C205 1.191 . S
O187 Mg178 2.081 . S
O187 C195 1.331 . S
O188 Mg184 1.986 . S
O188 C205 1.307 . S
O189 Mg178 2.023 . S
O189 C204 1.264 . S
O190 Mg179 1.942 . S
O190 C195 1.244 . S
O191 Mg179 1.955 . S
O191 C204 1.273 . S
O192 Mg181 2.114 . S
O192 Mg183 2.291 . S
O192 C194 1.312 . S
O193 Mg178 2.031 . S
O193 C194 1.208 . S
C194 O192 1.312 . S
C194 O193 1.208 . S
C195 O187 1.331 . S
C195 O190 1.244 . S
O196 Mg181 2.013 . S
O196 C185 1.191 . S
O197 C176 1.331 . S
O197 Mg183 2.081 . S
O198 Mg179 1.986 . S
O198 C185 1.307 . S
O199 C177 1.264 . S
O199 Mg183 2.023 . S
O200 C176 1.244 . S
O200 Mg184 1.942 . S
O201 C177 1.273 . S
O201 Mg184 1.955 . S
O202 C175 1.312 . S
O202 Mg178 2.291 . S
O202 Mg181 2.114 . S
O203 C175 1.208 . S
O203 Mg183 2.031 . S
C204 O189 1.264 . S
C204 O191 1.273 . S
C205 O186 1.191 . S
C205 O188 1.307 . S
C206 O233 1.312 . S
C206 O234 1.208 . S
C207 O228 1.331 . S
C207 O231 1.244 . S
C208 O230 1.264 . S
C208 O232 1.273 . S
Mg209 O211 1.936 . S
Mg209 O218 2.081 . S
Mg209 O220 2.023 . S
Mg209 O224 2.031 . S
Mg209 O233 2.291 . S
Mg210 O211 1.963 . S
Mg210 O221 1.942 . S
Mg210 O222 1.955 . S
Mg210 O229 1.986 . S
O211 Mg209 1.936 . S
O211 Mg210 1.963 . S
O211 Mg212 1.915 . S
Mg212 O211 1.915 . S
Mg212 O213 1.915 . S
Mg212 O217 2.013 . S
Mg212 O223 2.114 . S
Mg212 O227 2.013 . S
Mg212 O233 2.114 . S
O213 Mg212 1.915 . S
O213 Mg214 1.936 . S
O213 Mg215 1.963 . S
Mg214 O213 1.936 . S
Mg214 O223 2.291 . S
Mg214 O228 2.081 . S
Mg214 O230 2.023 . S
Mg214 O234 2.031 . S
Mg215 O213 1.963 . S
Mg215 O219 1.986 . S
Mg215 O231 1.942 . S
Mg215 O232 1.955 . S
C216 O227 1.191 . S
C216 O229 1.307 . S
O217 Mg212 2.013 . S
O217 C236 1.191 . S
O218 Mg209 2.081 . S
O218 C226 1.331 . S
O219 Mg215 1.986 . S
O219 C236 1.307 . S
O220 Mg209 2.023 . S
O220 C235 1.264 . S
O221 Mg210 1.942 . S
O221 C226 1.244 . S
O222 Mg210 1.955 . S
O222 C235 1.273 . S
O223 Mg212 2.114 . S
O223 Mg214 2.291 . S
O223 C225 1.312 . S
O224 Mg209 2.031 . S
O224 C225 1.208 . S
C225 O223 1.312 . S
C225 O224 1.208 . S
C226 O218 1.331 . S
C226 O221 1.244 . S
O227 Mg212 2.013 . S
O227 C216 1.191 . S
O228 C207 1.331 . S
O228 Mg214 2.081 . S
O229 Mg210 1.986 . S
O229 C216 1.307 . S
O230 C208 1.264 . S
O230 Mg214 2.023 . S
O231 C207 1.244 . S
O231 Mg215 1.942 . S
O232 C208 1.273 . S
O232 Mg215 1.955 . S
O233 C206 1.312 . S
O233 Mg209 2.291 . S
O233 Mg212 2.114 . S
O234 C206 1.208 . S
O234 Mg214 2.031 . S
C235 O220 1.264 . S
C235 O222 1.273 . S
C236 O217 1.191 . S
C236 O219 1.307 . S
C237 O264 1.312 . S
C237 O265 1.208 . S
C238 O259 1.331 . S
C238 O262 1.244 . S
C239 O261 1.264 . S
C239 O263 1.273 . S
Mg240 O242 1.936 . S
Mg240 O249 2.081 . S
Mg240 O251 2.023 . S
Mg240 O255 2.031 . S
Mg240 O264 2.291 . S
Mg241 O242 1.963 1_655 S
Mg241 O252 1.942 . S
Mg241 O253 1.955 . S
Mg241 O260 1.986 . S
O242 Mg240 1.936 . S
O242 Mg241 1.963 1_455 S
O242 Mg243 1.915 . S
Mg243 O242 1.915 . S
Mg243 O244 1.915 . S
Mg243 O248 2.013 . S
Mg243 O254 2.114 . S
Mg243 O258 2.013 . S
Mg243 O264 2.114 . S
O244 Mg243 1.915 . S
O244 Mg245 1.936 . S
O244 Mg246 1.963 . S
Mg245 O244 1.936 . S
Mg245 O254 2.291 . S
Mg245 O259 2.081 . S
Mg245 O261 2.023 . S
Mg245 O265 2.031 . S
Mg246 O244 1.963 . S
Mg246 O250 1.986 . S
Mg246 O262 1.942 . S
Mg246 O263 1.955 . S
C247 O258 1.191 . S
C247 O260 1.307 1_455 S
O248 Mg243 2.013 . S
O248 C267 1.191 . S
O249 Mg240 2.081 . S
O249 C257 1.331 1_455 S
O250 Mg246 1.986 . S
O250 C267 1.307 . S
O251 Mg240 2.023 . S
O251 C266 1.264 1_455 S
O252 Mg241 1.942 . S
O252 C257 1.244 . S
O253 Mg241 1.955 . S
O253 C266 1.273 . S
O254 Mg243 2.114 . S
O254 Mg245 2.291 . S
O254 C256 1.312 . S
O255 Mg240 2.031 . S
O255 C256 1.208 . S
C256 O254 1.312 . S
C256 O255 1.208 . S
C257 O249 1.331 1_655 S
C257 O252 1.244 . S
O258 Mg243 2.013 . S
O258 C247 1.191 . S
O259 C238 1.331 . S
O259 Mg245 2.081 . S
O260 Mg241 1.986 . S
O260 C247 1.307 1_655 S
O261 C239 1.264 . S
O261 Mg245 2.023 . S
O262 C238 1.244 . S
O262 Mg246 1.942 . S
O263 C239 1.273 . S
O263 Mg246 1.955 . S
O264 C237 1.312 . S
O264 Mg240 2.291 . S
O264 Mg243 2.114 . S
O265 C237 1.208 . S
O265 Mg245 2.031 . S
C266 O251 1.264 1_655 S
C266 O253 1.273 . S
C267 O248 1.191 . S
C267 O250 1.307 . S
H268 C274 0.930 . S
H269 C277 0.930 . S
H270 C278 0.930 . S
H271 C279 0.930 . S
H272 C282 0.930 . S
H273 C283 0.930 . S
C274 H268 0.930 . S
C274 C275 1.355 . S
C274 C276 1.415 . S
C275 C274 1.355 . S
C275 C277 1.419 . S
C276 C274 1.415 . S
C276 C281 1.425 . S
C276 C283 1.409 . S
C277 H269 0.930 . S
C277 C275 1.419 . S
C277 C278 1.362 . S
C278 H270 0.930 . S
C278 C277 1.362 . S
C278 C281 1.409 . S
C279 H271 0.930 . S
C279 C280 1.355 . S
C279 C281 1.415 . S
C280 C279 1.355 . S
C280 C282 1.419 . S
C281 C276 1.425 . S
C281 C278 1.409 . S
C281 C279 1.415 . S
C282 H272 0.930 . S
C282 C280 1.419 . S
C282 C283 1.362 . S
C283 H273 0.930 . S
C283 C276 1.409 . S
C283 C282 1.362 . S
H284 C290 0.930 . S
H285 C293 0.930 . S
H286 C294 0.930 . S
H287 C295 0.930 . S
H288 C298 0.930 . S
H289 C299 0.930 . S
C290 H284 0.930 . S
C290 C291 1.355 . S
C290 C292 1.415 . S
C291 C290 1.355 . S
C291 C293 1.419 . S
C292 C290 1.415 . S
C292 C297 1.425 . S
C292 C299 1.409 . S
C293 H285 0.930 . S
C293 C291 1.419 . S
C293 C294 1.362 . S
C294 H286 0.930 . S
C294 C293 1.362 . S
C294 C297 1.409 . S
C295 H287 0.930 . S
C295 C296 1.355 . S
C295 C297 1.415 1_545 S
C296 C295 1.355 . S
C296 C298 1.419 . S
C297 C292 1.425 . S
C297 C294 1.409 . S
C297 C295 1.415 1_565 S
C298 H288 0.930 . S
C298 C296 1.419 . S
C298 C299 1.362 1_545 S
C299 H289 0.930 . S
C299 C292 1.409 . S
C299 C298 1.362 1_565 S
H300 C306 0.930 1_565 S
H301 C309 0.930 . S
H302 C310 0.930 . S
H303 C311 0.930 . S
H304 C314 0.930 . S
H305 C315 0.930 1_565 S
C306 H300 0.930 1_545 S
C306 C307 1.355 . S
C306 C308 1.415 . S
C307 C306 1.355 . S
C307 C309 1.419 . S
C308 C306 1.415 . S
C308 C313 1.425 . S
C308 C315 1.409 . S
C309 H301 0.930 . S
C309 C307 1.419 . S
C309 C310 1.362 . S
C310 H302 0.930 . S
C310 C309 1.362 . S
C310 C313 1.409 . S
C311 H303 0.930 . S
C311 C312 1.355 . S
C311 C313 1.415 . S
C312 C311 1.355 . S
C312 C314 1.419 . S
C313 C308 1.425 . S
C313 C310 1.409 . S
C313 C311 1.415 . S
C314 H304 0.930 . S
C314 C312 1.419 . S
C314 C315 1.362 . S
C315 H305 0.930 1_545 S
C315 C308 1.409 . S
C315 C314 1.362 . S
H316 C322 0.930 . S
H317 C325 0.930 . S
H318 C326 0.930 . S
H319 C327 0.930 1_545 S
H320 C330 0.930 . S
H321 C331 0.930 . S
C322 H316 0.930 . S
C322 C323 1.355 . S
C322 C324 1.415 . S
C323 C322 1.355 . S
C323 C325 1.419 . S
C324 C322 1.415 . S
C324 C329 1.425 . S
C324 C331 1.409 1_545 S
C325 H317 0.930 . S
C325 C323 1.419 . S
C325 C326 1.362 . S
C326 H318 0.930 . S
C326 C325 1.362 . S
C326 C329 1.409 . S
C327 H319 0.930 1_565 S
C327 C328 1.355 . S
C327 C329 1.415 1_565 S
C328 C327 1.355 . S
C328 C330 1.419 . S
C329 C324 1.425 . S
C329 C326 1.409 . S
C329 C327 1.415 1_545 S
C330 H320 0.930 . S
C330 C328 1.419 . S
C330 C331 1.362 . S
C331 H321 0.930 . S
C331 C324 1.409 1_565 S
C331 C330 1.362 . S
H332 C338 0.930 . S
H333 C341 0.930 . S
H334 C342 0.930 . S
H335 C343 0.930 . S
H336 C346 0.930 . S
H337 C347 0.930 1_565 S
C338 H332 0.930 . S
C338 C339 1.355 . S
C338 C340 1.415 . S
C339 C338 1.355 . S
C339 C341 1.419 . S
C340 C338 1.415 . S
C340 C345 1.425 . S
C340 C347 1.409 . S
C341 H333 0.930 . S
C341 C339 1.419 . S
C341 C342 1.362 . S
C342 H334 0.930 . S
C342 C341 1.362 . S
C342 C345 1.409 . S
C343 H335 0.930 . S
C343 C344 1.355 . S
C343 C345 1.415 . S
C344 C343 1.355 . S
C344 C346 1.419 . S
C345 C340 1.425 . S
C345 C342 1.409 . S
C345 C343 1.415 . S
C346 H336 0.930 . S
C346 C344 1.419 . S
C346 C347 1.362 . S
C347 H337 0.930 1_545 S
C347 C340 1.409 . S
C347 C346 1.362 . S
H348 C354 0.930 . S
H349 C357 0.930 . S
H350 C358 0.930 . S
H351 C359 0.930 . S
H352 C362 0.930 . S
H353 C363 0.930 . S
C354 H348 0.930 . S
C354 C355 1.355 . S
C354 C356 1.415 . S
C355 C354 1.355 . S
C355 C357 1.419 . S
C356 C354 1.415 . S
C356 C361 1.425 . S
C356 C363 1.409 1_565 S
C357 H349 0.930 . S
C357 C355 1.419 . S
C357 C358 1.362 . S
C358 H350 0.930 . S
C358 C357 1.362 . S
C358 C361 1.409 . S
C359 H351 0.930 . S
C359 C360 1.355 . S
C359 C361 1.415 1_545 S
C360 C359 1.355 . S
C360 C362 1.419 . S
C361 C356 1.425 . S
C361 C358 1.409 . S
C361 C359 1.415 1_565 S
C362 H352 0.930 . S
C362 C360 1.419 . S
C362 C363 1.362 . S
C363 H353 0.930 . S
C363 C356 1.409 1_545 S
C363 C362 1.362 . S
H364 C370 0.930 . S
H365 C373 0.930 . S
H366 C374 0.930 . S
H367 C375 0.930 . S
H368 C378 0.930 . S
H369 C379 0.930 . S
C370 H364 0.930 . S
C370 C371 1.355 . S
C370 C372 1.415 . S
C371 C370 1.355 . S
C371 C373 1.419 . S
C372 C370 1.415 . S
C372 C377 1.425 . S
C372 C379 1.409 . S
C373 H365 0.930 . S
C373 C371 1.419 . S
C373 C374 1.362 . S
C374 H366 0.930 . S
C374 C373 1.362 . S
C374 C377 1.409 . S
C375 H367 0.930 . S
C375 C376 1.355 . S
C375 C377 1.415 . S
C376 C375 1.355 . S
C376 C378 1.419 . S
C377 C372 1.425 . S
C377 C374 1.409 . S
C377 C375 1.415 . S
C378 H368 0.930 . S
C378 C376 1.419 . S
C378 C379 1.362 . S
C379 H369 0.930 . S
C379 C372 1.409 . S
C379 C378 1.362 . S
H380 C386 0.930 . S
H381 C389 0.930 . S
H382 C390 0.930 . S
H383 C391 0.930 . S
H384 C394 0.930 . S
H385 C395 0.930 . S
C386 H380 0.930 . S
C386 C387 1.355 . S
C386 C388 1.415 . S
C387 C386 1.355 . S
C387 C389 1.419 . S
C388 C386 1.415 . S
C388 C393 1.425 . S
C388 C395 1.409 . S
C389 H381 0.930 . S
C389 C387 1.419 . S
C389 C390 1.362 . S
C390 H382 0.930 . S
C390 C389 1.362 . S
C390 C393 1.409 . S
C391 H383 0.930 . S
C391 C392 1.355 . S
C391 C393 1.415 1_565 S
C392 C391 1.355 . S
C392 C394 1.419 . S
C393 C388 1.425 . S
C393 C390 1.409 . S
C393 C391 1.415 1_545 S
C394 H384 0.930 . S
C394 C392 1.419 . S
C394 C395 1.362 1_565 S
C395 H385 0.930 . S
C395 C388 1.409 . S
C395 C394 1.362 1_545 S
H396 C402 0.930 . S
H397 C405 0.930 . S
H398 C406 0.930 . S
H399 C407 0.930 . S
H400 C410 0.930 . S
H401 C411 0.930 . S
C402 H396 0.930 . S
C402 C403 1.355 . S
C402 C404 1.415 . S
C403 C402 1.355 . S
C403 C405 1.419 . S
C404 C402 1.415 . S
C404 C409 1.425 . S
C404 C411 1.409 . S
C405 H397 0.930 . S
C405 C403 1.419 . S
C405 C406 1.362 . S
C406 H398 0.930 . S
C406 C405 1.362 . S
C406 C409 1.409 . S
C407 H399 0.930 . S
C407 C408 1.355 . S
C407 C409 1.415 . S
C408 C407 1.355 . S
C408 C410 1.419 . S
C409 C404 1.425 . S
C409 C406 1.409 . S
C409 C407 1.415 . S
C410 H400 0.930 . S
C410 C408 1.419 . S
C410 C411 1.362 . S
C411 H401 0.930 . S
C411 C404 1.409 . S
C411 C410 1.362 . S
H412 C418 0.930 . S
H413 C421 0.930 . S
H414 C422 0.930 . S
H415 C423 0.930 . S
H416 C426 0.930 . S
H417 C427 0.930 . S
C418 H412 0.930 . S
C418 C419 1.355 . S
C418 C420 1.415 1_545 S
C419 C418 1.355 . S
C419 C421 1.419 1_545 S
C420 C418 1.415 1_565 S
C420 C425 1.425 . S
C420 C427 1.409 . S
C421 H413 0.930 . S
C421 C419 1.419 1_565 S
C421 C422 1.362 . S
C422 H414 0.930 . S
C422 C421 1.362 . S
C422 C425 1.409 . S
C423 H415 0.930 . S
C423 C424 1.355 . S
C423 C425 1.415 . S
C424 C423 1.355 . S
C424 C426 1.419 . S
C425 C420 1.425 . S
C425 C422 1.409 . S
C425 C423 1.415 . S
C426 H416 0.930 . S
C426 C424 1.419 . S
C426 C427 1.362 . S
C427 H417 0.930 . S
C427 C420 1.409 . S
C427 C426 1.362 . S
H428 C434 0.930 . S
H429 C437 0.930 1_545 S
H430 C438 0.930 1_545 S
H431 C439 0.930 1_455 S
H432 C442 0.930 . S
H433 C443 0.930 . S
C434 H428 0.930 . S
C434 C435 1.355 . S
C434 C436 1.415 . S
C435 C434 1.355 . S
C435 C437 1.419 . S
C436 C434 1.415 . S
C436 C441 1.425 . S
C436 C443 1.409 . S
C437 H429 0.930 1_565 S
C437 C435 1.419 . S
C437 C438 1.362 . S
C438 H430 0.930 1_565 S
C438 C437 1.362 . S
C438 C441 1.409 . S
C439 H431 0.930 1_655 S
C439 C440 1.355 . S
C439 C441 1.415 . S
C440 C439 1.355 . S
C440 C442 1.419 . S
C441 C436 1.425 . S
C441 C438 1.409 . S
C441 C439 1.415 . S
C442 H432 0.930 . S
C442 C440 1.419 . S
C442 C443 1.362 . S
C443 H433 0.930 . S
C443 C436 1.409 . S
C443 C442 1.362 . S
H444 C450 0.930 1_565 S
H445 C453 0.930 . S
H446 C454 0.930 . S
H447 C455 0.930 1_455 S
H448 C458 0.930 . S
H449 C459 0.930 . S
C450 H444 0.930 1_545 S
C450 C451 1.355 1_545 S
C450 C452 1.415 . S
C451 C450 1.355 1_565 S
C451 C453 1.419 1_565 S
C452 C450 1.415 . S
C452 C457 1.425 . S
C452 C459 1.409 . S
C453 H445 0.930 . S
C453 C451 1.419 1_545 S
C453 C454 1.362 . S
C454 H446 0.930 . S
C454 C453 1.362 . S
C454 C457 1.409 . S
C455 H447 0.930 1_655 S
C455 C456 1.355 . S
C455 C457 1.415 . S
C456 C455 1.355 . S
C456 C458 1.419 . S
C457 C452 1.425 . S
C457 C454 1.409 . S
C457 C455 1.415 . S
C458 H448 0.930 . S
C458 C456 1.419 . S
C458 C459 1.362 . S
C459 H449 0.930 . S
C459 C452 1.409 . S
C459 C458 1.362 . S
H460 C466 0.930 . S
H461 C469 0.930 1_545 S
H462 C470 0.930 1_545 S
H463 C471 0.930 . S
H464 C474 0.930 . S
H465 C475 0.930 . S
C466 H460 0.930 . S
C466 C467 1.355 . S
C466 C468 1.415 . S
C467 C466 1.355 . S
C467 C469 1.419 . S
C468 C466 1.415 . S
C468 C473 1.425 . S
C468 C475 1.409 . S
C469 H461 0.930 1_565 S
C469 C467 1.419 . S
C469 C470 1.362 . S
C470 H462 0.930 1_565 S
C470 C469 1.362 . S
C470 C473 1.409 . S
C471 H463 0.930 . S
C471 C472 1.355 . S
C471 C473 1.415 . S
C472 C471 1.355 . S
C472 C474 1.419 . S
C473 C468 1.425 . S
C473 C470 1.409 . S
C473 C471 1.415 . S
C474 H464 0.930 . S
C474 C472 1.419 . S
C474 C475 1.362 . S
C475 H465 0.930 . S
C475 C468 1.409 . S
C475 C474 1.362 . S
H476 C482 0.930 . S
H477 C485 0.926 1_545 S
H478 C486 0.930 1_455 S
H479 C487 0.930 . S
H480 C490 0.930 . S
H481 C491 0.930 . S
C482 H476 0.930 . S
C482 C483 1.355 1_565 S
C482 C484 1.415 . S
C483 C482 1.355 1_545 S
C483 C485 1.418 1_545 S
C484 C482 1.415 . S
C484 C489 1.425 . S
C484 C491 1.409 . S
C485 H477 0.926 1_565 S
C485 C483 1.418 1_565 S
C485 C486 1.367 . S
C486 H478 0.930 1_655 S
C486 C485 1.367 . S
C486 C489 1.409 . S
C487 H479 0.930 . S
C487 C488 1.355 1_455 S
C487 C489 1.415 1_455 S
C488 C487 1.355 1_655 S
C488 C490 1.419 . S
C489 C484 1.425 . S
C489 C486 1.409 . S
C489 C487 1.415 1_655 S
C490 H480 0.930 . S
C490 C488 1.419 . S
C490 C491 1.362 . S
C491 H481 0.930 . S
C491 C484 1.409 . S
C491 C490 1.362 . S
H492 C498 0.930 . S
H493 C501 0.930 . S
H494 C502 0.930 . S
H495 C503 0.930 . S
H496 C506 0.930 . S
H497 C507 0.930 1_455 S
C498 H492 0.930 . S
C498 C499 1.355 . S
C498 C500 1.415 . S
C499 C498 1.355 . S
C499 C501 1.419 . S
C500 C498 1.415 . S
C500 C505 1.425 . S
C500 C507 1.409 . S
C501 H493 0.930 . S
C501 C499 1.419 . S
C501 C502 1.362 . S
C502 H494 0.930 . S
C502 C501 1.362 . S
C502 C505 1.409 . S
C503 H495 0.930 . S
C503 C504 1.367 . S
C503 C505 1.415 . S
C504 C503 1.367 . S
C504 C506 1.414 1_655 S
C505 C500 1.425 . S
C505 C502 1.409 . S
C505 C503 1.415 . S
C506 H496 0.930 . S
C506 C504 1.414 1_455 S
C506 C507 1.362 1_455 S
C507 H497 0.930 1_655 S
C507 C500 1.409 . S
C507 C506 1.362 1_655 S
H508 C514 0.930 . S
H509 C517 0.930 . S
H510 C518 0.930 . S
H511 C519 0.930 . S
H512 C522 0.930 . S
H513 C523 0.930 . S
C514 H508 0.930 . S
C514 C515 1.355 1_545 S
C514 C516 1.415 . S
C515 C514 1.355 1_565 S
C515 C517 1.419 . S
C516 C514 1.415 . S
C516 C521 1.425 . S
C516 C523 1.409 . S
C517 H509 0.930 . S
C517 C515 1.419 . S
C517 C518 1.362 1_565 S
C518 H510 0.930 . S
C518 C517 1.362 1_545 S
C518 C521 1.409 . S
C519 H511 0.930 . S
C519 C520 1.355 . S
C519 C521 1.415 . S
C520 C519 1.355 . S
C520 C522 1.419 . S
C521 C516 1.425 . S
C521 C518 1.409 . S
C521 C519 1.415 . S
C522 H512 0.930 . S
C522 C520 1.419 . S
C522 C523 1.362 . S
C523 H513 0.930 . S
C523 C516 1.409 . S
C523 C522 1.362 . S
H524 C530 0.930 . S
H525 C533 0.930 . S
H526 C534 0.930 . S
H527 C535 0.930 . S
H528 C538 0.930 . S
H529 C539 0.930 . S
C530 H524 0.930 . S
C530 C531 1.355 . S
C530 C532 1.415 . S
C531 C530 1.355 . S
C531 C533 1.419 . S
C532 C530 1.415 . S
C532 C537 1.425 . S
C532 C539 1.409 . S
C533 H525 0.930 . S
C533 C531 1.419 . S
C533 C534 1.362 . S
C534 H526 0.930 . S
C534 C533 1.362 . S
C534 C537 1.409 . S
C535 H527 0.930 . S
C535 C536 1.355 . S
C535 C537 1.415 . S
C536 C535 1.355 . S
C536 C538 1.419 . S
C537 C532 1.425 . S
C537 C534 1.409 . S
C537 C535 1.415 . S
C538 H528 0.930 . S
C538 C536 1.419 . S
C538 C539 1.362 . S
C539 H529 0.930 . S
C539 C532 1.409 . S
C539 C538 1.362 . S
H540 C546 0.930 . S
H541 C549 0.930 . S
H542 C550 0.930 . S
H543 C551 0.930 . S
H544 C554 0.930 1_455 S
H545 C555 0.930 . S
C546 H540 0.930 . S
C546 C547 1.355 . S
C546 C548 1.415 . S
C547 C546 1.355 . S
C547 C549 1.419 . S
C548 C546 1.415 . S
C548 C553 1.425 . S
C548 C555 1.409 . S
C549 H541 0.930 . S
C549 C547 1.419 . S
C549 C550 1.362 . S
C550 H542 0.930 . S
C550 C549 1.362 . S
C550 C553 1.409 . S
C551 H543 0.930 . S
C551 C552 1.355 . S
C551 C553 1.415 . S
C552 C551 1.355 . S
C552 C554 1.419 . S
C553 C548 1.425 . S
C553 C550 1.409 . S
C553 C551 1.415 . S
C554 H544 0.930 1_655 S
C554 C552 1.419 . S
C554 C555 1.362 . S
C555 H545 0.930 . S
C555 C548 1.409 . S
C555 C554 1.362 . S
H556 C562 0.930 1_455 S
H557 C565 0.930 . S
H558 C566 0.930 . S
H559 C567 0.930 . S
H560 C570 0.930 . S
H561 C571 0.930 . S
C562 H556 0.930 1_655 S
C562 C563 1.355 . S
C562 C564 1.415 . S
C563 C562 1.355 . S
C563 C565 1.419 . S
C564 C562 1.415 . S
C564 C569 1.425 . S
C564 C571 1.409 . S
C565 H557 0.930 . S
C565 C563 1.419 . S
C565 C566 1.362 . S
C566 H558 0.930 . S
C566 C565 1.362 . S
C566 C569 1.409 . S
C567 H559 0.930 . S
C567 C568 1.355 . S
C567 C569 1.415 . S
C568 C567 1.355 . S
C568 C570 1.419 . S
C569 C564 1.425 . S
C569 C566 1.409 . S
C569 C567 1.415 . S
C570 H560 0.930 . S
C570 C568 1.419 . S
C570 C571 1.362 . S
C571 H561 0.930 . S
C571 C564 1.409 . S
C571 C570 1.362 . S
H572 C578 0.930 . S
H573 C581 0.930 . S
H574 C582 0.930 . S
H575 C583 0.930 . S
H576 C586 0.930 . S
H577 C587 0.930 . S
C578 H572 0.930 . S
C578 C579 1.355 . S
C578 C580 1.415 . S
C579 C578 1.355 . S
C579 C581 1.419 . S
C580 C578 1.415 . S
C580 C585 1.425 . S
C580 C587 1.409 . S
C581 H573 0.930 . S
C581 C579 1.419 . S
C581 C582 1.362 . S
C582 H574 0.930 . S
C582 C581 1.362 . S
C582 C585 1.409 . S
C583 H575 0.930 . S
C583 C584 1.355 . S
C583 C585 1.415 . S
C584 C583 1.355 . S
C584 C586 1.419 . S
C585 C580 1.425 . S
C585 C582 1.409 . S
C585 C583 1.415 . S
C586 H576 0.930 . S
C586 C584 1.419 . S
C586 C587 1.362 . S
C587 H577 0.930 . S
C587 C580 1.409 . S
C587 C586 1.362 . S
H588 C594 0.930 . S
H589 C597 0.930 . S
H590 C598 0.930 . S
H591 C599 0.930 . S
H592 C602 0.930 . S
H593 C603 0.930 . S
C594 H588 0.930 . S
C594 C595 1.355 . S
C594 C596 1.415 . S
C595 C594 1.355 . S
C595 C597 1.419 . S
C596 C594 1.415 . S
C596 C601 1.425 . S
C596 C603 1.409 . S
C597 H589 0.930 . S
C597 C595 1.419 . S
C597 C598 1.362 . S
C598 H590 0.930 . S
C598 C597 1.362 . S
C598 C601 1.409 . S
C599 H591 0.930 . S
C599 C600 1.355 . S
C599 C601 1.415 . S
C600 C599 1.355 . S
C600 C602 1.419 . S
C601 C596 1.425 . S
C601 C598 1.409 . S
C601 C599 1.415 . S
C602 H592 0.930 . S
C602 C600 1.419 . S
C602 C603 1.362 . S
C603 H593 0.930 . S
C603 C596 1.409 . S
C603 C602 1.362 . S
H604 C610 0.930 . S
H605 C613 0.930 . S
H606 C614 0.930 . S
H607 C615 0.930 . S
H608 C618 0.930 . S
H609 C619 0.930 . S
C610 H604 0.930 . S
C610 C611 1.355 . S
C610 C612 1.415 . S
C611 C610 1.355 . S
C611 C613 1.419 . S
C612 C610 1.415 . S
C612 C617 1.425 . S
C612 C619 1.409 . S
C613 H605 0.930 . S
C613 C611 1.419 . S
C613 C614 1.362 . S
C614 H606 0.930 . S
C614 C613 1.362 . S
C614 C617 1.409 . S
C615 H607 0.930 . S
C615 C616 1.355 . S
C615 C617 1.415 . S
C616 C615 1.355 . S
C616 C618 1.419 . S
C617 C612 1.425 . S
C617 C614 1.409 . S
C617 C615 1.415 . S
C618 H608 0.930 . S
C618 C616 1.419 . S
C618 C619 1.362 . S
C619 H609 0.930 . S
C619 C612 1.409 . S
C619 C618 1.362 . S
H620 C626 0.930 . S
H621 C629 0.930 . S
H622 C630 0.930 . S
H623 C631 0.930 . S
H624 C634 0.930 . S
H625 C635 0.930 . S
C626 H620 0.930 . S
C626 C627 1.355 . S
C626 C628 1.415 . S
C627 C626 1.355 . S
C627 C629 1.419 1_655 S
C628 C626 1.415 . S
C628 C633 1.425 . S
C628 C635 1.409 . S
C629 H621 0.930 . S
C629 C627 1.419 1_455 S
C629 C630 1.362 1_455 S
C630 H622 0.930 . S
C630 C629 1.362 1_655 S
C630 C633 1.409 . S
C631 H623 0.930 . S
C631 C632 1.355 . S
C631 C633 1.415 . S
C632 C631 1.355 . S
C632 C634 1.419 . S
C633 C628 1.425 . S
C633 C630 1.409 . S
C633 C631 1.415 . S
C634 H624 0.930 . S
C634 C632 1.419 . S
C634 C635 1.362 . S
C635 H625 0.930 . S
C635 C628 1.409 . S
C635 C634 1.362 . S
H636 C642 0.930 . S
H637 C645 0.930 . S
H638 C646 0.930 . S
H639 C647 0.930 . S
H640 C650 0.930 . S
H641 C651 0.930 . S
C642 H636 0.930 . S
C642 C643 1.355 . S
C642 C644 1.415 . S
C643 C642 1.355 . S
C643 C645 1.419 . S
C644 C642 1.415 . S
C644 C649 1.425 . S
C644 C651 1.409 . S
C645 H637 0.930 . S
C645 C643 1.419 . S
C645 C646 1.362 . S
C646 H638 0.930 . S
C646 C645 1.362 . S
C646 C649 1.409 . S
C647 H639 0.930 . S
C647 C648 1.355 . S
C647 C649 1.415 . S
C648 C647 1.355 . S
C648 C650 1.419 . S
C649 C644 1.425 . S
C649 C646 1.409 . S
C649 C647 1.415 . S
C650 H640 0.930 . S
C650 C648 1.419 . S
C650 C651 1.362 . S
C651 H641 0.930 . S
C651 C644 1.409 . S
C651 C650 1.362 . S
H652 C658 0.930 . S
H653 C661 0.930 . S
H654 C662 0.930 . S
H655 C663 0.930 . S
H656 C666 0.930 . S
H657 C667 0.930 . S
C658 H652 0.930 . S
C658 C659 1.355 . S
C658 C660 1.415 . S
C659 C658 1.355 . S
C659 C661 1.419 . S
C660 C658 1.415 . S
C660 C665 1.425 . S
C660 C667 1.409 . S
C661 H653 0.930 . S
C661 C659 1.419 . S
C661 C662 1.362 . S
C662 H654 0.930 . S
C662 C661 1.362 . S
C662 C665 1.409 . S
C663 H655 0.930 . S
C663 C664 1.355 . S
C663 C665 1.415 . S
C664 C663 1.355 . S
C664 C666 1.419 . S
C665 C660 1.425 . S
C665 C662 1.409 . S
C665 C663 1.415 . S
C666 H656 0.930 . S
C666 C664 1.419 . S
C666 C667 1.362 . S
C667 H657 0.930 . S
C667 C660 1.409 . S
C667 C666 1.362 . S
H668 C674 0.930 . S
H669 C677 0.930 . S
H670 C678 0.930 . S
H671 C679 0.930 . S
H672 C682 0.930 . S
H673 C683 0.930 . S
C674 H668 0.930 . S
C674 C675 1.355 . S
C674 C676 1.415 . S
C675 C674 1.355 . S
C675 C677 1.419 . S
C676 C674 1.415 . S
C676 C681 1.425 . S
C676 C683 1.409 . S
C677 H669 0.930 . S
C677 C675 1.419 . S
C677 C678 1.362 . S
C678 H670 0.930 . S
C678 C677 1.362 . S
C678 C681 1.409 . S
C679 H671 0.930 . S
C679 C680 1.355 . S
C679 C681 1.415 . S
C680 C679 1.355 . S
C680 C682 1.419 . S
C681 C676 1.425 . S
C681 C678 1.409 . S
C681 C679 1.415 . S
C682 H672 0.930 . S
C682 C680 1.419 . S
C682 C683 1.362 . S
C683 H673 0.930 . S
C683 C676 1.409 . S
C683 C682 1.362 . S
H684 C690 0.930 . S
H685 C693 0.930 . S
H686 C694 0.930 . S
H687 C695 0.930 . S
H688 C698 0.930 . S
H689 C699 0.930 . S
C690 H684 0.930 . S
C690 C691 1.355 . S
C690 C692 1.415 . S
C691 C690 1.355 . S
C691 C693 1.419 . S
C692 C690 1.415 . S
C692 C697 1.425 . S
C692 C699 1.409 . S
C693 H685 0.930 . S
C693 C691 1.419 . S
C693 C694 1.362 . S
C694 H686 0.930 . S
C694 C693 1.362 . S
C694 C697 1.409 . S
C695 H687 0.930 . S
C695 C696 1.355 . S
C695 C697 1.415 . S
C696 C695 1.355 . S
C696 C698 1.419 . S
C697 C692 1.425 . S
C697 C694 1.409 . S
C697 C695 1.415 . S
C698 H688 0.930 . S
C698 C696 1.419 . S
C698 C699 1.362 . S
C699 H689 0.930 . S
C699 C692 1.409 . S
C699 C698 1.362 . S
H700 C706 0.930 . S
H701 C709 0.930 . S
H702 C710 0.930 . S
H703 C711 0.930 . S
H704 C714 0.930 . S
H705 C715 0.930 . S
C706 H700 0.930 . S
C706 C707 1.355 . S
C706 C708 1.415 . S
C707 C706 1.355 . S
C707 C709 1.419 . S
C708 C706 1.415 . S
C708 C713 1.425 . S
C708 C715 1.409 . S
C709 H701 0.930 . S
C709 C707 1.419 . S
C709 C710 1.362 . S
C710 H702 0.930 . S
C710 C709 1.362 . S
C710 C713 1.409 . S
C711 H703 0.930 . S
C711 C712 1.355 . S
C711 C713 1.415 . S
C712 C711 1.355 . S
C712 C714 1.419 . S
C713 C708 1.425 . S
C713 C710 1.409 . S
C713 C711 1.415 . S
C714 H704 0.930 . S
C714 C712 1.419 . S
C714 C715 1.362 . S
C715 H705 0.930 . S
C715 C708 1.409 . S
C715 C714 1.362 . S
H716 C722 0.930 . S
H717 C725 0.930 . S
H718 C726 0.930 . S
H719 C727 0.930 . S
H720 C730 0.930 . S
H721 C731 0.930 . S
C722 H716 0.930 . S
C722 C723 1.355 . S
C722 C724 1.415 . S
C723 C722 1.355 . S
C723 C725 1.419 . S
C724 C722 1.415 . S
C724 C729 1.425 . S
C724 C731 1.409 . S
C725 H717 0.930 . S
C725 C723 1.419 . S
C725 C726 1.362 . S
C726 H718 0.930 . S
C726 C725 1.362 . S
C726 C729 1.409 . S
C727 H719 0.930 . S
C727 C728 1.355 . S
C727 C729 1.415 . S
C728 C727 1.355 . S
C728 C730 1.419 . S
C729 C724 1.425 . S
C729 C726 1.409 . S
C729 C727 1.415 . S
C730 H720 0.930 . S
C730 C728 1.419 . S
C730 C731 1.362 . S
C731 H721 0.930 . S
C731 C724 1.409 . S
C731 C730 1.362 . S
H732 C738 0.930 . S
H733 C741 0.930 . S
H734 C742 0.930 . S
H735 C743 0.930 . S
H736 C746 0.930 . S
H737 C747 0.930 . S
C738 H732 0.930 . S
C738 C739 1.355 . S
C738 C740 1.415 . S
C739 C738 1.355 . S
C739 C741 1.419 . S
C740 C738 1.415 . S
C740 C745 1.425 . S
C740 C747 1.409 . S
C741 H733 0.930 . S
C741 C739 1.419 . S
C741 C742 1.362 . S
C742 H734 0.930 . S
C742 C741 1.362 . S
C742 C745 1.409 . S
C743 H735 0.930 . S
C743 C744 1.355 . S
C743 C745 1.415 . S
C744 C743 1.355 . S
C744 C746 1.419 . S
C745 C740 1.425 . S
C745 C742 1.409 . S
C745 C743 1.415 . S
C746 H736 0.930 . S
C746 C744 1.419 . S
C746 C747 1.362 . S
C747 H737 0.930 . S
C747 C740 1.409 . S
C747 C746 1.362 . S
H748 C754 0.930 . S
H749 C757 0.930 . S
H750 C758 0.930 . S
H751 C759 0.930 . S
H752 C762 0.930 . S
H753 C763 0.930 . S
C754 H748 0.930 . S
C754 C755 1.355 . S
C754 C756 1.415 . S
C755 C754 1.355 . S
C755 C757 1.419 . S
C756 C754 1.415 . S
C756 C761 1.425 . S
C756 C763 1.409 . S
C757 H749 0.930 . S
C757 C755 1.419 . S
C757 C758 1.362 . S
C758 H750 0.930 . S
C758 C757 1.362 . S
C758 C761 1.409 . S
C759 H751 0.930 . S
C759 C760 1.355 . S
C759 C761 1.415 . S
C760 C759 1.355 . S
C760 C762 1.419 . S
C761 C756 1.425 . S
C761 C758 1.409 . S
C761 C759 1.415 . S
C762 H752 0.930 . S
C762 C760 1.419 . S
C762 C763 1.362 . S
C763 H753 0.930 . S
C763 C756 1.409 . S
C763 C762 1.362 . S
H764 C770 0.930 . S
H765 C773 0.930 . S
H766 C774 0.930 . S
H767 C775 0.930 . S
H768 C778 0.930 . S
H769 C779 0.930 . S
C770 H764 0.930 . S
C770 C771 1.355 . S
C770 C772 1.415 . S
C771 C770 1.355 . S
C771 C773 1.419 . S
C772 C770 1.415 . S
C772 C777 1.425 . S
C772 C779 1.409 . S
C773 H765 0.930 . S
C773 C771 1.419 . S
C773 C774 1.362 . S
C774 H766 0.930 . S
C774 C773 1.362 . S
C774 C777 1.409 . S
C775 H767 0.930 . S
C775 C776 1.355 . S
C775 C777 1.415 . S
C776 C775 1.355 . S
C776 C778 1.419 . S
C777 C772 1.425 . S
C777 C774 1.409 . S
C777 C775 1.415 . S
C778 H768 0.930 . S
C778 C776 1.419 . S
C778 C779 1.362 . S
C779 H769 0.930 . S
C779 C772 1.409 . S
C779 C778 1.362 . S
C280 C204 1.783 . S
C275 C14 1.792 . S
C291 C25 1.708 . S
C296 C207 1.706 . S
C307 C50 1.700 . S
C312 C238 1.697 . S
C328 C173 1.755 . S
C323 C68 1.755 . S
C344 C208 1.751 . S
C339 C16 1.774 . S
C360 C239 1.744 . S
C355 C26 1.741 . S
C376 C164 1.646 . S
C371 C52 1.637 . S
C392 C195 1.694 . S
C387 C70 1.700 . S
C403 C8 1.430 . S
C408 C225 1.363 . S
C419 C88 1.392 . S
C424 C194 1.282 . S
C435 C44 1.320 . S
C440 C154 1.329 1_655 S
C456 C247 1.303 1_655 S
C451 C98 1.328 . S
C472 C175 1.343 . S
C467 C7 1.430 . S
C483 C86 1.345 . S
C488 C174 1.305 1_655 S
C499 C43 1.342 . S
C504 C267 1.298 1_655 S
C520 C206 1.326 . S
C515 C97 1.403 . S
C531 C116 1.734 . S
C536 C266 1.713 . S
C547 C79 1.653 . S
C552 C145 1.665 . S
C563 C140 1.657 1_655 S
C568 C176 1.650 . S
C579 C104 1.772 . S
C584 C235 1.765 . S
C600 C146 1.725 . S
C595 C115 1.730 . S
C611 C80 1.716 . S
C616 C177 1.695 . S
C627 C142 1.658 1_655 S
C632 C226 1.697 . S
C648 C257 1.674 . S
C643 C106 1.679 . S
C659 C122 1.409 . S
C664 C163 1.300 . S
C675 C34 1.378 . S
C680 C256 1.259 . S
C691 C134 1.342 . S
C696 C216 1.325 . S
C712 C185 1.358 . S
C707 C62 1.354 . S
C728 C237 1.280 . S
C723 C124 1.399 . S
C744 C236 1.365 . S
C739 C32 1.356 . S
C760 C205 1.319 . S
C755 C133 1.314 . S
C776 C144 1.358 . S
C771 C61 1.422 . S
