# Generated by pormake.
# Topology wbl, (4,4)-cn, num edge types: 1
# Building blocks:
#     Node 0, Type 0, BuildingBlock: MUDLON_clean_linker_0, # of connection points: 4
#     Node 1, Type 0, BuildingBlock: MUDLON_clean_linker_0, # of connection points: 4
#     Node 2, Type 0, BuildingBlock: MUDLON_clean_linker_0, # of connection points: 4
#     Node 3, Type 0, BuildingBlock: MUDLON_clean_linker_0, # of connection points: 4
#     Node 4, Type 0, BuildingBlock: MUDLON_clean_linker_0, # of connection points: 4
#     Node 5, Type 0, BuildingBlock: MUDLON_clean_linker_0, # of connection points: 4
#     Node 6, Type 0, BuildingBlock: MUDLON_clean_linker_0, # of connection points: 4
#     Node 7, Type 0, BuildingBlock: MUDLON_clean_linker_0, # of connection points: 4
#     Node 8, Type 1, BuildingBlock: TATPOV_clean_sbu_0, # of connection points: 4
#     Node 9, Type 1, BuildingBlock: TATPOV_clean_sbu_0, # of connection points: 4
#     Node 10, Type 1, BuildingBlock: TATPOV_clean_sbu_0, # of connection points: 4
#     Node 11, Type 1, BuildingBlock: TATPOV_clean_sbu_0, # of connection points: 4
#     Node 12, Type 1, BuildingBlock: TATPOV_clean_sbu_0, # of connection points: 4
#     Node 13, Type 1, BuildingBlock: TATPOV_clean_sbu_0, # of connection points: 4
#     Node 14, Type 1, BuildingBlock: TATPOV_clean_sbu_0, # of connection points: 4
#     Node 15, Type 1, BuildingBlock: TATPOV_clean_sbu_0, # of connection points: 4
#     Edge 16, Type (0, 1), BuildingBlock: MIFKUJ_clean_linker_0, # of connection points: 2
#     Edge 17, Type (0, 1), BuildingBlock: MIFKUJ_clean_linker_0, # of connection points: 2
#     Edge 18, Type (0, 1), BuildingBlock: MIFKUJ_clean_linker_0, # of connection points: 2
#     Edge 19, Type (0, 1), BuildingBlock: MIFKUJ_clean_linker_0, # of connection points: 2
#     Edge 20, Type (0, 1), BuildingBlock: MIFKUJ_clean_linker_0, # of connection points: 2
#     Edge 21, Type (0, 1), BuildingBlock: MIFKUJ_clean_linker_0, # of connection points: 2
#     Edge 22, Type (0, 1), BuildingBlock: MIFKUJ_clean_linker_0, # of connection points: 2
#     Edge 23, Type (0, 1), BuildingBlock: MIFKUJ_clean_linker_0, # of connection points: 2
#     Edge 24, Type (0, 1), BuildingBlock: MIFKUJ_clean_linker_0, # of connection points: 2
#     Edge 25, Type (0, 1), BuildingBlock: MIFKUJ_clean_linker_0, # of connection points: 2
#     Edge 26, Type (0, 1), BuildingBlock: MIFKUJ_clean_linker_0, # of connection points: 2
#     Edge 27, Type (0, 1), BuildingBlock: MIFKUJ_clean_linker_0, # of connection points: 2
#     Edge 28, Type (0, 1), BuildingBlock: MIFKUJ_clean_linker_0, # of connection points: 2
#     Edge 29, Type (0, 1), BuildingBlock: MIFKUJ_clean_linker_0, # of connection points: 2
#     Edge 30, Type (0, 1), BuildingBlock: MIFKUJ_clean_linker_0, # of connection points: 2
#     Edge 31, Type (0, 1), BuildingBlock: MIFKUJ_clean_linker_0, # of connection points: 2
#     Edge 32, Type (0, 1), BuildingBlock: MIFKUJ_clean_linker_0, # of connection points: 2
#     Edge 33, Type (0, 1), BuildingBlock: MIFKUJ_clean_linker_0, # of connection points: 2
#     Edge 34, Type (0, 1), BuildingBlock: MIFKUJ_clean_linker_0, # of connection points: 2
#     Edge 35, Type (0, 1), BuildingBlock: MIFKUJ_clean_linker_0, # of connection points: 2
#     Edge 36, Type (0, 1), BuildingBlock: MIFKUJ_clean_linker_0, # of connection points: 2
#     Edge 37, Type (0, 1), BuildingBlock: MIFKUJ_clean_linker_0, # of connection points: 2
#     Edge 38, Type (0, 1), BuildingBlock: MIFKUJ_clean_linker_0, # of connection points: 2
#     Edge 39, Type (0, 1), BuildingBlock: MIFKUJ_clean_linker_0, # of connection points: 2
#     Edge 40, Type (0, 1), BuildingBlock: MIFKUJ_clean_linker_0, # of connection points: 2
#     Edge 41, Type (0, 1), BuildingBlock: MIFKUJ_clean_linker_0, # of connection points: 2
#     Edge 42, Type (0, 1), BuildingBlock: MIFKUJ_clean_linker_0, # of connection points: 2
#     Edge 43, Type (0, 1), BuildingBlock: MIFKUJ_clean_linker_0, # of connection points: 2
#     Edge 44, Type (0, 1), BuildingBlock: MIFKUJ_clean_linker_0, # of connection points: 2
#     Edge 45, Type (0, 1), BuildingBlock: MIFKUJ_clean_linker_0, # of connection points: 2
#     Edge 46, Type (0, 1), BuildingBlock: MIFKUJ_clean_linker_0, # of connection points: 2
#     Edge 47, Type (0, 1), BuildingBlock: MIFKUJ_clean_linker_0, # of connection points: 2
# Relax obj value: 0.127
# Max RMSD: 0.125
# Mean RMSD: 0.116
data_MOF--net-wbl--node1-TATPOV_clean_sbu_0--node2-MUDLON_clean_linker_0--edge1-MIFKUJ_clean_linker_0
_symmetry_space_group_name_H-M    P1
_symmetry_Int_Tables_number       1
_symmetry_cell_setting            triclinic
loop_
_symmetry_equiv_pos_as_xyz
'x, y, z'
_cell_length_a     65.15841
_cell_length_b     65.165349
_cell_length_c     91.94487
_cell_angle_alpha  91.35527
_cell_angle_beta   91.370426
_cell_angle_gamma 89.976501
loop_
_atom_site_label
_atom_site_type_symbol
_atom_site_fract_x
_atom_site_fract_y
_atom_site_fract_z
_atom_type_partial_charge
H0 H 0.15598 0.99161 0.33298 0.0
N1 N 0.11921 0.9947 0.32016 0.0
H2 H 0.16545 0.97188 0.3545 0.0
H3 H 0.0928 0.97353 0.33721 0.0
H4 H 0.1021 0.95396 0.35869 0.0
H5 H 0.10706 0.95521 0.31361 0.0
H6 H 0.11956 0.93379 0.2938 0.0
H7 H 0.13866 0.0074 0.29694 0.0
H8 H 0.14996 0.98647 0.27623 0.0
H9 H 0.1196 0.03416 0.32747 0.0
H10 H 0.07925 0.98515 0.31287 0.0
H11 H 0.09048 0.05773 0.32853 0.0
H12 H 0.04979 0.00849 0.31423 0.0
H13 H 0.00132 0.13148 0.33814 0.0
H14 H 0.98524 0.14108 0.36111 0.0
H15 H 0.96879 0.07761 0.36708 0.0
H16 H 0.9856 0.06814 0.34441 0.0
H17 H 0.97224 0.06584 0.32025 0.0
H18 H 0.94094 0.07072 0.30551 0.0
H19 H 0.96407 0.12918 0.29183 0.0
H20 H 0.99532 0.12402 0.30648 0.0
H21 H 0.03366 0.08867 0.34441 0.0
H22 H 0.06091 0.06341 0.34316 0.0
H23 H 0.03481 0.03905 0.30276 0.0
N24 N 0.0025 0.09456 0.32531 0.0
H25 H 0.00719 0.0639 0.30409 0.0
C26 C 0.12374 0.98427 0.33354 0.0
C27 C 0.14414 0.98361 0.33867 0.0
C28 C 0.14952 0.97224 0.35087 0.0
C29 C 0.1345 0.96137 0.35825 0.0
C30 C 0.11395 0.96238 0.35332 0.0
C31 C 0.10862 0.97361 0.34102 0.0
C32 C 0.12256 0.98279 0.30701 0.0
C33 C 0.1163 0.9622 0.30546 0.0
C34 C 0.12329 0.94997 0.29392 0.0
C35 C 0.13625 0.9582 0.28347 0.0
C36 C 0.14064 0.97937 0.2843 0.0
C37 C 0.13403 0.99145 0.29604 0.0
C38 C 0.1016 0.00802 0.32014 0.0
C39 C 0.10439 0.02854 0.32452 0.0
C40 C 0.08771 0.04189 0.32522 0.0
C41 C 0.06775 0.03493 0.32162 0.0
C42 C 0.06497 0.01435 0.31699 0.0
C43 C 0.08177 0.00098 0.31626 0.0
C44 C 0.99456 0.09922 0.33955 0.0
C45 C 0.99447 0.11966 0.34455 0.0
C46 C 0.98512 0.1251 0.35758 0.0
C47 C 0.97551 0.11014 0.36585 0.0
C48 C 0.97615 0.08949 0.36104 0.0
C49 C 0.9856 0.08406 0.34801 0.0
C50 C 0.9861 0.09469 0.31448 0.0
C51 C 0.97073 0.07949 0.31384 0.0
C52 C 0.95281 0.08234 0.30545 0.0
C53 C 0.94992 0.10042 0.2976 0.0
C54 C 0.96587 0.11495 0.29758 0.0
C55 C 0.98375 0.11208 0.30596 0.0
C56 C 0.01745 0.07797 0.32479 0.0
C57 C 0.03332 0.07758 0.33545 0.0
C58 C 0.04917 0.06327 0.33462 0.0
C59 C 0.05003 0.04918 0.32287 0.0
C60 C 0.03436 0.04945 0.31211 0.0
C61 C 0.01838 0.06378 0.31295 0.0
H62 H 0.95009 0.44789 0.58216 0.0
N63 N 0.93988 0.48517 0.57066 0.0
H64 H 0.93634 0.43312 0.60399 0.0
H65 H 0.91257 0.50175 0.58848 0.0
H66 H 0.89836 0.48674 0.61035 0.0
H67 H 0.90598 0.48299 0.55416 0.0
H68 H 0.89729 0.45698 0.53538 0.0
H69 H 0.96698 0.4576 0.55815 0.0
H70 H 0.95854 0.43208 0.53938 0.0
H71 H 0.97715 0.47064 0.58075 0.0
H72 H 0.9461 0.52437 0.56486 0.0
H73 H 0.00882 0.4897 0.58346 0.0
H74 H 0.97769 0.54429 0.56861 0.0
H75 H 0.1054 0.55892 0.6031 0.0
H76 H 0.11301 0.57541 0.62685 0.0
H77 H 0.05251 0.60253 0.62647 0.0
H78 H 0.04494 0.58582 0.60283 0.0
H79 H 0.05755 0.60228 0.5819 0.0
H80 H 0.07375 0.62807 0.56752 0.0
H81 H 0.11655 0.58247 0.55159 0.0
H82 H 0.10112 0.55708 0.56717 0.0
H83 H 0.05734 0.53233 0.60159 0.0
H84 H 0.02516 0.51399 0.59803 0.0
H85 H 0.01079 0.55054 0.56048 0.0
N86 N 0.07181 0.56328 0.58646 0.0
H87 H 0.04218 0.5698 0.56466 0.0
C88 C 0.9325 0.47615 0.58374 0.0
C89 C 0.9391 0.4567 0.58832 0.0
C90 C 0.9312 0.44822 0.60082 0.0
C91 C 0.91633 0.45882 0.60887 0.0
C92 C 0.90973 0.47821 0.60429 0.0
C93 C 0.91786 0.48682 0.59188 0.0
C94 C 0.937 0.47233 0.55774 0.0
C95 C 0.91768 0.47225 0.55069 0.0
C96 C 0.91278 0.45744 0.53992 0.0
C97 C 0.9272 0.44237 0.53601 0.0
C98 C 0.94703 0.44335 0.54232 0.0
C99 C 0.9519 0.45811 0.5531 0.0
C100 C 0.95914 0.496 0.57236 0.0
C101 C 0.97705 0.48657 0.57783 0.0
C102 C 0.99526 0.49769 0.57959 0.0
C103 C 0.99594 0.51869 0.57638 0.0
C104 C 0.97795 0.5281 0.57099 0.0
C105 C 0.95981 0.5168 0.56892 0.0
C106 C 0.07476 0.57124 0.60116 0.0
C107 C 0.09369 0.56811 0.6083 0.0
C108 C 0.09795 0.57745 0.62185 0.0
C109 C 0.08335 0.59028 0.62846 0.0
C110 C 0.06408 0.59284 0.62155 0.0
C111 C 0.05975 0.58331 0.60806 0.0
C112 C 0.07849 0.57778 0.5759 0.0
C113 C 0.07043 0.59779 0.57535 0.0
C114 C 0.0796 0.61255 0.56688 0.0
C115 C 0.09676 0.60757 0.55846 0.0
C116 C 0.10379 0.58711 0.55823 0.0
C117 C 0.09484 0.57246 0.56697 0.0
C118 C 0.05233 0.55289 0.58373 0.0
C119 C 0.04713 0.53663 0.59271 0.0
C120 C 0.02877 0.52592 0.59051 0.0
C121 C 0.01527 0.53065 0.5789 0.0
C122 C 0.02054 0.5467 0.56972 0.0
C123 C 0.03877 0.55775 0.57211 0.0
H124 H 0.61945 0.47917 0.84021 0.0
N125 N 0.5818 0.48332 0.82871 0.0
H126 H 0.62973 0.46193 0.86251 0.0
H127 H 0.55575 0.46824 0.84972 0.0
H128 H 0.56589 0.45214 0.87201 0.0
H129 H 0.58065 0.44161 0.82448 0.0
H130 H 0.59701 0.42206 0.80512 0.0
H131 H 0.59975 0.49811 0.80547 0.0
H132 H 0.61532 0.47868 0.78546 0.0
H133 H 0.56945 0.52218 0.82969 0.0
H134 H 0.54739 0.46041 0.82237 0.0
H135 H 0.53441 0.53518 0.82717 0.0
H136 H 0.5123 0.47286 0.82092 0.0
H137 H 0.43696 0.57059 0.83752 0.0
H138 H 0.4242 0.58387 0.86031 0.0
H139 H 0.40878 0.5223 0.87278 0.0
H140 H 0.42078 0.50908 0.84925 0.0
H141 H 0.39933 0.52404 0.81475 0.0
H142 H 0.38121 0.54654 0.79783 0.0
H143 H 0.43495 0.58517 0.79643 0.0
H144 H 0.45294 0.56263 0.81335 0.0
H145 H 0.46959 0.54887 0.84118 0.0
H146 H 0.50472 0.5375 0.83997 0.0
H147 H 0.48654 0.48985 0.80869 0.0
N148 N 0.43578 0.53049 0.82752 0.0
H149 H 0.45078 0.50038 0.81097 0.0
C150 C 0.58689 0.47488 0.84285 0.0
C151 C 0.60767 0.47335 0.84714 0.0
C152 C 0.61351 0.46358 0.85996 0.0
C153 C 0.59864 0.45537 0.86902 0.0
C154 C 0.57781 0.45772 0.86511 0.0
C155 C 0.57197 0.46718 0.85219 0.0
C156 C 0.5894 0.47137 0.81656 0.0
C157 C 0.58809 0.44982 0.81596 0.0
C158 C 0.59729 0.43865 0.80474 0.0
C159 C 0.60768 0.44875 0.79371 0.0
C160 C 0.60786 0.47036 0.79391 0.0
C161 C 0.59889 0.48151 0.80527 0.0
C162 C 0.56101 0.49041 0.82642 0.0
C163 C 0.55698 0.51145 0.82759 0.0
C164 C 0.53689 0.51878 0.82628 0.0
C165 C 0.5203 0.5051 0.82407 0.0
C166 C 0.52454 0.48399 0.82241 0.0
C167 C 0.54468 0.47676 0.82334 0.0
C168 C 0.42956 0.53871 0.8415 0.0
C169 C 0.43073 0.55984 0.84501 0.0
C170 C 0.42367 0.56745 0.85825 0.0
C171 C 0.41549 0.55418 0.86846 0.0
C172 C 0.41474 0.533 0.8651 0.0
C173 C 0.4217 0.52539 0.85173 0.0
C174 C 0.42734 0.54167 0.8154 0.0
C175 C 0.40736 0.53702 0.81044 0.0
C176 C 0.39709 0.54986 0.80075 0.0
C177 C 0.40664 0.5677 0.79592 0.0
C178 C 0.42718 0.57162 0.8001 0.0
C179 C 0.4375 0.55867 0.80971 0.0
C180 C 0.45723 0.52509 0.82642 0.0
C181 C 0.47292 0.53584 0.83416 0.0
C182 C 0.4933 0.52947 0.83326 0.0
C183 C 0.49868 0.51262 0.82428 0.0
C184 C 0.48305 0.50253 0.81604 0.0
C185 C 0.46258 0.50861 0.81722 0.0
H186 H 0.51311 0.9008 0.10556 0.0
N187 N 0.50555 0.93072 0.08718 0.0
H188 H 0.49675 0.89514 0.12872 0.0
H189 H 0.4807 0.95805 0.10144 0.0
H190 H 0.46517 0.95325 0.12492 0.0
H191 H 0.46699 0.94101 0.07801 0.0
H192 H 0.44432 0.91986 0.06216 0.0
H193 H 0.51625 0.89795 0.07155 0.0
H194 H 0.49413 0.87713 0.0552 0.0
H195 H 0.54518 0.92711 0.08235 0.0
H196 H 0.49538 0.97047 0.08147 0.0
H197 H 0.56863 0.95343 0.07441 0.0
H198 H 0.519 0.99767 0.07511 0.0
H199 H 0.63985 0.04761 0.07734 0.0
H200 H 0.64754 0.06768 0.09976 0.0
H201 H 0.5836 0.08435 0.10248 0.0
H202 H 0.57589 0.06363 0.08038 0.0
H203 H 0.57915 0.07527 0.05661 0.0
H204 H 0.58707 0.10037 0.03853 0.0
H205 H 0.63603 0.06147 0.02292 0.0
H206 H 0.62872 0.03694 0.04185 0.0
H207 H 0.61082 0.00792 0.07724 0.0
H208 H 0.58662 0.9811 0.08268 0.0
H209 H 0.5392 0.01289 0.05828 0.0
N210 N 0.60363 0.0426 0.0639 0.0
H211 H 0.56331 0.04058 0.05402 0.0
C212 C 0.49836 0.92987 0.10183 0.0
C213 C 0.50296 0.91247 0.10992 0.0
C214 C 0.49362 0.90933 0.12319 0.0
C215 C 0.47952 0.92371 0.12875 0.0
C216 C 0.47566 0.94166 0.1209 0.0
C217 C 0.48482 0.94462 0.1075 0.0
C218 C 0.49313 0.92074 0.07606 0.0
C219 C 0.47301 0.92723 0.07289 0.0
C220 C 0.46015 0.91519 0.06376 0.0
C221 C 0.46734 0.89662 0.05762 0.0
C222 C 0.48798 0.89108 0.06003 0.0
C223 C 0.50069 0.90299 0.06924 0.0
C224 C 0.51881 0.94701 0.08301 0.0
C225 C 0.53948 0.94254 0.08077 0.0
C226 C 0.55287 0.95772 0.07634 0.0
C227 C 0.54598 0.97801 0.07442 0.0
C228 C 0.525 0.98232 0.0764 0.0
C229 C 0.51147 0.96687 0.08041 0.0
C230 C 0.60744 0.05435 0.07715 0.0
C231 C 0.62753 0.05553 0.08284 0.0
C232 C 0.63186 0.06689 0.0956 0.0
C233 C 0.61613 0.07751 0.10274 0.0
C234 C 0.59596 0.07637 0.09706 0.0
C235 C 0.59158 0.06465 0.08444 0.0
C236 C 0.60375 0.0544 0.05084 0.0
C237 C 0.59132 0.07187 0.04915 0.0
C238 C 0.59577 0.08622 0.03862 0.0
C239 C 0.61255 0.08324 0.02943 0.0
C240 C 0.62338 0.06457 0.03008 0.0
C241 C 0.6191 0.0504 0.04077 0.0
C242 C 0.58907 0.02614 0.06513 0.0
C243 C 0.59523 0.00896 0.07297 0.0
C244 C 0.5813 0.99353 0.07596 0.0
C245 C 0.56081 0.99453 0.07083 0.0
C246 C 0.55471 0.01162 0.06263 0.0
C247 C 0.56862 0.02743 0.05998 0.0
H248 H 0.12179 0.54428 0.92734 0.0
N249 N 0.08745 0.54594 0.94221 0.0
H250 H 0.13004 0.56314 0.90558 0.0
H251 H 0.06117 0.57063 0.92694 0.0
H252 H 0.06949 0.59042 0.90559 0.0
H253 H 0.07784 0.586 0.94914 0.0
H254 H 0.09163 0.60604 0.96954 0.0
H255 H 0.10772 0.53184 0.96533 0.0
H256 H 0.12019 0.55143 0.98674 0.0
H257 H 0.08513 0.50798 0.93156 0.0
H258 H 0.04949 0.55497 0.95294 0.0
H259 H 0.05616 0.48439 0.93222 0.0
H260 H 0.0207 0.53108 0.95451 0.0
H261 H 0.97018 0.40612 0.93676 0.0
H262 H 0.95623 0.39162 0.91375 0.0
H263 H 0.94597 0.45288 0.89816 0.0
H264 H 0.95995 0.46716 0.92099 0.0
H265 H 0.93429 0.46328 0.94144 0.0
H266 H 0.90465 0.45656 0.95611 0.0
H267 H 0.94374 0.42514 0.98712 0.0
H268 H 0.97304 0.43049 0.97156 0.0
H269 H 0.01181 0.4393 0.9492 0.0
H270 H 0.03931 0.46465 0.94912 0.0
H271 H 0.99441 0.51245 0.94165 0.0
N272 N 0.97211 0.44539 0.94495 0.0
H273 H 0.96693 0.48693 0.94273 0.0
C274 C 0.09102 0.55617 0.92878 0.0
C275 C 0.11027 0.55414 0.92249 0.0
C276 C 0.11498 0.5651 0.91014 0.0
C277 C 0.10054 0.57859 0.90391 0.0
C278 C 0.08094 0.58008 0.90999 0.0
C279 C 0.07618 0.56888 0.92226 0.0
C280 C 0.09247 0.5575 0.95539 0.0
C281 C 0.08711 0.57828 0.95722 0.0
C282 C 0.09478 0.58973 0.96917 0.0
C283 C 0.10746 0.58055 0.97981 0.0
C284 C 0.11111 0.55927 0.97858 0.0
C285 C 0.10387 0.54796 0.96642 0.0
C286 C 0.06959 0.53299 0.94239 0.0
C287 C 0.07102 0.5131 0.93649 0.0
C288 C 0.0545 0.49961 0.93703 0.0
C289 C 0.03618 0.50564 0.94372 0.0
C290 C 0.03453 0.5259 0.94926 0.0
C291 C 0.05104 0.53954 0.94849 0.0
C292 C 0.96625 0.43764 0.93062 0.0
C293 C 0.96526 0.41636 0.92824 0.0
C294 C 0.95716 0.40814 0.91517 0.0
C295 C 0.94991 0.42113 0.90419 0.0
C296 C 0.95164 0.44249 0.90635 0.0
C297 C 0.95966 0.45069 0.91946 0.0
C298 C 0.95577 0.44671 0.95519 0.0
C299 C 0.93655 0.45516 0.95147 0.0
C300 C 0.91955 0.45146 0.96002 0.0
C301 C 0.92158 0.43972 0.97265 0.0
C302 C 0.94138 0.43352 0.97719 0.0
C303 C 0.95824 0.43679 0.96844 0.0
C304 C 0.9875 0.46118 0.94576 0.0
C305 C 0.00798 0.4553 0.9477 0.0
C306 C 0.02364 0.46981 0.94748 0.0
C307 C 0.01917 0.4906 0.94504 0.0
C308 C 0.99846 0.49661 0.94357 0.0
C309 C 0.98272 0.48203 0.94405 0.0
H310 H 0.5286 0.37396 0.1908 0.0
N311 N 0.52774 0.41157 0.20258 0.0
H312 H 0.54523 0.36276 0.1683 0.0
H313 H 0.54664 0.43638 0.18314 0.0
H314 H 0.56313 0.42538 0.16087 0.0
H315 H 0.56752 0.42506 0.20573 0.0
H316 H 0.59228 0.41364 0.2239 0.0
H317 H 0.51924 0.39355 0.22734 0.0
H318 H 0.54362 0.38344 0.24646 0.0
H319 H 0.48732 0.40974 0.19992 0.0
H320 H 0.53748 0.45236 0.20578 0.0
H321 H 0.4632 0.43822 0.19799 0.0
H322 H 0.51373 0.48112 0.20283 0.0
H323 H 0.3916 0.52709 0.17633 0.0
H324 H 0.38405 0.54258 0.15285 0.0
H325 H 0.44819 0.55815 0.14918 0.0
H326 H 0.45563 0.5418 0.17246 0.0
H327 H 0.451 0.56091 0.19481 0.0
H328 H 0.44247 0.59102 0.20967 0.0
H329 H 0.39024 0.55885 0.22619 0.0
H330 H 0.39855 0.52895 0.21078 0.0
H331 H 0.42814 0.48972 0.17787 0.0
H332 H 0.45321 0.4625 0.18116 0.0
H333 H 0.4868 0.50089 0.21247 0.0
N334 N 0.42725 0.52649 0.19079 0.0
H335 H 0.46249 0.52846 0.20845 0.0
C336 C 0.53613 0.40595 0.18865 0.0
C337 C 0.53587 0.38525 0.18417 0.0
C338 C 0.54546 0.37889 0.1714 0.0
C339 C 0.55545 0.39321 0.16282 0.0
C340 C 0.55528 0.41404 0.16713 0.0
C341 C 0.54581 0.42035 0.17993 0.0
C342 C 0.5416 0.40951 0.21492 0.0
C343 C 0.56211 0.41615 0.21463 0.0
C344 C 0.57629 0.40977 0.22523 0.0
C345 C 0.57015 0.39711 0.23657 0.0
C346 C 0.54912 0.39252 0.23765 0.0
C347 C 0.53508 0.39848 0.22683 0.0
C348 C 0.51409 0.42892 0.20278 0.0
C349 C 0.49307 0.42532 0.20076 0.0
C350 C 0.47938 0.44166 0.19947 0.0
C351 C 0.48651 0.46206 0.1999 0.0
C352 C 0.50762 0.46566 0.20248 0.0
C353 C 0.52128 0.44923 0.20405 0.0
C354 C 0.42404 0.53347 0.17615 0.0
C355 C 0.40403 0.53354 0.1703 0.0
C356 C 0.39976 0.54258 0.15697 0.0
C357 C 0.41546 0.55194 0.14925 0.0
C358 C 0.43575 0.55103 0.15482 0.0
C359 C 0.44002 0.54182 0.16816 0.0
C360 C 0.42521 0.54273 0.20159 0.0
C361 C 0.4379 0.56021 0.20178 0.0
C362 C 0.43308 0.57739 0.2104 0.0
C363 C 0.41551 0.57743 0.21899 0.0
C364 C 0.40367 0.55943 0.21949 0.0
C365 C 0.40847 0.54228 0.21083 0.0
C366 C 0.44322 0.51129 0.19275 0.0
C367 C 0.44107 0.49238 0.1853 0.0
C368 C 0.45532 0.4767 0.18737 0.0
C369 C 0.47195 0.4793 0.19727 0.0
C370 C 0.47432 0.49835 0.20465 0.0
C371 C 0.46021 0.51423 0.20238 0.0
H372 H 0.39785 0.994 0.43902 0.0
N373 N 0.43538 0.99781 0.45069 0.0
H374 H 0.38714 0.97343 0.41756 0.0
H375 H 0.46078 0.97651 0.43218 0.0
H376 H 0.45048 0.95698 0.41049 0.0
H377 H 0.44748 0.95836 0.45606 0.0
H378 H 0.43439 0.93716 0.47511 0.0
H379 H 0.41737 0.01126 0.47472 0.0
H380 H 0.40564 0.99059 0.49472 0.0
H381 H 0.4333 0.03779 0.44678 0.0
H382 H 0.47618 0.98873 0.45436 0.0
H383 H 0.4616 0.06172 0.44409 0.0
H384 H 0.50481 0.01203 0.4504 0.0
H385 H 0.55133 0.13314 0.42259 0.0
H386 H 0.56482 0.13994 0.39857 0.0
H387 H 0.57477 0.07494 0.39142 0.0
H388 H 0.56127 0.06834 0.41555 0.0
H389 H 0.58593 0.0762 0.43567 0.0
H390 H 0.61644 0.08467 0.45018 0.0
H391 H 0.5817 0.12982 0.47461 0.0
H392 H 0.55164 0.12237 0.45897 0.0
H393 H 0.51228 0.0953 0.42343 0.0
H394 H 0.48537 0.07046 0.42742 0.0
H395 H 0.52516 0.03948 0.4582 0.0
N396 N 0.54958 0.09736 0.4357 0.0
H397 H 0.55254 0.06329 0.45322 0.0
C398 C 0.43006 0.98709 0.4372 0.0
C399 C 0.40938 0.98609 0.43271 0.0
C400 C 0.40334 0.97439 0.42042 0.0
C401 C 0.41795 0.96349 0.41227 0.0
C402 C 0.43876 0.96489 0.41661 0.0
C403 C 0.44474 0.97639 0.42899 0.0
C404 C 0.43274 0.98629 0.46371 0.0
C405 C 0.43856 0.96557 0.46454 0.0
C406 C 0.4312 0.95346 0.47563 0.0
C407 C 0.4184 0.96196 0.48635 0.0
C408 C 0.41477 0.98327 0.48639 0.0
C409 C 0.42167 0.99523 0.47507 0.0
C410 C 0.45264 0.01154 0.45048 0.0
C411 C 0.44892 0.03223 0.44778 0.0
C412 C 0.46518 0.04578 0.44603 0.0
C413 C 0.48565 0.0388 0.44659 0.0
C414 C 0.48935 0.01808 0.4499 0.0
C415 C 0.47299 0.00464 0.45203 0.0
C416 C 0.55533 0.10034 0.42084 0.0
C417 C 0.5561 0.12037 0.41571 0.0
C418 C 0.56375 0.12419 0.40198 0.0
C419 C 0.57091 0.10797 0.39311 0.0
C420 C 0.56956 0.08776 0.39808 0.0
C421 C 0.56176 0.08396 0.41181 0.0
C422 C 0.56666 0.09921 0.44593 0.0
C423 C 0.58487 0.08795 0.44412 0.0
C424 C 0.60233 0.09264 0.45265 0.0
C425 C 0.60181 0.10829 0.46347 0.0
C426 C 0.58297 0.11818 0.46608 0.0
C427 C 0.56567 0.11382 0.45729 0.0
C428 C 0.53458 0.08138 0.43789 0.0
C429 C 0.51533 0.08294 0.43086 0.0
C430 C 0.4998 0.06884 0.43336 0.0
C431 C 0.50282 0.05306 0.44338 0.0
C432 C 0.52222 0.05126 0.45031 0.0
C433 C 0.53798 0.06512 0.44751 0.0
H434 H 0.04988 0.89989 0.6805 0.0
N435 N 0.05317 0.93469 0.69601 0.0
H436 H 0.06792 0.8903 0.65818 0.0
H437 H 0.08023 0.9587 0.68153 0.0
H438 H 0.09836 0.94917 0.65949 0.0
H439 H 0.09281 0.9453 0.70397 0.0
H440 H 0.11125 0.93481 0.72572 0.0
H441 H 0.03759 0.91724 0.71906 0.0
H442 H 0.0555 0.90818 0.74165 0.0
H443 H 0.01287 0.93205 0.69271 0.0
H444 H 0.0621 0.97553 0.69936 0.0
H445 H 0.98808 0.96004 0.69178 0.0
H446 H 0.03776 0.00388 0.69713 0.0
H447 H 0.9189 0.05477 0.66916 0.0
H448 H 0.91634 0.07065 0.64545 0.0
H449 H 0.98243 0.0771 0.64538 0.0
H450 H 0.98464 0.06185 0.66946 0.0
H451 H 0.97674 0.08296 0.69183 0.0
H452 H 0.96673 0.11345 0.7059 0.0
H453 H 0.91017 0.08343 0.71682 0.0
H454 H 0.92065 0.05286 0.70305 0.0
H455 H 0.95148 0.01234 0.67365 0.0
H456 H 0.9764 0.98491 0.6764 0.0
H457 H 0.01122 0.02279 0.70739 0.0
N458 N 0.95231 0.04958 0.68561 0.0
H459 H 0.98704 0.05063 0.70376 0.0
C460 C 0.06374 0.92988 0.68276 0.0
C461 C 0.06038 0.91071 0.6759 0.0
C462 C 0.07061 0.90531 0.66317 0.0
C463 C 0.08459 0.91898 0.65716 0.0
C464 C 0.08783 0.93827 0.66397 0.0
C465 C 0.07738 0.94375 0.67658 0.0
C466 C 0.06391 0.93135 0.70962 0.0
C467 C 0.0845 0.93715 0.71205 0.0
C468 C 0.09501 0.93142 0.72474 0.0
C469 C 0.08501 0.92033 0.73548 0.0
C470 C 0.06392 0.91614 0.73349 0.0
C471 C 0.05359 0.92141 0.72063 0.0
C472 C 0.03923 0.95175 0.69571 0.0
C473 C 0.01828 0.94775 0.69374 0.0
C474 C 0.0042 0.96381 0.69308 0.0
C475 C 0.01086 0.98437 0.69405 0.0
C476 C 0.03197 0.98832 0.69638 0.0
C477 C 0.04601 0.97213 0.69739 0.0
C478 C 0.95185 0.05708 0.671 0.0
C479 C 0.93281 0.05939 0.6639 0.0
C480 C 0.93145 0.06834 0.6503 0.0
C481 C 0.94921 0.07507 0.64343 0.0
C482 C 0.96843 0.07228 0.65042 0.0
C483 C 0.96975 0.06344 0.66413 0.0
C484 C 0.94937 0.0656 0.69643 0.0
C485 C 0.96251 0.08272 0.69765 0.0
C486 C 0.95666 0.10022 0.70558 0.0
C487 C 0.93751 0.10102 0.71232 0.0
C488 C 0.92511 0.08333 0.71191 0.0
C489 C 0.93104 0.06582 0.70404 0.0
C490 C 0.96719 0.03361 0.68839 0.0
C491 C 0.96453 0.01471 0.68102 0.0
C492 C 0.97874 0.99895 0.68274 0.0
C493 C 0.99585 0.00144 0.69224 0.0
C494 C 0.99844 0.02035 0.69981 0.0
C495 C 0.98439 0.03635 0.69781 0.0
Zn496 Zn 0.30152 0.71474 0.98856 0.0
Zn497 Zn 0.3199 0.69352 0.01078 0.0
O498 O 0.28931 0.6907 0.0145 0.0
O499 O 0.27393 0.70903 0.9976 0.0
O500 O 0.33305 0.67844 0.02742 0.0
O501 O 0.31777 0.73999 0.99497 0.0
O502 O 0.33229 0.72236 0.01259 0.0
C503 C 0.27299 0.69776 0.00861 0.0
C504 C 0.32516 0.67887 0.97932 0.0
O505 O 0.32855 0.67713 0.99291 0.0
O506 O 0.31424 0.69353 0.97461 0.0
C507 C 0.35106 0.67101 0.02681 0.0
O508 O 0.36174 0.67353 0.01505 0.0
C509 C 0.3302 0.73903 0.00574 0.0
Zn510 Zn 0.31384 0.80221 0.28187 0.0
Zn511 Zn 0.33807 0.82101 0.26258 0.0
O512 O 0.30879 0.8294 0.2563 0.0
O513 O 0.28881 0.81169 0.27039 0.0
O514 O 0.35649 0.83423 0.24811 0.0
O515 O 0.32711 0.77505 0.27683 0.0
O516 O 0.34528 0.79038 0.26038 0.0
C517 C 0.29093 0.82409 0.26013 0.0
C518 C 0.34097 0.83307 0.29492 0.0
O519 O 0.34733 0.8343 0.28198 0.0
O520 O 0.32648 0.8209 0.29771 0.0
C521 C 0.35199 0.85088 0.24184 0.0
O522 O 0.33458 0.8601 0.24473 0.0
C523 C 0.34016 0.77414 0.26685 0.0
Zn524 Zn 0.23256 0.8052 0.48874 0.0
Zn525 Zn 0.21116 0.82874 0.50812 0.0
O526 O 0.24143 0.83649 0.51222 0.0
O527 O 0.25917 0.81597 0.49788 0.0
O528 O 0.1953 0.84437 0.52343 0.0
O529 O 0.21958 0.77944 0.49636 0.0
O530 O 0.20234 0.79905 0.5116 0.0
C531 C 0.25861 0.83005 0.5076 0.0
C532 C 0.20498 0.83568 0.47571 0.0
O533 O 0.20048 0.83992 0.48885 0.0
O534 O 0.21804 0.82178 0.47288 0.0
C535 C 0.20308 0.84873 0.53594 0.0
O536 O 0.2222 0.84358 0.53887 0.0
C537 C 0.20666 0.78134 0.50637 0.0
Zn538 Zn 0.22081 0.73702 0.74726 0.0
Zn539 Zn 0.20397 0.71749 0.76983 0.0
O540 O 0.19847 0.74796 0.77427 0.0
O541 O 0.21576 0.76419 0.75775 0.0
O542 O 0.19151 0.70316 0.78665 0.0
O543 O 0.24716 0.72121 0.75091 0.0
O544 O 0.23386 0.70789 0.77036 0.0
C545 C 0.20472 0.76461 0.7689 0.0
C546 C 0.18687 0.71037 0.73891 0.0
O547 O 0.18796 0.70575 0.75226 0.0
O548 O 0.19839 0.72419 0.73407 0.0
C549 C 0.17217 0.70097 0.78736 0.0
O550 O 0.16027 0.70849 0.77705 0.0
C551 C 0.2489 0.70993 0.76191 0.0
Zn552 Zn 0.81982 0.22144 0.53143 0.0
Zn553 Zn 0.83881 0.20634 0.50747 0.0
O554 O 0.84169 0.2375 0.50542 0.0
O555 O 0.82727 0.24997 0.52515 0.0
O556 O 0.85299 0.19488 0.48986 0.0
O557 O 0.7934 0.2082 0.52406 0.0
O558 O 0.8096 0.19461 0.50539 0.0
C559 C 0.8366 0.25279 0.51343 0.0
C560 C 0.85447 0.19555 0.53811 0.0
O561 O 0.85595 0.19496 0.52433 0.0
O562 O 0.83997 0.20545 0.54398 0.0
C563 C 0.85974 0.17657 0.48958 0.0
O564 O 0.85695 0.16493 0.50084 0.0
C565 C 0.7933 0.19694 0.51264 0.0
Zn566 Zn 0.80114 0.30641 0.77202 0.0
Zn567 Zn 0.82001 0.32924 0.75205 0.0
O568 O 0.78934 0.33667 0.75009 0.0
O569 O 0.77339 0.31587 0.76459 0.0
O570 O 0.83336 0.34577 0.7365 0.0
O571 O 0.81412 0.28092 0.76363 0.0
O572 O 0.82876 0.29952 0.74709 0.0
C573 C 0.7728 0.3299 0.75531 0.0
C574 C 0.83024 0.33633 0.7843 0.0
O575 O 0.83331 0.34024 0.77101 0.0
O576 O 0.81701 0.32303 0.78754 0.0
C577 C 0.82379 0.35016 0.72476 0.0
O578 O 0.80483 0.3437 0.72264 0.0
C579 C 0.82559 0.28216 0.75276 0.0
Zn580 Zn 0.71871 0.30593 0.03366 0.0
Zn581 Zn 0.69516 0.32521 0.01373 0.0
O582 O 0.69002 0.29462 0.00842 0.0
O583 O 0.71101 0.27902 0.02371 0.0
O584 O 0.68053 0.34091 0.99802 0.0
O585 O 0.74417 0.32098 0.02785 0.0
O586 O 0.72444 0.33648 0.01177 0.0
C587 C 0.69782 0.27817 0.01336 0.0
C588 C 0.68498 0.32966 0.04576 0.0
O589 O 0.68125 0.33413 0.03254 0.0
O590 O 0.69994 0.31804 0.049 0.0
C591 C 0.66332 0.33658 0.99192 0.0
O592 O 0.65308 0.32045 0.99606 0.0
C593 C 0.74201 0.33379 0.0178 0.0
Zn594 Zn 0.73392 0.2198 0.23573 0.0
Zn595 Zn 0.71353 0.19765 0.25538 0.0
O596 O 0.70608 0.22776 0.26001 0.0
O597 O 0.725 0.24622 0.24573 0.0
O598 O 0.69812 0.18217 0.27041 0.0
O599 O 0.76015 0.2054 0.24203 0.0
O600 O 0.74352 0.18899 0.25878 0.0
C601 C 0.71195 0.24518 0.25568 0.0
C602 C 0.70303 0.19241 0.22299 0.0
O603 O 0.70128 0.18677 0.23606 0.0
O604 O 0.71526 0.20674 0.21999 0.0
C605 C 0.67919 0.18592 0.27224 0.0
O606 O 0.67005 0.1997 0.26413 0.0
C607 C 0.76017 0.19293 0.2524 0.0
H608 H 0.17538 0.96227 0.27354 0.0
H609 H 0.19551 0.9368 0.26058 0.0
H610 H 0.14329 0.89624 0.25771 0.0
H611 H 0.12239 0.92223 0.27001 0.0
H612 H 0.17815 0.88112 0.27308 0.0
H613 H 0.1621 0.90955 0.22712 0.0
H614 H 0.15741 0.93693 0.2093 0.0
H615 H 0.22138 0.95226 0.21356 0.0
H616 H 0.22642 0.92518 0.23157 0.0
H617 H 0.25234 0.80837 0.25639 0.0
H618 H 0.22081 0.82768 0.25151 0.0
H619 H 0.25655 0.88279 0.24673 0.0
H620 H 0.28808 0.86324 0.25066 0.0
H621 H 0.2236 0.88592 0.23077 0.0
H622 H 0.23752 0.86692 0.28068 0.0
H623 H 0.24394 0.84276 0.30055 0.0
H624 H 0.18589 0.81359 0.2911 0.0
H625 H 0.17926 0.83745 0.27106 0.0
C626 C 0.16773 0.9484 0.26963 0.0
C627 C 0.14718 0.94434 0.27306 0.0
C628 C 0.17939 0.93376 0.26223 0.0
C629 C 0.1709 0.91465 0.2582 0.0
C630 C 0.1501 0.91094 0.26073 0.0
C631 C 0.13826 0.92575 0.26793 0.0
C632 C 0.18471 0.89771 0.25377 0.0
C633 C 0.18766 0.88177 0.26356 0.0
C634 C 0.19753 0.89904 0.24164 0.0
C635 C 0.19461 0.91535 0.23076 0.0
C636 C 0.17515 0.91885 0.22435 0.0
C637 C 0.17243 0.9343 0.21419 0.0
C638 C 0.18908 0.94634 0.21031 0.0
C639 C 0.2085 0.94292 0.21656 0.0
C640 C 0.2113 0.92749 0.22673 0.0
C641 C 0.25344 0.82447 0.25385 0.0
C642 C 0.27258 0.83441 0.25411 0.0
C643 C 0.23544 0.83552 0.25113 0.0
C644 C 0.23623 0.85685 0.24925 0.0
C645 C 0.25547 0.86639 0.24825 0.0
C646 C 0.27352 0.85521 0.25053 0.0
C647 C 0.2174 0.86965 0.25032 0.0
C648 C 0.21363 0.88486 0.24 0.0
C649 C 0.20409 0.86807 0.26223 0.0
C650 C 0.20803 0.85376 0.27427 0.0
C651 C 0.2262 0.85526 0.2828 0.0
C652 C 0.22986 0.84164 0.29408 0.0
C653 C 0.21536 0.8266 0.29705 0.0
C654 C 0.19713 0.82521 0.28876 0.0
C655 C 0.19341 0.83877 0.27744 0.0
H656 H 0.21822 0.81607 0.3058 0.0
H657 H 0.18694 0.9583 0.20244 0.0
H658 H 0.13828 0.61027 0.55406 0.0
H659 H 0.15705 0.63835 0.54368 0.0
H660 H 0.10034 0.67127 0.53664 0.0
H661 H 0.08118 0.64235 0.54569 0.0
H662 H 0.12319 0.67878 0.51564 0.0
H663 H 0.13459 0.68057 0.56719 0.0
H664 H 0.14446 0.66722 0.59123 0.0
H665 H 0.2058 0.65647 0.57675 0.0
H666 H 0.19621 0.66952 0.55255 0.0
H667 H 0.16961 0.77978 0.51953 0.0
H668 H 0.15132 0.74916 0.52724 0.0
H669 H 0.20151 0.71105 0.51319 0.0
H670 H 0.21968 0.74151 0.50503 0.0
H671 H 0.1826 0.70663 0.54456 0.0
H672 H 0.16832 0.70633 0.49216 0.0
H673 H 0.15651 0.72269 0.46955 0.0
H674 H 0.09768 0.73444 0.48811 0.0
H675 H 0.10928 0.71841 0.51093 0.0
C676 C 0.12963 0.62316 0.54994 0.0
C677 C 0.1081 0.62398 0.55092 0.0
C678 C 0.1405 0.63946 0.54424 0.0
C679 C 0.13022 0.65727 0.5398 0.0
C680 C 0.1087 0.65782 0.54016 0.0
C681 C 0.09775 0.64131 0.54553 0.0
C682 C 0.1419 0.6755 0.53513 0.0
C683 C 0.13604 0.68491 0.52208 0.0
C684 C 0.15878 0.68362 0.54345 0.0
C685 C 0.16462 0.67583 0.55801 0.0
C686 C 0.15015 0.67523 0.5691 0.0
C687 C 0.1557 0.66773 0.58276 0.0
C688 C 0.17573 0.66094 0.5855 0.0
C689 C 0.19027 0.6617 0.5746 0.0
C690 C 0.1848 0.66916 0.56091 0.0
C691 C 0.17679 0.76489 0.51813 0.0
C692 C 0.19606 0.76301 0.51166 0.0
C693 C 0.16631 0.74746 0.5225 0.0
C694 C 0.1751 0.72796 0.52071 0.0
C695 C 0.19453 0.72603 0.5146 0.0
C696 C 0.20483 0.74341 0.50993 0.0
C697 C 0.16389 0.70954 0.52515 0.0
C698 C 0.16979 0.70028 0.53818 0.0
C699 C 0.14676 0.70189 0.51704 0.0
C700 C 0.13975 0.7114 0.5033 0.0
C701 C 0.15295 0.7126 0.49148 0.0
C702 C 0.14627 0.72176 0.47861 0.0
C703 C 0.12638 0.72966 0.47741 0.0
C704 C 0.1131 0.72835 0.48906 0.0
C705 C 0.11971 0.71921 0.50196 0.0
H706 H 0.12123 0.73675 0.46743 0.0
H707 H 0.18002 0.65513 0.59608 0.0
H708 H 0.37943 0.56181 0.77301 0.0
H709 H 0.35539 0.58704 0.763 0.0
H710 H 0.3813 0.63367 0.79207 0.0
H711 H 0.40548 0.60873 0.80183 0.0
H712 H 0.32632 0.60501 0.77663 0.0
H713 H 0.37411 0.6809 0.77969 0.0
H714 H 0.40943 0.69227 0.77514 0.0
H715 H 0.41788 0.64063 0.74603 0.0
H716 H 0.38253 0.6291 0.75024 0.0
H717 H 0.25994 0.68787 0.78578 0.0
H718 H 0.28926 0.66481 0.78844 0.0
H719 H 0.30943 0.68058 0.74576 0.0
H720 H 0.28047 0.70415 0.74318 0.0
H721 H 0.34143 0.6767 0.76336 0.0
H722 H 0.28263 0.63622 0.75075 0.0
H723 H 0.24706 0.62383 0.75262 0.0
H724 H 0.26063 0.60235 0.79558 0.0
H725 H 0.29622 0.61488 0.79405 0.0
C726 C 0.38023 0.57756 0.77702 0.0
C727 C 0.39435 0.58333 0.78816 0.0
C728 C 0.3665 0.59195 0.77132 0.0
C729 C 0.36659 0.6123 0.77671 0.0
C730 C 0.3812 0.61821 0.78748 0.0
C731 C 0.39504 0.60391 0.79306 0.0
C732 C 0.35016 0.62681 0.77229 0.0
C733 C 0.32967 0.62062 0.77361 0.0
C734 C 0.35445 0.6471 0.76809 0.0
C735 C 0.37569 0.65406 0.76538 0.0
C736 C 0.38346 0.67202 0.77226 0.0
C737 C 0.4035 0.67849 0.76975 0.0
C738 C 0.4159 0.66715 0.76033 0.0
C739 C 0.40828 0.64935 0.75336 0.0
C740 C 0.38825 0.64283 0.75583 0.0
C741 C 0.27074 0.68662 0.77702 0.0
C742 C 0.26777 0.69771 0.76422 0.0
C743 C 0.28743 0.67335 0.77853 0.0
C744 C 0.30126 0.67063 0.76716 0.0
C745 C 0.29888 0.68236 0.75464 0.0
C746 C 0.2823 0.69582 0.75319 0.0
C747 C 0.31776 0.65501 0.76817 0.0
C748 C 0.33817 0.66101 0.76623 0.0
C749 C 0.31341 0.63435 0.77139 0.0
C750 C 0.29206 0.62663 0.77232 0.0
C751 C 0.27799 0.62897 0.76063 0.0
C752 C 0.25783 0.62191 0.76162 0.0
C753 C 0.25158 0.61234 0.77422 0.0
C754 C 0.26549 0.60977 0.78583 0.0
C755 C 0.28567 0.61683 0.7849 0.0
H756 H 0.23596 0.60689 0.77497 0.0
H757 H 0.43142 0.67217 0.75841 0.0
H758 H 0.4363 0.90525 0.03784 0.0
H759 H 0.41187 0.88091 0.02626 0.0
H760 H 0.4416 0.83113 0.04861 0.0
H761 H 0.46574 0.85516 0.06024 0.0
H762 H 0.43352 0.82093 0.02057 0.0
H763 H 0.39747 0.8524 0.06088 0.0
H764 H 0.38307 0.88153 0.0749 0.0
H765 H 0.34523 0.89763 0.03802 0.0
H766 H 0.35963 0.86874 0.02372 0.0
H767 H 0.36287 0.74051 0.02488 0.0
H768 H 0.38505 0.76984 0.03089 0.0
H769 H 0.34874 0.80769 0.0023 0.0
H770 H 0.32641 0.77836 0.99614 0.0
H771 H 0.35891 0.8268 0.0295 0.0
H772 H 0.39216 0.79213 0.99031 0.0
H773 H 0.40631 0.76239 0.97686 0.0
H774 H 0.4494 0.75191 0.01195 0.0
H775 H 0.4353 0.78141 0.02573 0.0
C776 C 0.43759 0.88911 0.04026 0.0
C777 C 0.45304 0.88213 0.04989 0.0
C778 C 0.42366 0.87524 0.03363 0.0
C779 C 0.42491 0.85423 0.03662 0.0
C780 C 0.44047 0.84725 0.04605 0.0
C781 C 0.45433 0.86103 0.05265 0.0
C782 C 0.40982 0.83932 0.03033 0.0
C783 C 0.41721 0.82218 0.02256 0.0
C784 C 0.38849 0.84127 0.03259 0.0
C785 C 0.37981 0.85859 0.04118 0.0
C786 C 0.38621 0.86227 0.05573 0.0
C787 C 0.37802 0.87871 0.06373 0.0
C788 C 0.3633 0.89146 0.05734 0.0
C789 C 0.35668 0.88776 0.04295 0.0
C790 C 0.36484 0.87136 0.03489 0.0
C791 C 0.35949 0.75508 0.01992 0.0
C792 C 0.34293 0.75708 0.00998 0.0
C793 C 0.37224 0.77179 0.02332 0.0
C794 C 0.36863 0.79082 0.0169 0.0
C795 C 0.35178 0.79308 0.00731 0.0
C796 C 0.3391 0.7763 0.00379 0.0
C797 C 0.38274 0.80817 0.02015 0.0
C798 C 0.37517 0.82574 0.0273 0.0
C799 C 0.40394 0.80661 0.01738 0.0
C800 C 0.41256 0.78891 0.0091 0.0
C801 C 0.40455 0.78339 0.99522 0.0
C802 C 0.41258 0.76659 0.98752 0.0
C803 C 0.42872 0.75524 0.99356 0.0
C804 C 0.43689 0.7607 0.00729 0.0
C805 C 0.4289 0.77749 0.01504 0.0
H806 H 0.43492 0.74223 0.98758 0.0
H807 H 0.35697 0.90418 0.06355 0.0
H808 H 0.14615 0.57438 0.9914 0.0
H809 H 0.16719 0.59869 0.0054 0.0
H810 H 0.11686 0.64154 0.00655 0.0
H811 H 0.0949 0.61663 0.99336 0.0
H812 H 0.15392 0.65343 0.99128 0.0
H813 H 0.13355 0.63028 0.03736 0.0
H814 H 0.12589 0.60481 0.05586 0.0
H815 H 0.18852 0.58432 0.05583 0.0
H816 H 0.19652 0.60945 0.03716 0.0
H817 H 0.2365 0.71848 0.00789 0.0
H818 H 0.20237 0.70413 0.01174 0.0
H819 H 0.23005 0.64605 0.02257 0.0
H820 H 0.26403 0.66081 0.01983 0.0
H821 H 0.19698 0.64861 0.03628 0.0
H822 H 0.21421 0.6603 0.98602 0.0
H823 H 0.22373 0.68123 0.96519 0.0
H824 H 0.16946 0.71782 0.97048 0.0
H825 H 0.15976 0.69721 0.99144 0.0
C826 C 0.13904 0.58848 0.99516 0.0
C827 C 0.11877 0.59354 0.99094 0.0
C828 C 0.15124 0.60245 0.00317 0.0
C829 C 0.14358 0.62189 0.00696 0.0
C830 C 0.12301 0.62656 0.00371 0.0
C831 C 0.11059 0.61237 0.99599 0.0
C832 C 0.15821 0.63819 0.01162 0.0
C833 C 0.16294 0.65287 0.00134 0.0
C834 C 0.1703 0.63688 0.02452 0.0
C835 C 0.16561 0.62174 0.0358 0.0
C836 C 0.14567 0.62025 0.04121 0.0
C837 C 0.14127 0.60588 0.05175 0.0
C838 C 0.15671 0.59294 0.05701 0.0
C839 C 0.17658 0.59436 0.05176 0.0
C840 C 0.18107 0.6087 0.04121 0.0
C841 C 0.23523 0.70283 0.01149 0.0
C842 C 0.25282 0.69064 0.01338 0.0
C843 C 0.21575 0.6946 0.01362 0.0
C844 C 0.21354 0.67378 0.01697 0.0
C845 C 0.23124 0.66211 0.01993 0.0
C846 C 0.2507 0.67054 0.01829 0.0
C847 C 0.19327 0.66332 0.01562 0.0
C848 C 0.18753 0.64972 0.02646 0.0
C849 C 0.18059 0.66502 0.00294 0.0
C850 C 0.18643 0.67744 0.99039 0.0
C851 C 0.2044 0.6729 0.98278 0.0
C852 C 0.20981 0.68469 0.97096 0.0
C853 C 0.19725 0.70089 0.96655 0.0
C854 C 0.17921 0.7053 0.97393 0.0
C855 C 0.17375 0.69359 0.98579 0.0
H856 H 0.20146 0.70999 0.95739 0.0
H857 H 0.15327 0.58183 0.06517 0.0
H858 H 0.4387 0.60693 0.23358 0.0
H859 H 0.42708 0.6404 0.24286 0.0
H860 H 0.36481 0.62503 0.22984 0.0
H861 H 0.37634 0.59199 0.22013 0.0
H862 H 0.3748 0.66204 0.22073 0.0
H863 H 0.38022 0.62556 0.26553 0.0
H864 H 0.39767 0.60498 0.2843 0.0
H865 H 0.44233 0.65278 0.29165 0.0
H866 H 0.42529 0.67353 0.27278 0.0
H867 H 0.33363 0.73704 0.27916 0.0
H868 H 0.34799 0.70382 0.27206 0.0
H869 H 0.38217 0.7325 0.23845 0.0
H870 H 0.36769 0.76587 0.24538 0.0
H871 H 0.3868 0.68903 0.27113 0.0
H872 H 0.38252 0.69925 0.20901 0.0
H873 H 0.36258 0.71861 0.19075 0.0
H874 H 0.31109 0.7209 0.21904 0.0
H875 H 0.33063 0.70133 0.23737 0.0
C876 C 0.42253 0.61067 0.23275 0.0
C877 C 0.40845 0.59676 0.22614 0.0
C878 C 0.41589 0.62973 0.23814 0.0
C879 C 0.39507 0.63517 0.23706 0.0
C880 C 0.38095 0.62114 0.23077 0.0
C881 C 0.38755 0.60215 0.22538 0.0
C882 C 0.38797 0.65578 0.2419 0.0
C883 C 0.37749 0.66795 0.23175 0.0
C884 C 0.39136 0.66344 0.25628 0.0
C885 C 0.4016 0.651 0.26764 0.0
C886 C 0.39386 0.63161 0.27107 0.0
C887 C 0.40365 0.61993 0.28174 0.0
C888 C 0.42113 0.62755 0.28913 0.0
C889 C 0.42881 0.64689 0.2859 0.0
C890 C 0.41908 0.65862 0.27522 0.0
C891 C 0.34423 0.73634 0.27027 0.0
C892 C 0.34939 0.75411 0.26277 0.0
C893 C 0.35251 0.71733 0.26629 0.0
C894 C 0.36603 0.71568 0.25468 0.0
C895 C 0.37159 0.73343 0.24735 0.0
C896 C 0.36331 0.75248 0.25134 0.0
C897 C 0.37365 0.69523 0.24996 0.0
C898 C 0.38428 0.68314 0.26009 0.0
C899 C 0.37011 0.68747 0.23562 0.0
C900 C 0.35813 0.69904 0.22462 0.0
C901 C 0.36692 0.70384 0.21131 0.0
C902 C 0.3557 0.71485 0.20095 0.0
C903 C 0.33561 0.72104 0.20376 0.0
C904 C 0.32668 0.71617 0.21691 0.0
C905 C 0.33783 0.70514 0.22729 0.0
H906 H 0.32695 0.72957 0.19573 0.0
H907 H 0.42869 0.61848 0.2974 0.0
H908 H 0.4304 0.92513 0.49831 0.0
H909 H 0.40802 0.89972 0.50903 0.0
H910 H 0.35761 0.94247 0.5074 0.0
H911 H 0.37922 0.96744 0.49603 0.0
H912 H 0.35872 0.91598 0.53285 0.0
H913 H 0.36242 0.91388 0.47946 0.0
H914 H 0.38186 0.9109 0.45681 0.0
H915 H 0.4057 0.85256 0.46995 0.0
H916 H 0.38664 0.85541 0.49281 0.0
H917 H 0.2632 0.86906 0.51855 0.0
H918 H 0.29512 0.88822 0.52187 0.0
H919 H 0.32965 0.83359 0.51108 0.0
H920 H 0.29757 0.81467 0.50695 0.0
H921 H 0.34239 0.86162 0.4957 0.0
H922 H 0.33201 0.85931 0.5463 0.0
H923 H 0.3135 0.86185 0.56933 0.0
H924 H 0.30367 0.92623 0.5631 0.0
H925 H 0.32187 0.92404 0.53991 0.0
C926 C 0.41462 0.92927 0.50036 0.0
C927 C 0.40664 0.94833 0.496 0.0
C928 C 0.40194 0.91478 0.50666 0.0
C929 C 0.38117 0.91922 0.50891 0.0
C930 C 0.37365 0.93882 0.50585 0.0
C931 C 0.38617 0.95316 0.49935 0.0
C932 C 0.36641 0.90274 0.51205 0.0
C933 C 0.35511 0.90397 0.52483 0.0
C934 C 0.36219 0.88681 0.50172 0.0
C935 C 0.37334 0.88497 0.48789 0.0
C936 C 0.37194 0.9005 0.47756 0.0
C937 C 0.38287 0.89883 0.46468 0.0
C938 C 0.39506 0.88158 0.46196 0.0
C939 C 0.39629 0.86594 0.47209 0.0
C940 C 0.38544 0.86757 0.485 0.0
C941 C 0.27761 0.86102 0.51721 0.0
C942 C 0.27789 0.84042 0.51236 0.0
C943 C 0.29593 0.87197 0.51922 0.0
C944 C 0.31495 0.86238 0.51684 0.0
C945 C 0.31523 0.84141 0.51293 0.0
C946 C 0.29689 0.83058 0.51059 0.0
C947 C 0.3341 0.87483 0.51651 0.0
C948 C 0.34622 0.87303 0.5041 0.0
C949 C 0.33918 0.89001 0.52732 0.0
C950 C 0.32824 0.89147 0.5413 0.0
C951 C 0.32579 0.87399 0.54978 0.0
C952 C 0.31536 0.87537 0.56288 0.0
C953 C 0.30739 0.89418 0.56767 0.0
C954 C 0.30986 0.91167 0.55938 0.0
C955 C 0.32027 0.91037 0.54627 0.0
H956 H 0.29932 0.89522 0.57781 0.0
H957 H 0.40351 0.88031 0.45199 0.0
H958 H 0.11895 0.9361 0.75048 0.0
H959 H 0.14317 0.91685 0.76563 0.0
H960 H 0.10241 0.86476 0.76372 0.0
H961 H 0.07876 0.88317 0.74803 0.0
H962 H 0.12712 0.87014 0.79122 0.0
H963 H 0.13242 0.86709 0.73738 0.0
H964 H 0.13623 0.8846 0.71409 0.0
H965 H 0.19206 0.91281 0.73029 0.0
H966 H 0.18833 0.8957 0.75377 0.0
H967 H 0.16761 0.77249 0.78062 0.0
H968 H 0.15177 0.80598 0.78406 0.0
H969 H 0.20882 0.83533 0.77357 0.0
H970 H 0.22424 0.80161 0.76908 0.0
H971 H 0.18229 0.84977 0.75754 0.0
H972 H 0.18309 0.84242 0.80824 0.0
H973 H 0.17948 0.8259 0.83188 0.0
H974 H 0.11467 0.81904 0.8237 0.0
H975 H 0.1179 0.83523 0.79991 0.0
C976 C 0.11495 0.92065 0.75344 0.0
C977 C 0.09706 0.91108 0.74766 0.0
C978 C 0.12869 0.90982 0.7623 0.0
C979 C 0.12458 0.88938 0.76569 0.0
C980 C 0.10575 0.88059 0.76131 0.0
C981 C 0.09219 0.89125 0.75229 0.0
C982 C 0.14119 0.87569 0.77078 0.0
C983 C 0.13939 0.8657 0.78403 0.0
C984 C 0.1575 0.8705 0.76154 0.0
C985 C 0.15999 0.88033 0.74734 0.0
C986 C 0.14544 0.87712 0.73598 0.0
C987 C 0.14758 0.88696 0.72276 0.0
C988 C 0.16435 0.89985 0.72072 0.0
C989 C 0.17905 0.90286 0.73189 0.0
C990 C 0.17693 0.8931 0.74516 0.0
C991 C 0.17694 0.78609 0.77946 0.0
C992 C 0.19705 0.78452 0.77443 0.0
C993 C 0.16791 0.80534 0.78157 0.0
C994 C 0.17907 0.82338 0.77917 0.0
C995 C 0.19981 0.82171 0.77541 0.0
C996 C 0.20863 0.80245 0.77286 0.0
C997 C 0.16813 0.84337 0.77798 0.0
C998 C 0.1708 0.85454 0.76527 0.0
C999 C 0.1529 0.84977 0.78789 0.0
C1000 C 0.15077 0.84003 0.80223 0.0
C1001 C 0.16808 0.83728 0.81143 0.0
C1002 C 0.1661 0.82798 0.82487 0.0
C1003 C 0.14686 0.82142 0.82928 0.0
C1004 C 0.12956 0.82416 0.82027 0.0
C1005 C 0.13145 0.83345 0.80681 0.0
H1006 H 0.14536 0.81422 0.83969 0.0
H1007 H 0.16599 0.90747 0.71048 0.0
H1008 H 0.64496 0.45865 0.7826 0.0
H1009 H 0.66741 0.43664 0.76835 0.0
H1010 H 0.62141 0.38909 0.76686 0.0
H1011 H 0.59829 0.41138 0.78061 0.0
H1012 H 0.65916 0.37819 0.77997 0.0
H1013 H 0.63465 0.40762 0.73592 0.0
H1014 H 0.62507 0.43555 0.71947 0.0
H1015 H 0.68721 0.45755 0.72105 0.0
H1016 H 0.69712 0.42992 0.73769 0.0
H1017 H 0.73478 0.31247 0.75444 0.0
H1018 H 0.70178 0.33034 0.75334 0.0
H1019 H 0.73336 0.38793 0.74853 0.0
H1020 H 0.76626 0.3699 0.74869 0.0
H1021 H 0.69799 0.39026 0.73521 0.0
H1022 H 0.72068 0.36851 0.78279 0.0
H1023 H 0.73187 0.34356 0.80113 0.0
H1024 H 0.67497 0.31086 0.79509 0.0
H1025 H 0.66356 0.3355 0.77658 0.0
C1026 C 0.63918 0.44386 0.77879 0.0
C1027 C 0.61982 0.43675 0.78295 0.0
C1028 C 0.65212 0.43125 0.77064 0.0
C1029 C 0.64605 0.41126 0.76656 0.0
C1030 C 0.62634 0.4045 0.76992 0.0
C1031 C 0.61325 0.4172 0.77791 0.0
C1032 C 0.66147 0.3966 0.76096 0.0
C1033 C 0.66728 0.38045 0.76996 0.0
C1034 C 0.67247 0.4001 0.74818 0.0
C1035 C 0.6666 0.41673 0.73814 0.0
C1036 C 0.64624 0.4185 0.73286 0.0
C1037 C 0.64076 0.43427 0.72348 0.0
C1038 C 0.65551 0.44833 0.71924 0.0
C1039 C 0.67579 0.44664 0.72435 0.0
C1040 C 0.68136 0.4309 0.73374 0.0
C1041 C 0.73459 0.32887 0.75276 0.0
C1042 C 0.75302 0.33988 0.75188 0.0
C1043 C 0.71576 0.33908 0.75218 0.0
C1044 C 0.71511 0.36058 0.75134 0.0
C1045 C 0.73344 0.37137 0.74928 0.0
C1046 C 0.75226 0.36106 0.74943 0.0
C1047 C 0.69589 0.37204 0.75437 0.0
C1048 C 0.68949 0.38765 0.74499 0.0
C1049 C 0.68458 0.36847 0.76705 0.0
C1050 C 0.69139 0.35367 0.77818 0.0
C1051 C 0.71062 0.35591 0.78531 0.0
C1052 C 0.71699 0.34184 0.79574 0.0
C1053 C 0.70417 0.32559 0.79923 0.0
C1054 C 0.68491 0.32342 0.79234 0.0
C1055 C 0.67848 0.33743 0.78188 0.0
H1056 H 0.70912 0.31472 0.80731 0.0
H1057 H 0.65123 0.46053 0.71197 0.0
H1058 H 0.65273 0.09327 0.02556 0.0
H1059 H 0.66619 0.12533 0.01688 0.0
H1060 H 0.60478 0.1461 0.00682 0.0
H1061 H 0.59099 0.11341 0.01495 0.0
H1062 H 0.63522 0.16078 0.98729 0.0
H1063 H 0.62249 0.15815 0.03834 0.0
H1064 H 0.62423 0.14336 0.06278 0.0
H1065 H 0.69 0.14761 0.06317 0.0
H1066 H 0.68867 0.16205 0.03859 0.0
H1067 H 0.66052 0.26865 0.00043 0.0
H1068 H 0.64539 0.23429 0.99752 0.0
H1069 H 0.7025 0.20747 0.0123 0.0
H1070 H 0.71748 0.24158 0.01547 0.0
H1071 H 0.67141 0.19651 0.02869 0.0
H1072 H 0.6837 0.20003 0.97729 0.0
H1073 H 0.68114 0.21515 0.95298 0.0
H1074 H 0.61543 0.21063 0.95356 0.0
H1075 H 0.61757 0.19573 0.97797 0.0
C1076 C 0.642 0.10417 0.02096 0.0
C1077 C 0.62067 0.10075 0.02115 0.0
C1078 C 0.64978 0.12263 0.01609 0.0
C1079 C 0.63645 0.13821 0.01149 0.0
C1080 C 0.6153 0.13428 0.01043 0.0
C1081 C 0.60745 0.11567 0.01522 0.0
C1082 C 0.64451 0.15926 0.00987 0.0
C1083 C 0.64296 0.16876 0.99634 0.0
C1084 C 0.65462 0.16957 0.02171 0.0
C1085 C 0.65548 0.16099 0.03655 0.0
C1086 C 0.63733 0.15576 0.04358 0.0
C1087 C 0.63824 0.14746 0.05746 0.0
C1088 C 0.65722 0.14451 0.06451 0.0
C1089 C 0.67531 0.14988 0.05769 0.0
C1090 C 0.67449 0.15812 0.04378 0.0
C1091 C 0.67 0.25538 0.00265 0.0
C1092 C 0.69009 0.2578 0.00837 0.0
C1093 C 0.66134 0.23575 0.00097 0.0
C1094 C 0.67277 0.21831 0.0048 0.0
C1095 C 0.69334 0.22071 0.0094 0.0
C1096 C 0.70189 0.24023 0.0112 0.0
C1097 C 0.66284 0.19794 0.00594 0.0
C1098 C 0.66379 0.18861 0.01954 0.0
C1099 C 0.65209 0.18801 0.9942 0.0
C1100 C 0.65079 0.19697 0.97953 0.0
C1101 C 0.66869 0.20243 0.9723 0.0
C1102 C 0.66732 0.21093 0.95848 0.0
C1103 C 0.64813 0.21391 0.95175 0.0
C1104 C 0.63028 0.20835 0.9588 0.0
C1105 C 0.63156 0.19986 0.97262 0.0
H1106 H 0.6471 0.22048 0.94106 0.0
H1107 H 0.65789 0.1381 0.07527 0.0
H1108 H 0.94208 0.11838 0.27136 0.0
H1109 H 0.9091 0.13144 0.26224 0.0
H1110 H 0.87905 0.1068 0.2993 0.0
H1111 H 0.91191 0.0939 0.30856 0.0
H1112 H 0.85535 0.10266 0.27401 0.0
H1113 H 0.89351 0.15547 0.3004 0.0
H1114 H 0.92387 0.17712 0.30591 0.0
H1115 H 0.92015 0.2014 0.26292 0.0
H1116 H 0.88993 0.17963 0.25707 0.0
H1117 H 0.76652 0.16623 0.2747 0.0
H1118 H 0.79828 0.14823 0.28115 0.0
H1119 H 0.82898 0.17725 0.24602 0.0
H1120 H 0.79751 0.19559 0.23969 0.0
H1121 H 0.8524 0.1784 0.26977 0.0
H1122 H 0.81335 0.1266 0.24354 0.0
H1123 H 0.7832 0.1047 0.23791 0.0
H1124 H 0.78844 0.07846 0.28024 0.0
H1125 H 0.81847 0.10042 0.2862 0.0
C1126 C 0.92841 0.11555 0.27748 0.0
C1127 C 0.92966 0.10528 0.29075 0.0
C1128 C 0.90959 0.12297 0.27225 0.0
C1129 C 0.89171 0.12035 0.28023 0.0
C1130 C 0.89267 0.10898 0.29298 0.0
C1131 C 0.91148 0.10155 0.29822 0.0
C1132 C 0.87242 0.13091 0.27597 0.0
C1133 C 0.85461 0.11923 0.27319 0.0
C1134 C 0.87159 0.1525 0.2747 0.0
C1135 C 0.8896 0.16577 0.27825 0.0
C1136 C 0.89926 0.16532 0.29209 0.0
C1137 C 0.91643 0.17762 0.29527 0.0
C1138 C 0.92397 0.19059 0.28476 0.0
C1139 C 0.91431 0.19132 0.27104 0.0
C1140 C 0.89716 0.17901 0.26779 0.0
C1141 C 0.78004 0.16882 0.26836 0.0
C1142 C 0.77945 0.18236 0.25666 0.0
C1143 C 0.79815 0.15841 0.272 0.0
C1144 C 0.81594 0.16117 0.26393 0.0
C1145 C 0.81543 0.17484 0.25238 0.0
C1146 C 0.7974 0.18532 0.24877 0.0
C1147 C 0.83523 0.15018 0.26769 0.0
C1148 C 0.85308 0.16181 0.27047 0.0
C1149 C 0.83605 0.12856 0.26892 0.0
C1150 C 0.81804 0.1153 0.26536 0.0
C1151 C 0.80797 0.11628 0.25169 0.0
C1152 C 0.79093 0.10383 0.24843 0.0
C1153 C 0.78388 0.09024 0.25873 0.0
C1154 C 0.7939 0.08902 0.27229 0.0
C1155 C 0.81095 0.10145 0.2756 0.0
H1156 H 0.77068 0.08062 0.25619 0.0
H1157 H 0.93726 0.2001 0.28724 0.0
H1158 H 0.90353 0.44107 0.51079 0.0
H1159 H 0.88864 0.4104 0.49864 0.0
H1160 H 0.92057 0.37219 0.52951 0.0
H1161 H 0.93565 0.40245 0.54138 0.0
H1162 H 0.91899 0.353 0.50444 0.0
H1163 H 0.87029 0.39076 0.53463 0.0
H1164 H 0.84974 0.42122 0.54133 0.0
H1165 H 0.82052 0.41977 0.49895 0.0
H1166 H 0.84111 0.38943 0.49196 0.0
H1167 H 0.83145 0.28785 0.52963 0.0
H1168 H 0.84598 0.32147 0.5256 0.0
H1169 H 0.87035 0.29959 0.48484 0.0
H1170 H 0.85634 0.2654 0.48907 0.0
H1171 H 0.84307 0.35058 0.50697 0.0
H1172 H 0.91683 0.32299 0.48054 0.0
H1173 H 0.93797 0.2917 0.47798 0.0
H1174 H 0.91766 0.27121 0.51929 0.0
H1175 H 0.8966 0.30247 0.52214 0.0
C1176 C 0.90763 0.42606 0.51477 0.0
C1177 C 0.92069 0.42417 0.52707 0.0
C1178 C 0.89914 0.40858 0.50782 0.0
C1179 C 0.90326 0.38899 0.51328 0.0
C1180 C 0.91724 0.38709 0.52502 0.0
C1181 C 0.92588 0.40445 0.53182 0.0
C1182 C 0.89152 0.37059 0.50811 0.0
C1183 C 0.90236 0.35255 0.50471 0.0
C1184 C 0.86981 0.36992 0.50851 0.0
C1185 C 0.85739 0.38805 0.51272 0.0
C1186 C 0.85956 0.39703 0.52672 0.0
C1187 C 0.84791 0.41425 0.53057 0.0
C1188 C 0.83388 0.42247 0.52055 0.0
C1189 C 0.83143 0.41343 0.50668 0.0
C1190 C 0.84309 0.39623 0.50277 0.0
C1191 C 0.83968 0.29016 0.51971 0.0
C1192 C 0.84299 0.27382 0.50978 0.0
C1193 C 0.84789 0.30949 0.51736 0.0
C1194 C 0.8595 0.31303 0.50501 0.0
C1195 C 0.86173 0.29713 0.49457 0.0
C1196 C 0.85367 0.27762 0.497 0.0
C1197 C 0.87062 0.33281 0.50402 0.0
C1198 C 0.85965 0.35114 0.50614 0.0
C1199 C 0.89226 0.33363 0.50297 0.0
C1200 C 0.90496 0.31488 0.50144 0.0
C1201 C 0.91692 0.31179 0.48907 0.0
C1202 C 0.92888 0.29408 0.48757 0.0
C1203 C 0.92909 0.27943 0.49844 0.0
C1204 C 0.91742 0.28252 0.51086 0.0
C1205 C 0.90546 0.30022 0.51242 0.0
H1206 H 0.93833 0.26572 0.49725 0.0
H1207 H 0.82487 0.4358 0.52355 0.0
H1208 H 0.61178 0.14758 0.47245 0.0
H1209 H 0.64445 0.16021 0.48208 0.0
H1210 H 0.66947 0.09896 0.4797 0.0
H1211 H 0.6361 0.08574 0.4713 0.0
H1212 H 0.68552 0.11757 0.5022 0.0
H1213 H 0.67737 0.13486 0.45253 0.0
H1214 H 0.66026 0.14872 0.43066 0.0
H1215 H 0.66069 0.20906 0.45046 0.0
H1216 H 0.67755 0.19551 0.47254 0.0
H1217 H 0.78911 0.1622 0.49552 0.0
H1218 H 0.75701 0.14472 0.48805 0.0
H1219 H 0.72233 0.19091 0.51109 0.0
H1220 H 0.75421 0.20812 0.51895 0.0
H1221 H 0.71347 0.17762 0.47698 0.0
H1222 H 0.72012 0.1562 0.52801 0.0
H1223 H 0.73953 0.14019 0.54812 0.0
H1224 H 0.74513 0.08456 0.52254 0.0
H1225 H 0.726 0.10039 0.5022 0.0
C1226 C 0.62392 0.13656 0.47438 0.0
C1227 C 0.62118 0.11557 0.47089 0.0
C1228 C 0.64281 0.14393 0.47966 0.0
C1229 C 0.65965 0.13066 0.48114 0.0
C1230 C 0.65678 0.10956 0.47844 0.0
C1231 C 0.63771 0.10206 0.47346 0.0
C1232 C 0.68034 0.13904 0.48498 0.0
C1233 C 0.69167 0.13054 0.49655 0.0
C1234 C 0.6886 0.15586 0.47755 0.0
C1235 C 0.67858 0.16413 0.46424 0.0
C1236 C 0.6737 0.15106 0.45226 0.0
C1237 C 0.66406 0.15887 0.43982 0.0
C1238 C 0.65935 0.17975 0.43919 0.0
C1239 C 0.66433 0.19289 0.45098 0.0
C1240 C 0.67395 0.18516 0.46345 0.0
C1241 C 0.77463 0.16859 0.49899 0.0
C1242 C 0.77413 0.1865 0.50782 0.0
C1243 C 0.75639 0.15857 0.49477 0.0
C1244 C 0.73745 0.16654 0.49912 0.0
C1245 C 0.73688 0.18454 0.50773 0.0
C1246 C 0.75508 0.1943 0.51221 0.0
C1247 C 0.71809 0.1565 0.49436 0.0
C1248 C 0.70718 0.16461 0.48253 0.0
C1249 C 0.71051 0.13906 0.50129 0.0
C1250 C 0.7219 0.12957 0.51353 0.0
C1251 C 0.7257 0.14064 0.52662 0.0
C1252 C 0.7366 0.13158 0.53807 0.0
C1253 C 0.74363 0.1114 0.53659 0.0
C1254 C 0.73972 0.10021 0.52367 0.0
C1255 C 0.72884 0.10922 0.51218 0.0
H1256 H 0.75206 0.10441 0.54547 0.0
H1257 H 0.65188 0.18576 0.42955 0.0
H1258 H 0.94119 0.13914 0.70088 0.0
H1259 H 0.92392 0.17065 0.70848 0.0
H1260 H 0.89715 0.13915 0.74414 0.0
H1261 H 0.91476 0.10752 0.73678 0.0
H1262 H 0.86854 0.15904 0.72742 0.0
H1263 H 0.93344 0.175 0.75073 0.0
H1264 H 0.97099 0.17963 0.75221 0.0
H1265 H 0.96692 0.22636 0.72012 0.0
H1266 H 0.92935 0.22181 0.71829 0.0
H1267 H 0.82378 0.24365 0.76362 0.0
H1268 H 0.8438 0.2137 0.75654 0.0
H1269 H 0.87212 0.24823 0.72295 0.0
H1270 H 0.85238 0.27864 0.73022 0.0
H1271 H 0.90025 0.22712 0.73806 0.0
H1272 H 0.8358 0.21146 0.71451 0.0
H1273 H 0.79825 0.20695 0.71258 0.0
H1274 H 0.80146 0.1597 0.74432 0.0
H1275 H 0.83901 0.16411 0.74659 0.0
C1276 C 0.93215 0.139 0.71061 0.0
C1277 C 0.92936 0.12075 0.71822 0.0
C1278 C 0.92219 0.15704 0.71489 0.0
C1279 C 0.90927 0.15723 0.72687 0.0
C1280 C 0.90701 0.13928 0.73482 0.0
C1281 C 0.91704 0.12123 0.73058 0.0
C1282 C 0.89693 0.1757 0.7304 0.0
C1283 C 0.87547 0.17387 0.72998 0.0
C1284 C 0.906 0.19516 0.7332 0.0
C1285 C 0.92859 0.19791 0.73427 0.0
C1286 C 0.94057 0.18613 0.74389 0.0
C1287 C 0.96185 0.18878 0.74481 0.0
C1288 C 0.97134 0.20324 0.73623 0.0
C1289 C 0.95955 0.21514 0.72674 0.0
C1290 C 0.93826 0.21255 0.72577 0.0
C1291 C 0.8341 0.2449 0.75462 0.0
C1292 C 0.83644 0.26357 0.74747 0.0
C1293 C 0.84551 0.22769 0.75056 0.0
C1294 C 0.85931 0.22865 0.73912 0.0
C1295 C 0.86153 0.24716 0.7318 0.0
C1296 C 0.85016 0.26448 0.73592 0.0
C1297 C 0.87184 0.21043 0.73519 0.0
C1298 C 0.89331 0.2123 0.73549 0.0
C1299 C 0.86279 0.191 0.73219 0.0
C1300 C 0.84021 0.18824 0.73081 0.0
C1301 C 0.82848 0.20021 0.72116 0.0
C1302 C 0.8072 0.19765 0.71999 0.0
C1303 C 0.79747 0.18308 0.72834 0.0
C1304 C 0.80902 0.17099 0.73786 0.0
C1305 C 0.8303 0.1735 0.73908 0.0
H1306 H 0.781 0.18113 0.72742 0.0
H1307 H 0.98782 0.20527 0.73697 0.0
H1308 H 0.91684 0.40226 0.98504 0.0
H1309 H 0.88567 0.38711 0.99377 0.0
H1310 H 0.85224 0.44247 0.98415 0.0
H1311 H 0.88393 0.45854 0.97634 0.0
H1312 H 0.83781 0.42603 0.00793 0.0
H1313 H 0.85154 0.40149 0.9601 0.0
H1314 H 0.87206 0.38668 0.94027 0.0
H1315 H 0.87935 0.33084 0.96372 0.0
H1316 H 0.85913 0.34544 0.98382 0.0
H1317 H 0.74172 0.36993 0.00327 0.0
H1318 H 0.77145 0.39025 0.99631 0.0
H1319 H 0.81214 0.34514 0.01483 0.0
H1320 H 0.78259 0.32495 0.0221 0.0
H1321 H 0.82073 0.35817 0.98512 0.0
H1322 H 0.8069 0.38541 0.03355 0.0
H1323 H 0.78482 0.4013 0.05209 0.0
H1324 H 0.77523 0.4535 0.0251 0.0
H1325 H 0.79702 0.43775 0.00629 0.0
C1326 C 0.90313 0.41162 0.98519 0.0
C1327 C 0.90303 0.43169 0.97983 0.0
C1328 C 0.88515 0.40272 0.98999 0.0
C1329 C 0.86648 0.41341 0.98919 0.0
C1330 C 0.86643 0.43383 0.98467 0.0
C1331 C 0.88455 0.44292 0.98008 0.0
C1332 C 0.84703 0.40275 0.99238 0.0
C1333 C 0.83394 0.41135 0.00278 0.0
C1334 C 0.84191 0.38357 0.98564 0.0
C1335 C 0.85395 0.37463 0.97353 0.0
C1336 C 0.85763 0.3861 0.96108 0.0
C1337 C 0.8692 0.37774 0.94978 0.0
C1338 C 0.87704 0.35785 0.95075 0.0
C1339 C 0.87328 0.34626 0.963 0.0
C1340 C 0.86175 0.35456 0.97434 0.0
C1341 C 0.75701 0.36433 0.00584 0.0
C1342 C 0.75985 0.34586 0.01324 0.0
C1343 C 0.77393 0.37599 0.00191 0.0
C1344 C 0.7939 0.36918 0.00513 0.0
C1345 C 0.79679 0.35061 0.0123 0.0
C1346 C 0.77991 0.33915 0.01646 0.0
C1347 C 0.8119 0.38123 0.00088 0.0
C1348 C 0.82462 0.37291 0.99019 0.0
C1349 C 0.8164 0.4008 0.00712 0.0
C1350 C 0.80339 0.4103 0.01845 0.0
C1351 C 0.79992 0.40018 0.0315 0.0
C1352 C 0.78749 0.40918 0.04208 0.0
C1353 C 0.77857 0.42837 0.03975 0.0
C1354 C 0.78212 0.43862 0.02687 0.0
C1355 C 0.79451 0.42967 0.01626 0.0
H1356 H 0.76896 0.43532 0.04795 0.0
H1357 H 0.88599 0.3514 0.94199 0.0
H1358 H 0.60788 0.4116 0.24669 0.0
H1359 H 0.63602 0.3912 0.25691 0.0
H1360 H 0.59611 0.3386 0.25814 0.0
H1361 H 0.56836 0.35824 0.24727 0.0
H1362 H 0.62565 0.34247 0.28251 0.0
H1363 H 0.62067 0.34352 0.22914 0.0
H1364 H 0.6198 0.36146 0.2058 0.0
H1365 H 0.67847 0.38868 0.2163 0.0
H1366 H 0.6795 0.37113 0.23983 0.0
H1367 H 0.67445 0.24865 0.26801 0.0
H1368 H 0.65469 0.27995 0.27174 0.0
H1369 H 0.70657 0.31607 0.25907 0.0
H1370 H 0.72607 0.28458 0.2546 0.0
H1371 H 0.67603 0.32704 0.24415 0.0
H1372 H 0.68521 0.31888 0.29479 0.0
H1373 H 0.68644 0.3012 0.3182 0.0
H1374 H 0.62191 0.2884 0.31409 0.0
H1375 H 0.62031 0.30574 0.29055 0.0
C1376 C 0.60498 0.39575 0.24925 0.0
C1377 C 0.58582 0.38657 0.24585 0.0
C1378 C 0.62104 0.38421 0.25526 0.0
C1379 C 0.61812 0.3634 0.25819 0.0
C1380 C 0.5986 0.3547 0.25606 0.0
C1381 C 0.58267 0.36608 0.24985 0.0
C1382 C 0.63579 0.34975 0.26116 0.0
C1383 C 0.63681 0.33907 0.27423 0.0
C1384 C 0.6506 0.34584 0.25047 0.0
C1385 C 0.65003 0.35625 0.2363 0.0
C1386 C 0.63329 0.35348 0.22652 0.0
C1387 C 0.63278 0.36355 0.21326 0.0
C1388 C 0.64904 0.37626 0.20959 0.0
C1389 C 0.66587 0.37888 0.21917 0.0
C1390 C 0.66642 0.36888 0.23247 0.0
C1391 C 0.68184 0.26327 0.26638 0.0
C1392 C 0.70174 0.26415 0.26087 0.0
C1393 C 0.67055 0.28125 0.26862 0.0
C1394 C 0.67912 0.30051 0.26579 0.0
C1395 C 0.69955 0.30144 0.26128 0.0
C1396 C 0.7107 0.28343 0.25875 0.0
C1397 C 0.66589 0.31914 0.26551 0.0
C1398 C 0.66551 0.33073 0.2528 0.0
C1399 C 0.65186 0.32397 0.27664 0.0
C1400 C 0.65267 0.31356 0.29085 0.0
C1401 C 0.6713 0.31219 0.29883 0.0
C1402 C 0.67206 0.30224 0.31213 0.0
C1403 C 0.65427 0.29366 0.31762 0.0
C1404 C 0.63567 0.29506 0.30983 0.0
C1405 C 0.63482 0.30499 0.29651 0.0
H1406 H 0.6549 0.28595 0.32792 0.0
H1407 H 0.64864 0.38402 0.19931 0.0
H1408 H 0.16645 0.93444 0.3601 0.0
H1409 H 0.17601 0.91268 0.38049 0.0
H1410 H 0.12538 0.93699 0.40489 0.0
H1411 H 0.11579 0.95897 0.38451 0.0
H1412 H 0.1625 0.9354 0.42105 0.0
H1413 H 0.1207 0.89088 0.39044 0.0
H1414 H 0.10986 0.87361 0.36738 0.0
H1415 H 0.16858 0.84399 0.3648 0.0
H1416 H 0.17989 0.86133 0.38776 0.0
H1417 H 0.17299 0.8629 0.47713 0.0
H1418 H 0.15867 0.88361 0.45752 0.0
H1419 H 0.20178 0.85658 0.42775 0.0
H1420 H 0.21575 0.83541 0.44716 0.0
H1421 H 0.16587 0.85964 0.41472 0.0
H1422 H 0.20892 0.90527 0.44378 0.0
H1423 H 0.2212 0.92305 0.46631 0.0
H1424 H 0.16203 0.95104 0.47128 0.0
H1425 H 0.14932 0.9332 0.44886 0.0
C1426 C 0.15744 0.93526 0.36985 0.0
C1427 C 0.14039 0.94841 0.37073 0.0
C1428 C 0.16282 0.92272 0.38144 0.0
C1429 C 0.15129 0.92311 0.39413 0.0
C1430 C 0.13442 0.93643 0.39515 0.0
C1431 C 0.12891 0.94886 0.3835 0.0
C1432 C 0.15701 0.90968 0.40636 0.0
C1433 C 0.16291 0.9188 0.41977 0.0
C1434 C 0.158 0.88809 0.40453 0.0
C1435 C 0.1512 0.87755 0.39076 0.0
C1436 C 0.13136 0.88081 0.3849 0.0
C1437 C 0.12512 0.87099 0.37186 0.0
C1438 C 0.13854 0.85775 0.36461 0.0
C1439 C 0.15821 0.85427 0.37042 0.0
C1440 C 0.16454 0.86407 0.38345 0.0
C1441 C 0.17936 0.86129 0.46639 0.0
C1442 C 0.19559 0.84757 0.46373 0.0
C1443 C 0.17122 0.87321 0.4552 0.0
C1444 C 0.17937 0.87192 0.4412 0.0
C1445 C 0.19524 0.85788 0.43846 0.0
C1446 C 0.20325 0.84581 0.44959 0.0
C1447 C 0.17163 0.88534 0.42943 0.0
C1448 C 0.16533 0.87621 0.41608 0.0
C1449 C 0.17049 0.90696 0.43127 0.0
C1450 C 0.17811 0.91773 0.44473 0.0
C1451 C 0.19848 0.91509 0.44974 0.0
C1452 C 0.20553 0.9252 0.46248 0.0
C1453 C 0.19238 0.93811 0.47025 0.0
C1454 C 0.17218 0.941 0.46526 0.0
C1455 C 0.16505 0.93091 0.45254 0.0
H1456 H 0.19786 0.94593 0.48011 0.0
H1457 H 0.13368 0.85016 0.35451 0.0
H1458 H 0.07756 0.63114 0.63355 0.0
H1459 H 0.09096 0.65197 0.65413 0.0
H1460 H 0.11558 0.59763 0.67394 0.0
H1461 H 0.10223 0.57663 0.65331 0.0
H1462 H 0.09677 0.62848 0.69397 0.0
H1463 H 0.14677 0.6215 0.6558 0.0
H1464 H 0.15766 0.6234 0.63036 0.0
H1465 H 0.14309 0.68767 0.63024 0.0
H1466 H 0.13179 0.68605 0.65563 0.0
H1467 H 0.17385 0.67097 0.74117 0.0
H1468 H 0.15269 0.65111 0.72372 0.0
H1469 H 0.14603 0.70445 0.69699 0.0
H1470 H 0.1684 0.72394 0.714 0.0
H1471 H 0.15358 0.6745 0.68051 0.0
H1472 H 0.10559 0.68316 0.71884 0.0
H1473 H 0.09357 0.68206 0.74404 0.0
H1474 H 0.10234 0.61676 0.74403 0.0
H1475 H 0.11463 0.61749 0.71887 0.0
C1476 C 0.08539 0.62356 0.64245 0.0
C1477 C 0.08895 0.60229 0.64183 0.0
C1478 C 0.09307 0.63548 0.65416 0.0
C1479 C 0.1043 0.6263 0.66547 0.0
C1480 C 0.10688 0.60493 0.66531 0.0
C1481 C 0.0994 0.59301 0.6535 0.0
C1482 C 0.11517 0.63922 0.67659 0.0
C1483 C 0.10929 0.63847 0.69113 0.0
C1484 C 0.13113 0.65255 0.67272 0.0
C1485 C 0.13823 0.6536 0.65755 0.0
C1486 C 0.14574 0.63599 0.65031 0.0
C1487 C 0.15201 0.63703 0.63591 0.0
C1488 C 0.15101 0.65563 0.62868 0.0
C1489 C 0.14382 0.67326 0.63585 0.0
C1490 C 0.13749 0.6723 0.65024 0.0
C1491 C 0.16771 0.67848 0.73162 0.0
C1492 C 0.17275 0.69896 0.72891 0.0
C1493 C 0.15545 0.66716 0.72169 0.0
C1494 C 0.14737 0.67633 0.70911 0.0
C1495 C 0.15206 0.69699 0.70659 0.0
C1496 C 0.1648 0.70814 0.71632 0.0
C1497 C 0.1352 0.66407 0.69812 0.0
C1498 C 0.14091 0.66479 0.6835 0.0
C1499 C 0.1189 0.65096 0.70195 0.0
C1500 C 0.11118 0.65041 0.717 0.0
C1501 C 0.10504 0.66858 0.72423 0.0
C1502 C 0.09817 0.66802 0.73851 0.0
C1503 C 0.09724 0.64936 0.74564 0.0
C1504 C 0.10308 0.6312 0.73849 0.0
C1505 C 0.10996 0.63168 0.72421 0.0
H1506 H 0.09196 0.64896 0.75671 0.0
H1507 H 0.15586 0.6564 0.61754 0.0
H1508 H 0.43086 0.5859 0.88552 0.0
H1509 H 0.41484 0.60279 0.9062 0.0
H1510 H 0.36583 0.55821 0.90403 0.0
H1511 H 0.38106 0.54203 0.88261 0.0
H1512 H 0.34998 0.59372 0.90684 0.0
H1513 H 0.40344 0.55967 0.93236 0.0
H1514 H 0.4387 0.54805 0.93797 0.0
H1515 H 0.45801 0.61054 0.94509 0.0
H1516 H 0.42293 0.62257 0.93933 0.0
H1517 H 0.34345 0.64235 0.98575 0.0
H1518 H 0.3576 0.61694 0.96882 0.0
H1519 H 0.34159 0.65568 0.93285 0.0
H1520 H 0.3268 0.68085 0.94967 0.0
H1521 H 0.38792 0.61762 0.95149 0.0
H1522 H 0.33035 0.62806 0.90268 0.0
H1523 H 0.2937 0.63611 0.89859 0.0
H1524 H 0.28003 0.61388 0.94087 0.0
H1525 H 0.31653 0.60543 0.94514 0.0
C1526 C 0.41664 0.57967 0.88939 0.0
C1527 C 0.40715 0.56271 0.88227 0.0
C1528 C 0.40764 0.58919 0.9014 0.0
C1529 C 0.38921 0.58167 0.90681 0.0
C1530 C 0.38007 0.56428 0.90007 0.0
C1531 C 0.38893 0.55491 0.8879 0.0
C1532 C 0.37882 0.59292 0.9188 0.0
C1533 C 0.35825 0.59879 0.91665 0.0
C1534 C 0.38941 0.59918 0.93179 0.0
C1535 C 0.41055 0.59203 0.93532 0.0
C1536 C 0.41523 0.57095 0.93503 0.0
C1537 C 0.43519 0.56428 0.93825 0.0
C1538 C 0.45059 0.57855 0.94186 0.0
C1539 C 0.44606 0.59951 0.94229 0.0
C1540 C 0.42613 0.60626 0.93907 0.0
C1541 C 0.34286 0.64543 0.97422 0.0
C1542 C 0.3339 0.66359 0.96904 0.0
C1543 C 0.351 0.63089 0.96456 0.0
C1544 C 0.35043 0.63424 0.94953 0.0
C1545 C 0.34178 0.65251 0.94436 0.0
C1546 C 0.33342 0.66695 0.954 0.0
C1547 C 0.35932 0.6189 0.93928 0.0
C1548 C 0.3796 0.61231 0.94176 0.0
C1549 C 0.34827 0.61143 0.92682 0.0
C1550 C 0.32622 0.61627 0.92427 0.0
C1551 C 0.31951 0.6248 0.91108 0.0
C1552 C 0.29876 0.62945 0.90873 0.0
C1553 C 0.28456 0.62557 0.91948 0.0
C1554 C 0.29106 0.61695 0.93257 0.0
C1555 C 0.31178 0.61225 0.93497 0.0
H1556 H 0.26851 0.62919 0.91764 0.0
H1557 H 0.46603 0.57336 0.94435 0.0
H1558 H 0.49309 0.90405 0.15335 0.0
H1559 H 0.47266 0.89322 0.17377 0.0
H1560 H 0.41936 0.92276 0.15513 0.0
H1561 H 0.43928 0.93285 0.13434 0.0
H1562 H 0.42542 0.92918 0.18636 0.0
H1563 H 0.42236 0.87492 0.1495 0.0
H1564 H 0.43748 0.84968 0.13246 0.0
H1565 H 0.46875 0.82057 0.16806 0.0
H1566 H 0.45406 0.84587 0.1853 0.0
H1567 H 0.34437 0.88202 0.22305 0.0
H1568 H 0.36747 0.89594 0.20524 0.0
H1569 H 0.41491 0.85401 0.21915 0.0
H1570 H 0.39163 0.83955 0.23667 0.0
H1571 H 0.41356 0.85443 0.19107 0.0
H1572 H 0.41602 0.90665 0.22831 0.0
H1573 H 0.40233 0.93205 0.24586 0.0
H1574 H 0.37418 0.96517 0.21083 0.0
H1575 H 0.38748 0.93981 0.19308 0.0
C1576 C 0.47701 0.90822 0.15353 0.0
C1577 C 0.46786 0.91921 0.14207 0.0
C1578 C 0.46542 0.90214 0.16528 0.0
C1579 C 0.44451 0.90711 0.16588 0.0
C1580 C 0.43551 0.91887 0.15487 0.0
C1581 C 0.44701 0.92472 0.14302 0.0
C1582 C 0.4317 0.89903 0.17753 0.0
C1583 C 0.42264 0.91286 0.18736 0.0
C1584 C 0.42858 0.87772 0.179 0.0
C1585 C 0.43731 0.86242 0.16866 0.0
C1586 C 0.43261 0.86326 0.15368 0.0
C1587 C 0.44108 0.84892 0.14399 0.0
C1588 C 0.45412 0.83357 0.14917 0.0
C1589 C 0.45868 0.83249 0.16406 0.0
C1590 C 0.45028 0.84682 0.1738 0.0
C1591 C 0.35975 0.87581 0.22236 0.0
C1592 C 0.36617 0.85968 0.23129 0.0
C1593 C 0.373 0.88388 0.21222 0.0
C1594 C 0.39308 0.87626 0.21098 0.0
C1595 C 0.39952 0.86017 0.21991 0.0
C1596 C 0.38619 0.85193 0.22993 0.0
C1597 C 0.4071 0.88457 0.20003 0.0
C1598 C 0.4164 0.87076 0.19024 0.0
C1599 C 0.41061 0.90591 0.19873 0.0
C1600 C 0.40259 0.92121 0.20937 0.0
C1601 C 0.40678 0.91926 0.22436 0.0
C1602 C 0.39911 0.93367 0.23434 0.0
C1603 C 0.38735 0.95018 0.22947 0.0
C1604 C 0.38328 0.95236 0.21459 0.0
C1605 C 0.39089 0.93798 0.20456 0.0
H1606 H 0.38143 0.96132 0.23721 0.0
H1607 H 0.46065 0.82248 0.14165 0.0
H1608 H 0.13749 0.59716 0.89956 0.0
H1609 H 0.14712 0.61847 0.87948 0.0
H1610 H 0.08615 0.61223 0.86055 0.0
H1611 H 0.07668 0.58973 0.88026 0.0
H1612 H 0.11329 0.60929 0.83996 0.0
H1613 H 0.1018 0.65679 0.87899 0.0
H1614 H 0.10497 0.67142 0.90391 0.0
H1615 H 0.1698 0.67938 0.89886 0.0
H1616 H 0.16708 0.66452 0.87396 0.0
H1617 H 0.13196 0.69033 0.79073 0.0
H1618 H 0.11744 0.67073 0.81039 0.0
H1619 H 0.17749 0.66617 0.83084 0.0
H1620 H 0.19213 0.68583 0.81129 0.0
H1621 H 0.14734 0.67633 0.85035 0.0
H1622 H 0.15782 0.62623 0.81131 0.0
H1623 H 0.15321 0.61299 0.78609 0.0
H1624 H 0.08787 0.61178 0.7911 0.0
H1625 H 0.09209 0.62526 0.81631 0.0
C1626 C 0.12616 0.59999 0.89103 0.0
C1627 C 0.10629 0.59163 0.89155 0.0
C1628 C 0.13162 0.61248 0.87964 0.0
C1629 C 0.11725 0.61731 0.86863 0.0
C1630 C 0.09746 0.60884 0.86898 0.0
C1631 C 0.09202 0.59612 0.88033 0.0
C1632 C 0.12309 0.63105 0.85674 0.0
C1633 C 0.12041 0.6241 0.84224 0.0
C1634 C 0.13253 0.65035 0.85968 0.0
C1635 C 0.13425 0.65939 0.87463 0.0
C1636 C 0.11676 0.66153 0.88322 0.0
C1637 C 0.11848 0.66988 0.89734 0.0
C1638 C 0.13758 0.67629 0.90298 0.0
C1639 C 0.15501 0.6744 0.89448 0.0
C1640 C 0.15339 0.66603 0.88036 0.0
C1641 C 0.14208 0.68522 0.79943 0.0
C1642 C 0.16322 0.68958 0.79942 0.0
C1643 C 0.13376 0.67397 0.81063 0.0
C1644 C 0.14643 0.66686 0.822 0.0
C1645 C 0.16745 0.67151 0.82216 0.0
C1646 C 0.1758 0.68269 0.81095 0.0
C1647 C 0.13792 0.65435 0.83368 0.0
C1648 C 0.14007 0.66158 0.84812 0.0
C1649 C 0.12776 0.63547 0.83068 0.0
C1650 C 0.12526 0.62694 0.81564 0.0
C1651 C 0.14246 0.62324 0.80701 0.0
C1652 C 0.13992 0.61569 0.79272 0.0
C1653 C 0.12025 0.61161 0.78698 0.0
C1654 C 0.10309 0.61498 0.79555 0.0
C1655 C 0.10555 0.62255 0.80984 0.0
H1656 H 0.11831 0.60581 0.7759 0.0
H1657 H 0.13888 0.68275 0.91391 0.0
H1658 H 0.43689 0.55333 0.12385 0.0
H1659 H 0.42812 0.57281 0.10206 0.0
H1660 H 0.37388 0.59613 0.12275 0.0
H1661 H 0.38263 0.57711 0.14453 0.0
H1662 H 0.36565 0.58211 0.09515 0.0
H1663 H 0.41587 0.62583 0.12003 0.0
H1664 H 0.44971 0.63388 0.13132 0.0
H1665 H 0.47879 0.61987 0.09086 0.0
H1666 H 0.44512 0.61146 0.07938 0.0
H1667 H 0.33402 0.66513 0.05324 0.0
H1668 H 0.34713 0.64403 0.07295 0.0
H1669 H 0.40004 0.62805 0.04773 0.0
H1670 H 0.3872 0.64951 0.02799 0.0
H1671 H 0.41088 0.63573 0.07578 0.0
H1672 H 0.36079 0.59422 0.05035 0.0
H1673 H 0.32711 0.58605 0.03885 0.0
H1674 H 0.29808 0.59512 0.07994 0.0
H1675 H 0.33156 0.60363 0.09165 0.0
C1676 C 0.42319 0.56273 0.12378 0.0
C1677 C 0.41038 0.56353 0.1359 0.0
C1678 C 0.41818 0.57382 0.11133 0.0
C1679 C 0.40036 0.58593 0.11081 0.0
C1680 C 0.38762 0.58675 0.12288 0.0
C1681 C 0.3926 0.57577 0.1353 0.0
C1682 C 0.39468 0.59771 0.09772 0.0
C1683 C 0.37546 0.59395 0.09098 0.0
C1684 C 0.40778 0.61269 0.09201 0.0
C1685 C 0.42801 0.61778 0.0989 0.0
C1686 C 0.4295 0.62429 0.11358 0.0
C1687 C 0.44865 0.62896 0.12 0.0
C1688 C 0.4664 0.62733 0.11182 0.0
C1689 C 0.46503 0.62109 0.09719 0.0
C1690 C 0.44592 0.61638 0.09072 0.0
C1691 C 0.34848 0.65719 0.05187 0.0
C1692 C 0.35949 0.65889 0.03899 0.0
C1693 C 0.35592 0.64506 0.06314 0.0
C1694 C 0.37439 0.63417 0.06171 0.0
C1695 C 0.38571 0.63625 0.04903 0.0
C1696 C 0.37832 0.64849 0.03776 0.0
C1697 C 0.38162 0.62045 0.07342 0.0
C1698 C 0.40113 0.62377 0.07986 0.0
C1699 C 0.36884 0.60497 0.07883 0.0
C1700 C 0.34868 0.59972 0.07185 0.0
C1701 C 0.34721 0.59461 0.05691 0.0
C1702 C 0.32815 0.5899 0.05036 0.0
C1703 C 0.31046 0.59011 0.05865 0.0
C1704 C 0.3118 0.59498 0.07353 0.0
C1705 C 0.33081 0.59972 0.08013 0.0
H1706 H 0.29572 0.58646 0.05356 0.0
H1707 H 0.48121 0.63095 0.11682 0.0
H1708 H 0.43347 0.92595 0.40418 0.0
H1709 H 0.42299 0.90411 0.38344 0.0
H1710 H 0.37636 0.94809 0.37155 0.0
H1711 H 0.38761 0.97065 0.39175 0.0
H1712 H 0.38955 0.88476 0.37738 0.0
H1713 H 0.36698 0.94671 0.33537 0.0
H1714 H 0.37762 0.98155 0.32878 0.0
H1715 H 0.43781 0.97089 0.34709 0.0
H1716 H 0.42763 0.93591 0.3536 0.0
H1717 H 0.32628 0.84052 0.32211 0.0
H1718 H 0.34126 0.86248 0.34142 0.0
H1719 H 0.39185 0.87671 0.31393 0.0
H1720 H 0.37656 0.85529 0.29435 0.0
H1721 H 0.38021 0.90997 0.32716 0.0
H1722 H 0.39692 0.84258 0.34244 0.0
H1723 H 0.39063 0.80645 0.34836 0.0
H1724 H 0.35025 0.82565 0.38231 0.0
H1725 H 0.35608 0.86191 0.37646 0.0
C1726 C 0.42126 0.93122 0.39699 0.0
C1727 C 0.4115 0.95019 0.3996 0.0
C1728 C 0.41513 0.91858 0.38522 0.0
C1729 C 0.39902 0.92452 0.37583 0.0
C1730 C 0.38908 0.94332 0.37848 0.0
C1731 C 0.39536 0.9561 0.39016 0.0
C1732 C 0.39229 0.91078 0.36351 0.0
C1733 C 0.38755 0.89028 0.36639 0.0
C1734 C 0.39013 0.9178 0.3491 0.0
C1735 C 0.39646 0.93876 0.3451 0.0
C1736 C 0.38251 0.95178 0.33794 0.0
C1737 C 0.38846 0.97155 0.33422 0.0
C1738 C 0.40836 0.97845 0.33756 0.0
C1739 C 0.42238 0.96556 0.34457 0.0
C1740 C 0.41652 0.94577 0.34829 0.0
C1741 C 0.34063 0.84827 0.32017 0.0
C1742 C 0.35028 0.84609 0.30671 0.0
C1743 C 0.34923 0.86076 0.33125 0.0
C1744 C 0.36786 0.87101 0.32922 0.0
C1745 C 0.37748 0.86894 0.31576 0.0
C1746 C 0.36875 0.85665 0.30459 0.0
C1747 C 0.37713 0.88407 0.34109 0.0
C1748 C 0.38229 0.90444 0.33813 0.0
C1749 C 0.38032 0.87675 0.35534 0.0
C1750 C 0.37681 0.85496 0.35893 0.0
C1751 C 0.38658 0.83909 0.3511 0.0
C1752 C 0.38312 0.81859 0.35445 0.0
C1753 C 0.37001 0.81375 0.36568 0.0
C1754 C 0.36038 0.82942 0.37361 0.0
C1755 C 0.36378 0.84995 0.37029 0.0
H1756 H 0.36735 0.79787 0.36826 0.0
H1757 H 0.41293 0.99377 0.33468 0.0
H1758 H 0.1257 0.9224 0.653 0.0
H1759 H 0.14479 0.91205 0.63148 0.0
H1760 H 0.08839 0.89211 0.60997 0.0
H1761 H 0.06933 0.90189 0.63172 0.0
H1762 H 0.11638 0.86498 0.60523 0.0
H1763 H 0.11391 0.93783 0.60125 0.0
H1764 H 0.11799 0.97397 0.60934 0.0
H1765 H 0.18283 0.96482 0.61569 0.0
H1766 H 0.17909 0.92853 0.60782 0.0
H1767 H 0.16141 0.85421 0.53557 0.0
H1768 H 0.14037 0.86786 0.55527 0.0
H1769 H 0.19489 0.8784 0.58191 0.0
H1770 H 0.21605 0.86471 0.56231 0.0
H1771 H 0.16658 0.91119 0.58285 0.0
H1772 H 0.16763 0.83741 0.58756 0.0
H1773 H 0.16271 0.80169 0.57871 0.0
H1774 H 0.09888 0.81374 0.56985 0.0
H1775 H 0.1035 0.84964 0.57847 0.0
C1776 C 0.11738 0.91595 0.64363 0.0
C1777 C 0.09604 0.91302 0.64398 0.0
C1778 C 0.12828 0.9101 0.63131 0.0
C1779 C 0.11801 0.90163 0.61896 0.0
C1780 C 0.09667 0.89865 0.61933 0.0
C1781 C 0.08579 0.90422 0.63175 0.0
C1782 C 0.12962 0.89532 0.60586 0.0
C1783 C 0.12707 0.87525 0.6002 0.0
C1784 C 0.14386 0.90855 0.59938 0.0
C1785 C 0.14619 0.9304 0.60407 0.0
C1786 C 0.12902 0.94348 0.60447 0.0
C1787 C 0.13127 0.964 0.609 0.0
C1788 C 0.15065 0.97167 0.61306 0.0
C1789 C 0.16782 0.95885 0.61256 0.0
C1790 C 0.16565 0.93831 0.60805 0.0
C1791 C 0.16895 0.85959 0.54557 0.0
C1792 C 0.1904 0.85827 0.54741 0.0
C1793 C 0.1569 0.86732 0.55683 0.0
C1794 C 0.16608 0.87397 0.57007 0.0
C1795 C 0.18752 0.87332 0.57176 0.0
C1796 C 0.19957 0.86542 0.56058 0.0
C1797 C 0.15334 0.88093 0.58237 0.0
C1798 C 0.15572 0.90107 0.58785 0.0
C1799 C 0.13878 0.86787 0.58858 0.0
C1800 C 0.13596 0.84626 0.58351 0.0
C1801 C 0.15258 0.83249 0.58361 0.0
C1802 C 0.14984 0.8122 0.57866 0.0
C1803 C 0.13051 0.80547 0.57368 0.0
C1804 C 0.11386 0.81899 0.57369 0.0
C1805 C 0.11653 0.8393 0.57861 0.0
H1806 H 0.12842 0.78976 0.56985 0.0
H1807 H 0.15236 0.98757 0.61656 0.0
H1808 H 0.58037 0.42118 0.87979 0.0
H1809 H 0.59041 0.40214 0.90134 0.0
H1810 H 0.64132 0.4434 0.90945 0.0
H1811 H 0.63095 0.46315 0.8882 0.0
H1812 H 0.65184 0.40138 0.91053 0.0
H1813 H 0.60218 0.44796 0.93036 0.0
H1814 H 0.56863 0.46534 0.93159 0.0
H1815 H 0.53877 0.40732 0.93673 0.0
H1816 H 0.57213 0.38955 0.93531 0.0
H1817 H 0.6813 0.3704 0.98079 0.0
H1818 H 0.66935 0.39066 0.96032 0.0
H1819 H 0.61588 0.35196 0.95502 0.0
H1820 H 0.62766 0.3316 0.97569 0.0
H1821 H 0.60621 0.39247 0.95238 0.0
H1822 H 0.65514 0.34569 0.93245 0.0
H1823 H 0.6883 0.32767 0.93076 0.0
H1824 H 0.71908 0.38511 0.92522 0.0
H1825 H 0.68611 0.40351 0.92708 0.0
C1826 C 0.59348 0.42652 0.88627 0.0
C1827 C 0.60476 0.44385 0.88225 0.0
C1828 C 0.59926 0.41551 0.89855 0.0
C1829 C 0.61652 0.42145 0.90701 0.0
C1830 C 0.62795 0.43857 0.90302 0.0
C1831 C 0.62205 0.44977 0.89082 0.0
C1832 C 0.62286 0.40947 0.91985 0.0
C1833 C 0.64202 0.39967 0.91979 0.0
C1834 C 0.60972 0.40676 0.93168 0.0
C1835 C 0.58964 0.4174 0.93257 0.0
C1836 C 0.58844 0.43888 0.93161 0.0
C1837 C 0.56946 0.44881 0.93237 0.0
C1838 C 0.55157 0.43743 0.9342 0.0
C1839 C 0.55264 0.41611 0.9353 0.0
C1840 C 0.57158 0.4061 0.93453 0.0
C1841 C 0.66696 0.36618 0.97533 0.0
C1842 C 0.65549 0.34928 0.97983 0.0
C1843 C 0.66019 0.37776 0.96358 0.0
C1844 C 0.64188 0.37264 0.95601 0.0
C1845 C 0.6301 0.35612 0.96069 0.0
C1846 C 0.63687 0.34448 0.97247 0.0
C1847 C 0.63528 0.38446 0.94312 0.0
C1848 C 0.61606 0.39418 0.94314 0.0
C1849 C 0.64831 0.387 0.93119 0.0
C1850 C 0.66817 0.376 0.93005 0.0
C1851 C 0.669 0.3545 0.931 0.0
C1852 C 0.68776 0.34421 0.92998 0.0
C1853 C 0.7058 0.35525 0.92793 0.0
C1854 C 0.7051 0.37659 0.92684 0.0
C1855 C 0.68638 0.38695 0.92786 0.0
H1856 H 0.72031 0.34726 0.92714 0.0
H1857 H 0.53689 0.44515 0.93479 0.0
H1858 H 0.60793 0.11802 0.10757 0.0
H1859 H 0.6188 0.13939 0.12875 0.0
H1860 H 0.64587 0.08633 0.14879 0.0
H1861 H 0.63543 0.06502 0.12752 0.0
H1862 H 0.6207 0.11538 0.16771 0.0
H1863 H 0.67684 0.11252 0.13304 0.0
H1864 H 0.69009 0.11695 0.1084 0.0
H1865 H 0.67206 0.18035 0.10976 0.0
H1866 H 0.65841 0.17618 0.13434 0.0
H1867 H 0.68966 0.15282 0.22196 0.0
H1868 H 0.67144 0.13501 0.20189 0.0
H1869 H 0.67014 0.19101 0.17766 0.0
H1870 H 0.6896 0.20846 0.19737 0.0
H1871 H 0.6788 0.16287 0.16017 0.0
H1872 H 0.62595 0.1691 0.19457 0.0
H1873 H 0.60923 0.16684 0.21825 0.0
H1874 H 0.61618 0.10131 0.21689 0.0
H1875 H 0.63321 0.10318 0.19329 0.0
C1876 C 0.61595 0.11094 0.11661 0.0
C1877 C 0.62096 0.08998 0.11598 0.0
C1878 C 0.62213 0.1231 0.12864 0.0
C1879 C 0.63309 0.11436 0.14026 0.0
C1880 C 0.63733 0.09326 0.13992 0.0
C1881 C 0.6315 0.08118 0.12778 0.0
C1882 C 0.64156 0.12741 0.15229 0.0
C1883 C 0.63349 0.1257 0.16618 0.0
C1884 C 0.65767 0.14137 0.15003 0.0
C1885 C 0.66643 0.14399 0.13545 0.0
C1886 C 0.67559 0.12737 0.12804 0.0
C1887 C 0.68318 0.12984 0.11409 0.0
C1888 C 0.68187 0.14891 0.1075 0.0
C1889 C 0.67305 0.16558 0.11487 0.0
C1890 C 0.6654 0.16318 0.12881 0.0
C1891 C 0.68536 0.16133 0.21237 0.0
C1892 C 0.69101 0.18199 0.21119 0.0
C1893 C 0.67479 0.15119 0.20093 0.0
C1894 C 0.66898 0.16172 0.18831 0.0
C1895 C 0.67441 0.1825 0.18724 0.0
C1896 C 0.68549 0.19248 0.19852 0.0
C1897 C 0.65821 0.15079 0.17594 0.0
C1898 C 0.66586 0.15282 0.16188 0.0
C1899 C 0.6413 0.13755 0.17801 0.0
C1900 C 0.63102 0.13631 0.1922 0.0
C1901 C 0.62405 0.15422 0.19937 0.0
C1902 C 0.61449 0.153 0.21277 0.0
C1903 C 0.61168 0.13395 0.21909 0.0
C1904 C 0.61838 0.11606 0.21199 0.0
C1905 C 0.62796 0.11719 0.19859 0.0
H1906 H 0.60428 0.13304 0.22947 0.0
H1907 H 0.68771 0.15078 0.09669 0.0
H1908 H 0.95079 0.14358 0.36978 0.0
H1909 H 0.93212 0.15373 0.39147 0.0
H1910 H 0.95516 0.10043 0.4135 0.0
H1911 H 0.97426 0.09029 0.39184 0.0
H1912 H 0.91355 0.10639 0.41711 0.0
H1913 H 0.97533 0.146 0.42207 0.0
H1914 H 0.0022 0.16955 0.41407 0.0
H1915 H 0.95722 0.21698 0.40815 0.0
H1916 H 0.93001 0.19362 0.41592 0.0
H1917 H 0.88065 0.14032 0.48705 0.0
H1918 H 0.90076 0.128 0.46652 0.0
H1919 H 0.88485 0.18251 0.44299 0.0
H1920 H 0.86513 0.19516 0.46361 0.0
H1921 H 0.92436 0.17478 0.44092 0.0
H1922 H 0.86238 0.13515 0.43483 0.0
H1923 H 0.83509 0.11169 0.44231 0.0
H1924 H 0.87983 0.06451 0.44991 0.0
H1925 H 0.90743 0.08779 0.44266 0.0
C1926 C 0.95216 0.13415 0.37929 0.0
C1927 C 0.9642 0.11622 0.37912 0.0
C1928 C 0.94139 0.13993 0.39166 0.0
C1929 C 0.94245 0.12795 0.40413 0.0
C1930 C 0.95417 0.10989 0.40397 0.0
C1931 C 0.96502 0.1041 0.39158 0.0
C1932 C 0.93116 0.13434 0.41728 0.0
C1933 C 0.91611 0.1212 0.42249 0.0
C1934 C 0.93425 0.15385 0.42405 0.0
C1935 C 0.9506 0.16799 0.41946 0.0
C1936 C 0.97114 0.16141 0.41896 0.0
C1937 C 0.98644 0.17473 0.41448 0.0
C1938 C 0.98142 0.19474 0.41057 0.0
C1939 C 0.96109 0.20148 0.41117 0.0
C1940 C 0.94572 0.1882 0.41562 0.0
C1941 C 0.88134 0.14964 0.47748 0.0
C1942 C 0.87127 0.16871 0.47695 0.0
C1943 C 0.89279 0.14254 0.46572 0.0
C1944 C 0.89414 0.15423 0.45315 0.0
C1945 C 0.88403 0.17323 0.45259 0.0
C1946 C 0.87272 0.18042 0.46437 0.0
C1947 C 0.90649 0.14695 0.44069 0.0
C1948 C 0.92181 0.15993 0.43561 0.0
C1949 C 0.90357 0.12733 0.43401 0.0
C1950 C 0.88699 0.11329 0.43835 0.0
C1951 C 0.86642 0.11983 0.43821 0.0
C1952 C 0.85089 0.10655 0.44239 0.0
C1953 C 0.85573 0.08664 0.44662 0.0
C1954 C 0.87611 0.07995 0.44665 0.0
C1955 C 0.8917 0.09317 0.44249 0.0
H1956 H 0.84369 0.07639 0.44985 0.0
H1957 H 0.99328 0.20503 0.40711 0.0
H1958 H 0.87584 0.45549 0.61528 0.0
H1959 H 0.86096 0.43834 0.63591 0.0
H1960 H 0.92177 0.42383 0.65229 0.0
H1961 H 0.93665 0.44047 0.6314 0.0
H1962 H 0.89883 0.39179 0.654 0.0
H1963 H 0.89081 0.46222 0.66822 0.0
H1964 H 0.88043 0.49835 0.66554 0.0
H1965 H 0.81736 0.47995 0.6604 0.0
H1966 H 0.82739 0.44367 0.66285 0.0
H1967 H 0.8644 0.36061 0.72333 0.0
H1968 H 0.88085 0.3803 0.70448 0.0
H1969 H 0.8224 0.38713 0.68213 0.0
H1970 H 0.80583 0.3674 0.70086 0.0
H1971 H 0.84521 0.42375 0.68455 0.0
H1972 H 0.85459 0.35283 0.6696 0.0
H1973 H 0.8658 0.31708 0.67298 0.0
H1974 H 0.92785 0.33749 0.68063 0.0
H1975 H 0.91695 0.37342 0.6775 0.0
C1976 C 0.88601 0.44883 0.62338 0.0
C1977 C 0.90739 0.44935 0.62178 0.0
C1978 C 0.87751 0.43907 0.63519 0.0
C1979 C 0.89024 0.43003 0.64581 0.0
C1980 C 0.91162 0.43068 0.64426 0.0
C1981 C 0.92011 0.44019 0.63234 0.0
C1982 C 0.88122 0.41923 0.65822 0.0
C1983 C 0.88737 0.39896 0.66082 0.0
C1984 C 0.86599 0.42838 0.66701 0.0
C1985 C 0.85988 0.4502 0.66559 0.0
C1986 C 0.87474 0.46586 0.66641 0.0
C1987 C 0.86892 0.48637 0.66495 0.0
C1988 C 0.84825 0.49144 0.66277 0.0
C1989 C 0.83336 0.476 0.66208 0.0
C1990 C 0.8391 0.45546 0.66352 0.0
C1991 C 0.85503 0.36634 0.71442 0.0
C1992 C 0.83381 0.36237 0.71356 0.0
C1993 C 0.86447 0.37754 0.70365 0.0
C1994 C 0.85284 0.38506 0.69188 0.0
C1995 C 0.83162 0.38146 0.69114 0.0
C1996 C 0.82221 0.3701 0.70181 0.0
C1997 C 0.86281 0.39642 0.6802 0.0
C1998 C 0.8568 0.41675 0.67775 0.0
C1999 C 0.87833 0.38743 0.67166 0.0
C2000 C 0.88491 0.36583 0.67347 0.0
C2001 C 0.87059 0.34971 0.67213 0.0
C2002 C 0.8769 0.32941 0.67398 0.0
C2003 C 0.89751 0.32502 0.67706 0.0
C2004 C 0.91188 0.34092 0.67827 0.0
C2005 C 0.90565 0.36125 0.67644 0.0
H2006 H 0.90237 0.30929 0.67849 0.0
H2007 H 0.84378 0.50733 0.66164 0.0
H2008 H 0.55817 0.13481 0.37229 0.0
H2009 H 0.57637 0.14459 0.35057 0.0
H2010 H 0.62422 0.10102 0.36059 0.0
H2011 H 0.6063 0.09148 0.38253 0.0
H2012 H 0.63968 0.13838 0.35479 0.0
H2013 H 0.59115 0.09189 0.33223 0.0
H2014 H 0.55684 0.07741 0.32662 0.0
H2015 H 0.53772 0.13439 0.3081 0.0
H2016 H 0.57184 0.14933 0.31379 0.0
H2017 H 0.69235 0.15448 0.28938 0.0
H2018 H 0.67366 0.13802 0.30868 0.0
H2019 H 0.62167 0.17746 0.30042 0.0
H2020 H 0.64006 0.19364 0.28089 0.0
H2021 H 0.60903 0.13953 0.3049 0.0
H2022 H 0.65598 0.18688 0.32908 0.0
H2023 H 0.68981 0.20222 0.33512 0.0
H2024 H 0.71133 0.14442 0.351 0.0
H2025 H 0.67769 0.12867 0.34487 0.0
C2026 C 0.57251 0.12723 0.36982 0.0
C2027 C 0.58081 0.11239 0.37914 0.0
C2028 C 0.58282 0.13272 0.35734 0.0
C2029 C 0.60159 0.12344 0.3539 0.0
C2030 C 0.60972 0.10832 0.36302 0.0
C2031 C 0.59938 0.10277 0.37548 0.0
C2032 C 0.61329 0.1304 0.34127 0.0
C2033 C 0.63313 0.13827 0.34382 0.0
C2034 C 0.60453 0.13074 0.32705 0.0
C2035 C 0.58402 0.12178 0.32355 0.0
C2036 C 0.57959 0.10139 0.32707 0.0
C2037 C 0.56018 0.09309 0.32385 0.0
C2038 C 0.5451 0.10499 0.31704 0.0
C2039 C 0.54941 0.1252 0.31339 0.0
C2040 C 0.56879 0.13358 0.31659 0.0
C2041 C 0.67691 0.1596 0.29163 0.0
C2042 C 0.66775 0.17546 0.28365 0.0
C2043 C 0.66627 0.15022 0.30271 0.0
C2044 C 0.64636 0.1567 0.30615 0.0
C2045 C 0.63702 0.17221 0.29797 0.0
C2046 C 0.64759 0.18149 0.28684 0.0
C2047 C 0.63536 0.14765 0.31844 0.0
C2048 C 0.61565 0.13945 0.31584 0.0
C2049 C 0.64418 0.1471 0.33265 0.0
C2050 C 0.6644 0.15655 0.33637 0.0
C2051 C 0.66798 0.17741 0.33375 0.0
C2052 C 0.68711 0.18618 0.33721 0.0
C2053 C 0.70273 0.17428 0.3434 0.0
C2054 C 0.69923 0.1536 0.34618 0.0
C2055 C 0.68013 0.14475 0.34273 0.0
H2056 H 0.71753 0.1811 0.34607 0.0
H2057 H 0.53008 0.09853 0.31456 0.0
H2058 H 0.92283 0.06677 0.62042 0.0
H2059 H 0.91547 0.08827 0.59972 0.0
H2060 H 0.96462 0.12923 0.61349 0.0
H2061 H 0.97107 0.10853 0.6349 0.0
H2062 H 0.93353 0.15072 0.60839 0.0
H2063 H 0.96591 0.09956 0.58059 0.0
H2064 H 0.97514 0.06482 0.57179 0.0
H2065 H 0.91324 0.05489 0.55615 0.0
H2066 H 0.90353 0.08945 0.56504 0.0
H2067 H 0.89072 0.17798 0.52988 0.0
H2068 H 0.91543 0.15951 0.54519 0.0
H2069 H 0.87657 0.16899 0.58211 0.0
H2070 H 0.85227 0.18798 0.56707 0.0
H2071 H 0.91306 0.1257 0.55879 0.0
H2072 H 0.90228 0.17305 0.6131 0.0
H2073 H 0.89717 0.20916 0.62078 0.0
H2074 H 0.92401 0.22925 0.58137 0.0
H2075 H 0.92957 0.19328 0.57353 0.0
C2076 C 0.93216 0.0803 0.61904 0.0
C2077 C 0.94733 0.08607 0.62948 0.0
C2078 C 0.92816 0.09243 0.60702 0.0
C2079 C 0.9396 0.11034 0.60492 0.0
C2080 C 0.95558 0.1155 0.61486 0.0
C2081 C 0.95938 0.10351 0.62704 0.0
C2082 C 0.93312 0.12476 0.5934 0.0
C2083 C 0.92932 0.14529 0.59749 0.0
C2084 C 0.92827 0.11795 0.57898 0.0
C2085 C 0.93398 0.09712 0.57354 0.0
C2086 C 0.95422 0.08993 0.57536 0.0
C2087 C 0.95955 0.07027 0.57034 0.0
C2088 C 0.94478 0.05765 0.56343 0.0
C2089 C 0.92467 0.06469 0.5615 0.0
C2090 C 0.91926 0.08434 0.5665 0.0
C2091 C 0.88754 0.17626 0.5413 0.0
C2092 C 0.86958 0.18453 0.54729 0.0
C2093 C 0.90167 0.16569 0.55002 0.0
C2094 C 0.89805 0.16315 0.56486 0.0
C2095 C 0.88001 0.17123 0.57079 0.0
C2096 C 0.86603 0.18198 0.56215 0.0
C2097 C 0.91246 0.15121 0.57411 0.0
C2098 C 0.91773 0.13121 0.56958 0.0
C2099 C 0.91935 0.15871 0.58795 0.0
C2100 C 0.91625 0.18042 0.59269 0.0
C2101 C 0.90722 0.18516 0.60611 0.0
C2102 C 0.90422 0.20561 0.61048 0.0
C2103 C 0.91023 0.22149 0.60156 0.0
C2104 C 0.91931 0.21694 0.58825 0.0
C2105 C 0.92237 0.19652 0.58383 0.0
H2106 H 0.90787 0.23731 0.60497 0.0
H2107 H 0.94894 0.04243 0.55956 0.0
H2108 H 0.92125 0.39071 0.9027 0.0
H2109 H 0.90276 0.37721 0.88118 0.0
H2110 H 0.93576 0.41868 0.85427 0.0
H2111 H 0.95429 0.43241 0.8759 0.0
H2112 H 0.89574 0.41842 0.8471 0.0
H2113 H 0.94744 0.3675 0.85427 0.0
H2114 H 0.96831 0.34269 0.86804 0.0
H2115 H 0.91413 0.3081 0.87691 0.0
H2116 H 0.89288 0.33287 0.86336 0.0
H2117 H 0.85965 0.36604 0.78164 0.0
H2118 H 0.88128 0.3816 0.80104 0.0
H2119 H 0.85059 0.3456 0.83274 0.0
H2120 H 0.82903 0.32991 0.8135 0.0
H2121 H 0.89217 0.34364 0.83588 0.0
H2122 H 0.84046 0.39601 0.82987 0.0
H2123 H 0.81978 0.42101 0.81612 0.0
H2124 H 0.87463 0.45278 0.80475 0.0
H2125 H 0.89567 0.4278 0.81828 0.0
C2126 C 0.92481 0.39675 0.89218 0.0
C2127 C 0.93937 0.41248 0.89096 0.0
C2128 C 0.9142 0.38905 0.87988 0.0
C2129 C 0.9181 0.39673 0.86608 0.0
C2130 C 0.93256 0.41251 0.86482 0.0
C2131 C 0.94312 0.42033 0.87716 0.0
C2132 C 0.90668 0.38849 0.85309 0.0
C2133 C 0.89526 0.4021 0.84448 0.0
C2134 C 0.9058 0.36717 0.84981 0.0
C2135 C 0.91855 0.35214 0.85788 0.0
C2136 C 0.93995 0.35468 0.85924 0.0
C2137 C 0.95185 0.34062 0.867 0.0
C2138 C 0.94255 0.32386 0.87337 0.0
C2139 C 0.92132 0.3211 0.87197 0.0
C2140 C 0.90934 0.33514 0.86424 0.0
C2141 C 0.85741 0.36153 0.79275 0.0
C2142 C 0.84263 0.34669 0.79601 0.0
C2143 C 0.86975 0.37048 0.80382 0.0
C2144 C 0.86748 0.36478 0.81832 0.0
C2145 C 0.85261 0.35016 0.82161 0.0
C2146 C 0.84026 0.34126 0.81058 0.0
C2147 C 0.88096 0.37351 0.83009 0.0
C2148 C 0.89282 0.35997 0.83844 0.0
C2149 C 0.88229 0.39488 0.83307 0.0
C2150 C 0.86965 0.4099 0.82494 0.0
C2151 C 0.84813 0.40822 0.82432 0.0
C2152 C 0.83634 0.42241 0.8166 0.0
C2153 C 0.84589 0.43844 0.80953 0.0
C2154 C 0.86725 0.44034 0.81021 0.0
C2155 C 0.87912 0.42618 0.81791 0.0
H2156 H 0.83673 0.44941 0.80355 0.0
H2157 H 0.95179 0.31298 0.87937 0.0
H2158 H 0.58139 0.36051 0.16046 0.0
H2159 H 0.60238 0.35067 0.13973 0.0
H2160 H 0.57716 0.40095 0.1154 0.0
H2161 H 0.55582 0.41071 0.13605 0.0
H2162 H 0.58027 0.36436 0.09889 0.0
H2163 H 0.62273 0.40677 0.13087 0.0
H2164 H 0.63863 0.41705 0.15453 0.0
H2165 H 0.66958 0.35897 0.15664 0.0
H2166 H 0.65362 0.34823 0.13307 0.0
H2167 H 0.65546 0.35956 0.04399 0.0
H2168 H 0.63285 0.37168 0.06326 0.0
H2169 H 0.66097 0.32894 0.09284 0.0
H2170 H 0.68399 0.31729 0.07386 0.0
H2171 H 0.65596 0.36387 0.10632 0.0
H2172 H 0.61297 0.32025 0.07562 0.0
H2173 H 0.59634 0.30832 0.05257 0.0
H2174 H 0.56599 0.36648 0.04854 0.0
H2175 H 0.58265 0.37885 0.07148 0.0
C2176 C 0.58006 0.36927 0.15061 0.0
C2177 C 0.567 0.38641 0.14988 0.0
C2178 C 0.59217 0.36374 0.13884 0.0
C2179 C 0.59148 0.37525 0.12613 0.0
C2180 C 0.57796 0.39194 0.12515 0.0
C2181 C 0.56589 0.39755 0.13697 0.0
C2182 C 0.60538 0.37021 0.11406 0.0
C2183 C 0.59684 0.36452 0.10042 0.0
C2184 C 0.62694 0.37006 0.1162 0.0
C2185 C 0.63684 0.37663 0.13026 0.0
C2186 C 0.63283 0.39614 0.13642 0.0
C2187 C 0.64186 0.40206 0.14981 0.0
C2188 C 0.65507 0.38865 0.1571 0.0
C2189 C 0.65933 0.36933 0.15098 0.0
C2190 C 0.65031 0.36333 0.1376 0.0
C2191 C 0.65685 0.3528 0.05462 0.0
C2192 C 0.67149 0.33744 0.05738 0.0
C2193 C 0.64385 0.35966 0.0656 0.0
C2194 C 0.645 0.35102 0.07945 0.0
C2195 C 0.65978 0.33586 0.08226 0.0
C2196 C 0.67293 0.32918 0.07136 0.0
C2197 C 0.6309 0.35767 0.09111 0.0
C2198 C 0.63941 0.36376 0.10471 0.0
C2199 C 0.6093 0.35797 0.08896 0.0
C2200 C 0.59923 0.35055 0.07518 0.0
C2201 C 0.60287 0.33054 0.06976 0.0
C2202 C 0.59342 0.32369 0.05673 0.0
C2203 C 0.58017 0.33665 0.04907 0.0
C2204 C 0.57629 0.35647 0.05446 0.0
C2205 C 0.58572 0.3634 0.06749 0.0
H2206 H 0.57286 0.33132 0.03898 0.0
H2207 H 0.66202 0.39325 0.16748 0.0
loop_
_geom_bond_atom_site_label_1
_geom_bond_atom_site_label_2
_geom_bond_distance
_geom_bond_site_symmetry_2
_ccdc_geom_bond_type
H0 C27 0.929 . S
N1 C26 1.433 . S
N1 C32 1.435 . S
N1 C38 1.423 . S
H2 C28 0.930 . S
H3 C31 0.931 . S
H4 C30 0.929 . S
H5 C33 0.930 . S
H6 C34 0.932 . S
H7 C37 0.929 . S
H8 C36 0.931 . S
H9 C39 0.936 . S
H10 C43 0.932 . S
H11 C40 0.931 . S
H12 C42 0.929 . S
H13 C45 0.929 . S
H14 C46 0.930 . S
H15 C48 0.929 . S
H16 C49 0.931 . S
H17 C51 0.930 . S
H18 C52 0.932 . S
H19 C54 0.931 . S
H20 C55 0.929 . S
H21 C57 0.929 . S
H22 C58 0.931 . S
H23 C60 0.929 . S
N24 C44 1.433 . S
N24 C50 1.435 . S
N24 C56 1.423 . S
H25 C61 0.932 . S
C26 N1 1.433 . S
C26 C27 1.363 . S
C26 C31 1.370 . S
C27 H0 0.929 . S
C27 C26 1.363 . S
C27 C28 1.385 . S
C28 H2 0.930 . S
C28 C27 1.385 . S
C28 C29 1.357 . S
C29 C28 1.357 . S
C29 C30 1.406 . S
C30 H4 0.929 . S
C30 C29 1.406 . S
C30 C31 1.391 . S
C31 H3 0.931 . S
C31 C26 1.370 . S
C31 C30 1.391 . S
C32 N1 1.435 . S
C32 C33 1.358 . S
C32 C37 1.371 . S
C33 H5 0.930 . S
C33 C32 1.358 . S
C33 C34 1.405 . S
C34 H6 0.932 . S
C34 C33 1.405 . S
C34 C35 1.383 . S
C35 C34 1.383 . S
C35 C36 1.393 . S
C36 H8 0.931 . S
C36 C35 1.393 . S
C36 C37 1.382 . S
C37 H7 0.929 . S
C37 C32 1.371 . S
C37 C36 1.382 . S
C38 N1 1.423 . S
C38 C39 1.325 1_565 S
C38 C43 1.388 . S
C39 H9 0.936 . S
C39 C38 1.325 1_545 S
C39 C40 1.409 . S
C40 H11 0.931 . S
C40 C39 1.409 . S
C40 C41 1.396 . S
C41 C40 1.396 . S
C41 C42 1.348 1_545 S
C41 C59 1.472 . S
C42 H12 0.929 . S
C42 C41 1.348 1_565 S
C42 C43 1.443 . S
C43 H10 0.932 . S
C43 C38 1.388 . S
C43 C42 1.443 . S
C44 N24 1.433 . S
C44 C45 1.363 . S
C44 C49 1.370 . S
C45 H13 0.929 . S
C45 C44 1.363 . S
C45 C46 1.385 . S
C46 H14 0.930 . S
C46 C45 1.385 . S
C46 C47 1.357 . S
C47 C46 1.357 . S
C47 C48 1.406 . S
C48 H15 0.929 . S
C48 C47 1.406 . S
C48 C49 1.391 . S
C49 H16 0.931 . S
C49 C44 1.370 . S
C49 C48 1.391 . S
C50 N24 1.435 . S
C50 C51 1.358 . S
C50 C55 1.371 . S
C51 H17 0.930 . S
C51 C50 1.358 . S
C51 C52 1.405 . S
C52 H18 0.932 . S
C52 C51 1.405 . S
C52 C53 1.383 . S
C53 C52 1.383 . S
C53 C54 1.393 . S
C54 H19 0.931 . S
C54 C53 1.393 . S
C54 C55 1.382 . S
C55 H20 0.929 . S
C55 C50 1.371 . S
C55 C54 1.382 . S
C56 N24 1.423 . S
C56 C57 1.362 1_655 S
C56 C61 1.388 . S
C57 H21 0.929 . S
C57 C56 1.362 1_455 S
C57 C58 1.376 . S
C58 H22 0.931 . S
C58 C57 1.376 . S
C58 C59 1.396 . S
C59 C41 1.472 . S
C59 C58 1.396 . S
C59 C60 1.348 . S
C60 H23 0.929 . S
C60 C59 1.348 . S
C60 C61 1.443 1_455 S
C61 H25 0.932 . S
C61 C56 1.388 . S
C61 C60 1.443 1_655 S
H62 C89 0.929 . S
N63 C88 1.433 . S
N63 C94 1.435 . S
N63 C100 1.423 . S
H64 C90 0.930 . S
H65 C93 0.931 . S
H66 C92 0.929 . S
H67 C95 0.930 . S
H68 C96 0.932 . S
H69 C99 0.929 . S
H70 C98 0.931 . S
H71 C101 0.932 . S
H72 C105 0.932 . S
H73 C102 0.931 . S
H74 C104 0.929 . S
H75 C107 0.929 . S
H76 C108 0.930 . S
H77 C110 0.929 . S
H78 C111 0.931 . S
H79 C113 0.930 . S
H80 C114 0.932 . S
H81 C116 0.931 . S
H82 C117 0.929 . S
H83 C119 0.929 . S
H84 C120 0.931 . S
H85 C122 0.929 . S
N86 C106 1.433 . S
N86 C112 1.435 . S
N86 C118 1.423 . S
H87 C123 0.932 . S
C88 N63 1.433 . S
C88 C89 1.363 . S
C88 C93 1.370 . S
C89 H62 0.929 . S
C89 C88 1.363 . S
C89 C90 1.385 . S
C90 H64 0.930 . S
C90 C89 1.385 . S
C90 C91 1.357 . S
C91 C90 1.357 . S
C91 C92 1.406 . S
C92 H66 0.929 . S
C92 C91 1.406 . S
C92 C93 1.391 . S
C93 H65 0.931 . S
C93 C88 1.370 . S
C93 C92 1.391 . S
C94 N63 1.435 . S
C94 C95 1.358 . S
C94 C99 1.371 . S
C95 H67 0.930 . S
C95 C94 1.358 . S
C95 C96 1.405 . S
C96 H68 0.932 . S
C96 C95 1.405 . S
C96 C97 1.383 . S
C97 C96 1.383 . S
C97 C98 1.393 . S
C98 H70 0.931 . S
C98 C97 1.393 . S
C98 C99 1.382 . S
C99 H69 0.929 . S
C99 C94 1.371 . S
C99 C98 1.382 . S
C100 N63 1.423 . S
C100 C101 1.335 1_655 S
C100 C105 1.388 . S
C101 H71 0.932 . S
C101 C100 1.335 1_455 S
C101 C102 1.402 . S
C102 H73 0.931 . S
C102 C101 1.402 . S
C102 C103 1.396 . S
C103 C102 1.396 . S
C103 C104 1.348 1_455 S
C103 C121 1.472 . S
C104 H74 0.929 . S
C104 C103 1.348 1_655 S
C104 C105 1.443 . S
C105 H72 0.932 . S
C105 C100 1.388 . S
C105 C104 1.443 . S
C106 N86 1.433 . S
C106 C107 1.363 . S
C106 C111 1.370 . S
C107 H75 0.929 . S
C107 C106 1.363 . S
C107 C108 1.385 . S
C108 H76 0.930 . S
C108 C107 1.385 . S
C108 C109 1.357 . S
C109 C108 1.357 . S
C109 C110 1.406 . S
C110 H77 0.929 . S
C110 C109 1.406 . S
C110 C111 1.391 . S
C111 H78 0.931 . S
C111 C106 1.370 . S
C111 C110 1.391 . S
C112 N86 1.435 . S
C112 C113 1.358 . S
C112 C117 1.371 . S
C113 H79 0.930 . S
C113 C112 1.358 . S
C113 C114 1.405 . S
C114 H80 0.932 . S
C114 C113 1.405 . S
C114 C115 1.383 . S
C115 C114 1.383 . S
C115 C116 1.393 . S
C116 H81 0.931 . S
C116 C115 1.393 . S
C116 C117 1.382 . S
C117 H82 0.929 . S
C117 C112 1.371 . S
C117 C116 1.382 . S
C118 N86 1.423 . S
C118 C119 1.362 . S
C118 C123 1.388 . S
C119 H83 0.929 . S
C119 C118 1.362 . S
C119 C120 1.376 . S
C120 H84 0.931 . S
C120 C119 1.376 . S
C120 C121 1.396 . S
C121 C103 1.472 . S
C121 C120 1.396 . S
C121 C122 1.348 . S
C122 H85 0.929 . S
C122 C121 1.348 . S
C122 C123 1.443 . S
C123 H87 0.932 . S
C123 C118 1.388 . S
C123 C122 1.443 . S
H124 C151 0.929 . S
N125 C150 1.433 . S
N125 C156 1.435 . S
N125 C162 1.423 . S
H126 C152 0.930 . S
H127 C155 0.931 . S
H128 C154 0.929 . S
H129 C157 0.930 . S
H130 C158 0.932 . S
H131 C161 0.929 . S
H132 C160 0.931 . S
H133 C163 0.929 . S
H134 C167 0.932 . S
H135 C164 0.931 . S
H136 C166 0.929 . S
H137 C169 0.929 . S
H138 C170 0.930 . S
H139 C172 0.929 . S
H140 C173 0.931 . S
H141 C175 0.930 . S
H142 C176 0.932 . S
H143 C178 0.931 . S
H144 C179 0.929 . S
H145 C181 0.929 . S
H146 C182 0.931 . S
H147 C184 0.929 . S
N148 C168 1.433 . S
N148 C174 1.435 . S
N148 C180 1.423 . S
H149 C185 0.932 . S
C150 N125 1.433 . S
C150 C151 1.363 . S
C150 C155 1.370 . S
C151 H124 0.929 . S
C151 C150 1.363 . S
C151 C152 1.385 . S
C152 H126 0.930 . S
C152 C151 1.385 . S
C152 C153 1.357 . S
C153 C152 1.357 . S
C153 C154 1.406 . S
C154 H128 0.929 . S
C154 C153 1.406 . S
C154 C155 1.391 . S
C155 H127 0.931 . S
C155 C150 1.370 . S
C155 C154 1.391 . S
C156 N125 1.435 . S
C156 C157 1.358 . S
C156 C161 1.371 . S
C157 H129 0.930 . S
C157 C156 1.358 . S
C157 C158 1.405 . S
C158 H130 0.932 . S
C158 C157 1.405 . S
C158 C159 1.383 . S
C159 C158 1.383 . S
C159 C160 1.393 . S
C160 H132 0.931 . S
C160 C159 1.393 . S
C160 C161 1.382 . S
C161 H131 0.929 . S
C161 C156 1.371 . S
C161 C160 1.382 . S
C162 N125 1.423 . S
C162 C163 1.362 . S
C162 C167 1.388 . S
C163 H133 0.929 . S
C163 C162 1.362 . S
C163 C164 1.376 . S
C164 H135 0.931 . S
C164 C163 1.376 . S
C164 C165 1.396 . S
C165 C164 1.396 . S
C165 C166 1.348 . S
C165 C183 1.472 . S
C166 H136 0.929 . S
C166 C165 1.348 . S
C166 C167 1.443 . S
C167 H134 0.932 . S
C167 C162 1.388 . S
C167 C166 1.443 . S
C168 N148 1.433 . S
C168 C169 1.363 . S
C168 C173 1.370 . S
C169 H137 0.929 . S
C169 C168 1.363 . S
C169 C170 1.385 . S
C170 H138 0.930 . S
C170 C169 1.385 . S
C170 C171 1.357 . S
C171 C170 1.357 . S
C171 C172 1.406 . S
C172 H139 0.929 . S
C172 C171 1.406 . S
C172 C173 1.391 . S
C173 H140 0.931 . S
C173 C168 1.370 . S
C173 C172 1.391 . S
C174 N148 1.435 . S
C174 C175 1.358 . S
C174 C179 1.371 . S
C175 H141 0.930 . S
C175 C174 1.358 . S
C175 C176 1.405 . S
C176 H142 0.932 . S
C176 C175 1.405 . S
C176 C177 1.383 . S
C177 C176 1.383 . S
C177 C178 1.393 . S
C178 H143 0.931 . S
C178 C177 1.393 . S
C178 C179 1.382 . S
C179 H144 0.929 . S
C179 C174 1.371 . S
C179 C178 1.382 . S
C180 N148 1.423 . S
C180 C181 1.362 . S
C180 C185 1.388 . S
C181 H145 0.929 . S
C181 C180 1.362 . S
C181 C182 1.376 . S
C182 H146 0.931 . S
C182 C181 1.376 . S
C182 C183 1.396 . S
C183 C165 1.472 . S
C183 C182 1.396 . S
C183 C184 1.348 . S
C184 H147 0.929 . S
C184 C183 1.348 . S
C184 C185 1.443 . S
C185 H149 0.932 . S
C185 C180 1.388 . S
C185 C184 1.443 . S
H186 C213 0.929 . S
N187 C212 1.433 . S
N187 C218 1.435 . S
N187 C224 1.423 . S
H188 C214 0.930 . S
H189 C217 0.931 . S
H190 C216 0.929 . S
H191 C219 0.930 . S
H192 C220 0.932 . S
H193 C223 0.929 . S
H194 C222 0.931 . S
H195 C225 0.929 . S
H196 C229 0.932 . S
H197 C226 0.931 . S
H198 C228 0.929 . S
H199 C231 0.929 . S
H200 C232 0.930 . S
H201 C234 0.929 . S
H202 C235 0.931 . S
H203 C237 0.930 . S
H204 C238 0.932 . S
H205 C240 0.931 . S
H206 C241 0.929 . S
H207 C243 0.929 . S
H208 C244 0.931 1_565 S
H209 C246 0.929 . S
N210 C230 1.433 . S
N210 C236 1.435 . S
N210 C242 1.423 . S
H211 C247 0.932 . S
C212 N187 1.433 . S
C212 C213 1.363 . S
C212 C217 1.370 . S
C213 H186 0.929 . S
C213 C212 1.363 . S
C213 C214 1.385 . S
C214 H188 0.930 . S
C214 C213 1.385 . S
C214 C215 1.357 . S
C215 C214 1.357 . S
C215 C216 1.406 . S
C216 H190 0.929 . S
C216 C215 1.406 . S
C216 C217 1.391 . S
C217 H189 0.931 . S
C217 C212 1.370 . S
C217 C216 1.391 . S
C218 N187 1.435 . S
C218 C219 1.358 . S
C218 C223 1.371 . S
C219 H191 0.930 . S
C219 C218 1.358 . S
C219 C220 1.405 . S
C220 H192 0.932 . S
C220 C219 1.405 . S
C220 C221 1.383 . S
C221 C220 1.383 . S
C221 C222 1.393 . S
C222 H194 0.931 . S
C222 C221 1.393 . S
C222 C223 1.382 . S
C223 H193 0.929 . S
C223 C218 1.371 . S
C223 C222 1.382 . S
C224 N187 1.423 . S
C224 C225 1.362 . S
C224 C229 1.388 . S
C225 H195 0.929 . S
C225 C224 1.362 . S
C225 C226 1.376 . S
C226 H197 0.931 . S
C226 C225 1.376 . S
C226 C227 1.396 . S
C227 C226 1.396 . S
C227 C228 1.348 . S
C227 C245 1.472 1_565 S
C228 H198 0.929 . S
C228 C227 1.348 . S
C228 C229 1.443 . S
C229 H196 0.932 . S
C229 C224 1.388 . S
C229 C228 1.443 . S
C230 N210 1.433 . S
C230 C231 1.363 . S
C230 C235 1.370 . S
C231 H199 0.929 . S
C231 C230 1.363 . S
C231 C232 1.385 . S
C232 H200 0.930 . S
C232 C231 1.385 . S
C232 C233 1.357 . S
C233 C232 1.357 . S
C233 C234 1.406 . S
C234 H201 0.929 . S
C234 C233 1.406 . S
C234 C235 1.391 . S
C235 H202 0.931 . S
C235 C230 1.370 . S
C235 C234 1.391 . S
C236 N210 1.435 . S
C236 C237 1.358 . S
C236 C241 1.371 . S
C237 H203 0.930 . S
C237 C236 1.358 . S
C237 C238 1.405 . S
C238 H204 0.932 . S
C238 C237 1.405 . S
C238 C239 1.383 . S
C239 C238 1.383 . S
C239 C240 1.393 . S
C240 H205 0.931 . S
C240 C239 1.393 . S
C240 C241 1.382 . S
C241 H206 0.929 . S
C241 C236 1.371 . S
C241 C240 1.382 . S
C242 N210 1.423 . S
C242 C243 1.362 . S
C242 C247 1.388 . S
C243 H207 0.929 . S
C243 C242 1.362 . S
C243 C244 1.376 . S
C244 H208 0.931 1_545 S
C244 C243 1.376 . S
C244 C245 1.396 . S
C245 C227 1.472 1_545 S
C245 C244 1.396 . S
C245 C246 1.348 . S
C246 H209 0.929 . S
C246 C245 1.348 . S
C246 C247 1.443 . S
C247 H211 0.932 . S
C247 C242 1.388 . S
C247 C246 1.443 . S
H248 C275 0.929 . S
N249 C274 1.433 . S
N249 C280 1.435 . S
N249 C286 1.423 . S
H250 C276 0.930 . S
H251 C279 0.931 . S
H252 C278 0.929 . S
H253 C281 0.930 . S
H254 C282 0.932 . S
H255 C285 0.929 . S
H256 C284 0.931 . S
H257 C287 0.929 . S
H258 C291 0.932 . S
H259 C288 0.931 . S
H260 C290 0.929 . S
H261 C293 0.929 . S
H262 C294 0.930 . S
H263 C296 0.929 . S
H264 C297 0.931 . S
H265 C299 0.930 . S
H266 C300 0.932 . S
H267 C302 0.931 . S
H268 C303 0.929 . S
H269 C305 0.929 . S
H270 C306 0.931 1_455 S
H271 C308 0.929 . S
N272 C292 1.433 . S
N272 C298 1.435 . S
N272 C304 1.423 . S
H273 C309 0.932 . S
C274 N249 1.433 . S
C274 C275 1.363 . S
C274 C279 1.370 . S
C275 H248 0.929 . S
C275 C274 1.363 . S
C275 C276 1.385 . S
C276 H250 0.930 . S
C276 C275 1.385 . S
C276 C277 1.357 . S
C277 C276 1.357 . S
C277 C278 1.406 . S
C278 H252 0.929 . S
C278 C277 1.406 . S
C278 C279 1.391 . S
C279 H251 0.931 . S
C279 C274 1.370 . S
C279 C278 1.391 . S
C280 N249 1.435 . S
C280 C281 1.358 . S
C280 C285 1.371 . S
C281 H253 0.930 . S
C281 C280 1.358 . S
C281 C282 1.405 . S
C282 H254 0.932 . S
C282 C281 1.405 . S
C282 C283 1.383 . S
C283 C282 1.383 . S
C283 C284 1.393 . S
C284 H256 0.931 . S
C284 C283 1.393 . S
C284 C285 1.382 . S
C285 H255 0.929 . S
C285 C280 1.371 . S
C285 C284 1.382 . S
C286 N249 1.423 . S
C286 C287 1.362 . S
C286 C291 1.388 . S
C287 H257 0.929 . S
C287 C286 1.362 . S
C287 C288 1.376 . S
C288 H259 0.931 . S
C288 C287 1.376 . S
C288 C289 1.396 . S
C289 C288 1.396 . S
C289 C290 1.348 . S
C289 C307 1.512 . S
C290 H260 0.929 . S
C290 C289 1.348 . S
C290 C291 1.443 . S
C291 H258 0.932 . S
C291 C286 1.388 . S
C291 C290 1.443 . S
C292 N272 1.433 . S
C292 C293 1.363 . S
C292 C297 1.370 . S
C293 H261 0.929 . S
C293 C292 1.363 . S
C293 C294 1.385 . S
C294 H262 0.930 . S
C294 C293 1.385 . S
C294 C295 1.357 . S
C295 C294 1.357 . S
C295 C296 1.406 . S
C296 H263 0.929 . S
C296 C295 1.406 . S
C296 C297 1.391 . S
C297 H264 0.931 . S
C297 C292 1.370 . S
C297 C296 1.391 . S
C298 N272 1.435 . S
C298 C299 1.358 . S
C298 C303 1.371 . S
C299 H265 0.930 . S
C299 C298 1.358 . S
C299 C300 1.405 . S
C300 H266 0.932 . S
C300 C299 1.405 . S
C300 C301 1.383 . S
C301 C300 1.383 . S
C301 C302 1.393 . S
C302 H267 0.931 . S
C302 C301 1.393 . S
C302 C303 1.382 . S
C303 H268 0.929 . S
C303 C298 1.371 . S
C303 C302 1.382 . S
C304 N272 1.423 . S
C304 C305 1.362 . S
C304 C309 1.388 . S
C305 H269 0.929 . S
C305 C304 1.362 . S
C305 C306 1.376 . S
C306 H270 0.931 1_655 S
C306 C305 1.376 . S
C306 C307 1.392 1_655 S
C307 C289 1.512 . S
C307 C306 1.392 1_455 S
C307 C308 1.311 1_455 S
C308 H271 0.929 . S
C308 C307 1.311 1_655 S
C308 C309 1.443 . S
C309 H273 0.932 . S
C309 C304 1.388 . S
C309 C308 1.443 . S
H310 C337 0.929 . S
N311 C336 1.433 . S
N311 C342 1.435 . S
N311 C348 1.423 . S
H312 C338 0.930 . S
H313 C341 0.931 . S
H314 C340 0.929 . S
H315 C343 0.930 . S
H316 C344 0.932 . S
H317 C347 0.929 . S
H318 C346 0.931 . S
H319 C349 0.929 . S
H320 C353 0.932 . S
H321 C350 0.931 . S
H322 C352 0.929 . S
H323 C355 0.929 . S
H324 C356 0.930 . S
H325 C358 0.929 . S
H326 C359 0.931 . S
H327 C361 0.930 . S
H328 C362 0.932 . S
H329 C364 0.931 . S
H330 C365 0.929 . S
H331 C367 0.929 . S
H332 C368 0.931 . S
H333 C370 0.929 . S
N334 C354 1.433 . S
N334 C360 1.435 . S
N334 C366 1.423 . S
H335 C371 0.932 . S
C336 N311 1.433 . S
C336 C337 1.363 . S
C336 C341 1.370 . S
C337 H310 0.929 . S
C337 C336 1.363 . S
C337 C338 1.385 . S
C338 H312 0.930 . S
C338 C337 1.385 . S
C338 C339 1.357 . S
C339 C338 1.357 . S
C339 C340 1.406 . S
C340 H314 0.929 . S
C340 C339 1.406 . S
C340 C341 1.391 . S
C341 H313 0.931 . S
C341 C336 1.370 . S
C341 C340 1.391 . S
C342 N311 1.435 . S
C342 C343 1.358 . S
C342 C347 1.371 . S
C343 H315 0.930 . S
C343 C342 1.358 . S
C343 C344 1.405 . S
C344 H316 0.932 . S
C344 C343 1.405 . S
C344 C345 1.383 . S
C345 C344 1.383 . S
C345 C346 1.393 . S
C346 H318 0.931 . S
C346 C345 1.393 . S
C346 C347 1.382 . S
C347 H317 0.929 . S
C347 C342 1.371 . S
C347 C346 1.382 . S
C348 N311 1.423 . S
C348 C349 1.362 . S
C348 C353 1.388 . S
C349 H319 0.929 . S
C349 C348 1.362 . S
C349 C350 1.376 . S
C350 H321 0.931 . S
C350 C349 1.376 . S
C350 C351 1.396 . S
C351 C350 1.396 . S
C351 C352 1.348 . S
C351 C369 1.472 . S
C352 H322 0.929 . S
C352 C351 1.348 . S
C352 C353 1.443 . S
C353 H320 0.932 . S
C353 C348 1.388 . S
C353 C352 1.443 . S
C354 N334 1.433 . S
C354 C355 1.363 . S
C354 C359 1.370 . S
C355 H323 0.929 . S
C355 C354 1.363 . S
C355 C356 1.385 . S
C356 H324 0.930 . S
C356 C355 1.385 . S
C356 C357 1.357 . S
C357 C356 1.357 . S
C357 C358 1.406 . S
C358 H325 0.929 . S
C358 C357 1.406 . S
C358 C359 1.391 . S
C359 H326 0.931 . S
C359 C354 1.370 . S
C359 C358 1.391 . S
C360 N334 1.435 . S
C360 C361 1.358 . S
C360 C365 1.371 . S
C361 H327 0.930 . S
C361 C360 1.358 . S
C361 C362 1.405 . S
C362 H328 0.932 . S
C362 C361 1.405 . S
C362 C363 1.383 . S
C363 C362 1.383 . S
C363 C364 1.393 . S
C364 H329 0.931 . S
C364 C363 1.393 . S
C364 C365 1.382 . S
C365 H330 0.929 . S
C365 C360 1.371 . S
C365 C364 1.382 . S
C366 N334 1.423 . S
C366 C367 1.362 . S
C366 C371 1.388 . S
C367 H331 0.929 . S
C367 C366 1.362 . S
C367 C368 1.376 . S
C368 H332 0.931 . S
C368 C367 1.376 . S
C368 C369 1.396 . S
C369 C351 1.472 . S
C369 C368 1.396 . S
C369 C370 1.348 . S
C370 H333 0.929 . S
C370 C369 1.348 . S
C370 C371 1.443 . S
C371 H335 0.932 . S
C371 C366 1.388 . S
C371 C370 1.443 . S
H372 C399 0.929 . S
N373 C398 1.433 . S
N373 C404 1.435 . S
N373 C410 1.423 . S
H374 C400 0.930 . S
H375 C403 0.931 . S
H376 C402 0.929 . S
H377 C405 0.930 . S
H378 C406 0.932 . S
H379 C409 0.929 . S
H380 C408 0.931 . S
H381 C411 0.936 . S
H382 C415 0.932 . S
H383 C412 0.931 . S
H384 C414 0.929 . S
H385 C417 0.929 . S
H386 C418 0.930 . S
H387 C420 0.929 . S
H388 C421 0.931 . S
H389 C423 0.930 . S
H390 C424 0.932 . S
H391 C426 0.931 . S
H392 C427 0.929 . S
H393 C429 0.929 . S
H394 C430 0.931 . S
H395 C432 0.929 . S
N396 C416 1.433 . S
N396 C422 1.435 . S
N396 C428 1.423 . S
H397 C433 0.932 . S
C398 N373 1.433 . S
C398 C399 1.363 . S
C398 C403 1.370 . S
C399 H372 0.929 . S
C399 C398 1.363 . S
C399 C400 1.385 . S
C400 H374 0.930 . S
C400 C399 1.385 . S
C400 C401 1.357 . S
C401 C400 1.357 . S
C401 C402 1.406 . S
C402 H376 0.929 . S
C402 C401 1.406 . S
C402 C403 1.391 . S
C403 H375 0.931 . S
C403 C398 1.370 . S
C403 C402 1.391 . S
C404 N373 1.435 . S
C404 C405 1.358 . S
C404 C409 1.371 . S
C405 H377 0.930 . S
C405 C404 1.358 . S
C405 C406 1.405 . S
C406 H378 0.932 . S
C406 C405 1.405 . S
C406 C407 1.383 . S
C407 C406 1.383 . S
C407 C408 1.393 . S
C408 H380 0.931 . S
C408 C407 1.393 . S
C408 C409 1.382 . S
C409 H379 0.929 . S
C409 C404 1.371 . S
C409 C408 1.382 . S
C410 N373 1.423 . S
C410 C411 1.323 1_565 S
C410 C415 1.388 . S
C411 H381 0.936 . S
C411 C410 1.323 1_545 S
C411 C412 1.411 . S
C412 H383 0.931 . S
C412 C411 1.411 . S
C412 C413 1.396 . S
C413 C412 1.396 . S
C413 C414 1.348 1_545 S
C413 C431 1.472 . S
C414 H384 0.929 . S
C414 C413 1.348 1_565 S
C414 C415 1.443 . S
C415 H382 0.932 . S
C415 C410 1.388 . S
C415 C414 1.443 . S
C416 N396 1.433 . S
C416 C417 1.363 . S
C416 C421 1.370 . S
C417 H385 0.929 . S
C417 C416 1.363 . S
C417 C418 1.385 . S
C418 H386 0.930 . S
C418 C417 1.385 . S
C418 C419 1.357 . S
C419 C418 1.357 . S
C419 C420 1.406 . S
C420 H387 0.929 . S
C420 C419 1.406 . S
C420 C421 1.391 . S
C421 H388 0.931 . S
C421 C416 1.370 . S
C421 C420 1.391 . S
C422 N396 1.435 . S
C422 C423 1.358 . S
C422 C427 1.371 . S
C423 H389 0.930 . S
C423 C422 1.358 . S
C423 C424 1.405 . S
C424 H390 0.932 . S
C424 C423 1.405 . S
C424 C425 1.383 . S
C425 C424 1.383 . S
C425 C426 1.393 . S
C426 H391 0.931 . S
C426 C425 1.393 . S
C426 C427 1.382 . S
C427 H392 0.929 . S
C427 C422 1.371 . S
C427 C426 1.382 . S
C428 N396 1.423 . S
C428 C429 1.362 . S
C428 C433 1.388 . S
C429 H393 0.929 . S
C429 C428 1.362 . S
C429 C430 1.376 . S
C430 H394 0.931 . S
C430 C429 1.376 . S
C430 C431 1.396 . S
C431 C413 1.472 . S
C431 C430 1.396 . S
C431 C432 1.348 . S
C432 H395 0.929 . S
C432 C431 1.348 . S
C432 C433 1.443 . S
C433 H397 0.932 . S
C433 C428 1.388 . S
C433 C432 1.443 . S
H434 C461 0.929 . S
N435 C460 1.433 . S
N435 C466 1.435 . S
N435 C472 1.423 . S
H436 C462 0.930 . S
H437 C465 0.931 . S
H438 C464 0.929 . S
H439 C467 0.930 . S
H440 C468 0.932 . S
H441 C471 0.929 . S
H442 C470 0.931 . S
H443 C473 0.929 . S
H444 C477 0.932 . S
H445 C474 0.931 . S
H446 C476 0.929 . S
H447 C479 0.929 . S
H448 C480 0.930 . S
H449 C482 0.929 . S
H450 C483 0.931 . S
H451 C485 0.930 . S
H452 C486 0.932 . S
H453 C488 0.931 . S
H454 C489 0.929 . S
H455 C491 0.929 . S
H456 C492 0.931 . S
H457 C494 0.929 . S
N458 C478 1.433 . S
N458 C484 1.435 . S
N458 C490 1.423 . S
H459 C495 0.932 . S
C460 N435 1.433 . S
C460 C461 1.363 . S
C460 C465 1.370 . S
C461 H434 0.929 . S
C461 C460 1.363 . S
C461 C462 1.385 . S
C462 H436 0.930 . S
C462 C461 1.385 . S
C462 C463 1.357 . S
C463 C462 1.357 . S
C463 C464 1.406 . S
C464 H438 0.929 . S
C464 C463 1.406 . S
C464 C465 1.391 . S
C465 H437 0.931 . S
C465 C460 1.370 . S
C465 C464 1.391 . S
C466 N435 1.435 . S
C466 C467 1.358 . S
C466 C471 1.371 . S
C467 H439 0.930 . S
C467 C466 1.358 . S
C467 C468 1.405 . S
C468 H440 0.932 . S
C468 C467 1.405 . S
C468 C469 1.383 . S
C469 C468 1.383 . S
C469 C470 1.393 . S
C470 H442 0.931 . S
C470 C469 1.393 . S
C470 C471 1.382 . S
C471 H441 0.929 . S
C471 C466 1.371 . S
C471 C470 1.382 . S
C472 N435 1.423 . S
C472 C473 1.362 . S
C472 C477 1.388 . S
C473 H443 0.929 . S
C473 C472 1.362 . S
C473 C474 1.376 . S
C474 H445 0.931 . S
C474 C473 1.376 . S
C474 C475 1.396 1_565 S
C475 C474 1.396 1_545 S
C475 C476 1.348 . S
C475 C493 1.472 . S
C476 H446 0.929 . S
C476 C475 1.348 . S
C476 C477 1.443 1_545 S
C477 H444 0.932 . S
C477 C472 1.388 . S
C477 C476 1.443 1_565 S
C478 N458 1.433 . S
C478 C479 1.363 . S
C478 C483 1.370 . S
C479 H447 0.929 . S
C479 C478 1.363 . S
C479 C480 1.385 . S
C480 H448 0.930 . S
C480 C479 1.385 . S
C480 C481 1.357 . S
C481 C480 1.357 . S
C481 C482 1.406 . S
C482 H449 0.929 . S
C482 C481 1.406 . S
C482 C483 1.391 . S
C483 H450 0.931 . S
C483 C478 1.370 . S
C483 C482 1.391 . S
C484 N458 1.435 . S
C484 C485 1.358 . S
C484 C489 1.371 . S
C485 H451 0.930 . S
C485 C484 1.358 . S
C485 C486 1.405 . S
C486 H452 0.932 . S
C486 C485 1.405 . S
C486 C487 1.383 . S
C487 C486 1.383 . S
C487 C488 1.393 . S
C488 H453 0.931 . S
C488 C487 1.393 . S
C488 C489 1.382 . S
C489 H454 0.929 . S
C489 C484 1.371 . S
C489 C488 1.382 . S
C490 N458 1.423 . S
C490 C491 1.362 . S
C490 C495 1.388 . S
C491 H455 0.929 . S
C491 C490 1.362 . S
C491 C492 1.376 . S
C492 H456 0.931 . S
C492 C491 1.376 . S
C492 C493 1.396 1_655 S
C493 C475 1.472 . S
C493 C492 1.396 1_455 S
C493 C494 1.348 . S
C494 H457 0.929 . S
C494 C493 1.348 . S
C494 C495 1.443 1_455 S
C495 H459 0.932 . S
C495 C490 1.388 . S
C495 C494 1.443 1_655 S
Zn496 O499 2.031 . S
Zn496 O501 2.049 1_556 S
Zn496 O506 2.067 . S
Zn497 O498 1.962 . S
Zn497 O500 1.986 . S
Zn497 O502 1.996 . S
Zn497 O505 1.943 . S
O498 Zn497 1.962 . S
O498 C503 1.254 . S
O499 Zn496 2.031 . S
O499 C503 1.269 1_556 S
O500 Zn497 1.986 . S
O500 C507 1.262 . S
O501 Zn496 2.049 1_554 S
O501 C509 1.260 . S
O502 Zn497 1.996 . S
O502 C509 1.257 . S
C503 O498 1.254 . S
C503 O499 1.269 1_554 S
C504 O505 1.249 1_556 S
C504 O506 1.270 . S
O505 Zn497 1.943 . S
O505 C504 1.249 1_554 S
O506 Zn496 2.067 . S
O506 C504 1.270 . S
C507 O500 1.262 . S
C507 O508 1.232 . S
O508 C507 1.232 . S
C509 O501 1.260 . S
C509 O502 1.257 . S
Zn510 O513 2.031 . S
Zn510 O515 2.049 . S
Zn510 O520 2.067 . S
Zn511 O512 1.962 . S
Zn511 O514 1.986 . S
Zn511 O516 1.996 . S
Zn511 O519 1.943 . S
O512 Zn511 1.962 . S
O512 C517 1.254 . S
O513 Zn510 2.031 . S
O513 C517 1.269 . S
O514 Zn511 1.986 . S
O514 C521 1.262 . S
O515 Zn510 2.049 . S
O515 C523 1.260 . S
O516 Zn511 1.996 . S
O516 C523 1.257 . S
C517 O512 1.254 . S
C517 O513 1.269 . S
C518 O519 1.249 . S
C518 O520 1.270 . S
O519 Zn511 1.943 . S
O519 C518 1.249 . S
O520 Zn510 2.067 . S
O520 C518 1.270 . S
C521 O514 1.262 . S
C521 O522 1.232 . S
O522 C521 1.232 . S
C523 O515 1.260 . S
C523 O516 1.257 . S
Zn524 O527 2.031 . S
Zn524 O529 2.049 . S
Zn524 O534 2.067 . S
Zn525 O526 1.962 . S
Zn525 O528 1.986 . S
Zn525 O530 1.996 . S
Zn525 O533 1.943 . S
O526 Zn525 1.962 . S
O526 C531 1.254 . S
O527 Zn524 2.031 . S
O527 C531 1.269 . S
O528 Zn525 1.986 . S
O528 C535 1.262 . S
O529 Zn524 2.049 . S
O529 C537 1.260 . S
O530 Zn525 1.996 . S
O530 C537 1.257 . S
C531 O526 1.254 . S
C531 O527 1.269 . S
C532 O533 1.249 . S
C532 O534 1.270 . S
O533 Zn525 1.943 . S
O533 C532 1.249 . S
O534 Zn524 2.067 . S
O534 C532 1.270 . S
C535 O528 1.262 . S
C535 O536 1.232 . S
O536 C535 1.232 . S
C537 O529 1.260 . S
C537 O530 1.257 . S
Zn538 O541 2.031 . S
Zn538 O543 2.049 . S
Zn538 O548 2.067 . S
Zn539 O540 1.962 . S
Zn539 O542 1.986 . S
Zn539 O544 1.996 . S
Zn539 O547 1.943 . S
O540 Zn539 1.962 . S
O540 C545 1.254 . S
O541 Zn538 2.031 . S
O541 C545 1.269 . S
O542 Zn539 1.986 . S
O542 C549 1.262 . S
O543 Zn538 2.049 . S
O543 C551 1.260 . S
O544 Zn539 1.996 . S
O544 C551 1.257 . S
C545 O540 1.254 . S
C545 O541 1.269 . S
C546 O547 1.249 . S
C546 O548 1.270 . S
O547 Zn539 1.943 . S
O547 C546 1.249 . S
O548 Zn538 2.067 . S
O548 C546 1.270 . S
C549 O542 1.262 . S
C549 O550 1.232 . S
O550 C549 1.232 . S
C551 O543 1.260 . S
C551 O544 1.257 . S
Zn552 O555 2.031 . S
Zn552 O557 2.049 . S
Zn552 O562 2.067 . S
Zn553 O554 1.962 . S
Zn553 O556 1.986 . S
Zn553 O558 1.996 . S
Zn553 O561 1.943 . S
O554 Zn553 1.962 . S
O554 C559 1.254 . S
O555 Zn552 2.031 . S
O555 C559 1.269 . S
O556 Zn553 1.986 . S
O556 C563 1.262 . S
O557 Zn552 2.049 . S
O557 C565 1.260 . S
O558 Zn553 1.996 . S
O558 C565 1.257 . S
C559 O554 1.254 . S
C559 O555 1.269 . S
C560 O561 1.249 . S
C560 O562 1.270 . S
O561 Zn553 1.943 . S
O561 C560 1.249 . S
O562 Zn552 2.067 . S
O562 C560 1.270 . S
C563 O556 1.262 . S
C563 O564 1.232 . S
O564 C563 1.232 . S
C565 O557 1.260 . S
C565 O558 1.257 . S
Zn566 O569 2.031 . S
Zn566 O571 2.049 . S
Zn566 O576 2.067 . S
Zn567 O568 1.962 . S
Zn567 O570 1.986 . S
Zn567 O572 1.996 . S
Zn567 O575 1.943 . S
O568 Zn567 1.962 . S
O568 C573 1.254 . S
O569 Zn566 2.031 . S
O569 C573 1.269 . S
O570 Zn567 1.986 . S
O570 C577 1.262 . S
O571 Zn566 2.049 . S
O571 C579 1.260 . S
O572 Zn567 1.996 . S
O572 C579 1.257 . S
C573 O568 1.254 . S
C573 O569 1.269 . S
C574 O575 1.249 . S
C574 O576 1.270 . S
O575 Zn567 1.943 . S
O575 C574 1.249 . S
O576 Zn566 2.067 . S
O576 C574 1.270 . S
C577 O570 1.262 . S
C577 O578 1.232 . S
O578 C577 1.232 . S
C579 O571 1.260 . S
C579 O572 1.257 . S
Zn580 O583 2.031 . S
Zn580 O585 2.049 . S
Zn580 O590 2.067 . S
Zn581 O582 1.962 . S
Zn581 O584 1.986 . S
Zn581 O586 1.996 . S
Zn581 O589 1.943 1_556 S
O582 Zn581 1.962 . S
O582 C587 1.254 1_556 S
O583 Zn580 2.031 . S
O583 C587 1.269 . S
O584 Zn581 1.986 . S
O584 C591 1.262 . S
O585 Zn580 2.049 . S
O585 C593 1.260 . S
O586 Zn581 1.996 . S
O586 C593 1.257 1_556 S
C587 O582 1.254 1_554 S
C587 O583 1.269 . S
C588 O589 1.249 . S
C588 O590 1.270 . S
O589 Zn581 1.943 1_554 S
O589 C588 1.249 . S
O590 Zn580 2.067 . S
O590 C588 1.270 . S
C591 O584 1.262 . S
C591 O592 1.232 . S
O592 C591 1.232 . S
C593 O585 1.260 . S
C593 O586 1.257 1_554 S
Zn594 O597 2.031 . S
Zn594 O599 2.049 . S
Zn594 O604 2.067 . S
Zn595 O596 1.962 . S
Zn595 O598 1.986 . S
Zn595 O600 1.996 . S
Zn595 O603 1.943 . S
O596 Zn595 1.962 . S
O596 C601 1.254 . S
O597 Zn594 2.031 . S
O597 C601 1.269 . S
O598 Zn595 1.986 . S
O598 C605 1.262 . S
O599 Zn594 2.049 . S
O599 C607 1.260 . S
O600 Zn595 1.996 . S
O600 C607 1.257 . S
C601 O596 1.254 . S
C601 O597 1.269 . S
C602 O603 1.249 . S
C602 O604 1.270 . S
O603 Zn595 1.943 . S
O603 C602 1.249 . S
O604 Zn594 2.067 . S
O604 C602 1.270 . S
C605 O598 1.262 . S
C605 O606 1.232 . S
O606 C605 1.232 . S
C607 O599 1.260 . S
C607 O600 1.257 . S
H608 C626 0.951 . S
H609 C628 0.951 . S
H610 C630 0.950 . S
H611 C631 0.950 . S
H612 C633 0.950 . S
H613 C636 0.950 . S
H614 C637 0.950 . S
H615 C639 0.950 . S
H616 C640 0.950 . S
H617 C641 0.951 . S
H618 C643 0.951 . S
H619 C645 0.950 . S
H620 C646 0.950 . S
H621 C648 0.950 . S
H622 C651 0.950 . S
H623 C652 0.950 . S
H624 C654 0.950 . S
H625 C655 0.950 . S
C626 H608 0.951 . S
C626 C627 1.366 . S
C626 C628 1.388 . S
C627 C626 1.366 . S
C627 C631 1.385 . S
C628 H609 0.951 . S
C628 C626 1.388 . S
C628 C629 1.366 . S
C629 C628 1.366 . S
C629 C630 1.414 . S
C629 C632 1.499 . S
C630 H610 0.950 . S
C630 C629 1.414 . S
C630 C631 1.374 . S
C631 H611 0.950 . S
C631 C627 1.385 . S
C631 C630 1.374 . S
C632 C629 1.499 . S
C632 C633 1.373 . S
C632 C634 1.389 . S
C633 H612 0.950 . S
C633 C632 1.373 . S
C633 C649 1.377 . S
C634 C632 1.389 . S
C634 C635 1.524 . S
C634 C648 1.377 . S
C635 C634 1.524 . S
C635 C636 1.397 . S
C635 C640 1.363 . S
C636 H613 0.950 . S
C636 C635 1.397 . S
C636 C637 1.334 . S
C637 H614 0.950 . S
C637 C636 1.334 . S
C637 C638 1.287 . S
C638 C637 1.287 . S
C638 C639 1.524 . S
C638 H657 0.913 . S
C639 H615 0.950 . S
C639 C638 1.524 . S
C639 C640 1.415 . S
C640 H616 0.950 . S
C640 C635 1.363 . S
C640 C639 1.415 . S
C641 H617 0.951 . S
C641 C642 1.366 . S
C641 C643 1.388 . S
C642 C641 1.366 . S
C642 C646 1.385 . S
C643 H618 0.951 . S
C643 C641 1.388 . S
C643 C644 1.366 . S
C644 C643 1.366 . S
C644 C645 1.414 . S
C644 C647 1.499 . S
C645 H619 0.950 . S
C645 C644 1.414 . S
C645 C646 1.374 . S
C646 H620 0.950 . S
C646 C642 1.385 . S
C646 C645 1.374 . S
C647 C644 1.499 . S
C647 C648 1.373 . S
C647 C649 1.389 . S
C648 H621 0.950 . S
C648 C634 1.377 . S
C648 C647 1.373 . S
C649 C633 1.377 . S
C649 C647 1.389 . S
C649 C650 1.524 . S
C650 C649 1.524 . S
C650 C651 1.397 . S
C650 C655 1.363 . S
C651 H622 0.950 . S
C651 C650 1.397 . S
C651 C652 1.334 . S
C652 H623 0.950 . S
C652 C651 1.334 . S
C652 C653 1.287 . S
C653 C652 1.287 . S
C653 C654 1.524 . S
C653 H656 0.999 . S
C654 H624 0.950 . S
C654 C653 1.524 . S
C654 C655 1.415 . S
C655 H625 0.950 . S
C655 C650 1.363 . S
C655 C654 1.415 . S
H656 C653 0.999 . S
H657 C638 0.913 . S
H658 C676 0.951 . S
H659 C678 0.951 . S
H660 C680 0.950 . S
H661 C681 0.950 . S
H662 C683 0.950 . S
H663 C686 0.950 . S
H664 C687 0.950 . S
H665 C689 0.950 . S
H666 C690 0.950 . S
H667 C691 0.951 . S
H668 C693 0.951 . S
H669 C695 0.950 . S
H670 C696 0.950 . S
H671 C698 0.950 . S
H672 C701 0.950 . S
H673 C702 0.950 . S
H674 C704 0.950 . S
H675 C705 0.950 . S
C676 H658 0.951 . S
C676 C677 1.366 . S
C676 C678 1.388 . S
C677 C676 1.366 . S
C677 C681 1.385 . S
C678 H659 0.951 . S
C678 C676 1.388 . S
C678 C679 1.366 . S
C679 C678 1.366 . S
C679 C680 1.414 . S
C679 C682 1.499 . S
C680 H660 0.950 . S
C680 C679 1.414 . S
C680 C681 1.374 . S
C681 H661 0.950 . S
C681 C677 1.385 . S
C681 C680 1.374 . S
C682 C679 1.499 . S
C682 C683 1.373 . S
C682 C684 1.389 . S
C683 H662 0.950 . S
C683 C682 1.373 . S
C683 C699 1.377 . S
C684 C682 1.389 . S
C684 C685 1.524 . S
C684 C698 1.377 . S
C685 C684 1.524 . S
C685 C686 1.397 . S
C685 C690 1.363 . S
C686 H663 0.950 . S
C686 C685 1.397 . S
C686 C687 1.334 . S
C687 H664 0.950 . S
C687 C686 1.334 . S
C687 C688 1.287 . S
C688 C687 1.287 . S
C688 C689 1.524 . S
C688 H707 0.913 . S
C689 H665 0.950 . S
C689 C688 1.524 . S
C689 C690 1.415 . S
C690 H666 0.950 . S
C690 C685 1.363 . S
C690 C689 1.415 . S
C691 H667 0.951 . S
C691 C692 1.366 . S
C691 C693 1.388 . S
C692 C691 1.366 . S
C692 C696 1.385 . S
C693 H668 0.951 . S
C693 C691 1.388 . S
C693 C694 1.366 . S
C694 C693 1.366 . S
C694 C695 1.414 . S
C694 C697 1.499 . S
C695 H669 0.950 . S
C695 C694 1.414 . S
C695 C696 1.374 . S
C696 H670 0.950 . S
C696 C692 1.385 . S
C696 C695 1.374 . S
C697 C694 1.499 . S
C697 C698 1.373 . S
C697 C699 1.389 . S
C698 H671 0.950 . S
C698 C684 1.377 . S
C698 C697 1.373 . S
C699 C683 1.377 . S
C699 C697 1.389 . S
C699 C700 1.524 . S
C700 C699 1.524 . S
C700 C701 1.397 . S
C700 C705 1.363 . S
C701 H672 0.950 . S
C701 C700 1.397 . S
C701 C702 1.334 . S
C702 H673 0.950 . S
C702 C701 1.334 . S
C702 C703 1.287 . S
C703 C702 1.287 . S
C703 C704 1.524 . S
C703 H706 0.999 . S
C704 H674 0.950 . S
C704 C703 1.524 . S
C704 C705 1.415 . S
C705 H675 0.950 . S
C705 C700 1.363 . S
C705 C704 1.415 . S
H706 C703 0.999 . S
H707 C688 0.913 . S
H708 C726 0.951 . S
H709 C728 0.951 . S
H710 C730 0.950 . S
H711 C731 0.950 . S
H712 C733 0.950 . S
H713 C736 0.950 . S
H714 C737 0.950 . S
H715 C739 0.950 . S
H716 C740 0.950 . S
H717 C741 0.951 . S
H718 C743 0.951 . S
H719 C745 0.950 . S
H720 C746 0.950 . S
H721 C748 0.950 . S
H722 C751 0.950 . S
H723 C752 0.950 . S
H724 C754 0.950 . S
H725 C755 0.950 . S
C726 H708 0.951 . S
C726 C727 1.366 . S
C726 C728 1.388 . S
C727 C726 1.366 . S
C727 C731 1.385 . S
C728 H709 0.951 . S
C728 C726 1.388 . S
C728 C729 1.366 . S
C729 C728 1.366 . S
C729 C730 1.414 . S
C729 C732 1.499 . S
C730 H710 0.950 . S
C730 C729 1.414 . S
C730 C731 1.374 . S
C731 H711 0.950 . S
C731 C727 1.385 . S
C731 C730 1.374 . S
C732 C729 1.499 . S
C732 C733 1.373 . S
C732 C734 1.389 . S
C733 H712 0.950 . S
C733 C732 1.373 . S
C733 C749 1.377 . S
C734 C732 1.389 . S
C734 C735 1.524 . S
C734 C748 1.377 . S
C735 C734 1.524 . S
C735 C736 1.397 . S
C735 C740 1.363 . S
C736 H713 0.950 . S
C736 C735 1.397 . S
C736 C737 1.334 . S
C737 H714 0.950 . S
C737 C736 1.334 . S
C737 C738 1.287 . S
C738 C737 1.287 . S
C738 C739 1.524 . S
C738 H757 0.913 . S
C739 H715 0.950 . S
C739 C738 1.524 . S
C739 C740 1.415 . S
C740 H716 0.950 . S
C740 C735 1.363 . S
C740 C739 1.415 . S
C741 H717 0.951 . S
C741 C742 1.366 . S
C741 C743 1.388 . S
C742 C741 1.366 . S
C742 C746 1.385 . S
C743 H718 0.951 . S
C743 C741 1.388 . S
C743 C744 1.366 . S
C744 C743 1.366 . S
C744 C745 1.414 . S
C744 C747 1.499 . S
C745 H719 0.950 . S
C745 C744 1.414 . S
C745 C746 1.374 . S
C746 H720 0.950 . S
C746 C742 1.385 . S
C746 C745 1.374 . S
C747 C744 1.499 . S
C747 C748 1.373 . S
C747 C749 1.389 . S
C748 H721 0.950 . S
C748 C734 1.377 . S
C748 C747 1.373 . S
C749 C733 1.377 . S
C749 C747 1.389 . S
C749 C750 1.524 . S
C750 C749 1.524 . S
C750 C751 1.397 . S
C750 C755 1.363 . S
C751 H722 0.950 . S
C751 C750 1.397 . S
C751 C752 1.334 . S
C752 H723 0.950 . S
C752 C751 1.334 . S
C752 C753 1.287 . S
C753 C752 1.287 . S
C753 C754 1.524 . S
C753 H756 0.999 . S
C754 H724 0.950 . S
C754 C753 1.524 . S
C754 C755 1.415 . S
C755 H725 0.950 . S
C755 C750 1.363 . S
C755 C754 1.415 . S
H756 C753 0.999 . S
H757 C738 0.913 . S
H758 C776 0.951 . S
H759 C778 0.951 . S
H760 C780 0.950 . S
H761 C781 0.950 . S
H762 C783 0.950 . S
H763 C786 0.950 . S
H764 C787 0.950 . S
H765 C789 0.950 . S
H766 C790 0.950 . S
H767 C791 0.951 . S
H768 C793 0.951 . S
H769 C795 0.950 . S
H770 C796 0.950 . S
H771 C798 0.950 . S
H772 C801 0.950 . S
H773 C802 0.950 . S
H774 C804 0.950 . S
H775 C805 0.950 1_554 S
C776 H758 0.951 . S
C776 C777 1.366 . S
C776 C778 1.388 . S
C777 C776 1.366 . S
C777 C781 1.385 . S
C778 H759 0.951 . S
C778 C776 1.388 . S
C778 C779 1.366 . S
C779 C778 1.366 . S
C779 C780 1.414 . S
C779 C782 1.499 . S
C780 H760 0.950 . S
C780 C779 1.414 . S
C780 C781 1.374 . S
C781 H761 0.950 . S
C781 C777 1.385 . S
C781 C780 1.374 . S
C782 C779 1.499 . S
C782 C783 1.373 . S
C782 C784 1.389 . S
C783 H762 0.950 . S
C783 C782 1.373 . S
C783 C799 1.377 . S
C784 C782 1.389 . S
C784 C785 1.524 . S
C784 C798 1.377 . S
C785 C784 1.524 . S
C785 C786 1.397 . S
C785 C790 1.363 . S
C786 H763 0.950 . S
C786 C785 1.397 . S
C786 C787 1.334 . S
C787 H764 0.950 . S
C787 C786 1.334 . S
C787 C788 1.287 . S
C788 C787 1.287 . S
C788 C789 1.524 . S
C788 H807 0.913 . S
C789 H765 0.950 . S
C789 C788 1.524 . S
C789 C790 1.415 . S
C790 H766 0.950 . S
C790 C785 1.363 . S
C790 C789 1.415 . S
C791 H767 0.951 . S
C791 C792 1.366 . S
C791 C793 1.388 . S
C792 C791 1.366 . S
C792 C796 1.385 . S
C793 H768 0.951 . S
C793 C791 1.388 . S
C793 C794 1.366 . S
C794 C793 1.366 . S
C794 C795 1.414 . S
C794 C797 1.499 . S
C795 H769 0.950 . S
C795 C794 1.414 . S
C795 C796 1.374 . S
C796 H770 0.950 . S
C796 C792 1.385 . S
C796 C795 1.374 . S
C797 C794 1.499 . S
C797 C798 1.373 . S
C797 C799 1.389 . S
C798 H771 0.950 . S
C798 C784 1.377 . S
C798 C797 1.373 . S
C799 C783 1.377 . S
C799 C797 1.389 . S
C799 C800 1.505 1_554 S
C800 C799 1.505 1_556 S
C800 C801 1.411 . S
C800 C805 1.368 . S
C801 H772 0.950 . S
C801 C800 1.411 . S
C801 C802 1.334 . S
C802 H773 0.950 . S
C802 C801 1.334 . S
C802 C803 1.287 . S
C803 C802 1.287 . S
C803 C804 1.524 . S
C803 H806 0.999 . S
C804 H774 0.950 . S
C804 C803 1.524 . S
C804 C805 1.415 . S
C805 H775 0.950 1_556 S
C805 C800 1.368 . S
C805 C804 1.415 . S
H806 C803 0.999 . S
H807 C788 0.913 . S
H808 C826 0.951 . S
H809 C828 0.951 . S
H810 C830 0.950 . S
H811 C831 0.950 . S
H812 C833 0.950 . S
H813 C836 0.950 . S
H814 C837 0.950 . S
H815 C839 0.950 . S
H816 C840 0.950 . S
H817 C841 0.938 1_556 S
H818 C843 0.928 1_556 S
H819 C845 0.950 . S
H820 C846 0.950 . S
H821 C848 0.950 . S
H822 C851 0.950 . S
H823 C852 0.950 . S
H824 C854 0.950 . S
H825 C855 0.950 . S
C826 H808 0.951 . S
C826 C827 1.366 1_554 S
C826 C828 1.388 . S
C827 C826 1.366 1_556 S
C827 C831 1.385 . S
C828 H809 0.951 . S
C828 C826 1.388 . S
C828 C829 1.371 . S
C829 C828 1.371 . S
C829 C830 1.407 1_554 S
C829 C832 1.500 . S
C830 H810 0.950 . S
C830 C829 1.407 1_556 S
C830 C831 1.374 . S
C831 H811 0.950 . S
C831 C827 1.385 . S
C831 C830 1.374 . S
C832 C829 1.500 . S
C832 C833 1.373 1_554 S
C832 C834 1.389 . S
C833 H812 0.950 . S
C833 C832 1.373 1_556 S
C833 C849 1.377 . S
C834 C832 1.389 . S
C834 C835 1.524 . S
C834 C848 1.377 . S
C835 C834 1.524 . S
C835 C836 1.397 . S
C835 C840 1.363 . S
C836 H813 0.950 . S
C836 C835 1.397 . S
C836 C837 1.334 . S
C837 H814 0.950 . S
C837 C836 1.334 . S
C837 C838 1.287 . S
C838 C837 1.287 . S
C838 C839 1.524 . S
C838 H857 0.913 . S
C839 H815 0.950 . S
C839 C838 1.524 . S
C839 C840 1.415 . S
C840 H816 0.950 . S
C840 C835 1.363 . S
C840 C839 1.415 . S
C841 H817 0.938 1_554 S
C841 C842 1.366 . S
C841 C843 1.394 . S
C842 C841 1.366 . S
C842 C846 1.385 . S
C843 H818 0.928 1_554 S
C843 C841 1.394 . S
C843 C844 1.386 . S
C844 C843 1.386 . S
C844 C845 1.414 . S
C844 C847 1.499 . S
C845 H819 0.950 . S
C845 C844 1.414 . S
C845 C846 1.374 . S
C846 H820 0.950 . S
C846 C842 1.385 . S
C846 C845 1.374 . S
C847 C844 1.499 . S
C847 C848 1.373 . S
C847 C849 1.389 1_554 S
C848 H821 0.950 . S
C848 C834 1.377 . S
C848 C847 1.373 . S
C849 C833 1.377 . S
C849 C847 1.389 1_556 S
C849 C850 1.524 . S
C850 C849 1.524 . S
C850 C851 1.397 . S
C850 C855 1.363 . S
C851 H822 0.950 . S
C851 C850 1.397 . S
C851 C852 1.334 . S
C852 H823 0.950 . S
C852 C851 1.334 . S
C852 C853 1.287 . S
C853 C852 1.287 . S
C853 C854 1.524 . S
C853 H856 0.999 . S
C854 H824 0.950 . S
C854 C853 1.524 . S
C854 C855 1.415 . S
C855 H825 0.950 . S
C855 C850 1.363 . S
C855 C854 1.415 . S
H856 C853 0.999 . S
H857 C838 0.913 . S
H858 C876 0.951 . S
H859 C878 0.951 . S
H860 C880 0.950 . S
H861 C881 0.950 . S
H862 C883 0.950 . S
H863 C886 0.950 . S
H864 C887 0.950 . S
H865 C889 0.950 . S
H866 C890 0.950 . S
H867 C891 0.951 . S
H868 C893 0.951 . S
H869 C895 0.950 . S
H870 C896 0.950 . S
H871 C898 0.950 . S
H872 C901 0.950 . S
H873 C902 0.950 . S
H874 C904 0.950 . S
H875 C905 0.950 . S
C876 H858 0.951 . S
C876 C877 1.366 . S
C876 C878 1.388 . S
C877 C876 1.366 . S
C877 C881 1.385 . S
C878 H859 0.951 . S
C878 C876 1.388 . S
C878 C879 1.366 . S
C879 C878 1.366 . S
C879 C880 1.414 . S
C879 C882 1.499 . S
C880 H860 0.950 . S
C880 C879 1.414 . S
C880 C881 1.374 . S
C881 H861 0.950 . S
C881 C877 1.385 . S
C881 C880 1.374 . S
C882 C879 1.499 . S
C882 C883 1.373 . S
C882 C884 1.389 . S
C883 H862 0.950 . S
C883 C882 1.373 . S
C883 C899 1.377 . S
C884 C882 1.389 . S
C884 C885 1.524 . S
C884 C898 1.377 . S
C885 C884 1.524 . S
C885 C886 1.397 . S
C885 C890 1.363 . S
C886 H863 0.950 . S
C886 C885 1.397 . S
C886 C887 1.334 . S
C887 H864 0.950 . S
C887 C886 1.334 . S
C887 C888 1.287 . S
C888 C887 1.287 . S
C888 C889 1.524 . S
C888 H907 0.913 . S
C889 H865 0.950 . S
C889 C888 1.524 . S
C889 C890 1.415 . S
C890 H866 0.950 . S
C890 C885 1.363 . S
C890 C889 1.415 . S
C891 H867 0.951 . S
C891 C892 1.366 . S
C891 C893 1.388 . S
C892 C891 1.366 . S
C892 C896 1.385 . S
C893 H868 0.951 . S
C893 C891 1.388 . S
C893 C894 1.366 . S
C894 C893 1.366 . S
C894 C895 1.414 . S
C894 C897 1.499 . S
C895 H869 0.950 . S
C895 C894 1.414 . S
C895 C896 1.374 . S
C896 H870 0.950 . S
C896 C892 1.385 . S
C896 C895 1.374 . S
C897 C894 1.499 . S
C897 C898 1.373 . S
C897 C899 1.389 . S
C898 H871 0.950 . S
C898 C884 1.377 . S
C898 C897 1.373 . S
C899 C883 1.377 . S
C899 C897 1.389 . S
C899 C900 1.524 . S
C900 C899 1.524 . S
C900 C901 1.397 . S
C900 C905 1.363 . S
C901 H872 0.950 . S
C901 C900 1.397 . S
C901 C902 1.334 . S
C902 H873 0.950 . S
C902 C901 1.334 . S
C902 C903 1.287 . S
C903 C902 1.287 . S
C903 C904 1.524 . S
C903 H906 0.999 . S
C904 H874 0.950 . S
C904 C903 1.524 . S
C904 C905 1.415 . S
C905 H875 0.950 . S
C905 C900 1.363 . S
C905 C904 1.415 . S
H906 C903 0.999 . S
H907 C888 0.913 . S
H908 C926 0.951 . S
H909 C928 0.951 . S
H910 C930 0.950 . S
H911 C931 0.950 . S
H912 C933 0.950 . S
H913 C936 0.950 . S
H914 C937 0.950 . S
H915 C939 0.950 . S
H916 C940 0.950 . S
H917 C941 0.951 . S
H918 C943 0.951 . S
H919 C945 0.950 . S
H920 C946 0.950 . S
H921 C948 0.950 . S
H922 C951 0.950 . S
H923 C952 0.950 . S
H924 C954 0.950 . S
H925 C955 0.950 . S
C926 H908 0.951 . S
C926 C927 1.366 . S
C926 C928 1.388 . S
C927 C926 1.366 . S
C927 C931 1.385 . S
C928 H909 0.951 . S
C928 C926 1.388 . S
C928 C929 1.366 . S
C929 C928 1.366 . S
C929 C930 1.414 . S
C929 C932 1.499 . S
C930 H910 0.950 . S
C930 C929 1.414 . S
C930 C931 1.374 . S
C931 H911 0.950 . S
C931 C927 1.385 . S
C931 C930 1.374 . S
C932 C929 1.499 . S
C932 C933 1.373 . S
C932 C934 1.389 . S
C933 H912 0.950 . S
C933 C932 1.373 . S
C933 C949 1.377 . S
C934 C932 1.389 . S
C934 C935 1.524 . S
C934 C948 1.377 . S
C935 C934 1.524 . S
C935 C936 1.397 . S
C935 C940 1.363 . S
C936 H913 0.950 . S
C936 C935 1.397 . S
C936 C937 1.334 . S
C937 H914 0.950 . S
C937 C936 1.334 . S
C937 C938 1.287 . S
C938 C937 1.287 . S
C938 C939 1.524 . S
C938 H957 0.913 . S
C939 H915 0.950 . S
C939 C938 1.524 . S
C939 C940 1.415 . S
C940 H916 0.950 . S
C940 C935 1.363 . S
C940 C939 1.415 . S
C941 H917 0.951 . S
C941 C942 1.366 . S
C941 C943 1.388 . S
C942 C941 1.366 . S
C942 C946 1.385 . S
C943 H918 0.951 . S
C943 C941 1.388 . S
C943 C944 1.366 . S
C944 C943 1.366 . S
C944 C945 1.414 . S
C944 C947 1.499 . S
C945 H919 0.950 . S
C945 C944 1.414 . S
C945 C946 1.374 . S
C946 H920 0.950 . S
C946 C942 1.385 . S
C946 C945 1.374 . S
C947 C944 1.499 . S
C947 C948 1.373 . S
C947 C949 1.389 . S
C948 H921 0.950 . S
C948 C934 1.377 . S
C948 C947 1.373 . S
C949 C933 1.377 . S
C949 C947 1.389 . S
C949 C950 1.524 . S
C950 C949 1.524 . S
C950 C951 1.397 . S
C950 C955 1.363 . S
C951 H922 0.950 . S
C951 C950 1.397 . S
C951 C952 1.334 . S
C952 H923 0.950 . S
C952 C951 1.334 . S
C952 C953 1.287 . S
C953 C952 1.287 . S
C953 C954 1.524 . S
C953 H956 0.999 . S
C954 H924 0.950 . S
C954 C953 1.524 . S
C954 C955 1.415 . S
C955 H925 0.950 . S
C955 C950 1.363 . S
C955 C954 1.415 . S
H956 C953 0.999 . S
H957 C938 0.913 . S
H958 C976 0.951 . S
H959 C978 0.951 . S
H960 C980 0.950 . S
H961 C981 0.950 . S
H962 C983 0.950 . S
H963 C986 0.950 . S
H964 C987 0.950 . S
H965 C989 0.950 . S
H966 C990 0.950 . S
H967 C991 0.951 . S
H968 C993 0.951 . S
H969 C995 0.950 . S
H970 C996 0.950 . S
H971 C998 0.950 . S
H972 C1001 0.950 . S
H973 C1002 0.950 . S
H974 C1004 0.950 . S
H975 C1005 0.950 . S
C976 H958 0.951 . S
C976 C977 1.366 . S
C976 C978 1.388 . S
C977 C976 1.366 . S
C977 C981 1.385 . S
C978 H959 0.951 . S
C978 C976 1.388 . S
C978 C979 1.366 . S
C979 C978 1.366 . S
C979 C980 1.414 . S
C979 C982 1.499 . S
C980 H960 0.950 . S
C980 C979 1.414 . S
C980 C981 1.374 . S
C981 H961 0.950 . S
C981 C977 1.385 . S
C981 C980 1.374 . S
C982 C979 1.499 . S
C982 C983 1.373 . S
C982 C984 1.389 . S
C983 H962 0.950 . S
C983 C982 1.373 . S
C983 C999 1.377 . S
C984 C982 1.389 . S
C984 C985 1.524 . S
C984 C998 1.377 . S
C985 C984 1.524 . S
C985 C986 1.397 . S
C985 C990 1.363 . S
C986 H963 0.950 . S
C986 C985 1.397 . S
C986 C987 1.334 . S
C987 H964 0.950 . S
C987 C986 1.334 . S
C987 C988 1.287 . S
C988 C987 1.287 . S
C988 C989 1.524 . S
C988 H1007 0.913 . S
C989 H965 0.950 . S
C989 C988 1.524 . S
C989 C990 1.415 . S
C990 H966 0.950 . S
C990 C985 1.363 . S
C990 C989 1.415 . S
C991 H967 0.951 . S
C991 C992 1.366 . S
C991 C993 1.388 . S
C992 C991 1.366 . S
C992 C996 1.385 . S
C993 H968 0.951 . S
C993 C991 1.388 . S
C993 C994 1.366 . S
C994 C993 1.366 . S
C994 C995 1.414 . S
C994 C997 1.499 . S
C995 H969 0.950 . S
C995 C994 1.414 . S
C995 C996 1.374 . S
C996 H970 0.950 . S
C996 C992 1.385 . S
C996 C995 1.374 . S
C997 C994 1.499 . S
C997 C998 1.373 . S
C997 C999 1.389 . S
C998 H971 0.950 . S
C998 C984 1.377 . S
C998 C997 1.373 . S
C999 C983 1.377 . S
C999 C997 1.389 . S
C999 C1000 1.524 . S
C1000 C999 1.524 . S
C1000 C1001 1.397 . S
C1000 C1005 1.363 . S
C1001 H972 0.950 . S
C1001 C1000 1.397 . S
C1001 C1002 1.334 . S
C1002 H973 0.950 . S
C1002 C1001 1.334 . S
C1002 C1003 1.287 . S
C1003 C1002 1.287 . S
C1003 C1004 1.524 . S
C1003 H1006 0.999 . S
C1004 H974 0.950 . S
C1004 C1003 1.524 . S
C1004 C1005 1.415 . S
C1005 H975 0.950 . S
C1005 C1000 1.363 . S
C1005 C1004 1.415 . S
H1006 C1003 0.999 . S
H1007 C988 0.913 . S
H1008 C1026 0.951 . S
H1009 C1028 0.951 . S
H1010 C1030 0.950 . S
H1011 C1031 0.950 . S
H1012 C1033 0.950 . S
H1013 C1036 0.950 . S
H1014 C1037 0.950 . S
H1015 C1039 0.950 . S
H1016 C1040 0.950 . S
H1017 C1041 0.951 . S
H1018 C1043 0.951 . S
H1019 C1045 0.950 . S
H1020 C1046 0.950 . S
H1021 C1048 0.950 . S
H1022 C1051 0.950 . S
H1023 C1052 0.950 . S
H1024 C1054 0.950 . S
H1025 C1055 0.950 . S
C1026 H1008 0.951 . S
C1026 C1027 1.366 . S
C1026 C1028 1.388 . S
C1027 C1026 1.366 . S
C1027 C1031 1.385 . S
C1028 H1009 0.951 . S
C1028 C1026 1.388 . S
C1028 C1029 1.366 . S
C1029 C1028 1.366 . S
C1029 C1030 1.414 . S
C1029 C1032 1.499 . S
C1030 H1010 0.950 . S
C1030 C1029 1.414 . S
C1030 C1031 1.374 . S
C1031 H1011 0.950 . S
C1031 C1027 1.385 . S
C1031 C1030 1.374 . S
C1032 C1029 1.499 . S
C1032 C1033 1.373 . S
C1032 C1034 1.389 . S
C1033 H1012 0.950 . S
C1033 C1032 1.373 . S
C1033 C1049 1.377 . S
C1034 C1032 1.389 . S
C1034 C1035 1.524 . S
C1034 C1048 1.377 . S
C1035 C1034 1.524 . S
C1035 C1036 1.397 . S
C1035 C1040 1.363 . S
C1036 H1013 0.950 . S
C1036 C1035 1.397 . S
C1036 C1037 1.334 . S
C1037 H1014 0.950 . S
C1037 C1036 1.334 . S
C1037 C1038 1.287 . S
C1038 C1037 1.287 . S
C1038 C1039 1.524 . S
C1038 H1057 0.913 . S
C1039 H1015 0.950 . S
C1039 C1038 1.524 . S
C1039 C1040 1.415 . S
C1040 H1016 0.950 . S
C1040 C1035 1.363 . S
C1040 C1039 1.415 . S
C1041 H1017 0.951 . S
C1041 C1042 1.366 . S
C1041 C1043 1.388 . S
C1042 C1041 1.366 . S
C1042 C1046 1.385 . S
C1043 H1018 0.951 . S
C1043 C1041 1.388 . S
C1043 C1044 1.366 . S
C1044 C1043 1.366 . S
C1044 C1045 1.414 . S
C1044 C1047 1.499 . S
C1045 H1019 0.950 . S
C1045 C1044 1.414 . S
C1045 C1046 1.374 . S
C1046 H1020 0.950 . S
C1046 C1042 1.385 . S
C1046 C1045 1.374 . S
C1047 C1044 1.499 . S
C1047 C1048 1.373 . S
C1047 C1049 1.389 . S
C1048 H1021 0.950 . S
C1048 C1034 1.377 . S
C1048 C1047 1.373 . S
C1049 C1033 1.377 . S
C1049 C1047 1.389 . S
C1049 C1050 1.524 . S
C1050 C1049 1.524 . S
C1050 C1051 1.397 . S
C1050 C1055 1.363 . S
C1051 H1022 0.950 . S
C1051 C1050 1.397 . S
C1051 C1052 1.334 . S
C1052 H1023 0.950 . S
C1052 C1051 1.334 . S
C1052 C1053 1.287 . S
C1053 C1052 1.287 . S
C1053 C1054 1.524 . S
C1053 H1056 0.999 . S
C1054 H1024 0.950 . S
C1054 C1053 1.524 . S
C1054 C1055 1.415 . S
C1055 H1025 0.950 . S
C1055 C1050 1.363 . S
C1055 C1054 1.415 . S
H1056 C1053 0.999 . S
H1057 C1038 0.913 . S
H1058 C1076 0.951 . S
H1059 C1078 0.951 . S
H1060 C1080 0.950 . S
H1061 C1081 0.950 . S
H1062 C1083 0.950 . S
H1063 C1086 0.950 . S
H1064 C1087 0.950 . S
H1065 C1089 0.950 . S
H1066 C1090 0.950 . S
H1067 C1091 0.951 . S
H1068 C1093 0.951 . S
H1069 C1095 0.950 1_556 S
H1070 C1096 0.950 1_556 S
H1071 C1098 0.950 . S
H1072 C1101 0.989 . S
H1073 C1102 0.950 . S
H1074 C1104 0.950 . S
H1075 C1105 0.950 . S
C1076 H1058 0.951 . S
C1076 C1077 1.366 . S
C1076 C1078 1.388 . S
C1077 C1076 1.366 . S
C1077 C1081 1.385 . S
C1078 H1059 0.951 . S
C1078 C1076 1.388 . S
C1078 C1079 1.366 . S
C1079 C1078 1.366 . S
C1079 C1080 1.414 . S
C1079 C1082 1.499 . S
C1080 H1060 0.950 . S
C1080 C1079 1.414 . S
C1080 C1081 1.374 . S
C1081 H1061 0.950 . S
C1081 C1077 1.385 . S
C1081 C1080 1.374 . S
C1082 C1079 1.499 . S
C1082 C1083 1.373 . S
C1082 C1084 1.389 . S
C1083 H1062 0.950 . S
C1083 C1082 1.373 . S
C1083 C1099 1.377 . S
C1084 C1082 1.389 . S
C1084 C1085 1.524 . S
C1084 C1098 1.377 . S
C1085 C1084 1.524 . S
C1085 C1086 1.397 . S
C1085 C1090 1.363 . S
C1086 H1063 0.950 . S
C1086 C1085 1.397 . S
C1086 C1087 1.334 . S
C1087 H1064 0.950 . S
C1087 C1086 1.334 . S
C1087 C1088 1.287 . S
C1088 C1087 1.287 . S
C1088 C1089 1.524 . S
C1088 H1107 0.913 . S
C1089 H1065 0.950 . S
C1089 C1088 1.524 . S
C1089 C1090 1.415 . S
C1090 H1066 0.950 . S
C1090 C1085 1.363 . S
C1090 C1089 1.415 . S
C1091 H1067 0.951 . S
C1091 C1092 1.366 . S
C1091 C1093 1.388 . S
C1092 C1091 1.366 . S
C1092 C1096 1.385 . S
C1093 H1068 0.951 . S
C1093 C1091 1.388 . S
C1093 C1094 1.366 . S
C1094 C1093 1.366 . S
C1094 C1095 1.414 . S
C1094 C1097 1.499 . S
C1095 H1069 0.950 1_554 S
C1095 C1094 1.414 . S
C1095 C1096 1.374 . S
C1096 H1070 0.950 1_554 S
C1096 C1092 1.385 . S
C1096 C1095 1.374 . S
C1097 C1094 1.499 . S
C1097 C1098 1.373 . S
C1097 C1099 1.389 . S
C1098 H1071 0.950 . S
C1098 C1084 1.377 . S
C1098 C1097 1.373 . S
C1099 C1083 1.377 . S
C1099 C1097 1.389 . S
C1099 C1100 1.524 . S
C1100 C1099 1.524 . S
C1100 C1101 1.340 1_554 S
C1100 C1105 1.363 . S
C1101 H1072 0.989 . S
C1101 C1100 1.340 1_556 S
C1101 C1102 1.354 . S
C1102 H1073 0.950 . S
C1102 C1101 1.354 . S
C1102 C1103 1.287 1_556 S
C1103 C1102 1.287 1_554 S
C1103 C1104 1.524 . S
C1103 H1106 1.010 . S
C1104 H1074 0.950 . S
C1104 C1103 1.524 . S
C1104 C1105 1.415 . S
C1105 H1075 0.950 . S
C1105 C1100 1.363 . S
C1105 C1104 1.415 . S
H1106 C1103 1.010 . S
H1107 C1088 0.913 . S
H1108 C1126 0.951 . S
H1109 C1128 0.951 . S
H1110 C1130 0.950 . S
H1111 C1131 0.950 . S
H1112 C1133 0.950 . S
H1113 C1136 0.950 . S
H1114 C1137 0.950 . S
H1115 C1139 0.950 . S
H1116 C1140 0.950 . S
H1117 C1141 0.951 . S
H1118 C1143 0.951 . S
H1119 C1145 0.950 . S
H1120 C1146 0.950 . S
H1121 C1148 0.950 . S
H1122 C1151 0.950 . S
H1123 C1152 0.950 . S
H1124 C1154 0.950 . S
H1125 C1155 0.950 . S
C1126 H1108 0.951 . S
C1126 C1127 1.366 . S
C1126 C1128 1.388 . S
C1127 C1126 1.366 . S
C1127 C1131 1.385 . S
C1128 H1109 0.951 . S
C1128 C1126 1.388 . S
C1128 C1129 1.366 . S
C1129 C1128 1.366 . S
C1129 C1130 1.414 . S
C1129 C1132 1.499 . S
C1130 H1110 0.950 . S
C1130 C1129 1.414 . S
C1130 C1131 1.374 . S
C1131 H1111 0.950 . S
C1131 C1127 1.385 . S
C1131 C1130 1.374 . S
C1132 C1129 1.499 . S
C1132 C1133 1.373 . S
C1132 C1134 1.389 . S
C1133 H1112 0.950 . S
C1133 C1132 1.373 . S
C1133 C1149 1.377 . S
C1134 C1132 1.389 . S
C1134 C1135 1.524 . S
C1134 C1148 1.377 . S
C1135 C1134 1.524 . S
C1135 C1136 1.397 . S
C1135 C1140 1.363 . S
C1136 H1113 0.950 . S
C1136 C1135 1.397 . S
C1136 C1137 1.334 . S
C1137 H1114 0.950 . S
C1137 C1136 1.334 . S
C1137 C1138 1.287 . S
C1138 C1137 1.287 . S
C1138 C1139 1.524 . S
C1138 H1157 0.913 . S
C1139 H1115 0.950 . S
C1139 C1138 1.524 . S
C1139 C1140 1.415 . S
C1140 H1116 0.950 . S
C1140 C1135 1.363 . S
C1140 C1139 1.415 . S
C1141 H1117 0.951 . S
C1141 C1142 1.366 . S
C1141 C1143 1.388 . S
C1142 C1141 1.366 . S
C1142 C1146 1.385 . S
C1143 H1118 0.951 . S
C1143 C1141 1.388 . S
C1143 C1144 1.366 . S
C1144 C1143 1.366 . S
C1144 C1145 1.414 . S
C1144 C1147 1.499 . S
C1145 H1119 0.950 . S
C1145 C1144 1.414 . S
C1145 C1146 1.374 . S
C1146 H1120 0.950 . S
C1146 C1142 1.385 . S
C1146 C1145 1.374 . S
C1147 C1144 1.499 . S
C1147 C1148 1.373 . S
C1147 C1149 1.389 . S
C1148 H1121 0.950 . S
C1148 C1134 1.377 . S
C1148 C1147 1.373 . S
C1149 C1133 1.377 . S
C1149 C1147 1.389 . S
C1149 C1150 1.524 . S
C1150 C1149 1.524 . S
C1150 C1151 1.397 . S
C1150 C1155 1.363 . S
C1151 H1122 0.950 . S
C1151 C1150 1.397 . S
C1151 C1152 1.334 . S
C1152 H1123 0.950 . S
C1152 C1151 1.334 . S
C1152 C1153 1.287 . S
C1153 C1152 1.287 . S
C1153 C1154 1.524 . S
C1153 H1156 0.999 . S
C1154 H1124 0.950 . S
C1154 C1153 1.524 . S
C1154 C1155 1.415 . S
C1155 H1125 0.950 . S
C1155 C1150 1.363 . S
C1155 C1154 1.415 . S
H1156 C1153 0.999 . S
H1157 C1138 0.913 . S
H1158 C1176 0.951 . S
H1159 C1178 0.951 . S
H1160 C1180 0.950 . S
H1161 C1181 0.950 . S
H1162 C1183 0.950 . S
H1163 C1186 0.950 . S
H1164 C1187 0.950 . S
H1165 C1189 0.950 . S
H1166 C1190 0.950 . S
H1167 C1191 0.951 . S
H1168 C1193 0.951 . S
H1169 C1195 0.950 . S
H1170 C1196 0.950 . S
H1171 C1198 0.950 . S
H1172 C1201 0.950 . S
H1173 C1202 0.950 . S
H1174 C1204 0.950 . S
H1175 C1205 0.950 . S
C1176 H1158 0.951 . S
C1176 C1177 1.366 . S
C1176 C1178 1.388 . S
C1177 C1176 1.366 . S
C1177 C1181 1.385 . S
C1178 H1159 0.951 . S
C1178 C1176 1.388 . S
C1178 C1179 1.366 . S
C1179 C1178 1.366 . S
C1179 C1180 1.414 . S
C1179 C1182 1.499 . S
C1180 H1160 0.950 . S
C1180 C1179 1.414 . S
C1180 C1181 1.374 . S
C1181 H1161 0.950 . S
C1181 C1177 1.385 . S
C1181 C1180 1.374 . S
C1182 C1179 1.499 . S
C1182 C1183 1.373 . S
C1182 C1184 1.389 . S
C1183 H1162 0.950 . S
C1183 C1182 1.373 . S
C1183 C1199 1.377 . S
C1184 C1182 1.389 . S
C1184 C1185 1.524 . S
C1184 C1198 1.377 . S
C1185 C1184 1.524 . S
C1185 C1186 1.397 . S
C1185 C1190 1.363 . S
C1186 H1163 0.950 . S
C1186 C1185 1.397 . S
C1186 C1187 1.334 . S
C1187 H1164 0.950 . S
C1187 C1186 1.334 . S
C1187 C1188 1.287 . S
C1188 C1187 1.287 . S
C1188 C1189 1.524 . S
C1188 H1207 0.913 . S
C1189 H1165 0.950 . S
C1189 C1188 1.524 . S
C1189 C1190 1.415 . S
C1190 H1166 0.950 . S
C1190 C1185 1.363 . S
C1190 C1189 1.415 . S
C1191 H1167 0.951 . S
C1191 C1192 1.366 . S
C1191 C1193 1.388 . S
C1192 C1191 1.366 . S
C1192 C1196 1.385 . S
C1193 H1168 0.951 . S
C1193 C1191 1.388 . S
C1193 C1194 1.366 . S
C1194 C1193 1.366 . S
C1194 C1195 1.414 . S
C1194 C1197 1.499 . S
C1195 H1169 0.950 . S
C1195 C1194 1.414 . S
C1195 C1196 1.374 . S
C1196 H1170 0.950 . S
C1196 C1192 1.385 . S
C1196 C1195 1.374 . S
C1197 C1194 1.499 . S
C1197 C1198 1.373 . S
C1197 C1199 1.389 . S
C1198 H1171 0.950 . S
C1198 C1184 1.377 . S
C1198 C1197 1.373 . S
C1199 C1183 1.377 . S
C1199 C1197 1.389 . S
C1199 C1200 1.524 . S
C1200 C1199 1.524 . S
C1200 C1201 1.397 . S
C1200 C1205 1.363 . S
C1201 H1172 0.950 . S
C1201 C1200 1.397 . S
C1201 C1202 1.334 . S
C1202 H1173 0.950 . S
C1202 C1201 1.334 . S
C1202 C1203 1.287 . S
C1203 C1202 1.287 . S
C1203 C1204 1.524 . S
C1203 H1206 0.999 . S
C1204 H1174 0.950 . S
C1204 C1203 1.524 . S
C1204 C1205 1.415 . S
C1205 H1175 0.950 . S
C1205 C1200 1.363 . S
C1205 C1204 1.415 . S
H1206 C1203 0.999 . S
H1207 C1188 0.913 . S
H1208 C1226 0.951 . S
H1209 C1228 0.951 . S
H1210 C1230 0.950 . S
H1211 C1231 0.950 . S
H1212 C1233 0.950 . S
H1213 C1236 0.950 . S
H1214 C1237 0.950 . S
H1215 C1239 0.950 . S
H1216 C1240 0.950 . S
H1217 C1241 0.951 . S
H1218 C1243 0.951 . S
H1219 C1245 0.950 . S
H1220 C1246 0.950 . S
H1221 C1248 0.950 . S
H1222 C1251 0.950 . S
H1223 C1252 0.950 . S
H1224 C1254 0.950 . S
H1225 C1255 0.950 . S
C1226 H1208 0.951 . S
C1226 C1227 1.366 . S
C1226 C1228 1.388 . S
C1227 C1226 1.366 . S
C1227 C1231 1.385 . S
C1228 H1209 0.951 . S
C1228 C1226 1.388 . S
C1228 C1229 1.366 . S
C1229 C1228 1.366 . S
C1229 C1230 1.414 . S
C1229 C1232 1.499 . S
C1230 H1210 0.950 . S
C1230 C1229 1.414 . S
C1230 C1231 1.374 . S
C1231 H1211 0.950 . S
C1231 C1227 1.385 . S
C1231 C1230 1.374 . S
C1232 C1229 1.499 . S
C1232 C1233 1.373 . S
C1232 C1234 1.389 . S
C1233 H1212 0.950 . S
C1233 C1232 1.373 . S
C1233 C1249 1.377 . S
C1234 C1232 1.389 . S
C1234 C1235 1.524 . S
C1234 C1248 1.377 . S
C1235 C1234 1.524 . S
C1235 C1236 1.397 . S
C1235 C1240 1.363 . S
C1236 H1213 0.950 . S
C1236 C1235 1.397 . S
C1236 C1237 1.334 . S
C1237 H1214 0.950 . S
C1237 C1236 1.334 . S
C1237 C1238 1.287 . S
C1238 C1237 1.287 . S
C1238 C1239 1.524 . S
C1238 H1257 0.913 . S
C1239 H1215 0.950 . S
C1239 C1238 1.524 . S
C1239 C1240 1.415 . S
C1240 H1216 0.950 . S
C1240 C1235 1.363 . S
C1240 C1239 1.415 . S
C1241 H1217 0.951 . S
C1241 C1242 1.366 . S
C1241 C1243 1.388 . S
C1242 C1241 1.366 . S
C1242 C1246 1.385 . S
C1243 H1218 0.951 . S
C1243 C1241 1.388 . S
C1243 C1244 1.366 . S
C1244 C1243 1.366 . S
C1244 C1245 1.414 . S
C1244 C1247 1.499 . S
C1245 H1219 0.950 . S
C1245 C1244 1.414 . S
C1245 C1246 1.374 . S
C1246 H1220 0.950 . S
C1246 C1242 1.385 . S
C1246 C1245 1.374 . S
C1247 C1244 1.499 . S
C1247 C1248 1.373 . S
C1247 C1249 1.389 . S
C1248 H1221 0.950 . S
C1248 C1234 1.377 . S
C1248 C1247 1.373 . S
C1249 C1233 1.377 . S
C1249 C1247 1.389 . S
C1249 C1250 1.524 . S
C1250 C1249 1.524 . S
C1250 C1251 1.397 . S
C1250 C1255 1.363 . S
C1251 H1222 0.950 . S
C1251 C1250 1.397 . S
C1251 C1252 1.334 . S
C1252 H1223 0.950 . S
C1252 C1251 1.334 . S
C1252 C1253 1.287 . S
C1253 C1252 1.287 . S
C1253 C1254 1.524 . S
C1253 H1256 0.999 . S
C1254 H1224 0.950 . S
C1254 C1253 1.524 . S
C1254 C1255 1.415 . S
C1255 H1225 0.950 . S
C1255 C1250 1.363 . S
C1255 C1254 1.415 . S
H1256 C1253 0.999 . S
H1257 C1238 0.913 . S
H1258 C1276 0.951 . S
H1259 C1278 0.951 . S
H1260 C1280 0.950 . S
H1261 C1281 0.950 . S
H1262 C1283 0.950 . S
H1263 C1286 0.950 . S
H1264 C1287 0.950 . S
H1265 C1289 0.950 . S
H1266 C1290 0.950 . S
H1267 C1291 0.951 . S
H1268 C1293 0.951 . S
H1269 C1295 0.950 . S
H1270 C1296 0.950 . S
H1271 C1298 0.950 . S
H1272 C1301 0.950 . S
H1273 C1302 0.950 . S
H1274 C1304 0.950 . S
H1275 C1305 0.950 . S
C1276 H1258 0.951 . S
C1276 C1277 1.366 . S
C1276 C1278 1.388 . S
C1277 C1276 1.366 . S
C1277 C1281 1.385 . S
C1278 H1259 0.951 . S
C1278 C1276 1.388 . S
C1278 C1279 1.366 . S
C1279 C1278 1.366 . S
C1279 C1280 1.414 . S
C1279 C1282 1.499 . S
C1280 H1260 0.950 . S
C1280 C1279 1.414 . S
C1280 C1281 1.374 . S
C1281 H1261 0.950 . S
C1281 C1277 1.385 . S
C1281 C1280 1.374 . S
C1282 C1279 1.499 . S
C1282 C1283 1.373 . S
C1282 C1284 1.389 . S
C1283 H1262 0.950 . S
C1283 C1282 1.373 . S
C1283 C1299 1.377 . S
C1284 C1282 1.389 . S
C1284 C1285 1.524 . S
C1284 C1298 1.377 . S
C1285 C1284 1.524 . S
C1285 C1286 1.397 . S
C1285 C1290 1.363 . S
C1286 H1263 0.950 . S
C1286 C1285 1.397 . S
C1286 C1287 1.334 . S
C1287 H1264 0.950 . S
C1287 C1286 1.334 . S
C1287 C1288 1.287 . S
C1288 C1287 1.287 . S
C1288 C1289 1.524 . S
C1288 H1307 0.913 . S
C1289 H1265 0.950 . S
C1289 C1288 1.524 . S
C1289 C1290 1.415 . S
C1290 H1266 0.950 . S
C1290 C1285 1.363 . S
C1290 C1289 1.415 . S
C1291 H1267 0.951 . S
C1291 C1292 1.366 . S
C1291 C1293 1.388 . S
C1292 C1291 1.366 . S
C1292 C1296 1.385 . S
C1293 H1268 0.951 . S
C1293 C1291 1.388 . S
C1293 C1294 1.366 . S
C1294 C1293 1.366 . S
C1294 C1295 1.414 . S
C1294 C1297 1.499 . S
C1295 H1269 0.950 . S
C1295 C1294 1.414 . S
C1295 C1296 1.374 . S
C1296 H1270 0.950 . S
C1296 C1292 1.385 . S
C1296 C1295 1.374 . S
C1297 C1294 1.499 . S
C1297 C1298 1.373 . S
C1297 C1299 1.389 . S
C1298 H1271 0.950 . S
C1298 C1284 1.377 . S
C1298 C1297 1.373 . S
C1299 C1283 1.377 . S
C1299 C1297 1.389 . S
C1299 C1300 1.524 . S
C1300 C1299 1.524 . S
C1300 C1301 1.397 . S
C1300 C1305 1.363 . S
C1301 H1272 0.950 . S
C1301 C1300 1.397 . S
C1301 C1302 1.334 . S
C1302 H1273 0.950 . S
C1302 C1301 1.334 . S
C1302 C1303 1.287 . S
C1303 C1302 1.287 . S
C1303 C1304 1.524 . S
C1303 H1306 0.999 . S
C1304 H1274 0.950 . S
C1304 C1303 1.524 . S
C1304 C1305 1.415 . S
C1305 H1275 0.950 . S
C1305 C1300 1.363 . S
C1305 C1304 1.415 . S
H1306 C1303 0.999 . S
H1307 C1288 0.913 . S
H1308 C1326 0.951 . S
H1309 C1328 0.951 . S
H1310 C1330 0.950 . S
H1311 C1331 0.950 . S
H1312 C1333 0.988 . S
H1313 C1336 0.950 . S
H1314 C1337 0.950 . S
H1315 C1339 0.950 . S
H1316 C1340 0.950 . S
H1317 C1341 0.951 . S
H1318 C1343 0.951 . S
H1319 C1345 0.948 1_554 S
H1320 C1346 0.958 . S
H1321 C1348 0.950 . S
H1322 C1351 0.950 . S
H1323 C1352 0.950 . S
H1324 C1354 0.950 . S
H1325 C1355 0.950 . S
C1326 H1308 0.951 . S
C1326 C1327 1.366 . S
C1326 C1328 1.388 . S
C1327 C1326 1.366 . S
C1327 C1331 1.385 . S
C1328 H1309 0.951 . S
C1328 C1326 1.388 . S
C1328 C1329 1.366 . S
C1329 C1328 1.366 . S
C1329 C1330 1.414 . S
C1329 C1332 1.499 . S
C1330 H1310 0.950 . S
C1330 C1329 1.414 . S
C1330 C1331 1.374 . S
C1331 H1311 0.950 . S
C1331 C1327 1.385 . S
C1331 C1330 1.374 . S
C1332 C1329 1.499 . S
C1332 C1333 1.325 1_556 S
C1332 C1334 1.389 . S
C1333 H1312 0.988 . S
C1333 C1332 1.325 1_554 S
C1333 C1349 1.393 . S
C1334 C1332 1.389 . S
C1334 C1335 1.524 . S
C1334 C1348 1.377 . S
C1335 C1334 1.524 . S
C1335 C1336 1.397 . S
C1335 C1340 1.363 . S
C1336 H1313 0.950 . S
C1336 C1335 1.397 . S
C1336 C1337 1.334 . S
C1337 H1314 0.950 . S
C1337 C1336 1.334 . S
C1337 C1338 1.287 . S
C1338 C1337 1.287 . S
C1338 C1339 1.524 . S
C1338 H1357 0.913 . S
C1339 H1315 0.950 . S
C1339 C1338 1.524 . S
C1339 C1340 1.415 . S
C1340 H1316 0.950 . S
C1340 C1335 1.363 . S
C1340 C1339 1.415 . S
C1341 H1317 0.951 . S
C1341 C1342 1.366 . S
C1341 C1343 1.388 . S
C1342 C1341 1.366 . S
C1342 C1346 1.381 1_556 S
C1343 H1318 0.951 . S
C1343 C1341 1.388 . S
C1343 C1344 1.366 . S
C1344 C1343 1.366 . S
C1344 C1345 1.420 . S
C1344 C1347 1.499 . S
C1345 H1319 0.948 1_556 S
C1345 C1344 1.420 . S
C1345 C1346 1.369 1_556 S
C1346 H1320 0.958 . S
C1346 C1342 1.381 1_554 S
C1346 C1345 1.369 1_554 S
C1347 C1344 1.499 . S
C1347 C1348 1.373 . S
C1347 C1349 1.389 1_556 S
C1348 H1321 0.950 . S
C1348 C1334 1.377 . S
C1348 C1347 1.373 . S
C1349 C1333 1.393 . S
C1349 C1347 1.389 1_554 S
C1349 C1350 1.524 . S
C1350 C1349 1.524 . S
C1350 C1351 1.397 . S
C1350 C1355 1.363 . S
C1351 H1322 0.950 . S
C1351 C1350 1.397 . S
C1351 C1352 1.334 . S
C1352 H1323 0.950 . S
C1352 C1351 1.334 . S
C1352 C1353 1.287 . S
C1353 C1352 1.287 . S
C1353 C1354 1.524 . S
C1353 H1356 0.999 . S
C1354 H1324 0.950 . S
C1354 C1353 1.524 . S
C1354 C1355 1.415 . S
C1355 H1325 0.950 . S
C1355 C1350 1.363 . S
C1355 C1354 1.415 . S
H1356 C1353 0.999 . S
H1357 C1338 0.913 . S
H1358 C1376 0.951 . S
H1359 C1378 0.951 . S
H1360 C1380 0.950 . S
H1361 C1381 0.950 . S
H1362 C1383 0.950 . S
H1363 C1386 0.950 . S
H1364 C1387 0.950 . S
H1365 C1389 0.950 . S
H1366 C1390 0.950 . S
H1367 C1391 0.951 . S
H1368 C1393 0.951 . S
H1369 C1395 0.950 . S
H1370 C1396 0.950 . S
H1371 C1398 0.950 . S
H1372 C1401 0.950 . S
H1373 C1402 0.950 . S
H1374 C1404 0.950 . S
H1375 C1405 0.950 . S
C1376 H1358 0.951 . S
C1376 C1377 1.366 . S
C1376 C1378 1.388 . S
C1377 C1376 1.366 . S
C1377 C1381 1.385 . S
C1378 H1359 0.951 . S
C1378 C1376 1.388 . S
C1378 C1379 1.366 . S
C1379 C1378 1.366 . S
C1379 C1380 1.414 . S
C1379 C1382 1.499 . S
C1380 H1360 0.950 . S
C1380 C1379 1.414 . S
C1380 C1381 1.374 . S
C1381 H1361 0.950 . S
C1381 C1377 1.385 . S
C1381 C1380 1.374 . S
C1382 C1379 1.499 . S
C1382 C1383 1.373 . S
C1382 C1384 1.389 . S
C1383 H1362 0.950 . S
C1383 C1382 1.373 . S
C1383 C1399 1.377 . S
C1384 C1382 1.389 . S
C1384 C1385 1.524 . S
C1384 C1398 1.377 . S
C1385 C1384 1.524 . S
C1385 C1386 1.397 . S
C1385 C1390 1.363 . S
C1386 H1363 0.950 . S
C1386 C1385 1.397 . S
C1386 C1387 1.334 . S
C1387 H1364 0.950 . S
C1387 C1386 1.334 . S
C1387 C1388 1.287 . S
C1388 C1387 1.287 . S
C1388 C1389 1.524 . S
C1388 H1407 0.913 . S
C1389 H1365 0.950 . S
C1389 C1388 1.524 . S
C1389 C1390 1.415 . S
C1390 H1366 0.950 . S
C1390 C1385 1.363 . S
C1390 C1389 1.415 . S
C1391 H1367 0.951 . S
C1391 C1392 1.366 . S
C1391 C1393 1.388 . S
C1392 C1391 1.366 . S
C1392 C1396 1.385 . S
C1393 H1368 0.951 . S
C1393 C1391 1.388 . S
C1393 C1394 1.366 . S
C1394 C1393 1.366 . S
C1394 C1395 1.414 . S
C1394 C1397 1.499 . S
C1395 H1369 0.950 . S
C1395 C1394 1.414 . S
C1395 C1396 1.374 . S
C1396 H1370 0.950 . S
C1396 C1392 1.385 . S
C1396 C1395 1.374 . S
C1397 C1394 1.499 . S
C1397 C1398 1.373 . S
C1397 C1399 1.389 . S
C1398 H1371 0.950 . S
C1398 C1384 1.377 . S
C1398 C1397 1.373 . S
C1399 C1383 1.377 . S
C1399 C1397 1.389 . S
C1399 C1400 1.524 . S
C1400 C1399 1.524 . S
C1400 C1401 1.397 . S
C1400 C1405 1.363 . S
C1401 H1372 0.950 . S
C1401 C1400 1.397 . S
C1401 C1402 1.334 . S
C1402 H1373 0.950 . S
C1402 C1401 1.334 . S
C1402 C1403 1.287 . S
C1403 C1402 1.287 . S
C1403 C1404 1.524 . S
C1403 H1406 0.999 . S
C1404 H1374 0.950 . S
C1404 C1403 1.524 . S
C1404 C1405 1.415 . S
C1405 H1375 0.950 . S
C1405 C1400 1.363 . S
C1405 C1404 1.415 . S
H1406 C1403 0.999 . S
H1407 C1388 0.913 . S
H1408 C1426 0.951 . S
H1409 C1428 0.951 . S
H1410 C1430 0.950 . S
H1411 C1431 0.950 . S
H1412 C1433 0.950 . S
H1413 C1436 0.950 . S
H1414 C1437 0.950 . S
H1415 C1439 0.950 . S
H1416 C1440 0.950 . S
H1417 C1441 0.951 . S
H1418 C1443 0.951 . S
H1419 C1445 0.950 . S
H1420 C1446 0.950 . S
H1421 C1448 0.950 . S
H1422 C1451 0.950 . S
H1423 C1452 0.950 . S
H1424 C1454 0.950 . S
H1425 C1455 0.950 . S
C1426 H1408 0.951 . S
C1426 C1427 1.366 . S
C1426 C1428 1.388 . S
C1427 C1426 1.366 . S
C1427 C1431 1.385 . S
C1428 H1409 0.951 . S
C1428 C1426 1.388 . S
C1428 C1429 1.366 . S
C1429 C1428 1.366 . S
C1429 C1430 1.414 . S
C1429 C1432 1.499 . S
C1430 H1410 0.950 . S
C1430 C1429 1.414 . S
C1430 C1431 1.374 . S
C1431 H1411 0.950 . S
C1431 C1427 1.385 . S
C1431 C1430 1.374 . S
C1432 C1429 1.499 . S
C1432 C1433 1.373 . S
C1432 C1434 1.389 . S
C1433 H1412 0.950 . S
C1433 C1432 1.373 . S
C1433 C1449 1.377 . S
C1434 C1432 1.389 . S
C1434 C1435 1.524 . S
C1434 C1448 1.377 . S
C1435 C1434 1.524 . S
C1435 C1436 1.397 . S
C1435 C1440 1.363 . S
C1436 H1413 0.950 . S
C1436 C1435 1.397 . S
C1436 C1437 1.334 . S
C1437 H1414 0.950 . S
C1437 C1436 1.334 . S
C1437 C1438 1.287 . S
C1438 C1437 1.287 . S
C1438 C1439 1.524 . S
C1438 H1457 0.913 . S
C1439 H1415 0.950 . S
C1439 C1438 1.524 . S
C1439 C1440 1.415 . S
C1440 H1416 0.950 . S
C1440 C1435 1.363 . S
C1440 C1439 1.415 . S
C1441 H1417 0.951 . S
C1441 C1442 1.366 . S
C1441 C1443 1.388 . S
C1442 C1441 1.366 . S
C1442 C1446 1.385 . S
C1443 H1418 0.951 . S
C1443 C1441 1.388 . S
C1443 C1444 1.366 . S
C1444 C1443 1.366 . S
C1444 C1445 1.414 . S
C1444 C1447 1.499 . S
C1445 H1419 0.950 . S
C1445 C1444 1.414 . S
C1445 C1446 1.374 . S
C1446 H1420 0.950 . S
C1446 C1442 1.385 . S
C1446 C1445 1.374 . S
C1447 C1444 1.499 . S
C1447 C1448 1.373 . S
C1447 C1449 1.389 . S
C1448 H1421 0.950 . S
C1448 C1434 1.377 . S
C1448 C1447 1.373 . S
C1449 C1433 1.377 . S
C1449 C1447 1.389 . S
C1449 C1450 1.524 . S
C1450 C1449 1.524 . S
C1450 C1451 1.397 . S
C1450 C1455 1.363 . S
C1451 H1422 0.950 . S
C1451 C1450 1.397 . S
C1451 C1452 1.334 . S
C1452 H1423 0.950 . S
C1452 C1451 1.334 . S
C1452 C1453 1.287 . S
C1453 C1452 1.287 . S
C1453 C1454 1.524 . S
C1453 H1456 0.999 . S
C1454 H1424 0.950 . S
C1454 C1453 1.524 . S
C1454 C1455 1.415 . S
C1455 H1425 0.950 . S
C1455 C1450 1.363 . S
C1455 C1454 1.415 . S
H1456 C1453 0.999 . S
H1457 C1438 0.913 . S
H1458 C1476 0.951 . S
H1459 C1478 0.951 . S
H1460 C1480 0.950 . S
H1461 C1481 0.950 . S
H1462 C1483 0.950 . S
H1463 C1486 0.950 . S
H1464 C1487 0.950 . S
H1465 C1489 0.950 . S
H1466 C1490 0.950 . S
H1467 C1491 0.951 . S
H1468 C1493 0.951 . S
H1469 C1495 0.950 . S
H1470 C1496 0.950 . S
H1471 C1498 0.950 . S
H1472 C1501 0.950 . S
H1473 C1502 0.950 . S
H1474 C1504 0.950 . S
H1475 C1505 0.950 . S
C1476 H1458 0.951 . S
C1476 C1477 1.366 . S
C1476 C1478 1.388 . S
C1477 C1476 1.366 . S
C1477 C1481 1.385 . S
C1478 H1459 0.951 . S
C1478 C1476 1.388 . S
C1478 C1479 1.366 . S
C1479 C1478 1.366 . S
C1479 C1480 1.414 . S
C1479 C1482 1.499 . S
C1480 H1460 0.950 . S
C1480 C1479 1.414 . S
C1480 C1481 1.374 . S
C1481 H1461 0.950 . S
C1481 C1477 1.385 . S
C1481 C1480 1.374 . S
C1482 C1479 1.499 . S
C1482 C1483 1.373 . S
C1482 C1484 1.389 . S
C1483 H1462 0.950 . S
C1483 C1482 1.373 . S
C1483 C1499 1.377 . S
C1484 C1482 1.389 . S
C1484 C1485 1.524 . S
C1484 C1498 1.377 . S
C1485 C1484 1.524 . S
C1485 C1486 1.397 . S
C1485 C1490 1.363 . S
C1486 H1463 0.950 . S
C1486 C1485 1.397 . S
C1486 C1487 1.334 . S
C1487 H1464 0.950 . S
C1487 C1486 1.334 . S
C1487 C1488 1.287 . S
C1488 C1487 1.287 . S
C1488 C1489 1.524 . S
C1488 H1507 0.913 . S
C1489 H1465 0.950 . S
C1489 C1488 1.524 . S
C1489 C1490 1.415 . S
C1490 H1466 0.950 . S
C1490 C1485 1.363 . S
C1490 C1489 1.415 . S
C1491 H1467 0.951 . S
C1491 C1492 1.366 . S
C1491 C1493 1.388 . S
C1492 C1491 1.366 . S
C1492 C1496 1.385 . S
C1493 H1468 0.951 . S
C1493 C1491 1.388 . S
C1493 C1494 1.366 . S
C1494 C1493 1.366 . S
C1494 C1495 1.414 . S
C1494 C1497 1.499 . S
C1495 H1469 0.950 . S
C1495 C1494 1.414 . S
C1495 C1496 1.374 . S
C1496 H1470 0.950 . S
C1496 C1492 1.385 . S
C1496 C1495 1.374 . S
C1497 C1494 1.499 . S
C1497 C1498 1.373 . S
C1497 C1499 1.389 . S
C1498 H1471 0.950 . S
C1498 C1484 1.377 . S
C1498 C1497 1.373 . S
C1499 C1483 1.377 . S
C1499 C1497 1.389 . S
C1499 C1500 1.524 . S
C1500 C1499 1.524 . S
C1500 C1501 1.397 . S
C1500 C1505 1.363 . S
C1501 H1472 0.950 . S
C1501 C1500 1.397 . S
C1501 C1502 1.334 . S
C1502 H1473 0.950 . S
C1502 C1501 1.334 . S
C1502 C1503 1.287 . S
C1503 C1502 1.287 . S
C1503 C1504 1.524 . S
C1503 H1506 0.999 . S
C1504 H1474 0.950 . S
C1504 C1503 1.524 . S
C1504 C1505 1.415 . S
C1505 H1475 0.950 . S
C1505 C1500 1.363 . S
C1505 C1504 1.415 . S
H1506 C1503 0.999 . S
H1507 C1488 0.913 . S
H1508 C1526 0.951 . S
H1509 C1528 0.951 . S
H1510 C1530 0.950 . S
H1511 C1531 0.950 . S
H1512 C1533 0.950 . S
H1513 C1536 0.950 . S
H1514 C1537 0.950 . S
H1515 C1539 0.950 . S
H1516 C1540 0.950 . S
H1517 C1541 0.951 . S
H1518 C1543 0.951 . S
H1519 C1545 0.950 . S
H1520 C1546 0.950 . S
H1521 C1548 0.950 . S
H1522 C1551 0.950 . S
H1523 C1552 0.950 . S
H1524 C1554 0.950 . S
H1525 C1555 0.950 . S
C1526 H1508 0.951 . S
C1526 C1527 1.366 . S
C1526 C1528 1.388 . S
C1527 C1526 1.366 . S
C1527 C1531 1.385 . S
C1528 H1509 0.951 . S
C1528 C1526 1.388 . S
C1528 C1529 1.366 . S
C1529 C1528 1.366 . S
C1529 C1530 1.414 . S
C1529 C1532 1.499 . S
C1530 H1510 0.950 . S
C1530 C1529 1.414 . S
C1530 C1531 1.374 . S
C1531 H1511 0.950 . S
C1531 C1527 1.385 . S
C1531 C1530 1.374 . S
C1532 C1529 1.499 . S
C1532 C1533 1.373 . S
C1532 C1534 1.389 . S
C1533 H1512 0.950 . S
C1533 C1532 1.373 . S
C1533 C1549 1.377 . S
C1534 C1532 1.389 . S
C1534 C1535 1.524 . S
C1534 C1548 1.377 . S
C1535 C1534 1.524 . S
C1535 C1536 1.397 . S
C1535 C1540 1.363 . S
C1536 H1513 0.950 . S
C1536 C1535 1.397 . S
C1536 C1537 1.334 . S
C1537 H1514 0.950 . S
C1537 C1536 1.334 . S
C1537 C1538 1.287 . S
C1538 C1537 1.287 . S
C1538 C1539 1.524 . S
C1538 H1557 0.913 . S
C1539 H1515 0.950 . S
C1539 C1538 1.524 . S
C1539 C1540 1.415 . S
C1540 H1516 0.950 . S
C1540 C1535 1.363 . S
C1540 C1539 1.415 . S
C1541 H1517 0.951 . S
C1541 C1542 1.366 . S
C1541 C1543 1.388 . S
C1542 C1541 1.366 . S
C1542 C1546 1.385 . S
C1543 H1518 0.951 . S
C1543 C1541 1.388 . S
C1543 C1544 1.366 . S
C1544 C1543 1.366 . S
C1544 C1545 1.414 . S
C1544 C1547 1.499 . S
C1545 H1519 0.950 . S
C1545 C1544 1.414 . S
C1545 C1546 1.374 . S
C1546 H1520 0.950 . S
C1546 C1542 1.385 . S
C1546 C1545 1.374 . S
C1547 C1544 1.499 . S
C1547 C1548 1.373 . S
C1547 C1549 1.389 . S
C1548 H1521 0.950 . S
C1548 C1534 1.377 . S
C1548 C1547 1.373 . S
C1549 C1533 1.377 . S
C1549 C1547 1.389 . S
C1549 C1550 1.524 . S
C1550 C1549 1.524 . S
C1550 C1551 1.397 . S
C1550 C1555 1.363 . S
C1551 H1522 0.950 . S
C1551 C1550 1.397 . S
C1551 C1552 1.334 . S
C1552 H1523 0.950 . S
C1552 C1551 1.334 . S
C1552 C1553 1.287 . S
C1553 C1552 1.287 . S
C1553 C1554 1.524 . S
C1553 H1556 0.999 . S
C1554 H1524 0.950 . S
C1554 C1553 1.524 . S
C1554 C1555 1.415 . S
C1555 H1525 0.950 . S
C1555 C1550 1.363 . S
C1555 C1554 1.415 . S
H1556 C1553 0.999 . S
H1557 C1538 0.913 . S
H1558 C1576 0.951 . S
H1559 C1578 0.951 . S
H1560 C1580 0.950 . S
H1561 C1581 0.950 . S
H1562 C1583 0.950 . S
H1563 C1586 0.950 . S
H1564 C1587 0.950 . S
H1565 C1589 0.950 . S
H1566 C1590 0.950 . S
H1567 C1591 0.951 . S
H1568 C1593 0.951 . S
H1569 C1595 0.950 . S
H1570 C1596 0.950 . S
H1571 C1598 0.950 . S
H1572 C1601 0.950 . S
H1573 C1602 0.950 . S
H1574 C1604 0.950 . S
H1575 C1605 0.950 . S
C1576 H1558 0.951 . S
C1576 C1577 1.366 . S
C1576 C1578 1.388 . S
C1577 C1576 1.366 . S
C1577 C1581 1.385 . S
C1578 H1559 0.951 . S
C1578 C1576 1.388 . S
C1578 C1579 1.366 . S
C1579 C1578 1.366 . S
C1579 C1580 1.414 . S
C1579 C1582 1.499 . S
C1580 H1560 0.950 . S
C1580 C1579 1.414 . S
C1580 C1581 1.374 . S
C1581 H1561 0.950 . S
C1581 C1577 1.385 . S
C1581 C1580 1.374 . S
C1582 C1579 1.499 . S
C1582 C1583 1.373 . S
C1582 C1584 1.389 . S
C1583 H1562 0.950 . S
C1583 C1582 1.373 . S
C1583 C1599 1.377 . S
C1584 C1582 1.389 . S
C1584 C1585 1.524 . S
C1584 C1598 1.377 . S
C1585 C1584 1.524 . S
C1585 C1586 1.397 . S
C1585 C1590 1.363 . S
C1586 H1563 0.950 . S
C1586 C1585 1.397 . S
C1586 C1587 1.334 . S
C1587 H1564 0.950 . S
C1587 C1586 1.334 . S
C1587 C1588 1.287 . S
C1588 C1587 1.287 . S
C1588 C1589 1.524 . S
C1588 H1607 0.913 . S
C1589 H1565 0.950 . S
C1589 C1588 1.524 . S
C1589 C1590 1.415 . S
C1590 H1566 0.950 . S
C1590 C1585 1.363 . S
C1590 C1589 1.415 . S
C1591 H1567 0.951 . S
C1591 C1592 1.366 . S
C1591 C1593 1.388 . S
C1592 C1591 1.366 . S
C1592 C1596 1.385 . S
C1593 H1568 0.951 . S
C1593 C1591 1.388 . S
C1593 C1594 1.366 . S
C1594 C1593 1.366 . S
C1594 C1595 1.414 . S
C1594 C1597 1.499 . S
C1595 H1569 0.950 . S
C1595 C1594 1.414 . S
C1595 C1596 1.374 . S
C1596 H1570 0.950 . S
C1596 C1592 1.385 . S
C1596 C1595 1.374 . S
C1597 C1594 1.499 . S
C1597 C1598 1.373 . S
C1597 C1599 1.389 . S
C1598 H1571 0.950 . S
C1598 C1584 1.377 . S
C1598 C1597 1.373 . S
C1599 C1583 1.377 . S
C1599 C1597 1.389 . S
C1599 C1600 1.524 . S
C1600 C1599 1.524 . S
C1600 C1601 1.397 . S
C1600 C1605 1.363 . S
C1601 H1572 0.950 . S
C1601 C1600 1.397 . S
C1601 C1602 1.334 . S
C1602 H1573 0.950 . S
C1602 C1601 1.334 . S
C1602 C1603 1.287 . S
C1603 C1602 1.287 . S
C1603 C1604 1.524 . S
C1603 H1606 0.999 . S
C1604 H1574 0.950 . S
C1604 C1603 1.524 . S
C1604 C1605 1.415 . S
C1605 H1575 0.950 . S
C1605 C1600 1.363 . S
C1605 C1604 1.415 . S
H1606 C1603 0.999 . S
H1607 C1588 0.913 . S
H1608 C1626 0.951 . S
H1609 C1628 0.951 . S
H1610 C1630 0.950 . S
H1611 C1631 0.950 . S
H1612 C1633 0.950 . S
H1613 C1636 0.950 . S
H1614 C1637 0.950 . S
H1615 C1639 0.950 . S
H1616 C1640 0.950 . S
H1617 C1641 0.951 . S
H1618 C1643 0.951 . S
H1619 C1645 0.950 . S
H1620 C1646 0.950 . S
H1621 C1648 0.950 . S
H1622 C1651 0.950 . S
H1623 C1652 0.950 . S
H1624 C1654 0.950 . S
H1625 C1655 0.950 . S
C1626 H1608 0.951 . S
C1626 C1627 1.366 . S
C1626 C1628 1.388 . S
C1627 C1626 1.366 . S
C1627 C1631 1.385 . S
C1628 H1609 0.951 . S
C1628 C1626 1.388 . S
C1628 C1629 1.366 . S
C1629 C1628 1.366 . S
C1629 C1630 1.414 . S
C1629 C1632 1.499 . S
C1630 H1610 0.950 . S
C1630 C1629 1.414 . S
C1630 C1631 1.374 . S
C1631 H1611 0.950 . S
C1631 C1627 1.385 . S
C1631 C1630 1.374 . S
C1632 C1629 1.499 . S
C1632 C1633 1.373 . S
C1632 C1634 1.389 . S
C1633 H1612 0.950 . S
C1633 C1632 1.373 . S
C1633 C1649 1.377 . S
C1634 C1632 1.389 . S
C1634 C1635 1.524 . S
C1634 C1648 1.377 . S
C1635 C1634 1.524 . S
C1635 C1636 1.397 . S
C1635 C1640 1.363 . S
C1636 H1613 0.950 . S
C1636 C1635 1.397 . S
C1636 C1637 1.334 . S
C1637 H1614 0.950 . S
C1637 C1636 1.334 . S
C1637 C1638 1.287 . S
C1638 C1637 1.287 . S
C1638 C1639 1.524 . S
C1638 H1657 0.913 . S
C1639 H1615 0.950 . S
C1639 C1638 1.524 . S
C1639 C1640 1.415 . S
C1640 H1616 0.950 . S
C1640 C1635 1.363 . S
C1640 C1639 1.415 . S
C1641 H1617 0.951 . S
C1641 C1642 1.366 . S
C1641 C1643 1.388 . S
C1642 C1641 1.366 . S
C1642 C1646 1.385 . S
C1643 H1618 0.951 . S
C1643 C1641 1.388 . S
C1643 C1644 1.366 . S
C1644 C1643 1.366 . S
C1644 C1645 1.414 . S
C1644 C1647 1.499 . S
C1645 H1619 0.950 . S
C1645 C1644 1.414 . S
C1645 C1646 1.374 . S
C1646 H1620 0.950 . S
C1646 C1642 1.385 . S
C1646 C1645 1.374 . S
C1647 C1644 1.499 . S
C1647 C1648 1.373 . S
C1647 C1649 1.389 . S
C1648 H1621 0.950 . S
C1648 C1634 1.377 . S
C1648 C1647 1.373 . S
C1649 C1633 1.377 . S
C1649 C1647 1.389 . S
C1649 C1650 1.524 . S
C1650 C1649 1.524 . S
C1650 C1651 1.397 . S
C1650 C1655 1.363 . S
C1651 H1622 0.950 . S
C1651 C1650 1.397 . S
C1651 C1652 1.334 . S
C1652 H1623 0.950 . S
C1652 C1651 1.334 . S
C1652 C1653 1.287 . S
C1653 C1652 1.287 . S
C1653 C1654 1.524 . S
C1653 H1656 0.999 . S
C1654 H1624 0.950 . S
C1654 C1653 1.524 . S
C1654 C1655 1.415 . S
C1655 H1625 0.950 . S
C1655 C1650 1.363 . S
C1655 C1654 1.415 . S
H1656 C1653 0.999 . S
H1657 C1638 0.913 . S
H1658 C1676 0.951 . S
H1659 C1678 0.951 . S
H1660 C1680 0.950 . S
H1661 C1681 0.950 . S
H1662 C1683 0.950 . S
H1663 C1686 0.950 . S
H1664 C1687 0.950 . S
H1665 C1689 0.950 . S
H1666 C1690 0.950 . S
H1667 C1691 0.951 . S
H1668 C1693 0.951 . S
H1669 C1695 0.950 . S
H1670 C1696 0.950 . S
H1671 C1698 0.950 . S
H1672 C1701 0.950 . S
H1673 C1702 0.950 . S
H1674 C1704 0.950 . S
H1675 C1705 0.950 . S
C1676 H1658 0.951 . S
C1676 C1677 1.366 . S
C1676 C1678 1.388 . S
C1677 C1676 1.366 . S
C1677 C1681 1.385 . S
C1678 H1659 0.951 . S
C1678 C1676 1.388 . S
C1678 C1679 1.366 . S
C1679 C1678 1.366 . S
C1679 C1680 1.414 . S
C1679 C1682 1.499 . S
C1680 H1660 0.950 . S
C1680 C1679 1.414 . S
C1680 C1681 1.374 . S
C1681 H1661 0.950 . S
C1681 C1677 1.385 . S
C1681 C1680 1.374 . S
C1682 C1679 1.499 . S
C1682 C1683 1.373 . S
C1682 C1684 1.389 . S
C1683 H1662 0.950 . S
C1683 C1682 1.373 . S
C1683 C1699 1.377 . S
C1684 C1682 1.389 . S
C1684 C1685 1.524 . S
C1684 C1698 1.377 . S
C1685 C1684 1.524 . S
C1685 C1686 1.397 . S
C1685 C1690 1.363 . S
C1686 H1663 0.950 . S
C1686 C1685 1.397 . S
C1686 C1687 1.334 . S
C1687 H1664 0.950 . S
C1687 C1686 1.334 . S
C1687 C1688 1.287 . S
C1688 C1687 1.287 . S
C1688 C1689 1.524 . S
C1688 H1707 0.913 . S
C1689 H1665 0.950 . S
C1689 C1688 1.524 . S
C1689 C1690 1.415 . S
C1690 H1666 0.950 . S
C1690 C1685 1.363 . S
C1690 C1689 1.415 . S
C1691 H1667 0.951 . S
C1691 C1692 1.366 . S
C1691 C1693 1.388 . S
C1692 C1691 1.366 . S
C1692 C1696 1.385 . S
C1693 H1668 0.951 . S
C1693 C1691 1.388 . S
C1693 C1694 1.366 . S
C1694 C1693 1.366 . S
C1694 C1695 1.414 . S
C1694 C1697 1.499 . S
C1695 H1669 0.950 . S
C1695 C1694 1.414 . S
C1695 C1696 1.374 . S
C1696 H1670 0.950 . S
C1696 C1692 1.385 . S
C1696 C1695 1.374 . S
C1697 C1694 1.499 . S
C1697 C1698 1.373 . S
C1697 C1699 1.389 . S
C1698 H1671 0.950 . S
C1698 C1684 1.377 . S
C1698 C1697 1.373 . S
C1699 C1683 1.377 . S
C1699 C1697 1.389 . S
C1699 C1700 1.524 . S
C1700 C1699 1.524 . S
C1700 C1701 1.397 . S
C1700 C1705 1.363 . S
C1701 H1672 0.950 . S
C1701 C1700 1.397 . S
C1701 C1702 1.334 . S
C1702 H1673 0.950 . S
C1702 C1701 1.334 . S
C1702 C1703 1.287 . S
C1703 C1702 1.287 . S
C1703 C1704 1.524 . S
C1703 H1706 0.999 . S
C1704 H1674 0.950 . S
C1704 C1703 1.524 . S
C1704 C1705 1.415 . S
C1705 H1675 0.950 . S
C1705 C1700 1.363 . S
C1705 C1704 1.415 . S
H1706 C1703 0.999 . S
H1707 C1688 0.913 . S
H1708 C1726 0.951 . S
H1709 C1728 0.951 . S
H1710 C1730 0.950 . S
H1711 C1731 0.950 . S
H1712 C1733 0.950 . S
H1713 C1736 0.950 . S
H1714 C1737 0.950 . S
H1715 C1739 0.950 . S
H1716 C1740 0.950 . S
H1717 C1741 0.951 . S
H1718 C1743 0.951 . S
H1719 C1745 0.950 . S
H1720 C1746 0.950 . S
H1721 C1748 0.950 . S
H1722 C1751 0.950 . S
H1723 C1752 0.950 . S
H1724 C1754 0.950 . S
H1725 C1755 0.950 . S
C1726 H1708 0.951 . S
C1726 C1727 1.366 . S
C1726 C1728 1.388 . S
C1727 C1726 1.366 . S
C1727 C1731 1.385 . S
C1728 H1709 0.951 . S
C1728 C1726 1.388 . S
C1728 C1729 1.366 . S
C1729 C1728 1.366 . S
C1729 C1730 1.414 . S
C1729 C1732 1.499 . S
C1730 H1710 0.950 . S
C1730 C1729 1.414 . S
C1730 C1731 1.374 . S
C1731 H1711 0.950 . S
C1731 C1727 1.385 . S
C1731 C1730 1.374 . S
C1732 C1729 1.499 . S
C1732 C1733 1.373 . S
C1732 C1734 1.389 . S
C1733 H1712 0.950 . S
C1733 C1732 1.373 . S
C1733 C1749 1.377 . S
C1734 C1732 1.389 . S
C1734 C1735 1.524 . S
C1734 C1748 1.377 . S
C1735 C1734 1.524 . S
C1735 C1736 1.397 . S
C1735 C1740 1.363 . S
C1736 H1713 0.950 . S
C1736 C1735 1.397 . S
C1736 C1737 1.334 . S
C1737 H1714 0.950 . S
C1737 C1736 1.334 . S
C1737 C1738 1.287 . S
C1738 C1737 1.287 . S
C1738 C1739 1.524 . S
C1738 H1757 0.913 . S
C1739 H1715 0.950 . S
C1739 C1738 1.524 . S
C1739 C1740 1.415 . S
C1740 H1716 0.950 . S
C1740 C1735 1.363 . S
C1740 C1739 1.415 . S
C1741 H1717 0.951 . S
C1741 C1742 1.366 . S
C1741 C1743 1.388 . S
C1742 C1741 1.366 . S
C1742 C1746 1.385 . S
C1743 H1718 0.951 . S
C1743 C1741 1.388 . S
C1743 C1744 1.366 . S
C1744 C1743 1.366 . S
C1744 C1745 1.414 . S
C1744 C1747 1.499 . S
C1745 H1719 0.950 . S
C1745 C1744 1.414 . S
C1745 C1746 1.374 . S
C1746 H1720 0.950 . S
C1746 C1742 1.385 . S
C1746 C1745 1.374 . S
C1747 C1744 1.499 . S
C1747 C1748 1.373 . S
C1747 C1749 1.389 . S
C1748 H1721 0.950 . S
C1748 C1734 1.377 . S
C1748 C1747 1.373 . S
C1749 C1733 1.377 . S
C1749 C1747 1.389 . S
C1749 C1750 1.524 . S
C1750 C1749 1.524 . S
C1750 C1751 1.397 . S
C1750 C1755 1.363 . S
C1751 H1722 0.950 . S
C1751 C1750 1.397 . S
C1751 C1752 1.334 . S
C1752 H1723 0.950 . S
C1752 C1751 1.334 . S
C1752 C1753 1.287 . S
C1753 C1752 1.287 . S
C1753 C1754 1.524 . S
C1753 H1756 0.999 . S
C1754 H1724 0.950 . S
C1754 C1753 1.524 . S
C1754 C1755 1.415 . S
C1755 H1725 0.950 . S
C1755 C1750 1.363 . S
C1755 C1754 1.415 . S
H1756 C1753 0.999 . S
H1757 C1738 0.913 . S
H1758 C1776 0.951 . S
H1759 C1778 0.951 . S
H1760 C1780 0.950 . S
H1761 C1781 0.950 . S
H1762 C1783 0.950 . S
H1763 C1786 0.950 . S
H1764 C1787 0.950 . S
H1765 C1789 0.950 . S
H1766 C1790 0.950 . S
H1767 C1791 0.951 . S
H1768 C1793 0.951 . S
H1769 C1795 0.950 . S
H1770 C1796 0.950 . S
H1771 C1798 0.950 . S
H1772 C1801 0.950 . S
H1773 C1802 0.950 . S
H1774 C1804 0.950 . S
H1775 C1805 0.950 . S
C1776 H1758 0.951 . S
C1776 C1777 1.366 . S
C1776 C1778 1.388 . S
C1777 C1776 1.366 . S
C1777 C1781 1.385 . S
C1778 H1759 0.951 . S
C1778 C1776 1.388 . S
C1778 C1779 1.366 . S
C1779 C1778 1.366 . S
C1779 C1780 1.414 . S
C1779 C1782 1.499 . S
C1780 H1760 0.950 . S
C1780 C1779 1.414 . S
C1780 C1781 1.374 . S
C1781 H1761 0.950 . S
C1781 C1777 1.385 . S
C1781 C1780 1.374 . S
C1782 C1779 1.499 . S
C1782 C1783 1.373 . S
C1782 C1784 1.389 . S
C1783 H1762 0.950 . S
C1783 C1782 1.373 . S
C1783 C1799 1.377 . S
C1784 C1782 1.389 . S
C1784 C1785 1.524 . S
C1784 C1798 1.377 . S
C1785 C1784 1.524 . S
C1785 C1786 1.397 . S
C1785 C1790 1.363 . S
C1786 H1763 0.950 . S
C1786 C1785 1.397 . S
C1786 C1787 1.334 . S
C1787 H1764 0.950 . S
C1787 C1786 1.334 . S
C1787 C1788 1.287 . S
C1788 C1787 1.287 . S
C1788 C1789 1.524 . S
C1788 H1807 0.913 . S
C1789 H1765 0.950 . S
C1789 C1788 1.524 . S
C1789 C1790 1.415 . S
C1790 H1766 0.950 . S
C1790 C1785 1.363 . S
C1790 C1789 1.415 . S
C1791 H1767 0.951 . S
C1791 C1792 1.366 . S
C1791 C1793 1.388 . S
C1792 C1791 1.366 . S
C1792 C1796 1.385 . S
C1793 H1768 0.951 . S
C1793 C1791 1.388 . S
C1793 C1794 1.366 . S
C1794 C1793 1.366 . S
C1794 C1795 1.414 . S
C1794 C1797 1.499 . S
C1795 H1769 0.950 . S
C1795 C1794 1.414 . S
C1795 C1796 1.374 . S
C1796 H1770 0.950 . S
C1796 C1792 1.385 . S
C1796 C1795 1.374 . S
C1797 C1794 1.499 . S
C1797 C1798 1.373 . S
C1797 C1799 1.389 . S
C1798 H1771 0.950 . S
C1798 C1784 1.377 . S
C1798 C1797 1.373 . S
C1799 C1783 1.377 . S
C1799 C1797 1.389 . S
C1799 C1800 1.524 . S
C1800 C1799 1.524 . S
C1800 C1801 1.397 . S
C1800 C1805 1.363 . S
C1801 H1772 0.950 . S
C1801 C1800 1.397 . S
C1801 C1802 1.334 . S
C1802 H1773 0.950 . S
C1802 C1801 1.334 . S
C1802 C1803 1.287 . S
C1803 C1802 1.287 . S
C1803 C1804 1.524 . S
C1803 H1806 0.999 . S
C1804 H1774 0.950 . S
C1804 C1803 1.524 . S
C1804 C1805 1.415 . S
C1805 H1775 0.950 . S
C1805 C1800 1.363 . S
C1805 C1804 1.415 . S
H1806 C1803 0.999 . S
H1807 C1788 0.913 . S
H1808 C1826 0.951 . S
H1809 C1828 0.951 . S
H1810 C1830 0.950 . S
H1811 C1831 0.950 . S
H1812 C1833 0.950 . S
H1813 C1836 0.950 . S
H1814 C1837 0.950 . S
H1815 C1839 0.950 . S
H1816 C1840 0.950 . S
H1817 C1841 0.951 . S
H1818 C1843 0.951 . S
H1819 C1845 0.950 . S
H1820 C1846 0.950 . S
H1821 C1848 0.950 . S
H1822 C1851 0.950 . S
H1823 C1852 0.950 . S
H1824 C1854 0.950 . S
H1825 C1855 0.950 . S
C1826 H1808 0.951 . S
C1826 C1827 1.366 . S
C1826 C1828 1.388 . S
C1827 C1826 1.366 . S
C1827 C1831 1.385 . S
C1828 H1809 0.951 . S
C1828 C1826 1.388 . S
C1828 C1829 1.366 . S
C1829 C1828 1.366 . S
C1829 C1830 1.414 . S
C1829 C1832 1.499 . S
C1830 H1810 0.950 . S
C1830 C1829 1.414 . S
C1830 C1831 1.374 . S
C1831 H1811 0.950 . S
C1831 C1827 1.385 . S
C1831 C1830 1.374 . S
C1832 C1829 1.499 . S
C1832 C1833 1.373 . S
C1832 C1834 1.389 . S
C1833 H1812 0.950 . S
C1833 C1832 1.373 . S
C1833 C1849 1.377 . S
C1834 C1832 1.389 . S
C1834 C1835 1.524 . S
C1834 C1848 1.377 . S
C1835 C1834 1.524 . S
C1835 C1836 1.397 . S
C1835 C1840 1.363 . S
C1836 H1813 0.950 . S
C1836 C1835 1.397 . S
C1836 C1837 1.334 . S
C1837 H1814 0.950 . S
C1837 C1836 1.334 . S
C1837 C1838 1.287 . S
C1838 C1837 1.287 . S
C1838 C1839 1.524 . S
C1838 H1857 0.913 . S
C1839 H1815 0.950 . S
C1839 C1838 1.524 . S
C1839 C1840 1.415 . S
C1840 H1816 0.950 . S
C1840 C1835 1.363 . S
C1840 C1839 1.415 . S
C1841 H1817 0.951 . S
C1841 C1842 1.366 . S
C1841 C1843 1.388 . S
C1842 C1841 1.366 . S
C1842 C1846 1.385 . S
C1843 H1818 0.951 . S
C1843 C1841 1.388 . S
C1843 C1844 1.366 . S
C1844 C1843 1.366 . S
C1844 C1845 1.414 . S
C1844 C1847 1.499 . S
C1845 H1819 0.950 . S
C1845 C1844 1.414 . S
C1845 C1846 1.374 . S
C1846 H1820 0.950 . S
C1846 C1842 1.385 . S
C1846 C1845 1.374 . S
C1847 C1844 1.499 . S
C1847 C1848 1.373 . S
C1847 C1849 1.389 . S
C1848 H1821 0.950 . S
C1848 C1834 1.377 . S
C1848 C1847 1.373 . S
C1849 C1833 1.377 . S
C1849 C1847 1.389 . S
C1849 C1850 1.524 . S
C1850 C1849 1.524 . S
C1850 C1851 1.397 . S
C1850 C1855 1.363 . S
C1851 H1822 0.950 . S
C1851 C1850 1.397 . S
C1851 C1852 1.334 . S
C1852 H1823 0.950 . S
C1852 C1851 1.334 . S
C1852 C1853 1.287 . S
C1853 C1852 1.287 . S
C1853 C1854 1.524 . S
C1853 H1856 0.999 . S
C1854 H1824 0.950 . S
C1854 C1853 1.524 . S
C1854 C1855 1.415 . S
C1855 H1825 0.950 . S
C1855 C1850 1.363 . S
C1855 C1854 1.415 . S
H1856 C1853 0.999 . S
H1857 C1838 0.913 . S
H1858 C1876 0.951 . S
H1859 C1878 0.951 . S
H1860 C1880 0.950 . S
H1861 C1881 0.950 . S
H1862 C1883 0.950 . S
H1863 C1886 0.950 . S
H1864 C1887 0.950 . S
H1865 C1889 0.950 . S
H1866 C1890 0.950 . S
H1867 C1891 0.951 . S
H1868 C1893 0.951 . S
H1869 C1895 0.950 . S
H1870 C1896 0.950 . S
H1871 C1898 0.950 . S
H1872 C1901 0.950 . S
H1873 C1902 0.950 . S
H1874 C1904 0.950 . S
H1875 C1905 0.950 . S
C1876 H1858 0.951 . S
C1876 C1877 1.366 . S
C1876 C1878 1.388 . S
C1877 C1876 1.366 . S
C1877 C1881 1.385 . S
C1878 H1859 0.951 . S
C1878 C1876 1.388 . S
C1878 C1879 1.366 . S
C1879 C1878 1.366 . S
C1879 C1880 1.414 . S
C1879 C1882 1.499 . S
C1880 H1860 0.950 . S
C1880 C1879 1.414 . S
C1880 C1881 1.374 . S
C1881 H1861 0.950 . S
C1881 C1877 1.385 . S
C1881 C1880 1.374 . S
C1882 C1879 1.499 . S
C1882 C1883 1.373 . S
C1882 C1884 1.389 . S
C1883 H1862 0.950 . S
C1883 C1882 1.373 . S
C1883 C1899 1.377 . S
C1884 C1882 1.389 . S
C1884 C1885 1.524 . S
C1884 C1898 1.377 . S
C1885 C1884 1.524 . S
C1885 C1886 1.397 . S
C1885 C1890 1.363 . S
C1886 H1863 0.950 . S
C1886 C1885 1.397 . S
C1886 C1887 1.334 . S
C1887 H1864 0.950 . S
C1887 C1886 1.334 . S
C1887 C1888 1.287 . S
C1888 C1887 1.287 . S
C1888 C1889 1.524 . S
C1888 H1907 0.913 . S
C1889 H1865 0.950 . S
C1889 C1888 1.524 . S
C1889 C1890 1.415 . S
C1890 H1866 0.950 . S
C1890 C1885 1.363 . S
C1890 C1889 1.415 . S
C1891 H1867 0.951 . S
C1891 C1892 1.366 . S
C1891 C1893 1.388 . S
C1892 C1891 1.366 . S
C1892 C1896 1.385 . S
C1893 H1868 0.951 . S
C1893 C1891 1.388 . S
C1893 C1894 1.366 . S
C1894 C1893 1.366 . S
C1894 C1895 1.414 . S
C1894 C1897 1.499 . S
C1895 H1869 0.950 . S
C1895 C1894 1.414 . S
C1895 C1896 1.374 . S
C1896 H1870 0.950 . S
C1896 C1892 1.385 . S
C1896 C1895 1.374 . S
C1897 C1894 1.499 . S
C1897 C1898 1.373 . S
C1897 C1899 1.389 . S
C1898 H1871 0.950 . S
C1898 C1884 1.377 . S
C1898 C1897 1.373 . S
C1899 C1883 1.377 . S
C1899 C1897 1.389 . S
C1899 C1900 1.524 . S
C1900 C1899 1.524 . S
C1900 C1901 1.397 . S
C1900 C1905 1.363 . S
C1901 H1872 0.950 . S
C1901 C1900 1.397 . S
C1901 C1902 1.334 . S
C1902 H1873 0.950 . S
C1902 C1901 1.334 . S
C1902 C1903 1.287 . S
C1903 C1902 1.287 . S
C1903 C1904 1.524 . S
C1903 H1906 0.999 . S
C1904 H1874 0.950 . S
C1904 C1903 1.524 . S
C1904 C1905 1.415 . S
C1905 H1875 0.950 . S
C1905 C1900 1.363 . S
C1905 C1904 1.415 . S
H1906 C1903 0.999 . S
H1907 C1888 0.913 . S
H1908 C1926 0.951 . S
H1909 C1928 0.951 . S
H1910 C1930 0.950 . S
H1911 C1931 0.950 . S
H1912 C1933 0.950 . S
H1913 C1936 0.950 . S
H1914 C1937 0.950 . S
H1915 C1939 0.950 . S
H1916 C1940 0.950 . S
H1917 C1941 0.951 . S
H1918 C1943 0.951 . S
H1919 C1945 0.950 . S
H1920 C1946 0.950 . S
H1921 C1948 0.950 . S
H1922 C1951 0.950 . S
H1923 C1952 0.950 . S
H1924 C1954 0.950 . S
H1925 C1955 0.950 . S
C1926 H1908 0.951 . S
C1926 C1927 1.366 . S
C1926 C1928 1.388 . S
C1927 C1926 1.366 . S
C1927 C1931 1.385 . S
C1928 H1909 0.951 . S
C1928 C1926 1.388 . S
C1928 C1929 1.366 . S
C1929 C1928 1.366 . S
C1929 C1930 1.414 . S
C1929 C1932 1.499 . S
C1930 H1910 0.950 . S
C1930 C1929 1.414 . S
C1930 C1931 1.374 . S
C1931 H1911 0.950 . S
C1931 C1927 1.385 . S
C1931 C1930 1.374 . S
C1932 C1929 1.499 . S
C1932 C1933 1.373 . S
C1932 C1934 1.389 . S
C1933 H1912 0.950 . S
C1933 C1932 1.373 . S
C1933 C1949 1.377 . S
C1934 C1932 1.389 . S
C1934 C1935 1.524 . S
C1934 C1948 1.377 . S
C1935 C1934 1.524 . S
C1935 C1936 1.397 . S
C1935 C1940 1.363 . S
C1936 H1913 0.950 . S
C1936 C1935 1.397 . S
C1936 C1937 1.334 . S
C1937 H1914 0.950 . S
C1937 C1936 1.334 . S
C1937 C1938 1.287 . S
C1938 C1937 1.287 . S
C1938 C1939 1.524 . S
C1938 H1957 0.913 . S
C1939 H1915 0.950 . S
C1939 C1938 1.524 . S
C1939 C1940 1.415 . S
C1940 H1916 0.950 . S
C1940 C1935 1.363 . S
C1940 C1939 1.415 . S
C1941 H1917 0.951 . S
C1941 C1942 1.366 . S
C1941 C1943 1.388 . S
C1942 C1941 1.366 . S
C1942 C1946 1.385 . S
C1943 H1918 0.951 . S
C1943 C1941 1.388 . S
C1943 C1944 1.366 . S
C1944 C1943 1.366 . S
C1944 C1945 1.414 . S
C1944 C1947 1.499 . S
C1945 H1919 0.950 . S
C1945 C1944 1.414 . S
C1945 C1946 1.374 . S
C1946 H1920 0.950 . S
C1946 C1942 1.385 . S
C1946 C1945 1.374 . S
C1947 C1944 1.499 . S
C1947 C1948 1.373 . S
C1947 C1949 1.389 . S
C1948 H1921 0.950 . S
C1948 C1934 1.377 . S
C1948 C1947 1.373 . S
C1949 C1933 1.377 . S
C1949 C1947 1.389 . S
C1949 C1950 1.524 . S
C1950 C1949 1.524 . S
C1950 C1951 1.397 . S
C1950 C1955 1.363 . S
C1951 H1922 0.950 . S
C1951 C1950 1.397 . S
C1951 C1952 1.334 . S
C1952 H1923 0.950 . S
C1952 C1951 1.334 . S
C1952 C1953 1.287 . S
C1953 C1952 1.287 . S
C1953 C1954 1.524 . S
C1953 H1956 0.999 . S
C1954 H1924 0.950 . S
C1954 C1953 1.524 . S
C1954 C1955 1.415 . S
C1955 H1925 0.950 . S
C1955 C1950 1.363 . S
C1955 C1954 1.415 . S
H1956 C1953 0.999 . S
H1957 C1938 0.913 . S
H1958 C1976 0.951 . S
H1959 C1978 0.951 . S
H1960 C1980 0.950 . S
H1961 C1981 0.950 . S
H1962 C1983 0.950 . S
H1963 C1986 0.950 . S
H1964 C1987 0.950 . S
H1965 C1989 0.950 . S
H1966 C1990 0.950 . S
H1967 C1991 0.951 . S
H1968 C1993 0.951 . S
H1969 C1995 0.950 . S
H1970 C1996 0.950 . S
H1971 C1998 0.950 . S
H1972 C2001 0.950 . S
H1973 C2002 0.950 . S
H1974 C2004 0.950 . S
H1975 C2005 0.950 . S
C1976 H1958 0.951 . S
C1976 C1977 1.366 . S
C1976 C1978 1.388 . S
C1977 C1976 1.366 . S
C1977 C1981 1.385 . S
C1978 H1959 0.951 . S
C1978 C1976 1.388 . S
C1978 C1979 1.366 . S
C1979 C1978 1.366 . S
C1979 C1980 1.414 . S
C1979 C1982 1.499 . S
C1980 H1960 0.950 . S
C1980 C1979 1.414 . S
C1980 C1981 1.374 . S
C1981 H1961 0.950 . S
C1981 C1977 1.385 . S
C1981 C1980 1.374 . S
C1982 C1979 1.499 . S
C1982 C1983 1.373 . S
C1982 C1984 1.389 . S
C1983 H1962 0.950 . S
C1983 C1982 1.373 . S
C1983 C1999 1.377 . S
C1984 C1982 1.389 . S
C1984 C1985 1.524 . S
C1984 C1998 1.377 . S
C1985 C1984 1.524 . S
C1985 C1986 1.397 . S
C1985 C1990 1.363 . S
C1986 H1963 0.950 . S
C1986 C1985 1.397 . S
C1986 C1987 1.334 . S
C1987 H1964 0.950 . S
C1987 C1986 1.334 . S
C1987 C1988 1.287 . S
C1988 C1987 1.287 . S
C1988 C1989 1.524 . S
C1988 H2007 0.913 . S
C1989 H1965 0.950 . S
C1989 C1988 1.524 . S
C1989 C1990 1.415 . S
C1990 H1966 0.950 . S
C1990 C1985 1.363 . S
C1990 C1989 1.415 . S
C1991 H1967 0.951 . S
C1991 C1992 1.366 . S
C1991 C1993 1.388 . S
C1992 C1991 1.366 . S
C1992 C1996 1.385 . S
C1993 H1968 0.951 . S
C1993 C1991 1.388 . S
C1993 C1994 1.366 . S
C1994 C1993 1.366 . S
C1994 C1995 1.414 . S
C1994 C1997 1.499 . S
C1995 H1969 0.950 . S
C1995 C1994 1.414 . S
C1995 C1996 1.374 . S
C1996 H1970 0.950 . S
C1996 C1992 1.385 . S
C1996 C1995 1.374 . S
C1997 C1994 1.499 . S
C1997 C1998 1.373 . S
C1997 C1999 1.389 . S
C1998 H1971 0.950 . S
C1998 C1984 1.377 . S
C1998 C1997 1.373 . S
C1999 C1983 1.377 . S
C1999 C1997 1.389 . S
C1999 C2000 1.524 . S
C2000 C1999 1.524 . S
C2000 C2001 1.397 . S
C2000 C2005 1.363 . S
C2001 H1972 0.950 . S
C2001 C2000 1.397 . S
C2001 C2002 1.334 . S
C2002 H1973 0.950 . S
C2002 C2001 1.334 . S
C2002 C2003 1.287 . S
C2003 C2002 1.287 . S
C2003 C2004 1.524 . S
C2003 H2006 0.999 . S
C2004 H1974 0.950 . S
C2004 C2003 1.524 . S
C2004 C2005 1.415 . S
C2005 H1975 0.950 . S
C2005 C2000 1.363 . S
C2005 C2004 1.415 . S
H2006 C2003 0.999 . S
H2007 C1988 0.913 . S
H2008 C2026 0.951 . S
H2009 C2028 0.951 . S
H2010 C2030 0.950 . S
H2011 C2031 0.950 . S
H2012 C2033 0.950 . S
H2013 C2036 0.950 . S
H2014 C2037 0.950 . S
H2015 C2039 0.950 . S
H2016 C2040 0.950 . S
H2017 C2041 0.951 . S
H2018 C2043 0.951 . S
H2019 C2045 0.950 . S
H2020 C2046 0.950 . S
H2021 C2048 0.950 . S
H2022 C2051 0.950 . S
H2023 C2052 0.950 . S
H2024 C2054 0.950 . S
H2025 C2055 0.950 . S
C2026 H2008 0.951 . S
C2026 C2027 1.366 . S
C2026 C2028 1.388 . S
C2027 C2026 1.366 . S
C2027 C2031 1.385 . S
C2028 H2009 0.951 . S
C2028 C2026 1.388 . S
C2028 C2029 1.366 . S
C2029 C2028 1.366 . S
C2029 C2030 1.414 . S
C2029 C2032 1.499 . S
C2030 H2010 0.950 . S
C2030 C2029 1.414 . S
C2030 C2031 1.374 . S
C2031 H2011 0.950 . S
C2031 C2027 1.385 . S
C2031 C2030 1.374 . S
C2032 C2029 1.499 . S
C2032 C2033 1.373 . S
C2032 C2034 1.389 . S
C2033 H2012 0.950 . S
C2033 C2032 1.373 . S
C2033 C2049 1.377 . S
C2034 C2032 1.389 . S
C2034 C2035 1.524 . S
C2034 C2048 1.377 . S
C2035 C2034 1.524 . S
C2035 C2036 1.397 . S
C2035 C2040 1.363 . S
C2036 H2013 0.950 . S
C2036 C2035 1.397 . S
C2036 C2037 1.334 . S
C2037 H2014 0.950 . S
C2037 C2036 1.334 . S
C2037 C2038 1.287 . S
C2038 C2037 1.287 . S
C2038 C2039 1.524 . S
C2038 H2057 0.913 . S
C2039 H2015 0.950 . S
C2039 C2038 1.524 . S
C2039 C2040 1.415 . S
C2040 H2016 0.950 . S
C2040 C2035 1.363 . S
C2040 C2039 1.415 . S
C2041 H2017 0.951 . S
C2041 C2042 1.366 . S
C2041 C2043 1.388 . S
C2042 C2041 1.366 . S
C2042 C2046 1.385 . S
C2043 H2018 0.951 . S
C2043 C2041 1.388 . S
C2043 C2044 1.366 . S
C2044 C2043 1.366 . S
C2044 C2045 1.414 . S
C2044 C2047 1.499 . S
C2045 H2019 0.950 . S
C2045 C2044 1.414 . S
C2045 C2046 1.374 . S
C2046 H2020 0.950 . S
C2046 C2042 1.385 . S
C2046 C2045 1.374 . S
C2047 C2044 1.499 . S
C2047 C2048 1.373 . S
C2047 C2049 1.389 . S
C2048 H2021 0.950 . S
C2048 C2034 1.377 . S
C2048 C2047 1.373 . S
C2049 C2033 1.377 . S
C2049 C2047 1.389 . S
C2049 C2050 1.524 . S
C2050 C2049 1.524 . S
C2050 C2051 1.397 . S
C2050 C2055 1.363 . S
C2051 H2022 0.950 . S
C2051 C2050 1.397 . S
C2051 C2052 1.334 . S
C2052 H2023 0.950 . S
C2052 C2051 1.334 . S
C2052 C2053 1.287 . S
C2053 C2052 1.287 . S
C2053 C2054 1.524 . S
C2053 H2056 0.999 . S
C2054 H2024 0.950 . S
C2054 C2053 1.524 . S
C2054 C2055 1.415 . S
C2055 H2025 0.950 . S
C2055 C2050 1.363 . S
C2055 C2054 1.415 . S
H2056 C2053 0.999 . S
H2057 C2038 0.913 . S
H2058 C2076 0.951 . S
H2059 C2078 0.951 . S
H2060 C2080 0.950 . S
H2061 C2081 0.950 . S
H2062 C2083 0.950 . S
H2063 C2086 0.950 . S
H2064 C2087 0.950 . S
H2065 C2089 0.950 . S
H2066 C2090 0.950 . S
H2067 C2091 0.951 . S
H2068 C2093 0.951 . S
H2069 C2095 0.950 . S
H2070 C2096 0.950 . S
H2071 C2098 0.950 . S
H2072 C2101 0.950 . S
H2073 C2102 0.950 . S
H2074 C2104 0.950 . S
H2075 C2105 0.950 . S
C2076 H2058 0.951 . S
C2076 C2077 1.366 . S
C2076 C2078 1.388 . S
C2077 C2076 1.366 . S
C2077 C2081 1.385 . S
C2078 H2059 0.951 . S
C2078 C2076 1.388 . S
C2078 C2079 1.366 . S
C2079 C2078 1.366 . S
C2079 C2080 1.414 . S
C2079 C2082 1.499 . S
C2080 H2060 0.950 . S
C2080 C2079 1.414 . S
C2080 C2081 1.374 . S
C2081 H2061 0.950 . S
C2081 C2077 1.385 . S
C2081 C2080 1.374 . S
C2082 C2079 1.499 . S
C2082 C2083 1.373 . S
C2082 C2084 1.389 . S
C2083 H2062 0.950 . S
C2083 C2082 1.373 . S
C2083 C2099 1.377 . S
C2084 C2082 1.389 . S
C2084 C2085 1.524 . S
C2084 C2098 1.377 . S
C2085 C2084 1.524 . S
C2085 C2086 1.397 . S
C2085 C2090 1.363 . S
C2086 H2063 0.950 . S
C2086 C2085 1.397 . S
C2086 C2087 1.334 . S
C2087 H2064 0.950 . S
C2087 C2086 1.334 . S
C2087 C2088 1.287 . S
C2088 C2087 1.287 . S
C2088 C2089 1.524 . S
C2088 H2107 0.913 . S
C2089 H2065 0.950 . S
C2089 C2088 1.524 . S
C2089 C2090 1.415 . S
C2090 H2066 0.950 . S
C2090 C2085 1.363 . S
C2090 C2089 1.415 . S
C2091 H2067 0.951 . S
C2091 C2092 1.366 . S
C2091 C2093 1.388 . S
C2092 C2091 1.366 . S
C2092 C2096 1.385 . S
C2093 H2068 0.951 . S
C2093 C2091 1.388 . S
C2093 C2094 1.366 . S
C2094 C2093 1.366 . S
C2094 C2095 1.414 . S
C2094 C2097 1.499 . S
C2095 H2069 0.950 . S
C2095 C2094 1.414 . S
C2095 C2096 1.374 . S
C2096 H2070 0.950 . S
C2096 C2092 1.385 . S
C2096 C2095 1.374 . S
C2097 C2094 1.499 . S
C2097 C2098 1.373 . S
C2097 C2099 1.389 . S
C2098 H2071 0.950 . S
C2098 C2084 1.377 . S
C2098 C2097 1.373 . S
C2099 C2083 1.377 . S
C2099 C2097 1.389 . S
C2099 C2100 1.524 . S
C2100 C2099 1.524 . S
C2100 C2101 1.397 . S
C2100 C2105 1.363 . S
C2101 H2072 0.950 . S
C2101 C2100 1.397 . S
C2101 C2102 1.334 . S
C2102 H2073 0.950 . S
C2102 C2101 1.334 . S
C2102 C2103 1.287 . S
C2103 C2102 1.287 . S
C2103 C2104 1.524 . S
C2103 H2106 0.999 . S
C2104 H2074 0.950 . S
C2104 C2103 1.524 . S
C2104 C2105 1.415 . S
C2105 H2075 0.950 . S
C2105 C2100 1.363 . S
C2105 C2104 1.415 . S
H2106 C2103 0.999 . S
H2107 C2088 0.913 . S
H2108 C2126 0.951 . S
H2109 C2128 0.951 . S
H2110 C2130 0.950 . S
H2111 C2131 0.950 . S
H2112 C2133 0.950 . S
H2113 C2136 0.950 . S
H2114 C2137 0.950 . S
H2115 C2139 0.950 . S
H2116 C2140 0.950 . S
H2117 C2141 0.951 . S
H2118 C2143 0.951 . S
H2119 C2145 0.950 . S
H2120 C2146 0.950 . S
H2121 C2148 0.950 . S
H2122 C2151 0.950 . S
H2123 C2152 0.950 . S
H2124 C2154 0.950 . S
H2125 C2155 0.950 . S
C2126 H2108 0.951 . S
C2126 C2127 1.366 . S
C2126 C2128 1.388 . S
C2127 C2126 1.366 . S
C2127 C2131 1.385 . S
C2128 H2109 0.951 . S
C2128 C2126 1.388 . S
C2128 C2129 1.366 . S
C2129 C2128 1.366 . S
C2129 C2130 1.414 . S
C2129 C2132 1.499 . S
C2130 H2110 0.950 . S
C2130 C2129 1.414 . S
C2130 C2131 1.374 . S
C2131 H2111 0.950 . S
C2131 C2127 1.385 . S
C2131 C2130 1.374 . S
C2132 C2129 1.499 . S
C2132 C2133 1.373 . S
C2132 C2134 1.389 . S
C2133 H2112 0.950 . S
C2133 C2132 1.373 . S
C2133 C2149 1.377 . S
C2134 C2132 1.389 . S
C2134 C2135 1.524 . S
C2134 C2148 1.377 . S
C2135 C2134 1.524 . S
C2135 C2136 1.397 . S
C2135 C2140 1.363 . S
C2136 H2113 0.950 . S
C2136 C2135 1.397 . S
C2136 C2137 1.334 . S
C2137 H2114 0.950 . S
C2137 C2136 1.334 . S
C2137 C2138 1.287 . S
C2138 C2137 1.287 . S
C2138 C2139 1.524 . S
C2138 H2157 0.913 . S
C2139 H2115 0.950 . S
C2139 C2138 1.524 . S
C2139 C2140 1.415 . S
C2140 H2116 0.950 . S
C2140 C2135 1.363 . S
C2140 C2139 1.415 . S
C2141 H2117 0.951 . S
C2141 C2142 1.366 . S
C2141 C2143 1.388 . S
C2142 C2141 1.366 . S
C2142 C2146 1.385 . S
C2143 H2118 0.951 . S
C2143 C2141 1.388 . S
C2143 C2144 1.366 . S
C2144 C2143 1.366 . S
C2144 C2145 1.414 . S
C2144 C2147 1.499 . S
C2145 H2119 0.950 . S
C2145 C2144 1.414 . S
C2145 C2146 1.374 . S
C2146 H2120 0.950 . S
C2146 C2142 1.385 . S
C2146 C2145 1.374 . S
C2147 C2144 1.499 . S
C2147 C2148 1.373 . S
C2147 C2149 1.389 . S
C2148 H2121 0.950 . S
C2148 C2134 1.377 . S
C2148 C2147 1.373 . S
C2149 C2133 1.377 . S
C2149 C2147 1.389 . S
C2149 C2150 1.524 . S
C2150 C2149 1.524 . S
C2150 C2151 1.397 . S
C2150 C2155 1.363 . S
C2151 H2122 0.950 . S
C2151 C2150 1.397 . S
C2151 C2152 1.334 . S
C2152 H2123 0.950 . S
C2152 C2151 1.334 . S
C2152 C2153 1.287 . S
C2153 C2152 1.287 . S
C2153 C2154 1.524 . S
C2153 H2156 0.999 . S
C2154 H2124 0.950 . S
C2154 C2153 1.524 . S
C2154 C2155 1.415 . S
C2155 H2125 0.950 . S
C2155 C2150 1.363 . S
C2155 C2154 1.415 . S
H2156 C2153 0.999 . S
H2157 C2138 0.913 . S
H2158 C2176 0.951 . S
H2159 C2178 0.951 . S
H2160 C2180 0.950 . S
H2161 C2181 0.950 . S
H2162 C2183 0.950 . S
H2163 C2186 0.950 . S
H2164 C2187 0.950 . S
H2165 C2189 0.950 . S
H2166 C2190 0.950 . S
H2167 C2191 0.951 . S
H2168 C2193 0.951 . S
H2169 C2195 0.950 . S
H2170 C2196 0.950 . S
H2171 C2198 0.950 . S
H2172 C2201 0.950 . S
H2173 C2202 0.950 . S
H2174 C2204 0.950 . S
H2175 C2205 0.950 . S
C2176 H2158 0.951 . S
C2176 C2177 1.366 . S
C2176 C2178 1.388 . S
C2177 C2176 1.366 . S
C2177 C2181 1.385 . S
C2178 H2159 0.951 . S
C2178 C2176 1.388 . S
C2178 C2179 1.366 . S
C2179 C2178 1.366 . S
C2179 C2180 1.414 . S
C2179 C2182 1.499 . S
C2180 H2160 0.950 . S
C2180 C2179 1.414 . S
C2180 C2181 1.374 . S
C2181 H2161 0.950 . S
C2181 C2177 1.385 . S
C2181 C2180 1.374 . S
C2182 C2179 1.499 . S
C2182 C2183 1.373 . S
C2182 C2184 1.389 . S
C2183 H2162 0.950 . S
C2183 C2182 1.373 . S
C2183 C2199 1.377 . S
C2184 C2182 1.389 . S
C2184 C2185 1.524 . S
C2184 C2198 1.377 . S
C2185 C2184 1.524 . S
C2185 C2186 1.397 . S
C2185 C2190 1.363 . S
C2186 H2163 0.950 . S
C2186 C2185 1.397 . S
C2186 C2187 1.334 . S
C2187 H2164 0.950 . S
C2187 C2186 1.334 . S
C2187 C2188 1.287 . S
C2188 C2187 1.287 . S
C2188 C2189 1.524 . S
C2188 H2207 0.913 . S
C2189 H2165 0.950 . S
C2189 C2188 1.524 . S
C2189 C2190 1.415 . S
C2190 H2166 0.950 . S
C2190 C2185 1.363 . S
C2190 C2189 1.415 . S
C2191 H2167 0.951 . S
C2191 C2192 1.366 . S
C2191 C2193 1.388 . S
C2192 C2191 1.366 . S
C2192 C2196 1.385 . S
C2193 H2168 0.951 . S
C2193 C2191 1.388 . S
C2193 C2194 1.366 . S
C2194 C2193 1.366 . S
C2194 C2195 1.414 . S
C2194 C2197 1.499 . S
C2195 H2169 0.950 . S
C2195 C2194 1.414 . S
C2195 C2196 1.374 . S
C2196 H2170 0.950 . S
C2196 C2192 1.385 . S
C2196 C2195 1.374 . S
C2197 C2194 1.499 . S
C2197 C2198 1.373 . S
C2197 C2199 1.389 . S
C2198 H2171 0.950 . S
C2198 C2184 1.377 . S
C2198 C2197 1.373 . S
C2199 C2183 1.377 . S
C2199 C2197 1.389 . S
C2199 C2200 1.524 . S
C2200 C2199 1.524 . S
C2200 C2201 1.397 . S
C2200 C2205 1.363 . S
C2201 H2172 0.950 . S
C2201 C2200 1.397 . S
C2201 C2202 1.334 . S
C2202 H2173 0.950 . S
C2202 C2201 1.334 . S
C2202 C2203 1.287 . S
C2203 C2202 1.287 . S
C2203 C2204 1.524 . S
C2203 H2206 0.999 . S
C2204 H2174 0.950 . S
C2204 C2203 1.524 . S
C2204 C2205 1.415 . S
C2205 H2175 0.950 . S
C2205 C2200 1.363 . S
C2205 C2204 1.415 . S
H2206 C2203 0.999 . S
H2207 C2188 0.913 . S
C642 C517 1.325 . S
C627 C35 1.216 . S
C692 C537 1.276 . S
C677 C115 1.216 . S
C742 C551 1.309 . S
C727 C177 1.247 . S
C777 C221 1.315 . S
C792 C509 1.395 . S
C827 C283 1.385 . S
C842 C503 1.544 . S
C877 C363 1.351 . S
C892 C523 1.430 . S
C942 C531 1.367 . S
C927 C407 1.256 . S
C992 C545 1.491 . S
C977 C469 1.348 . S
C1027 C159 1.347 . S
C1042 C573 1.491 . S
C1092 C587 1.367 . S
C1077 C239 1.264 . S
C1127 C53 1.352 . S
C1142 C607 1.431 . S
C1192 C559 1.544 . S
C1177 C97 1.386 . S
C1227 C425 1.323 . S
C1242 C565 1.395 . S
C1277 C487 1.247 . S
C1292 C579 1.310 . S
C1342 C593 1.276 1_556 S
C1327 C301 1.216 . S
C1377 C345 1.217 . S
C1392 C601 1.325 . S
C1442 C532 1.873 . S
C1427 C29 1.857 . S
C1492 C546 1.866 . S
C1477 C109 1.807 . S
C1527 C171 1.729 . S
C1542 C504 1.786 . S
C1577 C215 1.557 . S
C1592 C521 1.592 . S
C1627 C277 1.492 . S
C1642 C549 1.521 . S
C1692 C507 1.497 . S
C1677 C357 1.442 . S
C1742 C518 1.775 . S
C1727 C401 1.758 . S
C1792 C535 1.596 . S
C1777 C463 1.567 . S
C1842 C591 1.596 . S
C1827 C153 1.567 . S
C1892 C602 1.775 . S
C1877 C233 1.733 . S
C1927 C47 1.443 . S
C1942 C563 1.498 . S
C1992 C577 1.521 . S
C1977 C91 1.491 . S
C2042 C605 1.592 . S
C2027 C419 1.531 . S
C2077 C481 1.728 . S
C2092 C560 1.786 . S
C2142 C574 1.866 . S
C2127 C295 1.807 . S
C2192 C588 1.873 . S
C2177 C339 1.857 . S
