# Generated by pormake.
# Topology zzz, (3,6)-cn, num edge types: 1
# Building blocks:
#     Node 0, Type 0, BuildingBlock: MIDCAF_clean_linker_0, # of connection points: 3
#     Node 1, Type 0, BuildingBlock: MIDCAF_clean_linker_0, # of connection points: 3
#     Node 2, Type 0, BuildingBlock: MIDCAF_clean_linker_0, # of connection points: 3
#     Node 3, Type 0, BuildingBlock: MIDCAF_clean_linker_0, # of connection points: 3
#     Node 4, Type 0, BuildingBlock: MIDCAF_clean_linker_0, # of connection points: 3
#     Node 5, Type 0, BuildingBlock: MIDCAF_clean_linker_0, # of connection points: 3
#     Node 6, Type 0, BuildingBlock: MIDCAF_clean_linker_0, # of connection points: 3
#     Node 7, Type 0, BuildingBlock: MIDCAF_clean_linker_0, # of connection points: 3
#     Node 8, Type 1, BuildingBlock: GEDQOX_clean_sbu_0, # of connection points: 6
#     Node 9, Type 1, BuildingBlock: GEDQOX_clean_sbu_0, # of connection points: 6
#     Node 10, Type 1, BuildingBlock: GEDQOX_clean_sbu_0, # of connection points: 6
#     Node 11, Type 1, BuildingBlock: GEDQOX_clean_sbu_0, # of connection points: 6
#     Edge 12, Type (0, 1), BuildingBlock: ZUJKAS_clean_linker_0, # of connection points: 2
#     Edge 13, Type (0, 1), BuildingBlock: ZUJKAS_clean_linker_0, # of connection points: 2
#     Edge 14, Type (0, 1), BuildingBlock: ZUJKAS_clean_linker_0, # of connection points: 2
#     Edge 15, Type (0, 1), BuildingBlock: ZUJKAS_clean_linker_0, # of connection points: 2
#     Edge 16, Type (0, 1), BuildingBlock: ZUJKAS_clean_linker_0, # of connection points: 2
#     Edge 17, Type (0, 1), BuildingBlock: ZUJKAS_clean_linker_0, # of connection points: 2
#     Edge 18, Type (0, 1), BuildingBlock: ZUJKAS_clean_linker_0, # of connection points: 2
#     Edge 19, Type (0, 1), BuildingBlock: ZUJKAS_clean_linker_0, # of connection points: 2
#     Edge 20, Type (0, 1), BuildingBlock: ZUJKAS_clean_linker_0, # of connection points: 2
#     Edge 21, Type (0, 1), BuildingBlock: ZUJKAS_clean_linker_0, # of connection points: 2
#     Edge 22, Type (0, 1), BuildingBlock: ZUJKAS_clean_linker_0, # of connection points: 2
#     Edge 23, Type (0, 1), BuildingBlock: ZUJKAS_clean_linker_0, # of connection points: 2
#     Edge 24, Type (0, 1), BuildingBlock: ZUJKAS_clean_linker_0, # of connection points: 2
#     Edge 25, Type (0, 1), BuildingBlock: ZUJKAS_clean_linker_0, # of connection points: 2
#     Edge 26, Type (0, 1), BuildingBlock: ZUJKAS_clean_linker_0, # of connection points: 2
#     Edge 27, Type (0, 1), BuildingBlock: ZUJKAS_clean_linker_0, # of connection points: 2
#     Edge 28, Type (0, 1), BuildingBlock: ZUJKAS_clean_linker_0, # of connection points: 2
#     Edge 29, Type (0, 1), BuildingBlock: ZUJKAS_clean_linker_0, # of connection points: 2
#     Edge 30, Type (0, 1), BuildingBlock: ZUJKAS_clean_linker_0, # of connection points: 2
#     Edge 31, Type (0, 1), BuildingBlock: ZUJKAS_clean_linker_0, # of connection points: 2
#     Edge 32, Type (0, 1), BuildingBlock: ZUJKAS_clean_linker_0, # of connection points: 2
#     Edge 33, Type (0, 1), BuildingBlock: ZUJKAS_clean_linker_0, # of connection points: 2
#     Edge 34, Type (0, 1), BuildingBlock: ZUJKAS_clean_linker_0, # of connection points: 2
#     Edge 35, Type (0, 1), BuildingBlock: ZUJKAS_clean_linker_0, # of connection points: 2
# Relax obj value: 0.305
# Max RMSD: 0.255
# Mean RMSD: 0.205
data_MOF--net-zzz--node1-GEDQOX_clean_sbu_0--node2-MIDCAF_clean_linker_0--edge1-ZUJKAS_clean_linker_0
_symmetry_space_group_name_H-M    P1
_symmetry_Int_Tables_number       1
_symmetry_cell_setting            triclinic
loop_
_symmetry_equiv_pos_as_xyz
'x, y, z'
_cell_length_a     77.021157
_cell_length_b     72.589239
_cell_length_c     26.449383
_cell_angle_alpha  83.621684
_cell_angle_beta   91.252479
_cell_angle_gamma 100.98232
loop_
_atom_site_label
_atom_site_type_symbol
_atom_site_fract_x
_atom_site_fract_y
_atom_site_fract_z
_atom_type_partial_charge
C0 C 0.79525 0.43809 0.28701 0.0
C1 C 0.79106 0.45406 0.30579 0.0
C2 C 0.7781 0.46296 0.28064 0.0
C3 C 0.7699 0.45633 0.23664 0.0
H4 H 0.7211 0.44706 0.14894 0.0
H5 H 0.69389 0.45543 0.11351 0.0
H6 H 0.70948 0.44593 0.964 0.0
H7 H 0.73641 0.43692 0.99971 0.0
H8 H 0.77108 0.41975 0.98778 0.0
H9 H 0.79325 0.41099 0.93525 0.0
H10 H 0.82386 0.39943 0.06989 0.0
H11 H 0.80171 0.40772 0.12223 0.0
H12 H 0.79124 0.41966 0.22846 0.0
H13 H 0.8053 0.43104 0.30528 0.0
H14 H 0.77456 0.47524 0.29451 0.0
H15 H 0.76034 0.4638 0.21723 0.0
N16 N 0.75288 0.4401 0.14652 0.0
N17 N 0.75767 0.42749 0.07104 0.0
N18 N 0.7779 0.42669 0.13826 0.0
C19 C 0.74751 0.43603 0.09896 0.0
C20 C 0.77286 0.4227 0.0906 0.0
C21 C 0.76806 0.43539 0.16642 0.0
C22 C 0.73097 0.44128 0.07725 0.0
C23 C 0.71875 0.44675 0.10849 0.0
C24 C 0.70316 0.45167 0.08807 0.0
C25 C 0.69945 0.45142 0.03579 0.0
C26 C 0.71172 0.44601 0.00454 0.0
C27 C 0.72725 0.44092 0.02504 0.0
C28 C 0.78473 0.41474 0.0592 0.0
C29 C 0.78236 0.41496 0.00627 0.0
C30 C 0.7951 0.41002 0.97611 0.0
C31 C 0.81041 0.40466 0.99829 0.0
C32 C 0.81217 0.4033 0.05149 0.0
C33 C 0.79951 0.40827 0.08154 0.0
C34 C 0.77475 0.4409 0.21654 0.0
C35 C 0.78727 0.43165 0.24277 0.0
C36 C 0.93451 0.755 0.36777 0.0
C37 C 0.9504 0.75709 0.39555 0.0
C38 C 0.96331 0.74681 0.38392 0.0
C39 C 0.96085 0.73576 0.3431 0.0
H40 H 0.96379 0.68055 0.25723 0.0
H41 H 0.97035 0.65186 0.22634 0.0
H42 H 0.9395 0.66173 0.09122 0.0
H43 H 0.93316 0.69009 0.12134 0.0
H44 H 0.94497 0.73449 0.07112 0.0
H45 H 0.95054 0.75992 0.00178 0.0
H46 H 0.95057 0.80076 0.10888 0.0
H47 H 0.94457 0.7755 0.17775 0.0
H48 H 0.9204 0.74408 0.30357 0.0
H49 H 0.92437 0.76284 0.37519 0.0
H50 H 0.97565 0.74805 0.40483 0.0
H51 H 0.97148 0.72906 0.33262 0.0
N52 N 0.94693 0.71126 0.25279 0.0
N53 N 0.94514 0.72018 0.16479 0.0
N54 N 0.94374 0.74213 0.22177 0.0
C55 C 0.94653 0.70673 0.20391 0.0
C56 C 0.94387 0.7379 0.17325 0.0
C57 C 0.94518 0.729 0.26156 0.0
C58 C 0.94822 0.68775 0.19134 0.0
C59 C 0.95817 0.67633 0.22145 0.0
C60 C 0.96194 0.65995 0.20373 0.0
C61 C 0.95577 0.6548 0.15577 0.0
C62 C 0.94486 0.66559 0.12762 0.0
C63 C 0.94117 0.68183 0.14507 0.0
C64 C 0.94456 0.75294 0.13022 0.0
C65 C 0.94586 0.74888 0.0798 0.0
C66 C 0.94915 0.76345 0.04002 0.0
C67 C 0.95119 0.78238 0.04982 0.0
C68 C 0.9489 0.78634 0.09981 0.0
C69 C 0.94557 0.7718 0.1395 0.0
C70 C 0.94555 0.73502 0.31303 0.0
C71 C 0.93219 0.74422 0.32673 0.0
C72 C 0.71116 0.98477 0.27082 0.0
C73 C 0.72093 0.98622 0.3161 0.0
C74 C 0.73933 0.99272 0.31327 0.0
C75 C 0.74774 0.99784 0.2659 0.0
H76 H 0.7936 0.99172 0.17229 0.0
H77 H 0.82378 0.98965 0.14987 0.0
H78 H 0.82042 0.02707 0.01268 0.0
H79 H 0.79054 0.0293 0.03494 0.0
H80 H 0.75177 0.02612 0.98372 0.0
H81 H 0.73193 0.03225 0.913 0.0
H82 H 0.68793 0.02165 0.0174 0.0
H83 H 0.70745 0.01531 0.08761 0.0
H84 H 0.71141 0.98905 0.18976 0.0
H85 H 0.69694 0.98006 0.27171 0.0
H86 H 0.74718 0.99394 0.34765 0.0
H87 H 0.76189 0.00305 0.26472 0.0
N88 N 0.76362 0.00442 0.16247 0.0
N89 N 0.76027 0.01578 0.07672 0.0
N90 N 0.73583 0.00887 0.13099 0.0
C91 C 0.77078 0.01052 0.11551 0.0
C92 C 0.74279 0.01502 0.08416 0.0
C93 C 0.74607 0.00361 0.17033 0.0
C94 C 0.78961 0.01058 0.10526 0.0
C95 C 0.79941 0.99971 0.13772 0.0
C96 C 0.81663 0.99841 0.12475 0.0
C97 C 0.82443 0.00815 0.07946 0.0
C98 C 0.81485 0.01954 0.04806 0.0
C99 C 0.79764 0.0207 0.06071 0.0
C100 C 0.7312 0.02001 0.04139 0.0
C101 C 0.73787 0.02517 0.99163 0.0
C102 C 0.72655 0.02876 0.95111 0.0
C103 C 0.70837 0.02716 0.95962 0.0
C104 C 0.70183 0.02259 0.00951 0.0
C105 C 0.71308 0.01905 0.04985 0.0
C106 C 0.73781 0.99688 0.2207 0.0
C107 C 0.71947 0.99009 0.22379 0.0
C108 C 0.6052 0.72894 0.1753 0.0
C109 C 0.60266 0.73689 0.12537 0.0
C110 C 0.60066 0.75585 0.11736 0.0
C111 C 0.5995 0.76601 0.15868 0.0
H112 H 0.60028 0.82054 0.22376 0.0
H113 H 0.5899 0.84913 0.19108 0.0
H114 H 0.54221 0.83073 0.28036 0.0
H115 H 0.55279 0.8018 0.31346 0.0
H116 H 0.55677 0.75914 0.40418 0.0
H117 H 0.54909 0.73446 0.47584 0.0
H118 H 0.59642 0.71327 0.44856 0.0
H119 H 0.60405 0.73775 0.37834 0.0
H120 H 0.605 0.73205 0.25453 0.0
H121 H 0.60667 0.71435 0.18306 0.0
H122 H 0.599 0.76249 0.07928 0.0
H123 H 0.59686 0.78019 0.15123 0.0
N124 N 0.59012 0.78334 0.24475 0.0
N125 N 0.57927 0.77976 0.32854 0.0
N126 N 0.59191 0.75604 0.2984 0.0
C127 C 0.58255 0.79033 0.28251 0.0
C128 C 0.58434 0.76264 0.33679 0.0
C129 C 0.59474 0.76617 0.25222 0.0
C130 C 0.57732 0.80893 0.27104 0.0
C131 C 0.58773 0.82275 0.23727 0.0
C132 C 0.58181 0.8392 0.21872 0.0
C133 C 0.5652 0.8422 0.23297 0.0
C134 C 0.55504 0.82874 0.26848 0.0
C135 C 0.56113 0.8123 0.28777 0.0
C136 C 0.58094 0.75031 0.38546 0.0
C137 C 0.5657 0.74947 0.41451 0.0
C138 C 0.56124 0.73524 0.45516 0.0
C139 C 0.5721 0.7218 0.46785 0.0
C140 C 0.58783 0.72344 0.44043 0.0
C141 C 0.59215 0.73744 0.3998 0.0
C142 C 0.60027 0.75737 0.20881 0.0
C143 C 0.60407 0.73908 0.21652 0.0
C144 C 0.22817 0.57244 0.29402 0.0
C145 C 0.23396 0.55895 0.2677 0.0
C146 C 0.24894 0.55177 0.28575 0.0
C147 C 0.25741 0.55732 0.3305 0.0
H148 H 0.30271 0.55623 0.42241 0.0
H149 H 0.32975 0.54623 0.45453 0.0
H150 H 0.32032 0.56255 0.60215 0.0
H151 H 0.29322 0.57222 0.57066 0.0
H152 H 0.2505 0.57027 0.59384 0.0
H153 H 0.22635 0.57207 0.65052 0.0
H154 H 0.2028 0.60409 0.52985 0.0
H155 H 0.22666 0.60194 0.47238 0.0
H156 H 0.23126 0.58774 0.3591 0.0
H157 H 0.21659 0.57812 0.28145 0.0
H158 H 0.25381 0.5415 0.26597 0.0
H159 H 0.2685 0.55099 0.34441 0.0
N160 N 0.27347 0.56883 0.42635 0.0
N161 N 0.26834 0.57662 0.50783 0.0
N162 N 0.24766 0.57983 0.44284 0.0
C163 C 0.2789 0.57056 0.47525 0.0
C164 C 0.25277 0.58139 0.49181 0.0
C165 C 0.25787 0.57355 0.40985 0.0
C166 C 0.29569 0.56499 0.4939 0.0
C167 C 0.30639 0.55772 0.46171 0.0
C168 C 0.32195 0.55206 0.48004 0.0
C169 C 0.32715 0.55351 0.53098 0.0
C170 C 0.31655 0.56094 0.56296 0.0
C171 C 0.30103 0.56661 0.54469 0.0
C172 C 0.24037 0.5858 0.52851 0.0
C173 C 0.24045 0.57813 0.5797 0.0
C174 C 0.22667 0.57914 0.61216 0.0
C175 C 0.21287 0.58825 0.59431 0.0
C176 C 0.21344 0.59715 0.54439 0.0
C177 C 0.22702 0.59581 0.51157 0.0
C178 C 0.25094 0.56998 0.35839 0.0
C179 C 0.23652 0.57785 0.33885 0.0
C180 C 0.09054 0.25156 0.22021 0.0
C181 C 0.07439 0.2483 0.19384 0.0
C182 C 0.06086 0.25762 0.20634 0.0
C183 C 0.06304 0.2689 0.24668 0.0
H184 H 0.0556 0.32225 0.33244 0.0
H185 H 0.04788 0.35074 0.36128 0.0
H186 H 0.08086 0.3446 0.49397 0.0
H187 H 0.08858 0.31667 0.46531 0.0
H188 H 0.0687 0.26695 0.51123 0.0
H189 H 0.06365 0.23961 0.57471 0.0
H190 H 0.09055 0.20928 0.47944 0.0
H191 H 0.09496 0.2364 0.41495 0.0
H192 H 0.10467 0.26357 0.283 0.0
H193 H 0.10116 0.24447 0.21202 0.0
H194 H 0.04831 0.25546 0.1865 0.0
H195 H 0.05202 0.27484 0.2579 0.0
N196 N 0.07564 0.2941 0.33561 0.0
N197 N 0.07844 0.2857 0.42357 0.0
N198 N 0.08195 0.2644 0.3665 0.0
C199 C 0.07575 0.29864 0.38443 0.0
C200 C 0.08147 0.26856 0.41498 0.0
C201 C 0.07908 0.27696 0.32677 0.0
C202 C 0.0726 0.31715 0.39674 0.0
C203 C 0.06142 0.32727 0.3672 0.0
C204 C 0.0569 0.34346 0.38394 0.0
C205 C 0.06374 0.34994 0.42999 0.0
C206 C 0.0755 0.3402 0.45808 0.0
C207 C 0.07982 0.32404 0.44178 0.0
C208 C 0.08191 0.25369 0.45763 0.0
C209 C 0.07387 0.25459 0.50425 0.0
C210 C 0.07103 0.23891 0.54083 0.0
C211 C 0.07637 0.2221 0.53173 0.0
C212 C 0.08581 0.22182 0.48698 0.0
C213 C 0.08844 0.2374 0.45014 0.0
C214 C 0.07868 0.27079 0.27546 0.0
C215 C 0.09258 0.26253 0.26083 0.0
C216 C 0.30668 0.99123 0.31099 0.0
C217 C 0.30234 0.00579 0.27637 0.0
C218 C 0.28805 0.01416 0.28766 0.0
C219 C 0.27873 0.00852 0.33341 0.0
H220 H 0.22692 1.00036 0.41787 0.0
H221 H 0.19931 0.00908 0.44251 0.0
H222 H 0.21868 0.01215 0.59631 0.0
H223 H 0.24605 0.00327 0.57216 0.0
H224 H 0.27971 0.98365 0.60626 0.0
H225 H 0.29937 0.97209 0.67011 0.0
H226 H 0.31618 0.93825 0.5626 0.0
H227 H 0.29727 0.95081 0.49792 0.0
H228 H 0.30156 0.97473 0.38282 0.0
H229 H 0.31774 0.98462 0.30394 0.0
H230 H 0.28426 0.02529 0.26151 0.0
H231 H 0.26813 0.01563 0.34163 0.0
N232 N 0.26087 0.9968 0.43169 0.0
N233 N 0.26304 0.98464 0.51724 0.0
N234 N 0.2836 0.98047 0.45777 0.0
C235 C 0.25455 0.99401 0.48017 0.0
C236 C 0.27746 0.97767 0.50618 0.0
C237 C 0.27551 0.99011 0.42032 0.0
C238 C 0.23858 0.001 0.49317 0.0
C239 C 0.22534 0.00313 0.45675 0.0
C240 C 0.20955 0.00803 0.47084 0.0
C241 C 0.20691 0.01127 0.52127 0.0
C242 C 0.22044 0.00988 0.5571 0.0
C243 C 0.23604 0.00466 0.5433 0.0
C244 C 0.28722 0.96837 0.54692 0.0
C245 C 0.28743 0.97353 0.59657 0.0
C246 C 0.29864 0.96676 0.63335 0.0
C247 C 0.30962 0.95439 0.62151 0.0
C248 C 0.30833 0.94817 0.57276 0.0
C249 C 0.29743 0.95528 0.5357 0.0
C250 C 0.28361 0.9945 0.36896 0.0
C251 C 0.29745 0.98565 0.3566 0.0
C252 C 0.41592 0.2734 0.38426 0.0
C253 C 0.42179 0.26826 0.43366 0.0
C254 C 0.42603 0.25024 0.44501 0.0
C255 C 0.42613 0.23848 0.40674 0.0
H256 H 0.41951 0.17981 0.34543 0.0
H257 H 0.42922 0.15141 0.38346 0.0
H258 H 0.47881 0.16878 0.30278 0.0
H259 H 0.46888 0.19741 0.26405 0.0
H260 H 0.46823 0.24283 0.17506 0.0
H261 H 0.47675 0.26755 0.10389 0.0
H262 H 0.4246 0.28119 0.1047 0.0
H263 H 0.4163 0.25692 0.17592 0.0
H264 H 0.41284 0.2667 0.30742 0.0
H265 H 0.41206 0.28694 0.37455 0.0
H266 H 0.43067 0.24577 0.48248 0.0
H267 H 0.43067 0.22529 0.41624 0.0
N268 N 0.43124 0.21734 0.324 0.0
N269 N 0.44225 0.21923 0.24092 0.0
N270 N 0.43008 0.24403 0.26698 0.0
C271 C 0.43862 0.20943 0.28776 0.0
C272 C 0.43756 0.23645 0.2302 0.0
C273 C 0.42705 0.23467 0.31412 0.0
C274 C 0.44346 0.19079 0.30187 0.0
C275 C 0.43232 0.17736 0.33483 0.0
C276 C 0.43786 0.16104 0.35647 0.0
C277 C 0.45481 0.15788 0.34629 0.0
C278 C 0.4657 0.17091 0.31147 0.0
C279 C 0.45999 0.18717 0.28899 0.0
C280 C 0.44161 0.248 0.18081 0.0
C281 C 0.45849 0.25077 0.15891 0.0
C282 C 0.46339 0.265 0.11859 0.0
C283 C 0.45134 0.27633 0.0989 0.0
C284 C 0.43411 0.2726 0.11871 0.0
C285 C 0.42937 0.25873 0.15954 0.0
C286 C 0.42224 0.24459 0.35617 0.0
C287 C 0.41628 0.26175 0.34581 0.0
Nd288 Nd 0.00249 0.99816 0.75498 0.0
Nd289 Nd 0.02596 0.00516 0.84583 0.0
C290 C 0.97856 0.98226 0.692 0.0
C291 C 0.97484 0.96342 0.67326 0.0
C292 C 0.97349 0.94678 0.70694 0.0
C293 C 0.97138 0.92916 0.68833 0.0
C294 C 0.97069 0.92781 0.63566 0.0
C295 C 0.97176 0.94445 0.60211 0.0
C296 C 0.97378 0.96205 0.62074 0.0
C297 C 0.03759 0.00913 0.73179 0.0
C298 C 0.01747 0.96273 0.82138 0.0
C299 C 0.04975 0.02111 0.90916 0.0
C300 C 0.05362 0.04006 0.92741 0.0
C301 C 0.05717 0.05661 0.8932 0.0
C302 C 0.05935 0.07439 0.91084 0.0
C303 C 0.05798 0.07604 0.96304 0.0
C304 C 0.05479 0.05948 0.99724 0.0
C305 C 0.05268 0.0417 0.97961 0.0
C306 C 0.99068 0.99482 0.86884 0.0
C307 C 0.01145 0.04065 0.77823 0.0
O308 O 0.97535 0.98298 0.74011 0.0
O309 O 0.99341 0.99321 0.67651 0.0
O310 O 0.0251 0.01504 0.70466 0.0
O311 O 0.03143 0.99733 0.76875 0.0
O312 O 0.00556 0.96849 0.79002 0.0
O313 O 0.029 0.97461 0.84525 0.0
O314 O 0.05314 0.0201 0.86135 0.0
O315 O 0.03477 0.01038 0.92435 0.0
O316 O 0.00308 0.98877 0.8961 0.0
O317 O 0.9971 0.00636 0.8317 0.0
O318 O 0.0235 0.03481 0.809 0.0
O319 O 0.99948 0.0287 0.7559 0.0
H320 H 0.97443 0.94735 0.74766 0.0
H321 H 0.9708 0.91665 0.71518 0.0
H322 H 0.97106 0.94387 0.56136 0.0
H323 H 0.97482 0.97466 0.59403 0.0
H324 H 0.05785 0.05587 0.85264 0.0
H325 H 0.06161 0.08684 0.88341 0.0
H326 H 0.0539 0.06025 0.03774 0.0
H327 H 0.04998 0.02918 0.00677 0.0
Nd328 Nd 0.51568 0.98602 0.76818 0.0
Nd329 Nd 0.50708 0.02066 0.82441 0.0
C330 C 0.53174 0.95996 0.73878 0.0
C331 C 0.54896 0.96098 0.7147 0.0
C332 C 0.5564 0.94479 0.71519 0.0
C333 C 0.57304 0.94597 0.69344 0.0
C334 C 0.58255 0.96342 0.67139 0.0
C335 C 0.57503 0.97962 0.67132 0.0
C336 C 0.55836 0.97837 0.69253 0.0
C337 C 0.50151 0.01289 0.70918 0.0
C338 C 0.54685 0.02427 0.78142 0.0
C339 C 0.49218 0.049 0.84245 0.0
C340 C 0.47734 0.04955 0.87578 0.0
C341 C 0.4698 0.06571 0.87411 0.0
C342 C 0.45503 0.06563 0.90421 0.0
C343 C 0.44764 0.04937 0.93637 0.0
C344 C 0.45534 0.03323 0.93779 0.0
C345 C 0.47003 0.03333 0.90777 0.0
C346 C 0.51464 0.99199 0.89446 0.0
C347 C 0.4769 0.98164 0.81504 0.0
O348 O 0.53246 0.96447 0.78545 0.0
O349 O 0.52006 0.96739 0.71074 0.0
O350 O 0.49802 0.99505 0.70251 0.0
O351 O 0.51282 0.01601 0.74401 0.0
O352 O 0.54209 0.00721 0.76642 0.0
O353 O 0.53594 0.03295 0.80356 0.0
O354 O 0.48789 0.03932 0.80353 0.0
O355 O 0.50665 0.0455 0.86564 0.0
O356 O 0.51142 0.00775 0.90759 0.0
O357 O 0.51397 0.99274 0.84691 0.0
O358 O 0.48053 0.99999 0.81946 0.0
O359 O 0.48882 0.97212 0.8019 0.0
H360 H 0.54936 0.93127 0.73246 0.0
H361 H 0.57855 0.93328 0.69428 0.0
H362 H 0.58188 0.9932 0.65394 0.0
H363 H 0.55276 0.99099 0.69141 0.0
H364 H 0.47523 0.0783 0.8493 0.0
H365 H 0.44946 0.07831 0.90253 0.0
H366 H 0.4498 0.02037 0.96134 0.0
H367 H 0.47556 0.02063 0.90899 0.0
Nd368 Nd 0.5015 0.50553 0.82333 0.0
Nd369 Nd 0.52192 0.49219 0.74312 0.0
C370 C 0.48356 0.52488 0.87428 0.0
C371 C 0.4891 0.5439 0.89111 0.0
C372 C 0.49103 0.5602 0.8559 0.0
C373 C 0.50016 0.57752 0.86936 0.0
C374 C 0.5075 0.57881 0.91818 0.0
C375 C 0.50429 0.56291 0.95452 0.0
C376 C 0.49508 0.54565 0.94122 0.0
C377 C 0.53405 0.4986 0.85474 0.0
C378 C 0.52681 0.53685 0.74107 0.0
C379 C 0.54065 0.47277 0.69499 0.0
C380 C 0.53715 0.45253 0.68773 0.0
C381 C 0.5333 0.43863 0.72953 0.0
C382 C 0.52602 0.42 0.72197 0.0
C383 C 0.5224 0.41493 0.67258 0.0
C384 C 0.52756 0.42852 0.6308 0.0
C385 C 0.53489 0.44715 0.63835 0.0
C386 C 0.48977 0.49993 0.71123 0.0
C387 C 0.49577 0.46101 0.82359 0.0
O388 O 0.4817 0.524 0.82522 0.0
O389 O 0.49176 0.51192 0.89629 0.0
O390 O 0.5202 0.49487 0.88372 0.0
O391 O 0.53076 0.50673 0.81202 0.0
O392 O 0.51319 0.53297 0.7726 0.0
O393 O 0.53469 0.5234 0.72829 0.0
O394 O 0.54426 0.47701 0.74139 0.0
O395 O 0.52961 0.48252 0.67172 0.0
O396 O 0.50379 0.50374 0.68275 0.0
O397 O 0.4927 0.49134 0.75376 0.0
O398 O 0.50961 0.46467 0.79291 0.0
O399 O 0.48805 0.47458 0.83614 0.0
H400 H 0.4864 0.5594 0.81711 0.0
H401 H 0.50241 0.5896 0.8407 0.0
H402 H 0.50952 0.56367 0.99276 0.0
H403 H 0.49358 0.53342 0.96937 0.0
H404 H 0.53492 0.44229 0.76817 0.0
H405 H 0.52247 0.40975 0.75487 0.0
H406 H 0.52485 0.4251 0.59223 0.0
H407 H 0.53773 0.45761 0.60558 0.0
Nd408 Nd 0.99768 0.51408 0.76421 0.0
Nd409 Nd 0.01869 0.48677 0.83503 0.0
C410 C 0.97479 0.5358 0.73486 0.0
C411 C 0.95805 0.53127 0.70721 0.0
C412 C 0.94764 0.54492 0.69391 0.0
C413 C 0.93169 0.5402 0.66762 0.0
C414 C 0.92594 0.52172 0.65449 0.0
C415 C 0.93653 0.50815 0.66808 0.0
C416 C 0.95239 0.51287 0.69417 0.0
C417 C 0.00669 0.48695 0.70926 0.0
C418 C 0.9777 0.47159 0.81364 0.0
C419 C 0.04304 0.46807 0.87323 0.0
C420 C 0.06035 0.4744 0.89639 0.0
C421 C 0.07249 0.46226 0.90448 0.0
C422 C 0.08899 0.46845 0.92641 0.0
C423 C 0.09359 0.48691 0.94055 0.0
C424 C 0.08136 0.49907 0.93169 0.0
C425 C 0.06494 0.49288 0.90975 0.0
C426 C 0.00266 0.51052 0.88377 0.0
C427 C 0.03981 0.52845 0.77992 0.0
O428 O 0.97492 0.52697 0.78089 0.0
O429 O 0.98908 0.53575 0.70877 0.0
O430 O 0.99844 0.50003 0.68941 0.0
O431 O 0.00959 0.48912 0.75526 0.0
O432 O 0.9766 0.48941 0.79934 0.0
O433 O 0.99302 0.46613 0.8225 0.0
O434 O 0.04183 0.47351 0.82462 0.0
O435 O 0.0293 0.46993 0.89918 0.0
O436 O 0.00408 0.49364 0.90344 0.0
O437 O 0.01055 0.51463 0.84154 0.0
O438 O 0.04027 0.5125 0.80909 0.0
O439 O 0.02518 0.53285 0.75898 0.0
H440 H 0.95182 0.55918 0.70386 0.0
H441 H 0.92378 0.55093 0.658 0.0
H442 H 0.93272 0.4939 0.65777 0.0
H443 H 0.96031 0.50215 0.70404 0.0
H444 H 0.06921 0.44801 0.8939 0.0
H445 H 0.09816 0.4588 0.93206 0.0
H446 H 0.0843 0.51325 0.94274 0.0
H447 H 0.05573 0.50249 0.9036 0.0
H448 H 0.17418 0.99107 0.5044 0.0
H449 H 0.14608 0.99464 0.53953 0.0
H450 H 0.17276 0.04302 0.61054 0.0
H451 H 0.20105 0.03903 0.57681 0.0
H452 H 0.1518 0.02015 0.67605 0.0
H453 H 0.11383 0.03053 0.4991 0.0
H454 H 0.12234 0.00913 0.50188 0.0
H455 H 0.1374 0.03152 0.49885 0.0
C456 C 0.17397 0.00269 0.52666 0.0
C457 C 0.18973 0.01485 0.5377 0.0
C458 C 0.1579 0.00477 0.54659 0.0
C459 C 0.15723 0.01932 0.57694 0.0
C460 C 0.17294 0.03174 0.58707 0.0
H461 H 0.05369 0.03765 0.66378 0.0
H462 H 0.08372 0.04245 0.62998 0.0
C463 C 0.18906 0.02948 0.56778 0.0
C464 C 0.14035 0.02072 0.60092 0.0
H465 H 0.09674 0.02079 0.57578 0.0
C466 C 0.13981 0.02055 0.65403 0.0
C467 C 0.12474 0.0216 0.57224 0.0
C468 C 0.12465 0.02342 0.51483 0.0
C469 C 0.12398 0.02055 0.67938 0.0
C470 C 0.10814 0.02004 0.651 0.0
C471 C 0.10882 0.02091 0.59773 0.0
C472 C 0.09064 0.0182 0.67549 0.0
C473 C 0.1245 0.02126 0.73622 0.0
C474 C 0.08458 0.00311 0.71283 0.0
C475 C 0.06754 1.00058 0.73287 0.0
C476 C 0.05613 0.01279 0.71487 0.0
C477 C 0.06224 0.028 0.6781 0.0
C478 C 0.07937 0.03073 0.65875 0.0
H479 H 0.13777 0.02816 0.74887 0.0
H480 H 0.11451 0.029 0.74861 0.0
H481 H 0.12173 0.00664 0.75561 0.0
H482 H 0.09281 0.99293 0.72535 0.0
H483 H 0.06306 0.98865 0.76092 0.0
H484 H 0.43771 0.12116 0.366 0.0
H485 H 0.44681 0.09633 0.42549 0.0
H486 H 0.49558 0.13392 0.45426 0.0
H487 H 0.48659 0.15886 0.3949 0.0
H488 H 0.48418 0.0825 0.42915 0.0
H489 H 0.46496 0.11514 0.59537 0.0
H490 H 0.45498 0.11868 0.53346 0.0
H491 H 0.47728 0.13013 0.54421 0.0
C492 C 0.45048 0.12405 0.38449 0.0
C493 C 0.46143 0.14197 0.37585 0.0
C494 C 0.45565 0.10986 0.41834 0.0
C495 C 0.47177 0.1134 0.44443 0.0
C496 C 0.48307 0.13099 0.43446 0.0
H497 H 0.51373 0.05094 0.70392 0.0
H498 H 0.50675 0.07531 0.63906 0.0
C499 C 0.47797 0.14515 0.40028 0.0
C500 C 0.47633 0.09904 0.48409 0.0
H501 H 0.47653 0.08738 0.61274 0.0
C502 C 0.48255 0.08351 0.46932 0.0
C503 C 0.47425 0.10054 0.53632 0.0
C504 C 0.46744 0.11695 0.55373 0.0
C505 C 0.48689 0.06944 0.50564 0.0
C506 C 0.48444 0.07069 0.55805 0.0
C507 C 0.47834 0.08636 0.57266 0.0
C508 C 0.48818 0.05594 0.5983 0.0
C509 C 0.49444 0.05361 0.48748 0.0
C510 C 0.47968 0.03703 0.59791 0.0
C511 C 0.48375 0.02309 0.63467 0.0
C512 C 0.49619 0.02784 0.67299 0.0
C513 C 0.50413 0.04687 0.67469 0.0
C514 C 0.50017 0.06079 0.63764 0.0
H515 H 0.50035 0.05766 0.44896 0.0
H516 H 0.50471 0.0494 0.51401 0.0
H517 H 0.48367 0.04117 0.48523 0.0
H518 H 0.46997 0.03301 0.56895 0.0
H519 H 0.47729 0.00856 0.63277 0.0
H520 H 0.35942 0.5592 0.48425 0.0
H521 H 0.38643 0.54917 0.51777 0.0
H522 H 0.35916 0.52437 0.65675 0.0
H523 H 0.33198 0.53382 0.62302 0.0
H524 H 0.40485 0.55917 0.60697 0.0
H525 H 0.38182 0.48156 0.61479 0.0
H526 H 0.37041 0.49822 0.57864 0.0
H527 H 0.36774 0.49373 0.64647 0.0
C528 C 0.3591 0.55137 0.52165 0.0
C529 C 0.34353 0.54727 0.55089 0.0
C530 C 0.37456 0.54577 0.54086 0.0
C531 C 0.37472 0.53584 0.58947 0.0
C532 C 0.35924 0.53175 0.61882 0.0
H533 H 0.45883 0.49271 0.76508 0.0
H534 H 0.43064 0.5018 0.73789 0.0
C535 C 0.34378 0.53735 0.59968 0.0
C536 C 0.39125 0.53027 0.60999 0.0
H537 H 0.40983 0.49213 0.65109 0.0
C538 C 0.40596 0.54452 0.61653 0.0
C539 C 0.39259 0.51114 0.62276 0.0
C540 C 0.37737 0.49524 0.61498 0.0
C541 C 0.422 0.54016 0.63566 0.0
C542 C 0.42343 0.52103 0.6477 0.0
C543 C 0.40866 0.50678 0.64187 0.0
C544 C 0.44038 0.51553 0.66439 0.0
C545 C 0.43723 0.55608 0.64335 0.0
C546 C 0.45505 0.52 0.63178 0.0
C547 C 0.47107 0.51483 0.64713 0.0
C548 C 0.47267 0.50499 0.69527 0.0
C549 C 0.45793 0.5003 0.72777 0.0
C550 C 0.44186 0.50548 0.71232 0.0
H551 H 0.43264 0.56957 0.64582 0.0
H552 H 0.44473 0.55278 0.67846 0.0
H553 H 0.4464 0.55819 0.61054 0.0
H554 H 0.45409 0.52743 0.59427 0.0
H555 H 0.4822 0.51858 0.62125 0.0
H556 H 0.08423 0.37866 0.4753 0.0
H557 H 0.07428 0.40217 0.52119 0.0
H558 H 0.0204 0.3814 0.47798 0.0
H559 H 0.03021 0.35739 0.43321 0.0
H560 H 0.05619 0.43085 0.49177 0.0
H561 H 0.01749 0.37734 0.63321 0.0
H562 H 0.033 0.37153 0.59018 0.0
H563 H 0.01134 0.37449 0.56825 0.0
C564 C 0.07025 0.37911 0.47545 0.0
C565 C 0.05799 0.36599 0.45107 0.0
C566 C 0.0646 0.39261 0.50156 0.0
C567 C 0.04656 0.39328 0.504 0.0
C568 C 0.03435 0.38086 0.47755 0.0
H569 H 0.00214 0.48348 0.60868 0.0
H570 H 0.01199 0.46075 0.55972 0.0
C571 C 0.04 0.36732 0.45137 0.0
C572 C 0.0406 0.40674 0.53512 0.0
H573 H 0.01505 0.40922 0.63732 0.0
C574 C 0.04719 0.42613 0.52357 0.0
C575 C 0.02914 0.40053 0.57729 0.0
C576 C 0.02244 0.37984 0.59342 0.0
C577 C 0.04239 0.43949 0.55244 0.0
C578 C 0.03043 0.43333 0.59347 0.0
C579 C 0.02409 0.41393 0.60561 0.0
C580 C 0.02418 0.44684 0.62377 0.0
C581 C 0.05041 0.46007 0.53923 0.0
C582 C 0.02723 0.44621 0.67649 0.0
C583 C 0.02147 0.45914 0.70473 0.0
C584 C 0.01252 0.47285 0.68066 0.0
C585 C 0.00916 0.47318 0.62817 0.0
C586 C 0.01488 0.46028 0.60006 0.0
H587 H 0.0628 0.4619 0.51695 0.0
H588 H 0.0409 0.46705 0.51574 0.0
H589 H 0.05336 0.46736 0.57405 0.0
H590 H 0.03424 0.43583 0.69565 0.0
H591 H 0.02404 0.45845 0.74521 0.0
H592 H 0.85156 0.0356 0.04016 0.0
H593 H 0.87955 0.03133 0.00538 0.0
H594 H 0.86529 0.97128 0.04723 0.0
H595 H 0.83711 0.97538 0.0814 0.0
H596 H 0.90705 0.01378 0.05435 0.0
H597 H 0.87583 0.97753 0.89131 0.0
H598 H 0.86435 0.99105 0.92792 0.0
H599 H 0.86721 0.96783 0.95328 0.0
C600 C 0.8544 0.02149 0.04202 0.0
C601 C 0.84211 0.00581 0.06323 0.0
C602 C 0.8704 0.01909 0.02232 0.0
C603 C 0.87431 0.00097 0.02311 0.0
C604 C 0.86236 0.98534 0.04568 0.0
H605 H 0.97654 0.97515 0.95667 0.0
H606 H 0.94777 0.97551 0.99369 0.0
C607 C 0.84638 0.98774 0.06565 0.0
C608 C 0.89085 0.99851 0.99964 0.0
H609 H 0.90681 0.98038 0.90035 0.0
C610 C 0.90703 0.00642 0.02081 0.0
C611 C 0.89069 0.98911 0.95552 0.0
C612 C 0.87362 0.98099 0.93025 0.0
C613 C 0.92314 0.00507 0.99916 0.0
C614 C 0.92299 0.99541 0.95552 0.0
C615 C 0.90682 0.98762 0.93409 0.0
C616 C 0.9396 0.99373 0.93101 0.0
C617 C 0.9402 0.01431 0.02249 0.0
C618 C 0.94418 0.00329 0.88269 0.0
C619 C 0.96059 0.0031 0.8614 0.0
C620 C 0.97259 0.99327 0.88814 0.0
C621 C 0.9676 0.98296 0.93541 0.0
C622 C 0.95122 0.9832 0.95669 0.0
H623 H 0.93799 0.02437 0.04932 0.0
H624 H 0.94651 0.00327 0.04381 0.0
H625 H 0.94957 0.02197 0.99249 0.0
H626 H 0.93529 0.0114 0.86223 0.0
H627 H 0.96409 0.01108 0.82477 0.0
H628 H 0.58257 0.8788 0.21349 0.0
H629 H 0.57258 0.90448 0.15992 0.0
H630 H 0.52232 0.86814 0.13879 0.0
H631 H 0.53221 0.84242 0.19259 0.0
H632 H 0.56353 0.90374 0.05969 0.0
H633 H 0.5073 0.91648 0.1698 0.0
H634 H 0.52334 0.90312 0.19743 0.0
H635 H 0.50576 0.89229 0.15835 0.0
C636 C 0.56929 0.87637 0.19804 0.0
C637 C 0.55818 0.85857 0.20728 0.0
C638 C 0.5636 0.89105 0.16743 0.0
C639 C 0.54667 0.88829 0.14551 0.0
C640 C 0.53531 0.87074 0.15605 0.0
H641 H 0.51683 0.95627 0.87471 0.0
H642 H 0.52436 0.93069 0.93481 0.0
C643 C 0.54098 0.85604 0.18689 0.0
C644 C 0.54148 0.90334 0.10874 0.0
H645 H 0.5107 0.93146 0.08499 0.0
C646 C 0.552 0.90984 0.0653 0.0
C647 C 0.52651 0.91138 0.11622 0.0
C648 C 0.51515 0.90561 0.16319 0.0
C649 C 0.54794 0.92406 0.02907 0.0
C650 C 0.53273 0.93178 0.0359 0.0
C651 C 0.52226 0.92539 0.07951 0.0
C652 C 0.52784 0.94703 0.99925 0.0
C653 C 0.56023 0.931 0.98443 0.0
C654 C 0.52684 0.96453 0.01567 0.0
C655 C 0.52252 0.97908 0.98145 0.0
C656 C 0.51912 0.97642 0.9301 0.0
C657 C 0.51982 0.95882 0.91376 0.0
C658 C 0.52409 0.94422 0.9481 0.0
H659 H 0.57342 0.92714 0.99148 0.0
H660 H 0.55445 0.92448 0.95037 0.0
H661 H 0.56204 0.94657 0.9758 0.0
H662 H 0.52959 0.967 0.05495 0.0
H663 H 0.52197 0.99247 0.99516 0.0
H664 H 0.68287 0.47938 0.0612 0.0
H665 H 0.65505 0.48721 0.0279 0.0
H666 H 0.6511 0.44426 0.92568 0.0
H667 H 0.67839 0.43559 0.96073 0.0
H668 H 0.64567 0.49992 0.93352 0.0
H669 H 0.60346 0.43045 0.99429 0.0
H670 H 0.62592 0.43689 0.0161 0.0
H671 H 0.62152 0.42891 0.95425 0.0
C672 C 0.67597 0.47137 0.03221 0.0
C673 C 0.68283 0.4567 0.01411 0.0
C674 C 0.66014 0.476 0.01284 0.0
C675 C 0.65083 0.46611 0.9749 0.0
C676 C 0.65785 0.45181 0.95575 0.0
H677 H 0.56428 0.50446 0.79809 0.0
H678 H 0.59292 0.49666 0.82508 0.0
C679 C 0.6736 0.44705 0.97539 0.0
C680 C 0.63381 0.47086 0.95544 0.0
H681 H 0.59003 0.45228 0.94122 0.0
C682 C 0.63349 0.48952 0.93523 0.0
C683 C 0.61789 0.45732 0.9583 0.0
C684 C 0.61712 0.43732 0.98235 0.0
C685 C 0.61769 0.49501 0.91774 0.0
C686 C 0.60186 0.48135 0.91936 0.0
C687 C 0.6022 0.4627 0.93957 0.0
C688 C 0.58463 0.4862 0.90239 0.0
C689 C 0.61804 0.5155 0.89914 0.0
C690 C 0.57032 0.48245 0.93637 0.0
C691 C 0.55392 0.48658 0.92077 0.0
C692 C 0.55152 0.49458 0.87091 0.0
C693 C 0.56581 0.49836 0.83682 0.0
C694 C 0.5822 0.49405 0.85232 0.0
H695 H 0.62988 0.52483 0.91323 0.0
H696 H 0.61847 0.51737 0.85695 0.0
H697 H 0.60603 0.52017 0.91144 0.0
H698 H 0.57186 0.47636 0.97511 0.0
H699 H 0.54312 0.48348 0.94782 0.0
H700 H 0.96725 0.65515 0.05912 0.0
H701 H 0.97503 0.6292 0.01882 0.0
H702 H 0.96547 0.59299 0.15996 0.0
H703 H 0.9573 0.61901 0.20067 0.0
H704 H 0.00187 0.60797 0.04672 0.0
H705 H 0.93452 0.56321 0.05391 0.0
H706 H 0.93833 0.58794 0.06301 0.0
H707 H 0.94343 0.57098 0.11303 0.0
C708 C 0.96666 0.64163 0.08161 0.0
C709 C 0.96141 0.63905 0.13294 0.0
C710 C 0.97122 0.62685 0.05855 0.0
C711 C 0.97058 0.6091 0.08613 0.0
C712 C 0.96577 0.60651 0.13778 0.0
H713 H 0.98961 0.50485 0.98033 0.0
H714 H 0.98191 0.52843 0.03086 0.0
C715 C 0.96126 0.62141 0.16108 0.0
C716 C 0.97501 0.59349 0.06016 0.0
H717 H 0.95705 0.55143 0.01645 0.0
C718 C 0.9921 0.59556 0.04029 0.0
C719 C 0.96224 0.57733 0.05186 0.0
C720 C 0.94354 0.57467 0.07117 0.0
C721 C 0.99677 0.58193 0.01217 0.0
C722 C 0.98388 0.56599 0.00267 0.0
C723 C 0.96688 0.56372 0.02349 0.0
C724 C 0.98779 0.55159 0.97107 0.0
C725 C 0.01555 0.58463 0.99339 0.0
C726 C 0.99319 0.55665 0.92019 0.0
C727 C 0.99764 0.54321 0.89128 0.0
C728 C 0.99663 0.52443 0.91265 0.0
C729 C 0.99059 0.51924 0.96294 0.0
C730 C 0.98619 0.53269 0.99185 0.0
H731 H 0.02479 0.59441 0.01552 0.0
H732 H 0.02015 0.57096 0.99573 0.0
H733 H 0.01619 0.59082 0.95303 0.0
H734 H 0.9941 0.57105 0.90295 0.0
H735 H 0.00213 0.54758 0.85249 0.0
H736 H 0.06473 0.18676 0.50397 0.0
H737 H 0.05274 0.15804 0.55841 0.0
H738 H 0.06124 0.18847 0.69046 0.0
H739 H 0.07393 0.21742 0.63633 0.0
H740 H 0.07162 0.14231 0.65753 0.0
H741 H 0.00511 0.1606 0.67706 0.0
H742 H 0.0189 0.17 0.62226 0.0
H743 H 0.02485 0.17819 0.68285 0.0
C744 C 0.06449 0.18736 0.54467 0.0
C745 C 0.07042 0.20442 0.56578 0.0
C746 C 0.05745 0.17095 0.5756 0.0
C747 C 0.05602 0.17129 0.62811 0.0
C748 C 0.06215 0.18809 0.64978 0.0
H749 H 0.02732 0.06838 0.83405 0.0
H750 H 0.03659 0.1018 0.80391 0.0
C751 C 0.06934 0.20457 0.61882 0.0
C752 C 0.04797 0.15389 0.65962 0.0
H753 H 0.00861 0.12999 0.71032 0.0
C754 C 0.05794 0.13967 0.66988 0.0
C755 C 0.03009 0.15059 0.67489 0.0
C756 C 0.01898 0.16557 0.66382 0.0
C757 C 0.05033 0.12194 0.69424 0.0
C758 C 0.03232 0.11848 0.7087 0.0
C759 C 0.02242 0.13282 0.69929 0.0
C760 C 0.02355 0.09959 0.73102 0.0
C761 C 0.06137 0.10676 0.70271 0.0
C762 C 0.01241 0.08762 0.70084 0.0
C763 C 0.00712 0.06846 0.71788 0.0
C764 C 0.01303 0.06116 0.76518 0.0
C765 C 0.02287 0.07359 0.79701 0.0
C766 C 0.02811 0.09267 0.78003 0.0
H767 H 0.07431 0.11092 0.68282 0.0
H768 H 0.06392 0.1039 0.74403 0.0
H769 H 0.05418 0.09343 0.68928 0.0
H770 H 0.00878 0.09281 0.66285 0.0
H771 H 0.99954 0.0592 0.6926 0.0
H772 H 0.34304 0.95041 0.59829 0.0
H773 H 0.36755 0.94781 0.65623 0.0
H774 H 0.33374 0.94706 0.78432 0.0
H775 H 0.30857 0.94865 0.7266 0.0
H776 H 0.37111 0.97996 0.74319 0.0
H777 H 0.3734 0.90418 0.79759 0.0
H778 H 0.36612 0.91134 0.73436 0.0
H779 H 0.35278 0.91257 0.78807 0.0
C780 C 0.34047 0.94891 0.63875 0.0
C781 C 0.32372 0.94982 0.65755 0.0
C782 C 0.35459 0.94752 0.67183 0.0
C783 C 0.35236 0.94717 0.7243 0.0
C784 C 0.3356 0.94718 0.74379 0.0
H785 H 0.45172 0.9891 0.87636 0.0
H786 H 0.41975 0.97782 0.87111 0.0
C787 C 0.32132 0.94831 0.71067 0.0
C788 C 0.36823 0.94982 0.75673 0.0
H789 H 0.39931 0.9265 0.81263 0.0
C790 C 0.37717 0.96835 0.75967 0.0
C791 C 0.37596 0.93454 0.77732 0.0
C792 C 0.36662 0.91446 0.77458 0.0
C793 C 0.39432 0.9721 0.77953 0.0
C794 C 0.40248 0.95679 0.79861 0.0
C795 C 0.39302 0.9382 0.79836 0.0
C796 C 0.42152 0.95984 0.8121 0.0
C797 C 0.40398 0.99239 0.7759 0.0
C798 C 0.43315 0.95217 0.78403 0.0
C799 C 0.45141 0.95814 0.78813 0.0
C800 C 0.45826 0.97209 0.81977 0.0
C801 C 0.44671 0.97855 0.85104 0.0
C802 C 0.42846 0.9722 0.84789 0.0
H803 H 0.39713 0.00192 0.75033 0.0
H804 H 0.40475 0.99737 0.81419 0.0
H805 H 0.41765 0.99374 0.7615 0.0
H806 H 0.42809 0.94253 0.75638 0.0
H807 H 0.46004 0.95293 0.76365 0.0
H808 H 0.43621 0.3056 0.41257 0.0
H809 H 0.44867 0.32768 0.47224 0.0
H810 H 0.4313 0.28557 0.59803 0.0
H811 H 0.41823 0.26324 0.53823 0.0
H812 H 0.43468 0.34142 0.55865 0.0
H813 H 0.48661 0.29839 0.60834 0.0
H814 H 0.47258 0.29511 0.55325 0.0
H815 H 0.4638 0.28689 0.61569 0.0
C816 C 0.43441 0.30111 0.45284 0.0
C817 C 0.42625 0.28253 0.47047 0.0
C818 C 0.4417 0.31376 0.48696 0.0
C819 C 0.44112 0.30813 0.53937 0.0
C820 C 0.43208 0.29004 0.55756 0.0
H821 H 0.49286 0.39645 0.72492 0.0
H822 H 0.47239 0.36822 0.70386 0.0
C823 C 0.42466 0.27733 0.52334 0.0
C824 C 0.45141 0.32087 0.5737 0.0
H825 H 0.49084 0.32835 0.63684 0.0
C826 C 0.44676 0.33846 0.57683 0.0
C827 C 0.46725 0.31693 0.5967 0.0
C828 C 0.47302 0.29837 0.59335 0.0
C829 C 0.45796 0.35261 0.60035 0.0
C830 C 0.47412 0.34892 0.62166 0.0
C831 C 0.47839 0.33103 0.62062 0.0
C832 C 0.48761 0.36414 0.63967 0.0
C833 C 0.45295 0.37177 0.5994 0.0
C834 C 0.50332 0.37061 0.61195 0.0
C835 C 0.51515 0.38659 0.62419 0.0
C836 C 0.51147 0.39633 0.6645 0.0
C837 C 0.49618 0.38915 0.694 0.0
C838 C 0.48436 0.37315 0.68172 0.0
H839 H 0.44133 0.37312 0.57458 0.0
H840 H 0.44962 0.37408 0.63852 0.0
H841 H 0.46421 0.38309 0.58581 0.0
H842 H 0.50607 0.36375 0.57946 0.0
H843 H 0.52691 0.39166 0.60118 0.0
H844 H 0.19029 0.5557 0.6206 0.0
H845 H 0.1617 0.55129 0.66266 0.0
H846 H 0.17057 0.61082 0.68021 0.0
H847 H 0.19884 0.61537 0.63465 0.0
H848 H 0.15176 0.55529 0.75151 0.0
H849 H 0.12348 0.60562 0.61515 0.0
H850 H 0.14446 0.59924 0.60444 0.0
H851 H 0.1428 0.61623 0.64793 0.0
C852 C 0.18612 0.5678 0.6337 0.0
C853 C 0.19661 0.58584 0.62456 0.0
C854 C 0.1698 0.5653 0.65776 0.0
C855 C 0.16375 0.58077 0.67395 0.0
C856 C 0.17465 0.59876 0.66676 0.0
H857 H 0.06493 0.54116 0.84794 0.0
H858 H 0.09507 0.5583 0.82884 0.0
C859 C 0.19085 0.60134 0.64134 0.0
C860 C 0.1459 0.57767 0.69731 0.0
H861 H 0.10515 0.58959 0.68209 0.0
C862 C 0.14157 0.56284 0.73645 0.0
C863 C 0.13259 0.58752 0.6776 0.0
C864 C 0.13597 0.60292 0.63369 0.0
C865 C 0.12417 0.55674 0.75415 0.0
C866 C 0.11081 0.56654 0.7343 0.0
C867 C 0.11536 0.58211 0.69735 0.0
C868 C 0.09179 0.55961 0.74699 0.0
C869 C 0.12025 0.53906 0.79125 0.0
C870 C 0.07939 0.55623 0.70759 0.0
C871 C 0.06195 0.54735 0.71861 0.0
C872 C 0.05675 0.54133 0.76909 0.0
C873 C 0.06877 0.54561 0.80865 0.0
C874 C 0.08604 0.55514 0.79771 0.0
H875 H 0.13086 0.53061 0.79151 0.0
H876 H 0.11933 0.54303 0.83028 0.0
H877 H 0.10758 0.52993 0.78193 0.0
H878 H 0.08341 0.55961 0.66812 0.0
H879 H 0.05288 0.54405 0.68757 0.0
H880 H 0.94039 0.81635 0.03273 0.0
H881 H 0.9539 0.84385 0.9759 0.0
H882 H 0.98892 0.81139 0.91759 0.0
H883 H 0.97608 0.78404 0.97636 0.0
H884 H 0.00696 0.84342 0.94531 0.0
H885 H 0.95093 0.85955 0.82661 0.0
H886 H 0.94521 0.85745 0.89257 0.0
H887 H 0.9499 0.83725 0.86526 0.0
C888 C 0.95085 0.81499 0.00749 0.0
C889 C 0.95722 0.79803 0.00935 0.0
C890 C 0.9584 0.83066 0.97446 0.0
C891 C 0.97227 0.82961 0.94197 0.0
C892 C 0.97815 0.81247 0.9421 0.0
H893 H 0.00764 0.93644 0.75587 0.0
H894 H 0.00014 0.90226 0.77706 0.0
C895 C 0.97068 0.7968 0.97544 0.0
C896 C 0.98178 0.84696 0.91229 0.0
H897 H 0.97474 0.8861 0.83728 0.0
C898 C -0.0 0.85259 0.92077 0.0
C899 C 0.97284 0.85874 0.87936 0.0
C900 C 0.95368 0.8528 0.86499 0.0
C901 C 0.00923 0.87028 0.90004 0.0
C902 C -0.00014 0.88283 0.87136 0.0
C903 C 0.98192 0.87664 0.85997 0.0
C904 C 0.0078 0.9029 0.85621 0.0
C905 C 0.02884 0.87537 0.90972 0.0
C906 C 0.0152 0.91461 0.89319 0.0
C907 C 0.0198 0.93414 0.88087 0.0
C908 C 0.01662 0.94225 0.83175 0.0
C909 C 0.01011 0.93049 0.79416 0.0
C910 C 0.00581 0.91097 0.80621 0.0
H911 H 0.03493 0.86258 0.91377 0.0
H912 H 0.03567 0.8855 0.8786 0.0
H913 H 0.03106 0.88186 0.94593 0.0
H914 H 0.01641 0.90882 0.93234 0.0
H915 H 0.02457 0.94296 0.91063 0.0
H916 H 0.67657 0.00499 0.94412 0.0
H917 H 0.65441 0.01076 0.88073 0.0
H918 H 0.68982 0.06047 0.8139 0.0
H919 H 0.71206 0.05506 0.87918 0.0
H920 H 0.65846 0.06837 0.82995 0.0
H921 H 0.64697 0.00406 0.73381 0.0
H922 H 0.64635 0.99696 0.80082 0.0
H923 H 0.66651 0.01048 0.77188 0.0
C924 C 0.67973 0.01708 0.91572 0.0
C925 C 0.69596 0.02969 0.91695 0.0
C926 C 0.66715 0.0202 0.87887 0.0
C927 C 0.67056 0.03584 0.84181 0.0
C928 C 0.687 0.04819 0.84177 0.0
H929 H 0.56767 0.0242 0.69993 0.0
H930 H 0.59987 0.03345 0.69559 0.0
C931 C 0.69968 0.04506 0.87894 0.0
C932 C 0.65594 0.04021 0.80808 0.0
H933 H 0.62012 0.01698 0.74865 0.0
C934 C 0.65031 0.05738 0.81064 0.0
C935 C 0.6456 0.02631 0.78094 0.0
C936 C 0.65185 0.00854 0.77123 0.0
C937 C 0.63357 0.05996 0.7926 0.0
C938 C 0.62202 0.04471 0.77339 0.0
C939 C 0.62863 0.02856 0.76479 0.0
C940 C 0.6026 0.04379 0.76969 0.0
C941 C 0.62826 0.07871 0.79626 0.0
C942 C 0.59325 0.0472 0.81178 0.0
C943 C 0.57482 0.04233 0.81368 0.0
C944 C 0.5655 0.03341 0.7743 0.0
C945 C 0.57466 0.03094 0.73099 0.0
C946 C 0.59304 0.03625 0.72847 0.0
H947 H 0.63974 0.09043 0.78775 0.0
H948 H 0.61733 0.08102 0.76967 0.0
H949 H 0.62401 0.07935 0.83575 0.0
H950 H 0.6002 0.05235 0.84493 0.0
H951 H 0.56803 0.04414 0.84771 0.0
H952 H 0.61943 0.70818 0.10622 0.0
H953 H 0.60788 0.68267 0.05434 0.0
H954 H 0.56609 0.71167 0.99977 0.0
H955 H 0.57723 0.73693 0.05195 0.0
H956 H 0.5731 0.66349 0.07919 0.0
H957 H 0.57884 0.68836 0.87308 0.0
H958 H 0.59297 0.69982 0.92041 0.0
H959 H 0.57082 0.70401 0.91109 0.0
C960 C 0.60807 0.70937 0.0821 0.0
C961 C 0.59912 0.72447 0.08383 0.0
C962 C 0.60156 0.69485 0.05226 0.0
C963 C 0.58617 0.69533 0.02317 0.0
C964 C 0.57817 0.7112 0.02119 0.0
H965 H 0.50273 0.61545 0.90077 0.0
H966 H 0.52301 0.6438 0.92339 0.0
C967 C 0.5846 0.72567 0.05116 0.0
C968 C 0.57652 0.67797 0.00348 0.0
H969 H 0.55797 0.65992 0.89682 0.0
C970 C 0.57003 0.66257 0.0392 0.0
C971 C 0.57227 0.67704 0.95149 0.0
C972 C 0.5792 0.69313 0.91165 0.0
C973 C 0.55894 0.64641 0.02464 0.0
C974 C 0.55464 0.64542 0.97261 0.0
C975 C 0.56132 0.66073 0.93665 0.0
C976 C 0.54302 0.62861 0.95532 0.0
C977 C 0.55137 0.63089 0.06547 0.0
C978 C 0.54776 0.61083 0.96479 0.0
C979 C 0.53615 0.59471 0.9527 0.0
C980 C 0.51971 0.59612 0.93011 0.0
C981 C 0.51528 0.61401 0.91849 0.0
C982 C 0.52685 0.63016 0.9312 0.0
H983 H 0.55196 0.63605 0.10361 0.0
H984 H 0.53739 0.62479 0.05715 0.0
H985 H 0.55916 0.61947 0.06724 0.0
H986 H 0.56036 0.60939 0.98217 0.0
H987 H 0.54007 0.58112 0.96081 0.0
H988 H 0.82327 0.42693 0.91233 0.0
H989 H 0.85128 0.42803 0.87033 0.0
H990 H 0.86035 0.37981 0.97095 0.0
H991 H 0.8321 0.37853 0.01326 0.0
H992 H 0.8867 0.40999 0.97443 0.0
H993 H 0.87266 0.39932 0.77332 0.0
H994 H 0.86093 0.41636 0.79315 0.0
H995 H 0.85598 0.39231 0.8223 0.0
C996 C 0.83084 0.41608 0.92435 0.0
C997 C 0.82548 0.40271 0.96639 0.0
C998 C 0.8469 0.4167 0.90013 0.0
C999 C 0.85786 0.40388 0.91711 0.0
C1000 C 0.85205 0.38979 0.95707 0.0
H1001 H 0.97295 0.43479 0.8577 0.0
H1002 H 0.94471 0.41347 0.87918 0.0
C1003 C 0.83597 0.38915 0.98136 0.0
C1004 C 0.87637 0.40731 0.89874 0.0
H1005 H 0.90119 0.41888 0.79052 0.0
C1006 C 0.88997 0.4114 0.93433 0.0
C1007 C 0.8806 0.40913 0.84646 0.0
C1008 C 0.86675 0.40384 0.80673 0.0
C1009 C 0.90743 0.41882 0.91878 0.0
C1010 C 0.91143 0.42191 0.86621 0.0
C1011 C 0.89807 0.41656 0.8308 0.0
C1012 C 0.92857 0.43325 0.84731 0.0
C1013 C 0.92115 0.42466 0.95852 0.0
C1014 C 0.9288 0.45106 0.82045 0.0
C1015 C 0.9448 0.46318 0.80804 0.0
C1016 C 0.96096 0.45774 0.82218 0.0
C1017 C 0.96074 0.43947 0.84667 0.0
C1018 C 0.94463 0.4273 0.85912 0.0
H1019 H 0.91524 0.42383 0.99686 0.0
H1020 H 0.93097 0.41523 0.96089 0.0
H1021 H 0.9283 0.43934 0.94799 0.0
H1022 H 0.91655 0.45591 0.81087 0.0
H1023 H 0.94443 0.47704 0.78854 0.0
H1024 H 0.09639 0.24228 0.11962 0.0
H1025 H 0.0929 0.21496 0.07108 0.0
H1026 H 0.04218 0.19281 0.14177 0.0
H1027 H 0.04547 0.22017 0.18961 0.0
H1028 H 0.09081 0.17916 0.11036 0.0
H1029 H 0.03035 0.18411 0.99693 0.0
H1030 H 0.04208 0.20352 0.02882 0.0
H1031 H 0.02682 0.1847 0.06346 0.0
C1032 C 0.08434 0.23176 0.12401 0.0
C1033 C 0.07117 0.23346 0.15828 0.0
C1034 C 0.08236 0.21614 0.09628 0.0
C1035 C 0.06718 0.20187 0.10222 0.0
C1036 C 0.05379 0.20383 0.13534 0.0
H1037 H 0.03746 0.08641 0.03412 0.0
H1038 H 0.04016 0.11735 0.06543 0.0
C1039 C 0.0557 0.21951 0.16276 0.0
C1040 C 0.06608 0.18421 0.0775 0.0
H1041 H 0.0395 0.1541 0.005 0.0
C1042 C 0.0797 0.17383 0.08676 0.0
C1043 C 0.05155 0.17717 0.04681 0.0
C1044 C 0.03697 0.18806 0.03297 0.0
C1045 C 0.07894 0.15642 0.06747 0.0
C1046 C 0.06424 0.14922 0.03782 0.0
C1047 C 0.05072 0.15965 0.02794 0.0
C1048 C 0.06251 0.13064 0.01778 0.0
C1049 C 0.09362 0.14556 0.08019 0.0
C1050 C 0.07409 0.12791 0.98024 0.0
C1051 C 0.0726 0.11023 0.96228 0.0
C1052 C 0.05953 0.09493 0.98168 0.0
C1053 C 0.04785 0.09781 0.01895 0.0
C1054 C 0.04928 0.11551 0.03662 0.0
H1055 H 0.10235 0.15138 0.1109 0.0
H1056 H 0.0881 0.13047 0.09219 0.0
H1057 H 0.10183 0.14626 0.04581 0.0
H1058 H 0.0843 0.13946 0.96488 0.0
H1059 H 0.08185 0.10848 0.93374 0.0
H1060 H 0.31403 0.04256 0.23747 0.0
H1061 H 0.33567 0.05435 0.16954 0.0
H1062 H 0.33868 0.99713 0.14664 0.0
H1063 H 0.31655 0.98526 0.21284 0.0
H1064 H 0.36913 0.04906 0.17271 0.0
H1065 H 0.33698 0.0205 0.00179 0.0
H1066 H 0.32478 0.02118 0.05888 0.0
H1067 H 0.33654 0.00227 0.05361 0.0
C1068 C 0.31887 0.03248 0.21688 0.0
C1069 C 0.31358 0.01295 0.2307 0.0
C1070 C 0.33134 0.03925 0.1783 0.0
C1071 C 0.33868 0.02664 0.1526 0.0
C1072 C 0.33295 0.00715 0.1651 0.0
H1073 H 0.44158 0.03404 0.03492 0.0
H1074 H 0.41476 0.03119 0.08486 0.0
C1075 C 0.32045 1.00037 0.20348 0.0
C1076 C 0.35363 0.03369 0.11671 0.0
H1077 H 0.36894 0.02861 0.99986 0.0
C1078 C 0.36897 0.04486 0.13458 0.0
C1079 C 0.35338 0.02847 0.06668 0.0
C1080 C 0.33695 0.01762 0.04394 0.0
C1081 C 0.38435 0.05005 0.10487 0.0
C1082 C 0.38451 0.04358 0.05641 0.0
C1083 C 0.36889 0.03334 0.03734 0.0
C1084 C 0.40102 0.04619 0.02645 0.0
C1085 C 0.40036 0.06221 0.12599 0.0
C1086 C 0.40211 0.05527 0.9766 0.0
C1087 C 0.41741 0.05673 0.94764 0.0
C1088 C 0.4318 0.04896 0.9679 0.0
C1089 C 0.43069 0.04003 0.01803 0.0
C1090 C 0.41543 0.03859 0.04687 0.0
H1091 H 0.39653 0.07088 0.15443 0.0
H1092 H 0.40901 0.05302 0.14539 0.0
H1093 H 0.40811 0.07177 0.09532 0.0
H1094 H 0.39107 0.06108 0.95998 0.0
H1095 H 0.41777 0.06348 0.90894 0.0
H1096 H 0.48059 0.30393 0.10368 0.0
H1097 H 0.48755 0.33415 0.05035 0.0
H1098 H 0.442 0.31715 0.95671 0.0
H1099 H 0.43465 0.28715 0.01118 0.0
H1100 H 0.49526 0.34533 0.95368 0.0
H1101 H 0.43172 0.3655 0.99658 0.0
H1102 H 0.43871 0.345 0.02917 0.0
H1103 H 0.42883 0.34407 0.96694 0.0
C1104 C 0.47222 0.30653 0.07124 0.0
C1105 C 0.45702 0.29324 0.06176 0.0
C1106 C 0.47616 0.32385 0.04089 0.0
C1107 C 0.46505 0.32819 1.00022 0.0
C1108 C 0.45046 0.31443 0.98882 0.0
H1109 H 0.49763 0.42874 0.78191 0.0
H1110 H 0.4895 0.39618 0.8215 0.0
C1111 C 0.44635 0.29722 0.01966 0.0
C1112 C 0.46853 0.34728 0.97096 0.0
H1113 H 0.45004 0.38599 0.93525 0.0
C1114 C 0.48536 0.35422 0.94963 0.0
C1115 C 0.45573 0.35906 0.96638 0.0
C1116 C 0.43781 0.35314 0.9914 0.0
C1117 C 0.48978 0.37253 0.92408 0.0
C1118 C 0.4768 0.38408 0.91812 0.0
C1119 C 0.45995 0.37711 0.93929 0.0
C1120 C 0.48064 0.40373 0.8922 0.0
C1121 C 0.50853 0.37949 0.90551 0.0
C1122 C 0.47743 0.41883 0.91739 0.0
C1123 C 0.48169 0.43743 0.89428 0.0
C1124 C 0.48942 0.4413 0.84572 0.0
C1125 C 0.49205 0.42617 0.81981 0.0
C1126 C 0.4875 0.40756 0.84255 0.0
H1127 H 0.51786 0.37133 0.92601 0.0
H1128 H 0.50918 0.37774 0.86449 0.0
H1129 H 0.51308 0.39465 0.91038 0.0
H1130 H 0.47203 0.41628 0.95556 0.0
H1131 H 0.47954 0.44881 0.9152 0.0
H1132 H 0.219 0.57833 0.18878 0.0
H1133 H 0.1978 0.56498 0.12585 0.0
H1134 H 0.20352 0.50886 0.18662 0.0
H1135 H 0.2245 0.522 0.25005 0.0
H1136 H 0.2001 0.53658 0.05069 0.0
H1137 H 0.14971 0.51287 0.20374 0.0
H1138 H 0.16906 0.53085 0.21079 0.0
H1139 H 0.17101 0.50648 0.2154 0.0
C1140 C 0.21589 0.56315 0.18835 0.0
C1141 C 0.22334 0.55122 0.22462 0.0
C1142 C 0.20386 0.55558 0.15225 0.0
C1143 C 0.19901 0.53596 0.15204 0.0
C1144 C 0.20706 0.52404 0.18644 0.0
H1145 H 0.11054 0.4667 0.01278 0.0
H1146 H 0.13751 0.47789 0.05938 0.0
C1147 C 0.21914 0.53159 0.22239 0.0
C1148 C 0.18451 0.52794 0.11869 0.0
H1149 H 0.14147 0.50507 0.12159 0.0
C1150 C 0.18727 0.52964 0.06601 0.0
C1151 C 0.16784 0.51893 0.139 0.0
C1152 C 0.16407 0.51722 0.19527 0.0
C1153 C 0.17378 0.52231 0.03299 0.0
C1154 C 0.15701 0.51348 0.05327 0.0
C1155 C 0.15434 0.51176 0.10607 0.0
C1156 C 0.14182 0.50627 0.02076 0.0
C1157 C 0.17773 0.52381 0.97691 0.0
C1158 C 0.13534 0.51843 0.98312 0.0
C1159 C 0.12004 0.512 0.95587 0.0
C1160 C 0.11073 0.49332 0.96621 0.0
C1161 C 0.11747 0.48108 0.00327 0.0
C1162 C 0.13283 0.48749 0.03024 0.0
H1163 H 0.19214 0.52546 0.96982 0.0
H1164 H 0.17072 0.51119 0.95967 0.0
H1165 H 0.17327 0.53644 0.95741 0.0
H1166 H 0.1418 0.53308 0.97582 0.0
H1167 H 0.11535 0.52175 0.92718 0.0
H1168 H 0.92834 0.76478 0.46738 0.0
H1169 H 0.93286 0.79245 0.51507 0.0
H1170 H 0.98514 0.81065 0.45148 0.0
H1171 H 0.98073 0.78317 0.40344 0.0
H1172 H 0.96687 0.80882 0.58394 0.0
H1173 H 0.95108 0.85242 0.40816 0.0
H1174 H 0.94279 0.82728 0.41852 0.0
H1175 H 0.96564 0.83598 0.40325 0.0
C1176 C 0.94091 0.77451 0.46421 0.0
C1177 C 0.95416 0.77177 0.43151 0.0
C1178 C 0.94348 0.79026 0.49158 0.0
C1179 C 0.95929 0.80359 0.48651 0.0
C1180 C 0.97285 0.80047 0.4559 0.0
H1181 H 0.98898 0.91923 0.55673 0.0
H1182 H 0.98654 0.88874 0.52341 0.0
C1183 C 0.97035 0.78468 0.42876 0.0
C1184 C 0.96107 0.82153 0.50971 0.0
H1185 H 0.95884 0.86803 0.48088 0.0
C1186 C 0.9651 0.82179 0.56161 0.0
C1187 C 0.95881 0.83838 0.48028 0.0
C1188 C 0.95426 0.83867 0.42446 0.0
C1189 C 0.96722 0.83864 0.58477 0.0
C1190 C 0.96478 0.85553 0.5554 0.0
C1191 C 0.9607 0.85514 0.50345 0.0
C1192 C 0.96658 0.87384 0.57731 0.0
C1193 C 0.97251 0.83826 0.64008 0.0
C1194 C 0.95608 0.87573 0.61854 0.0
C1195 C 0.95751 0.89317 0.63781 0.0
C1196 C 0.96925 0.90917 0.61571 0.0
C1197 C 0.97965 0.90725 0.57425 0.0
C1198 C 0.97833 0.8898 0.55531 0.0
H1199 H 0.97881 0.82596 0.65268 0.0
H1200 H 0.98184 0.85137 0.64733 0.0
H1201 H 0.96054 0.83707 0.6637 0.0
H1202 H 0.94656 0.8638 0.63532 0.0
H1203 H 0.94914 0.89423 0.66933 0.0
H1204 H 0.72485 0.00736 0.39641 0.0
H1205 H 0.70589 0.00279 0.47183 0.0
H1206 H 0.6763 0.95145 0.42135 0.0
H1207 H 0.69533 0.95575 0.34664 0.0
H1208 H 0.66977 0.002 0.46339 0.0
H1209 H 0.68215 0.93629 0.57323 0.0
H1210 H 0.69732 0.94974 0.52555 0.0
H1211 H 0.67796 0.9338 0.50708 0.0
C1212 C 0.71465 0.9948 0.40228 0.0
C1213 C 0.71152 0.98194 0.36561 0.0
C1214 C 0.70378 0.99226 0.4452 0.0
C1215 C 0.6898 0.97669 0.45245 0.0
C1216 C 0.68721 0.96337 0.41708 0.0
H1217 H 0.59174 0.93988 0.6073 0.0
H1218 H 0.61946 0.94368 0.5605 0.0
C1219 C 0.69799 0.96594 0.37415 0.0
C1220 C 0.67657 0.97547 0.49315 0.0
H1221 H 0.65474 0.94573 0.59026 0.0
C1222 C 0.66669 0.98988 0.49182 0.0
C1223 C 0.67252 0.95958 0.5299 0.0
C1224 C 0.68316 0.94405 0.53444 0.0
C1225 C 0.65226 0.98839 0.52451 0.0
C1226 C 0.64785 0.97221 0.56026 0.0
C1227 C 0.65813 0.9581 0.56281 0.0
C1228 C 0.63186 0.96911 0.59264 0.0
C1229 C 0.64131 0.00368 0.51856 0.0
C1230 C 0.62984 0.98186 0.62729 0.0
C1231 C 0.61397 0.97977 0.6539 0.0
C1232 C 0.59994 0.96475 0.64676 0.0
C1233 C 0.60234 0.95151 0.61384 0.0
C1234 C 0.61815 0.95369 0.58701 0.0
H1235 H 0.64411 0.01293 0.48216 0.0
H1236 H 0.62696 0.99748 0.5201 0.0
H1237 H 0.64439 0.01264 0.55015 0.0
H1238 H 0.6404 0.99361 0.63308 0.0
H1239 H 0.61261 0.99 0.67971 0.0
H1240 H 0.53914 0.69975 0.48207 0.0
H1241 H 0.53112 0.66977 0.53601 0.0
H1242 H 0.58471 0.67542 0.5916 0.0
H1243 H 0.59267 0.70568 0.53924 0.0
H1244 H 0.54501 0.63853 0.52682 0.0
H1245 H 0.55676 0.65891 0.72218 0.0
H1246 H 0.55515 0.67591 0.66785 0.0
H1247 H 0.57543 0.66742 0.68092 0.0
C1248 C 0.54909 0.69491 0.50695 0.0
C1249 C 0.56656 0.70514 0.50622 0.0
C1250 C 0.54452 0.67767 0.53744 0.0
C1251 C 0.55728 0.67035 0.56814 0.0
C1252 C 0.57456 0.68087 0.56895 0.0
H1253 H 0.55277 0.55083 0.66956 0.0
H1254 H 0.56077 0.5833 0.62889 0.0
C1255 C 0.57913 0.69811 0.53855 0.0
C1256 C 0.55291 0.65105 0.59582 0.0
H1257 H 0.55337 0.62605 0.71309 0.0
C1258 C 0.54675 0.63582 0.5676 0.0
C1259 C 0.55507 0.64751 0.64909 0.0
C1260 C 0.5608 0.66332 0.6819 0.0
C1261 C 0.54291 0.61716 0.59097 0.0
C1262 C 0.54565 0.61354 0.64395 0.0
C1263 C 0.55153 0.62879 0.67236 0.0
C1264 C 0.54176 0.59409 0.6708 0.0
C1265 C 0.53562 0.60152 0.5588 0.0
C1266 C 0.52892 0.58951 0.70924 0.0
C1267 C 0.52442 0.57103 0.73276 0.0
C1268 C 0.53271 0.55669 0.71856 0.0
C1269 C 0.54603 0.56146 0.68124 0.0
C1270 C 0.55054 0.58 0.6577 0.0
H1271 H 0.53013 0.60703 0.52223 0.0
H1272 H 0.54641 0.59423 0.54988 0.0
H1273 H 0.52507 0.59097 0.57936 0.0
H1274 H 0.52204 0.60015 0.72022 0.0
H1275 H 0.51418 0.56796 0.76149 0.0
H1276 H 0.80623 0.49088 0.31283 0.0
H1277 H 0.82665 0.50332 0.37854 0.0
H1278 H 0.81934 0.44789 0.46203 0.0
H1279 H 0.79914 0.4353 0.39602 0.0
H1280 H 0.82479 0.50442 0.48268 0.0
H1281 H 0.87231 0.46007 0.43656 0.0
H1282 H 0.8534 0.46291 0.39711 0.0
H1283 H 0.85082 0.44675 0.45435 0.0
C1284 C 0.80873 0.48142 0.34567 0.0
C1285 C 0.80125 0.46208 0.34909 0.0
C1286 C 0.82044 0.48854 0.38308 0.0
C1287 C 0.82482 0.47644 0.42454 0.0
C1288 C 0.81649 0.45737 0.42965 0.0
H1289 H 0.90123 0.48909 0.66899 0.0
H1290 H 0.87562 0.47902 0.61566 0.0
C1291 C 0.80492 0.45021 0.39206 0.0
C1292 C 0.8388 0.48355 0.46084 0.0
H1293 H 0.87913 0.47717 0.50783 0.0
C1294 C 0.83668 0.4985 0.48818 0.0
C1295 C 0.8544 0.47591 0.46755 0.0
C1296 C 0.858 0.46066 0.43701 0.0
C1297 C 0.84963 0.50575 0.52281 0.0
C1298 C 0.86506 0.49791 0.5299 0.0
C1299 C 0.86719 0.48303 0.50253 0.0
C1300 C 0.87939 0.50498 0.56506 0.0
C1301 C 0.84663 0.52154 0.55213 0.0
C1302 C 0.88989 0.523 0.55445 0.0
C1303 C 0.90469 0.52875 0.58455 0.0
C1304 C 0.90925 0.51652 0.62565 0.0
C1305 C 0.89828 0.49873 0.63711 0.0
C1306 C 0.88357 0.49299 0.60693 0.0
H1307 H 0.83264 0.52342 0.55005 0.0
H1308 H 0.85036 0.51883 0.59269 0.0
H1309 H 0.8551 0.53494 0.53601 0.0
H1310 H 0.88705 0.53233 0.52174 0.0
H1311 H 0.91295 0.54243 0.5743 0.0
loop_
_geom_bond_atom_site_label_1
_geom_bond_atom_site_label_2
_geom_bond_distance
_geom_bond_site_symmetry_2
_ccdc_geom_bond_type
C0 C1 1.384 . S
C0 H13 0.947 . S
C0 C35 1.382 . S
C1 C0 1.384 . S
C1 C2 1.378 . S
C2 C1 1.378 . S
C2 C3 1.378 . S
C2 H14 0.952 . S
C3 C2 1.378 . S
C3 H15 0.950 . S
C3 C34 1.383 . S
H4 C23 0.947 . S
H5 C24 0.946 . S
H6 C26 0.953 . S
H7 C27 0.945 . S
H8 C29 0.952 . S
H9 C30 0.949 . S
H10 C32 0.950 . S
H11 C33 0.948 1_554 S
H12 C35 0.951 . S
H13 C0 0.947 . S
H14 C2 0.952 . S
H15 C3 0.950 . S
N16 C19 1.382 . S
N16 C21 1.363 . S
N17 C19 1.371 1_556 S
N17 C20 1.372 1_556 S
N18 C20 1.361 . S
N18 C21 1.377 . S
C19 N16 1.382 . S
C19 N17 1.371 1_554 S
C19 C22 1.480 . S
C20 N17 1.372 1_554 S
C20 N18 1.361 . S
C20 C28 1.457 1_554 S
C21 N16 1.363 . S
C21 N18 1.377 . S
C21 C34 1.479 . S
C22 C19 1.480 . S
C22 C23 1.383 . S
C22 C27 1.385 1_554 S
C23 H4 0.947 . S
C23 C22 1.383 . S
C23 C24 1.388 . S
C24 H5 0.946 . S
C24 C23 1.388 . S
C24 C25 1.384 1_554 S
C25 C24 1.384 1_556 S
C25 C26 1.377 . S
C26 H6 0.953 . S
C26 C25 1.377 . S
C26 C27 1.369 . S
C27 H7 0.945 . S
C27 C22 1.385 1_556 S
C27 C26 1.369 . S
C28 C20 1.457 1_556 S
C28 C29 1.372 . S
C28 C33 1.364 . S
C29 H8 0.952 . S
C29 C28 1.372 . S
C29 C30 1.389 . S
C30 H9 0.949 . S
C30 C29 1.389 . S
C30 C31 1.387 . S
C31 C30 1.387 . S
C31 C32 1.372 . S
C32 H10 0.950 . S
C32 C31 1.372 . S
C32 C33 1.379 . S
C33 H11 0.948 1_556 S
C33 C28 1.364 . S
C33 C32 1.379 . S
C34 C3 1.383 . S
C34 C21 1.479 . S
C34 C35 1.398 . S
C35 C0 1.382 . S
C35 H12 0.951 . S
C35 C34 1.398 . S
C36 C37 1.384 . S
C36 H49 0.947 . S
C36 C71 1.382 . S
C37 C36 1.384 . S
C37 C38 1.378 . S
C38 C37 1.378 . S
C38 C39 1.378 . S
C38 H50 0.952 . S
C39 C38 1.378 . S
C39 H51 0.950 . S
C39 C70 1.383 . S
H40 C59 0.947 . S
H41 C60 0.946 . S
H42 C62 0.953 . S
H43 C63 0.945 . S
H44 C65 0.952 . S
H45 C66 0.949 . S
H46 C68 0.950 . S
H47 C69 0.948 1_554 S
H48 C71 0.951 . S
H49 C36 0.947 . S
H50 C38 0.952 . S
H51 C39 0.950 . S
N52 C55 1.382 . S
N52 C57 1.363 . S
N53 C55 1.355 1_556 S
N53 C56 1.365 1_556 S
N54 C56 1.361 . S
N54 C57 1.377 . S
C55 N52 1.382 . S
C55 N53 1.355 1_554 S
C55 C58 1.480 . S
C56 N53 1.365 1_554 S
C56 N54 1.361 . S
C56 C64 1.457 1_554 S
C57 N52 1.363 . S
C57 N54 1.377 . S
C57 C70 1.479 . S
C58 C55 1.480 . S
C58 C59 1.383 . S
C58 C63 1.385 1_554 S
C59 H40 0.947 . S
C59 C58 1.383 . S
C59 C60 1.388 . S
C60 H41 0.946 . S
C60 C59 1.388 . S
C60 C61 1.384 . S
C61 C60 1.384 . S
C61 C62 1.377 1_554 S
C62 H42 0.953 . S
C62 C61 1.377 1_556 S
C62 C63 1.369 . S
C63 H43 0.945 . S
C63 C58 1.385 1_556 S
C63 C62 1.369 . S
C64 C56 1.457 1_556 S
C64 C65 1.372 . S
C64 C69 1.364 . S
C65 H44 0.952 . S
C65 C64 1.372 . S
C65 C66 1.389 . S
C66 H45 0.949 . S
C66 C65 1.389 . S
C66 C67 1.387 . S
C67 C66 1.387 . S
C67 C68 1.372 . S
C68 H46 0.950 . S
C68 C67 1.372 . S
C68 C69 1.379 . S
C69 H47 0.948 1_556 S
C69 C64 1.364 . S
C69 C68 1.379 . S
C70 C39 1.383 . S
C70 C57 1.479 . S
C70 C71 1.398 . S
C71 C36 1.382 . S
C71 H48 0.951 . S
C71 C70 1.398 . S
C72 C73 1.384 1_565 S
C72 H85 0.947 . S
C72 C107 1.382 1_565 S
C73 C72 1.384 1_545 S
C73 C74 1.378 . S
C74 C73 1.378 . S
C74 C75 1.378 . S
C74 H86 0.952 . S
C75 C74 1.378 . S
C75 H87 0.950 . S
C75 C106 1.383 . S
H76 C95 0.947 . S
H77 C96 0.953 . S
H78 C98 0.953 . S
H79 C99 0.945 . S
H80 C101 0.945 1_565 S
H81 C102 0.963 . S
H82 C104 0.950 . S
H83 C105 0.948 . S
H84 C107 0.951 1_565 S
H85 C72 0.947 . S
H86 C74 0.952 . S
H87 C75 0.950 . S
N88 C91 1.382 1_554 S
N88 C93 1.363 . S
N89 C91 1.371 . S
N89 C92 1.372 . S
N90 C92 1.361 1_554 S
N90 C93 1.377 . S
C91 N88 1.382 1_556 S
C91 N89 1.371 . S
C91 C94 1.480 . S
C92 N89 1.372 . S
C92 N90 1.361 1_556 S
C92 C100 1.457 . S
C93 N88 1.363 . S
C93 N90 1.377 . S
C93 C106 1.479 . S
C94 C91 1.480 . S
C94 C95 1.383 1_556 S
C94 C99 1.385 . S
C95 H76 0.947 . S
C95 C94 1.383 1_554 S
C95 C96 1.380 1_545 S
C96 H77 0.953 . S
C96 C95 1.380 1_565 S
C96 C97 1.386 1_564 S
C97 C96 1.386 1_546 S
C97 C98 1.377 . S
C98 H78 0.953 . S
C98 C97 1.377 . S
C98 C99 1.369 . S
C99 H79 0.945 . S
C99 C94 1.385 . S
C99 C98 1.369 . S
C100 C92 1.457 . S
C100 C101 1.379 . S
C100 C105 1.364 . S
C101 H80 0.945 1_545 S
C101 C100 1.379 . S
C101 C102 1.390 1_545 S
C102 H81 0.963 . S
C102 C101 1.390 1_565 S
C102 C103 1.374 1_565 S
C103 C102 1.374 1_545 S
C103 C104 1.372 . S
C104 H82 0.950 . S
C104 C103 1.372 . S
C104 C105 1.379 . S
C105 H83 0.948 . S
C105 C100 1.364 . S
C105 C104 1.379 . S
C106 C75 1.383 . S
C106 C93 1.479 . S
C106 C107 1.398 . S
C107 C72 1.382 1_545 S
C107 H84 0.951 1_545 S
C107 C106 1.398 . S
C108 C109 1.384 . S
C108 H121 0.947 . S
C108 C143 1.382 . S
C109 C108 1.384 . S
C109 C110 1.378 . S
C110 C109 1.378 . S
C110 C111 1.378 . S
C110 H122 0.952 . S
C111 C110 1.378 . S
C111 H123 0.950 . S
C111 C142 1.383 . S
H112 C131 0.947 . S
H113 C132 0.946 . S
H114 C134 0.953 . S
H115 C135 0.945 . S
H116 C137 0.952 . S
H117 C138 0.949 . S
H118 C140 0.950 . S
H119 C141 0.948 . S
H120 C143 0.951 . S
H121 C108 0.947 . S
H122 C110 0.952 . S
H123 C111 0.950 . S
N124 C127 1.382 . S
N124 C129 1.363 . S
N125 C127 1.371 . S
N125 C128 1.372 . S
N126 C128 1.361 . S
N126 C129 1.377 . S
C127 N124 1.382 . S
C127 N125 1.371 . S
C127 C130 1.480 . S
C128 N125 1.372 . S
C128 N126 1.361 . S
C128 C136 1.457 . S
C129 N124 1.363 . S
C129 N126 1.377 . S
C129 C142 1.479 . S
C130 C127 1.480 . S
C130 C131 1.383 . S
C130 C135 1.385 . S
C131 H112 0.947 . S
C131 C130 1.383 . S
C131 C132 1.388 . S
C132 H113 0.946 . S
C132 C131 1.388 . S
C132 C133 1.384 . S
C133 C132 1.384 . S
C133 C134 1.377 . S
C134 H114 0.953 . S
C134 C133 1.377 . S
C134 C135 1.369 . S
C135 H115 0.945 . S
C135 C130 1.385 . S
C135 C134 1.369 . S
C136 C128 1.457 . S
C136 C137 1.372 . S
C136 C141 1.364 . S
C137 H116 0.952 . S
C137 C136 1.372 . S
C137 C138 1.389 . S
C138 H117 0.949 . S
C138 C137 1.389 . S
C138 C139 1.387 . S
C139 C138 1.387 . S
C139 C140 1.372 . S
C140 H118 0.950 . S
C140 C139 1.372 . S
C140 C141 1.379 . S
C141 H119 0.948 . S
C141 C136 1.364 . S
C141 C140 1.379 . S
C142 C111 1.383 . S
C142 C129 1.479 . S
C142 C143 1.398 . S
C143 C108 1.382 . S
C143 H120 0.951 . S
C143 C142 1.398 . S
C144 C145 1.384 . S
C144 H157 0.947 . S
C144 C179 1.382 . S
C145 C144 1.384 . S
C145 C146 1.378 . S
C146 C145 1.378 . S
C146 C147 1.378 . S
C146 H158 0.952 . S
C147 C146 1.378 . S
C147 H159 0.950 . S
C147 C178 1.383 . S
H148 C167 0.947 . S
H149 C168 0.946 . S
H150 C170 0.953 . S
H151 C171 0.945 . S
H152 C173 0.952 . S
H153 C174 0.949 . S
H154 C176 0.950 . S
H155 C177 0.948 . S
H156 C179 0.951 . S
H157 C144 0.947 . S
H158 C146 0.952 . S
H159 C147 0.950 . S
N160 C163 1.382 . S
N160 C165 1.363 . S
N161 C163 1.371 . S
N161 C164 1.372 . S
N162 C164 1.361 . S
N162 C165 1.377 . S
C163 N160 1.382 . S
C163 N161 1.371 . S
C163 C166 1.480 . S
C164 N161 1.372 . S
C164 N162 1.361 . S
C164 C172 1.457 . S
C165 N160 1.363 . S
C165 N162 1.377 . S
C165 C178 1.479 . S
C166 C163 1.480 . S
C166 C167 1.383 . S
C166 C171 1.385 . S
C167 H148 0.947 . S
C167 C166 1.383 . S
C167 C168 1.388 . S
C168 H149 0.946 . S
C168 C167 1.388 . S
C168 C169 1.384 . S
C169 C168 1.384 . S
C169 C170 1.377 . S
C170 H150 0.953 . S
C170 C169 1.377 . S
C170 C171 1.369 . S
C171 H151 0.945 . S
C171 C166 1.385 . S
C171 C170 1.369 . S
C172 C164 1.457 . S
C172 C173 1.372 . S
C172 C177 1.364 . S
C173 H152 0.952 . S
C173 C172 1.372 . S
C173 C174 1.389 . S
C174 H153 0.949 . S
C174 C173 1.389 . S
C174 C175 1.387 . S
C175 C174 1.387 . S
C175 C176 1.372 . S
C176 H154 0.950 . S
C176 C175 1.372 . S
C176 C177 1.379 . S
C177 H155 0.948 . S
C177 C172 1.364 . S
C177 C176 1.379 . S
C178 C147 1.383 . S
C178 C165 1.479 . S
C178 C179 1.398 . S
C179 C144 1.382 . S
C179 H156 0.951 . S
C179 C178 1.398 . S
C180 C181 1.384 . S
C180 H193 0.947 . S
C180 C215 1.382 . S
C181 C180 1.384 . S
C181 C182 1.378 . S
C182 C181 1.378 . S
C182 C183 1.378 . S
C182 H194 0.952 . S
C183 C182 1.378 . S
C183 H195 0.950 . S
C183 C214 1.383 . S
H184 C203 0.947 . S
H185 C204 0.946 . S
H186 C206 0.953 . S
H187 C207 0.945 . S
H188 C209 0.952 . S
H189 C210 0.949 . S
H190 C212 0.950 . S
H191 C213 0.948 . S
H192 C215 0.951 . S
H193 C180 0.947 . S
H194 C182 0.952 . S
H195 C183 0.950 . S
N196 C199 1.382 . S
N196 C201 1.363 . S
N197 C199 1.371 . S
N197 C200 1.372 . S
N198 C200 1.361 . S
N198 C201 1.377 . S
C199 N196 1.382 . S
C199 N197 1.371 . S
C199 C202 1.480 . S
C200 N197 1.372 . S
C200 N198 1.361 . S
C200 C208 1.457 . S
C201 N196 1.363 . S
C201 N198 1.377 . S
C201 C214 1.479 . S
C202 C199 1.480 . S
C202 C203 1.383 . S
C202 C207 1.385 . S
C203 H184 0.947 . S
C203 C202 1.383 . S
C203 C204 1.388 . S
C204 H185 0.946 . S
C204 C203 1.388 . S
C204 C205 1.384 . S
C205 C204 1.384 . S
C205 C206 1.377 . S
C206 H186 0.953 . S
C206 C205 1.377 . S
C206 C207 1.369 . S
C207 H187 0.945 . S
C207 C202 1.385 . S
C207 C206 1.369 . S
C208 C200 1.457 . S
C208 C209 1.372 . S
C208 C213 1.364 . S
C209 H188 0.952 . S
C209 C208 1.372 . S
C209 C210 1.389 . S
C210 H189 0.949 . S
C210 C209 1.389 . S
C210 C211 1.387 . S
C211 C210 1.387 . S
C211 C212 1.372 . S
C212 H190 0.950 . S
C212 C211 1.372 . S
C212 C213 1.379 . S
C213 H191 0.948 . S
C213 C208 1.364 . S
C213 C212 1.379 . S
C214 C183 1.383 . S
C214 C201 1.479 . S
C214 C215 1.398 . S
C215 C180 1.382 . S
C215 H192 0.951 . S
C215 C214 1.398 . S
C216 C217 1.383 . S
C216 H229 0.949 1_545 S
C216 C251 1.379 . S
C217 C216 1.383 . S
C217 C218 1.378 . S
C218 C217 1.378 . S
C218 C219 1.378 . S
C218 H230 0.952 . S
C219 C218 1.378 . S
C219 H231 0.950 . S
C219 C250 1.383 . S
H220 C239 0.947 . S
H221 C240 0.948 . S
H222 C242 0.953 . S
H223 C243 0.945 . S
H224 C245 0.954 1_565 S
H225 C246 0.949 . S
H226 C248 0.950 . S
H227 C249 0.948 . S
H228 C251 0.950 1_565 S
H229 C216 0.949 1_565 S
H230 C218 0.952 . S
H231 C219 0.950 . S
N232 C235 1.382 . S
N232 C237 1.363 . S
N233 C235 1.371 . S
N233 C236 1.372 . S
N234 C236 1.361 . S
N234 C237 1.377 . S
C235 N232 1.382 . S
C235 N233 1.371 . S
C235 C238 1.480 . S
C236 N233 1.372 . S
C236 N234 1.361 . S
C236 C244 1.457 . S
C237 N232 1.363 . S
C237 N234 1.377 . S
C237 C250 1.479 . S
C238 C235 1.480 . S
C238 C239 1.383 . S
C238 C243 1.385 . S
C239 H220 0.947 . S
C239 C238 1.383 . S
C239 C240 1.390 1_545 S
C240 H221 0.948 . S
C240 C239 1.390 1_565 S
C240 C241 1.380 1_565 S
C241 C240 1.380 1_545 S
C241 C242 1.377 . S
C242 H222 0.953 . S
C242 C241 1.377 . S
C242 C243 1.369 . S
C243 H223 0.945 . S
C243 C238 1.385 . S
C243 C242 1.369 . S
C244 C236 1.457 . S
C244 C245 1.373 . S
C244 C249 1.364 . S
C245 H224 0.954 1_545 S
C245 C244 1.373 . S
C245 C246 1.383 1_545 S
C246 H225 0.949 . S
C246 C245 1.383 1_565 S
C246 C247 1.390 1_565 S
C247 C246 1.390 1_545 S
C247 C248 1.372 . S
C248 H226 0.950 . S
C248 C247 1.372 . S
C248 C249 1.379 . S
C249 H227 0.948 . S
C249 C244 1.364 . S
C249 C248 1.379 . S
C250 C219 1.383 . S
C250 C237 1.479 . S
C250 C251 1.402 . S
C251 C216 1.379 . S
C251 H228 0.950 1_545 S
C251 C250 1.402 . S
C252 C253 1.384 . S
C252 H265 0.947 . S
C252 C287 1.382 . S
C253 C252 1.384 . S
C253 C254 1.378 . S
C254 C253 1.378 . S
C254 C255 1.378 . S
C254 H266 0.952 . S
C255 C254 1.378 . S
C255 H267 0.950 . S
C255 C286 1.383 . S
H256 C275 0.947 . S
H257 C276 0.946 . S
H258 C278 0.953 . S
H259 C279 0.945 . S
H260 C281 0.952 . S
H261 C282 0.949 . S
H262 C284 0.950 . S
H263 C285 0.948 . S
H264 C287 0.951 . S
H265 C252 0.947 . S
H266 C254 0.952 . S
H267 C255 0.950 . S
N268 C271 1.382 . S
N268 C273 1.363 . S
N269 C271 1.371 . S
N269 C272 1.372 . S
N270 C272 1.361 . S
N270 C273 1.377 . S
C271 N268 1.382 . S
C271 N269 1.371 . S
C271 C274 1.480 . S
C272 N269 1.372 . S
C272 N270 1.361 . S
C272 C280 1.457 . S
C273 N268 1.363 . S
C273 N270 1.377 . S
C273 C286 1.479 . S
C274 C271 1.480 . S
C274 C275 1.383 . S
C274 C279 1.385 . S
C275 H256 0.947 . S
C275 C274 1.383 . S
C275 C276 1.388 . S
C276 H257 0.946 . S
C276 C275 1.388 . S
C276 C277 1.384 . S
C277 C276 1.384 . S
C277 C278 1.377 . S
C278 H258 0.953 . S
C278 C277 1.377 . S
C278 C279 1.369 . S
C279 H259 0.945 . S
C279 C274 1.385 . S
C279 C278 1.369 . S
C280 C272 1.457 . S
C280 C281 1.372 . S
C280 C285 1.364 . S
C281 H260 0.952 . S
C281 C280 1.372 . S
C281 C282 1.389 . S
C282 H261 0.949 . S
C282 C281 1.389 . S
C282 C283 1.387 . S
C283 C282 1.387 . S
C283 C284 1.372 . S
C284 H262 0.950 . S
C284 C283 1.372 . S
C284 C285 1.379 . S
C285 H263 0.948 . S
C285 C280 1.364 . S
C285 C284 1.379 . S
C286 C255 1.383 . S
C286 C273 1.479 . S
C286 C287 1.398 . S
C287 C252 1.382 . S
C287 H264 0.951 . S
C287 C286 1.398 . S
Nd288 C290 2.836 1_455 S
Nd288 O308 2.500 1_455 S
Nd288 O309 2.492 . S
Nd288 O310 2.487 . S
Nd288 O311 2.678 1_565 S
Nd288 O312 2.410 . S
Nd288 O317 2.427 1_455 S
Nd288 O319 2.424 1_565 S
Nd289 C299 2.836 . S
Nd289 O311 2.431 . S
Nd289 O313 2.424 1_545 S
Nd289 O314 2.500 . S
Nd289 O315 2.492 . S
Nd289 O316 2.487 1_455 S
Nd289 O317 2.679 1_445 S
Nd289 O318 2.410 . S
C290 Nd288 2.836 1_655 S
C290 C291 1.498 . S
C290 O308 1.258 . S
C290 O309 1.239 1_655 S
C291 C290 1.498 . S
C291 C292 1.366 . S
C291 C296 1.407 . S
C292 C291 1.366 . S
C292 C293 1.392 . S
C292 H320 0.930 . S
C293 C292 1.392 . S
C293 C294 1.398 . S
C293 H321 0.929 . S
C294 C293 1.398 . S
C294 C295 1.352 . S
C295 C294 1.352 . S
C295 C296 1.384 . S
C295 H322 0.930 . S
C296 C291 1.407 . S
C296 C295 1.384 . S
C296 H323 0.929 1_655 S
C297 O310 1.241 . S
C297 O311 1.248 1_565 S
C298 O312 1.251 . S
C298 O313 1.268 . S
C299 Nd289 2.836 . S
C299 C300 1.498 . S
C299 O314 1.258 . S
C299 O315 1.239 . S
C300 C299 1.498 . S
C300 C301 1.366 . S
C300 C305 1.407 . S
C301 C300 1.366 . S
C301 C302 1.392 . S
C301 H324 0.930 . S
C302 C301 1.392 . S
C302 C303 1.398 . S
C302 H325 0.929 . S
C303 C302 1.398 . S
C303 C304 1.352 1_556 S
C304 C303 1.352 1_554 S
C304 C305 1.384 1_554 S
C304 H326 0.930 . S
C305 C300 1.407 . S
C305 C304 1.384 1_556 S
C305 H327 0.929 . S
C306 O316 1.241 . S
C306 O317 1.255 1_545 S
C307 O318 1.251 . S
C307 O319 1.268 . S
O308 Nd288 2.500 1_655 S
O308 C290 1.258 . S
O309 Nd288 2.492 . S
O309 C290 1.239 1_455 S
O310 Nd288 2.487 . S
O310 C297 1.241 . S
O311 Nd288 2.678 1_545 S
O311 Nd289 2.431 . S
O311 C297 1.248 1_545 S
O312 Nd288 2.410 . S
O312 C298 1.251 . S
O313 Nd289 2.424 1_565 S
O313 C298 1.268 . S
O314 Nd289 2.500 . S
O314 C299 1.258 . S
O315 Nd289 2.492 . S
O315 C299 1.239 . S
O316 Nd289 2.487 1_655 S
O316 C306 1.241 . S
O317 Nd288 2.427 1_655 S
O317 Nd289 2.679 1_665 S
O317 C306 1.255 1_565 S
O318 Nd289 2.410 . S
O318 C307 1.251 . S
O319 Nd288 2.424 1_545 S
O319 C307 1.268 . S
H320 C292 0.930 . S
H321 C293 0.929 . S
H322 C295 0.930 . S
H323 C296 0.929 1_455 S
H324 C301 0.930 . S
H325 C302 0.929 . S
H326 C304 0.930 . S
H327 C305 0.929 . S
Nd328 C330 2.836 . S
Nd328 O348 2.500 . S
Nd328 O349 2.492 1_565 S
Nd328 O350 2.487 1_565 S
Nd328 O351 2.682 1_565 S
Nd328 O352 2.410 1_565 S
Nd328 O357 2.414 . S
Nd328 O359 2.424 . S
Nd329 C339 2.836 . S
Nd329 O351 2.414 . S
Nd329 O353 2.424 . S
Nd329 O354 2.500 . S
Nd329 O355 2.492 1_545 S
Nd329 O356 2.487 1_545 S
Nd329 O357 2.682 1_545 S
Nd329 O358 2.410 1_545 S
C330 Nd328 2.836 . S
C330 C331 1.498 . S
C330 O348 1.258 . S
C330 O349 1.227 1_565 S
C331 C330 1.498 . S
C331 C332 1.366 . S
C331 C336 1.407 . S
C332 C331 1.366 . S
C332 C333 1.392 . S
C332 H360 0.930 . S
C333 C332 1.392 . S
C333 C334 1.398 . S
C333 H361 0.929 . S
C334 C333 1.398 . S
C334 C335 1.352 . S
C335 C334 1.352 . S
C335 C336 1.384 . S
C335 H362 0.929 1_565 S
C336 C331 1.407 . S
C336 C335 1.384 . S
C336 H363 0.929 1_565 S
C337 O350 1.241 . S
C337 O351 1.273 . S
C338 O352 1.251 . S
C338 O353 1.268 . S
C339 Nd329 2.836 . S
C339 C340 1.498 . S
C339 O354 1.258 . S
C339 O355 1.238 1_545 S
C340 C339 1.498 . S
C340 C341 1.366 . S
C340 C345 1.407 . S
C341 C340 1.366 . S
C341 C342 1.392 . S
C341 H364 0.930 . S
C342 C341 1.392 . S
C342 C343 1.398 . S
C342 H365 0.929 . S
C343 C342 1.398 . S
C343 C344 1.352 1_556 S
C344 C343 1.352 1_554 S
C344 C345 1.384 1_554 S
C344 H366 0.929 . S
C345 C340 1.407 . S
C345 C344 1.384 1_556 S
C345 H367 0.929 1_546 S
C346 O356 1.241 . S
C346 O357 1.273 . S
C347 O358 1.251 . S
C347 O359 1.268 . S
O348 Nd328 2.500 . S
O348 C330 1.258 . S
O349 Nd328 2.492 1_545 S
O349 C330 1.227 1_545 S
O350 Nd328 2.487 1_545 S
O350 C337 1.241 . S
O351 Nd328 2.682 1_545 S
O351 Nd329 2.414 . S
O351 C337 1.273 . S
O352 Nd328 2.410 1_545 S
O352 C338 1.251 . S
O353 Nd329 2.424 . S
O353 C338 1.268 . S
O354 Nd329 2.500 . S
O354 C339 1.258 . S
O355 Nd329 2.492 1_565 S
O355 C339 1.238 1_565 S
O356 Nd329 2.487 1_565 S
O356 C346 1.241 . S
O357 Nd328 2.414 . S
O357 Nd329 2.682 1_565 S
O357 C346 1.273 . S
O358 Nd329 2.410 1_565 S
O358 C347 1.251 . S
O359 Nd328 2.424 . S
O359 C347 1.268 . S
H360 C332 0.930 . S
H361 C333 0.929 . S
H362 C335 0.929 1_545 S
H363 C336 0.929 1_545 S
H364 C341 0.930 . S
H365 C342 0.929 . S
H366 C344 0.929 . S
H367 C345 0.929 1_564 S
Nd368 C370 2.836 . S
Nd368 O388 2.500 . S
Nd368 O389 2.492 . S
Nd368 O390 2.487 . S
Nd368 O391 2.682 . S
Nd368 O392 2.410 . S
Nd368 O397 2.414 . S
Nd368 O399 2.424 . S
Nd369 C379 2.836 . S
Nd369 O391 2.414 . S
Nd369 O393 2.424 . S
Nd369 O394 2.500 . S
Nd369 O395 2.492 . S
Nd369 O396 2.487 . S
Nd369 O397 2.682 . S
Nd369 O398 2.410 . S
C370 Nd368 2.836 . S
C370 C371 1.498 . S
C370 O388 1.258 . S
C370 O389 1.239 . S
C371 C370 1.498 . S
C371 C372 1.366 . S
C371 C376 1.407 . S
C372 C371 1.366 . S
C372 C373 1.392 . S
C372 H400 0.930 . S
C373 C372 1.392 . S
C373 C374 1.398 . S
C373 H401 0.929 . S
C374 C373 1.398 . S
C374 C375 1.352 . S
C375 C374 1.352 . S
C375 C376 1.384 . S
C375 H402 0.930 . S
C376 C371 1.407 . S
C376 C375 1.384 . S
C376 H403 0.929 . S
C377 O390 1.241 . S
C377 O391 1.273 . S
C378 O392 1.251 . S
C378 O393 1.268 . S
C379 Nd369 2.836 . S
C379 C380 1.498 . S
C379 O394 1.258 . S
C379 O395 1.239 . S
C380 C379 1.498 . S
C380 C381 1.366 . S
C380 C385 1.407 . S
C381 C380 1.366 . S
C381 C382 1.392 . S
C381 H404 0.930 . S
C382 C381 1.392 . S
C382 C383 1.398 . S
C382 H405 0.929 . S
C383 C382 1.398 . S
C383 C384 1.352 . S
C384 C383 1.352 . S
C384 C385 1.384 . S
C384 H406 0.930 . S
C385 C380 1.407 . S
C385 C384 1.384 . S
C385 H407 0.929 . S
C386 O396 1.241 . S
C386 O397 1.273 . S
C387 O398 1.251 . S
C387 O399 1.268 . S
O388 Nd368 2.500 . S
O388 C370 1.258 . S
O389 Nd368 2.492 . S
O389 C370 1.239 . S
O390 Nd368 2.487 . S
O390 C377 1.241 . S
O391 Nd368 2.682 . S
O391 Nd369 2.414 . S
O391 C377 1.273 . S
O392 Nd368 2.410 . S
O392 C378 1.251 . S
O393 Nd369 2.424 . S
O393 C378 1.268 . S
O394 Nd369 2.500 . S
O394 C379 1.258 . S
O395 Nd369 2.492 . S
O395 C379 1.239 . S
O396 Nd369 2.487 . S
O396 C386 1.241 . S
O397 Nd368 2.414 . S
O397 Nd369 2.682 . S
O397 C386 1.273 . S
O398 Nd369 2.410 . S
O398 C387 1.251 . S
O399 Nd368 2.424 . S
O399 C387 1.268 . S
H400 C372 0.930 . S
H401 C373 0.929 . S
H402 C375 0.930 . S
H403 C376 0.929 . S
H404 C381 0.930 . S
H405 C382 0.929 . S
H406 C384 0.930 . S
H407 C385 0.929 . S
Nd408 C410 2.836 1_455 S
Nd408 O428 2.500 1_455 S
Nd408 O429 2.492 1_455 S
Nd408 O430 2.487 . S
Nd408 O431 2.682 . S
Nd408 O432 2.410 1_455 S
Nd408 O437 2.414 . S
Nd408 O439 2.424 . S
Nd409 C419 2.836 . S
Nd409 O431 2.414 . S
Nd409 O433 2.424 1_455 S
Nd409 O434 2.500 . S
Nd409 O435 2.492 . S
Nd409 O436 2.487 . S
Nd409 O437 2.682 . S
Nd409 O438 2.410 . S
C410 Nd408 2.836 1_655 S
C410 C411 1.498 . S
C410 O428 1.258 . S
C410 O429 1.239 . S
C411 C410 1.498 . S
C411 C412 1.366 . S
C411 C416 1.407 . S
C412 C411 1.366 . S
C412 C413 1.392 . S
C412 H440 0.930 . S
C413 C412 1.392 . S
C413 C414 1.398 . S
C413 H441 0.929 . S
C414 C413 1.398 . S
C414 C415 1.352 . S
C415 C414 1.352 . S
C415 C416 1.384 . S
C415 H442 0.930 . S
C416 C411 1.407 . S
C416 C415 1.384 . S
C416 H443 0.929 . S
C417 O430 1.241 . S
C417 O431 1.273 . S
C418 O432 1.251 . S
C418 O433 1.268 . S
C419 Nd409 2.836 . S
C419 C420 1.498 . S
C419 O434 1.258 . S
C419 O435 1.239 . S
C420 C419 1.498 . S
C420 C421 1.366 . S
C420 C425 1.407 . S
C421 C420 1.366 . S
C421 C422 1.392 . S
C421 H444 0.930 . S
C422 C421 1.392 . S
C422 C423 1.398 . S
C422 H445 0.929 . S
C423 C422 1.398 . S
C423 C424 1.352 1_556 S
C424 C423 1.352 1_554 S
C424 C425 1.384 1_554 S
C424 H446 0.930 . S
C425 C420 1.407 . S
C425 C424 1.384 1_556 S
C425 H447 0.929 . S
C426 O436 1.241 . S
C426 O437 1.273 . S
C427 O438 1.251 . S
C427 O439 1.268 . S
O428 Nd408 2.500 1_655 S
O428 C410 1.258 . S
O429 Nd408 2.492 1_655 S
O429 C410 1.239 . S
O430 Nd408 2.487 . S
O430 C417 1.241 . S
O431 Nd408 2.682 . S
O431 Nd409 2.414 . S
O431 C417 1.273 . S
O432 Nd408 2.410 1_655 S
O432 C418 1.251 . S
O433 Nd409 2.424 1_655 S
O433 C418 1.268 . S
O434 Nd409 2.500 . S
O434 C419 1.258 . S
O435 Nd409 2.492 . S
O435 C419 1.239 . S
O436 Nd409 2.487 . S
O436 C426 1.241 . S
O437 Nd408 2.414 . S
O437 Nd409 2.682 . S
O437 C426 1.273 . S
O438 Nd409 2.410 . S
O438 C427 1.251 . S
O439 Nd408 2.424 . S
O439 C427 1.268 . S
H440 C412 0.930 . S
H441 C413 0.929 . S
H442 C415 0.930 . S
H443 C416 0.929 . S
H444 C421 0.930 . S
H445 C422 0.929 . S
H446 C424 0.930 . S
H447 C425 0.929 . S
H448 C456 0.929 . S
H449 C458 0.930 . S
H450 C460 0.930 . S
H451 C463 0.929 . S
H452 C466 0.930 . S
H453 C468 0.960 . S
H454 C468 0.960 1_565 S
H455 C468 0.960 . S
C456 H448 0.929 . S
C456 C457 1.381 . S
C456 C458 1.384 . S
C457 C456 1.381 . S
C457 C463 1.386 1_565 S
C458 H449 0.930 . S
C458 C456 1.384 . S
C458 C459 1.372 . S
C459 C458 1.372 . S
C459 C460 1.400 1_565 S
C459 C464 1.490 . S
C460 H450 0.930 . S
C460 C459 1.400 1_545 S
C460 C463 1.386 . S
H461 C477 0.930 . S
H462 C478 0.931 . S
C463 H451 0.929 . S
C463 C457 1.386 1_545 S
C463 C460 1.386 . S
C464 C459 1.490 . S
C464 C466 1.395 . S
C464 C467 1.396 1_565 S
H465 C471 0.932 . S
C466 H452 0.930 . S
C466 C464 1.395 . S
C466 C469 1.403 . S
C467 C464 1.396 1_545 S
C467 C468 1.524 . S
C467 C471 1.406 . S
C468 H453 0.960 . S
C468 H454 0.960 1_545 S
C468 H455 0.960 . S
C468 C467 1.524 . S
C469 C466 1.403 . S
C469 C470 1.392 . S
C469 C473 1.495 . S
C470 C469 1.392 . S
C470 C471 1.385 1_565 S
C470 C472 1.478 . S
C471 H465 0.932 . S
C471 C467 1.406 . S
C471 C470 1.385 1_545 S
C472 C470 1.478 . S
C472 C474 1.381 . S
C472 C478 1.383 1_565 S
C473 C469 1.495 . S
C473 H479 0.959 . S
C473 H480 0.934 1_565 S
C473 H481 0.960 . S
C474 C472 1.381 . S
C474 C475 1.394 . S
C474 H482 0.930 . S
C475 C474 1.394 . S
C475 C476 1.383 . S
C475 H483 0.929 . S
C476 C475 1.383 . S
C476 C477 1.377 1_565 S
C477 H461 0.930 . S
C477 C476 1.377 1_545 S
C477 C478 1.379 . S
C478 H462 0.931 . S
C478 C472 1.383 1_545 S
C478 C477 1.379 . S
H479 C473 0.959 . S
H480 C473 0.934 1_545 S
H481 C473 0.960 . S
H482 C474 0.930 . S
H483 C475 0.929 . S
H484 C492 0.929 . S
H485 C494 0.930 . S
H486 C496 0.930 . S
H487 C499 0.929 . S
H488 C502 0.930 . S
H489 C504 0.960 . S
H490 C504 0.960 . S
H491 C504 0.960 . S
C492 H484 0.929 . S
C492 C493 1.377 . S
C492 C494 1.384 . S
C493 C492 1.377 . S
C493 C499 1.390 . S
C494 H485 0.930 . S
C494 C492 1.384 . S
C494 C495 1.372 . S
C495 C494 1.372 . S
C495 C496 1.400 . S
C495 C500 1.490 . S
C496 H486 0.930 . S
C496 C495 1.400 . S
C496 C499 1.386 . S
H497 C513 0.930 . S
H498 C514 0.931 . S
C499 H487 0.929 . S
C499 C493 1.390 . S
C499 C496 1.386 . S
C500 C495 1.490 . S
C500 C502 1.395 . S
C500 C503 1.403 . S
H501 C507 0.930 . S
C502 H488 0.930 . S
C502 C500 1.395 . S
C502 C505 1.403 . S
C503 C500 1.403 . S
C503 C504 1.524 . S
C503 C507 1.400 . S
C504 H489 0.960 . S
C504 H490 0.960 . S
C504 H491 0.960 . S
C504 C503 1.524 . S
C505 C502 1.403 . S
C505 C506 1.392 . S
C505 C509 1.495 . S
C506 C505 1.392 . S
C506 C507 1.385 . S
C506 C508 1.478 . S
C507 H501 0.930 . S
C507 C503 1.400 . S
C507 C506 1.385 . S
C508 C506 1.478 . S
C508 C510 1.381 . S
C508 C514 1.383 . S
C509 C505 1.495 . S
C509 H515 0.959 . S
C509 H516 0.961 . S
C509 H517 0.960 . S
C510 C508 1.381 . S
C510 C511 1.394 . S
C510 H518 0.930 . S
C511 C510 1.394 . S
C511 C512 1.383 . S
C511 H519 0.929 . S
C512 C511 1.383 . S
C512 C513 1.377 . S
C513 H497 0.930 . S
C513 C512 1.377 . S
C513 C514 1.379 . S
C514 H498 0.931 . S
C514 C508 1.383 . S
C514 C513 1.379 . S
H515 C509 0.959 . S
H516 C509 0.961 . S
H517 C509 0.960 . S
H518 C510 0.930 . S
H519 C511 0.929 . S
H520 C528 0.929 . S
H521 C530 0.930 . S
H522 C532 0.930 . S
H523 C535 0.929 . S
H524 C538 0.930 . S
H525 C540 0.960 . S
H526 C540 0.960 . S
H527 C540 0.960 . S
C528 H520 0.929 . S
C528 C529 1.377 . S
C528 C530 1.384 . S
C529 C528 1.377 . S
C529 C535 1.390 . S
C530 H521 0.930 . S
C530 C528 1.384 . S
C530 C531 1.372 . S
C531 C530 1.372 . S
C531 C532 1.400 . S
C531 C536 1.490 . S
C532 H522 0.930 . S
C532 C531 1.400 . S
C532 C535 1.386 . S
H533 C549 0.930 . S
H534 C550 0.931 . S
C535 H523 0.929 . S
C535 C529 1.390 . S
C535 C532 1.386 . S
C536 C531 1.490 . S
C536 C538 1.395 . S
C536 C539 1.403 . S
H537 C543 0.930 . S
C538 H524 0.930 . S
C538 C536 1.395 . S
C538 C541 1.403 . S
C539 C536 1.403 . S
C539 C540 1.524 . S
C539 C543 1.400 . S
C540 H525 0.960 . S
C540 H526 0.960 . S
C540 H527 0.960 . S
C540 C539 1.524 . S
C541 C538 1.403 . S
C541 C542 1.392 . S
C541 C545 1.495 . S
C542 C541 1.392 . S
C542 C543 1.385 . S
C542 C544 1.478 . S
C543 H537 0.930 . S
C543 C539 1.400 . S
C543 C542 1.385 . S
C544 C542 1.478 . S
C544 C546 1.381 . S
C544 C550 1.383 . S
C545 C541 1.495 . S
C545 H551 0.959 . S
C545 H552 0.961 . S
C545 H553 0.960 . S
C546 C544 1.381 . S
C546 C547 1.394 . S
C546 H554 0.930 . S
C547 C546 1.394 . S
C547 C548 1.383 . S
C547 H555 0.929 . S
C548 C547 1.383 . S
C548 C549 1.377 . S
C549 H533 0.930 . S
C549 C548 1.377 . S
C549 C550 1.379 . S
C550 H534 0.931 . S
C550 C544 1.383 . S
C550 C549 1.379 . S
H551 C545 0.959 . S
H552 C545 0.961 . S
H553 C545 0.960 . S
H554 C546 0.930 . S
H555 C547 0.929 . S
H556 C564 0.929 . S
H557 C566 0.930 . S
H558 C568 0.930 . S
H559 C571 0.929 . S
H560 C574 0.930 . S
H561 C576 0.960 . S
H562 C576 0.960 . S
H563 C576 0.960 . S
C564 H556 0.929 . S
C564 C565 1.377 . S
C564 C566 1.384 . S
C565 C564 1.377 . S
C565 C571 1.390 . S
C566 H557 0.930 . S
C566 C564 1.384 . S
C566 C567 1.372 . S
C567 C566 1.372 . S
C567 C568 1.400 . S
C567 C572 1.490 . S
C568 H558 0.930 . S
C568 C567 1.400 . S
C568 C571 1.386 . S
H569 C585 0.930 . S
H570 C586 0.931 . S
C571 H559 0.929 . S
C571 C565 1.390 . S
C571 C568 1.386 . S
C572 C567 1.490 . S
C572 C574 1.395 . S
C572 C575 1.403 . S
H573 C579 0.930 . S
C574 H560 0.930 . S
C574 C572 1.395 . S
C574 C577 1.403 . S
C575 C572 1.403 . S
C575 C576 1.524 . S
C575 C579 1.400 . S
C576 H561 0.960 . S
C576 H562 0.960 . S
C576 H563 0.960 . S
C576 C575 1.524 . S
C577 C574 1.403 . S
C577 C578 1.392 . S
C577 C581 1.495 . S
C578 C577 1.392 . S
C578 C579 1.385 . S
C578 C580 1.478 . S
C579 H573 0.930 . S
C579 C575 1.400 . S
C579 C578 1.385 . S
C580 C578 1.478 . S
C580 C582 1.381 . S
C580 C586 1.383 . S
C581 C577 1.495 . S
C581 H587 0.959 . S
C581 H588 0.961 . S
C581 H589 0.960 . S
C582 C580 1.381 . S
C582 C583 1.394 . S
C582 H590 0.930 . S
C583 C582 1.394 . S
C583 C584 1.383 . S
C583 H591 0.929 . S
C584 C583 1.383 . S
C584 C585 1.377 . S
C585 H569 0.930 . S
C585 C584 1.377 . S
C585 C586 1.379 . S
C586 H570 0.931 . S
C586 C580 1.383 . S
C586 C585 1.379 . S
H587 C581 0.959 . S
H588 C581 0.961 . S
H589 C581 0.960 . S
H590 C582 0.930 . S
H591 C583 0.929 . S
H592 C600 0.929 . S
H593 C602 0.930 . S
H594 C604 0.930 . S
H595 C607 0.929 . S
H596 C610 0.930 . S
H597 C612 0.960 . S
H598 C612 0.960 . S
H599 C612 0.960 . S
C600 H592 0.929 . S
C600 C601 1.380 . S
C600 C602 1.384 . S
C601 C600 1.380 . S
C601 C607 1.386 1_545 S
C602 H593 0.930 . S
C602 C600 1.384 . S
C602 C603 1.372 . S
C603 C602 1.372 . S
C603 C604 1.400 1_545 S
C603 C608 1.490 . S
C604 H594 0.930 . S
C604 C603 1.400 1_565 S
C604 C607 1.386 . S
H605 C621 0.930 . S
H606 C622 0.931 . S
C607 H595 0.929 . S
C607 C601 1.386 1_565 S
C607 C604 1.386 . S
C608 C603 1.490 . S
C608 C610 1.395 . S
C608 C611 1.403 1_545 S
H609 C615 0.930 . S
C610 H596 0.930 . S
C610 C608 1.395 . S
C610 C613 1.403 . S
C611 C608 1.403 1_565 S
C611 C612 1.524 . S
C611 C615 1.400 . S
C612 H597 0.960 . S
C612 H598 0.960 . S
C612 H599 0.960 . S
C612 C611 1.524 . S
C613 C610 1.403 . S
C613 C614 1.392 . S
C613 C617 1.495 . S
C614 C613 1.392 . S
C614 C615 1.385 1_545 S
C614 C616 1.478 . S
C615 H609 0.930 . S
C615 C611 1.400 . S
C615 C614 1.385 1_565 S
C616 C614 1.478 . S
C616 C618 1.381 . S
C616 C622 1.383 1_545 S
C617 C613 1.495 . S
C617 H623 0.959 . S
C617 H624 0.961 . S
C617 H625 0.960 . S
C618 C616 1.381 . S
C618 C619 1.394 . S
C618 H626 0.930 . S
C619 C618 1.394 . S
C619 C620 1.383 . S
C619 H627 0.929 . S
C620 C619 1.383 . S
C620 C621 1.377 1_545 S
C621 H605 0.930 . S
C621 C620 1.377 1_565 S
C621 C622 1.379 . S
C622 H606 0.931 . S
C622 C616 1.383 1_565 S
C622 C621 1.379 . S
H623 C617 0.959 . S
H624 C617 0.961 . S
H625 C617 0.960 . S
H626 C618 0.930 . S
H627 C619 0.929 . S
H628 C636 0.929 . S
H629 C638 0.930 . S
H630 C640 0.930 . S
H631 C643 0.929 . S
H632 C646 0.930 . S
H633 C648 0.960 . S
H634 C648 0.960 . S
H635 C648 0.960 . S
C636 H628 0.929 . S
C636 C637 1.377 . S
C636 C638 1.384 . S
C637 C636 1.377 . S
C637 C643 1.390 . S
C638 H629 0.930 . S
C638 C636 1.384 . S
C638 C639 1.372 . S
C639 C638 1.372 . S
C639 C640 1.400 . S
C639 C644 1.490 . S
C640 H630 0.930 . S
C640 C639 1.400 . S
C640 C643 1.386 . S
H641 C657 0.930 . S
H642 C658 0.931 . S
C643 H631 0.929 . S
C643 C637 1.390 . S
C643 C640 1.386 . S
C644 C639 1.490 . S
C644 C646 1.395 . S
C644 C647 1.403 . S
H645 C651 0.930 . S
C646 H632 0.930 . S
C646 C644 1.395 . S
C646 C649 1.403 1_554 S
C647 C644 1.403 . S
C647 C648 1.524 . S
C647 C651 1.400 . S
C648 H633 0.960 . S
C648 H634 0.960 . S
C648 H635 0.960 . S
C648 C647 1.524 . S
C649 C646 1.403 1_556 S
C649 C650 1.392 1_556 S
C649 C653 1.495 . S
C650 C649 1.392 1_554 S
C650 C651 1.385 . S
C650 C652 1.478 1_554 S
C651 H645 0.930 . S
C651 C647 1.400 . S
C651 C650 1.385 . S
C652 C650 1.478 1_556 S
C652 C654 1.381 . S
C652 C658 1.383 . S
C653 C649 1.495 . S
C653 H659 0.959 . S
C653 H660 0.961 . S
C653 H661 0.960 . S
C654 C652 1.381 . S
C654 C655 1.394 . S
C654 H662 0.930 . S
C655 C654 1.394 . S
C655 C656 1.383 . S
C655 H663 0.929 . S
C656 C655 1.383 . S
C656 C657 1.377 . S
C657 H641 0.930 . S
C657 C656 1.377 . S
C657 C658 1.379 . S
C658 H642 0.931 . S
C658 C652 1.383 . S
C658 C657 1.379 . S
H659 C653 0.959 . S
H660 C653 0.961 . S
H661 C653 0.960 . S
H662 C654 0.930 . S
H663 C655 0.929 . S
H664 C672 0.929 . S
H665 C674 0.930 . S
H666 C676 0.930 . S
H667 C679 0.929 . S
H668 C682 0.930 . S
H669 C684 0.961 . S
H670 C684 0.962 . S
H671 C684 0.960 1_556 S
C672 H664 0.929 . S
C672 C673 1.377 . S
C672 C674 1.384 . S
C673 C672 1.377 . S
C673 C679 1.390 . S
C674 H665 0.930 . S
C674 C672 1.384 . S
C674 C675 1.372 . S
C675 C674 1.372 . S
C675 C676 1.400 . S
C675 C680 1.490 . S
C676 H666 0.930 . S
C676 C675 1.400 . S
C676 C679 1.386 . S
H677 C693 0.930 . S
H678 C694 0.931 . S
C679 H667 0.929 . S
C679 C673 1.390 . S
C679 C676 1.386 . S
C680 C675 1.490 . S
C680 C682 1.395 . S
C680 C683 1.403 . S
H681 C687 0.930 . S
C682 H668 0.930 . S
C682 C680 1.395 . S
C682 C685 1.403 . S
C683 C680 1.403 . S
C683 C684 1.521 1_556 S
C683 C687 1.400 . S
C684 H669 0.961 . S
C684 H670 0.962 . S
C684 H671 0.960 1_554 S
C684 C683 1.521 1_554 S
C685 C682 1.403 . S
C685 C686 1.392 . S
C685 C689 1.495 . S
C686 C685 1.392 . S
C686 C687 1.385 . S
C686 C688 1.478 . S
C687 H681 0.930 . S
C687 C683 1.400 . S
C687 C686 1.385 . S
C688 C686 1.478 . S
C688 C690 1.381 . S
C688 C694 1.383 . S
C689 C685 1.495 . S
C689 H695 0.959 . S
C689 H696 0.961 . S
C689 H697 0.960 . S
C690 C688 1.381 . S
C690 C691 1.394 . S
C690 H698 0.930 . S
C691 C690 1.394 . S
C691 C692 1.383 . S
C691 H699 0.929 . S
C692 C691 1.383 . S
C692 C693 1.377 . S
C693 H677 0.930 . S
C693 C692 1.377 . S
C693 C694 1.379 . S
C694 H678 0.931 . S
C694 C688 1.383 . S
C694 C693 1.379 . S
H695 C689 0.959 . S
H696 C689 0.961 . S
H697 C689 0.960 . S
H698 C690 0.930 . S
H699 C691 0.929 . S
H700 C708 0.929 . S
H701 C710 0.930 . S
H702 C712 0.930 . S
H703 C715 0.929 . S
H704 C718 0.930 . S
H705 C720 0.960 . S
H706 C720 0.960 . S
H707 C720 0.960 . S
C708 H700 0.929 . S
C708 C709 1.377 . S
C708 C710 1.384 . S
C709 C708 1.377 . S
C709 C715 1.390 . S
C710 H701 0.930 . S
C710 C708 1.384 . S
C710 C711 1.372 . S
C711 C710 1.372 . S
C711 C712 1.400 . S
C711 C716 1.490 . S
C712 H702 0.930 . S
C712 C711 1.400 . S
C712 C715 1.386 . S
H713 C729 0.930 . S
H714 C730 0.931 . S
C715 H703 0.929 . S
C715 C709 1.390 . S
C715 C712 1.386 . S
C716 C711 1.490 . S
C716 C718 1.395 . S
C716 C719 1.403 . S
H717 C723 0.930 . S
C718 H704 0.930 . S
C718 C716 1.395 . S
C718 C721 1.403 . S
C719 C716 1.403 . S
C719 C720 1.524 . S
C719 C723 1.400 . S
C720 H705 0.960 . S
C720 H706 0.960 . S
C720 H707 0.960 . S
C720 C719 1.524 . S
C721 C718 1.403 . S
C721 C722 1.392 . S
C721 C725 1.495 . S
C722 C721 1.392 . S
C722 C723 1.385 . S
C722 C724 1.478 . S
C723 H717 0.930 . S
C723 C719 1.400 . S
C723 C722 1.385 . S
C724 C722 1.478 . S
C724 C726 1.381 . S
C724 C730 1.383 . S
C725 C721 1.495 . S
C725 H731 0.959 . S
C725 H732 0.961 . S
C725 H733 0.960 . S
C726 C724 1.381 . S
C726 C727 1.394 . S
C726 H734 0.930 . S
C727 C726 1.394 . S
C727 C728 1.383 . S
C727 H735 0.929 1_655 S
C728 C727 1.383 . S
C728 C729 1.377 . S
C729 H713 0.930 . S
C729 C728 1.377 . S
C729 C730 1.379 . S
C730 H714 0.931 . S
C730 C724 1.383 . S
C730 C729 1.379 . S
H731 C725 0.959 . S
H732 C725 0.961 . S
H733 C725 0.960 . S
H734 C726 0.930 . S
H735 C727 0.929 1_455 S
H736 C744 0.929 . S
H737 C746 0.930 . S
H738 C748 0.930 . S
H739 C751 0.929 . S
H740 C754 0.930 . S
H741 C756 0.960 . S
H742 C756 0.960 . S
H743 C756 0.960 . S
C744 H736 0.929 . S
C744 C745 1.377 . S
C744 C746 1.384 . S
C745 C744 1.377 . S
C745 C751 1.390 . S
C746 H737 0.930 . S
C746 C744 1.384 . S
C746 C747 1.372 . S
C747 C746 1.372 . S
C747 C748 1.400 . S
C747 C752 1.490 . S
C748 H738 0.930 . S
C748 C747 1.400 . S
C748 C751 1.386 . S
H749 C765 0.930 . S
H750 C766 0.931 . S
C751 H739 0.929 . S
C751 C745 1.390 . S
C751 C748 1.386 . S
C752 C747 1.490 . S
C752 C754 1.395 . S
C752 C755 1.403 . S
H753 C759 0.930 . S
C754 H740 0.930 . S
C754 C752 1.395 . S
C754 C757 1.403 . S
C755 C752 1.403 . S
C755 C756 1.524 . S
C755 C759 1.400 . S
C756 H741 0.960 . S
C756 H742 0.960 . S
C756 H743 0.960 . S
C756 C755 1.524 . S
C757 C754 1.403 . S
C757 C758 1.392 . S
C757 C761 1.495 . S
C758 C757 1.392 . S
C758 C759 1.385 . S
C758 C760 1.478 . S
C759 H753 0.930 . S
C759 C755 1.400 . S
C759 C758 1.385 . S
C760 C758 1.478 . S
C760 C762 1.381 . S
C760 C766 1.383 . S
C761 C757 1.495 . S
C761 H767 0.959 . S
C761 H768 0.961 . S
C761 H769 0.960 . S
C762 C760 1.381 . S
C762 C763 1.394 . S
C762 H770 0.930 . S
C763 C762 1.394 . S
C763 C764 1.383 . S
C763 H771 0.929 . S
C764 C763 1.383 . S
C764 C765 1.377 . S
C765 H749 0.930 . S
C765 C764 1.377 . S
C765 C766 1.379 . S
C766 H750 0.931 . S
C766 C760 1.383 . S
C766 C765 1.379 . S
H767 C761 0.959 . S
H768 C761 0.961 . S
H769 C761 0.960 . S
H770 C762 0.930 . S
H771 C763 0.929 . S
H772 C780 0.929 . S
H773 C782 0.930 . S
H774 C784 0.930 . S
H775 C787 0.929 . S
H776 C790 0.930 . S
H777 C792 0.960 . S
H778 C792 0.960 . S
H779 C792 0.960 . S
C780 H772 0.929 . S
C780 C781 1.402 . S
C780 C782 1.384 . S
C781 C780 1.402 . S
C781 C787 1.356 1_545 S
C782 H773 0.930 . S
C782 C780 1.384 . S
C782 C783 1.372 1_545 S
C783 C782 1.372 1_565 S
C783 C784 1.400 . S
C783 C788 1.490 . S
C784 H774 0.930 . S
C784 C783 1.400 . S
C784 C787 1.386 . S
H785 C801 0.930 . S
H786 C802 0.931 . S
C787 H775 0.929 . S
C787 C781 1.356 1_565 S
C787 C784 1.386 . S
C788 C783 1.490 . S
C788 C790 1.395 1_565 S
C788 C791 1.403 . S
H789 C795 0.930 . S
C790 H776 0.930 . S
C790 C788 1.395 1_545 S
C790 C793 1.403 . S
C791 C788 1.403 . S
C791 C792 1.524 . S
C791 C795 1.400 . S
C792 H777 0.960 . S
C792 H778 0.960 . S
C792 H779 0.960 . S
C792 C791 1.524 . S
C793 C790 1.403 . S
C793 C794 1.392 1_545 S
C793 C797 1.495 . S
C794 C793 1.392 1_565 S
C794 C795 1.385 . S
C794 C796 1.478 . S
C795 H789 0.930 . S
C795 C791 1.400 . S
C795 C794 1.385 . S
C796 C794 1.478 . S
C796 C798 1.381 1_565 S
C796 C802 1.383 . S
C797 C793 1.495 . S
C797 H803 0.959 . S
C797 H804 0.961 . S
C797 H805 0.960 . S
C798 C796 1.381 1_545 S
C798 C799 1.394 . S
C798 H806 0.930 . S
C799 C798 1.394 . S
C799 C800 1.383 1_545 S
C799 H807 0.929 . S
C800 C799 1.383 1_565 S
C800 C801 1.377 . S
C801 H785 0.930 . S
C801 C800 1.377 . S
C801 C802 1.379 . S
C802 H786 0.931 . S
C802 C796 1.383 . S
C802 C801 1.379 . S
H803 C797 0.959 . S
H804 C797 0.961 . S
H805 C797 0.960 . S
H806 C798 0.930 . S
H807 C799 0.929 . S
H808 C816 0.929 . S
H809 C818 0.930 . S
H810 C820 0.930 . S
H811 C823 0.929 . S
H812 C826 0.930 . S
H813 C828 0.960 . S
H814 C828 0.960 . S
H815 C828 0.960 . S
C816 H808 0.929 . S
C816 C817 1.377 . S
C816 C818 1.384 . S
C817 C816 1.377 . S
C817 C823 1.390 . S
C818 H809 0.930 . S
C818 C816 1.384 . S
C818 C819 1.372 . S
C819 C818 1.372 . S
C819 C820 1.400 . S
C819 C824 1.490 . S
C820 H810 0.930 . S
C820 C819 1.400 . S
C820 C823 1.386 . S
H821 C837 0.930 . S
H822 C838 0.931 . S
C823 H811 0.929 . S
C823 C817 1.390 . S
C823 C820 1.386 . S
C824 C819 1.490 . S
C824 C826 1.395 . S
C824 C827 1.403 . S
H825 C831 0.930 . S
C826 H812 0.930 . S
C826 C824 1.395 . S
C826 C829 1.403 . S
C827 C824 1.403 . S
C827 C828 1.524 . S
C827 C831 1.400 . S
C828 H813 0.960 . S
C828 H814 0.960 . S
C828 H815 0.960 . S
C828 C827 1.524 . S
C829 C826 1.403 . S
C829 C830 1.392 . S
C829 C833 1.495 . S
C830 C829 1.392 . S
C830 C831 1.385 . S
C830 C832 1.478 . S
C831 H825 0.930 . S
C831 C827 1.400 . S
C831 C830 1.385 . S
C832 C830 1.478 . S
C832 C834 1.381 . S
C832 C838 1.383 . S
C833 C829 1.495 . S
C833 H839 0.959 . S
C833 H840 0.961 . S
C833 H841 0.960 . S
C834 C832 1.381 . S
C834 C835 1.394 . S
C834 H842 0.930 . S
C835 C834 1.394 . S
C835 C836 1.383 . S
C835 H843 0.929 . S
C836 C835 1.383 . S
C836 C837 1.377 . S
C837 H821 0.930 . S
C837 C836 1.377 . S
C837 C838 1.379 . S
C838 H822 0.931 . S
C838 C832 1.383 . S
C838 C837 1.379 . S
H839 C833 0.959 . S
H840 C833 0.961 . S
H841 C833 0.960 . S
H842 C834 0.930 . S
H843 C835 0.929 . S
H844 C852 0.929 . S
H845 C854 0.930 . S
H846 C856 0.930 . S
H847 C859 0.929 . S
H848 C862 0.930 . S
H849 C864 0.960 . S
H850 C864 0.960 . S
H851 C864 0.960 . S
C852 H844 0.929 . S
C852 C853 1.377 . S
C852 C854 1.384 . S
C853 C852 1.377 . S
C853 C859 1.390 . S
C854 H845 0.930 . S
C854 C852 1.384 . S
C854 C855 1.372 . S
C855 C854 1.372 . S
C855 C856 1.400 . S
C855 C860 1.490 . S
C856 H846 0.930 . S
C856 C855 1.400 . S
C856 C859 1.386 . S
H857 C873 0.930 . S
H858 C874 0.931 . S
C859 H847 0.929 . S
C859 C853 1.390 . S
C859 C856 1.386 . S
C860 C855 1.490 . S
C860 C862 1.395 . S
C860 C863 1.403 . S
H861 C867 0.930 . S
C862 H848 0.930 . S
C862 C860 1.395 . S
C862 C865 1.403 . S
C863 C860 1.403 . S
C863 C864 1.524 . S
C863 C867 1.400 . S
C864 H849 0.960 . S
C864 H850 0.960 . S
C864 H851 0.960 . S
C864 C863 1.524 . S
C865 C862 1.403 . S
C865 C866 1.392 . S
C865 C869 1.495 . S
C866 C865 1.392 . S
C866 C867 1.385 . S
C866 C868 1.478 . S
C867 H861 0.930 . S
C867 C863 1.400 . S
C867 C866 1.385 . S
C868 C866 1.478 . S
C868 C870 1.381 . S
C868 C874 1.383 . S
C869 C865 1.495 . S
C869 H875 0.959 . S
C869 H876 0.961 . S
C869 H877 0.960 . S
C870 C868 1.381 . S
C870 C871 1.394 . S
C870 H878 0.930 . S
C871 C870 1.394 . S
C871 C872 1.383 . S
C871 H879 0.929 . S
C872 C871 1.383 . S
C872 C873 1.377 . S
C873 H857 0.930 . S
C873 C872 1.377 . S
C873 C874 1.379 . S
C874 H858 0.931 . S
C874 C868 1.383 . S
C874 C873 1.379 . S
H875 C869 0.959 . S
H876 C869 0.961 . S
H877 C869 0.960 . S
H878 C870 0.930 . S
H879 C871 0.929 . S
H880 C888 0.929 . S
H881 C890 0.930 . S
H882 C892 0.930 . S
H883 C895 0.929 . S
H884 C898 0.930 . S
H885 C900 0.960 . S
H886 C900 0.960 . S
H887 C900 0.960 . S
C888 H880 0.929 . S
C888 C889 1.377 . S
C888 C890 1.384 . S
C889 C888 1.377 . S
C889 C895 1.390 . S
C890 H881 0.930 . S
C890 C888 1.384 . S
C890 C891 1.372 . S
C891 C890 1.372 . S
C891 C892 1.400 . S
C891 C896 1.490 . S
C892 H882 0.930 . S
C892 C891 1.400 . S
C892 C895 1.386 . S
H893 C909 0.930 1_455 S
H894 C910 0.931 . S
C895 H883 0.929 . S
C895 C889 1.390 . S
C895 C892 1.386 . S
C896 C891 1.490 . S
C896 C898 1.395 . S
C896 C899 1.403 . S
H897 C903 0.930 . S
C898 H884 0.930 . S
C898 C896 1.395 . S
C898 C901 1.403 . S
C899 C896 1.403 . S
C899 C900 1.524 . S
C899 C903 1.400 . S
C900 H885 0.960 . S
C900 H886 0.960 . S
C900 H887 0.960 . S
C900 C899 1.524 . S
C901 C898 1.403 . S
C901 C902 1.392 . S
C901 C905 1.495 . S
C902 C901 1.392 . S
C902 C903 1.385 . S
C902 C904 1.478 . S
C903 H897 0.930 . S
C903 C899 1.400 . S
C903 C902 1.385 . S
C904 C902 1.478 . S
C904 C906 1.381 . S
C904 C910 1.383 . S
C905 C901 1.495 . S
C905 H911 0.959 . S
C905 H912 0.961 . S
C905 H913 0.960 . S
C906 C904 1.381 . S
C906 C907 1.394 . S
C906 H914 0.930 . S
C907 C906 1.394 . S
C907 C908 1.383 . S
C907 H915 0.929 . S
C908 C907 1.383 . S
C908 C909 1.377 . S
C909 H893 0.930 1_655 S
C909 C908 1.377 . S
C909 C910 1.379 . S
C910 H894 0.931 . S
C910 C904 1.383 . S
C910 C909 1.379 . S
H911 C905 0.959 . S
H912 C905 0.961 . S
H913 C905 0.960 . S
H914 C906 0.930 . S
H915 C907 0.929 . S
H916 C924 0.929 . S
H917 C926 0.930 . S
H918 C928 0.930 . S
H919 C931 0.929 . S
H920 C934 0.930 . S
H921 C936 0.960 . S
H922 C936 0.960 . S
H923 C936 0.960 . S
C924 H916 0.929 . S
C924 C925 1.398 . S
C924 C926 1.384 . S
C925 C924 1.398 . S
C925 C931 1.361 1_565 S
C926 H917 0.930 . S
C926 C924 1.384 . S
C926 C927 1.372 1_565 S
C927 C926 1.372 1_545 S
C927 C928 1.400 . S
C927 C932 1.490 . S
C928 H918 0.930 . S
C928 C927 1.400 . S
C928 C931 1.386 . S
H929 C945 0.930 . S
H930 C946 0.931 . S
C931 H919 0.929 . S
C931 C925 1.361 1_545 S
C931 C928 1.386 . S
C932 C927 1.490 . S
C932 C934 1.395 1_545 S
C932 C935 1.403 . S
H933 C939 0.930 . S
C934 H920 0.930 . S
C934 C932 1.395 1_565 S
C934 C937 1.403 . S
C935 C932 1.403 . S
C935 C936 1.524 . S
C935 C939 1.400 . S
C936 H921 0.960 . S
C936 H922 0.960 . S
C936 H923 0.960 . S
C936 C935 1.524 . S
C937 C934 1.403 . S
C937 C938 1.392 1_565 S
C937 C941 1.495 . S
C938 C937 1.392 1_545 S
C938 C939 1.385 . S
C938 C940 1.478 . S
C939 H933 0.930 . S
C939 C935 1.400 . S
C939 C938 1.385 . S
C940 C938 1.478 . S
C940 C942 1.381 1_545 S
C940 C946 1.383 . S
C941 C937 1.495 . S
C941 H947 0.959 . S
C941 H948 0.961 . S
C941 H949 0.960 . S
C942 C940 1.381 1_565 S
C942 C943 1.394 . S
C942 H950 0.930 . S
C943 C942 1.394 . S
C943 C944 1.383 1_565 S
C943 H951 0.929 . S
C944 C943 1.383 1_545 S
C944 C945 1.377 . S
C945 H929 0.930 . S
C945 C944 1.377 . S
C945 C946 1.379 . S
C946 H930 0.931 . S
C946 C940 1.383 . S
C946 C945 1.379 . S
H947 C941 0.959 . S
H948 C941 0.961 . S
H949 C941 0.960 . S
H950 C942 0.930 . S
H951 C943 0.929 . S
H952 C960 0.929 . S
H953 C962 0.930 . S
H954 C964 0.930 . S
H955 C967 0.929 . S
H956 C970 0.930 . S
H957 C972 0.960 . S
H958 C972 0.960 . S
H959 C972 0.963 . S
C960 H952 0.929 . S
C960 C961 1.377 . S
C960 C962 1.384 . S
C961 C960 1.377 . S
C961 C967 1.390 . S
C962 H953 0.930 . S
C962 C960 1.384 . S
C962 C963 1.372 . S
C963 C962 1.372 . S
C963 C964 1.400 . S
C963 C968 1.490 . S
C964 H954 0.930 . S
C964 C963 1.400 . S
C964 C967 1.386 . S
H965 C981 0.930 . S
H966 C982 0.931 . S
C967 H955 0.929 . S
C967 C961 1.390 . S
C967 C964 1.386 . S
C968 C963 1.490 . S
C968 C970 1.395 . S
C968 C971 1.403 . S
H969 C975 0.930 . S
C970 H956 0.930 . S
C970 C968 1.395 . S
C970 C973 1.403 . S
C971 C968 1.403 . S
C971 C972 1.524 1_554 S
C971 C975 1.400 1_554 S
C972 H957 0.960 . S
C972 H958 0.960 . S
C972 H959 0.963 . S
C972 C971 1.524 1_556 S
C973 C970 1.403 . S
C973 C974 1.392 . S
C973 C977 1.495 . S
C974 C973 1.392 . S
C974 C975 1.385 1_554 S
C974 C976 1.478 1_554 S
C975 H969 0.930 . S
C975 C971 1.400 1_556 S
C975 C974 1.385 1_556 S
C976 C974 1.478 1_556 S
C976 C978 1.381 . S
C976 C982 1.383 . S
C977 C973 1.495 . S
C977 H983 0.959 . S
C977 H984 0.961 . S
C977 H985 0.960 . S
C978 C976 1.381 . S
C978 C979 1.394 . S
C978 H986 0.930 . S
C979 C978 1.394 . S
C979 C980 1.383 . S
C979 H987 0.929 . S
C980 C979 1.383 . S
C980 C981 1.377 . S
C981 H965 0.930 . S
C981 C980 1.377 . S
C981 C982 1.379 . S
C982 H966 0.931 . S
C982 C976 1.383 . S
C982 C981 1.379 . S
H983 C977 0.959 . S
H984 C977 0.961 . S
H985 C977 0.960 . S
H986 C978 0.930 . S
H987 C979 0.929 . S
H988 C996 0.929 . S
H989 C998 0.930 . S
H990 C1000 0.930 . S
H991 C1003 0.929 . S
H992 C1006 0.930 . S
H993 C1008 0.960 . S
H994 C1008 0.960 . S
H995 C1008 0.960 . S
C996 H988 0.929 . S
C996 C997 1.377 . S
C996 C998 1.384 . S
C997 C996 1.377 . S
C997 C1003 1.390 . S
C998 H989 0.930 . S
C998 C996 1.384 . S
C998 C999 1.372 . S
C999 C998 1.372 . S
C999 C1000 1.400 . S
C999 C1004 1.490 . S
C1000 H990 0.930 . S
C1000 C999 1.400 . S
C1000 C1003 1.386 . S
H1001 C1017 0.930 . S
H1002 C1018 0.931 . S
C1003 H991 0.929 . S
C1003 C997 1.390 . S
C1003 C1000 1.386 . S
C1004 C999 1.490 . S
C1004 C1006 1.395 . S
C1004 C1007 1.403 . S
H1005 C1011 0.930 . S
C1006 H992 0.930 . S
C1006 C1004 1.395 . S
C1006 C1009 1.403 . S
C1007 C1004 1.403 . S
C1007 C1008 1.524 . S
C1007 C1011 1.400 . S
C1008 H993 0.960 . S
C1008 H994 0.960 . S
C1008 H995 0.960 . S
C1008 C1007 1.524 . S
C1009 C1006 1.403 . S
C1009 C1010 1.392 . S
C1009 C1013 1.495 . S
C1010 C1009 1.392 . S
C1010 C1011 1.385 . S
C1010 C1012 1.478 . S
C1011 H1005 0.930 . S
C1011 C1007 1.400 . S
C1011 C1010 1.385 . S
C1012 C1010 1.478 . S
C1012 C1014 1.381 . S
C1012 C1018 1.383 . S
C1013 C1009 1.495 . S
C1013 H1019 0.959 . S
C1013 H1020 0.961 . S
C1013 H1021 0.960 . S
C1014 C1012 1.381 . S
C1014 C1015 1.394 . S
C1014 H1022 0.930 . S
C1015 C1014 1.394 . S
C1015 C1016 1.383 . S
C1015 H1023 0.929 . S
C1016 C1015 1.383 . S
C1016 C1017 1.377 . S
C1017 H1001 0.930 . S
C1017 C1016 1.377 . S
C1017 C1018 1.379 . S
C1018 H1002 0.931 . S
C1018 C1012 1.383 . S
C1018 C1017 1.379 . S
H1019 C1013 0.959 . S
H1020 C1013 0.961 . S
H1021 C1013 0.960 . S
H1022 C1014 0.930 . S
H1023 C1015 0.929 . S
H1024 C1032 0.929 . S
H1025 C1034 0.930 . S
H1026 C1036 0.930 . S
H1027 C1039 0.929 . S
H1028 C1042 0.930 . S
H1029 C1044 0.960 . S
H1030 C1044 0.960 . S
H1031 C1044 0.960 . S
C1032 H1024 0.929 . S
C1032 C1033 1.377 . S
C1032 C1034 1.384 . S
C1033 C1032 1.377 . S
C1033 C1039 1.390 . S
C1034 H1025 0.930 . S
C1034 C1032 1.384 . S
C1034 C1035 1.372 . S
C1035 C1034 1.372 . S
C1035 C1036 1.400 . S
C1035 C1040 1.490 . S
C1036 H1026 0.930 . S
C1036 C1035 1.400 . S
C1036 C1039 1.386 . S
H1037 C1053 0.930 . S
H1038 C1054 0.931 . S
C1039 H1027 0.929 . S
C1039 C1033 1.390 . S
C1039 C1036 1.386 . S
C1040 C1035 1.490 . S
C1040 C1042 1.395 . S
C1040 C1043 1.403 . S
H1041 C1047 0.930 . S
C1042 H1028 0.930 . S
C1042 C1040 1.395 . S
C1042 C1045 1.403 . S
C1043 C1040 1.403 . S
C1043 C1044 1.524 . S
C1043 C1047 1.400 . S
C1044 H1029 0.960 . S
C1044 H1030 0.960 . S
C1044 H1031 0.960 . S
C1044 C1043 1.524 . S
C1045 C1042 1.403 . S
C1045 C1046 1.392 . S
C1045 C1049 1.495 . S
C1046 C1045 1.392 . S
C1046 C1047 1.385 . S
C1046 C1048 1.478 . S
C1047 H1041 0.930 . S
C1047 C1043 1.400 . S
C1047 C1046 1.385 . S
C1048 C1046 1.478 . S
C1048 C1050 1.381 . S
C1048 C1054 1.383 . S
C1049 C1045 1.495 . S
C1049 H1055 0.959 . S
C1049 H1056 0.961 . S
C1049 H1057 0.960 . S
C1050 C1048 1.381 . S
C1050 C1051 1.394 . S
C1050 H1058 0.930 . S
C1051 C1050 1.394 . S
C1051 C1052 1.383 . S
C1051 H1059 0.929 . S
C1052 C1051 1.383 . S
C1052 C1053 1.377 . S
C1053 H1037 0.930 . S
C1053 C1052 1.377 . S
C1053 C1054 1.379 . S
C1054 H1038 0.931 . S
C1054 C1048 1.383 . S
C1054 C1053 1.379 . S
H1055 C1049 0.959 . S
H1056 C1049 0.961 . S
H1057 C1049 0.960 . S
H1058 C1050 0.930 . S
H1059 C1051 0.929 . S
H1060 C1068 0.929 . S
H1061 C1070 0.930 . S
H1062 C1072 0.933 . S
H1063 C1075 0.931 . S
H1064 C1078 0.930 . S
H1065 C1080 0.960 . S
H1066 C1080 0.960 . S
H1067 C1080 0.960 . S
C1068 H1060 0.929 . S
C1068 C1069 1.377 . S
C1068 C1070 1.384 . S
C1069 C1068 1.377 . S
C1069 C1075 1.386 1_545 S
C1070 H1061 0.930 . S
C1070 C1068 1.384 . S
C1070 C1071 1.372 . S
C1071 C1070 1.372 . S
C1071 C1072 1.400 . S
C1071 C1076 1.490 . S
C1072 H1062 0.933 . S
C1072 C1071 1.400 . S
C1072 C1075 1.388 1_545 S
H1073 C1089 0.930 . S
H1074 C1090 0.931 . S
C1075 H1063 0.931 . S
C1075 C1069 1.386 1_565 S
C1075 C1072 1.388 1_565 S
C1076 C1071 1.490 . S
C1076 C1078 1.395 . S
C1076 C1079 1.403 1_545 S
H1077 C1083 0.930 . S
C1078 H1064 0.930 . S
C1078 C1076 1.395 . S
C1078 C1081 1.403 . S
C1079 C1076 1.403 1_565 S
C1079 C1080 1.524 . S
C1079 C1083 1.400 . S
C1080 H1065 0.960 . S
C1080 H1066 0.960 . S
C1080 H1067 0.960 . S
C1080 C1079 1.524 . S
C1081 C1078 1.403 . S
C1081 C1082 1.392 . S
C1081 C1085 1.495 . S
C1082 C1081 1.392 . S
C1082 C1083 1.385 1_545 S
C1082 C1084 1.478 . S
C1083 H1077 0.930 . S
C1083 C1079 1.400 . S
C1083 C1082 1.385 1_565 S
C1084 C1082 1.478 . S
C1084 C1086 1.381 . S
C1084 C1090 1.383 . S
C1085 C1081 1.495 . S
C1085 H1091 0.959 . S
C1085 H1092 0.961 . S
C1085 H1093 0.960 . S
C1086 C1084 1.381 . S
C1086 C1087 1.394 . S
C1086 H1094 0.930 . S
C1087 C1086 1.394 . S
C1087 C1088 1.383 . S
C1087 H1095 0.929 1_554 S
C1088 C1087 1.383 . S
C1088 C1089 1.377 . S
C1089 H1073 0.930 . S
C1089 C1088 1.377 . S
C1089 C1090 1.379 . S
C1090 H1074 0.931 . S
C1090 C1084 1.383 . S
C1090 C1089 1.379 . S
H1091 C1085 0.959 . S
H1092 C1085 0.961 . S
H1093 C1085 0.960 . S
H1094 C1086 0.930 . S
H1095 C1087 0.929 1_556 S
H1096 C1104 0.929 . S
H1097 C1106 0.930 . S
H1098 C1108 0.930 . S
H1099 C1111 0.929 . S
H1100 C1114 0.930 . S
H1101 C1116 0.960 . S
H1102 C1116 0.960 . S
H1103 C1116 0.960 . S
C1104 H1096 0.929 . S
C1104 C1105 1.377 . S
C1104 C1106 1.384 . S
C1105 C1104 1.377 . S
C1105 C1111 1.390 1_554 S
C1106 H1097 0.930 . S
C1106 C1104 1.384 . S
C1106 C1107 1.372 1_554 S
C1107 C1106 1.372 1_556 S
C1107 C1108 1.400 . S
C1107 C1112 1.490 . S
C1108 H1098 0.930 . S
C1108 C1107 1.400 . S
C1108 C1111 1.386 . S
H1109 C1125 0.930 . S
H1110 C1126 0.931 . S
C1111 H1099 0.929 . S
C1111 C1105 1.390 1_556 S
C1111 C1108 1.386 . S
C1112 C1107 1.490 . S
C1112 C1114 1.395 . S
C1112 C1115 1.403 . S
H1113 C1119 0.930 . S
C1114 H1100 0.930 . S
C1114 C1112 1.395 . S
C1114 C1117 1.403 . S
C1115 C1112 1.403 . S
C1115 C1116 1.524 1_556 S
C1115 C1119 1.400 . S
C1116 H1101 0.960 . S
C1116 H1102 0.960 . S
C1116 H1103 0.960 . S
C1116 C1115 1.524 1_554 S
C1117 C1114 1.403 . S
C1117 C1118 1.392 . S
C1117 C1121 1.495 . S
C1118 C1117 1.392 . S
C1118 C1119 1.385 . S
C1118 C1120 1.478 . S
C1119 H1113 0.930 . S
C1119 C1115 1.400 . S
C1119 C1118 1.385 . S
C1120 C1118 1.478 . S
C1120 C1122 1.381 . S
C1120 C1126 1.383 . S
C1121 C1117 1.495 . S
C1121 H1127 0.959 . S
C1121 H1128 0.961 . S
C1121 H1129 0.960 . S
C1122 C1120 1.381 . S
C1122 C1123 1.394 . S
C1122 H1130 0.930 . S
C1123 C1122 1.394 . S
C1123 C1124 1.383 . S
C1123 H1131 0.929 . S
C1124 C1123 1.383 . S
C1124 C1125 1.377 . S
C1125 H1109 0.930 . S
C1125 C1124 1.377 . S
C1125 C1126 1.379 . S
C1126 H1110 0.931 . S
C1126 C1120 1.383 . S
C1126 C1125 1.379 . S
H1127 C1121 0.959 . S
H1128 C1121 0.961 . S
H1129 C1121 0.960 . S
H1130 C1122 0.930 . S
H1131 C1123 0.929 . S
H1132 C1140 0.929 . S
H1133 C1142 0.930 . S
H1134 C1144 0.930 . S
H1135 C1147 0.929 . S
H1136 C1150 0.930 . S
H1137 C1152 0.960 . S
H1138 C1152 0.960 . S
H1139 C1152 0.960 . S
C1140 H1132 0.929 . S
C1140 C1141 1.377 . S
C1140 C1142 1.384 . S
C1141 C1140 1.377 . S
C1141 C1147 1.390 . S
C1142 H1133 0.930 . S
C1142 C1140 1.384 . S
C1142 C1143 1.372 . S
C1143 C1142 1.372 . S
C1143 C1144 1.400 . S
C1143 C1148 1.490 . S
C1144 H1134 0.930 . S
C1144 C1143 1.400 . S
C1144 C1147 1.386 . S
H1145 C1161 0.930 . S
H1146 C1162 0.931 . S
C1147 H1135 0.929 . S
C1147 C1141 1.390 . S
C1147 C1144 1.386 . S
C1148 C1143 1.490 . S
C1148 C1150 1.395 . S
C1148 C1151 1.403 . S
H1149 C1155 0.930 . S
C1150 H1136 0.930 . S
C1150 C1148 1.395 . S
C1150 C1153 1.403 . S
C1151 C1148 1.403 . S
C1151 C1152 1.524 . S
C1151 C1155 1.400 . S
C1152 H1137 0.960 . S
C1152 H1138 0.960 . S
C1152 H1139 0.960 . S
C1152 C1151 1.524 . S
C1153 C1150 1.403 . S
C1153 C1154 1.392 . S
C1153 C1157 1.495 . S
C1154 C1153 1.392 . S
C1154 C1155 1.385 . S
C1154 C1156 1.478 . S
C1155 H1149 0.930 . S
C1155 C1151 1.400 . S
C1155 C1154 1.385 . S
C1156 C1154 1.478 . S
C1156 C1158 1.381 . S
C1156 C1162 1.383 . S
C1157 C1153 1.495 . S
C1157 H1163 0.959 . S
C1157 H1164 0.961 . S
C1157 H1165 0.960 . S
C1158 C1156 1.381 . S
C1158 C1159 1.394 . S
C1158 H1166 0.930 . S
C1159 C1158 1.394 . S
C1159 C1160 1.383 . S
C1159 H1167 0.929 1_554 S
C1160 C1159 1.383 . S
C1160 C1161 1.377 . S
C1161 H1145 0.930 . S
C1161 C1160 1.377 . S
C1161 C1162 1.379 . S
C1162 H1146 0.931 . S
C1162 C1156 1.383 . S
C1162 C1161 1.379 . S
H1163 C1157 0.959 . S
H1164 C1157 0.961 . S
H1165 C1157 0.960 . S
H1166 C1158 0.930 . S
H1167 C1159 0.929 1_556 S
H1168 C1176 0.929 . S
H1169 C1178 0.930 . S
H1170 C1180 0.930 . S
H1171 C1183 0.929 . S
H1172 C1186 0.930 . S
H1173 C1188 0.960 . S
H1174 C1188 0.960 . S
H1175 C1188 0.960 . S
C1176 H1168 0.929 . S
C1176 C1177 1.377 . S
C1176 C1178 1.384 . S
C1177 C1176 1.377 . S
C1177 C1183 1.390 . S
C1178 H1169 0.930 . S
C1178 C1176 1.384 . S
C1178 C1179 1.372 . S
C1179 C1178 1.372 . S
C1179 C1180 1.400 . S
C1179 C1184 1.490 . S
C1180 H1170 0.930 . S
C1180 C1179 1.400 . S
C1180 C1183 1.386 . S
H1181 C1197 0.930 . S
H1182 C1198 0.931 . S
C1183 H1171 0.929 . S
C1183 C1177 1.390 . S
C1183 C1180 1.386 . S
C1184 C1179 1.490 . S
C1184 C1186 1.395 . S
C1184 C1187 1.403 . S
H1185 C1191 0.930 . S
C1186 H1172 0.930 . S
C1186 C1184 1.395 . S
C1186 C1189 1.403 . S
C1187 C1184 1.403 . S
C1187 C1188 1.524 . S
C1187 C1191 1.400 . S
C1188 H1173 0.960 . S
C1188 H1174 0.960 . S
C1188 H1175 0.960 . S
C1188 C1187 1.524 . S
C1189 C1186 1.403 . S
C1189 C1190 1.392 . S
C1189 C1193 1.495 . S
C1190 C1189 1.392 . S
C1190 C1191 1.385 . S
C1190 C1192 1.478 . S
C1191 H1185 0.930 . S
C1191 C1187 1.400 . S
C1191 C1190 1.385 . S
C1192 C1190 1.478 . S
C1192 C1194 1.381 . S
C1192 C1198 1.383 . S
C1193 C1189 1.495 . S
C1193 H1199 0.959 . S
C1193 H1200 0.961 . S
C1193 H1201 0.960 . S
C1194 C1192 1.381 . S
C1194 C1195 1.394 . S
C1194 H1202 0.930 . S
C1195 C1194 1.394 . S
C1195 C1196 1.383 . S
C1195 H1203 0.929 . S
C1196 C1195 1.383 . S
C1196 C1197 1.377 . S
C1197 H1181 0.930 . S
C1197 C1196 1.377 . S
C1197 C1198 1.379 . S
C1198 H1182 0.931 . S
C1198 C1192 1.383 . S
C1198 C1197 1.379 . S
H1199 C1193 0.959 . S
H1200 C1193 0.961 . S
H1201 C1193 0.960 . S
H1202 C1194 0.930 . S
H1203 C1195 0.929 . S
H1204 C1212 0.929 . S
H1205 C1214 0.930 . S
H1206 C1216 0.930 . S
H1207 C1219 0.929 . S
H1208 C1222 0.930 . S
H1209 C1224 0.960 . S
H1210 C1224 0.960 . S
H1211 C1224 0.960 . S
C1212 H1204 0.929 . S
C1212 C1213 1.377 1_545 S
C1212 C1214 1.384 . S
C1213 C1212 1.377 1_565 S
C1213 C1219 1.390 . S
C1214 H1205 0.930 . S
C1214 C1212 1.384 . S
C1214 C1215 1.372 1_545 S
C1215 C1214 1.372 1_565 S
C1215 C1216 1.400 . S
C1215 C1220 1.490 . S
C1216 H1206 0.930 . S
C1216 C1215 1.400 . S
C1216 C1219 1.386 . S
H1217 C1233 0.930 . S
H1218 C1234 0.931 . S
C1219 H1207 0.929 . S
C1219 C1213 1.390 . S
C1219 C1216 1.386 . S
C1220 C1215 1.490 . S
C1220 C1222 1.395 1_565 S
C1220 C1223 1.403 . S
H1221 C1227 0.930 . S
C1222 H1208 0.930 . S
C1222 C1220 1.395 1_545 S
C1222 C1225 1.407 1_545 S
C1223 C1220 1.403 . S
C1223 C1224 1.524 . S
C1223 C1227 1.400 . S
C1224 H1209 0.960 . S
C1224 H1210 0.960 . S
C1224 H1211 0.960 . S
C1224 C1223 1.524 . S
C1225 C1222 1.407 1_565 S
C1225 C1226 1.400 . S
C1225 C1229 1.485 1_565 S
C1226 C1225 1.400 . S
C1226 C1227 1.385 . S
C1226 C1228 1.478 . S
C1227 H1221 0.930 . S
C1227 C1223 1.400 . S
C1227 C1226 1.385 . S
C1228 C1226 1.478 . S
C1228 C1230 1.381 1_565 S
C1228 C1234 1.383 . S
C1229 C1225 1.485 1_545 S
C1229 H1235 0.959 . S
C1229 H1236 0.961 1_545 S
C1229 H1237 0.960 . S
C1230 C1228 1.381 1_545 S
C1230 C1231 1.394 . S
C1230 H1238 0.930 . S
C1231 C1230 1.394 . S
C1231 C1232 1.383 1_545 S
C1231 H1239 0.929 . S
C1232 C1231 1.383 1_565 S
C1232 C1233 1.377 . S
C1233 H1217 0.930 . S
C1233 C1232 1.377 . S
C1233 C1234 1.379 . S
C1234 H1218 0.931 . S
C1234 C1228 1.383 . S
C1234 C1233 1.379 . S
H1235 C1229 0.959 . S
H1236 C1229 0.961 1_565 S
H1237 C1229 0.960 . S
H1238 C1230 0.930 . S
H1239 C1231 0.929 . S
H1240 C1248 0.929 . S
H1241 C1250 0.930 . S
H1242 C1252 0.930 . S
H1243 C1255 0.929 . S
H1244 C1258 0.930 . S
H1245 C1260 0.960 . S
H1246 C1260 0.960 . S
H1247 C1260 0.960 . S
C1248 H1240 0.929 . S
C1248 C1249 1.377 . S
C1248 C1250 1.384 . S
C1249 C1248 1.377 . S
C1249 C1255 1.390 . S
C1250 H1241 0.930 . S
C1250 C1248 1.384 . S
C1250 C1251 1.372 . S
C1251 C1250 1.372 . S
C1251 C1252 1.400 . S
C1251 C1256 1.490 . S
C1252 H1242 0.930 . S
C1252 C1251 1.400 . S
C1252 C1255 1.386 . S
H1253 C1269 0.930 . S
H1254 C1270 0.931 . S
C1255 H1243 0.929 . S
C1255 C1249 1.390 . S
C1255 C1252 1.386 . S
C1256 C1251 1.490 . S
C1256 C1258 1.395 . S
C1256 C1259 1.403 . S
H1257 C1263 0.930 . S
C1258 H1244 0.930 . S
C1258 C1256 1.395 . S
C1258 C1261 1.403 . S
C1259 C1256 1.403 . S
C1259 C1260 1.524 . S
C1259 C1263 1.400 . S
C1260 H1245 0.960 . S
C1260 H1246 0.960 . S
C1260 H1247 0.960 . S
C1260 C1259 1.524 . S
C1261 C1258 1.403 . S
C1261 C1262 1.392 . S
C1261 C1265 1.495 . S
C1262 C1261 1.392 . S
C1262 C1263 1.385 . S
C1262 C1264 1.478 . S
C1263 H1257 0.930 . S
C1263 C1259 1.400 . S
C1263 C1262 1.385 . S
C1264 C1262 1.478 . S
C1264 C1266 1.381 . S
C1264 C1270 1.383 . S
C1265 C1261 1.495 . S
C1265 H1271 0.959 . S
C1265 H1272 0.961 . S
C1265 H1273 0.960 . S
C1266 C1264 1.381 . S
C1266 C1267 1.394 . S
C1266 H1274 0.930 . S
C1267 C1266 1.394 . S
C1267 C1268 1.383 . S
C1267 H1275 0.929 . S
C1268 C1267 1.383 . S
C1268 C1269 1.377 . S
C1269 H1253 0.930 . S
C1269 C1268 1.377 . S
C1269 C1270 1.379 . S
C1270 H1254 0.931 . S
C1270 C1264 1.383 . S
C1270 C1269 1.379 . S
H1271 C1265 0.959 . S
H1272 C1265 0.961 . S
H1273 C1265 0.960 . S
H1274 C1266 0.930 . S
H1275 C1267 0.929 . S
H1276 C1284 0.929 . S
H1277 C1286 0.930 . S
H1278 C1288 0.930 . S
H1279 C1291 0.929 . S
H1280 C1294 0.930 . S
H1281 C1296 0.960 . S
H1282 C1296 0.960 . S
H1283 C1296 0.960 . S
C1284 H1276 0.929 . S
C1284 C1285 1.377 . S
C1284 C1286 1.384 . S
C1285 C1284 1.377 . S
C1285 C1291 1.390 . S
C1286 H1277 0.930 . S
C1286 C1284 1.384 . S
C1286 C1287 1.372 . S
C1287 C1286 1.372 . S
C1287 C1288 1.400 . S
C1287 C1292 1.490 . S
C1288 H1278 0.930 . S
C1288 C1287 1.400 . S
C1288 C1291 1.386 . S
H1289 C1305 0.930 . S
H1290 C1306 0.931 . S
C1291 H1279 0.929 . S
C1291 C1285 1.390 . S
C1291 C1288 1.386 . S
C1292 C1287 1.490 . S
C1292 C1294 1.395 . S
C1292 C1295 1.403 . S
H1293 C1299 0.930 . S
C1294 H1280 0.930 . S
C1294 C1292 1.395 . S
C1294 C1297 1.403 . S
C1295 C1292 1.403 . S
C1295 C1296 1.524 . S
C1295 C1299 1.400 . S
C1296 H1281 0.960 . S
C1296 H1282 0.960 . S
C1296 H1283 0.960 . S
C1296 C1295 1.524 . S
C1297 C1294 1.403 . S
C1297 C1298 1.392 . S
C1297 C1301 1.495 . S
C1298 C1297 1.392 . S
C1298 C1299 1.385 . S
C1298 C1300 1.478 . S
C1299 H1293 0.930 . S
C1299 C1295 1.400 . S
C1299 C1298 1.385 . S
C1300 C1298 1.478 . S
C1300 C1302 1.381 . S
C1300 C1306 1.383 . S
C1301 C1297 1.495 . S
C1301 H1307 0.959 . S
C1301 H1308 0.961 . S
C1301 H1309 0.960 . S
C1302 C1300 1.381 . S
C1302 C1303 1.394 . S
C1302 H1310 0.930 . S
C1303 C1302 1.394 . S
C1303 C1304 1.383 . S
C1303 H1311 0.929 . S
C1304 C1303 1.383 . S
C1304 C1305 1.377 . S
C1305 H1289 0.930 . S
C1305 C1304 1.377 . S
C1305 C1306 1.379 . S
C1306 H1290 0.931 . S
C1306 C1300 1.383 . S
C1306 C1305 1.379 . S
H1307 C1301 0.959 . S
H1308 C1301 0.961 . S
H1309 C1301 0.960 . S
H1310 C1302 0.930 . S
H1311 C1303 0.929 . S
C457 C241 0.809 1_565 S
C476 C297 0.850 . S
C512 C337 1.708 . S
C493 C277 1.762 . S
C548 C386 1.649 . S
C529 C169 1.609 . S
C584 C417 2.108 . S
C565 C205 2.160 . S
C620 C306 0.755 . S
C601 C97 0.799 . S
C637 C133 1.832 . S
C656 C346 1.770 . S
C673 C25 1.664 . S
C692 C377 1.649 . S
C709 C61 2.077 1_556 S
C728 C426 2.097 1_655 S
C764 C307 1.061 . S
C745 C211 0.970 . S
C800 C347 0.395 . S
C781 C247 0.562 . S
C836 C383 0.347 . S
C817 C253 0.455 . S
C853 C175 1.078 . S
C872 C427 1.223 . S
C889 C67 0.945 . S
C908 C298 1.081 1_655 S
C944 C338 0.418 . S
C925 C103 0.600 1_565 S
C980 C374 0.363 . S
C961 C109 0.425 . S
C997 C31 1.118 . S
C1016 C418 1.208 . S
C1033 C181 2.143 . S
C1052 C303 2.211 1_554 S
C1069 C217 1.681 . S
C1088 C343 1.720 1_554 S
C1124 C387 2.749 . S
C1105 C283 2.435 . S
C1160 C423 1.775 1_554 S
C1141 C145 1.690 . S
C1177 C37 2.097 . S
C1196 C294 2.220 . S
C1232 C334 1.698 . S
C1213 C73 1.687 1_565 S
C1268 C378 2.750 . S
C1249 C139 2.502 . S
C1285 C1 1.722 . S
C1304 C414 1.776 . S
