# Generated by pormake.
# Topology rtl, (3,6)-cn, num edge types: 1
# Building blocks:
#     Node 0, Type 0, BuildingBlock: QEWDON_clean_linker_0, # of connection points: 3
#     Node 1, Type 0, BuildingBlock: QEWDON_clean_linker_0, # of connection points: 3
#     Node 2, Type 0, BuildingBlock: QEWDON_clean_linker_0, # of connection points: 3
#     Node 3, Type 0, BuildingBlock: QEWDON_clean_linker_0, # of connection points: 3
#     Node 4, Type 1, BuildingBlock: CIFDUS_clean_sbu_1, # of connection points: 6
#     Node 5, Type 1, BuildingBlock: CIFDUS_clean_sbu_1, # of connection points: 6
#     Edge 6, Type (0, 1), BuildingBlock: FUNLAD_clean_linker_1, # of connection points: 2
#     Edge 7, Type (0, 1), BuildingBlock: FUNLAD_clean_linker_1, # of connection points: 2
#     Edge 8, Type (0, 1), BuildingBlock: FUNLAD_clean_linker_1, # of connection points: 2
#     Edge 9, Type (0, 1), BuildingBlock: FUNLAD_clean_linker_1, # of connection points: 2
#     Edge 10, Type (0, 1), BuildingBlock: FUNLAD_clean_linker_1, # of connection points: 2
#     Edge 11, Type (0, 1), BuildingBlock: FUNLAD_clean_linker_1, # of connection points: 2
#     Edge 12, Type (0, 1), BuildingBlock: FUNLAD_clean_linker_1, # of connection points: 2
#     Edge 13, Type (0, 1), BuildingBlock: FUNLAD_clean_linker_1, # of connection points: 2
#     Edge 14, Type (0, 1), BuildingBlock: FUNLAD_clean_linker_1, # of connection points: 2
#     Edge 15, Type (0, 1), BuildingBlock: FUNLAD_clean_linker_1, # of connection points: 2
#     Edge 16, Type (0, 1), BuildingBlock: FUNLAD_clean_linker_1, # of connection points: 2
#     Edge 17, Type (0, 1), BuildingBlock: FUNLAD_clean_linker_1, # of connection points: 2
# Relax obj value: 0.037
# Max RMSD: 0.173
# Mean RMSD: 0.136
data_MOF--net-rtl--node1-CIFDUS_clean_sbu_1--node2-QEWDON_clean_linker_0--edge1-FUNLAD_clean_linker_1
_symmetry_space_group_name_H-M    P1
_symmetry_Int_Tables_number       1
_symmetry_cell_setting            triclinic
loop_
_symmetry_equiv_pos_as_xyz
'x, y, z'
_cell_length_a     39.202241
_cell_length_b     39.2466
_cell_length_c     22.525985
_cell_angle_alpha  91.537518
_cell_angle_beta   99.14683
_cell_angle_gamma 89.73461
loop_
_atom_site_label
_atom_site_type_symbol
_atom_site_fract_x
_atom_site_fract_y
_atom_site_fract_z
_atom_type_partial_charge
H0 H 0.23648 0.86318 0.19252 0.0
C1 C 0.22057 0.86798 0.14958 0.0
C2 C 0.18954 0.88623 0.14818 0.0
C3 C 0.23258 0.85778 0.09625 0.0
H4 H 0.14536 0.90634 0.08953 0.0
C5 C 0.16975 0.89305 0.09184 0.0
C6 C 0.18112 0.88324 0.03762 0.0
C7 C 0.21283 0.86554 0.04028 0.0
C8 C 0.26888 0.84583 0.10026 0.0
H9 H 0.22324 0.85946 0.99956 0.0
C10 C 0.27801 0.81089 0.09993 0.0
C11 C 0.31325 0.80097 0.10972 0.0
C12 C 0.29506 0.87052 0.10901 0.0
H13 H 0.28861 0.8974 0.10978 0.0
C14 C 0.3297 0.86092 0.11752 0.0
H15 H 0.25793 0.79165 0.09338 0.0
C16 C 0.33879 0.82654 0.11797 0.0
H17 H 0.36596 0.82011 0.12349 0.0
H18 H 0.34965 0.88025 0.12388 0.0
H19 H 0.71817 0.70992 0.51968 0.0
C20 C 0.70733 0.70282 0.55891 0.0
C21 C 0.67586 0.6845 0.55212 0.0
C22 C 0.72642 0.70931 0.61668 0.0
H23 H 0.63951 0.65949 0.59819 0.0
C24 C 0.66369 0.67327 0.60386 0.0
C25 C 0.68237 0.67945 0.6619 0.0
C26 C 0.71334 0.69797 0.6675 0.0
C27 C 0.76288 0.72167 0.62495 0.0
H28 H 0.72839 0.70226 0.71181 0.0
C29 C 0.77219 0.75512 0.61133 0.0
C30 C 0.80709 0.76614 0.62553 0.0
C31 C 0.78885 0.69929 0.65053 0.0
H32 H 0.78248 0.67354 0.66114 0.0
C33 C 0.82319 0.70965 0.6628 0.0
H34 H 0.7524 0.77266 0.59169 0.0
C35 C 0.83229 0.74267 0.65059 0.0
H36 H 0.85937 0.7495 0.65982 0.0
H37 H 0.84291 0.69197 0.68203 0.0
H38 H 0.79994 0.20209 0.0815 0.0
C39 C 0.80972 0.19417 0.04096 0.0
C40 C 0.84066 0.17515 0.04466 0.0
C41 C 0.78954 0.20021 0.9846 0.0
H42 H 0.87405 0.14693 0.99476 0.0
C43 C 0.85116 0.16268 0.99118 0.0
C44 C 0.83156 0.16881 0.93436 0.0
C45 C 0.80084 0.18767 0.93195 0.0
C46 C 0.75332 0.21245 0.98031 0.0
H47 H 0.78462 0.19129 0.88885 0.0
C48 C 0.74447 0.2474 0.98312 0.0
C49 C 0.70931 0.25763 0.97365 0.0
C50 C 0.72693 0.18801 0.96942 0.0
H51 H 0.73314 0.16112 0.96685 0.0
C52 C 0.69239 0.19784 0.96149 0.0
H53 H 0.76472 0.26644 0.99131 0.0
C54 C 0.68357 0.23223 0.9636 0.0
H55 H 0.65643 0.23868 0.95861 0.0
H56 H 0.67229 0.17868 0.95368 0.0
H57 H 0.33975 0.3158 0.57627 0.0
C58 C 0.34272 0.33085 0.5378 0.0
C59 C 0.35768 0.3637 0.54636 0.0
C60 C 0.33208 0.31721 0.47922 0.0
H61 H 0.37264 0.40801 0.50245 0.0
C62 C 0.36167 0.38267 0.49565 0.0
C63 C 0.3522 0.36903 0.43688 0.0
C64 C 0.33689 0.33657 0.42945 0.0
C65 C 0.32065 0.28106 0.46849 0.0
H66 H 0.32976 0.32567 0.38444 0.0
C67 C 0.28847 0.26909 0.48069 0.0
C68 C 0.27741 0.23531 0.46372 0.0
C69 C 0.34192 0.25866 0.44128 0.0
H70 H 0.36662 0.2672 0.43143 0.0
C71 C 0.33166 0.2252 0.42628 0.0
H72 H 0.27173 0.28621 0.50133 0.0
C73 C 0.29978 0.21358 0.43722 0.0
H74 H 0.293 0.18725 0.42578 0.0
H75 H 0.34851 0.20817 0.40582 0.0
O76 O 0.98861 0.06606 0.47537 0.0
Mn77 Mn 0.0115 0.03046 0.53988 0.0
O78 O 0.94799 0.03817 0.41175 0.0
Mn79 Mn 0.96383 0.99619 0.43752 0.0
O80 O 0.03469 0.99545 0.60478 0.0
O81 O 0.05158 0.06503 0.56231 0.0
Mn82 Mn 0.05624 0.06758 0.6422 0.0
O83 O 0.98148 0.05304 0.60135 0.0
O84 O 0.0698 0.02607 0.67427 0.0
O85 O 0.04073 0.0077 0.47769 0.0
O86 O 1.00233 0.98047 0.40805 0.0
O87 O 0.08893 0.09616 0.62491 0.0
O88 O 0.01724 0.08646 0.66483 0.0
C89 C 0.94699 0.9728 0.51072 0.0
C90 C 0.96351 0.06557 0.43069 0.0
C91 C 0.05713 0.99767 0.6533 0.0
C92 C 0.07708 0.08713 0.56971 0.0
C93 C 0.98721 0.07545 0.64467 0.0
C94 C 0.03316 0.98866 0.42987 0.0
O95 O 0.97181 0.9956 0.51743 0.0
O96 O 0.933 0.96568 0.45569 0.0
O97 O 0.53425 0.56748 0.11348 0.0
Mn98 Mn 0.51293 0.52903 0.04932 0.0
O99 O 0.5783 0.54364 0.17379 0.0
Mn100 Mn 0.56571 0.50001 0.14889 0.0
O101 O 0.49195 0.49042 0.98527 0.0
O102 O 0.47074 0.56061 0.02891 0.0
Mn103 Mn 0.46073 0.55733 0.94922 0.0
O104 O 0.53875 0.55235 0.98488 0.0
O105 O 0.44808 0.51373 0.92408 0.0
O106 O 0.48727 0.50559 0.11404 0.0
O107 O 0.52921 0.48215 0.18044 0.0
O108 O 0.42836 0.58618 0.97035 0.0
O109 O 0.49711 0.57505 0.91721 0.0
C110 C 0.58072 0.47615 0.07187 0.0
C111 C 0.56015 0.56948 0.15682 0.0
C112 C 0.46643 0.4881 0.94139 0.0
C113 C 0.44473 0.58201 0.02439 0.0
C114 C 0.52879 0.56969 0.93732 0.0
C115 C 0.49748 0.4878 0.16103 0.0
O116 O 0.55499 0.49765 0.06949 0.0
O117 O 0.59767 0.47126 0.12526 0.0
H118 H 0.23408 0.23109 0.51631 0.0
C119 C 0.24346 0.22199 0.47588 0.0
H120 H 0.23389 0.18999 0.39825 0.0
H121 H 0.15109 0.07368 0.49732 0.0
H122 H 0.20141 0.04394 0.47266 0.0
H123 H 0.24921 0.07541 0.44021 0.0
H124 H 0.24715 0.13676 0.43271 0.0
C125 C 0.22503 0.19813 0.43966 0.0
C126 C 0.19473 0.17918 0.45614 0.0
C127 C 0.19602 0.14297 0.45947 0.0
C128 C 0.16839 0.12465 0.47843 0.0
C129 C 0.17114 0.08882 0.48325 0.0
C130 C 0.19994 0.07139 0.46919 0.0
C131 C 0.22681 0.08911 0.45079 0.0
C132 C 0.22515 0.12442 0.44632 0.0
H133 H 0.08707 0.0917 0.47477 0.0
C134 C 0.09346 0.10169 0.52059 0.0
H135 H 0.1224 0.13697 0.58075 0.0
H136 H 0.17946 0.24679 0.44037 0.0
H137 H 0.1278 0.27596 0.46119 0.0
H138 H 0.08109 0.24445 0.49717 0.0
H139 H 0.08558 0.18332 0.51173 0.0
C140 C 0.11763 0.12652 0.53502 0.0
C141 C 0.13944 0.1424 0.49436 0.0
C142 C 0.13687 0.1781 0.48604 0.0
C143 C 0.16423 0.19644 0.46645 0.0
C144 C 0.16013 0.23184 0.45717 0.0
C145 C 0.13045 0.24885 0.46847 0.0
C146 C 0.10413 0.23111 0.48869 0.0
C147 C 0.10712 0.19614 0.49728 0.0
H148 H 0.30822 0.74717 0.07544 0.0
C149 C 0.32368 0.76425 0.10764 0.0
H150 H 0.36752 0.76929 0.17487 0.0
H151 H 0.35892 0.6006 0.1149 0.0
H152 H 0.30358 0.60195 0.15082 0.0
H153 H 0.27826 0.65649 0.17932 0.0
H154 H 0.3078 0.71002 0.17159 0.0
C155 C 0.35277 0.75238 0.14147 0.0
C156 C 0.36887 0.71854 0.12969 0.0
C157 C 0.35167 0.6874 0.13574 0.0
C158 C 0.36656 0.65581 0.12009 0.0
C159 C 0.34852 0.62521 0.12564 0.0
C160 C 0.31693 0.62563 0.14655 0.0
C161 C 0.30266 0.65635 0.16259 0.0
C162 C 0.31976 0.68693 0.15754 0.0
H163 H 0.45377 0.60737 0.11578 0.0
C164 C 0.43577 0.60442 0.07405 0.0
H165 H 0.38914 0.62005 0.02159 0.0
H166 H 0.41127 0.77286 0.11977 0.0
H167 H 0.46767 0.77093 0.08951 0.0
H168 H 0.49331 0.7163 0.06279 0.0
H169 H 0.46283 0.66335 0.06662 0.0
C170 C 0.40737 0.62457 0.06271 0.0
C171 C 0.3988 0.65505 0.099 0.0
C172 C 0.41741 0.68594 0.09795 0.0
C173 C 0.40249 0.71761 0.11335 0.0
C174 C 0.42128 0.74806 0.10957 0.0
C175 C 0.45373 0.74739 0.09191 0.0
C176 C 0.46815 0.71664 0.07682 0.0
C177 C 0.45025 0.68629 0.07928 0.0
H178 H 0.80469 0.81313 0.57141 0.0
C179 C 0.81791 0.80129 0.61174 0.0
H180 H 0.85723 0.80623 0.68721 0.0
H181 H 0.96281 0.89321 0.57398 0.0
H182 H 0.99347 0.84011 0.5933 0.0
H183 H 0.96475 0.79036 0.62802 0.0
H184 H 0.90514 0.79337 0.64319 0.0
C185 C 0.84484 0.81768 0.64592 0.0
C186 C 0.86206 0.84875 0.62661 0.0
C187 C 0.8974 0.84693 0.61896 0.0
C188 C 0.91412 0.87577 0.5989 0.0
C189 C 0.94887 0.87247 0.5895 0.0
C190 C 0.96685 0.84203 0.60042 0.0
C191 C 0.95069 0.81403 0.62002 0.0
C192 C 0.9164 0.81622 0.62888 0.0
H193 H 0.95029 0.95479 0.60518 0.0
C194 C 0.93548 0.95351 0.56015 0.0
H195 H 0.89278 0.93258 0.50171 0.0
H196 H 0.79676 0.86354 0.64785 0.0
H197 H 0.76677 0.91754 0.63184 0.0
H198 H 0.79534 0.96693 0.59536 0.0
H199 H 0.85435 0.96273 0.57524 0.0
C200 C 0.90794 0.93222 0.5465 0.0
C201 C 0.89561 0.9066 0.58648 0.0
C202 C 0.86114 0.90908 0.59827 0.0
C203 C 0.84443 0.88035 0.61858 0.0
C204 C 0.81031 0.88417 0.63087 0.0
C205 C 0.79288 0.9151 0.62225 0.0
C206 C 0.80897 0.94293 0.60171 0.0
C207 C 0.84271 0.94012 0.58993 0.0
H208 H 0.71603 0.31127 0.00858 0.0
C209 C 0.69931 0.29442 0.97788 0.0
H210 H 0.65285 0.29039 0.91589 0.0
H211 H 0.56964 0.3955 0.05339 0.0
H212 H 0.54503 0.34214 0.0765 0.0
H213 H 0.56956 0.28735 0.04762 0.0
H214 H 0.61915 0.28573 0.99594 0.0
C215 C 0.66931 0.30676 0.94783 0.0
C216 C 0.65432 0.34047 0.96309 0.0
C217 C 0.62455 0.34117 0.99179 0.0
C218 C 0.6102 0.37289 0.0081 0.0
C219 C 0.58151 0.37245 0.03925 0.0
C220 C 0.56704 0.34188 0.05292 0.0
C221 C 0.58083 0.31104 0.03664 0.0
C222 C 0.60928 0.31052 1.0067 0.0
H223 H 0.56882 0.44928 0.9823 0.0
C224 C 0.58867 0.45426 0.02096 0.0
H225 H 0.63829 0.44237 0.06705 0.0
H226 H 0.70798 0.34851 0.90087 0.0
H227 H 0.7314 0.4022 0.87411 0.0
H228 H 0.70646 0.45705 0.9021 0.0
H229 H 0.65773 0.45859 0.95694 0.0
C230 C 0.61841 0.436 0.02901 0.0
C231 C 0.62539 0.40409 0.99517 0.0
C232 C 0.65369 0.40329 0.96297 0.0
C233 C 0.66817 0.37157 0.94692 0.0
C234 C 0.6963 0.37184 0.91467 0.0
C235 C 0.70991 0.40246 0.89892 0.0
C236 C 0.69588 0.43336 0.91473 0.0
C237 C 0.66811 0.43393 0.94644 0.0
H238 H 0.19153 0.88647 0.24746 0.0
C239 C 0.17908 0.89824 0.20645 0.0
H240 H 0.14515 0.93757 0.17205 0.0
H241 H 0.08966 0.9132 0.43127 0.0
H242 H 0.08176 0.85344 0.40133 0.0
H243 H 0.10136 0.83096 0.30914 0.0
H244 H 0.12974 0.86753 0.24751 0.0
C245 C 0.15591 0.92336 0.21126 0.0
C246 C 0.14602 0.93537 0.27003 0.0
C247 C 0.12818 0.91363 0.30423 0.0
C248 C 0.11485 0.92702 0.35539 0.0
C249 C 0.09877 0.90454 0.39053 0.0
C250 C 0.09429 0.87021 0.37409 0.0
C251 C 0.10547 0.85754 0.32234 0.0
C252 C 0.12207 0.87887 0.28753 0.0
H253 H 0.04991 0.96108 0.35419 0.0
C254 C 0.05975 0.97512 0.39569 0.0
H255 H 0.10532 0.99262 0.4511 0.0
H256 H 0.18345 0.98284 0.22134 0.0
H257 H 0.19088 0.04247 0.25208 0.0
H258 H 0.16445 0.06612 0.3366 0.0
H259 H 0.13085 0.03018 0.39168 0.0
C260 C 0.09419 0.97803 0.41109 0.0
C261 C 0.11696 0.96248 0.36991 0.0
C262 C 0.13682 0.98363 0.33858 0.0
C263 C 0.15151 0.97005 0.28893 0.0
C264 C 0.17116 0.99191 0.25852 0.0
C265 C 0.17575 0.02615 0.27586 0.0
C266 C 0.1609 0.03947 0.32353 0.0
C267 C 0.14161 0.01859 0.35465 0.0
H268 H 0.6831 0.67742 0.76073 0.0
C269 C 0.67094 0.66648 0.71772 0.0
H270 H 0.6367 0.62809 0.67675 0.0
H271 H 0.62386 0.53202 0.88529 0.0
H272 H 0.65727 0.49716 0.82492 0.0
H273 H 0.68243 0.52197 0.74218 0.0
H274 H 0.67418 0.58177 0.71895 0.0
C275 C 0.6474 0.64146 0.71821 0.0
C276 C 0.63716 0.62836 0.77496 0.0
C277 C 0.6429 0.5935 0.78923 0.0
C278 C 0.62881 0.57921 0.83768 0.0
C279 C 0.63413 0.54417 0.84936 0.0
C280 C 0.6533 0.52387 0.8151 0.0
C281 C 0.66744 0.53784 0.76848 0.0
C282 C 0.66238 0.57219 0.75547 0.0
H283 H 0.54196 0.59803 0.86182 0.0
C284 C 0.55349 0.58468 0.90185 0.0
H285 H 0.60093 0.56957 0.95273 0.0
H286 H 0.62024 0.6961 0.76116 0.0
H287 H 0.59151 0.73159 0.82743 0.0
H288 H 0.57224 0.70782 0.91678 0.0
H289 H 0.5809 0.64794 0.93937 0.0
C290 C 0.58817 0.5835 0.91442 0.0
C291 C 0.60913 0.59975 0.87236 0.0
C292 C 0.60616 0.63525 0.86174 0.0
C293 C 0.61915 0.64938 0.81204 0.0
C294 C 0.61268 0.68423 0.79975 0.0
C295 C 0.5959 0.70493 0.83726 0.0
C296 C 0.58492 0.69152 0.88742 0.0
C297 C 0.58983 0.65711 0.89964 0.0
H298 H 0.87659 0.14118 0.10127 0.0
C299 C 0.86082 0.16397 0.10297 0.0
H300 H 0.84608 0.20274 0.16079 0.0
H301 H 0.87189 0.11014 0.39083 0.0
H302 H 0.81107 0.12469 0.38396 0.0
H303 H 0.78147 0.15762 0.29908 0.0
H304 H 0.81234 0.17637 0.22078 0.0
C305 C 0.86126 0.17983 0.15699 0.0
C306 C 0.88053 0.16474 0.21336 0.0
C307 C 0.86219 0.1544 0.25929 0.0
C308 C 0.87913 0.13488 0.30787 0.0
C309 C 0.86005 0.12449 0.35256 0.0
C310 C 0.82523 0.13279 0.34929 0.0
C311 C 0.80858 0.15138 0.30154 0.0
C312 C 0.82666 0.16203 0.25687 0.0
H313 H 0.9652 0.12127 0.41221 0.0
C314 C 0.95255 0.09724 0.39754 0.0
H315 H 0.91452 0.07188 0.33504 0.0
H316 H 0.92561 0.18861 0.14341 0.0
H317 H 0.98669 0.17509 0.15176 0.0
H318 H 0.01504 0.13811 0.23188 0.0
H319 H 0.98276 0.11505 0.30493 0.0
C320 C 0.92759 0.09588 0.34839 0.0
C321 C 0.91428 0.12533 0.31053 0.0
C322 C 0.93342 0.13833 0.26775 0.0
C323 C 0.9167 0.15858 0.21989 0.0
C324 C 0.93671 0.17202 0.179 0.0
C325 C 0.97181 0.16466 0.18358 0.0
C326 C 0.98779 0.1439 0.22879 0.0
C327 C 0.96895 0.13079 0.27045 0.0
H328 H 0.36808 0.40721 0.61128 0.0
C329 C 0.36936 0.37956 0.60723 0.0
H330 H 0.38861 0.33509 0.6522 0.0
H331 H 0.49501 0.43514 0.82305 0.0
H332 H 0.53302 0.41089 0.7582 0.0
H333 H 0.51042 0.3723 0.67293 0.0
H334 H 0.4494 0.358 0.65157 0.0
C335 C 0.38445 0.3624 0.65556 0.0
C336 C 0.39896 0.38114 0.71297 0.0
C337 C 0.43488 0.38823 0.72667 0.0
C338 C 0.44805 0.41014 0.77674 0.0
C339 C 0.48366 0.41827 0.78666 0.0
C340 C 0.5058 0.40455 0.74961 0.0
C341 C 0.49307 0.38283 0.70156 0.0
C342 C 0.45803 0.37481 0.68982 0.0
H343 H 0.47224 0.43228 0.9217 0.0
C344 C 0.45864 0.45538 0.90638 0.0
H345 H 0.42197 0.47812 0.84023 0.0
H346 H 0.33001 0.36849 0.70528 0.0
H347 H 0.29217 0.39035 0.77301 0.0
H348 H 0.31493 0.42732 0.86053 0.0
H349 H 0.37572 0.4427 0.88098 0.0
C350 C 0.43571 0.45487 0.85439 0.0
C351 C 0.42533 0.4244 0.81401 0.0
C352 C 0.38993 0.41483 0.80307 0.0
C353 C 0.37675 0.39339 0.7526 0.0
C354 C 0.34122 0.38489 0.74264 0.0
C355 C 0.31927 0.39716 0.78125 0.0
C356 C 0.33208 0.418 0.83052 0.0
C357 C 0.36695 0.42679 0.84154 0.0
H358 H 0.64084 0.65011 0.49164 0.0
C359 C 0.65657 0.67293 0.49227 0.0
H360 H 0.67191 0.71148 0.4384 0.0
H361 H 0.64926 0.61912 0.19944 0.0
H362 H 0.7098 0.63497 0.20897 0.0
H363 H 0.73811 0.66835 0.29739 0.0
H364 H 0.70624 0.68625 0.37658 0.0
C365 C 0.65673 0.68853 0.43964 0.0
C366 C 0.63814 0.67317 0.38143 0.0
C367 C 0.65706 0.66331 0.33503 0.0
C368 C 0.64089 0.6435 0.28438 0.0
C369 C 0.66054 0.63363 0.23923 0.0
C370 C 0.6952 0.64269 0.24402 0.0
C371 C 0.71112 0.66154 0.29376 0.0
C372 C 0.69246 0.6717 0.33893 0.0
H373 H 0.55486 0.62528 0.17774 0.0
C374 C 0.56904 0.60219 0.1913 0.0
H375 H 0.60848 0.57956 0.25274 0.0
H376 H 0.59177 0.69634 0.45175 0.0
H377 H 0.53093 0.6816 0.44062 0.0
H378 H 0.50405 0.64393 0.3569 0.0
H379 H 0.53753 0.62141 0.283 0.0
C380 C 0.59405 0.60271 0.24052 0.0
C381 C 0.60595 0.63305 0.28009 0.0
C382 C 0.58614 0.6457 0.32338 0.0
C383 C 0.60206 0.66633 0.37332 0.0
C384 C 0.58134 0.67945 0.41462 0.0
C385 C 0.54636 0.6714 0.40846 0.0
C386 C 0.5312 0.65025 0.36122 0.0
C387 C 0.55073 0.63744 0.3191 0.0
H388 H 0.82057 0.15322 0.83753 0.0
C389 C 0.84051 0.15347 0.87707 0.0
H390 H 0.89238 0.13972 0.90923 0.0
H391 H 0.91611 0.02256 0.73024 0.0
H392 H 0.90601 0.98971 0.81551 0.0
H393 H 0.88284 0.01714 0.90055 0.0
H394 H 0.86975 0.07768 0.90101 0.0
C395 C 0.8716 0.14002 0.8713 0.0
C396 C 0.87884 0.12274 0.81453 0.0
C397 C 0.88557 0.08716 0.814 0.0
C398 C 0.89863 0.07122 0.76459 0.0
C399 C 0.90608 0.03591 0.76641 0.0
C400 C 0.90034 0.01674 0.81504 0.0
C401 C 0.88731 0.03219 0.86294 0.0
C402 C 0.88001 0.06696 0.86273 0.0
H403 H 0.96676 0.11123 0.70601 0.0
C404 C 0.9594 0.08968 0.67525 0.0
H405 H 0.91982 0.05394 0.6456 0.0
H406 H 0.86668 0.19101 0.7982 0.0
H407 H 0.87256 0.2226 0.70941 0.0
H408 H 0.89192 0.19406 0.62166 0.0
H409 H 0.9061 0.13365 0.62276 0.0
C410 C 0.92757 0.07667 0.67288 0.0
C411 C 0.9051 0.09088 0.7157 0.0
C412 C 0.89501 0.12567 0.71344 0.0
C413 C 0.88254 0.14182 0.76327 0.0
C414 C 0.87517 0.17715 0.76111 0.0
C415 C 0.87858 0.19565 0.71043 0.0
C416 C 0.88958 0.17961 0.66108 0.0
C417 C 0.89781 0.14505 0.66238 0.0
H418 H 0.3437 0.37961 0.33911 0.0
C419 C 0.35872 0.38731 0.38216 0.0
H420 H 0.40021 0.41818 0.42426 0.0
H421 H 0.43982 0.41214 0.1503 0.0
H422 H 0.44443 0.3508 0.16107 0.0
H423 H 0.42683 0.32334 0.24865 0.0
H424 H 0.40389 0.35668 0.32509 0.0
C425 C 0.38432 0.41026 0.38232 0.0
C426 C 0.39262 0.42588 0.32614 0.0
C427 C 0.40697 0.40593 0.28258 0.0
C428 C 0.41884 0.42195 0.2335 0.0
C429 C 0.43178 0.40134 0.18957 0.0
C430 C 0.43435 0.36614 0.19501 0.0
C431 C 0.42431 0.35067 0.2442 0.0
C432 C 0.41091 0.37018 0.28767 0.0
H433 H 0.48483 0.45661 0.23348 0.0
C434 C 0.47305 0.47208 0.19628 0.0
H435 H 0.42546 0.4915 0.1525 0.0
H436 H 0.36319 0.47128 0.39681 0.0
H437 H 0.35883 0.53258 0.38538 0.0
H438 H 0.38144 0.5603 0.30263 0.0
H439 H 0.40845 0.52692 0.23052 0.0
C440 C 0.43845 0.47527 0.18738 0.0
C441 C 0.4182 0.45802 0.22945 0.0
C442 C 0.40204 0.4777 0.27079 0.0
C443 C 0.38928 0.46166 0.31902 0.0
C444 C 0.37366 0.48215 0.35988 0.0
C445 C 0.37091 0.51733 0.35373 0.0
C446 C 0.38363 0.53295 0.30711 0.0
C447 C 0.39911 0.5135 0.26608 0.0
H448 H 0.14228 0.9159 0.98401 0.0
C449 C 0.1605 0.89527 0.98017 0.0
H450 H 0.18059 0.86248 0.91803 0.0
H451 H 0.03772 0.93929 0.77229 0.0
H452 H 1.00608 0.90672 0.83568 0.0
H453 H 0.03672 0.86948 0.91325 0.0
H454 H 0.09932 0.86503 0.92868 0.0
C455 C 0.16284 0.88304 0.92437 0.0
C456 C 0.14345 0.89964 0.8696 0.0
C457 C 0.10673 0.90085 0.85912 0.0
C458 C 0.0889 0.9215 0.81281 0.0
C459 C 0.05246 0.92362 0.80589 0.0
C460 C 0.03399 0.90503 0.84197 0.0
C461 C 0.05125 0.8841 0.88575 0.0
C462 C 0.08718 0.88194 0.89443 0.0
H463 H 0.06085 0.94155 0.66862 0.0
C464 C 0.06939 0.9665 0.687 0.0
H465 H 0.10039 0.99427 0.75704 0.0
H466 H 0.21345 0.89931 0.87094 0.0
H467 H 0.24453 0.92824 0.80227 0.0
H468 H 0.21347 0.96219 0.72011 0.0
H469 H 0.15096 0.96752 0.70628 0.0
C470 C 0.0914 0.96922 0.73981 0.0
C471 C 0.10771 0.94014 0.7757 0.0
C472 C 0.1441 0.93608 0.78228 0.0
C473 C 0.16198 0.916 0.82921 0.0
C474 C 0.19846 0.91381 0.83578 0.0
C475 C 0.21667 0.93033 0.79668 0.0
C476 C 0.19918 0.9495 0.75048 0.0
C477 C 0.16336 0.95248 0.74322 0.0
loop_
_geom_bond_atom_site_label_1
_geom_bond_atom_site_label_2
_geom_bond_distance
_geom_bond_site_symmetry_2
_ccdc_geom_bond_type
H0 C1 0.949 . S
C1 H0 0.949 . S
C1 C2 1.395 . S
C1 C3 1.391 . S
C2 C1 1.395 . S
C2 C5 1.390 . S
C3 C1 1.391 . S
C3 C7 1.387 . S
C3 C8 1.491 . S
H4 C5 0.950 . S
C5 C2 1.390 . S
C5 H4 0.950 . S
C5 C6 1.378 . S
C6 C5 1.378 . S
C6 C7 1.409 . S
C7 C3 1.387 . S
C7 C6 1.409 . S
C7 H9 0.951 1_554 S
C8 C3 1.491 . S
C8 C10 1.382 . S
C8 C12 1.404 . S
H9 C7 0.951 1_556 S
C10 C8 1.382 . S
C10 C11 1.390 . S
C10 H15 0.949 . S
C11 C10 1.390 . S
C11 C16 1.399 . S
C12 C8 1.404 . S
C12 H13 0.947 1_554 S
C12 C14 1.375 . S
H13 C12 0.947 1_556 S
C14 C12 1.375 . S
C14 C16 1.382 . S
C14 H18 0.950 1_554 S
H15 C10 0.949 . S
C16 C11 1.399 . S
C16 C14 1.382 . S
C16 H17 0.952 . S
H17 C16 0.952 . S
H18 C14 0.950 1_556 S
H19 C20 0.949 . S
C20 H19 0.949 . S
C20 C21 1.395 . S
C20 C22 1.391 . S
C21 C20 1.395 . S
C21 C24 1.390 . S
C22 C20 1.391 . S
C22 C26 1.387 . S
C22 C27 1.491 . S
H23 C24 0.950 . S
C24 C21 1.390 . S
C24 H23 0.950 . S
C24 C25 1.378 . S
C25 C24 1.378 . S
C25 C26 1.409 . S
C26 C22 1.387 . S
C26 C25 1.409 . S
C26 H28 0.951 . S
C27 C22 1.491 . S
C27 C29 1.382 . S
C27 C31 1.404 . S
H28 C26 0.951 . S
C29 C27 1.382 . S
C29 C30 1.390 . S
C29 H34 0.949 . S
C30 C29 1.390 . S
C30 C35 1.399 . S
C31 C27 1.404 . S
C31 H32 0.950 . S
C31 C33 1.375 . S
H32 C31 0.950 . S
C33 C31 1.375 . S
C33 C35 1.382 . S
C33 H37 0.950 . S
H34 C29 0.949 . S
C35 C30 1.399 . S
C35 C33 1.382 . S
C35 H36 0.952 . S
H36 C35 0.952 . S
H37 C33 0.950 . S
H38 C39 0.949 . S
C39 H38 0.949 . S
C39 C40 1.395 . S
C39 C41 1.391 1_554 S
C40 C39 1.395 . S
C40 C43 1.397 . S
C41 C39 1.391 1_556 S
C41 C45 1.387 . S
C41 C46 1.491 . S
H42 C43 0.951 . S
C43 C40 1.397 . S
C43 H42 0.951 . S
C43 C44 1.370 1_554 S
C44 C43 1.370 1_556 S
C44 C45 1.409 . S
C45 C41 1.387 . S
C45 C44 1.409 . S
C45 H47 0.951 . S
C46 C41 1.491 . S
C46 C48 1.390 . S
C46 C50 1.404 . S
H47 C45 0.951 . S
C48 C46 1.390 . S
C48 C49 1.391 . S
C48 H53 0.939 1_556 S
C49 C48 1.391 . S
C49 C54 1.399 . S
C50 C46 1.404 . S
C50 H51 0.950 . S
C50 C52 1.375 . S
H51 C50 0.950 . S
C52 C50 1.375 . S
C52 C54 1.382 . S
C52 H56 0.950 . S
H53 C48 0.939 1_554 S
C54 C49 1.399 . S
C54 C52 1.382 . S
C54 H55 0.952 . S
H55 C54 0.952 . S
H56 C52 0.950 . S
H57 C58 0.949 . S
C58 H57 0.949 . S
C58 C59 1.395 . S
C58 C60 1.391 . S
C59 C58 1.395 . S
C59 C62 1.390 . S
C60 C58 1.391 . S
C60 C64 1.387 . S
C60 C65 1.491 . S
H61 C62 0.950 . S
C62 C59 1.390 . S
C62 H61 0.950 . S
C62 C63 1.378 . S
C63 C62 1.378 . S
C63 C64 1.409 . S
C64 C60 1.387 . S
C64 C63 1.409 . S
C64 H66 0.951 . S
C65 C60 1.491 . S
C65 C67 1.382 . S
C65 C69 1.404 . S
H66 C64 0.951 . S
C67 C65 1.382 . S
C67 C68 1.390 . S
C67 H72 0.949 . S
C68 C67 1.390 . S
C68 C73 1.399 . S
C69 C65 1.404 . S
C69 H70 0.950 . S
C69 C71 1.375 . S
H70 C69 0.950 . S
C71 C69 1.375 . S
C71 C73 1.382 . S
C71 H75 0.950 . S
H72 C67 0.949 . S
C73 C68 1.399 . S
C73 C71 1.382 . S
C73 H74 0.952 . S
H74 C73 0.952 . S
H75 C71 0.950 . S
O76 Mn77 2.163 1_655 S
O76 C90 1.244 . S
Mn77 O76 2.163 1_455 S
Mn77 O80 2.160 1_545 S
Mn77 O81 2.221 . S
Mn77 O83 2.163 1_455 S
Mn77 O85 2.160 1_545 S
Mn77 O95 2.221 1_445 S
O78 Mn79 2.087 1_545 S
O78 C90 1.256 . S
Mn79 O78 2.087 1_565 S
Mn79 O86 2.089 1_655 S
Mn79 O95 2.290 . S
Mn79 O96 2.251 . S
O80 Mn77 2.160 1_565 S
O80 C91 1.239 . S
O81 Mn77 2.221 . S
O81 Mn82 2.290 . S
O81 C92 1.278 . S
Mn82 O81 2.290 . S
Mn82 O84 2.089 . S
Mn82 O87 2.251 . S
Mn82 O88 2.087 . S
O83 Mn77 2.163 1_655 S
O83 C93 1.244 . S
O84 Mn82 2.089 . S
O84 C91 1.256 1_545 S
O85 Mn77 2.160 1_565 S
O85 C94 1.239 . S
O86 Mn79 2.089 1_455 S
O86 C94 1.256 . S
O87 Mn82 2.251 . S
O87 C92 1.241 . S
O88 Mn82 2.087 . S
O88 C93 1.256 1_455 S
C89 O95 1.278 . S
C89 O96 1.241 . S
C90 O76 1.244 . S
C90 O78 1.256 . S
C91 O80 1.239 . S
C91 O84 1.256 1_565 S
C92 O81 1.278 . S
C92 O87 1.241 . S
C93 O83 1.244 . S
C93 O88 1.256 1_655 S
C94 O85 1.239 . S
C94 O86 1.256 . S
O95 Mn77 2.221 1_665 S
O95 Mn79 2.290 . S
O95 C89 1.278 . S
O96 Mn79 2.251 . S
O96 C89 1.241 . S
O97 Mn98 2.163 . S
O97 C111 1.244 . S
Mn98 O97 2.163 . S
Mn98 O101 2.160 1_554 S
Mn98 O102 2.221 . S
Mn98 O104 2.163 1_554 S
Mn98 O106 2.160 . S
Mn98 O116 2.221 . S
O99 Mn100 2.087 . S
O99 C111 1.256 . S
Mn100 O99 2.087 . S
Mn100 O107 2.089 . S
Mn100 O116 2.290 . S
Mn100 O117 2.251 . S
O101 Mn98 2.160 1_556 S
O101 C112 1.239 . S
O102 Mn98 2.221 . S
O102 Mn103 2.290 1_554 S
O102 C113 1.278 . S
Mn103 O102 2.290 1_556 S
Mn103 O105 2.089 . S
Mn103 O108 2.251 . S
Mn103 O109 2.087 . S
O104 Mn98 2.163 1_556 S
O104 C114 1.244 . S
O105 Mn103 2.089 . S
O105 C112 1.256 . S
O106 Mn98 2.160 . S
O106 C115 1.239 . S
O107 Mn100 2.089 . S
O107 C115 1.256 . S
O108 Mn103 2.251 . S
O108 C113 1.241 1_556 S
O109 Mn103 2.087 . S
O109 C114 1.256 . S
C110 O116 1.278 . S
C110 O117 1.241 . S
C111 O97 1.244 . S
C111 O99 1.256 . S
C112 O101 1.239 . S
C112 O105 1.256 . S
C113 O102 1.278 . S
C113 O108 1.241 1_554 S
C114 O104 1.244 . S
C114 O109 1.256 . S
C115 O106 1.239 . S
C115 O107 1.256 . S
O116 Mn98 2.221 . S
O116 Mn100 2.290 . S
O116 C110 1.278 . S
O117 Mn100 2.251 . S
O117 C110 1.241 . S
H118 C119 0.951 . S
C119 H118 0.951 . S
C119 C125 1.265 . S
H120 C125 0.950 . S
H121 C129 0.949 . S
H122 C130 0.950 . S
H123 C131 0.951 . S
H124 C132 0.951 . S
C125 C119 1.265 . S
C125 H120 0.950 . S
C125 C126 1.478 . S
C126 C125 1.478 . S
C126 C127 1.397 . S
C126 C143 1.394 . S
C127 C126 1.397 . S
C127 C128 1.438 . S
C127 C132 1.429 . S
C128 C127 1.438 . S
C128 C129 1.428 . S
C128 C141 1.394 . S
C129 H121 0.949 . S
C129 C128 1.428 . S
C129 C130 1.345 . S
C130 H122 0.950 . S
C130 C129 1.345 . S
C130 C131 1.424 . S
C131 H123 0.951 . S
C131 C130 1.424 . S
C131 C132 1.347 . S
C132 H124 0.951 . S
C132 C127 1.429 . S
C132 C131 1.347 . S
H133 C134 0.951 . S
C134 H133 0.951 . S
C134 C140 1.265 . S
H135 C140 0.950 . S
H136 C144 0.949 . S
H137 C145 0.950 . S
H138 C146 0.951 . S
H139 C147 0.951 . S
C140 C134 1.265 . S
C140 H135 0.950 . S
C140 C141 1.478 . S
C141 C128 1.394 . S
C141 C140 1.478 . S
C141 C142 1.397 . S
C142 C141 1.397 . S
C142 C143 1.438 . S
C142 C147 1.429 . S
C143 C126 1.394 . S
C143 C142 1.438 . S
C143 C144 1.428 . S
C144 H136 0.949 . S
C144 C143 1.428 . S
C144 C145 1.345 . S
C145 H137 0.950 . S
C145 C144 1.345 . S
C145 C146 1.424 . S
C146 H138 0.951 . S
C146 C145 1.424 . S
C146 C147 1.347 . S
C147 H139 0.951 . S
C147 C142 1.429 . S
C147 C146 1.347 . S
H148 C149 0.951 . S
C149 H148 0.951 . S
C149 C155 1.265 . S
H150 C155 0.950 . S
H151 C159 0.949 . S
H152 C160 0.950 . S
H153 C161 0.951 . S
H154 C162 0.951 . S
C155 C149 1.265 . S
C155 H150 0.950 . S
C155 C156 1.478 . S
C156 C155 1.478 . S
C156 C157 1.397 . S
C156 C173 1.394 . S
C157 C156 1.397 . S
C157 C158 1.438 . S
C157 C162 1.429 . S
C158 C157 1.438 . S
C158 C159 1.428 1_554 S
C158 C171 1.394 . S
C159 H151 0.949 . S
C159 C158 1.428 1_556 S
C159 C160 1.345 . S
C160 H152 0.950 . S
C160 C159 1.345 . S
C160 C161 1.424 . S
C161 H153 0.951 . S
C161 C160 1.424 . S
C161 C162 1.347 1_556 S
C162 H154 0.951 . S
C162 C157 1.429 . S
C162 C161 1.347 1_554 S
H163 C164 0.951 . S
C164 H163 0.951 . S
C164 C170 1.265 . S
H165 C170 0.950 . S
H166 C174 0.949 . S
H167 C175 0.950 . S
H168 C176 0.951 . S
H169 C177 0.951 . S
C170 C164 1.265 . S
C170 H165 0.950 . S
C170 C171 1.478 . S
C171 C158 1.394 . S
C171 C170 1.478 . S
C171 C172 1.397 . S
C172 C171 1.397 . S
C172 C173 1.438 . S
C172 C177 1.429 . S
C173 C156 1.394 . S
C173 C172 1.438 . S
C173 C174 1.428 . S
C174 H166 0.949 . S
C174 C173 1.428 . S
C174 C175 1.345 . S
C175 H167 0.950 . S
C175 C174 1.345 . S
C175 C176 1.424 . S
C176 H168 0.951 . S
C176 C175 1.424 . S
C176 C177 1.347 . S
C177 H169 0.951 . S
C177 C172 1.429 . S
C177 C176 1.347 . S
H178 C179 0.951 . S
C179 H178 0.951 . S
C179 C185 1.265 . S
H180 C185 0.950 . S
H181 C189 0.949 . S
H182 C190 0.950 . S
H183 C191 0.951 . S
H184 C192 0.951 . S
C185 C179 1.265 . S
C185 H180 0.950 . S
C185 C186 1.478 . S
C186 C185 1.478 . S
C186 C187 1.397 . S
C186 C203 1.394 . S
C187 C186 1.397 . S
C187 C188 1.438 . S
C187 C192 1.429 . S
C188 C187 1.438 . S
C188 C189 1.428 . S
C188 C201 1.394 . S
C189 H181 0.949 . S
C189 C188 1.428 . S
C189 C190 1.345 . S
C190 H182 0.950 . S
C190 C189 1.345 . S
C190 C191 1.424 . S
C191 H183 0.951 . S
C191 C190 1.424 . S
C191 C192 1.347 . S
C192 H184 0.951 . S
C192 C187 1.429 . S
C192 C191 1.347 . S
H193 C194 0.951 . S
C194 H193 0.951 . S
C194 C200 1.265 . S
H195 C200 0.950 . S
H196 C204 0.949 . S
H197 C205 0.950 . S
H198 C206 0.951 . S
H199 C207 0.951 . S
C200 C194 1.265 . S
C200 H195 0.950 . S
C200 C201 1.478 . S
C201 C188 1.394 . S
C201 C200 1.478 . S
C201 C202 1.397 . S
C202 C201 1.397 . S
C202 C203 1.438 . S
C202 C207 1.429 . S
C203 C186 1.394 . S
C203 C202 1.438 . S
C203 C204 1.428 . S
C204 H196 0.949 . S
C204 C203 1.428 . S
C204 C205 1.345 . S
C205 H197 0.950 . S
C205 C204 1.345 . S
C205 C206 1.424 . S
C206 H198 0.951 . S
C206 C205 1.424 . S
C206 C207 1.347 . S
C207 H199 0.951 . S
C207 C202 1.429 . S
C207 C206 1.347 . S
H208 C209 0.951 . S
C209 H208 0.951 . S
C209 C215 1.265 . S
H210 C215 0.950 . S
H211 C219 0.949 . S
H212 C220 0.950 . S
H213 C221 0.951 . S
H214 C222 0.951 . S
C215 C209 1.265 . S
C215 H210 0.950 . S
C215 C216 1.478 . S
C216 C215 1.478 . S
C216 C217 1.397 . S
C216 C233 1.394 1_554 S
C217 C216 1.397 . S
C217 C218 1.438 . S
C217 C222 1.429 . S
C218 C217 1.438 . S
C218 C219 1.428 . S
C218 C231 1.394 . S
C219 H211 0.949 . S
C219 C218 1.428 . S
C219 C220 1.345 . S
C220 H212 0.950 . S
C220 C219 1.345 . S
C220 C221 1.424 . S
C221 H213 0.951 . S
C221 C220 1.424 . S
C221 C222 1.347 . S
C222 H214 0.951 . S
C222 C217 1.429 . S
C222 C221 1.347 . S
H223 C224 0.951 . S
C224 H223 0.951 . S
C224 C230 1.265 . S
H225 C230 0.950 . S
H226 C234 0.949 . S
H227 C235 0.950 . S
H228 C236 0.951 . S
H229 C237 0.951 . S
C230 C224 1.265 . S
C230 H225 0.950 . S
C230 C231 1.478 . S
C231 C218 1.394 . S
C231 C230 1.478 . S
C231 C232 1.397 1_554 S
C232 C231 1.397 1_556 S
C232 C233 1.438 . S
C232 C237 1.429 . S
C233 C216 1.394 1_556 S
C233 C232 1.438 . S
C233 C234 1.428 . S
C234 H226 0.949 . S
C234 C233 1.428 . S
C234 C235 1.345 . S
C235 H227 0.950 . S
C235 C234 1.345 . S
C235 C236 1.424 . S
C236 H228 0.951 . S
C236 C235 1.424 . S
C236 C237 1.347 . S
C237 H229 0.951 . S
C237 C232 1.429 . S
C237 C236 1.347 . S
H238 C239 0.951 . S
C239 H238 0.951 . S
C239 C245 1.265 . S
H240 C245 0.950 . S
H241 C249 0.949 . S
H242 C250 0.950 . S
H243 C251 0.951 . S
H244 C252 0.951 . S
C245 C239 1.265 . S
C245 H240 0.950 . S
C245 C246 1.478 . S
C246 C245 1.478 . S
C246 C247 1.397 . S
C246 C263 1.394 . S
C247 C246 1.397 . S
C247 C248 1.438 . S
C247 C252 1.429 . S
C248 C247 1.438 . S
C248 C249 1.428 . S
C248 C261 1.394 . S
C249 H241 0.949 . S
C249 C248 1.428 . S
C249 C250 1.345 . S
C250 H242 0.950 . S
C250 C249 1.345 . S
C250 C251 1.424 . S
C251 H243 0.951 . S
C251 C250 1.424 . S
C251 C252 1.347 . S
C252 H244 0.951 . S
C252 C247 1.429 . S
C252 C251 1.347 . S
H253 C254 0.951 . S
C254 H253 0.951 . S
C254 C260 1.265 . S
H255 C260 0.950 . S
H256 C264 0.949 . S
H257 C265 0.950 . S
H258 C266 0.951 . S
H259 C267 0.951 1_545 S
C260 C254 1.265 . S
C260 H255 0.950 . S
C260 C261 1.478 . S
C261 C248 1.394 . S
C261 C260 1.478 . S
C261 C262 1.397 . S
C262 C261 1.397 . S
C262 C263 1.438 . S
C262 C267 1.429 . S
C263 C246 1.394 . S
C263 C262 1.438 . S
C263 C264 1.428 . S
C264 H256 0.949 . S
C264 C263 1.428 . S
C264 C265 1.345 . S
C265 H257 0.950 . S
C265 C264 1.345 . S
C265 C266 1.424 1_565 S
C266 H258 0.951 . S
C266 C265 1.424 1_545 S
C266 C267 1.347 1_545 S
C267 H259 0.951 1_565 S
C267 C262 1.429 . S
C267 C266 1.347 1_565 S
H268 C269 0.951 . S
C269 H268 0.951 . S
C269 C275 1.265 . S
H270 C275 0.950 . S
H271 C279 0.949 . S
H272 C280 0.950 . S
H273 C281 0.951 . S
H274 C282 0.951 . S
C275 C269 1.265 . S
C275 H270 0.950 . S
C275 C276 1.478 . S
C276 C275 1.478 . S
C276 C277 1.397 . S
C276 C293 1.394 . S
C277 C276 1.397 . S
C277 C278 1.438 . S
C277 C282 1.429 . S
C278 C277 1.438 . S
C278 C279 1.428 . S
C278 C291 1.394 . S
C279 H271 0.949 . S
C279 C278 1.428 . S
C279 C280 1.345 . S
C280 H272 0.950 . S
C280 C279 1.345 . S
C280 C281 1.424 . S
C281 H273 0.951 . S
C281 C280 1.424 . S
C281 C282 1.347 . S
C282 H274 0.951 . S
C282 C277 1.429 . S
C282 C281 1.347 . S
H283 C284 0.951 . S
C284 H283 0.951 . S
C284 C290 1.265 . S
H285 C290 0.950 . S
H286 C294 0.949 . S
H287 C295 0.950 . S
H288 C296 0.951 . S
H289 C297 0.951 . S
C290 C284 1.265 . S
C290 H285 0.950 . S
C290 C291 1.478 . S
C291 C278 1.394 . S
C291 C290 1.478 . S
C291 C292 1.397 . S
C292 C291 1.397 . S
C292 C293 1.438 . S
C292 C297 1.429 . S
C293 C276 1.394 . S
C293 C292 1.438 . S
C293 C294 1.428 . S
C294 H286 0.949 . S
C294 C293 1.428 . S
C294 C295 1.345 . S
C295 H287 0.950 . S
C295 C294 1.345 . S
C295 C296 1.424 . S
C296 H288 0.951 . S
C296 C295 1.424 . S
C296 C297 1.347 . S
C297 H289 0.951 . S
C297 C292 1.429 . S
C297 C296 1.347 . S
H298 C299 0.951 . S
C299 H298 0.951 . S
C299 C305 1.265 . S
H300 C305 0.950 . S
H301 C309 0.949 . S
H302 C310 0.950 . S
H303 C311 0.951 . S
H304 C312 0.951 . S
C305 C299 1.265 . S
C305 H300 0.950 . S
C305 C306 1.478 . S
C306 C305 1.478 . S
C306 C307 1.397 . S
C306 C323 1.394 . S
C307 C306 1.397 . S
C307 C308 1.438 . S
C307 C312 1.429 . S
C308 C307 1.438 . S
C308 C309 1.428 . S
C308 C321 1.394 . S
C309 H301 0.949 . S
C309 C308 1.428 . S
C309 C310 1.345 . S
C310 H302 0.950 . S
C310 C309 1.345 . S
C310 C311 1.424 . S
C311 H303 0.951 . S
C311 C310 1.424 . S
C311 C312 1.347 . S
C312 H304 0.951 . S
C312 C307 1.429 . S
C312 C311 1.347 . S
H313 C314 0.951 . S
C314 H313 0.951 . S
C314 C320 1.265 . S
H315 C320 0.950 . S
H316 C324 0.949 . S
H317 C325 0.950 . S
H318 C326 0.951 . S
H319 C327 0.951 . S
C320 C314 1.265 . S
C320 H315 0.950 . S
C320 C321 1.478 . S
C321 C308 1.394 . S
C321 C320 1.478 . S
C321 C322 1.397 . S
C322 C321 1.397 . S
C322 C323 1.438 . S
C322 C327 1.429 . S
C323 C306 1.394 . S
C323 C322 1.438 . S
C323 C324 1.428 . S
C324 H316 0.949 . S
C324 C323 1.428 . S
C324 C325 1.345 . S
C325 H317 0.950 . S
C325 C324 1.345 . S
C325 C326 1.424 . S
C326 H318 0.951 . S
C326 C325 1.424 . S
C326 C327 1.347 . S
C327 H319 0.951 . S
C327 C322 1.429 . S
C327 C326 1.347 . S
H328 C329 0.951 . S
C329 H328 0.951 . S
C329 C335 1.265 . S
H330 C335 0.950 . S
H331 C339 0.949 . S
H332 C340 0.950 . S
H333 C341 0.951 . S
H334 C342 0.951 . S
C335 C329 1.265 . S
C335 H330 0.950 . S
C335 C336 1.478 . S
C336 C335 1.478 . S
C336 C337 1.397 . S
C336 C353 1.394 . S
C337 C336 1.397 . S
C337 C338 1.438 . S
C337 C342 1.429 . S
C338 C337 1.438 . S
C338 C339 1.428 . S
C338 C351 1.394 . S
C339 H331 0.949 . S
C339 C338 1.428 . S
C339 C340 1.345 . S
C340 H332 0.950 . S
C340 C339 1.345 . S
C340 C341 1.424 . S
C341 H333 0.951 . S
C341 C340 1.424 . S
C341 C342 1.347 . S
C342 H334 0.951 . S
C342 C337 1.429 . S
C342 C341 1.347 . S
H343 C344 0.951 . S
C344 H343 0.951 . S
C344 C350 1.265 . S
H345 C350 0.950 . S
H346 C354 0.949 . S
H347 C355 0.950 . S
H348 C356 0.951 . S
H349 C357 0.951 . S
C350 C344 1.265 . S
C350 H345 0.950 . S
C350 C351 1.478 . S
C351 C338 1.394 . S
C351 C350 1.478 . S
C351 C352 1.397 . S
C352 C351 1.397 . S
C352 C353 1.438 . S
C352 C357 1.429 . S
C353 C336 1.394 . S
C353 C352 1.438 . S
C353 C354 1.428 . S
C354 H346 0.949 . S
C354 C353 1.428 . S
C354 C355 1.345 . S
C355 H347 0.950 . S
C355 C354 1.345 . S
C355 C356 1.424 . S
C356 H348 0.951 . S
C356 C355 1.424 . S
C356 C357 1.347 . S
C357 H349 0.951 . S
C357 C352 1.429 . S
C357 C356 1.347 . S
H358 C359 0.951 . S
C359 H358 0.951 . S
C359 C365 1.265 . S
H360 C365 0.950 . S
H361 C369 0.949 . S
H362 C370 0.950 . S
H363 C371 0.951 . S
H364 C372 0.951 . S
C365 C359 1.265 . S
C365 H360 0.950 . S
C365 C366 1.478 . S
C366 C365 1.478 . S
C366 C367 1.397 . S
C366 C383 1.394 . S
C367 C366 1.397 . S
C367 C368 1.438 . S
C367 C372 1.429 . S
C368 C367 1.438 . S
C368 C369 1.428 . S
C368 C381 1.394 . S
C369 H361 0.949 . S
C369 C368 1.428 . S
C369 C370 1.345 . S
C370 H362 0.950 . S
C370 C369 1.345 . S
C370 C371 1.424 . S
C371 H363 0.951 . S
C371 C370 1.424 . S
C371 C372 1.347 . S
C372 H364 0.951 . S
C372 C367 1.429 . S
C372 C371 1.347 . S
H373 C374 0.951 . S
C374 H373 0.951 . S
C374 C380 1.265 . S
H375 C380 0.950 . S
H376 C384 0.949 . S
H377 C385 0.950 . S
H378 C386 0.951 . S
H379 C387 0.951 . S
C380 C374 1.265 . S
C380 H375 0.950 . S
C380 C381 1.478 . S
C381 C368 1.394 . S
C381 C380 1.478 . S
C381 C382 1.397 . S
C382 C381 1.397 . S
C382 C383 1.438 . S
C382 C387 1.429 . S
C383 C366 1.394 . S
C383 C382 1.438 . S
C383 C384 1.428 . S
C384 H376 0.949 . S
C384 C383 1.428 . S
C384 C385 1.345 . S
C385 H377 0.950 . S
C385 C384 1.345 . S
C385 C386 1.424 . S
C386 H378 0.951 . S
C386 C385 1.424 . S
C386 C387 1.347 . S
C387 H379 0.951 . S
C387 C382 1.429 . S
C387 C386 1.347 . S
H388 C389 0.951 . S
C389 H388 0.951 . S
C389 C395 1.265 . S
H390 C395 0.950 . S
H391 C399 0.949 . S
H392 C400 0.950 . S
H393 C401 0.951 . S
H394 C402 0.951 . S
C395 C389 1.265 . S
C395 H390 0.950 . S
C395 C396 1.478 . S
C396 C395 1.478 . S
C396 C397 1.397 . S
C396 C413 1.394 . S
C397 C396 1.397 . S
C397 C398 1.438 . S
C397 C402 1.429 . S
C398 C397 1.438 . S
C398 C399 1.428 . S
C398 C411 1.394 . S
C399 H391 0.949 . S
C399 C398 1.428 . S
C399 C400 1.345 . S
C400 H392 0.950 . S
C400 C399 1.345 . S
C400 C401 1.424 . S
C401 H393 0.951 . S
C401 C400 1.424 . S
C401 C402 1.347 . S
C402 H394 0.951 . S
C402 C397 1.429 . S
C402 C401 1.347 . S
H403 C404 0.951 . S
C404 H403 0.951 . S
C404 C410 1.265 . S
H405 C410 0.950 . S
H406 C414 0.949 . S
H407 C415 0.950 . S
H408 C416 0.951 . S
H409 C417 0.951 . S
C410 C404 1.265 . S
C410 H405 0.950 . S
C410 C411 1.478 . S
C411 C398 1.394 . S
C411 C410 1.478 . S
C411 C412 1.397 . S
C412 C411 1.397 . S
C412 C413 1.438 . S
C412 C417 1.429 . S
C413 C396 1.394 . S
C413 C412 1.438 . S
C413 C414 1.428 . S
C414 H406 0.949 . S
C414 C413 1.428 . S
C414 C415 1.345 . S
C415 H407 0.950 . S
C415 C414 1.345 . S
C415 C416 1.424 . S
C416 H408 0.951 . S
C416 C415 1.424 . S
C416 C417 1.347 . S
C417 H409 0.951 . S
C417 C412 1.429 . S
C417 C416 1.347 . S
H418 C419 0.951 . S
C419 H418 0.951 . S
C419 C425 1.265 . S
H420 C425 0.950 . S
H421 C429 0.949 . S
H422 C430 0.950 . S
H423 C431 0.951 . S
H424 C432 0.951 . S
C425 C419 1.265 . S
C425 H420 0.950 . S
C425 C426 1.478 . S
C426 C425 1.478 . S
C426 C427 1.397 . S
C426 C443 1.394 . S
C427 C426 1.397 . S
C427 C428 1.438 . S
C427 C432 1.429 . S
C428 C427 1.438 . S
C428 C429 1.428 . S
C428 C441 1.394 . S
C429 H421 0.949 . S
C429 C428 1.428 . S
C429 C430 1.345 . S
C430 H422 0.950 . S
C430 C429 1.345 . S
C430 C431 1.424 . S
C431 H423 0.951 . S
C431 C430 1.424 . S
C431 C432 1.347 . S
C432 H424 0.951 . S
C432 C427 1.429 . S
C432 C431 1.347 . S
H433 C434 0.951 . S
C434 H433 0.951 . S
C434 C440 1.265 . S
H435 C440 0.950 . S
H436 C444 0.949 . S
H437 C445 0.950 . S
H438 C446 0.951 . S
H439 C447 0.951 . S
C440 C434 1.265 . S
C440 H435 0.950 . S
C440 C441 1.478 . S
C441 C428 1.394 . S
C441 C440 1.478 . S
C441 C442 1.397 . S
C442 C441 1.397 . S
C442 C443 1.438 . S
C442 C447 1.429 . S
C443 C426 1.394 . S
C443 C442 1.438 . S
C443 C444 1.428 . S
C444 H436 0.949 . S
C444 C443 1.428 . S
C444 C445 1.345 . S
C445 H437 0.950 . S
C445 C444 1.345 . S
C445 C446 1.424 . S
C446 H438 0.951 . S
C446 C445 1.424 . S
C446 C447 1.347 . S
C447 H439 0.951 . S
C447 C442 1.429 . S
C447 C446 1.347 . S
H448 C449 0.951 . S
C449 H448 0.951 . S
C449 C455 1.265 . S
H450 C455 0.950 . S
H451 C459 0.949 . S
H452 C460 0.950 . S
H453 C461 0.951 . S
H454 C462 0.951 . S
C455 C449 1.265 . S
C455 H450 0.950 . S
C455 C456 1.478 . S
C456 C455 1.478 . S
C456 C457 1.397 . S
C456 C473 1.394 . S
C457 C456 1.397 . S
C457 C458 1.438 . S
C457 C462 1.429 . S
C458 C457 1.438 . S
C458 C459 1.428 . S
C458 C471 1.394 . S
C459 H451 0.949 . S
C459 C458 1.428 . S
C459 C460 1.345 . S
C460 H452 0.950 . S
C460 C459 1.345 . S
C460 C461 1.424 . S
C461 H453 0.951 . S
C461 C460 1.424 . S
C461 C462 1.347 . S
C462 H454 0.951 . S
C462 C457 1.429 . S
C462 C461 1.347 . S
H463 C464 0.951 . S
C464 H463 0.951 . S
C464 C470 1.265 . S
H465 C470 0.950 . S
H466 C474 0.949 . S
H467 C475 0.944 1_554 S
H468 C476 0.951 . S
H469 C477 0.951 . S
C470 C464 1.265 . S
C470 H465 0.950 . S
C470 C471 1.478 . S
C471 C458 1.394 . S
C471 C470 1.478 . S
C471 C472 1.397 . S
C472 C471 1.397 . S
C472 C473 1.438 . S
C472 C477 1.429 . S
C473 C456 1.394 . S
C473 C472 1.438 . S
C473 C474 1.428 . S
C474 H466 0.949 . S
C474 C473 1.428 . S
C474 C475 1.345 . S
C475 H467 0.944 1_556 S
C475 C474 1.345 . S
C475 C476 1.424 . S
C476 H468 0.951 . S
C476 C475 1.424 . S
C476 C477 1.347 . S
C477 H469 0.951 . S
C477 C472 1.429 . S
C477 C476 1.347 . S
C134 C92 1.363 . S
C119 C68 1.416 . S
C149 C11 1.290 . S
C164 C113 1.355 . S
C179 C30 1.501 . S
C194 C89 1.440 . S
C209 C49 1.569 1_554 S
C224 C110 1.422 . S
C254 C94 1.521 . S
C239 C2 1.562 . S
C284 C114 1.556 . S
C269 C25 1.658 . S
C299 C40 1.596 . S
C314 C90 1.575 . S
C329 C59 1.515 . S
C344 C112 1.517 . S
C374 C111 1.453 . S
C359 C21 1.505 . S
C404 C93 1.453 . S
C389 C44 1.552 . S
C434 C115 1.406 . S
C419 C63 1.487 . S
C449 C6 1.483 1_556 S
C464 C91 1.404 . S
