# Generated by pormake.
# Topology pth, (4,4)-cn, num edge types: 1
# Building blocks:
#     Node 0, Type 0, BuildingBlock: TATPOV_clean_sbu_0, # of connection points: 4
#     Node 1, Type 0, BuildingBlock: TATPOV_clean_sbu_0, # of connection points: 4
#     Node 2, Type 0, BuildingBlock: TATPOV_clean_sbu_0, # of connection points: 4
#     Node 3, Type 1, BuildingBlock: AZAVOO_clean_linker_0, # of connection points: 4
#     Node 4, Type 1, BuildingBlock: AZAVOO_clean_linker_0, # of connection points: 4
#     Node 5, Type 1, BuildingBlock: AZAVOO_clean_linker_0, # of connection points: 4
#     Edge 6, Type (0, 1), BuildingBlock: TEMPAE_clean_linker_10, # of connection points: 2
#     Edge 7, Type (0, 1), BuildingBlock: TEMPAE_clean_linker_10, # of connection points: 2
#     Edge 8, Type (0, 1), BuildingBlock: TEMPAE_clean_linker_10, # of connection points: 2
#     Edge 9, Type (0, 1), BuildingBlock: TEMPAE_clean_linker_10, # of connection points: 2
#     Edge 10, Type (0, 1), BuildingBlock: TEMPAE_clean_linker_10, # of connection points: 2
#     Edge 11, Type (0, 1), BuildingBlock: TEMPAE_clean_linker_10, # of connection points: 2
#     Edge 12, Type (0, 1), BuildingBlock: TEMPAE_clean_linker_10, # of connection points: 2
#     Edge 13, Type (0, 1), BuildingBlock: TEMPAE_clean_linker_10, # of connection points: 2
#     Edge 14, Type (0, 1), BuildingBlock: TEMPAE_clean_linker_10, # of connection points: 2
#     Edge 15, Type (0, 1), BuildingBlock: TEMPAE_clean_linker_10, # of connection points: 2
#     Edge 16, Type (0, 1), BuildingBlock: TEMPAE_clean_linker_10, # of connection points: 2
#     Edge 17, Type (0, 1), BuildingBlock: TEMPAE_clean_linker_10, # of connection points: 2
# Relax obj value: 0.150
# Max RMSD: 0.230
# Mean RMSD: 0.204
data_MOF--net-pth--node1-TATPOV_clean_sbu_0--node2-AZAVOO_clean_linker_0--edge1-TEMPAE_clean_linker_10
_symmetry_space_group_name_H-M    P1
_symmetry_Int_Tables_number       1
_symmetry_cell_setting            triclinic
loop_
_symmetry_equiv_pos_as_xyz
'x, y, z'
_cell_length_a     26.860443
_cell_length_b     26.748197
_cell_length_c     70.18616
_cell_angle_alpha  93.940557
_cell_angle_beta   91.776609
_cell_angle_gamma 121.31834
loop_
_atom_site_label
_atom_site_type_symbol
_atom_site_fract_x
_atom_site_fract_y
_atom_site_fract_z
_atom_type_partial_charge
Zn0 Zn 0.18136 0.97275 -0.00189 0.0
Zn1 Zn 0.1092 0.07985 0.02477 0.0
O2 O 0.1159 0.03116 0.04451 0.0
O3 O 0.14946 0.00216 0.02128 0.0
O4 O 0.0776 0.125 0.03757 0.0
O5 O 0.18395 0.05202 0.00779 0.0
O6 O 0.1899 0.13519 0.01561 0.0
C7 C 0.13539 -0.0009 0.03865 0.0
C8 C 0.0724 0.99381 0.99367 0.0
O9 O 0.05418 0.02457 0.00185 0.0
O10 O 0.12015 0.00069 0.00094 0.0
C11 C 0.0277 0.09652 0.04411 0.0
O12 O -0.00289 0.03889 0.04087 0.0
C13 C 0.21258 0.10814 0.00784 0.0
Zn14 Zn 0.10911 0.05295 0.31997 0.0
Zn15 Zn 0.04789 0.04765 0.35067 0.0
O16 O 0.13159 0.08413 0.36145 0.0
O17 O 0.18475 0.0924 0.33732 0.0
O18 O 0.00915 0.04956 0.3742 0.0
O19 O 0.0791 0.09887 0.30768 0.0
O20 O 0.03085 0.0956 0.33292 0.0
C21 C 0.18089 0.09943 0.35513 0.0
C22 C 0.0184 0.93495 0.32771 0.0
O23 O 0.00933 0.96019 0.34201 0.0
O24 O 0.05731 0.96451 0.31657 0.0
C25 C 0.95418 0.02549 0.37436 0.0
O26 O 0.92095 -0.00177 0.35844 0.0
C27 C 0.04559 0.11128 0.31628 0.0
Zn28 Zn 0.12074 0.97376 0.71199 0.0
Zn29 Zn 0.05884 0.99278 0.68609 0.0
O30 O 0.11099 0.97542 0.66961 0.0
O31 O 0.16195 0.95932 0.69084 0.0
O32 O 0.00545 -0.00047 0.66722 0.0
O33 O 0.04942 0.90735 0.72132 0.0
O34 O -0.00123 0.9269 0.70125 0.0
C35 C 0.14999 0.96339 0.67364 0.0
C36 C 0.13953 0.09105 0.71637 0.0
O37 O 0.10571 0.0741 0.70114 0.0
O38 O 0.15095 0.05617 0.72397 0.0
C39 C 0.02039 0.04369 0.65791 0.0
O40 O 0.07478 0.08815 0.66004 0.0
C41 C 0.00068 0.89725 0.7144 0.0
H42 H 0.97997 0.44185 0.06003 0.0
H43 H 0.1702 0.92075 0.23116 0.0
H44 H 0.9085 0.40742 0.16158 0.0
H45 H 0.88591 0.31759 0.14216 0.0
H46 H 0.0585 0.35258 0.15865 0.0
H47 H 0.0796 0.44104 0.17853 0.0
H48 H 0.95131 0.51703 0.13706 0.0
H49 H 0.94908 0.48659 0.10318 0.0
H50 H 0.10744 0.48536 0.11493 0.0
H51 H 0.10947 0.51649 0.1487 0.0
H52 H 0.98405 0.63829 0.15964 0.0
H53 H 0.00998 0.70632 0.13496 0.0
H54 H 0.17281 0.71178 0.13028 0.0
H55 H 0.14696 0.64465 0.15534 0.0
H56 H 0.96794 0.6406 0.20288 0.0
H57 H 0.99309 0.73851 0.21636 0.0
H58 H 0.17622 0.80208 0.21129 0.0
H59 H 0.15041 0.70371 0.19804 0.0
H60 H 0.92561 0.53417 0.22077 0.0
H61 H 0.91445 0.56856 0.25241 0.0
H62 H 0.09998 0.64778 0.26696 0.0
H63 H 0.11102 0.61827 0.23446 0.0
H64 H 0.91844 0.39692 0.20345 0.0
H65 H 0.91319 0.32749 0.22547 0.0
H66 H 0.09038 0.45512 0.24827 0.0
H67 H 0.09707 0.52039 0.22485 0.0
O68 O 0.98225 0.45491 0.0734 0.0
O69 O 0.0633 0.45429 0.08027 0.0
O70 O 0.06434 0.84664 0.22822 0.0
O71 O 0.15899 0.88174 0.22569 0.0
C72 C 0.01359 0.49078 0.17889 0.0
C73 C 0.02986 0.53407 0.166 0.0
C74 C 0.04548 0.59159 0.17281 0.0
C75 C 0.04227 0.60511 0.19234 0.0
C76 C 0.02614 0.56162 0.20515 0.0
C77 C 0.01406 0.50515 0.19858 0.0
C78 C -0.00432 0.43047 0.17131 0.0
C79 C 0.94049 0.39433 0.16149 0.0
C80 C 0.92794 0.34347 0.1503 0.0
C81 C 0.97073 0.32852 0.14863 0.0
C82 C 0.02436 0.36252 0.15976 0.0
C83 C 0.03665 0.41313 0.1711 0.0
C84 C 0.03043 0.51877 0.14529 0.0
C85 C 0.9857 0.51062 0.13223 0.0
C86 C 0.98444 0.49304 0.11291 0.0
C87 C 0.02794 0.48326 0.10636 0.0
C88 C 0.07318 0.49232 0.1195 0.0
C89 C 0.07446 0.51008 0.13879 0.0
C90 C 0.06372 0.63685 0.15924 0.0
C91 C 0.02564 0.6549 0.15347 0.0
C92 C 0.04023 0.69311 0.13924 0.0
C93 C 0.09311 0.7137 0.13055 0.0
C94 C 0.13192 0.69675 0.13677 0.0
C95 C 0.11724 0.65849 0.15102 0.0
C96 C 0.05739 0.66518 0.19956 0.0
C97 C 0.01344 0.67578 0.20469 0.0
C98 C 0.02794 0.73173 0.21237 0.0
C99 C 0.08673 0.77813 0.21495 0.0
C100 C 0.13056 0.76736 0.20953 0.0
C101 C 0.11597 0.71131 0.2019 0.0
C102 C 0.01912 0.57449 0.22535 0.0
C103 C 0.9636 0.55845 0.23093 0.0
C104 C 0.95731 0.57754 0.24918 0.0
C105 C 0.00645 0.61181 0.26234 0.0
C106 C 0.06137 0.6231 0.2571 0.0
C107 C 0.06785 0.60584 0.2386 0.0
C108 C 0.00814 0.46371 0.21257 0.0
C109 C 0.95616 0.40934 0.21311 0.0
C110 C 0.95304 0.37013 0.2259 0.0
C111 C 0.00152 0.38536 0.23864 0.0
C112 C 0.05264 0.44094 0.2384 0.0
C113 C 0.05627 0.47898 0.22524 0.0
C114 C 0.0258 0.46334 0.08592 0.0
C115 C 0.10242 0.83746 0.22334 0.0
H116 H 0.68685 0.04524 0.40098 0.0
H117 H 0.29202 0.15216 0.53586 0.0
H118 H 0.6181 0.97777 0.49925 0.0
H119 H 0.69174 0.96897 0.48248 0.0
H120 H 0.81966 0.15102 0.50111 0.0
H121 H 0.74509 0.15939 0.51786 0.0
H122 H 0.55351 0.00596 0.46852 0.0
H123 H 0.59447 0.00701 0.43776 0.0
H124 H 0.73902 0.18365 0.4549 0.0
H125 H 0.69724 0.18211 0.48552 0.0
H126 H 0.44359 0.01805 0.48496 0.0
H127 H 0.39333 0.03149 0.45813 0.0
H128 H 0.54495 0.20455 0.45434 0.0
H129 H 0.59344 0.19188 0.48209 0.0
H130 H 0.42204 -0.00258 0.52661 0.0
H131 H 0.33498 0.00147 0.53269 0.0
H132 H 0.43159 0.18762 0.52604 0.0
H133 H 0.51866 0.18313 0.52028 0.0
H134 H 0.50712 0.97352 0.5511 0.0
H135 H 0.44447 0.94679 0.57775 0.0
H136 H 0.48383 0.12572 0.58681 0.0
H137 H 0.54862 0.1525 0.5608 0.0
H138 H 0.60855 0.97429 0.5384 0.0
H139 H 0.67343 0.96593 0.56153 0.0
H140 H 0.74459 0.14663 0.58412 0.0
H141 H 0.67918 0.15431 0.56102 0.0
O142 O 0.6703 0.04652 0.41292 0.0
O143 O 0.74225 0.13827 0.42205 0.0
O144 O 0.27831 0.05365 0.53695 0.0
O145 O 0.32578 0.14929 0.53344 0.0
C146 C 0.62831 0.07885 0.51376 0.0
C147 C 0.60109 0.09045 0.49863 0.0
C148 C 0.55215 0.09522 0.50177 0.0
C149 C 0.53008 0.0878 0.52006 0.0
C150 C 0.55808 0.07695 0.53529 0.0
C151 C 0.60761 0.0731 0.53214 0.0
C152 C 0.67644 0.06927 0.50958 0.0
C153 C 0.6627 0.01493 0.50043 0.0
C154 C 0.70482 0.01004 0.49086 0.0
C155 C 0.76113 0.0596 0.49029 0.0
C156 C 0.77633 0.11239 0.50119 0.0
C157 C 0.73411 0.11713 0.51087 0.0
C158 C 0.62238 0.09399 0.47918 0.0
C159 C 0.59349 0.04515 0.46545 0.0
C160 C 0.61722 0.04575 0.44796 0.0
C161 C 0.67023 0.0953 0.44391 0.0
C162 C 0.69819 0.14476 0.45756 0.0
C163 C 0.67436 0.1441 0.47502 0.0
C164 C 0.52191 0.10412 0.48553 0.0
C165 C 0.46562 0.05911 0.47847 0.0
C166 C 0.43737 0.06662 0.46295 0.0
C167 C 0.46535 0.11893 0.45392 0.0
C168 C 0.52195 0.16398 0.46105 0.0
C169 C 0.54987 0.15669 0.47679 0.0
C170 C 0.47673 0.09006 0.52313 0.0
C171 C 0.42435 0.03906 0.52654 0.0
C172 C 0.37466 0.04148 0.52996 0.0
C173 C 0.37636 0.09493 0.52989 0.0
C174 C 0.4288 0.14579 0.52623 0.0
C175 C 0.47855 0.14335 0.52289 0.0
C176 C 0.53209 0.06485 0.55398 0.0
C177 C 0.50391 0.00737 0.55933 0.0
C178 C 0.46744 0.992 0.57436 0.0
C179 C 0.45825 0.03384 0.58416 0.0
C180 C 0.49014 0.09246 0.57966 0.0
C181 C 0.5271 0.1079 0.56477 0.0
C182 C 0.63948 0.06496 0.54803 0.0
C183 C 0.63751 0.01168 0.54857 0.0
C184 C 0.67481 0.00716 0.56168 0.0
C185 C 0.71457 0.05586 0.57448 0.0
C186 C 0.7142 0.10826 0.57452 0.0
C187 C 0.67695 0.11276 0.56137 0.0
C188 C 0.69655 0.09493 0.42566 0.0
C189 C 0.32376 0.0978 0.53364 0.0
H190 H 0.80497 0.65189 0.97143 0.0
H191 H 0.2729 0.16273 0.82016 0.0
H192 H 0.68662 0.66779 0.86563 0.0
H193 H 0.77774 0.75051 0.8815 0.0
H194 H 0.85066 0.63986 0.88267 0.0
H195 H 0.75961 0.55749 0.86658 0.0
H196 H 0.65377 0.60673 0.90262 0.0
H197 H 0.71385 0.63861 0.93299 0.0
H198 H 0.74233 0.49426 0.92319 0.0
H199 H 0.68288 0.46345 0.89266 0.0
H200 H 0.5252 0.48504 0.90273 0.0
H201 H 0.47352 0.41843 0.92708 0.0
H202 H 0.51643 0.29479 0.90207 0.0
H203 H 0.56718 0.36125 0.87739 0.0
H204 H 0.44169 0.42469 0.87011 0.0
H205 H 0.34568 0.33508 0.8627 0.0
H206 H 0.42089 0.26695 0.82285 0.0
H207 H 0.51686 0.35628 0.83067 0.0
H208 H 0.466 0.48751 0.83505 0.0
H209 H 0.39901 0.44864 0.80641 0.0
H210 H 0.52759 0.43252 0.77533 0.0
H211 H 0.5912 0.46489 0.80475 0.0
H212 H 0.59842 0.61722 0.82928 0.0
H213 H 0.63917 0.67395 0.80168 0.0
H214 H 0.75078 0.60302 0.79542 0.0
H215 H 0.71056 0.54727 0.82299 0.0
O216 O 0.78034 0.63772 0.95956 0.0
O217 O 0.79334 0.56257 0.95396 0.0
O218 O 0.27462 0.23356 0.84511 0.0
O219 O 0.31062 0.19802 0.8237 0.0
C220 C 0.65705 0.55373 0.86147 0.0
C221 C 0.63182 0.51694 0.87627 0.0
C222 C 0.57595 0.46572 0.87286 0.0
C223 C 0.54422 0.45212 0.85493 0.0
C224 C 0.56812 0.49075 0.8405 0.0
C225 C 0.62497 0.54101 0.84369 0.0
C226 C 0.71646 0.60665 0.8652 0.0
C227 C 0.7232 0.66219 0.86852 0.0
C228 C 0.77519 0.70929 0.87761 0.0
C229 C 0.82072 0.7011 0.88353 0.0
C230 C 0.8159 0.64699 0.87841 0.0
C231 C 0.76418 0.60014 0.86916 0.0
C232 C 0.66398 0.5328 0.89547 0.0
C233 C 0.67274 0.58186 0.90713 0.0
C234 C 0.70714 0.60001 0.92445 0.0
C235 C 0.73302 0.56907 0.93051 0.0
C236 C 0.72307 0.5191 0.91895 0.0
C237 C 0.68886 0.50117 0.90157 0.0
C238 C 0.54944 0.42756 0.88835 0.0
C239 C 0.52387 0.44384 0.90264 0.0
C240 C 0.4945 0.40596 0.91644 0.0
C241 C 0.49125 0.35185 0.91628 0.0
C242 C 0.51884 0.33656 0.90242 0.0
C243 C 0.54747 0.37414 0.88839 0.0
C244 C 0.48631 0.39674 0.85105 0.0
C245 C 0.4375 0.38999 0.86 0.0
C246 C 0.38264 0.33892 0.85565 0.0
C247 C 0.37559 0.29385 0.84215 0.0
C248 C 0.42475 0.30075 0.8333 0.0
C249 C 0.47963 0.35169 0.83775 0.0
C250 C 0.53301 0.47804 0.82209 0.0
C251 C 0.47972 0.47584 0.82199 0.0
C252 C 0.44181 0.45444 0.80544 0.0
C253 C 0.45726 0.43643 0.78846 0.0
C254 C 0.5133 0.44421 0.78822 0.0
C255 C 0.55027 0.46361 0.80498 0.0
C256 C 0.65187 0.57852 0.82807 0.0
C257 C 0.63196 0.61443 0.82197 0.0
C258 C 0.65489 0.64637 0.80624 0.0
C259 C 0.69721 0.64184 0.79633 0.0
C260 C 0.71731 0.60623 0.80263 0.0
C261 C 0.69505 0.57508 0.81846 0.0
C262 C 0.77066 0.58933 0.94871 0.0
C263 C 0.31718 0.24008 0.83715 0.0
C264 C 0.95448 0.09591 0.06544 0.0
C265 C 0.00849 0.12715 0.05748 0.0
C266 C 0.93903 0.1233 0.07982 0.0
C267 C 0.97881 0.18298 0.08645 0.0
C268 C 0.03231 0.21529 0.07793 0.0
C269 C 0.04634 0.18705 0.06347 0.0
C270 C 0.8811 0.08799 0.08835 0.0
C271 C 0.0759 0.27914 0.08463 0.0
C272 C 0.9399 0.28099 0.11506 0.0
C273 C 0.96296 0.28302 0.13352 0.0
C274 C 0.94096 0.24523 0.09974 0.0
C275 C 0.96651 0.21149 0.10294 0.0
C276 C 0.98676 0.2107 0.12172 0.0
C277 C 0.98445 0.24632 0.13683 0.0
C278 C 0.91843 0.2468 0.07995 0.0
C279 C 0.01449 0.17534 0.12565 0.0
H280 H 0.92485 0.04968 0.06077 0.0
H281 H 0.08805 0.21157 0.05735 0.0
H282 H 0.88864 0.0823 0.10347 0.0
H283 H 0.85736 0.11174 0.0884 0.0
H284 H 0.85289 0.0438 0.08041 0.0
H285 H 0.11464 0.29843 0.07606 0.0
H286 H 0.05498 0.30545 0.08375 0.0
H287 H 0.09109 0.28325 0.09987 0.0
H288 H 0.92402 0.30988 0.11229 0.0
H289 H 0.00155 0.24716 0.15112 0.0
H290 H 0.89202 0.20181 0.07245 0.0
H291 H 0.95591 0.27289 0.07134 0.0
H292 H 0.89133 0.26708 0.08039 0.0
H293 H 0.98607 0.12925 0.11923 0.0
H294 H 0.02298 0.17516 0.14123 0.0
H295 H 0.05665 0.19422 0.11893 0.0
C296 C 0.86823 0.006 0.39255 0.0
C297 C 0.9285 0.0293 0.39231 0.0
C298 C 0.84387 0.011 0.40943 0.0
C299 C 0.88074 0.03981 0.42643 0.0
C300 C 0.94144 0.06266 0.42636 0.0
C301 C 0.96462 0.05716 0.40929 0.0
C302 C 0.77884 0.98626 0.40901 0.0
C303 C 0.98199 0.09375 0.44423 0.0
C304 C 0.82293 0.1026 0.46331 0.0
C305 C 0.7995 0.05852 0.47585 0.0
C306 C 0.85112 0.09788 0.44747 0.0
C307 C 0.85588 0.04783 0.44411 0.0
C308 C 0.83443 0.00431 0.45713 0.0
C309 C 0.80632 0.01014 0.47287 0.0
C310 C 0.87339 0.14513 0.43387 0.0
C311 C 0.839 0.95047 0.45399 0.0
H312 H 0.84008 0.98438 0.3795 0.0
H313 H 0.01127 0.07516 0.40925 0.0
H314 H 0.75934 0.95396 0.41974 0.0
H315 H 0.77054 0.02203 0.41295 0.0
H316 H 0.75612 0.9643 0.39471 0.0
H317 H 0.02787 0.10713 0.44193 0.0
H318 H 0.98102 0.13361 0.44903 0.0
H319 H 0.96714 0.06478 0.45601 0.0
H320 H 0.81658 0.13941 0.46532 0.0
H321 H 0.78818 0.97607 0.48257 0.0
H322 H 0.84844 0.12642 0.4197 0.0
H323 H 0.91998 0.16174 0.43167 0.0
H324 H 0.86924 0.18282 0.43916 0.0
H325 H 0.81213 0.92337 0.44075 0.0
H326 H 0.82388 0.92289 0.46615 0.0
H327 H 0.88485 0.96348 0.45194 0.0
C328 C 0.89185 0.84346 0.7161 0.0
C329 C 0.94669 0.85409 0.72274 0.0
C330 C 0.84144 0.80643 0.72526 0.0
C331 C 0.84645 0.78026 0.74147 0.0
C332 C 0.90138 0.78951 0.74784 0.0
C333 C 0.95065 0.82598 0.73834 0.0
C334 C 0.78332 0.79668 0.71794 0.0
C335 C 0.9086 0.76234 0.76511 0.0
C336 C 0.74948 0.73755 0.78235 0.0
C337 C 0.72337 0.6764 0.78006 0.0
C338 C 0.78579 0.77229 0.76876 0.0
C339 C 0.79546 0.74483 0.75253 0.0
C340 C 0.76414 0.68277 0.7492 0.0
C341 C 0.72871 0.64917 0.76314 0.0
C342 C 0.81846 0.83838 0.77282 0.0
C343 C 0.77229 0.65189 0.73185 0.0
H344 H 0.88843 0.8649 0.70401 0.0
H345 H 0.99274 0.8337 0.74353 0.0
H346 H 0.74941 0.7491 0.71643 0.0
H347 H 0.76898 0.81876 0.72839 0.0
H348 H 0.78559 0.81428 0.70389 0.0
H349 H 0.95431 0.77346 0.76803 0.0
H350 H 0.89555 0.77786 0.77799 0.0
H351 H 0.87971 0.71378 0.76294 0.0
H352 H 0.74521 0.75848 0.79547 0.0
H353 H 0.70757 0.60167 0.76128 0.0
H354 H 0.81866 0.85925 0.75969 0.0
H355 H 0.86462 0.85483 0.77765 0.0
H356 H 0.79922 0.85261 0.78417 0.0
H357 H 0.77392 0.67375 0.71882 0.0
H358 H 0.73669 0.60489 0.7294 0.0
H359 H 0.81443 0.65393 0.734 0.0
C360 C 0.12251 0.95826 0.07005 0.0
C361 C 0.1389 0.95896 0.05125 0.0
C362 C 0.12113 0.91803 0.08203 0.0
C363 C 0.13678 0.87755 0.07509 0.0
C364 C 0.15546 0.87929 0.05637 0.0
C365 C 0.15617 0.92005 0.0446 0.0
C366 C 0.10086 0.91755 0.10192 0.0
C367 C 0.17294 0.83703 0.04862 0.0
C368 C 0.16272 0.80297 0.11478 0.0
C369 C 0.10709 0.75234 0.11492 0.0
C370 C 0.17446 0.84259 0.10101 0.0
C371 C 0.12938 0.83118 0.08719 0.0
C372 C 0.07421 0.77845 0.08661 0.0
C373 C 0.06378 0.73963 0.10048 0.0
C374 C 0.23391 0.89824 0.10198 0.0
C375 C 0.02504 0.76467 0.07206 0.0
H376 H 0.10944 0.98846 0.07534 0.0
H377 H 0.16909 0.92063 0.0301 0.0
H378 H 0.05979 0.87509 0.10315 0.0
H379 H 0.13396 0.9216 0.11278 0.0
H380 H 0.09278 0.95376 0.1054 0.0
H381 H 0.19166 0.84775 0.03452 0.0
H382 H 0.2055 0.8374 0.05884 0.0
H383 H 0.13416 0.79165 0.04692 0.0
H384 H 0.19632 0.81292 0.12593 0.0
H385 H 0.02115 0.69978 0.1003 0.0
H386 H 0.2305 0.93621 0.10742 0.0
H387 H 0.25026 0.90648 0.08752 0.0
H388 H 0.26643 0.89643 0.11162 0.0
H389 H 0.01019 0.79594 0.0751 0.0
H390 H 0.987 0.71922 0.07229 0.0
H391 H 0.04034 0.7701 0.05743 0.0
C392 C 0.22331 0.11349 0.3885 0.0
C393 C 0.23175 0.11869 0.36894 0.0
C394 C 0.26796 0.12179 0.40157 0.0
C395 C 0.32287 0.13684 0.39499 0.0
C396 C 0.3332 0.14657 0.37555 0.0
C397 C 0.28723 0.13681 0.36267 0.0
C398 C 0.25494 0.11043 0.42216 0.0
C399 C 0.39178 0.16429 0.36818 0.0
C400 C 0.43873 0.1801 0.43547 0.0
C401 C 0.43479 0.12625 0.43733 0.0
C402 C 0.40543 0.18552 0.42086 0.0
C403 C 0.36652 0.13563 0.40812 0.0
C404 C 0.36446 0.08201 0.40936 0.0
C405 C 0.39913 0.07821 0.4238 0.0
C406 C 0.40974 0.24376 0.41968 0.0
C407 C 0.32318 0.02759 0.39612 0.0
H408 H 0.18072 0.09983 0.39353 0.0
H409 H 0.29427 0.14152 0.34761 0.0
H410 H 0.25626 0.07107 0.4254 0.0
H411 H 0.28858 0.14808 0.43203 0.0
H412 H 0.21133 0.10285 0.42522 0.0
H413 H 0.39571 0.17954 0.35366 0.0
H414 H 0.42776 0.19983 0.37806 0.0
H415 H 0.39767 0.12614 0.36742 0.0
H416 H 0.466 0.21747 0.44587 0.0
H417 H 0.39714 0.03696 0.42478 0.0
H418 H 0.37008 0.24116 0.42501 0.0
H419 H 0.412 0.25439 0.4046 0.0
H420 H 0.44861 0.28024 0.42838 0.0
H421 H 0.27733 0.01363 0.39865 0.0
H422 H 0.32936 0.99034 0.39828 0.0
H423 H 0.32945 0.03712 0.38096 0.0
C424 C 0.18186 0.1657 0.74436 0.0
C425 C 0.17081 0.15278 0.72448 0.0
C426 C 0.2239 0.22232 0.75242 0.0
C427 C 0.2566 0.26644 0.74021 0.0
C428 C 0.24138 0.25509 0.72022 0.0
C429 C 0.19802 0.19808 0.71254 0.0
C430 C 0.23757 0.23298 0.77389 0.0
C431 C 0.27492 0.30098 0.70675 0.0
C432 C 0.36603 0.41099 0.76844 0.0
C433 C 0.41212 0.40166 0.7723 0.0
C434 C 0.31624 0.36955 0.75658 0.0
C435 C 0.31321 0.31843 0.74814 0.0
C436 C 0.36226 0.31225 0.7502 0.0
C437 C 0.41068 0.35342 0.76242 0.0
C438 C 0.26514 0.3781 0.75455 0.0
C439 C 0.3615 0.259 0.74103 0.0
H440 H 0.16009 0.13058 0.75355 0.0
H441 H 0.18932 0.18789 0.69713 0.0
H442 H 0.279 0.23464 0.77743 0.0
H443 H 0.24357 0.27576 0.77943 0.0
H444 H 0.20252 0.19766 0.78143 0.0
H445 H 0.24918 0.29108 0.69283 0.0
H446 H 0.28746 0.34548 0.7131 0.0
H447 H 0.31572 0.30174 0.7039 0.0
H448 H 0.36734 0.44904 0.77548 0.0
H449 H 0.44533 0.34493 0.76527 0.0
H450 H 0.23312 0.3527 0.76493 0.0
H451 H 0.24245 0.36178 0.73999 0.0
H452 H 0.27908 0.4251 0.75758 0.0
H453 H 0.33239 0.22008 0.74859 0.0
H454 H 0.40572 0.26509 0.74167 0.0
H455 H 0.34413 0.2493 0.72582 0.0
C456 C 0.9916 0.09368 0.63491 0.0
C457 C 0.97603 0.04546 0.64538 0.0
C458 C 0.94946 0.09611 0.62333 0.0
C459 C 0.8904 0.04927 0.62225 0.0
C460 C 0.87444 0.00045 0.63274 0.0
C461 C 0.91742 -0.00091 0.64414 0.0
C462 C 0.96808 0.1488 0.61227 0.0
C463 C 0.81189 0.94966 0.63195 0.0
C464 C 0.77149 0.07733 0.6061 0.0
C465 C 0.75859 0.05313 0.58694 0.0
C466 C 0.8144 0.07649 0.61776 0.0
C467 C 0.84521 0.05102 0.61005 0.0
C468 C 0.83236 0.02651 0.59072 0.0
C469 C 0.7892 0.02785 0.5794 0.0
C470 C 0.8267 0.10273 0.63835 0.0
C471 C 0.86443 -0.00084 0.58196 0.0
H472 H 0.03674 0.12968 0.63578 0.0
H473 H 0.90489 0.96165 0.6522 0.0
H474 H 0.95683 0.13446 0.59673 0.0
H475 H 0.94412 0.17074 0.6166 0.0
H476 H 0.01576 0.18145 0.61461 0.0
H477 H 0.80666 0.9151 0.64105 0.0
H478 H 0.78325 0.96574 0.63675 0.0
H479 H 0.79633 0.92947 0.61697 0.0
H480 H 0.74765 0.09653 0.61201 0.0
H481 H 0.78014 0.01003 0.5645 0.0
H482 H 0.87333 0.13825 0.64104 0.0
H483 H 0.81869 0.06869 0.64807 0.0
H484 H 0.79914 0.12115 0.64212 0.0
H485 H 0.91203 0.03209 0.58291 0.0
H486 H 0.84929 0.98215 0.56669 0.0
H487 H 0.85816 0.96235 0.59005 0.0
C488 C 0.06854 0.93309 0.96437 0.0
C489 C 0.04029 0.95256 0.97653 0.0
C490 C 0.03833 0.8939 0.948 0.0
C491 C 0.97835 0.87302 0.94399 0.0
C492 C 0.94971 0.89265 0.95623 0.0
C493 C 0.98123 0.93268 0.97227 0.0
C494 C 0.0704 0.87451 0.9351 0.0
C495 C 0.88549 0.87057 0.95259 0.0
C496 C 0.89794 0.80498 0.89503 0.0
C497 C 0.86791 0.74503 0.89766 0.0
C498 C 0.93673 0.84726 0.90968 0.0
C499 C 0.94454 0.82893 0.92741 0.0
C500 C 0.91594 0.76827 0.92983 0.0
C501 C 0.8781 0.72703 0.91488 0.0
C502 C 0.96732 0.91155 0.90649 0.0
C503 C 0.92241 0.74692 0.94859 0.0
H504 H 0.11442 0.94896 0.96753 0.0
H505 H 0.95929 0.94757 0.9817 0.0
H506 H 0.05101 0.82637 0.93498 0.0
H507 H 0.06563 0.88351 0.92017 0.0
H508 H 0.1177 0.89707 0.93973 0.0
H509 H 0.86991 0.89045 0.96345 0.0
H510 H 0.87691 0.88062 0.93822 0.0
H511 H 0.85935 0.82206 0.95273 0.0
H512 H 0.89001 0.81878 0.88169 0.0
H513 H 0.85401 0.68071 0.91707 0.0
H514 H 0.01471 0.9338 0.91084 0.0
H515 H 0.94942 0.93334 0.91551 0.0
H516 H 0.96177 0.91813 0.89129 0.0
H517 H 0.96915 0.76856 0.95373 0.0
H518 H 0.90279 0.69851 0.94738 0.0
H519 H 0.90047 0.75866 0.95961 0.0
C520 C 0.96377 0.84377 0.30608 0.0
C521 C 0.98771 0.8708 0.32453 0.0
C522 C 0.95292 0.78758 0.30056 0.0
C523 C 0.96831 0.75908 0.31373 0.0
C524 C 0.98475 0.78284 0.33313 0.0
C525 C -0.00578 0.83893 0.33837 0.0
C526 C 0.93313 0.76281 0.27989 0.0
C527 C -0.00015 0.753 0.34771 0.0
C528 C 0.94965 0.61989 0.2891 0.0
C529 C 0.00182 0.6435 0.27984 0.0
C530 C 0.93951 0.65565 0.30198 0.0
C531 C 0.98297 0.71588 0.30583 0.0
C532 C 0.0384 0.73783 0.29852 0.0
C533 C 0.04686 0.70166 0.28546 0.0
C534 C 0.88038 0.63004 0.30987 0.0
C535 C 0.08686 0.80158 0.30268 0.0
H536 H 0.95825 0.86861 0.29551 0.0
H537 H 0.01264 0.86013 0.3527 0.0
H538 H 0.97128 0.76952 0.27216 0.0
H539 H 0.90072 0.71489 0.27884 0.0
H540 H 0.91337 0.78465 0.27255 0.0
H541 H -0.00541 0.76646 0.36248 0.0
H542 H 0.97228 0.70442 0.34491 0.0
H543 H 0.04617 0.76587 0.34691 0.0
H544 H 0.91524 0.57439 0.28545 0.0
H545 H 0.08732 0.72105 0.27848 0.0
H546 H 0.85081 0.63493 0.29982 0.0
H547 H 0.88298 0.65288 0.324 0.0
H548 H 0.86054 0.58237 0.31131 0.0
H549 H 0.07563 0.8296 0.2949 0.0
H550 H 0.12939 0.80939 0.29813 0.0
H551 H 0.0923 0.81593 0.3182 0.0
C552 C 0.19108 0.9873 0.64181 0.0
C553 C 0.18622 0.96055 0.65871 0.0
C554 C 0.23287 0.99388 0.62908 0.0
C555 C 0.26991 0.97241 0.63327 0.0
C556 C 0.26255 0.94194 0.64964 0.0
C557 C 0.22102 0.93672 0.66225 0.0
C558 C 0.23965 0.02685 0.61177 0.0
C559 C 0.30043 0.91736 0.65434 0.0
C560 C 0.35741 0.96328 0.59327 0.0
C561 C 0.41176 0.01555 0.59769 0.0
C562 C 0.31118 0.94778 0.60499 0.0
C563 C 0.31925 0.98591 0.62134 0.0
C564 C 0.37427 0.03811 0.62611 0.0
C565 C 0.41997 0.05211 0.61428 0.0
C566 C 0.2533 0.89144 0.5996 0.0
C567 C 0.38445 0.07993 0.64345 0.0
H568 H 0.16441 0.00594 0.63903 0.0
H569 H 0.21703 0.91547 0.67521 0.0
H570 H 0.2825 0.06892 0.61339 0.0
H571 H 0.23918 0.00106 0.59863 0.0
H572 H 0.20459 0.03679 0.60977 0.0
H573 H 0.28493 0.8894 0.6664 0.0
H574 H 0.30138 0.89088 0.64163 0.0
H575 H 0.34599 0.95401 0.65831 0.0
H576 H 0.35028 0.93527 0.58029 0.0
H577 H 0.46203 0.09214 0.61791 0.0
H578 H 0.21949 0.90179 0.59575 0.0
H579 H 0.23874 0.86479 0.61196 0.0
H580 H 0.25556 0.86448 0.58728 0.0
H581 H 0.35417 0.09628 0.64213 0.0
H582 H 0.43001 0.11833 0.64527 0.0
H583 H 0.37505 0.05668 0.65658 0.0
C584 C 0.30185 0.20037 0.00083 0.0
C585 C 0.26499 0.13929 -0.00278 0.0
C586 C 0.34578 0.23223 0.9887 0.0
C587 C 0.35204 0.20221 0.97243 0.0
C588 C 0.31767 0.14007 0.9695 0.0
C589 C 0.27466 0.10919 0.98207 0.0
C590 C 0.38238 0.29841 0.9925 0.0
C591 C 0.32278 0.10659 0.95224 0.0
C592 C 0.39629 0.29096 0.92985 0.0
C593 C 0.45562 0.31011 0.92985 0.0
C594 C 0.36169 0.25383 0.94321 0.0
C595 C 0.38752 0.23641 0.95711 0.0
C596 C 0.44729 0.25458 0.95688 0.0
C597 C 0.48072 0.29105 0.94306 0.0
C598 C 0.29784 0.23457 0.94276 0.0
C599 C 0.47627 0.23736 0.97163 0.0
H600 H 0.29483 0.22359 0.0127 0.0
H601 H 0.2461 0.0619 0.97925 0.0
H602 H 0.42913 0.31452 0.99079 0.0
H603 H 0.36814 0.3184 0.98193 0.0
H604 H 0.37827 0.31402 0.00711 0.0
H605 H 0.29996 0.05863 0.95364 0.0
H606 H 0.30307 0.1133 0.93928 0.0
H607 H 0.36928 0.12308 0.94995 0.0
H608 H 0.3771 0.30548 0.91941 0.0
H609 H 0.52681 0.30624 0.94296 0.0
H610 H 0.28955 0.25342 0.95599 0.0
H611 H 0.27022 0.18599 0.94233 0.0
H612 H 0.28383 0.24873 0.93021 0.0
H613 H 0.47756 0.25836 0.98598 0.0
H614 H 0.52166 0.25093 0.96849 0.0
H615 H 0.45067 0.1891 0.97236 0.0
C616 C 0.02503 0.19197 0.31668 0.0
C617 C 0.02409 0.1443 0.30673 0.0
C618 C 0.01349 0.22926 0.30684 0.0
C619 C -0.00091 0.2171 0.28679 0.0
C620 C 0.99318 0.16594 0.27707 0.0
C621 C 0.00684 0.1307 0.28712 0.0
C622 C 0.02154 0.28411 0.3176 0.0
C623 C 0.97622 0.15051 0.25582 0.0
C624 C 0.94892 0.3036 0.25984 0.0
C625 C 0.0003 0.34297 0.25156 0.0
C626 C 0.94768 0.26252 0.27157 0.0
C627 C -0.00063 0.26197 0.27546 0.0
C628 C 0.05159 0.30246 0.26757 0.0
C629 C 0.05109 0.34151 0.25544 0.0
C630 C 0.89091 0.21886 0.27938 0.0
C631 C 0.10794 0.30382 0.27158 0.0
H632 H 0.0385 0.20227 0.33187 0.0
H633 H 0.00537 0.09316 0.27955 0.0
H634 H 0.06255 0.32294 0.31376 0.0
H635 H 0.98515 0.29052 0.31356 0.0
H636 H 0.02432 0.28278 0.33337 0.0
H637 H 0.96426 0.10483 0.25114 0.0
H638 H 0.9388 0.15544 0.25184 0.0
H639 H 0.01345 0.18102 0.24781 0.0
H640 H 0.9096 0.30472 0.25716 0.0
H641 H 0.09063 0.37028 0.24873 0.0
H642 H 0.89669 0.22107 0.29519 0.0
H643 H 0.87748 0.17359 0.27357 0.0
H644 H 0.85512 0.22659 0.27564 0.0
H645 H 0.11748 0.30648 0.28724 0.0
H646 H 0.14579 0.34163 0.2658 0.0
H647 H 0.10359 0.26266 0.26503 0.0
loop_
_geom_bond_atom_site_label_1
_geom_bond_atom_site_label_2
_geom_bond_distance
_geom_bond_site_symmetry_2
_ccdc_geom_bond_type
Zn0 O3 2.031 1_545 S
Zn0 O5 2.049 1_554 S
Zn0 O10 2.067 1_544 S
Zn1 O2 1.962 . S
Zn1 O4 1.986 . S
Zn1 O6 1.996 . S
Zn1 O9 1.943 . S
O2 Zn1 1.962 . S
O2 C7 1.254 1_545 S
O3 Zn0 2.031 1_565 S
O3 C7 1.269 . S
O4 Zn1 1.986 . S
O4 C11 1.262 . S
O5 Zn0 2.049 1_556 S
O5 C13 1.243 1_556 S
O6 Zn1 1.996 . S
O6 C13 1.285 . S
C7 O2 1.254 1_565 S
C7 O3 1.269 . S
C8 O9 1.264 1_565 S
C8 O10 1.259 1_554 S
O9 Zn1 1.943 . S
O9 C8 1.264 1_545 S
O10 Zn0 2.067 1_566 S
O10 C8 1.259 1_556 S
C11 O4 1.262 . S
C11 O12 1.232 . S
O12 C11 1.232 . S
C13 O5 1.243 1_554 S
C13 O6 1.285 . S
Zn14 O17 2.031 . S
Zn14 O19 2.049 . S
Zn14 O24 2.067 1_545 S
Zn15 O16 1.962 . S
Zn15 O18 1.986 1_455 S
Zn15 O20 1.996 . S
Zn15 O23 1.943 1_445 S
O16 Zn15 1.962 . S
O16 C21 1.254 . S
O17 Zn14 2.031 . S
O17 C21 1.269 . S
O18 Zn15 1.986 1_655 S
O18 C25 1.262 . S
O19 Zn14 2.049 . S
O19 C27 1.260 . S
O20 Zn15 1.996 . S
O20 C27 1.257 . S
C21 O16 1.254 . S
C21 O17 1.269 . S
C22 O23 1.249 1_455 S
C22 O24 1.270 . S
O23 Zn15 1.943 1_665 S
O23 C22 1.249 1_655 S
O24 Zn14 2.067 1_565 S
O24 C22 1.270 . S
C25 O18 1.262 . S
C25 O26 1.232 1_545 S
O26 C25 1.232 1_565 S
C27 O19 1.260 . S
C27 O20 1.257 . S
Zn28 O31 2.031 1_565 S
Zn28 O33 2.049 . S
Zn28 O38 2.067 1_565 S
Zn29 O30 1.962 . S
Zn29 O32 1.986 . S
Zn29 O34 1.996 1_545 S
Zn29 O37 1.943 . S
O30 Zn29 1.962 . S
O30 C35 1.254 . S
O31 Zn28 2.031 1_545 S
O31 C35 1.269 . S
O32 Zn29 1.986 . S
O32 C39 1.262 . S
O33 Zn28 2.049 . S
O33 C41 1.260 . S
O34 Zn29 1.996 1_565 S
O34 C41 1.257 . S
C35 O30 1.254 . S
C35 O31 1.269 . S
C36 O37 1.249 . S
C36 O38 1.270 . S
O37 Zn29 1.943 . S
O37 C36 1.249 . S
O38 Zn28 2.067 1_545 S
O38 C36 1.270 . S
C39 O32 1.262 . S
C39 O40 1.232 . S
O40 C39 1.232 . S
C41 O33 1.260 . S
C41 O34 1.257 . S
H42 O68 0.856 . S
H43 O71 0.854 . S
H44 C79 0.930 1_655 S
H45 C80 0.930 1_655 S
H46 C82 0.930 . S
H47 C83 0.930 . S
H48 C85 0.931 . S
H49 C86 0.930 . S
H50 C88 0.930 . S
H51 C89 0.929 . S
H52 C91 0.930 . S
H53 C92 0.931 . S
H54 C94 0.930 . S
H55 C95 0.929 . S
H56 C97 0.931 1_655 S
H57 C98 0.930 1_655 S
H58 C100 0.930 . S
H59 C101 0.932 . S
H60 C103 0.930 . S
H61 C104 0.929 . S
H62 C106 0.931 . S
H63 C107 0.930 . S
H64 C109 0.929 1_655 S
H65 C110 0.931 1_655 S
H66 C112 0.930 . S
H67 C113 0.929 . S
O68 H42 0.856 . S
O68 C114 1.300 . S
O69 C114 1.209 . S
O70 C115 1.199 . S
O71 H43 0.854 . S
O71 C115 1.297 . S
C72 C73 1.404 . S
C72 C77 1.397 . S
C72 C78 1.492 . S
C73 C72 1.404 . S
C73 C74 1.396 . S
C73 C84 1.492 . S
C74 C73 1.396 . S
C74 C75 1.397 . S
C74 C90 1.509 . S
C75 C74 1.397 . S
C75 C76 1.412 . S
C75 C96 1.485 . S
C76 C75 1.412 . S
C76 C77 1.388 . S
C76 C102 1.490 . S
C77 C72 1.397 . S
C77 C76 1.388 . S
C77 C108 1.519 . S
C78 C72 1.492 . S
C78 C79 1.363 . S
C78 C83 1.390 . S
C79 H44 0.930 1_455 S
C79 C78 1.363 . S
C79 C80 1.372 . S
C80 H45 0.930 1_455 S
C80 C79 1.372 . S
C80 C81 1.383 . S
C81 C80 1.383 . S
C81 C82 1.395 . S
C82 H46 0.930 . S
C82 C81 1.395 . S
C82 C83 1.362 . S
C83 H47 0.930 . S
C83 C78 1.390 . S
C83 C82 1.362 . S
C84 C73 1.492 . S
C84 C85 1.377 . S
C84 C89 1.397 . S
C85 H48 0.931 . S
C85 C84 1.377 . S
C85 C86 1.376 . S
C86 H49 0.930 . S
C86 C85 1.376 . S
C86 C87 1.376 . S
C87 C86 1.376 . S
C87 C88 1.378 . S
C87 C114 1.486 . S
C88 H50 0.930 . S
C88 C87 1.378 . S
C88 C89 1.376 . S
C89 H51 0.929 . S
C89 C84 1.397 . S
C89 C88 1.376 . S
C90 C74 1.509 . S
C90 C91 1.391 . S
C90 C95 1.386 . S
C91 H52 0.930 . S
C91 C90 1.391 . S
C91 C92 1.375 . S
C92 H53 0.931 . S
C92 C91 1.375 . S
C92 C93 1.375 . S
C93 C92 1.375 . S
C93 C94 1.361 . S
C94 H54 0.930 . S
C94 C93 1.361 . S
C94 C95 1.399 . S
C95 H55 0.929 . S
C95 C90 1.386 . S
C95 C94 1.399 . S
C96 C75 1.485 . S
C96 C97 1.394 . S
C96 C101 1.360 . S
C97 H56 0.931 1_455 S
C97 C96 1.394 . S
C97 C98 1.372 . S
C98 H57 0.930 1_455 S
C98 C97 1.372 . S
C98 C99 1.397 . S
C99 C98 1.397 . S
C99 C100 1.390 . S
C99 C115 1.476 . S
C100 H58 0.930 . S
C100 C99 1.390 . S
C100 C101 1.366 . S
C101 H59 0.932 . S
C101 C96 1.360 . S
C101 C100 1.366 . S
C102 C76 1.490 . S
C102 C103 1.380 1_455 S
C102 C107 1.386 . S
C103 H60 0.930 . S
C103 C102 1.380 1_655 S
C103 C104 1.381 . S
C104 H61 0.929 . S
C104 C103 1.381 . S
C104 C105 1.371 1_655 S
C105 C104 1.371 1_455 S
C105 C106 1.380 . S
C106 H62 0.931 . S
C106 C105 1.380 . S
C106 C107 1.387 . S
C107 H63 0.930 . S
C107 C102 1.386 . S
C107 C106 1.387 . S
C108 C77 1.519 . S
C108 C109 1.377 . S
C108 C113 1.361 . S
C109 H64 0.929 1_455 S
C109 C108 1.377 . S
C109 C110 1.386 . S
C110 H65 0.931 1_455 S
C110 C109 1.386 . S
C110 C111 1.363 . S
C111 C110 1.363 . S
C111 C112 1.385 . S
C112 H66 0.930 . S
C112 C111 1.385 . S
C112 C113 1.396 . S
C113 H67 0.929 . S
C113 C108 1.361 . S
C113 C112 1.396 . S
C114 O68 1.300 . S
C114 O69 1.209 . S
C114 C87 1.486 . S
C115 O70 1.199 . S
C115 O71 1.297 . S
C115 C99 1.476 . S
H116 O142 0.856 . S
H117 O145 0.854 . S
H118 C153 0.930 . S
H119 C154 0.930 . S
H120 C156 0.930 . S
H121 C157 0.930 . S
H122 C159 0.931 1_565 S
H123 C160 0.930 1_565 S
H124 C162 0.930 . S
H125 C163 0.929 . S
H126 C165 0.930 1_565 S
H127 C166 0.931 1_565 S
H128 C168 0.930 . S
H129 C169 0.929 . S
H130 C171 0.931 1_565 S
H131 C172 0.930 1_565 S
H132 C174 0.930 . S
H133 C175 0.932 . S
H134 C177 0.930 . S
H135 C178 0.929 . S
H136 C180 0.931 . S
H137 C181 0.930 . S
H138 C183 0.929 1_565 S
H139 C184 0.931 1_565 S
H140 C186 0.930 . S
H141 C187 0.929 . S
O142 H116 0.856 . S
O142 C188 1.300 . S
O143 C188 1.209 . S
O144 C189 1.199 . S
O145 H117 0.854 . S
O145 C189 1.297 . S
C146 C147 1.404 . S
C146 C151 1.397 . S
C146 C152 1.492 . S
C147 C146 1.404 . S
C147 C148 1.396 . S
C147 C158 1.492 . S
C148 C147 1.396 . S
C148 C149 1.397 . S
C148 C164 1.509 . S
C149 C148 1.397 . S
C149 C150 1.412 . S
C149 C170 1.485 . S
C150 C149 1.412 . S
C150 C151 1.388 . S
C150 C176 1.490 . S
C151 C146 1.397 . S
C151 C150 1.388 . S
C151 C182 1.519 . S
C152 C146 1.492 . S
C152 C153 1.363 1_545 S
C152 C157 1.390 . S
C153 H118 0.930 . S
C153 C152 1.363 1_565 S
C153 C154 1.372 . S
C154 H119 0.930 . S
C154 C153 1.372 . S
C154 C155 1.383 1_565 S
C155 C154 1.383 1_545 S
C155 C156 1.395 . S
C156 H120 0.930 . S
C156 C155 1.395 . S
C156 C157 1.362 . S
C157 H121 0.930 . S
C157 C152 1.390 . S
C157 C156 1.362 . S
C158 C147 1.492 . S
C158 C159 1.377 . S
C158 C163 1.397 . S
C159 H122 0.931 1_545 S
C159 C158 1.377 . S
C159 C160 1.376 . S
C160 H123 0.930 1_545 S
C160 C159 1.376 . S
C160 C161 1.376 . S
C161 C160 1.376 . S
C161 C162 1.378 . S
C161 C188 1.486 . S
C162 H124 0.930 . S
C162 C161 1.378 . S
C162 C163 1.376 . S
C163 H125 0.929 . S
C163 C158 1.397 . S
C163 C162 1.376 . S
C164 C148 1.509 . S
C164 C165 1.391 . S
C164 C169 1.386 . S
C165 H126 0.930 1_545 S
C165 C164 1.391 . S
C165 C166 1.375 . S
C166 H127 0.931 1_545 S
C166 C165 1.375 . S
C166 C167 1.375 . S
C167 C166 1.375 . S
C167 C168 1.361 . S
C168 H128 0.930 . S
C168 C167 1.361 . S
C168 C169 1.399 . S
C169 H129 0.929 . S
C169 C164 1.386 . S
C169 C168 1.399 . S
C170 C149 1.485 . S
C170 C171 1.394 . S
C170 C175 1.360 . S
C171 H130 0.931 1_545 S
C171 C170 1.394 . S
C171 C172 1.372 . S
C172 H131 0.930 1_545 S
C172 C171 1.372 . S
C172 C173 1.397 . S
C173 C172 1.397 . S
C173 C174 1.390 . S
C173 C189 1.476 . S
C174 H132 0.930 . S
C174 C173 1.390 . S
C174 C175 1.366 . S
C175 H133 0.932 . S
C175 C170 1.360 . S
C175 C174 1.366 . S
C176 C150 1.490 . S
C176 C177 1.380 1_545 S
C176 C181 1.386 . S
C177 H134 0.930 . S
C177 C176 1.380 1_565 S
C177 C178 1.381 . S
C178 H135 0.929 . S
C178 C177 1.381 . S
C178 C179 1.371 1_565 S
C179 C178 1.371 1_545 S
C179 C180 1.380 . S
C180 H136 0.931 . S
C180 C179 1.380 . S
C180 C181 1.387 . S
C181 H137 0.930 . S
C181 C176 1.386 . S
C181 C180 1.387 . S
C182 C151 1.519 . S
C182 C183 1.377 . S
C182 C187 1.361 . S
C183 H138 0.929 1_545 S
C183 C182 1.377 . S
C183 C184 1.386 . S
C184 H139 0.931 1_545 S
C184 C183 1.386 . S
C184 C185 1.363 . S
C185 C184 1.363 . S
C185 C186 1.385 . S
C186 H140 0.930 . S
C186 C185 1.385 . S
C186 C187 1.396 . S
C187 H141 0.929 . S
C187 C182 1.361 . S
C187 C186 1.396 . S
C188 O142 1.300 . S
C188 O143 1.209 . S
C188 C161 1.486 . S
C189 O144 1.199 . S
C189 O145 1.297 . S
C189 C173 1.476 . S
H190 O216 0.856 . S
H191 O219 0.854 . S
H192 C227 0.930 . S
H193 C228 0.930 . S
H194 C230 0.930 . S
H195 C231 0.930 . S
H196 C233 0.931 . S
H197 C234 0.930 . S
H198 C236 0.930 . S
H199 C237 0.929 . S
H200 C239 0.930 . S
H201 C240 0.931 . S
H202 C242 0.930 . S
H203 C243 0.929 . S
H204 C245 0.931 . S
H205 C246 0.930 . S
H206 C248 0.930 . S
H207 C249 0.932 . S
H208 C251 0.930 . S
H209 C252 0.929 . S
H210 C254 0.931 . S
H211 C255 0.930 . S
H212 C257 0.929 . S
H213 C258 0.931 . S
H214 C260 0.930 . S
H215 C261 0.929 . S
O216 H190 0.856 . S
O216 C262 1.300 . S
O217 C262 1.209 . S
O218 C263 1.199 . S
O219 H191 0.854 . S
O219 C263 1.297 . S
C220 C221 1.404 . S
C220 C225 1.397 . S
C220 C226 1.492 . S
C221 C220 1.404 . S
C221 C222 1.396 . S
C221 C232 1.492 . S
C222 C221 1.396 . S
C222 C223 1.397 . S
C222 C238 1.509 . S
C223 C222 1.397 . S
C223 C224 1.412 . S
C223 C244 1.485 . S
C224 C223 1.412 . S
C224 C225 1.388 . S
C224 C250 1.490 . S
C225 C220 1.397 . S
C225 C224 1.388 . S
C225 C256 1.519 . S
C226 C220 1.492 . S
C226 C227 1.363 . S
C226 C231 1.390 . S
C227 H192 0.930 . S
C227 C226 1.363 . S
C227 C228 1.372 . S
C228 H193 0.930 . S
C228 C227 1.372 . S
C228 C229 1.383 . S
C229 C228 1.383 . S
C229 C230 1.395 . S
C230 H194 0.930 . S
C230 C229 1.395 . S
C230 C231 1.362 . S
C231 H195 0.930 . S
C231 C226 1.390 . S
C231 C230 1.362 . S
C232 C221 1.492 . S
C232 C233 1.377 . S
C232 C237 1.397 . S
C233 H196 0.931 . S
C233 C232 1.377 . S
C233 C234 1.376 . S
C234 H197 0.930 . S
C234 C233 1.376 . S
C234 C235 1.376 . S
C235 C234 1.376 . S
C235 C236 1.378 . S
C235 C262 1.486 . S
C236 H198 0.930 . S
C236 C235 1.378 . S
C236 C237 1.376 . S
C237 H199 0.929 . S
C237 C232 1.397 . S
C237 C236 1.376 . S
C238 C222 1.509 . S
C238 C239 1.391 . S
C238 C243 1.386 . S
C239 H200 0.930 . S
C239 C238 1.391 . S
C239 C240 1.375 . S
C240 H201 0.931 . S
C240 C239 1.375 . S
C240 C241 1.375 . S
C241 C240 1.375 . S
C241 C242 1.361 . S
C242 H202 0.930 . S
C242 C241 1.361 . S
C242 C243 1.399 . S
C243 H203 0.929 . S
C243 C238 1.386 . S
C243 C242 1.399 . S
C244 C223 1.485 . S
C244 C245 1.394 . S
C244 C249 1.360 . S
C245 H204 0.931 . S
C245 C244 1.394 . S
C245 C246 1.372 . S
C246 H205 0.930 . S
C246 C245 1.372 . S
C246 C247 1.397 . S
C247 C246 1.397 . S
C247 C248 1.390 . S
C247 C263 1.476 . S
C248 H206 0.930 . S
C248 C247 1.390 . S
C248 C249 1.366 . S
C249 H207 0.932 . S
C249 C244 1.360 . S
C249 C248 1.366 . S
C250 C224 1.490 . S
C250 C251 1.380 . S
C250 C255 1.386 . S
C251 H208 0.930 . S
C251 C250 1.380 . S
C251 C252 1.381 . S
C252 H209 0.929 . S
C252 C251 1.381 . S
C252 C253 1.371 . S
C253 C252 1.371 . S
C253 C254 1.380 . S
C254 H210 0.931 . S
C254 C253 1.380 . S
C254 C255 1.387 . S
C255 H211 0.930 . S
C255 C250 1.386 . S
C255 C254 1.387 . S
C256 C225 1.519 . S
C256 C257 1.377 . S
C256 C261 1.361 . S
C257 H212 0.929 . S
C257 C256 1.377 . S
C257 C258 1.386 . S
C258 H213 0.931 . S
C258 C257 1.386 . S
C258 C259 1.363 . S
C259 C258 1.363 . S
C259 C260 1.385 . S
C260 H214 0.930 . S
C260 C259 1.385 . S
C260 C261 1.396 . S
C261 H215 0.929 . S
C261 C256 1.361 . S
C261 C260 1.396 . S
C262 O216 1.300 . S
C262 O217 1.209 . S
C262 C235 1.486 . S
C263 O218 1.199 . S
C263 O219 1.297 . S
C263 C247 1.476 . S
C264 C265 1.391 . S
C264 C266 1.394 . S
C264 H280 0.931 1_455 S
C265 C264 1.391 . S
C265 C269 1.376 . S
C266 C264 1.394 . S
C266 C267 1.369 . S
C266 C270 1.531 1_455 S
C267 C266 1.369 . S
C267 C268 1.410 . S
C267 C275 1.503 . S
C268 C267 1.410 . S
C268 C269 1.392 . S
C268 C271 1.511 . S
C269 C265 1.376 . S
C269 C268 1.392 . S
C269 H281 0.929 . S
C270 C266 1.531 1_655 S
C270 H282 0.960 . S
C270 H283 0.962 . S
C270 H284 0.960 . S
C271 C268 1.511 . S
C271 H285 0.961 . S
C271 H286 0.961 . S
C271 H287 0.961 . S
C272 C273 1.370 . S
C272 C274 1.363 . S
C272 H288 0.931 . S
C273 C272 1.370 . S
C273 C277 1.408 . S
C274 C272 1.363 . S
C274 C275 1.370 . S
C274 C278 1.524 . S
C275 C267 1.503 . S
C275 C274 1.370 . S
C275 C276 1.403 . S
C276 C275 1.403 . S
C276 C277 1.404 . S
C276 C279 1.539 . S
C277 C273 1.408 . S
C277 C276 1.404 . S
C277 H289 0.930 . S
C278 C274 1.524 . S
C278 H290 0.956 . S
C278 H291 0.961 . S
C278 H292 0.961 . S
C279 C276 1.539 . S
C279 H293 0.958 . S
C279 H294 0.961 . S
C279 H295 0.960 . S
H280 C264 0.931 1_655 S
H281 C269 0.929 . S
H282 C270 0.960 . S
H283 C270 0.962 . S
H284 C270 0.960 . S
H285 C271 0.961 . S
H286 C271 0.961 . S
H287 C271 0.961 . S
H288 C272 0.931 . S
H289 C277 0.930 . S
H290 C278 0.956 . S
H291 C278 0.961 . S
H292 C278 0.961 . S
H293 C279 0.958 . S
H294 C279 0.961 . S
H295 C279 0.960 . S
C296 C297 1.392 . S
C296 C298 1.394 . S
C296 H312 0.931 . S
C297 C296 1.392 . S
C297 C301 1.375 1_565 S
C298 C296 1.394 . S
C298 C299 1.368 . S
C298 C302 1.531 . S
C299 C298 1.368 . S
C299 C300 1.410 1_565 S
C299 C307 1.504 1_565 S
C300 C299 1.410 1_545 S
C300 C301 1.392 . S
C300 C303 1.511 . S
C301 C297 1.375 1_545 S
C301 C300 1.392 . S
C301 H313 0.929 . S
C302 C298 1.531 . S
C302 H314 0.960 . S
C302 H315 0.962 . S
C302 H316 0.960 . S
C303 C300 1.511 . S
C303 H317 0.961 . S
C303 H318 0.961 . S
C303 H319 0.961 . S
C304 C305 1.370 . S
C304 C306 1.363 . S
C304 H320 0.931 . S
C305 C304 1.370 . S
C305 C309 1.408 1_545 S
C306 C304 1.363 . S
C306 C307 1.370 . S
C306 C310 1.524 . S
C307 C299 1.504 1_545 S
C307 C306 1.370 . S
C307 C308 1.403 1_545 S
C308 C307 1.403 1_565 S
C308 C309 1.404 . S
C308 C311 1.539 . S
C309 C305 1.408 1_565 S
C309 C308 1.404 . S
C309 H321 0.930 . S
C310 C306 1.524 . S
C310 H322 0.956 . S
C310 H323 0.961 . S
C310 H324 0.961 . S
C311 C308 1.539 . S
C311 H325 0.958 . S
C311 H326 0.961 . S
C311 H327 0.960 . S
H312 C296 0.931 . S
H313 C301 0.929 . S
H314 C302 0.960 . S
H315 C302 0.962 . S
H316 C302 0.960 . S
H317 C303 0.961 . S
H318 C303 0.961 . S
H319 C303 0.961 . S
H320 C304 0.931 . S
H321 C309 0.930 . S
H322 C310 0.956 . S
H323 C310 0.961 . S
H324 C310 0.961 . S
H325 C311 0.958 . S
H326 C311 0.961 . S
H327 C311 0.960 . S
C328 C329 1.391 . S
C328 C330 1.394 . S
C328 H344 0.931 . S
C329 C328 1.391 . S
C329 C333 1.376 1_655 S
C330 C328 1.394 . S
C330 C331 1.369 . S
C330 C334 1.531 . S
C331 C330 1.369 . S
C331 C332 1.410 . S
C331 C339 1.503 . S
C332 C331 1.410 . S
C332 C333 1.392 1_655 S
C332 C335 1.511 1_655 S
C333 C329 1.376 1_455 S
C333 C332 1.392 1_455 S
C333 H345 0.929 . S
C334 C330 1.531 . S
C334 H346 0.960 . S
C334 H347 0.962 . S
C334 H348 0.960 . S
C335 C332 1.511 1_455 S
C335 H349 0.961 . S
C335 H350 0.961 1_455 S
C335 H351 0.961 . S
C336 C337 1.370 . S
C336 C338 1.363 . S
C336 H352 0.931 . S
C337 C336 1.370 . S
C337 C341 1.408 . S
C338 C336 1.363 . S
C338 C339 1.370 . S
C338 C342 1.524 . S
C339 C331 1.503 . S
C339 C338 1.370 . S
C339 C340 1.403 . S
C340 C339 1.403 . S
C340 C341 1.404 . S
C340 C343 1.539 . S
C341 C337 1.408 . S
C341 C340 1.404 . S
C341 H353 0.930 . S
C342 C338 1.524 . S
C342 H354 0.956 . S
C342 H355 0.961 . S
C342 H356 0.961 . S
C343 C340 1.539 . S
C343 H357 0.958 . S
C343 H358 0.961 . S
C343 H359 0.960 . S
H344 C328 0.931 . S
H345 C333 0.929 . S
H346 C334 0.960 . S
H347 C334 0.962 . S
H348 C334 0.960 . S
H349 C335 0.961 . S
H350 C335 0.961 1_655 S
H351 C335 0.961 . S
H352 C336 0.931 . S
H353 C341 0.930 . S
H354 C342 0.956 . S
H355 C342 0.961 . S
H356 C342 0.961 . S
H357 C343 0.958 . S
H358 C343 0.961 . S
H359 C343 0.960 . S
C360 C361 1.391 . S
C360 C362 1.394 . S
C360 H376 0.931 . S
C361 C360 1.391 . S
C361 C365 1.376 . S
C362 C360 1.394 . S
C362 C363 1.369 . S
C362 C366 1.531 . S
C363 C362 1.369 . S
C363 C364 1.410 . S
C363 C371 1.503 . S
C364 C363 1.410 . S
C364 C365 1.392 . S
C364 C367 1.511 . S
C365 C361 1.376 . S
C365 C364 1.392 . S
C365 H377 0.929 1_565 S
C366 C362 1.531 . S
C366 H378 0.960 . S
C366 H379 0.962 1_455 S
C366 H380 0.960 1_455 S
C367 C364 1.511 . S
C367 H381 0.961 . S
C367 H382 0.961 . S
C367 H383 0.961 . S
C368 C369 1.370 . S
C368 C370 1.363 . S
C368 H384 0.931 . S
C369 C368 1.370 . S
C369 C373 1.408 . S
C370 C368 1.363 . S
C370 C371 1.370 . S
C370 C374 1.524 . S
C371 C363 1.503 . S
C371 C370 1.370 . S
C371 C372 1.403 . S
C372 C371 1.403 . S
C372 C373 1.404 . S
C372 C375 1.539 . S
C373 C369 1.408 . S
C373 C372 1.404 . S
C373 H385 0.930 . S
C374 C370 1.524 . S
C374 H386 0.956 . S
C374 H387 0.961 . S
C374 H388 0.961 . S
C375 C372 1.539 . S
C375 H389 0.958 . S
C375 H390 0.961 . S
C375 H391 0.960 . S
H376 C360 0.931 . S
H377 C365 0.929 1_545 S
H378 C366 0.960 . S
H379 C366 0.962 1_655 S
H380 C366 0.960 1_655 S
H381 C367 0.961 . S
H382 C367 0.961 . S
H383 C367 0.961 . S
H384 C368 0.931 . S
H385 C373 0.930 . S
H386 C374 0.956 . S
H387 C374 0.961 . S
H388 C374 0.961 . S
H389 C375 0.958 . S
H390 C375 0.961 . S
H391 C375 0.960 . S
C392 C393 1.391 . S
C392 C394 1.394 . S
C392 H408 0.931 . S
C393 C392 1.391 . S
C393 C397 1.376 . S
C394 C392 1.394 . S
C394 C395 1.369 . S
C394 C398 1.531 1_545 S
C395 C394 1.369 . S
C395 C396 1.410 . S
C395 C403 1.503 . S
C396 C395 1.410 . S
C396 C397 1.392 . S
C396 C399 1.511 . S
C397 C393 1.376 . S
C397 C396 1.392 . S
C397 H409 0.929 . S
C398 C394 1.531 1_565 S
C398 H410 0.960 . S
C398 H411 0.962 1_565 S
C398 H412 0.960 . S
C399 C396 1.511 . S
C399 H413 0.961 . S
C399 H414 0.961 . S
C399 H415 0.961 . S
C400 C401 1.370 . S
C400 C402 1.363 . S
C400 H416 0.931 . S
C401 C400 1.370 . S
C401 C405 1.408 . S
C402 C400 1.363 . S
C402 C403 1.370 . S
C402 C406 1.524 . S
C403 C395 1.503 . S
C403 C402 1.370 . S
C403 C404 1.403 . S
C404 C403 1.403 . S
C404 C405 1.404 . S
C404 C407 1.539 1_545 S
C405 C401 1.408 . S
C405 C404 1.404 . S
C405 H417 0.930 1_545 S
C406 C402 1.524 . S
C406 H418 0.956 . S
C406 H419 0.961 . S
C406 H420 0.961 . S
C407 C404 1.539 1_565 S
C407 H421 0.958 . S
C407 H422 0.961 . S
C407 H423 0.960 . S
H408 C392 0.931 . S
H409 C397 0.929 . S
H410 C398 0.960 . S
H411 C398 0.962 1_545 S
H412 C398 0.960 . S
H413 C399 0.961 . S
H414 C399 0.961 . S
H415 C399 0.961 . S
H416 C400 0.931 . S
H417 C405 0.930 1_565 S
H418 C406 0.956 . S
H419 C406 0.961 . S
H420 C406 0.961 . S
H421 C407 0.958 . S
H422 C407 0.961 . S
H423 C407 0.960 . S
C424 C425 1.391 . S
C424 C426 1.394 . S
C424 H440 0.931 . S
C425 C424 1.391 . S
C425 C429 1.376 . S
C426 C424 1.394 . S
C426 C427 1.369 . S
C426 C430 1.531 . S
C427 C426 1.369 . S
C427 C428 1.410 . S
C427 C435 1.503 . S
C428 C427 1.410 . S
C428 C429 1.392 . S
C428 C431 1.511 . S
C429 C425 1.376 . S
C429 C428 1.392 . S
C429 H441 0.929 . S
C430 C426 1.531 . S
C430 H442 0.960 . S
C430 H443 0.962 . S
C430 H444 0.960 . S
C431 C428 1.511 . S
C431 H445 0.961 . S
C431 H446 0.961 . S
C431 H447 0.961 . S
C432 C433 1.370 . S
C432 C434 1.363 . S
C432 H448 0.931 . S
C433 C432 1.370 . S
C433 C437 1.408 . S
C434 C432 1.363 . S
C434 C435 1.370 . S
C434 C438 1.524 . S
C435 C427 1.503 . S
C435 C434 1.370 . S
C435 C436 1.403 . S
C436 C435 1.403 . S
C436 C437 1.404 . S
C436 C439 1.539 . S
C437 C433 1.408 . S
C437 C436 1.404 . S
C437 H449 0.930 . S
C438 C434 1.524 . S
C438 H450 0.956 . S
C438 H451 0.961 . S
C438 H452 0.961 . S
C439 C436 1.539 . S
C439 H453 0.958 . S
C439 H454 0.961 . S
C439 H455 0.960 . S
H440 C424 0.931 . S
H441 C429 0.929 . S
H442 C430 0.960 . S
H443 C430 0.962 . S
H444 C430 0.960 . S
H445 C431 0.961 . S
H446 C431 0.961 . S
H447 C431 0.961 . S
H448 C432 0.931 . S
H449 C437 0.930 . S
H450 C438 0.956 . S
H451 C438 0.961 . S
H452 C438 0.961 . S
H453 C439 0.958 . S
H454 C439 0.961 . S
H455 C439 0.960 . S
C456 C457 1.391 . S
C456 C458 1.394 . S
C456 H472 0.931 1_655 S
C457 C456 1.391 . S
C457 C461 1.376 . S
C458 C456 1.394 . S
C458 C459 1.369 . S
C458 C462 1.531 . S
C459 C458 1.369 . S
C459 C460 1.410 . S
C459 C467 1.503 . S
C460 C459 1.410 . S
C460 C461 1.392 . S
C460 C463 1.511 1_545 S
C461 C457 1.376 . S
C461 C460 1.392 . S
C461 H473 0.929 . S
C462 C458 1.531 . S
C462 H474 0.960 . S
C462 H475 0.962 . S
C462 H476 0.960 . S
C463 C460 1.511 1_565 S
C463 H477 0.961 . S
C463 H478 0.961 1_565 S
C463 H479 0.961 . S
C464 C465 1.370 . S
C464 C466 1.363 . S
C464 H480 0.931 . S
C465 C464 1.370 . S
C465 C469 1.408 . S
C466 C464 1.363 . S
C466 C467 1.370 . S
C466 C470 1.524 . S
C467 C459 1.503 . S
C467 C466 1.370 . S
C467 C468 1.403 . S
C468 C467 1.403 . S
C468 C469 1.404 . S
C468 C471 1.539 1_545 S
C469 C465 1.408 . S
C469 C468 1.404 . S
C469 H481 0.930 1_545 S
C470 C466 1.524 . S
C470 H482 0.956 . S
C470 H483 0.961 . S
C470 H484 0.961 . S
C471 C468 1.539 1_565 S
C471 H485 0.958 . S
C471 H486 0.961 . S
C471 H487 0.960 . S
H472 C456 0.931 1_455 S
H473 C461 0.929 . S
H474 C462 0.960 . S
H475 C462 0.962 . S
H476 C462 0.960 . S
H477 C463 0.961 . S
H478 C463 0.961 1_545 S
H479 C463 0.961 . S
H480 C464 0.931 . S
H481 C469 0.930 1_565 S
H482 C470 0.956 . S
H483 C470 0.961 . S
H484 C470 0.961 . S
H485 C471 0.958 . S
H486 C471 0.961 . S
H487 C471 0.960 . S
C488 C489 1.391 1_455 S
C488 C490 1.394 1_455 S
C488 H504 0.931 . S
C489 C488 1.391 1_655 S
C489 C493 1.376 . S
C490 C488 1.394 1_655 S
C490 C491 1.369 . S
C490 C494 1.531 1_655 S
C491 C490 1.369 . S
C491 C492 1.410 . S
C491 C499 1.503 . S
C492 C491 1.410 . S
C492 C493 1.392 . S
C492 C495 1.511 . S
C493 C489 1.376 . S
C493 C492 1.392 . S
C493 H505 0.923 1_556 S
C494 C490 1.531 1_455 S
C494 H506 0.960 . S
C494 H507 0.962 . S
C494 H508 0.960 . S
C495 C492 1.511 . S
C495 H509 0.961 . S
C495 H510 0.961 . S
C495 H511 0.961 . S
C496 C497 1.370 . S
C496 C498 1.363 . S
C496 H512 0.931 . S
C497 C496 1.370 . S
C497 C501 1.408 . S
C498 C496 1.363 . S
C498 C499 1.370 . S
C498 C502 1.524 . S
C499 C491 1.503 . S
C499 C498 1.370 . S
C499 C500 1.403 . S
C500 C499 1.403 . S
C500 C501 1.404 . S
C500 C503 1.539 . S
C501 C497 1.408 . S
C501 C500 1.404 . S
C501 H513 0.930 . S
C502 C498 1.524 . S
C502 H514 0.956 . S
C502 H515 0.961 . S
C502 H516 0.961 . S
C503 C500 1.539 . S
C503 H517 0.958 . S
C503 H518 0.961 . S
C503 H519 0.960 . S
H504 C488 0.931 . S
H505 C493 0.923 1_554 S
H506 C494 0.960 . S
H507 C494 0.962 . S
H508 C494 0.960 . S
H509 C495 0.961 . S
H510 C495 0.961 . S
H511 C495 0.961 . S
H512 C496 0.931 . S
H513 C501 0.930 . S
H514 C502 0.956 . S
H515 C502 0.961 . S
H516 C502 0.961 . S
H517 C503 0.958 . S
H518 C503 0.961 . S
H519 C503 0.960 . S
C520 C521 1.391 1_655 S
C520 C522 1.394 . S
C520 H536 0.931 . S
C521 C520 1.391 1_455 S
C521 C525 1.376 . S
C522 C520 1.394 . S
C522 C523 1.369 1_655 S
C522 C526 1.531 . S
C523 C522 1.369 1_455 S
C523 C524 1.410 . S
C523 C531 1.503 . S
C524 C523 1.410 . S
C524 C525 1.392 . S
C524 C527 1.511 . S
C525 C521 1.376 . S
C525 C524 1.392 . S
C525 H537 0.929 . S
C526 C522 1.531 . S
C526 H538 0.960 . S
C526 H539 0.962 . S
C526 H540 0.960 . S
C527 C524 1.511 . S
C527 H541 0.961 . S
C527 H542 0.961 . S
C527 H543 0.961 . S
C528 C529 1.370 1_655 S
C528 C530 1.363 . S
C528 H544 0.931 . S
C529 C528 1.370 1_455 S
C529 C533 1.408 . S
C530 C528 1.363 . S
C530 C531 1.370 1_655 S
C530 C534 1.524 . S
C531 C523 1.503 . S
C531 C530 1.370 1_455 S
C531 C532 1.403 . S
C532 C531 1.403 . S
C532 C533 1.404 . S
C532 C535 1.539 . S
C533 C529 1.408 . S
C533 C532 1.404 . S
C533 H545 0.930 . S
C534 C530 1.524 . S
C534 H546 0.956 . S
C534 H547 0.961 . S
C534 H548 0.961 . S
C535 C532 1.539 . S
C535 H549 0.958 . S
C535 H550 0.961 . S
C535 H551 0.960 . S
H536 C520 0.931 . S
H537 C525 0.929 . S
H538 C526 0.960 . S
H539 C526 0.962 . S
H540 C526 0.960 . S
H541 C527 0.961 . S
H542 C527 0.961 . S
H543 C527 0.961 . S
H544 C528 0.931 . S
H545 C533 0.930 . S
H546 C534 0.956 . S
H547 C534 0.961 . S
H548 C534 0.961 . S
H549 C535 0.958 . S
H550 C535 0.961 . S
H551 C535 0.960 . S
C552 C553 1.391 . S
C552 C554 1.394 . S
C552 H568 0.931 . S
C553 C552 1.391 . S
C553 C557 1.376 1_545 S
C554 C552 1.394 . S
C554 C555 1.369 . S
C554 C558 1.531 . S
C555 C554 1.369 . S
C555 C556 1.410 1_545 S
C555 C563 1.503 . S
C556 C555 1.410 1_565 S
C556 C557 1.392 . S
C556 C559 1.511 . S
C557 C553 1.376 1_565 S
C557 C556 1.392 . S
C557 H569 0.929 . S
C558 C554 1.531 . S
C558 H570 0.960 . S
C558 H571 0.962 . S
C558 H572 0.960 . S
C559 C556 1.511 . S
C559 H573 0.961 . S
C559 H574 0.961 . S
C559 H575 0.961 . S
C560 C561 1.370 . S
C560 C562 1.363 . S
C560 H576 0.931 1_545 S
C561 C560 1.370 . S
C561 C565 1.408 . S
C562 C560 1.363 . S
C562 C563 1.370 . S
C562 C566 1.524 1_545 S
C563 C555 1.503 . S
C563 C562 1.370 . S
C563 C564 1.403 . S
C564 C563 1.403 . S
C564 C565 1.404 . S
C564 C567 1.539 . S
C565 C561 1.408 . S
C565 C564 1.404 . S
C565 H577 0.930 . S
C566 C562 1.524 1_565 S
C566 H578 0.956 1_565 S
C566 H579 0.961 . S
C566 H580 0.961 . S
C567 C564 1.539 . S
C567 H581 0.958 . S
C567 H582 0.961 . S
C567 H583 0.960 . S
H568 C552 0.931 . S
H569 C557 0.929 . S
H570 C558 0.960 . S
H571 C558 0.962 . S
H572 C558 0.960 . S
H573 C559 0.961 . S
H574 C559 0.961 . S
H575 C559 0.961 . S
H576 C560 0.931 1_565 S
H577 C565 0.930 . S
H578 C566 0.956 1_545 S
H579 C566 0.961 . S
H580 C566 0.961 . S
H581 C567 0.958 . S
H582 C567 0.961 . S
H583 C567 0.960 . S
C584 C585 1.391 1_554 S
C584 C586 1.394 1_554 S
C584 H600 0.931 . S
C585 C584 1.391 1_556 S
C585 C589 1.376 . S
C586 C584 1.394 1_556 S
C586 C587 1.369 . S
C586 C590 1.531 . S
C587 C586 1.369 . S
C587 C588 1.410 . S
C587 C595 1.503 . S
C588 C587 1.410 . S
C588 C589 1.392 . S
C588 C591 1.511 . S
C589 C585 1.376 . S
C589 C588 1.392 . S
C589 H601 0.929 . S
C590 C586 1.531 . S
C590 H602 0.960 . S
C590 H603 0.962 . S
C590 H604 0.960 1_556 S
C591 C588 1.511 . S
C591 H605 0.961 . S
C591 H606 0.961 . S
C591 H607 0.961 . S
C592 C593 1.370 . S
C592 C594 1.363 . S
C592 H608 0.931 . S
C593 C592 1.370 . S
C593 C597 1.408 . S
C594 C592 1.363 . S
C594 C595 1.370 . S
C594 C598 1.524 . S
C595 C587 1.503 . S
C595 C594 1.370 . S
C595 C596 1.403 . S
C596 C595 1.403 . S
C596 C597 1.404 . S
C596 C599 1.539 . S
C597 C593 1.408 . S
C597 C596 1.404 . S
C597 H609 0.930 . S
C598 C594 1.524 . S
C598 H610 0.956 . S
C598 H611 0.961 . S
C598 H612 0.961 . S
C599 C596 1.539 . S
C599 H613 0.958 . S
C599 H614 0.961 . S
C599 H615 0.960 . S
H600 C584 0.931 . S
H601 C589 0.929 . S
H602 C590 0.960 . S
H603 C590 0.962 . S
H604 C590 0.960 1_554 S
H605 C591 0.961 . S
H606 C591 0.961 . S
H607 C591 0.961 . S
H608 C592 0.931 . S
H609 C597 0.930 . S
H610 C598 0.956 . S
H611 C598 0.961 . S
H612 C598 0.961 . S
H613 C599 0.958 . S
H614 C599 0.961 . S
H615 C599 0.960 . S
C616 C617 1.391 . S
C616 C618 1.394 . S
C616 H632 0.931 . S
C617 C616 1.391 . S
C617 C621 1.376 . S
C618 C616 1.394 . S
C618 C619 1.369 . S
C618 C622 1.531 . S
C619 C618 1.369 . S
C619 C620 1.410 . S
C619 C627 1.503 . S
C620 C619 1.410 . S
C620 C621 1.392 . S
C620 C623 1.511 . S
C621 C617 1.376 . S
C621 C620 1.392 . S
C621 H633 0.929 . S
C622 C618 1.531 . S
C622 H634 0.960 . S
C622 H635 0.962 . S
C622 H636 0.960 . S
C623 C620 1.511 . S
C623 H637 0.961 . S
C623 H638 0.961 . S
C623 H639 0.961 . S
C624 C625 1.370 . S
C624 C626 1.363 . S
C624 H640 0.931 1_455 S
C625 C624 1.370 . S
C625 C629 1.408 . S
C626 C624 1.363 . S
C626 C627 1.370 . S
C626 C630 1.524 1_455 S
C627 C619 1.503 . S
C627 C626 1.370 . S
C627 C628 1.403 . S
C628 C627 1.403 . S
C628 C629 1.404 . S
C628 C631 1.539 . S
C629 C625 1.408 . S
C629 C628 1.404 . S
C629 H641 0.930 . S
C630 C626 1.524 1_655 S
C630 H642 0.956 . S
C630 H643 0.961 . S
C630 H644 0.961 . S
C631 C628 1.539 . S
C631 H645 0.958 . S
C631 H646 0.961 . S
C631 H647 0.960 . S
H632 C616 0.931 . S
H633 C621 0.929 . S
H634 C622 0.960 . S
H635 C622 0.962 . S
H636 C622 0.960 . S
H637 C623 0.961 . S
H638 C623 0.961 . S
H639 C623 0.961 . S
H640 C624 0.931 1_655 S
H641 C629 0.930 . S
H642 C630 0.956 . S
H643 C630 0.961 . S
H644 C630 0.961 . S
H645 C631 0.958 . S
H646 C631 0.961 . S
H647 C631 0.960 . S
C273 C81 1.261 . S
C265 C11 1.241 . S
C297 C25 1.283 1_565 S
C305 C155 1.296 . S
C329 C41 1.961 1_655 S
C337 C259 2.067 . S
C361 C7 0.706 . S
C369 C93 0.719 . S
C401 C167 0.751 . S
C393 C21 0.755 . S
C425 C36 1.439 . S
C433 C253 1.379 . S
C465 C185 2.037 . S
C457 C39 2.004 1_655 S
C489 C8 1.315 1_656 S
C497 C229 1.339 . S
C529 C105 1.467 . S
C521 C22 1.526 . S
C561 C179 1.396 . S
C553 C35 1.455 . S
C593 C241 0.815 . S
C585 C13 0.763 1_556 S
C617 C27 2.014 . S
C625 C111 2.131 . S
