# Generated by pormake.
# Topology rtl, (3,6)-cn, num edge types: 1
# Building blocks:
#     Node 0, Type 0, BuildingBlock: BELTOD_clean_linker_0, # of connection points: 3
#     Node 1, Type 0, BuildingBlock: BELTOD_clean_linker_0, # of connection points: 3
#     Node 2, Type 0, BuildingBlock: BELTOD_clean_linker_0, # of connection points: 3
#     Node 3, Type 0, BuildingBlock: BELTOD_clean_linker_0, # of connection points: 3
#     Node 4, Type 1, BuildingBlock: FUNLAD_clean_sbu_0, # of connection points: 6
#     Node 5, Type 1, BuildingBlock: FUNLAD_clean_sbu_0, # of connection points: 6
#     Edge 6, Type (0, 1), BuildingBlock: CIFDUS_clean_linker_0, # of connection points: 2
#     Edge 7, Type (0, 1), BuildingBlock: CIFDUS_clean_linker_0, # of connection points: 2
#     Edge 8, Type (0, 1), BuildingBlock: CIFDUS_clean_linker_0, # of connection points: 2
#     Edge 9, Type (0, 1), BuildingBlock: CIFDUS_clean_linker_0, # of connection points: 2
#     Edge 10, Type (0, 1), BuildingBlock: CIFDUS_clean_linker_0, # of connection points: 2
#     Edge 11, Type (0, 1), BuildingBlock: CIFDUS_clean_linker_0, # of connection points: 2
#     Edge 12, Type (0, 1), BuildingBlock: CIFDUS_clean_linker_0, # of connection points: 2
#     Edge 13, Type (0, 1), BuildingBlock: CIFDUS_clean_linker_0, # of connection points: 2
#     Edge 14, Type (0, 1), BuildingBlock: CIFDUS_clean_linker_0, # of connection points: 2
#     Edge 15, Type (0, 1), BuildingBlock: CIFDUS_clean_linker_0, # of connection points: 2
#     Edge 16, Type (0, 1), BuildingBlock: CIFDUS_clean_linker_0, # of connection points: 2
#     Edge 17, Type (0, 1), BuildingBlock: CIFDUS_clean_linker_0, # of connection points: 2
# Relax obj value: 0.022
# Max RMSD: 0.095
# Mean RMSD: 0.079
data_MOF--net-rtl--node1-FUNLAD_clean_sbu_0--node2-BELTOD_clean_linker_0--edge1-CIFDUS_clean_linker_0
_symmetry_space_group_name_H-M    P1
_symmetry_Int_Tables_number       1
_symmetry_cell_setting            triclinic
loop_
_symmetry_equiv_pos_as_xyz
'x, y, z'
_cell_length_a     41.523852
_cell_length_b     33.878543
_cell_length_c     23.124371
_cell_angle_alpha  89.054441
_cell_angle_beta   91.004949
_cell_angle_gamma 90.428432
loop_
_atom_site_label
_atom_site_type_symbol
_atom_site_fract_x
_atom_site_fract_y
_atom_site_fract_z
_atom_type_partial_charge
P0 P 0.15038 0.83396 0.98731 0.0
H1 H 0.16445 0.886 0.08301 0.0
H2 H 0.1347 0.90238 0.16813 0.0
H3 H 0.06716 0.80756 0.13277 0.0
H4 H 0.09688 0.7923 0.04512 0.0
H5 H 0.21579 0.83023 0.9455 0.0
H6 H 0.25491 0.77769 0.94117 0.0
H7 H 0.1864 0.69607 0.01671 0.0
H8 H 0.14713 0.74982 0.02226 0.0
H9 H 0.0842 0.86278 0.97809 0.0
H10 H 0.15147 0.80296 0.87027 0.0
O11 O 0.17048 0.8759 0.97397 0.0
H12 H 0.04897 0.87461 0.89453 0.0
H13 H 0.11638 0.8156 0.78598 0.0
C14 C 0.13251 0.83847 0.05717 0.0
C15 C 0.14355 0.86825 0.09384 0.0
C16 C 0.12654 0.87738 0.14312 0.0
C17 C 0.09828 0.85646 0.15743 0.0
C18 C 0.0885 0.82469 0.12256 0.0
C19 C 0.10561 0.81566 0.07283 0.0
C20 C 0.17868 0.79408 0.98497 0.0
C21 C 0.20907 0.80117 0.96148 0.0
C22 C 0.2314 0.77086 0.95841 0.0
C23 C 0.22376 0.73252 0.97819 0.0
C24 C 0.19311 0.72535 0.00153 0.0
C25 C 0.17065 0.75595 0.00463 0.0
C26 C 0.1202 0.8311 0.93084 0.0
C27 C 0.09076 0.85051 0.93706 0.0
C28 C 0.07057 0.85739 0.88912 0.0
C29 C 0.07996 0.84597 0.8339 0.0
C30 C 0.10856 0.82454 0.82823 0.0
C31 C 0.12855 0.81719 0.8764 0.0
P32 P 0.65734 0.69015 0.52282 0.0
H33 H 0.66871 0.64414 0.41985 0.0
H34 H 0.63488 0.62754 0.33708 0.0
H35 H 0.56124 0.70607 0.39662 0.0
H36 H 0.59526 0.72152 0.48126 0.0
H37 H 0.70654 0.72061 0.60106 0.0
H38 H 0.74061 0.77972 0.59885 0.0
H39 H 0.69316 0.81842 0.44066 0.0
H40 H 0.65786 0.76007 0.44436 0.0
H41 H 0.60493 0.63464 0.54204 0.0
H42 H 0.65318 0.72647 0.63847 0.0
O43 O 0.68489 0.65457 0.52724 0.0
H44 H 0.57607 0.61422 0.62868 0.0
H45 H 0.62529 0.70492 0.72562 0.0
C46 C 0.63428 0.68363 0.45699 0.0
C47 C 0.64546 0.65817 0.41491 0.0
C48 C 0.62608 0.64896 0.36713 0.0
C49 C 0.5952 0.66543 0.36002 0.0
C50 C 0.58468 0.69246 0.40112 0.0
C51 C 0.60414 0.70153 0.44924 0.0
C52 C 0.67913 0.7363 0.52371 0.0
C53 C 0.70263 0.74243 0.56696 0.0
C54 C 0.72216 0.7761 0.5656 0.0
C55 C 0.71921 0.80361 0.51987 0.0
C56 C 0.69561 0.79766 0.47657 0.0
C57 C 0.67546 0.76436 0.47877 0.0
C58 C 0.63124 0.6822 0.5834 0.0
C59 C 0.60876 0.65111 0.58133 0.0
C60 C 0.59227 0.63939 0.63086 0.0
C61 C 0.59859 0.65797 0.68366 0.0
C62 C 0.62014 0.69009 0.68531 0.0
C63 C 0.63619 0.7023 0.6354 0.0
P64 P 0.90443 0.30559 0.97656 0.0
H65 H 0.96495 0.27249 0.94214 0.0
H66 H 0.98081 0.23291 0.86023 0.0
H67 H 0.88288 0.23539 0.79384 0.0
H68 H 0.86709 0.27459 0.87652 0.0
H69 H 0.87424 0.38088 0.94694 0.0
H70 H 0.81848 0.40268 0.94443 0.0
H71 H 0.78734 0.28526 0.99526 0.0
H72 H 0.84361 0.264 -0.00063 0.0
H73 H 0.92747 0.32858 0.09126 0.0
H74 H 0.89908 0.22133 0.00574 0.0
O75 O 0.92815 0.34559 0.9763 0.0
H76 H 0.94235 0.29042 0.17828 0.0
H77 H 0.91437 0.18288 0.09219 0.0
C78 C 0.91496 0.27661 0.91529 0.0
C79 C 0.94691 0.26456 0.90988 0.0
C80 C 0.95595 0.24209 0.8629 0.0
C81 C 0.93314 0.23122 0.82029 0.0
C82 C 0.90096 0.24304 0.82617 0.0
C83 C 0.89194 0.26564 0.87331 0.0
C84 C 0.86306 0.321 0.97417 0.0
C85 C 0.85546 0.35984 0.95783 0.0
C86 C 0.82347 0.37218 0.95587 0.0
C87 C 0.79834 0.34572 0.96959 0.0
C88 C 0.8061 0.30655 0.98527 0.0
C89 C 0.83822 0.2943 0.98747 0.0
C90 C 0.91281 0.27766 0.04181 0.0
C91 C 0.92443 0.2968 0.09126 0.0
C92 C 0.93303 0.27495 0.14087 0.0
C93 C 0.92988 0.23358 0.14194 0.0
C94 C 0.91695 0.2147 0.09291 0.0
C95 C 0.90841 0.23661 0.04331 0.0
P96 P 0.41329 0.21292 0.5339 0.0
H97 H 0.43461 0.18894 0.65006 0.0
H98 H 0.44601 0.22584 0.73833 0.0
H99 H 0.42085 0.33428 0.64813 0.0
H100 H 0.40928 0.29745 0.56078 0.0
H101 H 0.38129 0.13873 0.50465 0.0
H102 H 0.32497 0.11725 0.50637 0.0
H103 H 0.29698 0.23321 0.5606 0.0
H104 H 0.35352 0.25445 0.56 0.0
H105 H 0.46838 0.21199 0.45705 0.0
H106 H 0.38044 0.2777 0.47132 0.0
O107 O 0.43604 0.17247 0.53594 0.0
H108 H 0.48401 0.25344 0.37519 0.0
H109 H 0.39697 0.32143 0.39297 0.0
C110 C 0.42179 0.24047 0.59837 0.0
C111 C 0.4317 0.22068 0.64925 0.0
C112 C 0.43819 0.24177 0.69965 0.0
C113 C 0.4344 0.28297 0.70009 0.0
C114 C 0.42372 0.30252 0.64932 0.0
C115 C 0.41741 0.28144 0.59899 0.0
C116 C 0.37162 0.19806 0.53273 0.0
C117 C 0.36311 0.15956 0.51705 0.0
C118 C 0.33096 0.14728 0.51811 0.0
C119 C 0.30674 0.17355 0.53394 0.0
C120 C 0.31521 0.21247 0.54806 0.0
C121 C 0.34749 0.22456 0.54781 0.0
C122 C 0.42318 0.2416 0.47028 0.0
C123 C 0.45238 0.23536 0.44256 0.0
C124 C 0.46151 0.25957 0.39608 0.0
C125 C 0.44201 0.29132 0.37735 0.0
C126 C 0.41249 0.29703 0.40505 0.0
C127 C 0.40304 0.27213 0.4505 0.0
C128 C 0.02186 0.98275 0.40546 0.0
N129 N 0.06067 0.0797 0.4908 0.0
C130 C 0.0878 0.05745 0.49107 0.0
C131 C 0.11806 0.07516 0.49497 0.0
C132 C 0.12075 0.11631 0.49974 0.0
C133 C 0.09237 0.13877 0.49895 0.0
C134 C 0.06239 0.11974 0.49432 0.0
Zn135 Zn 0.01771 0.04971 0.48705 0.0
C136 C 0.97204 0.08114 0.39938 0.0
N137 N 0.93063 0.9818 0.48142 0.0
C138 C 0.93189 0.942 0.47483 0.0
C139 C 0.90192 1.00075 0.48467 0.0
C140 C 0.87298 0.97949 0.48144 0.0
C141 C 0.87372 0.93855 0.4736 0.0
C142 C 0.90359 0.91977 0.47025 0.0
Zn143 Zn 0.97287 0.01319 0.48493 0.0
O144 O 0.03686 0.01233 0.42558 0.0
C145 C 0.0192 0.98147 0.57129 0.0
O146 O 0.99311 0.97586 0.42089 0.0
H147 H 0.90144 0.03244 0.48951 0.0
H148 H 0.08608 0.02568 0.48861 0.0
H149 H 0.9549 0.9274 0.47299 0.0
O150 O 0.03481 0.01124 0.55256 0.0
O151 O 0.99104 0.97459 0.55134 0.0
H152 H 0.04051 0.13688 0.4942 0.0
O153 O 0.95388 0.05095 0.54949 0.0
O154 O 0.9983 0.08647 0.54942 0.0
O155 O 0.95551 0.05208 0.41842 0.0
O156 O 1.0 0.08758 0.4207 0.0
C157 C 0.97027 0.07997 0.56873 0.0
H158 H 0.13915 0.0566 0.49396 0.0
H159 H 0.09327 0.17056 0.50289 0.0
H160 H 0.8503 0.99488 0.48411 0.0
H161 H 0.905 0.88812 0.46494 0.0
C162 C 0.4648 0.43897 0.94953 0.0
N163 N 0.55732 0.44991 0.02305 0.0
C164 C 0.55923 0.41002 0.03015 0.0
C165 C 0.58903 0.39118 0.02794 0.0
C166 C 0.61699 0.41361 0.01767 0.0
C167 C 0.61428 0.45468 0.0107 0.0
C168 C 0.58414 0.47231 0.01381 0.0
Zn169 Zn 0.51375 0.47771 0.02513 0.0
C170 C 0.50868 0.54044 0.93407 0.0
N171 N 0.42321 0.53717 0.02798 0.0
C172 C 0.39523 0.51692 0.03705 0.0
C173 C 0.42327 0.57692 0.01865 0.0
C174 C 0.39443 0.59773 0.01674 0.0
C175 C 0.36525 0.57762 0.02557 0.0
C176 C 0.36579 0.53679 0.03659 0.0
Zn177 Zn 0.46647 0.50852 0.02654 0.0
O178 O 0.4937 0.43626 0.9681 0.0
C179 C 0.4716 0.44535 0.11727 0.0
O180 O 0.4473 0.467 0.96668 0.0
H181 H 0.44574 0.59258 0.01226 0.0
H182 H 0.5376 0.39275 0.03726 0.0
H183 H 0.39569 0.4853 0.04419 0.0
O184 O 0.49962 0.44214 0.09661 0.0
O185 O 0.45243 0.47106 0.09605 0.0
H186 H 0.5822 0.50399 0.00872 0.0
O187 O 0.48695 0.54996 0.0868 0.0
O188 O 0.53331 0.51955 0.08086 0.0
O189 O 0.48112 0.54501 0.95582 0.0
O190 O 0.52722 0.51383 0.95443 0.0
C191 C 0.51669 0.54739 0.10055 0.0
H192 H 0.59014 0.35939 0.03323 0.0
H193 H 0.63532 0.47309 0.00355 0.0
H194 H 0.39493 0.62934 0.00881 0.0
H195 H 0.34366 0.52037 0.04346 0.0
H196 H 0.25375 0.20829 0.48521 0.0
H197 H 0.28416 0.10807 0.58925 0.0
H198 H 0.2288 0.08323 0.59139 0.0
H199 H 0.17246 0.08877 0.5612 0.0
H200 H 0.14199 0.18625 0.45133 0.0
H201 H 0.19645 0.21413 0.45555 0.0
C202 C 0.24808 0.18122 0.5087 0.0
C203 C 0.27288 0.15987 0.53681 0.0
C204 C 0.21626 0.16677 0.50892 0.0
C205 C 0.26544 0.12469 0.56679 0.0
C206 C 0.23383 0.11059 0.56818 0.0
C207 C 0.17769 0.11594 0.53765 0.0
C208 C 0.15315 0.13508 0.50544 0.0
C209 C 0.20917 0.1311 0.53879 0.0
C210 C 0.16029 0.17096 0.47678 0.0
C211 C 0.19152 0.18677 0.47877 0.0
H212 H 0.23853 0.67544 0.05934 0.0
H213 H 0.26406 0.71827 0.8892 0.0
H214 H 0.30923 0.67287 0.88808 0.0
H215 H 0.34393 0.62461 0.93808 0.0
H216 H 0.31817 0.57962 0.10647 0.0
H217 H 0.27026 0.62163 0.10527 0.0
C218 C 0.25358 0.67429 0.02157 0.0
C219 C 0.24825 0.70083 0.97492 0.0
C220 C 0.27957 0.64787 0.02102 0.0
C221 C 0.26809 0.69893 0.92635 0.0
C222 C 0.29387 0.67285 0.92551 0.0
C223 C 0.32763 0.62387 0.97427 0.0
C224 C 0.33459 0.59957 0.02255 0.0
C225 C 0.30029 0.64791 0.97312 0.0
C226 C 0.31318 0.59823 0.06888 0.0
C227 C 0.28593 0.62233 0.06826 0.0
H228 H 0.75996 0.81768 0.43241 0.0
H229 H 0.7321 0.86096 0.59821 0.0
H230 H 0.77606 0.90965 0.59597 0.0
H231 H 0.82517 0.93589 0.55032 0.0
H232 H 0.85549 0.88837 0.3885 0.0
H233 H 0.80786 0.84541 0.38526 0.0
C234 C 0.76324 0.83836 0.46739 0.0
C235 C 0.74287 0.83619 0.51515 0.0
C236 C 0.78918 0.86513 0.46668 0.0
C237 C 0.74756 0.86242 0.56096 0.0
C238 C 0.77269 0.89006 0.55974 0.0
C239 C 0.82098 0.91648 0.51406 0.0
C240 C 0.84361 0.91513 0.46971 0.0
C241 C 0.79406 0.89112 0.51339 0.0
C242 C 0.83835 0.88961 0.42321 0.0
C243 C 0.81117 0.86513 0.42134 0.0
H244 H 0.75066 0.32704 0.04544 0.0
H245 H 0.76946 0.39509 0.88997 0.0
H246 H 0.715 0.42141 0.89077 0.0
H247 H 0.66255 0.42672 0.93696 0.0
H248 H 0.64296 0.35782 0.09098 0.0
H249 H 0.69694 0.3294 0.08852 0.0
C250 C 0.74272 0.34714 0.01121 0.0
C251 C 0.76434 0.35935 0.96808 0.0
C252 C 0.71121 0.36198 0.0116 0.0
C253 C 0.75363 0.38579 0.92441 0.0
C254 C 0.7224 0.40071 0.92459 0.0
C255 C 0.67015 0.40551 0.97001 0.0
C256 C 0.64895 0.3946 0.01433 0.0
C257 C 0.70114 0.3894 0.96835 0.0
C258 C 0.65884 0.36654 0.05627 0.0
C259 C 0.68973 0.35046 0.05505 0.0
H260 H 0.11877 0.88518 0.26085 0.0
H261 H 0.0322 0.8598 0.16195 0.0
H262 H 1.00003 0.89322 0.23357 0.0
H263 H 0.99732 0.93669 0.31869 0.0
H264 H 0.08545 0.96765 0.4093 0.0
H265 H 0.11612 0.92603 0.34594 0.0
C266 C 0.09286 0.88696 0.25473 0.0
C267 C 0.07811 0.87046 0.20551 0.0
C268 C 0.07476 0.90795 0.29425 0.0
C269 C 0.04432 0.87197 0.19953 0.0
C270 C 0.02589 0.89155 0.24015 0.0
C271 C 0.02318 0.93396 0.32461 0.0
C272 C 0.03916 0.95553 0.36804 0.0
C273 C 0.04097 0.91073 0.28677 0.0
C274 C 0.07268 0.95183 0.3755 0.0
C275 C 0.09025 0.92789 0.3395 0.0
H276 H 0.53612 0.64076 0.70789 0.0
H277 H 0.63262 0.63568 0.77941 0.0
H278 H 0.61314 0.59926 0.86405 0.0
H279 H 0.56929 0.56531 0.91459 0.0
H280 H 0.47213 0.57307 0.84681 0.0
H281 H 0.49111 0.61204 0.76367 0.0
C282 C 0.55269 0.632 0.74246 0.0
C283 C 0.58569 0.6407 0.73765 0.0
C284 C 0.54127 0.61131 0.79117 0.0
C285 C 0.60706 0.62954 0.78261 0.0
C286 C 0.59599 0.60849 0.83072 0.0
C287 C 0.5523 0.57568 0.88162 0.0
C288 C 0.51951 0.56599 0.88604 0.0
C289 C 0.56327 0.59863 0.83492 0.0
C290 C 0.49754 0.58015 0.84393 0.0
C291 C 0.50838 0.60232 0.79647 0.0
H292 H 0.90028 0.1703 0.1931 0.0
H293 H 0.98528 0.24397 0.20525 0.0
H294 H 0.00534 0.20411 0.28683 0.0
H295 H 0.99966 0.14712 0.3527 0.0
H296 H 0.91495 0.07285 0.34003 0.0
H297 H 0.89408 0.11394 0.26041 0.0
C298 C 0.92325 0.17752 0.21347 0.0
C299 C 0.94123 0.21007 0.19304 0.0
C300 C 0.93479 0.15427 0.26013 0.0
C301 C 0.97074 0.21939 0.22052 0.0
C302 C 0.98236 0.19644 0.26695 0.0
C303 C 0.9766 0.13992 0.33263 0.0
C304 C 0.95901 0.10682 0.35221 0.0
C305 C 0.9647 0.16366 0.28685 0.0
C306 C 0.92907 0.09809 0.32582 0.0
C307 C 0.91709 0.12157 0.28022 0.0
H308 H 0.40034 0.34263 0.74652 0.0
H309 H 0.48714 0.27467 0.77099 0.0
H310 H 0.50309 0.31546 0.85284 0.0
H311 H 0.49414 0.37284 0.91318 0.0
H312 H 0.40783 0.44179 0.88826 0.0
H313 H 0.38994 0.39817 0.81072 0.0
C314 C 0.42274 0.33679 0.76983 0.0
C315 C 0.44263 0.30585 0.7525 0.0
C316 C 0.43191 0.36059 0.81651 0.0
C317 C 0.47129 0.29811 0.78373 0.0
C318 C 0.48053 0.32158 0.83029 0.0
C319 C 0.47131 0.37825 0.89107 0.0
C320 C 0.4525 0.41076 0.90615 0.0
C321 C 0.46127 0.35324 0.84644 0.0
C322 C 0.42283 0.41706 0.87741 0.0
C323 C 0.41262 0.39219 0.83296 0.0
H324 H 0.61162 0.64994 0.24946 0.0
H325 H 0.53015 0.65023 0.36277 0.0
H326 H 0.49689 0.61841 0.28858 0.0
H327 H 0.49298 0.58261 0.19606 0.0
H328 H 0.57673 0.57654 0.08897 0.0
H329 H 0.60708 0.61794 0.15615 0.0
C330 C 0.58658 0.64309 0.25805 0.0
C331 C 0.57363 0.65198 0.31202 0.0
C332 C 0.56803 0.62325 0.21634 0.0
C333 C 0.54082 0.64395 0.32157 0.0
C334 C 0.52182 0.62534 0.27933 0.0
C335 C 0.51768 0.59102 0.18721 0.0
C336 C 0.53274 0.57648 0.13806 0.0
C337 C 0.53544 0.61373 0.22723 0.0
C338 C 0.56482 0.58718 0.12697 0.0
C339 C 0.58217 0.61083 0.16529 0.0
H340 H 0.90192 0.16857 0.77107 0.0
H341 H 0.98704 0.2417 0.75616 0.0
H342 H 0.00553 0.20183 0.67664 0.0
H343 H 0.9984 0.14551 0.61314 0.0
H344 H 0.91336 0.07206 0.62646 0.0
H345 H 0.89376 0.11314 0.70427 0.0
C346 C 0.92432 0.17603 0.74994 0.0
C347 C 0.94319 0.20789 0.76991 0.0
C348 C 0.93485 0.15295 0.70403 0.0
C349 C 0.97232 0.21694 0.74237 0.0
C350 C 0.98285 0.19428 0.69668 0.0
C351 C 0.97551 0.13845 0.63285 0.0
C352 C 0.95747 0.1056 0.61412 0.0
C353 C 0.96447 0.16203 0.67755 0.0
C354 C 0.92778 0.09712 0.64007 0.0
C355 C 0.91657 0.12058 0.68463 0.0
H356 H 0.40483 0.33047 0.29615 0.0
H357 H 0.50379 0.31528 0.35293 0.0
H358 H 0.52154 0.36016 0.27661 0.0
H359 H 0.50915 0.40487 0.19464 0.0
H360 H 0.41003 0.42511 0.14426 0.0
H361 H 0.3922 0.37812 0.21853 0.0
C362 C 0.43027 0.33732 0.29272 0.0
C363 C 0.45281 0.31896 0.33046 0.0
C364 C 0.44035 0.36443 0.25006 0.0
C365 C 0.48576 0.32792 0.32393 0.0
C366 C 0.49601 0.35404 0.28058 0.0
C367 C 0.48365 0.39901 0.20004 0.0
C368 C 0.46095 0.41831 0.16398 0.0
C369 C 0.47353 0.3725 0.24347 0.0
C370 C 0.42797 0.41075 0.17172 0.0
C371 C 0.41777 0.38377 0.214 0.0
H372 H 0.10728 0.8864 0.74682 0.0
H373 H 0.01525 0.84517 0.80746 0.0
H374 H 0.98788 0.88173 0.72854 0.0
H375 H 0.99038 0.92945 0.64628 0.0
H376 H 0.08312 0.97348 0.59205 0.0
H377 H 0.10996 0.93168 0.66425 0.0
C378 C 0.08127 0.88466 0.74191 0.0
C379 C 0.06327 0.86281 0.78221 0.0
C380 C 0.06584 0.90671 0.69803 0.0
C381 C 0.02954 0.86168 0.77651 0.0
C382 C 0.01394 0.88268 0.73165 0.0
C383 C 0.01645 0.9296 0.65015 0.0
C384 C 0.0347 0.95472 0.61421 0.0
C385 C 0.03184 0.90598 0.6928 0.0
C386 C 0.06848 0.95477 0.61969 0.0
C387 C 0.0839 0.93076 0.6608 0.0
loop_
_geom_bond_atom_site_label_1
_geom_bond_atom_site_label_2
_geom_bond_distance
_geom_bond_site_symmetry_2
_ccdc_geom_bond_type
P0 O11 1.490 . S
P0 C14 1.812 . S
P0 C20 1.803 . S
P0 C26 1.819 1_554 S
H1 C15 0.941 . S
H2 C16 0.939 . S
H3 C18 0.940 . S
H4 C19 0.940 . S
H5 C21 0.939 . S
H6 C22 0.942 . S
H7 C24 0.940 . S
H8 C25 0.939 . S
H9 C27 0.941 . S
H10 C31 0.939 . S
O11 P0 1.490 . S
H12 C28 0.939 . S
H13 C30 0.940 . S
C14 P0 1.812 . S
C14 C15 1.389 . S
C14 C19 1.391 . S
C15 H1 0.941 . S
C15 C14 1.389 . S
C15 C16 1.397 . S
C16 H2 0.939 . S
C16 C15 1.397 . S
C16 C17 1.378 . S
C17 C16 1.378 . S
C17 C18 1.378 . S
C18 H3 0.940 . S
C18 C17 1.378 . S
C18 C19 1.396 . S
C19 H4 0.940 . S
C19 C14 1.391 . S
C19 C18 1.396 . S
C20 P0 1.803 . S
C20 C21 1.378 1_554 S
C20 C25 1.400 . S
C21 H5 0.939 . S
C21 C20 1.378 1_556 S
C21 C22 1.361 . S
C22 H6 0.942 . S
C22 C21 1.361 . S
C22 C23 1.369 1_556 S
C23 C22 1.369 1_554 S
C23 C24 1.404 . S
C24 H7 0.940 . S
C24 C23 1.404 . S
C24 C25 1.389 . S
C25 H8 0.939 . S
C25 C20 1.400 . S
C25 C24 1.389 . S
C26 P0 1.819 1_556 S
C26 C27 1.391 . S
C26 C31 1.391 . S
C27 H9 0.941 . S
C27 C26 1.391 . S
C27 C28 1.396 . S
C28 H12 0.939 . S
C28 C27 1.396 . S
C28 C29 1.397 . S
C29 C28 1.397 . S
C29 C30 1.385 . S
C30 H13 0.940 . S
C30 C29 1.385 . S
C30 C31 1.388 . S
C31 H10 0.939 . S
C31 C26 1.391 . S
C31 C30 1.388 . S
P32 O43 1.490 . S
P32 C46 1.812 . S
P32 C52 1.803 . S
P32 C58 1.819 . S
H33 C47 0.941 . S
H34 C48 0.939 . S
H35 C50 0.940 . S
H36 C51 0.940 . S
H37 C53 0.939 . S
H38 C54 0.942 . S
H39 C56 0.940 . S
H40 C57 0.939 . S
H41 C59 0.941 . S
H42 C63 0.939 . S
O43 P32 1.490 . S
H44 C60 0.939 . S
H45 C62 0.940 . S
C46 P32 1.812 . S
C46 C47 1.389 . S
C46 C51 1.391 . S
C47 H33 0.941 . S
C47 C46 1.389 . S
C47 C48 1.397 . S
C48 H34 0.939 . S
C48 C47 1.397 . S
C48 C49 1.378 . S
C49 C48 1.378 . S
C49 C50 1.378 . S
C50 H35 0.940 . S
C50 C49 1.378 . S
C50 C51 1.396 . S
C51 H36 0.940 . S
C51 C46 1.391 . S
C51 C50 1.396 . S
C52 P32 1.803 . S
C52 C53 1.378 . S
C52 C57 1.400 . S
C53 H37 0.939 . S
C53 C52 1.378 . S
C53 C54 1.361 . S
C54 H38 0.942 . S
C54 C53 1.361 . S
C54 C55 1.369 . S
C55 C54 1.369 . S
C55 C56 1.404 . S
C56 H39 0.940 . S
C56 C55 1.404 . S
C56 C57 1.389 . S
C57 H40 0.939 . S
C57 C52 1.400 . S
C57 C56 1.389 . S
C58 P32 1.819 . S
C58 C59 1.391 . S
C58 C63 1.391 . S
C59 H41 0.941 . S
C59 C58 1.391 . S
C59 C60 1.396 . S
C60 H44 0.939 . S
C60 C59 1.396 . S
C60 C61 1.397 . S
C61 C60 1.397 . S
C61 C62 1.385 . S
C62 H45 0.940 . S
C62 C61 1.385 . S
C62 C63 1.388 . S
C63 H42 0.939 . S
C63 C58 1.391 . S
C63 C62 1.388 . S
P64 O75 1.490 . S
P64 C78 1.819 . S
P64 C84 1.803 . S
P64 C90 1.811 1_556 S
H65 C79 0.941 . S
H66 C80 0.939 . S
H67 C82 0.940 . S
H68 C83 0.940 . S
H69 C85 0.939 . S
H70 C86 0.942 . S
H71 C88 0.940 . S
H72 C89 0.939 . S
H73 C91 0.941 . S
H74 C95 0.939 . S
O75 P64 1.490 . S
H76 C92 0.939 . S
H77 C94 0.940 . S
C78 P64 1.819 . S
C78 C79 1.389 . S
C78 C83 1.391 . S
C79 H65 0.941 . S
C79 C78 1.389 . S
C79 C80 1.397 . S
C80 H66 0.939 . S
C80 C79 1.397 . S
C80 C81 1.378 . S
C81 C80 1.378 . S
C81 C82 1.378 . S
C82 H67 0.940 . S
C82 C81 1.378 . S
C82 C83 1.396 . S
C83 H68 0.940 . S
C83 C78 1.391 . S
C83 C82 1.396 . S
C84 P64 1.803 . S
C84 C85 1.378 1_556 S
C84 C89 1.400 . S
C85 H69 0.939 . S
C85 C84 1.378 1_554 S
C85 C86 1.361 . S
C86 H70 0.942 . S
C86 C85 1.361 . S
C86 C87 1.369 . S
C87 C86 1.369 . S
C87 C88 1.404 1_554 S
C88 H71 0.940 . S
C88 C87 1.404 1_556 S
C88 C89 1.389 . S
C89 H72 0.939 . S
C89 C84 1.400 . S
C89 C88 1.389 . S
C90 P64 1.811 1_554 S
C90 C91 1.391 . S
C90 C95 1.391 . S
C91 H73 0.941 . S
C91 C90 1.391 . S
C91 C92 1.396 . S
C92 H76 0.939 . S
C92 C91 1.396 . S
C92 C93 1.397 . S
C93 C92 1.397 . S
C93 C94 1.385 . S
C94 H77 0.940 . S
C94 C93 1.385 . S
C94 C95 1.388 . S
C95 H74 0.939 . S
C95 C90 1.391 . S
C95 C94 1.388 . S
P96 O107 1.490 . S
P96 C110 1.812 . S
P96 C116 1.803 . S
P96 C122 1.819 . S
H97 C111 0.941 . S
H98 C112 0.939 . S
H99 C114 0.940 . S
H100 C115 0.940 . S
H101 C117 0.939 . S
H102 C118 0.942 . S
H103 C120 0.940 . S
H104 C121 0.939 . S
H105 C123 0.941 . S
H106 C127 0.939 . S
O107 P96 1.490 . S
H108 C124 0.939 . S
H109 C126 0.940 . S
C110 P96 1.812 . S
C110 C111 1.389 . S
C110 C115 1.391 . S
C111 H97 0.941 . S
C111 C110 1.389 . S
C111 C112 1.397 . S
C112 H98 0.939 . S
C112 C111 1.397 . S
C112 C113 1.378 . S
C113 C112 1.378 . S
C113 C114 1.378 . S
C114 H99 0.940 . S
C114 C113 1.378 . S
C114 C115 1.396 . S
C115 H100 0.940 . S
C115 C110 1.391 . S
C115 C114 1.396 . S
C116 P96 1.803 . S
C116 C117 1.378 . S
C116 C121 1.400 . S
C117 H101 0.939 . S
C117 C116 1.378 . S
C117 C118 1.361 . S
C118 H102 0.942 . S
C118 C117 1.361 . S
C118 C119 1.369 . S
C119 C118 1.369 . S
C119 C120 1.404 . S
C120 H103 0.940 . S
C120 C119 1.404 . S
C120 C121 1.389 . S
C121 H104 0.939 . S
C121 C116 1.400 . S
C121 C120 1.389 . S
C122 P96 1.819 . S
C122 C123 1.391 . S
C122 C127 1.391 . S
C123 H105 0.941 . S
C123 C122 1.391 . S
C123 C124 1.396 . S
C124 H108 0.939 . S
C124 C123 1.396 . S
C124 C125 1.397 . S
C125 C124 1.397 . S
C125 C126 1.385 . S
C126 H109 0.940 . S
C126 C125 1.385 . S
C126 C127 1.388 . S
C127 H106 0.939 . S
C127 C122 1.391 . S
C127 C126 1.388 . S
C128 O144 1.251 . S
C128 O146 1.254 1_455 S
N129 C130 1.333 . S
N129 C134 1.307 . S
N129 Zn135 2.020 . S
C130 N129 1.333 . S
C130 C131 1.379 . S
C130 H148 0.952 . S
C131 C130 1.379 . S
C131 C132 1.390 . S
C131 H158 0.949 . S
C132 C131 1.390 . S
C132 C133 1.357 . S
C133 C132 1.357 . S
C133 C134 1.370 . S
C133 H159 0.950 . S
C134 N129 1.307 . S
C134 C133 1.370 . S
C134 H152 0.948 . S
Zn135 N129 2.020 . S
Zn135 O144 2.039 1_545 S
Zn135 O150 2.034 1_545 S
Zn135 O154 2.025 . S
Zn135 O156 2.024 . S
C136 O155 1.246 . S
C136 O156 1.249 1_655 S
N137 C138 1.307 . S
N137 C139 1.333 . S
N137 Zn143 2.020 . S
C138 N137 1.307 . S
C138 C142 1.370 . S
C138 H149 0.948 . S
C139 N137 1.333 . S
C139 C140 1.379 . S
C139 H147 0.952 1_565 S
C140 C139 1.379 . S
C140 C141 1.390 . S
C140 H160 0.949 . S
C141 C140 1.390 . S
C141 C142 1.357 . S
C142 C138 1.370 . S
C142 C141 1.357 . S
C142 H161 0.950 . S
Zn143 N137 2.020 . S
Zn143 O146 2.025 . S
Zn143 O151 2.024 . S
Zn143 O153 2.039 1_565 S
Zn143 O155 2.034 1_565 S
O144 C128 1.251 . S
O144 Zn135 2.039 1_565 S
C145 O150 1.246 . S
C145 O151 1.249 1_455 S
O146 C128 1.254 1_655 S
O146 Zn143 2.025 . S
H147 C139 0.952 1_545 S
H148 C130 0.952 . S
H149 C138 0.948 . S
O150 Zn135 2.034 1_565 S
O150 C145 1.246 . S
O151 Zn143 2.024 . S
O151 C145 1.249 1_655 S
H152 C134 0.948 . S
O153 Zn143 2.039 1_545 S
O153 C157 1.251 . S
O154 Zn135 2.025 . S
O154 C157 1.254 1_455 S
O155 C136 1.246 . S
O155 Zn143 2.034 1_545 S
O156 Zn135 2.024 . S
O156 C136 1.249 1_455 S
C157 O153 1.251 . S
C157 O154 1.254 1_655 S
H158 C131 0.949 . S
H159 C133 0.950 . S
H160 C140 0.949 . S
H161 C142 0.950 . S
C162 O178 1.251 . S
C162 O180 1.254 . S
N163 C164 1.333 1_554 S
N163 C168 1.307 . S
N163 Zn169 2.020 . S
C164 N163 1.333 1_556 S
C164 C165 1.379 . S
C164 H182 0.952 . S
C165 C164 1.379 . S
C165 C166 1.390 1_556 S
C165 H192 0.949 . S
C166 C165 1.390 1_554 S
C166 C167 1.357 . S
C167 C166 1.357 . S
C167 C168 1.370 . S
C167 H193 0.950 . S
C168 N163 1.307 . S
C168 C167 1.370 . S
C168 H186 0.948 . S
Zn169 N163 2.020 . S
Zn169 O178 2.039 1_554 S
Zn169 O184 2.034 . S
Zn169 O188 2.025 . S
Zn169 O190 2.024 1_554 S
C170 O189 1.246 . S
C170 O190 1.249 . S
N171 C172 1.307 1_554 S
N171 C173 1.333 . S
N171 Zn177 2.020 . S
C172 N171 1.307 1_556 S
C172 C176 1.370 . S
C172 H183 0.948 . S
C173 N171 1.333 . S
C173 C174 1.379 . S
C173 H181 0.952 . S
C174 C173 1.379 . S
C174 C175 1.390 . S
C174 H194 0.949 . S
C175 C174 1.390 . S
C175 C176 1.357 1_554 S
C176 C172 1.370 . S
C176 C175 1.357 1_556 S
C176 H195 0.950 . S
Zn177 N171 2.020 . S
Zn177 O180 2.025 1_554 S
Zn177 O185 2.024 . S
Zn177 O187 2.039 . S
Zn177 O189 2.034 1_554 S
O178 C162 1.251 . S
O178 Zn169 2.039 1_556 S
C179 O184 1.246 . S
C179 O185 1.249 . S
O180 C162 1.254 . S
O180 Zn177 2.025 1_556 S
H181 C173 0.952 . S
H182 C164 0.952 . S
H183 C172 0.948 . S
O184 Zn169 2.034 . S
O184 C179 1.246 . S
O185 Zn177 2.024 . S
O185 C179 1.249 . S
H186 C168 0.948 . S
O187 Zn177 2.039 . S
O187 C191 1.251 . S
O188 Zn169 2.025 . S
O188 C191 1.254 . S
O189 C170 1.246 . S
O189 Zn177 2.034 1_556 S
O190 Zn169 2.024 1_556 S
O190 C170 1.249 . S
C191 O187 1.251 . S
C191 O188 1.254 . S
H192 C165 0.949 . S
H193 C167 0.950 . S
H194 C174 0.949 . S
H195 C176 0.950 . S
H196 C202 0.930 . S
H197 C205 0.930 . S
H198 C206 0.930 . S
H199 C207 0.930 . S
H200 C210 0.930 . S
H201 C211 0.930 . S
C202 H196 0.930 . S
C202 C203 1.355 . S
C202 C204 1.415 . S
C203 C202 1.355 . S
C203 C205 1.419 . S
C204 C202 1.415 . S
C204 C209 1.425 . S
C204 C211 1.409 . S
C205 H197 0.930 . S
C205 C203 1.419 . S
C205 C206 1.362 . S
C206 H198 0.930 . S
C206 C205 1.362 . S
C206 C209 1.409 . S
C207 H199 0.930 . S
C207 C208 1.355 . S
C207 C209 1.415 . S
C208 C207 1.355 . S
C208 C210 1.419 . S
C209 C204 1.425 . S
C209 C206 1.409 . S
C209 C207 1.415 . S
C210 H200 0.930 . S
C210 C208 1.419 . S
C210 C211 1.362 . S
C211 H201 0.930 . S
C211 C204 1.409 . S
C211 C210 1.362 . S
H212 C218 0.930 . S
H213 C221 0.930 . S
H214 C222 0.930 . S
H215 C223 0.930 . S
H216 C226 0.930 . S
H217 C227 0.930 . S
C218 H212 0.930 . S
C218 C219 1.355 . S
C218 C220 1.415 . S
C219 C218 1.355 . S
C219 C221 1.419 1_554 S
C220 C218 1.415 . S
C220 C225 1.425 1_554 S
C220 C227 1.409 . S
C221 H213 0.930 . S
C221 C219 1.419 1_556 S
C221 C222 1.362 . S
C222 H214 0.930 . S
C222 C221 1.362 . S
C222 C225 1.409 . S
C223 H215 0.930 . S
C223 C224 1.355 1_556 S
C223 C225 1.415 . S
C224 C223 1.355 1_554 S
C224 C226 1.419 . S
C225 C220 1.425 1_556 S
C225 C222 1.409 . S
C225 C223 1.415 . S
C226 H216 0.930 . S
C226 C224 1.419 . S
C226 C227 1.362 . S
C227 H217 0.930 . S
C227 C220 1.409 . S
C227 C226 1.362 . S
H228 C234 0.930 . S
H229 C237 0.930 . S
H230 C238 0.930 . S
H231 C239 0.930 . S
H232 C242 0.930 . S
H233 C243 0.930 . S
C234 H228 0.930 . S
C234 C235 1.355 . S
C234 C236 1.415 . S
C235 C234 1.355 . S
C235 C237 1.419 . S
C236 C234 1.415 . S
C236 C241 1.425 . S
C236 C243 1.409 . S
C237 H229 0.930 . S
C237 C235 1.419 . S
C237 C238 1.362 . S
C238 H230 0.930 . S
C238 C237 1.362 . S
C238 C241 1.409 . S
C239 H231 0.930 . S
C239 C240 1.355 . S
C239 C241 1.415 . S
C240 C239 1.355 . S
C240 C242 1.419 . S
C241 C236 1.425 . S
C241 C238 1.409 . S
C241 C239 1.415 . S
C242 H232 0.930 . S
C242 C240 1.419 . S
C242 C243 1.362 . S
C243 H233 0.930 . S
C243 C236 1.409 . S
C243 C242 1.362 . S
H244 C250 0.930 . S
H245 C253 0.930 . S
H246 C254 0.930 . S
H247 C255 0.930 . S
H248 C258 0.930 . S
H249 C259 0.930 . S
C250 H244 0.930 . S
C250 C251 1.355 . S
C250 C252 1.415 . S
C251 C250 1.355 . S
C251 C253 1.419 1_554 S
C252 C250 1.415 . S
C252 C257 1.425 1_554 S
C252 C259 1.409 . S
C253 H245 0.930 . S
C253 C251 1.419 1_556 S
C253 C254 1.362 . S
C254 H246 0.930 . S
C254 C253 1.362 . S
C254 C257 1.409 . S
C255 H247 0.930 . S
C255 C256 1.355 1_556 S
C255 C257 1.415 . S
C256 C255 1.355 1_554 S
C256 C258 1.419 . S
C257 C252 1.425 1_556 S
C257 C254 1.409 . S
C257 C255 1.415 . S
C258 H248 0.930 . S
C258 C256 1.419 . S
C258 C259 1.362 . S
C259 H249 0.930 . S
C259 C252 1.409 . S
C259 C258 1.362 . S
H260 C266 0.930 . S
H261 C269 0.930 . S
H262 C270 0.930 1_655 S
H263 C271 0.930 1_655 S
H264 C274 0.930 . S
H265 C275 0.930 . S
C266 H260 0.930 . S
C266 C267 1.355 . S
C266 C268 1.415 . S
C267 C266 1.355 . S
C267 C269 1.419 . S
C268 C266 1.415 . S
C268 C273 1.425 . S
C268 C275 1.409 . S
C269 H261 0.930 . S
C269 C267 1.419 . S
C269 C270 1.362 . S
C270 H262 0.930 1_455 S
C270 C269 1.362 . S
C270 C273 1.409 . S
C271 H263 0.930 1_455 S
C271 C272 1.355 . S
C271 C273 1.415 . S
C272 C271 1.355 . S
C272 C274 1.419 . S
C273 C268 1.425 . S
C273 C270 1.409 . S
C273 C271 1.415 . S
C274 H264 0.930 . S
C274 C272 1.419 . S
C274 C275 1.362 . S
C275 H265 0.930 . S
C275 C268 1.409 . S
C275 C274 1.362 . S
H276 C282 0.930 . S
H277 C285 0.930 . S
H278 C286 0.930 . S
H279 C287 0.930 . S
H280 C290 0.930 . S
H281 C291 0.930 . S
C282 H276 0.930 . S
C282 C283 1.355 . S
C282 C284 1.415 . S
C283 C282 1.355 . S
C283 C285 1.419 . S
C284 C282 1.415 . S
C284 C289 1.425 . S
C284 C291 1.409 . S
C285 H277 0.930 . S
C285 C283 1.419 . S
C285 C286 1.362 . S
C286 H278 0.930 . S
C286 C285 1.362 . S
C286 C289 1.409 . S
C287 H279 0.930 . S
C287 C288 1.355 . S
C287 C289 1.415 . S
C288 C287 1.355 . S
C288 C290 1.419 . S
C289 C284 1.425 . S
C289 C286 1.409 . S
C289 C287 1.415 . S
C290 H280 0.930 . S
C290 C288 1.419 . S
C290 C291 1.362 . S
C291 H281 0.930 . S
C291 C284 1.409 . S
C291 C290 1.362 . S
H292 C298 0.930 . S
H293 C301 0.930 . S
H294 C302 0.930 . S
H295 C303 0.930 . S
H296 C306 0.930 . S
H297 C307 0.930 . S
C298 H292 0.930 . S
C298 C299 1.355 . S
C298 C300 1.415 . S
C299 C298 1.355 . S
C299 C301 1.419 . S
C300 C298 1.415 . S
C300 C305 1.425 . S
C300 C307 1.409 . S
C301 H293 0.930 . S
C301 C299 1.419 . S
C301 C302 1.362 . S
C302 H294 0.930 . S
C302 C301 1.362 . S
C302 C305 1.409 . S
C303 H295 0.930 . S
C303 C304 1.355 . S
C303 C305 1.415 . S
C304 C303 1.355 . S
C304 C306 1.419 . S
C305 C300 1.425 . S
C305 C302 1.409 . S
C305 C303 1.415 . S
C306 H296 0.930 . S
C306 C304 1.419 . S
C306 C307 1.362 . S
C307 H297 0.930 . S
C307 C300 1.409 . S
C307 C306 1.362 . S
H308 C314 0.930 . S
H309 C317 0.930 . S
H310 C318 0.930 . S
H311 C319 0.930 . S
H312 C322 0.930 . S
H313 C323 0.930 . S
C314 H308 0.930 . S
C314 C315 1.355 . S
C314 C316 1.415 . S
C315 C314 1.355 . S
C315 C317 1.419 . S
C316 C314 1.415 . S
C316 C321 1.425 . S
C316 C323 1.409 . S
C317 H309 0.930 . S
C317 C315 1.419 . S
C317 C318 1.362 . S
C318 H310 0.930 . S
C318 C317 1.362 . S
C318 C321 1.409 . S
C319 H311 0.930 . S
C319 C320 1.355 . S
C319 C321 1.415 . S
C320 C319 1.355 . S
C320 C322 1.419 . S
C321 C316 1.425 . S
C321 C318 1.409 . S
C321 C319 1.415 . S
C322 H312 0.930 . S
C322 C320 1.419 . S
C322 C323 1.362 . S
C323 H313 0.930 . S
C323 C316 1.409 . S
C323 C322 1.362 . S
H324 C330 0.930 . S
H325 C333 0.930 . S
H326 C334 0.930 . S
H327 C335 0.930 . S
H328 C338 0.930 . S
H329 C339 0.930 . S
C330 H324 0.930 . S
C330 C331 1.355 . S
C330 C332 1.415 . S
C331 C330 1.355 . S
C331 C333 1.419 . S
C332 C330 1.415 . S
C332 C337 1.425 . S
C332 C339 1.409 . S
C333 H325 0.930 . S
C333 C331 1.419 . S
C333 C334 1.362 . S
C334 H326 0.930 . S
C334 C333 1.362 . S
C334 C337 1.409 . S
C335 H327 0.930 . S
C335 C336 1.355 . S
C335 C337 1.415 . S
C336 C335 1.355 . S
C336 C338 1.419 . S
C337 C332 1.425 . S
C337 C334 1.409 . S
C337 C335 1.415 . S
C338 H328 0.930 . S
C338 C336 1.419 . S
C338 C339 1.362 . S
C339 H329 0.930 . S
C339 C332 1.409 . S
C339 C338 1.362 . S
H340 C346 0.930 . S
H341 C349 0.930 . S
H342 C350 0.930 . S
H343 C351 0.930 . S
H344 C354 0.930 . S
H345 C355 0.930 . S
C346 H340 0.930 . S
C346 C347 1.355 . S
C346 C348 1.415 . S
C347 C346 1.355 . S
C347 C349 1.419 . S
C348 C346 1.415 . S
C348 C353 1.425 . S
C348 C355 1.409 . S
C349 H341 0.930 . S
C349 C347 1.419 . S
C349 C350 1.362 . S
C350 H342 0.930 . S
C350 C349 1.362 . S
C350 C353 1.409 . S
C351 H343 0.930 . S
C351 C352 1.355 . S
C351 C353 1.415 . S
C352 C351 1.355 . S
C352 C354 1.419 . S
C353 C348 1.425 . S
C353 C350 1.409 . S
C353 C351 1.415 . S
C354 H344 0.930 . S
C354 C352 1.419 . S
C354 C355 1.362 . S
C355 H345 0.930 . S
C355 C348 1.409 . S
C355 C354 1.362 . S
H356 C362 0.930 . S
H357 C365 0.930 . S
H358 C366 0.930 . S
H359 C367 0.930 . S
H360 C370 0.930 . S
H361 C371 0.930 . S
C362 H356 0.930 . S
C362 C363 1.355 . S
C362 C364 1.415 . S
C363 C362 1.355 . S
C363 C365 1.419 . S
C364 C362 1.415 . S
C364 C369 1.425 . S
C364 C371 1.409 . S
C365 H357 0.930 . S
C365 C363 1.419 . S
C365 C366 1.362 . S
C366 H358 0.930 . S
C366 C365 1.362 . S
C366 C369 1.409 . S
C367 H359 0.930 . S
C367 C368 1.355 . S
C367 C369 1.415 . S
C368 C367 1.355 . S
C368 C370 1.419 . S
C369 C364 1.425 . S
C369 C366 1.409 . S
C369 C367 1.415 . S
C370 H360 0.930 . S
C370 C368 1.419 . S
C370 C371 1.362 . S
C371 H361 0.930 . S
C371 C364 1.409 . S
C371 C370 1.362 . S
H372 C378 0.930 . S
H373 C381 0.930 . S
H374 C382 0.930 . S
H375 C383 0.930 . S
H376 C386 0.930 . S
H377 C387 0.930 . S
C378 H372 0.930 . S
C378 C379 1.355 . S
C378 C380 1.415 . S
C379 C378 1.355 . S
C379 C381 1.419 . S
C380 C378 1.415 . S
C380 C385 1.425 . S
C380 C387 1.409 . S
C381 H373 0.930 . S
C381 C379 1.419 . S
C381 C382 1.362 . S
C382 H374 0.930 . S
C382 C381 1.362 . S
C382 C385 1.409 . S
C383 H375 0.930 . S
C383 C384 1.355 . S
C383 C385 1.415 . S
C384 C383 1.355 . S
C384 C386 1.419 . S
C385 C380 1.425 . S
C385 C382 1.409 . S
C385 C383 1.415 . S
C386 H376 0.930 . S
C386 C384 1.419 . S
C386 C387 1.362 . S
C387 H377 0.930 . S
C387 C380 1.409 . S
C387 C386 1.362 . S
C208 C132 1.608 . S
C203 C119 1.599 . S
C219 C23 1.418 . S
C224 C175 1.527 . S
C235 C55 1.511 . S
C240 C141 1.596 . S
C251 C87 1.541 . S
C256 C166 1.545 . S
C272 C128 1.594 . S
C267 C17 1.530 . S
C288 C170 1.660 . S
C283 C61 1.489 . S
C299 C93 1.578 . S
C304 C136 1.574 . S
C315 C113 1.663 . S
C320 C162 1.663 . S
C336 C191 1.660 . S
C331 C49 1.546 . S
C352 C157 1.594 . S
C347 C81 1.590 . S
C368 C179 1.660 . S
C363 C125 1.664 . S
C379 C29 1.429 . S
C384 C145 1.562 . S
