# Generated by pormake.
# Topology rtl, (3,6)-cn, num edge types: 1
# Building blocks:
#     Node 0, Type 0, BuildingBlock: PAMTOO_clean_linker_0, # of connection points: 3
#     Node 1, Type 0, BuildingBlock: PAMTOO_clean_linker_0, # of connection points: 3
#     Node 2, Type 0, BuildingBlock: PAMTOO_clean_linker_0, # of connection points: 3
#     Node 3, Type 0, BuildingBlock: PAMTOO_clean_linker_0, # of connection points: 3
#     Node 4, Type 1, BuildingBlock: CIFDUS_clean_sbu_1, # of connection points: 6
#     Node 5, Type 1, BuildingBlock: CIFDUS_clean_sbu_1, # of connection points: 6
#     Edge 6, Type (0, 1), BuildingBlock: UVAHIK_clean_linker_0, # of connection points: 2
#     Edge 7, Type (0, 1), BuildingBlock: UVAHIK_clean_linker_0, # of connection points: 2
#     Edge 8, Type (0, 1), BuildingBlock: UVAHIK_clean_linker_0, # of connection points: 2
#     Edge 9, Type (0, 1), BuildingBlock: UVAHIK_clean_linker_0, # of connection points: 2
#     Edge 10, Type (0, 1), BuildingBlock: UVAHIK_clean_linker_0, # of connection points: 2
#     Edge 11, Type (0, 1), BuildingBlock: UVAHIK_clean_linker_0, # of connection points: 2
#     Edge 12, Type (0, 1), BuildingBlock: UVAHIK_clean_linker_0, # of connection points: 2
#     Edge 13, Type (0, 1), BuildingBlock: UVAHIK_clean_linker_0, # of connection points: 2
#     Edge 14, Type (0, 1), BuildingBlock: UVAHIK_clean_linker_0, # of connection points: 2
#     Edge 15, Type (0, 1), BuildingBlock: UVAHIK_clean_linker_0, # of connection points: 2
#     Edge 16, Type (0, 1), BuildingBlock: UVAHIK_clean_linker_0, # of connection points: 2
#     Edge 17, Type (0, 1), BuildingBlock: UVAHIK_clean_linker_0, # of connection points: 2
# Relax obj value: 0.020
# Max RMSD: 0.117
# Mean RMSD: 0.092
data_MOF--net-rtl--node1-CIFDUS_clean_sbu_1--node2-PAMTOO_clean_linker_0--edge1-UVAHIK_clean_linker_0
_symmetry_space_group_name_H-M    P1
_symmetry_Int_Tables_number       1
_symmetry_cell_setting            triclinic
loop_
_symmetry_equiv_pos_as_xyz
'x, y, z'
_cell_length_a     45.476108
_cell_length_b     45.645591
_cell_length_c     28.691615
_cell_angle_alpha  91.710521
_cell_angle_beta   97.547184
_cell_angle_gamma 90.219111
loop_
_atom_site_label
_atom_site_type_symbol
_atom_site_fract_x
_atom_site_fract_y
_atom_site_fract_z
_atom_type_partial_charge
H0 H 0.16793 0.88315 0.0695 0.0
H1 H 0.23016 0.82819 0.15111 0.0
H2 H 0.21904 0.81961 1.00049 0.0
H3 H 0.22274 0.76303 0.05611 0.0
C4 C 0.23971 0.7707 0.08552 0.0
O5 O 0.24701 0.79958 0.07873 0.0
H6 H 0.2301 0.76915 0.11908 0.0
C7 C 0.18476 0.86636 0.07084 0.0
C8 C 0.19178 0.85295 0.02883 0.0
C9 C 0.19847 0.85776 0.11503 0.0
C10 C 0.21932 0.83505 0.11732 0.0
C11 C 0.22648 0.82117 0.07603 0.0
C12 C 0.2128 0.83015 0.032 0.0
H13 H 0.65593 0.67342 0.57258 0.0
H14 H 0.70994 0.73667 0.5138 0.0
H15 H 0.7226 0.72339 0.66253 0.0
H16 H 0.72761 0.78312 0.64363 0.0
C17 C 0.73371 0.78237 0.60733 0.0
O18 O 0.73983 0.75373 0.59479 0.0
H19 H 0.71453 0.7903 0.58289 0.0
C20 C 0.67351 0.68976 0.57725 0.0
C21 C 0.68827 0.69639 0.62264 0.0
C22 C 0.68122 0.70394 0.53766 0.0
C23 C 0.70385 0.72537 0.54384 0.0
C24 C 0.71844 0.73263 0.58894 0.0
C25 C 0.71083 0.71794 0.62803 0.0
H26 H 0.86318 0.16418 0.01413 0.0
H27 H 0.80444 0.22098 0.92904 0.0
H28 H 0.80912 0.22643 0.07927 0.0
H29 H 0.74938 0.23298 0.03132 0.0
C30 C 0.75403 0.24231 0.99765 0.0
O31 O 0.78416 0.24773 0.99992 0.0
H32 H 0.74707 0.226 0.96861 0.0
C33 C 0.84679 0.18137 0.01127 0.0
C34 C 0.83787 0.19394 0.05257 0.0
C35 C 0.83501 0.19069 0.96632 0.0
C36 C 0.81366 0.21306 0.96304 0.0
C37 C 0.80441 0.22588 0.00371 0.0
C38 C 0.81662 0.21644 0.04826 0.0
H39 H 0.36054 0.37663 0.50203 0.0
H40 H 0.30668 0.31141 0.55622 0.0
H41 H 0.29956 0.32304 0.40744 0.0
H42 H 0.24235 0.31626 0.44632 0.0
C43 C 0.24937 0.30025 0.47406 0.0
O44 O 0.27913 0.29415 0.47387 0.0
H45 H 0.24592 0.31026 0.50873 0.0
C46 C 0.34432 0.35903 0.49584 0.0
C47 C 0.33165 0.35159 0.44948 0.0
C48 C 0.33581 0.34463 0.53469 0.0
C49 C 0.31356 0.32286 0.52689 0.0
C50 C 0.30031 0.31542 0.48106 0.0
C51 C 0.3095 0.3296 0.4426 0.0
O52 O 0.994 0.04856 0.48553 0.0
Mn53 Mn 0.01339 0.02142 0.53931 0.0
O54 O 0.96427 0.0196 0.43459 0.0
Mn55 Mn 0.97838 0.98461 0.45935 0.0
O56 O 0.03275 0.99427 0.59313 0.0
O57 O 0.04466 0.0532 0.55738 0.0
Mn58 Mn 0.04842 0.05824 0.61923 0.0
O59 O 0.98474 0.04009 0.58402 0.0
O60 O 0.06203 0.02328 0.64462 0.0
O61 O 0.04206 1.00284 0.49455 0.0
O62 O 0.01452 0.97185 0.44408 0.0
O63 O 0.07491 0.08396 0.59984 0.0
O64 O 0.01228 0.07151 0.63376 0.0
C65 C 0.96219 0.96906 0.52022 0.0
C66 C 0.9744 0.04475 0.44911 0.0
C67 C 0.05204 0.99812 0.62994 0.0
C68 C 0.06508 0.0733 0.5584 0.0
C69 C 0.9874 0.06022 0.61674 0.0
C70 C 0.0394 0.98305 0.4613 0.0
O71 O 0.98228 0.98949 0.52124 0.0
O72 O 0.95252 0.95826 0.4788 0.0
O73 O 0.53015 0.55051 0.0921 0.0
Mn74 Mn 0.51189 0.52129 0.03728 0.0
O75 O 0.55861 0.52356 0.14452 0.0
Mn76 Mn 0.54522 0.48761 0.11862 0.0
O77 O 0.49352 0.49197 0.98269 0.0
O78 O 0.48119 0.55233 0.01732 0.0
Mn79 Mn 0.47833 0.55453 0.95537 0.0
O80 O 0.54169 0.53866 0.99452 0.0
O81 O 0.46458 0.51854 0.93028 0.0
O82 O 0.48203 0.50398 0.08006 0.0
O83 O 0.50861 0.47484 0.13139 0.0
O84 O 0.45206 0.58151 0.97341 0.0
O85 O 0.51492 0.5665 0.94126 0.0
C86 C 0.56295 0.47004 0.05908 0.0
C87 C 0.54882 0.54812 0.12963 0.0
C88 C 0.47461 0.49414 0.9454 0.0
C89 C 0.46111 0.5726 0.01522 0.0
C90 C 0.53954 0.55653 0.96036 0.0
C91 C 0.48401 0.48521 0.11295 0.0
O92 O 0.54275 0.49024 0.05687 0.0
O93 O 0.57185 0.46099 0.10085 0.0
C94 C 0.2399 0.24579 0.48406 0.0
C95 C 0.23022 0.27284 0.46567 0.0
C96 C 0.22071 0.22143 0.47998 0.0
C97 C 0.14128 0.20306 0.46948 0.0
H98 H 0.16676 0.12421 0.44207 0.0
C99 C 0.0641 0.10659 0.49149 0.0
C100 C 0.07818 0.084 0.51779 0.0
C101 C 0.08092 0.12683 0.46995 0.0
C102 C 0.15923 0.14604 0.44996 0.0
H103 H 0.19257 0.29568 0.4299 0.0
H104 H 0.1591 0.25329 0.42285 0.0
H105 H 0.20034 0.16558 0.4372 0.0
H106 H 0.12024 0.06326 0.5389 0.0
H107 H 0.14946 0.09797 0.50166 0.0
H108 H 0.10087 0.18379 0.48463 0.0
C109 C 0.18162 0.25076 0.43985 0.0
C110 C 0.17855 0.16978 0.44716 0.0
C111 C 0.20086 0.27499 0.44356 0.0
C112 C 0.10877 0.08012 0.51791 0.0
C113 C 0.12559 0.10032 0.49671 0.0
C114 C 0.1221 0.17936 0.47278 0.0
C115 C 0.19119 0.22371 0.45835 0.0
C116 C 0.16999 0.19855 0.45763 0.0
C117 C 0.11216 0.125 0.47485 0.0
C118 C 0.13093 0.15038 0.46393 0.0
H119 H 0.26212 0.24362 0.50243 0.0
H120 H 0.22866 0.20108 0.49535 0.0
H121 H 0.13403 0.22487 0.47832 0.0
H122 H 0.04062 0.11043 0.49168 0.0
H123 H 0.06961 0.14507 0.45235 0.0
C124 C 0.29546 0.76099 0.10308 0.0
C125 C 0.26643 0.75073 0.08797 0.0
C126 C 0.31945 0.74153 0.10731 0.0
C127 C 0.33784 0.6626 0.12027 0.0
H128 H 0.40855 0.68281 0.06594 0.0
C129 C 0.41858 0.57696 0.05961 0.0
C130 C 0.44774 0.58538 0.05506 0.0
C131 C 0.39928 0.59671 0.07803 0.0
C132 C 0.38936 0.67693 0.08243 0.0
H133 H 0.23976 0.71191 0.06799 0.0
H134 H 0.28143 0.67804 0.07513 0.0
H135 H 0.36923 0.71862 0.06787 0.0
H136 H 0.48044 0.62 0.06997 0.0
H137 H 0.44734 0.6541 0.10436 0.0
H138 H 0.35771 0.62073 0.13417 0.0
C139 C 0.28578 0.70109 0.08336 0.0
C140 C 0.36666 0.69754 0.08327 0.0
C141 C 0.26192 0.72053 0.07873 0.0
C142 C 0.45823 0.61272 0.07402 0.0
C143 C 0.43899 0.6325 0.09269 0.0
C144 C 0.36063 0.64204 0.11974 0.0
C145 C 0.31489 0.7113 0.09761 0.0
C146 C 0.34029 0.69042 0.10116 0.0
C147 C 0.40875 0.62541 0.09223 0.0
C148 C 0.38647 0.64863 0.09981 0.0
H149 H 0.29965 0.784 0.11178 0.0
H150 H 0.34152 0.7501 0.11891 0.0
H151 H 0.31807 0.65656 0.13517 0.0
H152 H 0.40971 0.55631 0.04405 0.0
H153 H 0.37624 0.59029 0.07679 0.0
C154 C 0.78941 0.79298 0.61093 0.0
C155 C 0.75993 0.80288 0.60616 0.0
C156 C 0.81309 0.81294 0.61186 0.0
C157 C 0.82931 0.88957 0.58036 0.0
H158 H 0.90538 0.87639 0.65467 0.0
C159 C 0.9237 0.97129 0.57329 0.0
C160 C 0.94942 0.95796 0.56085 0.0
C161 C 0.90227 0.95465 0.59192 0.0
C162 C 0.88424 0.88043 0.63382 0.0
H163 H 0.73242 0.8415 0.60171 0.0
H164 H 0.77341 0.87623 0.60412 0.0
H165 H 0.86431 0.84215 0.65838 0.0
H166 H 0.97425 0.91766 0.56205 0.0
H167 H 0.9375 0.8888 0.59563 0.0
H168 H 0.84918 0.92751 0.5553 0.0
C169 C 0.7784 0.85308 0.60532 0.0
C170 C 0.86071 0.86066 0.63565 0.0
C171 C 0.75483 0.83316 0.60404 0.0
C172 C 0.95494 0.92865 0.57244 0.0
C173 C 0.93364 0.91201 0.59125 0.0
C174 C 0.85269 0.90936 0.57879 0.0
C175 C 0.80792 0.84331 0.60887 0.0
C176 C 0.83294 0.86478 0.60854 0.0
C177 C 0.90621 0.92435 0.59838 0.0
C178 C 0.8806 0.90497 0.60511 0.0
H179 H 0.79422 0.76984 0.6138 0.0
H180 H 0.83543 0.80447 0.61431 0.0
H181 H 0.80858 0.89331 0.55819 0.0
H182 H 0.9186 0.99367 0.56374 0.0
H183 H 0.88166 0.96501 0.5979 0.0
C184 C 0.74781 0.29815 0.99817 0.0
C185 C 0.73566 0.26982 0.9893 0.0
C186 C 0.72961 0.32293 0.99305 0.0
C187 C 0.65297 0.34737 0.94469 0.0
H188 H 0.66993 0.41047 0.03775 0.0
C189 C 0.56646 0.42935 1.00177 0.0
C190 C 0.57638 0.45719 0.01935 0.0
C191 C 0.58613 0.40952 0.98428 0.0
C192 C 0.6651 0.3934 0.01077 0.0
H193 H 0.69489 0.24539 0.96944 0.0
H194 H 0.66309 0.28829 0.96164 0.0
H195 H 0.70405 0.36982 0.03667 0.0
H196 H 0.61377 0.48711 0.02858 0.0
H197 H 0.64788 0.45304 0.99669 0.0
H198 H 0.61315 0.37059 0.92041 0.0
C199 C 0.68674 0.29164 0.97086 0.0
C200 C 0.68478 0.36992 0.01017 0.0
C201 C 0.70495 0.26695 0.97561 0.0
C202 C 0.60535 0.46602 0.01426 0.0
C203 C 0.62506 0.44624 0.99691 0.0
C204 C 0.63312 0.37079 0.94557 0.0
C205 C 0.69872 0.32006 0.97977 0.0
C206 C 0.67885 0.34629 0.9776 0.0
C207 C 0.61618 0.41716 0.98446 0.0
C208 C 0.63874 0.39396 0.97902 0.0
H209 H 0.77131 0.30125 0.00946 0.0
H210 H 0.73982 0.34437 0.99978 0.0
H211 H 0.64782 0.32994 0.91844 0.0
H212 H 0.5445 0.4217 0.00655 0.0
H213 H 0.57847 0.38735 0.97512 0.0
C214 C 0.18137 0.85598 0.1947 0.0
C215 C 0.19038 0.87245 0.15847 0.0
C216 C 0.17112 0.86996 0.23355 0.0
C217 C 0.14048 0.94166 0.26986 0.0
H218 H 0.14639 0.90546 0.39122 0.0
C219 C 0.08575 0.99228 0.42484 0.0
C220 C 0.06565 0.97259 0.44053 0.0
C221 C 0.10679 0.98212 0.39656 0.0
C222 C 0.14477 0.91594 0.35759 0.0
H223 H 0.19721 0.91642 0.13555 0.0
H224 H 0.18058 0.9409 0.20399 0.0
H225 H 0.1725 0.88397 0.32957 0.0
H226 H 0.0529 0.92689 0.44181 0.0
H227 H 0.09014 0.90911 0.39419 0.0
H228 H 0.1127 0.9736 0.29824 0.0
C229 C 0.18029 0.91718 0.20192 0.0
C230 C 0.15949 0.90347 0.32201 0.0
C231 C 0.19005 0.90318 0.16275 0.0
C232 C 0.06822 0.94251 0.43022 0.0
C233 C 0.08958 0.93232 0.40305 0.0
C234 C 0.12617 0.95435 0.3057 0.0
C235 C 0.17007 0.90081 0.23751 0.0
C236 C 0.15698 0.91572 0.27716 0.0
C237 C 0.10849 0.95206 0.38465 0.0
C238 C 0.12758 0.94125 0.34958 0.0
H239 H 0.18115 0.83225 0.19209 0.0
H240 H 0.16303 0.85645 0.25958 0.0
H241 H 0.13747 0.9516 0.23581 0.0
H242 H 0.08401 0.01561 0.43197 0.0
H243 H 0.12117 0.99779 0.3829 0.0
C244 C 0.67691 0.69657 0.70637 0.0
C245 C 0.67969 0.68102 0.66413 0.0
C246 C 0.66708 0.68242 0.74424 0.0
C247 C 0.65541 0.60886 0.79224 0.0
H248 H 0.5962 0.64933 0.85494 0.0
C249 C 0.57643 0.55059 0.90404 0.0
C250 C 0.56615 0.56656 0.9411 0.0
C251 C 0.59559 0.56373 0.87616 0.0
C252 C 0.61315 0.63783 0.83862 0.0
H253 H 0.67547 0.63803 0.62951 0.0
H254 H 0.65792 0.61353 0.6951 0.0
H255 H 0.61918 0.67399 0.79499 0.0
H256 H 0.56855 0.60811 0.97958 0.0
H257 H 0.60288 0.6308 0.93234 0.0
H258 H 0.64889 0.57245 0.83545 0.0
C259 C 0.66347 0.63664 0.69914 0.0
C260 C 0.62633 0.65203 0.80402 0.0
C261 C 0.6732 0.65079 0.66125 0.0
C262 C 0.57663 0.59523 0.95163 0.0
C263 C 0.5959 0.60833 0.92404 0.0
C264 C 0.64224 0.59463 0.82701 0.0
C265 C 0.6599 0.65233 0.74095 0.0
C266 C 0.64741 0.63766 0.77997 0.0
C267 C 0.60469 0.59318 0.88473 0.0
C268 C 0.6207 0.60884 0.85039 0.0
H269 H 0.68154 0.71988 0.70978 0.0
H270 H 0.66494 0.69514 0.77607 0.0
H271 H 0.67186 0.59724 0.77491 0.0
H272 H 0.56801 0.52868 0.8946 0.0
H273 H 0.60161 0.55142 0.84604 0.0
C274 C 0.85803 0.20302 0.13858 0.0
C275 C 0.85127 0.18346 0.09964 0.0
C276 C 0.8726 0.19321 0.18146 0.0
C277 C 0.92382 0.1368 0.22913 0.0
H278 H 0.89152 0.14752 0.34694 0.0
C279 C 0.98149 0.08933 0.40242 0.0
C280 C 0.96258 0.07 0.42169 0.0
C281 C 0.96979 0.10907 0.36826 0.0
C282 C 0.901 0.14471 0.31439 0.0
H283 H 0.85312 0.13771 0.07697 0.0
H284 H 0.87943 0.12116 0.15065 0.0
H285 H 0.86689 0.1701 0.27567 0.0
H286 H 0.9168 0.05726 0.42287 0.0
H287 H 0.89637 0.09232 0.36487 0.0
H288 H 0.95756 0.11099 0.26737 0.0
C289 C 0.87372 0.14411 0.14775 0.0
C290 C 0.88695 0.15766 0.27371 0.0
C291 C 0.85873 0.15373 0.10537 0.0
C292 C 0.93181 0.07207 0.40868 0.0
C293 C 0.92012 0.09218 0.37555 0.0
C294 C 0.93816 0.12435 0.2699 0.0
C295 C 0.88112 0.16376 0.18609 0.0
C296 C 0.89779 0.15316 0.23042 0.0
C297 C 0.93899 0.11023 0.35379 0.0
C298 C 0.92651 0.12755 0.31275 0.0
H299 H 0.85289 0.22608 0.13562 0.0
H300 H 0.87799 0.2088 0.21057 0.0
H301 H 0.93274 0.13314 0.19626 0.0
H302 H 0.00532 0.08789 0.41149 0.0
H303 H 0.98485 0.12277 0.35207 0.0
C304 C 0.33341 0.35708 0.6204 0.0
C305 C 0.35029 0.35273 0.58312 0.0
C306 C 0.34693 0.36696 0.66486 0.0
C307 C 0.41992 0.376 0.73997 0.0
H308 H 0.38092 0.44005 0.79815 0.0
C309 C 0.48012 0.45445 0.88557 0.0
C310 C 0.46327 0.46782 0.91773 0.0
C311 C 0.46656 0.43527 0.8499 0.0
C312 C 0.39196 0.42177 0.78315 0.0
H313 H 0.39486 0.354 0.56409 0.0
H314 H 0.41835 0.37138 0.64131 0.0
H315 H 0.35658 0.41625 0.7265 0.0
H316 H 0.4197 0.47072 0.93978 0.0
H317 H 0.39627 0.43625 0.87934 0.0
H318 H 0.45552 0.38182 0.79646 0.0
C319 C 0.39467 0.36715 0.63633 0.0
C320 C 0.37793 0.40813 0.74179 0.0
C321 C 0.38115 0.35748 0.59187 0.0
C322 C 0.43318 0.46035 0.91564 0.0
C323 C 0.41971 0.44097 0.88048 0.0
C324 C 0.43393 0.38956 0.7816 0.0
C325 C 0.3777 0.37248 0.67323 0.0
C326 C 0.39184 0.3853 0.7193 0.0
C327 C 0.43588 0.42913 0.84584 0.0
C328 C 0.42027 0.41287 0.80354 0.0
H329 H 0.3096 0.35373 0.61482 0.0
H330 H 0.33323 0.37054 0.69262 0.0
H331 H 0.43113 0.35824 0.72387 0.0
H332 H 0.50323 0.46045 0.88592 0.0
H333 H 0.47975 0.42684 0.8238 0.0
C334 C 0.63457 0.69446 0.48181 0.0
C335 C 0.6657 0.69584 0.49003 0.0
C336 C 0.61991 0.68475 0.43806 0.0
C337 C 0.63215 0.66608 0.3134 0.0
H338 H 0.5616 0.61829 0.31467 0.0
C339 C 0.59048 0.57734 0.17256 0.0
C340 C 0.55986 0.57432 0.15818 0.0
C341 C 0.60138 0.59815 0.20731 0.0
C342 C 0.58096 0.63202 0.31354 0.0
H343 H 0.70588 0.68844 0.4587 0.0
H344 H 0.68058 0.67044 0.383 0.0
H345 H 0.58478 0.64221 0.38722 0.0
H346 H 0.51659 0.59119 0.16768 0.0
H347 H 0.53566 0.62739 0.22979 0.0
H348 H 0.62908 0.65415 0.23996 0.0
C349 C 0.66723 0.67767 0.40965 0.0
C350 C 0.59434 0.64586 0.35525 0.0
C351 C 0.68185 0.68787 0.45321 0.0
C352 C 0.54032 0.59339 0.17776 0.0
C353 C 0.55122 0.61386 0.2135 0.0
C354 C 0.61901 0.65183 0.27185 0.0
C355 C 0.636 0.67562 0.4015 0.0
C356 C 0.62043 0.66277 0.35607 0.0
C357 C 0.58185 0.61597 0.22933 0.0
C358 C 0.5935 0.63431 0.27159 0.0
H359 H 0.62153 0.7008 0.50942 0.0
H360 H 0.5959 0.68427 0.43313 0.0
H361 H 0.65173 0.67941 0.31203 0.0
H362 H 0.60596 0.56269 0.15825 0.0
H363 H 0.62503 0.59902 0.21895 0.0
C364 C 0.82552 0.17133 0.8819 0.0
C365 C 0.84529 0.17684 0.92339 0.0
C366 C 0.83513 0.15687 0.84281 0.0
C367 C 0.89126 0.10518 0.81123 0.0
H368 H 0.88127 0.1394 0.68814 0.0
C369 C 0.94155 0.05162 0.65476 0.0
C370 C 0.96115 0.07101 0.63716 0.0
C371 C 0.92089 0.06231 0.6833 0.0
C372 C 0.88386 0.12938 0.72217 0.0
H373 H 0.89119 0.17263 0.95472 0.0
H374 H 0.90739 0.14661 0.88759 0.0
H375 H 0.85838 0.16275 0.75245 0.0
H376 H 0.97328 0.11664 0.63256 0.0
H377 H 0.93673 0.13532 0.68072 0.0
H378 H 0.91735 0.07228 0.78152 0.0
C379 C 0.8844 0.1532 0.88558 0.0
C380 C 0.87071 0.14269 0.75888 0.0
C381 C 0.875 0.16804 0.92419 0.0
C382 C 0.95833 0.10126 0.64564 0.0
C383 C 0.93734 0.11196 0.6731 0.0
C384 C 0.90395 0.09161 0.7744 0.0
C385 C 0.86457 0.14723 0.84463 0.0
C386 C 0.87503 0.13118 0.80412 0.0
C387 C 0.9191 0.09258 0.69363 0.0
C388 C 0.90108 0.104 0.7298 0.0
H389 H 0.80245 0.17751 0.87995 0.0
H390 H 0.81939 0.15258 0.81159 0.0
H391 H 0.89474 0.09572 0.84569 0.0
H392 H 0.94351 0.02817 0.64906 0.0
H393 H 0.90703 0.0469 0.69862 0.0
C394 C 0.32205 0.37312 0.36839 0.0
C395 C 0.34187 0.36681 0.40883 0.0
C396 C 0.33179 0.38813 0.33119 0.0
C397 C 0.38958 0.43929 0.30497 0.0
H398 H 0.37597 0.4071 0.1773 0.0
C399 C 0.45305 0.44446 0.13533 0.0
C400 C 0.45727 0.47475 0.13168 0.0
C401 C 0.43222 0.43374 0.16238 0.0
C402 C 0.37962 0.41655 0.21269 0.0
H403 H 0.38794 0.37059 0.44027 0.0
H404 H 0.40439 0.39751 0.3765 0.0
H405 H 0.3533 0.38341 0.23958 0.0
H406 H 0.44241 0.51768 0.15189 0.0
H407 H 0.40615 0.49889 0.20046 0.0
H408 H 0.41648 0.47195 0.27853 0.0
C409 C 0.38127 0.39106 0.37387 0.0
C410 C 0.36659 0.40305 0.24826 0.0
C411 C 0.37172 0.37569 0.41059 0.0
C412 C 0.43923 0.49423 0.15369 0.0
C413 C 0.41873 0.48347 0.18173 0.0
C414 C 0.40219 0.45305 0.26932 0.0
C415 C 0.36143 0.39758 0.33385 0.0
C416 C 0.37211 0.41382 0.29501 0.0
C417 C 0.4156 0.45309 0.18732 0.0
C418 C 0.398 0.44141 0.223 0.0
H419 H 0.29886 0.36699 0.36577 0.0
H420 H 0.31601 0.39288 0.30074 0.0
H421 H 0.39402 0.44822 0.34062 0.0
H422 H 0.46694 0.42904 0.11903 0.0
H423 H 0.4306 0.41028 0.16629 0.0
C424 C 0.16955 0.84308 0.94385 0.0
C425 C 0.17692 0.86293 0.98226 0.0
C426 C 0.15439 0.85255 0.90119 0.0
C427 C 0.10334 0.90926 0.85301 0.0
H428 H 0.13413 0.89561 0.73452 0.0
C429 C 0.0447 0.95462 0.67875 0.0
C430 C 0.06367 0.97295 0.65768 0.0
C431 C 0.05643 0.93536 0.71365 0.0
C432 C 0.12508 0.89927 0.76728 0.0
H433 H 0.17512 0.90883 0.0042 0.0
H434 H 0.1478 0.92479 0.93094 0.0
H435 H 0.15902 0.87385 0.80628 0.0
H436 H 0.10952 0.98445 0.65421 0.0
H437 H 0.12999 0.95017 0.71347 0.0
H438 H 0.06977 0.93509 0.81441 0.0
C439 C 0.15356 0.90186 0.9341 0.0
C440 C 0.13926 0.88677 0.80826 0.0
C441 C 0.16913 0.89258 0.97628 0.0
C442 C 0.09447 0.97033 0.6697 0.0
C443 C 0.10618 0.95069 0.7036 0.0
C444 C 0.08885 0.92128 0.81196 0.0
C445 C 0.14582 0.88196 0.89619 0.0
C446 C 0.12897 0.89227 0.85175 0.0
C447 C 0.0873 0.9337 0.72714 0.0
C448 C 0.09995 0.91701 0.76882 0.0
H449 H 0.17483 0.82006 0.94699 0.0
H450 H 0.1487 0.83674 0.87248 0.0
H451 H 0.09481 0.9137 0.88601 0.0
H452 H 0.02086 0.95654 0.67051 0.0
H453 H 0.04137 0.92248 0.73118 0.0
loop_
_geom_bond_atom_site_label_1
_geom_bond_atom_site_label_2
_geom_bond_distance
_geom_bond_site_symmetry_2
_ccdc_geom_bond_type
H0 C7 0.929 . S
H1 C10 0.930 . S
H2 C12 0.929 1_556 S
H3 C4 0.969 . S
C4 H3 0.969 . S
C4 O5 1.550 . S
C4 H6 0.973 . S
O5 C4 1.550 . S
O5 C11 1.412 . S
H6 C4 0.973 . S
C7 H0 0.929 . S
C7 C8 1.400 . S
C7 C9 1.364 . S
C8 C7 1.400 . S
C8 C12 1.377 . S
C9 C7 1.364 . S
C9 C10 1.374 . S
C10 H1 0.930 . S
C10 C9 1.374 . S
C10 C11 1.383 . S
C11 O5 1.412 . S
C11 C10 1.383 . S
C11 C12 1.394 . S
C12 H2 0.929 1_554 S
C12 C8 1.377 . S
C12 C11 1.394 . S
H13 C20 0.929 . S
H14 C23 0.930 . S
H15 C25 0.929 . S
H16 C17 0.969 . S
C17 H16 0.969 . S
C17 O18 1.550 . S
C17 H19 0.973 . S
O18 C17 1.550 . S
O18 C24 1.412 . S
H19 C17 0.973 . S
C20 H13 0.929 . S
C20 C21 1.400 . S
C20 C22 1.364 . S
C21 C20 1.400 . S
C21 C25 1.377 . S
C22 C20 1.364 . S
C22 C23 1.374 . S
C23 H14 0.930 . S
C23 C22 1.374 . S
C23 C24 1.383 . S
C24 O18 1.412 . S
C24 C23 1.383 . S
C24 C25 1.394 . S
C25 H15 0.929 . S
C25 C21 1.377 . S
C25 C24 1.394 . S
H26 C33 0.929 . S
H27 C36 0.930 . S
H28 C38 0.929 . S
H29 C30 0.969 . S
C30 H29 0.969 . S
C30 O31 1.550 1_556 S
C30 H32 0.973 . S
O31 C30 1.550 1_554 S
O31 C37 1.412 . S
H32 C30 0.973 . S
C33 H26 0.929 . S
C33 C34 1.400 . S
C33 C35 1.364 1_554 S
C34 C33 1.400 . S
C34 C38 1.377 . S
C35 C33 1.364 1_556 S
C35 C36 1.374 . S
C36 H27 0.930 . S
C36 C35 1.374 . S
C36 C37 1.383 1_556 S
C37 O31 1.412 . S
C37 C36 1.383 1_554 S
C37 C38 1.394 . S
C38 H28 0.929 . S
C38 C34 1.377 . S
C38 C37 1.394 . S
H39 C46 0.929 . S
H40 C49 0.930 . S
H41 C51 0.929 . S
H42 C43 0.969 . S
C43 H42 0.969 . S
C43 O44 1.550 . S
C43 H45 0.973 . S
O44 C43 1.550 . S
O44 C50 1.412 . S
H45 C43 0.973 . S
C46 H39 0.929 . S
C46 C47 1.400 . S
C46 C48 1.364 . S
C47 C46 1.400 . S
C47 C51 1.377 . S
C48 C46 1.364 . S
C48 C49 1.374 . S
C49 H40 0.930 . S
C49 C48 1.374 . S
C49 C50 1.383 . S
C50 O44 1.412 . S
C50 C49 1.383 . S
C50 C51 1.394 . S
C51 H41 0.929 . S
C51 C47 1.377 . S
C51 C50 1.394 . S
O52 Mn53 2.163 1_655 S
O52 C66 1.244 . S
Mn53 O52 2.163 1_455 S
Mn53 O56 2.160 1_545 S
Mn53 O57 2.221 . S
Mn53 O59 2.163 1_455 S
Mn53 O61 2.160 1_545 S
Mn53 O71 2.221 1_445 S
O54 Mn55 2.087 1_545 S
O54 C66 1.256 . S
Mn55 O54 2.087 1_565 S
Mn55 O62 2.089 1_655 S
Mn55 O71 2.290 . S
Mn55 O72 2.251 . S
O56 Mn53 2.160 1_565 S
O56 C67 1.239 . S
O57 Mn53 2.221 . S
O57 Mn58 2.290 . S
O57 C68 1.278 . S
Mn58 O57 2.290 . S
Mn58 O60 2.089 . S
Mn58 O63 2.251 . S
Mn58 O64 2.087 . S
O59 Mn53 2.163 1_655 S
O59 C69 1.244 . S
O60 Mn58 2.089 . S
O60 C67 1.256 1_545 S
O61 Mn53 2.160 1_565 S
O61 C70 1.239 . S
O62 Mn55 2.089 1_455 S
O62 C70 1.256 . S
O63 Mn58 2.251 . S
O63 C68 1.241 . S
O64 Mn58 2.087 . S
O64 C69 1.256 1_455 S
C65 O71 1.278 . S
C65 O72 1.241 . S
C66 O52 1.244 . S
C66 O54 1.256 . S
C67 O56 1.239 . S
C67 O60 1.256 1_565 S
C68 O57 1.278 . S
C68 O63 1.241 . S
C69 O59 1.244 . S
C69 O64 1.256 1_655 S
C70 O61 1.239 . S
C70 O62 1.256 . S
O71 Mn53 2.221 1_665 S
O71 Mn55 2.290 . S
O71 C65 1.278 . S
O72 Mn55 2.251 . S
O72 C65 1.241 . S
O73 Mn74 2.163 . S
O73 C87 1.244 . S
Mn74 O73 2.163 . S
Mn74 O77 2.160 1_554 S
Mn74 O78 2.221 . S
Mn74 O80 2.163 1_554 S
Mn74 O82 2.160 . S
Mn74 O92 2.221 . S
O75 Mn76 2.087 . S
O75 C87 1.256 . S
Mn76 O75 2.087 . S
Mn76 O83 2.089 . S
Mn76 O92 2.290 . S
Mn76 O93 2.251 . S
O77 Mn74 2.160 1_556 S
O77 C88 1.239 . S
O78 Mn74 2.221 . S
O78 Mn79 2.290 1_554 S
O78 C89 1.278 . S
Mn79 O78 2.290 1_556 S
Mn79 O81 2.089 . S
Mn79 O84 2.251 . S
Mn79 O85 2.087 . S
O80 Mn74 2.163 1_556 S
O80 C90 1.244 . S
O81 Mn79 2.089 . S
O81 C88 1.256 . S
O82 Mn74 2.160 . S
O82 C91 1.239 . S
O83 Mn76 2.089 . S
O83 C91 1.256 . S
O84 Mn79 2.251 . S
O84 C89 1.241 1_556 S
O85 Mn79 2.087 . S
O85 C90 1.256 . S
C86 O92 1.278 . S
C86 O93 1.241 . S
C87 O73 1.244 . S
C87 O75 1.256 . S
C88 O77 1.239 . S
C88 O81 1.256 . S
C89 O78 1.278 . S
C89 O84 1.241 1_554 S
C90 O80 1.244 . S
C90 O85 1.256 . S
C91 O82 1.239 . S
C91 O83 1.256 . S
O92 Mn74 2.221 . S
O92 Mn76 2.290 . S
O92 C86 1.278 . S
O93 Mn76 2.251 . S
O93 C86 1.241 . S
C94 C95 1.349 . S
C94 C96 1.327 . S
C94 H119 0.950 . S
C95 C94 1.349 . S
C95 C111 1.349 . S
C96 C94 1.327 . S
C96 C115 1.429 . S
C96 H120 0.950 . S
C97 C114 1.574 . S
C97 C116 1.368 . S
C97 H121 0.949 . S
H98 C102 0.949 . S
C99 C100 1.349 . S
C99 C101 1.327 . S
C99 H122 0.950 . S
C100 C99 1.349 . S
C100 C112 1.349 . S
C101 C99 1.327 . S
C101 C117 1.429 . S
C101 H123 0.950 . S
C102 H98 0.949 . S
C102 C110 1.574 . S
C102 C118 1.368 . S
H103 C111 0.950 . S
H104 C109 0.950 . S
H105 C110 0.949 . S
H106 C112 0.950 . S
H107 C113 0.950 . S
H108 C114 0.949 . S
C109 H104 0.950 . S
C109 C111 1.327 . S
C109 C115 1.429 . S
C110 C102 1.574 . S
C110 H105 0.949 . S
C110 C116 1.368 . S
C111 C95 1.349 . S
C111 H103 0.950 . S
C111 C109 1.327 . S
C112 C100 1.349 . S
C112 H106 0.950 . S
C112 C113 1.327 . S
C113 H107 0.950 . S
C113 C112 1.327 . S
C113 C117 1.429 . S
C114 C97 1.574 . S
C114 H108 0.949 . S
C114 C118 1.368 . S
C115 C96 1.429 . S
C115 C109 1.429 . S
C115 C116 1.523 . S
C116 C97 1.368 . S
C116 C110 1.368 . S
C116 C115 1.523 . S
C117 C101 1.429 . S
C117 C113 1.429 . S
C117 C118 1.523 . S
C118 C102 1.368 . S
C118 C114 1.368 . S
C118 C117 1.523 . S
H119 C94 0.950 . S
H120 C96 0.950 . S
H121 C97 0.949 . S
H122 C99 0.950 . S
H123 C101 0.950 . S
C124 C125 1.349 . S
C124 C126 1.327 . S
C124 H149 0.950 . S
C125 C124 1.349 . S
C125 C141 1.349 . S
C126 C124 1.327 . S
C126 C145 1.429 . S
C126 H150 0.950 . S
C127 C144 1.574 . S
C127 C146 1.368 . S
C127 H151 0.949 . S
H128 C132 0.949 . S
C129 C130 1.349 . S
C129 C131 1.327 . S
C129 H152 0.950 . S
C130 C129 1.349 . S
C130 C142 1.349 . S
C131 C129 1.327 . S
C131 C147 1.429 . S
C131 H153 0.950 . S
C132 H128 0.949 . S
C132 C140 1.574 . S
C132 C148 1.368 . S
H133 C141 0.950 . S
H134 C139 0.950 . S
H135 C140 0.949 . S
H136 C142 0.950 1_556 S
H137 C143 0.937 1_556 S
H138 C144 0.949 . S
C139 H134 0.950 . S
C139 C141 1.327 . S
C139 C145 1.429 . S
C140 C132 1.574 . S
C140 H135 0.949 . S
C140 C146 1.368 . S
C141 C125 1.349 . S
C141 H133 0.950 . S
C141 C139 1.327 . S
C142 C130 1.349 . S
C142 H136 0.950 1_554 S
C142 C143 1.327 . S
C143 H137 0.937 1_554 S
C143 C142 1.327 . S
C143 C147 1.429 . S
C144 C127 1.574 . S
C144 H138 0.949 . S
C144 C148 1.368 . S
C145 C126 1.429 . S
C145 C139 1.429 . S
C145 C146 1.523 . S
C146 C127 1.368 . S
C146 C140 1.368 . S
C146 C145 1.523 . S
C147 C131 1.429 . S
C147 C143 1.429 . S
C147 C148 1.523 . S
C148 C132 1.368 . S
C148 C144 1.368 . S
C148 C147 1.523 . S
H149 C124 0.950 . S
H150 C126 0.950 . S
H151 C127 0.949 . S
H152 C129 0.950 . S
H153 C131 0.950 . S
C154 C155 1.349 . S
C154 C156 1.327 . S
C154 H179 0.950 . S
C155 C154 1.349 . S
C155 C171 1.349 . S
C156 C154 1.327 . S
C156 C175 1.429 . S
C156 H180 0.950 . S
C157 C174 1.574 . S
C157 C176 1.368 . S
C157 H181 0.949 . S
H158 C162 0.949 . S
C159 C160 1.349 . S
C159 C161 1.327 . S
C159 H182 0.950 . S
C160 C159 1.349 . S
C160 C172 1.349 . S
C161 C159 1.327 . S
C161 C177 1.429 . S
C161 H183 0.950 . S
C162 H158 0.949 . S
C162 C170 1.574 . S
C162 C178 1.368 . S
H163 C171 0.950 . S
H164 C169 0.950 . S
H165 C170 0.949 . S
H166 C172 0.950 . S
H167 C173 0.950 . S
H168 C174 0.949 . S
C169 H164 0.950 . S
C169 C171 1.327 . S
C169 C175 1.429 . S
C170 C162 1.574 . S
C170 H165 0.949 . S
C170 C176 1.368 . S
C171 C155 1.349 . S
C171 H163 0.950 . S
C171 C169 1.327 . S
C172 C160 1.349 . S
C172 H166 0.950 . S
C172 C173 1.327 . S
C173 H167 0.950 . S
C173 C172 1.327 . S
C173 C177 1.429 . S
C174 C157 1.574 . S
C174 H168 0.949 . S
C174 C178 1.368 . S
C175 C156 1.429 . S
C175 C169 1.429 . S
C175 C176 1.523 . S
C176 C157 1.368 . S
C176 C170 1.368 . S
C176 C175 1.523 . S
C177 C161 1.429 . S
C177 C173 1.429 . S
C177 C178 1.523 . S
C178 C162 1.368 . S
C178 C174 1.368 . S
C178 C177 1.523 . S
H179 C154 0.950 . S
H180 C156 0.950 . S
H181 C157 0.949 . S
H182 C159 0.950 . S
H183 C161 0.950 . S
C184 C185 1.349 1_554 S
C184 C186 1.327 . S
C184 H209 0.950 . S
C185 C184 1.349 1_556 S
C185 C201 1.349 . S
C186 C184 1.327 . S
C186 C205 1.443 . S
C186 H210 0.950 . S
C187 C204 1.574 . S
C187 C206 1.368 1_556 S
C187 H211 0.949 . S
H188 C192 0.949 . S
C189 C190 1.349 1_556 S
C189 C191 1.327 . S
C189 H212 0.950 . S
C190 C189 1.349 1_554 S
C190 C202 1.349 . S
C191 C189 1.327 . S
C191 C207 1.429 1_556 S
C191 H213 0.950 . S
C192 H188 0.949 . S
C192 C200 1.574 . S
C192 C208 1.368 . S
H193 C201 0.950 . S
H194 C199 0.950 . S
H195 C200 0.949 . S
H196 C202 0.950 . S
H197 C203 0.950 . S
H198 C204 0.949 . S
C199 H194 0.950 . S
C199 C201 1.327 . S
C199 C205 1.411 1_556 S
C200 C192 1.574 . S
C200 H195 0.949 . S
C200 C206 1.368 . S
C201 C185 1.349 . S
C201 H193 0.950 . S
C201 C199 1.327 . S
C202 C190 1.349 . S
C202 H196 0.950 . S
C202 C203 1.327 . S
C203 H197 0.950 . S
C203 C202 1.327 . S
C203 C207 1.429 . S
C204 C187 1.574 . S
C204 H198 0.949 . S
C204 C208 1.368 1_556 S
C205 C186 1.443 . S
C205 C199 1.411 1_554 S
C205 C206 1.526 . S
C206 C187 1.368 1_554 S
C206 C200 1.368 . S
C206 C205 1.526 . S
C207 C191 1.429 1_554 S
C207 C203 1.429 . S
C207 C208 1.523 . S
C208 C192 1.368 . S
C208 C204 1.368 1_554 S
C208 C207 1.523 . S
H209 C184 0.950 . S
H210 C186 0.950 . S
H211 C187 0.949 . S
H212 C189 0.950 . S
H213 C191 0.950 . S
C214 C215 1.349 . S
C214 C216 1.327 . S
C214 H239 0.950 . S
C215 C214 1.349 . S
C215 C231 1.349 . S
C216 C214 1.327 . S
C216 C235 1.429 . S
C216 H240 0.950 . S
C217 C234 1.574 . S
C217 C236 1.368 . S
C217 H241 0.949 . S
H218 C222 0.949 . S
C219 C220 1.349 . S
C219 C221 1.327 . S
C219 H242 0.950 . S
C220 C219 1.349 . S
C220 C232 1.349 . S
C221 C219 1.327 . S
C221 C237 1.429 . S
C221 H243 0.950 . S
C222 H218 0.949 . S
C222 C230 1.574 . S
C222 C238 1.368 . S
H223 C231 0.950 . S
H224 C229 0.950 . S
H225 C230 0.949 . S
H226 C232 0.950 . S
H227 C233 0.950 . S
H228 C234 0.949 . S
C229 H224 0.950 . S
C229 C231 1.327 . S
C229 C235 1.429 . S
C230 C222 1.574 . S
C230 H225 0.949 . S
C230 C236 1.368 . S
C231 C215 1.349 . S
C231 H223 0.950 . S
C231 C229 1.327 . S
C232 C220 1.349 . S
C232 H226 0.950 . S
C232 C233 1.327 . S
C233 H227 0.950 . S
C233 C232 1.327 . S
C233 C237 1.429 . S
C234 C217 1.574 . S
C234 H228 0.949 . S
C234 C238 1.368 . S
C235 C216 1.429 . S
C235 C229 1.429 . S
C235 C236 1.523 . S
C236 C217 1.368 . S
C236 C230 1.368 . S
C236 C235 1.523 . S
C237 C221 1.429 . S
C237 C233 1.429 . S
C237 C238 1.523 . S
C238 C222 1.368 . S
C238 C234 1.368 . S
C238 C237 1.523 . S
H239 C214 0.950 . S
H240 C216 0.950 . S
H241 C217 0.949 . S
H242 C219 0.950 . S
H243 C221 0.950 . S
C244 C245 1.349 . S
C244 C246 1.327 . S
C244 H269 0.950 . S
C245 C244 1.349 . S
C245 C261 1.349 . S
C246 C244 1.327 . S
C246 C265 1.429 . S
C246 H270 0.950 . S
C247 C264 1.574 . S
C247 C266 1.368 . S
C247 H271 0.949 . S
H248 C252 0.949 . S
C249 C250 1.349 . S
C249 C251 1.327 . S
C249 H272 0.950 . S
C250 C249 1.349 . S
C250 C262 1.349 . S
C251 C249 1.327 . S
C251 C267 1.429 . S
C251 H273 0.950 . S
C252 H248 0.949 . S
C252 C260 1.574 . S
C252 C268 1.368 . S
H253 C261 0.950 . S
H254 C259 0.950 . S
H255 C260 0.949 . S
H256 C262 0.950 . S
H257 C263 0.950 . S
H258 C264 0.949 . S
C259 H254 0.950 . S
C259 C261 1.327 . S
C259 C265 1.429 . S
C260 C252 1.574 . S
C260 H255 0.949 . S
C260 C266 1.368 . S
C261 C245 1.349 . S
C261 H253 0.950 . S
C261 C259 1.327 . S
C262 C250 1.349 . S
C262 H256 0.950 . S
C262 C263 1.327 . S
C263 H257 0.950 . S
C263 C262 1.327 . S
C263 C267 1.429 . S
C264 C247 1.574 . S
C264 H258 0.949 . S
C264 C268 1.368 . S
C265 C246 1.429 . S
C265 C259 1.429 . S
C265 C266 1.523 . S
C266 C247 1.368 . S
C266 C260 1.368 . S
C266 C265 1.523 . S
C267 C251 1.429 . S
C267 C263 1.429 . S
C267 C268 1.523 . S
C268 C252 1.368 . S
C268 C264 1.368 . S
C268 C267 1.523 . S
H269 C244 0.950 . S
H270 C246 0.950 . S
H271 C247 0.949 . S
H272 C249 0.950 . S
H273 C251 0.950 . S
C274 C275 1.349 . S
C274 C276 1.327 . S
C274 H299 0.950 . S
C275 C274 1.349 . S
C275 C291 1.349 . S
C276 C274 1.327 . S
C276 C295 1.429 . S
C276 H300 0.950 . S
C277 C294 1.574 . S
C277 C296 1.368 . S
C277 H301 0.949 . S
H278 C282 0.949 . S
C279 C280 1.349 . S
C279 C281 1.327 . S
C279 H302 0.950 . S
C280 C279 1.349 . S
C280 C292 1.349 . S
C281 C279 1.327 . S
C281 C297 1.429 . S
C281 H303 0.950 . S
C282 H278 0.949 . S
C282 C290 1.574 . S
C282 C298 1.368 . S
H283 C291 0.950 . S
H284 C289 0.950 . S
H285 C290 0.949 . S
H286 C292 0.950 . S
H287 C293 0.950 . S
H288 C294 0.949 . S
C289 H284 0.950 . S
C289 C291 1.327 . S
C289 C295 1.429 . S
C290 C282 1.574 . S
C290 H285 0.949 . S
C290 C296 1.368 . S
C291 C275 1.349 . S
C291 H283 0.950 . S
C291 C289 1.327 . S
C292 C280 1.349 . S
C292 H286 0.950 . S
C292 C293 1.327 . S
C293 H287 0.950 . S
C293 C292 1.327 . S
C293 C297 1.429 . S
C294 C277 1.574 . S
C294 H288 0.949 . S
C294 C298 1.368 . S
C295 C276 1.429 . S
C295 C289 1.429 . S
C295 C296 1.523 . S
C296 C277 1.368 . S
C296 C290 1.368 . S
C296 C295 1.523 . S
C297 C281 1.429 . S
C297 C293 1.429 . S
C297 C298 1.523 . S
C298 C282 1.368 . S
C298 C294 1.368 . S
C298 C297 1.523 . S
H299 C274 0.950 . S
H300 C276 0.950 . S
H301 C277 0.949 . S
H302 C279 0.950 . S
H303 C281 0.950 . S
C304 C305 1.349 . S
C304 C306 1.327 . S
C304 H329 0.950 . S
C305 C304 1.349 . S
C305 C321 1.349 . S
C306 C304 1.327 . S
C306 C325 1.429 . S
C306 H330 0.950 . S
C307 C324 1.574 . S
C307 C326 1.368 . S
C307 H331 0.949 . S
H308 C312 0.949 . S
C309 C310 1.349 . S
C309 C311 1.327 . S
C309 H332 0.950 . S
C310 C309 1.349 . S
C310 C322 1.349 . S
C311 C309 1.327 . S
C311 C327 1.429 . S
C311 H333 0.950 . S
C312 H308 0.949 . S
C312 C320 1.574 . S
C312 C328 1.368 . S
H313 C321 0.950 . S
H314 C319 0.950 . S
H315 C320 0.949 . S
H316 C322 0.950 . S
H317 C323 0.950 . S
H318 C324 0.949 . S
C319 H314 0.950 . S
C319 C321 1.327 . S
C319 C325 1.429 . S
C320 C312 1.574 . S
C320 H315 0.949 . S
C320 C326 1.368 . S
C321 C305 1.349 . S
C321 H313 0.950 . S
C321 C319 1.327 . S
C322 C310 1.349 . S
C322 H316 0.950 . S
C322 C323 1.327 . S
C323 H317 0.950 . S
C323 C322 1.327 . S
C323 C327 1.429 . S
C324 C307 1.574 . S
C324 H318 0.949 . S
C324 C328 1.368 . S
C325 C306 1.429 . S
C325 C319 1.429 . S
C325 C326 1.523 . S
C326 C307 1.368 . S
C326 C320 1.368 . S
C326 C325 1.523 . S
C327 C311 1.429 . S
C327 C323 1.429 . S
C327 C328 1.523 . S
C328 C312 1.368 . S
C328 C324 1.368 . S
C328 C327 1.523 . S
H329 C304 0.950 . S
H330 C306 0.950 . S
H331 C307 0.949 . S
H332 C309 0.950 . S
H333 C311 0.950 . S
C334 C335 1.349 . S
C334 C336 1.327 . S
C334 H359 0.950 . S
C335 C334 1.349 . S
C335 C351 1.349 . S
C336 C334 1.327 . S
C336 C355 1.429 . S
C336 H360 0.950 . S
C337 C354 1.574 . S
C337 C356 1.368 . S
C337 H361 0.949 . S
H338 C342 0.949 . S
C339 C340 1.349 . S
C339 C341 1.327 . S
C339 H362 0.950 . S
C340 C339 1.349 . S
C340 C352 1.349 . S
C341 C339 1.327 . S
C341 C357 1.429 . S
C341 H363 0.950 . S
C342 H338 0.949 . S
C342 C350 1.574 . S
C342 C358 1.368 . S
H343 C351 0.950 . S
H344 C349 0.950 . S
H345 C350 0.949 . S
H346 C352 0.950 . S
H347 C353 0.950 . S
H348 C354 0.949 . S
C349 H344 0.950 . S
C349 C351 1.327 . S
C349 C355 1.429 . S
C350 C342 1.574 . S
C350 H345 0.949 . S
C350 C356 1.368 . S
C351 C335 1.349 . S
C351 H343 0.950 . S
C351 C349 1.327 . S
C352 C340 1.349 . S
C352 H346 0.950 . S
C352 C353 1.327 . S
C353 H347 0.950 . S
C353 C352 1.327 . S
C353 C357 1.429 . S
C354 C337 1.574 . S
C354 H348 0.949 . S
C354 C358 1.368 . S
C355 C336 1.429 . S
C355 C349 1.429 . S
C355 C356 1.523 . S
C356 C337 1.368 . S
C356 C350 1.368 . S
C356 C355 1.523 . S
C357 C341 1.429 . S
C357 C353 1.429 . S
C357 C358 1.523 . S
C358 C342 1.368 . S
C358 C354 1.368 . S
C358 C357 1.523 . S
H359 C334 0.950 . S
H360 C336 0.950 . S
H361 C337 0.949 . S
H362 C339 0.950 . S
H363 C341 0.950 . S
C364 C365 1.349 . S
C364 C366 1.327 . S
C364 H389 0.950 . S
C365 C364 1.349 . S
C365 C381 1.349 . S
C366 C364 1.327 . S
C366 C385 1.429 . S
C366 H390 0.950 . S
C367 C384 1.574 . S
C367 C386 1.368 . S
C367 H391 0.949 . S
H368 C372 0.949 . S
C369 C370 1.349 . S
C369 C371 1.327 . S
C369 H392 0.950 . S
C370 C369 1.349 . S
C370 C382 1.349 . S
C371 C369 1.327 . S
C371 C387 1.429 . S
C371 H393 0.950 . S
C372 H368 0.949 . S
C372 C380 1.574 . S
C372 C388 1.368 . S
H373 C381 0.950 . S
H374 C379 0.950 . S
H375 C380 0.949 . S
H376 C382 0.950 . S
H377 C383 0.950 . S
H378 C384 0.949 . S
C379 H374 0.950 . S
C379 C381 1.327 . S
C379 C385 1.429 . S
C380 C372 1.574 . S
C380 H375 0.949 . S
C380 C386 1.368 . S
C381 C365 1.349 . S
C381 H373 0.950 . S
C381 C379 1.327 . S
C382 C370 1.349 . S
C382 H376 0.950 . S
C382 C383 1.327 . S
C383 H377 0.950 . S
C383 C382 1.327 . S
C383 C387 1.429 . S
C384 C367 1.574 . S
C384 H378 0.949 . S
C384 C388 1.368 . S
C385 C366 1.429 . S
C385 C379 1.429 . S
C385 C386 1.523 . S
C386 C367 1.368 . S
C386 C380 1.368 . S
C386 C385 1.523 . S
C387 C371 1.429 . S
C387 C383 1.429 . S
C387 C388 1.523 . S
C388 C372 1.368 . S
C388 C384 1.368 . S
C388 C387 1.523 . S
H389 C364 0.950 . S
H390 C366 0.950 . S
H391 C367 0.949 . S
H392 C369 0.950 . S
H393 C371 0.950 . S
C394 C395 1.349 . S
C394 C396 1.327 . S
C394 H419 0.950 . S
C395 C394 1.349 . S
C395 C411 1.349 . S
C396 C394 1.327 . S
C396 C415 1.429 . S
C396 H420 0.950 . S
C397 C414 1.574 . S
C397 C416 1.368 . S
C397 H421 0.949 . S
H398 C402 0.949 . S
C399 C400 1.349 . S
C399 C401 1.327 . S
C399 H422 0.950 . S
C400 C399 1.349 . S
C400 C412 1.349 . S
C401 C399 1.327 . S
C401 C417 1.429 . S
C401 H423 0.950 . S
C402 H398 0.949 . S
C402 C410 1.574 . S
C402 C418 1.368 . S
H403 C411 0.950 . S
H404 C409 0.950 . S
H405 C410 0.949 . S
H406 C412 0.950 . S
H407 C413 0.950 . S
H408 C414 0.949 . S
C409 H404 0.950 . S
C409 C411 1.327 . S
C409 C415 1.429 . S
C410 C402 1.574 . S
C410 H405 0.949 . S
C410 C416 1.368 . S
C411 C395 1.349 . S
C411 H403 0.950 . S
C411 C409 1.327 . S
C412 C400 1.349 . S
C412 H406 0.950 . S
C412 C413 1.327 . S
C413 H407 0.950 . S
C413 C412 1.327 . S
C413 C417 1.429 . S
C414 C397 1.574 . S
C414 H408 0.949 . S
C414 C418 1.368 . S
C415 C396 1.429 . S
C415 C409 1.429 . S
C415 C416 1.523 . S
C416 C397 1.368 . S
C416 C410 1.368 . S
C416 C415 1.523 . S
C417 C401 1.429 . S
C417 C413 1.429 . S
C417 C418 1.523 . S
C418 C402 1.368 . S
C418 C414 1.368 . S
C418 C417 1.523 . S
H419 C394 0.950 . S
H420 C396 0.950 . S
H421 C397 0.949 . S
H422 C399 0.950 . S
H423 C401 0.950 . S
C424 C425 1.349 . S
C424 C426 1.327 . S
C424 H449 0.950 . S
C425 C424 1.349 . S
C425 C441 1.349 . S
C426 C424 1.327 . S
C426 C445 1.429 . S
C426 H450 0.950 . S
C427 C444 1.574 . S
C427 C446 1.368 . S
C427 H451 0.949 . S
H428 C432 0.949 . S
C429 C430 1.349 . S
C429 C431 1.327 . S
C429 H452 0.950 1_565 S
C430 C429 1.349 . S
C430 C442 1.349 . S
C431 C429 1.327 . S
C431 C447 1.429 . S
C431 H453 0.950 . S
C432 H428 0.949 . S
C432 C440 1.574 . S
C432 C448 1.368 . S
H433 C441 0.950 1_554 S
H434 C439 0.950 . S
H435 C440 0.949 . S
H436 C442 0.950 . S
H437 C443 0.950 . S
H438 C444 0.949 . S
C439 H434 0.950 . S
C439 C441 1.327 . S
C439 C445 1.429 . S
C440 C432 1.574 . S
C440 H435 0.949 . S
C440 C446 1.368 . S
C441 C425 1.349 . S
C441 H433 0.950 1_556 S
C441 C439 1.327 . S
C442 C430 1.349 . S
C442 H436 0.950 . S
C442 C443 1.327 . S
C443 H437 0.950 . S
C443 C442 1.327 . S
C443 C447 1.429 . S
C444 C427 1.574 . S
C444 H438 0.949 . S
C444 C448 1.368 . S
C445 C426 1.429 . S
C445 C439 1.429 . S
C445 C446 1.523 . S
C446 C427 1.368 . S
C446 C440 1.368 . S
C446 C445 1.523 . S
C447 C431 1.429 . S
C447 C443 1.429 . S
C447 C448 1.523 . S
C448 C432 1.368 . S
C448 C444 1.368 . S
C448 C447 1.523 . S
H449 C424 0.950 . S
H450 C426 0.950 . S
H451 C427 0.949 . S
H452 C429 0.950 1_545 S
H453 C431 0.950 . S
C100 C68 1.249 . S
C95 C43 1.373 . S
C125 C4 1.413 . S
C130 C89 1.256 . S
C155 C17 1.563 . S
C160 C65 1.419 . S
C185 C30 1.614 . S
C190 C86 1.425 . S
C220 C70 1.461 . S
C215 C9 1.476 . S
C250 C90 1.525 . S
C245 C21 1.586 . S
C275 C34 1.565 . S
C280 C66 1.518 . S
C305 C48 1.498 . S
C310 C88 1.449 . S
C340 C87 1.505 . S
C335 C22 1.546 . S
C370 C69 1.526 . S
C365 C35 1.562 . S
C400 C91 1.454 . S
C395 C47 1.492 . S
C425 C8 1.508 1_556 S
C430 C67 1.455 . S
