# Generated by pormake.
# Topology tbo, (3,4)-cn, num edge types: 1
# Building blocks:
#     Node 0, Type 0, BuildingBlock: WUSLED_clean_sbu_0, # of connection points: 3
#     Node 1, Type 0, BuildingBlock: WUSLED_clean_sbu_0, # of connection points: 3
#     Node 2, Type 0, BuildingBlock: WUSLED_clean_sbu_0, # of connection points: 3
#     Node 3, Type 0, BuildingBlock: WUSLED_clean_sbu_0, # of connection points: 3
#     Node 4, Type 0, BuildingBlock: WUSLED_clean_sbu_0, # of connection points: 3
#     Node 5, Type 0, BuildingBlock: WUSLED_clean_sbu_0, # of connection points: 3
#     Node 6, Type 0, BuildingBlock: WUSLED_clean_sbu_0, # of connection points: 3
#     Node 7, Type 0, BuildingBlock: WUSLED_clean_sbu_0, # of connection points: 3
#     Node 8, Type 0, BuildingBlock: WUSLED_clean_sbu_0, # of connection points: 3
#     Node 9, Type 0, BuildingBlock: WUSLED_clean_sbu_0, # of connection points: 3
#     Node 10, Type 0, BuildingBlock: WUSLED_clean_sbu_0, # of connection points: 3
#     Node 11, Type 0, BuildingBlock: WUSLED_clean_sbu_0, # of connection points: 3
#     Node 12, Type 0, BuildingBlock: WUSLED_clean_sbu_0, # of connection points: 3
#     Node 13, Type 0, BuildingBlock: WUSLED_clean_sbu_0, # of connection points: 3
#     Node 14, Type 0, BuildingBlock: WUSLED_clean_sbu_0, # of connection points: 3
#     Node 15, Type 0, BuildingBlock: WUSLED_clean_sbu_0, # of connection points: 3
#     Node 16, Type 0, BuildingBlock: WUSLED_clean_sbu_0, # of connection points: 3
#     Node 17, Type 0, BuildingBlock: WUSLED_clean_sbu_0, # of connection points: 3
#     Node 18, Type 0, BuildingBlock: WUSLED_clean_sbu_0, # of connection points: 3
#     Node 19, Type 0, BuildingBlock: WUSLED_clean_sbu_0, # of connection points: 3
#     Node 20, Type 0, BuildingBlock: WUSLED_clean_sbu_0, # of connection points: 3
#     Node 21, Type 0, BuildingBlock: WUSLED_clean_sbu_0, # of connection points: 3
#     Node 22, Type 0, BuildingBlock: WUSLED_clean_sbu_0, # of connection points: 3
#     Node 23, Type 0, BuildingBlock: WUSLED_clean_sbu_0, # of connection points: 3
#     Node 24, Type 0, BuildingBlock: WUSLED_clean_sbu_0, # of connection points: 3
#     Node 25, Type 0, BuildingBlock: WUSLED_clean_sbu_0, # of connection points: 3
#     Node 26, Type 0, BuildingBlock: WUSLED_clean_sbu_0, # of connection points: 3
#     Node 27, Type 0, BuildingBlock: WUSLED_clean_sbu_0, # of connection points: 3
#     Node 28, Type 0, BuildingBlock: WUSLED_clean_sbu_0, # of connection points: 3
#     Node 29, Type 0, BuildingBlock: WUSLED_clean_sbu_0, # of connection points: 3
#     Node 30, Type 0, BuildingBlock: WUSLED_clean_sbu_0, # of connection points: 3
#     Node 31, Type 0, BuildingBlock: WUSLED_clean_sbu_0, # of connection points: 3
#     Node 32, Type 1, BuildingBlock: NAWXER_clean_linker_0, # of connection points: 4
#     Node 33, Type 1, BuildingBlock: NAWXER_clean_linker_0, # of connection points: 4
#     Node 34, Type 1, BuildingBlock: NAWXER_clean_linker_0, # of connection points: 4
#     Node 35, Type 1, BuildingBlock: NAWXER_clean_linker_0, # of connection points: 4
#     Node 36, Type 1, BuildingBlock: NAWXER_clean_linker_0, # of connection points: 4
#     Node 37, Type 1, BuildingBlock: NAWXER_clean_linker_0, # of connection points: 4
#     Node 38, Type 1, BuildingBlock: NAWXER_clean_linker_0, # of connection points: 4
#     Node 39, Type 1, BuildingBlock: NAWXER_clean_linker_0, # of connection points: 4
#     Node 40, Type 1, BuildingBlock: NAWXER_clean_linker_0, # of connection points: 4
#     Node 41, Type 1, BuildingBlock: NAWXER_clean_linker_0, # of connection points: 4
#     Node 42, Type 1, BuildingBlock: NAWXER_clean_linker_0, # of connection points: 4
#     Node 43, Type 1, BuildingBlock: NAWXER_clean_linker_0, # of connection points: 4
#     Node 44, Type 1, BuildingBlock: NAWXER_clean_linker_0, # of connection points: 4
#     Node 45, Type 1, BuildingBlock: NAWXER_clean_linker_0, # of connection points: 4
#     Node 46, Type 1, BuildingBlock: NAWXER_clean_linker_0, # of connection points: 4
#     Node 47, Type 1, BuildingBlock: NAWXER_clean_linker_0, # of connection points: 4
#     Node 48, Type 1, BuildingBlock: NAWXER_clean_linker_0, # of connection points: 4
#     Node 49, Type 1, BuildingBlock: NAWXER_clean_linker_0, # of connection points: 4
#     Node 50, Type 1, BuildingBlock: NAWXER_clean_linker_0, # of connection points: 4
#     Node 51, Type 1, BuildingBlock: NAWXER_clean_linker_0, # of connection points: 4
#     Node 52, Type 1, BuildingBlock: NAWXER_clean_linker_0, # of connection points: 4
#     Node 53, Type 1, BuildingBlock: NAWXER_clean_linker_0, # of connection points: 4
#     Node 54, Type 1, BuildingBlock: NAWXER_clean_linker_0, # of connection points: 4
#     Node 55, Type 1, BuildingBlock: NAWXER_clean_linker_0, # of connection points: 4
#     Edge 56, Type (0, 1), BuildingBlock: KIFKEQ_clean_linker_1, # of connection points: 2
#     Edge 57, Type (0, 1), BuildingBlock: KIFKEQ_clean_linker_1, # of connection points: 2
#     Edge 58, Type (0, 1), BuildingBlock: KIFKEQ_clean_linker_1, # of connection points: 2
#     Edge 59, Type (0, 1), BuildingBlock: KIFKEQ_clean_linker_1, # of connection points: 2
#     Edge 60, Type (0, 1), BuildingBlock: KIFKEQ_clean_linker_1, # of connection points: 2
#     Edge 61, Type (0, 1), BuildingBlock: KIFKEQ_clean_linker_1, # of connection points: 2
#     Edge 62, Type (0, 1), BuildingBlock: KIFKEQ_clean_linker_1, # of connection points: 2
#     Edge 63, Type (0, 1), BuildingBlock: KIFKEQ_clean_linker_1, # of connection points: 2
#     Edge 64, Type (0, 1), BuildingBlock: KIFKEQ_clean_linker_1, # of connection points: 2
#     Edge 65, Type (0, 1), BuildingBlock: KIFKEQ_clean_linker_1, # of connection points: 2
#     Edge 66, Type (0, 1), BuildingBlock: KIFKEQ_clean_linker_1, # of connection points: 2
#     Edge 67, Type (0, 1), BuildingBlock: KIFKEQ_clean_linker_1, # of connection points: 2
#     Edge 68, Type (0, 1), BuildingBlock: KIFKEQ_clean_linker_1, # of connection points: 2
#     Edge 69, Type (0, 1), BuildingBlock: KIFKEQ_clean_linker_1, # of connection points: 2
#     Edge 70, Type (0, 1), BuildingBlock: KIFKEQ_clean_linker_1, # of connection points: 2
#     Edge 71, Type (0, 1), BuildingBlock: KIFKEQ_clean_linker_1, # of connection points: 2
#     Edge 72, Type (0, 1), BuildingBlock: KIFKEQ_clean_linker_1, # of connection points: 2
#     Edge 73, Type (0, 1), BuildingBlock: KIFKEQ_clean_linker_1, # of connection points: 2
#     Edge 74, Type (0, 1), BuildingBlock: KIFKEQ_clean_linker_1, # of connection points: 2
#     Edge 75, Type (0, 1), BuildingBlock: KIFKEQ_clean_linker_1, # of connection points: 2
#     Edge 76, Type (0, 1), BuildingBlock: KIFKEQ_clean_linker_1, # of connection points: 2
#     Edge 77, Type (0, 1), BuildingBlock: KIFKEQ_clean_linker_1, # of connection points: 2
#     Edge 78, Type (0, 1), BuildingBlock: KIFKEQ_clean_linker_1, # of connection points: 2
#     Edge 79, Type (0, 1), BuildingBlock: KIFKEQ_clean_linker_1, # of connection points: 2
#     Edge 80, Type (0, 1), BuildingBlock: KIFKEQ_clean_linker_1, # of connection points: 2
#     Edge 81, Type (0, 1), BuildingBlock: KIFKEQ_clean_linker_1, # of connection points: 2
#     Edge 82, Type (0, 1), BuildingBlock: KIFKEQ_clean_linker_1, # of connection points: 2
#     Edge 83, Type (0, 1), BuildingBlock: KIFKEQ_clean_linker_1, # of connection points: 2
#     Edge 84, Type (0, 1), BuildingBlock: KIFKEQ_clean_linker_1, # of connection points: 2
#     Edge 85, Type (0, 1), BuildingBlock: KIFKEQ_clean_linker_1, # of connection points: 2
#     Edge 86, Type (0, 1), BuildingBlock: KIFKEQ_clean_linker_1, # of connection points: 2
#     Edge 87, Type (0, 1), BuildingBlock: KIFKEQ_clean_linker_1, # of connection points: 2
#     Edge 88, Type (0, 1), BuildingBlock: KIFKEQ_clean_linker_1, # of connection points: 2
#     Edge 89, Type (0, 1), BuildingBlock: KIFKEQ_clean_linker_1, # of connection points: 2
#     Edge 90, Type (0, 1), BuildingBlock: KIFKEQ_clean_linker_1, # of connection points: 2
#     Edge 91, Type (0, 1), BuildingBlock: KIFKEQ_clean_linker_1, # of connection points: 2
#     Edge 92, Type (0, 1), BuildingBlock: KIFKEQ_clean_linker_1, # of connection points: 2
#     Edge 93, Type (0, 1), BuildingBlock: KIFKEQ_clean_linker_1, # of connection points: 2
#     Edge 94, Type (0, 1), BuildingBlock: KIFKEQ_clean_linker_1, # of connection points: 2
#     Edge 95, Type (0, 1), BuildingBlock: KIFKEQ_clean_linker_1, # of connection points: 2
#     Edge 96, Type (0, 1), BuildingBlock: KIFKEQ_clean_linker_1, # of connection points: 2
#     Edge 97, Type (0, 1), BuildingBlock: KIFKEQ_clean_linker_1, # of connection points: 2
#     Edge 98, Type (0, 1), BuildingBlock: KIFKEQ_clean_linker_1, # of connection points: 2
#     Edge 99, Type (0, 1), BuildingBlock: KIFKEQ_clean_linker_1, # of connection points: 2
#     Edge 100, Type (0, 1), BuildingBlock: KIFKEQ_clean_linker_1, # of connection points: 2
#     Edge 101, Type (0, 1), BuildingBlock: KIFKEQ_clean_linker_1, # of connection points: 2
#     Edge 102, Type (0, 1), BuildingBlock: KIFKEQ_clean_linker_1, # of connection points: 2
#     Edge 103, Type (0, 1), BuildingBlock: KIFKEQ_clean_linker_1, # of connection points: 2
#     Edge 104, Type (0, 1), BuildingBlock: KIFKEQ_clean_linker_1, # of connection points: 2
#     Edge 105, Type (0, 1), BuildingBlock: KIFKEQ_clean_linker_1, # of connection points: 2
#     Edge 106, Type (0, 1), BuildingBlock: KIFKEQ_clean_linker_1, # of connection points: 2
#     Edge 107, Type (0, 1), BuildingBlock: KIFKEQ_clean_linker_1, # of connection points: 2
#     Edge 108, Type (0, 1), BuildingBlock: KIFKEQ_clean_linker_1, # of connection points: 2
#     Edge 109, Type (0, 1), BuildingBlock: KIFKEQ_clean_linker_1, # of connection points: 2
#     Edge 110, Type (0, 1), BuildingBlock: KIFKEQ_clean_linker_1, # of connection points: 2
#     Edge 111, Type (0, 1), BuildingBlock: KIFKEQ_clean_linker_1, # of connection points: 2
#     Edge 112, Type (0, 1), BuildingBlock: KIFKEQ_clean_linker_1, # of connection points: 2
#     Edge 113, Type (0, 1), BuildingBlock: KIFKEQ_clean_linker_1, # of connection points: 2
#     Edge 114, Type (0, 1), BuildingBlock: KIFKEQ_clean_linker_1, # of connection points: 2
#     Edge 115, Type (0, 1), BuildingBlock: KIFKEQ_clean_linker_1, # of connection points: 2
#     Edge 116, Type (0, 1), BuildingBlock: KIFKEQ_clean_linker_1, # of connection points: 2
#     Edge 117, Type (0, 1), BuildingBlock: KIFKEQ_clean_linker_1, # of connection points: 2
#     Edge 118, Type (0, 1), BuildingBlock: KIFKEQ_clean_linker_1, # of connection points: 2
#     Edge 119, Type (0, 1), BuildingBlock: KIFKEQ_clean_linker_1, # of connection points: 2
#     Edge 120, Type (0, 1), BuildingBlock: KIFKEQ_clean_linker_1, # of connection points: 2
#     Edge 121, Type (0, 1), BuildingBlock: KIFKEQ_clean_linker_1, # of connection points: 2
#     Edge 122, Type (0, 1), BuildingBlock: KIFKEQ_clean_linker_1, # of connection points: 2
#     Edge 123, Type (0, 1), BuildingBlock: KIFKEQ_clean_linker_1, # of connection points: 2
#     Edge 124, Type (0, 1), BuildingBlock: KIFKEQ_clean_linker_1, # of connection points: 2
#     Edge 125, Type (0, 1), BuildingBlock: KIFKEQ_clean_linker_1, # of connection points: 2
#     Edge 126, Type (0, 1), BuildingBlock: KIFKEQ_clean_linker_1, # of connection points: 2
#     Edge 127, Type (0, 1), BuildingBlock: KIFKEQ_clean_linker_1, # of connection points: 2
#     Edge 128, Type (0, 1), BuildingBlock: KIFKEQ_clean_linker_1, # of connection points: 2
#     Edge 129, Type (0, 1), BuildingBlock: KIFKEQ_clean_linker_1, # of connection points: 2
#     Edge 130, Type (0, 1), BuildingBlock: KIFKEQ_clean_linker_1, # of connection points: 2
#     Edge 131, Type (0, 1), BuildingBlock: KIFKEQ_clean_linker_1, # of connection points: 2
#     Edge 132, Type (0, 1), BuildingBlock: KIFKEQ_clean_linker_1, # of connection points: 2
#     Edge 133, Type (0, 1), BuildingBlock: KIFKEQ_clean_linker_1, # of connection points: 2
#     Edge 134, Type (0, 1), BuildingBlock: KIFKEQ_clean_linker_1, # of connection points: 2
#     Edge 135, Type (0, 1), BuildingBlock: KIFKEQ_clean_linker_1, # of connection points: 2
#     Edge 136, Type (0, 1), BuildingBlock: KIFKEQ_clean_linker_1, # of connection points: 2
#     Edge 137, Type (0, 1), BuildingBlock: KIFKEQ_clean_linker_1, # of connection points: 2
#     Edge 138, Type (0, 1), BuildingBlock: KIFKEQ_clean_linker_1, # of connection points: 2
#     Edge 139, Type (0, 1), BuildingBlock: KIFKEQ_clean_linker_1, # of connection points: 2
#     Edge 140, Type (0, 1), BuildingBlock: KIFKEQ_clean_linker_1, # of connection points: 2
#     Edge 141, Type (0, 1), BuildingBlock: KIFKEQ_clean_linker_1, # of connection points: 2
#     Edge 142, Type (0, 1), BuildingBlock: KIFKEQ_clean_linker_1, # of connection points: 2
#     Edge 143, Type (0, 1), BuildingBlock: KIFKEQ_clean_linker_1, # of connection points: 2
#     Edge 144, Type (0, 1), BuildingBlock: KIFKEQ_clean_linker_1, # of connection points: 2
#     Edge 145, Type (0, 1), BuildingBlock: KIFKEQ_clean_linker_1, # of connection points: 2
#     Edge 146, Type (0, 1), BuildingBlock: KIFKEQ_clean_linker_1, # of connection points: 2
#     Edge 147, Type (0, 1), BuildingBlock: KIFKEQ_clean_linker_1, # of connection points: 2
#     Edge 148, Type (0, 1), BuildingBlock: KIFKEQ_clean_linker_1, # of connection points: 2
#     Edge 149, Type (0, 1), BuildingBlock: KIFKEQ_clean_linker_1, # of connection points: 2
#     Edge 150, Type (0, 1), BuildingBlock: KIFKEQ_clean_linker_1, # of connection points: 2
#     Edge 151, Type (0, 1), BuildingBlock: KIFKEQ_clean_linker_1, # of connection points: 2
# Relax obj value: 0.000
# Max RMSD: 0.012
# Mean RMSD: 0.006
data_MOF--net-tbo--node1-WUSLED_clean_sbu_0--node2-NAWXER_clean_linker_0--edge1-KIFKEQ_clean_linker_1
_symmetry_space_group_name_H-M    P1
_symmetry_Int_Tables_number       1
_symmetry_cell_setting            triclinic
loop_
_symmetry_equiv_pos_as_xyz
'x, y, z'
_cell_length_a     108.77076
_cell_length_b     108.99772
_cell_length_c     108.86706
_cell_angle_alpha  89.713921
_cell_angle_beta   90.28469
_cell_angle_gamma 90.621011
loop_
_atom_site_label
_atom_site_type_symbol
_atom_site_fract_x
_atom_site_fract_y
_atom_site_fract_z
_atom_type_partial_charge
C0 C 0.18629 0.15453 0.20429 0.0
C1 C 0.19668 0.15058 0.19787 0.0
C2 C 0.19895 0.13333 0.21207 0.0
C3 C 0.20296 0.14008 0.20174 0.0
C4 C 0.18854 0.1374 0.21845 0.0
C5 C 0.18229 0.14789 0.21458 0.0
U6 U 0.18095 0.18186 0.18262 0.0
O7 O 0.16361 0.18942 0.17559 0.0
O8 O 0.1758 0.20082 0.18703 0.0
C9 C 0.16506 0.19983 0.18152 0.0
C10 C 0.17953 0.16554 0.20043 0.0
C11 C 0.1544 0.20392 0.18867 0.0
C12 C 0.13793 0.20002 0.20327 0.0
C13 C 0.14818 0.19595 0.19675 0.0
C14 C 0.14015 0.22009 0.19384 0.0
C15 C 0.13378 0.21215 0.20188 0.0
C16 C 0.15034 0.216 0.1873 0.0
C17 C 0.20239 0.18685 0.15499 0.0
C18 C 0.20044 0.20363 0.14031 0.0
C19 C 0.2166 0.18873 0.13793 0.0
C20 C 0.21253 0.18257 0.14847 0.0
C21 C 0.2106 0.19932 0.13368 0.0
C22 C 0.19635 0.19743 0.15088 0.0
C23 C 0.19832 0.18012 0.16603 0.0
O24 O 0.18556 0.176 0.20145 0.0
O25 O 0.17334 0.16458 0.19007 0.0
O26 O 0.18763 0.17445 0.16513 0.0
O27 O 0.19984 0.18587 0.17652 0.0
H28 H 0.19989 0.15561 0.18987 0.0
H29 H 0.21086 0.13715 0.19655 0.0
H30 H 0.18529 0.13257 0.22654 0.0
H31 H 0.17431 0.15084 0.21967 0.0
H32 H 0.13333 0.19371 0.20948 0.0
H33 H 0.15123 0.18659 0.19798 0.0
H34 H 0.13712 0.22943 0.19242 0.0
H35 H 0.15502 0.22228 0.1811 0.0
H36 H 0.19553 0.21168 0.13724 0.0
H37 H 0.22457 0.18526 0.1332 0.0
H38 H 0.21733 0.17444 0.15155 0.0
H39 H 0.18848 0.20086 0.15581 0.0
C40 C 0.82338 0.18629 0.15598 0.0
C41 C 0.82956 0.19692 0.15194 0.0
C42 C 0.81523 0.1988 0.13475 0.0
C43 C 0.82551 0.20314 0.14141 0.0
C44 C 0.80909 0.18814 0.1389 0.0
C45 C 0.81313 0.18196 0.14942 0.0
U46 U 0.84568 0.18201 0.18279 0.0
O47 O 0.84208 0.17676 0.20198 0.0
O48 O 0.85356 0.1651 0.19046 0.0
C49 C 0.84785 0.16628 0.20099 0.0
C50 C 0.82752 0.17962 0.16698 0.0
C51 C 0.84093 0.1554 0.20517 0.0
C52 C 0.82365 0.14121 0.2032 0.0
C53 C 0.83017 0.15158 0.19908 0.0
C54 C 0.83863 0.13841 0.2195 0.0
C55 C 0.8278 0.13451 0.21348 0.0
C56 C 0.84512 0.14876 0.21537 0.0
C57 C 0.87264 0.20439 0.18696 0.0
C58 C 0.88781 0.20209 0.20327 0.0
C59 C 0.88917 0.21936 0.18921 0.0
C60 C 0.87864 0.21515 0.18308 0.0
C61 C 0.89391 0.21287 0.19936 0.0
C62 C 0.87725 0.19788 0.19711 0.0
C63 C 0.86163 0.2001 0.18033 0.0
O64 O 0.83803 0.17391 0.1659 0.0
O65 O 0.82654 0.18558 0.17739 0.0
O66 O 0.8512 0.20116 0.18626 0.0
O67 O 0.86268 0.18951 0.17472 0.0
H68 H 0.83753 0.20037 0.1569 0.0
H69 H 0.83052 0.21124 0.1384 0.0
H70 H 0.80104 0.18466 0.13411 0.0
H71 H 0.80824 0.17378 0.15245 0.0
H72 H 0.81528 0.13855 0.19843 0.0
H73 H 0.8268 0.15663 0.19118 0.0
H74 H 0.84218 0.13337 0.22732 0.0
H75 H 0.85345 0.15157 0.22014 0.0
H76 H 0.89128 0.19681 0.21096 0.0
H77 H 0.89351 0.22779 0.18608 0.0
H78 H 0.87516 0.2203 0.17529 0.0
H79 H 0.87272 0.18953 0.20022 0.0
C80 C 0.82463 0.84167 0.15464 0.0
C81 C 0.83088 0.83115 0.15086 0.0
C82 C 0.81639 0.8284 0.13386 0.0
C83 C 0.82681 0.82458 0.14054 0.0
C84 C 0.81024 0.839 0.1377 0.0
C85 C 0.81432 0.84555 0.14798 0.0
U86 U 0.84597 0.84737 0.18233 0.0
O87 O 0.85356 0.8648 0.18936 0.0
O88 O 0.84136 0.85358 0.20093 0.0
C89 C 0.84742 0.864 0.19971 0.0
C90 C 0.82864 0.84872 0.16547 0.0
C91 C 0.84077 0.87509 0.20336 0.0
C92 C 0.8239 0.8894 0.20095 0.0
C93 C 0.8301 0.87886 0.19717 0.0
C94 C 0.83903 0.8925 0.21707 0.0
C95 C 0.82831 0.89637 0.21094 0.0
C96 C 0.84518 0.88198 0.21331 0.0
C97 C 0.87248 0.82538 0.18933 0.0
C98 C 0.88872 0.8294 0.20427 0.0
C99 C 0.88692 0.80938 0.19482 0.0
C100 C 0.87674 0.81337 0.18806 0.0
C101 C 0.89308 0.81735 0.20299 0.0
C102 C 0.87848 0.83337 0.19752 0.0
C103 C 0.86184 0.82937 0.18194 0.0
O104 O 0.82709 0.84325 0.17614 0.0
O105 O 0.83933 0.85438 0.16453 0.0
O106 O 0.86332 0.83966 0.17575 0.0
O107 O 0.8511 0.8285 0.18736 0.0
H108 H 0.83887 0.82801 0.15592 0.0
H109 H 0.8317 0.8164 0.13792 0.0
H110 H 0.80232 0.84234 0.13268 0.0
H111 H 0.80941 0.85368 0.15073 0.0
H112 H 0.81576 0.89217 0.19594 0.0
H113 H 0.82658 0.87365 0.18945 0.0
H114 H 0.84258 0.8975 0.22492 0.0
H115 H 0.85338 0.87918 0.21823 0.0
H116 H 0.89315 0.83572 0.21057 0.0
H117 H 0.89011 0.80011 0.19347 0.0
H118 H 0.87223 0.80708 0.18176 0.0
H119 H 0.87528 0.84267 0.19867 0.0
C120 C 0.1545 0.82423 0.18752 0.0
C121 C 0.15047 0.83053 0.19794 0.0
C122 C 0.1333 0.81611 0.2002 0.0
C123 C 0.13996 0.8265 0.20424 0.0
C124 C 0.13747 0.80983 0.18977 0.0
C125 C 0.14796 0.81386 0.18351 0.0
U126 U 0.18172 0.84625 0.18241 0.0
O127 O 0.20064 0.84231 0.17669 0.0
O128 O 0.18897 0.85401 0.16518 0.0
C129 C 0.19946 0.84822 0.1662 0.0
C130 C 0.16543 0.82835 0.18068 0.0
C131 C 0.20339 0.84154 0.15521 0.0
C132 C 0.20094 0.82486 0.14062 0.0
C133 C 0.19705 0.83103 0.15116 0.0
C134 C 0.21752 0.83968 0.13814 0.0
C135 C 0.21121 0.82914 0.13395 0.0
C136 C 0.21363 0.84581 0.14865 0.0
C137 C 0.18711 0.87319 0.20435 0.0
C138 C 0.20369 0.88811 0.20177 0.0
C139 C 0.1896 0.88993 0.21881 0.0
C140 C 0.1833 0.87941 0.21487 0.0
C141 C 0.19985 0.89446 0.21229 0.0
C142 C 0.19736 0.87756 0.19782 0.0
C143 C 0.18021 0.86223 0.20031 0.0
O144 O 0.16438 0.83888 0.17485 0.0
O145 O 0.17599 0.82723 0.18648 0.0
O146 O 0.18602 0.85177 0.20139 0.0
O147 O 0.17426 0.86335 0.18984 0.0
H148 H 0.15542 0.83859 0.20115 0.0
H149 H 0.13695 0.83162 0.21215 0.0
H150 H 0.1327 0.80169 0.18652 0.0
H151 H 0.15097 0.80886 0.17551 0.0
H152 H 0.1958 0.81686 0.1376 0.0
H153 H 0.18909 0.82762 0.15611 0.0
H154 H 0.22557 0.84312 0.13336 0.0
H155 H 0.21866 0.85389 0.15169 0.0
H156 H 0.21146 0.8914 0.19646 0.0
H157 H 0.1865 0.89446 0.22705 0.0
H158 H 0.17543 0.87613 0.22004 0.0
H159 H 0.20041 0.87287 0.18966 0.0
C160 C 0.15494 0.82383 0.84298 0.0
C161 C 0.15067 0.83047 0.83277 0.0
C162 C 0.13373 0.81587 0.83015 0.0
C163 C 0.14016 0.82652 0.8264 0.0
C164 C 0.13812 0.80925 0.84038 0.0
C165 C 0.14862 0.81321 0.84673 0.0
U166 U 0.18196 0.84591 0.84753 0.0
O167 O 0.18969 0.85382 0.86448 0.0
O168 O 0.20112 0.84226 0.85282 0.0
C169 C 0.20019 0.84811 0.86329 0.0
C170 C 0.16593 0.82787 0.8498 0.0
C171 C 0.20438 0.84132 0.8742 0.0
C172 C 0.20246 0.82418 0.88846 0.0
C173 C 0.1983 0.83058 0.87808 0.0
C174 C 0.21879 0.83925 0.89116 0.0
C175 C 0.21279 0.82843 0.89511 0.0
C176 C 0.21462 0.84562 0.8808 0.0
C177 C 0.18662 0.87259 0.82512 0.0
C178 C 0.20377 0.88695 0.82697 0.0
C179 C 0.18894 0.88929 0.81046 0.0
C180 C 0.18248 0.87899 0.81474 0.0
C181 C 0.19968 0.89339 0.8165 0.0
C182 C 0.19729 0.87663 0.83124 0.0
C183 C 0.17976 0.86172 0.8294 0.0
O184 O 0.17639 0.8268 0.84393 0.0
O185 O 0.16494 0.83839 0.85554 0.0
O186 O 0.17414 0.8629 0.83998 0.0
O187 O 0.18552 0.85124 0.82835 0.0
H188 H 0.15545 0.83872 0.82977 0.0
H189 H 0.13696 0.8319 0.81866 0.0
H190 H 0.13352 0.80091 0.8434 0.0
H191 H 0.15183 0.80795 0.85457 0.0
H192 H 0.19771 0.81583 0.89116 0.0
H193 H 0.19037 0.82712 0.87306 0.0
H194 H 0.22664 0.84289 0.89617 0.0
H195 H 0.21938 0.85393 0.87795 0.0
H196 H 0.21207 0.88978 0.83176 0.0
H197 H 0.18543 0.89414 0.8025 0.0
H198 H 0.17423 0.87601 0.80994 0.0
H199 H 0.20062 0.87176 0.83928 0.0
C200 C 0.15266 0.18561 0.82599 0.0
C201 C 0.15071 0.19758 0.83022 0.0
C202 C 0.13153 0.19863 0.81853 0.0
C203 C 0.14025 0.20405 0.82649 0.0
C204 C 0.13352 0.18659 0.81442 0.0
C205 C 0.14399 0.18017 0.81811 0.0
U206 U 0.18045 0.18 0.84702 0.0
O207 O 0.18794 0.16261 0.854 0.0
O208 O 0.1993 0.17462 0.84235 0.0
C209 C 0.19834 0.16398 0.84802 0.0
C210 C 0.16368 0.17869 0.8296 0.0
C211 C 0.20242 0.15326 0.84102 0.0
C212 C 0.20018 0.13894 0.82405 0.0
C213 C 0.196 0.14912 0.83059 0.0
C214 C 0.2172 0.13695 0.83834 0.0
C215 C 0.21088 0.13275 0.82783 0.0
C216 C 0.213 0.14709 0.84485 0.0
C217 C 0.18625 0.20153 0.8744 0.0
C218 C 0.20314 0.19934 0.88896 0.0
C219 C 0.18865 0.21588 0.89126 0.0
C220 C 0.18228 0.21184 0.88083 0.0
C221 C 0.19914 0.20967 0.89551 0.0
C222 C 0.19673 0.19529 0.8785 0.0
C223 C 0.17925 0.19746 0.86353 0.0
O224 O 0.17426 0.18449 0.82828 0.0
O225 O 0.16288 0.17256 0.83999 0.0
O226 O 0.17346 0.18687 0.8646 0.0
O227 O 0.18482 0.19885 0.85291 0.0
H228 H 0.15727 0.20191 0.83638 0.0
H229 H 0.13894 0.21324 0.82994 0.0
H230 H 0.12709 0.18219 0.80817 0.0
H231 H 0.14534 0.17095 0.81474 0.0
H232 H 0.19516 0.13603 0.81595 0.0
H233 H 0.1878 0.1538 0.82749 0.0
H234 H 0.22533 0.1323 0.84165 0.0
H235 H 0.21805 0.15012 0.85291 0.0
H236 H 0.21111 0.19428 0.89202 0.0
H237 H 0.18542 0.22398 0.89592 0.0
H238 H 0.17424 0.2168 0.87778 0.0
H239 H 0.19991 0.18729 0.87364 0.0
C240 C 0.82311 0.15515 0.84322 0.0
C241 C 0.82911 0.15151 0.83247 0.0
C242 C 0.81466 0.13437 0.8301 0.0
C243 C 0.82492 0.1412 0.82597 0.0
C244 C 0.80877 0.13808 0.84094 0.0
C245 C 0.81296 0.14836 0.84741 0.0
U246 U 0.84511 0.18234 0.84836 0.0
O247 O 0.8411 0.20123 0.85402 0.0
O248 O 0.85285 0.18966 0.86558 0.0
C249 C 0.84702 0.20011 0.86451 0.0
C250 C 0.82725 0.16601 0.85013 0.0
C251 C 0.84032 0.2041 0.87547 0.0
C252 C 0.82366 0.20171 0.89013 0.0
C253 C 0.82986 0.19773 0.87965 0.0
C254 C 0.83832 0.21845 0.89231 0.0
C255 C 0.82784 0.21211 0.89662 0.0
C256 C 0.84449 0.21447 0.88185 0.0
C257 C 0.87193 0.18784 0.82617 0.0
C258 C 0.88639 0.20491 0.82807 0.0
C259 C 0.88858 0.19028 0.81156 0.0
C260 C 0.87827 0.18382 0.81581 0.0
C261 C 0.89277 0.20094 0.8176 0.0
C262 C 0.87604 0.19842 0.83231 0.0
C263 C 0.86105 0.1809 0.83038 0.0
O264 O 0.83784 0.16496 0.85589 0.0
O265 O 0.82606 0.17658 0.84441 0.0
O266 O 0.85051 0.18659 0.82934 0.0
O267 O 0.8623 0.17505 0.84089 0.0
H268 H 0.83697 0.15667 0.82909 0.0
H269 H 0.8296 0.13869 0.81761 0.0
H270 H 0.80098 0.13294 0.84451 0.0
H271 H 0.80825 0.15102 0.85572 0.0
H272 H 0.81569 0.19654 0.89325 0.0
H273 H 0.82653 0.18967 0.87482 0.0
H274 H 0.84169 0.2266 0.89694 0.0
H275 H 0.85253 0.21953 0.87872 0.0
H276 H 0.88928 0.21313 0.83287 0.0
H277 H 0.89337 0.18684 0.80362 0.0
H278 H 0.87525 0.17564 0.81099 0.0
H279 H 0.87123 0.20166 0.84033 0.0
C280 C 0.8413 0.87458 0.82459 0.0
C281 C 0.83109 0.87869 0.83116 0.0
C282 C 0.82865 0.89579 0.81679 0.0
C283 C 0.8248 0.8892 0.82728 0.0
C284 C 0.83887 0.89153 0.81024 0.0
C285 C 0.84512 0.88105 0.81411 0.0
U286 U 0.84688 0.84726 0.84626 0.0
O287 O 0.85245 0.82842 0.84187 0.0
O288 O 0.86433 0.84003 0.85341 0.0
C289 C 0.86307 0.82956 0.84758 0.0
C290 C 0.84815 0.86365 0.82849 0.0
C291 C 0.87392 0.82549 0.84072 0.0
C292 C 0.88876 0.82798 0.82423 0.0
C293 C 0.87829 0.83199 0.83045 0.0
C294 C 0.89049 0.81093 0.83847 0.0
C295 C 0.89503 0.81742 0.82821 0.0
C296 C 0.88006 0.81494 0.84465 0.0
C297 C 0.82574 0.84156 0.87387 0.0
C298 C 0.82602 0.82306 0.88648 0.0
C299 C 0.81407 0.84052 0.89283 0.0
C300 C 0.81786 0.84698 0.88236 0.0
C301 C 0.81808 0.82847 0.89503 0.0
C302 C 0.82985 0.82956 0.87601 0.0
C303 C 0.8295 0.84855 0.86287 0.0
O304 O 0.85426 0.86466 0.83889 0.0
O305 O 0.84225 0.85311 0.82743 0.0
O306 O 0.82806 0.84291 0.85231 0.0
O307 O 0.84003 0.85452 0.86376 0.0
H308 H 0.82802 0.87381 0.8393 0.0
H309 H 0.81705 0.89227 0.83262 0.0
H310 H 0.84198 0.89623 0.80201 0.0
H311 H 0.85296 0.87798 0.80889 0.0
H312 H 0.89205 0.83325 0.81643 0.0
H313 H 0.87366 0.84019 0.8273 0.0
H314 H 0.89493 0.80266 0.84167 0.0
H315 H 0.87678 0.80978 0.85254 0.0
H316 H 0.82939 0.81385 0.88795 0.0
H317 H 0.80783 0.84491 0.89912 0.0
H318 H 0.81458 0.85622 0.88086 0.0
H319 H 0.83601 0.82524 0.86958 0.0
C320 C 0.18672 0.65499 0.70507 0.0
C321 C 0.19515 0.64931 0.69727 0.0
C322 C 0.19999 0.63431 0.71326 0.0
C323 C 0.2017 0.63903 0.70131 0.0
C324 C 0.19157 0.64013 0.72104 0.0
C325 C 0.18501 0.65035 0.71697 0.0
U326 U 0.18074 0.68169 0.68287 0.0
O327 O 0.16326 0.6886 0.67545 0.0
O328 O 0.17499 0.70058 0.68676 0.0
C329 C 0.16439 0.69921 0.68105 0.0
C330 C 0.17961 0.6657 0.70099 0.0
C331 C 0.1535 0.70332 0.6878 0.0
C332 C 0.13862 0.70098 0.70429 0.0
C333 C 0.14908 0.6969 0.69811 0.0
C334 C 0.13697 0.71795 0.68994 0.0
C335 C 0.1324 0.71155 0.70025 0.0
C336 C 0.14739 0.71386 0.6838 0.0
C337 C 0.20238 0.68677 0.65544 0.0
C338 C 0.20039 0.7035 0.6407 0.0
C339 C 0.21654 0.68858 0.63832 0.0
C340 C 0.21249 0.68246 0.64889 0.0
C341 C 0.21054 0.69917 0.63406 0.0
C342 C 0.19633 0.69733 0.6513 0.0
C343 C 0.19837 0.68012 0.66654 0.0
O344 O 0.18529 0.67637 0.70189 0.0
O345 O 0.17352 0.6644 0.69061 0.0
O346 O 0.18786 0.67413 0.66564 0.0
O347 O 0.19959 0.68611 0.67693 0.0
H348 H 0.19664 0.65281 0.68806 0.0
H349 H 0.2082 0.63487 0.69514 0.0
H350 H 0.1899 0.63665 0.73022 0.0
H351 H 0.17853 0.65461 0.72312 0.0
H352 H 0.1353 0.69577 0.71212 0.0
H353 H 0.15368 0.68871 0.70132 0.0
H354 H 0.13257 0.72623 0.68669 0.0
H355 H 0.15071 0.71897 0.67589 0.0
H356 H 0.19548 0.71155 0.63763 0.0
H357 H 0.22449 0.68509 0.63358 0.0
H358 H 0.2173 0.67434 0.65198 0.0
H359 H 0.18848 0.70079 0.65624 0.0
C360 C 0.8227 0.68749 0.65658 0.0
C361 C 0.8294 0.69763 0.65212 0.0
C362 C 0.81411 0.7007 0.63596 0.0
C363 C 0.82515 0.70418 0.64188 0.0
C364 C 0.80746 0.69053 0.64053 0.0
C365 C 0.81173 0.68399 0.65074 0.0
U366 U 0.84521 0.68237 0.68313 0.0
O367 O 0.84175 0.67617 0.70205 0.0
O368 O 0.85334 0.66521 0.68996 0.0
C369 C 0.84765 0.66582 0.70055 0.0
C370 C 0.82704 0.68043 0.66726 0.0
C371 C 0.84091 0.65466 0.70428 0.0
C372 C 0.82271 0.64154 0.70352 0.0
C373 C 0.82906 0.65213 0.69973 0.0
C374 C 0.84006 0.63583 0.71628 0.0
C375 C 0.82814 0.63328 0.71185 0.0
C376 C 0.84638 0.64644 0.71253 0.0
C377 C 0.87177 0.70492 0.68854 0.0
C378 C 0.88802 0.70118 0.70345 0.0
C379 C 0.88676 0.72091 0.6932 0.0
C380 C 0.87638 0.71683 0.68671 0.0
C381 C 0.89272 0.71313 0.70163 0.0
C382 C 0.8776 0.69712 0.69699 0.0
C383 C 0.86085 0.70081 0.68161 0.0
O384 O 0.83766 0.67498 0.66587 0.0
O385 O 0.82598 0.68588 0.67793 0.0
O386 O 0.85038 0.70142 0.68754 0.0
O387 O 0.86207 0.69056 0.67545 0.0
H388 H 0.83789 0.70047 0.65657 0.0
H389 H 0.83042 0.71204 0.63868 0.0
H390 H 0.79903 0.68749 0.6361 0.0
H391 H 0.80647 0.67616 0.65405 0.0
H392 H 0.8136 0.63977 0.69983 0.0
H393 H 0.82472 0.65835 0.69328 0.0
H394 H 0.84445 0.62974 0.72281 0.0
H395 H 0.85552 0.64826 0.71613 0.0
H396 H 0.89231 0.69501 0.70998 0.0
H397 H 0.89022 0.73011 0.69147 0.0
H398 H 0.87199 0.72296 0.68022 0.0
H399 H 0.8741 0.6879 0.69857 0.0
C400 C 0.82385 0.34027 0.65554 0.0
C401 C 0.83186 0.33219 0.64968 0.0
C402 C 0.81582 0.32672 0.63487 0.0
C403 C 0.8279 0.3255 0.63941 0.0
C404 C 0.80782 0.33476 0.64088 0.0
C405 C 0.81181 0.34147 0.6511 0.0
U406 U 0.8458 0.34698 0.68244 0.0
O407 O 0.85316 0.36464 0.68908 0.0
O408 O 0.8417 0.35319 0.70117 0.0
C409 C 0.84744 0.36376 0.69966 0.0
C410 C 0.82785 0.34761 0.6662 0.0
C411 C 0.84065 0.3747 0.70348 0.0
C412 C 0.82368 0.3889 0.70119 0.0
C413 C 0.82993 0.37842 0.69735 0.0
C414 C 0.83882 0.39201 0.71729 0.0
C415 C 0.82808 0.39586 0.7112 0.0
C416 C 0.84503 0.38155 0.71346 0.0
C417 C 0.87323 0.32574 0.6883 0.0
C418 C 0.88779 0.32837 0.70514 0.0
C419 C 0.8904 0.31185 0.69062 0.0
C420 C 0.87987 0.31559 0.6843 0.0
C421 C 0.89454 0.3182 0.70112 0.0
C422 C 0.87723 0.33213 0.69877 0.0
C423 C 0.86218 0.32945 0.68142 0.0
O424 O 0.82683 0.34218 0.67696 0.0
O425 O 0.83826 0.35372 0.66492 0.0
O426 O 0.86314 0.33978 0.6752 0.0
O427 O 0.85171 0.32833 0.68732 0.0
H428 H 0.84119 0.33109 0.65303 0.0
H429 H 0.83425 0.31929 0.6351 0.0
H430 H 0.79852 0.33606 0.63755 0.0
H431 H 0.8055 0.34768 0.65549 0.0
H432 H 0.8155 0.39165 0.69622 0.0
H433 H 0.82642 0.37323 0.68959 0.0
H434 H 0.84237 0.397 0.72515 0.0
H435 H 0.85327 0.37879 0.71833 0.0
H436 H 0.89077 0.33355 0.71311 0.0
H437 H 0.89523 0.30386 0.68737 0.0
H438 H 0.87688 0.31052 0.67626 0.0
H439 H 0.87221 0.34001 0.70199 0.0
C440 C 0.15506 0.32389 0.68896 0.0
C441 C 0.14965 0.33163 0.69761 0.0
C442 C 0.13436 0.31582 0.70247 0.0
C443 C 0.13936 0.32765 0.70428 0.0
C444 C 0.1399 0.30809 0.69384 0.0
C445 C 0.15014 0.3121 0.68715 0.0
U446 U 0.18203 0.3459 0.683 0.0
O447 O 0.20093 0.34199 0.67719 0.0
O448 O 0.18908 0.35342 0.66558 0.0
C449 C 0.19963 0.34772 0.66662 0.0
C450 C 0.1658 0.32791 0.68176 0.0
C451 C 0.20354 0.34087 0.65573 0.0
C452 C 0.20115 0.32388 0.64149 0.0
C453 C 0.19717 0.33031 0.65182 0.0
C454 C 0.21786 0.33853 0.63888 0.0
C455 C 0.21159 0.32788 0.63491 0.0
C456 C 0.21387 0.34494 0.64918 0.0
C457 C 0.18762 0.3729 0.70491 0.0
C458 C 0.20422 0.38782 0.7024 0.0
C459 C 0.19066 0.38905 0.71994 0.0
C460 C 0.18415 0.37875 0.71575 0.0
C461 C 0.20081 0.3937 0.71335 0.0
C462 C 0.19768 0.37748 0.69823 0.0
C463 C 0.18069 0.36198 0.70083 0.0
O464 O 0.16462 0.33835 0.6758 0.0
O465 O 0.17649 0.32688 0.68733 0.0
O466 O 0.18647 0.35151 0.70191 0.0
O467 O 0.17472 0.3631 0.69037 0.0
H468 H 0.15337 0.34075 0.69918 0.0
H469 H 0.13541 0.33378 0.71095 0.0
H470 H 0.13621 0.29899 0.69209 0.0
H471 H 0.1542 0.306 0.6805 0.0
H472 H 0.19618 0.31566 0.63877 0.0
H473 H 0.18917 0.32703 0.6568 0.0
H474 H 0.2258 0.34199 0.63394 0.0
H475 H 0.21886 0.3531 0.65205 0.0
H476 H 0.21204 0.39109 0.69717 0.0
H477 H 0.18765 0.39345 0.72828 0.0
H478 H 0.17637 0.37536 0.721 0.0
H479 H 0.20051 0.37303 0.68984 0.0
C480 C 0.15545 0.32354 0.34212 0.0
C481 C 0.14986 0.33128 0.33345 0.0
C482 C 0.13469 0.31536 0.32871 0.0
C483 C 0.13954 0.32724 0.32683 0.0
C484 C 0.1404 0.30763 0.33736 0.0
C485 C 0.15068 0.3117 0.34401 0.0
U486 U 0.18188 0.34612 0.34762 0.0
O487 O 0.18919 0.35378 0.36485 0.0
O488 O 0.20106 0.34278 0.35307 0.0
C489 C 0.19986 0.34838 0.36365 0.0
C490 C 0.16626 0.32765 0.34919 0.0
C491 C 0.20416 0.34152 0.37447 0.0
C492 C 0.2024 0.32432 0.38866 0.0
C493 C 0.19815 0.33073 0.37833 0.0
C494 C 0.21866 0.33945 0.39134 0.0
C495 C 0.21273 0.3286 0.39528 0.0
C496 C 0.21441 0.34584 0.38103 0.0
C497 C 0.18622 0.3735 0.32603 0.0
C498 C 0.2043 0.38679 0.32672 0.0
C499 C 0.18706 0.39203 0.31359 0.0
C500 C 0.18079 0.38147 0.31751 0.0
C501 C 0.19891 0.3948 0.31811 0.0
C502 C 0.19798 0.37624 0.33067 0.0
C503 C 0.17953 0.36237 0.32991 0.0
O504 O 0.17681 0.32698 0.34343 0.0
O505 O 0.16496 0.33797 0.35523 0.0
O506 O 0.17374 0.36313 0.34044 0.0
O507 O 0.1855 0.35203 0.32864 0.0
H508 H 0.15349 0.34044 0.33181 0.0
H509 H 0.13545 0.33337 0.32013 0.0
H510 H 0.1368 0.29849 0.33914 0.0
H511 H 0.15488 0.30561 0.35067 0.0
H512 H 0.19769 0.31593 0.39137 0.0
H513 H 0.19021 0.32726 0.37333 0.0
H514 H 0.22651 0.34311 0.39633 0.0
H515 H 0.21912 0.35419 0.3782 0.0
H516 H 0.21334 0.38873 0.33048 0.0
H517 H 0.18271 0.39793 0.30685 0.0
H518 H 0.17172 0.37948 0.31382 0.0
H519 H 0.20228 0.37021 0.33732 0.0
C520 C 0.15353 0.68618 0.32482 0.0
C521 C 0.14991 0.69686 0.33091 0.0
C522 C 0.1327 0.69925 0.31663 0.0
C523 C 0.13957 0.70334 0.32686 0.0
C524 C 0.13637 0.68846 0.31067 0.0
C525 C 0.14667 0.68202 0.31473 0.0
U526 U 0.18088 0.68044 0.34652 0.0
O527 O 0.18827 0.66299 0.35339 0.0
O528 O 0.19981 0.67512 0.34204 0.0
C529 C 0.19872 0.66438 0.34749 0.0
C530 C 0.16447 0.6793 0.32874 0.0
C531 C 0.20275 0.65376 0.34028 0.0
C532 C 0.1989 0.63769 0.32525 0.0
C533 C 0.19486 0.64788 0.33187 0.0
C534 C 0.21878 0.63926 0.33528 0.0
C535 C 0.21092 0.63325 0.32689 0.0
C536 C 0.21472 0.6494 0.3419 0.0
C537 C 0.18629 0.70164 0.37424 0.0
C538 C 0.20317 0.69944 0.38882 0.0
C539 C 0.1884 0.7157 0.39138 0.0
C540 C 0.18213 0.71175 0.38085 0.0
C541 C 0.19898 0.70959 0.39554 0.0
C542 C 0.19686 0.69549 0.37826 0.0
C543 C 0.17944 0.6977 0.36322 0.0
O544 O 0.17503 0.68518 0.32773 0.0
O545 O 0.16343 0.67313 0.33909 0.0
O546 O 0.17363 0.6871 0.36408 0.0
O547 O 0.18516 0.69921 0.3527 0.0
H548 H 0.15512 0.70022 0.33874 0.0
H549 H 0.13709 0.71165 0.3316 0.0
H550 H 0.1312 0.68491 0.30291 0.0
H551 H 0.14931 0.67376 0.30995 0.0
H552 H 0.19265 0.63337 0.31877 0.0
H553 H 0.1856 0.65117 0.33043 0.0
H554 H 0.22802 0.63601 0.33691 0.0
H555 H 0.22094 0.6538 0.34837 0.0
H556 H 0.21121 0.69446 0.39181 0.0
H557 H 0.18502 0.72365 0.39617 0.0
H558 H 0.17402 0.71664 0.37785 0.0
H559 H 0.20019 0.68764 0.37326 0.0
C560 C 0.82328 0.65521 0.34274 0.0
C561 C 0.82944 0.65163 0.33207 0.0
C562 C 0.81508 0.63447 0.3294 0.0
C563 C 0.82538 0.64135 0.32545 0.0
C564 C 0.809 0.63811 0.34015 0.0
C565 C 0.81307 0.64838 0.34674 0.0
U566 U 0.84535 0.68221 0.34857 0.0
O567 O 0.84137 0.70108 0.35431 0.0
O568 O 0.85278 0.6893 0.36601 0.0
C569 C 0.8471 0.69983 0.3649 0.0
C570 C 0.82732 0.66601 0.3498 0.0
C571 C 0.8403 0.70385 0.37578 0.0
C572 C 0.82319 0.70187 0.38999 0.0
C573 C 0.82945 0.69788 0.37954 0.0
C574 C 0.83858 0.71782 0.39298 0.0
C575 C 0.82771 0.71187 0.39687 0.0
C576 C 0.8448 0.71384 0.38255 0.0
C577 C 0.87285 0.6877 0.32729 0.0
C578 C 0.88575 0.70606 0.3278 0.0
C579 C 0.89172 0.68869 0.31546 0.0
C580 C 0.88117 0.68229 0.31923 0.0
C581 C 0.89414 0.70066 0.31967 0.0
C582 C 0.87522 0.69961 0.33161 0.0
C583 C 0.86178 0.68077 0.33104 0.0
O584 O 0.83774 0.66485 0.35583 0.0
O585 O 0.82636 0.67662 0.3441 0.0
O586 O 0.85129 0.68653 0.32975 0.0
O587 O 0.86266 0.67477 0.3415 0.0
H588 H 0.83735 0.65683 0.32884 0.0
H589 H 0.8302 0.63889 0.31716 0.0
H590 H 0.80117 0.63294 0.34358 0.0
H591 H 0.80823 0.65098 0.35499 0.0
H592 H 0.81492 0.69701 0.39278 0.0
H593 H 0.82586 0.69012 0.37441 0.0
H594 H 0.84223 0.72566 0.39793 0.0
H595 H 0.85314 0.71858 0.37976 0.0
H596 H 0.88741 0.7152 0.33132 0.0
H597 H 0.89788 0.68432 0.30908 0.0
H598 H 0.87948 0.6731 0.3158 0.0
H599 H 0.86892 0.70391 0.3379 0.0
C600 C 0.84148 0.37417 0.32481 0.0
C601 C 0.83122 0.37822 0.33136 0.0
C602 C 0.82885 0.39543 0.31712 0.0
C603 C 0.82495 0.38875 0.32754 0.0
C604 C 0.83911 0.39123 0.31058 0.0
C605 C 0.84535 0.38072 0.31441 0.0
U606 U 0.8467 0.34641 0.34602 0.0
O607 O 0.85248 0.32772 0.34135 0.0
O608 O 0.86402 0.33911 0.35343 0.0
C609 C 0.86297 0.32878 0.34732 0.0
C610 C 0.84831 0.3632 0.32867 0.0
C611 C 0.87398 0.32493 0.3406 0.0
C612 C 0.88892 0.32767 0.32422 0.0
C613 C 0.87838 0.33155 0.33041 0.0
C614 C 0.89069 0.31053 0.33835 0.0
C615 C 0.89524 0.31712 0.32815 0.0
C616 C 0.88019 0.31441 0.3445 0.0
C617 C 0.82475 0.33987 0.37284 0.0
C618 C 0.82867 0.3251 0.3892 0.0
C619 C 0.80868 0.33454 0.38742 0.0
C620 C 0.81273 0.34118 0.37716 0.0
C621 C 0.81661 0.32644 0.39361 0.0
C622 C 0.8327 0.33173 0.37888 0.0
C623 C 0.82881 0.34715 0.36213 0.0
O624 O 0.85412 0.36403 0.33925 0.0
O625 O 0.84254 0.35265 0.32721 0.0
O626 O 0.82772 0.34172 0.35143 0.0
O627 O 0.83926 0.35318 0.36344 0.0
H628 H 0.82811 0.37326 0.33944 0.0
H629 H 0.81717 0.39178 0.33286 0.0
H630 H 0.84226 0.39599 0.30241 0.0
H631 H 0.85322 0.3777 0.30921 0.0
H632 H 0.89221 0.33302 0.31648 0.0
H633 H 0.87369 0.33972 0.32728 0.0
H634 H 0.89517 0.30226 0.34151 0.0
H635 H 0.87689 0.30916 0.35231 0.0
H636 H 0.83497 0.31884 0.39365 0.0
H637 H 0.7994 0.33593 0.39064 0.0
H638 H 0.80647 0.34744 0.37263 0.0
H639 H 0.84201 0.33053 0.37564 0.0
C640 C 0.68575 0.15471 0.7044 0.0
C641 C 0.6961 0.15061 0.69804 0.0
C642 C 0.69881 0.13405 0.71297 0.0
C643 C 0.70257 0.14036 0.70228 0.0
C644 C 0.68837 0.13821 0.71924 0.0
C645 C 0.68192 0.14844 0.71499 0.0
U646 U 0.68022 0.1815 0.6821 0.0
O647 O 0.6628 0.18861 0.67473 0.0
O648 O 0.67471 0.20044 0.686 0.0
C649 C 0.66407 0.19919 0.68035 0.0
C650 C 0.67883 0.1655 0.7002 0.0
C651 C 0.65328 0.20337 0.68723 0.0
C652 C 0.63887 0.20137 0.70416 0.0
C653 C 0.64911 0.19711 0.69773 0.0
C654 C 0.63691 0.21814 0.68963 0.0
C655 C 0.63267 0.21198 0.70021 0.0
C656 C 0.6471 0.21388 0.68322 0.0
C657 C 0.70195 0.18648 0.65473 0.0
C658 C 0.69975 0.20293 0.63972 0.0
C659 C 0.71649 0.18858 0.63797 0.0
C660 C 0.71238 0.18245 0.64851 0.0
C661 C 0.71021 0.19889 0.6334 0.0
C662 C 0.69564 0.19677 0.65029 0.0
C663 C 0.69786 0.1798 0.66579 0.0
O664 O 0.68464 0.17609 0.70111 0.0
O665 O 0.67283 0.16422 0.68977 0.0
O666 O 0.68729 0.17393 0.66484 0.0
O667 O 0.69913 0.18572 0.67622 0.0
H668 H 0.6992 0.15538 0.68984 0.0
H669 H 0.71062 0.13748 0.69729 0.0
H670 H 0.68508 0.13348 0.72737 0.0
H671 H 0.67392 0.15144 0.71999 0.0
H672 H 0.63593 0.19647 0.71233 0.0
H673 H 0.65379 0.18899 0.70097 0.0
H674 H 0.63226 0.22621 0.68619 0.0
H675 H 0.65017 0.2188 0.6751 0.0
H676 H 0.69463 0.21076 0.6364 0.0
H677 H 0.72469 0.18532 0.63349 0.0
H678 H 0.7174 0.17456 0.65184 0.0
H679 H 0.68754 0.2 0.65499 0.0
C680 C 0.32288 0.18701 0.65647 0.0
C681 C 0.32914 0.19763 0.65253 0.0
C682 C 0.31441 0.20019 0.63577 0.0
C683 C 0.32495 0.20416 0.64225 0.0
C684 C 0.30822 0.1895 0.63979 0.0
C685 C 0.31242 0.18299 0.65004 0.0
U686 U 0.34553 0.18198 0.68284 0.0
O687 O 0.34214 0.17655 0.70202 0.0
O688 O 0.35327 0.16486 0.69017 0.0
C689 C 0.34779 0.16602 0.70083 0.0
C690 C 0.3271 0.18008 0.66727 0.0
C691 C 0.34088 0.15517 0.7051 0.0
C692 C 0.32362 0.14093 0.70333 0.0
C693 C 0.3301 0.15127 0.69909 0.0
C694 C 0.33869 0.1383 0.71958 0.0
C695 C 0.32783 0.13433 0.71365 0.0
C696 C 0.34514 0.14862 0.71534 0.0
C697 C 0.37285 0.20381 0.68714 0.0
C698 C 0.3861 0.20316 0.70517 0.0
C699 C 0.39146 0.21629 0.68793 0.0
C700 C 0.38088 0.21235 0.68169 0.0
C701 C 0.39419 0.21177 0.69976 0.0
C702 C 0.37554 0.19919 0.69889 0.0
C703 C 0.36174 0.19985 0.68045 0.0
O704 O 0.33753 0.17426 0.66592 0.0
O705 O 0.32635 0.18586 0.6778 0.0
O706 O 0.35134 0.20101 0.68642 0.0
O707 O 0.36258 0.18933 0.67467 0.0
H708 H 0.33724 0.20087 0.65742 0.0
H709 H 0.32986 0.21241 0.63949 0.0
H710 H 0.3002 0.18608 0.63491 0.0
H711 H 0.30751 0.17478 0.65295 0.0
H712 H 0.31524 0.1382 0.69862 0.0
H713 H 0.32668 0.15626 0.69117 0.0
H714 H 0.34229 0.13333 0.72742 0.0
H715 H 0.35348 0.15149 0.72005 0.0
H716 H 0.38801 0.1994 0.71419 0.0
H717 H 0.39741 0.22303 0.68357 0.0
H718 H 0.37893 0.21601 0.67263 0.0
H719 H 0.36946 0.19252 0.7032 0.0
C720 C 0.32558 0.8421 0.65399 0.0
C721 C 0.32986 0.83018 0.65195 0.0
C722 C 0.31799 0.82898 0.63289 0.0
C723 C 0.32606 0.82366 0.6415 0.0
C724 C 0.31382 0.84097 0.63499 0.0
C725 C 0.31758 0.84744 0.64544 0.0
U726 U 0.34672 0.84791 0.68175 0.0
O727 O 0.354 0.86535 0.68903 0.0
O728 O 0.34209 0.8537 0.70049 0.0
C729 C 0.34794 0.86426 0.6994 0.0
C730 C 0.32931 0.84911 0.66497 0.0
C731 C 0.34112 0.87517 0.70327 0.0
C732 C 0.32424 0.88947 0.70088 0.0
C733 C 0.33052 0.87902 0.697 0.0
C734 C 0.33909 0.89228 0.7173 0.0
C735 C 0.32848 0.89626 0.71106 0.0
C736 C 0.34533 0.88185 0.71343 0.0
C737 C 0.37391 0.82634 0.68772 0.0
C738 C 0.3882 0.82843 0.70488 0.0
C739 C 0.39107 0.8124 0.68986 0.0
C740 C 0.38063 0.81634 0.6835 0.0
C741 C 0.39503 0.8184 0.70062 0.0
C742 C 0.37773 0.83238 0.69847 0.0
C743 C 0.36303 0.83032 0.68072 0.0
O744 O 0.32792 0.84344 0.67556 0.0
O745 O 0.33979 0.85515 0.66413 0.0
O746 O 0.36421 0.8408 0.6748 0.0
O747 O 0.35242 0.82911 0.68633 0.0
H748 H 0.33611 0.82593 0.65843 0.0
H749 H 0.32956 0.81451 0.64011 0.0
H750 H 0.30747 0.84529 0.62865 0.0
H751 H 0.31417 0.85663 0.64687 0.0
H752 H 0.31617 0.89233 0.6958 0.0
H753 H 0.32714 0.87396 0.6891 0.0
H754 H 0.34252 0.89714 0.72529 0.0
H755 H 0.35347 0.87899 0.7184 0.0
H756 H 0.39104 0.83333 0.71306 0.0
H757 H 0.39596 0.80454 0.68642 0.0
H758 H 0.37779 0.81154 0.67524 0.0
H759 H 0.37266 0.84016 0.70185 0.0
C760 C 0.6539 0.82474 0.68751 0.0
C761 C 0.65032 0.83078 0.69826 0.0
C762 C 0.63247 0.81714 0.70012 0.0
C763 C 0.6397 0.827 0.70452 0.0
C764 C 0.63614 0.81117 0.68932 0.0
C765 C 0.64675 0.81494 0.6831 0.0
U766 U 0.68188 0.84586 0.68271 0.0
O767 O 0.70083 0.84116 0.67765 0.0
O768 O 0.6899 0.85304 0.66559 0.0
C769 C 0.70013 0.84687 0.66701 0.0
C770 C 0.66508 0.82846 0.68084 0.0
C771 C 0.70411 0.83977 0.6563 0.0
C772 C 0.70004 0.825 0.64006 0.0
C773 C 0.69609 0.83154 0.65033 0.0
C774 C 0.72011 0.83473 0.64172 0.0
C775 C 0.71211 0.82653 0.63562 0.0
C776 C 0.71613 0.84129 0.65195 0.0
C777 C 0.68756 0.87286 0.70459 0.0
C778 C 0.70433 0.88761 0.70219 0.0
C779 C 0.69074 0.88892 0.71969 0.0
C780 C 0.68414 0.8787 0.71545 0.0
C781 C 0.70094 0.8935 0.71313 0.0
C782 C 0.6977 0.87736 0.69796 0.0
C783 C 0.68043 0.86213 0.70037 0.0
O784 O 0.66447 0.83894 0.67486 0.0
O785 O 0.67547 0.82709 0.68687 0.0
O786 O 0.68581 0.85147 0.70174 0.0
O787 O 0.67488 0.86335 0.68968 0.0
H788 H 0.65574 0.83839 0.70178 0.0
H789 H 0.63708 0.83188 0.71273 0.0
H790 H 0.63092 0.80344 0.68577 0.0
H791 H 0.64941 0.81016 0.67484 0.0
H792 H 0.69369 0.81866 0.63566 0.0
H793 H 0.68678 0.83019 0.65362 0.0
H794 H 0.72939 0.83626 0.63847 0.0
H795 H 0.72244 0.84761 0.65643 0.0
H796 H 0.71219 0.89083 0.69697 0.0
H797 H 0.68775 0.89332 0.72804 0.0
H798 H 0.6763 0.87538 0.72066 0.0
H799 H 0.70049 0.87292 0.68955 0.0
C800 C 0.65534 0.82359 0.34193 0.0
C801 C 0.64984 0.83127 0.33315 0.0
C802 C 0.63453 0.81542 0.32859 0.0
C803 C 0.63949 0.82724 0.32657 0.0
C804 C 0.64016 0.80775 0.33735 0.0
C805 C 0.65046 0.81181 0.34396 0.0
U806 U 0.68191 0.84604 0.34727 0.0
O807 O 0.68918 0.8539 0.36442 0.0
O808 O 0.70103 0.84262 0.3529 0.0
C809 C 0.6998 0.84838 0.36339 0.0
C810 C 0.66616 0.82771 0.34899 0.0
C811 C 0.7039 0.84161 0.37434 0.0
C812 C 0.70137 0.82503 0.38915 0.0
C813 C 0.6974 0.83126 0.3786 0.0
C814 C 0.71839 0.83941 0.39122 0.0
C815 C 0.71189 0.82906 0.39561 0.0
C816 C 0.71442 0.84562 0.38068 0.0
C817 C 0.68648 0.87319 0.32542 0.0
C818 C 0.70455 0.88649 0.32615 0.0
C819 C 0.68738 0.89167 0.3129 0.0
C820 C 0.6811 0.88112 0.31683 0.0
C821 C 0.6992 0.89447 0.31749 0.0
C822 C 0.69822 0.87595 0.33011 0.0
C823 C 0.67974 0.86211 0.32937 0.0
O824 O 0.67672 0.82689 0.34327 0.0
O825 O 0.66491 0.8381 0.35491 0.0
O826 O 0.67388 0.86301 0.33985 0.0
O827 O 0.68569 0.85175 0.32825 0.0
H828 H 0.65355 0.84038 0.33141 0.0
H829 H 0.63546 0.83331 0.31979 0.0
H830 H 0.63648 0.79867 0.33924 0.0
H831 H 0.6546 0.80577 0.35071 0.0
H832 H 0.69608 0.81718 0.39235 0.0
H833 H 0.68923 0.82806 0.3738 0.0
H834 H 0.72663 0.84266 0.39585 0.0
H835 H 0.71956 0.85358 0.37749 0.0
H836 H 0.71357 0.88846 0.32996 0.0
H837 H 0.68307 0.89754 0.30612 0.0
H838 H 0.67204 0.87912 0.31311 0.0
H839 H 0.70248 0.86996 0.33682 0.0
C840 C 0.65388 0.18688 0.32466 0.0
C841 C 0.64831 0.19525 0.33259 0.0
C842 C 0.6332 0.20035 0.31676 0.0
C843 C 0.63803 0.2019 0.32869 0.0
C844 C 0.6389 0.19198 0.30886 0.0
C845 C 0.64912 0.18532 0.31278 0.0
U846 U 0.68095 0.18066 0.34642 0.0
O847 O 0.68801 0.16313 0.3535 0.0
O848 O 0.69982 0.17501 0.34218 0.0
C849 C 0.69856 0.16436 0.34777 0.0
C850 C 0.66464 0.17972 0.32855 0.0
C851 C 0.70264 0.15361 0.34082 0.0
C852 C 0.70043 0.13925 0.32389 0.0
C853 C 0.69624 0.14946 0.33039 0.0
C854 C 0.71741 0.13728 0.33822 0.0
C855 C 0.71111 0.13306 0.3277 0.0
C856 C 0.71321 0.14744 0.34469 0.0
C857 C 0.68673 0.20206 0.37385 0.0
C858 C 0.704 0.20003 0.38797 0.0
C859 C 0.68931 0.21631 0.39077 0.0
C860 C 0.68272 0.21222 0.38049 0.0
C861 C 0.70007 0.21033 0.39462 0.0
C862 C 0.69739 0.19595 0.37766 0.0
C863 C 0.67974 0.19814 0.36291 0.0
O864 O 0.67533 0.18534 0.32752 0.0
O865 O 0.66346 0.17358 0.33892 0.0
O866 O 0.67377 0.18763 0.3639 0.0
O867 O 0.68546 0.19944 0.35237 0.0
H868 H 0.6519 0.19664 0.34178 0.0
H869 H 0.63396 0.20837 0.33496 0.0
H870 H 0.63534 0.19043 0.29968 0.0
H871 H 0.65329 0.17889 0.30653 0.0
H872 H 0.69541 0.13632 0.31578 0.0
H873 H 0.68806 0.15414 0.32725 0.0
H874 H 0.72553 0.13263 0.34155 0.0
H875 H 0.71824 0.15049 0.35275 0.0
H876 H 0.7123 0.19527 0.3906 0.0
H877 H 0.68589 0.22412 0.39577 0.0
H878 H 0.67449 0.21702 0.37771 0.0
H879 H 0.70063 0.18808 0.37261 0.0
C880 C 0.32392 0.15468 0.34308 0.0
C881 C 0.3281 0.1527 0.33108 0.0
C882 C 0.31635 0.13353 0.33005 0.0
C883 C 0.32432 0.14223 0.3246 0.0
C884 C 0.31228 0.13556 0.34211 0.0
C885 C 0.31603 0.14603 0.34855 0.0
U886 U 0.34488 0.18267 0.34824 0.0
O887 O 0.34025 0.20134 0.35409 0.0
O888 O 0.35253 0.19011 0.36544 0.0
C889 C 0.34636 0.20038 0.36449 0.0
C890 C 0.32766 0.16567 0.35003 0.0
C891 C 0.33972 0.20415 0.37556 0.0
C892 C 0.32303 0.20164 0.39018 0.0
C893 C 0.3292 0.1978 0.37961 0.0
C894 C 0.33788 0.21817 0.3927 0.0
C895 C 0.32732 0.21187 0.39687 0.0
C896 C 0.344 0.21434 0.38216 0.0
C897 C 0.37139 0.18936 0.32604 0.0
C898 C 0.3875 0.20453 0.32987 0.0
C899 C 0.38609 0.19456 0.31007 0.0
C900 C 0.37586 0.18783 0.31411 0.0
C901 C 0.39208 0.20297 0.31791 0.0
C902 C 0.37722 0.19781 0.33389 0.0
C903 C 0.36075 0.18198 0.33014 0.0
O904 O 0.33831 0.16499 0.35574 0.0
O905 O 0.32602 0.17623 0.3444 0.0
O906 O 0.35 0.18731 0.32921 0.0
O907 O 0.3622 0.17599 0.34055 0.0
H908 H 0.33428 0.15925 0.32673 0.0
H909 H 0.32774 0.14089 0.31538 0.0
H910 H 0.30603 0.12914 0.34653 0.0
H911 H 0.3127 0.14741 0.3578 0.0
H912 H 0.31501 0.1965 0.39319 0.0
H913 H 0.32578 0.18988 0.37462 0.0
H914 H 0.34133 0.2262 0.39749 0.0
H915 H 0.35209 0.21938 0.37913 0.0
H916 H 0.39181 0.21102 0.33609 0.0
H917 H 0.38946 0.193 0.30087 0.0
H918 H 0.37148 0.18134 0.30793 0.0
H919 H 0.37384 0.19917 0.34313 0.0
C920 C 0.33998 0.87361 0.32439 0.0
C921 C 0.3319 0.87951 0.3324 0.0
C922 C 0.32681 0.89442 0.31641 0.0
C923 C 0.3254 0.88986 0.32846 0.0
C924 C 0.33488 0.8884 0.30844 0.0
C925 C 0.3414 0.87811 0.3124 0.0
U926 U 0.34597 0.84642 0.3461 0.0
O927 O 0.35146 0.82757 0.34166 0.0
O928 O 0.36347 0.83917 0.35307 0.0
C929 C 0.3622 0.82875 0.34715 0.0
C930 C 0.34701 0.86278 0.32831 0.0
C931 C 0.3729 0.82483 0.33997 0.0
C932 C 0.38922 0.82896 0.32526 0.0
C933 C 0.37893 0.83287 0.33182 0.0
C934 C 0.38742 0.8089 0.33479 0.0
C935 C 0.39359 0.81691 0.32667 0.0
C936 C 0.37719 0.81283 0.34137 0.0
C937 C 0.32452 0.84078 0.37362 0.0
C938 C 0.32639 0.8236 0.38784 0.0
C939 C 0.31021 0.83842 0.39054 0.0
C940 C 0.31437 0.8449 0.38023 0.0
C941 C 0.31611 0.82765 0.39445 0.0
C942 C 0.33055 0.83011 0.37749 0.0
C943 C 0.32853 0.8477 0.36267 0.0
O944 O 0.35318 0.86386 0.33867 0.0
O945 O 0.34125 0.85218 0.32726 0.0
O946 O 0.32714 0.84203 0.35213 0.0
O947 O 0.33912 0.85355 0.36365 0.0
H948 H 0.33063 0.87612 0.34169 0.0
H949 H 0.31917 0.89419 0.33479 0.0
H950 H 0.33632 0.89175 0.29917 0.0
H951 H 0.3476 0.87368 0.3061 0.0
H952 H 0.39367 0.83532 0.31898 0.0
H953 H 0.37571 0.84217 0.33056 0.0
H954 H 0.39062 0.79963 0.33623 0.0
H955 H 0.37267 0.8065 0.34763 0.0
H956 H 0.33109 0.8153 0.39053 0.0
H957 H 0.30241 0.84194 0.39551 0.0
H958 H 0.30964 0.85315 0.3774 0.0
H959 H 0.33841 0.82678 0.37246 0.0
C960 C 0.68622 0.65426 0.2043 0.0
C961 C 0.69666 0.65038 0.19794 0.0
C962 C 0.69879 0.63297 0.21198 0.0
C963 C 0.70291 0.63983 0.20176 0.0
C964 C 0.68832 0.63698 0.21829 0.0
C965 C 0.68211 0.64751 0.21449 0.0
U966 U 0.68057 0.68199 0.18306 0.0
O967 O 0.66306 0.68949 0.1764 0.0
O968 O 0.67525 0.70078 0.18793 0.0
C969 C 0.66449 0.6998 0.18248 0.0
C970 C 0.67946 0.6653 0.20055 0.0
C971 C 0.65386 0.70376 0.18974 0.0
C972 C 0.63744 0.69966 0.20435 0.0
C973 C 0.64767 0.69569 0.19774 0.0
C974 C 0.63961 0.71985 0.19517 0.0
C975 C 0.63328 0.71181 0.20313 0.0
C976 C 0.64978 0.71586 0.18854 0.0
C977 C 0.7015 0.68837 0.15515 0.0
C978 C 0.69917 0.69383 0.13352 0.0
C979 C 0.71633 0.70204 0.1452 0.0
C980 C 0.7122 0.6957 0.15563 0.0
C981 C 0.70992 0.70111 0.13399 0.0
C982 C 0.69501 0.68753 0.14396 0.0
C983 C 0.69768 0.68114 0.16612 0.0
O984 O 0.68545 0.67578 0.2017 0.0
O985 O 0.67324 0.66447 0.1902 0.0
O986 O 0.6872 0.67504 0.16537 0.0
O987 O 0.69936 0.68642 0.17685 0.0
H988 H 0.69995 0.6555 0.19003 0.0
H989 H 0.71086 0.63695 0.19662 0.0
H990 H 0.685 0.63207 0.22631 0.0
H991 H 0.6741 0.6504 0.21953 0.0
H992 H 0.63286 0.69327 0.21049 0.0
H993 H 0.65073 0.68632 0.19883 0.0
H994 H 0.63657 0.7292 0.19387 0.0
H995 H 0.65443 0.72222 0.1824 0.0
H996 H 0.69395 0.69301 0.12506 0.0
H997 H 0.72473 0.70742 0.14585 0.0
H998 H 0.71751 0.69639 0.16405 0.0
H999 H 0.68677 0.68191 0.14321 0.0
C1000 C 0.32288 0.68691 0.15638 0.0
C1001 C 0.32902 0.69759 0.15239 0.0
C1002 C 0.31418 0.69997 0.1357 0.0
C1003 C 0.32471 0.70406 0.14212 0.0
C1004 C 0.30811 0.68924 0.13977 0.0
C1005 C 0.31243 0.68278 0.15002 0.0
U1006 U 0.34532 0.68236 0.18304 0.0
O1007 O 0.34186 0.67633 0.20203 0.0
O1008 O 0.35369 0.66543 0.19012 0.0
C1009 C 0.34797 0.66609 0.2007 0.0
C1010 C 0.32725 0.68 0.16713 0.0
C1011 C 0.34143 0.65487 0.20457 0.0
C1012 C 0.32453 0.64026 0.2024 0.0
C1013 C 0.3307 0.65093 0.19851 0.0
C1014 C 0.33983 0.63739 0.21839 0.0
C1015 C 0.32904 0.63336 0.21239 0.0
C1016 C 0.34596 0.64804 0.21451 0.0
C1017 C 0.37159 0.7052 0.18835 0.0
C1018 C 0.38766 0.70168 0.20352 0.0
C1019 C 0.38664 0.72119 0.19281 0.0
C1020 C 0.37631 0.71703 0.18631 0.0
C1021 C 0.39246 0.71355 0.20147 0.0
C1022 C 0.37728 0.69755 0.19703 0.0
C1023 C 0.36074 0.70098 0.18139 0.0
O1024 O 0.33795 0.67468 0.16584 0.0
O1025 O 0.32607 0.68553 0.17775 0.0
O1026 O 0.35024 0.70153 0.18727 0.0
O1027 O 0.36209 0.69069 0.17531 0.0
H1028 H 0.33711 0.70091 0.15724 0.0
H1029 H 0.32953 0.71234 0.13931 0.0
H1030 H 0.3001 0.68572 0.13494 0.0
H1031 H 0.30761 0.67453 0.15296 0.0
H1032 H 0.31633 0.63735 0.1975 0.0
H1033 H 0.3271 0.65609 0.19079 0.0
H1034 H 0.34345 0.6324 0.22621 0.0
H1035 H 0.35422 0.65099 0.21931 0.0
H1036 H 0.39184 0.69562 0.21022 0.0
H1037 H 0.39019 0.73032 0.19091 0.0
H1038 H 0.37202 0.72305 0.17963 0.0
H1039 H 0.3737 0.68839 0.19878 0.0
C1040 C 0.32481 0.34187 0.15457 0.0
C1041 C 0.33117 0.33143 0.15078 0.0
C1042 C 0.3167 0.32855 0.13378 0.0
C1043 C 0.32716 0.32483 0.14046 0.0
C1044 C 0.31045 0.33909 0.13763 0.0
C1045 C 0.31447 0.34567 0.14792 0.0
U1046 U 0.34635 0.34771 0.18203 0.0
O1047 O 0.35352 0.36519 0.18933 0.0
O1048 O 0.34188 0.35333 0.20085 0.0
C1049 C 0.34758 0.36397 0.19976 0.0
C1050 C 0.32873 0.34889 0.16546 0.0
C1051 C 0.34061 0.37474 0.20374 0.0
C1052 C 0.32348 0.38877 0.20152 0.0
C1053 C 0.33002 0.37856 0.19743 0.0
C1054 C 0.33807 0.39141 0.21821 0.0
C1055 C 0.32739 0.39529 0.21201 0.0
C1056 C 0.34459 0.38124 0.21411 0.0
C1057 C 0.37352 0.32616 0.18796 0.0
C1058 C 0.38774 0.32831 0.20516 0.0
C1059 C 0.39019 0.31172 0.19068 0.0
C1060 C 0.37996 0.31583 0.18408 0.0
C1061 C 0.3942 0.31787 0.20134 0.0
C1062 C 0.37747 0.33241 0.19853 0.0
C1063 C 0.36269 0.33016 0.18089 0.0
O1064 O 0.32749 0.3432 0.17606 0.0
O1065 O 0.33923 0.35489 0.16447 0.0
O1066 O 0.36386 0.34067 0.17503 0.0
O1067 O 0.35206 0.32889 0.18646 0.0
H1068 H 0.33918 0.32835 0.15584 0.0
H1069 H 0.33213 0.3167 0.13784 0.0
H1070 H 0.3025 0.34235 0.13261 0.0
H1071 H 0.30947 0.35374 0.15068 0.0
H1072 H 0.31525 0.39142 0.19659 0.0
H1073 H 0.3268 0.37362 0.18941 0.0
H1074 H 0.34148 0.39631 0.22618 0.0
H1075 H 0.35276 0.37845 0.21907 0.0
H1076 H 0.39049 0.33319 0.21338 0.0
H1077 H 0.39504 0.30379 0.18734 0.0
H1078 H 0.37707 0.31092 0.17591 0.0
H1079 H 0.37258 0.3404 0.20168 0.0
C1080 C 0.65466 0.32403 0.18788 0.0
C1081 C 0.65098 0.33019 0.19851 0.0
C1082 C 0.63382 0.3158 0.20108 0.0
C1083 C 0.64064 0.32612 0.20505 0.0
C1084 C 0.63758 0.30972 0.19037 0.0
C1085 C 0.64789 0.31381 0.18385 0.0
U1086 U 0.68175 0.34608 0.18239 0.0
O1087 O 0.70072 0.34216 0.1768 0.0
O1088 O 0.68901 0.35359 0.16505 0.0
C1089 C 0.69955 0.3479 0.16622 0.0
C1090 C 0.66553 0.3281 0.18089 0.0
C1091 C 0.70362 0.34107 0.15538 0.0
C1092 C 0.70143 0.32416 0.14102 0.0
C1093 C 0.69729 0.33055 0.15132 0.0
C1094 C 0.71822 0.33877 0.13876 0.0
C1095 C 0.71199 0.32816 0.13464 0.0
C1096 C 0.71407 0.34514 0.14903 0.0
C1097 C 0.687 0.3732 0.20421 0.0
C1098 C 0.70358 0.38816 0.20179 0.0
C1099 C 0.68943 0.38984 0.2188 0.0
C1100 C 0.68316 0.37934 0.21476 0.0
C1101 C 0.6997 0.39442 0.21236 0.0
C1102 C 0.69727 0.37764 0.19774 0.0
C1103 C 0.68017 0.36222 0.20015 0.0
O1104 O 0.66441 0.33856 0.17495 0.0
O1105 O 0.67613 0.32708 0.18663 0.0
O1106 O 0.68598 0.35177 0.20133 0.0
O1107 O 0.67429 0.36326 0.18962 0.0
H1108 H 0.65613 0.33811 0.20176 0.0
H1109 H 0.6381 0.33094 0.21332 0.0
H1110 H 0.63245 0.30188 0.18693 0.0
H1111 H 0.65058 0.30897 0.17563 0.0
H1112 H 0.69648 0.31597 0.13817 0.0
H1113 H 0.6892 0.32727 0.15614 0.0
H1114 H 0.72625 0.34224 0.13397 0.0
H1115 H 0.71904 0.35327 0.15201 0.0
H1116 H 0.71137 0.3915 0.19654 0.0
H1117 H 0.68631 0.39428 0.22708 0.0
H1118 H 0.67528 0.37601 0.21989 0.0
H1119 H 0.70036 0.373 0.18956 0.0
C1120 C 0.65434 0.32429 0.84344 0.0
C1121 C 0.65045 0.33046 0.8328 0.0
C1122 C 0.63316 0.31619 0.83065 0.0
C1123 C 0.63995 0.32644 0.82644 0.0
C1124 C 0.63716 0.31005 0.84132 0.0
C1125 C 0.64766 0.31407 0.84765 0.0
U1126 U 0.68128 0.34651 0.84823 0.0
O1127 O 0.68876 0.35436 0.86533 0.0
O1128 O 0.70039 0.34292 0.85373 0.0
C1129 C 0.69929 0.34868 0.86424 0.0
C1130 C 0.6653 0.3284 0.85027 0.0
C1131 C 0.70335 0.34185 0.87518 0.0
C1132 C 0.70285 0.32362 0.88814 0.0
C1133 C 0.69885 0.32998 0.87768 0.0
C1134 C 0.71576 0.34098 0.89376 0.0
C1135 C 0.71134 0.32906 0.89631 0.0
C1136 C 0.7118 0.3473 0.88329 0.0
C1137 C 0.68602 0.3735 0.8262 0.0
C1138 C 0.70422 0.38663 0.82677 0.0
C1139 C 0.68702 0.39192 0.81361 0.0
C1140 C 0.68066 0.38144 0.81761 0.0
C1141 C 0.69888 0.39464 0.81812 0.0
C1142 C 0.69782 0.37616 0.83081 0.0
C1143 C 0.67918 0.36252 0.83026 0.0
O1144 O 0.67579 0.32742 0.84443 0.0
O1145 O 0.66422 0.33889 0.85606 0.0
O1146 O 0.67342 0.36354 0.84078 0.0
O1147 O 0.68499 0.35207 0.82915 0.0
H1148 H 0.65551 0.33841 0.82945 0.0
H1149 H 0.63705 0.33145 0.81834 0.0
H1150 H 0.63227 0.30202 0.84471 0.0
H1151 H 0.65057 0.30918 0.85583 0.0
H1152 H 0.69917 0.31451 0.88991 0.0
H1153 H 0.69225 0.32566 0.87155 0.0
H1154 H 0.72241 0.34537 0.89978 0.0
H1155 H 0.71536 0.35646 0.88149 0.0
H1156 H 0.71328 0.38853 0.83052 0.0
H1157 H 0.68271 0.39781 0.80684 0.0
H1158 H 0.67156 0.37951 0.81396 0.0
H1159 H 0.70206 0.37015 0.83752 0.0
C1160 C 0.65432 0.6872 0.82439 0.0
C1161 C 0.6488 0.69559 0.83233 0.0
C1162 C 0.63366 0.70072 0.81655 0.0
C1163 C 0.63854 0.70227 0.82846 0.0
C1164 C 0.63931 0.69234 0.80863 0.0
C1165 C 0.64953 0.68565 0.81252 0.0
U1166 U 0.68133 0.68077 0.84617 0.0
O1167 O 0.68809 0.6632 0.85344 0.0
O1168 O 0.7001 0.67476 0.84199 0.0
C1169 C 0.69866 0.66419 0.84771 0.0
C1170 C 0.66502 0.67994 0.82829 0.0
C1171 C 0.70257 0.65327 0.84091 0.0
C1172 C 0.70013 0.63869 0.8242 0.0
C1173 C 0.69621 0.64917 0.83044 0.0
C1174 C 0.7168 0.6364 0.83884 0.0
C1175 C 0.71046 0.63214 0.82836 0.0
C1176 C 0.71288 0.64684 0.84504 0.0
C1177 C 0.68722 0.70214 0.8736 0.0
C1178 C 0.70408 0.69962 0.88814 0.0
C1179 C 0.68965 0.71617 0.89073 0.0
C1180 C 0.68328 0.71234 0.88022 0.0
C1181 C 0.70011 0.70985 0.89486 0.0
C1182 C 0.69767 0.69579 0.8776 0.0
C1183 C 0.6803 0.69833 0.86259 0.0
O1184 O 0.67577 0.68545 0.82725 0.0
O1185 O 0.66378 0.67384 0.83867 0.0
O1186 O 0.67412 0.68794 0.86354 0.0
O1187 O 0.68614 0.69949 0.8521 0.0
H1188 H 0.65242 0.69696 0.84152 0.0
H1189 H 0.6345 0.70874 0.83475 0.0
H1190 H 0.63572 0.69079 0.79947 0.0
H1191 H 0.65366 0.6792 0.80627 0.0
H1192 H 0.69497 0.63562 0.81623 0.0
H1193 H 0.6882 0.65403 0.82713 0.0
H1194 H 0.7249 0.63174 0.84219 0.0
H1195 H 0.71793 0.64991 0.85308 0.0
H1196 H 0.71202 0.69447 0.89111 0.0
H1197 H 0.68644 0.72418 0.89554 0.0
H1198 H 0.67526 0.71738 0.87724 0.0
H1199 H 0.70083 0.68786 0.8726 0.0
C1200 C 0.32288 0.65546 0.84328 0.0
C1201 C 0.32897 0.65174 0.83262 0.0
C1202 C 0.31449 0.63464 0.8302 0.0
C1203 C 0.32481 0.64141 0.82613 0.0
C1204 C 0.3085 0.63843 0.84095 0.0
C1205 C 0.31266 0.64873 0.84741 0.0
U1206 U 0.34503 0.68249 0.84853 0.0
O1207 O 0.34116 0.70139 0.85423 0.0
O1208 O 0.3528 0.6897 0.86578 0.0
C1209 C 0.34706 0.7002 0.86473 0.0
C1210 C 0.32704 0.6663 0.85022 0.0
C1211 C 0.34036 0.70419 0.87569 0.0
C1212 C 0.32364 0.70186 0.8903 0.0
C1213 C 0.32984 0.69788 0.8798 0.0
C1214 C 0.33845 0.71846 0.89261 0.0
C1215 C 0.3279 0.71219 0.89686 0.0
C1216 C 0.3446 0.71449 0.88214 0.0
C1217 C 0.37201 0.68775 0.82651 0.0
C1218 C 0.38696 0.70434 0.82886 0.0
C1219 C 0.38876 0.69007 0.81199 0.0
C1220 C 0.37823 0.68382 0.81604 0.0
C1221 C 0.3933 0.70038 0.81837 0.0
C1222 C 0.37641 0.69806 0.83291 0.0
C1223 C 0.36102 0.68092 0.83061 0.0
O1224 O 0.33758 0.66518 0.85604 0.0
O1225 O 0.32595 0.67687 0.84449 0.0
O1226 O 0.35055 0.68675 0.82955 0.0
O1227 O 0.36215 0.67501 0.8411 0.0
H1228 H 0.33689 0.65685 0.82929 0.0
H1229 H 0.32958 0.63884 0.81784 0.0
H1230 H 0.30066 0.63334 0.84447 0.0
H1231 H 0.30788 0.65144 0.85566 0.0
H1232 H 0.31563 0.69674 0.89337 0.0
H1233 H 0.32645 0.68988 0.87493 0.0
H1234 H 0.34187 0.72656 0.89729 0.0
H1235 H 0.35269 0.7195 0.87906 0.0
H1236 H 0.39026 0.71217 0.83406 0.0
H1237 H 0.39327 0.68688 0.80378 0.0
H1238 H 0.37494 0.67591 0.81096 0.0
H1239 H 0.37171 0.7012 0.84105 0.0
C1240 C 0.34123 0.3741 0.82458 0.0
C1241 C 0.33106 0.3783 0.83118 0.0
C1242 C 0.32803 0.39474 0.81617 0.0
C1243 C 0.32452 0.38855 0.82702 0.0
C1244 C 0.33826 0.39045 0.80965 0.0
C1245 C 0.34477 0.38025 0.81382 0.0
U1246 U 0.34702 0.34692 0.84642 0.0
O1247 O 0.35311 0.32825 0.84216 0.0
O1248 O 0.36455 0.34011 0.85388 0.0
C1249 C 0.36366 0.32967 0.84795 0.0
C1250 C 0.34827 0.36337 0.82871 0.0
C1251 C 0.37468 0.326 0.84111 0.0
C1252 C 0.38731 0.32633 0.82272 0.0
C1253 C 0.37687 0.33016 0.82909 0.0
C1254 C 0.39355 0.31429 0.8404 0.0
C1255 C 0.39579 0.31833 0.8283 0.0
C1256 C 0.38311 0.31809 0.84672 0.0
C1257 C 0.32512 0.34069 0.8734 0.0
C1258 C 0.32724 0.32354 0.88762 0.0
C1259 C 0.31067 0.33795 0.89017 0.0
C1260 C 0.31479 0.34454 0.8799 0.0
C1261 C 0.3168 0.32733 0.89415 0.0
C1262 C 0.33136 0.33015 0.87732 0.0
C1263 C 0.32914 0.34775 0.86256 0.0
O1264 O 0.35406 0.36455 0.83927 0.0
O1265 O 0.34271 0.35268 0.82749 0.0
O1266 O 0.32815 0.34208 0.85197 0.0
O1267 O 0.33955 0.35388 0.86378 0.0
H1268 H 0.32817 0.37364 0.83951 0.0
H1269 H 0.31663 0.39152 0.8322 0.0
H1270 H 0.34135 0.39509 0.80139 0.0
H1271 H 0.35263 0.37717 0.80864 0.0
H1272 H 0.38881 0.32972 0.81348 0.0
H1273 H 0.37049 0.33633 0.82462 0.0
H1274 H 0.39978 0.30801 0.84492 0.0
H1275 H 0.38157 0.31476 0.85599 0.0
H1276 H 0.33212 0.31535 0.89035 0.0
H1277 H 0.30274 0.34128 0.89507 0.0
H1278 H 0.30989 0.35268 0.87704 0.0
H1279 H 0.33936 0.32703 0.87239 0.0
C1280 C 0.25777 0.24322 0.05654 0.0
C1281 C 0.24497 0.24224 0.05818 0.0
C1282 C 0.26265 0.24869 0.04596 0.0
C1283 C 0.25485 0.25345 0.03682 0.0
C1284 C 0.23718 0.24692 0.04896 0.0
C1285 C 0.24207 0.25239 0.03837 0.0
C1286 C 0.25989 0.25899 0.02538 0.0
C1287 C 0.27176 0.28366 0.05623 0.0
C1288 C 0.28456 0.28463 0.05798 0.0
C1289 C 0.26688 0.27823 0.04563 0.0
C1290 C 0.27467 0.27348 0.0366 0.0
C1291 C 0.29234 0.28009 0.0488 0.0
C1292 C 0.28744 0.27462 0.03821 0.0
C1293 C 0.26956 0.26779 0.02527 0.0
C1294 C 0.27142 0.2835 0.97209 0.0
C1295 C 0.28421 0.28414 0.97028 0.0
C1296 C 0.26655 0.27821 0.98278 0.0
C1297 C 0.27435 0.27327 0.99182 0.0
C1298 C 0.29201 0.2794 0.97946 0.0
C1299 C 0.28713 0.27407 0.99013 0.0
C1300 C 0.26932 0.26775 1.00327 0.0
C1301 C 0.25556 0.24416 0.97203 0.0
C1302 C 0.24266 0.24371 0.97084 0.0
C1303 C 0.26111 0.24909 0.98257 0.0
C1304 C 0.2539 0.25381 0.99209 0.0
C1305 C 0.23549 0.24819 0.98053 0.0
C1306 C 0.24105 0.25313 0.99104 0.0
C1307 C 0.25956 0.25904 1.00339 0.0
H1308 H 0.26404 0.23978 0.06347 0.0
H1309 H 0.27254 0.24908 0.04487 0.0
H1310 H 0.22729 0.24615 0.0498 0.0
H1311 H 0.23586 0.25584 0.03139 0.0
H1312 H 0.26549 0.28731 0.06295 0.0
H1313 H 0.25699 0.27787 0.04445 0.0
H1314 H 0.30224 0.28061 0.04987 0.0
H1315 H 0.29365 0.27114 0.03133 0.0
H1316 H 0.26515 0.2873 0.96535 0.0
H1317 H 0.25668 0.27811 0.98402 0.0
H1318 H 0.30189 0.27967 0.97835 0.0
H1319 H 0.29334 0.27044 0.99702 0.0
H1320 H 0.26137 0.24083 0.96475 0.0
H1321 H 0.27105 0.24917 0.98328 0.0
H1322 H 0.22555 0.24777 0.98007 0.0
H1323 H 0.23527 0.25652 0.99832 0.0
N1324 N 0.25523 0.25507 0.01444 0.0
N1325 N 0.27396 0.27172 0.01422 0.0
C1326 C 0.77232 0.24544 0.9731 0.0
C1327 C 0.7852 0.24517 0.97201 0.0
C1328 C 0.76684 0.2502 0.98365 0.0
C1329 C 0.77413 0.25491 0.99327 0.0
C1330 C 0.79245 0.24965 0.98178 0.0
C1331 C 0.78697 0.25441 0.99229 0.0
C1332 C 0.76855 0.25997 1.00456 0.0
C1333 C 0.75685 0.28475 0.9735 0.0
C1334 C 0.74405 0.28537 0.97174 0.0
C1335 C 0.76174 0.2793 0.98408 0.0
C1336 C 0.75393 0.27418 0.99303 0.0
C1337 C 0.73626 0.28039 0.98081 0.0
C1338 C 0.74116 0.2749 0.99136 0.0
C1339 C 0.75894 0.26863 1.00444 0.0
C1340 C 0.75708 0.28442 0.05732 0.0
C1341 C 0.74432 0.28553 0.05894 0.0
C1342 C 0.76178 0.27888 0.04681 0.0
C1343 C 0.75383 0.27416 0.03774 0.0
C1344 C 0.73637 0.28092 0.04978 0.0
C1345 C 0.74109 0.27537 0.03926 0.0
C1346 C 0.75874 0.26851 0.02641 0.0
C1347 C 0.76971 0.24354 0.05745 0.0
C1348 C 0.78247 0.24247 0.05926 0.0
C1349 C 0.76505 0.24918 0.04688 0.0
C1350 C 0.77304 0.25401 0.03794 0.0
C1351 C 0.79045 0.24722 0.05023 0.0
C1352 C 0.78578 0.25286 0.03966 0.0
C1353 C 0.76821 0.25971 0.02652 0.0
H1354 H 0.76645 0.2421 0.96576 0.0
H1355 H 0.75691 0.25016 0.9843 0.0
H1356 H 0.80239 0.24937 0.98137 0.0
H1357 H 0.7928 0.25782 0.99965 0.0
H1358 H 0.7631 0.28872 0.96683 0.0
H1359 H 0.77162 0.27925 0.98534 0.0
H1360 H 0.72637 0.28064 0.9797 0.0
H1361 H 0.73495 0.27112 0.99819 0.0
H1362 H 0.76348 0.28779 0.06421 0.0
H1363 H 0.77166 0.27839 0.04573 0.0
H1364 H 0.72651 0.2818 0.05062 0.0
H1365 H 0.73477 0.27196 0.03231 0.0
H1366 H 0.7633 0.24005 0.06424 0.0
H1367 H 0.75518 0.24964 0.04564 0.0
H1368 H 0.80032 0.24638 0.05123 0.0
H1369 H 0.79212 0.25638 0.03282 0.0
N1370 N 0.77281 0.2559 0.0156 0.0
N1371 N 0.75441 0.27251 0.01537 0.0
C1372 C 0.77153 0.78392 0.0558 0.0
C1373 C 0.7843 0.785 0.05771 0.0
C1374 C 0.76681 0.77828 0.04524 0.0
C1375 C 0.77475 0.77343 0.0364 0.0
C1376 C 0.79223 0.78026 0.04876 0.0
C1377 C 0.7875 0.77461 0.03819 0.0
C1378 C 0.76981 0.76767 0.02502 0.0
C1379 C 0.75755 0.74326 0.05623 0.0
C1380 C 0.74472 0.74256 0.05782 0.0
C1381 C 0.76259 0.74859 0.04565 0.0
C1382 C 0.75493 0.75345 0.03645 0.0
C1383 C 0.73708 0.74734 0.04852 0.0
C1384 C 0.74213 0.75264 0.03793 0.0
C1385 C 0.76013 0.75889 0.02505 0.0
C1386 C 0.75642 0.74369 0.9718 0.0
C1387 C 0.74354 0.7429 0.97063 0.0
C1388 C 0.76185 0.74888 0.98228 0.0
C1389 C 0.75452 0.75356 0.99173 0.0
C1390 C 0.73625 0.74745 0.98019 0.0
C1391 C 0.74168 0.75267 0.99063 0.0
C1392 C 0.76005 0.75887 1.00307 0.0
C1393 C 0.77227 0.78347 0.97195 0.0
C1394 C 0.78509 0.78426 0.97036 0.0
C1395 C 0.76727 0.77804 0.9825 0.0
C1396 C 0.77497 0.7731 0.99163 0.0
C1397 C 0.79277 0.77945 0.9796 0.0
C1398 C 0.78776 0.77398 0.99014 0.0
C1399 C 0.76981 0.76757 1.00303 0.0
H1400 H 0.76513 0.78738 0.06251 0.0
H1401 H 0.75694 0.77784 0.04395 0.0
H1402 H 0.80211 0.78111 0.04982 0.0
H1403 H 0.79381 0.7711 0.03143 0.0
H1404 H 0.76372 0.73945 0.06306 0.0
H1405 H 0.77249 0.74876 0.04459 0.0
H1406 H 0.72718 0.7471 0.04947 0.0
H1407 H 0.73603 0.75625 0.03093 0.0
H1408 H 0.76231 0.74009 0.96472 0.0
H1409 H 0.77178 0.74908 0.98305 0.0
H1410 H 0.72631 0.74711 0.97956 0.0
H1411 H 0.73582 0.75612 0.99781 0.0
H1412 H 0.76608 0.78731 0.96515 0.0
H1413 H 0.75738 0.77787 0.98359 0.0
H1414 H 0.80267 0.77981 0.97865 0.0
H1415 H 0.79389 0.77035 0.99709 0.0
N1416 N 0.77433 0.77157 0.01401 0.0
N1417 N 0.75559 0.75494 0.01408 0.0
C1418 C 0.27241 0.74552 0.97329 0.0
C1419 C 0.2853 0.74515 0.97229 0.0
C1420 C 0.2669 0.75032 0.9838 0.0
C1421 C 0.27415 0.75499 0.99346 0.0
C1422 C 0.29251 0.74957 0.98211 0.0
C1423 C 0.287 0.75438 0.99259 0.0
C1424 C 0.26852 0.76015 1.00469 0.0
C1425 C 0.2575 0.78489 0.97341 0.0
C1426 C 0.24474 0.78547 0.97136 0.0
C1427 C 0.26217 0.77951 0.98412 0.0
C1428 C 0.25419 0.77443 0.99293 0.0
C1429 C 0.23677 0.78055 0.9803 0.0
C1430 C 0.24145 0.77514 0.991 0.0
C1431 C 0.25899 0.76888 1.00443 0.0
C1432 C 0.25665 0.78499 0.05715 0.0
C1433 C 0.24387 0.78609 0.05867 0.0
C1434 C 0.26143 0.77937 0.04672 0.0
C1435 C 0.25355 0.77458 0.03763 0.0
C1436 C 0.236 0.78139 0.04948 0.0
C1437 C 0.2408 0.77577 0.03904 0.0
C1438 C 0.25856 0.76885 0.02638 0.0
C1439 C 0.2691 0.74413 0.05774 0.0
C1440 C 0.28185 0.74303 0.05968 0.0
C1441 C 0.26457 0.74966 0.04705 0.0
C1442 C 0.27267 0.75436 0.03814 0.0
C1443 C 0.28993 0.74762 0.05067 0.0
C1444 C 0.28538 0.75316 0.03998 0.0
C1445 C 0.26797 0.76 0.02664 0.0
H1446 H 0.26657 0.74223 0.9659 0.0
H1447 H 0.25696 0.75036 0.98437 0.0
H1448 H 0.30245 0.74921 0.98177 0.0
H1449 H 0.2928 0.75775 0.99998 0.0
H1450 H 0.26389 0.78882 0.96684 0.0
H1451 H 0.27203 0.77946 0.98557 0.0
H1452 H 0.2269 0.78076 0.97898 0.0
H1453 H 0.23511 0.7714 0.99772 0.0
H1454 H 0.26298 0.78843 0.06406 0.0
H1455 H 0.27132 0.77888 0.04572 0.0
H1456 H 0.22612 0.78226 0.05025 0.0
H1457 H 0.23454 0.7723 0.03208 0.0
H1458 H 0.26262 0.74076 0.06451 0.0
H1459 H 0.25471 0.75015 0.04571 0.0
H1460 H 0.29978 0.74675 0.05177 0.0
H1461 H 0.2918 0.75657 0.03317 0.0
N1462 N 0.27265 0.75609 0.01579 0.0
N1463 N 0.25437 0.77285 0.01528 0.0
C1464 C 0.97155 0.24593 0.25485 0.0
C1465 C 0.97009 0.24631 0.242 0.0
C1466 C 0.98223 0.25064 0.26039 0.0
C1467 C 0.99159 0.25597 0.25321 0.0
C1468 C 0.9796 0.25144 0.23484 0.0
C1469 C 0.99024 0.25616 0.24039 0.0
C1470 C 1.00304 0.26087 0.25888 0.0
C1471 C 0.97211 0.28416 0.27287 0.0
C1472 C 0.9707 0.28391 0.28572 0.0
C1473 C 0.98262 0.27933 0.2674 0.0
C1474 C 0.99189 0.274 0.27464 0.0
C1475 C 0.98014 0.27881 0.29294 0.0
C1476 C 0.99062 0.27397 0.28746 0.0
C1477 C 1.00318 0.2689 0.26906 0.0
C1478 C 0.05671 0.28355 0.27293 0.0
C1479 C 0.05811 0.28356 0.28578 0.0
C1480 C 0.04603 0.27876 0.26749 0.0
C1481 C 0.03663 0.27366 0.27477 0.0
C1482 C 0.04858 0.27867 0.29305 0.0
C1483 C 0.03794 0.27382 0.2876 0.0
C1484 C 0.02517 0.26866 0.26919 0.0
C1485 C 0.05596 0.24493 0.25594 0.0
C1486 C 0.05755 0.24492 0.24311 0.0
C1487 C 0.04542 0.24994 0.26116 0.0
C1488 C 0.03632 0.25525 0.25369 0.0
C1489 C 0.04829 0.25001 0.23566 0.0
C1490 C 0.03778 0.25507 0.24089 0.0
C1491 C 0.02503 0.26056 0.25907 0.0
H1492 H 0.96441 0.24209 0.26064 0.0
H1493 H 0.98318 0.25005 0.27028 0.0
H1494 H 0.97889 0.25167 0.22492 0.0
H1495 H 0.99742 0.26004 0.23465 0.0
H1496 H 0.96503 0.28798 0.26701 0.0
H1497 H 0.98351 0.27983 0.25751 0.0
H1498 H 0.97952 0.27869 0.30286 0.0
H1499 H 0.99772 0.27009 0.29327 0.0
H1500 H 0.06378 0.28746 0.26708 0.0
H1501 H 0.04509 0.27914 0.25758 0.0
H1502 H 0.04941 0.27845 0.30297 0.0
H1503 H 0.03077 0.27005 0.29343 0.0
H1504 H 0.06278 0.24087 0.26194 0.0
H1505 H 0.04435 0.24957 0.27104 0.0
H1506 H 0.04924 0.25025 0.22576 0.0
H1507 H 0.03084 0.25899 0.23492 0.0
N1508 N 0.01396 0.25709 0.25427 0.0
N1509 N 0.01425 0.2724 0.27383 0.0
C1510 C 0.74366 0.97155 0.27144 0.0
C1511 C 0.74277 0.97003 0.28424 0.0
C1512 C 0.749 0.98217 0.26644 0.0
C1513 C 0.75374 0.99141 0.27414 0.0
C1514 C 0.74741 0.97934 0.29192 0.0
C1515 C 0.75279 0.98994 0.28691 0.0
C1516 C 0.75908 1.0029 0.269 0.0
C1517 C 0.78414 0.97262 0.25713 0.0
C1518 C 0.78492 0.97102 0.24434 0.0
C1519 C 0.77853 0.98299 0.26203 0.0
C1520 C 0.77343 0.99194 0.25425 0.0
C1521 C 0.7799 0.98006 0.23658 0.0
C1522 C 0.77429 0.99044 0.24149 0.0
C1523 C 0.76775 1.00316 0.25935 0.0
C1524 C 0.78364 0.05618 0.25788 0.0
C1525 C 0.78419 0.05821 0.24512 0.0
C1526 C 0.77828 0.04545 0.2626 0.0
C1527 C 0.77318 0.0366 0.25468 0.0
C1528 C 0.77926 0.04923 0.23721 0.0
C1529 C 0.77386 0.03852 0.24195 0.0
C1530 C 0.76764 0.0251 0.25957 0.0
C1531 C 0.74411 0.05605 0.27285 0.0
C1532 C 0.74383 0.05728 0.28571 0.0
C1533 C 0.74896 0.04553 0.26745 0.0
C1534 C 0.75375 0.03605 0.27479 0.0
C1535 C 0.74837 0.04763 0.29301 0.0
C1536 C 0.75321 0.03713 0.28761 0.0
C1537 C 0.759 0.02484 0.26925 0.0
H1538 H 0.73996 0.96467 0.26526 0.0
H1539 H 0.74924 0.98324 0.25654 0.0
H1540 H 0.74697 0.97842 0.30182 0.0
H1541 H 0.75628 0.99697 0.29304 0.0
H1542 H 0.78784 0.96583 0.26339 0.0
H1543 H 0.7783 0.98406 0.27191 0.0
H1544 H 0.7805 0.97924 0.22669 0.0
H1545 H 0.77058 0.99729 0.2353 0.0
H1546 H 0.78759 0.06277 0.26422 0.0
H1547 H 0.77826 0.04401 0.27245 0.0
H1548 H 0.77946 0.05054 0.22734 0.0
H1549 H 0.7701 0.03177 0.23565 0.0
H1550 H 0.74074 0.06331 0.26693 0.0
H1551 H 0.74894 0.04481 0.25753 0.0
H1552 H 0.74808 0.04814 0.30294 0.0
H1553 H 0.75668 0.02988 0.29348 0.0
N1554 N 0.75514 0.01374 0.27361 0.0
N1555 N 0.7716 0.01426 0.25496 0.0
C1556 C 0.05619 0.78325 0.25633 0.0
C1557 C 0.0572 0.78355 0.24345 0.0
C1558 C 0.04556 0.77857 0.26194 0.0
C1559 C 0.03576 0.77397 0.25479 0.0
C1560 C 0.04726 0.77918 0.23634 0.0
C1561 C 0.03665 0.7745 0.24195 0.0
C1562 C 0.02438 0.76899 0.26053 0.0
C1563 C 0.05483 0.74363 0.27184 0.0
C1564 C 0.05698 0.74293 0.28458 0.0
C1565 C 0.04431 0.74933 0.2672 0.0
C1566 C 0.03576 0.75462 0.27517 0.0
C1567 C 0.04832 0.7481 0.29255 0.0
C1568 C 0.0378 0.75381 0.28789 0.0
C1569 C 0.0244 0.76043 0.27035 0.0
C1570 C 0.97119 0.74505 0.27363 0.0
C1571 C 0.96973 0.74441 0.28646 0.0
C1572 C 0.98176 0.75038 0.26851 0.0
C1573 C 0.99102 0.75537 0.27609 0.0
C1574 C 0.97911 0.74925 0.29402 0.0
C1575 C 0.98965 0.75461 0.28889 0.0
C1576 C 1.00241 0.76078 0.27078 0.0
C1577 C 0.97117 0.78456 0.25795 0.0
C1578 C 0.96961 0.78504 0.24511 0.0
C1579 C 0.9818 0.77952 0.26315 0.0
C1580 C 0.99101 0.77468 0.25564 0.0
C1581 C 0.97897 0.78038 0.23763 0.0
C1582 C 0.98955 0.77532 0.24283 0.0
C1583 C 1.00239 0.76934 0.26095 0.0
H1584 H 0.06367 0.7865 0.2621 0.0
H1585 H 0.04499 0.77859 0.27187 0.0
H1586 H 0.0476 0.77949 0.2264 0.0
H1587 H 0.02916 0.77118 0.23622 0.0
H1588 H 0.06132 0.73984 0.26541 0.0
H1589 H 0.04281 0.74949 0.25736 0.0
H1590 H 0.04956 0.74755 0.30242 0.0
H1591 H 0.03126 0.75765 0.29424 0.0
H1592 H 0.96429 0.74118 0.26754 0.0
H1593 H 0.98275 0.75043 0.25862 0.0
H1594 H 0.97825 0.74898 0.30393 0.0
H1595 H 0.99672 0.75828 0.29493 0.0
H1596 H 0.96427 0.78827 0.26398 0.0
H1597 H 0.98284 0.77952 0.27305 0.0
H1598 H 0.97803 0.78048 0.22772 0.0
H1599 H 0.99656 0.77173 0.23683 0.0
N1600 N 0.01338 0.77302 0.2562 0.0
N1601 N 0.01342 0.75674 0.27513 0.0
C1602 C 0.25544 0.97237 0.24506 0.0
C1603 C 0.24257 0.97089 0.24473 0.0
C1604 C 0.26082 0.98293 0.25012 0.0
C1605 C 0.25346 0.99214 0.25516 0.0
C1606 C 0.23524 0.98022 0.24962 0.0
C1607 C 0.24063 0.99073 0.25472 0.0
C1608 C 0.25894 1.00353 0.26038 0.0
C1609 C 0.27224 0.97236 0.28406 0.0
C1610 C 0.28509 0.97098 0.28427 0.0
C1611 C 0.26695 0.98294 0.27909 0.0
C1612 C 0.27438 0.9923 0.27404 0.0
C1613 C 0.2925 0.98049 0.27945 0.0
C1614 C 0.2872 0.99104 0.27444 0.0
C1615 C 0.26892 1.00362 0.26878 0.0
C1616 C 0.27101 0.05633 0.28516 0.0
C1617 C 0.28381 0.05822 0.28577 0.0
C1618 C 0.26606 0.04578 0.27968 0.0
C1619 C 0.2738 0.03697 0.27451 0.0
C1620 C 0.29154 0.04929 0.28075 0.0
C1621 C 0.28659 0.03877 0.27523 0.0
C1622 C 0.2687 0.02558 0.26894 0.0
C1623 C 0.25493 0.05683 0.24547 0.0
C1624 C 0.24204 0.05781 0.24492 0.0
C1625 C 0.26042 0.04639 0.25053 0.0
C1626 C 0.25314 0.03677 0.25533 0.0
C1627 C 0.23481 0.04809 0.24958 0.0
C1628 C 0.24029 0.03769 0.25467 0.0
C1629 C 0.25875 0.02548 0.2605 0.0
H1630 H 0.26134 0.96547 0.24118 0.0
H1631 H 0.27074 0.98395 0.24997 0.0
H1632 H 0.22531 0.97933 0.24964 0.0
H1633 H 0.23474 0.99774 0.25845 0.0
H1634 H 0.26627 0.96534 0.28792 0.0
H1635 H 0.25705 0.98384 0.2793 0.0
H1636 H 0.30242 0.9797 0.27937 0.0
H1637 H 0.29313 0.99818 0.27072 0.0
H1638 H 0.2648 0.06288 0.28916 0.0
H1639 H 0.25618 0.04444 0.27965 0.0
H1640 H 0.30144 0.05049 0.28098 0.0
H1641 H 0.29275 0.03205 0.27142 0.0
H1642 H 0.26078 0.06404 0.24177 0.0
H1643 H 0.27035 0.04577 0.25054 0.0
H1644 H 0.22487 0.04858 0.24943 0.0
H1645 H 0.23447 0.03037 0.25821 0.0
N1646 N 0.25424 0.01445 0.25665 0.0
N1647 N 0.27343 0.01465 0.27265 0.0
C1648 C 0.97146 0.7454 0.75605 0.0
C1649 C 0.96983 0.74543 0.74323 0.0
C1650 C 0.98216 0.75033 0.76133 0.0
C1651 C 0.99137 0.75559 0.7539 0.0
C1652 C 0.97917 0.75047 0.73581 0.0
C1653 C 0.98984 0.75545 0.74109 0.0
C1654 C 1.00283 0.76075 0.75932 0.0
C1655 C 0.97185 0.78401 0.77317 0.0
C1656 C 0.9705 0.78393 0.78602 0.0
C1657 C 0.98237 0.77916 0.76773 0.0
C1658 C 0.9917 0.77396 0.77501 0.0
C1659 C 0.97999 0.77897 0.79328 0.0
C1660 C 0.99047 0.7741 0.78783 0.0
C1661 C 1.00298 0.76885 0.76944 0.0
C1662 C 0.05635 0.78393 0.77349 0.0
C1663 C 0.05765 0.78386 0.78635 0.0
C1664 C 0.04579 0.779 0.76792 0.0
C1665 C 0.03641 0.77371 0.77511 0.0
C1666 C 0.04817 0.7787 0.7935 0.0
C1667 C 0.03765 0.77373 0.78794 0.0
C1668 C 0.02498 0.76874 0.76945 0.0
C1669 C 0.0559 0.74545 0.75545 0.0
C1670 C 0.05726 0.74561 0.7426 0.0
C1671 C 0.04541 0.75032 0.76093 0.0
C1672 C 0.03611 0.75561 0.75369 0.0
C1673 C 0.0478 0.75068 0.73538 0.0
C1674 C 0.03734 0.75557 0.74086 0.0
C1675 C 0.02483 0.76069 0.75929 0.0
H1676 H 0.96455 0.74137 0.76201 0.0
H1677 H 0.98329 0.74992 0.77121 0.0
H1678 H 0.97817 0.75073 0.72591 0.0
H1679 H 0.99686 0.75934 0.73516 0.0
H1680 H 0.96473 0.78771 0.76729 0.0
H1681 H 0.98322 0.77952 0.75783 0.0
H1682 H 0.9794 0.77897 0.80321 0.0
H1683 H 0.99761 0.77033 0.79367 0.0
H1684 H 0.06339 0.78802 0.76773 0.0
H1685 H 0.04489 0.77948 0.75802 0.0
H1686 H 0.04892 0.77838 0.80342 0.0
H1687 H 0.0305 0.76981 0.79368 0.0
H1688 H 0.063 0.74166 0.76131 0.0
H1689 H 0.04455 0.74988 0.77083 0.0
H1690 H 0.04838 0.75074 0.72545 0.0
H1691 H 0.03022 0.75941 0.73505 0.0
N1692 N 0.01375 0.7571 0.7546 0.0
N1693 N 0.01405 0.77242 0.77414 0.0
C1694 C 0.24344 0.97126 0.7708 0.0
C1695 C 0.24261 0.96951 0.78358 0.0
C1696 C 0.2487 0.98199 0.76596 0.0
C1697 C 0.2534 0.99113 0.7738 0.0
C1698 C 0.24717 0.97875 0.7914 0.0
C1699 C 0.25245 0.98947 0.78655 0.0
C1700 C 0.2588 1.00266 0.76882 0.0
C1701 C 0.28395 0.97242 0.75714 0.0
C1702 C 0.28488 0.97086 0.74435 0.0
C1703 C 0.27831 0.98278 0.76201 0.0
C1704 C 0.27333 0.99178 0.75421 0.0
C1705 C 0.27999 0.97995 0.73656 0.0
C1706 C 0.27435 0.99033 0.74145 0.0
C1707 C 0.26759 1.00297 0.75928 0.0
C1708 C 0.28379 0.05586 0.75846 0.0
C1709 C 0.28457 0.05799 0.74573 0.0
C1710 C 0.27823 0.04516 0.76301 0.0
C1711 C 0.27316 0.03643 0.75494 0.0
C1712 C 0.27961 0.04916 0.73766 0.0
C1713 C 0.27403 0.03846 0.74223 0.0
C1714 C 0.26751 0.02491 0.75965 0.0
C1715 C 0.24392 0.05584 0.77285 0.0
C1716 C 0.24352 0.05699 0.78571 0.0
C1717 C 0.24878 0.04533 0.76744 0.0
C1718 C 0.25346 0.03579 0.77477 0.0
C1719 C 0.24795 0.04729 0.79301 0.0
C1720 C 0.2528 0.03679 0.78759 0.0
C1721 C 0.25875 0.02459 0.76922 0.0
H1722 H 0.23979 0.96445 0.76451 0.0
H1723 H 0.24895 0.98321 0.75608 0.0
H1724 H 0.24676 0.97766 0.80128 0.0
H1725 H 0.25592 0.99642 0.79278 0.0
H1726 H 0.28754 0.96559 0.76342 0.0
H1727 H 0.27796 0.98381 0.77189 0.0
H1728 H 0.28072 0.97917 0.72668 0.0
H1729 H 0.27073 0.99721 0.73524 0.0
H1730 H 0.28744 0.06248 0.76493 0.0
H1731 H 0.278 0.04367 0.77285 0.0
H1732 H 0.28024 0.0504 0.72781 0.0
H1733 H 0.27035 0.03177 0.73583 0.0
H1734 H 0.24063 0.06314 0.76694 0.0
H1735 H 0.24887 0.04467 0.75751 0.0
H1736 H 0.24758 0.04775 0.80293 0.0
H1737 H 0.25618 0.0295 0.79346 0.0
N1738 N 0.2548 0.01348 0.77345 0.0
N1739 N 0.27152 0.01409 0.75502 0.0
C1740 C 0.05637 0.28339 0.75783 0.0
C1741 C 0.05764 0.28405 0.74498 0.0
C1742 C 0.04565 0.27854 0.7631 0.0
C1743 C 0.03604 0.27404 0.75564 0.0
C1744 C 0.04791 0.27973 0.73755 0.0
C1745 C 0.03723 0.27484 0.74283 0.0
C1746 C 0.02453 0.26895 0.76101 0.0
C1747 C 0.05486 0.24381 0.77312 0.0
C1748 C 0.05656 0.24301 0.78592 0.0
C1749 C 0.04442 0.24939 0.76815 0.0
C1750 C 0.03552 0.25449 0.77587 0.0
C1751 C 0.04752 0.24793 0.79362 0.0
C1752 C 0.0371 0.25356 0.78864 0.0
C1753 C 0.02429 0.26027 0.77072 0.0
C1754 C 0.97108 0.24466 0.77212 0.0
C1755 C 0.96919 0.24378 0.78487 0.0
C1756 C 0.98177 0.25014 0.76743 0.0
C1757 C 0.99075 0.25504 0.77539 0.0
C1758 C 0.97828 0.24857 0.79282 0.0
C1759 C 0.98896 0.25407 0.78812 0.0
C1760 C 1.00228 0.26058 0.77053 0.0
C1761 C 0.97142 0.28464 0.7572 0.0
C1762 C 0.97031 0.28547 0.74434 0.0
C1763 C 0.98185 0.27941 0.76262 0.0
C1764 C 0.99131 0.27474 0.7553 0.0
C1765 C 0.97989 0.28096 0.73705 0.0
C1766 C 0.99028 0.27571 0.74247 0.0
C1767 C 1.00253 0.26929 0.76084 0.0
H1768 H 0.06359 0.28684 0.76382 0.0
H1769 H 0.04483 0.27841 0.77301 0.0
H1770 H 0.04861 0.27998 0.72764 0.0
H1771 H 0.02992 0.27152 0.73686 0.0
H1772 H 0.06149 0.23988 0.76692 0.0
H1773 H 0.04324 0.24958 0.75827 0.0
H1774 H 0.04856 0.24756 0.80351 0.0
H1775 H 0.03031 0.2573 0.79479 0.0
H1776 H 0.96426 0.24115 0.76572 0.0
H1777 H 0.98305 0.25043 0.75758 0.0
H1778 H 0.97724 0.24787 0.80269 0.0
H1779 H 0.99584 0.25761 0.79445 0.0
H1780 H 0.96433 0.28822 0.76309 0.0
H1781 H 0.98256 0.27916 0.77255 0.0
H1782 H 0.9793 0.28133 0.72713 0.0
H1783 H 0.99747 0.27226 0.73661 0.0
N1784 N 0.01364 0.27304 0.75644 0.0
N1785 N 0.01317 0.2565 0.77513 0.0
C1786 C 0.75564 0.97225 0.7454 0.0
C1787 C 0.74281 0.9704 0.74557 0.0
C1788 C 0.7609 0.98302 0.75013 0.0
C1789 C 0.75347 0.99212 0.75525 0.0
C1790 C 0.73539 0.97967 0.75044 0.0
C1791 C 0.74066 0.99042 0.75517 0.0
C1792 C 0.75884 1.00361 0.76036 0.0
C1793 C 0.77285 0.9727 0.7841 0.0
C1794 C 0.78573 0.9716 0.7843 0.0
C1795 C 0.76731 0.98313 0.77907 0.0
C1796 C 0.77453 0.99262 0.77395 0.0
C1797 C 0.79292 0.98122 0.77936 0.0
C1798 C 0.78738 0.99162 0.77429 0.0
C1799 C 0.76884 1.00385 0.76873 0.0
C1800 C 0.76963 0.05634 0.78558 0.0
C1801 C 0.78238 0.05859 0.78629 0.0
C1802 C 0.76502 0.04575 0.77993 0.0
C1803 C 0.77303 0.03724 0.77467 0.0
C1804 C 0.79039 0.04998 0.78114 0.0
C1805 C 0.78575 0.03939 0.77546 0.0
C1806 C 0.76824 0.02579 0.76896 0.0
C1807 C 0.75425 0.05702 0.74581 0.0
C1808 C 0.74136 0.05806 0.74556 0.0
C1809 C 0.7598 0.04648 0.75058 0.0
C1810 C 0.7526 0.0368 0.75535 0.0
C1811 C 0.73418 0.04822 0.75009 0.0
C1812 C 0.73974 0.0377 0.75486 0.0
C1813 C 0.75833 0.02555 0.76048 0.0
H1814 H 0.76163 0.9653 0.74176 0.0
H1815 H 0.77079 0.98424 0.74977 0.0
H1816 H 0.72548 0.97868 0.75051 0.0
H1817 H 0.73471 0.99737 0.7589 0.0
H1818 H 0.76704 0.96558 0.78804 0.0
H1819 H 0.7574 0.98383 0.77932 0.0
H1820 H 0.80285 0.98065 0.77925 0.0
H1821 H 0.79315 0.99886 0.77051 0.0
H1822 H 0.76319 0.0628 0.78936 0.0
H1823 H 0.75517 0.04417 0.77978 0.0
H1824 H 0.80025 0.0513 0.7817 0.0
H1825 H 0.79213 0.03287 0.77165 0.0
H1826 H 0.76006 0.06441 0.74245 0.0
H1827 H 0.76973 0.0459 0.75052 0.0
H1828 H 0.72424 0.0486 0.74984 0.0
H1829 H 0.73398 0.0303 0.75831 0.0
N1830 N 0.75397 0.01446 0.75663 0.0
N1831 N 0.77316 0.01494 0.77264 0.0
C1832 C 0.25765 0.74298 0.55682 0.0
C1833 C 0.24485 0.74205 0.55851 0.0
C1834 C 0.26251 0.74844 0.54621 0.0
C1835 C 0.25468 0.75322 0.53711 0.0
C1836 C 0.23704 0.74676 0.54933 0.0
C1837 C 0.24191 0.75221 0.53872 0.0
C1838 C 0.25967 0.75874 0.52563 0.0
C1839 C 0.27208 0.78345 0.55636 0.0
C1840 C 0.28491 0.78449 0.55785 0.0
C1841 C 0.26701 0.77793 0.5459 0.0
C1842 C 0.27464 0.77315 0.53675 0.0
C1843 C 0.29253 0.77986 0.54858 0.0
C1844 C 0.28744 0.7743 0.53813 0.0
C1845 C 0.26937 0.76751 0.52546 0.0
C1846 C 0.27053 0.78374 0.47251 0.0
C1847 C 0.2833 0.78452 0.47055 0.0
C1848 C 0.26583 0.7782 0.48314 0.0
C1849 C 0.27378 0.77316 0.492 0.0
C1850 C 0.29124 0.7796 0.47951 0.0
C1851 C 0.28652 0.77405 0.49014 0.0
C1852 C 0.26892 0.76752 0.50347 0.0
C1853 C 0.25509 0.74401 0.47225 0.0
C1854 C 0.24219 0.74341 0.47116 0.0
C1855 C 0.26067 0.74895 0.48277 0.0
C1856 C 0.25348 0.75355 0.49238 0.0
C1857 C 0.23504 0.74777 0.48093 0.0
C1858 C 0.24062 0.75272 0.49142 0.0
C1859 C 0.25918 0.7588 0.50365 0.0
H1860 H 0.26394 0.73952 0.56372 0.0
H1861 H 0.27239 0.74879 0.54507 0.0
H1862 H 0.22715 0.74603 0.55022 0.0
H1863 H 0.23567 0.75569 0.53177 0.0
H1864 H 0.26593 0.78715 0.56317 0.0
H1865 H 0.2571 0.77756 0.54489 0.0
H1866 H 0.30244 0.78041 0.54946 0.0
H1867 H 0.29353 0.7708 0.53116 0.0
H1868 H 0.26414 0.78735 0.46579 0.0
H1869 H 0.25598 0.77796 0.48448 0.0
H1870 H 0.30112 0.78022 0.47842 0.0
H1871 H 0.29285 0.7704 0.49692 0.0
H1872 H 0.26089 0.74078 0.46491 0.0
H1873 H 0.27061 0.74914 0.4834 0.0
H1874 H 0.2251 0.74723 0.48054 0.0
H1875 H 0.23487 0.75602 0.49876 0.0
N1876 N 0.25493 0.75482 0.51473 0.0
N1877 N 0.27366 0.77146 0.51438 0.0
C1878 C 0.78251 0.75559 0.55771 0.0
C1879 C 0.78212 0.74277 0.55925 0.0
C1880 C 0.77783 0.76103 0.54702 0.0
C1881 C 0.77254 0.75377 0.53772 0.0
C1882 C 0.77709 0.73552 0.54977 0.0
C1883 C 0.77241 0.74097 0.5391 0.0
C1884 C 0.76749 0.75938 0.52636 0.0
C1885 C 0.74398 0.77232 0.55759 0.0
C1886 C 0.74397 0.78513 0.55916 0.0
C1887 C 0.74888 0.76714 0.54697 0.0
C1888 C 0.75407 0.77464 0.53778 0.0
C1889 C 0.74896 0.79261 0.54983 0.0
C1890 C 0.7539 0.78742 0.53924 0.0
C1891 C 0.75925 0.76934 0.5264 0.0
C1892 C 0.74443 0.77358 0.47308 0.0
C1893 C 0.74413 0.78644 0.4719 0.0
C1894 C 0.7494 0.76811 0.48361 0.0
C1895 C 0.75434 0.77536 0.4931 0.0
C1896 C 0.74892 0.79367 0.4815 0.0
C1897 C 0.75392 0.78818 0.492 0.0
C1898 C 0.75944 0.76974 0.50444 0.0
C1899 C 0.78416 0.75799 0.47373 0.0
C1900 C 0.78458 0.74524 0.47184 0.0
C1901 C 0.77866 0.76276 0.48424 0.0
C1902 C 0.7733 0.75491 0.49303 0.0
C1903 C 0.77931 0.73739 0.48072 0.0
C1904 C 0.7738 0.74218 0.49123 0.0
C1905 C 0.76775 0.75984 0.5044 0.0
H1906 H 0.78627 0.76145 0.56483 0.0
H1907 H 0.77836 0.77091 0.54604 0.0
H1908 H 0.77686 0.72561 0.55055 0.0
H1909 H 0.76855 0.73517 0.53197 0.0
H1910 H 0.74 0.7663 0.56449 0.0
H1911 H 0.7485 0.75727 0.54591 0.0
H1912 H 0.74921 0.8025 0.55077 0.0
H1913 H 0.75775 0.79341 0.53224 0.0
H1914 H 0.74061 0.76775 0.46596 0.0
H1915 H 0.74923 0.7582 0.48439 0.0
H1916 H 0.74895 0.80358 0.48084 0.0
H1917 H 0.75758 0.79398 0.49923 0.0
H1918 H 0.78806 0.76431 0.46707 0.0
H1919 H 0.77872 0.77261 0.48555 0.0
H1920 H 0.77965 0.72753 0.47968 0.0
H1921 H 0.76989 0.73592 0.49795 0.0
N1922 N 0.77135 0.755 0.51537 0.0
N1923 N 0.75562 0.77414 0.51543 0.0
C1924 C 0.78386 0.27177 0.47204 0.0
C1925 C 0.78425 0.2846 0.47052 0.0
C1926 C 0.77886 0.26647 0.48266 0.0
C1927 C 0.77395 0.27387 0.49193 0.0
C1928 C 0.77957 0.29198 0.47994 0.0
C1929 C 0.77453 0.28668 0.49054 0.0
C1930 C 0.76861 0.2684 0.50327 0.0
C1931 C 0.74434 0.25604 0.47203 0.0
C1932 C 0.74379 0.24326 0.47029 0.0
C1933 C 0.74962 0.261 0.48267 0.0
C1934 C 0.75467 0.25331 0.49174 0.0
C1935 C 0.74865 0.23558 0.47949 0.0
C1936 C 0.75398 0.24055 0.49012 0.0
C1937 C 0.76014 0.25845 0.50318 0.0
C1938 C 0.74487 0.25425 0.55634 0.0
C1939 C 0.74474 0.2414 0.55772 0.0
C1940 C 0.74984 0.25977 0.5458 0.0
C1941 C 0.75494 0.25256 0.53648 0.0
C1942 C 0.74961 0.23423 0.54824 0.0
C1943 C 0.7546 0.23974 0.53773 0.0
C1944 C 0.76016 0.2582 0.52517 0.0
C1945 C 0.78368 0.2716 0.55669 0.0
C1946 C 0.78386 0.28442 0.55815 0.0
C1947 C 0.77876 0.26629 0.54603 0.0
C1948 C 0.77373 0.27367 0.53669 0.0
C1949 C 0.77902 0.29178 0.54868 0.0
C1950 C 0.77407 0.28646 0.53805 0.0
C1951 C 0.76855 0.26823 0.52526 0.0
H1952 H 0.78761 0.26582 0.46509 0.0
H1953 H 0.77893 0.25659 0.48366 0.0
H1954 H 0.77961 0.30188 0.47904 0.0
H1955 H 0.77091 0.29259 0.49759 0.0
H1956 H 0.74044 0.26223 0.46528 0.0
H1957 H 0.74963 0.27086 0.48386 0.0
H1958 H 0.74846 0.2257 0.47843 0.0
H1959 H 0.75769 0.23441 0.49703 0.0
H1960 H 0.74124 0.26008 0.56346 0.0
H1961 H 0.74964 0.26966 0.54492 0.0
H1962 H 0.74945 0.22431 0.54885 0.0
H1963 H 0.75829 0.23397 0.5306 0.0
H1964 H 0.78753 0.26567 0.56369 0.0
H1965 H 0.779 0.25641 0.54505 0.0
H1966 H 0.7789 0.30168 0.54953 0.0
H1967 H 0.77035 0.29237 0.53095 0.0
N1968 N 0.77238 0.27294 0.5143 0.0
N1969 N 0.75635 0.2537 0.51413 0.0
C1970 C 0.25756 0.28511 0.47374 0.0
C1971 C 0.24482 0.28582 0.47159 0.0
C1972 C 0.26211 0.27955 0.4844 0.0
C1973 C 0.25402 0.27443 0.49309 0.0
C1974 C 0.23674 0.28082 0.4804 0.0
C1975 C 0.2413 0.27525 0.49107 0.0
C1976 C 0.25871 0.26874 0.50457 0.0
C1977 C 0.27201 0.24541 0.47336 0.0
C1978 C 0.28489 0.24491 0.47236 0.0
C1979 C 0.26654 0.25025 0.48386 0.0
C1980 C 0.27383 0.25483 0.49355 0.0
C1981 C 0.29214 0.24925 0.4822 0.0
C1982 C 0.28667 0.25409 0.49268 0.0
C1983 C 0.26824 0.25999 0.50479 0.0
C1984 C 0.26944 0.24424 0.55797 0.0
C1985 C 0.28222 0.2434 0.5598 0.0
C1986 C 0.2647 0.24956 0.54726 0.0
C1987 C 0.27264 0.25431 0.53822 0.0
C1988 C 0.29013 0.248 0.55065 0.0
C1989 C 0.28538 0.25334 0.53995 0.0
C1990 C 0.26776 0.25983 0.52674 0.0
C1991 C 0.25622 0.28434 0.5575 0.0
C1992 C 0.24342 0.28513 0.55912 0.0
C1993 C 0.26106 0.27904 0.54693 0.0
C1994 C 0.25323 0.27424 0.5378 0.0
C1995 C 0.2356 0.28055 0.54984 0.0
C1996 C 0.24046 0.27522 0.53927 0.0
C1997 C 0.25829 0.26863 0.52652 0.0
H1998 H 0.26405 0.28879 0.46713 0.0
H1999 H 0.27195 0.27936 0.4859 0.0
H2000 H 0.22688 0.28139 0.47915 0.0
H2001 H 0.23488 0.27152 0.49773 0.0
H2002 H 0.26614 0.24219 0.46595 0.0
H2003 H 0.2566 0.25038 0.48442 0.0
H2004 H 0.30207 0.24878 0.48187 0.0
H2005 H 0.29249 0.25739 0.50009 0.0
H2006 H 0.26309 0.24057 0.56471 0.0
H2007 H 0.25483 0.24983 0.54599 0.0
H2008 H 0.30002 0.24758 0.5518 0.0
H2009 H 0.29169 0.25685 0.53307 0.0
H2010 H 0.26251 0.28802 0.56432 0.0
H2011 H 0.27095 0.2788 0.54585 0.0
H2012 H 0.22571 0.28094 0.55081 0.0
H2013 H 0.23423 0.27169 0.5323 0.0
N2014 N 0.25408 0.27265 0.51544 0.0
N2015 N 0.27241 0.25595 0.51587 0.0
C2016 C 0.74354 0.47137 0.7717 0.0
C2017 C 0.74272 0.4699 0.78452 0.0
C2018 C 0.74888 0.48195 0.76663 0.0
C2019 C 0.75369 0.49121 0.77426 0.0
C2020 C 0.74742 0.47924 0.79213 0.0
C2021 C 0.7528 0.48979 0.78705 0.0
C2022 C 0.75905 0.50266 0.76905 0.0
C2023 C 0.78398 0.47226 0.75723 0.0
C2024 C 0.78471 0.47059 0.74445 0.0
C2025 C 0.77839 0.48266 0.76209 0.0
C2026 C 0.77328 0.49158 0.75428 0.0
C2027 C 0.77968 0.47959 0.73665 0.0
C2028 C 0.7741 0.49 0.74152 0.0
C2029 C 0.76764 0.50283 0.75933 0.0
C2030 C 0.78366 0.5558 0.75713 0.0
C2031 C 0.78424 0.55756 0.74433 0.0
C2032 C 0.77823 0.5452 0.76206 0.0
C2033 C 0.77307 0.53622 0.75432 0.0
C2034 C 0.77922 0.54848 0.7366 0.0
C2035 C 0.77374 0.5379 0.74155 0.0
C2036 C 0.76758 0.52478 0.7594 0.0
C2037 C 0.74423 0.55586 0.77292 0.0
C2038 C 0.74393 0.557 0.78579 0.0
C2039 C 0.74909 0.54537 0.76746 0.0
C2040 C 0.75388 0.53585 0.77474 0.0
C2041 C 0.74849 0.54732 0.79304 0.0
C2042 C 0.75335 0.53687 0.78758 0.0
C2043 C 0.75904 0.5246 0.76918 0.0
H2044 H 0.73978 0.46447 0.76558 0.0
H2045 H 0.74907 0.48298 0.75673 0.0
H2046 H 0.74703 0.47835 0.80204 0.0
H2047 H 0.75635 0.49685 0.79313 0.0
H2048 H 0.78769 0.4655 0.76352 0.0
H2049 H 0.7782 0.48379 0.77196 0.0
H2050 H 0.78026 0.47871 0.72677 0.0
H2051 H 0.77038 0.49683 0.7353 0.0
H2052 H 0.78766 0.56249 0.76333 0.0
H2053 H 0.77823 0.54395 0.77194 0.0
H2054 H 0.77944 0.54958 0.72671 0.0
H2055 H 0.76994 0.53105 0.73539 0.0
H2056 H 0.74083 0.56313 0.76704 0.0
H2057 H 0.74905 0.54469 0.75754 0.0
H2058 H 0.74818 0.54775 0.80297 0.0
H2059 H 0.75682 0.52959 0.79341 0.0
N2060 N 0.75518 0.51354 0.77362 0.0
N2061 N 0.77147 0.5139 0.75484 0.0
C2062 C 0.25565 0.47227 0.74569 0.0
C2063 C 0.24282 0.47047 0.74589 0.0
C2064 C 0.26097 0.48301 0.75045 0.0
C2065 C 0.25359 0.49211 0.75563 0.0
C2066 C 0.23545 0.47975 0.75082 0.0
C2067 C 0.24077 0.49046 0.75558 0.0
C2068 C 0.25901 0.50355 0.76077 0.0
C2069 C 0.27292 0.47239 0.78416 0.0
C2070 C 0.28578 0.47109 0.784 0.0
C2071 C 0.26742 0.48297 0.77942 0.0
C2072 C 0.27465 0.49243 0.77427 0.0
C2073 C 0.29299 0.48072 0.7791 0.0
C2074 C 0.28748 0.49129 0.77436 0.0
C2075 C 0.26899 0.50372 0.76917 0.0
C2076 C 0.26984 0.55624 0.78604 0.0
C2077 C 0.28259 0.55847 0.78683 0.0
C2078 C 0.26524 0.54563 0.7804 0.0
C2079 C 0.27327 0.53708 0.77525 0.0
C2080 C 0.29061 0.5498 0.7818 0.0
C2081 C 0.286 0.53919 0.77614 0.0
C2082 C 0.26848 0.52566 0.76947 0.0
C2083 C 0.25509 0.55697 0.7461 0.0
C2084 C 0.24222 0.55807 0.74549 0.0
C2085 C 0.26046 0.54641 0.75104 0.0
C2086 C 0.25309 0.53679 0.75567 0.0
C2087 C 0.23488 0.5483 0.7499 0.0
C2088 C 0.24025 0.53777 0.75487 0.0
C2089 C 0.25864 0.5255 0.76091 0.0
H2090 H 0.26161 0.46532 0.742 0.0
H2091 H 0.27086 0.48419 0.75006 0.0
H2092 H 0.22553 0.47879 0.75091 0.0
H2093 H 0.23486 0.49742 0.75936 0.0
H2094 H 0.26707 0.46516 0.78782 0.0
H2095 H 0.25751 0.48376 0.7798 0.0
H2096 H 0.30292 0.48015 0.77904 0.0
H2097 H 0.29327 0.49853 0.77062 0.0
H2098 H 0.26338 0.56273 0.78973 0.0
H2099 H 0.25539 0.54408 0.78017 0.0
H2100 H 0.30048 0.5511 0.78243 0.0
H2101 H 0.29239 0.53265 0.7724 0.0
H2102 H 0.26103 0.56419 0.74257 0.0
H2103 H 0.27039 0.54574 0.75114 0.0
H2104 H 0.22494 0.54887 0.74968 0.0
H2105 H 0.23436 0.53045 0.75827 0.0
N2106 N 0.25423 0.51445 0.75702 0.0
N2107 N 0.27334 0.51477 0.77314 0.0
C2108 C 0.24338 0.47171 0.27176 0.0
C2109 C 0.24254 0.4702 0.28457 0.0
C2110 C 0.24879 0.48227 0.26672 0.0
C2111 C 0.25364 0.49148 0.2744 0.0
C2112 C 0.24728 0.4795 0.29222 0.0
C2113 C 0.25272 0.49004 0.28718 0.0
C2114 C 0.25913 0.50288 0.26923 0.0
C2115 C 0.28349 0.47204 0.25743 0.0
C2116 C 0.28425 0.47043 0.24463 0.0
C2117 C 0.27819 0.48258 0.26232 0.0
C2118 C 0.27336 0.49168 0.25454 0.0
C2119 C 0.27961 0.47967 0.23687 0.0
C2120 C 0.27428 0.49019 0.24178 0.0
C2121 C 0.26785 0.50299 0.25962 0.0
C2122 C 0.28453 0.55572 0.25797 0.0
C2123 C 0.2853 0.55762 0.2452 0.0
C2124 C 0.27885 0.54516 0.26272 0.0
C2125 C 0.27369 0.53634 0.2548 0.0
C2126 C 0.28022 0.54871 0.2373 0.0
C2127 C 0.27454 0.53815 0.24206 0.0
C2128 C 0.26797 0.52494 0.25972 0.0
C2129 C 0.24435 0.5561 0.27234 0.0
C2130 C 0.24362 0.55735 0.28517 0.0
C2131 C 0.24938 0.54557 0.26714 0.0
C2132 C 0.25397 0.53613 0.27466 0.0
C2133 C 0.24802 0.54778 0.29266 0.0
C2134 C 0.25308 0.53728 0.28746 0.0
C2135 C 0.25925 0.52483 0.26932 0.0
H2136 H 0.23961 0.46484 0.26561 0.0
H2137 H 0.24901 0.48332 0.25683 0.0
H2138 H 0.24686 0.47859 0.30212 0.0
H2139 H 0.2563 0.49705 0.29328 0.0
H2140 H 0.28721 0.46526 0.26368 0.0
H2141 H 0.278 0.48366 0.2722 0.0
H2142 H 0.27996 0.47871 0.22698 0.0
H2143 H 0.27074 0.49713 0.23558 0.0
H2144 H 0.28827 0.56242 0.26432 0.0
H2145 H 0.27862 0.54384 0.27258 0.0
H2146 H 0.28084 0.54978 0.22743 0.0
H2147 H 0.27078 0.53139 0.23578 0.0
H2148 H 0.24083 0.56317 0.26629 0.0
H2149 H 0.24957 0.54476 0.25723 0.0
H2150 H 0.24773 0.54847 0.30258 0.0
H2151 H 0.25646 0.5301 0.29346 0.0
N2152 N 0.25526 0.51379 0.27373 0.0
N2153 N 0.27186 0.51402 0.2552 0.0
C2154 C 0.75561 0.47186 0.24579 0.0
C2155 C 0.74274 0.47028 0.24584 0.0
C2156 C 0.76105 0.48255 0.25054 0.0
C2157 C 0.75375 0.49181 0.25557 0.0
C2158 C 0.73548 0.4797 0.25065 0.0
C2159 C 0.74092 0.49035 0.25541 0.0
C2160 C 0.75926 0.50329 0.26055 0.0
C2161 C 0.7732 0.47247 0.28445 0.0
C2162 C 0.78608 0.47133 0.28465 0.0
C2163 C 0.76771 0.4829 0.27937 0.0
C2164 C 0.77495 0.49232 0.27417 0.0
C2165 C 0.7933 0.48088 0.27964 0.0
C2166 C 0.7878 0.49127 0.27451 0.0
C2167 C 0.76931 0.50354 0.26888 0.0
C2168 C 0.77062 0.55632 0.28502 0.0
C2169 C 0.78338 0.5585 0.28553 0.0
C2170 C 0.76587 0.54564 0.27963 0.0
C2171 C 0.77377 0.53698 0.27446 0.0
C2172 C 0.79128 0.5497 0.28055 0.0
C2173 C 0.78652 0.53903 0.27512 0.0
C2174 C 0.76885 0.5255 0.26891 0.0
C2175 C 0.75473 0.55662 0.24559 0.0
C2176 C 0.74184 0.55757 0.24525 0.0
C2177 C 0.76033 0.54615 0.25048 0.0
C2178 C 0.75316 0.53646 0.25529 0.0
C2179 C 0.7347 0.54773 0.24981 0.0
C2180 C 0.7403 0.53729 0.25472 0.0
C2181 C 0.7589 0.52524 0.26048 0.0
H2182 H 0.76149 0.46479 0.2422 0.0
H2183 H 0.77095 0.48358 0.25022 0.0
H2184 H 0.72554 0.47892 0.25061 0.0
H2185 H 0.73507 0.49743 0.25906 0.0
H2186 H 0.76737 0.4654 0.28844 0.0
H2187 H 0.75779 0.48364 0.27963 0.0
H2188 H 0.80323 0.48027 0.27953 0.0
H2189 H 0.7936 0.49846 0.27068 0.0
H2190 H 0.76428 0.56277 0.289 0.0
H2191 H 0.75602 0.5441 0.27965 0.0
H2192 H 0.80115 0.55111 0.28073 0.0
H2193 H 0.79281 0.53243 0.27133 0.0
H2194 H 0.76053 0.56402 0.2422 0.0
H2195 H 0.77026 0.54562 0.25046 0.0
H2196 H 0.72476 0.54801 0.24948 0.0
H2197 H 0.73455 0.52988 0.25819 0.0
N2198 N 0.75446 0.51415 0.25675 0.0
N2199 N 0.77372 0.51464 0.27266 0.0
C2200 C 0.55585 0.25797 0.74401 0.0
C2201 C 0.55732 0.24522 0.74284 0.0
C2202 C 0.54535 0.26275 0.74952 0.0
C2203 C 0.53614 0.25488 0.75415 0.0
C2204 C 0.54801 0.23737 0.74736 0.0
C2205 C 0.53751 0.24216 0.75288 0.0
C2206 C 0.52482 0.25985 0.75979 0.0
C2207 C 0.55589 0.2708 0.78495 0.0
C2208 C 0.55776 0.28354 0.7861 0.0
C2209 C 0.54531 0.26614 0.77923 0.0
C2210 C 0.53642 0.27411 0.7744 0.0
C2211 C 0.5488 0.2915 0.78133 0.0
C2212 C 0.53821 0.28682 0.77562 0.0
C2213 C 0.52497 0.26928 0.76868 0.0
C2214 C 0.4719 0.27202 0.7842 0.0
C2215 C 0.4706 0.28482 0.78504 0.0
C2216 C 0.48237 0.26697 0.77885 0.0
C2217 C 0.49169 0.27461 0.77406 0.0
C2218 C 0.48002 0.29243 0.78037 0.0
C2219 C 0.49047 0.28738 0.775 0.0
C2220 C 0.50298 0.26942 0.7686 0.0
C2221 C 0.47165 0.2576 0.74407 0.0
C2222 C 0.47 0.24482 0.74317 0.0
C2223 C 0.48227 0.26255 0.74948 0.0
C2224 C 0.49138 0.25482 0.75429 0.0
C2225 C 0.47921 0.23711 0.74785 0.0
C2226 C 0.4898 0.24207 0.7533 0.0
C2227 C 0.50283 0.2599 0.7598 0.0
H2228 H 0.56285 0.2643 0.74071 0.0
H2229 H 0.5444 0.27261 0.75005 0.0
H2230 H 0.54873 0.22752 0.74645 0.0
H2231 H 0.53046 0.2359 0.75622 0.0
H2232 H 0.56263 0.26441 0.78845 0.0
H2233 H 0.54401 0.25629 0.77872 0.0
H2234 H 0.54985 0.30134 0.78224 0.0
H2235 H 0.53141 0.29315 0.77211 0.0
H2236 H 0.46496 0.26587 0.78792 0.0
H2237 H 0.48324 0.25709 0.77862 0.0
H2238 H 0.47929 0.30232 0.78075 0.0
H2239 H 0.49756 0.29347 0.77147 0.0
H2240 H 0.46485 0.2638 0.74033 0.0
H2241 H 0.48343 0.27243 0.74974 0.0
H2242 H 0.47819 0.22723 0.7474 0.0
H2243 H 0.49675 0.23592 0.75685 0.0
N2244 N 0.51375 0.25548 0.75579 0.0
N2245 N 0.51406 0.27375 0.77264 0.0
C2246 C 0.47165 0.77198 0.74538 0.0
C2247 C 0.46994 0.78475 0.74475 0.0
C2248 C 0.48213 0.7671 0.75099 0.0
C2249 C 0.49108 0.77487 0.75626 0.0
C2250 C 0.47897 0.79251 0.74995 0.0
C2251 C 0.48946 0.78761 0.75557 0.0
C2252 C 0.50244 0.76981 0.76187 0.0
C2253 C 0.47088 0.75612 0.78503 0.0
C2254 C 0.4695 0.74327 0.78527 0.0
C2255 C 0.48154 0.76162 0.78026 0.0
C2256 C 0.491 0.75437 0.7755 0.0
C2257 C 0.47912 0.73606 0.78074 0.0
C2258 C 0.48975 0.74155 0.77598 0.0
C2259 C 0.50241 0.75997 0.77041 0.0
C2260 C 0.55609 0.75642 0.78489 0.0
C2261 C 0.55719 0.74357 0.78545 0.0
C2262 C 0.54547 0.7618 0.78006 0.0
C2263 C 0.53578 0.75446 0.7755 0.0
C2264 C 0.54738 0.73626 0.78109 0.0
C2265 C 0.53679 0.74165 0.77623 0.0
C2266 C 0.52441 0.75997 0.77037 0.0
C2267 C 0.55495 0.77167 0.74502 0.0
C2268 C 0.557 0.78442 0.74433 0.0
C2269 C 0.54445 0.76689 0.75074 0.0
C2270 C 0.53582 0.77474 0.75605 0.0
C2271 C 0.54829 0.79227 0.74955 0.0
C2272 C 0.53778 0.78747 0.75528 0.0
C2273 C 0.52445 0.76978 0.76179 0.0
H2274 H 0.46486 0.76572 0.74155 0.0
H2275 H 0.48329 0.75725 0.75107 0.0
H2276 H 0.47807 0.80238 0.74946 0.0
H2277 H 0.49631 0.7938 0.7594 0.0
H2278 H 0.46366 0.76195 0.78841 0.0
H2279 H 0.4824 0.77152 0.78033 0.0
H2280 H 0.4785 0.72614 0.781 0.0
H2281 H 0.49698 0.73576 0.77253 0.0
H2282 H 0.56336 0.76233 0.78838 0.0
H2283 H 0.54479 0.77171 0.78 0.0
H2284 H 0.54795 0.72635 0.78126 0.0
H2285 H 0.52943 0.73577 0.77287 0.0
H2286 H 0.56149 0.76535 0.74117 0.0
H2287 H 0.54301 0.75704 0.75089 0.0
H2288 H 0.54947 0.80213 0.74901 0.0
H2289 H 0.53117 0.79372 0.75914 0.0
N2290 N 0.51347 0.77436 0.75797 0.0
N2291 N 0.51339 0.75543 0.77425 0.0
C2292 C 0.47163 0.78474 0.27249 0.0
C2293 C 0.47007 0.78492 0.28532 0.0
C2294 C 0.48219 0.77971 0.26733 0.0
C2295 C 0.49134 0.77456 0.27486 0.0
C2296 C 0.47938 0.78001 0.29283 0.0
C2297 C 0.48991 0.77494 0.28766 0.0
C2298 C 0.50263 0.76918 0.26955 0.0
C2299 C 0.4709 0.74594 0.25622 0.0
C2300 C 0.46944 0.74576 0.24338 0.0
C2301 C 0.48162 0.75078 0.26155 0.0
C2302 C 0.491 0.75575 0.25416 0.0
C2303 C 0.47896 0.75052 0.236 0.0
C2304 C 0.48964 0.75541 0.24134 0.0
C2305 C 0.50247 0.76083 0.25963 0.0
C2306 C 0.55534 0.74472 0.25702 0.0
C2307 C 0.55697 0.74455 0.24421 0.0
C2308 C 0.5448 0.74983 0.26214 0.0
C2309 C 0.53573 0.75506 0.25458 0.0
C2310 C 0.54775 0.74957 0.23665 0.0
C2311 C 0.53723 0.75471 0.24178 0.0
C2312 C 0.52445 0.76048 0.25984 0.0
C2313 C 0.55624 0.78358 0.27326 0.0
C2314 C 0.55764 0.78379 0.28611 0.0
C2315 C 0.54552 0.77878 0.2679 0.0
C2316 C 0.53608 0.77388 0.27527 0.0
C2317 C 0.54807 0.7791 0.29346 0.0
C2318 C 0.53739 0.77424 0.28809 0.0
C2319 C 0.52461 0.76883 0.26976 0.0
H2320 H 0.46477 0.78866 0.26644 0.0
H2321 H 0.48324 0.77993 0.25744 0.0
H2322 H 0.47845 0.7799 0.30273 0.0
H2323 H 0.49688 0.77113 0.29367 0.0
H2324 H 0.46385 0.74213 0.26216 0.0
H2325 H 0.4826 0.75054 0.27145 0.0
H2326 H 0.47809 0.75062 0.22609 0.0
H2327 H 0.4968 0.75908 0.23544 0.0
H2328 H 0.56214 0.74072 0.2631 0.0
H2329 H 0.5437 0.74959 0.27202 0.0
H2330 H 0.54873 0.7497 0.22676 0.0
H2331 H 0.53033 0.75858 0.23574 0.0
H2332 H 0.56334 0.78733 0.26735 0.0
H2333 H 0.54458 0.779 0.25799 0.0
H2334 H 0.54889 0.77903 0.30338 0.0
H2335 H 0.53019 0.77062 0.29397 0.0
N2336 N 0.5137 0.77276 0.27426 0.0
N2337 N 0.51339 0.7569 0.25513 0.0
C2338 C 0.47137 0.27225 0.2455 0.0
C2339 C 0.46981 0.28503 0.24482 0.0
C2340 C 0.48195 0.26728 0.25081 0.0
C2341 C 0.49116 0.27497 0.25575 0.0
C2342 C 0.47917 0.29272 0.24954 0.0
C2343 C 0.48974 0.28774 0.2549 0.0
C2344 C 0.50249 0.2698 0.26132 0.0
C2345 C 0.47096 0.2573 0.28509 0.0
C2346 C 0.4693 0.24449 0.28568 0.0
C2347 C 0.48168 0.26243 0.28007 0.0
C2348 C 0.49089 0.25485 0.27535 0.0
C2349 C 0.47865 0.23694 0.28117 0.0
C2350 C 0.48934 0.24207 0.27611 0.0
C2351 C 0.50235 0.2601 0.27001 0.0
C2352 C 0.5559 0.25618 0.28469 0.0
C2353 C 0.55697 0.24333 0.28525 0.0
C2354 C 0.54533 0.26158 0.27979 0.0
C2355 C 0.53566 0.25427 0.27516 0.0
C2356 C 0.54716 0.23604 0.28084 0.0
C2357 C 0.53662 0.24145 0.27591 0.0
C2358 C 0.52435 0.25982 0.26993 0.0
C2359 C 0.5554 0.27128 0.24518 0.0
C2360 C 0.55752 0.28403 0.24453 0.0
C2361 C 0.5447 0.26655 0.25057 0.0
C2362 C 0.53595 0.27444 0.25561 0.0
C2363 C 0.54862 0.29192 0.24937 0.0
C2364 C 0.53793 0.28717 0.2548 0.0
C2365 C 0.52449 0.26953 0.26125 0.0
H2366 H 0.4645 0.26606 0.24172 0.0
H2367 H 0.48299 0.25741 0.25095 0.0
H2368 H 0.47825 0.3026 0.24924 0.0
H2369 H 0.49677 0.29387 0.25851 0.0
H2370 H 0.46405 0.26338 0.28869 0.0
H2371 H 0.4828 0.27231 0.27997 0.0
H2372 H 0.47764 0.22705 0.28136 0.0
H2373 H 0.49634 0.23603 0.27263 0.0
H2374 H 0.56317 0.26207 0.28822 0.0
H2375 H 0.54468 0.27149 0.27972 0.0
H2376 H 0.5477 0.22612 0.28101 0.0
H2377 H 0.52926 0.2356 0.27249 0.0
H2378 H 0.56192 0.26495 0.2413 0.0
H2379 H 0.54322 0.25671 0.25067 0.0
H2380 H 0.54998 0.30177 0.2491 0.0
H2381 H 0.53126 0.29344 0.25851 0.0
N2382 N 0.51356 0.27418 0.25736 0.0
N2383 N 0.51328 0.25546 0.27389 0.0
H2384 H 0.21853 0.18917 0.1122 0.0
H2385 H 0.21268 0.22415 0.12957 0.0
H2386 H 0.22657 0.19962 0.09408 0.0
H2387 H 0.22073 0.23464 0.11139 0.0
H2388 H 0.22509 0.24921 0.07184 0.0
H2389 H 0.21633 0.23892 0.0898 0.0
H2390 H 0.24453 0.21141 0.08793 0.0
H2391 H 0.253 0.22142 0.06975 0.0
C2392 C 0.21903 0.19909 0.11219 0.0
C2393 C 0.21502 0.2058 0.1224 0.0
C2394 C 0.22365 0.2051 0.10179 0.0
C2395 C 0.22439 0.21798 0.10129 0.0
C2396 C 0.22018 0.22471 0.1114 0.0
C2397 C 0.21555 0.21869 0.12183 0.0
C2398 C 0.22936 0.24091 0.0752 0.0
C2399 C 0.23975 0.23615 0.06932 0.0
C2400 C 0.22441 0.23508 0.08558 0.0
C2401 C 0.2297 0.22431 0.09032 0.0
C2402 C 0.24012 0.21959 0.08446 0.0
C2403 C 0.24508 0.22543 0.07411 0.0
H2404 H 0.80725 0.18879 0.11309 0.0
H2405 H 0.81338 0.22362 0.13099 0.0
H2406 H 0.79957 0.1994 0.09492 0.0
H2407 H 0.80568 0.23425 0.11278 0.0
H2408 H 0.80234 0.24925 0.07338 0.0
H2409 H 0.81066 0.23871 0.09138 0.0
H2410 H 0.78188 0.21123 0.08852 0.0
H2411 H 0.77385 0.22149 0.07029 0.0
C2412 C 0.80688 0.19871 0.11318 0.0
C2413 C 0.81088 0.20534 0.12353 0.0
C2414 C 0.80247 0.2048 0.10276 0.0
C2415 C 0.80195 0.21768 0.1024 0.0
C2416 C 0.8061 0.22433 0.11269 0.0
C2417 C 0.81051 0.21823 0.12313 0.0
C2418 C 0.79785 0.2409 0.07653 0.0
C2419 C 0.78743 0.23621 0.07038 0.0
C2420 C 0.80255 0.23493 0.08693 0.0
C2421 C 0.79695 0.22411 0.09139 0.0
C2422 C 0.78651 0.21946 0.08525 0.0
C2423 C 0.78181 0.22543 0.07488 0.0
H2424 H 0.79257 0.82309 0.12739 0.0
H2425 H 0.82999 0.81789 0.11556 0.0
H2426 H 0.78508 0.81247 0.10916 0.0
H2427 H 0.82247 0.80722 0.09728 0.0
H2428 H 0.80412 0.7784 0.07194 0.0
H2429 H 0.81205 0.7885 0.09037 0.0
H2430 H 0.7837 0.81579 0.08719 0.0
H2431 H 0.77582 0.80575 0.0688 0.0
C2432 C 0.79921 0.81975 0.12086 0.0
C2433 C 0.81189 0.82144 0.12292 0.0
C2434 C 0.79491 0.81366 0.11039 0.0
C2435 C 0.80316 0.80906 0.10168 0.0
C2436 C 0.81585 0.81053 0.10384 0.0
C2437 C 0.82017 0.81665 0.11434 0.0
C2438 C 0.79965 0.78662 0.07511 0.0
C2439 C 0.78928 0.79121 0.06889 0.0
C2440 C 0.80419 0.79241 0.08569 0.0
C2441 C 0.79848 0.80293 0.09033 0.0
C2442 C 0.78819 0.80757 0.08404 0.0
C2443 C 0.78366 0.8018 0.07347 0.0
H2444 H 0.21261 0.80433 0.13 0.0
H2445 H 0.21927 0.83935 0.11238 0.0
H2446 H 0.22018 0.79388 0.1118 0.0
H2447 H 0.22682 0.82892 0.09422 0.0
H2448 H 0.25247 0.80694 0.06987 0.0
H2449 H 0.24437 0.81703 0.08798 0.0
H2450 H 0.21539 0.78972 0.09028 0.0
H2451 H 0.22377 0.77935 0.07239 0.0
C2452 C 0.21556 0.8098 0.1222 0.0
C2453 C 0.21539 0.8227 0.1227 0.0
C2454 C 0.2199 0.8038 0.11176 0.0
C2455 C 0.22418 0.81055 0.10156 0.0
C2456 C 0.22382 0.82344 0.10199 0.0
C2457 C 0.21949 0.82942 0.11242 0.0
C2458 C 0.24444 0.803 0.07431 0.0
C2459 C 0.2388 0.79231 0.06968 0.0
C2460 C 0.2397 0.80888 0.08461 0.0
C2461 C 0.22919 0.80423 0.09058 0.0
C2462 C 0.22355 0.79351 0.08598 0.0
C2463 C 0.22828 0.78763 0.07564 0.0
H2464 H 0.1992 0.81754 0.9134 0.0
H2465 H 0.23664 0.82394 0.90175 0.0
H2466 H 0.20668 0.8066 0.93151 0.0
H2467 H 0.24412 0.81345 0.92008 0.0
H2468 H 0.25315 0.78335 0.94781 0.0
H2469 H 0.24526 0.79325 0.92929 0.0
H2470 H 0.21722 0.8108 0.95076 0.0
H2471 H 0.22509 0.80086 0.96926 0.0
C2472 C 0.20902 0.81658 0.91467 0.0
C2473 C 0.21731 0.82164 0.90611 0.0
C2474 C 0.21331 0.81043 0.92513 0.0
C2475 C 0.226 0.80917 0.92728 0.0
C2476 C 0.23428 0.81414 0.91866 0.0
C2477 C 0.23 0.82029 0.90822 0.0
C2478 C 0.24535 0.78938 0.94859 0.0
C2479 C 0.23977 0.79132 0.96003 0.0
C2480 C 0.24082 0.79506 0.93797 0.0
C2481 C 0.23061 0.80285 0.93853 0.0
C2482 C 0.22497 0.80471 0.94995 0.0
C2483 C 0.22949 0.79902 0.96057 0.0
H2484 H 0.2241 0.21111 0.89955 0.0
H2485 H 0.18926 0.21803 0.91693 0.0
H2486 H 0.23485 0.2191 0.91762 0.0
H2487 H 0.19997 0.22601 0.93492 0.0
H2488 H 0.22247 0.2524 0.95862 0.0
H2489 H 0.21225 0.24384 0.94061 0.0
H2490 H 0.23904 0.21492 0.93939 0.0
H2491 H 0.24926 0.22347 0.9575 0.0
C2492 C 0.21873 0.21421 0.90726 0.0
C2493 C 0.2058 0.21401 0.90672 0.0
C2494 C 0.2249 0.2188 0.91763 0.0
C2495 C 0.21829 0.22331 0.9277 0.0
C2496 C 0.20537 0.22287 0.92724 0.0
C2497 C 0.19921 0.21828 0.9169 0.0
C2498 C 0.22613 0.24415 0.9546 0.0
C2499 C 0.23666 0.2386 0.95959 0.0
C2500 C 0.22027 0.23924 0.94425 0.0
C2501 C 0.22476 0.22863 0.93858 0.0
C2502 C 0.2354 0.22316 0.94345 0.0
C2503 C 0.24127 0.22808 0.95383 0.0
H2504 H 0.80296 0.21326 0.90065 0.0
H2505 H 0.83804 0.22067 0.91801 0.0
H2506 H 0.79245 0.22104 0.91874 0.0
H2507 H 0.82756 0.22845 0.93603 0.0
H2508 H 0.80537 0.25428 0.95992 0.0
H2509 H 0.81541 0.24601 0.94187 0.0
H2510 H 0.78849 0.21662 0.94044 0.0
H2511 H 0.77844 0.22489 0.95856 0.0
C2512 C 0.80843 0.21642 0.90836 0.0
C2513 C 0.82136 0.21641 0.90782 0.0
C2514 C 0.8024 0.22089 0.91874 0.0
C2515 C 0.80915 0.22546 0.92881 0.0
C2516 C 0.82206 0.22524 0.92834 0.0
C2517 C 0.82808 0.22077 0.918 0.0
C2518 C 0.80164 0.24599 0.95584 0.0
C2519 C 0.79112 0.24023 0.96076 0.0
C2520 C 0.8074 0.24124 0.94547 0.0
C2521 C 0.80281 0.2306 0.93973 0.0
C2522 C 0.7922 0.22491 0.94454 0.0
C2523 C 0.78643 0.22966 0.95494 0.0
H2524 H 0.81582 0.83705 0.91851 0.0
H2525 H 0.81079 0.80434 0.89675 0.0
H2526 H 0.8081 0.82613 0.93652 0.0
H2527 H 0.80342 0.79328 0.91489 0.0
H2528 H 0.77724 0.78237 0.94645 0.0
H2529 H 0.78554 0.7928 0.92837 0.0
H2530 H 0.81354 0.80995 0.95093 0.0
H2531 H 0.80499 0.79986 0.96906 0.0
C2532 C 0.81308 0.82752 0.91757 0.0
C2533 C 0.81388 0.8216 0.90615 0.0
C2534 C 0.80878 0.82121 0.92794 0.0
C2535 C 0.80513 0.80882 0.92717 0.0
C2536 C 0.80604 0.80285 0.91578 0.0
C2537 C 0.81039 0.80916 0.90541 0.0
C2538 C 0.78512 0.78843 0.94757 0.0
C2539 C 0.79041 0.7903 0.95924 0.0
C2540 C 0.78997 0.7943 0.93717 0.0
C2541 C 0.80021 0.80223 0.93818 0.0
C2542 C 0.80557 0.80401 0.94983 0.0
C2543 C 0.80074 0.79811 0.96022 0.0
H2544 H 0.13066 0.23427 0.21323 0.0
H2545 H 0.11196 0.19993 0.20581 0.0
H2546 H 0.11234 0.24184 0.2234 0.0
H2547 H 0.09373 0.20737 0.21632 0.0
H2548 H 0.05915 0.2306 0.22256 0.0
H2549 H 0.07761 0.22248 0.21307 0.0
H2550 H 0.09986 0.23882 0.24173 0.0
H2551 H 0.08143 0.24727 0.25101 0.0
C2552 C 0.12264 0.22832 0.21379 0.0
C2553 C 0.12278 0.21651 0.20864 0.0
C2554 C 0.11217 0.23261 0.21974 0.0
C2555 C 0.10153 0.22522 0.22067 0.0
C2556 C 0.10171 0.21335 0.21566 0.0
C2557 C 0.11221 0.20904 0.20974 0.0
C2558 C 0.06799 0.23253 0.2268 0.0
C2559 C 0.06879 0.23963 0.23753 0.0
C2560 C 0.07856 0.22775 0.22143 0.0
C2561 C 0.09024 0.22999 0.22663 0.0
C2562 C 0.09104 0.23702 0.23741 0.0
C2563 C 0.08045 0.24176 0.24281 0.0
H2564 H 0.81684 0.11634 0.19979 0.0
H2565 H 0.82309 0.12775 0.23727 0.0
H2566 H 0.80569 0.09823 0.20715 0.0
H2567 H 0.81239 0.10942 0.24462 0.0
H2568 H 0.78204 0.08172 0.25354 0.0
H2569 H 0.79207 0.10025 0.24569 0.0
H2570 H 0.80968 0.07893 0.21758 0.0
H2571 H 0.79961 0.06041 0.2254 0.0
C2572 C 0.8158 0.11501 0.20959 0.0
C2573 C 0.82088 0.12351 0.21793 0.0
C2574 C 0.80953 0.10455 0.21382 0.0
C2575 C 0.80816 0.10234 0.22648 0.0
C2576 C 0.81315 0.11089 0.23481 0.0
C2577 C 0.81943 0.12134 0.23059 0.0
C2578 C 0.7881 0.08098 0.24572 0.0
C2579 C 0.79005 0.06957 0.24012 0.0
C2580 C 0.79386 0.0916 0.24122 0.0
C2581 C 0.80172 0.09109 0.23102 0.0
C2582 C 0.80355 0.0797 0.22534 0.0
C2583 C 0.79778 0.06907 0.22983 0.0
H2584 H 0.89648 0.79512 0.21433 0.0
H2585 H 0.91463 0.8299 0.20744 0.0
H2586 H 0.91485 0.78773 0.22479 0.0
H2587 H 0.93288 0.82264 0.21827 0.0
H2588 H 0.96784 0.79998 0.22486 0.0
H2589 H 0.94929 0.80799 0.21522 0.0
H2590 H 0.92719 0.7905 0.24328 0.0
H2591 H 0.94573 0.78213 0.25268 0.0
C2592 C 0.90438 0.80121 0.21507 0.0
C2593 C 0.90408 0.81309 0.20997 0.0
C2594 C 0.91487 0.79702 0.2212 0.0
C2595 C 0.92537 0.80458 0.22237 0.0
C2596 C 0.92502 0.81652 0.21743 0.0
C2597 C 0.9145 0.82074 0.21133 0.0
C2598 C 0.95902 0.79777 0.22893 0.0
C2599 C 0.95829 0.79035 0.23952 0.0
C2600 C 0.94838 0.80249 0.22349 0.0
C2601 C 0.93673 0.7999 0.22846 0.0
C2602 C 0.936 0.79258 0.23912 0.0
C2603 C 0.94665 0.78789 0.2446 0.0
H2604 H 0.18979 0.91558 0.22106 0.0
H2605 H 0.22473 0.89905 0.21297 0.0
H2606 H 0.20039 0.93384 0.22858 0.0
H2607 H 0.23535 0.91757 0.22006 0.0
H2608 H 0.24975 0.94695 0.24728 0.0
H2609 H 0.23974 0.92861 0.23897 0.0
H2610 H 0.21231 0.95123 0.22148 0.0
H2611 H 0.22226 0.96952 0.22982 0.0
C2612 C 0.19974 0.91584 0.22088 0.0
C2613 C 0.2064 0.90579 0.21646 0.0
C2614 C 0.20583 0.92639 0.22505 0.0
C2615 C 0.21874 0.92721 0.22492 0.0
C2616 C 0.22541 0.91721 0.22042 0.0
C2617 C 0.21931 0.90664 0.21622 0.0
C2618 C 0.24165 0.94801 0.24155 0.0
C2619 C 0.23677 0.95971 0.23929 0.0
C2620 C 0.23592 0.9375 0.23677 0.0
C2621 C 0.22517 0.93842 0.2296 0.0
C2622 C 0.22043 0.95014 0.22716 0.0
C2623 C 0.22614 0.96064 0.23195 0.0
H2624 H 0.11239 0.80667 0.83993 0.0
H2625 H 0.12957 0.81555 0.80527 0.0
H2626 H 0.0942 0.79921 0.82908 0.0
H2627 H 0.11113 0.80853 0.79441 0.0
H2628 H 0.08171 0.78151 0.77945 0.0
H2629 H 0.1 0.78965 0.78976 0.0
H2630 H 0.07706 0.80651 0.81706 0.0
H2631 H 0.05881 0.79831 0.8068 0.0
C2632 C 0.11229 0.80703 0.82999 0.0
C2633 C 0.12248 0.81167 0.82348 0.0
C2634 C 0.10178 0.80289 0.82376 0.0
C2635 C 0.10117 0.80329 0.81086 0.0
C2636 C 0.11133 0.80798 0.80434 0.0
C2637 C 0.12185 0.81214 0.81057 0.0
C2638 C 0.08057 0.78706 0.78758 0.0
C2639 C 0.0688 0.78919 0.79234 0.0
C2640 C 0.09106 0.79174 0.79349 0.0
C2641 C 0.09002 0.79869 0.80428 0.0
C2642 C 0.07822 0.801 0.80891 0.0
C2643 C 0.06775 0.7963 0.80302 0.0
H2644 H 0.23473 0.12728 0.8223 0.0
H2645 H 0.19753 0.11379 0.81763 0.0
H2646 H 0.24245 0.10926 0.81184 0.0
H2647 H 0.20528 0.09572 0.80712 0.0
H2648 H 0.22329 0.07035 0.77889 0.0
H2649 H 0.21541 0.0889 0.78843 0.0
H2650 H 0.24454 0.08749 0.81549 0.0
H2651 H 0.25265 0.06925 0.80572 0.0
C2652 C 0.22819 0.12043 0.81911 0.0
C2653 C 0.2155 0.12196 0.82091 0.0
C2654 C 0.23263 0.11008 0.8131 0.0
C2655 C 0.22451 0.10097 0.8087 0.0
C2656 C 0.21179 0.10261 0.81027 0.0
C2657 C 0.20734 0.11298 0.81629 0.0
C2658 C 0.22808 0.07407 0.78681 0.0
C2659 C 0.23861 0.06829 0.79153 0.0
C2660 C 0.22348 0.08463 0.79236 0.0
C2661 C 0.22933 0.08972 0.80274 0.0
C2662 C 0.23987 0.08393 0.80743 0.0
C2663 C 0.24444 0.07337 0.80191 0.0
H2664 H 0.89884 0.20597 0.79371 0.0
H2665 H 0.91155 0.21153 0.83094 0.0
H2666 H 0.91711 0.21649 0.78599 0.0
H2667 H 0.92985 0.22211 0.8232 0.0
H2668 H 0.95523 0.25076 0.80455 0.0
H2669 H 0.93671 0.2408 0.81258 0.0
H2670 H 0.93909 0.21309 0.7845 0.0
H2671 H 0.95758 0.22299 0.77651 0.0
C2672 C 0.90557 0.20936 0.80026 0.0
C2673 C 0.90374 0.20782 0.81296 0.0
C2674 C 0.91606 0.21541 0.79582 0.0
C2675 C 0.92501 0.22009 0.80396 0.0
C2676 C 0.92309 0.21874 0.81667 0.0
C2677 C 0.91258 0.21267 0.82111 0.0
C2678 C 0.95186 0.24249 0.80015 0.0
C2679 C 0.9579 0.23772 0.78985 0.0
C2680 C 0.94123 0.23678 0.80476 0.0
C2681 C 0.93636 0.22617 0.79916 0.0
C2682 C 0.94244 0.22138 0.7889 0.0
C2683 C 0.95306 0.22706 0.78431 0.0
H2684 H 0.80377 0.89995 0.81622 0.0
H2685 H 0.83873 0.9172 0.80797 0.0
H2686 H 0.79318 0.91832 0.8091 0.0
H2687 H 0.82815 0.93531 0.80041 0.0
H2688 H 0.80628 0.97059 0.79892 0.0
H2689 H 0.81632 0.95248 0.80728 0.0
H2690 H 0.7887 0.92935 0.79022 0.0
H2691 H 0.77862 0.9475 0.78189 0.0
C2692 C 0.80921 0.90767 0.81294 0.0
C2693 C 0.82212 0.90706 0.81266 0.0
C2694 C 0.80312 0.91816 0.80871 0.0
C2695 C 0.80979 0.92832 0.80414 0.0
C2696 C 0.8227 0.92774 0.80399 0.0
C2697 C 0.82877 0.91727 0.80819 0.0
C2698 C 0.80238 0.96164 0.79688 0.0
C2699 C 0.79167 0.96052 0.78967 0.0
C2700 C 0.80815 0.95124 0.80169 0.0
C2701 C 0.80336 0.93942 0.7994 0.0
C2702 C 0.79255 0.9383 0.79232 0.0
C2703 C 0.78678 0.94872 0.78753 0.0
H2704 H 0.18895 0.1117 0.22042 0.0
H2705 H 0.22386 0.12951 0.21319 0.0
H2706 H 0.1996 0.09366 0.22806 0.0
H2707 H 0.23454 0.11122 0.22039 0.0
H2708 H 0.24879 0.08197 0.24772 0.0
H2709 H 0.2387 0.10007 0.2393 0.0
H2710 H 0.21187 0.07675 0.22126 0.0
H2711 H 0.22193 0.0587 0.22971 0.0
C2712 C 0.19891 0.11177 0.22045 0.0
C2713 C 0.20553 0.12211 0.21624 0.0
C2714 C 0.20503 0.10135 0.22469 0.0
C2715 C 0.21795 0.10095 0.22484 0.0
C2716 C 0.22459 0.11125 0.22053 0.0
C2717 C 0.21846 0.12168 0.21626 0.0
C2718 C 0.24082 0.08071 0.24185 0.0
C2719 C 0.23614 0.06887 0.23946 0.0
C2720 C 0.23503 0.09109 0.23701 0.0
C2721 C 0.22442 0.0899 0.22963 0.0
C2722 C 0.21987 0.07804 0.22709 0.0
C2723 C 0.22565 0.06768 0.23194 0.0
H2724 H 0.21028 0.912 0.82986 0.0
H2725 H 0.20466 0.89957 0.79262 0.0
H2726 H 0.22128 0.93008 0.82218 0.0
H2727 H 0.21522 0.91784 0.78493 0.0
H2728 H 0.24529 0.94584 0.77577 0.0
H2729 H 0.23546 0.92733 0.78392 0.0
H2730 H 0.21698 0.94902 0.81116 0.0
H2731 H 0.22682 0.96752 0.80302 0.0
C2732 C 0.21143 0.9131 0.82004 0.0
C2733 C 0.20656 0.90434 0.81186 0.0
C2734 C 0.21761 0.92353 0.81563 0.0
C2735 C 0.21911 0.92544 0.80293 0.0
C2736 C 0.21435 0.91661 0.79477 0.0
C2737 C 0.20816 0.9062 0.79917 0.0
C2738 C 0.23907 0.94667 0.78345 0.0
C2739 C 0.23683 0.95817 0.78872 0.0
C2740 C 0.23344 0.93605 0.78813 0.0
C2741 C 0.22541 0.93668 0.79819 0.0
C2742 C 0.22325 0.94818 0.80353 0.0
C2743 C 0.22889 0.95879 0.79886 0.0
H2744 H 0.1301 0.22276 0.81144 0.0
H2745 H 0.10786 0.19004 0.81622 0.0
H2746 H 0.11204 0.23382 0.80417 0.0
H2747 H 0.08991 0.20097 0.80861 0.0
H2748 H 0.05774 0.22738 0.8057 0.0
H2749 H 0.07579 0.21719 0.81416 0.0
H2750 H 0.09841 0.23429 0.78628 0.0
H2751 H 0.08043 0.24479 0.77807 0.0
C2752 C 0.12135 0.21794 0.81101 0.0
C2753 C 0.12045 0.2055 0.8144 0.0
C2754 C 0.11102 0.22425 0.80671 0.0
C2755 C 0.09951 0.21829 0.80576 0.0
C2756 C 0.09859 0.20589 0.80932 0.0
C2757 C 0.10892 0.19958 0.81356 0.0
C2758 C 0.06659 0.22909 0.80146 0.0
C2759 C 0.06762 0.23691 0.79119 0.0
C2760 C 0.07692 0.22314 0.80623 0.0
C2761 C 0.08856 0.22489 0.80089 0.0
C2762 C 0.08962 0.23282 0.79071 0.0
C2763 C 0.07928 0.23873 0.78591 0.0
H2764 H 0.82811 0.1164 0.81899 0.0
H2765 H 0.79075 0.12762 0.82552 0.0
H2766 H 0.82047 0.09824 0.80822 0.0
H2767 H 0.78314 0.10949 0.81481 0.0
H2768 H 0.77421 0.06908 0.80752 0.0
H2769 H 0.78207 0.0874 0.81772 0.0
H2770 H 0.80963 0.09177 0.78956 0.0
H2771 H 0.80172 0.07343 0.7793 0.0
C2772 C 0.81828 0.11507 0.81802 0.0
C2773 C 0.81006 0.12346 0.82319 0.0
C2774 C 0.81389 0.10465 0.81185 0.0
C2775 C 0.80119 0.10235 0.8107 0.0
C2776 C 0.79298 0.11083 0.81572 0.0
C2777 C 0.79736 0.12124 0.82188 0.0
C2778 C 0.78186 0.074 0.80342 0.0
C2779 C 0.78729 0.06978 0.79255 0.0
C2780 C 0.78638 0.08452 0.80928 0.0
C2781 C 0.79646 0.0911 0.80445 0.0
C2782 C 0.80195 0.08684 0.79362 0.0
C2783 C 0.79741 0.07632 0.78774 0.0
H2784 H 0.89948 0.81675 0.80338 0.0
H2785 H 0.91613 0.80843 0.8385 0.0
H2786 H 0.91762 0.8089 0.79298 0.0
H2787 H 0.93417 0.80058 0.82814 0.0
H2788 H 0.95781 0.77468 0.80574 0.0
H2789 H 0.93978 0.78311 0.81566 0.0
H2790 H 0.93955 0.81303 0.78951 0.0
H2791 H 0.95768 0.80462 0.77959 0.0
C2792 C 0.90705 0.81337 0.80889 0.0
C2793 C 0.90628 0.81314 0.82179 0.0
C2794 C 0.91745 0.80886 0.80292 0.0
C2795 C 0.92732 0.80401 0.80971 0.0
C2796 C 0.92664 0.804 0.82261 0.0
C2797 C 0.91627 0.80851 0.82856 0.0
C2798 C 0.95401 0.78312 0.80216 0.0
C2799 C 0.95927 0.78899 0.79189 0.0
C2800 C 0.94365 0.78796 0.80785 0.0
C2801 C 0.93824 0.79879 0.80344 0.0
C2802 C 0.94339 0.8046 0.79307 0.0
C2803 C 0.95379 0.79976 0.78738 0.0
H2804 H 0.80342 0.89993 0.21285 0.0
H2805 H 0.8384 0.91824 0.21844 0.0
H2806 H 0.79286 0.91797 0.22056 0.0
H2807 H 0.82787 0.93622 0.22614 0.0
H2808 H 0.80615 0.96022 0.25233 0.0
H2809 H 0.8163 0.94231 0.244 0.0
H2810 H 0.78826 0.93937 0.2159 0.0
H2811 H 0.77784 0.95707 0.22453 0.0
C2812 C 0.80886 0.90785 0.21558 0.0
C2813 C 0.82178 0.90758 0.21509 0.0
C2814 C 0.8028 0.9182 0.22001 0.0
C2815 C 0.80951 0.92854 0.22406 0.0
C2816 C 0.82241 0.92834 0.22334 0.0
C2817 C 0.82846 0.91802 0.21891 0.0
C2818 C 0.80206 0.95569 0.24446 0.0
C2819 C 0.79115 0.9601 0.23914 0.0
C2820 C 0.80798 0.9455 0.23957 0.0
C2821 C 0.80314 0.9394 0.22923 0.0
C2822 C 0.7922 0.94377 0.22392 0.0
C2823 C 0.78629 0.954 0.2288 0.0
H2824 H 0.12932 0.81484 0.22508 0.0
H2825 H 0.11171 0.80766 0.19016 0.0
H2826 H 0.11106 0.80715 0.23571 0.0
H2827 H 0.09352 0.79997 0.20076 0.0
H2828 H 0.06894 0.77438 0.22336 0.0
H2829 H 0.08719 0.78248 0.21315 0.0
H2830 H 0.0895 0.81179 0.23964 0.0
H2831 H 0.07118 0.80369 0.24986 0.0
C2832 C 0.12152 0.81174 0.21966 0.0
C2833 C 0.12203 0.8118 0.20675 0.0
C2834 C 0.11105 0.80733 0.22576 0.0
C2835 C 0.10084 0.80286 0.2191 0.0
C2836 C 0.1013 0.8031 0.20619 0.0
C2837 C 0.11174 0.80752 0.20011 0.0
C2838 C 0.07327 0.78261 0.22696 0.0
C2839 C 0.06853 0.7884 0.23741 0.0
C2840 C 0.08375 0.78726 0.2211 0.0
C2841 C 0.08979 0.79783 0.22553 0.0
C2842 C 0.08516 0.80356 0.23606 0.0
C2843 C 0.07465 0.7989 0.24193 0.0
H2844 H 0.89858 0.21337 0.22416 0.0
H2845 H 0.91483 0.22255 0.18913 0.0
H2846 H 0.91688 0.22129 0.23464 0.0
H2847 H 0.93306 0.2305 0.19959 0.0
H2848 H 0.95727 0.25608 0.22265 0.0
H2849 H 0.93899 0.24778 0.21255 0.0
H2850 H 0.93881 0.21705 0.23776 0.0
H2851 H 0.95717 0.22533 0.24785 0.0
C2852 C 0.90609 0.21696 0.21869 0.0
C2853 C 0.90519 0.21738 0.2058 0.0
C2854 C 0.91658 0.22151 0.2247 0.0
C2855 C 0.92641 0.2266 0.21796 0.0
C2856 C 0.92556 0.22686 0.20507 0.0
C2857 C 0.9151 0.22231 0.19907 0.0
C2858 C 0.95341 0.2475 0.22599 0.0
C2859 C 0.95874 0.24135 0.23604 0.0
C2860 C 0.94292 0.24274 0.22019 0.0
C2861 C 0.93746 0.23172 0.22431 0.0
C2862 C 0.94269 0.22563 0.23445 0.0
C2863 C 0.95322 0.23039 0.24024 0.0
H2864 H 0.21842 0.68901 0.61258 0.0
H2865 H 0.21265 0.724 0.62996 0.0
H2866 H 0.22646 0.69945 0.59445 0.0
H2867 H 0.22071 0.73447 0.61177 0.0
H2868 H 0.22504 0.74907 0.57225 0.0
H2869 H 0.21629 0.73879 0.59021 0.0
H2870 H 0.24442 0.7112 0.58825 0.0
H2871 H 0.25287 0.72121 0.57006 0.0
C2872 C 0.21894 0.69893 0.61257 0.0
C2873 C 0.21495 0.70564 0.62278 0.0
C2874 C 0.22356 0.70493 0.60216 0.0
C2875 C 0.22433 0.71781 0.60166 0.0
C2876 C 0.22014 0.72455 0.61178 0.0
C2877 C 0.21551 0.71854 0.62221 0.0
C2878 C 0.2293 0.74076 0.57559 0.0
C2879 C 0.23966 0.73597 0.56968 0.0
C2880 C 0.22436 0.73493 0.58597 0.0
C2881 C 0.22963 0.72414 0.59068 0.0
C2882 C 0.24002 0.7194 0.5848 0.0
C2883 C 0.24497 0.72523 0.57444 0.0
H2884 H 0.79047 0.70732 0.63066 0.0
H2885 H 0.82744 0.70961 0.61649 0.0
H2886 H 0.78284 0.71782 0.61239 0.0
H2887 H 0.8198 0.72011 0.59817 0.0
H2888 H 0.80302 0.74873 0.57223 0.0
H2889 H 0.8107 0.73921 0.59106 0.0
H2890 H 0.77992 0.71382 0.59071 0.0
H2891 H 0.77201 0.72363 0.5722 0.0
C2892 C 0.79696 0.71 0.62361 0.0
C2893 C 0.80956 0.70756 0.62502 0.0
C2894 C 0.79259 0.71602 0.61313 0.0
C2895 C 0.80069 0.71975 0.60377 0.0
C2896 C 0.81332 0.71749 0.60526 0.0
C2897 C 0.81771 0.71147 0.61577 0.0
C2898 C 0.79782 0.7412 0.57625 0.0
C2899 C 0.78689 0.73695 0.57069 0.0
C2900 C 0.8023 0.73565 0.58697 0.0
C2901 C 0.79594 0.72575 0.59241 0.0
C2902 C 0.78499 0.72152 0.58686 0.0
C2903 C 0.78053 0.72705 0.57615 0.0
H2904 H 0.82838 0.3226 0.61353 0.0
H2905 H 0.7936 0.31517 0.63118 0.0
H2906 H 0.82116 0.3118 0.59522 0.0
H2907 H 0.78625 0.30472 0.61277 0.0
H2908 H 0.78103 0.27676 0.58202 0.0
H2909 H 0.78928 0.28629 0.60061 0.0
H2910 H 0.80636 0.31474 0.57859 0.0
H2911 H 0.79845 0.305 0.56001 0.0
C2912 C 0.81923 0.3186 0.61354 0.0
C2913 C 0.81157 0.31979 0.62383 0.0
C2914 C 0.81503 0.31252 0.60299 0.0
C2915 C 0.8031 0.30742 0.60249 0.0
C2916 C 0.79553 0.30843 0.61286 0.0
C2917 C 0.7997 0.31455 0.62338 0.0
C2918 C 0.78667 0.28497 0.58114 0.0
C2919 C 0.78905 0.29012 0.5695 0.0
C2920 C 0.79129 0.29051 0.59181 0.0
C2921 C 0.79846 0.30131 0.59112 0.0
C2922 C 0.80097 0.30637 0.57947 0.0
C2923 C 0.79631 0.30086 0.56881 0.0
H2924 H 0.23534 0.32283 0.62863 0.0
H2925 H 0.19783 0.31739 0.61645 0.0
H2926 H 0.24266 0.31233 0.61044 0.0
H2927 H 0.20516 0.30644 0.59844 0.0
H2928 H 0.22387 0.30071 0.5609 0.0
H2929 H 0.21593 0.3105 0.57929 0.0
H2930 H 0.24344 0.29221 0.60126 0.0
H2931 H 0.25138 0.28245 0.58289 0.0
C2932 C 0.22864 0.31939 0.62207 0.0
C2933 C 0.21599 0.32102 0.62399 0.0
C2934 C 0.23284 0.31322 0.6117 0.0
C2935 C 0.22451 0.30852 0.60295 0.0
C2936 C 0.21184 0.31006 0.60492 0.0
C2937 C 0.20763 0.31621 0.61532 0.0
C2938 C 0.22814 0.29866 0.56968 0.0
C2939 C 0.23831 0.29082 0.57039 0.0
C2940 C 0.22357 0.30428 0.58023 0.0
C2941 C 0.22906 0.30219 0.59177 0.0
C2942 C 0.23912 0.29421 0.5925 0.0
C2943 C 0.24368 0.28861 0.58196 0.0
H2944 H 0.23662 0.32417 0.40178 0.0
H2945 H 0.19927 0.31767 0.41366 0.0
H2946 H 0.24424 0.31368 0.42005 0.0
H2947 H 0.20691 0.30713 0.43195 0.0
H2948 H 0.22543 0.27854 0.45704 0.0
H2949 H 0.21759 0.28855 0.43854 0.0
H2950 H 0.24542 0.31689 0.44213 0.0
H2951 H 0.25323 0.30693 0.46062 0.0
C2952 C 0.23003 0.32057 0.40833 0.0
C2953 C 0.21733 0.32183 0.40627 0.0
C2954 C 0.2344 0.31455 0.41881 0.0
C2955 C 0.22619 0.30961 0.4275 0.0
C2956 C 0.21348 0.3107 0.42537 0.0
C2957 C 0.2091 0.31674 0.41488 0.0
C2958 C 0.22981 0.28696 0.45394 0.0
C2959 C 0.23999 0.29191 0.46031 0.0
C2960 C 0.22532 0.29269 0.44333 0.0
C2961 C 0.2309 0.3035 0.43882 0.0
C2962 C 0.24104 0.30846 0.44522 0.0
C2963 C 0.24552 0.30274 0.45582 0.0
H2964 H 0.22391 0.71135 0.3996 0.0
H2965 H 0.18896 0.71749 0.41709 0.0
H2966 H 0.23454 0.71925 0.41778 0.0
H2967 H 0.19957 0.72539 0.43518 0.0
H2968 H 0.22176 0.75187 0.45916 0.0
H2969 H 0.21159 0.74333 0.44111 0.0
H2970 H 0.23881 0.71484 0.43949 0.0
H2971 H 0.24898 0.72336 0.45764 0.0
C2972 C 0.21849 0.71425 0.40737 0.0
C2973 C 0.20556 0.71386 0.40682 0.0
C2974 C 0.22459 0.71879 0.41779 0.0
C2975 C 0.21792 0.72306 0.42792 0.0
C2976 C 0.205 0.72243 0.42746 0.0
C2977 C 0.19892 0.71789 0.41706 0.0
C2978 C 0.22553 0.74371 0.45504 0.0
C2979 C 0.23617 0.73828 0.45993 0.0
C2980 C 0.21969 0.73881 0.44467 0.0
C2981 C 0.22433 0.72834 0.43887 0.0
C2982 C 0.23505 0.72298 0.44364 0.0
C2983 C 0.2409 0.72788 0.45405 0.0
H2984 H 0.8378 0.71919 0.41876 0.0
H2985 H 0.80286 0.71425 0.40032 0.0
H2986 H 0.8273 0.72696 0.43678 0.0
H2987 H 0.79232 0.72206 0.41838 0.0
H2988 H 0.7771 0.72583 0.45753 0.0
H2989 H 0.78744 0.7173 0.4397 0.0
H2990 H 0.81608 0.74486 0.44306 0.0
H2991 H 0.80603 0.75307 0.46112 0.0
C2992 C 0.82787 0.71984 0.41851 0.0
C2993 C 0.82119 0.71616 0.40804 0.0
C2994 C 0.82184 0.72431 0.42886 0.0
C2995 C 0.80896 0.72523 0.42902 0.0
C2996 C 0.80224 0.72135 0.41863 0.0
C2997 C 0.80829 0.71687 0.40827 0.0
C2998 C 0.78567 0.73 0.45453 0.0
C2999 C 0.79073 0.74014 0.46079 0.0
C3000 C 0.79152 0.72519 0.44422 0.0
C3001 C 0.80261 0.73037 0.43993 0.0
C3002 C 0.80764 0.74053 0.44618 0.0
C3003 C 0.80178 0.74535 0.45646 0.0
H3004 H 0.82914 0.32223 0.41513 0.0
H3005 H 0.79428 0.31513 0.39722 0.0
H3006 H 0.82181 0.31157 0.4335 0.0
H3007 H 0.78682 0.30482 0.4157 0.0
H3008 H 0.78125 0.27702 0.4467 0.0
H3009 H 0.7896 0.28643 0.4281 0.0
H3010 H 0.80709 0.31466 0.44997 0.0
H3011 H 0.79908 0.30502 0.46859 0.0
C3012 C 0.81994 0.31833 0.41508 0.0
C3013 C 0.8123 0.31957 0.40469 0.0
C3014 C 0.81569 0.31233 0.42566 0.0
C3015 C 0.8037 0.30737 0.42611 0.0
C3016 C 0.79613 0.30844 0.41566 0.0
C3017 C 0.80037 0.31447 0.4051 0.0
C3018 C 0.78699 0.28515 0.44755 0.0
C3019 C 0.78947 0.29026 0.45916 0.0
C3020 C 0.79168 0.29062 0.43687 0.0
C3021 C 0.799 0.30133 0.43751 0.0
C3022 C 0.80159 0.30636 0.44913 0.0
C3023 C 0.79687 0.30091 0.45981 0.0
H3024 H 0.11136 0.72074 0.68997 0.0
H3025 H 0.12799 0.71231 0.72509 0.0
H3026 H 0.0934 0.72874 0.70036 0.0
H3027 H 0.10994 0.7203 0.7355 0.0
H3028 H 0.06993 0.7248 0.74894 0.0
H3029 H 0.08798 0.71629 0.73897 0.0
H3030 H 0.08792 0.74626 0.71289 0.0
H3031 H 0.06998 0.7548 0.72287 0.0
C3032 C 0.11123 0.72066 0.69992 0.0
C3033 C 0.1212 0.71595 0.70668 0.0
C3034 C 0.10091 0.72526 0.70588 0.0
C3035 C 0.10024 0.72526 0.71878 0.0
C3036 C 0.11009 0.72033 0.72556 0.0
C3037 C 0.12044 0.71574 0.71958 0.0
C3038 C 0.07384 0.72965 0.74116 0.0
C3039 C 0.06843 0.74048 0.73669 0.0
C3040 C 0.08419 0.72475 0.73544 0.0
C3041 C 0.08937 0.73054 0.72508 0.0
C3042 C 0.08404 0.74142 0.72069 0.0
C3043 C 0.07373 0.74633 0.72642 0.0
H3044 H 0.83705 0.61005 0.71472 0.0
H3045 H 0.80393 0.63119 0.71846 0.0
H3046 H 0.8262 0.59186 0.72231 0.0
H3047 H 0.79297 0.6129 0.72573 0.0
H3048 H 0.78229 0.58131 0.75211 0.0
H3049 H 0.79271 0.59951 0.74393 0.0
H3050 H 0.80997 0.57731 0.7163 0.0
H3051 H 0.79984 0.55905 0.72471 0.0
C3052 C 0.82745 0.61081 0.71715 0.0
C3053 C 0.82137 0.62208 0.71602 0.0
C3054 C 0.82119 0.60035 0.72138 0.0
C3055 C 0.80872 0.60093 0.72463 0.0
C3056 C 0.80261 0.61218 0.72341 0.0
C3057 C 0.80886 0.62263 0.71913 0.0
C3058 C 0.78836 0.58031 0.74433 0.0
C3059 C 0.79026 0.56872 0.73909 0.0
C3060 C 0.79423 0.59076 0.73956 0.0
C3061 C 0.80218 0.58987 0.72946 0.0
C3062 C 0.804 0.57829 0.72416 0.0
C3063 C 0.79809 0.56785 0.7289 0.0
H3064 H 0.91616 0.31031 0.69126 0.0
H3065 H 0.89854 0.31691 0.72604 0.0
H3066 H 0.93427 0.30279 0.70199 0.0
H3067 H 0.9169 0.30982 0.73681 0.0
H3068 H 0.94613 0.28252 0.75091 0.0
H3069 H 0.928 0.291 0.74083 0.0
H3070 H 0.95133 0.30957 0.71449 0.0
H3071 H 0.96942 0.30105 0.72453 0.0
C3072 C 0.91615 0.31017 0.70121 0.0
C3073 C 0.90583 0.31416 0.70777 0.0
C3074 C 0.92661 0.306 0.70738 0.0
C3075 C 0.92708 0.3057 0.72029 0.0
C3076 C 0.91682 0.3098 0.72687 0.0
C3077 C 0.90634 0.31401 0.72068 0.0
C3078 C 0.9474 0.28852 0.74305 0.0
C3079 C 0.95924 0.29103 0.7385 0.0
C3080 C 0.93699 0.2934 0.73727 0.0
C3081 C 0.93817 0.30093 0.7268 0.0
C3082 C 0.95004 0.30362 0.72239 0.0
C3083 C 0.96043 0.29873 0.72815 0.0
H3084 H 0.2075 0.39888 0.73705 0.0
H3085 H 0.20985 0.41327 0.70009 0.0
H3086 H 0.21804 0.41711 0.74478 0.0
H3087 H 0.2204 0.43157 0.70784 0.0
H3088 H 0.24892 0.45773 0.72512 0.0
H3089 H 0.23947 0.4389 0.71726 0.0
H3090 H 0.21402 0.43865 0.74761 0.0
H3091 H 0.22375 0.45715 0.75569 0.0
C3092 C 0.2102 0.40597 0.73057 0.0
C3093 C 0.20774 0.40463 0.71795 0.0
C3094 C 0.21625 0.41644 0.73501 0.0
C3095 C 0.22 0.42586 0.72695 0.0
C3096 C 0.21776 0.42443 0.71429 0.0
C3097 C 0.21171 0.41394 0.70984 0.0
C3098 C 0.2414 0.45358 0.73018 0.0
C3099 C 0.2371 0.45898 0.74104 0.0
C3100 C 0.23588 0.44285 0.7256 0.0
C3101 C 0.22597 0.43724 0.7318 0.0
C3102 C 0.22172 0.44263 0.74267 0.0
C3103 C 0.22721 0.45334 0.74723 0.0
H3104 H 0.13073 0.29291 0.31816 0.0
H3105 H 0.11366 0.32805 0.3236 0.0
H3106 H 0.11231 0.28555 0.30751 0.0
H3107 H 0.09537 0.3208 0.31264 0.0
H3108 H 0.05987 0.29822 0.30605 0.0
H3109 H 0.07847 0.30608 0.316 0.0
H3110 H 0.1006 0.28861 0.28843 0.0
H3111 H 0.08199 0.28046 0.27867 0.0
C3112 C 0.12305 0.29907 0.31707 0.0
C3113 C 0.12365 0.31105 0.32178 0.0
C3114 C 0.11255 0.29489 0.31085 0.0
C3115 C 0.10236 0.30258 0.30923 0.0
C3116 C 0.103 0.31461 0.31383 0.0
C3117 C 0.11354 0.3188 0.32 0.0
C3118 C 0.06871 0.296 0.30216 0.0
C3119 C 0.06945 0.28867 0.2916 0.0
C3120 C 0.07936 0.30062 0.30778 0.0
C3121 C 0.09102 0.29797 0.30301 0.0
C3122 C 0.09176 0.29072 0.2924 0.0
C3123 C 0.0811 0.28615 0.28674 0.0
H3124 H 0.23338 0.62989 0.3162 0.0
H3125 H 0.19832 0.61186 0.32201 0.0
H3126 H 0.2409 0.61167 0.30589 0.0
H3127 H 0.20571 0.59376 0.31131 0.0
H3128 H 0.22831 0.55884 0.30505 0.0
H3129 H 0.22022 0.57723 0.31462 0.0
H3130 H 0.23842 0.59969 0.28727 0.0
H3131 H 0.24687 0.58132 0.27795 0.0
C3132 C 0.22726 0.62204 0.31525 0.0
C3133 C 0.21526 0.62233 0.32 0.0
C3134 C 0.23153 0.61163 0.30921 0.0
C3135 C 0.22392 0.60121 0.30777 0.0
C3136 C 0.21186 0.60156 0.31237 0.0
C3137 C 0.20758 0.612 0.31839 0.0
C3138 C 0.23066 0.56771 0.30112 0.0
C3139 C 0.2383 0.56858 0.29075 0.0
C3140 C 0.2259 0.57825 0.30653 0.0
C3141 C 0.22866 0.58996 0.30173 0.0
C3142 C 0.23621 0.59083 0.29129 0.0
C3143 C 0.24095 0.58028 0.28586 0.0
H3144 H 0.91749 0.69192 0.31711 0.0
H3145 H 0.8961 0.72483 0.31274 0.0
H3146 H 0.9356 0.70278 0.3094 0.0
H3147 H 0.91434 0.73581 0.30537 0.0
H3148 H 0.94577 0.7465 0.27889 0.0
H3149 H 0.92762 0.7362 0.2873 0.0
H3150 H 0.95026 0.71891 0.31497 0.0
H3151 H 0.96845 0.7289 0.30631 0.0
C3152 C 0.91665 0.70149 0.31452 0.0
C3153 C 0.90532 0.70748 0.31549 0.0
C3154 C 0.92708 0.70775 0.31023 0.0
C3155 C 0.92644 0.72018 0.30676 0.0
C3156 C 0.91513 0.72622 0.30785 0.0
C3157 C 0.90471 0.71996 0.31219 0.0
C3158 C 0.94688 0.74045 0.28673 0.0
C3159 C 0.95858 0.7385 0.29189 0.0
C3160 C 0.93646 0.73465 0.29164 0.0
C3161 C 0.93747 0.72671 0.30181 0.0
C3162 C 0.94916 0.72486 0.30705 0.0
C3163 C 0.95958 0.73069 0.30217 0.0
H3164 H 0.83896 0.4169 0.30846 0.0
H3165 H 0.80398 0.3996 0.31651 0.0
H3166 H 0.82841 0.43503 0.30094 0.0
H3167 H 0.7934 0.418 0.30943 0.0
H3168 H 0.77892 0.44724 0.28228 0.0
H3169 H 0.78895 0.42908 0.29063 0.0
H3170 H 0.81658 0.45218 0.30773 0.0
H3171 H 0.80659 0.4703 0.29931 0.0
C3172 C 0.829 0.41696 0.30864 0.0
C3173 C 0.82233 0.40673 0.31303 0.0
C3174 C 0.82294 0.42744 0.30446 0.0
C3175 C 0.81003 0.42802 0.30457 0.0
C3176 C 0.80335 0.41784 0.30908 0.0
C3177 C 0.80942 0.40734 0.31328 0.0
C3178 C 0.78706 0.44845 0.28792 0.0
C3179 C 0.79198 0.46024 0.29006 0.0
C3180 C 0.79281 0.43803 0.29273 0.0
C3181 C 0.80362 0.43913 0.29983 0.0
C3182 C 0.80841 0.45095 0.30212 0.0
C3183 C 0.80268 0.46136 0.29729 0.0
H3184 H 0.21064 0.63048 0.7358 0.0
H3185 H 0.20481 0.61322 0.70059 0.0
H3186 H 0.22101 0.61216 0.74326 0.0
H3187 H 0.21555 0.59502 0.70793 0.0
H3188 H 0.22211 0.55966 0.73029 0.0
H3189 H 0.21233 0.57812 0.72236 0.0
H3190 H 0.23976 0.60048 0.7407 0.0
H3191 H 0.2493 0.58202 0.74897 0.0
C3192 C 0.21159 0.62278 0.72964 0.0
C3193 C 0.20683 0.62332 0.71761 0.0
C3194 C 0.21766 0.61232 0.73387 0.0
C3195 C 0.21912 0.60209 0.72621 0.0
C3196 C 0.21448 0.60268 0.71413 0.0
C3197 C 0.20844 0.61317 0.70987 0.0
C3198 C 0.22601 0.56851 0.73271 0.0
C3199 C 0.23647 0.56934 0.74032 0.0
C3200 C 0.22048 0.5791 0.72803 0.0
C3201 C 0.22525 0.59081 0.73088 0.0
C3202 C 0.23577 0.59163 0.73842 0.0
C3203 C 0.24132 0.58103 0.74306 0.0
H3204 H 0.1898 0.41786 0.31455 0.0
H3205 H 0.22318 0.39697 0.31179 0.0
H3206 H 0.20058 0.43596 0.30666 0.0
H3207 H 0.23406 0.41519 0.30423 0.0
H3208 H 0.24487 0.4463 0.27734 0.0
H3209 H 0.23451 0.42817 0.28575 0.0
H3210 H 0.21652 0.4508 0.31256 0.0
H3211 H 0.22658 0.46897 0.30391 0.0
C3212 C 0.19945 0.41714 0.31227 0.0
C3213 C 0.20562 0.40596 0.31376 0.0
C3214 C 0.20566 0.42754 0.30787 0.0
C3215 C 0.21818 0.42702 0.30481 0.0
C3216 C 0.22439 0.41587 0.30639 0.0
C3217 C 0.21818 0.40546 0.31085 0.0
C3218 C 0.23865 0.44741 0.28498 0.0
C3219 C 0.23653 0.45909 0.28993 0.0
C3220 C 0.23281 0.43701 0.28989 0.0
C3221 C 0.22468 0.43804 0.29983 0.0
C3222 C 0.22264 0.4497 0.30483 0.0
C3223 C 0.2285 0.4601 0.29995 0.0
H3224 H 0.11473 0.71036 0.33018 0.0
H3225 H 0.12596 0.70387 0.29279 0.0
H3226 H 0.09656 0.72107 0.32264 0.0
H3227 H 0.10784 0.71451 0.28529 0.0
H3228 H 0.06746 0.72173 0.27642 0.0
H3229 H 0.08573 0.71157 0.28427 0.0
H3230 H 0.09003 0.73964 0.31186 0.0
H3231 H 0.07173 0.74986 0.30397 0.0
C3232 C 0.1134 0.71131 0.32036 0.0
C3233 C 0.12179 0.70616 0.31211 0.0
C3234 C 0.10297 0.71746 0.31604 0.0
C3235 C 0.10067 0.71859 0.30335 0.0
C3236 C 0.10917 0.7136 0.29511 0.0
C3237 C 0.11958 0.70749 0.29943 0.0
C3238 C 0.07235 0.72582 0.28409 0.0
C3239 C 0.06812 0.73666 0.28951 0.0
C3240 C 0.08285 0.71998 0.2886 0.0
C3241 C 0.08941 0.7248 0.29868 0.0
C3242 C 0.08513 0.73559 0.30418 0.0
C3243 C 0.07462 0.74145 0.29966 0.0
H3244 H 0.8288 0.61664 0.31841 0.0
H3245 H 0.79127 0.62756 0.32448 0.0
H3246 H 0.82146 0.59864 0.30719 0.0
H3247 H 0.78394 0.60934 0.31374 0.0
H3248 H 0.77475 0.58196 0.28355 0.0
H3249 H 0.78262 0.60041 0.29358 0.0
H3250 H 0.81122 0.57915 0.31092 0.0
H3251 H 0.80338 0.56072 0.30084 0.0
C3252 C 0.81899 0.61523 0.31732 0.0
C3253 C 0.81064 0.62356 0.32238 0.0
C3254 C 0.81477 0.60483 0.31101 0.0
C3255 C 0.80209 0.6025 0.30958 0.0
C3256 C 0.79376 0.61089 0.31454 0.0
C3257 C 0.79797 0.62128 0.32085 0.0
C3258 C 0.78268 0.58121 0.28955 0.0
C3259 C 0.78841 0.56983 0.29141 0.0
C3260 C 0.7872 0.59179 0.29531 0.0
C3261 C 0.79754 0.59129 0.3031 0.0
C3262 C 0.80335 0.57994 0.30485 0.0
C3263 C 0.79885 0.56935 0.29907 0.0
H3264 H 0.91634 0.30805 0.33839 0.0
H3265 H 0.89973 0.31669 0.30332 0.0
H3266 H 0.93439 0.30029 0.32796 0.0
H3267 H 0.91787 0.30894 0.29287 0.0
H3268 H 0.95796 0.30472 0.27949 0.0
H3269 H 0.93984 0.31308 0.28947 0.0
H3270 H 0.93994 0.28289 0.31531 0.0
H3271 H 0.95794 0.2745 0.30531 0.0
C3272 C 0.9165 0.30823 0.32844 0.0
C3273 C 0.90651 0.31292 0.32171 0.0
C3274 C 0.92686 0.30377 0.32246 0.0
C3275 C 0.92756 0.30388 0.30956 0.0
C3276 C 0.91769 0.30881 0.30281 0.0
C3277 C 0.90729 0.31327 0.30881 0.0
C3278 C 0.95404 0.29979 0.28722 0.0
C3279 C 0.95948 0.28895 0.29161 0.0
C3280 C 0.94365 0.3046 0.29295 0.0
C3281 C 0.93847 0.29871 0.30325 0.0
C3282 C 0.94383 0.28781 0.30755 0.0
C3283 C 0.95417 0.28299 0.30181 0.0
H3284 H 0.83816 0.41774 0.71866 0.0
H3285 H 0.80318 0.39938 0.71318 0.0
H3286 H 0.82763 0.43573 0.72633 0.0
H3287 H 0.79262 0.41743 0.72086 0.0
H3288 H 0.7776 0.45655 0.72472 0.0
H3289 H 0.788 0.4388 0.71615 0.0
H3290 H 0.81609 0.44187 0.74418 0.0
H3291 H 0.80596 0.45982 0.75245 0.0
C3292 C 0.82822 0.4175 0.71916 0.0
C3293 C 0.82154 0.40705 0.71537 0.0
C3294 C 0.82217 0.42783 0.72357 0.0
C3295 C 0.80927 0.42802 0.72431 0.0
C3296 C 0.80256 0.41766 0.7203 0.0
C3297 C 0.80862 0.40731 0.71588 0.0
C3298 C 0.78605 0.4535 0.72898 0.0
C3299 C 0.79093 0.45964 0.73928 0.0
C3300 C 0.79195 0.44324 0.72414 0.0
C3301 C 0.8029 0.4389 0.72945 0.0
C3302 C 0.80776 0.44504 0.73976 0.0
C3303 C 0.80185 0.45526 0.74461 0.0
H3304 H 0.11356 0.32871 0.70777 0.0
H3305 H 0.1302 0.29324 0.71293 0.0
H3306 H 0.09529 0.32152 0.71869 0.0
H3307 H 0.11179 0.28594 0.7235 0.0
H3308 H 0.08156 0.28034 0.75201 0.0
H3309 H 0.1002 0.28851 0.74245 0.0
H3310 H 0.07812 0.3073 0.71533 0.0
H3311 H 0.0595 0.29946 0.72511 0.0
C3312 C 0.11336 0.3194 0.71129 0.0
C3313 C 0.12335 0.31155 0.70944 0.0
C3314 C 0.10282 0.31524 0.71744 0.0
C3315 C 0.10204 0.30313 0.72194 0.0
C3316 C 0.11212 0.29534 0.72025 0.0
C3317 C 0.12262 0.29949 0.71407 0.0
C3318 C 0.08068 0.28633 0.7441 0.0
C3319 C 0.06902 0.28922 0.73932 0.0
C3320 C 0.09137 0.29091 0.73854 0.0
C3321 C 0.09067 0.29854 0.7281 0.0
C3322 C 0.07901 0.30155 0.72342 0.0
C3323 C 0.06832 0.29694 0.72895 0.0
H3324 H 0.89664 0.73549 0.71237 0.0
H3325 H 0.91398 0.70062 0.70617 0.0
H3326 H 0.91521 0.74296 0.72268 0.0
H3327 H 0.93244 0.70797 0.7168 0.0
H3328 H 0.96782 0.7309 0.72286 0.0
H3329 H 0.9491 0.7229 0.71325 0.0
H3330 H 0.92736 0.73988 0.74144 0.0
H3331 H 0.94607 0.74819 0.75085 0.0
C3332 C 0.90441 0.72941 0.71322 0.0
C3333 C 0.90385 0.71748 0.70839 0.0
C3334 C 0.91501 0.73365 0.71925 0.0
C3335 C 0.92531 0.72607 0.72055 0.0
C3336 C 0.9247 0.71408 0.71584 0.0
C3337 C 0.91408 0.70983 0.70986 0.0
C3338 C 0.95904 0.73299 0.72697 0.0
C3339 C 0.95844 0.74023 0.7376 0.0
C3340 C 0.94832 0.72829 0.72154 0.0
C3341 C 0.93673 0.73075 0.72658 0.0
C3342 C 0.93613 0.73791 0.73726 0.0
C3343 C 0.94686 0.74257 0.74272 0.0
H3344 H 0.7114 0.2237 0.62883 0.0
H3345 H 0.71908 0.18867 0.61233 0.0
H3346 H 0.7195 0.23415 0.61064 0.0
H3347 H 0.72719 0.19909 0.59422 0.0
H3348 H 0.75361 0.22159 0.57041 0.0
H3349 H 0.74495 0.21156 0.58847 0.0
H3350 H 0.71543 0.23774 0.58874 0.0
H3351 H 0.72408 0.24776 0.57058 0.0
C3352 C 0.71469 0.21822 0.62128 0.0
C3353 C 0.71466 0.20533 0.62211 0.0
C3354 C 0.71934 0.22422 0.61085 0.0
C3355 C 0.72409 0.21747 0.60099 0.0
C3356 C 0.72385 0.20459 0.60174 0.0
C3357 C 0.71919 0.1986 0.61214 0.0
C3358 C 0.74521 0.22515 0.57423 0.0
C3359 C 0.73953 0.23546 0.56896 0.0
C3360 C 0.74024 0.21939 0.58461 0.0
C3361 C 0.72945 0.22379 0.59004 0.0
C3362 C 0.72383 0.23419 0.58488 0.0
C3363 C 0.7288 0.23994 0.57446 0.0
H3364 H 0.29058 0.20531 0.62956 0.0
H3365 H 0.32796 0.21074 0.61727 0.0
H3366 H 0.28307 0.21594 0.61132 0.0
H3367 H 0.32046 0.22181 0.59925 0.0
H3368 H 0.30154 0.22759 0.56174 0.0
H3369 H 0.3095 0.21768 0.58021 0.0
H3370 H 0.28227 0.23612 0.60197 0.0
H3371 H 0.27429 0.24601 0.58347 0.0
C3372 C 0.2972 0.20878 0.62297 0.0
C3373 C 0.30988 0.20711 0.62486 0.0
C3374 C 0.2929 0.21501 0.61258 0.0
C3375 C 0.30115 0.21974 0.60381 0.0
C3376 C 0.31384 0.21818 0.60575 0.0
C3377 C 0.31815 0.21195 0.61616 0.0
C3378 C 0.29734 0.22964 0.57048 0.0
C3379 C 0.28726 0.23758 0.57112 0.0
C3380 C 0.30191 0.22396 0.58108 0.0
C3381 C 0.29652 0.22608 0.59258 0.0
C3382 C 0.28651 0.23412 0.59323 0.0
C3383 C 0.28194 0.23979 0.58263 0.0
H3384 H 0.31539 0.8376 0.60934 0.0
H3385 H 0.31109 0.80474 0.63131 0.0
H3386 H 0.30768 0.82662 0.59139 0.0
H3387 H 0.30375 0.79363 0.61323 0.0
H3388 H 0.27743 0.78236 0.5818 0.0
H3389 H 0.28577 0.79287 0.59979 0.0
H3390 H 0.31317 0.8106 0.57704 0.0
H3391 H 0.30457 0.80042 0.55899 0.0
C3392 C 0.31282 0.82802 0.61034 0.0
C3393 C 0.31381 0.82208 0.6218 0.0
C3394 C 0.30852 0.82168 0.6 0.0
C3395 C 0.30508 0.80923 0.60084 0.0
C3396 C 0.30619 0.80324 0.61227 0.0
C3397 C 0.31054 0.80958 0.62261 0.0
C3398 C 0.28519 0.78856 0.58062 0.0
C3399 C 0.29029 0.79057 0.56892 0.0
C3400 C 0.29006 0.79448 0.59097 0.0
C3401 C 0.30015 0.8026 0.58988 0.0
C3402 C 0.30532 0.80452 0.5782 0.0
C3403 C 0.30047 0.79857 0.56786 0.0
H3404 H 0.69954 0.82226 0.61415 0.0
H3405 H 0.73429 0.81544 0.63214 0.0
H3406 H 0.70674 0.81166 0.59588 0.0
H3407 H 0.74162 0.80518 0.61377 0.0
H3408 H 0.74667 0.77736 0.583 0.0
H3409 H 0.73844 0.78668 0.60154 0.0
H3410 H 0.72165 0.81501 0.57946 0.0
H3411 H 0.72955 0.80549 0.56092 0.0
C3412 C 0.70869 0.81844 0.61424 0.0
C3413 C 0.71634 0.81973 0.62461 0.0
C3414 C 0.71287 0.81247 0.60372 0.0
C3415 C 0.72478 0.8076 0.60333 0.0
C3416 C 0.73236 0.80872 0.61378 0.0
C3417 C 0.7282 0.81473 0.62427 0.0
C3418 C 0.7411 0.7855 0.58209 0.0
C3419 C 0.73879 0.79069 0.57046 0.0
C3420 C 0.73649 0.79091 0.59273 0.0
C3421 C 0.7294 0.80162 0.592 0.0
C3422 C 0.72697 0.80671 0.58036 0.0
C3423 C 0.73162 0.80133 0.56973 0.0
H3424 H 0.7206 0.83919 0.41694 0.0
H3425 H 0.71269 0.80425 0.39991 0.0
H3426 H 0.72812 0.82866 0.43521 0.0
H3427 H 0.71978 0.7937 0.41842 0.0
H3428 H 0.74701 0.77971 0.44787 0.0
H3429 H 0.73878 0.78974 0.42956 0.0
H3430 H 0.72092 0.81645 0.45238 0.0
H3431 H 0.72918 0.80645 0.47066 0.0
C3432 C 0.72046 0.82925 0.41709 0.0
C3433 C 0.71609 0.82257 0.40692 0.0
C3434 C 0.72464 0.82321 0.42764 0.0
C3435 C 0.72455 0.81032 0.4283 0.0
C3436 C 0.7201 0.80363 0.41817 0.0
C3437 C 0.7159 0.80968 0.40761 0.0
C3438 C 0.74123 0.78765 0.44898 0.0
C3439 C 0.73881 0.79231 0.46073 0.0
C3440 C 0.7365 0.79339 0.43848 0.0
C3441 C 0.72923 0.80393 0.43948 0.0
C3442 C 0.72667 0.80848 0.45125 0.0
C3443 C 0.73141 0.80275 0.46174 0.0
H3444 H 0.70508 0.23416 0.40092 0.0
H3445 H 0.71111 0.19687 0.41294 0.0
H3446 H 0.71586 0.24174 0.41905 0.0
H3447 H 0.72234 0.20447 0.43088 0.0
H3448 H 0.72852 0.22315 0.46845 0.0
H3449 H 0.71856 0.21495 0.45008 0.0
H3450 H 0.73605 0.24325 0.42817 0.0
H3451 H 0.74596 0.25146 0.44655 0.0
C3452 C 0.70871 0.22756 0.40743 0.0
C3453 C 0.70714 0.21489 0.40548 0.0
C3454 C 0.71504 0.23192 0.41776 0.0
C3455 C 0.71999 0.22373 0.42645 0.0
C3456 C 0.71854 0.21105 0.42445 0.0
C3457 C 0.71221 0.20668 0.41409 0.0
C3458 C 0.73035 0.22754 0.4597 0.0
C3459 C 0.73801 0.238 0.45901 0.0
C3460 C 0.72465 0.22283 0.44914 0.0
C3461 C 0.72645 0.22845 0.43762 0.0
C3462 C 0.73426 0.23881 0.43691 0.0
C3463 C 0.73995 0.24353 0.44746 0.0
H3464 H 0.33757 0.21989 0.41844 0.0
H3465 H 0.30245 0.2133 0.40084 0.0
H3466 H 0.32715 0.22761 0.43652 0.0
H3467 H 0.292 0.22103 0.41899 0.0
H3468 H 0.27786 0.22482 0.45877 0.0
H3469 H 0.28786 0.21648 0.44065 0.0
H3470 H 0.3153 0.24536 0.44244 0.0
H3471 H 0.30531 0.2537 0.46048 0.0
C3472 C 0.32762 0.22015 0.41839 0.0
C3473 C 0.32086 0.21605 0.40813 0.0
C3474 C 0.32164 0.22459 0.42877 0.0
C3475 C 0.30873 0.22504 0.42919 0.0
C3476 C 0.30195 0.2207 0.41903 0.0
C3477 C 0.30794 0.21626 0.40862 0.0
C3478 C 0.28596 0.22946 0.45523 0.0
C3479 C 0.2908 0.23991 0.46114 0.0
C3480 C 0.2917 0.22467 0.44484 0.0
C3481 C 0.30243 0.2302 0.44012 0.0
C3482 C 0.30719 0.24072 0.44596 0.0
C3483 C 0.30145 0.24551 0.45632 0.0
H3484 H 0.32948 0.81667 0.41289 0.0
H3485 H 0.29219 0.82288 0.40075 0.0
H3486 H 0.32174 0.80604 0.43113 0.0
H3487 H 0.28447 0.81229 0.41893 0.0
H3488 H 0.27518 0.80548 0.45928 0.0
H3489 H 0.28321 0.81545 0.44089 0.0
H3490 H 0.31087 0.78751 0.43794 0.0
H3491 H 0.30281 0.77749 0.45637 0.0
C3492 C 0.31964 0.81566 0.41403 0.0
C3493 C 0.31147 0.82072 0.40537 0.0
C3494 C 0.31519 0.80956 0.4245 0.0
C3495 C 0.30247 0.80838 0.42656 0.0
C3496 C 0.29432 0.81325 0.41778 0.0
C3497 C 0.29875 0.81933 0.40734 0.0
C3498 C 0.2829 0.80137 0.45465 0.0
C3499 C 0.2883 0.79064 0.45931 0.0
C3500 C 0.28751 0.8071 0.44409 0.0
C3501 C 0.29767 0.80227 0.43788 0.0
C3502 C 0.30314 0.79157 0.44257 0.0
C3503 C 0.29851 0.78582 0.45314 0.0
H3504 H 0.62716 0.23585 0.70541 0.0
H3505 H 0.61366 0.19878 0.71053 0.0
H3506 H 0.60915 0.24367 0.71586 0.0
H3507 H 0.59559 0.20662 0.72102 0.0
H3508 H 0.57073 0.22503 0.74958 0.0
H3509 H 0.58897 0.21687 0.73967 0.0
H3510 H 0.58728 0.24575 0.71243 0.0
H3511 H 0.56908 0.25388 0.72231 0.0
C3512 C 0.6203 0.22936 0.70869 0.0
C3513 C 0.62184 0.21668 0.70704 0.0
C3514 C 0.60996 0.23385 0.71469 0.0
C3515 C 0.60085 0.22579 0.71922 0.0
C3516 C 0.60248 0.21309 0.71777 0.0
C3517 C 0.61285 0.20859 0.71175 0.0
C3518 C 0.57419 0.22958 0.74142 0.0
C3519 C 0.56844 0.24015 0.73678 0.0
C3520 C 0.58466 0.2249 0.73573 0.0
C3521 C 0.58964 0.23067 0.72527 0.0
C3522 C 0.58384 0.2412 0.72061 0.0
C3523 C 0.57339 0.24587 0.72628 0.0
H3524 H 0.32322 0.12785 0.73752 0.0
H3525 H 0.31691 0.11595 0.7002 0.0
H3526 H 0.31259 0.10958 0.74513 0.0
H3527 H 0.30623 0.09765 0.70784 0.0
H3528 H 0.27741 0.07249 0.72635 0.0
H3529 H 0.28752 0.09101 0.71851 0.0
H3530 H 0.31575 0.08753 0.74631 0.0
H3531 H 0.3057 0.06903 0.75411 0.0
C3532 C 0.31963 0.12129 0.73093 0.0
C3533 C 0.32098 0.12334 0.71825 0.0
C3534 C 0.31353 0.11081 0.7353 0.0
C3535 C 0.30861 0.10211 0.7271 0.0
C3536 C 0.30979 0.10424 0.7144 0.0
C3537 C 0.31591 0.11473 0.71003 0.0
C3538 C 0.28583 0.07562 0.73073 0.0
C3539 C 0.29071 0.06928 0.74089 0.0
C3540 C 0.29162 0.08625 0.72623 0.0
C3541 C 0.30243 0.09079 0.7318 0.0
C3542 C 0.30733 0.08442 0.74194 0.0
C3543 C 0.30155 0.0738 0.74642 0.0
H3544 H 0.39864 0.81621 0.72554 0.0
H3545 H 0.41685 0.811 0.69081 0.0
H3546 H 0.4167 0.80839 0.73631 0.0
H3547 H 0.43486 0.80322 0.70155 0.0
H3548 H 0.45901 0.77699 0.72339 0.0
H3549 H 0.44099 0.78533 0.71311 0.0
H3550 H 0.43814 0.81297 0.74123 0.0
H3551 H 0.45593 0.80431 0.7518 0.0
C3552 C 0.40654 0.81353 0.7202 0.0
C3553 C 0.40623 0.81416 0.70729 0.0
C3554 C 0.41691 0.80904 0.72638 0.0
C3555 C 0.42723 0.80508 0.7198 0.0
C3556 C 0.42699 0.80594 0.70691 0.0
C3557 C 0.41665 0.81042 0.70075 0.0
C3558 C 0.45447 0.78476 0.72748 0.0
C3559 C 0.45893 0.78994 0.73846 0.0
C3560 C 0.44421 0.78965 0.72148 0.0
C3561 C 0.43812 0.79987 0.7263 0.0
C3562 C 0.44254 0.80504 0.73731 0.0
C3563 C 0.45282 0.80015 0.7433 0.0
H3564 H 0.7076 0.89871 0.73684 0.0
H3565 H 0.71008 0.91302 0.69986 0.0
H3566 H 0.71814 0.91695 0.74456 0.0
H3567 H 0.72062 0.93132 0.70759 0.0
H3568 H 0.74902 0.95759 0.72488 0.0
H3569 H 0.73964 0.9387 0.71706 0.0
H3570 H 0.7141 0.9385 0.74733 0.0
H3571 H 0.72376 0.95705 0.75537 0.0
C3572 C 0.71034 0.90578 0.73035 0.0
C3573 C 0.70791 0.90442 0.71773 0.0
C3574 C 0.71638 0.91625 0.73478 0.0
C3575 C 0.72016 0.92566 0.72672 0.0
C3576 C 0.71796 0.9242 0.71406 0.0
C3577 C 0.71191 0.9137 0.70962 0.0
C3578 C 0.74149 0.95343 0.72993 0.0
C3579 C 0.73715 0.95886 0.74076 0.0
C3580 C 0.73602 0.94268 0.72538 0.0
C3581 C 0.7261 0.93706 0.73156 0.0
C3582 C 0.72181 0.94247 0.7424 0.0
C3583 C 0.72726 0.95322 0.74694 0.0
H3584 H 0.63036 0.79287 0.31834 0.0
H3585 H 0.61363 0.82825 0.32331 0.0
H3586 H 0.61187 0.78555 0.30779 0.0
H3587 H 0.59527 0.82103 0.31244 0.0
H3588 H 0.55955 0.79873 0.30617 0.0
H3589 H 0.57824 0.80654 0.316 0.0
H3590 H 0.60017 0.78846 0.28868 0.0
H3591 H 0.58148 0.78035 0.27904 0.0
C3592 C 0.62274 0.79909 0.31716 0.0
C3593 C 0.62345 0.81113 0.32171 0.0
C3594 C 0.61219 0.79493 0.311 0.0
C3595 C 0.60208 0.8027 0.30928 0.0
C3596 C 0.60284 0.81478 0.31372 0.0
C3597 C 0.61342 0.81896 0.31984 0.0
C3598 C 0.56837 0.79636 0.3023 0.0
C3599 C 0.56903 0.78887 0.29185 0.0
C3600 C 0.57907 0.80095 0.30786 0.0
C3601 C 0.5907 0.79812 0.30313 0.0
C3602 C 0.59136 0.79071 0.29262 0.0
C3603 C 0.58065 0.78616 0.28703 0.0
H3604 H 0.73496 0.12762 0.32218 0.0
H3605 H 0.69777 0.11405 0.31758 0.0
H3606 H 0.7427 0.1096 0.31174 0.0
H3607 H 0.70554 0.09596 0.30712 0.0
H3608 H 0.7235 0.07053 0.27895 0.0
H3609 H 0.71561 0.08908 0.28846 0.0
H3610 H 0.74488 0.08786 0.31539 0.0
H3611 H 0.75302 0.06964 0.30563 0.0
C3612 C 0.72843 0.12075 0.31901 0.0
C3613 C 0.71574 0.12226 0.32082 0.0
C3614 C 0.73287 0.1104 0.31301 0.0
C3615 C 0.72476 0.10125 0.30865 0.0
C3616 C 0.71205 0.10287 0.31024 0.0
C3617 C 0.70759 0.11325 0.31624 0.0
C3618 C 0.72833 0.0743 0.28683 0.0
C3619 C 0.73891 0.06857 0.29151 0.0
C3620 C 0.72372 0.08486 0.29237 0.0
C3621 C 0.7296 0.09 0.3027 0.0
C3622 C 0.74019 0.08427 0.30736 0.0
C3623 C 0.74477 0.07371 0.30185 0.0
H3624 H 0.39589 0.21382 0.29547 0.0
H3625 H 0.4134 0.20773 0.33064 0.0
H3626 H 0.41444 0.22417 0.28808 0.0
H3627 H 0.43182 0.21844 0.32338 0.0
H3628 H 0.46718 0.22449 0.3009 0.0
H3629 H 0.44844 0.21501 0.3089 0.0
H3630 H 0.4268 0.24276 0.29072 0.0
H3631 H 0.44553 0.25202 0.28238 0.0
C3632 C 0.40369 0.21472 0.30165 0.0
C3633 C 0.40317 0.20988 0.31364 0.0
C3634 C 0.41428 0.22078 0.29745 0.0
C3635 C 0.42464 0.22213 0.30512 0.0
C3636 C 0.42406 0.21744 0.31718 0.0
C3637 C 0.41344 0.21142 0.32139 0.0
C3638 C 0.45842 0.22853 0.29855 0.0
C3639 C 0.45787 0.23899 0.29095 0.0
C3640 C 0.44768 0.22318 0.30325 0.0
C3641 C 0.4361 0.22812 0.30046 0.0
C3642 C 0.43555 0.23865 0.29296 0.0
C3643 C 0.4463 0.24403 0.28828 0.0
H3644 H 0.31549 0.89811 0.29418 0.0
H3645 H 0.32273 0.91577 0.32894 0.0
H3646 H 0.30522 0.91651 0.28679 0.0
H3647 H 0.31211 0.93406 0.32167 0.0
H3648 H 0.30561 0.96922 0.29889 0.0
H3649 H 0.31524 0.95068 0.30686 0.0
H3650 H 0.28679 0.9286 0.28976 0.0
H3651 H 0.27739 0.94712 0.28145 0.0
C3652 C 0.31487 0.90592 0.30026 0.0
C3653 C 0.32 0.90547 0.31214 0.0
C3654 C 0.30886 0.91643 0.29606 0.0
C3655 C 0.30784 0.92679 0.30362 0.0
C3656 C 0.31284 0.9263 0.31556 0.0
C3657 C 0.31882 0.91576 0.31978 0.0
C3658 C 0.30145 0.9604 0.29676 0.0
C3659 C 0.29075 0.95967 0.28948 0.0
C3660 C 0.30689 0.94978 0.30145 0.0
C3661 C 0.3018 0.93813 0.29896 0.0
C3662 C 0.29104 0.9374 0.29176 0.0
C3663 C 0.28557 0.94804 0.2871 0.0
H3664 H 0.70871 0.11525 0.69967 0.0
H3665 H 0.70447 0.1282 0.73682 0.0
H3666 H 0.71925 0.0971 0.70742 0.0
H3667 H 0.71498 0.1101 0.74455 0.0
H3668 H 0.72143 0.07001 0.75479 0.0
H3669 H 0.71146 0.08827 0.74672 0.0
H3670 H 0.73807 0.09031 0.71744 0.0
H3671 H 0.74778 0.07173 0.72527 0.0
C3672 C 0.71014 0.1143 0.70947 0.0
C3673 C 0.70566 0.12317 0.71761 0.0
C3674 C 0.71619 0.10389 0.71393 0.0
C3675 C 0.71791 0.10208 0.72663 0.0
C3676 C 0.7136 0.11106 0.73473 0.0
C3677 C 0.70757 0.12145 0.73029 0.0
C3678 C 0.7251 0.07427 0.74656 0.0
C3679 C 0.7354 0.06936 0.74068 0.0
C3680 C 0.71946 0.08485 0.74201 0.0
C3681 C 0.72397 0.09081 0.73144 0.0
C3682 C 0.73428 0.0859 0.72554 0.0
C3683 C 0.73994 0.07532 0.73011 0.0
H3684 H 0.72351 0.8967 0.31131 0.0
H3685 H 0.69005 0.91749 0.31386 0.0
H3686 H 0.73439 0.91495 0.30382 0.0
H3687 H 0.70082 0.93562 0.30604 0.0
H3688 H 0.72672 0.96871 0.3035 0.0
H3689 H 0.71669 0.9505 0.31207 0.0
H3690 H 0.7349 0.92796 0.28534 0.0
H3691 H 0.74524 0.94614 0.27701 0.0
C3692 C 0.71849 0.90518 0.31033 0.0
C3693 C 0.70591 0.90563 0.31317 0.0
C3694 C 0.72469 0.9156 0.30591 0.0
C3695 C 0.71847 0.92674 0.3043 0.0
C3696 C 0.70592 0.92722 0.30728 0.0
C3697 C 0.69971 0.9168 0.31164 0.0
C3698 C 0.7287 0.95985 0.29954 0.0
C3699 C 0.73679 0.95888 0.28956 0.0
C3700 C 0.72285 0.94943 0.30437 0.0
C3701 C 0.72496 0.93778 0.29937 0.0
C3702 C 0.73315 0.93679 0.28948 0.0
C3703 C 0.73898 0.94722 0.28462 0.0
H3704 H 0.61219 0.20526 0.32961 0.0
H3705 H 0.62932 0.21123 0.29435 0.0
H3706 H 0.59402 0.21621 0.32248 0.0
H3707 H 0.61102 0.22183 0.2871 0.0
H3708 H 0.58101 0.2503 0.28175 0.0
H3709 H 0.59948 0.2406 0.28988 0.0
H3710 H 0.57698 0.21326 0.30814 0.0
H3711 H 0.55851 0.22319 0.30037 0.0
C3712 C 0.61212 0.20896 0.32036 0.0
C3713 C 0.62222 0.20733 0.31255 0.0
C3714 C 0.60164 0.21513 0.31623 0.0
C3715 C 0.60103 0.21988 0.3042 0.0
C3716 C 0.61121 0.2184 0.29645 0.0
C3717 C 0.62166 0.2122 0.30057 0.0
C3718 C 0.57999 0.24231 0.28762 0.0
C3719 C 0.56826 0.23753 0.29038 0.0
C3720 C 0.59059 0.23667 0.29218 0.0
C3721 C 0.58974 0.22612 0.29964 0.0
C3722 C 0.57799 0.22143 0.30252 0.0
C3723 C 0.5674 0.22705 0.29794 0.0
H3724 H 0.30913 0.13195 0.30593 0.0
H3725 H 0.31414 0.10996 0.33865 0.0
H3726 H 0.30186 0.11381 0.29487 0.0
H3727 H 0.30653 0.09193 0.32771 0.0
H3728 H 0.30374 0.05971 0.30122 0.0
H3729 H 0.31216 0.07786 0.31138 0.0
H3730 H 0.28397 0.10002 0.29454 0.0
H3731 H 0.27578 0.08193 0.28406 0.0
C3732 C 0.30874 0.12323 0.31074 0.0
C3733 C 0.3122 0.12242 0.32319 0.0
C3734 C 0.30445 0.11286 0.30444 0.0
C3735 C 0.30357 0.10141 0.3104 0.0
C3736 C 0.30719 0.10057 0.3228 0.0
C3737 C 0.31143 0.11094 0.32911 0.0
C3738 C 0.29942 0.06848 0.29957 0.0
C3739 C 0.28907 0.06935 0.29182 0.0
C3740 C 0.30417 0.07887 0.3055 0.0
C3741 C 0.29873 0.0904 0.30381 0.0
C3742 C 0.28846 0.0913 0.29596 0.0
C3743 C 0.28368 0.0809 0.29006 0.0
H3744 H 0.39698 0.7948 0.3154 0.0
H3745 H 0.41518 0.82947 0.32251 0.0
H3746 H 0.41536 0.78748 0.30515 0.0
H3747 H 0.43346 0.82228 0.31191 0.0
H3748 H 0.46836 0.79948 0.30569 0.0
H3749 H 0.44983 0.80745 0.31517 0.0
H3750 H 0.42769 0.79054 0.28675 0.0
H3751 H 0.4462 0.78224 0.27749 0.0
C3752 C 0.4049 0.80087 0.31475 0.0
C3753 C 0.40461 0.8127 0.31984 0.0
C3754 C 0.4154 0.79672 0.30875 0.0
C3755 C 0.42591 0.80427 0.30771 0.0
C3756 C 0.42558 0.81617 0.31266 0.0
C3757 C 0.41505 0.82034 0.31862 0.0
C3758 C 0.45954 0.7974 0.3015 0.0
C3759 C 0.45878 0.79017 0.29085 0.0
C3760 C 0.44892 0.80209 0.30686 0.0
C3761 C 0.43725 0.79964 0.30173 0.0
C3762 C 0.43651 0.79251 0.29101 0.0
C3763 C 0.44714 0.78785 0.28563 0.0
H3764 H 0.33853 0.91799 0.71898 0.0
H3765 H 0.30357 0.89989 0.71264 0.0
H3766 H 0.32795 0.93594 0.72667 0.0
H3767 H 0.29296 0.9179 0.72035 0.0
H3768 H 0.27804 0.95704 0.72437 0.0
H3769 H 0.2885 0.93933 0.7158 0.0
H3770 H 0.31613 0.94199 0.74434 0.0
H3771 H 0.30594 0.95992 0.7526 0.0
C3772 C 0.32858 0.9178 0.7193 0.0
C3773 C 0.32192 0.90743 0.71526 0.0
C3774 C 0.3225 0.92811 0.72372 0.0
C3775 C 0.30959 0.92836 0.72422 0.0
C3776 C 0.3029 0.91809 0.71997 0.0
C3777 C 0.30899 0.90775 0.71554 0.0
C3778 C 0.28641 0.95391 0.72874 0.0
C3779 C 0.29114 0.95993 0.73918 0.0
C3780 C 0.29234 0.94367 0.72391 0.0
C3781 C 0.30318 0.93922 0.72936 0.0
C3782 C 0.30789 0.94524 0.7398 0.0
C3783 C 0.30195 0.95545 0.74465 0.0
H3784 H 0.62909 0.81475 0.725 0.0
H3785 H 0.61028 0.81014 0.69026 0.0
H3786 H 0.61086 0.80718 0.73574 0.0
H3787 H 0.59209 0.80259 0.70097 0.0
H3788 H 0.56728 0.77658 0.72287 0.0
H3789 H 0.58543 0.78471 0.7125 0.0
H3790 H 0.58968 0.81223 0.74066 0.0
H3791 H 0.57175 0.80379 0.75131 0.0
C3792 C 0.62102 0.81226 0.71965 0.0
C3793 C 0.62119 0.813 0.70675 0.0
C3794 C 0.61056 0.80791 0.72581 0.0
C3795 C 0.60001 0.8042 0.71922 0.0
C3796 C 0.60012 0.80514 0.70634 0.0
C3797 C 0.61057 0.80948 0.70018 0.0
C3798 C 0.57215 0.78429 0.72694 0.0
C3799 C 0.56806 0.7895 0.73796 0.0
C3800 C 0.58248 0.78905 0.7209 0.0
C3801 C 0.58901 0.79916 0.72571 0.0
C3802 C 0.58494 0.80437 0.73675 0.0
C3803 C 0.57458 0.79962 0.74278 0.0
H3804 H 0.39637 0.21805 0.72401 0.0
H3805 H 0.41733 0.21531 0.69056 0.0
H3806 H 0.41468 0.22551 0.73482 0.0
H3807 H 0.43552 0.2231 0.70126 0.0
H3808 H 0.46858 0.22558 0.72715 0.0
H3809 H 0.45031 0.21708 0.71712 0.0
H3810 H 0.42789 0.24391 0.73527 0.0
H3811 H 0.44613 0.25217 0.74559 0.0
C3812 C 0.4049 0.21898 0.71898 0.0
C3813 C 0.40538 0.2161 0.70642 0.0
C3814 C 0.41536 0.22338 0.72514 0.0
C3815 C 0.42656 0.22493 0.7189 0.0
C3816 C 0.42707 0.22191 0.70637 0.0
C3817 C 0.41661 0.21757 0.7002 0.0
C3818 C 0.45974 0.22957 0.72911 0.0
C3819 C 0.45882 0.23956 0.73717 0.0
C3820 C 0.44928 0.22478 0.72326 0.0
C3821 C 0.43764 0.22983 0.72536 0.0
C3822 C 0.4367 0.23973 0.73353 0.0
C3823 C 0.44717 0.24456 0.73934 0.0
H3824 H 0.71113 0.69213 0.11058 0.0
H3825 H 0.7194 0.72445 0.13199 0.0
H3826 H 0.71932 0.70225 0.09233 0.0
H3827 H 0.72747 0.73467 0.11369 0.0
H3828 H 0.753 0.74417 0.08164 0.0
H3829 H 0.74453 0.73421 0.09985 0.0
H3830 H 0.71541 0.71828 0.07778 0.0
H3831 H 0.72423 0.72773 0.05949 0.0
C3832 C 0.71456 0.70146 0.11136 0.0
C3833 C 0.71461 0.70747 0.12276 0.0
C3834 C 0.71925 0.70729 0.10088 0.0
C3835 C 0.72408 0.7193 0.1015 0.0
C3836 C 0.72403 0.72535 0.11289 0.0
C3837 C 0.71937 0.7195 0.12339 0.0
C3838 C 0.74486 0.73844 0.08064 0.0
C3839 C 0.73934 0.73675 0.06905 0.0
C3840 C 0.7399 0.73285 0.09113 0.0
C3841 C 0.72926 0.72543 0.09033 0.0
C3842 C 0.72369 0.72381 0.07875 0.0
C3843 C 0.72867 0.72937 0.06826 0.0
H3844 H 0.32754 0.71049 0.11704 0.0
H3845 H 0.29029 0.70492 0.12964 0.0
H3846 H 0.31982 0.72112 0.09884 0.0
H3847 H 0.28258 0.71553 0.11147 0.0
H3848 H 0.27301 0.7223 0.07103 0.0
H3849 H 0.28086 0.71229 0.08946 0.0
H3850 H 0.30952 0.73989 0.09232 0.0
H3851 H 0.30164 0.74994 0.07385 0.0
C3852 C 0.31771 0.71165 0.116 0.0
C3853 C 0.30954 0.7068 0.12478 0.0
C3854 C 0.31329 0.71774 0.10556 0.0
C3855 C 0.30057 0.71913 0.10366 0.0
C3856 C 0.29242 0.71443 0.11253 0.0
C3857 C 0.29684 0.70834 0.12295 0.0
C3858 C 0.28091 0.72632 0.07565 0.0
C3859 C 0.28667 0.73695 0.07096 0.0
C3860 C 0.28542 0.72057 0.08623 0.0
C3861 C 0.29581 0.7253 0.0924 0.0
C3862 C 0.3016 0.73591 0.0877 0.0
C3863 C 0.29708 0.74167 0.07711 0.0
H3864 H 0.33039 0.31812 0.11551 0.0
H3865 H 0.29292 0.32303 0.12731 0.0
H3866 H 0.323 0.3069 0.09753 0.0
H3867 H 0.28553 0.31226 0.10914 0.0
H3868 H 0.27654 0.2821 0.08169 0.0
H3869 H 0.28455 0.29213 0.10006 0.0
H3870 H 0.3123 0.31051 0.07824 0.0
H3871 H 0.30429 0.30045 0.05986 0.0
C3872 C 0.32058 0.31677 0.11431 0.0
C3873 C 0.31226 0.32151 0.12287 0.0
C3874 C 0.31633 0.31045 0.10391 0.0
C3875 C 0.30366 0.30868 0.10184 0.0
C3876 C 0.29535 0.31332 0.11048 0.0
C3877 C 0.29959 0.31964 0.12084 0.0
C3878 C 0.28431 0.28834 0.08079 0.0
C3879 C 0.28973 0.2905 0.06926 0.0
C3880 C 0.28891 0.2941 0.09134 0.0
C3881 C 0.29906 0.30219 0.09065 0.0
C3882 C 0.30459 0.30422 0.07915 0.0
C3883 C 0.29998 0.29845 0.0686 0.0
H3884 H 0.73582 0.32307 0.12871 0.0
H3885 H 0.6985 0.31783 0.11588 0.0
H3886 H 0.74341 0.31264 0.11059 0.0
H3887 H 0.70611 0.30735 0.09771 0.0
H3888 H 0.72423 0.27875 0.07269 0.0
H3889 H 0.71628 0.28869 0.09102 0.0
H3890 H 0.74518 0.31609 0.08866 0.0
H3891 H 0.7531 0.30619 0.07038 0.0
C3892 C 0.72922 0.31977 0.12198 0.0
C3893 C 0.71654 0.32137 0.12374 0.0
C3894 C 0.73358 0.31378 0.11157 0.0
C3895 C 0.72538 0.30921 0.10263 0.0
C3896 C 0.71268 0.31063 0.10447 0.0
C3897 C 0.70831 0.31664 0.1149 0.0
C3898 C 0.72883 0.28696 0.07603 0.0
C3899 C 0.73935 0.29163 0.07007 0.0
C3900 C 0.72426 0.29266 0.08654 0.0
C3901 C 0.73011 0.30317 0.09137 0.0
C3902 C 0.74057 0.30788 0.08535 0.0
C3903 C 0.74513 0.30219 0.07485 0.0
H3904 H 0.71451 0.33801 0.91956 0.0
H3905 H 0.71792 0.30493 0.89823 0.0
H3906 H 0.72222 0.32724 0.93765 0.0
H3907 H 0.72532 0.29404 0.91644 0.0
H3908 H 0.75179 0.28342 0.94794 0.0
H3909 H 0.74362 0.29379 0.92978 0.0
H3910 H 0.71616 0.31108 0.95217 0.0
H3911 H 0.72455 0.301 0.97037 0.0
C3912 C 0.7169 0.32843 0.91873 0.0
C3913 C 0.71564 0.32235 0.90744 0.0
C3914 C 0.7212 0.32222 0.92914 0.0
C3915 C 0.72439 0.30978 0.9285 0.0
C3916 C 0.72305 0.30366 0.91722 0.0
C3917 C 0.7187 0.30986 0.90681 0.0
C3918 C 0.74405 0.28949 0.94899 0.0
C3919 C 0.73885 0.2914 0.96061 0.0
C3920 C 0.73928 0.29533 0.93856 0.0
C3921 C 0.72923 0.30327 0.93952 0.0
C3922 C 0.72398 0.30512 0.95113 0.0
C3923 C 0.72871 0.29924 0.96155 0.0
H3924 H 0.6903 0.71789 0.91645 0.0
H3925 H 0.72507 0.71115 0.89885 0.0
H3926 H 0.70109 0.7255 0.93455 0.0
H3927 H 0.7359 0.71834 0.9172 0.0
H3928 H 0.75019 0.74575 0.94649 0.0
H3929 H 0.74006 0.73721 0.92834 0.0
H3930 H 0.71354 0.71876 0.95158 0.0
H3931 H 0.72362 0.72733 0.96968 0.0
C3932 C 0.70026 0.71802 0.91644 0.0
C3933 C 0.7068 0.71396 0.90614 0.0
C3934 C 0.70646 0.72225 0.9269 0.0
C3935 C 0.71939 0.72254 0.92737 0.0
C3936 C 0.72595 0.71837 0.91712 0.0
C3937 C 0.71973 0.71411 0.90664 0.0
C3938 C 0.74228 0.73976 0.94773 0.0
C3939 C 0.73768 0.73731 0.95955 0.0
C3940 C 0.73647 0.73485 0.93731 0.0
C3941 C 0.72593 0.72734 0.93846 0.0
C3942 C 0.72149 0.7247 0.95031 0.0
C3943 C 0.72728 0.72962 0.96071 0.0
H3944 H 0.30303 0.71353 0.90083 0.0
H3945 H 0.33812 0.72052 0.91832 0.0
H3946 H 0.29254 0.72127 0.91895 0.0
H3947 H 0.32767 0.72826 0.93637 0.0
H3948 H 0.3056 0.75415 0.96035 0.0
H3949 H 0.31564 0.74589 0.9423 0.0
H3950 H 0.28851 0.71671 0.94061 0.0
H3951 H 0.27845 0.72497 0.95874 0.0
C3952 C 0.30851 0.71659 0.90858 0.0
C3953 C 0.32143 0.71647 0.90807 0.0
C3954 C 0.3025 0.72104 0.91897 0.0
C3955 C 0.30926 0.72548 0.92909 0.0
C3956 C 0.32217 0.72515 0.92865 0.0
C3957 C 0.32817 0.72071 0.91829 0.0
C3958 C 0.30182 0.7459 0.95621 0.0
C3959 C 0.29124 0.7402 0.96107 0.0
C3960 C 0.30759 0.74117 0.94584 0.0
C3961 C 0.30294 0.73059 0.94003 0.0
C3962 C 0.29227 0.72495 0.94478 0.0
C3963 C 0.2865 0.72969 0.95517 0.0
H3964 H 0.33035 0.31664 0.91261 0.0
H3965 H 0.29295 0.32209 0.90042 0.0
H3966 H 0.32282 0.30555 0.93065 0.0
H3967 H 0.28542 0.31147 0.91865 0.0
H3968 H 0.27592 0.28173 0.94659 0.0
H3969 H 0.28404 0.2915 0.92809 0.0
H3970 H 0.31231 0.30938 0.94976 0.0
H3971 H 0.30422 0.29956 0.96825 0.0
C3972 C 0.32053 0.31544 0.91374 0.0
C3973 C 0.31227 0.32031 0.90505 0.0
C3974 C 0.3162 0.30919 0.92416 0.0
C3975 C 0.3035 0.30763 0.92616 0.0
C3976 C 0.29526 0.31237 0.91738 0.0
C3977 C 0.29958 0.31861 0.90698 0.0
C3978 C 0.28383 0.2878 0.94742 0.0
C3979 C 0.28938 0.28988 0.95893 0.0
C3980 C 0.28849 0.29341 0.93681 0.0
C3981 C 0.29882 0.30128 0.93741 0.0
C3982 C 0.30446 0.30325 0.9489 0.0
C3983 C 0.29981 0.29762 0.95952 0.0
H3984 H 0.61148 0.69953 0.20702 0.0
H3985 H 0.63017 0.73382 0.2147 0.0
H3986 H 0.59324 0.70688 0.21757 0.0
H3987 H 0.61183 0.74131 0.22487 0.0
H3988 H 0.58082 0.74686 0.25223 0.0
H3989 H 0.59927 0.73834 0.24308 0.0
H3990 H 0.57713 0.72194 0.21436 0.0
H3991 H 0.55865 0.73009 0.22375 0.0
C3992 C 0.61173 0.7086 0.21102 0.0
C3993 C 0.62229 0.71609 0.20997 0.0
C3994 C 0.60122 0.71287 0.21695 0.0
C3995 C 0.60103 0.72472 0.22203 0.0
C3996 C 0.61168 0.73211 0.22117 0.0
C3997 C 0.62216 0.72786 0.21521 0.0
C3998 C 0.57987 0.74131 0.24405 0.0
C3999 C 0.56823 0.73919 0.23872 0.0
C4000 C 0.59047 0.73653 0.23872 0.0
C4001 C 0.58971 0.72947 0.22795 0.0
C4002 C 0.57806 0.72723 0.22272 0.0
C4003 C 0.56746 0.73203 0.22802 0.0
H4004 H 0.33908 0.61155 0.21962 0.0
H4005 H 0.3042 0.62957 0.21477 0.0
H4006 H 0.32847 0.59326 0.22724 0.0
H4007 H 0.29357 0.61125 0.2224 0.0
H4008 H 0.27824 0.57195 0.22568 0.0
H4009 H 0.2888 0.58996 0.21726 0.0
H4010 H 0.31697 0.58664 0.24516 0.0
H4011 H 0.30668 0.5684 0.25328 0.0
C4012 C 0.32914 0.61164 0.22025 0.0
C4013 C 0.3225 0.62206 0.21663 0.0
C4014 C 0.32306 0.60115 0.22462 0.0
C4015 C 0.31016 0.6008 0.2255 0.0
C4016 C 0.30349 0.61115 0.22171 0.0
C4017 C 0.30959 0.62165 0.21733 0.0
C4018 C 0.28675 0.575 0.22994 0.0
C4019 C 0.29161 0.56872 0.24016 0.0
C4020 C 0.29273 0.58541 0.2252 0.0
C4021 C 0.30374 0.58975 0.23052 0.0
C4022 C 0.30859 0.58347 0.24074 0.0
C4023 C 0.3026 0.57309 0.24549 0.0
H4024 H 0.4128 0.33136 0.21209 0.0
H4025 H 0.40019 0.29406 0.2066 0.0
H4026 H 0.43074 0.3238 0.22326 0.0
H4027 H 0.41831 0.28651 0.2173 0.0
H4028 H 0.44596 0.27706 0.24724 0.0
H4029 H 0.42761 0.28526 0.23739 0.0
H4030 H 0.44978 0.3131 0.21947 0.0
H4031 H 0.46813 0.30492 0.22937 0.0
C4032 C 0.41382 0.32155 0.2133 0.0
C4033 C 0.40505 0.31333 0.2084 0.0
C4034 C 0.42418 0.31721 0.21959 0.0
C4035 C 0.42602 0.30453 0.22117 0.0
C4036 C 0.41716 0.29633 0.21638 0.0
C4037 C 0.40683 0.30067 0.2101 0.0
C4038 C 0.44694 0.2849 0.24115 0.0
C4039 C 0.45855 0.29029 0.23907 0.0
C4040 C 0.4364 0.2896 0.23549 0.0
C4041 C 0.43719 0.29983 0.22758 0.0
C4042 C 0.44878 0.30533 0.22564 0.0
C4043 C 0.45932 0.30063 0.23131 0.0
H4044 H 0.68968 0.41544 0.2214 0.0
H4045 H 0.7246 0.39897 0.21313 0.0
H4046 H 0.70031 0.43353 0.22931 0.0
H4047 H 0.73527 0.41715 0.22103 0.0
H4048 H 0.74899 0.45733 0.22522 0.0
H4049 H 0.73888 0.43906 0.21685 0.0
H4050 H 0.71305 0.43923 0.24685 0.0
H4051 H 0.72316 0.4574 0.25523 0.0
C4052 C 0.69964 0.41564 0.22134 0.0
C4053 C 0.70627 0.40568 0.21671 0.0
C4054 C 0.70574 0.42602 0.22588 0.0
C4055 C 0.71866 0.42677 0.2259 0.0
C4056 C 0.72531 0.41693 0.22105 0.0
C4057 C 0.71919 0.40651 0.21651 0.0
C4058 C 0.74124 0.45339 0.2301 0.0
C4059 C 0.73686 0.4589 0.24087 0.0
C4060 C 0.73543 0.44292 0.22529 0.0
C4061 C 0.72509 0.43772 0.23112 0.0
C4062 C 0.72083 0.44313 0.24198 0.0
C4063 C 0.72664 0.45357 0.24679 0.0
H4064 H 0.6296 0.31437 0.80576 0.0
H4065 H 0.61133 0.30827 0.84043 0.0
H4066 H 0.61141 0.30671 0.7949 0.0
H4067 H 0.59318 0.30063 0.8296 0.0
H4068 H 0.56859 0.27494 0.80714 0.0
H4069 H 0.58679 0.28296 0.8176 0.0
H4070 H 0.59005 0.31167 0.79028 0.0
H4071 H 0.57207 0.30336 0.77954 0.0
C4072 C 0.62166 0.31152 0.81106 0.0
C4073 C 0.62196 0.31188 0.82397 0.0
C4074 C 0.61123 0.30712 0.80484 0.0
C4075 C 0.60085 0.30299 0.81138 0.0
C4076 C 0.6011 0.30351 0.82428 0.0
C4077 C 0.61151 0.3079 0.83049 0.0
C4078 C 0.57326 0.28289 0.80328 0.0
C4079 C 0.56888 0.28849 0.79248 0.0
C4080 C 0.58362 0.28758 0.80936 0.0
C4081 C 0.58986 0.29799 0.80481 0.0
C4082 C 0.58552 0.30358 0.79398 0.0
C4083 C 0.57513 0.29889 0.78789 0.0
H4084 H 0.71883 0.61076 0.83852 0.0
H4085 H 0.71168 0.62809 0.80348 0.0
H4086 H 0.72667 0.5928 0.82806 0.0
H4087 H 0.71951 0.61004 0.79298 0.0
H4088 H 0.7236 0.57025 0.77899 0.0
H4089 H 0.71517 0.5883 0.789 0.0
H4090 H 0.7444 0.58713 0.81596 0.0
H4091 H 0.75284 0.56918 0.80596 0.0
C4092 C 0.719 0.61078 0.82858 0.0
C4093 C 0.7147 0.62094 0.82186 0.0
C4094 C 0.7235 0.60046 0.82257 0.0
C4095 C 0.72383 0.59999 0.80967 0.0
C4096 C 0.71929 0.61004 0.80293 0.0
C4097 C 0.71479 0.62039 0.80895 0.0
C4098 C 0.7283 0.57392 0.78698 0.0
C4099 C 0.73887 0.56819 0.79169 0.0
C4100 C 0.72346 0.58427 0.79273 0.0
C4101 C 0.72905 0.58913 0.80334 0.0
C4102 C 0.7397 0.58349 0.80795 0.0
C4103 C 0.74455 0.57318 0.80221 0.0
H4104 H 0.39779 0.72522 0.81733 0.0
H4105 H 0.41446 0.69032 0.80966 0.0
H4106 H 0.41608 0.73581 0.80952 0.0
H4107 H 0.43267 0.70087 0.80186 0.0
H4108 H 0.45695 0.72343 0.77606 0.0
H4109 H 0.43869 0.71334 0.78432 0.0
H4110 H 0.43789 0.73958 0.8139 0.0
H4111 H 0.45624 0.74968 0.80563 0.0
C4112 C 0.4054 0.7198 0.8141 0.0
C4113 C 0.4046 0.70691 0.81405 0.0
C4114 C 0.41588 0.72588 0.80961 0.0
C4115 C 0.42582 0.7192 0.80497 0.0
C4116 C 0.4251 0.70631 0.80512 0.0
C4117 C 0.41464 0.70025 0.8096 0.0
C4118 C 0.45296 0.727 0.78438 0.0
C4119 C 0.45813 0.73734 0.79021 0.0
C4120 C 0.44247 0.7212 0.78913 0.0
C4121 C 0.43685 0.72559 0.79983 0.0
C4122 C 0.44191 0.73603 0.80557 0.0
C4123 C 0.45242 0.74183 0.80082 0.0
H4124 H 0.3187 0.41377 0.82957 0.0
H4125 H 0.32171 0.4004 0.79244 0.0
H4126 H 0.30822 0.432 0.82194 0.0
H4127 H 0.31124 0.41857 0.78483 0.0
H4128 H 0.30519 0.45865 0.77433 0.0
H4129 H 0.31505 0.44029 0.78232 0.0
H4130 H 0.2893 0.43909 0.81239 0.0
H4131 H 0.27972 0.45776 0.80464 0.0
C4132 C 0.31701 0.41464 0.8198 0.0
C4133 C 0.32114 0.40563 0.81162 0.0
C4134 C 0.31099 0.4251 0.81542 0.0
C4135 C 0.30895 0.42682 0.80275 0.0
C4136 C 0.31288 0.41769 0.79461 0.0
C4137 C 0.31889 0.40725 0.79898 0.0
C4138 C 0.30169 0.45455 0.78271 0.0
C4139 C 0.29167 0.45973 0.78884 0.0
C4140 C 0.30726 0.44392 0.78722 0.0
C4141 C 0.30295 0.43815 0.79799 0.0
C4142 C 0.29293 0.44333 0.80414 0.0
C4143 C 0.28734 0.45397 0.79961 0.0
H4144 H 0.68869 0.61128 0.22003 0.0
H4145 H 0.72369 0.6291 0.21332 0.0
H4146 H 0.69924 0.59322 0.22779 0.0
H4147 H 0.73427 0.61095 0.22106 0.0
H4148 H 0.74845 0.57124 0.22498 0.0
H4149 H 0.7383 0.58933 0.21657 0.0
H4150 H 0.71142 0.58729 0.24559 0.0
H4151 H 0.72157 0.56931 0.25403 0.0
C4152 C 0.69864 0.61138 0.22027 0.0
C4153 C 0.70532 0.62171 0.21613 0.0
C4154 C 0.7047 0.60101 0.22473 0.0
C4155 C 0.71761 0.60065 0.22515 0.0
C4156 C 0.72432 0.61087 0.22077 0.0
C4157 C 0.71825 0.62127 0.21631 0.0
C4158 C 0.74045 0.57472 0.22964 0.0
C4159 C 0.73581 0.56875 0.24017 0.0
C4160 C 0.73462 0.58509 0.2248 0.0
C4161 C 0.72399 0.58974 0.23035 0.0
C4162 C 0.71944 0.58383 0.24094 0.0
C4163 C 0.72527 0.5735 0.24578 0.0
H4164 H 0.68988 0.41772 0.81451 0.0
H4165 H 0.72318 0.39669 0.81182 0.0
H4166 H 0.70073 0.43577 0.80662 0.0
H4167 H 0.73414 0.41487 0.80426 0.0
H4168 H 0.74506 0.44598 0.77735 0.0
H4169 H 0.73467 0.42787 0.78578 0.0
H4170 H 0.7167 0.45055 0.81255 0.0
H4171 H 0.72678 0.4687 0.80388 0.0
C4172 C 0.69952 0.41696 0.81224 0.0
C4173 C 0.70565 0.40575 0.81375 0.0
C4174 C 0.70578 0.42734 0.80785 0.0
C4175 C 0.71831 0.42677 0.80481 0.0
C4176 C 0.72446 0.41559 0.8064 0.0
C4177 C 0.71822 0.40521 0.81086 0.0
C4178 C 0.73884 0.4471 0.78499 0.0
C4179 C 0.73673 0.45879 0.78991 0.0
C4180 C 0.73299 0.43671 0.78991 0.0
C4181 C 0.72485 0.43776 0.79984 0.0
C4182 C 0.72282 0.44944 0.80482 0.0
C4183 C 0.7287 0.45982 0.79993 0.0
H4184 H 0.61272 0.70562 0.82951 0.0
H4185 H 0.62965 0.71159 0.79415 0.0
H4186 H 0.5945 0.71655 0.82248 0.0
H4187 H 0.6113 0.72216 0.787 0.0
H4188 H 0.5812 0.7506 0.78181 0.0
H4189 H 0.59973 0.74093 0.78983 0.0
H4190 H 0.57739 0.71355 0.80824 0.0
H4191 H 0.55886 0.72345 0.80056 0.0
C4192 C 0.61259 0.70932 0.82026 0.0
C4193 C 0.62266 0.7077 0.8124 0.0
C4194 C 0.60209 0.71548 0.81618 0.0
C4195 C 0.6014 0.72021 0.80415 0.0
C4196 C 0.61154 0.71874 0.79635 0.0
C4197 C 0.62202 0.71255 0.80041 0.0
C4198 C 0.58023 0.7426 0.78769 0.0
C4199 C 0.56852 0.7378 0.79051 0.0
C4200 C 0.59087 0.73698 0.79218 0.0
C4201 C 0.59007 0.72643 0.79966 0.0
C4202 C 0.57836 0.72172 0.80261 0.0
C4203 C 0.56773 0.72732 0.79808 0.0
H4204 H 0.32805 0.61657 0.81937 0.0
H4205 H 0.29063 0.62787 0.82542 0.0
H4206 H 0.32051 0.59831 0.80871 0.0
H4207 H 0.28312 0.60964 0.81481 0.0
H4208 H 0.27427 0.56914 0.80791 0.0
H4209 H 0.28205 0.58756 0.81798 0.0
H4210 H 0.30983 0.59166 0.79 0.0
H4211 H 0.302 0.57321 0.77987 0.0
C4212 C 0.31822 0.61524 0.81832 0.0
C4213 C 0.30995 0.62368 0.82333 0.0
C4214 C 0.3139 0.60476 0.81221 0.0
C4215 C 0.3012 0.60245 0.81096 0.0
C4216 C 0.29295 0.61099 0.81581 0.0
C4217 C 0.29726 0.62146 0.8219 0.0
C4218 C 0.28196 0.57402 0.80382 0.0
C4219 C 0.28746 0.56969 0.79303 0.0
C4220 C 0.28643 0.5846 0.80961 0.0
C4221 C 0.29654 0.59113 0.80479 0.0
C4222 C 0.30212 0.58677 0.79405 0.0
C4223 C 0.29763 0.57619 0.78824 0.0
H4224 H 0.39739 0.31121 0.80422 0.0
H4225 H 0.41926 0.31579 0.83713 0.0
H4226 H 0.41541 0.30371 0.7934 0.0
H4227 H 0.43714 0.30792 0.82647 0.0
H4228 H 0.46967 0.30449 0.80061 0.0
H4229 H 0.45169 0.31318 0.81045 0.0
H4230 H 0.42857 0.28576 0.79313 0.0
H4231 H 0.4465 0.27734 0.78293 0.0
C4232 C 0.40605 0.31068 0.80913 0.0
C4233 C 0.40685 0.31409 0.82156 0.0
C4234 C 0.41636 0.30625 0.80297 0.0
C4235 C 0.42774 0.30516 0.80906 0.0
C4236 C 0.42857 0.30873 0.82144 0.0
C4237 C 0.41826 0.31312 0.82761 0.0
C4238 C 0.46074 0.3004 0.79877 0.0
C4239 C 0.45956 0.2902 0.79096 0.0
C4240 C 0.45043 0.3053 0.80453 0.0
C4241 C 0.43867 0.30016 0.80263 0.0
C4242 C 0.43746 0.29004 0.79472 0.0
C4243 C 0.44778 0.28511 0.78898 0.0
H4244 H 0.31669 0.4137 0.19848 0.0
H4245 H 0.32229 0.40134 0.23583 0.0
H4246 H 0.30564 0.43151 0.20601 0.0
H4247 H 0.3117 0.41934 0.24336 0.0
H4248 H 0.2818 0.44663 0.25261 0.0
H4249 H 0.29161 0.4284 0.24449 0.0
H4250 H 0.30958 0.4506 0.21678 0.0
H4251 H 0.29975 0.46884 0.2249 0.0
C4252 C 0.31553 0.41474 0.20829 0.0
C4253 C 0.32042 0.40608 0.21653 0.0
C4254 C 0.30931 0.42504 0.21262 0.0
C4255 C 0.30779 0.42691 0.22531 0.0
C4256 C 0.31257 0.41816 0.23353 0.0
C4257 C 0.31879 0.40789 0.22921 0.0
C4258 C 0.2879 0.44764 0.24483 0.0
C4259 C 0.29001 0.45923 0.23945 0.0
C4260 C 0.29353 0.43718 0.24016 0.0
C4261 C 0.30144 0.43801 0.22999 0.0
C4262 C 0.30342 0.44957 0.22451 0.0
C4263 C 0.29778 0.46005 0.22917 0.0
H4264 H 0.62697 0.29203 0.20604 0.0
H4265 H 0.6158 0.32945 0.21187 0.0
H4266 H 0.60867 0.28466 0.21668 0.0
H4267 H 0.59771 0.32208 0.22297 0.0
H4268 H 0.55974 0.30387 0.22908 0.0
H4269 H 0.57826 0.31173 0.2191 0.0
H4270 H 0.59958 0.28343 0.23681 0.0
H4271 H 0.58105 0.27555 0.24675 0.0
C4272 C 0.62062 0.2987 0.2096 0.0
C4273 C 0.62285 0.31134 0.20803 0.0
C4274 C 0.61018 0.29447 0.21585 0.0
C4275 C 0.60169 0.30277 0.22071 0.0
C4276 C 0.60398 0.31542 0.21924 0.0
C4277 C 0.61443 0.31966 0.21299 0.0
C4278 C 0.5684 0.29941 0.23095 0.0
C4279 C 0.56889 0.28905 0.23869 0.0
C4280 C 0.57904 0.30392 0.22523 0.0
C4281 C 0.59043 0.2982 0.22711 0.0
C4282 C 0.59093 0.28793 0.23497 0.0
C4283 C 0.5803 0.28341 0.24068 0.0
H4284 H 0.39651 0.73612 0.21173 0.0
H4285 H 0.41355 0.70094 0.20649 0.0
H4286 H 0.41504 0.74362 0.2221 0.0
H4287 H 0.43195 0.70832 0.21718 0.0
H4288 H 0.46751 0.73089 0.22326 0.0
H4289 H 0.44882 0.72297 0.21354 0.0
H4290 H 0.42693 0.74079 0.24108 0.0
H4291 H 0.44562 0.74902 0.2506 0.0
C4292 C 0.40421 0.72998 0.21281 0.0
C4293 C 0.40357 0.71795 0.20824 0.0
C4294 C 0.41478 0.73423 0.21887 0.0
C4295 C 0.42498 0.72657 0.22046 0.0
C4296 C 0.4243 0.71449 0.21599 0.0
C4297 C 0.41371 0.71022 0.20998 0.0
C4298 C 0.4587 0.73319 0.2272 0.0
C4299 C 0.45806 0.74063 0.23768 0.0
C4300 C 0.448 0.72853 0.22171 0.0
C4301 C 0.43638 0.73124 0.22653 0.0
C4302 C 0.43573 0.73862 0.23706 0.0
C4303 C 0.44645 0.74324 0.24259 0.0
loop_
_geom_bond_atom_site_label_1
_geom_bond_atom_site_label_2
_geom_bond_distance
_geom_bond_site_symmetry_2
_ccdc_geom_bond_type
C0 C1 1.264 . S
C0 C5 1.479 . S
C0 C10 1.465 . S
C1 C0 1.264 . S
C1 C3 1.339 . S
C1 H28 0.931 . S
C2 C3 1.395 . S
C2 C4 1.320 . S
C3 C1 1.339 . S
C3 C2 1.395 . S
C3 H29 0.929 . S
C4 C2 1.320 . S
C4 C5 1.405 . S
C4 H30 0.930 . S
C5 C0 1.479 . S
C5 C4 1.405 . S
C5 H31 0.931 . S
U6 O7 2.454 . S
U6 O8 2.458 . S
U6 C9 2.984 . S
U6 C10 2.847 . S
U6 C23 2.882 . S
U6 O24 2.441 . S
U6 O25 2.420 . S
U6 O26 2.455 . S
U6 O27 2.449 . S
O7 U6 2.454 . S
O7 C9 1.353 . S
O8 U6 2.458 . S
O8 C9 1.286 . S
C9 U6 2.984 . S
C9 O7 1.353 . S
C9 O8 1.286 . S
C9 C11 1.363 . S
C10 C0 1.465 . S
C10 U6 2.847 . S
C10 O24 1.249 . S
C10 O25 1.202 . S
C11 C9 1.363 . S
C11 C13 1.408 . S
C11 C16 1.342 . S
C12 C13 1.310 . S
C12 C15 1.461 . S
C12 H32 0.932 . S
C13 C11 1.408 . S
C13 C12 1.310 . S
C13 H33 0.930 . S
C14 C15 1.474 . S
C14 C16 1.285 . S
C14 H34 0.929 . S
C15 C12 1.461 . S
C15 C14 1.474 . S
C16 C11 1.342 . S
C16 C14 1.285 . S
C16 H35 0.930 . S
C17 C20 1.424 . S
C17 C22 1.245 . S
C17 C23 1.428 . S
C18 C21 1.260 . S
C18 C22 1.477 . S
C18 H36 0.932 . S
C19 C20 1.384 . S
C19 C21 1.479 . S
C19 H37 0.929 . S
C20 C17 1.424 . S
C20 C19 1.384 . S
C20 H38 0.928 . S
C21 C18 1.260 . S
C21 C19 1.479 . S
C22 C17 1.245 . S
C22 C18 1.477 . S
C22 H39 0.932 . S
C23 U6 2.882 . S
C23 C17 1.428 . S
C23 O26 1.301 . S
C23 O27 1.282 . S
O24 U6 2.441 . S
O24 C10 1.249 . S
O25 U6 2.420 . S
O25 C10 1.202 . S
O26 U6 2.455 . S
O26 C23 1.301 . S
O27 U6 2.449 . S
O27 C23 1.282 . S
H28 C1 0.931 . S
H29 C3 0.929 . S
H30 C4 0.930 . S
H31 C5 0.931 . S
H32 C12 0.932 . S
H33 C13 0.930 . S
H34 C14 0.929 . S
H35 C16 0.930 . S
H36 C18 0.932 . S
H37 C19 0.929 . S
H38 C20 0.928 . S
H39 C22 0.932 . S
C40 C41 1.264 . S
C40 C45 1.479 . S
C40 C50 1.465 . S
C41 C40 1.264 . S
C41 C43 1.339 . S
C41 H68 0.931 . S
C42 C43 1.395 . S
C42 C44 1.320 . S
C43 C41 1.339 . S
C43 C42 1.395 . S
C43 H69 0.929 . S
C44 C42 1.320 . S
C44 C45 1.405 . S
C44 H70 0.930 . S
C45 C40 1.479 . S
C45 C44 1.405 . S
C45 H71 0.931 . S
U46 O47 2.454 . S
U46 O48 2.458 . S
U46 C49 2.984 . S
U46 C50 2.847 . S
U46 C63 2.882 . S
U46 O64 2.441 . S
U46 O65 2.420 . S
U46 O66 2.455 . S
U46 O67 2.449 . S
O47 U46 2.454 . S
O47 C49 1.353 . S
O48 U46 2.458 . S
O48 C49 1.286 . S
C49 U46 2.984 . S
C49 O47 1.353 . S
C49 O48 1.286 . S
C49 C51 1.363 . S
C50 C40 1.465 . S
C50 U46 2.847 . S
C50 O64 1.249 . S
C50 O65 1.202 . S
C51 C49 1.363 . S
C51 C53 1.408 . S
C51 C56 1.342 . S
C52 C53 1.310 . S
C52 C55 1.461 . S
C52 H72 0.932 . S
C53 C51 1.408 . S
C53 C52 1.310 . S
C53 H73 0.930 . S
C54 C55 1.474 . S
C54 C56 1.285 . S
C54 H74 0.929 . S
C55 C52 1.461 . S
C55 C54 1.474 . S
C56 C51 1.342 . S
C56 C54 1.285 . S
C56 H75 0.930 . S
C57 C60 1.424 . S
C57 C62 1.245 . S
C57 C63 1.428 . S
C58 C61 1.260 . S
C58 C62 1.477 . S
C58 H76 0.932 . S
C59 C60 1.384 . S
C59 C61 1.479 . S
C59 H77 0.929 . S
C60 C57 1.424 . S
C60 C59 1.384 . S
C60 H78 0.928 . S
C61 C58 1.260 . S
C61 C59 1.479 . S
C62 C57 1.245 . S
C62 C58 1.477 . S
C62 H79 0.932 . S
C63 U46 2.882 . S
C63 C57 1.428 . S
C63 O66 1.301 . S
C63 O67 1.282 . S
O64 U46 2.441 . S
O64 C50 1.249 . S
O65 U46 2.420 . S
O65 C50 1.202 . S
O66 U46 2.455 . S
O66 C63 1.301 . S
O67 U46 2.449 . S
O67 C63 1.282 . S
H68 C41 0.931 . S
H69 C43 0.929 . S
H70 C44 0.930 . S
H71 C45 0.931 . S
H72 C52 0.932 . S
H73 C53 0.930 . S
H74 C54 0.929 . S
H75 C56 0.930 . S
H76 C58 0.932 . S
H77 C59 0.929 . S
H78 C60 0.928 . S
H79 C62 0.932 . S
C80 C81 1.264 . S
C80 C85 1.479 . S
C80 C90 1.465 . S
C81 C80 1.264 . S
C81 C83 1.339 . S
C81 H108 0.931 . S
C82 C83 1.395 . S
C82 C84 1.320 . S
C83 C81 1.339 . S
C83 C82 1.395 . S
C83 H109 0.929 . S
C84 C82 1.320 . S
C84 C85 1.405 . S
C84 H110 0.930 . S
C85 C80 1.479 . S
C85 C84 1.405 . S
C85 H111 0.931 . S
U86 O87 2.454 . S
U86 O88 2.458 . S
U86 C89 2.984 . S
U86 C90 2.847 . S
U86 C103 2.882 . S
U86 O104 2.441 . S
U86 O105 2.420 . S
U86 O106 2.455 . S
U86 O107 2.449 . S
O87 U86 2.454 . S
O87 C89 1.353 . S
O88 U86 2.458 . S
O88 C89 1.286 . S
C89 U86 2.984 . S
C89 O87 1.353 . S
C89 O88 1.286 . S
C89 C91 1.363 . S
C90 C80 1.465 . S
C90 U86 2.847 . S
C90 O104 1.249 . S
C90 O105 1.202 . S
C91 C89 1.363 . S
C91 C93 1.408 . S
C91 C96 1.342 . S
C92 C93 1.310 . S
C92 C95 1.461 . S
C92 H112 0.932 . S
C93 C91 1.408 . S
C93 C92 1.310 . S
C93 H113 0.930 . S
C94 C95 1.474 . S
C94 C96 1.285 . S
C94 H114 0.929 . S
C95 C92 1.461 . S
C95 C94 1.474 . S
C96 C91 1.342 . S
C96 C94 1.285 . S
C96 H115 0.930 . S
C97 C100 1.424 . S
C97 C102 1.245 . S
C97 C103 1.428 . S
C98 C101 1.260 . S
C98 C102 1.477 . S
C98 H116 0.932 . S
C99 C100 1.384 . S
C99 C101 1.479 . S
C99 H117 0.929 . S
C100 C97 1.424 . S
C100 C99 1.384 . S
C100 H118 0.928 . S
C101 C98 1.260 . S
C101 C99 1.479 . S
C102 C97 1.245 . S
C102 C98 1.477 . S
C102 H119 0.932 . S
C103 U86 2.882 . S
C103 C97 1.428 . S
C103 O106 1.301 . S
C103 O107 1.282 . S
O104 U86 2.441 . S
O104 C90 1.249 . S
O105 U86 2.420 . S
O105 C90 1.202 . S
O106 U86 2.455 . S
O106 C103 1.301 . S
O107 U86 2.449 . S
O107 C103 1.282 . S
H108 C81 0.931 . S
H109 C83 0.929 . S
H110 C84 0.930 . S
H111 C85 0.931 . S
H112 C92 0.932 . S
H113 C93 0.930 . S
H114 C94 0.929 . S
H115 C96 0.930 . S
H116 C98 0.932 . S
H117 C99 0.929 . S
H118 C100 0.928 . S
H119 C102 0.932 . S
C120 C121 1.264 . S
C120 C125 1.479 . S
C120 C130 1.465 . S
C121 C120 1.264 . S
C121 C123 1.339 . S
C121 H148 0.931 . S
C122 C123 1.395 . S
C122 C124 1.320 . S
C123 C121 1.339 . S
C123 C122 1.395 . S
C123 H149 0.929 . S
C124 C122 1.320 . S
C124 C125 1.405 . S
C124 H150 0.930 . S
C125 C120 1.479 . S
C125 C124 1.405 . S
C125 H151 0.931 . S
U126 O127 2.454 . S
U126 O128 2.458 . S
U126 C129 2.984 . S
U126 C130 2.847 . S
U126 C143 2.882 . S
U126 O144 2.441 . S
U126 O145 2.420 . S
U126 O146 2.455 . S
U126 O147 2.449 . S
O127 U126 2.454 . S
O127 C129 1.353 . S
O128 U126 2.458 . S
O128 C129 1.286 . S
C129 U126 2.984 . S
C129 O127 1.353 . S
C129 O128 1.286 . S
C129 C131 1.363 . S
C130 C120 1.465 . S
C130 U126 2.847 . S
C130 O144 1.249 . S
C130 O145 1.202 . S
C131 C129 1.363 . S
C131 C133 1.408 . S
C131 C136 1.342 . S
C132 C133 1.310 . S
C132 C135 1.461 . S
C132 H152 0.932 . S
C133 C131 1.408 . S
C133 C132 1.310 . S
C133 H153 0.930 . S
C134 C135 1.474 . S
C134 C136 1.285 . S
C134 H154 0.929 . S
C135 C132 1.461 . S
C135 C134 1.474 . S
C136 C131 1.342 . S
C136 C134 1.285 . S
C136 H155 0.930 . S
C137 C140 1.424 . S
C137 C142 1.245 . S
C137 C143 1.428 . S
C138 C141 1.260 . S
C138 C142 1.477 . S
C138 H156 0.932 . S
C139 C140 1.384 . S
C139 C141 1.479 . S
C139 H157 0.929 . S
C140 C137 1.424 . S
C140 C139 1.384 . S
C140 H158 0.928 . S
C141 C138 1.260 . S
C141 C139 1.479 . S
C142 C137 1.245 . S
C142 C138 1.477 . S
C142 H159 0.932 . S
C143 U126 2.882 . S
C143 C137 1.428 . S
C143 O146 1.301 . S
C143 O147 1.282 . S
O144 U126 2.441 . S
O144 C130 1.249 . S
O145 U126 2.420 . S
O145 C130 1.202 . S
O146 U126 2.455 . S
O146 C143 1.301 . S
O147 U126 2.449 . S
O147 C143 1.282 . S
H148 C121 0.931 . S
H149 C123 0.929 . S
H150 C124 0.930 . S
H151 C125 0.931 . S
H152 C132 0.932 . S
H153 C133 0.930 . S
H154 C134 0.929 . S
H155 C136 0.930 . S
H156 C138 0.932 . S
H157 C139 0.929 . S
H158 C140 0.928 . S
H159 C142 0.932 . S
C160 C161 1.264 . S
C160 C165 1.479 . S
C160 C170 1.465 . S
C161 C160 1.264 . S
C161 C163 1.339 . S
C161 H188 0.931 . S
C162 C163 1.395 . S
C162 C164 1.320 . S
C163 C161 1.339 . S
C163 C162 1.395 . S
C163 H189 0.929 . S
C164 C162 1.320 . S
C164 C165 1.405 . S
C164 H190 0.930 . S
C165 C160 1.479 . S
C165 C164 1.405 . S
C165 H191 0.931 . S
U166 O167 2.454 . S
U166 O168 2.458 . S
U166 C169 2.984 . S
U166 C170 2.847 . S
U166 C183 2.882 . S
U166 O184 2.441 . S
U166 O185 2.420 . S
U166 O186 2.455 . S
U166 O187 2.449 . S
O167 U166 2.454 . S
O167 C169 1.353 . S
O168 U166 2.458 . S
O168 C169 1.286 . S
C169 U166 2.984 . S
C169 O167 1.353 . S
C169 O168 1.286 . S
C169 C171 1.363 . S
C170 C160 1.465 . S
C170 U166 2.847 . S
C170 O184 1.249 . S
C170 O185 1.202 . S
C171 C169 1.363 . S
C171 C173 1.408 . S
C171 C176 1.342 . S
C172 C173 1.310 . S
C172 C175 1.461 . S
C172 H192 0.932 . S
C173 C171 1.408 . S
C173 C172 1.310 . S
C173 H193 0.930 . S
C174 C175 1.474 . S
C174 C176 1.285 . S
C174 H194 0.929 . S
C175 C172 1.461 . S
C175 C174 1.474 . S
C176 C171 1.342 . S
C176 C174 1.285 . S
C176 H195 0.930 . S
C177 C180 1.424 . S
C177 C182 1.245 . S
C177 C183 1.428 . S
C178 C181 1.260 . S
C178 C182 1.477 . S
C178 H196 0.932 . S
C179 C180 1.384 . S
C179 C181 1.479 . S
C179 H197 0.929 . S
C180 C177 1.424 . S
C180 C179 1.384 . S
C180 H198 0.928 . S
C181 C178 1.260 . S
C181 C179 1.479 . S
C182 C177 1.245 . S
C182 C178 1.477 . S
C182 H199 0.932 . S
C183 U166 2.882 . S
C183 C177 1.428 . S
C183 O186 1.301 . S
C183 O187 1.282 . S
O184 U166 2.441 . S
O184 C170 1.249 . S
O185 U166 2.420 . S
O185 C170 1.202 . S
O186 U166 2.455 . S
O186 C183 1.301 . S
O187 U166 2.449 . S
O187 C183 1.282 . S
H188 C161 0.931 . S
H189 C163 0.929 . S
H190 C164 0.930 . S
H191 C165 0.931 . S
H192 C172 0.932 . S
H193 C173 0.930 . S
H194 C174 0.929 . S
H195 C176 0.930 . S
H196 C178 0.932 . S
H197 C179 0.929 . S
H198 C180 0.928 . S
H199 C182 0.932 . S
C200 C201 1.264 . S
C200 C205 1.479 . S
C200 C210 1.465 . S
C201 C200 1.264 . S
C201 C203 1.339 . S
C201 H228 0.931 . S
C202 C203 1.395 . S
C202 C204 1.320 . S
C203 C201 1.339 . S
C203 C202 1.395 . S
C203 H229 0.929 . S
C204 C202 1.320 . S
C204 C205 1.405 . S
C204 H230 0.930 . S
C205 C200 1.479 . S
C205 C204 1.405 . S
C205 H231 0.931 . S
U206 O207 2.454 . S
U206 O208 2.458 . S
U206 C209 2.984 . S
U206 C210 2.847 . S
U206 C223 2.882 . S
U206 O224 2.441 . S
U206 O225 2.420 . S
U206 O226 2.455 . S
U206 O227 2.449 . S
O207 U206 2.454 . S
O207 C209 1.353 . S
O208 U206 2.458 . S
O208 C209 1.286 . S
C209 U206 2.984 . S
C209 O207 1.353 . S
C209 O208 1.286 . S
C209 C211 1.363 . S
C210 C200 1.465 . S
C210 U206 2.847 . S
C210 O224 1.249 . S
C210 O225 1.202 . S
C211 C209 1.363 . S
C211 C213 1.408 . S
C211 C216 1.342 . S
C212 C213 1.310 . S
C212 C215 1.461 . S
C212 H232 0.932 . S
C213 C211 1.408 . S
C213 C212 1.310 . S
C213 H233 0.930 . S
C214 C215 1.474 . S
C214 C216 1.285 . S
C214 H234 0.929 . S
C215 C212 1.461 . S
C215 C214 1.474 . S
C216 C211 1.342 . S
C216 C214 1.285 . S
C216 H235 0.930 . S
C217 C220 1.424 . S
C217 C222 1.245 . S
C217 C223 1.428 . S
C218 C221 1.260 . S
C218 C222 1.477 . S
C218 H236 0.932 . S
C219 C220 1.384 . S
C219 C221 1.479 . S
C219 H237 0.929 . S
C220 C217 1.424 . S
C220 C219 1.384 . S
C220 H238 0.928 . S
C221 C218 1.260 . S
C221 C219 1.479 . S
C222 C217 1.245 . S
C222 C218 1.477 . S
C222 H239 0.932 . S
C223 U206 2.882 . S
C223 C217 1.428 . S
C223 O226 1.301 . S
C223 O227 1.282 . S
O224 U206 2.441 . S
O224 C210 1.249 . S
O225 U206 2.420 . S
O225 C210 1.202 . S
O226 U206 2.455 . S
O226 C223 1.301 . S
O227 U206 2.449 . S
O227 C223 1.282 . S
H228 C201 0.931 . S
H229 C203 0.929 . S
H230 C204 0.930 . S
H231 C205 0.931 . S
H232 C212 0.932 . S
H233 C213 0.930 . S
H234 C214 0.929 . S
H235 C216 0.930 . S
H236 C218 0.932 . S
H237 C219 0.929 . S
H238 C220 0.928 . S
H239 C222 0.932 . S
C240 C241 1.264 . S
C240 C245 1.479 . S
C240 C250 1.465 . S
C241 C240 1.264 . S
C241 C243 1.339 . S
C241 H268 0.931 . S
C242 C243 1.395 . S
C242 C244 1.320 . S
C243 C241 1.339 . S
C243 C242 1.395 . S
C243 H269 0.929 . S
C244 C242 1.320 . S
C244 C245 1.405 . S
C244 H270 0.930 . S
C245 C240 1.479 . S
C245 C244 1.405 . S
C245 H271 0.931 . S
U246 O247 2.454 . S
U246 O248 2.458 . S
U246 C249 2.984 . S
U246 C250 2.847 . S
U246 C263 2.882 . S
U246 O264 2.441 . S
U246 O265 2.420 . S
U246 O266 2.455 . S
U246 O267 2.449 . S
O247 U246 2.454 . S
O247 C249 1.353 . S
O248 U246 2.458 . S
O248 C249 1.286 . S
C249 U246 2.984 . S
C249 O247 1.353 . S
C249 O248 1.286 . S
C249 C251 1.363 . S
C250 C240 1.465 . S
C250 U246 2.847 . S
C250 O264 1.249 . S
C250 O265 1.202 . S
C251 C249 1.363 . S
C251 C253 1.408 . S
C251 C256 1.342 . S
C252 C253 1.310 . S
C252 C255 1.461 . S
C252 H272 0.932 . S
C253 C251 1.408 . S
C253 C252 1.310 . S
C253 H273 0.930 . S
C254 C255 1.474 . S
C254 C256 1.285 . S
C254 H274 0.929 . S
C255 C252 1.461 . S
C255 C254 1.474 . S
C256 C251 1.342 . S
C256 C254 1.285 . S
C256 H275 0.930 . S
C257 C260 1.424 . S
C257 C262 1.245 . S
C257 C263 1.428 . S
C258 C261 1.260 . S
C258 C262 1.477 . S
C258 H276 0.932 . S
C259 C260 1.384 . S
C259 C261 1.479 . S
C259 H277 0.929 . S
C260 C257 1.424 . S
C260 C259 1.384 . S
C260 H278 0.928 . S
C261 C258 1.260 . S
C261 C259 1.479 . S
C262 C257 1.245 . S
C262 C258 1.477 . S
C262 H279 0.932 . S
C263 U246 2.882 . S
C263 C257 1.428 . S
C263 O266 1.301 . S
C263 O267 1.282 . S
O264 U246 2.441 . S
O264 C250 1.249 . S
O265 U246 2.420 . S
O265 C250 1.202 . S
O266 U246 2.455 . S
O266 C263 1.301 . S
O267 U246 2.449 . S
O267 C263 1.282 . S
H268 C241 0.931 . S
H269 C243 0.929 . S
H270 C244 0.930 . S
H271 C245 0.931 . S
H272 C252 0.932 . S
H273 C253 0.930 . S
H274 C254 0.929 . S
H275 C256 0.930 . S
H276 C258 0.932 . S
H277 C259 0.929 . S
H278 C260 0.928 . S
H279 C262 0.932 . S
C280 C281 1.264 . S
C280 C285 1.479 . S
C280 C290 1.465 . S
C281 C280 1.264 . S
C281 C283 1.339 . S
C281 H308 0.931 . S
C282 C283 1.395 . S
C282 C284 1.320 . S
C283 C281 1.339 . S
C283 C282 1.395 . S
C283 H309 0.929 . S
C284 C282 1.320 . S
C284 C285 1.405 . S
C284 H310 0.930 . S
C285 C280 1.479 . S
C285 C284 1.405 . S
C285 H311 0.931 . S
U286 O287 2.454 . S
U286 O288 2.458 . S
U286 C289 2.984 . S
U286 C290 2.847 . S
U286 C303 2.882 . S
U286 O304 2.441 . S
U286 O305 2.420 . S
U286 O306 2.455 . S
U286 O307 2.449 . S
O287 U286 2.454 . S
O287 C289 1.353 . S
O288 U286 2.458 . S
O288 C289 1.286 . S
C289 U286 2.984 . S
C289 O287 1.353 . S
C289 O288 1.286 . S
C289 C291 1.363 . S
C290 C280 1.465 . S
C290 U286 2.847 . S
C290 O304 1.249 . S
C290 O305 1.202 . S
C291 C289 1.363 . S
C291 C293 1.408 . S
C291 C296 1.342 . S
C292 C293 1.310 . S
C292 C295 1.461 . S
C292 H312 0.932 . S
C293 C291 1.408 . S
C293 C292 1.310 . S
C293 H313 0.930 . S
C294 C295 1.474 . S
C294 C296 1.285 . S
C294 H314 0.929 . S
C295 C292 1.461 . S
C295 C294 1.474 . S
C296 C291 1.342 . S
C296 C294 1.285 . S
C296 H315 0.930 . S
C297 C300 1.424 . S
C297 C302 1.245 . S
C297 C303 1.428 . S
C298 C301 1.260 . S
C298 C302 1.477 . S
C298 H316 0.932 . S
C299 C300 1.384 . S
C299 C301 1.479 . S
C299 H317 0.929 . S
C300 C297 1.424 . S
C300 C299 1.384 . S
C300 H318 0.928 . S
C301 C298 1.260 . S
C301 C299 1.479 . S
C302 C297 1.245 . S
C302 C298 1.477 . S
C302 H319 0.932 . S
C303 U286 2.882 . S
C303 C297 1.428 . S
C303 O306 1.301 . S
C303 O307 1.282 . S
O304 U286 2.441 . S
O304 C290 1.249 . S
O305 U286 2.420 . S
O305 C290 1.202 . S
O306 U286 2.455 . S
O306 C303 1.301 . S
O307 U286 2.449 . S
O307 C303 1.282 . S
H308 C281 0.931 . S
H309 C283 0.929 . S
H310 C284 0.930 . S
H311 C285 0.931 . S
H312 C292 0.932 . S
H313 C293 0.930 . S
H314 C294 0.929 . S
H315 C296 0.930 . S
H316 C298 0.932 . S
H317 C299 0.929 . S
H318 C300 0.928 . S
H319 C302 0.932 . S
C320 C321 1.264 . S
C320 C325 1.479 . S
C320 C330 1.465 . S
C321 C320 1.264 . S
C321 C323 1.339 . S
C321 H348 0.931 . S
C322 C323 1.395 . S
C322 C324 1.320 . S
C323 C321 1.339 . S
C323 C322 1.395 . S
C323 H349 0.929 . S
C324 C322 1.320 . S
C324 C325 1.405 . S
C324 H350 0.930 . S
C325 C320 1.479 . S
C325 C324 1.405 . S
C325 H351 0.931 . S
U326 O327 2.454 . S
U326 O328 2.458 . S
U326 C329 2.984 . S
U326 C330 2.847 . S
U326 C343 2.882 . S
U326 O344 2.441 . S
U326 O345 2.420 . S
U326 O346 2.455 . S
U326 O347 2.449 . S
O327 U326 2.454 . S
O327 C329 1.353 . S
O328 U326 2.458 . S
O328 C329 1.286 . S
C329 U326 2.984 . S
C329 O327 1.353 . S
C329 O328 1.286 . S
C329 C331 1.363 . S
C330 C320 1.465 . S
C330 U326 2.847 . S
C330 O344 1.249 . S
C330 O345 1.202 . S
C331 C329 1.363 . S
C331 C333 1.408 . S
C331 C336 1.342 . S
C332 C333 1.310 . S
C332 C335 1.461 . S
C332 H352 0.932 . S
C333 C331 1.408 . S
C333 C332 1.310 . S
C333 H353 0.930 . S
C334 C335 1.474 . S
C334 C336 1.285 . S
C334 H354 0.929 . S
C335 C332 1.461 . S
C335 C334 1.474 . S
C336 C331 1.342 . S
C336 C334 1.285 . S
C336 H355 0.930 . S
C337 C340 1.424 . S
C337 C342 1.245 . S
C337 C343 1.428 . S
C338 C341 1.260 . S
C338 C342 1.477 . S
C338 H356 0.932 . S
C339 C340 1.384 . S
C339 C341 1.479 . S
C339 H357 0.929 . S
C340 C337 1.424 . S
C340 C339 1.384 . S
C340 H358 0.928 . S
C341 C338 1.260 . S
C341 C339 1.479 . S
C342 C337 1.245 . S
C342 C338 1.477 . S
C342 H359 0.932 . S
C343 U326 2.882 . S
C343 C337 1.428 . S
C343 O346 1.301 . S
C343 O347 1.282 . S
O344 U326 2.441 . S
O344 C330 1.249 . S
O345 U326 2.420 . S
O345 C330 1.202 . S
O346 U326 2.455 . S
O346 C343 1.301 . S
O347 U326 2.449 . S
O347 C343 1.282 . S
H348 C321 0.931 . S
H349 C323 0.929 . S
H350 C324 0.930 . S
H351 C325 0.931 . S
H352 C332 0.932 . S
H353 C333 0.930 . S
H354 C334 0.929 . S
H355 C336 0.930 . S
H356 C338 0.932 . S
H357 C339 0.929 . S
H358 C340 0.928 . S
H359 C342 0.932 . S
C360 C361 1.264 . S
C360 C365 1.479 . S
C360 C370 1.465 . S
C361 C360 1.264 . S
C361 C363 1.339 . S
C361 H388 0.931 . S
C362 C363 1.395 . S
C362 C364 1.320 . S
C363 C361 1.339 . S
C363 C362 1.395 . S
C363 H389 0.929 . S
C364 C362 1.320 . S
C364 C365 1.405 . S
C364 H390 0.930 . S
C365 C360 1.479 . S
C365 C364 1.405 . S
C365 H391 0.931 . S
U366 O367 2.454 . S
U366 O368 2.458 . S
U366 C369 2.984 . S
U366 C370 2.847 . S
U366 C383 2.882 . S
U366 O384 2.441 . S
U366 O385 2.420 . S
U366 O386 2.455 . S
U366 O387 2.449 . S
O367 U366 2.454 . S
O367 C369 1.353 . S
O368 U366 2.458 . S
O368 C369 1.286 . S
C369 U366 2.984 . S
C369 O367 1.353 . S
C369 O368 1.286 . S
C369 C371 1.363 . S
C370 C360 1.465 . S
C370 U366 2.847 . S
C370 O384 1.249 . S
C370 O385 1.202 . S
C371 C369 1.363 . S
C371 C373 1.408 . S
C371 C376 1.342 . S
C372 C373 1.310 . S
C372 C375 1.461 . S
C372 H392 0.932 . S
C373 C371 1.408 . S
C373 C372 1.310 . S
C373 H393 0.930 . S
C374 C375 1.474 . S
C374 C376 1.285 . S
C374 H394 0.929 . S
C375 C372 1.461 . S
C375 C374 1.474 . S
C376 C371 1.342 . S
C376 C374 1.285 . S
C376 H395 0.930 . S
C377 C380 1.424 . S
C377 C382 1.245 . S
C377 C383 1.428 . S
C378 C381 1.260 . S
C378 C382 1.477 . S
C378 H396 0.932 . S
C379 C380 1.384 . S
C379 C381 1.479 . S
C379 H397 0.929 . S
C380 C377 1.424 . S
C380 C379 1.384 . S
C380 H398 0.928 . S
C381 C378 1.260 . S
C381 C379 1.479 . S
C382 C377 1.245 . S
C382 C378 1.477 . S
C382 H399 0.932 . S
C383 U366 2.882 . S
C383 C377 1.428 . S
C383 O386 1.301 . S
C383 O387 1.282 . S
O384 U366 2.441 . S
O384 C370 1.249 . S
O385 U366 2.420 . S
O385 C370 1.202 . S
O386 U366 2.455 . S
O386 C383 1.301 . S
O387 U366 2.449 . S
O387 C383 1.282 . S
H388 C361 0.931 . S
H389 C363 0.929 . S
H390 C364 0.930 . S
H391 C365 0.931 . S
H392 C372 0.932 . S
H393 C373 0.930 . S
H394 C374 0.929 . S
H395 C376 0.930 . S
H396 C378 0.932 . S
H397 C379 0.929 . S
H398 C380 0.928 . S
H399 C382 0.932 . S
C400 C401 1.264 . S
C400 C405 1.479 . S
C400 C410 1.465 . S
C401 C400 1.264 . S
C401 C403 1.339 . S
C401 H428 0.931 . S
C402 C403 1.395 . S
C402 C404 1.320 . S
C403 C401 1.339 . S
C403 C402 1.395 . S
C403 H429 0.929 . S
C404 C402 1.320 . S
C404 C405 1.405 . S
C404 H430 0.930 . S
C405 C400 1.479 . S
C405 C404 1.405 . S
C405 H431 0.931 . S
U406 O407 2.454 . S
U406 O408 2.458 . S
U406 C409 2.984 . S
U406 C410 2.847 . S
U406 C423 2.882 . S
U406 O424 2.441 . S
U406 O425 2.420 . S
U406 O426 2.455 . S
U406 O427 2.449 . S
O407 U406 2.454 . S
O407 C409 1.353 . S
O408 U406 2.458 . S
O408 C409 1.286 . S
C409 U406 2.984 . S
C409 O407 1.353 . S
C409 O408 1.286 . S
C409 C411 1.363 . S
C410 C400 1.465 . S
C410 U406 2.847 . S
C410 O424 1.249 . S
C410 O425 1.202 . S
C411 C409 1.363 . S
C411 C413 1.408 . S
C411 C416 1.342 . S
C412 C413 1.310 . S
C412 C415 1.461 . S
C412 H432 0.932 . S
C413 C411 1.408 . S
C413 C412 1.310 . S
C413 H433 0.930 . S
C414 C415 1.474 . S
C414 C416 1.285 . S
C414 H434 0.929 . S
C415 C412 1.461 . S
C415 C414 1.474 . S
C416 C411 1.342 . S
C416 C414 1.285 . S
C416 H435 0.930 . S
C417 C420 1.424 . S
C417 C422 1.245 . S
C417 C423 1.428 . S
C418 C421 1.260 . S
C418 C422 1.477 . S
C418 H436 0.932 . S
C419 C420 1.384 . S
C419 C421 1.479 . S
C419 H437 0.929 . S
C420 C417 1.424 . S
C420 C419 1.384 . S
C420 H438 0.928 . S
C421 C418 1.260 . S
C421 C419 1.479 . S
C422 C417 1.245 . S
C422 C418 1.477 . S
C422 H439 0.932 . S
C423 U406 2.882 . S
C423 C417 1.428 . S
C423 O426 1.301 . S
C423 O427 1.282 . S
O424 U406 2.441 . S
O424 C410 1.249 . S
O425 U406 2.420 . S
O425 C410 1.202 . S
O426 U406 2.455 . S
O426 C423 1.301 . S
O427 U406 2.449 . S
O427 C423 1.282 . S
H428 C401 0.931 . S
H429 C403 0.929 . S
H430 C404 0.930 . S
H431 C405 0.931 . S
H432 C412 0.932 . S
H433 C413 0.930 . S
H434 C414 0.929 . S
H435 C416 0.930 . S
H436 C418 0.932 . S
H437 C419 0.929 . S
H438 C420 0.928 . S
H439 C422 0.932 . S
C440 C441 1.264 . S
C440 C445 1.479 . S
C440 C450 1.465 . S
C441 C440 1.264 . S
C441 C443 1.339 . S
C441 H468 0.931 . S
C442 C443 1.395 . S
C442 C444 1.320 . S
C443 C441 1.339 . S
C443 C442 1.395 . S
C443 H469 0.929 . S
C444 C442 1.320 . S
C444 C445 1.405 . S
C444 H470 0.930 . S
C445 C440 1.479 . S
C445 C444 1.405 . S
C445 H471 0.931 . S
U446 O447 2.454 . S
U446 O448 2.458 . S
U446 C449 2.984 . S
U446 C450 2.847 . S
U446 C463 2.882 . S
U446 O464 2.441 . S
U446 O465 2.420 . S
U446 O466 2.455 . S
U446 O467 2.449 . S
O447 U446 2.454 . S
O447 C449 1.353 . S
O448 U446 2.458 . S
O448 C449 1.286 . S
C449 U446 2.984 . S
C449 O447 1.353 . S
C449 O448 1.286 . S
C449 C451 1.363 . S
C450 C440 1.465 . S
C450 U446 2.847 . S
C450 O464 1.249 . S
C450 O465 1.202 . S
C451 C449 1.363 . S
C451 C453 1.408 . S
C451 C456 1.342 . S
C452 C453 1.310 . S
C452 C455 1.461 . S
C452 H472 0.932 . S
C453 C451 1.408 . S
C453 C452 1.310 . S
C453 H473 0.930 . S
C454 C455 1.474 . S
C454 C456 1.285 . S
C454 H474 0.929 . S
C455 C452 1.461 . S
C455 C454 1.474 . S
C456 C451 1.342 . S
C456 C454 1.285 . S
C456 H475 0.930 . S
C457 C460 1.424 . S
C457 C462 1.245 . S
C457 C463 1.428 . S
C458 C461 1.260 . S
C458 C462 1.477 . S
C458 H476 0.932 . S
C459 C460 1.384 . S
C459 C461 1.479 . S
C459 H477 0.929 . S
C460 C457 1.424 . S
C460 C459 1.384 . S
C460 H478 0.928 . S
C461 C458 1.260 . S
C461 C459 1.479 . S
C462 C457 1.245 . S
C462 C458 1.477 . S
C462 H479 0.932 . S
C463 U446 2.882 . S
C463 C457 1.428 . S
C463 O466 1.301 . S
C463 O467 1.282 . S
O464 U446 2.441 . S
O464 C450 1.249 . S
O465 U446 2.420 . S
O465 C450 1.202 . S
O466 U446 2.455 . S
O466 C463 1.301 . S
O467 U446 2.449 . S
O467 C463 1.282 . S
H468 C441 0.931 . S
H469 C443 0.929 . S
H470 C444 0.930 . S
H471 C445 0.931 . S
H472 C452 0.932 . S
H473 C453 0.930 . S
H474 C454 0.929 . S
H475 C456 0.930 . S
H476 C458 0.932 . S
H477 C459 0.929 . S
H478 C460 0.928 . S
H479 C462 0.932 . S
C480 C481 1.264 . S
C480 C485 1.479 . S
C480 C490 1.465 . S
C481 C480 1.264 . S
C481 C483 1.339 . S
C481 H508 0.931 . S
C482 C483 1.395 . S
C482 C484 1.320 . S
C483 C481 1.339 . S
C483 C482 1.395 . S
C483 H509 0.929 . S
C484 C482 1.320 . S
C484 C485 1.405 . S
C484 H510 0.930 . S
C485 C480 1.479 . S
C485 C484 1.405 . S
C485 H511 0.931 . S
U486 O487 2.454 . S
U486 O488 2.458 . S
U486 C489 2.984 . S
U486 C490 2.847 . S
U486 C503 2.882 . S
U486 O504 2.441 . S
U486 O505 2.420 . S
U486 O506 2.455 . S
U486 O507 2.449 . S
O487 U486 2.454 . S
O487 C489 1.353 . S
O488 U486 2.458 . S
O488 C489 1.286 . S
C489 U486 2.984 . S
C489 O487 1.353 . S
C489 O488 1.286 . S
C489 C491 1.363 . S
C490 C480 1.465 . S
C490 U486 2.847 . S
C490 O504 1.249 . S
C490 O505 1.202 . S
C491 C489 1.363 . S
C491 C493 1.408 . S
C491 C496 1.342 . S
C492 C493 1.310 . S
C492 C495 1.461 . S
C492 H512 0.932 . S
C493 C491 1.408 . S
C493 C492 1.310 . S
C493 H513 0.930 . S
C494 C495 1.474 . S
C494 C496 1.285 . S
C494 H514 0.929 . S
C495 C492 1.461 . S
C495 C494 1.474 . S
C496 C491 1.342 . S
C496 C494 1.285 . S
C496 H515 0.930 . S
C497 C500 1.424 . S
C497 C502 1.245 . S
C497 C503 1.428 . S
C498 C501 1.260 . S
C498 C502 1.477 . S
C498 H516 0.932 . S
C499 C500 1.384 . S
C499 C501 1.479 . S
C499 H517 0.929 . S
C500 C497 1.424 . S
C500 C499 1.384 . S
C500 H518 0.928 . S
C501 C498 1.260 . S
C501 C499 1.479 . S
C502 C497 1.245 . S
C502 C498 1.477 . S
C502 H519 0.932 . S
C503 U486 2.882 . S
C503 C497 1.428 . S
C503 O506 1.301 . S
C503 O507 1.282 . S
O504 U486 2.441 . S
O504 C490 1.249 . S
O505 U486 2.420 . S
O505 C490 1.202 . S
O506 U486 2.455 . S
O506 C503 1.301 . S
O507 U486 2.449 . S
O507 C503 1.282 . S
H508 C481 0.931 . S
H509 C483 0.929 . S
H510 C484 0.930 . S
H511 C485 0.931 . S
H512 C492 0.932 . S
H513 C493 0.930 . S
H514 C494 0.929 . S
H515 C496 0.930 . S
H516 C498 0.932 . S
H517 C499 0.929 . S
H518 C500 0.928 . S
H519 C502 0.932 . S
C520 C521 1.264 . S
C520 C525 1.479 . S
C520 C530 1.465 . S
C521 C520 1.264 . S
C521 C523 1.339 . S
C521 H548 0.931 . S
C522 C523 1.395 . S
C522 C524 1.320 . S
C523 C521 1.339 . S
C523 C522 1.395 . S
C523 H549 0.929 . S
C524 C522 1.320 . S
C524 C525 1.405 . S
C524 H550 0.930 . S
C525 C520 1.479 . S
C525 C524 1.405 . S
C525 H551 0.931 . S
U526 O527 2.454 . S
U526 O528 2.458 . S
U526 C529 2.984 . S
U526 C530 2.847 . S
U526 C543 2.882 . S
U526 O544 2.441 . S
U526 O545 2.420 . S
U526 O546 2.455 . S
U526 O547 2.449 . S
O527 U526 2.454 . S
O527 C529 1.353 . S
O528 U526 2.458 . S
O528 C529 1.286 . S
C529 U526 2.984 . S
C529 O527 1.353 . S
C529 O528 1.286 . S
C529 C531 1.363 . S
C530 C520 1.465 . S
C530 U526 2.847 . S
C530 O544 1.249 . S
C530 O545 1.202 . S
C531 C529 1.363 . S
C531 C533 1.408 . S
C531 C536 1.342 . S
C532 C533 1.310 . S
C532 C535 1.461 . S
C532 H552 0.932 . S
C533 C531 1.408 . S
C533 C532 1.310 . S
C533 H553 0.930 . S
C534 C535 1.474 . S
C534 C536 1.285 . S
C534 H554 0.929 . S
C535 C532 1.461 . S
C535 C534 1.474 . S
C536 C531 1.342 . S
C536 C534 1.285 . S
C536 H555 0.930 . S
C537 C540 1.424 . S
C537 C542 1.245 . S
C537 C543 1.428 . S
C538 C541 1.260 . S
C538 C542 1.477 . S
C538 H556 0.932 . S
C539 C540 1.384 . S
C539 C541 1.479 . S
C539 H557 0.929 . S
C540 C537 1.424 . S
C540 C539 1.384 . S
C540 H558 0.928 . S
C541 C538 1.260 . S
C541 C539 1.479 . S
C542 C537 1.245 . S
C542 C538 1.477 . S
C542 H559 0.932 . S
C543 U526 2.882 . S
C543 C537 1.428 . S
C543 O546 1.301 . S
C543 O547 1.282 . S
O544 U526 2.441 . S
O544 C530 1.249 . S
O545 U526 2.420 . S
O545 C530 1.202 . S
O546 U526 2.455 . S
O546 C543 1.301 . S
O547 U526 2.449 . S
O547 C543 1.282 . S
H548 C521 0.931 . S
H549 C523 0.929 . S
H550 C524 0.930 . S
H551 C525 0.931 . S
H552 C532 0.932 . S
H553 C533 0.930 . S
H554 C534 0.929 . S
H555 C536 0.930 . S
H556 C538 0.932 . S
H557 C539 0.929 . S
H558 C540 0.928 . S
H559 C542 0.932 . S
C560 C561 1.264 . S
C560 C565 1.479 . S
C560 C570 1.465 . S
C561 C560 1.264 . S
C561 C563 1.339 . S
C561 H588 0.931 . S
C562 C563 1.395 . S
C562 C564 1.320 . S
C563 C561 1.339 . S
C563 C562 1.395 . S
C563 H589 0.929 . S
C564 C562 1.320 . S
C564 C565 1.405 . S
C564 H590 0.930 . S
C565 C560 1.479 . S
C565 C564 1.405 . S
C565 H591 0.931 . S
U566 O567 2.454 . S
U566 O568 2.458 . S
U566 C569 2.984 . S
U566 C570 2.847 . S
U566 C583 2.882 . S
U566 O584 2.441 . S
U566 O585 2.420 . S
U566 O586 2.455 . S
U566 O587 2.449 . S
O567 U566 2.454 . S
O567 C569 1.353 . S
O568 U566 2.458 . S
O568 C569 1.286 . S
C569 U566 2.984 . S
C569 O567 1.353 . S
C569 O568 1.286 . S
C569 C571 1.363 . S
C570 C560 1.465 . S
C570 U566 2.847 . S
C570 O584 1.249 . S
C570 O585 1.202 . S
C571 C569 1.363 . S
C571 C573 1.408 . S
C571 C576 1.342 . S
C572 C573 1.310 . S
C572 C575 1.461 . S
C572 H592 0.932 . S
C573 C571 1.408 . S
C573 C572 1.310 . S
C573 H593 0.930 . S
C574 C575 1.474 . S
C574 C576 1.285 . S
C574 H594 0.929 . S
C575 C572 1.461 . S
C575 C574 1.474 . S
C576 C571 1.342 . S
C576 C574 1.285 . S
C576 H595 0.930 . S
C577 C580 1.424 . S
C577 C582 1.245 . S
C577 C583 1.428 . S
C578 C581 1.260 . S
C578 C582 1.477 . S
C578 H596 0.932 . S
C579 C580 1.384 . S
C579 C581 1.479 . S
C579 H597 0.929 . S
C580 C577 1.424 . S
C580 C579 1.384 . S
C580 H598 0.928 . S
C581 C578 1.260 . S
C581 C579 1.479 . S
C582 C577 1.245 . S
C582 C578 1.477 . S
C582 H599 0.932 . S
C583 U566 2.882 . S
C583 C577 1.428 . S
C583 O586 1.301 . S
C583 O587 1.282 . S
O584 U566 2.441 . S
O584 C570 1.249 . S
O585 U566 2.420 . S
O585 C570 1.202 . S
O586 U566 2.455 . S
O586 C583 1.301 . S
O587 U566 2.449 . S
O587 C583 1.282 . S
H588 C561 0.931 . S
H589 C563 0.929 . S
H590 C564 0.930 . S
H591 C565 0.931 . S
H592 C572 0.932 . S
H593 C573 0.930 . S
H594 C574 0.929 . S
H595 C576 0.930 . S
H596 C578 0.932 . S
H597 C579 0.929 . S
H598 C580 0.928 . S
H599 C582 0.932 . S
C600 C601 1.264 . S
C600 C605 1.479 . S
C600 C610 1.465 . S
C601 C600 1.264 . S
C601 C603 1.339 . S
C601 H628 0.931 . S
C602 C603 1.395 . S
C602 C604 1.320 . S
C603 C601 1.339 . S
C603 C602 1.395 . S
C603 H629 0.929 . S
C604 C602 1.320 . S
C604 C605 1.405 . S
C604 H630 0.930 . S
C605 C600 1.479 . S
C605 C604 1.405 . S
C605 H631 0.931 . S
U606 O607 2.454 . S
U606 O608 2.458 . S
U606 C609 2.984 . S
U606 C610 2.847 . S
U606 C623 2.882 . S
U606 O624 2.441 . S
U606 O625 2.420 . S
U606 O626 2.455 . S
U606 O627 2.449 . S
O607 U606 2.454 . S
O607 C609 1.353 . S
O608 U606 2.458 . S
O608 C609 1.286 . S
C609 U606 2.984 . S
C609 O607 1.353 . S
C609 O608 1.286 . S
C609 C611 1.363 . S
C610 C600 1.465 . S
C610 U606 2.847 . S
C610 O624 1.249 . S
C610 O625 1.202 . S
C611 C609 1.363 . S
C611 C613 1.408 . S
C611 C616 1.342 . S
C612 C613 1.310 . S
C612 C615 1.461 . S
C612 H632 0.932 . S
C613 C611 1.408 . S
C613 C612 1.310 . S
C613 H633 0.930 . S
C614 C615 1.474 . S
C614 C616 1.285 . S
C614 H634 0.929 . S
C615 C612 1.461 . S
C615 C614 1.474 . S
C616 C611 1.342 . S
C616 C614 1.285 . S
C616 H635 0.930 . S
C617 C620 1.424 . S
C617 C622 1.245 . S
C617 C623 1.428 . S
C618 C621 1.260 . S
C618 C622 1.477 . S
C618 H636 0.932 . S
C619 C620 1.384 . S
C619 C621 1.479 . S
C619 H637 0.929 . S
C620 C617 1.424 . S
C620 C619 1.384 . S
C620 H638 0.928 . S
C621 C618 1.260 . S
C621 C619 1.479 . S
C622 C617 1.245 . S
C622 C618 1.477 . S
C622 H639 0.932 . S
C623 U606 2.882 . S
C623 C617 1.428 . S
C623 O626 1.301 . S
C623 O627 1.282 . S
O624 U606 2.441 . S
O624 C610 1.249 . S
O625 U606 2.420 . S
O625 C610 1.202 . S
O626 U606 2.455 . S
O626 C623 1.301 . S
O627 U606 2.449 . S
O627 C623 1.282 . S
H628 C601 0.931 . S
H629 C603 0.929 . S
H630 C604 0.930 . S
H631 C605 0.931 . S
H632 C612 0.932 . S
H633 C613 0.930 . S
H634 C614 0.929 . S
H635 C616 0.930 . S
H636 C618 0.932 . S
H637 C619 0.929 . S
H638 C620 0.928 . S
H639 C622 0.932 . S
C640 C641 1.264 . S
C640 C645 1.479 . S
C640 C650 1.465 . S
C641 C640 1.264 . S
C641 C643 1.339 . S
C641 H668 0.931 . S
C642 C643 1.395 . S
C642 C644 1.320 . S
C643 C641 1.339 . S
C643 C642 1.395 . S
C643 H669 0.929 . S
C644 C642 1.320 . S
C644 C645 1.405 . S
C644 H670 0.930 . S
C645 C640 1.479 . S
C645 C644 1.405 . S
C645 H671 0.931 . S
U646 O647 2.454 . S
U646 O648 2.458 . S
U646 C649 2.984 . S
U646 C650 2.847 . S
U646 C663 2.882 . S
U646 O664 2.441 . S
U646 O665 2.420 . S
U646 O666 2.455 . S
U646 O667 2.449 . S
O647 U646 2.454 . S
O647 C649 1.353 . S
O648 U646 2.458 . S
O648 C649 1.286 . S
C649 U646 2.984 . S
C649 O647 1.353 . S
C649 O648 1.286 . S
C649 C651 1.363 . S
C650 C640 1.465 . S
C650 U646 2.847 . S
C650 O664 1.249 . S
C650 O665 1.202 . S
C651 C649 1.363 . S
C651 C653 1.408 . S
C651 C656 1.342 . S
C652 C653 1.310 . S
C652 C655 1.461 . S
C652 H672 0.932 . S
C653 C651 1.408 . S
C653 C652 1.310 . S
C653 H673 0.930 . S
C654 C655 1.474 . S
C654 C656 1.285 . S
C654 H674 0.929 . S
C655 C652 1.461 . S
C655 C654 1.474 . S
C656 C651 1.342 . S
C656 C654 1.285 . S
C656 H675 0.930 . S
C657 C660 1.424 . S
C657 C662 1.245 . S
C657 C663 1.428 . S
C658 C661 1.260 . S
C658 C662 1.477 . S
C658 H676 0.932 . S
C659 C660 1.384 . S
C659 C661 1.479 . S
C659 H677 0.929 . S
C660 C657 1.424 . S
C660 C659 1.384 . S
C660 H678 0.928 . S
C661 C658 1.260 . S
C661 C659 1.479 . S
C662 C657 1.245 . S
C662 C658 1.477 . S
C662 H679 0.932 . S
C663 U646 2.882 . S
C663 C657 1.428 . S
C663 O666 1.301 . S
C663 O667 1.282 . S
O664 U646 2.441 . S
O664 C650 1.249 . S
O665 U646 2.420 . S
O665 C650 1.202 . S
O666 U646 2.455 . S
O666 C663 1.301 . S
O667 U646 2.449 . S
O667 C663 1.282 . S
H668 C641 0.931 . S
H669 C643 0.929 . S
H670 C644 0.930 . S
H671 C645 0.931 . S
H672 C652 0.932 . S
H673 C653 0.930 . S
H674 C654 0.929 . S
H675 C656 0.930 . S
H676 C658 0.932 . S
H677 C659 0.929 . S
H678 C660 0.928 . S
H679 C662 0.932 . S
C680 C681 1.264 . S
C680 C685 1.479 . S
C680 C690 1.465 . S
C681 C680 1.264 . S
C681 C683 1.339 . S
C681 H708 0.931 . S
C682 C683 1.395 . S
C682 C684 1.320 . S
C683 C681 1.339 . S
C683 C682 1.395 . S
C683 H709 0.929 . S
C684 C682 1.320 . S
C684 C685 1.405 . S
C684 H710 0.930 . S
C685 C680 1.479 . S
C685 C684 1.405 . S
C685 H711 0.931 . S
U686 O687 2.454 . S
U686 O688 2.458 . S
U686 C689 2.984 . S
U686 C690 2.847 . S
U686 C703 2.882 . S
U686 O704 2.441 . S
U686 O705 2.420 . S
U686 O706 2.455 . S
U686 O707 2.449 . S
O687 U686 2.454 . S
O687 C689 1.353 . S
O688 U686 2.458 . S
O688 C689 1.286 . S
C689 U686 2.984 . S
C689 O687 1.353 . S
C689 O688 1.286 . S
C689 C691 1.363 . S
C690 C680 1.465 . S
C690 U686 2.847 . S
C690 O704 1.249 . S
C690 O705 1.202 . S
C691 C689 1.363 . S
C691 C693 1.408 . S
C691 C696 1.342 . S
C692 C693 1.310 . S
C692 C695 1.461 . S
C692 H712 0.932 . S
C693 C691 1.408 . S
C693 C692 1.310 . S
C693 H713 0.930 . S
C694 C695 1.474 . S
C694 C696 1.285 . S
C694 H714 0.929 . S
C695 C692 1.461 . S
C695 C694 1.474 . S
C696 C691 1.342 . S
C696 C694 1.285 . S
C696 H715 0.930 . S
C697 C700 1.424 . S
C697 C702 1.245 . S
C697 C703 1.428 . S
C698 C701 1.260 . S
C698 C702 1.477 . S
C698 H716 0.932 . S
C699 C700 1.384 . S
C699 C701 1.479 . S
C699 H717 0.929 . S
C700 C697 1.424 . S
C700 C699 1.384 . S
C700 H718 0.928 . S
C701 C698 1.260 . S
C701 C699 1.479 . S
C702 C697 1.245 . S
C702 C698 1.477 . S
C702 H719 0.932 . S
C703 U686 2.882 . S
C703 C697 1.428 . S
C703 O706 1.301 . S
C703 O707 1.282 . S
O704 U686 2.441 . S
O704 C690 1.249 . S
O705 U686 2.420 . S
O705 C690 1.202 . S
O706 U686 2.455 . S
O706 C703 1.301 . S
O707 U686 2.449 . S
O707 C703 1.282 . S
H708 C681 0.931 . S
H709 C683 0.929 . S
H710 C684 0.930 . S
H711 C685 0.931 . S
H712 C692 0.932 . S
H713 C693 0.930 . S
H714 C694 0.929 . S
H715 C696 0.930 . S
H716 C698 0.932 . S
H717 C699 0.929 . S
H718 C700 0.928 . S
H719 C702 0.932 . S
C720 C721 1.264 . S
C720 C725 1.479 . S
C720 C730 1.465 . S
C721 C720 1.264 . S
C721 C723 1.339 . S
C721 H748 0.931 . S
C722 C723 1.395 . S
C722 C724 1.320 . S
C723 C721 1.339 . S
C723 C722 1.395 . S
C723 H749 0.929 . S
C724 C722 1.320 . S
C724 C725 1.405 . S
C724 H750 0.930 . S
C725 C720 1.479 . S
C725 C724 1.405 . S
C725 H751 0.931 . S
U726 O727 2.454 . S
U726 O728 2.458 . S
U726 C729 2.984 . S
U726 C730 2.847 . S
U726 C743 2.882 . S
U726 O744 2.441 . S
U726 O745 2.420 . S
U726 O746 2.455 . S
U726 O747 2.449 . S
O727 U726 2.454 . S
O727 C729 1.353 . S
O728 U726 2.458 . S
O728 C729 1.286 . S
C729 U726 2.984 . S
C729 O727 1.353 . S
C729 O728 1.286 . S
C729 C731 1.363 . S
C730 C720 1.465 . S
C730 U726 2.847 . S
C730 O744 1.249 . S
C730 O745 1.202 . S
C731 C729 1.363 . S
C731 C733 1.408 . S
C731 C736 1.342 . S
C732 C733 1.310 . S
C732 C735 1.461 . S
C732 H752 0.932 . S
C733 C731 1.408 . S
C733 C732 1.310 . S
C733 H753 0.930 . S
C734 C735 1.474 . S
C734 C736 1.285 . S
C734 H754 0.929 . S
C735 C732 1.461 . S
C735 C734 1.474 . S
C736 C731 1.342 . S
C736 C734 1.285 . S
C736 H755 0.930 . S
C737 C740 1.424 . S
C737 C742 1.245 . S
C737 C743 1.428 . S
C738 C741 1.260 . S
C738 C742 1.477 . S
C738 H756 0.932 . S
C739 C740 1.384 . S
C739 C741 1.479 . S
C739 H757 0.929 . S
C740 C737 1.424 . S
C740 C739 1.384 . S
C740 H758 0.928 . S
C741 C738 1.260 . S
C741 C739 1.479 . S
C742 C737 1.245 . S
C742 C738 1.477 . S
C742 H759 0.932 . S
C743 U726 2.882 . S
C743 C737 1.428 . S
C743 O746 1.301 . S
C743 O747 1.282 . S
O744 U726 2.441 . S
O744 C730 1.249 . S
O745 U726 2.420 . S
O745 C730 1.202 . S
O746 U726 2.455 . S
O746 C743 1.301 . S
O747 U726 2.449 . S
O747 C743 1.282 . S
H748 C721 0.931 . S
H749 C723 0.929 . S
H750 C724 0.930 . S
H751 C725 0.931 . S
H752 C732 0.932 . S
H753 C733 0.930 . S
H754 C734 0.929 . S
H755 C736 0.930 . S
H756 C738 0.932 . S
H757 C739 0.929 . S
H758 C740 0.928 . S
H759 C742 0.932 . S
C760 C761 1.264 . S
C760 C765 1.479 . S
C760 C770 1.465 . S
C761 C760 1.264 . S
C761 C763 1.339 . S
C761 H788 0.931 . S
C762 C763 1.395 . S
C762 C764 1.320 . S
C763 C761 1.339 . S
C763 C762 1.395 . S
C763 H789 0.929 . S
C764 C762 1.320 . S
C764 C765 1.405 . S
C764 H790 0.930 . S
C765 C760 1.479 . S
C765 C764 1.405 . S
C765 H791 0.931 . S
U766 O767 2.454 . S
U766 O768 2.458 . S
U766 C769 2.984 . S
U766 C770 2.847 . S
U766 C783 2.882 . S
U766 O784 2.441 . S
U766 O785 2.420 . S
U766 O786 2.455 . S
U766 O787 2.449 . S
O767 U766 2.454 . S
O767 C769 1.353 . S
O768 U766 2.458 . S
O768 C769 1.286 . S
C769 U766 2.984 . S
C769 O767 1.353 . S
C769 O768 1.286 . S
C769 C771 1.363 . S
C770 C760 1.465 . S
C770 U766 2.847 . S
C770 O784 1.249 . S
C770 O785 1.202 . S
C771 C769 1.363 . S
C771 C773 1.408 . S
C771 C776 1.342 . S
C772 C773 1.310 . S
C772 C775 1.461 . S
C772 H792 0.932 . S
C773 C771 1.408 . S
C773 C772 1.310 . S
C773 H793 0.930 . S
C774 C775 1.474 . S
C774 C776 1.285 . S
C774 H794 0.929 . S
C775 C772 1.461 . S
C775 C774 1.474 . S
C776 C771 1.342 . S
C776 C774 1.285 . S
C776 H795 0.930 . S
C777 C780 1.424 . S
C777 C782 1.245 . S
C777 C783 1.428 . S
C778 C781 1.260 . S
C778 C782 1.477 . S
C778 H796 0.932 . S
C779 C780 1.384 . S
C779 C781 1.479 . S
C779 H797 0.929 . S
C780 C777 1.424 . S
C780 C779 1.384 . S
C780 H798 0.928 . S
C781 C778 1.260 . S
C781 C779 1.479 . S
C782 C777 1.245 . S
C782 C778 1.477 . S
C782 H799 0.932 . S
C783 U766 2.882 . S
C783 C777 1.428 . S
C783 O786 1.301 . S
C783 O787 1.282 . S
O784 U766 2.441 . S
O784 C770 1.249 . S
O785 U766 2.420 . S
O785 C770 1.202 . S
O786 U766 2.455 . S
O786 C783 1.301 . S
O787 U766 2.449 . S
O787 C783 1.282 . S
H788 C761 0.931 . S
H789 C763 0.929 . S
H790 C764 0.930 . S
H791 C765 0.931 . S
H792 C772 0.932 . S
H793 C773 0.930 . S
H794 C774 0.929 . S
H795 C776 0.930 . S
H796 C778 0.932 . S
H797 C779 0.929 . S
H798 C780 0.928 . S
H799 C782 0.932 . S
C800 C801 1.264 . S
C800 C805 1.479 . S
C800 C810 1.465 . S
C801 C800 1.264 . S
C801 C803 1.339 . S
C801 H828 0.931 . S
C802 C803 1.395 . S
C802 C804 1.320 . S
C803 C801 1.339 . S
C803 C802 1.395 . S
C803 H829 0.929 . S
C804 C802 1.320 . S
C804 C805 1.405 . S
C804 H830 0.930 . S
C805 C800 1.479 . S
C805 C804 1.405 . S
C805 H831 0.931 . S
U806 O807 2.454 . S
U806 O808 2.458 . S
U806 C809 2.984 . S
U806 C810 2.847 . S
U806 C823 2.882 . S
U806 O824 2.441 . S
U806 O825 2.420 . S
U806 O826 2.455 . S
U806 O827 2.449 . S
O807 U806 2.454 . S
O807 C809 1.353 . S
O808 U806 2.458 . S
O808 C809 1.286 . S
C809 U806 2.984 . S
C809 O807 1.353 . S
C809 O808 1.286 . S
C809 C811 1.363 . S
C810 C800 1.465 . S
C810 U806 2.847 . S
C810 O824 1.249 . S
C810 O825 1.202 . S
C811 C809 1.363 . S
C811 C813 1.408 . S
C811 C816 1.342 . S
C812 C813 1.310 . S
C812 C815 1.461 . S
C812 H832 0.932 . S
C813 C811 1.408 . S
C813 C812 1.310 . S
C813 H833 0.930 . S
C814 C815 1.474 . S
C814 C816 1.285 . S
C814 H834 0.929 . S
C815 C812 1.461 . S
C815 C814 1.474 . S
C816 C811 1.342 . S
C816 C814 1.285 . S
C816 H835 0.930 . S
C817 C820 1.424 . S
C817 C822 1.245 . S
C817 C823 1.428 . S
C818 C821 1.260 . S
C818 C822 1.477 . S
C818 H836 0.932 . S
C819 C820 1.384 . S
C819 C821 1.479 . S
C819 H837 0.929 . S
C820 C817 1.424 . S
C820 C819 1.384 . S
C820 H838 0.928 . S
C821 C818 1.260 . S
C821 C819 1.479 . S
C822 C817 1.245 . S
C822 C818 1.477 . S
C822 H839 0.932 . S
C823 U806 2.882 . S
C823 C817 1.428 . S
C823 O826 1.301 . S
C823 O827 1.282 . S
O824 U806 2.441 . S
O824 C810 1.249 . S
O825 U806 2.420 . S
O825 C810 1.202 . S
O826 U806 2.455 . S
O826 C823 1.301 . S
O827 U806 2.449 . S
O827 C823 1.282 . S
H828 C801 0.931 . S
H829 C803 0.929 . S
H830 C804 0.930 . S
H831 C805 0.931 . S
H832 C812 0.932 . S
H833 C813 0.930 . S
H834 C814 0.929 . S
H835 C816 0.930 . S
H836 C818 0.932 . S
H837 C819 0.929 . S
H838 C820 0.928 . S
H839 C822 0.932 . S
C840 C841 1.264 . S
C840 C845 1.479 . S
C840 C850 1.465 . S
C841 C840 1.264 . S
C841 C843 1.339 . S
C841 H868 0.931 . S
C842 C843 1.395 . S
C842 C844 1.320 . S
C843 C841 1.339 . S
C843 C842 1.395 . S
C843 H869 0.929 . S
C844 C842 1.320 . S
C844 C845 1.405 . S
C844 H870 0.930 . S
C845 C840 1.479 . S
C845 C844 1.405 . S
C845 H871 0.931 . S
U846 O847 2.454 . S
U846 O848 2.458 . S
U846 C849 2.984 . S
U846 C850 2.847 . S
U846 C863 2.882 . S
U846 O864 2.441 . S
U846 O865 2.420 . S
U846 O866 2.455 . S
U846 O867 2.449 . S
O847 U846 2.454 . S
O847 C849 1.353 . S
O848 U846 2.458 . S
O848 C849 1.286 . S
C849 U846 2.984 . S
C849 O847 1.353 . S
C849 O848 1.286 . S
C849 C851 1.363 . S
C850 C840 1.465 . S
C850 U846 2.847 . S
C850 O864 1.249 . S
C850 O865 1.202 . S
C851 C849 1.363 . S
C851 C853 1.408 . S
C851 C856 1.342 . S
C852 C853 1.310 . S
C852 C855 1.461 . S
C852 H872 0.932 . S
C853 C851 1.408 . S
C853 C852 1.310 . S
C853 H873 0.930 . S
C854 C855 1.474 . S
C854 C856 1.285 . S
C854 H874 0.929 . S
C855 C852 1.461 . S
C855 C854 1.474 . S
C856 C851 1.342 . S
C856 C854 1.285 . S
C856 H875 0.930 . S
C857 C860 1.424 . S
C857 C862 1.245 . S
C857 C863 1.428 . S
C858 C861 1.260 . S
C858 C862 1.477 . S
C858 H876 0.932 . S
C859 C860 1.384 . S
C859 C861 1.479 . S
C859 H877 0.929 . S
C860 C857 1.424 . S
C860 C859 1.384 . S
C860 H878 0.928 . S
C861 C858 1.260 . S
C861 C859 1.479 . S
C862 C857 1.245 . S
C862 C858 1.477 . S
C862 H879 0.932 . S
C863 U846 2.882 . S
C863 C857 1.428 . S
C863 O866 1.301 . S
C863 O867 1.282 . S
O864 U846 2.441 . S
O864 C850 1.249 . S
O865 U846 2.420 . S
O865 C850 1.202 . S
O866 U846 2.455 . S
O866 C863 1.301 . S
O867 U846 2.449 . S
O867 C863 1.282 . S
H868 C841 0.931 . S
H869 C843 0.929 . S
H870 C844 0.930 . S
H871 C845 0.931 . S
H872 C852 0.932 . S
H873 C853 0.930 . S
H874 C854 0.929 . S
H875 C856 0.930 . S
H876 C858 0.932 . S
H877 C859 0.929 . S
H878 C860 0.928 . S
H879 C862 0.932 . S
C880 C881 1.264 . S
C880 C885 1.479 . S
C880 C890 1.465 . S
C881 C880 1.264 . S
C881 C883 1.339 . S
C881 H908 0.931 . S
C882 C883 1.395 . S
C882 C884 1.320 . S
C883 C881 1.339 . S
C883 C882 1.395 . S
C883 H909 0.929 . S
C884 C882 1.320 . S
C884 C885 1.405 . S
C884 H910 0.930 . S
C885 C880 1.479 . S
C885 C884 1.405 . S
C885 H911 0.931 . S
U886 O887 2.454 . S
U886 O888 2.458 . S
U886 C889 2.984 . S
U886 C890 2.847 . S
U886 C903 2.882 . S
U886 O904 2.441 . S
U886 O905 2.420 . S
U886 O906 2.455 . S
U886 O907 2.449 . S
O887 U886 2.454 . S
O887 C889 1.353 . S
O888 U886 2.458 . S
O888 C889 1.286 . S
C889 U886 2.984 . S
C889 O887 1.353 . S
C889 O888 1.286 . S
C889 C891 1.363 . S
C890 C880 1.465 . S
C890 U886 2.847 . S
C890 O904 1.249 . S
C890 O905 1.202 . S
C891 C889 1.363 . S
C891 C893 1.408 . S
C891 C896 1.342 . S
C892 C893 1.310 . S
C892 C895 1.461 . S
C892 H912 0.932 . S
C893 C891 1.408 . S
C893 C892 1.310 . S
C893 H913 0.930 . S
C894 C895 1.474 . S
C894 C896 1.285 . S
C894 H914 0.929 . S
C895 C892 1.461 . S
C895 C894 1.474 . S
C896 C891 1.342 . S
C896 C894 1.285 . S
C896 H915 0.930 . S
C897 C900 1.424 . S
C897 C902 1.245 . S
C897 C903 1.428 . S
C898 C901 1.260 . S
C898 C902 1.477 . S
C898 H916 0.932 . S
C899 C900 1.384 . S
C899 C901 1.479 . S
C899 H917 0.929 . S
C900 C897 1.424 . S
C900 C899 1.384 . S
C900 H918 0.928 . S
C901 C898 1.260 . S
C901 C899 1.479 . S
C902 C897 1.245 . S
C902 C898 1.477 . S
C902 H919 0.932 . S
C903 U886 2.882 . S
C903 C897 1.428 . S
C903 O906 1.301 . S
C903 O907 1.282 . S
O904 U886 2.441 . S
O904 C890 1.249 . S
O905 U886 2.420 . S
O905 C890 1.202 . S
O906 U886 2.455 . S
O906 C903 1.301 . S
O907 U886 2.449 . S
O907 C903 1.282 . S
H908 C881 0.931 . S
H909 C883 0.929 . S
H910 C884 0.930 . S
H911 C885 0.931 . S
H912 C892 0.932 . S
H913 C893 0.930 . S
H914 C894 0.929 . S
H915 C896 0.930 . S
H916 C898 0.932 . S
H917 C899 0.929 . S
H918 C900 0.928 . S
H919 C902 0.932 . S
C920 C921 1.264 . S
C920 C925 1.479 . S
C920 C930 1.465 . S
C921 C920 1.264 . S
C921 C923 1.339 . S
C921 H948 0.931 . S
C922 C923 1.395 . S
C922 C924 1.320 . S
C923 C921 1.339 . S
C923 C922 1.395 . S
C923 H949 0.929 . S
C924 C922 1.320 . S
C924 C925 1.405 . S
C924 H950 0.930 . S
C925 C920 1.479 . S
C925 C924 1.405 . S
C925 H951 0.931 . S
U926 O927 2.454 . S
U926 O928 2.458 . S
U926 C929 2.984 . S
U926 C930 2.847 . S
U926 C943 2.882 . S
U926 O944 2.441 . S
U926 O945 2.420 . S
U926 O946 2.455 . S
U926 O947 2.449 . S
O927 U926 2.454 . S
O927 C929 1.353 . S
O928 U926 2.458 . S
O928 C929 1.286 . S
C929 U926 2.984 . S
C929 O927 1.353 . S
C929 O928 1.286 . S
C929 C931 1.363 . S
C930 C920 1.465 . S
C930 U926 2.847 . S
C930 O944 1.249 . S
C930 O945 1.202 . S
C931 C929 1.363 . S
C931 C933 1.408 . S
C931 C936 1.342 . S
C932 C933 1.310 . S
C932 C935 1.461 . S
C932 H952 0.932 . S
C933 C931 1.408 . S
C933 C932 1.310 . S
C933 H953 0.930 . S
C934 C935 1.474 . S
C934 C936 1.285 . S
C934 H954 0.929 . S
C935 C932 1.461 . S
C935 C934 1.474 . S
C936 C931 1.342 . S
C936 C934 1.285 . S
C936 H955 0.930 . S
C937 C940 1.424 . S
C937 C942 1.245 . S
C937 C943 1.428 . S
C938 C941 1.260 . S
C938 C942 1.477 . S
C938 H956 0.932 . S
C939 C940 1.384 . S
C939 C941 1.479 . S
C939 H957 0.929 . S
C940 C937 1.424 . S
C940 C939 1.384 . S
C940 H958 0.928 . S
C941 C938 1.260 . S
C941 C939 1.479 . S
C942 C937 1.245 . S
C942 C938 1.477 . S
C942 H959 0.932 . S
C943 U926 2.882 . S
C943 C937 1.428 . S
C943 O946 1.301 . S
C943 O947 1.282 . S
O944 U926 2.441 . S
O944 C930 1.249 . S
O945 U926 2.420 . S
O945 C930 1.202 . S
O946 U926 2.455 . S
O946 C943 1.301 . S
O947 U926 2.449 . S
O947 C943 1.282 . S
H948 C921 0.931 . S
H949 C923 0.929 . S
H950 C924 0.930 . S
H951 C925 0.931 . S
H952 C932 0.932 . S
H953 C933 0.930 . S
H954 C934 0.929 . S
H955 C936 0.930 . S
H956 C938 0.932 . S
H957 C939 0.929 . S
H958 C940 0.928 . S
H959 C942 0.932 . S
C960 C961 1.264 . S
C960 C965 1.479 . S
C960 C970 1.465 . S
C961 C960 1.264 . S
C961 C963 1.339 . S
C961 H988 0.931 . S
C962 C963 1.395 . S
C962 C964 1.320 . S
C963 C961 1.339 . S
C963 C962 1.395 . S
C963 H989 0.929 . S
C964 C962 1.320 . S
C964 C965 1.405 . S
C964 H990 0.930 . S
C965 C960 1.479 . S
C965 C964 1.405 . S
C965 H991 0.931 . S
U966 O967 2.454 . S
U966 O968 2.458 . S
U966 C969 2.984 . S
U966 C970 2.847 . S
U966 C983 2.882 . S
U966 O984 2.441 . S
U966 O985 2.420 . S
U966 O986 2.455 . S
U966 O987 2.449 . S
O967 U966 2.454 . S
O967 C969 1.353 . S
O968 U966 2.458 . S
O968 C969 1.286 . S
C969 U966 2.984 . S
C969 O967 1.353 . S
C969 O968 1.286 . S
C969 C971 1.363 . S
C970 C960 1.465 . S
C970 U966 2.847 . S
C970 O984 1.249 . S
C970 O985 1.202 . S
C971 C969 1.363 . S
C971 C973 1.408 . S
C971 C976 1.342 . S
C972 C973 1.310 . S
C972 C975 1.461 . S
C972 H992 0.932 . S
C973 C971 1.408 . S
C973 C972 1.310 . S
C973 H993 0.930 . S
C974 C975 1.474 . S
C974 C976 1.285 . S
C974 H994 0.929 . S
C975 C972 1.461 . S
C975 C974 1.474 . S
C976 C971 1.342 . S
C976 C974 1.285 . S
C976 H995 0.930 . S
C977 C980 1.424 . S
C977 C982 1.245 . S
C977 C983 1.428 . S
C978 C981 1.260 . S
C978 C982 1.477 . S
C978 H996 0.932 . S
C979 C980 1.384 . S
C979 C981 1.479 . S
C979 H997 0.929 . S
C980 C977 1.424 . S
C980 C979 1.384 . S
C980 H998 0.928 . S
C981 C978 1.260 . S
C981 C979 1.479 . S
C982 C977 1.245 . S
C982 C978 1.477 . S
C982 H999 0.932 . S
C983 U966 2.882 . S
C983 C977 1.428 . S
C983 O986 1.301 . S
C983 O987 1.282 . S
O984 U966 2.441 . S
O984 C970 1.249 . S
O985 U966 2.420 . S
O985 C970 1.202 . S
O986 U966 2.455 . S
O986 C983 1.301 . S
O987 U966 2.449 . S
O987 C983 1.282 . S
H988 C961 0.931 . S
H989 C963 0.929 . S
H990 C964 0.930 . S
H991 C965 0.931 . S
H992 C972 0.932 . S
H993 C973 0.930 . S
H994 C974 0.929 . S
H995 C976 0.930 . S
H996 C978 0.932 . S
H997 C979 0.929 . S
H998 C980 0.928 . S
H999 C982 0.932 . S
C1000 C1001 1.264 . S
C1000 C1005 1.479 . S
C1000 C1010 1.465 . S
C1001 C1000 1.264 . S
C1001 C1003 1.339 . S
C1001 H1028 0.931 . S
C1002 C1003 1.395 . S
C1002 C1004 1.320 . S
C1003 C1001 1.339 . S
C1003 C1002 1.395 . S
C1003 H1029 0.929 . S
C1004 C1002 1.320 . S
C1004 C1005 1.405 . S
C1004 H1030 0.930 . S
C1005 C1000 1.479 . S
C1005 C1004 1.405 . S
C1005 H1031 0.931 . S
U1006 O1007 2.454 . S
U1006 O1008 2.458 . S
U1006 C1009 2.984 . S
U1006 C1010 2.847 . S
U1006 C1023 2.882 . S
U1006 O1024 2.441 . S
U1006 O1025 2.420 . S
U1006 O1026 2.455 . S
U1006 O1027 2.449 . S
O1007 U1006 2.454 . S
O1007 C1009 1.353 . S
O1008 U1006 2.458 . S
O1008 C1009 1.286 . S
C1009 U1006 2.984 . S
C1009 O1007 1.353 . S
C1009 O1008 1.286 . S
C1009 C1011 1.363 . S
C1010 C1000 1.465 . S
C1010 U1006 2.847 . S
C1010 O1024 1.249 . S
C1010 O1025 1.202 . S
C1011 C1009 1.363 . S
C1011 C1013 1.408 . S
C1011 C1016 1.342 . S
C1012 C1013 1.310 . S
C1012 C1015 1.461 . S
C1012 H1032 0.932 . S
C1013 C1011 1.408 . S
C1013 C1012 1.310 . S
C1013 H1033 0.930 . S
C1014 C1015 1.474 . S
C1014 C1016 1.285 . S
C1014 H1034 0.929 . S
C1015 C1012 1.461 . S
C1015 C1014 1.474 . S
C1016 C1011 1.342 . S
C1016 C1014 1.285 . S
C1016 H1035 0.930 . S
C1017 C1020 1.424 . S
C1017 C1022 1.245 . S
C1017 C1023 1.428 . S
C1018 C1021 1.260 . S
C1018 C1022 1.477 . S
C1018 H1036 0.932 . S
C1019 C1020 1.384 . S
C1019 C1021 1.479 . S
C1019 H1037 0.929 . S
C1020 C1017 1.424 . S
C1020 C1019 1.384 . S
C1020 H1038 0.928 . S
C1021 C1018 1.260 . S
C1021 C1019 1.479 . S
C1022 C1017 1.245 . S
C1022 C1018 1.477 . S
C1022 H1039 0.932 . S
C1023 U1006 2.882 . S
C1023 C1017 1.428 . S
C1023 O1026 1.301 . S
C1023 O1027 1.282 . S
O1024 U1006 2.441 . S
O1024 C1010 1.249 . S
O1025 U1006 2.420 . S
O1025 C1010 1.202 . S
O1026 U1006 2.455 . S
O1026 C1023 1.301 . S
O1027 U1006 2.449 . S
O1027 C1023 1.282 . S
H1028 C1001 0.931 . S
H1029 C1003 0.929 . S
H1030 C1004 0.930 . S
H1031 C1005 0.931 . S
H1032 C1012 0.932 . S
H1033 C1013 0.930 . S
H1034 C1014 0.929 . S
H1035 C1016 0.930 . S
H1036 C1018 0.932 . S
H1037 C1019 0.929 . S
H1038 C1020 0.928 . S
H1039 C1022 0.932 . S
C1040 C1041 1.264 . S
C1040 C1045 1.479 . S
C1040 C1050 1.465 . S
C1041 C1040 1.264 . S
C1041 C1043 1.339 . S
C1041 H1068 0.931 . S
C1042 C1043 1.395 . S
C1042 C1044 1.320 . S
C1043 C1041 1.339 . S
C1043 C1042 1.395 . S
C1043 H1069 0.929 . S
C1044 C1042 1.320 . S
C1044 C1045 1.405 . S
C1044 H1070 0.930 . S
C1045 C1040 1.479 . S
C1045 C1044 1.405 . S
C1045 H1071 0.931 . S
U1046 O1047 2.454 . S
U1046 O1048 2.458 . S
U1046 C1049 2.984 . S
U1046 C1050 2.847 . S
U1046 C1063 2.882 . S
U1046 O1064 2.441 . S
U1046 O1065 2.420 . S
U1046 O1066 2.455 . S
U1046 O1067 2.449 . S
O1047 U1046 2.454 . S
O1047 C1049 1.353 . S
O1048 U1046 2.458 . S
O1048 C1049 1.286 . S
C1049 U1046 2.984 . S
C1049 O1047 1.353 . S
C1049 O1048 1.286 . S
C1049 C1051 1.363 . S
C1050 C1040 1.465 . S
C1050 U1046 2.847 . S
C1050 O1064 1.249 . S
C1050 O1065 1.202 . S
C1051 C1049 1.363 . S
C1051 C1053 1.408 . S
C1051 C1056 1.342 . S
C1052 C1053 1.310 . S
C1052 C1055 1.461 . S
C1052 H1072 0.932 . S
C1053 C1051 1.408 . S
C1053 C1052 1.310 . S
C1053 H1073 0.930 . S
C1054 C1055 1.474 . S
C1054 C1056 1.285 . S
C1054 H1074 0.929 . S
C1055 C1052 1.461 . S
C1055 C1054 1.474 . S
C1056 C1051 1.342 . S
C1056 C1054 1.285 . S
C1056 H1075 0.930 . S
C1057 C1060 1.424 . S
C1057 C1062 1.245 . S
C1057 C1063 1.428 . S
C1058 C1061 1.260 . S
C1058 C1062 1.477 . S
C1058 H1076 0.932 . S
C1059 C1060 1.384 . S
C1059 C1061 1.479 . S
C1059 H1077 0.929 . S
C1060 C1057 1.424 . S
C1060 C1059 1.384 . S
C1060 H1078 0.928 . S
C1061 C1058 1.260 . S
C1061 C1059 1.479 . S
C1062 C1057 1.245 . S
C1062 C1058 1.477 . S
C1062 H1079 0.932 . S
C1063 U1046 2.882 . S
C1063 C1057 1.428 . S
C1063 O1066 1.301 . S
C1063 O1067 1.282 . S
O1064 U1046 2.441 . S
O1064 C1050 1.249 . S
O1065 U1046 2.420 . S
O1065 C1050 1.202 . S
O1066 U1046 2.455 . S
O1066 C1063 1.301 . S
O1067 U1046 2.449 . S
O1067 C1063 1.282 . S
H1068 C1041 0.931 . S
H1069 C1043 0.929 . S
H1070 C1044 0.930 . S
H1071 C1045 0.931 . S
H1072 C1052 0.932 . S
H1073 C1053 0.930 . S
H1074 C1054 0.929 . S
H1075 C1056 0.930 . S
H1076 C1058 0.932 . S
H1077 C1059 0.929 . S
H1078 C1060 0.928 . S
H1079 C1062 0.932 . S
C1080 C1081 1.264 . S
C1080 C1085 1.479 . S
C1080 C1090 1.465 . S
C1081 C1080 1.264 . S
C1081 C1083 1.339 . S
C1081 H1108 0.931 . S
C1082 C1083 1.395 . S
C1082 C1084 1.320 . S
C1083 C1081 1.339 . S
C1083 C1082 1.395 . S
C1083 H1109 0.929 . S
C1084 C1082 1.320 . S
C1084 C1085 1.405 . S
C1084 H1110 0.930 . S
C1085 C1080 1.479 . S
C1085 C1084 1.405 . S
C1085 H1111 0.931 . S
U1086 O1087 2.454 . S
U1086 O1088 2.458 . S
U1086 C1089 2.984 . S
U1086 C1090 2.847 . S
U1086 C1103 2.882 . S
U1086 O1104 2.441 . S
U1086 O1105 2.420 . S
U1086 O1106 2.455 . S
U1086 O1107 2.449 . S
O1087 U1086 2.454 . S
O1087 C1089 1.353 . S
O1088 U1086 2.458 . S
O1088 C1089 1.286 . S
C1089 U1086 2.984 . S
C1089 O1087 1.353 . S
C1089 O1088 1.286 . S
C1089 C1091 1.363 . S
C1090 C1080 1.465 . S
C1090 U1086 2.847 . S
C1090 O1104 1.249 . S
C1090 O1105 1.202 . S
C1091 C1089 1.363 . S
C1091 C1093 1.408 . S
C1091 C1096 1.342 . S
C1092 C1093 1.310 . S
C1092 C1095 1.461 . S
C1092 H1112 0.932 . S
C1093 C1091 1.408 . S
C1093 C1092 1.310 . S
C1093 H1113 0.930 . S
C1094 C1095 1.474 . S
C1094 C1096 1.285 . S
C1094 H1114 0.929 . S
C1095 C1092 1.461 . S
C1095 C1094 1.474 . S
C1096 C1091 1.342 . S
C1096 C1094 1.285 . S
C1096 H1115 0.930 . S
C1097 C1100 1.424 . S
C1097 C1102 1.245 . S
C1097 C1103 1.428 . S
C1098 C1101 1.260 . S
C1098 C1102 1.477 . S
C1098 H1116 0.932 . S
C1099 C1100 1.384 . S
C1099 C1101 1.479 . S
C1099 H1117 0.929 . S
C1100 C1097 1.424 . S
C1100 C1099 1.384 . S
C1100 H1118 0.928 . S
C1101 C1098 1.260 . S
C1101 C1099 1.479 . S
C1102 C1097 1.245 . S
C1102 C1098 1.477 . S
C1102 H1119 0.932 . S
C1103 U1086 2.882 . S
C1103 C1097 1.428 . S
C1103 O1106 1.301 . S
C1103 O1107 1.282 . S
O1104 U1086 2.441 . S
O1104 C1090 1.249 . S
O1105 U1086 2.420 . S
O1105 C1090 1.202 . S
O1106 U1086 2.455 . S
O1106 C1103 1.301 . S
O1107 U1086 2.449 . S
O1107 C1103 1.282 . S
H1108 C1081 0.931 . S
H1109 C1083 0.929 . S
H1110 C1084 0.930 . S
H1111 C1085 0.931 . S
H1112 C1092 0.932 . S
H1113 C1093 0.930 . S
H1114 C1094 0.929 . S
H1115 C1096 0.930 . S
H1116 C1098 0.932 . S
H1117 C1099 0.929 . S
H1118 C1100 0.928 . S
H1119 C1102 0.932 . S
C1120 C1121 1.264 . S
C1120 C1125 1.479 . S
C1120 C1130 1.465 . S
C1121 C1120 1.264 . S
C1121 C1123 1.339 . S
C1121 H1148 0.931 . S
C1122 C1123 1.395 . S
C1122 C1124 1.320 . S
C1123 C1121 1.339 . S
C1123 C1122 1.395 . S
C1123 H1149 0.929 . S
C1124 C1122 1.320 . S
C1124 C1125 1.405 . S
C1124 H1150 0.930 . S
C1125 C1120 1.479 . S
C1125 C1124 1.405 . S
C1125 H1151 0.931 . S
U1126 O1127 2.454 . S
U1126 O1128 2.458 . S
U1126 C1129 2.984 . S
U1126 C1130 2.847 . S
U1126 C1143 2.882 . S
U1126 O1144 2.441 . S
U1126 O1145 2.420 . S
U1126 O1146 2.455 . S
U1126 O1147 2.449 . S
O1127 U1126 2.454 . S
O1127 C1129 1.353 . S
O1128 U1126 2.458 . S
O1128 C1129 1.286 . S
C1129 U1126 2.984 . S
C1129 O1127 1.353 . S
C1129 O1128 1.286 . S
C1129 C1131 1.363 . S
C1130 C1120 1.465 . S
C1130 U1126 2.847 . S
C1130 O1144 1.249 . S
C1130 O1145 1.202 . S
C1131 C1129 1.363 . S
C1131 C1133 1.408 . S
C1131 C1136 1.342 . S
C1132 C1133 1.310 . S
C1132 C1135 1.461 . S
C1132 H1152 0.932 . S
C1133 C1131 1.408 . S
C1133 C1132 1.310 . S
C1133 H1153 0.930 . S
C1134 C1135 1.474 . S
C1134 C1136 1.285 . S
C1134 H1154 0.929 . S
C1135 C1132 1.461 . S
C1135 C1134 1.474 . S
C1136 C1131 1.342 . S
C1136 C1134 1.285 . S
C1136 H1155 0.930 . S
C1137 C1140 1.424 . S
C1137 C1142 1.245 . S
C1137 C1143 1.428 . S
C1138 C1141 1.260 . S
C1138 C1142 1.477 . S
C1138 H1156 0.932 . S
C1139 C1140 1.384 . S
C1139 C1141 1.479 . S
C1139 H1157 0.929 . S
C1140 C1137 1.424 . S
C1140 C1139 1.384 . S
C1140 H1158 0.928 . S
C1141 C1138 1.260 . S
C1141 C1139 1.479 . S
C1142 C1137 1.245 . S
C1142 C1138 1.477 . S
C1142 H1159 0.932 . S
C1143 U1126 2.882 . S
C1143 C1137 1.428 . S
C1143 O1146 1.301 . S
C1143 O1147 1.282 . S
O1144 U1126 2.441 . S
O1144 C1130 1.249 . S
O1145 U1126 2.420 . S
O1145 C1130 1.202 . S
O1146 U1126 2.455 . S
O1146 C1143 1.301 . S
O1147 U1126 2.449 . S
O1147 C1143 1.282 . S
H1148 C1121 0.931 . S
H1149 C1123 0.929 . S
H1150 C1124 0.930 . S
H1151 C1125 0.931 . S
H1152 C1132 0.932 . S
H1153 C1133 0.930 . S
H1154 C1134 0.929 . S
H1155 C1136 0.930 . S
H1156 C1138 0.932 . S
H1157 C1139 0.929 . S
H1158 C1140 0.928 . S
H1159 C1142 0.932 . S
C1160 C1161 1.264 . S
C1160 C1165 1.479 . S
C1160 C1170 1.465 . S
C1161 C1160 1.264 . S
C1161 C1163 1.339 . S
C1161 H1188 0.931 . S
C1162 C1163 1.395 . S
C1162 C1164 1.320 . S
C1163 C1161 1.339 . S
C1163 C1162 1.395 . S
C1163 H1189 0.929 . S
C1164 C1162 1.320 . S
C1164 C1165 1.405 . S
C1164 H1190 0.930 . S
C1165 C1160 1.479 . S
C1165 C1164 1.405 . S
C1165 H1191 0.931 . S
U1166 O1167 2.454 . S
U1166 O1168 2.458 . S
U1166 C1169 2.984 . S
U1166 C1170 2.847 . S
U1166 C1183 2.882 . S
U1166 O1184 2.441 . S
U1166 O1185 2.420 . S
U1166 O1186 2.455 . S
U1166 O1187 2.449 . S
O1167 U1166 2.454 . S
O1167 C1169 1.353 . S
O1168 U1166 2.458 . S
O1168 C1169 1.286 . S
C1169 U1166 2.984 . S
C1169 O1167 1.353 . S
C1169 O1168 1.286 . S
C1169 C1171 1.363 . S
C1170 C1160 1.465 . S
C1170 U1166 2.847 . S
C1170 O1184 1.249 . S
C1170 O1185 1.202 . S
C1171 C1169 1.363 . S
C1171 C1173 1.408 . S
C1171 C1176 1.342 . S
C1172 C1173 1.310 . S
C1172 C1175 1.461 . S
C1172 H1192 0.932 . S
C1173 C1171 1.408 . S
C1173 C1172 1.310 . S
C1173 H1193 0.930 . S
C1174 C1175 1.474 . S
C1174 C1176 1.285 . S
C1174 H1194 0.929 . S
C1175 C1172 1.461 . S
C1175 C1174 1.474 . S
C1176 C1171 1.342 . S
C1176 C1174 1.285 . S
C1176 H1195 0.930 . S
C1177 C1180 1.424 . S
C1177 C1182 1.245 . S
C1177 C1183 1.428 . S
C1178 C1181 1.260 . S
C1178 C1182 1.477 . S
C1178 H1196 0.932 . S
C1179 C1180 1.384 . S
C1179 C1181 1.479 . S
C1179 H1197 0.929 . S
C1180 C1177 1.424 . S
C1180 C1179 1.384 . S
C1180 H1198 0.928 . S
C1181 C1178 1.260 . S
C1181 C1179 1.479 . S
C1182 C1177 1.245 . S
C1182 C1178 1.477 . S
C1182 H1199 0.932 . S
C1183 U1166 2.882 . S
C1183 C1177 1.428 . S
C1183 O1186 1.301 . S
C1183 O1187 1.282 . S
O1184 U1166 2.441 . S
O1184 C1170 1.249 . S
O1185 U1166 2.420 . S
O1185 C1170 1.202 . S
O1186 U1166 2.455 . S
O1186 C1183 1.301 . S
O1187 U1166 2.449 . S
O1187 C1183 1.282 . S
H1188 C1161 0.931 . S
H1189 C1163 0.929 . S
H1190 C1164 0.930 . S
H1191 C1165 0.931 . S
H1192 C1172 0.932 . S
H1193 C1173 0.930 . S
H1194 C1174 0.929 . S
H1195 C1176 0.930 . S
H1196 C1178 0.932 . S
H1197 C1179 0.929 . S
H1198 C1180 0.928 . S
H1199 C1182 0.932 . S
C1200 C1201 1.264 . S
C1200 C1205 1.479 . S
C1200 C1210 1.465 . S
C1201 C1200 1.264 . S
C1201 C1203 1.339 . S
C1201 H1228 0.931 . S
C1202 C1203 1.395 . S
C1202 C1204 1.320 . S
C1203 C1201 1.339 . S
C1203 C1202 1.395 . S
C1203 H1229 0.929 . S
C1204 C1202 1.320 . S
C1204 C1205 1.405 . S
C1204 H1230 0.930 . S
C1205 C1200 1.479 . S
C1205 C1204 1.405 . S
C1205 H1231 0.931 . S
U1206 O1207 2.454 . S
U1206 O1208 2.458 . S
U1206 C1209 2.984 . S
U1206 C1210 2.847 . S
U1206 C1223 2.882 . S
U1206 O1224 2.441 . S
U1206 O1225 2.420 . S
U1206 O1226 2.455 . S
U1206 O1227 2.449 . S
O1207 U1206 2.454 . S
O1207 C1209 1.353 . S
O1208 U1206 2.458 . S
O1208 C1209 1.286 . S
C1209 U1206 2.984 . S
C1209 O1207 1.353 . S
C1209 O1208 1.286 . S
C1209 C1211 1.363 . S
C1210 C1200 1.465 . S
C1210 U1206 2.847 . S
C1210 O1224 1.249 . S
C1210 O1225 1.202 . S
C1211 C1209 1.363 . S
C1211 C1213 1.408 . S
C1211 C1216 1.342 . S
C1212 C1213 1.310 . S
C1212 C1215 1.461 . S
C1212 H1232 0.932 . S
C1213 C1211 1.408 . S
C1213 C1212 1.310 . S
C1213 H1233 0.930 . S
C1214 C1215 1.474 . S
C1214 C1216 1.285 . S
C1214 H1234 0.929 . S
C1215 C1212 1.461 . S
C1215 C1214 1.474 . S
C1216 C1211 1.342 . S
C1216 C1214 1.285 . S
C1216 H1235 0.930 . S
C1217 C1220 1.424 . S
C1217 C1222 1.245 . S
C1217 C1223 1.428 . S
C1218 C1221 1.260 . S
C1218 C1222 1.477 . S
C1218 H1236 0.932 . S
C1219 C1220 1.384 . S
C1219 C1221 1.479 . S
C1219 H1237 0.929 . S
C1220 C1217 1.424 . S
C1220 C1219 1.384 . S
C1220 H1238 0.928 . S
C1221 C1218 1.260 . S
C1221 C1219 1.479 . S
C1222 C1217 1.245 . S
C1222 C1218 1.477 . S
C1222 H1239 0.932 . S
C1223 U1206 2.882 . S
C1223 C1217 1.428 . S
C1223 O1226 1.301 . S
C1223 O1227 1.282 . S
O1224 U1206 2.441 . S
O1224 C1210 1.249 . S
O1225 U1206 2.420 . S
O1225 C1210 1.202 . S
O1226 U1206 2.455 . S
O1226 C1223 1.301 . S
O1227 U1206 2.449 . S
O1227 C1223 1.282 . S
H1228 C1201 0.931 . S
H1229 C1203 0.929 . S
H1230 C1204 0.930 . S
H1231 C1205 0.931 . S
H1232 C1212 0.932 . S
H1233 C1213 0.930 . S
H1234 C1214 0.929 . S
H1235 C1216 0.930 . S
H1236 C1218 0.932 . S
H1237 C1219 0.929 . S
H1238 C1220 0.928 . S
H1239 C1222 0.932 . S
C1240 C1241 1.264 . S
C1240 C1245 1.479 . S
C1240 C1250 1.465 . S
C1241 C1240 1.264 . S
C1241 C1243 1.339 . S
C1241 H1268 0.931 . S
C1242 C1243 1.395 . S
C1242 C1244 1.320 . S
C1243 C1241 1.339 . S
C1243 C1242 1.395 . S
C1243 H1269 0.929 . S
C1244 C1242 1.320 . S
C1244 C1245 1.405 . S
C1244 H1270 0.930 . S
C1245 C1240 1.479 . S
C1245 C1244 1.405 . S
C1245 H1271 0.931 . S
U1246 O1247 2.454 . S
U1246 O1248 2.458 . S
U1246 C1249 2.984 . S
U1246 C1250 2.847 . S
U1246 C1263 2.882 . S
U1246 O1264 2.441 . S
U1246 O1265 2.420 . S
U1246 O1266 2.455 . S
U1246 O1267 2.449 . S
O1247 U1246 2.454 . S
O1247 C1249 1.353 . S
O1248 U1246 2.458 . S
O1248 C1249 1.286 . S
C1249 U1246 2.984 . S
C1249 O1247 1.353 . S
C1249 O1248 1.286 . S
C1249 C1251 1.363 . S
C1250 C1240 1.465 . S
C1250 U1246 2.847 . S
C1250 O1264 1.249 . S
C1250 O1265 1.202 . S
C1251 C1249 1.363 . S
C1251 C1253 1.408 . S
C1251 C1256 1.342 . S
C1252 C1253 1.310 . S
C1252 C1255 1.461 . S
C1252 H1272 0.932 . S
C1253 C1251 1.408 . S
C1253 C1252 1.310 . S
C1253 H1273 0.930 . S
C1254 C1255 1.474 . S
C1254 C1256 1.285 . S
C1254 H1274 0.929 . S
C1255 C1252 1.461 . S
C1255 C1254 1.474 . S
C1256 C1251 1.342 . S
C1256 C1254 1.285 . S
C1256 H1275 0.930 . S
C1257 C1260 1.424 . S
C1257 C1262 1.245 . S
C1257 C1263 1.428 . S
C1258 C1261 1.260 . S
C1258 C1262 1.477 . S
C1258 H1276 0.932 . S
C1259 C1260 1.384 . S
C1259 C1261 1.479 . S
C1259 H1277 0.929 . S
C1260 C1257 1.424 . S
C1260 C1259 1.384 . S
C1260 H1278 0.928 . S
C1261 C1258 1.260 . S
C1261 C1259 1.479 . S
C1262 C1257 1.245 . S
C1262 C1258 1.477 . S
C1262 H1279 0.932 . S
C1263 U1246 2.882 . S
C1263 C1257 1.428 . S
C1263 O1266 1.301 . S
C1263 O1267 1.282 . S
O1264 U1246 2.441 . S
O1264 C1250 1.249 . S
O1265 U1246 2.420 . S
O1265 C1250 1.202 . S
O1266 U1246 2.455 . S
O1266 C1263 1.301 . S
O1267 U1246 2.449 . S
O1267 C1263 1.282 . S
H1268 C1241 0.931 . S
H1269 C1243 0.929 . S
H1270 C1244 0.930 . S
H1271 C1245 0.931 . S
H1272 C1252 0.932 . S
H1273 C1253 0.930 . S
H1274 C1254 0.929 . S
H1275 C1256 0.930 . S
H1276 C1258 0.932 . S
H1277 C1259 0.929 . S
H1278 C1260 0.928 . S
H1279 C1262 0.932 . S
C1280 C1281 1.384 . S
C1280 C1282 1.384 . S
C1280 H1308 0.931 . S
C1281 C1280 1.384 . S
C1281 C1284 1.382 . S
C1282 C1280 1.384 . S
C1282 C1283 1.381 . S
C1282 H1309 0.930 . S
C1283 C1282 1.381 . S
C1283 C1285 1.381 . S
C1283 C1286 1.487 . S
C1284 C1281 1.382 . S
C1284 C1285 1.387 . S
C1284 H1310 0.930 . S
C1285 C1283 1.381 . S
C1285 C1284 1.387 . S
C1285 H1311 0.931 . S
C1286 C1283 1.487 . S
C1286 C1293 1.399 . S
C1286 N1324 1.343 . S
C1287 C1288 1.384 . S
C1287 C1289 1.384 . S
C1287 H1312 0.931 . S
C1288 C1287 1.384 . S
C1288 C1291 1.382 . S
C1289 C1287 1.384 . S
C1289 C1290 1.381 . S
C1289 H1313 0.930 . S
C1290 C1289 1.381 . S
C1290 C1292 1.381 . S
C1290 C1293 1.487 . S
C1291 C1288 1.382 . S
C1291 C1292 1.387 . S
C1291 H1314 0.930 . S
C1292 C1290 1.381 . S
C1292 C1291 1.387 . S
C1292 H1315 0.931 . S
C1293 C1286 1.399 . S
C1293 C1290 1.487 . S
C1293 N1325 1.343 . S
C1294 C1295 1.384 . S
C1294 C1296 1.384 . S
C1294 H1316 0.931 . S
C1295 C1294 1.384 . S
C1295 C1298 1.382 . S
C1296 C1294 1.384 . S
C1296 C1297 1.381 . S
C1296 H1317 0.930 . S
C1297 C1296 1.381 . S
C1297 C1299 1.381 . S
C1297 C1300 1.487 . S
C1298 C1295 1.382 . S
C1298 C1299 1.387 . S
C1298 H1318 0.930 . S
C1299 C1297 1.381 . S
C1299 C1298 1.387 . S
C1299 H1319 0.931 . S
C1300 C1297 1.487 . S
C1300 C1307 1.399 . S
C1300 N1325 1.343 1_556 S
C1301 C1302 1.384 . S
C1301 C1303 1.384 . S
C1301 H1320 0.931 . S
C1302 C1301 1.384 . S
C1302 C1305 1.382 . S
C1303 C1301 1.384 . S
C1303 C1304 1.381 . S
C1303 H1321 0.930 . S
C1304 C1303 1.381 . S
C1304 C1306 1.381 . S
C1304 C1307 1.487 . S
C1305 C1302 1.382 . S
C1305 C1306 1.387 . S
C1305 H1322 0.930 . S
C1306 C1304 1.381 . S
C1306 C1305 1.387 . S
C1306 H1323 0.931 . S
C1307 C1300 1.399 . S
C1307 C1304 1.487 . S
C1307 N1324 1.343 1_556 S
H1308 C1280 0.931 . S
H1309 C1282 0.930 . S
H1310 C1284 0.930 . S
H1311 C1285 0.931 . S
H1312 C1287 0.931 . S
H1313 C1289 0.930 . S
H1314 C1291 0.930 . S
H1315 C1292 0.931 . S
H1316 C1294 0.931 . S
H1317 C1296 0.930 . S
H1318 C1298 0.930 . S
H1319 C1299 0.931 . S
H1320 C1301 0.931 . S
H1321 C1303 0.930 . S
H1322 C1305 0.930 . S
H1323 C1306 0.931 . S
N1324 C1286 1.343 . S
N1324 C1307 1.343 1_554 S
N1325 C1293 1.343 . S
N1325 C1300 1.343 1_554 S
C1326 C1327 1.384 . S
C1326 C1328 1.384 . S
C1326 H1354 0.931 . S
C1327 C1326 1.384 . S
C1327 C1330 1.382 . S
C1328 C1326 1.384 . S
C1328 C1329 1.381 . S
C1328 H1355 0.930 . S
C1329 C1328 1.381 . S
C1329 C1331 1.381 . S
C1329 C1332 1.487 . S
C1330 C1327 1.382 . S
C1330 C1331 1.387 . S
C1330 H1356 0.930 . S
C1331 C1329 1.381 . S
C1331 C1330 1.387 . S
C1331 H1357 0.931 . S
C1332 C1329 1.487 . S
C1332 C1339 1.399 . S
C1332 N1370 1.343 1_556 S
C1333 C1334 1.384 . S
C1333 C1335 1.384 . S
C1333 H1358 0.931 . S
C1334 C1333 1.384 . S
C1334 C1337 1.382 . S
C1335 C1333 1.384 . S
C1335 C1336 1.381 . S
C1335 H1359 0.930 . S
C1336 C1335 1.381 . S
C1336 C1338 1.381 . S
C1336 C1339 1.487 . S
C1337 C1334 1.382 . S
C1337 C1338 1.387 . S
C1337 H1360 0.930 . S
C1338 C1336 1.381 . S
C1338 C1337 1.387 . S
C1338 H1361 0.931 . S
C1339 C1332 1.399 . S
C1339 C1336 1.487 . S
C1339 N1371 1.343 1_556 S
C1340 C1341 1.384 . S
C1340 C1342 1.384 . S
C1340 H1362 0.931 . S
C1341 C1340 1.384 . S
C1341 C1344 1.382 . S
C1342 C1340 1.384 . S
C1342 C1343 1.381 . S
C1342 H1363 0.930 . S
C1343 C1342 1.381 . S
C1343 C1345 1.381 . S
C1343 C1346 1.487 . S
C1344 C1341 1.382 . S
C1344 C1345 1.387 . S
C1344 H1364 0.930 . S
C1345 C1343 1.381 . S
C1345 C1344 1.387 . S
C1345 H1365 0.931 . S
C1346 C1343 1.487 . S
C1346 C1353 1.399 . S
C1346 N1371 1.343 . S
C1347 C1348 1.384 . S
C1347 C1349 1.384 . S
C1347 H1366 0.931 . S
C1348 C1347 1.384 . S
C1348 C1351 1.382 . S
C1349 C1347 1.384 . S
C1349 C1350 1.381 . S
C1349 H1367 0.930 . S
C1350 C1349 1.381 . S
C1350 C1352 1.381 . S
C1350 C1353 1.487 . S
C1351 C1348 1.382 . S
C1351 C1352 1.387 . S
C1351 H1368 0.930 . S
C1352 C1350 1.381 . S
C1352 C1351 1.387 . S
C1352 H1369 0.931 . S
C1353 C1346 1.399 . S
C1353 C1350 1.487 . S
C1353 N1370 1.343 . S
H1354 C1326 0.931 . S
H1355 C1328 0.930 . S
H1356 C1330 0.930 . S
H1357 C1331 0.931 . S
H1358 C1333 0.931 . S
H1359 C1335 0.930 . S
H1360 C1337 0.930 . S
H1361 C1338 0.931 . S
H1362 C1340 0.931 . S
H1363 C1342 0.930 . S
H1364 C1344 0.930 . S
H1365 C1345 0.931 . S
H1366 C1347 0.931 . S
H1367 C1349 0.930 . S
H1368 C1351 0.930 . S
H1369 C1352 0.931 . S
N1370 C1332 1.343 1_554 S
N1370 C1353 1.343 . S
N1371 C1339 1.343 1_554 S
N1371 C1346 1.343 . S
C1372 C1373 1.384 . S
C1372 C1374 1.384 . S
C1372 H1400 0.931 . S
C1373 C1372 1.384 . S
C1373 C1376 1.382 . S
C1374 C1372 1.384 . S
C1374 C1375 1.381 . S
C1374 H1401 0.930 . S
C1375 C1374 1.381 . S
C1375 C1377 1.381 . S
C1375 C1378 1.487 . S
C1376 C1373 1.382 . S
C1376 C1377 1.387 . S
C1376 H1402 0.930 . S
C1377 C1375 1.381 . S
C1377 C1376 1.387 . S
C1377 H1403 0.931 . S
C1378 C1375 1.487 . S
C1378 C1385 1.399 . S
C1378 N1416 1.343 . S
C1379 C1380 1.384 . S
C1379 C1381 1.384 . S
C1379 H1404 0.931 . S
C1380 C1379 1.384 . S
C1380 C1383 1.382 . S
C1381 C1379 1.384 . S
C1381 C1382 1.381 . S
C1381 H1405 0.930 . S
C1382 C1381 1.381 . S
C1382 C1384 1.381 . S
C1382 C1385 1.487 . S
C1383 C1380 1.382 . S
C1383 C1384 1.387 . S
C1383 H1406 0.930 . S
C1384 C1382 1.381 . S
C1384 C1383 1.387 . S
C1384 H1407 0.931 . S
C1385 C1378 1.399 . S
C1385 C1382 1.487 . S
C1385 N1417 1.343 . S
C1386 C1387 1.384 . S
C1386 C1388 1.384 . S
C1386 H1408 0.931 . S
C1387 C1386 1.384 . S
C1387 C1390 1.382 . S
C1388 C1386 1.384 . S
C1388 C1389 1.381 . S
C1388 H1409 0.930 . S
C1389 C1388 1.381 . S
C1389 C1391 1.381 . S
C1389 C1392 1.487 . S
C1390 C1387 1.382 . S
C1390 C1391 1.387 . S
C1390 H1410 0.930 . S
C1391 C1389 1.381 . S
C1391 C1390 1.387 . S
C1391 H1411 0.931 . S
C1392 C1389 1.487 . S
C1392 C1399 1.399 . S
C1392 N1417 1.343 1_556 S
C1393 C1394 1.384 . S
C1393 C1395 1.384 . S
C1393 H1412 0.931 . S
C1394 C1393 1.384 . S
C1394 C1397 1.382 . S
C1395 C1393 1.384 . S
C1395 C1396 1.381 . S
C1395 H1413 0.930 . S
C1396 C1395 1.381 . S
C1396 C1398 1.381 . S
C1396 C1399 1.487 . S
C1397 C1394 1.382 . S
C1397 C1398 1.387 . S
C1397 H1414 0.930 . S
C1398 C1396 1.381 . S
C1398 C1397 1.387 . S
C1398 H1415 0.931 . S
C1399 C1392 1.399 . S
C1399 C1396 1.487 . S
C1399 N1416 1.343 1_556 S
H1400 C1372 0.931 . S
H1401 C1374 0.930 . S
H1402 C1376 0.930 . S
H1403 C1377 0.931 . S
H1404 C1379 0.931 . S
H1405 C1381 0.930 . S
H1406 C1383 0.930 . S
H1407 C1384 0.931 . S
H1408 C1386 0.931 . S
H1409 C1388 0.930 . S
H1410 C1390 0.930 . S
H1411 C1391 0.931 . S
H1412 C1393 0.931 . S
H1413 C1395 0.930 . S
H1414 C1397 0.930 . S
H1415 C1398 0.931 . S
N1416 C1378 1.343 . S
N1416 C1399 1.343 1_554 S
N1417 C1385 1.343 . S
N1417 C1392 1.343 1_554 S
C1418 C1419 1.384 . S
C1418 C1420 1.384 . S
C1418 H1446 0.931 . S
C1419 C1418 1.384 . S
C1419 C1422 1.382 . S
C1420 C1418 1.384 . S
C1420 C1421 1.381 . S
C1420 H1447 0.930 . S
C1421 C1420 1.381 . S
C1421 C1423 1.381 . S
C1421 C1424 1.487 . S
C1422 C1419 1.382 . S
C1422 C1423 1.387 . S
C1422 H1448 0.930 . S
C1423 C1421 1.381 . S
C1423 C1422 1.387 . S
C1423 H1449 0.931 . S
C1424 C1421 1.487 . S
C1424 C1431 1.399 . S
C1424 N1462 1.343 1_556 S
C1425 C1426 1.384 . S
C1425 C1427 1.384 . S
C1425 H1450 0.931 . S
C1426 C1425 1.384 . S
C1426 C1429 1.382 . S
C1427 C1425 1.384 . S
C1427 C1428 1.381 . S
C1427 H1451 0.930 . S
C1428 C1427 1.381 . S
C1428 C1430 1.381 . S
C1428 C1431 1.487 . S
C1429 C1426 1.382 . S
C1429 C1430 1.387 . S
C1429 H1452 0.930 . S
C1430 C1428 1.381 . S
C1430 C1429 1.387 . S
C1430 H1453 0.931 . S
C1431 C1424 1.399 . S
C1431 C1428 1.487 . S
C1431 N1463 1.343 1_556 S
C1432 C1433 1.384 . S
C1432 C1434 1.384 . S
C1432 H1454 0.931 . S
C1433 C1432 1.384 . S
C1433 C1436 1.382 . S
C1434 C1432 1.384 . S
C1434 C1435 1.381 . S
C1434 H1455 0.930 . S
C1435 C1434 1.381 . S
C1435 C1437 1.381 . S
C1435 C1438 1.487 . S
C1436 C1433 1.382 . S
C1436 C1437 1.387 . S
C1436 H1456 0.930 . S
C1437 C1435 1.381 . S
C1437 C1436 1.387 . S
C1437 H1457 0.931 . S
C1438 C1435 1.487 . S
C1438 C1445 1.399 . S
C1438 N1463 1.343 . S
C1439 C1440 1.384 . S
C1439 C1441 1.384 . S
C1439 H1458 0.931 . S
C1440 C1439 1.384 . S
C1440 C1443 1.382 . S
C1441 C1439 1.384 . S
C1441 C1442 1.381 . S
C1441 H1459 0.930 . S
C1442 C1441 1.381 . S
C1442 C1444 1.381 . S
C1442 C1445 1.487 . S
C1443 C1440 1.382 . S
C1443 C1444 1.387 . S
C1443 H1460 0.930 . S
C1444 C1442 1.381 . S
C1444 C1443 1.387 . S
C1444 H1461 0.931 . S
C1445 C1438 1.399 . S
C1445 C1442 1.487 . S
C1445 N1462 1.343 . S
H1446 C1418 0.931 . S
H1447 C1420 0.930 . S
H1448 C1422 0.930 . S
H1449 C1423 0.931 . S
H1450 C1425 0.931 . S
H1451 C1427 0.930 . S
H1452 C1429 0.930 . S
H1453 C1430 0.931 . S
H1454 C1432 0.931 . S
H1455 C1434 0.930 . S
H1456 C1436 0.930 . S
H1457 C1437 0.931 . S
H1458 C1439 0.931 . S
H1459 C1441 0.930 . S
H1460 C1443 0.930 . S
H1461 C1444 0.931 . S
N1462 C1424 1.343 1_554 S
N1462 C1445 1.343 . S
N1463 C1431 1.343 1_554 S
N1463 C1438 1.343 . S
C1464 C1465 1.384 . S
C1464 C1466 1.384 . S
C1464 H1492 0.931 . S
C1465 C1464 1.384 . S
C1465 C1468 1.382 . S
C1466 C1464 1.384 . S
C1466 C1467 1.381 . S
C1466 H1493 0.930 . S
C1467 C1466 1.381 . S
C1467 C1469 1.381 . S
C1467 C1470 1.487 . S
C1468 C1465 1.382 . S
C1468 C1469 1.387 . S
C1468 H1494 0.930 . S
C1469 C1467 1.381 . S
C1469 C1468 1.387 . S
C1469 H1495 0.931 . S
C1470 C1467 1.487 . S
C1470 C1477 1.399 . S
C1470 N1508 1.343 1_655 S
C1471 C1472 1.384 . S
C1471 C1473 1.384 . S
C1471 H1496 0.931 . S
C1472 C1471 1.384 . S
C1472 C1475 1.382 . S
C1473 C1471 1.384 . S
C1473 C1474 1.381 . S
C1473 H1497 0.930 . S
C1474 C1473 1.381 . S
C1474 C1476 1.381 . S
C1474 C1477 1.487 . S
C1475 C1472 1.382 . S
C1475 C1476 1.387 . S
C1475 H1498 0.930 . S
C1476 C1474 1.381 . S
C1476 C1475 1.387 . S
C1476 H1499 0.931 . S
C1477 C1470 1.399 . S
C1477 C1474 1.487 . S
C1477 N1509 1.343 1_655 S
C1478 C1479 1.384 . S
C1478 C1480 1.384 . S
C1478 H1500 0.931 . S
C1479 C1478 1.384 . S
C1479 C1482 1.382 . S
C1480 C1478 1.384 . S
C1480 C1481 1.381 . S
C1480 H1501 0.930 . S
C1481 C1480 1.381 . S
C1481 C1483 1.381 . S
C1481 C1484 1.487 . S
C1482 C1479 1.382 . S
C1482 C1483 1.387 . S
C1482 H1502 0.930 . S
C1483 C1481 1.381 . S
C1483 C1482 1.387 . S
C1483 H1503 0.931 . S
C1484 C1481 1.487 . S
C1484 C1491 1.399 . S
C1484 N1509 1.343 . S
C1485 C1486 1.384 . S
C1485 C1487 1.384 . S
C1485 H1504 0.931 . S
C1486 C1485 1.384 . S
C1486 C1489 1.382 . S
C1487 C1485 1.384 . S
C1487 C1488 1.381 . S
C1487 H1505 0.930 . S
C1488 C1487 1.381 . S
C1488 C1490 1.381 . S
C1488 C1491 1.487 . S
C1489 C1486 1.382 . S
C1489 C1490 1.387 . S
C1489 H1506 0.930 . S
C1490 C1488 1.381 . S
C1490 C1489 1.387 . S
C1490 H1507 0.931 . S
C1491 C1484 1.399 . S
C1491 C1488 1.487 . S
C1491 N1508 1.343 . S
H1492 C1464 0.931 . S
H1493 C1466 0.930 . S
H1494 C1468 0.930 . S
H1495 C1469 0.931 . S
H1496 C1471 0.931 . S
H1497 C1473 0.930 . S
H1498 C1475 0.930 . S
H1499 C1476 0.931 . S
H1500 C1478 0.931 . S
H1501 C1480 0.930 . S
H1502 C1482 0.930 . S
H1503 C1483 0.931 . S
H1504 C1485 0.931 . S
H1505 C1487 0.930 . S
H1506 C1489 0.930 . S
H1507 C1490 0.931 . S
N1508 C1470 1.343 1_455 S
N1508 C1491 1.343 . S
N1509 C1477 1.343 1_455 S
N1509 C1484 1.343 . S
C1510 C1511 1.384 . S
C1510 C1512 1.384 . S
C1510 H1538 0.931 . S
C1511 C1510 1.384 . S
C1511 C1514 1.382 . S
C1512 C1510 1.384 . S
C1512 C1513 1.381 . S
C1512 H1539 0.930 . S
C1513 C1512 1.381 . S
C1513 C1515 1.381 . S
C1513 C1516 1.487 . S
C1514 C1511 1.382 . S
C1514 C1515 1.387 . S
C1514 H1540 0.930 . S
C1515 C1513 1.381 . S
C1515 C1514 1.387 . S
C1515 H1541 0.931 . S
C1516 C1513 1.487 . S
C1516 C1523 1.399 . S
C1516 N1554 1.282 1_565 S
C1517 C1518 1.384 . S
C1517 C1519 1.384 . S
C1517 H1542 0.931 . S
C1518 C1517 1.384 . S
C1518 C1521 1.382 . S
C1519 C1517 1.384 . S
C1519 C1520 1.381 . S
C1519 H1543 0.930 . S
C1520 C1519 1.381 . S
C1520 C1522 1.381 . S
C1520 C1523 1.487 . S
C1521 C1518 1.382 . S
C1521 C1522 1.387 . S
C1521 H1544 0.930 . S
C1522 C1520 1.381 . S
C1522 C1521 1.387 . S
C1522 H1545 0.931 . S
C1523 C1516 1.399 . S
C1523 C1520 1.487 . S
C1523 N1555 1.343 1_565 S
C1524 C1525 1.384 . S
C1524 C1526 1.384 . S
C1524 H1546 0.931 . S
C1525 C1524 1.384 . S
C1525 C1528 1.382 . S
C1526 C1524 1.384 . S
C1526 C1527 1.381 . S
C1526 H1547 0.930 . S
C1527 C1526 1.381 . S
C1527 C1529 1.381 . S
C1527 C1530 1.487 . S
C1528 C1525 1.382 . S
C1528 C1529 1.387 . S
C1528 H1548 0.930 . S
C1529 C1527 1.381 . S
C1529 C1528 1.387 . S
C1529 H1549 0.931 . S
C1530 C1527 1.487 . S
C1530 C1537 1.399 . S
C1530 N1555 1.343 . S
C1531 C1532 1.384 . S
C1531 C1533 1.384 . S
C1531 H1550 0.931 . S
C1532 C1531 1.384 . S
C1532 C1535 1.382 . S
C1533 C1531 1.384 . S
C1533 C1534 1.381 . S
C1533 H1551 0.930 . S
C1534 C1533 1.381 . S
C1534 C1536 1.381 . S
C1534 C1537 1.487 . S
C1535 C1532 1.382 . S
C1535 C1536 1.387 . S
C1535 H1552 0.930 . S
C1536 C1534 1.381 . S
C1536 C1535 1.387 . S
C1536 H1553 0.931 . S
C1537 C1530 1.399 . S
C1537 C1534 1.487 . S
C1537 N1554 1.405 . S
H1538 C1510 0.931 . S
H1539 C1512 0.930 . S
H1540 C1514 0.930 . S
H1541 C1515 0.931 . S
H1542 C1517 0.931 . S
H1543 C1519 0.930 . S
H1544 C1521 0.930 . S
H1545 C1522 0.931 . S
H1546 C1524 0.931 . S
H1547 C1526 0.930 . S
H1548 C1528 0.930 . S
H1549 C1529 0.931 . S
H1550 C1531 0.931 . S
H1551 C1533 0.930 . S
H1552 C1535 0.930 . S
H1553 C1536 0.931 . S
N1554 C1516 1.282 1_545 S
N1554 C1537 1.405 . S
N1555 C1523 1.343 1_545 S
N1555 C1530 1.343 . S
C1556 C1557 1.384 . S
C1556 C1558 1.384 . S
C1556 H1584 0.931 . S
C1557 C1556 1.384 . S
C1557 C1560 1.382 . S
C1558 C1556 1.384 . S
C1558 C1559 1.381 . S
C1558 H1585 0.930 . S
C1559 C1558 1.381 . S
C1559 C1561 1.381 . S
C1559 C1562 1.487 . S
C1560 C1557 1.382 . S
C1560 C1561 1.387 . S
C1560 H1586 0.930 . S
C1561 C1559 1.381 . S
C1561 C1560 1.387 . S
C1561 H1587 0.931 . S
C1562 C1559 1.487 . S
C1562 C1569 1.399 . S
C1562 N1600 1.343 . S
C1563 C1564 1.384 . S
C1563 C1565 1.384 . S
C1563 H1588 0.931 . S
C1564 C1563 1.384 . S
C1564 C1567 1.382 . S
C1565 C1563 1.384 . S
C1565 C1566 1.381 . S
C1565 H1589 0.930 . S
C1566 C1565 1.381 . S
C1566 C1568 1.381 . S
C1566 C1569 1.487 . S
C1567 C1564 1.382 . S
C1567 C1568 1.387 . S
C1567 H1590 0.930 . S
C1568 C1566 1.381 . S
C1568 C1567 1.387 . S
C1568 H1591 0.931 . S
C1569 C1562 1.399 . S
C1569 C1566 1.487 . S
C1569 N1601 1.426 . S
C1570 C1571 1.384 . S
C1570 C1572 1.384 . S
C1570 H1592 0.931 . S
C1571 C1570 1.384 . S
C1571 C1574 1.382 . S
C1572 C1570 1.384 . S
C1572 C1573 1.381 . S
C1572 H1593 0.930 . S
C1573 C1572 1.381 . S
C1573 C1575 1.381 . S
C1573 C1576 1.487 . S
C1574 C1571 1.382 . S
C1574 C1575 1.387 . S
C1574 H1594 0.930 . S
C1575 C1573 1.381 . S
C1575 C1574 1.387 . S
C1575 H1595 0.931 . S
C1576 C1573 1.487 . S
C1576 C1583 1.399 . S
C1576 N1601 1.262 1_655 S
C1577 C1578 1.384 . S
C1577 C1579 1.384 . S
C1577 H1596 0.931 . S
C1578 C1577 1.384 . S
C1578 C1581 1.382 . S
C1579 C1577 1.384 . S
C1579 C1580 1.381 . S
C1579 H1597 0.930 . S
C1580 C1579 1.381 . S
C1580 C1582 1.381 . S
C1580 C1583 1.487 . S
C1581 C1578 1.382 . S
C1581 C1582 1.387 . S
C1581 H1598 0.930 . S
C1582 C1580 1.381 . S
C1582 C1581 1.387 . S
C1582 H1599 0.931 . S
C1583 C1576 1.399 . S
C1583 C1580 1.487 . S
C1583 N1600 1.343 1_655 S
H1584 C1556 0.931 . S
H1585 C1558 0.930 . S
H1586 C1560 0.930 . S
H1587 C1561 0.931 . S
H1588 C1563 0.931 . S
H1589 C1565 0.930 . S
H1590 C1567 0.930 . S
H1591 C1568 0.931 . S
H1592 C1570 0.931 . S
H1593 C1572 0.930 . S
H1594 C1574 0.930 . S
H1595 C1575 0.931 . S
H1596 C1577 0.931 . S
H1597 C1579 0.930 . S
H1598 C1581 0.930 . S
H1599 C1582 0.931 . S
N1600 C1562 1.343 . S
N1600 C1583 1.343 1_455 S
N1601 C1569 1.426 . S
N1601 C1576 1.262 1_455 S
C1602 C1603 1.384 . S
C1602 C1604 1.384 . S
C1602 H1630 0.931 . S
C1603 C1602 1.384 . S
C1603 C1606 1.382 . S
C1604 C1602 1.384 . S
C1604 C1605 1.381 . S
C1604 H1631 0.930 . S
C1605 C1604 1.381 . S
C1605 C1607 1.381 . S
C1605 C1608 1.487 . S
C1606 C1603 1.382 . S
C1606 C1607 1.387 . S
C1606 H1632 0.930 . S
C1607 C1605 1.381 . S
C1607 C1606 1.387 . S
C1607 H1633 0.931 . S
C1608 C1605 1.487 . S
C1608 C1615 1.399 . S
C1608 N1646 1.343 1_565 S
C1609 C1610 1.384 . S
C1609 C1611 1.384 . S
C1609 H1634 0.931 . S
C1610 C1609 1.384 . S
C1610 C1613 1.382 . S
C1611 C1609 1.384 . S
C1611 C1612 1.381 . S
C1611 H1635 0.930 . S
C1612 C1611 1.381 . S
C1612 C1614 1.381 . S
C1612 C1615 1.487 . S
C1613 C1610 1.382 . S
C1613 C1614 1.387 . S
C1613 H1636 0.930 . S
C1614 C1612 1.381 . S
C1614 C1613 1.387 . S
C1614 H1637 0.931 . S
C1615 C1608 1.399 . S
C1615 C1612 1.487 . S
C1615 N1647 1.343 1_565 S
C1616 C1617 1.384 . S
C1616 C1618 1.384 . S
C1616 H1638 0.931 . S
C1617 C1616 1.384 . S
C1617 C1620 1.382 . S
C1618 C1616 1.384 . S
C1618 C1619 1.381 . S
C1618 H1639 0.930 . S
C1619 C1618 1.381 . S
C1619 C1621 1.381 . S
C1619 C1622 1.487 . S
C1620 C1617 1.382 . S
C1620 C1621 1.387 . S
C1620 H1640 0.930 . S
C1621 C1619 1.381 . S
C1621 C1620 1.387 . S
C1621 H1641 0.931 . S
C1622 C1619 1.487 . S
C1622 C1629 1.399 . S
C1622 N1647 1.343 . S
C1623 C1624 1.384 . S
C1623 C1625 1.384 . S
C1623 H1642 0.931 . S
C1624 C1623 1.384 . S
C1624 C1627 1.382 . S
C1625 C1623 1.384 . S
C1625 C1626 1.381 . S
C1625 H1643 0.930 . S
C1626 C1625 1.381 . S
C1626 C1628 1.381 . S
C1626 C1629 1.487 . S
C1627 C1624 1.382 . S
C1627 C1628 1.387 . S
C1627 H1644 0.930 . S
C1628 C1626 1.381 . S
C1628 C1627 1.387 . S
C1628 H1645 0.931 . S
C1629 C1622 1.399 . S
C1629 C1626 1.487 . S
C1629 N1646 1.343 . S
H1630 C1602 0.931 . S
H1631 C1604 0.930 . S
H1632 C1606 0.930 . S
H1633 C1607 0.931 . S
H1634 C1609 0.931 . S
H1635 C1611 0.930 . S
H1636 C1613 0.930 . S
H1637 C1614 0.931 . S
H1638 C1616 0.931 . S
H1639 C1618 0.930 . S
H1640 C1620 0.930 . S
H1641 C1621 0.931 . S
H1642 C1623 0.931 . S
H1643 C1625 0.930 . S
H1644 C1627 0.930 . S
H1645 C1628 0.931 . S
N1646 C1608 1.343 1_545 S
N1646 C1629 1.343 . S
N1647 C1615 1.343 1_545 S
N1647 C1622 1.343 . S
C1648 C1649 1.384 . S
C1648 C1650 1.384 . S
C1648 H1676 0.931 . S
C1649 C1648 1.384 . S
C1649 C1652 1.382 . S
C1650 C1648 1.384 . S
C1650 C1651 1.381 . S
C1650 H1677 0.930 . S
C1651 C1650 1.381 . S
C1651 C1653 1.381 . S
C1651 C1654 1.487 . S
C1652 C1649 1.382 . S
C1652 C1653 1.387 . S
C1652 H1678 0.930 . S
C1653 C1651 1.381 . S
C1653 C1652 1.387 . S
C1653 H1679 0.931 . S
C1654 C1651 1.487 . S
C1654 C1661 1.399 . S
C1654 N1692 1.343 1_655 S
C1655 C1656 1.384 . S
C1655 C1657 1.384 . S
C1655 H1680 0.931 . S
C1656 C1655 1.384 . S
C1656 C1659 1.382 . S
C1657 C1655 1.384 . S
C1657 C1658 1.381 . S
C1657 H1681 0.930 . S
C1658 C1657 1.381 . S
C1658 C1660 1.381 . S
C1658 C1661 1.487 . S
C1659 C1656 1.382 . S
C1659 C1660 1.387 . S
C1659 H1682 0.930 . S
C1660 C1658 1.381 . S
C1660 C1659 1.387 . S
C1660 H1683 0.931 . S
C1661 C1654 1.399 . S
C1661 C1658 1.487 . S
C1661 N1693 1.343 1_655 S
C1662 C1663 1.384 . S
C1662 C1664 1.384 . S
C1662 H1684 0.931 . S
C1663 C1662 1.384 . S
C1663 C1666 1.382 . S
C1664 C1662 1.384 . S
C1664 C1665 1.381 . S
C1664 H1685 0.930 . S
C1665 C1664 1.381 . S
C1665 C1667 1.381 . S
C1665 C1668 1.487 . S
C1666 C1663 1.382 . S
C1666 C1667 1.387 . S
C1666 H1686 0.930 . S
C1667 C1665 1.381 . S
C1667 C1666 1.387 . S
C1667 H1687 0.931 . S
C1668 C1665 1.487 . S
C1668 C1675 1.399 . S
C1668 N1693 1.343 . S
C1669 C1670 1.384 . S
C1669 C1671 1.384 . S
C1669 H1688 0.931 . S
C1670 C1669 1.384 . S
C1670 C1673 1.382 . S
C1671 C1669 1.384 . S
C1671 C1672 1.381 . S
C1671 H1689 0.930 . S
C1672 C1671 1.381 . S
C1672 C1674 1.381 . S
C1672 C1675 1.487 . S
C1673 C1670 1.382 . S
C1673 C1674 1.387 . S
C1673 H1690 0.930 . S
C1674 C1672 1.381 . S
C1674 C1673 1.387 . S
C1674 H1691 0.931 . S
C1675 C1668 1.399 . S
C1675 C1672 1.487 . S
C1675 N1692 1.343 . S
H1676 C1648 0.931 . S
H1677 C1650 0.930 . S
H1678 C1652 0.930 . S
H1679 C1653 0.931 . S
H1680 C1655 0.931 . S
H1681 C1657 0.930 . S
H1682 C1659 0.930 . S
H1683 C1660 0.931 . S
H1684 C1662 0.931 . S
H1685 C1664 0.930 . S
H1686 C1666 0.930 . S
H1687 C1667 0.931 . S
H1688 C1669 0.931 . S
H1689 C1671 0.930 . S
H1690 C1673 0.930 . S
H1691 C1674 0.931 . S
N1692 C1654 1.343 1_455 S
N1692 C1675 1.343 . S
N1693 C1661 1.343 1_455 S
N1693 C1668 1.343 . S
C1694 C1695 1.384 . S
C1694 C1696 1.384 . S
C1694 H1722 0.931 . S
C1695 C1694 1.384 . S
C1695 C1698 1.382 . S
C1696 C1694 1.384 . S
C1696 C1697 1.381 . S
C1696 H1723 0.930 . S
C1697 C1696 1.381 . S
C1697 C1699 1.381 . S
C1697 C1700 1.487 . S
C1698 C1695 1.382 . S
C1698 C1699 1.387 . S
C1698 H1724 0.930 . S
C1699 C1697 1.381 . S
C1699 C1698 1.387 . S
C1699 H1725 0.931 . S
C1700 C1697 1.487 . S
C1700 C1707 1.399 . S
C1700 N1738 1.281 1_565 S
C1701 C1702 1.384 . S
C1701 C1703 1.384 . S
C1701 H1726 0.931 . S
C1702 C1701 1.384 . S
C1702 C1705 1.382 . S
C1703 C1701 1.384 . S
C1703 C1704 1.381 . S
C1703 H1727 0.930 . S
C1704 C1703 1.381 . S
C1704 C1706 1.381 . S
C1704 C1707 1.487 . S
C1705 C1702 1.382 . S
C1705 C1706 1.387 . S
C1705 H1728 0.930 . S
C1706 C1704 1.381 . S
C1706 C1705 1.387 . S
C1706 H1729 0.931 . S
C1707 C1700 1.399 . S
C1707 C1704 1.487 . S
C1707 N1739 1.343 1_565 S
C1708 C1709 1.384 . S
C1708 C1710 1.384 . S
C1708 H1730 0.931 . S
C1709 C1708 1.384 . S
C1709 C1712 1.382 . S
C1710 C1708 1.384 . S
C1710 C1711 1.381 . S
C1710 H1731 0.930 . S
C1711 C1710 1.381 . S
C1711 C1713 1.381 . S
C1711 C1714 1.487 . S
C1712 C1709 1.382 . S
C1712 C1713 1.387 . S
C1712 H1732 0.930 . S
C1713 C1711 1.381 . S
C1713 C1712 1.387 . S
C1713 H1733 0.931 . S
C1714 C1711 1.487 . S
C1714 C1721 1.399 . S
C1714 N1739 1.343 . S
C1715 C1716 1.384 . S
C1715 C1717 1.384 . S
C1715 H1734 0.931 . S
C1716 C1715 1.384 . S
C1716 C1719 1.382 . S
C1717 C1715 1.384 . S
C1717 C1718 1.381 . S
C1717 H1735 0.930 . S
C1718 C1717 1.381 . S
C1718 C1720 1.381 . S
C1718 C1721 1.487 . S
C1719 C1716 1.382 . S
C1719 C1720 1.387 . S
C1719 H1736 0.930 . S
C1720 C1718 1.381 . S
C1720 C1719 1.387 . S
C1720 H1737 0.931 . S
C1721 C1714 1.399 . S
C1721 C1718 1.487 . S
C1721 N1738 1.406 . S
H1722 C1694 0.931 . S
H1723 C1696 0.930 . S
H1724 C1698 0.930 . S
H1725 C1699 0.931 . S
H1726 C1701 0.931 . S
H1727 C1703 0.930 . S
H1728 C1705 0.930 . S
H1729 C1706 0.931 . S
H1730 C1708 0.931 . S
H1731 C1710 0.930 . S
H1732 C1712 0.930 . S
H1733 C1713 0.931 . S
H1734 C1715 0.931 . S
H1735 C1717 0.930 . S
H1736 C1719 0.930 . S
H1737 C1720 0.931 . S
N1738 C1700 1.281 1_545 S
N1738 C1721 1.406 . S
N1739 C1707 1.343 1_545 S
N1739 C1714 1.343 . S
C1740 C1741 1.384 . S
C1740 C1742 1.384 . S
C1740 H1768 0.931 . S
C1741 C1740 1.384 . S
C1741 C1744 1.382 . S
C1742 C1740 1.384 . S
C1742 C1743 1.381 . S
C1742 H1769 0.930 . S
C1743 C1742 1.381 . S
C1743 C1745 1.381 . S
C1743 C1746 1.487 . S
C1744 C1741 1.382 . S
C1744 C1745 1.387 . S
C1744 H1770 0.930 . S
C1745 C1743 1.381 . S
C1745 C1744 1.387 . S
C1745 H1771 0.931 . S
C1746 C1743 1.487 . S
C1746 C1753 1.399 . S
C1746 N1784 1.343 . S
C1747 C1748 1.384 . S
C1747 C1749 1.384 . S
C1747 H1772 0.931 . S
C1748 C1747 1.384 . S
C1748 C1751 1.382 . S
C1749 C1747 1.384 . S
C1749 C1750 1.381 . S
C1749 H1773 0.930 . S
C1750 C1749 1.381 . S
C1750 C1752 1.381 . S
C1750 C1753 1.487 . S
C1751 C1748 1.382 . S
C1751 C1752 1.387 . S
C1751 H1774 0.930 . S
C1752 C1750 1.381 . S
C1752 C1751 1.387 . S
C1752 H1775 0.931 . S
C1753 C1746 1.399 . S
C1753 C1750 1.487 . S
C1753 N1785 1.428 . S
C1754 C1755 1.384 . S
C1754 C1756 1.384 . S
C1754 H1776 0.931 . S
C1755 C1754 1.384 . S
C1755 C1758 1.382 . S
C1756 C1754 1.384 . S
C1756 C1757 1.381 . S
C1756 H1777 0.930 . S
C1757 C1756 1.381 . S
C1757 C1759 1.381 . S
C1757 C1760 1.487 . S
C1758 C1755 1.382 . S
C1758 C1759 1.387 . S
C1758 H1778 0.930 . S
C1759 C1757 1.381 . S
C1759 C1758 1.387 . S
C1759 H1779 0.931 . S
C1760 C1757 1.487 . S
C1760 C1767 1.399 . S
C1760 N1785 1.260 1_655 S
C1761 C1762 1.384 . S
C1761 C1763 1.384 . S
C1761 H1780 0.931 . S
C1762 C1761 1.384 . S
C1762 C1765 1.382 . S
C1763 C1761 1.384 . S
C1763 C1764 1.381 . S
C1763 H1781 0.930 . S
C1764 C1763 1.381 . S
C1764 C1766 1.381 . S
C1764 C1767 1.487 . S
C1765 C1762 1.382 . S
C1765 C1766 1.387 . S
C1765 H1782 0.930 . S
C1766 C1764 1.381 . S
C1766 C1765 1.387 . S
C1766 H1783 0.931 . S
C1767 C1760 1.399 . S
C1767 C1764 1.487 . S
C1767 N1784 1.343 1_655 S
H1768 C1740 0.931 . S
H1769 C1742 0.930 . S
H1770 C1744 0.930 . S
H1771 C1745 0.931 . S
H1772 C1747 0.931 . S
H1773 C1749 0.930 . S
H1774 C1751 0.930 . S
H1775 C1752 0.931 . S
H1776 C1754 0.931 . S
H1777 C1756 0.930 . S
H1778 C1758 0.930 . S
H1779 C1759 0.931 . S
H1780 C1761 0.931 . S
H1781 C1763 0.930 . S
H1782 C1765 0.930 . S
H1783 C1766 0.931 . S
N1784 C1746 1.343 . S
N1784 C1767 1.343 1_455 S
N1785 C1753 1.428 . S
N1785 C1760 1.260 1_455 S
C1786 C1787 1.384 . S
C1786 C1788 1.384 . S
C1786 H1814 0.931 . S
C1787 C1786 1.384 . S
C1787 C1790 1.382 . S
C1788 C1786 1.384 . S
C1788 C1789 1.381 . S
C1788 H1815 0.930 . S
C1789 C1788 1.381 . S
C1789 C1791 1.381 . S
C1789 C1792 1.487 . S
C1790 C1787 1.382 . S
C1790 C1791 1.387 . S
C1790 H1816 0.930 . S
C1791 C1789 1.381 . S
C1791 C1790 1.387 . S
C1791 H1817 0.931 . S
C1792 C1789 1.487 . S
C1792 C1799 1.399 . S
C1792 N1830 1.343 1_565 S
C1793 C1794 1.384 . S
C1793 C1795 1.384 . S
C1793 H1818 0.931 . S
C1794 C1793 1.384 . S
C1794 C1797 1.382 . S
C1795 C1793 1.384 . S
C1795 C1796 1.381 . S
C1795 H1819 0.930 . S
C1796 C1795 1.381 . S
C1796 C1798 1.381 . S
C1796 C1799 1.487 . S
C1797 C1794 1.382 . S
C1797 C1798 1.387 . S
C1797 H1820 0.930 . S
C1798 C1796 1.381 . S
C1798 C1797 1.387 . S
C1798 H1821 0.931 . S
C1799 C1792 1.399 . S
C1799 C1796 1.487 . S
C1799 N1831 1.343 1_565 S
C1800 C1801 1.384 . S
C1800 C1802 1.384 . S
C1800 H1822 0.931 . S
C1801 C1800 1.384 . S
C1801 C1804 1.382 . S
C1802 C1800 1.384 . S
C1802 C1803 1.381 . S
C1802 H1823 0.930 . S
C1803 C1802 1.381 . S
C1803 C1805 1.381 . S
C1803 C1806 1.487 . S
C1804 C1801 1.382 . S
C1804 C1805 1.387 . S
C1804 H1824 0.930 . S
C1805 C1803 1.381 . S
C1805 C1804 1.387 . S
C1805 H1825 0.931 . S
C1806 C1803 1.487 . S
C1806 C1813 1.399 . S
C1806 N1831 1.343 . S
C1807 C1808 1.384 . S
C1807 C1809 1.384 . S
C1807 H1826 0.931 . S
C1808 C1807 1.384 . S
C1808 C1811 1.382 . S
C1809 C1807 1.384 . S
C1809 C1810 1.381 . S
C1809 H1827 0.930 . S
C1810 C1809 1.381 . S
C1810 C1812 1.381 . S
C1810 C1813 1.487 . S
C1811 C1808 1.382 . S
C1811 C1812 1.387 . S
C1811 H1828 0.930 . S
C1812 C1810 1.381 . S
C1812 C1811 1.387 . S
C1812 H1829 0.931 . S
C1813 C1806 1.399 . S
C1813 C1810 1.487 . S
C1813 N1830 1.343 . S
H1814 C1786 0.931 . S
H1815 C1788 0.930 . S
H1816 C1790 0.930 . S
H1817 C1791 0.931 . S
H1818 C1793 0.931 . S
H1819 C1795 0.930 . S
H1820 C1797 0.930 . S
H1821 C1798 0.931 . S
H1822 C1800 0.931 . S
H1823 C1802 0.930 . S
H1824 C1804 0.930 . S
H1825 C1805 0.931 . S
H1826 C1807 0.931 . S
H1827 C1809 0.930 . S
H1828 C1811 0.930 . S
H1829 C1812 0.931 . S
N1830 C1792 1.343 1_545 S
N1830 C1813 1.343 . S
N1831 C1799 1.343 1_545 S
N1831 C1806 1.343 . S
C1832 C1833 1.384 . S
C1832 C1834 1.384 . S
C1832 H1860 0.931 . S
C1833 C1832 1.384 . S
C1833 C1836 1.382 . S
C1834 C1832 1.384 . S
C1834 C1835 1.381 . S
C1834 H1861 0.930 . S
C1835 C1834 1.381 . S
C1835 C1837 1.381 . S
C1835 C1838 1.487 . S
C1836 C1833 1.382 . S
C1836 C1837 1.387 . S
C1836 H1862 0.930 . S
C1837 C1835 1.381 . S
C1837 C1836 1.387 . S
C1837 H1863 0.931 . S
C1838 C1835 1.487 . S
C1838 C1845 1.399 . S
C1838 N1876 1.343 . S
C1839 C1840 1.384 . S
C1839 C1841 1.384 . S
C1839 H1864 0.931 . S
C1840 C1839 1.384 . S
C1840 C1843 1.382 . S
C1841 C1839 1.384 . S
C1841 C1842 1.381 . S
C1841 H1865 0.930 . S
C1842 C1841 1.381 . S
C1842 C1844 1.381 . S
C1842 C1845 1.487 . S
C1843 C1840 1.382 . S
C1843 C1844 1.387 . S
C1843 H1866 0.930 . S
C1844 C1842 1.381 . S
C1844 C1843 1.387 . S
C1844 H1867 0.931 . S
C1845 C1838 1.399 . S
C1845 C1842 1.487 . S
C1845 N1877 1.343 . S
C1846 C1847 1.384 . S
C1846 C1848 1.384 . S
C1846 H1868 0.931 . S
C1847 C1846 1.384 . S
C1847 C1850 1.382 . S
C1848 C1846 1.384 . S
C1848 C1849 1.381 . S
C1848 H1869 0.930 . S
C1849 C1848 1.381 . S
C1849 C1851 1.381 . S
C1849 C1852 1.487 . S
C1850 C1847 1.382 . S
C1850 C1851 1.387 . S
C1850 H1870 0.930 . S
C1851 C1849 1.381 . S
C1851 C1850 1.387 . S
C1851 H1871 0.931 . S
C1852 C1849 1.487 . S
C1852 C1859 1.399 . S
C1852 N1877 1.343 . S
C1853 C1854 1.384 . S
C1853 C1855 1.384 . S
C1853 H1872 0.931 . S
C1854 C1853 1.384 . S
C1854 C1857 1.382 . S
C1855 C1853 1.384 . S
C1855 C1856 1.381 . S
C1855 H1873 0.930 . S
C1856 C1855 1.381 . S
C1856 C1858 1.381 . S
C1856 C1859 1.487 . S
C1857 C1854 1.382 . S
C1857 C1858 1.387 . S
C1857 H1874 0.930 . S
C1858 C1856 1.381 . S
C1858 C1857 1.387 . S
C1858 H1875 0.931 . S
C1859 C1852 1.399 . S
C1859 C1856 1.487 . S
C1859 N1876 1.343 . S
H1860 C1832 0.931 . S
H1861 C1834 0.930 . S
H1862 C1836 0.930 . S
H1863 C1837 0.931 . S
H1864 C1839 0.931 . S
H1865 C1841 0.930 . S
H1866 C1843 0.930 . S
H1867 C1844 0.931 . S
H1868 C1846 0.931 . S
H1869 C1848 0.930 . S
H1870 C1850 0.930 . S
H1871 C1851 0.931 . S
H1872 C1853 0.931 . S
H1873 C1855 0.930 . S
H1874 C1857 0.930 . S
H1875 C1858 0.931 . S
N1876 C1838 1.343 . S
N1876 C1859 1.343 . S
N1877 C1845 1.343 . S
N1877 C1852 1.343 . S
C1878 C1879 1.384 . S
C1878 C1880 1.384 . S
C1878 H1906 0.931 . S
C1879 C1878 1.384 . S
C1879 C1882 1.382 . S
C1880 C1878 1.384 . S
C1880 C1881 1.381 . S
C1880 H1907 0.930 . S
C1881 C1880 1.381 . S
C1881 C1883 1.381 . S
C1881 C1884 1.487 . S
C1882 C1879 1.382 . S
C1882 C1883 1.387 . S
C1882 H1908 0.930 . S
C1883 C1881 1.381 . S
C1883 C1882 1.387 . S
C1883 H1909 0.931 . S
C1884 C1881 1.487 . S
C1884 C1891 1.399 . S
C1884 N1922 1.343 . S
C1885 C1886 1.384 . S
C1885 C1887 1.384 . S
C1885 H1910 0.931 . S
C1886 C1885 1.384 . S
C1886 C1889 1.382 . S
C1887 C1885 1.384 . S
C1887 C1888 1.381 . S
C1887 H1911 0.930 . S
C1888 C1887 1.381 . S
C1888 C1890 1.381 . S
C1888 C1891 1.487 . S
C1889 C1886 1.382 . S
C1889 C1890 1.387 . S
C1889 H1912 0.930 . S
C1890 C1888 1.381 . S
C1890 C1889 1.387 . S
C1890 H1913 0.931 . S
C1891 C1884 1.399 . S
C1891 C1888 1.487 . S
C1891 N1923 1.343 . S
C1892 C1893 1.384 . S
C1892 C1894 1.384 . S
C1892 H1914 0.931 . S
C1893 C1892 1.384 . S
C1893 C1896 1.382 . S
C1894 C1892 1.384 . S
C1894 C1895 1.381 . S
C1894 H1915 0.930 . S
C1895 C1894 1.381 . S
C1895 C1897 1.381 . S
C1895 C1898 1.487 . S
C1896 C1893 1.382 . S
C1896 C1897 1.387 . S
C1896 H1916 0.930 . S
C1897 C1895 1.381 . S
C1897 C1896 1.387 . S
C1897 H1917 0.931 . S
C1898 C1895 1.487 . S
C1898 C1905 1.399 . S
C1898 N1923 1.343 . S
C1899 C1900 1.384 . S
C1899 C1901 1.384 . S
C1899 H1918 0.931 . S
C1900 C1899 1.384 . S
C1900 C1903 1.382 . S
C1901 C1899 1.384 . S
C1901 C1902 1.381 . S
C1901 H1919 0.930 . S
C1902 C1901 1.381 . S
C1902 C1904 1.381 . S
C1902 C1905 1.487 . S
C1903 C1900 1.382 . S
C1903 C1904 1.387 . S
C1903 H1920 0.930 . S
C1904 C1902 1.381 . S
C1904 C1903 1.387 . S
C1904 H1921 0.931 . S
C1905 C1898 1.399 . S
C1905 C1902 1.487 . S
C1905 N1922 1.343 . S
H1906 C1878 0.931 . S
H1907 C1880 0.930 . S
H1908 C1882 0.930 . S
H1909 C1883 0.931 . S
H1910 C1885 0.931 . S
H1911 C1887 0.930 . S
H1912 C1889 0.930 . S
H1913 C1890 0.931 . S
H1914 C1892 0.931 . S
H1915 C1894 0.930 . S
H1916 C1896 0.930 . S
H1917 C1897 0.931 . S
H1918 C1899 0.931 . S
H1919 C1901 0.930 . S
H1920 C1903 0.930 . S
H1921 C1904 0.931 . S
N1922 C1884 1.343 . S
N1922 C1905 1.343 . S
N1923 C1891 1.343 . S
N1923 C1898 1.343 . S
C1924 C1925 1.384 . S
C1924 C1926 1.384 . S
C1924 H1952 0.931 . S
C1925 C1924 1.384 . S
C1925 C1928 1.382 . S
C1926 C1924 1.384 . S
C1926 C1927 1.381 . S
C1926 H1953 0.930 . S
C1927 C1926 1.381 . S
C1927 C1929 1.381 . S
C1927 C1930 1.487 . S
C1928 C1925 1.382 . S
C1928 C1929 1.387 . S
C1928 H1954 0.930 . S
C1929 C1927 1.381 . S
C1929 C1928 1.387 . S
C1929 H1955 0.931 . S
C1930 C1927 1.487 . S
C1930 C1937 1.399 . S
C1930 N1968 1.343 . S
C1931 C1932 1.384 . S
C1931 C1933 1.384 . S
C1931 H1956 0.931 . S
C1932 C1931 1.384 . S
C1932 C1935 1.382 . S
C1933 C1931 1.384 . S
C1933 C1934 1.381 . S
C1933 H1957 0.930 . S
C1934 C1933 1.381 . S
C1934 C1936 1.381 . S
C1934 C1937 1.487 . S
C1935 C1932 1.382 . S
C1935 C1936 1.387 . S
C1935 H1958 0.930 . S
C1936 C1934 1.381 . S
C1936 C1935 1.387 . S
C1936 H1959 0.931 . S
C1937 C1930 1.399 . S
C1937 C1934 1.487 . S
C1937 N1969 1.343 . S
C1938 C1939 1.384 . S
C1938 C1940 1.384 . S
C1938 H1960 0.931 . S
C1939 C1938 1.384 . S
C1939 C1942 1.382 . S
C1940 C1938 1.384 . S
C1940 C1941 1.381 . S
C1940 H1961 0.930 . S
C1941 C1940 1.381 . S
C1941 C1943 1.381 . S
C1941 C1944 1.487 . S
C1942 C1939 1.382 . S
C1942 C1943 1.387 . S
C1942 H1962 0.930 . S
C1943 C1941 1.381 . S
C1943 C1942 1.387 . S
C1943 H1963 0.931 . S
C1944 C1941 1.487 . S
C1944 C1951 1.399 . S
C1944 N1969 1.343 . S
C1945 C1946 1.384 . S
C1945 C1947 1.384 . S
C1945 H1964 0.931 . S
C1946 C1945 1.384 . S
C1946 C1949 1.382 . S
C1947 C1945 1.384 . S
C1947 C1948 1.381 . S
C1947 H1965 0.930 . S
C1948 C1947 1.381 . S
C1948 C1950 1.381 . S
C1948 C1951 1.487 . S
C1949 C1946 1.382 . S
C1949 C1950 1.387 . S
C1949 H1966 0.930 . S
C1950 C1948 1.381 . S
C1950 C1949 1.387 . S
C1950 H1967 0.931 . S
C1951 C1944 1.399 . S
C1951 C1948 1.487 . S
C1951 N1968 1.343 . S
H1952 C1924 0.931 . S
H1953 C1926 0.930 . S
H1954 C1928 0.930 . S
H1955 C1929 0.931 . S
H1956 C1931 0.931 . S
H1957 C1933 0.930 . S
H1958 C1935 0.930 . S
H1959 C1936 0.931 . S
H1960 C1938 0.931 . S
H1961 C1940 0.930 . S
H1962 C1942 0.930 . S
H1963 C1943 0.931 . S
H1964 C1945 0.931 . S
H1965 C1947 0.930 . S
H1966 C1949 0.930 . S
H1967 C1950 0.931 . S
N1968 C1930 1.343 . S
N1968 C1951 1.343 . S
N1969 C1937 1.343 . S
N1969 C1944 1.343 . S
C1970 C1971 1.384 . S
C1970 C1972 1.384 . S
C1970 H1998 0.931 . S
C1971 C1970 1.384 . S
C1971 C1974 1.382 . S
C1972 C1970 1.384 . S
C1972 C1973 1.381 . S
C1972 H1999 0.930 . S
C1973 C1972 1.381 . S
C1973 C1975 1.381 . S
C1973 C1976 1.487 . S
C1974 C1971 1.382 . S
C1974 C1975 1.387 . S
C1974 H2000 0.930 . S
C1975 C1973 1.381 . S
C1975 C1974 1.387 . S
C1975 H2001 0.931 . S
C1976 C1973 1.487 . S
C1976 C1983 1.399 . S
C1976 N2014 1.343 . S
C1977 C1978 1.384 . S
C1977 C1979 1.384 . S
C1977 H2002 0.931 . S
C1978 C1977 1.384 . S
C1978 C1981 1.382 . S
C1979 C1977 1.384 . S
C1979 C1980 1.381 . S
C1979 H2003 0.930 . S
C1980 C1979 1.381 . S
C1980 C1982 1.381 . S
C1980 C1983 1.487 . S
C1981 C1978 1.382 . S
C1981 C1982 1.387 . S
C1981 H2004 0.930 . S
C1982 C1980 1.381 . S
C1982 C1981 1.387 . S
C1982 H2005 0.931 . S
C1983 C1976 1.399 . S
C1983 C1980 1.487 . S
C1983 N2015 1.343 . S
C1984 C1985 1.384 . S
C1984 C1986 1.384 . S
C1984 H2006 0.931 . S
C1985 C1984 1.384 . S
C1985 C1988 1.382 . S
C1986 C1984 1.384 . S
C1986 C1987 1.381 . S
C1986 H2007 0.930 . S
C1987 C1986 1.381 . S
C1987 C1989 1.381 . S
C1987 C1990 1.487 . S
C1988 C1985 1.382 . S
C1988 C1989 1.387 . S
C1988 H2008 0.930 . S
C1989 C1987 1.381 . S
C1989 C1988 1.387 . S
C1989 H2009 0.931 . S
C1990 C1987 1.487 . S
C1990 C1997 1.399 . S
C1990 N2015 1.343 . S
C1991 C1992 1.384 . S
C1991 C1993 1.384 . S
C1991 H2010 0.931 . S
C1992 C1991 1.384 . S
C1992 C1995 1.382 . S
C1993 C1991 1.384 . S
C1993 C1994 1.381 . S
C1993 H2011 0.930 . S
C1994 C1993 1.381 . S
C1994 C1996 1.381 . S
C1994 C1997 1.487 . S
C1995 C1992 1.382 . S
C1995 C1996 1.387 . S
C1995 H2012 0.930 . S
C1996 C1994 1.381 . S
C1996 C1995 1.387 . S
C1996 H2013 0.931 . S
C1997 C1990 1.399 . S
C1997 C1994 1.487 . S
C1997 N2014 1.343 . S
H1998 C1970 0.931 . S
H1999 C1972 0.930 . S
H2000 C1974 0.930 . S
H2001 C1975 0.931 . S
H2002 C1977 0.931 . S
H2003 C1979 0.930 . S
H2004 C1981 0.930 . S
H2005 C1982 0.931 . S
H2006 C1984 0.931 . S
H2007 C1986 0.930 . S
H2008 C1988 0.930 . S
H2009 C1989 0.931 . S
H2010 C1991 0.931 . S
H2011 C1993 0.930 . S
H2012 C1995 0.930 . S
H2013 C1996 0.931 . S
N2014 C1976 1.343 . S
N2014 C1997 1.343 . S
N2015 C1983 1.343 . S
N2015 C1990 1.343 . S
C2016 C2017 1.384 . S
C2016 C2018 1.384 . S
C2016 H2044 0.931 . S
C2017 C2016 1.384 . S
C2017 C2020 1.382 . S
C2018 C2016 1.384 . S
C2018 C2019 1.381 . S
C2018 H2045 0.930 . S
C2019 C2018 1.381 . S
C2019 C2021 1.381 . S
C2019 C2022 1.487 . S
C2020 C2017 1.382 . S
C2020 C2021 1.387 . S
C2020 H2046 0.930 . S
C2021 C2019 1.381 . S
C2021 C2020 1.387 . S
C2021 H2047 0.931 . S
C2022 C2019 1.487 . S
C2022 C2029 1.399 . S
C2022 N2060 1.343 . S
C2023 C2024 1.384 . S
C2023 C2025 1.384 . S
C2023 H2048 0.931 . S
C2024 C2023 1.384 . S
C2024 C2027 1.382 . S
C2025 C2023 1.384 . S
C2025 C2026 1.381 . S
C2025 H2049 0.930 . S
C2026 C2025 1.381 . S
C2026 C2028 1.381 . S
C2026 C2029 1.487 . S
C2027 C2024 1.382 . S
C2027 C2028 1.387 . S
C2027 H2050 0.930 . S
C2028 C2026 1.381 . S
C2028 C2027 1.387 . S
C2028 H2051 0.931 . S
C2029 C2022 1.399 . S
C2029 C2026 1.487 . S
C2029 N2061 1.343 . S
C2030 C2031 1.384 . S
C2030 C2032 1.384 . S
C2030 H2052 0.931 . S
C2031 C2030 1.384 . S
C2031 C2034 1.382 . S
C2032 C2030 1.384 . S
C2032 C2033 1.381 . S
C2032 H2053 0.930 . S
C2033 C2032 1.381 . S
C2033 C2035 1.381 . S
C2033 C2036 1.487 . S
C2034 C2031 1.382 . S
C2034 C2035 1.387 . S
C2034 H2054 0.930 . S
C2035 C2033 1.381 . S
C2035 C2034 1.387 . S
C2035 H2055 0.931 . S
C2036 C2033 1.487 . S
C2036 C2043 1.399 . S
C2036 N2061 1.343 . S
C2037 C2038 1.384 . S
C2037 C2039 1.384 . S
C2037 H2056 0.931 . S
C2038 C2037 1.384 . S
C2038 C2041 1.382 . S
C2039 C2037 1.384 . S
C2039 C2040 1.381 . S
C2039 H2057 0.930 . S
C2040 C2039 1.381 . S
C2040 C2042 1.381 . S
C2040 C2043 1.487 . S
C2041 C2038 1.382 . S
C2041 C2042 1.387 . S
C2041 H2058 0.930 . S
C2042 C2040 1.381 . S
C2042 C2041 1.387 . S
C2042 H2059 0.931 . S
C2043 C2036 1.399 . S
C2043 C2040 1.487 . S
C2043 N2060 1.343 . S
H2044 C2016 0.931 . S
H2045 C2018 0.930 . S
H2046 C2020 0.930 . S
H2047 C2021 0.931 . S
H2048 C2023 0.931 . S
H2049 C2025 0.930 . S
H2050 C2027 0.930 . S
H2051 C2028 0.931 . S
H2052 C2030 0.931 . S
H2053 C2032 0.930 . S
H2054 C2034 0.930 . S
H2055 C2035 0.931 . S
H2056 C2037 0.931 . S
H2057 C2039 0.930 . S
H2058 C2041 0.930 . S
H2059 C2042 0.931 . S
N2060 C2022 1.343 . S
N2060 C2043 1.343 . S
N2061 C2029 1.343 . S
N2061 C2036 1.343 . S
C2062 C2063 1.384 . S
C2062 C2064 1.384 . S
C2062 H2090 0.931 . S
C2063 C2062 1.384 . S
C2063 C2066 1.382 . S
C2064 C2062 1.384 . S
C2064 C2065 1.381 . S
C2064 H2091 0.930 . S
C2065 C2064 1.381 . S
C2065 C2067 1.381 . S
C2065 C2068 1.487 . S
C2066 C2063 1.382 . S
C2066 C2067 1.387 . S
C2066 H2092 0.930 . S
C2067 C2065 1.381 . S
C2067 C2066 1.387 . S
C2067 H2093 0.931 . S
C2068 C2065 1.487 . S
C2068 C2075 1.399 . S
C2068 N2106 1.343 . S
C2069 C2070 1.384 . S
C2069 C2071 1.384 . S
C2069 H2094 0.931 . S
C2070 C2069 1.384 . S
C2070 C2073 1.382 . S
C2071 C2069 1.384 . S
C2071 C2072 1.381 . S
C2071 H2095 0.930 . S
C2072 C2071 1.381 . S
C2072 C2074 1.381 . S
C2072 C2075 1.487 . S
C2073 C2070 1.382 . S
C2073 C2074 1.387 . S
C2073 H2096 0.930 . S
C2074 C2072 1.381 . S
C2074 C2073 1.387 . S
C2074 H2097 0.931 . S
C2075 C2068 1.399 . S
C2075 C2072 1.487 . S
C2075 N2107 1.343 . S
C2076 C2077 1.384 . S
C2076 C2078 1.384 . S
C2076 H2098 0.931 . S
C2077 C2076 1.384 . S
C2077 C2080 1.382 . S
C2078 C2076 1.384 . S
C2078 C2079 1.381 . S
C2078 H2099 0.930 . S
C2079 C2078 1.381 . S
C2079 C2081 1.381 . S
C2079 C2082 1.487 . S
C2080 C2077 1.382 . S
C2080 C2081 1.387 . S
C2080 H2100 0.930 . S
C2081 C2079 1.381 . S
C2081 C2080 1.387 . S
C2081 H2101 0.931 . S
C2082 C2079 1.487 . S
C2082 C2089 1.399 . S
C2082 N2107 1.343 . S
C2083 C2084 1.384 . S
C2083 C2085 1.384 . S
C2083 H2102 0.931 . S
C2084 C2083 1.384 . S
C2084 C2087 1.382 . S
C2085 C2083 1.384 . S
C2085 C2086 1.381 . S
C2085 H2103 0.930 . S
C2086 C2085 1.381 . S
C2086 C2088 1.381 . S
C2086 C2089 1.487 . S
C2087 C2084 1.382 . S
C2087 C2088 1.387 . S
C2087 H2104 0.930 . S
C2088 C2086 1.381 . S
C2088 C2087 1.387 . S
C2088 H2105 0.931 . S
C2089 C2082 1.399 . S
C2089 C2086 1.487 . S
C2089 N2106 1.343 . S
H2090 C2062 0.931 . S
H2091 C2064 0.930 . S
H2092 C2066 0.930 . S
H2093 C2067 0.931 . S
H2094 C2069 0.931 . S
H2095 C2071 0.930 . S
H2096 C2073 0.930 . S
H2097 C2074 0.931 . S
H2098 C2076 0.931 . S
H2099 C2078 0.930 . S
H2100 C2080 0.930 . S
H2101 C2081 0.931 . S
H2102 C2083 0.931 . S
H2103 C2085 0.930 . S
H2104 C2087 0.930 . S
H2105 C2088 0.931 . S
N2106 C2068 1.343 . S
N2106 C2089 1.343 . S
N2107 C2075 1.343 . S
N2107 C2082 1.343 . S
C2108 C2109 1.384 . S
C2108 C2110 1.384 . S
C2108 H2136 0.931 . S
C2109 C2108 1.384 . S
C2109 C2112 1.382 . S
C2110 C2108 1.384 . S
C2110 C2111 1.381 . S
C2110 H2137 0.930 . S
C2111 C2110 1.381 . S
C2111 C2113 1.381 . S
C2111 C2114 1.487 . S
C2112 C2109 1.382 . S
C2112 C2113 1.387 . S
C2112 H2138 0.930 . S
C2113 C2111 1.381 . S
C2113 C2112 1.387 . S
C2113 H2139 0.931 . S
C2114 C2111 1.487 . S
C2114 C2121 1.399 . S
C2114 N2152 1.343 . S
C2115 C2116 1.384 . S
C2115 C2117 1.384 . S
C2115 H2140 0.931 . S
C2116 C2115 1.384 . S
C2116 C2119 1.382 . S
C2117 C2115 1.384 . S
C2117 C2118 1.381 . S
C2117 H2141 0.930 . S
C2118 C2117 1.381 . S
C2118 C2120 1.381 . S
C2118 C2121 1.487 . S
C2119 C2116 1.382 . S
C2119 C2120 1.387 . S
C2119 H2142 0.930 . S
C2120 C2118 1.381 . S
C2120 C2119 1.387 . S
C2120 H2143 0.931 . S
C2121 C2114 1.399 . S
C2121 C2118 1.487 . S
C2121 N2153 1.343 . S
C2122 C2123 1.384 . S
C2122 C2124 1.384 . S
C2122 H2144 0.931 . S
C2123 C2122 1.384 . S
C2123 C2126 1.382 . S
C2124 C2122 1.384 . S
C2124 C2125 1.381 . S
C2124 H2145 0.930 . S
C2125 C2124 1.381 . S
C2125 C2127 1.381 . S
C2125 C2128 1.487 . S
C2126 C2123 1.382 . S
C2126 C2127 1.387 . S
C2126 H2146 0.930 . S
C2127 C2125 1.381 . S
C2127 C2126 1.387 . S
C2127 H2147 0.931 . S
C2128 C2125 1.487 . S
C2128 C2135 1.399 . S
C2128 N2153 1.343 . S
C2129 C2130 1.384 . S
C2129 C2131 1.384 . S
C2129 H2148 0.931 . S
C2130 C2129 1.384 . S
C2130 C2133 1.382 . S
C2131 C2129 1.384 . S
C2131 C2132 1.381 . S
C2131 H2149 0.930 . S
C2132 C2131 1.381 . S
C2132 C2134 1.381 . S
C2132 C2135 1.487 . S
C2133 C2130 1.382 . S
C2133 C2134 1.387 . S
C2133 H2150 0.930 . S
C2134 C2132 1.381 . S
C2134 C2133 1.387 . S
C2134 H2151 0.931 . S
C2135 C2128 1.399 . S
C2135 C2132 1.487 . S
C2135 N2152 1.343 . S
H2136 C2108 0.931 . S
H2137 C2110 0.930 . S
H2138 C2112 0.930 . S
H2139 C2113 0.931 . S
H2140 C2115 0.931 . S
H2141 C2117 0.930 . S
H2142 C2119 0.930 . S
H2143 C2120 0.931 . S
H2144 C2122 0.931 . S
H2145 C2124 0.930 . S
H2146 C2126 0.930 . S
H2147 C2127 0.931 . S
H2148 C2129 0.931 . S
H2149 C2131 0.930 . S
H2150 C2133 0.930 . S
H2151 C2134 0.931 . S
N2152 C2114 1.343 . S
N2152 C2135 1.343 . S
N2153 C2121 1.343 . S
N2153 C2128 1.343 . S
C2154 C2155 1.384 . S
C2154 C2156 1.384 . S
C2154 H2182 0.931 . S
C2155 C2154 1.384 . S
C2155 C2158 1.382 . S
C2156 C2154 1.384 . S
C2156 C2157 1.381 . S
C2156 H2183 0.930 . S
C2157 C2156 1.381 . S
C2157 C2159 1.381 . S
C2157 C2160 1.487 . S
C2158 C2155 1.382 . S
C2158 C2159 1.387 . S
C2158 H2184 0.930 . S
C2159 C2157 1.381 . S
C2159 C2158 1.387 . S
C2159 H2185 0.931 . S
C2160 C2157 1.487 . S
C2160 C2167 1.399 . S
C2160 N2198 1.343 . S
C2161 C2162 1.384 . S
C2161 C2163 1.384 . S
C2161 H2186 0.931 . S
C2162 C2161 1.384 . S
C2162 C2165 1.382 . S
C2163 C2161 1.384 . S
C2163 C2164 1.381 . S
C2163 H2187 0.930 . S
C2164 C2163 1.381 . S
C2164 C2166 1.381 . S
C2164 C2167 1.487 . S
C2165 C2162 1.382 . S
C2165 C2166 1.387 . S
C2165 H2188 0.930 . S
C2166 C2164 1.381 . S
C2166 C2165 1.387 . S
C2166 H2189 0.931 . S
C2167 C2160 1.399 . S
C2167 C2164 1.487 . S
C2167 N2199 1.343 . S
C2168 C2169 1.384 . S
C2168 C2170 1.384 . S
C2168 H2190 0.931 . S
C2169 C2168 1.384 . S
C2169 C2172 1.382 . S
C2170 C2168 1.384 . S
C2170 C2171 1.381 . S
C2170 H2191 0.930 . S
C2171 C2170 1.381 . S
C2171 C2173 1.381 . S
C2171 C2174 1.487 . S
C2172 C2169 1.382 . S
C2172 C2173 1.387 . S
C2172 H2192 0.930 . S
C2173 C2171 1.381 . S
C2173 C2172 1.387 . S
C2173 H2193 0.931 . S
C2174 C2171 1.487 . S
C2174 C2181 1.399 . S
C2174 N2199 1.343 . S
C2175 C2176 1.384 . S
C2175 C2177 1.384 . S
C2175 H2194 0.931 . S
C2176 C2175 1.384 . S
C2176 C2179 1.382 . S
C2177 C2175 1.384 . S
C2177 C2178 1.381 . S
C2177 H2195 0.930 . S
C2178 C2177 1.381 . S
C2178 C2180 1.381 . S
C2178 C2181 1.487 . S
C2179 C2176 1.382 . S
C2179 C2180 1.387 . S
C2179 H2196 0.930 . S
C2180 C2178 1.381 . S
C2180 C2179 1.387 . S
C2180 H2197 0.931 . S
C2181 C2174 1.399 . S
C2181 C2178 1.487 . S
C2181 N2198 1.343 . S
H2182 C2154 0.931 . S
H2183 C2156 0.930 . S
H2184 C2158 0.930 . S
H2185 C2159 0.931 . S
H2186 C2161 0.931 . S
H2187 C2163 0.930 . S
H2188 C2165 0.930 . S
H2189 C2166 0.931 . S
H2190 C2168 0.931 . S
H2191 C2170 0.930 . S
H2192 C2172 0.930 . S
H2193 C2173 0.931 . S
H2194 C2175 0.931 . S
H2195 C2177 0.930 . S
H2196 C2179 0.930 . S
H2197 C2180 0.931 . S
N2198 C2160 1.343 . S
N2198 C2181 1.343 . S
N2199 C2167 1.343 . S
N2199 C2174 1.343 . S
C2200 C2201 1.384 . S
C2200 C2202 1.384 . S
C2200 H2228 0.931 . S
C2201 C2200 1.384 . S
C2201 C2204 1.382 . S
C2202 C2200 1.384 . S
C2202 C2203 1.381 . S
C2202 H2229 0.930 . S
C2203 C2202 1.381 . S
C2203 C2205 1.381 . S
C2203 C2206 1.487 . S
C2204 C2201 1.382 . S
C2204 C2205 1.387 . S
C2204 H2230 0.930 . S
C2205 C2203 1.381 . S
C2205 C2204 1.387 . S
C2205 H2231 0.931 . S
C2206 C2203 1.487 . S
C2206 C2213 1.399 . S
C2206 N2244 1.343 . S
C2207 C2208 1.384 . S
C2207 C2209 1.384 . S
C2207 H2232 0.931 . S
C2208 C2207 1.384 . S
C2208 C2211 1.382 . S
C2209 C2207 1.384 . S
C2209 C2210 1.381 . S
C2209 H2233 0.930 . S
C2210 C2209 1.381 . S
C2210 C2212 1.381 . S
C2210 C2213 1.487 . S
C2211 C2208 1.382 . S
C2211 C2212 1.387 . S
C2211 H2234 0.930 . S
C2212 C2210 1.381 . S
C2212 C2211 1.387 . S
C2212 H2235 0.931 . S
C2213 C2206 1.399 . S
C2213 C2210 1.487 . S
C2213 N2245 1.343 . S
C2214 C2215 1.384 . S
C2214 C2216 1.384 . S
C2214 H2236 0.931 . S
C2215 C2214 1.384 . S
C2215 C2218 1.382 . S
C2216 C2214 1.384 . S
C2216 C2217 1.381 . S
C2216 H2237 0.930 . S
C2217 C2216 1.381 . S
C2217 C2219 1.381 . S
C2217 C2220 1.487 . S
C2218 C2215 1.382 . S
C2218 C2219 1.387 . S
C2218 H2238 0.930 . S
C2219 C2217 1.381 . S
C2219 C2218 1.387 . S
C2219 H2239 0.931 . S
C2220 C2217 1.487 . S
C2220 C2227 1.399 . S
C2220 N2245 1.343 . S
C2221 C2222 1.384 . S
C2221 C2223 1.384 . S
C2221 H2240 0.931 . S
C2222 C2221 1.384 . S
C2222 C2225 1.382 . S
C2223 C2221 1.384 . S
C2223 C2224 1.381 . S
C2223 H2241 0.930 . S
C2224 C2223 1.381 . S
C2224 C2226 1.381 . S
C2224 C2227 1.487 . S
C2225 C2222 1.382 . S
C2225 C2226 1.387 . S
C2225 H2242 0.930 . S
C2226 C2224 1.381 . S
C2226 C2225 1.387 . S
C2226 H2243 0.931 . S
C2227 C2220 1.399 . S
C2227 C2224 1.487 . S
C2227 N2244 1.343 . S
H2228 C2200 0.931 . S
H2229 C2202 0.930 . S
H2230 C2204 0.930 . S
H2231 C2205 0.931 . S
H2232 C2207 0.931 . S
H2233 C2209 0.930 . S
H2234 C2211 0.930 . S
H2235 C2212 0.931 . S
H2236 C2214 0.931 . S
H2237 C2216 0.930 . S
H2238 C2218 0.930 . S
H2239 C2219 0.931 . S
H2240 C2221 0.931 . S
H2241 C2223 0.930 . S
H2242 C2225 0.930 . S
H2243 C2226 0.931 . S
N2244 C2206 1.343 . S
N2244 C2227 1.343 . S
N2245 C2213 1.343 . S
N2245 C2220 1.343 . S
C2246 C2247 1.384 . S
C2246 C2248 1.384 . S
C2246 H2274 0.931 . S
C2247 C2246 1.384 . S
C2247 C2250 1.382 . S
C2248 C2246 1.384 . S
C2248 C2249 1.381 . S
C2248 H2275 0.930 . S
C2249 C2248 1.381 . S
C2249 C2251 1.381 . S
C2249 C2252 1.487 . S
C2250 C2247 1.382 . S
C2250 C2251 1.387 . S
C2250 H2276 0.930 . S
C2251 C2249 1.381 . S
C2251 C2250 1.387 . S
C2251 H2277 0.931 . S
C2252 C2249 1.487 . S
C2252 C2259 1.399 . S
C2252 N2290 1.343 . S
C2253 C2254 1.384 . S
C2253 C2255 1.384 . S
C2253 H2278 0.931 . S
C2254 C2253 1.384 . S
C2254 C2257 1.382 . S
C2255 C2253 1.384 . S
C2255 C2256 1.381 . S
C2255 H2279 0.930 . S
C2256 C2255 1.381 . S
C2256 C2258 1.381 . S
C2256 C2259 1.487 . S
C2257 C2254 1.382 . S
C2257 C2258 1.387 . S
C2257 H2280 0.930 . S
C2258 C2256 1.381 . S
C2258 C2257 1.387 . S
C2258 H2281 0.931 . S
C2259 C2252 1.399 . S
C2259 C2256 1.487 . S
C2259 N2291 1.343 . S
C2260 C2261 1.384 . S
C2260 C2262 1.384 . S
C2260 H2282 0.931 . S
C2261 C2260 1.384 . S
C2261 C2264 1.382 . S
C2262 C2260 1.384 . S
C2262 C2263 1.381 . S
C2262 H2283 0.930 . S
C2263 C2262 1.381 . S
C2263 C2265 1.381 . S
C2263 C2266 1.487 . S
C2264 C2261 1.382 . S
C2264 C2265 1.387 . S
C2264 H2284 0.930 . S
C2265 C2263 1.381 . S
C2265 C2264 1.387 . S
C2265 H2285 0.931 . S
C2266 C2263 1.487 . S
C2266 C2273 1.399 . S
C2266 N2291 1.343 . S
C2267 C2268 1.384 . S
C2267 C2269 1.384 . S
C2267 H2286 0.931 . S
C2268 C2267 1.384 . S
C2268 C2271 1.382 . S
C2269 C2267 1.384 . S
C2269 C2270 1.381 . S
C2269 H2287 0.930 . S
C2270 C2269 1.381 . S
C2270 C2272 1.381 . S
C2270 C2273 1.487 . S
C2271 C2268 1.382 . S
C2271 C2272 1.387 . S
C2271 H2288 0.930 . S
C2272 C2270 1.381 . S
C2272 C2271 1.387 . S
C2272 H2289 0.931 . S
C2273 C2266 1.399 . S
C2273 C2270 1.487 . S
C2273 N2290 1.343 . S
H2274 C2246 0.931 . S
H2275 C2248 0.930 . S
H2276 C2250 0.930 . S
H2277 C2251 0.931 . S
H2278 C2253 0.931 . S
H2279 C2255 0.930 . S
H2280 C2257 0.930 . S
H2281 C2258 0.931 . S
H2282 C2260 0.931 . S
H2283 C2262 0.930 . S
H2284 C2264 0.930 . S
H2285 C2265 0.931 . S
H2286 C2267 0.931 . S
H2287 C2269 0.930 . S
H2288 C2271 0.930 . S
H2289 C2272 0.931 . S
N2290 C2252 1.343 . S
N2290 C2273 1.343 . S
N2291 C2259 1.343 . S
N2291 C2266 1.343 . S
C2292 C2293 1.384 . S
C2292 C2294 1.384 . S
C2292 H2320 0.931 . S
C2293 C2292 1.384 . S
C2293 C2296 1.382 . S
C2294 C2292 1.384 . S
C2294 C2295 1.381 . S
C2294 H2321 0.930 . S
C2295 C2294 1.381 . S
C2295 C2297 1.381 . S
C2295 C2298 1.487 . S
C2296 C2293 1.382 . S
C2296 C2297 1.387 . S
C2296 H2322 0.930 . S
C2297 C2295 1.381 . S
C2297 C2296 1.387 . S
C2297 H2323 0.931 . S
C2298 C2295 1.487 . S
C2298 C2305 1.399 . S
C2298 N2336 1.343 . S
C2299 C2300 1.384 . S
C2299 C2301 1.384 . S
C2299 H2324 0.931 . S
C2300 C2299 1.384 . S
C2300 C2303 1.382 . S
C2301 C2299 1.384 . S
C2301 C2302 1.381 . S
C2301 H2325 0.930 . S
C2302 C2301 1.381 . S
C2302 C2304 1.381 . S
C2302 C2305 1.487 . S
C2303 C2300 1.382 . S
C2303 C2304 1.387 . S
C2303 H2326 0.930 . S
C2304 C2302 1.381 . S
C2304 C2303 1.387 . S
C2304 H2327 0.931 . S
C2305 C2298 1.399 . S
C2305 C2302 1.487 . S
C2305 N2337 1.343 . S
C2306 C2307 1.384 . S
C2306 C2308 1.384 . S
C2306 H2328 0.931 . S
C2307 C2306 1.384 . S
C2307 C2310 1.382 . S
C2308 C2306 1.384 . S
C2308 C2309 1.381 . S
C2308 H2329 0.930 . S
C2309 C2308 1.381 . S
C2309 C2311 1.381 . S
C2309 C2312 1.487 . S
C2310 C2307 1.382 . S
C2310 C2311 1.387 . S
C2310 H2330 0.930 . S
C2311 C2309 1.381 . S
C2311 C2310 1.387 . S
C2311 H2331 0.931 . S
C2312 C2309 1.487 . S
C2312 C2319 1.399 . S
C2312 N2337 1.343 . S
C2313 C2314 1.384 . S
C2313 C2315 1.384 . S
C2313 H2332 0.931 . S
C2314 C2313 1.384 . S
C2314 C2317 1.382 . S
C2315 C2313 1.384 . S
C2315 C2316 1.381 . S
C2315 H2333 0.930 . S
C2316 C2315 1.381 . S
C2316 C2318 1.381 . S
C2316 C2319 1.487 . S
C2317 C2314 1.382 . S
C2317 C2318 1.387 . S
C2317 H2334 0.930 . S
C2318 C2316 1.381 . S
C2318 C2317 1.387 . S
C2318 H2335 0.931 . S
C2319 C2312 1.399 . S
C2319 C2316 1.487 . S
C2319 N2336 1.343 . S
H2320 C2292 0.931 . S
H2321 C2294 0.930 . S
H2322 C2296 0.930 . S
H2323 C2297 0.931 . S
H2324 C2299 0.931 . S
H2325 C2301 0.930 . S
H2326 C2303 0.930 . S
H2327 C2304 0.931 . S
H2328 C2306 0.931 . S
H2329 C2308 0.930 . S
H2330 C2310 0.930 . S
H2331 C2311 0.931 . S
H2332 C2313 0.931 . S
H2333 C2315 0.930 . S
H2334 C2317 0.930 . S
H2335 C2318 0.931 . S
N2336 C2298 1.343 . S
N2336 C2319 1.343 . S
N2337 C2305 1.343 . S
N2337 C2312 1.343 . S
C2338 C2339 1.384 . S
C2338 C2340 1.384 . S
C2338 H2366 0.931 . S
C2339 C2338 1.384 . S
C2339 C2342 1.382 . S
C2340 C2338 1.384 . S
C2340 C2341 1.381 . S
C2340 H2367 0.930 . S
C2341 C2340 1.381 . S
C2341 C2343 1.381 . S
C2341 C2344 1.487 . S
C2342 C2339 1.382 . S
C2342 C2343 1.387 . S
C2342 H2368 0.930 . S
C2343 C2341 1.381 . S
C2343 C2342 1.387 . S
C2343 H2369 0.931 . S
C2344 C2341 1.487 . S
C2344 C2351 1.399 . S
C2344 N2382 1.343 . S
C2345 C2346 1.384 . S
C2345 C2347 1.384 . S
C2345 H2370 0.931 . S
C2346 C2345 1.384 . S
C2346 C2349 1.382 . S
C2347 C2345 1.384 . S
C2347 C2348 1.381 . S
C2347 H2371 0.930 . S
C2348 C2347 1.381 . S
C2348 C2350 1.381 . S
C2348 C2351 1.487 . S
C2349 C2346 1.382 . S
C2349 C2350 1.387 . S
C2349 H2372 0.930 . S
C2350 C2348 1.381 . S
C2350 C2349 1.387 . S
C2350 H2373 0.931 . S
C2351 C2344 1.399 . S
C2351 C2348 1.487 . S
C2351 N2383 1.343 . S
C2352 C2353 1.384 . S
C2352 C2354 1.384 . S
C2352 H2374 0.931 . S
C2353 C2352 1.384 . S
C2353 C2356 1.382 . S
C2354 C2352 1.384 . S
C2354 C2355 1.381 . S
C2354 H2375 0.930 . S
C2355 C2354 1.381 . S
C2355 C2357 1.381 . S
C2355 C2358 1.487 . S
C2356 C2353 1.382 . S
C2356 C2357 1.387 . S
C2356 H2376 0.930 . S
C2357 C2355 1.381 . S
C2357 C2356 1.387 . S
C2357 H2377 0.931 . S
C2358 C2355 1.487 . S
C2358 C2365 1.399 . S
C2358 N2383 1.343 . S
C2359 C2360 1.384 . S
C2359 C2361 1.384 . S
C2359 H2378 0.931 . S
C2360 C2359 1.384 . S
C2360 C2363 1.382 . S
C2361 C2359 1.384 . S
C2361 C2362 1.381 . S
C2361 H2379 0.930 . S
C2362 C2361 1.381 . S
C2362 C2364 1.381 . S
C2362 C2365 1.487 . S
C2363 C2360 1.382 . S
C2363 C2364 1.387 . S
C2363 H2380 0.930 . S
C2364 C2362 1.381 . S
C2364 C2363 1.387 . S
C2364 H2381 0.931 . S
C2365 C2358 1.399 . S
C2365 C2362 1.487 . S
C2365 N2382 1.343 . S
H2366 C2338 0.931 . S
H2367 C2340 0.930 . S
H2368 C2342 0.930 . S
H2369 C2343 0.931 . S
H2370 C2345 0.931 . S
H2371 C2347 0.930 . S
H2372 C2349 0.930 . S
H2373 C2350 0.931 . S
H2374 C2352 0.931 . S
H2375 C2354 0.930 . S
H2376 C2356 0.930 . S
H2377 C2357 0.931 . S
H2378 C2359 0.931 . S
H2379 C2361 0.930 . S
H2380 C2363 0.930 . S
H2381 C2364 0.931 . S
N2382 C2344 1.343 . S
N2382 C2365 1.343 . S
N2383 C2351 1.343 . S
N2383 C2358 1.343 . S
H2384 C2392 0.950 . S
H2385 C2397 0.950 . S
H2386 C2394 0.950 . S
H2387 C2396 0.950 . S
H2388 C2398 0.950 . S
H2389 C2400 0.950 . S
H2390 C2402 0.950 . S
H2391 C2403 0.950 . S
C2392 H2384 0.950 . S
C2392 C2393 1.386 . S
C2392 C2394 1.391 . S
C2393 C2392 1.386 . S
C2393 C2397 1.393 . S
C2394 H2386 0.950 . S
C2394 C2392 1.391 . S
C2394 C2395 1.400 . S
C2395 C2394 1.400 . S
C2395 C2396 1.398 . S
C2395 C2401 1.491 . S
C2396 H2387 0.950 . S
C2396 C2395 1.398 . S
C2396 C2397 1.391 . S
C2397 H2385 0.950 . S
C2397 C2393 1.393 . S
C2397 C2396 1.391 . S
C2398 H2388 0.950 . S
C2398 C2399 1.386 . S
C2398 C2400 1.391 . S
C2399 C2398 1.386 . S
C2399 C2403 1.393 . S
C2400 H2389 0.950 . S
C2400 C2398 1.391 . S
C2400 C2401 1.400 . S
C2401 C2395 1.491 . S
C2401 C2400 1.400 . S
C2401 C2402 1.398 . S
C2402 H2390 0.950 . S
C2402 C2401 1.398 . S
C2402 C2403 1.391 . S
C2403 H2391 0.950 . S
C2403 C2399 1.393 . S
C2403 C2402 1.391 . S
H2404 C2412 0.950 . S
H2405 C2417 0.950 . S
H2406 C2414 0.950 . S
H2407 C2416 0.950 . S
H2408 C2418 0.950 . S
H2409 C2420 0.950 . S
H2410 C2422 0.950 . S
H2411 C2423 0.950 . S
C2412 H2404 0.950 . S
C2412 C2413 1.386 . S
C2412 C2414 1.391 . S
C2413 C2412 1.386 . S
C2413 C2417 1.393 . S
C2414 H2406 0.950 . S
C2414 C2412 1.391 . S
C2414 C2415 1.400 . S
C2415 C2414 1.400 . S
C2415 C2416 1.398 . S
C2415 C2421 1.491 . S
C2416 H2407 0.950 . S
C2416 C2415 1.398 . S
C2416 C2417 1.391 . S
C2417 H2405 0.950 . S
C2417 C2413 1.393 . S
C2417 C2416 1.391 . S
C2418 H2408 0.950 . S
C2418 C2419 1.386 . S
C2418 C2420 1.391 . S
C2419 C2418 1.386 . S
C2419 C2423 1.393 . S
C2420 H2409 0.950 . S
C2420 C2418 1.391 . S
C2420 C2421 1.400 . S
C2421 C2415 1.491 . S
C2421 C2420 1.400 . S
C2421 C2422 1.398 . S
C2422 H2410 0.950 . S
C2422 C2421 1.398 . S
C2422 C2423 1.391 . S
C2423 H2411 0.950 . S
C2423 C2419 1.393 . S
C2423 C2422 1.391 . S
H2424 C2432 0.950 . S
H2425 C2437 0.950 . S
H2426 C2434 0.950 . S
H2427 C2436 0.950 . S
H2428 C2438 0.950 . S
H2429 C2440 0.950 . S
H2430 C2442 0.950 . S
H2431 C2443 0.950 . S
C2432 H2424 0.950 . S
C2432 C2433 1.386 . S
C2432 C2434 1.391 . S
C2433 C2432 1.386 . S
C2433 C2437 1.393 . S
C2434 H2426 0.950 . S
C2434 C2432 1.391 . S
C2434 C2435 1.400 . S
C2435 C2434 1.400 . S
C2435 C2436 1.398 . S
C2435 C2441 1.491 . S
C2436 H2427 0.950 . S
C2436 C2435 1.398 . S
C2436 C2437 1.391 . S
C2437 H2425 0.950 . S
C2437 C2433 1.393 . S
C2437 C2436 1.391 . S
C2438 H2428 0.950 . S
C2438 C2439 1.386 . S
C2438 C2440 1.391 . S
C2439 C2438 1.386 . S
C2439 C2443 1.393 . S
C2440 H2429 0.950 . S
C2440 C2438 1.391 . S
C2440 C2441 1.400 . S
C2441 C2435 1.491 . S
C2441 C2440 1.400 . S
C2441 C2442 1.398 . S
C2442 H2430 0.950 . S
C2442 C2441 1.398 . S
C2442 C2443 1.391 . S
C2443 H2431 0.950 . S
C2443 C2439 1.393 . S
C2443 C2442 1.391 . S
H2444 C2452 0.950 . S
H2445 C2457 0.950 . S
H2446 C2454 0.950 . S
H2447 C2456 0.950 . S
H2448 C2458 0.950 . S
H2449 C2460 0.950 . S
H2450 C2462 0.950 . S
H2451 C2463 0.950 . S
C2452 H2444 0.950 . S
C2452 C2453 1.386 . S
C2452 C2454 1.391 . S
C2453 C2452 1.386 . S
C2453 C2457 1.393 . S
C2454 H2446 0.950 . S
C2454 C2452 1.391 . S
C2454 C2455 1.400 . S
C2455 C2454 1.400 . S
C2455 C2456 1.398 . S
C2455 C2461 1.491 . S
C2456 H2447 0.950 . S
C2456 C2455 1.398 . S
C2456 C2457 1.391 . S
C2457 H2445 0.950 . S
C2457 C2453 1.393 . S
C2457 C2456 1.391 . S
C2458 H2448 0.950 . S
C2458 C2459 1.386 . S
C2458 C2460 1.391 . S
C2459 C2458 1.386 . S
C2459 C2463 1.393 . S
C2460 H2449 0.950 . S
C2460 C2458 1.391 . S
C2460 C2461 1.400 . S
C2461 C2455 1.491 . S
C2461 C2460 1.400 . S
C2461 C2462 1.398 . S
C2462 H2450 0.950 . S
C2462 C2461 1.398 . S
C2462 C2463 1.391 . S
C2463 H2451 0.950 . S
C2463 C2459 1.393 . S
C2463 C2462 1.391 . S
H2464 C2472 0.950 . S
H2465 C2477 0.950 . S
H2466 C2474 0.950 . S
H2467 C2476 0.950 . S
H2468 C2478 0.950 . S
H2469 C2480 0.950 . S
H2470 C2482 0.950 . S
H2471 C2483 0.950 . S
C2472 H2464 0.950 . S
C2472 C2473 1.386 . S
C2472 C2474 1.391 . S
C2473 C2472 1.386 . S
C2473 C2477 1.393 . S
C2474 H2466 0.950 . S
C2474 C2472 1.391 . S
C2474 C2475 1.400 . S
C2475 C2474 1.400 . S
C2475 C2476 1.398 . S
C2475 C2481 1.491 . S
C2476 H2467 0.950 . S
C2476 C2475 1.398 . S
C2476 C2477 1.391 . S
C2477 H2465 0.950 . S
C2477 C2473 1.393 . S
C2477 C2476 1.391 . S
C2478 H2468 0.950 . S
C2478 C2479 1.386 . S
C2478 C2480 1.391 . S
C2479 C2478 1.386 . S
C2479 C2483 1.393 . S
C2480 H2469 0.950 . S
C2480 C2478 1.391 . S
C2480 C2481 1.400 . S
C2481 C2475 1.491 . S
C2481 C2480 1.400 . S
C2481 C2482 1.398 . S
C2482 H2470 0.950 . S
C2482 C2481 1.398 . S
C2482 C2483 1.391 . S
C2483 H2471 0.950 . S
C2483 C2479 1.393 . S
C2483 C2482 1.391 . S
H2484 C2492 0.950 . S
H2485 C2497 0.950 . S
H2486 C2494 0.950 . S
H2487 C2496 0.950 . S
H2488 C2498 0.950 . S
H2489 C2500 0.950 . S
H2490 C2502 0.950 . S
H2491 C2503 0.950 . S
C2492 H2484 0.950 . S
C2492 C2493 1.386 . S
C2492 C2494 1.391 . S
C2493 C2492 1.386 . S
C2493 C2497 1.393 . S
C2494 H2486 0.950 . S
C2494 C2492 1.391 . S
C2494 C2495 1.400 . S
C2495 C2494 1.400 . S
C2495 C2496 1.398 . S
C2495 C2501 1.491 . S
C2496 H2487 0.950 . S
C2496 C2495 1.398 . S
C2496 C2497 1.391 . S
C2497 H2485 0.950 . S
C2497 C2493 1.393 . S
C2497 C2496 1.391 . S
C2498 H2488 0.950 . S
C2498 C2499 1.386 . S
C2498 C2500 1.391 . S
C2499 C2498 1.386 . S
C2499 C2503 1.393 . S
C2500 H2489 0.950 . S
C2500 C2498 1.391 . S
C2500 C2501 1.400 . S
C2501 C2495 1.491 . S
C2501 C2500 1.400 . S
C2501 C2502 1.398 . S
C2502 H2490 0.950 . S
C2502 C2501 1.398 . S
C2502 C2503 1.391 . S
C2503 H2491 0.950 . S
C2503 C2499 1.393 . S
C2503 C2502 1.391 . S
H2504 C2512 0.950 . S
H2505 C2517 0.950 . S
H2506 C2514 0.950 . S
H2507 C2516 0.950 . S
H2508 C2518 0.950 . S
H2509 C2520 0.950 . S
H2510 C2522 0.950 . S
H2511 C2523 0.950 . S
C2512 H2504 0.950 . S
C2512 C2513 1.386 . S
C2512 C2514 1.391 . S
C2513 C2512 1.386 . S
C2513 C2517 1.393 . S
C2514 H2506 0.950 . S
C2514 C2512 1.391 . S
C2514 C2515 1.400 . S
C2515 C2514 1.400 . S
C2515 C2516 1.398 . S
C2515 C2521 1.491 . S
C2516 H2507 0.950 . S
C2516 C2515 1.398 . S
C2516 C2517 1.391 . S
C2517 H2505 0.950 . S
C2517 C2513 1.393 . S
C2517 C2516 1.391 . S
C2518 H2508 0.950 . S
C2518 C2519 1.386 . S
C2518 C2520 1.391 . S
C2519 C2518 1.386 . S
C2519 C2523 1.393 . S
C2520 H2509 0.950 . S
C2520 C2518 1.391 . S
C2520 C2521 1.400 . S
C2521 C2515 1.491 . S
C2521 C2520 1.400 . S
C2521 C2522 1.398 . S
C2522 H2510 0.950 . S
C2522 C2521 1.398 . S
C2522 C2523 1.391 . S
C2523 H2511 0.950 . S
C2523 C2519 1.393 . S
C2523 C2522 1.391 . S
H2524 C2532 0.950 . S
H2525 C2537 0.950 . S
H2526 C2534 0.950 . S
H2527 C2536 0.950 . S
H2528 C2538 0.950 . S
H2529 C2540 0.950 . S
H2530 C2542 0.950 . S
H2531 C2543 0.950 . S
C2532 H2524 0.950 . S
C2532 C2533 1.386 . S
C2532 C2534 1.391 . S
C2533 C2532 1.386 . S
C2533 C2537 1.393 . S
C2534 H2526 0.950 . S
C2534 C2532 1.391 . S
C2534 C2535 1.400 . S
C2535 C2534 1.400 . S
C2535 C2536 1.398 . S
C2535 C2541 1.491 . S
C2536 H2527 0.950 . S
C2536 C2535 1.398 . S
C2536 C2537 1.391 . S
C2537 H2525 0.950 . S
C2537 C2533 1.393 . S
C2537 C2536 1.391 . S
C2538 H2528 0.950 . S
C2538 C2539 1.386 . S
C2538 C2540 1.391 . S
C2539 C2538 1.386 . S
C2539 C2543 1.393 . S
C2540 H2529 0.950 . S
C2540 C2538 1.391 . S
C2540 C2541 1.400 . S
C2541 C2535 1.491 . S
C2541 C2540 1.400 . S
C2541 C2542 1.398 . S
C2542 H2530 0.950 . S
C2542 C2541 1.398 . S
C2542 C2543 1.391 . S
C2543 H2531 0.950 . S
C2543 C2539 1.393 . S
C2543 C2542 1.391 . S
H2544 C2552 0.950 . S
H2545 C2557 0.950 . S
H2546 C2554 0.950 . S
H2547 C2556 0.950 . S
H2548 C2558 0.950 . S
H2549 C2560 0.950 . S
H2550 C2562 0.950 . S
H2551 C2563 0.950 . S
C2552 H2544 0.950 . S
C2552 C2553 1.386 . S
C2552 C2554 1.391 . S
C2553 C2552 1.386 . S
C2553 C2557 1.393 . S
C2554 H2546 0.950 . S
C2554 C2552 1.391 . S
C2554 C2555 1.400 . S
C2555 C2554 1.400 . S
C2555 C2556 1.398 . S
C2555 C2561 1.491 . S
C2556 H2547 0.950 . S
C2556 C2555 1.398 . S
C2556 C2557 1.391 . S
C2557 H2545 0.950 . S
C2557 C2553 1.393 . S
C2557 C2556 1.391 . S
C2558 H2548 0.950 . S
C2558 C2559 1.386 . S
C2558 C2560 1.391 . S
C2559 C2558 1.386 . S
C2559 C2563 1.393 . S
C2560 H2549 0.950 . S
C2560 C2558 1.391 . S
C2560 C2561 1.400 . S
C2561 C2555 1.491 . S
C2561 C2560 1.400 . S
C2561 C2562 1.398 . S
C2562 H2550 0.950 . S
C2562 C2561 1.398 . S
C2562 C2563 1.391 . S
C2563 H2551 0.950 . S
C2563 C2559 1.393 . S
C2563 C2562 1.391 . S
H2564 C2572 0.950 . S
H2565 C2577 0.950 . S
H2566 C2574 0.950 . S
H2567 C2576 0.950 . S
H2568 C2578 0.950 . S
H2569 C2580 0.950 . S
H2570 C2582 0.950 . S
H2571 C2583 0.950 . S
C2572 H2564 0.950 . S
C2572 C2573 1.386 . S
C2572 C2574 1.391 . S
C2573 C2572 1.386 . S
C2573 C2577 1.393 . S
C2574 H2566 0.950 . S
C2574 C2572 1.391 . S
C2574 C2575 1.400 . S
C2575 C2574 1.400 . S
C2575 C2576 1.398 . S
C2575 C2581 1.491 . S
C2576 H2567 0.950 . S
C2576 C2575 1.398 . S
C2576 C2577 1.391 . S
C2577 H2565 0.950 . S
C2577 C2573 1.393 . S
C2577 C2576 1.391 . S
C2578 H2568 0.950 . S
C2578 C2579 1.386 . S
C2578 C2580 1.391 . S
C2579 C2578 1.386 . S
C2579 C2583 1.393 . S
C2580 H2569 0.950 . S
C2580 C2578 1.391 . S
C2580 C2581 1.400 . S
C2581 C2575 1.491 . S
C2581 C2580 1.400 . S
C2581 C2582 1.398 . S
C2582 H2570 0.950 . S
C2582 C2581 1.398 . S
C2582 C2583 1.391 . S
C2583 H2571 0.950 . S
C2583 C2579 1.393 . S
C2583 C2582 1.391 . S
H2584 C2592 0.950 . S
H2585 C2597 0.950 . S
H2586 C2594 0.950 . S
H2587 C2596 0.950 . S
H2588 C2598 0.950 . S
H2589 C2600 0.950 . S
H2590 C2602 0.950 . S
H2591 C2603 0.950 . S
C2592 H2584 0.950 . S
C2592 C2593 1.386 . S
C2592 C2594 1.391 . S
C2593 C2592 1.386 . S
C2593 C2597 1.393 . S
C2594 H2586 0.950 . S
C2594 C2592 1.391 . S
C2594 C2595 1.400 . S
C2595 C2594 1.400 . S
C2595 C2596 1.398 . S
C2595 C2601 1.491 . S
C2596 H2587 0.950 . S
C2596 C2595 1.398 . S
C2596 C2597 1.391 . S
C2597 H2585 0.950 . S
C2597 C2593 1.393 . S
C2597 C2596 1.391 . S
C2598 H2588 0.950 . S
C2598 C2599 1.386 . S
C2598 C2600 1.391 . S
C2599 C2598 1.386 . S
C2599 C2603 1.393 . S
C2600 H2589 0.950 . S
C2600 C2598 1.391 . S
C2600 C2601 1.400 . S
C2601 C2595 1.491 . S
C2601 C2600 1.400 . S
C2601 C2602 1.398 . S
C2602 H2590 0.950 . S
C2602 C2601 1.398 . S
C2602 C2603 1.391 . S
C2603 H2591 0.950 . S
C2603 C2599 1.393 . S
C2603 C2602 1.391 . S
H2604 C2612 0.950 . S
H2605 C2617 0.950 . S
H2606 C2614 0.950 . S
H2607 C2616 0.950 . S
H2608 C2618 0.950 . S
H2609 C2620 0.950 . S
H2610 C2622 0.950 . S
H2611 C2623 0.950 . S
C2612 H2604 0.950 . S
C2612 C2613 1.386 . S
C2612 C2614 1.391 . S
C2613 C2612 1.386 . S
C2613 C2617 1.393 . S
C2614 H2606 0.950 . S
C2614 C2612 1.391 . S
C2614 C2615 1.400 . S
C2615 C2614 1.400 . S
C2615 C2616 1.398 . S
C2615 C2621 1.491 . S
C2616 H2607 0.950 . S
C2616 C2615 1.398 . S
C2616 C2617 1.391 . S
C2617 H2605 0.950 . S
C2617 C2613 1.393 . S
C2617 C2616 1.391 . S
C2618 H2608 0.950 . S
C2618 C2619 1.386 . S
C2618 C2620 1.391 . S
C2619 C2618 1.386 . S
C2619 C2623 1.393 . S
C2620 H2609 0.950 . S
C2620 C2618 1.391 . S
C2620 C2621 1.400 . S
C2621 C2615 1.491 . S
C2621 C2620 1.400 . S
C2621 C2622 1.398 . S
C2622 H2610 0.950 . S
C2622 C2621 1.398 . S
C2622 C2623 1.391 . S
C2623 H2611 0.950 . S
C2623 C2619 1.393 . S
C2623 C2622 1.391 . S
H2624 C2632 0.950 . S
H2625 C2637 0.950 . S
H2626 C2634 0.950 . S
H2627 C2636 0.950 . S
H2628 C2638 0.950 . S
H2629 C2640 0.950 . S
H2630 C2642 0.950 . S
H2631 C2643 0.950 . S
C2632 H2624 0.950 . S
C2632 C2633 1.386 . S
C2632 C2634 1.391 . S
C2633 C2632 1.386 . S
C2633 C2637 1.393 . S
C2634 H2626 0.950 . S
C2634 C2632 1.391 . S
C2634 C2635 1.400 . S
C2635 C2634 1.400 . S
C2635 C2636 1.398 . S
C2635 C2641 1.491 . S
C2636 H2627 0.950 . S
C2636 C2635 1.398 . S
C2636 C2637 1.391 . S
C2637 H2625 0.950 . S
C2637 C2633 1.393 . S
C2637 C2636 1.391 . S
C2638 H2628 0.950 . S
C2638 C2639 1.386 . S
C2638 C2640 1.391 . S
C2639 C2638 1.386 . S
C2639 C2643 1.393 . S
C2640 H2629 0.950 . S
C2640 C2638 1.391 . S
C2640 C2641 1.400 . S
C2641 C2635 1.491 . S
C2641 C2640 1.400 . S
C2641 C2642 1.398 . S
C2642 H2630 0.950 . S
C2642 C2641 1.398 . S
C2642 C2643 1.391 . S
C2643 H2631 0.950 . S
C2643 C2639 1.393 . S
C2643 C2642 1.391 . S
H2644 C2652 0.950 . S
H2645 C2657 0.950 . S
H2646 C2654 0.950 . S
H2647 C2656 0.950 . S
H2648 C2658 0.950 . S
H2649 C2660 0.950 . S
H2650 C2662 0.950 . S
H2651 C2663 0.950 . S
C2652 H2644 0.950 . S
C2652 C2653 1.386 . S
C2652 C2654 1.391 . S
C2653 C2652 1.386 . S
C2653 C2657 1.393 . S
C2654 H2646 0.950 . S
C2654 C2652 1.391 . S
C2654 C2655 1.400 . S
C2655 C2654 1.400 . S
C2655 C2656 1.398 . S
C2655 C2661 1.491 . S
C2656 H2647 0.950 . S
C2656 C2655 1.398 . S
C2656 C2657 1.391 . S
C2657 H2645 0.950 . S
C2657 C2653 1.393 . S
C2657 C2656 1.391 . S
C2658 H2648 0.950 . S
C2658 C2659 1.386 . S
C2658 C2660 1.391 . S
C2659 C2658 1.386 . S
C2659 C2663 1.393 . S
C2660 H2649 0.950 . S
C2660 C2658 1.391 . S
C2660 C2661 1.400 . S
C2661 C2655 1.491 . S
C2661 C2660 1.400 . S
C2661 C2662 1.398 . S
C2662 H2650 0.950 . S
C2662 C2661 1.398 . S
C2662 C2663 1.391 . S
C2663 H2651 0.950 . S
C2663 C2659 1.393 . S
C2663 C2662 1.391 . S
H2664 C2672 0.950 . S
H2665 C2677 0.950 . S
H2666 C2674 0.950 . S
H2667 C2676 0.950 . S
H2668 C2678 0.950 . S
H2669 C2680 0.950 . S
H2670 C2682 0.950 . S
H2671 C2683 0.950 . S
C2672 H2664 0.950 . S
C2672 C2673 1.386 . S
C2672 C2674 1.391 . S
C2673 C2672 1.386 . S
C2673 C2677 1.393 . S
C2674 H2666 0.950 . S
C2674 C2672 1.391 . S
C2674 C2675 1.400 . S
C2675 C2674 1.400 . S
C2675 C2676 1.398 . S
C2675 C2681 1.491 . S
C2676 H2667 0.950 . S
C2676 C2675 1.398 . S
C2676 C2677 1.391 . S
C2677 H2665 0.950 . S
C2677 C2673 1.393 . S
C2677 C2676 1.391 . S
C2678 H2668 0.950 . S
C2678 C2679 1.386 . S
C2678 C2680 1.391 . S
C2679 C2678 1.386 . S
C2679 C2683 1.393 . S
C2680 H2669 0.950 . S
C2680 C2678 1.391 . S
C2680 C2681 1.400 . S
C2681 C2675 1.491 . S
C2681 C2680 1.400 . S
C2681 C2682 1.398 . S
C2682 H2670 0.950 . S
C2682 C2681 1.398 . S
C2682 C2683 1.391 . S
C2683 H2671 0.950 . S
C2683 C2679 1.393 . S
C2683 C2682 1.391 . S
H2684 C2692 0.950 . S
H2685 C2697 0.950 . S
H2686 C2694 0.950 . S
H2687 C2696 0.950 . S
H2688 C2698 0.950 . S
H2689 C2700 0.950 . S
H2690 C2702 0.950 . S
H2691 C2703 0.950 . S
C2692 H2684 0.950 . S
C2692 C2693 1.386 . S
C2692 C2694 1.391 . S
C2693 C2692 1.386 . S
C2693 C2697 1.393 . S
C2694 H2686 0.950 . S
C2694 C2692 1.391 . S
C2694 C2695 1.400 . S
C2695 C2694 1.400 . S
C2695 C2696 1.398 . S
C2695 C2701 1.491 . S
C2696 H2687 0.950 . S
C2696 C2695 1.398 . S
C2696 C2697 1.391 . S
C2697 H2685 0.950 . S
C2697 C2693 1.393 . S
C2697 C2696 1.391 . S
C2698 H2688 0.950 . S
C2698 C2699 1.386 . S
C2698 C2700 1.391 . S
C2699 C2698 1.386 . S
C2699 C2703 1.393 . S
C2700 H2689 0.950 . S
C2700 C2698 1.391 . S
C2700 C2701 1.400 . S
C2701 C2695 1.491 . S
C2701 C2700 1.400 . S
C2701 C2702 1.398 . S
C2702 H2690 0.950 . S
C2702 C2701 1.398 . S
C2702 C2703 1.391 . S
C2703 H2691 0.950 . S
C2703 C2699 1.393 . S
C2703 C2702 1.391 . S
H2704 C2712 0.950 . S
H2705 C2717 0.950 . S
H2706 C2714 0.950 . S
H2707 C2716 0.950 . S
H2708 C2718 0.950 . S
H2709 C2720 0.950 . S
H2710 C2722 0.950 . S
H2711 C2723 0.950 . S
C2712 H2704 0.950 . S
C2712 C2713 1.386 . S
C2712 C2714 1.391 . S
C2713 C2712 1.386 . S
C2713 C2717 1.393 . S
C2714 H2706 0.950 . S
C2714 C2712 1.391 . S
C2714 C2715 1.400 . S
C2715 C2714 1.400 . S
C2715 C2716 1.398 . S
C2715 C2721 1.491 . S
C2716 H2707 0.950 . S
C2716 C2715 1.398 . S
C2716 C2717 1.391 . S
C2717 H2705 0.950 . S
C2717 C2713 1.393 . S
C2717 C2716 1.391 . S
C2718 H2708 0.950 . S
C2718 C2719 1.386 . S
C2718 C2720 1.391 . S
C2719 C2718 1.386 . S
C2719 C2723 1.393 . S
C2720 H2709 0.950 . S
C2720 C2718 1.391 . S
C2720 C2721 1.400 . S
C2721 C2715 1.491 . S
C2721 C2720 1.400 . S
C2721 C2722 1.398 . S
C2722 H2710 0.950 . S
C2722 C2721 1.398 . S
C2722 C2723 1.391 . S
C2723 H2711 0.950 . S
C2723 C2719 1.393 . S
C2723 C2722 1.391 . S
H2724 C2732 0.950 . S
H2725 C2737 0.950 . S
H2726 C2734 0.950 . S
H2727 C2736 0.950 . S
H2728 C2738 0.950 . S
H2729 C2740 0.950 . S
H2730 C2742 0.950 . S
H2731 C2743 0.950 . S
C2732 H2724 0.950 . S
C2732 C2733 1.386 . S
C2732 C2734 1.391 . S
C2733 C2732 1.386 . S
C2733 C2737 1.393 . S
C2734 H2726 0.950 . S
C2734 C2732 1.391 . S
C2734 C2735 1.400 . S
C2735 C2734 1.400 . S
C2735 C2736 1.398 . S
C2735 C2741 1.491 . S
C2736 H2727 0.950 . S
C2736 C2735 1.398 . S
C2736 C2737 1.391 . S
C2737 H2725 0.950 . S
C2737 C2733 1.393 . S
C2737 C2736 1.391 . S
C2738 H2728 0.950 . S
C2738 C2739 1.386 . S
C2738 C2740 1.391 . S
C2739 C2738 1.386 . S
C2739 C2743 1.393 . S
C2740 H2729 0.950 . S
C2740 C2738 1.391 . S
C2740 C2741 1.400 . S
C2741 C2735 1.491 . S
C2741 C2740 1.400 . S
C2741 C2742 1.398 . S
C2742 H2730 0.950 . S
C2742 C2741 1.398 . S
C2742 C2743 1.391 . S
C2743 H2731 0.950 . S
C2743 C2739 1.393 . S
C2743 C2742 1.391 . S
H2744 C2752 0.950 . S
H2745 C2757 0.950 . S
H2746 C2754 0.950 . S
H2747 C2756 0.950 . S
H2748 C2758 0.950 . S
H2749 C2760 0.950 . S
H2750 C2762 0.950 . S
H2751 C2763 0.950 . S
C2752 H2744 0.950 . S
C2752 C2753 1.386 . S
C2752 C2754 1.391 . S
C2753 C2752 1.386 . S
C2753 C2757 1.393 . S
C2754 H2746 0.950 . S
C2754 C2752 1.391 . S
C2754 C2755 1.400 . S
C2755 C2754 1.400 . S
C2755 C2756 1.398 . S
C2755 C2761 1.491 . S
C2756 H2747 0.950 . S
C2756 C2755 1.398 . S
C2756 C2757 1.391 . S
C2757 H2745 0.950 . S
C2757 C2753 1.393 . S
C2757 C2756 1.391 . S
C2758 H2748 0.950 . S
C2758 C2759 1.386 . S
C2758 C2760 1.391 . S
C2759 C2758 1.386 . S
C2759 C2763 1.393 . S
C2760 H2749 0.950 . S
C2760 C2758 1.391 . S
C2760 C2761 1.400 . S
C2761 C2755 1.491 . S
C2761 C2760 1.400 . S
C2761 C2762 1.398 . S
C2762 H2750 0.950 . S
C2762 C2761 1.398 . S
C2762 C2763 1.391 . S
C2763 H2751 0.950 . S
C2763 C2759 1.393 . S
C2763 C2762 1.391 . S
H2764 C2772 0.950 . S
H2765 C2777 0.950 . S
H2766 C2774 0.950 . S
H2767 C2776 0.950 . S
H2768 C2778 0.950 . S
H2769 C2780 0.950 . S
H2770 C2782 0.950 . S
H2771 C2783 0.950 . S
C2772 H2764 0.950 . S
C2772 C2773 1.386 . S
C2772 C2774 1.391 . S
C2773 C2772 1.386 . S
C2773 C2777 1.393 . S
C2774 H2766 0.950 . S
C2774 C2772 1.391 . S
C2774 C2775 1.400 . S
C2775 C2774 1.400 . S
C2775 C2776 1.398 . S
C2775 C2781 1.491 . S
C2776 H2767 0.950 . S
C2776 C2775 1.398 . S
C2776 C2777 1.391 . S
C2777 H2765 0.950 . S
C2777 C2773 1.393 . S
C2777 C2776 1.391 . S
C2778 H2768 0.950 . S
C2778 C2779 1.386 . S
C2778 C2780 1.391 . S
C2779 C2778 1.386 . S
C2779 C2783 1.393 . S
C2780 H2769 0.950 . S
C2780 C2778 1.391 . S
C2780 C2781 1.400 . S
C2781 C2775 1.491 . S
C2781 C2780 1.400 . S
C2781 C2782 1.398 . S
C2782 H2770 0.950 . S
C2782 C2781 1.398 . S
C2782 C2783 1.391 . S
C2783 H2771 0.950 . S
C2783 C2779 1.393 . S
C2783 C2782 1.391 . S
H2784 C2792 0.950 . S
H2785 C2797 0.950 . S
H2786 C2794 0.950 . S
H2787 C2796 0.950 . S
H2788 C2798 0.950 . S
H2789 C2800 0.950 . S
H2790 C2802 0.950 . S
H2791 C2803 0.950 . S
C2792 H2784 0.950 . S
C2792 C2793 1.386 . S
C2792 C2794 1.391 . S
C2793 C2792 1.386 . S
C2793 C2797 1.393 . S
C2794 H2786 0.950 . S
C2794 C2792 1.391 . S
C2794 C2795 1.400 . S
C2795 C2794 1.400 . S
C2795 C2796 1.398 . S
C2795 C2801 1.491 . S
C2796 H2787 0.950 . S
C2796 C2795 1.398 . S
C2796 C2797 1.391 . S
C2797 H2785 0.950 . S
C2797 C2793 1.393 . S
C2797 C2796 1.391 . S
C2798 H2788 0.950 . S
C2798 C2799 1.386 . S
C2798 C2800 1.391 . S
C2799 C2798 1.386 . S
C2799 C2803 1.393 . S
C2800 H2789 0.950 . S
C2800 C2798 1.391 . S
C2800 C2801 1.400 . S
C2801 C2795 1.491 . S
C2801 C2800 1.400 . S
C2801 C2802 1.398 . S
C2802 H2790 0.950 . S
C2802 C2801 1.398 . S
C2802 C2803 1.391 . S
C2803 H2791 0.950 . S
C2803 C2799 1.393 . S
C2803 C2802 1.391 . S
H2804 C2812 0.950 . S
H2805 C2817 0.950 . S
H2806 C2814 0.950 . S
H2807 C2816 0.950 . S
H2808 C2818 0.950 . S
H2809 C2820 0.950 . S
H2810 C2822 0.950 . S
H2811 C2823 0.950 . S
C2812 H2804 0.950 . S
C2812 C2813 1.386 . S
C2812 C2814 1.391 . S
C2813 C2812 1.386 . S
C2813 C2817 1.393 . S
C2814 H2806 0.950 . S
C2814 C2812 1.391 . S
C2814 C2815 1.400 . S
C2815 C2814 1.400 . S
C2815 C2816 1.398 . S
C2815 C2821 1.491 . S
C2816 H2807 0.950 . S
C2816 C2815 1.398 . S
C2816 C2817 1.391 . S
C2817 H2805 0.950 . S
C2817 C2813 1.393 . S
C2817 C2816 1.391 . S
C2818 H2808 0.950 . S
C2818 C2819 1.386 . S
C2818 C2820 1.391 . S
C2819 C2818 1.386 . S
C2819 C2823 1.393 . S
C2820 H2809 0.950 . S
C2820 C2818 1.391 . S
C2820 C2821 1.400 . S
C2821 C2815 1.491 . S
C2821 C2820 1.400 . S
C2821 C2822 1.398 . S
C2822 H2810 0.950 . S
C2822 C2821 1.398 . S
C2822 C2823 1.391 . S
C2823 H2811 0.950 . S
C2823 C2819 1.393 . S
C2823 C2822 1.391 . S
H2824 C2832 0.950 . S
H2825 C2837 0.950 . S
H2826 C2834 0.950 . S
H2827 C2836 0.950 . S
H2828 C2838 0.950 . S
H2829 C2840 0.950 . S
H2830 C2842 0.950 . S
H2831 C2843 0.950 . S
C2832 H2824 0.950 . S
C2832 C2833 1.386 . S
C2832 C2834 1.391 . S
C2833 C2832 1.386 . S
C2833 C2837 1.393 . S
C2834 H2826 0.950 . S
C2834 C2832 1.391 . S
C2834 C2835 1.400 . S
C2835 C2834 1.400 . S
C2835 C2836 1.398 . S
C2835 C2841 1.491 . S
C2836 H2827 0.950 . S
C2836 C2835 1.398 . S
C2836 C2837 1.391 . S
C2837 H2825 0.950 . S
C2837 C2833 1.393 . S
C2837 C2836 1.391 . S
C2838 H2828 0.950 . S
C2838 C2839 1.386 . S
C2838 C2840 1.391 . S
C2839 C2838 1.386 . S
C2839 C2843 1.393 . S
C2840 H2829 0.950 . S
C2840 C2838 1.391 . S
C2840 C2841 1.400 . S
C2841 C2835 1.491 . S
C2841 C2840 1.400 . S
C2841 C2842 1.398 . S
C2842 H2830 0.950 . S
C2842 C2841 1.398 . S
C2842 C2843 1.391 . S
C2843 H2831 0.950 . S
C2843 C2839 1.393 . S
C2843 C2842 1.391 . S
H2844 C2852 0.950 . S
H2845 C2857 0.950 . S
H2846 C2854 0.950 . S
H2847 C2856 0.950 . S
H2848 C2858 0.950 . S
H2849 C2860 0.950 . S
H2850 C2862 0.950 . S
H2851 C2863 0.950 . S
C2852 H2844 0.950 . S
C2852 C2853 1.386 . S
C2852 C2854 1.391 . S
C2853 C2852 1.386 . S
C2853 C2857 1.393 . S
C2854 H2846 0.950 . S
C2854 C2852 1.391 . S
C2854 C2855 1.400 . S
C2855 C2854 1.400 . S
C2855 C2856 1.398 . S
C2855 C2861 1.491 . S
C2856 H2847 0.950 . S
C2856 C2855 1.398 . S
C2856 C2857 1.391 . S
C2857 H2845 0.950 . S
C2857 C2853 1.393 . S
C2857 C2856 1.391 . S
C2858 H2848 0.950 . S
C2858 C2859 1.386 . S
C2858 C2860 1.391 . S
C2859 C2858 1.386 . S
C2859 C2863 1.393 . S
C2860 H2849 0.950 . S
C2860 C2858 1.391 . S
C2860 C2861 1.400 . S
C2861 C2855 1.491 . S
C2861 C2860 1.400 . S
C2861 C2862 1.398 . S
C2862 H2850 0.950 . S
C2862 C2861 1.398 . S
C2862 C2863 1.391 . S
C2863 H2851 0.950 . S
C2863 C2859 1.393 . S
C2863 C2862 1.391 . S
H2864 C2872 0.950 . S
H2865 C2877 0.950 . S
H2866 C2874 0.950 . S
H2867 C2876 0.950 . S
H2868 C2878 0.950 . S
H2869 C2880 0.950 . S
H2870 C2882 0.950 . S
H2871 C2883 0.950 . S
C2872 H2864 0.950 . S
C2872 C2873 1.386 . S
C2872 C2874 1.391 . S
C2873 C2872 1.386 . S
C2873 C2877 1.393 . S
C2874 H2866 0.950 . S
C2874 C2872 1.391 . S
C2874 C2875 1.400 . S
C2875 C2874 1.400 . S
C2875 C2876 1.398 . S
C2875 C2881 1.491 . S
C2876 H2867 0.950 . S
C2876 C2875 1.398 . S
C2876 C2877 1.391 . S
C2877 H2865 0.950 . S
C2877 C2873 1.393 . S
C2877 C2876 1.391 . S
C2878 H2868 0.950 . S
C2878 C2879 1.386 . S
C2878 C2880 1.391 . S
C2879 C2878 1.386 . S
C2879 C2883 1.393 . S
C2880 H2869 0.950 . S
C2880 C2878 1.391 . S
C2880 C2881 1.400 . S
C2881 C2875 1.491 . S
C2881 C2880 1.400 . S
C2881 C2882 1.398 . S
C2882 H2870 0.950 . S
C2882 C2881 1.398 . S
C2882 C2883 1.391 . S
C2883 H2871 0.950 . S
C2883 C2879 1.393 . S
C2883 C2882 1.391 . S
H2884 C2892 0.950 . S
H2885 C2897 0.950 . S
H2886 C2894 0.950 . S
H2887 C2896 0.950 . S
H2888 C2898 0.950 . S
H2889 C2900 0.950 . S
H2890 C2902 0.950 . S
H2891 C2903 0.950 . S
C2892 H2884 0.950 . S
C2892 C2893 1.386 . S
C2892 C2894 1.391 . S
C2893 C2892 1.386 . S
C2893 C2897 1.393 . S
C2894 H2886 0.950 . S
C2894 C2892 1.391 . S
C2894 C2895 1.400 . S
C2895 C2894 1.400 . S
C2895 C2896 1.398 . S
C2895 C2901 1.491 . S
C2896 H2887 0.950 . S
C2896 C2895 1.398 . S
C2896 C2897 1.391 . S
C2897 H2885 0.950 . S
C2897 C2893 1.393 . S
C2897 C2896 1.391 . S
C2898 H2888 0.950 . S
C2898 C2899 1.386 . S
C2898 C2900 1.391 . S
C2899 C2898 1.386 . S
C2899 C2903 1.393 . S
C2900 H2889 0.950 . S
C2900 C2898 1.391 . S
C2900 C2901 1.400 . S
C2901 C2895 1.491 . S
C2901 C2900 1.400 . S
C2901 C2902 1.398 . S
C2902 H2890 0.950 . S
C2902 C2901 1.398 . S
C2902 C2903 1.391 . S
C2903 H2891 0.950 . S
C2903 C2899 1.393 . S
C2903 C2902 1.391 . S
H2904 C2912 0.950 . S
H2905 C2917 0.950 . S
H2906 C2914 0.950 . S
H2907 C2916 0.950 . S
H2908 C2918 0.950 . S
H2909 C2920 0.950 . S
H2910 C2922 0.950 . S
H2911 C2923 0.950 . S
C2912 H2904 0.950 . S
C2912 C2913 1.386 . S
C2912 C2914 1.391 . S
C2913 C2912 1.386 . S
C2913 C2917 1.393 . S
C2914 H2906 0.950 . S
C2914 C2912 1.391 . S
C2914 C2915 1.400 . S
C2915 C2914 1.400 . S
C2915 C2916 1.398 . S
C2915 C2921 1.491 . S
C2916 H2907 0.950 . S
C2916 C2915 1.398 . S
C2916 C2917 1.391 . S
C2917 H2905 0.950 . S
C2917 C2913 1.393 . S
C2917 C2916 1.391 . S
C2918 H2908 0.950 . S
C2918 C2919 1.386 . S
C2918 C2920 1.391 . S
C2919 C2918 1.386 . S
C2919 C2923 1.393 . S
C2920 H2909 0.950 . S
C2920 C2918 1.391 . S
C2920 C2921 1.400 . S
C2921 C2915 1.491 . S
C2921 C2920 1.400 . S
C2921 C2922 1.398 . S
C2922 H2910 0.950 . S
C2922 C2921 1.398 . S
C2922 C2923 1.391 . S
C2923 H2911 0.950 . S
C2923 C2919 1.393 . S
C2923 C2922 1.391 . S
H2924 C2932 0.950 . S
H2925 C2937 0.950 . S
H2926 C2934 0.950 . S
H2927 C2936 0.950 . S
H2928 C2938 0.950 . S
H2929 C2940 0.950 . S
H2930 C2942 0.950 . S
H2931 C2943 0.950 . S
C2932 H2924 0.950 . S
C2932 C2933 1.386 . S
C2932 C2934 1.391 . S
C2933 C2932 1.386 . S
C2933 C2937 1.393 . S
C2934 H2926 0.950 . S
C2934 C2932 1.391 . S
C2934 C2935 1.400 . S
C2935 C2934 1.400 . S
C2935 C2936 1.398 . S
C2935 C2941 1.491 . S
C2936 H2927 0.950 . S
C2936 C2935 1.398 . S
C2936 C2937 1.391 . S
C2937 H2925 0.950 . S
C2937 C2933 1.393 . S
C2937 C2936 1.391 . S
C2938 H2928 0.950 . S
C2938 C2939 1.386 . S
C2938 C2940 1.391 . S
C2939 C2938 1.386 . S
C2939 C2943 1.393 . S
C2940 H2929 0.950 . S
C2940 C2938 1.391 . S
C2940 C2941 1.400 . S
C2941 C2935 1.491 . S
C2941 C2940 1.400 . S
C2941 C2942 1.398 . S
C2942 H2930 0.950 . S
C2942 C2941 1.398 . S
C2942 C2943 1.391 . S
C2943 H2931 0.950 . S
C2943 C2939 1.393 . S
C2943 C2942 1.391 . S
H2944 C2952 0.950 . S
H2945 C2957 0.950 . S
H2946 C2954 0.950 . S
H2947 C2956 0.950 . S
H2948 C2958 0.950 . S
H2949 C2960 0.950 . S
H2950 C2962 0.950 . S
H2951 C2963 0.950 . S
C2952 H2944 0.950 . S
C2952 C2953 1.386 . S
C2952 C2954 1.391 . S
C2953 C2952 1.386 . S
C2953 C2957 1.393 . S
C2954 H2946 0.950 . S
C2954 C2952 1.391 . S
C2954 C2955 1.400 . S
C2955 C2954 1.400 . S
C2955 C2956 1.398 . S
C2955 C2961 1.491 . S
C2956 H2947 0.950 . S
C2956 C2955 1.398 . S
C2956 C2957 1.391 . S
C2957 H2945 0.950 . S
C2957 C2953 1.393 . S
C2957 C2956 1.391 . S
C2958 H2948 0.950 . S
C2958 C2959 1.386 . S
C2958 C2960 1.391 . S
C2959 C2958 1.386 . S
C2959 C2963 1.393 . S
C2960 H2949 0.950 . S
C2960 C2958 1.391 . S
C2960 C2961 1.400 . S
C2961 C2955 1.491 . S
C2961 C2960 1.400 . S
C2961 C2962 1.398 . S
C2962 H2950 0.950 . S
C2962 C2961 1.398 . S
C2962 C2963 1.391 . S
C2963 H2951 0.950 . S
C2963 C2959 1.393 . S
C2963 C2962 1.391 . S
H2964 C2972 0.950 . S
H2965 C2977 0.950 . S
H2966 C2974 0.950 . S
H2967 C2976 0.950 . S
H2968 C2978 0.950 . S
H2969 C2980 0.950 . S
H2970 C2982 0.950 . S
H2971 C2983 0.950 . S
C2972 H2964 0.950 . S
C2972 C2973 1.386 . S
C2972 C2974 1.391 . S
C2973 C2972 1.386 . S
C2973 C2977 1.393 . S
C2974 H2966 0.950 . S
C2974 C2972 1.391 . S
C2974 C2975 1.400 . S
C2975 C2974 1.400 . S
C2975 C2976 1.398 . S
C2975 C2981 1.491 . S
C2976 H2967 0.950 . S
C2976 C2975 1.398 . S
C2976 C2977 1.391 . S
C2977 H2965 0.950 . S
C2977 C2973 1.393 . S
C2977 C2976 1.391 . S
C2978 H2968 0.950 . S
C2978 C2979 1.386 . S
C2978 C2980 1.391 . S
C2979 C2978 1.386 . S
C2979 C2983 1.393 . S
C2980 H2969 0.950 . S
C2980 C2978 1.391 . S
C2980 C2981 1.400 . S
C2981 C2975 1.491 . S
C2981 C2980 1.400 . S
C2981 C2982 1.398 . S
C2982 H2970 0.950 . S
C2982 C2981 1.398 . S
C2982 C2983 1.391 . S
C2983 H2971 0.950 . S
C2983 C2979 1.393 . S
C2983 C2982 1.391 . S
H2984 C2992 0.950 . S
H2985 C2997 0.950 . S
H2986 C2994 0.950 . S
H2987 C2996 0.950 . S
H2988 C2998 0.950 . S
H2989 C3000 0.950 . S
H2990 C3002 0.950 . S
H2991 C3003 0.950 . S
C2992 H2984 0.950 . S
C2992 C2993 1.386 . S
C2992 C2994 1.391 . S
C2993 C2992 1.386 . S
C2993 C2997 1.393 . S
C2994 H2986 0.950 . S
C2994 C2992 1.391 . S
C2994 C2995 1.400 . S
C2995 C2994 1.400 . S
C2995 C2996 1.398 . S
C2995 C3001 1.491 . S
C2996 H2987 0.950 . S
C2996 C2995 1.398 . S
C2996 C2997 1.391 . S
C2997 H2985 0.950 . S
C2997 C2993 1.393 . S
C2997 C2996 1.391 . S
C2998 H2988 0.950 . S
C2998 C2999 1.386 . S
C2998 C3000 1.391 . S
C2999 C2998 1.386 . S
C2999 C3003 1.393 . S
C3000 H2989 0.950 . S
C3000 C2998 1.391 . S
C3000 C3001 1.400 . S
C3001 C2995 1.491 . S
C3001 C3000 1.400 . S
C3001 C3002 1.398 . S
C3002 H2990 0.950 . S
C3002 C3001 1.398 . S
C3002 C3003 1.391 . S
C3003 H2991 0.950 . S
C3003 C2999 1.393 . S
C3003 C3002 1.391 . S
H3004 C3012 0.950 . S
H3005 C3017 0.950 . S
H3006 C3014 0.950 . S
H3007 C3016 0.950 . S
H3008 C3018 0.950 . S
H3009 C3020 0.950 . S
H3010 C3022 0.950 . S
H3011 C3023 0.950 . S
C3012 H3004 0.950 . S
C3012 C3013 1.386 . S
C3012 C3014 1.391 . S
C3013 C3012 1.386 . S
C3013 C3017 1.393 . S
C3014 H3006 0.950 . S
C3014 C3012 1.391 . S
C3014 C3015 1.400 . S
C3015 C3014 1.400 . S
C3015 C3016 1.398 . S
C3015 C3021 1.491 . S
C3016 H3007 0.950 . S
C3016 C3015 1.398 . S
C3016 C3017 1.391 . S
C3017 H3005 0.950 . S
C3017 C3013 1.393 . S
C3017 C3016 1.391 . S
C3018 H3008 0.950 . S
C3018 C3019 1.386 . S
C3018 C3020 1.391 . S
C3019 C3018 1.386 . S
C3019 C3023 1.393 . S
C3020 H3009 0.950 . S
C3020 C3018 1.391 . S
C3020 C3021 1.400 . S
C3021 C3015 1.491 . S
C3021 C3020 1.400 . S
C3021 C3022 1.398 . S
C3022 H3010 0.950 . S
C3022 C3021 1.398 . S
C3022 C3023 1.391 . S
C3023 H3011 0.950 . S
C3023 C3019 1.393 . S
C3023 C3022 1.391 . S
H3024 C3032 0.950 . S
H3025 C3037 0.950 . S
H3026 C3034 0.950 . S
H3027 C3036 0.950 . S
H3028 C3038 0.950 . S
H3029 C3040 0.950 . S
H3030 C3042 0.950 . S
H3031 C3043 0.950 . S
C3032 H3024 0.950 . S
C3032 C3033 1.386 . S
C3032 C3034 1.391 . S
C3033 C3032 1.386 . S
C3033 C3037 1.393 . S
C3034 H3026 0.950 . S
C3034 C3032 1.391 . S
C3034 C3035 1.400 . S
C3035 C3034 1.400 . S
C3035 C3036 1.398 . S
C3035 C3041 1.491 . S
C3036 H3027 0.950 . S
C3036 C3035 1.398 . S
C3036 C3037 1.391 . S
C3037 H3025 0.950 . S
C3037 C3033 1.393 . S
C3037 C3036 1.391 . S
C3038 H3028 0.950 . S
C3038 C3039 1.386 . S
C3038 C3040 1.391 . S
C3039 C3038 1.386 . S
C3039 C3043 1.393 . S
C3040 H3029 0.950 . S
C3040 C3038 1.391 . S
C3040 C3041 1.400 . S
C3041 C3035 1.491 . S
C3041 C3040 1.400 . S
C3041 C3042 1.398 . S
C3042 H3030 0.950 . S
C3042 C3041 1.398 . S
C3042 C3043 1.391 . S
C3043 H3031 0.950 . S
C3043 C3039 1.393 . S
C3043 C3042 1.391 . S
H3044 C3052 0.950 . S
H3045 C3057 0.950 . S
H3046 C3054 0.950 . S
H3047 C3056 0.950 . S
H3048 C3058 0.950 . S
H3049 C3060 0.950 . S
H3050 C3062 0.950 . S
H3051 C3063 0.950 . S
C3052 H3044 0.950 . S
C3052 C3053 1.386 . S
C3052 C3054 1.391 . S
C3053 C3052 1.386 . S
C3053 C3057 1.393 . S
C3054 H3046 0.950 . S
C3054 C3052 1.391 . S
C3054 C3055 1.400 . S
C3055 C3054 1.400 . S
C3055 C3056 1.398 . S
C3055 C3061 1.491 . S
C3056 H3047 0.950 . S
C3056 C3055 1.398 . S
C3056 C3057 1.391 . S
C3057 H3045 0.950 . S
C3057 C3053 1.393 . S
C3057 C3056 1.391 . S
C3058 H3048 0.950 . S
C3058 C3059 1.386 . S
C3058 C3060 1.391 . S
C3059 C3058 1.386 . S
C3059 C3063 1.393 . S
C3060 H3049 0.950 . S
C3060 C3058 1.391 . S
C3060 C3061 1.400 . S
C3061 C3055 1.491 . S
C3061 C3060 1.400 . S
C3061 C3062 1.398 . S
C3062 H3050 0.950 . S
C3062 C3061 1.398 . S
C3062 C3063 1.391 . S
C3063 H3051 0.950 . S
C3063 C3059 1.393 . S
C3063 C3062 1.391 . S
H3064 C3072 0.950 . S
H3065 C3077 0.950 . S
H3066 C3074 0.950 . S
H3067 C3076 0.950 . S
H3068 C3078 0.950 . S
H3069 C3080 0.950 . S
H3070 C3082 0.950 . S
H3071 C3083 0.950 . S
C3072 H3064 0.950 . S
C3072 C3073 1.386 . S
C3072 C3074 1.391 . S
C3073 C3072 1.386 . S
C3073 C3077 1.393 . S
C3074 H3066 0.950 . S
C3074 C3072 1.391 . S
C3074 C3075 1.400 . S
C3075 C3074 1.400 . S
C3075 C3076 1.398 . S
C3075 C3081 1.491 . S
C3076 H3067 0.950 . S
C3076 C3075 1.398 . S
C3076 C3077 1.391 . S
C3077 H3065 0.950 . S
C3077 C3073 1.393 . S
C3077 C3076 1.391 . S
C3078 H3068 0.950 . S
C3078 C3079 1.386 . S
C3078 C3080 1.391 . S
C3079 C3078 1.386 . S
C3079 C3083 1.393 . S
C3080 H3069 0.950 . S
C3080 C3078 1.391 . S
C3080 C3081 1.400 . S
C3081 C3075 1.491 . S
C3081 C3080 1.400 . S
C3081 C3082 1.398 . S
C3082 H3070 0.950 . S
C3082 C3081 1.398 . S
C3082 C3083 1.391 . S
C3083 H3071 0.950 . S
C3083 C3079 1.393 . S
C3083 C3082 1.391 . S
H3084 C3092 0.950 . S
H3085 C3097 0.950 . S
H3086 C3094 0.950 . S
H3087 C3096 0.950 . S
H3088 C3098 0.950 . S
H3089 C3100 0.950 . S
H3090 C3102 0.950 . S
H3091 C3103 0.950 . S
C3092 H3084 0.950 . S
C3092 C3093 1.386 . S
C3092 C3094 1.391 . S
C3093 C3092 1.386 . S
C3093 C3097 1.393 . S
C3094 H3086 0.950 . S
C3094 C3092 1.391 . S
C3094 C3095 1.400 . S
C3095 C3094 1.400 . S
C3095 C3096 1.398 . S
C3095 C3101 1.491 . S
C3096 H3087 0.950 . S
C3096 C3095 1.398 . S
C3096 C3097 1.391 . S
C3097 H3085 0.950 . S
C3097 C3093 1.393 . S
C3097 C3096 1.391 . S
C3098 H3088 0.950 . S
C3098 C3099 1.386 . S
C3098 C3100 1.391 . S
C3099 C3098 1.386 . S
C3099 C3103 1.393 . S
C3100 H3089 0.950 . S
C3100 C3098 1.391 . S
C3100 C3101 1.400 . S
C3101 C3095 1.491 . S
C3101 C3100 1.400 . S
C3101 C3102 1.398 . S
C3102 H3090 0.950 . S
C3102 C3101 1.398 . S
C3102 C3103 1.391 . S
C3103 H3091 0.950 . S
C3103 C3099 1.393 . S
C3103 C3102 1.391 . S
H3104 C3112 0.950 . S
H3105 C3117 0.950 . S
H3106 C3114 0.950 . S
H3107 C3116 0.950 . S
H3108 C3118 0.950 . S
H3109 C3120 0.950 . S
H3110 C3122 0.950 . S
H3111 C3123 0.950 . S
C3112 H3104 0.950 . S
C3112 C3113 1.386 . S
C3112 C3114 1.391 . S
C3113 C3112 1.386 . S
C3113 C3117 1.393 . S
C3114 H3106 0.950 . S
C3114 C3112 1.391 . S
C3114 C3115 1.400 . S
C3115 C3114 1.400 . S
C3115 C3116 1.398 . S
C3115 C3121 1.491 . S
C3116 H3107 0.950 . S
C3116 C3115 1.398 . S
C3116 C3117 1.391 . S
C3117 H3105 0.950 . S
C3117 C3113 1.393 . S
C3117 C3116 1.391 . S
C3118 H3108 0.950 . S
C3118 C3119 1.386 . S
C3118 C3120 1.391 . S
C3119 C3118 1.386 . S
C3119 C3123 1.393 . S
C3120 H3109 0.950 . S
C3120 C3118 1.391 . S
C3120 C3121 1.400 . S
C3121 C3115 1.491 . S
C3121 C3120 1.400 . S
C3121 C3122 1.398 . S
C3122 H3110 0.950 . S
C3122 C3121 1.398 . S
C3122 C3123 1.391 . S
C3123 H3111 0.950 . S
C3123 C3119 1.393 . S
C3123 C3122 1.391 . S
H3124 C3132 0.950 . S
H3125 C3137 0.950 . S
H3126 C3134 0.950 . S
H3127 C3136 0.950 . S
H3128 C3138 0.950 . S
H3129 C3140 0.950 . S
H3130 C3142 0.950 . S
H3131 C3143 0.950 . S
C3132 H3124 0.950 . S
C3132 C3133 1.386 . S
C3132 C3134 1.391 . S
C3133 C3132 1.386 . S
C3133 C3137 1.393 . S
C3134 H3126 0.950 . S
C3134 C3132 1.391 . S
C3134 C3135 1.400 . S
C3135 C3134 1.400 . S
C3135 C3136 1.398 . S
C3135 C3141 1.491 . S
C3136 H3127 0.950 . S
C3136 C3135 1.398 . S
C3136 C3137 1.391 . S
C3137 H3125 0.950 . S
C3137 C3133 1.393 . S
C3137 C3136 1.391 . S
C3138 H3128 0.950 . S
C3138 C3139 1.386 . S
C3138 C3140 1.391 . S
C3139 C3138 1.386 . S
C3139 C3143 1.393 . S
C3140 H3129 0.950 . S
C3140 C3138 1.391 . S
C3140 C3141 1.400 . S
C3141 C3135 1.491 . S
C3141 C3140 1.400 . S
C3141 C3142 1.398 . S
C3142 H3130 0.950 . S
C3142 C3141 1.398 . S
C3142 C3143 1.391 . S
C3143 H3131 0.950 . S
C3143 C3139 1.393 . S
C3143 C3142 1.391 . S
H3144 C3152 0.950 . S
H3145 C3157 0.950 . S
H3146 C3154 0.950 . S
H3147 C3156 0.950 . S
H3148 C3158 0.950 . S
H3149 C3160 0.950 . S
H3150 C3162 0.950 . S
H3151 C3163 0.950 . S
C3152 H3144 0.950 . S
C3152 C3153 1.386 . S
C3152 C3154 1.391 . S
C3153 C3152 1.386 . S
C3153 C3157 1.393 . S
C3154 H3146 0.950 . S
C3154 C3152 1.391 . S
C3154 C3155 1.400 . S
C3155 C3154 1.400 . S
C3155 C3156 1.398 . S
C3155 C3161 1.491 . S
C3156 H3147 0.950 . S
C3156 C3155 1.398 . S
C3156 C3157 1.391 . S
C3157 H3145 0.950 . S
C3157 C3153 1.393 . S
C3157 C3156 1.391 . S
C3158 H3148 0.950 . S
C3158 C3159 1.386 . S
C3158 C3160 1.391 . S
C3159 C3158 1.386 . S
C3159 C3163 1.393 . S
C3160 H3149 0.950 . S
C3160 C3158 1.391 . S
C3160 C3161 1.400 . S
C3161 C3155 1.491 . S
C3161 C3160 1.400 . S
C3161 C3162 1.398 . S
C3162 H3150 0.950 . S
C3162 C3161 1.398 . S
C3162 C3163 1.391 . S
C3163 H3151 0.950 . S
C3163 C3159 1.393 . S
C3163 C3162 1.391 . S
H3164 C3172 0.950 . S
H3165 C3177 0.950 . S
H3166 C3174 0.950 . S
H3167 C3176 0.950 . S
H3168 C3178 0.950 . S
H3169 C3180 0.950 . S
H3170 C3182 0.950 . S
H3171 C3183 0.950 . S
C3172 H3164 0.950 . S
C3172 C3173 1.386 . S
C3172 C3174 1.391 . S
C3173 C3172 1.386 . S
C3173 C3177 1.393 . S
C3174 H3166 0.950 . S
C3174 C3172 1.391 . S
C3174 C3175 1.400 . S
C3175 C3174 1.400 . S
C3175 C3176 1.398 . S
C3175 C3181 1.491 . S
C3176 H3167 0.950 . S
C3176 C3175 1.398 . S
C3176 C3177 1.391 . S
C3177 H3165 0.950 . S
C3177 C3173 1.393 . S
C3177 C3176 1.391 . S
C3178 H3168 0.950 . S
C3178 C3179 1.386 . S
C3178 C3180 1.391 . S
C3179 C3178 1.386 . S
C3179 C3183 1.393 . S
C3180 H3169 0.950 . S
C3180 C3178 1.391 . S
C3180 C3181 1.400 . S
C3181 C3175 1.491 . S
C3181 C3180 1.400 . S
C3181 C3182 1.398 . S
C3182 H3170 0.950 . S
C3182 C3181 1.398 . S
C3182 C3183 1.391 . S
C3183 H3171 0.950 . S
C3183 C3179 1.393 . S
C3183 C3182 1.391 . S
H3184 C3192 0.950 . S
H3185 C3197 0.950 . S
H3186 C3194 0.950 . S
H3187 C3196 0.950 . S
H3188 C3198 0.950 . S
H3189 C3200 0.950 . S
H3190 C3202 0.950 . S
H3191 C3203 0.950 . S
C3192 H3184 0.950 . S
C3192 C3193 1.386 . S
C3192 C3194 1.391 . S
C3193 C3192 1.386 . S
C3193 C3197 1.393 . S
C3194 H3186 0.950 . S
C3194 C3192 1.391 . S
C3194 C3195 1.400 . S
C3195 C3194 1.400 . S
C3195 C3196 1.398 . S
C3195 C3201 1.491 . S
C3196 H3187 0.950 . S
C3196 C3195 1.398 . S
C3196 C3197 1.391 . S
C3197 H3185 0.950 . S
C3197 C3193 1.393 . S
C3197 C3196 1.391 . S
C3198 H3188 0.950 . S
C3198 C3199 1.386 . S
C3198 C3200 1.391 . S
C3199 C3198 1.386 . S
C3199 C3203 1.393 . S
C3200 H3189 0.950 . S
C3200 C3198 1.391 . S
C3200 C3201 1.400 . S
C3201 C3195 1.491 . S
C3201 C3200 1.400 . S
C3201 C3202 1.398 . S
C3202 H3190 0.950 . S
C3202 C3201 1.398 . S
C3202 C3203 1.391 . S
C3203 H3191 0.950 . S
C3203 C3199 1.393 . S
C3203 C3202 1.391 . S
H3204 C3212 0.950 . S
H3205 C3217 0.950 . S
H3206 C3214 0.950 . S
H3207 C3216 0.950 . S
H3208 C3218 0.950 . S
H3209 C3220 0.950 . S
H3210 C3222 0.950 . S
H3211 C3223 0.950 . S
C3212 H3204 0.950 . S
C3212 C3213 1.386 . S
C3212 C3214 1.391 . S
C3213 C3212 1.386 . S
C3213 C3217 1.393 . S
C3214 H3206 0.950 . S
C3214 C3212 1.391 . S
C3214 C3215 1.400 . S
C3215 C3214 1.400 . S
C3215 C3216 1.398 . S
C3215 C3221 1.491 . S
C3216 H3207 0.950 . S
C3216 C3215 1.398 . S
C3216 C3217 1.391 . S
C3217 H3205 0.950 . S
C3217 C3213 1.393 . S
C3217 C3216 1.391 . S
C3218 H3208 0.950 . S
C3218 C3219 1.386 . S
C3218 C3220 1.391 . S
C3219 C3218 1.386 . S
C3219 C3223 1.393 . S
C3220 H3209 0.950 . S
C3220 C3218 1.391 . S
C3220 C3221 1.400 . S
C3221 C3215 1.491 . S
C3221 C3220 1.400 . S
C3221 C3222 1.398 . S
C3222 H3210 0.950 . S
C3222 C3221 1.398 . S
C3222 C3223 1.391 . S
C3223 H3211 0.950 . S
C3223 C3219 1.393 . S
C3223 C3222 1.391 . S
H3224 C3232 0.950 . S
H3225 C3237 0.950 . S
H3226 C3234 0.950 . S
H3227 C3236 0.950 . S
H3228 C3238 0.950 . S
H3229 C3240 0.950 . S
H3230 C3242 0.950 . S
H3231 C3243 0.950 . S
C3232 H3224 0.950 . S
C3232 C3233 1.386 . S
C3232 C3234 1.391 . S
C3233 C3232 1.386 . S
C3233 C3237 1.393 . S
C3234 H3226 0.950 . S
C3234 C3232 1.391 . S
C3234 C3235 1.400 . S
C3235 C3234 1.400 . S
C3235 C3236 1.398 . S
C3235 C3241 1.491 . S
C3236 H3227 0.950 . S
C3236 C3235 1.398 . S
C3236 C3237 1.391 . S
C3237 H3225 0.950 . S
C3237 C3233 1.393 . S
C3237 C3236 1.391 . S
C3238 H3228 0.950 . S
C3238 C3239 1.386 . S
C3238 C3240 1.391 . S
C3239 C3238 1.386 . S
C3239 C3243 1.393 . S
C3240 H3229 0.950 . S
C3240 C3238 1.391 . S
C3240 C3241 1.400 . S
C3241 C3235 1.491 . S
C3241 C3240 1.400 . S
C3241 C3242 1.398 . S
C3242 H3230 0.950 . S
C3242 C3241 1.398 . S
C3242 C3243 1.391 . S
C3243 H3231 0.950 . S
C3243 C3239 1.393 . S
C3243 C3242 1.391 . S
H3244 C3252 0.950 . S
H3245 C3257 0.950 . S
H3246 C3254 0.950 . S
H3247 C3256 0.950 . S
H3248 C3258 0.950 . S
H3249 C3260 0.950 . S
H3250 C3262 0.950 . S
H3251 C3263 0.950 . S
C3252 H3244 0.950 . S
C3252 C3253 1.386 . S
C3252 C3254 1.391 . S
C3253 C3252 1.386 . S
C3253 C3257 1.393 . S
C3254 H3246 0.950 . S
C3254 C3252 1.391 . S
C3254 C3255 1.400 . S
C3255 C3254 1.400 . S
C3255 C3256 1.398 . S
C3255 C3261 1.491 . S
C3256 H3247 0.950 . S
C3256 C3255 1.398 . S
C3256 C3257 1.391 . S
C3257 H3245 0.950 . S
C3257 C3253 1.393 . S
C3257 C3256 1.391 . S
C3258 H3248 0.950 . S
C3258 C3259 1.386 . S
C3258 C3260 1.391 . S
C3259 C3258 1.386 . S
C3259 C3263 1.393 . S
C3260 H3249 0.950 . S
C3260 C3258 1.391 . S
C3260 C3261 1.400 . S
C3261 C3255 1.491 . S
C3261 C3260 1.400 . S
C3261 C3262 1.398 . S
C3262 H3250 0.950 . S
C3262 C3261 1.398 . S
C3262 C3263 1.391 . S
C3263 H3251 0.950 . S
C3263 C3259 1.393 . S
C3263 C3262 1.391 . S
H3264 C3272 0.950 . S
H3265 C3277 0.950 . S
H3266 C3274 0.950 . S
H3267 C3276 0.950 . S
H3268 C3278 0.950 . S
H3269 C3280 0.950 . S
H3270 C3282 0.950 . S
H3271 C3283 0.950 . S
C3272 H3264 0.950 . S
C3272 C3273 1.386 . S
C3272 C3274 1.391 . S
C3273 C3272 1.386 . S
C3273 C3277 1.393 . S
C3274 H3266 0.950 . S
C3274 C3272 1.391 . S
C3274 C3275 1.400 . S
C3275 C3274 1.400 . S
C3275 C3276 1.398 . S
C3275 C3281 1.491 . S
C3276 H3267 0.950 . S
C3276 C3275 1.398 . S
C3276 C3277 1.391 . S
C3277 H3265 0.950 . S
C3277 C3273 1.393 . S
C3277 C3276 1.391 . S
C3278 H3268 0.950 . S
C3278 C3279 1.386 . S
C3278 C3280 1.391 . S
C3279 C3278 1.386 . S
C3279 C3283 1.393 . S
C3280 H3269 0.950 . S
C3280 C3278 1.391 . S
C3280 C3281 1.400 . S
C3281 C3275 1.491 . S
C3281 C3280 1.400 . S
C3281 C3282 1.398 . S
C3282 H3270 0.950 . S
C3282 C3281 1.398 . S
C3282 C3283 1.391 . S
C3283 H3271 0.950 . S
C3283 C3279 1.393 . S
C3283 C3282 1.391 . S
H3284 C3292 0.950 . S
H3285 C3297 0.950 . S
H3286 C3294 0.950 . S
H3287 C3296 0.950 . S
H3288 C3298 0.950 . S
H3289 C3300 0.950 . S
H3290 C3302 0.950 . S
H3291 C3303 0.950 . S
C3292 H3284 0.950 . S
C3292 C3293 1.386 . S
C3292 C3294 1.391 . S
C3293 C3292 1.386 . S
C3293 C3297 1.393 . S
C3294 H3286 0.950 . S
C3294 C3292 1.391 . S
C3294 C3295 1.400 . S
C3295 C3294 1.400 . S
C3295 C3296 1.398 . S
C3295 C3301 1.491 . S
C3296 H3287 0.950 . S
C3296 C3295 1.398 . S
C3296 C3297 1.391 . S
C3297 H3285 0.950 . S
C3297 C3293 1.393 . S
C3297 C3296 1.391 . S
C3298 H3288 0.950 . S
C3298 C3299 1.386 . S
C3298 C3300 1.391 . S
C3299 C3298 1.386 . S
C3299 C3303 1.393 . S
C3300 H3289 0.950 . S
C3300 C3298 1.391 . S
C3300 C3301 1.400 . S
C3301 C3295 1.491 . S
C3301 C3300 1.400 . S
C3301 C3302 1.398 . S
C3302 H3290 0.950 . S
C3302 C3301 1.398 . S
C3302 C3303 1.391 . S
C3303 H3291 0.950 . S
C3303 C3299 1.393 . S
C3303 C3302 1.391 . S
H3304 C3312 0.950 . S
H3305 C3317 0.950 . S
H3306 C3314 0.950 . S
H3307 C3316 0.950 . S
H3308 C3318 0.950 . S
H3309 C3320 0.950 . S
H3310 C3322 0.950 . S
H3311 C3323 0.950 . S
C3312 H3304 0.950 . S
C3312 C3313 1.386 . S
C3312 C3314 1.391 . S
C3313 C3312 1.386 . S
C3313 C3317 1.393 . S
C3314 H3306 0.950 . S
C3314 C3312 1.391 . S
C3314 C3315 1.400 . S
C3315 C3314 1.400 . S
C3315 C3316 1.398 . S
C3315 C3321 1.491 . S
C3316 H3307 0.950 . S
C3316 C3315 1.398 . S
C3316 C3317 1.391 . S
C3317 H3305 0.950 . S
C3317 C3313 1.393 . S
C3317 C3316 1.391 . S
C3318 H3308 0.950 . S
C3318 C3319 1.386 . S
C3318 C3320 1.391 . S
C3319 C3318 1.386 . S
C3319 C3323 1.393 . S
C3320 H3309 0.950 . S
C3320 C3318 1.391 . S
C3320 C3321 1.400 . S
C3321 C3315 1.491 . S
C3321 C3320 1.400 . S
C3321 C3322 1.398 . S
C3322 H3310 0.950 . S
C3322 C3321 1.398 . S
C3322 C3323 1.391 . S
C3323 H3311 0.950 . S
C3323 C3319 1.393 . S
C3323 C3322 1.391 . S
H3324 C3332 0.950 . S
H3325 C3337 0.950 . S
H3326 C3334 0.950 . S
H3327 C3336 0.950 . S
H3328 C3338 0.950 . S
H3329 C3340 0.950 . S
H3330 C3342 0.950 . S
H3331 C3343 0.950 . S
C3332 H3324 0.950 . S
C3332 C3333 1.386 . S
C3332 C3334 1.391 . S
C3333 C3332 1.386 . S
C3333 C3337 1.393 . S
C3334 H3326 0.950 . S
C3334 C3332 1.391 . S
C3334 C3335 1.400 . S
C3335 C3334 1.400 . S
C3335 C3336 1.398 . S
C3335 C3341 1.491 . S
C3336 H3327 0.950 . S
C3336 C3335 1.398 . S
C3336 C3337 1.391 . S
C3337 H3325 0.950 . S
C3337 C3333 1.393 . S
C3337 C3336 1.391 . S
C3338 H3328 0.950 . S
C3338 C3339 1.386 . S
C3338 C3340 1.391 . S
C3339 C3338 1.386 . S
C3339 C3343 1.393 . S
C3340 H3329 0.950 . S
C3340 C3338 1.391 . S
C3340 C3341 1.400 . S
C3341 C3335 1.491 . S
C3341 C3340 1.400 . S
C3341 C3342 1.398 . S
C3342 H3330 0.950 . S
C3342 C3341 1.398 . S
C3342 C3343 1.391 . S
C3343 H3331 0.950 . S
C3343 C3339 1.393 . S
C3343 C3342 1.391 . S
H3344 C3352 0.950 . S
H3345 C3357 0.950 . S
H3346 C3354 0.950 . S
H3347 C3356 0.950 . S
H3348 C3358 0.950 . S
H3349 C3360 0.950 . S
H3350 C3362 0.950 . S
H3351 C3363 0.950 . S
C3352 H3344 0.950 . S
C3352 C3353 1.386 . S
C3352 C3354 1.391 . S
C3353 C3352 1.386 . S
C3353 C3357 1.393 . S
C3354 H3346 0.950 . S
C3354 C3352 1.391 . S
C3354 C3355 1.400 . S
C3355 C3354 1.400 . S
C3355 C3356 1.398 . S
C3355 C3361 1.491 . S
C3356 H3347 0.950 . S
C3356 C3355 1.398 . S
C3356 C3357 1.391 . S
C3357 H3345 0.950 . S
C3357 C3353 1.393 . S
C3357 C3356 1.391 . S
C3358 H3348 0.950 . S
C3358 C3359 1.386 . S
C3358 C3360 1.391 . S
C3359 C3358 1.386 . S
C3359 C3363 1.393 . S
C3360 H3349 0.950 . S
C3360 C3358 1.391 . S
C3360 C3361 1.400 . S
C3361 C3355 1.491 . S
C3361 C3360 1.400 . S
C3361 C3362 1.398 . S
C3362 H3350 0.950 . S
C3362 C3361 1.398 . S
C3362 C3363 1.391 . S
C3363 H3351 0.950 . S
C3363 C3359 1.393 . S
C3363 C3362 1.391 . S
H3364 C3372 0.950 . S
H3365 C3377 0.950 . S
H3366 C3374 0.950 . S
H3367 C3376 0.950 . S
H3368 C3378 0.950 . S
H3369 C3380 0.950 . S
H3370 C3382 0.950 . S
H3371 C3383 0.950 . S
C3372 H3364 0.950 . S
C3372 C3373 1.386 . S
C3372 C3374 1.391 . S
C3373 C3372 1.386 . S
C3373 C3377 1.393 . S
C3374 H3366 0.950 . S
C3374 C3372 1.391 . S
C3374 C3375 1.400 . S
C3375 C3374 1.400 . S
C3375 C3376 1.398 . S
C3375 C3381 1.491 . S
C3376 H3367 0.950 . S
C3376 C3375 1.398 . S
C3376 C3377 1.391 . S
C3377 H3365 0.950 . S
C3377 C3373 1.393 . S
C3377 C3376 1.391 . S
C3378 H3368 0.950 . S
C3378 C3379 1.386 . S
C3378 C3380 1.391 . S
C3379 C3378 1.386 . S
C3379 C3383 1.393 . S
C3380 H3369 0.950 . S
C3380 C3378 1.391 . S
C3380 C3381 1.400 . S
C3381 C3375 1.491 . S
C3381 C3380 1.400 . S
C3381 C3382 1.398 . S
C3382 H3370 0.950 . S
C3382 C3381 1.398 . S
C3382 C3383 1.391 . S
C3383 H3371 0.950 . S
C3383 C3379 1.393 . S
C3383 C3382 1.391 . S
H3384 C3392 0.950 . S
H3385 C3397 0.950 . S
H3386 C3394 0.950 . S
H3387 C3396 0.950 . S
H3388 C3398 0.950 . S
H3389 C3400 0.950 . S
H3390 C3402 0.950 . S
H3391 C3403 0.950 . S
C3392 H3384 0.950 . S
C3392 C3393 1.386 . S
C3392 C3394 1.391 . S
C3393 C3392 1.386 . S
C3393 C3397 1.393 . S
C3394 H3386 0.950 . S
C3394 C3392 1.391 . S
C3394 C3395 1.400 . S
C3395 C3394 1.400 . S
C3395 C3396 1.398 . S
C3395 C3401 1.491 . S
C3396 H3387 0.950 . S
C3396 C3395 1.398 . S
C3396 C3397 1.391 . S
C3397 H3385 0.950 . S
C3397 C3393 1.393 . S
C3397 C3396 1.391 . S
C3398 H3388 0.950 . S
C3398 C3399 1.386 . S
C3398 C3400 1.391 . S
C3399 C3398 1.386 . S
C3399 C3403 1.393 . S
C3400 H3389 0.950 . S
C3400 C3398 1.391 . S
C3400 C3401 1.400 . S
C3401 C3395 1.491 . S
C3401 C3400 1.400 . S
C3401 C3402 1.398 . S
C3402 H3390 0.950 . S
C3402 C3401 1.398 . S
C3402 C3403 1.391 . S
C3403 H3391 0.950 . S
C3403 C3399 1.393 . S
C3403 C3402 1.391 . S
H3404 C3412 0.950 . S
H3405 C3417 0.950 . S
H3406 C3414 0.950 . S
H3407 C3416 0.950 . S
H3408 C3418 0.950 . S
H3409 C3420 0.950 . S
H3410 C3422 0.950 . S
H3411 C3423 0.950 . S
C3412 H3404 0.950 . S
C3412 C3413 1.386 . S
C3412 C3414 1.391 . S
C3413 C3412 1.386 . S
C3413 C3417 1.393 . S
C3414 H3406 0.950 . S
C3414 C3412 1.391 . S
C3414 C3415 1.400 . S
C3415 C3414 1.400 . S
C3415 C3416 1.398 . S
C3415 C3421 1.491 . S
C3416 H3407 0.950 . S
C3416 C3415 1.398 . S
C3416 C3417 1.391 . S
C3417 H3405 0.950 . S
C3417 C3413 1.393 . S
C3417 C3416 1.391 . S
C3418 H3408 0.950 . S
C3418 C3419 1.386 . S
C3418 C3420 1.391 . S
C3419 C3418 1.386 . S
C3419 C3423 1.393 . S
C3420 H3409 0.950 . S
C3420 C3418 1.391 . S
C3420 C3421 1.400 . S
C3421 C3415 1.491 . S
C3421 C3420 1.400 . S
C3421 C3422 1.398 . S
C3422 H3410 0.950 . S
C3422 C3421 1.398 . S
C3422 C3423 1.391 . S
C3423 H3411 0.950 . S
C3423 C3419 1.393 . S
C3423 C3422 1.391 . S
H3424 C3432 0.950 . S
H3425 C3437 0.950 . S
H3426 C3434 0.950 . S
H3427 C3436 0.950 . S
H3428 C3438 0.950 . S
H3429 C3440 0.950 . S
H3430 C3442 0.950 . S
H3431 C3443 0.950 . S
C3432 H3424 0.950 . S
C3432 C3433 1.386 . S
C3432 C3434 1.391 . S
C3433 C3432 1.386 . S
C3433 C3437 1.393 . S
C3434 H3426 0.950 . S
C3434 C3432 1.391 . S
C3434 C3435 1.400 . S
C3435 C3434 1.400 . S
C3435 C3436 1.398 . S
C3435 C3441 1.491 . S
C3436 H3427 0.950 . S
C3436 C3435 1.398 . S
C3436 C3437 1.391 . S
C3437 H3425 0.950 . S
C3437 C3433 1.393 . S
C3437 C3436 1.391 . S
C3438 H3428 0.950 . S
C3438 C3439 1.386 . S
C3438 C3440 1.391 . S
C3439 C3438 1.386 . S
C3439 C3443 1.393 . S
C3440 H3429 0.950 . S
C3440 C3438 1.391 . S
C3440 C3441 1.400 . S
C3441 C3435 1.491 . S
C3441 C3440 1.400 . S
C3441 C3442 1.398 . S
C3442 H3430 0.950 . S
C3442 C3441 1.398 . S
C3442 C3443 1.391 . S
C3443 H3431 0.950 . S
C3443 C3439 1.393 . S
C3443 C3442 1.391 . S
H3444 C3452 0.950 . S
H3445 C3457 0.950 . S
H3446 C3454 0.950 . S
H3447 C3456 0.950 . S
H3448 C3458 0.950 . S
H3449 C3460 0.950 . S
H3450 C3462 0.950 . S
H3451 C3463 0.950 . S
C3452 H3444 0.950 . S
C3452 C3453 1.386 . S
C3452 C3454 1.391 . S
C3453 C3452 1.386 . S
C3453 C3457 1.393 . S
C3454 H3446 0.950 . S
C3454 C3452 1.391 . S
C3454 C3455 1.400 . S
C3455 C3454 1.400 . S
C3455 C3456 1.398 . S
C3455 C3461 1.491 . S
C3456 H3447 0.950 . S
C3456 C3455 1.398 . S
C3456 C3457 1.391 . S
C3457 H3445 0.950 . S
C3457 C3453 1.393 . S
C3457 C3456 1.391 . S
C3458 H3448 0.950 . S
C3458 C3459 1.386 . S
C3458 C3460 1.391 . S
C3459 C3458 1.386 . S
C3459 C3463 1.393 . S
C3460 H3449 0.950 . S
C3460 C3458 1.391 . S
C3460 C3461 1.400 . S
C3461 C3455 1.491 . S
C3461 C3460 1.400 . S
C3461 C3462 1.398 . S
C3462 H3450 0.950 . S
C3462 C3461 1.398 . S
C3462 C3463 1.391 . S
C3463 H3451 0.950 . S
C3463 C3459 1.393 . S
C3463 C3462 1.391 . S
H3464 C3472 0.950 . S
H3465 C3477 0.950 . S
H3466 C3474 0.950 . S
H3467 C3476 0.950 . S
H3468 C3478 0.950 . S
H3469 C3480 0.950 . S
H3470 C3482 0.950 . S
H3471 C3483 0.950 . S
C3472 H3464 0.950 . S
C3472 C3473 1.386 . S
C3472 C3474 1.391 . S
C3473 C3472 1.386 . S
C3473 C3477 1.393 . S
C3474 H3466 0.950 . S
C3474 C3472 1.391 . S
C3474 C3475 1.400 . S
C3475 C3474 1.400 . S
C3475 C3476 1.398 . S
C3475 C3481 1.491 . S
C3476 H3467 0.950 . S
C3476 C3475 1.398 . S
C3476 C3477 1.391 . S
C3477 H3465 0.950 . S
C3477 C3473 1.393 . S
C3477 C3476 1.391 . S
C3478 H3468 0.950 . S
C3478 C3479 1.386 . S
C3478 C3480 1.391 . S
C3479 C3478 1.386 . S
C3479 C3483 1.393 . S
C3480 H3469 0.950 . S
C3480 C3478 1.391 . S
C3480 C3481 1.400 . S
C3481 C3475 1.491 . S
C3481 C3480 1.400 . S
C3481 C3482 1.398 . S
C3482 H3470 0.950 . S
C3482 C3481 1.398 . S
C3482 C3483 1.391 . S
C3483 H3471 0.950 . S
C3483 C3479 1.393 . S
C3483 C3482 1.391 . S
H3484 C3492 0.950 . S
H3485 C3497 0.950 . S
H3486 C3494 0.950 . S
H3487 C3496 0.950 . S
H3488 C3498 0.950 . S
H3489 C3500 0.950 . S
H3490 C3502 0.950 . S
H3491 C3503 0.950 . S
C3492 H3484 0.950 . S
C3492 C3493 1.386 . S
C3492 C3494 1.391 . S
C3493 C3492 1.386 . S
C3493 C3497 1.393 . S
C3494 H3486 0.950 . S
C3494 C3492 1.391 . S
C3494 C3495 1.400 . S
C3495 C3494 1.400 . S
C3495 C3496 1.398 . S
C3495 C3501 1.491 . S
C3496 H3487 0.950 . S
C3496 C3495 1.398 . S
C3496 C3497 1.391 . S
C3497 H3485 0.950 . S
C3497 C3493 1.393 . S
C3497 C3496 1.391 . S
C3498 H3488 0.950 . S
C3498 C3499 1.386 . S
C3498 C3500 1.391 . S
C3499 C3498 1.386 . S
C3499 C3503 1.393 . S
C3500 H3489 0.950 . S
C3500 C3498 1.391 . S
C3500 C3501 1.400 . S
C3501 C3495 1.491 . S
C3501 C3500 1.400 . S
C3501 C3502 1.398 . S
C3502 H3490 0.950 . S
C3502 C3501 1.398 . S
C3502 C3503 1.391 . S
C3503 H3491 0.950 . S
C3503 C3499 1.393 . S
C3503 C3502 1.391 . S
H3504 C3512 0.950 . S
H3505 C3517 0.950 . S
H3506 C3514 0.950 . S
H3507 C3516 0.950 . S
H3508 C3518 0.950 . S
H3509 C3520 0.950 . S
H3510 C3522 0.950 . S
H3511 C3523 0.950 . S
C3512 H3504 0.950 . S
C3512 C3513 1.386 . S
C3512 C3514 1.391 . S
C3513 C3512 1.386 . S
C3513 C3517 1.393 . S
C3514 H3506 0.950 . S
C3514 C3512 1.391 . S
C3514 C3515 1.400 . S
C3515 C3514 1.400 . S
C3515 C3516 1.398 . S
C3515 C3521 1.491 . S
C3516 H3507 0.950 . S
C3516 C3515 1.398 . S
C3516 C3517 1.391 . S
C3517 H3505 0.950 . S
C3517 C3513 1.393 . S
C3517 C3516 1.391 . S
C3518 H3508 0.950 . S
C3518 C3519 1.386 . S
C3518 C3520 1.391 . S
C3519 C3518 1.386 . S
C3519 C3523 1.393 . S
C3520 H3509 0.950 . S
C3520 C3518 1.391 . S
C3520 C3521 1.400 . S
C3521 C3515 1.491 . S
C3521 C3520 1.400 . S
C3521 C3522 1.398 . S
C3522 H3510 0.950 . S
C3522 C3521 1.398 . S
C3522 C3523 1.391 . S
C3523 H3511 0.950 . S
C3523 C3519 1.393 . S
C3523 C3522 1.391 . S
H3524 C3532 0.950 . S
H3525 C3537 0.950 . S
H3526 C3534 0.950 . S
H3527 C3536 0.950 . S
H3528 C3538 0.950 . S
H3529 C3540 0.950 . S
H3530 C3542 0.950 . S
H3531 C3543 0.950 . S
C3532 H3524 0.950 . S
C3532 C3533 1.386 . S
C3532 C3534 1.391 . S
C3533 C3532 1.386 . S
C3533 C3537 1.393 . S
C3534 H3526 0.950 . S
C3534 C3532 1.391 . S
C3534 C3535 1.400 . S
C3535 C3534 1.400 . S
C3535 C3536 1.398 . S
C3535 C3541 1.491 . S
C3536 H3527 0.950 . S
C3536 C3535 1.398 . S
C3536 C3537 1.391 . S
C3537 H3525 0.950 . S
C3537 C3533 1.393 . S
C3537 C3536 1.391 . S
C3538 H3528 0.950 . S
C3538 C3539 1.386 . S
C3538 C3540 1.391 . S
C3539 C3538 1.386 . S
C3539 C3543 1.393 . S
C3540 H3529 0.950 . S
C3540 C3538 1.391 . S
C3540 C3541 1.400 . S
C3541 C3535 1.491 . S
C3541 C3540 1.400 . S
C3541 C3542 1.398 . S
C3542 H3530 0.950 . S
C3542 C3541 1.398 . S
C3542 C3543 1.391 . S
C3543 H3531 0.950 . S
C3543 C3539 1.393 . S
C3543 C3542 1.391 . S
H3544 C3552 0.950 . S
H3545 C3557 0.950 . S
H3546 C3554 0.950 . S
H3547 C3556 0.950 . S
H3548 C3558 0.950 . S
H3549 C3560 0.950 . S
H3550 C3562 0.950 . S
H3551 C3563 0.950 . S
C3552 H3544 0.950 . S
C3552 C3553 1.386 . S
C3552 C3554 1.391 . S
C3553 C3552 1.386 . S
C3553 C3557 1.393 . S
C3554 H3546 0.950 . S
C3554 C3552 1.391 . S
C3554 C3555 1.400 . S
C3555 C3554 1.400 . S
C3555 C3556 1.398 . S
C3555 C3561 1.491 . S
C3556 H3547 0.950 . S
C3556 C3555 1.398 . S
C3556 C3557 1.391 . S
C3557 H3545 0.950 . S
C3557 C3553 1.393 . S
C3557 C3556 1.391 . S
C3558 H3548 0.950 . S
C3558 C3559 1.386 . S
C3558 C3560 1.391 . S
C3559 C3558 1.386 . S
C3559 C3563 1.393 . S
C3560 H3549 0.950 . S
C3560 C3558 1.391 . S
C3560 C3561 1.400 . S
C3561 C3555 1.491 . S
C3561 C3560 1.400 . S
C3561 C3562 1.398 . S
C3562 H3550 0.950 . S
C3562 C3561 1.398 . S
C3562 C3563 1.391 . S
C3563 H3551 0.950 . S
C3563 C3559 1.393 . S
C3563 C3562 1.391 . S
H3564 C3572 0.950 . S
H3565 C3577 0.950 . S
H3566 C3574 0.950 . S
H3567 C3576 0.950 . S
H3568 C3578 0.950 . S
H3569 C3580 0.950 . S
H3570 C3582 0.950 . S
H3571 C3583 0.950 . S
C3572 H3564 0.950 . S
C3572 C3573 1.386 . S
C3572 C3574 1.391 . S
C3573 C3572 1.386 . S
C3573 C3577 1.393 . S
C3574 H3566 0.950 . S
C3574 C3572 1.391 . S
C3574 C3575 1.400 . S
C3575 C3574 1.400 . S
C3575 C3576 1.398 . S
C3575 C3581 1.491 . S
C3576 H3567 0.950 . S
C3576 C3575 1.398 . S
C3576 C3577 1.391 . S
C3577 H3565 0.950 . S
C3577 C3573 1.393 . S
C3577 C3576 1.391 . S
C3578 H3568 0.950 . S
C3578 C3579 1.386 . S
C3578 C3580 1.391 . S
C3579 C3578 1.386 . S
C3579 C3583 1.393 . S
C3580 H3569 0.950 . S
C3580 C3578 1.391 . S
C3580 C3581 1.400 . S
C3581 C3575 1.491 . S
C3581 C3580 1.400 . S
C3581 C3582 1.398 . S
C3582 H3570 0.950 . S
C3582 C3581 1.398 . S
C3582 C3583 1.391 . S
C3583 H3571 0.950 . S
C3583 C3579 1.393 . S
C3583 C3582 1.391 . S
H3584 C3592 0.950 . S
H3585 C3597 0.950 . S
H3586 C3594 0.950 . S
H3587 C3596 0.950 . S
H3588 C3598 0.950 . S
H3589 C3600 0.950 . S
H3590 C3602 0.950 . S
H3591 C3603 0.950 . S
C3592 H3584 0.950 . S
C3592 C3593 1.386 . S
C3592 C3594 1.391 . S
C3593 C3592 1.386 . S
C3593 C3597 1.393 . S
C3594 H3586 0.950 . S
C3594 C3592 1.391 . S
C3594 C3595 1.400 . S
C3595 C3594 1.400 . S
C3595 C3596 1.398 . S
C3595 C3601 1.491 . S
C3596 H3587 0.950 . S
C3596 C3595 1.398 . S
C3596 C3597 1.391 . S
C3597 H3585 0.950 . S
C3597 C3593 1.393 . S
C3597 C3596 1.391 . S
C3598 H3588 0.950 . S
C3598 C3599 1.386 . S
C3598 C3600 1.391 . S
C3599 C3598 1.386 . S
C3599 C3603 1.393 . S
C3600 H3589 0.950 . S
C3600 C3598 1.391 . S
C3600 C3601 1.400 . S
C3601 C3595 1.491 . S
C3601 C3600 1.400 . S
C3601 C3602 1.398 . S
C3602 H3590 0.950 . S
C3602 C3601 1.398 . S
C3602 C3603 1.391 . S
C3603 H3591 0.950 . S
C3603 C3599 1.393 . S
C3603 C3602 1.391 . S
H3604 C3612 0.950 . S
H3605 C3617 0.950 . S
H3606 C3614 0.950 . S
H3607 C3616 0.950 . S
H3608 C3618 0.950 . S
H3609 C3620 0.950 . S
H3610 C3622 0.950 . S
H3611 C3623 0.950 . S
C3612 H3604 0.950 . S
C3612 C3613 1.386 . S
C3612 C3614 1.391 . S
C3613 C3612 1.386 . S
C3613 C3617 1.393 . S
C3614 H3606 0.950 . S
C3614 C3612 1.391 . S
C3614 C3615 1.400 . S
C3615 C3614 1.400 . S
C3615 C3616 1.398 . S
C3615 C3621 1.491 . S
C3616 H3607 0.950 . S
C3616 C3615 1.398 . S
C3616 C3617 1.391 . S
C3617 H3605 0.950 . S
C3617 C3613 1.393 . S
C3617 C3616 1.391 . S
C3618 H3608 0.950 . S
C3618 C3619 1.386 . S
C3618 C3620 1.391 . S
C3619 C3618 1.386 . S
C3619 C3623 1.393 . S
C3620 H3609 0.950 . S
C3620 C3618 1.391 . S
C3620 C3621 1.400 . S
C3621 C3615 1.491 . S
C3621 C3620 1.400 . S
C3621 C3622 1.398 . S
C3622 H3610 0.950 . S
C3622 C3621 1.398 . S
C3622 C3623 1.391 . S
C3623 H3611 0.950 . S
C3623 C3619 1.393 . S
C3623 C3622 1.391 . S
H3624 C3632 0.950 . S
H3625 C3637 0.950 . S
H3626 C3634 0.950 . S
H3627 C3636 0.950 . S
H3628 C3638 0.950 . S
H3629 C3640 0.950 . S
H3630 C3642 0.950 . S
H3631 C3643 0.950 . S
C3632 H3624 0.950 . S
C3632 C3633 1.386 . S
C3632 C3634 1.391 . S
C3633 C3632 1.386 . S
C3633 C3637 1.393 . S
C3634 H3626 0.950 . S
C3634 C3632 1.391 . S
C3634 C3635 1.400 . S
C3635 C3634 1.400 . S
C3635 C3636 1.398 . S
C3635 C3641 1.491 . S
C3636 H3627 0.950 . S
C3636 C3635 1.398 . S
C3636 C3637 1.391 . S
C3637 H3625 0.950 . S
C3637 C3633 1.393 . S
C3637 C3636 1.391 . S
C3638 H3628 0.950 . S
C3638 C3639 1.386 . S
C3638 C3640 1.391 . S
C3639 C3638 1.386 . S
C3639 C3643 1.393 . S
C3640 H3629 0.950 . S
C3640 C3638 1.391 . S
C3640 C3641 1.400 . S
C3641 C3635 1.491 . S
C3641 C3640 1.400 . S
C3641 C3642 1.398 . S
C3642 H3630 0.950 . S
C3642 C3641 1.398 . S
C3642 C3643 1.391 . S
C3643 H3631 0.950 . S
C3643 C3639 1.393 . S
C3643 C3642 1.391 . S
H3644 C3652 0.950 . S
H3645 C3657 0.950 . S
H3646 C3654 0.950 . S
H3647 C3656 0.950 . S
H3648 C3658 0.950 . S
H3649 C3660 0.950 . S
H3650 C3662 0.950 . S
H3651 C3663 0.950 . S
C3652 H3644 0.950 . S
C3652 C3653 1.386 . S
C3652 C3654 1.391 . S
C3653 C3652 1.386 . S
C3653 C3657 1.393 . S
C3654 H3646 0.950 . S
C3654 C3652 1.391 . S
C3654 C3655 1.400 . S
C3655 C3654 1.400 . S
C3655 C3656 1.398 . S
C3655 C3661 1.491 . S
C3656 H3647 0.950 . S
C3656 C3655 1.398 . S
C3656 C3657 1.391 . S
C3657 H3645 0.950 . S
C3657 C3653 1.393 . S
C3657 C3656 1.391 . S
C3658 H3648 0.950 . S
C3658 C3659 1.386 . S
C3658 C3660 1.391 . S
C3659 C3658 1.386 . S
C3659 C3663 1.393 . S
C3660 H3649 0.950 . S
C3660 C3658 1.391 . S
C3660 C3661 1.400 . S
C3661 C3655 1.491 . S
C3661 C3660 1.400 . S
C3661 C3662 1.398 . S
C3662 H3650 0.950 . S
C3662 C3661 1.398 . S
C3662 C3663 1.391 . S
C3663 H3651 0.950 . S
C3663 C3659 1.393 . S
C3663 C3662 1.391 . S
H3664 C3672 0.950 . S
H3665 C3677 0.950 . S
H3666 C3674 0.950 . S
H3667 C3676 0.950 . S
H3668 C3678 0.950 . S
H3669 C3680 0.950 . S
H3670 C3682 0.950 . S
H3671 C3683 0.950 . S
C3672 H3664 0.950 . S
C3672 C3673 1.386 . S
C3672 C3674 1.391 . S
C3673 C3672 1.386 . S
C3673 C3677 1.393 . S
C3674 H3666 0.950 . S
C3674 C3672 1.391 . S
C3674 C3675 1.400 . S
C3675 C3674 1.400 . S
C3675 C3676 1.398 . S
C3675 C3681 1.491 . S
C3676 H3667 0.950 . S
C3676 C3675 1.398 . S
C3676 C3677 1.391 . S
C3677 H3665 0.950 . S
C3677 C3673 1.393 . S
C3677 C3676 1.391 . S
C3678 H3668 0.950 . S
C3678 C3679 1.386 . S
C3678 C3680 1.391 . S
C3679 C3678 1.386 . S
C3679 C3683 1.393 . S
C3680 H3669 0.950 . S
C3680 C3678 1.391 . S
C3680 C3681 1.400 . S
C3681 C3675 1.491 . S
C3681 C3680 1.400 . S
C3681 C3682 1.398 . S
C3682 H3670 0.950 . S
C3682 C3681 1.398 . S
C3682 C3683 1.391 . S
C3683 H3671 0.950 . S
C3683 C3679 1.393 . S
C3683 C3682 1.391 . S
H3684 C3692 0.950 . S
H3685 C3697 0.950 . S
H3686 C3694 0.950 . S
H3687 C3696 0.950 . S
H3688 C3698 0.950 . S
H3689 C3700 0.950 . S
H3690 C3702 0.950 . S
H3691 C3703 0.950 . S
C3692 H3684 0.950 . S
C3692 C3693 1.386 . S
C3692 C3694 1.391 . S
C3693 C3692 1.386 . S
C3693 C3697 1.393 . S
C3694 H3686 0.950 . S
C3694 C3692 1.391 . S
C3694 C3695 1.400 . S
C3695 C3694 1.400 . S
C3695 C3696 1.398 . S
C3695 C3701 1.491 . S
C3696 H3687 0.950 . S
C3696 C3695 1.398 . S
C3696 C3697 1.391 . S
C3697 H3685 0.950 . S
C3697 C3693 1.393 . S
C3697 C3696 1.391 . S
C3698 H3688 0.950 . S
C3698 C3699 1.386 . S
C3698 C3700 1.391 . S
C3699 C3698 1.386 . S
C3699 C3703 1.393 . S
C3700 H3689 0.950 . S
C3700 C3698 1.391 . S
C3700 C3701 1.400 . S
C3701 C3695 1.491 . S
C3701 C3700 1.400 . S
C3701 C3702 1.398 . S
C3702 H3690 0.950 . S
C3702 C3701 1.398 . S
C3702 C3703 1.391 . S
C3703 H3691 0.950 . S
C3703 C3699 1.393 . S
C3703 C3702 1.391 . S
H3704 C3712 0.950 . S
H3705 C3717 0.950 . S
H3706 C3714 0.950 . S
H3707 C3716 0.950 . S
H3708 C3718 0.950 . S
H3709 C3720 0.950 . S
H3710 C3722 0.950 . S
H3711 C3723 0.950 . S
C3712 H3704 0.950 . S
C3712 C3713 1.386 . S
C3712 C3714 1.391 . S
C3713 C3712 1.386 . S
C3713 C3717 1.393 . S
C3714 H3706 0.950 . S
C3714 C3712 1.391 . S
C3714 C3715 1.400 . S
C3715 C3714 1.400 . S
C3715 C3716 1.398 . S
C3715 C3721 1.491 . S
C3716 H3707 0.950 . S
C3716 C3715 1.398 . S
C3716 C3717 1.391 . S
C3717 H3705 0.950 . S
C3717 C3713 1.393 . S
C3717 C3716 1.391 . S
C3718 H3708 0.950 . S
C3718 C3719 1.386 . S
C3718 C3720 1.391 . S
C3719 C3718 1.386 . S
C3719 C3723 1.393 . S
C3720 H3709 0.950 . S
C3720 C3718 1.391 . S
C3720 C3721 1.400 . S
C3721 C3715 1.491 . S
C3721 C3720 1.400 . S
C3721 C3722 1.398 . S
C3722 H3710 0.950 . S
C3722 C3721 1.398 . S
C3722 C3723 1.391 . S
C3723 H3711 0.950 . S
C3723 C3719 1.393 . S
C3723 C3722 1.391 . S
H3724 C3732 0.950 . S
H3725 C3737 0.950 . S
H3726 C3734 0.950 . S
H3727 C3736 0.950 . S
H3728 C3738 0.950 . S
H3729 C3740 0.950 . S
H3730 C3742 0.950 . S
H3731 C3743 0.950 . S
C3732 H3724 0.950 . S
C3732 C3733 1.386 . S
C3732 C3734 1.391 . S
C3733 C3732 1.386 . S
C3733 C3737 1.393 . S
C3734 H3726 0.950 . S
C3734 C3732 1.391 . S
C3734 C3735 1.400 . S
C3735 C3734 1.400 . S
C3735 C3736 1.398 . S
C3735 C3741 1.491 . S
C3736 H3727 0.950 . S
C3736 C3735 1.398 . S
C3736 C3737 1.391 . S
C3737 H3725 0.950 . S
C3737 C3733 1.393 . S
C3737 C3736 1.391 . S
C3738 H3728 0.950 . S
C3738 C3739 1.386 . S
C3738 C3740 1.391 . S
C3739 C3738 1.386 . S
C3739 C3743 1.393 . S
C3740 H3729 0.950 . S
C3740 C3738 1.391 . S
C3740 C3741 1.400 . S
C3741 C3735 1.491 . S
C3741 C3740 1.400 . S
C3741 C3742 1.398 . S
C3742 H3730 0.950 . S
C3742 C3741 1.398 . S
C3742 C3743 1.391 . S
C3743 H3731 0.950 . S
C3743 C3739 1.393 . S
C3743 C3742 1.391 . S
H3744 C3752 0.950 . S
H3745 C3757 0.950 . S
H3746 C3754 0.950 . S
H3747 C3756 0.950 . S
H3748 C3758 0.950 . S
H3749 C3760 0.950 . S
H3750 C3762 0.950 . S
H3751 C3763 0.950 . S
C3752 H3744 0.950 . S
C3752 C3753 1.386 . S
C3752 C3754 1.391 . S
C3753 C3752 1.386 . S
C3753 C3757 1.393 . S
C3754 H3746 0.950 . S
C3754 C3752 1.391 . S
C3754 C3755 1.400 . S
C3755 C3754 1.400 . S
C3755 C3756 1.398 . S
C3755 C3761 1.491 . S
C3756 H3747 0.950 . S
C3756 C3755 1.398 . S
C3756 C3757 1.391 . S
C3757 H3745 0.950 . S
C3757 C3753 1.393 . S
C3757 C3756 1.391 . S
C3758 H3748 0.950 . S
C3758 C3759 1.386 . S
C3758 C3760 1.391 . S
C3759 C3758 1.386 . S
C3759 C3763 1.393 . S
C3760 H3749 0.950 . S
C3760 C3758 1.391 . S
C3760 C3761 1.400 . S
C3761 C3755 1.491 . S
C3761 C3760 1.400 . S
C3761 C3762 1.398 . S
C3762 H3750 0.950 . S
C3762 C3761 1.398 . S
C3762 C3763 1.391 . S
C3763 H3751 0.950 . S
C3763 C3759 1.393 . S
C3763 C3762 1.391 . S
H3764 C3772 0.950 . S
H3765 C3777 0.950 . S
H3766 C3774 0.950 . S
H3767 C3776 0.950 . S
H3768 C3778 0.950 . S
H3769 C3780 0.950 . S
H3770 C3782 0.950 . S
H3771 C3783 0.950 . S
C3772 H3764 0.950 . S
C3772 C3773 1.386 . S
C3772 C3774 1.391 . S
C3773 C3772 1.386 . S
C3773 C3777 1.393 . S
C3774 H3766 0.950 . S
C3774 C3772 1.391 . S
C3774 C3775 1.400 . S
C3775 C3774 1.400 . S
C3775 C3776 1.398 . S
C3775 C3781 1.491 . S
C3776 H3767 0.950 . S
C3776 C3775 1.398 . S
C3776 C3777 1.391 . S
C3777 H3765 0.950 . S
C3777 C3773 1.393 . S
C3777 C3776 1.391 . S
C3778 H3768 0.950 . S
C3778 C3779 1.386 . S
C3778 C3780 1.391 . S
C3779 C3778 1.386 . S
C3779 C3783 1.393 . S
C3780 H3769 0.950 . S
C3780 C3778 1.391 . S
C3780 C3781 1.400 . S
C3781 C3775 1.491 . S
C3781 C3780 1.400 . S
C3781 C3782 1.398 . S
C3782 H3770 0.950 . S
C3782 C3781 1.398 . S
C3782 C3783 1.391 . S
C3783 H3771 0.950 . S
C3783 C3779 1.393 . S
C3783 C3782 1.391 . S
H3784 C3792 0.950 . S
H3785 C3797 0.950 . S
H3786 C3794 0.950 . S
H3787 C3796 0.950 . S
H3788 C3798 0.950 . S
H3789 C3800 0.950 . S
H3790 C3802 0.950 . S
H3791 C3803 0.950 . S
C3792 H3784 0.950 . S
C3792 C3793 1.386 . S
C3792 C3794 1.391 . S
C3793 C3792 1.386 . S
C3793 C3797 1.393 . S
C3794 H3786 0.950 . S
C3794 C3792 1.391 . S
C3794 C3795 1.400 . S
C3795 C3794 1.400 . S
C3795 C3796 1.398 . S
C3795 C3801 1.491 . S
C3796 H3787 0.950 . S
C3796 C3795 1.398 . S
C3796 C3797 1.391 . S
C3797 H3785 0.950 . S
C3797 C3793 1.393 . S
C3797 C3796 1.391 . S
C3798 H3788 0.950 . S
C3798 C3799 1.386 . S
C3798 C3800 1.391 . S
C3799 C3798 1.386 . S
C3799 C3803 1.393 . S
C3800 H3789 0.950 . S
C3800 C3798 1.391 . S
C3800 C3801 1.400 . S
C3801 C3795 1.491 . S
C3801 C3800 1.400 . S
C3801 C3802 1.398 . S
C3802 H3790 0.950 . S
C3802 C3801 1.398 . S
C3802 C3803 1.391 . S
C3803 H3791 0.950 . S
C3803 C3799 1.393 . S
C3803 C3802 1.391 . S
H3804 C3812 0.950 . S
H3805 C3817 0.950 . S
H3806 C3814 0.950 . S
H3807 C3816 0.950 . S
H3808 C3818 0.950 . S
H3809 C3820 0.950 . S
H3810 C3822 0.950 . S
H3811 C3823 0.950 . S
C3812 H3804 0.950 . S
C3812 C3813 1.386 . S
C3812 C3814 1.391 . S
C3813 C3812 1.386 . S
C3813 C3817 1.393 . S
C3814 H3806 0.950 . S
C3814 C3812 1.391 . S
C3814 C3815 1.400 . S
C3815 C3814 1.400 . S
C3815 C3816 1.398 . S
C3815 C3821 1.491 . S
C3816 H3807 0.950 . S
C3816 C3815 1.398 . S
C3816 C3817 1.391 . S
C3817 H3805 0.950 . S
C3817 C3813 1.393 . S
C3817 C3816 1.391 . S
C3818 H3808 0.950 . S
C3818 C3819 1.386 . S
C3818 C3820 1.391 . S
C3819 C3818 1.386 . S
C3819 C3823 1.393 . S
C3820 H3809 0.950 . S
C3820 C3818 1.391 . S
C3820 C3821 1.400 . S
C3821 C3815 1.491 . S
C3821 C3820 1.400 . S
C3821 C3822 1.398 . S
C3822 H3810 0.950 . S
C3822 C3821 1.398 . S
C3822 C3823 1.391 . S
C3823 H3811 0.950 . S
C3823 C3819 1.393 . S
C3823 C3822 1.391 . S
H3824 C3832 0.950 . S
H3825 C3837 0.950 . S
H3826 C3834 0.950 . S
H3827 C3836 0.950 . S
H3828 C3838 0.950 . S
H3829 C3840 0.950 . S
H3830 C3842 0.950 . S
H3831 C3843 0.950 . S
C3832 H3824 0.950 . S
C3832 C3833 1.386 . S
C3832 C3834 1.391 . S
C3833 C3832 1.386 . S
C3833 C3837 1.393 . S
C3834 H3826 0.950 . S
C3834 C3832 1.391 . S
C3834 C3835 1.400 . S
C3835 C3834 1.400 . S
C3835 C3836 1.398 . S
C3835 C3841 1.491 . S
C3836 H3827 0.950 . S
C3836 C3835 1.398 . S
C3836 C3837 1.391 . S
C3837 H3825 0.950 . S
C3837 C3833 1.393 . S
C3837 C3836 1.391 . S
C3838 H3828 0.950 . S
C3838 C3839 1.386 . S
C3838 C3840 1.391 . S
C3839 C3838 1.386 . S
C3839 C3843 1.393 . S
C3840 H3829 0.950 . S
C3840 C3838 1.391 . S
C3840 C3841 1.400 . S
C3841 C3835 1.491 . S
C3841 C3840 1.400 . S
C3841 C3842 1.398 . S
C3842 H3830 0.950 . S
C3842 C3841 1.398 . S
C3842 C3843 1.391 . S
C3843 H3831 0.950 . S
C3843 C3839 1.393 . S
C3843 C3842 1.391 . S
H3844 C3852 0.950 . S
H3845 C3857 0.950 . S
H3846 C3854 0.950 . S
H3847 C3856 0.950 . S
H3848 C3858 0.950 . S
H3849 C3860 0.950 . S
H3850 C3862 0.950 . S
H3851 C3863 0.950 . S
C3852 H3844 0.950 . S
C3852 C3853 1.386 . S
C3852 C3854 1.391 . S
C3853 C3852 1.386 . S
C3853 C3857 1.393 . S
C3854 H3846 0.950 . S
C3854 C3852 1.391 . S
C3854 C3855 1.400 . S
C3855 C3854 1.400 . S
C3855 C3856 1.398 . S
C3855 C3861 1.491 . S
C3856 H3847 0.950 . S
C3856 C3855 1.398 . S
C3856 C3857 1.391 . S
C3857 H3845 0.950 . S
C3857 C3853 1.393 . S
C3857 C3856 1.391 . S
C3858 H3848 0.950 . S
C3858 C3859 1.386 . S
C3858 C3860 1.391 . S
C3859 C3858 1.386 . S
C3859 C3863 1.393 . S
C3860 H3849 0.950 . S
C3860 C3858 1.391 . S
C3860 C3861 1.400 . S
C3861 C3855 1.491 . S
C3861 C3860 1.400 . S
C3861 C3862 1.398 . S
C3862 H3850 0.950 . S
C3862 C3861 1.398 . S
C3862 C3863 1.391 . S
C3863 H3851 0.950 . S
C3863 C3859 1.393 . S
C3863 C3862 1.391 . S
H3864 C3872 0.950 . S
H3865 C3877 0.950 . S
H3866 C3874 0.950 . S
H3867 C3876 0.950 . S
H3868 C3878 0.950 . S
H3869 C3880 0.950 . S
H3870 C3882 0.950 . S
H3871 C3883 0.950 . S
C3872 H3864 0.950 . S
C3872 C3873 1.386 . S
C3872 C3874 1.391 . S
C3873 C3872 1.386 . S
C3873 C3877 1.393 . S
C3874 H3866 0.950 . S
C3874 C3872 1.391 . S
C3874 C3875 1.400 . S
C3875 C3874 1.400 . S
C3875 C3876 1.398 . S
C3875 C3881 1.491 . S
C3876 H3867 0.950 . S
C3876 C3875 1.398 . S
C3876 C3877 1.391 . S
C3877 H3865 0.950 . S
C3877 C3873 1.393 . S
C3877 C3876 1.391 . S
C3878 H3868 0.950 . S
C3878 C3879 1.386 . S
C3878 C3880 1.391 . S
C3879 C3878 1.386 . S
C3879 C3883 1.393 . S
C3880 H3869 0.950 . S
C3880 C3878 1.391 . S
C3880 C3881 1.400 . S
C3881 C3875 1.491 . S
C3881 C3880 1.400 . S
C3881 C3882 1.398 . S
C3882 H3870 0.950 . S
C3882 C3881 1.398 . S
C3882 C3883 1.391 . S
C3883 H3871 0.950 . S
C3883 C3879 1.393 . S
C3883 C3882 1.391 . S
H3884 C3892 0.950 . S
H3885 C3897 0.950 . S
H3886 C3894 0.950 . S
H3887 C3896 0.950 . S
H3888 C3898 0.950 . S
H3889 C3900 0.950 . S
H3890 C3902 0.950 . S
H3891 C3903 0.950 . S
C3892 H3884 0.950 . S
C3892 C3893 1.386 . S
C3892 C3894 1.391 . S
C3893 C3892 1.386 . S
C3893 C3897 1.393 . S
C3894 H3886 0.950 . S
C3894 C3892 1.391 . S
C3894 C3895 1.400 . S
C3895 C3894 1.400 . S
C3895 C3896 1.398 . S
C3895 C3901 1.491 . S
C3896 H3887 0.950 . S
C3896 C3895 1.398 . S
C3896 C3897 1.391 . S
C3897 H3885 0.950 . S
C3897 C3893 1.393 . S
C3897 C3896 1.391 . S
C3898 H3888 0.950 . S
C3898 C3899 1.386 . S
C3898 C3900 1.391 . S
C3899 C3898 1.386 . S
C3899 C3903 1.393 . S
C3900 H3889 0.950 . S
C3900 C3898 1.391 . S
C3900 C3901 1.400 . S
C3901 C3895 1.491 . S
C3901 C3900 1.400 . S
C3901 C3902 1.398 . S
C3902 H3890 0.950 . S
C3902 C3901 1.398 . S
C3902 C3903 1.391 . S
C3903 H3891 0.950 . S
C3903 C3899 1.393 . S
C3903 C3902 1.391 . S
H3904 C3912 0.950 . S
H3905 C3917 0.950 . S
H3906 C3914 0.950 . S
H3907 C3916 0.950 . S
H3908 C3918 0.950 . S
H3909 C3920 0.950 . S
H3910 C3922 0.950 . S
H3911 C3923 0.950 . S
C3912 H3904 0.950 . S
C3912 C3913 1.386 . S
C3912 C3914 1.391 . S
C3913 C3912 1.386 . S
C3913 C3917 1.393 . S
C3914 H3906 0.950 . S
C3914 C3912 1.391 . S
C3914 C3915 1.400 . S
C3915 C3914 1.400 . S
C3915 C3916 1.398 . S
C3915 C3921 1.491 . S
C3916 H3907 0.950 . S
C3916 C3915 1.398 . S
C3916 C3917 1.391 . S
C3917 H3905 0.950 . S
C3917 C3913 1.393 . S
C3917 C3916 1.391 . S
C3918 H3908 0.950 . S
C3918 C3919 1.386 . S
C3918 C3920 1.391 . S
C3919 C3918 1.386 . S
C3919 C3923 1.393 . S
C3920 H3909 0.950 . S
C3920 C3918 1.391 . S
C3920 C3921 1.400 . S
C3921 C3915 1.491 . S
C3921 C3920 1.400 . S
C3921 C3922 1.398 . S
C3922 H3910 0.950 . S
C3922 C3921 1.398 . S
C3922 C3923 1.391 . S
C3923 H3911 0.950 . S
C3923 C3919 1.393 . S
C3923 C3922 1.391 . S
H3924 C3932 0.950 . S
H3925 C3937 0.950 . S
H3926 C3934 0.950 . S
H3927 C3936 0.950 . S
H3928 C3938 0.950 . S
H3929 C3940 0.950 . S
H3930 C3942 0.950 . S
H3931 C3943 0.950 . S
C3932 H3924 0.950 . S
C3932 C3933 1.386 . S
C3932 C3934 1.391 . S
C3933 C3932 1.386 . S
C3933 C3937 1.393 . S
C3934 H3926 0.950 . S
C3934 C3932 1.391 . S
C3934 C3935 1.400 . S
C3935 C3934 1.400 . S
C3935 C3936 1.398 . S
C3935 C3941 1.491 . S
C3936 H3927 0.950 . S
C3936 C3935 1.398 . S
C3936 C3937 1.391 . S
C3937 H3925 0.950 . S
C3937 C3933 1.393 . S
C3937 C3936 1.391 . S
C3938 H3928 0.950 . S
C3938 C3939 1.386 . S
C3938 C3940 1.391 . S
C3939 C3938 1.386 . S
C3939 C3943 1.393 . S
C3940 H3929 0.950 . S
C3940 C3938 1.391 . S
C3940 C3941 1.400 . S
C3941 C3935 1.491 . S
C3941 C3940 1.400 . S
C3941 C3942 1.398 . S
C3942 H3930 0.950 . S
C3942 C3941 1.398 . S
C3942 C3943 1.391 . S
C3943 H3931 0.950 . S
C3943 C3939 1.393 . S
C3943 C3942 1.391 . S
H3944 C3952 0.950 . S
H3945 C3957 0.950 . S
H3946 C3954 0.950 . S
H3947 C3956 0.950 . S
H3948 C3958 0.950 . S
H3949 C3960 0.950 . S
H3950 C3962 0.950 . S
H3951 C3963 0.950 . S
C3952 H3944 0.950 . S
C3952 C3953 1.386 . S
C3952 C3954 1.391 . S
C3953 C3952 1.386 . S
C3953 C3957 1.393 . S
C3954 H3946 0.950 . S
C3954 C3952 1.391 . S
C3954 C3955 1.400 . S
C3955 C3954 1.400 . S
C3955 C3956 1.398 . S
C3955 C3961 1.491 . S
C3956 H3947 0.950 . S
C3956 C3955 1.398 . S
C3956 C3957 1.391 . S
C3957 H3945 0.950 . S
C3957 C3953 1.393 . S
C3957 C3956 1.391 . S
C3958 H3948 0.950 . S
C3958 C3959 1.386 . S
C3958 C3960 1.391 . S
C3959 C3958 1.386 . S
C3959 C3963 1.393 . S
C3960 H3949 0.950 . S
C3960 C3958 1.391 . S
C3960 C3961 1.400 . S
C3961 C3955 1.491 . S
C3961 C3960 1.400 . S
C3961 C3962 1.398 . S
C3962 H3950 0.950 . S
C3962 C3961 1.398 . S
C3962 C3963 1.391 . S
C3963 H3951 0.950 . S
C3963 C3959 1.393 . S
C3963 C3962 1.391 . S
H3964 C3972 0.950 . S
H3965 C3977 0.950 . S
H3966 C3974 0.950 . S
H3967 C3976 0.950 . S
H3968 C3978 0.950 . S
H3969 C3980 0.950 . S
H3970 C3982 0.950 . S
H3971 C3983 0.950 . S
C3972 H3964 0.950 . S
C3972 C3973 1.386 . S
C3972 C3974 1.391 . S
C3973 C3972 1.386 . S
C3973 C3977 1.393 . S
C3974 H3966 0.950 . S
C3974 C3972 1.391 . S
C3974 C3975 1.400 . S
C3975 C3974 1.400 . S
C3975 C3976 1.398 . S
C3975 C3981 1.491 . S
C3976 H3967 0.950 . S
C3976 C3975 1.398 . S
C3976 C3977 1.391 . S
C3977 H3965 0.950 . S
C3977 C3973 1.393 . S
C3977 C3976 1.391 . S
C3978 H3968 0.950 . S
C3978 C3979 1.386 . S
C3978 C3980 1.391 . S
C3979 C3978 1.386 . S
C3979 C3983 1.393 . S
C3980 H3969 0.950 . S
C3980 C3978 1.391 . S
C3980 C3981 1.400 . S
C3981 C3975 1.491 . S
C3981 C3980 1.400 . S
C3981 C3982 1.398 . S
C3982 H3970 0.950 . S
C3982 C3981 1.398 . S
C3982 C3983 1.391 . S
C3983 H3971 0.950 . S
C3983 C3979 1.393 . S
C3983 C3982 1.391 . S
H3984 C3992 0.950 . S
H3985 C3997 0.950 . S
H3986 C3994 0.950 . S
H3987 C3996 0.950 . S
H3988 C3998 0.950 . S
H3989 C4000 0.950 . S
H3990 C4002 0.950 . S
H3991 C4003 0.950 . S
C3992 H3984 0.950 . S
C3992 C3993 1.386 . S
C3992 C3994 1.391 . S
C3993 C3992 1.386 . S
C3993 C3997 1.393 . S
C3994 H3986 0.950 . S
C3994 C3992 1.391 . S
C3994 C3995 1.400 . S
C3995 C3994 1.400 . S
C3995 C3996 1.398 . S
C3995 C4001 1.491 . S
C3996 H3987 0.950 . S
C3996 C3995 1.398 . S
C3996 C3997 1.391 . S
C3997 H3985 0.950 . S
C3997 C3993 1.393 . S
C3997 C3996 1.391 . S
C3998 H3988 0.950 . S
C3998 C3999 1.386 . S
C3998 C4000 1.391 . S
C3999 C3998 1.386 . S
C3999 C4003 1.393 . S
C4000 H3989 0.950 . S
C4000 C3998 1.391 . S
C4000 C4001 1.400 . S
C4001 C3995 1.491 . S
C4001 C4000 1.400 . S
C4001 C4002 1.398 . S
C4002 H3990 0.950 . S
C4002 C4001 1.398 . S
C4002 C4003 1.391 . S
C4003 H3991 0.950 . S
C4003 C3999 1.393 . S
C4003 C4002 1.391 . S
H4004 C4012 0.950 . S
H4005 C4017 0.950 . S
H4006 C4014 0.950 . S
H4007 C4016 0.950 . S
H4008 C4018 0.950 . S
H4009 C4020 0.950 . S
H4010 C4022 0.950 . S
H4011 C4023 0.950 . S
C4012 H4004 0.950 . S
C4012 C4013 1.386 . S
C4012 C4014 1.391 . S
C4013 C4012 1.386 . S
C4013 C4017 1.393 . S
C4014 H4006 0.950 . S
C4014 C4012 1.391 . S
C4014 C4015 1.400 . S
C4015 C4014 1.400 . S
C4015 C4016 1.398 . S
C4015 C4021 1.491 . S
C4016 H4007 0.950 . S
C4016 C4015 1.398 . S
C4016 C4017 1.391 . S
C4017 H4005 0.950 . S
C4017 C4013 1.393 . S
C4017 C4016 1.391 . S
C4018 H4008 0.950 . S
C4018 C4019 1.386 . S
C4018 C4020 1.391 . S
C4019 C4018 1.386 . S
C4019 C4023 1.393 . S
C4020 H4009 0.950 . S
C4020 C4018 1.391 . S
C4020 C4021 1.400 . S
C4021 C4015 1.491 . S
C4021 C4020 1.400 . S
C4021 C4022 1.398 . S
C4022 H4010 0.950 . S
C4022 C4021 1.398 . S
C4022 C4023 1.391 . S
C4023 H4011 0.950 . S
C4023 C4019 1.393 . S
C4023 C4022 1.391 . S
H4024 C4032 0.950 . S
H4025 C4037 0.950 . S
H4026 C4034 0.950 . S
H4027 C4036 0.950 . S
H4028 C4038 0.950 . S
H4029 C4040 0.950 . S
H4030 C4042 0.950 . S
H4031 C4043 0.950 . S
C4032 H4024 0.950 . S
C4032 C4033 1.386 . S
C4032 C4034 1.391 . S
C4033 C4032 1.386 . S
C4033 C4037 1.393 . S
C4034 H4026 0.950 . S
C4034 C4032 1.391 . S
C4034 C4035 1.400 . S
C4035 C4034 1.400 . S
C4035 C4036 1.398 . S
C4035 C4041 1.491 . S
C4036 H4027 0.950 . S
C4036 C4035 1.398 . S
C4036 C4037 1.391 . S
C4037 H4025 0.950 . S
C4037 C4033 1.393 . S
C4037 C4036 1.391 . S
C4038 H4028 0.950 . S
C4038 C4039 1.386 . S
C4038 C4040 1.391 . S
C4039 C4038 1.386 . S
C4039 C4043 1.393 . S
C4040 H4029 0.950 . S
C4040 C4038 1.391 . S
C4040 C4041 1.400 . S
C4041 C4035 1.491 . S
C4041 C4040 1.400 . S
C4041 C4042 1.398 . S
C4042 H4030 0.950 . S
C4042 C4041 1.398 . S
C4042 C4043 1.391 . S
C4043 H4031 0.950 . S
C4043 C4039 1.393 . S
C4043 C4042 1.391 . S
H4044 C4052 0.950 . S
H4045 C4057 0.950 . S
H4046 C4054 0.950 . S
H4047 C4056 0.950 . S
H4048 C4058 0.950 . S
H4049 C4060 0.950 . S
H4050 C4062 0.950 . S
H4051 C4063 0.950 . S
C4052 H4044 0.950 . S
C4052 C4053 1.386 . S
C4052 C4054 1.391 . S
C4053 C4052 1.386 . S
C4053 C4057 1.393 . S
C4054 H4046 0.950 . S
C4054 C4052 1.391 . S
C4054 C4055 1.400 . S
C4055 C4054 1.400 . S
C4055 C4056 1.398 . S
C4055 C4061 1.491 . S
C4056 H4047 0.950 . S
C4056 C4055 1.398 . S
C4056 C4057 1.391 . S
C4057 H4045 0.950 . S
C4057 C4053 1.393 . S
C4057 C4056 1.391 . S
C4058 H4048 0.950 . S
C4058 C4059 1.386 . S
C4058 C4060 1.391 . S
C4059 C4058 1.386 . S
C4059 C4063 1.393 . S
C4060 H4049 0.950 . S
C4060 C4058 1.391 . S
C4060 C4061 1.400 . S
C4061 C4055 1.491 . S
C4061 C4060 1.400 . S
C4061 C4062 1.398 . S
C4062 H4050 0.950 . S
C4062 C4061 1.398 . S
C4062 C4063 1.391 . S
C4063 H4051 0.950 . S
C4063 C4059 1.393 . S
C4063 C4062 1.391 . S
H4064 C4072 0.950 . S
H4065 C4077 0.950 . S
H4066 C4074 0.950 . S
H4067 C4076 0.950 . S
H4068 C4078 0.950 . S
H4069 C4080 0.950 . S
H4070 C4082 0.950 . S
H4071 C4083 0.950 . S
C4072 H4064 0.950 . S
C4072 C4073 1.386 . S
C4072 C4074 1.391 . S
C4073 C4072 1.386 . S
C4073 C4077 1.393 . S
C4074 H4066 0.950 . S
C4074 C4072 1.391 . S
C4074 C4075 1.400 . S
C4075 C4074 1.400 . S
C4075 C4076 1.398 . S
C4075 C4081 1.491 . S
C4076 H4067 0.950 . S
C4076 C4075 1.398 . S
C4076 C4077 1.391 . S
C4077 H4065 0.950 . S
C4077 C4073 1.393 . S
C4077 C4076 1.391 . S
C4078 H4068 0.950 . S
C4078 C4079 1.386 . S
C4078 C4080 1.391 . S
C4079 C4078 1.386 . S
C4079 C4083 1.393 . S
C4080 H4069 0.950 . S
C4080 C4078 1.391 . S
C4080 C4081 1.400 . S
C4081 C4075 1.491 . S
C4081 C4080 1.400 . S
C4081 C4082 1.398 . S
C4082 H4070 0.950 . S
C4082 C4081 1.398 . S
C4082 C4083 1.391 . S
C4083 H4071 0.950 . S
C4083 C4079 1.393 . S
C4083 C4082 1.391 . S
H4084 C4092 0.950 . S
H4085 C4097 0.950 . S
H4086 C4094 0.950 . S
H4087 C4096 0.950 . S
H4088 C4098 0.950 . S
H4089 C4100 0.950 . S
H4090 C4102 0.950 . S
H4091 C4103 0.950 . S
C4092 H4084 0.950 . S
C4092 C4093 1.386 . S
C4092 C4094 1.391 . S
C4093 C4092 1.386 . S
C4093 C4097 1.393 . S
C4094 H4086 0.950 . S
C4094 C4092 1.391 . S
C4094 C4095 1.400 . S
C4095 C4094 1.400 . S
C4095 C4096 1.398 . S
C4095 C4101 1.491 . S
C4096 H4087 0.950 . S
C4096 C4095 1.398 . S
C4096 C4097 1.391 . S
C4097 H4085 0.950 . S
C4097 C4093 1.393 . S
C4097 C4096 1.391 . S
C4098 H4088 0.950 . S
C4098 C4099 1.386 . S
C4098 C4100 1.391 . S
C4099 C4098 1.386 . S
C4099 C4103 1.393 . S
C4100 H4089 0.950 . S
C4100 C4098 1.391 . S
C4100 C4101 1.400 . S
C4101 C4095 1.491 . S
C4101 C4100 1.400 . S
C4101 C4102 1.398 . S
C4102 H4090 0.950 . S
C4102 C4101 1.398 . S
C4102 C4103 1.391 . S
C4103 H4091 0.950 . S
C4103 C4099 1.393 . S
C4103 C4102 1.391 . S
H4104 C4112 0.950 . S
H4105 C4117 0.950 . S
H4106 C4114 0.950 . S
H4107 C4116 0.950 . S
H4108 C4118 0.950 . S
H4109 C4120 0.950 . S
H4110 C4122 0.950 . S
H4111 C4123 0.950 . S
C4112 H4104 0.950 . S
C4112 C4113 1.386 . S
C4112 C4114 1.391 . S
C4113 C4112 1.386 . S
C4113 C4117 1.393 . S
C4114 H4106 0.950 . S
C4114 C4112 1.391 . S
C4114 C4115 1.400 . S
C4115 C4114 1.400 . S
C4115 C4116 1.398 . S
C4115 C4121 1.491 . S
C4116 H4107 0.950 . S
C4116 C4115 1.398 . S
C4116 C4117 1.391 . S
C4117 H4105 0.950 . S
C4117 C4113 1.393 . S
C4117 C4116 1.391 . S
C4118 H4108 0.950 . S
C4118 C4119 1.386 . S
C4118 C4120 1.391 . S
C4119 C4118 1.386 . S
C4119 C4123 1.393 . S
C4120 H4109 0.950 . S
C4120 C4118 1.391 . S
C4120 C4121 1.400 . S
C4121 C4115 1.491 . S
C4121 C4120 1.400 . S
C4121 C4122 1.398 . S
C4122 H4110 0.950 . S
C4122 C4121 1.398 . S
C4122 C4123 1.391 . S
C4123 H4111 0.950 . S
C4123 C4119 1.393 . S
C4123 C4122 1.391 . S
H4124 C4132 0.950 . S
H4125 C4137 0.950 . S
H4126 C4134 0.950 . S
H4127 C4136 0.950 . S
H4128 C4138 0.950 . S
H4129 C4140 0.950 . S
H4130 C4142 0.950 . S
H4131 C4143 0.950 . S
C4132 H4124 0.950 . S
C4132 C4133 1.386 . S
C4132 C4134 1.391 . S
C4133 C4132 1.386 . S
C4133 C4137 1.393 . S
C4134 H4126 0.950 . S
C4134 C4132 1.391 . S
C4134 C4135 1.400 . S
C4135 C4134 1.400 . S
C4135 C4136 1.398 . S
C4135 C4141 1.491 . S
C4136 H4127 0.950 . S
C4136 C4135 1.398 . S
C4136 C4137 1.391 . S
C4137 H4125 0.950 . S
C4137 C4133 1.393 . S
C4137 C4136 1.391 . S
C4138 H4128 0.950 . S
C4138 C4139 1.386 . S
C4138 C4140 1.391 . S
C4139 C4138 1.386 . S
C4139 C4143 1.393 . S
C4140 H4129 0.950 . S
C4140 C4138 1.391 . S
C4140 C4141 1.400 . S
C4141 C4135 1.491 . S
C4141 C4140 1.400 . S
C4141 C4142 1.398 . S
C4142 H4130 0.950 . S
C4142 C4141 1.398 . S
C4142 C4143 1.391 . S
C4143 H4131 0.950 . S
C4143 C4139 1.393 . S
C4143 C4142 1.391 . S
H4144 C4152 0.950 . S
H4145 C4157 0.950 . S
H4146 C4154 0.950 . S
H4147 C4156 0.950 . S
H4148 C4158 0.950 . S
H4149 C4160 0.950 . S
H4150 C4162 0.950 . S
H4151 C4163 0.950 . S
C4152 H4144 0.950 . S
C4152 C4153 1.386 . S
C4152 C4154 1.391 . S
C4153 C4152 1.386 . S
C4153 C4157 1.393 . S
C4154 H4146 0.950 . S
C4154 C4152 1.391 . S
C4154 C4155 1.400 . S
C4155 C4154 1.400 . S
C4155 C4156 1.398 . S
C4155 C4161 1.491 . S
C4156 H4147 0.950 . S
C4156 C4155 1.398 . S
C4156 C4157 1.391 . S
C4157 H4145 0.950 . S
C4157 C4153 1.393 . S
C4157 C4156 1.391 . S
C4158 H4148 0.950 . S
C4158 C4159 1.386 . S
C4158 C4160 1.391 . S
C4159 C4158 1.386 . S
C4159 C4163 1.393 . S
C4160 H4149 0.950 . S
C4160 C4158 1.391 . S
C4160 C4161 1.400 . S
C4161 C4155 1.491 . S
C4161 C4160 1.400 . S
C4161 C4162 1.398 . S
C4162 H4150 0.950 . S
C4162 C4161 1.398 . S
C4162 C4163 1.391 . S
C4163 H4151 0.950 . S
C4163 C4159 1.393 . S
C4163 C4162 1.391 . S
H4164 C4172 0.950 . S
H4165 C4177 0.950 . S
H4166 C4174 0.950 . S
H4167 C4176 0.950 . S
H4168 C4178 0.950 . S
H4169 C4180 0.950 . S
H4170 C4182 0.950 . S
H4171 C4183 0.950 . S
C4172 H4164 0.950 . S
C4172 C4173 1.386 . S
C4172 C4174 1.391 . S
C4173 C4172 1.386 . S
C4173 C4177 1.393 . S
C4174 H4166 0.950 . S
C4174 C4172 1.391 . S
C4174 C4175 1.400 . S
C4175 C4174 1.400 . S
C4175 C4176 1.398 . S
C4175 C4181 1.491 . S
C4176 H4167 0.950 . S
C4176 C4175 1.398 . S
C4176 C4177 1.391 . S
C4177 H4165 0.950 . S
C4177 C4173 1.393 . S
C4177 C4176 1.391 . S
C4178 H4168 0.950 . S
C4178 C4179 1.386 . S
C4178 C4180 1.391 . S
C4179 C4178 1.386 . S
C4179 C4183 1.393 . S
C4180 H4169 0.950 . S
C4180 C4178 1.391 . S
C4180 C4181 1.400 . S
C4181 C4175 1.491 . S
C4181 C4180 1.400 . S
C4181 C4182 1.398 . S
C4182 H4170 0.950 . S
C4182 C4181 1.398 . S
C4182 C4183 1.391 . S
C4183 H4171 0.950 . S
C4183 C4179 1.393 . S
C4183 C4182 1.391 . S
H4184 C4192 0.950 . S
H4185 C4197 0.950 . S
H4186 C4194 0.950 . S
H4187 C4196 0.950 . S
H4188 C4198 0.950 . S
H4189 C4200 0.950 . S
H4190 C4202 0.950 . S
H4191 C4203 0.950 . S
C4192 H4184 0.950 . S
C4192 C4193 1.386 . S
C4192 C4194 1.391 . S
C4193 C4192 1.386 . S
C4193 C4197 1.393 . S
C4194 H4186 0.950 . S
C4194 C4192 1.391 . S
C4194 C4195 1.400 . S
C4195 C4194 1.400 . S
C4195 C4196 1.398 . S
C4195 C4201 1.491 . S
C4196 H4187 0.950 . S
C4196 C4195 1.398 . S
C4196 C4197 1.391 . S
C4197 H4185 0.950 . S
C4197 C4193 1.393 . S
C4197 C4196 1.391 . S
C4198 H4188 0.950 . S
C4198 C4199 1.386 . S
C4198 C4200 1.391 . S
C4199 C4198 1.386 . S
C4199 C4203 1.393 . S
C4200 H4189 0.950 . S
C4200 C4198 1.391 . S
C4200 C4201 1.400 . S
C4201 C4195 1.491 . S
C4201 C4200 1.400 . S
C4201 C4202 1.398 . S
C4202 H4190 0.950 . S
C4202 C4201 1.398 . S
C4202 C4203 1.391 . S
C4203 H4191 0.950 . S
C4203 C4199 1.393 . S
C4203 C4202 1.391 . S
H4204 C4212 0.950 . S
H4205 C4217 0.950 . S
H4206 C4214 0.950 . S
H4207 C4216 0.950 . S
H4208 C4218 0.950 . S
H4209 C4220 0.950 . S
H4210 C4222 0.950 . S
H4211 C4223 0.950 . S
C4212 H4204 0.950 . S
C4212 C4213 1.386 . S
C4212 C4214 1.391 . S
C4213 C4212 1.386 . S
C4213 C4217 1.393 . S
C4214 H4206 0.950 . S
C4214 C4212 1.391 . S
C4214 C4215 1.400 . S
C4215 C4214 1.400 . S
C4215 C4216 1.398 . S
C4215 C4221 1.491 . S
C4216 H4207 0.950 . S
C4216 C4215 1.398 . S
C4216 C4217 1.391 . S
C4217 H4205 0.950 . S
C4217 C4213 1.393 . S
C4217 C4216 1.391 . S
C4218 H4208 0.950 . S
C4218 C4219 1.386 . S
C4218 C4220 1.391 . S
C4219 C4218 1.386 . S
C4219 C4223 1.393 . S
C4220 H4209 0.950 . S
C4220 C4218 1.391 . S
C4220 C4221 1.400 . S
C4221 C4215 1.491 . S
C4221 C4220 1.400 . S
C4221 C4222 1.398 . S
C4222 H4210 0.950 . S
C4222 C4221 1.398 . S
C4222 C4223 1.391 . S
C4223 H4211 0.950 . S
C4223 C4219 1.393 . S
C4223 C4222 1.391 . S
H4224 C4232 0.950 . S
H4225 C4237 0.950 . S
H4226 C4234 0.950 . S
H4227 C4236 0.950 . S
H4228 C4238 0.950 . S
H4229 C4240 0.950 . S
H4230 C4242 0.950 . S
H4231 C4243 0.950 . S
C4232 H4224 0.950 . S
C4232 C4233 1.386 . S
C4232 C4234 1.391 . S
C4233 C4232 1.386 . S
C4233 C4237 1.393 . S
C4234 H4226 0.950 . S
C4234 C4232 1.391 . S
C4234 C4235 1.400 . S
C4235 C4234 1.400 . S
C4235 C4236 1.398 . S
C4235 C4241 1.491 . S
C4236 H4227 0.950 . S
C4236 C4235 1.398 . S
C4236 C4237 1.391 . S
C4237 H4225 0.950 . S
C4237 C4233 1.393 . S
C4237 C4236 1.391 . S
C4238 H4228 0.950 . S
C4238 C4239 1.386 . S
C4238 C4240 1.391 . S
C4239 C4238 1.386 . S
C4239 C4243 1.393 . S
C4240 H4229 0.950 . S
C4240 C4238 1.391 . S
C4240 C4241 1.400 . S
C4241 C4235 1.491 . S
C4241 C4240 1.400 . S
C4241 C4242 1.398 . S
C4242 H4230 0.950 . S
C4242 C4241 1.398 . S
C4242 C4243 1.391 . S
C4243 H4231 0.950 . S
C4243 C4239 1.393 . S
C4243 C4242 1.391 . S
H4244 C4252 0.950 . S
H4245 C4257 0.950 . S
H4246 C4254 0.950 . S
H4247 C4256 0.950 . S
H4248 C4258 0.950 . S
H4249 C4260 0.950 . S
H4250 C4262 0.950 . S
H4251 C4263 0.950 . S
C4252 H4244 0.950 . S
C4252 C4253 1.386 . S
C4252 C4254 1.391 . S
C4253 C4252 1.386 . S
C4253 C4257 1.393 . S
C4254 H4246 0.950 . S
C4254 C4252 1.391 . S
C4254 C4255 1.400 . S
C4255 C4254 1.400 . S
C4255 C4256 1.398 . S
C4255 C4261 1.491 . S
C4256 H4247 0.950 . S
C4256 C4255 1.398 . S
C4256 C4257 1.391 . S
C4257 H4245 0.950 . S
C4257 C4253 1.393 . S
C4257 C4256 1.391 . S
C4258 H4248 0.950 . S
C4258 C4259 1.386 . S
C4258 C4260 1.391 . S
C4259 C4258 1.386 . S
C4259 C4263 1.393 . S
C4260 H4249 0.950 . S
C4260 C4258 1.391 . S
C4260 C4261 1.400 . S
C4261 C4255 1.491 . S
C4261 C4260 1.400 . S
C4261 C4262 1.398 . S
C4262 H4250 0.950 . S
C4262 C4261 1.398 . S
C4262 C4263 1.391 . S
C4263 H4251 0.950 . S
C4263 C4259 1.393 . S
C4263 C4262 1.391 . S
H4264 C4272 0.950 . S
H4265 C4277 0.950 . S
H4266 C4274 0.950 . S
H4267 C4276 0.950 . S
H4268 C4278 0.950 . S
H4269 C4280 0.950 . S
H4270 C4282 0.950 . S
H4271 C4283 0.950 . S
C4272 H4264 0.950 . S
C4272 C4273 1.386 . S
C4272 C4274 1.391 . S
C4273 C4272 1.386 . S
C4273 C4277 1.393 . S
C4274 H4266 0.950 . S
C4274 C4272 1.391 . S
C4274 C4275 1.400 . S
C4275 C4274 1.400 . S
C4275 C4276 1.398 . S
C4275 C4281 1.491 . S
C4276 H4267 0.950 . S
C4276 C4275 1.398 . S
C4276 C4277 1.391 . S
C4277 H4265 0.950 . S
C4277 C4273 1.393 . S
C4277 C4276 1.391 . S
C4278 H4268 0.950 . S
C4278 C4279 1.386 . S
C4278 C4280 1.391 . S
C4279 C4278 1.386 . S
C4279 C4283 1.393 . S
C4280 H4269 0.950 . S
C4280 C4278 1.391 . S
C4280 C4281 1.400 . S
C4281 C4275 1.491 . S
C4281 C4280 1.400 . S
C4281 C4282 1.398 . S
C4282 H4270 0.950 . S
C4282 C4281 1.398 . S
C4282 C4283 1.391 . S
C4283 H4271 0.950 . S
C4283 C4279 1.393 . S
C4283 C4282 1.391 . S
H4284 C4292 0.950 . S
H4285 C4297 0.950 . S
H4286 C4294 0.950 . S
H4287 C4296 0.950 . S
H4288 C4298 0.950 . S
H4289 C4300 0.950 . S
H4290 C4302 0.950 . S
H4291 C4303 0.950 . S
C4292 H4284 0.950 . S
C4292 C4293 1.386 . S
C4292 C4294 1.391 . S
C4293 C4292 1.386 . S
C4293 C4297 1.393 . S
C4294 H4286 0.950 . S
C4294 C4292 1.391 . S
C4294 C4295 1.400 . S
C4295 C4294 1.400 . S
C4295 C4296 1.398 . S
C4295 C4301 1.491 . S
C4296 H4287 0.950 . S
C4296 C4295 1.398 . S
C4296 C4297 1.391 . S
C4297 H4285 0.950 . S
C4297 C4293 1.393 . S
C4297 C4296 1.391 . S
C4298 H4288 0.950 . S
C4298 C4299 1.386 . S
C4298 C4300 1.391 . S
C4299 C4298 1.386 . S
C4299 C4303 1.393 . S
C4300 H4289 0.950 . S
C4300 C4298 1.391 . S
C4300 C4301 1.400 . S
C4301 C4295 1.491 . S
C4301 C4300 1.400 . S
C4301 C4302 1.398 . S
C4302 H4290 0.950 . S
C4302 C4301 1.398 . S
C4302 C4303 1.391 . S
C4303 H4291 0.950 . S
C4303 C4299 1.393 . S
C4303 C4302 1.391 . S
C2399 C1281 1.549 . S
C2393 C21 1.538 . S
C2419 C1348 1.433 . S
C2413 C42 1.413 . S
C2433 C82 1.514 . S
C2439 C1373 1.528 . S
C2459 C1433 1.492 . S
C2453 C135 1.494 . S
C2473 C175 1.421 . S
C2479 C1426 1.421 . S
C2493 C221 1.541 . S
C2499 C1302 1.545 . S
C2513 C255 1.483 . S
C2519 C1327 1.480 . S
C2539 C1394 1.563 . S
C2533 C301 1.544 . S
C2559 C1486 1.518 . S
C2553 C15 1.519 . S
C2573 C55 1.431 . S
C2579 C1525 1.428 . S
C2593 C101 1.544 . S
C2599 C1578 1.554 . S
C2619 C1603 1.503 . S
C2613 C141 1.485 . S
C2633 C162 1.446 . S
C2639 C1663 1.451 . S
C2659 C1716 1.515 . S
C2653 C215 1.517 . S
C2673 C261 1.485 . S
C2679 C1755 1.507 . S
C2699 C1794 1.523 . S
C2693 C282 1.514 . S
C2713 C2 1.522 . S
C2719 C1624 1.531 . S
C2733 C181 1.430 . S
C2739 C1695 1.437 . S
C2759 C1748 1.545 . S
C2753 C202 1.532 . S
C2773 C242 1.497 . S
C2779 C1801 1.506 . S
C2799 C1656 1.510 . S
C2793 C295 1.513 . S
C2819 C1518 1.523 . S
C2813 C95 1.522 . S
C2833 C122 1.490 . S
C2839 C1557 1.496 . S
C2859 C1465 1.444 . S
C2853 C61 1.441 . S
C2879 C1833 1.548 . S
C2873 C341 1.537 . S
C2893 C362 1.417 . S
C2899 C1879 1.430 . S
C2913 C402 1.526 . S
C2919 C1946 1.530 . S
C2939 C1992 1.494 . S
C2933 C455 1.493 . S
C2953 C495 1.420 . S
C2959 C1971 1.416 . S
C2973 C541 1.541 . S
C2979 C1854 1.545 . S
C2993 C575 1.480 . S
C2999 C1900 1.482 . S
C3013 C621 1.547 . S
C3019 C1925 1.564 . S
C3039 C1670 1.517 . S
C3033 C335 1.519 . S
C3053 C375 1.432 . S
C3059 C2031 1.429 . S
C3079 C1762 1.552 . S
C3073 C421 1.545 . S
C3093 C461 1.483 . S
C3099 C2063 1.502 . S
C3113 C482 1.438 . S
C3119 C1479 1.454 . S
C3139 C2130 1.516 . S
C3133 C535 1.517 . S
C3153 C581 1.486 . S
C3159 C1571 1.505 . S
C3179 C2162 1.526 . S
C3173 C602 1.502 . S
C3193 C322 1.516 . S
C3199 C2084 1.532 . S
C3219 C2109 1.435 . S
C3213 C501 1.424 . S
C3233 C522 1.541 . S
C3239 C1564 1.547 . S
C3259 C2169 1.506 . S
C3253 C562 1.491 . S
C3273 C615 1.511 . S
C3279 C1472 1.513 . S
C3293 C415 1.523 . S
C3299 C2024 1.520 . S
C3313 C442 1.480 . S
C3319 C1741 1.499 . S
C3333 C381 1.434 . S
C3339 C1649 1.446 . S
C3353 C661 1.545 . S
C3359 C1939 1.551 . S
C3379 C1985 1.433 . S
C3373 C682 1.419 . S
C3393 C722 1.523 . S
C3399 C1840 1.531 . S
C3413 C775 1.493 . S
C3419 C1886 1.493 . S
C3433 C815 1.421 . S
C3439 C1893 1.419 . S
C3453 C861 1.535 . S
C3459 C1932 1.544 . S
C3479 C1978 1.483 . S
C3473 C895 1.480 . S
C3493 C941 1.554 . S
C3499 C1847 1.562 . S
C3519 C2201 1.517 . S
C3513 C655 1.519 . S
C3533 C695 1.430 . S
C3539 C1709 1.432 . S
C3559 C2247 1.554 . S
C3553 C741 1.550 . S
C3573 C781 1.483 . S
C3579 C1787 1.503 . S
C3593 C802 1.437 . S
C3599 C2314 1.454 . S
C3613 C855 1.517 . S
C3619 C1532 1.515 . S
C3639 C2346 1.504 . S
C3633 C901 1.491 . S
C3653 C922 1.510 . S
C3659 C1610 1.524 . S
C3679 C1808 1.532 . S
C3673 C642 1.525 . S
C3699 C1511 1.434 . S
C3693 C821 1.426 . S
C3713 C842 1.540 . S
C3719 C2353 1.544 . S
C3733 C882 1.498 . S
C3739 C1617 1.509 . S
C3759 C2293 1.511 . S
C3753 C935 1.511 . S
C3779 C1702 1.521 . S
C3773 C735 1.523 . S
C3799 C2268 1.497 . S
C3793 C762 1.490 . S
C3819 C2222 1.446 . S
C3813 C701 1.437 . S
C3833 C981 1.543 . S
C3839 C1380 1.551 . S
C3853 C1002 1.422 . S
C3859 C1440 1.430 . S
C3879 C1288 1.531 . S
C3873 C1042 1.525 . S
C3899 C1341 1.493 . S
C3893 C1095 1.492 . S
C3919 C1334 1.421 . S
C3913 C1135 1.421 . S
C3939 C1387 1.542 . S
C3933 C1181 1.535 . S
C3959 C1419 1.480 . S
C3953 C1215 1.483 . S
C3973 C1261 1.548 . S
C3979 C1295 1.562 . S
C3993 C975 1.518 . S
C3999 C2307 1.517 . S
C4019 C2123 1.431 . S
C4013 C1015 1.430 . S
C4039 C2339 1.555 . S
C4033 C1061 1.549 . S
C4059 C2155 1.504 . S
C4053 C1101 1.482 . S
C4073 C1122 1.446 . S
C4079 C2208 1.454 . S
C4099 C2038 1.515 . S
C4093 C1175 1.518 . S
C4119 C2254 1.504 . S
C4113 C1221 1.498 . S
C4133 C1242 1.513 . S
C4139 C2070 1.524 . S
C4159 C2176 1.530 . S
C4153 C962 1.518 . S
C4179 C2017 1.435 . S
C4173 C1141 1.426 . S
C4199 C2261 1.545 . S
C4193 C1162 1.542 . S
C4213 C1202 1.498 . S
C4219 C2077 1.507 . S
C4233 C1255 1.512 . S
C4239 C2215 1.513 . S
C4253 C1055 1.522 . S
C4259 C2116 1.523 . S
C4273 C1082 1.485 . S
C4279 C2360 1.499 . S
C4299 C2300 1.446 . S
C4293 C1021 1.435 . S
