# Generated by pormake.
# Topology zzz, (3,6)-cn, num edge types: 1
# Building blocks:
#     Node 0, Type 0, BuildingBlock: ESEHIV_clean_linker_0, # of connection points: 3
#     Node 1, Type 0, BuildingBlock: ESEHIV_clean_linker_0, # of connection points: 3
#     Node 2, Type 0, BuildingBlock: ESEHIV_clean_linker_0, # of connection points: 3
#     Node 3, Type 0, BuildingBlock: ESEHIV_clean_linker_0, # of connection points: 3
#     Node 4, Type 0, BuildingBlock: ESEHIV_clean_linker_0, # of connection points: 3
#     Node 5, Type 0, BuildingBlock: ESEHIV_clean_linker_0, # of connection points: 3
#     Node 6, Type 0, BuildingBlock: ESEHIV_clean_linker_0, # of connection points: 3
#     Node 7, Type 0, BuildingBlock: ESEHIV_clean_linker_0, # of connection points: 3
#     Node 8, Type 1, BuildingBlock: CUKXOW_clean_sbu_0, # of connection points: 6
#     Node 9, Type 1, BuildingBlock: CUKXOW_clean_sbu_0, # of connection points: 6
#     Node 10, Type 1, BuildingBlock: CUKXOW_clean_sbu_0, # of connection points: 6
#     Node 11, Type 1, BuildingBlock: CUKXOW_clean_sbu_0, # of connection points: 6
#     Edge 12, Type (0, 1), BuildingBlock: AJUNOK_clean_linker_0, # of connection points: 2
#     Edge 13, Type (0, 1), BuildingBlock: AJUNOK_clean_linker_0, # of connection points: 2
#     Edge 14, Type (0, 1), BuildingBlock: AJUNOK_clean_linker_0, # of connection points: 2
#     Edge 15, Type (0, 1), BuildingBlock: AJUNOK_clean_linker_0, # of connection points: 2
#     Edge 16, Type (0, 1), BuildingBlock: AJUNOK_clean_linker_0, # of connection points: 2
#     Edge 17, Type (0, 1), BuildingBlock: AJUNOK_clean_linker_0, # of connection points: 2
#     Edge 18, Type (0, 1), BuildingBlock: AJUNOK_clean_linker_0, # of connection points: 2
#     Edge 19, Type (0, 1), BuildingBlock: AJUNOK_clean_linker_0, # of connection points: 2
#     Edge 20, Type (0, 1), BuildingBlock: AJUNOK_clean_linker_0, # of connection points: 2
#     Edge 21, Type (0, 1), BuildingBlock: AJUNOK_clean_linker_0, # of connection points: 2
#     Edge 22, Type (0, 1), BuildingBlock: AJUNOK_clean_linker_0, # of connection points: 2
#     Edge 23, Type (0, 1), BuildingBlock: AJUNOK_clean_linker_0, # of connection points: 2
#     Edge 24, Type (0, 1), BuildingBlock: AJUNOK_clean_linker_0, # of connection points: 2
#     Edge 25, Type (0, 1), BuildingBlock: AJUNOK_clean_linker_0, # of connection points: 2
#     Edge 26, Type (0, 1), BuildingBlock: AJUNOK_clean_linker_0, # of connection points: 2
#     Edge 27, Type (0, 1), BuildingBlock: AJUNOK_clean_linker_0, # of connection points: 2
#     Edge 28, Type (0, 1), BuildingBlock: AJUNOK_clean_linker_0, # of connection points: 2
#     Edge 29, Type (0, 1), BuildingBlock: AJUNOK_clean_linker_0, # of connection points: 2
#     Edge 30, Type (0, 1), BuildingBlock: AJUNOK_clean_linker_0, # of connection points: 2
#     Edge 31, Type (0, 1), BuildingBlock: AJUNOK_clean_linker_0, # of connection points: 2
#     Edge 32, Type (0, 1), BuildingBlock: AJUNOK_clean_linker_0, # of connection points: 2
#     Edge 33, Type (0, 1), BuildingBlock: AJUNOK_clean_linker_0, # of connection points: 2
#     Edge 34, Type (0, 1), BuildingBlock: AJUNOK_clean_linker_0, # of connection points: 2
#     Edge 35, Type (0, 1), BuildingBlock: AJUNOK_clean_linker_0, # of connection points: 2
# Relax obj value: 0.204
# Max RMSD: 0.229
# Mean RMSD: 0.181
data_MOF--net-zzz--node1-CUKXOW_clean_sbu_0--node2-ESEHIV_clean_linker_0--edge1-AJUNOK_clean_linker_0
_symmetry_space_group_name_H-M    P1
_symmetry_Int_Tables_number       1
_symmetry_cell_setting            triclinic
loop_
_symmetry_equiv_pos_as_xyz
'x, y, z'
_cell_length_a     31.374693
_cell_length_b     32.406058
_cell_length_c     11.944416
_cell_angle_alpha  93.175599
_cell_angle_beta   86.487654
_cell_angle_gamma 95.971066
loop_
_atom_site_label
_atom_site_type_symbol
_atom_site_fract_x
_atom_site_fract_y
_atom_site_fract_z
_atom_type_partial_charge
H0 H 0.8414 0.45404 0.20393 0.0
H1 H 0.75625 0.44284 0.93476 0.0
H2 H 0.71414 0.49166 0.26173 0.0
C3 C 0.80939 0.45522 0.17502 0.0
C4 C 0.7784 0.47242 0.247 0.0
C5 C 0.80216 0.44579 0.06221 0.0
C6 C 0.76158 0.44923 0.02319 0.0
C7 C 0.72906 0.46442 0.09552 0.0
C8 C 0.73795 0.47735 0.20736 0.0
H9 H 0.04669 0.84641 0.2154 0.0
H10 H 0.06434 0.76559 0.92401 0.0
H11 H 1.00974 0.71557 0.2342 0.0
C12 C 0.04677 0.81513 0.17773 0.0
C13 C 0.02844 0.78144 0.23864 0.0
C14 C 0.05933 0.80964 0.0643 0.0
C15 C 0.05624 0.76965 0.01325 0.0
C16 C 0.03954 0.73535 0.07495 0.0
C17 C 0.0253 0.74139 0.18803 0.0
H18 H 0.67393 0.04569 0.2685 0.0
H19 H 0.75975 0.03067 0.97947 0.0
H20 H 0.79979 0.0102 0.30993 0.0
C21 C 0.70442 0.03729 0.23136 0.0
C22 C 0.73461 0.02576 0.30157 0.0
C23 C 0.71163 0.03614 0.11512 0.0
C24 C 0.75299 0.03019 0.0695 0.0
C25 C 0.78567 0.0226 0.13946 0.0
C26 C 0.77574 0.01821 0.25585 0.0
H27 H 0.55071 0.64658 0.27167 0.0
H28 H 0.59036 0.77715 0.28286 0.0
H29 H 0.54047 0.7166 0.98066 0.0
C30 C 0.55545 0.67553 0.22897 0.0
C31 C 0.5437 0.6766 0.11806 0.0
C32 C 0.57313 0.7113 0.28709 0.0
C33 C 0.57718 0.7495 0.23668 0.0
C34 C 0.56404 0.75178 0.12671 0.0
C35 C 0.54878 0.71501 0.0668 0.0
H36 H 0.19187 0.55073 0.2106 0.0
H37 H 0.27389 0.55427 0.48511 0.0
H38 H 0.31821 0.51082 0.15489 0.0
C39 C 0.22347 0.54844 0.24088 0.0
C40 C 0.25468 0.53165 0.1686 0.0
C41 C 0.22961 0.55533 0.35517 0.0
C42 C 0.26948 0.54992 0.39569 0.0
C43 C 0.30223 0.53519 0.32338 0.0
C44 C 0.29453 0.52529 0.20932 0.0
H45 H 0.03665 0.1496 0.27244 0.0
H46 H 0.96761 0.23397 0.48705 0.0
H47 H 0.06223 0.28054 0.23636 0.0
C48 C 0.02962 0.18082 0.2985 0.0
C49 C 0.0517 0.21405 0.24218 0.0
C50 C 0.99882 0.18692 0.38644 0.0
C51 C 0.99101 0.22792 0.41948 0.0
C52 C 0.0148 0.2617 0.36784 0.0
C53 C 0.04445 0.25459 0.27761 0.0
H54 H 0.37545 0.04249 0.28532 0.0
H55 H 0.27361 0.97872 0.48818 0.0
H56 H 0.24831 0.02217 0.16963 0.0
C57 C 0.34215 0.0306 0.3008 0.0
C58 C 0.31455 0.03133 0.21413 0.0
C59 C 0.32966 0.00746 0.39488 0.0
C60 C 0.28535 0.99562 0.41549 0.0
C61 C 0.25518 0.00541 0.3407 0.0
C62 C 0.27036 0.02021 0.23504 0.0
H63 H 0.47951 0.34497 0.12219 0.0
H64 H 0.45144 0.21282 0.1238 0.0
H65 H 0.48409 0.28286 0.42901 0.0
C66 C 0.47435 0.31734 0.17015 0.0
C67 C 0.48276 0.31939 0.28415 0.0
C68 C 0.46017 0.27959 0.11448 0.0
C69 C 0.4592 0.24227 0.16916 0.0
C70 C 0.47029 0.24355 0.28178 0.0
C71 C 0.47866 0.28218 0.34016 0.0
Tb72 Tb 0.99418 0.96419 0.67107 0.0
C73 C 0.08753 0.00136 0.57333 0.0
Tb74 Tb 0.04224 0.0392 0.78946 0.0
O75 O 0.95083 0.00044 0.59186 0.0
O76 O 1.01169 0.02692 0.6358 0.0
O77 O 0.05775 0.96896 0.57763 0.0
C78 C 0.07686 0.1113 0.88132 0.0
O79 O 0.08467 0.03526 0.63945 0.0
C80 C 0.05447 0.96506 0.85499 0.0
C81 C 0.94674 0.00807 0.87863 0.0
O82 O 0.08649 0.07465 0.90144 0.0
O83 O 0.04636 0.10726 0.81157 0.0
O84 O 0.08398 0.99612 0.85495 0.0
O85 O 0.02056 0.97748 0.82666 0.0
O86 O 0.97767 0.03964 0.87414 0.0
O87 O 0.94923 0.97283 0.81651 0.0
C88 C 0.9814 0.8851 0.59506 0.0
O89 O 0.95593 0.9135 0.58224 0.0
O90 O 1.01356 0.90157 0.65059 0.0
C91 C 0.9754 0.03491 0.60732 0.0
Tb92 Tb 0.51552 0.04813 0.67972 0.0
C93 C 0.59937 0.00548 0.62017 0.0
Tb94 Tb 0.52678 0.96738 0.79462 0.0
O95 O 0.5718 0.08079 0.75703 0.0
O96 O 0.53566 0.03184 0.83562 0.0
O97 O 0.57143 0.0288 0.58273 0.0
C98 C 0.54839 0.90383 0.90484 0.0
O99 O 0.59025 0.98166 0.7075 0.0
C100 C 0.47099 0.96049 0.63871 0.0
C101 C 0.44892 0.01873 0.87709 0.0
O102 O 0.55033 0.90599 0.79643 0.0
O103 O 0.53471 0.93754 0.95037 0.0
O104 O 0.46869 0.93659 0.72258 0.0
O105 O 0.5059 0.98355 0.63966 0.0
O106 O 0.47406 0.99008 0.90136 0.0
O107 O 0.45726 0.04279 0.79026 0.0
C108 C 0.4928 0.10597 0.55214 0.0
O109 O 0.51212 0.11276 0.64518 0.0
O110 O 0.48526 0.06625 0.53108 0.0
C111 C 0.56939 0.05649 0.84044 0.0
Tb112 Tb 0.53949 0.53747 0.66537 0.0
C113 C 0.44948 0.5076 0.57022 0.0
Tb114 Tb 0.49155 0.4555 0.74568 0.0
O115 O 0.54689 0.50991 0.49444 0.0
O116 O 0.54369 0.47336 0.63298 0.0
O117 O 0.47846 0.53976 0.5894 0.0
C118 C 0.45842 0.37673 0.76957 0.0
O119 O 0.45056 0.47094 0.6148 0.0
C120 C 0.48516 0.5218 0.88007 0.0
C121 C 0.58095 0.48551 0.84279 0.0
O122 O 0.4407 0.40964 0.80766 0.0
O123 O 0.49444 0.38867 0.71612 0.0
O124 O 0.48444 0.48458 0.91592 0.0
O125 O 0.48669 0.5195 0.77494 0.0
O126 O 0.55246 0.45333 0.82082 0.0
O127 O 0.57935 0.52242 0.80006 0.0
C128 C 0.57489 0.61526 0.63924 0.0
O129 O 0.5921 0.58162 0.60546 0.0
O130 O 0.53794 0.60462 0.69017 0.0
C131 C 0.54472 0.47221 0.52747 0.0
Tb132 Tb 0.98034 0.51434 0.64132 0.0
C133 C 1.01289 0.4237 0.59518 0.0
Tb134 Tb 0.0518 0.48578 0.78131 0.0
O135 O 0.02799 0.55278 0.53833 0.0
O136 O 0.04441 0.50118 0.61519 0.0
O137 O 0.98287 0.44896 0.58184 0.0
C138 C 0.13059 0.48788 0.85736 0.0
O139 O 0.046 0.43413 0.65865 0.0
C140 C 0.9724 0.46754 0.85787 0.0
C141 C 0.01988 0.57597 0.83055 0.0
O142 O 0.09891 0.45962 0.87906 0.0
O143 O 0.11742 0.51472 0.79448 0.0
O144 O 1.00384 0.44709 0.88332 0.0
O145 O 0.98778 0.4989 0.80689 0.0
O146 O 0.04923 0.55013 0.84298 0.0
O147 O 0.98712 0.56677 0.7646 0.0
C148 C 0.90242 0.51445 0.56055 0.0
O149 O 0.93485 0.54217 0.54224 0.0
O150 O 0.91425 0.48677 0.62314 0.0
C151 C 0.05953 0.53251 0.56359 0.0
C152 C 0.18897 0.96519 0.42632 0.0
C153 C 0.20856 0.00149 0.37697 0.0
C154 C 0.14816 0.9643 0.4829 0.0
C155 C 0.12591 -4e-05 0.49434 0.0
H156 H 0.2061 0.93781 0.42525 0.0
H157 H 0.13524 0.93635 0.52399 0.0
S158 S 0.16075 0.10128 0.37038 0.0
N159 N 0.20051 0.07267 0.33484 0.0
N160 N 0.12452 0.07122 0.44258 0.0
C161 C 0.14398 0.03558 0.4399 0.0
C162 C 0.18506 0.03626 0.38069 0.0
C163 C 0.4463 0.17124 0.34437 0.0
C164 C 0.47766 0.20557 0.33828 0.0
C165 C 0.45168 0.13784 0.41106 0.0
C166 C 0.48816 0.13849 0.47424 0.0
H167 H 0.41694 0.17093 0.30097 0.0
H168 H 0.42654 0.11233 0.41678 0.0
S169 S 0.58266 0.21727 0.47021 0.0
N170 N 0.54915 0.23476 0.38729 0.0
N171 N 0.55811 0.17336 0.51584 0.0
C172 C 0.5206 0.17139 0.46348 0.0
C173 C 0.51566 0.20459 0.39438 0.0
C174 C 0.33857 0.4954 0.45531 0.0
C175 C 0.34174 0.52519 0.37319 0.0
C176 C 0.37394 0.48913 0.51612 0.0
C177 C 0.41361 0.51306 0.4988 0.0
H178 H 0.30812 0.4775 0.47454 0.0
H179 H 0.36966 0.46636 0.57998 0.0
S180 S 0.43935 0.59274 0.28617 0.0
N181 N 0.3881 0.57683 0.27176 0.0
N182 N 0.45469 0.56587 0.38752 0.0
C183 C 0.41753 0.54214 0.41422 0.0
C184 C 0.38159 0.54792 0.35083 0.0
C185 C 0.05098 0.32653 0.45168 0.0
C186 C 1.01289 0.3042 0.4172 0.0
C187 C 0.05049 0.3654 0.50758 0.0
C188 C 1.0119 0.3836 0.53043 0.0
H189 H 0.08133 0.31331 0.43819 0.0
H190 H 0.08072 0.38112 0.5337 0.0
S191 S 0.90363 0.33852 0.45161 0.0
N192 N 0.93577 0.30326 0.40524 0.0
N193 N 0.93469 0.37697 0.51045 0.0
C194 C 0.97363 0.36213 0.49341 0.0
C195 C 0.97414 0.32217 0.4371 0.0
C196 C 0.85133 0.05357 0.03279 0.0
C197 C 0.82962 0.01943 0.08757 0.0
C198 C 0.8902 0.05012 0.96951 0.0
C199 C 0.90824 0.01207 0.95607 0.0
H200 H 0.83756 0.08296 0.03678 0.0
H201 H 0.90521 0.07698 0.92686 0.0
S202 S 0.8655 0.91415 0.08872 0.0
N203 N 0.8303 0.94719 0.13001 0.0
N204 N 0.90272 0.94025 0.00915 0.0
C205 C 0.88748 0.97805 0.0133 0.0
C206 C 0.84836 0.98184 0.07961 0.0
C207 C 0.57904 0.79739 0.96288 0.0
C208 C 0.56401 0.7925 0.07539 0.0
C209 C 0.57495 0.83402 0.90905 0.0
C210 C 0.55593 0.86716 0.96598 0.0
H211 H 0.59344 0.77243 0.91542 0.0
H212 H 0.58609 0.83609 0.82169 0.0
S213 S 0.51141 0.87024 0.26109 0.0
N214 N 0.52923 0.82408 0.24163 0.0
N215 N 0.5224 0.89311 0.14118 0.0
C216 C 0.54186 0.86321 0.07925 0.0
C217 C 0.54573 0.82584 0.13384 0.0
C218 C 0.6774 0.5094 0.0243 0.0
C219 C 0.68757 0.46969 0.04796 0.0
C220 C 0.6424 0.51433 0.95977 0.0
C221 C 0.61623 0.4797 0.91692 0.0
H222 H 0.69774 0.53671 0.05171 0.0
H223 H 0.63636 0.54552 0.94171 0.0
S224 S 0.6284 0.36901 0.9634 0.0
N225 N 0.66813 0.3954 0.02912 0.0
N226 N 0.60217 0.40411 0.9096 0.0
C227 C 0.62529 0.43982 0.94459 0.0
C228 C 0.66104 0.43497 0.00943 0.0
C229 C 1.01029 0.68862 0.91911 0.0
C230 C 0.03309 0.69395 0.01751 0.0
C231 C 1.0051 0.64998 0.86061 0.0
C232 C 0.02304 0.61558 0.89788 0.0
H233 H 0.99649 0.71458 0.88698 0.0
H234 H 0.98788 0.64735 0.78422 0.0
S235 S 0.08387 0.61331 0.15476 0.0
N236 N 0.07231 0.6618 0.15235 0.0
N237 N 0.06282 0.58897 0.0429 0.0
C238 C 0.04513 0.6204 -0.00212 0.0
C239 C 0.05003 0.65966 0.05774 0.0
C240 C 0.97219 0.1112 0.38436 0.0
C241 C 0.97871 0.14969 0.44589 0.0
C242 C 0.96845 0.07359 0.43777 0.0
C243 C 0.96902 0.07329 0.55464 0.0
H244 H 0.97327 0.10989 0.29343 0.0
H245 H 0.96775 0.04477 0.38702 0.0
S246 S 0.96382 0.1633 0.75643 0.0
N247 N 0.97263 0.184 0.63281 0.0
N248 N 0.96183 0.11259 0.73158 0.0
C249 C 0.96769 0.11072 0.61795 0.0
C250 C 0.97295 0.14926 0.56397 0.0
C251 C 0.40471 0.98705 0.4058 0.0
C252 C 0.36418 0.99297 0.46062 0.0
C253 C 0.43904 0.9767 0.46404 0.0
C254 C 0.43366 0.96861 0.57774 0.0
H255 H 0.41059 0.99035 0.31642 0.0
H256 H 0.46989 0.97444 0.41926 0.0
S257 S 0.33355 0.97138 0.75862 0.0
N258 N 0.3213 0.98756 0.63739 0.0
N259 N 0.38389 0.96073 0.74063 0.0
C260 C 0.39279 0.97026 0.63195 0.0
C261 C 0.3585 0.98399 0.57495 0.0
C262 C 0.52923 0.35973 0.42519 0.0
C263 C 0.49871 0.3595 0.34293 0.0
C264 C 0.54453 0.39651 0.48299 0.0
C265 C 0.53137 0.43477 0.45783 0.0
H266 H 0.54171 0.33131 0.44556 0.0
H267 H 0.56691 0.39499 0.54789 0.0
S268 S 0.45343 0.45272 0.24909 0.0
N269 N 0.45493 0.4019 0.24328 0.0
N270 N 0.4881 0.47128 0.34228 0.0
C271 C 0.50257 0.43568 0.37286 0.0
C272 C 0.48514 0.39801 0.31783 0.0
C273 C 0.1614 0.5845 0.42325 0.0
C274 C 0.19077 0.55496 0.43125 0.0
C275 C 0.11924 0.57777 0.47 0.0
C276 C 0.10497 0.54089 0.52371 0.0
H277 H 0.1705 0.6119 0.37584 0.0
H278 H 0.09727 0.60083 0.46015 0.0
S279 S 0.16958 0.4534 0.56247 0.0
N280 N 0.20313 0.48806 0.49779 0.0
N281 N 0.12376 0.47429 0.57983 0.0
C282 C 0.13447 0.51158 0.53368 0.0
C283 C 0.17747 0.51897 0.48913 0.0
C284 C 0.0975 0.87523 -0.01057 0.0
C285 C 0.06123 0.84598 -0.00462 0.0
C286 C 0.09568 0.91344 0.94027 0.0
C287 C 0.05719 0.92372 0.89922 0.0
H288 H 0.12689 0.86898 0.02548 0.0
H289 H 0.1241 0.93549 0.93766 0.0
S290 S 0.95303 0.85722 0.902 0.0
N291 N 0.98641 0.82901 0.95708 0.0
N292 N 0.98171 0.90124 0.87238 0.0
C293 C 0.02082 0.89431 0.90581 0.0
C294 C 0.02319 0.85528 0.95197 0.0
C295 C 0.68106 0.06457 0.949 0.0
C296 C 0.67511 0.04042 0.044 0.0
C297 C 0.64639 0.07066 0.88522 0.0
C298 C 0.60461 0.05293 0.91421 0.0
H299 H 0.71252 0.07947 0.92467 0.0
H300 H 0.65249 0.08935 0.8127 0.0
S301 S 0.57068 0.99072 0.16084 0.0
N302 N 0.62336 -0.00139 0.16343 0.0
N303 N 0.55825 0.01467 0.05076 0.0
C304 C 0.59784 0.03023 0.01103 0.0
C305 C 0.63309 0.02266 0.07376 0.0
C306 C 0.54413 0.59974 0.07643 0.0
C307 C 0.52687 0.63719 0.05766 0.0
C308 C 0.52877 0.562 0.02345 0.0
C309 C 0.49679 0.56046 0.94611 0.0
H310 H 0.57034 0.59949 0.13122 0.0
H311 H 0.5433 0.53419 0.03971 0.0
S312 S 0.43846 0.64765 0.87092 0.0
N313 N 0.47278 0.66876 0.96231 0.0
N314 N 0.44692 0.59817 0.85526 0.0
C315 C 0.47896 0.59709 0.9263 0.0
C316 C 0.49338 0.63539 0.98341 0.0
C317 C 0.86948 0.41545 -0.00716 0.0
C318 C 0.84045 0.44528 0.98459 0.0
C319 C 0.91188 0.42204 0.94756 0.0
C320 C 0.9267 0.4591 0.89536 0.0
H321 H 0.85999 0.38804 0.03993 0.0
H322 H 0.93362 0.39881 0.95774 0.0
S323 S 0.86291 0.54714 0.85585 0.0
N324 N 0.82881 0.5124 0.9186 0.0
N325 N 0.90864 0.52604 0.83965 0.0
C326 C 0.89746 0.4886 0.88461 0.0
C327 C 0.85421 0.4813 0.92745 0.0
C328 C 0.1053 0.1721 0.14347 0.0
C329 C 0.07855 0.20422 0.14009 0.0
C330 C 0.10997 0.14427 0.05097 0.0
C331 C 0.08894 0.14877 0.95247 0.0
H332 H 0.11686 0.16455 0.22276 0.0
H333 H 0.1255 0.11654 0.06199 0.0
S334 S 0.03582 0.24037 0.88474 0.0
N335 N 0.04462 0.24763 0.01967 0.0
N336 N 0.0557 0.19642 0.84299 0.0
C337 C 0.07129 0.18619 0.94014 0.0
C338 C 0.0658 0.21409 0.0351 0.0
C339 C 0.34962 0.99069 0.06441 0.0
C340 C 0.33614 0.02953 0.10097 0.0
C341 C 0.38631 0.98772 -0.00696 0.0
C342 C 0.40939 0.02324 0.94907 0.0
H343 H 0.33442 0.96262 0.10114 0.0
H344 H 0.39695 0.95727 0.97306 0.0
S345 S 0.38586 0.13214 0.01263 0.0
N346 N 0.34844 0.10425 0.08736 0.0
N347 N 0.4149 0.09849 0.94253 0.0
C348 C 0.39441 0.06212 0.9779 0.0
C349 C 0.35819 0.06528 0.05566 0.0
C350 C 0.4123 0.30262 0.98159 0.0
C351 C 0.44842 0.28178 -0.00238 0.0
C352 C 0.41264 0.32961 0.89389 0.0
C353 C 0.44889 0.33587 0.8194 0.0
H354 H 0.38673 0.30323 0.04678 0.0
H355 H 0.3869 0.34945 0.89357 0.0
S356 S 0.54415 0.27657 0.80272 0.0
N357 N 0.51585 0.26053 0.91621 0.0
N358 N 0.51601 0.31004 0.74808 0.0
C359 C 0.48109 0.3088 0.82145 0.0
C360 C 0.48093 0.28178 0.9118 0.0
C361 C 0.21457 0.47477 0.06236 0.0
C362 C 0.23958 0.51344 0.06035 0.0
C363 C 0.18119 0.46491 -0.01059 0.0
C364 C 0.17218 0.49324 0.91132 0.0
H365 H 0.21739 0.45424 0.12957 0.0
H366 H 0.16025 0.43651 0.00062 0.0
S367 S 0.23483 0.59436 0.85614 0.0
N368 N 0.25754 0.57711 0.96319 0.0
N369 N 0.1961 0.55812 0.82246 0.0
C370 C 0.20061 0.52951 0.89876 0.0
C371 C 0.23415 0.53971 0.97416 0.0
C372 C 0.03049 0.79658 0.44307 0.0
C373 C 1.00643 0.79098 0.34746 0.0
C374 C 0.01841 0.82335 0.53272 0.0
C375 C 0.98256 0.84584 0.52739 0.0
H376 H 0.06112 0.78392 0.44329 0.0
H377 H 0.03997 0.8299 0.60042 0.0
S378 S 0.90429 0.83424 0.30512 0.0
N379 N 0.94133 0.80353 0.26077 0.0
N380 N 0.9188 0.8545 0.42869 0.0
C381 C 0.95515 0.83596 0.43919 0.0
C382 C 0.96721 0.80832 0.34875 0.0
C383 C 0.69941 0.97987 0.446 0.0
C384 C 0.71859 0.01973 0.4195 0.0
C385 C 0.66256 0.97486 0.51973 0.0
C386 C 0.64345 0.00964 0.56698 0.0
H387 H 0.70963 0.95271 0.39904 0.0
H388 H 0.64669 0.94393 0.53086 0.0
S389 S 0.68592 0.12003 0.54046 0.0
N390 N 0.72023 0.09378 0.46267 0.0
N391 N 0.64976 0.08479 0.59415 0.0
C392 C 0.66507 0.04924 0.55071 0.0
C393 C 0.70336 0.05413 0.48001 0.0
C394 C 0.62056 0.68359 0.41426 0.0
C395 C 0.58581 0.70669 0.40189 0.0
C396 C 0.62067 0.65816 0.50515 0.0
C397 C 0.58582 0.65508 0.58511 0.0
H398 H 0.64458 0.68068 0.34587 0.0
H399 H 0.64516 0.63689 0.50417 0.0
S400 S 0.49492 0.72005 0.60832 0.0
N401 N 0.52165 0.73296 0.48976 0.0
N402 N 0.52205 0.68565 0.66243 0.0
C403 C 0.55528 0.68388 0.58441 0.0
C404 C 0.55515 0.70964 0.49155 0.0
C405 C 0.80052 0.46366 0.43854 0.0
C406 C 0.79368 0.49076 0.35504 0.0
C407 C 0.83363 0.47343 0.51241 0.0
C408 C 0.86137 0.51035 0.50391 0.0
H409 H 0.78334 0.43287 0.43873 0.0
H410 H 0.83981 0.45025 0.56971 0.0
S411 S 0.85184 0.59462 0.31224 0.0
N412 N 0.81308 0.55839 0.27871 0.0
N413 N 0.87556 0.57676 0.41672 0.0
C414 C 0.85178 0.53963 0.42921 0.0
C415 C 0.81771 0.52986 0.35514 0.0
loop_
_geom_bond_atom_site_label_1
_geom_bond_atom_site_label_2
_geom_bond_distance
_geom_bond_site_symmetry_2
_ccdc_geom_bond_type
H0 C3 0.931 . S
H1 C6 0.928 . S
H2 C8 0.930 . S
C3 H0 0.931 . S
C3 C4 1.413 . S
C3 C5 1.360 1_554 S
C4 C3 1.413 . S
C4 C8 1.429 . S
C5 C3 1.360 1_556 S
C5 C6 1.372 . S
C6 H1 0.928 . S
C6 C5 1.372 . S
C6 C7 1.404 1_556 S
C7 C6 1.404 1_554 S
C7 C8 1.391 . S
C8 H2 0.930 . S
C8 C4 1.429 . S
C8 C7 1.391 . S
H9 C12 0.931 . S
H10 C15 0.928 . S
H11 C17 0.930 . S
C12 H9 0.931 . S
C12 C13 1.413 . S
C12 C14 1.360 1_554 S
C13 C12 1.413 . S
C13 C17 1.429 . S
C14 C12 1.360 1_556 S
C14 C15 1.372 . S
C15 H10 0.928 . S
C15 C14 1.372 . S
C15 C16 1.404 . S
C16 C15 1.404 . S
C16 C17 1.391 1_556 S
C17 H11 0.930 . S
C17 C13 1.429 . S
C17 C16 1.391 1_554 S
H18 C21 0.931 . S
H19 C24 0.928 1_556 S
H20 C26 0.930 . S
C21 H18 0.931 . S
C21 C22 1.414 . S
C21 C23 1.360 . S
C22 C21 1.414 . S
C22 C26 1.430 1_565 S
C23 C21 1.360 . S
C23 C24 1.374 . S
C24 H19 0.928 1_554 S
C24 C23 1.374 . S
C24 C25 1.403 . S
C25 C24 1.403 . S
C25 C26 1.391 1_565 S
C26 H20 0.930 . S
C26 C22 1.430 1_545 S
C26 C25 1.391 1_545 S
H27 C30 0.931 . S
H28 C33 0.928 . S
H29 C35 0.930 . S
C30 H27 0.931 . S
C30 C31 1.413 1_554 S
C30 C32 1.360 . S
C31 C30 1.413 1_556 S
C31 C35 1.429 . S
C32 C30 1.360 . S
C32 C33 1.372 . S
C33 H28 0.928 . S
C33 C32 1.372 . S
C33 C34 1.404 . S
C34 C33 1.404 . S
C34 C35 1.391 1_554 S
C35 H29 0.930 . S
C35 C31 1.429 . S
C35 C34 1.391 1_556 S
H36 C39 0.931 . S
H37 C42 0.928 . S
H38 C44 0.930 . S
C39 H36 0.931 . S
C39 C40 1.413 . S
C39 C41 1.360 . S
C40 C39 1.413 . S
C40 C44 1.429 . S
C41 C39 1.360 . S
C41 C42 1.372 . S
C42 H37 0.928 . S
C42 C41 1.372 . S
C42 C43 1.404 . S
C43 C42 1.404 . S
C43 C44 1.391 . S
C44 H38 0.930 . S
C44 C40 1.429 . S
C44 C43 1.391 . S
H45 C48 0.931 . S
H46 C51 0.928 . S
H47 C53 0.930 . S
C48 H45 0.931 . S
C48 C49 1.413 . S
C48 C50 1.360 . S
C49 C48 1.413 . S
C49 C53 1.429 . S
C50 C48 1.360 . S
C50 C51 1.372 . S
C51 H46 0.928 . S
C51 C50 1.372 . S
C51 C52 1.404 . S
C52 C51 1.404 . S
C52 C53 1.391 . S
C53 H47 0.930 . S
C53 C49 1.429 . S
C53 C52 1.391 . S
H54 C57 0.931 . S
H55 C60 0.928 . S
H56 C62 0.930 . S
C57 H54 0.931 . S
C57 C58 1.413 . S
C57 C59 1.360 . S
C58 C57 1.413 . S
C58 C62 1.429 . S
C59 C57 1.360 . S
C59 C60 1.372 . S
C60 H55 0.928 . S
C60 C59 1.372 . S
C60 C61 1.404 . S
C61 C60 1.404 . S
C61 C62 1.391 . S
C62 H56 0.930 . S
C62 C58 1.429 . S
C62 C61 1.391 . S
H63 C66 0.931 . S
H64 C69 0.928 . S
H65 C71 0.930 . S
C66 H63 0.931 . S
C66 C67 1.413 . S
C66 C68 1.360 . S
C67 C66 1.413 . S
C67 C71 1.429 . S
C68 C66 1.360 . S
C68 C69 1.372 . S
C69 H64 0.928 . S
C69 C68 1.372 . S
C69 C70 1.404 . S
C70 C69 1.404 . S
C70 C71 1.391 . S
C71 H65 0.930 . S
C71 C67 1.429 . S
C71 C70 1.391 . S
Tb72 O75 2.453 1_665 S
Tb72 O76 2.596 1_665 S
Tb72 O77 2.374 1_655 S
Tb72 O85 2.343 . S
Tb72 O87 2.353 1_565 S
Tb72 O89 2.427 . S
Tb72 O90 2.513 . S
C73 O77 1.251 . S
C73 O79 1.263 . S
Tb74 O76 2.343 . S
Tb74 O79 2.353 1_545 S
Tb74 O82 2.427 . S
Tb74 O83 2.513 . S
Tb74 O84 2.453 1_545 S
Tb74 O85 2.596 1_445 S
Tb74 O86 2.374 1_455 S
O75 Tb72 2.453 1_445 S
O75 C91 1.245 . S
O76 Tb72 2.596 1_445 S
O76 Tb74 2.343 . S
O76 C91 1.259 . S
O77 Tb72 2.374 1_455 S
O77 C73 1.251 . S
C78 O82 1.275 . S
C78 O83 1.246 . S
O79 C73 1.263 . S
O79 Tb74 2.353 1_565 S
C80 O84 1.245 1_655 S
C80 O85 1.259 . S
C81 O86 1.250 . S
C81 O87 1.263 . S
O82 Tb74 2.427 . S
O82 C78 1.275 . S
O83 Tb74 2.513 . S
O83 C78 1.246 . S
O84 Tb74 2.453 1_565 S
O84 C80 1.245 1_455 S
O85 Tb72 2.343 . S
O85 Tb74 2.596 1_665 S
O85 C80 1.259 . S
O86 Tb74 2.374 1_655 S
O86 C81 1.250 . S
O87 Tb72 2.353 1_545 S
O87 C81 1.263 . S
C88 O89 1.275 . S
C88 O90 1.246 . S
O89 Tb72 2.427 . S
O89 C88 1.275 . S
O90 Tb72 2.513 . S
O90 C88 1.246 . S
C91 O75 1.245 . S
C91 O76 1.259 . S
Tb92 O95 2.453 . S
Tb92 O96 2.596 1_545 S
Tb92 O97 2.374 . S
Tb92 O105 2.343 . S
Tb92 O107 2.353 . S
Tb92 O109 2.427 . S
Tb92 O110 2.513 . S
C93 O97 1.251 . S
C93 O99 1.263 1_545 S
Tb94 O96 2.343 . S
Tb94 O99 2.353 . S
Tb94 O102 2.427 . S
Tb94 O103 2.513 . S
Tb94 O104 2.453 . S
Tb94 O105 2.596 1_565 S
Tb94 O106 2.374 . S
O95 Tb92 2.453 . S
O95 C111 1.245 . S
O96 Tb92 2.596 1_565 S
O96 Tb94 2.343 . S
O96 C111 1.259 1_565 S
O97 Tb92 2.374 . S
O97 C93 1.251 . S
C98 O102 1.275 . S
C98 O103 1.246 . S
O99 C93 1.263 1_565 S
O99 Tb94 2.353 . S
C100 O104 1.245 . S
C100 O105 1.259 1_565 S
C101 O106 1.250 1_545 S
C101 O107 1.263 . S
O102 Tb94 2.427 . S
O102 C98 1.275 . S
O103 Tb94 2.513 . S
O103 C98 1.246 . S
O104 Tb94 2.453 . S
O104 C100 1.245 . S
O105 Tb92 2.343 . S
O105 Tb94 2.596 1_545 S
O105 C100 1.259 1_545 S
O106 Tb94 2.374 . S
O106 C101 1.250 1_565 S
O107 Tb92 2.353 . S
O107 C101 1.263 . S
C108 O109 1.275 . S
C108 O110 1.246 . S
O109 Tb92 2.427 . S
O109 C108 1.275 . S
O110 Tb92 2.513 . S
O110 C108 1.246 . S
C111 O95 1.245 . S
C111 O96 1.259 1_545 S
Tb112 O115 2.453 . S
Tb112 O116 2.596 . S
Tb112 O117 2.374 . S
Tb112 O125 2.343 . S
Tb112 O127 2.353 . S
Tb112 O129 2.427 . S
Tb112 O130 2.513 . S
C113 O117 1.251 . S
C113 O119 1.263 . S
Tb114 O116 2.343 . S
Tb114 O119 2.353 . S
Tb114 O122 2.427 . S
Tb114 O123 2.513 . S
Tb114 O124 2.453 . S
Tb114 O125 2.596 . S
Tb114 O126 2.374 . S
O115 Tb112 2.453 . S
O115 C131 1.245 . S
O116 Tb112 2.596 . S
O116 Tb114 2.343 . S
O116 C131 1.259 . S
O117 Tb112 2.374 . S
O117 C113 1.251 . S
C118 O122 1.275 . S
C118 O123 1.246 . S
O119 C113 1.263 . S
O119 Tb114 2.353 . S
C120 O124 1.245 . S
C120 O125 1.259 . S
C121 O126 1.250 . S
C121 O127 1.263 . S
O122 Tb114 2.427 . S
O122 C118 1.275 . S
O123 Tb114 2.513 . S
O123 C118 1.246 . S
O124 Tb114 2.453 . S
O124 C120 1.245 . S
O125 Tb112 2.343 . S
O125 Tb114 2.596 . S
O125 C120 1.259 . S
O126 Tb114 2.374 . S
O126 C121 1.250 . S
O127 Tb112 2.353 . S
O127 C121 1.263 . S
C128 O129 1.275 . S
C128 O130 1.246 . S
O129 Tb112 2.427 . S
O129 C128 1.275 . S
O130 Tb112 2.513 . S
O130 C128 1.246 . S
C131 O115 1.245 . S
C131 O116 1.259 . S
Tb132 O135 2.453 1_655 S
Tb132 O136 2.596 1_655 S
Tb132 O137 2.374 1_655 S
Tb132 O145 2.343 . S
Tb132 O147 2.353 . S
Tb132 O149 2.427 . S
Tb132 O150 2.513 . S
C133 O137 1.251 . S
C133 O139 1.263 . S
Tb134 O136 2.343 . S
Tb134 O139 2.353 . S
Tb134 O142 2.427 . S
Tb134 O143 2.513 . S
Tb134 O144 2.453 1_455 S
Tb134 O145 2.596 1_455 S
Tb134 O146 2.374 1_455 S
O135 Tb132 2.453 1_455 S
O135 C151 1.245 . S
O136 Tb132 2.596 1_455 S
O136 Tb134 2.343 . S
O136 C151 1.259 . S
O137 Tb132 2.374 1_455 S
O137 C133 1.251 . S
C138 O142 1.275 . S
C138 O143 1.246 . S
O139 C133 1.263 . S
O139 Tb134 2.353 . S
C140 O144 1.245 . S
C140 O145 1.259 . S
C141 O146 1.250 . S
C141 O147 1.263 . S
O142 Tb134 2.427 . S
O142 C138 1.275 . S
O143 Tb134 2.513 . S
O143 C138 1.246 . S
O144 Tb134 2.453 1_655 S
O144 C140 1.245 . S
O145 Tb132 2.343 . S
O145 Tb134 2.596 1_655 S
O145 C140 1.259 . S
O146 Tb134 2.374 1_655 S
O146 C141 1.250 . S
O147 Tb132 2.353 . S
O147 C141 1.263 . S
C148 O149 1.275 . S
C148 O150 1.246 . S
O149 Tb132 2.427 . S
O149 C148 1.275 . S
O150 Tb132 2.513 . S
O150 C148 1.246 . S
C151 O135 1.245 . S
C151 O136 1.259 . S
C152 C153 1.369 1_565 S
C152 C154 1.419 . S
C152 H156 0.930 . S
C153 C152 1.369 1_545 S
C153 C162 1.429 . S
C154 C152 1.419 . S
C154 C155 1.363 1_565 S
C154 H157 0.929 . S
C155 C154 1.363 1_545 S
C155 C161 1.428 . S
H156 C152 0.930 . S
H157 C154 0.929 . S
S158 N159 1.613 . S
S158 N160 1.610 . S
N159 S158 1.613 . S
N159 C162 1.350 . S
N160 S158 1.610 . S
N160 C161 1.351 . S
C161 C155 1.428 . S
C161 N160 1.351 . S
C161 C162 1.434 . S
C162 C153 1.429 . S
C162 N159 1.350 . S
C162 C161 1.434 . S
C163 C164 1.369 . S
C163 C165 1.419 . S
C163 H167 0.930 . S
C164 C163 1.369 . S
C164 C173 1.429 . S
C165 C163 1.419 . S
C165 C166 1.363 . S
C165 H168 0.929 . S
C166 C165 1.363 . S
C166 C172 1.428 . S
H167 C163 0.930 . S
H168 C165 0.929 . S
S169 N170 1.613 . S
S169 N171 1.610 . S
N170 S169 1.613 . S
N170 C173 1.350 . S
N171 S169 1.610 . S
N171 C172 1.351 . S
C172 C166 1.428 . S
C172 N171 1.351 . S
C172 C173 1.434 . S
C173 C164 1.429 . S
C173 N170 1.350 . S
C173 C172 1.434 . S
C174 C175 1.369 . S
C174 C176 1.419 . S
C174 H178 0.930 . S
C175 C174 1.369 . S
C175 C184 1.429 . S
C176 C174 1.419 . S
C176 C177 1.363 . S
C176 H179 0.929 . S
C177 C176 1.363 . S
C177 C183 1.428 . S
H178 C174 0.930 . S
H179 C176 0.929 . S
S180 N181 1.613 . S
S180 N182 1.610 . S
N181 S180 1.613 . S
N181 C184 1.350 . S
N182 S180 1.610 . S
N182 C183 1.351 . S
C183 C177 1.428 . S
C183 N182 1.351 . S
C183 C184 1.434 . S
C184 C175 1.429 . S
C184 N181 1.350 . S
C184 C183 1.434 . S
C185 C186 1.369 . S
C185 C187 1.419 . S
C185 H189 0.930 . S
C186 C185 1.369 . S
C186 C195 1.429 . S
C187 C185 1.419 . S
C187 C188 1.363 . S
C187 H190 0.929 . S
C188 C187 1.363 . S
C188 C194 1.428 . S
H189 C185 0.930 . S
H190 C187 0.929 . S
S191 N192 1.613 . S
S191 N193 1.610 . S
N192 S191 1.613 . S
N192 C195 1.350 . S
N193 S191 1.610 . S
N193 C194 1.351 . S
C194 C188 1.428 . S
C194 N193 1.351 . S
C194 C195 1.434 . S
C195 C186 1.429 . S
C195 N192 1.350 . S
C195 C194 1.434 . S
C196 C197 1.369 1_556 S
C196 C198 1.419 . S
C196 H200 0.930 . S
C197 C196 1.369 1_554 S
C197 C206 1.429 1_545 S
C198 C196 1.419 . S
C198 C199 1.363 . S
C198 H201 0.929 . S
C199 C198 1.363 . S
C199 C205 1.428 1_545 S
H200 C196 0.930 . S
H201 C198 0.929 . S
S202 N203 1.613 . S
S202 N204 1.610 1_554 S
N203 S202 1.613 . S
N203 C206 1.350 . S
N204 S202 1.610 1_556 S
N204 C205 1.351 . S
C205 C199 1.428 1_565 S
C205 N204 1.351 . S
C205 C206 1.434 1_556 S
C206 C197 1.429 1_565 S
C206 N203 1.350 . S
C206 C205 1.434 1_554 S
C207 C208 1.369 1_556 S
C207 C209 1.419 . S
C207 H211 0.930 . S
C208 C207 1.369 1_554 S
C208 C217 1.429 . S
C209 C207 1.419 . S
C209 C210 1.363 . S
C209 H212 0.929 . S
C210 C209 1.363 . S
C210 C216 1.428 . S
H211 C207 0.930 . S
H212 C209 0.929 . S
S213 N214 1.613 . S
S213 N215 1.610 . S
N214 S213 1.613 . S
N214 C217 1.350 . S
N215 S213 1.610 . S
N215 C216 1.351 1_554 S
C216 C210 1.428 . S
C216 N215 1.351 1_556 S
C216 C217 1.434 1_556 S
C217 C208 1.429 . S
C217 N214 1.350 . S
C217 C216 1.434 1_554 S
C218 C219 1.369 1_554 S
C218 C220 1.419 1_554 S
C218 H222 0.930 . S
C219 C218 1.369 1_556 S
C219 C228 1.429 . S
C220 C218 1.419 1_556 S
C220 C221 1.363 . S
C220 H223 0.929 . S
C221 C220 1.363 . S
C221 C227 1.428 . S
H222 C218 0.930 . S
H223 C220 0.929 . S
S224 N225 1.613 . S
S224 N226 1.610 . S
N225 S224 1.613 . S
N225 C228 1.350 . S
N226 S224 1.610 . S
N226 C227 1.351 . S
C227 C221 1.428 . S
C227 N226 1.351 . S
C227 C228 1.434 . S
C228 C219 1.429 . S
C228 N225 1.350 . S
C228 C227 1.434 . S
C229 C230 1.369 . S
C229 C231 1.419 . S
C229 H233 0.930 . S
C230 C229 1.369 . S
C230 C239 1.429 1_556 S
C231 C229 1.419 . S
C231 C232 1.363 . S
C231 H234 0.929 . S
C232 C231 1.363 . S
C232 C238 1.428 . S
H233 C229 0.930 . S
H234 C231 0.929 . S
S235 N236 1.613 . S
S235 N237 1.610 . S
N236 S235 1.613 . S
N236 C239 1.350 . S
N237 S235 1.610 . S
N237 C238 1.351 1_554 S
C238 C232 1.428 . S
C238 N237 1.351 1_556 S
C238 C239 1.434 1_556 S
C239 C230 1.429 1_554 S
C239 N236 1.350 . S
C239 C238 1.434 1_554 S
C240 C241 1.369 . S
C240 C242 1.419 . S
C240 H244 0.930 . S
C241 C240 1.369 . S
C241 C250 1.429 . S
C242 C240 1.419 . S
C242 C243 1.363 . S
C242 H245 0.929 . S
C243 C242 1.363 . S
C243 C249 1.428 . S
H244 C240 0.930 . S
H245 C242 0.929 . S
S246 N247 1.613 . S
S246 N248 1.610 . S
N247 S246 1.613 . S
N247 C250 1.350 . S
N248 S246 1.610 . S
N248 C249 1.351 . S
C249 C243 1.428 . S
C249 N248 1.351 . S
C249 C250 1.434 . S
C250 C241 1.429 . S
C250 N247 1.350 . S
C250 C249 1.434 . S
C251 C252 1.369 1_565 S
C251 C253 1.419 . S
C251 H255 0.930 . S
C252 C251 1.369 1_545 S
C252 C261 1.429 . S
C253 C251 1.419 . S
C253 C254 1.363 1_565 S
C253 H256 0.929 . S
C254 C253 1.363 1_545 S
C254 C260 1.428 . S
H255 C251 0.930 . S
H256 C253 0.929 . S
S257 N258 1.613 . S
S257 N259 1.610 . S
N258 S257 1.613 . S
N258 C261 1.350 . S
N259 S257 1.610 . S
N259 C260 1.351 . S
C260 C254 1.428 . S
C260 N259 1.351 . S
C260 C261 1.434 . S
C261 C252 1.429 . S
C261 N258 1.350 . S
C261 C260 1.434 . S
C262 C263 1.369 . S
C262 C264 1.419 . S
C262 H266 0.930 . S
C263 C262 1.369 . S
C263 C272 1.429 . S
C264 C262 1.419 . S
C264 C265 1.363 . S
C264 H267 0.929 . S
C265 C264 1.363 . S
C265 C271 1.428 . S
H266 C262 0.930 . S
H267 C264 0.929 . S
S268 N269 1.613 . S
S268 N270 1.610 . S
N269 S268 1.613 . S
N269 C272 1.350 . S
N270 S268 1.610 . S
N270 C271 1.351 . S
C271 C265 1.428 . S
C271 N270 1.351 . S
C271 C272 1.434 . S
C272 C263 1.429 . S
C272 N269 1.350 . S
C272 C271 1.434 . S
C273 C274 1.369 . S
C273 C275 1.419 . S
C273 H277 0.930 . S
C274 C273 1.369 . S
C274 C283 1.429 . S
C275 C273 1.419 . S
C275 C276 1.363 . S
C275 H278 0.929 . S
C276 C275 1.363 . S
C276 C282 1.428 . S
H277 C273 0.930 . S
H278 C275 0.929 . S
S279 N280 1.613 . S
S279 N281 1.610 . S
N280 S279 1.613 . S
N280 C283 1.350 . S
N281 S279 1.610 . S
N281 C282 1.351 . S
C282 C276 1.428 . S
C282 N281 1.351 . S
C282 C283 1.434 . S
C283 C274 1.429 . S
C283 N280 1.350 . S
C283 C282 1.434 . S
C284 C285 1.369 . S
C284 C286 1.419 . S
C284 H288 0.930 . S
C285 C284 1.369 . S
C285 C294 1.429 . S
C286 C284 1.419 . S
C286 C287 1.363 . S
C286 H289 0.929 . S
C287 C286 1.363 . S
C287 C293 1.428 . S
H288 C284 0.930 . S
H289 C286 0.929 . S
S290 N291 1.613 . S
S290 N292 1.610 . S
N291 S290 1.613 . S
N291 C294 1.350 . S
N292 S290 1.610 . S
N292 C293 1.351 . S
C293 C287 1.428 . S
C293 N292 1.351 . S
C293 C294 1.434 . S
C294 C285 1.429 . S
C294 N291 1.350 . S
C294 C293 1.434 . S
C295 C296 1.372 . S
C295 C297 1.419 . S
C295 H299 0.930 . S
C296 C295 1.372 . S
C296 C305 1.427 1_545 S
C297 C295 1.419 . S
C297 C298 1.363 . S
C297 H300 0.929 . S
C298 C297 1.363 . S
C298 C304 1.428 1_545 S
H299 C295 0.930 . S
H300 C297 0.929 . S
S301 N302 1.613 . S
S301 N303 1.610 . S
N302 S301 1.613 . S
N302 C305 1.350 . S
N303 S301 1.610 . S
N303 C304 1.351 . S
C304 C298 1.428 1_565 S
C304 N303 1.351 . S
C304 C305 1.434 . S
C305 C296 1.427 1_565 S
C305 N302 1.350 . S
C305 C304 1.434 . S
C306 C307 1.369 . S
C306 C308 1.419 . S
C306 H310 0.930 . S
C307 C306 1.369 . S
C307 C316 1.429 . S
C308 C306 1.419 . S
C308 C309 1.363 . S
C308 H311 0.929 . S
C309 C308 1.363 . S
C309 C315 1.428 . S
H310 C306 0.930 . S
H311 C308 0.929 . S
S312 N313 1.613 . S
S312 N314 1.610 . S
N313 S312 1.613 . S
N313 C316 1.350 . S
N314 S312 1.610 . S
N314 C315 1.351 . S
C315 C309 1.428 . S
C315 N314 1.351 . S
C315 C316 1.434 . S
C316 C307 1.429 . S
C316 N313 1.350 . S
C316 C315 1.434 . S
C317 C318 1.369 . S
C317 C319 1.419 . S
C317 H321 0.930 . S
C318 C317 1.369 . S
C318 C327 1.429 . S
C319 C317 1.419 . S
C319 C320 1.363 . S
C319 H322 0.929 . S
C320 C319 1.363 . S
C320 C326 1.428 . S
H321 C317 0.930 . S
H322 C319 0.929 . S
S323 N324 1.613 . S
S323 N325 1.610 . S
N324 S323 1.613 . S
N324 C327 1.350 . S
N325 S323 1.610 . S
N325 C326 1.351 . S
C326 C320 1.428 . S
C326 N325 1.351 . S
C326 C327 1.434 . S
C327 C318 1.429 . S
C327 N324 1.350 . S
C327 C326 1.434 . S
C328 C329 1.369 . S
C328 C330 1.419 . S
C328 H332 0.930 . S
C329 C328 1.369 . S
C329 C338 1.429 . S
C330 C328 1.419 . S
C330 C331 1.363 . S
C330 H333 0.929 . S
C331 C330 1.363 . S
C331 C337 1.428 . S
H332 C328 0.930 . S
H333 C330 0.929 . S
S334 N335 1.613 . S
S334 N336 1.610 . S
N335 S334 1.613 . S
N335 C338 1.350 . S
N336 S334 1.610 . S
N336 C337 1.351 . S
C337 C331 1.428 . S
C337 N336 1.351 . S
C337 C338 1.434 . S
C338 C329 1.429 . S
C338 N335 1.350 . S
C338 C337 1.434 . S
C339 C340 1.369 1_565 S
C339 C341 1.419 . S
C339 H343 0.930 . S
C340 C339 1.369 1_545 S
C340 C349 1.429 . S
C341 C339 1.419 . S
C341 C342 1.363 1_564 S
C341 H344 0.929 . S
C342 C341 1.363 1_546 S
C342 C348 1.428 . S
H343 C339 0.930 . S
H344 C341 0.929 . S
S345 N346 1.613 1_556 S
S345 N347 1.610 . S
N346 S345 1.613 1_554 S
N346 C349 1.350 . S
N347 S345 1.610 . S
N347 C348 1.351 . S
C348 C342 1.428 . S
C348 N347 1.351 . S
C348 C349 1.434 1_556 S
C349 C340 1.429 . S
C349 N346 1.350 . S
C349 C348 1.434 1_554 S
C350 C351 1.369 . S
C350 C352 1.419 1_554 S
C350 H354 0.930 . S
C351 C350 1.369 . S
C351 C360 1.429 . S
C352 C350 1.419 1_556 S
C352 C353 1.363 1_556 S
C352 H355 0.929 . S
C353 C352 1.363 1_554 S
C353 C359 1.428 . S
H354 C350 0.930 . S
H355 C352 0.929 . S
S356 N357 1.613 . S
S356 N358 1.610 . S
N357 S356 1.613 . S
N357 C360 1.350 . S
N358 S356 1.610 . S
N358 C359 1.351 . S
C359 C353 1.428 . S
C359 N358 1.351 . S
C359 C360 1.434 . S
C360 C351 1.429 . S
C360 N357 1.350 . S
C360 C359 1.434 . S
C361 C362 1.369 . S
C361 C363 1.419 . S
C361 H365 0.930 . S
C362 C361 1.369 . S
C362 C371 1.429 . S
C363 C361 1.419 . S
C363 C364 1.363 . S
C363 H366 0.929 1_554 S
C364 C363 1.363 . S
C364 C370 1.428 . S
H365 C361 0.930 . S
H366 C363 0.929 1_556 S
S367 N368 1.613 . S
S367 N369 1.610 . S
N368 S367 1.613 . S
N368 C371 1.350 . S
N369 S367 1.610 . S
N369 C370 1.351 . S
C370 C364 1.428 . S
C370 N369 1.351 . S
C370 C371 1.434 . S
C371 C362 1.429 . S
C371 N368 1.350 . S
C371 C370 1.434 . S
C372 C373 1.369 . S
C372 C374 1.419 . S
C372 H376 0.930 . S
C373 C372 1.369 . S
C373 C382 1.429 . S
C374 C372 1.419 . S
C374 C375 1.363 . S
C374 H377 0.929 . S
C375 C374 1.363 . S
C375 C381 1.428 . S
H376 C372 0.930 . S
H377 C374 0.929 . S
S378 N379 1.613 . S
S378 N380 1.610 . S
N379 S378 1.613 . S
N379 C382 1.350 . S
N380 S378 1.610 . S
N380 C381 1.351 . S
C381 C375 1.428 . S
C381 N380 1.351 . S
C381 C382 1.434 . S
C382 C373 1.429 . S
C382 N379 1.350 . S
C382 C381 1.434 . S
C383 C384 1.371 1_565 S
C383 C385 1.418 . S
C383 H387 0.930 . S
C384 C383 1.371 1_545 S
C384 C393 1.428 . S
C385 C383 1.418 . S
C385 C386 1.363 1_565 S
C385 H388 0.929 . S
C386 C385 1.363 1_545 S
C386 C392 1.428 . S
H387 C383 0.930 . S
H388 C385 0.929 . S
S389 N390 1.614 . S
S389 N391 1.613 . S
N390 S389 1.614 . S
N390 C393 1.351 . S
N391 S389 1.613 . S
N391 C392 1.351 . S
C392 C386 1.428 . S
C392 N391 1.351 . S
C392 C393 1.434 . S
C393 C384 1.428 . S
C393 N390 1.351 . S
C393 C392 1.434 . S
C394 C395 1.369 . S
C394 C396 1.419 . S
C394 H398 0.930 . S
C395 C394 1.369 . S
C395 C404 1.429 . S
C396 C394 1.419 . S
C396 C397 1.363 . S
C396 H399 0.929 . S
C397 C396 1.363 . S
C397 C403 1.428 . S
H398 C394 0.930 . S
H399 C396 0.929 . S
S400 N401 1.613 . S
S400 N402 1.610 . S
N401 S400 1.613 . S
N401 C404 1.350 . S
N402 S400 1.610 . S
N402 C403 1.351 . S
C403 C397 1.428 . S
C403 N402 1.351 . S
C403 C404 1.434 . S
C404 C395 1.429 . S
C404 N401 1.350 . S
C404 C403 1.434 . S
C405 C406 1.369 . S
C405 C407 1.419 . S
C405 H409 0.930 . S
C406 C405 1.369 . S
C406 C415 1.429 . S
C407 C405 1.419 . S
C407 C408 1.363 . S
C407 H410 0.929 . S
C408 C407 1.363 . S
C408 C414 1.428 . S
H409 C405 0.930 . S
H410 C407 0.929 . S
S411 N412 1.613 . S
S411 N413 1.610 . S
N412 S411 1.613 . S
N412 C415 1.350 . S
N413 S411 1.610 . S
N413 C414 1.351 . S
C414 C408 1.428 . S
C414 N413 1.351 . S
C414 C415 1.434 . S
C415 C406 1.429 . S
C415 N412 1.350 . S
C415 C414 1.434 . S
C153 C61 1.481 . S
C155 C73 1.501 1_545 S
C166 C108 1.724 . S
C164 C70 1.628 . S
C177 C113 1.354 . S
C175 C43 1.353 . S
C188 C133 1.651 . S
C186 C52 1.567 . S
C199 C81 1.500 . S
C197 C25 1.484 1_545 S
C208 C34 1.612 . S
C210 C98 1.724 . S
C219 C7 1.341 1_556 S
C221 C121 1.358 . S
C230 C16 1.580 . S
C232 C141 1.651 . S
C243 C91 1.391 . S
C241 C50 1.301 . S
C254 C100 1.010 1_545 S
C252 C59 1.015 . S
C265 C131 1.422 . S
C263 C67 1.336 . S
C274 C41 1.026 . S
C276 C151 1.019 . S
C285 C14 1.315 . S
C287 C80 1.390 . S
C298 C111 1.010 . S
C296 C23 1.011 1_546 S
C309 C120 1.421 . S
C307 C31 1.314 . S
C318 C5 1.033 . S
C320 C140 1.028 . S
C329 C49 1.582 . S
C331 C78 1.623 1_554 S
C340 C58 1.496 . S
C342 C101 1.573 . S
C353 C118 1.676 1_554 S
C351 C68 1.611 . S
C364 C138 1.602 1_554 S
C362 C40 1.570 . S
C373 C13 1.593 . S
C375 C88 1.626 . S
C386 C93 1.574 . S
C384 C22 1.496 1_545 S
C397 C128 1.676 . S
C395 C32 1.600 . S
C406 C4 1.566 . S
C408 C148 1.602 . S
