# Generated by pormake.
# Topology ssb, (4,4)-cn, num edge types: 1
# Building blocks:
#     Node 0, Type 0, BuildingBlock: AZAVOO_clean_linker_0, # of connection points: 4
#     Node 1, Type 0, BuildingBlock: AZAVOO_clean_linker_0, # of connection points: 4
#     Node 2, Type 0, BuildingBlock: AZAVOO_clean_linker_0, # of connection points: 4
#     Node 3, Type 0, BuildingBlock: AZAVOO_clean_linker_0, # of connection points: 4
#     Node 4, Type 0, BuildingBlock: AZAVOO_clean_linker_0, # of connection points: 4
#     Node 5, Type 0, BuildingBlock: AZAVOO_clean_linker_0, # of connection points: 4
#     Node 6, Type 0, BuildingBlock: AZAVOO_clean_linker_0, # of connection points: 4
#     Node 7, Type 0, BuildingBlock: AZAVOO_clean_linker_0, # of connection points: 4
#     Node 8, Type 1, BuildingBlock: NAWXER_clean_sbu_0, # of connection points: 4
#     Node 9, Type 1, BuildingBlock: NAWXER_clean_sbu_0, # of connection points: 4
#     Node 10, Type 1, BuildingBlock: NAWXER_clean_sbu_0, # of connection points: 4
#     Node 11, Type 1, BuildingBlock: NAWXER_clean_sbu_0, # of connection points: 4
#     Node 12, Type 1, BuildingBlock: NAWXER_clean_sbu_0, # of connection points: 4
#     Node 13, Type 1, BuildingBlock: NAWXER_clean_sbu_0, # of connection points: 4
#     Node 14, Type 1, BuildingBlock: NAWXER_clean_sbu_0, # of connection points: 4
#     Node 15, Type 1, BuildingBlock: NAWXER_clean_sbu_0, # of connection points: 4
#     Edge 16, Type (0, 1), None
#     Edge 17, Type (0, 1), None
#     Edge 18, Type (0, 1), None
#     Edge 19, Type (0, 1), None
#     Edge 20, Type (0, 1), None
#     Edge 21, Type (0, 1), None
#     Edge 22, Type (0, 1), None
#     Edge 23, Type (0, 1), None
#     Edge 24, Type (0, 1), None
#     Edge 25, Type (0, 1), None
#     Edge 26, Type (0, 1), None
#     Edge 27, Type (0, 1), None
#     Edge 28, Type (0, 1), None
#     Edge 29, Type (0, 1), None
#     Edge 30, Type (0, 1), None
#     Edge 31, Type (0, 1), None
#     Edge 32, Type (0, 1), None
#     Edge 33, Type (0, 1), None
#     Edge 34, Type (0, 1), None
#     Edge 35, Type (0, 1), None
#     Edge 36, Type (0, 1), None
#     Edge 37, Type (0, 1), None
#     Edge 38, Type (0, 1), None
#     Edge 39, Type (0, 1), None
#     Edge 40, Type (0, 1), None
#     Edge 41, Type (0, 1), None
#     Edge 42, Type (0, 1), None
#     Edge 43, Type (0, 1), None
#     Edge 44, Type (0, 1), None
#     Edge 45, Type (0, 1), None
#     Edge 46, Type (0, 1), None
#     Edge 47, Type (0, 1), None
# Relax obj value: 0.081
# Max RMSD: 0.311
# Mean RMSD: 0.124
data_MOF--net-ssb--node1-NAWXER_clean_sbu_0--node2-AZAVOO_clean_linker_0--edge1-none
_symmetry_space_group_name_H-M    P1
_symmetry_Int_Tables_number       1
_symmetry_cell_setting            triclinic
loop_
_symmetry_equiv_pos_as_xyz
'x, y, z'
_cell_length_a     27.200926
_cell_length_b     28.099358
_cell_length_c     23.5811
_cell_angle_alpha  93.087169
_cell_angle_beta   90.036007
_cell_angle_gamma 89.613715
loop_
_atom_site_label
_atom_site_type_symbol
_atom_site_fract_x
_atom_site_fract_y
_atom_site_fract_z
_atom_type_partial_charge
H0 H 0.9941 0.56161 0.31114 0.0
H1 H 0.44158 0.50217 0.9567 0.0
H2 H 0.23668 0.42765 0.37049 0.0
H3 H 0.17704 0.43309 0.44854 0.0
H4 H 0.10111 0.3105 0.37423 0.0
H5 H 0.15864 0.30741 0.29385 0.0
H6 H 0.19778 0.49417 0.29344 0.0
H7 H 0.11836 0.53408 0.30943 0.0
H8 H 0.04555 0.41435 0.22338 0.0
H9 H 0.12534 0.37505 0.20729 0.0
H10 H 0.28733 0.50761 0.22671 0.0
H11 H 0.27257 0.58394 0.18564 0.0
H12 H 0.16829 0.5181 0.06796 0.0
H13 H 0.18302 0.44087 0.11069 0.0
H14 H 0.37458 0.44775 0.2163 0.0
H15 H 0.4335 0.48325 0.15328 0.0
H16 H 0.3493 0.43033 0.00787 0.0
H17 H 0.29082 0.39399 0.07181 0.0
H18 H 0.40036 0.36745 0.25244 0.0
H19 H 0.47042 0.34171 0.1935 0.0
H20 H 0.37405 0.25763 0.08327 0.0
H21 H 0.30361 0.28455 0.14176 0.0
H22 H 0.35383 0.35269 0.33926 0.0
H23 H 0.37363 0.30077 0.41711 0.0
H24 H 0.25118 0.21099 0.3684 0.0
H25 H 0.23389 0.26055 0.28819 0.0
O26 O 0.02512 0.54519 0.30443 0.0
O27 O 0.9894 0.48229 0.26095 0.0
O28 O 0.46818 0.50167 0.0566 0.0
O29 O 0.4205 0.48524 0.98168 0.0
C30 C 0.23052 0.37145 0.27537 0.0
C31 C 0.2154 0.40745 0.23932 0.0
C32 C 0.24751 0.42264 0.19752 0.0
C33 C 0.29258 0.3983 0.18809 0.0
C34 C 0.30481 0.35825 0.2199 0.0
C35 C 0.27528 0.34629 0.26616 0.0
C36 C 0.20228 0.3665 0.32756 0.0
C37 C 0.20769 0.40146 0.37175 0.0
C38 C 0.17347 0.40502 0.41545 0.0
C39 C 0.13481 0.37253 0.41614 0.0
C40 C 0.13097 0.33581 0.37381 0.0
C41 C 0.16406 0.33347 0.32878 0.0
C42 C 0.16725 0.43197 0.24874 0.0
C43 C 0.16465 0.47683 0.27771 0.0
C44 C 0.11922 0.49944 0.28696 0.0
C45 C 0.07558 0.47746 0.26756 0.0
C46 C 0.07843 0.43232 0.23878 0.0
C47 C 0.12391 0.40981 0.22948 0.0
C48 C 0.23733 0.46848 0.17072 0.0
C49 C 0.26128 0.50952 0.1921 0.0
C50 C 0.25226 0.55324 0.16893 0.0
C51 C 0.21914 0.55716 0.12348 0.0
C52 C 0.19349 0.51634 0.10337 0.0
C53 C 0.20248 0.47219 0.12703 0.0
C54 C 0.32898 0.41761 0.14857 0.0
C55 C 0.36936 0.44313 0.17079 0.0
C56 C 0.40284 0.46357 0.1347 0.0
C57 C 0.3961 0.45963 0.07554 0.0
C58 C 0.35549 0.43402 0.05327 0.0
C59 C 0.32215 0.41316 0.08959 0.0
C60 C 0.34698 0.32814 0.20107 0.0
C61 C 0.39459 0.34158 0.2174 0.0
C62 C 0.43444 0.32719 0.18343 0.0
C63 C 0.4271 0.29838 0.13363 0.0
C64 C 0.3804 0.27973 0.12161 0.0
C65 C 0.34031 0.29491 0.1551 0.0
C66 C 0.29215 0.3108 0.30763 0.0
C67 C 0.33237 0.32085 0.34393 0.0
C68 C 0.34348 0.2914 0.38873 0.0
C69 C 0.31374 0.2521 0.39896 0.0
C70 C 0.27451 0.24129 0.36169 0.0
C71 C 0.26449 0.26971 0.31593 0.0
C72 C 0.02737 0.50161 0.27735 0.0
C73 C 0.43063 0.48325 0.0375 0.0
H74 H 0.52212 0.09477 0.21704 0.0
H75 H 0.96496 0.24684 0.61943 0.0
H76 H 0.72065 0.27452 0.20972 0.0
H77 H 0.6741 0.28531 0.12221 0.0
H78 H 0.58984 0.39842 0.20739 0.0
H79 H 0.63429 0.38529 0.29622 0.0
H80 H 0.7057 0.19088 0.28046 0.0
H81 H 0.63775 0.14058 0.24615 0.0
H82 H 0.53398 0.24417 0.31834 0.0
H83 H 0.60239 0.29399 0.35298 0.0
H84 H 0.78564 0.18078 0.357 0.0
H85 H 0.78182 0.10629 0.40585 0.0
H86 H 0.65843 0.16128 0.50447 0.0
H87 H 0.66478 0.23758 0.45824 0.0
H88 H 0.8515 0.23385 0.36931 0.0
H89 H 0.92116 0.21375 0.42868 0.0
H90 H 0.85607 0.29582 0.57007 0.0
H91 H 0.78525 0.31427 0.51037 0.0
H92 H 0.87466 0.32056 0.33712 0.0
H93 H 0.94931 0.35273 0.38225 0.0
H94 H 0.86122 0.44887 0.4894 0.0
H95 H 0.78609 0.41456 0.44603 0.0
H96 H 0.82036 0.35412 0.25445 0.0
H97 H 0.83399 0.41492 0.18705 0.0
H98 H 0.71276 0.49784 0.25966 0.0
H99 H 0.70118 0.43715 0.3301 0.0
O100 O 0.54844 0.1151 0.23137 0.0
O101 O 0.49669 0.17163 0.26423 0.0
O102 O 0.9729 0.22095 0.51857 0.0
O103 O 0.93785 0.25546 0.59541 0.0
C104 C 0.70833 0.32024 0.31259 0.0
C105 C 0.70032 0.27703 0.33915 0.0
C106 C 0.7335 0.26223 0.38094 0.0
C107 C 0.77402 0.29128 0.39711 0.0
C108 C 0.78059 0.33579 0.37282 0.0
C109 C 0.74769 0.35019 0.33058 0.0
C110 C 0.68119 0.32938 0.25928 0.0
C111 C 0.69226 0.30175 0.20953 0.0
C112 C 0.66598 0.30812 0.1596 0.0
C113 C 0.62921 0.34328 0.15806 0.0
C114 C 0.6189 0.37187 0.20736 0.0
C115 C 0.64414 0.36436 0.25798 0.0
C116 C 0.65898 0.24577 0.31992 0.0
C117 C 0.66829 0.20236 0.2895 0.0
C118 C 0.62938 0.17382 0.26966 0.0
C119 C 0.58042 0.18827 0.27964 0.0
C120 C 0.57125 0.23193 0.31002 0.0
C121 C 0.61023 0.26041 0.32993 0.0
C122 C 0.72703 0.21534 0.40599 0.0
C123 C 0.75834 0.17719 0.3898 0.0
C124 C 0.75555 0.13444 0.41688 0.0
C125 C 0.71978 0.12834 0.45859 0.0
C126 C 0.68593 0.16517 0.47187 0.0
C127 C 0.68983 0.20871 0.446 0.0
C128 C 0.81242 0.27406 0.43605 0.0
C129 C 0.85132 0.24592 0.4137 0.0
C130 C 0.89162 0.2353 0.44741 0.0
C131 C 0.89417 0.25316 0.50413 0.0
C132 C 0.85504 0.28126 0.52661 0.0
C133 C 0.81437 0.29148 0.49284 0.0
C134 C 0.82484 0.36473 0.38876 0.0
C135 C 0.87139 0.34932 0.36939 0.0
C136 C 0.91398 0.36767 0.3952 0.0
C137 C 0.9109 0.40312 0.43936 0.0
C138 C 0.86451 0.42181 0.45509 0.0
C139 C 0.82166 0.40235 0.43031 0.0
C140 C 0.75991 0.39133 0.29702 0.0
C141 C 0.7978 0.3861 0.25716 0.0
C142 C 0.80519 0.42078 0.21842 0.0
C143 C 0.77403 0.4609 0.2179 0.0
C144 C 0.73691 0.46701 0.25899 0.0
C145 C 0.73043 0.43262 0.29911 0.0
C146 C 0.53921 0.15798 0.25808 0.0
C147 C 0.9375 0.24239 0.53954 0.0
H148 H 0.67931 0.09817 0.33475 0.0
H149 H 0.62269 0.59983 0.07403 0.0
H150 H 0.88688 0.91396 0.32775 0.0
H151 H 0.87975 0.97207 0.40946 0.0
H152 H 0.77705 0.87951 0.48807 0.0
H153 H 0.78488 0.82173 0.40762 0.0
H154 H 0.80864 0.9432 0.24878 0.0
H155 H 0.76515 0.01706 0.27844 0.0
H156 H 0.66074 0.93563 0.37106 0.0
H157 H 0.70445 0.86215 0.34082 0.0
H158 H 0.75517 0.88917 0.15226 0.0
H159 H 0.67771 0.91381 0.10931 0.0
H160 H 0.59968 0.81104 0.20465 0.0
H161 H 0.67721 0.78759 0.24855 0.0
H162 H 0.79233 0.77045 0.09901 0.0
H163 H 0.74365 0.71471 0.03845 0.0
H164 H 0.68432 0.65375 0.18796 0.0
H165 H 0.73517 0.70737 0.24771 0.0
H166 H 0.89155 0.75173 0.15029 0.0
H167 H 0.91545 0.674 0.10647 0.0
H168 H 0.86182 0.60562 0.2534 0.0
H169 H 0.83649 0.68275 0.29615 0.0
H170 H 0.94958 0.80122 0.28231 0.0
H171 H 0.01048 0.78339 0.35508 0.0
H172 H 0.89598 0.72751 0.45851 0.0
H173 H 0.83526 0.74503 0.38562 0.0
O174 O 0.69635 0.06873 0.32397 0.0
O175 O 0.64823 0.02609 0.37774 0.0
O176 O 0.67174 0.65665 0.02169 0.0
O177 O 0.64542 0.61932 0.09654 0.0
C178 C 0.82635 0.83755 0.3075 0.0
C179 C 0.78626 0.85281 0.275 0.0
C180 C 0.76807 0.82285 0.23019 0.0
C181 C 0.79188 0.77918 0.21543 0.0
C182 C 0.83515 0.76662 0.24418 0.0
C183 C 0.85056 0.79428 0.29217 0.0
C184 C 0.83659 0.86366 0.36218 0.0
C185 C 0.86491 0.9053 0.36404 0.0
C186 C 0.86061 0.93843 0.41032 0.0
C187 C 0.82738 0.93013 0.45412 0.0
C188 C 0.80266 0.88655 0.45437 0.0
C189 C 0.80755 0.85334 0.40889 0.0
C190 C 0.75951 0.8975 0.29251 0.0
C191 C 0.77629 0.94149 0.27534 0.0
C192 C 0.75139 0.98355 0.29237 0.0
C193 C 0.7094 0.98224 0.32704 0.0
C194 C 0.69291 0.93793 0.34434 0.0
C195 C 0.71769 0.89592 0.32704 0.0
C196 C 0.72171 0.83587 0.20225 0.0
C197 C 0.7213 0.87205 0.16372 0.0
C198 C 0.67707 0.88643 0.13993 0.0
C199 C 0.63285 0.86433 0.15396 0.0
C200 C 0.63335 0.82846 0.19311 0.0
C201 C 0.67751 0.81463 0.21753 0.0
C202 C 0.76674 0.74319 0.17763 0.0
C203 C 0.76931 0.74457 0.11844 0.0
C204 C 0.74112 0.71309 0.08407 0.0
C205 C 0.70874 0.68109 0.10848 0.0
C206 C 0.70817 0.67848 0.16777 0.0
C207 C 0.73723 0.70902 0.20197 0.0
C208 C 0.86191 0.72259 0.22601 0.0
C209 C 0.8872 0.72012 0.17413 0.0
C210 C 0.90186 0.67596 0.14973 0.0
C211 C 0.89094 0.63428 0.1771 0.0
C212 C 0.87164 0.63758 0.23234 0.0
C213 C 0.85654 0.68153 0.25644 0.0
C214 C 0.88826 0.77548 0.32982 0.0
C215 C 0.93806 0.78346 0.31969 0.0
C216 C 0.97275 0.77231 0.36049 0.0
C217 C 0.95764 0.75323 0.41143 0.0
C218 C 0.90841 0.74085 0.41873 0.0
C219 C 0.87375 0.75194 0.37795 0.0
C220 C 0.68277 0.02689 0.34466 0.0
C221 C 0.67437 0.65166 0.07276 0.0
H222 H 0.43206 0.21493 0.35383 0.0
H223 H 0.34655 0.78179 0.96432 0.0
H224 H 0.25071 0.96819 0.42893 0.0
H225 H 0.24804 0.02801 0.50769 0.0
H226 H 0.17809 0.12744 0.39983 0.0
H227 H 0.18063 0.0672 0.32053 0.0
H228 H 0.33178 0.03314 0.37439 0.0
H229 H 0.37684 0.10832 0.38419 0.0
H230 H 0.30598 0.15517 0.23256 0.0
H231 H 0.26108 0.08002 0.22343 0.0
H232 H 0.3865 0.96857 0.28673 0.0
H233 H 0.46404 0.96868 0.23398 0.0
H234 H 0.38625 0.01096 0.08533 0.0
H235 H 0.30833 0.0096 0.13786 0.0
H236 H 0.36182 0.87506 0.22981 0.0
H237 H 0.39497 0.82242 0.1528 0.0
H238 H 0.27591 0.8638 0.04388 0.0
H239 H 0.24321 0.9164 0.1213 0.0
H240 H 0.28902 0.83076 0.29617 0.0
H241 H 0.30035 0.75914 0.234 0.0
H242 H 0.17624 0.80057 0.13337 0.0
H243 H 0.16646 0.87325 0.19436 0.0
H244 H 0.22652 0.86138 0.37646 0.0
H245 H 0.16791 0.83537 0.44694 0.0
H246 H 0.0655 0.94429 0.39957 0.0
H247 H 0.12369 0.96917 0.32757 0.0
O248 O 0.41143 0.18696 0.35155 0.0
O249 O 0.37198 0.21042 0.2752 0.0
O250 O 0.38913 0.77651 0.0562 0.0
O251 O 0.33483 0.80331 0.99485 0.0
C252 C 0.23412 0.98441 0.31871 0.0
C253 C 0.27292 0.00274 0.28616 0.0
C254 C 0.29518 0.97404 0.24267 0.0
C255 C 0.27739 0.92795 0.22949 0.0
C256 C 0.23979 0.90848 0.26289 0.0
C257 C 0.21776 0.93671 0.30801 0.0
C258 C 0.21639 0.01359 0.36891 0.0
C259 C 0.2322 0.00182 0.42296 0.0
C260 C 0.23033 0.03589 0.46804 0.0
C261 C 0.2122 0.08186 0.45973 0.0
C262 C 0.19085 0.09174 0.40751 0.0
C263 C 0.19287 0.0576 0.36215 0.0
C264 C 0.29298 0.05128 0.29839 0.0
C265 C 0.32514 0.06018 0.34418 0.0
C266 C 0.35119 0.10296 0.34933 0.0
C267 C 0.34568 0.13736 0.30852 0.0
C268 C 0.31148 0.12924 0.26437 0.0
C269 C 0.28551 0.0865 0.25928 0.0
C270 C 0.34183 0.98889 0.21601 0.0
C271 C 0.38643 0.98007 0.2436 0.0
C272 C 0.43069 0.98043 0.21364 0.0
C273 C 0.43104 0.99074 0.15612 0.0
C274 C 0.38698 0.0043 0.13016 0.0
C275 C 0.34248 0.00315 0.1599 0.0
C276 C 0.29979 0.89901 0.18127 0.0
C277 C 0.34327 0.87306 0.1891 0.0
C278 C 0.36196 0.84287 0.14516 0.0
C279 C 0.33765 0.83843 0.09247 0.0
C280 C 0.29529 0.86613 0.08406 0.0
C281 C 0.27655 0.8962 0.12814 0.0
C282 C 0.22715 0.85768 0.24966 0.0
C283 C 0.26236 0.82307 0.26281 0.0
C284 C 0.2696 0.78265 0.22639 0.0
C285 C 0.24029 0.77524 0.17776 0.0
C286 C 0.19988 0.80578 0.17013 0.0
C287 C 0.19351 0.84694 0.20574 0.0
C288 C 0.17952 0.91687 0.34585 0.0
C289 C 0.19098 0.87886 0.37998 0.0
C290 C 0.15758 0.86441 0.42087 0.0
C291 C 0.11221 0.88816 0.42944 0.0
C292 C 0.10034 0.92565 0.39462 0.0
C293 C 0.13348 0.93963 0.35311 0.0
C294 C 0.37692 0.18056 0.31068 0.0
C295 C 0.35562 0.80424 0.0469 0.0
H296 H 0.60931 0.98693 0.82706 0.0
H297 H 0.09292 0.0551 0.53916 0.0
H298 H 0.40107 0.82273 0.81666 0.0
H299 H 0.45425 0.81716 0.90041 0.0
H300 H 0.36664 0.92544 0.99014 0.0
H301 H 0.31228 0.92932 0.90748 0.0
H302 H 0.43378 0.89437 0.73101 0.0
H303 H 0.51483 0.92436 0.75988 0.0
H304 H 0.44525 0.03031 0.8736 0.0
H305 H 0.36443 0.99982 0.84432 0.0
H306 H 0.36073 0.94413 0.62241 0.0
H307 H 0.37394 0.01537 0.5678 0.0
H308 H 0.31717 0.10379 0.70834 0.0
H309 H 0.30523 0.03307 0.76285 0.0
H310 H 0.25352 0.88535 0.60396 0.0
H311 H 0.19753 0.91962 0.53511 0.0
H312 H 0.15926 0.03242 0.65961 0.0
H313 H 0.21465 0.9976 0.72786 0.0
H314 H 0.25154 0.79355 0.68526 0.0
H315 H 0.18073 0.761 0.63212 0.0
H316 H 0.08966 0.87478 0.70593 0.0
H317 H 0.16034 0.90665 0.75905 0.0
H318 H 0.32111 0.77531 0.80297 0.0
H319 H 0.30025 0.71928 0.8751 0.0
H320 H 0.17929 0.80973 0.93159 0.0
H321 H 0.20159 0.86712 0.86044 0.0
O322 O 0.57687 0.97648 0.81523 0.0
O323 O 0.53937 0.02959 0.874 0.0
O324 O 0.13392 0.98072 0.50374 0.0
O325 O 0.11509 0.04061 0.56543 0.0
C326 C 0.32702 0.88681 0.80412 0.0
C327 C 0.34491 0.92383 0.77144 0.0
C328 C 0.31645 0.94055 0.72672 0.0
C329 C 0.27106 0.91844 0.71335 0.0
C330 C 0.25521 0.87894 0.74367 0.0
C331 C 0.28232 0.86385 0.79034 0.0
C332 C 0.35301 0.87622 0.85663 0.0
C333 C 0.39227 0.84366 0.85528 0.0
C334 C 0.42232 0.84045 0.90281 0.0
C335 C 0.41373 0.87063 0.95105 0.0
C336 C 0.37315 0.90159 0.9532 0.0
C337 C 0.34237 0.90381 0.90636 0.0
C338 C 0.39341 0.94528 0.78518 0.0
C339 C 0.43619 0.92448 0.76155 0.0
C340 C 0.4824 0.94153 0.77834 0.0
C341 C 0.48655 0.97971 0.8191 0.0
C342 C 0.44338 0.00089 0.84209 0.0
C343 C 0.39719 0.98376 0.82524 0.0
C344 C 0.33199 0.98339 0.69667 0.0
C345 C 0.35269 0.97906 0.64199 0.0
C346 C 0.36063 0.01974 0.61107 0.0
C347 C 0.34713 0.06514 0.63413 0.0
C348 C 0.32851 0.06933 0.68981 0.0
C349 C 0.3215 0.02896 0.72093 0.0
C350 C 0.23825 0.93918 0.67069 0.0
C351 C 0.23301 0.91746 0.61611 0.0
C352 C 0.20102 0.93707 0.57699 0.0
C353 C 0.17389 0.97876 0.59196 0.0
C354 C 0.17956 0.00037 0.64668 0.0
C355 C 0.21131 0.98065 0.68568 0.0
C356 C 0.21088 0.85282 0.72489 0.0
C357 C 0.2158 0.81029 0.6914 0.0
C358 C 0.17543 0.79171 0.66129 0.0
C359 C 0.1302 0.81599 0.66427 0.0
C360 C 0.12442 0.85578 0.70249 0.0
C361 C 0.16457 0.87401 0.73283 0.0
C362 C 0.26345 0.82581 0.82671 0.0
C363 C 0.28977 0.78297 0.83033 0.0
C364 C 0.27768 0.7509 0.87139 0.0
C365 C 0.23816 0.76026 0.90882 0.0
C366 C 0.20958 0.80149 0.90284 0.0
C367 C 0.22235 0.83421 0.86226 0.0
C368 C 0.53573 0.99693 0.83787 0.0
C369 C 0.13975 0.99986 0.55097 0.0
H370 H 0.16486 0.75255 0.78479 0.0
H371 H 0.17412 0.2706 0.48567 0.0
H372 H 0.37223 0.57564 0.80932 0.0
H373 H 0.37393 0.63417 0.89048 0.0
H374 H 0.30912 0.53082 0.99597 0.0
H375 H 0.30686 0.47282 0.91516 0.0
H376 H 0.28976 0.59016 0.71284 0.0
H377 H 0.24458 0.66512 0.73043 0.0
H378 H 0.17979 0.60952 0.88043 0.0
H379 H 0.22503 0.53464 0.86219 0.0
H380 H 0.25383 0.51352 0.61723 0.0
H381 H 0.17811 0.50698 0.56053 0.0
H382 H 0.09717 0.4725 0.70976 0.0
H383 H 0.17261 0.47889 0.76622 0.0
H384 H 0.3277 0.42941 0.60696 0.0
H385 H 0.30133 0.38101 0.52311 0.0
H386 H 0.17489 0.33459 0.61592 0.0
H387 H 0.20173 0.38317 0.6995 0.0
H388 H 0.39327 0.37609 0.68086 0.0
H389 H 0.382 0.30158 0.62381 0.0
H390 H 0.25516 0.26974 0.72464 0.0
H391 H 0.26757 0.34336 0.78238 0.0
H392 H 0.4339 0.47495 0.81186 0.0
H393 H 0.49523 0.44505 0.87777 0.0
H394 H 0.39401 0.33652 0.92512 0.0
H395 H 0.33223 0.36747 0.86072 0.0
O396 O 0.18414 0.72352 0.78017 0.0
O397 O 0.14685 0.69056 0.85205 0.0
O398 O 0.2427 0.32492 0.46787 0.0
O399 O 0.1842 0.29133 0.51763 0.0
C400 C 0.32235 0.49134 0.80514 0.0
C401 C 0.28383 0.50989 0.77161 0.0
C402 C 0.26494 0.48251 0.72486 0.0
C403 C 0.28485 0.43709 0.71089 0.0
C404 C 0.32024 0.41676 0.74668 0.0
C405 C 0.33994 0.44395 0.79364 0.0
C406 C 0.33904 0.52007 0.85623 0.0
C407 C 0.36079 0.56486 0.85068 0.0
C408 C 0.3623 0.59808 0.8971 0.0
C409 C 0.34244 0.58655 0.94942 0.0
C410 C 0.32566 0.54005 0.95624 0.0
C411 C 0.32413 0.50695 0.91003 0.0
C412 C 0.26087 0.55709 0.78637 0.0
C413 C 0.26629 0.59451 0.74989 0.0
C414 C 0.24033 0.63721 0.75994 0.0
C415 C 0.20811 0.64308 0.80644 0.0
C416 C 0.20398 0.606 0.84396 0.0
C417 C 0.23007 0.56334 0.83391 0.0
C418 C 0.21879 0.49666 0.6959 0.0
C419 C 0.2193 0.50714 0.6383 0.0
C420 C 0.17611 0.50343 0.606 0.0
C421 C 0.13201 0.48978 0.63117 0.0
C422 C 0.13064 0.48397 0.68983 0.0
C423 C 0.17369 0.48775 0.72209 0.0
C424 C 0.26687 0.40943 0.65935 0.0
C425 C 0.29419 0.40894 0.60895 0.0
C426 C 0.27904 0.3813 0.56117 0.0
C427 C 0.23623 0.35363 0.56303 0.0
C428 C 0.20825 0.35517 0.61324 0.0
C429 C 0.22336 0.38301 0.66094 0.0
C430 C 0.33118 0.36533 0.73568 0.0
C431 C 0.36516 0.35152 0.6931 0.0
C432 C 0.35797 0.30936 0.65978 0.0
C433 C 0.31653 0.28098 0.66859 0.0
C434 C 0.28668 0.2916 0.71614 0.0
C435 C 0.29451 0.33312 0.75007 0.0
C436 C 0.37843 0.42328 0.83073 0.0
C437 C 0.42497 0.44452 0.83614 0.0
C438 C 0.46003 0.42738 0.87376 0.0
C439 C 0.44949 0.38836 0.90652 0.0
C440 C 0.40342 0.36632 0.90002 0.0
C441 C 0.3681 0.38389 0.86298 0.0
C442 C 0.17789 0.6871 0.81455 0.0
C443 C 0.22128 0.32263 0.51318 0.0
H444 H 0.01571 0.52407 0.92077 0.0
H445 H 0.86004 0.12057 0.47834 0.0
H446 H 0.87196 0.30024 0.96248 0.0
H447 H 0.88363 0.3715 0.02526 0.0
H448 H 0.75377 0.43462 0.95422 0.0
H449 H 0.74421 0.36499 0.8893 0.0
H450 H 0.94721 0.32839 0.87702 0.0
H451 H 0.98854 0.40404 0.901 0.0
H452 H 0.86089 0.48061 0.84385 0.0
H453 H 0.82033 0.40476 0.81955 0.0
H454 H 0.96391 0.26999 0.77121 0.0
H455 H 0.02092 0.3044 0.70414 0.0
H456 H 0.90251 0.39027 0.64089 0.0
H457 H 0.84583 0.35535 0.70752 0.0
H458 H 0.9179 0.18521 0.74665 0.0
H459 H 0.93477 0.13646 0.65946 0.0
H460 H 0.80856 0.19922 0.57974 0.0
H461 H 0.79322 0.24892 0.66642 0.0
H462 H 0.83821 0.14497 0.81972 0.0
H463 H 0.83114 0.07932 0.74814 0.0
H464 H 0.70879 0.15108 0.67223 0.0
H465 H 0.71782 0.21791 0.74203 0.0
H466 H 0.7583 0.21272 0.94255 0.0
H467 H 0.6763 0.21784 0.98735 0.0
H468 H 0.62524 0.30573 0.85463 0.0
H469 H 0.70602 0.29906 0.80907 0.0
O470 O 0.99883 0.49457 0.91089 0.0
O471 O 0.93176 0.53212 0.88228 0.0
O472 O 0.91632 0.10526 0.55769 0.0
O473 O 0.85422 0.13931 0.51336 0.0
C474 C 0.81677 0.2998 0.8677 0.0
C475 C 0.85524 0.31527 0.83316 0.0
C476 C 0.86666 0.28949 0.78247 0.0
C477 C 0.84186 0.24722 0.76711 0.0
C478 C 0.80278 0.2322 0.80136 0.0
C479 C 0.78796 0.26027 0.84961 0.0
C480 C 0.80728 0.32753 0.92131 0.0
C481 C 0.84469 0.32854 0.96247 0.0
C482 C 0.85217 0.36962 0.99705 0.0
C483 C 0.82073 0.40885 0.99254 0.0
C484 C 0.77906 0.40493 0.95741 0.0
C485 C 0.7726 0.36456 0.92145 0.0
C486 C 0.88065 0.36121 0.84719 0.0
C487 C 0.92836 0.36158 0.86966 0.0
C488 C 0.9518 0.40482 0.88337 0.0
C489 C 0.92793 0.4484 0.87456 0.0
C490 C 0.88026 0.44774 0.85137 0.0
C491 C 0.85697 0.4045 0.83756 0.0
C492 C 0.90107 0.30978 0.74286 0.0
C493 C 0.9506 0.29625 0.74281 0.0
C494 C 0.98292 0.31622 0.70528 0.0
C495 C 0.96572 0.3499 0.66799 0.0
C496 C 0.91647 0.36475 0.66988 0.0
C497 C 0.88413 0.34446 0.70702 0.0
C498 C 0.8543 0.22042 0.71281 0.0
C499 C 0.89444 0.18885 0.70999 0.0
C500 C 0.90369 0.16078 0.66034 0.0
C501 C 0.87295 0.16393 0.61262 0.0
C502 C 0.83308 0.19607 0.61556 0.0
C503 C 0.82426 0.22453 0.66497 0.0
C504 C 0.77917 0.18648 0.78522 0.0
C505 C 0.80798 0.14526 0.78976 0.0
C506 C 0.80472 0.10835 0.74815 0.0
C507 C 0.77087 0.11158 0.70376 0.0
C508 C 0.7358 0.14854 0.70573 0.0
C509 C 0.74016 0.18626 0.74634 0.0
C510 C 0.73786 0.25547 0.87265 0.0
C511 C 0.72886 0.23159 0.92223 0.0
C512 C 0.68217 0.23433 0.94745 0.0
C513 C 0.64473 0.26173 0.92375 0.0
C514 C 0.65343 0.28388 0.873 0.0
C515 C 0.69944 0.28016 0.84719 0.0
C516 C 0.95277 0.49429 0.8894 0.0
C517 C 0.88258 0.13427 0.55974 0.0
H518 H 0.05338 0.63436 0.79292 0.0
H519 H 0.52218 0.72949 0.06406 0.0
H520 H 0.84696 0.87714 0.76424 0.0
H521 H 0.90854 0.89415 0.69233 0.0
H522 H 0.89217 0.75167 0.61736 0.0
H523 H 0.82814 0.73588 0.6867 0.0
H524 H 0.90071 0.78041 0.8294 0.0
H525 H 0.97414 0.73005 0.81816 0.0
H526 H 0.88278 0.60995 0.76678 0.0
H527 H 0.80966 0.66088 0.77736 0.0
H528 H 0.84466 0.73024 0.93237 0.0
H529 H 0.85195 0.66439 0.9961 0.0
H530 H 0.71876 0.60287 0.9259 0.0
H531 H 0.71318 0.66728 0.85976 0.0
H532 H 0.73966 0.80788 0.98014 0.0
H533 H 0.67913 0.79785 0.05568 0.0
H534 H 0.58502 0.72075 0.93556 0.0
H535 H 0.64519 0.7318 0.86037 0.0
H536 H 0.74272 0.89655 0.90461 0.0
H537 H 0.68137 0.94279 0.96071 0.0
H538 H 0.56566 0.86471 0.873 0.0
H539 H 0.62707 0.81984 0.81532 0.0
H540 H 0.75982 0.9203 0.80099 0.0
H541 H 0.7385 0.97753 0.73061 0.0
H542 H 0.69685 0.86256 0.61197 0.0
H543 H 0.71691 0.80485 0.68371 0.0
O544 O 0.02386 0.65373 0.79652 0.0
O545 O 0.9752 0.593 0.7709 0.0
O546 O 0.60517 0.75313 0.09721 0.0
O547 O 0.54585 0.73555 0.03472 0.0
C548 C 0.79705 0.794 0.7775 0.0
C549 C 0.80535 0.75492 0.81236 0.0
C550 C 0.77153 0.74558 0.85621 0.0
C551 C 0.73233 0.77768 0.86858 0.0
C552 C 0.72576 0.81792 0.83631 0.0
C553 C 0.75545 0.82383 0.78841 0.0
C554 C 0.83273 0.80505 0.73138 0.0
C555 C 0.85558 0.8499 0.73146 0.0
C556 C 0.891 0.85961 0.69044 0.0
C557 C 0.90547 0.82418 0.64939 0.0
C558 C 0.88211 0.77961 0.64874 0.0
C559 C 0.84563 0.77044 0.68861 0.0
C560 C 0.84986 0.72435 0.80413 0.0
C561 C 0.89666 0.7433 0.81534 0.0
C562 C 0.93854 0.7144 0.80906 0.0
C563 C 0.93435 0.66593 0.79166 0.0
C564 C 0.88732 0.64711 0.78029 0.0
C565 C 0.84549 0.67609 0.78638 0.0
C566 C 0.77818 0.70381 0.8917 0.0
C567 C 0.81765 0.70205 0.92984 0.0
C568 C 0.82173 0.66452 0.96614 0.0
C569 C 0.78564 0.62897 0.96592 0.0
C570 C 0.7467 0.63019 0.92706 0.0
C571 C 0.74343 0.66698 0.88961 0.0
C572 C 0.69727 0.76948 0.91524 0.0
C573 C 0.7061 0.78856 0.97041 0.0
C574 C 0.67142 0.78302 0.01329 0.0
C575 C 0.62766 0.75793 0.00164 0.0
C576 C 0.61851 0.73995 0.94595 0.0
C577 C 0.65302 0.74573 0.90313 0.0
C578 C 0.68929 0.85489 0.85585 0.0
C579 C 0.70407 0.89133 0.89524 0.0
C580 C 0.66909 0.91782 0.92713 0.0
C581 C 0.61905 0.90735 0.92075 0.0
C582 C 0.60417 0.87371 0.87799 0.0
C583 C 0.63909 0.84804 0.84516 0.0
C584 C 0.74008 0.85861 0.74722 0.0
C585 C 0.74452 0.90745 0.76068 0.0
C586 C 0.7319 0.93997 0.72076 0.0
C587 C 0.71501 0.92409 0.66679 0.0
C588 C 0.70833 0.87536 0.65403 0.0
C589 C 0.72075 0.84264 0.69435 0.0
C590 C 0.97889 0.63522 0.78565 0.0
C591 C 0.59229 0.74905 0.04754 0.0
C592 C 0.99716 0.36462 0.6224 0.0
C593 C 0.0988 0.37676 0.46135 0.0
O594 O 0.99197 0.40612 0.60291 0.0
Zn595 Zn 0.0235 0.44368 0.53467 0.0
O596 O 0.02634 0.33435 0.5989 0.0
Zn597 Zn 0.04681 0.37231 0.54082 0.0
O598 O 0.09138 0.42426 0.58605 0.0
O599 O 0.05943 0.49559 0.57416 0.0
O600 O 0.09032 0.34091 0.48995 0.0
O601 O 0.07707 0.41685 0.47287 0.0
O602 O 0.96502 0.45767 0.48999 0.0
O603 O 0.98251 0.38086 0.48947 0.0
C604 C 0.09228 0.46955 0.59543 0.0
C605 C 0.95507 0.41496 0.47369 0.0
C606 C 0.7753 0.0797 0.65292 0.0
C607 C 0.81213 0.96847 0.49488 0.0
O608 O 0.81748 0.06692 0.63421 0.0
Zn609 Zn 0.79603 0.02822 0.57009 0.0
O610 O 0.7364 0.06599 0.6265 0.0
Zn611 Zn 0.71811 0.01948 0.55538 0.0
O612 O 0.68187 0.97115 0.59393 0.0
O613 O 0.76132 0.9752 0.61487 0.0
O614 O 0.76594 0.97575 0.50246 0.0
O615 O 0.84348 0.9927 0.52381 0.0
O616 O 0.76512 0.0769 0.51474 0.0
O617 O 0.6856 0.06272 0.50546 0.0
C618 C 0.71898 0.95707 0.62161 0.0
C619 C 0.72322 0.08687 0.49362 0.0
C620 C 0.94668 0.83215 0.60963 0.0
C621 C 0.07729 0.87271 0.47345 0.0
O622 O 0.95543 0.87327 0.5919 0.0
Zn623 Zn 0.01252 0.85607 0.54422 0.0
O624 O 0.97464 0.79695 0.5938 0.0
Zn625 Zn 0.03884 0.78332 0.54165 0.0
O626 O 0.08847 0.76548 0.59527 0.0
O627 O 0.06657 0.84139 0.60507 0.0
O628 O 0.0788 0.82944 0.4881 0.0
O629 O 0.04509 0.90107 0.49578 0.0
O630 O 0.98257 0.80934 0.48082 0.0
O631 O 0.01453 0.73666 0.48514 0.0
C632 C 0.09241 0.80626 0.62087 0.0
C633 C 0.9861 0.766 0.46188 0.0
C634 C 0.30208 0.24337 0.62575 0.0
C635 C 0.23322 0.12087 0.49496 0.0
O636 O 0.33487 0.22263 0.59409 0.0
Zn637 Zn 0.3375 0.16853 0.5273 0.0
O638 O 0.25705 0.23282 0.61843 0.0
Zn639 Zn 0.26397 0.18421 0.55794 0.0
O640 O 0.30163 0.12949 0.6001 0.0
O641 O 0.37466 0.11641 0.56124 0.0
O642 O 0.2076 0.14781 0.52879 0.0
O643 O 0.27975 0.12624 0.49128 0.0
O644 O 0.35982 0.20256 0.46086 0.0
O645 O 0.28304 0.22047 0.48351 0.0
C646 C 0.34221 0.1062 0.59761 0.0
C647 C 0.31998 0.22454 0.45054 0.0
C648 C 0.47171 0.97253 0.12013 0.0
C649 C 0.58478 0.92062 0.96707 0.0
O650 O 0.49787 0.99968 0.09122 0.0
Zn651 Zn 0.53247 0.94939 0.04597 0.0
O652 O 0.47606 0.9273 0.11294 0.0
Zn653 Zn 0.5164 0.8767 0.06201 0.0
O654 O 0.55521 0.84395 0.11459 0.0
O655 O 0.5829 0.91628 0.1016 0.0
O656 O 0.56515 0.88668 0.99294 0.0
O657 O 0.57687 0.96382 0.98403 0.0
O658 O 0.47289 0.91727 0.9992 0.0
O659 O 0.46595 0.84201 0.02228 0.0
C660 C 0.58743 0.87584 0.12384 0.0
C661 C 0.45173 0.87671 0.99389 0.0
C662 C 0.25446 0.7391 0.13252 0.0
C663 C 0.32231 0.62446 0.98782 0.0
O664 O 0.29947 0.72862 0.12362 0.0
Zn665 Zn 0.29282 0.6839 0.05846 0.0
O666 O 0.22146 0.72015 0.09993 0.0
Zn667 Zn 0.21808 0.66938 0.02936 0.0
O668 O 0.1842 0.61406 0.06029 0.0
O669 O 0.25871 0.62603 0.09497 0.0
O670 O 0.2756 0.62991 0.987 0.0
O671 O 0.34868 0.64941 0.02273 0.0
O672 O 0.2699 0.72413 0.98944 0.0
O673 O 0.1931 0.70708 0.96673 0.0
C674 C 0.21918 0.60175 0.09264 0.0
C675 C 0.23235 0.73005 0.95791 0.0
C676 C 0.6005 0.27466 0.95675 0.0
C677 C 0.46547 0.29653 0.08996 0.0
O678 O 0.5943 0.31837 0.97366 0.0
Zn679 Zn 0.5447 0.35951 0.0269 0.0
O680 O 0.57055 0.24319 0.9716 0.0
Zn681 Zn 0.5288 0.28535 0.01847 0.0
O682 O 0.48759 0.32809 0.96088 0.0
O683 O 0.51267 0.40208 0.97604 0.0
O684 O 0.47683 0.25794 0.06229 0.0
O685 O 0.48699 0.3355 0.07949 0.0
O686 O 0.58774 0.3855 0.08632 0.0
O687 O 0.57941 0.30716 0.0856 0.0
C688 C 0.48528 0.37217 0.9492 0.0
C689 C 0.59805 0.34582 0.10724 0.0
C690 C 0.87662 0.59283 0.14167 0.0
C691 C 0.83066 0.45396 0.02405 0.0
O692 O 0.90761 0.56432 0.11745 0.0
Zn693 Zn 0.8578 0.52538 0.07881 0.0
O694 O 0.83042 0.58776 0.13355 0.0
Zn695 Zn 0.78025 0.54217 0.09012 0.0
O696 O 0.74446 0.51799 0.15363 0.0
O697 O 0.82244 0.49513 0.14836 0.0
O698 O 0.79405 0.47927 0.04144 0.0
O699 O 0.87437 0.46782 0.03438 0.0
O700 O 0.8295 0.57376 0.02005 0.0
O701 O 0.74987 0.58205 0.03604 0.0
C702 C 0.78041 0.49422 0.17257 0.0
C703 C 0.78792 0.59234 0.00814 0.0
loop_
_geom_bond_atom_site_label_1
_geom_bond_atom_site_label_2
_geom_bond_distance
_geom_bond_site_symmetry_2
_ccdc_geom_bond_type
H0 O26 0.856 . S
H1 O29 0.854 . S
H2 C37 0.930 . S
H3 C38 0.930 . S
H4 C40 0.930 . S
H5 C41 0.930 . S
H6 C43 0.931 . S
H7 C44 0.930 . S
H8 C46 0.930 . S
H9 C47 0.929 . S
H10 C49 0.930 . S
H11 C50 0.931 . S
H12 C52 0.930 . S
H13 C53 0.929 . S
H14 C55 0.931 . S
H15 C56 0.930 . S
H16 C58 0.930 1_556 S
H17 C59 0.932 . S
H18 C61 0.930 . S
H19 C62 0.929 . S
H20 C64 0.931 . S
H21 C65 0.930 . S
H22 C67 0.929 . S
H23 C68 0.931 . S
H24 C70 0.930 . S
H25 C71 0.929 . S
O26 H0 0.856 . S
O26 C72 1.300 . S
O27 C72 1.209 1_655 S
O28 C73 1.199 . S
O29 H1 0.854 . S
O29 C73 1.297 . S
C30 C31 1.404 . S
C30 C35 1.397 . S
C30 C36 1.492 . S
C31 C30 1.404 . S
C31 C32 1.396 . S
C31 C42 1.492 . S
C32 C31 1.396 . S
C32 C33 1.397 . S
C32 C48 1.509 . S
C33 C32 1.397 . S
C33 C34 1.412 . S
C33 C54 1.485 . S
C34 C33 1.412 . S
C34 C35 1.388 . S
C34 C60 1.490 . S
C35 C30 1.397 . S
C35 C34 1.388 . S
C35 C66 1.519 . S
C36 C30 1.492 . S
C36 C37 1.363 . S
C36 C41 1.390 . S
C37 H2 0.930 . S
C37 C36 1.363 . S
C37 C38 1.372 . S
C38 H3 0.930 . S
C38 C37 1.372 . S
C38 C39 1.383 . S
C39 C38 1.383 . S
C39 C40 1.395 . S
C40 H4 0.930 . S
C40 C39 1.395 . S
C40 C41 1.362 . S
C41 H5 0.930 . S
C41 C36 1.390 . S
C41 C40 1.362 . S
C42 C31 1.492 . S
C42 C43 1.377 . S
C42 C47 1.397 . S
C43 H6 0.931 . S
C43 C42 1.377 . S
C43 C44 1.376 . S
C44 H7 0.930 . S
C44 C43 1.376 . S
C44 C45 1.376 . S
C45 C44 1.376 . S
C45 C46 1.378 . S
C45 C72 1.486 . S
C46 H8 0.930 . S
C46 C45 1.378 . S
C46 C47 1.376 . S
C47 H9 0.929 . S
C47 C42 1.397 . S
C47 C46 1.376 . S
C48 C32 1.509 . S
C48 C49 1.391 . S
C48 C53 1.386 . S
C49 H10 0.930 . S
C49 C48 1.391 . S
C49 C50 1.375 . S
C50 H11 0.931 . S
C50 C49 1.375 . S
C50 C51 1.375 . S
C51 C50 1.375 . S
C51 C52 1.361 . S
C52 H12 0.930 . S
C52 C51 1.361 . S
C52 C53 1.399 . S
C53 H13 0.929 . S
C53 C48 1.386 . S
C53 C52 1.399 . S
C54 C33 1.485 . S
C54 C55 1.394 . S
C54 C59 1.360 . S
C55 H14 0.931 . S
C55 C54 1.394 . S
C55 C56 1.372 . S
C56 H15 0.930 . S
C56 C55 1.372 . S
C56 C57 1.397 . S
C57 C56 1.397 . S
C57 C58 1.390 . S
C57 C73 1.476 1_554 S
C58 H16 0.930 1_554 S
C58 C57 1.390 . S
C58 C59 1.366 . S
C59 H17 0.932 . S
C59 C54 1.360 . S
C59 C58 1.366 . S
C60 C34 1.490 . S
C60 C61 1.380 . S
C60 C65 1.386 . S
C61 H18 0.930 . S
C61 C60 1.380 . S
C61 C62 1.381 . S
C62 H19 0.929 . S
C62 C61 1.381 . S
C62 C63 1.371 . S
C63 C62 1.371 . S
C63 C64 1.380 . S
C64 H20 0.931 . S
C64 C63 1.380 . S
C64 C65 1.387 . S
C65 H21 0.930 . S
C65 C60 1.386 . S
C65 C64 1.387 . S
C66 C35 1.519 . S
C66 C67 1.377 . S
C66 C71 1.361 . S
C67 H22 0.929 . S
C67 C66 1.377 . S
C67 C68 1.386 . S
C68 H23 0.931 . S
C68 C67 1.386 . S
C68 C69 1.363 . S
C69 C68 1.363 . S
C69 C70 1.385 . S
C70 H24 0.930 . S
C70 C69 1.385 . S
C70 C71 1.396 . S
C71 H25 0.929 . S
C71 C66 1.361 . S
C71 C70 1.396 . S
C72 O26 1.300 . S
C72 O27 1.209 1_455 S
C72 C45 1.486 . S
C73 O28 1.199 . S
C73 O29 1.297 . S
C73 C57 1.476 1_556 S
H74 O100 0.856 . S
H75 O103 0.854 . S
H76 C111 0.930 . S
H77 C112 0.930 . S
H78 C114 0.930 . S
H79 C115 0.930 . S
H80 C117 0.931 . S
H81 C118 0.930 . S
H82 C120 0.930 . S
H83 C121 0.929 . S
H84 C123 0.930 . S
H85 C124 0.931 . S
H86 C126 0.930 . S
H87 C127 0.929 . S
H88 C129 0.931 . S
H89 C130 0.930 . S
H90 C132 0.930 . S
H91 C133 0.932 . S
H92 C135 0.930 . S
H93 C136 0.929 . S
H94 C138 0.931 . S
H95 C139 0.930 . S
H96 C141 0.929 . S
H97 C142 0.931 . S
H98 C144 0.930 . S
H99 C145 0.929 . S
O100 H74 0.856 . S
O100 C146 1.300 . S
O101 C146 1.209 . S
O102 C147 1.199 . S
O103 H75 0.854 . S
O103 C147 1.297 . S
C104 C105 1.404 . S
C104 C109 1.397 . S
C104 C110 1.492 . S
C105 C104 1.404 . S
C105 C106 1.396 . S
C105 C116 1.492 . S
C106 C105 1.396 . S
C106 C107 1.397 . S
C106 C122 1.509 . S
C107 C106 1.397 . S
C107 C108 1.412 . S
C107 C128 1.485 . S
C108 C107 1.412 . S
C108 C109 1.388 . S
C108 C134 1.490 . S
C109 C104 1.397 . S
C109 C108 1.388 . S
C109 C140 1.519 . S
C110 C104 1.492 . S
C110 C111 1.363 . S
C110 C115 1.390 . S
C111 H76 0.930 . S
C111 C110 1.363 . S
C111 C112 1.372 . S
C112 H77 0.930 . S
C112 C111 1.372 . S
C112 C113 1.383 . S
C113 C112 1.383 . S
C113 C114 1.395 . S
C114 H78 0.930 . S
C114 C113 1.395 . S
C114 C115 1.362 . S
C115 H79 0.930 . S
C115 C110 1.390 . S
C115 C114 1.362 . S
C116 C105 1.492 . S
C116 C117 1.377 . S
C116 C121 1.397 . S
C117 H80 0.931 . S
C117 C116 1.377 . S
C117 C118 1.376 . S
C118 H81 0.930 . S
C118 C117 1.376 . S
C118 C119 1.376 . S
C119 C118 1.376 . S
C119 C120 1.378 . S
C119 C146 1.486 . S
C120 H82 0.930 . S
C120 C119 1.378 . S
C120 C121 1.376 . S
C121 H83 0.929 . S
C121 C116 1.397 . S
C121 C120 1.376 . S
C122 C106 1.509 . S
C122 C123 1.391 . S
C122 C127 1.386 . S
C123 H84 0.930 . S
C123 C122 1.391 . S
C123 C124 1.375 . S
C124 H85 0.931 . S
C124 C123 1.375 . S
C124 C125 1.375 . S
C125 C124 1.375 . S
C125 C126 1.361 . S
C126 H86 0.930 . S
C126 C125 1.361 . S
C126 C127 1.399 . S
C127 H87 0.929 . S
C127 C122 1.386 . S
C127 C126 1.399 . S
C128 C107 1.485 . S
C128 C129 1.394 . S
C128 C133 1.360 . S
C129 H88 0.931 . S
C129 C128 1.394 . S
C129 C130 1.372 . S
C130 H89 0.930 . S
C130 C129 1.372 . S
C130 C131 1.397 . S
C131 C130 1.397 . S
C131 C132 1.390 . S
C131 C147 1.476 . S
C132 H90 0.930 . S
C132 C131 1.390 . S
C132 C133 1.366 . S
C133 H91 0.932 . S
C133 C128 1.360 . S
C133 C132 1.366 . S
C134 C108 1.490 . S
C134 C135 1.380 . S
C134 C139 1.386 . S
C135 H92 0.930 . S
C135 C134 1.380 . S
C135 C136 1.381 . S
C136 H93 0.929 . S
C136 C135 1.381 . S
C136 C137 1.371 . S
C137 C136 1.371 . S
C137 C138 1.380 . S
C138 H94 0.931 . S
C138 C137 1.380 . S
C138 C139 1.387 . S
C139 H95 0.930 . S
C139 C134 1.386 . S
C139 C138 1.387 . S
C140 C109 1.519 . S
C140 C141 1.377 . S
C140 C145 1.361 . S
C141 H96 0.929 . S
C141 C140 1.377 . S
C141 C142 1.386 . S
C142 H97 0.931 . S
C142 C141 1.386 . S
C142 C143 1.363 . S
C143 C142 1.363 . S
C143 C144 1.385 . S
C144 H98 0.930 . S
C144 C143 1.385 . S
C144 C145 1.396 . S
C145 H99 0.929 . S
C145 C140 1.361 . S
C145 C144 1.396 . S
C146 O100 1.300 . S
C146 O101 1.209 . S
C146 C119 1.486 . S
C147 O102 1.199 . S
C147 O103 1.297 . S
C147 C131 1.476 . S
H148 O174 0.856 . S
H149 O177 0.854 . S
H150 C185 0.930 . S
H151 C186 0.930 . S
H152 C188 0.930 . S
H153 C189 0.930 . S
H154 C191 0.931 . S
H155 C192 0.930 . S
H156 C194 0.930 . S
H157 C195 0.929 . S
H158 C197 0.930 . S
H159 C198 0.931 . S
H160 C200 0.930 . S
H161 C201 0.929 . S
H162 C203 0.931 . S
H163 C204 0.930 . S
H164 C206 0.930 . S
H165 C207 0.932 . S
H166 C209 0.930 . S
H167 C210 0.929 . S
H168 C212 0.931 . S
H169 C213 0.930 . S
H170 C215 0.929 . S
H171 C216 0.931 . S
H172 C218 0.930 . S
H173 C219 0.929 . S
O174 H148 0.856 . S
O174 C220 1.300 1_545 S
O175 C220 1.209 . S
O176 C221 1.199 . S
O177 H149 0.854 . S
O177 C221 1.297 . S
C178 C179 1.404 . S
C178 C183 1.397 . S
C178 C184 1.492 . S
C179 C178 1.404 . S
C179 C180 1.396 . S
C179 C190 1.492 . S
C180 C179 1.396 . S
C180 C181 1.397 . S
C180 C196 1.509 . S
C181 C180 1.397 . S
C181 C182 1.412 . S
C181 C202 1.485 . S
C182 C181 1.412 . S
C182 C183 1.388 . S
C182 C208 1.490 . S
C183 C178 1.397 . S
C183 C182 1.388 . S
C183 C214 1.519 . S
C184 C178 1.492 . S
C184 C185 1.363 . S
C184 C189 1.390 . S
C185 H150 0.930 . S
C185 C184 1.363 . S
C185 C186 1.372 . S
C186 H151 0.930 . S
C186 C185 1.372 . S
C186 C187 1.383 . S
C187 C186 1.383 . S
C187 C188 1.395 . S
C188 H152 0.930 . S
C188 C187 1.395 . S
C188 C189 1.362 . S
C189 H153 0.930 . S
C189 C184 1.390 . S
C189 C188 1.362 . S
C190 C179 1.492 . S
C190 C191 1.377 . S
C190 C195 1.397 . S
C191 H154 0.931 . S
C191 C190 1.377 . S
C191 C192 1.376 . S
C192 H155 0.930 . S
C192 C191 1.376 . S
C192 C193 1.376 . S
C193 C192 1.376 . S
C193 C194 1.378 . S
C193 C220 1.486 . S
C194 H156 0.930 . S
C194 C193 1.378 . S
C194 C195 1.376 . S
C195 H157 0.929 . S
C195 C190 1.397 . S
C195 C194 1.376 . S
C196 C180 1.509 . S
C196 C197 1.391 . S
C196 C201 1.386 . S
C197 H158 0.930 . S
C197 C196 1.391 . S
C197 C198 1.375 . S
C198 H159 0.931 . S
C198 C197 1.375 . S
C198 C199 1.375 . S
C199 C198 1.375 . S
C199 C200 1.361 . S
C200 H160 0.930 . S
C200 C199 1.361 . S
C200 C201 1.399 . S
C201 H161 0.929 . S
C201 C196 1.386 . S
C201 C200 1.399 . S
C202 C181 1.485 . S
C202 C203 1.394 . S
C202 C207 1.360 . S
C203 H162 0.931 . S
C203 C202 1.394 . S
C203 C204 1.372 . S
C204 H163 0.930 . S
C204 C203 1.372 . S
C204 C205 1.397 . S
C205 C204 1.397 . S
C205 C206 1.390 . S
C205 C221 1.476 . S
C206 H164 0.930 . S
C206 C205 1.390 . S
C206 C207 1.366 . S
C207 H165 0.932 . S
C207 C202 1.360 . S
C207 C206 1.366 . S
C208 C182 1.490 . S
C208 C209 1.380 . S
C208 C213 1.386 . S
C209 H166 0.930 . S
C209 C208 1.380 . S
C209 C210 1.381 . S
C210 H167 0.929 . S
C210 C209 1.381 . S
C210 C211 1.371 . S
C211 C210 1.371 . S
C211 C212 1.380 . S
C212 H168 0.931 . S
C212 C211 1.380 . S
C212 C213 1.387 . S
C213 H169 0.930 . S
C213 C208 1.386 . S
C213 C212 1.387 . S
C214 C183 1.519 . S
C214 C215 1.377 . S
C214 C219 1.361 . S
C215 H170 0.929 . S
C215 C214 1.377 . S
C215 C216 1.386 . S
C216 H171 0.931 . S
C216 C215 1.386 . S
C216 C217 1.363 . S
C217 C216 1.363 . S
C217 C218 1.385 . S
C218 H172 0.930 . S
C218 C217 1.385 . S
C218 C219 1.396 . S
C219 H173 0.929 . S
C219 C214 1.361 . S
C219 C218 1.396 . S
C220 O174 1.300 1_565 S
C220 O175 1.209 . S
C220 C193 1.486 . S
C221 O176 1.199 . S
C221 O177 1.297 . S
C221 C205 1.476 . S
H222 O248 0.856 . S
H223 O251 0.854 . S
H224 C259 0.930 1_565 S
H225 C260 0.930 . S
H226 C262 0.930 . S
H227 C263 0.930 . S
H228 C265 0.931 . S
H229 C266 0.930 . S
H230 C268 0.930 . S
H231 C269 0.929 . S
H232 C271 0.930 . S
H233 C272 0.931 . S
H234 C274 0.930 . S
H235 C275 0.929 . S
H236 C277 0.931 . S
H237 C278 0.930 . S
H238 C280 0.930 1_556 S
H239 C281 0.932 . S
H240 C283 0.930 . S
H241 C284 0.929 . S
H242 C286 0.931 . S
H243 C287 0.930 . S
H244 C289 0.929 . S
H245 C290 0.931 . S
H246 C292 0.930 . S
H247 C293 0.929 . S
O248 H222 0.856 . S
O248 C294 1.300 . S
O249 C294 1.209 . S
O250 C295 1.199 . S
O251 H223 0.854 . S
O251 C295 1.297 . S
C252 C253 1.404 . S
C252 C257 1.397 . S
C252 C258 1.492 1_565 S
C253 C252 1.404 . S
C253 C254 1.396 . S
C253 C264 1.492 1_565 S
C254 C253 1.396 . S
C254 C255 1.397 . S
C254 C270 1.509 . S
C255 C254 1.397 . S
C255 C256 1.412 . S
C255 C276 1.485 . S
C256 C255 1.412 . S
C256 C257 1.388 . S
C256 C282 1.490 . S
C257 C252 1.397 . S
C257 C256 1.388 . S
C257 C288 1.519 . S
C258 C252 1.492 1_545 S
C258 C259 1.363 . S
C258 C263 1.390 . S
C259 H224 0.930 1_545 S
C259 C258 1.363 . S
C259 C260 1.372 . S
C260 H225 0.930 . S
C260 C259 1.372 . S
C260 C261 1.383 . S
C261 C260 1.383 . S
C261 C262 1.395 . S
C262 H226 0.930 . S
C262 C261 1.395 . S
C262 C263 1.362 . S
C263 H227 0.930 . S
C263 C258 1.390 . S
C263 C262 1.362 . S
C264 C253 1.492 1_545 S
C264 C265 1.377 . S
C264 C269 1.397 . S
C265 H228 0.931 . S
C265 C264 1.377 . S
C265 C266 1.376 . S
C266 H229 0.930 . S
C266 C265 1.376 . S
C266 C267 1.376 . S
C267 C266 1.376 . S
C267 C268 1.378 . S
C267 C294 1.486 . S
C268 H230 0.930 . S
C268 C267 1.378 . S
C268 C269 1.376 . S
C269 H231 0.929 . S
C269 C264 1.397 . S
C269 C268 1.376 . S
C270 C254 1.509 . S
C270 C271 1.391 . S
C270 C275 1.386 1_565 S
C271 H232 0.930 . S
C271 C270 1.391 . S
C271 C272 1.375 . S
C272 H233 0.931 . S
C272 C271 1.375 . S
C272 C273 1.375 1_565 S
C273 C272 1.375 1_545 S
C273 C274 1.361 . S
C274 H234 0.930 . S
C274 C273 1.361 . S
C274 C275 1.399 . S
C275 H235 0.929 . S
C275 C270 1.386 1_545 S
C275 C274 1.399 . S
C276 C255 1.485 . S
C276 C277 1.394 . S
C276 C281 1.360 . S
C277 H236 0.931 . S
C277 C276 1.394 . S
C277 C278 1.372 . S
C278 H237 0.930 . S
C278 C277 1.372 . S
C278 C279 1.397 . S
C279 C278 1.397 . S
C279 C280 1.390 . S
C279 C295 1.476 1_554 S
C280 H238 0.930 1_554 S
C280 C279 1.390 . S
C280 C281 1.366 . S
C281 H239 0.932 . S
C281 C276 1.360 . S
C281 C280 1.366 . S
C282 C256 1.490 . S
C282 C283 1.380 . S
C282 C287 1.386 . S
C283 H240 0.930 . S
C283 C282 1.380 . S
C283 C284 1.381 . S
C284 H241 0.929 . S
C284 C283 1.381 . S
C284 C285 1.371 . S
C285 C284 1.371 . S
C285 C286 1.380 . S
C286 H242 0.931 . S
C286 C285 1.380 . S
C286 C287 1.387 . S
C287 H243 0.930 . S
C287 C282 1.386 . S
C287 C286 1.387 . S
C288 C257 1.519 . S
C288 C289 1.377 . S
C288 C293 1.361 . S
C289 H244 0.929 . S
C289 C288 1.377 . S
C289 C290 1.386 . S
C290 H245 0.931 . S
C290 C289 1.386 . S
C290 C291 1.363 . S
C291 C290 1.363 . S
C291 C292 1.385 . S
C292 H246 0.930 . S
C292 C291 1.385 . S
C292 C293 1.396 . S
C293 H247 0.929 . S
C293 C288 1.361 . S
C293 C292 1.396 . S
C294 O248 1.300 . S
C294 O249 1.209 . S
C294 C267 1.486 . S
C295 O250 1.199 . S
C295 O251 1.297 . S
C295 C279 1.476 1_556 S
H296 O322 0.856 . S
H297 O325 0.854 . S
H298 C333 0.930 . S
H299 C334 0.930 . S
H300 C336 0.930 . S
H301 C337 0.930 . S
H302 C339 0.931 1_565 S
H303 C340 0.930 . S
H304 C342 0.930 . S
H305 C343 0.929 . S
H306 C345 0.930 1_565 S
H307 C346 0.931 . S
H308 C348 0.930 . S
H309 C349 0.929 . S
H310 C351 0.931 . S
H311 C352 0.930 . S
H312 C354 0.930 . S
H313 C355 0.932 . S
H314 C357 0.930 . S
H315 C358 0.929 . S
H316 C360 0.931 . S
H317 C361 0.930 . S
H318 C363 0.929 . S
H319 C364 0.931 . S
H320 C366 0.930 . S
H321 C367 0.929 . S
O322 H296 0.856 . S
O322 C368 1.300 . S
O323 C368 1.209 . S
O324 C369 1.199 . S
O325 H297 0.854 . S
O325 C369 1.297 1_545 S
C326 C327 1.404 . S
C326 C331 1.397 . S
C326 C332 1.492 . S
C327 C326 1.404 . S
C327 C328 1.396 . S
C327 C338 1.492 1_565 S
C328 C327 1.396 . S
C328 C329 1.397 . S
C328 C344 1.509 1_565 S
C329 C328 1.397 . S
C329 C330 1.412 . S
C329 C350 1.485 . S
C330 C329 1.412 . S
C330 C331 1.388 . S
C330 C356 1.490 . S
C331 C326 1.397 . S
C331 C330 1.388 . S
C331 C362 1.519 . S
C332 C326 1.492 . S
C332 C333 1.363 . S
C332 C337 1.390 . S
C333 H298 0.930 . S
C333 C332 1.363 . S
C333 C334 1.372 . S
C334 H299 0.930 . S
C334 C333 1.372 . S
C334 C335 1.383 . S
C335 C334 1.383 . S
C335 C336 1.395 . S
C336 H300 0.930 . S
C336 C335 1.395 . S
C336 C337 1.362 . S
C337 H301 0.930 . S
C337 C332 1.390 . S
C337 C336 1.362 . S
C338 C327 1.492 1_545 S
C338 C339 1.377 . S
C338 C343 1.397 . S
C339 H302 0.931 1_545 S
C339 C338 1.377 . S
C339 C340 1.376 . S
C340 H303 0.930 . S
C340 C339 1.376 . S
C340 C341 1.376 . S
C341 C340 1.376 . S
C341 C342 1.378 . S
C341 C368 1.486 . S
C342 H304 0.930 . S
C342 C341 1.378 . S
C342 C343 1.376 . S
C343 H305 0.929 . S
C343 C338 1.397 . S
C343 C342 1.376 . S
C344 C328 1.509 1_545 S
C344 C345 1.391 . S
C344 C349 1.386 . S
C345 H306 0.930 1_545 S
C345 C344 1.391 . S
C345 C346 1.375 . S
C346 H307 0.931 . S
C346 C345 1.375 . S
C346 C347 1.375 . S
C347 C346 1.375 . S
C347 C348 1.361 . S
C348 H308 0.930 . S
C348 C347 1.361 . S
C348 C349 1.399 . S
C349 H309 0.929 . S
C349 C344 1.386 . S
C349 C348 1.399 . S
C350 C329 1.485 . S
C350 C351 1.394 . S
C350 C355 1.360 1_565 S
C351 H310 0.931 . S
C351 C350 1.394 . S
C351 C352 1.372 . S
C352 H311 0.930 . S
C352 C351 1.372 . S
C352 C353 1.397 . S
C353 C352 1.397 . S
C353 C354 1.390 1_565 S
C353 C369 1.476 . S
C354 H312 0.930 . S
C354 C353 1.390 1_545 S
C354 C355 1.366 . S
C355 H313 0.932 . S
C355 C350 1.360 1_545 S
C355 C354 1.366 . S
C356 C330 1.490 . S
C356 C357 1.380 . S
C356 C361 1.386 . S
C357 H314 0.930 . S
C357 C356 1.380 . S
C357 C358 1.381 . S
C358 H315 0.929 . S
C358 C357 1.381 . S
C358 C359 1.371 . S
C359 C358 1.371 . S
C359 C360 1.380 . S
C360 H316 0.931 . S
C360 C359 1.380 . S
C360 C361 1.387 . S
C361 H317 0.930 . S
C361 C356 1.386 . S
C361 C360 1.387 . S
C362 C331 1.519 . S
C362 C363 1.377 . S
C362 C367 1.361 . S
C363 H318 0.929 . S
C363 C362 1.377 . S
C363 C364 1.386 . S
C364 H319 0.931 . S
C364 C363 1.386 . S
C364 C365 1.363 . S
C365 C364 1.363 . S
C365 C366 1.385 . S
C366 H320 0.930 . S
C366 C365 1.385 . S
C366 C367 1.396 . S
C367 H321 0.929 . S
C367 C362 1.361 . S
C367 C366 1.396 . S
C368 O322 1.300 . S
C368 O323 1.209 . S
C368 C341 1.486 . S
C369 O324 1.199 . S
C369 O325 1.297 1_565 S
C369 C353 1.476 . S
H370 O396 0.856 . S
H371 O399 0.854 . S
H372 C407 0.930 . S
H373 C408 0.930 . S
H374 C410 0.930 . S
H375 C411 0.930 . S
H376 C413 0.931 . S
H377 C414 0.930 . S
H378 C416 0.930 . S
H379 C417 0.929 . S
H380 C419 0.930 . S
H381 C420 0.931 . S
H382 C422 0.930 . S
H383 C423 0.929 . S
H384 C425 0.931 . S
H385 C426 0.930 . S
H386 C428 0.930 . S
H387 C429 0.932 . S
H388 C431 0.930 . S
H389 C432 0.929 . S
H390 C434 0.931 . S
H391 C435 0.930 . S
H392 C437 0.929 . S
H393 C438 0.931 . S
H394 C440 0.930 . S
H395 C441 0.929 . S
O396 H370 0.856 . S
O396 C442 1.300 . S
O397 C442 1.209 . S
O398 C443 1.199 . S
O399 H371 0.854 . S
O399 C443 1.297 . S
C400 C401 1.404 . S
C400 C405 1.397 . S
C400 C406 1.492 . S
C401 C400 1.404 . S
C401 C402 1.396 . S
C401 C412 1.492 . S
C402 C401 1.396 . S
C402 C403 1.397 . S
C402 C418 1.509 . S
C403 C402 1.397 . S
C403 C404 1.412 . S
C403 C424 1.485 . S
C404 C403 1.412 . S
C404 C405 1.388 . S
C404 C430 1.490 . S
C405 C400 1.397 . S
C405 C404 1.388 . S
C405 C436 1.519 . S
C406 C400 1.492 . S
C406 C407 1.363 . S
C406 C411 1.390 . S
C407 H372 0.930 . S
C407 C406 1.363 . S
C407 C408 1.372 . S
C408 H373 0.930 . S
C408 C407 1.372 . S
C408 C409 1.383 . S
C409 C408 1.383 . S
C409 C410 1.395 . S
C410 H374 0.930 . S
C410 C409 1.395 . S
C410 C411 1.362 . S
C411 H375 0.930 . S
C411 C406 1.390 . S
C411 C410 1.362 . S
C412 C401 1.492 . S
C412 C413 1.377 . S
C412 C417 1.397 . S
C413 H376 0.931 . S
C413 C412 1.377 . S
C413 C414 1.376 . S
C414 H377 0.930 . S
C414 C413 1.376 . S
C414 C415 1.376 . S
C415 C414 1.376 . S
C415 C416 1.378 . S
C415 C442 1.486 . S
C416 H378 0.930 . S
C416 C415 1.378 . S
C416 C417 1.376 . S
C417 H379 0.929 . S
C417 C412 1.397 . S
C417 C416 1.376 . S
C418 C402 1.509 . S
C418 C419 1.391 . S
C418 C423 1.386 . S
C419 H380 0.930 . S
C419 C418 1.391 . S
C419 C420 1.375 . S
C420 H381 0.931 . S
C420 C419 1.375 . S
C420 C421 1.375 . S
C421 C420 1.375 . S
C421 C422 1.361 . S
C422 H382 0.930 . S
C422 C421 1.361 . S
C422 C423 1.399 . S
C423 H383 0.929 . S
C423 C418 1.386 . S
C423 C422 1.399 . S
C424 C403 1.485 . S
C424 C425 1.394 . S
C424 C429 1.360 . S
C425 H384 0.931 . S
C425 C424 1.394 . S
C425 C426 1.372 . S
C426 H385 0.930 . S
C426 C425 1.372 . S
C426 C427 1.397 . S
C427 C426 1.397 . S
C427 C428 1.390 . S
C427 C443 1.476 . S
C428 H386 0.930 . S
C428 C427 1.390 . S
C428 C429 1.366 . S
C429 H387 0.932 . S
C429 C424 1.360 . S
C429 C428 1.366 . S
C430 C404 1.490 . S
C430 C431 1.380 . S
C430 C435 1.386 . S
C431 H388 0.930 . S
C431 C430 1.380 . S
C431 C432 1.381 . S
C432 H389 0.929 . S
C432 C431 1.381 . S
C432 C433 1.371 . S
C433 C432 1.371 . S
C433 C434 1.380 . S
C434 H390 0.931 . S
C434 C433 1.380 . S
C434 C435 1.387 . S
C435 H391 0.930 . S
C435 C430 1.386 . S
C435 C434 1.387 . S
C436 C405 1.519 . S
C436 C437 1.377 . S
C436 C441 1.361 . S
C437 H392 0.929 . S
C437 C436 1.377 . S
C437 C438 1.386 . S
C438 H393 0.931 . S
C438 C437 1.386 . S
C438 C439 1.363 . S
C439 C438 1.363 . S
C439 C440 1.385 . S
C440 H394 0.930 . S
C440 C439 1.385 . S
C440 C441 1.396 . S
C441 H395 0.929 . S
C441 C436 1.361 . S
C441 C440 1.396 . S
C442 O396 1.300 . S
C442 O397 1.209 . S
C442 C415 1.486 . S
C443 O398 1.199 . S
C443 O399 1.297 . S
C443 C427 1.476 . S
H444 O470 0.865 . S
H445 O473 0.854 . S
H446 C481 0.930 . S
H447 C482 0.930 . S
H448 C484 0.930 . S
H449 C485 0.930 . S
H450 C487 0.931 . S
H451 C488 0.930 . S
H452 C490 0.930 . S
H453 C491 0.929 . S
H454 C493 0.930 . S
H455 C494 0.931 . S
H456 C496 0.930 . S
H457 C497 0.929 . S
H458 C499 0.931 . S
H459 C500 0.930 . S
H460 C502 0.930 . S
H461 C503 0.932 . S
H462 C505 0.930 . S
H463 C506 0.929 . S
H464 C508 0.931 . S
H465 C509 0.930 . S
H466 C511 0.929 . S
H467 C512 0.931 1_554 S
H468 C514 0.930 . S
H469 C515 0.929 . S
O470 H444 0.865 . S
O470 C516 1.277 1_455 S
O471 C516 1.209 . S
O472 C517 1.199 . S
O473 H445 0.854 . S
O473 C517 1.297 . S
C474 C475 1.404 . S
C474 C479 1.397 . S
C474 C480 1.492 . S
C475 C474 1.404 . S
C475 C476 1.396 . S
C475 C486 1.492 . S
C476 C475 1.396 . S
C476 C477 1.397 . S
C476 C492 1.509 . S
C477 C476 1.397 . S
C477 C478 1.412 . S
C477 C498 1.485 . S
C478 C477 1.412 . S
C478 C479 1.388 . S
C478 C504 1.490 . S
C479 C474 1.397 . S
C479 C478 1.388 . S
C479 C510 1.519 . S
C480 C474 1.492 . S
C480 C481 1.363 . S
C480 C485 1.390 . S
C481 H446 0.930 . S
C481 C480 1.363 . S
C481 C482 1.372 1_556 S
C482 H447 0.930 . S
C482 C481 1.372 1_554 S
C482 C483 1.383 . S
C483 C482 1.383 . S
C483 C484 1.395 1_554 S
C484 H448 0.930 . S
C484 C483 1.395 1_556 S
C484 C485 1.362 . S
C485 H449 0.930 . S
C485 C480 1.390 . S
C485 C484 1.362 . S
C486 C475 1.492 . S
C486 C487 1.377 . S
C486 C491 1.397 . S
C487 H450 0.931 . S
C487 C486 1.377 . S
C487 C488 1.376 . S
C488 H451 0.930 . S
C488 C487 1.376 . S
C488 C489 1.376 . S
C489 C488 1.376 . S
C489 C490 1.378 . S
C489 C516 1.486 . S
C490 H452 0.930 . S
C490 C489 1.378 . S
C490 C491 1.376 . S
C491 H453 0.929 . S
C491 C486 1.397 . S
C491 C490 1.376 . S
C492 C476 1.509 . S
C492 C493 1.391 . S
C492 C497 1.386 . S
C493 H454 0.930 . S
C493 C492 1.391 . S
C493 C494 1.375 . S
C494 H455 0.931 . S
C494 C493 1.375 . S
C494 C495 1.375 . S
C495 C494 1.375 . S
C495 C496 1.361 . S
C496 H456 0.930 . S
C496 C495 1.361 . S
C496 C497 1.399 . S
C497 H457 0.929 . S
C497 C492 1.386 . S
C497 C496 1.399 . S
C498 C477 1.485 . S
C498 C499 1.394 . S
C498 C503 1.360 . S
C499 H458 0.931 . S
C499 C498 1.394 . S
C499 C500 1.372 . S
C500 H459 0.930 . S
C500 C499 1.372 . S
C500 C501 1.397 . S
C501 C500 1.397 . S
C501 C502 1.390 . S
C501 C517 1.476 . S
C502 H460 0.930 . S
C502 C501 1.390 . S
C502 C503 1.366 . S
C503 H461 0.932 . S
C503 C498 1.360 . S
C503 C502 1.366 . S
C504 C478 1.490 . S
C504 C505 1.380 . S
C504 C509 1.386 . S
C505 H462 0.930 . S
C505 C504 1.380 . S
C505 C506 1.381 . S
C506 H463 0.929 . S
C506 C505 1.381 . S
C506 C507 1.371 . S
C507 C506 1.371 . S
C507 C508 1.380 . S
C508 H464 0.931 . S
C508 C507 1.380 . S
C508 C509 1.387 . S
C509 H465 0.930 . S
C509 C504 1.386 . S
C509 C508 1.387 . S
C510 C479 1.519 . S
C510 C511 1.377 . S
C510 C515 1.361 . S
C511 H466 0.929 . S
C511 C510 1.377 . S
C511 C512 1.386 . S
C512 H467 0.931 1_556 S
C512 C511 1.386 . S
C512 C513 1.363 . S
C513 C512 1.363 . S
C513 C514 1.385 . S
C514 H468 0.930 . S
C514 C513 1.385 . S
C514 C515 1.396 . S
C515 H469 0.929 . S
C515 C510 1.361 . S
C515 C514 1.396 . S
C516 O470 1.277 1_655 S
C516 O471 1.209 . S
C516 C489 1.486 . S
C517 O472 1.199 . S
C517 O473 1.297 . S
C517 C501 1.476 . S
H518 O544 0.856 . S
H519 O547 0.854 . S
H520 C555 0.930 . S
H521 C556 0.948 . S
H522 C558 0.930 . S
H523 C559 0.930 . S
H524 C561 0.931 . S
H525 C562 0.930 1_455 S
H526 C564 0.930 . S
H527 C565 0.929 . S
H528 C567 0.930 . S
H529 C568 0.931 . S
H530 C570 0.930 . S
H531 C571 0.929 . S
H532 C573 0.931 . S
H533 C574 0.930 . S
H534 C576 0.930 . S
H535 C577 0.932 . S
H536 C579 0.930 . S
H537 C580 0.929 . S
H538 C582 0.931 . S
H539 C583 0.930 . S
H540 C585 0.929 . S
H541 C586 0.931 . S
H542 C588 0.930 . S
H543 C589 0.929 . S
O544 H518 0.856 . S
O544 C590 1.300 . S
O545 C590 1.209 . S
O546 C591 1.199 . S
O547 H519 0.854 . S
O547 C591 1.297 . S
C548 C549 1.404 . S
C548 C553 1.397 . S
C548 C554 1.492 . S
C549 C548 1.404 . S
C549 C550 1.396 . S
C549 C560 1.492 . S
C550 C549 1.396 . S
C550 C551 1.397 . S
C550 C566 1.509 . S
C551 C550 1.397 . S
C551 C552 1.412 . S
C551 C572 1.485 . S
C552 C551 1.412 . S
C552 C553 1.388 . S
C552 C578 1.490 . S
C553 C548 1.397 . S
C553 C552 1.388 . S
C553 C584 1.519 . S
C554 C548 1.492 . S
C554 C555 1.363 . S
C554 C559 1.390 . S
C555 H520 0.930 . S
C555 C554 1.363 . S
C555 C556 1.372 . S
C556 H521 0.948 . S
C556 C555 1.372 . S
C556 C557 1.383 . S
C557 C556 1.383 . S
C557 C558 1.395 . S
C558 H522 0.930 . S
C558 C557 1.395 . S
C558 C559 1.362 . S
C559 H523 0.930 . S
C559 C554 1.390 . S
C559 C558 1.362 . S
C560 C549 1.492 . S
C560 C561 1.377 . S
C560 C565 1.397 . S
C561 H524 0.931 . S
C561 C560 1.377 . S
C561 C562 1.376 . S
C562 H525 0.930 1_655 S
C562 C561 1.376 . S
C562 C563 1.376 . S
C563 C562 1.376 . S
C563 C564 1.378 . S
C563 C590 1.486 1_655 S
C564 H526 0.930 . S
C564 C563 1.378 . S
C564 C565 1.376 . S
C565 H527 0.929 . S
C565 C560 1.397 . S
C565 C564 1.376 . S
C566 C550 1.509 . S
C566 C567 1.391 . S
C566 C571 1.386 . S
C567 H528 0.930 . S
C567 C566 1.391 . S
C567 C568 1.375 1_556 S
C568 H529 0.931 . S
C568 C567 1.375 1_554 S
C568 C569 1.375 1_554 S
C569 C568 1.375 1_556 S
C569 C570 1.361 . S
C570 H530 0.930 . S
C570 C569 1.361 . S
C570 C571 1.399 . S
C571 H531 0.929 . S
C571 C566 1.386 . S
C571 C570 1.399 . S
C572 C551 1.485 . S
C572 C573 1.394 1_556 S
C572 C577 1.360 . S
C573 H532 0.931 . S
C573 C572 1.394 1_554 S
C573 C574 1.372 . S
C574 H533 0.930 . S
C574 C573 1.372 . S
C574 C575 1.397 . S
C575 C574 1.397 . S
C575 C576 1.390 . S
C575 C591 1.476 . S
C576 H534 0.930 . S
C576 C575 1.390 . S
C576 C577 1.366 1_554 S
C577 H535 0.932 . S
C577 C572 1.360 . S
C577 C576 1.366 1_556 S
C578 C552 1.490 . S
C578 C579 1.380 . S
C578 C583 1.386 . S
C579 H536 0.930 . S
C579 C578 1.380 . S
C579 C580 1.381 . S
C580 H537 0.929 . S
C580 C579 1.381 . S
C580 C581 1.371 . S
C581 C580 1.371 . S
C581 C582 1.380 . S
C582 H538 0.931 . S
C582 C581 1.380 . S
C582 C583 1.387 . S
C583 H539 0.930 . S
C583 C578 1.386 . S
C583 C582 1.387 . S
C584 C553 1.519 . S
C584 C585 1.377 . S
C584 C589 1.361 . S
C585 H540 0.929 . S
C585 C584 1.377 . S
C585 C586 1.386 . S
C586 H541 0.931 . S
C586 C585 1.386 . S
C586 C587 1.363 . S
C587 C586 1.363 . S
C587 C588 1.385 . S
C588 H542 0.930 . S
C588 C587 1.385 . S
C588 C589 1.396 . S
C589 H543 0.929 . S
C589 C584 1.361 . S
C589 C588 1.396 . S
C590 O544 1.300 . S
C590 O545 1.209 . S
C590 C563 1.486 1_455 S
C591 O546 1.199 . S
C591 O547 1.297 . S
C591 C575 1.476 . S
C592 O594 1.247 . S
C592 O596 1.258 . S
C593 O600 1.247 . S
C593 O601 1.258 . S
O594 C592 1.247 . S
O594 Zn595 2.028 . S
Zn595 O594 2.028 . S
Zn595 O599 2.035 1_655 S
Zn595 O601 2.035 1_655 S
Zn595 O602 2.028 . S
O596 C592 1.258 . S
O596 Zn597 2.035 1_655 S
Zn597 O596 2.035 1_455 S
Zn597 O598 2.028 . S
Zn597 O600 2.028 . S
Zn597 O603 2.035 1_455 S
O598 Zn597 2.028 . S
O598 C604 1.247 . S
O599 Zn595 2.035 1_455 S
O599 C604 1.258 . S
O600 C593 1.247 . S
O600 Zn597 2.028 . S
O601 C593 1.258 . S
O601 Zn595 2.035 1_455 S
O602 Zn595 2.028 . S
O602 C605 1.247 . S
O603 Zn597 2.035 1_655 S
O603 C605 1.258 . S
C604 O598 1.247 . S
C604 O599 1.258 . S
C605 O602 1.247 . S
C605 O603 1.258 . S
C606 O608 1.247 . S
C606 O610 1.258 . S
C607 O614 1.247 . S
C607 O615 1.258 . S
O608 C606 1.247 . S
O608 Zn609 2.028 . S
Zn609 O608 2.028 . S
Zn609 O613 2.035 1_545 S
Zn609 O615 2.035 1_545 S
Zn609 O616 2.028 . S
O610 C606 1.258 . S
O610 Zn611 2.035 1_545 S
Zn611 O610 2.035 1_565 S
Zn611 O612 2.028 . S
Zn611 O614 2.028 . S
Zn611 O617 2.035 1_565 S
O612 Zn611 2.028 . S
O612 C618 1.247 . S
O613 Zn609 2.035 1_565 S
O613 C618 1.258 . S
O614 C607 1.247 . S
O614 Zn611 2.028 . S
O615 C607 1.258 . S
O615 Zn609 2.035 1_565 S
O616 Zn609 2.028 . S
O616 C619 1.247 . S
O617 Zn611 2.035 1_545 S
O617 C619 1.258 . S
C618 O612 1.247 . S
C618 O613 1.258 . S
C619 O616 1.247 . S
C619 O617 1.258 . S
C620 O622 1.247 . S
C620 O624 1.258 . S
C621 O628 1.247 . S
C621 O629 1.258 . S
O622 C620 1.247 . S
O622 Zn623 2.028 . S
Zn623 O622 2.028 . S
Zn623 O627 2.035 . S
Zn623 O629 2.035 . S
Zn623 O630 2.028 1_455 S
O624 C620 1.258 . S
O624 Zn625 2.035 . S
Zn625 O624 2.035 . S
Zn625 O626 2.028 . S
Zn625 O628 2.028 . S
Zn625 O631 2.035 . S
O626 Zn625 2.028 . S
O626 C632 1.247 . S
O627 Zn623 2.035 . S
O627 C632 1.258 . S
O628 C621 1.247 . S
O628 Zn625 2.028 . S
O629 C621 1.258 . S
O629 Zn623 2.035 . S
O630 Zn623 2.028 1_655 S
O630 C633 1.247 . S
O631 Zn625 2.035 . S
O631 C633 1.258 1_455 S
C632 O626 1.247 . S
C632 O627 1.258 . S
C633 O630 1.247 . S
C633 O631 1.258 1_655 S
C634 O636 1.247 . S
C634 O638 1.258 . S
C635 O642 1.247 . S
C635 O643 1.258 . S
O636 C634 1.247 . S
O636 Zn637 2.028 . S
Zn637 O636 2.028 . S
Zn637 O641 2.035 . S
Zn637 O643 2.035 . S
Zn637 O644 2.028 . S
O638 C634 1.258 . S
O638 Zn639 2.035 . S
Zn639 O638 2.035 . S
Zn639 O640 2.028 . S
Zn639 O642 2.028 . S
Zn639 O645 2.035 . S
O640 Zn639 2.028 . S
O640 C646 1.247 . S
O641 Zn637 2.035 . S
O641 C646 1.258 . S
O642 C635 1.247 . S
O642 Zn639 2.028 . S
O643 C635 1.258 . S
O643 Zn637 2.035 . S
O644 Zn637 2.028 . S
O644 C647 1.247 . S
O645 Zn639 2.035 . S
O645 C647 1.258 . S
C646 O640 1.247 . S
C646 O641 1.258 . S
C647 O644 1.247 . S
C647 O645 1.258 . S
C648 O650 1.247 . S
C648 O652 1.258 . S
C649 O656 1.247 . S
C649 O657 1.258 . S
O650 C648 1.247 . S
O650 Zn651 2.028 . S
Zn651 O650 2.028 . S
Zn651 O655 2.035 . S
Zn651 O657 2.035 1_554 S
Zn651 O658 2.028 1_554 S
O652 C648 1.258 . S
O652 Zn653 2.035 . S
Zn653 O652 2.035 . S
Zn653 O654 2.028 . S
Zn653 O656 2.028 1_554 S
Zn653 O659 2.035 1_554 S
O654 Zn653 2.028 . S
O654 C660 1.247 . S
O655 Zn651 2.035 . S
O655 C660 1.258 . S
O656 C649 1.247 . S
O656 Zn653 2.028 1_556 S
O657 C649 1.258 . S
O657 Zn651 2.035 1_556 S
O658 Zn651 2.028 1_556 S
O658 C661 1.247 . S
O659 Zn653 2.035 1_556 S
O659 C661 1.258 . S
C660 O654 1.247 . S
C660 O655 1.258 . S
C661 O658 1.247 . S
C661 O659 1.258 . S
C662 O664 1.247 . S
C662 O666 1.258 . S
C663 O670 1.247 . S
C663 O671 1.258 . S
O664 C662 1.247 . S
O664 Zn665 2.028 . S
Zn665 O664 2.028 . S
Zn665 O669 2.035 . S
Zn665 O671 2.035 1_554 S
Zn665 O672 2.028 1_554 S
O666 C662 1.258 . S
O666 Zn667 2.035 . S
Zn667 O666 2.035 . S
Zn667 O668 2.028 . S
Zn667 O670 2.028 1_554 S
Zn667 O673 2.035 1_554 S
O668 Zn667 2.028 . S
O668 C674 1.247 . S
O669 Zn665 2.035 . S
O669 C674 1.258 . S
O670 C663 1.247 . S
O670 Zn667 2.028 1_556 S
O671 C663 1.258 . S
O671 Zn665 2.035 1_556 S
O672 Zn665 2.028 1_556 S
O672 C675 1.247 . S
O673 Zn667 2.035 1_556 S
O673 C675 1.258 . S
C674 O668 1.247 . S
C674 O669 1.258 . S
C675 O672 1.247 . S
C675 O673 1.258 . S
C676 O678 1.247 . S
C676 O680 1.258 . S
C677 O684 1.247 . S
C677 O685 1.258 . S
O678 C676 1.247 . S
O678 Zn679 2.028 1_556 S
Zn679 O678 2.028 1_554 S
Zn679 O683 2.035 1_554 S
Zn679 O685 2.035 . S
Zn679 O686 2.028 . S
O680 C676 1.258 . S
O680 Zn681 2.035 1_556 S
Zn681 O680 2.035 1_554 S
Zn681 O682 2.028 1_554 S
Zn681 O684 2.028 . S
Zn681 O687 2.035 . S
O682 Zn681 2.028 1_556 S
O682 C688 1.247 . S
O683 Zn679 2.035 1_556 S
O683 C688 1.258 . S
O684 C677 1.247 . S
O684 Zn681 2.028 . S
O685 C677 1.258 . S
O685 Zn679 2.035 . S
O686 Zn679 2.028 . S
O686 C689 1.247 . S
O687 Zn681 2.035 . S
O687 C689 1.258 . S
C688 O682 1.247 . S
C688 O683 1.258 . S
C689 O686 1.247 . S
C689 O687 1.258 . S
C690 O692 1.247 . S
C690 O694 1.258 . S
C691 O698 1.247 . S
C691 O699 1.258 . S
O692 C690 1.247 . S
O692 Zn693 2.028 . S
Zn693 O692 2.028 . S
Zn693 O697 2.035 . S
Zn693 O699 2.035 . S
Zn693 O700 2.028 . S
O694 C690 1.258 . S
O694 Zn695 2.035 . S
Zn695 O694 2.035 . S
Zn695 O696 2.028 . S
Zn695 O698 2.028 . S
Zn695 O701 2.035 . S
O696 Zn695 2.028 . S
O696 C702 1.247 . S
O697 Zn693 2.035 . S
O697 C702 1.258 . S
O698 C691 1.247 . S
O698 Zn695 2.028 . S
O699 C691 1.258 . S
O699 Zn693 2.035 . S
O700 Zn693 2.028 . S
O700 C703 1.247 . S
O701 Zn695 2.035 . S
O701 C703 1.258 . S
C702 O696 1.247 . S
C702 O697 1.258 . S
C703 O700 1.247 . S
C703 O701 1.258 . S
C593 C39 2.482 . S
C619 C125 1.923 . S
C633 C217 2.952 . S
C635 C261 3.012 . S
C359 C632 1.719 . S
C634 C433 2.287 . S
C592 C495 2.140 . S
C618 C587 2.165 . S
C620 C557 1.948 1_455 S
C646 C347 1.009 . S
C604 C421 1.303 . S
C606 C507 1.779 . S
C605 C137 1.824 . S
C607 C187 2.488 . S
C621 C291 3.865 . S
C647 C69 2.739 . S
C649 C581 1.509 . S
C365 C675 2.385 . S
C439 C688 3.388 . S
C483 C691 1.996 . S
C113 C689 2.012 . S
C211 C690 2.029 . S
C273 C648 2.374 1_545 S
C674 C51 1.406 . S
C677 C63 2.140 . S
C143 C702 2.443 . S
C199 C660 3.078 . S
C285 C662 2.262 . S
C661 C335 2.281 . S
C663 C409 3.158 . S
C513 C676 2.361 . S
C703 C569 1.809 1_554 S
