# Generated by pormake.
# Topology pts, (4,4)-cn, num edge types: 1
# Building blocks:
#     Node 0, Type 0, BuildingBlock: NAWXER_clean_linker_0, # of connection points: 4
#     Node 1, Type 0, BuildingBlock: NAWXER_clean_linker_0, # of connection points: 4
#     Node 2, Type 1, BuildingBlock: UXUYUI_clean_sbu_0, # of connection points: 4
#     Node 3, Type 1, BuildingBlock: UXUYUI_clean_sbu_0, # of connection points: 4
#     Edge 4, Type (0, 1), BuildingBlock: XIVTED_clean_linker_0, # of connection points: 2
#     Edge 5, Type (0, 1), BuildingBlock: XIVTED_clean_linker_0, # of connection points: 2
#     Edge 6, Type (0, 1), BuildingBlock: XIVTED_clean_linker_0, # of connection points: 2
#     Edge 7, Type (0, 1), BuildingBlock: XIVTED_clean_linker_0, # of connection points: 2
#     Edge 8, Type (0, 1), BuildingBlock: XIVTED_clean_linker_0, # of connection points: 2
#     Edge 9, Type (0, 1), BuildingBlock: XIVTED_clean_linker_0, # of connection points: 2
#     Edge 10, Type (0, 1), BuildingBlock: XIVTED_clean_linker_0, # of connection points: 2
#     Edge 11, Type (0, 1), BuildingBlock: XIVTED_clean_linker_0, # of connection points: 2
# Relax obj value: 0.000
# Max RMSD: 0.009
# Mean RMSD: 0.008
data_MOF--net-pts--node1-UXUYUI_clean_sbu_0--node2-NAWXER_clean_linker_0--edge1-XIVTED_clean_linker_0
_symmetry_space_group_name_H-M    P1
_symmetry_Int_Tables_number       1
_symmetry_cell_setting            triclinic
loop_
_symmetry_equiv_pos_as_xyz
'x, y, z'
_cell_length_a     35.58166
_cell_length_b     35.583073
_cell_length_c     51.303562
_cell_angle_alpha  90.019566
_cell_angle_beta   89.995906
_cell_angle_gamma 90.000472
loop_
_atom_site_label
_atom_site_type_symbol
_atom_site_fract_x
_atom_site_fract_y
_atom_site_fract_z
_atom_type_partial_charge
C0 C 0.62919 0.02595 0.95879 0.0
C1 C 0.63185 0.00104 0.93763 0.0
C2 C 0.59733 0.02589 0.97475 0.0
C3 C 0.56808 8e-05 0.97033 0.0
C4 C 0.60224 0.97589 0.93283 0.0
C5 C 0.57071 0.97539 0.94904 0.0
C6 C 0.53361 -2e-05 0.9866 0.0
C7 C 0.6288 0.97562 0.04183 0.0
C8 C 0.63271 0.00157 0.06232 0.0
C9 C 0.59672 0.97593 0.0261 0.0
C10 C 0.56835 0.00279 0.03017 0.0
C11 C 0.60396 0.0279 0.06668 0.0
C12 C 0.57209 0.02845 0.05079 0.0
C13 C 0.53373 0.0031 0.01412 0.0
C14 C 0.37404 0.9731 0.04403 0.0
C15 C 0.36736 0.00238 0.06183 0.0
C16 C 0.40605 0.97351 0.02825 0.0
C17 C 0.43201 0.00311 0.03012 0.0
C18 C 0.39337 0.032 0.06361 0.0
C19 C 0.42563 0.03213 0.04808 0.0
C20 C 0.46664 0.00312 0.01423 0.0
C21 C 0.37148 0.02579 0.95872 0.0
C22 C 0.36695 0.99837 0.93921 0.0
C23 C 0.40358 0.02606 0.97442 0.0
C24 C 0.43162 0.99869 0.97111 0.0
C25 C 0.39521 0.97114 0.93587 0.0
C26 C 0.42729 0.97146 0.95157 0.0
C27 C 0.46647 0.99949 0.98685 0.0
H28 H 0.65138 0.04606 0.96262 0.0
H29 H 0.59544 0.04636 0.99031 0.0
H30 H 0.60366 0.95633 0.91667 0.0
H31 H 0.54837 0.95554 0.94498 0.0
H32 H 0.6502 0.95457 0.03831 0.0
H33 H 0.59394 0.95491 0.01095 0.0
H34 H 0.60629 0.04838 0.08223 0.0
H35 H 0.55041 0.04915 0.05451 0.0
H36 H 0.35438 0.95 0.04222 0.0
H37 H 0.41078 0.95048 0.01482 0.0
H38 H 0.3891 0.05469 0.07738 0.0
H39 H 0.44552 0.05502 0.04997 0.0
H40 H 0.35065 0.04762 0.96147 0.0
H41 H 0.40679 0.04814 0.98878 0.0
H42 H 0.39245 0.94939 0.92123 0.0
H43 H 0.4487 0.95024 0.94854 0.0
N44 N 0.49993 0.99797 0.97414 0.0
N45 N 0.5002 0.0049 0.02678 0.0
C46 C 0.02474 0.62792 0.54208 0.0
C47 C 0.99849 0.63193 0.56242 0.0
C48 C 0.02442 0.59603 0.52617 0.0
C49 C 0.99731 0.56782 0.52984 0.0
C50 C 0.97185 0.60325 0.56634 0.0
C51 C 0.97134 0.57156 0.55026 0.0
C52 C 0.99709 0.53334 0.51362 0.0
C53 C 0.97543 0.62895 0.45832 0.0
C54 C 0.00181 0.63258 0.43808 0.0
C55 C 0.97507 0.59685 0.47402 0.0
C56 C 0.00167 0.56816 0.47018 0.0
C57 C 0.02791 0.60355 0.43395 0.0
C58 C 0.02779 0.57166 0.44982 0.0
C59 C 0.00117 0.53348 0.48616 0.0
C60 C 0.97133 0.37384 0.45582 0.0
C61 C 0.00104 0.36711 0.43838 0.0
C62 C 0.9714 0.40583 0.47162 0.0
C63 C 0.0011 0.43174 0.47014 0.0
C64 C 0.03078 0.39303 0.43701 0.0
C65 C 0.03059 0.42528 0.45256 0.0
C66 C 0.0007 0.46641 0.486 0.0
C67 C 0.02236 0.37189 0.54218 0.0
C68 C 0.99335 0.36631 0.56043 0.0
C69 C 0.02307 0.40409 0.52661 0.0
C70 C 0.99475 0.43135 0.52891 0.0
C71 C 0.96504 0.39377 0.56264 0.0
C72 C 0.96594 0.42609 0.54719 0.0
C73 C 0.99605 0.46626 0.5133 0.0
H74 H 0.04551 0.64949 0.53833 0.0
H75 H 0.04561 0.59334 0.51113 0.0
H76 H 0.95173 0.60491 0.58213 0.0
H77 H 0.95055 0.5499 0.55379 0.0
H78 H 0.95453 0.65055 0.46165 0.0
H79 H 0.95368 0.59428 0.48893 0.0
H80 H 0.04869 0.60567 0.41859 0.0
H81 H 0.04831 0.54974 0.44627 0.0
H82 H 0.94813 0.35425 0.45731 0.0
H83 H 0.94801 0.41062 0.48472 0.0
H84 H 0.05382 0.38873 0.42352 0.0
H85 H 0.05357 0.44512 0.45098 0.0
H86 H 0.04507 0.35181 0.54031 0.0
H87 H 0.04618 0.40804 0.51315 0.0
H88 H 0.942 0.39023 0.57621 0.0
H89 H 0.94392 0.44689 0.54936 0.0
N90 N 0.99434 0.49969 0.52604 0.0
N91 N 0.00316 0.49996 0.4735 0.0
Li92 Li 0.00236 0.03511 0.26728 0.0
Li93 Li 0.00032 0.96615 0.26776 0.0
Li94 Li 0.03545 0.00208 0.23292 0.0
Li95 Li 0.9665 -0.00027 0.23251 0.0
C96 C 0.06724 0.01361 0.29034 0.0
N97 N 0.11098 0.04343 0.32974 0.0
C98 C 0.06737 0.997 0.31502 0.0
C99 C 0.08977 0.04503 0.28558 0.0
C100 C 0.08958 0.01258 0.33471 0.0
C101 C 0.11156 0.0598 0.30579 0.0
C102 C 0.92735 0.98996 0.28478 0.0
C103 C 0.87242 0.95071 0.28906 0.0
N104 N 0.8659 0.96558 0.31307 0.0
C105 C 0.91982 0.00521 0.30935 0.0
C106 C 0.90325 0.96278 0.27443 0.0
C107 C 0.88874 0.99237 0.3234 0.0
C108 C 0.99867 0.11296 0.27861 0.0
N109 N 0.0021 0.07818 0.28931 0.0
C110 C 0.00579 0.10451 0.3321 0.0
C111 C 0.00507 0.07343 0.31553 0.0
C112 C 0.00254 0.14079 0.3216 0.0
C113 C 0.99866 0.14485 0.29451 0.0
H114 H 0.99585 0.11594 0.25774 0.0
H115 H 0.00678 0.04544 0.32359 0.0
C116 C 0.01758 0.89101 0.28084 0.0
N117 N 0.00055 0.92281 0.28956 0.0
C118 C 0.01841 0.8588 0.2964 0.0
C119 C 0.98466 0.89286 0.32976 0.0
C120 C 0.98468 0.92441 0.31362 0.0
C121 C 0.00167 0.85938 0.32123 0.0
H122 H 0.03068 0.89074 0.26182 0.0
H123 H 0.97237 0.95029 0.32047 0.0
C124 C 0.0136 0.06684 0.20983 0.0
N125 N 0.0431 0.1107 0.1704 0.0
C126 C 0.99686 0.06696 0.18519 0.0
C127 C 0.045 0.08944 0.21453 0.0
C128 C 0.01227 0.08924 0.16548 0.0
C129 C 0.0596 0.11128 0.1943 0.0
C130 C 0.99064 0.92685 0.2155 0.0
C131 C 0.00588 0.91943 0.19091 0.0
C132 C 0.96365 0.90257 0.22587 0.0
C133 C 0.99321 0.88827 0.17686 0.0
C134 C 0.95174 0.87168 0.21124 0.0
N135 N 0.96659 0.86526 0.18722 0.0
C136 C 0.11328 0.99849 0.22151 0.0
C137 C 0.07365 0.00497 0.18464 0.0
C138 C 0.14514 0.99855 0.20559 0.0
N139 N 0.07847 0.00193 0.21085 0.0
C140 C 0.10471 0.00576 0.16805 0.0
C141 C 0.141 0.00252 0.1785 0.0
H142 H 0.1163 0.99562 0.24238 0.0
H143 H 0.04564 0.00666 0.17661 0.0
C144 C 0.89123 0.01653 0.21946 0.0
N145 N 0.92313 -0.0003 0.21073 0.0
C146 C 0.859 0.01717 0.20391 0.0
C147 C 0.89324 0.98364 0.17053 0.0
C148 C 0.92481 0.98385 0.18666 0.0
C149 C 0.85966 0.00044 0.17907 0.0
H150 H 0.89089 0.02963 0.23848 0.0
H151 H 0.95076 0.97172 0.1798 0.0
O152 O 0.04538 0.99896 0.2709 0.0
O153 O 0.95773 0.00223 0.27081 0.0
O154 O 0.99911 0.04493 0.22929 0.0
O155 O 0.00276 0.9573 0.22947 0.0
H156 H 0.05031 0.97251 0.31899 0.0
H157 H 0.09036 0.05792 0.26652 0.0
H158 H 0.08978 0.00016 0.35396 0.0
H159 H 0.12894 0.08426 0.30242 0.0
H160 H 0.85359 0.92963 0.28129 0.0
H161 H 0.93792 0.02656 0.31756 0.0
H162 H 0.90796 0.95146 0.25517 0.0
H163 H 0.88275 0.00373 0.34252 0.0
H164 H 0.00822 0.10021 0.35293 0.0
H165 H 0.99616 0.1724 0.2857 0.0
H166 H 0.03253 0.83394 0.28917 0.0
H167 H 0.97114 0.89468 0.34862 0.0
H168 H 0.97238 0.04986 0.18127 0.0
H169 H 0.058 0.09003 0.23356 0.0
H170 H -0.00025 0.08942 0.14627 0.0
H171 H 0.08404 0.12873 0.19762 0.0
H172 H 0.0271 0.93767 0.18269 0.0
H173 H 0.95235 0.9072 0.24514 0.0
H174 H 0.00456 0.88236 0.15773 0.0
H175 H 0.9308 0.85271 0.21902 0.0
H176 H 0.17271 0.99605 0.21436 0.0
H177 H 0.10036 0.00826 0.14722 0.0
H178 H 0.83406 0.03113 0.21115 0.0
H179 H 0.89513 0.97015 0.15166 0.0
Li180 Li 0.96565 0.00161 0.76756 0.0
Li181 Li 0.03459 -0.00023 0.76751 0.0
Li182 Li 0.9982 0.03481 0.73294 0.0
Li183 Li 0.00079 0.96587 0.73245 0.0
C184 C 0.98711 0.06756 0.78983 0.0
N185 N 0.95747 0.11338 0.82817 0.0
C186 C 0.00466 0.07011 0.81414 0.0
C187 C 0.9548 0.08872 0.7849 0.0
C188 C 0.98917 0.09334 0.8333 0.0
C189 C 0.94015 0.11159 0.80457 0.0
C190 C 0.01126 0.92791 0.78582 0.0
C191 C 0.04959 0.87264 0.79167 0.0
N192 N 0.03604 0.86889 0.81632 0.0
C193 C 0.9973 0.92318 0.81107 0.0
C194 C 0.03726 0.90217 0.77591 0.0
C195 C 0.01035 0.8933 0.82625 0.0
C196 C 0.88825 0.99491 0.77926 0.0
N197 N 0.92275 0.0011 0.78976 0.0
C198 C 0.89613 0.0069 0.83234 0.0
C199 C 0.92724 0.00653 0.81579 0.0
C200 C 0.85996 0.00073 0.82213 0.0
C201 C 0.85636 0.99447 0.79515 0.0
H202 H 0.88552 0.99003 0.75854 0.0
H203 H 0.95505 0.01061 0.82375 0.0
C204 C 0.11119 0.01282 0.77975 0.0
N205 N 0.07798 -0.0001 0.7893 0.0
C206 C 0.14329 0.01304 0.79544 0.0
C207 C 0.10617 0.98763 0.83072 0.0
C208 C 0.07486 0.98792 0.81436 0.0
C209 C 0.14106 0.00019 0.8213 0.0
H210 H 0.11274 0.02317 0.75997 0.0
H211 H 0.04792 0.97902 0.82178 0.0
C212 C 0.93342 0.0127 0.71011 0.0
N213 N 0.88934 0.04192 0.67068 0.0
C214 C 0.93468 0.99701 0.68514 0.0
C215 C 0.90931 0.04285 0.71512 0.0
C216 C 0.91228 0.01228 0.66544 0.0
C217 C 0.88738 0.05734 0.6949 0.0
C218 C 0.07303 0.98921 0.715 0.0
C219 C 0.08123 0.00486 0.69067 0.0
C220 C 0.09583 0.96061 0.7249 0.0
C221 C 0.11172 0.99107 0.6764 0.0
C222 C 0.12608 0.94761 0.71006 0.0
N223 N 0.1333 0.96294 0.6863 0.0
C224 C 0.99923 0.11276 0.72159 0.0
C225 C 0.996 0.07297 0.68464 0.0
C226 C 0.99844 0.1446 0.70569 0.0
N227 N 0.99769 0.07786 0.71089 0.0
C228 C 0.99482 0.10397 0.66802 0.0
C229 C 0.996 0.14049 0.67847 0.0
H230 H 0.00134 0.11591 0.74249 0.0
H231 H 0.99552 0.04491 0.67659 0.0
C232 C 0.98363 0.89065 0.71969 0.0
N233 N 0.0006 0.92237 0.71076 0.0
C234 C 0.98271 0.85827 0.70429 0.0
C235 C 0.01642 0.89191 0.67071 0.0
C236 C 0.01638 0.92369 0.68665 0.0
C237 C 0.99946 0.85862 0.6795 0.0
H238 H 0.97079 0.89054 0.7388 0.0
H239 H 0.02843 0.94956 0.67956 0.0
O240 O 0.00169 0.04468 0.77093 0.0
O241 O 0.99869 0.95701 0.7707 0.0
O242 O 0.95542 0.99836 0.72957 0.0
O243 O 0.04312 0.00226 0.72912 0.0
H244 H 0.02988 0.05423 0.81822 0.0
H245 H 0.94114 0.08743 0.76612 0.0
H246 H 0.00234 0.09542 0.85225 0.0
H247 H 0.91502 0.12794 0.80106 0.0
H248 H 0.06979 0.85259 0.78425 0.0
H249 H 0.97682 0.94252 0.81896 0.0
H250 H 0.04749 0.90464 0.75617 0.0
H251 H 1e-05 0.88951 0.8459 0.0
H252 H 0.90049 0.01234 0.85287 0.0
H253 H 0.8293 0.98875 0.78637 0.0
H254 H 0.16939 0.0237 0.78751 0.0
H255 H 0.1031 0.97735 0.85047 0.0
H256 H 0.95296 0.97351 0.68096 0.0
H257 H 0.90752 0.05491 0.73441 0.0
H258 H 0.91318 0.00059 0.64598 0.0
H259 H 0.86876 0.08082 0.69847 0.0
H260 H 0.06413 0.02727 0.6828 0.0
H261 H 0.09056 0.94891 0.74396 0.0
H262 H 0.11823 0.00276 0.65747 0.0
H263 H 0.14391 0.92544 0.71749 0.0
H264 H 0.00024 0.1721 0.71464 0.0
H265 H 0.99256 0.0993 0.64723 0.0
H266 H 0.96942 0.83312 0.71181 0.0
H267 H 0.02894 0.89359 0.6515 0.0
H268 H 0.3406 0.94389 0.09097 0.0
H269 H 0.15655 0.05174 0.13906 0.0
H270 H 0.31774 0.0595 0.07131 0.0
H271 H 0.20097 0.9544 0.17854 0.0
H272 H 0.21154 0.05171 0.1103 0.0
H273 H 0.2853 0.94376 0.11944 0.0
C274 C 0.32378 0.96917 0.09256 0.0
C275 C 0.33369 0.00177 0.07882 0.0
C276 C 0.20927 0.03043 0.12529 0.0
C277 C 0.27053 0.00181 0.11123 0.0
C278 C 0.17786 0.03031 0.14159 0.0
C279 C 0.17431 0.00305 0.16118 0.0
C280 C 0.23703 0.00273 0.12837 0.0
C281 C 0.20284 0.97609 0.16381 0.0
C282 C 0.29243 0.96915 0.10891 0.0
C283 C 0.31119 0.03389 0.08175 0.0
N284 N 0.23292 0.97647 0.14748 0.0
N285 N 0.28053 0.03306 0.09754 0.0
H286 H 0.01348 0.29394 0.54776 0.0
H287 H 0.96082 0.20821 0.68699 0.0
H288 H 0.97256 0.36109 0.61192 0.0
H289 H 0.02853 0.14942 0.63021 0.0
H290 H 0.95988 0.26298 0.65836 0.0
H291 H 0.01412 0.23904 0.57632 0.0
C292 C 0.00479 0.29726 0.56786 0.0
C293 C 0.99303 0.33237 0.5774 0.0
C294 C 0.97495 0.23807 0.6522 0.0
C295 C 0.99312 0.26932 0.6101 0.0
C296 C 0.97571 0.20681 0.66861 0.0
C297 C 0.99487 0.17401 0.66111 0.0
C298 C 0.99325 0.23657 0.62798 0.0
C299 C 0.01291 0.17376 0.63672 0.0
C300 C 0.00501 0.26582 0.58412 0.0
C301 C 0.98134 0.3346 0.60353 0.0
N302 N 0.01161 0.20451 0.62105 0.0
N303 N 0.98166 0.30354 0.61893 0.0
H304 H 0.70643 0.9952 0.04764 0.0
H305 H 0.78564 0.99257 0.1935 0.0
H306 H 0.63577 0.00657 0.11553 0.0
H307 H 0.85604 0.00877 0.12583 0.0
H308 H 0.73043 0.99302 0.16523 0.0
H309 H 0.76176 0.99466 0.07601 0.0
C310 C 0.70258 0.99741 0.06853 0.0
C311 C 0.66649 0.001 0.07926 0.0
C312 C 0.75798 0.99652 0.1566 0.0
C313 C 0.72958 0.00049 0.1118 0.0
C314 C 0.78956 0.99648 0.17274 0.0
C315 C 0.82571 0.00066 0.16211 0.0
C316 C 0.76248 0.00051 0.12955 0.0
C317 C 0.8289 0.00484 0.13494 0.0
C318 C 0.73415 0.99733 0.08469 0.0
C319 C 0.66312 0.00417 0.10644 0.0
N320 N 0.79774 0.00458 0.11963 0.0
N321 N 0.69424 0.00371 0.12178 0.0
H322 H 0.05995 0.67057 0.58087 0.0
H323 H 0.94056 0.81096 0.66999 0.0
H324 H 0.93861 0.67012 0.58363 0.0
H325 H 0.05722 0.8291 0.65081 0.0
H326 H 0.94025 0.75555 0.64168 0.0
H327 H 0.06031 0.72561 0.60927 0.0
C328 C 0.03334 0.68214 0.58724 0.0
C329 C 0.99918 0.66557 0.57971 0.0
C330 C 0.9659 0.77168 0.64365 0.0
C331 C 0.99951 0.72828 0.61276 0.0
C332 C 0.96616 0.80313 0.65993 0.0
C333 C 0.99896 0.82466 0.66272 0.0
C334 C 0.99879 0.76144 0.63027 0.0
C335 C 0.03123 0.8135 0.649 0.0
C336 C 0.03361 0.71347 0.60361 0.0
C337 C 0.96567 0.68147 0.58917 0.0
N338 N 0.03037 0.7826 0.63344 0.0
N339 N 0.9667 0.71185 0.60523 0.0
H340 H 0.29366 0.01262 0.95276 0.0
H341 H 0.21361 0.98167 0.80841 0.0
H342 H 0.36328 0.98469 0.88661 0.0
H343 H 0.14549 0.0184 0.87324 0.0
H344 H 0.26857 0.98146 0.83693 0.0
H345 H 0.23881 0.01359 0.92414 0.0
C346 C 0.29747 0.00686 0.9322 0.0
C347 C 0.33321 0.99857 0.92211 0.0
C348 C 0.2416 0.98958 0.84492 0.0
C349 C 0.27037 0.99924 0.88923 0.0
C350 C 0.21022 0.98992 0.8286 0.0
C351 C 0.17479 7e-05 0.83841 0.0
C352 C 0.23764 0.99943 0.87129 0.0
C353 C 0.17207 0.00987 0.86487 0.0
C354 C 0.26608 0.00724 0.91588 0.0
C355 C 0.33626 0.99071 0.89535 0.0
N356 N 0.20304 0.0093 0.88037 0.0
N357 N 0.30529 0.99127 0.87987 0.0
H358 H 0.94309 0.3406 0.40861 0.0
H359 H 0.05144 0.15641 0.36126 0.0
H360 H 0.05826 0.3174 0.42933 0.0
H361 H 0.95445 0.20078 0.32131 0.0
H362 H 0.05115 0.21144 0.38999 0.0
H363 H 0.94335 0.28535 0.3801 0.0
C364 C 0.96835 0.32372 0.40724 0.0
C365 C 0.00071 0.33351 0.42131 0.0
C366 C 0.03 0.20915 0.3749 0.0
C367 C 0.00121 0.27041 0.38882 0.0
C368 C 0.03003 0.17772 0.35861 0.0
C369 C 0.00294 0.17413 0.3389 0.0
C370 C 0.00233 0.23691 0.37169 0.0
C371 C 0.97602 0.20267 0.33614 0.0
C372 C 0.96856 0.29239 0.39087 0.0
C373 C 0.03283 0.31094 0.41864 0.0
N374 N 0.97624 0.23277 0.35246 0.0
N375 N 0.03222 0.28031 0.40281 0.0
H376 H 0.63338 0.00328 0.88441 0.0
H377 H 0.85466 0.97592 0.87288 0.0
H378 H 0.70598 -0.00022 0.95169 0.0
H379 H 0.78818 0.02524 0.81123 0.0
H380 H 0.79953 0.97706 0.90112 0.0
H381 H 0.68894 0.00338 0.85616 0.0
C382 C 0.66106 0.00242 0.89319 0.0
C383 C 0.66521 0.00152 0.92038 0.0
C384 C 0.79713 0.98768 0.88141 0.0
C385 C 0.72867 0.00141 0.88828 0.0
C386 C 0.82867 0.98727 0.86525 0.0
C387 C 0.82636 0.00067 0.83951 0.0
C388 C 0.76277 0.00103 0.87174 0.0
C389 C 0.79139 0.01404 0.8307 0.0
C390 C 0.69268 0.00269 0.8771 0.0
C391 C 0.70165 0.00075 0.93081 0.0
N392 N 0.76099 0.01374 0.84674 0.0
N393 N 0.73202 0.00045 0.91473 0.0
H394 H 0.99582 0.70637 0.45268 0.0
H395 H 0.99424 0.78531 0.3068 0.0
H396 H 0.00772 0.63554 0.38491 0.0
H397 H 0.00996 0.85583 0.37447 0.0
H398 H 0.99479 0.73013 0.33508 0.0
H399 H 0.99581 0.76164 0.42428 0.0
C400 C 0.99828 0.70247 0.43181 0.0
C401 C 0.00182 0.66634 0.42113 0.0
C402 C 0.99817 0.7577 0.34371 0.0
C403 C 0.0019 0.72937 0.38854 0.0
C404 C 0.99807 0.78926 0.32756 0.0
C405 C 0.00206 0.82543 0.33819 0.0
C406 C 0.00203 0.76224 0.37077 0.0
C407 C 0.00617 0.82866 0.36536 0.0
C408 C 0.9985 0.73401 0.41563 0.0
C409 C 0.00533 0.66291 0.39397 0.0
N410 N 0.00595 0.79752 0.38068 0.0
N411 N 0.00514 0.69401 0.3786 0.0
loop_
_geom_bond_atom_site_label_1
_geom_bond_atom_site_label_2
_geom_bond_distance
_geom_bond_site_symmetry_2
_ccdc_geom_bond_type
C0 C1 1.366 1_545 S
C0 C2 1.384 . S
C0 H28 0.931 . S
C1 C0 1.366 1_565 S
C1 C4 1.402 . S
C2 C0 1.384 . S
C2 C3 1.381 1_545 S
C2 H29 0.930 . S
C3 C2 1.381 1_565 S
C3 C5 1.381 . S
C3 C6 1.487 . S
C4 C1 1.402 . S
C4 C5 1.387 . S
C4 H30 0.930 . S
C5 C3 1.381 . S
C5 C4 1.387 . S
C5 H31 0.931 . S
C6 C3 1.487 . S
C6 C13 1.399 1_566 S
C6 N44 1.343 . S
C7 C8 1.384 1_565 S
C7 C9 1.384 . S
C7 H32 0.931 . S
C8 C7 1.384 1_545 S
C8 C11 1.382 . S
C9 C7 1.384 . S
C9 C10 1.381 1_565 S
C9 H33 0.930 . S
C10 C9 1.381 1_545 S
C10 C12 1.381 . S
C10 C13 1.487 . S
C11 C8 1.382 . S
C11 C12 1.387 . S
C11 H34 0.930 . S
C12 C10 1.381 . S
C12 C11 1.387 . S
C12 H35 0.931 . S
C13 C6 1.399 1_544 S
C13 C10 1.487 . S
C13 N45 1.343 . S
C14 C15 1.384 1_565 S
C14 C16 1.384 . S
C14 H36 0.931 . S
C15 C14 1.384 1_545 S
C15 C18 1.382 . S
C16 C14 1.384 . S
C16 C17 1.381 1_565 S
C16 H37 0.930 . S
C17 C16 1.381 1_545 S
C17 C19 1.381 . S
C17 C20 1.487 . S
C18 C15 1.382 . S
C18 C19 1.387 . S
C18 H38 0.930 . S
C19 C17 1.381 . S
C19 C18 1.387 . S
C19 H39 0.931 . S
C20 C17 1.487 . S
C20 C27 1.399 1_544 S
C20 N45 1.343 . S
C21 C22 1.366 1_545 S
C21 C23 1.384 . S
C21 H40 0.931 . S
C22 C21 1.366 1_565 S
C22 C25 1.402 . S
C23 C21 1.384 . S
C23 C24 1.381 1_545 S
C23 H41 0.930 . S
C24 C23 1.381 1_565 S
C24 C26 1.381 . S
C24 C27 1.487 . S
C25 C22 1.402 . S
C25 C26 1.387 . S
C25 H42 0.930 . S
C26 C24 1.381 . S
C26 C25 1.387 . S
C26 H43 0.931 . S
C27 C20 1.399 1_566 S
C27 C24 1.487 . S
C27 N44 1.343 . S
H28 C0 0.931 . S
H29 C2 0.930 . S
H30 C4 0.930 . S
H31 C5 0.931 . S
H32 C7 0.931 . S
H33 C9 0.930 . S
H34 C11 0.930 . S
H35 C12 0.931 . S
H36 C14 0.931 . S
H37 C16 0.930 . S
H38 C18 0.930 . S
H39 C19 0.931 . S
H40 C21 0.931 . S
H41 C23 0.930 . S
H42 C25 0.930 . S
H43 C26 0.931 . S
N44 C6 1.343 . S
N44 C27 1.343 . S
N45 C13 1.343 . S
N45 C20 1.343 . S
C46 C47 1.366 1_455 S
C46 C48 1.384 . S
C46 H74 0.931 . S
C47 C46 1.366 1_655 S
C47 C50 1.402 . S
C48 C46 1.384 . S
C48 C49 1.381 1_455 S
C48 H75 0.930 . S
C49 C48 1.381 1_655 S
C49 C51 1.381 . S
C49 C52 1.487 . S
C50 C47 1.402 . S
C50 C51 1.387 . S
C50 H76 0.930 . S
C51 C49 1.381 . S
C51 C50 1.387 . S
C51 H77 0.931 . S
C52 C49 1.487 . S
C52 C59 1.399 1_655 S
C52 N90 1.343 . S
C53 C54 1.384 1_655 S
C53 C55 1.384 . S
C53 H78 0.931 . S
C54 C53 1.384 1_455 S
C54 C57 1.382 . S
C55 C53 1.384 . S
C55 C56 1.381 1_655 S
C55 H79 0.930 . S
C56 C55 1.381 1_455 S
C56 C58 1.381 . S
C56 C59 1.487 . S
C57 C54 1.382 . S
C57 C58 1.387 . S
C57 H80 0.930 . S
C58 C56 1.381 . S
C58 C57 1.387 . S
C58 H81 0.931 . S
C59 C52 1.399 1_455 S
C59 C56 1.487 . S
C59 N91 1.343 . S
C60 C61 1.384 1_655 S
C60 C62 1.384 . S
C60 H82 0.931 . S
C61 C60 1.384 1_455 S
C61 C64 1.382 . S
C62 C60 1.384 . S
C62 C63 1.381 1_655 S
C62 H83 0.930 . S
C63 C62 1.381 1_455 S
C63 C65 1.381 . S
C63 C66 1.487 . S
C64 C61 1.382 . S
C64 C65 1.387 . S
C64 H84 0.930 . S
C65 C63 1.381 . S
C65 C64 1.387 . S
C65 H85 0.931 . S
C66 C63 1.487 . S
C66 C73 1.399 1_455 S
C66 N91 1.343 . S
C67 C68 1.366 1_455 S
C67 C69 1.384 . S
C67 H86 0.931 . S
C68 C67 1.366 1_655 S
C68 C71 1.402 . S
C69 C67 1.384 . S
C69 C70 1.381 1_455 S
C69 H87 0.930 . S
C70 C69 1.381 1_655 S
C70 C72 1.381 . S
C70 C73 1.487 . S
C71 C68 1.402 . S
C71 C72 1.387 . S
C71 H88 0.930 . S
C72 C70 1.381 . S
C72 C71 1.387 . S
C72 H89 0.931 . S
C73 C66 1.399 1_655 S
C73 C70 1.487 . S
C73 N90 1.343 . S
H74 C46 0.931 . S
H75 C48 0.930 . S
H76 C50 0.930 . S
H77 C51 0.931 . S
H78 C53 0.931 . S
H79 C55 0.930 . S
H80 C57 0.930 . S
H81 C58 0.931 . S
H82 C60 0.931 . S
H83 C62 0.930 . S
H84 C64 0.930 . S
H85 C65 0.931 . S
H86 C67 0.931 . S
H87 C69 0.930 . S
H88 C71 0.930 . S
H89 C72 0.931 . S
N90 C52 1.343 . S
N90 C73 1.343 . S
N91 C59 1.343 . S
N91 C66 1.343 . S
Li92 N109 1.990 . S
Li92 O152 1.956 1_545 S
Li92 O153 1.970 1_455 S
Li92 O154 1.961 1_455 S
Li93 N117 1.990 . S
Li93 O152 1.970 1_655 S
Li93 O153 1.956 1_565 S
Li93 O155 1.961 1_655 S
Li94 N139 1.990 . S
Li94 O152 1.961 1_545 S
Li94 O154 1.956 1_455 S
Li94 O155 1.970 1_545 S
Li95 N145 1.990 . S
Li95 O153 1.961 1_565 S
Li95 O154 1.970 1_565 S
Li95 O155 1.956 1_655 S
C96 C98 1.348 1_545 S
C96 C99 1.356 . S
C96 O152 1.325 1_545 S
N97 C100 1.314 1_545 S
N97 C101 1.279 . S
C98 C96 1.348 1_565 S
C98 C100 1.353 . S
C98 H156 0.929 . S
C99 C96 1.356 . S
C99 C101 1.358 . S
C99 H157 0.930 . S
C100 N97 1.314 1_565 S
C100 C98 1.353 . S
C100 H158 0.930 . S
C101 N97 1.279 . S
C101 C99 1.358 . S
C101 H159 0.930 . S
C102 C105 1.348 . S
C102 C106 1.356 1_545 S
C102 O153 1.325 . S
C103 N104 1.279 . S
C103 C106 1.358 . S
C103 H160 0.930 . S
N104 C103 1.279 . S
N104 C107 1.314 1_565 S
C105 C102 1.348 . S
C105 C107 1.353 . S
C105 H161 0.929 . S
C106 C102 1.356 1_565 S
C106 C103 1.358 . S
C106 H162 0.930 . S
C107 N104 1.314 1_545 S
C107 C105 1.353 . S
C107 H163 0.930 . S
C108 N109 1.314 1_655 S
C108 C113 1.353 . S
C108 H114 0.930 . S
N109 Li92 1.990 . S
N109 C108 1.314 1_455 S
N109 C111 1.279 . S
C110 C111 1.358 . S
C110 C112 1.356 . S
C110 H164 0.930 . S
C111 N109 1.279 . S
C111 C110 1.358 . S
C111 H115 0.930 . S
C112 C110 1.356 . S
C112 C113 1.348 1_455 S
C113 C108 1.353 . S
C113 C112 1.348 1_655 S
C113 H165 0.929 . S
H114 C108 0.930 . S
H115 C111 0.930 . S
C116 N117 1.314 1_455 S
C116 C118 1.353 . S
C116 H122 0.930 . S
N117 Li93 1.990 . S
N117 C116 1.314 1_655 S
N117 C120 1.279 . S
C118 C116 1.353 . S
C118 C121 1.348 . S
C118 H166 0.929 . S
C119 C120 1.358 . S
C119 C121 1.356 1_655 S
C119 H167 0.930 . S
C120 N117 1.279 . S
C120 C119 1.358 . S
C120 H123 0.930 . S
C121 C118 1.348 . S
C121 C119 1.356 1_455 S
H122 C116 0.930 . S
H123 C120 0.930 . S
C124 C126 1.348 1_455 S
C124 C127 1.356 . S
C124 O154 1.325 1_455 S
N125 C128 1.314 1_455 S
N125 C129 1.279 . S
C126 C124 1.348 1_655 S
C126 C128 1.353 . S
C126 H168 0.929 . S
C127 C124 1.356 . S
C127 C129 1.358 . S
C127 H169 0.930 . S
C128 N125 1.314 1_655 S
C128 C126 1.353 . S
C128 H170 0.930 . S
C129 N125 1.279 . S
C129 C127 1.358 . S
C129 H171 0.930 . S
C130 C131 1.348 . S
C130 C132 1.356 1_455 S
C130 O155 1.325 . S
C131 C130 1.348 . S
C131 C133 1.353 . S
C131 H172 0.929 . S
C132 C130 1.356 1_655 S
C132 C134 1.358 . S
C132 H173 0.930 . S
C133 C131 1.353 . S
C133 N135 1.314 1_455 S
C133 H174 0.930 . S
C134 C132 1.358 . S
C134 N135 1.279 . S
C134 H175 0.930 . S
N135 C133 1.314 1_655 S
N135 C134 1.279 . S
C136 C138 1.353 . S
C136 N139 1.314 1_565 S
C136 H142 0.930 . S
C137 N139 1.279 . S
C137 C140 1.358 . S
C137 H143 0.930 . S
C138 C136 1.353 . S
C138 C141 1.348 1_565 S
C138 H176 0.929 . S
N139 Li94 1.990 . S
N139 C136 1.314 1_545 S
N139 C137 1.279 . S
C140 C137 1.358 . S
C140 C141 1.356 . S
C140 H177 0.930 . S
C141 C138 1.348 1_545 S
C141 C140 1.356 . S
H142 C136 0.930 . S
H143 C137 0.930 . S
C144 N145 1.314 1_545 S
C144 C146 1.353 . S
C144 H150 0.930 . S
N145 Li95 1.990 . S
N145 C144 1.314 1_565 S
N145 C148 1.279 . S
C146 C144 1.353 . S
C146 C149 1.348 . S
C146 H178 0.929 . S
C147 C148 1.358 . S
C147 C149 1.356 1_565 S
C147 H179 0.930 . S
C148 N145 1.279 . S
C148 C147 1.358 . S
C148 H151 0.930 . S
C149 C146 1.348 . S
C149 C147 1.356 1_545 S
H150 C144 0.930 . S
H151 C148 0.930 . S
O152 Li92 1.956 1_565 S
O152 Li93 1.970 1_455 S
O152 Li94 1.961 1_565 S
O152 C96 1.325 1_565 S
O153 Li92 1.970 1_655 S
O153 Li93 1.956 1_545 S
O153 Li95 1.961 1_545 S
O153 C102 1.325 . S
O154 Li92 1.961 1_655 S
O154 Li94 1.956 1_655 S
O154 Li95 1.970 1_545 S
O154 C124 1.325 1_655 S
O155 Li93 1.961 1_455 S
O155 Li94 1.970 1_565 S
O155 Li95 1.956 1_455 S
O155 C130 1.325 . S
H156 C98 0.929 . S
H157 C99 0.930 . S
H158 C100 0.930 . S
H159 C101 0.930 . S
H160 C103 0.930 . S
H161 C105 0.929 . S
H162 C106 0.930 . S
H163 C107 0.930 . S
H164 C110 0.930 . S
H165 C113 0.929 . S
H166 C118 0.929 . S
H167 C119 0.930 . S
H168 C126 0.929 . S
H169 C127 0.930 . S
H170 C128 0.930 . S
H171 C129 0.930 . S
H172 C131 0.929 . S
H173 C132 0.930 . S
H174 C133 0.930 . S
H175 C134 0.930 . S
H176 C138 0.929 . S
H177 C140 0.930 . S
H178 C146 0.929 . S
H179 C147 0.930 . S
Li180 N197 1.990 . S
Li180 O240 1.956 1_655 S
Li180 O241 1.970 1_545 S
Li180 O242 1.961 1_545 S
Li181 N205 1.990 . S
Li181 O240 1.970 1_565 S
Li181 O241 1.956 1_455 S
Li181 O243 1.961 1_565 S
Li182 N227 1.990 . S
Li182 O240 1.961 1_655 S
Li182 O242 1.956 1_545 S
Li182 O243 1.970 1_655 S
Li183 N233 1.990 . S
Li183 O241 1.961 1_455 S
Li183 O242 1.970 1_455 S
Li183 O243 1.956 1_565 S
C184 C186 1.348 . S
C184 C187 1.356 1_455 S
C184 O240 1.325 . S
N185 C188 1.314 1_655 S
N185 C189 1.279 . S
C186 C184 1.348 . S
C186 C188 1.353 . S
C186 H244 0.929 . S
C187 C184 1.356 1_655 S
C187 C189 1.358 . S
C187 H245 0.930 . S
C188 N185 1.314 1_455 S
C188 C186 1.353 . S
C188 H246 0.930 . S
C189 N185 1.279 . S
C189 C187 1.358 . S
C189 H247 0.930 . S
C190 C193 1.348 1_455 S
C190 C194 1.356 . S
C190 O241 1.325 1_455 S
C191 N192 1.279 . S
C191 C194 1.358 . S
C191 H248 0.930 . S
N192 C191 1.279 . S
N192 C195 1.314 1_455 S
C193 C190 1.348 1_655 S
C193 C195 1.353 . S
C193 H249 0.929 . S
C194 C190 1.356 . S
C194 C191 1.358 . S
C194 H250 0.930 . S
C195 N192 1.314 1_655 S
C195 C193 1.353 . S
C195 H251 0.930 . S
C196 N197 1.314 1_565 S
C196 C201 1.353 . S
C196 H202 0.930 . S
N197 Li180 1.990 . S
N197 C196 1.314 1_545 S
N197 C199 1.279 . S
C198 C199 1.358 . S
C198 C200 1.356 . S
C198 H252 0.930 . S
C199 N197 1.279 . S
C199 C198 1.358 . S
C199 H203 0.930 . S
C200 C198 1.356 . S
C200 C201 1.348 1_545 S
C201 C196 1.353 . S
C201 C200 1.348 1_565 S
C201 H253 0.929 . S
H202 C196 0.930 . S
H203 C199 0.930 . S
C204 N205 1.314 1_545 S
C204 C206 1.353 . S
C204 H210 0.930 . S
N205 Li181 1.990 . S
N205 C204 1.314 1_565 S
N205 C208 1.279 . S
C206 C204 1.353 . S
C206 C209 1.348 . S
C206 H254 0.929 . S
C207 C208 1.358 . S
C207 C209 1.356 1_565 S
C207 H255 0.930 . S
C208 N205 1.279 . S
C208 C207 1.358 . S
C208 H211 0.930 . S
C209 C206 1.348 . S
C209 C207 1.356 1_545 S
H210 C204 0.930 . S
H211 C208 0.930 . S
C212 C214 1.348 1_545 S
C212 C215 1.356 . S
C212 O242 1.325 1_545 S
N213 C216 1.314 1_545 S
N213 C217 1.279 . S
C214 C212 1.348 1_565 S
C214 C216 1.353 . S
C214 H256 0.929 . S
C215 C212 1.356 . S
C215 C217 1.358 . S
C215 H257 0.930 . S
C216 N213 1.314 1_565 S
C216 C214 1.353 . S
C216 H258 0.930 . S
C217 N213 1.279 . S
C217 C215 1.358 . S
C217 H259 0.930 . S
C218 C219 1.348 . S
C218 C220 1.356 1_545 S
C218 O243 1.325 . S
C219 C218 1.348 . S
C219 C221 1.353 . S
C219 H260 0.929 . S
C220 C218 1.356 1_565 S
C220 C222 1.358 . S
C220 H261 0.930 . S
C221 C219 1.353 . S
C221 N223 1.314 1_545 S
C221 H262 0.930 . S
C222 C220 1.358 . S
C222 N223 1.279 . S
C222 H263 0.930 . S
N223 C221 1.314 1_565 S
N223 C222 1.279 . S
C224 C226 1.353 . S
C224 N227 1.314 1_455 S
C224 H230 0.930 . S
C225 N227 1.279 . S
C225 C228 1.358 . S
C225 H231 0.930 . S
C226 C224 1.353 . S
C226 C229 1.348 . S
C226 H264 0.929 . S
N227 Li182 1.990 . S
N227 C224 1.314 1_655 S
N227 C225 1.279 . S
C228 C225 1.358 . S
C228 C229 1.356 1_655 S
C228 H265 0.930 . S
C229 C226 1.348 . S
C229 C228 1.356 1_455 S
H230 C224 0.930 . S
H231 C225 0.930 . S
C232 N233 1.314 1_655 S
C232 C234 1.353 . S
C232 H238 0.930 . S
N233 Li183 1.990 . S
N233 C232 1.314 1_455 S
N233 C236 1.279 . S
C234 C232 1.353 . S
C234 C237 1.348 1_655 S
C234 H266 0.929 . S
C235 C236 1.358 . S
C235 C237 1.356 . S
C235 H267 0.930 . S
C236 N233 1.279 . S
C236 C235 1.358 . S
C236 H239 0.930 . S
C237 C234 1.348 1_455 S
C237 C235 1.356 . S
H238 C232 0.930 . S
H239 C236 0.930 . S
O240 Li180 1.956 1_455 S
O240 Li181 1.970 1_545 S
O240 Li182 1.961 1_455 S
O240 C184 1.325 . S
O241 Li180 1.970 1_565 S
O241 Li181 1.956 1_655 S
O241 Li183 1.961 1_655 S
O241 C190 1.325 1_655 S
O242 Li180 1.961 1_565 S
O242 Li182 1.956 1_565 S
O242 Li183 1.970 1_655 S
O242 C212 1.325 1_565 S
O243 Li181 1.961 1_545 S
O243 Li182 1.970 1_455 S
O243 Li183 1.956 1_545 S
O243 C218 1.325 . S
H244 C186 0.929 . S
H245 C187 0.930 . S
H246 C188 0.930 . S
H247 C189 0.930 . S
H248 C191 0.930 . S
H249 C193 0.929 . S
H250 C194 0.930 . S
H251 C195 0.930 . S
H252 C198 0.930 . S
H253 C201 0.929 . S
H254 C206 0.929 . S
H255 C207 0.930 . S
H256 C214 0.929 . S
H257 C215 0.930 . S
H258 C216 0.930 . S
H259 C217 0.930 . S
H260 C219 0.929 . S
H261 C220 0.930 . S
H262 C221 0.930 . S
H263 C222 0.930 . S
H264 C226 0.929 . S
H265 C228 0.930 . S
H266 C234 0.929 . S
H267 C235 0.930 . S
H268 C274 0.930 . S
H269 C278 0.930 . S
H270 C283 0.929 . S
H271 C281 0.929 . S
H272 C276 0.929 . S
H273 C282 0.929 . S
C274 H268 0.930 . S
C274 C275 1.387 . S
C274 C282 1.378 . S
C275 C274 1.387 . S
C275 C283 1.413 1_565 S
C276 H272 0.929 . S
C276 C278 1.378 . S
C276 C280 1.369 . S
C277 C280 1.462 1_565 S
C277 C282 1.350 . S
C277 N285 1.427 1_565 S
C278 H269 0.930 . S
C278 C276 1.378 . S
C278 C279 1.367 . S
C279 C278 1.367 . S
C279 C281 1.433 1_545 S
C280 C276 1.369 . S
C280 C277 1.462 1_545 S
C280 N284 1.408 1_545 S
C281 H271 0.929 . S
C281 C279 1.433 1_565 S
C281 N284 1.384 . S
C282 H273 0.929 . S
C282 C274 1.378 . S
C282 C277 1.350 . S
C283 H270 0.929 . S
C283 C275 1.413 1_545 S
C283 N285 1.384 . S
N284 C280 1.408 1_565 S
N284 C281 1.384 . S
N285 C277 1.427 1_545 S
N285 C283 1.384 . S
H286 C292 0.930 . S
H287 C296 0.930 . S
H288 C301 0.929 . S
H289 C299 0.929 . S
H290 C294 0.929 . S
H291 C300 0.929 . S
C292 H286 0.930 . S
C292 C293 1.379 . S
C292 C300 1.378 . S
C293 C292 1.379 . S
C293 C301 1.422 1_455 S
C294 H290 0.929 . S
C294 C296 1.378 . S
C294 C298 1.351 . S
C295 C298 1.462 1_455 S
C295 C300 1.350 . S
C295 N303 1.427 1_455 S
C296 H287 0.930 . S
C296 C294 1.378 . S
C296 C297 1.361 1_655 S
C297 C296 1.361 1_455 S
C297 C299 1.439 . S
C298 C294 1.351 . S
C298 C295 1.462 1_655 S
C298 N302 1.426 1_655 S
C299 H289 0.929 . S
C299 C297 1.439 . S
C299 N302 1.384 . S
C300 H291 0.929 . S
C300 C292 1.378 . S
C300 C295 1.350 . S
C301 H288 0.929 . S
C301 C293 1.422 1_655 S
C301 N303 1.384 . S
N302 C298 1.426 1_455 S
N302 C299 1.384 . S
N303 C295 1.427 1_655 S
N303 C301 1.384 . S
H304 C310 0.930 . S
H305 C314 0.930 . S
H306 C319 0.929 . S
H307 C317 0.929 . S
H308 C312 0.929 . S
H309 C318 0.929 . S
C310 H304 0.930 . S
C310 C311 1.369 . S
C310 C318 1.378 . S
C311 C310 1.369 . S
C311 C319 1.431 1_565 S
C312 H308 0.929 . S
C312 C314 1.378 . S
C312 C316 1.350 . S
C313 C316 1.462 1_565 S
C313 C318 1.351 . S
C313 N321 1.426 1_565 S
C314 H305 0.930 . S
C314 C312 1.378 . S
C314 C315 1.367 . S
C315 C314 1.367 . S
C315 C317 1.433 1_545 S
C316 C312 1.350 . S
C316 C313 1.462 1_545 S
C316 N320 1.427 1_545 S
C317 H307 0.929 . S
C317 C315 1.433 1_565 S
C317 N320 1.384 . S
C318 H309 0.929 . S
C318 C310 1.378 . S
C318 C313 1.351 . S
C319 H306 0.929 . S
C319 C311 1.431 1_545 S
C319 N321 1.384 . S
N320 C316 1.427 1_565 S
N320 C317 1.384 . S
N321 C313 1.426 1_545 S
N321 C319 1.384 . S
H322 C328 0.930 . S
H323 C332 0.930 . S
H324 C337 0.929 . S
H325 C335 0.929 . S
H326 C330 0.929 . S
H327 C336 0.929 . S
C328 H322 0.930 . S
C328 C329 1.384 . S
C328 C336 1.378 . S
C329 C328 1.384 . S
C329 C337 1.416 1_455 S
C330 H326 0.929 . S
C330 C332 1.378 . S
C330 C334 1.350 . S
C331 C334 1.461 1_455 S
C331 C336 1.368 . S
C331 N339 1.409 1_455 S
C332 H323 0.930 . S
C332 C330 1.378 . S
C332 C333 1.367 . S
C333 C332 1.367 . S
C333 C335 1.433 1_655 S
C334 C330 1.350 . S
C334 C331 1.461 1_655 S
C334 N338 1.427 1_655 S
C335 H325 0.929 . S
C335 C333 1.433 1_455 S
C335 N338 1.384 . S
C336 H327 0.929 . S
C336 C328 1.378 . S
C336 C331 1.368 . S
C337 H324 0.929 . S
C337 C329 1.416 1_655 S
C337 N339 1.384 . S
N338 C334 1.427 1_455 S
N338 C335 1.384 . S
N339 C331 1.409 1_655 S
N339 C337 1.384 . S
H340 C346 0.930 . S
H341 C350 0.930 . S
H342 C355 0.929 . S
H343 C353 0.929 . S
H344 C348 0.929 . S
H345 C354 0.929 . S
C346 H340 0.930 . S
C346 C347 1.367 1_565 S
C346 C354 1.378 . S
C347 C346 1.367 1_545 S
C347 C355 1.433 . S
C348 H344 0.929 . S
C348 C350 1.378 . S
C348 C352 1.355 . S
C349 C352 1.462 . S
C349 C354 1.349 1_545 S
C349 N357 1.428 . S
C350 H341 0.930 . S
C350 C348 1.378 . S
C350 C351 1.367 . S
C351 C350 1.367 . S
C351 C353 1.433 1_545 S
C352 C348 1.355 . S
C352 C349 1.462 . S
C352 N356 1.423 1_545 S
C353 H343 0.929 . S
C353 C351 1.433 1_565 S
C353 N356 1.384 . S
C354 H345 0.929 . S
C354 C346 1.378 . S
C354 C349 1.349 1_565 S
C355 H342 0.929 . S
C355 C347 1.433 . S
C355 N357 1.384 . S
N356 C352 1.423 1_565 S
N356 C353 1.384 . S
N357 C349 1.428 . S
N357 C355 1.384 . S
H358 C364 0.930 . S
H359 C368 0.930 . S
H360 C373 0.929 . S
H361 C371 0.929 . S
H362 C366 0.929 . S
H363 C372 0.929 . S
C364 H358 0.930 . S
C364 C365 1.387 . S
C364 C372 1.378 . S
C365 C364 1.387 . S
C365 C373 1.413 1_655 S
C366 H362 0.929 . S
C366 C368 1.378 . S
C366 C370 1.369 . S
C367 C370 1.462 1_655 S
C367 C372 1.350 . S
C367 N375 1.427 1_655 S
C368 H359 0.930 . S
C368 C366 1.378 . S
C368 C369 1.367 . S
C369 C368 1.367 . S
C369 C371 1.433 1_455 S
C370 C366 1.369 . S
C370 C367 1.462 1_455 S
C370 N374 1.408 1_455 S
C371 H361 0.929 . S
C371 C369 1.433 1_655 S
C371 N374 1.384 . S
C372 H363 0.929 . S
C372 C364 1.378 . S
C372 C367 1.350 . S
C373 H360 0.929 . S
C373 C365 1.413 1_455 S
C373 N375 1.384 . S
N374 C370 1.408 1_655 S
N374 C371 1.384 . S
N375 C367 1.427 1_455 S
N375 C373 1.384 . S
H376 C382 0.930 . S
H377 C386 0.930 . S
H378 C391 0.929 . S
H379 C389 0.929 . S
H380 C384 0.929 . S
H381 C390 0.929 . S
C382 H376 0.930 . S
C382 C383 1.367 . S
C382 C390 1.378 . S
C383 C382 1.367 . S
C383 C391 1.433 1_565 S
C384 H380 0.929 . S
C384 C386 1.378 . S
C384 C388 1.350 1_545 S
C385 C388 1.462 . S
C385 C390 1.354 . S
C385 N393 1.424 1_565 S
C386 H377 0.930 . S
C386 C384 1.378 . S
C386 C387 1.364 1_545 S
C387 C386 1.364 1_565 S
C387 C389 1.436 . S
C388 C384 1.350 1_565 S
C388 C385 1.462 . S
C388 N392 1.427 . S
C389 H379 0.929 . S
C389 C387 1.436 . S
C389 N392 1.384 . S
C390 H381 0.929 . S
C390 C382 1.378 . S
C390 C385 1.354 . S
C391 H378 0.929 . S
C391 C383 1.433 1_545 S
C391 N393 1.384 . S
N392 C388 1.427 . S
N392 C389 1.384 . S
N393 C385 1.424 1_545 S
N393 C391 1.384 . S
H394 C400 0.930 . S
H395 C404 0.930 . S
H396 C409 0.929 . S
H397 C407 0.929 . S
H398 C402 0.929 . S
H399 C408 0.929 . S
C400 H394 0.930 . S
C400 C401 1.376 . S
C400 C408 1.378 . S
C401 C400 1.376 . S
C401 C409 1.425 1_455 S
C402 H398 0.929 . S
C402 C404 1.378 . S
C402 C406 1.349 . S
C403 C406 1.463 1_455 S
C403 C408 1.350 . S
C403 N411 1.427 1_455 S
C404 H395 0.930 . S
C404 C402 1.378 . S
C404 C405 1.361 1_655 S
C405 C404 1.361 1_455 S
C405 C407 1.439 . S
C406 C402 1.349 . S
C406 C403 1.463 1_655 S
C406 N410 1.429 1_655 S
C407 H397 0.929 . S
C407 C405 1.439 . S
C407 N410 1.384 . S
C408 H399 0.929 . S
C408 C400 1.378 . S
C408 C403 1.350 . S
C409 H396 0.929 . S
C409 C401 1.425 1_655 S
C409 N411 1.384 . S
N410 C406 1.429 1_455 S
N410 C407 1.384 . S
N411 C403 1.427 1_655 S
N411 C409 1.384 . S
C279 C141 1.491 . S
C275 C15 1.485 1_565 S
C297 C229 1.491 . S
C293 C68 1.487 1_455 S
C315 C149 1.492 . S
C311 C8 1.488 1_565 S
C333 C237 1.492 1_655 S
C329 C47 1.493 1_455 S
C351 C209 1.492 . S
C347 C22 1.491 1_545 S
C369 C112 1.491 . S
C365 C61 1.488 1_655 S
C387 C200 1.491 1_565 S
C383 C1 1.496 . S
C401 C54 1.490 . S
C405 C121 1.493 . S
