# Generated by pormake.
# Topology eea, (3,6)-cn, num edge types: 1
# Building blocks:
#     Node 0, Type 0, BuildingBlock: BELTOD_clean_linker_0, # of connection points: 3
#     Node 1, Type 0, BuildingBlock: BELTOD_clean_linker_0, # of connection points: 3
#     Node 2, Type 0, BuildingBlock: BELTOD_clean_linker_0, # of connection points: 3
#     Node 3, Type 0, BuildingBlock: BELTOD_clean_linker_0, # of connection points: 3
#     Node 4, Type 0, BuildingBlock: BELTOD_clean_linker_0, # of connection points: 3
#     Node 5, Type 0, BuildingBlock: BELTOD_clean_linker_0, # of connection points: 3
#     Node 6, Type 0, BuildingBlock: BELTOD_clean_linker_0, # of connection points: 3
#     Node 7, Type 0, BuildingBlock: BELTOD_clean_linker_0, # of connection points: 3
#     Node 8, Type 0, BuildingBlock: BELTOD_clean_linker_0, # of connection points: 3
#     Node 9, Type 0, BuildingBlock: BELTOD_clean_linker_0, # of connection points: 3
#     Node 10, Type 0, BuildingBlock: BELTOD_clean_linker_0, # of connection points: 3
#     Node 11, Type 0, BuildingBlock: BELTOD_clean_linker_0, # of connection points: 3
#     Node 12, Type 0, BuildingBlock: BELTOD_clean_linker_0, # of connection points: 3
#     Node 13, Type 0, BuildingBlock: BELTOD_clean_linker_0, # of connection points: 3
#     Node 14, Type 0, BuildingBlock: BELTOD_clean_linker_0, # of connection points: 3
#     Node 15, Type 0, BuildingBlock: BELTOD_clean_linker_0, # of connection points: 3
#     Node 16, Type 0, BuildingBlock: BELTOD_clean_linker_0, # of connection points: 3
#     Node 17, Type 0, BuildingBlock: BELTOD_clean_linker_0, # of connection points: 3
#     Node 18, Type 1, BuildingBlock: NUHQIS_clean_sbu_0, # of connection points: 6
#     Node 19, Type 1, BuildingBlock: NUHQIS_clean_sbu_0, # of connection points: 6
#     Node 20, Type 1, BuildingBlock: NUHQIS_clean_sbu_0, # of connection points: 6
#     Node 21, Type 1, BuildingBlock: NUHQIS_clean_sbu_0, # of connection points: 6
#     Node 22, Type 1, BuildingBlock: NUHQIS_clean_sbu_0, # of connection points: 6
#     Node 23, Type 1, BuildingBlock: NUHQIS_clean_sbu_0, # of connection points: 6
#     Node 24, Type 1, BuildingBlock: NUHQIS_clean_sbu_0, # of connection points: 6
#     Node 25, Type 1, BuildingBlock: NUHQIS_clean_sbu_0, # of connection points: 6
#     Node 26, Type 1, BuildingBlock: NUHQIS_clean_sbu_0, # of connection points: 6
#     Edge 27, Type (0, 1), None
#     Edge 28, Type (0, 1), None
#     Edge 29, Type (0, 1), None
#     Edge 30, Type (0, 1), None
#     Edge 31, Type (0, 1), None
#     Edge 32, Type (0, 1), None
#     Edge 33, Type (0, 1), None
#     Edge 34, Type (0, 1), None
#     Edge 35, Type (0, 1), None
#     Edge 36, Type (0, 1), None
#     Edge 37, Type (0, 1), None
#     Edge 38, Type (0, 1), None
#     Edge 39, Type (0, 1), None
#     Edge 40, Type (0, 1), None
#     Edge 41, Type (0, 1), None
#     Edge 42, Type (0, 1), None
#     Edge 43, Type (0, 1), None
#     Edge 44, Type (0, 1), None
#     Edge 45, Type (0, 1), None
#     Edge 46, Type (0, 1), None
#     Edge 47, Type (0, 1), None
#     Edge 48, Type (0, 1), None
#     Edge 49, Type (0, 1), None
#     Edge 50, Type (0, 1), None
#     Edge 51, Type (0, 1), None
#     Edge 52, Type (0, 1), None
#     Edge 53, Type (0, 1), None
#     Edge 54, Type (0, 1), None
#     Edge 55, Type (0, 1), None
#     Edge 56, Type (0, 1), None
#     Edge 57, Type (0, 1), None
#     Edge 58, Type (0, 1), None
#     Edge 59, Type (0, 1), None
#     Edge 60, Type (0, 1), None
#     Edge 61, Type (0, 1), None
#     Edge 62, Type (0, 1), None
#     Edge 63, Type (0, 1), None
#     Edge 64, Type (0, 1), None
#     Edge 65, Type (0, 1), None
#     Edge 66, Type (0, 1), None
#     Edge 67, Type (0, 1), None
#     Edge 68, Type (0, 1), None
#     Edge 69, Type (0, 1), None
#     Edge 70, Type (0, 1), None
#     Edge 71, Type (0, 1), None
#     Edge 72, Type (0, 1), None
#     Edge 73, Type (0, 1), None
#     Edge 74, Type (0, 1), None
#     Edge 75, Type (0, 1), None
#     Edge 76, Type (0, 1), None
#     Edge 77, Type (0, 1), None
#     Edge 78, Type (0, 1), None
#     Edge 79, Type (0, 1), None
#     Edge 80, Type (0, 1), None
# Relax obj value: 0.031
# Max RMSD: 0.155
# Mean RMSD: 0.126
data_MOF--net-eea--node1-NUHQIS_clean_sbu_0--node2-BELTOD_clean_linker_0--edge1-none
_symmetry_space_group_name_H-M    P1
_symmetry_Int_Tables_number       1
_symmetry_cell_setting            triclinic
loop_
_symmetry_equiv_pos_as_xyz
'x, y, z'
_cell_length_a     29.403376
_cell_length_b     29.458578
_cell_length_c     50.401872
_cell_angle_alpha  93.519405
_cell_angle_beta   92.671132
_cell_angle_gamma 119.7815
loop_
_atom_site_label
_atom_site_type_symbol
_atom_site_fract_x
_atom_site_fract_y
_atom_site_fract_z
_atom_type_partial_charge
P0 P 0.31756 0.1609 0.40564 0.0
H1 H 0.30445 0.10514 0.35387 0.0
H2 H 0.25243 0.01261 0.33691 0.0
H3 H 0.18971 0.97489 0.41354 0.0
H4 H 0.24063 0.06803 0.43005 0.0
H5 H 0.32208 0.21344 0.35825 0.0
H6 H 0.27007 0.24995 0.34023 0.0
H7 H 0.17893 0.20846 0.40862 0.0
H8 H 0.23003 0.16987 0.42605 0.0
H9 H 0.35354 0.10641 0.43872 0.0
H10 H 0.31793 0.23133 0.45051 0.0
O11 O 0.37462 0.18622 0.39183 0.0
H12 H 0.37361 0.11187 0.48666 0.0
H13 H 0.33779 0.23683 0.49877 0.0
C14 C 0.27798 0.09291 0.39347 0.0
C15 C 0.27942 0.07693 0.36697 0.0
C16 C 0.24925 0.02411 0.35727 0.0
C17 C 0.21737 0.98647 0.37402 0.0
C18 C 0.21435 0.00299 0.40029 0.0
C19 C 0.24383 0.05609 0.4098 0.0
C20 C 0.28158 0.1914 0.39413 0.0
C21 C 0.29125 0.21261 0.36952 0.0
C22 C 0.26098 0.23275 0.35903 0.0
C23 C 0.22066 0.23221 0.37311 0.0
C24 C 0.21016 0.20977 0.39751 0.0
C25 C 0.23976 0.18847 0.40766 0.0
C26 C 0.33238 0.16707 0.44115 0.0
C27 C 0.34963 0.13477 0.45168 0.0
C28 C 0.36146 0.13818 0.47906 0.0
C29 C 0.35688 0.17453 0.49646 0.0
C30 C 0.34069 0.2078 0.48583 0.0
C31 C 0.32916 0.20454 0.45828 0.0
P32 P 0.92404 0.09672 0.43329 0.0
H33 H 0.9146 0.00545 0.40197 0.0
H34 H 0.84181 0.93288 0.37376 0.0
H35 H 0.74135 -0.00374 0.39318 0.0
H36 H 0.81482 0.06952 0.42081 0.0
H37 H 0.99496 0.21074 0.44378 0.0
H38 H 0.05323 0.27647 0.41567 0.0
H39 H 0.99232 0.15927 0.3478 0.0
H40 H 0.933 0.09447 0.37561 0.0
H41 H 0.89 0.04465 0.48102 0.0
H42 H 0.89855 0.18029 0.44846 0.0
O43 O 0.96606 0.07783 0.444 0.0
H44 H 0.8511 0.05952 0.51971 0.0
H45 H 0.86198 0.19747 0.48808 0.0
C46 C 0.86961 0.04204 0.41389 0.0
C47 C 0.87683 0.00355 0.40022 0.0
C48 C 0.83544 0.96252 0.38387 0.0
C49 C 0.78606 0.95915 0.38125 0.0
C50 C 0.77904 -0.00205 0.3949 0.0
C51 C 0.8208 0.03953 0.41084 0.0
C52 C 0.95835 0.14788 0.41182 0.0
C53 C 0.99254 0.19968 0.42265 0.0
C54 C 0.02607 0.23716 0.40651 0.0
C55 C 0.02724 0.22298 0.37942 0.0
C56 C 0.99215 0.17142 0.36851 0.0
C57 C 0.95797 0.13432 0.38453 0.0
C58 C 0.89905 0.11247 0.46234 0.0
C59 C 0.88461 0.0785 0.48254 0.0
C60 C 0.86239 0.08718 0.50475 0.0
C61 C 0.85422 0.13038 0.50743 0.0
C62 C 0.86766 0.16383 0.48676 0.0
C63 C 0.88941 0.1546 0.46426 0.0
P64 P 0.8542 0.69328 0.41084 0.0
H65 H 0.80542 0.68568 0.35809 0.0
H66 H 0.75322 0.72208 0.34029 0.0
H67 H 0.76616 0.79887 0.41849 0.0
H68 H 0.81915 0.76242 0.4361 0.0
H69 H 0.94747 0.68446 0.42281 0.0
H70 H 0.03354 0.72417 0.40519 0.0
H71 H 0.99414 0.82289 0.36095 0.0
H72 H 0.90877 0.78398 0.37916 0.0
H73 H 0.75987 0.62818 0.436 0.0
H74 H 0.92408 0.73082 0.46174 0.0
O75 O 0.83055 0.63437 0.39395 0.0
H76 H 0.74223 0.60385 0.48131 0.0
H77 H 0.90701 0.70549 0.50732 0.0
C78 C 0.81529 0.72055 0.39848 0.0
C79 C 0.7968 0.71012 0.37144 0.0
C80 C 0.76713 0.73122 0.36127 0.0
C81 C 0.75522 0.7632 0.37799 0.0
C82 C 0.77428 0.77405 0.40512 0.0
C83 C 0.8045 0.75321 0.41523 0.0
C84 C 0.92169 0.73162 0.40281 0.0
C85 C 0.9579 0.71572 0.40996 0.0
C86 C 0.00701 0.73818 0.39957 0.0
C87 C 0.02067 0.77638 0.38131 0.0
C88 C 0.98485 0.79328 0.37473 0.0
C89 C 0.93593 0.77116 0.38539 0.0
C90 C 0.84334 0.6808 0.44536 0.0
C91 C 0.79222 0.64555 0.45148 0.0
C92 C 0.78224 0.63133 0.47742 0.0
C93 C 0.82327 0.65197 0.498 0.0
C94 C 0.8744 0.68885 0.49201 0.0
C95 C 0.88435 0.70315 0.46588 0.0
P96 P 0.14409 0.29203 0.61906 0.0
H97 H 0.11128 0.29785 0.67206 0.0
H98 H 0.02549 0.26251 0.68979 0.0
H99 H 0.94965 0.19017 0.61098 0.0
H100 H 0.03599 0.2257 0.59349 0.0
H101 H 0.24407 0.3021 0.60654 0.0
H102 H 0.29271 0.25988 0.62164 0.0
H103 H 0.16237 0.15812 0.66528 0.0
H104 H 0.11364 0.19989 0.64963 0.0
H105 H 0.13043 0.36861 0.59134 0.0
H106 H 0.15477 0.23891 0.56977 0.0
O107 O 0.18186 0.35117 0.63571 0.0
H108 H 0.13983 0.39191 0.54543 0.0
H109 H 0.16582 0.26285 0.52389 0.0
C110 C 0.07994 0.26517 0.63139 0.0
C111 C 0.07613 0.27458 0.65858 0.0
C112 C 0.02698 0.25415 0.66873 0.0
C113 C 0.98052 0.22375 0.65184 0.0
C114 C 0.98457 0.21376 0.62457 0.0
C115 C 0.03391 0.23407 0.61448 0.0
C116 C 0.17504 0.25399 0.62669 0.0
C117 C 0.2255 0.2699 0.61887 0.0
C118 C 0.25339 0.24582 0.62767 0.0
C119 C 0.23168 0.20582 0.64492 0.0
C120 C 0.18042 0.18894 0.65213 0.0
C121 C 0.15237 0.21281 0.6431 0.0
C122 C 0.14302 0.30277 0.58414 0.0
C123 C 0.13754 0.34495 0.57665 0.0
C124 C 0.14335 0.35848 0.5504 0.0
C125 C 0.15469 0.32997 0.53099 0.0
C126 C 0.15715 0.28574 0.53826 0.0
C127 C 0.15118 0.27217 0.56459 0.0
P128 P 0.84069 0.90889 0.59559 0.0
H129 H 0.91835 0.00088 0.63015 0.0
H130 H 0.91126 0.06619 0.65922 0.0
H131 H 0.74446 0.98855 0.63541 0.0
H132 H 0.75166 0.92271 0.60691 0.0
H133 H 0.80273 0.79714 0.58111 0.0
H134 H 0.7907 0.72595 0.60762 0.0
H135 H 0.84288 0.83298 0.67943 0.0
H136 H 0.85303 0.90336 0.65307 0.0
H137 H 0.85142 0.96053 0.54739 0.0
H138 H 0.73197 0.82316 0.57968 0.0
O139 O 0.90201 0.93367 0.58685 0.0
H140 H 0.79236 0.94198 0.50763 0.0
H141 H 0.67368 0.80201 0.53914 0.0
C142 C 0.83582 0.95805 0.61587 0.0
C143 C 0.88035 -0.00191 0.63116 0.0
C144 C 0.87608 0.03486 0.64802 0.0
C145 C 0.82723 0.03219 0.64957 0.0
C146 C 0.78256 0.99147 0.63452 0.0
C147 C 0.78675 0.95422 0.61804 0.0
C148 C 0.82696 0.85517 0.61511 0.0
C149 C 0.80988 0.80488 0.60262 0.0
C150 C 0.80308 0.76426 0.61782 0.0
C151 C 0.81518 0.7739 0.64565 0.0
C152 C 0.83268 0.82437 0.65808 0.0
C153 C 0.83839 0.86463 0.64293 0.0
C154 C 0.797 0.89189 0.56589 0.0
C155 C 0.81284 0.92559 0.5456 0.0
C156 C 0.77895 0.91483 0.52284 0.0
C157 C 0.72848 0.86982 0.51984 0.0
C158 C 0.71215 0.83701 0.54071 0.0
C159 C 0.7459 0.84842 0.56371 0.0
P160 P 0.14185 0.82213 0.62108 0.0
H161 H 0.20259 0.88075 0.67071 0.0
H162 H 0.24769 0.97359 0.68672 0.0
H163 H 0.20445 0.00946 0.61099 0.0
H164 H 0.15739 0.91575 0.59535 0.0
H165 H 0.03622 0.74486 0.59519 0.0
H166 H 0.94929 0.70368 0.61181 0.0
H167 H 0.01744 0.79307 0.68851 0.0
H168 H 0.10381 0.83518 0.67155 0.0
H169 H 0.21448 0.80238 0.59249 0.0
H170 H 0.08409 0.826 0.57236 0.0
O171 O 0.17061 0.7939 0.63722 0.0
H172 H 0.23042 0.79996 0.54572 0.0
H173 H 0.09877 0.82196 0.52501 0.0
C174 C 0.17726 0.8913 0.63173 0.0
C175 C 0.20265 0.90844 0.65752 0.0
C176 C 0.22807 0.96154 0.66671 0.0
C177 C 0.22929 -0.00133 0.6501 0.0
C178 C 0.20409 0.9816 0.62417 0.0
C179 C 0.17749 0.92806 0.61519 0.0
C180 C 0.07648 0.79461 0.63176 0.0
C181 C 0.03238 0.75689 0.61528 0.0
C182 C 0.98264 0.73307 0.62492 0.0
C183 C 0.97648 0.74542 0.65148 0.0
C184 C 0.02082 0.7829 0.66796 0.0
C185 C 0.07027 0.80728 0.65815 0.0
C186 C 0.14713 0.81283 0.58589 0.0
C187 C 0.18827 0.80561 0.5779 0.0
C188 C 0.19734 0.80417 0.55103 0.0
C189 C 0.1656 0.81027 0.53148 0.0
C190 C 0.12409 0.8173 0.53954 0.0
C191 C 0.11515 0.81887 0.56656 0.0
P192 P 0.98423 0.49423 0.73897 0.0
H193 H 0.97111 0.43848 0.6872 0.0
H194 H 0.91909 0.34595 0.67025 0.0
H195 H 0.85639 0.30822 0.74688 0.0
H196 H 0.90731 0.40137 0.76338 0.0
H197 H 0.98875 0.54678 0.69159 0.0
H198 H 0.93673 0.58329 0.67357 0.0
H199 H 0.84558 0.54178 0.74195 0.0
H200 H 0.89669 0.50319 0.75938 0.0
H201 H 0.02022 0.43976 0.77205 0.0
H202 H 0.98458 0.56466 0.78385 0.0
O203 O 0.04129 0.51955 0.72516 0.0
H204 H 0.04029 0.44522 0.81999 0.0
H205 H 0.00444 0.57016 0.8321 0.0
C206 C 0.94464 0.42625 0.7268 0.0
C207 C 0.94608 0.41027 0.7003 0.0
C208 C 0.91592 0.35745 0.6906 0.0
C209 C 0.88404 0.31981 0.70736 0.0
C210 C 0.88103 0.33633 0.73362 0.0
C211 C 0.91051 0.38942 0.74314 0.0
C212 C 0.94824 0.52473 0.72746 0.0
C213 C 0.95791 0.54595 0.70285 0.0
C214 C 0.92765 0.56609 0.69237 0.0
C215 C 0.88732 0.56554 0.70644 0.0
C216 C 0.87681 0.5431 0.73084 0.0
C217 C 0.90642 0.52179 0.74099 0.0
C218 C 0.99904 0.50041 0.77448 0.0
C219 C 0.01631 0.46811 0.78502 0.0
C220 C 0.02814 0.47153 0.8124 0.0
C221 C 0.02355 0.50786 0.82979 0.0
C222 C 0.00735 0.54113 0.81917 0.0
C223 C 0.99582 0.53787 0.79161 0.0
P224 P 0.59071 0.43005 0.76662 0.0
H225 H 0.58127 0.33879 0.7353 0.0
H226 H 0.50848 0.26622 0.7071 0.0
H227 H 0.40802 0.32959 0.72651 0.0
H228 H 0.48148 0.40285 0.75414 0.0
H229 H 0.66162 0.54408 0.77711 0.0
H230 H 0.7199 0.6098 0.749 0.0
H231 H 0.65898 0.4926 0.68113 0.0
H232 H 0.59966 0.42781 0.70894 0.0
H233 H 0.55667 0.37799 0.81435 0.0
H234 H 0.56521 0.51362 0.78179 0.0
O235 O 0.63272 0.41116 0.77733 0.0
H236 H 0.51776 0.39285 0.85304 0.0
H237 H 0.52864 0.53081 0.82142 0.0
C238 C 0.53627 0.37537 0.74722 0.0
C239 C 0.5435 0.33688 0.73356 0.0
C240 C 0.5021 0.29585 0.71721 0.0
C241 C 0.45272 0.29248 0.71458 0.0
C242 C 0.4457 0.33127 0.72823 0.0
C243 C 0.48746 0.37286 0.74417 0.0
C244 C 0.62501 0.48122 0.74515 0.0
C245 C 0.6592 0.53301 0.75598 0.0
C246 C 0.69273 0.5705 0.73984 0.0
C247 C 0.6939 0.55631 0.71275 0.0
C248 C 0.65881 0.50475 0.70184 0.0
C249 C 0.62463 0.46765 0.71786 0.0
C250 C 0.56571 0.4458 0.79568 0.0
C251 C 0.55127 0.41183 0.81587 0.0
C252 C 0.52905 0.42051 0.83808 0.0
C253 C 0.52088 0.46371 0.84076 0.0
C254 C 0.53432 0.49716 0.82009 0.0
C255 C 0.55607 0.48793 0.79759 0.0
P256 P 0.52087 0.02661 0.74417 0.0
H257 H 0.47209 0.01901 0.69143 0.0
H258 H 0.41989 0.05541 0.67363 0.0
H259 H 0.43282 0.13219 0.75183 0.0
H260 H 0.48582 0.09575 0.76944 0.0
H261 H 0.61414 0.01779 0.75614 0.0
H262 H 0.70022 0.0575 0.73853 0.0
H263 H 0.66081 0.15622 0.69429 0.0
H264 H 0.57544 0.11731 0.7125 0.0
H265 H 0.42655 0.96151 0.76933 0.0
H266 H 0.59075 0.06415 0.79507 0.0
O267 O 0.49722 0.9677 0.72729 0.0
H268 H 0.4089 0.93718 0.81464 0.0
H269 H 0.57368 0.03882 0.84065 0.0
C270 C 0.48196 0.05388 0.73182 0.0
C271 C 0.46347 0.04345 0.70478 0.0
C272 C 0.4338 0.06456 0.69461 0.0
C273 C 0.42189 0.09653 0.71132 0.0
C274 C 0.44094 0.10738 0.73845 0.0
C275 C 0.47117 0.08654 0.74857 0.0
C276 C 0.58836 0.06495 0.73614 0.0
C277 C 0.62457 0.04906 0.74329 0.0
C278 C 0.67369 0.07152 0.73291 0.0
C279 C 0.68734 0.10972 0.71465 0.0
C280 C 0.65152 0.12662 0.70807 0.0
C281 C 0.6026 0.1045 0.71872 0.0
C282 C 0.51001 0.01414 0.77869 0.0
C283 C 0.4589 0.97888 0.78481 0.0
C284 C 0.44891 0.96466 0.81075 0.0
C285 C 0.48994 0.9853 0.83134 0.0
C286 C 0.54107 0.02218 0.82534 0.0
C287 C 0.55102 0.03649 0.79922 0.0
P288 P 0.81076 0.62536 0.95239 0.0
H289 H 0.77794 0.63119 1.00539 0.0
H290 H 0.69216 0.59584 0.02313 0.0
H291 H 0.61631 0.52351 0.94432 0.0
H292 H 0.70265 0.55903 0.92682 0.0
H293 H 0.91074 0.63543 0.93987 0.0
H294 H 0.95938 0.59322 0.95498 0.0
H295 H 0.82904 0.49145 0.99861 0.0
H296 H 0.78031 0.53322 0.98297 0.0
H297 H 0.79709 0.70194 0.92467 0.0
H298 H 0.82143 0.57224 0.9031 0.0
O299 O 0.84853 0.6845 0.96904 0.0
H300 H 0.80649 0.72524 0.87876 0.0
H301 H 0.83249 0.59618 0.85722 0.0
C302 C 0.74661 0.5985 0.96472 0.0
C303 C 0.74279 0.60791 0.99192 0.0
C304 C 0.69365 0.58748 1.00206 0.0
C305 C 0.64719 0.55708 0.98517 0.0
C306 C 0.65123 0.54709 0.9579 0.0
C307 C 0.70057 0.5674 0.94781 0.0
C308 C 0.8417 0.58733 0.96002 0.0
C309 C 0.89217 0.60324 0.9522 0.0
C310 C 0.92005 0.57915 0.961 0.0
C311 C 0.89835 0.53916 0.97825 0.0
C312 C 0.84709 0.52227 0.98547 0.0
C313 C 0.81904 0.54615 0.97643 0.0
C314 C 0.80968 0.6361 0.91747 0.0
C315 C 0.8042 0.67828 0.90999 0.0
C316 C 0.81001 0.69181 0.88374 0.0
C317 C 0.82135 0.6633 0.86432 0.0
C318 C 0.82381 0.61907 0.87159 0.0
C319 C 0.81784 0.6055 0.89792 0.0
P320 P 0.50735 0.24222 0.92893 0.0
H321 H 0.58501 0.33421 0.96349 0.0
H322 H 0.57792 0.39952 0.99255 0.0
H323 H 0.41112 0.32188 0.96874 0.0
H324 H 0.41832 0.25604 0.94024 0.0
H325 H 0.46939 0.13047 0.91445 0.0
H326 H 0.45737 0.05928 0.94095 0.0
H327 H 0.50955 0.16631 0.01277 0.0
H328 H 0.51969 0.23669 0.9864 0.0
H329 H 0.51808 0.29386 0.88073 0.0
H330 H 0.39863 0.15649 0.91301 0.0
O331 O 0.56867 0.267 0.92018 0.0
H332 H 0.45902 0.27531 0.84097 0.0
H333 H 0.34034 0.13534 0.87247 0.0
C334 C 0.50249 0.29138 0.94921 0.0
C335 C 0.54701 0.33142 0.96449 0.0
C336 C 0.54274 0.36819 0.98135 0.0
C337 C 0.49389 0.36552 0.9829 0.0
C338 C 0.44922 0.3248 0.96785 0.0
C339 C 0.45341 0.28755 0.95137 0.0
C340 C 0.49362 0.1885 0.94844 0.0
C341 C 0.47655 0.13822 0.93595 0.0
C342 C 0.46974 0.09759 0.95115 0.0
C343 C 0.48185 0.10723 0.97899 0.0
C344 C 0.49934 0.1577 0.99141 0.0
C345 C 0.50506 0.19797 0.97626 0.0
C346 C 0.46366 0.22522 0.89922 0.0
C347 C 0.4795 0.25892 0.87893 0.0
C348 C 0.44561 0.24816 0.85618 0.0
C349 C 0.39514 0.20315 0.85318 0.0
C350 C 0.37881 0.17034 0.87405 0.0
C351 C 0.41257 0.18175 0.89705 0.0
P352 P 0.80851 0.15547 0.95442 0.0
H353 H 0.86926 0.21409 1.00405 0.0
H354 H 0.91436 0.30693 0.02005 0.0
H355 H 0.87112 0.34279 0.94433 0.0
H356 H 0.82406 0.24908 0.92869 0.0
H357 H 0.70289 0.07819 0.92853 0.0
H358 H 0.61596 0.03701 0.94514 0.0
H359 H 0.68411 0.1264 0.02184 0.0
H360 H 0.77048 0.16851 1.00488 0.0
H361 H 0.88115 0.13571 0.92582 0.0
H362 H 0.75076 0.15934 0.90569 0.0
O363 O 0.83728 0.12724 0.97055 0.0
H364 H 0.89709 0.1333 0.87906 0.0
H365 H 0.76544 0.15529 0.85834 0.0
C366 C 0.84393 0.22463 0.96507 0.0
C367 C 0.86932 0.24178 0.99086 0.0
C368 C 0.89474 0.29488 1.00005 0.0
C369 C 0.89595 0.33201 0.98343 0.0
C370 C 0.87076 0.31493 0.9575 0.0
C371 C 0.84416 0.26139 0.94852 0.0
C372 C 0.74314 0.12795 0.96509 0.0
C373 C 0.69905 0.09022 0.94861 0.0
C374 C 0.64931 0.0664 0.95825 0.0
C375 C 0.64315 0.07876 0.98481 0.0
C376 C 0.68748 0.11623 1.00129 0.0
C377 C 0.73694 0.14061 0.99149 0.0
C378 C 0.8138 0.14616 0.91923 0.0
C379 C 0.85494 0.13895 0.91123 0.0
C380 C 0.86401 0.1375 0.88437 0.0
C381 C 0.83227 0.14361 0.86481 0.0
C382 C 0.79076 0.15064 0.87287 0.0
C383 C 0.78182 0.1522 0.89989 0.0
P384 P 0.6509 0.82757 0.0723 0.0
H385 H 0.63778 0.77181 0.02054 0.0
H386 H 0.58576 0.67928 1.00358 0.0
H387 H 0.52305 0.64156 0.08021 0.0
H388 H 0.57398 0.7347 0.09672 0.0
H389 H 0.65542 0.88011 0.02492 0.0
H390 H 0.6034 0.91662 1.0069 0.0
H391 H 0.51225 0.87512 0.07529 0.0
H392 H 0.56336 0.83653 0.09271 0.0
H393 H 0.68689 0.77309 0.10538 0.0
H394 H 0.65125 0.89799 0.11718 0.0
O395 O 0.70795 0.85289 0.0585 0.0
H396 H 0.70695 0.77855 0.15332 0.0
H397 H 0.67111 0.90349 0.16544 0.0
C398 C 0.61131 0.75958 0.06013 0.0
C399 C 0.61275 0.7436 0.03364 0.0
C400 C 0.58258 0.69078 0.02393 0.0
C401 C 0.5507 0.65314 0.04069 0.0
C402 C 0.54769 0.66966 0.06696 0.0
C403 C 0.57717 0.72276 0.07647 0.0
C404 C 0.61491 0.85806 0.0608 0.0
C405 C 0.62458 0.87928 0.03618 0.0
C406 C 0.59431 0.89942 0.0257 0.0
C407 C 0.55399 0.89888 0.03978 0.0
C408 C 0.54348 0.87643 0.06417 0.0
C409 C 0.57309 0.85513 0.07433 0.0
C410 C 0.66571 0.83374 0.10782 0.0
C411 C 0.68298 0.80145 0.11835 0.0
C412 C 0.6948 0.80486 0.14573 0.0
C413 C 0.69022 0.8412 0.16313 0.0
C414 C 0.67402 0.87446 0.1525 0.0
C415 C 0.66249 0.87121 0.12494 0.0
P416 P 0.25737 0.76338 0.09996 0.0
H417 H 0.24793 0.67212 0.06864 0.0
H418 H 0.17514 0.59955 0.04043 0.0
H419 H 0.07468 0.66292 0.05984 0.0
H420 H 0.14815 0.73619 0.08747 0.0
H421 H 0.32829 0.87741 0.11044 0.0
H422 H 0.38656 0.94313 0.08234 0.0
H423 H 0.32565 0.82594 0.01447 0.0
H424 H 0.26633 0.76114 0.04227 0.0
H425 H 0.22333 0.71132 0.14768 0.0
H426 H 0.23187 0.84695 0.11512 0.0
O427 O 0.29939 0.74449 0.11066 0.0
H428 H 0.18443 0.72618 0.18638 0.0
H429 H 0.19531 0.86414 0.15475 0.0
C430 C 0.20294 0.7087 0.08055 0.0
C431 C 0.21017 0.67022 0.06689 0.0
C432 C 0.16877 0.62918 0.05054 0.0
C433 C 0.11939 0.62581 0.04792 0.0
C434 C 0.11237 0.66461 0.06156 0.0
C435 C 0.15413 0.70619 0.07751 0.0
C436 C 0.29168 0.81455 0.07848 0.0
C437 C 0.32587 0.86634 0.08932 0.0
C438 C 0.3594 0.90383 0.07317 0.0
C439 C 0.36057 0.88964 0.04609 0.0
C440 C 0.32548 0.83808 0.03517 0.0
C441 C 0.2913 0.80098 0.05119 0.0
C442 C 0.23238 0.77913 0.12901 0.0
C443 C 0.21794 0.74516 0.1492 0.0
C444 C 0.19572 0.75385 0.17142 0.0
C445 C 0.18755 0.79704 0.17409 0.0
C446 C 0.20099 0.83049 0.15342 0.0
C447 C 0.22274 0.82127 0.13092 0.0
P448 P 0.18754 0.35995 0.07751 0.0
H449 H 0.13875 0.35234 0.02476 0.0
H450 H 0.08656 0.38874 1.00696 0.0
H451 H 0.09949 0.46553 0.08516 0.0
H452 H 0.15249 0.42908 0.10277 0.0
H453 H 0.2808 0.35112 0.08948 0.0
H454 H 0.36688 0.39083 0.07186 0.0
H455 H 0.32748 0.48955 0.02762 0.0
H456 H 0.24211 0.45064 0.04583 0.0
H457 H 0.09321 0.29485 0.10266 0.0
H458 H 0.25742 0.39749 0.12841 0.0
O459 O 0.16389 0.30104 0.06062 0.0
H460 H 0.07557 0.27052 0.14798 0.0
H461 H 0.24034 0.37216 0.17398 0.0
C462 C 0.14863 0.38721 0.06515 0.0
C463 C 0.13014 0.37679 0.03811 0.0
C464 C 0.10046 0.39789 0.02794 0.0
C465 C 0.08855 0.42987 0.04466 0.0
C466 C 0.10761 0.44072 0.07179 0.0
C467 C 0.13784 0.41987 0.0819 0.0
C468 C 0.25502 0.39829 0.06948 0.0
C469 C 0.29123 0.38239 0.07663 0.0
C470 C 0.34035 0.40485 0.06624 0.0
C471 C 0.354 0.44305 0.04798 0.0
C472 C 0.31819 0.45995 0.0414 0.0
C473 C 0.26926 0.43783 0.05205 0.0
C474 C 0.17667 0.34747 0.11203 0.0
C475 C 0.12556 0.31222 0.11815 0.0
C476 C 0.11558 0.298 0.14409 0.0
C477 C 0.1566 0.31864 0.16467 0.0
C478 C 0.20774 0.35552 0.15868 0.0
C479 C 0.21768 0.36982 0.13255 0.0
P480 P 0.47742 0.9587 0.28572 0.0
H481 H 0.44461 0.96452 0.33873 0.0
H482 H 0.35882 0.92918 0.35646 0.0
H483 H 0.28298 0.85684 0.27765 0.0
H484 H 0.36932 0.89236 0.26016 0.0
H485 H 0.5774 0.96877 0.2732 0.0
H486 H 0.62604 0.92655 0.28831 0.0
H487 H 0.49571 0.82479 0.33195 0.0
H488 H 0.44697 0.86655 0.3163 0.0
H489 H 0.46376 0.03528 0.25801 0.0
H490 H 0.4881 0.90557 0.23644 0.0
O491 O 0.51519 0.01784 0.30237 0.0
H492 H 0.47316 0.05858 0.2121 0.0
H493 H 0.49915 0.92951 0.19056 0.0
C494 C 0.41327 0.93184 0.29805 0.0
C495 C 0.40946 0.94124 0.32525 0.0
C496 C 0.36031 0.92081 0.33539 0.0
C497 C 0.31385 0.89042 0.3185 0.0
C498 C 0.3179 0.88042 0.29124 0.0
C499 C 0.36724 0.90073 0.28114 0.0
C500 C 0.50837 0.92066 0.29336 0.0
C501 C 0.55883 0.93657 0.28553 0.0
C502 C 0.58672 0.91249 0.29433 0.0
C503 C 0.56502 0.8725 0.31158 0.0
C504 C 0.51376 0.85561 0.3188 0.0
C505 C 0.4857 0.87948 0.30977 0.0
C506 C 0.47635 0.96944 0.25081 0.0
C507 C 0.47087 0.01162 0.24332 0.0
C508 C 0.47668 0.02515 0.21707 0.0
C509 C 0.48801 -0.00336 0.19765 0.0
C510 C 0.49048 0.95241 0.20492 0.0
C511 C 0.48451 0.93884 0.23125 0.0
P512 P 0.17402 0.57555 0.26226 0.0
H513 H 0.25168 0.66754 0.29682 0.0
H514 H 0.24459 0.73285 0.32588 0.0
H515 H 0.07779 0.65521 0.30207 0.0
H516 H 0.08499 0.58937 0.27357 0.0
H517 H 0.13606 0.4638 0.24778 0.0
H518 H 0.12404 0.39261 0.27429 0.0
H519 H 0.17622 0.49965 0.3461 0.0
H520 H 0.18636 0.57003 0.31974 0.0
H521 H 0.18475 0.62719 0.21406 0.0
H522 H 0.0653 0.48982 0.24634 0.0
O523 O 0.23534 0.60033 0.25351 0.0
H524 H 0.12569 0.60864 0.1743 0.0
H525 H 0.00701 0.46867 0.20581 0.0
C526 C 0.16915 0.62471 0.28254 0.0
C527 C 0.21368 0.66476 0.29783 0.0
C528 C 0.20941 0.70153 0.31469 0.0
C529 C 0.16056 0.69885 0.31624 0.0
C530 C 0.11589 0.65813 0.30119 0.0
C531 C 0.12008 0.62088 0.2847 0.0
C532 C 0.16029 0.52183 0.28178 0.0
C533 C 0.14321 0.47155 0.26929 0.0
C534 C 0.13641 0.43092 0.28449 0.0
C535 C 0.14852 0.44057 0.31232 0.0
C536 C 0.16601 0.49104 0.32474 0.0
C537 C 0.17173 0.5313 0.30959 0.0
C538 C 0.13033 0.55855 0.23255 0.0
C539 C 0.14617 0.59225 0.21227 0.0
C540 C 0.11228 0.5815 0.18951 0.0
C541 C 0.06181 0.53648 0.18651 0.0
C542 C 0.04548 0.50367 0.20738 0.0
C543 C 0.07924 0.51508 0.23038 0.0
P544 P 0.47518 0.48881 0.28775 0.0
H545 H 0.53593 0.54743 0.33738 0.0
H546 H 0.58103 0.64027 0.35339 0.0
H547 H 0.53778 0.67613 0.27766 0.0
H548 H 0.49073 0.58242 0.26202 0.0
H549 H 0.36956 0.41153 0.26186 0.0
H550 H 0.28263 0.37035 0.27848 0.0
H551 H 0.35078 0.45974 0.35518 0.0
H552 H 0.43715 0.50185 0.33822 0.0
H553 H 0.54782 0.46905 0.25915 0.0
H554 H 0.41742 0.49268 0.23903 0.0
O555 O 0.50395 0.46057 0.30389 0.0
H556 H 0.56376 0.46664 0.21239 0.0
H557 H 0.43211 0.48863 0.19168 0.0
C558 C 0.5106 0.55797 0.2984 0.0
C559 C 0.53599 0.57512 0.32419 0.0
C560 C 0.56141 0.62822 0.33338 0.0
C561 C 0.56262 0.66534 0.31677 0.0
C562 C 0.53743 0.64827 0.29083 0.0
C563 C 0.51083 0.59473 0.28185 0.0
C564 C 0.40981 0.46129 0.29843 0.0
C565 C 0.36572 0.42356 0.28194 0.0
C566 C 0.31598 0.39974 0.29159 0.0
C567 C 0.30982 0.41209 0.31815 0.0
C568 C 0.35415 0.44957 0.33463 0.0
C569 C 0.40361 0.47395 0.32482 0.0
C570 C 0.48047 0.4795 0.25256 0.0
C571 C 0.52161 0.47229 0.24457 0.0
C572 C 0.53068 0.47084 0.2177 0.0
C573 C 0.49894 0.47694 0.19815 0.0
C574 C 0.45743 0.48398 0.2062 0.0
C575 C 0.44849 0.48554 0.23322 0.0
Tb576 Tb 0.47533 0.95705 0.98355 0.0
Eu577 Eu 0.51585 0.02498 0.0439 0.0
C578 C 0.52602 0.92519 0.02995 0.0
C579 C 0.40236 0.92679 0.03048 0.0
C580 C 0.45775 0.93106 0.90994 0.0
C581 C 0.44427 0.91359 0.8616 0.0
C582 C 0.43372 0.89592 0.88698 0.0
C583 C 0.49259 0.98437 0.90716 0.0
C584 C 0.5033 0.00213 0.88175 0.0
C585 C 0.47919 0.96695 0.85859 0.0
C586 C 0.44742 0.91157 0.93658 0.0
O587 O 0.45276 0.01704 0.98443 0.0
O588 O 0.51476 0.08034 0.01571 0.0
O589 O 0.58819 0.04982 0.02146 0.0
O590 O 0.54937 0.02634 0.97824 0.0
C591 C 0.48174 0.06631 0.99433 0.0
O592 O 0.50435 0.06842 0.07715 0.0
O593 O 0.56839 0.05201 0.08051 0.0
O594 O 0.50867 0.94633 0.04739 0.0
O595 O 0.5249 0.93265 1.00454 0.0
O596 O 0.41894 0.90878 0.01084 0.0
O597 O 0.42797 0.97654 0.03949 0.0
C598 C 0.59115 0.05068 0.99544 0.0
O599 O 0.48824 0.91783 0.95113 0.0
O600 O 0.4184 0.9242 0.95053 0.0
C601 C 0.52612 0.05019 0.1194 0.0
C602 C 0.49996 0.01478 0.17046 0.0
C603 C 0.53043 0.06881 0.16738 0.0
C604 C 0.54331 0.08626 0.14213 0.0
C605 C 0.49537 -0.00375 0.1222 0.0
C606 C 0.48245 0.97868 0.1475 0.0
C607 C 0.54113 0.06912 0.09301 0.0
H608 H 0.42559 0.88515 0.8443 0.0
H609 H 0.40703 0.85461 0.88866 0.0
H610 H 0.51163 0.01222 0.92466 0.0
H611 H 0.52995 0.0435 0.88025 0.0
H612 H 0.54538 0.09773 0.18458 0.0
H613 H 0.56721 0.128 0.14039 0.0
H614 H 0.48162 0.96773 0.10484 0.0
H615 H 0.45854 0.9369 0.14904 0.0
Tb616 Tb 0.02389 0.4943 0.98463 0.0
Eu617 Eu 0.96637 0.4811 0.04025 0.0
C618 C 0.07464 0.5802 0.03248 0.0
C619 C 0.05634 0.45137 0.03363 0.0
C620 C 0.05778 0.51061 0.91377 0.0
C621 C 0.08107 0.50946 0.86838 0.0
C622 C 0.09177 0.50936 0.8956 0.0
C623 C 0.01317 0.51275 0.90455 0.0
C624 C 0.0025 0.51308 0.87723 0.0
C625 C 0.03611 0.51086 0.85887 0.0
C626 C 0.06956 0.50923 0.94215 0.0
O627 O 0.94713 0.42367 0.97625 0.0
O628 O 0.93377 0.40077 0.01907 0.0
O629 O 0.91276 0.48644 1.00888 0.0
O630 O 0.97745 0.53332 0.98177 0.0
C631 C 0.92555 0.38817 0.99321 0.0
O632 O 0.93068 0.43693 0.07395 0.0
O633 O 0.9402 0.5142 0.07198 0.0
O634 O 0.02713 0.56572 0.03887 0.0
O635 O 0.08297 0.55075 0.01516 0.0
O636 O 0.04677 0.44738 1.00758 0.0
O637 O 0.03815 0.47392 0.04988 0.0
C638 C 0.93026 0.51751 0.98968 0.0
O639 O 0.07184 0.5467 0.95831 0.0
O640 O 0.04396 0.46357 0.9514 0.0
C641 C 0.96359 0.49435 0.11286 0.0
C642 C 0.0275 0.52295 0.16127 0.0
C643 C 0.97237 0.49929 0.1612 0.0
C644 C 0.94059 0.48486 0.1371 0.0
C645 C 0.01843 0.51878 0.11289 0.0
C646 C 0.05 0.53258 0.13676 0.0
C647 C 0.93164 0.4769 0.08715 0.0
H648 H 0.108 0.50841 0.85473 0.0
H649 H 0.1265 0.50796 0.90248 0.0
H650 H 0.9865 0.51368 0.91841 0.0
H651 H 0.96736 0.51373 0.87042 0.0
H652 H 0.95376 0.49192 0.17972 0.0
H653 H 0.89826 0.46597 0.13737 0.0
H654 H 0.03691 0.5264 0.09433 0.0
H655 H 0.09202 0.54966 0.13586 0.0
Tb656 Tb 0.52456 0.49556 0.0443 0.0
Eu657 Eu 0.47249 0.50106 0.98585 0.0
C658 C 0.49064 0.40776 0.99812 0.0
C659 C 0.59494 0.53625 0.99586 0.0
C660 C 0.54073 0.48415 0.11704 0.0
C661 C 0.5277 0.44418 0.1588 0.0
C662 C 0.54266 0.44748 0.13278 0.0
C663 C 0.52247 0.51689 0.1275 0.0
C664 C 0.50779 0.51386 0.15364 0.0
C665 C 0.51079 0.47783 0.16972 0.0
C666 C 0.55743 0.4869 0.08979 0.0
O667 O 0.5122 0.56233 0.04887 0.0
O668 O 0.52017 0.58305 1.00571 0.0
O669 O 0.41379 0.49257 0.01536 0.0
O670 O 0.4392 0.45114 0.04474 0.0
C671 C 0.52466 0.59686 0.03132 0.0
O672 O 0.47337 0.54383 0.95176 0.0
O673 O 0.41544 0.46162 0.95105 0.0
O674 O 0.45449 0.41861 0.99013 0.0
O675 O 0.52866 0.43926 0.01621 0.0
O676 O 0.59224 0.54148 0.02184 0.0
O677 O 0.55245 0.51209 0.97909 0.0
C678 C 0.40486 0.46402 0.03568 0.0
O679 O 0.52631 0.44701 0.07266 0.0
O680 O 0.57452 0.53156 0.0795 0.0
C681 C 0.45796 0.49071 0.91204 0.0
C682 C 0.4992 0.47369 0.86525 0.0
C683 C 0.46383 0.49293 0.86409 0.0
C684 C 0.4435 0.50152 0.88734 0.0
C685 C 0.49302 0.47146 0.91324 0.0
C686 C 0.51364 0.46339 0.89023 0.0
C687 C 0.43913 0.50143 0.93695 0.0
H688 H 0.52954 0.41529 0.17039 0.0
H689 H 0.55601 0.42143 0.12496 0.0
H690 H 0.52009 0.54517 0.1156 0.0
H691 H 0.49544 0.5407 0.16147 0.0
H692 H 0.45137 0.5008 0.84521 0.0
H693 H 0.41666 0.51664 0.88604 0.0
H694 H 0.50485 0.46298 0.9321 0.0
H695 H 0.54152 0.44964 0.89215 0.0
Tb696 Tb 0.142 0.29039 0.31688 0.0
Eu697 Eu 0.18252 0.35831 0.37724 0.0
C698 C 0.19269 0.25853 0.36329 0.0
C699 C 0.06904 0.26012 0.36382 0.0
C700 C 0.12442 0.2644 0.24327 0.0
C701 C 0.11093 0.24693 0.19494 0.0
C702 C 0.10039 0.22925 0.22031 0.0
C703 C 0.15926 0.31771 0.2405 0.0
C704 C 0.16997 0.33547 0.21508 0.0
C705 C 0.14585 0.30029 0.19192 0.0
C706 C 0.11409 0.24491 0.26991 0.0
O707 O 0.11942 0.35037 0.31777 0.0
O708 O 0.18143 0.41368 0.34904 0.0
O709 O 0.25486 0.38315 0.35479 0.0
O710 O 0.21604 0.35968 0.31158 0.0
C711 C 0.14841 0.39965 0.32767 0.0
O712 O 0.17102 0.40176 0.41048 0.0
O713 O 0.23506 0.38534 0.41384 0.0
O714 O 0.17534 0.27966 0.38073 0.0
O715 O 0.19157 0.26599 0.33788 0.0
O716 O 0.08561 0.24211 0.34418 0.0
O717 O 0.09464 0.30988 0.37282 0.0
C718 C 0.25782 0.38402 0.32877 0.0
O719 O 0.15491 0.25117 0.28447 0.0
O720 O 0.08507 0.25754 0.28386 0.0
C721 C 0.19279 0.38352 0.45274 0.0
C722 C 0.16663 0.34812 0.5038 0.0
C723 C 0.1971 0.40215 0.50071 0.0
C724 C 0.20998 0.41959 0.47546 0.0
C725 C 0.16204 0.32958 0.45554 0.0
C726 C 0.14912 0.31202 0.48083 0.0
C727 C 0.2078 0.40246 0.42635 0.0
H728 H 0.09225 0.21849 0.17763 0.0
H729 H 0.07369 0.18795 0.222 0.0
H730 H 0.1783 0.34556 0.25799 0.0
H731 H 0.19662 0.37683 0.21359 0.0
H732 H 0.21205 0.43107 0.51792 0.0
H733 H 0.23388 0.46133 0.47372 0.0
H734 H 0.14829 0.30107 0.43817 0.0
H735 H 0.12521 0.27023 0.48237 0.0
Tb736 Tb 0.69056 0.82763 0.31797 0.0
Eu737 Eu 0.63304 0.81444 0.37358 0.0
C738 C 0.74131 0.91354 0.36581 0.0
C739 C 0.72301 0.7847 0.36696 0.0
C740 C 0.72445 0.84395 0.2471 0.0
C741 C 0.74774 0.84279 0.20171 0.0
C742 C 0.75844 0.84269 0.22894 0.0
C743 C 0.67984 0.84609 0.23788 0.0
C744 C 0.66917 0.84642 0.21056 0.0
C745 C 0.70278 0.84419 0.19221 0.0
C746 C 0.73622 0.84257 0.27548 0.0
O747 O 0.6138 0.75701 0.30959 0.0
O748 O 0.60044 0.73411 0.35241 0.0
O749 O 0.57943 0.81978 0.34221 0.0
O750 O 0.64411 0.86666 0.31511 0.0
C751 C 0.59222 0.72151 0.32655 0.0
O752 O 0.59735 0.77027 0.40729 0.0
O753 O 0.60687 0.84754 0.40532 0.0
O754 O 0.6938 0.89906 0.3722 0.0
O755 O 0.74964 0.88409 0.34849 0.0
O756 O 0.71344 0.78072 0.34091 0.0
O757 O 0.70481 0.80725 0.38321 0.0
C758 C 0.59692 0.85085 0.32301 0.0
O759 O 0.73851 0.88004 0.29165 0.0
O760 O 0.71063 0.79691 0.28474 0.0
C761 C 0.63026 0.82769 0.44619 0.0
C762 C 0.69417 0.85629 0.4946 0.0
C763 C 0.63903 0.83263 0.49453 0.0
C764 C 0.60726 0.8182 0.47043 0.0
C765 C 0.6851 0.85212 0.44623 0.0
C766 C 0.71667 0.86592 0.47009 0.0
C767 C 0.5983 0.81024 0.42049 0.0
H768 H 0.77467 0.84174 0.18806 0.0
H769 H 0.79316 0.84129 0.23581 0.0
H770 H 0.65317 0.84702 0.25175 0.0
H771 H 0.63404 0.84707 0.20375 0.0
H772 H 0.62043 0.82526 0.51305 0.0
H773 H 0.56493 0.79931 0.47071 0.0
H774 H 0.70358 0.85974 0.42767 0.0
H775 H 0.75869 0.883 0.46919 0.0
Tb776 Tb 0.19123 0.8289 0.37763 0.0
Eu777 Eu 0.13916 0.83439 0.31919 0.0
C778 C 0.15731 0.74109 0.33145 0.0
C779 C 0.26161 0.86958 0.3292 0.0
C780 C 0.20739 0.81748 0.45037 0.0
C781 C 0.19436 0.77751 0.49213 0.0
C782 C 0.20933 0.78081 0.46611 0.0
C783 C 0.18913 0.85022 0.46083 0.0
C784 C 0.17445 0.84719 0.48698 0.0
C785 C 0.17745 0.81116 0.50305 0.0
C786 C 0.22409 0.82023 0.42313 0.0
O787 O 0.17887 0.89566 0.3822 0.0
O788 O 0.18684 0.91638 0.33904 0.0
O789 O 0.08045 0.8259 0.34869 0.0
O790 O 0.10587 0.78447 0.37807 0.0
C791 C 0.19133 0.93019 0.36465 0.0
O792 O 0.14003 0.87716 0.2851 0.0
O793 O 0.08211 0.79495 0.28438 0.0
O794 O 0.12115 0.75194 0.32347 0.0
O795 O 0.19532 0.77259 0.34954 0.0
O796 O 0.2589 0.87481 0.35518 0.0
O797 O 0.21912 0.84542 0.31242 0.0
C798 C 0.07152 0.79736 0.36901 0.0
O799 O 0.19297 0.78034 0.40599 0.0
O800 O 0.24118 0.8649 0.41283 0.0
C801 C 0.12462 0.82404 0.24537 0.0
C802 C 0.16587 0.80702 0.19859 0.0
C803 C 0.1305 0.82626 0.19742 0.0
C804 C 0.11017 0.83485 0.22067 0.0
C805 C 0.15969 0.80479 0.24657 0.0
C806 C 0.18031 0.79673 0.22356 0.0
C807 C 0.10579 0.83476 0.27028 0.0
H808 H 0.1962 0.74862 0.50372 0.0
H809 H 0.22267 0.75476 0.45829 0.0
H810 H 0.18675 0.8785 0.44893 0.0
H811 H 0.16211 0.87403 0.4948 0.0
H812 H 0.11804 0.83413 0.17855 0.0
H813 H 0.08333 0.84997 0.21937 0.0
H814 H 0.17152 0.79631 0.26543 0.0
H815 H 0.20819 0.78298 0.22548 0.0
Tb816 Tb 0.80866 0.62372 0.65021 0.0
Eu817 Eu 0.84918 0.69164 0.71057 0.0
C818 C 0.85935 0.59186 0.69662 0.0
C819 C 0.7357 0.59345 0.69715 0.0
C820 C 0.79108 0.59773 0.5766 0.0
C821 C 0.7776 0.58026 0.52827 0.0
C822 C 0.76705 0.56258 0.55364 0.0
C823 C 0.82593 0.65104 0.57383 0.0
C824 C 0.83663 0.6688 0.54842 0.0
C825 C 0.81252 0.63362 0.52525 0.0
C826 C 0.78075 0.57824 0.60324 0.0
O827 O 0.78609 0.6837 0.6511 0.0
O828 O 0.84809 0.74701 0.68238 0.0
O829 O 0.92153 0.71648 0.68812 0.0
O830 O 0.8827 0.69301 0.64491 0.0
C831 C 0.81508 0.73298 0.661 0.0
O832 O 0.83768 0.73509 0.74381 0.0
O833 O 0.90172 0.71867 0.74717 0.0
O834 O 0.842 0.61299 0.71406 0.0
O835 O 0.85823 0.59932 0.67121 0.0
O836 O 0.75227 0.57544 0.67751 0.0
O837 O 0.7613 0.64321 0.70616 0.0
C838 C 0.92448 0.71735 0.6621 0.0
O839 O 0.82157 0.5845 0.6178 0.0
O840 O 0.75173 0.59087 0.61719 0.0
C841 C 0.85945 0.71685 0.78607 0.0
C842 C 0.83329 0.68144 0.83713 0.0
C843 C 0.86376 0.73548 0.83405 0.0
C844 C 0.87664 0.75292 0.8088 0.0
C845 C 0.8287 0.66291 0.78887 0.0
C846 C 0.81579 0.64535 0.81416 0.0
C847 C 0.87446 0.73579 0.75968 0.0
H848 H 0.75891 0.55182 0.51096 0.0
H849 H 0.74035 0.52128 0.55533 0.0
H850 H 0.84496 0.67889 0.59132 0.0
H851 H 0.86328 0.71016 0.54692 0.0
H852 H 0.87871 0.7644 0.85125 0.0
H853 H 0.90054 0.79466 0.80705 0.0
H854 H 0.81495 0.6344 0.77151 0.0
H855 H 0.79187 0.60356 0.8157 0.0
Tb856 Tb 0.35723 0.16096 0.6513 0.0
Eu857 Eu 0.29971 0.14777 0.70692 0.0
C858 C 0.40797 0.24687 0.69915 0.0
C859 C 0.38968 0.11803 0.70029 0.0
C860 C 0.39111 0.17727 0.58043 0.0
C861 C 0.4144 0.17611 0.53504 0.0
C862 C 0.4251 0.17601 0.56227 0.0
C863 C 0.34651 0.17942 0.57121 0.0
C864 C 0.33584 0.17975 0.5439 0.0
C865 C 0.36945 0.17752 0.52554 0.0
C866 C 0.40289 0.1759 0.60881 0.0
O867 O 0.28047 0.09033 0.64292 0.0
O868 O 0.26711 0.06744 0.68574 0.0
O869 O 0.2461 0.15311 0.67554 0.0
O870 O 0.31078 0.19999 0.64844 0.0
C871 C 0.25889 0.05483 0.65988 0.0
O872 O 0.26401 0.10359 0.74062 0.0
O873 O 0.27354 0.18086 0.73865 0.0
O874 O 0.36046 0.23239 0.70553 0.0
O875 O 0.41631 0.21742 0.68183 0.0
O876 O 0.38011 0.11405 0.67425 0.0
O877 O 0.37148 0.14058 0.71655 0.0
C878 C 0.26359 0.18418 0.65635 0.0
O879 O 0.40518 0.21337 0.62498 0.0
O880 O 0.3773 0.13024 0.61807 0.0
C881 C 0.29692 0.16101 0.77952 0.0
C882 C 0.36083 0.18962 0.82794 0.0
C883 C 0.3057 0.16596 0.82787 0.0
C884 C 0.27392 0.15153 0.80376 0.0
C885 C 0.35177 0.18545 0.77956 0.0
C886 C 0.38333 0.19924 0.80343 0.0
C887 C 0.26497 0.14356 0.75382 0.0
H888 H 0.44132 0.17505 0.5214 0.0
H889 H 0.45982 0.1746 0.56914 0.0
H890 H 0.31984 0.18036 0.58508 0.0
H891 H 0.30071 0.18041 0.53708 0.0
H892 H 0.28709 0.15859 0.84638 0.0
H893 H 0.23159 0.13264 0.80404 0.0
H894 H 0.37024 0.19307 0.761 0.0
H895 H 0.42536 0.21633 0.80252 0.0
Tb896 Tb 0.8579 0.16223 0.71096 0.0
Eu897 Eu 0.80583 0.16773 0.65252 0.0
C898 C 0.82398 0.07443 0.66479 0.0
C899 C 0.92828 0.20292 0.66253 0.0
C900 C 0.87406 0.15081 0.7837 0.0
C901 C 0.86103 0.11085 0.82546 0.0
C902 C 0.876 0.11415 0.79945 0.0
C903 C 0.8558 0.18355 0.79416 0.0
C904 C 0.84113 0.18053 0.82031 0.0
C905 C 0.84412 0.14449 0.83639 0.0
C906 C 0.89077 0.15357 0.75646 0.0
O907 O 0.84554 0.229 0.71553 0.0
O908 O 0.85351 0.24972 0.67238 0.0
O909 O 0.74712 0.15923 0.68203 0.0
O910 O 0.77254 0.11781 0.7114 0.0
C911 C 0.858 0.26352 0.69798 0.0
O912 O 0.80671 0.2105 0.61843 0.0
O913 O 0.74878 0.12829 0.61772 0.0
O914 O 0.78782 0.08527 0.6568 0.0
O915 O 0.86199 0.10593 0.68287 0.0
O916 O 0.92558 0.20814 0.68851 0.0
O917 O 0.88579 0.17876 0.64576 0.0
C918 C 0.7382 0.13069 0.70234 0.0
O919 O 0.85964 0.11368 0.73933 0.0
O920 O 0.90785 0.19823 0.74617 0.0
C921 C 0.79129 0.15737 0.5787 0.0
C922 C 0.83254 0.14036 0.53192 0.0
C923 C 0.79717 0.1596 0.53076 0.0
C924 C 0.77684 0.16818 0.55401 0.0
C925 C 0.82636 0.13813 0.57991 0.0
C926 C 0.84698 0.13006 0.5569 0.0
C927 C 0.77247 0.16809 0.60362 0.0
H928 H 0.86288 0.08196 0.83706 0.0
H929 H 0.88935 0.0881 0.79163 0.0
H930 H 0.85342 0.21184 0.78227 0.0
H931 H 0.82878 0.20736 0.82813 0.0
H932 H 0.78471 0.16747 0.51188 0.0
H933 H 0.75 0.1833 0.5527 0.0
H934 H 0.83819 0.12965 0.59877 0.0
H935 H 0.87486 0.11631 0.55882 0.0
loop_
_geom_bond_atom_site_label_1
_geom_bond_atom_site_label_2
_geom_bond_distance
_geom_bond_site_symmetry_2
_ccdc_geom_bond_type
P0 O11 1.490 . S
P0 C14 1.812 . S
P0 C20 1.803 . S
P0 C26 1.819 . S
H1 C15 0.941 . S
H2 C16 0.939 . S
H3 C18 0.940 . S
H4 C19 0.940 . S
H5 C21 0.939 . S
H6 C22 0.942 . S
H7 C24 0.940 . S
H8 C25 0.939 . S
H9 C27 0.941 . S
H10 C31 0.939 . S
O11 P0 1.490 . S
H12 C28 0.939 . S
H13 C30 0.940 . S
C14 P0 1.812 . S
C14 C15 1.389 . S
C14 C19 1.391 . S
C15 H1 0.941 . S
C15 C14 1.389 . S
C15 C16 1.397 . S
C16 H2 0.939 . S
C16 C15 1.397 . S
C16 C17 1.378 . S
C17 C16 1.378 . S
C17 C18 1.378 . S
C18 H3 0.940 . S
C18 C17 1.378 . S
C18 C19 1.396 . S
C19 H4 0.940 . S
C19 C14 1.391 . S
C19 C18 1.396 . S
C20 P0 1.803 . S
C20 C21 1.378 . S
C20 C25 1.400 . S
C21 H5 0.939 . S
C21 C20 1.378 . S
C21 C22 1.361 . S
C22 H6 0.942 . S
C22 C21 1.361 . S
C22 C23 1.369 . S
C23 C22 1.369 . S
C23 C24 1.404 . S
C24 H7 0.940 . S
C24 C23 1.404 . S
C24 C25 1.389 . S
C25 H8 0.939 . S
C25 C20 1.400 . S
C25 C24 1.389 . S
C26 P0 1.819 . S
C26 C27 1.391 . S
C26 C31 1.391 . S
C27 H9 0.941 . S
C27 C26 1.391 . S
C27 C28 1.396 . S
C28 H12 0.939 . S
C28 C27 1.396 . S
C28 C29 1.397 . S
C29 C28 1.397 . S
C29 C30 1.385 . S
C30 H13 0.940 . S
C30 C29 1.385 . S
C30 C31 1.388 . S
C31 H10 0.939 . S
C31 C26 1.391 . S
C31 C30 1.388 . S
P32 O43 1.490 . S
P32 C46 1.812 . S
P32 C52 1.803 . S
P32 C58 1.819 . S
H33 C47 0.941 . S
H34 C48 0.939 . S
H35 C50 0.940 . S
H36 C51 0.940 . S
H37 C53 0.938 1_455 S
H38 C54 0.942 . S
H39 C56 0.940 . S
H40 C57 0.939 . S
H41 C59 0.941 . S
H42 C63 0.939 . S
O43 P32 1.490 . S
H44 C60 0.939 . S
H45 C62 0.940 . S
C46 P32 1.812 . S
C46 C47 1.389 . S
C46 C51 1.391 . S
C47 H33 0.941 . S
C47 C46 1.389 . S
C47 C48 1.397 1_545 S
C48 H34 0.939 . S
C48 C47 1.397 1_565 S
C48 C49 1.387 . S
C49 C48 1.387 . S
C49 C50 1.365 1_565 S
C50 H35 0.940 . S
C50 C49 1.365 1_545 S
C50 C51 1.396 . S
C51 H36 0.940 . S
C51 C46 1.391 . S
C51 C50 1.396 . S
C52 P32 1.803 . S
C52 C53 1.380 . S
C52 C57 1.400 . S
C53 H37 0.938 1_655 S
C53 C52 1.380 . S
C53 C54 1.360 1_655 S
C54 H38 0.942 . S
C54 C53 1.360 1_455 S
C54 C55 1.369 . S
C55 C54 1.369 . S
C55 C56 1.404 1_455 S
C56 H39 0.940 . S
C56 C55 1.404 1_655 S
C56 C57 1.389 . S
C57 H40 0.939 . S
C57 C52 1.400 . S
C57 C56 1.389 . S
C58 P32 1.819 . S
C58 C59 1.391 . S
C58 C63 1.391 . S
C59 H41 0.941 . S
C59 C58 1.391 . S
C59 C60 1.396 . S
C60 H44 0.939 . S
C60 C59 1.396 . S
C60 C61 1.397 . S
C61 C60 1.397 . S
C61 C62 1.385 . S
C62 H45 0.940 . S
C62 C61 1.385 . S
C62 C63 1.388 . S
C63 H42 0.939 . S
C63 C58 1.391 . S
C63 C62 1.388 . S
P64 O75 1.490 . S
P64 C78 1.812 . S
P64 C84 1.803 . S
P64 C90 1.819 . S
H65 C79 0.941 . S
H66 C80 0.939 . S
H67 C82 0.940 . S
H68 C83 0.940 . S
H69 C85 0.939 . S
H70 C86 0.942 1_455 S
H71 C88 0.940 1_455 S
H72 C89 0.939 . S
H73 C91 0.941 . S
H74 C95 0.939 . S
O75 P64 1.490 . S
H76 C92 0.939 . S
H77 C94 0.940 . S
C78 P64 1.812 . S
C78 C79 1.389 . S
C78 C83 1.391 . S
C79 H65 0.941 . S
C79 C78 1.389 . S
C79 C80 1.397 . S
C80 H66 0.939 . S
C80 C79 1.397 . S
C80 C81 1.378 . S
C81 C80 1.378 . S
C81 C82 1.378 . S
C82 H67 0.940 . S
C82 C81 1.378 . S
C82 C83 1.396 . S
C83 H68 0.940 . S
C83 C78 1.391 . S
C83 C82 1.396 . S
C84 P64 1.803 . S
C84 C85 1.378 . S
C84 C89 1.400 . S
C85 H69 0.939 . S
C85 C84 1.378 . S
C85 C86 1.361 . S
C86 H70 0.942 1_655 S
C86 C85 1.361 . S
C86 C87 1.369 1_655 S
C87 C86 1.369 1_455 S
C87 C88 1.404 1_455 S
C88 H71 0.940 1_655 S
C88 C87 1.404 1_655 S
C88 C89 1.389 . S
C89 H72 0.939 . S
C89 C84 1.400 . S
C89 C88 1.389 . S
C90 P64 1.819 . S
C90 C91 1.391 . S
C90 C95 1.391 . S
C91 H73 0.941 . S
C91 C90 1.391 . S
C91 C92 1.396 . S
C92 H76 0.939 . S
C92 C91 1.396 . S
C92 C93 1.397 . S
C93 C92 1.397 . S
C93 C94 1.385 . S
C94 H77 0.940 . S
C94 C93 1.385 . S
C94 C95 1.388 . S
C95 H74 0.939 . S
C95 C90 1.391 . S
C95 C94 1.388 . S
P96 O107 1.490 . S
P96 C110 1.812 . S
P96 C116 1.803 . S
P96 C122 1.819 . S
H97 C111 0.941 . S
H98 C112 0.939 . S
H99 C114 0.940 . S
H100 C115 0.940 . S
H101 C117 0.939 . S
H102 C118 0.942 . S
H103 C120 0.940 . S
H104 C121 0.939 . S
H105 C123 0.941 . S
H106 C127 0.939 . S
O107 P96 1.490 . S
H108 C124 0.939 . S
H109 C126 0.940 . S
C110 P96 1.812 . S
C110 C111 1.389 . S
C110 C115 1.391 . S
C111 H97 0.941 . S
C111 C110 1.389 . S
C111 C112 1.397 . S
C112 H98 0.939 . S
C112 C111 1.397 . S
C112 C113 1.378 1_455 S
C113 C112 1.378 1_655 S
C113 C114 1.378 . S
C114 H99 0.940 . S
C114 C113 1.378 . S
C114 C115 1.396 1_655 S
C115 H100 0.940 . S
C115 C110 1.391 . S
C115 C114 1.396 1_455 S
C116 P96 1.803 . S
C116 C117 1.378 . S
C116 C121 1.400 . S
C117 H101 0.939 . S
C117 C116 1.378 . S
C117 C118 1.361 . S
C118 H102 0.942 . S
C118 C117 1.361 . S
C118 C119 1.369 . S
C119 C118 1.369 . S
C119 C120 1.404 . S
C120 H103 0.940 . S
C120 C119 1.404 . S
C120 C121 1.389 . S
C121 H104 0.939 . S
C121 C116 1.400 . S
C121 C120 1.389 . S
C122 P96 1.819 . S
C122 C123 1.391 . S
C122 C127 1.391 . S
C123 H105 0.941 . S
C123 C122 1.391 . S
C123 C124 1.396 . S
C124 H108 0.939 . S
C124 C123 1.396 . S
C124 C125 1.397 . S
C125 C124 1.397 . S
C125 C126 1.385 . S
C126 H109 0.940 . S
C126 C125 1.385 . S
C126 C127 1.388 . S
C127 H106 0.939 . S
C127 C122 1.391 . S
C127 C126 1.388 . S
P128 O139 1.490 . S
P128 C142 1.812 . S
P128 C148 1.803 . S
P128 C154 1.819 . S
H129 C143 0.941 . S
H130 C144 0.939 1_545 S
H131 C146 0.940 . S
H132 C147 0.940 . S
H133 C149 0.939 . S
H134 C150 0.942 . S
H135 C152 0.940 . S
H136 C153 0.939 . S
H137 C155 0.941 . S
H138 C159 0.939 . S
O139 P128 1.490 . S
H140 C156 0.939 . S
H141 C158 0.940 . S
C142 P128 1.812 . S
C142 C143 1.389 . S
C142 C147 1.391 . S
C143 H129 0.941 . S
C143 C142 1.389 . S
C143 C144 1.397 . S
C144 H130 0.939 1_565 S
C144 C143 1.397 . S
C144 C145 1.378 . S
C145 C144 1.378 . S
C145 C146 1.378 . S
C146 H131 0.940 . S
C146 C145 1.378 . S
C146 C147 1.396 . S
C147 H132 0.940 . S
C147 C142 1.391 . S
C147 C146 1.396 . S
C148 P128 1.803 . S
C148 C149 1.378 . S
C148 C153 1.400 . S
C149 H133 0.939 . S
C149 C148 1.378 . S
C149 C150 1.361 . S
C150 H134 0.942 . S
C150 C149 1.361 . S
C150 C151 1.369 . S
C151 C150 1.369 . S
C151 C152 1.404 . S
C152 H135 0.940 . S
C152 C151 1.404 . S
C152 C153 1.389 . S
C153 H136 0.939 . S
C153 C148 1.400 . S
C153 C152 1.389 . S
C154 P128 1.819 . S
C154 C155 1.391 . S
C154 C159 1.391 . S
C155 H137 0.941 . S
C155 C154 1.391 . S
C155 C156 1.396 . S
C156 H140 0.939 . S
C156 C155 1.396 . S
C156 C157 1.397 . S
C157 C156 1.397 . S
C157 C158 1.385 . S
C158 H141 0.940 . S
C158 C157 1.385 . S
C158 C159 1.388 . S
C159 H138 0.939 . S
C159 C154 1.391 . S
C159 C158 1.388 . S
P160 O171 1.490 . S
P160 C174 1.812 . S
P160 C180 1.803 . S
P160 C186 1.819 . S
H161 C175 0.941 . S
H162 C176 0.939 . S
H163 C178 0.934 1_545 S
H164 C179 0.940 . S
H165 C181 0.939 . S
H166 C182 0.942 . S
H167 C184 0.940 . S
H168 C185 0.939 . S
H169 C187 0.941 . S
H170 C191 0.939 . S
O171 P160 1.490 . S
H172 C188 0.939 . S
H173 C190 0.940 . S
C174 P160 1.812 . S
C174 C175 1.389 . S
C174 C179 1.391 . S
C175 H161 0.941 . S
C175 C174 1.389 . S
C175 C176 1.397 . S
C176 H162 0.939 . S
C176 C175 1.397 . S
C176 C177 1.378 . S
C177 C176 1.378 . S
C177 C178 1.378 . S
C178 H163 0.934 1_565 S
C178 C177 1.378 . S
C178 C179 1.396 . S
C179 H164 0.940 . S
C179 C174 1.391 . S
C179 C178 1.396 . S
C180 P160 1.803 . S
C180 C181 1.378 . S
C180 C185 1.400 . S
C181 H165 0.939 . S
C181 C180 1.378 . S
C181 C182 1.361 . S
C182 H166 0.942 . S
C182 C181 1.361 . S
C182 C183 1.387 . S
C183 C182 1.387 . S
C183 C184 1.403 . S
C184 H167 0.940 . S
C184 C183 1.403 . S
C184 C185 1.389 . S
C185 H168 0.939 . S
C185 C180 1.400 . S
C185 C184 1.389 . S
C186 P160 1.819 . S
C186 C187 1.391 . S
C186 C191 1.391 . S
C187 H169 0.941 . S
C187 C186 1.391 . S
C187 C188 1.396 . S
C188 H172 0.939 . S
C188 C187 1.396 . S
C188 C189 1.397 . S
C189 C188 1.397 . S
C189 C190 1.385 . S
C190 H173 0.940 . S
C190 C189 1.385 . S
C190 C191 1.388 . S
C191 H170 0.939 . S
C191 C186 1.391 . S
C191 C190 1.388 . S
P192 O203 1.490 . S
P192 C206 1.812 1_455 S
P192 C212 1.803 1_455 S
P192 C218 1.819 . S
H193 C207 0.941 . S
H194 C208 0.938 1_455 S
H195 C210 0.940 . S
H196 C211 0.940 . S
H197 C213 0.939 . S
H198 C214 0.941 1_455 S
H199 C216 0.940 . S
H200 C217 0.939 . S
H201 C219 0.941 . S
H202 C223 0.939 . S
O203 P192 1.490 . S
H204 C220 0.939 . S
H205 C222 0.940 . S
C206 P192 1.812 1_655 S
C206 C207 1.389 1_655 S
C206 C211 1.391 . S
C207 H193 0.941 . S
C207 C206 1.389 1_455 S
C207 C208 1.397 1_455 S
C208 H194 0.938 1_655 S
C208 C207 1.397 1_655 S
C208 C209 1.378 . S
C209 C208 1.378 . S
C209 C210 1.378 . S
C210 H195 0.940 . S
C210 C209 1.378 . S
C210 C211 1.396 . S
C211 H196 0.940 . S
C211 C206 1.391 . S
C211 C210 1.396 . S
C212 P192 1.803 1_655 S
C212 C213 1.378 1_655 S
C212 C217 1.400 . S
C213 H197 0.939 . S
C213 C212 1.378 1_455 S
C213 C214 1.353 1_455 S
C214 H198 0.941 1_655 S
C214 C213 1.353 1_655 S
C214 C215 1.378 . S
C215 C214 1.378 . S
C215 C216 1.404 . S
C216 H199 0.940 . S
C216 C215 1.404 . S
C216 C217 1.389 . S
C217 H200 0.939 . S
C217 C212 1.400 . S
C217 C216 1.389 . S
C218 P192 1.819 . S
C218 C219 1.391 . S
C218 C223 1.391 1_455 S
C219 H201 0.941 . S
C219 C218 1.391 . S
C219 C220 1.396 . S
C220 H204 0.939 . S
C220 C219 1.396 . S
C220 C221 1.397 . S
C221 C220 1.397 . S
C221 C222 1.385 1_455 S
C222 H205 0.940 . S
C222 C221 1.385 1_655 S
C222 C223 1.388 . S
C223 H202 0.939 . S
C223 C218 1.391 1_655 S
C223 C222 1.388 . S
P224 O235 1.490 . S
P224 C238 1.812 . S
P224 C244 1.803 . S
P224 C250 1.819 . S
H225 C239 0.941 . S
H226 C240 0.939 . S
H227 C242 0.940 . S
H228 C243 0.940 . S
H229 C245 0.939 . S
H230 C246 0.942 . S
H231 C248 0.940 . S
H232 C249 0.939 . S
H233 C251 0.941 . S
H234 C255 0.939 . S
O235 P224 1.490 . S
H236 C252 0.939 . S
H237 C254 0.940 . S
C238 P224 1.812 . S
C238 C239 1.389 . S
C238 C243 1.391 . S
C239 H225 0.941 . S
C239 C238 1.389 . S
C239 C240 1.397 . S
C240 H226 0.939 . S
C240 C239 1.397 . S
C240 C241 1.378 . S
C241 C240 1.378 . S
C241 C242 1.378 . S
C242 H227 0.940 . S
C242 C241 1.378 . S
C242 C243 1.396 . S
C243 H228 0.940 . S
C243 C238 1.391 . S
C243 C242 1.396 . S
C244 P224 1.803 . S
C244 C245 1.378 . S
C244 C249 1.400 . S
C245 H229 0.939 . S
C245 C244 1.378 . S
C245 C246 1.361 . S
C246 H230 0.942 . S
C246 C245 1.361 . S
C246 C247 1.369 . S
C247 C246 1.369 . S
C247 C248 1.404 . S
C248 H231 0.940 . S
C248 C247 1.404 . S
C248 C249 1.389 . S
C249 H232 0.939 . S
C249 C244 1.400 . S
C249 C248 1.389 . S
C250 P224 1.819 . S
C250 C251 1.391 . S
C250 C255 1.391 . S
C251 H233 0.941 . S
C251 C250 1.391 . S
C251 C252 1.396 . S
C252 H236 0.939 . S
C252 C251 1.396 . S
C252 C253 1.397 . S
C253 C252 1.397 . S
C253 C254 1.385 . S
C254 H237 0.940 . S
C254 C253 1.385 . S
C254 C255 1.388 . S
C255 H234 0.939 . S
C255 C250 1.391 . S
C255 C254 1.388 . S
P256 O267 1.490 . S
P256 C270 1.812 1_565 S
P256 C276 1.803 1_565 S
P256 C282 1.819 1_565 S
H257 C271 0.941 1_565 S
H258 C272 0.939 . S
H259 C274 0.940 . S
H260 C275 0.940 . S
H261 C277 0.939 1_565 S
H262 C278 0.942 . S
H263 C280 0.940 . S
H264 C281 0.939 . S
H265 C283 0.941 . S
H266 C287 0.939 . S
O267 P256 1.490 . S
H268 C284 0.939 . S
H269 C286 0.940 . S
C270 P256 1.812 1_545 S
C270 C271 1.389 . S
C270 C275 1.391 . S
C271 H257 0.941 1_545 S
C271 C270 1.389 . S
C271 C272 1.397 . S
C272 H258 0.939 . S
C272 C271 1.397 . S
C272 C273 1.378 . S
C273 C272 1.378 . S
C273 C274 1.378 . S
C274 H259 0.940 . S
C274 C273 1.378 . S
C274 C275 1.396 . S
C275 H260 0.940 . S
C275 C270 1.391 . S
C275 C274 1.396 . S
C276 P256 1.803 1_545 S
C276 C277 1.378 . S
C276 C281 1.400 . S
C277 H261 0.939 1_545 S
C277 C276 1.378 . S
C277 C278 1.361 . S
C278 H262 0.942 . S
C278 C277 1.361 . S
C278 C279 1.369 . S
C279 C278 1.369 . S
C279 C280 1.404 . S
C280 H263 0.940 . S
C280 C279 1.404 . S
C280 C281 1.389 . S
C281 H264 0.939 . S
C281 C276 1.400 . S
C281 C280 1.389 . S
C282 P256 1.819 1_545 S
C282 C283 1.391 1_545 S
C282 C287 1.391 . S
C283 H265 0.941 . S
C283 C282 1.391 1_565 S
C283 C284 1.396 . S
C284 H268 0.939 . S
C284 C283 1.396 . S
C284 C285 1.397 1_565 S
C285 C284 1.397 1_545 S
C285 C286 1.385 . S
C286 H269 0.940 . S
C286 C285 1.385 . S
C286 C287 1.388 . S
C287 H266 0.939 . S
C287 C282 1.391 . S
C287 C286 1.388 . S
P288 O299 1.490 . S
P288 C302 1.812 . S
P288 C308 1.803 . S
P288 C314 1.819 . S
H289 C303 0.941 . S
H290 C304 0.939 1_554 S
H291 C306 0.940 . S
H292 C307 0.940 . S
H293 C309 0.939 . S
H294 C310 0.942 . S
H295 C312 0.940 . S
H296 C313 0.939 . S
H297 C315 0.941 . S
H298 C319 0.939 . S
O299 P288 1.490 . S
H300 C316 0.939 . S
H301 C318 0.940 . S
C302 P288 1.812 . S
C302 C303 1.389 . S
C302 C307 1.391 . S
C303 H289 0.941 . S
C303 C302 1.389 . S
C303 C304 1.397 . S
C304 H290 0.939 1_556 S
C304 C303 1.397 . S
C304 C305 1.378 . S
C305 C304 1.378 . S
C305 C306 1.378 . S
C306 H291 0.940 . S
C306 C305 1.378 . S
C306 C307 1.396 . S
C307 H292 0.940 . S
C307 C302 1.391 . S
C307 C306 1.396 . S
C308 P288 1.803 . S
C308 C309 1.378 . S
C308 C313 1.400 . S
C309 H293 0.939 . S
C309 C308 1.378 . S
C309 C310 1.361 . S
C310 H294 0.942 . S
C310 C309 1.361 . S
C310 C311 1.369 . S
C311 C310 1.369 . S
C311 C312 1.404 . S
C312 H295 0.940 . S
C312 C311 1.404 . S
C312 C313 1.389 . S
C313 H296 0.939 . S
C313 C308 1.400 . S
C313 C312 1.389 . S
C314 P288 1.819 . S
C314 C315 1.391 . S
C314 C319 1.391 . S
C315 H297 0.941 . S
C315 C314 1.391 . S
C315 C316 1.396 . S
C316 H300 0.939 . S
C316 C315 1.396 . S
C316 C317 1.397 . S
C317 C316 1.397 . S
C317 C318 1.385 . S
C318 H301 0.940 . S
C318 C317 1.385 . S
C318 C319 1.388 . S
C319 H298 0.939 . S
C319 C314 1.391 . S
C319 C318 1.388 . S
P320 O331 1.490 . S
P320 C334 1.812 . S
P320 C340 1.803 . S
P320 C346 1.819 . S
H321 C335 0.941 . S
H322 C336 0.923 1_554 S
H323 C338 0.940 . S
H324 C339 0.940 . S
H325 C341 0.939 . S
H326 C342 0.942 . S
H327 C344 0.940 1_554 S
H328 C345 0.939 . S
H329 C347 0.941 . S
H330 C351 0.939 . S
O331 P320 1.490 . S
H332 C348 0.939 . S
H333 C350 0.940 . S
C334 P320 1.812 . S
C334 C335 1.389 . S
C334 C339 1.391 . S
C335 H321 0.941 . S
C335 C334 1.389 . S
C335 C336 1.412 . S
C336 H322 0.923 1_556 S
C336 C335 1.412 . S
C336 C337 1.380 . S
C337 C336 1.380 . S
C337 C338 1.378 . S
C338 H323 0.940 . S
C338 C337 1.378 . S
C338 C339 1.396 . S
C339 H324 0.940 . S
C339 C334 1.391 . S
C339 C338 1.396 . S
C340 P320 1.803 . S
C340 C341 1.378 . S
C340 C345 1.400 . S
C341 H325 0.939 . S
C341 C340 1.378 . S
C341 C342 1.361 . S
C342 H326 0.942 . S
C342 C341 1.361 . S
C342 C343 1.369 . S
C343 C342 1.369 . S
C343 C344 1.404 . S
C344 H327 0.940 1_556 S
C344 C343 1.404 . S
C344 C345 1.389 . S
C345 H328 0.939 . S
C345 C340 1.400 . S
C345 C344 1.389 . S
C346 P320 1.819 . S
C346 C347 1.391 . S
C346 C351 1.391 . S
C347 H329 0.941 . S
C347 C346 1.391 . S
C347 C348 1.396 . S
C348 H332 0.939 . S
C348 C347 1.396 . S
C348 C349 1.397 . S
C349 C348 1.397 . S
C349 C350 1.385 . S
C350 H333 0.940 . S
C350 C349 1.385 . S
C350 C351 1.388 . S
C351 H330 0.939 . S
C351 C346 1.391 . S
C351 C350 1.388 . S
P352 O363 1.490 . S
P352 C366 1.812 . S
P352 C372 1.803 . S
P352 C378 1.819 . S
H353 C367 0.941 1_554 S
H354 C368 0.939 . S
H355 C370 0.940 . S
H356 C371 0.940 . S
H357 C373 0.939 . S
H358 C374 0.942 1_565 S
H359 C376 0.940 . S
H360 C377 0.939 . S
H361 C379 0.941 . S
H362 C383 0.939 . S
O363 P352 1.490 . S
H364 C380 0.939 . S
H365 C382 0.940 . S
C366 P352 1.812 . S
C366 C367 1.389 . S
C366 C371 1.391 . S
C367 H353 0.941 1_556 S
C367 C366 1.389 . S
C367 C368 1.397 1_556 S
C368 H354 0.939 . S
C368 C367 1.397 1_554 S
C368 C369 1.378 1_554 S
C369 C368 1.378 1_556 S
C369 C370 1.378 . S
C370 H355 0.940 . S
C370 C369 1.378 . S
C370 C371 1.396 . S
C371 H356 0.940 . S
C371 C366 1.391 . S
C371 C370 1.396 . S
C372 P352 1.803 . S
C372 C373 1.378 . S
C372 C377 1.400 . S
C373 H357 0.939 . S
C373 C372 1.378 . S
C373 C374 1.361 . S
C374 H358 0.942 1_545 S
C374 C373 1.361 . S
C374 C375 1.369 . S
C375 C374 1.369 . S
C375 C376 1.404 . S
C376 H359 0.940 . S
C376 C375 1.404 . S
C376 C377 1.389 . S
C377 H360 0.939 . S
C377 C372 1.400 . S
C377 C376 1.389 . S
C378 P352 1.819 . S
C378 C379 1.391 . S
C378 C383 1.391 . S
C379 H361 0.941 . S
C379 C378 1.391 . S
C379 C380 1.396 . S
C380 H364 0.939 . S
C380 C379 1.396 . S
C380 C381 1.397 . S
C381 C380 1.397 . S
C381 C382 1.385 . S
C382 H365 0.940 . S
C382 C381 1.385 . S
C382 C383 1.388 . S
C383 H362 0.939 . S
C383 C378 1.391 . S
C383 C382 1.388 . S
P384 O395 1.490 . S
P384 C398 1.812 . S
P384 C404 1.803 . S
P384 C410 1.819 . S
H385 C399 0.941 . S
H386 C400 0.939 1_556 S
H387 C402 0.940 . S
H388 C403 0.940 . S
H389 C405 0.939 . S
H390 C406 0.942 1_545 S
H391 C408 0.940 . S
H392 C409 0.939 . S
H393 C411 0.941 . S
H394 C415 0.939 . S
O395 P384 1.490 . S
H396 C412 0.939 . S
H397 C414 0.940 . S
C398 P384 1.812 . S
C398 C399 1.389 . S
C398 C403 1.391 . S
C399 H385 0.941 . S
C399 C398 1.389 . S
C399 C400 1.397 . S
C400 H386 0.939 1_554 S
C400 C399 1.397 . S
C400 C401 1.378 . S
C401 C400 1.378 . S
C401 C402 1.378 . S
C402 H387 0.940 . S
C402 C401 1.378 . S
C402 C403 1.396 . S
C403 H388 0.940 . S
C403 C398 1.391 . S
C403 C402 1.396 . S
C404 P384 1.803 . S
C404 C405 1.378 . S
C404 C409 1.400 . S
C405 H389 0.939 . S
C405 C404 1.378 . S
C405 C406 1.361 . S
C406 H390 0.942 1_565 S
C406 C405 1.361 . S
C406 C407 1.369 . S
C407 C406 1.369 . S
C407 C408 1.404 . S
C408 H391 0.940 . S
C408 C407 1.404 . S
C408 C409 1.389 . S
C409 H392 0.939 . S
C409 C404 1.400 . S
C409 C408 1.389 . S
C410 P384 1.819 . S
C410 C411 1.391 . S
C410 C415 1.391 . S
C411 H393 0.941 . S
C411 C410 1.391 . S
C411 C412 1.396 . S
C412 H396 0.939 . S
C412 C411 1.396 . S
C412 C413 1.397 . S
C413 C412 1.397 . S
C413 C414 1.385 . S
C414 H397 0.940 . S
C414 C413 1.385 . S
C414 C415 1.388 . S
C415 H394 0.939 . S
C415 C410 1.391 . S
C415 C414 1.388 . S
P416 O427 1.490 . S
P416 C430 1.812 . S
P416 C436 1.803 . S
P416 C442 1.819 . S
H417 C431 0.941 . S
H418 C432 0.939 . S
H419 C434 0.940 . S
H420 C435 0.940 . S
H421 C437 0.939 . S
H422 C438 0.942 . S
H423 C440 0.940 . S
H424 C441 0.939 . S
H425 C443 0.941 . S
H426 C447 0.939 . S
O427 P416 1.490 . S
H428 C444 0.939 . S
H429 C446 0.940 . S
C430 P416 1.812 . S
C430 C431 1.389 . S
C430 C435 1.391 . S
C431 H417 0.941 . S
C431 C430 1.389 . S
C431 C432 1.397 . S
C432 H418 0.939 . S
C432 C431 1.397 . S
C432 C433 1.378 . S
C433 C432 1.378 . S
C433 C434 1.378 . S
C434 H419 0.940 . S
C434 C433 1.378 . S
C434 C435 1.396 . S
C435 H420 0.940 . S
C435 C430 1.391 . S
C435 C434 1.396 . S
C436 P416 1.803 . S
C436 C437 1.378 . S
C436 C441 1.400 . S
C437 H421 0.939 . S
C437 C436 1.378 . S
C437 C438 1.361 . S
C438 H422 0.942 . S
C438 C437 1.361 . S
C438 C439 1.369 . S
C439 C438 1.369 . S
C439 C440 1.404 . S
C440 H423 0.940 . S
C440 C439 1.404 . S
C440 C441 1.389 . S
C441 H424 0.939 . S
C441 C436 1.400 . S
C441 C440 1.389 . S
C442 P416 1.819 . S
C442 C443 1.391 . S
C442 C447 1.391 . S
C443 H425 0.941 . S
C443 C442 1.391 . S
C443 C444 1.396 . S
C444 H428 0.939 . S
C444 C443 1.396 . S
C444 C445 1.397 . S
C445 C444 1.397 . S
C445 C446 1.385 . S
C446 H429 0.940 . S
C446 C445 1.385 . S
C446 C447 1.388 . S
C447 H426 0.939 . S
C447 C442 1.391 . S
C447 C446 1.388 . S
P448 O459 1.490 . S
P448 C462 1.812 . S
P448 C468 1.803 . S
P448 C474 1.819 . S
H449 C463 0.941 . S
H450 C464 0.928 1_556 S
H451 C466 0.940 . S
H452 C467 0.940 . S
H453 C469 0.939 . S
H454 C470 0.942 . S
H455 C472 0.940 . S
H456 C473 0.939 . S
H457 C475 0.941 . S
H458 C479 0.939 . S
O459 P448 1.490 . S
H460 C476 0.939 . S
H461 C478 0.940 . S
C462 P448 1.812 . S
C462 C463 1.389 . S
C462 C467 1.391 . S
C463 H449 0.941 . S
C463 C462 1.389 . S
C463 C464 1.397 . S
C464 H450 0.928 1_554 S
C464 C463 1.397 . S
C464 C465 1.378 . S
C465 C464 1.378 . S
C465 C466 1.378 . S
C466 H451 0.940 . S
C466 C465 1.378 . S
C466 C467 1.396 . S
C467 H452 0.940 . S
C467 C462 1.391 . S
C467 C466 1.396 . S
C468 P448 1.803 . S
C468 C469 1.378 . S
C468 C473 1.400 . S
C469 H453 0.939 . S
C469 C468 1.378 . S
C469 C470 1.361 . S
C470 H454 0.942 . S
C470 C469 1.361 . S
C470 C471 1.369 . S
C471 C470 1.369 . S
C471 C472 1.404 . S
C472 H455 0.940 . S
C472 C471 1.404 . S
C472 C473 1.389 . S
C473 H456 0.939 . S
C473 C468 1.400 . S
C473 C472 1.389 . S
C474 P448 1.819 . S
C474 C475 1.391 . S
C474 C479 1.391 . S
C475 H457 0.941 . S
C475 C474 1.391 . S
C475 C476 1.396 . S
C476 H460 0.939 . S
C476 C475 1.396 . S
C476 C477 1.397 . S
C477 C476 1.397 . S
C477 C478 1.385 . S
C478 H461 0.940 . S
C478 C477 1.385 . S
C478 C479 1.388 . S
C479 H458 0.939 . S
C479 C474 1.391 . S
C479 C478 1.388 . S
P480 O491 1.490 . S
P480 C494 1.812 1_545 S
P480 C500 1.803 1_545 S
P480 C506 1.819 1_545 S
H481 C495 0.941 1_545 S
H482 C496 0.939 . S
H483 C498 0.940 . S
H484 C499 0.940 . S
H485 C501 0.939 1_545 S
H486 C502 0.942 . S
H487 C504 0.940 . S
H488 C505 0.939 . S
H489 C507 0.941 . S
H490 C511 0.939 . S
O491 P480 1.490 . S
H492 C508 0.939 . S
H493 C510 0.940 . S
C494 P480 1.812 1_565 S
C494 C495 1.389 . S
C494 C499 1.391 . S
C495 H481 0.941 1_565 S
C495 C494 1.389 . S
C495 C496 1.397 . S
C496 H482 0.939 . S
C496 C495 1.397 . S
C496 C497 1.378 . S
C497 C496 1.378 . S
C497 C498 1.378 . S
C498 H483 0.940 . S
C498 C497 1.378 . S
C498 C499 1.396 . S
C499 H484 0.940 . S
C499 C494 1.391 . S
C499 C498 1.396 . S
C500 P480 1.803 1_565 S
C500 C501 1.378 . S
C500 C505 1.400 . S
C501 H485 0.939 1_565 S
C501 C500 1.378 . S
C501 C502 1.361 . S
C502 H486 0.942 . S
C502 C501 1.361 . S
C502 C503 1.369 . S
C503 C502 1.369 . S
C503 C504 1.404 . S
C504 H487 0.940 . S
C504 C503 1.404 . S
C504 C505 1.389 . S
C505 H488 0.939 . S
C505 C500 1.400 . S
C505 C504 1.389 . S
C506 P480 1.819 1_565 S
C506 C507 1.391 1_565 S
C506 C511 1.391 . S
C507 H489 0.941 . S
C507 C506 1.391 1_545 S
C507 C508 1.396 . S
C508 H492 0.939 . S
C508 C507 1.396 . S
C508 C509 1.397 1_545 S
C509 C508 1.397 1_565 S
C509 C510 1.385 . S
C510 H493 0.940 . S
C510 C509 1.385 . S
C510 C511 1.388 . S
C511 H490 0.939 . S
C511 C506 1.391 . S
C511 C510 1.388 . S
P512 O523 1.490 . S
P512 C526 1.812 . S
P512 C532 1.803 . S
P512 C538 1.819 . S
H513 C527 0.941 . S
H514 C528 0.939 . S
H515 C530 0.940 . S
H516 C531 0.940 . S
H517 C533 0.939 . S
H518 C534 0.942 . S
H519 C536 0.940 . S
H520 C537 0.939 . S
H521 C539 0.941 . S
H522 C543 0.939 . S
O523 P512 1.490 . S
H524 C540 0.939 . S
H525 C542 0.940 1_655 S
C526 P512 1.812 . S
C526 C527 1.389 . S
C526 C531 1.391 . S
C527 H513 0.941 . S
C527 C526 1.389 . S
C527 C528 1.397 . S
C528 H514 0.939 . S
C528 C527 1.397 . S
C528 C529 1.378 . S
C529 C528 1.378 . S
C529 C530 1.378 . S
C530 H515 0.940 . S
C530 C529 1.378 . S
C530 C531 1.396 . S
C531 H516 0.940 . S
C531 C526 1.391 . S
C531 C530 1.396 . S
C532 P512 1.803 . S
C532 C533 1.378 . S
C532 C537 1.400 . S
C533 H517 0.939 . S
C533 C532 1.378 . S
C533 C534 1.361 . S
C534 H518 0.942 . S
C534 C533 1.361 . S
C534 C535 1.369 . S
C535 C534 1.369 . S
C535 C536 1.404 . S
C536 H519 0.940 . S
C536 C535 1.404 . S
C536 C537 1.389 . S
C537 H520 0.939 . S
C537 C532 1.400 . S
C537 C536 1.389 . S
C538 P512 1.819 . S
C538 C539 1.391 . S
C538 C543 1.391 . S
C539 H521 0.941 . S
C539 C538 1.391 . S
C539 C540 1.396 . S
C540 H524 0.939 . S
C540 C539 1.396 . S
C540 C541 1.397 . S
C541 C540 1.397 . S
C541 C542 1.385 . S
C542 H525 0.940 1_455 S
C542 C541 1.385 . S
C542 C543 1.388 . S
C543 H522 0.939 . S
C543 C538 1.391 . S
C543 C542 1.388 . S
P544 O555 1.490 . S
P544 C558 1.812 . S
P544 C564 1.803 . S
P544 C570 1.819 . S
H545 C559 0.941 . S
H546 C560 0.939 . S
H547 C562 0.940 . S
H548 C563 0.940 . S
H549 C565 0.939 . S
H550 C566 0.942 . S
H551 C568 0.940 . S
H552 C569 0.939 . S
H553 C571 0.941 . S
H554 C575 0.939 . S
O555 P544 1.490 . S
H556 C572 0.939 . S
H557 C574 0.940 . S
C558 P544 1.812 . S
C558 C559 1.389 . S
C558 C563 1.391 . S
C559 H545 0.941 . S
C559 C558 1.389 . S
C559 C560 1.397 . S
C560 H546 0.939 . S
C560 C559 1.397 . S
C560 C561 1.378 . S
C561 C560 1.378 . S
C561 C562 1.378 . S
C562 H547 0.940 . S
C562 C561 1.378 . S
C562 C563 1.396 . S
C563 H548 0.940 . S
C563 C558 1.391 . S
C563 C562 1.396 . S
C564 P544 1.803 . S
C564 C565 1.378 . S
C564 C569 1.400 . S
C565 H549 0.939 . S
C565 C564 1.378 . S
C565 C566 1.361 . S
C566 H550 0.942 . S
C566 C565 1.361 . S
C566 C567 1.369 . S
C567 C566 1.369 . S
C567 C568 1.404 . S
C568 H551 0.940 . S
C568 C567 1.404 . S
C568 C569 1.389 . S
C569 H552 0.939 . S
C569 C564 1.400 . S
C569 C568 1.389 . S
C570 P544 1.819 . S
C570 C571 1.391 . S
C570 C575 1.391 . S
C571 H553 0.941 . S
C571 C570 1.391 . S
C571 C572 1.396 . S
C572 H556 0.939 . S
C572 C571 1.396 . S
C572 C573 1.397 . S
C573 C572 1.397 . S
C573 C574 1.385 . S
C574 H557 0.940 . S
C574 C573 1.385 . S
C574 C575 1.388 . S
C575 H554 0.939 . S
C575 C570 1.391 . S
C575 C574 1.388 . S
Tb576 C586 2.825 . S
Tb576 O587 2.347 1_565 S
Tb576 O590 2.366 1_565 S
Tb576 O595 2.418 . S
Tb576 O596 2.385 1_556 S
Tb576 O599 2.479 . S
Tb576 O600 2.471 . S
Eu577 O588 2.418 . S
Eu577 O589 2.384 . S
Eu577 O592 2.479 . S
Eu577 O593 2.471 . S
Eu577 O594 2.347 1_545 S
Eu577 O597 2.366 1_545 S
Eu577 C607 2.825 . S
C578 O594 1.259 . S
C578 O595 1.265 1_554 S
C579 O596 1.254 . S
C579 O597 1.265 . S
C580 C582 1.380 . S
C580 C583 1.374 1_565 S
C580 C586 1.507 . S
C581 C582 1.384 . S
C581 C585 1.387 1_565 S
C581 H608 0.930 . S
C582 C580 1.380 . S
C582 C581 1.384 . S
C582 H609 0.931 . S
C583 C580 1.374 1_545 S
C583 C584 1.390 . S
C583 H610 0.930 . S
C584 C583 1.390 . S
C584 C585 1.391 . S
C584 H611 0.930 . S
C585 C581 1.387 1_545 S
C585 C584 1.391 . S
C586 Tb576 2.825 . S
C586 C580 1.507 . S
C586 O599 1.238 . S
C586 O600 1.247 . S
O587 Tb576 2.347 1_545 S
O587 C591 1.259 . S
O588 Eu577 2.418 . S
O588 C591 1.265 1_554 S
O589 Eu577 2.384 . S
O589 C598 1.255 1_554 S
O590 Tb576 2.366 1_545 S
O590 C598 1.265 . S
C591 O587 1.259 . S
C591 O588 1.265 1_556 S
O592 Eu577 2.479 . S
O592 C607 1.238 . S
O593 Eu577 2.471 . S
O593 C607 1.247 . S
O594 Eu577 2.347 1_565 S
O594 C578 1.259 . S
O595 Tb576 2.418 . S
O595 C578 1.265 1_556 S
O596 Tb576 2.385 1_554 S
O596 C579 1.254 . S
O597 Eu577 2.366 1_565 S
O597 C579 1.265 . S
C598 O589 1.255 1_556 S
C598 O590 1.265 . S
O599 Tb576 2.479 . S
O599 C586 1.238 . S
O600 Tb576 2.471 . S
O600 C586 1.247 . S
C601 C604 1.380 . S
C601 C605 1.374 1_545 S
C601 C607 1.507 . S
C602 C603 1.387 1_565 S
C602 C606 1.391 . S
C603 C602 1.387 1_545 S
C603 C604 1.384 . S
C603 H612 0.930 . S
C604 C601 1.380 . S
C604 C603 1.384 . S
C604 H613 0.931 . S
C605 C601 1.374 1_565 S
C605 C606 1.390 . S
C605 H614 0.930 . S
C606 C602 1.391 . S
C606 C605 1.390 . S
C606 H615 0.930 . S
C607 Eu577 2.825 . S
C607 O592 1.238 . S
C607 O593 1.247 . S
C607 C601 1.507 . S
H608 C581 0.930 . S
H609 C582 0.931 . S
H610 C583 0.930 . S
H611 C584 0.930 . S
H612 C603 0.930 . S
H613 C604 0.931 . S
H614 C605 0.930 . S
H615 C606 0.930 . S
Tb616 C626 2.825 . S
Tb616 O627 2.347 1_455 S
Tb616 O630 2.366 1_455 S
Tb616 O635 2.418 . S
Tb616 O636 2.384 1_556 S
Tb616 O639 2.479 . S
Tb616 O640 2.471 1_455 S
Eu617 O628 2.418 . S
Eu617 O629 2.407 . S
Eu617 O632 2.479 . S
Eu617 O633 2.471 1_655 S
Eu617 O634 2.347 1_655 S
Eu617 O637 2.366 1_655 S
Eu617 C647 2.825 . S
C618 O634 1.259 . S
C618 O635 1.265 1_554 S
C619 O636 1.255 . S
C619 O637 1.265 . S
C620 C622 1.380 . S
C620 C623 1.374 1_455 S
C620 C626 1.507 . S
C621 C622 1.384 . S
C621 C625 1.387 1_455 S
C621 H648 0.930 . S
C622 C620 1.380 . S
C622 C621 1.384 . S
C622 H649 0.931 . S
C623 C620 1.374 1_655 S
C623 C624 1.390 . S
C623 H650 0.930 . S
C624 C623 1.390 . S
C624 C625 1.391 . S
C624 H651 0.930 . S
C625 C621 1.387 1_655 S
C625 C624 1.391 . S
C626 Tb616 2.825 . S
C626 C620 1.507 . S
C626 O639 1.238 . S
C626 O640 1.247 1_455 S
O627 Tb616 2.347 1_655 S
O627 C631 1.259 . S
O628 Eu617 2.418 . S
O628 C631 1.265 1_554 S
O629 Eu617 2.407 . S
O629 C638 1.227 1_554 S
O630 Tb616 2.366 1_655 S
O630 C638 1.265 . S
C631 O627 1.259 . S
C631 O628 1.265 1_556 S
O632 Eu617 2.479 . S
O632 C647 1.238 . S
O633 Eu617 2.471 1_455 S
O633 C647 1.247 1_455 S
O634 Eu617 2.347 1_455 S
O634 C618 1.259 . S
O635 Tb616 2.418 . S
O635 C618 1.265 1_556 S
O636 Tb616 2.384 1_554 S
O636 C619 1.255 . S
O637 Eu617 2.366 1_455 S
O637 C619 1.265 . S
C638 O629 1.227 1_556 S
C638 O630 1.265 . S
O639 Tb616 2.479 . S
O639 C626 1.238 . S
O640 Tb616 2.471 1_655 S
O640 C626 1.247 1_655 S
C641 C644 1.380 . S
C641 C645 1.374 1_655 S
C641 C647 1.507 . S
C642 C643 1.387 1_455 S
C642 C646 1.391 . S
C643 C642 1.387 1_655 S
C643 C644 1.384 . S
C643 H652 0.930 . S
C644 C641 1.380 . S
C644 C643 1.384 . S
C644 H653 0.931 . S
C645 C641 1.374 1_455 S
C645 C646 1.390 . S
C645 H654 0.930 . S
C646 C642 1.391 . S
C646 C645 1.390 . S
C646 H655 0.930 . S
C647 Eu617 2.825 . S
C647 O632 1.238 . S
C647 O633 1.247 1_655 S
C647 C641 1.507 . S
H648 C621 0.930 . S
H649 C622 0.931 . S
H650 C623 0.930 . S
H651 C624 0.930 . S
H652 C643 0.930 . S
H653 C644 0.931 . S
H654 C645 0.930 . S
H655 C646 0.930 . S
Tb656 C666 2.825 . S
Tb656 O667 2.347 . S
Tb656 O670 2.366 . S
Tb656 O675 2.418 . S
Tb656 O676 2.384 . S
Tb656 O679 2.479 . S
Tb656 O680 2.471 . S
Eu657 O668 2.418 . S
Eu657 O669 2.384 1_556 S
Eu657 O672 2.479 . S
Eu657 O673 2.471 . S
Eu657 O674 2.347 . S
Eu657 O677 2.366 . S
Eu657 C687 2.825 . S
C658 O674 1.259 . S
C658 O675 1.265 1_556 S
C659 O676 1.255 1_556 S
C659 O677 1.265 . S
C660 C662 1.380 . S
C660 C663 1.374 . S
C660 C666 1.507 . S
C661 C662 1.384 . S
C661 C665 1.387 . S
C661 H688 0.930 . S
C662 C660 1.380 . S
C662 C661 1.384 . S
C662 H689 0.931 . S
C663 C660 1.374 . S
C663 C664 1.390 . S
C663 H690 0.930 . S
C664 C663 1.390 . S
C664 C665 1.391 . S
C664 H691 0.930 . S
C665 C661 1.387 . S
C665 C664 1.391 . S
C666 Tb656 2.825 . S
C666 C660 1.507 . S
C666 O679 1.238 . S
C666 O680 1.247 . S
O667 Tb656 2.347 . S
O667 C671 1.259 . S
O668 Eu657 2.418 . S
O668 C671 1.265 1_556 S
O669 Eu657 2.384 1_554 S
O669 C678 1.255 . S
O670 Tb656 2.366 . S
O670 C678 1.265 . S
C671 O667 1.259 . S
C671 O668 1.265 1_554 S
O672 Eu657 2.479 . S
O672 C687 1.238 . S
O673 Eu657 2.471 . S
O673 C687 1.247 . S
O674 Eu657 2.347 . S
O674 C658 1.259 . S
O675 Tb656 2.418 . S
O675 C658 1.265 1_554 S
O676 Tb656 2.384 . S
O676 C659 1.255 1_554 S
O677 Eu657 2.366 . S
O677 C659 1.265 . S
C678 O669 1.255 . S
C678 O670 1.265 . S
O679 Tb656 2.479 . S
O679 C666 1.238 . S
O680 Tb656 2.471 . S
O680 C666 1.247 . S
C681 C684 1.380 . S
C681 C685 1.374 . S
C681 C687 1.507 . S
C682 C683 1.387 . S
C682 C686 1.391 . S
C683 C682 1.387 . S
C683 C684 1.384 . S
C683 H692 0.930 . S
C684 C681 1.380 . S
C684 C683 1.384 . S
C684 H693 0.931 . S
C685 C681 1.374 . S
C685 C686 1.390 . S
C685 H694 0.930 . S
C686 C682 1.391 . S
C686 C685 1.390 . S
C686 H695 0.930 . S
C687 Eu657 2.825 . S
C687 O672 1.238 . S
C687 O673 1.247 . S
C687 C681 1.507 . S
H688 C661 0.930 . S
H689 C662 0.931 . S
H690 C663 0.930 . S
H691 C664 0.930 . S
H692 C683 0.930 . S
H693 C684 0.931 . S
H694 C685 0.930 . S
H695 C686 0.930 . S
Tb696 C706 2.825 . S
Tb696 O707 2.347 . S
Tb696 O710 2.366 . S
Tb696 O715 2.418 . S
Tb696 O716 2.384 . S
Tb696 O719 2.479 . S
Tb696 O720 2.471 . S
Eu697 O708 2.418 . S
Eu697 O709 2.384 . S
Eu697 O712 2.479 . S
Eu697 O713 2.471 . S
Eu697 O714 2.347 . S
Eu697 O717 2.366 . S
Eu697 C727 2.825 . S
C698 O714 1.259 . S
C698 O715 1.265 . S
C699 O716 1.255 . S
C699 O717 1.265 . S
C700 C702 1.380 . S
C700 C703 1.374 . S
C700 C706 1.507 . S
C701 C702 1.384 . S
C701 C705 1.387 . S
C701 H728 0.930 . S
C702 C700 1.380 . S
C702 C701 1.384 . S
C702 H729 0.931 . S
C703 C700 1.374 . S
C703 C704 1.390 . S
C703 H730 0.930 . S
C704 C703 1.390 . S
C704 C705 1.391 . S
C704 H731 0.930 . S
C705 C701 1.387 . S
C705 C704 1.391 . S
C706 Tb696 2.825 . S
C706 C700 1.507 . S
C706 O719 1.238 . S
C706 O720 1.247 . S
O707 Tb696 2.347 . S
O707 C711 1.259 . S
O708 Eu697 2.418 . S
O708 C711 1.265 . S
O709 Eu697 2.384 . S
O709 C718 1.255 . S
O710 Tb696 2.366 . S
O710 C718 1.265 . S
C711 O707 1.259 . S
C711 O708 1.265 . S
O712 Eu697 2.479 . S
O712 C727 1.238 . S
O713 Eu697 2.471 . S
O713 C727 1.247 . S
O714 Eu697 2.347 . S
O714 C698 1.259 . S
O715 Tb696 2.418 . S
O715 C698 1.265 . S
O716 Tb696 2.384 . S
O716 C699 1.255 . S
O717 Eu697 2.366 . S
O717 C699 1.265 . S
C718 O709 1.255 . S
C718 O710 1.265 . S
O719 Tb696 2.479 . S
O719 C706 1.238 . S
O720 Tb696 2.471 . S
O720 C706 1.247 . S
C721 C724 1.380 . S
C721 C725 1.374 . S
C721 C727 1.507 . S
C722 C723 1.387 . S
C722 C726 1.391 . S
C723 C722 1.387 . S
C723 C724 1.384 . S
C723 H732 0.930 . S
C724 C721 1.380 . S
C724 C723 1.384 . S
C724 H733 0.931 . S
C725 C721 1.374 . S
C725 C726 1.390 . S
C725 H734 0.930 . S
C726 C722 1.391 . S
C726 C725 1.390 . S
C726 H735 0.930 . S
C727 Eu697 2.825 . S
C727 O712 1.238 . S
C727 O713 1.247 . S
C727 C721 1.507 . S
H728 C701 0.930 . S
H729 C702 0.931 . S
H730 C703 0.930 . S
H731 C704 0.930 . S
H732 C723 0.930 . S
H733 C724 0.931 . S
H734 C725 0.930 . S
H735 C726 0.930 . S
Tb736 C746 2.825 . S
Tb736 O747 2.347 . S
Tb736 O750 2.366 . S
Tb736 O755 2.418 . S
Tb736 O756 2.384 . S
Tb736 O759 2.479 . S
Tb736 O760 2.471 . S
Eu737 O748 2.418 . S
Eu737 O749 2.384 . S
Eu737 O752 2.479 . S
Eu737 O753 2.471 . S
Eu737 O754 2.347 . S
Eu737 O757 2.366 . S
Eu737 C767 2.825 . S
C738 O754 1.259 . S
C738 O755 1.265 . S
C739 O756 1.255 . S
C739 O757 1.265 . S
C740 C742 1.380 . S
C740 C743 1.374 . S
C740 C746 1.507 . S
C741 C742 1.384 . S
C741 C745 1.387 . S
C741 H768 0.930 . S
C742 C740 1.380 . S
C742 C741 1.384 . S
C742 H769 0.931 . S
C743 C740 1.374 . S
C743 C744 1.390 . S
C743 H770 0.930 . S
C744 C743 1.390 . S
C744 C745 1.391 . S
C744 H771 0.930 . S
C745 C741 1.387 . S
C745 C744 1.391 . S
C746 Tb736 2.825 . S
C746 C740 1.507 . S
C746 O759 1.238 . S
C746 O760 1.247 . S
O747 Tb736 2.347 . S
O747 C751 1.259 . S
O748 Eu737 2.418 . S
O748 C751 1.265 . S
O749 Eu737 2.384 . S
O749 C758 1.255 . S
O750 Tb736 2.366 . S
O750 C758 1.265 . S
C751 O747 1.259 . S
C751 O748 1.265 . S
O752 Eu737 2.479 . S
O752 C767 1.238 . S
O753 Eu737 2.471 . S
O753 C767 1.247 . S
O754 Eu737 2.347 . S
O754 C738 1.259 . S
O755 Tb736 2.418 . S
O755 C738 1.265 . S
O756 Tb736 2.384 . S
O756 C739 1.255 . S
O757 Eu737 2.366 . S
O757 C739 1.265 . S
C758 O749 1.255 . S
C758 O750 1.265 . S
O759 Tb736 2.479 . S
O759 C746 1.238 . S
O760 Tb736 2.471 . S
O760 C746 1.247 . S
C761 C764 1.380 . S
C761 C765 1.374 . S
C761 C767 1.507 . S
C762 C763 1.387 . S
C762 C766 1.391 . S
C763 C762 1.387 . S
C763 C764 1.384 . S
C763 H772 0.930 . S
C764 C761 1.380 . S
C764 C763 1.384 . S
C764 H773 0.931 . S
C765 C761 1.374 . S
C765 C766 1.390 . S
C765 H774 0.930 . S
C766 C762 1.391 . S
C766 C765 1.390 . S
C766 H775 0.930 . S
C767 Eu737 2.825 . S
C767 O752 1.238 . S
C767 O753 1.247 . S
C767 C761 1.507 . S
H768 C741 0.930 . S
H769 C742 0.931 . S
H770 C743 0.930 . S
H771 C744 0.930 . S
H772 C763 0.930 . S
H773 C764 0.931 . S
H774 C765 0.930 . S
H775 C766 0.930 . S
Tb776 C786 2.825 . S
Tb776 O787 2.347 . S
Tb776 O790 2.366 . S
Tb776 O795 2.418 . S
Tb776 O796 2.384 . S
Tb776 O799 2.479 . S
Tb776 O800 2.471 . S
Eu777 O788 2.418 . S
Eu777 O789 2.384 . S
Eu777 O792 2.479 . S
Eu777 O793 2.471 . S
Eu777 O794 2.347 . S
Eu777 O797 2.366 . S
Eu777 C807 2.825 . S
C778 O794 1.259 . S
C778 O795 1.265 . S
C779 O796 1.255 . S
C779 O797 1.265 . S
C780 C782 1.380 . S
C780 C783 1.374 . S
C780 C786 1.507 . S
C781 C782 1.384 . S
C781 C785 1.387 . S
C781 H808 0.930 . S
C782 C780 1.380 . S
C782 C781 1.384 . S
C782 H809 0.931 . S
C783 C780 1.374 . S
C783 C784 1.390 . S
C783 H810 0.930 . S
C784 C783 1.390 . S
C784 C785 1.391 . S
C784 H811 0.930 . S
C785 C781 1.387 . S
C785 C784 1.391 . S
C786 Tb776 2.825 . S
C786 C780 1.507 . S
C786 O799 1.238 . S
C786 O800 1.247 . S
O787 Tb776 2.347 . S
O787 C791 1.259 . S
O788 Eu777 2.418 . S
O788 C791 1.265 . S
O789 Eu777 2.384 . S
O789 C798 1.255 . S
O790 Tb776 2.366 . S
O790 C798 1.265 . S
C791 O787 1.259 . S
C791 O788 1.265 . S
O792 Eu777 2.479 . S
O792 C807 1.238 . S
O793 Eu777 2.471 . S
O793 C807 1.247 . S
O794 Eu777 2.347 . S
O794 C778 1.259 . S
O795 Tb776 2.418 . S
O795 C778 1.265 . S
O796 Tb776 2.384 . S
O796 C779 1.255 . S
O797 Eu777 2.366 . S
O797 C779 1.265 . S
C798 O789 1.255 . S
C798 O790 1.265 . S
O799 Tb776 2.479 . S
O799 C786 1.238 . S
O800 Tb776 2.471 . S
O800 C786 1.247 . S
C801 C804 1.380 . S
C801 C805 1.374 . S
C801 C807 1.507 . S
C802 C803 1.387 . S
C802 C806 1.391 . S
C803 C802 1.387 . S
C803 C804 1.384 . S
C803 H812 0.930 . S
C804 C801 1.380 . S
C804 C803 1.384 . S
C804 H813 0.931 . S
C805 C801 1.374 . S
C805 C806 1.390 . S
C805 H814 0.930 . S
C806 C802 1.391 . S
C806 C805 1.390 . S
C806 H815 0.930 . S
C807 Eu777 2.825 . S
C807 O792 1.238 . S
C807 O793 1.247 . S
C807 C801 1.507 . S
H808 C781 0.930 . S
H809 C782 0.931 . S
H810 C783 0.930 . S
H811 C784 0.930 . S
H812 C803 0.930 . S
H813 C804 0.931 . S
H814 C805 0.930 . S
H815 C806 0.930 . S
Tb816 C826 2.825 . S
Tb816 O827 2.347 . S
Tb816 O830 2.366 . S
Tb816 O835 2.418 . S
Tb816 O836 2.384 . S
Tb816 O839 2.479 . S
Tb816 O840 2.471 . S
Eu817 O828 2.418 . S
Eu817 O829 2.384 . S
Eu817 O832 2.479 . S
Eu817 O833 2.471 . S
Eu817 O834 2.347 . S
Eu817 O837 2.366 . S
Eu817 C847 2.825 . S
C818 O834 1.259 . S
C818 O835 1.265 . S
C819 O836 1.255 . S
C819 O837 1.265 . S
C820 C822 1.380 . S
C820 C823 1.374 . S
C820 C826 1.507 . S
C821 C822 1.384 . S
C821 C825 1.387 . S
C821 H848 0.930 . S
C822 C820 1.380 . S
C822 C821 1.384 . S
C822 H849 0.931 . S
C823 C820 1.374 . S
C823 C824 1.390 . S
C823 H850 0.930 . S
C824 C823 1.390 . S
C824 C825 1.391 . S
C824 H851 0.930 . S
C825 C821 1.387 . S
C825 C824 1.391 . S
C826 Tb816 2.825 . S
C826 C820 1.507 . S
C826 O839 1.238 . S
C826 O840 1.247 . S
O827 Tb816 2.347 . S
O827 C831 1.259 . S
O828 Eu817 2.418 . S
O828 C831 1.265 . S
O829 Eu817 2.384 . S
O829 C838 1.255 . S
O830 Tb816 2.366 . S
O830 C838 1.265 . S
C831 O827 1.259 . S
C831 O828 1.265 . S
O832 Eu817 2.479 . S
O832 C847 1.238 . S
O833 Eu817 2.471 . S
O833 C847 1.247 . S
O834 Eu817 2.347 . S
O834 C818 1.259 . S
O835 Tb816 2.418 . S
O835 C818 1.265 . S
O836 Tb816 2.384 . S
O836 C819 1.255 . S
O837 Eu817 2.366 . S
O837 C819 1.265 . S
C838 O829 1.255 . S
C838 O830 1.265 . S
O839 Tb816 2.479 . S
O839 C826 1.238 . S
O840 Tb816 2.471 . S
O840 C826 1.247 . S
C841 C844 1.380 . S
C841 C845 1.374 . S
C841 C847 1.507 . S
C842 C843 1.387 . S
C842 C846 1.391 . S
C843 C842 1.387 . S
C843 C844 1.384 . S
C843 H852 0.930 . S
C844 C841 1.380 . S
C844 C843 1.384 . S
C844 H853 0.931 . S
C845 C841 1.374 . S
C845 C846 1.390 . S
C845 H854 0.930 . S
C846 C842 1.391 . S
C846 C845 1.390 . S
C846 H855 0.930 . S
C847 Eu817 2.825 . S
C847 O832 1.238 . S
C847 O833 1.247 . S
C847 C841 1.507 . S
H848 C821 0.930 . S
H849 C822 0.931 . S
H850 C823 0.930 . S
H851 C824 0.930 . S
H852 C843 0.930 . S
H853 C844 0.931 . S
H854 C845 0.930 . S
H855 C846 0.930 . S
Tb856 C866 2.825 . S
Tb856 O867 2.347 . S
Tb856 O870 2.366 . S
Tb856 O875 2.418 . S
Tb856 O876 2.384 . S
Tb856 O879 2.479 . S
Tb856 O880 2.471 . S
Eu857 O868 2.418 . S
Eu857 O869 2.384 . S
Eu857 O872 2.479 . S
Eu857 O873 2.471 . S
Eu857 O874 2.347 . S
Eu857 O877 2.366 . S
Eu857 C887 2.825 . S
C858 O874 1.259 . S
C858 O875 1.265 . S
C859 O876 1.255 . S
C859 O877 1.265 . S
C860 C862 1.380 . S
C860 C863 1.374 . S
C860 C866 1.507 . S
C861 C862 1.384 . S
C861 C865 1.387 . S
C861 H888 0.930 . S
C862 C860 1.380 . S
C862 C861 1.384 . S
C862 H889 0.931 . S
C863 C860 1.374 . S
C863 C864 1.390 . S
C863 H890 0.930 . S
C864 C863 1.390 . S
C864 C865 1.391 . S
C864 H891 0.930 . S
C865 C861 1.387 . S
C865 C864 1.391 . S
C866 Tb856 2.825 . S
C866 C860 1.507 . S
C866 O879 1.238 . S
C866 O880 1.247 . S
O867 Tb856 2.347 . S
O867 C871 1.259 . S
O868 Eu857 2.418 . S
O868 C871 1.265 . S
O869 Eu857 2.384 . S
O869 C878 1.255 . S
O870 Tb856 2.366 . S
O870 C878 1.265 . S
C871 O867 1.259 . S
C871 O868 1.265 . S
O872 Eu857 2.479 . S
O872 C887 1.238 . S
O873 Eu857 2.471 . S
O873 C887 1.247 . S
O874 Eu857 2.347 . S
O874 C858 1.259 . S
O875 Tb856 2.418 . S
O875 C858 1.265 . S
O876 Tb856 2.384 . S
O876 C859 1.255 . S
O877 Eu857 2.366 . S
O877 C859 1.265 . S
C878 O869 1.255 . S
C878 O870 1.265 . S
O879 Tb856 2.479 . S
O879 C866 1.238 . S
O880 Tb856 2.471 . S
O880 C866 1.247 . S
C881 C884 1.380 . S
C881 C885 1.374 . S
C881 C887 1.507 . S
C882 C883 1.387 . S
C882 C886 1.391 . S
C883 C882 1.387 . S
C883 C884 1.384 . S
C883 H892 0.930 . S
C884 C881 1.380 . S
C884 C883 1.384 . S
C884 H893 0.931 . S
C885 C881 1.374 . S
C885 C886 1.390 . S
C885 H894 0.930 . S
C886 C882 1.391 . S
C886 C885 1.390 . S
C886 H895 0.930 . S
C887 Eu857 2.825 . S
C887 O872 1.238 . S
C887 O873 1.247 . S
C887 C881 1.507 . S
H888 C861 0.930 . S
H889 C862 0.931 . S
H890 C863 0.930 . S
H891 C864 0.930 . S
H892 C883 0.930 . S
H893 C884 0.931 . S
H894 C885 0.930 . S
H895 C886 0.930 . S
Tb896 C906 2.825 . S
Tb896 O907 2.347 . S
Tb896 O910 2.366 . S
Tb896 O915 2.418 . S
Tb896 O916 2.384 . S
Tb896 O919 2.479 . S
Tb896 O920 2.471 . S
Eu897 O908 2.418 . S
Eu897 O909 2.384 . S
Eu897 O912 2.479 . S
Eu897 O913 2.471 . S
Eu897 O914 2.347 . S
Eu897 O917 2.366 . S
Eu897 C927 2.825 . S
C898 O914 1.259 . S
C898 O915 1.265 . S
C899 O916 1.255 . S
C899 O917 1.265 . S
C900 C902 1.380 . S
C900 C903 1.374 . S
C900 C906 1.507 . S
C901 C902 1.384 . S
C901 C905 1.387 . S
C901 H928 0.930 . S
C902 C900 1.380 . S
C902 C901 1.384 . S
C902 H929 0.931 . S
C903 C900 1.374 . S
C903 C904 1.390 . S
C903 H930 0.930 . S
C904 C903 1.390 . S
C904 C905 1.391 . S
C904 H931 0.930 . S
C905 C901 1.387 . S
C905 C904 1.391 . S
C906 Tb896 2.825 . S
C906 C900 1.507 . S
C906 O919 1.238 . S
C906 O920 1.247 . S
O907 Tb896 2.347 . S
O907 C911 1.259 . S
O908 Eu897 2.418 . S
O908 C911 1.265 . S
O909 Eu897 2.384 . S
O909 C918 1.255 . S
O910 Tb896 2.366 . S
O910 C918 1.265 . S
C911 O907 1.259 . S
C911 O908 1.265 . S
O912 Eu897 2.479 . S
O912 C927 1.238 . S
O913 Eu897 2.471 . S
O913 C927 1.247 . S
O914 Eu897 2.347 . S
O914 C898 1.259 . S
O915 Tb896 2.418 . S
O915 C898 1.265 . S
O916 Tb896 2.384 . S
O916 C899 1.255 . S
O917 Eu897 2.366 . S
O917 C899 1.265 . S
C918 O909 1.255 . S
C918 O910 1.265 . S
O919 Tb896 2.479 . S
O919 C906 1.238 . S
O920 Tb896 2.471 . S
O920 C906 1.247 . S
C921 C924 1.380 . S
C921 C925 1.374 . S
C921 C927 1.507 . S
C922 C923 1.387 . S
C922 C926 1.391 . S
C923 C922 1.387 . S
C923 C924 1.384 . S
C923 H932 0.930 . S
C924 C921 1.380 . S
C924 C923 1.384 . S
C924 H933 0.931 . S
C925 C921 1.374 . S
C925 C926 1.390 . S
C925 H934 0.930 . S
C926 C922 1.391 . S
C926 C925 1.390 . S
C926 H935 0.930 . S
C927 Eu897 2.825 . S
C927 O912 1.238 . S
C927 O913 1.247 . S
C927 C921 1.507 . S
H928 C901 0.930 . S
H929 C902 0.931 . S
H930 C903 0.930 . S
H931 C904 0.930 . S
H932 C923 0.930 . S
H933 C924 0.931 . S
H934 C925 0.930 . S
H935 C926 0.930 . S
C439 C579 1.862 . S
C465 C619 2.184 . S
C401 C671 2.392 . S
C369 C631 2.067 . S
C659 C305 1.900 . S
C343 C591 1.677 . S
C598 C375 2.348 . S
C638 C311 2.153 . S
C337 C658 1.992 . S
C433 C618 1.684 . S
C471 C678 1.875 . S
C578 C407 2.219 . S
C699 C55 1.861 . S
C81 C739 2.184 . S
C17 C791 2.391 1_545 S
C561 C751 2.067 . S
C497 C779 1.900 . S
C535 C711 1.676 . S
C567 C718 2.348 . S
C503 C758 2.153 . S
C778 C529 1.991 . S
C49 C738 1.698 . S
C798 C87 1.875 . S
C23 C698 2.218 . S
C819 C247 1.862 . S
C273 C859 2.185 . S
C911 C209 2.391 . S
C871 C177 2.067 1_545 S
C899 C113 1.900 . S
C151 C831 1.675 . S
C183 C838 2.327 1_455 S
C119 C878 2.153 . S
C898 C145 1.991 1_545 S
C241 C858 1.685 . S
C279 C918 1.875 . S
C215 C818 2.219 . S
C509 C602 1.558 . S
C642 C541 1.846 . S
C573 C665 1.614 . S
C221 C625 2.148 1_455 S
C253 C682 1.456 . S
C585 C285 1.530 . S
C125 C722 1.558 . S
C157 C762 1.846 . S
C189 C785 1.614 . S
C413 C745 2.149 . S
C802 C445 1.456 . S
C477 C705 1.530 . S
C317 C842 1.558 . S
C349 C882 1.846 . S
C905 C381 1.614 . S
C29 C865 2.148 . S
C61 C922 1.456 . S
C93 C825 1.530 . S
