# Generated by pormake.
# Topology zzz, (3,6)-cn, num edge types: 1
# Building blocks:
#     Node 0, Type 0, BuildingBlock: BETDIP_clean_linker_0, # of connection points: 3
#     Node 1, Type 0, BuildingBlock: BETDIP_clean_linker_0, # of connection points: 3
#     Node 2, Type 0, BuildingBlock: BETDIP_clean_linker_0, # of connection points: 3
#     Node 3, Type 0, BuildingBlock: BETDIP_clean_linker_0, # of connection points: 3
#     Node 4, Type 0, BuildingBlock: BETDIP_clean_linker_0, # of connection points: 3
#     Node 5, Type 0, BuildingBlock: BETDIP_clean_linker_0, # of connection points: 3
#     Node 6, Type 0, BuildingBlock: BETDIP_clean_linker_0, # of connection points: 3
#     Node 7, Type 0, BuildingBlock: BETDIP_clean_linker_0, # of connection points: 3
#     Node 8, Type 1, BuildingBlock: KUMBUR_clean_sbu_1, # of connection points: 6
#     Node 9, Type 1, BuildingBlock: KUMBUR_clean_sbu_1, # of connection points: 6
#     Node 10, Type 1, BuildingBlock: KUMBUR_clean_sbu_1, # of connection points: 6
#     Node 11, Type 1, BuildingBlock: KUMBUR_clean_sbu_1, # of connection points: 6
#     Edge 12, Type (0, 1), BuildingBlock: UVAHIK_clean_linker_0, # of connection points: 2
#     Edge 13, Type (0, 1), BuildingBlock: UVAHIK_clean_linker_0, # of connection points: 2
#     Edge 14, Type (0, 1), BuildingBlock: UVAHIK_clean_linker_0, # of connection points: 2
#     Edge 15, Type (0, 1), BuildingBlock: UVAHIK_clean_linker_0, # of connection points: 2
#     Edge 16, Type (0, 1), BuildingBlock: UVAHIK_clean_linker_0, # of connection points: 2
#     Edge 17, Type (0, 1), BuildingBlock: UVAHIK_clean_linker_0, # of connection points: 2
#     Edge 18, Type (0, 1), BuildingBlock: UVAHIK_clean_linker_0, # of connection points: 2
#     Edge 19, Type (0, 1), BuildingBlock: UVAHIK_clean_linker_0, # of connection points: 2
#     Edge 20, Type (0, 1), BuildingBlock: UVAHIK_clean_linker_0, # of connection points: 2
#     Edge 21, Type (0, 1), BuildingBlock: UVAHIK_clean_linker_0, # of connection points: 2
#     Edge 22, Type (0, 1), BuildingBlock: UVAHIK_clean_linker_0, # of connection points: 2
#     Edge 23, Type (0, 1), BuildingBlock: UVAHIK_clean_linker_0, # of connection points: 2
#     Edge 24, Type (0, 1), BuildingBlock: UVAHIK_clean_linker_0, # of connection points: 2
#     Edge 25, Type (0, 1), BuildingBlock: UVAHIK_clean_linker_0, # of connection points: 2
#     Edge 26, Type (0, 1), BuildingBlock: UVAHIK_clean_linker_0, # of connection points: 2
#     Edge 27, Type (0, 1), BuildingBlock: UVAHIK_clean_linker_0, # of connection points: 2
#     Edge 28, Type (0, 1), BuildingBlock: UVAHIK_clean_linker_0, # of connection points: 2
#     Edge 29, Type (0, 1), BuildingBlock: UVAHIK_clean_linker_0, # of connection points: 2
#     Edge 30, Type (0, 1), BuildingBlock: UVAHIK_clean_linker_0, # of connection points: 2
#     Edge 31, Type (0, 1), BuildingBlock: UVAHIK_clean_linker_0, # of connection points: 2
#     Edge 32, Type (0, 1), BuildingBlock: UVAHIK_clean_linker_0, # of connection points: 2
#     Edge 33, Type (0, 1), BuildingBlock: UVAHIK_clean_linker_0, # of connection points: 2
#     Edge 34, Type (0, 1), BuildingBlock: UVAHIK_clean_linker_0, # of connection points: 2
#     Edge 35, Type (0, 1), BuildingBlock: UVAHIK_clean_linker_0, # of connection points: 2
# Relax obj value: 0.148
# Max RMSD: 0.090
# Mean RMSD: 0.076
data_MOF--net-zzz--node1-KUMBUR_clean_sbu_1--node2-BETDIP_clean_linker_0--edge1-UVAHIK_clean_linker_0
_symmetry_space_group_name_H-M    P1
_symmetry_Int_Tables_number       1
_symmetry_cell_setting            triclinic
loop_
_symmetry_equiv_pos_as_xyz
'x, y, z'
_cell_length_a     64.709311
_cell_length_b     64.765933
_cell_length_c     20.216009
_cell_angle_alpha  89.936816
_cell_angle_beta   90.124972
_cell_angle_gamma 90.307098
loop_
_atom_site_label
_atom_site_type_symbol
_atom_site_fract_x
_atom_site_fract_y
_atom_site_fract_z
_atom_type_partial_charge
H0 H 0.75755 0.53763 0.29882 0.0
H1 H 0.75281 0.5719 0.11618 0.0
H2 H 0.80952 0.57254 0.22598 0.0
H3 H 0.71895 0.57941 0.18632 0.0
C4 C 0.71599 0.56309 0.17749 0.0
C5 C 0.76427 0.54796 0.26251 0.0
C6 C 0.78493 0.55495 0.27016 0.0
C7 C 0.7522 0.55491 0.20824 0.0
C8 C 0.76144 0.56762 0.16006 0.0
C9 C 0.78204 0.57398 0.16633 0.0
C10 C 0.79336 0.56809 0.22217 0.0
N11 N 0.73112 0.54867 0.19998 0.0
H12 H 1.00698 0.76678 0.28428 0.0
H13 H 0.97827 0.75923 0.09307 0.0
H14 H 0.9804 0.81902 0.18361 0.0
H15 H 0.96702 0.72682 0.16821 0.0
C16 C 0.98343 0.72372 0.1627 0.0
C17 C 0.99851 0.77316 0.24285 0.0
C18 C 0.9938 0.79453 0.24137 0.0
C19 C 0.9924 0.76015 0.18972 0.0
C20 C 0.98211 0.76883 0.13529 0.0
C21 C 0.97785 0.78996 0.13276 0.0
C22 C 0.98331 0.80256 0.18632 0.0
N23 N 0.99768 0.73873 0.18795 0.0
H24 H 0.77524 1.00862 0.28114 0.0
H25 H 0.77969 0.97948 0.08992 0.0
H26 H 0.72181 0.97983 0.1931 0.0
H27 H 0.81225 0.96818 0.16346 0.0
C28 C 0.81614 0.98444 0.15772 0.0
C29 C 0.76814 1.00013 0.24087 0.0
C30 C 0.74708 0.99421 0.24472 0.0
C31 C 0.78018 0.99422 0.1856 0.0
C32 C 0.77071 0.98343 0.13325 0.0
C33 C 0.7497 0.97822 0.13549 0.0
C34 C 0.73819 0.98342 0.19166 0.0
N35 N 0.80166 0.99927 0.18133 0.0
H36 H 0.53934 0.77646 0.28758 0.0
H37 H 0.56143 0.78231 0.08724 0.0
H38 H 0.56237 0.72332 0.18358 0.0
H39 H 0.57697 0.81384 0.16315 0.0
C40 C 0.56073 0.81799 0.16 0.0
C41 C 0.54595 0.76958 0.24371 0.0
C42 C 0.55111 0.7483 0.24343 0.0
C43 C 0.55026 0.78208 0.18759 0.0
C44 C 0.55868 0.77294 0.13084 0.0
C45 C 0.56301 0.75182 0.129 0.0
C46 C 0.55944 0.73978 0.1855 0.0
N47 N 0.54597 0.80373 0.18664 0.0
H48 H 0.27148 0.50605 0.97952 0.0
H49 H 0.27819 0.49426 0.18808 0.0
H50 H 0.21903 0.48619 0.09486 0.0
H51 H 0.29579 0.53242 0.14913 0.0
C52 C 0.30644 0.52084 0.13066 0.0
C53 C 0.2649 0.50111 0.02617 0.0
C54 C 0.24368 0.49567 0.02989 0.0
C55 C 0.27741 0.50061 0.08371 0.0
C56 C 0.2686 0.49464 0.14406 0.0
C57 C 0.24764 0.48938 0.14855 0.0
C58 C 0.23541 0.48963 0.09121 0.0
N59 N 0.29869 0.5066 0.08262 0.0
H60 H 0.03353 0.27888 0.96261 0.0
H61 H 0.0508 0.28995 0.16535 0.0
H62 H 0.06009 0.23008 0.0802 0.0
H63 H 1.00891 0.30408 0.12794 0.0
C64 C 0.02036 0.31501 0.10953 0.0
C65 C 0.0403 0.27348 0.00846 0.0
C66 C 0.04715 0.25275 0.014 0.0
C67 C 0.04176 0.28701 0.06341 0.0
C68 C 0.04994 0.27969 0.12307 0.0
C69 C 0.05667 0.25932 0.1293 0.0
C70 C 0.05558 0.24609 0.07449 0.0
N71 N 0.03452 0.30777 0.06077 0.0
H72 H 0.26197 0.03006 0.98223 0.0
H73 H 0.25874 0.06768 0.15752 0.0
H74 H 0.31507 0.06488 0.04562 0.0
H75 H 0.24644 0.02666 0.17839 0.0
C76 C 0.23342 0.03232 0.14958 0.0
C77 C 0.26897 0.0412 0.01542 0.0
C78 C 0.28977 0.04735 1.00626 0.0
C79 C 0.25778 0.04844 0.07079 0.0
C80 C 0.26733 0.06226 0.11504 0.0
C81 C 0.28794 0.0685 0.10629 0.0
C82 C 0.29883 0.06108 0.05137 0.0
N83 N 0.2376 0.04075 0.08568 0.0
H84 H 0.50987 0.26905 0.99791 0.0
H85 H 0.48329 0.25723 0.18942 0.0
H86 H 0.47376 0.31578 0.09533 0.0
H87 H 0.52362 0.24822 0.18972 0.0
C88 C 0.51764 0.23558 0.15971 0.0
C89 C 0.50032 0.27394 0.03887 0.0
C90 C 0.49124 0.29387 0.0383 0.0
C91 C 0.49748 0.26063 0.09396 0.0
C92 C 0.48545 0.26735 0.1472 0.0
C93 C 0.47714 0.28721 0.14862 0.0
C94 C 0.47964 0.30014 0.09347 0.0
N95 N 0.50756 0.24107 0.09915 0.0
Tb96 Tb 1.00049 0.03095 0.57223 0.0
C97 C 0.05698 0.04234 0.81143 0.0
N98 N 0.06174 0.03476 0.75099 0.0
C99 C 0.09243 0.05569 0.74825 0.0
C100 C 0.06912 0.05784 0.84138 0.0
C101 C 0.07974 0.0404 0.72044 0.0
C102 C 0.08687 0.06475 0.80841 0.0
C103 C 0.03577 0.03985 0.90931 0.0
C104 C 0.04065 0.03345 0.84463 0.0
C105 C 0.04684 0.05633 0.93797 0.0
C106 C 0.06355 0.06528 0.90408 0.0
Tb107 Tb 0.03997 1.01032 0.70826 0.0
N108 N 0.03091 0.01718 0.81583 0.0
C109 C 0.02068 0.02882 0.94428 0.0
C110 C 0.0178 1.00512 0.85237 0.0
C111 C 1.01199 1.01109 0.91617 0.0
H112 H 0.08392 0.03348 0.67379 0.0
H113 H 1.00108 1.00182 0.94398 0.0
H114 H 0.95432 0.02839 0.64806 0.0
H115 H 0.02286 0.99965 0.33641 0.0
H116 H 1.01182 0.9908 0.8326 0.0
H117 H 0.01642 0.03324 0.99407 0.0
H118 H 0.02446 0.02406 0.43062 0.0
H119 H 0.10639 0.06054 0.72317 0.0
H120 H 0.04315 0.06167 0.98731 0.0
H121 H 0.07246 0.07743 0.92768 0.0
H122 H 0.92498 1.0041 0.65232 0.0
H123 H 0.09668 0.07661 0.82979 0.0
H124 H 0.99606 0.97219 0.33416 0.0
N125 N 0.97073 1.01135 0.57506 0.0
C126 C 0.96908 0.99645 0.52815 0.0
C127 C 0.93749 1.00149 0.61792 0.0
C128 C 0.95219 0.98262 0.5267 0.0
C129 C 0.95446 0.01497 0.61648 0.0
C130 C 0.93658 0.98493 0.57383 0.0
N131 N 0.99914 1.01023 0.48095 0.0
C132 C 1.01267 1.0122 0.42951 0.0
C133 C 0.98212 0.9818 0.42636 0.0
C134 C 0.98362 0.99611 0.47851 0.0
C135 C 0.99665 0.98291 0.37522 0.0
C136 C 1.0118 0.9984 0.37631 0.0
H137 H 0.92332 0.97464 0.57451 0.0
H138 H 0.93835 0.95661 0.47527 0.0
H139 H 0.96471 0.9558 0.38746 0.0
O140 O 1.00655 0.05683 0.51287 0.0
O141 O 0.01732 1.00165 0.55982 0.0
O142 O 0.01812 0.98822 0.6636 0.0
O143 O 0.97533 0.04756 0.5331 0.0
O144 O 0.03316 0.03844 0.55047 0.0
O145 O 0.05265 0.01429 0.60844 0.0
O146 O 0.05425 0.98936 0.77362 0.0
O147 O 0.03954 0.04383 0.68424 0.0
O148 O 1.00559 0.04984 0.66077 0.0
O149 O 0.06439 0.99225 0.67316 0.0
O150 O 1.00684 1.00257 0.72037 0.0
O151 O 0.99026 0.03067 0.67642 0.0
C152 C 0.01635 0.98566 0.59947 0.0
C153 C 0.98346 0.08328 0.53809 0.0
C154 C 0.9954 0.11896 0.54732 0.0
C155 C 0.98097 0.12238 0.59782 0.0
C156 C 0.96891 0.08697 0.58827 0.0
C157 C 0.96767 0.10647 0.61765 0.0
C158 C 0.99643 0.09941 0.51763 0.0
C159 C 0.05041 0.02799 0.56054 0.0
C160 C 0.98728 0.06235 0.51219 0.0
C161 C 0.95106 0.96757 0.47673 0.0
C162 C 0.96602 0.96715 0.42659 0.0
C163 C 0.02358 0.05633 0.68264 0.0
C164 C 0.06435 0.95905 0.71688 0.0
C165 C 0.04491 0.92669 0.71989 0.0
C166 C 0.0611 0.91694 0.68608 0.0
C167 C 0.08045 0.94902 0.68378 0.0
C168 C 0.04655 0.94785 0.73445 0.0
C169 C 0.07877 0.92807 0.66828 0.0
C170 C 0.99123 0.01553 0.71986 0.0
C171 C 0.06558 0.98148 0.72708 0.0
H172 H 0.97983 0.13735 0.6213 0.0
H173 H 0.95889 0.07473 0.60605 0.0
H174 H 0.95657 0.10916 0.65664 0.0
H175 H 1.00795 0.09648 0.47992 0.0
H176 H 0.06032 0.9006 0.67482 0.0
H177 H 0.09417 0.95749 0.66896 0.0
H178 H 0.03385 0.95562 0.75874 0.0
H179 H 0.09123 0.92043 0.64255 0.0
Tb180 Tb 0.52925 0.03866 0.71324 0.0
C181 C 0.52983 0.9565 0.58638 0.0
N182 N 0.5348 0.97486 0.55774 0.0
C183 C 0.56634 0.96014 0.51708 0.0
C184 C 0.54344 0.93958 0.58466 0.0
C185 C 0.55214 0.97634 0.51942 0.0
C186 C 0.56218 0.94181 0.55104 0.0
C187 C 0.50406 0.93535 0.64141 0.0
C188 C 0.51047 0.95432 0.61401 0.0
C189 C 0.51788 0.9187 0.64268 0.0
C190 C 0.53756 0.92082 0.61442 0.0
Tb191 Tb 0.51093 1.0008 0.56987 0.0
N192 N 0.49783 0.97095 0.61362 0.0
C193 C 0.4839 0.9337 0.66599 0.0
C194 C 0.47782 0.96921 0.63453 0.0
C195 C 0.47063 0.95063 0.66169 0.0
H196 H 0.55498 0.98977 0.48919 0.0
H197 H 0.45492 0.94941 0.67957 0.0
H198 H 0.48699 0.06475 0.74488 0.0
H199 H 0.60842 0.06481 0.68557 0.0
H200 H 0.46759 0.98231 0.63155 0.0
H201 H 0.47835 0.91938 0.68744 0.0
H202 H 0.58098 0.03993 0.71475 0.0
H203 H 0.5803 0.96167 0.48804 0.0
H204 H 0.51337 0.90404 0.66425 0.0
H205 H 0.54789 0.90771 0.61426 0.0
H206 H 0.4755 0.10117 0.74086 0.0
H207 H 0.57308 0.9292 0.54852 0.0
H208 H 0.5994 0.10088 0.65768 0.0
N209 N 0.51712 0.07159 0.70905 0.0
C210 C 0.53102 0.08651 0.69309 0.0
C211 C 0.4911 0.09723 0.72667 0.0
C212 C 0.52524 0.10743 0.69001 0.0
C213 C 0.49759 0.07665 0.72865 0.0
C214 C 0.5049 0.11267 0.70632 0.0
N215 N 0.55641 0.06074 0.69412 0.0
C216 C 0.57673 0.05522 0.6986 0.0
C217 C 0.56653 0.09587 0.67019 0.0
C218 C 0.55132 0.0808 0.68375 0.0
C219 C 0.58723 0.0898 0.66805 0.0
C220 C 0.59238 0.06945 0.68367 0.0
H221 H 0.49984 0.12858 0.70481 0.0
H222 H 0.53589 0.13854 0.66903 0.0
H223 H 0.5721 0.1284 0.65137 0.0
O224 O 0.54318 0.04976 0.80031 0.0
O225 O 0.51238 0.0524 0.6281 0.0
O226 O 0.52053 0.0319 0.53915 0.0
O227 O 0.51609 0.03054 0.80475 0.0
O228 O 0.55358 0.02135 0.66039 0.0
O229 O 0.54088 0.01671 0.55481 0.0
O230 O 0.48276 1.00085 0.51919 0.0
O231 O 0.51138 0.99176 0.67539 0.0
O232 O 0.54066 1.00689 0.71325 0.0
O233 O 0.51009 0.98988 0.47135 0.0
O234 O 0.4863 0.0198 0.61307 0.0
O235 O 0.49746 0.0266 0.71988 0.0
C236 C 0.51518 0.04985 0.56397 0.0
C237 C 0.54099 0.02579 0.88713 0.0
C238 C 0.56853 1.00174 0.91608 0.0
C239 C 0.56051 1.00071 0.98083 0.0
C240 C 0.53319 0.02445 0.95146 0.0
C241 C 0.54288 1.01184 0.99801 0.0
C242 C 0.55831 1.01415 0.8693 0.0
C243 C 0.55646 0.01953 0.59609 0.0
C244 C 0.53092 0.03916 0.83837 0.0
C245 C 0.54007 0.1224 0.67272 0.0
C246 C 0.56068 0.11662 0.66254 0.0
C247 C 0.52786 0.99117 0.71316 0.0
C248 C 0.48641 1.00909 0.40625 0.0
C249 C 0.46584 0.03696 0.35765 0.0
C250 C 0.47444 0.0323 0.29544 0.0
C251 C 0.49466 1.00472 0.34381 0.0
C252 C 0.47276 0.02579 0.4131 0.0
C253 C 0.48897 0.01654 0.28901 0.0
C254 C 0.48262 0.02379 0.67589 0.0
C255 C 0.49104 0.99559 0.46335 0.0
H256 H 0.5681 0.9918 0.01902 0.0
H257 H 0.51968 0.0332 0.96569 0.0
H258 H 0.53692 1.01096 0.04793 0.0
H259 H 0.56383 0.01495 0.81887 0.0
H260 H 0.4694 0.04015 0.25103 0.0
H261 H 0.50528 0.99201 0.33727 0.0
H262 H 0.46699 0.02967 0.46168 0.0
H263 H 0.49528 1.01299 0.24083 0.0
Tb264 Tb 0.5353 0.51301 0.57819 0.0
C265 C 0.47669 0.49898 0.80381 0.0
N266 N 0.47283 0.50772 0.74407 0.0
C267 C 0.44217 0.48707 0.73237 0.0
C268 C 0.46406 0.48302 0.8287 0.0
C269 C 0.45531 0.50276 0.70955 0.0
C270 C 0.44675 0.47691 0.7917 0.0
C271 C 0.49718 0.49855 0.90395 0.0
C272 C 0.49299 0.50667 0.84064 0.0
C273 C 0.48546 0.48177 0.92759 0.0
C274 C 0.46887 0.47405 0.89009 0.0
Tb275 Tb 0.49499 0.53319 0.71094 0.0
N276 N 0.50359 0.52321 0.81658 0.0
C277 C 0.51237 0.50814 0.94272 0.0
C278 C 0.51677 0.53389 0.8572 0.0
C279 C 0.52187 0.52617 0.91978 0.0
H280 H 0.45179 0.51063 0.66376 0.0
H281 H 0.53281 0.53438 0.95079 0.0
H282 H 0.58122 0.51468 0.65579 0.0
H283 H 0.51503 0.5413 0.33633 0.0
H284 H 0.5232 0.54856 0.84216 0.0
H285 H 0.51609 0.50238 0.99162 0.0
H286 H 0.51177 0.519 0.43542 0.0
H287 H 0.42858 0.48279 0.70418 0.0
H288 H 0.48861 0.47514 0.97578 0.0
H289 H 0.45955 0.46153 0.90974 0.0
H290 H 0.61181 0.5374 0.65682 0.0
H291 H 0.4366 0.46472 0.80914 0.0
H292 H 0.54335 0.56712 0.32969 0.0
N293 N 0.56593 0.53121 0.5789 0.0
C294 C 0.5684 0.54526 0.52966 0.0
C295 C 0.59953 0.54006 0.62146 0.0
C296 C 0.58606 0.55805 0.5262 0.0
C297 C 0.58186 0.52751 0.6218 0.0
C298 C 0.60145 0.55572 0.57429 0.0
N299 N 0.53768 0.5324 0.48418 0.0
C300 C 0.52416 0.53019 0.43263 0.0
C301 C 0.5564 0.55871 0.42466 0.0
C302 C 0.55393 0.54559 0.47968 0.0
C303 C 0.54201 0.55734 0.37298 0.0
C304 C 0.526 0.54277 0.37655 0.0
H305 H 0.61527 0.56524 0.57352 0.0
H306 H 0.60147 0.58221 0.47026 0.0
H307 H 0.57538 0.58282 0.38123 0.0
O308 O 0.52804 0.48704 0.52098 0.0
O309 O 0.52003 0.54307 0.56326 0.0
O310 O 0.51629 0.5562 0.6675 0.0
O311 O 0.55968 0.49467 0.54243 0.0
O312 O 0.50241 0.50643 0.55493 0.0
O313 O 0.4836 0.53171 0.60897 0.0
O314 O 0.48061 0.55172 0.78257 0.0
O315 O 0.49633 0.49994 0.68374 0.0
O316 O 0.53064 0.49491 0.66846 0.0
O317 O 0.47008 0.55187 0.6821 0.0
O318 O 0.5277 0.54212 0.72699 0.0
O319 O 0.54521 0.5146 0.68278 0.0
C320 C 0.51953 0.5589 0.60379 0.0
C321 C 0.54933 0.45948 0.54947 0.0
C322 C 0.5349 0.42475 0.56001 0.0
C323 C 0.54853 0.42076 0.61253 0.0
C324 C 0.56307 0.45522 0.60167 0.0
C325 C 0.56271 0.43589 0.63264 0.0
C326 C 0.53555 0.44407 0.52862 0.0
C327 C 0.48563 0.51783 0.56181 0.0
C328 C 0.54696 0.48044 0.5219 0.0
C329 C 0.58814 0.57205 0.47339 0.0
C330 C 0.57333 0.57236 0.4226 0.0
C331 C 0.51263 0.48801 0.6882 0.0
C332 C 0.468 0.58295 0.73988 0.0
C333 C 0.48625 0.61606 0.7426 0.0
C334 C 0.46695 0.62611 0.74243 0.0
C335 C 0.44904 0.59323 0.73916 0.0
C336 C 0.48649 0.59434 0.74025 0.0
C337 C 0.44856 0.61474 0.74009 0.0
C338 C 0.54404 0.53006 0.72491 0.0
C339 C 0.46837 0.56035 0.73986 0.0
H340 H 0.54837 0.40594 0.63742 0.0
H341 H 0.57366 0.46693 0.6198 0.0
H342 H 0.57318 0.43276 0.67321 0.0
H343 H 0.52463 0.44749 0.48933 0.0
H344 H 0.4659 0.64273 0.74617 0.0
H345 H 0.43465 0.5846 0.73828 0.0
H346 H 0.50097 0.58611 0.73953 0.0
H347 H 0.43386 0.62265 0.74022 0.0
Tb348 Tb 0.02777 0.54375 0.5583 0.0
C349 C 0.03921 0.47978 0.77632 0.0
N350 N 0.02843 0.4772 0.71901 0.0
C351 C 0.04468 0.4445 0.70138 0.0
C352 C 0.05355 0.46489 0.79767 0.0
C353 C 0.03067 0.45973 0.68196 0.0
C354 C 0.05628 0.44715 0.75919 0.0
C355 C 0.046 0.50015 0.87462 0.0
C356 C 0.03575 0.49748 0.81353 0.0
C357 C 0.0609 0.48575 0.89487 0.0
C358 C 0.06469 0.46818 0.85644 0.0
Tb359 Tb 1.00733 0.5038 0.69066 0.0
N360 N 0.02126 0.51121 0.79239 0.0
C361 C 0.0402 0.51662 0.9151 0.0
C362 C 0.01363 0.52537 0.83601 0.0
C363 C 0.0235 0.52889 0.89659 0.0
H364 H 0.02164 0.45749 0.63759 0.0
H365 H 0.01784 0.54068 0.92973 0.0
H366 H 0.01371 0.58841 0.62457 0.0
H367 H 1.00926 0.50879 0.32116 0.0
H368 H 0.9996 0.53362 0.82559 0.0
H369 H 0.04764 0.51918 0.96247 0.0
H370 H 0.02973 0.51371 0.42181 0.0
H371 H 0.04655 0.43073 0.67172 0.0
H372 H 0.06914 0.48773 0.94117 0.0
H373 H 0.07598 0.45704 0.87326 0.0
H374 H 0.98845 0.61582 0.60101 0.0
H375 H 0.06719 0.43535 0.77389 0.0
H376 H 0.98079 0.53276 0.29475 0.0
N377 N 1.00579 0.57064 0.53968 0.0
C378 C 0.99439 0.56963 0.4832 0.0
C379 C 0.98987 0.60284 0.56771 0.0
C380 C 0.97981 0.58499 0.46764 0.0
C381 C 1.00402 0.58714 0.58132 0.0
C382 C 0.97761 0.6017 0.51086 0.0
N383 N 1.01124 0.53824 0.45901 0.0
C384 C 0.01649 0.52336 0.41425 0.0
C385 C 0.98537 0.55107 0.38317 0.0
C386 C 0.99698 0.55272 0.4421 0.0
C387 C 0.98934 0.53459 0.34054 0.0
C388 C 1.00528 0.52093 0.35552 0.0
H389 H 0.96657 0.61382 0.50066 0.0
H390 H 0.95641 0.59463 0.39743 0.0
H391 H 0.9614 0.56502 0.32312 0.0
O392 O 0.05398 0.54313 0.49693 0.0
O393 O 0.9945 0.54188 0.58278 0.0
O394 O 0.98901 0.50763 0.60039 0.0
O395 O 0.0427 0.57175 0.53505 0.0
O396 O 0.03405 0.51051 0.53665 0.0
O397 O 1.00905 0.49085 0.59086 0.0
O398 O 0.97612 0.50486 0.71497 0.0
O399 O 0.04061 0.50359 0.66582 0.0
O400 O 0.048 0.53732 0.64298 0.0
O401 O 0.99369 0.47797 0.73875 0.0
O402 O 1.00234 0.53716 0.70996 0.0
O403 O 0.02941 0.55462 0.66088 0.0
C404 C 0.98263 0.52547 0.57793 0.0
C405 C 0.07869 0.56664 0.54021 0.0
C406 C 0.11282 0.55432 0.57422 0.0
C407 C 0.11547 0.57221 0.61267 0.0
C408 C 0.08185 0.58456 0.57826 0.0
C409 C 0.10012 0.58726 0.61424 0.0
C410 C 0.09443 0.55179 0.53771 0.0
C411 C 0.02291 0.49336 0.54349 0.0
C412 C 0.05836 0.56243 0.5089 0.0
C413 C 0.9678 0.58306 0.41003 0.0
C414 C 0.97057 0.56615 0.36789 0.0
C415 C 0.05361 0.5192 0.66528 0.0
C416 C 0.96727 0.48797 0.81391 0.0
C417 C 0.94521 0.50562 0.89393 0.0
C418 C 0.94525 0.48767 0.93336 0.0
C419 C 0.96707 0.47026 0.85377 0.0
C420 C 0.95701 0.50578 0.83578 0.0
C421 C 0.95639 0.47027 0.91378 0.0
C422 C 0.01491 0.55325 0.70629 0.0
C423 C 0.97633 0.4875 0.74697 0.0
H424 H 0.12937 0.57453 0.64173 0.0
H425 H 0.07004 0.59629 0.58144 0.0
H426 H 0.10228 0.60098 0.64402 0.0
H427 H 0.09234 0.5382 0.50718 0.0
H428 H 0.93616 0.48673 0.97814 0.0
H429 H 0.97483 0.45633 0.83798 0.0
H430 H 0.95771 0.51971 0.80626 0.0
H431 H 0.95615 0.4565 0.94414 0.0
C432 C 0.21074 0.02219 0.24325 0.0
C433 C 0.21275 0.03232 0.18215 0.0
C434 C 0.19236 0.02311 0.27924 0.0
C435 C 0.13623 0.03514 0.2703 0.0
H436 H 0.14288 0.03961 0.46044 0.0
C437 C 0.06686 0.04314 0.45685 0.0
C438 C 0.06819 0.03067 0.51391 0.0
C439 C 0.08369 0.04489 0.41302 0.0
C440 C 0.14067 0.03823 0.4075 0.0
H441 H 0.19667 0.05106 0.10995 0.0
H442 H 0.16428 0.05284 0.17339 0.0
H443 H 0.17319 0.03967 0.38981 0.0
H444 H 0.08862 1.01032 0.56877 0.0
H445 H 0.11754 1.01354 0.4937 0.0
H446 H 0.10351 0.0337 0.28888 0.0
C447 C 0.17703 0.04401 0.19321 0.0
C448 C 0.15813 0.03821 0.36677 0.0
C449 C 0.19559 0.04302 0.15681 0.0
C450 C 0.08684 0.02017 0.52586 0.0
C451 C 0.1036 0.02208 0.48269 0.0
C452 C 0.11865 0.03524 0.31132 0.0
C453 C 0.17532 0.03436 0.25567 0.0
C454 C 0.15627 0.03618 0.29765 0.0
C455 C 0.10236 0.03446 0.42568 0.0
C456 C 0.12068 0.03633 0.38066 0.0
H457 H 0.22362 1.01371 0.26398 0.0
H458 H 0.19158 0.015 0.32605 0.0
H459 H 0.13413 0.03352 0.21741 0.0
H460 H 0.05281 0.05148 0.44581 0.0
H461 H 0.08221 0.05465 0.36977 0.0
C462 C 0.51479 0.21536 0.26389 0.0
C463 C 0.51486 0.21538 0.19444 0.0
C464 C 0.51349 0.19694 0.29979 0.0
C465 C 0.50305 0.13967 0.2855 0.0
H466 H 0.52955 0.13973 0.45778 0.0
C467 C 0.51852 0.06611 0.45035 0.0
C468 C 0.51298 0.06782 0.51762 0.0
C469 C 0.51754 0.08325 0.40767 0.0
C470 C 0.52195 0.13947 0.40997 0.0
H471 H 0.5134 0.19585 0.10788 0.0
H472 H 0.51209 0.16328 0.17048 0.0
H473 H 0.53106 0.17048 0.38929 0.0
H474 H 0.50023 0.08871 0.58985 0.0
H475 H 0.49989 0.11885 0.51732 0.0
H476 H 0.49489 0.10802 0.3063 0.0
C477 C 0.51247 0.17767 0.19762 0.0
C478 C 0.52264 0.15725 0.37046 0.0
C479 C 0.51329 0.19634 0.16142 0.0
C480 C 0.50564 0.08698 0.53985 0.0
C481 C 0.50517 0.10423 0.49779 0.0
C482 C 0.50276 0.12165 0.32473 0.0
C483 C 0.51283 0.17764 0.26769 0.0
C484 C 0.51288 0.15791 0.3079 0.0
C485 C 0.51132 0.10267 0.43127 0.0
C486 C 0.51196 0.12145 0.3879 0.0
H487 H 0.51571 0.22979 0.29089 0.0
H488 H 0.513 0.19799 0.35317 0.0
H489 H 0.49518 0.13936 0.23824 0.0
H490 H 0.52396 0.05157 0.43069 0.0
H491 H 0.52232 0.08148 0.35668 0.0
C492 C 0.33098 0.53246 0.21797 0.0
C493 C 0.32651 0.51854 0.16656 0.0
C494 C 0.34873 0.5303 0.25685 0.0
C495 C 0.40099 0.50768 0.26619 0.0
H496 H 0.39318 0.51607 0.45431 0.0
C497 C 0.46828 0.50106 0.46196 0.0
C498 C 0.46817 0.51575 0.51335 0.0
C499 C 0.45154 0.49949 0.41737 0.0
C500 C 0.39579 0.51388 0.4019 0.0
H501 H 0.33765 0.4916 0.11456 0.0
H502 H 0.3691 0.48788 0.18265 0.0
H503 H 0.36355 0.5169 0.38039 0.0
H504 H 0.45018 0.54052 0.55662 0.0
H505 H 0.42162 0.53793 0.47979 0.0
H506 H 0.43342 0.50505 0.2881 0.0
C507 C 0.35867 0.50051 0.19271 0.0
C508 C 0.3787 0.51431 0.35934 0.0
C509 C 0.34065 0.5026 0.15375 0.0
C510 C 0.45094 0.52886 0.51839 0.0
C511 C 0.43434 0.52728 0.47422 0.0
C512 C 0.41822 0.50735 0.309 0.0
C513 C 0.36273 0.51415 0.24564 0.0
C514 C 0.38104 0.51166 0.29069 0.0
C515 C 0.43421 0.51249 0.42326 0.0
C516 C 0.41591 0.5109 0.37743 0.0
H517 H 0.32047 0.54496 0.22903 0.0
H518 H 0.35146 0.54136 0.29612 0.0
H519 H 0.4034 0.5056 0.21363 0.0
H520 H 0.48123 0.4907 0.45629 0.0
H521 H 0.45202 0.48785 0.37903 0.0
C522 C 1.00734 0.34009 0.19254 0.0
C523 C 0.02242 0.3351 0.14543 0.0
C524 C 1.00927 0.35771 0.2321 0.0
C525 C 0.03592 0.40851 0.25085 0.0
H526 H 0.0186 0.40172 0.43309 0.0
C527 C 0.04226 0.4741 0.45274 0.0
C528 C 0.02512 0.47594 0.49519 0.0
C529 C 0.04375 0.45741 0.40819 0.0
C530 C 0.02336 0.40403 0.38227 0.0
H531 H 0.05133 0.34516 0.10192 0.0
H532 H 0.05482 0.37619 0.17154 0.0
H533 H 0.01787 0.37229 0.35882 0.0
H534 H 0.99601 0.4615 0.52269 0.0
H535 H 0.99867 0.43282 0.44653 0.0
H536 H 0.04131 0.44047 0.27508 0.0
C537 C 0.04134 0.36639 0.1775 0.0
C538 C 0.02292 0.38706 0.33939 0.0
C539 C 0.03937 0.34859 0.13756 0.0
C540 C 1.00959 0.46065 0.49163 0.0
C541 C 1.01114 0.44404 0.44777 0.0
C542 C 0.03639 0.4256 0.29408 0.0
C543 C 0.02647 0.37098 0.22631 0.0
C544 C 0.02874 0.38906 0.27258 0.0
C545 C 0.02827 0.442 0.40557 0.0
C546 C 0.02968 0.42368 0.36015 0.0
H547 H 0.99404 0.33009 0.19971 0.0
H548 H 0.99721 0.36086 0.26768 0.0
H549 H 0.0405 0.41072 0.19984 0.0
H550 H 0.05459 0.48546 0.45426 0.0
H551 H 0.05724 0.45634 0.37678 0.0
C552 C 0.84825 0.97354 0.10032 0.0
C553 C 0.83508 0.98967 0.11906 0.0
C554 C 0.86533 0.9772 0.05961 0.0
C555 C 0.9003 0.01818 0.99346 0.0
H556 H 0.91195 0.97664 0.86082 0.0
C557 C 0.9621 0.03014 0.78714 0.0
C558 C 0.97403 1.01304 0.7683 0.0
C559 C 0.94548 0.02786 0.83108 0.0
C560 C 0.90916 0.9883 0.89805 0.0
H561 H 0.82979 0.02255 0.11042 0.0
H562 H 0.85973 0.02905 0.03853 0.0
H563 H 0.88258 0.97213 0.93434 0.0
H564 H 0.97777 0.98008 0.78105 0.0
H565 H 0.94905 0.97608 0.85845 0.0
H566 H 0.92693 0.03437 0.95665 0.0
C567 C 0.8569 1.01349 0.05602 0.0
C568 C 0.89222 0.98572 0.94043 0.0
C569 C 0.8397 1.00979 0.09717 0.0
C570 C 0.969 0.9936 0.79489 0.0
C571 C 0.95236 0.9913 0.83879 0.0
C572 C 0.91729 0.02078 0.9509 0.0
C573 C 0.8698 0.99715 0.03581 0.0
C574 C 0.88758 1.00051 0.98923 0.0
C575 C 0.94025 1.00838 0.85734 0.0
C576 C 0.92206 1.0058 0.90277 0.0
H577 H 0.84516 0.95787 0.11656 0.0
H578 H 0.87506 0.96426 0.04671 0.0
H579 H 0.89742 0.02982 0.03066 0.0
H580 H 0.96555 0.04535 0.76761 0.0
H581 H 0.93645 0.04135 0.84335 0.0
C582 C 0.53512 0.84161 0.10092 0.0
C583 C 0.55542 0.83668 0.12003 0.0
C584 C 0.53132 0.85854 0.05859 0.0
C585 C 0.55833 0.89234 0.935 0.0
H586 H 0.51115 0.92826 0.95598 0.0
C587 C 0.55042 0.96824 0.78342 0.0
C588 C 0.53065 0.97391 0.76128 0.0
C589 C 0.55299 0.95163 0.82743 0.0
C590 C 0.52431 0.91827 0.94875 0.0
H591 H 0.58748 0.84597 0.11105 0.0
H592 H 0.58095 0.87533 0.03912 0.0
H593 H 0.51592 0.89922 0.03168 0.0
H594 H 0.49803 0.96683 0.7696 0.0
H595 H 0.50244 0.93777 0.84514 0.0
H596 H 0.56674 0.91122 0.85217 0.0
C597 C 0.56791 0.86607 0.05518 0.0
C598 C 0.52704 0.90154 0.99239 0.0
C599 C 0.57166 0.84928 0.09712 0.0
C600 C 0.51351 0.96273 0.78497 0.0
C601 C 0.51604 0.94617 0.82911 0.0
C602 C 0.5556 0.909 0.89146 0.0
C603 C 0.54773 0.87085 0.03426 0.0
C604 C 0.5442 0.88838 0.98653 0.0
C605 C 0.53584 0.94028 0.85105 0.0
C606 C 0.53861 0.92234 0.89769 0.0
H607 H 0.52226 0.83216 0.11734 0.0
H608 H 0.51557 0.86161 0.04348 0.0
H609 H 0.57151 0.88238 0.92763 0.0
H610 H 0.56397 0.9765 0.76607 0.0
H611 H 0.56848 0.94778 0.8433 0.0
C612 C 0.69384 0.53762 0.1118 0.0
C613 C 0.69753 0.55759 0.13654 0.0
C614 C 0.67699 0.53378 0.06905 0.0
C615 C 0.64103 0.56155 0.95463 0.0
H616 H 0.60812 0.51149 0.96342 0.0
C617 C 0.56529 0.55228 0.8024 0.0
C618 C 0.56106 0.53288 0.77419 0.0
C619 C 0.58165 0.55483 0.84757 0.0
C620 C 0.61726 0.5255 0.95968 0.0
H621 H 0.68615 0.58896 0.13723 0.0
H622 H 0.65691 0.58231 0.06451 0.0
H623 H 0.63716 0.51626 0.0395 0.0
H624 H 0.57058 0.50085 0.77252 0.0
H625 H 0.59918 0.50531 0.85002 0.0
H626 H 0.62129 0.57081 0.87489 0.0
C627 C 0.66708 0.56962 0.07648 0.0
C628 C 0.63399 0.52822 1.00347 0.0
C629 C 0.6838 0.57341 0.11884 0.0
C630 C 0.57346 0.51606 0.79293 0.0
C631 C 0.58979 0.51858 0.83801 0.0
C632 C 0.62436 0.55884 0.91096 0.0
C633 C 0.66353 0.54984 0.04998 0.0
C634 C 0.64605 0.54637 1.00196 0.0
C635 C 0.59425 0.53803 0.86589 0.0
C636 C 0.61211 0.54082 0.91289 0.0
H637 H 0.70418 0.5251 0.12421 0.0
H638 H 0.67486 0.51835 0.04952 0.0
H639 H 0.65015 0.57556 0.95067 0.0
H640 H 0.55607 0.56557 0.78907 0.0
H641 H 0.58433 0.56999 0.86848 0.0
C642 C 0.97382 0.69103 0.1051 0.0
C643 C 0.98934 0.70529 0.12255 0.0
C644 C 0.97801 0.6743 0.06345 0.0
C645 C 0.01427 0.65615 0.93402 0.0
H646 H 0.98724 0.60348 0.96519 0.0
C647 C 0.02936 0.5841 0.76759 0.0
C648 C 1.01269 0.57062 0.75458 0.0
C649 C 0.02747 0.60026 0.81353 0.0
C650 C 0.99474 0.61812 0.95499 0.0
H651 H 0.02166 0.71306 0.10957 0.0
H652 H 0.02912 0.68368 0.03643 0.0
H653 H 0.9829 0.6315 0.04398 0.0
H654 H 0.98069 0.56419 0.77851 0.0
H655 H 0.9773 0.59231 0.85793 0.0
H656 H 0.02591 0.64281 0.84451 0.0
C657 C 0.01358 0.68551 0.05514 0.0
C658 C 0.99229 0.63426 1.00056 0.0
C659 C 1.00937 0.70227 0.09756 0.0
C660 C 0.99397 0.57401 0.78802 0.0
C661 C 0.99207 0.59016 0.83393 0.0
C662 C 0.01669 0.63998 0.88823 0.0
C663 C 0.9979 0.67129 0.03727 0.0
C664 C 1.00182 0.65364 0.99056 0.0
C665 C 1.00882 0.60354 0.84778 0.0
C666 C 1.00679 0.62073 0.89758 0.0
H667 H 0.95818 0.69299 0.12299 0.0
H668 H 0.9654 0.66403 0.05031 0.0
H669 H 0.02167 0.67085 0.92396 0.0
H670 H 0.04403 0.58199 0.74288 0.0
H671 H 0.04083 0.60996 0.823 0.0
C672 C 0.04873 0.25419 0.24854 0.0
C673 C 0.06217 0.25104 0.1952 0.0
C674 C 0.05136 0.24331 0.30738 0.0
C675 C 0.07112 0.19269 0.35373 0.0
H676 H 0.04035 0.20606 0.51227 0.0
C677 C 1.01245 0.1382 0.456 0.0
C678 C 1.0094 0.13557 0.52413 0.0
C679 C 0.02639 0.15284 0.43269 0.0
C680 C 0.04949 0.2021 0.46934 0.0
H681 H 0.09019 0.23589 0.16363 0.0
H682 H 0.0953 0.21727 0.26759 0.0
H683 H 0.0542 0.2338 0.44347 0.0
H684 H 0.01834 0.14639 0.62164 0.0
H685 H 0.04266 0.17271 0.58018 0.0
H686 H 0.06592 0.16104 0.37868 0.0
C687 C 0.08228 0.22761 0.26331 0.0
C688 C 0.05722 0.21798 0.42936 0.0
C689 C 0.07941 0.23827 0.20382 0.0
C690 C 0.02033 0.14824 0.56876 0.0
C691 C 0.03432 0.16312 0.54519 0.0
C692 C 0.06372 0.1769 0.39415 0.0
C693 C 0.06764 0.22914 0.31455 0.0
C694 C 0.06666 0.21342 0.36834 0.0
C695 C 0.03763 0.16533 0.47682 0.0
C696 C 0.05145 0.18146 0.44936 0.0
H697 H 0.03522 0.26387 0.24311 0.0
H698 H 0.03953 0.24481 0.34482 0.0
H699 H 0.07842 0.18837 0.3077 0.0
H700 H 1.00393 0.12897 0.42043 0.0
H701 H 0.02804 0.15465 0.37967 0.0
C702 C 0.29654 0.07457 0.2258 0.0
C703 C 0.29941 0.07986 0.15896 0.0
C704 C 0.31143 0.07992 0.27296 0.0
C705 C 0.36444 0.10355 0.29294 0.0
H706 H 0.37506 0.05016 0.37207 0.0
C707 C 0.44503 0.06762 0.31794 0.0
C708 C 0.448 0.05146 0.36362 0.0
C709 C 0.42622 0.07817 0.31526 0.0
C710 C 0.37235 0.06546 0.35236 0.0
H711 H 0.31816 0.09812 0.09173 0.0
H712 H 0.34473 0.10617 0.1725 0.0
H713 H 0.34135 0.05743 0.32927 0.0
H714 H 0.4338 0.03559 0.44738 0.0
H715 H 0.40227 0.05496 0.4458 0.0
H716 H 0.39624 0.11084 0.31291 0.0
C717 C 0.33105 0.09802 0.18915 0.0
C718 C 0.35277 0.0697 0.32764 0.0
C719 C 0.31591 0.0931 0.14235 0.0
C720 C 0.43251 0.04785 0.41127 0.0
C721 C 0.41406 0.0588 0.4098 0.0
C722 C 0.3842 0.09927 0.31788 0.0
C723 C 0.32971 0.09016 0.25388 0.0
C724 C 0.34873 0.08844 0.29508 0.0
C725 C 0.41013 0.07313 0.35922 0.0
C726 C 0.38857 0.07983 0.34558 0.0
H727 H 0.28392 0.06461 0.24093 0.0
H728 H 0.30952 0.0743 0.32306 0.0
H729 H 0.36179 0.11828 0.2691 0.0
H730 H 0.4568 0.07149 0.28198 0.0
H731 H 0.42386 0.08922 0.27576 0.0
C732 C 0.48026 0.29229 0.27029 0.0
C733 C 0.46906 0.29559 0.21169 0.0
C734 C 0.4757 0.30337 0.32726 0.0
C735 C 0.45665 0.35494 0.36212 0.0
H736 H 0.48286 0.34152 0.52929 0.0
C737 C 0.51733 0.40605 0.46845 0.0
C738 C 0.51991 0.40904 0.53665 0.0
C739 C 0.50244 0.39243 0.44475 0.0
C740 C 0.47495 0.34558 0.48387 0.0
H741 H 0.44278 0.3113 0.16886 0.0
H742 H 0.43442 0.33052 0.2693 0.0
H743 H 0.46868 0.31396 0.46068 0.0
H744 H 0.50913 0.3999 0.63388 0.0
H745 H 0.48307 0.37535 0.59188 0.0
H746 H 0.46339 0.38647 0.38461 0.0
C747 C 0.44716 0.31975 0.27064 0.0
C748 C 0.46703 0.32976 0.44402 0.0
C749 C 0.45191 0.30877 0.21307 0.0
C750 C 0.5075 0.39774 0.581 0.0
C751 C 0.49252 0.38389 0.55706 0.0
C752 C 0.46416 0.37071 0.40248 0.0
C753 C 0.45975 0.31806 0.32736 0.0
C754 C 0.45955 0.33415 0.37999 0.0
C755 C 0.48971 0.38134 0.48853 0.0
C756 C 0.475 0.36602 0.46079 0.0
H757 H 0.4937 0.28239 0.27088 0.0
H758 H 0.48603 0.30168 0.36907 0.0
H759 H 0.45077 0.35916 0.31384 0.0
H760 H 0.52696 0.41422 0.43316 0.0
H761 H 0.50124 0.39026 0.39174 0.0
C762 C 0.24261 0.49913 0.26682 0.0
C763 C 0.23809 0.48572 0.21416 0.0
C764 C 0.23181 0.49764 0.32619 0.0
C765 C 0.18066 0.48175 0.38283 0.0
H766 H 0.20155 0.50461 0.54728 0.0
C767 C 0.15012 0.54521 0.56121 0.0
C768 C 0.1295 0.53878 0.56873 0.0
C769 C 0.16522 0.53117 0.54186 0.0
C770 C 0.19552 0.49785 0.50215 0.0
H771 H 0.21979 0.45924 0.18399 0.0
H772 H 0.20095 0.45642 0.28841 0.0
H773 H 0.22578 0.49235 0.46374 0.0
H774 H 0.1091 0.51208 0.57086 0.0
H775 H 0.13542 0.48765 0.5348 0.0
H776 H 0.15049 0.48817 0.41971 0.0
C777 C 0.21261 0.46837 0.28328 0.0
C778 C 0.20936 0.49096 0.45411 0.0
C779 C 0.22336 0.46997 0.22349 0.0
C780 C 0.12473 0.51762 0.56322 0.0
C781 C 0.13981 0.5036 0.54322 0.0
C782 C 0.16685 0.48842 0.43111 0.0
C783 C 0.21625 0.48261 0.3346 0.0
C784 C 0.20209 0.48401 0.39228 0.0
C785 C 0.15995 0.51046 0.52926 0.0
C786 C 0.17417 0.49762 0.48959 0.0
H787 H 0.25368 0.5116 0.26091 0.0
H788 H 0.2348 0.50917 0.36378 0.0
H789 H 0.17441 0.47661 0.33589 0.0
H790 H 0.15435 0.56136 0.56504 0.0
H791 H 0.18057 0.53697 0.53103 0.0
C792 C 0.98239 0.79612 0.01257 0.0
C793 C 0.97097 0.7996 0.07024 0.0
C794 C 0.97951 0.80854 0.95711 0.0
C795 C 0.97383 0.83666 0.84257 0.0
H796 H 0.96821 0.89345 0.89864 0.0
C797 C 0.0173 0.89982 0.70262 0.0
C798 C 0.02686 0.91461 0.74328 0.0
C799 C 1.00128 0.88743 0.72702 0.0
C800 C 0.97004 0.87767 0.88208 0.0
H801 H 0.94604 0.81714 0.11333 0.0
H802 H 0.9401 0.83827 0.01497 0.0
H803 H 0.95647 0.86611 0.97043 0.0
H804 H 0.02712 0.92817 0.84117 0.0
H805 H 1.00056 0.90587 0.88521 0.0
H806 H 0.98992 0.84806 0.75847 0.0
C807 C 0.95196 0.82656 0.01322 0.0
C808 C 0.9628 0.86184 0.92292 0.0
C809 C 0.9552 0.81438 0.06946 0.0
C810 C 0.01983 0.9171 0.8083 0.0
C811 C 1.00431 0.90434 0.83334 0.0
C812 C 0.98181 0.85245 0.80297 0.0
C813 C 0.96487 0.82458 0.95751 0.0
C814 C 0.96591 0.84103 0.90576 0.0
C815 C 0.99503 0.88899 0.79356 0.0
C816 C 0.98127 0.87311 0.82442 0.0
H817 H 0.99479 0.78494 0.01208 0.0
H818 H 0.99007 0.8065 0.91627 0.0
H819 H 0.9755 0.82089 0.82579 0.0
H820 H 0.02238 0.89765 0.6521 0.0
H821 H 0.99428 0.87623 0.69409 0.0
C822 C 0.74187 0.97811 0.01417 0.0
C823 C 0.73892 0.96937 0.07711 0.0
C824 C 0.72772 0.97416 0.96337 0.0
C825 C 0.67788 0.94673 0.92405 0.0
H826 H 0.66073 1.00226 0.87979 0.0
C827 C 0.59418 0.97291 0.9313 0.0
C828 C 0.58825 0.99117 0.89883 0.0
C829 C 0.61408 0.96504 0.9235 0.0
C830 C 0.66531 0.98649 0.88939 0.0
H831 H 0.72084 0.94725 0.13328 0.0
H832 H 0.69577 0.94098 0.04601 0.0
H833 H 0.69539 0.99646 0.91774 0.0
H834 H 0.59831 1.01415 0.82683 0.0
H835 H 0.63221 0.99972 0.81042 0.0
H836 H 0.64711 0.93709 0.89916 0.0
C837 C 0.70893 0.95081 0.03518 0.0
C838 C 0.68542 0.98314 0.91133 0.0
C839 C 0.72316 0.95462 0.0857 0.0
C840 C 0.60207 1.0001 0.85311 0.0
C841 C 0.62177 0.99195 0.84419 0.0
C842 C 0.65769 0.95008 0.90166 0.0
C843 C 0.71029 0.9616 0.97494 0.0
C844 C 0.69161 0.96344 0.93246 0.0
C845 C 0.62844 0.97504 0.88209 0.0
C846 C 0.65085 0.97021 0.88757 0.0
H847 H 0.75397 0.98943 1.00577 0.0
H848 H 0.72946 0.98234 0.91693 0.0
H849 H 0.68232 0.93129 0.93876 0.0
H850 H 0.58374 0.96505 0.96482 0.0
H851 H 0.61854 0.95195 0.95353 0.0
C852 C 0.58402 0.72583 0.06697 0.0
C853 C 0.56928 0.74169 0.06648 0.0
C854 C 0.58625 0.71296 0.01211 0.0
C855 C 0.56738 0.67859 0.93233 0.0
H856 H 0.55606 0.69091 0.74821 0.0
C857 C 0.52263 0.61979 0.78613 0.0
C858 C 0.50583 0.62811 0.75081 0.0
C859 C 0.53948 0.63215 0.80365 0.0
C860 C 0.55921 0.68715 0.79942 0.0
H861 H 0.54694 0.75789 1.00579 0.0
H862 H 0.55068 0.7354 0.91051 0.0
H863 H 0.57026 0.71778 0.82016 0.0
H864 H 0.49525 0.65543 0.69861 0.0
H865 H 0.5233 0.67741 0.73512 0.0
H866 H 0.55464 0.64889 0.9149 0.0
C867 C 0.56067 0.73295 0.95284 0.0
C868 C 0.56751 0.70252 0.84042 0.0
C869 C 0.55845 0.74582 1.00767 0.0
C870 C 0.50733 0.64865 0.72854 0.0
C871 C 0.52384 0.66122 0.7482 0.0
C872 C 0.55882 0.66341 0.89191 0.0
C873 C 0.57374 0.7157 0.9559 0.0
C874 C 0.57078 0.69862 0.90801 0.0
C875 C 0.53961 0.65338 0.78907 0.0
C876 C 0.55366 0.66773 0.82564 0.0
H877 H 0.59292 0.7226 0.11121 0.0
H878 H 0.59669 0.69998 0.01543 0.0
H879 H 0.56946 0.6751 0.98433 0.0
H880 H 0.5224 0.60406 0.80412 0.0
H881 H 0.55174 0.62527 0.83261 0.0
C882 C 0.7943 0.57206 0.05075 0.0
C883 C 0.79336 0.58316 0.11008 0.0
C884 C 0.81084 0.57504 1.0077 0.0
C885 C 0.86522 0.5882 0.033 0.0
H886 H 0.86816 0.56193 0.8615 0.0
C887 C 0.92679 0.52855 0.97542 0.0
C888 C 0.93165 0.52352 0.90972 0.0
C889 C 0.91237 0.54394 0.98926 0.0
C890 C 0.86797 0.56975 0.90875 0.0
H891 H 0.80665 0.60849 0.16578 0.0
H892 H 0.83508 0.6145 0.08886 0.0
H893 H 0.83636 0.57814 0.89538 0.0
H894 H 0.92546 0.53169 0.80697 0.0
H895 H 0.90196 0.55933 0.83133 0.0
H896 H 0.89689 0.58006 0.04605 0.0
C897 C 0.82369 0.60278 0.07689 0.0
C898 C 0.8495 0.57885 0.92859 0.0
C899 C 0.80729 0.59953 0.1206 0.0
C900 C 0.92256 0.53516 0.85844 0.0
C901 C 0.90863 0.5509 0.87234 0.0
C902 C 0.88384 0.57957 0.01247 0.0
C903 C 0.82661 0.58937 0.02297 0.0
C904 C 0.84744 0.58684 0.99284 0.0
C905 C 0.90275 0.55504 0.93778 0.0
C906 C 0.88505 0.56898 0.952 0.0
H907 H 0.78375 0.55933 0.04153 0.0
H908 H 0.81233 0.56438 0.96684 0.0
H909 H 0.86447 0.59427 0.08278 0.0
H910 H 0.93372 0.52031 0.01637 0.0
H911 H 0.90815 0.54639 0.04041 0.0
C912 C 0.06122 0.22486 0.94047 0.0
C913 C 0.04436 0.23699 0.96043 0.0
C914 C 0.05829 0.20717 0.90134 0.0
C915 C 0.01893 0.16713 0.86517 0.0
H916 H 0.05735 0.14994 0.72939 0.0
C917 C 1.00779 0.08935 0.72496 0.0
C918 C 0.0255 0.078 0.70797 0.0
C919 C 1.00943 0.10959 0.74953 0.0
C920 C 0.04658 0.15429 0.76777 0.0
H921 H 1.01118 0.24018 0.95334 0.0
H922 H 1.00597 0.20927 0.88485 0.0
H923 H 0.06132 0.1838 0.78092 0.0
H924 H 0.05879 0.07969 0.70105 0.0
H925 H 0.06186 0.11439 0.7468 0.0
H926 H 1.00454 0.13748 0.85385 0.0
C927 C 0.02153 0.21348 0.89949 0.0
C928 C 0.04882 0.17386 0.79718 0.0
C929 C 0.02453 0.23139 0.93798 0.0
C930 C 0.04487 0.08767 0.71525 0.0
C931 C 0.04657 0.10784 0.74046 0.0
C932 C 0.0168 0.14749 0.83624 0.0
C933 C 0.03834 0.20085 0.88174 0.0
C934 C 0.03512 0.18055 0.84675 0.0
C935 C 0.02887 0.11917 0.75842 0.0
C936 C 0.03069 0.14061 0.78739 0.0
H937 H 0.07667 0.22859 0.95759 0.0
H938 H 0.07161 0.19786 0.88936 0.0
H939 H 1.00824 0.17151 0.90378 0.0
H940 H 0.99257 0.08252 0.71988 0.0
H941 H 0.99535 0.11775 0.76119 0.0
C942 C 0.31963 0.02507 0.97772 0.0
C943 C 0.30372 0.0381 0.95595 0.0
C944 C 0.33673 0.02101 0.93759 0.0
C945 C 0.36565 0.04371 0.79431 0.0
H946 H 0.39965 0.99529 0.82069 0.0
C947 C 0.44425 0.02873 0.65697 0.0
C948 C 0.46082 0.02421 0.69978 0.0
C949 C 0.42383 0.0293 0.68083 0.0
C950 C 0.39032 1.00891 0.8127 0.0
H951 H 0.2929 0.05651 0.87383 0.0
H952 H 0.32224 0.04859 0.80169 0.0
H953 H 0.36558 0.99686 0.8713 0.0
H954 H 0.46874 0.0163 0.80095 0.0
H955 H 0.43328 0.01674 0.84172 0.0
H956 H 0.39055 0.05545 0.7345 0.0
C957 C 0.32182 0.04182 0.85064 0.0
C958 C 0.37074 1.00992 0.84216 0.0
C959 C 0.30472 0.04605 0.89137 0.0
C960 C 0.45642 0.01997 0.76659 0.0
C961 C 0.43605 0.02009 0.78996 0.0
C962 C 0.38511 0.0425 0.76378 0.0
C963 C 0.33848 0.02978 0.87394 0.0
C964 C 0.35824 0.02758 0.83508 0.0
C965 C 0.41949 0.02485 0.7476 0.0
C966 C 0.3979 0.0253 0.77394 0.0
H967 H 0.31953 0.01918 0.02792 0.0
H968 H 0.34916 1.012 0.95858 0.0
H969 H 0.35683 0.05773 0.78795 0.0
H970 H 0.44708 0.03208 0.60526 0.0
H971 H 0.4114 0.03297 0.6469 0.0
C972 C 0.4779 0.31978 0.95594 0.0
C973 C 0.49482 0.30945 0.98448 0.0
C974 C 0.48079 0.33735 0.91616 0.0
C975 C 0.51771 0.38052 0.8909 0.0
H976 H 0.48346 0.39301 0.73865 0.0
C977 C 0.52862 0.45701 0.74337 0.0
C978 C 0.51106 0.46671 0.71674 0.0
C979 C 0.52735 0.43712 0.77099 0.0
C980 C 0.49302 0.38999 0.78157 0.0
H981 H 0.52816 0.30937 0.99195 0.0
H982 H 0.53331 0.34006 0.92224 0.0
H983 H 0.48029 0.3595 0.79311 0.0
H984 H 0.47853 0.4625 0.69603 0.0
H985 H 0.47596 0.42832 0.74657 0.0
H986 H 0.53004 0.41111 0.88094 0.0
C987 C 0.51772 0.33453 0.93072 0.0
C988 C 0.49125 0.37061 0.81274 0.0
C989 C 0.51481 0.31674 0.96995 0.0
C990 C 0.49225 0.45576 0.71749 0.0
C991 C 0.4909 0.43591 0.74563 0.0
C992 C 0.51936 0.39995 0.86013 0.0
C993 C 0.50071 0.34538 0.90433 0.0
C994 C 0.50349 0.36558 0.86818 0.0
C995 C 0.50843 0.42623 0.77327 0.0
C996 C 0.50697 0.40513 0.80507 0.0
H997 H 0.46228 0.31473 0.96677 0.0
H998 H 0.46727 0.34525 0.89745 0.0
H999 H 0.52717 0.37747 0.93402 0.0
H1000 H 0.54344 0.46487 0.74332 0.0
H1001 H 0.54136 0.43025 0.79006 0.0
C1002 C 0.22382 0.51663 0.94612 0.0
C1003 C 0.22913 0.49729 0.97262 0.0
C1004 C 0.20654 0.5187 0.90416 0.0
C1005 C 0.15698 0.49111 0.86432 0.0
H1006 H 0.15147 0.53315 0.72891 0.0
C1007 C 0.0835 0.49678 0.70058 0.0
C1008 C 0.075 0.51654 0.69202 0.0
C1009 C 0.10315 0.49426 0.72887 0.0
C1010 C 0.15271 0.5214 0.76688 0.0
H1011 H 0.22113 0.46483 0.97312 0.0
H1012 H 0.19183 0.46813 0.89789 0.0
H1013 H 0.18452 0.52889 0.78635 0.0
H1014 H 0.08115 0.54927 0.70392 0.0
H1015 H 0.11555 0.54492 0.75204 0.0
H1016 H 0.12524 0.48362 0.84489 0.0
C1017 C 0.20044 0.48192 0.91078 0.0
C1018 C 0.17171 0.51895 0.80003 0.0
C1019 C 0.2175 0.47992 0.95317 0.0
C1020 C 0.0871 0.53378 0.71003 0.0
C1021 C 0.1069 0.53129 0.73754 0.0
C1022 C 0.13811 0.49346 0.83096 0.0
C1023 C 0.19416 0.50144 0.88739 0.0
C1024 C 0.17417 0.50379 0.84957 0.0
C1025 C 0.1151 0.51147 0.74836 0.0
C1026 C 0.13562 0.50869 0.78198 0.0
H1027 H 0.23222 0.53035 0.96124 0.0
H1028 H 0.20228 0.53402 0.88787 0.0
H1029 H 0.15785 0.4796 0.90307 0.0
H1030 H 0.07496 0.4832 0.68523 0.0
H1031 H 0.10906 0.47877 0.73519 0.0
C1032 C 0.01452 0.82543 0.27558 0.0
C1033 C 1.00067 0.80955 0.29311 0.0
C1034 C 0.01753 0.84262 0.31665 0.0
C1035 C 0.99107 0.87273 0.44866 0.0
H1036 H 0.04315 0.90252 0.45297 0.0
C1037 C 1.00373 0.94871 0.60181 0.0
C1038 C 0.01515 0.9645 0.57082 0.0
C1039 C 1.00193 0.92907 0.57252 0.0
C1040 C 0.02841 0.89453 0.45194 0.0
H1041 H 0.9794 0.79914 0.36851 0.0
H1042 H 0.98498 0.82895 0.44164 0.0
H1043 H 0.04103 0.86923 0.3975 0.0
H1044 H 0.03384 0.97194 0.48534 0.0
H1045 H 0.03139 0.93768 0.43567 0.0
H1046 H 0.9785 0.8982 0.50315 0.0
C1047 C 0.99345 0.82822 0.39558 0.0
C1048 C 0.02718 0.87533 0.41997 0.0
C1049 C 0.99048 0.81091 0.35427 0.0
C1050 C 0.02496 0.9601 0.51055 0.0
C1051 C 0.02364 0.94037 0.48227 0.0
C1052 C 0.99233 0.89195 0.48097 0.0
C1053 C 1.00668 0.84461 0.37668 0.0
C1054 C 1.00841 0.86422 0.41667 0.0
C1055 C 1.01216 0.92448 0.51281 0.0
C1056 C 1.01095 0.90334 0.48209 0.0
H1057 H 0.02225 0.82505 0.22811 0.0
H1058 H 0.0276 0.85488 0.29935 0.0
H1059 H 0.97625 0.86491 0.44679 0.0
H1060 H 0.99585 0.95167 0.64802 0.0
H1061 H 0.99276 0.91738 0.59724 0.0
C1062 C 0.72788 0.01941 0.31728 0.0
C1063 C 0.73337 0.999 0.30204 0.0
C1064 C 0.71096 0.02346 0.359 0.0
C1065 C 0.67306 0.99799 0.47577 0.0
H1066 H 0.63677 0.04195 0.41874 0.0
C1067 C 0.59487 1.01347 0.60856 0.0
C1068 C 0.57795 0.01931 0.56907 0.0
C1069 C 0.61492 1.01269 0.58209 0.0
C1070 C 0.6466 0.02948 0.43525 0.0
H1071 H 0.72604 0.96691 0.32105 0.0
H1072 H 0.69688 0.97377 0.39309 0.0
H1073 H 0.67 0.03742 0.3647 0.0
H1074 H 0.56901 0.02894 0.4705 0.0
H1075 H 0.60363 0.02703 0.42393 0.0
H1076 H 0.64927 0.9894 0.54408 0.0
C1077 C 0.70555 0.98681 0.374 0.0
C1078 C 0.66594 0.02709 0.40479 0.0
C1079 C 0.72236 0.98281 0.33251 0.0
C1080 C 0.58166 0.02441 0.50247 0.0
C1081 C 0.60165 0.0235 0.47588 0.0
C1082 C 0.65369 1.00031 0.50598 0.0
C1083 C 0.69913 1.00718 0.38649 0.0
C1084 C 0.67939 1.0111 0.42379 0.0
C1085 C 0.61866 0.01757 0.51511 0.0
C1086 C 0.63996 0.01591 0.48563 0.0
H1087 H 0.73585 0.0322 0.29381 0.0
H1088 H 0.70678 0.03936 0.36811 0.0
H1089 H 0.68299 0.98567 0.49282 0.0
H1090 H 0.5926 1.00912 0.65978 0.0
H1091 H 0.62751 1.00826 0.61441 0.0
C1092 C 0.56444 0.72096 0.32004 0.0
C1093 C 0.54811 0.73403 0.30123 0.0
C1094 C 0.56104 0.70395 0.36152 0.0
C1095 C 0.52609 0.67839 0.48121 0.0
H1096 H 0.54786 0.62808 0.40483 0.0
C1097 C 0.52763 0.59717 0.61484 0.0
C1098 C 0.52137 0.58024 0.5758 0.0
C1099 C 0.53008 0.61697 0.58673 0.0
C1100 C 0.54165 0.64195 0.42697 0.0
H1101 H 0.51558 0.7401 0.31553 0.0
H1102 H 0.50968 0.71047 0.38997 0.0
H1103 H 0.55368 0.66104 0.34937 0.0
H1104 H 0.51176 0.57135 0.47722 0.0
H1105 H 0.51688 0.6053 0.42788 0.0
H1106 H 0.51423 0.65903 0.55943 0.0
C1107 C 0.52514 0.71344 0.3718 0.0
C1108 C 0.5451 0.66092 0.39534 0.0
C1109 C 0.52853 0.7305 0.32948 0.0
C1110 C 0.51722 0.58378 0.50844 0.0
C1111 C 0.52001 0.60335 0.48017 0.0
C1112 C 0.52294 0.65933 0.51373 0.0
C1113 C 0.54123 0.69949 0.38622 0.0
C1114 C 0.53734 0.67943 0.42168 0.0
C1115 C 0.52663 0.62024 0.51864 0.0
C1116 C 0.53052 0.64082 0.48659 0.0
H1117 H 0.57974 0.72326 0.29956 0.0
H1118 H 0.57388 0.69382 0.37245 0.0
H1119 H 0.51994 0.69232 0.50303 0.0
H1120 H 0.53113 0.59501 0.66674 0.0
H1121 H 0.53531 0.62957 0.61781 0.0
C1122 C 0.80868 0.56345 0.36386 0.0
C1123 C 0.79912 0.54829 0.32434 0.0
C1124 C 0.82678 0.55915 0.39938 0.0
C1125 C 0.87165 0.5233 0.39467 0.0
H1126 H 0.88759 0.55247 0.55429 0.0
C1127 C 0.9506 0.50975 0.52728 0.0
C1128 C 0.96114 0.52724 0.55152 0.0
C1129 C 0.93033 0.51129 0.5028 0.0
C1130 C 0.88348 0.54432 0.50937 0.0
H1131 H 0.80063 0.51637 0.29373 0.0
H1132 H 0.83183 0.50847 0.35784 0.0
H1133 H 0.85251 0.55582 0.51153 0.0
H1134 H 0.95832 0.56002 0.57012 0.0
H1135 H 0.92314 0.5628 0.5269 0.0
H1136 H 0.90268 0.51179 0.39282 0.0
C1137 C 0.82555 0.5239 0.3605 0.0
C1138 C 0.86326 0.54622 0.4847 0.0
C1139 C 0.80737 0.52826 0.32478 0.0
C1140 C 0.95082 0.54629 0.55097 0.0
C1141 C 0.9305 0.54782 0.52689 0.0
C1142 C 0.89182 0.52128 0.41965 0.0
C1143 C 0.83598 0.5395 0.39647 0.0
C1144 C 0.85704 0.53596 0.42641 0.0
C1145 C 0.91991 0.53033 0.50248 0.0
C1146 C 0.89814 0.53195 0.47696 0.0
H1147 H 0.80296 0.57915 0.36336 0.0
H1148 H 0.83426 0.57171 0.42554 0.0
H1149 H 0.86776 0.51542 0.34909 0.0
H1150 H 0.95806 0.49482 0.52691 0.0
H1151 H 0.92269 0.49744 0.48505 0.0
loop_
_geom_bond_atom_site_label_1
_geom_bond_atom_site_label_2
_geom_bond_distance
_geom_bond_site_symmetry_2
_ccdc_geom_bond_type
H0 C5 0.930 . S
H1 C8 0.930 . S
H2 C10 0.930 . S
H3 C4 1.016 . S
C4 H3 1.016 . S
C4 N11 1.286 . S
C5 H0 0.930 . S
C5 C6 1.397 . S
C5 C7 1.361 . S
C6 C5 1.397 . S
C6 C10 1.390 . S
C7 C5 1.361 . S
C7 C8 1.393 . S
C7 N11 1.413 . S
C8 H1 0.930 . S
C8 C7 1.393 . S
C8 C9 1.399 . S
C9 C8 1.399 . S
C9 C10 1.381 . S
C10 H2 0.930 . S
C10 C6 1.390 . S
C10 C9 1.381 . S
N11 C4 1.286 . S
N11 C7 1.413 . S
H12 C17 0.930 . S
H13 C20 0.930 . S
H14 C22 0.930 . S
H15 C16 1.016 . S
C16 H15 1.016 . S
C16 N23 1.286 . S
C17 H12 0.930 . S
C17 C18 1.397 . S
C17 C19 1.361 . S
C18 C17 1.397 . S
C18 C22 1.390 . S
C19 C17 1.361 . S
C19 C20 1.393 . S
C19 N23 1.413 . S
C20 H13 0.930 . S
C20 C19 1.393 . S
C20 C21 1.399 . S
C21 C20 1.399 . S
C21 C22 1.381 . S
C22 H14 0.930 . S
C22 C18 1.390 . S
C22 C21 1.381 . S
N23 C16 1.286 . S
N23 C19 1.413 . S
H24 C29 0.930 . S
H25 C32 0.930 . S
H26 C34 0.930 . S
H27 C28 1.016 . S
C28 H27 1.016 . S
C28 N35 1.286 . S
C29 H24 0.930 . S
C29 C30 1.397 . S
C29 C31 1.361 . S
C30 C29 1.397 . S
C30 C34 1.390 . S
C31 C29 1.361 . S
C31 C32 1.393 . S
C31 N35 1.413 . S
C32 H25 0.930 . S
C32 C31 1.393 . S
C32 C33 1.399 . S
C33 C32 1.399 . S
C33 C34 1.381 . S
C34 H26 0.930 . S
C34 C30 1.390 . S
C34 C33 1.381 . S
N35 C28 1.286 . S
N35 C31 1.413 . S
H36 C41 0.930 . S
H37 C44 0.930 . S
H38 C46 0.930 . S
H39 C40 1.016 . S
C40 H39 1.016 . S
C40 N47 1.286 . S
C41 H36 0.930 . S
C41 C42 1.397 . S
C41 C43 1.361 . S
C42 C41 1.397 . S
C42 C46 1.390 . S
C43 C41 1.361 . S
C43 C44 1.393 . S
C43 N47 1.413 . S
C44 H37 0.930 . S
C44 C43 1.393 . S
C44 C45 1.399 . S
C45 C44 1.399 . S
C45 C46 1.381 . S
C46 H38 0.930 . S
C46 C42 1.390 . S
C46 C45 1.381 . S
N47 C40 1.286 . S
N47 C43 1.413 . S
H48 C53 0.930 . S
H49 C56 0.930 . S
H50 C58 0.930 . S
H51 C52 1.016 . S
C52 H51 1.016 . S
C52 N59 1.286 . S
C53 H48 0.930 . S
C53 C54 1.397 . S
C53 C55 1.361 1_556 S
C54 C53 1.397 . S
C54 C58 1.390 1_556 S
C55 C53 1.361 1_554 S
C55 C56 1.393 . S
C55 N59 1.413 . S
C56 H49 0.930 . S
C56 C55 1.393 . S
C56 C57 1.399 . S
C57 C56 1.399 . S
C57 C58 1.381 . S
C58 H50 0.930 . S
C58 C54 1.390 1_554 S
C58 C57 1.381 . S
N59 C52 1.286 . S
N59 C55 1.413 . S
H60 C65 0.930 . S
H61 C68 0.930 . S
H62 C70 0.930 . S
H63 C64 1.016 . S
C64 H63 1.016 . S
C64 N71 1.286 . S
C65 H60 0.930 . S
C65 C66 1.397 . S
C65 C67 1.361 1_556 S
C66 C65 1.397 . S
C66 C70 1.390 1_556 S
C67 C65 1.361 1_554 S
C67 C68 1.393 . S
C67 N71 1.413 . S
C68 H61 0.930 . S
C68 C67 1.393 . S
C68 C69 1.399 . S
C69 C68 1.399 . S
C69 C70 1.381 . S
C70 H62 0.930 . S
C70 C66 1.390 1_554 S
C70 C69 1.381 . S
N71 C64 1.286 . S
N71 C67 1.413 . S
H72 C77 0.930 . S
H73 C80 0.930 . S
H74 C82 0.930 . S
H75 C76 1.016 . S
C76 H75 1.016 . S
C76 N83 1.286 . S
C77 H72 0.930 . S
C77 C78 1.397 . S
C77 C79 1.361 1_556 S
C78 C77 1.397 . S
C78 C82 1.390 1_556 S
C79 C77 1.361 1_554 S
C79 C80 1.393 . S
C79 N83 1.413 . S
C80 H73 0.930 . S
C80 C79 1.393 . S
C80 C81 1.399 . S
C81 C80 1.399 . S
C81 C82 1.381 . S
C82 H74 0.930 . S
C82 C78 1.390 1_554 S
C82 C81 1.381 . S
N83 C76 1.286 . S
N83 C79 1.413 . S
H84 C89 0.930 . S
H85 C92 0.930 . S
H86 C94 0.930 . S
H87 C88 1.016 . S
C88 H87 1.016 . S
C88 N95 1.286 . S
C89 H84 0.930 . S
C89 C90 1.397 . S
C89 C91 1.361 1_556 S
C90 C89 1.397 . S
C90 C94 1.390 1_556 S
C91 C89 1.361 1_554 S
C91 C92 1.393 . S
C91 N95 1.413 . S
C92 H85 0.930 . S
C92 C91 1.393 . S
C92 C93 1.399 . S
C93 C92 1.399 . S
C93 C94 1.381 . S
C94 H86 0.930 . S
C94 C90 1.390 1_554 S
C94 C93 1.381 . S
N95 C88 1.286 . S
N95 C91 1.413 . S
Tb96 N125 2.617 . S
Tb96 N131 2.572 . S
Tb96 O140 2.465 1_655 S
Tb96 O141 2.387 1_545 S
Tb96 O143 2.428 . S
Tb96 O144 2.308 1_655 S
Tb96 O148 2.349 1_655 S
Tb96 O151 2.393 . S
Tb96 C160 2.802 . S
C97 N98 1.379 . S
C97 C100 1.416 . S
C97 C104 1.424 . S
N98 C97 1.379 . S
N98 C101 1.341 . S
N98 Tb107 2.617 1_545 S
C99 C101 1.409 . S
C99 C102 1.339 . S
C99 H119 0.930 . S
C100 C97 1.416 . S
C100 C102 1.416 . S
C100 C106 1.448 . S
C101 N98 1.341 . S
C101 C99 1.409 . S
C101 H112 0.907 1_545 S
C102 C99 1.339 . S
C102 C100 1.416 . S
C102 H123 0.930 . S
C103 C104 1.413 . S
C103 C105 1.427 . S
C103 C109 1.416 . S
C104 C97 1.424 . S
C104 C103 1.413 . S
C104 N108 1.361 . S
C105 C103 1.427 . S
C105 C106 1.328 . S
C105 H120 0.929 . S
C106 C100 1.448 . S
C106 C105 1.328 . S
C106 H121 0.930 . S
Tb107 N98 2.617 1_565 S
Tb107 N108 2.572 1_565 S
Tb107 O142 2.349 . S
Tb107 O145 2.393 . S
Tb107 O146 2.465 . S
Tb107 O147 2.387 1_565 S
Tb107 O149 2.428 . S
Tb107 O150 2.308 1_465 S
Tb107 C171 2.802 . S
N108 C104 1.361 . S
N108 Tb107 2.572 1_545 S
N108 C110 1.340 . S
C109 C103 1.416 . S
C109 C111 1.332 . S
C109 H117 0.931 . S
C110 N108 1.340 . S
C110 C111 1.407 . S
C110 H116 0.930 1_455 S
C111 C109 1.332 . S
C111 C110 1.407 . S
C111 H113 0.929 1_455 S
H112 C101 0.907 1_565 S
H113 C111 0.929 1_655 S
H114 C129 0.930 . S
H115 C136 0.935 . S
H116 C110 0.930 1_655 S
H117 C109 0.931 . S
H118 C132 0.930 . S
H119 C99 0.930 . S
H120 C105 0.929 . S
H121 C106 0.930 . S
H122 C127 0.930 . S
H123 C102 0.930 . S
H124 C135 0.931 . S
N125 Tb96 2.617 . S
N125 C126 1.379 . S
N125 C129 1.334 . S
C126 N125 1.379 . S
C126 C128 1.416 1_545 S
C126 C134 1.424 . S
C127 H122 0.930 . S
C127 C129 1.390 . S
C127 C130 1.333 1_545 S
C128 C126 1.416 1_565 S
C128 C130 1.417 . S
C128 C161 1.448 . S
C129 H114 0.930 . S
C129 N125 1.334 . S
C129 C127 1.390 . S
C130 C127 1.333 1_565 S
C130 C128 1.417 . S
C130 H137 0.935 . S
N131 Tb96 2.572 . S
N131 C132 1.340 1_655 S
N131 C134 1.361 . S
C132 H118 0.930 . S
C132 N131 1.340 1_455 S
C132 C136 1.387 1_545 S
C133 C134 1.413 1_565 S
C133 C135 1.416 . S
C133 C162 1.427 . S
C134 C126 1.424 . S
C134 N131 1.361 . S
C134 C133 1.413 1_545 S
C135 H124 0.931 . S
C135 C133 1.416 . S
C135 C136 1.350 1_655 S
C136 H115 0.935 . S
C136 C132 1.387 1_565 S
C136 C135 1.350 1_455 S
H137 C130 0.935 . S
H138 C161 0.930 . S
H139 C162 0.929 . S
O140 Tb96 2.465 1_455 S
O140 C160 1.264 1_455 S
O141 Tb96 2.387 1_565 S
O141 C152 1.264 . S
O142 Tb107 2.349 . S
O142 C152 1.243 1_455 S
O143 Tb96 2.428 . S
O143 C160 1.256 . S
O144 Tb96 2.308 1_455 S
O144 C159 1.266 . S
O145 Tb107 2.393 . S
O145 C159 1.248 1_565 S
O146 Tb107 2.465 . S
O146 C171 1.264 . S
O147 Tb107 2.387 1_545 S
O147 C163 1.264 . S
O148 Tb96 2.349 1_455 S
O148 C163 1.243 . S
O149 Tb107 2.428 . S
O149 C171 1.256 . S
O150 Tb107 2.308 1_645 S
O150 C170 1.266 . S
O151 Tb96 2.393 . S
O151 C170 1.248 . S
C152 O141 1.264 . S
C152 O142 1.243 1_655 S
C153 C156 1.399 . S
C153 C158 1.355 1_655 S
C153 C160 1.496 . S
C154 C155 1.399 . S
C154 C158 1.386 1_655 S
C155 C154 1.399 . S
C155 C157 1.380 . S
C155 H172 0.929 . S
C156 C153 1.399 . S
C156 C157 1.392 . S
C156 H173 0.929 . S
C157 C155 1.380 . S
C157 C156 1.392 . S
C157 H174 0.929 . S
C158 C153 1.355 1_455 S
C158 C154 1.386 1_455 S
C158 H175 0.964 . S
C159 O144 1.266 . S
C159 O145 1.248 1_545 S
C160 Tb96 2.802 . S
C160 O140 1.264 1_655 S
C160 O143 1.256 . S
C160 C153 1.496 . S
C161 C128 1.448 . S
C161 H138 0.930 . S
C161 C162 1.328 . S
C162 C133 1.427 . S
C162 H139 0.929 . S
C162 C161 1.328 . S
C163 O147 1.264 . S
C163 O148 1.243 . S
C164 C167 1.399 . S
C164 C168 1.383 . S
C164 C171 1.496 . S
C165 C166 1.399 . S
C165 C168 1.389 . S
C166 C165 1.399 . S
C166 C169 1.380 . S
C166 H176 0.929 . S
C167 C164 1.399 . S
C167 C169 1.392 . S
C167 H177 0.929 . S
C168 C164 1.383 . S
C168 C165 1.389 . S
C168 H178 0.885 1_455 S
C169 C166 1.380 . S
C169 C167 1.392 . S
C169 H179 0.929 . S
C170 O150 1.266 . S
C170 O151 1.248 . S
C171 Tb107 2.802 . S
C171 O146 1.264 . S
C171 O149 1.256 . S
C171 C164 1.496 . S
H172 C155 0.929 . S
H173 C156 0.929 . S
H174 C157 0.929 . S
H175 C158 0.964 . S
H176 C166 0.929 . S
H177 C167 0.929 . S
H178 C168 0.885 1_655 S
H179 C169 0.929 . S
Tb180 N209 2.617 . S
Tb180 N215 2.572 . S
Tb180 O224 2.465 . S
Tb180 O225 2.387 . S
Tb180 O227 2.428 . S
Tb180 O228 2.308 . S
Tb180 O232 2.349 1_545 S
Tb180 O235 2.393 . S
Tb180 C244 2.802 . S
C181 N182 1.379 . S
C181 C184 1.416 . S
C181 C188 1.424 . S
N182 C181 1.379 . S
N182 C185 1.334 . S
N182 Tb191 2.617 . S
C183 C185 1.390 . S
C183 C186 1.339 . S
C183 H203 0.930 . S
C184 C181 1.416 . S
C184 C186 1.416 . S
C184 C190 1.448 . S
C185 N182 1.334 . S
C185 C183 1.390 . S
C185 H196 0.930 . S
C186 C183 1.339 . S
C186 C184 1.416 . S
C186 H207 0.930 . S
C187 C188 1.413 . S
C187 C189 1.427 . S
C187 C193 1.416 . S
C188 C181 1.424 . S
C188 C187 1.413 . S
C188 N192 1.361 . S
C189 C187 1.427 . S
C189 C190 1.328 . S
C189 H204 0.929 . S
C190 C184 1.448 . S
C190 C189 1.328 . S
C190 H205 0.930 . S
Tb191 N182 2.617 . S
Tb191 N192 2.572 . S
Tb191 O226 2.349 1_565 S
Tb191 O229 2.393 . S
Tb191 O230 2.470 . S
Tb191 O231 2.387 . S
Tb191 O233 2.428 . S
Tb191 O234 2.308 1_565 S
Tb191 C255 2.802 . S
N192 C188 1.361 . S
N192 Tb191 2.572 . S
N192 C194 1.340 . S
C193 C187 1.416 . S
C193 C195 1.332 . S
C193 H201 0.931 . S
C194 N192 1.340 . S
C194 C195 1.407 . S
C194 H200 0.930 . S
C195 C193 1.332 . S
C195 C194 1.407 . S
C195 H197 0.929 . S
H196 C185 0.930 . S
H197 C195 0.929 . S
H198 C213 0.930 . S
H199 C220 0.929 . S
H200 C194 0.930 . S
H201 C193 0.931 . S
H202 C216 0.930 . S
H203 C183 0.930 . S
H204 C189 0.929 . S
H205 C190 0.930 . S
H206 C211 0.930 . S
H207 C186 0.930 . S
H208 C219 0.931 . S
N209 Tb180 2.617 . S
N209 C210 1.379 . S
N209 C213 1.334 . S
C210 N209 1.379 . S
C210 C212 1.416 . S
C210 C218 1.424 . S
C211 H206 0.930 . S
C211 C213 1.390 . S
C211 C214 1.339 . S
C212 C210 1.416 . S
C212 C214 1.416 . S
C212 C245 1.448 . S
C213 H198 0.930 . S
C213 N209 1.334 . S
C213 C211 1.390 . S
C214 C211 1.339 . S
C214 C212 1.416 . S
C214 H221 0.930 . S
N215 Tb180 2.572 . S
N215 C216 1.340 . S
N215 C218 1.361 . S
C216 H202 0.930 . S
C216 N215 1.340 . S
C216 C220 1.407 . S
C217 C218 1.413 . S
C217 C219 1.416 . S
C217 C246 1.427 . S
C218 C210 1.424 . S
C218 N215 1.361 . S
C218 C217 1.413 . S
C219 H208 0.931 . S
C219 C217 1.416 . S
C219 C220 1.332 . S
C220 H199 0.929 . S
C220 C216 1.407 . S
C220 C219 1.332 . S
H221 C214 0.930 . S
H222 C245 0.930 . S
H223 C246 0.929 . S
O224 Tb180 2.465 . S
O224 C244 1.264 . S
O225 Tb180 2.387 . S
O225 C236 1.264 . S
O226 Tb191 2.349 1_545 S
O226 C236 1.243 . S
O227 Tb180 2.428 . S
O227 C244 1.256 . S
O228 Tb180 2.308 . S
O228 C243 1.266 . S
O229 Tb191 2.393 . S
O229 C243 1.248 1_565 S
O230 Tb191 2.470 . S
O230 C255 1.267 . S
O231 Tb191 2.387 . S
O231 C247 1.264 . S
O232 Tb180 2.349 1_565 S
O232 C247 1.243 . S
O233 Tb191 2.428 . S
O233 C255 1.256 . S
O234 Tb191 2.308 1_545 S
O234 C254 1.266 . S
O235 Tb180 2.393 . S
O235 C254 1.248 . S
C236 O225 1.264 . S
C236 O226 1.243 . S
C237 C240 1.399 . S
C237 C242 1.383 . S
C237 C244 1.496 . S
C238 C239 1.399 . S
C238 C242 1.389 . S
C239 C238 1.399 . S
C239 C241 1.380 . S
C239 H256 0.929 . S
C240 C237 1.399 . S
C240 C241 1.392 . S
C240 H257 0.929 . S
C241 C239 1.380 . S
C241 C240 1.392 . S
C241 H258 0.929 1_556 S
C242 C237 1.383 . S
C242 C238 1.389 . S
C242 H259 0.931 . S
C243 O228 1.266 . S
C243 O229 1.248 1_545 S
C244 Tb180 2.802 . S
C244 O224 1.264 . S
C244 O227 1.256 . S
C244 C237 1.496 . S
C245 C212 1.448 . S
C245 H222 0.930 . S
C245 C246 1.328 . S
C246 C217 1.427 . S
C246 H223 0.929 . S
C246 C245 1.328 . S
C247 O231 1.264 . S
C247 O232 1.243 . S
C248 C251 1.403 . S
C248 C252 1.378 1_565 S
C248 C255 1.498 . S
C249 C250 1.399 . S
C249 C252 1.389 . S
C250 C249 1.399 . S
C250 C253 1.380 1_545 S
C250 H260 0.929 . S
C251 C248 1.403 . S
C251 C253 1.392 . S
C251 H261 0.929 . S
C252 C248 1.378 1_545 S
C252 C249 1.389 . S
C252 H262 0.931 . S
C253 C250 1.380 1_565 S
C253 C251 1.392 . S
C253 H263 0.929 . S
C254 O234 1.266 . S
C254 O235 1.248 . S
C255 Tb191 2.802 . S
C255 O230 1.267 . S
C255 O233 1.256 . S
C255 C248 1.498 . S
H256 C239 0.929 . S
H257 C240 0.929 . S
H258 C241 0.929 1_554 S
H259 C242 0.931 . S
H260 C250 0.929 . S
H261 C251 0.929 . S
H262 C252 0.931 . S
H263 C253 0.929 . S
Tb264 N293 2.617 . S
Tb264 N299 2.572 . S
Tb264 O308 2.465 . S
Tb264 O309 2.387 . S
Tb264 O311 2.428 . S
Tb264 O312 2.308 . S
Tb264 O316 2.349 . S
Tb264 O319 2.393 . S
Tb264 C328 2.802 . S
C265 N266 1.379 . S
C265 C268 1.416 . S
C265 C272 1.424 . S
N266 C265 1.379 . S
N266 C269 1.334 . S
N266 Tb275 2.617 . S
C267 C269 1.390 . S
C267 C270 1.339 . S
C267 H287 0.930 . S
C268 C265 1.416 . S
C268 C270 1.416 . S
C268 C274 1.448 . S
C269 N266 1.334 . S
C269 C267 1.390 . S
C269 H280 0.930 . S
C270 C267 1.339 . S
C270 C268 1.416 . S
C270 H291 0.930 . S
C271 C272 1.413 . S
C271 C273 1.427 . S
C271 C277 1.416 . S
C272 C265 1.424 . S
C272 C271 1.413 . S
C272 N276 1.361 . S
C273 C271 1.427 . S
C273 C274 1.328 . S
C273 H288 0.929 . S
C274 C268 1.448 . S
C274 C273 1.328 . S
C274 H289 0.930 . S
Tb275 N266 2.617 . S
Tb275 N276 2.572 . S
Tb275 O310 2.349 . S
Tb275 O313 2.393 . S
Tb275 O314 2.465 . S
Tb275 O315 2.387 . S
Tb275 O317 2.428 . S
Tb275 O318 2.308 . S
Tb275 C339 2.802 . S
N276 C272 1.361 . S
N276 Tb275 2.572 . S
N276 C278 1.340 . S
C277 C271 1.416 . S
C277 C279 1.332 . S
C277 H285 0.931 . S
C278 N276 1.340 . S
C278 C279 1.407 . S
C278 H284 0.930 . S
C279 C277 1.332 . S
C279 C278 1.407 . S
C279 H281 0.929 . S
H280 C269 0.930 . S
H281 C279 0.929 . S
H282 C297 0.930 . S
H283 C304 0.929 . S
H284 C278 0.930 . S
H285 C277 0.931 . S
H286 C300 0.930 . S
H287 C267 0.930 . S
H288 C273 0.929 . S
H289 C274 0.930 . S
H290 C295 0.930 . S
H291 C270 0.930 . S
H292 C303 0.931 . S
N293 Tb264 2.617 . S
N293 C294 1.379 . S
N293 C297 1.334 . S
C294 N293 1.379 . S
C294 C296 1.416 . S
C294 C302 1.424 . S
C295 H290 0.930 . S
C295 C297 1.390 . S
C295 C298 1.339 . S
C296 C294 1.416 . S
C296 C298 1.416 . S
C296 C329 1.448 . S
C297 H282 0.930 . S
C297 N293 1.334 . S
C297 C295 1.390 . S
C298 C295 1.339 . S
C298 C296 1.416 . S
C298 H305 0.930 . S
N299 Tb264 2.572 . S
N299 C300 1.340 . S
N299 C302 1.361 . S
C300 H286 0.930 . S
C300 N299 1.340 . S
C300 C304 1.407 . S
C301 C302 1.413 . S
C301 C303 1.416 . S
C301 C330 1.427 . S
C302 C294 1.424 . S
C302 N299 1.361 . S
C302 C301 1.413 . S
C303 H292 0.931 . S
C303 C301 1.416 . S
C303 C304 1.332 . S
C304 H283 0.929 . S
C304 C300 1.407 . S
C304 C303 1.332 . S
H305 C298 0.930 . S
H306 C329 0.930 . S
H307 C330 0.929 . S
O308 Tb264 2.465 . S
O308 C328 1.264 . S
O309 Tb264 2.387 . S
O309 C320 1.264 . S
O310 Tb275 2.349 . S
O310 C320 1.243 . S
O311 Tb264 2.428 . S
O311 C328 1.256 . S
O312 Tb264 2.308 . S
O312 C327 1.266 . S
O313 Tb275 2.393 . S
O313 C327 1.248 . S
O314 Tb275 2.465 . S
O314 C339 1.264 . S
O315 Tb275 2.387 . S
O315 C331 1.264 . S
O316 Tb264 2.349 . S
O316 C331 1.243 . S
O317 Tb275 2.428 . S
O317 C339 1.256 . S
O318 Tb275 2.308 . S
O318 C338 1.266 . S
O319 Tb264 2.393 . S
O319 C338 1.248 . S
C320 O309 1.264 . S
C320 O310 1.243 . S
C321 C324 1.399 . S
C321 C326 1.383 . S
C321 C328 1.496 . S
C322 C323 1.399 . S
C322 C326 1.389 . S
C323 C322 1.399 . S
C323 C325 1.380 . S
C323 H340 0.929 . S
C324 C321 1.399 . S
C324 C325 1.392 . S
C324 H341 0.929 . S
C325 C323 1.380 . S
C325 C324 1.392 . S
C325 H342 0.929 . S
C326 C321 1.383 . S
C326 C322 1.389 . S
C326 H343 0.931 . S
C327 O312 1.266 . S
C327 O313 1.248 . S
C328 Tb264 2.802 . S
C328 O308 1.264 . S
C328 O311 1.256 . S
C328 C321 1.496 . S
C329 C296 1.448 . S
C329 H306 0.930 . S
C329 C330 1.328 . S
C330 C301 1.427 . S
C330 H307 0.929 . S
C330 C329 1.328 . S
C331 O315 1.264 . S
C331 O316 1.243 . S
C332 C335 1.399 . S
C332 C336 1.383 . S
C332 C339 1.496 . S
C333 C334 1.399 . S
C333 C336 1.389 . S
C334 C333 1.399 . S
C334 C337 1.380 . S
C334 H344 0.929 . S
C335 C332 1.399 . S
C335 C337 1.392 . S
C335 H345 0.929 . S
C336 C332 1.383 . S
C336 C333 1.389 . S
C336 H346 0.931 . S
C337 C334 1.380 . S
C337 C335 1.392 . S
C337 H347 0.929 . S
C338 O318 1.266 . S
C338 O319 1.248 . S
C339 Tb275 2.802 . S
C339 O314 1.264 . S
C339 O317 1.256 . S
C339 C332 1.496 . S
H340 C323 0.929 . S
H341 C324 0.929 . S
H342 C325 0.929 . S
H343 C326 0.931 . S
H344 C334 0.929 . S
H345 C335 0.929 . S
H346 C336 0.931 . S
H347 C337 0.929 . S
Tb348 N377 2.617 . S
Tb348 N383 2.572 . S
Tb348 O392 2.465 . S
Tb348 O393 2.387 1_455 S
Tb348 O395 2.428 . S
Tb348 O396 2.308 . S
Tb348 O400 2.349 . S
Tb348 O403 2.393 . S
Tb348 C412 2.802 . S
C349 N350 1.366 1_455 S
C349 C352 1.416 . S
C349 C356 1.424 . S
N350 C349 1.366 1_655 S
N350 C353 1.338 . S
N350 Tb359 2.624 . S
C351 C353 1.390 1_455 S
C351 C354 1.339 . S
C351 H371 0.930 . S
C352 C349 1.416 . S
C352 C354 1.416 . S
C352 C358 1.448 . S
C353 N350 1.338 . S
C353 C351 1.390 1_655 S
C353 H364 0.930 . S
C354 C351 1.339 . S
C354 C352 1.416 . S
C354 H375 0.930 . S
C355 C356 1.413 . S
C355 C357 1.427 . S
C355 C361 1.416 . S
C356 C349 1.424 . S
C356 C355 1.413 . S
C356 N360 1.361 . S
C357 C355 1.427 . S
C357 C358 1.328 . S
C357 H372 0.929 . S
C358 C352 1.448 . S
C358 C357 1.328 . S
C358 H373 0.930 . S
Tb359 N350 2.624 . S
Tb359 N360 2.572 1_655 S
Tb359 O394 2.349 . S
Tb359 O397 2.393 . S
Tb359 O398 2.465 . S
Tb359 O399 2.387 1_655 S
Tb359 O401 2.428 . S
Tb359 O402 2.293 1_655 S
Tb359 C423 2.802 . S
N360 C356 1.361 . S
N360 Tb359 2.572 1_455 S
N360 C362 1.340 . S
C361 C355 1.416 . S
C361 C363 1.332 . S
C361 H369 0.931 . S
C362 N360 1.340 . S
C362 C363 1.407 . S
C362 H368 0.944 . S
C363 C361 1.332 . S
C363 C362 1.407 . S
C363 H365 0.929 . S
H364 C353 0.930 . S
H365 C363 0.929 . S
H366 C381 0.930 . S
H367 C388 0.929 . S
H368 C362 0.944 . S
H369 C361 0.931 . S
H370 C384 0.930 . S
H371 C351 0.930 . S
H372 C357 0.929 . S
H373 C358 0.930 . S
H374 C379 0.930 . S
H375 C354 0.930 . S
H376 C387 0.931 . S
N377 Tb348 2.617 . S
N377 C378 1.379 . S
N377 C381 1.334 . S
C378 N377 1.379 . S
C378 C380 1.416 1_455 S
C378 C386 1.424 . S
C379 H374 0.930 . S
C379 C381 1.390 . S
C379 C382 1.339 1_455 S
C380 C378 1.416 1_655 S
C380 C382 1.416 . S
C380 C413 1.448 . S
C381 H366 0.930 . S
C381 N377 1.334 . S
C381 C379 1.390 . S
C382 C379 1.339 1_655 S
C382 C380 1.416 . S
C382 H389 0.930 . S
N383 Tb348 2.572 . S
N383 C384 1.340 . S
N383 C386 1.361 . S
C384 H370 0.930 . S
C384 N383 1.340 . S
C384 C388 1.407 1_455 S
C385 C386 1.413 1_655 S
C385 C387 1.416 . S
C385 C414 1.427 . S
C386 C378 1.424 . S
C386 N383 1.361 . S
C386 C385 1.413 1_455 S
C387 H376 0.931 . S
C387 C385 1.416 . S
C387 C388 1.332 . S
C388 H367 0.929 . S
C388 C384 1.407 1_655 S
C388 C387 1.332 . S
H389 C382 0.930 . S
H390 C413 0.930 . S
H391 C414 0.929 . S
O392 Tb348 2.465 . S
O392 C412 1.264 . S
O393 Tb348 2.387 1_655 S
O393 C404 1.264 . S
O394 Tb359 2.349 . S
O394 C404 1.243 . S
O395 Tb348 2.428 . S
O395 C412 1.256 . S
O396 Tb348 2.308 . S
O396 C411 1.266 . S
O397 Tb359 2.393 . S
O397 C411 1.248 1_655 S
O398 Tb359 2.465 . S
O398 C423 1.264 . S
O399 Tb359 2.387 1_455 S
O399 C415 1.264 . S
O400 Tb348 2.349 . S
O400 C415 1.243 . S
O401 Tb359 2.428 . S
O401 C423 1.256 . S
O402 Tb359 2.293 1_455 S
O402 C422 1.280 . S
O403 Tb348 2.393 . S
O403 C422 1.248 . S
C404 O393 1.264 . S
C404 O394 1.243 . S
C405 C408 1.399 . S
C405 C410 1.383 . S
C405 C412 1.496 . S
C406 C407 1.399 . S
C406 C410 1.389 . S
C407 C406 1.399 . S
C407 C409 1.380 . S
C407 H424 0.929 . S
C408 C405 1.399 . S
C408 C409 1.392 . S
C408 H425 0.929 . S
C409 C407 1.380 . S
C409 C408 1.392 . S
C409 H426 0.929 . S
C410 C405 1.383 . S
C410 C406 1.389 . S
C410 H427 0.931 . S
C411 O396 1.266 . S
C411 O397 1.248 1_455 S
C412 Tb348 2.802 . S
C412 O392 1.264 . S
C412 O395 1.256 . S
C412 C405 1.496 . S
C413 C380 1.448 . S
C413 H390 0.930 . S
C413 C414 1.328 . S
C414 C385 1.427 . S
C414 H391 0.929 . S
C414 C413 1.328 . S
C415 O399 1.264 . S
C415 O400 1.243 . S
C416 C419 1.399 . S
C416 C420 1.383 . S
C416 C423 1.496 . S
C417 C418 1.399 . S
C417 C420 1.389 . S
C418 C417 1.399 . S
C418 C421 1.380 . S
C418 H428 0.929 . S
C419 C416 1.399 . S
C419 C421 1.392 . S
C419 H429 0.929 . S
C420 C416 1.383 . S
C420 C417 1.389 . S
C420 H430 0.931 . S
C421 C418 1.380 . S
C421 C419 1.392 . S
C421 H431 0.929 . S
C422 O402 1.280 . S
C422 O403 1.248 . S
C423 Tb359 2.802 . S
C423 O398 1.264 . S
C423 O401 1.256 . S
C423 C416 1.496 . S
H424 C407 0.929 . S
H425 C408 0.929 . S
H426 C409 0.929 . S
H427 C410 0.931 . S
H428 C418 0.929 . S
H429 C419 0.929 . S
H430 C420 0.931 . S
H431 C421 0.929 . S
C432 C433 1.349 . S
C432 C434 1.327 . S
C432 H457 0.950 . S
C433 C432 1.349 . S
C433 C449 1.349 . S
C434 C432 1.327 . S
C434 C453 1.429 . S
C434 H458 0.950 . S
C435 C452 1.574 . S
C435 C454 1.368 . S
C435 H459 0.949 . S
H436 C440 0.949 1_565 S
C437 C438 1.349 . S
C437 C439 1.327 . S
C437 H460 0.950 . S
C438 C437 1.349 . S
C438 C450 1.349 . S
C439 C437 1.327 . S
C439 C455 1.429 . S
C439 H461 0.950 . S
C440 H436 0.949 1_545 S
C440 C448 1.574 . S
C440 C456 1.368 . S
H441 C449 0.950 . S
H442 C447 0.950 . S
H443 C448 0.949 . S
H444 C450 0.950 1_565 S
H445 C451 0.950 1_565 S
H446 C452 0.949 . S
C447 H442 0.950 . S
C447 C449 1.327 . S
C447 C453 1.429 . S
C448 C440 1.574 . S
C448 H443 0.949 . S
C448 C454 1.368 . S
C449 C433 1.349 . S
C449 H441 0.950 . S
C449 C447 1.327 . S
C450 C438 1.349 . S
C450 H444 0.950 1_545 S
C450 C451 1.327 . S
C451 H445 0.950 1_545 S
C451 C450 1.327 . S
C451 C455 1.429 . S
C452 C435 1.574 . S
C452 H446 0.949 . S
C452 C456 1.368 . S
C453 C434 1.429 . S
C453 C447 1.429 . S
C453 C454 1.523 . S
C454 C435 1.368 . S
C454 C448 1.368 . S
C454 C453 1.523 . S
C455 C439 1.429 . S
C455 C451 1.429 . S
C455 C456 1.523 . S
C456 C440 1.368 . S
C456 C452 1.368 . S
C456 C455 1.523 . S
H457 C432 0.950 . S
H458 C434 0.950 . S
H459 C435 0.949 . S
H460 C437 0.950 . S
H461 C439 0.950 . S
C462 C463 1.349 . S
C462 C464 1.327 . S
C462 H487 0.950 . S
C463 C462 1.349 . S
C463 C479 1.349 . S
C464 C462 1.327 . S
C464 C483 1.429 . S
C464 H488 0.950 . S
C465 C482 1.574 . S
C465 C484 1.368 . S
C465 H489 0.949 . S
H466 C470 0.949 . S
C467 C468 1.349 . S
C467 C469 1.327 . S
C467 H490 0.950 . S
C468 C467 1.349 . S
C468 C480 1.349 . S
C469 C467 1.327 . S
C469 C485 1.429 . S
C469 H491 0.950 . S
C470 H466 0.949 . S
C470 C478 1.574 . S
C470 C486 1.368 . S
H471 C479 0.950 . S
H472 C477 0.950 . S
H473 C478 0.949 . S
H474 C480 0.950 . S
H475 C481 0.950 . S
H476 C482 0.949 . S
C477 H472 0.950 . S
C477 C479 1.327 . S
C477 C483 1.429 . S
C478 C470 1.574 . S
C478 H473 0.949 . S
C478 C484 1.368 . S
C479 C463 1.349 . S
C479 H471 0.950 . S
C479 C477 1.327 . S
C480 C468 1.349 . S
C480 H474 0.950 . S
C480 C481 1.327 . S
C481 H475 0.950 . S
C481 C480 1.327 . S
C481 C485 1.429 . S
C482 C465 1.574 . S
C482 H476 0.949 . S
C482 C486 1.368 . S
C483 C464 1.429 . S
C483 C477 1.429 . S
C483 C484 1.523 . S
C484 C465 1.368 . S
C484 C478 1.368 . S
C484 C483 1.523 . S
C485 C469 1.429 . S
C485 C481 1.429 . S
C485 C486 1.523 . S
C486 C470 1.368 . S
C486 C482 1.368 . S
C486 C485 1.523 . S
H487 C462 0.950 . S
H488 C464 0.950 . S
H489 C465 0.949 . S
H490 C467 0.950 . S
H491 C469 0.950 . S
C492 C493 1.349 . S
C492 C494 1.327 . S
C492 H517 0.950 . S
C493 C492 1.349 . S
C493 C509 1.349 . S
C494 C492 1.327 . S
C494 C513 1.429 . S
C494 H518 0.950 . S
C495 C512 1.574 . S
C495 C514 1.368 . S
C495 H519 0.949 . S
H496 C500 0.949 . S
C497 C498 1.349 . S
C497 C499 1.327 . S
C497 H520 0.950 . S
C498 C497 1.349 . S
C498 C510 1.349 . S
C499 C497 1.327 . S
C499 C515 1.429 . S
C499 H521 0.950 . S
C500 H496 0.949 . S
C500 C508 1.574 . S
C500 C516 1.368 . S
H501 C509 0.950 . S
H502 C507 0.950 . S
H503 C508 0.949 . S
H504 C510 0.950 . S
H505 C511 0.950 . S
H506 C512 0.949 . S
C507 H502 0.950 . S
C507 C509 1.327 . S
C507 C513 1.429 . S
C508 C500 1.574 . S
C508 H503 0.949 . S
C508 C514 1.368 . S
C509 C493 1.349 . S
C509 H501 0.950 . S
C509 C507 1.327 . S
C510 C498 1.349 . S
C510 H504 0.950 . S
C510 C511 1.327 . S
C511 H505 0.950 . S
C511 C510 1.327 . S
C511 C515 1.429 . S
C512 C495 1.574 . S
C512 H506 0.949 . S
C512 C516 1.368 . S
C513 C494 1.429 . S
C513 C507 1.429 . S
C513 C514 1.523 . S
C514 C495 1.368 . S
C514 C508 1.368 . S
C514 C513 1.523 . S
C515 C499 1.429 . S
C515 C511 1.429 . S
C515 C516 1.523 . S
C516 C500 1.368 . S
C516 C512 1.368 . S
C516 C515 1.523 . S
H517 C492 0.950 . S
H518 C494 0.950 . S
H519 C495 0.949 . S
H520 C497 0.950 . S
H521 C499 0.950 . S
C522 C523 1.349 . S
C522 C524 1.327 . S
C522 H547 0.950 . S
C523 C522 1.349 . S
C523 C539 1.349 . S
C524 C522 1.327 . S
C524 C543 1.429 . S
C524 H548 0.950 . S
C525 C542 1.574 . S
C525 C544 1.368 . S
C525 H549 0.949 . S
H526 C530 0.949 . S
C527 C528 1.349 . S
C527 C529 1.327 . S
C527 H550 0.950 . S
C528 C527 1.349 . S
C528 C540 1.349 . S
C529 C527 1.327 . S
C529 C545 1.429 . S
C529 H551 0.950 . S
C530 H526 0.949 . S
C530 C538 1.574 . S
C530 C546 1.368 . S
H531 C539 0.950 . S
H532 C537 0.950 . S
H533 C538 0.949 . S
H534 C540 0.950 . S
H535 C541 0.950 . S
H536 C542 0.949 . S
C537 H532 0.950 . S
C537 C539 1.327 . S
C537 C543 1.429 . S
C538 C530 1.574 . S
C538 H533 0.949 . S
C538 C544 1.368 . S
C539 C523 1.349 . S
C539 H531 0.950 . S
C539 C537 1.327 . S
C540 C528 1.349 . S
C540 H534 0.950 . S
C540 C541 1.327 . S
C541 H535 0.950 . S
C541 C540 1.327 . S
C541 C545 1.429 . S
C542 C525 1.574 . S
C542 H536 0.949 . S
C542 C546 1.368 . S
C543 C524 1.429 . S
C543 C537 1.429 . S
C543 C544 1.523 . S
C544 C525 1.368 . S
C544 C538 1.368 . S
C544 C543 1.523 . S
C545 C529 1.429 . S
C545 C541 1.429 . S
C545 C546 1.523 . S
C546 C530 1.368 . S
C546 C542 1.368 . S
C546 C545 1.523 . S
H547 C522 0.950 . S
H548 C524 0.950 . S
H549 C525 0.949 . S
H550 C527 0.950 . S
H551 C529 0.950 . S
C552 C553 1.349 . S
C552 C554 1.327 . S
C552 H577 0.950 . S
C553 C552 1.349 . S
C553 C569 1.349 . S
C554 C552 1.327 . S
C554 C573 1.429 . S
C554 H578 0.950 1_554 S
C555 C572 1.574 1_554 S
C555 C574 1.368 . S
C555 H579 0.949 . S
H556 C560 0.949 . S
C557 C558 1.349 . S
C557 C559 1.327 1_545 S
C557 H580 0.950 . S
C558 C557 1.349 . S
C558 C570 1.347 1_545 S
C559 C557 1.327 1_565 S
C559 C575 1.429 . S
C559 H581 0.951 . S
C560 H556 0.949 . S
C560 C568 1.574 . S
C560 C576 1.368 . S
H561 C569 0.950 . S
H562 C567 0.950 . S
H563 C568 0.949 . S
H564 C570 0.950 . S
H565 C571 0.950 . S
H566 C572 0.949 . S
C567 H562 0.950 . S
C567 C569 1.327 . S
C567 C573 1.429 . S
C568 C560 1.574 . S
C568 H563 0.949 . S
C568 C574 1.368 1_556 S
C569 C553 1.349 . S
C569 H561 0.950 . S
C569 C567 1.327 . S
C570 C558 1.347 1_565 S
C570 H564 0.950 . S
C570 C571 1.327 . S
C571 H565 0.950 . S
C571 C570 1.327 . S
C571 C575 1.429 . S
C572 C555 1.574 1_556 S
C572 H566 0.949 . S
C572 C576 1.368 . S
C573 C554 1.429 . S
C573 C567 1.429 . S
C573 C574 1.523 . S
C574 C555 1.368 . S
C574 C568 1.368 1_554 S
C574 C573 1.523 . S
C575 C559 1.429 . S
C575 C571 1.429 . S
C575 C576 1.523 . S
C576 C560 1.368 . S
C576 C572 1.368 . S
C576 C575 1.523 . S
H577 C552 0.950 . S
H578 C554 0.950 1_556 S
H579 C555 0.949 . S
H580 C557 0.950 . S
H581 C559 0.951 . S
C582 C583 1.349 . S
C582 C584 1.327 . S
C582 H607 0.950 . S
C583 C582 1.349 . S
C583 C599 1.349 . S
C584 C582 1.327 . S
C584 C603 1.429 . S
C584 H608 0.950 . S
C585 C602 1.574 . S
C585 C604 1.368 1_556 S
C585 H609 0.949 1_556 S
H586 C590 0.949 . S
C587 C588 1.349 . S
C587 C589 1.327 . S
C587 H610 0.950 . S
C588 C587 1.349 . S
C588 C600 1.349 . S
C589 C587 1.327 . S
C589 C605 1.429 . S
C589 H611 0.950 . S
C590 H586 0.949 . S
C590 C598 1.574 . S
C590 C606 1.368 . S
H591 C599 0.950 . S
H592 C597 0.950 . S
H593 C598 0.949 1_554 S
H594 C600 0.950 . S
H595 C601 0.950 . S
H596 C602 0.949 . S
C597 H592 0.950 . S
C597 C599 1.327 . S
C597 C603 1.429 . S
C598 C590 1.574 . S
C598 H593 0.949 1_556 S
C598 C604 1.368 1_556 S
C599 C583 1.349 . S
C599 H591 0.950 . S
C599 C597 1.327 . S
C600 C588 1.349 . S
C600 H594 0.950 . S
C600 C601 1.327 . S
C601 H595 0.950 . S
C601 C600 1.327 . S
C601 C605 1.429 . S
C602 C585 1.574 . S
C602 H596 0.949 . S
C602 C606 1.368 . S
C603 C584 1.429 . S
C603 C597 1.429 . S
C603 C604 1.523 . S
C604 C585 1.368 1_554 S
C604 C598 1.368 1_554 S
C604 C603 1.523 . S
C605 C589 1.429 . S
C605 C601 1.429 . S
C605 C606 1.523 . S
C606 C590 1.368 . S
C606 C602 1.368 . S
C606 C605 1.523 . S
H607 C582 0.950 . S
H608 C584 0.950 . S
H609 C585 0.949 1_554 S
H610 C587 0.950 . S
H611 C589 0.950 . S
C612 C613 1.349 . S
C612 C614 1.327 . S
C612 H637 0.950 . S
C613 C612 1.349 . S
C613 C629 1.349 . S
C614 C612 1.327 . S
C614 C633 1.429 . S
C614 H638 0.950 . S
C615 C632 1.574 . S
C615 C634 1.368 1_556 S
C615 H639 0.949 . S
H616 C620 0.949 . S
C617 C618 1.349 . S
C617 C619 1.327 . S
C617 H640 0.950 . S
C618 C617 1.349 . S
C618 C630 1.349 . S
C619 C617 1.327 . S
C619 C635 1.429 . S
C619 H641 0.950 . S
C620 H616 0.949 . S
C620 C628 1.574 1_556 S
C620 C636 1.368 . S
H621 C629 0.950 . S
H622 C627 0.950 . S
H623 C628 0.949 . S
H624 C630 0.950 . S
H625 C631 0.950 . S
H626 C632 0.949 . S
C627 H622 0.950 . S
C627 C629 1.327 . S
C627 C633 1.429 . S
C628 C620 1.574 1_554 S
C628 H623 0.949 . S
C628 C634 1.368 . S
C629 C613 1.349 . S
C629 H621 0.950 . S
C629 C627 1.327 . S
C630 C618 1.349 . S
C630 H624 0.950 . S
C630 C631 1.327 . S
C631 H625 0.950 . S
C631 C630 1.327 . S
C631 C635 1.429 . S
C632 C615 1.574 . S
C632 H626 0.949 . S
C632 C636 1.368 . S
C633 C614 1.429 . S
C633 C627 1.429 . S
C633 C634 1.523 . S
C634 C615 1.368 1_554 S
C634 C628 1.368 . S
C634 C633 1.523 . S
C635 C619 1.429 . S
C635 C631 1.429 . S
C635 C636 1.523 . S
C636 C620 1.368 . S
C636 C632 1.368 . S
C636 C635 1.523 . S
H637 C612 0.950 . S
H638 C614 0.950 . S
H639 C615 0.949 . S
H640 C617 0.950 . S
H641 C619 0.950 . S
C642 C643 1.349 . S
C642 C644 1.327 . S
C642 H667 0.950 . S
C643 C642 1.349 . S
C643 C659 1.349 . S
C644 C642 1.327 . S
C644 C663 1.429 . S
C644 H668 0.950 . S
C645 C662 1.574 1_655 S
C645 C664 1.368 1_556 S
C645 H669 0.949 1_655 S
H646 C650 0.949 . S
C647 C648 1.349 1_455 S
C647 C649 1.327 . S
C647 H670 0.950 . S
C648 C647 1.349 1_655 S
C648 C660 1.349 . S
C649 C647 1.327 . S
C649 C665 1.429 1_455 S
C649 H671 0.950 . S
C650 H646 0.949 . S
C650 C658 1.574 1_556 S
C650 C666 1.368 . S
H651 C659 0.950 . S
H652 C657 0.916 1_455 S
H653 C658 0.949 . S
H654 C660 0.950 . S
H655 C661 0.950 . S
H656 C662 0.949 . S
C657 H652 0.916 1_655 S
C657 C659 1.327 . S
C657 C663 1.429 . S
C658 C650 1.574 1_554 S
C658 H653 0.949 . S
C658 C664 1.368 . S
C659 C643 1.349 . S
C659 H651 0.950 . S
C659 C657 1.327 . S
C660 C648 1.349 . S
C660 H654 0.950 . S
C660 C661 1.327 . S
C661 H655 0.950 . S
C661 C660 1.327 . S
C661 C665 1.429 . S
C662 C645 1.574 1_455 S
C662 H656 0.949 . S
C662 C666 1.368 1_455 S
C663 C644 1.429 . S
C663 C657 1.429 . S
C663 C664 1.523 . S
C664 C645 1.368 1_554 S
C664 C658 1.368 . S
C664 C663 1.523 . S
C665 C649 1.429 1_655 S
C665 C661 1.429 . S
C665 C666 1.523 . S
C666 C650 1.368 . S
C666 C662 1.368 1_655 S
C666 C665 1.523 . S
H667 C642 0.950 . S
H668 C644 0.950 . S
H669 C645 0.949 1_455 S
H670 C647 0.950 . S
H671 C649 0.950 . S
C672 C673 1.349 . S
C672 C674 1.327 . S
C672 H697 0.950 . S
C673 C672 1.349 . S
C673 C689 1.349 . S
C674 C672 1.327 . S
C674 C693 1.429 . S
C674 H698 0.950 . S
C675 C692 1.574 . S
C675 C694 1.368 . S
C675 H699 0.949 . S
H676 C680 0.949 . S
C677 C678 1.349 . S
C677 C679 1.327 . S
C677 H700 0.950 . S
C678 C677 1.349 . S
C678 C690 1.338 1_455 S
C679 C677 1.327 . S
C679 C695 1.429 . S
C679 H701 0.950 . S
C680 H676 0.949 . S
C680 C688 1.574 . S
C680 C696 1.368 . S
H681 C689 0.950 . S
H682 C687 0.950 . S
H683 C688 0.949 . S
H684 C690 0.968 . S
H685 C691 0.950 1_655 S
H686 C692 0.949 . S
C687 H682 0.950 . S
C687 C689 1.327 . S
C687 C693 1.429 . S
C688 C680 1.574 . S
C688 H683 0.949 . S
C688 C694 1.368 . S
C689 C673 1.349 . S
C689 H681 0.950 . S
C689 C687 1.327 . S
C690 C678 1.338 1_655 S
C690 H684 0.968 . S
C690 C691 1.322 1_655 S
C691 H685 0.950 1_455 S
C691 C690 1.322 1_455 S
C691 C695 1.429 . S
C692 C675 1.574 . S
C692 H686 0.949 . S
C692 C696 1.368 . S
C693 C674 1.429 . S
C693 C687 1.429 . S
C693 C694 1.523 . S
C694 C675 1.368 . S
C694 C688 1.368 . S
C694 C693 1.523 . S
C695 C679 1.429 . S
C695 C691 1.429 . S
C695 C696 1.523 . S
C696 C680 1.368 . S
C696 C692 1.368 . S
C696 C695 1.523 . S
H697 C672 0.950 . S
H698 C674 0.950 . S
H699 C675 0.949 . S
H700 C677 0.950 . S
H701 C679 0.950 . S
C702 C703 1.349 . S
C702 C704 1.327 . S
C702 H727 0.950 . S
C703 C702 1.349 . S
C703 C719 1.349 . S
C704 C702 1.327 . S
C704 C723 1.429 . S
C704 H728 0.950 . S
C705 C722 1.574 . S
C705 C724 1.368 . S
C705 H729 0.949 . S
H706 C710 0.949 1_565 S
C707 C708 1.349 . S
C707 C709 1.327 . S
C707 H730 0.950 . S
C708 C707 1.349 . S
C708 C720 1.349 1_545 S
C709 C707 1.327 . S
C709 C725 1.429 . S
C709 H731 0.950 . S
C710 H706 0.949 1_545 S
C710 C718 1.574 . S
C710 C726 1.368 . S
H711 C719 0.950 . S
H712 C717 0.950 . S
H713 C718 0.949 . S
H714 C720 0.950 . S
H715 C721 0.950 1_565 S
H716 C722 0.949 . S
C717 H712 0.950 . S
C717 C719 1.327 . S
C717 C723 1.429 . S
C718 C710 1.574 . S
C718 H713 0.949 . S
C718 C724 1.368 . S
C719 C703 1.349 . S
C719 H711 0.950 . S
C719 C717 1.327 . S
C720 C708 1.349 1_565 S
C720 H714 0.950 . S
C720 C721 1.327 1_565 S
C721 H715 0.950 1_545 S
C721 C720 1.327 1_545 S
C721 C725 1.429 . S
C722 C705 1.574 . S
C722 H716 0.949 . S
C722 C726 1.368 . S
C723 C704 1.429 . S
C723 C717 1.429 . S
C723 C724 1.523 . S
C724 C705 1.368 . S
C724 C718 1.368 . S
C724 C723 1.523 . S
C725 C709 1.429 . S
C725 C721 1.429 . S
C725 C726 1.523 . S
C726 C710 1.368 . S
C726 C722 1.368 . S
C726 C725 1.523 . S
H727 C702 0.950 . S
H728 C704 0.950 . S
H729 C705 0.949 . S
H730 C707 0.950 . S
H731 C709 0.950 . S
C732 C733 1.349 . S
C732 C734 1.327 . S
C732 H757 0.950 . S
C733 C732 1.349 . S
C733 C749 1.349 . S
C734 C732 1.327 . S
C734 C753 1.429 . S
C734 H758 0.950 . S
C735 C752 1.574 . S
C735 C754 1.368 . S
C735 H759 0.949 . S
H736 C740 0.949 . S
C737 C738 1.349 . S
C737 C739 1.327 . S
C737 H760 0.950 . S
C738 C737 1.349 . S
C738 C750 1.349 . S
C739 C737 1.327 . S
C739 C755 1.429 . S
C739 H761 0.950 . S
C740 H736 0.949 . S
C740 C748 1.574 . S
C740 C756 1.368 . S
H741 C749 0.950 . S
H742 C747 0.950 . S
H743 C748 0.949 . S
H744 C750 0.950 . S
H745 C751 0.950 . S
H746 C752 0.949 . S
C747 H742 0.950 . S
C747 C749 1.327 . S
C747 C753 1.429 . S
C748 C740 1.574 . S
C748 H743 0.949 . S
C748 C754 1.368 . S
C749 C733 1.349 . S
C749 H741 0.950 . S
C749 C747 1.327 . S
C750 C738 1.349 . S
C750 H744 0.950 . S
C750 C751 1.327 . S
C751 H745 0.950 . S
C751 C750 1.327 . S
C751 C755 1.429 . S
C752 C735 1.574 . S
C752 H746 0.949 . S
C752 C756 1.368 . S
C753 C734 1.429 . S
C753 C747 1.429 . S
C753 C754 1.523 . S
C754 C735 1.368 . S
C754 C748 1.368 . S
C754 C753 1.523 . S
C755 C739 1.429 . S
C755 C751 1.429 . S
C755 C756 1.523 . S
C756 C740 1.368 . S
C756 C752 1.368 . S
C756 C755 1.523 . S
H757 C732 0.950 . S
H758 C734 0.950 . S
H759 C735 0.949 . S
H760 C737 0.950 . S
H761 C739 0.950 . S
C762 C763 1.349 . S
C762 C764 1.327 . S
C762 H787 0.950 . S
C763 C762 1.349 . S
C763 C779 1.349 . S
C764 C762 1.327 . S
C764 C783 1.429 . S
C764 H788 0.950 . S
C765 C782 1.574 . S
C765 C784 1.368 . S
C765 H789 0.949 . S
H766 C770 0.949 . S
C767 C768 1.349 . S
C767 C769 1.327 . S
C767 H790 0.950 . S
C768 C767 1.349 . S
C768 C780 1.349 . S
C769 C767 1.327 . S
C769 C785 1.429 . S
C769 H791 0.950 . S
C770 H766 0.949 . S
C770 C778 1.574 . S
C770 C786 1.368 . S
H771 C779 0.950 . S
H772 C777 0.950 . S
H773 C778 0.949 . S
H774 C780 0.950 . S
H775 C781 0.950 . S
H776 C782 0.949 . S
C777 H772 0.950 . S
C777 C779 1.327 . S
C777 C783 1.429 . S
C778 C770 1.574 . S
C778 H773 0.949 . S
C778 C784 1.368 . S
C779 C763 1.349 . S
C779 H771 0.950 . S
C779 C777 1.327 . S
C780 C768 1.349 . S
C780 H774 0.950 . S
C780 C781 1.327 . S
C781 H775 0.950 . S
C781 C780 1.327 . S
C781 C785 1.429 . S
C782 C765 1.574 . S
C782 H776 0.949 . S
C782 C786 1.368 . S
C783 C764 1.429 . S
C783 C777 1.429 . S
C783 C784 1.523 . S
C784 C765 1.368 . S
C784 C778 1.368 . S
C784 C783 1.523 . S
C785 C769 1.429 . S
C785 C781 1.429 . S
C785 C786 1.523 . S
C786 C770 1.368 . S
C786 C782 1.368 . S
C786 C785 1.523 . S
H787 C762 0.950 . S
H788 C764 0.950 . S
H789 C765 0.949 . S
H790 C767 0.950 . S
H791 C769 0.950 . S
C792 C793 1.349 . S
C792 C794 1.327 . S
C792 H817 0.950 . S
C793 C792 1.349 . S
C793 C809 1.349 . S
C794 C792 1.327 . S
C794 C813 1.429 . S
C794 H818 0.950 . S
C795 C812 1.574 . S
C795 C814 1.368 1_556 S
C795 H819 0.949 . S
H796 C800 0.956 . S
C797 C798 1.351 . S
C797 C799 1.326 1_455 S
C797 H820 0.947 1_455 S
C798 C797 1.351 . S
C798 C810 1.349 . S
C799 C797 1.326 1_655 S
C799 C815 1.429 . S
C799 H821 0.950 . S
C800 H796 0.956 . S
C800 C808 1.574 . S
C800 C816 1.368 1_554 S
H801 C809 0.950 . S
H802 C807 0.950 . S
H803 C808 0.949 . S
H804 C810 0.950 . S
H805 C811 0.950 1_554 S
H806 C812 0.949 . S
C807 H802 0.950 . S
C807 C809 1.327 . S
C807 C813 1.429 . S
C808 C800 1.574 . S
C808 H803 0.949 . S
C808 C814 1.368 . S
C809 C793 1.349 . S
C809 H801 0.950 . S
C809 C807 1.327 . S
C810 C798 1.349 . S
C810 H804 0.950 . S
C810 C811 1.327 . S
C811 H805 0.950 1_556 S
C811 C810 1.327 . S
C811 C815 1.429 1_455 S
C812 C795 1.574 . S
C812 H806 0.949 . S
C812 C816 1.368 . S
C813 C794 1.429 . S
C813 C807 1.429 . S
C813 C814 1.523 . S
C814 C795 1.368 1_554 S
C814 C808 1.368 . S
C814 C813 1.523 . S
C815 C799 1.429 . S
C815 C811 1.429 1_655 S
C815 C816 1.523 . S
C816 C800 1.368 1_556 S
C816 C812 1.368 . S
C816 C815 1.523 . S
H817 C792 0.950 . S
H818 C794 0.950 . S
H819 C795 0.949 . S
H820 C797 0.947 1_655 S
H821 C799 0.950 . S
C822 C823 1.349 . S
C822 C824 1.327 . S
C822 H847 0.950 1_565 S
C823 C822 1.349 . S
C823 C839 1.349 . S
C824 C822 1.327 . S
C824 C843 1.429 . S
C824 H848 0.950 1_565 S
C825 C842 1.574 1_554 S
C825 C844 1.368 . S
C825 H849 0.949 . S
H826 C830 0.949 . S
C827 C828 1.349 1_565 S
C827 C829 1.327 . S
C827 H850 0.950 . S
C828 C827 1.349 1_545 S
C828 C840 1.349 . S
C829 C827 1.327 . S
C829 C845 1.462 . S
C829 H851 0.950 . S
C830 H826 0.949 . S
C830 C838 1.574 . S
C830 C846 1.368 1_544 S
H831 C839 0.950 . S
H832 C837 0.950 . S
H833 C838 0.949 . S
H834 C840 0.950 . S
H835 C841 0.950 . S
H836 C842 0.949 . S
C837 H832 0.950 . S
C837 C839 1.327 . S
C837 C843 1.429 . S
C838 C830 1.574 . S
C838 H833 0.949 . S
C838 C844 1.368 1_545 S
C839 C823 1.349 . S
C839 H831 0.950 . S
C839 C837 1.327 . S
C840 C828 1.349 . S
C840 H834 0.950 . S
C840 C841 1.327 . S
C841 H835 0.950 . S
C841 C840 1.327 . S
C841 C845 1.385 1_545 S
C842 C825 1.574 1_556 S
C842 H836 0.949 . S
C842 C846 1.368 . S
C843 C824 1.429 . S
C843 C837 1.429 . S
C843 C844 1.523 . S
C844 C825 1.368 . S
C844 C838 1.368 1_565 S
C844 C843 1.523 . S
C845 C829 1.462 . S
C845 C841 1.385 1_565 S
C845 C846 1.533 . S
C846 C830 1.368 1_566 S
C846 C842 1.368 . S
C846 C845 1.533 . S
H847 C822 0.950 1_545 S
H848 C824 0.950 1_545 S
H849 C825 0.949 . S
H850 C827 0.950 . S
H851 C829 0.950 . S
C852 C853 1.349 . S
C852 C854 1.327 . S
C852 H877 0.950 . S
C853 C852 1.349 . S
C853 C869 1.349 . S
C854 C852 1.327 . S
C854 C873 1.429 . S
C854 H878 0.950 . S
C855 C872 1.574 . S
C855 C874 1.368 . S
C855 H879 0.949 . S
H856 C860 0.949 . S
C857 C858 1.349 . S
C857 C859 1.327 . S
C857 H880 0.950 . S
C858 C857 1.349 . S
C858 C870 1.349 . S
C859 C857 1.327 . S
C859 C875 1.429 . S
C859 H881 0.950 . S
C860 H856 0.949 . S
C860 C868 1.574 1_556 S
C860 C876 1.368 . S
H861 C869 0.950 . S
H862 C867 0.950 . S
H863 C868 0.949 . S
H864 C870 0.950 . S
H865 C871 0.950 . S
H866 C872 0.949 . S
C867 H862 0.950 . S
C867 C869 1.327 . S
C867 C873 1.429 . S
C868 C860 1.574 1_554 S
C868 H863 0.949 . S
C868 C874 1.368 . S
C869 C853 1.349 . S
C869 H861 0.950 . S
C869 C867 1.327 . S
C870 C858 1.349 . S
C870 H864 0.950 . S
C870 C871 1.327 . S
C871 H865 0.950 . S
C871 C870 1.327 . S
C871 C875 1.429 . S
C872 C855 1.574 . S
C872 H866 0.949 . S
C872 C876 1.368 1_554 S
C873 C854 1.429 . S
C873 C867 1.429 . S
C873 C874 1.523 . S
C874 C855 1.368 . S
C874 C868 1.368 . S
C874 C873 1.523 . S
C875 C859 1.429 . S
C875 C871 1.429 . S
C875 C876 1.523 . S
C876 C860 1.368 . S
C876 C872 1.368 1_556 S
C876 C875 1.523 . S
H877 C852 0.950 . S
H878 C854 0.950 . S
H879 C855 0.949 . S
H880 C857 0.950 . S
H881 C859 0.950 . S
C882 C883 1.349 . S
C882 C884 1.327 . S
C882 H907 0.950 . S
C883 C882 1.349 . S
C883 C899 1.349 . S
C884 C882 1.327 . S
C884 C903 1.429 . S
C884 H908 0.950 . S
C885 C902 1.574 . S
C885 C904 1.368 . S
C885 H909 0.949 . S
H886 C890 0.949 . S
C887 C888 1.349 . S
C887 C889 1.327 . S
C887 H910 0.950 . S
C888 C887 1.349 . S
C888 C900 1.349 . S
C889 C887 1.327 . S
C889 C905 1.429 . S
C889 H911 0.950 . S
C890 H886 0.949 . S
C890 C898 1.574 1_556 S
C890 C906 1.368 . S
H891 C899 0.950 . S
H892 C897 0.950 . S
H893 C898 0.949 . S
H894 C900 0.950 . S
H895 C901 0.950 . S
H896 C902 0.949 . S
C897 H892 0.950 . S
C897 C899 1.327 . S
C897 C903 1.429 . S
C898 C890 1.574 1_554 S
C898 H893 0.949 . S
C898 C904 1.368 . S
C899 C883 1.349 . S
C899 H891 0.950 . S
C899 C897 1.327 . S
C900 C888 1.349 . S
C900 H894 0.950 . S
C900 C901 1.327 . S
C901 H895 0.950 . S
C901 C900 1.327 . S
C901 C905 1.429 . S
C902 C885 1.574 . S
C902 H896 0.949 . S
C902 C906 1.368 1_554 S
C903 C884 1.429 . S
C903 C897 1.429 . S
C903 C904 1.523 . S
C904 C885 1.368 . S
C904 C898 1.368 . S
C904 C903 1.523 . S
C905 C889 1.429 . S
C905 C901 1.429 . S
C905 C906 1.523 . S
C906 C890 1.368 . S
C906 C902 1.368 1_556 S
C906 C905 1.523 . S
H907 C882 0.950 . S
H908 C884 0.950 . S
H909 C885 0.949 . S
H910 C887 0.950 . S
H911 C889 0.950 . S
C912 C913 1.349 . S
C912 C914 1.327 . S
C912 H937 0.950 . S
C913 C912 1.349 . S
C913 C929 1.349 . S
C914 C912 1.327 . S
C914 C933 1.429 . S
C914 H938 0.950 . S
C915 C932 1.574 . S
C915 C934 1.368 . S
C915 H939 0.940 1_455 S
H916 C920 0.949 . S
C917 C918 1.349 . S
C917 C919 1.327 . S
C917 H940 0.950 1_455 S
C918 C917 1.349 . S
C918 C930 1.349 . S
C919 C917 1.327 . S
C919 C935 1.429 . S
C919 H941 0.950 1_455 S
C920 H916 0.949 . S
C920 C928 1.574 . S
C920 C936 1.368 . S
H921 C929 0.950 . S
H922 C927 0.950 . S
H923 C928 0.949 . S
H924 C930 0.950 . S
H925 C931 0.950 . S
H926 C932 0.949 1_655 S
C927 H922 0.950 . S
C927 C929 1.327 . S
C927 C933 1.429 . S
C928 C920 1.574 . S
C928 H923 0.949 . S
C928 C934 1.368 . S
C929 C913 1.349 . S
C929 H921 0.950 . S
C929 C927 1.327 . S
C930 C918 1.349 . S
C930 H924 0.950 . S
C930 C931 1.327 . S
C931 H925 0.950 . S
C931 C930 1.327 . S
C931 C935 1.429 . S
C932 C915 1.574 . S
C932 H926 0.949 1_455 S
C932 C936 1.368 . S
C933 C914 1.429 . S
C933 C927 1.429 . S
C933 C934 1.523 . S
C934 C915 1.368 . S
C934 C928 1.368 . S
C934 C933 1.523 . S
C935 C919 1.429 . S
C935 C931 1.429 . S
C935 C936 1.523 . S
C936 C920 1.368 . S
C936 C932 1.368 . S
C936 C935 1.523 . S
H937 C912 0.950 . S
H938 C914 0.950 . S
H939 C915 0.940 1_655 S
H940 C917 0.950 1_655 S
H941 C919 0.950 1_655 S
C942 C943 1.349 . S
C942 C944 1.327 . S
C942 H967 0.950 . S
C943 C942 1.349 . S
C943 C959 1.349 . S
C944 C942 1.327 . S
C944 C963 1.429 . S
C944 H968 0.950 . S
C945 C962 1.574 . S
C945 C964 1.368 . S
C945 H969 0.949 . S
H946 C950 0.949 1_565 S
C947 C948 1.349 . S
C947 C949 1.327 . S
C947 H970 0.950 . S
C948 C947 1.349 . S
C948 C960 1.349 . S
C949 C947 1.327 . S
C949 C965 1.429 . S
C949 H971 0.950 . S
C950 H946 0.949 1_545 S
C950 C958 1.574 . S
C950 C966 1.368 . S
H951 C959 0.950 . S
H952 C957 0.950 . S
H953 C958 0.949 . S
H954 C960 0.950 1_565 S
H955 C961 0.950 1_565 S
H956 C962 0.949 . S
C957 H952 0.950 . S
C957 C959 1.327 . S
C957 C963 1.429 . S
C958 C950 1.574 . S
C958 H953 0.949 . S
C958 C964 1.368 . S
C959 C943 1.349 . S
C959 H951 0.950 . S
C959 C957 1.327 . S
C960 C948 1.349 . S
C960 H954 0.950 1_545 S
C960 C961 1.327 . S
C961 H955 0.950 1_545 S
C961 C960 1.327 . S
C961 C965 1.429 . S
C962 C945 1.574 . S
C962 H956 0.949 . S
C962 C966 1.368 . S
C963 C944 1.429 . S
C963 C957 1.429 . S
C963 C964 1.523 . S
C964 C945 1.368 . S
C964 C958 1.368 . S
C964 C963 1.523 . S
C965 C949 1.429 . S
C965 C961 1.429 . S
C965 C966 1.523 . S
C966 C950 1.368 . S
C966 C962 1.368 . S
C966 C965 1.523 . S
H967 C942 0.950 . S
H968 C944 0.950 . S
H969 C945 0.949 . S
H970 C947 0.950 . S
H971 C949 0.950 . S
C972 C973 1.349 . S
C972 C974 1.327 . S
C972 H997 0.950 . S
C973 C972 1.349 . S
C973 C989 1.349 . S
C974 C972 1.327 . S
C974 C993 1.429 . S
C974 H998 0.950 . S
C975 C992 1.574 . S
C975 C994 1.368 . S
C975 H999 0.949 . S
H976 C980 0.949 . S
C977 C978 1.349 . S
C977 C979 1.327 . S
C977 H1000 0.950 . S
C978 C977 1.349 . S
C978 C990 1.349 . S
C979 C977 1.327 . S
C979 C995 1.429 . S
C979 H1001 0.950 . S
C980 H976 0.949 . S
C980 C988 1.574 . S
C980 C996 1.368 . S
H981 C989 0.950 . S
H982 C987 0.950 . S
H983 C988 0.949 . S
H984 C990 0.950 . S
H985 C991 0.950 . S
H986 C992 0.949 . S
C987 H982 0.950 . S
C987 C989 1.327 . S
C987 C993 1.429 . S
C988 C980 1.574 . S
C988 H983 0.949 . S
C988 C994 1.368 . S
C989 C973 1.349 . S
C989 H981 0.950 . S
C989 C987 1.327 . S
C990 C978 1.349 . S
C990 H984 0.950 . S
C990 C991 1.327 . S
C991 H985 0.950 . S
C991 C990 1.327 . S
C991 C995 1.429 . S
C992 C975 1.574 . S
C992 H986 0.949 . S
C992 C996 1.368 . S
C993 C974 1.429 . S
C993 C987 1.429 . S
C993 C994 1.523 . S
C994 C975 1.368 . S
C994 C988 1.368 . S
C994 C993 1.523 . S
C995 C979 1.429 . S
C995 C991 1.429 . S
C995 C996 1.523 . S
C996 C980 1.368 . S
C996 C992 1.368 . S
C996 C995 1.523 . S
H997 C972 0.950 . S
H998 C974 0.950 . S
H999 C975 0.949 . S
H1000 C977 0.950 . S
H1001 C979 0.950 . S
C1002 C1003 1.349 . S
C1002 C1004 1.327 . S
C1002 H1027 0.950 . S
C1003 C1002 1.349 . S
C1003 C1019 1.349 . S
C1004 C1002 1.327 . S
C1004 C1023 1.429 . S
C1004 H1028 0.950 . S
C1005 C1022 1.574 . S
C1005 C1024 1.368 . S
C1005 H1029 0.949 . S
H1006 C1010 0.949 . S
C1007 C1008 1.349 . S
C1007 C1009 1.327 . S
C1007 H1030 0.950 . S
C1008 C1007 1.349 . S
C1008 C1020 1.349 . S
C1009 C1007 1.327 . S
C1009 C1025 1.429 . S
C1009 H1031 0.950 . S
C1010 H1006 0.949 . S
C1010 C1018 1.574 . S
C1010 C1026 1.368 . S
H1011 C1019 0.950 . S
H1012 C1017 0.950 . S
H1013 C1018 0.949 . S
H1014 C1020 0.950 . S
H1015 C1021 0.950 . S
H1016 C1022 0.949 . S
C1017 H1012 0.950 . S
C1017 C1019 1.327 . S
C1017 C1023 1.429 . S
C1018 C1010 1.574 . S
C1018 H1013 0.949 . S
C1018 C1024 1.368 . S
C1019 C1003 1.349 . S
C1019 H1011 0.950 . S
C1019 C1017 1.327 . S
C1020 C1008 1.349 . S
C1020 H1014 0.950 . S
C1020 C1021 1.327 . S
C1021 H1015 0.950 . S
C1021 C1020 1.327 . S
C1021 C1025 1.429 . S
C1022 C1005 1.574 . S
C1022 H1016 0.949 . S
C1022 C1026 1.368 . S
C1023 C1004 1.429 . S
C1023 C1017 1.429 . S
C1023 C1024 1.523 . S
C1024 C1005 1.368 . S
C1024 C1018 1.368 . S
C1024 C1023 1.523 . S
C1025 C1009 1.429 . S
C1025 C1021 1.429 . S
C1025 C1026 1.523 . S
C1026 C1010 1.368 . S
C1026 C1022 1.368 . S
C1026 C1025 1.523 . S
H1027 C1002 0.950 . S
H1028 C1004 0.950 . S
H1029 C1005 0.949 . S
H1030 C1007 0.950 . S
H1031 C1009 0.950 . S
C1032 C1033 1.349 . S
C1032 C1034 1.327 . S
C1032 H1057 0.950 . S
C1033 C1032 1.349 . S
C1033 C1049 1.349 . S
C1034 C1032 1.327 . S
C1034 C1053 1.429 . S
C1034 H1058 0.950 . S
C1035 C1052 1.574 . S
C1035 C1054 1.368 . S
C1035 H1059 0.949 . S
H1036 C1040 0.949 . S
C1037 C1038 1.349 1_455 S
C1037 C1039 1.327 . S
C1037 H1060 0.950 . S
C1038 C1037 1.349 1_655 S
C1038 C1050 1.349 . S
C1039 C1037 1.327 . S
C1039 C1055 1.432 1_455 S
C1039 H1061 0.947 . S
C1040 H1036 0.949 . S
C1040 C1048 1.574 . S
C1040 C1056 1.368 . S
H1041 C1049 0.950 . S
H1042 C1047 0.950 . S
H1043 C1048 0.949 . S
H1044 C1050 0.950 . S
H1045 C1051 0.950 . S
H1046 C1052 0.949 1_455 S
C1047 H1042 0.950 . S
C1047 C1049 1.327 . S
C1047 C1053 1.429 . S
C1048 C1040 1.574 . S
C1048 H1043 0.949 . S
C1048 C1054 1.368 . S
C1049 C1033 1.349 . S
C1049 H1041 0.950 . S
C1049 C1047 1.327 . S
C1050 C1038 1.349 . S
C1050 H1044 0.950 . S
C1050 C1051 1.327 . S
C1051 H1045 0.950 . S
C1051 C1050 1.327 . S
C1051 C1055 1.429 . S
C1052 C1035 1.574 . S
C1052 H1046 0.949 1_655 S
C1052 C1056 1.368 . S
C1053 C1034 1.429 . S
C1053 C1047 1.429 . S
C1053 C1054 1.523 . S
C1054 C1035 1.368 . S
C1054 C1048 1.368 . S
C1054 C1053 1.523 . S
C1055 C1039 1.432 1_655 S
C1055 C1051 1.429 . S
C1055 C1056 1.523 . S
C1056 C1040 1.368 . S
C1056 C1052 1.368 . S
C1056 C1055 1.523 . S
H1057 C1032 0.950 . S
H1058 C1034 0.950 . S
H1059 C1035 0.949 . S
H1060 C1037 0.950 . S
H1061 C1039 0.947 . S
C1062 C1063 1.349 . S
C1062 C1064 1.327 . S
C1062 H1087 0.950 . S
C1063 C1062 1.349 . S
C1063 C1079 1.349 . S
C1064 C1062 1.327 . S
C1064 C1083 1.429 . S
C1064 H1088 0.923 1_565 S
C1065 C1082 1.574 . S
C1065 C1084 1.368 . S
C1065 H1089 0.949 . S
H1066 C1070 0.960 . S
C1067 C1068 1.349 . S
C1067 C1069 1.327 . S
C1067 H1090 0.950 . S
C1068 C1067 1.349 . S
C1068 C1080 1.349 1_565 S
C1069 C1067 1.327 . S
C1069 C1085 1.429 . S
C1069 H1091 0.950 . S
C1070 H1066 0.960 . S
C1070 C1078 1.571 1_545 S
C1070 C1086 1.358 1_545 S
H1071 C1079 0.950 . S
H1072 C1077 0.950 . S
H1073 C1078 0.949 1_545 S
H1074 C1080 0.950 . S
H1075 C1081 0.950 . S
H1076 C1082 0.949 . S
C1077 H1072 0.950 . S
C1077 C1079 1.327 . S
C1077 C1083 1.429 . S
C1078 C1070 1.571 1_565 S
C1078 H1073 0.949 1_565 S
C1078 C1084 1.368 . S
C1079 C1063 1.349 . S
C1079 H1071 0.950 . S
C1079 C1077 1.327 . S
C1080 C1068 1.349 1_545 S
C1080 H1074 0.950 . S
C1080 C1081 1.327 . S
C1081 H1075 0.950 . S
C1081 C1080 1.327 . S
C1081 C1085 1.429 1_545 S
C1082 C1065 1.574 . S
C1082 H1076 0.949 . S
C1082 C1086 1.368 . S
C1083 C1064 1.429 . S
C1083 C1077 1.429 . S
C1083 C1084 1.523 . S
C1084 C1065 1.368 . S
C1084 C1078 1.368 . S
C1084 C1083 1.523 . S
C1085 C1069 1.429 . S
C1085 C1081 1.429 1_565 S
C1085 C1086 1.523 . S
C1086 C1070 1.358 1_565 S
C1086 C1082 1.368 . S
C1086 C1085 1.523 . S
H1087 C1062 0.950 . S
H1088 C1064 0.923 1_545 S
H1089 C1065 0.949 . S
H1090 C1067 0.950 . S
H1091 C1069 0.950 . S
C1092 C1093 1.349 . S
C1092 C1094 1.327 . S
C1092 H1117 0.950 . S
C1093 C1092 1.349 . S
C1093 C1109 1.349 . S
C1094 C1092 1.327 . S
C1094 C1113 1.429 . S
C1094 H1118 0.950 . S
C1095 C1112 1.574 . S
C1095 C1114 1.368 . S
C1095 H1119 0.949 . S
H1096 C1100 0.949 . S
C1097 C1098 1.349 . S
C1097 C1099 1.327 . S
C1097 H1120 0.950 . S
C1098 C1097 1.349 . S
C1098 C1110 1.349 . S
C1099 C1097 1.327 . S
C1099 C1115 1.429 . S
C1099 H1121 0.950 . S
C1100 H1096 0.949 . S
C1100 C1108 1.574 . S
C1100 C1116 1.368 . S
H1101 C1109 0.950 . S
H1102 C1107 0.950 . S
H1103 C1108 0.949 . S
H1104 C1110 0.950 . S
H1105 C1111 0.950 . S
H1106 C1112 0.949 . S
C1107 H1102 0.950 . S
C1107 C1109 1.327 . S
C1107 C1113 1.429 . S
C1108 C1100 1.574 . S
C1108 H1103 0.949 . S
C1108 C1114 1.368 . S
C1109 C1093 1.349 . S
C1109 H1101 0.950 . S
C1109 C1107 1.327 . S
C1110 C1098 1.349 . S
C1110 H1104 0.950 . S
C1110 C1111 1.327 . S
C1111 H1105 0.950 . S
C1111 C1110 1.327 . S
C1111 C1115 1.429 . S
C1112 C1095 1.574 . S
C1112 H1106 0.949 . S
C1112 C1116 1.368 . S
C1113 C1094 1.429 . S
C1113 C1107 1.429 . S
C1113 C1114 1.523 . S
C1114 C1095 1.368 . S
C1114 C1108 1.368 . S
C1114 C1113 1.523 . S
C1115 C1099 1.429 . S
C1115 C1111 1.429 . S
C1115 C1116 1.523 . S
C1116 C1100 1.368 . S
C1116 C1112 1.368 . S
C1116 C1115 1.523 . S
H1117 C1092 0.950 . S
H1118 C1094 0.950 . S
H1119 C1095 0.949 . S
H1120 C1097 0.950 . S
H1121 C1099 0.950 . S
C1122 C1123 1.349 . S
C1122 C1124 1.327 . S
C1122 H1147 0.950 . S
C1123 C1122 1.349 . S
C1123 C1139 1.349 . S
C1124 C1122 1.327 . S
C1124 C1143 1.429 . S
C1124 H1148 0.950 . S
C1125 C1142 1.574 . S
C1125 C1144 1.368 . S
C1125 H1149 0.949 . S
H1126 C1130 0.949 . S
C1127 C1128 1.349 . S
C1127 C1129 1.327 . S
C1127 H1150 0.950 . S
C1128 C1127 1.349 . S
C1128 C1140 1.349 . S
C1129 C1127 1.327 . S
C1129 C1145 1.429 . S
C1129 H1151 0.950 . S
C1130 H1126 0.949 . S
C1130 C1138 1.574 . S
C1130 C1146 1.368 . S
H1131 C1139 0.950 . S
H1132 C1137 0.950 . S
H1133 C1138 0.949 . S
H1134 C1140 0.950 . S
H1135 C1141 0.950 . S
H1136 C1142 0.949 . S
C1137 H1132 0.950 . S
C1137 C1139 1.327 . S
C1137 C1143 1.429 . S
C1138 C1130 1.574 . S
C1138 H1133 0.949 . S
C1138 C1144 1.368 . S
C1139 C1123 1.349 . S
C1139 H1131 0.950 . S
C1139 C1137 1.327 . S
C1140 C1128 1.349 . S
C1140 H1134 0.950 . S
C1140 C1141 1.327 . S
C1141 H1135 0.950 . S
C1141 C1140 1.327 . S
C1141 C1145 1.429 . S
C1142 C1125 1.574 . S
C1142 H1136 0.949 . S
C1142 C1146 1.368 . S
C1143 C1124 1.429 . S
C1143 C1137 1.429 . S
C1143 C1144 1.523 . S
C1144 C1125 1.368 . S
C1144 C1138 1.368 . S
C1144 C1143 1.523 . S
C1145 C1129 1.429 . S
C1145 C1141 1.429 . S
C1145 C1146 1.523 . S
C1146 C1130 1.368 . S
C1146 C1142 1.368 . S
C1146 C1145 1.523 . S
H1147 C1122 0.950 . S
H1148 C1124 0.950 . S
H1149 C1125 0.949 . S
H1150 C1127 0.950 . S
H1151 C1129 0.950 . S
C433 C76 1.833 . S
C438 C159 1.943 . S
C468 C236 1.963 . S
C463 C88 1.839 . S
C498 C327 1.933 . S
C493 C52 1.822 . S
C528 C411 1.922 . S
C523 C64 1.813 . S
C558 C170 1.947 . S
C553 C28 1.841 . S
C583 C40 1.846 . S
C588 C247 1.963 . S
C613 C4 1.828 . S
C618 C338 1.932 . S
C643 C16 1.820 . S
C648 C422 1.922 1_655 S
C678 C154 0.550 1_455 S
C673 C69 0.465 . S
C708 C249 0.547 . S
C703 C81 0.437 . S
C738 C322 0.549 . S
C733 C93 0.467 . S
C763 C57 0.448 . S
C768 C406 0.541 . S
C793 C21 0.473 . S
C798 C165 0.550 . S
C828 C238 0.547 . S
C823 C33 0.447 . S
C858 C333 0.550 . S
C853 C45 0.476 . S
C883 C9 0.457 . S
C888 C417 0.541 . S
C913 C66 1.867 . S
C918 C163 2.014 . S
C943 C78 1.863 . S
C948 C254 2.009 . S
C978 C331 2.034 . S
C973 C90 1.885 . S
C1008 C415 2.039 . S
C1003 C54 1.891 . S
C1033 C18 1.859 . S
C1038 C152 2.015 . S
C1068 C243 2.009 1_565 S
C1063 C30 1.853 . S
C1098 C320 2.033 . S
C1093 C42 1.875 . S
C1123 C6 1.882 . S
C1128 C404 2.039 . S
