# Generated by pormake.
# Topology pth, (4,4)-cn, num edge types: 1
# Building blocks:
#     Node 0, Type 0, BuildingBlock: AZAVOO_clean_sbu_0, # of connection points: 4
#     Node 1, Type 0, BuildingBlock: AZAVOO_clean_sbu_0, # of connection points: 4
#     Node 2, Type 0, BuildingBlock: AZAVOO_clean_sbu_0, # of connection points: 4
#     Node 3, Type 1, BuildingBlock: NAWXER_clean_linker_0, # of connection points: 4
#     Node 4, Type 1, BuildingBlock: NAWXER_clean_linker_0, # of connection points: 4
#     Node 5, Type 1, BuildingBlock: NAWXER_clean_linker_0, # of connection points: 4
#     Edge 6, Type (0, 1), BuildingBlock: CIFDUS_clean_linker_0, # of connection points: 2
#     Edge 7, Type (0, 1), BuildingBlock: CIFDUS_clean_linker_0, # of connection points: 2
#     Edge 8, Type (0, 1), BuildingBlock: CIFDUS_clean_linker_0, # of connection points: 2
#     Edge 9, Type (0, 1), BuildingBlock: CIFDUS_clean_linker_0, # of connection points: 2
#     Edge 10, Type (0, 1), BuildingBlock: CIFDUS_clean_linker_0, # of connection points: 2
#     Edge 11, Type (0, 1), BuildingBlock: CIFDUS_clean_linker_0, # of connection points: 2
#     Edge 12, Type (0, 1), BuildingBlock: CIFDUS_clean_linker_0, # of connection points: 2
#     Edge 13, Type (0, 1), BuildingBlock: CIFDUS_clean_linker_0, # of connection points: 2
#     Edge 14, Type (0, 1), BuildingBlock: CIFDUS_clean_linker_0, # of connection points: 2
#     Edge 15, Type (0, 1), BuildingBlock: CIFDUS_clean_linker_0, # of connection points: 2
#     Edge 16, Type (0, 1), BuildingBlock: CIFDUS_clean_linker_0, # of connection points: 2
#     Edge 17, Type (0, 1), BuildingBlock: CIFDUS_clean_linker_0, # of connection points: 2
# Relax obj value: 0.065
# Max RMSD: 0.212
# Mean RMSD: 0.105
data_MOF--net-pth--node1-AZAVOO_clean_sbu_0--node2-NAWXER_clean_linker_0--edge1-CIFDUS_clean_linker_0
_symmetry_space_group_name_H-M    P1
_symmetry_Int_Tables_number       1
_symmetry_cell_setting            triclinic
loop_
_symmetry_equiv_pos_as_xyz
'x, y, z'
_cell_length_a     25.766998
_cell_length_b     26.294603
_cell_length_c     58.118901
_cell_angle_alpha  91.040378
_cell_angle_beta   92.856681
_cell_angle_gamma 121.97891
loop_
_atom_site_label
_atom_site_type_symbol
_atom_site_fract_x
_atom_site_fract_y
_atom_site_fract_z
_atom_type_partial_charge
Mg0 Mg 0.11342 0.08003 0.04208 0.0
O1 O 0.03672 0.02152 0.01412 0.0
O2 O 0.02879 0.08359 0.99053 0.0
Mg3 Mg 0.09776 0.18036 0.00358 0.0
C4 C 0.01239 0.03075 -0.00372 0.0
C5 C 0.12891 0.99568 0.07247 0.0
O6 O 0.1854 0.03782 0.06869 0.0
O7 O 0.05211 0.10305 0.06059 0.0
O8 O 0.04941 0.16806 0.03709 0.0
O9 O 0.18272 0.08387 0.01932 0.0
O10 O 0.15446 0.14983 0.02004 0.0
C11 C 0.03565 0.13987 0.05571 0.0
C12 C 0.18629 0.13097 0.01108 0.0
O13 O 0.08496 -0.00105 0.0634 0.0
Mg14 Mg 0.93806 0.01184 0.35872 0.0
O15 O 0.01458 0.037 0.38712 0.0
O16 O 0.0253 0.1132 0.40901 0.0
Mg17 Mg 0.9602 0.13987 0.39419 0.0
C18 C 0.0399 0.07495 0.40435 0.0
C19 C 0.91698 0.8974 0.33498 0.0
O20 O 0.8623 0.88279 0.3408 0.0
O21 O 0.00246 0.09322 0.33837 0.0
O22 O 0.01031 0.16714 0.361 0.0
O23 O 0.86626 0.95285 0.38286 0.0
O24 O 0.90051 0.04857 0.37887 0.0
C25 C 0.02284 0.14876 0.34285 0.0
C26 C 0.86579 0.00013 0.38906 0.0
O27 O 0.96199 0.95049 0.34003 0.0
Mg28 Mg 0.9855 0.0372 0.69594 0.0
O29 O 0.05899 0.11662 0.71918 0.0
O30 O 0.01457 0.13729 0.74674 0.0
Mg31 Mg 0.91085 0.07343 0.73977 0.0
C32 C 0.06223 0.14695 0.73714 0.0
C33 C 0.1083 0.06269 0.67882 0.0
O34 O 0.11647 0.05937 0.70111 0.0
O35 O 0.95856 0.09651 0.67762 0.0
O36 O 0.90914 0.11216 0.7047 0.0
O37 O 0.98661 0.97231 0.72002 0.0
O38 O 0.92579 0.00741 0.72237 0.0
C39 C 0.92715 0.11804 0.68426 0.0
C40 C 0.94486 0.97464 0.73065 0.0
O41 O 0.0579 0.05548 0.67076 0.0
C42 C 0.98287 0.33523 0.23238 0.0
C43 C 0.03934 0.35246 0.2442 0.0
C44 C 0.97458 0.37758 0.22149 0.0
C45 C 0.02243 0.43803 0.22228 0.0
C46 C 0.08738 0.41317 0.24467 0.0
C47 C 0.07873 0.45561 0.23402 0.0
C48 C 0.01433 0.48302 0.21068 0.0
C49 C 0.02531 0.36736 0.1552 0.0
C50 C 0.9743 0.33942 0.13906 0.0
C51 C 0.0336 0.41237 0.17089 0.0
C52 C 0.99034 0.4294 0.17104 0.0
C53 C 0.9311 0.35653 0.13923 0.0
C54 C 0.93912 0.40115 0.15506 0.0
C55 C -0.00039 0.47895 0.18671 0.0
C56 C 0.05775 0.72695 0.17057 0.0
C57 C 0.01719 0.71474 0.1512 0.0
C58 C 0.05194 0.68044 0.18362 0.0
C59 C 0.00478 0.62073 0.17784 0.0
C60 C 0.96936 0.65511 0.14565 0.0
C61 C 0.96345 0.60851 0.15879 0.0
C62 C 0.00234 0.57078 0.19018 0.0
C63 C 0.95862 0.66689 0.24167 0.0
C64 C 0.00338 0.69815 0.25993 0.0
C65 C 0.96162 0.62613 0.22699 0.0
C66 C 0.00982 0.61606 0.23005 0.0
C67 C 0.05139 0.68769 0.26316 0.0
C68 C 0.05425 0.64654 0.24845 0.0
C69 C 0.01232 0.57239 0.21439 0.0
H70 H 0.94432 0.28931 0.23209 0.0
H71 H 0.93057 0.3633 0.21267 0.0
H72 H 0.13169 0.42804 0.25332 0.0
H73 H 0.1163 0.5021 0.23466 0.0
H74 H 0.06012 0.35611 0.1551 0.0
H75 H 0.07469 0.43492 0.18242 0.0
H76 H 0.89141 0.33577 0.12697 0.0
H77 H 0.90542 0.41391 0.15474 0.0
H78 H 0.09475 0.77247 0.17541 0.0
H79 H 0.08567 0.69113 0.19777 0.0
H80 H 0.93784 0.6442 0.13068 0.0
H81 H 0.92718 0.56275 0.15382 0.0
H82 H 0.92135 0.67427 0.23858 0.0
H83 H 0.92591 0.60216 0.21328 0.0
H84 H 0.08618 0.71065 0.27723 0.0
H85 H 0.09147 0.63899 0.25128 0.0
N86 N 0.01937 0.52914 0.22371 0.0
N87 N 0.995 0.52345 0.17736 0.0
C88 C 0.69028 0.10637 0.49169 0.0
C89 C 0.67057 0.05524 0.4771 0.0
C90 C 0.64924 0.10998 0.50535 0.0
C91 C 0.58789 0.06219 0.50491 0.0
C92 C 0.60934 0.0071 0.47693 0.0
C93 C 0.56825 0.01076 0.49061 0.0
C94 C 0.54316 0.06714 0.51814 0.0
C95 C 0.67652 0.06368 0.56936 0.0
C96 C 0.71328 0.11789 0.58262 0.0
C97 C 0.62438 0.0527 0.55625 0.0
C98 C 0.60807 0.09585 0.55598 0.0
C99 C 0.69637 0.16074 0.58252 0.0
C100 C 0.64402 0.14963 0.56942 0.0
C101 C 0.55346 0.08495 0.54183 0.0
C102 C 0.30644 0.03762 0.56419 0.0
C103 C 0.32485 0.08396 0.58109 0.0
C104 C 0.34956 0.03648 0.55095 0.0
C105 C 0.41186 0.08237 0.55397 0.0
C106 C 0.38722 0.12959 0.58428 0.0
C107 C 0.43032 0.12872 0.57085 0.0
C108 C 0.45826 0.08007 0.54068 0.0
C109 C 0.34214 0.10406 0.48732 0.0
C110 C 0.30411 0.05284 0.47259 0.0
C111 C 0.38861 0.10735 0.50191 0.0
C112 C 0.39839 0.05973 0.50202 0.0
C113 C 0.31436 0.00529 0.4727 0.0
C114 C 0.36149 0.00902 0.48711 0.0
C115 C 0.44915 0.06428 0.51679 0.0
H116 H 0.73729 0.14406 0.49226 0.0
H117 H 0.66514 0.15072 0.51583 0.0
H118 H 0.59266 0.96754 0.4656 0.0
H119 H 0.52091 0.97365 0.48987 0.0
H120 H 0.68719 0.029 0.56951 0.0
H121 H 0.59648 0.01023 0.54645 0.0
H122 H 0.72375 0.20301 0.59247 0.0
H123 H 0.63209 0.18342 0.5695 0.0
H124 H 0.25892 0.00114 0.56172 0.0
H125 H 0.33424 -0.00118 0.53874 0.0
H126 H 0.40266 0.16592 0.59716 0.0
H127 H 0.47817 0.16428 0.57368 0.0
H128 H 0.33683 0.14224 0.48732 0.0
H129 H 0.41765 0.14762 0.51285 0.0
H130 H 0.28566 0.9649 0.46181 0.0
H131 H 0.36868 0.97199 0.48683 0.0
N132 N 0.49152 0.05767 0.50651 0.0
N133 N 0.51053 0.09056 0.55224 0.0
C134 C 0.39804 0.33534 0.83124 0.0
C135 C 0.37246 0.35625 0.81498 0.0
C136 C 0.4544 0.37529 0.84323 0.0
C137 C 0.4849 0.43718 0.83979 0.0
C138 C 0.40496 0.41734 0.81034 0.0
C139 C 0.4606 0.45749 0.8227 0.0
C140 C 0.54068 0.48158 0.8543 0.0
C141 C 0.39208 0.38811 0.9036 0.0
C142 C 0.40382 0.35617 0.92002 0.0
C143 C 0.43814 0.42786 0.8899 0.0
C144 C 0.49641 0.43555 0.89207 0.0
C145 C 0.46226 0.36399 0.92213 0.0
C146 C 0.50825 0.40362 0.90834 0.0
C147 C 0.54631 0.4799 0.87858 0.0
C148 C 0.73624 0.72725 0.90895 0.0
C149 C 0.77473 0.72139 0.92531 0.0
C150 C 0.69499 0.67911 0.89382 0.0
C151 C 0.6907 0.62379 0.89483 0.0
C152 C 0.77048 0.66575 0.9261 0.0
C153 C 0.72827 0.6172 0.91119 0.0
C154 C 0.64331 0.57189 0.88006 0.0
C155 C 0.79173 0.69082 0.83445 0.0
C156 C 0.77325 0.71678 0.8176 0.0
C157 C 0.74814 0.64406 0.847 0.0
C158 C 0.68544 0.62265 0.84288 0.0
C159 C 0.71042 0.69455 0.81332 0.0
C160 C 0.667 0.64781 0.82576 0.0
C161 C 0.63842 0.57317 0.85583 0.0
H162 H 0.37415 0.28815 0.83479 0.0
H163 H 0.47326 0.35793 0.85558 0.0
H164 H 0.3861 0.43438 0.79782 0.0
H165 H 0.48348 0.50483 0.81948 0.0
H166 H 0.34745 0.38284 0.9015 0.0
H167 H 0.42847 0.45321 0.87783 0.0
H168 H 0.47303 0.34088 0.93491 0.0
H169 H 0.55326 0.40973 0.9105 0.0
H170 H 0.73672 0.76858 0.90814 0.0
H171 H 0.66518 0.68462 0.88171 0.0
H172 H 0.79982 0.65961 0.93818 0.0
H173 H 0.7251 0.57458 0.91234 0.0
H174 H 0.83983 0.70698 0.83804 0.0
H175 H 0.76336 0.62434 0.85975 0.0
H176 H 0.6947 0.71284 0.80011 0.0
H177 H 0.6189 0.63167 0.82213 0.0
N178 N 0.5871 0.52828 0.8439 0.0
N179 N 0.59741 0.52501 0.8905 0.0
H180 H 0.98402 0.20643 0.05026 0.0
H181 H 0.02809 0.11569 0.10152 0.0
H182 H 0.0067 0.16551 0.1321 0.0
H183 H 0.98944 0.2453 0.14442 0.0
H184 H 0.94841 0.33762 0.09298 0.0
H185 H 0.95417 0.27639 0.06238 0.0
C186 C 0.98791 0.19663 0.06809 0.0
C187 C 0.00877 0.15822 0.07356 0.0
C188 C 0.97683 0.22635 0.08561 0.0
C189 C 0.0125 0.14532 0.09676 0.0
C190 C 0.00075 0.17419 0.11431 0.0
C191 C 0.98116 0.25146 0.1265 0.0
C192 C 0.96925 0.29633 0.12094 0.0
C193 C 0.98525 0.21654 0.10896 0.0
C194 C 0.95749 0.30324 0.0977 0.0
C195 C 0.96113 0.26849 0.08019 0.0
H196 H 0.85123 0.0907 0.4016 0.0
H197 H 0.794 0.90916 0.41722 0.0
H198 H 0.72894 0.91028 0.4464 0.0
H199 H 0.68742 0.96321 0.46693 0.0
H200 H 0.74709 0.14498 0.4505 0.0
H201 H 0.81361 0.14385 0.42248 0.0
C202 C 0.82549 0.05155 0.41159 0.0
C203 C 0.82801 0.00014 0.40738 0.0
C204 C 0.78877 0.05269 0.42823 0.0
C205 C 0.79302 0.94942 0.42019 0.0
C206 C 0.75585 0.95006 0.43685 0.0
C207 C 0.71504 0.00246 0.45718 0.0
C208 C 0.71256 0.05421 0.46086 0.0
C209 C 0.75314 0.00144 0.44092 0.0
C210 C 0.74889 0.10496 0.44826 0.0
C211 C 0.78661 0.10423 0.43211 0.0
H212 H 0.96232 0.88904 0.74831 0.0
H213 H 0.86324 0.97766 0.75782 0.0
H214 H 0.80634 0.90942 0.78734 0.0
H215 H 0.77724 0.81876 0.80775 0.0
H216 H 0.87095 0.72549 0.79715 0.0
H217 H 0.938 0.80173 0.77111 0.0
C218 C 0.92899 0.894 0.75711 0.0
C219 C 0.91707 0.93843 0.75075 0.0
C220 C 0.89503 0.85339 0.77377 0.0
C221 C 0.8736 0.94412 0.7623 0.0
C222 C 0.84066 0.90482 0.77916 0.0
C223 C 0.81249 0.81525 0.79979 0.0
C224 C 0.81862 0.76625 0.80408 0.0
C225 C 0.8498 0.85835 0.78456 0.0
C226 C 0.8654 0.76292 0.79411 0.0
C227 C 0.90345 0.80626 0.77912 0.0
H228 H 0.01884 0.90532 0.0859 0.0
H229 H 0.21321 0.97478 0.09246 0.0
H230 H 0.19548 0.89427 0.11732 0.0
H231 H 0.12534 0.80414 0.13701 0.0
H232 H 0.93114 0.73461 0.13131 0.0
H233 H 0.94824 0.81481 0.10604 0.0
C234 C 0.0573 0.90279 0.09275 0.0
C235 C 0.11726 0.94609 0.08731 0.0
C236 C 0.04686 0.85636 0.10714 0.0
C237 C 0.16658 0.94216 0.09636 0.0
C238 C 0.15654 0.89611 0.11059 0.0
C239 C 0.08678 0.80693 0.1305 0.0
C240 C 0.02712 0.76372 0.13616 0.0
C241 C 0.09697 0.85313 0.11613 0.0
C242 C 0.9775 0.76714 0.1271 0.0
C243 C 0.98728 0.8131 0.11273 0.0
H244 H 0.1073 0.02538 0.39533 0.0
H245 H 0.0777 0.1228 0.44834 0.0
H246 H 0.1547 0.12233 0.47423 0.0
H247 H 0.23038 0.09475 0.48192 0.0
H248 H 0.26587 0.00346 0.4283 0.0
H249 H 0.18556 -0.00026 0.40285 0.0
C250 C 0.11762 0.04635 0.41257 0.0
C251 C 0.08678 0.07413 0.41984 0.0
C252 C 0.16272 0.04671 0.42735 0.0
C253 C 0.10098 0.10144 0.4422 0.0
C254 C 0.14492 0.10107 0.45708 0.0
C255 C 0.22128 0.07469 0.46457 0.0
C256 C 0.25445 0.04955 0.45712 0.0
C257 C 0.17624 0.07412 0.4498 0.0
C258 C 0.24063 0.02244 0.43471 0.0
C259 C 0.19499 0.02071 0.42003 0.0
H260 H 0.09418 0.17532 0.78273 0.0
H261 H 0.16771 0.21682 0.71584 0.0
H262 H 0.27041 0.28683 0.73398 0.0
H263 H 0.33975 0.33458 0.76907 0.0
H264 H 0.26713 0.28633 0.83587 0.0
H265 H 0.16365 0.22031 0.81767 0.0
C266 C 0.13263 0.20026 0.77215 0.0
C267 C 0.12344 0.19166 0.74801 0.0
C268 C 0.19172 0.23871 0.78271 0.0
C269 C 0.17377 0.22307 0.73447 0.0
C270 C 0.23243 0.26294 0.74483 0.0
C271 C 0.30108 0.30951 0.77954 0.0
C272 C 0.31063 0.31505 0.8037 0.0
C273 C 0.24202 0.2708 0.76894 0.0
C274 C 0.2606 0.2822 0.81721 0.0
C275 C 0.20154 0.24477 0.80683 0.0
H276 H 0.92183 0.10441 0.63746 0.0
H277 H 0.87104 0.1799 0.69203 0.0
H278 H 0.80482 0.19274 0.6645 0.0
H279 H 0.7493 0.16771 0.62644 0.0
H280 H 0.79809 0.09013 0.57201 0.0
H281 H 0.8767 0.09249 0.59807 0.0
C282 C 0.8976 0.12515 0.64327 0.0
C283 C 0.90075 0.14025 0.66688 0.0
C284 C 0.85804 0.13072 0.62747 0.0
C285 C 0.86899 0.16719 0.67402 0.0
C286 C 0.83076 0.17424 0.6583 0.0
C287 C 0.77812 0.15272 0.62007 0.0
C288 C 0.76699 0.12778 0.5974 0.0
C289 C 0.82297 0.15381 0.63519 0.0
C290 C 0.80462 0.10817 0.58955 0.0
C291 C 0.84984 0.10981 0.6044 0.0
H292 H 0.94981 0.91175 0.00536 0.0
H293 H 0.97299 0.03333 0.95216 0.0
H294 H 0.90336 0.94874 0.92558 0.0
H295 H 0.83859 0.84071 0.91693 0.0
H296 H 0.80896 0.71848 0.97065 0.0
H297 H 0.87988 0.80287 -0.0028 0.0
C298 C 0.93944 0.91976 0.98798 0.0
C299 C 0.9668 0.97894 0.98082 0.0
C300 C 0.89885 0.87079 0.97272 0.0
C301 C 0.95249 0.9884 0.95825 0.0
C302 C 0.91284 0.93999 0.94294 0.0
C303 C 0.84663 0.83225 0.93453 0.0
C304 C 0.81825 0.7729 0.94161 0.0
C305 C 0.88602 0.88104 0.94996 0.0
C306 C 0.83084 0.76335 0.96444 0.0
C307 C 0.87101 0.81172 0.97977 0.0
H308 H 0.02274 0.9118 0.31984 0.0
H309 H 0.82851 0.78233 0.32151 0.0
H310 H 0.83886 0.70906 0.29942 0.0
H311 H 0.90184 0.68215 0.27868 0.0
H312 H 0.09566 0.81065 0.27615 0.0
H313 H 0.08687 0.88337 0.29985 0.0
C314 C 0.98274 0.8675 0.31542 0.0
C315 C 0.92488 0.85286 0.32224 0.0
C316 C 0.98891 0.82527 0.30261 0.0
C317 C 0.87359 0.79508 0.31645 0.0
C318 C 0.87939 0.753 0.3038 0.0
C319 C 0.94215 0.72618 0.28323 0.0
C320 C -0.00081 0.74113 0.2755 0.0
C321 C 0.93663 0.76777 0.29661 0.0
C322 C 0.05125 0.79789 0.28198 0.0
C323 C 0.04616 0.83961 0.29541 0.0
H324 H 0.10028 0.05509 0.63181 0.0
H325 H 0.22499 0.09308 0.6913 0.0
H326 H 0.30384 0.106 0.66626 0.0
H327 H 0.33607 0.10226 0.6276 0.0
H328 H 0.21119 0.06213 0.56807 0.0
H329 H 0.13367 0.05412 0.59298 0.0
C330 C 0.14482 0.06654 0.63929 0.0
C331 C 0.15658 0.07288 0.6634 0.0
C332 C 0.18986 0.07328 0.62479 0.0
C333 C 0.21453 0.08759 0.67281 0.0
C334 C 0.25974 0.09506 0.6585 0.0
C335 C 0.2922 0.09263 0.62008 0.0
C336 C 0.27934 0.08285 0.59606 0.0
C337 C 0.24774 0.08748 0.63449 0.0
C338 C 0.22192 0.06936 0.58655 0.0
C339 C 0.17768 0.06492 0.60077 0.0
H340 H 0.20765 0.2342 0.99341 0.0
H341 H 0.25351 0.09909 0.98634 0.0
H342 H 0.32316 0.15568 0.95662 0.0
H343 H 0.37375 0.24572 0.93379 0.0
H344 H 0.32829 0.38091 0.94204 0.0
H345 H 0.25443 0.32113 0.96983 0.0
C346 C 0.2321 0.2165 0.98519 0.0
C347 C 0.22527 0.16243 0.99205 0.0
C348 C 0.27207 0.24927 0.96831 0.0
C349 C 0.258 0.14067 0.98137 0.0
C350 C 0.29784 0.17301 0.9644 0.0
C351 C 0.34768 0.26204 0.94171 0.0
C352 C 0.35653 0.31768 0.93586 0.0
C353 C 0.30578 0.22777 0.95795 0.0
C354 C 0.32181 0.3379 0.946 0.0
C355 C 0.27988 0.30397 0.96203 0.0
H356 H 0.00081 0.12906 0.29634 0.0
H357 H 0.10791 0.26774 0.34969 0.0
H358 H 0.1298 0.34479 0.32234 0.0
H359 H 0.10134 0.37127 0.28593 0.0
H360 H 0.99241 0.23339 0.2324 0.0
H361 H 0.98779 0.15748 0.25728 0.0
C362 C 0.03084 0.17615 0.30173 0.0
C363 C 0.05214 0.19277 0.32503 0.0
C364 C 0.04121 0.2203 0.2861 0.0
C365 C 0.09061 0.25394 0.33185 0.0
C366 C 0.10268 0.29801 0.31627 0.0
C367 C 0.07818 0.325 0.27932 0.0
C368 C 0.04611 0.3081 0.25746 0.0
C369 C 0.07552 0.28157 0.29372 0.0
C370 C 0.01596 0.24756 0.24941 0.0
C371 C 0.01364 0.20409 0.26358 0.0
loop_
_geom_bond_atom_site_label_1
_geom_bond_atom_site_label_2
_geom_bond_distance
_geom_bond_site_symmetry_2
_ccdc_geom_bond_type
Mg0 O1 2.028 . S
Mg0 O7 1.986 . S
Mg0 O9 2.114 . S
Mg0 O10 2.251 . S
Mg0 O13 2.010 . S
O1 Mg0 2.028 . S
O1 C4 1.250 1_455 S
O2 Mg3 2.028 1_655 S
O2 C4 1.248 . S
Mg3 O2 2.028 1_455 S
Mg3 O8 2.032 . S
Mg3 O10 2.079 . S
C4 O1 1.250 1_655 S
C4 O2 1.248 . S
C5 O6 1.264 1_565 S
C5 O13 1.249 1_565 S
O6 C5 1.264 1_545 S
O7 Mg0 1.986 . S
O7 C11 1.246 . S
O8 Mg3 2.032 . S
O8 C11 1.259 . S
O9 Mg0 2.114 . S
O9 C12 1.252 . S
O10 Mg0 2.251 . S
O10 Mg3 2.079 . S
O10 C12 1.273 . S
C11 O7 1.246 . S
C11 O8 1.259 . S
C12 O9 1.252 . S
C12 O10 1.273 . S
O13 Mg0 2.010 . S
O13 C5 1.249 1_545 S
Mg14 O15 2.028 1_655 S
Mg14 O21 1.986 1_655 S
Mg14 O23 2.114 1_545 S
Mg14 O24 2.251 . S
Mg14 O27 2.010 1_545 S
O15 Mg14 2.028 1_455 S
O15 C18 1.250 . S
O16 Mg17 2.028 . S
O16 C18 1.248 . S
Mg17 O16 2.028 . S
Mg17 O22 2.032 . S
Mg17 O24 2.079 1_455 S
C18 O15 1.250 . S
C18 O16 1.248 . S
C19 O20 1.264 . S
C19 O27 1.249 . S
O20 C19 1.264 . S
O21 Mg14 1.986 1_455 S
O21 C25 1.246 . S
O22 Mg17 2.032 . S
O22 C25 1.259 . S
O23 Mg14 2.114 1_565 S
O23 C26 1.252 1_565 S
O24 Mg14 2.251 . S
O24 Mg17 2.079 1_655 S
O24 C26 1.273 . S
C25 O21 1.246 . S
C25 O22 1.259 . S
C26 O23 1.252 1_545 S
C26 O24 1.273 . S
O27 Mg14 2.010 1_565 S
O27 C19 1.249 . S
Mg28 O29 2.028 . S
Mg28 O35 1.986 1_455 S
Mg28 O37 2.114 1_545 S
Mg28 O38 2.251 1_445 S
Mg28 O41 2.010 . S
O29 Mg28 2.028 . S
O29 C32 1.250 . S
O30 Mg31 2.028 1_455 S
O30 C32 1.248 . S
Mg31 O30 2.028 1_655 S
Mg31 O36 2.032 . S
Mg31 O38 2.079 1_545 S
C32 O29 1.250 . S
C32 O30 1.248 . S
C33 O34 1.264 . S
C33 O41 1.249 1_565 S
O34 C33 1.264 . S
O35 Mg28 1.986 1_655 S
O35 C39 1.246 . S
O36 Mg31 2.032 . S
O36 C39 1.259 . S
O37 Mg28 2.114 1_565 S
O37 C40 1.252 1_455 S
O38 Mg28 2.251 1_665 S
O38 Mg31 2.079 1_565 S
O38 C40 1.273 . S
C39 O35 1.246 . S
C39 O36 1.259 . S
C40 O37 1.252 1_655 S
C40 O38 1.273 . S
O41 Mg28 2.010 . S
O41 C33 1.249 1_545 S
C42 C43 1.384 1_655 S
C42 C44 1.384 . S
C42 H70 0.931 . S
C43 C42 1.384 1_455 S
C43 C46 1.382 . S
C44 C42 1.384 . S
C44 C45 1.381 1_655 S
C44 H71 0.930 . S
C45 C44 1.381 1_455 S
C45 C47 1.381 . S
C45 C48 1.487 . S
C46 C43 1.382 . S
C46 C47 1.387 . S
C46 H72 0.930 . S
C47 C45 1.381 . S
C47 C46 1.387 . S
C47 H73 0.931 . S
C48 C45 1.487 . S
C48 C55 1.399 . S
C48 N86 1.343 . S
C49 C50 1.384 . S
C49 C51 1.384 . S
C49 H74 0.931 . S
C50 C49 1.384 . S
C50 C53 1.382 1_455 S
C51 C49 1.384 . S
C51 C52 1.381 . S
C51 H75 0.930 . S
C52 C51 1.381 . S
C52 C54 1.381 1_455 S
C52 C55 1.487 . S
C53 C50 1.382 1_655 S
C53 C54 1.387 . S
C53 H76 0.930 . S
C54 C52 1.381 1_655 S
C54 C53 1.387 . S
C54 H77 0.931 . S
C55 C48 1.399 . S
C55 C52 1.487 . S
C55 N87 1.343 . S
C56 C57 1.384 . S
C56 C58 1.384 . S
C56 H78 0.931 . S
C57 C56 1.384 . S
C57 C60 1.382 1_455 S
C58 C56 1.384 . S
C58 C59 1.381 . S
C58 H79 0.930 . S
C59 C58 1.381 . S
C59 C61 1.381 1_455 S
C59 C62 1.487 . S
C60 C57 1.382 1_655 S
C60 C61 1.387 . S
C60 H80 0.930 . S
C61 C59 1.381 1_655 S
C61 C60 1.387 . S
C61 H81 0.931 . S
C62 C59 1.487 . S
C62 C69 1.399 . S
C62 N87 1.343 . S
C63 C64 1.384 1_655 S
C63 C65 1.384 . S
C63 H82 0.931 . S
C64 C63 1.384 1_455 S
C64 C67 1.382 . S
C65 C63 1.384 . S
C65 C66 1.381 1_655 S
C65 H83 0.930 . S
C66 C65 1.381 1_455 S
C66 C68 1.381 . S
C66 C69 1.487 . S
C67 C64 1.382 . S
C67 C68 1.387 . S
C67 H84 0.930 . S
C68 C66 1.381 . S
C68 C67 1.387 . S
C68 H85 0.931 . S
C69 C62 1.399 . S
C69 C66 1.487 . S
C69 N86 1.343 . S
H70 C42 0.931 . S
H71 C44 0.930 . S
H72 C46 0.930 . S
H73 C47 0.931 . S
H74 C49 0.931 . S
H75 C51 0.930 . S
H76 C53 0.930 . S
H77 C54 0.931 . S
H78 C56 0.931 . S
H79 C58 0.930 . S
H80 C60 0.930 . S
H81 C61 0.931 . S
H82 C63 0.931 . S
H83 C65 0.930 . S
H84 C67 0.930 . S
H85 C68 0.931 . S
N86 C48 1.343 . S
N86 C69 1.343 . S
N87 C55 1.343 . S
N87 C62 1.343 . S
C88 C89 1.384 . S
C88 C90 1.384 . S
C88 H116 0.931 . S
C89 C88 1.384 . S
C89 C92 1.382 . S
C90 C88 1.384 . S
C90 C91 1.381 . S
C90 H117 0.930 . S
C91 C90 1.381 . S
C91 C93 1.381 . S
C91 C94 1.487 . S
C92 C89 1.382 . S
C92 C93 1.387 . S
C92 H118 0.918 1_545 S
C93 C91 1.381 . S
C93 C92 1.387 . S
C93 H119 0.929 1_545 S
C94 C91 1.487 . S
C94 C101 1.399 . S
C94 N132 1.343 . S
C95 C96 1.384 . S
C95 C97 1.384 . S
C95 H120 0.931 . S
C96 C95 1.384 . S
C96 C99 1.382 . S
C97 C95 1.384 . S
C97 C98 1.381 . S
C97 H121 0.930 . S
C98 C97 1.381 . S
C98 C100 1.381 . S
C98 C101 1.487 . S
C99 C96 1.382 . S
C99 C100 1.387 . S
C99 H122 0.930 . S
C100 C98 1.381 . S
C100 C99 1.387 . S
C100 H123 0.931 . S
C101 C94 1.399 . S
C101 C98 1.487 . S
C101 N133 1.343 . S
C102 C103 1.384 . S
C102 C104 1.384 . S
C102 H124 0.931 . S
C103 C102 1.384 . S
C103 C106 1.382 . S
C104 C102 1.384 . S
C104 C105 1.381 . S
C104 H125 0.930 . S
C105 C104 1.381 . S
C105 C107 1.381 . S
C105 C108 1.487 . S
C106 C103 1.382 . S
C106 C107 1.387 . S
C106 H126 0.930 . S
C107 C105 1.381 . S
C107 C106 1.387 . S
C107 H127 0.931 . S
C108 C105 1.487 . S
C108 C115 1.399 . S
C108 N133 1.343 . S
C109 C110 1.384 . S
C109 C111 1.384 . S
C109 H128 0.931 . S
C110 C109 1.384 . S
C110 C113 1.382 . S
C111 C109 1.384 . S
C111 C112 1.381 . S
C111 H129 0.930 . S
C112 C111 1.381 . S
C112 C114 1.381 . S
C112 C115 1.487 . S
C113 C110 1.382 . S
C113 C114 1.387 . S
C113 H130 0.920 1_545 S
C114 C112 1.381 . S
C114 C113 1.387 . S
C114 H131 0.920 1_545 S
C115 C108 1.399 . S
C115 C112 1.487 . S
C115 N132 1.343 . S
H116 C88 0.931 . S
H117 C90 0.930 . S
H118 C92 0.918 1_565 S
H119 C93 0.929 1_565 S
H120 C95 0.931 . S
H121 C97 0.930 . S
H122 C99 0.930 . S
H123 C100 0.931 . S
H124 C102 0.931 . S
H125 C104 0.930 . S
H126 C106 0.930 . S
H127 C107 0.931 . S
H128 C109 0.931 . S
H129 C111 0.930 . S
H130 C113 0.920 1_565 S
H131 C114 0.920 1_565 S
N132 C94 1.343 . S
N132 C115 1.343 . S
N133 C101 1.343 . S
N133 C108 1.343 . S
C134 C135 1.384 . S
C134 C136 1.384 . S
C134 H162 0.931 . S
C135 C134 1.384 . S
C135 C138 1.382 . S
C136 C134 1.384 . S
C136 C137 1.381 . S
C136 H163 0.930 . S
C137 C136 1.381 . S
C137 C139 1.381 . S
C137 C140 1.487 . S
C138 C135 1.382 . S
C138 C139 1.387 . S
C138 H164 0.930 . S
C139 C137 1.381 . S
C139 C138 1.387 . S
C139 H165 0.931 . S
C140 C137 1.487 . S
C140 C147 1.399 . S
C140 N178 1.343 . S
C141 C142 1.384 . S
C141 C143 1.384 . S
C141 H166 0.931 . S
C142 C141 1.384 . S
C142 C145 1.382 . S
C143 C141 1.384 . S
C143 C144 1.381 . S
C143 H167 0.930 . S
C144 C143 1.381 . S
C144 C146 1.381 . S
C144 C147 1.487 . S
C145 C142 1.382 . S
C145 C146 1.387 . S
C145 H168 0.930 . S
C146 C144 1.381 . S
C146 C145 1.387 . S
C146 H169 0.931 . S
C147 C140 1.399 . S
C147 C144 1.487 . S
C147 N179 1.343 . S
C148 C149 1.384 . S
C148 C150 1.384 . S
C148 H170 0.931 . S
C149 C148 1.384 . S
C149 C152 1.382 . S
C150 C148 1.384 . S
C150 C151 1.381 . S
C150 H171 0.930 . S
C151 C150 1.381 . S
C151 C153 1.381 . S
C151 C154 1.487 . S
C152 C149 1.382 . S
C152 C153 1.387 . S
C152 H172 0.930 . S
C153 C151 1.381 . S
C153 C152 1.387 . S
C153 H173 0.931 . S
C154 C151 1.487 . S
C154 C161 1.399 . S
C154 N179 1.343 . S
C155 C156 1.384 . S
C155 C157 1.384 . S
C155 H174 0.931 . S
C156 C155 1.384 . S
C156 C159 1.382 . S
C157 C155 1.384 . S
C157 C158 1.381 . S
C157 H175 0.930 . S
C158 C157 1.381 . S
C158 C160 1.381 . S
C158 C161 1.487 . S
C159 C156 1.382 . S
C159 C160 1.387 . S
C159 H176 0.930 . S
C160 C158 1.381 . S
C160 C159 1.387 . S
C160 H177 0.931 . S
C161 C154 1.399 . S
C161 C158 1.487 . S
C161 N178 1.343 . S
H162 C134 0.931 . S
H163 C136 0.930 . S
H164 C138 0.930 . S
H165 C139 0.931 . S
H166 C141 0.931 . S
H167 C143 0.930 . S
H168 C145 0.930 . S
H169 C146 0.931 . S
H170 C148 0.931 . S
H171 C150 0.930 . S
H172 C152 0.930 . S
H173 C153 0.931 . S
H174 C155 0.931 . S
H175 C157 0.930 . S
H176 C159 0.930 . S
H177 C160 0.931 . S
N178 C140 1.343 . S
N178 C161 1.343 . S
N179 C147 1.343 . S
N179 C154 1.343 . S
H180 C186 0.930 . S
H181 C189 0.930 . S
H182 C190 0.930 . S
H183 C191 0.930 . S
H184 C194 0.930 . S
H185 C195 0.930 . S
C186 H180 0.930 . S
C186 C187 1.355 1_655 S
C186 C188 1.415 1_655 S
C187 C186 1.355 1_455 S
C187 C189 1.419 . S
C188 C186 1.415 1_455 S
C188 C193 1.427 . S
C188 C195 1.407 1_455 S
C189 H181 0.930 . S
C189 C187 1.419 . S
C189 C190 1.362 . S
C190 H182 0.930 . S
C190 C189 1.362 . S
C190 C193 1.409 . S
C191 H183 0.930 . S
C191 C192 1.355 . S
C191 C193 1.415 . S
C192 C191 1.355 . S
C192 C194 1.419 1_455 S
C193 C188 1.427 . S
C193 C190 1.409 . S
C193 C191 1.415 . S
C194 H184 0.930 . S
C194 C192 1.419 1_655 S
C194 C195 1.362 . S
C195 H185 0.930 . S
C195 C188 1.407 1_655 S
C195 C194 1.362 . S
H196 C202 0.930 . S
H197 C205 0.930 . S
H198 C206 0.930 . S
H199 C207 0.930 . S
H200 C210 0.930 . S
H201 C211 0.930 . S
C202 H196 0.930 . S
C202 C203 1.355 . S
C202 C204 1.415 . S
C203 C202 1.355 . S
C203 C205 1.419 1_545 S
C204 C202 1.415 . S
C204 C209 1.425 . S
C204 C211 1.409 . S
C205 H197 0.930 . S
C205 C203 1.419 1_565 S
C205 C206 1.362 . S
C206 H198 0.930 . S
C206 C205 1.362 . S
C206 C209 1.409 1_565 S
C207 H199 0.930 . S
C207 C208 1.355 . S
C207 C209 1.415 . S
C208 C207 1.355 . S
C208 C210 1.419 . S
C209 C204 1.425 . S
C209 C206 1.409 1_545 S
C209 C207 1.415 . S
C210 H200 0.930 . S
C210 C208 1.419 . S
C210 C211 1.362 . S
C211 H201 0.930 . S
C211 C204 1.409 . S
C211 C210 1.362 . S
H212 C218 0.930 . S
H213 C221 0.930 . S
H214 C222 0.930 . S
H215 C223 0.930 . S
H216 C226 0.930 . S
H217 C227 0.930 . S
C218 H212 0.930 . S
C218 C219 1.355 . S
C218 C220 1.415 . S
C219 C218 1.355 . S
C219 C221 1.419 . S
C220 C218 1.415 . S
C220 C225 1.425 . S
C220 C227 1.409 . S
C221 H213 0.930 . S
C221 C219 1.419 . S
C221 C222 1.362 . S
C222 H214 0.930 . S
C222 C221 1.362 . S
C222 C225 1.409 . S
C223 H215 0.930 . S
C223 C224 1.355 . S
C223 C225 1.415 . S
C224 C223 1.355 . S
C224 C226 1.419 . S
C225 C220 1.425 . S
C225 C222 1.409 . S
C225 C223 1.415 . S
C226 H216 0.930 . S
C226 C224 1.419 . S
C226 C227 1.362 . S
C227 H217 0.930 . S
C227 C220 1.409 . S
C227 C226 1.362 . S
H228 C234 0.930 . S
H229 C237 0.930 . S
H230 C238 0.930 . S
H231 C239 0.930 . S
H232 C242 0.930 . S
H233 C243 0.930 . S
C234 H228 0.930 . S
C234 C235 1.355 . S
C234 C236 1.415 . S
C235 C234 1.355 . S
C235 C237 1.419 . S
C236 C234 1.415 . S
C236 C241 1.425 . S
C236 C243 1.409 1_455 S
C237 H229 0.930 . S
C237 C235 1.419 . S
C237 C238 1.362 . S
C238 H230 0.930 . S
C238 C237 1.362 . S
C238 C241 1.409 . S
C239 H231 0.930 . S
C239 C240 1.355 . S
C239 C241 1.415 . S
C240 C239 1.355 . S
C240 C242 1.419 1_455 S
C241 C236 1.425 . S
C241 C238 1.409 . S
C241 C239 1.415 . S
C242 H232 0.930 . S
C242 C240 1.419 1_655 S
C242 C243 1.362 . S
C243 H233 0.930 . S
C243 C236 1.409 1_655 S
C243 C242 1.362 . S
H244 C250 0.930 . S
H245 C253 0.930 . S
H246 C254 0.930 . S
H247 C255 0.930 . S
H248 C258 0.930 . S
H249 C259 0.930 . S
C250 H244 0.930 . S
C250 C251 1.355 . S
C250 C252 1.415 . S
C251 C250 1.355 . S
C251 C253 1.419 . S
C252 C250 1.415 . S
C252 C257 1.425 . S
C252 C259 1.409 . S
C253 H245 0.930 . S
C253 C251 1.419 . S
C253 C254 1.362 . S
C254 H246 0.930 . S
C254 C253 1.362 . S
C254 C257 1.409 . S
C255 H247 0.930 . S
C255 C256 1.355 . S
C255 C257 1.415 . S
C256 C255 1.355 . S
C256 C258 1.419 . S
C257 C252 1.425 . S
C257 C254 1.409 . S
C257 C255 1.415 . S
C258 H248 0.930 . S
C258 C256 1.419 . S
C258 C259 1.362 . S
C259 H249 0.930 . S
C259 C252 1.409 . S
C259 C258 1.362 . S
H260 C266 0.930 . S
H261 C269 0.930 . S
H262 C270 0.930 . S
H263 C271 0.930 . S
H264 C274 0.930 . S
H265 C275 0.930 . S
C266 H260 0.930 . S
C266 C267 1.355 . S
C266 C268 1.415 . S
C267 C266 1.355 . S
C267 C269 1.419 . S
C268 C266 1.415 . S
C268 C273 1.425 . S
C268 C275 1.409 . S
C269 H261 0.930 . S
C269 C267 1.419 . S
C269 C270 1.362 . S
C270 H262 0.930 . S
C270 C269 1.362 . S
C270 C273 1.409 . S
C271 H263 0.930 . S
C271 C272 1.355 . S
C271 C273 1.415 . S
C272 C271 1.355 . S
C272 C274 1.419 . S
C273 C268 1.425 . S
C273 C270 1.409 . S
C273 C271 1.415 . S
C274 H264 0.930 . S
C274 C272 1.419 . S
C274 C275 1.362 . S
C275 H265 0.930 . S
C275 C268 1.409 . S
C275 C274 1.362 . S
H276 C282 0.930 . S
H277 C285 0.930 . S
H278 C286 0.930 . S
H279 C287 0.930 . S
H280 C290 0.930 . S
H281 C291 0.930 . S
C282 H276 0.930 . S
C282 C283 1.355 . S
C282 C284 1.415 . S
C283 C282 1.355 . S
C283 C285 1.419 . S
C284 C282 1.415 . S
C284 C289 1.425 . S
C284 C291 1.409 . S
C285 H277 0.930 . S
C285 C283 1.419 . S
C285 C286 1.362 . S
C286 H278 0.930 . S
C286 C285 1.362 . S
C286 C289 1.409 . S
C287 H279 0.930 . S
C287 C288 1.355 . S
C287 C289 1.415 . S
C288 C287 1.355 . S
C288 C290 1.419 . S
C289 C284 1.425 . S
C289 C286 1.409 . S
C289 C287 1.415 . S
C290 H280 0.930 . S
C290 C288 1.419 . S
C290 C291 1.362 . S
C291 H281 0.930 . S
C291 C284 1.409 . S
C291 C290 1.362 . S
H292 C298 0.930 . S
H293 C301 0.930 1_545 S
H294 C302 0.930 . S
H295 C303 0.930 . S
H296 C306 0.930 . S
H297 C307 0.930 1_554 S
C298 H292 0.930 . S
C298 C299 1.355 1_554 S
C298 C300 1.415 1_554 S
C299 C298 1.355 1_556 S
C299 C301 1.419 . S
C300 C298 1.415 1_556 S
C300 C305 1.425 . S
C300 C307 1.409 . S
C301 H293 0.930 1_565 S
C301 C299 1.419 . S
C301 C302 1.362 . S
C302 H294 0.930 . S
C302 C301 1.362 . S
C302 C305 1.409 . S
C303 H295 0.930 . S
C303 C304 1.355 . S
C303 C305 1.415 . S
C304 C303 1.355 . S
C304 C306 1.419 . S
C305 C300 1.425 . S
C305 C302 1.409 . S
C305 C303 1.415 . S
C306 H296 0.930 . S
C306 C304 1.419 . S
C306 C307 1.362 . S
C307 H297 0.930 1_556 S
C307 C300 1.409 . S
C307 C306 1.362 . S
H308 C314 0.930 . S
H309 C317 0.930 . S
H310 C318 0.930 . S
H311 C319 0.930 . S
H312 C322 0.930 . S
H313 C323 0.930 . S
C314 H308 0.930 . S
C314 C315 1.355 1_455 S
C314 C316 1.415 . S
C315 C314 1.355 1_655 S
C315 C317 1.419 . S
C316 C314 1.415 . S
C316 C321 1.425 1_455 S
C316 C323 1.409 . S
C317 H309 0.930 . S
C317 C315 1.419 . S
C317 C318 1.362 . S
C318 H310 0.930 . S
C318 C317 1.362 . S
C318 C321 1.409 . S
C319 H311 0.930 . S
C319 C320 1.355 1_655 S
C319 C321 1.415 . S
C320 C319 1.355 1_455 S
C320 C322 1.419 . S
C321 C316 1.425 1_655 S
C321 C318 1.409 . S
C321 C319 1.415 . S
C322 H312 0.930 . S
C322 C320 1.419 . S
C322 C323 1.362 . S
C323 H313 0.930 . S
C323 C316 1.409 . S
C323 C322 1.362 . S
H324 C330 0.930 . S
H325 C333 0.930 . S
H326 C334 0.930 . S
H327 C335 0.930 . S
H328 C338 0.930 . S
H329 C339 0.930 . S
C330 H324 0.930 . S
C330 C331 1.355 . S
C330 C332 1.415 . S
C331 C330 1.355 . S
C331 C333 1.419 . S
C332 C330 1.415 . S
C332 C337 1.425 . S
C332 C339 1.409 . S
C333 H325 0.930 . S
C333 C331 1.419 . S
C333 C334 1.362 . S
C334 H326 0.930 . S
C334 C333 1.362 . S
C334 C337 1.409 . S
C335 H327 0.930 . S
C335 C336 1.355 . S
C335 C337 1.415 . S
C336 C335 1.355 . S
C336 C338 1.419 . S
C337 C332 1.425 . S
C337 C334 1.409 . S
C337 C335 1.415 . S
C338 H328 0.930 . S
C338 C336 1.419 . S
C338 C339 1.362 . S
C339 H329 0.930 . S
C339 C332 1.409 . S
C339 C338 1.362 . S
H340 C346 0.930 1_554 S
H341 C349 0.930 . S
H342 C350 0.930 . S
H343 C351 0.930 . S
H344 C354 0.930 . S
H345 C355 0.930 . S
C346 H340 0.930 1_556 S
C346 C347 1.355 . S
C346 C348 1.415 . S
C347 C346 1.355 . S
C347 C349 1.419 . S
C348 C346 1.415 . S
C348 C353 1.425 . S
C348 C355 1.409 . S
C349 H341 0.930 . S
C349 C347 1.419 . S
C349 C350 1.362 . S
C350 H342 0.930 . S
C350 C349 1.362 . S
C350 C353 1.409 . S
C351 H343 0.930 . S
C351 C352 1.355 . S
C351 C353 1.415 . S
C352 C351 1.355 . S
C352 C354 1.419 . S
C353 C348 1.425 . S
C353 C350 1.409 . S
C353 C351 1.415 . S
C354 H344 0.930 . S
C354 C352 1.419 . S
C354 C355 1.362 . S
C355 H345 0.930 . S
C355 C348 1.409 . S
C355 C354 1.362 . S
H356 C362 0.930 . S
H357 C365 0.930 . S
H358 C366 0.930 1_655 S
H359 C367 0.930 1_655 S
H360 C370 0.930 . S
H361 C371 0.930 . S
C362 H356 0.930 . S
C362 C363 1.355 . S
C362 C364 1.415 . S
C363 C362 1.355 . S
C363 C365 1.419 . S
C364 C362 1.415 . S
C364 C369 1.425 . S
C364 C371 1.409 . S
C365 H357 0.930 . S
C365 C363 1.419 . S
C365 C366 1.362 . S
C366 H358 0.930 1_455 S
C366 C365 1.362 . S
C366 C369 1.409 . S
C367 H359 0.930 1_455 S
C367 C368 1.355 . S
C367 C369 1.415 . S
C368 C367 1.355 . S
C368 C370 1.419 . S
C369 C364 1.425 . S
C369 C366 1.409 . S
C369 C367 1.415 . S
C370 H360 0.930 . S
C370 C368 1.419 . S
C370 C371 1.362 . S
C371 H361 0.930 . S
C371 C364 1.409 . S
C371 C370 1.362 . S
C192 C50 1.387 . S
C187 C11 1.361 . S
C203 C26 1.543 . S
C208 C89 1.554 . S
C219 C40 1.408 . S
C224 C156 1.428 . S
C235 C5 1.218 . S
C240 C57 1.404 . S
C256 C110 1.534 . S
C251 C18 1.506 . S
C267 C32 1.417 . S
C272 C135 1.414 . S
C288 C96 1.291 . S
C283 C39 1.267 . S
C299 C4 1.388 1_566 S
C304 C149 1.427 . S
C320 C64 1.413 . S
C315 C19 1.254 . S
C336 C103 1.338 . S
C331 C33 1.230 1_545 S
C352 C142 1.448 . S
C347 C12 1.441 1_556 S
C363 C25 1.366 . S
C368 C43 1.405 . S
