# Generated by pormake.
# Topology ctn, (3,4)-cn, num edge types: 1
# Building blocks:
#     Node 0, Type 0, BuildingBlock: PAMTOO_clean_linker_0, # of connection points: 3
#     Node 1, Type 0, BuildingBlock: PAMTOO_clean_linker_0, # of connection points: 3
#     Node 2, Type 0, BuildingBlock: PAMTOO_clean_linker_0, # of connection points: 3
#     Node 3, Type 0, BuildingBlock: PAMTOO_clean_linker_0, # of connection points: 3
#     Node 4, Type 0, BuildingBlock: PAMTOO_clean_linker_0, # of connection points: 3
#     Node 5, Type 0, BuildingBlock: PAMTOO_clean_linker_0, # of connection points: 3
#     Node 6, Type 0, BuildingBlock: PAMTOO_clean_linker_0, # of connection points: 3
#     Node 7, Type 0, BuildingBlock: PAMTOO_clean_linker_0, # of connection points: 3
#     Node 8, Type 0, BuildingBlock: PAMTOO_clean_linker_0, # of connection points: 3
#     Node 9, Type 0, BuildingBlock: PAMTOO_clean_linker_0, # of connection points: 3
#     Node 10, Type 0, BuildingBlock: PAMTOO_clean_linker_0, # of connection points: 3
#     Node 11, Type 0, BuildingBlock: PAMTOO_clean_linker_0, # of connection points: 3
#     Node 12, Type 0, BuildingBlock: PAMTOO_clean_linker_0, # of connection points: 3
#     Node 13, Type 0, BuildingBlock: PAMTOO_clean_linker_0, # of connection points: 3
#     Node 14, Type 0, BuildingBlock: PAMTOO_clean_linker_0, # of connection points: 3
#     Node 15, Type 0, BuildingBlock: PAMTOO_clean_linker_0, # of connection points: 3
#     Node 16, Type 1, BuildingBlock: TATPOV_clean_sbu_0, # of connection points: 4
#     Node 17, Type 1, BuildingBlock: TATPOV_clean_sbu_0, # of connection points: 4
#     Node 18, Type 1, BuildingBlock: TATPOV_clean_sbu_0, # of connection points: 4
#     Node 19, Type 1, BuildingBlock: TATPOV_clean_sbu_0, # of connection points: 4
#     Node 20, Type 1, BuildingBlock: TATPOV_clean_sbu_0, # of connection points: 4
#     Node 21, Type 1, BuildingBlock: TATPOV_clean_sbu_0, # of connection points: 4
#     Node 22, Type 1, BuildingBlock: TATPOV_clean_sbu_0, # of connection points: 4
#     Node 23, Type 1, BuildingBlock: TATPOV_clean_sbu_0, # of connection points: 4
#     Node 24, Type 1, BuildingBlock: TATPOV_clean_sbu_0, # of connection points: 4
#     Node 25, Type 1, BuildingBlock: TATPOV_clean_sbu_0, # of connection points: 4
#     Node 26, Type 1, BuildingBlock: TATPOV_clean_sbu_0, # of connection points: 4
#     Node 27, Type 1, BuildingBlock: TATPOV_clean_sbu_0, # of connection points: 4
#     Edge 28, Type (0, 1), BuildingBlock: ZUJKAS_clean_linker_0, # of connection points: 2
#     Edge 29, Type (0, 1), BuildingBlock: ZUJKAS_clean_linker_0, # of connection points: 2
#     Edge 30, Type (0, 1), BuildingBlock: ZUJKAS_clean_linker_0, # of connection points: 2
#     Edge 31, Type (0, 1), BuildingBlock: ZUJKAS_clean_linker_0, # of connection points: 2
#     Edge 32, Type (0, 1), BuildingBlock: ZUJKAS_clean_linker_0, # of connection points: 2
#     Edge 33, Type (0, 1), BuildingBlock: ZUJKAS_clean_linker_0, # of connection points: 2
#     Edge 34, Type (0, 1), BuildingBlock: ZUJKAS_clean_linker_0, # of connection points: 2
#     Edge 35, Type (0, 1), BuildingBlock: ZUJKAS_clean_linker_0, # of connection points: 2
#     Edge 36, Type (0, 1), BuildingBlock: ZUJKAS_clean_linker_0, # of connection points: 2
#     Edge 37, Type (0, 1), BuildingBlock: ZUJKAS_clean_linker_0, # of connection points: 2
#     Edge 38, Type (0, 1), BuildingBlock: ZUJKAS_clean_linker_0, # of connection points: 2
#     Edge 39, Type (0, 1), BuildingBlock: ZUJKAS_clean_linker_0, # of connection points: 2
#     Edge 40, Type (0, 1), BuildingBlock: ZUJKAS_clean_linker_0, # of connection points: 2
#     Edge 41, Type (0, 1), BuildingBlock: ZUJKAS_clean_linker_0, # of connection points: 2
#     Edge 42, Type (0, 1), BuildingBlock: ZUJKAS_clean_linker_0, # of connection points: 2
#     Edge 43, Type (0, 1), BuildingBlock: ZUJKAS_clean_linker_0, # of connection points: 2
#     Edge 44, Type (0, 1), BuildingBlock: ZUJKAS_clean_linker_0, # of connection points: 2
#     Edge 45, Type (0, 1), BuildingBlock: ZUJKAS_clean_linker_0, # of connection points: 2
#     Edge 46, Type (0, 1), BuildingBlock: ZUJKAS_clean_linker_0, # of connection points: 2
#     Edge 47, Type (0, 1), BuildingBlock: ZUJKAS_clean_linker_0, # of connection points: 2
#     Edge 48, Type (0, 1), BuildingBlock: ZUJKAS_clean_linker_0, # of connection points: 2
#     Edge 49, Type (0, 1), BuildingBlock: ZUJKAS_clean_linker_0, # of connection points: 2
#     Edge 50, Type (0, 1), BuildingBlock: ZUJKAS_clean_linker_0, # of connection points: 2
#     Edge 51, Type (0, 1), BuildingBlock: ZUJKAS_clean_linker_0, # of connection points: 2
#     Edge 52, Type (0, 1), BuildingBlock: ZUJKAS_clean_linker_0, # of connection points: 2
#     Edge 53, Type (0, 1), BuildingBlock: ZUJKAS_clean_linker_0, # of connection points: 2
#     Edge 54, Type (0, 1), BuildingBlock: ZUJKAS_clean_linker_0, # of connection points: 2
#     Edge 55, Type (0, 1), BuildingBlock: ZUJKAS_clean_linker_0, # of connection points: 2
#     Edge 56, Type (0, 1), BuildingBlock: ZUJKAS_clean_linker_0, # of connection points: 2
#     Edge 57, Type (0, 1), BuildingBlock: ZUJKAS_clean_linker_0, # of connection points: 2
#     Edge 58, Type (0, 1), BuildingBlock: ZUJKAS_clean_linker_0, # of connection points: 2
#     Edge 59, Type (0, 1), BuildingBlock: ZUJKAS_clean_linker_0, # of connection points: 2
#     Edge 60, Type (0, 1), BuildingBlock: ZUJKAS_clean_linker_0, # of connection points: 2
#     Edge 61, Type (0, 1), BuildingBlock: ZUJKAS_clean_linker_0, # of connection points: 2
#     Edge 62, Type (0, 1), BuildingBlock: ZUJKAS_clean_linker_0, # of connection points: 2
#     Edge 63, Type (0, 1), BuildingBlock: ZUJKAS_clean_linker_0, # of connection points: 2
#     Edge 64, Type (0, 1), BuildingBlock: ZUJKAS_clean_linker_0, # of connection points: 2
#     Edge 65, Type (0, 1), BuildingBlock: ZUJKAS_clean_linker_0, # of connection points: 2
#     Edge 66, Type (0, 1), BuildingBlock: ZUJKAS_clean_linker_0, # of connection points: 2
#     Edge 67, Type (0, 1), BuildingBlock: ZUJKAS_clean_linker_0, # of connection points: 2
#     Edge 68, Type (0, 1), BuildingBlock: ZUJKAS_clean_linker_0, # of connection points: 2
#     Edge 69, Type (0, 1), BuildingBlock: ZUJKAS_clean_linker_0, # of connection points: 2
#     Edge 70, Type (0, 1), BuildingBlock: ZUJKAS_clean_linker_0, # of connection points: 2
#     Edge 71, Type (0, 1), BuildingBlock: ZUJKAS_clean_linker_0, # of connection points: 2
#     Edge 72, Type (0, 1), BuildingBlock: ZUJKAS_clean_linker_0, # of connection points: 2
#     Edge 73, Type (0, 1), BuildingBlock: ZUJKAS_clean_linker_0, # of connection points: 2
#     Edge 74, Type (0, 1), BuildingBlock: ZUJKAS_clean_linker_0, # of connection points: 2
#     Edge 75, Type (0, 1), BuildingBlock: ZUJKAS_clean_linker_0, # of connection points: 2
# Relax obj value: 0.066
# Max RMSD: 0.186
# Mean RMSD: 0.118
data_MOF--net-ctn--node1-TATPOV_clean_sbu_0--node2-PAMTOO_clean_linker_0--edge1-ZUJKAS_clean_linker_0
_symmetry_space_group_name_H-M    P1
_symmetry_Int_Tables_number       1
_symmetry_cell_setting            triclinic
loop_
_symmetry_equiv_pos_as_xyz
'x, y, z'
_cell_length_a     69.841915
_cell_length_b     70.262497
_cell_length_c     71.350923
_cell_angle_alpha  86.272456
_cell_angle_beta   93.458807
_cell_angle_gamma 98.339289
loop_
_atom_site_label
_atom_site_type_symbol
_atom_site_fract_x
_atom_site_fract_y
_atom_site_fract_z
_atom_type_partial_charge
H0 H 0.01125 0.06423 0.04866 0.0
H1 H 0.03548 0.01352 0.06974 0.0
H2 H 0.05733 0.04528 0.02036 0.0
H3 H 0.05027 0.00341 0.01845 0.0
C4 C 0.05541 0.99912 0.03297 0.0
O5 O 0.06024 0.01524 0.04331 0.0
H6 H 0.04333 0.98939 0.03955 0.0
C7 C 0.02146 0.05417 0.04762 0.0
C8 C 0.03418 0.05679 0.03279 0.0
C9 C 0.02179 0.03868 0.06114 0.0
C10 C 0.03508 0.02566 0.05964 0.0
C11 C 0.04767 0.02797 0.04481 0.0
C12 C 0.04728 0.04353 0.03154 0.0
H13 H 0.29464 0.68904 0.26698 0.0
H14 H 0.25586 0.70689 0.22214 0.0
H15 H 0.31058 0.74139 0.2331 0.0
H16 H 0.27948 0.76434 0.22274 0.0
C17 C 0.26972 0.75393 0.21418 0.0
O18 O 0.27867 0.73802 0.21187 0.0
H19 H 0.25612 0.74936 0.22167 0.0
C20 C 0.29133 0.69925 0.25564 0.0
C21 C 0.30484 0.71571 0.25162 0.0
C22 C 0.27365 0.69576 0.24504 0.0
C23 C 0.26944 0.70914 0.2304 0.0
C24 C 0.28267 0.72559 0.22634 0.0
C25 C 0.30033 0.7288 0.2368 0.0
H26 H 0.9774 0.47318 0.11034 0.0
H27 H 0.95217 0.44559 0.06072 0.0
H28 H 0.00182 0.42605 0.08984 0.0
H29 H 0.00173 0.43565 0.04809 0.0
C30 C 0.98742 0.42708 0.04446 0.0
O31 O 0.97761 0.42165 0.06062 0.0
H32 H 0.97893 0.43633 0.03499 0.0
C33 C 0.97734 0.46236 0.10016 0.0
C34 C 0.99125 0.44967 0.1021 0.0
C35 C 0.96305 0.46091 0.0854 0.0
C36 C 0.96282 0.44665 0.07244 0.0
C37 C 0.97694 0.43429 0.07397 0.0
C38 C 0.99093 0.43564 0.08889 0.0
H39 H 0.72263 0.80612 0.25056 0.0
H40 H 0.70307 0.74877 0.23273 0.0
H41 H 0.75112 0.78329 0.20688 0.0
H42 H 0.71875 0.76281 0.18261 0.0
C43 C 0.71824 0.74847 0.19037 0.0
O44 O 0.72873 0.75014 0.20733 0.0
H45 H 0.70279 0.74305 0.19295 0.0
C46 C 0.72401 0.79444 0.24175 0.0
C47 C 0.73854 0.79689 0.22862 0.0
C48 C 0.71106 0.77716 0.24343 0.0
C49 C 0.71301 0.76212 0.23192 0.0
C50 C 0.72732 0.76447 0.21871 0.0
C51 C 0.74004 0.78176 0.21709 0.0
H52 H 0.08983 0.96986 0.49768 0.0
H53 H 0.03791 0.95644 0.46236 0.0
H54 H 0.07835 0.00659 0.44886 0.0
H55 H 0.0383 0.0131 0.44456 0.0
C56 C 0.03119 0.99848 0.44093 0.0
O57 O 0.04508 0.98668 0.43934 0.0
H58 H 0.02154 0.99266 0.45245 0.0
C59 C 0.08078 0.97298 0.48531 0.0
C60 C 0.08641 0.98951 0.47366 0.0
C61 C 0.06329 0.96087 0.48149 0.0
C62 C 0.05138 0.96558 0.46576 0.0
C63 C 0.05678 0.98211 0.45421 0.0
C64 C 0.07426 0.99397 0.45809 0.0
H65 H 0.19927 0.76162 0.78865 0.0
H66 H 0.21709 0.71912 0.75498 0.0
H67 H 0.24704 0.73177 0.80793 0.0
H68 H 0.27341 0.7249 0.77947 0.0
C69 C 0.26296 0.71631 0.76983 0.0
O70 O 0.2455 0.7113 0.77827 0.0
H71 H 0.26075 0.72526 0.75662 0.0
C72 C 0.20877 0.75113 0.78648 0.0
C73 C 0.22336 0.74797 0.80027 0.0
C74 C 0.20616 0.74073 0.77011 0.0
C75 C 0.21884 0.72743 0.7674 0.0
C76 C 0.23361 0.72434 0.78094 0.0
C77 C 0.23568 0.73438 0.79746 0.0
H78 H 0.94033 0.56638 0.51393 0.0
H79 H 0.95979 0.53839 0.46805 0.0
H80 H 0.99632 0.58595 0.4919 0.0
H81 H 0.9989 0.58601 0.45087 0.0
C82 C 0.99352 0.57052 0.44899 0.0
O83 O 0.99299 0.56062 0.46634 0.0
H84 H 0.97873 0.56945 0.44203 0.0
C85 C 0.95123 0.56515 0.50408 0.0
C86 C 0.96875 0.57786 0.50471 0.0
C87 C 0.94769 0.55083 0.49091 0.0
C88 C 0.96196 0.54945 0.47818 0.0
C89 C 0.97937 0.56214 0.47859 0.0
C90 C 0.9828 0.5762 0.49186 0.0
H91 H 0.81594 0.83367 0.88138 0.0
H92 H 0.86174 0.81142 0.85557 0.0
H93 H 0.83504 0.85698 0.82719 0.0
H94 H 0.84297 0.83071 0.80088 0.0
C95 C 0.8528 0.82253 0.80999 0.0
O96 O 0.86024 0.83336 0.82492 0.0
H97 H 0.84419 0.80882 0.81527 0.0
C98 C 0.82561 0.83407 0.87 0.0
C99 C 0.82404 0.84728 0.85447 0.0
C100 C 0.83911 0.82095 0.87063 0.0
C101 C 0.85125 0.82137 0.85554 0.0
C102 C 0.8497 0.83432 0.84001 0.0
C103 C 0.83638 0.84741 0.83959 0.0
H104 H 0.31192 0.32935 0.37495 0.0
H105 H 0.36019 0.3083 0.35234 0.0
H106 H 0.33539 0.35452 0.32297 0.0
H107 H 0.34417 0.32831 0.29701 0.0
C108 C 0.35358 0.31996 0.30643 0.0
O109 O 0.36035 0.33052 0.32174 0.0
H110 H 0.34469 0.30621 0.31121 0.0
C111 C 0.32273 0.33045 0.36451 0.0
C112 C 0.32204 0.34387 0.349 0.0
C113 C 0.33646 0.31755 0.36597 0.0
C114 C 0.34961 0.31821 0.35171 0.0
C115 C 0.34897 0.33136 0.33622 0.0
C116 C 0.33557 0.34441 0.33508 0.0
H117 H 0.47731 0.9721 0.61065 0.0
H118 H 0.45509 0.94725 0.55874 0.0
H119 H 0.49813 0.92166 0.59274 0.0
H120 H 0.50428 0.93178 0.55157 0.0
C121 C 0.48974 0.9249 0.54626 0.0
O122 O 0.47769 0.92054 0.56106 0.0
H123 H 0.48359 0.93529 0.53601 0.0
C124 C 0.47679 0.96088 0.60084 0.0
C125 C 0.48912 0.94669 0.60408 0.0
C126 C 0.46434 0.96123 0.58462 0.0
C127 C 0.46448 0.94727 0.57139 0.0
C128 C 0.47691 0.9333 0.57428 0.0
C129 C 0.48894 0.93285 0.59065 0.0
H130 H 0.22383 0.30039 0.75449 0.0
H131 H 0.20355 0.24336 0.73616 0.0
H132 H 0.25142 0.27789 0.71002 0.0
H133 H 0.21965 0.25799 0.68573 0.0
C134 C 0.21875 0.24354 0.6933 0.0
O135 O 0.22894 0.2448 0.71047 0.0
H136 H 0.20324 0.23825 0.69569 0.0
C137 C 0.22493 0.28881 0.74547 0.0
C138 C 0.23923 0.29134 0.7321 0.0
C139 C 0.21191 0.27158 0.74714 0.0
C140 C 0.21353 0.25668 0.73534 0.0
C141 C 0.22769 0.25908 0.72196 0.0
C142 C 0.24048 0.27631 0.72037 0.0
H143 H 0.79489 0.19076 0.76928 0.0
H144 H 0.7557 0.20839 0.72455 0.0
H145 H 0.81078 0.24271 0.73505 0.0
H146 H 0.77889 0.26543 0.72659 0.0
C147 C 0.76934 0.25556 0.7173 0.0
O148 O 0.77827 0.23979 0.7144 0.0
H149 H 0.75551 0.25072 0.72431 0.0
C150 C 0.7914 0.20081 0.75783 0.0
C151 C 0.80493 0.21705 0.7534 0.0
C152 C 0.7736 0.19735 0.74743 0.0
C153 C 0.76924 0.21077 0.73287 0.0
C154 C 0.78255 0.22715 0.72857 0.0
C155 C 0.80047 0.23011 0.73862 0.0
H156 H 0.50777 0.56398 0.54997 0.0
H157 H 0.53428 0.51405 0.56902 0.0
H158 H 0.55343 0.54728 0.51937 0.0
H159 H 0.54935 0.50603 0.51667 0.0
C160 C 0.55402 0.50146 0.53127 0.0
O161 O 0.55848 0.51739 0.54192 0.0
H162 H 0.5417 0.4916 0.53733 0.0
C163 C 0.51803 0.55416 0.5481 0.0
C164 C 0.53025 0.55759 0.53289 0.0
C165 C 0.51928 0.53854 0.56127 0.0
C166 C 0.53317 0.52629 0.55917 0.0
C167 C 0.54541 0.52947 0.54405 0.0
C168 C 0.54401 0.54514 0.53107 0.0
H169 H 0.59201 0.46786 0.99647 0.0
H170 H 0.54032 0.45364 0.96102 0.0
H171 H 0.58007 0.5043 0.94756 0.0
H172 H 0.53973 0.51004 0.94347 0.0
C173 C 0.53293 0.49541 0.93956 0.0
O174 O 0.54709 0.48392 0.938 0.0
H175 H 0.52316 0.48925 0.95088 0.0
C176 C 0.58293 0.47083 0.98407 0.0
C177 C 0.58834 0.48741 0.97241 0.0
C178 C 0.5656 0.45848 0.98023 0.0
C179 C 0.55366 0.46297 0.96446 0.0
C180 C 0.55884 0.47955 0.95289 0.0
C181 C 0.57615 0.49166 0.9568 0.0
H182 H 0.70031 0.26342 0.28871 0.0
H183 H 0.72154 0.2231 0.25497 0.0
H184 H 0.75129 0.23809 0.30736 0.0
H185 H 0.77813 0.23138 0.27894 0.0
C186 C 0.76771 0.22249 0.26952 0.0
O187 O 0.7505 0.21707 0.27829 0.0
H188 H 0.76505 0.23125 0.25629 0.0
C189 C 0.71087 0.25403 0.28647 0.0
C190 C 0.72597 0.25218 0.30013 0.0
C191 C 0.70907 0.24369 0.27007 0.0
C192 C 0.7228 0.23149 0.26731 0.0
C193 C 0.73794 0.22954 0.28075 0.0
C194 C 0.73949 0.23979 0.29711 0.0
H195 H 0.43855 0.07055 0.00674 0.0
H196 H 0.45457 0.04478 0.95793 0.0
H197 H 0.49445 0.08874 0.98389 0.0
H198 H 0.49623 0.09111 0.94325 0.0
C199 C 0.49063 0.0759 0.94029 0.0
O200 O 0.48906 0.06484 0.95695 0.0
H201 H 0.47615 0.07563 0.93277 0.0
C202 C 0.44894 0.06958 0.99628 0.0
C203 C 0.46699 0.08143 0.99706 0.0
C204 C 0.44423 0.05634 0.98221 0.0
C205 C 0.45777 0.05509 0.96873 0.0
C206 C 0.47583 0.06671 0.96948 0.0
C207 C 0.48045 0.07977 0.98361 0.0
Zn208 Zn 0.27881 0.86258 0.99913 0.0
Zn209 Zn 0.24754 0.87916 1.00001 0.0
O210 O 0.24813 0.86239 0.0253 0.0
O211 O 0.27301 0.84692 0.02297 0.0
O212 O 0.22417 0.89332 0.00145 0.0
O213 O 0.29622 0.8876 1.00008 0.0
O214 O 0.27015 0.902 0.99775 0.0
C215 C 0.25895 0.85017 0.03207 0.0
C216 C 0.253 0.85442 0.96719 0.0
O217 O 0.24199 0.86358 0.97578 0.0
O218 O 0.26978 0.85253 0.97408 0.0
C219 C 0.20962 0.88698 0.01113 0.0
O220 O 0.20902 0.87006 0.02024 0.0
C221 C 0.28858 0.90291 0.99854 0.0
Zn222 Zn 0.11607 0.44587 0.31131 0.0
Zn223 Zn 0.1382 0.47963 0.30146 0.0
O224 O 0.12136 0.48715 0.3216 0.0
O225 O 0.10267 0.46012 0.32933 0.0
O226 O 0.15501 0.5046 0.29462 0.0
O227 O 0.14045 0.4346 0.31996 0.0
O228 O 0.15808 0.46172 0.31057 0.0
C229 C 0.10779 0.47798 0.33117 0.0
C230 C 0.11081 0.4582 0.27208 0.0
O231 O 0.12298 0.47262 0.27682 0.0
O232 O 0.1058 0.44457 0.28409 0.0
C233 C 0.14794 0.51852 0.28583 0.0
O234 O 0.12933 0.51646 0.28103 0.0
C235 C 0.15689 0.44451 0.3177 0.0
Zn236 Zn 0.8146 0.61109 0.99377 0.0
Zn237 Zn 0.80622 0.62523 0.02586 0.0
O238 O 0.8269 0.60784 0.03494 0.0
O239 O 0.83517 0.59807 0.00821 0.0
O240 O 0.79993 0.63752 0.04914 0.0
O241 O 0.82133 0.63773 0.98191 0.0
O242 O 0.81529 0.64923 0.00855 0.0
C243 C 0.83724 0.59835 0.02595 0.0
C244 C 0.77499 0.59945 0.00331 0.0
O245 O 0.78017 0.60992 0.01717 0.0
O246 O 0.78712 0.59741 0.99135 0.0
C247 C 0.78818 0.62922 0.06105 0.0
O248 O 0.78013 0.61137 0.05876 0.0
C249 C 0.82053 0.65199 0.99165 0.0
Zn250 Zn 0.85106 0.0107 0.27567 0.0
Zn251 Zn 0.87422 0.01846 0.24741 0.0
O252 O 0.86061 0.0432 0.24696 0.0
O253 O 0.84224 0.03647 0.2712 0.0
O254 O 0.89275 0.02315 0.22616 0.0
O255 O 0.8735 0.00761 0.29397 0.0
O256 O 0.89299 0.01518 0.27071 0.0
C257 C 0.84838 0.04798 0.25779 0.0
C258 C 0.84206 0.98301 0.24808 0.0
O259 O 0.85649 0.99314 0.24041 0.0
O260 O 0.83639 0.9878 0.26338 0.0
C261 C 0.88713 0.02455 0.2089 0.0
O262 O 0.8685 0.0236 0.20442 0.0
C263 C 0.89048 0.0107 0.2881 0.0
Zn264 Zn 0.31422 0.10921 0.49291 0.0
Zn265 Zn 0.30681 0.12432 0.52481 0.0
O266 O 0.32815 0.10764 0.53385 0.0
O267 O 0.33475 0.09616 0.50734 0.0
O268 O 0.30086 0.13736 0.54775 0.0
O269 O 0.32111 0.13559 0.48041 0.0
O270 O 0.31516 0.14782 0.5067 0.0
C271 C 0.33784 0.09745 0.52491 0.0
C272 C 0.27495 0.09798 0.50348 0.0
O273 O 0.28061 0.10855 0.51717 0.0
O274 O 0.28664 0.09583 0.49114 0.0
C275 C 0.29164 0.12874 0.5614 0.0
O276 O 0.28621 0.11005 0.56129 0.0
C277 C 0.32026 0.15012 0.48975 0.0
Zn278 Zn 0.35077 0.50654 0.77783 0.0
Zn279 Zn 0.37306 0.51434 0.7488 0.0
O280 O 0.35877 0.53863 0.74826 0.0
O281 O 0.34098 0.53183 0.77291 0.0
O282 O 0.39121 0.51916 0.72726 0.0
O283 O 0.37381 0.50468 0.79571 0.0
O284 O 0.39242 0.5119 0.77174 0.0
C285 C 0.34654 0.54322 0.75921 0.0
C286 C 0.34187 0.47818 0.75074 0.0
O287 O 0.35575 0.4886 0.74247 0.0
O288 O 0.3366 0.48299 0.76621 0.0
C289 C 0.38549 0.51998 0.70999 0.0
O290 O 0.36681 0.51831 0.70556 0.0
C291 C 0.39054 0.50793 0.7893 0.0
Zn292 Zn 0.77476 0.36009 0.49993 0.0
Zn293 Zn 0.74544 0.3789 0.5015 0.0
O294 O 0.74689 0.36395 0.52781 0.0
O295 O 0.77368 0.35107 0.52692 0.0
O296 O 0.72297 0.39428 0.50306 0.0
O297 O 0.79238 0.38403 0.4924 0.0
O298 O 0.7688 0.40048 0.49724 0.0
C299 C 0.75944 0.35416 0.53584 0.0
C300 C 0.7454 0.34797 0.47251 0.0
O301 O 0.73782 0.36185 0.47838 0.0
O302 O 0.76099 0.34351 0.48033 0.0
C303 C 0.70841 0.38846 0.5129 0.0
O304 O 0.70738 0.37154 0.52207 0.0
C305 C 0.78627 0.40004 0.49318 0.0
Zn306 Zn 0.61823 0.94679 0.81351 0.0
Zn307 Zn 0.63914 0.98045 0.80106 0.0
O308 O 0.62313 0.98879 0.82134 0.0
O309 O 0.6056 0.96194 0.83151 0.0
O310 O 0.65529 0.00526 0.79258 0.0
O311 O 0.64321 0.93631 0.82138 0.0
O312 O 0.65973 0.96337 0.81035 0.0
C313 C 0.61036 0.98001 0.83205 0.0
C314 C 0.61081 0.957 0.77397 0.0
O315 O 0.62277 0.97199 0.77747 0.0
O316 O 0.60681 0.94389 0.78677 0.0
C317 C 0.64768 0.02038 0.788 0.0
O318 O 0.62881 0.01965 0.78842 0.0
C319 C 0.65931 0.94647 0.81813 0.0
Zn320 Zn 0.0186 0.29195 0.86806 0.0
Zn321 Zn 0.01857 0.25871 0.88822 0.0
O322 O 0.04389 0.26123 0.8738 0.0
O323 O 0.04342 0.2884 0.85671 0.0
O324 O 0.01936 0.23443 0.90505 0.0
O325 O 0.01931 0.30678 0.89119 0.0
O326 O 0.0172 0.27914 0.90779 0.0
C327 C 0.05157 0.27378 0.8617 0.0
C328 C 0.98512 0.26407 0.85946 0.0
O329 O 0.99355 0.2531 0.87118 0.0
O330 O 0.99268 0.28136 0.85604 0.0
C331 C 0.02244 0.21847 0.89922 0.0
O332 O 0.02495 0.21727 0.88125 0.0
C333 C 0.01791 0.29743 0.90692 0.0
Zn334 Zn 0.51721 0.79325 0.36749 0.0
Zn335 Zn 0.51832 0.75965 0.38658 0.0
O336 O 0.54323 0.76369 0.37134 0.0
O337 O 0.54217 0.79152 0.3556 0.0
O338 O 0.52077 0.7347 0.40191 0.0
O339 O 0.51729 0.80692 0.39129 0.0
O340 O 0.51667 0.77896 0.40719 0.0
C341 C 0.55059 0.7769 0.35968 0.0
C342 C 0.48435 0.76486 0.35831 0.0
O343 O 0.49293 0.754 0.37003 0.0
O344 O 0.49174 0.78221 0.35498 0.0
C345 C 0.5066 0.72483 0.41008 0.0
O346 O 0.48954 0.73075 0.40828 0.0
C347 C 0.51656 0.79713 0.40682 0.0
Zn348 Zn 0.96482 0.77284 0.62244 0.0
Zn349 Zn 0.99949 0.77185 0.64081 0.0
O350 O 0.00554 0.79439 0.62124 0.0
O351 O 0.97709 0.79572 0.6065 0.0
O352 O 0.02488 0.77044 0.65545 0.0
O353 O 0.95293 0.77697 0.64659 0.0
O354 O 0.9815 0.77687 0.66136 0.0
C355 C 0.99496 0.80213 0.60862 0.0
C356 C 0.97969 0.73733 0.61895 0.0
O357 O 0.99378 0.74548 0.6291 0.0
O358 O 0.96526 0.74595 0.61431 0.0
C359 C 0.03989 0.76716 0.64768 0.0
O360 O 0.03897 0.76496 0.62948 0.0
C361 C 0.96355 0.77844 0.66158 0.0
Zn362 Zn 0.46726 0.27014 0.12082 0.0
Zn363 Zn 0.50193 0.26925 0.13925 0.0
O364 O 0.50805 0.29165 0.11958 0.0
O365 O 0.47967 0.29277 0.10462 0.0
O366 O 0.52723 0.26794 0.15403 0.0
O367 O 0.45539 0.27471 0.14485 0.0
O368 O 0.48391 0.27444 0.15967 0.0
C369 C 0.49752 0.29923 0.1068 0.0
C370 C 0.4821 0.23451 0.11779 0.0
O371 O 0.49628 0.2428 0.12771 0.0
O372 O 0.4676 0.24306 0.11318 0.0
C373 C 0.54248 0.26517 0.14638 0.0
O374 O 0.54192 0.26338 0.12813 0.0
C375 C 0.466 0.27618 0.15985 0.0
H376 H 0.22566 0.78679 0.80286 0.0
H377 H 0.2286 0.80473 0.83143 0.0
H378 H 0.22755 0.75145 0.86529 0.0
H379 H 0.22535 0.73356 0.8367 0.0
H380 H 0.20565 0.80452 0.85972 0.0
H381 H 0.27512 0.78184 0.88768 0.0
H382 H 0.26532 0.77698 0.86426 0.0
H383 H 0.25644 0.76185 0.88413 0.0
C384 C 0.22617 0.77895 0.81643 0.0
C385 C 0.22549 0.75882 0.8176 0.0
C386 C 0.22779 0.78919 0.83274 0.0
C387 C 0.2286 0.77951 0.85056 0.0
C388 C 0.2275 0.75933 0.85174 0.0
H389 H 0.21718 0.83589 0.95568 0.0
H390 H 0.20946 0.81769 0.92722 0.0
C391 C 0.2262 0.7491 0.83541 0.0
C392 C 0.23067 0.79061 0.86781 0.0
H393 H 0.25913 0.79911 0.9078 0.0
C394 C 0.21738 0.80339 0.87023 0.0
C395 C 0.24607 0.78928 0.88144 0.0
C396 C 0.26166 0.7769 0.87919 0.0
C397 C 0.21916 0.81496 0.88578 0.0
C398 C 0.23434 0.81332 0.89959 0.0
C399 C 0.24743 0.80033 0.89728 0.0
C400 C 0.23787 0.82564 0.91601 0.0
C401 C 0.20518 0.82928 0.88689 0.0
C402 C 0.25631 0.83615 0.91923 0.0
C403 C 0.26081 0.84607 0.93556 0.0
C404 C 0.24688 0.84601 0.94897 0.0
C405 C 0.22809 0.83632 0.94543 0.0
C406 C 0.22368 0.82598 0.92915 0.0
H407 H 0.19798 0.83244 0.87295 0.0
H408 H 0.19373 0.8232 0.89661 0.0
H409 H 0.21264 0.84302 0.89232 0.0
H410 H 0.26748 0.83625 0.9093 0.0
H411 H 0.27539 0.85351 0.9379 0.0
H412 H 0.9876 0.53463 0.43558 0.0
H413 H 0.00851 0.52012 0.41584 0.0
H414 H 0.04897 0.57274 0.4149 0.0
H415 H 0.02828 0.58709 0.43499 0.0
H416 H 0.01999 0.53209 0.38031 0.0
H417 H 0.08402 0.53239 0.43047 0.0
H418 H 0.06064 0.53646 0.43755 0.0
H419 H 0.07615 0.55552 0.42564 0.0
C420 C 0.00101 0.543 0.43119 0.0
C421 C 0.0064 0.5619 0.43676 0.0
C422 C 0.01291 0.53475 0.41994 0.0
C423 C 0.03042 0.54526 0.41413 0.0
C424 C 0.03574 0.56423 0.41956 0.0
H425 H 0.11563 0.51586 0.33997 0.0
H426 H 0.09725 0.53297 0.35993 0.0
C427 C 0.02387 0.57246 0.43089 0.0
C428 C 0.04278 0.53644 0.40196 0.0
H429 H 0.08763 0.52295 0.39972 0.0
C430 C 0.03477 0.53008 0.38457 0.0
C431 C 0.06209 0.5339 0.40753 0.0
C432 C 0.07122 0.53976 0.42638 0.0
C433 C 0.04553 0.52121 0.37258 0.0
C434 C 0.06473 0.51849 0.37824 0.0
C435 C 0.0729 0.52512 0.39546 0.0
C436 C 0.07624 0.50808 0.36672 0.0
C437 C 0.03634 0.51489 0.3539 0.0
C438 C 0.07068 0.48838 0.36428 0.0
C439 C 0.08114 0.47856 0.353 0.0
C440 C 0.09739 0.48827 0.34392 0.0
C441 C 0.10316 0.50797 0.34671 0.0
C442 C 0.0927 0.51777 0.3581 0.0
H443 H 0.02328 0.52185 0.34982 0.0
H444 H 0.04682 0.51829 0.34264 0.0
H445 H 0.03187 0.49906 0.35487 0.0
H446 H 0.05815 0.48063 0.37104 0.0
H447 H 0.07632 0.4634 0.35122 0.0
H448 H 0.83563 0.82481 0.90837 0.0
H449 H 0.83525 0.79959 0.93385 0.0
H450 H 0.84358 0.75834 0.894 0.0
H451 H 0.84343 0.78312 0.86849 0.0
H452 H 0.80898 0.76338 0.93548 0.0
H453 H 0.88607 0.75251 0.93669 0.0
H454 H 0.8775 0.77414 0.92647 0.0
H455 H 0.87442 0.75268 0.91354 0.0
C456 C 0.83734 0.81036 0.90503 0.0
C457 C 0.8397 0.80605 0.88637 0.0
C458 C 0.83724 0.79602 0.91961 0.0
C459 C 0.83972 0.77723 0.91581 0.0
C460 C 0.8421 0.77289 0.89727 0.0
H461 H 0.83245 0.66228 0.9563 0.0
H462 H 0.83801 0.69446 0.94106 0.0
C463 C 0.84207 0.78711 0.88271 0.0
C464 C 0.83883 0.7617 0.93089 0.0
H465 H 0.86415 0.72688 0.95081 0.0
C466 C 0.82111 0.7556 0.93919 0.0
C467 C 0.85474 0.75168 0.93567 0.0
C468 C 0.87433 0.75817 0.92777 0.0
C469 C 0.81849 0.73887 0.95118 0.0
C470 C 0.83414 0.72825 0.95518 0.0
C471 C 0.85216 0.73502 0.94768 0.0
C472 C 0.83155 0.70901 0.96523 0.0
C473 C 0.7987 0.73202 0.95852 0.0
C474 C 0.82635 0.70653 0.98403 0.0
C475 C 0.82306 0.68802 0.99284 0.0
C476 C 0.82501 0.67175 0.98298 0.0
C477 C 0.83073 0.67444 0.96432 0.0
C478 C 0.83397 0.69285 0.95557 0.0
H479 H 0.78743 0.74011 0.95157 0.0
H480 H 0.79436 0.71645 0.95638 0.0
H481 H 0.79914 0.73404 0.97385 0.0
H482 H 0.82472 0.71887 0.99182 0.0
H483 H 0.81877 0.68646 0.00726 0.0
H484 H 0.03578 0.02627 0.4121 0.0
H485 H 0.01528 0.02891 0.3831 0.0
H486 H 0.97982 0.97571 0.39974 0.0
H487 H 1.0004 0.97299 0.42867 0.0
H488 H 0.98893 0.97971 0.36062 0.0
H489 H 0.95978 0.04319 0.38455 0.0
H490 H 0.98573 0.04511 0.38442 0.0
H491 H 0.9727 0.0278 0.40036 0.0
C492 C 0.02362 0.01516 0.40949 0.0
C493 C 0.0193 0.99968 0.42273 0.0
C494 C 0.01195 0.01667 0.39298 0.0
C495 C 0.99587 0.00266 0.38946 0.0
C496 C 0.99211 0.98672 0.40227 0.0
H497 H 0.88945 0.003 0.32596 0.0
H498 H 0.91661 0.00144 0.34878 0.0
C499 C 0.00376 0.98522 0.41878 0.0
C500 C 0.98237 0.00502 0.37294 0.0
H501 H 0.94814 0.03223 0.35498 0.0
C502 C 0.98013 0.99128 0.35924 0.0
C503 C 0.97084 0.02007 0.37133 0.0
C504 C 0.97219 0.03484 0.38598 0.0
C505 C 0.96638 0.99204 0.34409 0.0
C506 C 0.95472 0.00697 0.34262 0.0
C507 C 0.95724 0.0209 0.35612 0.0
C508 C 0.93856 0.00744 0.32827 0.0
C509 C 0.96386 0.9765 0.33016 0.0
C510 C 0.94194 0.01134 0.30911 0.0
C511 C 0.92636 0.0123 0.29591 0.0
C512 C 0.90719 0.00936 0.30171 0.0
C513 C 0.90398 0.00533 0.32094 0.0
C514 C 0.91949 0.00445 0.33405 0.0
H515 H 0.9722 0.96455 0.33471 0.0
H516 H 0.94831 0.97052 0.32814 0.0
H517 H 0.96892 0.98279 0.31635 0.0
H518 H 0.95661 0.0139 0.30443 0.0
H519 H 0.92933 0.01546 0.28122 0.0
H520 H 0.25628 0.24567 0.68348 0.0
H521 H 0.26962 0.22533 0.66225 0.0
H522 H 0.21322 0.19179 0.65442 0.0
H523 H 0.19987 0.21204 0.67562 0.0
H524 H 0.26866 0.18326 0.66435 0.0
H525 H 0.22999 0.21154 0.60045 0.0
H526 H 0.23322 0.22386 0.6221 0.0
H527 H 0.21515 0.20307 0.61986 0.0
C528 C 0.24684 0.23381 0.67735 0.0
C529 C 0.22712 0.2303 0.68126 0.0
C530 C 0.25443 0.22225 0.66526 0.0
C531 C 0.24236 0.20717 0.65669 0.0
C532 C 0.22272 0.20347 0.66077 0.0
H533 H 0.27226 0.1151 0.59292 0.0
H534 H 0.26116 0.13393 0.61678 0.0
C535 C 0.21514 0.21497 0.67292 0.0
C536 C 0.2502 0.19561 0.6431 0.0
H537 H 0.24736 0.18566 0.59673 0.0
C538 C 0.26404 0.18376 0.64956 0.0
C539 C 0.24426 0.19648 0.6238 0.0
C540 C 0.22995 0.20952 0.61602 0.0
C541 C 0.2719 0.17251 0.63722 0.0
C542 C 0.26567 0.1731 0.61799 0.0
C543 C 0.25201 0.18515 0.61151 0.0
C544 C 0.2733 0.16157 0.60422 0.0
C545 C 0.28703 0.1603 0.64476 0.0
C546 C 0.28369 0.17088 0.58921 0.0
C547 C 0.29004 0.16019 0.57557 0.0
C548 C 0.28596 0.13995 0.57656 0.0
C549 C 0.2757 0.13065 0.59175 0.0
C550 C 0.26942 0.14138 0.60545 0.0
H551 H 0.29325 0.16458 0.65882 0.0
H552 H 0.2803 0.145 0.64613 0.0
H553 H 0.29896 0.16136 0.63498 0.0
H554 H 0.28676 0.18646 0.58798 0.0
H555 H 0.29786 0.16783 0.56405 0.0
H556 H 0.48034 0.54019 0.55977 0.0
H557 H 0.45865 0.53633 0.58586 0.0
H558 H 0.50607 0.52505 0.62452 0.0
H559 H 0.528 0.5292 0.59848 0.0
H560 H 0.4502 0.50361 0.61214 0.0
H561 H 0.48357 0.5698 0.6471 0.0
H562 H 0.48768 0.5658 0.62301 0.0
H563 H 0.49984 0.55343 0.64193 0.0
C564 C 0.4862 0.537 0.57384 0.0
C565 C 0.50595 0.53517 0.57707 0.0
C566 C 0.47376 0.53469 0.58871 0.0
C567 C 0.4808 0.53067 0.60715 0.0
C568 C 0.5004 0.52843 0.61042 0.0
H569 H 0.42482 0.52029 0.71423 0.0
H570 H 0.44795 0.52221 0.68952 0.0
C571 C 0.51287 0.53063 0.59551 0.0
C572 C 0.46752 0.52882 0.62288 0.0
H573 H 0.45804 0.55028 0.66227 0.0
C574 C 0.45191 0.51379 0.62312 0.0
C575 C 0.46982 0.54208 0.63721 0.0
C576 C 0.48603 0.5588 0.63734 0.0
C577 C 0.43859 0.51159 0.63738 0.0
C578 C 0.44065 0.52508 0.65154 0.0
C579 C 0.45642 0.53998 0.65141 0.0
C580 C 0.42653 0.52408 0.66652 0.0
C581 C 0.42266 0.49461 0.63732 0.0
C582 C 0.40681 0.52486 0.66187 0.0
C583 C 0.39352 0.52368 0.67596 0.0
C584 C 0.3997 0.52191 0.69505 0.0
C585 C 0.41953 0.5216 0.69969 0.0
C586 C 0.4328 0.5227 0.68557 0.0
H587 H 0.42641 0.48282 0.62918 0.0
H588 H 0.41959 0.4888 0.65184 0.0
H589 H 0.40922 0.49927 0.63061 0.0
H590 H 0.40168 0.52645 0.6473 0.0
H591 H 0.3784 0.52413 0.67188 0.0
H592 H 0.73482 0.26535 0.70165 0.0
H593 H 0.72917 0.28268 0.67122 0.0
H594 H 0.78997 0.28743 0.66112 0.0
H595 H 0.79571 0.27026 0.69155 0.0
H596 H 0.74949 0.32155 0.65722 0.0
H597 H 0.75907 0.2604 0.61475 0.0
H598 H 0.75321 0.25721 0.63919 0.0
H599 H 0.77757 0.26607 0.63298 0.0
C600 C 0.74695 0.2701 0.6929 0.0
C601 C 0.76567 0.26627 0.69876 0.0
C602 C 0.74371 0.28002 0.6756 0.0
C603 C 0.75912 0.28612 0.6639 0.0
C604 C 0.77787 0.28263 0.66989 0.0
H605 H 0.78726 0.33954 0.55816 0.0
H606 H 0.78448 0.32387 0.58943 0.0
C607 C 0.78113 0.27284 0.6872 0.0
C608 C 0.75574 0.29594 0.64527 0.0
H609 H 0.75898 0.29092 0.59841 0.0
C610 C 0.75129 0.31484 0.6443 0.0
C611 C 0.75799 0.28703 0.62852 0.0
C612 C 0.76206 0.2665 0.62879 0.0
C613 C 0.7501 0.32547 0.62696 0.0
C614 C 0.75313 0.31678 0.61026 0.0
C615 C 0.75672 0.29758 0.61124 0.0
C616 C 0.75457 0.32772 0.59178 0.0
C617 C 0.74658 0.34617 0.62672 0.0
C618 C 0.73869 0.33538 0.58275 0.0
C619 C 0.74026 0.34455 0.56471 0.0
C620 C 0.75767 0.34596 0.55543 0.0
C621 C 0.77357 0.33859 0.56478 0.0
C622 C 0.77203 0.32961 0.5827 0.0
H623 H 0.74788 0.35169 0.64105 0.0
H624 H 0.757 0.35552 0.61775 0.0
H625 H 0.73175 0.34731 0.62068 0.0
H626 H 0.72498 0.33384 0.58941 0.0
H627 H 0.72774 0.35002 0.55785 0.0
H628 H 0.52616 0.93741 0.60747 0.0
H629 H 0.54765 0.93698 0.63568 0.0
H630 H 0.50464 0.95713 0.66735 0.0
H631 H 0.48244 0.95608 0.63968 0.0
H632 H 0.56416 0.96451 0.65632 0.0
H633 H 0.51708 0.91327 0.70156 0.0
H634 H 0.5115 0.91718 0.67673 0.0
H635 H 0.50518 0.93336 0.69321 0.0
C636 C 0.52102 0.94129 0.62053 0.0
C637 C 0.50241 0.9466 0.62124 0.0
C638 C 0.53346 0.94125 0.63662 0.0
C639 C 0.52766 0.94667 0.65376 0.0
C640 C 0.50927 0.95236 0.65445 0.0
H641 H 0.60409 0.98588 0.74801 0.0
H642 H 0.58496 0.98292 0.71825 0.0
C643 C 0.49669 0.95208 0.63846 0.0
C644 C 0.54105 0.94695 0.67075 0.0
H645 H 0.54379 0.93225 0.71723 0.0
C646 C 0.55978 0.95728 0.6696 0.0
C647 C 0.53552 0.93722 0.68801 0.0
C648 C 0.5163 0.92446 0.68991 0.0
C649 C 0.57292 0.95856 0.68531 0.0
C650 C 0.56692 0.94986 0.70285 0.0
C651 C 0.54836 0.93914 0.70387 0.0
C652 C 0.57948 0.95172 0.7204 0.0
C653 C 0.59317 0.96891 0.68278 0.0
C654 C 0.58241 0.93524 0.73183 0.0
C655 C 0.59287 0.93694 0.74909 0.0
C656 C 0.60084 0.95517 0.75518 0.0
C657 C 0.59832 0.97164 0.74356 0.0
C658 C 0.5875 0.96994 0.72647 0.0
H659 H 0.59738 0.96867 0.66803 0.0
H660 H 0.59373 0.98422 0.68602 0.0
H661 H 0.60398 0.9624 0.69223 0.0
H662 H 0.57635 0.92102 0.7275 0.0
H663 H 0.59462 0.92399 0.75773 0.0
H664 H 0.8409 0.22029 0.73982 0.0
H665 H 0.87216 0.22463 0.75771 0.0
H666 H 0.84248 0.22632 0.80882 0.0
H667 H 0.81126 0.22083 0.79104 0.0
H668 H 0.88937 0.25238 0.77595 0.0
H669 H 0.87844 0.19004 0.82721 0.0
H670 H 0.86183 0.19288 0.80722 0.0
H671 H 0.85976 0.20481 0.82849 0.0
C672 C 0.84115 0.22144 0.75491 0.0
C673 C 0.82379 0.22015 0.76413 0.0
C674 C 0.85897 0.2239 0.76513 0.0
C675 C 0.85976 0.22538 0.78474 0.0
C676 C 0.84233 0.2245 0.79386 0.0
H677 H 0.95693 0.28513 0.8468 0.0
H678 H 0.92689 0.27447 0.82892 0.0
C679 C 0.8245 0.22159 0.78369 0.0
C680 C 0.8788 0.22901 0.79542 0.0
H681 H 0.90407 0.21545 0.8354 0.0
C682 C 0.89263 0.2441 0.78882 0.0
C683 C 0.88339 0.218 0.81202 0.0
C684 C 0.87014 0.2004 0.819 0.0
C685 C 0.91052 0.24892 0.79861 0.0
C686 C 0.91442 0.23895 0.81602 0.0
C687 C 0.90096 0.22337 0.82227 0.0
C688 C 0.93211 0.24491 0.8281 0.0
C689 C 0.92511 0.2645 0.78999 0.0
C690 C 0.94452 0.23158 0.83472 0.0
C691 C 0.96153 0.23756 0.84551 0.0
C692 C 0.96646 0.257 0.84962 0.0
C693 C 0.95369 0.27012 0.84354 0.0
C694 C 0.93657 0.26407 0.83316 0.0
H695 H 0.92301 0.26553 0.77441 0.0
H696 H 0.92312 0.27861 0.79514 0.0
H697 H 0.9402 0.26187 0.79371 0.0
H698 H 0.94127 0.21665 0.8312 0.0
H699 H 0.9711 0.22715 0.85007 0.0
H700 H 0.46121 0.89555 0.53612 0.0
H701 H 0.46417 0.86839 0.51704 0.0
H702 H 0.5253 0.88828 0.51326 0.0
H703 H 0.52248 0.91499 0.53271 0.0
H704 H 0.47408 0.87076 0.48185 0.0
H705 H 0.52644 0.83166 0.52396 0.0
H706 H 0.51435 0.8495 0.53371 0.0
H707 H 0.53575 0.85672 0.52065 0.0
C708 C 0.47536 0.89376 0.53164 0.0
C709 C 0.49171 0.90707 0.53628 0.0
C710 C 0.47703 0.8783 0.5207 0.0
C711 C 0.49506 0.87599 0.51406 0.0
C712 C 0.51139 0.88931 0.51873 0.0
H713 H 0.52121 0.83576 0.41102 0.0
H714 H 0.51493 0.85245 0.43835 0.0
C715 C 0.50974 0.90466 0.52975 0.0
C716 C 0.49651 0.86105 0.5006 0.0
H717 H 0.52388 0.82681 0.49048 0.0
C718 C 0.48473 0.86092 0.48394 0.0
C719 C 0.51018 0.84795 0.50335 0.0
C720 C 0.52223 0.84631 0.5215 0.0
C721 C 0.48704 0.8489 0.46954 0.0
C722 C 0.50181 0.83699 0.47166 0.0
C723 C 0.51279 0.8362 0.48875 0.0
C724 C 0.50689 0.82647 0.45573 0.0
C725 C 0.47385 0.84934 0.45201 0.0
C726 C 0.50533 0.80627 0.45671 0.0
C727 C 0.50909 0.79658 0.44104 0.0
C728 C 0.5145 0.807 0.4242 0.0
C729 C 0.51683 0.82725 0.42365 0.0
C730 C 0.51316 0.83685 0.43925 0.0
H731 H 0.45993 0.85423 0.45487 0.0
H732 H 0.48102 0.85963 0.44125 0.0
H733 H 0.4707 0.83493 0.44608 0.0
H734 H 0.5007 0.79801 0.4694 0.0
H735 H 0.5072 0.78098 0.44193 0.0
H736 H 0.19927 0.23995 0.77019 0.0
H737 H 0.17365 0.23677 0.79271 0.0
H738 H 0.1639 0.29513 0.77762 0.0
H739 H 0.18925 0.29839 0.75504 0.0
H740 H 0.16712 0.28619 0.81689 0.0
H741 H 0.11474 0.23166 0.78018 0.0
H742 H 0.13884 0.22585 0.78511 0.0
H743 H 0.13498 0.24554 0.76867 0.0
C744 C 0.19153 0.25204 0.77154 0.0
C745 C 0.19635 0.26944 0.76082 0.0
C746 C 0.17691 0.25019 0.78442 0.0
C747 C 0.16677 0.26566 0.78671 0.0
C748 C 0.17158 0.28303 0.77609 0.0
H749 H 0.07363 0.30025 0.83956 0.0
H750 H 0.10266 0.29635 0.82383 0.0
C751 C 0.18615 0.28489 0.76326 0.0
C752 C 0.15124 0.26405 0.80027 0.0
H753 H 0.10509 0.24257 0.80816 0.0
C754 C 0.15362 0.27653 0.81509 0.0
C755 C 0.13371 0.25131 0.79799 0.0
C756 C 0.13024 0.23789 0.78208 0.0
C757 C 0.13875 0.27701 0.82735 0.0
C758 C 0.12091 0.26491 0.82454 0.0
C759 C 0.11881 0.25182 0.81027 0.0
C760 C 0.10368 0.26712 0.83495 0.0
C761 C 0.14216 0.29069 0.84304 0.0
C762 C 0.09439 0.25183 0.84624 0.0
C763 C 0.07764 0.254 0.85534 0.0
C764 C 0.0698 0.27141 0.85303 0.0
C765 C 0.07924 0.28664 0.8417 0.0
C766 C 0.09594 0.2845 0.83276 0.0
H767 H 0.15785 0.29437 0.84689 0.0
H768 H 0.13645 0.30425 0.83835 0.0
H769 H 0.13459 0.28445 0.85576 0.0
H770 H 0.10006 0.23823 0.84797 0.0
H771 H 0.07066 0.24196 0.86388 0.0
H772 H 0.49703 0.57051 0.51809 0.0
H773 H 0.49409 0.59859 0.4966 0.0
H774 H 0.55626 0.61023 0.49451 0.0
H775 H 0.55941 0.58231 0.51631 0.0
H776 H 0.51051 0.63748 0.50284 0.0
H777 H 0.53671 0.61136 0.43845 0.0
H778 H 0.5288 0.59532 0.45817 0.0
H779 H 0.55223 0.60973 0.45936 0.0
C780 C 0.51012 0.57906 0.51315 0.0
C781 C 0.52848 0.57416 0.51902 0.0
C782 C 0.50839 0.59505 0.50077 0.0
C783 C 0.52493 0.60639 0.49382 0.0
C784 C 0.54328 0.60147 0.49945 0.0
H785 H 0.54051 0.71024 0.41926 0.0
H786 H 0.54515 0.68178 0.43975 0.0
C787 C 0.54505 0.58549 0.5119 0.0
C788 C 0.52291 0.62379 0.4813 0.0
H789 H 0.5303 0.64358 0.43685 0.0
C790 C 0.5148 0.63882 0.4884 0.0
C791 C 0.52863 0.62553 0.46252 0.0
C792 C 0.53695 0.6096 0.45404 0.0
C793 C 0.51239 0.65563 0.47727 0.0
C794 C 0.51781 0.65726 0.45836 0.0
C795 C 0.5261 0.64229 0.45132 0.0
C796 C 0.51486 0.67434 0.44565 0.0
C797 C 0.50443 0.67163 0.48602 0.0
C798 C 0.49625 0.67945 0.44186 0.0
C799 C 0.49356 0.69576 0.43023 0.0
C800 C 0.50941 0.70721 0.42196 0.0
C801 C 0.52798 0.70179 0.42542 0.0
C802 C 0.53067 0.68551 0.43713 0.0
H803 H 0.50633 0.67055 0.50161 0.0
H804 H 0.51159 0.68599 0.4808 0.0
H805 H 0.48868 0.67065 0.48226 0.0
H806 H 0.48376 0.67079 0.44789 0.0
H807 H 0.47904 0.6994 0.42775 0.0
H808 H 0.85668 0.78833 0.79543 0.0
H809 H 0.88041 0.78208 0.77363 0.0
H810 H 0.90819 0.84094 0.77593 0.0
H811 H 0.88403 0.84738 0.7974 0.0
H812 H 0.90104 0.83103 0.74073 0.0
H813 H 0.93636 0.77405 0.77993 0.0
H814 H 0.91051 0.76786 0.77869 0.0
H815 H 0.9215 0.78854 0.79111 0.0
C816 C 0.86811 0.79981 0.79159 0.0
C817 C 0.86879 0.81823 0.79839 0.0
C818 C 0.88175 0.79619 0.77924 0.0
C819 C 0.89639 0.8109 0.77349 0.0
C820 C 0.89719 0.8293 0.78039 0.0
H821 H 0.98228 0.78697 0.69567 0.0
H822 H 0.96794 0.796 0.7238 0.0
C823 C 0.88346 0.83295 0.79268 0.0
C824 C 0.90948 0.80754 0.75879 0.0
H825 H 0.93881 0.77614 0.74615 0.0
C826 C 0.90955 0.81922 0.74206 0.0
C827 C 0.92083 0.79232 0.76058 0.0
C828 C 0.92248 0.78012 0.77864 0.0
C829 C 0.91981 0.81547 0.72675 0.0
C830 C 0.92992 0.79935 0.72804 0.0
C831 C 0.93077 0.7883 0.74509 0.0
C832 C 0.93867 0.79316 0.71145 0.0
C833 C 0.91951 0.82868 0.70922 0.0
C834 C 0.92689 0.78808 0.69544 0.0
C835 C 0.93497 0.78299 0.67942 0.0
C836 C 0.95505 0.78269 0.67911 0.0
C837 C 0.96678 0.78713 0.69543 0.0
C838 C 0.95863 0.7923 0.71149 0.0
H839 H 0.91651 0.8432 0.71241 0.0
H840 H 0.9335 0.83028 0.70225 0.0
H841 H 0.90784 0.82255 0.69918 0.0
H842 H 0.91138 0.78818 0.69528 0.0
H843 H 0.92546 0.77945 0.6672 0.0
H844 H 0.02695 0.94707 0.49321 0.0
H845 H 0.0175 0.91911 0.51461 0.0
H846 H 0.0767 0.90796 0.52035 0.0
H847 H 0.08628 0.93554 0.49849 0.0
H848 H 0.02618 0.87808 0.51037 0.0
H849 H 0.0575 0.91264 0.57563 0.0
H850 H 0.05095 0.92659 0.55466 0.0
H851 H 0.07219 0.91491 0.55548 0.0
C852 C 0.03794 0.93855 0.49879 0.0
C853 C 0.0574 0.94361 0.49414 0.0
C854 C 0.03252 0.92266 0.51111 0.0
C855 C 0.04645 0.91167 0.51914 0.0
C856 C 0.06581 0.91647 0.51443 0.0
H857 H 0.03337 0.81653 0.6051 0.0
H858 H 0.04701 0.84245 0.583 0.0
C859 C 0.07124 0.93228 0.50201 0.0
C860 C 0.04063 0.89511 0.53241 0.0
H861 H 0.04196 0.88065 0.579 0.0
C862 C 0.02966 0.87857 0.52537 0.0
C863 C 0.04543 0.89582 0.55189 0.0
C864 C 0.05709 0.91344 0.56001 0.0
C865 C 0.02317 0.86265 0.5374 0.0
C866 C 0.02733 0.86359 0.55701 0.0
C867 C 0.03874 0.88 0.56398 0.0
C868 C 0.0192 0.84807 0.57056 0.0
C869 C 0.01205 0.84493 0.52894 0.0
C870 C 0.99908 0.84299 0.57118 0.0
C871 C 0.99127 0.82819 0.58366 0.0
C872 C 0.00343 0.81833 0.596 0.0
C873 C 0.02361 0.82382 0.59576 0.0
C874 C 0.03143 0.8386 0.58314 0.0
H875 H 0.01541 0.84414 0.51401 0.0
H876 H 0.01535 0.83157 0.53689 0.0
H877 H 0.99629 0.84549 0.52935 0.0
H878 H 0.98936 0.85048 0.56198 0.0
H879 H 0.97566 0.8245 0.58361 0.0
H880 H 0.16899 0.74489 0.77717 0.0
H881 H 0.14242 0.75009 0.75444 0.0
H882 H 0.17961 0.74763 0.70885 0.0
H883 H 0.2065 0.74275 0.73154 0.0
H884 H 0.14234 0.78095 0.7256 0.0
H885 H 0.13049 0.70821 0.69671 0.0
H886 H 0.14363 0.71297 0.71889 0.0
H887 H 0.15491 0.72063 0.6972 0.0
C888 C 0.17162 0.74561 0.76231 0.0
C889 C 0.18992 0.74348 0.75618 0.0
C890 C 0.15637 0.74847 0.74936 0.0
C891 C 0.15902 0.74908 0.73 0.0
C892 C 0.17721 0.7469 0.72375 0.0
H893 H 0.07487 0.76103 0.63556 0.0
H894 H 0.10465 0.75774 0.65469 0.0
C895 C 0.19253 0.74409 0.73673 0.0
C896 C 0.14275 0.75241 0.71648 0.0
H897 H 0.11087 0.73077 0.68351 0.0
C898 C 0.13548 0.77002 0.71634 0.0
C899 C 0.13396 0.73816 0.70436 0.0
C900 C 0.14099 0.71885 0.70428 0.0
C901 C 0.11953 0.77373 0.70447 0.0
C902 C 0.11035 0.75926 0.69273 0.0
C903 C 0.11791 0.74181 0.69255 0.0
C904 C 0.09244 0.76167 0.68109 0.0
C905 C 0.11277 0.79317 0.7045 0.0
C906 C 0.07565 0.76475 0.68961 0.0
C907 C 0.05866 0.76671 0.67874 0.0
C908 C 0.05805 0.76542 0.65912 0.0
C909 C 0.07485 0.76216 0.65062 0.0
C910 C 0.09188 0.76025 0.66152 0.0
H911 H 0.12451 0.80429 0.70966 0.0
H912 H 0.10754 0.79797 0.69021 0.0
H913 H 0.10063 0.79218 0.71403 0.0
H914 H 0.07561 0.76543 0.70473 0.0
H915 H 0.04595 0.76906 0.68577 0.0
H916 H 0.00217 0.58903 0.52582 0.0
H917 H 0.0075 0.61347 0.54933 0.0
H918 H 0.94864 0.62479 0.53891 0.0
H919 H 0.94327 0.60071 0.51528 0.0
H920 H 0.00331 0.6531 0.54421 0.0
H921 H 0.95363 0.61509 0.59648 0.0
H922 H 0.96242 0.60298 0.57786 0.0
H923 H 0.94253 0.61654 0.57317 0.0
C924 C 0.9904 0.59681 0.52847 0.0
C925 C 0.97224 0.59283 0.51878 0.0
C926 C 0.99344 0.61066 0.54198 0.0
C927 C 0.97834 0.62061 0.54611 0.0
C928 C 0.96032 0.61688 0.53627 0.0
H929 H 0.951 0.71508 0.59949 0.0
H930 H 0.95316 0.68543 0.58434 0.0
C931 C 0.95728 0.60312 0.52276 0.0
C932 C 0.98143 0.63551 0.56012 0.0
H933 H 0.96258 0.64914 0.59934 0.0
C934 C 0.99471 0.65214 0.55649 0.0
C935 C 0.97026 0.63409 0.57615 0.0
C936 C 0.95654 0.61613 0.58129 0.0
C937 C 0.99617 0.66796 0.5678 0.0
C938 C 0.98422 0.66691 0.58326 0.0
C939 C 0.97168 0.64989 0.58744 0.0
C940 C 0.98293 0.68401 0.59392 0.0
C941 C 0.00962 0.68606 0.56249 0.0
C942 C 0.99884 0.69277 0.60474 0.0
C943 C 0.99767 0.70982 0.61347 0.0
C944 C 0.98055 0.71832 0.61148 0.0
C945 C 0.96444 0.70902 0.60122 0.0
C946 C 0.96562 0.69203 0.59258 0.0
H947 H 0.01557 0.68551 0.54847 0.0
H948 H 0.00196 0.69887 0.56234 0.0
H949 H 0.02194 0.68801 0.57308 0.0
H950 H 0.01223 0.68661 0.60617 0.0
H951 H 0.01031 0.71659 0.62133 0.0
H952 H 0.74983 0.81757 0.19628 0.0
H953 H 0.77059 0.84882 0.19345 0.0
H954 H 0.77747 0.84943 0.25388 0.0
H955 H 0.7571 0.81812 0.25682 0.0
H956 H 0.7634 0.88314 0.2077 0.0
H957 H 0.83331 0.86318 0.23733 0.0
H958 H 0.81355 0.84556 0.22932 0.0
H959 H 0.81362 0.85488 0.25222 0.0
C960 C 0.75605 0.82422 0.20895 0.0
C961 C 0.75184 0.81538 0.22678 0.0
C962 C 0.76783 0.84209 0.2073 0.0
C963 C 0.77579 0.8513 0.22344 0.0
C964 C 0.77178 0.84241 0.24123 0.0
H965 H 0.80641 0.96407 0.25571 0.0
H966 H 0.79128 0.93282 0.24538 0.0
C967 C 0.75996 0.82462 0.24289 0.0
C968 C 0.7872 0.87081 0.22189 0.0
H969 H 0.8298 0.89682 0.23706 0.0
C970 C 0.77805 0.8861 0.21379 0.0
C971 C 0.80643 0.87463 0.22956 0.0
C972 C 0.81739 0.85866 0.23743 0.0
C973 C 0.78716 0.90525 0.21432 0.0
C974 C 0.80579 0.90917 0.22334 0.0
C975 C 0.81545 0.8938 0.23028 0.0
C976 C 0.81443 0.92901 0.22776 0.0
C977 C 0.77653 0.92117 0.20573 0.0
C978 C 0.83255 0.93728 0.22131 0.0
C979 C 0.8413 0.95531 0.22718 0.0
C980 C 0.83219 0.96511 0.23989 0.0
C981 C 0.81386 0.9569 0.24595 0.0
C982 C 0.8051 0.93908 0.23995 0.0
H983 H 0.76572 0.91587 0.19451 0.0
H984 H 0.76865 0.92672 0.21678 0.0
H985 H 0.78675 0.9333 0.19971 0.0
H986 H 0.84005 0.92963 0.21201 0.0
H987 H 0.85547 0.96122 0.22236 0.0
H988 H 0.78517 0.21586 0.23752 0.0
H989 H 0.79977 0.18737 0.23086 0.0
H990 H 0.78516 0.1615 0.28553 0.0
H991 H 0.77079 0.18997 0.29234 0.0
H992 H 0.83085 0.16969 0.25485 0.0
H993 H 0.76096 0.12157 0.24505 0.0
H994 H 0.76284 0.14753 0.24257 0.0
H995 H 0.76337 0.13552 0.26555 0.0
C996 C 0.78499 0.20402 0.24805 0.0
C997 C 0.77639 0.20487 0.26525 0.0
C998 C 0.79338 0.18783 0.24426 0.0
C999 C 0.79327 0.17226 0.2576 0.0
C1000 C 0.7851 0.17327 0.27494 0.0
H1001 H 0.82495 0.0623 0.2807 0.0
H1002 H 0.81276 0.09299 0.27754 0.0
C1003 C 0.77687 0.18948 0.2788 0.0
C1004 C 0.80166 0.15485 0.25358 0.0
H1005 H 0.78943 0.10657 0.2487 0.0
C1006 C 0.82186 0.1559 0.25321 0.0
C1007 C 0.78982 0.13698 0.25134 0.0
C1008 C 0.76802 0.13524 0.25098 0.0
C1009 C 0.8306 0.13925 0.2518 0.0
C1010 C 0.81875 0.1212 0.25037 0.0
C1011 C 0.79851 0.1204 0.24981 0.0
C1012 C 0.82688 0.10272 0.25179 0.0
C1013 C 0.85241 0.14091 0.2529 0.0
C1014 C 0.83898 0.09788 0.2383 0.0
C1015 C 0.84617 0.08013 0.2401 0.0
C1016 C 0.84123 0.06695 0.25535 0.0
C1017 C 0.82907 0.07197 0.26871 0.0
C1018 C 0.82202 0.08958 0.26694 0.0
H1019 H 0.8594 0.15533 0.25712 0.0
H1020 H 0.85732 0.12978 0.26311 0.0
H1021 H 0.85747 0.13852 0.23891 0.0
H1022 H 0.84268 0.10769 0.22631 0.0
H1023 H 0.85543 0.07669 0.22954 0.0
H1024 H 0.42726 0.03583 0.01205 0.0
H1025 H 0.39699 0.01352 0.01191 0.0
H1026 H 0.38831 0.0254 0.95216 0.0
H1027 H 0.41885 0.04763 0.95218 0.0
H1028 H 0.35906 0.01793 0.0015 0.0
H1029 H 0.38659 0.96727 0.95632 0.0
H1030 H 0.40227 0.98688 0.96677 0.0
H1031 H 0.38683 0.99144 0.94639 0.0
C1032 C 0.41882 0.03383 0.99891 0.0
C1033 C 0.42547 0.04338 0.9821 0.0
C1034 C 0.40153 0.02109 0.99884 0.0
C1035 C 0.39051 0.01764 0.982 0.0
C1036 C 0.39678 0.02758 0.96526 0.0
H1037 H 0.27924 0.93851 0.98588 0.0
H1038 H 0.3019 0.96835 0.98048 0.0
C1039 C 0.41421 0.04024 0.96528 0.0
C1040 C 0.37301 0.00291 0.98206 0.0
H1041 H 0.35536 0.95829 0.96713 0.0
C1042 C 0.35809 0.00497 0.99382 0.0
C1043 C 0.37188 0.986 0.97208 0.0
C1044 C 0.38778 0.9826 0.95979 0.0
C1045 C 0.34243 0.99023 0.99642 0.0
C1046 C 0.34159 0.97315 0.9868 0.0
C1047 C 0.35605 0.97146 0.97443 0.0
C1048 C 0.32732 0.95588 0.99101 0.0
C1049 C 0.32746 0.99257 0.01015 0.0
C1050 C 0.33409 0.93912 0.99876 0.0
C1051 C 0.32133 0.92219 0.0017 0.0
C1052 C 0.30142 0.92159 0.99697 0.0
C1053 C 0.29448 0.93856 0.98974 0.0
C1054 C 0.30739 0.95559 0.98668 0.0
H1055 H 0.33177 0.00546 0.01851 0.0
H1056 H 0.3135 0.99414 0.00233 0.0
H1057 H 0.325 0.97962 0.01996 0.0
H1058 H 0.3494 0.93906 0.0023 0.0
H1059 H 0.32718 0.90945 0.00743 0.0
H1060 H 0.3063 0.36204 0.37611 0.0
H1061 H 0.27866 0.38001 0.37226 0.0
H1062 H 0.27513 0.37228 0.31262 0.0
H1063 H 0.30191 0.35346 0.31643 0.0
H1064 H 0.27255 0.413 0.35173 0.0
H1065 H 0.22076 0.35123 0.32707 0.0
H1066 H 0.24455 0.3485 0.33725 0.0
H1067 H 0.24147 0.35663 0.31295 0.0
C1068 C 0.29954 0.36402 0.36219 0.0
C1069 C 0.30629 0.35616 0.34662 0.0
C1070 C 0.28384 0.37443 0.36 0.0
C1071 C 0.27461 0.37716 0.34221 0.0
C1072 C 0.28176 0.36998 0.32655 0.0
H1073 H 0.19393 0.45757 0.30761 0.0
H1074 H 0.22278 0.44186 0.31466 0.0
C1075 C 0.29731 0.35945 0.32873 0.0
C1076 C 0.25731 0.38725 0.34 0.0
H1077 H 0.21009 0.38198 0.32344 0.0
C1078 C 0.25884 0.40621 0.34565 0.0
C1079 C 0.23934 0.37824 0.33238 0.0
C1080 C 0.23633 0.35746 0.32724 0.0
C1081 C 0.243 0.41655 0.34349 0.0
C1082 C 0.22531 0.40783 0.33503 0.0
C1083 C 0.2237 0.38874 0.32974 0.0
C1084 C 0.20815 0.41806 0.33159 0.0
C1085 C 0.2453 0.43657 0.35057 0.0
C1086 C 0.19022 0.40974 0.33842 0.0
C1087 C 0.17366 0.41848 0.33411 0.0
C1088 C 0.17468 0.4358 0.32295 0.0
C1089 C 0.1927 0.44431 0.31638 0.0
C1090 C 0.20924 0.43542 0.32052 0.0
H1091 H 0.25724 0.43873 0.36158 0.0
H1092 H 0.24891 0.44727 0.33872 0.0
H1093 H 0.23174 0.4395 0.35646 0.0
H1094 H 0.18901 0.39632 0.34695 0.0
H1095 H 0.16002 0.41158 0.33945 0.0
H1096 H 0.09298 0.02888 0.47344 0.0
H1097 H 0.12375 0.04943 0.48021 0.0
H1098 H 0.15238 0.999 0.49003 0.0
H1099 H 0.12167 0.97839 0.48345 0.0
H1100 H 0.16278 0.02555 0.51699 0.0
H1101 H 0.1683 0.06056 0.44502 0.0
H1102 H 0.14644 0.06278 0.45619 0.0
H1103 H 0.15111 0.03943 0.45035 0.0
C1104 C 0.10588 0.0222 0.47692 0.0
C1105 C 0.10496 0.00204 0.47782 0.0
C1106 C 0.12342 0.03395 0.48078 0.0
C1107 C 0.14038 0.02574 0.48537 0.0
C1108 C 0.13945 0.00562 0.48652 0.0
H1109 H 0.2595 0.07232 0.47768 0.0
H1110 H 0.22636 0.05593 0.47463 0.0
C1111 C 0.12191 0.99387 0.48278 0.0
C1112 C 0.15922 0.038 0.48884 0.0
H1113 H 0.19268 0.07151 0.46772 0.0
C1114 C 0.16931 0.03568 0.50627 0.0
C1115 C 0.16771 0.05107 0.47475 0.0
C1116 C 0.15795 0.05355 0.45546 0.0
C1117 C 0.18785 0.04588 0.5099 0.0
C1118 C 0.19632 0.05899 0.49582 0.0
C1119 C 0.18607 0.06154 0.47852 0.0
C1120 C 0.21638 0.06909 0.49813 0.0
C1121 C 0.1985 0.04197 0.52847 0.0
C1122 C 0.22177 0.08203 0.51234 0.0
C1123 C 0.24084 0.0914 0.51423 0.0
C1124 C 0.25475 0.0881 0.5018 0.0
C1125 C 0.24919 0.07523 0.48751 0.0
C1126 C 0.23022 0.06585 0.4857 0.0
H1127 H 0.19179 0.02854 0.53599 0.0
H1128 H 0.2139 0.04077 0.52641 0.0
H1129 H 0.19815 0.05411 0.53759 0.0
H1130 H 0.21122 0.08501 0.52187 0.0
H1131 H 0.24464 0.1013 0.52531 0.0
H1132 H 0.78219 0.16082 0.75517 0.0
H1133 H 0.75973 0.13138 0.76162 0.0
H1134 H 0.71163 0.16381 0.75496 0.0
H1135 H 0.73403 0.19343 0.74865 0.0
H1136 H 0.73343 0.12363 0.79051 0.0
H1137 H 0.6957 0.11941 0.71972 0.0
H1138 H 0.71851 0.13462 0.72399 0.0
H1139 H 0.69633 0.14191 0.73052 0.0
C1140 C 0.76684 0.16174 0.75522 0.0
C1141 C 0.7599 0.17949 0.75141 0.0
C1142 C 0.75403 0.14488 0.75879 0.0
C1143 C 0.73402 0.14539 0.75852 0.0
C1144 C 0.727 0.16306 0.75485 0.0
H1145 H 0.63633 0.05567 0.77888 0.0
H1146 H 0.65704 0.08622 0.77191 0.0
C1147 C 0.73982 0.17996 0.75127 0.0
C1148 C 0.72062 0.12743 0.76256 0.0
H1149 H 0.68347 0.09645 0.74338 0.0
C1150 C 0.72252 0.11766 0.78021 0.0
C1151 C 0.70636 0.11975 0.7491 0.0
C1152 C 0.70413 0.12934 0.7297 0.0
C1153 C 0.71046 0.10044 0.78482 0.0
C1154 C 0.69637 0.09261 0.77128 0.0
C1155 C 0.69431 0.10249 0.7537 0.0
C1156 C 0.68384 0.07402 0.77504 0.0
C1157 C 0.71272 0.09092 0.80425 0.0
C1158 C 0.69204 0.057 0.77874 0.0
C1159 C 0.68028 0.03954 0.78274 0.0
C1160 C 0.66005 0.03875 0.78301 0.0
C1161 C 0.65185 0.05578 0.77886 0.0
C1162 C 0.66364 0.07325 0.77486 0.0
H1163 H 0.72033 0.10118 0.81438 0.0
H1164 H 0.6984 0.08481 0.80966 0.0
H1165 H 0.72141 0.07897 0.80364 0.0
H1166 H 0.70757 0.05722 0.77855 0.0
H1167 H 0.68707 0.02669 0.78574 0.0
H1168 H 0.45723 0.98184 0.55169 0.0
H1169 H 0.43673 0.00725 0.54632 0.0
H1170 H 0.42268 0.00113 0.60463 0.0
H1171 H 0.44279 0.97526 0.61003 0.0
H1172 H 0.39045 0.00296 0.57968 0.0
H1173 H 0.44912 0.06249 0.56316 0.0
H1174 H 0.44932 0.0421 0.54931 0.0
H1175 H 0.45379 0.03971 0.5744 0.0
C1176 C 0.44968 0.98578 0.56335 0.0
C1177 C 0.45168 0.97654 0.5813 0.0
C1178 C 0.43816 0.00048 0.56032 0.0
C1179 C 0.4285 0.00634 0.57517 0.0
C1180 C 0.4302 0.99697 0.59303 0.0
H1181 H 0.34384 0.08964 0.56302 0.0
H1182 H 0.36642 0.06899 0.57846 0.0
C1183 C 0.44175 0.98227 0.5961 0.0
C1184 C 0.41615 0.02181 0.57175 0.0
H1185 H 0.41673 0.06804 0.55358 0.0
C1186 C 0.3962 0.01732 0.5743 0.0
C1187 C 0.42375 0.04056 0.56491 0.0
C1188 C 0.4452 0.0466 0.56296 0.0
C1189 C 0.38346 0.03071 0.56902 0.0
C1190 C 0.39097 0.0491 0.56121 0.0
C1191 C 0.41103 0.0539 0.55955 0.0
C1192 C 0.37812 0.06261 0.55254 0.0
C1193 C 0.36198 0.02475 0.5708 0.0
C1194 C 0.37764 0.06623 0.533 0.0
C1195 C 0.36488 0.07792 0.52421 0.0
C1196 C 0.35234 0.08639 0.53479 0.0
C1197 C 0.35328 0.08331 0.55449 0.0
C1198 C 0.36608 0.07145 0.56331 0.0
H1199 H 0.35834 0.00917 0.57488 0.0
H1200 H 0.35684 0.03311 0.58168 0.0
H1201 H 0.35398 0.02794 0.5573 0.0
H1202 H 0.38686 0.0596 0.52445 0.0
H1203 H 0.36467 0.08008 0.50903 0.0
H1204 H 0.58557 0.51116 0.50975 0.0
H1205 H 0.61263 0.49289 0.50681 0.0
H1206 H 0.58876 0.45041 0.54864 0.0
H1207 H 0.5617 0.46856 0.55151 0.0
H1208 H 0.64058 0.48051 0.53408 0.0
H1209 H 0.59361 0.41866 0.50293 0.0
H1210 H 0.58564 0.44179 0.50456 0.0
H1211 H 0.58598 0.42532 0.52489 0.0
C1212 C 0.58621 0.49796 0.51835 0.0
C1213 C 0.57142 0.49107 0.5306 0.0
C1214 C 0.60163 0.48755 0.51668 0.0
C1215 C 0.6025 0.47007 0.52721 0.0
C1216 C 0.58816 0.46363 0.54006 0.0
H1217 H 0.67663 0.38091 0.53423 0.0
H1218 H 0.65171 0.40135 0.53755 0.0
C1219 C 0.57277 0.47404 0.54176 0.0
C1220 C 0.61817 0.45839 0.52456 0.0
H1221 H 0.62624 0.41462 0.51092 0.0
C1222 C 0.63748 0.46614 0.52893 0.0
C1223 C 0.61411 0.43965 0.5178 0.0
C1224 C 0.59374 0.43088 0.5121 0.0
C1225 C 0.65279 0.45545 0.52722 0.0
C1226 C 0.6487 0.43665 0.52057 0.0
C1227 C 0.62939 0.429 0.51605 0.0
C1228 C 0.66415 0.42447 0.51853 0.0
C1229 C 0.67312 0.46419 0.53307 0.0
C1230 C 0.67937 0.43051 0.50653 0.0
C1231 C 0.69373 0.41884 0.50463 0.0
C1232 C 0.69306 0.4008 0.51456 0.0
C1233 C 0.67765 0.3947 0.52636 0.0
C1234 C 0.66335 0.40638 0.52829 0.0
H1235 H 0.67318 0.47629 0.54236 0.0
H1236 H 0.68122 0.45323 0.54053 0.0
H1237 H 0.68093 0.46992 0.52035 0.0
H1238 H 0.68007 0.44419 0.49851 0.0
H1239 H 0.70532 0.42395 0.49534 0.0
H1240 H 0.71951 0.28936 0.30383 0.0
H1241 H 0.72013 0.30629 0.33282 0.0
H1242 H 0.7359 0.25635 0.36503 0.0
H1243 H 0.73492 0.23912 0.3362 0.0
H1244 H 0.6982 0.29458 0.36626 0.0
H1245 H 0.77791 0.30174 0.38044 0.0
H1246 H 0.76648 0.29641 0.35763 0.0
H1247 H 0.76636 0.27775 0.3761 0.0
C1248 C 0.72299 0.2819 0.31709 0.0
C1249 C 0.7272 0.26284 0.31765 0.0
C1250 C 0.72338 0.29164 0.33362 0.0
C1251 C 0.72818 0.28262 0.35102 0.0
C1252 C 0.73241 0.26365 0.35169 0.0
H1253 H 0.74759 0.31094 0.46585 0.0
H1254 H 0.74071 0.29543 0.43614 0.0
C1255 C 0.73195 0.25386 0.33518 0.0
C1256 C 0.72881 0.29302 0.36853 0.0
H1257 H 0.75941 0.30988 0.40469 0.0
C1258 C 0.71157 0.29806 0.37465 0.0
C1259 C 0.7463 0.29761 0.37933 0.0
C1260 C 0.76537 0.29328 0.37302 0.0
C1261 C 0.71125 0.30695 0.39173 0.0
C1262 C 0.72871 0.31115 0.40274 0.0
C1263 C 0.746 0.30652 0.39632 0.0
C1264 C 0.72955 0.31969 0.42134 0.0
C1265 C 0.6922 0.31116 0.39815 0.0
C1266 C 0.72488 0.33828 0.42314 0.0
C1267 C 0.72859 0.34715 0.44032 0.0
C1268 C 0.73731 0.33763 0.45577 0.0
C1269 C 0.74095 0.31867 0.45415 0.0
C1270 C 0.73707 0.30979 0.43716 0.0
H1271 H 0.67966 0.30309 0.39038 0.0
H1272 H 0.69095 0.30747 0.41344 0.0
H1273 H 0.69138 0.32678 0.39563 0.0
H1274 H 0.71935 0.34632 0.41104 0.0
H1275 H 0.72585 0.36185 0.44113 0.0
H1276 H 0.53019 0.08317 0.94183 0.0
H1277 H 0.55269 0.06907 0.92346 0.0
H1278 H 0.50423 0.03609 0.89445 0.0
H1279 H 0.48176 0.05024 0.91273 0.0
H1280 H 0.55591 0.02975 0.92197 0.0
H1281 H 0.53728 0.0622 0.85145 0.0
H1282 H 0.53081 0.07129 0.87296 0.0
H1283 H 0.51672 0.05022 0.86361 0.0
C1284 C 0.52442 0.07312 0.93132 0.0
C1285 C 0.50431 0.0681 0.92831 0.0
C1286 C 0.53722 0.06505 0.92091 0.0
C1287 C 0.53009 0.05182 0.90736 0.0
C1288 C 0.51 0.04662 0.90452 0.0
H1289 H 0.58332 0.96591 0.85752 0.0
H1290 H 0.56542 0.98425 0.87655 0.0
C1291 C 0.49721 0.05465 0.91495 0.0
C1292 C 0.54364 0.0428 0.89676 0.0
H1293 H 0.55623 0.0365 0.85234 0.0
C1294 C 0.55611 0.03133 0.90676 0.0
C1295 C 0.54403 0.04511 0.87695 0.0
C1296 C 0.53164 0.05802 0.86559 0.0
C1297 C 0.56852 0.02158 0.89739 0.0
C1298 C 0.56826 0.02319 0.87752 0.0
C1299 C 0.55627 0.03517 0.86757 0.0
C1300 C 0.57989 0.01213 0.86674 0.0
C1301 C 0.58183 0.00965 0.90882 0.0
C1302 C 0.59382 0.02175 0.85476 0.0
C1303 C 0.60407 0.01131 0.84381 0.0
C1304 C 0.60042 0.99105 0.84451 0.0
C1305 C 0.58655 0.98148 0.85668 0.0
C1306 C 0.57637 0.99194 0.86765 0.0
H1307 H 0.5841 0.01403 0.92357 0.0
H1308 H 0.57526 0.99428 0.90914 0.0
H1309 H 0.59613 0.01091 0.9025 0.0
H1310 H 0.59666 0.03735 0.85379 0.0
H1311 H 0.61459 0.01915 0.83455 0.0
H1312 H 0.34095 0.27972 0.36416 0.0
H1313 H 0.34038 0.25497 0.38981 0.0
H1314 H 0.33044 0.29628 0.42897 0.0
H1315 H 0.33135 0.32139 0.40334 0.0
H1316 H 0.36469 0.25589 0.42473 0.0
H1317 H 0.28566 0.2501 0.43577 0.0
H1318 H 0.2961 0.261 0.41441 0.0
H1319 H 0.29975 0.27369 0.43564 0.0
C1320 C 0.33891 0.28367 0.37825 0.0
C1321 C 0.33628 0.30258 0.38171 0.0
C1322 C 0.33848 0.26946 0.39287 0.0
C1323 C 0.33525 0.27379 0.41122 0.0
C1324 C 0.33272 0.29263 0.41483 0.0
H1325 H 0.31601 0.18479 0.50361 0.0
H1326 H 0.32148 0.21679 0.48726 0.0
C1327 C 0.3332 0.30692 0.40019 0.0
C1328 C 0.33448 0.25835 0.42637 0.0
H1329 H 0.303 0.22816 0.45328 0.0
C1330 C 0.35127 0.24996 0.43118 0.0
C1331 C 0.31698 0.25081 0.43484 0.0
C1332 C 0.29851 0.25922 0.42992 0.0
C1333 C 0.35088 0.23374 0.44376 0.0
C1334 C 0.33314 0.22551 0.45141 0.0
C1335 C 0.31656 0.2345 0.44736 0.0
C1336 C 0.33102 0.20653 0.46195 0.0
C1337 C 0.3694 0.22537 0.4485 0.0
C1338 C 0.33447 0.19021 0.45307 0.0
C1339 C 0.33134 0.17201 0.46229 0.0
C1340 C 0.32457 0.16969 0.48059 0.0
C1341 C 0.3213 0.18609 0.48956 0.0
C1342 C 0.32439 0.20437 0.48025 0.0
H1343 H 0.38232 0.23647 0.44676 0.0
H1344 H 0.36982 0.21899 0.46315 0.0
H1345 H 0.37038 0.21386 0.43881 0.0
H1346 H 0.33916 0.19149 0.43879 0.0
H1347 H 0.33396 0.15971 0.45492 0.0
H1348 H 0.50231 0.47001 0.92679 0.0
H1349 H 0.48222 0.47285 0.89762 0.0
H1350 H 0.51783 0.52623 0.88172 0.0
H1351 H 0.53781 0.52348 0.91103 0.0
H1352 H 0.47889 0.52912 0.87965 0.0
H1353 H 0.49215 0.4656 0.84292 0.0
H1354 H 0.48527 0.45959 0.86665 0.0
H1355 H 0.50767 0.475 0.86236 0.0
C1356 C 0.50587 0.48225 0.91696 0.0
C1357 C 0.52131 0.49671 0.92121 0.0
C1358 C 0.49454 0.48378 0.90025 0.0
C1359 C 0.49866 0.49965 0.8874 0.0
C1360 C 0.51445 0.51384 0.89141 0.0
H1361 H 0.42888 0.51109 0.78093 0.0
H1362 H 0.45702 0.51032 0.80325 0.0
C1363 C 0.52579 0.5123 0.90813 0.0
C1364 C 0.48548 0.50222 0.87065 0.0
H1365 H 0.46366 0.47967 0.83233 0.0
C1366 C 0.47579 0.51845 0.86914 0.0
C1367 C 0.48162 0.48842 0.85682 0.0
C1368 C 0.49237 0.47127 0.85712 0.0
C1369 C 0.4616 0.52074 0.85474 0.0
C1370 C 0.45686 0.50632 0.84164 0.0
C1371 C 0.46724 0.4906 0.84252 0.0
C1372 C 0.4401 0.50662 0.82797 0.0
C1373 C 0.45148 0.53837 0.85388 0.0
C1374 C 0.42136 0.50449 0.83453 0.0
C1375 C 0.40536 0.50483 0.82192 0.0
C1376 C 0.40774 0.50731 0.80243 0.0
C1377 C 0.42656 0.50924 0.79585 0.0
C1378 C 0.44263 0.50878 0.80855 0.0
H1379 H 0.46013 0.55027 0.86152 0.0
H1380 H 0.44862 0.54357 0.83908 0.0
H1381 H 0.43736 0.53465 0.86053 0.0
H1382 H 0.41911 0.50252 0.84947 0.0
H1383 H 0.3911 0.50325 0.82752 0.0
H1384 H 0.74756 0.75687 0.16612 0.0
H1385 H 0.7602 0.73491 0.14611 0.0
H1386 H 0.72063 0.68743 0.16906 0.0
H1387 H 0.70782 0.70944 0.18889 0.0
H1388 H 0.7772 0.70133 0.15559 0.0
H1389 H 0.70866 0.68543 0.11211 0.0
H1390 H 0.71307 0.70524 0.12741 0.0
H1391 H 0.70634 0.68108 0.13701 0.0
C1392 C 0.74156 0.74175 0.16679 0.0
C1393 C 0.72642 0.73486 0.17862 0.0
C1394 C 0.7488 0.72923 0.15544 0.0
C1395 C 0.74107 0.70962 0.15583 0.0
C1396 C 0.72647 0.70259 0.16822 0.0
H1397 H 0.76208 0.61657 0.08788 0.0
H1398 H 0.75156 0.63518 0.11221 0.0
C1399 C 0.71921 0.71511 0.17956 0.0
C1400 C 0.74819 0.69662 0.1431 0.0
H1401 H 0.73413 0.66829 0.1062 0.0
C1402 C 0.7678 0.69408 0.14479 0.0
C1403 C 0.73587 0.68717 0.12906 0.0
C1404 C 0.71485 0.68994 0.12611 0.0
C1405 C 0.77542 0.68226 0.13285 0.0
C1406 C 0.76315 0.673 0.11865 0.0
C1407 C 0.74349 0.67535 0.11713 0.0
C1408 C 0.77051 0.6614 0.10475 0.0
C1409 C 0.79647 0.6796 0.13569 0.0
C1410 C 0.78465 0.66997 0.09247 0.0
C1411 C 0.79071 0.65939 0.07856 0.0
C1412 C 0.78265 0.64003 0.07657 0.0
C1413 C 0.76863 0.63142 0.08904 0.0
C1414 C 0.76258 0.64203 0.10295 0.0
H1415 H 0.80229 0.68294 0.15012 0.0
H1416 H 0.79855 0.66463 0.13313 0.0
H1417 H 0.80507 0.68954 0.1256 0.0
H1418 H 0.79067 0.685 0.09333 0.0
H1419 H 0.80146 0.66651 0.06915 0.0
H1420 H 0.98314 0.04208 0.05896 0.0
H1421 H 0.96108 0.03939 0.08468 0.0
H1422 H 0.00729 0.02664 0.1242 0.0
H1423 H 0.02959 0.02964 0.09856 0.0
H1424 H 0.95102 0.00715 0.11086 0.0
H1425 H 0.98628 0.07231 0.14633 0.0
H1426 H 0.99068 0.06803 0.12238 0.0
H1427 H 0.00199 0.05526 0.14159 0.0
C1428 C 0.98867 0.03884 0.07314 0.0
C1429 C 0.00818 0.03623 0.07672 0.0
C1430 C 0.97601 0.0372 0.08781 0.0
C1431 C 0.9826 0.03308 0.10638 0.0
C1432 C 0.00197 0.03012 0.11 0.0
H1433 H 0.92627 0.0235 0.21312 0.0
H1434 H 0.94934 0.02506 0.18838 0.0
C1435 C 0.01464 0.03166 0.09531 0.0
C1436 C 0.96911 0.03176 0.12189 0.0
H1437 H 0.96031 0.05334 0.16145 0.0
C1438 C 0.95302 0.01725 0.12192 0.0
C1439 C 0.9718 0.04491 0.13634 0.0
C1440 C 0.98852 0.06112 0.13669 0.0
C1441 C 0.93965 0.0154 0.13611 0.0
C1442 C 0.94216 0.02874 0.15043 0.0
C1443 C 0.95836 0.04315 0.15047 0.0
C1444 C 0.92809 0.02804 0.16542 0.0
C1445 C 0.92318 0.99892 0.13583 0.0
C1446 C 0.90852 0.02957 0.1608 0.0
C1447 C 0.89527 0.0286 0.1749 0.0
C1448 C 0.90134 0.02629 0.19397 0.0
C1449 C 0.92106 0.02524 0.19859 0.0
C1450 C 0.93429 0.02613 0.18445 0.0
H1451 H 0.92646 0.98707 0.12751 0.0
H1452 H 0.91996 0.99301 0.15029 0.0
H1453 H 0.90999 0.00417 0.12922 0.0
H1454 H 0.90347 0.03155 0.14625 0.0
H1455 H 0.88024 0.02962 0.17083 0.0
H1456 H 0.23674 0.76907 0.20191 0.0
H1457 H 0.22986 0.78549 0.17127 0.0
H1458 H 0.28613 0.77787 0.15375 0.0
H1459 H 0.29319 0.76174 0.18438 0.0
H1460 H 0.25635 0.82023 0.15285 0.0
H1461 H 0.24267 0.75383 0.11291 0.0
H1462 H 0.23979 0.75356 0.13794 0.0
H1463 H 0.26358 0.756 0.12907 0.0
C1464 C 0.24756 0.77082 0.19145 0.0
C1465 C 0.26529 0.7637 0.19529 0.0
C1466 C 0.24365 0.78023 0.17404 0.0
C1467 C 0.2574 0.78261 0.16024 0.0
C1468 C 0.27525 0.7759 0.16417 0.0
H1469 H 0.28064 0.82471 0.05003 0.0
H1470 H 0.27702 0.80892 0.08115 0.0
C1471 C 0.27924 0.76666 0.18161 0.0
C1472 C 0.25332 0.7922 0.14165 0.0
H1473 H 0.24692 0.78366 0.09504 0.0
C1474 C 0.25397 0.81229 0.14018 0.0
C1475 C 0.25018 0.78171 0.12527 0.0
C1476 C 0.24885 0.76005 0.12626 0.0
C1477 C 0.2527 0.82232 0.12254 0.0
C1478 C 0.25031 0.81186 0.10605 0.0
C1479 C 0.24874 0.79166 0.10768 0.0
C1480 C 0.25171 0.82155 0.08697 0.0
C1481 C 0.25503 0.84404 0.12164 0.0
C1482 C 0.23852 0.83385 0.07973 0.0
C1483 C 0.24061 0.84311 0.06178 0.0
C1484 C 0.25585 0.84008 0.05079 0.0
C1485 C 0.26874 0.82745 0.05804 0.0
C1486 C 0.26669 0.81834 0.07588 0.0
H1487 H 0.26029 0.84998 0.13537 0.0
H1488 H 0.26534 0.85021 0.11084 0.0
H1489 H 0.24082 0.84884 0.11764 0.0
H1490 H 0.22663 0.83626 0.08792 0.0
H1491 H 0.23039 0.85267 0.05658 0.0
H1492 H 0.01306 0.48226 0.11478 0.0
H1493 H 0.03676 0.48474 0.14154 0.0
H1494 H 0.0263 0.42304 0.15203 0.0
H1495 H 0.00282 0.42046 0.12515 0.0
H1496 H 0.03059 0.47489 0.17789 0.0
H1497 H 0.08468 0.43261 0.15414 0.0
H1498 H 0.06589 0.44074 0.13844 0.0
H1499 H 0.06069 0.41937 0.15366 0.0
C1500 C 0.01589 0.46923 0.12277 0.0
C1501 C 0.00612 0.45116 0.11788 0.0
C1502 C 0.02949 0.47065 0.13798 0.0
C1503 C 0.03356 0.45405 0.14859 0.0
C1504 C 0.02382 0.43599 0.14373 0.0
H1505 H 0.08768 0.42813 0.25614 0.0
H1506 H 0.07056 0.42814 0.22523 0.0
C1507 C 0.01034 0.43454 0.12842 0.0
C1508 C 0.04703 0.45572 0.16548 0.0
H1509 H 0.08674 0.43873 0.18696 0.0
C1510 C 0.04302 0.4672 0.17975 0.0
C1511 C 0.06327 0.4457 0.16788 0.0
C1512 C 0.06902 0.43407 0.15263 0.0
C1513 C 0.0544 0.46837 0.19663 0.0
C1514 C 0.07024 0.45788 0.19923 0.0
C1515 C 0.07452 0.44671 0.18487 0.0
C1516 C 0.08189 0.45764 0.21721 0.0
C1517 C 0.04905 0.48029 0.21185 0.0
C1518 C 0.09423 0.47413 0.22269 0.0
C1519 C 0.10412 0.47417 0.24033 0.0
C1520 C 0.10172 0.45773 0.25279 0.0
C1521 C 0.08977 0.44106 0.24695 0.0
C1522 C 0.08001 0.44101 0.22928 0.0
H1523 H 0.03476 0.48528 0.20868 0.0
H1524 H 0.04867 0.47186 0.22557 0.0
H1525 H 0.0602 0.49314 0.21331 0.0
H1526 H 0.09594 0.48705 0.21345 0.0
H1527 H 0.11323 0.48723 0.24438 0.0
H1528 H 0.32405 0.75002 0.26354 0.0
H1529 H 0.35501 0.75558 0.28164 0.0
H1530 H 0.35892 0.69483 0.28377 0.0
H1531 H 0.32827 0.68912 0.26512 0.0
H1532 H 0.36583 0.71592 0.32034 0.0
H1533 H 0.4096 0.74877 0.26085 0.0
H1534 H 0.38692 0.7575 0.26317 0.0
H1535 H 0.38695 0.73303 0.25739 0.0
C1536 C 0.33157 0.73784 0.26762 0.0
C1537 C 0.32363 0.71912 0.26279 0.0
C1538 C 0.34921 0.74105 0.27806 0.0
C1539 C 0.35923 0.72562 0.28394 0.0
C1540 C 0.35134 0.7069 0.27937 0.0
H1541 H 0.46632 0.72738 0.35661 0.0
H1542 H 0.43609 0.71591 0.33883 0.0
C1543 C 0.33377 0.70368 0.2688 0.0
C1544 C 0.37797 0.72914 0.29485 0.0
H1545 H 0.42469 0.75075 0.29138 0.0
C1546 C 0.37879 0.72338 0.31405 0.0
C1547 C 0.39476 0.73882 0.28651 0.0
C1548 C 0.39469 0.74481 0.26582 0.0
C1549 C 0.39586 0.7278 0.32535 0.0
C1550 C 0.41261 0.73786 0.31708 0.0
C1551 C 0.41185 0.74307 0.29773 0.0
C1552 C 0.43069 0.74437 0.32832 0.0
C1553 C 0.39557 0.72243 0.34616 0.0
C1554 C 0.43786 0.76408 0.32808 0.0
C1555 C 0.45514 0.77059 0.33795 0.0
C1556 C 0.46572 0.75756 0.34838 0.0
C1557 C 0.45846 0.73779 0.3488 0.0
C1558 C 0.44114 0.73123 0.33873 0.0
H1559 H 0.38055 0.71884 0.35093 0.0
H1560 H 0.40301 0.70958 0.34932 0.0
H1561 H 0.40329 0.73434 0.35441 0.0
H1562 H 0.43005 0.77448 0.32018 0.0
H1563 H 0.46021 0.78593 0.33736 0.0
H1564 H 0.0208 0.41887 0.03054 0.0
H1565 H 0.02462 0.39278 0.01059 0.0
H1566 H 0.96412 0.37025 0.01491 0.0
H1567 H 0.96015 0.39671 0.03457 0.0
H1568 H 0.01819 0.3527 0.01512 0.0
H1569 H 0.96933 0.3801 0.95842 0.0
H1570 H 0.97827 0.39384 0.9784 0.0
H1571 H 0.95874 0.37429 0.98076 0.0
C1572 C 0.00838 0.40819 0.02745 0.0
C1573 C 0.9902 0.4097 0.03418 0.0
C1574 C 0.01058 0.39329 0.01608 0.0
C1575 C 0.99462 0.37969 0.0111 0.0
C1576 C 0.97657 0.38074 0.01837 0.0
H1577 H 0.00702 0.28256 0.94197 0.0
H1578 H 0.00096 0.30069 0.96878 0.0
C1579 C 0.97434 0.39574 0.02968 0.0
C1580 C 0.99678 0.36529 0.99734 0.0
H1581 H 0.98301 0.35257 0.95263 0.0
C1582 C 0.01038 0.35252 0.00151 0.0
C1583 C 0.98671 0.36524 0.97952 0.0
C1584 C 0.97256 0.37918 0.97387 0.0
C1585 C 0.01448 0.33997 0.98818 0.0
C1586 C 0.00452 0.34008 0.97033 0.0
C1587 C 0.99057 0.35248 0.96637 0.0
C1588 C 0.00938 0.32872 0.9549 0.0
C1589 C 0.02999 0.32732 0.99298 0.0
C1590 C 0.01612 0.33844 0.93827 0.0
C1591 C 0.01944 0.32819 0.92298 0.0
C1592 C 0.01608 0.30793 0.92394 0.0
C1593 C 0.00985 0.29815 0.94082 0.0
C1594 C 0.00643 0.30848 0.95616 0.0
H1595 H 0.03881 0.3316 0.00591 0.0
H1596 H 0.02307 0.31218 0.99537 0.0
H1597 H 0.03978 0.32787 0.9812 0.0
H1598 H 0.01855 0.35405 0.93701 0.0
H1599 H 0.02433 0.33622 0.91026 0.0
H1600 H 0.6982 0.74599 0.26693 0.0
H1601 H 0.67117 0.74269 0.28791 0.0
H1602 H 0.66111 0.80057 0.27095 0.0
H1603 H 0.68769 0.80384 0.24972 0.0
H1604 H 0.6654 0.76615 0.31835 0.0
H1605 H 0.60799 0.76733 0.26128 0.0
H1606 H 0.63216 0.76278 0.25723 0.0
H1607 H 0.62739 0.78701 0.25923 0.0
C1608 C 0.69014 0.75796 0.26759 0.0
C1609 C 0.69508 0.77516 0.25661 0.0
C1610 C 0.67479 0.75609 0.27965 0.0
C1611 C 0.66401 0.7713 0.28079 0.0
C1612 C 0.66909 0.78856 0.27008 0.0
H1613 H 0.5707 0.80373 0.33628 0.0
H1614 H 0.59859 0.80034 0.31854 0.0
C1615 C 0.68442 0.79047 0.25809 0.0
C1616 C 0.64739 0.76931 0.2931 0.0
H1617 H 0.59896 0.77208 0.29215 0.0
C1618 C 0.6508 0.76718 0.31267 0.0
C1619 C 0.62837 0.77054 0.2856 0.0
C1620 C 0.62366 0.77185 0.26468 0.0
C1621 C 0.63582 0.76725 0.32499 0.0
C1622 C 0.61697 0.76925 0.31747 0.0
C1623 C 0.61346 0.77065 0.29789 0.0
C1624 C 0.60088 0.7713 0.32951 0.0
C1625 C 0.64041 0.76604 0.34592 0.0
C1626 C 0.59299 0.75611 0.34176 0.0
C1627 C 0.57693 0.75799 0.35204 0.0
C1628 C 0.56848 0.77507 0.35012 0.0
C1629 C 0.57675 0.79034 0.3381 0.0
C1630 C 0.59272 0.78845 0.32791 0.0
H1631 H 0.65627 0.76791 0.34941 0.0
H1632 H 0.63399 0.77717 0.35282 0.0
H1633 H 0.63401 0.75172 0.3519 0.0
H1634 H 0.59891 0.74264 0.34301 0.0
H1635 H 0.57087 0.74594 0.36111 0.0
H1636 H 0.03028 0.09412 0.03893 0.0
H1637 H 0.02827 0.12093 0.01561 0.0
H1638 H 0.03567 0.08404 0.97139 0.0
H1639 H 0.03701 0.05694 0.99456 0.0
H1640 H 0.05515 0.13789 0.99037 0.0
H1641 H 0.98712 0.10689 0.95252 0.0
H1642 H 0.99511 0.09715 0.97521 0.0
H1643 H 0.0058 0.0917 0.95425 0.0
C1644 C 0.03124 0.09162 0.02422 0.0
C1645 C 0.03363 0.0733 0.01863 0.0
C1646 C 0.03022 0.10701 0.01092 0.0
C1647 C 0.0315 0.10443 0.99172 0.0
C1648 C 0.03426 0.08628 0.98609 0.0
H1649 H 0.02842 0.18214 0.89152 0.0
H1650 H 0.03109 0.15456 0.91387 0.0
C1651 C 0.03526 0.07086 0.99939 0.0
C1652 C 0.03022 0.12084 0.97768 0.0
H1653 H 0.00373 0.13595 0.93915 0.0
C1654 C 0.04388 0.13749 0.9792 0.0
C1655 C 0.01551 0.12028 0.96309 0.0
C1656 C 0.99993 0.10313 0.9612 0.0
C1657 C 0.04337 0.15351 0.96642 0.0
C1658 C 0.02862 0.15299 0.9519 0.0
C1659 C 0.01504 0.1363 0.95028 0.0
C1660 C 0.02689 0.16973 0.93839 0.0
C1661 C 0.05883 0.17075 0.96839 0.0
C1662 C 0.02334 0.18733 0.94473 0.0
C1663 C 0.02178 0.20311 0.93201 0.0
C1664 C 0.02367 0.20159 0.91265 0.0
C1665 C 0.02695 0.18384 0.90632 0.0
C1666 C 0.02847 0.16805 0.91907 0.0
H1667 H 0.07173 0.16702 0.97696 0.0
H1668 H 0.06353 0.17691 0.95441 0.0
H1669 H 0.05289 0.18203 0.9755 0.0
H1670 H 0.02168 0.18884 0.95953 0.0
H1671 H 0.01915 0.21651 0.93738 0.0
H1672 H 0.35816 0.28588 0.29205 0.0
H1673 H 0.38259 0.27989 0.27093 0.0
H1674 H 0.41016 0.33873 0.27427 0.0
H1675 H 0.38528 0.34491 0.29508 0.0
H1676 H 0.40382 0.32928 0.23891 0.0
H1677 H 0.43844 0.27186 0.27808 0.0
H1678 H 0.41261 0.2656 0.27641 0.0
H1679 H 0.42331 0.28615 0.28916 0.0
C1680 C 0.3697 0.29741 0.28862 0.0
C1681 C 0.37009 0.31576 0.29548 0.0
C1682 C 0.38374 0.29394 0.27665 0.0
C1683 C 0.39851 0.30872 0.27136 0.0
C1684 C 0.39906 0.32703 0.27839 0.0
H1685 H 0.48474 0.28449 0.19398 0.0
H1686 H 0.4705 0.2937 0.22208 0.0
C1687 C 0.38492 0.33054 0.29029 0.0
C1688 C 0.4119 0.30556 0.25687 0.0
H1689 H 0.44114 0.27406 0.24426 0.0
C1690 C 0.41225 0.31741 0.24024 0.0
C1691 C 0.42316 0.29026 0.25866 0.0
C1692 C 0.42454 0.27789 0.27664 0.0
C1693 C 0.42263 0.31372 0.22499 0.0
C1694 C 0.43258 0.29749 0.22624 0.0
C1695 C 0.43322 0.28631 0.24323 0.0
C1696 C 0.44129 0.29128 0.20965 0.0
C1697 C 0.42259 0.32708 0.20755 0.0
C1698 C 0.42948 0.28638 0.19359 0.0
C1699 C 0.43752 0.28119 0.17759 0.0
C1700 C 0.45754 0.2806 0.17734 0.0
C1701 C 0.46928 0.28487 0.19368 0.0
C1702 C 0.46119 0.29014 0.20974 0.0
H1703 H 0.41975 0.34163 0.21084 0.0
H1704 H 0.4366 0.32856 0.20066 0.0
H1705 H 0.4109 0.32115 0.19742 0.0
H1706 H 0.41401 0.28669 0.1934 0.0
H1707 H 0.428 0.27779 0.16534 0.0
H1708 H 0.52932 0.44423 0.9918 0.0
H1709 H 0.52008 0.41614 0.0131 0.0
H1710 H 0.57954 0.40582 0.0192 0.0
H1711 H 0.58891 0.43355 0.99743 0.0
H1712 H 0.52959 0.37529 0.00873 0.0
H1713 H 0.55951 0.40998 0.07437 0.0
H1714 H 0.55285 0.42389 0.05342 0.0
H1715 H 0.57437 0.41265 0.05432 0.0
C1716 C 0.54042 0.43586 0.99743 0.0
C1717 C 0.55988 0.44119 0.9929 0.0
C1718 C 0.53512 0.4199 0.0097 0.0
C1719 C 0.54917 0.4091 0.01779 0.0
C1720 C 0.56855 0.41418 0.01323 0.0
H1721 H 0.53592 0.31391 0.10372 0.0
H1722 H 0.54967 0.33985 0.0817 0.0
C1723 C 0.57386 0.43007 0.00086 0.0
C1724 C 0.54345 0.39243 0.03095 0.0
H1725 H 0.5442 0.3779 0.07753 0.0
C1726 C 0.53282 0.37578 0.02376 0.0
C1727 C 0.54793 0.39314 0.05048 0.0
C1728 C 0.55922 0.41086 0.05876 0.0
C1729 C 0.52634 0.35978 0.03569 0.0
C1730 C 0.53015 0.36073 0.05535 0.0
C1731 C 0.54124 0.37724 0.06247 0.0
C1732 C 0.52196 0.34513 0.06878 0.0
C1733 C 0.5156 0.34197 0.02709 0.0
C1734 C 0.50183 0.33982 0.06908 0.0
C1735 C 0.49396 0.32502 0.08152 0.0
C1736 C 0.50605 0.31536 0.09413 0.0
C1737 C 0.52621 0.32104 0.09416 0.0
C1738 C 0.5341 0.33583 0.08159 0.0
H1739 H 0.51926 0.34124 0.01223 0.0
H1740 H 0.51893 0.32866 0.03511 0.0
H1741 H 0.49978 0.34234 0.02721 0.0
H1742 H 0.49217 0.34718 0.05969 0.0
H1743 H 0.47836 0.32117 0.08123 0.0
H1744 H 0.67119 0.24498 0.27699 0.0
H1745 H 0.64437 0.24901 0.25416 0.0
H1746 H 0.68258 0.24993 0.20876 0.0
H1747 H 0.70968 0.24627 0.23155 0.0
H1748 H 0.64337 0.28056 0.22587 0.0
H1749 H 0.63513 0.20867 0.19542 0.0
H1750 H 0.64766 0.21336 0.21791 0.0
H1751 H 0.65915 0.22203 0.19657 0.0
C1752 C 0.67396 0.24617 0.26216 0.0
C1753 C 0.69263 0.24541 0.2561 0.0
C1754 C 0.65859 0.24835 0.24914 0.0
C1755 C 0.66148 0.24962 0.22981 0.0
C1756 C 0.68001 0.24869 0.22364 0.0
H1757 H 0.57805 0.26051 0.13458 0.0
H1758 H 0.60774 0.25774 0.15405 0.0
C1759 C 0.69545 0.24657 0.23667 0.0
C1760 C 0.64515 0.2525 0.21622 0.0
H1761 H 0.61459 0.2305 0.18247 0.0
C1762 C 0.63709 0.26965 0.21633 0.0
C1763 C 0.63713 0.23829 0.20374 0.0
C1764 C 0.64506 0.21947 0.20338 0.0
C1765 C 0.62111 0.27296 0.20432 0.0
C1766 C 0.61269 0.25851 0.19221 0.0
C1767 C 0.62103 0.24152 0.19181 0.0
C1768 C 0.59481 0.26046 0.18037 0.0
C1769 C 0.6135 0.29197 0.20462 0.0
C1770 C 0.57766 0.26267 0.18874 0.0
C1771 C 0.56072 0.26434 0.17768 0.0
C1772 C 0.56055 0.26363 0.15802 0.0
C1773 C 0.57771 0.26118 0.14968 0.0
C1774 C 0.59468 0.25957 0.16077 0.0
H1775 H 0.62476 0.30336 0.21013 0.0
H1776 H 0.60831 0.29686 0.19034 0.0
H1777 H 0.60116 0.29027 0.21397 0.0
H1778 H 0.5773 0.26292 0.20388 0.0
H1779 H 0.54774 0.26604 0.18459 0.0
H1780 H 0.44327 0.10494 0.00966 0.0
H1781 H 0.45044 0.1276 0.03451 0.0
H1782 H 0.50823 0.11272 0.04283 0.0
H1783 H 0.5011 0.08972 0.01804 0.0
H1784 H 0.4633 0.11916 0.07332 0.0
H1785 H 0.51573 0.17263 0.03444 0.0
H1786 H 0.49907 0.15466 0.02257 0.0
H1787 H 0.51978 0.14784 0.03602 0.0
C1788 C 0.45747 0.10634 0.01686 0.0
C1789 C 0.47161 0.0955 0.0119 0.0
C1790 C 0.46155 0.11934 0.03101 0.0
C1791 C 0.47987 0.12187 0.04041 0.0
C1792 C 0.49408 0.11112 0.03555 0.0
H1793 H 0.51349 0.2151 0.11772 0.0
H1794 H 0.5152 0.18525 0.10222 0.0
C1795 C 0.48999 0.09805 0.02137 0.0
C1796 C 0.48384 0.13587 0.05523 0.0
H1797 H 0.50697 0.1809 0.06375 0.0
C1798 C 0.47306 0.13255 0.07139 0.0
C1799 C 0.49673 0.15319 0.05273 0.0
C1800 C 0.50847 0.15747 0.03549 0.0
C1801 C 0.4742 0.14651 0.08474 0.0
C1802 C 0.48614 0.16435 0.08163 0.0
C1803 C 0.4978 0.1672 0.06606 0.0
C1804 C 0.4849 0.18103 0.09292 0.0
C1805 C 0.46224 0.14223 0.10182 0.0
C1806 C 0.4673 0.18843 0.09287 0.0
C1807 C 0.46629 0.20541 0.10158 0.0
C1808 C 0.4829 0.21542 0.11049 0.0
C1809 C 0.50042 0.20767 0.11105 0.0
C1810 C 0.50144 0.19067 0.10219 0.0
H1811 H 0.45934 0.12649 0.10542 0.0
H1812 H 0.46956 0.14953 0.1142 0.0
H1813 H 0.44807 0.14747 0.09879 0.0
H1814 H 0.45446 0.18145 0.08545 0.0
H1815 H 0.45257 0.21097 0.10088 0.0
H1816 H 0.24992 0.31232 0.69974 0.0
H1817 H 0.27052 0.34365 0.69687 0.0
H1818 H 0.27863 0.34366 0.75726 0.0
H1819 H 0.2584 0.31227 0.76023 0.0
H1820 H 0.26334 0.37767 0.71181 0.0
H1821 H 0.33404 0.35811 0.73963 0.0
H1822 H 0.31426 0.34042 0.73178 0.0
H1823 H 0.31471 0.34946 0.75485 0.0
C1824 C 0.25639 0.31885 0.71238 0.0
C1825 C 0.25254 0.30983 0.73022 0.0
C1826 C 0.26807 0.33677 0.71072 0.0
C1827 C 0.27632 0.34585 0.72683 0.0
C1828 C 0.27271 0.33675 0.74462 0.0
H1829 H 0.30699 0.45841 0.75983 0.0
H1830 H 0.29199 0.427 0.74981 0.0
C1831 C 0.26097 0.31891 0.74631 0.0
C1832 C 0.28755 0.36544 0.72529 0.0
H1833 H 0.3303 0.39166 0.73979 0.0
C1834 C 0.27811 0.3807 0.7176 0.0
C1835 C 0.30692 0.36935 0.73257 0.0
C1836 C 0.31816 0.35344 0.74 0.0
C1837 C 0.28708 0.39988 0.71817 0.0
C1838 C 0.30589 0.40388 0.72678 0.0
C1839 C 0.31582 0.38857 0.73331 0.0
C1840 C 0.31449 0.42373 0.73121 0.0
C1841 C 0.27614 0.41577 0.71006 0.0
C1842 C 0.33221 0.43233 0.72411 0.0
C1843 C 0.34088 0.45047 0.72979 0.0
C1844 C 0.3321 0.46003 0.74295 0.0
C1845 C 0.31418 0.45144 0.74971 0.0
C1846 C 0.30549 0.43352 0.7439 0.0
H1847 H 0.26497 0.41047 0.69913 0.0
H1848 H 0.26865 0.42124 0.72145 0.0
H1849 H 0.28611 0.42796 0.70379 0.0
H1850 H 0.33945 0.4249 0.71441 0.0
H1851 H 0.35473 0.45667 0.72442 0.0
H1852 H 0.28191 0.71019 0.73865 0.0
H1853 H 0.29656 0.68171 0.73216 0.0
H1854 H 0.27847 0.65445 0.78532 0.0
H1855 H 0.26399 0.68291 0.79195 0.0
H1856 H 0.32607 0.6639 0.75603 0.0
H1857 H 0.25706 0.61494 0.74459 0.0
H1858 H 0.25846 0.64087 0.74286 0.0
H1859 H 0.25869 0.62814 0.76552 0.0
C1860 C 0.2809 0.69802 0.74884 0.0
C1861 C 0.27132 0.69851 0.76555 0.0
C1862 C 0.28933 0.68183 0.74516 0.0
C1863 C 0.28829 0.66587 0.75811 0.0
C1864 C 0.27908 0.66649 0.77498 0.0
H1865 H 0.32206 0.5567 0.78164 0.0
H1866 H 0.30903 0.58696 0.77829 0.0
C1867 C 0.2708 0.68271 0.77873 0.0
C1868 C 0.29706 0.64862 0.7543 0.0
H1869 H 0.28578 0.60029 0.74917 0.0
C1870 C 0.31732 0.65001 0.75424 0.0
C1871 C 0.28556 0.6306 0.75184 0.0
C1872 C 0.26372 0.62848 0.75102 0.0
C1873 C 0.32642 0.63357 0.75294 0.0
C1874 C 0.3149 0.61538 0.7513 0.0
C1875 C 0.29461 0.61422 0.75044 0.0
C1876 C 0.32339 0.5971 0.75276 0.0
C1877 C 0.34825 0.63561 0.75437 0.0
C1878 C 0.33586 0.59262 0.73944 0.0
C1879 C 0.34353 0.57513 0.74135 0.0
C1880 C 0.33872 0.56185 0.75656 0.0
C1881 C 0.32613 0.56648 0.76972 0.0
C1882 C 0.31859 0.58383 0.76783 0.0
H1883 H 0.35492 0.65008 0.75875 0.0
H1884 H 0.35321 0.62453 0.76461 0.0
H1885 H 0.35362 0.63342 0.74046 0.0
H1886 H 0.33953 0.60254 0.72752 0.0
H1887 H 0.35312 0.57199 0.73095 0.0
H1888 H 0.92562 0.53677 0.46032 0.0
H1889 H 0.89597 0.51352 0.4603 0.0
H1890 H 0.89796 0.51138 0.52093 0.0
H1891 H 0.92809 0.53378 0.52113 0.0
H1892 H 0.8921 0.47627 0.50815 0.0
H1893 H 0.84088 0.52004 0.46973 0.0
H1894 H 0.86198 0.51883 0.45694 0.0
H1895 H 0.86448 0.53045 0.47888 0.0
C1896 C 0.9198 0.5313 0.47366 0.0
C1897 C 0.92926 0.5372 0.49073 0.0
C1898 C 0.90265 0.51824 0.47361 0.0
C1899 C 0.89451 0.51101 0.4906 0.0
C1900 C 0.90386 0.51694 0.50763 0.0
H1901 H 0.78343 0.43635 0.504 0.0
H1902 H 0.80885 0.4645 0.50308 0.0
C1903 C 0.92105 0.52986 0.50771 0.0
C1904 C 0.87708 0.49617 0.49075 0.0
H1905 H 0.83019 0.48607 0.47354 0.0
C1906 C 0.87853 0.47851 0.50071 0.0
C1907 C 0.85927 0.49917 0.48125 0.0
C1908 C 0.85645 0.51822 0.47126 0.0
C1909 C 0.86288 0.46358 0.50102 0.0
C1910 C 0.84542 0.4662 0.49072 0.0
C1911 C 0.84369 0.48404 0.48122 0.0
C1912 C 0.82913 0.45024 0.48931 0.0
C1913 C 0.8652 0.44513 0.51246 0.0
C1914 C 0.83188 0.43326 0.48122 0.0
C1915 C 0.81757 0.41725 0.48185 0.0
C1916 C 0.80006 0.41794 0.49038 0.0
C1917 C 0.79679 0.43538 0.49739 0.0
C1918 C 0.81127 0.45143 0.49689 0.0
H1919 H 0.87707 0.44738 0.52352 0.0
H1920 H 0.85159 0.43907 0.51927 0.0
H1921 H 0.86885 0.43436 0.50305 0.0
H1922 H 0.8454 0.43221 0.47492 0.0
H1923 H 0.82043 0.40413 0.47605 0.0
H1924 H 0.82679 0.88519 0.84163 0.0
H1925 H 0.80067 0.90514 0.83728 0.0
H1926 H 0.76039 0.85784 0.8594 0.0
H1927 H 0.78626 0.8378 0.86362 0.0
H1928 H 0.76672 0.89731 0.81481 0.0
H1929 H 0.74981 0.9028 0.88899 0.0
H1930 H 0.77202 0.89523 0.8825 0.0
H1931 H 0.74996 0.87846 0.88282 0.0
C1932 C 0.81238 0.87908 0.84566 0.0
C1933 C 0.80863 0.85993 0.85307 0.0
C1934 C 0.79751 0.89051 0.84323 0.0
C1935 C 0.77867 0.88306 0.8483 0.0
C1936 C 0.77492 0.86403 0.85585 0.0
H1937 H 0.66347 0.91113 0.83493 0.0
H1938 H 0.69344 0.89749 0.84227 0.0
C1939 C 0.78975 0.8526 0.85827 0.0
C1940 C 0.76261 0.89466 0.84458 0.0
H1941 H 0.7261 0.91133 0.86552 0.0
C1942 C 0.75798 0.90063 0.82591 0.0
C1943 C 0.75126 0.89894 0.8591 0.0
C1944 C 0.7561 0.8937 0.8795 0.0
C1945 C 0.74178 0.91005 0.82126 0.0
C1946 C 0.73012 0.91385 0.83573 0.0
C1947 C 0.73505 0.90834 0.85445 0.0
C1948 C 0.71216 0.92261 0.83162 0.0
C1949 C 0.73681 0.91513 0.80084 0.0
C1950 C 0.7128 0.94138 0.82343 0.0
C1951 C 0.69565 0.94925 0.81917 0.0
C1952 C 0.67759 0.93848 0.8231 0.0
C1953 C 0.6771 0.91981 0.83164 0.0
C1954 C 0.69422 0.91198 0.83589 0.0
H1955 H 0.74482 0.90766 0.79125 0.0
H1956 H 0.72103 0.91134 0.79752 0.0
H1957 H 0.74069 0.93088 0.79796 0.0
H1958 H 0.72654 0.94993 0.82032 0.0
H1959 H 0.69656 0.96371 0.81269 0.0
H1960 H 0.59421 0.52678 0.9721 0.0
H1961 H 0.62468 0.54784 0.9788 0.0
H1962 H 0.65428 0.49807 0.98882 0.0
H1963 H 0.62387 0.47695 0.98232 0.0
H1964 H 0.6642 0.52476 0.01566 0.0
H1965 H 0.66919 0.55973 0.94365 0.0
H1966 H 0.64718 0.56157 0.95476 0.0
H1967 H 0.65233 0.53836 0.94902 0.0
C1968 C 0.60726 0.52036 0.97561 0.0
C1969 C 0.6067 0.50023 0.97659 0.0
C1970 C 0.62463 0.53239 0.97943 0.0
C1971 C 0.64177 0.52452 0.98404 0.0
C1972 C 0.6412 0.50443 0.98528 0.0
H1973 H 0.76036 0.57408 0.97695 0.0
H1974 H 0.72751 0.557 0.97347 0.0
C1975 C 0.62383 0.49239 0.98159 0.0
C1976 C 0.66041 0.53711 0.9875 0.0
H1977 H 0.69323 0.57134 0.96642 0.0
C1978 C 0.67054 0.53502 0.00494 0.0
C1979 C 0.66868 0.55034 0.97341 0.0
C1980 C 0.65891 0.55257 0.95409 0.0
C1981 C 0.68887 0.54563 0.00861 0.0
C1982 C 0.69707 0.55894 0.99455 0.0
C1983 C 0.68681 0.56123 0.97722 0.0
C1984 C 0.71689 0.56961 0.99697 0.0
C1985 C 0.69957 0.54197 0.02721 0.0
C1986 C 0.7218 0.58252 0.01128 0.0
C1987 C 0.74068 0.59227 0.01342 0.0
C1988 C 0.7549 0.5894 0.00114 0.0
C1989 C 0.74979 0.57665 0.98667 0.0
C1990 C 0.73101 0.56687 0.98462 0.0
H1991 H 0.69323 0.52833 0.03464 0.0
H1992 H 0.7151 0.54129 0.0252 0.0
H1993 H 0.69874 0.55395 0.03637 0.0
H1994 H 0.71101 0.58512 0.02074 0.0
H1995 H 0.74411 0.60207 0.02463 0.0
H1996 H 0.26324 0.67899 0.27938 0.0
H1997 H 0.24167 0.6489 0.28581 0.0
H1998 H 0.23064 0.64258 0.22626 0.0
H1999 H 0.25273 0.67227 0.21968 0.0
H2000 H 0.20274 0.63879 0.27581 0.0
H2001 H 0.24754 0.59103 0.24474 0.0
H2002 H 0.25666 0.61563 0.24979 0.0
H2003 H 0.24137 0.61048 0.22903 0.0
C2004 C 0.25638 0.6711 0.26764 0.0
C2005 C 0.25984 0.67796 0.24901 0.0
C2006 C 0.24396 0.65398 0.27135 0.0
C2007 C 0.2348 0.64336 0.25652 0.0
C2008 C 0.23784 0.65037 0.23792 0.0
H2009 H 0.13787 0.55055 0.26597 0.0
H2010 H 0.15867 0.58093 0.25872 0.0
C2011 C 0.2503 0.66747 0.23419 0.0
C2012 C 0.22203 0.62497 0.26056 0.0
H2013 H 0.21637 0.57675 0.25392 0.0
C2014 C 0.2057 0.62521 0.27105 0.0
C2015 C 0.2261 0.60726 0.25453 0.0
C2016 C 0.24396 0.60596 0.24405 0.0
C2017 C 0.19321 0.60821 0.27553 0.0
C2018 C 0.19699 0.59058 0.26905 0.0
C2019 C 0.21342 0.59032 0.25872 0.0
C2020 C 0.18435 0.57213 0.27323 0.0
C2021 C 0.17633 0.60923 0.28749 0.0
C2022 C 0.192 0.55691 0.28335 0.0
C2023 C 0.1802 0.53948 0.28738 0.0
C2024 C 0.16051 0.53691 0.28131 0.0
C2025 C 0.15293 0.5521 0.27097 0.0
C2026 C 0.16477 0.56952 0.2669 0.0
H2027 H 0.17834 0.62264 0.29525 0.0
H2028 H 0.16292 0.60908 0.2783 0.0
H2029 H 0.17425 0.59667 0.2978 0.0
H2030 H 0.2071 0.5586 0.28828 0.0
H2031 H 0.18652 0.52807 0.29534 0.0
H2032 H 0.97053 0.50004 0.08539 0.0
H2033 H 0.94749 0.5231 0.0797 0.0
H2034 H 0.90052 0.47614 0.07498 0.0
H2035 H 0.92372 0.45302 0.07996 0.0
H2036 H 0.89748 0.50102 0.04733 0.0
H2037 H 0.91011 0.54167 0.11159 0.0
H2038 H 0.93236 0.54196 0.10025 0.0
H2039 H 0.91969 0.51944 0.10951 0.0
C2040 C 0.95524 0.49466 0.08341 0.0
C2041 C 0.94887 0.47477 0.08313 0.0
C2042 C 0.94205 0.50785 0.08031 0.0
C2043 C 0.92217 0.5014 0.07732 0.0
C2044 C 0.91576 0.48148 0.07737 0.0
H2045 H 0.83612 0.58217 0.06204 0.0
H2046 H 0.85605 0.55832 0.07616 0.0
C2047 C 0.929 0.46829 0.08015 0.0
C2048 C 0.90837 0.51542 0.07239 0.0
H2049 H 0.89493 0.55761 0.08475 0.0
C2050 C 0.89676 0.51322 0.0557 0.0
C2051 C 0.90706 0.5312 0.08343 0.0
C2052 C 0.91782 0.53358 0.10229 0.0
C2053 C 0.88458 0.52673 0.04933 0.0
C2054 C 0.88449 0.54332 0.05956 0.0
C2055 C 0.89534 0.5451 0.07671 0.0
C2056 C 0.87375 0.55918 0.05215 0.0
C2057 C 0.87193 0.52305 0.03165 0.0
C2058 C 0.87769 0.56816 0.0344 0.0
C2059 C 0.86627 0.58151 0.02628 0.0
C2060 C 0.85092 0.5865 0.03593 0.0
C2061 C 0.84785 0.57857 0.05429 0.0
C2062 C 0.85917 0.56493 0.06233 0.0
H2063 H 0.86891 0.50743 0.02918 0.0
H2064 H 0.85792 0.52863 0.03232 0.0
H2065 H 0.87955 0.5304 0.0194 0.0
H2066 H 0.88926 0.5644 0.02654 0.0
H2067 H 0.86918 0.5876 0.01223 0.0
H2068 H 0.06264 0.96516 0.05148 0.0
H2069 H 0.08978 0.94729 0.04792 0.0
H2070 H 0.11421 0.99183 0.00823 0.0
H2071 H 0.0871 0.00979 0.0119 0.0
H2072 H 0.0996 0.9334 0.01419 0.0
H2073 H 0.16071 0.98368 0.04441 0.0
H2074 H 0.13571 0.98527 0.04835 0.0
H2075 H 0.14583 0.99434 0.02642 0.0
C2076 C 0.07392 0.9712 0.04215 0.0
C2077 C 0.07277 0.98878 0.03186 0.0
C2078 C 0.08938 0.96099 0.0401 0.0
C2079 C 0.10411 0.96827 0.02791 0.0
C2080 C 0.10319 0.98606 0.01794 0.0
H2081 H 0.20599 0.92261 0.99416 0.0
H2082 H 0.18024 0.94221 0.99756 0.0
C2083 C 0.0877 0.99626 0.01996 0.0
C2084 C 0.11982 0.95674 0.02494 0.0
H2085 H 0.16885 0.95695 0.02953 0.0
C2086 C 0.11474 0.93852 0.01761 0.0
C2087 C 0.13958 0.9635 0.02926 0.0
C2088 C 0.14585 0.98269 0.03769 0.0
C2089 C 0.12886 0.92694 0.01432 0.0
C2090 C 0.14861 0.93356 0.01887 0.0
C2091 C 0.15372 0.95187 0.02605 0.0
C2092 C 0.16413 0.92154 0.01664 0.0
C2093 C 0.12249 0.90786 0.00566 0.0
C2094 C 0.16377 0.90348 0.02636 0.0
C2095 C 0.17841 0.89221 0.02439 0.0
C2096 C 0.19386 0.89883 0.01277 0.0
C2097 C 0.19428 0.91702 0.00316 0.0
C2098 C 0.17959 0.92827 0.00512 0.0
H2099 H 0.10808 0.90747 0.99808 0.0
H2100 H 0.13312 0.90483 0.99568 0.0
H2101 H 0.12132 0.89619 0.01695 0.0
H2102 H 0.15225 0.89815 0.03567 0.0
H2103 H 0.17768 0.87837 0.03214 0.0
loop_
_geom_bond_atom_site_label_1
_geom_bond_atom_site_label_2
_geom_bond_distance
_geom_bond_site_symmetry_2
_ccdc_geom_bond_type
H0 C7 0.929 . S
H1 C10 0.930 . S
H2 C12 0.929 . S
H3 C4 0.969 1_565 S
C4 H3 0.969 1_545 S
C4 O5 1.550 . S
C4 H6 0.976 . S
O5 C4 1.550 . S
O5 C11 1.412 . S
H6 C4 0.976 . S
C7 H0 0.929 . S
C7 C8 1.400 . S
C7 C9 1.364 . S
C8 C7 1.400 . S
C8 C12 1.377 . S
C9 C7 1.364 . S
C9 C10 1.374 . S
C10 H1 0.930 . S
C10 C9 1.374 . S
C10 C11 1.383 . S
C11 O5 1.412 . S
C11 C10 1.383 . S
C11 C12 1.394 . S
C12 H2 0.929 . S
C12 C8 1.377 . S
C12 C11 1.394 . S
H13 C20 0.929 . S
H14 C23 0.930 . S
H15 C25 0.929 . S
H16 C17 0.969 . S
C17 H16 0.969 . S
C17 O18 1.550 . S
C17 H19 0.973 . S
O18 C17 1.550 . S
O18 C24 1.412 . S
H19 C17 0.973 . S
C20 H13 0.929 . S
C20 C21 1.400 . S
C20 C22 1.364 . S
C21 C20 1.400 . S
C21 C25 1.377 . S
C22 C20 1.364 . S
C22 C23 1.374 . S
C23 H14 0.930 . S
C23 C22 1.374 . S
C23 C24 1.383 . S
C24 O18 1.412 . S
C24 C23 1.383 . S
C24 C25 1.394 . S
C25 H15 0.929 . S
C25 C21 1.377 . S
C25 C24 1.394 . S
H26 C33 0.929 . S
H27 C36 0.930 . S
H28 C38 0.929 . S
H29 C30 0.969 . S
C30 H29 0.969 . S
C30 O31 1.550 . S
C30 H32 0.973 . S
O31 C30 1.550 . S
O31 C37 1.412 . S
H32 C30 0.973 . S
C33 H26 0.929 . S
C33 C34 1.400 . S
C33 C35 1.364 . S
C34 C33 1.400 . S
C34 C38 1.377 . S
C35 C33 1.364 . S
C35 C36 1.374 . S
C36 H27 0.930 . S
C36 C35 1.374 . S
C36 C37 1.383 . S
C37 O31 1.412 . S
C37 C36 1.383 . S
C37 C38 1.394 . S
C38 H28 0.929 . S
C38 C34 1.377 . S
C38 C37 1.394 . S
H39 C46 0.929 . S
H40 C49 0.930 . S
H41 C51 0.929 . S
H42 C43 0.969 . S
C43 H42 0.969 . S
C43 O44 1.550 . S
C43 H45 0.973 . S
O44 C43 1.550 . S
O44 C50 1.412 . S
H45 C43 0.973 . S
C46 H39 0.929 . S
C46 C47 1.400 . S
C46 C48 1.364 . S
C47 C46 1.400 . S
C47 C51 1.377 . S
C48 C46 1.364 . S
C48 C49 1.374 . S
C49 H40 0.930 . S
C49 C48 1.374 . S
C49 C50 1.383 . S
C50 O44 1.412 . S
C50 C49 1.383 . S
C50 C51 1.394 . S
C51 H41 0.929 . S
C51 C47 1.377 . S
C51 C50 1.394 . S
H52 C59 0.929 . S
H53 C62 0.930 . S
H54 C64 0.929 . S
H55 C56 0.969 . S
C56 H55 0.969 . S
C56 O57 1.550 . S
C56 H58 0.973 . S
O57 C56 1.550 . S
O57 C63 1.412 . S
H58 C56 0.973 . S
C59 H52 0.929 . S
C59 C60 1.400 . S
C59 C61 1.364 . S
C60 C59 1.400 . S
C60 C64 1.377 . S
C61 C59 1.364 . S
C61 C62 1.374 . S
C62 H53 0.930 . S
C62 C61 1.374 . S
C62 C63 1.383 . S
C63 O57 1.412 . S
C63 C62 1.383 . S
C63 C64 1.394 . S
C64 H54 0.929 . S
C64 C60 1.377 . S
C64 C63 1.394 . S
H65 C72 0.929 . S
H66 C75 0.930 . S
H67 C77 0.929 . S
H68 C69 0.969 . S
C69 H68 0.969 . S
C69 O70 1.550 . S
C69 H71 0.973 . S
O70 C69 1.550 . S
O70 C76 1.412 . S
H71 C69 0.973 . S
C72 H65 0.929 . S
C72 C73 1.400 . S
C72 C74 1.364 . S
C73 C72 1.400 . S
C73 C77 1.377 . S
C74 C72 1.364 . S
C74 C75 1.374 . S
C75 H66 0.930 . S
C75 C74 1.374 . S
C75 C76 1.383 . S
C76 O70 1.412 . S
C76 C75 1.383 . S
C76 C77 1.394 . S
C77 H67 0.929 . S
C77 C73 1.377 . S
C77 C76 1.394 . S
H78 C85 0.929 . S
H79 C88 0.930 . S
H80 C90 0.926 . S
H81 C82 0.969 . S
C82 H81 0.969 . S
C82 O83 1.550 1_655 S
C82 H84 0.973 . S
O83 C82 1.550 1_455 S
O83 C89 1.412 1_455 S
H84 C82 0.973 . S
C85 H78 0.929 . S
C85 C86 1.400 . S
C85 C87 1.364 . S
C86 C85 1.400 . S
C86 C90 1.377 . S
C87 C85 1.364 . S
C87 C88 1.374 . S
C88 H79 0.930 . S
C88 C87 1.374 . S
C88 C89 1.383 . S
C89 O83 1.412 1_655 S
C89 C88 1.383 . S
C89 C90 1.394 . S
C90 H80 0.926 . S
C90 C86 1.377 . S
C90 C89 1.394 . S
H91 C98 0.929 . S
H92 C101 0.930 . S
H93 C103 0.929 . S
H94 C95 0.969 . S
C95 H94 0.969 . S
C95 O96 1.550 . S
C95 H97 0.973 . S
O96 C95 1.550 . S
O96 C102 1.412 . S
H97 C95 0.973 . S
C98 H91 0.929 . S
C98 C99 1.400 . S
C98 C100 1.364 . S
C99 C98 1.400 . S
C99 C103 1.377 . S
C100 C98 1.364 . S
C100 C101 1.374 . S
C101 H92 0.930 . S
C101 C100 1.374 . S
C101 C102 1.383 . S
C102 O96 1.412 . S
C102 C101 1.383 . S
C102 C103 1.394 . S
C103 H93 0.929 . S
C103 C99 1.377 . S
C103 C102 1.394 . S
H104 C111 0.929 . S
H105 C114 0.930 . S
H106 C116 0.929 . S
H107 C108 0.969 . S
C108 H107 0.969 . S
C108 O109 1.550 . S
C108 H110 0.973 . S
O109 C108 1.550 . S
O109 C115 1.412 . S
H110 C108 0.973 . S
C111 H104 0.929 . S
C111 C112 1.400 . S
C111 C113 1.364 . S
C112 C111 1.400 . S
C112 C116 1.377 . S
C113 C111 1.364 . S
C113 C114 1.374 . S
C114 H105 0.930 . S
C114 C113 1.374 . S
C114 C115 1.383 . S
C115 O109 1.412 . S
C115 C114 1.383 . S
C115 C116 1.394 . S
C116 H106 0.929 . S
C116 C112 1.377 . S
C116 C115 1.394 . S
H117 C124 0.929 . S
H118 C127 0.930 . S
H119 C129 0.929 . S
H120 C121 0.969 . S
C121 H120 0.969 . S
C121 O122 1.550 . S
C121 H123 0.973 . S
O122 C121 1.550 . S
O122 C128 1.412 . S
H123 C121 0.973 . S
C124 H117 0.929 . S
C124 C125 1.400 . S
C124 C126 1.364 . S
C125 C124 1.400 . S
C125 C129 1.377 . S
C126 C124 1.364 . S
C126 C127 1.374 . S
C127 H118 0.930 . S
C127 C126 1.374 . S
C127 C128 1.383 . S
C128 O122 1.412 . S
C128 C127 1.383 . S
C128 C129 1.394 . S
C129 H119 0.929 . S
C129 C125 1.377 . S
C129 C128 1.394 . S
H130 C137 0.929 . S
H131 C140 0.930 . S
H132 C142 0.929 . S
H133 C134 0.969 . S
C134 H133 0.969 . S
C134 O135 1.550 . S
C134 H136 0.973 . S
O135 C134 1.550 . S
O135 C141 1.412 . S
H136 C134 0.973 . S
C137 H130 0.929 . S
C137 C138 1.400 . S
C137 C139 1.364 . S
C138 C137 1.400 . S
C138 C142 1.377 . S
C139 C137 1.364 . S
C139 C140 1.374 . S
C140 H131 0.930 . S
C140 C139 1.374 . S
C140 C141 1.383 . S
C141 O135 1.412 . S
C141 C140 1.383 . S
C141 C142 1.394 . S
C142 H132 0.929 . S
C142 C138 1.377 . S
C142 C141 1.394 . S
H143 C150 0.929 . S
H144 C153 0.930 . S
H145 C155 0.929 . S
H146 C147 0.969 . S
C147 H146 0.969 . S
C147 O148 1.550 . S
C147 H149 0.973 . S
O148 C147 1.550 . S
O148 C154 1.412 . S
H149 C147 0.973 . S
C150 H143 0.929 . S
C150 C151 1.400 . S
C150 C152 1.364 . S
C151 C150 1.400 . S
C151 C155 1.377 . S
C152 C150 1.364 . S
C152 C153 1.374 . S
C153 H144 0.930 . S
C153 C152 1.374 . S
C153 C154 1.383 . S
C154 O148 1.412 . S
C154 C153 1.383 . S
C154 C155 1.394 . S
C155 H145 0.929 . S
C155 C151 1.377 . S
C155 C154 1.394 . S
H156 C163 0.929 . S
H157 C166 0.930 . S
H158 C168 0.929 . S
H159 C160 0.969 . S
C160 H159 0.969 . S
C160 O161 1.550 . S
C160 H162 0.973 . S
O161 C160 1.550 . S
O161 C167 1.412 . S
H162 C160 0.973 . S
C163 H156 0.929 . S
C163 C164 1.400 . S
C163 C165 1.364 . S
C164 C163 1.400 . S
C164 C168 1.377 . S
C165 C163 1.364 . S
C165 C166 1.374 . S
C166 H157 0.930 . S
C166 C165 1.374 . S
C166 C167 1.383 . S
C167 O161 1.412 . S
C167 C166 1.383 . S
C167 C168 1.394 . S
C168 H158 0.929 . S
C168 C164 1.377 . S
C168 C167 1.394 . S
H169 C176 0.929 . S
H170 C179 0.930 . S
H171 C181 0.929 . S
H172 C173 0.969 . S
C173 H172 0.969 . S
C173 O174 1.550 . S
C173 H175 0.973 . S
O174 C173 1.550 . S
O174 C180 1.412 . S
H175 C173 0.973 . S
C176 H169 0.929 . S
C176 C177 1.400 . S
C176 C178 1.364 . S
C177 C176 1.400 . S
C177 C181 1.377 . S
C178 C176 1.364 . S
C178 C179 1.374 . S
C179 H170 0.930 . S
C179 C178 1.374 . S
C179 C180 1.383 . S
C180 O174 1.412 . S
C180 C179 1.383 . S
C180 C181 1.394 . S
C181 H171 0.929 . S
C181 C177 1.377 . S
C181 C180 1.394 . S
H182 C189 0.929 . S
H183 C192 0.930 . S
H184 C194 0.929 . S
H185 C186 0.969 . S
C186 H185 0.969 . S
C186 O187 1.550 . S
C186 H188 0.973 . S
O187 C186 1.550 . S
O187 C193 1.412 . S
H188 C186 0.973 . S
C189 H182 0.929 . S
C189 C190 1.400 . S
C189 C191 1.364 . S
C190 C189 1.400 . S
C190 C194 1.377 . S
C191 C189 1.364 . S
C191 C192 1.374 . S
C192 H183 0.930 . S
C192 C191 1.374 . S
C192 C193 1.383 . S
C193 O187 1.412 . S
C193 C192 1.383 . S
C193 C194 1.394 . S
C194 H184 0.929 . S
C194 C190 1.377 . S
C194 C193 1.394 . S
H195 C202 0.929 . S
H196 C205 0.930 . S
H197 C207 0.929 . S
H198 C199 0.969 . S
C199 H198 0.969 . S
C199 O200 1.550 . S
C199 H201 0.973 . S
O200 C199 1.550 . S
O200 C206 1.412 . S
H201 C199 0.973 . S
C202 H195 0.929 . S
C202 C203 1.400 . S
C202 C204 1.364 . S
C203 C202 1.400 . S
C203 C207 1.377 . S
C204 C202 1.364 . S
C204 C205 1.374 . S
C205 H196 0.930 . S
C205 C204 1.374 . S
C205 C206 1.383 . S
C206 O200 1.412 . S
C206 C205 1.383 . S
C206 C207 1.394 . S
C207 H197 0.929 . S
C207 C203 1.377 . S
C207 C206 1.394 . S
Zn208 O211 2.059 . S
Zn208 O213 2.032 1_554 S
Zn208 O218 2.026 1_554 S
Zn209 O210 1.962 . S
Zn209 O212 1.986 . S
Zn209 O214 1.996 . S
Zn209 O217 1.943 1_554 S
O210 Zn209 1.962 . S
O210 C215 1.254 . S
O211 Zn208 2.059 . S
O211 C215 1.269 . S
O212 Zn209 1.986 . S
O212 C219 1.262 . S
O213 Zn208 2.032 1_556 S
O213 C221 1.260 . S
O214 Zn209 1.996 . S
O214 C221 1.257 1_554 S
C215 O210 1.254 . S
C215 O211 1.269 . S
C216 O217 1.249 . S
C216 O218 1.270 . S
O217 Zn209 1.943 1_556 S
O217 C216 1.249 . S
O218 Zn208 2.026 1_556 S
O218 C216 1.270 . S
C219 O212 1.262 . S
C219 O220 1.232 . S
O220 C219 1.232 . S
C221 O213 1.260 . S
C221 O214 1.257 1_556 S
Zn222 O225 2.031 . S
Zn222 O227 2.049 . S
Zn222 O232 2.067 . S
Zn223 O224 1.962 . S
Zn223 O226 1.986 . S
Zn223 O228 1.996 . S
Zn223 O231 1.943 . S
O224 Zn223 1.962 . S
O224 C229 1.254 . S
O225 Zn222 2.031 . S
O225 C229 1.269 . S
O226 Zn223 1.986 . S
O226 C233 1.262 . S
O227 Zn222 2.049 . S
O227 C235 1.260 . S
O228 Zn223 1.996 . S
O228 C235 1.257 . S
C229 O224 1.254 . S
C229 O225 1.269 . S
C230 O231 1.249 . S
C230 O232 1.270 . S
O231 Zn223 1.943 . S
O231 C230 1.249 . S
O232 Zn222 2.067 . S
O232 C230 1.270 . S
C233 O226 1.262 . S
C233 O234 1.232 . S
O234 C233 1.232 . S
C235 O227 1.260 . S
C235 O228 1.257 . S
Zn236 O239 2.031 . S
Zn236 O241 2.049 1_554 S
Zn236 O246 2.067 . S
Zn237 O238 1.962 . S
Zn237 O240 1.986 . S
Zn237 O242 1.996 . S
Zn237 O245 1.943 . S
O238 Zn237 1.962 . S
O238 C243 1.254 . S
O239 Zn236 2.031 . S
O239 C243 1.269 . S
O240 Zn237 1.986 . S
O240 C247 1.262 . S
O241 Zn236 2.049 1_556 S
O241 C249 1.260 1_556 S
O242 Zn237 1.996 . S
O242 C249 1.257 . S
C243 O238 1.254 . S
C243 O239 1.269 . S
C244 O245 1.249 . S
C244 O246 1.270 . S
O245 Zn237 1.943 . S
O245 C244 1.249 . S
O246 Zn236 2.067 . S
O246 C244 1.270 . S
C247 O240 1.262 . S
C247 O248 1.232 . S
O248 C247 1.232 . S
C249 O241 1.260 1_554 S
C249 O242 1.257 . S
Zn250 O253 2.031 . S
Zn250 O255 2.049 . S
Zn250 O260 2.067 1_545 S
Zn251 O252 1.962 . S
Zn251 O254 1.986 . S
Zn251 O256 1.996 . S
Zn251 O259 1.943 1_545 S
O252 Zn251 1.962 . S
O252 C257 1.254 . S
O253 Zn250 2.031 . S
O253 C257 1.269 . S
O254 Zn251 1.986 . S
O254 C261 1.262 . S
O255 Zn250 2.049 . S
O255 C263 1.260 . S
O256 Zn251 1.996 . S
O256 C263 1.257 . S
C257 O252 1.254 . S
C257 O253 1.269 . S
C258 O259 1.249 . S
C258 O260 1.270 . S
O259 Zn251 1.943 1_565 S
O259 C258 1.249 . S
O260 Zn250 2.067 1_565 S
O260 C258 1.270 . S
C261 O254 1.262 . S
C261 O262 1.232 . S
O262 C261 1.232 . S
C263 O255 1.260 . S
C263 O256 1.257 . S
Zn264 O267 2.031 . S
Zn264 O269 2.049 . S
Zn264 O274 2.067 . S
Zn265 O266 1.962 . S
Zn265 O268 1.986 . S
Zn265 O270 1.996 . S
Zn265 O273 1.943 . S
O266 Zn265 1.962 . S
O266 C271 1.254 . S
O267 Zn264 2.031 . S
O267 C271 1.269 . S
O268 Zn265 1.986 . S
O268 C275 1.262 . S
O269 Zn264 2.049 . S
O269 C277 1.260 . S
O270 Zn265 1.996 . S
O270 C277 1.257 . S
C271 O266 1.254 . S
C271 O267 1.269 . S
C272 O273 1.249 . S
C272 O274 1.270 . S
O273 Zn265 1.943 . S
O273 C272 1.249 . S
O274 Zn264 2.067 . S
O274 C272 1.270 . S
C275 O268 1.262 . S
C275 O276 1.232 . S
O276 C275 1.232 . S
C277 O269 1.260 . S
C277 O270 1.257 . S
Zn278 O281 2.031 . S
Zn278 O283 2.049 . S
Zn278 O288 2.067 . S
Zn279 O280 1.962 . S
Zn279 O282 1.986 . S
Zn279 O284 1.996 . S
Zn279 O287 1.943 . S
O280 Zn279 1.962 . S
O280 C285 1.254 . S
O281 Zn278 2.031 . S
O281 C285 1.269 . S
O282 Zn279 1.986 . S
O282 C289 1.262 . S
O283 Zn278 2.049 . S
O283 C291 1.260 . S
O284 Zn279 1.996 . S
O284 C291 1.257 . S
C285 O280 1.254 . S
C285 O281 1.269 . S
C286 O287 1.249 . S
C286 O288 1.270 . S
O287 Zn279 1.943 . S
O287 C286 1.249 . S
O288 Zn278 2.067 . S
O288 C286 1.270 . S
C289 O282 1.262 . S
C289 O290 1.232 . S
O290 C289 1.232 . S
C291 O283 1.260 . S
C291 O284 1.257 . S
Zn292 O295 2.031 . S
Zn292 O297 2.049 . S
Zn292 O302 2.067 . S
Zn293 O294 1.962 . S
Zn293 O296 1.986 . S
Zn293 O298 1.996 . S
Zn293 O301 1.943 . S
O294 Zn293 1.962 . S
O294 C299 1.254 . S
O295 Zn292 2.031 . S
O295 C299 1.269 . S
O296 Zn293 1.986 . S
O296 C303 1.262 . S
O297 Zn292 2.049 . S
O297 C305 1.260 . S
O298 Zn293 1.996 . S
O298 C305 1.257 . S
C299 O294 1.254 . S
C299 O295 1.269 . S
C300 O301 1.249 . S
C300 O302 1.270 . S
O301 Zn293 1.943 . S
O301 C300 1.249 . S
O302 Zn292 2.067 . S
O302 C300 1.270 . S
C303 O296 1.262 . S
C303 O304 1.232 . S
O304 C303 1.232 . S
C305 O297 1.260 . S
C305 O298 1.257 . S
Zn306 O309 2.031 . S
Zn306 O311 2.049 . S
Zn306 O316 2.067 . S
Zn307 O308 1.962 . S
Zn307 O310 1.986 . S
Zn307 O312 1.996 1_545 S
Zn307 O315 1.943 . S
O308 Zn307 1.962 . S
O308 C313 1.254 . S
O309 Zn306 2.031 . S
O309 C313 1.269 1_565 S
O310 Zn307 1.986 . S
O310 C317 1.262 . S
O311 Zn306 2.049 . S
O311 C319 1.260 . S
O312 Zn307 1.996 1_565 S
O312 C319 1.257 . S
C313 O308 1.254 . S
C313 O309 1.269 1_545 S
C314 O315 1.249 1_565 S
C314 O316 1.270 . S
O315 Zn307 1.943 . S
O315 C314 1.249 1_545 S
O316 Zn306 2.067 . S
O316 C314 1.270 . S
C317 O310 1.262 . S
C317 O318 1.232 . S
O318 C317 1.232 . S
C319 O311 1.260 . S
C319 O312 1.257 . S
Zn320 O323 2.031 . S
Zn320 O325 2.049 1_455 S
Zn320 O330 2.067 1_455 S
Zn321 O322 1.962 . S
Zn321 O324 1.986 . S
Zn321 O326 1.996 . S
Zn321 O329 1.943 1_455 S
O322 Zn321 1.962 . S
O322 C327 1.254 . S
O323 Zn320 2.031 . S
O323 C327 1.269 . S
O324 Zn321 1.986 . S
O324 C331 1.262 . S
O325 Zn320 2.049 1_655 S
O325 C333 1.260 . S
O326 Zn321 1.996 . S
O326 C333 1.257 1_455 S
C327 O322 1.254 . S
C327 O323 1.269 . S
C328 O329 1.249 . S
C328 O330 1.270 . S
O329 Zn321 1.943 1_655 S
O329 C328 1.249 . S
O330 Zn320 2.067 1_655 S
O330 C328 1.270 . S
C331 O324 1.262 . S
C331 O332 1.232 . S
O332 C331 1.232 . S
C333 O325 1.260 . S
C333 O326 1.257 1_655 S
Zn334 O337 2.031 . S
Zn334 O339 2.049 . S
Zn334 O344 2.067 . S
Zn335 O336 1.962 . S
Zn335 O338 1.986 . S
Zn335 O340 1.996 . S
Zn335 O343 1.943 . S
O336 Zn335 1.962 . S
O336 C341 1.254 . S
O337 Zn334 2.031 . S
O337 C341 1.269 . S
O338 Zn335 1.986 . S
O338 C345 1.262 . S
O339 Zn334 2.049 . S
O339 C347 1.260 . S
O340 Zn335 1.996 . S
O340 C347 1.257 . S
C341 O336 1.254 . S
C341 O337 1.269 . S
C342 O343 1.249 . S
C342 O344 1.270 . S
O343 Zn335 1.943 . S
O343 C342 1.249 . S
O344 Zn334 2.067 . S
O344 C342 1.270 . S
C345 O338 1.262 . S
C345 O346 1.232 . S
O346 C345 1.232 . S
C347 O339 1.260 . S
C347 O340 1.257 . S
Zn348 O351 2.031 1_655 S
Zn348 O353 2.049 . S
Zn348 O358 2.067 . S
Zn349 O350 1.962 . S
Zn349 O352 1.986 . S
Zn349 O354 1.996 . S
Zn349 O357 1.943 . S
O350 Zn349 1.962 . S
O350 C355 1.254 . S
O351 Zn348 2.031 1_455 S
O351 C355 1.269 . S
O352 Zn349 1.986 . S
O352 C359 1.262 . S
O353 Zn348 2.049 . S
O353 C361 1.260 . S
O354 Zn349 1.996 . S
O354 C361 1.257 1_455 S
C355 O350 1.254 . S
C355 O351 1.269 . S
C356 O357 1.249 . S
C356 O358 1.270 1_455 S
O357 Zn349 1.943 . S
O357 C356 1.249 . S
O358 Zn348 2.067 . S
O358 C356 1.270 1_655 S
C359 O352 1.262 . S
C359 O360 1.232 . S
O360 C359 1.232 . S
C361 O353 1.260 . S
C361 O354 1.257 1_655 S
Zn362 O365 2.031 . S
Zn362 O367 2.049 . S
Zn362 O372 2.067 . S
Zn363 O364 1.962 . S
Zn363 O366 1.986 . S
Zn363 O368 1.996 . S
Zn363 O371 1.943 . S
O364 Zn363 1.962 . S
O364 C369 1.254 . S
O365 Zn362 2.031 . S
O365 C369 1.269 . S
O366 Zn363 1.986 . S
O366 C373 1.262 . S
O367 Zn362 2.049 . S
O367 C375 1.260 . S
O368 Zn363 1.996 . S
O368 C375 1.257 . S
C369 O364 1.254 . S
C369 O365 1.269 . S
C370 O371 1.249 . S
C370 O372 1.270 . S
O371 Zn363 1.943 . S
O371 C370 1.249 . S
O372 Zn362 2.067 . S
O372 C370 1.270 . S
C373 O366 1.262 . S
C373 O374 1.232 . S
O374 C373 1.232 . S
C375 O367 1.260 . S
C375 O368 1.257 . S
H376 C384 0.929 . S
H377 C386 0.930 . S
H378 C388 0.930 . S
H379 C391 0.929 . S
H380 C394 0.930 . S
H381 C396 0.960 . S
H382 C396 0.960 . S
H383 C396 0.960 . S
C384 H376 0.929 . S
C384 C385 1.377 . S
C384 C386 1.384 . S
C385 C384 1.377 . S
C385 C391 1.390 . S
C386 H377 0.930 . S
C386 C384 1.384 . S
C386 C387 1.372 . S
C387 C386 1.372 . S
C387 C388 1.400 . S
C387 C392 1.490 . S
C388 H378 0.930 . S
C388 C387 1.400 . S
C388 C391 1.386 . S
H389 C405 0.930 . S
H390 C406 0.931 . S
C391 H379 0.929 . S
C391 C385 1.390 . S
C391 C388 1.386 . S
C392 C387 1.490 . S
C392 C394 1.395 . S
C392 C395 1.403 . S
H393 C399 0.930 . S
C394 H380 0.930 . S
C394 C392 1.395 . S
C394 C397 1.403 . S
C395 C392 1.403 . S
C395 C396 1.524 . S
C395 C399 1.400 . S
C396 H381 0.960 . S
C396 H382 0.960 . S
C396 H383 0.960 . S
C396 C395 1.524 . S
C397 C394 1.403 . S
C397 C398 1.392 . S
C397 C401 1.495 . S
C398 C397 1.392 . S
C398 C399 1.385 . S
C398 C400 1.478 . S
C399 H393 0.930 . S
C399 C395 1.400 . S
C399 C398 1.385 . S
C400 C398 1.478 . S
C400 C402 1.381 . S
C400 C406 1.383 . S
C401 C397 1.495 . S
C401 H407 0.959 . S
C401 H408 0.961 . S
C401 H409 0.960 . S
C402 C400 1.381 . S
C402 C403 1.394 . S
C402 H410 0.930 . S
C403 C402 1.394 . S
C403 C404 1.383 . S
C403 H411 0.929 . S
C404 C403 1.383 . S
C404 C405 1.377 . S
C405 H389 0.930 . S
C405 C404 1.377 . S
C405 C406 1.379 . S
C406 H390 0.931 . S
C406 C400 1.383 . S
C406 C405 1.379 . S
H407 C401 0.959 . S
H408 C401 0.961 . S
H409 C401 0.960 . S
H410 C402 0.930 . S
H411 C403 0.929 . S
H412 C420 0.929 . S
H413 C422 0.930 . S
H414 C424 0.930 . S
H415 C427 0.929 . S
H416 C430 0.930 . S
H417 C432 0.960 . S
H418 C432 0.960 . S
H419 C432 0.960 . S
C420 H412 0.929 . S
C420 C421 1.377 . S
C420 C422 1.384 . S
C421 C420 1.377 . S
C421 C427 1.390 . S
C422 H413 0.930 . S
C422 C420 1.384 . S
C422 C423 1.372 . S
C423 C422 1.372 . S
C423 C424 1.400 . S
C423 C428 1.490 . S
C424 H414 0.930 . S
C424 C423 1.400 . S
C424 C427 1.386 . S
H425 C441 0.930 . S
H426 C442 0.931 . S
C427 H415 0.929 . S
C427 C421 1.390 . S
C427 C424 1.386 . S
C428 C423 1.490 . S
C428 C430 1.395 . S
C428 C431 1.403 . S
H429 C435 0.930 . S
C430 H416 0.930 . S
C430 C428 1.395 . S
C430 C433 1.403 . S
C431 C428 1.403 . S
C431 C432 1.524 . S
C431 C435 1.400 . S
C432 H417 0.960 . S
C432 H418 0.960 . S
C432 H419 0.960 . S
C432 C431 1.524 . S
C433 C430 1.403 . S
C433 C434 1.392 . S
C433 C437 1.495 . S
C434 C433 1.392 . S
C434 C435 1.385 . S
C434 C436 1.478 . S
C435 H429 0.930 . S
C435 C431 1.400 . S
C435 C434 1.385 . S
C436 C434 1.478 . S
C436 C438 1.381 . S
C436 C442 1.383 . S
C437 C433 1.495 . S
C437 H443 0.959 . S
C437 H444 0.961 . S
C437 H445 0.960 . S
C438 C436 1.381 . S
C438 C439 1.394 . S
C438 H446 0.930 . S
C439 C438 1.394 . S
C439 C440 1.383 . S
C439 H447 0.929 . S
C440 C439 1.383 . S
C440 C441 1.377 . S
C441 H425 0.930 . S
C441 C440 1.377 . S
C441 C442 1.379 . S
C442 H426 0.931 . S
C442 C436 1.383 . S
C442 C441 1.379 . S
H443 C437 0.959 . S
H444 C437 0.961 . S
H445 C437 0.960 . S
H446 C438 0.930 . S
H447 C439 0.929 . S
H448 C456 0.929 . S
H449 C458 0.930 . S
H450 C460 0.930 . S
H451 C463 0.929 . S
H452 C466 0.930 . S
H453 C468 0.960 . S
H454 C468 0.960 . S
H455 C468 0.960 . S
C456 H448 0.929 . S
C456 C457 1.377 . S
C456 C458 1.384 . S
C457 C456 1.377 . S
C457 C463 1.390 . S
C458 H449 0.930 . S
C458 C456 1.384 . S
C458 C459 1.372 . S
C459 C458 1.372 . S
C459 C460 1.400 . S
C459 C464 1.490 . S
C460 H450 0.930 . S
C460 C459 1.400 . S
C460 C463 1.386 . S
H461 C477 0.930 . S
H462 C478 0.931 . S
C463 H451 0.929 . S
C463 C457 1.390 . S
C463 C460 1.386 . S
C464 C459 1.490 . S
C464 C466 1.395 . S
C464 C467 1.403 . S
H465 C471 0.930 . S
C466 H452 0.930 . S
C466 C464 1.395 . S
C466 C469 1.403 . S
C467 C464 1.403 . S
C467 C468 1.524 . S
C467 C471 1.400 . S
C468 H453 0.960 . S
C468 H454 0.960 . S
C468 H455 0.960 . S
C468 C467 1.524 . S
C469 C466 1.403 . S
C469 C470 1.392 . S
C469 C473 1.495 . S
C470 C469 1.392 . S
C470 C471 1.385 . S
C470 C472 1.478 . S
C471 H465 0.930 . S
C471 C467 1.400 . S
C471 C470 1.385 . S
C472 C470 1.478 . S
C472 C474 1.381 . S
C472 C478 1.383 . S
C473 C469 1.495 . S
C473 H479 0.959 . S
C473 H480 0.961 . S
C473 H481 0.960 . S
C474 C472 1.381 . S
C474 C475 1.394 . S
C474 H482 0.930 . S
C475 C474 1.394 . S
C475 C476 1.383 . S
C475 H483 0.929 . S
C476 C475 1.383 . S
C476 C477 1.377 . S
C477 H461 0.930 . S
C477 C476 1.377 . S
C477 C478 1.379 . S
C478 H462 0.931 . S
C478 C472 1.383 . S
C478 C477 1.379 . S
H479 C473 0.959 . S
H480 C473 0.961 . S
H481 C473 0.960 . S
H482 C474 0.930 . S
H483 C475 0.929 . S
H484 C492 0.929 . S
H485 C494 0.941 . S
H486 C496 0.930 . S
H487 C499 0.929 . S
H488 C502 0.930 1_455 S
H489 C504 0.960 . S
H490 C504 0.960 . S
H491 C504 0.960 . S
C492 H484 0.929 . S
C492 C493 1.377 . S
C492 C494 1.384 . S
C493 C492 1.377 . S
C493 C499 1.390 . S
C494 H485 0.941 . S
C494 C492 1.384 . S
C494 C495 1.350 1_455 S
C495 C494 1.350 1_655 S
C495 C496 1.401 . S
C495 C500 1.511 . S
C496 H486 0.930 . S
C496 C495 1.401 . S
C496 C499 1.386 1_655 S
H497 C513 0.930 . S
H498 C514 0.931 . S
C499 H487 0.929 . S
C499 C493 1.390 . S
C499 C496 1.386 1_455 S
C500 C495 1.511 . S
C500 C502 1.395 . S
C500 C503 1.403 . S
H501 C507 0.930 . S
C502 H488 0.930 1_655 S
C502 C500 1.395 . S
C502 C505 1.403 . S
C503 C500 1.403 . S
C503 C504 1.524 . S
C503 C507 1.400 . S
C504 H489 0.960 . S
C504 H490 0.960 . S
C504 H491 0.960 . S
C504 C503 1.524 . S
C505 C502 1.403 . S
C505 C506 1.392 . S
C505 C509 1.495 . S
C506 C505 1.392 . S
C506 C507 1.385 . S
C506 C508 1.478 . S
C507 H501 0.930 . S
C507 C503 1.400 . S
C507 C506 1.385 . S
C508 C506 1.478 . S
C508 C510 1.381 1_565 S
C508 C514 1.383 . S
C509 C505 1.495 . S
C509 H515 0.959 1_655 S
C509 H516 0.961 . S
C509 H517 0.960 1_565 S
C510 C508 1.381 1_545 S
C510 C511 1.394 . S
C510 H518 0.930 . S
C511 C510 1.394 . S
C511 C512 1.383 . S
C511 H519 0.929 . S
C512 C511 1.383 . S
C512 C513 1.377 1_545 S
C513 H497 0.930 . S
C513 C512 1.377 1_565 S
C513 C514 1.379 . S
C514 H498 0.931 . S
C514 C508 1.383 . S
C514 C513 1.379 . S
H515 C509 0.959 1_455 S
H516 C509 0.961 . S
H517 C509 0.960 1_545 S
H518 C510 0.930 . S
H519 C511 0.929 . S
H520 C528 0.929 . S
H521 C530 0.930 . S
H522 C532 0.930 . S
H523 C535 0.929 . S
H524 C538 0.930 . S
H525 C540 0.960 . S
H526 C540 0.960 . S
H527 C540 0.960 . S
C528 H520 0.929 . S
C528 C529 1.377 . S
C528 C530 1.384 . S
C529 C528 1.377 . S
C529 C535 1.390 . S
C530 H521 0.930 . S
C530 C528 1.384 . S
C530 C531 1.372 . S
C531 C530 1.372 . S
C531 C532 1.400 . S
C531 C536 1.490 . S
C532 H522 0.930 . S
C532 C531 1.400 . S
C532 C535 1.386 . S
H533 C549 0.930 . S
H534 C550 0.931 . S
C535 H523 0.929 . S
C535 C529 1.390 . S
C535 C532 1.386 . S
C536 C531 1.490 . S
C536 C538 1.395 . S
C536 C539 1.403 . S
H537 C543 0.930 . S
C538 H524 0.930 . S
C538 C536 1.395 . S
C538 C541 1.403 . S
C539 C536 1.403 . S
C539 C540 1.524 . S
C539 C543 1.400 . S
C540 H525 0.960 . S
C540 H526 0.960 . S
C540 H527 0.960 . S
C540 C539 1.524 . S
C541 C538 1.403 . S
C541 C542 1.392 . S
C541 C545 1.495 . S
C542 C541 1.392 . S
C542 C543 1.385 . S
C542 C544 1.478 . S
C543 H537 0.930 . S
C543 C539 1.400 . S
C543 C542 1.385 . S
C544 C542 1.478 . S
C544 C546 1.381 . S
C544 C550 1.383 . S
C545 C541 1.495 . S
C545 H551 0.959 . S
C545 H552 0.961 . S
C545 H553 0.960 . S
C546 C544 1.381 . S
C546 C547 1.394 . S
C546 H554 0.930 . S
C547 C546 1.394 . S
C547 C548 1.383 . S
C547 H555 0.929 . S
C548 C547 1.383 . S
C548 C549 1.377 . S
C549 H533 0.930 . S
C549 C548 1.377 . S
C549 C550 1.379 . S
C550 H534 0.931 . S
C550 C544 1.383 . S
C550 C549 1.379 . S
H551 C545 0.959 . S
H552 C545 0.961 . S
H553 C545 0.960 . S
H554 C546 0.930 . S
H555 C547 0.929 . S
H556 C564 0.929 . S
H557 C566 0.930 . S
H558 C568 0.930 . S
H559 C571 0.929 . S
H560 C574 0.930 . S
H561 C576 0.960 . S
H562 C576 0.960 . S
H563 C576 0.960 . S
C564 H556 0.929 . S
C564 C565 1.377 . S
C564 C566 1.384 . S
C565 C564 1.377 . S
C565 C571 1.390 . S
C566 H557 0.930 . S
C566 C564 1.384 . S
C566 C567 1.372 . S
C567 C566 1.372 . S
C567 C568 1.400 . S
C567 C572 1.490 . S
C568 H558 0.930 . S
C568 C567 1.400 . S
C568 C571 1.386 . S
H569 C585 0.930 . S
H570 C586 0.931 . S
C571 H559 0.929 . S
C571 C565 1.390 . S
C571 C568 1.386 . S
C572 C567 1.490 . S
C572 C574 1.395 . S
C572 C575 1.403 . S
H573 C579 0.930 . S
C574 H560 0.930 . S
C574 C572 1.395 . S
C574 C577 1.403 . S
C575 C572 1.403 . S
C575 C576 1.524 . S
C575 C579 1.400 . S
C576 H561 0.960 . S
C576 H562 0.960 . S
C576 H563 0.960 . S
C576 C575 1.524 . S
C577 C574 1.403 . S
C577 C578 1.392 . S
C577 C581 1.495 . S
C578 C577 1.392 . S
C578 C579 1.385 . S
C578 C580 1.478 . S
C579 H573 0.930 . S
C579 C575 1.400 . S
C579 C578 1.385 . S
C580 C578 1.478 . S
C580 C582 1.381 . S
C580 C586 1.383 . S
C581 C577 1.495 . S
C581 H587 0.959 . S
C581 H588 0.961 . S
C581 H589 0.960 . S
C582 C580 1.381 . S
C582 C583 1.394 . S
C582 H590 0.930 . S
C583 C582 1.394 . S
C583 C584 1.383 . S
C583 H591 0.929 . S
C584 C583 1.383 . S
C584 C585 1.377 . S
C585 H569 0.930 . S
C585 C584 1.377 . S
C585 C586 1.379 . S
C586 H570 0.931 . S
C586 C580 1.383 . S
C586 C585 1.379 . S
H587 C581 0.959 . S
H588 C581 0.961 . S
H589 C581 0.960 . S
H590 C582 0.930 . S
H591 C583 0.929 . S
H592 C600 0.929 . S
H593 C602 0.930 . S
H594 C604 0.930 . S
H595 C607 0.929 . S
H596 C610 0.930 . S
H597 C612 0.960 . S
H598 C612 0.960 . S
H599 C612 0.960 . S
C600 H592 0.929 . S
C600 C601 1.377 . S
C600 C602 1.384 . S
C601 C600 1.377 . S
C601 C607 1.390 . S
C602 H593 0.930 . S
C602 C600 1.384 . S
C602 C603 1.372 . S
C603 C602 1.372 . S
C603 C604 1.400 . S
C603 C608 1.490 . S
C604 H594 0.930 . S
C604 C603 1.400 . S
C604 C607 1.386 . S
H605 C621 0.930 . S
H606 C622 0.931 . S
C607 H595 0.929 . S
C607 C601 1.390 . S
C607 C604 1.386 . S
C608 C603 1.490 . S
C608 C610 1.395 . S
C608 C611 1.403 . S
H609 C615 0.930 . S
C610 H596 0.930 . S
C610 C608 1.395 . S
C610 C613 1.403 . S
C611 C608 1.403 . S
C611 C612 1.524 . S
C611 C615 1.400 . S
C612 H597 0.960 . S
C612 H598 0.960 . S
C612 H599 0.960 . S
C612 C611 1.524 . S
C613 C610 1.403 . S
C613 C614 1.392 . S
C613 C617 1.495 . S
C614 C613 1.392 . S
C614 C615 1.385 . S
C614 C616 1.478 . S
C615 H609 0.930 . S
C615 C611 1.400 . S
C615 C614 1.385 . S
C616 C614 1.478 . S
C616 C618 1.381 . S
C616 C622 1.383 . S
C617 C613 1.495 . S
C617 H623 0.959 . S
C617 H624 0.961 . S
C617 H625 0.960 . S
C618 C616 1.381 . S
C618 C619 1.394 . S
C618 H626 0.930 . S
C619 C618 1.394 . S
C619 C620 1.383 . S
C619 H627 0.929 . S
C620 C619 1.383 . S
C620 C621 1.377 . S
C621 H605 0.930 . S
C621 C620 1.377 . S
C621 C622 1.379 . S
C622 H606 0.931 . S
C622 C616 1.383 . S
C622 C621 1.379 . S
H623 C617 0.959 . S
H624 C617 0.961 . S
H625 C617 0.960 . S
H626 C618 0.930 . S
H627 C619 0.929 . S
H628 C636 0.929 . S
H629 C638 0.930 . S
H630 C640 0.930 . S
H631 C643 0.929 . S
H632 C646 0.930 . S
H633 C648 0.960 . S
H634 C648 0.960 . S
H635 C648 0.960 . S
C636 H628 0.929 . S
C636 C637 1.377 . S
C636 C638 1.384 . S
C637 C636 1.377 . S
C637 C643 1.390 . S
C638 H629 0.930 . S
C638 C636 1.384 . S
C638 C639 1.372 . S
C639 C638 1.372 . S
C639 C640 1.400 . S
C639 C644 1.490 . S
C640 H630 0.930 . S
C640 C639 1.400 . S
C640 C643 1.386 . S
H641 C657 0.930 1_545 S
H642 C658 0.931 . S
C643 H631 0.929 . S
C643 C637 1.390 . S
C643 C640 1.386 . S
C644 C639 1.490 . S
C644 C646 1.395 . S
C644 C647 1.403 . S
H645 C651 0.930 . S
C646 H632 0.930 . S
C646 C644 1.395 . S
C646 C649 1.403 . S
C647 C644 1.403 . S
C647 C648 1.524 . S
C647 C651 1.400 . S
C648 H633 0.960 . S
C648 H634 0.960 . S
C648 H635 0.960 . S
C648 C647 1.524 . S
C649 C646 1.403 . S
C649 C650 1.392 . S
C649 C653 1.495 . S
C650 C649 1.392 . S
C650 C651 1.385 . S
C650 C652 1.478 . S
C651 H645 0.930 . S
C651 C647 1.400 . S
C651 C650 1.385 . S
C652 C650 1.478 . S
C652 C654 1.381 . S
C652 C658 1.383 . S
C653 C649 1.495 . S
C653 H659 0.959 1_565 S
C653 H660 0.961 1_565 S
C653 H661 0.960 . S
C654 C652 1.381 . S
C654 C655 1.394 . S
C654 H662 0.930 . S
C655 C654 1.394 . S
C655 C656 1.383 . S
C655 H663 0.929 . S
C656 C655 1.383 . S
C656 C657 1.377 . S
C657 H641 0.930 1_565 S
C657 C656 1.377 . S
C657 C658 1.379 . S
C658 H642 0.931 . S
C658 C652 1.383 . S
C658 C657 1.379 . S
H659 C653 0.959 1_545 S
H660 C653 0.961 1_545 S
H661 C653 0.960 . S
H662 C654 0.930 . S
H663 C655 0.929 . S
H664 C672 0.929 . S
H665 C674 0.930 . S
H666 C676 0.930 . S
H667 C679 0.929 . S
H668 C682 0.930 . S
H669 C684 0.960 . S
H670 C684 0.960 . S
H671 C684 0.960 . S
C672 H664 0.929 . S
C672 C673 1.377 . S
C672 C674 1.384 . S
C673 C672 1.377 . S
C673 C679 1.390 . S
C674 H665 0.930 . S
C674 C672 1.384 . S
C674 C675 1.372 . S
C675 C674 1.372 . S
C675 C676 1.400 . S
C675 C680 1.490 . S
C676 H666 0.930 . S
C676 C675 1.400 . S
C676 C679 1.386 . S
H677 C693 0.930 . S
H678 C694 0.931 . S
C679 H667 0.929 . S
C679 C673 1.390 . S
C679 C676 1.386 . S
C680 C675 1.490 . S
C680 C682 1.395 . S
C680 C683 1.403 . S
H681 C687 0.930 . S
C682 H668 0.930 . S
C682 C680 1.395 . S
C682 C685 1.403 . S
C683 C680 1.403 . S
C683 C684 1.524 . S
C683 C687 1.400 . S
C684 H669 0.960 . S
C684 H670 0.960 . S
C684 H671 0.960 . S
C684 C683 1.524 . S
C685 C682 1.403 . S
C685 C686 1.392 . S
C685 C689 1.495 . S
C686 C685 1.392 . S
C686 C687 1.385 . S
C686 C688 1.478 . S
C687 H681 0.930 . S
C687 C683 1.400 . S
C687 C686 1.385 . S
C688 C686 1.478 . S
C688 C690 1.381 . S
C688 C694 1.383 . S
C689 C685 1.495 . S
C689 H695 0.959 . S
C689 H696 0.961 . S
C689 H697 0.960 . S
C690 C688 1.381 . S
C690 C691 1.394 . S
C690 H698 0.930 . S
C691 C690 1.394 . S
C691 C692 1.383 . S
C691 H699 0.929 . S
C692 C691 1.383 . S
C692 C693 1.377 . S
C693 H677 0.930 . S
C693 C692 1.377 . S
C693 C694 1.379 . S
C694 H678 0.931 . S
C694 C688 1.383 . S
C694 C693 1.379 . S
H695 C689 0.959 . S
H696 C689 0.961 . S
H697 C689 0.960 . S
H698 C690 0.930 . S
H699 C691 0.929 . S
H700 C708 0.929 . S
H701 C710 0.930 . S
H702 C712 0.930 . S
H703 C715 0.929 . S
H704 C718 0.930 . S
H705 C720 0.960 . S
H706 C720 0.960 . S
H707 C720 0.960 . S
C708 H700 0.929 . S
C708 C709 1.377 . S
C708 C710 1.384 . S
C709 C708 1.377 . S
C709 C715 1.390 . S
C710 H701 0.930 . S
C710 C708 1.384 . S
C710 C711 1.372 . S
C711 C710 1.372 . S
C711 C712 1.400 . S
C711 C716 1.490 . S
C712 H702 0.930 . S
C712 C711 1.400 . S
C712 C715 1.386 . S
H713 C729 0.930 . S
H714 C730 0.931 . S
C715 H703 0.929 . S
C715 C709 1.390 . S
C715 C712 1.386 . S
C716 C711 1.490 . S
C716 C718 1.395 . S
C716 C719 1.403 . S
H717 C723 0.930 . S
C718 H704 0.930 . S
C718 C716 1.395 . S
C718 C721 1.403 . S
C719 C716 1.403 . S
C719 C720 1.524 . S
C719 C723 1.400 . S
C720 H705 0.960 . S
C720 H706 0.960 . S
C720 H707 0.960 . S
C720 C719 1.524 . S
C721 C718 1.403 . S
C721 C722 1.392 . S
C721 C725 1.495 . S
C722 C721 1.392 . S
C722 C723 1.385 . S
C722 C724 1.478 . S
C723 H717 0.930 . S
C723 C719 1.400 . S
C723 C722 1.385 . S
C724 C722 1.478 . S
C724 C726 1.381 . S
C724 C730 1.383 . S
C725 C721 1.495 . S
C725 H731 0.959 . S
C725 H732 0.961 . S
C725 H733 0.960 . S
C726 C724 1.381 . S
C726 C727 1.394 . S
C726 H734 0.930 . S
C727 C726 1.394 . S
C727 C728 1.383 . S
C727 H735 0.929 . S
C728 C727 1.383 . S
C728 C729 1.377 . S
C729 H713 0.930 . S
C729 C728 1.377 . S
C729 C730 1.379 . S
C730 H714 0.931 . S
C730 C724 1.383 . S
C730 C729 1.379 . S
H731 C725 0.959 . S
H732 C725 0.961 . S
H733 C725 0.960 . S
H734 C726 0.930 . S
H735 C727 0.929 . S
H736 C744 0.929 . S
H737 C746 0.930 . S
H738 C748 0.930 . S
H739 C751 0.929 . S
H740 C754 0.930 . S
H741 C756 0.960 . S
H742 C756 0.960 . S
H743 C756 0.960 . S
C744 H736 0.929 . S
C744 C745 1.377 . S
C744 C746 1.384 . S
C745 C744 1.377 . S
C745 C751 1.390 . S
C746 H737 0.930 . S
C746 C744 1.384 . S
C746 C747 1.372 . S
C747 C746 1.372 . S
C747 C748 1.400 . S
C747 C752 1.490 . S
C748 H738 0.930 . S
C748 C747 1.400 . S
C748 C751 1.386 . S
H749 C765 0.930 . S
H750 C766 0.931 . S
C751 H739 0.929 . S
C751 C745 1.390 . S
C751 C748 1.386 . S
C752 C747 1.490 . S
C752 C754 1.395 . S
C752 C755 1.403 . S
H753 C759 0.930 . S
C754 H740 0.930 . S
C754 C752 1.395 . S
C754 C757 1.403 . S
C755 C752 1.403 . S
C755 C756 1.524 . S
C755 C759 1.400 . S
C756 H741 0.960 . S
C756 H742 0.960 . S
C756 H743 0.960 . S
C756 C755 1.524 . S
C757 C754 1.403 . S
C757 C758 1.392 . S
C757 C761 1.495 . S
C758 C757 1.392 . S
C758 C759 1.385 . S
C758 C760 1.478 . S
C759 H753 0.930 . S
C759 C755 1.400 . S
C759 C758 1.385 . S
C760 C758 1.478 . S
C760 C762 1.381 . S
C760 C766 1.383 . S
C761 C757 1.495 . S
C761 H767 0.959 . S
C761 H768 0.961 . S
C761 H769 0.960 . S
C762 C760 1.381 . S
C762 C763 1.394 . S
C762 H770 0.930 . S
C763 C762 1.394 . S
C763 C764 1.383 . S
C763 H771 0.929 . S
C764 C763 1.383 . S
C764 C765 1.377 . S
C765 H749 0.930 . S
C765 C764 1.377 . S
C765 C766 1.379 . S
C766 H750 0.931 . S
C766 C760 1.383 . S
C766 C765 1.379 . S
H767 C761 0.959 . S
H768 C761 0.961 . S
H769 C761 0.960 . S
H770 C762 0.930 . S
H771 C763 0.929 . S
H772 C780 0.929 . S
H773 C782 0.930 . S
H774 C784 0.930 . S
H775 C787 0.929 . S
H776 C790 0.930 . S
H777 C792 0.960 . S
H778 C792 0.960 . S
H779 C792 0.960 . S
C780 H772 0.929 . S
C780 C781 1.377 . S
C780 C782 1.384 . S
C781 C780 1.377 . S
C781 C787 1.390 . S
C782 H773 0.930 . S
C782 C780 1.384 . S
C782 C783 1.372 . S
C783 C782 1.372 . S
C783 C784 1.400 . S
C783 C788 1.490 . S
C784 H774 0.930 . S
C784 C783 1.400 . S
C784 C787 1.386 . S
H785 C801 0.930 . S
H786 C802 0.931 . S
C787 H775 0.929 . S
C787 C781 1.390 . S
C787 C784 1.386 . S
C788 C783 1.490 . S
C788 C790 1.395 . S
C788 C791 1.403 . S
H789 C795 0.930 . S
C790 H776 0.930 . S
C790 C788 1.395 . S
C790 C793 1.403 . S
C791 C788 1.403 . S
C791 C792 1.524 . S
C791 C795 1.400 . S
C792 H777 0.960 . S
C792 H778 0.960 . S
C792 H779 0.960 . S
C792 C791 1.524 . S
C793 C790 1.403 . S
C793 C794 1.392 . S
C793 C797 1.495 . S
C794 C793 1.392 . S
C794 C795 1.385 . S
C794 C796 1.478 . S
C795 H789 0.930 . S
C795 C791 1.400 . S
C795 C794 1.385 . S
C796 C794 1.478 . S
C796 C798 1.381 . S
C796 C802 1.383 . S
C797 C793 1.495 . S
C797 H803 0.959 . S
C797 H804 0.961 . S
C797 H805 0.960 . S
C798 C796 1.381 . S
C798 C799 1.394 . S
C798 H806 0.930 . S
C799 C798 1.394 . S
C799 C800 1.383 . S
C799 H807 0.929 . S
C800 C799 1.383 . S
C800 C801 1.377 . S
C801 H785 0.930 . S
C801 C800 1.377 . S
C801 C802 1.379 . S
C802 H786 0.931 . S
C802 C796 1.383 . S
C802 C801 1.379 . S
H803 C797 0.959 . S
H804 C797 0.961 . S
H805 C797 0.960 . S
H806 C798 0.930 . S
H807 C799 0.929 . S
H808 C816 0.929 . S
H809 C818 0.930 . S
H810 C820 0.930 . S
H811 C823 0.929 . S
H812 C826 0.930 . S
H813 C828 0.960 . S
H814 C828 0.960 . S
H815 C828 0.960 . S
C816 H808 0.929 . S
C816 C817 1.377 . S
C816 C818 1.384 . S
C817 C816 1.377 . S
C817 C823 1.390 . S
C818 H809 0.930 . S
C818 C816 1.384 . S
C818 C819 1.372 . S
C819 C818 1.372 . S
C819 C820 1.400 . S
C819 C824 1.490 . S
C820 H810 0.930 . S
C820 C819 1.400 . S
C820 C823 1.386 . S
H821 C837 0.930 . S
H822 C838 0.931 . S
C823 H811 0.929 . S
C823 C817 1.390 . S
C823 C820 1.386 . S
C824 C819 1.490 . S
C824 C826 1.395 . S
C824 C827 1.403 . S
H825 C831 0.930 . S
C826 H812 0.930 . S
C826 C824 1.395 . S
C826 C829 1.403 . S
C827 C824 1.403 . S
C827 C828 1.524 . S
C827 C831 1.400 . S
C828 H813 0.960 . S
C828 H814 0.960 . S
C828 H815 0.960 . S
C828 C827 1.524 . S
C829 C826 1.403 . S
C829 C830 1.392 . S
C829 C833 1.495 . S
C830 C829 1.392 . S
C830 C831 1.385 . S
C830 C832 1.478 . S
C831 H825 0.930 . S
C831 C827 1.400 . S
C831 C830 1.385 . S
C832 C830 1.478 . S
C832 C834 1.381 . S
C832 C838 1.383 . S
C833 C829 1.495 . S
C833 H839 0.959 . S
C833 H840 0.961 . S
C833 H841 0.960 . S
C834 C832 1.381 . S
C834 C835 1.394 . S
C834 H842 0.930 . S
C835 C834 1.394 . S
C835 C836 1.383 . S
C835 H843 0.929 . S
C836 C835 1.383 . S
C836 C837 1.377 . S
C837 H821 0.930 . S
C837 C836 1.377 . S
C837 C838 1.379 . S
C838 H822 0.931 . S
C838 C832 1.383 . S
C838 C837 1.379 . S
H839 C833 0.959 . S
H840 C833 0.961 . S
H841 C833 0.960 . S
H842 C834 0.930 . S
H843 C835 0.929 . S
H844 C852 0.929 . S
H845 C854 0.930 . S
H846 C856 0.930 . S
H847 C859 0.929 . S
H848 C862 0.930 . S
H849 C864 0.960 . S
H850 C864 0.960 . S
H851 C864 0.960 . S
C852 H844 0.929 . S
C852 C853 1.377 . S
C852 C854 1.384 . S
C853 C852 1.377 . S
C853 C859 1.390 . S
C854 H845 0.930 . S
C854 C852 1.384 . S
C854 C855 1.372 . S
C855 C854 1.372 . S
C855 C856 1.400 . S
C855 C860 1.490 . S
C856 H846 0.930 . S
C856 C855 1.400 . S
C856 C859 1.386 . S
H857 C873 0.930 . S
H858 C874 0.931 . S
C859 H847 0.929 . S
C859 C853 1.390 . S
C859 C856 1.386 . S
C860 C855 1.490 . S
C860 C862 1.395 . S
C860 C863 1.403 . S
H861 C867 0.930 . S
C862 H848 0.930 . S
C862 C860 1.395 . S
C862 C865 1.403 . S
C863 C860 1.403 . S
C863 C864 1.524 . S
C863 C867 1.400 . S
C864 H849 0.960 . S
C864 H850 0.960 . S
C864 H851 0.960 . S
C864 C863 1.524 . S
C865 C862 1.403 . S
C865 C866 1.392 . S
C865 C869 1.495 . S
C866 C865 1.392 . S
C866 C867 1.385 . S
C866 C868 1.478 . S
C867 H861 0.930 . S
C867 C863 1.400 . S
C867 C866 1.385 . S
C868 C866 1.478 . S
C868 C870 1.381 . S
C868 C874 1.383 . S
C869 C865 1.495 . S
C869 H875 0.959 . S
C869 H876 0.961 . S
C869 H877 0.960 . S
C870 C868 1.381 . S
C870 C871 1.394 . S
C870 H878 0.930 . S
C871 C870 1.394 . S
C871 C872 1.383 . S
C871 H879 0.929 . S
C872 C871 1.383 . S
C872 C873 1.377 . S
C873 H857 0.930 . S
C873 C872 1.377 . S
C873 C874 1.379 . S
C874 H858 0.931 . S
C874 C868 1.383 . S
C874 C873 1.379 . S
H875 C869 0.959 . S
H876 C869 0.961 . S
H877 C869 0.960 . S
H878 C870 0.930 . S
H879 C871 0.929 . S
H880 C888 0.929 . S
H881 C890 0.930 . S
H882 C892 0.930 . S
H883 C895 0.929 . S
H884 C898 0.930 . S
H885 C900 0.960 . S
H886 C900 0.960 . S
H887 C900 0.960 . S
C888 H880 0.929 . S
C888 C889 1.377 . S
C888 C890 1.384 . S
C889 C888 1.377 . S
C889 C895 1.390 . S
C890 H881 0.930 . S
C890 C888 1.384 . S
C890 C891 1.372 . S
C891 C890 1.372 . S
C891 C892 1.400 . S
C891 C896 1.490 . S
C892 H882 0.930 . S
C892 C891 1.400 . S
C892 C895 1.386 . S
H893 C909 0.930 . S
H894 C910 0.931 . S
C895 H883 0.929 . S
C895 C889 1.390 . S
C895 C892 1.386 . S
C896 C891 1.490 . S
C896 C898 1.395 . S
C896 C899 1.403 . S
H897 C903 0.930 . S
C898 H884 0.930 . S
C898 C896 1.395 . S
C898 C901 1.403 . S
C899 C896 1.403 . S
C899 C900 1.524 . S
C899 C903 1.400 . S
C900 H885 0.960 . S
C900 H886 0.960 . S
C900 H887 0.960 . S
C900 C899 1.524 . S
C901 C898 1.403 . S
C901 C902 1.392 . S
C901 C905 1.495 . S
C902 C901 1.392 . S
C902 C903 1.385 . S
C902 C904 1.478 . S
C903 H897 0.930 . S
C903 C899 1.400 . S
C903 C902 1.385 . S
C904 C902 1.478 . S
C904 C906 1.381 . S
C904 C910 1.383 . S
C905 C901 1.495 . S
C905 H911 0.959 . S
C905 H912 0.961 . S
C905 H913 0.960 . S
C906 C904 1.381 . S
C906 C907 1.394 . S
C906 H914 0.930 . S
C907 C906 1.394 . S
C907 C908 1.383 . S
C907 H915 0.929 . S
C908 C907 1.383 . S
C908 C909 1.377 . S
C909 H893 0.930 . S
C909 C908 1.377 . S
C909 C910 1.379 . S
C910 H894 0.931 . S
C910 C904 1.383 . S
C910 C909 1.379 . S
H911 C905 0.959 . S
H912 C905 0.961 . S
H913 C905 0.960 . S
H914 C906 0.930 . S
H915 C907 0.929 . S
H916 C924 0.929 1_455 S
H917 C926 0.930 . S
H918 C928 0.930 . S
H919 C931 0.929 . S
H920 C934 0.930 . S
H921 C936 0.960 . S
H922 C936 0.960 . S
H923 C936 0.960 . S
C924 H916 0.929 1_655 S
C924 C925 1.377 . S
C924 C926 1.384 1_655 S
C925 C924 1.377 . S
C925 C931 1.390 . S
C926 H917 0.930 . S
C926 C924 1.384 1_455 S
C926 C927 1.372 1_455 S
C927 C926 1.372 1_655 S
C927 C928 1.400 . S
C927 C932 1.490 . S
C928 H918 0.930 . S
C928 C927 1.400 . S
C928 C931 1.386 . S
H929 C945 0.930 . S
H930 C946 0.931 . S
C931 H919 0.929 . S
C931 C925 1.390 . S
C931 C928 1.386 . S
C932 C927 1.490 . S
C932 C934 1.395 1_655 S
C932 C935 1.403 . S
H933 C939 0.930 . S
C934 H920 0.930 . S
C934 C932 1.395 1_455 S
C934 C937 1.403 . S
C935 C932 1.403 . S
C935 C936 1.524 . S
C935 C939 1.400 . S
C936 H921 0.960 . S
C936 H922 0.960 . S
C936 H923 0.960 . S
C936 C935 1.524 . S
C937 C934 1.403 . S
C937 C938 1.379 1_455 S
C937 C941 1.495 . S
C938 C937 1.379 1_655 S
C938 C939 1.400 . S
C938 C940 1.478 1_655 S
C939 H933 0.930 . S
C939 C935 1.400 . S
C939 C938 1.400 . S
C940 C938 1.478 1_455 S
C940 C942 1.381 . S
C940 C946 1.383 1_455 S
C941 C937 1.495 . S
C941 H947 0.959 . S
C941 H948 0.961 . S
C941 H949 0.960 . S
C942 C940 1.381 . S
C942 C943 1.394 . S
C942 H950 0.930 . S
C943 C942 1.394 . S
C943 C944 1.383 . S
C943 H951 0.929 . S
C944 C943 1.383 . S
C944 C945 1.377 1_455 S
C945 H929 0.930 . S
C945 C944 1.377 1_655 S
C945 C946 1.379 . S
C946 H930 0.931 . S
C946 C940 1.383 1_655 S
C946 C945 1.379 . S
H947 C941 0.959 . S
H948 C941 0.961 . S
H949 C941 0.960 . S
H950 C942 0.930 . S
H951 C943 0.929 . S
H952 C960 0.929 . S
H953 C962 0.930 . S
H954 C964 0.930 . S
H955 C967 0.929 . S
H956 C970 0.930 . S
H957 C972 0.960 . S
H958 C972 0.960 . S
H959 C972 0.960 . S
C960 H952 0.929 . S
C960 C961 1.377 . S
C960 C962 1.384 . S
C961 C960 1.377 . S
C961 C967 1.390 . S
C962 H953 0.930 . S
C962 C960 1.384 . S
C962 C963 1.372 . S
C963 C962 1.372 . S
C963 C964 1.400 . S
C963 C968 1.490 . S
C964 H954 0.930 . S
C964 C963 1.400 . S
C964 C967 1.386 . S
H965 C981 0.930 . S
H966 C982 0.931 . S
C967 H955 0.929 . S
C967 C961 1.390 . S
C967 C964 1.386 . S
C968 C963 1.490 . S
C968 C970 1.395 . S
C968 C971 1.403 . S
H969 C975 0.930 . S
C970 H956 0.930 . S
C970 C968 1.395 . S
C970 C973 1.403 . S
C971 C968 1.403 . S
C971 C972 1.524 . S
C971 C975 1.400 . S
C972 H957 0.960 . S
C972 H958 0.960 . S
C972 H959 0.960 . S
C972 C971 1.524 . S
C973 C970 1.403 . S
C973 C974 1.392 . S
C973 C977 1.495 . S
C974 C973 1.392 . S
C974 C975 1.385 . S
C974 C976 1.478 . S
C975 H969 0.930 . S
C975 C971 1.400 . S
C975 C974 1.385 . S
C976 C974 1.478 . S
C976 C978 1.381 . S
C976 C982 1.383 . S
C977 C973 1.495 . S
C977 H983 0.959 . S
C977 H984 0.961 . S
C977 H985 0.960 . S
C978 C976 1.381 . S
C978 C979 1.394 . S
C978 H986 0.930 . S
C979 C978 1.394 . S
C979 C980 1.383 . S
C979 H987 0.929 . S
C980 C979 1.383 . S
C980 C981 1.377 . S
C981 H965 0.930 . S
C981 C980 1.377 . S
C981 C982 1.379 . S
C982 H966 0.931 . S
C982 C976 1.383 . S
C982 C981 1.379 . S
H983 C977 0.959 . S
H984 C977 0.961 . S
H985 C977 0.960 . S
H986 C978 0.930 . S
H987 C979 0.929 . S
H988 C996 0.929 . S
H989 C998 0.930 . S
H990 C1000 0.930 . S
H991 C1003 0.929 . S
H992 C1006 0.930 . S
H993 C1008 0.960 . S
H994 C1008 0.960 . S
H995 C1008 0.960 . S
C996 H988 0.929 . S
C996 C997 1.377 . S
C996 C998 1.384 . S
C997 C996 1.377 . S
C997 C1003 1.390 . S
C998 H989 0.930 . S
C998 C996 1.384 . S
C998 C999 1.372 . S
C999 C998 1.372 . S
C999 C1000 1.400 . S
C999 C1004 1.490 . S
C1000 H990 0.930 . S
C1000 C999 1.400 . S
C1000 C1003 1.386 . S
H1001 C1017 0.930 . S
H1002 C1018 0.931 . S
C1003 H991 0.929 . S
C1003 C997 1.390 . S
C1003 C1000 1.386 . S
C1004 C999 1.490 . S
C1004 C1006 1.395 . S
C1004 C1007 1.403 . S
H1005 C1011 0.930 . S
C1006 H992 0.930 . S
C1006 C1004 1.395 . S
C1006 C1009 1.403 . S
C1007 C1004 1.403 . S
C1007 C1008 1.524 . S
C1007 C1011 1.400 . S
C1008 H993 0.960 . S
C1008 H994 0.960 . S
C1008 H995 0.960 . S
C1008 C1007 1.524 . S
C1009 C1006 1.403 . S
C1009 C1010 1.392 . S
C1009 C1013 1.495 . S
C1010 C1009 1.392 . S
C1010 C1011 1.385 . S
C1010 C1012 1.478 . S
C1011 H1005 0.930 . S
C1011 C1007 1.400 . S
C1011 C1010 1.385 . S
C1012 C1010 1.478 . S
C1012 C1014 1.381 . S
C1012 C1018 1.383 . S
C1013 C1009 1.495 . S
C1013 H1019 0.959 . S
C1013 H1020 0.961 . S
C1013 H1021 0.960 . S
C1014 C1012 1.381 . S
C1014 C1015 1.394 . S
C1014 H1022 0.930 . S
C1015 C1014 1.394 . S
C1015 C1016 1.383 . S
C1015 H1023 0.929 . S
C1016 C1015 1.383 . S
C1016 C1017 1.377 . S
C1017 H1001 0.930 . S
C1017 C1016 1.377 . S
C1017 C1018 1.379 . S
C1018 H1002 0.931 . S
C1018 C1012 1.383 . S
C1018 C1017 1.379 . S
H1019 C1013 0.959 . S
H1020 C1013 0.961 . S
H1021 C1013 0.960 . S
H1022 C1014 0.930 . S
H1023 C1015 0.929 . S
H1024 C1032 0.929 1_554 S
H1025 C1034 0.930 1_554 S
H1026 C1036 0.930 . S
H1027 C1039 0.929 . S
H1028 C1042 0.930 . S
H1029 C1044 0.960 . S
H1030 C1044 0.960 . S
H1031 C1044 0.960 . S
C1032 H1024 0.929 1_556 S
C1032 C1033 1.377 . S
C1032 C1034 1.384 . S
C1033 C1032 1.377 . S
C1033 C1039 1.390 . S
C1034 H1025 0.930 1_556 S
C1034 C1032 1.384 . S
C1034 C1035 1.372 . S
C1035 C1034 1.372 . S
C1035 C1036 1.400 . S
C1035 C1040 1.490 . S
C1036 H1026 0.930 . S
C1036 C1035 1.400 . S
C1036 C1039 1.386 . S
H1037 C1053 0.930 . S
H1038 C1054 0.931 . S
C1039 H1027 0.929 . S
C1039 C1033 1.390 . S
C1039 C1036 1.386 . S
C1040 C1035 1.490 . S
C1040 C1042 1.395 . S
C1040 C1043 1.403 1_545 S
H1041 C1047 0.930 . S
C1042 H1028 0.930 . S
C1042 C1040 1.395 . S
C1042 C1045 1.404 1_545 S
C1043 C1040 1.403 1_565 S
C1043 C1044 1.524 . S
C1043 C1047 1.400 . S
C1044 H1029 0.960 . S
C1044 H1030 0.960 . S
C1044 H1031 0.960 . S
C1044 C1043 1.524 . S
C1045 C1042 1.404 1_565 S
C1045 C1046 1.392 . S
C1045 C1049 1.496 1_566 S
C1046 C1045 1.392 . S
C1046 C1047 1.385 . S
C1046 C1048 1.478 . S
C1047 H1041 0.930 . S
C1047 C1043 1.400 . S
C1047 C1046 1.385 . S
C1048 C1046 1.478 . S
C1048 C1050 1.381 1_556 S
C1048 C1054 1.383 . S
C1049 C1045 1.496 1_544 S
C1049 H1055 0.959 . S
C1049 H1056 0.962 1_554 S
C1049 H1057 0.960 . S
C1050 C1048 1.381 1_554 S
C1050 C1051 1.394 . S
C1050 H1058 0.930 . S
C1051 C1050 1.394 . S
C1051 C1052 1.383 1_554 S
C1051 H1059 0.929 . S
C1052 C1051 1.383 1_556 S
C1052 C1053 1.377 . S
C1053 H1037 0.930 . S
C1053 C1052 1.377 . S
C1053 C1054 1.379 . S
C1054 H1038 0.931 . S
C1054 C1048 1.383 . S
C1054 C1053 1.379 . S
H1055 C1049 0.959 . S
H1056 C1049 0.962 1_556 S
H1057 C1049 0.960 . S
H1058 C1050 0.930 . S
H1059 C1051 0.929 . S
H1060 C1068 0.929 . S
H1061 C1070 0.930 . S
H1062 C1072 0.930 . S
H1063 C1075 0.929 . S
H1064 C1078 0.930 . S
H1065 C1080 0.960 . S
H1066 C1080 0.960 . S
H1067 C1080 0.960 . S
C1068 H1060 0.929 . S
C1068 C1069 1.377 . S
C1068 C1070 1.384 . S
C1069 C1068 1.377 . S
C1069 C1075 1.390 . S
C1070 H1061 0.930 . S
C1070 C1068 1.384 . S
C1070 C1071 1.372 . S
C1071 C1070 1.372 . S
C1071 C1072 1.400 . S
C1071 C1076 1.490 . S
C1072 H1062 0.930 . S
C1072 C1071 1.400 . S
C1072 C1075 1.386 . S
H1073 C1089 0.930 . S
H1074 C1090 0.931 . S
C1075 H1063 0.929 . S
C1075 C1069 1.390 . S
C1075 C1072 1.386 . S
C1076 C1071 1.490 . S
C1076 C1078 1.395 . S
C1076 C1079 1.403 . S
H1077 C1083 0.930 . S
C1078 H1064 0.930 . S
C1078 C1076 1.395 . S
C1078 C1081 1.403 . S
C1079 C1076 1.403 . S
C1079 C1080 1.524 . S
C1079 C1083 1.400 . S
C1080 H1065 0.960 . S
C1080 H1066 0.960 . S
C1080 H1067 0.960 . S
C1080 C1079 1.524 . S
C1081 C1078 1.403 . S
C1081 C1082 1.392 . S
C1081 C1085 1.495 . S
C1082 C1081 1.392 . S
C1082 C1083 1.385 . S
C1082 C1084 1.478 . S
C1083 H1077 0.930 . S
C1083 C1079 1.400 . S
C1083 C1082 1.385 . S
C1084 C1082 1.478 . S
C1084 C1086 1.381 . S
C1084 C1090 1.383 . S
C1085 C1081 1.495 . S
C1085 H1091 0.959 . S
C1085 H1092 0.961 . S
C1085 H1093 0.960 . S
C1086 C1084 1.381 . S
C1086 C1087 1.394 . S
C1086 H1094 0.930 . S
C1087 C1086 1.394 . S
C1087 C1088 1.383 . S
C1087 H1095 0.929 . S
C1088 C1087 1.383 . S
C1088 C1089 1.377 . S
C1089 H1073 0.930 . S
C1089 C1088 1.377 . S
C1089 C1090 1.379 . S
C1090 H1074 0.931 . S
C1090 C1084 1.383 . S
C1090 C1089 1.379 . S
H1091 C1085 0.959 . S
H1092 C1085 0.961 . S
H1093 C1085 0.960 . S
H1094 C1086 0.930 . S
H1095 C1087 0.929 . S
H1096 C1104 0.940 . S
H1097 C1106 0.930 . S
H1098 C1108 0.930 . S
H1099 C1111 0.929 . S
H1100 C1114 0.930 . S
H1101 C1116 0.960 . S
H1102 C1116 0.960 . S
H1103 C1116 1.011 . S
C1104 H1096 0.940 . S
C1104 C1105 1.354 1_545 S
C1104 C1106 1.398 . S
C1105 C1104 1.354 1_565 S
C1105 C1111 1.390 . S
C1106 H1097 0.930 . S
C1106 C1104 1.398 . S
C1106 C1107 1.372 . S
C1107 C1106 1.372 . S
C1107 C1108 1.400 1_545 S
C1107 C1112 1.490 . S
C1108 H1098 0.930 . S
C1108 C1107 1.400 1_565 S
C1108 C1111 1.386 . S
H1109 C1125 0.930 . S
H1110 C1126 0.931 . S
C1111 H1099 0.929 . S
C1111 C1105 1.390 . S
C1111 C1108 1.386 . S
C1112 C1107 1.490 . S
C1112 C1114 1.395 . S
C1112 C1115 1.403 . S
H1113 C1119 0.930 . S
C1114 H1100 0.930 . S
C1114 C1112 1.395 . S
C1114 C1117 1.403 . S
C1115 C1112 1.403 . S
C1115 C1116 1.524 . S
C1115 C1119 1.400 . S
C1116 H1101 0.960 . S
C1116 H1102 0.960 . S
C1116 H1103 1.011 . S
C1116 C1115 1.524 . S
C1117 C1114 1.403 . S
C1117 C1118 1.392 . S
C1117 C1121 1.495 . S
C1118 C1117 1.392 . S
C1118 C1119 1.385 . S
C1118 C1120 1.478 . S
C1119 H1113 0.930 . S
C1119 C1115 1.400 . S
C1119 C1118 1.385 . S
C1120 C1118 1.478 . S
C1120 C1122 1.381 . S
C1120 C1126 1.383 . S
C1121 C1117 1.495 . S
C1121 H1127 0.959 . S
C1121 H1128 0.961 . S
C1121 H1129 0.960 . S
C1122 C1120 1.381 . S
C1122 C1123 1.394 . S
C1122 H1130 0.930 . S
C1123 C1122 1.394 . S
C1123 C1124 1.383 . S
C1123 H1131 0.929 . S
C1124 C1123 1.383 . S
C1124 C1125 1.377 . S
C1125 H1109 0.930 . S
C1125 C1124 1.377 . S
C1125 C1126 1.379 . S
C1126 H1110 0.931 . S
C1126 C1120 1.383 . S
C1126 C1125 1.379 . S
H1127 C1121 0.959 . S
H1128 C1121 0.961 . S
H1129 C1121 0.960 . S
H1130 C1122 0.930 . S
H1131 C1123 0.929 . S
H1132 C1140 0.929 . S
H1133 C1142 0.930 . S
H1134 C1144 0.930 . S
H1135 C1147 0.929 . S
H1136 C1150 0.930 . S
H1137 C1152 0.960 . S
H1138 C1152 0.960 . S
H1139 C1152 0.960 . S
C1140 H1132 0.929 . S
C1140 C1141 1.377 . S
C1140 C1142 1.384 . S
C1141 C1140 1.377 . S
C1141 C1147 1.390 . S
C1142 H1133 0.930 . S
C1142 C1140 1.384 . S
C1142 C1143 1.372 . S
C1143 C1142 1.372 . S
C1143 C1144 1.400 . S
C1143 C1148 1.490 . S
C1144 H1134 0.930 . S
C1144 C1143 1.400 . S
C1144 C1147 1.386 . S
H1145 C1161 0.930 . S
H1146 C1162 0.931 . S
C1147 H1135 0.929 . S
C1147 C1141 1.390 . S
C1147 C1144 1.386 . S
C1148 C1143 1.490 . S
C1148 C1150 1.395 . S
C1148 C1151 1.403 . S
H1149 C1155 0.930 . S
C1150 H1136 0.930 . S
C1150 C1148 1.395 . S
C1150 C1153 1.403 . S
C1151 C1148 1.403 . S
C1151 C1152 1.524 . S
C1151 C1155 1.400 . S
C1152 H1137 0.960 . S
C1152 H1138 0.960 . S
C1152 H1139 0.960 . S
C1152 C1151 1.524 . S
C1153 C1150 1.403 . S
C1153 C1154 1.392 . S
C1153 C1157 1.495 . S
C1154 C1153 1.392 . S
C1154 C1155 1.385 . S
C1154 C1156 1.478 . S
C1155 H1149 0.930 . S
C1155 C1151 1.400 . S
C1155 C1154 1.385 . S
C1156 C1154 1.478 . S
C1156 C1158 1.381 . S
C1156 C1162 1.383 . S
C1157 C1153 1.495 . S
C1157 H1163 0.959 . S
C1157 H1164 0.961 . S
C1157 H1165 0.960 . S
C1158 C1156 1.381 . S
C1158 C1159 1.394 . S
C1158 H1166 0.930 . S
C1159 C1158 1.394 . S
C1159 C1160 1.383 . S
C1159 H1167 0.929 . S
C1160 C1159 1.383 . S
C1160 C1161 1.377 . S
C1161 H1145 0.930 . S
C1161 C1160 1.377 . S
C1161 C1162 1.379 . S
C1162 H1146 0.931 . S
C1162 C1156 1.383 . S
C1162 C1161 1.379 . S
H1163 C1157 0.959 . S
H1164 C1157 0.961 . S
H1165 C1157 0.960 . S
H1166 C1158 0.930 . S
H1167 C1159 0.929 . S
H1168 C1176 0.929 . S
H1169 C1178 0.930 . S
H1170 C1180 0.930 . S
H1171 C1183 0.929 . S
H1172 C1186 0.930 1_565 S
H1173 C1188 0.960 . S
H1174 C1188 0.960 . S
H1175 C1188 0.960 . S
C1176 H1168 0.929 . S
C1176 C1177 1.377 . S
C1176 C1178 1.384 . S
C1177 C1176 1.377 . S
C1177 C1183 1.390 . S
C1178 H1169 0.930 . S
C1178 C1176 1.384 . S
C1178 C1179 1.372 1_565 S
C1179 C1178 1.372 1_545 S
C1179 C1180 1.400 . S
C1179 C1184 1.490 . S
C1180 H1170 0.930 . S
C1180 C1179 1.400 . S
C1180 C1183 1.386 1_545 S
H1181 C1197 0.930 . S
H1182 C1198 0.931 . S
C1183 H1171 0.929 . S
C1183 C1177 1.390 . S
C1183 C1180 1.386 1_565 S
C1184 C1179 1.490 . S
C1184 C1186 1.395 . S
C1184 C1187 1.403 . S
H1185 C1191 0.930 . S
C1186 H1172 0.930 1_545 S
C1186 C1184 1.395 . S
C1186 C1189 1.403 . S
C1187 C1184 1.403 . S
C1187 C1188 1.524 . S
C1187 C1191 1.400 . S
C1188 H1173 0.960 . S
C1188 H1174 0.960 . S
C1188 H1175 0.960 . S
C1188 C1187 1.524 . S
C1189 C1186 1.403 . S
C1189 C1190 1.392 . S
C1189 C1193 1.495 . S
C1190 C1189 1.392 . S
C1190 C1191 1.385 . S
C1190 C1192 1.478 . S
C1191 H1185 0.930 . S
C1191 C1187 1.400 . S
C1191 C1190 1.385 . S
C1192 C1190 1.478 . S
C1192 C1194 1.381 . S
C1192 C1198 1.383 . S
C1193 C1189 1.495 . S
C1193 H1199 0.959 1_545 S
C1193 H1200 0.961 . S
C1193 H1201 0.960 . S
C1194 C1192 1.381 . S
C1194 C1195 1.394 . S
C1194 H1202 0.930 . S
C1195 C1194 1.394 . S
C1195 C1196 1.383 . S
C1195 H1203 0.929 . S
C1196 C1195 1.383 . S
C1196 C1197 1.377 . S
C1197 H1181 0.930 . S
C1197 C1196 1.377 . S
C1197 C1198 1.379 . S
C1198 H1182 0.931 . S
C1198 C1192 1.383 . S
C1198 C1197 1.379 . S
H1199 C1193 0.959 1_565 S
H1200 C1193 0.961 . S
H1201 C1193 0.960 . S
H1202 C1194 0.930 . S
H1203 C1195 0.929 . S
H1204 C1212 0.929 . S
H1205 C1214 0.930 . S
H1206 C1216 0.930 . S
H1207 C1219 0.929 . S
H1208 C1222 0.930 . S
H1209 C1224 0.960 . S
H1210 C1224 0.960 . S
H1211 C1224 0.960 . S
C1212 H1204 0.929 . S
C1212 C1213 1.377 . S
C1212 C1214 1.384 . S
C1213 C1212 1.377 . S
C1213 C1219 1.390 . S
C1214 H1205 0.930 . S
C1214 C1212 1.384 . S
C1214 C1215 1.372 . S
C1215 C1214 1.372 . S
C1215 C1216 1.400 . S
C1215 C1220 1.490 . S
C1216 H1206 0.930 . S
C1216 C1215 1.400 . S
C1216 C1219 1.386 . S
H1217 C1233 0.930 . S
H1218 C1234 0.931 . S
C1219 H1207 0.929 . S
C1219 C1213 1.390 . S
C1219 C1216 1.386 . S
C1220 C1215 1.490 . S
C1220 C1222 1.395 . S
C1220 C1223 1.403 . S
H1221 C1227 0.930 . S
C1222 H1208 0.930 . S
C1222 C1220 1.395 . S
C1222 C1225 1.403 . S
C1223 C1220 1.403 . S
C1223 C1224 1.524 . S
C1223 C1227 1.400 . S
C1224 H1209 0.960 . S
C1224 H1210 0.960 . S
C1224 H1211 0.960 . S
C1224 C1223 1.524 . S
C1225 C1222 1.403 . S
C1225 C1226 1.392 . S
C1225 C1229 1.495 . S
C1226 C1225 1.392 . S
C1226 C1227 1.385 . S
C1226 C1228 1.478 . S
C1227 H1221 0.930 . S
C1227 C1223 1.400 . S
C1227 C1226 1.385 . S
C1228 C1226 1.478 . S
C1228 C1230 1.381 . S
C1228 C1234 1.383 . S
C1229 C1225 1.495 . S
C1229 H1235 0.959 . S
C1229 H1236 0.961 . S
C1229 H1237 0.960 . S
C1230 C1228 1.381 . S
C1230 C1231 1.394 . S
C1230 H1238 0.930 . S
C1231 C1230 1.394 . S
C1231 C1232 1.383 . S
C1231 H1239 0.929 . S
C1232 C1231 1.383 . S
C1232 C1233 1.377 . S
C1233 H1217 0.930 . S
C1233 C1232 1.377 . S
C1233 C1234 1.379 . S
C1234 H1218 0.931 . S
C1234 C1228 1.383 . S
C1234 C1233 1.379 . S
H1235 C1229 0.959 . S
H1236 C1229 0.961 . S
H1237 C1229 0.960 . S
H1238 C1230 0.930 . S
H1239 C1231 0.929 . S
H1240 C1248 0.929 . S
H1241 C1250 0.930 . S
H1242 C1252 0.930 . S
H1243 C1255 0.929 . S
H1244 C1258 0.930 . S
H1245 C1260 0.960 . S
H1246 C1260 0.960 . S
H1247 C1260 0.960 . S
C1248 H1240 0.929 . S
C1248 C1249 1.377 . S
C1248 C1250 1.384 . S
C1249 C1248 1.377 . S
C1249 C1255 1.390 . S
C1250 H1241 0.930 . S
C1250 C1248 1.384 . S
C1250 C1251 1.372 . S
C1251 C1250 1.372 . S
C1251 C1252 1.400 . S
C1251 C1256 1.490 . S
C1252 H1242 0.930 . S
C1252 C1251 1.400 . S
C1252 C1255 1.386 . S
H1253 C1269 0.930 . S
H1254 C1270 0.931 . S
C1255 H1243 0.929 . S
C1255 C1249 1.390 . S
C1255 C1252 1.386 . S
C1256 C1251 1.490 . S
C1256 C1258 1.395 . S
C1256 C1259 1.403 . S
H1257 C1263 0.930 . S
C1258 H1244 0.930 . S
C1258 C1256 1.395 . S
C1258 C1261 1.403 . S
C1259 C1256 1.403 . S
C1259 C1260 1.524 . S
C1259 C1263 1.400 . S
C1260 H1245 0.960 . S
C1260 H1246 0.960 . S
C1260 H1247 0.960 . S
C1260 C1259 1.524 . S
C1261 C1258 1.403 . S
C1261 C1262 1.392 . S
C1261 C1265 1.495 . S
C1262 C1261 1.392 . S
C1262 C1263 1.385 . S
C1262 C1264 1.478 . S
C1263 H1257 0.930 . S
C1263 C1259 1.400 . S
C1263 C1262 1.385 . S
C1264 C1262 1.478 . S
C1264 C1266 1.381 . S
C1264 C1270 1.383 . S
C1265 C1261 1.495 . S
C1265 H1271 0.959 . S
C1265 H1272 0.961 . S
C1265 H1273 0.960 . S
C1266 C1264 1.381 . S
C1266 C1267 1.394 . S
C1266 H1274 0.930 . S
C1267 C1266 1.394 . S
C1267 C1268 1.383 . S
C1267 H1275 0.929 . S
C1268 C1267 1.383 . S
C1268 C1269 1.377 . S
C1269 H1253 0.930 . S
C1269 C1268 1.377 . S
C1269 C1270 1.379 . S
C1270 H1254 0.931 . S
C1270 C1264 1.383 . S
C1270 C1269 1.379 . S
H1271 C1265 0.959 . S
H1272 C1265 0.961 . S
H1273 C1265 0.960 . S
H1274 C1266 0.930 . S
H1275 C1267 0.929 . S
H1276 C1284 0.929 . S
H1277 C1286 0.930 . S
H1278 C1288 0.930 . S
H1279 C1291 0.929 . S
H1280 C1294 0.930 . S
H1281 C1296 0.960 . S
H1282 C1296 0.960 . S
H1283 C1296 0.960 . S
C1284 H1276 0.929 . S
C1284 C1285 1.377 . S
C1284 C1286 1.384 . S
C1285 C1284 1.377 . S
C1285 C1291 1.390 . S
C1286 H1277 0.930 . S
C1286 C1284 1.384 . S
C1286 C1287 1.372 . S
C1287 C1286 1.372 . S
C1287 C1288 1.400 . S
C1287 C1292 1.490 . S
C1288 H1278 0.930 . S
C1288 C1287 1.400 . S
C1288 C1291 1.386 . S
H1289 C1305 0.930 . S
H1290 C1306 0.931 . S
C1291 H1279 0.929 . S
C1291 C1285 1.390 . S
C1291 C1288 1.386 . S
C1292 C1287 1.490 . S
C1292 C1294 1.395 . S
C1292 C1295 1.403 . S
H1293 C1299 0.930 . S
C1294 H1280 0.930 . S
C1294 C1292 1.395 . S
C1294 C1297 1.403 . S
C1295 C1292 1.403 . S
C1295 C1296 1.524 . S
C1295 C1299 1.400 . S
C1296 H1281 0.960 . S
C1296 H1282 0.960 . S
C1296 H1283 0.960 . S
C1296 C1295 1.524 . S
C1297 C1294 1.403 . S
C1297 C1298 1.392 . S
C1297 C1301 1.495 1_545 S
C1298 C1297 1.392 . S
C1298 C1299 1.385 . S
C1298 C1300 1.478 . S
C1299 H1293 0.930 . S
C1299 C1295 1.400 . S
C1299 C1298 1.385 . S
C1300 C1298 1.478 . S
C1300 C1302 1.381 . S
C1300 C1306 1.383 . S
C1301 C1297 1.495 1_565 S
C1301 H1307 0.959 . S
C1301 H1308 0.961 . S
C1301 H1309 0.960 . S
C1302 C1300 1.381 . S
C1302 C1303 1.394 . S
C1302 H1310 0.930 . S
C1303 C1302 1.394 . S
C1303 C1304 1.383 . S
C1303 H1311 0.929 . S
C1304 C1303 1.383 . S
C1304 C1305 1.377 . S
C1305 H1289 0.930 . S
C1305 C1304 1.377 . S
C1305 C1306 1.379 . S
C1306 H1290 0.931 . S
C1306 C1300 1.383 . S
C1306 C1305 1.379 . S
H1307 C1301 0.959 . S
H1308 C1301 0.961 . S
H1309 C1301 0.960 . S
H1310 C1302 0.930 . S
H1311 C1303 0.929 . S
H1312 C1320 0.929 . S
H1313 C1322 0.930 . S
H1314 C1324 0.930 . S
H1315 C1327 0.929 . S
H1316 C1330 0.930 . S
H1317 C1332 0.960 . S
H1318 C1332 0.960 . S
H1319 C1332 0.960 . S
C1320 H1312 0.929 . S
C1320 C1321 1.377 . S
C1320 C1322 1.384 . S
C1321 C1320 1.377 . S
C1321 C1327 1.390 . S
C1322 H1313 0.930 . S
C1322 C1320 1.384 . S
C1322 C1323 1.372 . S
C1323 C1322 1.372 . S
C1323 C1324 1.400 . S
C1323 C1328 1.490 . S
C1324 H1314 0.930 . S
C1324 C1323 1.400 . S
C1324 C1327 1.386 . S
H1325 C1341 0.930 . S
H1326 C1342 0.931 . S
C1327 H1315 0.929 . S
C1327 C1321 1.390 . S
C1327 C1324 1.386 . S
C1328 C1323 1.490 . S
C1328 C1330 1.395 . S
C1328 C1331 1.403 . S
H1329 C1335 0.930 . S
C1330 H1316 0.930 . S
C1330 C1328 1.395 . S
C1330 C1333 1.403 . S
C1331 C1328 1.403 . S
C1331 C1332 1.524 . S
C1331 C1335 1.400 . S
C1332 H1317 0.960 . S
C1332 H1318 0.960 . S
C1332 H1319 0.960 . S
C1332 C1331 1.524 . S
C1333 C1330 1.403 . S
C1333 C1334 1.392 . S
C1333 C1337 1.495 . S
C1334 C1333 1.392 . S
C1334 C1335 1.385 . S
C1334 C1336 1.478 . S
C1335 H1329 0.930 . S
C1335 C1331 1.400 . S
C1335 C1334 1.385 . S
C1336 C1334 1.478 . S
C1336 C1338 1.381 . S
C1336 C1342 1.383 . S
C1337 C1333 1.495 . S
C1337 H1343 0.959 . S
C1337 H1344 0.961 . S
C1337 H1345 0.960 . S
C1338 C1336 1.381 . S
C1338 C1339 1.394 . S
C1338 H1346 0.930 . S
C1339 C1338 1.394 . S
C1339 C1340 1.383 . S
C1339 H1347 0.929 . S
C1340 C1339 1.383 . S
C1340 C1341 1.377 . S
C1341 H1325 0.930 . S
C1341 C1340 1.377 . S
C1341 C1342 1.379 . S
C1342 H1326 0.931 . S
C1342 C1336 1.383 . S
C1342 C1341 1.379 . S
H1343 C1337 0.959 . S
H1344 C1337 0.961 . S
H1345 C1337 0.960 . S
H1346 C1338 0.930 . S
H1347 C1339 0.929 . S
H1348 C1356 0.929 . S
H1349 C1358 0.930 . S
H1350 C1360 0.930 . S
H1351 C1363 0.929 . S
H1352 C1366 0.930 . S
H1353 C1368 0.960 . S
H1354 C1368 0.960 . S
H1355 C1368 0.960 . S
C1356 H1348 0.929 . S
C1356 C1357 1.377 . S
C1356 C1358 1.384 . S
C1357 C1356 1.377 . S
C1357 C1363 1.390 . S
C1358 H1349 0.930 . S
C1358 C1356 1.384 . S
C1358 C1359 1.372 . S
C1359 C1358 1.372 . S
C1359 C1360 1.400 . S
C1359 C1364 1.490 . S
C1360 H1350 0.930 . S
C1360 C1359 1.400 . S
C1360 C1363 1.386 . S
H1361 C1377 0.930 . S
H1362 C1378 0.931 . S
C1363 H1351 0.929 . S
C1363 C1357 1.390 . S
C1363 C1360 1.386 . S
C1364 C1359 1.490 . S
C1364 C1366 1.395 . S
C1364 C1367 1.403 . S
H1365 C1371 0.930 . S
C1366 H1352 0.930 . S
C1366 C1364 1.395 . S
C1366 C1369 1.403 . S
C1367 C1364 1.403 . S
C1367 C1368 1.524 . S
C1367 C1371 1.400 . S
C1368 H1353 0.960 . S
C1368 H1354 0.960 . S
C1368 H1355 0.960 . S
C1368 C1367 1.524 . S
C1369 C1366 1.403 . S
C1369 C1370 1.392 . S
C1369 C1373 1.495 . S
C1370 C1369 1.392 . S
C1370 C1371 1.385 . S
C1370 C1372 1.478 . S
C1371 H1365 0.930 . S
C1371 C1367 1.400 . S
C1371 C1370 1.385 . S
C1372 C1370 1.478 . S
C1372 C1374 1.381 . S
C1372 C1378 1.383 . S
C1373 C1369 1.495 . S
C1373 H1379 0.959 . S
C1373 H1380 0.961 . S
C1373 H1381 0.960 . S
C1374 C1372 1.381 . S
C1374 C1375 1.394 . S
C1374 H1382 0.930 . S
C1375 C1374 1.394 . S
C1375 C1376 1.383 . S
C1375 H1383 0.929 . S
C1376 C1375 1.383 . S
C1376 C1377 1.377 . S
C1377 H1361 0.930 . S
C1377 C1376 1.377 . S
C1377 C1378 1.379 . S
C1378 H1362 0.931 . S
C1378 C1372 1.383 . S
C1378 C1377 1.379 . S
H1379 C1373 0.959 . S
H1380 C1373 0.961 . S
H1381 C1373 0.960 . S
H1382 C1374 0.930 . S
H1383 C1375 0.929 . S
H1384 C1392 0.929 . S
H1385 C1394 0.930 . S
H1386 C1396 0.930 . S
H1387 C1399 0.929 . S
H1388 C1402 0.930 . S
H1389 C1404 0.960 . S
H1390 C1404 0.960 . S
H1391 C1404 0.960 . S
C1392 H1384 0.929 . S
C1392 C1393 1.377 . S
C1392 C1394 1.384 . S
C1393 C1392 1.377 . S
C1393 C1399 1.390 . S
C1394 H1385 0.930 . S
C1394 C1392 1.384 . S
C1394 C1395 1.372 . S
C1395 C1394 1.372 . S
C1395 C1396 1.400 . S
C1395 C1400 1.490 . S
C1396 H1386 0.930 . S
C1396 C1395 1.400 . S
C1396 C1399 1.386 . S
H1397 C1413 0.930 . S
H1398 C1414 0.931 . S
C1399 H1387 0.929 . S
C1399 C1393 1.390 . S
C1399 C1396 1.386 . S
C1400 C1395 1.490 . S
C1400 C1402 1.395 . S
C1400 C1403 1.403 . S
H1401 C1407 0.930 . S
C1402 H1388 0.930 . S
C1402 C1400 1.395 . S
C1402 C1405 1.403 . S
C1403 C1400 1.403 . S
C1403 C1404 1.524 . S
C1403 C1407 1.400 . S
C1404 H1389 0.960 . S
C1404 H1390 0.960 . S
C1404 H1391 0.960 . S
C1404 C1403 1.524 . S
C1405 C1402 1.403 . S
C1405 C1406 1.392 . S
C1405 C1409 1.495 . S
C1406 C1405 1.392 . S
C1406 C1407 1.385 . S
C1406 C1408 1.478 . S
C1407 H1401 0.930 . S
C1407 C1403 1.400 . S
C1407 C1406 1.385 . S
C1408 C1406 1.478 . S
C1408 C1410 1.381 . S
C1408 C1414 1.383 . S
C1409 C1405 1.495 . S
C1409 H1415 0.959 . S
C1409 H1416 0.961 . S
C1409 H1417 0.960 . S
C1410 C1408 1.381 . S
C1410 C1411 1.394 . S
C1410 H1418 0.930 . S
C1411 C1410 1.394 . S
C1411 C1412 1.383 . S
C1411 H1419 0.929 . S
C1412 C1411 1.383 . S
C1412 C1413 1.377 . S
C1413 H1397 0.930 . S
C1413 C1412 1.377 . S
C1413 C1414 1.379 . S
C1414 H1398 0.931 . S
C1414 C1408 1.383 . S
C1414 C1413 1.379 . S
H1415 C1409 0.959 . S
H1416 C1409 0.961 . S
H1417 C1409 0.960 . S
H1418 C1410 0.930 . S
H1419 C1411 0.929 . S
H1420 C1428 0.929 . S
H1421 C1430 0.930 . S
H1422 C1432 0.930 . S
H1423 C1435 0.929 . S
H1424 C1438 0.930 . S
H1425 C1440 0.960 1_455 S
H1426 C1440 0.958 . S
H1427 C1440 0.960 1_455 S
C1428 H1420 0.929 . S
C1428 C1429 1.377 1_655 S
C1428 C1430 1.384 . S
C1429 C1428 1.377 1_455 S
C1429 C1435 1.390 . S
C1430 H1421 0.930 . S
C1430 C1428 1.384 . S
C1430 C1431 1.372 . S
C1431 C1430 1.372 . S
C1431 C1432 1.400 1_655 S
C1431 C1436 1.490 . S
C1432 H1422 0.930 . S
C1432 C1431 1.400 1_455 S
C1432 C1435 1.386 . S
H1433 C1449 0.930 . S
H1434 C1450 0.931 . S
C1435 H1423 0.929 . S
C1435 C1429 1.390 . S
C1435 C1432 1.386 . S
C1436 C1431 1.490 . S
C1436 C1438 1.395 . S
C1436 C1439 1.403 . S
H1437 C1443 0.930 . S
C1438 H1424 0.930 . S
C1438 C1436 1.395 . S
C1438 C1441 1.403 . S
C1439 C1436 1.403 . S
C1439 C1440 1.524 . S
C1439 C1443 1.400 . S
C1440 H1425 0.960 1_655 S
C1440 H1426 0.958 . S
C1440 H1427 0.960 1_655 S
C1440 C1439 1.524 . S
C1441 C1438 1.403 . S
C1441 C1442 1.392 . S
C1441 C1445 1.495 . S
C1442 C1441 1.392 . S
C1442 C1443 1.385 . S
C1442 C1444 1.478 . S
C1443 H1437 0.930 . S
C1443 C1439 1.400 . S
C1443 C1442 1.385 . S
C1444 C1442 1.478 . S
C1444 C1446 1.381 . S
C1444 C1450 1.383 . S
C1445 C1441 1.495 . S
C1445 H1451 0.959 1_545 S
C1445 H1452 0.961 1_545 S
C1445 H1453 0.960 . S
C1446 C1444 1.381 . S
C1446 C1447 1.394 . S
C1446 H1454 0.930 . S
C1447 C1446 1.394 . S
C1447 C1448 1.383 . S
C1447 H1455 0.929 . S
C1448 C1447 1.383 . S
C1448 C1449 1.377 . S
C1449 H1433 0.930 . S
C1449 C1448 1.377 . S
C1449 C1450 1.379 . S
C1450 H1434 0.931 . S
C1450 C1444 1.383 . S
C1450 C1449 1.379 . S
H1451 C1445 0.959 1_565 S
H1452 C1445 0.961 1_565 S
H1453 C1445 0.960 . S
H1454 C1446 0.930 . S
H1455 C1447 0.929 . S
H1456 C1464 0.929 . S
H1457 C1466 0.930 . S
H1458 C1468 0.930 . S
H1459 C1471 0.929 . S
H1460 C1474 0.930 . S
H1461 C1476 0.960 . S
H1462 C1476 0.960 . S
H1463 C1476 0.960 . S
C1464 H1456 0.929 . S
C1464 C1465 1.377 . S
C1464 C1466 1.384 . S
C1465 C1464 1.377 . S
C1465 C1471 1.390 . S
C1466 H1457 0.930 . S
C1466 C1464 1.384 . S
C1466 C1467 1.372 . S
C1467 C1466 1.372 . S
C1467 C1468 1.400 . S
C1467 C1472 1.490 . S
C1468 H1458 0.930 . S
C1468 C1467 1.400 . S
C1468 C1471 1.386 . S
H1469 C1485 0.930 . S
H1470 C1486 0.931 . S
C1471 H1459 0.929 . S
C1471 C1465 1.390 . S
C1471 C1468 1.386 . S
C1472 C1467 1.490 . S
C1472 C1474 1.395 . S
C1472 C1475 1.403 . S
H1473 C1479 0.930 . S
C1474 H1460 0.930 . S
C1474 C1472 1.395 . S
C1474 C1477 1.403 . S
C1475 C1472 1.403 . S
C1475 C1476 1.524 . S
C1475 C1479 1.400 . S
C1476 H1461 0.960 . S
C1476 H1462 0.960 . S
C1476 H1463 0.960 . S
C1476 C1475 1.524 . S
C1477 C1474 1.403 . S
C1477 C1478 1.392 . S
C1477 C1481 1.495 . S
C1478 C1477 1.392 . S
C1478 C1479 1.385 . S
C1478 C1480 1.478 . S
C1479 H1473 0.930 . S
C1479 C1475 1.400 . S
C1479 C1478 1.385 . S
C1480 C1478 1.478 . S
C1480 C1482 1.381 . S
C1480 C1486 1.383 . S
C1481 C1477 1.495 . S
C1481 H1487 0.959 . S
C1481 H1488 0.961 . S
C1481 H1489 0.960 . S
C1482 C1480 1.381 . S
C1482 C1483 1.394 . S
C1482 H1490 0.930 . S
C1483 C1482 1.394 . S
C1483 C1484 1.383 . S
C1483 H1491 0.929 . S
C1484 C1483 1.383 . S
C1484 C1485 1.377 . S
C1485 H1469 0.930 . S
C1485 C1484 1.377 . S
C1485 C1486 1.379 . S
C1486 H1470 0.931 . S
C1486 C1480 1.383 . S
C1486 C1485 1.379 . S
H1487 C1481 0.959 . S
H1488 C1481 0.961 . S
H1489 C1481 0.960 . S
H1490 C1482 0.930 . S
H1491 C1483 0.929 . S
H1492 C1500 0.929 . S
H1493 C1502 0.930 . S
H1494 C1504 0.930 . S
H1495 C1507 0.929 1_655 S
H1496 C1510 0.930 . S
H1497 C1512 0.960 . S
H1498 C1512 0.960 . S
H1499 C1512 0.960 . S
C1500 H1492 0.929 . S
C1500 C1501 1.377 . S
C1500 C1502 1.384 1_655 S
C1501 C1500 1.377 . S
C1501 C1507 1.390 1_655 S
C1502 H1493 0.930 . S
C1502 C1500 1.384 1_455 S
C1502 C1503 1.372 . S
C1503 C1502 1.372 . S
C1503 C1504 1.400 . S
C1503 C1508 1.490 . S
C1504 H1494 0.930 . S
C1504 C1503 1.400 . S
C1504 C1507 1.386 . S
H1505 C1521 0.930 . S
H1506 C1522 0.931 . S
C1507 H1495 0.929 1_455 S
C1507 C1501 1.390 1_455 S
C1507 C1504 1.386 . S
C1508 C1503 1.490 . S
C1508 C1510 1.395 . S
C1508 C1511 1.403 . S
H1509 C1515 0.930 . S
C1510 H1496 0.930 . S
C1510 C1508 1.395 . S
C1510 C1513 1.403 . S
C1511 C1508 1.403 . S
C1511 C1512 1.524 . S
C1511 C1515 1.400 . S
C1512 H1497 0.960 . S
C1512 H1498 0.960 . S
C1512 H1499 0.960 . S
C1512 C1511 1.524 . S
C1513 C1510 1.403 . S
C1513 C1514 1.392 . S
C1513 C1517 1.495 . S
C1514 C1513 1.392 . S
C1514 C1515 1.385 . S
C1514 C1516 1.478 . S
C1515 H1509 0.930 . S
C1515 C1511 1.400 . S
C1515 C1514 1.385 . S
C1516 C1514 1.478 . S
C1516 C1518 1.381 . S
C1516 C1522 1.383 . S
C1517 C1513 1.495 . S
C1517 H1523 0.959 . S
C1517 H1524 0.961 . S
C1517 H1525 0.960 . S
C1518 C1516 1.381 . S
C1518 C1519 1.394 . S
C1518 H1526 0.930 . S
C1519 C1518 1.394 . S
C1519 C1520 1.383 . S
C1519 H1527 0.929 . S
C1520 C1519 1.383 . S
C1520 C1521 1.377 . S
C1521 H1505 0.930 . S
C1521 C1520 1.377 . S
C1521 C1522 1.379 . S
C1522 H1506 0.931 . S
C1522 C1516 1.383 . S
C1522 C1521 1.379 . S
H1523 C1517 0.959 . S
H1524 C1517 0.961 . S
H1525 C1517 0.960 . S
H1526 C1518 0.930 . S
H1527 C1519 0.929 . S
H1528 C1536 0.929 . S
H1529 C1538 0.930 . S
H1530 C1540 0.930 . S
H1531 C1543 0.929 . S
H1532 C1546 0.930 . S
H1533 C1548 0.960 . S
H1534 C1548 0.960 . S
H1535 C1548 0.960 . S
C1536 H1528 0.929 . S
C1536 C1537 1.377 . S
C1536 C1538 1.384 . S
C1537 C1536 1.377 . S
C1537 C1543 1.390 . S
C1538 H1529 0.930 . S
C1538 C1536 1.384 . S
C1538 C1539 1.372 . S
C1539 C1538 1.372 . S
C1539 C1540 1.400 . S
C1539 C1544 1.490 . S
C1540 H1530 0.930 . S
C1540 C1539 1.400 . S
C1540 C1543 1.386 . S
H1541 C1557 0.930 . S
H1542 C1558 0.931 . S
C1543 H1531 0.929 . S
C1543 C1537 1.390 . S
C1543 C1540 1.386 . S
C1544 C1539 1.490 . S
C1544 C1546 1.395 . S
C1544 C1547 1.403 . S
H1545 C1551 0.930 . S
C1546 H1532 0.930 . S
C1546 C1544 1.395 . S
C1546 C1549 1.403 . S
C1547 C1544 1.403 . S
C1547 C1548 1.524 . S
C1547 C1551 1.400 . S
C1548 H1533 0.960 . S
C1548 H1534 0.960 . S
C1548 H1535 0.960 . S
C1548 C1547 1.524 . S
C1549 C1546 1.403 . S
C1549 C1550 1.392 . S
C1549 C1553 1.495 . S
C1550 C1549 1.392 . S
C1550 C1551 1.385 . S
C1550 C1552 1.478 . S
C1551 H1545 0.930 . S
C1551 C1547 1.400 . S
C1551 C1550 1.385 . S
C1552 C1550 1.478 . S
C1552 C1554 1.381 . S
C1552 C1558 1.383 . S
C1553 C1549 1.495 . S
C1553 H1559 0.959 . S
C1553 H1560 0.961 . S
C1553 H1561 0.960 . S
C1554 C1552 1.381 . S
C1554 C1555 1.394 . S
C1554 H1562 0.930 . S
C1555 C1554 1.394 . S
C1555 C1556 1.383 . S
C1555 H1563 0.929 . S
C1556 C1555 1.383 . S
C1556 C1557 1.377 . S
C1557 H1541 0.930 . S
C1557 C1556 1.377 . S
C1557 C1558 1.379 . S
C1558 H1542 0.931 . S
C1558 C1552 1.383 . S
C1558 C1557 1.379 . S
H1559 C1553 0.959 . S
H1560 C1553 0.961 . S
H1561 C1553 0.960 . S
H1562 C1554 0.930 . S
H1563 C1555 0.929 . S
H1564 C1572 0.929 . S
H1565 C1574 0.952 . S
H1566 C1576 0.930 . S
H1567 C1579 0.929 . S
H1568 C1582 0.952 . S
H1569 C1584 0.960 . S
H1570 C1584 0.960 . S
H1571 C1584 0.960 . S
C1572 H1564 0.929 . S
C1572 C1573 1.377 . S
C1572 C1574 1.384 . S
C1573 C1572 1.377 . S
C1573 C1579 1.390 . S
C1574 H1565 0.952 . S
C1574 C1572 1.384 . S
C1574 C1575 1.372 . S
C1575 C1574 1.372 . S
C1575 C1576 1.400 . S
C1575 C1580 1.531 . S
C1576 H1566 0.930 . S
C1576 C1575 1.400 . S
C1576 C1579 1.386 . S
H1577 C1593 0.930 . S
H1578 C1594 0.931 . S
C1579 H1567 0.929 . S
C1579 C1573 1.390 . S
C1579 C1576 1.386 . S
C1580 C1575 1.531 . S
C1580 C1582 1.405 . S
C1580 C1583 1.354 1_554 S
H1581 C1587 0.930 . S
C1582 H1568 0.952 . S
C1582 C1580 1.405 . S
C1582 C1585 1.403 1_554 S
C1583 C1580 1.354 1_556 S
C1583 C1584 1.524 . S
C1583 C1587 1.400 . S
C1584 H1569 0.960 . S
C1584 H1570 0.960 . S
C1584 H1571 0.960 . S
C1584 C1583 1.524 . S
C1585 C1582 1.403 1_556 S
C1585 C1586 1.392 . S
C1585 C1589 1.503 1_655 S
C1586 C1585 1.392 . S
C1586 C1587 1.385 . S
C1586 C1588 1.478 . S
C1587 H1581 0.930 . S
C1587 C1583 1.400 . S
C1587 C1586 1.385 . S
C1588 C1586 1.478 . S
C1588 C1590 1.381 1_655 S
C1588 C1594 1.383 . S
C1589 C1585 1.503 1_455 S
C1589 H1595 0.925 1_556 S
C1589 H1596 0.962 . S
C1589 H1597 0.986 . S
C1590 C1588 1.381 1_455 S
C1590 C1591 1.394 . S
C1590 H1598 0.930 . S
C1591 C1590 1.394 . S
C1591 C1592 1.383 1_455 S
C1591 H1599 0.929 . S
C1592 C1591 1.383 1_655 S
C1592 C1593 1.377 . S
C1593 H1577 0.930 . S
C1593 C1592 1.377 . S
C1593 C1594 1.379 . S
C1594 H1578 0.931 . S
C1594 C1588 1.383 . S
C1594 C1593 1.379 . S
H1595 C1589 0.925 1_554 S
H1596 C1589 0.962 . S
H1597 C1589 0.986 . S
H1598 C1590 0.930 . S
H1599 C1591 0.929 . S
H1600 C1608 0.929 . S
H1601 C1610 0.930 . S
H1602 C1612 0.930 . S
H1603 C1615 0.929 . S
H1604 C1618 0.930 . S
H1605 C1620 0.960 . S
H1606 C1620 0.960 . S
H1607 C1620 0.960 . S
C1608 H1600 0.929 . S
C1608 C1609 1.377 . S
C1608 C1610 1.384 . S
C1609 C1608 1.377 . S
C1609 C1615 1.390 . S
C1610 H1601 0.930 . S
C1610 C1608 1.384 . S
C1610 C1611 1.372 . S
C1611 C1610 1.372 . S
C1611 C1612 1.400 . S
C1611 C1616 1.490 . S
C1612 H1602 0.930 . S
C1612 C1611 1.400 . S
C1612 C1615 1.386 . S
H1613 C1629 0.930 . S
H1614 C1630 0.931 . S
C1615 H1603 0.929 . S
C1615 C1609 1.390 . S
C1615 C1612 1.386 . S
C1616 C1611 1.490 . S
C1616 C1618 1.395 . S
C1616 C1619 1.403 . S
H1617 C1623 0.930 . S
C1618 H1604 0.930 . S
C1618 C1616 1.395 . S
C1618 C1621 1.403 . S
C1619 C1616 1.403 . S
C1619 C1620 1.524 . S
C1619 C1623 1.400 . S
C1620 H1605 0.960 . S
C1620 H1606 0.960 . S
C1620 H1607 0.960 . S
C1620 C1619 1.524 . S
C1621 C1618 1.403 . S
C1621 C1622 1.392 . S
C1621 C1625 1.495 . S
C1622 C1621 1.392 . S
C1622 C1623 1.385 . S
C1622 C1624 1.478 . S
C1623 H1617 0.930 . S
C1623 C1619 1.400 . S
C1623 C1622 1.385 . S
C1624 C1622 1.478 . S
C1624 C1626 1.381 . S
C1624 C1630 1.383 . S
C1625 C1621 1.495 . S
C1625 H1631 0.959 . S
C1625 H1632 0.961 . S
C1625 H1633 0.960 . S
C1626 C1624 1.381 . S
C1626 C1627 1.394 . S
C1626 H1634 0.930 . S
C1627 C1626 1.394 . S
C1627 C1628 1.383 . S
C1627 H1635 0.929 . S
C1628 C1627 1.383 . S
C1628 C1629 1.377 . S
C1629 H1613 0.930 . S
C1629 C1628 1.377 . S
C1629 C1630 1.379 . S
C1630 H1614 0.931 . S
C1630 C1624 1.383 . S
C1630 C1629 1.379 . S
H1631 C1625 0.959 . S
H1632 C1625 0.961 . S
H1633 C1625 0.960 . S
H1634 C1626 0.930 . S
H1635 C1627 0.929 . S
H1636 C1644 0.929 . S
H1637 C1646 0.930 . S
H1638 C1648 0.930 . S
H1639 C1651 0.959 . S
H1640 C1654 0.930 . S
H1641 C1656 0.960 . S
H1642 C1656 0.960 . S
H1643 C1656 0.960 . S
C1644 H1636 0.929 . S
C1644 C1645 1.377 . S
C1644 C1646 1.384 . S
C1645 C1644 1.377 . S
C1645 C1651 1.334 1_554 S
C1646 H1637 0.930 . S
C1646 C1644 1.384 . S
C1646 C1647 1.372 1_554 S
C1647 C1646 1.372 1_556 S
C1647 C1648 1.400 . S
C1647 C1652 1.490 . S
C1648 H1638 0.930 . S
C1648 C1647 1.400 . S
C1648 C1651 1.414 . S
H1649 C1665 0.930 . S
H1650 C1666 0.931 . S
C1651 H1639 0.959 . S
C1651 C1645 1.334 1_556 S
C1651 C1648 1.414 . S
C1652 C1647 1.490 . S
C1652 C1654 1.395 . S
C1652 C1655 1.403 . S
H1653 C1659 0.930 1_655 S
C1654 H1640 0.930 . S
C1654 C1652 1.395 . S
C1654 C1657 1.403 . S
C1655 C1652 1.403 . S
C1655 C1656 1.524 1_455 S
C1655 C1659 1.400 . S
C1656 H1641 0.960 . S
C1656 H1642 0.960 . S
C1656 H1643 0.960 . S
C1656 C1655 1.524 1_655 S
C1657 C1654 1.403 . S
C1657 C1658 1.392 . S
C1657 C1661 1.495 . S
C1658 C1657 1.392 . S
C1658 C1659 1.385 . S
C1658 C1660 1.478 . S
C1659 H1653 0.930 1_455 S
C1659 C1655 1.400 . S
C1659 C1658 1.385 . S
C1660 C1658 1.478 . S
C1660 C1662 1.381 . S
C1660 C1666 1.383 . S
C1661 C1657 1.495 . S
C1661 H1667 0.959 . S
C1661 H1668 0.961 . S
C1661 H1669 0.960 . S
C1662 C1660 1.381 . S
C1662 C1663 1.394 . S
C1662 H1670 0.930 . S
C1663 C1662 1.394 . S
C1663 C1664 1.383 . S
C1663 H1671 0.929 . S
C1664 C1663 1.383 . S
C1664 C1665 1.377 . S
C1665 H1649 0.930 . S
C1665 C1664 1.377 . S
C1665 C1666 1.379 . S
C1666 H1650 0.931 . S
C1666 C1660 1.383 . S
C1666 C1665 1.379 . S
H1667 C1661 0.959 . S
H1668 C1661 0.961 . S
H1669 C1661 0.960 . S
H1670 C1662 0.930 . S
H1671 C1663 0.929 . S
H1672 C1680 0.929 . S
H1673 C1682 0.930 . S
H1674 C1684 0.930 . S
H1675 C1687 0.929 . S
H1676 C1690 0.930 . S
H1677 C1692 0.960 . S
H1678 C1692 0.960 . S
H1679 C1692 0.960 . S
C1680 H1672 0.929 . S
C1680 C1681 1.377 . S
C1680 C1682 1.384 . S
C1681 C1680 1.377 . S
C1681 C1687 1.390 . S
C1682 H1673 0.930 . S
C1682 C1680 1.384 . S
C1682 C1683 1.372 . S
C1683 C1682 1.372 . S
C1683 C1684 1.400 . S
C1683 C1688 1.490 . S
C1684 H1674 0.930 . S
C1684 C1683 1.400 . S
C1684 C1687 1.386 . S
H1685 C1701 0.930 . S
H1686 C1702 0.931 . S
C1687 H1675 0.929 . S
C1687 C1681 1.390 . S
C1687 C1684 1.386 . S
C1688 C1683 1.490 . S
C1688 C1690 1.395 . S
C1688 C1691 1.403 . S
H1689 C1695 0.930 . S
C1690 H1676 0.930 . S
C1690 C1688 1.395 . S
C1690 C1693 1.403 . S
C1691 C1688 1.403 . S
C1691 C1692 1.524 . S
C1691 C1695 1.400 . S
C1692 H1677 0.960 . S
C1692 H1678 0.960 . S
C1692 H1679 0.960 . S
C1692 C1691 1.524 . S
C1693 C1690 1.403 . S
C1693 C1694 1.392 . S
C1693 C1697 1.495 . S
C1694 C1693 1.392 . S
C1694 C1695 1.385 . S
C1694 C1696 1.478 . S
C1695 H1689 0.930 . S
C1695 C1691 1.400 . S
C1695 C1694 1.385 . S
C1696 C1694 1.478 . S
C1696 C1698 1.381 . S
C1696 C1702 1.383 . S
C1697 C1693 1.495 . S
C1697 H1703 0.959 . S
C1697 H1704 0.961 . S
C1697 H1705 0.960 . S
C1698 C1696 1.381 . S
C1698 C1699 1.394 . S
C1698 H1706 0.930 . S
C1699 C1698 1.394 . S
C1699 C1700 1.383 . S
C1699 H1707 0.929 . S
C1700 C1699 1.383 . S
C1700 C1701 1.377 . S
C1701 H1685 0.930 . S
C1701 C1700 1.377 . S
C1701 C1702 1.379 . S
C1702 H1686 0.931 . S
C1702 C1696 1.383 . S
C1702 C1701 1.379 . S
H1703 C1697 0.959 . S
H1704 C1697 0.961 . S
H1705 C1697 0.960 . S
H1706 C1698 0.930 . S
H1707 C1699 0.929 . S
H1708 C1716 0.929 . S
H1709 C1718 0.930 . S
H1710 C1720 0.930 . S
H1711 C1723 0.929 . S
H1712 C1726 0.930 . S
H1713 C1728 0.960 . S
H1714 C1728 0.960 . S
H1715 C1728 0.960 . S
C1716 H1708 0.929 . S
C1716 C1717 1.377 . S
C1716 C1718 1.384 1_556 S
C1717 C1716 1.377 . S
C1717 C1723 1.389 . S
C1718 H1709 0.930 . S
C1718 C1716 1.384 1_554 S
C1718 C1719 1.372 . S
C1719 C1718 1.372 . S
C1719 C1720 1.400 . S
C1719 C1724 1.490 . S
C1720 H1710 0.930 . S
C1720 C1719 1.400 . S
C1720 C1723 1.387 1_554 S
H1721 C1737 0.930 . S
H1722 C1738 0.931 . S
C1723 H1711 0.929 . S
C1723 C1717 1.389 . S
C1723 C1720 1.387 1_556 S
C1724 C1719 1.490 . S
C1724 C1726 1.395 . S
C1724 C1727 1.403 . S
H1725 C1731 0.930 . S
C1726 H1712 0.930 . S
C1726 C1724 1.395 . S
C1726 C1729 1.403 . S
C1727 C1724 1.403 . S
C1727 C1728 1.524 . S
C1727 C1731 1.400 . S
C1728 H1713 0.960 . S
C1728 H1714 0.960 . S
C1728 H1715 0.960 . S
C1728 C1727 1.524 . S
C1729 C1726 1.403 . S
C1729 C1730 1.392 . S
C1729 C1733 1.495 . S
C1730 C1729 1.392 . S
C1730 C1731 1.385 . S
C1730 C1732 1.478 . S
C1731 H1725 0.930 . S
C1731 C1727 1.400 . S
C1731 C1730 1.385 . S
C1732 C1730 1.478 . S
C1732 C1734 1.381 . S
C1732 C1738 1.383 . S
C1733 C1729 1.495 . S
C1733 H1739 0.959 . S
C1733 H1740 0.961 . S
C1733 H1741 0.960 . S
C1734 C1732 1.381 . S
C1734 C1735 1.394 . S
C1734 H1742 0.930 . S
C1735 C1734 1.394 . S
C1735 C1736 1.383 . S
C1735 H1743 0.929 . S
C1736 C1735 1.383 . S
C1736 C1737 1.377 . S
C1737 H1721 0.930 . S
C1737 C1736 1.377 . S
C1737 C1738 1.379 . S
C1738 H1722 0.931 . S
C1738 C1732 1.383 . S
C1738 C1737 1.379 . S
H1739 C1733 0.959 . S
H1740 C1733 0.961 . S
H1741 C1733 0.960 . S
H1742 C1734 0.930 . S
H1743 C1735 0.929 . S
H1744 C1752 0.929 . S
H1745 C1754 0.930 . S
H1746 C1756 0.930 . S
H1747 C1759 0.929 . S
H1748 C1762 0.930 . S
H1749 C1764 0.960 . S
H1750 C1764 0.960 . S
H1751 C1764 0.960 . S
C1752 H1744 0.929 . S
C1752 C1753 1.377 . S
C1752 C1754 1.384 . S
C1753 C1752 1.377 . S
C1753 C1759 1.390 . S
C1754 H1745 0.930 . S
C1754 C1752 1.384 . S
C1754 C1755 1.372 . S
C1755 C1754 1.372 . S
C1755 C1756 1.400 . S
C1755 C1760 1.490 . S
C1756 H1746 0.930 . S
C1756 C1755 1.400 . S
C1756 C1759 1.386 . S
H1757 C1773 0.930 . S
H1758 C1774 0.931 . S
C1759 H1747 0.929 . S
C1759 C1753 1.390 . S
C1759 C1756 1.386 . S
C1760 C1755 1.490 . S
C1760 C1762 1.395 . S
C1760 C1763 1.403 . S
H1761 C1767 0.930 . S
C1762 H1748 0.930 . S
C1762 C1760 1.395 . S
C1762 C1765 1.403 . S
C1763 C1760 1.403 . S
C1763 C1764 1.524 . S
C1763 C1767 1.400 . S
C1764 H1749 0.960 . S
C1764 H1750 0.960 . S
C1764 H1751 0.960 . S
C1764 C1763 1.524 . S
C1765 C1762 1.403 . S
C1765 C1766 1.392 . S
C1765 C1769 1.495 . S
C1766 C1765 1.392 . S
C1766 C1767 1.385 . S
C1766 C1768 1.478 . S
C1767 H1761 0.930 . S
C1767 C1763 1.400 . S
C1767 C1766 1.385 . S
C1768 C1766 1.478 . S
C1768 C1770 1.381 . S
C1768 C1774 1.383 . S
C1769 C1765 1.495 . S
C1769 H1775 0.959 . S
C1769 H1776 0.961 . S
C1769 H1777 0.960 . S
C1770 C1768 1.381 . S
C1770 C1771 1.394 . S
C1770 H1778 0.930 . S
C1771 C1770 1.394 . S
C1771 C1772 1.383 . S
C1771 H1779 0.929 . S
C1772 C1771 1.383 . S
C1772 C1773 1.377 . S
C1773 H1757 0.930 . S
C1773 C1772 1.377 . S
C1773 C1774 1.379 . S
C1774 H1758 0.931 . S
C1774 C1768 1.383 . S
C1774 C1773 1.379 . S
H1775 C1769 0.959 . S
H1776 C1769 0.961 . S
H1777 C1769 0.960 . S
H1778 C1770 0.930 . S
H1779 C1771 0.929 . S
H1780 C1788 0.929 . S
H1781 C1790 0.930 . S
H1782 C1792 0.930 . S
H1783 C1795 0.929 . S
H1784 C1798 0.930 . S
H1785 C1800 0.960 . S
H1786 C1800 0.960 . S
H1787 C1800 0.960 . S
C1788 H1780 0.929 . S
C1788 C1789 1.377 . S
C1788 C1790 1.384 . S
C1789 C1788 1.377 . S
C1789 C1795 1.390 . S
C1790 H1781 0.930 . S
C1790 C1788 1.384 . S
C1790 C1791 1.372 . S
C1791 C1790 1.372 . S
C1791 C1792 1.400 . S
C1791 C1796 1.490 . S
C1792 H1782 0.930 . S
C1792 C1791 1.400 . S
C1792 C1795 1.386 . S
H1793 C1809 0.930 . S
H1794 C1810 0.931 . S
C1795 H1783 0.929 . S
C1795 C1789 1.390 . S
C1795 C1792 1.386 . S
C1796 C1791 1.490 . S
C1796 C1798 1.395 . S
C1796 C1799 1.403 . S
H1797 C1803 0.930 . S
C1798 H1784 0.930 . S
C1798 C1796 1.395 . S
C1798 C1801 1.403 . S
C1799 C1796 1.403 . S
C1799 C1800 1.524 . S
C1799 C1803 1.400 . S
C1800 H1785 0.960 . S
C1800 H1786 0.960 . S
C1800 H1787 0.960 . S
C1800 C1799 1.524 . S
C1801 C1798 1.403 . S
C1801 C1802 1.392 . S
C1801 C1805 1.495 . S
C1802 C1801 1.392 . S
C1802 C1803 1.385 . S
C1802 C1804 1.478 . S
C1803 H1797 0.930 . S
C1803 C1799 1.400 . S
C1803 C1802 1.385 . S
C1804 C1802 1.478 . S
C1804 C1806 1.381 . S
C1804 C1810 1.383 . S
C1805 C1801 1.495 . S
C1805 H1811 0.959 . S
C1805 H1812 0.961 . S
C1805 H1813 0.960 . S
C1806 C1804 1.381 . S
C1806 C1807 1.394 . S
C1806 H1814 0.930 . S
C1807 C1806 1.394 . S
C1807 C1808 1.383 . S
C1807 H1815 0.929 . S
C1808 C1807 1.383 . S
C1808 C1809 1.377 . S
C1809 H1793 0.930 . S
C1809 C1808 1.377 . S
C1809 C1810 1.379 . S
C1810 H1794 0.931 . S
C1810 C1804 1.383 . S
C1810 C1809 1.379 . S
H1811 C1805 0.959 . S
H1812 C1805 0.961 . S
H1813 C1805 0.960 . S
H1814 C1806 0.930 . S
H1815 C1807 0.929 . S
H1816 C1824 0.929 . S
H1817 C1826 0.930 . S
H1818 C1828 0.930 . S
H1819 C1831 0.929 . S
H1820 C1834 0.930 . S
H1821 C1836 0.960 . S
H1822 C1836 0.960 . S
H1823 C1836 0.960 . S
C1824 H1816 0.929 . S
C1824 C1825 1.377 . S
C1824 C1826 1.384 . S
C1825 C1824 1.377 . S
C1825 C1831 1.390 . S
C1826 H1817 0.930 . S
C1826 C1824 1.384 . S
C1826 C1827 1.372 . S
C1827 C1826 1.372 . S
C1827 C1828 1.400 . S
C1827 C1832 1.490 . S
C1828 H1818 0.930 . S
C1828 C1827 1.400 . S
C1828 C1831 1.386 . S
H1829 C1845 0.930 . S
H1830 C1846 0.931 . S
C1831 H1819 0.929 . S
C1831 C1825 1.390 . S
C1831 C1828 1.386 . S
C1832 C1827 1.490 . S
C1832 C1834 1.395 . S
C1832 C1835 1.403 . S
H1833 C1839 0.930 . S
C1834 H1820 0.930 . S
C1834 C1832 1.395 . S
C1834 C1837 1.403 . S
C1835 C1832 1.403 . S
C1835 C1836 1.524 . S
C1835 C1839 1.400 . S
C1836 H1821 0.960 . S
C1836 H1822 0.960 . S
C1836 H1823 0.960 . S
C1836 C1835 1.524 . S
C1837 C1834 1.403 . S
C1837 C1838 1.392 . S
C1837 C1841 1.495 . S
C1838 C1837 1.392 . S
C1838 C1839 1.385 . S
C1838 C1840 1.478 . S
C1839 H1833 0.930 . S
C1839 C1835 1.400 . S
C1839 C1838 1.385 . S
C1840 C1838 1.478 . S
C1840 C1842 1.381 . S
C1840 C1846 1.383 . S
C1841 C1837 1.495 . S
C1841 H1847 0.959 . S
C1841 H1848 0.961 . S
C1841 H1849 0.960 . S
C1842 C1840 1.381 . S
C1842 C1843 1.394 . S
C1842 H1850 0.930 . S
C1843 C1842 1.394 . S
C1843 C1844 1.383 . S
C1843 H1851 0.929 . S
C1844 C1843 1.383 . S
C1844 C1845 1.377 . S
C1845 H1829 0.930 . S
C1845 C1844 1.377 . S
C1845 C1846 1.379 . S
C1846 H1830 0.931 . S
C1846 C1840 1.383 . S
C1846 C1845 1.379 . S
H1847 C1841 0.959 . S
H1848 C1841 0.961 . S
H1849 C1841 0.960 . S
H1850 C1842 0.930 . S
H1851 C1843 0.929 . S
H1852 C1860 0.929 . S
H1853 C1862 0.930 . S
H1854 C1864 0.930 . S
H1855 C1867 0.929 . S
H1856 C1870 0.930 . S
H1857 C1872 0.960 . S
H1858 C1872 0.960 . S
H1859 C1872 0.960 . S
C1860 H1852 0.929 . S
C1860 C1861 1.377 . S
C1860 C1862 1.384 . S
C1861 C1860 1.377 . S
C1861 C1867 1.390 . S
C1862 H1853 0.930 . S
C1862 C1860 1.384 . S
C1862 C1863 1.372 . S
C1863 C1862 1.372 . S
C1863 C1864 1.400 . S
C1863 C1868 1.490 . S
C1864 H1854 0.930 . S
C1864 C1863 1.400 . S
C1864 C1867 1.386 . S
H1865 C1881 0.930 . S
H1866 C1882 0.931 . S
C1867 H1855 0.929 . S
C1867 C1861 1.390 . S
C1867 C1864 1.386 . S
C1868 C1863 1.490 . S
C1868 C1870 1.395 . S
C1868 C1871 1.403 . S
H1869 C1875 0.930 . S
C1870 H1856 0.930 . S
C1870 C1868 1.395 . S
C1870 C1873 1.403 . S
C1871 C1868 1.403 . S
C1871 C1872 1.524 . S
C1871 C1875 1.400 . S
C1872 H1857 0.960 . S
C1872 H1858 0.960 . S
C1872 H1859 0.960 . S
C1872 C1871 1.524 . S
C1873 C1870 1.403 . S
C1873 C1874 1.392 . S
C1873 C1877 1.495 . S
C1874 C1873 1.392 . S
C1874 C1875 1.385 . S
C1874 C1876 1.478 . S
C1875 H1869 0.930 . S
C1875 C1871 1.400 . S
C1875 C1874 1.385 . S
C1876 C1874 1.478 . S
C1876 C1878 1.381 . S
C1876 C1882 1.383 . S
C1877 C1873 1.495 . S
C1877 H1883 0.959 . S
C1877 H1884 0.961 . S
C1877 H1885 0.960 . S
C1878 C1876 1.381 . S
C1878 C1879 1.394 . S
C1878 H1886 0.930 . S
C1879 C1878 1.394 . S
C1879 C1880 1.383 . S
C1879 H1887 0.929 . S
C1880 C1879 1.383 . S
C1880 C1881 1.377 . S
C1881 H1865 0.930 . S
C1881 C1880 1.377 . S
C1881 C1882 1.379 . S
C1882 H1866 0.931 . S
C1882 C1876 1.383 . S
C1882 C1881 1.379 . S
H1883 C1877 0.959 . S
H1884 C1877 0.961 . S
H1885 C1877 0.960 . S
H1886 C1878 0.930 . S
H1887 C1879 0.929 . S
H1888 C1896 0.929 . S
H1889 C1898 0.930 . S
H1890 C1900 0.930 . S
H1891 C1903 0.929 . S
H1892 C1906 0.930 . S
H1893 C1908 0.960 . S
H1894 C1908 0.960 . S
H1895 C1908 0.960 . S
C1896 H1888 0.929 . S
C1896 C1897 1.377 . S
C1896 C1898 1.384 . S
C1897 C1896 1.377 . S
C1897 C1903 1.390 . S
C1898 H1889 0.930 . S
C1898 C1896 1.384 . S
C1898 C1899 1.372 . S
C1899 C1898 1.372 . S
C1899 C1900 1.400 . S
C1899 C1904 1.490 . S
C1900 H1890 0.930 . S
C1900 C1899 1.400 . S
C1900 C1903 1.386 . S
H1901 C1917 0.930 . S
H1902 C1918 0.931 . S
C1903 H1891 0.929 . S
C1903 C1897 1.390 . S
C1903 C1900 1.386 . S
C1904 C1899 1.490 . S
C1904 C1906 1.395 . S
C1904 C1907 1.403 . S
H1905 C1911 0.930 . S
C1906 H1892 0.930 . S
C1906 C1904 1.395 . S
C1906 C1909 1.403 . S
C1907 C1904 1.403 . S
C1907 C1908 1.524 . S
C1907 C1911 1.400 . S
C1908 H1893 0.960 . S
C1908 H1894 0.960 . S
C1908 H1895 0.960 . S
C1908 C1907 1.524 . S
C1909 C1906 1.403 . S
C1909 C1910 1.392 . S
C1909 C1913 1.495 . S
C1910 C1909 1.392 . S
C1910 C1911 1.385 . S
C1910 C1912 1.478 . S
C1911 H1905 0.930 . S
C1911 C1907 1.400 . S
C1911 C1910 1.385 . S
C1912 C1910 1.478 . S
C1912 C1914 1.381 . S
C1912 C1918 1.383 . S
C1913 C1909 1.495 . S
C1913 H1919 0.959 . S
C1913 H1920 0.961 . S
C1913 H1921 0.960 . S
C1914 C1912 1.381 . S
C1914 C1915 1.394 . S
C1914 H1922 0.930 . S
C1915 C1914 1.394 . S
C1915 C1916 1.383 . S
C1915 H1923 0.929 . S
C1916 C1915 1.383 . S
C1916 C1917 1.377 . S
C1917 H1901 0.930 . S
C1917 C1916 1.377 . S
C1917 C1918 1.379 . S
C1918 H1902 0.931 . S
C1918 C1912 1.383 . S
C1918 C1917 1.379 . S
H1919 C1913 0.959 . S
H1920 C1913 0.961 . S
H1921 C1913 0.960 . S
H1922 C1914 0.930 . S
H1923 C1915 0.929 . S
H1924 C1932 0.929 . S
H1925 C1934 0.930 . S
H1926 C1936 0.930 . S
H1927 C1939 0.929 . S
H1928 C1942 0.930 . S
H1929 C1944 0.960 . S
H1930 C1944 0.960 . S
H1931 C1944 0.960 . S
C1932 H1924 0.929 . S
C1932 C1933 1.377 . S
C1932 C1934 1.384 . S
C1933 C1932 1.377 . S
C1933 C1939 1.390 . S
C1934 H1925 0.930 . S
C1934 C1932 1.384 . S
C1934 C1935 1.372 . S
C1935 C1934 1.372 . S
C1935 C1936 1.400 . S
C1935 C1940 1.490 . S
C1936 H1926 0.930 . S
C1936 C1935 1.400 . S
C1936 C1939 1.386 . S
H1937 C1953 0.930 . S
H1938 C1954 0.931 . S
C1939 H1927 0.929 . S
C1939 C1933 1.390 . S
C1939 C1936 1.386 . S
C1940 C1935 1.490 . S
C1940 C1942 1.395 . S
C1940 C1943 1.403 . S
H1941 C1947 0.930 . S
C1942 H1928 0.930 . S
C1942 C1940 1.395 . S
C1942 C1945 1.403 . S
C1943 C1940 1.403 . S
C1943 C1944 1.524 . S
C1943 C1947 1.400 . S
C1944 H1929 0.960 . S
C1944 H1930 0.960 . S
C1944 H1931 0.960 . S
C1944 C1943 1.524 . S
C1945 C1942 1.403 . S
C1945 C1946 1.392 . S
C1945 C1949 1.495 . S
C1946 C1945 1.392 . S
C1946 C1947 1.385 . S
C1946 C1948 1.478 . S
C1947 H1941 0.930 . S
C1947 C1943 1.400 . S
C1947 C1946 1.385 . S
C1948 C1946 1.478 . S
C1948 C1950 1.381 . S
C1948 C1954 1.383 . S
C1949 C1945 1.495 . S
C1949 H1955 0.959 . S
C1949 H1956 0.961 . S
C1949 H1957 0.960 . S
C1950 C1948 1.381 . S
C1950 C1951 1.394 . S
C1950 H1958 0.930 . S
C1951 C1950 1.394 . S
C1951 C1952 1.383 . S
C1951 H1959 0.929 . S
C1952 C1951 1.383 . S
C1952 C1953 1.377 . S
C1953 H1937 0.930 . S
C1953 C1952 1.377 . S
C1953 C1954 1.379 . S
C1954 H1938 0.931 . S
C1954 C1948 1.383 . S
C1954 C1953 1.379 . S
H1955 C1949 0.959 . S
H1956 C1949 0.961 . S
H1957 C1949 0.960 . S
H1958 C1950 0.930 . S
H1959 C1951 0.929 . S
H1960 C1968 0.929 . S
H1961 C1970 0.930 . S
H1962 C1972 0.928 1_554 S
H1963 C1975 0.929 . S
H1964 C1978 0.930 . S
H1965 C1980 0.960 . S
H1966 C1980 0.960 . S
H1967 C1980 0.960 . S
C1968 H1960 0.929 . S
C1968 C1969 1.377 . S
C1968 C1970 1.384 . S
C1969 C1968 1.377 . S
C1969 C1975 1.390 . S
C1970 H1961 0.930 . S
C1970 C1968 1.384 . S
C1970 C1971 1.372 . S
C1971 C1970 1.372 . S
C1971 C1972 1.400 . S
C1971 C1976 1.490 . S
C1972 H1962 0.928 1_556 S
C1972 C1971 1.400 . S
C1972 C1975 1.386 . S
H1973 C1989 0.930 . S
H1974 C1990 0.931 . S
C1975 H1963 0.929 . S
C1975 C1969 1.390 . S
C1975 C1972 1.386 . S
C1976 C1971 1.490 . S
C1976 C1978 1.395 1_556 S
C1976 C1979 1.403 . S
H1977 C1983 0.930 . S
C1978 H1964 0.930 . S
C1978 C1976 1.395 1_554 S
C1978 C1981 1.403 . S
C1979 C1976 1.403 . S
C1979 C1980 1.524 . S
C1979 C1983 1.400 . S
C1980 H1965 0.960 . S
C1980 H1966 0.960 . S
C1980 H1967 0.960 . S
C1980 C1979 1.524 . S
C1981 C1978 1.403 . S
C1981 C1982 1.392 . S
C1981 C1985 1.495 . S
C1982 C1981 1.392 . S
C1982 C1983 1.385 1_554 S
C1982 C1984 1.478 . S
C1983 H1977 0.930 . S
C1983 C1979 1.400 . S
C1983 C1982 1.385 1_556 S
C1984 C1982 1.478 . S
C1984 C1986 1.381 . S
C1984 C1990 1.383 . S
C1985 C1981 1.495 . S
C1985 H1991 0.959 . S
C1985 H1992 0.961 . S
C1985 H1993 0.960 . S
C1986 C1984 1.381 . S
C1986 C1987 1.394 . S
C1986 H1994 0.930 . S
C1987 C1986 1.394 . S
C1987 C1988 1.383 . S
C1987 H1995 0.929 . S
C1988 C1987 1.383 . S
C1988 C1989 1.377 . S
C1989 H1973 0.930 . S
C1989 C1988 1.377 . S
C1989 C1990 1.379 . S
C1990 H1974 0.931 . S
C1990 C1984 1.383 . S
C1990 C1989 1.379 . S
H1991 C1985 0.959 . S
H1992 C1985 0.961 . S
H1993 C1985 0.960 . S
H1994 C1986 0.930 . S
H1995 C1987 0.929 . S
H1996 C2004 0.929 . S
H1997 C2006 0.930 . S
H1998 C2008 0.930 . S
H1999 C2011 0.929 . S
H2000 C2014 0.930 . S
H2001 C2016 0.960 . S
H2002 C2016 0.960 . S
H2003 C2016 0.960 . S
C2004 H1996 0.929 . S
C2004 C2005 1.377 . S
C2004 C2006 1.384 . S
C2005 C2004 1.377 . S
C2005 C2011 1.390 . S
C2006 H1997 0.930 . S
C2006 C2004 1.384 . S
C2006 C2007 1.372 . S
C2007 C2006 1.372 . S
C2007 C2008 1.400 . S
C2007 C2012 1.490 . S
C2008 H1998 0.930 . S
C2008 C2007 1.400 . S
C2008 C2011 1.386 . S
H2009 C2025 0.930 . S
H2010 C2026 0.931 . S
C2011 H1999 0.929 . S
C2011 C2005 1.390 . S
C2011 C2008 1.386 . S
C2012 C2007 1.490 . S
C2012 C2014 1.395 . S
C2012 C2015 1.403 . S
H2013 C2019 0.930 . S
C2014 H2000 0.930 . S
C2014 C2012 1.395 . S
C2014 C2017 1.403 . S
C2015 C2012 1.403 . S
C2015 C2016 1.524 . S
C2015 C2019 1.400 . S
C2016 H2001 0.960 . S
C2016 H2002 0.960 . S
C2016 H2003 0.960 . S
C2016 C2015 1.524 . S
C2017 C2014 1.403 . S
C2017 C2018 1.392 . S
C2017 C2021 1.495 . S
C2018 C2017 1.392 . S
C2018 C2019 1.385 . S
C2018 C2020 1.478 . S
C2019 H2013 0.930 . S
C2019 C2015 1.400 . S
C2019 C2018 1.385 . S
C2020 C2018 1.478 . S
C2020 C2022 1.381 . S
C2020 C2026 1.383 . S
C2021 C2017 1.495 . S
C2021 H2027 0.959 . S
C2021 H2028 0.961 . S
C2021 H2029 0.960 . S
C2022 C2020 1.381 . S
C2022 C2023 1.394 . S
C2022 H2030 0.930 . S
C2023 C2022 1.394 . S
C2023 C2024 1.383 . S
C2023 H2031 0.929 . S
C2024 C2023 1.383 . S
C2024 C2025 1.377 . S
C2025 H2009 0.930 . S
C2025 C2024 1.377 . S
C2025 C2026 1.379 . S
C2026 H2010 0.931 . S
C2026 C2020 1.383 . S
C2026 C2025 1.379 . S
H2027 C2021 0.959 . S
H2028 C2021 0.961 . S
H2029 C2021 0.960 . S
H2030 C2022 0.930 . S
H2031 C2023 0.929 . S
H2032 C2040 0.929 . S
H2033 C2042 0.930 . S
H2034 C2044 0.930 . S
H2035 C2047 0.929 . S
H2036 C2050 0.930 . S
H2037 C2052 0.960 . S
H2038 C2052 0.960 . S
H2039 C2052 0.960 . S
C2040 H2032 0.929 . S
C2040 C2041 1.377 . S
C2040 C2042 1.384 . S
C2041 C2040 1.377 . S
C2041 C2047 1.390 . S
C2042 H2033 0.930 . S
C2042 C2040 1.384 . S
C2042 C2043 1.372 . S
C2043 C2042 1.372 . S
C2043 C2044 1.400 . S
C2043 C2048 1.490 . S
C2044 H2034 0.930 . S
C2044 C2043 1.400 . S
C2044 C2047 1.386 . S
H2045 C2061 0.930 . S
H2046 C2062 0.931 . S
C2047 H2035 0.929 . S
C2047 C2041 1.390 . S
C2047 C2044 1.386 . S
C2048 C2043 1.490 . S
C2048 C2050 1.395 . S
C2048 C2051 1.403 . S
H2049 C2055 0.930 . S
C2050 H2036 0.930 . S
C2050 C2048 1.395 . S
C2050 C2053 1.403 . S
C2051 C2048 1.403 . S
C2051 C2052 1.524 . S
C2051 C2055 1.400 . S
C2052 H2037 0.960 . S
C2052 H2038 0.960 . S
C2052 H2039 0.960 . S
C2052 C2051 1.524 . S
C2053 C2050 1.403 . S
C2053 C2054 1.392 . S
C2053 C2057 1.495 . S
C2054 C2053 1.392 . S
C2054 C2055 1.385 . S
C2054 C2056 1.478 . S
C2055 H2049 0.930 . S
C2055 C2051 1.400 . S
C2055 C2054 1.385 . S
C2056 C2054 1.478 . S
C2056 C2058 1.381 . S
C2056 C2062 1.383 . S
C2057 C2053 1.495 . S
C2057 H2063 0.959 . S
C2057 H2064 0.961 . S
C2057 H2065 0.960 . S
C2058 C2056 1.381 . S
C2058 C2059 1.394 . S
C2058 H2066 0.930 . S
C2059 C2058 1.394 . S
C2059 C2060 1.383 . S
C2059 H2067 0.929 . S
C2060 C2059 1.383 . S
C2060 C2061 1.377 . S
C2061 H2045 0.930 . S
C2061 C2060 1.377 . S
C2061 C2062 1.379 . S
C2062 H2046 0.931 . S
C2062 C2056 1.383 . S
C2062 C2061 1.379 . S
H2063 C2057 0.959 . S
H2064 C2057 0.961 . S
H2065 C2057 0.960 . S
H2066 C2058 0.930 . S
H2067 C2059 0.929 . S
H2068 C2076 0.929 . S
H2069 C2078 0.930 . S
H2070 C2080 0.930 . S
H2071 C2083 0.929 . S
H2072 C2086 0.930 . S
H2073 C2088 0.960 . S
H2074 C2088 0.960 . S
H2075 C2088 0.960 . S
C2076 H2068 0.929 . S
C2076 C2077 1.377 . S
C2076 C2078 1.384 . S
C2077 C2076 1.377 . S
C2077 C2083 1.390 1_565 S
C2078 H2069 0.930 . S
C2078 C2076 1.384 . S
C2078 C2079 1.372 . S
C2079 C2078 1.372 . S
C2079 C2080 1.400 . S
C2079 C2084 1.490 . S
C2080 H2070 0.930 . S
C2080 C2079 1.400 . S
C2080 C2083 1.386 1_565 S
H2081 C2097 0.930 . S
H2082 C2098 0.931 . S
C2083 H2071 0.929 . S
C2083 C2077 1.390 1_545 S
C2083 C2080 1.386 1_545 S
C2084 C2079 1.490 . S
C2084 C2086 1.395 . S
C2084 C2087 1.403 . S
H2085 C2091 0.930 . S
C2086 H2072 0.930 . S
C2086 C2084 1.395 . S
C2086 C2089 1.403 . S
C2087 C2084 1.403 . S
C2087 C2088 1.524 1_565 S
C2087 C2091 1.400 . S
C2088 H2073 0.960 . S
C2088 H2074 0.960 . S
C2088 H2075 0.960 . S
C2088 C2087 1.524 1_545 S
C2089 C2086 1.403 . S
C2089 C2090 1.392 . S
C2089 C2093 1.495 . S
C2090 C2089 1.392 . S
C2090 C2091 1.385 . S
C2090 C2092 1.478 . S
C2091 H2085 0.930 . S
C2091 C2087 1.400 . S
C2091 C2090 1.385 . S
C2092 C2090 1.478 . S
C2092 C2094 1.381 . S
C2092 C2098 1.383 1_554 S
C2093 C2089 1.495 . S
C2093 H2099 0.959 . S
C2093 H2100 0.961 . S
C2093 H2101 0.960 . S
C2094 C2092 1.381 . S
C2094 C2095 1.394 . S
C2094 H2102 0.930 . S
C2095 C2094 1.394 . S
C2095 C2096 1.383 . S
C2095 H2103 0.929 . S
C2096 C2095 1.383 . S
C2096 C2097 1.377 1_554 S
C2097 H2081 0.930 . S
C2097 C2096 1.377 1_556 S
C2097 C2098 1.379 . S
C2098 H2082 0.931 . S
C2098 C2092 1.383 1_556 S
C2098 C2097 1.379 . S
H2099 C2093 0.959 . S
H2100 C2093 0.961 . S
H2101 C2093 0.960 . S
H2102 C2094 0.930 . S
H2103 C2095 0.929 . S
C404 C216 1.753 . S
C385 C73 1.797 . S
C440 C229 1.208 . S
C421 C82 1.182 1_455 S
C457 C100 2.011 . S
C476 C249 1.909 1_556 S
C512 C263 1.233 . S
C493 C56 1.215 . S
C548 C275 1.376 . S
C529 C134 1.361 . S
C584 C289 1.695 . S
C565 C165 1.686 . S
C601 C147 1.107 . S
C620 C299 1.150 . S
C656 C314 1.899 . S
C637 C125 1.917 . S
C673 C151 1.367 . S
C692 C328 1.334 . S
C728 C347 1.318 . S
C709 C121 1.364 . S
C745 C139 1.808 . S
C764 C327 1.806 . S
C800 C345 1.197 . S
C781 C164 1.193 . S
C817 C95 1.405 . S
C836 C361 1.325 . S
C853 C61 1.455 . S
C872 C355 1.450 . S
C889 C74 1.445 . S
C908 C359 1.438 . S
C925 C86 1.844 . S
C944 C356 1.818 . S
C961 C47 1.394 . S
C980 C258 1.383 . S
C997 C186 1.214 . S
C1016 C257 1.258 . S
C1052 C221 1.324 . S
C1033 C204 1.398 . S
C1088 C235 1.934 . S
C1069 C112 2.023 . S
C1105 C60 1.369 . S
C1124 C272 1.349 . S
C1160 C317 1.457 . S
C1141 C152 1.455 . S
C1196 C271 1.944 . S
C1177 C126 1.960 . S
C1232 C303 1.169 . S
C1213 C160 1.152 . S
C1268 C300 1.764 . S
C1249 C190 1.797 . S
C1285 C199 1.183 . S
C1304 C313 1.211 . S
C1321 C113 2.011 . S
C1340 C277 1.859 . S
C1376 C291 1.160 . S
C1357 C173 1.215 . S
C1393 C43 1.354 . S
C1412 C247 1.381 . S
C1448 C261 1.694 . S
C1429 C9 1.686 . S
C1484 C215 1.147 . S
C1465 C17 1.106 . S
C1520 C230 1.897 . S
C1501 C34 1.917 . S
C1537 C21 1.366 . S
C1556 C342 1.347 . S
C1573 C30 1.354 . S
C1592 C333 1.367 . S
C1609 C48 1.808 . S
C1628 C341 1.811 . S
C1645 C8 1.192 . S
C1664 C331 1.176 . S
C1700 C375 1.326 . S
C1681 C108 1.405 . S
C1736 C369 1.445 . S
C1717 C178 1.454 . S
C1772 C373 1.447 . S
C1753 C191 1.447 . S
C1789 C203 1.845 1_554 S
C1808 C370 1.811 . S
C1825 C138 1.393 . S
C1844 C286 1.378 . S
C1880 C285 1.251 . S
C1861 C69 1.214 . S
C1916 C305 1.247 . S
C1897 C87 1.399 . S
C1952 C319 1.907 . S
C1933 C99 2.022 . S
C1969 C177 1.370 . S
C1988 C244 1.344 . S
C2024 C233 1.443 . S
C2005 C22 1.451 . S
C2041 C35 1.959 . S
C2060 C243 1.929 . S
C2096 C219 1.155 . S
C2077 C4 1.152 1_565 S
