# Generated by pormake.
# Topology pyr, (3,6)-cn, num edge types: 1
# Building blocks:
#     Node 0, Type 0, BuildingBlock: VETTIZ_charged_linker_0, # of connection points: 3
#     Node 1, Type 0, BuildingBlock: VETTIZ_charged_linker_0, # of connection points: 3
#     Node 2, Type 0, BuildingBlock: VETTIZ_charged_linker_0, # of connection points: 3
#     Node 3, Type 0, BuildingBlock: VETTIZ_charged_linker_0, # of connection points: 3
#     Node 4, Type 0, BuildingBlock: VETTIZ_charged_linker_0, # of connection points: 3
#     Node 5, Type 0, BuildingBlock: VETTIZ_charged_linker_0, # of connection points: 3
#     Node 6, Type 0, BuildingBlock: VETTIZ_charged_linker_0, # of connection points: 3
#     Node 7, Type 0, BuildingBlock: VETTIZ_charged_linker_0, # of connection points: 3
#     Node 8, Type 1, BuildingBlock: JUFBIX_clean_sbu_0, # of connection points: 6
#     Node 9, Type 1, BuildingBlock: JUFBIX_clean_sbu_0, # of connection points: 6
#     Node 10, Type 1, BuildingBlock: JUFBIX_clean_sbu_0, # of connection points: 6
#     Node 11, Type 1, BuildingBlock: JUFBIX_clean_sbu_0, # of connection points: 6
#     Edge 12, Type (0, 1), BuildingBlock: OJICUG_clean_linker_0, # of connection points: 2
#     Edge 13, Type (0, 1), BuildingBlock: OJICUG_clean_linker_0, # of connection points: 2
#     Edge 14, Type (0, 1), BuildingBlock: OJICUG_clean_linker_0, # of connection points: 2
#     Edge 15, Type (0, 1), BuildingBlock: OJICUG_clean_linker_0, # of connection points: 2
#     Edge 16, Type (0, 1), BuildingBlock: OJICUG_clean_linker_0, # of connection points: 2
#     Edge 17, Type (0, 1), BuildingBlock: OJICUG_clean_linker_0, # of connection points: 2
#     Edge 18, Type (0, 1), BuildingBlock: OJICUG_clean_linker_0, # of connection points: 2
#     Edge 19, Type (0, 1), BuildingBlock: OJICUG_clean_linker_0, # of connection points: 2
#     Edge 20, Type (0, 1), BuildingBlock: OJICUG_clean_linker_0, # of connection points: 2
#     Edge 21, Type (0, 1), BuildingBlock: OJICUG_clean_linker_0, # of connection points: 2
#     Edge 22, Type (0, 1), BuildingBlock: OJICUG_clean_linker_0, # of connection points: 2
#     Edge 23, Type (0, 1), BuildingBlock: OJICUG_clean_linker_0, # of connection points: 2
#     Edge 24, Type (0, 1), BuildingBlock: OJICUG_clean_linker_0, # of connection points: 2
#     Edge 25, Type (0, 1), BuildingBlock: OJICUG_clean_linker_0, # of connection points: 2
#     Edge 26, Type (0, 1), BuildingBlock: OJICUG_clean_linker_0, # of connection points: 2
#     Edge 27, Type (0, 1), BuildingBlock: OJICUG_clean_linker_0, # of connection points: 2
#     Edge 28, Type (0, 1), BuildingBlock: OJICUG_clean_linker_0, # of connection points: 2
#     Edge 29, Type (0, 1), BuildingBlock: OJICUG_clean_linker_0, # of connection points: 2
#     Edge 30, Type (0, 1), BuildingBlock: OJICUG_clean_linker_0, # of connection points: 2
#     Edge 31, Type (0, 1), BuildingBlock: OJICUG_clean_linker_0, # of connection points: 2
#     Edge 32, Type (0, 1), BuildingBlock: OJICUG_clean_linker_0, # of connection points: 2
#     Edge 33, Type (0, 1), BuildingBlock: OJICUG_clean_linker_0, # of connection points: 2
#     Edge 34, Type (0, 1), BuildingBlock: OJICUG_clean_linker_0, # of connection points: 2
#     Edge 35, Type (0, 1), BuildingBlock: OJICUG_clean_linker_0, # of connection points: 2
# Relax obj value: 0.066
# Max RMSD: 0.101
# Mean RMSD: 0.035
data_MOF--net-pyr--node1-JUFBIX_clean_sbu_0--node2-VETTIZ_charged_linker_0--edge1-OJICUG_clean_linker_0
_symmetry_space_group_name_H-M    P1
_symmetry_Int_Tables_number       1
_symmetry_cell_setting            triclinic
loop_
_symmetry_equiv_pos_as_xyz
'x, y, z'
_cell_length_a     35.791473
_cell_length_b     33.768929
_cell_length_c     35.840912
_cell_angle_alpha  84.776879
_cell_angle_beta   90.265642
_cell_angle_gamma 91.541492
loop_
_atom_site_label
_atom_site_type_symbol
_atom_site_fract_x
_atom_site_fract_y
_atom_site_fract_z
_atom_type_partial_charge
C0 C 0.15763 0.08468 0.29414 0.0
C1 C 0.12444 0.09706 0.31107 0.0
C2 C 0.10635 0.13021 0.29306 0.0
C3 C 0.15207 0.13705 0.24256 0.0
C4 C 0.17075 0.10496 0.25972 0.0
C5 C 0.20472 0.096 0.2366 0.0
H6 H 0.31109 0.13973 0.07654 0.0
C7 C 0.17186 0.15175 0.20716 0.0
C8 C 0.203 0.1278 0.20305 0.0
H9 H 0.33053 0.0481 0.16609 0.0
H10 H 0.27619 0.06809 0.19906 0.0
H11 H 0.29209 0.20725 0.132 0.0
H12 H 0.21793 0.12986 0.0745 0.0
H13 H 0.20283 0.17934 0.06771 0.0
H14 H 0.24769 0.16723 0.05006 0.0
H15 H 0.28555 0.21376 0.08213 0.0
H16 H 0.2541 0.23478 0.11374 0.0
C17 C 0.24008 0.10151 0.26057 0.0
C18 C 0.1995 0.0536 0.22427 0.0
C19 C 0.11872 0.2713 0.12843 0.0
C20 C 0.12966 0.29403 0.09496 0.0
C21 C 0.16221 0.28217 0.07693 0.0
C22 C 0.18285 0.24907 0.09154 0.0
C23 C 0.17149 0.22704 0.12506 0.0
C24 C 0.13992 0.23864 0.14286 0.0
C25 C 0.13208 0.21277 0.17858 0.0
C26 C 0.164 0.1837 0.17957 0.0
C27 C 0.18714 0.19176 0.14799 0.0
C28 C 0.13461 0.23959 0.21151 0.0
C29 C 0.09356 0.19146 0.17426 0.0
C30 C 0.30354 0.1236 0.10304 0.0
C31 C 0.32575 0.0919 0.11822 0.0
C32 C 0.31466 0.07268 0.15342 0.0
C33 C 0.28277 0.08426 0.17264 0.0
C34 C 0.2611 0.11596 0.15717 0.0
C35 C 0.27194 0.13524 0.12292 0.0
C36 C 0.24677 0.16951 0.11128 0.0
C37 C 0.21863 0.16721 0.14338 0.0
C38 C 0.22684 0.13549 0.1706 0.0
C39 C 0.27068 0.20851 0.10934 0.0
C40 C 0.22782 0.16143 0.07378 0.0
H41 H 0.10402 0.17468 0.24785 0.0
H42 H 0.17251 0.05941 0.30688 0.0
H43 H 0.17076 0.04916 0.21319 0.0
H44 H 0.21866 0.04772 0.20154 0.0
H45 H 0.20369 0.03092 0.24827 0.0
H46 H 0.23867 0.1293 0.27489 0.0
H47 H 0.24288 0.07623 0.28243 0.0
H48 H 0.26585 0.10449 0.24369 0.0
H49 H 0.09387 0.27836 0.14328 0.0
H50 H 0.17238 0.29886 0.05165 0.0
H51 H 0.20713 0.24199 0.07623 0.0
H52 H 0.1556 0.26427 0.20565 0.0
H53 H 0.10735 0.25318 0.2164 0.0
H54 H 0.14431 0.22362 0.23792 0.0
H55 H 0.08876 0.18467 0.14478 0.0
H56 H 0.09129 0.16224 0.19078 0.0
H57 H 0.07038 0.21028 0.18209 0.0
H58 H 0.08151 0.14135 0.30522 0.0
C59 C 0.11973 0.14993 0.25946 0.0
C60 C 0.31595 0.92698 0.5456 0.0
C61 C 0.30598 0.96602 0.5516 0.0
C62 C 0.33394 0.9927 0.56293 0.0
C63 C 0.37629 0.93855 0.57377 0.0
C64 C 0.35161 0.91408 0.55642 0.0
C65 C 0.36692 0.87321 0.55433 0.0
H66 H 0.49201 0.7357 0.61704 0.0
C67 C 0.40662 0.91421 0.59027 0.0
C68 C 0.40234 0.87623 0.57775 0.0
H69 H 0.40925 0.72796 0.52959 0.0
H70 H 0.39073 0.79505 0.53686 0.0
H71 H 0.52204 0.82964 0.59446 0.0
H72 H 0.44174 0.77209 0.67086 0.0
H73 H 0.45211 0.81769 0.68905 0.0
H74 H 0.48854 0.78222 0.68569 0.0
H75 H 0.532 0.79509 0.63421 0.0
H76 H 0.52754 0.84722 0.63941 0.0
C77 C 0.37564 0.86789 0.51273 0.0
C78 C 0.33857 0.84195 0.57269 0.0
C79 C 0.46736 0.95835 0.70728 0.0
C80 C 0.48512 0.93673 0.73725 0.0
C81 C 0.50016 0.8996 0.73143 0.0
C82 C 0.49418 0.88274 0.69739 0.0
C83 C 0.47222 0.90279 0.66942 0.0
C84 C 0.46004 0.94047 0.67428 0.0
C85 C 0.43363 0.95578 0.64396 0.0
C86 C 0.43126 0.92057 0.6204 0.0
C87 C 0.45391 0.88965 0.63543 0.0
C88 C 0.45153 0.99333 0.62225 0.0
C89 C 0.39583 0.96328 0.66287 0.0
C90 C 0.47009 0.74871 0.59935 0.0
C91 C 0.45205 0.72675 0.57267 0.0
C92 C 0.42325 0.74428 0.55051 0.0
C93 C 0.41278 0.78328 0.55451 0.0
C94 C 0.43085 0.80481 0.58135 0.0
C95 C 0.45894 0.78759 0.60333 0.0
C96 C 0.47384 0.81478 0.63134 0.0
C97 C 0.45208 0.85215 0.62033 0.0
C98 C 0.42656 0.84571 0.59151 0.0
C99 C 0.51621 0.82208 0.62477 0.0
C100 C 0.46383 0.79587 0.67132 0.0
H101 H 0.38892 0.99998 0.5842 0.0
H102 H 0.2957 0.90604 0.5356 0.0
H103 H 0.32892 0.85099 0.60005 0.0
H104 H 0.35047 0.81226 0.57863 0.0
H105 H 0.31366 0.83882 0.55448 0.0
H106 H 0.37744 0.89685 0.49526 0.0
H107 H 0.3537 0.84935 0.50014 0.0
H108 H 0.40319 0.85439 0.50941 0.0
H109 H 0.45644 0.9874 0.71069 0.0
H110 H 0.5143 0.88241 0.75398 0.0
H111 H 0.50512 0.85385 0.69486 0.0
H112 H 0.48214 0.99591 0.62744 0.0
H113 H 0.43893 0.02093 0.63052 0.0
H114 H 0.44875 0.99254 0.59149 0.0
H115 H 0.38649 0.93653 0.68124 0.0
H116 H 0.37289 0.97011 0.64314 0.0
H117 H 0.39844 0.98869 0.6804 0.0
H118 H 0.32779 0.02352 0.56568 0.0
C119 C 0.36925 0.97912 0.5738 0.0
C120 C 0.64428 0.23633 0.92343 0.0
C121 C 0.61035 0.21883 0.91167 0.0
C122 C 0.59182 0.2378 0.88034 0.0
C123 C 0.64099 0.28882 0.87221 0.0
C124 C 0.65889 0.27125 0.90342 0.0
C125 C 0.69423 0.29418 0.91218 0.0
H126 H 0.81766 0.44875 0.87016 0.0
C127 C 0.66358 0.32428 0.85729 0.0
C128 C 0.69477 0.32787 0.8807 0.0
H129 H 0.81875 0.35887 0.96416 0.0
H130 H 0.76239 0.32883 0.94183 0.0
H131 H 0.72507 0.46231 0.87202 0.0
H132 H 0.78803 0.38653 0.80527 0.0
H133 H 0.75661 0.41628 0.77755 0.0
H134 H 0.79481 0.43971 0.80071 0.0
H135 H 0.75863 0.48266 0.83781 0.0
H136 H 0.71203 0.46852 0.82426 0.0
C137 C 0.68956 0.30983 0.95119 0.0
C138 C 0.72759 0.26636 0.90935 0.0
C139 C 0.61926 0.40191 0.73801 0.0
C140 C 0.63234 0.4359 0.71568 0.0
C141 C 0.66593 0.45467 0.72702 0.0
C142 C 0.68558 0.44001 0.75959 0.0
C143 C 0.67176 0.40606 0.78155 0.0
C144 C 0.63897 0.38787 0.77035 0.0
C145 C 0.62758 0.35243 0.79649 0.0
C146 C 0.6588 0.35183 0.82529 0.0
C147 C 0.68506 0.38323 0.81682 0.0
C148 C 0.58925 0.36091 0.81384 0.0
C149 C 0.62765 0.31523 0.77408 0.0
C150 C 0.8058 0.42245 0.88574 0.0
C151 C 0.82299 0.4065 0.91938 0.0
C152 C 0.80618 0.37237 0.93871 0.0
C153 C 0.77332 0.35472 0.92555 0.0
C154 C 0.75625 0.3711 0.89248 0.0
C155 C 0.77233 0.40449 0.87301 0.0
C156 C 0.7492 0.41792 0.83872 0.0
C157 C 0.71686 0.38719 0.841 0.0
C158 C 0.72148 0.35968 0.8727 0.0
C159 C 0.73554 0.46022 0.84311 0.0
C160 C 0.77333 0.41526 0.80351 0.0
H161 H 0.59127 0.28458 0.83699 0.0
H162 H 0.65951 0.22294 0.94728 0.0
H163 H 0.72399 0.24836 0.88501 0.0
H164 H 0.75454 0.28264 0.90454 0.0
H165 H 0.7299 0.24541 0.93496 0.0
H166 H 0.65977 0.31578 0.9568 0.0
H167 H 0.69923 0.2879 0.97392 0.0
H168 H 0.70434 0.33867 0.95351 0.0
H169 H 0.59422 0.38585 0.73034 0.0
H170 H 0.67689 0.48111 0.71099 0.0
H171 H 0.71075 0.45572 0.76657 0.0
H172 H 0.58581 0.39333 0.8157 0.0
H173 H 0.56572 0.35025 0.79675 0.0
H174 H 0.58619 0.3476 0.84306 0.0
H175 H 0.65106 0.31729 0.7536 0.0
H176 H 0.63215 0.28731 0.79184 0.0
H177 H 0.6012 0.31223 0.75812 0.0
H178 H 0.56521 0.22624 0.87102 0.0
C179 C 0.60691 0.27224 0.86064 0.0
C180 C 1.00411 0.75625 0.44034 0.0
C181 C 0.99598 0.77376 0.47338 0.0
C182 C 0.97362 0.75256 0.50104 0.0
C183 C 0.96386 0.69956 0.4607 0.0
C184 C 0.98829 0.71878 0.43492 0.0
C185 C 0.9939 0.69534 0.40168 0.0
H186 H 0.93979 0.53921 0.30666 0.0
C187 C 0.94957 0.66301 0.44553 0.0
C188 C 0.96806 0.65947 0.41153 0.0
H189 H 0.02266 0.63087 0.27308 0.0
H190 H 1.01493 0.65947 0.33212 0.0
H191 H 0.96731 0.52495 0.3965 0.0
H192 H 0.8846 0.58502 0.32968 0.0
H193 H 0.86514 0.58508 0.37441 0.0
H194 H 0.8734 0.53846 0.35535 0.0
H195 H 0.92771 0.50273 0.37466 0.0
H196 H 0.92485 0.51846 0.42135 0.0
C197 C 0.03538 0.68362 0.40084 0.0
C198 C 0.98076 0.72075 0.36613 0.0
C199 C 0.82716 0.59913 0.49332 0.0
C200 C 0.80461 0.56864 0.4799 0.0
C201 C 0.82045 0.54309 0.4557 0.0
C202 C 0.85672 0.55031 0.44204 0.0
C203 C 0.87716 0.58372 0.45216 0.0
C204 C 0.86339 0.60621 0.47902 0.0
C205 C 0.88994 0.63995 0.48681 0.0
C206 C 0.91981 0.63614 0.45724 0.0
C207 C 0.91167 0.60349 0.43682 0.0
C208 C 0.90548 0.63192 0.5272 0.0
C209 C 0.86901 0.67951 0.48006 0.0
C210 C 0.95706 0.56486 0.31223 0.0
C211 C 0.98202 0.58261 0.28522 0.0
C212 C 1.003 0.61677 0.29334 0.0
C213 C 0.99852 0.63324 0.32765 0.0
C214 C 0.97247 0.61565 0.35387 0.0
C215 C 0.95263 0.58178 0.34594 0.0
C216 C 0.9249 0.56779 0.37579 0.0
C217 C 0.93128 0.59886 0.40328 0.0
C218 C 0.95921 0.62679 0.39048 0.0
C219 C 0.93644 0.52614 0.393 0.0
C220 C 0.88499 0.56889 0.35816 0.0
H221 H 0.93999 0.70098 0.51637 0.0
H222 H 0.02175 0.77176 0.41896 0.0
H223 H 0.95473 0.73641 0.37189 0.0
H224 H 0.97366 0.70294 0.34268 0.0
H225 H 1.00234 0.74365 0.35657 0.0
H226 H 0.04646 0.67707 0.42974 0.0
H227 H 0.05301 0.70807 0.38673 0.0
H228 H 0.03947 0.65615 0.38701 0.0
H229 H 0.81601 0.61842 0.51283 0.0
H230 H 0.80392 0.51924 0.44504 0.0
H231 H 0.86663 0.5309 0.42248 0.0
H232 H 0.9002 0.6006 0.53885 0.0
H233 H 0.89246 0.65132 0.54664 0.0
H234 H 0.93628 0.63637 0.5282 0.0
H235 H 0.85525 0.68168 0.45208 0.0
H236 H 0.8875 0.70601 0.48078 0.0
H237 H 0.8471 0.68149 0.50161 0.0
H238 H 0.96716 0.76557 0.52671 0.0
C239 C 0.9576 0.71543 0.49488 0.0
C240 C 0.88899 0.73489 0.93059 0.0
C241 C 0.92192 0.71762 0.91791 0.0
C242 C 0.93984 0.73721 0.88603 0.0
C243 C 0.89191 0.78719 0.87858 0.0
C244 C 0.87463 0.76962 0.91056 0.0
C245 C 0.84039 0.79255 0.9198 0.0
H246 H 0.71957 0.94448 0.87485 0.0
C247 C 0.86985 0.82202 0.86337 0.0
C248 C 0.83948 0.82564 0.88747 0.0
H249 H 0.71855 0.8601 0.97307 0.0
H250 H 0.77312 0.82931 0.95078 0.0
H251 H 0.74468 0.87895 0.81312 0.0
H252 H 0.81316 0.95989 0.87346 0.0
H253 H 0.82381 0.96402 0.82509 0.0
H254 H 0.77842 0.97769 0.84007 0.0
H255 H 0.74005 0.93198 0.8056 0.0
H256 H 0.77647 0.9072 0.78313 0.0
C257 C 0.80581 0.76423 0.91924 0.0
C258 C 0.84734 0.80953 0.95798 0.0
C259 C 0.91333 0.89789 0.74075 0.0
C260 C 0.89986 0.9301 0.71701 0.0
C261 C 0.86639 0.94737 0.72806 0.0
C262 C 0.84738 0.93327 0.76159 0.0
C263 C 0.8615 0.90113 0.78493 0.0
C264 C 0.89397 0.88408 0.77392 0.0
C265 C 0.9051 0.84976 0.80102 0.0
C266 C 0.87439 0.84879 0.83037 0.0
C267 C 0.84855 0.87907 0.82135 0.0
C268 C 0.90396 0.81173 0.77974 0.0
C269 C 0.94389 0.86024 0.81757 0.0
C270 C 0.73097 0.91927 0.8915 0.0
C271 C 0.71408 0.90517 0.92624 0.0
C272 C 0.73065 0.87234 0.94673 0.0
C273 C 0.76256 0.85422 0.9336 0.0
C274 C 0.77924 0.86883 0.89939 0.0
C275 C 0.76356 0.90104 0.8789 0.0
C276 C 0.786 0.91302 0.84352 0.0
C277 C 0.81758 0.88308 0.84626 0.0
C278 C 0.81322 0.85678 0.87918 0.0
C279 C 0.76056 0.90781 0.80933 0.0
C280 C 0.80112 0.95605 0.84531 0.0
H281 H 0.94044 0.78374 0.84242 0.0
H282 H 0.87433 0.72142 0.95508 0.0
H283 H 0.87727 0.81841 0.96118 0.0
H284 H 0.83186 0.83691 0.9609 0.0
H285 H 0.84001 0.78712 0.98162 0.0
H286 H 0.80662 0.74681 0.89437 0.0
H287 H 0.80494 0.74282 0.94469 0.0
H288 H 0.77925 0.78011 0.91706 0.0
H289 H 0.93833 0.883 0.73345 0.0
H290 H 0.85504 0.97234 0.71101 0.0
H291 H 0.82234 0.94798 0.76815 0.0
H292 H 0.88076 0.81263 0.75893 0.0
H293 H 0.93042 0.80869 0.7643 0.0
H294 H 0.89836 0.78424 0.79818 0.0
H295 H 0.94742 0.89284 0.81947 0.0
H296 H 0.94771 0.84697 0.84665 0.0
H297 H 0.96692 0.85098 0.79989 0.0
H298 H 0.96581 0.72644 0.87598 0.0
C299 C 0.92514 0.77121 0.86649 0.0
C300 C 0.71594 0.08599 0.48812 0.0
C301 C 0.72639 0.0471 0.48217 0.0
C302 C 0.6987 0.01997 0.47106 0.0
C303 C 0.65583 0.07357 0.45991 0.0
C304 C 0.68015 0.0984 0.47724 0.0
C305 C 0.66445 0.13914 0.479 0.0
H306 H 0.53967 0.27569 0.4137 0.0
C307 C 0.62548 0.09755 0.44295 0.0
C308 C 0.62928 0.13563 0.45531 0.0
H309 H 0.62081 0.28403 0.50255 0.0
H310 H 0.63957 0.2169 0.49607 0.0
H311 H 0.50958 0.18149 0.43624 0.0
H312 H 0.59079 0.23925 0.36103 0.0
H313 H 0.58135 0.19336 0.34299 0.0
H314 H 0.54443 0.22843 0.34534 0.0
H315 H 0.50017 0.21591 0.39622 0.0
H316 H 0.505 0.16378 0.39124 0.0
C317 C 0.65532 0.14459 0.52049 0.0
C318 C 0.69269 0.17058 0.46074 0.0
C319 C 0.56787 0.05282 0.32472 0.0
C320 C 0.55045 0.07421 0.2944 0.0
C321 C 0.53484 0.11115 0.29987 0.0
C322 C 0.53989 0.12807 0.33401 0.0
C323 C 0.5615 0.10829 0.36243 0.0
C324 C 0.57425 0.07077 0.35784 0.0
C325 C 0.60016 0.05573 0.38872 0.0
C326 C 0.60152 0.09092 0.41236 0.0
C327 C 0.5789 0.12162 0.3968 0.0
C328 C 0.5823 0.0179 0.40999 0.0
C329 C 0.6385 0.04877 0.37062 0.0
C330 C 0.56129 0.26279 0.43184 0.0
C331 C 0.57884 0.28495 0.45868 0.0
C332 C 0.60722 0.26756 0.48149 0.0
C333 C 0.61784 0.22853 0.47794 0.0
C334 C 0.60035 0.20684 0.45088 0.0
C335 C 0.57262 0.22388 0.42831 0.0
C336 C 0.55837 0.19644 0.40019 0.0
C337 C 0.58011 0.1592 0.41178 0.0
C338 C 0.60505 0.16591 0.44103 0.0
C339 C 0.51592 0.189 0.40602 0.0
C340 C 0.569 0.21519 0.3603 0.0
H341 H 0.64376 0.01193 0.44989 0.0
H342 H 0.73596 0.10726 0.49797 0.0
H343 H 0.70262 0.16153 0.43348 0.0
H344 H 0.68059 0.20016 0.45464 0.0
H345 H 0.71744 0.17401 0.4791 0.0
H346 H 0.65411 0.11576 0.53821 0.0
H347 H 0.67672 0.16383 0.53302 0.0
H348 H 0.6274 0.15739 0.52355 0.0
H349 H 0.57919 0.02389 0.32154 0.0
H350 H 0.52094 0.12815 0.27704 0.0
H351 H 0.52854 0.15682 0.33632 0.0
H352 H 0.55195 0.0146 0.40376 0.0
H353 H 0.59583 0.99055 0.40235 0.0
H354 H 0.58396 0.0189 0.44081 0.0
H355 H 0.64811 0.07582 0.35284 0.0
H356 H 0.66095 0.04165 0.39084 0.0
H357 H 0.63653 0.02367 0.35267 0.0
H358 H 0.70524 0.98923 0.46838 0.0
C359 C 0.66323 0.03306 0.46017 0.0
C360 C 0.41408 0.60803 0.29158 0.0
C361 C 0.40069 0.57402 0.31363 0.0
C362 C 0.36749 0.55505 0.30159 0.0
C363 C 0.36279 0.60346 0.24673 0.0
C364 C 0.39513 0.62185 0.25874 0.0
C365 C 0.40702 0.65728 0.23288 0.0
H366 H 0.3789 0.78652 0.08127 0.0
C367 C 0.35035 0.62613 0.21103 0.0
C368 C 0.37663 0.65764 0.20324 0.0
H369 H 0.47074 0.7835 0.16051 0.0
H370 H 0.44398 0.72508 0.19365 0.0
H371 H 0.3124 0.76044 0.14151 0.0
H372 H 0.37959 0.69351 0.07184 0.0
H373 H 0.33504 0.6705 0.07365 0.0
H374 H 0.34057 0.72129 0.05338 0.0
H375 H 0.30839 0.76371 0.09136 0.0
H376 H 0.28287 0.72618 0.12063 0.0
C377 C 0.40603 0.69452 0.25521 0.0
C378 C 0.4459 0.64893 0.21663 0.0
C379 C 0.23201 0.58613 0.13877 0.0
C380 C 0.21566 0.60188 0.10462 0.0
C381 C 0.23288 0.63595 0.08557 0.0
C382 C 0.26527 0.65379 0.09957 0.0
C383 C 0.28144 0.63765 0.13321 0.0
C384 C 0.265 0.60427 0.15235 0.0
C385 C 0.28716 0.59107 0.18735 0.0
C386 C 0.31935 0.62195 0.18591 0.0
C387 C 0.31551 0.64935 0.15399 0.0
C388 C 0.26196 0.59374 0.2218 0.0
C389 C 0.30124 0.54881 0.18357 0.0
C390 C 0.39343 0.77316 0.1056 0.0
C391 C 0.42686 0.79079 0.11847 0.0
C392 C 0.4445 0.77186 0.15034 0.0
C393 C 0.42901 0.73736 0.16952 0.0
C394 C 0.39543 0.72065 0.15686 0.0
C395 C 0.37841 0.73815 0.12511 0.0
C396 C 0.34353 0.71501 0.11525 0.0
C397 C 0.34222 0.68131 0.14674 0.0
C398 C 0.37263 0.6851 0.17107 0.0
C399 C 0.30986 0.74261 0.11695 0.0
C400 C 0.34959 0.69937 0.07643 0.0
H401 H 0.32369 0.55366 0.26091 0.0
H402 H 0.43881 0.62425 0.29983 0.0
H403 H 0.44963 0.61652 0.21502 0.0
H404 H 0.44969 0.66213 0.18746 0.0
H405 H 0.46887 0.6598 0.2343 0.0
H406 H 0.38228 0.6922 0.27529 0.0
H407 H 0.43215 0.69792 0.2716 0.0
H408 H 0.40144 0.72234 0.23732 0.0
H409 H 0.21985 0.55988 0.15416 0.0
H410 H 0.22095 0.6493 0.05974 0.0
H411 H 0.27654 0.67965 0.08349 0.0
H412 H 0.24715 0.6224 0.21951 0.0
H413 H 0.24055 0.5692 0.22405 0.0
H414 H 0.27791 0.59284 0.24824 0.0
H415 H 0.31273 0.5467 0.15505 0.0
H416 H 0.32412 0.54065 0.20325 0.0
H417 H 0.27812 0.5263 0.18813 0.0
H418 H 0.35631 0.52862 0.31747 0.0
C419 C 0.34859 0.56952 0.26846 0.0
C420 C 0.02706 0.26592 0.58351 0.0
C421 C 0.03515 0.24681 0.55132 0.0
C422 C 0.05633 0.26731 0.5223 0.0
C423 C 0.06535 0.32286 0.55966 0.0
C424 C 0.04178 0.3044 0.58664 0.0
C425 C 0.03565 0.3301 0.61821 0.0
H426 H 0.08483 0.49607 0.70151 0.0
C427 C 0.07859 0.36099 0.57227 0.0
C428 C 0.05998 0.36653 0.60572 0.0
H429 H 1.01145 0.39888 0.74451 0.0
H430 H 1.01511 0.36975 0.68556 0.0
H431 H 0.0568 0.5024 0.61019 0.0
H432 H 0.14089 0.4545 0.68229 0.0
H433 H 0.15971 0.4447 0.63917 0.0
H434 H 0.15246 0.49539 0.64921 0.0
H435 H 0.09469 0.5279 0.63184 0.0
H436 H 0.10008 0.50934 0.58657 0.0
C437 C 0.99373 0.34004 0.61901 0.0
C438 C 0.05024 0.30772 0.65482 0.0
C439 C 0.20354 0.41945 0.52768 0.0
C440 C 0.22542 0.45102 0.54008 0.0
C441 C 0.20781 0.48001 0.55925 0.0
C442 C 0.17027 0.47509 0.56969 0.0
C443 C 0.15053 0.44037 0.56192 0.0
C444 C 0.16613 0.41457 0.53905 0.0
C445 C 0.13979 0.38031 0.53235 0.0
C446 C 0.10816 0.38739 0.55921 0.0
C447 C 0.11515 0.42227 0.57683 0.0
C448 C 0.12702 0.38469 0.49075 0.0
C449 C 0.15963 0.3408 0.54363 0.0
C450 C 0.06927 0.46863 0.6983 0.0
C451 C 0.04834 0.44957 0.72808 0.0
C452 C 0.02784 0.41437 0.72214 0.0
C453 C 0.03044 0.39715 0.68801 0.0
C454 C 0.05443 0.41477 0.65987 0.0
C455 C 0.07296 0.45022 0.66523 0.0
C456 C 0.10028 0.46291 0.63455 0.0
C457 C 0.09482 0.42938 0.60938 0.0
C458 C 0.06771 0.40141 0.62412 0.0
C459 C 0.08759 0.50292 0.6147 0.0
C460 C 0.14032 0.46465 0.6519 0.0
H461 H 0.08775 0.31963 0.50376 0.0
H462 H 1.01014 0.25103 0.60581 0.0
H463 H 0.07627 0.29186 0.64948 0.0
H464 H 0.058 0.32767 0.67645 0.0
H465 H 0.02926 0.28525 0.66666 0.0
H466 H 0.98235 0.34503 0.59007 0.0
H467 H 0.97711 0.31531 0.63399 0.0
H468 H 0.98862 0.36783 0.63198 0.0
H469 H 0.21599 0.39778 0.51142 0.0
H470 H 0.22361 0.50505 0.56865 0.0
H471 H 0.15854 0.4974 0.58514 0.0
H472 H 0.13708 0.41318 0.47561 0.0
H473 H 0.13772 0.36042 0.47513 0.0
H474 H 0.09608 0.38471 0.48822 0.0
H475 H 0.17034 0.34024 0.57285 0.0
H476 H 0.14105 0.31445 0.54215 0.0
H477 H 0.18359 0.33709 0.52482 0.0
H478 H 0.06251 0.25316 0.49717 0.0
C479 C 0.07131 0.30541 0.52627 0.0
Co480 Co 0.98979 0.01345 0.5002 0.0
C481 C 0.01898 0.93786 0.49898 0.0
Co482 Co 0.04324 1.00532 0.52982 0.0
C483 C 0.91123 0.02564 0.48982 0.0
C484 C 0.93747 0.01043 0.43972 0.0
N485 N 0.94469 0.01784 0.47538 0.0
N486 N 0.88325 0.0229 0.46477 0.0
C487 C 0.8998 0.01364 0.43306 0.0
H488 H 0.90736 0.03175 0.51863 0.0
H489 H 0.9581 1.00212 0.4201 0.0
C490 C 1.01398 0.08107 0.53084 0.0
N491 N 0.08828 1.00087 0.55473 0.0
C492 C 0.12175 0.99246 0.54069 0.0
C493 C 0.09524 0.00826 0.59044 0.0
N494 N 0.14949 0.99467 0.56611 0.0
C495 C 0.13275 1.00433 0.59758 0.0
C496 C 0.05173 0.03302 0.45261 0.0
O497 O 0.98764 0.0671 0.51165 0.0
O498 O 0.0408 0.05892 0.54168 0.0
O499 O 0.06967 0.02334 0.48278 0.0
O500 O 1.01615 0.03101 0.45404 0.0
O501 O 0.04542 0.95159 0.51821 0.0
H502 H 0.07452 0.01683 0.60984 0.0
H503 H 0.12579 0.9861 0.51197 0.0
O504 O 0.99216 0.96007 0.4884 0.0
O505 O 0.96354 0.99566 0.54691 0.0
O506 O 1.01665 0.9874 0.57624 0.0
C507 C 0.98103 0.9856 0.57721 0.0
H508 H 0.88579 0.00912 0.40692 0.0
H509 H 0.14649 0.00848 0.62393 0.0
Co510 Co 0.50397 1.00038 0.99034 0.0
C511 C 0.4949 0.93713 0.04587 0.0
Co512 Co 0.53506 0.0092 0.04192 0.0
C513 C 0.49302 0.98985 0.91239 0.0
C514 C 0.44199 0.9818 0.94345 0.0
N515 N 0.47851 0.99165 0.94686 0.0
N516 N 0.46711 0.97887 0.88764 0.0
C517 C 0.43487 0.97404 0.90705 0.0
H518 H 0.52219 0.99581 0.90569 0.0
H519 H 0.42214 0.97894 0.96625 0.0
C520 C 0.54404 0.07246 0.9862 0.0
N521 N 0.56043 0.01794 0.08546 0.0
C522 C 0.54565 0.01961 0.11984 0.0
C523 C 0.59681 0.02825 0.08908 0.0
N524 N 0.57121 0.03107 0.14469 0.0
C525 C 0.60356 0.03624 0.1255 0.0
C526 C 0.5788 0.97233 0.98968 0.0
O527 O 0.52179 0.05106 0.96824 0.0
O528 O 0.55307 0.06012 0.01955 0.0
O529 O 0.57914 0.98421 0.0225 0.0
O530 O 0.54849 0.97592 0.97095 0.0
O531 O 0.51688 0.95856 0.06412 0.0
H532 H 0.61678 0.03136 0.06637 0.0
H533 H 0.51649 0.01331 0.12635 0.0
O534 O 0.48626 0.94947 1.01244 0.0
O535 O 0.45944 0.02516 1.01025 0.0
O536 O 0.49106 0.03375 0.06113 0.0
C537 C 0.46037 0.03705 0.0431 0.0
H538 H 0.40838 0.96389 0.89618 0.0
H539 H 0.62982 0.04686 0.13649 0.0
Co540 Co 0.54141 0.51985 0.50354 0.0
C541 C 0.48139 0.52425 0.45255 0.0
Co542 Co 0.48954 0.49192 0.52733 0.0
C543 C 0.62021 0.53605 0.49326 0.0
C544 C 0.58689 0.57991 0.46297 0.0
N545 N 0.58452 0.54525 0.48479 0.0
N546 N 0.64476 0.56391 0.47807 0.0
C547 C 0.62386 0.59143 0.45876 0.0
H548 H 0.62791 0.51026 0.51154 0.0
H549 H 0.56319 0.59641 0.45187 0.0
C550 C 0.54973 0.48733 0.57822 0.0
N551 N 0.44616 0.46695 0.54597 0.0
C552 C 0.41083 0.47712 0.537 0.0
C553 C 0.44272 0.4326 0.56809 0.0
N554 N 0.38538 0.45022 0.55211 0.0
C555 C 0.40539 0.42224 0.57195 0.0
C556 C 0.53488 0.44073 0.49216 0.0
O557 O 0.56651 0.506 0.55049 0.0
O558 O 0.51517 0.4782 0.57458 0.0
O559 O 0.50438 0.4435 0.50961 0.0
O560 O 0.55626 0.4713 0.48613 0.0
O561 O 0.4645 0.50573 0.48027 0.0
H562 H 0.46588 0.41555 0.57968 0.0
H563 H 0.40405 0.50299 0.51839 0.0
O564 O 0.51587 0.53346 0.45635 0.0
O565 O 0.52652 0.56826 0.52128 0.0
O566 O 0.4747 0.54049 0.54473 0.0
C567 C 0.49603 0.57106 0.53868 0.0
H568 H 0.63446 0.61819 0.44296 0.0
H569 H 0.394 0.39592 0.58784 0.0
Co570 Co 0.03428 0.50263 0.98422 0.0
C571 C 0.96097 0.47024 0.98389 0.0
Co572 Co 1.00552 0.50523 0.03785 0.0
C573 C 0.04328 0.49969 0.9046 0.0
C574 C 0.09508 0.49392 0.93445 0.0
N575 N 0.05848 0.50041 0.93908 0.0
N576 N 0.06886 0.49245 0.87865 0.0
C577 C 0.10154 0.48908 0.89742 0.0
H578 H 1.0138 0.50324 0.89889 0.0
H579 H 0.11543 0.49089 0.95686 0.0
C580 C 0.07879 0.53767 0.03828 0.0
N581 N 0.98192 0.50603 0.0835 0.0
C582 C 0.98843 0.53132 0.11003 0.0
C583 C 0.95937 0.47702 0.10003 0.0
N584 N 0.97158 0.5187 0.14269 0.0
C585 C 0.95301 0.48471 0.13643 0.0
C586 C 0.0479 0.43584 0.03474 0.0
O587 O 0.07801 0.52913 1.00436 0.0
O588 O 0.04946 0.53046 0.05786 0.0
O589 O 0.026 0.45374 0.05514 0.0
O590 O 0.05471 0.45165 1.00178 0.0
O591 O 0.96157 0.47973 0.0175 0.0
H592 H 0.94999 0.45073 0.08719 0.0
H593 H 1.00725 0.55699 0.10634 0.0
O594 O 0.99056 0.47644 0.96446 0.0
O595 O 1.01368 0.55336 0.96672 0.0
O596 O 0.9853 0.55703 0.0203 0.0
C597 C 0.99206 0.57199 0.98688 0.0
H598 H 0.12795 0.48142 0.88578 0.0
H599 H 0.93711 0.46596 0.15709 0.0
C600 C 0.12843 0.06521 0.37909 0.0
C601 C 0.1072 0.07651 0.34673 0.0
H602 H 0.12813 0.04319 0.43764 0.0
C603 C 0.06799 0.07121 0.34956 0.0
H604 H 0.15857 0.06891 0.37839 0.0
C605 C 0.05056 0.05678 0.38341 0.0
C606 C 0.07146 0.04681 0.41616 0.0
H607 H 0.0504 0.07878 0.32543 0.0
H608 H 0.02035 0.05393 0.38391 0.0
C609 C 0.11084 0.05071 0.41328 0.0
C610 C 0.51192 0.94633 0.80118 0.0
C611 C 0.48223 0.95006 0.77545 0.0
H612 H 0.53044 0.95278 0.85731 0.0
C613 C 0.44812 0.96468 0.78704 0.0
H614 H 0.53847 0.9351 0.79309 0.0
C615 C 0.44359 0.97491 0.82347 0.0
C616 C 0.47295 0.9707 0.8494 0.0
H617 H 0.42434 0.96717 0.76823 0.0
H618 H 0.41689 0.98584 0.83143 0.0
C619 C 0.50738 0.95676 0.83781 0.0
C620 C 0.57169 0.44677 0.67901 0.0
C621 C 0.61105 0.45096 0.68086 0.0
H622 H 0.52178 0.45451 0.64588 0.0
C623 C 0.62968 0.46851 0.64866 0.0
H624 H 0.55589 0.43435 0.70316 0.0
C625 C 0.60981 0.48073 0.61577 0.0
C626 C 0.57062 0.47564 0.61382 0.0
H627 H 0.65983 0.47198 0.6484 0.0
H628 H 0.62537 0.49358 0.59158 0.0
C629 C 0.55189 0.45867 0.64605 0.0
C630 C 0.98415 0.59185 0.21483 0.0
C631 C 0.98392 0.56641 0.24816 0.0
H632 H 0.97995 0.59638 0.15484 0.0
C633 C 0.98181 0.52506 0.24589 0.0
H634 H 0.98536 0.62384 0.21564 0.0
C635 C 0.97802 0.50955 0.21132 0.0
C636 C 0.97674 0.53495 0.17813 0.0
H637 H 0.98239 0.50462 0.27098 0.0
H638 H 0.97609 0.47759 0.21056 0.0
C639 C 0.98076 0.57621 0.18008 0.0
C640 C 0.36122 0.07616 0.05911 0.0
C641 C 0.36047 0.0791 0.09823 0.0
H642 H 0.39216 0.06034 1.01123 0.0
C643 C 0.39337 0.06891 0.11838 0.0
H644 H 0.33666 0.08339 0.04236 0.0
C645 C 0.42545 0.05627 0.10039 0.0
C646 C 0.42604 0.05254 0.06145 0.0
H647 H 0.39454 0.07102 0.14833 0.0
H648 H 0.44981 0.04879 0.11736 0.0
C649 C 0.3932 0.06274 0.04114 0.0
C650 C 0.23986 0.96179 0.52721 0.0
C651 C 0.26604 0.97694 0.55195 0.0
H652 H 0.18222 0.95487 0.51263 0.0
C653 C 0.25321 0.99947 0.58021 0.0
H654 H 0.24875 0.94454 0.50498 0.0
C655 C 0.21525 1.00588 0.58425 0.0
C656 C 0.18888 0.98959 0.56047 0.0
H657 H 0.27231 0.01099 0.60036 0.0
H658 H 0.20669 0.02334 0.60641 0.0
C659 C 0.20167 0.96798 0.53146 0.0
C660 C 0.86133 0.42815 0.97401 0.0
C661 C 0.85798 0.42469 0.93518 0.0
H662 H 0.89567 0.44492 0.01958 0.0
C663 C 0.88898 0.43673 0.91243 0.0
H664 H 0.83807 0.41965 0.99252 0.0
C665 C 0.92244 0.45092 0.92816 0.0
C666 C 0.92577 0.45403 0.96708 0.0
H667 H 0.8877 0.43429 0.88252 0.0
H668 H 0.94571 0.45962 0.90972 0.0
C669 C 0.8945 0.44273 0.98963 0.0
C670 C 0.7436 0.53069 0.49051 0.0
C671 C 0.76359 0.56721 0.48582 0.0
H672 H 0.68999 0.50098 0.49131 0.0
C673 C 0.74365 0.60263 0.48151 0.0
H674 H 0.75819 0.50291 0.4941 0.0
C675 C 0.70471 0.60151 0.47996 0.0
C676 C 0.68475 0.56498 0.4827 0.0
H677 H 0.75813 0.63126 0.47735 0.0
H678 H 0.69027 0.62932 0.47591 0.0
C679 C 0.70455 0.52959 0.48904 0.0
C680 C 0.10691 0.34201 0.04048 0.0
C681 C 0.10766 0.32987 0.07929 0.0
H682 H 0.08796 0.38409 0.99622 0.0
C683 C 0.08727 0.35272 0.10293 0.0
H684 H 0.12128 0.32531 0.02083 0.0
C685 C 0.06724 0.38616 0.08848 0.0
C686 C 0.06714 0.3985 0.04986 0.0
H687 H 0.0873 0.34548 0.13296 0.0
H688 H 0.0525 0.40295 0.10785 0.0
C689 C 0.08729 0.37578 0.02612 0.0
C690 C 0.57417 0.15349 0.9108 0.0
C691 C 0.59402 0.18102 0.93125 0.0
H692 H 0.54271 0.09857 0.91183 0.0
C693 C 0.59732 0.17221 0.97032 0.0
H694 H 0.57169 0.15833 0.88063 0.0
C695 C 0.58104 0.13718 0.98826 0.0
C696 C 0.56072 0.1102 0.9677 0.0
H697 H 0.61196 0.19263 0.98724 0.0
H698 H 0.58416 0.1314 0.01833 0.0
C699 C 0.55758 0.11889 0.92874 0.0
C700 C 0.99494 0.8456 0.4511 0.0
C701 C 1.00714 0.81552 0.47759 0.0
H702 H 0.98887 0.90815 0.43747 0.0
C703 C 0.02625 0.82598 0.50972 0.0
H704 H 0.97981 0.83817 0.42631 0.0
C705 C 0.03214 0.86605 0.51576 0.0
C706 C 0.01799 0.89605 0.49026 0.0
H707 H 0.03575 0.80316 0.53055 0.0
H708 H 0.04598 0.87347 0.54124 0.0
C709 C 0.99993 0.88551 0.45759 0.0
C710 C 0.43681 0.65503 0.56568 0.0
C711 C 0.46362 0.68603 0.56702 0.0
H712 H 0.42616 0.594 0.55625 0.0
C713 C 0.50136 0.67842 0.56096 0.0
H714 H 0.40755 0.66018 0.57047 0.0
C715 C 0.51195 0.6408 0.55235 0.0
C716 C 0.48507 0.60994 0.55029 0.0
H717 H 0.52249 0.70192 0.56162 0.0
H718 H 0.54116 0.63602 0.54689 0.0
C719 C 0.44748 0.61719 0.55772 0.0
C720 C 0.96005 0.94515 0.67928 0.0
C721 C 0.92059 0.94518 0.68119 0.0
H722 H 1.00965 0.95769 0.6461 0.0
C723 C 0.9014 0.95921 0.64826 0.0
H724 H 0.97627 0.9353 0.70379 0.0
C725 C 0.92079 0.97217 0.61485 0.0
C726 C 0.9602 0.97192 0.61303 0.0
H727 H 0.87117 0.95951 0.64797 0.0
H728 H 0.90474 0.98235 0.59031 0.0
C729 C 0.97941 0.95832 0.64598 0.0
C730 C 0.5248 0.0639 0.23019 0.0
C731 C 0.55419 0.06081 0.25631 0.0
H732 H 0.50715 0.05666 0.17396 0.0
C733 C 0.5887 0.04665 0.24528 0.0
H734 H 0.49796 0.07477 0.23786 0.0
C735 C 0.5939 0.03617 0.20902 0.0
C736 C 0.56481 0.03964 0.18273 0.0
H737 H 0.61223 0.04467 0.26442 0.0
H738 H 0.62087 0.02558 0.20148 0.0
C739 C 0.53001 0.0532 0.19376 0.0
C740 C 0.40229 0.54203 0.38092 0.0
C741 C 0.42139 0.55917 0.34885 0.0
H742 H 0.40585 0.51775 0.43833 0.0
C743 C 0.46071 0.56336 0.3512 0.0
H744 H 0.37214 0.53855 0.38073 0.0
C745 C 0.48003 0.55195 0.38453 0.0
C746 C 0.46086 0.53547 0.41666 0.0
H747 H 0.47685 0.57545 0.32714 0.0
H748 H 0.51014 0.55611 0.38505 0.0
C749 C 0.42171 0.53029 0.41422 0.0
C750 C 0.02201 0.46103 0.79141 0.0
C751 C 0.05208 0.46364 0.76613 0.0
H752 H 1.00366 0.46797 0.84711 0.0
C753 C 0.08702 0.4779 0.77813 0.0
H754 H 0.99468 0.45043 0.78305 0.0
C755 C 0.09198 0.48868 0.81444 0.0
C756 C 0.06236 0.48495 0.84013 0.0
H757 H 0.11115 0.47959 0.75989 0.0
H758 H 0.11935 0.49934 0.82252 0.0
C759 C 0.02709 0.47157 0.82804 0.0
C760 C 0.64881 0.93535 0.91909 0.0
C761 C 0.67975 0.92396 0.94183 0.0
H762 H 0.59311 0.95839 0.9159 0.0
C763 C 0.67693 0.92918 0.98042 0.0
H764 H 0.64939 0.93171 0.88939 0.0
C765 C 0.64469 0.94489 0.99565 0.0
C766 C 0.61346 0.95551 0.97313 0.0
H767 H 0.69996 0.92133 0.9991 0.0
H768 H 0.64416 0.94838 0.02539 0.0
C769 C 0.61621 0.95046 0.93448 0.0
C770 C 0.7794 0.01483 0.45275 0.0
C771 C 0.7665 0.03698 0.48127 0.0
H772 H 0.8261 0.99249 0.42556 0.0
C773 C 0.79273 0.05286 0.50553 0.0
H774 H 0.76024 1.00277 0.43297 0.0
C775 C 0.83099 0.0479 0.50047 0.0
C776 C 0.84382 0.02678 0.47115 0.0
H777 H 0.7838 0.06984 0.52794 0.0
H778 H 0.85042 0.06161 0.51892 0.0
C779 C 0.81746 0.00964 0.44791 0.0
C780 C 0.14978 0.57134 0.11052 0.0
C781 C 0.181 0.58363 0.08819 0.0
H782 H 0.0932 0.54813 0.11252 0.0
C783 C 0.17818 0.58027 0.04929 0.0
H784 H 0.15063 0.5737 0.14045 0.0
C785 C 0.14527 0.56553 0.03322 0.0
C786 C 0.1138 0.55396 0.05539 0.0
H787 H 0.20162 0.58896 0.03109 0.0
H788 H 0.14449 0.56338 1.00325 0.0
C789 C 0.11664 0.55699 0.09435 0.0
C790 C 0.28545 0.41477 0.54663 0.0
C791 C 0.26686 0.45067 0.53823 0.0
H792 H 0.33747 0.38642 0.55734 0.0
C793 C 0.28818 0.48626 0.5326 0.0
H794 H 0.26993 0.38684 0.55174 0.0
C795 C 0.32704 0.48609 0.53667 0.0
C796 C 0.34547 0.45031 0.5464 0.0
H797 H 0.27476 0.51439 0.52588 0.0
H798 H 0.34245 0.51418 0.53329 0.0
C799 C 0.32423 0.4146 0.5506 0.0
C800 C 0.93643 0.66902 0.97561 0.0
C801 C 0.93815 0.67949 0.93653 0.0
H802 H 0.95191 0.62758 0.02225 0.0
C803 C 0.95705 0.65342 0.91485 0.0
H804 H 0.92239 0.68797 0.99357 0.0
C805 C 0.97458 0.61942 0.93135 0.0
C806 C 0.97351 0.60927 0.9703 0.0
H807 H 0.95826 0.659 0.88466 0.0
H808 H 0.98873 0.6007 0.91322 0.0
C809 C 0.95371 0.6344 0.99219 0.0
C810 C 0.4628 0.85616 0.12046 0.0
C811 C 0.44366 0.82862 0.09942 0.0
H812 H 0.49417 0.9111 0.12032 0.0
C813 C 0.4416 0.83739 0.06027 0.0
H814 H 0.46432 0.85135 0.15069 0.0
C815 C 0.45834 0.87238 0.04283 0.0
C816 C 0.47794 0.89938 0.06398 0.0
H817 H 0.42756 0.81695 0.04293 0.0
H818 H 0.45615 0.87813 1.01268 0.0
C819 C 0.4799 0.89075 0.10301 0.0
C820 C 0.03897 0.17552 0.57527 0.0
C821 C 0.02464 0.20455 0.54893 0.0
H822 H 0.04713 0.11341 0.58986 0.0
C823 C 1.00406 0.19264 0.51825 0.0
H824 H 0.05525 0.18412 0.59893 0.0
C825 C 0.99876 0.15222 0.51342 0.0
C826 C 1.01492 0.12323 0.53864 0.0
H827 H 0.99295 0.21464 0.49754 0.0
H828 H 0.98367 0.14378 0.48898 0.0
C829 C 0.03452 0.1352 0.56994 0.0
C830 C 0.59404 0.35673 0.46526 0.0
C831 C 0.56721 0.32576 0.46386 0.0
H832 H 0.60474 0.41773 0.47473 0.0
C833 C 0.52946 0.33344 0.46969 0.0
H834 H 0.62333 0.35149 0.46066 0.0
C835 C 0.51887 0.37108 0.47825 0.0
C836 C 0.5458 0.40188 0.48047 0.0
H837 H 0.50831 0.30995 0.46897 0.0
H838 H 0.48966 0.37592 0.48359 0.0
C839 C 0.58339 0.39458 0.47316 0.0
loop_
_geom_bond_atom_site_label_1
_geom_bond_atom_site_label_2
_geom_bond_distance
_geom_bond_site_symmetry_2
_ccdc_geom_bond_type
C0 C1 1.391 . S
C0 C4 1.391 . S
C0 H42 0.948 . S
C1 C0 1.391 . S
C1 C2 1.391 . S
C2 C1 1.391 . S
C2 H58 0.947 . S
C2 C59 1.392 . S
C3 C4 1.391 . S
C3 C7 1.397 . S
C3 C59 1.419 . S
C4 C0 1.391 . S
C4 C3 1.391 . S
C4 C5 1.399 . S
C5 C4 1.399 . S
C5 C8 1.396 . S
C5 C17 1.453 . S
C5 C18 1.684 . S
H6 C30 0.948 . S
C7 C3 1.397 . S
C7 C8 1.394 . S
C7 C26 1.723 . S
C8 C5 1.396 . S
C8 C7 1.394 . S
C8 C38 1.723 . S
H9 C32 0.947 . S
H10 C33 0.948 . S
H11 C39 0.982 . S
H12 C40 0.979 . S
H13 C40 0.980 . S
H14 C40 0.983 1_556 S
H15 C39 0.979 . S
H16 C39 0.977 . S
C17 C5 1.453 . S
C17 H46 0.982 . S
C17 H47 0.979 . S
C17 H48 0.977 . S
C18 C5 1.684 . S
C18 H43 0.979 1_545 S
C18 H44 0.980 . S
C18 H45 0.983 1_545 S
C19 C20 1.391 . S
C19 C24 1.391 . S
C19 H49 0.948 . S
C20 C19 1.391 . S
C20 C21 1.391 . S
C21 C20 1.391 . S
C21 C22 1.392 . S
C21 H50 0.947 . S
C22 C21 1.392 . S
C22 C23 1.419 . S
C22 H51 0.948 . S
C23 C22 1.419 . S
C23 C24 1.391 . S
C23 C27 1.397 . S
C24 C19 1.391 . S
C24 C23 1.391 . S
C24 C25 1.399 . S
C25 C24 1.399 . S
C25 C26 1.396 . S
C25 C28 1.453 . S
C25 C29 1.684 . S
C26 C7 1.723 . S
C26 C25 1.396 . S
C26 C27 1.394 . S
C27 C23 1.397 . S
C27 C26 1.394 . S
C27 C37 1.723 . S
C28 C25 1.453 . S
C28 H52 0.982 . S
C28 H53 0.979 . S
C28 H54 0.977 . S
C29 C25 1.684 . S
C29 H55 0.979 . S
C29 H56 0.980 . S
C29 H57 0.983 . S
C30 H6 0.948 . S
C30 C31 1.391 . S
C30 C35 1.391 . S
C31 C30 1.391 . S
C31 C32 1.391 . S
C32 H9 0.947 . S
C32 C31 1.391 . S
C32 C33 1.392 . S
C33 H10 0.948 . S
C33 C32 1.392 . S
C33 C34 1.419 . S
C34 C33 1.419 . S
C34 C35 1.391 . S
C34 C38 1.397 . S
C35 C30 1.391 . S
C35 C34 1.391 . S
C35 C36 1.399 . S
C36 C35 1.399 . S
C36 C37 1.396 . S
C36 C39 1.453 . S
C36 C40 1.684 . S
C37 C27 1.723 . S
C37 C36 1.396 . S
C37 C38 1.394 . S
C38 C8 1.723 . S
C38 C34 1.397 . S
C38 C37 1.394 . S
C39 H11 0.982 . S
C39 H15 0.979 . S
C39 H16 0.977 . S
C39 C36 1.453 . S
C40 H12 0.979 . S
C40 H13 0.980 . S
C40 H14 0.983 1_554 S
C40 C36 1.684 . S
H41 C59 0.948 . S
H42 C0 0.948 . S
H43 C18 0.979 1_565 S
H44 C18 0.980 . S
H45 C18 0.983 1_565 S
H46 C17 0.982 . S
H47 C17 0.979 . S
H48 C17 0.977 . S
H49 C19 0.948 . S
H50 C21 0.947 . S
H51 C22 0.948 . S
H52 C28 0.982 . S
H53 C28 0.979 . S
H54 C28 0.977 . S
H55 C29 0.979 . S
H56 C29 0.980 . S
H57 C29 0.983 . S
H58 C2 0.947 . S
C59 C2 1.392 . S
C59 C3 1.419 . S
C59 H41 0.948 . S
C60 C61 1.391 . S
C60 C64 1.391 . S
C60 H102 0.948 . S
C61 C60 1.391 . S
C61 C62 1.391 . S
C62 C61 1.391 . S
C62 H118 0.947 . S
C62 C119 1.392 . S
C63 C64 1.391 . S
C63 C67 1.397 . S
C63 C119 1.419 . S
C64 C60 1.391 . S
C64 C63 1.391 . S
C64 C65 1.399 . S
C65 C64 1.399 . S
C65 C68 1.396 . S
C65 C77 1.453 . S
C65 C78 1.684 . S
H66 C90 0.948 . S
C67 C63 1.397 . S
C67 C68 1.394 . S
C67 C86 1.723 . S
C68 C65 1.396 . S
C68 C67 1.394 . S
C68 C98 1.723 . S
H69 C92 0.947 . S
H70 C93 0.948 . S
H71 C99 0.982 . S
H72 C100 0.979 . S
H73 C100 0.980 . S
H74 C100 0.983 . S
H75 C99 0.979 . S
H76 C99 0.977 . S
C77 C65 1.453 . S
C77 H106 0.982 . S
C77 H107 0.979 . S
C77 H108 0.977 . S
C78 C65 1.684 . S
C78 H103 0.979 . S
C78 H104 0.980 . S
C78 H105 0.983 . S
C79 C80 1.391 . S
C79 C84 1.391 . S
C79 H109 0.948 . S
C80 C79 1.391 . S
C80 C81 1.391 . S
C81 C80 1.391 . S
C81 C82 1.392 . S
C81 H110 0.947 . S
C82 C81 1.392 . S
C82 C83 1.419 . S
C82 H111 0.948 . S
C83 C82 1.419 . S
C83 C84 1.391 . S
C83 C87 1.397 . S
C84 C79 1.391 . S
C84 C83 1.391 . S
C84 C85 1.399 . S
C85 C84 1.399 . S
C85 C86 1.396 . S
C85 C88 1.453 . S
C85 C89 1.684 . S
C86 C67 1.723 . S
C86 C85 1.396 . S
C86 C87 1.394 . S
C87 C83 1.397 . S
C87 C86 1.394 . S
C87 C97 1.723 . S
C88 C85 1.453 . S
C88 H112 0.982 . S
C88 H113 0.979 . S
C88 H114 0.977 . S
C89 C85 1.684 . S
C89 H115 0.979 . S
C89 H116 0.980 . S
C89 H117 0.983 . S
C90 H66 0.948 . S
C90 C91 1.391 . S
C90 C95 1.391 . S
C91 C90 1.391 . S
C91 C92 1.391 . S
C92 H69 0.947 . S
C92 C91 1.391 . S
C92 C93 1.392 . S
C93 H70 0.948 . S
C93 C92 1.392 . S
C93 C94 1.419 . S
C94 C93 1.419 . S
C94 C95 1.391 . S
C94 C98 1.397 . S
C95 C90 1.391 . S
C95 C94 1.391 . S
C95 C96 1.399 . S
C96 C95 1.399 . S
C96 C97 1.396 . S
C96 C99 1.453 . S
C96 C100 1.684 . S
C97 C87 1.723 . S
C97 C96 1.396 . S
C97 C98 1.394 . S
C98 C68 1.723 . S
C98 C94 1.397 . S
C98 C97 1.394 . S
C99 H71 0.982 . S
C99 H75 0.979 . S
C99 H76 0.977 . S
C99 C96 1.453 . S
C100 H72 0.979 . S
C100 H73 0.980 . S
C100 H74 0.983 . S
C100 C96 1.684 . S
H101 C119 0.948 . S
H102 C60 0.948 . S
H103 C78 0.979 . S
H104 C78 0.980 . S
H105 C78 0.983 . S
H106 C77 0.982 . S
H107 C77 0.979 . S
H108 C77 0.977 . S
H109 C79 0.948 . S
H110 C81 0.947 . S
H111 C82 0.948 . S
H112 C88 0.982 . S
H113 C88 0.979 . S
H114 C88 0.977 . S
H115 C89 0.979 . S
H116 C89 0.980 . S
H117 C89 0.983 . S
H118 C62 0.947 . S
C119 C62 1.392 . S
C119 C63 1.419 . S
C119 H101 0.948 . S
C120 C121 1.391 . S
C120 C124 1.391 . S
C120 H162 0.948 . S
C121 C120 1.391 . S
C121 C122 1.391 . S
C122 C121 1.391 . S
C122 H178 0.947 . S
C122 C179 1.392 . S
C123 C124 1.391 . S
C123 C127 1.397 . S
C123 C179 1.419 . S
C124 C120 1.391 . S
C124 C123 1.391 . S
C124 C125 1.399 . S
C125 C124 1.399 . S
C125 C128 1.396 . S
C125 C137 1.453 . S
C125 C138 1.684 . S
H126 C150 0.948 . S
C127 C123 1.397 . S
C127 C128 1.394 . S
C127 C146 1.723 . S
C128 C125 1.396 . S
C128 C127 1.394 . S
C128 C158 1.723 . S
H129 C152 0.947 . S
H130 C153 0.948 . S
H131 C159 0.982 . S
H132 C160 0.979 . S
H133 C160 0.980 . S
H134 C160 0.983 . S
H135 C159 0.979 . S
H136 C159 0.977 . S
C137 C125 1.453 . S
C137 H166 0.982 . S
C137 H167 0.979 . S
C137 H168 0.977 . S
C138 C125 1.684 . S
C138 H163 0.979 . S
C138 H164 0.980 . S
C138 H165 0.983 . S
C139 C140 1.391 . S
C139 C144 1.391 . S
C139 H169 0.948 . S
C140 C139 1.391 . S
C140 C141 1.391 . S
C141 C140 1.391 . S
C141 C142 1.392 . S
C141 H170 0.947 . S
C142 C141 1.392 . S
C142 C143 1.419 . S
C142 H171 0.948 . S
C143 C142 1.419 . S
C143 C144 1.391 . S
C143 C147 1.397 . S
C144 C139 1.391 . S
C144 C143 1.391 . S
C144 C145 1.399 . S
C145 C144 1.399 . S
C145 C146 1.396 . S
C145 C148 1.453 . S
C145 C149 1.684 . S
C146 C127 1.723 . S
C146 C145 1.396 . S
C146 C147 1.394 . S
C147 C143 1.397 . S
C147 C146 1.394 . S
C147 C157 1.723 . S
C148 C145 1.453 . S
C148 H172 0.982 . S
C148 H173 0.979 . S
C148 H174 0.977 . S
C149 C145 1.684 . S
C149 H175 0.979 . S
C149 H176 0.980 . S
C149 H177 0.983 . S
C150 H126 0.948 . S
C150 C151 1.391 . S
C150 C155 1.391 . S
C151 C150 1.391 . S
C151 C152 1.391 . S
C152 H129 0.947 . S
C152 C151 1.391 . S
C152 C153 1.392 . S
C153 H130 0.948 . S
C153 C152 1.392 . S
C153 C154 1.419 . S
C154 C153 1.419 . S
C154 C155 1.391 . S
C154 C158 1.397 . S
C155 C150 1.391 . S
C155 C154 1.391 . S
C155 C156 1.399 . S
C156 C155 1.399 . S
C156 C157 1.396 . S
C156 C159 1.453 . S
C156 C160 1.684 . S
C157 C147 1.723 . S
C157 C156 1.396 . S
C157 C158 1.394 . S
C158 C128 1.723 . S
C158 C154 1.397 . S
C158 C157 1.394 . S
C159 H131 0.982 . S
C159 H135 0.979 . S
C159 H136 0.977 . S
C159 C156 1.453 . S
C160 H132 0.979 . S
C160 H133 0.980 . S
C160 H134 0.983 . S
C160 C156 1.684 . S
H161 C179 0.948 . S
H162 C120 0.948 . S
H163 C138 0.979 . S
H164 C138 0.980 . S
H165 C138 0.983 . S
H166 C137 0.982 . S
H167 C137 0.979 . S
H168 C137 0.977 . S
H169 C139 0.948 . S
H170 C141 0.947 . S
H171 C142 0.948 . S
H172 C148 0.982 . S
H173 C148 0.979 . S
H174 C148 0.977 . S
H175 C149 0.979 . S
H176 C149 0.980 . S
H177 C149 0.983 . S
H178 C122 0.947 . S
C179 C122 1.392 . S
C179 C123 1.419 . S
C179 H161 0.948 . S
C180 C181 1.391 . S
C180 C184 1.391 . S
C180 H222 0.948 . S
C181 C180 1.391 . S
C181 C182 1.391 . S
C182 C181 1.391 . S
C182 H238 0.947 . S
C182 C239 1.392 . S
C183 C184 1.391 . S
C183 C187 1.397 . S
C183 C239 1.419 . S
C184 C180 1.391 . S
C184 C183 1.391 . S
C184 C185 1.399 . S
C185 C184 1.399 . S
C185 C188 1.396 . S
C185 C197 1.453 . S
C185 C198 1.684 . S
H186 C210 0.948 . S
C187 C183 1.397 . S
C187 C188 1.394 . S
C187 C206 1.723 . S
C188 C185 1.396 . S
C188 C187 1.394 . S
C188 C218 1.723 . S
H189 C212 0.947 1_455 S
H190 C213 0.948 . S
H191 C219 0.982 . S
H192 C220 0.979 . S
H193 C220 0.980 . S
H194 C220 0.983 . S
H195 C219 0.979 . S
H196 C219 0.977 . S
C197 C185 1.453 . S
C197 H226 0.980 1_655 S
C197 H227 0.979 1_655 S
C197 H228 0.978 . S
C198 C185 1.684 . S
C198 H223 0.979 . S
C198 H224 0.980 . S
C198 H225 0.983 . S
C199 C200 1.391 . S
C199 C204 1.391 . S
C199 H229 0.948 . S
C200 C199 1.391 . S
C200 C201 1.391 . S
C201 C200 1.391 . S
C201 C202 1.392 . S
C201 H230 0.947 . S
C202 C201 1.392 . S
C202 C203 1.419 . S
C202 H231 0.948 . S
C203 C202 1.419 . S
C203 C204 1.391 . S
C203 C207 1.397 . S
C204 C199 1.391 . S
C204 C203 1.391 . S
C204 C205 1.399 . S
C205 C204 1.399 . S
C205 C206 1.396 . S
C205 C208 1.453 . S
C205 C209 1.684 . S
C206 C187 1.723 . S
C206 C205 1.396 . S
C206 C207 1.394 . S
C207 C203 1.397 . S
C207 C206 1.394 . S
C207 C217 1.723 . S
C208 C205 1.453 . S
C208 H232 0.982 . S
C208 H233 0.979 . S
C208 H234 0.977 . S
C209 C205 1.684 . S
C209 H235 0.979 . S
C209 H236 0.980 . S
C209 H237 0.983 . S
C210 H186 0.948 . S
C210 C211 1.391 . S
C210 C215 1.391 . S
C211 C210 1.391 . S
C211 C212 1.391 . S
C212 H189 0.947 1_655 S
C212 C211 1.391 . S
C212 C213 1.392 . S
C213 H190 0.948 . S
C213 C212 1.392 . S
C213 C214 1.419 . S
C214 C213 1.419 . S
C214 C215 1.391 . S
C214 C218 1.397 . S
C215 C210 1.391 . S
C215 C214 1.391 . S
C215 C216 1.399 . S
C216 C215 1.399 . S
C216 C217 1.396 . S
C216 C219 1.453 . S
C216 C220 1.684 . S
C217 C207 1.723 . S
C217 C216 1.396 . S
C217 C218 1.394 . S
C218 C188 1.723 . S
C218 C214 1.397 . S
C218 C217 1.394 . S
C219 H191 0.982 . S
C219 H195 0.979 . S
C219 H196 0.977 . S
C219 C216 1.453 . S
C220 H192 0.979 . S
C220 H193 0.980 . S
C220 H194 0.983 . S
C220 C216 1.684 . S
H221 C239 0.948 . S
H222 C180 0.948 . S
H223 C198 0.979 . S
H224 C198 0.980 . S
H225 C198 0.983 . S
H226 C197 0.980 1_455 S
H227 C197 0.979 1_455 S
H228 C197 0.978 . S
H229 C199 0.948 . S
H230 C201 0.947 . S
H231 C202 0.948 . S
H232 C208 0.982 . S
H233 C208 0.979 . S
H234 C208 0.977 . S
H235 C209 0.979 . S
H236 C209 0.980 . S
H237 C209 0.983 . S
H238 C182 0.947 . S
C239 C182 1.392 . S
C239 C183 1.419 . S
C239 H221 0.948 . S
C240 C241 1.391 . S
C240 C244 1.391 . S
C240 H282 0.948 . S
C241 C240 1.391 . S
C241 C242 1.391 . S
C242 C241 1.391 . S
C242 H298 0.947 . S
C242 C299 1.392 . S
C243 C244 1.391 . S
C243 C247 1.397 . S
C243 C299 1.419 . S
C244 C240 1.391 . S
C244 C243 1.391 . S
C244 C245 1.399 . S
C245 C244 1.399 . S
C245 C248 1.396 . S
C245 C257 1.453 . S
C245 C258 1.684 . S
H246 C270 0.948 . S
C247 C243 1.397 . S
C247 C248 1.394 . S
C247 C266 1.723 . S
C248 C245 1.396 . S
C248 C247 1.394 . S
C248 C278 1.723 . S
H249 C272 0.947 . S
H250 C273 0.948 . S
H251 C279 0.982 . S
H252 C280 0.979 1_545 S
H253 C280 0.980 . S
H254 C280 0.983 1_545 S
H255 C279 0.979 . S
H256 C279 0.977 . S
C257 C245 1.453 . S
C257 H286 0.982 . S
C257 H287 0.979 . S
C257 H288 0.977 . S
C258 C245 1.684 . S
C258 H283 0.979 . S
C258 H284 0.980 . S
C258 H285 0.983 1_556 S
C259 C260 1.391 . S
C259 C264 1.391 . S
C259 H289 0.948 . S
C260 C259 1.391 . S
C260 C261 1.391 . S
C261 C260 1.391 . S
C261 C262 1.392 . S
C261 H290 0.947 . S
C262 C261 1.392 . S
C262 C263 1.419 . S
C262 H291 0.948 . S
C263 C262 1.419 . S
C263 C264 1.391 . S
C263 C267 1.397 . S
C264 C259 1.391 . S
C264 C263 1.391 . S
C264 C265 1.399 . S
C265 C264 1.399 . S
C265 C266 1.396 . S
C265 C268 1.453 . S
C265 C269 1.684 . S
C266 C247 1.723 . S
C266 C265 1.396 . S
C266 C267 1.394 . S
C267 C263 1.397 . S
C267 C266 1.394 . S
C267 C277 1.723 . S
C268 C265 1.453 . S
C268 H292 0.982 . S
C268 H293 0.979 . S
C268 H294 0.977 . S
C269 C265 1.684 . S
C269 H295 0.979 . S
C269 H296 0.980 . S
C269 H297 0.983 . S
C270 H246 0.948 . S
C270 C271 1.391 . S
C270 C275 1.391 . S
C271 C270 1.391 . S
C271 C272 1.391 . S
C272 H249 0.947 . S
C272 C271 1.391 . S
C272 C273 1.392 . S
C273 H250 0.948 . S
C273 C272 1.392 . S
C273 C274 1.419 . S
C274 C273 1.419 . S
C274 C275 1.391 . S
C274 C278 1.397 . S
C275 C270 1.391 . S
C275 C274 1.391 . S
C275 C276 1.399 . S
C276 C275 1.399 . S
C276 C277 1.396 . S
C276 C279 1.453 . S
C276 C280 1.684 . S
C277 C267 1.723 . S
C277 C276 1.396 . S
C277 C278 1.394 . S
C278 C248 1.723 . S
C278 C274 1.397 . S
C278 C277 1.394 . S
C279 H251 0.982 . S
C279 H255 0.979 . S
C279 H256 0.977 . S
C279 C276 1.453 . S
C280 H252 0.979 1_565 S
C280 H253 0.980 . S
C280 H254 0.983 1_565 S
C280 C276 1.684 . S
H281 C299 0.948 . S
H282 C240 0.948 . S
H283 C258 0.979 . S
H284 C258 0.980 . S
H285 C258 0.983 1_554 S
H286 C257 0.982 . S
H287 C257 0.979 . S
H288 C257 0.977 . S
H289 C259 0.948 . S
H290 C261 0.947 . S
H291 C262 0.948 . S
H292 C268 0.982 . S
H293 C268 0.979 . S
H294 C268 0.977 . S
H295 C269 0.979 . S
H296 C269 0.980 . S
H297 C269 0.983 . S
H298 C242 0.947 . S
C299 C242 1.392 . S
C299 C243 1.419 . S
C299 H281 0.948 . S
C300 C301 1.391 . S
C300 C304 1.391 . S
C300 H342 0.948 . S
C301 C300 1.391 . S
C301 C302 1.391 . S
C302 C301 1.391 . S
C302 H358 0.947 . S
C302 C359 1.392 . S
C303 C304 1.391 . S
C303 C307 1.397 . S
C303 C359 1.419 . S
C304 C300 1.391 . S
C304 C303 1.391 . S
C304 C305 1.399 . S
C305 C304 1.399 . S
C305 C308 1.396 . S
C305 C317 1.453 . S
C305 C318 1.684 . S
H306 C330 0.948 . S
C307 C303 1.397 . S
C307 C308 1.394 . S
C307 C326 1.723 . S
C308 C305 1.396 . S
C308 C307 1.394 . S
C308 C338 1.723 . S
H309 C332 0.947 . S
H310 C333 0.948 . S
H311 C339 0.982 . S
H312 C340 0.979 . S
H313 C340 0.980 . S
H314 C340 0.983 . S
H315 C339 0.979 . S
H316 C339 0.977 . S
C317 C305 1.453 . S
C317 H346 0.982 . S
C317 H347 0.979 . S
C317 H348 0.977 . S
C318 C305 1.684 . S
C318 H343 0.979 . S
C318 H344 0.980 . S
C318 H345 0.983 . S
C319 C320 1.391 . S
C319 C324 1.391 . S
C319 H349 0.948 . S
C320 C319 1.391 . S
C320 C321 1.391 . S
C321 C320 1.391 . S
C321 C322 1.392 . S
C321 H350 0.947 . S
C322 C321 1.392 . S
C322 C323 1.419 . S
C322 H351 0.948 . S
C323 C322 1.419 . S
C323 C324 1.391 . S
C323 C327 1.397 . S
C324 C319 1.391 . S
C324 C323 1.391 . S
C324 C325 1.399 . S
C325 C324 1.399 . S
C325 C326 1.396 . S
C325 C328 1.453 . S
C325 C329 1.684 . S
C326 C307 1.723 . S
C326 C325 1.396 . S
C326 C327 1.394 . S
C327 C323 1.397 . S
C327 C326 1.394 . S
C327 C337 1.723 . S
C328 C325 1.453 . S
C328 H352 0.982 . S
C328 H353 0.979 . S
C328 H354 0.977 . S
C329 C325 1.684 . S
C329 H355 0.979 . S
C329 H356 0.980 . S
C329 H357 0.983 . S
C330 H306 0.948 . S
C330 C331 1.391 . S
C330 C335 1.391 . S
C331 C330 1.391 . S
C331 C332 1.391 . S
C332 H309 0.947 . S
C332 C331 1.391 . S
C332 C333 1.392 . S
C333 H310 0.948 . S
C333 C332 1.392 . S
C333 C334 1.419 . S
C334 C333 1.419 . S
C334 C335 1.391 . S
C334 C338 1.397 . S
C335 C330 1.391 . S
C335 C334 1.391 . S
C335 C336 1.399 . S
C336 C335 1.399 . S
C336 C337 1.396 . S
C336 C339 1.453 . S
C336 C340 1.684 . S
C337 C327 1.723 . S
C337 C336 1.396 . S
C337 C338 1.394 . S
C338 C308 1.723 . S
C338 C334 1.397 . S
C338 C337 1.394 . S
C339 H311 0.982 . S
C339 H315 0.979 . S
C339 H316 0.977 . S
C339 C336 1.453 . S
C340 H312 0.979 . S
C340 H313 0.980 . S
C340 H314 0.983 . S
C340 C336 1.684 . S
H341 C359 0.948 . S
H342 C300 0.948 . S
H343 C318 0.979 . S
H344 C318 0.980 . S
H345 C318 0.983 . S
H346 C317 0.982 . S
H347 C317 0.979 . S
H348 C317 0.977 . S
H349 C319 0.948 . S
H350 C321 0.947 . S
H351 C322 0.948 . S
H352 C328 0.982 . S
H353 C328 0.979 . S
H354 C328 0.977 . S
H355 C329 0.979 . S
H356 C329 0.980 . S
H357 C329 0.983 . S
H358 C302 0.947 . S
C359 C302 1.392 . S
C359 C303 1.419 . S
C359 H341 0.948 . S
C360 C361 1.391 . S
C360 C364 1.391 . S
C360 H402 0.948 . S
C361 C360 1.391 . S
C361 C362 1.391 . S
C362 C361 1.391 . S
C362 H418 0.947 . S
C362 C419 1.392 . S
C363 C364 1.391 . S
C363 C367 1.397 . S
C363 C419 1.419 . S
C364 C360 1.391 . S
C364 C363 1.391 . S
C364 C365 1.399 . S
C365 C364 1.399 . S
C365 C368 1.396 . S
C365 C377 1.453 . S
C365 C378 1.684 . S
H366 C390 0.948 . S
C367 C363 1.397 . S
C367 C368 1.394 . S
C367 C386 1.723 . S
C368 C365 1.396 . S
C368 C367 1.394 . S
C368 C398 1.723 . S
H369 C392 0.947 . S
H370 C393 0.948 . S
H371 C399 0.982 . S
H372 C400 0.979 . S
H373 C400 0.980 . S
H374 C400 0.983 . S
H375 C399 0.979 . S
H376 C399 0.977 . S
C377 C365 1.453 . S
C377 H406 0.982 . S
C377 H407 0.979 . S
C377 H408 0.977 . S
C378 C365 1.684 . S
C378 H403 0.979 . S
C378 H404 0.980 . S
C378 H405 0.983 . S
C379 C380 1.391 . S
C379 C384 1.391 . S
C379 H409 0.948 . S
C380 C379 1.391 . S
C380 C381 1.391 . S
C381 C380 1.391 . S
C381 C382 1.392 . S
C381 H410 0.947 . S
C382 C381 1.392 . S
C382 C383 1.419 . S
C382 H411 0.948 . S
C383 C382 1.419 . S
C383 C384 1.391 . S
C383 C387 1.397 . S
C384 C379 1.391 . S
C384 C383 1.391 . S
C384 C385 1.399 . S
C385 C384 1.399 . S
C385 C386 1.396 . S
C385 C388 1.453 . S
C385 C389 1.684 . S
C386 C367 1.723 . S
C386 C385 1.396 . S
C386 C387 1.394 . S
C387 C383 1.397 . S
C387 C386 1.394 . S
C387 C397 1.723 . S
C388 C385 1.453 . S
C388 H412 0.982 . S
C388 H413 0.979 . S
C388 H414 0.977 . S
C389 C385 1.684 . S
C389 H415 0.979 . S
C389 H416 0.980 . S
C389 H417 0.983 . S
C390 H366 0.948 . S
C390 C391 1.391 . S
C390 C395 1.391 . S
C391 C390 1.391 . S
C391 C392 1.391 . S
C392 H369 0.947 . S
C392 C391 1.391 . S
C392 C393 1.392 . S
C393 H370 0.948 . S
C393 C392 1.392 . S
C393 C394 1.419 . S
C394 C393 1.419 . S
C394 C395 1.391 . S
C394 C398 1.397 . S
C395 C390 1.391 . S
C395 C394 1.391 . S
C395 C396 1.399 . S
C396 C395 1.399 . S
C396 C397 1.396 . S
C396 C399 1.453 . S
C396 C400 1.684 . S
C397 C387 1.723 . S
C397 C396 1.396 . S
C397 C398 1.394 . S
C398 C368 1.723 . S
C398 C394 1.397 . S
C398 C397 1.394 . S
C399 H371 0.982 . S
C399 H375 0.979 . S
C399 H376 0.977 . S
C399 C396 1.453 . S
C400 H372 0.979 . S
C400 H373 0.980 . S
C400 H374 0.983 . S
C400 C396 1.684 . S
H401 C419 0.948 . S
H402 C360 0.948 . S
H403 C378 0.979 . S
H404 C378 0.980 . S
H405 C378 0.983 . S
H406 C377 0.982 . S
H407 C377 0.979 . S
H408 C377 0.977 . S
H409 C379 0.948 . S
H410 C381 0.947 . S
H411 C382 0.948 . S
H412 C388 0.982 . S
H413 C388 0.979 . S
H414 C388 0.977 . S
H415 C389 0.979 . S
H416 C389 0.980 . S
H417 C389 0.983 . S
H418 C362 0.947 . S
C419 C362 1.392 . S
C419 C363 1.419 . S
C419 H401 0.948 . S
C420 C421 1.391 . S
C420 C424 1.391 . S
C420 H462 0.948 . S
C421 C420 1.391 . S
C421 C422 1.391 . S
C422 C421 1.391 . S
C422 H478 0.947 . S
C422 C479 1.392 . S
C423 C424 1.391 . S
C423 C427 1.397 . S
C423 C479 1.419 . S
C424 C420 1.391 . S
C424 C423 1.391 . S
C424 C425 1.399 . S
C425 C424 1.399 . S
C425 C428 1.396 . S
C425 C437 1.453 . S
C425 C438 1.684 . S
H426 C450 0.948 . S
C427 C423 1.397 . S
C427 C428 1.394 . S
C427 C446 1.723 . S
C428 C425 1.396 . S
C428 C427 1.394 . S
C428 C458 1.723 . S
H429 C452 0.947 1_655 S
H430 C453 0.948 . S
H431 C459 0.982 . S
H432 C460 0.979 . S
H433 C460 0.980 . S
H434 C460 0.983 . S
H435 C459 0.979 . S
H436 C459 0.977 . S
C437 C425 1.453 . S
C437 H466 0.981 1_455 S
C437 H467 0.979 1_455 S
C437 H468 0.979 . S
C438 C425 1.684 . S
C438 H463 0.979 . S
C438 H464 0.980 . S
C438 H465 0.983 . S
C439 C440 1.391 . S
C439 C444 1.391 . S
C439 H469 0.948 . S
C440 C439 1.391 . S
C440 C441 1.391 . S
C441 C440 1.391 . S
C441 C442 1.392 . S
C441 H470 0.947 . S
C442 C441 1.392 . S
C442 C443 1.419 . S
C442 H471 0.948 . S
C443 C442 1.419 . S
C443 C444 1.391 . S
C443 C447 1.397 . S
C444 C439 1.391 . S
C444 C443 1.391 . S
C444 C445 1.399 . S
C445 C444 1.399 . S
C445 C446 1.396 . S
C445 C448 1.453 . S
C445 C449 1.684 . S
C446 C427 1.723 . S
C446 C445 1.396 . S
C446 C447 1.394 . S
C447 C443 1.397 . S
C447 C446 1.394 . S
C447 C457 1.723 . S
C448 C445 1.453 . S
C448 H472 0.982 . S
C448 H473 0.979 . S
C448 H474 0.977 . S
C449 C445 1.684 . S
C449 H475 0.979 . S
C449 H476 0.980 . S
C449 H477 0.983 . S
C450 H426 0.948 . S
C450 C451 1.391 . S
C450 C455 1.391 . S
C451 C450 1.391 . S
C451 C452 1.391 . S
C452 H429 0.947 1_455 S
C452 C451 1.391 . S
C452 C453 1.392 . S
C453 H430 0.948 . S
C453 C452 1.392 . S
C453 C454 1.419 . S
C454 C453 1.419 . S
C454 C455 1.391 . S
C454 C458 1.397 . S
C455 C450 1.391 . S
C455 C454 1.391 . S
C455 C456 1.399 . S
C456 C455 1.399 . S
C456 C457 1.396 . S
C456 C459 1.453 . S
C456 C460 1.684 . S
C457 C447 1.723 . S
C457 C456 1.396 . S
C457 C458 1.394 . S
C458 C428 1.723 . S
C458 C454 1.397 . S
C458 C457 1.394 . S
C459 H431 0.982 . S
C459 H435 0.979 . S
C459 H436 0.977 . S
C459 C456 1.453 . S
C460 H432 0.979 . S
C460 H433 0.980 . S
C460 H434 0.983 . S
C460 C456 1.684 . S
H461 C479 0.948 . S
H462 C420 0.948 . S
H463 C438 0.979 . S
H464 C438 0.980 . S
H465 C438 0.983 . S
H466 C437 0.981 1_655 S
H467 C437 0.979 1_655 S
H468 C437 0.979 . S
H469 C439 0.948 . S
H470 C441 0.947 . S
H471 C442 0.948 . S
H472 C448 0.982 . S
H473 C448 0.979 . S
H474 C448 0.977 . S
H475 C449 0.979 . S
H476 C449 0.980 . S
H477 C449 0.983 . S
H478 C422 0.947 . S
C479 C422 1.392 . S
C479 C423 1.419 . S
C479 H461 0.948 . S
Co480 N485 2.057 . S
Co480 O497 2.021 . S
Co480 O500 2.062 . S
Co480 O504 2.117 1_545 S
Co480 O505 2.020 1_545 S
C481 O501 1.259 1_655 S
C481 O504 1.258 . S
Co482 N491 2.057 . S
Co482 O498 2.117 1_565 S
Co482 O499 2.020 1_565 S
Co482 O501 2.021 . S
Co482 O506 2.062 . S
C483 N485 1.316 . S
C483 N486 1.347 . S
C483 H488 0.931 . S
C484 N485 1.375 1_565 S
C484 C487 1.350 1_565 S
C484 H489 0.930 . S
N485 Co480 2.057 . S
N485 C483 1.316 . S
N485 C484 1.375 1_545 S
N486 C483 1.347 . S
N486 C487 1.373 . S
C487 C484 1.350 1_545 S
C487 N486 1.373 . S
C487 H508 0.931 1_545 S
H488 C483 0.931 . S
H489 C484 0.930 . S
C490 O497 1.259 1_455 S
C490 O498 1.258 . S
N491 Co482 2.057 . S
N491 C492 1.316 . S
N491 C493 1.375 1_565 S
C492 N491 1.316 . S
C492 N494 1.347 . S
C492 H503 0.931 . S
C493 N491 1.375 1_545 S
C493 C495 1.350 1_545 S
C493 H502 0.930 . S
N494 C492 1.347 . S
N494 C495 1.373 . S
C495 C493 1.350 1_565 S
C495 N494 1.373 . S
C495 H509 0.931 1_565 S
C496 O499 1.256 . S
C496 O500 1.255 1_455 S
O497 Co480 2.021 . S
O497 C490 1.259 1_655 S
O498 Co482 2.117 1_545 S
O498 C490 1.258 . S
O499 Co482 2.020 1_545 S
O499 C496 1.256 . S
O500 Co480 2.062 . S
O500 C496 1.255 1_655 S
O501 C481 1.259 1_455 S
O501 Co482 2.021 . S
H502 C493 0.930 . S
H503 C492 0.931 . S
O504 Co480 2.117 1_565 S
O504 C481 1.258 . S
O505 Co480 2.020 1_565 S
O505 C507 1.256 . S
O506 Co482 2.062 . S
O506 C507 1.255 1_455 S
C507 O505 1.256 . S
C507 O506 1.255 1_655 S
H508 C487 0.931 1_565 S
H509 C495 0.931 1_545 S
Co510 N515 2.057 . S
Co510 O527 2.021 1_565 S
Co510 O530 2.062 . S
Co510 O534 2.117 . S
Co510 O535 2.020 1_565 S
C511 O531 1.259 . S
C511 O534 1.258 1_554 S
Co512 N521 2.057 . S
Co512 O528 2.117 . S
Co512 O529 2.020 1_545 S
Co512 O531 2.021 1_545 S
Co512 O536 2.062 . S
C513 N515 1.316 . S
C513 N516 1.347 . S
C513 H518 0.931 1_565 S
C514 N515 1.375 . S
C514 C517 1.350 . S
C514 H519 0.930 . S
N515 Co510 2.057 . S
N515 C513 1.316 . S
N515 C514 1.375 . S
N516 C513 1.347 . S
N516 C517 1.373 . S
C517 C514 1.350 . S
C517 N516 1.373 . S
C517 H538 0.931 . S
H518 C513 0.931 1_545 S
H519 C514 0.930 . S
C520 O527 1.259 . S
C520 O528 1.258 1_556 S
N521 Co512 2.057 . S
N521 C522 1.316 . S
N521 C523 1.375 . S
C522 N521 1.316 . S
C522 N524 1.347 . S
C522 H533 0.931 1_545 S
C523 N521 1.375 . S
C523 C525 1.350 . S
C523 H532 0.930 . S
N524 C522 1.347 . S
N524 C525 1.373 . S
C525 C523 1.350 . S
C525 N524 1.373 . S
C525 H539 0.931 . S
C526 O529 1.256 1_556 S
C526 O530 1.255 . S
O527 Co510 2.021 1_545 S
O527 C520 1.259 . S
O528 Co512 2.117 . S
O528 C520 1.258 1_554 S
O529 Co512 2.020 1_565 S
O529 C526 1.256 1_554 S
O530 Co510 2.062 . S
O530 C526 1.255 . S
O531 C511 1.259 . S
O531 Co512 2.021 1_565 S
H532 C523 0.930 . S
H533 C522 0.931 1_565 S
O534 Co510 2.117 . S
O534 C511 1.258 1_556 S
O535 Co510 2.020 1_545 S
O535 C537 1.256 1_556 S
O536 Co512 2.062 . S
O536 C537 1.255 . S
C537 O535 1.256 1_554 S
C537 O536 1.255 . S
H538 C517 0.931 . S
H539 C525 0.931 . S
Co540 N545 2.057 . S
Co540 O557 2.021 . S
Co540 O560 2.062 . S
Co540 O564 2.117 . S
Co540 O565 2.020 . S
C541 O561 1.259 . S
C541 O564 1.258 . S
Co542 N551 2.057 . S
Co542 O558 2.117 . S
Co542 O559 2.020 . S
Co542 O561 2.021 . S
Co542 O566 2.062 . S
C543 N545 1.316 . S
C543 N546 1.347 . S
C543 H548 0.931 . S
C544 N545 1.375 . S
C544 C547 1.350 . S
C544 H549 0.930 . S
N545 Co540 2.057 . S
N545 C543 1.316 . S
N545 C544 1.375 . S
N546 C543 1.347 . S
N546 C547 1.373 . S
C547 C544 1.350 . S
C547 N546 1.373 . S
C547 H568 0.931 . S
H548 C543 0.931 . S
H549 C544 0.930 . S
C550 O557 1.259 . S
C550 O558 1.258 . S
N551 Co542 2.057 . S
N551 C552 1.316 . S
N551 C553 1.375 . S
C552 N551 1.316 . S
C552 N554 1.347 . S
C552 H563 0.931 . S
C553 N551 1.375 . S
C553 C555 1.350 . S
C553 H562 0.930 . S
N554 C552 1.347 . S
N554 C555 1.373 . S
C555 C553 1.350 . S
C555 N554 1.373 . S
C555 H569 0.931 . S
C556 O559 1.256 . S
C556 O560 1.255 . S
O557 Co540 2.021 . S
O557 C550 1.259 . S
O558 Co542 2.117 . S
O558 C550 1.258 . S
O559 Co542 2.020 . S
O559 C556 1.256 . S
O560 Co540 2.062 . S
O560 C556 1.255 . S
O561 C541 1.259 . S
O561 Co542 2.021 . S
H562 C553 0.930 . S
H563 C552 0.931 . S
O564 Co540 2.117 . S
O564 C541 1.258 . S
O565 Co540 2.020 . S
O565 C567 1.256 . S
O566 Co542 2.062 . S
O566 C567 1.255 . S
C567 O565 1.256 . S
C567 O566 1.255 . S
H568 C547 0.931 . S
H569 C555 0.931 . S
Co570 N575 2.057 . S
Co570 O587 2.021 . S
Co570 O590 2.062 . S
Co570 O594 2.117 1_455 S
Co570 O595 2.020 1_455 S
C571 O591 1.259 1_556 S
C571 O594 1.258 . S
Co572 N581 2.057 . S
Co572 O588 2.117 1_655 S
Co572 O589 2.020 1_655 S
Co572 O591 2.021 . S
Co572 O596 2.062 . S
C573 N575 1.316 . S
C573 N576 1.347 . S
C573 H578 0.931 . S
C574 N575 1.375 1_655 S
C574 C577 1.350 1_655 S
C574 H579 0.930 . S
N575 Co570 2.057 . S
N575 C573 1.316 . S
N575 C574 1.375 1_455 S
N576 C573 1.347 . S
N576 C577 1.373 . S
C577 C574 1.350 1_455 S
C577 N576 1.373 . S
C577 H598 0.931 1_455 S
H578 C573 0.931 . S
H579 C574 0.930 . S
C580 O587 1.259 1_554 S
C580 O588 1.258 . S
N581 Co572 2.057 . S
N581 C582 1.316 . S
N581 C583 1.375 1_655 S
C582 N581 1.316 . S
C582 N584 1.347 . S
C582 H593 0.931 . S
C583 N581 1.375 1_455 S
C583 C585 1.350 1_455 S
C583 H592 0.930 . S
N584 C582 1.347 . S
N584 C585 1.373 . S
C585 C583 1.350 1_655 S
C585 N584 1.373 . S
C585 H599 0.931 1_655 S
C586 O589 1.256 . S
C586 O590 1.255 1_554 S
O587 Co570 2.021 . S
O587 C580 1.259 1_556 S
O588 Co572 2.117 1_455 S
O588 C580 1.258 . S
O589 Co572 2.020 1_455 S
O589 C586 1.256 . S
O590 Co570 2.062 . S
O590 C586 1.255 1_556 S
O591 C571 1.259 1_554 S
O591 Co572 2.021 . S
H592 C583 0.930 . S
H593 C582 0.931 . S
O594 Co570 2.117 1_655 S
O594 C571 1.258 . S
O595 Co570 2.020 1_655 S
O595 C597 1.256 . S
O596 Co572 2.062 . S
O596 C597 1.255 1_554 S
C597 O595 1.256 . S
C597 O596 1.255 1_556 S
H598 C577 0.931 1_655 S
H599 C585 0.931 1_455 S
C600 C601 1.387 . S
C600 H604 0.950 1_545 S
C600 C609 1.391 . S
C601 C600 1.387 . S
C601 C603 1.387 . S
H602 C609 0.936 1_565 S
C603 C601 1.387 . S
C603 C605 1.390 . S
C603 H607 0.950 . S
H604 C600 0.950 1_565 S
C605 C603 1.390 . S
C605 C606 1.387 . S
C605 H608 0.950 . S
C606 C605 1.387 . S
C606 C609 1.400 . S
H607 C603 0.950 . S
H608 C605 0.950 . S
C609 C600 1.391 . S
C609 H602 0.936 1_545 S
C609 C606 1.400 . S
C610 C611 1.387 . S
C610 H614 0.950 . S
C610 C619 1.390 . S
C611 C610 1.387 . S
C611 C613 1.387 . S
H612 C619 0.950 . S
C613 C611 1.387 . S
C613 C615 1.390 . S
C613 H617 0.950 . S
H614 C610 0.950 . S
C615 C613 1.390 . S
C615 C616 1.387 . S
C615 H618 0.950 . S
C616 C615 1.387 . S
C616 C619 1.387 . S
H617 C613 0.950 . S
H618 C615 0.950 . S
C619 C610 1.390 . S
C619 H612 0.950 . S
C619 C616 1.387 . S
C620 C621 1.387 . S
C620 H624 0.950 . S
C620 C629 1.390 . S
C621 C620 1.387 . S
C621 C623 1.387 . S
H622 C629 0.950 . S
C623 C621 1.387 . S
C623 C625 1.390 . S
C623 H627 0.950 . S
H624 C620 0.950 . S
C625 C623 1.390 . S
C625 C626 1.387 . S
C625 H628 0.950 . S
C626 C625 1.387 . S
C626 C629 1.387 . S
H627 C623 0.950 . S
H628 C625 0.950 . S
C629 C620 1.390 . S
C629 H622 0.950 . S
C629 C626 1.387 . S
C630 C631 1.387 . S
C630 H634 0.950 . S
C630 C639 1.390 . S
C631 C630 1.387 . S
C631 C633 1.387 . S
H632 C639 0.950 . S
C633 C631 1.387 . S
C633 C635 1.390 . S
C633 H637 0.950 . S
H634 C630 0.950 . S
C635 C633 1.390 . S
C635 C636 1.387 . S
C635 H638 0.950 . S
C636 C635 1.387 . S
C636 C639 1.387 . S
H637 C633 0.950 . S
H638 C635 0.950 . S
C639 C630 1.390 . S
C639 H632 0.950 . S
C639 C636 1.387 . S
C640 C641 1.387 . S
C640 H644 0.950 . S
C640 C649 1.390 . S
C641 C640 1.387 . S
C641 C643 1.387 . S
H642 C649 0.950 . S
C643 C641 1.387 . S
C643 C645 1.390 . S
C643 H647 0.950 1_545 S
H644 C640 0.950 . S
C645 C643 1.390 . S
C645 C646 1.387 . S
C645 H648 0.950 1_545 S
C646 C645 1.387 . S
C646 C649 1.387 . S
H647 C643 0.950 1_565 S
H648 C645 0.950 1_565 S
C649 C640 1.390 . S
C649 H642 0.950 . S
C649 C646 1.387 . S
C650 C651 1.387 . S
C650 H654 0.950 . S
C650 C659 1.390 . S
C651 C650 1.387 . S
C651 C653 1.387 . S
H652 C659 0.950 . S
C653 C651 1.387 . S
C653 C655 1.390 . S
C653 H657 0.950 . S
H654 C650 0.950 . S
C655 C653 1.390 . S
C655 C656 1.387 . S
C655 H658 0.950 . S
C656 C655 1.387 . S
C656 C659 1.387 . S
H657 C653 0.950 . S
H658 C655 0.950 . S
C659 C650 1.390 . S
C659 H652 0.950 . S
C659 C656 1.387 . S
C660 C661 1.387 . S
C660 H664 0.950 . S
C660 C669 1.390 . S
C661 C660 1.387 . S
C661 C663 1.387 . S
H662 C669 0.950 . S
C663 C661 1.387 . S
C663 C665 1.390 . S
C663 H667 0.950 . S
H664 C660 0.950 . S
C665 C663 1.390 . S
C665 C666 1.387 . S
C665 H668 0.950 . S
C666 C665 1.387 . S
C666 C669 1.387 . S
H667 C663 0.950 . S
H668 C665 0.950 . S
C669 C660 1.390 . S
C669 H662 0.950 . S
C669 C666 1.387 . S
C670 C671 1.387 . S
C670 H674 0.950 . S
C670 C679 1.390 . S
C671 C670 1.387 . S
C671 C673 1.387 . S
H672 C679 0.950 . S
C673 C671 1.387 . S
C673 C675 1.390 . S
C673 H677 0.950 . S
H674 C670 0.950 . S
C675 C673 1.390 . S
C675 C676 1.387 . S
C675 H678 0.950 . S
C676 C675 1.387 . S
C676 C679 1.387 . S
H677 C673 0.950 . S
H678 C675 0.950 . S
C679 C670 1.390 . S
C679 H672 0.950 . S
C679 C676 1.387 . S
C680 C681 1.387 . S
C680 H684 0.950 1_554 S
C680 C689 1.390 1_554 S
C681 C680 1.387 . S
C681 C683 1.387 . S
H682 C689 0.954 . S
C683 C681 1.387 . S
C683 C685 1.390 . S
C683 H687 0.950 . S
H684 C680 0.950 1_556 S
C685 C683 1.390 . S
C685 C686 1.387 . S
C685 H688 0.950 . S
C686 C685 1.387 . S
C686 C689 1.384 1_554 S
H687 C683 0.950 . S
H688 C685 0.950 . S
C689 C680 1.390 1_556 S
C689 H682 0.954 . S
C689 C686 1.384 1_556 S
C690 C691 1.387 . S
C690 H694 0.950 . S
C690 C699 1.390 . S
C691 C690 1.387 . S
C691 C693 1.387 . S
H692 C699 0.950 . S
C693 C691 1.387 . S
C693 C695 1.390 . S
C693 H697 0.950 1_556 S
H694 C690 0.950 . S
C695 C693 1.390 . S
C695 C696 1.387 . S
C695 H698 0.950 1_556 S
C696 C695 1.387 . S
C696 C699 1.387 . S
H697 C693 0.950 1_554 S
H698 C695 0.950 1_554 S
C699 C690 1.390 . S
C699 H692 0.950 . S
C699 C696 1.387 . S
C700 C701 1.387 . S
C700 H704 0.950 . S
C700 C709 1.390 . S
C701 C700 1.387 . S
C701 C703 1.387 . S
H702 C709 0.950 . S
C703 C701 1.387 . S
C703 C705 1.390 . S
C703 H707 0.950 . S
H704 C700 0.950 . S
C705 C703 1.390 . S
C705 C706 1.387 . S
C705 H708 0.950 . S
C706 C705 1.387 . S
C706 C709 1.387 . S
H707 C703 0.950 . S
H708 C705 0.950 . S
C709 C700 1.390 . S
C709 H702 0.950 . S
C709 C706 1.387 . S
C710 C711 1.387 . S
C710 H714 0.950 . S
C710 C719 1.390 . S
C711 C710 1.387 . S
C711 C713 1.387 . S
H712 C719 0.950 . S
C713 C711 1.387 . S
C713 C715 1.390 . S
C713 H717 0.950 . S
H714 C710 0.950 . S
C715 C713 1.390 . S
C715 C716 1.387 . S
C715 H718 0.950 . S
C716 C715 1.387 . S
C716 C719 1.387 . S
H717 C713 0.950 . S
H718 C715 0.950 . S
C719 C710 1.390 . S
C719 H712 0.950 . S
C719 C716 1.387 . S
C720 C721 1.387 . S
C720 H724 0.950 . S
C720 C729 1.390 . S
C721 C720 1.387 . S
C721 C723 1.387 . S
H722 C729 0.950 . S
C723 C721 1.387 . S
C723 C725 1.391 . S
C723 H727 0.950 1_565 S
H724 C720 0.950 . S
C725 C723 1.391 . S
C725 C726 1.402 . S
C725 H728 0.935 1_565 S
C726 C725 1.402 . S
C726 C729 1.387 . S
H727 C723 0.950 1_545 S
H728 C725 0.935 1_545 S
C729 C720 1.390 . S
C729 H722 0.950 . S
C729 C726 1.387 . S
C730 C731 1.387 . S
C730 H734 0.950 . S
C730 C739 1.390 . S
C731 C730 1.387 . S
C731 C733 1.387 . S
H732 C739 0.950 . S
C733 C731 1.387 . S
C733 C735 1.390 . S
C733 H737 0.950 . S
H734 C730 0.950 . S
C735 C733 1.390 . S
C735 C736 1.387 . S
C735 H738 0.950 . S
C736 C735 1.387 . S
C736 C739 1.387 . S
H737 C733 0.950 . S
H738 C735 0.950 . S
C739 C730 1.390 . S
C739 H732 0.950 . S
C739 C736 1.387 . S
C740 C741 1.387 . S
C740 H744 0.950 . S
C740 C749 1.390 . S
C741 C740 1.387 . S
C741 C743 1.387 . S
H742 C749 0.950 . S
C743 C741 1.387 . S
C743 C745 1.390 . S
C743 H747 0.950 . S
H744 C740 0.950 . S
C745 C743 1.390 . S
C745 C746 1.387 . S
C745 H748 0.950 . S
C746 C745 1.387 . S
C746 C749 1.387 . S
H747 C743 0.950 . S
H748 C745 0.950 . S
C749 C740 1.390 . S
C749 H742 0.950 . S
C749 C746 1.387 . S
C750 C751 1.387 . S
C750 H754 0.950 . S
C750 C759 1.390 . S
C751 C750 1.387 . S
C751 C753 1.387 . S
H752 C759 0.950 . S
C753 C751 1.387 . S
C753 C755 1.390 . S
C753 H757 0.950 . S
H754 C750 0.950 . S
C755 C753 1.390 . S
C755 C756 1.387 . S
C755 H758 0.950 . S
C756 C755 1.387 . S
C756 C759 1.387 . S
H757 C753 0.950 . S
H758 C755 0.950 . S
C759 C750 1.390 . S
C759 H752 0.950 . S
C759 C756 1.387 . S
C760 C761 1.387 . S
C760 H764 0.950 1_565 S
C760 C769 1.390 . S
C761 C760 1.387 . S
C761 C763 1.387 . S
H762 C769 0.950 1_545 S
C763 C761 1.387 . S
C763 C765 1.390 . S
C763 H767 0.950 . S
H764 C760 0.950 1_545 S
C765 C763 1.390 . S
C765 C766 1.387 . S
C765 H768 0.950 . S
C766 C765 1.387 . S
C766 C769 1.387 . S
H767 C763 0.950 . S
H768 C765 0.950 . S
C769 C760 1.390 . S
C769 H762 0.950 1_565 S
C769 C766 1.387 . S
C770 C771 1.387 . S
C770 H774 0.950 . S
C770 C779 1.390 . S
C771 C770 1.387 . S
C771 C773 1.387 . S
H772 C779 0.950 . S
C773 C771 1.387 . S
C773 C775 1.390 . S
C773 H777 0.950 . S
H774 C770 0.950 . S
C775 C773 1.390 . S
C775 C776 1.387 . S
C775 H778 0.950 . S
C776 C775 1.387 . S
C776 C779 1.387 . S
H777 C773 0.950 . S
H778 C775 0.950 . S
C779 C770 1.390 . S
C779 H772 0.950 . S
C779 C776 1.387 . S
C780 C781 1.387 . S
C780 H784 0.950 . S
C780 C789 1.390 . S
C781 C780 1.387 . S
C781 C783 1.387 . S
H782 C789 0.950 . S
C783 C781 1.387 . S
C783 C785 1.390 . S
C783 H787 0.950 . S
H784 C780 0.950 . S
C785 C783 1.390 . S
C785 C786 1.387 . S
C785 H788 0.950 . S
C786 C785 1.387 . S
C786 C789 1.387 . S
H787 C783 0.950 . S
H788 C785 0.950 . S
C789 C780 1.390 . S
C789 H782 0.950 . S
C789 C786 1.387 . S
C790 C791 1.387 . S
C790 H794 0.950 . S
C790 C799 1.390 . S
C791 C790 1.387 . S
C791 C793 1.387 . S
H792 C799 0.950 . S
C793 C791 1.387 . S
C793 C795 1.390 . S
C793 H797 0.950 . S
H794 C790 0.950 . S
C795 C793 1.390 . S
C795 C796 1.387 . S
C795 H798 0.950 . S
C796 C795 1.387 . S
C796 C799 1.387 . S
H797 C793 0.950 . S
H798 C795 0.950 . S
C799 C790 1.390 . S
C799 H792 0.950 . S
C799 C796 1.387 . S
C800 C801 1.387 . S
C800 H804 0.950 1_556 S
C800 C809 1.389 1_556 S
C801 C800 1.387 . S
C801 C803 1.387 . S
H802 C809 0.961 . S
C803 C801 1.387 . S
C803 C805 1.390 . S
C803 H807 0.950 . S
H804 C800 0.950 1_554 S
C805 C803 1.390 . S
C805 C806 1.387 . S
C805 H808 0.950 . S
C806 C805 1.387 . S
C806 C809 1.377 1_556 S
H807 C803 0.950 . S
H808 C805 0.950 . S
C809 C800 1.389 1_554 S
C809 H802 0.961 . S
C809 C806 1.377 1_554 S
C810 C811 1.387 . S
C810 H814 0.950 . S
C810 C819 1.390 . S
C811 C810 1.387 . S
C811 C813 1.387 . S
H812 C819 0.950 . S
C813 C811 1.387 . S
C813 C815 1.390 . S
C813 H817 0.950 1_554 S
H814 C810 0.950 . S
C815 C813 1.390 . S
C815 C816 1.387 . S
C815 H818 0.950 1_554 S
C816 C815 1.387 . S
C816 C819 1.387 . S
H817 C813 0.950 1_556 S
H818 C815 0.950 1_556 S
C819 C810 1.390 . S
C819 H812 0.950 . S
C819 C816 1.387 . S
C820 C821 1.387 . S
C820 H824 0.950 . S
C820 C829 1.390 . S
C821 C820 1.387 . S
C821 C823 1.387 1_455 S
H822 C829 0.950 . S
C823 C821 1.387 1_655 S
C823 C825 1.390 . S
C823 H827 0.950 . S
H824 C820 0.950 . S
C825 C823 1.390 . S
C825 C826 1.387 1_655 S
C825 H828 0.950 . S
C826 C825 1.387 1_455 S
C826 C829 1.387 . S
H827 C823 0.950 . S
H828 C825 0.950 . S
C829 C820 1.390 . S
C829 H822 0.950 . S
C829 C826 1.387 . S
C830 C831 1.387 . S
C830 H834 0.950 . S
C830 C839 1.390 . S
C831 C830 1.387 . S
C831 C833 1.387 . S
H832 C839 0.950 . S
C833 C831 1.387 . S
C833 C835 1.390 . S
C833 H837 0.950 . S
H834 C830 0.950 . S
C835 C833 1.390 . S
C835 C836 1.387 . S
C835 H838 0.950 . S
C836 C835 1.387 . S
C836 C839 1.387 . S
H837 C833 0.950 . S
H838 C835 0.950 . S
C839 C830 1.390 . S
C839 H832 0.950 . S
C839 C836 1.387 . S
C601 C1 2.131 . S
C606 C496 2.176 . S
C611 C80 1.171 . S
C616 N516 1.196 . S
C626 C550 2.037 . S
C621 C140 1.970 . S
C631 C211 1.393 . S
C636 N584 1.319 . S
C646 C537 2.324 . S
C641 C31 2.311 . S
C656 N494 1.219 . S
C651 C61 1.192 . S
C666 C571 2.057 . S
C661 C151 1.961 . S
C676 N546 1.160 . S
C671 C200 1.064 . S
C681 C20 1.845 . S
C686 C586 1.858 . S
C696 C520 1.769 . S
C691 C121 1.668 . S
C701 C181 1.436 . S
C706 C481 1.548 . S
C711 C91 1.413 . S
C716 C567 1.502 . S
C726 C507 2.176 . S
C721 C260 2.173 . S
C731 C320 1.174 . S
C736 N524 1.192 . S
C741 C361 2.035 . S
C746 C541 2.037 . S
C751 C451 1.394 . S
C756 N576 1.320 . S
C761 C271 2.304 . S
C766 C526 2.325 . S
C776 N486 1.220 . S
C771 C301 1.192 . S
C786 C580 2.057 . S
C781 C380 2.018 . S
C796 N554 1.160 . S
C791 C440 1.063 . S
C801 C241 1.814 . S
C806 C597 1.858 . S
C816 C511 1.768 . S
C811 C391 1.738 . S
C826 C490 1.546 . S
C821 C421 1.433 . S
C831 C331 1.409 . S
C836 C556 1.501 . S
