# Generated by pormake.
# Topology rtl, (3,6)-cn, num edge types: 1
# Building blocks:
#     Node 0, Type 0, BuildingBlock: QEWDON_clean_linker_0, # of connection points: 3
#     Node 1, Type 0, BuildingBlock: QEWDON_clean_linker_0, # of connection points: 3
#     Node 2, Type 0, BuildingBlock: QEWDON_clean_linker_0, # of connection points: 3
#     Node 3, Type 0, BuildingBlock: QEWDON_clean_linker_0, # of connection points: 3
#     Node 4, Type 1, BuildingBlock: LEVNOQ01_clean_sbu_1, # of connection points: 6
#     Node 5, Type 1, BuildingBlock: LEVNOQ01_clean_sbu_1, # of connection points: 6
#     Edge 6, Type (0, 1), BuildingBlock: EZIPEK_clean_linker_0, # of connection points: 2
#     Edge 7, Type (0, 1), BuildingBlock: EZIPEK_clean_linker_0, # of connection points: 2
#     Edge 8, Type (0, 1), BuildingBlock: EZIPEK_clean_linker_0, # of connection points: 2
#     Edge 9, Type (0, 1), BuildingBlock: EZIPEK_clean_linker_0, # of connection points: 2
#     Edge 10, Type (0, 1), BuildingBlock: EZIPEK_clean_linker_0, # of connection points: 2
#     Edge 11, Type (0, 1), BuildingBlock: EZIPEK_clean_linker_0, # of connection points: 2
#     Edge 12, Type (0, 1), BuildingBlock: EZIPEK_clean_linker_0, # of connection points: 2
#     Edge 13, Type (0, 1), BuildingBlock: EZIPEK_clean_linker_0, # of connection points: 2
#     Edge 14, Type (0, 1), BuildingBlock: EZIPEK_clean_linker_0, # of connection points: 2
#     Edge 15, Type (0, 1), BuildingBlock: EZIPEK_clean_linker_0, # of connection points: 2
#     Edge 16, Type (0, 1), BuildingBlock: EZIPEK_clean_linker_0, # of connection points: 2
#     Edge 17, Type (0, 1), BuildingBlock: EZIPEK_clean_linker_0, # of connection points: 2
# Relax obj value: 0.038
# Max RMSD: 0.167
# Mean RMSD: 0.132
data_MOF--net-rtl--node1-LEVNOQ01_clean_sbu_1--node2-QEWDON_clean_linker_0--edge1-EZIPEK_clean_linker_0
_symmetry_space_group_name_H-M    P1
_symmetry_Int_Tables_number       1
_symmetry_cell_setting            triclinic
loop_
_symmetry_equiv_pos_as_xyz
'x, y, z'
_cell_length_a     28.103764
_cell_length_b     27.818748
_cell_length_c     15.900275
_cell_angle_alpha  92.638438
_cell_angle_beta   102.78948
_cell_angle_gamma 90.533752
loop_
_atom_site_label
_atom_site_type_symbol
_atom_site_fract_x
_atom_site_fract_y
_atom_site_fract_z
_atom_type_partial_charge
H0 H 0.25032 0.8694 0.22406 0.0
C1 C 0.23454 0.8851 0.16325 0.0
C2 C 0.18905 0.90739 0.15221 0.0
C3 C 0.26032 0.88475 0.0967 0.0
H4 H 0.13259 0.94249 0.06308 0.0
C5 C 0.1682 0.92622 0.07233 0.0
C6 C 0.19281 0.92552 1.00476 0.0
C7 C 0.2394 0.90557 0.01799 0.0
C8 C 0.30926 0.86311 0.10824 0.0
H9 H 0.25903 0.90571 0.96648 0.0
C10 C 0.31704 0.81545 0.13407 0.0
C11 C 0.36063 0.79215 0.12787 0.0
C12 C 0.34741 0.88885 0.08553 0.0
H13 H 0.34258 0.92575 0.06681 0.0
C14 C 0.39175 0.86698 0.08504 0.0
H15 H 0.28787 0.79531 0.1519 0.0
C16 C 0.39805 0.81877 0.10437 0.0
H17 H 0.43195 0.80188 0.09923 0.0
H18 H 0.42079 0.887 0.06678 0.0
H19 H 0.73716 0.73628 0.54772 0.0
C20 C 0.71398 0.72351 0.58834 0.0
C21 C 0.67706 0.68884 0.55326 0.0
C22 C 0.72218 0.73914 0.67664 0.0
H23 H 0.62485 0.63862 0.58221 0.0
C24 C 0.6507 0.66775 0.60765 0.0
C25 C 0.65708 0.6839 0.69419 0.0
C26 C 0.69055 0.72149 0.72624 0.0
C27 C 0.76543 0.77024 0.72063 0.0
H28 H 0.69328 0.73509 0.79207 0.0
C29 C 0.78765 0.80354 0.67594 0.0
C30 C 0.82911 0.83088 0.7194 0.0
C31 C 0.78631 0.76513 0.80924 0.0
H32 H 0.77277 0.73842 0.84591 0.0
C33 C 0.82616 0.79349 0.8524 0.0
H34 H 0.77356 0.80797 0.60771 0.0
C35 C 0.84745 0.82632 0.80791 0.0
H36 H 0.87936 0.84704 0.84177 0.0
H37 H 0.84135 0.78911 0.92031 0.0
H38 H 0.76667 0.1784 0.05024 0.0
C39 C 0.78563 0.17047 0.99899 0.0
C40 C 0.83103 0.14741 0.01774 0.0
C41 C 0.76338 0.18017 0.91301 0.0
H42 H 0.89036 0.12016 0.96471 0.0
C43 C 0.8552 0.13739 0.95081 0.0
C44 C 0.83397 0.14829 0.86569 0.0
C45 C 0.7877 0.16857 0.84689 0.0
C46 C 0.71375 0.20012 0.89005 0.0
H47 H 0.77093 0.17591 0.78059 0.0
C48 C 0.70258 0.24379 0.92863 0.0
C49 C 0.65551 0.2628 0.9044 0.0
C50 C 0.67754 0.17595 0.8265 0.0
H51 H 0.68535 0.14229 0.79568 0.0
C52 C 0.63083 0.1947 0.80276 0.0
H53 H 0.73021 0.26289 0.97745 0.0
C54 C 0.61969 0.23781 0.8418 0.0
H55 H 0.58313 0.25168 0.82351 0.0
H56 H 0.60312 0.17563 0.75425 0.0
H57 H 0.33989 0.29459 0.59443 0.0
C58 C 0.35459 0.31891 0.55485 0.0
C59 C 0.38149 0.36042 0.59376 0.0
C60 C 0.34891 0.3081 0.4653 0.0
H61 H 0.42554 0.42101 0.57352 0.0
C62 C 0.403 0.39032 0.54335 0.0
C63 C 0.39755 0.37989 0.45512 0.0
C64 C 0.3693 0.33994 0.41609 0.0
C65 C 0.32585 0.26216 0.4223 0.0
H66 H 0.36542 0.33246 0.34734 0.0
C67 C 0.28166 0.24384 0.43724 0.0
C68 C 0.25962 0.20184 0.39111 0.0
C69 C 0.34793 0.23697 0.36242 0.0
H70 H 0.38254 0.24916 0.35089 0.0
C71 C 0.32581 0.19577 0.31645 0.0
H72 H 0.26422 0.26223 0.48357 0.0
C73 C 0.28168 0.17843 0.33012 0.0
H74 H 0.26515 0.14609 0.29451 0.0
H75 H 0.34309 0.17709 0.27029 0.0
O76 O 0.99929 0.13852 0.65837 0.0
Mg77 Mg 0.06389 0.11559 0.62611 0.0
O78 O 0.96451 0.07271 0.58856 0.0
Mg79 Mg 0.01282 0.03367 0.50615 0.0
O80 O 0.06733 0.09792 0.50204 0.0
O81 O 0.10256 0.1643 0.57774 0.0
O82 O 0.05977 0.9921 0.41802 0.0
O83 O 0.96182 0.06687 0.38536 0.0
Mg84 Mg 0.95891 0.95471 0.38731 0.0
O85 O 0.95797 0.97052 0.51296 0.0
O86 O 0.02342 0.9219 0.37509 0.0
O87 O 0.92658 1.00603 0.29906 0.0
O88 O 0.91244 0.91153 0.4306 0.0
C89 C 0.09446 0.02096 0.69809 0.0
C90 C 0.96335 0.10948 0.63869 0.0
C91 C 0.0961 0.13578 0.50964 0.0
C92 C 0.05919 0.9504 0.37983 0.0
C93 C 0.93336 0.05091 0.31521 0.0
C94 C 0.92697 0.93451 0.50433 0.0
O95 O 0.10398 0.06578 0.70592 0.0
O96 O 0.06294 1.00287 0.63288 0.0
O97 O 0.64063 0.56232 0.19049 0.0
Mg98 Mg 0.59814 0.4986 0.17932 0.0
O99 O 0.56591 0.58066 0.19145 0.0
Mg100 Mg 0.52009 0.52791 0.07382 0.0
O101 O 0.57625 0.46409 0.06203 0.0
O102 O 0.6419 0.44392 0.16284 0.0
O103 O 0.47382 0.47383 0.96672 0.0
O104 O 0.55682 0.56721 0.97202 0.0
Mg105 Mg 0.45495 0.57505 0.95397 0.0
O106 O 0.45751 0.58549 0.084 0.0
O107 O 0.42363 0.51565 0.87422 0.0
O108 O 0.50285 0.61803 0.9084 0.0
O109 O 0.40117 0.6155 0.97723 0.0
C110 C 0.5086 0.47689 0.24588 0.0
C111 C 0.61167 0.58937 0.21889 0.0
C112 C 0.61331 0.43627 0.0879 0.0
C113 C 0.44105 0.47558 0.89736 0.0
C114 C 0.54496 0.60091 0.91954 0.0
C115 C 0.4197 0.61258 0.05854 0.0
O116 O 0.55471 0.481 0.27025 0.0
O117 O 0.48707 0.48857 0.17094 0.0
C118 C 0.21808 0.13846 0.45782 0.0
C119 C 0.21457 0.18032 0.40916 0.0
C120 C 0.12657 0.18312 0.40247 0.0
C121 C 0.13053 0.14212 0.45294 0.0
N122 N 0.1759 0.07333 0.50924 0.0
N123 N 0.16478 0.23618 0.31836 0.0
C124 C 0.17492 0.11704 0.47311 0.0
C125 C 0.16844 0.20062 0.37583 0.0
N126 N 0.26295 0.12087 0.49368 0.0
N127 N 0.08306 0.20614 0.38316 0.0
H128 H 0.19491 0.25 0.29843 0.0
H129 H 0.13173 0.24962 0.2857 0.0
H130 H 0.05144 0.19209 0.39785 0.0
H131 H 0.07855 0.23943 0.35542 0.0
H132 H 0.26843 0.0939 0.53785 0.0
H133 H 0.29557 0.13577 0.48487 0.0
H134 H 0.20614 0.0513 0.51939 0.0
H135 H 0.14488 0.05693 0.52181 0.0
C136 C 0.33539 0.70471 0.08551 0.0
C137 C 0.36731 0.73929 0.1392 0.0
C138 C 0.42791 0.67634 0.18045 0.0
C139 C 0.39824 0.64453 0.11799 0.0
N140 N 0.31612 0.61979 0.05255 0.0
N141 N 0.43425 0.75328 0.26225 0.0
C142 C 0.34881 0.65579 0.08715 0.0
C143 C 0.41038 0.72329 0.19553 0.0
N144 N 0.29549 0.71832 0.026 0.0
N145 N 0.47295 0.66245 0.22259 0.0
H146 H 0.42108 0.78721 0.2749 0.0
H147 H 0.46407 0.74314 0.30905 0.0
H148 H 0.48402 0.62692 0.21954 0.0
H149 H 0.49874 0.68576 0.26134 0.0
H150 H 0.27445 0.69414 0.98036 0.0
H151 H 0.28591 0.75389 0.01551 0.0
H152 H 0.2787 0.62527 0.03344 0.0
H153 H 0.32666 0.58386 0.05193 0.0
C154 C 0.84161 0.90847 0.65056 0.0
C155 C 0.85686 0.86112 0.67161 0.0
C156 C 0.92877 0.87269 0.61097 0.0
C157 C 0.90953 0.91647 0.57807 0.0
N158 N 0.84944 0.97809 0.56682 0.0
N159 N 0.91293 0.79622 0.66719 0.0
C160 C 0.86672 0.93535 0.59898 0.0
C161 C 0.90025 0.84286 0.65142 0.0
N162 N 0.8035 0.92757 0.68047 0.0
N163 N 0.97451 0.8599 0.60323 0.0
H164 H 0.89292 0.77295 0.69639 0.0
H165 H 0.94107 0.77925 0.64527 0.0
H166 H 0.99616 0.88166 0.57431 0.0
H167 H 0.99279 0.83058 0.63261 0.0
H168 H 0.79288 0.96316 0.67365 0.0
H169 H 0.78409 0.9084 0.71726 0.0
H170 H 0.81576 0.99184 0.57143 0.0
H171 H 0.8687 0.99939 0.5328 0.0
C172 C 0.6347 0.30485 0.03352 0.0
C173 C 0.64263 0.30732 0.94887 0.0
C174 C 0.62988 0.39471 0.95306 0.0
C175 C 0.62045 0.39194 0.03678 0.0
N176 N 0.60571 0.34355 0.15125 0.0
N177 N 0.64152 0.35229 0.82235 0.0
C178 C 0.6207 0.34676 0.07549 0.0
C179 C 0.63805 0.35158 0.90671 0.0
N180 N 0.6412 0.26239 0.07448 0.0
N181 N 0.63367 0.43874 0.9199 0.0
H182 H 0.65045 0.32213 0.78801 0.0
H183 H 0.63267 0.38186 0.78455 0.0
H184 H 0.628 0.47101 0.95193 0.0
H185 H 0.64569 0.44381 0.86351 0.0
H186 H 0.64316 0.25966 0.14023 0.0
H187 H 0.64744 0.2298 0.04404 0.0
H188 H 0.59857 0.31119 0.17685 0.0
H189 H 0.59674 0.37331 0.18608 0.0
C190 C 0.17777 0.93907 0.29948 0.0
C191 C 0.16082 0.91084 0.22137 0.0
C192 C 0.07811 0.91381 0.24406 0.0
C193 C 0.09522 0.93733 0.32686 0.0
N194 N 0.16438 0.96057 0.44176 0.0
N195 N 0.09794 0.85789 0.1371 0.0
C196 C 0.14606 0.94641 0.35744 0.0
C197 C 0.1121 0.89324 0.20047 0.0
N198 N 0.22273 0.96106 0.31661 0.0
N199 N 0.02992 0.91445 0.20306 0.0
H200 H 0.12253 0.84144 0.10488 0.0
H201 H 0.06328 0.84172 0.12386 0.0
H202 H 1.0041 0.93455 0.22653 0.0
H203 H 0.0171 0.90065 0.13989 0.0
H204 H 0.23431 0.98595 0.36837 0.0
H205 H 0.24674 0.95769 0.2754 0.0
H206 H 0.20173 0.96306 0.46874 0.0
H207 H 0.14247 0.96493 0.48645 0.0
C208 C 0.65459 0.64198 0.83185 0.0
C209 C 0.62958 0.66043 0.75219 0.0
C210 C 0.55381 0.62561 0.77468 0.0
C211 C 0.57653 0.61662 0.86157 0.0
N212 N 0.64906 0.62363 0.97677 0.0
N213 N 0.55208 0.67925 0.65959 0.0
C214 C 0.62721 0.62663 0.89153 0.0
C215 C 0.57818 0.65501 0.72689 0.0
N216 N 0.70408 0.63722 0.84935 0.0
N217 N 0.50972 0.60464 0.73628 0.0
H218 H 0.56803 0.70392 0.62618 0.0
H219 H 0.51402 0.67891 0.64395 0.0
H220 H 0.49248 0.57922 0.76626 0.0
H221 H 0.49379 0.60773 0.67101 0.0
H222 H 0.72319 0.62021 0.90331 0.0
H223 H 0.72521 0.64512 0.80531 0.0
H224 H 0.68497 0.63511 1.00237 0.0
H225 H 0.63021 0.6142 0.02327 0.0
C226 C 0.83035 0.09304 0.14088 0.0
C227 C 0.85315 0.13062 0.10567 0.0
C228 C 0.92856 0.12095 0.21622 0.0
C229 C 0.90516 0.0841 0.25229 0.0
N230 N 0.82924 0.04812 0.2672 0.0
N231 N 0.91859 0.18942 0.12492 0.0
C232 C 0.85449 0.07454 0.22055 0.0
C233 C 0.90051 0.14767 0.14875 0.0
N234 N 0.78728 0.0725 0.09598 0.0
N235 N 0.97787 0.12853 0.24192 0.0
H236 H 0.89856 0.20992 0.07648 0.0
H237 H 0.951 0.20604 0.15878 0.0
H238 H 1.00007 0.10944 0.28979 0.0
H239 H 0.99741 0.15121 0.21091 0.0
H240 H 0.77223 0.04147 0.11477 0.0
H241 H 0.76875 0.08345 0.03597 0.0
H242 H 0.7914 0.04365 0.25085 0.0
H243 H 0.84547 0.03546 0.32743 0.0
C244 C 0.44027 0.36942 0.73587 0.0
C245 C 0.39159 0.37273 0.68831 0.0
C246 C 0.37352 0.42546 0.80435 0.0
C247 C 0.42436 0.43202 0.83951 0.0
N248 N 0.50729 0.40946 0.83714 0.0
N249 N 0.3103 0.40185 0.67822 0.0
C250 C 0.45814 0.40275 0.80669 0.0
C251 C 0.35739 0.39925 0.72385 0.0
N252 N 0.46967 0.33534 0.71083 0.0
N253 N 0.3409 0.44461 0.84809 0.0
H254 H 0.29713 0.38181 0.62053 0.0
H255 H 0.28508 0.42541 0.69543 0.0
H256 H 0.35206 0.46301 0.9081 0.0
H257 H 0.3034 0.43807 0.8295 0.0
H258 H 0.50436 0.32808 0.74676 0.0
H259 H 0.457 0.31106 0.65838 0.0
H260 H 0.53318 0.3934 0.80775 0.0
H261 H 0.52275 0.43348 0.88805 0.0
C262 C 0.63431 0.69151 0.39536 0.0
C263 C 0.66812 0.66946 0.46185 0.0
C264 C 0.66197 0.59522 0.3717 0.0
C265 C 0.63087 0.61791 0.3019 0.0
N266 N 0.59468 0.69062 0.24278 0.0
N267 N 0.72396 0.60551 0.50407 0.0
C268 C 0.61919 0.66707 0.31233 0.0
C269 C 0.68547 0.6232 0.44631 0.0
N270 N 0.61538 0.73495 0.41251 0.0
N271 N 0.66612 0.54627 0.37058 0.0
H272 H 0.74177 0.62516 0.55986 0.0
H273 H 0.74124 0.57377 0.49197 0.0
H274 H 0.64636 0.5232 0.32171 0.0
H275 H 0.68444 0.52798 0.42355 0.0
H276 H 0.58641 0.75031 0.3704 0.0
H277 H 0.62702 0.75437 0.47136 0.0
H278 H 0.5891 0.72758 0.24425 0.0
H279 H 0.58308 0.67367 0.18162 0.0
C280 C 0.87129 0.08873 0.77768 0.0
C281 C 0.86022 0.13716 0.79595 0.0
C282 C 0.90295 0.16311 0.68703 0.0
C283 C 0.92227 0.11643 0.68224 0.0
N284 N 0.92986 0.03556 0.73477 0.0
N285 N 0.87054 0.22186 0.77499 0.0
C286 C 0.90733 0.07905 0.72961 0.0
C287 C 0.87691 0.17483 0.75185 0.0
N288 N 0.84737 0.05202 0.80628 0.0
N289 N 0.90918 0.19609 0.62911 0.0
H290 H 0.85292 0.23229 0.82388 0.0
H291 H 0.88668 0.25054 0.75099 0.0
H292 H 0.92696 0.18802 0.57925 0.0
H293 H 0.89221 0.22931 0.62486 0.0
H294 H 0.85098 0.01598 0.78829 0.0
H295 H 0.82016 0.05794 0.84064 0.0
H296 H 0.92355 0.00939 0.77607 0.0
H297 H 0.95823 0.02686 0.70484 0.0
C298 C 0.46555 0.38261 0.37775 0.0
C299 C 0.427 0.40663 0.4053 0.0
C300 C 0.4456 0.47948 0.33635 0.0
C301 C 0.48027 0.45332 0.30098 0.0
N302 N 0.51335 0.37672 0.26932 0.0
N303 N 0.37584 0.47589 0.40293 0.0
C304 C 0.48766 0.40399 0.31672 0.0
C305 C 0.41578 0.45467 0.38269 0.0
N306 N 0.48178 0.3398 0.41117 0.0
N307 N 0.44194 0.528 0.32715 0.0
H308 H 0.3534 0.45875 0.43703 0.0
H309 H 0.36282 0.50892 0.3805 0.0
H310 H 0.463 0.54703 0.29297 0.0
H311 H 0.42089 0.54993 0.35872 0.0
H312 H 0.51293 0.32329 0.39923 0.0
H313 H 0.46725 0.32324 0.45772 0.0
H314 H 0.51613 0.33949 0.27255 0.0
H315 H 0.52658 0.3906 0.21908 0.0
C316 C 0.15961 0.9226 0.84133 0.0
C317 C 0.16983 0.94869 0.9228 0.0
C318 C 0.11949 0.01386 0.85737 0.0
C319 C 0.11629 0.99218 0.77361 0.0
N320 N 0.14036 0.92776 0.68553 0.0
N321 N 0.17039 0.02567 1.00009 0.0
C322 C 0.13824 0.9469 0.76516 0.0
C323 C 0.15322 0.9964 0.92817 0.0
N324 N 0.16823 0.87445 0.83665 0.0
N325 N 0.08881 0.04991 0.8704 0.0
H326 H 0.19747 0.01521 0.05181 0.0
H327 H 0.16176 0.06199 1.00352 0.0
H328 H 0.06037 0.06105 0.82156 0.0
H329 H 0.08772 0.06411 0.93179 0.0
H330 H 0.15707 0.85305 0.78 0.0
H331 H 0.18217 0.85501 0.89086 0.0
H332 H 0.1603 0.89725 0.67677 0.0
H333 H 0.1258 0.94458 0.62861 0.0
loop_
_geom_bond_atom_site_label_1
_geom_bond_atom_site_label_2
_geom_bond_distance
_geom_bond_site_symmetry_2
_ccdc_geom_bond_type
H0 C1 0.949 . S
C1 H0 0.949 . S
C1 C2 1.395 . S
C1 C3 1.391 . S
C2 C1 1.395 . S
C2 C5 1.390 . S
C3 C1 1.391 . S
C3 C7 1.387 1_554 S
C3 C8 1.491 . S
H4 C5 0.950 . S
C5 C2 1.390 . S
C5 H4 0.950 . S
C5 C6 1.378 1_554 S
C6 C5 1.378 1_556 S
C6 C7 1.409 . S
C7 C3 1.387 1_556 S
C7 C6 1.409 . S
C7 H9 0.951 . S
C8 C3 1.491 . S
C8 C10 1.382 . S
C8 C12 1.404 1_554 S
H9 C7 0.951 . S
C10 C8 1.382 . S
C10 C11 1.390 . S
C10 H15 0.949 . S
C11 C10 1.390 . S
C11 C16 1.399 . S
C12 C8 1.404 1_556 S
C12 H13 0.950 . S
C12 C14 1.375 . S
H13 C12 0.950 . S
C14 C12 1.375 . S
C14 C16 1.382 1_556 S
C14 H18 0.950 . S
H15 C10 0.949 . S
C16 C11 1.399 . S
C16 C14 1.382 1_554 S
C16 H17 0.952 . S
H17 C16 0.952 . S
H18 C14 0.950 . S
H19 C20 0.949 . S
C20 H19 0.949 . S
C20 C21 1.395 . S
C20 C22 1.391 . S
C21 C20 1.395 . S
C21 C24 1.390 . S
C22 C20 1.391 . S
C22 C26 1.387 . S
C22 C27 1.491 . S
H23 C24 0.950 . S
C24 C21 1.390 . S
C24 H23 0.950 . S
C24 C25 1.378 . S
C25 C24 1.378 . S
C25 C26 1.409 . S
C26 C22 1.387 . S
C26 C25 1.409 . S
C26 H28 0.951 . S
C27 C22 1.491 . S
C27 C29 1.382 . S
C27 C31 1.404 . S
H28 C26 0.951 . S
C29 C27 1.382 . S
C29 C30 1.390 . S
C29 H34 0.949 . S
C30 C29 1.390 . S
C30 C35 1.399 . S
C31 C27 1.404 . S
C31 H32 0.950 . S
C31 C33 1.375 . S
H32 C31 0.950 . S
C33 C31 1.375 . S
C33 C35 1.382 . S
C33 H37 0.950 . S
H34 C29 0.949 . S
C35 C30 1.399 . S
C35 C33 1.382 . S
C35 H36 0.952 . S
H36 C35 0.952 . S
H37 C33 0.950 . S
H38 C39 0.949 . S
C39 H38 0.949 . S
C39 C40 1.395 . S
C39 C41 1.391 1_554 S
C40 C39 1.395 . S
C40 C43 1.387 1_554 S
C41 C39 1.391 1_556 S
C41 C45 1.387 . S
C41 C46 1.491 . S
H42 C43 0.949 1_554 S
C43 C40 1.387 1_556 S
C43 H42 0.949 1_556 S
C43 C44 1.382 . S
C44 C43 1.382 . S
C44 C45 1.409 . S
C45 C41 1.387 . S
C45 C44 1.409 . S
C45 H47 0.951 . S
C46 C41 1.491 . S
C46 C48 1.390 . S
C46 C50 1.404 . S
H47 C45 0.951 . S
C48 C46 1.390 . S
C48 C49 1.391 . S
C48 H53 0.940 1_556 S
C49 C48 1.391 . S
C49 C54 1.399 . S
C50 C46 1.404 . S
C50 H51 0.950 . S
C50 C52 1.375 . S
H51 C50 0.950 . S
C52 C50 1.375 . S
C52 C54 1.382 . S
C52 H56 0.950 . S
H53 C48 0.940 1_554 S
C54 C49 1.399 . S
C54 C52 1.382 . S
C54 H55 0.952 . S
H55 C54 0.952 . S
H56 C52 0.950 . S
H57 C58 0.949 . S
C58 H57 0.949 . S
C58 C59 1.395 . S
C58 C60 1.391 . S
C59 C58 1.395 . S
C59 C62 1.390 . S
C60 C58 1.391 . S
C60 C64 1.387 . S
C60 C65 1.491 . S
H61 C62 0.950 . S
C62 C59 1.390 . S
C62 H61 0.950 . S
C62 C63 1.378 . S
C63 C62 1.378 . S
C63 C64 1.409 . S
C64 C60 1.387 . S
C64 C63 1.409 . S
C64 H66 0.951 . S
C65 C60 1.491 . S
C65 C67 1.382 . S
C65 C69 1.404 . S
H66 C64 0.951 . S
C67 C65 1.382 . S
C67 C68 1.390 . S
C67 H72 0.949 . S
C68 C67 1.390 . S
C68 C73 1.399 . S
C69 C65 1.404 . S
C69 H70 0.950 . S
C69 C71 1.375 . S
H70 C69 0.950 . S
C71 C69 1.375 . S
C71 C73 1.382 . S
C71 H75 0.950 . S
H72 C67 0.949 . S
C73 C68 1.399 . S
C73 C71 1.382 . S
C73 H74 0.952 . S
H74 C73 0.952 . S
H75 C71 0.950 . S
O76 Mg77 1.990 . S
O76 C90 1.253 1_455 S
Mg77 O76 1.990 . S
Mg77 O80 2.180 . S
Mg77 O81 2.117 . S
Mg77 O95 2.030 . S
O78 Mg79 2.072 1_655 S
O78 C90 1.260 . S
Mg79 O78 2.072 1_455 S
Mg79 O80 2.099 . S
Mg79 O82 2.079 1_545 S
Mg79 O83 2.072 1_455 S
Mg79 O85 2.099 1_445 S
Mg79 O96 2.079 1_545 S
O80 Mg77 2.180 . S
O80 Mg79 2.099 . S
O80 C91 1.279 . S
O81 Mg77 2.117 . S
O81 C91 1.250 . S
O82 Mg79 2.079 1_565 S
O82 C92 1.264 . S
O83 Mg79 2.072 1_655 S
O83 C93 1.260 . S
Mg84 O85 2.180 . S
Mg84 O86 2.030 1_655 S
Mg84 O87 1.990 1_565 S
Mg84 O88 2.117 . S
O85 Mg79 2.099 1_665 S
O85 Mg84 2.180 . S
O85 C94 1.279 . S
O86 Mg84 2.030 1_455 S
O86 C92 1.248 . S
O87 Mg84 1.990 1_545 S
O87 C93 1.253 . S
O88 Mg84 2.117 . S
O88 C94 1.250 . S
C89 O95 1.248 1_565 S
C89 O96 1.264 . S
C90 O76 1.253 1_655 S
C90 O78 1.260 . S
C91 O80 1.279 . S
C91 O81 1.250 . S
C92 O82 1.264 . S
C92 O86 1.248 . S
C93 O83 1.260 . S
C93 O87 1.253 . S
C94 O85 1.279 . S
C94 O88 1.250 . S
O95 Mg77 2.030 . S
O95 C89 1.248 1_545 S
O96 Mg79 2.079 1_565 S
O96 C89 1.264 . S
O97 Mg98 1.990 . S
O97 C111 1.253 . S
Mg98 O97 1.990 . S
Mg98 O101 2.180 . S
Mg98 O102 2.117 . S
Mg98 O116 2.030 . S
O99 Mg100 2.072 . S
O99 C111 1.260 . S
Mg100 O99 2.072 . S
Mg100 O101 2.099 . S
Mg100 O103 2.079 1_554 S
Mg100 O104 2.072 1_554 S
Mg100 O106 2.099 . S
Mg100 O117 2.079 . S
O101 Mg98 2.180 . S
O101 Mg100 2.099 . S
O101 C112 1.279 . S
O102 Mg98 2.117 . S
O102 C112 1.250 . S
O103 Mg100 2.079 1_556 S
O103 C113 1.264 . S
O104 Mg100 2.072 1_556 S
O104 C114 1.260 . S
Mg105 O106 2.180 1_556 S
Mg105 O107 2.030 . S
Mg105 O108 1.990 . S
Mg105 O109 2.117 . S
O106 Mg100 2.099 . S
O106 Mg105 2.180 1_554 S
O106 C115 1.279 . S
O107 Mg105 2.030 . S
O107 C113 1.248 . S
O108 Mg105 1.990 . S
O108 C114 1.253 . S
O109 Mg105 2.117 . S
O109 C115 1.250 1_556 S
C110 O116 1.248 . S
C110 O117 1.264 . S
C111 O97 1.253 . S
C111 O99 1.260 . S
C112 O101 1.279 . S
C112 O102 1.250 . S
C113 O103 1.264 . S
C113 O107 1.248 . S
C114 O104 1.260 . S
C114 O108 1.253 . S
C115 O106 1.279 . S
C115 O109 1.250 1_554 S
O116 Mg98 2.030 . S
O116 C110 1.248 . S
O117 Mg100 2.079 . S
O117 C110 1.264 . S
C118 C119 1.363 . S
C118 C124 1.379 . S
C118 N126 1.356 . S
C119 C118 1.363 . S
C119 C125 1.363 . S
C120 C121 1.363 . S
C120 C125 1.379 . S
C120 N127 1.356 . S
C121 C120 1.363 . S
C121 C124 1.363 . S
N122 C124 1.356 . S
N122 H134 0.984 . S
N122 H135 0.985 . S
N123 C125 1.356 . S
N123 H128 0.984 . S
N123 H129 0.985 . S
C124 C118 1.379 . S
C124 C121 1.363 . S
C124 N122 1.356 . S
C125 C119 1.363 . S
C125 C120 1.379 . S
C125 N123 1.356 . S
N126 C118 1.356 . S
N126 H132 0.984 . S
N126 H133 0.984 . S
N127 C120 1.356 . S
N127 H130 0.984 . S
N127 H131 0.985 . S
H128 N123 0.984 . S
H129 N123 0.985 . S
H130 N127 0.984 . S
H131 N127 0.985 . S
H132 N126 0.984 . S
H133 N126 0.984 . S
H134 N122 0.984 . S
H135 N122 0.985 . S
C136 C137 1.363 . S
C136 C142 1.379 . S
C136 N144 1.356 1_554 S
C137 C136 1.363 . S
C137 C143 1.363 . S
C138 C139 1.363 . S
C138 C143 1.379 . S
C138 N145 1.356 . S
C139 C138 1.363 . S
C139 C142 1.363 . S
N140 C142 1.356 1_556 S
N140 H152 0.984 . S
N140 H153 0.985 . S
N141 C143 1.356 . S
N141 H146 0.984 . S
N141 H147 0.985 . S
C142 C136 1.379 . S
C142 C139 1.363 . S
C142 N140 1.356 1_554 S
C143 C137 1.363 . S
C143 C138 1.379 . S
C143 N141 1.356 . S
N144 C136 1.356 1_556 S
N144 H150 0.984 . S
N144 H151 0.984 1_556 S
N145 C138 1.356 . S
N145 H148 0.984 . S
N145 H149 0.985 . S
H146 N141 0.984 . S
H147 N141 0.985 . S
H148 N145 0.984 . S
H149 N145 0.985 . S
H150 N144 0.984 . S
H151 N144 0.984 1_554 S
H152 N140 0.984 . S
H153 N140 0.985 . S
C154 C155 1.363 . S
C154 C160 1.379 . S
C154 N162 1.356 . S
C155 C154 1.363 . S
C155 C161 1.363 . S
C156 C157 1.363 . S
C156 C161 1.379 . S
C156 N163 1.356 . S
C157 C156 1.363 . S
C157 C160 1.363 . S
N158 C160 1.356 . S
N158 H170 0.984 . S
N158 H171 0.985 . S
N159 C161 1.356 . S
N159 H164 0.984 . S
N159 H165 0.985 . S
C160 C154 1.379 . S
C160 C157 1.363 . S
C160 N158 1.356 . S
C161 C155 1.363 . S
C161 C156 1.379 . S
C161 N159 1.356 . S
N162 C154 1.356 . S
N162 H168 0.984 . S
N162 H169 0.984 . S
N163 C156 1.356 . S
N163 H166 0.984 . S
N163 H167 0.985 . S
H164 N159 0.984 . S
H165 N159 0.985 . S
H166 N163 0.984 . S
H167 N163 0.985 . S
H168 N162 0.984 . S
H169 N162 0.984 . S
H170 N158 0.984 . S
H171 N158 0.985 . S
C172 C173 1.363 . S
C172 C178 1.379 . S
C172 N180 1.356 . S
C173 C172 1.363 . S
C173 C179 1.363 1_554 S
C174 C175 1.363 1_556 S
C174 C179 1.379 . S
C174 N181 1.356 . S
C175 C174 1.363 1_554 S
C175 C178 1.363 . S
N176 C178 1.356 . S
N176 H188 0.984 . S
N176 H189 0.985 . S
N177 C179 1.356 . S
N177 H182 0.984 . S
N177 H183 0.985 . S
C178 C172 1.379 . S
C178 C175 1.363 . S
C178 N176 1.356 . S
C179 C173 1.363 1_556 S
C179 C174 1.379 . S
C179 N177 1.356 . S
N180 C172 1.356 . S
N180 H186 0.984 . S
N180 H187 0.984 . S
N181 C174 1.356 . S
N181 H184 0.984 . S
N181 H185 0.985 . S
H182 N177 0.984 . S
H183 N177 0.985 . S
H184 N181 0.984 . S
H185 N181 0.985 . S
H186 N180 0.984 . S
H187 N180 0.984 . S
H188 N176 0.984 . S
H189 N176 0.985 . S
C190 C191 1.363 . S
C190 C196 1.379 . S
C190 N198 1.356 . S
C191 C190 1.363 . S
C191 C197 1.363 . S
C192 C193 1.363 . S
C192 C197 1.379 . S
C192 N199 1.356 . S
C193 C192 1.363 . S
C193 C196 1.363 . S
N194 C196 1.356 . S
N194 H206 0.984 . S
N194 H207 0.985 . S
N195 C197 1.356 . S
N195 H200 0.984 . S
N195 H201 0.985 . S
C196 C190 1.379 . S
C196 C193 1.363 . S
C196 N194 1.356 . S
C197 C191 1.363 . S
C197 C192 1.379 . S
C197 N195 1.356 . S
N198 C190 1.356 . S
N198 H204 0.984 . S
N198 H205 0.984 . S
N199 C192 1.356 . S
N199 H202 0.984 . S
N199 H203 0.985 . S
H200 N195 0.984 . S
H201 N195 0.985 . S
H202 N199 0.984 . S
H203 N199 0.985 . S
H204 N198 0.984 . S
H205 N198 0.984 . S
H206 N194 0.984 . S
H207 N194 0.985 . S
C208 C209 1.363 . S
C208 C214 1.379 . S
C208 N216 1.356 . S
C209 C208 1.363 . S
C209 C215 1.363 . S
C210 C211 1.363 . S
C210 C215 1.379 . S
C210 N217 1.356 . S
C211 C210 1.363 . S
C211 C214 1.363 . S
N212 C214 1.356 . S
N212 H224 0.984 . S
N212 H225 0.985 . S
N213 C215 1.356 . S
N213 H218 0.984 . S
N213 H219 0.985 . S
C214 C208 1.379 . S
C214 C211 1.363 . S
C214 N212 1.356 . S
C215 C209 1.363 . S
C215 C210 1.379 . S
C215 N213 1.356 . S
N216 C208 1.356 . S
N216 H222 0.984 . S
N216 H223 0.984 . S
N217 C210 1.356 . S
N217 H220 0.984 . S
N217 H221 0.985 . S
H218 N213 0.984 . S
H219 N213 0.985 . S
H220 N217 0.984 . S
H221 N217 0.985 . S
H222 N216 0.984 . S
H223 N216 0.984 . S
H224 N212 0.984 . S
H225 N212 0.985 . S
C226 C227 1.363 . S
C226 C232 1.379 . S
C226 N234 1.356 . S
C227 C226 1.363 . S
C227 C233 1.363 . S
C228 C229 1.363 . S
C228 C233 1.379 . S
C228 N235 1.356 1_655 S
C229 C228 1.363 . S
C229 C232 1.363 . S
N230 C232 1.356 . S
N230 H242 0.984 . S
N230 H243 0.985 . S
N231 C233 1.356 . S
N231 H236 0.984 . S
N231 H237 0.985 . S
C232 C226 1.379 . S
C232 C229 1.363 . S
C232 N230 1.356 . S
C233 C227 1.363 . S
C233 C228 1.379 . S
C233 N231 1.356 . S
N234 C226 1.356 . S
N234 H240 0.984 . S
N234 H241 0.984 . S
N235 C228 1.356 1_455 S
N235 H238 0.984 . S
N235 H239 0.985 . S
H236 N231 0.984 . S
H237 N231 0.985 . S
H238 N235 0.984 . S
H239 N235 0.985 . S
H240 N234 0.984 . S
H241 N234 0.984 . S
H242 N230 0.984 . S
H243 N230 0.985 . S
C244 C245 1.363 . S
C244 C250 1.379 . S
C244 N252 1.356 . S
C245 C244 1.363 . S
C245 C251 1.363 . S
C246 C247 1.363 . S
C246 C251 1.379 . S
C246 N253 1.356 . S
C247 C246 1.363 . S
C247 C250 1.363 . S
N248 C250 1.356 . S
N248 H260 0.984 . S
N248 H261 0.985 . S
N249 C251 1.356 . S
N249 H254 0.984 . S
N249 H255 0.985 . S
C250 C244 1.379 . S
C250 C247 1.363 . S
C250 N248 1.356 . S
C251 C245 1.363 . S
C251 C246 1.379 . S
C251 N249 1.356 . S
N252 C244 1.356 . S
N252 H258 0.984 . S
N252 H259 0.984 . S
N253 C246 1.356 . S
N253 H256 0.984 . S
N253 H257 0.985 . S
H254 N249 0.984 . S
H255 N249 0.985 . S
H256 N253 0.984 . S
H257 N253 0.985 . S
H258 N252 0.984 . S
H259 N252 0.984 . S
H260 N248 0.984 . S
H261 N248 0.985 . S
C262 C263 1.363 . S
C262 C268 1.379 . S
C262 N270 1.356 . S
C263 C262 1.363 . S
C263 C269 1.363 . S
C264 C265 1.363 . S
C264 C269 1.379 . S
C264 N271 1.356 . S
C265 C264 1.363 . S
C265 C268 1.363 . S
N266 C268 1.356 . S
N266 H278 0.984 . S
N266 H279 0.985 . S
N267 C269 1.356 . S
N267 H272 0.984 . S
N267 H273 0.985 . S
C268 C262 1.379 . S
C268 C265 1.363 . S
C268 N266 1.356 . S
C269 C263 1.363 . S
C269 C264 1.379 . S
C269 N267 1.356 . S
N270 C262 1.356 . S
N270 H276 0.984 . S
N270 H277 0.984 . S
N271 C264 1.356 . S
N271 H274 0.984 . S
N271 H275 0.985 . S
H272 N267 0.984 . S
H273 N267 0.985 . S
H274 N271 0.984 . S
H275 N271 0.985 . S
H276 N270 0.984 . S
H277 N270 0.984 . S
H278 N266 0.984 . S
H279 N266 0.985 . S
C280 C281 1.363 . S
C280 C286 1.379 . S
C280 N288 1.356 . S
C281 C280 1.363 . S
C281 C287 1.363 . S
C282 C283 1.363 . S
C282 C287 1.379 . S
C282 N289 1.356 . S
C283 C282 1.363 . S
C283 C286 1.363 . S
N284 C286 1.356 . S
N284 H296 0.984 . S
N284 H297 0.985 . S
N285 C287 1.356 . S
N285 H290 0.984 . S
N285 H291 0.985 . S
C286 C280 1.379 . S
C286 C283 1.363 . S
C286 N284 1.356 . S
C287 C281 1.363 . S
C287 C282 1.379 . S
C287 N285 1.356 . S
N288 C280 1.356 . S
N288 H294 0.984 . S
N288 H295 0.984 . S
N289 C282 1.356 . S
N289 H292 0.984 . S
N289 H293 0.985 . S
H290 N285 0.984 . S
H291 N285 0.985 . S
H292 N289 0.984 . S
H293 N289 0.985 . S
H294 N288 0.984 . S
H295 N288 0.984 . S
H296 N284 0.984 . S
H297 N284 0.985 . S
C298 C299 1.363 . S
C298 C304 1.379 . S
C298 N306 1.356 . S
C299 C298 1.363 . S
C299 C305 1.363 . S
C300 C301 1.363 . S
C300 C305 1.379 . S
C300 N307 1.356 . S
C301 C300 1.363 . S
C301 C304 1.363 . S
N302 C304 1.356 . S
N302 H314 0.984 . S
N302 H315 0.985 . S
N303 C305 1.356 . S
N303 H308 0.984 . S
N303 H309 0.985 . S
C304 C298 1.379 . S
C304 C301 1.363 . S
C304 N302 1.356 . S
C305 C299 1.363 . S
C305 C300 1.379 . S
C305 N303 1.356 . S
N306 C298 1.356 . S
N306 H312 0.984 . S
N306 H313 0.984 . S
N307 C300 1.356 . S
N307 H310 0.984 . S
N307 H311 0.985 . S
H308 N303 0.984 . S
H309 N303 0.985 . S
H310 N307 0.984 . S
H311 N307 0.985 . S
H312 N306 0.984 . S
H313 N306 0.984 . S
H314 N302 0.984 . S
H315 N302 0.985 . S
C316 C317 1.363 . S
C316 C322 1.379 . S
C316 N324 1.356 . S
C317 C316 1.363 . S
C317 C323 1.363 . S
C318 C319 1.363 . S
C318 C323 1.379 . S
C318 N325 1.356 . S
C319 C318 1.363 . S
C319 C322 1.363 . S
N320 C322 1.356 . S
N320 H332 0.984 . S
N320 H333 0.985 . S
N321 C323 1.356 . S
N321 H326 0.984 1_556 S
N321 H327 0.985 1_556 S
C322 C316 1.379 . S
C322 C319 1.363 . S
C322 N320 1.356 . S
C323 C317 1.363 . S
C323 C318 1.379 . S
C323 N321 1.356 . S
N324 C316 1.356 . S
N324 H330 0.984 . S
N324 H331 0.984 . S
N325 C318 1.356 . S
N325 H328 0.986 . S
N325 H329 0.985 1_565 S
H326 N321 0.984 1_554 S
H327 N321 0.985 1_554 S
H328 N325 0.986 . S
H329 N325 0.985 1_545 S
H330 N324 0.984 . S
H331 N324 0.984 . S
H332 N320 0.984 . S
H333 N320 0.985 . S
C121 C91 1.288 . S
C119 C68 1.393 . S
C137 C11 1.362 . S
C139 C115 1.372 . S
C155 C30 1.518 . S
C157 C94 1.424 . S
C173 C49 1.495 1_554 S
C175 C112 1.383 . S
C193 C92 1.557 . S
C191 C2 1.532 . S
C211 C114 1.569 . S
C209 C25 1.645 . S
C227 C40 1.621 . S
C229 C93 1.594 . S
C245 C59 1.537 . S
C247 C113 1.497 . S
C265 C111 1.496 . S
C263 C21 1.530 . S
C283 C90 1.482 . S
C281 C44 1.552 . S
C301 C110 1.447 . S
C299 C63 1.477 . S
C317 C6 1.493 . S
C319 C89 1.429 . S
