# Generated by pormake.
# Topology llj, (12,3)-cn, num edge types: 1
# Building blocks:
#     Node 0, Type 0, BuildingBlock: QEWDON_clean_sbu_0, # of connection points: 12
#     Node 1, Type 0, BuildingBlock: QEWDON_clean_sbu_0, # of connection points: 12
#     Node 2, Type 1, BuildingBlock: BETDIP_clean_linker_0, # of connection points: 3
#     Node 3, Type 1, BuildingBlock: BETDIP_clean_linker_0, # of connection points: 3
#     Node 4, Type 1, BuildingBlock: BETDIP_clean_linker_0, # of connection points: 3
#     Node 5, Type 1, BuildingBlock: BETDIP_clean_linker_0, # of connection points: 3
#     Node 6, Type 1, BuildingBlock: BETDIP_clean_linker_0, # of connection points: 3
#     Node 7, Type 1, BuildingBlock: BETDIP_clean_linker_0, # of connection points: 3
#     Node 8, Type 1, BuildingBlock: BETDIP_clean_linker_0, # of connection points: 3
#     Node 9, Type 1, BuildingBlock: BETDIP_clean_linker_0, # of connection points: 3
#     Edge 10, Type (0, 1), BuildingBlock: TEMPAE_clean_linker_10, # of connection points: 2
#     Edge 11, Type (0, 1), BuildingBlock: TEMPAE_clean_linker_10, # of connection points: 2
#     Edge 12, Type (0, 1), BuildingBlock: TEMPAE_clean_linker_10, # of connection points: 2
#     Edge 13, Type (0, 1), BuildingBlock: TEMPAE_clean_linker_10, # of connection points: 2
#     Edge 14, Type (0, 1), BuildingBlock: TEMPAE_clean_linker_10, # of connection points: 2
#     Edge 15, Type (0, 1), BuildingBlock: TEMPAE_clean_linker_10, # of connection points: 2
#     Edge 16, Type (0, 1), BuildingBlock: TEMPAE_clean_linker_10, # of connection points: 2
#     Edge 17, Type (0, 1), BuildingBlock: TEMPAE_clean_linker_10, # of connection points: 2
#     Edge 18, Type (0, 1), BuildingBlock: TEMPAE_clean_linker_10, # of connection points: 2
#     Edge 19, Type (0, 1), BuildingBlock: TEMPAE_clean_linker_10, # of connection points: 2
#     Edge 20, Type (0, 1), BuildingBlock: TEMPAE_clean_linker_10, # of connection points: 2
#     Edge 21, Type (0, 1), BuildingBlock: TEMPAE_clean_linker_10, # of connection points: 2
#     Edge 22, Type (0, 1), BuildingBlock: TEMPAE_clean_linker_10, # of connection points: 2
#     Edge 23, Type (0, 1), BuildingBlock: TEMPAE_clean_linker_10, # of connection points: 2
#     Edge 24, Type (0, 1), BuildingBlock: TEMPAE_clean_linker_10, # of connection points: 2
#     Edge 25, Type (0, 1), BuildingBlock: TEMPAE_clean_linker_10, # of connection points: 2
#     Edge 26, Type (0, 1), BuildingBlock: TEMPAE_clean_linker_10, # of connection points: 2
#     Edge 27, Type (0, 1), BuildingBlock: TEMPAE_clean_linker_10, # of connection points: 2
#     Edge 28, Type (0, 1), BuildingBlock: TEMPAE_clean_linker_10, # of connection points: 2
#     Edge 29, Type (0, 1), BuildingBlock: TEMPAE_clean_linker_10, # of connection points: 2
#     Edge 30, Type (0, 1), BuildingBlock: TEMPAE_clean_linker_10, # of connection points: 2
#     Edge 31, Type (0, 1), BuildingBlock: TEMPAE_clean_linker_10, # of connection points: 2
#     Edge 32, Type (0, 1), BuildingBlock: TEMPAE_clean_linker_10, # of connection points: 2
#     Edge 33, Type (0, 1), BuildingBlock: TEMPAE_clean_linker_10, # of connection points: 2
# Relax obj value: 0.010
# Max RMSD: 0.102
# Mean RMSD: 0.088
data_MOF--net-llj--node1-QEWDON_clean_sbu_0--node2-BETDIP_clean_linker_0--edge1-TEMPAE_clean_linker_10
_symmetry_space_group_name_H-M    P1
_symmetry_Int_Tables_number       1
_symmetry_cell_setting            triclinic
loop_
_symmetry_equiv_pos_as_xyz
'x, y, z'
_cell_length_a     39.912321
_cell_length_b     39.908454
_cell_length_c     24.833942
_cell_angle_alpha  90.575444
_cell_angle_beta   91.012859
_cell_angle_gamma 89.825277
loop_
_atom_site_label
_atom_site_type_symbol
_atom_site_fract_x
_atom_site_fract_y
_atom_site_fract_z
_atom_type_partial_charge
Zn0 Zn 0.93674 0.06896 0.9457 0.0
Zn1 Zn 0.94057 0.06302 0.07389 0.0
O2 O 0.96699 0.05625 0.00784 0.0
H3 H 0.9868 0.04266 0.00362 0.0
C4 C 0.91727 0.99206 0.88874 0.0
O5 O 0.90442 0.99924 0.93584 0.0
Zn6 Zn 0.05317 0.92664 0.08206 0.0
Zn7 Zn 0.05611 0.91724 0.95813 0.0
O8 O 0.02312 0.92242 0.01803 0.0
H9 H 0.002 0.93385 0.01272 0.0
Zn10 Zn 0.94223 0.94082 0.95564 0.0
O11 O 0.94633 0.97216 0.01976 0.0
Zn12 Zn 0.9367 0.94381 0.08245 0.0
H13 H 0.9629 0.98973 0.0208 0.0
Zn14 Zn 0.05252 0.05103 0.93786 0.0
O15 O 0.04853 0.01979 0.00123 0.0
H16 H 0.03525 -0.00043 0.00016 0.0
Zn17 Zn 0.05793 0.049 0.06498 0.0
C18 C 0.08908 0.00998 0.8684 0.0
O19 O 0.10838 0.01226 0.9117 0.0
O20 O 0.89819 0.10071 0.96773 0.0
O21 O 0.90058 0.09322 0.05655 0.0
O22 O 0.09808 0.89132 0.98224 0.0
O23 O 0.09603 0.89882 0.07117 0.0
O24 O 0.91286 0.89969 0.97052 0.0
O25 O 0.90741 0.90396 0.05931 0.0
C26 C 0.00118 0.07996 0.13121 0.0
O27 O 0.0826 0.09206 0.95387 0.0
O28 O 0.08633 0.08863 0.04308 0.0
O29 O 0.03352 0.90789 0.88413 0.0
C30 C 0.88717 0.10657 0.01486 0.0
O31 O 0.96271 0.07468 0.87527 0.0
C32 C 0.99656 0.91515 0.14795 0.0
O33 O 0.93532 0.96596 0.8841 0.0
C34 C 0.11013 0.88651 0.02944 0.0
O35 O 0.06146 0.02577 0.86737 0.0
C36 C 0.91353 0.00332 0.13778 0.0
O37 O 0.96966 0.08402 0.13292 0.0
O38 O 0.01291 0.06473 0.09047 0.0
C39 C 0.90092 0.88921 0.01447 0.0
O40 O 0.02818 0.91098 0.14802 0.0
O41 O 0.98301 0.9291 0.10726 0.0
C42 C 0.07912 0.99077 0.12363 0.0
O43 O 0.91335 0.97152 0.1401 0.0
O44 O 0.92753 0.01663 0.09766 0.0
C45 C 0.09373 0.10289 -0.00085 0.0
O46 O 0.08172 0.02243 0.12322 0.0
O47 O 0.06235 0.97601 0.08685 0.0
C48 C 0.0058 0.89264 0.88802 0.0
O49 O 0.99634 0.88273 0.93567 0.0
C50 C 0.9906 0.08961 0.88138 0.0
O51 O 0.99874 0.10205 0.92901 0.0
Zn52 Zn 0.44638 0.55596 0.41944 0.0
Zn53 Zn 0.44494 0.56087 0.54734 0.0
O54 O 0.47518 0.54983 0.48656 0.0
H55 H 0.49436 0.53501 0.4877 0.0
C56 C 0.40768 0.49026 0.36206 0.0
O57 O 0.39472 0.49948 0.40819 0.0
Zn58 Zn 0.5482 0.43313 0.57081 0.0
Zn59 Zn 0.55143 0.4232 0.44309 0.0
O60 O 0.5222 0.44072 0.50311 0.0
H61 H 0.5056 0.45817 0.49858 0.0
Zn62 Zn 0.42712 0.4384 0.43212 0.0
O63 O 0.43555 0.47071 0.49343 0.0
Zn64 Zn 0.42752 0.44459 0.55921 0.0
H65 H 0.45148 0.4887 0.49038 0.0
Zn66 Zn 0.56256 0.56172 0.45837 0.0
O67 O 0.57335 0.52318 0.50858 0.0
H68 H 0.56779 0.50011 0.50049 0.0
Zn69 Zn 0.5659 0.55023 0.57453 0.0
C70 C 0.60027 0.53994 0.37007 0.0
O71 O 0.6234 0.5471 0.40669 0.0
O72 O 0.40588 0.58724 0.43101 0.0
O73 O 0.40652 0.59048 0.52057 0.0
O74 O 0.59045 0.39297 0.4683 0.0
O75 O 0.5885 0.40242 0.55664 0.0
O76 O 0.39647 0.399 0.45187 0.0
O77 O 0.39672 0.40488 0.5411 0.0
C78 C 0.50274 0.5783 0.611 0.0
O79 O 0.58416 0.60622 0.48418 0.0
O80 O 0.59203 0.59343 0.57034 0.0
O81 O 0.52695 0.41266 0.3711 0.0
C82 C 0.39385 0.59843 0.47488 0.0
O83 O 0.4735 0.56193 0.35056 0.0
C84 C 0.48669 0.41492 0.62402 0.0
O85 O 0.42283 0.46229 0.35909 0.0
C86 C 0.60182 0.38827 0.51591 0.0
O87 O 0.56989 0.5463 0.38044 0.0
C88 C 0.41223 0.50608 0.61405 0.0
O89 O 0.47137 0.58329 0.608 0.0
O90 O 0.51675 0.56041 0.57549 0.0
C91 C 0.38708 0.38962 0.49813 0.0
O92 O 0.51839 0.41212 0.6267 0.0
O93 O 0.47386 0.42976 0.58347 0.0
C94 C 0.57574 0.49233 0.63864 0.0
O95 O 0.40746 0.47471 0.61708 0.0
O96 O 0.42741 0.51679 0.57313 0.0
C97 C 0.59573 0.6134 0.53107 0.0
O98 O 0.5801 0.52386 0.63989 0.0
O99 O 0.56257 0.47942 0.59626 0.0
C100 C 0.49723 0.4019 0.37559 0.0
O101 O 0.48531 0.39764 0.42403 0.0
C102 C 0.49666 0.58353 0.35525 0.0
O103 O 0.50037 0.59986 0.40119 0.0
H104 H 0.31336 0.32378 0.91043 0.0
H105 H 0.31922 0.31826 0.08324 0.0
H106 H 0.39155 0.37593 -0.0014 0.0
H107 H 0.30178 0.26233 0.05611 0.0
C108 C 0.28093 0.26979 0.0301 0.0
C109 C 0.32541 0.33102 0.94823 0.0
C110 C 0.35406 0.3514 0.94843 0.0
C111 C 0.31295 0.31868 -0.00353 0.0
C112 C 0.32871 0.32755 0.04562 0.0
C113 C 0.35653 0.34891 0.04629 0.0
C114 C 0.36903 0.36078 -0.00219 0.0
N115 N 0.28489 0.29696 0.99435 0.0
H116 H 0.66865 0.32248 0.94249 0.0
H117 H 0.68379 0.34593 0.11074 0.0
H118 H 0.62339 0.41046 0.01058 0.0
H119 H 0.73387 0.31798 0.09237 0.0
C120 C 0.72525 0.29687 0.06794 0.0
C121 C 0.66387 0.33849 0.97706 0.0
C122 C 0.64443 0.3675 0.97095 0.0
C123 C 0.67809 0.33049 0.02726 0.0
C124 C 0.67269 0.35181 0.07189 0.0
C125 C 0.65312 0.38099 0.06605 0.0
C126 C 0.63859 0.38811 0.01564 0.0
N127 N 0.69797 0.30105 0.03115 0.0
H128 H 0.67659 0.66624 0.07863 0.0
H129 H 0.67637 0.6764 0.90606 0.0
H130 H 0.59495 0.62662 0.98245 0.0
H131 H 0.69717 0.72874 0.93478 0.0
C132 C 0.71599 0.72107 0.96437 0.0
C133 C 0.66501 0.66133 0.03954 0.0
C134 C 0.63404 0.64479 0.03595 0.0
C135 C 0.67992 0.67378 0.99311 0.0
C136 C 0.66472 0.66763 0.94235 0.0
C137 C 0.63402 0.6507 0.93844 0.0
C138 C 0.61878 0.6396 0.98535 0.0
N139 N 0.70923 0.69371 -0.00129 0.0
H140 H 0.33965 0.68743 0.91746 0.0
H141 H 0.34686 0.67575 0.08951 0.0
H142 H 0.39437 0.60433 0.98559 0.0
H143 H 0.29058 0.69311 0.07663 0.0
C144 C 0.2947 0.71482 0.05151 0.0
C145 C 0.34937 0.6741 0.95223 0.0
C146 C 0.36892 0.64504 0.94512 0.0
C147 C 0.34093 0.68514 0.00411 0.0
C148 C 0.35319 0.66759 0.04921 0.0
C149 C 0.3726 0.63863 0.04238 0.0
C150 C 0.38045 0.62752 0.99054 0.0
N151 N 0.31872 0.71281 0.00995 0.0
H152 H 0.81876 0.82634 0.42659 0.0
H153 H 0.81627 0.82658 0.59983 0.0
H154 H 0.89429 0.87898 0.51967 0.0
H155 H 0.75709 0.82504 0.57759 0.0
C156 C 0.759 0.80441 0.5489 0.0
C157 C 0.82905 0.83461 0.46515 0.0
C158 C 0.85806 0.8545 0.46732 0.0
C159 C 0.81304 0.82552 0.51264 0.0
C160 C 0.82713 0.83511 0.56274 0.0
C161 C 0.85626 0.85458 0.56502 0.0
C162 C 0.87116 0.86476 0.51746 0.0
N163 N 0.78414 0.80494 0.50911 0.0
H164 H 0.18992 0.83574 0.59 0.0
H165 H 0.19195 0.82882 0.41713 0.0
H166 H 0.14218 0.91167 0.49362 0.0
H167 H 0.18842 0.76923 0.44407 0.0
C168 C 0.20993 0.77167 0.47127 0.0
C169 C 0.1829 0.84572 0.55096 0.0
C170 C 0.16492 0.87593 0.54742 0.0
C171 C 0.19204 0.82825 0.50421 0.0
C172 C 0.18383 0.84153 0.45338 0.0
C173 C 0.16656 0.87212 0.44944 0.0
C174 C 0.15672 0.88874 0.49657 0.0
N175 N 0.21122 0.79844 0.50931 0.0
H176 H 0.17495 0.15519 0.60718 0.0
H177 H 0.17656 0.16289 0.43458 0.0
H178 H 0.10033 0.10463 0.50982 0.0
H179 H 0.186 0.21983 0.46734 0.0
C180 C 0.20722 0.2137 0.49353 0.0
C181 C 0.16509 0.14792 0.56784 0.0
C182 C 0.13647 0.12767 0.56363 0.0
C183 C 0.17911 0.1614 0.5215 0.0
C184 C 0.16549 0.15293 0.47056 0.0
C185 C 0.13744 0.1319 0.46591 0.0
C186 C 0.12303 0.11947 0.51273 0.0
N187 N 0.20547 0.18508 0.52696 0.0
H188 H 0.82385 0.17551 0.43749 0.0
H189 H 0.82966 0.1713 0.61062 0.0
H190 H 0.87672 0.09474 0.51586 0.0
H191 H 0.77438 0.19141 0.59601 0.0
C192 C 0.77909 0.21098 0.567 0.0
C193 C 0.83272 0.16328 0.47383 0.0
C194 C 0.85183 0.1337 0.47031 0.0
C195 C 0.82408 0.17668 0.52415 0.0
C196 C 0.83577 0.16104 0.57145 0.0
C197 C 0.855 0.13169 0.56818 0.0
C198 C 0.86276 0.11807 0.51784 0.0
N199 N 0.80293 0.20534 0.52602 0.0
C200 C 0.13653 0.13885 0.95596 0.0
C201 C 0.11733 0.13133 0.00098 0.0
C202 C 0.16178 0.16321 0.95915 0.0
C203 C 0.16738 0.18095 0.00816 0.0
C204 C 0.14681 0.17472 0.05282 0.0
C205 C 0.12229 0.14968 0.04889 0.0
C206 C 0.18357 0.16867 0.91093 0.0
C207 C 0.15136 0.19376 0.10529 0.0
C208 C 0.25448 0.2141 0.04039 0.0
C209 C 0.25155 0.24759 0.02491 0.0
C210 C 0.22736 0.19205 0.03437 0.0
C211 C 0.19629 0.20416 0.01401 0.0
C212 C 0.193 0.23824 -0.00057 0.0
C213 C 0.22089 0.2595 0.00436 0.0
C214 C 0.23209 0.1557 0.04922 0.0
C215 C 0.16001 0.25225 0.9791 0.0
H216 H 0.13286 0.12463 0.9189 0.0
H217 H 0.10726 0.14418 0.08365 0.0
H218 H 0.18463 0.19567 0.90105 0.0
H219 H 0.20955 0.16041 0.92056 0.0
H220 H 0.17444 0.1546 0.87476 0.0
H221 H 0.13119 0.1883 0.13418 0.0
H222 H 0.17577 0.18699 0.12431 0.0
H223 H 0.15174 0.22113 0.09784 0.0
H224 H 0.27829 0.20496 0.05613 0.0
H225 H 0.21856 0.28556 0.99292 0.0
H226 H 0.22574 0.13938 0.01409 0.0
H227 H 0.2149 0.14906 0.08202 0.0
H228 H 0.25819 0.15009 0.06269 0.0
H229 H 0.152 0.23898 0.94162 0.0
H230 H 0.16142 0.2795 0.97075 0.0
H231 H 0.14031 0.24809 0.00929 0.0
C232 C 0.85166 0.15399 0.98145 0.0
C233 C 0.85975 0.13115 0.02223 0.0
C234 C 0.82824 0.17969 0.99001 0.0
C235 C 0.81205 0.1822 0.04019 0.0
C236 C 0.81904 0.15835 0.08071 0.0
C237 C 0.84303 0.13329 0.07142 0.0
C238 C 0.82179 0.20492 0.94607 0.0
C239 C 0.80177 0.15975 0.13431 0.0
C240 C 0.78013 0.26825 0.08133 0.0
C241 C 0.74656 0.26665 0.06432 0.0
C242 C 0.80166 0.24075 0.07429 0.0
C243 C 0.78899 0.21073 0.05093 0.0
C244 C 0.7547 0.20857 0.03576 0.0
C245 C 0.73394 0.23674 0.04208 0.0
C246 C 0.8382 0.24422 0.09017 0.0
C247 C 0.74011 0.17672 0.01203 0.0
H248 H 0.86454 0.15257 0.94342 0.0
H249 H 0.84897 0.11556 0.10302 0.0
H250 H 0.79466 0.20604 0.9358 0.0
H251 H 0.82936 0.23024 0.96051 0.0
H252 H 0.83575 0.1989 0.90886 0.0
H253 H 0.80813 0.13786 0.15987 0.0
H254 H 0.80915 0.18292 0.15648 0.0
H255 H 0.77418 0.16069 0.12805 0.0
H256 H 0.78982 0.29144 0.09848 0.0
H257 H 0.70784 0.23535 0.02947 0.0
H258 H 0.85394 0.2408 0.05412 0.0
H259 H 0.8455 0.22443 0.11918 0.0
H260 H 0.84392 0.26905 0.10868 0.0
H261 H 0.7516 0.17126 0.97254 0.0
H262 H 0.7125 0.17836 0.00609 0.0
H263 H 0.74596 0.15525 0.03868 0.0
C264 C 0.85343 0.85681 0.05251 0.0
C265 C 0.87753 0.86053 0.01261 0.0
C266 C 0.82854 0.83212 0.04764 0.0
C267 C 0.82814 0.8103 0.00228 0.0
C268 C 0.85357 0.81274 0.96349 0.0
C269 C 0.87782 0.83797 0.96896 0.0
C270 C 0.80164 0.8306 0.08953 0.0
C271 C 0.85444 0.78959 0.91506 0.0
C272 C 0.77283 0.73278 0.00531 0.0
C273 C 0.74509 0.74324 0.97437 0.0
C274 C 0.80031 0.7542 0.01441 0.0
C275 C 0.79958 0.78695 0.99292 0.0
C276 C 0.77145 0.79758 0.96195 0.0
C277 C 0.74473 0.77544 0.95256 0.0
C278 C 0.8302 0.74175 0.04657 0.0
C279 C 0.76944 0.83246 0.93899 0.0
H280 H 0.8531 0.87418 0.08636 0.0
H281 H 0.89678 0.84032 0.93855 0.0
H282 H 0.77721 0.83799 0.0711 0.0
H283 H 0.79893 0.80465 0.10437 0.0
H284 H 0.80701 0.84748 0.12446 0.0
H285 H 0.87794 0.79221 0.89218 0.0
H286 H 0.85194 0.76313 0.92766 0.0
H287 H 0.83297 0.79526 0.88763 0.0
H288 H 0.77326 0.70775 0.02185 0.0
H289 H 0.72322 0.78351 0.92871 0.0
H290 H 0.8344 0.75794 0.0826 0.0
H291 H 0.85308 0.74321 0.02196 0.0
H292 H 0.82704 0.71548 0.05993 0.0
H293 H 0.77219 0.85136 0.97184 0.0
H294 H 0.74538 0.8371 0.91712 0.0
H295 H 0.79028 0.83639 0.91079 0.0
C296 C 0.15821 0.86299 0.08415 0.0
C297 C 0.13981 0.86433 0.03556 0.0
C298 C 0.18535 0.84068 0.0904 0.0
C299 C 0.194 0.81903 0.04718 0.0
C300 C 0.17556 0.82043 -0.00194 0.0
C301 C 0.149 0.84324 0.99269 0.0
C302 C 0.20486 0.84074 0.14304 0.0
C303 C 0.18316 0.79704 0.95158 0.0
C304 C 0.27778 0.77437 0.03414 0.0
C305 C 0.2701 0.7425 0.0535 0.0
C306 C 0.25379 0.80024 0.03478 0.0
C307 C 0.22115 0.79361 0.05343 0.0
C308 C 0.21362 0.76159 0.07401 0.0
C309 C 0.23839 0.73659 0.07456 0.0
C310 C 0.26314 0.83449 0.01481 0.0
C311 C 0.17907 0.75343 0.09386 0.0
H312 H 0.15138 0.87931 0.11735 0.0
H313 H 0.13479 0.84384 0.95511 0.0
H314 H 0.21281 0.81514 0.1547 0.0
H315 H 0.22781 0.85601 0.13853 0.0
H316 H 0.19003 0.85173 0.17627 0.0
H317 H 0.16628 0.80121 0.91621 0.0
H318 H 0.20941 0.80041 0.9388 0.0
H319 H 0.18053 0.77065 0.96451 0.0
H320 H 0.30254 0.7791 0.01872 0.0
H321 H 0.23258 0.71194 0.0898 0.0
H322 H 0.25645 0.8539 0.04513 0.0
H323 H 0.24879 0.84011 0.97731 0.0
H324 H 0.29031 0.83644 0.00641 0.0
H325 H 0.17203 0.77118 0.12645 0.0
H326 H 0.17743 0.72749 0.10939 0.0
H327 H 0.1604 0.75635 0.06056 0.0
C328 C 0.61533 0.66923 0.49968 0.0
C329 C 0.6157 0.64428 0.53908 0.0
C330 C 0.63667 0.69701 0.50407 0.0
C331 C 0.65924 0.69966 0.5485 0.0
C332 C 0.65876 0.67529 0.58954 0.0
C333 C 0.63684 0.64797 0.58445 0.0
C334 C 0.6359 0.72289 0.4601 0.0
C335 C 0.68255 0.67707 0.63742 0.0
C336 C 0.73963 0.74691 0.52279 0.0
C337 C 0.73363 0.77755 0.54892 0.0
C338 C 0.71584 0.72113 0.52337 0.0
C339 C 0.68506 0.72644 0.54975 0.0
C340 C 0.67887 0.7574 0.57612 0.0
C341 C 0.70347 0.78249 0.57592 0.0
C342 C 0.72365 0.6882 0.49575 0.0
C343 C 0.64611 0.76417 0.60376 0.0
H344 H 0.59879 0.66674 0.4648 0.0
H345 H 0.63725 0.62881 0.6151 0.0
H346 H 0.63384 0.74844 0.47777 0.0
H347 H 0.65964 0.72179 0.43756 0.0
H348 H 0.61471 0.71894 0.43114 0.0
H349 H 0.67677 0.65803 0.66822 0.0
H350 H 0.70857 0.67291 0.62373 0.0
H351 H 0.68169 0.70226 0.6566 0.0
H352 H 0.76313 0.74286 0.50247 0.0
H353 H 0.69893 0.80623 0.59617 0.0
H354 H 0.70534 0.68354 0.46242 0.0
H355 H 0.72133 0.66733 0.52463 0.0
H356 H 0.74928 0.68765 0.47901 0.0
H357 H 0.6251 0.76233 0.57402 0.0
H358 H 0.64544 0.78937 0.62313 0.0
H359 H 0.64174 0.74501 0.6349 0.0
C360 C 0.35812 0.64026 0.42625 0.0
C361 C 0.3651 0.62184 0.47292 0.0
C362 C 0.33214 0.664 0.4249 0.0
C363 C 0.31222 0.66889 0.47098 0.0
C364 C 0.31845 0.64956 0.51761 0.0
C365 C 0.34508 0.62653 0.51825 0.0
C366 C 0.32673 0.6846 0.37479 0.0
C367 C 0.29724 0.65345 0.56706 0.0
C368 C 0.2683 0.75238 0.49162 0.0
C369 C 0.23598 0.74537 0.47181 0.0
C370 C 0.29347 0.72779 0.49088 0.0
C371 C 0.28581 0.69522 0.47122 0.0
C372 C 0.25302 0.68794 0.45182 0.0
C373 C 0.2286 0.71334 0.45155 0.0
C374 C 0.32836 0.73677 0.51055 0.0
C375 C 0.2437 0.65329 0.43185 0.0
H376 H 0.37365 0.63686 0.39121 0.0
H377 H 0.35019 0.61214 0.55429 0.0
H378 H 0.30043 0.68235 0.36009 0.0
H379 H 0.33121 0.71146 0.38439 0.0
H380 H 0.34362 0.67688 0.34179 0.0
H381 H 0.30401 0.635 0.59868 0.0
H382 H 0.30029 0.67902 0.58429 0.0
H383 H 0.27035 0.65034 0.55605 0.0
H384 H 0.27414 0.77732 0.50666 0.0
H385 H 0.20353 0.70803 0.43629 0.0
H386 H 0.34665 0.73171 0.4783 0.0
H387 H 0.33561 0.72096 0.54536 0.0
H388 H 0.33042 0.76351 0.523 0.0
H389 H 0.25927 0.64619 0.39696 0.0
H390 H 0.21687 0.65153 0.41947 0.0
H391 H 0.24883 0.6347 0.46392 0.0
C392 C 0.35997 0.33841 0.45858 0.0
C393 C 0.3637 0.36105 0.50181 0.0
C394 C 0.33638 0.31248 0.45995 0.0
C395 C 0.31564 0.30942 0.50531 0.0
C396 C 0.31998 0.33157 0.54979 0.0
C397 C 0.34417 0.35697 0.54768 0.0
C398 C 0.333 0.28896 0.41215 0.0
C399 C 0.29809 0.32941 0.5986 0.0
C400 C 0.23061 0.27013 0.47774 0.0
C401 C 0.23505 0.23791 0.49847 0.0
C402 C 0.25642 0.29382 0.48088 0.0
C403 C 0.28774 0.28478 0.50425 0.0
C404 C 0.29242 0.25217 0.52518 0.0
C405 C 0.26583 0.22914 0.5225 0.0
C406 C 0.25021 0.3285 0.45892 0.0
C407 C 0.32566 0.24146 0.54942 0.0
H408 H 0.37538 0.34108 0.42339 0.0
H409 H 0.34694 0.37437 0.58126 0.0
H410 H 0.33407 0.26255 0.42563 0.0
H411 H 0.30829 0.29276 0.39192 0.0
H412 H 0.35291 0.29291 0.38218 0.0
H413 H 0.30639 0.34675 0.63144 0.0
H414 H 0.27186 0.33573 0.58699 0.0
H415 H 0.29806 0.3035 0.61433 0.0
H416 H 0.20674 0.27688 0.45926 0.0
H417 H 0.26937 0.20411 0.53819 0.0
H418 H 0.26726 0.33323 0.42505 0.0
H419 H 0.25571 0.34765 0.49054 0.0
H420 H 0.22397 0.33196 0.44431 0.0
H421 H 0.34545 0.2432 0.51876 0.0
H422 H 0.32507 0.21538 0.56461 0.0
H423 H 0.33291 0.2585 0.58317 0.0
C424 C 0.63701 0.34008 0.48546 0.0
C425 C 0.63012 0.36473 0.52438 0.0
C426 C 0.66239 0.31625 0.49403 0.0
C427 C 0.68194 0.31757 0.54215 0.0
C428 C 0.67574 0.34298 0.58099 0.0
C429 C 0.64959 0.36601 0.57196 0.0
C430 C 0.66763 0.28907 0.45221 0.0
C431 C 0.69656 0.3457 0.63219 0.0
C432 C 0.72358 0.2364 0.58588 0.0
C433 C 0.75534 0.23935 0.56342 0.0
C434 C 0.69958 0.26191 0.57996 0.0
C435 C 0.70798 0.29152 0.55231 0.0
C436 C 0.7406 0.29521 0.53161 0.0
C437 C 0.76379 0.26882 0.53672 0.0
C438 C 0.66485 0.25662 0.60145 0.0
C439 C 0.7508 0.32679 0.5033 0.0
H440 H 0.62188 0.33878 0.44881 0.0
H441 H 0.64447 0.38511 0.6021 0.0
H442 H 0.6937 0.2898 0.43759 0.0
H443 H 0.66388 0.26412 0.47049 0.0
H444 H 0.6502 0.29151 0.41708 0.0
H445 H 0.68988 0.36812 0.65668 0.0
H446 H 0.69301 0.32308 0.65699 0.0
H447 H 0.72356 0.34697 0.62247 0.0
H448 H 0.71712 0.21354 0.6065 0.0
H449 H 0.78853 0.27128 0.51992 0.0
H450 H 0.64627 0.25684 0.56766 0.0
H451 H 0.65812 0.27733 0.62935 0.0
H452 H 0.66261 0.23251 0.62305 0.0
H453 H 0.73626 0.32927 0.46507 0.0
H454 H 0.77792 0.32695 0.49397 0.0
H455 H 0.74503 0.34908 0.5286 0.0
C456 C 0.00814 0.10045 0.22619 0.0
C457 C 0.0227 0.09095 0.17729 0.0
C458 C 0.02809 0.10884 0.27138 0.0
C459 C 0.06342 0.10714 0.26782 0.0
C460 C 0.07825 0.09866 0.21825 0.0
C461 C 0.05765 0.09104 0.17358 0.0
C462 C 0.01125 0.11841 0.32331 0.0
C463 C 0.11583 0.09681 0.21263 0.0
C464 C 0.11435 0.15139 0.37737 0.0
C465 C 0.12127 0.12503 0.41281 0.0
C466 C 0.09613 0.14582 0.32933 0.0
C467 C 0.08475 0.1131 0.31648 0.0
C468 C 0.09262 0.08619 0.35124 0.0
C469 C 0.11074 0.09252 0.39913 0.0
C470 C 0.0879 0.17514 0.29341 0.0
C471 C 0.0813 0.05086 0.3384 0.0
H472 H 0.9811 0.1007 0.22962 0.0
H473 H 0.06908 0.08486 0.13599 0.0
H474 H 0.02409 0.1399 0.3433 0.0
H475 H 0.9845 0.12519 0.31662 0.0
H476 H 0.01258 0.09693 0.3513 0.0
H477 H 0.12335 0.0917 0.17046 0.0
H478 H 0.12755 0.12064 0.22639 0.0
H479 H 0.12607 0.07661 0.23859 0.0
H480 H 0.12209 0.17662 0.3882 0.0
H481 H 0.11638 0.07207 0.42629 0.0
H482 H 0.06038 0.17918 0.29196 0.0
H483 H 0.09591 0.16979 0.25164 0.0
H484 H 0.10012 0.19865 0.30771 0.0
H485 H 0.05354 0.04997 0.33556 0.0
H486 H 0.08992 0.03269 0.36933 0.0
H487 H 0.091 0.04274 0.29872 0.0
C488 C 0.88698 0.00775 0.22832 0.0
C489 C 0.89987 0.02359 0.1829 0.0
C490 C 0.87605 0.0265 0.27287 0.0
C491 C 0.87872 0.06186 0.27242 0.0
C492 C 0.89049 0.078 0.22609 0.0
C493 C 0.90043 0.05864 0.18182 0.0
C494 C 0.86264 0.00844 0.32103 0.0
C495 C 0.89404 0.11565 0.22406 0.0
C496 C 0.8337 0.11341 0.37853 0.0
C497 C 0.85917 0.11781 0.41757 0.0
C498 C 0.83968 0.09546 0.33071 0.0
C499 C 0.8719 0.08176 0.32186 0.0
C500 C 0.89791 0.08688 0.36052 0.0
C501 C 0.89122 0.10484 0.40789 0.0
C502 C 0.81133 0.09028 0.29046 0.0
C503 C 0.93261 0.07266 0.35253 0.0
H504 H 0.88591 0.98063 0.22957 0.0
H505 H 0.90928 0.07117 0.14697 0.0
H506 H 0.88075 0.01075 0.35524 0.0
H507 H 0.83876 0.01999 0.334 0.0
H508 H 0.85825 0.98141 0.31249 0.0
H509 H 0.90141 0.12442 0.18364 0.0
H510 H 0.87015 0.12805 0.23492 0.0
H511 H 0.91338 0.1239 0.25395 0.0
H512 H 0.80879 0.12302 0.3862 0.0
H513 H 0.91104 0.10845 0.43778 0.0
H514 H 0.80567 0.06315 0.28655 0.0
H515 H 0.81871 0.09905 0.25013 0.0
H516 H 0.78814 0.10371 0.30234 0.0
H517 H 0.9317 0.04492 0.35462 0.0
H518 H 0.95083 0.08189 0.38354 0.0
H519 H 0.94189 0.07915 0.31212 0.0
C520 C 0.94146 0.90378 0.19028 0.0
C521 C 0.97647 0.90443 0.19425 0.0
C522 C 0.92186 0.89528 0.23414 0.0
C523 C 0.93776 0.88607 0.28306 0.0
C524 C 0.9732 0.8854 0.28713 0.0
C525 C 0.99218 0.8948 0.24268 0.0
C526 C 0.88412 0.89673 0.22827 0.0
C527 C 0.99106 0.87527 0.33855 0.0
C528 C 0.8877 0.89573 0.41041 0.0
C529 C 0.87639 0.86293 0.41806 0.0
C530 C 0.90784 0.90357 0.36669 0.0
C531 C 0.91705 0.8779 0.3301 0.0
C532 C 0.90547 0.84478 0.33735 0.0
C533 C 0.88507 0.83771 0.3812 0.0
C534 C 0.91955 0.93922 0.35998 0.0
C535 C 0.91512 0.81675 0.29933 0.0
H536 H 0.92914 0.90982 0.15287 0.0
H537 H 0.01929 0.8948 0.24599 0.0
H538 H 0.87321 0.87181 0.23655 0.0
H539 H 0.87382 0.91467 0.25818 0.0
H540 H 0.87575 0.90459 0.18739 0.0
H541 H 0.01848 0.87232 0.33315 0.0
H542 H 0.98687 0.8946 0.37015 0.0
H543 H 0.98083 0.85133 0.35344 0.0
H544 H 0.88093 0.91524 0.43895 0.0
H545 H 0.87679 0.81224 0.38766 0.0
H546 H 0.91308 0.94818 0.31893 0.0
H547 H 0.94721 0.94032 0.36455 0.0
H548 H 0.90838 0.95658 0.38999 0.0
H549 H 0.90621 0.82247 0.25786 0.0
H550 H 0.90453 0.79225 0.31122 0.0
H551 H 0.94282 0.81446 0.29818 0.0
C552 C 0.12647 0.95953 0.16482 0.0
C553 C 0.09369 0.97164 0.1679 0.0
C554 C 0.1408 0.94153 0.20762 0.0
C555 C 0.12167 0.93578 0.25412 0.0
C556 C 0.08827 0.94777 0.25676 0.0
C557 C 0.07467 0.9657 0.21341 0.0
C558 C 0.1767 0.92988 0.20369 0.0
C559 C 0.06721 0.94241 0.30586 0.0
C560 C 0.14455 0.86821 0.35447 0.0
C561 C 0.15871 0.88737 0.39659 0.0
C562 C 0.13356 0.8835 0.30663 0.0
C563 C 0.1368 0.91861 0.30123 0.0
C564 C 0.15258 0.93776 0.34254 0.0
C565 C 0.16348 0.92185 0.38966 0.0
C566 C 0.11732 0.86237 0.26274 0.0
C567 C 0.1569 0.9752 0.33779 0.0
H568 H 0.14093 0.96441 0.12919 0.0
H569 H 0.04924 0.97527 0.21513 0.0
H570 H 0.19315 0.94776 0.22604 0.0
H571 H 0.18028 0.90489 0.22203 0.0
H572 H 0.18502 0.92874 0.16125 0.0
H573 H 0.04094 0.95107 0.29972 0.0
H574 H 0.06695 0.91548 0.31647 0.0
H575 H 0.0783 0.9563 0.34073 0.0
H576 H 0.14084 0.84156 0.35975 0.0
H577 H 0.17512 0.93658 0.42176 0.0
H578 H 0.12945 0.86704 0.22365 0.0
H579 H 0.09052 0.86949 0.25808 0.0
H580 H 0.11887 0.83516 0.27148 0.0
H581 H 0.1709 0.98104 0.30088 0.0
H582 H 0.17046 0.98629 0.37309 0.0
H583 H 0.13201 0.98749 0.33399 0.0
C584 C 0.13146 0.97498 0.8214 0.0
C585 C 0.09927 0.98905 0.82222 0.0
C586 C 0.14185 0.95544 0.77762 0.0
C587 C 0.11946 0.94982 0.73369 0.0
C588 C 0.08667 0.96344 0.73467 0.0
C589 C 0.07698 0.983 0.77897 0.0
C590 C 0.17698 0.94124 0.77798 0.0
C591 C 0.06209 0.95833 0.68842 0.0
C592 C 0.15822 0.92938 0.5993 0.0
C593 C 0.15443 0.89447 0.59631 0.0
C594 C 0.1466 0.94774 0.64358 0.0
C595 C 0.13098 0.93071 0.68599 0.0
C596 C 0.12721 0.89546 0.68343 0.0
C597 C 0.1391 0.8777 0.63858 0.0
C598 C 0.15085 0.98536 0.64483 0.0
C599 C 0.11015 0.87667 0.72769 0.0
H600 H 0.14878 0.97951 0.85477 0.0
H601 H 0.052 0.99372 0.77952 0.0
H602 H 0.17616 0.91364 0.77236 0.0
H603 H 0.19114 0.95162 0.74393 0.0
H604 H 0.19091 0.94702 0.81606 0.0
H605 H 0.03592 0.96367 0.70049 0.0
H606 H 0.06848 0.97555 0.65536 0.0
H607 H 0.06338 0.93237 0.67223 0.0
H608 H 0.17032 0.94239 0.56686 0.0
H609 H 0.13569 0.85079 0.63595 0.0
H610 H 0.1652 0.99311 0.68152 0.0
H611 H 0.12594 0.9977 0.64663 0.0
H612 H 0.16403 0.9947 0.60896 0.0
H613 H 0.12343 0.8812 0.7667 0.0
H614 H 0.10934 0.84924 0.71973 0.0
H615 H 0.0841 0.88602 0.73206 0.0
C616 C 0.0411 0.11435 0.83992 0.0
C617 C 0.01426 0.09182 0.83657 0.0
C618 C 0.06352 0.11734 0.79748 0.0
C619 C 0.0592 0.09702 0.75086 0.0
C620 C 0.03321 0.07295 0.74845 0.0
C621 C 0.01072 0.07095 0.79109 0.0
C622 C 0.09107 0.14316 0.80172 0.0
C623 C 0.02837 0.05008 0.70019 0.0
C624 C 0.086 0.13422 0.61904 0.0
C625 C 0.11738 0.11932 0.61187 0.0
C626 C 0.06685 0.12697 0.66407 0.0
C627 C 0.07928 0.10385 0.70245 0.0
C628 C 0.11089 0.08832 0.69501 0.0
C629 C 0.12978 0.09648 0.64974 0.0
C630 C 0.03345 0.14433 0.67079 0.0
C631 C 0.12427 0.06247 0.73382 0.0
H632 H 0.04413 0.13032 0.87522 0.0
H633 H 0.99041 0.053 0.78876 0.0
H634 H 0.11572 0.13124 0.79429 0.0
H635 H 0.08705 0.16251 0.77044 0.0
H636 H 0.09209 0.15574 0.84183 0.0
H637 H 0.01305 0.02786 0.70999 0.0
H638 H 0.0153 0.06399 0.66752 0.0
H639 H 0.0528 0.04131 0.68463 0.0
H640 H 0.0766 0.15189 0.58944 0.0
H641 H 0.15393 0.08469 0.64343 0.0
H642 H 0.03324 0.15831 0.70964 0.0
H643 H 0.01309 0.12549 0.67184 0.0
H644 H 0.02777 0.16212 0.63772 0.0
H645 H 0.1214 0.07096 0.77617 0.0
H646 H 0.15108 0.05653 0.72691 0.0
H647 H 0.10962 0.03908 0.72848 0.0
C648 C 0.88913 0.04175 0.84799 0.0
C649 C 0.91077 0.01423 0.84244 0.0
C650 C 0.88196 0.06278 0.80449 0.0
C651 C 0.89677 0.0561 0.75417 0.0
C652 C 0.91947 0.02901 0.74865 0.0
C653 C 0.92613 0.00826 0.79288 0.0
C654 C 0.85782 0.09161 0.81203 0.0
C655 C 0.93608 0.02149 0.69572 0.0
C656 C 0.8485 0.08396 0.62984 0.0
C657 C 0.86512 0.11351 0.61705 0.0
C658 C 0.85864 0.06505 0.67446 0.0
C659 C 0.88635 0.07588 0.70644 0.0
C660 C 0.90338 0.10575 0.69338 0.0
C661 C 0.89238 0.1244 0.64873 0.0
C662 C 0.8397 0.0335 0.68734 0.0
C663 C 0.93352 0.11758 0.72585 0.0
H664 H 0.87739 0.04671 0.88629 0.0
H665 H 0.94318 0.98724 0.78849 0.0
H666 H 0.86932 0.11534 0.79874 0.0
H667 H 0.83502 0.08739 0.7867 0.0
H668 H 0.85019 0.0947 0.85462 0.0
H669 H 0.95527 0.00138 0.69934 0.0
H670 H 0.91691 0.01353 0.66537 0.0
H671 H 0.94819 0.04435 0.68025 0.0
H672 H 0.82756 0.07565 0.60472 0.0
H673 H 0.9054 0.1471 0.63791 0.0
H674 H 0.82924 0.03553 0.72835 0.0
H675 H 0.85697 0.01167 0.68713 0.0
H676 H 0.81883 0.02851 0.6582 0.0
H677 H 0.9277 0.11871 0.76935 0.0
H678 H 0.94224 0.14263 0.71307 0.0
H679 H 0.95439 0.09945 0.72099 0.0
C680 C 0.99463 0.89287 0.78853 0.0
C681 C 0.98322 0.88813 0.84092 0.0
C682 C 0.97299 0.88825 0.74394 0.0
C683 C 0.93895 0.88007 0.75235 0.0
C684 C 0.92712 0.87644 0.80525 0.0
C685 C 0.94963 0.87963 0.84871 0.0
C686 C 0.98666 0.89177 0.68798 0.0
C687 C 0.8909 0.8685 0.81632 0.0
C688 C 0.87791 0.8937 0.63594 0.0
C689 C 0.87399 0.86094 0.61637 0.0
C690 C 0.89845 0.9003 0.68118 0.0
C691 C 0.91609 0.87356 0.70587 0.0
C692 C 0.91183 0.84037 0.68636 0.0
C693 C 0.89047 0.83441 0.64202 0.0
C694 C 0.90137 0.93575 0.70248 0.0
C695 C 0.93064 0.81133 0.71122 0.0
H696 H 0.0206 0.89951 0.78231 0.0
H697 H 0.94075 0.87565 0.88897 0.0
H698 H 0.97917 0.87003 0.66232 0.0
H699 H 0.97611 0.91463 0.66904 0.0
H700 H 0.01442 0.89365 0.68835 0.0
H701 H 0.884 0.87592 0.85791 0.0
H702 H 0.87367 0.8814 0.78769 0.0
H703 H 0.88685 0.84112 0.81177 0.0
H704 H 0.86518 0.9141 0.61545 0.0
H705 H 0.88769 0.8092 0.6259 0.0
H706 H 0.92784 0.944 0.70155 0.0
H707 H 0.89356 0.9368 0.74514 0.0
H708 H 0.88577 0.95364 0.67888 0.0
H709 H 0.95801 0.81609 0.71025 0.0
H710 H 0.92532 0.78723 0.69004 0.0
H711 H 0.92378 0.80878 0.75406 0.0
C712 C 0.53974 0.62157 0.65251 0.0
C713 C 0.5224 0.59136 0.65665 0.0
C714 C 0.55969 0.63352 0.69562 0.0
C715 C 0.56211 0.61463 0.74354 0.0
C716 C 0.54465 0.58389 0.74741 0.0
C717 C 0.52481 0.5727 0.70381 0.0
C718 C 0.57785 0.66641 0.69012 0.0
C719 C 0.54664 0.56295 0.79771 0.0
C720 C 0.63345 0.6276 0.84456 0.0
C721 C 0.61709 0.64493 0.8858 0.0
C722 C 0.61615 0.61845 0.79696 0.0
C723 C 0.58192 0.62732 0.79053 0.0
C724 C 0.56585 0.64631 0.83104 0.0
C725 C 0.5836 0.65468 0.87841 0.0
C726 C 0.63395 0.59784 0.75488 0.0
C727 C 0.52959 0.6568 0.82513 0.0
H728 H 0.53775 0.63571 0.61552 0.0
H729 H 0.51136 0.5492 0.70632 0.0
H730 H 0.56817 0.68478 0.71989 0.0
H731 H 0.60499 0.66307 0.69899 0.0
H732 H 0.57478 0.67707 0.64916 0.0
H733 H 0.53456 0.53809 0.79196 0.0
H734 H 0.57315 0.55902 0.81032 0.0
H735 H 0.53402 0.57635 0.83109 0.0
H736 H 0.65932 0.61991 0.85059 0.0
H737 H 0.57113 0.6684 0.91025 0.0
H738 H 0.63007 0.60881 0.71438 0.0
H739 H 0.6233 0.57219 0.75352 0.0
H740 H 0.6613 0.59591 0.76342 0.0
H741 H 0.52565 0.67063 0.78699 0.0
H742 H 0.52132 0.67292 0.85915 0.0
H743 H 0.51338 0.63429 0.82303 0.0
C744 C 0.40243 0.56343 0.65322 0.0
C745 C 0.40238 0.52858 0.65904 0.0
C746 C 0.39614 0.58497 0.69684 0.0
C747 C 0.38859 0.57124 0.74742 0.0
C748 C 0.38656 0.53601 0.75301 0.0
C749 C 0.39382 0.5151 0.70892 0.0
C750 C 0.39851 0.62237 0.68906 0.0
C751 C 0.37795 0.52021 0.80599 0.0
C752 C 0.40679 0.6193 0.87704 0.0
C753 C 0.37474 0.63058 0.89089 0.0
C754 C 0.41185 0.60095 0.82939 0.0
C755 C 0.38411 0.59355 0.79504 0.0
C756 C 0.3519 0.60598 0.8078 0.0
C757 C 0.34763 0.62452 0.85554 0.0
C758 C 0.44668 0.5886 0.81666 0.0
C759 C 0.32166 0.5981 0.77258 0.0
H760 H 0.40773 0.57405 0.61476 0.0
H761 H 0.39342 0.48815 0.71397 0.0
H762 H 0.37528 0.63493 0.70267 0.0
H763 H 0.41956 0.63249 0.714 0.0
H764 H 0.40268 0.62903 0.64636 0.0
H765 H 0.36956 0.49387 0.80047 0.0
H766 H 0.40047 0.52035 0.83284 0.0
H767 H 0.35789 0.53442 0.8266 0.0
H768 H 0.42779 0.62416 0.90429 0.0
H769 H 0.32276 0.6328 0.8666 0.0
H770 H 0.45436 0.59822 0.77696 0.0
H771 H 0.4469 0.56084 0.81389 0.0
H772 H 0.46552 0.59653 0.84762 0.0
H773 H 0.32641 0.60488 0.73019 0.0
H774 H 0.29884 0.61152 0.78612 0.0
H775 H 0.31675 0.57075 0.77323 0.0
C776 C 0.43119 0.40501 0.66705 0.0
C777 C 0.46618 0.40285 0.66915 0.0
C778 C 0.41171 0.3961 0.71091 0.0
C779 C 0.42764 0.38368 0.75785 0.0
C780 C 0.46291 0.3799 0.75979 0.0
C781 C 0.48181 0.38986 0.71562 0.0
C782 C 0.37415 0.40081 0.70741 0.0
C783 C 0.48073 0.36607 0.8089 0.0
C784 C 0.38322 0.39284 0.89073 0.0
C785 C 0.37031 0.36055 0.89748 0.0
C786 C 0.4017 0.40078 0.84517 0.0
C787 C 0.40741 0.37578 0.80554 0.0
C788 C 0.39384 0.34335 0.81148 0.0
C789 C 0.37539 0.33612 0.85743 0.0
C790 C 0.41581 0.43566 0.84012 0.0
C791 C 0.3996 0.31607 0.77006 0.0
H792 H 0.41878 0.41401 0.63156 0.0
H793 H 0.50889 0.38779 0.71787 0.0
H794 H 0.36135 0.37662 0.71411 0.0
H795 H 0.366 0.41848 0.73945 0.0
H796 H 0.36569 0.41078 0.66781 0.0
H797 H 0.50752 0.36045 0.80127 0.0
H798 H 0.47931 0.38455 0.84244 0.0
H799 H 0.46841 0.34279 0.82235 0.0
H800 H 0.37916 0.41183 0.92148 0.0
H801 H 0.36597 0.31097 0.86292 0.0
H802 H 0.41023 0.44581 0.7995 0.0
H803 H 0.44347 0.43471 0.84514 0.0
H804 H 0.40569 0.45322 0.87084 0.0
H805 H 0.39042 0.32428 0.72987 0.0
H806 H 0.38682 0.29233 0.78026 0.0
H807 H 0.42685 0.31103 0.76677 0.0
C808 C 0.58531 0.43687 0.68289 0.0
C809 C 0.58564 0.47189 0.68581 0.0
C810 C 0.59392 0.41727 0.72739 0.0
C811 C 0.60436 0.43318 0.77581 0.0
C812 C 0.60565 0.4686 0.77906 0.0
C813 C 0.59593 0.48755 0.73414 0.0
C814 C 0.59155 0.37957 0.72265 0.0
C815 C 0.61716 0.48649 0.82993 0.0
C816 C 0.59953 0.38876 0.90926 0.0
C817 C 0.63291 0.37883 0.91741 0.0
C818 C 0.58958 0.40543 0.86226 0.0
C819 C 0.61379 0.41275 0.82317 0.0
C820 C 0.64725 0.40153 0.83022 0.0
C821 C 0.65638 0.38443 0.87728 0.0
C822 C 0.55356 0.41659 0.85577 0.0
C823 C 0.67378 0.40925 0.78957 0.0
H824 H 0.57853 0.42454 0.64589 0.0
H825 H 0.59648 0.51465 0.73692 0.0
H826 H 0.61655 0.36807 0.72981 0.0
H827 H 0.57461 0.36988 0.75382 0.0
H828 H 0.58199 0.37122 0.68243 0.0
H829 H 0.61995 0.5139 0.82406 0.0
H830 H 0.59876 0.48244 0.86215 0.0
H831 H 0.64154 0.47617 0.84424 0.0
H832 H 0.58148 0.38443 0.94055 0.0
H833 H 0.6823 0.37719 0.88414 0.0
H834 H 0.54416 0.41175 0.81411 0.0
H835 H 0.55184 0.44397 0.86333 0.0
H836 H 0.53693 0.40378 0.88442 0.0
H837 H 0.66572 0.40054 0.74883 0.0
H838 H 0.69824 0.39736 0.79985 0.0
H839 H 0.67739 0.43677 0.78755 0.0
C840 C 0.64247 0.51183 0.31206 0.0
C841 C 0.60891 0.5199 0.32196 0.0
C842 C 0.65094 0.48957 0.27048 0.0
C843 C 0.62523 0.47532 0.23777 0.0
C844 C 0.59136 0.4841 0.24649 0.0
C845 C 0.5836 0.5063 0.28859 0.0
C846 C 0.68731 0.48053 0.26257 0.0
C847 C 0.5633 0.46963 0.21199 0.0
C848 C 0.64886 0.43955 0.10197 0.0
C849 C 0.64823 0.40491 0.11143 0.0
C850 C 0.64126 0.46271 0.14264 0.0
C851 C 0.6338 0.45103 0.19457 0.0
C852 C 0.63438 0.41621 0.20514 0.0
C853 C 0.64138 0.39349 0.16326 0.0
C854 C 0.6406 0.49962 0.12971 0.0
C855 C 0.62701 0.40294 0.26042 0.0
H856 H 0.66216 0.52225 0.3377 0.0
H857 H 0.5576 0.5122 0.29627 0.0
H858 H 0.69092 0.45318 0.268 0.0
H859 H 0.69481 0.48645 0.22095 0.0
H860 H 0.70428 0.49404 0.29125 0.0
H861 H 0.53821 0.47821 0.22521 0.0
H862 H 0.5666 0.47697 0.16944 0.0
H863 H 0.56398 0.44186 0.21322 0.0
H864 H 0.65498 0.44863 0.06237 0.0
H865 H 0.64065 0.3668 0.17076 0.0
H866 H 0.65851 0.51336 0.15639 0.0
H867 H 0.61528 0.51002 0.13718 0.0
H868 H 0.64706 0.50455 0.08719 0.0
H869 H 0.64385 0.4149 0.29097 0.0
H870 H 0.63018 0.37532 0.26267 0.0
H871 H 0.60092 0.40937 0.27132 0.0
C872 C 0.54156 0.61725 0.31345 0.0
C873 C 0.51917 0.5903 0.31012 0.0
C874 C 0.56238 0.62481 0.27045 0.0
C875 C 0.56101 0.60468 0.22325 0.0
C876 C 0.53933 0.57669 0.22037 0.0
C877 C 0.51845 0.56995 0.26377 0.0
C878 C 0.5849 0.65511 0.27476 0.0
C879 C 0.53759 0.5544 0.17095 0.0
C880 C 0.58305 0.64568 0.0919 0.0
C881 C 0.61611 0.63486 0.08482 0.0
C882 C 0.56492 0.63602 0.13686 0.0
C883 C 0.58014 0.61466 0.17535 0.0
C884 C 0.61354 0.60351 0.1684 0.0
C885 C 0.63132 0.61403 0.12326 0.0
C886 C 0.52947 0.64873 0.14319 0.0
C887 C 0.63023 0.58021 0.20825 0.0
H888 H 0.54237 0.63297 0.3493 0.0
H889 H 0.50146 0.54883 0.26122 0.0
H890 H 0.6111 0.64805 0.2656 0.0
H891 H 0.57678 0.67398 0.24467 0.0
H892 H 0.58449 0.66696 0.31543 0.0
H893 H 0.5217 0.53202 0.17698 0.0
H894 H 0.5271 0.56866 0.13643 0.0
H895 H 0.56309 0.54597 0.15989 0.0
H896 H 0.57143 0.66198 0.06223 0.0
H897 H 0.6568 0.60545 0.11735 0.0
H898 H 0.52704 0.662 0.18242 0.0
H899 H 0.51179 0.62735 0.1431 0.0
H900 H 0.52177 0.66609 0.11051 0.0
H901 H 0.6305 0.59169 0.24912 0.0
H902 H 0.65637 0.57394 0.19721 0.0
H903 H 0.61568 0.55665 0.21055 0.0
C904 C 0.42477 0.50659 0.26949 0.0
C905 C 0.40565 0.51281 0.31538 0.0
C906 C 0.42295 0.52813 0.2252 0.0
C907 C 0.40108 0.55612 0.22667 0.0
C908 C 0.38233 0.56289 0.27339 0.0
C909 C 0.38495 0.54122 0.31724 0.0
C910 C 0.44378 0.52046 0.17643 0.0
C911 C 0.35882 0.59257 0.27657 0.0
C912 C 0.40614 0.62689 0.12591 0.0
C913 C 0.38104 0.61747 0.08883 0.0
C914 C 0.41379 0.60662 0.17043 0.0
C915 C 0.39543 0.57673 0.17794 0.0
C916 C 0.37019 0.56719 0.1401 0.0
C917 C 0.36349 0.58761 0.0957 0.0
C918 C 0.44165 0.61696 0.20895 0.0
C919 C 0.34972 0.53581 0.14714 0.0
H920 H 0.44116 0.48489 0.26812 0.0
H921 H 0.37027 0.54628 0.35273 0.0
H922 H 0.42722 0.51178 0.1428 0.0
H923 H 0.45671 0.54336 0.16285 0.0
H924 H 0.46283 0.5007 0.18455 0.0
H925 H 0.34644 0.5946 0.31621 0.0
H926 H 0.37273 0.6161 0.26954 0.0
H927 H 0.33913 0.59043 0.2446 0.0
H928 H 0.41983 0.64993 0.11983 0.0
H929 H 0.34407 0.58059 0.06667 0.0
H930 H 0.46253 0.5987 0.20597 0.0
H931 H 0.43296 0.61668 0.25113 0.0
H932 H 0.45148 0.64229 0.20008 0.0
H933 H 0.36646 0.51365 0.14978 0.0
H934 H 0.33143 0.5317 0.1135 0.0
H935 H 0.33582 0.53745 0.1854 0.0
C936 C 0.48889 0.39821 0.27554 0.0
C937 C 0.47602 0.39502 0.32741 0.0
C938 C 0.46881 0.39143 0.22979 0.0
C939 C 0.43492 0.38207 0.23621 0.0
C940 C 0.42161 0.37968 0.2884 0.0
C941 C 0.44255 0.38546 0.33331 0.0
C942 C 0.48402 0.39373 0.17471 0.0
C943 C 0.38539 0.37058 0.29707 0.0
C944 C 0.3767 0.39052 0.11472 0.0
C945 C 0.37435 0.35718 0.09705 0.0
C946 C 0.39582 0.39898 0.16076 0.0
C947 C 0.41369 0.37353 0.18845 0.0
C948 C 0.41124 0.33978 0.17065 0.0
C949 C 0.39121 0.33195 0.12538 0.0
C950 C 0.39697 0.43504 0.17975 0.0
C951 C 0.4304 0.31209 0.19863 0.0
H952 H 0.51478 0.40555 0.27065 0.0
H953 H 0.43257 0.38256 0.37314 0.0
H954 H 0.48183 0.3692 0.15348 0.0
H955 H 0.47017 0.41241 0.15008 0.0
H956 H 0.51087 0.40098 0.17674 0.0
H957 H 0.37749 0.37626 0.33884 0.0
H958 H 0.36861 0.38429 0.26876 0.0
H959 H 0.38186 0.34338 0.28935 0.0
H960 H 0.36359 0.4099 0.09237 0.0
H961 H 0.38958 0.30626 0.11094 0.0
H962 H 0.42302 0.44452 0.17852 0.0
H963 H 0.38889 0.43688 0.22222 0.0
H964 H 0.38069 0.45156 0.15475 0.0
H965 H 0.4576 0.31781 0.19918 0.0
H966 H 0.42648 0.28732 0.17872 0.0
H967 H 0.42251 0.31034 0.2411 0.0
loop_
_geom_bond_atom_site_label_1
_geom_bond_atom_site_label_2
_geom_bond_distance
_geom_bond_site_symmetry_2
_ccdc_geom_bond_type
Zn0 O2 1.933 1_556 S
Zn0 O20 1.985 . S
Zn0 O31 1.955 . S
Zn1 O2 1.911 . S
Zn1 O21 1.970 . S
Zn1 O37 1.945 . S
Zn1 O44 1.981 . S
O2 Zn0 1.933 1_554 S
O2 Zn1 1.911 . S
O2 H3 0.841 1_655 S
H3 O2 0.841 1_455 S
C4 O5 1.246 . S
C4 O33 1.276 1_545 S
O5 C4 1.246 . S
Zn6 O8 1.911 . S
Zn6 O23 1.970 . S
Zn6 O40 1.945 . S
Zn6 O47 1.981 . S
Zn7 O8 1.933 1_556 S
Zn7 O22 1.985 . S
Zn7 O29 1.955 . S
O8 Zn6 1.911 . S
O8 Zn7 1.933 1_554 S
O8 H9 0.841 1_455 S
H9 O8 0.841 1_655 S
Zn10 O11 1.933 1_556 S
Zn10 O24 1.985 . S
Zn10 O33 1.955 . S
O11 Zn10 1.933 1_554 S
O11 Zn12 1.911 . S
O11 H13 0.841 1_565 S
Zn12 O11 1.911 . S
Zn12 O25 1.970 . S
Zn12 O41 1.981 . S
Zn12 O43 1.945 . S
H13 O11 0.841 1_545 S
Zn14 O15 1.933 1_556 S
Zn14 O27 1.985 . S
Zn14 O35 1.955 . S
O15 Zn14 1.933 1_554 S
O15 H16 0.841 1_545 S
O15 Zn17 1.911 . S
H16 O15 0.841 1_565 S
Zn17 O15 1.911 . S
Zn17 O28 1.970 . S
Zn17 O38 1.981 . S
Zn17 O46 1.945 . S
C18 O19 1.246 . S
C18 O35 1.276 1_565 S
O19 C18 1.246 . S
O20 Zn0 1.985 . S
O20 C30 1.245 1_556 S
O21 Zn1 1.970 . S
O21 C30 1.263 . S
O22 Zn7 1.985 . S
O22 C34 1.245 1_556 S
O23 Zn6 1.970 . S
O23 C34 1.263 . S
O24 Zn10 1.985 . S
O24 C39 1.245 1_556 S
O25 Zn12 1.970 . S
O25 C39 1.263 . S
C26 O37 1.262 1_455 S
C26 O38 1.245 . S
O27 Zn14 1.985 . S
O27 C45 1.245 1_556 S
O28 Zn17 1.970 . S
O28 C45 1.263 . S
O29 Zn7 1.955 . S
O29 C48 1.276 1_455 S
C30 O20 1.245 1_554 S
C30 O21 1.263 . S
O31 Zn0 1.955 . S
O31 C50 1.276 1_655 S
C32 O40 1.262 1_655 S
C32 O41 1.245 . S
O33 C4 1.276 1_565 S
O33 Zn10 1.955 . S
C34 O22 1.245 1_554 S
C34 O23 1.263 . S
O35 Zn14 1.955 . S
O35 C18 1.276 1_545 S
C36 O43 1.262 1_545 S
C36 O44 1.245 . S
O37 Zn1 1.945 . S
O37 C26 1.262 1_655 S
O38 Zn17 1.981 . S
O38 C26 1.245 . S
C39 O24 1.245 1_554 S
C39 O25 1.263 . S
O40 Zn6 1.945 . S
O40 C32 1.262 1_455 S
O41 Zn12 1.981 . S
O41 C32 1.245 . S
C42 O46 1.262 1_565 S
C42 O47 1.245 . S
O43 Zn12 1.945 . S
O43 C36 1.262 1_565 S
O44 Zn1 1.981 . S
O44 C36 1.245 . S
C45 O27 1.245 1_554 S
C45 O28 1.263 . S
O46 Zn17 1.945 . S
O46 C42 1.262 1_545 S
O47 Zn6 1.981 . S
O47 C42 1.245 . S
C48 O29 1.276 1_655 S
C48 O49 1.246 . S
O49 C48 1.246 . S
C50 O31 1.276 1_455 S
C50 O51 1.246 . S
O51 C50 1.246 . S
Zn52 O54 1.933 . S
Zn52 O72 1.985 . S
Zn52 O83 1.955 . S
Zn53 O54 1.911 . S
Zn53 O73 1.970 . S
Zn53 O89 1.945 . S
Zn53 O96 1.981 . S
O54 Zn52 1.933 . S
O54 Zn53 1.911 . S
O54 H55 0.841 . S
H55 O54 0.841 . S
C56 O57 1.246 . S
C56 O85 1.276 . S
O57 C56 1.246 . S
Zn58 O60 1.911 . S
Zn58 O75 1.970 . S
Zn58 O92 1.945 . S
Zn58 O99 1.981 . S
Zn59 O60 1.933 . S
Zn59 O74 1.985 . S
Zn59 O81 1.955 . S
O60 Zn58 1.911 . S
O60 Zn59 1.933 . S
O60 H61 0.841 . S
H61 O60 0.841 . S
Zn62 O63 1.933 . S
Zn62 O76 1.985 . S
Zn62 O85 1.955 . S
O63 Zn62 1.933 . S
O63 Zn64 1.911 . S
O63 H65 0.841 . S
Zn64 O63 1.911 . S
Zn64 O77 1.970 . S
Zn64 O93 1.981 . S
Zn64 O95 1.945 . S
H65 O63 0.841 . S
Zn66 O67 1.933 . S
Zn66 O79 1.985 . S
Zn66 O87 1.955 . S
O67 Zn66 1.933 . S
O67 H68 0.841 . S
O67 Zn69 1.911 . S
H68 O67 0.841 . S
Zn69 O67 1.911 . S
Zn69 O80 1.970 . S
Zn69 O90 1.981 . S
Zn69 O98 1.945 . S
C70 O71 1.246 . S
C70 O87 1.276 . S
O71 C70 1.246 . S
O72 Zn52 1.985 . S
O72 C82 1.245 . S
O73 Zn53 1.970 . S
O73 C82 1.263 . S
O74 Zn59 1.985 . S
O74 C86 1.245 . S
O75 Zn58 1.970 . S
O75 C86 1.263 . S
O76 Zn62 1.985 . S
O76 C91 1.245 . S
O77 Zn64 1.970 . S
O77 C91 1.263 . S
C78 O89 1.262 . S
C78 O90 1.245 . S
O79 Zn66 1.985 . S
O79 C97 1.245 . S
O80 Zn69 1.970 . S
O80 C97 1.263 . S
O81 Zn59 1.955 . S
O81 C100 1.276 . S
C82 O72 1.245 . S
C82 O73 1.263 . S
O83 Zn52 1.955 . S
O83 C102 1.276 . S
C84 O92 1.262 . S
C84 O93 1.245 . S
O85 C56 1.276 . S
O85 Zn62 1.955 . S
C86 O74 1.245 . S
C86 O75 1.263 . S
O87 Zn66 1.955 . S
O87 C70 1.276 . S
C88 O95 1.262 . S
C88 O96 1.245 . S
O89 Zn53 1.945 . S
O89 C78 1.262 . S
O90 Zn69 1.981 . S
O90 C78 1.245 . S
C91 O76 1.245 . S
C91 O77 1.263 . S
O92 Zn58 1.945 . S
O92 C84 1.262 . S
O93 Zn64 1.981 . S
O93 C84 1.245 . S
C94 O98 1.262 . S
C94 O99 1.245 . S
O95 Zn64 1.945 . S
O95 C88 1.262 . S
O96 Zn53 1.981 . S
O96 C88 1.245 . S
C97 O79 1.245 . S
C97 O80 1.263 . S
O98 Zn69 1.945 . S
O98 C94 1.262 . S
O99 Zn58 1.981 . S
O99 C94 1.245 . S
C100 O81 1.276 . S
C100 O101 1.246 . S
O101 C100 1.246 . S
C102 O83 1.276 . S
C102 O103 1.246 . S
O103 C102 1.246 . S
H104 C109 0.930 . S
H105 C112 0.930 . S
H106 C114 0.930 . S
H107 C108 1.016 . S
C108 H107 1.016 . S
C108 N115 1.286 1_554 S
C109 H104 0.930 . S
C109 C110 1.397 . S
C109 C111 1.360 . S
C110 C109 1.397 . S
C110 C114 1.390 1_556 S
C111 C109 1.360 . S
C111 C112 1.395 1_556 S
C111 N115 1.412 . S
C112 H105 0.930 . S
C112 C111 1.395 1_554 S
C112 C113 1.399 . S
C113 C112 1.399 . S
C113 C114 1.381 . S
C114 H106 0.930 . S
C114 C110 1.390 1_554 S
C114 C113 1.381 . S
N115 C108 1.286 1_556 S
N115 C111 1.412 . S
H116 C121 0.930 . S
H117 C124 0.930 . S
H118 C126 0.930 . S
H119 C120 1.016 . S
C120 H119 1.016 . S
C120 N127 1.286 1_554 S
C121 H116 0.930 . S
C121 C122 1.397 . S
C121 C123 1.361 1_556 S
C122 C121 1.397 . S
C122 C126 1.390 1_556 S
C123 C121 1.361 1_554 S
C123 C124 1.393 . S
C123 N127 1.413 1_554 S
C124 H117 0.930 . S
C124 C123 1.393 . S
C124 C125 1.399 . S
C125 C124 1.399 . S
C125 C126 1.381 . S
C126 H118 0.930 . S
C126 C122 1.390 1_554 S
C126 C125 1.381 . S
N127 C120 1.286 1_556 S
N127 C123 1.413 1_556 S
H128 C133 0.930 . S
H129 C136 0.930 . S
H130 C138 0.930 . S
H131 C132 1.016 1_556 S
C132 H131 1.016 1_554 S
C132 N139 1.286 . S
C133 H128 0.930 . S
C133 C134 1.397 . S
C133 C135 1.361 . S
C134 C133 1.397 . S
C134 C138 1.390 . S
C135 C133 1.361 . S
C135 C136 1.393 1_554 S
C135 N139 1.413 . S
C136 H129 0.930 . S
C136 C135 1.393 1_556 S
C136 C137 1.399 . S
C137 C136 1.399 . S
C137 C138 1.381 1_556 S
C138 H130 0.930 . S
C138 C134 1.390 . S
C138 C137 1.381 1_554 S
N139 C132 1.286 . S
N139 C135 1.413 . S
H140 C145 0.930 . S
H141 C148 0.930 . S
H142 C150 0.930 . S
H143 C144 1.016 . S
C144 H143 1.016 . S
C144 N151 1.286 1_554 S
C145 H140 0.930 . S
C145 C146 1.397 . S
C145 C147 1.361 . S
C146 C145 1.397 . S
C146 C150 1.390 1_556 S
C147 C145 1.361 . S
C147 C148 1.393 1_556 S
C147 N151 1.413 . S
C148 H141 0.930 . S
C148 C147 1.393 1_554 S
C148 C149 1.399 . S
C149 C148 1.399 . S
C149 C150 1.381 . S
C150 H142 0.930 . S
C150 C146 1.390 1_554 S
C150 C149 1.381 . S
N151 C144 1.286 1_556 S
N151 C147 1.413 . S
H152 C157 0.930 . S
H153 C160 0.930 . S
H154 C162 0.930 . S
H155 C156 1.016 . S
C156 H155 1.016 . S
C156 N163 1.286 . S
C157 H152 0.930 . S
C157 C158 1.397 . S
C157 C159 1.361 . S
C158 C157 1.397 . S
C158 C162 1.390 . S
C159 C157 1.361 . S
C159 C160 1.393 . S
C159 N163 1.413 . S
C160 H153 0.930 . S
C160 C159 1.393 . S
C160 C161 1.399 . S
C161 C160 1.399 . S
C161 C162 1.381 . S
C162 H154 0.930 . S
C162 C158 1.390 . S
C162 C161 1.381 . S
N163 C156 1.286 . S
N163 C159 1.413 . S
H164 C169 0.930 . S
H165 C172 0.930 . S
H166 C174 0.930 . S
H167 C168 1.016 . S
C168 H167 1.016 . S
C168 N175 1.286 . S
C169 H164 0.930 . S
C169 C170 1.397 . S
C169 C171 1.361 . S
C170 C169 1.397 . S
C170 C174 1.390 . S
C171 C169 1.361 . S
C171 C172 1.393 . S
C171 N175 1.413 . S
C172 H165 0.930 . S
C172 C171 1.393 . S
C172 C173 1.399 . S
C173 C172 1.399 . S
C173 C174 1.381 . S
C174 H166 0.930 . S
C174 C170 1.390 . S
C174 C173 1.381 . S
N175 C168 1.286 . S
N175 C171 1.413 . S
H176 C181 0.930 . S
H177 C184 0.930 . S
H178 C186 0.930 . S
H179 C180 1.016 . S
C180 H179 1.016 . S
C180 N187 1.286 . S
C181 H176 0.930 . S
C181 C182 1.397 . S
C181 C183 1.361 . S
C182 C181 1.397 . S
C182 C186 1.390 . S
C183 C181 1.361 . S
C183 C184 1.393 . S
C183 N187 1.413 . S
C184 H177 0.930 . S
C184 C183 1.393 . S
C184 C185 1.399 . S
C185 C184 1.399 . S
C185 C186 1.381 . S
C186 H178 0.930 . S
C186 C182 1.390 . S
C186 C185 1.381 . S
N187 C180 1.286 . S
N187 C183 1.413 . S
H188 C193 0.930 . S
H189 C196 0.930 . S
H190 C198 0.930 . S
H191 C192 1.016 . S
C192 H191 1.016 . S
C192 N199 1.286 . S
C193 H188 0.930 . S
C193 C194 1.397 . S
C193 C195 1.361 . S
C194 C193 1.397 . S
C194 C198 1.390 . S
C195 C193 1.361 . S
C195 C196 1.393 . S
C195 N199 1.413 . S
C196 H189 0.930 . S
C196 C195 1.393 . S
C196 C197 1.399 . S
C197 C196 1.399 . S
C197 C198 1.381 . S
C198 H190 0.930 . S
C198 C194 1.390 . S
C198 C197 1.381 . S
N199 C192 1.286 . S
N199 C195 1.413 . S
C200 C201 1.391 1_556 S
C200 C202 1.394 . S
C200 H216 0.931 . S
C201 C200 1.391 1_554 S
C201 C205 1.376 . S
C202 C200 1.394 . S
C202 C203 1.369 1_556 S
C202 C206 1.531 . S
C203 C202 1.369 1_554 S
C203 C204 1.410 . S
C203 C211 1.503 . S
C204 C203 1.410 . S
C204 C205 1.392 . S
C204 C207 1.511 . S
C205 C201 1.376 . S
C205 C204 1.392 . S
C205 H217 0.929 . S
C206 C202 1.531 . S
C206 H218 0.960 . S
C206 H219 0.962 . S
C206 H220 0.960 . S
C207 C204 1.511 . S
C207 H221 0.961 . S
C207 H222 0.961 . S
C207 H223 0.961 . S
C208 C209 1.370 . S
C208 C210 1.363 . S
C208 H224 0.931 . S
C209 C208 1.370 . S
C209 C213 1.408 1_554 S
C210 C208 1.363 . S
C210 C211 1.370 . S
C210 C214 1.524 . S
C211 C203 1.503 . S
C211 C210 1.370 . S
C211 C212 1.403 1_554 S
C212 C211 1.403 1_556 S
C212 C213 1.404 . S
C212 C215 1.539 . S
C213 C209 1.408 1_556 S
C213 C212 1.404 . S
C213 H225 0.930 . S
C214 C210 1.524 . S
C214 H226 0.956 . S
C214 H227 0.961 . S
C214 H228 0.961 . S
C215 C212 1.539 . S
C215 H229 0.958 . S
C215 H230 0.961 . S
C215 H231 0.960 . S
H216 C200 0.931 . S
H217 C205 0.929 . S
H218 C206 0.960 . S
H219 C206 0.962 . S
H220 C206 0.960 . S
H221 C207 0.961 . S
H222 C207 0.961 . S
H223 C207 0.961 . S
H224 C208 0.931 . S
H225 C213 0.930 . S
H226 C214 0.956 . S
H227 C214 0.961 . S
H228 C214 0.961 . S
H229 C215 0.958 . S
H230 C215 0.961 . S
H231 C215 0.960 . S
C232 C233 1.391 1_556 S
C232 C234 1.394 . S
C232 H248 0.931 . S
C233 C232 1.391 1_554 S
C233 C237 1.376 . S
C234 C232 1.394 . S
C234 C235 1.369 1_556 S
C234 C238 1.531 . S
C235 C234 1.369 1_554 S
C235 C236 1.410 . S
C235 C243 1.503 . S
C236 C235 1.410 . S
C236 C237 1.392 . S
C236 C239 1.511 . S
C237 C233 1.376 . S
C237 C236 1.392 . S
C237 H249 0.929 . S
C238 C234 1.531 . S
C238 H250 0.960 . S
C238 H251 0.962 . S
C238 H252 0.960 . S
C239 C236 1.511 . S
C239 H253 0.961 . S
C239 H254 0.961 . S
C239 H255 0.961 . S
C240 C241 1.370 . S
C240 C242 1.363 . S
C240 H256 0.931 . S
C241 C240 1.370 . S
C241 C245 1.408 1_554 S
C242 C240 1.363 . S
C242 C243 1.370 . S
C242 C246 1.524 . S
C243 C235 1.503 . S
C243 C242 1.370 . S
C243 C244 1.403 1_554 S
C244 C243 1.403 1_556 S
C244 C245 1.404 . S
C244 C247 1.539 . S
C245 C241 1.408 1_556 S
C245 C244 1.404 . S
C245 H257 0.930 . S
C246 C242 1.524 . S
C246 H258 0.956 . S
C246 H259 0.961 . S
C246 H260 0.961 . S
C247 C244 1.539 . S
C247 H261 0.958 . S
C247 H262 0.961 . S
C247 H263 0.960 . S
H248 C232 0.931 . S
H249 C237 0.929 . S
H250 C238 0.960 . S
H251 C238 0.962 . S
H252 C238 0.960 . S
H253 C239 0.961 . S
H254 C239 0.961 . S
H255 C239 0.961 . S
H256 C240 0.931 . S
H257 C245 0.930 . S
H258 C246 0.956 . S
H259 C246 0.961 . S
H260 C246 0.961 . S
H261 C247 0.958 . S
H262 C247 0.961 . S
H263 C247 0.960 . S
C264 C265 1.391 . S
C264 C266 1.394 . S
C264 H280 0.931 . S
C265 C264 1.391 . S
C265 C269 1.376 1_554 S
C266 C264 1.394 . S
C266 C267 1.369 1_554 S
C266 C270 1.531 . S
C267 C266 1.369 1_556 S
C267 C268 1.410 . S
C267 C275 1.503 . S
C268 C267 1.410 . S
C268 C269 1.392 . S
C268 C271 1.511 . S
C269 C265 1.376 1_556 S
C269 C268 1.392 . S
C269 H281 0.929 . S
C270 C266 1.531 . S
C270 H282 0.960 1_554 S
C270 H283 0.962 . S
C270 H284 0.960 . S
C271 C268 1.511 . S
C271 H285 0.961 . S
C271 H286 0.961 . S
C271 H287 0.961 . S
C272 C273 1.370 . S
C272 C274 1.363 . S
C272 H288 0.931 . S
C273 C272 1.370 . S
C273 C277 1.408 1_554 S
C274 C272 1.363 . S
C274 C275 1.372 1_554 S
C274 C278 1.524 . S
C275 C267 1.503 . S
C275 C274 1.372 1_556 S
C275 C276 1.401 . S
C276 C275 1.401 . S
C276 C277 1.404 . S
C276 C279 1.539 . S
C277 C273 1.408 1_556 S
C277 C276 1.404 . S
C277 H289 0.930 . S
C278 C274 1.524 . S
C278 H290 0.956 . S
C278 H291 0.961 . S
C278 H292 0.961 . S
C279 C276 1.539 . S
C279 H293 0.958 . S
C279 H294 0.961 . S
C279 H295 0.960 . S
H280 C264 0.931 . S
H281 C269 0.929 . S
H282 C270 0.960 1_556 S
H283 C270 0.962 . S
H284 C270 0.960 . S
H285 C271 0.961 . S
H286 C271 0.961 . S
H287 C271 0.961 . S
H288 C272 0.931 . S
H289 C277 0.930 . S
H290 C278 0.956 . S
H291 C278 0.961 . S
H292 C278 0.961 . S
H293 C279 0.958 . S
H294 C279 0.961 . S
H295 C279 0.960 . S
C296 C297 1.391 . S
C296 C298 1.394 . S
C296 H312 0.931 . S
C297 C296 1.391 . S
C297 C301 1.376 1_554 S
C298 C296 1.394 . S
C298 C299 1.369 . S
C298 C302 1.531 . S
C299 C298 1.369 . S
C299 C300 1.420 . S
C299 C307 1.503 . S
C300 C299 1.420 . S
C300 C301 1.391 1_554 S
C300 C303 1.502 1_554 S
C301 C297 1.376 1_556 S
C301 C300 1.391 1_556 S
C301 H313 0.929 . S
C302 C298 1.531 . S
C302 H314 0.960 . S
C302 H315 0.962 . S
C302 H316 0.960 . S
C303 C300 1.502 1_556 S
C303 H317 0.961 . S
C303 H318 0.961 . S
C303 H319 0.961 1_556 S
C304 C305 1.370 1_556 S
C304 C306 1.363 . S
C304 H320 0.931 . S
C305 C304 1.370 1_554 S
C305 C309 1.408 . S
C306 C304 1.363 . S
C306 C307 1.370 1_556 S
C306 C310 1.524 . S
C307 C299 1.503 . S
C307 C306 1.370 1_554 S
C307 C308 1.403 . S
C308 C307 1.403 . S
C308 C309 1.404 . S
C308 C311 1.539 . S
C309 C305 1.408 . S
C309 C308 1.404 . S
C309 H321 0.930 . S
C310 C306 1.524 . S
C310 H322 0.956 . S
C310 H323 0.961 . S
C310 H324 0.961 . S
C311 C308 1.539 . S
C311 H325 0.958 . S
C311 H326 0.961 . S
C311 H327 0.960 . S
H312 C296 0.931 . S
H313 C301 0.929 . S
H314 C302 0.960 . S
H315 C302 0.962 . S
H316 C302 0.960 . S
H317 C303 0.961 . S
H318 C303 0.961 . S
H319 C303 0.961 1_554 S
H320 C304 0.931 . S
H321 C309 0.930 . S
H322 C310 0.956 . S
H323 C310 0.961 . S
H324 C310 0.961 . S
H325 C311 0.958 . S
H326 C311 0.961 . S
H327 C311 0.960 . S
C328 C329 1.391 . S
C328 C330 1.394 . S
C328 H344 0.931 . S
C329 C328 1.391 . S
C329 C333 1.376 . S
C330 C328 1.394 . S
C330 C331 1.369 . S
C330 C334 1.531 . S
C331 C330 1.369 . S
C331 C332 1.410 . S
C331 C339 1.503 . S
C332 C331 1.410 . S
C332 C333 1.392 . S
C332 C335 1.511 . S
C333 C329 1.376 . S
C333 C332 1.392 . S
C333 H345 0.929 . S
C334 C330 1.531 . S
C334 H346 0.960 . S
C334 H347 0.962 . S
C334 H348 0.960 . S
C335 C332 1.511 . S
C335 H349 0.961 . S
C335 H350 0.961 . S
C335 H351 0.961 . S
C336 C337 1.370 . S
C336 C338 1.363 . S
C336 H352 0.931 . S
C337 C336 1.370 . S
C337 C341 1.408 . S
C338 C336 1.363 . S
C338 C339 1.370 . S
C338 C342 1.524 . S
C339 C331 1.503 . S
C339 C338 1.370 . S
C339 C340 1.403 . S
C340 C339 1.403 . S
C340 C341 1.404 . S
C340 C343 1.539 . S
C341 C337 1.408 . S
C341 C340 1.404 . S
C341 H353 0.930 . S
C342 C338 1.524 . S
C342 H354 0.956 . S
C342 H355 0.961 . S
C342 H356 0.961 . S
C343 C340 1.539 . S
C343 H357 0.958 . S
C343 H358 0.961 . S
C343 H359 0.960 . S
H344 C328 0.931 . S
H345 C333 0.929 . S
H346 C334 0.960 . S
H347 C334 0.962 . S
H348 C334 0.960 . S
H349 C335 0.961 . S
H350 C335 0.961 . S
H351 C335 0.961 . S
H352 C336 0.931 . S
H353 C341 0.930 . S
H354 C342 0.956 . S
H355 C342 0.961 . S
H356 C342 0.961 . S
H357 C343 0.958 . S
H358 C343 0.961 . S
H359 C343 0.960 . S
C360 C361 1.391 . S
C360 C362 1.394 . S
C360 H376 0.931 . S
C361 C360 1.391 . S
C361 C365 1.376 . S
C362 C360 1.394 . S
C362 C363 1.369 . S
C362 C366 1.531 . S
C363 C362 1.369 . S
C363 C364 1.410 . S
C363 C371 1.503 . S
C364 C363 1.410 . S
C364 C365 1.392 . S
C364 C367 1.511 . S
C365 C361 1.376 . S
C365 C364 1.392 . S
C365 H377 0.929 . S
C366 C362 1.531 . S
C366 H378 0.960 . S
C366 H379 0.962 . S
C366 H380 0.960 . S
C367 C364 1.511 . S
C367 H381 0.961 . S
C367 H382 0.961 . S
C367 H383 0.961 . S
C368 C369 1.370 . S
C368 C370 1.363 . S
C368 H384 0.931 . S
C369 C368 1.370 . S
C369 C373 1.408 . S
C370 C368 1.363 . S
C370 C371 1.370 . S
C370 C374 1.524 . S
C371 C363 1.503 . S
C371 C370 1.370 . S
C371 C372 1.403 . S
C372 C371 1.403 . S
C372 C373 1.404 . S
C372 C375 1.539 . S
C373 C369 1.408 . S
C373 C372 1.404 . S
C373 H385 0.930 . S
C374 C370 1.524 . S
C374 H386 0.956 . S
C374 H387 0.961 . S
C374 H388 0.961 . S
C375 C372 1.539 . S
C375 H389 0.958 . S
C375 H390 0.961 . S
C375 H391 0.960 . S
H376 C360 0.931 . S
H377 C365 0.929 . S
H378 C366 0.960 . S
H379 C366 0.962 . S
H380 C366 0.960 . S
H381 C367 0.961 . S
H382 C367 0.961 . S
H383 C367 0.961 . S
H384 C368 0.931 . S
H385 C373 0.930 . S
H386 C374 0.956 . S
H387 C374 0.961 . S
H388 C374 0.961 . S
H389 C375 0.958 . S
H390 C375 0.961 . S
H391 C375 0.960 . S
C392 C393 1.391 . S
C392 C394 1.394 . S
C392 H408 0.931 . S
C393 C392 1.391 . S
C393 C397 1.376 . S
C394 C392 1.394 . S
C394 C395 1.369 . S
C394 C398 1.531 . S
C395 C394 1.369 . S
C395 C396 1.410 . S
C395 C403 1.503 . S
C396 C395 1.410 . S
C396 C397 1.392 . S
C396 C399 1.511 . S
C397 C393 1.376 . S
C397 C396 1.392 . S
C397 H409 0.929 . S
C398 C394 1.531 . S
C398 H410 0.960 . S
C398 H411 0.962 . S
C398 H412 0.960 . S
C399 C396 1.511 . S
C399 H413 0.961 . S
C399 H414 0.961 . S
C399 H415 0.961 . S
C400 C401 1.370 . S
C400 C402 1.363 . S
C400 H416 0.931 . S
C401 C400 1.370 . S
C401 C405 1.408 . S
C402 C400 1.363 . S
C402 C403 1.370 . S
C402 C406 1.524 . S
C403 C395 1.503 . S
C403 C402 1.370 . S
C403 C404 1.403 . S
C404 C403 1.403 . S
C404 C405 1.404 . S
C404 C407 1.539 . S
C405 C401 1.408 . S
C405 C404 1.404 . S
C405 H417 0.930 . S
C406 C402 1.524 . S
C406 H418 0.956 . S
C406 H419 0.961 . S
C406 H420 0.961 . S
C407 C404 1.539 . S
C407 H421 0.958 . S
C407 H422 0.961 . S
C407 H423 0.960 . S
H408 C392 0.931 . S
H409 C397 0.929 . S
H410 C398 0.960 . S
H411 C398 0.962 . S
H412 C398 0.960 . S
H413 C399 0.961 . S
H414 C399 0.961 . S
H415 C399 0.961 . S
H416 C400 0.931 . S
H417 C405 0.930 . S
H418 C406 0.956 . S
H419 C406 0.961 . S
H420 C406 0.961 . S
H421 C407 0.958 . S
H422 C407 0.961 . S
H423 C407 0.960 . S
C424 C425 1.391 . S
C424 C426 1.394 . S
C424 H440 0.931 . S
C425 C424 1.391 . S
C425 C429 1.376 . S
C426 C424 1.394 . S
C426 C427 1.369 . S
C426 C430 1.531 . S
C427 C426 1.369 . S
C427 C428 1.410 . S
C427 C435 1.503 . S
C428 C427 1.410 . S
C428 C429 1.392 . S
C428 C431 1.511 . S
C429 C425 1.376 . S
C429 C428 1.392 . S
C429 H441 0.929 . S
C430 C426 1.531 . S
C430 H442 0.960 . S
C430 H443 0.962 . S
C430 H444 0.960 . S
C431 C428 1.511 . S
C431 H445 0.961 . S
C431 H446 0.961 . S
C431 H447 0.961 . S
C432 C433 1.370 . S
C432 C434 1.363 . S
C432 H448 0.931 . S
C433 C432 1.370 . S
C433 C437 1.408 . S
C434 C432 1.363 . S
C434 C435 1.370 . S
C434 C438 1.524 . S
C435 C427 1.503 . S
C435 C434 1.370 . S
C435 C436 1.403 . S
C436 C435 1.403 . S
C436 C437 1.404 . S
C436 C439 1.539 . S
C437 C433 1.408 . S
C437 C436 1.404 . S
C437 H449 0.930 . S
C438 C434 1.524 . S
C438 H450 0.956 . S
C438 H451 0.961 . S
C438 H452 0.961 . S
C439 C436 1.539 . S
C439 H453 0.958 . S
C439 H454 0.961 . S
C439 H455 0.960 . S
H440 C424 0.931 . S
H441 C429 0.929 . S
H442 C430 0.960 . S
H443 C430 0.962 . S
H444 C430 0.960 . S
H445 C431 0.961 . S
H446 C431 0.961 . S
H447 C431 0.961 . S
H448 C432 0.931 . S
H449 C437 0.930 . S
H450 C438 0.956 . S
H451 C438 0.961 . S
H452 C438 0.961 . S
H453 C439 0.958 . S
H454 C439 0.961 . S
H455 C439 0.960 . S
C456 C457 1.391 . S
C456 C458 1.394 . S
C456 H472 0.931 1_455 S
C457 C456 1.391 . S
C457 C461 1.376 . S
C458 C456 1.394 . S
C458 C459 1.369 . S
C458 C462 1.531 . S
C459 C458 1.369 . S
C459 C460 1.410 . S
C459 C467 1.503 . S
C460 C459 1.410 . S
C460 C461 1.392 . S
C460 C463 1.511 . S
C461 C457 1.376 . S
C461 C460 1.392 . S
C461 H473 0.929 . S
C462 C458 1.531 . S
C462 H474 0.960 . S
C462 H475 0.962 1_455 S
C462 H476 0.960 1_455 S
C463 C460 1.511 . S
C463 H477 0.961 . S
C463 H478 0.961 . S
C463 H479 0.961 . S
C464 C465 1.370 . S
C464 C466 1.363 . S
C464 H480 0.931 . S
C465 C464 1.370 . S
C465 C469 1.408 . S
C466 C464 1.363 . S
C466 C467 1.370 . S
C466 C470 1.524 . S
C467 C459 1.503 . S
C467 C466 1.370 . S
C467 C468 1.403 . S
C468 C467 1.403 . S
C468 C469 1.404 . S
C468 C471 1.539 . S
C469 C465 1.408 . S
C469 C468 1.404 . S
C469 H481 0.930 . S
C470 C466 1.524 . S
C470 H482 0.956 . S
C470 H483 0.961 . S
C470 H484 0.961 . S
C471 C468 1.539 . S
C471 H485 0.958 . S
C471 H486 0.961 . S
C471 H487 0.960 . S
H472 C456 0.931 1_655 S
H473 C461 0.929 . S
H474 C462 0.960 . S
H475 C462 0.962 1_655 S
H476 C462 0.960 1_655 S
H477 C463 0.961 . S
H478 C463 0.961 . S
H479 C463 0.961 . S
H480 C464 0.931 . S
H481 C469 0.930 . S
H482 C470 0.956 . S
H483 C470 0.961 . S
H484 C470 0.961 . S
H485 C471 0.958 . S
H486 C471 0.961 . S
H487 C471 0.960 . S
C488 C489 1.391 . S
C488 C490 1.394 . S
C488 H504 0.931 1_545 S
C489 C488 1.391 . S
C489 C493 1.376 . S
C490 C488 1.394 . S
C490 C491 1.369 . S
C490 C494 1.531 1_545 S
C491 C490 1.369 . S
C491 C492 1.410 . S
C491 C499 1.503 . S
C492 C491 1.410 . S
C492 C493 1.392 . S
C492 C495 1.511 . S
C493 C489 1.376 . S
C493 C492 1.392 . S
C493 H505 0.929 . S
C494 C490 1.531 1_565 S
C494 H506 0.960 1_565 S
C494 H507 0.962 . S
C494 H508 0.960 . S
C495 C492 1.511 . S
C495 H509 0.961 . S
C495 H510 0.961 . S
C495 H511 0.961 . S
C496 C497 1.370 . S
C496 C498 1.363 . S
C496 H512 0.931 . S
C497 C496 1.370 . S
C497 C501 1.408 . S
C498 C496 1.363 . S
C498 C499 1.370 . S
C498 C502 1.524 . S
C499 C491 1.503 . S
C499 C498 1.370 . S
C499 C500 1.403 . S
C500 C499 1.403 . S
C500 C501 1.404 . S
C500 C503 1.539 . S
C501 C497 1.408 . S
C501 C500 1.404 . S
C501 H513 0.930 . S
C502 C498 1.524 . S
C502 H514 0.956 . S
C502 H515 0.961 . S
C502 H516 0.961 . S
C503 C500 1.539 . S
C503 H517 0.958 . S
C503 H518 0.961 . S
C503 H519 0.960 . S
H504 C488 0.931 1_565 S
H505 C493 0.929 . S
H506 C494 0.960 1_545 S
H507 C494 0.962 . S
H508 C494 0.960 . S
H509 C495 0.961 . S
H510 C495 0.961 . S
H511 C495 0.961 . S
H512 C496 0.931 . S
H513 C501 0.930 . S
H514 C502 0.956 . S
H515 C502 0.961 . S
H516 C502 0.961 . S
H517 C503 0.958 . S
H518 C503 0.961 . S
H519 C503 0.960 . S
C520 C521 1.391 . S
C520 C522 1.394 . S
C520 H536 0.931 . S
C521 C520 1.391 . S
C521 C525 1.376 . S
C522 C520 1.394 . S
C522 C523 1.369 . S
C522 C526 1.531 . S
C523 C522 1.369 . S
C523 C524 1.410 . S
C523 C531 1.503 . S
C524 C523 1.410 . S
C524 C525 1.392 . S
C524 C527 1.511 1_655 S
C525 C521 1.376 . S
C525 C524 1.392 . S
C525 H537 0.929 1_655 S
C526 C522 1.531 . S
C526 H538 0.960 . S
C526 H539 0.962 . S
C526 H540 0.960 . S
C527 C524 1.511 1_455 S
C527 H541 0.961 . S
C527 H542 0.961 1_455 S
C527 H543 0.961 . S
C528 C529 1.370 . S
C528 C530 1.363 . S
C528 H544 0.931 . S
C529 C528 1.370 . S
C529 C533 1.408 . S
C530 C528 1.363 . S
C530 C531 1.370 . S
C530 C534 1.524 . S
C531 C523 1.503 . S
C531 C530 1.370 . S
C531 C532 1.403 . S
C532 C531 1.403 . S
C532 C533 1.404 . S
C532 C535 1.539 . S
C533 C529 1.408 . S
C533 C532 1.404 . S
C533 H545 0.930 . S
C534 C530 1.524 . S
C534 H546 0.956 . S
C534 H547 0.961 . S
C534 H548 0.961 . S
C535 C532 1.539 . S
C535 H549 0.958 . S
C535 H550 0.961 . S
C535 H551 0.960 . S
H536 C520 0.931 . S
H537 C525 0.929 1_455 S
H538 C526 0.960 . S
H539 C526 0.962 . S
H540 C526 0.960 . S
H541 C527 0.961 . S
H542 C527 0.961 1_655 S
H543 C527 0.961 . S
H544 C528 0.931 . S
H545 C533 0.930 . S
H546 C534 0.956 . S
H547 C534 0.961 . S
H548 C534 0.961 . S
H549 C535 0.958 . S
H550 C535 0.961 . S
H551 C535 0.960 . S
C552 C553 1.391 . S
C552 C554 1.394 . S
C552 H568 0.931 . S
C553 C552 1.391 . S
C553 C557 1.376 . S
C554 C552 1.394 . S
C554 C555 1.369 . S
C554 C558 1.531 . S
C555 C554 1.369 . S
C555 C556 1.410 . S
C555 C563 1.503 . S
C556 C555 1.410 . S
C556 C557 1.392 . S
C556 C559 1.511 . S
C557 C553 1.376 . S
C557 C556 1.392 . S
C557 H569 0.929 . S
C558 C554 1.531 . S
C558 H570 0.960 . S
C558 H571 0.962 . S
C558 H572 0.960 1_565 S
C559 C556 1.511 . S
C559 H573 0.961 . S
C559 H574 0.961 . S
C559 H575 0.961 . S
C560 C561 1.370 . S
C560 C562 1.363 . S
C560 H576 0.931 . S
C561 C560 1.370 . S
C561 C565 1.408 . S
C562 C560 1.363 . S
C562 C563 1.370 . S
C562 C566 1.524 . S
C563 C555 1.503 . S
C563 C562 1.370 . S
C563 C564 1.403 . S
C564 C563 1.403 . S
C564 C565 1.404 . S
C564 C567 1.539 . S
C565 C561 1.408 . S
C565 C564 1.404 . S
C565 H577 0.930 . S
C566 C562 1.524 . S
C566 H578 0.956 . S
C566 H579 0.961 . S
C566 H580 0.961 . S
C567 C564 1.539 . S
C567 H581 0.958 1_565 S
C567 H582 0.961 . S
C567 H583 0.960 . S
H568 C552 0.931 . S
H569 C557 0.929 . S
H570 C558 0.960 . S
H571 C558 0.962 . S
H572 C558 0.960 1_545 S
H573 C559 0.961 . S
H574 C559 0.961 . S
H575 C559 0.961 . S
H576 C560 0.931 . S
H577 C565 0.930 . S
H578 C566 0.956 . S
H579 C566 0.961 . S
H580 C566 0.961 . S
H581 C567 0.958 1_545 S
H582 C567 0.961 . S
H583 C567 0.960 . S
C584 C585 1.391 . S
C584 C586 1.394 . S
C584 H600 0.931 . S
C585 C584 1.391 . S
C585 C589 1.376 . S
C586 C584 1.394 . S
C586 C587 1.369 . S
C586 C590 1.531 . S
C587 C586 1.369 . S
C587 C588 1.410 . S
C587 C595 1.503 . S
C588 C587 1.410 . S
C588 C589 1.392 . S
C588 C591 1.511 . S
C589 C585 1.376 . S
C589 C588 1.392 . S
C589 H601 0.929 . S
C590 C586 1.531 . S
C590 H602 0.960 . S
C590 H603 0.962 1_565 S
C590 H604 0.960 . S
C591 C588 1.511 . S
C591 H605 0.961 . S
C591 H606 0.961 . S
C591 H607 0.961 . S
C592 C593 1.370 . S
C592 C594 1.363 . S
C592 H608 0.931 . S
C593 C592 1.370 . S
C593 C597 1.408 . S
C594 C592 1.363 . S
C594 C595 1.370 . S
C594 C598 1.524 . S
C595 C587 1.503 . S
C595 C594 1.370 . S
C595 C596 1.403 . S
C596 C595 1.403 . S
C596 C597 1.404 . S
C596 C599 1.539 . S
C597 C593 1.408 . S
C597 C596 1.404 . S
C597 H609 0.930 . S
C598 C594 1.524 . S
C598 H610 0.956 . S
C598 H611 0.961 . S
C598 H612 0.961 . S
C599 C596 1.539 . S
C599 H613 0.958 . S
C599 H614 0.961 . S
C599 H615 0.960 . S
H600 C584 0.931 . S
H601 C589 0.929 . S
H602 C590 0.960 . S
H603 C590 0.962 1_545 S
H604 C590 0.960 . S
H605 C591 0.961 . S
H606 C591 0.961 . S
H607 C591 0.961 . S
H608 C592 0.931 . S
H609 C597 0.930 . S
H610 C598 0.956 . S
H611 C598 0.961 . S
H612 C598 0.961 . S
H613 C599 0.958 . S
H614 C599 0.961 . S
H615 C599 0.960 . S
C616 C617 1.391 . S
C616 C618 1.394 . S
C616 H632 0.931 . S
C617 C616 1.391 . S
C617 C621 1.376 . S
C618 C616 1.394 . S
C618 C619 1.369 . S
C618 C622 1.531 . S
C619 C618 1.369 . S
C619 C620 1.410 . S
C619 C627 1.503 . S
C620 C619 1.410 . S
C620 C621 1.392 . S
C620 C623 1.511 . S
C621 C617 1.376 . S
C621 C620 1.392 . S
C621 H633 0.929 . S
C622 C618 1.531 . S
C622 H634 0.960 . S
C622 H635 0.962 . S
C622 H636 0.960 . S
C623 C620 1.511 . S
C623 H637 0.961 . S
C623 H638 0.961 . S
C623 H639 0.961 . S
C624 C625 1.370 . S
C624 C626 1.363 . S
C624 H640 0.931 . S
C625 C624 1.370 . S
C625 C629 1.408 . S
C626 C624 1.363 . S
C626 C627 1.370 . S
C626 C630 1.524 . S
C627 C619 1.503 . S
C627 C626 1.370 . S
C627 C628 1.403 . S
C628 C627 1.403 . S
C628 C629 1.404 . S
C628 C631 1.539 . S
C629 C625 1.408 . S
C629 C628 1.404 . S
C629 H641 0.930 . S
C630 C626 1.524 . S
C630 H642 0.956 . S
C630 H643 0.961 . S
C630 H644 0.961 1_455 S
C631 C628 1.539 . S
C631 H645 0.958 . S
C631 H646 0.961 . S
C631 H647 0.960 . S
H632 C616 0.931 . S
H633 C621 0.929 . S
H634 C622 0.960 . S
H635 C622 0.962 . S
H636 C622 0.960 . S
H637 C623 0.961 . S
H638 C623 0.961 . S
H639 C623 0.961 . S
H640 C624 0.931 . S
H641 C629 0.930 . S
H642 C630 0.956 . S
H643 C630 0.961 . S
H644 C630 0.961 1_655 S
H645 C631 0.958 . S
H646 C631 0.961 . S
H647 C631 0.960 . S
C648 C649 1.391 . S
C648 C650 1.394 . S
C648 H664 0.931 . S
C649 C648 1.391 . S
C649 C653 1.376 . S
C650 C648 1.394 . S
C650 C651 1.369 . S
C650 C654 1.531 . S
C651 C650 1.369 . S
C651 C652 1.410 . S
C651 C659 1.503 . S
C652 C651 1.410 . S
C652 C653 1.392 . S
C652 C655 1.511 . S
C653 C649 1.376 . S
C653 C652 1.392 . S
C653 H665 0.929 . S
C654 C650 1.531 . S
C654 H666 0.960 . S
C654 H667 0.962 . S
C654 H668 0.960 . S
C655 C652 1.511 . S
C655 H669 0.961 . S
C655 H670 0.961 . S
C655 H671 0.961 . S
C656 C657 1.370 . S
C656 C658 1.363 . S
C656 H672 0.931 . S
C657 C656 1.370 . S
C657 C661 1.408 . S
C658 C656 1.363 . S
C658 C659 1.370 . S
C658 C662 1.524 . S
C659 C651 1.503 . S
C659 C658 1.370 . S
C659 C660 1.403 . S
C660 C659 1.403 . S
C660 C661 1.404 . S
C660 C663 1.539 . S
C661 C657 1.408 . S
C661 C660 1.404 . S
C661 H673 0.930 . S
C662 C658 1.524 . S
C662 H674 0.956 . S
C662 H675 0.961 . S
C662 H676 0.964 . S
C663 C660 1.539 . S
C663 H677 0.958 . S
C663 H678 0.961 . S
C663 H679 0.960 . S
H664 C648 0.931 . S
H665 C653 0.929 . S
H666 C654 0.960 . S
H667 C654 0.962 . S
H668 C654 0.960 . S
H669 C655 0.961 . S
H670 C655 0.961 . S
H671 C655 0.961 . S
H672 C656 0.931 . S
H673 C661 0.930 . S
H674 C662 0.956 . S
H675 C662 0.961 . S
H676 C662 0.964 . S
H677 C663 0.958 . S
H678 C663 0.961 . S
H679 C663 0.960 . S
C680 C681 1.391 . S
C680 C682 1.394 . S
C680 H696 0.931 1_655 S
C681 C680 1.391 . S
C681 C685 1.376 . S
C682 C680 1.394 . S
C682 C683 1.369 . S
C682 C686 1.531 . S
C683 C682 1.369 . S
C683 C684 1.410 . S
C683 C691 1.503 . S
C684 C683 1.410 . S
C684 C685 1.392 . S
C684 C687 1.511 . S
C685 C681 1.376 . S
C685 C684 1.392 . S
C685 H697 0.929 . S
C686 C682 1.531 . S
C686 H698 0.960 . S
C686 H699 0.962 1_655 S
C686 H700 0.960 1_655 S
C687 C684 1.511 . S
C687 H701 0.961 . S
C687 H702 0.961 . S
C687 H703 0.961 . S
C688 C689 1.370 . S
C688 C690 1.363 . S
C688 H704 0.931 . S
C689 C688 1.370 . S
C689 C693 1.408 . S
C690 C688 1.363 . S
C690 C691 1.370 . S
C690 C694 1.524 . S
C691 C683 1.503 . S
C691 C690 1.370 . S
C691 C692 1.403 . S
C692 C691 1.403 . S
C692 C693 1.404 . S
C692 C695 1.539 . S
C693 C689 1.408 . S
C693 C692 1.404 . S
C693 H705 0.930 . S
C694 C690 1.524 . S
C694 H706 0.956 . S
C694 H707 0.961 . S
C694 H708 0.961 . S
C695 C692 1.539 . S
C695 H709 0.958 . S
C695 H710 0.961 . S
C695 H711 0.960 . S
H696 C680 0.931 1_455 S
H697 C685 0.929 . S
H698 C686 0.960 . S
H699 C686 0.962 1_455 S
H700 C686 0.960 1_455 S
H701 C687 0.961 . S
H702 C687 0.961 . S
H703 C687 0.961 . S
H704 C688 0.931 . S
H705 C693 0.930 . S
H706 C694 0.956 . S
H707 C694 0.961 . S
H708 C694 0.961 . S
H709 C695 0.958 . S
H710 C695 0.961 . S
H711 C695 0.960 . S
C712 C713 1.391 . S
C712 C714 1.394 . S
C712 H728 0.931 . S
C713 C712 1.391 . S
C713 C717 1.376 . S
C714 C712 1.394 . S
C714 C715 1.369 . S
C714 C718 1.531 . S
C715 C714 1.369 . S
C715 C716 1.410 . S
C715 C723 1.503 . S
C716 C715 1.410 . S
C716 C717 1.392 . S
C716 C719 1.511 . S
C717 C713 1.376 . S
C717 C716 1.392 . S
C717 H729 0.929 . S
C718 C714 1.531 . S
C718 H730 0.960 . S
C718 H731 0.962 . S
C718 H732 0.960 . S
C719 C716 1.511 . S
C719 H733 0.961 . S
C719 H734 0.961 . S
C719 H735 0.961 . S
C720 C721 1.370 . S
C720 C722 1.363 . S
C720 H736 0.931 . S
C721 C720 1.370 . S
C721 C725 1.408 . S
C722 C720 1.363 . S
C722 C723 1.370 . S
C722 C726 1.524 . S
C723 C715 1.503 . S
C723 C722 1.370 . S
C723 C724 1.403 . S
C724 C723 1.403 . S
C724 C725 1.404 . S
C724 C727 1.539 . S
C725 C721 1.408 . S
C725 C724 1.404 . S
C725 H737 0.930 . S
C726 C722 1.524 . S
C726 H738 0.956 . S
C726 H739 0.961 . S
C726 H740 0.961 . S
C727 C724 1.539 . S
C727 H741 0.958 . S
C727 H742 0.961 . S
C727 H743 0.960 . S
H728 C712 0.931 . S
H729 C717 0.929 . S
H730 C718 0.960 . S
H731 C718 0.962 . S
H732 C718 0.960 . S
H733 C719 0.961 . S
H734 C719 0.961 . S
H735 C719 0.961 . S
H736 C720 0.931 . S
H737 C725 0.930 . S
H738 C726 0.956 . S
H739 C726 0.961 . S
H740 C726 0.961 . S
H741 C727 0.958 . S
H742 C727 0.961 . S
H743 C727 0.960 . S
C744 C745 1.391 . S
C744 C746 1.394 . S
C744 H760 0.931 . S
C745 C744 1.391 . S
C745 C749 1.376 . S
C746 C744 1.394 . S
C746 C747 1.369 . S
C746 C750 1.531 . S
C747 C746 1.369 . S
C747 C748 1.410 . S
C747 C755 1.503 . S
C748 C747 1.410 . S
C748 C749 1.392 . S
C748 C751 1.511 . S
C749 C745 1.376 . S
C749 C748 1.392 . S
C749 H761 0.929 . S
C750 C746 1.531 . S
C750 H762 0.960 . S
C750 H763 0.962 . S
C750 H764 0.960 . S
C751 C748 1.511 . S
C751 H765 0.961 . S
C751 H766 0.961 . S
C751 H767 0.961 . S
C752 C753 1.370 . S
C752 C754 1.363 . S
C752 H768 0.931 . S
C753 C752 1.370 . S
C753 C757 1.408 . S
C754 C752 1.363 . S
C754 C755 1.370 . S
C754 C758 1.524 . S
C755 C747 1.503 . S
C755 C754 1.370 . S
C755 C756 1.403 . S
C756 C755 1.403 . S
C756 C757 1.404 . S
C756 C759 1.539 . S
C757 C753 1.408 . S
C757 C756 1.404 . S
C757 H769 0.930 . S
C758 C754 1.524 . S
C758 H770 0.956 . S
C758 H771 0.961 . S
C758 H772 0.961 . S
C759 C756 1.539 . S
C759 H773 0.958 . S
C759 H774 0.961 . S
C759 H775 0.960 . S
H760 C744 0.931 . S
H761 C749 0.929 . S
H762 C750 0.960 . S
H763 C750 0.962 . S
H764 C750 0.960 . S
H765 C751 0.961 . S
H766 C751 0.961 . S
H767 C751 0.961 . S
H768 C752 0.931 . S
H769 C757 0.930 . S
H770 C758 0.956 . S
H771 C758 0.961 . S
H772 C758 0.961 . S
H773 C759 0.958 . S
H774 C759 0.961 . S
H775 C759 0.960 . S
C776 C777 1.391 . S
C776 C778 1.394 . S
C776 H792 0.931 . S
C777 C776 1.391 . S
C777 C781 1.376 . S
C778 C776 1.394 . S
C778 C779 1.369 . S
C778 C782 1.531 . S
C779 C778 1.369 . S
C779 C780 1.410 . S
C779 C787 1.503 . S
C780 C779 1.410 . S
C780 C781 1.392 . S
C780 C783 1.511 . S
C781 C777 1.376 . S
C781 C780 1.392 . S
C781 H793 0.929 . S
C782 C778 1.531 . S
C782 H794 0.960 . S
C782 H795 0.962 . S
C782 H796 0.960 . S
C783 C780 1.511 . S
C783 H797 0.961 . S
C783 H798 0.961 . S
C783 H799 0.961 . S
C784 C785 1.370 . S
C784 C786 1.363 . S
C784 H800 0.931 . S
C785 C784 1.370 . S
C785 C789 1.408 . S
C786 C784 1.363 . S
C786 C787 1.370 . S
C786 C790 1.524 . S
C787 C779 1.503 . S
C787 C786 1.370 . S
C787 C788 1.403 . S
C788 C787 1.403 . S
C788 C789 1.404 . S
C788 C791 1.539 . S
C789 C785 1.408 . S
C789 C788 1.404 . S
C789 H801 0.930 . S
C790 C786 1.524 . S
C790 H802 0.956 . S
C790 H803 0.961 . S
C790 H804 0.961 . S
C791 C788 1.539 . S
C791 H805 0.958 . S
C791 H806 0.961 . S
C791 H807 0.960 . S
H792 C776 0.931 . S
H793 C781 0.929 . S
H794 C782 0.960 . S
H795 C782 0.962 . S
H796 C782 0.960 . S
H797 C783 0.961 . S
H798 C783 0.961 . S
H799 C783 0.961 . S
H800 C784 0.931 . S
H801 C789 0.930 . S
H802 C790 0.956 . S
H803 C790 0.961 . S
H804 C790 0.961 . S
H805 C791 0.958 . S
H806 C791 0.961 . S
H807 C791 0.960 . S
C808 C809 1.391 . S
C808 C810 1.394 . S
C808 H824 0.931 . S
C809 C808 1.391 . S
C809 C813 1.376 . S
C810 C808 1.394 . S
C810 C811 1.369 . S
C810 C814 1.531 . S
C811 C810 1.369 . S
C811 C812 1.410 . S
C811 C819 1.503 . S
C812 C811 1.410 . S
C812 C813 1.392 . S
C812 C815 1.511 . S
C813 C809 1.376 . S
C813 C812 1.392 . S
C813 H825 0.929 . S
C814 C810 1.531 . S
C814 H826 0.960 . S
C814 H827 0.962 . S
C814 H828 0.960 . S
C815 C812 1.511 . S
C815 H829 0.961 . S
C815 H830 0.961 . S
C815 H831 0.961 . S
C816 C817 1.370 . S
C816 C818 1.363 . S
C816 H832 0.931 . S
C817 C816 1.370 . S
C817 C821 1.408 . S
C818 C816 1.363 . S
C818 C819 1.370 . S
C818 C822 1.524 . S
C819 C811 1.503 . S
C819 C818 1.370 . S
C819 C820 1.403 . S
C820 C819 1.403 . S
C820 C821 1.404 . S
C820 C823 1.539 . S
C821 C817 1.408 . S
C821 C820 1.404 . S
C821 H833 0.930 . S
C822 C818 1.524 . S
C822 H834 0.956 . S
C822 H835 0.961 . S
C822 H836 0.961 . S
C823 C820 1.539 . S
C823 H837 0.958 . S
C823 H838 0.961 . S
C823 H839 0.960 . S
H824 C808 0.931 . S
H825 C813 0.929 . S
H826 C814 0.960 . S
H827 C814 0.962 . S
H828 C814 0.960 . S
H829 C815 0.961 . S
H830 C815 0.961 . S
H831 C815 0.961 . S
H832 C816 0.931 . S
H833 C821 0.930 . S
H834 C822 0.956 . S
H835 C822 0.961 . S
H836 C822 0.961 . S
H837 C823 0.958 . S
H838 C823 0.961 . S
H839 C823 0.960 . S
C840 C841 1.391 . S
C840 C842 1.394 . S
C840 H856 0.931 . S
C841 C840 1.391 . S
C841 C845 1.376 . S
C842 C840 1.394 . S
C842 C843 1.369 . S
C842 C846 1.531 . S
C843 C842 1.369 . S
C843 C844 1.410 . S
C843 C851 1.503 . S
C844 C843 1.410 . S
C844 C845 1.392 . S
C844 C847 1.511 . S
C845 C841 1.376 . S
C845 C844 1.392 . S
C845 H857 0.929 . S
C846 C842 1.531 . S
C846 H858 0.960 . S
C846 H859 0.962 . S
C846 H860 0.960 . S
C847 C844 1.511 . S
C847 H861 0.961 . S
C847 H862 0.961 . S
C847 H863 0.961 . S
C848 C849 1.370 . S
C848 C850 1.363 . S
C848 H864 0.931 . S
C849 C848 1.370 . S
C849 C853 1.408 . S
C850 C848 1.363 . S
C850 C851 1.370 . S
C850 C854 1.524 . S
C851 C843 1.503 . S
C851 C850 1.370 . S
C851 C852 1.403 . S
C852 C851 1.403 . S
C852 C853 1.404 . S
C852 C855 1.539 . S
C853 C849 1.408 . S
C853 C852 1.404 . S
C853 H865 0.930 . S
C854 C850 1.524 . S
C854 H866 0.956 . S
C854 H867 0.961 . S
C854 H868 0.961 . S
C855 C852 1.539 . S
C855 H869 0.958 . S
C855 H870 0.961 . S
C855 H871 0.960 . S
H856 C840 0.931 . S
H857 C845 0.929 . S
H858 C846 0.960 . S
H859 C846 0.962 . S
H860 C846 0.960 . S
H861 C847 0.961 . S
H862 C847 0.961 . S
H863 C847 0.961 . S
H864 C848 0.931 . S
H865 C853 0.930 . S
H866 C854 0.956 . S
H867 C854 0.961 . S
H868 C854 0.961 . S
H869 C855 0.958 . S
H870 C855 0.961 . S
H871 C855 0.960 . S
C872 C873 1.391 . S
C872 C874 1.394 . S
C872 H888 0.931 . S
C873 C872 1.391 . S
C873 C877 1.376 . S
C874 C872 1.394 . S
C874 C875 1.369 . S
C874 C878 1.531 . S
C875 C874 1.369 . S
C875 C876 1.410 . S
C875 C883 1.503 . S
C876 C875 1.410 . S
C876 C877 1.392 . S
C876 C879 1.511 . S
C877 C873 1.376 . S
C877 C876 1.392 . S
C877 H889 0.929 . S
C878 C874 1.531 . S
C878 H890 0.960 . S
C878 H891 0.962 . S
C878 H892 0.960 . S
C879 C876 1.511 . S
C879 H893 0.961 . S
C879 H894 0.961 . S
C879 H895 0.961 . S
C880 C881 1.370 . S
C880 C882 1.363 . S
C880 H896 0.931 . S
C881 C880 1.370 . S
C881 C885 1.408 . S
C882 C880 1.363 . S
C882 C883 1.370 . S
C882 C886 1.524 . S
C883 C875 1.503 . S
C883 C882 1.370 . S
C883 C884 1.403 . S
C884 C883 1.403 . S
C884 C885 1.404 . S
C884 C887 1.539 . S
C885 C881 1.408 . S
C885 C884 1.404 . S
C885 H897 0.930 . S
C886 C882 1.524 . S
C886 H898 0.956 . S
C886 H899 0.961 . S
C886 H900 0.961 . S
C887 C884 1.539 . S
C887 H901 0.958 . S
C887 H902 0.961 . S
C887 H903 0.960 . S
H888 C872 0.931 . S
H889 C877 0.929 . S
H890 C878 0.960 . S
H891 C878 0.962 . S
H892 C878 0.960 . S
H893 C879 0.961 . S
H894 C879 0.961 . S
H895 C879 0.961 . S
H896 C880 0.931 . S
H897 C885 0.930 . S
H898 C886 0.956 . S
H899 C886 0.961 . S
H900 C886 0.961 . S
H901 C887 0.958 . S
H902 C887 0.961 . S
H903 C887 0.960 . S
C904 C905 1.391 . S
C904 C906 1.394 . S
C904 H920 0.931 . S
C905 C904 1.391 . S
C905 C909 1.376 . S
C906 C904 1.394 . S
C906 C907 1.369 . S
C906 C910 1.531 . S
C907 C906 1.369 . S
C907 C908 1.410 . S
C907 C915 1.503 . S
C908 C907 1.410 . S
C908 C909 1.392 . S
C908 C911 1.511 . S
C909 C905 1.376 . S
C909 C908 1.392 . S
C909 H921 0.929 . S
C910 C906 1.531 . S
C910 H922 0.960 . S
C910 H923 0.962 . S
C910 H924 0.960 . S
C911 C908 1.511 . S
C911 H925 0.961 . S
C911 H926 0.961 . S
C911 H927 0.961 . S
C912 C913 1.370 . S
C912 C914 1.363 . S
C912 H928 0.931 . S
C913 C912 1.370 . S
C913 C917 1.408 . S
C914 C912 1.363 . S
C914 C915 1.370 . S
C914 C918 1.524 . S
C915 C907 1.503 . S
C915 C914 1.370 . S
C915 C916 1.403 . S
C916 C915 1.403 . S
C916 C917 1.404 . S
C916 C919 1.539 . S
C917 C913 1.408 . S
C917 C916 1.404 . S
C917 H929 0.930 . S
C918 C914 1.524 . S
C918 H930 0.956 . S
C918 H931 0.961 . S
C918 H932 0.961 . S
C919 C916 1.539 . S
C919 H933 0.958 . S
C919 H934 0.961 . S
C919 H935 0.960 . S
H920 C904 0.931 . S
H921 C909 0.929 . S
H922 C910 0.960 . S
H923 C910 0.962 . S
H924 C910 0.960 . S
H925 C911 0.961 . S
H926 C911 0.961 . S
H927 C911 0.961 . S
H928 C912 0.931 . S
H929 C917 0.930 . S
H930 C918 0.956 . S
H931 C918 0.961 . S
H932 C918 0.961 . S
H933 C919 0.958 . S
H934 C919 0.961 . S
H935 C919 0.960 . S
C936 C937 1.391 . S
C936 C938 1.394 . S
C936 H952 0.931 . S
C937 C936 1.391 . S
C937 C941 1.376 . S
C938 C936 1.394 . S
C938 C939 1.369 . S
C938 C942 1.531 . S
C939 C938 1.369 . S
C939 C940 1.410 . S
C939 C947 1.503 . S
C940 C939 1.410 . S
C940 C941 1.392 . S
C940 C943 1.511 . S
C941 C937 1.376 . S
C941 C940 1.392 . S
C941 H953 0.929 . S
C942 C938 1.531 . S
C942 H954 0.960 . S
C942 H955 0.962 . S
C942 H956 0.960 . S
C943 C940 1.511 . S
C943 H957 0.961 . S
C943 H958 0.961 . S
C943 H959 0.961 . S
C944 C945 1.370 . S
C944 C946 1.363 . S
C944 H960 0.931 . S
C945 C944 1.370 . S
C945 C949 1.408 . S
C946 C944 1.363 . S
C946 C947 1.370 . S
C946 C950 1.524 . S
C947 C939 1.503 . S
C947 C946 1.370 . S
C947 C948 1.403 . S
C948 C947 1.403 . S
C948 C949 1.404 . S
C948 C951 1.539 . S
C949 C945 1.408 . S
C949 C948 1.404 . S
C949 H961 0.930 . S
C950 C946 1.524 . S
C950 H962 0.956 . S
C950 H963 0.961 . S
C950 H964 0.961 . S
C951 C948 1.539 . S
C951 H965 0.958 . S
C951 H966 0.961 . S
C951 H967 0.960 . S
H952 C936 0.931 . S
H953 C941 0.929 . S
H954 C942 0.960 . S
H955 C942 0.962 . S
H956 C942 0.960 . S
H957 C943 0.961 . S
H958 C943 0.961 . S
H959 C943 0.961 . S
H960 C944 0.931 . S
H961 C949 0.930 . S
H962 C950 0.956 . S
H963 C950 0.961 . S
H964 C950 0.961 . S
H965 C951 0.958 . S
H966 C951 0.961 . S
H967 C951 0.960 . S
C201 C45 1.569 . S
C209 C108 1.568 . S
C233 C30 1.574 . S
C241 C120 1.571 . S
C265 C39 1.555 . S
C273 C132 1.557 . S
C305 C144 1.570 . S
C297 C34 1.549 . S
C329 C97 1.572 . S
C337 C156 1.564 . S
C369 C168 1.553 . S
C361 C82 1.574 . S
C401 C180 1.563 . S
C393 C91 1.560 . S
C433 C192 1.575 . S
C425 C86 1.558 . S
C465 C185 1.527 . S
C457 C26 1.521 . S
C497 C194 1.496 . S
C489 C36 1.490 . S
C529 C158 1.532 . S
C521 C32 1.454 . S
C561 C173 1.551 . S
C553 C42 1.520 . S
C585 C18 1.537 . S
C593 C170 1.621 . S
C625 C182 1.636 . S
C617 C50 1.595 . S
C649 C4 1.624 . S
C657 C197 1.639 . S
C681 C48 1.554 . S
C689 C161 1.633 . S
C721 C137 1.565 . S
C713 C78 1.487 . S
C745 C88 1.449 . S
C753 C146 1.520 . S
C785 C110 1.551 . S
C777 C84 1.472 . S
C817 C122 1.476 . S
C809 C94 1.425 . S
C849 C125 1.677 . S
C841 C70 1.633 . S
C881 C134 1.612 . S
C873 C102 1.571 . S
C905 C56 1.555 . S
C913 C149 1.644 . S
C937 C100 1.536 . S
C945 C113 1.613 . S
