# Generated by pormake.
# Topology anh, (6,3)-cn, num edge types: 1
# Building blocks:
#     Node 0, Type 0, BuildingBlock: INOVEN_clean_sbu_0, # of connection points: 6
#     Node 1, Type 0, BuildingBlock: INOVEN_clean_sbu_0, # of connection points: 6
#     Node 2, Type 0, BuildingBlock: INOVEN_clean_sbu_0, # of connection points: 6
#     Node 3, Type 1, BuildingBlock: KAKCAD_clean_linker_0, # of connection points: 3
#     Node 4, Type 1, BuildingBlock: KAKCAD_clean_linker_0, # of connection points: 3
#     Node 5, Type 1, BuildingBlock: KAKCAD_clean_linker_0, # of connection points: 3
#     Node 6, Type 1, BuildingBlock: KAKCAD_clean_linker_0, # of connection points: 3
#     Node 7, Type 1, BuildingBlock: KAKCAD_clean_linker_0, # of connection points: 3
#     Node 8, Type 1, BuildingBlock: KAKCAD_clean_linker_0, # of connection points: 3
#     Edge 9, Type (0, 1), BuildingBlock: MIFKUJ_clean_linker_0, # of connection points: 2
#     Edge 10, Type (0, 1), BuildingBlock: MIFKUJ_clean_linker_0, # of connection points: 2
#     Edge 11, Type (0, 1), BuildingBlock: MIFKUJ_clean_linker_0, # of connection points: 2
#     Edge 12, Type (0, 1), BuildingBlock: MIFKUJ_clean_linker_0, # of connection points: 2
#     Edge 13, Type (0, 1), BuildingBlock: MIFKUJ_clean_linker_0, # of connection points: 2
#     Edge 14, Type (0, 1), BuildingBlock: MIFKUJ_clean_linker_0, # of connection points: 2
#     Edge 15, Type (0, 1), BuildingBlock: MIFKUJ_clean_linker_0, # of connection points: 2
#     Edge 16, Type (0, 1), BuildingBlock: MIFKUJ_clean_linker_0, # of connection points: 2
#     Edge 17, Type (0, 1), BuildingBlock: MIFKUJ_clean_linker_0, # of connection points: 2
#     Edge 18, Type (0, 1), BuildingBlock: MIFKUJ_clean_linker_0, # of connection points: 2
#     Edge 19, Type (0, 1), BuildingBlock: MIFKUJ_clean_linker_0, # of connection points: 2
#     Edge 20, Type (0, 1), BuildingBlock: MIFKUJ_clean_linker_0, # of connection points: 2
#     Edge 21, Type (0, 1), BuildingBlock: MIFKUJ_clean_linker_0, # of connection points: 2
#     Edge 22, Type (0, 1), BuildingBlock: MIFKUJ_clean_linker_0, # of connection points: 2
#     Edge 23, Type (0, 1), BuildingBlock: MIFKUJ_clean_linker_0, # of connection points: 2
#     Edge 24, Type (0, 1), BuildingBlock: MIFKUJ_clean_linker_0, # of connection points: 2
#     Edge 25, Type (0, 1), BuildingBlock: MIFKUJ_clean_linker_0, # of connection points: 2
#     Edge 26, Type (0, 1), BuildingBlock: MIFKUJ_clean_linker_0, # of connection points: 2
# Relax obj value: 0.161
# Max RMSD: 0.202
# Mean RMSD: 0.151
data_MOF--net-anh--node1-INOVEN_clean_sbu_0--node2-KAKCAD_clean_linker_0--edge1-MIFKUJ_clean_linker_0
_symmetry_space_group_name_H-M    P1
_symmetry_Int_Tables_number       1
_symmetry_cell_setting            triclinic
loop_
_symmetry_equiv_pos_as_xyz
'x, y, z'
_cell_length_a     46.198132
_cell_length_b     52.815787
_cell_length_c     82.955375
_cell_angle_alpha  94.059429
_cell_angle_beta   88.591103
_cell_angle_gamma 127.11387
loop_
_atom_site_label
_atom_site_type_symbol
_atom_site_fract_x
_atom_site_fract_y
_atom_site_fract_z
_atom_type_partial_charge
Gd0 Gd 0.0871 0.49668 0.16293 0.0
Gd1 Gd 0.05223 0.52763 0.1654 0.0
C2 C 0.13731 0.57473 0.1659 0.0
C3 C 0.1307 0.48287 0.1587 0.0
C4 C 0.17004 0.50657 0.1597 0.0
C5 C 0.18903 0.50821 0.17313 0.0
C6 C 0.18821 0.53043 0.14868 0.0
C7 C 0.24501 0.55268 0.16248 0.0
C8 C 0.22555 0.55353 0.15013 0.0
C9 C 0.22622 0.5315 0.17467 0.0
C10 C 0.06462 0.49885 0.19291 0.0
C11 C 1.00226 0.45067 0.16015 0.0
C12 C 1.01678 0.54567 0.17852 0.0
C13 C 0.97747 0.52354 0.18 0.0
C14 C 0.95519 0.51648 0.16663 0.0
C15 C 0.96281 0.50398 0.19308 0.0
C16 C 0.90455 0.47058 0.17924 0.0
C17 C 0.92665 0.47749 0.19262 0.0
C18 C 0.91917 0.49006 0.16618 0.0
C19 C 0.0597 0.52059 0.13302 0.0
O20 O 0.13649 0.54919 0.16384 0.0
O21 O 0.10749 0.57232 0.1671 0.0
O22 O 0.11476 0.47947 0.17244 0.0
O23 O 0.11407 0.48389 0.14648 0.0
O24 O 0.05851 0.47351 0.18562 0.0
O25 O 0.08116 0.52156 0.18366 0.0
O26 O 1.00419 0.47554 0.16612 0.0
O27 O 1.03158 0.45399 0.15517 0.0
O28 O 1.02849 0.55228 0.16376 0.0
O29 O 1.03474 0.5393 0.18707 0.0
O30 O 0.0453 0.53348 0.1395 0.0
O31 O 0.06979 0.51179 0.14401 0.0
H32 H 0.17527 0.4909 0.18217 0.0
H33 H 0.17391 0.53075 0.13863 0.0
H34 H 0.23965 0.56975 0.14064 0.0
H35 H 0.24065 0.53028 0.18432 0.0
H36 H 0.96573 0.53091 0.15631 0.0
H37 H 0.9795 0.50863 0.20348 0.0
H38 H 0.91544 0.46325 0.20299 0.0
H39 H 0.90224 0.48598 0.156 0.0
Gd40 Gd 0.57397 0.00251 0.48592 0.0
Gd41 Gd 0.52933 0.02472 0.48495 0.0
C42 C 0.4852 0.95103 0.48282 0.0
C43 C 0.59919 0.97153 0.49131 0.0
C44 C 0.58386 0.93763 0.4919 0.0
C45 C 0.58902 0.92213 0.47898 0.0
C46 C 0.5652 0.92077 0.50551 0.0
C47 C 0.55967 0.87448 0.49375 0.0
C48 C 0.55324 0.88953 0.50641 0.0
C49 C 0.57689 0.89081 0.47985 0.0
C50 C 0.5659 0.01538 0.45629 0.0
C51 C 0.61804 0.07659 0.48729 0.0
C52 C 0.50526 0.05654 0.4795 0.0
C53 C 0.51981 0.09026 0.48254 0.0
C54 C 0.52428 0.10372 0.49838 0.0
C55 C 0.52909 0.10927 0.4695 0.0
C56 C 0.54422 0.15372 0.48799 0.0
C57 C 0.54133 0.14077 0.4722 0.0
C58 C 0.53634 0.1351 0.50106 0.0
C59 C 0.53829 0.01261 0.51476 0.0
O60 O 0.5161 0.95723 0.48768 0.0
O61 O 0.48403 0.97388 0.47844 0.0
O62 O 0.59957 0.98099 0.47712 0.0
O63 O 0.59046 0.98385 0.50287 0.0
O64 O 0.59638 0.02329 0.46202 0.0
O65 O 0.54083 1.0005 0.46627 0.0
O66 O 0.58657 0.06998 0.48323 0.0
O67 O 0.62016 0.05402 0.49128 0.0
O68 O 0.49645 0.03996 0.49213 0.0
O69 O 0.52169 0.0506 0.46857 0.0
O70 O 0.5079 0.00516 0.50924 0.0
O71 O 0.5629 0.02713 0.50457 0.0
H72 H 0.60332 0.9345 0.46834 0.0
H73 H 0.56052 0.93189 0.51565 0.0
H74 H 0.53973 0.87736 0.5172 0.0
H75 H 0.58259 0.87994 0.46999 0.0
H76 H 0.51789 0.08992 0.50873 0.0
H77 H 0.52614 0.09954 0.45718 0.0
H78 H 0.54699 0.15449 0.46189 0.0
H79 H 0.53882 0.14462 0.51337 0.0
Gd80 Gd 0.62231 0.57152 0.8314 0.0
Gd81 Gd 0.5733 0.50056 0.8324 0.0
C82 C 0.5324 0.53312 0.83548 0.0
C83 C 0.64973 0.62862 0.82434 0.0
C84 C 0.63707 0.64865 0.82569 0.0
C85 C 0.64178 0.66637 0.84021 0.0
C86 C 0.62019 0.65029 0.81238 0.0
C87 C 0.61324 0.68709 0.828 0.0
C88 C 0.60835 0.6692 0.81353 0.0
C89 C 0.62996 0.68535 0.84136 0.0
C90 C 0.6114 0.55064 0.86063 0.0
C91 C 0.66335 0.53948 0.8329 0.0
C92 C 0.54362 0.44221 0.83816 0.0
C93 C 0.55256 0.41955 0.83589 0.0
C94 C 0.53619 0.39603 0.82302 0.0
C95 C 0.57615 0.42023 0.84667 0.0
C96 C 0.56549 0.37357 0.83203 0.0
C97 C 0.5827 0.39751 0.84469 0.0
C98 C 0.54263 0.37337 0.82109 0.0
C99 C 0.583 0.52167 0.8029 0.0
O100 O 0.56492 0.55987 0.83242 0.0
O101 O 0.52904 0.50676 0.83759 0.0
O102 O 0.65704 0.62212 0.83791 0.0
O103 O 0.63284 0.60417 0.81363 0.0
O104 O 0.64262 0.57551 0.85643 0.0
O105 O 0.58755 0.53943 0.84973 0.0
O106 O 0.63032 0.51265 0.83488 0.0
O107 O 0.66751 0.56579 0.82967 0.0
O108 O 0.53708 0.45039 0.825 0.0
O109 O 0.56233 0.46602 0.84911 0.0
O110 O 0.5522 0.49753 0.80783 0.0
O111 O 0.60786 0.53279 0.81342 0.0
H112 H 0.65473 0.66572 0.85072 0.0
H113 H 0.61637 0.63715 0.80099 0.0
H114 H 0.59621 0.67045 0.80291 0.0
H115 H 0.63391 0.69867 0.8527 0.0
H116 H 0.5179 0.39482 0.81452 0.0
H117 H 0.58912 0.43795 0.85676 0.0
H118 H 0.60028 0.39806 0.85335 0.0
H119 H 0.5294 0.35542 0.8111 0.0
C120 C 0.567 0.04952 0.27656 0.0
C121 C 0.56179 0.02437 0.28442 0.0
C122 C 0.56775 0.04929 0.25969 0.0
C123 C 0.56332 0.02389 0.25029 0.0
C124 C 0.55853 0.99892 0.25816 0.0
C125 C 0.55778 0.99916 0.27501 0.0
C126 C 0.56314 0.02317 0.23234 0.0
C127 C 0.58807 0.0508 0.22435 0.0
C128 C 0.58791 0.0505 0.20736 0.0
C129 C 0.56224 0.02164 0.1983 0.0
C130 C 0.53745 0.99363 0.20619 0.0
C131 C 0.53801 0.99475 0.22314 0.0
C132 C 0.5107 0.96263 0.19716 0.0
C133 C 0.48476 0.95863 0.18656 0.0
C134 C 0.50843 0.93586 0.20068 0.0
C135 C 0.48009 0.90554 0.19425 0.0
C136 C 0.45309 0.90118 0.18425 0.0
C137 C 0.61553 0.08042 0.19945 0.0
C138 C 0.62532 0.10979 0.20634 0.0
C139 C 0.63445 0.08039 0.18591 0.0
C140 C 0.66357 0.10915 0.17993 0.0
C141 C 0.67445 0.1386 0.18735 0.0
C142 C 0.65444 0.13839 0.20048 0.0
C143 C 0.45597 0.92808 0.18026 0.0
H144 H 0.56973 0.0691 0.28343 0.0
H145 H 0.57104 0.06868 0.25399 0.0
H146 H 0.55567 0.97928 0.25129 0.0
H147 H 0.5544 0.9797 0.28069 0.0
H148 H 0.60842 0.07249 0.23144 0.0
H149 H 0.51825 0.97335 0.2292 0.0
H150 H 0.56169 0.02087 0.18521 0.0
H151 H 0.48578 0.97889 0.18378 0.0
H152 H 0.52804 0.93832 0.20886 0.0
H153 H 0.47843 0.88531 0.19772 0.0
H154 H 0.61098 0.11075 0.2166 0.0
H155 H 0.62772 0.05822 0.18032 0.0
H156 H 0.43562 0.9254 0.17252 0.0
H157 H 0.66204 0.1604 0.2067 0.0
H158 H 0.67787 0.10827 0.16963 0.0
C159 C 0.55792 0.54482 0.62386 0.0
C160 C 0.5755 0.5345 0.63162 0.0
C161 C 0.55512 0.54261 0.60703 0.0
C162 C 0.57069 0.53084 0.59742 0.0
C163 C 0.5888 0.52104 0.60517 0.0
C164 C 0.59072 0.52241 0.622 0.0
C165 C 0.56767 0.52849 0.57943 0.0
C166 C 0.56711 0.55075 0.57139 0.0
C167 C 0.56249 0.54786 0.5545 0.0
C168 C 0.56013 0.52311 0.5455 0.0
C169 C 0.56231 0.50157 0.55325 0.0
C170 C 0.56518 0.50391 0.57016 0.0
C171 C 0.56247 0.47693 0.54376 0.0
C172 C 0.536 0.45708 0.53161 0.0
C173 C 0.58913 0.47294 0.54704 0.0
C174 C 0.58906 0.44923 0.53849 0.0
C175 C 0.5621 0.42894 0.52668 0.0
C176 C 0.56027 0.57086 0.54638 0.0
C177 C 0.54255 0.58264 0.55388 0.0
C178 C 0.57618 0.58162 0.53128 0.0
C179 C 0.57486 0.60399 0.52401 0.0
C180 C 0.55818 0.61635 0.53186 0.0
C181 C 0.54185 0.60538 0.54677 0.0
C182 C 0.5356 0.43296 0.52323 0.0
H183 H 0.5464 0.55483 0.63074 0.0
H184 H 0.54035 0.54989 0.6016 0.0
H185 H 0.60177 0.51238 0.59828 0.0
H186 H 0.60389 0.51363 0.62742 0.0
H187 H 0.57093 0.57079 0.57828 0.0
H188 H 0.5649 0.48609 0.57604 0.0
H189 H 0.5569 0.52066 0.53246 0.0
H190 H 0.51513 0.45969 0.52891 0.0
H191 H 0.60999 0.48815 0.55627 0.0
H192 H 0.6095 0.44618 0.54138 0.0
H193 H 0.52917 0.57432 0.56529 0.0
H194 H 0.59044 0.57339 0.52523 0.0
H195 H 0.5145 0.41727 0.51417 0.0
H196 H 0.52848 0.61441 0.55291 0.0
H197 H 0.58777 0.61236 0.51252 0.0
C198 C 0.12424 0.54662 0.95017 0.0
C199 C 0.09102 0.5276 0.95804 0.0
C200 C 0.12521 0.54839 0.93328 0.0
C201 C 0.09291 0.53115 0.92377 0.0
C202 C 0.05967 0.51209 0.93179 0.0
C203 C 0.05876 0.51039 0.94867 0.0
C204 C 0.09379 0.53281 0.90562 0.0
C205 C 0.12083 0.53428 0.89655 0.0
C206 C 0.12246 0.53566 0.87958 0.0
C207 C 0.09432 0.53445 0.87145 0.0
C208 C 0.06596 0.5327 0.88037 0.0
C209 C 0.0674 0.53273 0.89743 0.0
C210 C 1.03423 0.53085 0.87296 0.0
C211 C 1.0375 0.54752 0.85953 0.0
C212 C 1.00005 0.51393 0.88056 0.0
C213 C 0.97188 0.51537 0.8759 0.0
C214 C 0.97547 0.53295 0.86299 0.0
C215 C 0.15472 0.53881 0.87149 0.0
C216 C 0.19014 0.5615 0.87813 0.0
C217 C 0.15079 0.51675 0.8593 0.0
C218 C 0.18067 0.5166 0.85459 0.0
C219 C 0.21584 0.53849 0.86188 0.0
C220 C 0.21976 0.56145 0.87344 0.0
C221 C 1.00862 0.54834 0.85457 0.0
H222 H 0.14952 0.56029 0.95711 0.0
H223 H 0.15135 0.56369 0.92772 0.0
H224 H 1.03419 0.49805 0.925 0.0
H225 H 1.03277 0.49553 0.95442 0.0
H226 H 0.14082 0.53384 0.90281 0.0
H227 H 0.04799 0.53338 0.90464 0.0
H228 H 0.09461 0.53499 0.85843 0.0
H229 H 0.06282 0.56089 0.85316 0.0
H230 H 0.99489 0.49956 0.89048 0.0
H231 H 0.94688 0.50242 0.88253 0.0
H232 H 0.19487 0.57908 0.88749 0.0
H233 H 0.1242 0.49853 0.85395 0.0
H234 H 1.0128 0.56205 0.84448 0.0
H235 H 0.24592 0.57958 0.87916 0.0
H236 H 0.17564 0.49835 0.84566 0.0
C237 C 1.00942 0.49226 0.37526 0.0
C238 C 0.04251 0.50896 0.36721 0.0
C239 C 1.00888 0.49318 0.39218 0.0
C240 C 0.04148 0.51034 0.40143 0.0
C241 C 0.07458 0.52659 0.39319 0.0
C242 C 0.07506 0.52617 0.3763 0.0
C243 C 0.04102 0.51161 0.41954 0.0
C244 C 1.01317 0.48539 0.42772 0.0
C245 C 1.01169 0.48661 0.44476 0.0
C246 C 1.04018 0.51438 0.45371 0.0
C247 C 0.06917 0.54049 0.44573 0.0
C248 C 0.06857 0.53909 0.42873 0.0
C249 C 0.101 0.56936 0.45471 0.0
C250 C 0.0969 0.58482 0.46807 0.0
C251 C 0.13612 0.58293 0.44903 0.0
C252 C 0.16612 0.61193 0.45588 0.0
C253 C 0.16217 0.62825 0.46883 0.0
C254 C 0.98035 0.45842 0.45281 0.0
C255 C 0.94564 0.43977 0.44536 0.0
C256 C 0.98477 0.44879 0.46737 0.0
C257 C 0.95563 0.4206 0.47386 0.0
C258 C 0.92137 0.40109 0.46587 0.0
C259 C 0.91691 0.41146 0.45161 0.0
C260 C 0.12718 0.61404 0.47503 0.0
H261 H 0.98399 0.47895 0.36844 0.0
H262 H 0.98286 0.48082 0.39798 0.0
H263 H 0.10026 0.53947 0.39975 0.0
H264 H 0.10089 0.53902 0.37029 0.0
H265 H 0.99282 0.46357 0.42075 0.0
H266 H 0.08973 0.55984 0.42265 0.0
H267 H 1.04003 0.51567 0.4668 0.0
H268 H 0.07021 0.57497 0.47275 0.0
H269 H 0.14037 0.57144 0.43892 0.0
H270 H 0.19229 0.62208 0.45052 0.0
H271 H 0.94063 0.44668 0.4344 0.0
H272 H 1.01099 0.46241 0.47352 0.0
H273 H 0.1231 0.62568 0.48511 0.0
H274 H 0.89147 0.39727 0.44482 0.0
H275 H 0.9602 0.41399 0.48503 0.0
C276 C 0.54071 0.97563 0.69487 0.0
C277 C 0.55815 0.00407 0.687 0.0
C278 C 0.54072 0.97608 0.71176 0.0
C279 C 0.55865 0.00503 0.72129 0.0
C280 C 0.57657 0.03347 0.7134 0.0
C281 C 0.57599 0.03297 0.69655 0.0
C282 C 0.55842 0.00566 0.73933 0.0
C283 C 0.55948 0.98373 0.74747 0.0
C284 C 0.55901 0.98411 0.76449 0.0
C285 C 0.55855 0.00758 0.77338 0.0
C286 C 0.55889 0.0304 0.7655 0.0
C287 C 0.55781 0.0287 0.74854 0.0
C288 C 0.56232 0.05716 0.77483 0.0
C289 C 0.54115 0.05208 0.78845 0.0
C290 C 0.58724 0.08828 0.77002 0.0
C291 C 0.59063 0.11375 0.77846 0.0
C292 C 0.56915 0.10875 0.79192 0.0
C293 C 0.55992 0.9605 0.77289 0.0
C294 C 0.54228 0.92929 0.76599 0.0
C295 C 0.57878 0.96898 0.78775 0.0
C296 C 0.58004 0.94691 0.79543 0.0
C297 C 0.56303 0.91591 0.78833 0.0
C298 C 0.54415 0.90746 0.77349 0.0
C299 C 0.54438 0.07766 0.79687 0.0
H300 H 0.52715 0.95289 0.688 0.0
H301 H 0.52623 0.95362 0.71732 0.0
H302 H 0.59133 0.05634 0.72022 0.0
H303 H 0.58926 0.05539 0.69107 0.0
H304 H 0.56177 0.96689 0.74052 0.0
H305 H 0.55632 0.04546 0.74255 0.0
H306 H 0.55854 0.00854 0.78646 0.0
H307 H 0.52168 0.02832 0.7924 0.0
H308 H 0.60427 0.093 0.75971 0.0
H309 H 0.60961 0.13734 0.77422 0.0
H310 H 0.52692 0.92157 0.75472 0.0
H311 H 0.59319 0.99286 0.7934 0.0
H312 H 0.52759 0.07314 0.80725 0.0
H313 H 0.53123 0.88407 0.76743 0.0
H314 H 0.59441 0.95426 0.80694 0.0
C315 C 0.55877 0.46289 0.031 0.0
C316 C 0.55453 0.48362 0.02368 0.0
C317 C 0.55692 0.46159 0.04764 0.0
C318 C 0.55056 0.48081 0.05695 0.0
C319 C 0.54664 0.50175 0.04979 0.0
C320 C 0.54878 0.50327 0.03314 0.0
C321 C 0.54783 0.47867 0.07421 0.0
C322 C 0.57931 0.49326 0.08361 0.0
C323 C 0.57679 0.48924 0.10016 0.0
C324 C 0.54264 0.47093 0.10713 0.0
C325 C 0.51118 0.45715 0.09773 0.0
C326 C 0.51377 0.46085 0.08116 0.0
C327 C 0.47713 0.44452 0.10592 0.0
C328 C 0.46724 0.42529 0.11895 0.0
C329 C 0.46013 0.45867 0.10344 0.0
C330 C 0.43656 0.45658 0.1148 0.0
C331 C 0.42966 0.44022 0.12866 0.0
C332 C 0.60896 0.50028 0.10983 0.0
C333 C 0.63316 0.49469 0.10347 0.0
C334 C 0.61188 0.51054 0.12623 0.0
C335 C 0.63535 0.51089 0.13657 0.0
C336 C 0.65624 0.50155 0.13038 0.0
C337 C 0.65692 0.4956 0.11371 0.0
C338 C 0.44377 0.42348 0.1305 0.0
H339 H 0.56294 0.44739 0.02385 0.0
H340 H 0.55994 0.44536 0.05325 0.0
H341 H 0.54202 0.51682 0.05707 0.0
H342 H 0.5461 0.5198 0.02766 0.0
H343 H 0.60557 0.5071 0.07795 0.0
H344 H 0.48949 0.45029 0.07375 0.0
H345 H 0.54047 0.46773 0.11998 0.0
H346 H 0.48021 0.41417 0.12094 0.0
H347 H 0.46794 0.47416 0.0937 0.0
H348 H 0.4261 0.47001 0.11346 0.0
H349 H 0.63145 0.48659 0.09092 0.0
H350 H 0.59397 0.51571 0.13127 0.0
H351 H 0.43846 0.41084 0.14122 0.0
H352 H 0.67362 0.48894 0.1088 0.0
H353 H 0.63501 0.51585 0.14944 0.0
H354 H 0.30524 0.58655 0.18251 0.0
H355 H 0.34859 0.57402 0.18238 0.0
H356 H 0.3046 0.52163 0.13614 0.0
H357 H 0.26365 0.53557 0.13563 0.0
H358 H 0.30325 0.4938 0.17377 0.0
H359 H 0.36182 0.54805 0.12259 0.0
H360 H 0.38397 0.59672 0.10909 0.0
H361 H 0.45876 0.65403 0.14874 0.0
H362 H 0.43583 0.60558 0.16276 0.0
H363 H 0.35906 0.41345 0.13036 0.0
H364 H 0.33715 0.44229 0.142 0.0
H365 H 0.44016 0.51019 0.16704 0.0
H366 H 0.46284 0.48195 0.15451 0.0
H367 H 0.41935 0.5367 0.146 0.0
H368 H 0.36364 0.46416 0.18992 0.0
H369 H 0.33187 0.4083 0.19622 0.0
H370 H 0.24359 0.37926 0.16422 0.0
H371 H 0.27485 0.43497 0.15775 0.0
C372 C 0.30688 0.57442 0.17185 0.0
C373 C 0.28122 0.56191 0.15914 0.0
C374 C 0.33086 0.56669 0.17196 0.0
C375 C 0.32898 0.54667 0.15936 0.0
C376 C 0.30645 0.53745 0.14584 0.0
C377 C 0.28348 0.54593 0.14548 0.0
C378 C 0.34746 0.53234 0.16079 0.0
C379 C 0.3292 0.50353 0.16821 0.0
C380 C 0.38022 0.54464 0.15286 0.0
C381 C 0.39731 0.57333 0.14367 0.0
C382 C 0.38315 0.57105 0.12837 0.0
C383 C 0.3956 0.59857 0.12069 0.0
C384 C 0.4228 0.62846 0.12804 0.0
C385 C 0.43769 0.63085 0.14306 0.0
C386 C 0.42489 0.60338 0.15091 0.0
C387 C 0.37608 0.43328 0.13916 0.0
C388 C 0.41218 0.44546 0.14178 0.0
C389 C 0.36381 0.44999 0.14568 0.0
C390 C 0.38712 0.47821 0.15542 0.0
C391 C 0.42196 0.48837 0.15957 0.0
C392 C 0.43451 0.47188 0.15277 0.0
C393 C 0.37594 0.49849 0.15956 0.0
C394 C 0.39483 0.528 0.15267 0.0
C395 C 0.343 0.48617 0.16753 0.0
C396 C 0.32133 0.45382 0.17358 0.0
C397 C 0.33706 0.44594 0.18453 0.0
C398 C 0.31928 0.41428 0.18802 0.0
C399 C 0.28566 0.39026 0.18067 0.0
C400 C 0.26948 0.39793 0.17002 0.0
C401 C 0.28707 0.4296 0.16654 0.0
H402 H 0.27223 0.3657 0.18319 0.0
H403 H 0.43233 0.64977 0.12212 0.0
H404 H 0.62548 0.12392 0.47187 0.0
H405 H 0.67959 0.17856 0.47009 0.0
H406 H 0.74007 0.16 0.49924 0.0
H407 H 0.68569 0.10466 0.50096 0.0
H408 H 0.74983 0.21832 0.50865 0.0
H409 H 0.75534 0.16439 0.46112 0.0
H410 H 0.73207 0.12959 0.43595 0.0
H411 H 0.71412 0.19129 0.41507 0.0
H412 H 0.73669 0.22619 0.44023 0.0
H413 H 0.92519 0.35906 0.48209 0.0
H414 H 0.87519 0.30509 0.48872 0.0
H415 H 0.79839 0.31572 0.46856 0.0
H416 H 0.84751 0.37039 0.463 0.0
H417 H 0.80034 0.26062 0.45531 0.0
H418 H 0.78829 0.31116 0.50241 0.0
H419 H 0.80705 0.34526 0.5277 0.0
H420 H 0.83381 0.29001 0.54924 0.0
H421 H 0.81582 0.25588 0.52392 0.0
C422 C 0.6502 0.13134 0.47797 0.0
C423 C 0.65123 0.10987 0.48659 0.0
C424 C 0.68119 0.16262 0.47686 0.0
C425 C 0.71392 0.17331 0.48444 0.0
C426 C 0.71506 0.15218 0.49328 0.0
C427 C 0.68405 0.12058 0.49421 0.0
C428 C 0.74665 0.20667 0.48304 0.0
C429 C 0.76141 0.22745 0.49703 0.0
C430 C 0.76102 0.21874 0.46781 0.0
C431 C 0.74741 0.19777 0.45264 0.0
C432 C 0.74611 0.17039 0.45123 0.0
C433 C 0.73309 0.15067 0.43694 0.0
C434 C 0.72154 0.15818 0.42393 0.0
C435 C 0.72304 0.18548 0.42517 0.0
C436 C 0.73596 0.20525 0.43944 0.0
C437 C 0.8977 0.3505 0.47948 0.0
C438 C 0.89085 0.36938 0.4717 0.0
C439 C 0.86912 0.31942 0.4832 0.0
C440 C 0.83318 0.30638 0.47901 0.0
C441 C 0.82601 0.32531 0.47179 0.0
C442 C 0.85436 0.35656 0.46845 0.0
C443 C 0.80334 0.27227 0.48089 0.0
C444 C 0.78912 0.25138 0.46696 0.0
C445 C 0.78928 0.26021 0.49613 0.0
C446 C 0.80146 0.28139 0.51114 0.0
C447 C 0.79887 0.30666 0.51242 0.0
C448 C 0.80916 0.32589 0.52679 0.0
C449 C 0.82183 0.31993 0.54004 0.0
C450 C 0.82417 0.29469 0.53894 0.0
C451 C 0.81396 0.27542 0.52457 0.0
H452 H 0.82967 0.33477 0.55118 0.0
H453 H 0.71149 0.14289 0.41288 0.0
H454 H 0.65093 0.74778 0.84214 0.0
H455 H 0.63773 0.78579 0.8398 0.0
H456 H 0.53908 0.71375 0.81289 0.0
H457 H 0.55177 0.67546 0.81538 0.0
H458 H 0.58314 0.76643 0.79661 0.0
H459 H 0.53565 0.74261 0.84991 0.0
H460 H 0.53536 0.73626 0.87908 0.0
H461 H 0.6258 0.83496 0.88707 0.0
H462 H 0.62699 0.84182 0.85789 0.0
H463 H 0.51164 0.85105 0.78838 0.0
H464 H 0.5185 0.81267 0.79852 0.0
H465 H 0.62596 0.88911 0.8168 0.0
H466 H 0.62045 0.92783 0.80588 0.0
H467 H 0.57804 0.83558 0.83841 0.0
H468 H 0.62748 0.85864 0.78529 0.0
H469 H 0.6277 0.86562 0.75621 0.0
H470 H 0.53418 0.76811 0.74817 0.0
H471 H 0.53297 0.76073 0.77729 0.0
C472 C 0.62591 0.73975 0.83611 0.0
C473 C 0.60266 0.70871 0.82873 0.0
C474 C 0.61841 0.76153 0.83479 0.0
C475 C 0.5875 0.75261 0.82612 0.0
C476 C 0.56321 0.72115 0.81955 0.0
C477 C 0.57062 0.69937 0.82089 0.0
C478 C 0.58274 0.77685 0.82218 0.0
C479 C 0.58139 0.78113 0.80579 0.0
C480 C 0.58183 0.79684 0.83415 0.0
C481 C 0.58167 0.79263 0.85166 0.0
C482 C 0.55577 0.76288 0.85784 0.0
C483 C 0.55537 0.75921 0.87439 0.0
C484 C 0.58061 0.78517 0.88491 0.0
C485 C 0.6063 0.81486 0.8789 0.0
C486 C 0.60683 0.81866 0.86236 0.0
C487 C 0.53692 0.85987 0.79443 0.0
C488 C 0.56569 0.89268 0.79605 0.0
C489 C 0.54056 0.83785 0.80039 0.0
C490 C 0.57274 0.84814 0.80834 0.0
C491 C 0.60083 0.8808 0.81076 0.0
C492 C 0.59751 0.90289 0.80454 0.0
C493 C 0.5779 0.82456 0.81293 0.0
C494 C 0.57961 0.82064 0.82934 0.0
C495 C 0.57932 0.80489 0.80101 0.0
C496 C 0.57981 0.80927 0.78351 0.0
C497 C 0.60667 0.8388 0.77736 0.0
C498 C 0.60703 0.84281 0.76086 0.0
C499 C 0.58088 0.81736 0.75036 0.0
C500 C 0.55436 0.78783 0.75633 0.0
C501 C 0.55381 0.78372 0.77283 0.0
H502 H 0.58125 0.82049 0.73758 0.0
H503 H 0.58021 0.78229 0.89772 0.0
H504 H 0.8696 0.47608 0.2034 0.0
H505 H 0.8175 0.47376 0.19797 0.0
H506 H 0.79673 0.41774 0.15313 0.0
H507 H 0.85251 0.42336 0.15786 0.0
H508 H 0.80498 0.46854 0.14721 0.0
H509 H 0.73433 0.39156 0.18636 0.0
H510 H 0.72787 0.37036 0.21283 0.0
H511 H 0.74811 0.45456 0.23687 0.0
H512 H 0.75524 0.47647 0.21055 0.0
H513 H 0.64422 0.4452 0.12992 0.0
H514 H 0.68144 0.43406 0.14323 0.0
H515 H 0.74204 0.52695 0.16875 0.0
H516 H 0.70536 0.53885 0.15486 0.0
H517 H 0.71362 0.45924 0.18444 0.0
H518 H 0.78396 0.53544 0.14405 0.0
H519 H 0.79066 0.55549 0.11725 0.0
H520 H 0.77064 0.47055 0.09453 0.0
H521 H 0.76217 0.44929 0.12119 0.0
C522 C 0.85275 0.46143 0.19289 0.0
C523 C 0.8653 0.45062 0.18081 0.0
C524 C 0.82275 0.46019 0.18974 0.0
C525 C 0.80316 0.44559 0.17512 0.0
C526 C 0.81183 0.42938 0.16441 0.0
C527 C 0.84305 0.43189 0.16727 0.0
C528 C 0.77832 0.45226 0.17005 0.0
C529 C 0.78445 0.46582 0.1552 0.0
C530 C 0.75267 0.44992 0.18077 0.0
C531 C 0.74514 0.43555 0.19649 0.0
C532 C 0.73713 0.40543 0.1973 0.0
C533 C 0.73352 0.39336 0.21227 0.0
C534 C 0.73753 0.41108 0.22652 0.0
C535 C 0.74488 0.44081 0.22582 0.0
C536 C 0.74857 0.45302 0.21088 0.0
C537 C 0.66523 0.46307 0.13853 0.0
C538 C 0.6732 0.49323 0.14111 0.0
C539 C 0.68613 0.45663 0.14611 0.0
C540 C 0.71458 0.48011 0.15649 0.0
C541 C 0.72016 0.50897 0.16051 0.0
C542 C 0.69944 0.51567 0.15269 0.0
C543 C 0.7401 0.47487 0.16171 0.0
C544 C 0.73409 0.46166 0.17651 0.0
C545 C 0.76545 0.47718 0.15081 0.0
C546 C 0.7716 0.49041 0.13471 0.0
C547 C 0.78023 0.5207 0.13337 0.0
C548 C 0.78445 0.53234 0.11817 0.0
C549 C 0.78086 0.51422 0.10419 0.0
C550 C 0.77321 0.48448 0.10537 0.0
C551 C 0.76859 0.47259 0.12054 0.0
H552 H 0.7842 0.52329 0.09244 0.0
H553 H 0.73496 0.40178 0.23811 0.0
H554 H 0.47826 0.89571 0.48017 0.0
H555 H 0.42201 0.84111 0.4797 0.0
H556 H 0.35954 0.87712 0.48505 0.0
H557 H 0.4156 0.93178 0.48509 0.0
H558 H 0.33979 0.82698 0.50631 0.0
H559 H 0.35805 0.85002 0.45056 0.0
H560 H 0.3916 0.86743 0.42518 0.0
H561 H 0.40366 0.79291 0.42487 0.0
H562 H 0.37078 0.77542 0.45045 0.0
H563 H 0.16489 0.68057 0.47898 0.0
H564 H 0.21916 0.73543 0.48472 0.0
H565 H 0.2867 0.70486 0.47735 0.0
H566 H 0.23286 0.64993 0.47238 0.0
H567 H 0.30291 0.75319 0.45745 0.0
H568 H 0.2847 0.72965 0.51287 0.0
H569 H 0.25289 0.71267 0.53867 0.0
H570 H 0.2414 0.78761 0.53997 0.0
H571 H 0.27258 0.80472 0.51399 0.0
C572 C 0.45254 0.89199 0.48122 0.0
C573 C 0.45131 0.91801 0.48256 0.0
C574 C 0.42046 0.86081 0.48095 0.0
C575 C 0.38663 0.8551 0.48232 0.0
C576 C 0.38536 0.88104 0.48398 0.0
C577 C 0.41738 0.91221 0.4839 0.0
C578 C 0.35261 0.82199 0.48172 0.0
C579 C 0.33134 0.81091 0.49556 0.0
C580 C 0.34214 0.80095 0.46781 0.0
C581 C 0.36237 0.81168 0.45255 0.0
C582 C 0.36827 0.8376 0.44521 0.0
C583 C 0.38709 0.84743 0.43075 0.0
C584 C 0.39987 0.83136 0.42345 0.0
C585 C 0.39383 0.80539 0.43057 0.0
C586 C 0.37512 0.79552 0.44505 0.0
C587 C 0.19117 0.68527 0.47906 0.0
C588 C 0.19434 0.6607 0.47491 0.0
C589 C 0.22222 0.71674 0.48227 0.0
C590 C 0.25698 0.72426 0.48129 0.0
C591 C 0.26015 0.69963 0.47801 0.0
C592 C 0.22925 0.66822 0.47505 0.0
C593 C 0.29007 0.75792 0.48209 0.0
C594 C 0.31119 0.76919 0.46822 0.0
C595 C 0.30033 0.77902 0.49599 0.0
C596 C 0.28047 0.76814 0.51133 0.0
C597 C 0.27487 0.7422 0.5185 0.0
C598 C 0.25708 0.73263 0.5332 0.0
C599 C 0.24499 0.74896 0.54092 0.0
C600 C 0.25067 0.77491 0.53395 0.0
C601 C 0.26839 0.78454 0.51923 0.0
H602 H 0.23133 0.74158 0.55233 0.0
H603 H 0.41436 0.83896 0.41224 0.0
H604 H 0.6284 0.37893 0.83287 0.0
H605 H 0.63432 0.33562 0.82928 0.0
H606 H 0.51786 0.26708 0.82441 0.0
H607 H 0.51185 0.31001 0.82796 0.0
H608 H 0.54772 0.24816 0.84425 0.0
H609 H 0.56704 0.28967 0.79195 0.0
H610 H 0.59664 0.33005 0.77183 0.0
H611 H 0.69771 0.34573 0.78066 0.0
H612 H 0.66882 0.30579 0.80106 0.0
H613 H 0.51375 0.11099 0.80171 0.0
H614 H 0.5183 0.15767 0.81233 0.0
H615 H 0.63518 0.21475 0.81132 0.0
H616 H 0.63076 0.16815 0.8006 0.0
H617 H 0.61186 0.24261 0.79692 0.0
H618 H 0.58977 0.1961 0.84742 0.0
H619 H 0.5579 0.15315 0.86614 0.0
H620 H 0.46056 0.14503 0.85983 0.0
H621 H 0.4917 0.18765 0.84091 0.0
C622 C 0.60413 0.35458 0.83115 0.0
C623 C 0.56968 0.34779 0.83055 0.0
C624 C 0.60754 0.32993 0.82905 0.0
C625 C 0.5765 0.29818 0.82651 0.0
C626 C 0.54212 0.2914 0.82637 0.0
C627 C 0.53875 0.31595 0.82827 0.0
C628 C 0.57945 0.27182 0.82351 0.0
C629 C 0.56167 0.24686 0.83389 0.0
C630 C 0.5983 0.27051 0.81018 0.0
C631 C 0.61591 0.29513 0.79823 0.0
C632 C 0.5957 0.30205 0.78978 0.0
C633 C 0.61232 0.32479 0.77828 0.0
C634 C 0.64907 0.34055 0.77502 0.0
C635 C 0.66927 0.33359 0.78325 0.0
C636 C 0.6528 0.31093 0.79478 0.0
C637 C 0.54041 0.13332 0.80409 0.0
C638 C 0.57189 0.13596 0.80024 0.0
C639 C 0.543 0.16001 0.81017 0.0
C640 C 0.57712 0.18972 0.81271 0.0
C641 C 0.60859 0.19211 0.80941 0.0
C642 C 0.60602 0.1655 0.80326 0.0
C643 C 0.57982 0.21869 0.81756 0.0
C644 C 0.59856 0.24413 0.80749 0.0
C645 C 0.56175 0.22036 0.83113 0.0
C646 C 0.54303 0.19496 0.84266 0.0
C647 C 0.56151 0.18503 0.84995 0.0
C648 C 0.54358 0.16076 0.86061 0.0
C649 C 0.50721 0.14633 0.86415 0.0
C650 C 0.48873 0.15622 0.85708 0.0
C651 C 0.50653 0.18048 0.84641 0.0
H652 H 0.49337 0.12752 0.87239 0.0
H653 H 0.66185 0.35807 0.76608 0.0
H654 H 0.57532 0.85674 0.52008 0.0
H655 H 0.57047 0.80859 0.52254 0.0
H656 H 0.52365 0.77408 0.4744 0.0
H657 H 0.5283 0.82255 0.47182 0.0
H658 H 0.49107 0.72641 0.50055 0.0
H659 H 0.60304 0.80252 0.47467 0.0
H660 H 0.65983 0.85604 0.47129 0.0
H661 H 0.69786 0.8571 0.51823 0.0
H662 H 0.64099 0.80377 0.522 0.0
H663 H 0.53147 0.61417 0.50242 0.0
H664 H 0.52891 0.65524 0.49191 0.0
H665 H 0.58392 0.71581 0.53524 0.0
H666 H 0.58593 0.67477 0.54582 0.0
H667 H 0.61074 0.74736 0.50612 0.0
H668 H 0.49833 0.67666 0.53371 0.0
H669 H 0.44193 0.62388 0.53871 0.0
H670 H 0.40504 0.61301 0.48993 0.0
H671 H 0.46159 0.66561 0.48456 0.0
C672 C 0.56315 0.83861 0.51015 0.0
C673 C 0.55221 0.8434 0.49575 0.0
C674 C 0.56058 0.81121 0.51155 0.0
C675 C 0.54694 0.78804 0.49861 0.0
C676 C 0.53423 0.79182 0.48449 0.0
C677 C 0.53712 0.8195 0.48301 0.0
C678 C 0.5491 0.76144 0.49963 0.0
C679 C 0.51713 0.73072 0.50136 0.0
C680 C 0.58319 0.76737 0.50094 0.0
C681 C 0.61766 0.79925 0.49865 0.0
C682 C 0.6234 0.81427 0.48432 0.0
C683 C 0.65562 0.84455 0.48233 0.0
C684 C 0.68242 0.85998 0.49455 0.0
C685 C 0.67708 0.84512 0.50877 0.0
C686 C 0.64487 0.81485 0.51084 0.0
C687 C 0.54325 0.63643 0.50955 0.0
C688 C 0.55873 0.64149 0.52491 0.0
C689 C 0.54173 0.65972 0.5036 0.0
C690 C 0.55616 0.68839 0.51285 0.0
C691 C 0.57272 0.69381 0.52794 0.0
C692 C 0.57371 0.67041 0.53399 0.0
C693 C 0.55279 0.71244 0.50731 0.0
C694 C 0.58461 0.74278 0.50483 0.0
C695 C 0.5186 0.70615 0.5054 0.0
C696 C 0.48433 0.67486 0.50868 0.0
C697 C 0.47831 0.66291 0.52401 0.0
C698 C 0.44631 0.63305 0.52692 0.0
C699 C 0.41997 0.61506 0.51463 0.0
C700 C 0.42552 0.62696 0.49942 0.0
C701 C 0.45752 0.6568 0.49644 0.0
H702 H 0.39521 0.59193 0.5169 0.0
H703 H 0.70735 0.88344 0.49299 0.0
H704 H 0.71135 0.56516 0.85888 0.0
H705 H 0.76265 0.56404 0.86362 0.0
H706 H 0.74337 0.51526 0.81662 0.0
H707 H 0.69019 0.51432 0.81258 0.0
H708 H 0.76551 0.49299 0.83203 0.0
H709 H 0.82173 0.60399 0.83112 0.0
H710 H 0.83352 0.65552 0.83871 0.0
H711 H 0.85745 0.65089 0.88763 0.0
H712 H 0.84536 0.59914 0.88037 0.0
H713 H 0.94418 0.52653 0.83296 0.0
H714 H 0.89284 0.5276 0.82711 0.0
H715 H 0.88563 0.54624 0.87783 0.0
H716 H 0.9361 0.54446 0.88372 0.0
H717 H 0.87885 0.58459 0.85966 0.0
H718 H 0.82445 0.47283 0.85835 0.0
H719 H 0.81501 0.423 0.84883 0.0
H720 H 0.79141 0.43244 0.80084 0.0
H721 H 0.80137 0.48267 0.81001 0.0
C722 C 0.71815 0.55434 0.84949 0.0
C723 C 0.69651 0.54022 0.83522 0.0
C724 C 0.74817 0.55398 0.85213 0.0
C725 C 0.75891 0.54047 0.84036 0.0
C726 C 0.73685 0.52614 0.82609 0.0
C727 C 0.70621 0.52577 0.82366 0.0
C728 C 0.79205 0.5405 0.843 0.0
C729 C 0.79036 0.5135 0.83782 0.0
C730 C 0.82531 0.5666 0.8508 0.0
C731 C 0.83226 0.59753 0.85523 0.0
C732 C 0.82925 0.61386 0.84352 0.0
C733 C 0.83602 0.64312 0.84776 0.0
C734 C 0.84612 0.65642 0.86365 0.0
C735 C 0.84955 0.64052 0.87533 0.0
C736 C 0.84276 0.61124 0.87116 0.0
C737 C 0.93184 0.53099 0.84291 0.0
C738 C 0.94487 0.53529 0.85889 0.0
C739 C 0.90203 0.5314 0.83954 0.0
C740 C 0.88437 0.53681 0.85197 0.0
C741 C 0.89804 0.54191 0.86786 0.0
C742 C 0.92718 0.54077 0.87125 0.0
C743 C 0.85209 0.53731 0.84862 0.0
C744 C 0.85397 0.56434 0.85374 0.0
C745 C 0.81946 0.51162 0.8404 0.0
C746 C 0.81415 0.48175 0.83483 0.0
C747 C 0.81771 0.46451 0.84572 0.0
C748 C 0.81217 0.43614 0.84039 0.0
C749 C 0.80274 0.42462 0.82422 0.0
C750 C 0.79882 0.44144 0.81335 0.0
C751 C 0.80443 0.46987 0.8186 0.0
H752 H 0.79837 0.40261 0.82013 0.0
H753 H 0.85138 0.67909 0.8669 0.0
H754 H 0.14644 0.62853 0.17735 0.0
H755 H 0.20121 0.68293 0.17833 0.0
H756 H 0.26193 0.65058 0.15872 0.0
H757 H 0.20641 0.59517 0.15778 0.0
H758 H 0.2976 0.69685 0.18438 0.0
H759 H 0.23641 0.68358 0.1346 0.0
H760 H 0.18375 0.66835 0.11812 0.0
H761 H 0.17807 0.73658 0.1463 0.0
H762 H 0.23037 0.7519 0.16311 0.0
H763 H 0.45254 0.85167 0.17164 0.0
H764 H 0.39992 0.79605 0.16649 0.0
H765 H 0.32865 0.82057 0.18053 0.0
H766 H 0.38129 0.87642 0.18543 0.0
H767 H 0.29898 0.77731 0.1561 0.0
H768 H 0.35277 0.78835 0.20685 0.0
H769 H 0.40136 0.8032 0.22609 0.0
H770 H 0.41644 0.73929 0.19955 0.0
H771 H 0.36831 0.72444 0.17998 0.0
C772 C 0.17131 0.63273 0.17318 0.0
C773 C 0.17192 0.60738 0.16726 0.0
C774 C 0.20266 0.66401 0.17372 0.0
C775 C 0.23545 0.67092 0.16823 0.0
C776 C 0.23671 0.64572 0.16285 0.0
C777 C 0.20509 0.61412 0.16235 0.0
C778 C 0.26819 0.70459 0.16833 0.0
C779 C 0.2983 0.71434 0.1779 0.0
C780 C 0.26834 0.72762 0.16045 0.0
C781 C 0.23723 0.71877 0.15016 0.0
C782 C 0.22382 0.69522 0.13734 0.0
C783 C 0.19404 0.68658 0.12793 0.0
C784 C 0.17755 0.70147 0.13117 0.0
C785 C 0.19087 0.72508 0.1438 0.0
C786 C 0.22062 0.73378 0.15325 0.0
C787 C 0.42562 0.84524 0.17348 0.0
C788 C 0.42106 0.86837 0.17905 0.0
C789 C 0.39557 0.81342 0.17059 0.0
C790 C 0.36032 0.80394 0.17347 0.0
C791 C 0.35556 0.82725 0.17828 0.0
C792 C 0.38566 0.85919 0.18102 0.0
C793 C 0.32868 0.76963 0.17207 0.0
C794 C 0.29863 0.75979 0.16238 0.0
C795 C 0.32818 0.74659 0.18015 0.0
C796 C 0.35728 0.7556 0.19183 0.0
C797 C 0.3667 0.7777 0.20502 0.0
C798 C 0.39411 0.78608 0.216 0.0
C799 C 0.41207 0.77228 0.21401 0.0
C800 C 0.40258 0.75002 0.20105 0.0
C801 C 0.37524 0.74162 0.19001 0.0
H802 H 0.43326 0.77877 0.22254 0.0
H803 H 0.15449 0.69473 0.12388 0.0
H804 H 0.59623 0.20946 0.47409 0.0
H805 H 0.60439 0.26009 0.47743 0.0
H806 H 0.51726 0.21921 0.51137 0.0
H807 H 0.50868 0.16891 0.50797 0.0
H808 H 0.50847 0.24679 0.48732 0.0
H809 H 0.60311 0.27118 0.52407 0.0
H810 H 0.65971 0.28022 0.53239 0.0
H811 H 0.71979 0.354 0.49945 0.0
H812 H 0.66339 0.34501 0.49072 0.0
H813 H 0.51262 0.36675 0.53157 0.0
H814 H 0.51342 0.32268 0.52123 0.0
H815 H 0.60878 0.38733 0.49389 0.0
H816 H 0.60887 0.4318 0.50499 0.0
H817 H 0.61785 0.35103 0.50912 0.0
H818 H 0.52223 0.33045 0.47534 0.0
H819 H 0.46535 0.32297 0.46947 0.0
H820 H 0.40648 0.2424 0.49843 0.0
H821 H 0.46305 0.24966 0.50468 0.0
C822 C 0.57902 0.21146 0.48232 0.0
C823 C 0.55186 0.18528 0.4908 0.0
C824 C 0.58384 0.24035 0.48427 0.0
C825 C 0.56137 0.24328 0.49463 0.0
C826 C 0.53483 0.21738 0.50331 0.0
C827 C 0.53017 0.18873 0.50145 0.0
C828 C 0.56366 0.2725 0.49598 0.0
C829 C 0.53237 0.26962 0.49211 0.0
C830 C 0.59527 0.30244 0.5017 0.0
C831 C 0.6289 0.30698 0.50651 0.0
C832 C 0.62827 0.28895 0.51839 0.0
C833 C 0.66035 0.29417 0.52324 0.0
C834 C 0.6933 0.31755 0.51639 0.0
C835 C 0.69423 0.33579 0.50469 0.0
C836 C 0.66221 0.33062 0.49977 0.0
C837 C 0.5333 0.3713 0.52314 0.0
C838 C 0.56044 0.40228 0.51887 0.0
C839 C 0.53371 0.34619 0.51718 0.0
C840 C 0.56075 0.35158 0.50651 0.0
C841 C 0.58757 0.38261 0.50202 0.0
C842 C 0.58755 0.40787 0.50826 0.0
C843 C 0.56218 0.32506 0.501 0.0
C844 C 0.5942 0.32845 0.50397 0.0
C845 C 0.53115 0.29546 0.49454 0.0
C846 C 0.49694 0.29068 0.49051 0.0
C847 C 0.49718 0.31121 0.48051 0.0
C848 C 0.46498 0.30701 0.47711 0.0
C849 C 0.43233 0.28224 0.48358 0.0
C850 C 0.43178 0.26156 0.49342 0.0
C851 C 0.46389 0.26567 0.49686 0.0
H852 H 0.40744 0.27906 0.48096 0.0
H853 H 0.71813 0.32163 0.5202 0.0
H854 H 0.5212 0.56707 0.85833 0.0
H855 H 0.46743 0.56608 0.86205 0.0
H856 H 0.41517 0.49913 0.82062 0.0
H857 H 0.46834 0.49906 0.81736 0.0
H858 H 0.40664 0.54878 0.82062 0.0
H859 H 0.38513 0.47246 0.85612 0.0
H860 H 0.39695 0.4506 0.87813 0.0
H861 H 0.40818 0.52138 0.91213 0.0
H862 H 0.39694 0.54398 0.89026 0.0
H863 H 0.23118 0.51626 0.83346 0.0
H864 H 0.28197 0.51402 0.82801 0.0
H865 H 0.32619 0.55665 0.8758 0.0
H866 H 0.2748 0.55722 0.88162 0.0
H867 H 0.33806 0.51708 0.87141 0.0
H868 H 0.3612 0.59476 0.83534 0.0
H869 H 0.35015 0.61651 0.81295 0.0
H870 H 0.33635 0.54363 0.77974 0.0
H871 H 0.34689 0.52121 0.80196 0.0
C872 C 0.49828 0.55209 0.85 0.0
C873 C 0.49954 0.53318 0.83751 0.0
C874 C 0.46723 0.55145 0.85216 0.0
C875 C 0.43646 0.53253 0.84166 0.0
C876 C 0.43804 0.51406 0.82899 0.0
C877 C 0.46866 0.51397 0.82712 0.0
C878 C 0.40296 0.53197 0.84396 0.0
C879 C 0.39146 0.54148 0.83169 0.0
C880 C 0.38279 0.52303 0.85841 0.0
C881 C 0.39071 0.5102 0.87151 0.0
C882 C 0.39063 0.48366 0.86825 0.0
C883 C 0.39709 0.47105 0.88071 0.0
C884 C 0.40345 0.48467 0.89651 0.0
C885 C 0.40336 0.51092 0.89988 0.0
C886 C 0.39694 0.52363 0.88745 0.0
C887 C 0.25143 0.52504 0.84294 0.0
C888 C 0.24796 0.53726 0.85804 0.0
C889 C 0.28128 0.52418 0.83967 0.0
C890 C 0.30941 0.53571 0.85128 0.0
C891 C 0.30571 0.54759 0.86637 0.0
C892 C 0.27594 0.5483 0.86966 0.0
C893 C 0.34185 0.53467 0.8482 0.0
C894 C 0.35319 0.52466 0.86034 0.0
C895 C 0.36189 0.54326 0.83361 0.0
C896 C 0.35433 0.55605 0.82036 0.0
C897 C 0.35538 0.58315 0.8233 0.0
C898 C 0.34931 0.59565 0.81062 0.0
C899 C 0.34241 0.58139 0.79494 0.0
C900 C 0.34158 0.55459 0.7919 0.0
C901 C 0.34759 0.54198 0.80452 0.0
H902 H 0.33783 0.59116 0.78515 0.0
H903 H 0.40834 0.47481 0.90616 0.0
H904 H 0.99051 0.39368 0.15282 0.0
H905 H 0.93542 0.34032 0.15662 0.0
H906 H 0.88041 0.37994 0.17343 0.0
H907 H 0.93582 0.4336 0.16998 0.0
H908 H 0.86639 0.33516 0.19253 0.0
H909 H 0.86483 0.34236 0.13503 0.0
H910 H 0.89014 0.35196 0.10771 0.0
H911 H 0.90024 0.27666 0.1102 0.0
H912 H 0.87549 0.26692 0.13766 0.0
H913 H 0.6852 0.19567 0.18634 0.0
H914 H 0.74131 0.24735 0.18093 0.0
H915 H 0.79462 0.20375 0.17051 0.0
H916 H 0.73895 0.15196 0.17656 0.0
H917 H 0.81052 0.2492 0.14842 0.0
H918 H 0.81117 0.24061 0.20512 0.0
H919 H 0.78573 0.22985 0.2324 0.0
H920 H 0.77817 0.30689 0.23167 0.0
H921 H 0.80292 0.31774 0.20422 0.0
C922 C 0.96662 0.39113 0.15715 0.0
C923 C 0.96763 0.41806 0.16096 0.0
C924 C 0.93504 0.36049 0.15932 0.0
C925 C 0.90349 0.35593 0.16515 0.0
C926 C 0.90433 0.38275 0.1689 0.0
C927 C 0.93601 0.41346 0.16681 0.0
C928 C 0.86983 0.32326 0.16752 0.0
C929 C 0.85393 0.31655 0.1828 0.0
C930 C 0.85409 0.2985 0.15502 0.0
C931 C 0.86863 0.30412 0.13845 0.0
C932 C 0.87268 0.32799 0.1298 0.0
C933 C 0.8869 0.33345 0.11428 0.0
C934 C 0.89687 0.31499 0.10724 0.0
C935 C 0.89255 0.29097 0.11568 0.0
C936 C 0.8784 0.28546 0.13121 0.0
C937 C 0.70882 0.19693 0.18301 0.0
C938 C 0.70745 0.16948 0.18213 0.0
C939 C 0.74088 0.22655 0.17982 0.0
C940 C 0.77227 0.22948 0.17551 0.0
C941 C 0.77069 0.20203 0.17384 0.0
C942 C 0.73869 0.17236 0.17722 0.0
C943 C 0.80693 0.26141 0.1733 0.0
C944 C 0.82304 0.2679 0.15811 0.0
C945 C 0.82298 0.2859 0.1859 0.0
C946 C 0.80855 0.27977 0.20252 0.0
C947 C 0.80379 0.25509 0.2107 0.0
C948 C 0.78952 0.24899 0.22621 0.0
C949 C 0.78024 0.26762 0.23375 0.0
C950 C 0.78532 0.29245 0.2258 0.0
C951 C 0.79948 0.29859 0.21027 0.0
H952 H 0.76919 0.26286 0.24576 0.0
H953 H 0.90789 0.31925 0.09522 0.0
H954 H 0.07614 0.48471 0.1146 0.0
H955 H 0.08275 0.48289 0.08503 0.0
H956 H 0.0658 0.55435 0.08205 0.0
H957 H 0.05749 0.55491 0.11107 0.0
H958 H 1.02871 0.5133 0.05963 0.0
H959 H 0.15271 0.56536 0.07774 0.0
H960 H 0.20183 0.56985 0.09218 0.0
H961 H 0.17684 0.48655 0.06478 0.0
H962 H 0.12718 0.48128 0.05036 0.0
H963 H 0.08576 0.56448 0.98081 0.0
H964 H 0.08261 0.56144 0.01027 0.0
H965 H 0.08996 0.48363 0.00528 0.0
H966 H 0.09383 0.48724 0.97577 0.0
H967 H 0.12963 0.52203 0.03114 0.0
H968 H 1.0077 0.47167 0.01244 0.0
H969 H 0.95869 0.46723 -0.00207 0.0
H970 H 0.98052 0.54808 0.02675 0.0
H971 H 1.03001 0.55328 0.04127 0.0
C972 C 0.07394 0.50003 0.10758 0.0
C973 C 0.06603 0.51981 0.11525 0.0
C974 C 0.07796 0.49918 0.09063 0.0
C975 C 0.07503 0.51864 0.08101 0.0
C976 C 0.06792 0.53879 0.08889 0.0
C977 C 0.06325 0.53918 0.10563 0.0
C978 C 0.07776 0.51771 0.06279 0.0
C979 C 0.0512 0.51569 0.05353 0.0
C980 C 0.10615 0.51954 0.05443 0.0
C981 C 0.13594 0.5227 0.06312 0.0
C982 C 0.15749 0.54785 0.0749 0.0
C983 C 0.18546 0.55055 0.08306 0.0
C984 C 0.19237 0.52844 0.07944 0.0
C985 C 0.17139 0.50361 0.06761 0.0
C986 C 0.14333 0.50075 0.05944 0.0
C987 C 0.0868 0.54682 0.98604 0.0
C988 C 0.08989 0.52603 0.976 0.0
C989 C 0.08484 0.54494 0.0029 0.0
C990 C 0.08546 0.52194 0.0102 0.0
C991 C 0.08932 0.50157 0.00012 0.0
C992 C 0.09141 0.50353 0.98322 0.0
C993 C 0.08134 0.51885 0.02822 0.0
C994 C 0.10731 0.51977 0.03735 0.0
C995 C 0.05251 0.51614 0.03655 0.0
C996 C 1.02274 0.51301 0.02784 0.0
C997 C 1.0022 0.48863 0.0156 0.0
C998 C 0.97432 0.48596 0.00739 0.0
C999 C 0.96654 0.5074 0.0114 0.0
C1000 C 0.98659 0.53151 0.02365 0.0
C1001 C 1.01454 0.53432 0.03188 0.0
H1002 H 0.94493 0.50528 0.00503 0.0
H1003 H 0.21405 0.53059 0.08576 0.0
H1004 H 0.61297 0.06379 0.43776 0.0
H1005 H 0.6071 0.06624 0.40868 0.0
H1006 H 0.50194 0.97468 0.40737 0.0
H1007 H 0.50705 0.97278 0.43664 0.0
H1008 H 0.56098 0.98456 0.38479 0.0
H1009 H 0.49546 0.0255 0.40155 0.0
H1010 H 0.48609 0.06134 0.41722 0.0
H1011 H 0.5797 0.14192 0.39585 0.0
H1012 H 0.59007 0.10658 0.38028 0.0
H1013 H 0.51544 0.97389 0.30259 0.0
H1014 H 0.51342 0.97328 0.33201 0.0
H1015 H 0.60187 0.0737 0.33632 0.0
H1016 H 0.60429 0.07446 0.30684 0.0
H1017 H 0.5493 0.05892 0.35771 0.0
H1018 H 0.6174 0.02077 0.34201 0.0
H1019 H 0.63074 0.9871 0.32693 0.0
H1020 H 0.53721 0.90398 0.34678 0.0
H1021 H 0.52297 0.93712 0.3618 0.0
C1022 C 0.58837 0.04449 0.43127 0.0
C1023 C 0.56047 0.0181 0.4393 0.0
C1024 C 0.58503 0.04593 0.41473 0.0
C1025 C 0.55413 0.02062 0.40595 0.0
C1026 C 0.5259 0.99446 0.41401 0.0
C1027 C 0.52878 0.99345 0.43067 0.0
C1028 C 0.55275 0.02055 0.38816 0.0
C1029 C 0.55772 1.00035 0.37881 0.0
C1030 C 0.54988 0.04206 0.38053 0.0
C1031 C 0.54381 0.06341 0.3899 0.0
C1032 C 0.51433 0.0509 0.40034 0.0
C1033 C 0.50877 0.07111 0.40918 0.0
C1034 C 0.53235 0.1039 0.40758 0.0
C1035 C 0.5615 0.11652 0.39711 0.0
C1036 C 0.56723 0.0964 0.38827 0.0
C1037 C 0.53469 0.99581 0.30978 0.0
C1038 C 0.56019 0.02419 0.30234 0.0
C1039 C 0.53341 0.99544 0.3266 0.0
C1040 C 0.55771 0.02338 0.33636 0.0
C1041 C 0.58279 0.05188 0.32902 0.0
C1042 C 0.5841 0.05228 0.31217 0.0
C1043 C 0.55722 0.02267 0.35423 0.0
C1044 C 0.55221 0.04289 0.36363 0.0
C1045 C 0.56053 1.00144 0.36196 0.0
C1046 C 0.56887 0.98139 0.35288 0.0
C1047 C 0.59946 0.99527 0.34304 0.0
C1048 C 0.60723 0.97629 0.33452 0.0
C1049 C 0.58477 0.94341 0.33585 0.0
C1050 C 0.55454 0.92945 0.34573 0.0
C1051 C 0.54661 0.94832 0.35425 0.0
H1052 H 0.59085 0.92876 0.32927 0.0
H1053 H 0.52798 0.11951 0.41441 0.0
H1054 H 0.63921 0.53924 0.78301 0.0
H1055 H 0.64103 0.54628 0.75401 0.0
H1056 H 0.54024 0.5348 0.75723 0.0
H1057 H 0.53731 0.52558 0.78587 0.0
H1058 H 0.53466 0.49805 0.73405 0.0
H1059 H 0.62823 0.60899 0.75026 0.0
H1060 H 0.68571 0.65337 0.76391 0.0
H1061 H 0.74415 0.62822 0.73478 0.0
H1062 H 0.68698 0.58349 0.7211 0.0
H1063 H 0.52609 0.52785 0.65366 0.0
H1064 H 0.53071 0.53163 0.68295 0.0
H1065 H 0.6328 0.54558 0.67989 0.0
H1066 H 0.63046 0.54539 0.65065 0.0
H1067 H 0.63824 0.58201 0.70307 0.0
H1068 H 0.5456 0.47049 0.68766 0.0
H1069 H 0.48832 0.42418 0.67475 0.0
H1070 H 0.42835 0.44881 0.70294 0.0
H1071 H 0.48529 0.49545 0.71588 0.0
C1072 C 0.61794 0.53888 0.7775 0.0
C1073 C 0.58805 0.53177 0.78645 0.0
C1074 C 0.61901 0.54303 0.76097 0.0
C1075 C 0.59083 0.54125 0.75341 0.0
C1076 C 0.56213 0.53605 0.76273 0.0
C1077 C 0.56053 0.53093 0.77907 0.0
C1078 C 0.58919 0.54176 0.7356 0.0
C1079 C 0.55713 0.51677 0.72732 0.0
C1080 C 0.61888 0.56548 0.72673 0.0
C1081 C 0.65331 0.5928 0.73473 0.0
C1082 C 0.65333 0.61287 0.74681 0.0
C1083 C 0.68586 0.63809 0.75455 0.0
C1084 C 0.71855 0.64358 0.75023 0.0
C1085 C 0.71881 0.62395 0.73812 0.0
C1086 C 0.68638 0.5987 0.73035 0.0
C1087 C 0.54998 0.53242 0.65914 0.0
C1088 C 0.57784 0.5362 0.64961 0.0
C1089 C 0.55222 0.53395 0.67597 0.0
C1090 C 0.58167 0.5381 0.68368 0.0
C1091 C 0.60964 0.54213 0.67425 0.0
C1092 C 0.60795 0.54151 0.65744 0.0
C1093 C 0.58355 0.53844 0.70154 0.0
C1094 C 0.61568 0.56346 0.70983 0.0
C1095 C 0.55394 0.51463 0.71046 0.0
C1096 C 0.51974 0.48662 0.70261 0.0
C1097 C 0.52022 0.46614 0.69101 0.0
C1098 C 0.48781 0.43982 0.68371 0.0
C1099 C 0.45473 0.43361 0.68799 0.0
C1100 C 0.45398 0.45367 0.69962 0.0
C1101 C 0.4863 0.48002 0.70695 0.0
H1102 H 0.42968 0.41321 0.68232 0.0
H1103 H 0.74369 0.66308 0.75625 0.0
H1104 H 0.49036 0.96438 0.53316 0.0
H1105 H 0.4966 0.9601 0.56182 0.0
H1106 H 0.60418 0.04952 0.56325 0.0
H1107 H 0.59882 0.05253 0.53417 0.0
H1108 H 0.60357 0.0132 0.58284 0.0
H1109 H 0.52414 0.04227 0.57524 0.0
H1110 H 0.47141 0.03565 0.56326 0.0
H1111 H 0.39952 0.94453 0.58303 0.0
H1112 H 0.45188 0.95047 0.59497 0.0
H1113 H 0.61148 0.04845 0.66737 0.0
H1114 H 0.60939 0.04895 0.63814 0.0
H1115 H 0.50295 0.9585 0.6361 0.0
H1116 H 0.50346 0.95903 0.6655 0.0
H1117 H 0.50377 0.99544 0.61688 0.0
H1118 H 0.58422 0.96755 0.62515 0.0
H1119 H 0.6374 0.97581 0.63775 0.0
H1120 H 0.70793 0.06646 0.61739 0.0
H1121 H 0.6551 0.05887 0.60481 0.0
C1122 C 0.51549 0.98288 0.53958 0.0
C1123 C 0.54392 0.00898 0.5316 0.0
C1124 C 0.51899 0.98056 0.55598 0.0
C1125 C 0.55036 0.00506 0.56492 0.0
C1126 C 0.57955 0.03044 0.55671 0.0
C1127 C 0.57648 0.03222 0.54012 0.0
C1128 C 0.55184 0.00496 0.58286 0.0
C1129 C 0.58189 0.00963 0.59028 0.0
C1130 C 0.52343 0.99991 0.59268 0.0
C1131 C 0.49191 0.99673 0.58589 0.0
C1132 C 0.49708 0.02081 0.57699 0.0
C1133 C 0.46727 0.01716 0.5702 0.0
C1134 C 0.43214 0.98967 0.57236 0.0
C1135 C 0.42674 0.96581 0.58137 0.0
C1136 C 0.45646 0.96932 0.58817 0.0
C1137 C 0.58732 0.0288 0.66081 0.0
C1138 C 0.55761 0.00369 0.66897 0.0
C1139 C 0.58645 0.02889 0.64398 0.0
C1140 C 0.55632 0.00345 0.6348 0.0
C1141 C 0.52665 0.97833 0.64287 0.0
C1142 C 0.5272 0.97849 0.65973 0.0
C1143 C 0.55527 0.00335 0.61685 0.0
C1144 C 0.52535 0.99882 0.60945 0.0
C1145 C 0.58387 0.00869 0.6071 0.0
C1146 C 0.61572 0.0127 0.61411 0.0
C1147 C 0.61108 0.98924 0.62338 0.0
C1148 C 0.64114 0.99382 0.63052 0.0
C1149 C 0.67601 0.02166 0.62839 0.0
C1150 C 0.68091 0.04491 0.61902 0.0
C1151 C 0.65093 0.04045 0.61185 0.0
H1152 H 0.69924 0.02521 0.63398 0.0
H1153 H 0.4091 0.98686 0.56706 0.0
H1154 H 0.54815 0.5232 0.87579 0.0
H1155 H 0.53519 0.50515 0.90318 0.0
H1156 H 0.643 0.53098 0.9078 0.0
H1157 H 0.6567 0.55035 0.8805 0.0
H1158 H 0.57287 0.46507 0.91941 0.0
H1159 H 0.64577 0.58026 0.92347 0.0
H1160 H 0.66251 0.63229 0.91695 0.0
H1161 H 0.55893 0.6054 0.93297 0.0
H1162 H 0.54115 0.55276 0.93915 0.0
H1163 H 0.60418 0.48658 0.00414 0.0
H1164 H 0.60756 0.48997 0.97487 0.0
H1165 H 0.51199 0.48685 0.97477 0.0
H1166 H 0.50803 0.48291 0.00406 0.0
H1167 H 0.57302 0.53854 0.96033 0.0
H1168 H 0.50295 0.42519 0.95911 0.0
H1169 H 0.48887 0.37502 0.96741 0.0
H1170 H 0.58904 0.39971 0.94769 0.0
H1171 H 0.60403 0.45032 0.93951 0.0
C1172 C 0.56891 0.52477 0.88265 0.0
C1173 C 0.60351 0.53844 0.87644 0.0
C1174 C 0.56144 0.51437 0.89812 0.0
C1175 C 0.58828 0.51696 0.90721 0.0
C1176 C 0.62223 0.52898 0.90072 0.0
C1177 C 0.63007 0.54023 0.88536 0.0
C1178 C 0.58178 0.50998 0.92407 0.0
C1179 C 0.57321 0.48113 0.92846 0.0
C1180 C 0.58156 0.53092 0.9355 0.0
C1181 C 0.59183 0.56228 0.93142 0.0
C1182 C 0.62625 0.58515 0.92528 0.0
C1183 C 0.636 0.61482 0.92172 0.0
C1184 C 0.61172 0.62208 0.92445 0.0
C1185 C 0.57764 0.59968 0.93077 0.0
C1186 C 0.56768 0.56989 0.93427 0.0
C1187 C 0.58357 0.48604 -0.0022 0.0
C1188 C 0.55592 0.4846 0.00616 0.0
C1189 C 0.58549 0.48791 0.98119 0.0
C1190 C 0.55976 0.48829 0.9729 0.0
C1191 C 0.53184 0.4864 0.98116 0.0
C1192 C 0.52982 0.48443 -0.00223 0.0
C1193 C 0.56415 0.49362 0.95579 0.0
C1194 C 0.57232 0.52226 0.95129 0.0
C1195 C 0.56418 0.47255 0.94436 0.0
C1196 C 0.55472 0.44166 0.94879 0.0
C1197 C 0.52208 0.42001 0.95661 0.0
C1198 C 0.51392 0.39148 0.96129 0.0
C1199 C 0.53808 0.3842 0.9581 0.0
C1200 C 0.57036 0.40538 0.95016 0.0
C1201 C 0.57867 0.43397 0.94547 0.0
H1202 H 0.53176 0.36213 0.96177 0.0
H1203 H 0.61938 0.64513 0.92176 0.0
H1204 H 0.0814 0.55125 0.21217 0.0
H1205 H 0.07553 0.5549 0.24161 0.0
H1206 H 1.03434 0.45689 0.24316 0.0
H1207 H 1.03849 0.45282 0.21391 0.0
H1208 H 0.99737 0.46543 0.26247 0.0
H1209 H 0.12642 0.52567 0.25427 0.0
H1210 H 0.18632 0.56829 0.24403 0.0
H1211 H 0.17858 0.63898 0.26763 0.0
H1212 H 0.11842 0.59676 0.27784 0.0
H1213 H 1.02335 0.45959 0.3457 0.0
H1214 H 1.02616 0.45943 0.31614 0.0
H1215 H 0.06466 0.5572 0.31906 0.0
H1216 H 0.06371 0.55769 0.34868 0.0
H1217 H 0.1011 0.55094 0.29762 0.0
H1218 H 0.97283 0.4893 0.30733 0.0
H1219 H 0.91531 0.44585 0.31895 0.0
H1220 H 0.92314 0.37679 0.29323 0.0
H1221 H 0.98094 0.41984 0.28162 0.0
C1222 C 0.07076 0.53045 0.21881 0.0
C1223 C 0.06039 0.50175 0.21066 0.0
C1224 C 0.06774 0.53261 0.23569 0.0
C1225 C 0.05497 0.50629 0.24481 0.0
C1226 C 0.04422 0.47759 0.23656 0.0
C1227 C 0.04674 0.47532 0.21976 0.0
C1228 C 0.05261 0.50814 0.26288 0.0
C1229 C 1.02025 0.48406 0.27011 0.0
C1230 C 0.08196 0.53273 0.27306 0.0
C1231 C 0.11772 0.55806 0.26662 0.0
C1232 C 0.13733 0.5503 0.25712 0.0
C1233 C 0.17136 0.57439 0.25136 0.0
C1234 C 0.18619 0.60632 0.25512 0.0
C1235 C 0.16703 0.61424 0.26468 0.0
C1236 C 0.13296 0.59025 0.27045 0.0
C1237 C 1.03231 0.48094 0.33995 0.0
C1238 C 0.04316 0.5086 0.34935 0.0
C1239 C 1.03368 0.48083 0.32306 0.0
C1240 C 0.0449 0.50812 0.31521 0.0
C1241 C 0.05581 0.5358 0.32472 0.0
C1242 C 0.05516 0.53609 0.34162 0.0
C1243 C 0.04608 0.5081 0.29715 0.0
C1244 C 0.07814 0.53251 0.28995 0.0
C1245 C 1.01654 0.48372 0.28701 0.0
C1246 C 0.98131 0.45781 0.29367 0.0
C1247 C 0.96233 0.46485 0.30419 0.0
C1248 C 0.92969 0.44029 0.31078 0.0
C1249 C 0.91561 0.40858 0.30685 0.0
C1250 C 0.93407 0.40136 0.29627 0.0
C1251 C 0.96674 0.42583 0.28966 0.0
H1252 H 0.89037 0.38961 0.31199 0.0
H1253 H 0.21257 0.62493 0.25068 0.0
loop_
_geom_bond_atom_site_label_1
_geom_bond_atom_site_label_2
_geom_bond_distance
_geom_bond_site_symmetry_2
_ccdc_geom_bond_type
Gd0 C3 2.818 . S
Gd0 O20 2.377 . S
Gd0 O22 2.448 . S
Gd0 O23 2.506 . S
Gd0 O24 2.435 . S
Gd0 O25 2.717 . S
Gd0 O27 2.395 1_455 S
Gd0 O31 2.327 . S
Gd1 C12 2.818 1_455 S
Gd1 O21 2.395 . S
Gd1 O25 2.327 . S
Gd1 O26 2.377 1_455 S
Gd1 O28 2.448 1_455 S
Gd1 O29 2.506 1_455 S
Gd1 O30 2.435 . S
Gd1 O31 2.717 . S
C2 O20 1.240 . S
C2 O21 1.240 . S
C3 Gd0 2.818 . S
C3 C4 1.510 . S
C3 O22 1.249 . S
C3 O23 1.252 . S
C4 C3 1.510 . S
C4 C5 1.404 . S
C4 C6 1.352 . S
C5 C4 1.404 . S
C5 C9 1.389 . S
C5 H32 0.930 . S
C6 C4 1.352 . S
C6 C8 1.374 . S
C6 H33 0.931 . S
C7 C8 1.359 . S
C7 C9 1.364 . S
C8 C6 1.374 . S
C8 C7 1.359 . S
C8 H34 0.931 . S
C9 C5 1.389 . S
C9 C7 1.364 . S
C9 H35 0.931 . S
C10 O24 1.256 . S
C10 O25 1.257 . S
C11 O26 1.240 . S
C11 O27 1.240 . S
C12 Gd1 2.818 1_655 S
C12 C13 1.510 . S
C12 O28 1.249 . S
C12 O29 1.252 . S
C13 C12 1.510 . S
C13 C14 1.404 . S
C13 C15 1.352 . S
C14 C13 1.404 . S
C14 C18 1.389 . S
C14 H36 0.930 . S
C15 C13 1.352 . S
C15 C17 1.374 . S
C15 H37 0.931 . S
C16 C17 1.359 . S
C16 C18 1.364 . S
C17 C15 1.374 . S
C17 C16 1.359 . S
C17 H38 0.931 . S
C18 C14 1.389 . S
C18 C16 1.364 . S
C18 H39 0.931 . S
C19 O30 1.256 . S
C19 O31 1.257 . S
O20 Gd0 2.377 . S
O20 C2 1.240 . S
O21 Gd1 2.395 . S
O21 C2 1.240 . S
O22 Gd0 2.448 . S
O22 C3 1.249 . S
O23 Gd0 2.506 . S
O23 C3 1.252 . S
O24 Gd0 2.435 . S
O24 C10 1.256 . S
O25 Gd0 2.717 . S
O25 Gd1 2.327 . S
O25 C10 1.257 . S
O26 Gd1 2.377 1_655 S
O26 C11 1.240 . S
O27 Gd0 2.395 1_655 S
O27 C11 1.240 . S
O28 Gd1 2.448 1_655 S
O28 C12 1.249 . S
O29 Gd1 2.506 1_655 S
O29 C12 1.252 . S
O30 Gd1 2.435 . S
O30 C19 1.256 . S
O31 Gd0 2.327 . S
O31 Gd1 2.717 . S
O31 C19 1.257 . S
H32 C5 0.930 . S
H33 C6 0.931 . S
H34 C8 0.931 . S
H35 C9 0.931 . S
H36 C14 0.930 . S
H37 C15 0.931 . S
H38 C17 0.931 . S
H39 C18 0.931 . S
Gd40 C43 2.818 . S
Gd40 O60 2.377 . S
Gd40 O62 2.448 . S
Gd40 O63 2.506 . S
Gd40 O64 2.435 . S
Gd40 O65 2.717 1_565 S
Gd40 O67 2.395 1_565 S
Gd40 O71 2.327 1_565 S
Gd41 C52 2.818 . S
Gd41 O61 2.395 1_545 S
Gd41 O65 2.327 . S
Gd41 O66 2.377 . S
Gd41 O68 2.448 . S
Gd41 O69 2.506 . S
Gd41 O70 2.435 . S
Gd41 O71 2.717 . S
C42 O60 1.240 . S
C42 O61 1.240 . S
C43 Gd40 2.818 . S
C43 C44 1.510 . S
C43 O62 1.249 . S
C43 O63 1.252 . S
C44 C43 1.510 . S
C44 C45 1.404 . S
C44 C46 1.352 . S
C45 C44 1.404 . S
C45 C49 1.389 . S
C45 H72 0.930 . S
C46 C44 1.352 . S
C46 C48 1.374 . S
C46 H73 0.931 . S
C47 C48 1.359 . S
C47 C49 1.364 . S
C48 C46 1.374 . S
C48 C47 1.359 . S
C48 H74 0.931 . S
C49 C45 1.389 . S
C49 C47 1.364 . S
C49 H75 0.931 . S
C50 O64 1.256 1_545 S
C50 O65 1.257 . S
C51 O66 1.240 . S
C51 O67 1.240 . S
C52 Gd41 2.818 . S
C52 C53 1.510 . S
C52 O68 1.249 . S
C52 O69 1.252 . S
C53 C52 1.510 . S
C53 C54 1.404 . S
C53 C55 1.352 . S
C54 C53 1.404 . S
C54 C58 1.389 . S
C54 H76 0.930 . S
C55 C53 1.352 . S
C55 C57 1.374 . S
C55 H77 0.931 . S
C56 C57 1.359 . S
C56 C58 1.364 . S
C57 C55 1.374 . S
C57 C56 1.359 . S
C57 H78 0.931 . S
C58 C54 1.389 . S
C58 C56 1.364 . S
C58 H79 0.931 . S
C59 O70 1.256 . S
C59 O71 1.257 . S
O60 Gd40 2.377 . S
O60 C42 1.240 . S
O61 Gd41 2.395 1_565 S
O61 C42 1.240 . S
O62 Gd40 2.448 . S
O62 C43 1.249 . S
O63 Gd40 2.506 . S
O63 C43 1.252 . S
O64 Gd40 2.435 . S
O64 C50 1.256 1_565 S
O65 Gd40 2.717 1_545 S
O65 Gd41 2.327 . S
O65 C50 1.257 . S
O66 Gd41 2.377 . S
O66 C51 1.240 . S
O67 Gd40 2.395 1_545 S
O67 C51 1.240 . S
O68 Gd41 2.448 . S
O68 C52 1.249 . S
O69 Gd41 2.506 . S
O69 C52 1.252 . S
O70 Gd41 2.435 . S
O70 C59 1.256 . S
O71 Gd40 2.327 1_545 S
O71 Gd41 2.717 . S
O71 C59 1.257 . S
H72 C45 0.930 . S
H73 C46 0.931 . S
H74 C48 0.931 . S
H75 C49 0.931 . S
H76 C54 0.930 . S
H77 C55 0.931 . S
H78 C57 0.931 . S
H79 C58 0.931 . S
Gd80 C83 2.818 . S
Gd80 O100 2.377 . S
Gd80 O102 2.448 . S
Gd80 O103 2.506 . S
Gd80 O104 2.435 . S
Gd80 O105 2.717 . S
Gd80 O107 2.395 . S
Gd80 O111 2.327 . S
Gd81 C92 2.818 . S
Gd81 O101 2.395 . S
Gd81 O105 2.327 . S
Gd81 O106 2.377 . S
Gd81 O108 2.448 . S
Gd81 O109 2.506 . S
Gd81 O110 2.435 . S
Gd81 O111 2.717 . S
C82 O100 1.240 . S
C82 O101 1.240 . S
C83 Gd80 2.818 . S
C83 C84 1.510 . S
C83 O102 1.249 . S
C83 O103 1.252 . S
C84 C83 1.510 . S
C84 C85 1.404 . S
C84 C86 1.352 . S
C85 C84 1.404 . S
C85 C89 1.389 . S
C85 H112 0.930 . S
C86 C84 1.352 . S
C86 C88 1.374 . S
C86 H113 0.931 . S
C87 C88 1.359 . S
C87 C89 1.364 . S
C88 C86 1.374 . S
C88 C87 1.359 . S
C88 H114 0.931 . S
C89 C85 1.389 . S
C89 C87 1.364 . S
C89 H115 0.931 . S
C90 O104 1.256 . S
C90 O105 1.257 . S
C91 O106 1.240 . S
C91 O107 1.240 . S
C92 Gd81 2.818 . S
C92 C93 1.510 . S
C92 O108 1.249 . S
C92 O109 1.252 . S
C93 C92 1.510 . S
C93 C94 1.404 . S
C93 C95 1.352 . S
C94 C93 1.404 . S
C94 C98 1.389 . S
C94 H116 0.930 . S
C95 C93 1.352 . S
C95 C97 1.374 . S
C95 H117 0.931 . S
C96 C97 1.359 . S
C96 C98 1.364 . S
C97 C95 1.374 . S
C97 C96 1.359 . S
C97 H118 0.931 . S
C98 C94 1.389 . S
C98 C96 1.364 . S
C98 H119 0.931 . S
C99 O110 1.256 . S
C99 O111 1.257 . S
O100 Gd80 2.377 . S
O100 C82 1.240 . S
O101 Gd81 2.395 . S
O101 C82 1.240 . S
O102 Gd80 2.448 . S
O102 C83 1.249 . S
O103 Gd80 2.506 . S
O103 C83 1.252 . S
O104 Gd80 2.435 . S
O104 C90 1.256 . S
O105 Gd80 2.717 . S
O105 Gd81 2.327 . S
O105 C90 1.257 . S
O106 Gd81 2.377 . S
O106 C91 1.240 . S
O107 Gd80 2.395 . S
O107 C91 1.240 . S
O108 Gd81 2.448 . S
O108 C92 1.249 . S
O109 Gd81 2.506 . S
O109 C92 1.252 . S
O110 Gd81 2.435 . S
O110 C99 1.256 . S
O111 Gd80 2.327 . S
O111 Gd81 2.717 . S
O111 C99 1.257 . S
H112 C85 0.930 . S
H113 C86 0.931 . S
H114 C88 0.931 . S
H115 C89 0.931 . S
H116 C94 0.930 . S
H117 C95 0.931 . S
H118 C97 0.931 . S
H119 C98 0.931 . S
C120 C121 1.386 . S
C120 C122 1.397 . S
C120 H144 0.931 . S
C121 C120 1.386 . S
C121 C125 1.374 1_545 S
C122 C120 1.397 . S
C122 C123 1.384 . S
C122 H145 0.930 . S
C123 C122 1.384 . S
C123 C124 1.377 1_545 S
C123 C126 1.481 . S
C124 C123 1.377 1_565 S
C124 C125 1.389 . S
C124 H146 0.929 . S
C125 C121 1.374 1_565 S
C125 C124 1.389 . S
C125 H147 0.955 . S
C126 C123 1.481 . S
C126 C127 1.387 . S
C126 C131 1.390 1_545 S
C127 C126 1.387 . S
C127 C128 1.401 . S
C127 H148 0.930 . S
C128 C127 1.401 . S
C128 C129 1.376 . S
C128 C137 1.511 . S
C129 C128 1.376 . S
C129 C130 1.392 1_545 S
C129 H150 0.931 . S
C130 C129 1.392 1_565 S
C130 C131 1.361 . S
C130 C132 1.500 . S
C131 C126 1.390 1_565 S
C131 C130 1.361 . S
C131 H149 0.931 . S
C132 C130 1.500 . S
C132 C133 1.371 . S
C132 C134 1.365 . S
C133 C132 1.371 . S
C133 C143 1.386 . S
C133 H151 0.931 . S
C134 C132 1.365 . S
C134 C135 1.409 . S
C134 H152 0.929 . S
C135 C134 1.409 . S
C135 C136 1.380 . S
C135 H153 0.930 . S
C136 C135 1.380 . S
C136 C143 1.357 . S
C137 C128 1.511 . S
C137 C138 1.341 . S
C137 C139 1.371 . S
C138 C137 1.341 . S
C138 C142 1.394 . S
C138 H154 0.930 . S
C139 C137 1.371 . S
C139 C140 1.392 . S
C139 H155 0.931 . S
C140 C139 1.392 . S
C140 C141 1.331 . S
C140 H158 0.932 . S
C141 C140 1.331 . S
C141 C142 1.336 . S
C142 C138 1.394 . S
C142 C141 1.336 . S
C142 H157 0.929 . S
C143 C133 1.386 . S
C143 C136 1.357 . S
C143 H156 0.928 . S
H144 C120 0.931 . S
H145 C122 0.930 . S
H146 C124 0.929 . S
H147 C125 0.955 . S
H148 C127 0.930 . S
H149 C131 0.931 . S
H150 C129 0.931 . S
H151 C133 0.931 . S
H152 C134 0.929 . S
H153 C135 0.930 . S
H154 C138 0.930 . S
H155 C139 0.931 . S
H156 C143 0.928 . S
H157 C142 0.929 . S
H158 C140 0.932 . S
C159 C160 1.386 . S
C159 C161 1.397 . S
C159 H183 0.931 . S
C160 C159 1.386 . S
C160 C164 1.397 . S
C161 C159 1.397 . S
C161 C162 1.384 . S
C161 H184 0.930 . S
C162 C161 1.384 . S
C162 C163 1.377 . S
C162 C165 1.481 . S
C163 C162 1.377 . S
C163 C164 1.389 . S
C163 H185 0.929 . S
C164 C160 1.397 . S
C164 C163 1.389 . S
C164 H186 0.931 . S
C165 C162 1.481 . S
C165 C166 1.387 . S
C165 C170 1.390 . S
C166 C165 1.387 . S
C166 C167 1.401 . S
C166 H187 0.930 . S
C167 C166 1.401 . S
C167 C168 1.376 . S
C167 C176 1.511 . S
C168 C167 1.376 . S
C168 C169 1.392 . S
C168 H189 0.931 . S
C169 C168 1.392 . S
C169 C170 1.361 . S
C169 C171 1.500 . S
C170 C165 1.390 . S
C170 C169 1.361 . S
C170 H188 0.931 . S
C171 C169 1.500 . S
C171 C172 1.371 . S
C171 C173 1.365 . S
C172 C171 1.371 . S
C172 C182 1.386 . S
C172 H190 0.931 . S
C173 C171 1.365 . S
C173 C174 1.409 . S
C173 H191 0.929 . S
C174 C173 1.409 . S
C174 C175 1.380 . S
C174 H192 0.930 . S
C175 C174 1.380 . S
C175 C182 1.357 . S
C176 C167 1.511 . S
C176 C177 1.341 . S
C176 C178 1.371 . S
C177 C176 1.341 . S
C177 C181 1.394 . S
C177 H193 0.930 . S
C178 C176 1.371 . S
C178 C179 1.392 . S
C178 H194 0.931 . S
C179 C178 1.392 . S
C179 C180 1.331 . S
C179 H197 0.932 . S
C180 C179 1.331 . S
C180 C181 1.336 . S
C181 C177 1.394 . S
C181 C180 1.336 . S
C181 H196 0.929 . S
C182 C172 1.386 . S
C182 C175 1.357 . S
C182 H195 0.928 . S
H183 C159 0.931 . S
H184 C161 0.930 . S
H185 C163 0.929 . S
H186 C164 0.931 . S
H187 C166 0.930 . S
H188 C170 0.931 . S
H189 C168 0.931 . S
H190 C172 0.931 . S
H191 C173 0.929 . S
H192 C174 0.930 . S
H193 C177 0.930 . S
H194 C178 0.931 . S
H195 C182 0.928 . S
H196 C181 0.929 . S
H197 C179 0.932 . S
C198 C199 1.386 . S
C198 C200 1.397 . S
C198 H222 0.931 . S
C199 C198 1.386 . S
C199 C203 1.397 . S
C200 C198 1.397 . S
C200 C201 1.384 . S
C200 H223 0.930 . S
C201 C200 1.384 . S
C201 C202 1.377 . S
C201 C204 1.481 . S
C202 C201 1.377 . S
C202 C203 1.389 . S
C202 H224 0.929 . S
C203 C199 1.397 . S
C203 C202 1.389 . S
C203 H225 0.931 . S
C204 C201 1.481 . S
C204 C205 1.387 . S
C204 C209 1.390 . S
C205 C204 1.387 . S
C205 C206 1.401 . S
C205 H226 0.930 . S
C206 C205 1.401 . S
C206 C207 1.376 . S
C206 C215 1.511 . S
C207 C206 1.376 . S
C207 C208 1.392 . S
C207 H228 0.931 . S
C208 C207 1.392 . S
C208 C209 1.361 . S
C208 C210 1.500 . S
C209 C204 1.390 . S
C209 C208 1.361 . S
C209 H227 0.931 . S
C210 C208 1.500 . S
C210 C211 1.371 . S
C210 C212 1.365 1_455 S
C211 C210 1.371 . S
C211 C221 1.386 1_455 S
C211 H229 0.931 . S
C212 C210 1.365 1_655 S
C212 C213 1.409 . S
C212 H230 0.929 . S
C213 C212 1.409 . S
C213 C214 1.380 . S
C213 H231 0.930 . S
C214 C213 1.380 . S
C214 C221 1.357 . S
C215 C206 1.511 . S
C215 C216 1.341 . S
C215 C217 1.371 . S
C216 C215 1.341 . S
C216 C220 1.394 . S
C216 H232 0.930 . S
C217 C215 1.371 . S
C217 C218 1.392 . S
C217 H233 0.931 . S
C218 C217 1.392 . S
C218 C219 1.331 . S
C218 H236 0.932 . S
C219 C218 1.331 . S
C219 C220 1.336 . S
C220 C216 1.394 . S
C220 C219 1.336 . S
C220 H235 0.929 . S
C221 C211 1.386 1_655 S
C221 C214 1.357 . S
C221 H234 0.928 . S
H222 C198 0.931 . S
H223 C200 0.930 . S
H224 C202 0.929 . S
H225 C203 0.931 . S
H226 C205 0.930 . S
H227 C209 0.931 . S
H228 C207 0.931 . S
H229 C211 0.931 . S
H230 C212 0.929 . S
H231 C213 0.930 . S
H232 C216 0.930 . S
H233 C217 0.931 . S
H234 C221 0.928 . S
H235 C220 0.929 . S
H236 C218 0.932 . S
C237 C238 1.386 . S
C237 C239 1.397 . S
C237 H261 0.931 . S
C238 C237 1.386 . S
C238 C242 1.397 1_655 S
C239 C237 1.397 . S
C239 C240 1.384 . S
C239 H262 0.930 . S
C240 C239 1.384 . S
C240 C241 1.377 1_655 S
C240 C243 1.481 . S
C241 C240 1.377 1_455 S
C241 C242 1.389 . S
C241 H263 0.929 . S
C242 C238 1.397 1_455 S
C242 C241 1.389 . S
C242 H264 0.931 . S
C243 C240 1.481 . S
C243 C244 1.387 . S
C243 C248 1.390 1_655 S
C244 C243 1.387 . S
C244 C245 1.401 . S
C244 H265 0.930 . S
C245 C244 1.401 . S
C245 C246 1.385 . S
C245 C254 1.511 . S
C246 C245 1.385 . S
C246 C247 1.383 1_655 S
C246 H267 0.931 . S
C247 C246 1.383 1_455 S
C247 C248 1.361 . S
C247 C249 1.500 . S
C248 C243 1.390 1_455 S
C248 C247 1.361 . S
C248 H266 0.931 . S
C249 C247 1.500 . S
C249 C250 1.371 . S
C249 C251 1.365 . S
C250 C249 1.371 . S
C250 C260 1.386 . S
C250 H268 0.931 . S
C251 C249 1.365 . S
C251 C252 1.409 . S
C251 H269 0.929 . S
C252 C251 1.409 . S
C252 C253 1.380 . S
C252 H270 0.930 . S
C253 C252 1.380 . S
C253 C260 1.357 . S
C254 C245 1.511 . S
C254 C255 1.341 . S
C254 C256 1.371 . S
C255 C254 1.341 . S
C255 C259 1.394 . S
C255 H271 0.930 . S
C256 C254 1.371 . S
C256 C257 1.392 . S
C256 H272 0.931 . S
C257 C256 1.392 . S
C257 C258 1.331 . S
C257 H275 0.932 . S
C258 C257 1.331 . S
C258 C259 1.336 . S
C259 C255 1.394 . S
C259 C258 1.336 . S
C259 H274 0.929 . S
C260 C250 1.386 . S
C260 C253 1.357 . S
C260 H273 0.928 . S
H261 C237 0.931 . S
H262 C239 0.930 . S
H263 C241 0.929 . S
H264 C242 0.931 . S
H265 C244 0.930 . S
H266 C248 0.931 . S
H267 C246 0.931 . S
H268 C250 0.931 . S
H269 C251 0.929 . S
H270 C252 0.930 . S
H271 C255 0.930 . S
H272 C256 0.931 . S
H273 C260 0.928 . S
H274 C259 0.929 . S
H275 C257 0.932 . S
C276 C277 1.386 . S
C276 C278 1.397 . S
C276 H300 0.931 . S
C277 C276 1.386 . S
C277 C281 1.397 1_565 S
C278 C276 1.397 . S
C278 C279 1.373 1_565 S
C278 H301 0.930 . S
C279 C278 1.373 1_545 S
C279 C280 1.389 . S
C279 C282 1.480 . S
C280 C279 1.389 . S
C280 C281 1.389 . S
C280 H302 0.929 . S
C281 C277 1.397 1_545 S
C281 C280 1.389 . S
C281 H303 0.931 . S
C282 C279 1.480 . S
C282 C283 1.387 1_545 S
C282 C287 1.390 . S
C283 C282 1.387 1_565 S
C283 C284 1.401 . S
C283 H304 0.930 . S
C284 C283 1.401 . S
C284 C285 1.376 1_565 S
C284 C293 1.511 . S
C285 C284 1.376 1_545 S
C285 C286 1.392 . S
C285 H306 0.931 . S
C286 C285 1.392 . S
C286 C287 1.361 . S
C286 C288 1.500 . S
C287 C282 1.390 . S
C287 C286 1.361 . S
C287 H305 0.931 . S
C288 C286 1.500 . S
C288 C289 1.371 . S
C288 C290 1.365 . S
C289 C288 1.371 . S
C289 C299 1.386 . S
C289 H307 0.931 . S
C290 C288 1.365 . S
C290 C291 1.409 . S
C290 H308 0.929 . S
C291 C290 1.409 . S
C291 C292 1.380 . S
C291 H309 0.930 . S
C292 C291 1.380 . S
C292 C299 1.357 . S
C293 C284 1.511 . S
C293 C294 1.341 . S
C293 C295 1.371 . S
C294 C293 1.341 . S
C294 C298 1.394 . S
C294 H310 0.930 . S
C295 C293 1.371 . S
C295 C296 1.392 . S
C295 H311 0.931 . S
C296 C295 1.392 . S
C296 C297 1.331 . S
C296 H314 0.932 . S
C297 C296 1.331 . S
C297 C298 1.336 . S
C298 C294 1.394 . S
C298 C297 1.336 . S
C298 H313 0.929 . S
C299 C289 1.386 . S
C299 C292 1.357 . S
C299 H312 0.928 . S
H300 C276 0.931 . S
H301 C278 0.930 . S
H302 C280 0.929 . S
H303 C281 0.931 . S
H304 C283 0.930 . S
H305 C287 0.931 . S
H306 C285 0.931 . S
H307 C289 0.931 . S
H308 C290 0.929 . S
H309 C291 0.930 . S
H310 C294 0.930 . S
H311 C295 0.931 . S
H312 C299 0.928 . S
H313 C298 0.929 . S
H314 C296 0.932 . S
C315 C316 1.386 . S
C315 C317 1.397 . S
C315 H339 0.931 . S
C316 C315 1.386 . S
C316 C320 1.397 . S
C317 C315 1.397 . S
C317 C318 1.384 . S
C317 H340 0.930 . S
C318 C317 1.384 . S
C318 C319 1.377 . S
C318 C321 1.481 . S
C319 C318 1.377 . S
C319 C320 1.389 . S
C319 H341 0.929 . S
C320 C316 1.397 . S
C320 C319 1.389 . S
C320 H342 0.931 . S
C321 C318 1.481 . S
C321 C322 1.387 . S
C321 C326 1.390 . S
C322 C321 1.387 . S
C322 C323 1.401 . S
C322 H343 0.930 . S
C323 C322 1.401 . S
C323 C324 1.376 . S
C323 C332 1.511 . S
C324 C323 1.376 . S
C324 C325 1.392 . S
C324 H345 0.931 . S
C325 C324 1.392 . S
C325 C326 1.361 . S
C325 C327 1.500 . S
C326 C321 1.390 . S
C326 C325 1.361 . S
C326 H344 0.931 . S
C327 C325 1.500 . S
C327 C328 1.371 . S
C327 C329 1.365 . S
C328 C327 1.371 . S
C328 C338 1.386 . S
C328 H346 0.931 . S
C329 C327 1.365 . S
C329 C330 1.409 . S
C329 H347 0.929 . S
C330 C329 1.409 . S
C330 C331 1.380 . S
C330 H348 0.930 . S
C331 C330 1.380 . S
C331 C338 1.357 . S
C332 C323 1.511 . S
C332 C333 1.341 . S
C332 C334 1.371 . S
C333 C332 1.341 . S
C333 C337 1.394 . S
C333 H349 0.930 . S
C334 C332 1.371 . S
C334 C335 1.392 . S
C334 H350 0.931 . S
C335 C334 1.392 . S
C335 C336 1.331 . S
C335 H353 0.932 . S
C336 C335 1.331 . S
C336 C337 1.336 . S
C337 C333 1.394 . S
C337 C336 1.336 . S
C337 H352 0.929 . S
C338 C328 1.386 . S
C338 C331 1.357 . S
C338 H351 0.928 . S
H339 C315 0.931 . S
H340 C317 0.930 . S
H341 C319 0.929 . S
H342 C320 0.931 . S
H343 C322 0.930 . S
H344 C326 0.931 . S
H345 C324 0.931 . S
H346 C328 0.931 . S
H347 C329 0.929 . S
H348 C330 0.930 . S
H349 C333 0.930 . S
H350 C334 0.931 . S
H351 C338 0.928 . S
H352 C337 0.929 . S
H353 C335 0.932 . S
H354 C372 0.951 . S
H355 C374 0.951 . S
H356 C376 0.950 . S
H357 C377 0.950 . S
H358 C379 0.950 . S
H359 C382 0.950 . S
H360 C383 0.950 . S
H361 C385 0.950 . S
H362 C386 0.950 . S
H363 C387 0.951 . S
H364 C389 0.951 . S
H365 C391 0.950 . S
H366 C392 0.950 . S
H367 C394 0.950 . S
H368 C397 0.950 . S
H369 C398 0.950 . S
H370 C400 0.950 . S
H371 C401 0.950 . S
C372 H354 0.951 . S
C372 C373 1.366 . S
C372 C374 1.388 . S
C373 C372 1.366 . S
C373 C377 1.385 . S
C374 H355 0.951 . S
C374 C372 1.388 . S
C374 C375 1.366 . S
C375 C374 1.366 . S
C375 C376 1.414 . S
C375 C378 1.499 . S
C376 H356 0.950 . S
C376 C375 1.414 . S
C376 C377 1.374 . S
C377 H357 0.950 . S
C377 C373 1.385 . S
C377 C376 1.374 . S
C378 C375 1.499 . S
C378 C379 1.373 . S
C378 C380 1.389 . S
C379 H358 0.950 . S
C379 C378 1.373 . S
C379 C395 1.377 . S
C380 C378 1.389 . S
C380 C381 1.524 . S
C380 C394 1.377 . S
C381 C380 1.524 . S
C381 C382 1.397 . S
C381 C386 1.363 . S
C382 H359 0.950 . S
C382 C381 1.397 . S
C382 C383 1.334 . S
C383 H360 0.950 . S
C383 C382 1.334 . S
C383 C384 1.287 . S
C384 C383 1.287 . S
C384 C385 1.524 . S
C384 H403 0.913 . S
C385 H361 0.950 . S
C385 C384 1.524 . S
C385 C386 1.415 . S
C386 H362 0.950 . S
C386 C381 1.363 . S
C386 C385 1.415 . S
C387 H363 0.951 . S
C387 C388 1.366 . S
C387 C389 1.388 . S
C388 C387 1.366 . S
C388 C392 1.385 . S
C389 H364 0.951 . S
C389 C387 1.388 . S
C389 C390 1.366 . S
C390 C389 1.366 . S
C390 C391 1.414 . S
C390 C393 1.499 . S
C391 H365 0.950 . S
C391 C390 1.414 . S
C391 C392 1.374 . S
C392 H366 0.950 . S
C392 C388 1.385 . S
C392 C391 1.374 . S
C393 C390 1.499 . S
C393 C394 1.373 . S
C393 C395 1.389 . S
C394 H367 0.950 . S
C394 C380 1.377 . S
C394 C393 1.373 . S
C395 C379 1.377 . S
C395 C393 1.389 . S
C395 C396 1.524 . S
C396 C395 1.524 . S
C396 C397 1.397 . S
C396 C401 1.363 . S
C397 H368 0.950 . S
C397 C396 1.397 . S
C397 C398 1.334 . S
C398 H369 0.950 . S
C398 C397 1.334 . S
C398 C399 1.287 . S
C399 C398 1.287 . S
C399 C400 1.524 . S
C399 H402 0.999 . S
C400 H370 0.950 . S
C400 C399 1.524 . S
C400 C401 1.415 . S
C401 H371 0.950 . S
C401 C396 1.363 . S
C401 C400 1.415 . S
H402 C399 0.999 . S
H403 C384 0.913 . S
H404 C422 0.951 . S
H405 C424 0.951 . S
H406 C426 0.950 . S
H407 C427 0.950 . S
H408 C429 0.950 . S
H409 C432 0.950 . S
H410 C433 0.950 . S
H411 C435 0.950 . S
H412 C436 0.950 . S
H413 C437 0.951 . S
H414 C439 0.951 . S
H415 C441 0.950 . S
H416 C442 0.950 . S
H417 C444 0.950 . S
H418 C447 0.950 . S
H419 C448 0.950 . S
H420 C450 0.950 . S
H421 C451 0.950 . S
C422 H404 0.951 . S
C422 C423 1.366 . S
C422 C424 1.388 . S
C423 C422 1.366 . S
C423 C427 1.385 . S
C424 H405 0.951 . S
C424 C422 1.388 . S
C424 C425 1.366 . S
C425 C424 1.366 . S
C425 C426 1.414 . S
C425 C428 1.499 . S
C426 H406 0.950 . S
C426 C425 1.414 . S
C426 C427 1.374 . S
C427 H407 0.950 . S
C427 C423 1.385 . S
C427 C426 1.374 . S
C428 C425 1.499 . S
C428 C429 1.373 . S
C428 C430 1.389 . S
C429 H408 0.950 . S
C429 C428 1.373 . S
C429 C445 1.377 . S
C430 C428 1.389 . S
C430 C431 1.524 . S
C430 C444 1.377 . S
C431 C430 1.524 . S
C431 C432 1.397 . S
C431 C436 1.363 . S
C432 H409 0.950 . S
C432 C431 1.397 . S
C432 C433 1.334 . S
C433 H410 0.950 . S
C433 C432 1.334 . S
C433 C434 1.287 . S
C434 C433 1.287 . S
C434 C435 1.524 . S
C434 H453 0.913 . S
C435 H411 0.950 . S
C435 C434 1.524 . S
C435 C436 1.415 . S
C436 H412 0.950 . S
C436 C431 1.363 . S
C436 C435 1.415 . S
C437 H413 0.951 . S
C437 C438 1.366 . S
C437 C439 1.388 . S
C438 C437 1.366 . S
C438 C442 1.385 . S
C439 H414 0.951 . S
C439 C437 1.388 . S
C439 C440 1.366 . S
C440 C439 1.366 . S
C440 C441 1.414 . S
C440 C443 1.499 . S
C441 H415 0.950 . S
C441 C440 1.414 . S
C441 C442 1.374 . S
C442 H416 0.950 . S
C442 C438 1.385 . S
C442 C441 1.374 . S
C443 C440 1.499 . S
C443 C444 1.373 . S
C443 C445 1.389 . S
C444 H417 0.950 . S
C444 C430 1.377 . S
C444 C443 1.373 . S
C445 C429 1.377 . S
C445 C443 1.389 . S
C445 C446 1.524 . S
C446 C445 1.524 . S
C446 C447 1.397 . S
C446 C451 1.363 . S
C447 H418 0.950 . S
C447 C446 1.397 . S
C447 C448 1.334 . S
C448 H419 0.950 . S
C448 C447 1.334 . S
C448 C449 1.287 . S
C449 C448 1.287 . S
C449 C450 1.524 . S
C449 H452 0.999 . S
C450 H420 0.950 . S
C450 C449 1.524 . S
C450 C451 1.415 . S
C451 H421 0.950 . S
C451 C446 1.363 . S
C451 C450 1.415 . S
H452 C449 0.999 . S
H453 C434 0.913 . S
H454 C472 0.951 . S
H455 C474 0.951 . S
H456 C476 0.950 . S
H457 C477 0.950 . S
H458 C479 0.950 . S
H459 C482 0.950 . S
H460 C483 0.950 . S
H461 C485 0.950 . S
H462 C486 0.950 . S
H463 C487 0.951 . S
H464 C489 0.951 . S
H465 C491 0.950 . S
H466 C492 0.950 . S
H467 C494 0.950 . S
H468 C497 0.950 . S
H469 C498 0.950 . S
H470 C500 0.950 . S
H471 C501 0.950 . S
C472 H454 0.951 . S
C472 C473 1.366 . S
C472 C474 1.388 . S
C473 C472 1.366 . S
C473 C477 1.385 . S
C474 H455 0.951 . S
C474 C472 1.388 . S
C474 C475 1.366 . S
C475 C474 1.366 . S
C475 C476 1.414 . S
C475 C478 1.499 . S
C476 H456 0.950 . S
C476 C475 1.414 . S
C476 C477 1.374 . S
C477 H457 0.950 . S
C477 C473 1.385 . S
C477 C476 1.374 . S
C478 C475 1.499 . S
C478 C479 1.373 . S
C478 C480 1.389 . S
C479 H458 0.950 . S
C479 C478 1.373 . S
C479 C495 1.377 . S
C480 C478 1.389 . S
C480 C481 1.524 . S
C480 C494 1.377 . S
C481 C480 1.524 . S
C481 C482 1.397 . S
C481 C486 1.363 . S
C482 H459 0.950 . S
C482 C481 1.397 . S
C482 C483 1.334 . S
C483 H460 0.950 . S
C483 C482 1.334 . S
C483 C484 1.287 . S
C484 C483 1.287 . S
C484 C485 1.524 . S
C484 H503 0.913 . S
C485 H461 0.950 . S
C485 C484 1.524 . S
C485 C486 1.415 . S
C486 H462 0.950 . S
C486 C481 1.363 . S
C486 C485 1.415 . S
C487 H463 0.951 . S
C487 C488 1.366 . S
C487 C489 1.388 . S
C488 C487 1.366 . S
C488 C492 1.385 . S
C489 H464 0.951 . S
C489 C487 1.388 . S
C489 C490 1.366 . S
C490 C489 1.366 . S
C490 C491 1.414 . S
C490 C493 1.499 . S
C491 H465 0.950 . S
C491 C490 1.414 . S
C491 C492 1.374 . S
C492 H466 0.950 . S
C492 C488 1.385 . S
C492 C491 1.374 . S
C493 C490 1.499 . S
C493 C494 1.373 . S
C493 C495 1.389 . S
C494 H467 0.950 . S
C494 C480 1.377 . S
C494 C493 1.373 . S
C495 C479 1.377 . S
C495 C493 1.389 . S
C495 C496 1.524 . S
C496 C495 1.524 . S
C496 C497 1.397 . S
C496 C501 1.363 . S
C497 H468 0.950 . S
C497 C496 1.397 . S
C497 C498 1.334 . S
C498 H469 0.950 . S
C498 C497 1.334 . S
C498 C499 1.287 . S
C499 C498 1.287 . S
C499 C500 1.524 . S
C499 H502 0.999 . S
C500 H470 0.950 . S
C500 C499 1.524 . S
C500 C501 1.415 . S
C501 H471 0.950 . S
C501 C496 1.363 . S
C501 C500 1.415 . S
H502 C499 0.999 . S
H503 C484 0.913 . S
H504 C522 0.951 . S
H505 C524 0.951 . S
H506 C526 0.950 . S
H507 C527 0.950 . S
H508 C529 0.950 . S
H509 C532 0.950 . S
H510 C533 0.950 . S
H511 C535 0.950 . S
H512 C536 0.950 . S
H513 C537 0.951 . S
H514 C539 0.951 . S
H515 C541 0.950 . S
H516 C542 0.950 . S
H517 C544 0.950 . S
H518 C547 0.950 . S
H519 C548 0.950 . S
H520 C550 0.950 . S
H521 C551 0.950 . S
C522 H504 0.951 . S
C522 C523 1.366 . S
C522 C524 1.388 . S
C523 C522 1.366 . S
C523 C527 1.385 . S
C524 H505 0.951 . S
C524 C522 1.388 . S
C524 C525 1.366 . S
C525 C524 1.366 . S
C525 C526 1.414 . S
C525 C528 1.499 . S
C526 H506 0.950 . S
C526 C525 1.414 . S
C526 C527 1.374 . S
C527 H507 0.950 . S
C527 C523 1.385 . S
C527 C526 1.374 . S
C528 C525 1.499 . S
C528 C529 1.373 . S
C528 C530 1.389 . S
C529 H508 0.950 . S
C529 C528 1.373 . S
C529 C545 1.377 . S
C530 C528 1.389 . S
C530 C531 1.524 . S
C530 C544 1.377 . S
C531 C530 1.524 . S
C531 C532 1.397 . S
C531 C536 1.363 . S
C532 H509 0.950 . S
C532 C531 1.397 . S
C532 C533 1.334 . S
C533 H510 0.950 . S
C533 C532 1.334 . S
C533 C534 1.287 . S
C534 C533 1.287 . S
C534 C535 1.524 . S
C534 H553 0.913 . S
C535 H511 0.950 . S
C535 C534 1.524 . S
C535 C536 1.415 . S
C536 H512 0.950 . S
C536 C531 1.363 . S
C536 C535 1.415 . S
C537 H513 0.951 . S
C537 C538 1.366 . S
C537 C539 1.388 . S
C538 C537 1.366 . S
C538 C542 1.385 . S
C539 H514 0.951 . S
C539 C537 1.388 . S
C539 C540 1.366 . S
C540 C539 1.366 . S
C540 C541 1.414 . S
C540 C543 1.499 . S
C541 H515 0.950 . S
C541 C540 1.414 . S
C541 C542 1.374 . S
C542 H516 0.950 . S
C542 C538 1.385 . S
C542 C541 1.374 . S
C543 C540 1.499 . S
C543 C544 1.373 . S
C543 C545 1.389 . S
C544 H517 0.950 . S
C544 C530 1.377 . S
C544 C543 1.373 . S
C545 C529 1.377 . S
C545 C543 1.389 . S
C545 C546 1.524 . S
C546 C545 1.524 . S
C546 C547 1.397 . S
C546 C551 1.363 . S
C547 H518 0.950 . S
C547 C546 1.397 . S
C547 C548 1.334 . S
C548 H519 0.950 . S
C548 C547 1.334 . S
C548 C549 1.287 . S
C549 C548 1.287 . S
C549 C550 1.524 . S
C549 H552 0.999 . S
C550 H520 0.950 . S
C550 C549 1.524 . S
C550 C551 1.415 . S
C551 H521 0.950 . S
C551 C546 1.363 . S
C551 C550 1.415 . S
H552 C549 0.999 . S
H553 C534 0.913 . S
H554 C572 0.951 . S
H555 C574 0.951 . S
H556 C576 0.950 . S
H557 C577 0.950 . S
H558 C579 0.950 . S
H559 C582 0.950 . S
H560 C583 0.950 . S
H561 C585 0.950 . S
H562 C586 0.950 . S
H563 C587 0.951 . S
H564 C589 0.951 . S
H565 C591 0.950 . S
H566 C592 0.950 . S
H567 C594 0.950 . S
H568 C597 0.950 . S
H569 C598 0.950 . S
H570 C600 0.950 . S
H571 C601 0.950 . S
C572 H554 0.951 . S
C572 C573 1.366 . S
C572 C574 1.388 . S
C573 C572 1.366 . S
C573 C577 1.385 . S
C574 H555 0.951 . S
C574 C572 1.388 . S
C574 C575 1.366 . S
C575 C574 1.366 . S
C575 C576 1.414 . S
C575 C578 1.499 . S
C576 H556 0.950 . S
C576 C575 1.414 . S
C576 C577 1.374 . S
C577 H557 0.950 . S
C577 C573 1.385 . S
C577 C576 1.374 . S
C578 C575 1.499 . S
C578 C579 1.373 . S
C578 C580 1.389 . S
C579 H558 0.950 . S
C579 C578 1.373 . S
C579 C595 1.377 . S
C580 C578 1.389 . S
C580 C581 1.524 . S
C580 C594 1.377 . S
C581 C580 1.524 . S
C581 C582 1.397 . S
C581 C586 1.363 . S
C582 H559 0.950 . S
C582 C581 1.397 . S
C582 C583 1.334 . S
C583 H560 0.950 . S
C583 C582 1.334 . S
C583 C584 1.287 . S
C584 C583 1.287 . S
C584 C585 1.524 . S
C584 H603 0.913 . S
C585 H561 0.950 . S
C585 C584 1.524 . S
C585 C586 1.415 . S
C586 H562 0.950 . S
C586 C581 1.363 . S
C586 C585 1.415 . S
C587 H563 0.951 . S
C587 C588 1.366 . S
C587 C589 1.388 . S
C588 C587 1.366 . S
C588 C592 1.385 . S
C589 H564 0.951 . S
C589 C587 1.388 . S
C589 C590 1.366 . S
C590 C589 1.366 . S
C590 C591 1.414 . S
C590 C593 1.499 . S
C591 H565 0.950 . S
C591 C590 1.414 . S
C591 C592 1.374 . S
C592 H566 0.950 . S
C592 C588 1.385 . S
C592 C591 1.374 . S
C593 C590 1.499 . S
C593 C594 1.373 . S
C593 C595 1.389 . S
C594 H567 0.950 . S
C594 C580 1.377 . S
C594 C593 1.373 . S
C595 C579 1.377 . S
C595 C593 1.389 . S
C595 C596 1.524 . S
C596 C595 1.524 . S
C596 C597 1.397 . S
C596 C601 1.363 . S
C597 H568 0.950 . S
C597 C596 1.397 . S
C597 C598 1.334 . S
C598 H569 0.950 . S
C598 C597 1.334 . S
C598 C599 1.287 . S
C599 C598 1.287 . S
C599 C600 1.524 . S
C599 H602 0.999 . S
C600 H570 0.950 . S
C600 C599 1.524 . S
C600 C601 1.415 . S
C601 H571 0.950 . S
C601 C596 1.363 . S
C601 C600 1.415 . S
H602 C599 0.999 . S
H603 C584 0.913 . S
H604 C622 0.951 . S
H605 C624 0.951 . S
H606 C626 0.950 . S
H607 C627 0.950 . S
H608 C629 0.950 . S
H609 C632 0.950 . S
H610 C633 0.950 . S
H611 C635 0.950 . S
H612 C636 0.950 . S
H613 C637 0.951 . S
H614 C639 0.951 . S
H615 C641 0.950 . S
H616 C642 0.950 . S
H617 C644 0.950 . S
H618 C647 0.950 . S
H619 C648 0.950 . S
H620 C650 0.950 . S
H621 C651 0.950 . S
C622 H604 0.951 . S
C622 C623 1.366 . S
C622 C624 1.388 . S
C623 C622 1.366 . S
C623 C627 1.385 . S
C624 H605 0.951 . S
C624 C622 1.388 . S
C624 C625 1.366 . S
C625 C624 1.366 . S
C625 C626 1.414 . S
C625 C628 1.499 . S
C626 H606 0.950 . S
C626 C625 1.414 . S
C626 C627 1.374 . S
C627 H607 0.950 . S
C627 C623 1.385 . S
C627 C626 1.374 . S
C628 C625 1.499 . S
C628 C629 1.373 . S
C628 C630 1.389 . S
C629 H608 0.950 . S
C629 C628 1.373 . S
C629 C645 1.377 . S
C630 C628 1.389 . S
C630 C631 1.524 . S
C630 C644 1.377 . S
C631 C630 1.524 . S
C631 C632 1.397 . S
C631 C636 1.363 . S
C632 H609 0.950 . S
C632 C631 1.397 . S
C632 C633 1.334 . S
C633 H610 0.950 . S
C633 C632 1.334 . S
C633 C634 1.287 . S
C634 C633 1.287 . S
C634 C635 1.524 . S
C634 H653 0.913 . S
C635 H611 0.950 . S
C635 C634 1.524 . S
C635 C636 1.415 . S
C636 H612 0.950 . S
C636 C631 1.363 . S
C636 C635 1.415 . S
C637 H613 0.951 . S
C637 C638 1.366 . S
C637 C639 1.388 . S
C638 C637 1.366 . S
C638 C642 1.385 . S
C639 H614 0.951 . S
C639 C637 1.388 . S
C639 C640 1.366 . S
C640 C639 1.366 . S
C640 C641 1.414 . S
C640 C643 1.499 . S
C641 H615 0.950 . S
C641 C640 1.414 . S
C641 C642 1.374 . S
C642 H616 0.950 . S
C642 C638 1.385 . S
C642 C641 1.374 . S
C643 C640 1.499 . S
C643 C644 1.373 . S
C643 C645 1.389 . S
C644 H617 0.950 . S
C644 C630 1.377 . S
C644 C643 1.373 . S
C645 C629 1.377 . S
C645 C643 1.389 . S
C645 C646 1.524 . S
C646 C645 1.524 . S
C646 C647 1.397 . S
C646 C651 1.363 . S
C647 H618 0.950 . S
C647 C646 1.397 . S
C647 C648 1.334 . S
C648 H619 0.950 . S
C648 C647 1.334 . S
C648 C649 1.287 . S
C649 C648 1.287 . S
C649 C650 1.524 . S
C649 H652 0.999 . S
C650 H620 0.950 . S
C650 C649 1.524 . S
C650 C651 1.415 . S
C651 H621 0.950 . S
C651 C646 1.363 . S
C651 C650 1.415 . S
H652 C649 0.999 . S
H653 C634 0.913 . S
H654 C672 0.951 . S
H655 C674 0.951 . S
H656 C676 0.950 . S
H657 C677 0.950 . S
H658 C679 0.950 . S
H659 C682 0.950 . S
H660 C683 0.950 . S
H661 C685 0.950 . S
H662 C686 0.950 . S
H663 C687 0.951 . S
H664 C689 0.951 . S
H665 C691 0.950 . S
H666 C692 0.950 . S
H667 C694 0.950 . S
H668 C697 0.950 . S
H669 C698 0.950 . S
H670 C700 0.950 . S
H671 C701 0.950 . S
C672 H654 0.951 . S
C672 C673 1.366 . S
C672 C674 1.388 . S
C673 C672 1.366 . S
C673 C677 1.385 . S
C674 H655 0.951 . S
C674 C672 1.388 . S
C674 C675 1.366 . S
C675 C674 1.366 . S
C675 C676 1.414 . S
C675 C678 1.499 . S
C676 H656 0.950 . S
C676 C675 1.414 . S
C676 C677 1.374 . S
C677 H657 0.950 . S
C677 C673 1.385 . S
C677 C676 1.374 . S
C678 C675 1.499 . S
C678 C679 1.373 . S
C678 C680 1.389 . S
C679 H658 0.950 . S
C679 C678 1.373 . S
C679 C695 1.377 . S
C680 C678 1.389 . S
C680 C681 1.524 . S
C680 C694 1.377 . S
C681 C680 1.524 . S
C681 C682 1.397 . S
C681 C686 1.363 . S
C682 H659 0.950 . S
C682 C681 1.397 . S
C682 C683 1.334 . S
C683 H660 0.950 . S
C683 C682 1.334 . S
C683 C684 1.287 . S
C684 C683 1.287 . S
C684 C685 1.524 . S
C684 H703 0.913 . S
C685 H661 0.950 . S
C685 C684 1.524 . S
C685 C686 1.415 . S
C686 H662 0.950 . S
C686 C681 1.363 . S
C686 C685 1.415 . S
C687 H663 0.951 . S
C687 C688 1.366 . S
C687 C689 1.388 . S
C688 C687 1.366 . S
C688 C692 1.385 . S
C689 H664 0.951 . S
C689 C687 1.388 . S
C689 C690 1.366 . S
C690 C689 1.366 . S
C690 C691 1.414 . S
C690 C693 1.499 . S
C691 H665 0.950 . S
C691 C690 1.414 . S
C691 C692 1.374 . S
C692 H666 0.950 . S
C692 C688 1.385 . S
C692 C691 1.374 . S
C693 C690 1.499 . S
C693 C694 1.373 . S
C693 C695 1.389 . S
C694 H667 0.950 . S
C694 C680 1.377 . S
C694 C693 1.373 . S
C695 C679 1.377 . S
C695 C693 1.389 . S
C695 C696 1.524 . S
C696 C695 1.524 . S
C696 C697 1.397 . S
C696 C701 1.363 . S
C697 H668 0.950 . S
C697 C696 1.397 . S
C697 C698 1.334 . S
C698 H669 0.950 . S
C698 C697 1.334 . S
C698 C699 1.287 . S
C699 C698 1.287 . S
C699 C700 1.524 . S
C699 H702 0.999 . S
C700 H670 0.950 . S
C700 C699 1.524 . S
C700 C701 1.415 . S
C701 H671 0.950 . S
C701 C696 1.363 . S
C701 C700 1.415 . S
H702 C699 0.999 . S
H703 C684 0.913 . S
H704 C722 0.951 . S
H705 C724 0.951 . S
H706 C726 0.950 . S
H707 C727 0.950 . S
H708 C729 0.950 . S
H709 C732 0.950 . S
H710 C733 0.950 . S
H711 C735 0.950 . S
H712 C736 0.950 . S
H713 C737 0.951 . S
H714 C739 0.951 . S
H715 C741 0.950 . S
H716 C742 0.950 . S
H717 C744 0.950 . S
H718 C747 0.950 . S
H719 C748 0.950 . S
H720 C750 0.950 . S
H721 C751 0.950 . S
C722 H704 0.951 . S
C722 C723 1.366 . S
C722 C724 1.388 . S
C723 C722 1.366 . S
C723 C727 1.385 . S
C724 H705 0.951 . S
C724 C722 1.388 . S
C724 C725 1.366 . S
C725 C724 1.366 . S
C725 C726 1.414 . S
C725 C728 1.499 . S
C726 H706 0.950 . S
C726 C725 1.414 . S
C726 C727 1.374 . S
C727 H707 0.950 . S
C727 C723 1.385 . S
C727 C726 1.374 . S
C728 C725 1.499 . S
C728 C729 1.373 . S
C728 C730 1.389 . S
C729 H708 0.950 . S
C729 C728 1.373 . S
C729 C745 1.377 . S
C730 C728 1.389 . S
C730 C731 1.524 . S
C730 C744 1.377 . S
C731 C730 1.524 . S
C731 C732 1.397 . S
C731 C736 1.363 . S
C732 H709 0.950 . S
C732 C731 1.397 . S
C732 C733 1.334 . S
C733 H710 0.950 . S
C733 C732 1.334 . S
C733 C734 1.287 . S
C734 C733 1.287 . S
C734 C735 1.524 . S
C734 H753 0.913 . S
C735 H711 0.950 . S
C735 C734 1.524 . S
C735 C736 1.415 . S
C736 H712 0.950 . S
C736 C731 1.363 . S
C736 C735 1.415 . S
C737 H713 0.951 . S
C737 C738 1.366 . S
C737 C739 1.388 . S
C738 C737 1.366 . S
C738 C742 1.385 . S
C739 H714 0.951 . S
C739 C737 1.388 . S
C739 C740 1.366 . S
C740 C739 1.366 . S
C740 C741 1.414 . S
C740 C743 1.499 . S
C741 H715 0.950 . S
C741 C740 1.414 . S
C741 C742 1.374 . S
C742 H716 0.950 . S
C742 C738 1.385 . S
C742 C741 1.374 . S
C743 C740 1.499 . S
C743 C744 1.373 . S
C743 C745 1.389 . S
C744 H717 0.950 . S
C744 C730 1.377 . S
C744 C743 1.373 . S
C745 C729 1.377 . S
C745 C743 1.389 . S
C745 C746 1.524 . S
C746 C745 1.524 . S
C746 C747 1.397 . S
C746 C751 1.363 . S
C747 H718 0.950 . S
C747 C746 1.397 . S
C747 C748 1.334 . S
C748 H719 0.950 . S
C748 C747 1.334 . S
C748 C749 1.287 . S
C749 C748 1.287 . S
C749 C750 1.524 . S
C749 H752 0.999 . S
C750 H720 0.950 . S
C750 C749 1.524 . S
C750 C751 1.415 . S
C751 H721 0.950 . S
C751 C746 1.363 . S
C751 C750 1.415 . S
H752 C749 0.999 . S
H753 C734 0.913 . S
H754 C772 0.951 . S
H755 C774 0.951 . S
H756 C776 0.950 . S
H757 C777 0.950 . S
H758 C779 0.950 . S
H759 C782 0.950 . S
H760 C783 0.950 . S
H761 C785 0.950 . S
H762 C786 0.950 . S
H763 C787 0.951 . S
H764 C789 0.951 . S
H765 C791 0.950 . S
H766 C792 0.950 . S
H767 C794 0.950 . S
H768 C797 0.950 . S
H769 C798 0.950 . S
H770 C800 0.950 . S
H771 C801 0.950 . S
C772 H754 0.951 . S
C772 C773 1.366 . S
C772 C774 1.388 . S
C773 C772 1.366 . S
C773 C777 1.385 . S
C774 H755 0.951 . S
C774 C772 1.388 . S
C774 C775 1.366 . S
C775 C774 1.366 . S
C775 C776 1.414 . S
C775 C778 1.499 . S
C776 H756 0.950 . S
C776 C775 1.414 . S
C776 C777 1.374 . S
C777 H757 0.950 . S
C777 C773 1.385 . S
C777 C776 1.374 . S
C778 C775 1.499 . S
C778 C779 1.373 . S
C778 C780 1.389 . S
C779 H758 0.950 . S
C779 C778 1.373 . S
C779 C795 1.377 . S
C780 C778 1.389 . S
C780 C781 1.524 . S
C780 C794 1.377 . S
C781 C780 1.524 . S
C781 C782 1.397 . S
C781 C786 1.363 . S
C782 H759 0.950 . S
C782 C781 1.397 . S
C782 C783 1.334 . S
C783 H760 0.950 . S
C783 C782 1.334 . S
C783 C784 1.287 . S
C784 C783 1.287 . S
C784 C785 1.524 . S
C784 H803 0.913 . S
C785 H761 0.950 . S
C785 C784 1.524 . S
C785 C786 1.415 . S
C786 H762 0.950 . S
C786 C781 1.363 . S
C786 C785 1.415 . S
C787 H763 0.951 . S
C787 C788 1.366 . S
C787 C789 1.388 . S
C788 C787 1.366 . S
C788 C792 1.385 . S
C789 H764 0.951 . S
C789 C787 1.388 . S
C789 C790 1.366 . S
C790 C789 1.366 . S
C790 C791 1.414 . S
C790 C793 1.499 . S
C791 H765 0.950 . S
C791 C790 1.414 . S
C791 C792 1.374 . S
C792 H766 0.950 . S
C792 C788 1.385 . S
C792 C791 1.374 . S
C793 C790 1.499 . S
C793 C794 1.373 . S
C793 C795 1.389 . S
C794 H767 0.950 . S
C794 C780 1.377 . S
C794 C793 1.373 . S
C795 C779 1.377 . S
C795 C793 1.389 . S
C795 C796 1.524 . S
C796 C795 1.524 . S
C796 C797 1.397 . S
C796 C801 1.363 . S
C797 H768 0.950 . S
C797 C796 1.397 . S
C797 C798 1.334 . S
C798 H769 0.950 . S
C798 C797 1.334 . S
C798 C799 1.287 . S
C799 C798 1.287 . S
C799 C800 1.524 . S
C799 H802 0.999 . S
C800 H770 0.950 . S
C800 C799 1.524 . S
C800 C801 1.415 . S
C801 H771 0.950 . S
C801 C796 1.363 . S
C801 C800 1.415 . S
H802 C799 0.999 . S
H803 C784 0.913 . S
H804 C822 0.951 . S
H805 C824 0.951 . S
H806 C826 0.950 . S
H807 C827 0.950 . S
H808 C829 0.950 . S
H809 C832 0.950 . S
H810 C833 0.950 . S
H811 C835 0.950 . S
H812 C836 0.950 . S
H813 C837 0.951 . S
H814 C839 0.951 . S
H815 C841 0.950 . S
H816 C842 0.950 . S
H817 C844 0.950 . S
H818 C847 0.950 . S
H819 C848 0.950 . S
H820 C850 0.950 . S
H821 C851 0.950 . S
C822 H804 0.951 . S
C822 C823 1.366 . S
C822 C824 1.388 . S
C823 C822 1.366 . S
C823 C827 1.385 . S
C824 H805 0.951 . S
C824 C822 1.388 . S
C824 C825 1.366 . S
C825 C824 1.366 . S
C825 C826 1.414 . S
C825 C828 1.499 . S
C826 H806 0.950 . S
C826 C825 1.414 . S
C826 C827 1.374 . S
C827 H807 0.950 . S
C827 C823 1.385 . S
C827 C826 1.374 . S
C828 C825 1.499 . S
C828 C829 1.373 . S
C828 C830 1.389 . S
C829 H808 0.950 . S
C829 C828 1.373 . S
C829 C845 1.377 . S
C830 C828 1.389 . S
C830 C831 1.524 . S
C830 C844 1.377 . S
C831 C830 1.524 . S
C831 C832 1.397 . S
C831 C836 1.363 . S
C832 H809 0.950 . S
C832 C831 1.397 . S
C832 C833 1.334 . S
C833 H810 0.950 . S
C833 C832 1.334 . S
C833 C834 1.287 . S
C834 C833 1.287 . S
C834 C835 1.524 . S
C834 H853 0.913 . S
C835 H811 0.950 . S
C835 C834 1.524 . S
C835 C836 1.415 . S
C836 H812 0.950 . S
C836 C831 1.363 . S
C836 C835 1.415 . S
C837 H813 0.951 . S
C837 C838 1.366 . S
C837 C839 1.388 . S
C838 C837 1.366 . S
C838 C842 1.385 . S
C839 H814 0.951 . S
C839 C837 1.388 . S
C839 C840 1.366 . S
C840 C839 1.366 . S
C840 C841 1.414 . S
C840 C843 1.499 . S
C841 H815 0.950 . S
C841 C840 1.414 . S
C841 C842 1.374 . S
C842 H816 0.950 . S
C842 C838 1.385 . S
C842 C841 1.374 . S
C843 C840 1.499 . S
C843 C844 1.373 . S
C843 C845 1.389 . S
C844 H817 0.950 . S
C844 C830 1.377 . S
C844 C843 1.373 . S
C845 C829 1.377 . S
C845 C843 1.389 . S
C845 C846 1.524 . S
C846 C845 1.524 . S
C846 C847 1.397 . S
C846 C851 1.363 . S
C847 H818 0.950 . S
C847 C846 1.397 . S
C847 C848 1.334 . S
C848 H819 0.950 . S
C848 C847 1.334 . S
C848 C849 1.287 . S
C849 C848 1.287 . S
C849 C850 1.524 . S
C849 H852 0.999 . S
C850 H820 0.950 . S
C850 C849 1.524 . S
C850 C851 1.415 . S
C851 H821 0.950 . S
C851 C846 1.363 . S
C851 C850 1.415 . S
H852 C849 0.999 . S
H853 C834 0.913 . S
H854 C872 0.951 . S
H855 C874 0.951 . S
H856 C876 0.950 . S
H857 C877 0.950 . S
H858 C879 0.950 . S
H859 C882 0.950 . S
H860 C883 0.950 . S
H861 C885 0.950 . S
H862 C886 0.950 . S
H863 C887 0.951 . S
H864 C889 0.951 . S
H865 C891 0.950 . S
H866 C892 0.950 . S
H867 C894 0.950 . S
H868 C897 0.950 . S
H869 C898 0.950 . S
H870 C900 0.950 . S
H871 C901 0.950 . S
C872 H854 0.951 . S
C872 C873 1.366 . S
C872 C874 1.388 . S
C873 C872 1.366 . S
C873 C877 1.385 . S
C874 H855 0.951 . S
C874 C872 1.388 . S
C874 C875 1.366 . S
C875 C874 1.366 . S
C875 C876 1.414 . S
C875 C878 1.499 . S
C876 H856 0.950 . S
C876 C875 1.414 . S
C876 C877 1.374 . S
C877 H857 0.950 . S
C877 C873 1.385 . S
C877 C876 1.374 . S
C878 C875 1.499 . S
C878 C879 1.373 . S
C878 C880 1.389 . S
C879 H858 0.950 . S
C879 C878 1.373 . S
C879 C895 1.377 . S
C880 C878 1.389 . S
C880 C881 1.524 . S
C880 C894 1.377 . S
C881 C880 1.524 . S
C881 C882 1.397 . S
C881 C886 1.363 . S
C882 H859 0.950 . S
C882 C881 1.397 . S
C882 C883 1.334 . S
C883 H860 0.950 . S
C883 C882 1.334 . S
C883 C884 1.287 . S
C884 C883 1.287 . S
C884 C885 1.524 . S
C884 H903 0.913 . S
C885 H861 0.950 . S
C885 C884 1.524 . S
C885 C886 1.415 . S
C886 H862 0.950 . S
C886 C881 1.363 . S
C886 C885 1.415 . S
C887 H863 0.951 . S
C887 C888 1.366 . S
C887 C889 1.388 . S
C888 C887 1.366 . S
C888 C892 1.385 . S
C889 H864 0.951 . S
C889 C887 1.388 . S
C889 C890 1.366 . S
C890 C889 1.366 . S
C890 C891 1.414 . S
C890 C893 1.499 . S
C891 H865 0.950 . S
C891 C890 1.414 . S
C891 C892 1.374 . S
C892 H866 0.950 . S
C892 C888 1.385 . S
C892 C891 1.374 . S
C893 C890 1.499 . S
C893 C894 1.373 . S
C893 C895 1.389 . S
C894 H867 0.950 . S
C894 C880 1.377 . S
C894 C893 1.373 . S
C895 C879 1.377 . S
C895 C893 1.389 . S
C895 C896 1.524 . S
C896 C895 1.524 . S
C896 C897 1.397 . S
C896 C901 1.363 . S
C897 H868 0.950 . S
C897 C896 1.397 . S
C897 C898 1.334 . S
C898 H869 0.950 . S
C898 C897 1.334 . S
C898 C899 1.287 . S
C899 C898 1.287 . S
C899 C900 1.524 . S
C899 H902 0.999 . S
C900 H870 0.950 . S
C900 C899 1.524 . S
C900 C901 1.415 . S
C901 H871 0.950 . S
C901 C896 1.363 . S
C901 C900 1.415 . S
H902 C899 0.999 . S
H903 C884 0.913 . S
H904 C922 0.951 . S
H905 C924 0.951 . S
H906 C926 0.950 . S
H907 C927 0.950 . S
H908 C929 0.950 . S
H909 C932 0.950 . S
H910 C933 0.950 . S
H911 C935 0.950 . S
H912 C936 0.950 . S
H913 C937 0.951 . S
H914 C939 0.951 . S
H915 C941 0.950 . S
H916 C942 0.950 . S
H917 C944 0.950 . S
H918 C947 0.950 . S
H919 C948 0.950 . S
H920 C950 0.950 . S
H921 C951 0.950 . S
C922 H904 0.951 . S
C922 C923 1.366 . S
C922 C924 1.388 . S
C923 C922 1.366 . S
C923 C927 1.385 . S
C924 H905 0.951 . S
C924 C922 1.388 . S
C924 C925 1.366 . S
C925 C924 1.366 . S
C925 C926 1.414 . S
C925 C928 1.499 . S
C926 H906 0.950 . S
C926 C925 1.414 . S
C926 C927 1.374 . S
C927 H907 0.950 . S
C927 C923 1.385 . S
C927 C926 1.374 . S
C928 C925 1.499 . S
C928 C929 1.373 . S
C928 C930 1.389 . S
C929 H908 0.950 . S
C929 C928 1.373 . S
C929 C945 1.377 . S
C930 C928 1.389 . S
C930 C931 1.524 . S
C930 C944 1.377 . S
C931 C930 1.524 . S
C931 C932 1.397 . S
C931 C936 1.363 . S
C932 H909 0.950 . S
C932 C931 1.397 . S
C932 C933 1.334 . S
C933 H910 0.950 . S
C933 C932 1.334 . S
C933 C934 1.287 . S
C934 C933 1.287 . S
C934 C935 1.524 . S
C934 H953 0.913 . S
C935 H911 0.950 . S
C935 C934 1.524 . S
C935 C936 1.415 . S
C936 H912 0.950 . S
C936 C931 1.363 . S
C936 C935 1.415 . S
C937 H913 0.951 . S
C937 C938 1.366 . S
C937 C939 1.388 . S
C938 C937 1.366 . S
C938 C942 1.385 . S
C939 H914 0.951 . S
C939 C937 1.388 . S
C939 C940 1.366 . S
C940 C939 1.366 . S
C940 C941 1.414 . S
C940 C943 1.499 . S
C941 H915 0.950 . S
C941 C940 1.414 . S
C941 C942 1.374 . S
C942 H916 0.950 . S
C942 C938 1.385 . S
C942 C941 1.374 . S
C943 C940 1.499 . S
C943 C944 1.373 . S
C943 C945 1.389 . S
C944 H917 0.950 . S
C944 C930 1.377 . S
C944 C943 1.373 . S
C945 C929 1.377 . S
C945 C943 1.389 . S
C945 C946 1.524 . S
C946 C945 1.524 . S
C946 C947 1.397 . S
C946 C951 1.363 . S
C947 H918 0.950 . S
C947 C946 1.397 . S
C947 C948 1.334 . S
C948 H919 0.950 . S
C948 C947 1.334 . S
C948 C949 1.287 . S
C949 C948 1.287 . S
C949 C950 1.524 . S
C949 H952 0.999 . S
C950 H920 0.950 . S
C950 C949 1.524 . S
C950 C951 1.415 . S
C951 H921 0.950 . S
C951 C946 1.363 . S
C951 C950 1.415 . S
H952 C949 0.999 . S
H953 C934 0.913 . S
H954 C972 0.951 . S
H955 C974 0.951 . S
H956 C976 0.950 . S
H957 C977 0.950 . S
H958 C979 0.950 . S
H959 C982 0.950 . S
H960 C983 0.950 . S
H961 C985 0.950 . S
H962 C986 0.950 . S
H963 C987 0.951 . S
H964 C989 0.951 . S
H965 C991 0.950 . S
H966 C992 0.950 . S
H967 C994 0.950 . S
H968 C997 0.950 . S
H969 C998 0.950 . S
H970 C1000 0.950 . S
H971 C1001 0.950 . S
C972 H954 0.951 . S
C972 C973 1.366 . S
C972 C974 1.388 . S
C973 C972 1.366 . S
C973 C977 1.385 . S
C974 H955 0.951 . S
C974 C972 1.388 . S
C974 C975 1.366 . S
C975 C974 1.366 . S
C975 C976 1.414 . S
C975 C978 1.499 . S
C976 H956 0.950 . S
C976 C975 1.414 . S
C976 C977 1.374 . S
C977 H957 0.950 . S
C977 C973 1.385 . S
C977 C976 1.374 . S
C978 C975 1.499 . S
C978 C979 1.373 . S
C978 C980 1.389 . S
C979 H958 0.950 . S
C979 C978 1.373 . S
C979 C995 1.377 . S
C980 C978 1.389 . S
C980 C981 1.524 . S
C980 C994 1.377 . S
C981 C980 1.524 . S
C981 C982 1.397 . S
C981 C986 1.363 . S
C982 H959 0.950 . S
C982 C981 1.397 . S
C982 C983 1.334 . S
C983 H960 0.950 . S
C983 C982 1.334 . S
C983 C984 1.287 . S
C984 C983 1.287 . S
C984 C985 1.524 . S
C984 H1003 0.913 . S
C985 H961 0.950 . S
C985 C984 1.524 . S
C985 C986 1.415 . S
C986 H962 0.950 . S
C986 C981 1.363 . S
C986 C985 1.415 . S
C987 H963 0.951 . S
C987 C988 1.366 . S
C987 C989 1.388 1_556 S
C988 C987 1.366 . S
C988 C992 1.385 . S
C989 H964 0.951 . S
C989 C987 1.388 1_554 S
C989 C990 1.366 . S
C990 C989 1.366 . S
C990 C991 1.414 . S
C990 C993 1.499 . S
C991 H965 0.950 . S
C991 C990 1.414 . S
C991 C992 1.374 1_554 S
C992 H966 0.950 . S
C992 C988 1.385 . S
C992 C991 1.374 1_556 S
C993 C990 1.499 . S
C993 C994 1.373 . S
C993 C995 1.389 . S
C994 H967 0.950 . S
C994 C980 1.377 . S
C994 C993 1.373 . S
C995 C979 1.377 . S
C995 C993 1.389 . S
C995 C996 1.524 1_455 S
C996 C995 1.524 1_655 S
C996 C997 1.397 . S
C996 C1001 1.363 . S
C997 H968 0.950 . S
C997 C996 1.397 . S
C997 C998 1.334 . S
C998 H969 0.950 . S
C998 C997 1.334 . S
C998 C999 1.287 . S
C999 C998 1.287 . S
C999 C1000 1.524 . S
C999 H1002 0.999 . S
C1000 H970 0.950 . S
C1000 C999 1.524 . S
C1000 C1001 1.415 . S
C1001 H971 0.950 . S
C1001 C996 1.363 . S
C1001 C1000 1.415 . S
H1002 C999 0.999 . S
H1003 C984 0.913 . S
H1004 C1022 0.951 . S
H1005 C1024 0.951 . S
H1006 C1026 0.950 . S
H1007 C1027 0.950 . S
H1008 C1029 0.950 . S
H1009 C1032 0.950 . S
H1010 C1033 0.950 . S
H1011 C1035 0.950 . S
H1012 C1036 0.950 . S
H1013 C1037 0.951 . S
H1014 C1039 0.951 . S
H1015 C1041 0.950 . S
H1016 C1042 0.950 . S
H1017 C1044 0.950 . S
H1018 C1047 0.950 1_545 S
H1019 C1048 0.950 . S
H1020 C1050 0.950 . S
H1021 C1051 0.950 . S
C1022 H1004 0.951 . S
C1022 C1023 1.366 . S
C1022 C1024 1.388 . S
C1023 C1022 1.366 . S
C1023 C1027 1.385 1_545 S
C1024 H1005 0.951 . S
C1024 C1022 1.388 . S
C1024 C1025 1.366 . S
C1025 C1024 1.366 . S
C1025 C1026 1.414 1_545 S
C1025 C1028 1.499 . S
C1026 H1006 0.950 . S
C1026 C1025 1.414 1_565 S
C1026 C1027 1.374 . S
C1027 H1007 0.950 . S
C1027 C1023 1.385 1_565 S
C1027 C1026 1.374 . S
C1028 C1025 1.499 . S
C1028 C1029 1.373 1_545 S
C1028 C1030 1.389 . S
C1029 H1008 0.950 . S
C1029 C1028 1.373 1_565 S
C1029 C1045 1.375 1_565 S
C1030 C1028 1.389 . S
C1030 C1031 1.524 . S
C1030 C1044 1.377 . S
C1031 C1030 1.524 . S
C1031 C1032 1.397 . S
C1031 C1036 1.363 . S
C1032 H1009 0.950 . S
C1032 C1031 1.397 . S
C1032 C1033 1.334 . S
C1033 H1010 0.950 . S
C1033 C1032 1.334 . S
C1033 C1034 1.287 . S
C1034 C1033 1.287 . S
C1034 C1035 1.524 . S
C1034 H1053 0.913 . S
C1035 H1011 0.950 . S
C1035 C1034 1.524 . S
C1035 C1036 1.415 . S
C1036 H1012 0.950 . S
C1036 C1031 1.363 . S
C1036 C1035 1.415 . S
C1037 H1013 0.951 . S
C1037 C1038 1.366 1_565 S
C1037 C1039 1.388 . S
C1038 C1037 1.366 1_545 S
C1038 C1042 1.385 . S
C1039 H1014 0.951 . S
C1039 C1037 1.388 . S
C1039 C1040 1.366 1_565 S
C1040 C1039 1.366 1_545 S
C1040 C1041 1.414 . S
C1040 C1043 1.499 . S
C1041 H1015 0.950 . S
C1041 C1040 1.414 . S
C1041 C1042 1.374 . S
C1042 H1016 0.950 . S
C1042 C1038 1.385 . S
C1042 C1041 1.374 . S
C1043 C1040 1.499 . S
C1043 C1044 1.373 . S
C1043 C1045 1.411 . S
C1044 H1017 0.950 . S
C1044 C1030 1.377 . S
C1044 C1043 1.373 . S
C1045 C1029 1.375 1_545 S
C1045 C1043 1.411 . S
C1045 C1046 1.503 1_545 S
C1046 C1045 1.503 1_565 S
C1046 C1047 1.397 . S
C1046 C1051 1.363 . S
C1047 H1018 0.950 1_565 S
C1047 C1046 1.397 . S
C1047 C1048 1.334 . S
C1048 H1019 0.950 . S
C1048 C1047 1.334 . S
C1048 C1049 1.287 . S
C1049 C1048 1.287 . S
C1049 C1050 1.524 . S
C1049 H1052 0.999 . S
C1050 H1020 0.950 . S
C1050 C1049 1.524 . S
C1050 C1051 1.415 . S
C1051 H1021 0.950 . S
C1051 C1046 1.363 . S
C1051 C1050 1.415 . S
H1052 C1049 0.999 . S
H1053 C1034 0.913 . S
H1054 C1072 0.951 . S
H1055 C1074 0.951 . S
H1056 C1076 0.950 . S
H1057 C1077 0.950 . S
H1058 C1079 0.950 . S
H1059 C1082 0.950 . S
H1060 C1083 0.950 . S
H1061 C1085 0.950 . S
H1062 C1086 0.950 . S
H1063 C1087 0.951 . S
H1064 C1089 0.951 . S
H1065 C1091 0.950 . S
H1066 C1092 0.950 . S
H1067 C1094 0.950 . S
H1068 C1097 0.950 . S
H1069 C1098 0.950 . S
H1070 C1100 0.950 . S
H1071 C1101 0.950 . S
C1072 H1054 0.951 . S
C1072 C1073 1.366 . S
C1072 C1074 1.388 . S
C1073 C1072 1.366 . S
C1073 C1077 1.385 . S
C1074 H1055 0.951 . S
C1074 C1072 1.388 . S
C1074 C1075 1.366 . S
C1075 C1074 1.366 . S
C1075 C1076 1.414 . S
C1075 C1078 1.499 . S
C1076 H1056 0.950 . S
C1076 C1075 1.414 . S
C1076 C1077 1.374 . S
C1077 H1057 0.950 . S
C1077 C1073 1.385 . S
C1077 C1076 1.374 . S
C1078 C1075 1.499 . S
C1078 C1079 1.373 . S
C1078 C1080 1.389 . S
C1079 H1058 0.950 . S
C1079 C1078 1.373 . S
C1079 C1095 1.377 . S
C1080 C1078 1.389 . S
C1080 C1081 1.524 . S
C1080 C1094 1.377 . S
C1081 C1080 1.524 . S
C1081 C1082 1.397 . S
C1081 C1086 1.363 . S
C1082 H1059 0.950 . S
C1082 C1081 1.397 . S
C1082 C1083 1.334 . S
C1083 H1060 0.950 . S
C1083 C1082 1.334 . S
C1083 C1084 1.287 . S
C1084 C1083 1.287 . S
C1084 C1085 1.524 . S
C1084 H1103 0.913 . S
C1085 H1061 0.950 . S
C1085 C1084 1.524 . S
C1085 C1086 1.415 . S
C1086 H1062 0.950 . S
C1086 C1081 1.363 . S
C1086 C1085 1.415 . S
C1087 H1063 0.951 . S
C1087 C1088 1.366 . S
C1087 C1089 1.388 . S
C1088 C1087 1.366 . S
C1088 C1092 1.385 . S
C1089 H1064 0.951 . S
C1089 C1087 1.388 . S
C1089 C1090 1.366 . S
C1090 C1089 1.366 . S
C1090 C1091 1.414 . S
C1090 C1093 1.499 . S
C1091 H1065 0.950 . S
C1091 C1090 1.414 . S
C1091 C1092 1.374 . S
C1092 H1066 0.950 . S
C1092 C1088 1.385 . S
C1092 C1091 1.374 . S
C1093 C1090 1.499 . S
C1093 C1094 1.373 . S
C1093 C1095 1.389 . S
C1094 H1067 0.950 . S
C1094 C1080 1.377 . S
C1094 C1093 1.373 . S
C1095 C1079 1.377 . S
C1095 C1093 1.389 . S
C1095 C1096 1.524 . S
C1096 C1095 1.524 . S
C1096 C1097 1.397 . S
C1096 C1101 1.363 . S
C1097 H1068 0.950 . S
C1097 C1096 1.397 . S
C1097 C1098 1.334 . S
C1098 H1069 0.950 . S
C1098 C1097 1.334 . S
C1098 C1099 1.287 . S
C1099 C1098 1.287 . S
C1099 C1100 1.524 . S
C1099 H1102 0.999 . S
C1100 H1070 0.950 . S
C1100 C1099 1.524 . S
C1100 C1101 1.415 . S
C1101 H1071 0.950 . S
C1101 C1096 1.363 . S
C1101 C1100 1.415 . S
H1102 C1099 0.999 . S
H1103 C1084 0.913 . S
H1104 C1122 0.951 . S
H1105 C1124 0.951 . S
H1106 C1126 0.950 . S
H1107 C1127 0.950 . S
H1108 C1129 0.950 . S
H1109 C1132 0.950 . S
H1110 C1133 0.950 . S
H1111 C1135 0.950 . S
H1112 C1136 0.950 . S
H1113 C1137 0.951 . S
H1114 C1139 0.951 . S
H1115 C1141 0.950 . S
H1116 C1142 0.950 . S
H1117 C1144 0.950 . S
H1118 C1147 0.950 . S
H1119 C1148 0.950 . S
H1120 C1150 0.950 . S
H1121 C1151 0.950 . S
C1122 H1104 0.951 . S
C1122 C1123 1.366 1_565 S
C1122 C1124 1.388 . S
C1123 C1122 1.366 1_545 S
C1123 C1127 1.385 . S
C1124 H1105 0.951 . S
C1124 C1122 1.388 . S
C1124 C1125 1.366 1_565 S
C1125 C1124 1.366 1_545 S
C1125 C1126 1.414 . S
C1125 C1128 1.499 . S
C1126 H1106 0.950 . S
C1126 C1125 1.414 . S
C1126 C1127 1.374 . S
C1127 H1107 0.950 . S
C1127 C1123 1.385 . S
C1127 C1126 1.374 . S
C1128 C1125 1.499 . S
C1128 C1129 1.373 . S
C1128 C1130 1.389 1_545 S
C1129 H1108 0.950 . S
C1129 C1128 1.373 . S
C1129 C1145 1.377 . S
C1130 C1128 1.389 1_565 S
C1130 C1131 1.524 . S
C1130 C1144 1.377 . S
C1131 C1130 1.524 . S
C1131 C1132 1.397 1_565 S
C1131 C1136 1.363 . S
C1132 H1109 0.950 . S
C1132 C1131 1.397 1_545 S
C1132 C1133 1.334 . S
C1133 H1110 0.950 . S
C1133 C1132 1.334 . S
C1133 C1134 1.287 1_545 S
C1134 C1133 1.287 1_565 S
C1134 C1135 1.524 . S
C1134 H1153 0.913 . S
C1135 H1111 0.950 . S
C1135 C1134 1.524 . S
C1135 C1136 1.415 . S
C1136 H1112 0.950 . S
C1136 C1131 1.363 . S
C1136 C1135 1.415 . S
C1137 H1113 0.951 . S
C1137 C1138 1.366 1_545 S
C1137 C1139 1.388 . S
C1138 C1137 1.366 1_565 S
C1138 C1142 1.385 . S
C1139 H1114 0.951 . S
C1139 C1137 1.388 . S
C1139 C1140 1.367 1_545 S
C1140 C1139 1.367 1_565 S
C1140 C1141 1.412 . S
C1140 C1143 1.498 1_565 S
C1141 H1115 0.950 . S
C1141 C1140 1.412 . S
C1141 C1142 1.374 . S
C1142 H1116 0.950 . S
C1142 C1138 1.385 . S
C1142 C1141 1.374 . S
C1143 C1140 1.498 1_545 S
C1143 C1144 1.380 1_545 S
C1143 C1145 1.385 . S
C1144 H1117 0.950 . S
C1144 C1130 1.377 . S
C1144 C1143 1.380 1_565 S
C1145 C1129 1.377 . S
C1145 C1143 1.385 . S
C1145 C1146 1.524 . S
C1146 C1145 1.524 . S
C1146 C1147 1.397 1_545 S
C1146 C1151 1.363 . S
C1147 H1118 0.950 . S
C1147 C1146 1.397 1_565 S
C1147 C1148 1.334 . S
C1148 H1119 0.950 . S
C1148 C1147 1.334 . S
C1148 C1149 1.287 1_565 S
C1149 C1148 1.287 1_545 S
C1149 C1150 1.524 . S
C1149 H1152 0.999 . S
C1150 H1120 0.950 . S
C1150 C1149 1.524 . S
C1150 C1151 1.415 . S
C1151 H1121 0.950 . S
C1151 C1146 1.363 . S
C1151 C1150 1.415 . S
H1152 C1149 0.999 . S
H1153 C1134 0.913 . S
H1154 C1172 0.951 . S
H1155 C1174 0.951 . S
H1156 C1176 0.950 . S
H1157 C1177 0.950 . S
H1158 C1179 0.950 . S
H1159 C1182 0.950 . S
H1160 C1183 0.950 . S
H1161 C1185 0.950 . S
H1162 C1186 0.950 . S
H1163 C1187 0.951 . S
H1164 C1189 0.951 . S
H1165 C1191 0.950 . S
H1166 C1192 0.950 . S
H1167 C1194 0.950 . S
H1168 C1197 0.950 . S
H1169 C1198 0.950 . S
H1170 C1200 0.950 . S
H1171 C1201 0.950 . S
C1172 H1154 0.951 . S
C1172 C1173 1.366 . S
C1172 C1174 1.388 . S
C1173 C1172 1.366 . S
C1173 C1177 1.385 . S
C1174 H1155 0.951 . S
C1174 C1172 1.388 . S
C1174 C1175 1.366 . S
C1175 C1174 1.366 . S
C1175 C1176 1.414 . S
C1175 C1178 1.499 . S
C1176 H1156 0.950 . S
C1176 C1175 1.414 . S
C1176 C1177 1.374 . S
C1177 H1157 0.950 . S
C1177 C1173 1.385 . S
C1177 C1176 1.374 . S
C1178 C1175 1.499 . S
C1178 C1179 1.373 . S
C1178 C1180 1.389 . S
C1179 H1158 0.950 . S
C1179 C1178 1.373 . S
C1179 C1195 1.377 . S
C1180 C1178 1.389 . S
C1180 C1181 1.524 . S
C1180 C1194 1.377 . S
C1181 C1180 1.524 . S
C1181 C1182 1.397 . S
C1181 C1186 1.363 . S
C1182 H1159 0.950 . S
C1182 C1181 1.397 . S
C1182 C1183 1.334 . S
C1183 H1160 0.950 . S
C1183 C1182 1.334 . S
C1183 C1184 1.287 . S
C1184 C1183 1.287 . S
C1184 C1185 1.524 . S
C1184 H1203 0.913 . S
C1185 H1161 0.950 . S
C1185 C1184 1.524 . S
C1185 C1186 1.415 . S
C1186 H1162 0.950 . S
C1186 C1181 1.363 . S
C1186 C1185 1.415 . S
C1187 H1163 0.951 . S
C1187 C1188 1.366 . S
C1187 C1189 1.388 1_554 S
C1188 C1187 1.366 . S
C1188 C1192 1.385 . S
C1189 H1164 0.951 . S
C1189 C1187 1.388 1_556 S
C1189 C1190 1.366 . S
C1190 C1189 1.366 . S
C1190 C1191 1.414 . S
C1190 C1193 1.499 . S
C1191 H1165 0.950 . S
C1191 C1190 1.414 . S
C1191 C1192 1.374 1_556 S
C1192 H1166 0.950 . S
C1192 C1188 1.385 . S
C1192 C1191 1.374 1_554 S
C1193 C1190 1.499 . S
C1193 C1194 1.373 . S
C1193 C1195 1.389 . S
C1194 H1167 0.950 . S
C1194 C1180 1.377 . S
C1194 C1193 1.373 . S
C1195 C1179 1.377 . S
C1195 C1193 1.389 . S
C1195 C1196 1.524 . S
C1196 C1195 1.524 . S
C1196 C1197 1.397 . S
C1196 C1201 1.363 . S
C1197 H1168 0.950 . S
C1197 C1196 1.397 . S
C1197 C1198 1.334 . S
C1198 H1169 0.950 . S
C1198 C1197 1.334 . S
C1198 C1199 1.287 . S
C1199 C1198 1.287 . S
C1199 C1200 1.524 . S
C1199 H1202 0.999 . S
C1200 H1170 0.950 . S
C1200 C1199 1.524 . S
C1200 C1201 1.415 . S
C1201 H1171 0.950 . S
C1201 C1196 1.363 . S
C1201 C1200 1.415 . S
H1202 C1199 0.999 . S
H1203 C1184 0.913 . S
H1204 C1222 0.951 . S
H1205 C1224 0.951 . S
H1206 C1226 0.950 . S
H1207 C1227 0.950 . S
H1208 C1229 0.950 . S
H1209 C1232 0.950 . S
H1210 C1233 0.950 . S
H1211 C1235 0.950 . S
H1212 C1236 0.950 . S
H1213 C1237 0.951 . S
H1214 C1239 0.951 . S
H1215 C1241 0.950 . S
H1216 C1242 0.950 . S
H1217 C1244 0.950 . S
H1218 C1247 0.950 . S
H1219 C1248 0.950 . S
H1220 C1250 0.950 . S
H1221 C1251 0.950 . S
C1222 H1204 0.951 . S
C1222 C1223 1.366 . S
C1222 C1224 1.388 . S
C1223 C1222 1.366 . S
C1223 C1227 1.385 . S
C1224 H1205 0.951 . S
C1224 C1222 1.388 . S
C1224 C1225 1.366 . S
C1225 C1224 1.366 . S
C1225 C1226 1.414 . S
C1225 C1228 1.499 . S
C1226 H1206 0.950 . S
C1226 C1225 1.414 . S
C1226 C1227 1.374 . S
C1227 H1207 0.950 . S
C1227 C1223 1.385 . S
C1227 C1226 1.374 . S
C1228 C1225 1.499 . S
C1228 C1229 1.373 1_455 S
C1228 C1230 1.389 . S
C1229 H1208 0.950 . S
C1229 C1228 1.373 1_655 S
C1229 C1245 1.377 . S
C1230 C1228 1.389 . S
C1230 C1231 1.524 . S
C1230 C1244 1.377 . S
C1231 C1230 1.524 . S
C1231 C1232 1.397 . S
C1231 C1236 1.363 . S
C1232 H1209 0.950 . S
C1232 C1231 1.397 . S
C1232 C1233 1.334 . S
C1233 H1210 0.950 . S
C1233 C1232 1.334 . S
C1233 C1234 1.287 . S
C1234 C1233 1.287 . S
C1234 C1235 1.524 . S
C1234 H1253 0.913 . S
C1235 H1211 0.950 . S
C1235 C1234 1.524 . S
C1235 C1236 1.415 . S
C1236 H1212 0.950 . S
C1236 C1231 1.363 . S
C1236 C1235 1.415 . S
C1237 H1213 0.951 . S
C1237 C1238 1.373 1_655 S
C1237 C1239 1.388 . S
C1238 C1237 1.373 1_455 S
C1238 C1242 1.379 . S
C1239 H1214 0.951 . S
C1239 C1237 1.388 . S
C1239 C1240 1.366 1_655 S
C1240 C1239 1.366 1_455 S
C1240 C1241 1.414 . S
C1240 C1243 1.499 . S
C1241 H1215 0.950 . S
C1241 C1240 1.414 . S
C1241 C1242 1.374 . S
C1242 H1216 0.950 . S
C1242 C1238 1.379 . S
C1242 C1241 1.374 . S
C1243 C1240 1.499 . S
C1243 C1244 1.373 . S
C1243 C1245 1.389 1_455 S
C1244 H1217 0.950 . S
C1244 C1230 1.377 . S
C1244 C1243 1.373 . S
C1245 C1229 1.377 . S
C1245 C1243 1.389 1_655 S
C1245 C1246 1.524 . S
C1246 C1245 1.524 . S
C1246 C1247 1.397 . S
C1246 C1251 1.363 . S
C1247 H1218 0.950 . S
C1247 C1246 1.397 . S
C1247 C1248 1.334 . S
C1248 H1219 0.950 . S
C1248 C1247 1.334 . S
C1248 C1249 1.287 . S
C1249 C1248 1.287 . S
C1249 C1250 1.524 . S
C1249 H1252 0.999 . S
C1250 H1220 0.950 . S
C1250 C1249 1.524 . S
C1250 C1251 1.415 . S
C1251 H1221 0.950 . S
C1251 C1246 1.363 . S
C1251 C1250 1.415 . S
H1252 C1249 0.999 . S
H1253 C1234 0.913 . S
C373 C7 0.516 . S
C388 C331 0.500 . S
C423 C51 1.854 . S
C438 C258 1.821 . S
C473 C87 1.143 . S
C488 C297 1.150 . S
C523 C16 0.297 . S
C538 C336 0.224 . S
C588 C253 1.948 . S
C573 C42 1.987 . S
C638 C292 1.290 . S
C623 C96 1.295 . S
C673 C47 1.144 . S
C688 C180 1.148 . S
C723 C91 3.084 . S
C738 C214 3.035 . S
C773 C2 2.021 . S
C788 C136 1.990 . S
C838 C175 1.265 . S
C823 C56 1.264 . S
C888 C219 2.871 . S
C873 C82 2.898 . S
C923 C11 1.842 . S
C938 C141 1.814 . S
C988 C199 1.761 . S
C973 C19 1.694 . S
C1023 C50 1.343 . S
C1038 C121 1.386 . S
C1073 C99 1.462 . S
C1088 C160 1.514 . S
C1138 C277 1.493 . S
C1123 C59 1.453 . S
C1188 C316 1.136 . S
C1173 C90 1.119 . S
C1223 C10 1.342 . S
C1238 C238 1.376 1_455 S
