# Generated by pormake.
# Topology apo, (3,6)-cn, num edge types: 1
# Building blocks:
#     Node 0, Type 0, BuildingBlock: BETDAH_clean_linker_0, # of connection points: 3
#     Node 1, Type 0, BuildingBlock: BETDAH_clean_linker_0, # of connection points: 3
#     Node 2, Type 0, BuildingBlock: BETDAH_clean_linker_0, # of connection points: 3
#     Node 3, Type 0, BuildingBlock: BETDAH_clean_linker_0, # of connection points: 3
#     Node 4, Type 0, BuildingBlock: BETDAH_clean_linker_0, # of connection points: 3
#     Node 5, Type 0, BuildingBlock: BETDAH_clean_linker_0, # of connection points: 3
#     Node 6, Type 0, BuildingBlock: BETDAH_clean_linker_0, # of connection points: 3
#     Node 7, Type 0, BuildingBlock: BETDAH_clean_linker_0, # of connection points: 3
#     Node 8, Type 1, BuildingBlock: KUMBOL_clean_sbu_1, # of connection points: 6
#     Node 9, Type 1, BuildingBlock: KUMBOL_clean_sbu_1, # of connection points: 6
#     Node 10, Type 1, BuildingBlock: KUMBOL_clean_sbu_1, # of connection points: 6
#     Node 11, Type 1, BuildingBlock: KUMBOL_clean_sbu_1, # of connection points: 6
#     Edge 12, Type (0, 1), None
#     Edge 13, Type (0, 1), None
#     Edge 14, Type (0, 1), None
#     Edge 15, Type (0, 1), None
#     Edge 16, Type (0, 1), None
#     Edge 17, Type (0, 1), None
#     Edge 18, Type (0, 1), None
#     Edge 19, Type (0, 1), None
#     Edge 20, Type (0, 1), None
#     Edge 21, Type (0, 1), None
#     Edge 22, Type (0, 1), None
#     Edge 23, Type (0, 1), None
#     Edge 24, Type (0, 1), None
#     Edge 25, Type (0, 1), None
#     Edge 26, Type (0, 1), None
#     Edge 27, Type (0, 1), None
#     Edge 28, Type (0, 1), None
#     Edge 29, Type (0, 1), None
#     Edge 30, Type (0, 1), None
#     Edge 31, Type (0, 1), None
#     Edge 32, Type (0, 1), None
#     Edge 33, Type (0, 1), None
#     Edge 34, Type (0, 1), None
#     Edge 35, Type (0, 1), None
# Relax obj value: 0.037
# Max RMSD: 0.291
# Mean RMSD: 0.199
data_MOF--net-apo--node1-KUMBOL_clean_sbu_1--node2-BETDAH_clean_linker_0--edge1-none
_symmetry_space_group_name_H-M    P1
_symmetry_Int_Tables_number       1
_symmetry_cell_setting            triclinic
loop_
_symmetry_equiv_pos_as_xyz
'x, y, z'
_cell_length_a     12.570114
_cell_length_b     18.972693
_cell_length_c     26.15353
_cell_angle_alpha  88.77592
_cell_angle_beta   90.974824
_cell_angle_gamma 91.256526
loop_
_atom_site_label
_atom_site_type_symbol
_atom_site_fract_x
_atom_site_fract_y
_atom_site_fract_z
_atom_type_partial_charge
H0 H 0.37105 0.50421 0.41442 0.0
H1 H 0.35724 0.32745 0.31322 0.0
H2 H 0.27432 0.29885 0.47151 0.0
C3 C 0.3533 0.44893 0.40779 0.0
C4 C 0.32068 0.40505 0.44888 0.0
C5 C 0.36591 0.42182 0.3586 0.0
C6 C 0.3427 0.3496 0.35025 0.0
C7 C 0.30814 0.30491 0.39085 0.0
C8 C 0.29922 0.33312 0.44005 0.0
N9 N 0.30096 0.23007 0.38571 0.0
C10 C 0.2304 0.19213 0.3539 0.0
H11 H 0.17312 0.95593 0.92422 0.0
H12 H 0.19762 0.13652 0.82214 0.0
H13 H 0.26963 0.1577 0.98297 0.0
C14 C 0.19061 0.0116 0.91795 0.0
C15 C 0.2219 0.05306 0.95954 0.0
C16 C 0.18054 0.04125 0.86865 0.0
C17 C 0.20662 0.11322 0.86012 0.0
C18 C 0.23941 0.1557 0.90133 0.0
C19 C 0.24455 0.12537 0.9511 0.0
N20 N 0.25916 0.22978 0.895 0.0
C21 C 0.31382 0.2635 0.85475 0.0
H22 H 0.8481 -0.00674 0.63629 0.0
H23 H 0.87493 0.12452 0.76847 0.0
H24 H 0.72684 0.20404 0.63111 0.0
C25 C 0.8324 0.04218 0.65519 0.0
C26 C 0.78123 0.09707 0.62829 0.0
C27 C 0.86213 0.05071 0.70677 0.0
C28 C 0.84654 0.11583 0.72975 0.0
C29 C 0.79726 0.17068 0.70252 0.0
C30 C 0.76235 0.16061 0.65242 0.0
N31 N 0.79378 0.23809 0.72397 0.0
C32 C 0.70096 0.27597 0.72651 0.0
H33 H 0.68688 0.46689 0.13252 0.0
H34 H 0.67832 0.33461 0.26888 0.0
H35 H 0.81356 0.25784 0.13245 0.0
C36 C 0.7042 0.41785 0.15268 0.0
C37 C 0.7544 0.36379 0.12701 0.0
C38 C 0.67935 0.40882 0.20473 0.0
C39 C 0.70074 0.34388 0.22946 0.0
C40 C 0.7496 0.28995 0.20345 0.0
C41 C 0.77794 0.30046 0.15271 0.0
N42 N 0.7572 0.22249 0.22668 0.0
C43 C 0.85111 0.18556 0.23149 0.0
H44 H 0.70008 0.45289 0.65941 0.0
H45 H 0.70046 0.62811 0.76125 0.0
H46 H 0.7882 0.66112 0.60439 0.0
C47 C 0.71616 0.50825 0.66659 0.0
C48 C 0.74781 0.5535 0.62618 0.0
C49 C 0.69879 0.53469 0.71528 0.0
C50 C 0.71823 0.60667 0.72444 0.0
C51 C 0.75245 0.65232 0.6848 0.0
C52 C 0.76428 0.62572 0.63539 0.0
N53 N 0.76238 0.72627 0.69202 0.0
C54 C 0.82001 0.75865 0.73157 0.0
H55 H 0.84779 0.01418 0.17053 0.0
H56 H 0.78518 0.81658 0.09683 0.0
H57 H 0.87123 0.8186 0.2559 0.0
C58 C 0.83894 0.95732 0.17286 0.0
C59 C 0.85937 0.92142 0.21948 0.0
C60 C 0.81472 0.91974 0.12812 0.0
C61 C 0.80431 0.84588 0.13104 0.0
C62 C 0.81731 0.80942 0.17792 0.0
C63 C 0.84901 0.84724 0.22149 0.0
N64 N 0.813 0.73436 0.17863 0.0
C65 C 0.74347 0.69273 0.20825 0.0
H66 H 0.08506 0.89882 0.44904 0.0
H67 H 0.3235 0.8877 0.33467 0.0
H68 H 0.32229 0.74056 0.45985 0.0
C69 C 0.14927 0.87207 0.43155 0.0
C70 C 0.19349 0.81402 0.45772 0.0
C71 C 0.18975 0.89605 0.38421 0.0
C72 C 0.28335 0.86618 0.36736 0.0
C73 C 0.33047 0.81063 0.39446 0.0
C74 C 0.28382 0.78285 0.43859 0.0
N75 N 0.43211 0.78922 0.38069 0.0
C76 C 0.446 0.72575 0.3574 0.0
H77 H 0.35169 0.48164 0.94042 0.0
H78 H 0.23878 0.69305 0.95247 0.0
H79 H 0.37844 0.62926 0.81363 0.0
C80 C 0.33798 0.53306 0.92301 0.0
C81 C 0.36816 0.54786 0.87213 0.0
C82 C 0.28998 0.58532 0.95152 0.0
C83 C 0.27255 0.65205 0.92986 0.0
C84 C 0.30561 0.6681 0.88059 0.0
C85 C 0.35273 0.61618 0.85175 0.0
N86 N 0.30364 0.73849 0.86225 0.0
C87 C 0.21075 0.77652 0.85713 0.0
C88 C 0.67438 0.04554 0.35533 0.0
C89 C 0.62858 0.93701 0.4014 0.0
C90 C 0.70563 -0.0173 0.37886 0.0
C91 C 0.52061 0.95342 0.39758 0.0
C92 C 0.56528 0.06232 0.3523 0.0
C93 C 0.48862 0.01478 0.37188 0.0
N94 N 0.75065 0.09419 0.34194 0.0
C95 C 0.72304 0.16168 0.32963 0.0
C96 C 0.53684 0.12927 0.33427 0.0
C97 C 0.61615 0.17961 0.32384 0.0
Gd98 Gd 0.12669 0.03159 0.23426 0.0
Gd99 Gd 0.92766 0.06246 0.35892 0.0
N100 N 0.81135 0.97022 0.38497 0.0
C101 C 0.6625 0.87897 0.43069 0.0
C102 C 0.84419 0.9145 0.41454 0.0
C103 C 0.7709 0.86845 0.43802 0.0
H104 H 0.92661 0.90609 0.4215 0.0
H105 H 0.79832 0.82458 0.46152 0.0
H106 H 0.10773 0.18071 0.1721 0.0
H107 H 0.78342 0.20278 0.32652 0.0
H108 H 0.22392 0.26287 0.12543 0.0
H109 H 0.60581 0.84325 0.44906 0.0
H110 H 0.46178 0.92113 0.41713 0.0
H111 H 0.27977 0.88929 0.24777 0.0
H112 H 0.45413 0.1439 0.33123 0.0
H113 H 0.59487 0.23294 0.31323 0.0
H114 H 0.57763 0.1932 0.17281 0.0
H115 H 0.40488 0.02734 0.37052 0.0
H116 H 0.60658 0.95672 0.23813 0.0
H117 H 0.47136 0.86187 0.2526 0.0
N118 N 0.30696 -0.00046 0.23739 0.0
C119 C 0.37941 0.05122 0.22598 0.0
C120 C 0.33851 0.93146 0.24352 0.0
C121 C 0.52285 0.96926 0.23758 0.0
C122 C 0.44681 0.9156 0.24561 0.0
C123 C 0.48934 0.0375 0.22536 0.0
H124 H 0.64594 0.08151 0.2088 0.0
N125 N 0.23547 0.12406 0.20564 0.0
C126 C 0.34218 0.11528 0.20831 0.0
C127 C 0.36968 0.22248 0.15878 0.0
C128 C 0.41265 0.16598 0.18684 0.0
C129 C 0.193 0.17776 0.17739 0.0
C130 C 0.25924 0.22588 0.15201 0.0
O131 O 0.85507 0.00313 0.29082 0.0
O132 O 1.01077 0.95571 0.27093 0.0
O133 O 0.07893 0.04356 0.15352 0.0
O134 O 0.14137 0.94548 0.18162 0.0
O135 O 0.0475 0.9768 0.37245 0.0
O136 O 0.17189 0.96774 0.30667 0.0
O137 O 0.16581 0.13057 0.27993 0.0
O138 O 0.10387 0.09711 0.35998 0.0
O139 O 0.94444 0.05295 0.44139 0.0
O140 O 0.88813 0.15016 0.40705 0.0
O141 O 0.97395 0.09297 0.22418 0.0
O142 O 0.95709 0.14929 0.30068 0.0
C143 C 0.90861 0.95961 0.26311 0.0
C144 C 0.13508 0.9516 0.35308 0.0
C145 C 0.19165 -0.01777 0.09736 0.0
C146 C 0.24274 0.01762 1.00989 0.0
C147 C 0.34915 0.93413 0.059 0.0
C148 C 0.2807 0.93839 0.10015 0.0
C149 C 0.33017 0.97306 1.01417 0.0
C150 C 0.17324 0.02231 0.05171 0.0
C151 C 0.11695 -0.01675 0.1412 0.0
C152 C 0.52261 0.15468 0.18917 0.0
C153 C 0.56119 0.09081 0.20911 0.0
H154 H 0.42111 0.2604 0.13918 0.0
C155 C 0.1596 0.14009 0.32969 0.0
C156 C 0.93666 0.14397 0.25162 0.0
C157 C 0.8136 0.1108 0.48612 0.0
C158 C 0.75483 0.09291 0.57362 0.0
C159 C 0.62527 0.11378 0.50572 0.0
C160 C 0.70734 0.12106 0.47066 0.0
C161 C 0.6488 0.10017 0.55717 0.0
C162 C 0.83678 0.09631 0.53786 0.0
C163 C 0.90104 0.11323 0.44922 0.0
H164 H 0.41662 0.89966 0.06164 0.0
H165 H 0.29733 0.90639 0.13398 0.0
H166 H 0.38334 0.96776 0.98233 0.0
H167 H 0.10406 0.05527 0.04821 0.0
H168 H 0.54363 0.1212 0.49328 0.0
H169 H 0.6873 0.13591 0.43191 0.0
H170 H 0.58498 0.0986 0.58453 0.0
H171 H 0.91889 0.09132 0.55066 0.0
C172 C 0.86908 0.39943 0.84778 0.0
C173 C 0.91067 0.52268 0.86354 0.0
C174 C 0.83547 0.46747 0.85634 0.0
C175 C 0.01958 0.50761 0.86653 0.0
C176 C 0.97861 0.38456 0.84887 0.0
C177 C 0.05346 0.43866 0.85935 0.0
N178 N 0.79468 0.34738 0.84001 0.0
C179 C 0.8242 0.27945 0.83342 0.0
C180 C 1.00947 0.31539 0.84044 0.0
C181 C 0.93201 0.26261 0.83283 0.0
Gd182 Gd 0.41707 0.42623 0.72707 0.0
Gd183 Gd 0.61755 0.38029 0.84903 0.0
N184 N 0.72916 0.48012 0.85557 0.0
C185 C 0.87408 0.59162 0.86599 0.0
C186 C 0.69288 0.54667 0.86038 0.0
C187 C 0.76481 0.60357 0.86285 0.0
H188 H 0.60877 0.55631 0.85966 0.0
H189 H 0.73544 0.65654 0.86122 0.0
H190 H 0.43876 0.28497 0.66123 0.0
H191 H 0.76425 0.23802 0.82972 0.0
H192 H 0.32187 0.21634 0.60476 0.0
H193 H 0.92949 0.63593 0.86911 0.0
H194 H 0.07845 0.5492 0.87306 0.0
H195 H 0.26159 0.5591 0.76015 0.0
H196 H 0.09271 0.30206 0.84037 0.0
H197 H 0.95542 0.20876 0.82753 0.0
H198 H 0.96875 0.27016 0.65727 0.0
H199 H 0.13785 0.42804 0.86093 0.0
H200 H 0.93741 0.49276 0.73705 0.0
H201 H 0.07018 0.58392 0.76295 0.0
N202 N 0.2377 0.45326 0.73683 0.0
C203 C 0.16644 0.40327 0.72089 0.0
C204 C 0.20456 0.5178 0.75119 0.0
C205 C 0.02138 0.48097 0.73701 0.0
C206 C 0.09609 0.53255 0.75168 0.0
C207 C 0.05618 0.41583 0.72049 0.0
H208 H 0.89996 0.37359 0.7003 0.0
N209 N 0.31164 0.33376 0.69811 0.0
C210 C 0.20464 0.34257 0.69962 0.0
C211 C 0.17716 0.24786 0.64067 0.0
C212 C 0.13418 0.29643 0.67364 0.0
C213 C 0.35381 0.2867 0.66616 0.0
C214 C 0.28738 0.24703 0.63441 0.0
O215 O 0.68698 0.44063 0.77979 0.0
O216 O 0.53962 0.50158 0.75799 0.0
O217 O 0.46448 0.42359 0.64666 0.0
O218 O 0.37099 0.50885 0.67308 0.0
O219 O 0.47117 0.44351 0.86581 0.0
O220 O 0.42809 0.50539 0.79111 0.0
O221 O 0.34387 0.35389 0.7898 0.0
O222 O 0.48696 0.29962 0.83074 0.0
O223 O 0.5948 0.39957 0.9299 0.0
O224 O 0.66831 0.30354 0.90644 0.0
O225 O 0.56317 0.35922 0.71436 0.0
O226 O 0.58161 0.2986 0.79047 0.0
C227 C 0.64039 0.49057 0.75263 0.0
C228 C 0.41993 0.49394 0.84105 0.0
C229 C 0.33335 0.47063 0.58782 0.0
C230 C 0.29365 0.43666 0.49868 0.0
C231 C 0.16273 0.49799 0.54717 0.0
C232 C 0.23142 0.49986 0.58954 0.0
C233 C 0.19365 0.46719 0.50212 0.0
C234 C 0.36415 0.43842 0.54178 0.0
C235 C 0.40715 0.47749 0.63326 0.0
C236 C 0.02398 0.30592 0.67635 0.0
C237 C 0.98493 0.3651 0.70045 0.0
H238 H 0.12596 0.21455 0.61725 0.0
C239 C 0.3839 0.308 0.82348 0.0
C240 C 0.60589 0.3086 0.74253 0.0
C241 C 0.73023 0.35304 0.98401 0.0
C242 C 0.78202 0.37058 0.07292 0.0
C243 C 0.91747 0.35726 1.00944 0.0
C244 C 0.83838 0.34739 0.97218 0.0
C245 C 0.88952 0.36861 0.05975 0.0
C246 C 0.70236 0.36469 1.03483 0.0
C247 C 0.64604 0.34334 0.94457 0.0
H248 H 0.08486 0.5208 0.54915 0.0
H249 H 0.20434 0.52502 0.6236 0.0
H250 H 0.13884 0.467 0.4697 0.0
H251 H 0.44232 0.41589 0.53926 0.0
H252 H 1.00042 0.35312 0.99968 0.0
H253 H 0.86241 0.333 0.93479 0.0
H254 H 0.95143 0.37212 0.08892 0.0
H255 H 0.61916 0.36492 0.04519 0.0
C256 C 0.66764 0.90321 0.87081 0.0
C257 C 0.63568 0.79245 0.91645 0.0
C258 C 0.70538 0.84028 0.89115 0.0
C259 C 0.52617 0.8057 0.91674 0.0
C260 C 0.55828 0.9183 0.87317 0.0
C261 C 0.48737 0.86815 0.89461 0.0
N262 N 0.73891 0.95193 0.85264 0.0
C263 C 0.70671 0.01824 0.83902 0.0
C264 C 0.52415 -0.01537 0.85615 0.0
C265 C 0.59902 0.03515 0.83966 0.0
Gd266 Gd 0.13088 0.89069 0.73421 0.0
Gd267 Gd 0.91881 0.91919 0.85609 0.0
N268 N 0.81155 0.82858 0.89004 0.0
C269 C 0.679 0.73498 0.94334 0.0
C270 C 0.85452 0.77304 0.91631 0.0
C271 C 0.78923 0.72631 0.94433 0.0
H272 H 0.93973 0.76645 0.91713 0.0
H273 H 0.82366 0.68283 0.96583 0.0
H274 H 0.13852 0.04557 0.67991 0.0
H275 H 0.76427 0.05884 0.82855 0.0
H276 H 0.27152 0.11703 0.6383 0.0
H277 H 0.62843 0.69788 0.96425 0.0
H278 H 0.47139 0.76915 0.93558 0.0
H279 H 0.26665 0.74114 0.75608 0.0
H280 H 0.44085 -0.00191 0.85713 0.0
H281 H 0.57403 0.0874 0.82799 0.0
H282 H 0.60521 0.03588 0.70371 0.0
H283 H 0.40309 0.87861 0.89633 0.0
H284 H 0.59896 0.79568 0.75941 0.0
H285 H 0.45597 0.70615 0.76278 0.0
N286 N 0.30455 0.85073 0.75064 0.0
C287 C 0.38326 0.90057 0.74415 0.0
C288 C 0.32927 0.78119 0.75625 0.0
C289 C 0.5169 0.8119 0.75723 0.0
C290 C 0.43566 0.76101 0.75994 0.0
C291 C 0.49161 0.88215 0.74713 0.0
H292 H 0.65461 0.9194 0.73785 0.0
N293 N 0.25075 -0.01707 0.72052 0.0
C294 C 0.35571 0.96795 0.72725 0.0
C295 C 0.40452 0.07434 0.68031 0.0
C296 C 0.43552 0.01582 0.70983 0.0
C297 C 0.22067 0.0389 0.69103 0.0
C298 C 0.29694 0.08239 0.66837 0.0
O299 O 0.86126 0.83 0.80441 0.0
O300 O 0.9788 0.82403 0.73511 0.0
O301 O 0.08974 0.90701 0.65334 0.0
O302 O 0.20889 0.83162 0.67726 0.0
O303 O 0.07184 0.85795 0.86796 0.0
O304 O 0.09195 0.80475 0.79093 0.0
O305 O 0.19149 0.95642 0.80094 0.0
O306 O 0.03093 -0.00203 0.81992 0.0
O307 O 0.96032 0.91335 0.93768 0.0
O308 O 0.90242 0.01014 0.90384 0.0
O309 O 1.00452 0.97109 0.71733 0.0
O310 O 0.87946 -0.01989 0.78269 0.0
C311 C 0.89047 0.80608 0.75951 0.0
C312 C 0.11611 0.81078 0.83937 0.0
C313 C 0.12884 0.81425 0.59733 0.0
C314 C 0.15245 0.79028 0.50767 0.0
C315 C 0.09448 0.69652 0.56612 0.0
C316 C 0.09776 0.74368 0.60641 0.0
C317 C 0.12369 0.71927 0.51702 0.0
C318 C 0.15286 0.83775 0.54783 0.0
C319 C 0.15773 0.86064 0.6392 0.0
C320 C 0.54319 -0.00079 0.71621 0.0
C321 C 0.57122 0.93271 0.73538 0.0
H322 H 0.46308 0.10926 0.66252 0.0
C323 C 0.13325 -0.00207 0.82769 0.0
C324 C 0.91543 -0.00577 0.73617 0.0
C325 C 0.85058 -0.01623 0.98958 0.0
C326 C 0.79945 0.95791 0.07843 0.0
C327 C 0.70235 0.04392 1.02716 0.0
C328 C 0.76758 0.03241 0.98562 0.0
C329 C 0.71864 0.0075 0.07341 0.0
C330 C 0.86533 0.94599 1.0363 0.0
C331 C 0.92464 0.9759 0.94621 0.0
H332 H 0.07267 0.64186 0.5734 0.0
H333 H 0.08073 0.72456 0.64481 0.0
H334 H 0.12511 0.68148 0.4866 0.0
H335 H 0.18012 0.89186 0.54128 0.0
H336 H 0.63932 0.08178 1.02361 0.0
H337 H 0.75354 0.06251 0.95061 0.0
H338 H 0.66743 0.01758 0.10525 0.0
H339 H 0.92928 0.90875 0.04033 0.0
C340 C 0.89025 0.56852 0.35893 0.0
C341 C 0.93062 0.69361 0.36524 0.0
C342 C 0.85626 0.63767 0.35838 0.0
C343 C 0.03718 0.67884 0.37715 0.0
C344 C 0.99852 0.55369 0.36802 0.0
C345 C 0.07111 0.609 0.37869 0.0
N346 N 0.81854 0.51611 0.34827 0.0
C347 C 0.84964 0.44803 0.34464 0.0
C348 C 0.03107 0.48388 0.36481 0.0
C349 C 0.95643 0.43092 0.35269 0.0
Gd350 Gd 0.43375 0.58377 0.22488 0.0
Gd351 Gd 0.64074 0.54908 0.34296 0.0
N352 N 0.75214 0.65045 0.34756 0.0
C353 C 0.89688 0.76268 0.35732 0.0
C354 C 0.71877 0.71806 0.34108 0.0
C355 C 0.79078 0.77464 0.3441 0.0
H356 H 0.63892 0.72888 0.32977 0.0
H357 H 0.76429 0.82748 0.33534 0.0
H358 H 0.44064 0.43708 0.1627 0.0
H359 H 0.79157 0.40656 0.33709 0.0
H360 H 0.31318 0.36228 0.11736 0.0
H361 H 0.95278 0.80682 0.35956 0.0
H362 H 0.09496 0.72121 0.38278 0.0
H363 H 0.28579 0.7166 0.2663 0.0
H364 H 0.11371 0.47047 0.37096 0.0
H365 H 0.98092 0.3768 0.35016 0.0
H366 H 0.9732 0.42368 0.18234 0.0
H367 H 0.15444 0.59862 0.38613 0.0
H368 H 0.95934 0.6512 0.25486 0.0
H369 H 0.0963 0.74261 0.27408 0.0
N370 N 0.25802 0.60945 0.24611 0.0
C371 C 0.18378 0.55869 0.23439 0.0
C372 C 0.22766 0.67477 0.26041 0.0
C373 C 0.04275 0.63848 0.25304 0.0
C374 C 0.11991 0.69027 0.26385 0.0
C375 C 0.07393 0.57194 0.23781 0.0
H376 H 0.91419 0.52986 0.22477 0.0
N377 N 0.3231 0.48885 0.20441 0.0
C378 C 0.21716 0.49728 0.21186 0.0
C379 C 0.17675 0.39853 0.15776 0.0
C380 C 0.14132 0.44996 0.19054 0.0
C381 C 0.35777 0.43899 0.17248 0.0
C382 C 0.28506 0.39553 0.14699 0.0
O383 O 0.71201 0.60328 0.2721 0.0
O384 O 0.56945 0.66247 0.23633 0.0
O385 O 0.46292 0.57812 0.14319 0.0
O386 O 0.35992 0.65775 0.17157 0.0
O387 O 0.48632 0.60595 0.35192 0.0
O388 O 0.46464 0.67167 0.27863 0.0
O389 O 0.37379 0.5154 0.29285 0.0
O390 O 0.52642 0.46196 0.32015 0.0
O391 O 0.6268 0.57909 0.42328 0.0
O392 O 0.65465 0.471 0.40366 0.0
O393 O 0.57193 0.51218 0.20801 0.0
O394 O 0.64392 0.46418 0.2839 0.0
C395 C 0.67158 0.64941 0.23906 0.0
C396 C 0.45958 0.66425 0.32827 0.0
C397 C 0.31062 0.60527 0.09302 0.0
C398 C 0.26361 0.57502 1.00545 0.0
C399 C 0.12586 0.58071 0.06865 0.0
C400 C 0.20198 0.6012 0.10514 0.0
C401 C 0.15632 0.56806 1.01877 0.0
C402 C 0.34093 0.59178 0.04289 0.0
C403 C 0.39246 0.62546 0.13152 0.0
C404 C 0.03233 0.46022 0.19776 0.0
C405 C 0.99872 0.52087 0.22176 0.0
H406 H 0.12049 0.36433 0.13792 0.0
C407 C 0.42291 0.46594 0.31986 0.0
C408 C 0.63083 0.46594 0.23354 0.0
C409 C 0.72239 0.50658 0.48472 0.0
C410 C 0.76821 0.52358 0.57537 0.0
C411 C 0.8661 0.4409 0.52571 0.0
C412 C 0.80389 0.45698 0.48261 0.0
C413 C 0.84792 0.4734 0.57187 0.0
C414 C 0.70558 0.54049 0.53151 0.0
C415 C 0.64733 0.51563 0.44049 0.0
H416 H 0.04255 0.57775 0.07849 0.0
H417 H 0.17512 0.6155 0.1423 0.0
H418 H 0.09568 0.55735 0.98984 0.0
H419 H 0.42355 0.59898 1.03219 0.0
H420 H 0.92741 0.40193 0.52357 0.0
H421 H 0.81789 0.42856 0.4481 0.0
H422 H 0.89591 0.45903 0.60515 0.0
H423 H 0.64138 0.57735 0.5344 0.0
loop_
_geom_bond_atom_site_label_1
_geom_bond_atom_site_label_2
_geom_bond_distance
_geom_bond_site_symmetry_2
_ccdc_geom_bond_type
H0 C3 0.929 . S
H1 C6 0.929 . S
H2 C8 0.930 . S
C3 H0 0.929 . S
C3 C4 1.398 . S
C3 C5 1.396 . S
C4 C3 1.398 . S
C4 C8 1.407 . S
C5 C3 1.396 . S
C5 C6 1.394 . S
C6 H1 0.929 . S
C6 C5 1.394 . S
C6 C7 1.382 . S
C7 C6 1.382 . S
C7 C8 1.392 . S
C7 N9 1.420 . S
C8 H2 0.930 . S
C8 C4 1.407 . S
C8 C7 1.392 . S
N9 C7 1.420 . S
N9 C10 1.244 . S
C10 N9 1.244 . S
H11 C14 0.929 . S
H12 C17 0.929 . S
H13 C19 0.930 . S
C14 H11 0.929 . S
C14 C15 1.398 . S
C14 C16 1.396 . S
C15 C14 1.398 . S
C15 C19 1.407 . S
C16 C14 1.396 . S
C16 C17 1.394 . S
C17 H12 0.929 . S
C17 C16 1.394 . S
C17 C18 1.382 . S
C18 C17 1.382 . S
C18 C19 1.392 . S
C18 N20 1.420 . S
C19 H13 0.930 . S
C19 C15 1.407 . S
C19 C18 1.392 . S
N20 C18 1.420 . S
N20 C21 1.244 . S
C21 N20 1.244 . S
H22 C25 0.929 . S
H23 C28 0.929 . S
H24 C30 0.930 . S
C25 H22 0.929 . S
C25 C26 1.398 . S
C25 C27 1.396 . S
C26 C25 1.398 . S
C26 C30 1.407 . S
C27 C25 1.396 . S
C27 C28 1.394 . S
C28 H23 0.929 . S
C28 C27 1.394 . S
C28 C29 1.382 . S
C29 C28 1.382 . S
C29 C30 1.392 . S
C29 N31 1.420 . S
C30 H24 0.930 . S
C30 C26 1.407 . S
C30 C29 1.392 . S
N31 C29 1.420 . S
N31 C32 1.244 . S
C32 N31 1.244 . S
H33 C36 0.929 . S
H34 C39 0.929 . S
H35 C41 0.930 . S
C36 H33 0.929 . S
C36 C37 1.398 . S
C36 C38 1.396 . S
C37 C36 1.398 . S
C37 C41 1.407 . S
C38 C36 1.396 . S
C38 C39 1.394 . S
C39 H34 0.929 . S
C39 C38 1.394 . S
C39 C40 1.382 . S
C40 C39 1.382 . S
C40 C41 1.392 . S
C40 N42 1.420 . S
C41 H35 0.930 . S
C41 C37 1.407 . S
C41 C40 1.392 . S
N42 C40 1.420 . S
N42 C43 1.244 . S
C43 N42 1.244 . S
H44 C47 0.929 . S
H45 C50 0.929 . S
H46 C52 0.930 . S
C47 H44 0.929 . S
C47 C48 1.398 . S
C47 C49 1.396 . S
C48 C47 1.398 . S
C48 C52 1.407 . S
C49 C47 1.396 . S
C49 C50 1.394 . S
C50 H45 0.929 . S
C50 C49 1.394 . S
C50 C51 1.382 . S
C51 C50 1.382 . S
C51 C52 1.392 . S
C51 N53 1.420 . S
C52 H46 0.930 . S
C52 C48 1.407 . S
C52 C51 1.392 . S
N53 C51 1.420 . S
N53 C54 1.244 . S
C54 N53 1.244 . S
H55 C58 0.929 . S
H56 C61 0.929 . S
H57 C63 0.930 . S
C58 H55 0.929 . S
C58 C59 1.398 . S
C58 C60 1.396 . S
C59 C58 1.398 . S
C59 C63 1.407 . S
C60 C58 1.396 . S
C60 C61 1.394 . S
C61 H56 0.929 . S
C61 C60 1.394 . S
C61 C62 1.382 . S
C62 C61 1.382 . S
C62 C63 1.392 . S
C62 N64 1.420 . S
C63 H57 0.930 . S
C63 C59 1.407 . S
C63 C62 1.392 . S
N64 C62 1.420 . S
N64 C65 1.244 . S
C65 N64 1.244 . S
H66 C69 0.929 . S
H67 C72 0.929 . S
H68 C74 0.930 . S
C69 H66 0.929 . S
C69 C70 1.398 . S
C69 C71 1.396 . S
C70 C69 1.398 . S
C70 C74 1.407 . S
C71 C69 1.396 . S
C71 C72 1.394 . S
C72 H67 0.929 . S
C72 C71 1.394 . S
C72 C73 1.382 . S
C73 C72 1.382 . S
C73 C74 1.392 . S
C73 N75 1.420 . S
C74 H68 0.930 . S
C74 C70 1.407 . S
C74 C73 1.392 . S
N75 C73 1.420 . S
N75 C76 1.244 . S
C76 N75 1.244 . S
H77 C80 0.929 . S
H78 C83 0.929 . S
H79 C85 0.930 . S
C80 H77 0.929 . S
C80 C81 1.398 . S
C80 C82 1.396 . S
C81 C80 1.398 . S
C81 C85 1.407 . S
C82 C80 1.396 . S
C82 C83 1.394 . S
C83 H78 0.929 . S
C83 C82 1.394 . S
C83 C84 1.382 . S
C84 C83 1.382 . S
C84 C85 1.392 . S
C84 N86 1.420 . S
C85 H79 0.930 . S
C85 C81 1.407 . S
C85 C84 1.392 . S
N86 C84 1.420 . S
N86 C87 1.244 . S
C87 N86 1.244 . S
C88 C90 1.422 1_545 S
C88 C92 1.415 . S
C88 N94 1.369 . S
C89 C90 1.421 . S
C89 C91 1.417 . S
C89 C101 1.422 . S
C90 C88 1.422 1_565 S
C90 C89 1.421 . S
C90 N100 1.359 . S
C91 C89 1.417 . S
C91 C93 1.329 . S
C91 H110 0.930 . S
C92 C88 1.415 . S
C92 C93 1.437 1_545 S
C92 C96 1.413 . S
C93 C91 1.329 . S
C93 C92 1.437 1_565 S
C93 H115 0.929 . S
N94 C88 1.369 . S
N94 C95 1.338 . S
N94 Gd99 2.622 . S
C95 N94 1.338 . S
C95 C97 1.378 . S
C95 H107 0.929 . S
C96 C92 1.413 . S
C96 C97 1.348 . S
C96 H112 0.931 . S
C97 C95 1.378 . S
C97 C96 1.348 . S
C97 H113 0.930 . S
Gd98 N118 2.622 . S
Gd98 N125 2.570 . S
Gd98 O132 2.353 1_455 S
Gd98 O133 2.468 . S
Gd98 O134 2.427 . S
Gd98 O136 2.388 1_545 S
Gd98 O137 2.386 . S
Gd98 O141 2.298 1_455 S
Gd98 C151 2.805 . S
Gd99 N94 2.622 . S
Gd99 N100 2.570 1_545 S
Gd99 O131 2.386 . S
Gd99 O135 2.307 1_655 S
Gd99 O138 2.353 1_655 S
Gd99 O139 2.468 . S
Gd99 O140 2.427 . S
Gd99 O142 2.388 . S
Gd99 C163 2.805 . S
N100 C90 1.359 . S
N100 Gd99 2.570 1_565 S
N100 C102 1.343 . S
C101 C89 1.422 . S
C101 C103 1.321 . S
C101 H109 0.931 . S
C102 N100 1.343 . S
C102 C103 1.390 . S
C102 H104 0.931 . S
C103 C101 1.321 . S
C103 C102 1.390 . S
C103 H105 0.930 . S
H104 C102 0.931 . S
H105 C103 0.930 . S
H106 C129 0.931 . S
H107 C95 0.929 . S
H108 C130 0.930 . S
H109 C101 0.931 . S
H110 C91 0.930 . S
H111 C120 0.929 1_565 S
H112 C96 0.931 . S
H113 C97 0.930 . S
H114 C152 0.930 . S
H115 C93 0.929 . S
H116 C121 0.931 . S
H117 C122 0.930 1_565 S
N118 Gd98 2.622 . S
N118 C119 1.369 . S
N118 C120 1.338 . S
C119 N118 1.369 . S
C119 C123 1.415 . S
C119 C126 1.422 . S
C120 H111 0.929 1_545 S
C120 N118 1.338 . S
C120 C122 1.378 . S
C121 H116 0.931 . S
C121 C122 1.348 . S
C121 C123 1.413 . S
C122 H117 0.930 1_545 S
C122 C120 1.378 . S
C122 C121 1.348 . S
C123 C119 1.415 . S
C123 C121 1.413 . S
C123 C153 1.437 . S
H124 C153 0.929 . S
N125 Gd98 2.570 . S
N125 C126 1.359 . S
N125 C129 1.343 . S
C126 C119 1.422 . S
C126 N125 1.359 . S
C126 C128 1.421 . S
C127 C128 1.422 . S
C127 C130 1.321 . S
C127 H154 0.931 . S
C128 C126 1.421 . S
C128 C127 1.422 . S
C128 C152 1.417 . S
C129 H106 0.931 . S
C129 N125 1.343 . S
C129 C130 1.390 . S
C130 H108 0.930 . S
C130 C127 1.321 . S
C130 C129 1.390 . S
O131 Gd99 2.386 . S
O131 C143 1.265 1_545 S
O132 Gd98 2.353 1_655 S
O132 C143 1.242 1_545 S
O133 Gd98 2.468 . S
O133 C151 1.263 . S
O134 Gd98 2.427 . S
O134 C151 1.252 . S
O135 Gd99 2.307 1_455 S
O135 C144 1.261 1_545 S
O136 Gd98 2.388 1_565 S
O136 C144 1.252 . S
O137 Gd98 2.386 . S
O137 C155 1.265 . S
O138 Gd99 2.353 1_455 S
O138 C155 1.242 . S
O139 Gd99 2.468 . S
O139 C163 1.263 . S
O140 Gd99 2.427 . S
O140 C163 1.252 . S
O141 Gd98 2.298 1_655 S
O141 C156 1.271 . S
O142 Gd99 2.388 . S
O142 C156 1.252 . S
C143 O131 1.265 1_565 S
C143 O132 1.242 1_565 S
C144 O135 1.261 1_565 S
C144 O136 1.252 . S
C145 C148 1.394 1_545 S
C145 C150 1.370 . S
C145 C151 1.500 . S
C146 C149 1.383 . S
C146 C150 1.395 1_556 S
C147 C148 1.390 1_556 S
C147 C149 1.370 1_565 S
C147 H164 0.931 . S
C148 C145 1.394 1_565 S
C148 C147 1.390 1_554 S
C148 H165 0.930 . S
C149 C146 1.383 . S
C149 C147 1.370 1_545 S
C149 H166 0.931 1_545 S
C150 C145 1.370 . S
C150 C146 1.395 1_554 S
C150 H167 0.930 . S
C151 Gd98 2.805 . S
C151 O133 1.263 . S
C151 O134 1.252 . S
C151 C145 1.500 . S
C152 H114 0.930 . S
C152 C128 1.417 . S
C152 C153 1.329 . S
C153 C123 1.437 . S
C153 H124 0.929 . S
C153 C152 1.329 . S
H154 C127 0.931 . S
C155 O137 1.265 . S
C155 O138 1.242 . S
C156 O141 1.271 . S
C156 O142 1.252 . S
C157 C160 1.394 . S
C157 C162 1.370 . S
C157 C163 1.500 . S
C158 C161 1.383 . S
C158 C162 1.395 . S
C159 C160 1.396 . S
C159 C161 1.365 . S
C159 H168 0.929 . S
C160 C157 1.394 . S
C160 C159 1.396 . S
C160 H169 0.930 . S
C161 C158 1.383 . S
C161 C159 1.365 . S
C161 H170 0.931 . S
C162 C157 1.370 . S
C162 C158 1.395 . S
C162 H171 0.930 . S
C163 Gd99 2.805 . S
C163 O139 1.263 . S
C163 O140 1.252 . S
C163 C157 1.500 . S
H164 C147 0.931 . S
H165 C148 0.930 . S
H166 C149 0.931 1_565 S
H167 C150 0.930 . S
H168 C159 0.929 . S
H169 C160 0.930 . S
H170 C161 0.931 . S
H171 C162 0.930 . S
C172 C174 1.422 . S
C172 C176 1.415 . S
C172 N178 1.369 . S
C173 C174 1.421 . S
C173 C175 1.417 1_655 S
C173 C185 1.422 . S
C174 C172 1.422 . S
C174 C173 1.421 . S
C174 N184 1.359 . S
C175 C173 1.417 1_455 S
C175 C177 1.329 . S
C175 H194 0.930 . S
C176 C172 1.415 . S
C176 C177 1.437 1_655 S
C176 C180 1.413 1_655 S
C177 C175 1.329 . S
C177 C176 1.437 1_455 S
C177 H199 0.929 . S
N178 C172 1.369 . S
N178 C179 1.338 . S
N178 Gd183 2.622 . S
C179 N178 1.338 . S
C179 C181 1.378 . S
C179 H191 0.929 . S
C180 C176 1.413 1_455 S
C180 C181 1.348 1_455 S
C180 H196 0.931 . S
C181 C179 1.378 . S
C181 C180 1.348 1_655 S
C181 H197 0.930 1_655 S
Gd182 N202 2.622 . S
Gd182 N209 2.570 . S
Gd182 O216 2.353 . S
Gd182 O217 2.468 . S
Gd182 O218 2.427 . S
Gd182 O220 2.388 . S
Gd182 O221 2.386 . S
Gd182 O225 2.307 . S
Gd182 C235 2.805 . S
Gd183 N178 2.622 . S
Gd183 N184 2.570 . S
Gd183 O215 2.386 . S
Gd183 O219 2.307 . S
Gd183 O222 2.353 . S
Gd183 O223 2.468 . S
Gd183 O224 2.427 . S
Gd183 O226 2.388 . S
Gd183 C247 2.805 . S
N184 C174 1.359 . S
N184 Gd183 2.570 . S
N184 C186 1.343 . S
C185 C173 1.422 . S
C185 C187 1.321 . S
C185 H193 0.931 . S
C186 N184 1.343 . S
C186 C187 1.390 . S
C186 H188 0.931 . S
C187 C185 1.321 . S
C187 C186 1.390 . S
C187 H189 0.930 . S
H188 C186 0.931 . S
H189 C187 0.930 . S
H190 C213 0.931 . S
H191 C179 0.929 . S
H192 C214 0.930 . S
H193 C185 0.931 . S
H194 C175 0.930 . S
H195 C204 0.929 . S
H196 C180 0.931 . S
H197 C181 0.930 1_455 S
H198 C236 0.930 1_655 S
H199 C177 0.929 . S
H200 C205 0.931 . S
H201 C206 0.930 . S
N202 Gd182 2.622 . S
N202 C203 1.369 . S
N202 C204 1.338 . S
C203 N202 1.369 . S
C203 C207 1.415 . S
C203 C210 1.422 . S
C204 H195 0.929 . S
C204 N202 1.338 . S
C204 C206 1.378 . S
C205 H200 0.931 . S
C205 C206 1.348 1_655 S
C205 C207 1.413 1_655 S
C206 H201 0.930 . S
C206 C204 1.378 . S
C206 C205 1.348 1_455 S
C207 C203 1.415 . S
C207 C205 1.413 1_455 S
C207 C237 1.437 1_455 S
H208 C237 0.929 . S
N209 Gd182 2.570 . S
N209 C210 1.359 . S
N209 C213 1.343 . S
C210 C203 1.422 . S
C210 N209 1.359 . S
C210 C212 1.421 . S
C211 C212 1.422 . S
C211 C214 1.321 . S
C211 H238 0.931 . S
C212 C210 1.421 . S
C212 C211 1.422 . S
C212 C236 1.417 . S
C213 H190 0.931 . S
C213 N209 1.343 . S
C213 C214 1.390 . S
C214 H192 0.930 . S
C214 C211 1.321 . S
C214 C213 1.390 . S
O215 Gd183 2.386 . S
O215 C227 1.265 . S
O216 Gd182 2.353 . S
O216 C227 1.242 . S
O217 Gd182 2.468 . S
O217 C235 1.263 . S
O218 Gd182 2.427 . S
O218 C235 1.252 . S
O219 Gd183 2.307 . S
O219 C228 1.261 . S
O220 Gd182 2.388 . S
O220 C228 1.252 . S
O221 Gd182 2.386 . S
O221 C239 1.265 . S
O222 Gd183 2.353 . S
O222 C239 1.242 . S
O223 Gd183 2.468 . S
O223 C247 1.263 . S
O224 Gd183 2.427 . S
O224 C247 1.252 . S
O225 Gd182 2.307 . S
O225 C240 1.261 . S
O226 Gd183 2.388 . S
O226 C240 1.252 . S
C227 O215 1.265 . S
C227 O216 1.242 . S
C228 O219 1.261 . S
C228 O220 1.252 . S
C229 C232 1.394 . S
C229 C234 1.370 . S
C229 C235 1.500 . S
C230 C233 1.383 . S
C230 C234 1.395 . S
C231 C232 1.396 . S
C231 C233 1.365 . S
C231 H248 0.929 . S
C232 C229 1.394 . S
C232 C231 1.396 . S
C232 H249 0.930 . S
C233 C230 1.383 . S
C233 C231 1.365 . S
C233 H250 0.931 . S
C234 C229 1.370 . S
C234 C230 1.395 . S
C234 H251 0.930 . S
C235 Gd182 2.805 . S
C235 O217 1.263 . S
C235 O218 1.252 . S
C235 C229 1.500 . S
C236 H198 0.930 1_455 S
C236 C212 1.417 . S
C236 C237 1.329 1_455 S
C237 C207 1.437 1_655 S
C237 H208 0.929 . S
C237 C236 1.329 1_655 S
H238 C211 0.931 . S
C239 O221 1.265 . S
C239 O222 1.242 . S
C240 O225 1.261 . S
C240 O226 1.252 . S
C241 C244 1.394 . S
C241 C246 1.370 . S
C241 C247 1.500 . S
C242 C245 1.383 . S
C242 C246 1.395 1_554 S
C243 C244 1.396 1_554 S
C243 C245 1.365 . S
C243 H252 0.929 . S
C244 C241 1.394 . S
C244 C243 1.396 1_556 S
C244 H253 0.930 . S
C245 C242 1.383 . S
C245 C243 1.365 . S
C245 H254 0.931 . S
C246 C241 1.370 . S
C246 C242 1.395 1_556 S
C246 H255 0.930 . S
C247 Gd183 2.805 . S
C247 O223 1.263 . S
C247 O224 1.252 . S
C247 C241 1.500 . S
H248 C231 0.929 . S
H249 C232 0.930 . S
H250 C233 0.931 . S
H251 C234 0.930 . S
H252 C243 0.929 . S
H253 C244 0.930 . S
H254 C245 0.931 . S
H255 C246 0.930 . S
C256 C258 1.422 . S
C256 C260 1.415 . S
C256 N262 1.369 . S
C257 C258 1.421 . S
C257 C259 1.417 . S
C257 C269 1.422 . S
C258 C256 1.422 . S
C258 C257 1.421 . S
C258 N268 1.359 . S
C259 C257 1.417 . S
C259 C261 1.329 . S
C259 H278 0.930 . S
C260 C256 1.415 . S
C260 C261 1.437 . S
C260 C264 1.413 . S
C261 C259 1.329 . S
C261 C260 1.437 . S
C261 H283 0.929 . S
N262 C256 1.369 . S
N262 C263 1.338 . S
N262 Gd267 2.622 . S
C263 N262 1.338 . S
C263 C265 1.378 . S
C263 H275 0.929 1_565 S
C264 C260 1.413 . S
C264 C265 1.348 . S
C264 H280 0.931 . S
C265 C263 1.378 . S
C265 C264 1.348 . S
C265 H281 0.930 1_565 S
Gd266 N286 2.622 . S
Gd266 N293 2.570 1_565 S
Gd266 O300 2.353 1_455 S
Gd266 O301 2.468 . S
Gd266 O302 2.427 . S
Gd266 O304 2.388 . S
Gd266 O305 2.386 . S
Gd266 O309 2.307 1_455 S
Gd266 C319 2.805 . S
Gd267 N262 2.622 . S
Gd267 N268 2.570 . S
Gd267 O299 2.386 . S
Gd267 O303 2.307 1_655 S
Gd267 O306 2.353 1_655 S
Gd267 O307 2.468 . S
Gd267 O308 2.427 . S
Gd267 O310 2.388 1_565 S
Gd267 C331 2.805 . S
N268 C258 1.359 . S
N268 Gd267 2.570 . S
N268 C270 1.343 . S
C269 C257 1.422 . S
C269 C271 1.321 . S
C269 H277 0.931 . S
C270 N268 1.343 . S
C270 C271 1.390 . S
C270 H272 0.931 . S
C271 C269 1.321 . S
C271 C270 1.390 . S
C271 H273 0.930 . S
H272 C270 0.931 . S
H273 C271 0.930 . S
H274 C297 0.931 . S
H275 C263 0.929 1_545 S
H276 C298 0.930 . S
H277 C269 0.931 . S
H278 C259 0.930 . S
H279 C288 0.929 . S
H280 C264 0.931 . S
H281 C265 0.930 1_545 S
H282 C320 0.930 . S
H283 C261 0.929 . S
H284 C289 0.931 . S
H285 C290 0.930 . S
N286 Gd266 2.622 . S
N286 C287 1.369 . S
N286 C288 1.338 . S
C287 N286 1.369 . S
C287 C291 1.415 . S
C287 C294 1.422 1_565 S
C288 H279 0.929 . S
C288 N286 1.338 . S
C288 C290 1.378 . S
C289 H284 0.931 . S
C289 C290 1.348 . S
C289 C291 1.413 . S
C290 H285 0.930 . S
C290 C288 1.378 . S
C290 C289 1.348 . S
C291 C287 1.415 . S
C291 C289 1.413 . S
C291 C321 1.437 1_565 S
H292 C321 0.929 . S
N293 Gd266 2.570 1_545 S
N293 C294 1.359 . S
N293 C297 1.343 . S
C294 C287 1.422 1_545 S
C294 N293 1.359 . S
C294 C296 1.421 . S
C295 C296 1.422 . S
C295 C298 1.321 . S
C295 H322 0.931 . S
C296 C294 1.421 . S
C296 C295 1.422 . S
C296 C320 1.417 . S
C297 H274 0.931 . S
C297 N293 1.343 . S
C297 C298 1.390 . S
C298 H276 0.930 . S
C298 C295 1.321 . S
C298 C297 1.390 . S
O299 Gd267 2.386 . S
O299 C311 1.265 . S
O300 Gd266 2.353 1_655 S
O300 C311 1.242 . S
O301 Gd266 2.468 . S
O301 C319 1.263 . S
O302 Gd266 2.427 . S
O302 C319 1.252 . S
O303 Gd267 2.307 1_455 S
O303 C312 1.261 . S
O304 Gd266 2.388 . S
O304 C312 1.252 . S
O305 Gd266 2.386 . S
O305 C323 1.265 1_565 S
O306 Gd267 2.353 1_455 S
O306 C323 1.242 1_565 S
O307 Gd267 2.468 . S
O307 C331 1.263 . S
O308 Gd267 2.427 . S
O308 C331 1.252 . S
O309 Gd266 2.307 1_655 S
O309 C324 1.261 1_565 S
O310 Gd267 2.388 1_545 S
O310 C324 1.252 . S
C311 O299 1.265 . S
C311 O300 1.242 . S
C312 O303 1.261 . S
C312 O304 1.252 . S
C313 C316 1.394 . S
C313 C318 1.370 . S
C313 C319 1.500 . S
C314 C317 1.383 . S
C314 C318 1.395 . S
C315 C316 1.396 . S
C315 C317 1.365 . S
C315 H332 0.929 . S
C316 C313 1.394 . S
C316 C315 1.396 . S
C316 H333 0.930 . S
C317 C314 1.383 . S
C317 C315 1.365 . S
C317 H334 0.931 . S
C318 C313 1.370 . S
C318 C314 1.395 . S
C318 H335 0.930 . S
C319 Gd266 2.805 . S
C319 O301 1.263 . S
C319 O302 1.252 . S
C319 C313 1.500 . S
C320 H282 0.930 . S
C320 C296 1.417 . S
C320 C321 1.329 . S
C321 C291 1.437 1_545 S
C321 H292 0.929 . S
C321 C320 1.329 . S
H322 C295 0.931 . S
C323 O305 1.265 1_545 S
C323 O306 1.242 1_545 S
C324 O309 1.261 1_545 S
C324 O310 1.252 . S
C325 C328 1.394 1_565 S
C325 C330 1.370 . S
C325 C331 1.500 . S
C326 C329 1.383 . S
C326 C330 1.395 1_554 S
C327 C328 1.396 1_554 S
C327 C329 1.365 1_545 S
C327 H336 0.929 . S
C328 C325 1.394 1_545 S
C328 C327 1.396 1_556 S
C328 H337 0.930 . S
C329 C326 1.383 . S
C329 C327 1.365 1_565 S
C329 H338 0.931 1_565 S
C330 C325 1.370 . S
C330 C326 1.395 1_556 S
C330 H339 0.930 . S
C331 Gd267 2.805 . S
C331 O307 1.263 . S
C331 O308 1.252 . S
C331 C325 1.500 . S
H332 C315 0.929 . S
H333 C316 0.930 . S
H334 C317 0.931 . S
H335 C318 0.930 . S
H336 C327 0.929 . S
H337 C328 0.930 . S
H338 C329 0.931 1_545 S
H339 C330 0.930 . S
C340 C342 1.422 . S
C340 C344 1.415 . S
C340 N346 1.369 . S
C341 C342 1.421 . S
C341 C343 1.417 . S
C341 C353 1.422 . S
C342 C340 1.422 . S
C342 C341 1.421 . S
C342 N352 1.359 . S
C343 C341 1.417 . S
C343 C345 1.329 1_655 S
C343 H362 0.930 1_655 S
C344 C340 1.415 . S
C344 C345 1.437 1_655 S
C344 C348 1.413 1_655 S
C345 C343 1.329 1_455 S
C345 C344 1.437 1_455 S
C345 H367 0.929 . S
N346 C340 1.369 . S
N346 C347 1.338 . S
N346 Gd351 2.622 . S
C347 N346 1.338 . S
C347 C349 1.378 . S
C347 H359 0.929 . S
C348 C344 1.413 1_455 S
C348 C349 1.348 1_455 S
C348 H364 0.931 . S
C349 C347 1.378 . S
C349 C348 1.348 1_655 S
C349 H365 0.930 1_655 S
Gd350 N370 2.622 . S
Gd350 N377 2.570 . S
Gd350 O384 2.353 . S
Gd350 O385 2.468 . S
Gd350 O386 2.427 . S
Gd350 O388 2.388 . S
Gd350 O389 2.386 . S
Gd350 O393 2.307 . S
Gd350 C403 2.805 . S
Gd351 N346 2.622 . S
Gd351 N352 2.570 . S
Gd351 O383 2.386 . S
Gd351 O387 2.307 . S
Gd351 O390 2.353 . S
Gd351 O391 2.468 . S
Gd351 O392 2.427 . S
Gd351 O394 2.388 . S
Gd351 C415 2.805 . S
N352 C342 1.359 . S
N352 Gd351 2.570 . S
N352 C354 1.343 . S
C353 C341 1.422 . S
C353 C355 1.321 . S
C353 H361 0.931 . S
C354 N352 1.343 . S
C354 C355 1.390 . S
C354 H356 0.931 . S
C355 C353 1.321 . S
C355 C354 1.390 . S
C355 H357 0.930 . S
H356 C354 0.931 . S
H357 C355 0.930 . S
H358 C381 0.931 . S
H359 C347 0.929 . S
H360 C382 0.930 . S
H361 C353 0.931 . S
H362 C343 0.930 1_455 S
H363 C372 0.929 . S
H364 C348 0.931 . S
H365 C349 0.930 1_455 S
H366 C404 0.930 1_655 S
H367 C345 0.929 . S
H368 C373 0.931 . S
H369 C374 0.930 1_655 S
N370 Gd350 2.622 . S
N370 C371 1.369 . S
N370 C372 1.338 . S
C371 N370 1.369 . S
C371 C375 1.415 . S
C371 C378 1.422 . S
C372 H363 0.929 . S
C372 N370 1.338 . S
C372 C374 1.378 . S
C373 H368 0.931 . S
C373 C374 1.348 1_655 S
C373 C375 1.413 1_655 S
C374 H369 0.930 1_455 S
C374 C372 1.378 . S
C374 C373 1.348 1_455 S
C375 C371 1.415 . S
C375 C373 1.413 1_455 S
C375 C405 1.437 1_455 S
H376 C405 0.929 . S
N377 Gd350 2.570 . S
N377 C378 1.359 . S
N377 C381 1.343 . S
C378 C371 1.422 . S
C378 N377 1.359 . S
C378 C380 1.421 . S
C379 C380 1.422 . S
C379 C382 1.321 . S
C379 H406 0.931 . S
C380 C378 1.421 . S
C380 C379 1.422 . S
C380 C404 1.417 . S
C381 H358 0.931 . S
C381 N377 1.343 . S
C381 C382 1.390 . S
C382 H360 0.930 . S
C382 C379 1.321 . S
C382 C381 1.390 . S
O383 Gd351 2.386 . S
O383 C395 1.265 . S
O384 Gd350 2.353 . S
O384 C395 1.242 . S
O385 Gd350 2.468 . S
O385 C403 1.263 . S
O386 Gd350 2.427 . S
O386 C403 1.252 . S
O387 Gd351 2.307 . S
O387 C396 1.261 . S
O388 Gd350 2.388 . S
O388 C396 1.252 . S
O389 Gd350 2.386 . S
O389 C407 1.265 . S
O390 Gd351 2.353 . S
O390 C407 1.242 . S
O391 Gd351 2.468 . S
O391 C415 1.263 . S
O392 Gd351 2.427 . S
O392 C415 1.252 . S
O393 Gd350 2.307 . S
O393 C408 1.261 . S
O394 Gd351 2.388 . S
O394 C408 1.252 . S
C395 O383 1.265 . S
C395 O384 1.242 . S
C396 O387 1.261 . S
C396 O388 1.252 . S
C397 C400 1.394 . S
C397 C402 1.370 . S
C397 C403 1.500 . S
C398 C401 1.383 . S
C398 C402 1.395 1_556 S
C399 C400 1.396 1_556 S
C399 C401 1.365 . S
C399 H416 0.929 . S
C400 C397 1.394 . S
C400 C399 1.396 1_554 S
C400 H417 0.930 . S
C401 C398 1.383 . S
C401 C399 1.365 . S
C401 H418 0.931 . S
C402 C397 1.370 . S
C402 C398 1.395 1_554 S
C402 H419 0.930 . S
C403 Gd350 2.805 . S
C403 O385 1.263 . S
C403 O386 1.252 . S
C403 C397 1.500 . S
C404 H366 0.930 1_455 S
C404 C380 1.417 . S
C404 C405 1.329 1_455 S
C405 C375 1.437 1_655 S
C405 H376 0.929 . S
C405 C404 1.329 1_655 S
H406 C379 0.931 . S
C407 O389 1.265 . S
C407 O390 1.242 . S
C408 O393 1.261 . S
C408 O394 1.252 . S
C409 C412 1.394 . S
C409 C414 1.370 . S
C409 C415 1.500 . S
C410 C413 1.383 . S
C410 C414 1.395 . S
C411 C412 1.396 . S
C411 C413 1.365 . S
C411 H420 0.929 . S
C412 C409 1.394 . S
C412 C411 1.396 . S
C412 H421 0.930 . S
C413 C410 1.383 . S
C413 C411 1.365 . S
C413 H422 0.931 . S
C414 C409 1.370 . S
C414 C410 1.395 . S
C414 H423 0.930 . S
C415 Gd351 2.805 . S
C415 O391 1.263 . S
C415 O392 1.252 . S
C415 C409 1.500 . S
H416 C399 0.929 . S
H417 C400 0.930 . S
H418 C401 0.931 . S
H419 C402 0.930 . S
H420 C411 0.929 . S
H421 C412 0.930 . S
H422 C413 0.931 . S
H423 C414 0.930 . S
C71 C144 1.885 . S
C228 C81 1.910 . S
C227 C49 1.820 . S
C59 C143 1.827 . S
C324 C27 1.904 . S
C408 C38 1.931 . S
C5 C407 1.835 . S
C16 C323 1.882 . S
C146 C15 1.481 . S
C230 C4 1.560 . S
C242 C37 1.262 . S
C158 C26 1.282 . S
C326 C60 1.619 . S
C48 C410 1.611 . S
C398 C82 1.321 . S
C70 C314 1.348 . S
C155 C10 1.526 . S
C239 C21 1.568 . S
C32 C240 1.391 . S
C156 C43 1.440 . S
C311 C54 1.577 . S
C65 C395 1.579 . S
C76 C396 1.506 . S
C87 C312 1.574 . S
