# Generated by pormake.
# Topology pyr, (3,6)-cn, num edge types: 1
# Building blocks:
#     Node 0, Type 0, BuildingBlock: ESEHIV_clean_linker_0, # of connection points: 3
#     Node 1, Type 0, BuildingBlock: ESEHIV_clean_linker_0, # of connection points: 3
#     Node 2, Type 0, BuildingBlock: ESEHIV_clean_linker_0, # of connection points: 3
#     Node 3, Type 0, BuildingBlock: ESEHIV_clean_linker_0, # of connection points: 3
#     Node 4, Type 0, BuildingBlock: ESEHIV_clean_linker_0, # of connection points: 3
#     Node 5, Type 0, BuildingBlock: ESEHIV_clean_linker_0, # of connection points: 3
#     Node 6, Type 0, BuildingBlock: ESEHIV_clean_linker_0, # of connection points: 3
#     Node 7, Type 0, BuildingBlock: ESEHIV_clean_linker_0, # of connection points: 3
#     Node 8, Type 1, BuildingBlock: BETDEL_clean_sbu_0, # of connection points: 6
#     Node 9, Type 1, BuildingBlock: BETDEL_clean_sbu_0, # of connection points: 6
#     Node 10, Type 1, BuildingBlock: BETDEL_clean_sbu_0, # of connection points: 6
#     Node 11, Type 1, BuildingBlock: BETDEL_clean_sbu_0, # of connection points: 6
#     Edge 12, Type (0, 1), BuildingBlock: TEMPAE_clean_linker_10, # of connection points: 2
#     Edge 13, Type (0, 1), BuildingBlock: TEMPAE_clean_linker_10, # of connection points: 2
#     Edge 14, Type (0, 1), BuildingBlock: TEMPAE_clean_linker_10, # of connection points: 2
#     Edge 15, Type (0, 1), BuildingBlock: TEMPAE_clean_linker_10, # of connection points: 2
#     Edge 16, Type (0, 1), BuildingBlock: TEMPAE_clean_linker_10, # of connection points: 2
#     Edge 17, Type (0, 1), BuildingBlock: TEMPAE_clean_linker_10, # of connection points: 2
#     Edge 18, Type (0, 1), BuildingBlock: TEMPAE_clean_linker_10, # of connection points: 2
#     Edge 19, Type (0, 1), BuildingBlock: TEMPAE_clean_linker_10, # of connection points: 2
#     Edge 20, Type (0, 1), BuildingBlock: TEMPAE_clean_linker_10, # of connection points: 2
#     Edge 21, Type (0, 1), BuildingBlock: TEMPAE_clean_linker_10, # of connection points: 2
#     Edge 22, Type (0, 1), BuildingBlock: TEMPAE_clean_linker_10, # of connection points: 2
#     Edge 23, Type (0, 1), BuildingBlock: TEMPAE_clean_linker_10, # of connection points: 2
#     Edge 24, Type (0, 1), BuildingBlock: TEMPAE_clean_linker_10, # of connection points: 2
#     Edge 25, Type (0, 1), BuildingBlock: TEMPAE_clean_linker_10, # of connection points: 2
#     Edge 26, Type (0, 1), BuildingBlock: TEMPAE_clean_linker_10, # of connection points: 2
#     Edge 27, Type (0, 1), BuildingBlock: TEMPAE_clean_linker_10, # of connection points: 2
#     Edge 28, Type (0, 1), BuildingBlock: TEMPAE_clean_linker_10, # of connection points: 2
#     Edge 29, Type (0, 1), BuildingBlock: TEMPAE_clean_linker_10, # of connection points: 2
#     Edge 30, Type (0, 1), BuildingBlock: TEMPAE_clean_linker_10, # of connection points: 2
#     Edge 31, Type (0, 1), BuildingBlock: TEMPAE_clean_linker_10, # of connection points: 2
#     Edge 32, Type (0, 1), BuildingBlock: TEMPAE_clean_linker_10, # of connection points: 2
#     Edge 33, Type (0, 1), BuildingBlock: TEMPAE_clean_linker_10, # of connection points: 2
#     Edge 34, Type (0, 1), BuildingBlock: TEMPAE_clean_linker_10, # of connection points: 2
#     Edge 35, Type (0, 1), BuildingBlock: TEMPAE_clean_linker_10, # of connection points: 2
# Relax obj value: 0.032
# Max RMSD: 0.092
# Mean RMSD: 0.039
data_MOF--net-pyr--node1-BETDEL_clean_sbu_0--node2-ESEHIV_clean_linker_0--edge1-TEMPAE_clean_linker_10
_symmetry_space_group_name_H-M    P1
_symmetry_Int_Tables_number       1
_symmetry_cell_setting            triclinic
loop_
_symmetry_equiv_pos_as_xyz
'x, y, z'
_cell_length_a     35.011944
_cell_length_b     36.524867
_cell_length_c     33.837051
_cell_angle_alpha  91.572072
_cell_angle_beta   89.094141
_cell_angle_gamma 95.729139
loop_
_atom_site_label
_atom_site_type_symbol
_atom_site_fract_x
_atom_site_fract_y
_atom_site_fract_z
_atom_type_partial_charge
H0 H 0.1556 0.23343 0.16927 0.0
H1 H 0.24113 0.17171 0.21757 0.0
H2 H 0.26182 0.2258 0.1064 0.0
C3 C 0.18378 0.22351 0.16746 0.0
C4 C 0.20784 0.23253 0.13504 0.0
C5 C 0.19545 0.20141 0.19718 0.0
C6 C 0.23221 0.18925 0.19485 0.0
C7 C 0.25651 0.19763 0.16215 0.0
C8 C 0.2442 0.21989 0.13252 0.0
H9 H 0.23185 0.86741 0.70828 0.0
H10 H 0.30871 0.78476 0.72245 0.0
H11 H 0.24843 0.79009 0.61283 0.0
C12 C 0.24451 0.84328 0.69685 0.0
C13 C 0.23577 0.82951 0.65858 0.0
C14 C 0.27113 0.82734 0.71953 0.0
C15 C 0.28837 0.79696 0.7043 0.0
C16 C 0.281 0.78335 0.66564 0.0
C17 C 0.25387 0.79942 0.64308 0.0
H18 H 0.68925 0.30174 0.88893 0.0
H19 H 0.69142 0.39188 0.81005 0.0
H20 H 0.59582 0.3074 0.8092 0.0
C21 C 0.6759 0.31576 0.86579 0.0
C22 C 0.64078 0.30023 0.85021 0.0
C23 C 0.694 0.34912 0.85194 0.0
C24 C 0.67682 0.36671 0.82131 0.0
C25 C 0.64116 0.35234 0.80539 0.0
C26 C 0.62327 0.31901 0.82054 0.0
H27 H 0.80777 0.69859 0.3877 0.0
H28 H 0.89554 0.69528 0.29739 0.0
H29 H 0.80547 0.60637 0.30574 0.0
C30 C 0.81995 0.68505 0.36226 0.0
C31 C 0.80244 0.65071 0.34886 0.0
C32 C 0.85364 0.70151 0.34413 0.0
C33 C 0.86994 0.68277 0.31203 0.0
C34 C 0.85259 0.64856 0.2977 0.0
C35 C 0.81889 0.63274 0.31643 0.0
H36 H 0.76247 0.84229 0.78413 0.0
H37 H 0.83831 0.76382 0.81845 0.0
H38 H 0.73979 0.78125 0.89066 0.0
C39 C 0.76932 0.82116 0.80395 0.0
C40 C 0.746 0.81315 0.83745 0.0
C41 C 0.80309 0.80405 0.79747 0.0
C42 C 0.81201 0.77683 0.82308 0.0
C43 C 0.78895 0.76832 0.85636 0.0
C44 C 0.75623 0.78664 0.86367 0.0
H45 H 0.7031 0.23762 0.29455 0.0
H46 H 0.77779 0.1526 0.3065 0.0
H47 H 0.77124 0.23495 0.39926 0.0
C48 C 0.72482 0.22572 0.31117 0.0
C49 C 0.73607 0.24098 0.34824 0.0
C50 C 0.74002 0.19418 0.29596 0.0
C51 C 0.76678 0.1776 0.31788 0.0
C52 C 0.77798 0.19203 0.35525 0.0
C53 C 0.76293 0.22401 0.3702 0.0
H54 H 0.32365 0.72071 0.12134 0.0
H55 H 0.31901 0.62974 0.19937 0.0
H56 H 0.41469 0.71404 0.20382 0.0
C57 C 0.33629 0.70644 0.14476 0.0
C58 C 0.37099 0.72172 0.16145 0.0
C59 C 0.31769 0.67302 0.15785 0.0
C60 C 0.33395 0.65503 0.18876 0.0
C61 C 0.36916 0.66916 0.2058 0.0
C62 C 0.38758 0.70262 0.19152 0.0
H63 H 0.10866 0.32471 0.7081 0.0
H64 H 0.20053 0.31894 0.62353 0.0
H65 H 0.20269 0.41101 0.70484 0.0
C66 C 0.13573 0.33656 0.69603 0.0
C67 C 0.15297 0.37073 0.71123 0.0
C68 C 0.15315 0.31712 0.66519 0.0
C69 C 0.18764 0.33291 0.64826 0.0
C70 C 0.20508 0.36713 0.66183 0.0
C71 C 0.18794 0.38552 0.69358 0.0
Dy72 Dy 0.02106 0.02098 0.46653 0.0
C73 C 0.9692 0.95456 0.61007 0.0
C74 C 0.04088 0.05988 0.40077 0.0
Dy75 Dy 0.98882 0.99522 0.54545 0.0
O76 O 0.05124 0.02764 0.40797 0.0
O77 O 0.01932 0.07083 0.42936 0.0
O78 O 0.06417 0.97948 0.46644 0.0
O79 O 0.04622 1.00235 0.52026 0.0
C80 C 0.06517 0.97811 0.50464 0.0
C81 C 0.94484 0.03826 0.50748 0.0
O82 O 0.02791 0.04383 0.56736 0.0
O83 O 0.03636 0.07083 0.50628 0.0
O84 O 0.99039 0.94432 0.58084 0.0
O85 O 0.95925 0.98726 0.60429 0.0
O86 O 0.94563 0.0367 0.5457 0.0
O87 O 0.96371 0.01394 0.49189 0.0
O88 O 0.98165 0.97278 0.44448 0.0
O89 O 0.97324 0.94556 0.50537 0.0
C90 C 0.03926 0.0726 0.54539 0.0
C91 C 0.97022 0.94396 0.46627 0.0
Dy92 Dy 0.54237 0.02512 0.03561 0.0
C93 C 0.40973 0.95751 0.94244 0.0
C94 C 0.60376 0.06367 0.0704 0.0
Dy95 Dy 0.47204 0.99572 0.97595 0.0
O96 O 0.59923 0.02807 0.06567 0.0
O97 O 0.57483 0.07824 0.05581 0.0
O98 O 0.52783 0.98176 0.08204 0.0
O99 O 0.49607 0.98174 0.03138 0.0
C100 C 0.49936 0.96454 0.06266 0.0
C101 C 0.51474 0.05648 0.94903 0.0
O102 O 0.44315 0.02557 0.02471 0.0
O103 O 0.49565 0.0581 0.05682 0.0
O104 O 0.41462 0.9931 0.9471 0.0
O105 O 0.43896 0.94274 0.95616 0.0
O106 O 0.48624 0.03925 0.92967 0.0
O107 O 0.51826 0.03917 0.9802 0.0
O108 O 0.57152 0.99534 0.98686 0.0
O109 O 0.51899 0.96328 0.95419 0.0
C110 C 0.45833 0.05113 0.05023 0.0
C111 C 0.55632 0.97022 0.96085 0.0
Dy112 Dy 0.51632 0.4765 0.47917 0.0
C113 C 0.44875 0.59191 0.56316 0.0
C114 C 0.56488 0.43086 0.44464 0.0
Dy115 Dy 0.49106 0.54049 0.52892 0.0
O116 O 0.52759 0.42593 0.44264 0.0
O117 O 0.57527 0.46075 0.46487 0.0
O118 O 0.45539 0.44936 0.47748 0.0
O119 O 0.47436 0.48161 0.52666 0.0
C120 C 0.44535 0.46423 0.51101 0.0
C121 C 0.56233 0.55128 0.49775 0.0
O122 O 0.51392 0.50996 0.57871 0.0
O123 O 0.54332 0.46813 0.5384 0.0
O124 O 0.47708 0.59881 0.53846 0.0
O125 O 0.44417 0.55697 0.57018 0.0
O126 O 0.55293 0.56467 0.53224 0.0
O127 O 0.53294 0.53528 0.48142 0.0
O128 O 0.4972 0.51097 0.43072 0.0
O129 O 0.45797 0.54266 0.47198 0.0
C130 C 0.53629 0.48281 0.57386 0.0
C131 C 0.46981 0.53332 0.43591 0.0
Dy132 Dy 0.01771 0.47559 0.02026 0.0
C133 C 0.95058 0.60975 0.99055 0.0
C134 C 0.05731 0.41685 0.03135 0.0
Dy135 Dy 0.99167 0.55089 0.99013 0.0
O136 O 0.04257 0.43612 0.05948 0.0
O137 O 0.04985 0.42923 0.99701 0.0
O138 O 0.97217 0.47549 0.0681 0.0
O139 O 0.99798 0.52559 0.04699 0.0
C140 C 0.97199 0.51118 0.0696 0.0
C141 C 0.02582 0.51315 0.93164 0.0
O142 O 0.04649 0.57189 0.02055 0.0
O143 O 0.07041 0.51528 0.03024 0.0
O144 O 0.9851 0.60946 0.97555 0.0
O145 O 0.93886 0.57802 0.00515 0.0
O146 O 0.0118 0.54426 0.92572 0.0
O147 O 0.01994 0.50589 0.9673 0.0
O148 O 0.96614 0.45407 0.98521 0.0
O149 O 0.94002 0.50999 0.97959 0.0
C150 C 0.07422 0.55194 0.0314 0.0
C151 C 0.93782 0.47354 0.9753 0.0
C152 C 0.13023 0.17431 0.2178 0.0
C153 C 0.1678 0.18769 0.22818 0.0
C154 C 0.10498 0.15696 0.24552 0.0
C155 C 0.11782 0.15264 0.28433 0.0
C156 C 0.15495 0.16786 0.29559 0.0
C157 C 0.17957 0.18527 0.2673 0.0
C158 C 0.06551 0.14117 0.23253 0.0
C159 C 0.16948 0.1639 0.33689 0.0
C160 C 0.04956 0.1198 0.36688 0.0
C161 C 0.05625 0.08268 0.36809 0.0
C162 C 0.06849 0.14293 0.33883 0.0
C163 C 0.09448 0.12833 0.31165 0.0
C164 C 0.09981 0.09043 0.31165 0.0
C165 C 0.08059 0.06803 0.33997 0.0
C166 C 0.06196 0.18318 0.33938 0.0
C167 C 0.12705 0.0738 0.28281 0.0
H168 H 0.1211 0.17573 0.18747 0.0
H169 H 0.2084 0.1961 0.27549 0.0
H170 H 0.06444 0.11072 0.23034 0.0
H171 H 0.04338 0.14808 0.25456 0.0
H172 H 0.05803 0.1514 0.2033 0.0
H173 H 0.19744 0.18045 0.34196 0.0
H174 H 0.14833 0.1725 0.35915 0.0
H175 H 0.17317 0.13456 0.34188 0.0
H176 H 0.03063 0.13105 0.3887 0.0
H177 H 0.08557 0.03924 0.34087 0.0
H178 H 0.05568 0.19193 0.30922 0.0
H179 H 0.08843 0.19997 0.34922 0.0
H180 H 0.03795 0.18931 0.35956 0.0
H181 H 0.11977 0.07984 0.25203 0.0
H182 H 0.12636 0.04349 0.28549 0.0
H183 H 0.15681 0.08626 0.28807 0.0
C184 C 0.26097 0.85054 0.78892 0.0
C185 C 0.28549 0.84546 0.75658 0.0
C186 C 0.27536 0.8676 0.82413 0.0
C187 C 0.31483 0.88049 0.82626 0.0
C188 C 0.33942 0.87576 0.79329 0.0
C189 C 0.32447 0.85799 0.759 0.0
C190 C 0.24859 0.87159 0.85902 0.0
C191 C 0.38154 0.88973 0.79401 0.0
C192 C 0.35697 0.95698 0.89425 0.0
C193 C 0.37904 0.93753 0.91891 0.0
C194 C 0.3332 0.93843 0.86568 0.0
C195 C 0.33107 0.89956 0.8624 0.0
C196 C 0.35042 0.87971 0.88989 0.0
C197 C 0.37462 0.89902 0.91763 0.0
C198 C 0.31345 0.96067 0.83663 0.0
C199 C 0.34807 0.83821 0.88797 0.0
H200 H 0.2308 0.84069 0.78679 0.0
H201 H 0.3432 0.85432 0.73365 0.0
H202 H 0.25912 0.85767 0.88487 0.0
H203 H 0.24809 0.90108 0.86754 0.0
H204 H 0.2188 0.85969 0.85268 0.0
H205 H 0.39639 0.88461 0.76543 0.0
H206 H 0.38491 0.91976 0.80083 0.0
H207 H 0.3961 0.87611 0.81761 0.0
H208 H 0.36027 0.98682 0.89539 0.0
H209 H 0.39137 0.88399 0.93711 0.0
H210 H 0.2835 0.94869 0.83172 0.0
H211 H 0.32883 0.96012 0.80772 0.0
H212 H 0.31311 0.98983 0.84676 0.0
H213 H 0.31813 0.82621 0.88288 0.0
H214 H 0.35857 0.82691 0.91549 0.0
H215 H 0.36593 0.82926 0.86282 0.0
C216 C 0.62903 0.41075 0.77061 0.0
C217 C 0.62328 0.37211 0.77283 0.0
C218 C 0.61489 0.42952 0.73899 0.0
C219 C 0.59302 0.40962 0.70917 0.0
C220 C 0.58573 0.37087 0.71187 0.0
C221 C 0.60132 0.35261 0.74316 0.0
C222 C 0.62407 0.47073 0.7371 0.0
C223 C 0.56177 0.34854 0.68137 0.0
C224 C 0.53035 0.46342 0.64465 0.0
C225 C 0.55163 0.46596 0.60916 0.0
C226 C 0.54313 0.4448 0.67717 0.0
C227 C 0.57869 0.42925 0.6747 0.0
C228 C 0.6007 0.43259 0.63919 0.0
C229 C 0.58663 0.4503 0.60674 0.0
C230 C 0.51812 0.441 0.71386 0.0
C231 C 0.63922 0.41749 0.63545 0.0
H232 H 0.64477 0.42663 0.79363 0.0
H233 H 0.59683 0.32287 0.74377 0.0
H234 H 0.63949 0.4778 0.70899 0.0
H235 H 0.59717 0.4844 0.7374 0.0
H236 H 0.64207 0.48218 0.76213 0.0
H237 H 0.55604 0.31917 0.68931 0.0
H238 H 0.53393 0.36012 0.67792 0.0
H239 H 0.57675 0.34993 0.65224 0.0
H240 H 0.50299 0.47493 0.64655 0.0
H241 H 0.60326 0.45219 0.57944 0.0
H242 H 0.53377 0.45397 0.7397 0.0
H243 H 0.5111 0.41144 0.72027 0.0
H244 H 0.49091 0.45386 0.71084 0.0
H245 H 0.65832 0.42924 0.65946 0.0
H246 H 0.65357 0.42372 0.60655 0.0
H247 H 0.63567 0.38721 0.63873 0.0
C248 C 0.90847 0.62345 0.26218 0.0
C249 C 0.86949 0.62941 0.26301 0.0
C250 C 0.92455 0.60461 0.2301 0.0
C251 C 0.90137 0.59207 0.19748 0.0
C252 C 0.86215 0.59874 0.19783 0.0
C253 C 0.84662 0.61689 0.23073 0.0
C254 C 0.96625 0.59755 0.23144 0.0
C255 C 0.83659 0.58677 0.16337 0.0
C256 C 0.95404 0.57038 0.10102 0.0
C257 C 0.9521 0.53182 0.10096 0.0
C258 C 0.93667 0.59026 0.13148 0.0
C259 C 0.91798 0.57127 0.16351 0.0
C260 C 0.91596 0.5323 0.16354 0.0
C261 C 0.93259 0.51308 0.13209 0.0
C262 C 0.93872 0.63165 0.12955 0.0
C263 C 0.897 0.51089 0.19731 0.0
H264 H 0.92622 0.63285 0.28714 0.0
H265 H 0.81657 0.62177 0.231 0.0
H266 H 0.96872 0.5675 0.22933 0.0
H267 H 0.98211 0.61014 0.20577 0.0
H268 H 0.98034 0.60879 0.25899 0.0
H269 H 0.80721 0.59541 0.16738 0.0
H270 H 0.84929 0.59855 0.13568 0.0
H271 H 0.83437 0.55638 0.15953 0.0
H272 H 0.96941 0.58512 0.07733 0.0
H273 H 0.93116 0.48331 0.13245 0.0
H274 H 0.95656 0.64441 0.15402 0.0
H275 H 0.90962 0.64091 0.13337 0.0
H276 H 0.95121 0.64196 0.10108 0.0
H277 H 0.9116 0.51967 0.22538 0.0
H278 H 0.89781 0.48072 0.19297 0.0
H279 H 0.86663 0.51674 0.20068 0.0
C280 C 0.29283 0.14226 0.16553 0.0
C281 C 0.2923 0.17944 0.15625 0.0
C282 C 0.32377 0.12277 0.15413 0.0
C283 C 0.3544 0.14061 0.13202 0.0
C284 C 0.35541 0.17868 0.1249 0.0
C285 C 0.32445 0.19777 0.13751 0.0
C286 C 0.32208 0.08231 0.16294 0.0
C287 C 0.38756 0.19857 0.10118 0.0
C288 C 0.44197 0.09029 0.1085 0.0
C289 C 0.43201 0.07381 0.07169 0.0
C290 C 0.417 0.11222 0.12876 0.0
C291 C 0.38184 0.11827 0.11124 0.0
C292 C 0.37199 0.10209 0.07381 0.0
C293 C 0.39704 0.07972 0.05469 0.0
C294 C 0.42789 0.12843 0.16903 0.0
C295 C 0.33494 0.10839 0.0539 0.0
H296 H 0.26805 0.12756 0.17955 0.0
H297 H 0.32466 0.2267 0.13107 0.0
H298 H 0.31476 0.06578 0.13561 0.0
H299 H 0.35036 0.07513 0.17291 0.0
H300 H 0.30011 0.07426 0.18599 0.0
H301 H 0.38689 0.22891 0.10303 0.0
H302 H 0.41588 0.19175 0.1114 0.0
H303 H 0.38496 0.1895 0.06967 0.0
H304 H 0.469 0.08557 0.12172 0.0
H305 H 0.38953 0.06739 0.02599 0.0
H306 H 0.40637 0.11781 0.19141 0.0
H307 H 0.42776 0.15878 0.16917 0.0
H308 H 0.45668 0.12172 0.17812 0.0
H309 H 0.3101 0.09728 0.07219 0.0
H310 H 0.33247 0.09509 0.02401 0.0
H311 H 0.33291 0.13833 0.05107 0.0
C312 C 0.22043 0.88643 0.62622 0.0
C313 C 0.21058 0.84915 0.63375 0.0
C314 C 0.19636 0.90628 0.6042 0.0
C315 C 0.16121 0.88855 0.59007 0.0
C316 C 0.15123 0.85075 0.59744 0.0
C317 C 0.17635 0.83133 0.6189 0.0
C318 C 0.20844 0.9463 0.59626 0.0
C319 C 0.1137 0.83112 0.58343 0.0
C320 C 0.08583 0.95267 0.56768 0.0
C321 C 0.0888 0.95443 0.52645 0.0
C322 C 0.1082 0.93019 0.58867 0.0
C323 C 0.13492 0.90987 0.56794 0.0
C324 C 0.13795 0.91155 0.52625 0.0
C325 C 0.11452 0.93354 0.50595 0.0
C326 C 0.10361 0.9286 0.63305 0.0
C327 C 0.16661 0.89089 0.50317 0.0
H328 H 0.24713 0.90002 0.63757 0.0
H329 H 0.1688 0.80251 0.62502 0.0
H330 H 0.20861 0.95095 0.56399 0.0
H331 H 0.18752 0.96378 0.61012 0.0
H332 H 0.23741 0.95551 0.60791 0.0
H333 H 0.11034 0.80165 0.59137 0.0
H334 H 0.08941 0.84473 0.59667 0.0
H335 H 0.11168 0.83288 0.55087 0.0
H336 H 0.06602 0.9689 0.58358 0.0
H337 H 0.11688 0.93491 0.47403 0.0
H338 H 0.13033 0.94095 0.64733 0.0
H339 H 0.09876 0.89955 0.64225 0.0
H340 H 0.07932 0.94351 0.64425 0.0
H341 H 0.19616 0.90081 0.51257 0.0
H342 H 0.16465 0.89434 0.47077 0.0
H343 H 0.16203 0.86111 0.50942 0.0
C344 C 0.73485 0.36717 0.91124 0.0
C345 C 0.73059 0.3659 0.87 0.0
C346 C 0.76866 0.38362 0.92888 0.0
C347 C 0.7992 0.3992 0.9048 0.0
C348 C 0.79528 0.39766 0.86314 0.0
C349 C 0.76107 0.38113 0.84628 0.0
C350 C 0.77146 0.38484 0.97339 0.0
C351 C 0.82716 0.41374 0.83634 0.0
C352 C 0.87071 0.4737 0.94997 0.0
C353 C 0.90215 0.45411 0.95804 0.0
C354 C 0.83715 0.45618 0.93282 0.0
C355 C 0.83475 0.41804 0.92325 0.0
C356 C 0.86626 0.39802 0.9314 0.0
C357 C 0.89949 0.41623 0.94873 0.0
C358 C 0.80424 0.4786 0.92483 0.0
C359 C 0.86495 0.35735 0.9216 0.0
H360 H 0.71132 0.35592 0.92987 0.0
H361 H 0.75829 0.37989 0.8144 0.0
H362 H 0.79709 0.37179 0.98254 0.0
H363 H 0.77505 0.41387 0.98436 0.0
H364 H 0.74565 0.37062 0.98791 0.0
H365 H 0.82007 0.4095 0.80456 0.0
H366 H 0.83306 0.44371 0.84271 0.0
H367 H 0.85397 0.40103 0.84203 0.0
H368 H 0.87222 0.50293 0.95701 0.0
H369 H 0.92353 0.40076 0.95464 0.0
H370 H 0.77799 0.46696 0.94064 0.0
H371 H 0.79783 0.47729 0.89279 0.0
H372 H 0.81048 0.50794 0.93423 0.0
H373 H 0.84044 0.34228 0.93735 0.0
H374 H 0.89177 0.34568 0.92977 0.0
H375 H 0.86029 0.35236 0.88946 0.0
C376 C 0.73654 0.65494 0.37808 0.0
C377 C 0.76706 0.63381 0.36919 0.0
C378 C 0.70357 0.64002 0.39855 0.0
C379 C 0.70111 0.60313 0.41107 0.0
C380 C 0.73175 0.58156 0.40199 0.0
C381 C 0.76419 0.59706 0.38091 0.0
C382 C 0.67136 0.66383 0.40686 0.0
C383 C 0.73057 0.54231 0.41518 0.0
C384 C 0.63065 0.57971 0.49617 0.0
C385 C 0.59882 0.5622 0.47622 0.0
C386 C 0.66456 0.59207 0.47552 0.0
C387 C 0.66649 0.58739 0.43379 0.0
C388 C 0.63457 0.56912 0.41364 0.0
C389 C 0.60134 0.55647 0.43511 0.0
C390 C 0.6981 0.61076 0.49828 0.0
C391 C 0.63505 0.56394 0.36922 0.0
H392 H 0.73839 0.68324 0.36877 0.0
H393 H 0.78782 0.58069 0.37448 0.0
H394 H 0.64418 0.65038 0.39444 0.0
H395 H 0.66688 0.66714 0.43923 0.0
H396 H 0.67719 0.69158 0.39414 0.0
H397 H 0.75651 0.52909 0.40554 0.0
H398 H 0.72819 0.54159 0.4479 0.0
H399 H 0.70485 0.52577 0.40317 0.0
H400 H 0.62894 0.58401 0.52795 0.0
H401 H 0.57684 0.54296 0.41946 0.0
H402 H 0.70351 0.63991 0.48961 0.0
H403 H 0.72447 0.59732 0.491 0.0
H404 H 0.69306 0.61005 0.53076 0.0
H405 H 0.63858 0.59119 0.35517 0.0
H406 H 0.60831 0.54839 0.3581 0.0
H407 H 0.65984 0.54905 0.35964 0.0
C408 C 0.15841 0.24308 0.08627 0.0
C409 C 0.19374 0.25453 0.10368 0.0
C410 C 0.13926 0.26753 0.06468 0.0
C411 C 0.15588 0.30421 0.06101 0.0
C412 C 0.19364 0.31448 0.0745 0.0
C413 C 0.21228 0.2893 0.09582 0.0
C414 C 0.09929 0.25535 0.05028 0.0
C415 C 0.21244 0.35326 0.07075 0.0
C416 C 0.10141 0.37163 0.00648 0.0
C417 C 0.08157 0.38722 0.03796 0.0
C418 C 0.12617 0.34458 0.01329 0.0
C419 C 0.13074 0.3331 0.05237 0.0
C420 C 0.11044 0.34872 0.08411 0.0
C421 C 0.08613 0.37566 0.07645 0.0
C422 C 0.14748 0.3285 0.97891 0.0
C423 C 0.11437 0.33705 0.12628 0.0
H424 H 0.14452 0.21582 0.09204 0.0
H425 H 0.23978 0.29788 0.10922 0.0
H426 H 0.07799 0.2655 0.07148 0.0
H427 H 0.09437 0.26697 0.02107 0.0
H428 H 0.09395 0.22487 0.04791 0.0
H429 H 0.244 0.35467 0.07467 0.0
H430 H 0.20654 0.36447 0.04158 0.0
H431 H 0.20049 0.3712 0.09386 0.0
H432 H 0.09797 0.38089 0.97669 0.0
H433 H 0.07077 0.38783 0.10075 0.0
H434 H 0.14002 0.29828 0.97677 0.0
H435 H 0.17888 0.33327 0.98371 0.0
H436 H 0.14083 0.34061 0.95035 0.0
H437 H 0.10549 0.30716 0.12861 0.0
H438 H 0.09668 0.35218 0.14744 0.0
H439 H 0.1448 0.3419 0.13537 0.0
C440 C 0.64527 0.23453 0.86868 0.0
C441 C 0.62296 0.26415 0.8651 0.0
C442 C 0.62944 0.20055 0.8834 0.0
C443 C 0.59036 0.19598 0.89546 0.0
C444 C 0.56775 0.22591 0.89224 0.0
C445 C 0.5842 0.25946 0.87681 0.0
C446 C 0.65447 0.16933 0.88548 0.0
C447 C 0.52611 0.22249 0.90515 0.0
C448 C 0.53677 0.09974 0.89578 0.0
C449 C 0.53698 0.09091 0.93585 0.0
C450 C 0.55464 0.13337 0.88226 0.0
C451 C 0.57267 0.15941 0.90957 0.0
C452 C 0.57332 0.15048 0.95014 0.0
C453 C 0.55564 0.11624 0.96274 0.0
C454 C 0.55379 0.1412 0.83871 0.0
C455 C 0.59176 0.17749 0.9804 0.0
H456 H 0.67516 0.2378 0.85938 0.0
H457 H 0.56689 0.2823 0.87458 0.0
H458 H 0.65492 0.15954 0.9162 0.0
H459 H 0.64242 0.14577 0.86663 0.0
H460 H 0.68446 0.17745 0.87561 0.0
H461 H 0.51289 0.2487 0.90248 0.0
H462 H 0.50958 0.2009 0.88691 0.0
H463 H 0.52345 0.21385 0.93634 0.0
H464 H 0.52232 0.08028 0.87482 0.0
H465 H 0.55513 0.10992 0.99378 0.0
H466 H 0.58342 0.14812 0.82722 0.0
H467 H 0.53771 0.16537 0.83408 0.0
H468 H 0.54012 0.11746 0.82108 0.0
H469 H 0.62216 0.18547 0.97207 0.0
H470 H 0.59076 0.1661 0.01055 0.0
H471 H 0.57688 0.20294 0.98114 0.0
C472 C 0.91147 0.74509 0.36317 0.0
C473 C 0.87152 0.73817 0.35909 0.0
C474 C 0.92827 0.77887 0.3791 0.0
C475 C 0.90465 0.80658 0.39127 0.0
C476 C 0.8644 0.80004 0.38647 0.0
C477 C 0.8484 0.76608 0.37046 0.0
C478 C 0.97127 0.7846 0.38371 0.0
C479 C 0.8381 0.82877 0.39883 0.0
C480 C 0.94154 0.87815 0.46957 0.0
C481 C 0.95317 0.90902 0.44684 0.0
C482 C 0.92598 0.84476 0.45187 0.0
C483 C 0.92179 0.84189 0.41029 0.0
C484 C 0.93345 0.8729 0.38712 0.0
C485 C 0.94898 0.90601 0.40562 0.0
C486 C 0.91393 0.81249 0.47778 0.0
C487 C 0.92947 0.87111 0.34274 0.0
H488 H 0.92961 0.72369 0.35486 0.0
H489 H 0.81759 0.76137 0.36683 0.0
H490 H 0.98304 0.81003 0.36876 0.0
H491 H 0.97839 0.7883 0.4155 0.0
H492 H 0.9858 0.76109 0.37127 0.0
H493 H 0.80758 0.81991 0.39206 0.0
H494 H 0.84052 0.83468 0.43108 0.0
H495 H 0.84678 0.85488 0.38363 0.0
H496 H 0.94466 0.87994 0.5014 0.0
H497 H 0.95789 0.92955 0.38767 0.0
H498 H 0.92968 0.78868 0.4687 0.0
H499 H 0.88288 0.80385 0.47412 0.0
H500 H 0.91938 0.81902 0.50958 0.0
H501 H 0.94571 0.84895 0.32993 0.0
H502 H 0.9401 0.89747 0.32886 0.0
H503 H 0.89891 0.86419 0.33488 0.0
C504 C 0.28795 0.72671 0.62269 0.0
C505 C 0.30418 0.75458 0.64844 0.0
C506 C 0.30997 0.69934 0.60721 0.0
C507 C 0.34881 0.69949 0.6184 0.0
C508 C 0.36533 0.72758 0.64419 0.0
C509 C 0.3431 0.75506 0.65822 0.0
C510 C 0.29173 0.67031 0.57891 0.0
C511 C 0.40655 0.72858 0.65717 0.0
C512 C 0.39886 0.61191 0.61019 0.0
C513 C 0.423 0.61906 0.57737 0.0
C514 C 0.37403 0.63765 0.62361 0.0
C515 C 0.3727 0.67071 0.60295 0.0
C516 C 0.3963 0.67746 0.56905 0.0
C517 C 0.42159 0.65175 0.55701 0.0
C518 C 0.35005 0.62994 0.66047 0.0
C519 C 0.39509 0.71197 0.5457 0.0
H520 H 0.25797 0.726 0.61498 0.0
H521 H 0.35647 0.77712 0.6769 0.0
H522 H 0.30862 0.67018 0.55088 0.0
H523 H 0.29191 0.64268 0.59168 0.0
H524 H 0.26165 0.67479 0.57205 0.0
H525 H 0.41445 0.75133 0.6789 0.0
H526 H 0.41142 0.70214 0.67073 0.0
H527 H 0.42616 0.73205 0.63119 0.0
H528 H 0.39991 0.58651 0.62581 0.0
H529 H 0.43991 0.65701 0.53123 0.0
H530 H 0.31925 0.63137 0.6542 0.0
H531 H 0.35829 0.65127 0.6836 0.0
H532 H 0.3536 0.60247 0.67243 0.0
H533 H 0.36508 0.71543 0.53764 0.0
H534 H 0.41285 0.71157 0.51822 0.0
H535 H 0.40571 0.7364 0.56404 0.0
C536 C 0.82067 0.82713 0.73003 0.0
C537 C 0.83183 0.81872 0.76799 0.0
C538 C 0.84678 0.84599 0.70408 0.0
C539 C 0.88472 0.85682 0.71669 0.0
C540 C 0.89668 0.84669 0.75419 0.0
C541 C 0.87004 0.82776 0.77945 0.0
C542 C 0.83321 0.85602 0.66402 0.0
C543 C 0.93686 0.85788 0.76867 0.0
C544 C 0.95614 0.89233 0.6381 0.0
C545 C 0.95263 0.93018 0.64094 0.0
C546 C 0.93509 0.86795 0.66349 0.0
C547 C 0.91042 0.88205 0.69237 0.0
C548 C 0.90859 0.9205 0.69677 0.0
C549 C 0.92967 0.94414 0.6708 0.0
C550 C 0.93775 0.82711 0.65808 0.0
C551 C 0.88304 0.93656 0.72772 0.0
H552 H 0.79122 0.81987 0.72109 0.0
H553 H 0.87865 0.82179 0.80904 0.0
H554 H 0.83232 0.88627 0.66305 0.0
H555 H 0.85354 0.84818 0.64053 0.0
H556 H 0.80415 0.84245 0.65725 0.0
H557 H 0.94296 0.8439 0.79629 0.0
H558 H 0.95844 0.85152 0.7458 0.0
H559 H 0.94053 0.88806 0.77453 0.0
H560 H 0.97393 0.88158 0.61488 0.0
H561 H 0.92715 0.97348 0.67302 0.0
H562 H 0.91017 0.81368 0.6466 0.0
H563 H 0.94274 0.81463 0.68683 0.0
H564 H 0.96112 0.82095 0.63708 0.0
H565 H 0.85252 0.92764 0.72114 0.0
H566 H 0.88698 0.96713 0.72898 0.0
H567 H 0.88899 0.92629 0.75733 0.0
C568 C 0.68565 0.16505 0.25653 0.0
C569 C 0.72487 0.17649 0.25903 0.0
C570 C 0.67041 0.14727 0.22232 0.0
C571 C 0.69498 0.14152 0.18956 0.0
C572 C 0.73463 0.15357 0.19171 0.0
C573 C 0.74926 0.17058 0.2268 0.0
C574 C 0.6281 0.13415 0.22151 0.0
C575 C 0.76141 0.14857 0.15703 0.0
C576 C 0.65407 0.06446 0.12131 0.0
C577 C 0.63329 0.08377 0.09528 0.0
C578 C 0.67653 0.08316 0.15084 0.0
C579 C 0.67874 0.12205 0.15365 0.0
C580 C 0.66053 0.14175 0.12513 0.0
C581 C 0.63756 0.12229 0.09646 0.0
C582 C 0.69503 0.06111 0.18101 0.0
C583 C 0.66307 0.18327 0.12656 0.0
H584 H 0.66701 0.16942 0.28178 0.0
H585 H 0.77962 0.17965 0.22896 0.0
H586 H 0.61408 0.14755 0.19737 0.0
H587 H 0.62411 0.10401 0.21543 0.0
H588 H 0.61319 0.1402 0.24982 0.0
H589 H 0.79122 0.1606 0.16309 0.0
H590 H 0.76188 0.11887 0.14955 0.0
H591 H 0.75094 0.16171 0.13064 0.0
H592 H 0.65077 0.03461 0.12034 0.0
H593 H 0.62173 0.1372 0.076 0.0
H594 H 0.67934 0.06288 0.20966 0.0
H595 H 0.72517 0.07245 0.18608 0.0
H596 H 0.69466 0.03163 0.17188 0.0
H597 H 0.64502 0.19256 0.15139 0.0
H598 H 0.653 0.19439 0.09876 0.0
H599 H 0.69301 0.19515 0.13192 0.0
C600 C 0.4064 0.66795 0.2696 0.0
C601 C 0.38604 0.64889 0.23856 0.0
C602 C 0.42098 0.64914 0.30107 0.0
C603 C 0.41444 0.61023 0.30235 0.0
C604 C 0.39416 0.5908 0.27114 0.0
C605 C 0.38084 0.61017 0.23954 0.0
C606 C 0.44313 0.67101 0.33322 0.0
C607 C 0.38601 0.54941 0.27135 0.0
C608 C 0.47711 0.55618 0.36647 0.0
C609 C 0.45472 0.55127 0.40109 0.0
C610 C 0.46464 0.57562 0.33444 0.0
C611 C 0.42838 0.58984 0.33647 0.0
C612 C 0.40532 0.58428 0.37106 0.0
C613 C 0.41896 0.56556 0.40306 0.0
C614 C 0.49064 0.58158 0.29871 0.0
C615 C 0.36615 0.59809 0.37428 0.0
H616 H 0.41041 0.69774 0.26985 0.0
H617 H 0.36624 0.59471 0.21549 0.0
H618 H 0.42737 0.66779 0.3618 0.0
H619 H 0.47145 0.66042 0.33692 0.0
H620 H 0.44783 0.70081 0.32681 0.0
H621 H 0.36909 0.53837 0.2454 0.0
H622 H 0.41334 0.53645 0.27143 0.0
H623 H 0.36988 0.54107 0.29868 0.0
H624 H 0.50503 0.54576 0.36484 0.0
H625 H 0.40144 0.56193 0.42963 0.0
H626 H 0.4968 0.61149 0.29364 0.0
H627 H 0.47618 0.56909 0.27196 0.0
H628 H 0.5183 0.56954 0.30202 0.0
H629 H 0.36881 0.62848 0.37208 0.0
H630 H 0.35121 0.59055 0.40255 0.0
H631 H 0.34804 0.58657 0.3494 0.0
C632 C 0.11004 0.37154 0.77286 0.0
C633 C 0.13461 0.39073 0.74529 0.0
C634 C 0.09157 0.39001 0.80371 0.0
C635 C 0.09921 0.42863 0.80896 0.0
C636 C 0.12493 0.44812 0.78241 0.0
C637 C 0.14136 0.42926 0.75054 0.0
C638 C 0.06327 0.36815 0.83028 0.0
C639 C 0.13508 0.48913 0.78753 0.0
C640 C 0.02879 0.4868 0.86287 0.0
C641 C 0.04358 0.49003 0.90117 0.0
C642 C 0.04569 0.46573 0.83315 0.0
C643 C 0.07941 0.44888 0.84131 0.0
C644 C 0.09456 0.45231 0.88008 0.0
C645 C 0.07599 0.47221 0.90972 0.0
C646 C 0.02735 0.46143 0.79299 0.0
C647 C 0.13115 0.43611 0.88993 0.0
H648 H 0.10501 0.34186 0.7707 0.0
H649 H 0.15921 0.44517 0.72953 0.0
H650 H 0.07362 0.36982 0.86113 0.0
H651 H 0.03524 0.37993 0.83037 0.0
H652 H 0.05861 0.33868 0.82088 0.0
H653 H 0.1587 0.4996 0.76726 0.0
H654 H 0.1096 0.50381 0.78172 0.0
H655 H 0.14387 0.49607 0.81843 0.0
H656 H 0.00354 0.50037 0.85631 0.0
H657 H 0.08771 0.47508 0.93924 0.0
H658 H 0.02278 0.43187 0.78407 0.0
H659 H 0.04666 0.47536 0.77054 0.0
H660 H 0.99933 0.47325 0.7925 0.0
H661 H 0.12813 0.406 0.88378 0.0
H662 H 0.13917 0.44117 0.92139 0.0
H663 H 0.15498 0.44824 0.87089 0.0
C664 C 0.71761 0.87344 0.84171 0.0
C665 C 0.7138 0.83535 0.84774 0.0
C666 C 0.68959 0.89554 0.85562 0.0
C667 C 0.65758 0.87934 0.87705 0.0
C668 C 0.65263 0.84079 0.8818 0.0
C669 C 0.6806 0.81918 0.86662 0.0
C670 C 0.69538 0.93651 0.84929 0.0
C671 C 0.61902 0.82264 0.90494 0.0
C672 C 0.61666 0.93995 0.95604 0.0
C673 C 0.58255 0.94798 0.9387 0.0
C674 C 0.64111 0.91727 0.93633 0.0
C675 C 0.63157 0.90312 0.89799 0.0
C676 C 0.59753 0.91175 0.87997 0.0
C677 C 0.57307 0.93377 0.90082 0.0
C678 C 0.67686 0.90806 0.95678 0.0
C679 C 0.58711 0.8979 0.83869 0.0
H680 H 0.74335 0.88644 0.82778 0.0
H681 H 0.67706 0.7897 0.87068 0.0
H682 H 0.66848 0.94664 0.83904 0.0
H683 H 0.70304 0.9511 0.87769 0.0
H684 H 0.7186 0.94395 0.82734 0.0
H685 H 0.61776 0.79213 0.90326 0.0
H686 H 0.62133 0.83172 0.93646 0.0
H687 H 0.59163 0.83108 0.89394 0.0
H688 H 0.62376 0.95062 0.98552 0.0
H689 H 0.54676 0.94022 0.88733 0.0
H690 H 0.70272 0.91802 0.93932 0.0
H691 H 0.67666 0.87777 0.9588 0.0
H692 H 0.67948 0.9205 0.98707 0.0
H693 H 0.6105 0.90711 0.81763 0.0
H694 H 0.55998 0.90779 0.82863 0.0
H695 H 0.58392 0.86738 0.83751 0.0
C696 C 0.79209 0.13461 0.38745 0.0
C697 C 0.803 0.17166 0.37956 0.0
C698 C 0.81582 0.11403 0.40902 0.0
C699 C 0.85165 0.13078 0.42243 0.0
C700 C 0.86275 0.16832 0.41471 0.0
C701 C 0.83801 0.1885 0.39365 0.0
C702 C 0.80258 0.07431 0.41732 0.0
C703 C 0.901 0.1869 0.42802 0.0
C704 C 0.89725 0.08451 0.50631 0.0
C705 C 0.92194 0.0626 0.48569 0.0
C706 C 0.87461 0.10731 0.48613 0.0
C707 C 0.87736 0.10872 0.4444 0.0
C708 C 0.90306 0.08734 0.42354 0.0
C709 C 0.92467 0.06411 0.44443 0.0
C710 C 0.84706 0.12915 0.50937 0.0
C711 C 0.9073 0.08857 0.37911 0.0
H712 H 0.76479 0.12177 0.37676 0.0
H713 H 0.84641 0.21713 0.38727 0.0
H714 H 0.82277 0.0561 0.40341 0.0
H715 H 0.80251 0.06985 0.44962 0.0
H716 H 0.77333 0.06585 0.40598 0.0
H717 H 0.90526 0.21627 0.4198 0.0
H718 H 0.9034 0.18531 0.46056 0.0
H719 H 0.92456 0.17237 0.41455 0.0
H720 H 0.8951 0.08336 0.53826 0.0
H721 H 0.94367 0.04709 0.42845 0.0
H722 H 0.81717 0.12011 0.50041 0.0
H723 H 0.85261 0.15881 0.50282 0.0
H724 H 0.84925 0.12587 0.54177 0.0
H725 H 0.88014 0.07691 0.36515 0.0
H726 H 0.93092 0.07282 0.36777 0.0
H727 H 0.913 0.11748 0.36968 0.0
C728 C 0.25024 0.64179 0.16165 0.0
C729 C 0.28149 0.65666 0.13875 0.0
C730 C 0.21627 0.62583 0.14386 0.0
C731 C 0.21343 0.62448 0.10208 0.0
C732 C 0.24479 0.63965 0.07883 0.0
C733 C 0.27833 0.65557 0.0974 0.0
C734 C 0.18347 0.61021 0.16978 0.0
C735 C 0.24315 0.63855 0.03425 0.0
C736 C 0.14141 0.55098 0.05612 0.0
C737 C 0.11045 0.57107 0.04769 0.0
C738 C 0.1751 0.56807 0.07338 0.0
C739 C 0.17809 0.60627 0.08272 0.0
C740 C 0.1472 0.62686 0.07389 0.0
C741 C 0.11384 0.60907 0.05642 0.0
C742 C 0.20739 0.54509 0.082 0.0
C743 C 0.14916 0.66761 0.08345 0.0
H744 H 0.25222 0.64291 0.1936 0.0
H745 H 0.30247 0.66657 0.07944 0.0
H746 H 0.15713 0.62341 0.16337 0.0
H747 H 0.17717 0.5803 0.16325 0.0
H748 H 0.18979 0.61425 0.20176 0.0
H749 H 0.26956 0.65235 0.02042 0.0
H750 H 0.23925 0.60955 0.0232 0.0
H751 H 0.2181 0.6521 0.02438 0.0
H752 H 0.13933 0.52166 0.04944 0.0
H753 H 0.09016 0.62492 0.05023 0.0
H754 H 0.21294 0.54596 0.11422 0.0
H755 H 0.2342 0.55656 0.06703 0.0
H756 H 0.20097 0.51589 0.07214 0.0
H757 H 0.15277 0.67257 0.11573 0.0
H758 H 0.12301 0.67984 0.07419 0.0
H759 H 0.17451 0.68216 0.06854 0.0
C760 C 0.24409 0.42007 0.62933 0.0
C761 C 0.24103 0.38364 0.64212 0.0
C762 C 0.27669 0.43498 0.60808 0.0
C763 C 0.30737 0.41319 0.59993 0.0
C764 C 0.3048 0.37671 0.61371 0.0
C765 C 0.27163 0.36233 0.63429 0.0
C766 C 0.27793 0.47379 0.59354 0.0
C767 C 0.33704 0.3527 0.60649 0.0
C768 C 0.37749 0.43451 0.51387 0.0
C769 C 0.4092 0.45305 0.53312 0.0
C770 C 0.3438 0.42234 0.53505 0.0
C771 C 0.34199 0.42823 0.57665 0.0
C772 C 0.37387 0.44734 0.59611 0.0
C773 C 0.40686 0.45979 0.5741 0.0
C774 C 0.3103 0.40274 0.51296 0.0
C775 C 0.37358 0.45379 0.64037 0.0
H776 H 0.2204 0.43656 0.63492 0.0
H777 H 0.26962 0.33427 0.64437 0.0
H778 H 0.30371 0.49063 0.605 0.0
H779 H 0.28021 0.47352 0.56079 0.0
H780 H 0.25204 0.48732 0.60272 0.0
H781 H 0.33129 0.32549 0.62044 0.0
H782 H 0.3414 0.34817 0.57426 0.0
H783 H 0.36425 0.36666 0.61832 0.0
H784 H 0.37905 0.42939 0.48221 0.0
H785 H 0.4313 0.47402 0.58925 0.0
H786 H 0.2839 0.41636 0.51957 0.0
H787 H 0.30494 0.37396 0.52289 0.0
H788 H 0.31532 0.40224 0.48046 0.0
H789 H 0.34889 0.46903 0.64946 0.0
H790 H 0.40041 0.46957 0.65096 0.0
H791 H 0.36998 0.42699 0.65534 0.0
C792 C 0.81242 0.70905 0.87349 0.0
C793 C 0.80248 0.74375 0.88568 0.0
C794 C 0.83297 0.68846 0.89835 0.0
C795 C 0.84409 0.7033 0.93603 0.0
C796 C 0.83165 0.73716 0.94959 0.0
C797 C 0.8108 0.75708 0.92412 0.0
C798 C 0.84514 0.65207 0.88309 0.0
C799 C 0.84279 0.75368 0.98964 0.0
C800 C 0.88677 0.6334 0.99715 0.0
C801 C 0.9253 0.63882 0.98491 0.0
C802 C 0.86004 0.65634 0.98417 0.0
C803 C 0.87245 0.68521 0.95858 0.0
C804 C 0.91202 0.69296 0.94949 0.0
C805 C 0.93809 0.66951 0.96278 0.0
C806 C 0.81819 0.64755 0.99492 0.0
C807 C 0.9264 0.72399 0.92279 0.0
H808 H 0.8057 0.69888 0.84373 0.0
H809 H 0.80328 0.78415 0.9333 0.0
H810 H 0.87668 0.65466 0.87801 0.0
H811 H 0.8383 0.63046 0.90523 0.0
H812 H 0.83094 0.64286 0.8549 0.0
H813 H 0.82494 0.77606 0.99867 0.0
H814 H 0.84008 0.7324 0.01256 0.0
H815 H 0.87327 0.76536 0.98859 0.0
H816 H 0.87698 0.60984 0.01477 0.0
H817 H 0.96801 0.67389 0.95374 0.0
H818 H 0.80313 0.63295 0.96956 0.0
H819 H 0.80423 0.67306 1.0013 0.0
H820 H 0.81434 0.62963 0.02098 0.0
H821 H 0.91725 0.71689 0.89203 0.0
H822 H 0.9582 0.72932 0.92292 0.0
H823 H 0.91389 0.74968 0.93192 0.0
C824 C 0.42825 0.76228 0.13601 0.0
C825 C 0.38934 0.75781 0.14715 0.0
C826 C 0.44508 0.79572 0.12063 0.0
C827 C 0.42269 0.82575 0.1169 0.0
C828 C 0.38348 0.82143 0.12852 0.0
C829 C 0.36729 0.78756 0.14319 0.0
C830 C 0.48684 0.79888 0.1082 0.0
C831 C 0.35866 0.85277 0.12591 0.0
C832 C 0.47669 0.92179 0.11615 0.0
C833 C 0.47685 0.93032 0.07597 0.0
C834 C 0.45856 0.88833 0.12983 0.0
C835 C 0.44067 0.86214 0.1026 0.0
C836 C 0.44041 0.87075 0.06192 0.0
C837 C 0.45833 0.90484 0.04914 0.0
C838 C 0.45899 0.88085 0.17349 0.0
C839 C 0.42212 0.84357 0.03174 0.0
H840 H 0.44536 0.73933 0.13854 0.0
H841 H 0.33726 0.78444 0.15203 0.0
H842 H 0.48986 0.80716 0.07691 0.0
H843 H 0.50325 0.82062 0.12634 0.0
H844 H 0.49993 0.77265 0.1114 0.0
H845 H 0.3286 0.84491 0.13569 0.0
H846 H 0.37076 0.87647 0.14455 0.0
H847 H 0.35842 0.86224 0.09506 0.0
H848 H 0.49104 0.94137 0.13705 0.0
H849 H 0.45913 0.91091 0.01803 0.0
H850 H 0.4749 0.85665 0.17854 0.0
H851 H 0.42925 0.87414 0.18474 0.0
H852 H 0.47261 0.90467 0.19102 0.0
H853 H 0.43682 0.81801 0.03148 0.0
H854 H 0.42351 0.85468 1.00146 0.0
H855 H 0.3916 0.83584 0.0398 0.0
C856 C 0.09582 0.27352 0.64446 0.0
C857 C 0.13556 0.28031 0.6503 0.0
C858 C 0.07941 0.2394 0.62902 0.0
C859 C 0.10321 0.21122 0.61903 0.0
C860 C 0.14323 0.21768 0.62547 0.0
C861 C 0.15883 0.25196 0.64104 0.0
C862 C 0.03663 0.23375 0.62264 0.0
C863 C 0.16972 0.18851 0.61535 0.0
C864 C 0.05872 0.11168 0.60588 0.0
C865 C 0.05602 0.10777 0.56457 0.0
C866 C 0.07379 0.14514 0.62402 0.0
C867 C 0.08659 0.17554 0.6004 0.0
C868 C 0.08399 0.17173 0.55873 0.0
C869 C 0.06878 0.13806 0.5414 0.0
C870 C 0.07599 0.14798 0.66853 0.0
C871 C 0.09737 0.20329 0.53232 0.0
H872 H 0.07756 0.29524 0.65106 0.0
H873 H 0.18945 0.25657 0.64603 0.0
H874 H 0.03077 0.2293 0.59065 0.0
H875 H 0.02409 0.20876 0.63789 0.0
H876 H 0.02183 0.25763 0.63362 0.0
H877 H 0.19999 0.19741 0.62317 0.0
H878 H 0.16026 0.16289 0.63112 0.0
H879 H 0.16852 0.18172 0.5832 0.0
H880 H 0.04889 0.08862 0.62416 0.0
H881 H 0.06687 0.13558 0.50948 0.0
H882 H 0.05942 0.17049 0.67988 0.0
H883 H 0.10621 0.15497 0.67757 0.0
H884 H 0.06464 0.122 0.68277 0.0
H885 H 0.08145 0.22738 0.53985 0.0
H886 H 0.09323 0.19601 0.50048 0.0
H887 H 0.12827 0.21188 0.5372 0.0
C888 C 0.71024 0.30175 0.34019 0.0
C889 C 0.71691 0.27268 0.36462 0.0
C890 C 0.68721 0.32911 0.35308 0.0
C891 C 0.67062 0.32751 0.39147 0.0
C892 C 0.67873 0.29924 0.41699 0.0
C893 C 0.70177 0.2721 0.40323 0.0
C894 C 0.67943 0.3589 0.32507 0.0
C895 C 0.66178 0.29682 0.45826 0.0
C896 C 0.63125 0.41295 0.43569 0.0
C897 C 0.59177 0.40511 0.42932 0.0
C898 C 0.6573 0.38801 0.42343 0.0
C899 C 0.64349 0.35449 0.40427 0.0
C900 C 0.60365 0.34669 0.39726 0.0
C901 C 0.57821 0.37213 0.40995 0.0
C902 C 0.69952 0.39732 0.43142 0.0
C903 C 0.58789 0.31131 0.37666 0.0
H904 H 0.7223 0.30254 0.31047 0.0
H905 H 0.70647 0.24951 0.4221 0.0
H906 H 0.64845 0.35639 0.3179 0.0
H907 H 0.68646 0.38645 0.33923 0.0
H908 H 0.69622 0.35741 0.29704 0.0
H909 H 0.673 0.27472 0.4753 0.0
H910 H 0.66809 0.32341 0.47463 0.0
H911 H 0.6301 0.29124 0.45666 0.0
H912 H 0.6418 0.43847 0.45073 0.0
H913 H 0.54768 0.36604 0.40507 0.0
H914 H 0.71629 0.39666 0.40337 0.0
H915 H 0.70982 0.37642 0.45076 0.0
H916 H 0.70567 0.42491 0.4459 0.0
H917 H 0.60162 0.30886 0.34705 0.0
H918 H 0.55628 0.30965 0.37298 0.0
H919 H 0.59477 0.28742 0.39382 0.0
loop_
_geom_bond_atom_site_label_1
_geom_bond_atom_site_label_2
_geom_bond_distance
_geom_bond_site_symmetry_2
_ccdc_geom_bond_type
H0 C3 0.931 . S
H1 C6 0.928 . S
H2 C8 0.930 . S
C3 H0 0.931 . S
C3 C4 1.413 . S
C3 C5 1.360 . S
C4 C3 1.413 . S
C4 C8 1.429 . S
C5 C3 1.360 . S
C5 C6 1.372 . S
C6 H1 0.928 . S
C6 C5 1.372 . S
C6 C7 1.404 . S
C7 C6 1.404 . S
C7 C8 1.391 . S
C8 H2 0.930 . S
C8 C4 1.429 . S
C8 C7 1.391 . S
H9 C12 0.931 . S
H10 C15 0.928 . S
H11 C17 0.930 . S
C12 H9 0.931 . S
C12 C13 1.413 . S
C12 C14 1.360 . S
C13 C12 1.413 . S
C13 C17 1.429 . S
C14 C12 1.360 . S
C14 C15 1.372 . S
C15 H10 0.928 . S
C15 C14 1.372 . S
C15 C16 1.404 . S
C16 C15 1.404 . S
C16 C17 1.391 . S
C17 H11 0.930 . S
C17 C13 1.429 . S
C17 C16 1.391 . S
H18 C21 0.931 . S
H19 C24 0.928 . S
H20 C26 0.930 . S
C21 H18 0.931 . S
C21 C22 1.413 . S
C21 C23 1.360 . S
C22 C21 1.413 . S
C22 C26 1.429 . S
C23 C21 1.360 . S
C23 C24 1.372 . S
C24 H19 0.928 . S
C24 C23 1.372 . S
C24 C25 1.404 . S
C25 C24 1.404 . S
C25 C26 1.391 . S
C26 H20 0.930 . S
C26 C22 1.429 . S
C26 C25 1.391 . S
H27 C30 0.931 . S
H28 C33 0.928 . S
H29 C35 0.930 . S
C30 H27 0.931 . S
C30 C31 1.413 . S
C30 C32 1.360 . S
C31 C30 1.413 . S
C31 C35 1.429 . S
C32 C30 1.360 . S
C32 C33 1.372 . S
C33 H28 0.928 . S
C33 C32 1.372 . S
C33 C34 1.404 . S
C34 C33 1.404 . S
C34 C35 1.391 . S
C35 H29 0.930 . S
C35 C31 1.429 . S
C35 C34 1.391 . S
H36 C39 0.931 . S
H37 C42 0.928 . S
H38 C44 0.930 . S
C39 H36 0.931 . S
C39 C40 1.413 . S
C39 C41 1.360 . S
C40 C39 1.413 . S
C40 C44 1.429 . S
C41 C39 1.360 . S
C41 C42 1.372 . S
C42 H37 0.928 . S
C42 C41 1.372 . S
C42 C43 1.404 . S
C43 C42 1.404 . S
C43 C44 1.391 . S
C44 H38 0.930 . S
C44 C40 1.429 . S
C44 C43 1.391 . S
H45 C48 0.931 . S
H46 C51 0.928 . S
H47 C53 0.930 . S
C48 H45 0.931 . S
C48 C49 1.413 . S
C48 C50 1.360 . S
C49 C48 1.413 . S
C49 C53 1.429 . S
C50 C48 1.360 . S
C50 C51 1.372 . S
C51 H46 0.928 . S
C51 C50 1.372 . S
C51 C52 1.404 . S
C52 C51 1.404 . S
C52 C53 1.391 . S
C53 H47 0.930 . S
C53 C49 1.429 . S
C53 C52 1.391 . S
H54 C57 0.931 . S
H55 C60 0.928 . S
H56 C62 0.930 . S
C57 H54 0.931 . S
C57 C58 1.413 . S
C57 C59 1.360 . S
C58 C57 1.413 . S
C58 C62 1.429 . S
C59 C57 1.360 . S
C59 C60 1.372 . S
C60 H55 0.928 . S
C60 C59 1.372 . S
C60 C61 1.404 . S
C61 C60 1.404 . S
C61 C62 1.391 . S
C62 H56 0.930 . S
C62 C58 1.429 . S
C62 C61 1.391 . S
H63 C66 0.931 . S
H64 C69 0.928 . S
H65 C71 0.930 . S
C66 H63 0.931 . S
C66 C67 1.413 . S
C66 C68 1.360 . S
C67 C66 1.413 . S
C67 C71 1.429 . S
C68 C66 1.360 . S
C68 C69 1.372 . S
C69 H64 0.928 . S
C69 C68 1.372 . S
C69 C70 1.404 . S
C70 C69 1.404 . S
C70 C71 1.391 . S
C71 H65 0.930 . S
C71 C67 1.429 . S
C71 C70 1.391 . S
Dy72 O76 2.398 . S
Dy72 O77 2.491 . S
Dy72 O78 2.403 1_545 S
Dy72 O79 2.664 1_545 S
Dy72 O83 2.326 . S
Dy72 O87 2.310 1_455 S
Dy72 O88 2.351 1_445 S
C73 O84 1.185 . S
C73 O85 1.355 . S
C74 O76 1.185 . S
C74 O77 1.355 . S
Dy75 O79 2.310 1_655 S
Dy75 O82 2.351 1_665 S
Dy75 O84 2.398 . S
Dy75 O85 2.491 . S
Dy75 O86 2.403 1_565 S
Dy75 O87 2.664 1_565 S
Dy75 O89 2.326 . S
O76 Dy72 2.398 . S
O76 C74 1.185 . S
O77 Dy72 2.491 . S
O77 C74 1.355 . S
O78 Dy72 2.403 1_565 S
O78 C80 1.254 . S
O79 Dy72 2.664 1_565 S
O79 Dy75 2.310 1_455 S
O79 C80 1.268 . S
C80 O78 1.254 . S
C80 O79 1.268 . S
C81 O86 1.254 . S
C81 O87 1.268 . S
O82 Dy75 2.351 1_445 S
O82 C90 1.249 . S
O83 Dy72 2.326 . S
O83 C90 1.267 . S
O84 C73 1.185 . S
O84 Dy75 2.398 . S
O85 C73 1.355 . S
O85 Dy75 2.491 . S
O86 Dy75 2.403 1_545 S
O86 C81 1.254 . S
O87 Dy72 2.310 1_655 S
O87 Dy75 2.664 1_545 S
O87 C81 1.268 . S
O88 Dy72 2.351 1_665 S
O88 C91 1.249 . S
O89 Dy75 2.326 . S
O89 C91 1.267 . S
C90 O82 1.249 . S
C90 O83 1.267 . S
C91 O88 1.249 . S
C91 O89 1.267 . S
Dy92 O96 2.398 . S
Dy92 O97 2.491 . S
Dy92 O98 2.403 1_545 S
Dy92 O99 2.664 1_545 S
Dy92 O103 2.326 . S
Dy92 O107 2.310 1_554 S
Dy92 O108 2.351 1_544 S
C93 O104 1.185 . S
C93 O105 1.355 . S
C94 O96 1.185 . S
C94 O97 1.355 . S
Dy95 O99 2.310 1_546 S
Dy95 O102 2.351 1_556 S
Dy95 O104 2.398 1_545 S
Dy95 O105 2.491 1_545 S
Dy95 O106 2.403 . S
Dy95 O107 2.664 . S
Dy95 O109 2.326 1_545 S
O96 Dy92 2.398 . S
O96 C94 1.185 . S
O97 Dy92 2.491 . S
O97 C94 1.355 . S
O98 Dy92 2.403 1_565 S
O98 C100 1.254 . S
O99 Dy92 2.664 1_565 S
O99 Dy95 2.310 1_564 S
O99 C100 1.268 . S
C100 O98 1.254 . S
C100 O99 1.268 . S
C101 O106 1.254 . S
C101 O107 1.268 . S
O102 Dy95 2.351 1_554 S
O102 C110 1.249 . S
O103 Dy92 2.326 . S
O103 C110 1.267 . S
O104 C93 1.185 . S
O104 Dy95 2.398 1_565 S
O105 C93 1.355 . S
O105 Dy95 2.491 1_565 S
O106 Dy95 2.403 . S
O106 C101 1.254 . S
O107 Dy92 2.310 1_556 S
O107 Dy95 2.664 . S
O107 C101 1.268 . S
O108 Dy92 2.351 1_566 S
O108 C111 1.249 . S
O109 Dy95 2.326 1_565 S
O109 C111 1.267 . S
C110 O102 1.249 . S
C110 O103 1.267 . S
C111 O108 1.249 . S
C111 O109 1.267 . S
Dy112 O116 2.398 . S
Dy112 O117 2.491 . S
Dy112 O118 2.403 . S
Dy112 O119 2.664 . S
Dy112 O123 2.326 . S
Dy112 O127 2.310 . S
Dy112 O128 2.351 . S
C113 O124 1.185 . S
C113 O125 1.355 . S
C114 O116 1.185 . S
C114 O117 1.355 . S
Dy115 O119 2.310 . S
Dy115 O122 2.351 . S
Dy115 O124 2.398 . S
Dy115 O125 2.491 . S
Dy115 O126 2.403 . S
Dy115 O127 2.664 . S
Dy115 O129 2.326 . S
O116 Dy112 2.398 . S
O116 C114 1.185 . S
O117 Dy112 2.491 . S
O117 C114 1.355 . S
O118 Dy112 2.403 . S
O118 C120 1.254 . S
O119 Dy112 2.664 . S
O119 Dy115 2.310 . S
O119 C120 1.268 . S
C120 O118 1.254 . S
C120 O119 1.268 . S
C121 O126 1.254 . S
C121 O127 1.268 . S
O122 Dy115 2.351 . S
O122 C130 1.249 . S
O123 Dy112 2.326 . S
O123 C130 1.267 . S
O124 C113 1.185 . S
O124 Dy115 2.398 . S
O125 C113 1.355 . S
O125 Dy115 2.491 . S
O126 Dy115 2.403 . S
O126 C121 1.254 . S
O127 Dy112 2.310 . S
O127 Dy115 2.664 . S
O127 C121 1.268 . S
O128 Dy112 2.351 . S
O128 C131 1.249 . S
O129 Dy115 2.326 . S
O129 C131 1.267 . S
C130 O122 1.249 . S
C130 O123 1.267 . S
C131 O128 1.249 . S
C131 O129 1.267 . S
Dy132 O136 2.398 . S
Dy132 O137 2.491 . S
Dy132 O138 2.403 1_455 S
Dy132 O139 2.664 1_455 S
Dy132 O143 2.326 . S
Dy132 O147 2.310 1_554 S
Dy132 O148 2.351 1_454 S
C133 O144 1.185 . S
C133 O145 1.355 . S
C134 O136 1.185 . S
C134 O137 1.355 . S
Dy135 O139 2.310 1_556 S
Dy135 O142 2.351 1_656 S
Dy135 O144 2.398 . S
Dy135 O145 2.491 . S
Dy135 O146 2.403 1_655 S
Dy135 O147 2.664 1_655 S
Dy135 O149 2.326 . S
O136 Dy132 2.398 . S
O136 C134 1.185 . S
O137 Dy132 2.491 . S
O137 C134 1.355 . S
O138 Dy132 2.403 1_655 S
O138 C140 1.254 . S
O139 Dy132 2.664 1_655 S
O139 Dy135 2.310 1_554 S
O139 C140 1.268 . S
C140 O138 1.254 . S
C140 O139 1.268 . S
C141 O146 1.254 . S
C141 O147 1.268 . S
O142 Dy135 2.351 1_454 S
O142 C150 1.249 . S
O143 Dy132 2.326 . S
O143 C150 1.267 . S
O144 C133 1.185 . S
O144 Dy135 2.398 . S
O145 C133 1.355 . S
O145 Dy135 2.491 . S
O146 Dy135 2.403 1_455 S
O146 C141 1.254 . S
O147 Dy132 2.310 1_556 S
O147 Dy135 2.664 1_455 S
O147 C141 1.268 . S
O148 Dy132 2.351 1_656 S
O148 C151 1.249 . S
O149 Dy135 2.326 . S
O149 C151 1.267 . S
C150 O142 1.249 . S
C150 O143 1.267 . S
C151 O148 1.249 . S
C151 O149 1.267 . S
C152 C153 1.391 . S
C152 C154 1.394 . S
C152 H168 0.931 . S
C153 C152 1.391 . S
C153 C157 1.376 . S
C154 C152 1.394 . S
C154 C155 1.369 . S
C154 C158 1.531 . S
C155 C154 1.369 . S
C155 C156 1.410 . S
C155 C163 1.503 . S
C156 C155 1.410 . S
C156 C157 1.392 . S
C156 C159 1.511 . S
C157 C153 1.376 . S
C157 C156 1.392 . S
C157 H169 0.929 . S
C158 C154 1.531 . S
C158 H170 0.960 . S
C158 H171 0.962 . S
C158 H172 0.960 . S
C159 C156 1.511 . S
C159 H173 0.961 . S
C159 H174 0.961 . S
C159 H175 0.961 . S
C160 C161 1.370 . S
C160 C162 1.363 . S
C160 H176 0.931 . S
C161 C160 1.370 . S
C161 C165 1.408 . S
C162 C160 1.363 . S
C162 C163 1.370 . S
C162 C166 1.524 . S
C163 C155 1.503 . S
C163 C162 1.370 . S
C163 C164 1.403 . S
C164 C163 1.403 . S
C164 C165 1.404 . S
C164 C167 1.539 . S
C165 C161 1.408 . S
C165 C164 1.404 . S
C165 H177 0.930 . S
C166 C162 1.524 . S
C166 H178 0.956 . S
C166 H179 0.961 . S
C166 H180 0.961 . S
C167 C164 1.539 . S
C167 H181 0.958 . S
C167 H182 0.961 . S
C167 H183 0.960 . S
H168 C152 0.931 . S
H169 C157 0.929 . S
H170 C158 0.960 . S
H171 C158 0.962 . S
H172 C158 0.960 . S
H173 C159 0.961 . S
H174 C159 0.961 . S
H175 C159 0.961 . S
H176 C160 0.931 . S
H177 C165 0.930 . S
H178 C166 0.956 . S
H179 C166 0.961 . S
H180 C166 0.961 . S
H181 C167 0.958 . S
H182 C167 0.961 . S
H183 C167 0.960 . S
C184 C185 1.391 . S
C184 C186 1.394 . S
C184 H200 0.931 . S
C185 C184 1.391 . S
C185 C189 1.376 . S
C186 C184 1.394 . S
C186 C187 1.369 . S
C186 C190 1.531 . S
C187 C186 1.369 . S
C187 C188 1.410 . S
C187 C195 1.503 . S
C188 C187 1.410 . S
C188 C189 1.392 . S
C188 C191 1.511 . S
C189 C185 1.376 . S
C189 C188 1.392 . S
C189 H201 0.929 . S
C190 C186 1.531 . S
C190 H202 0.960 . S
C190 H203 0.962 . S
C190 H204 0.960 . S
C191 C188 1.511 . S
C191 H205 0.961 . S
C191 H206 0.961 . S
C191 H207 0.961 . S
C192 C193 1.370 . S
C192 C194 1.363 . S
C192 H208 0.931 . S
C193 C192 1.370 . S
C193 C197 1.408 . S
C194 C192 1.363 . S
C194 C195 1.370 . S
C194 C198 1.524 . S
C195 C187 1.503 . S
C195 C194 1.370 . S
C195 C196 1.403 . S
C196 C195 1.403 . S
C196 C197 1.404 . S
C196 C199 1.539 . S
C197 C193 1.408 . S
C197 C196 1.404 . S
C197 H209 0.930 . S
C198 C194 1.524 . S
C198 H210 0.956 . S
C198 H211 0.961 . S
C198 H212 0.961 1_565 S
C199 C196 1.539 . S
C199 H213 0.958 . S
C199 H214 0.961 . S
C199 H215 0.960 . S
H200 C184 0.931 . S
H201 C189 0.929 . S
H202 C190 0.960 . S
H203 C190 0.962 . S
H204 C190 0.960 . S
H205 C191 0.961 . S
H206 C191 0.961 . S
H207 C191 0.961 . S
H208 C192 0.931 . S
H209 C197 0.930 . S
H210 C198 0.956 . S
H211 C198 0.961 . S
H212 C198 0.961 1_545 S
H213 C199 0.958 . S
H214 C199 0.961 . S
H215 C199 0.960 . S
C216 C217 1.391 . S
C216 C218 1.394 . S
C216 H232 0.931 . S
C217 C216 1.391 . S
C217 C221 1.376 . S
C218 C216 1.394 . S
C218 C219 1.369 . S
C218 C222 1.531 . S
C219 C218 1.369 . S
C219 C220 1.410 . S
C219 C227 1.503 . S
C220 C219 1.410 . S
C220 C221 1.392 . S
C220 C223 1.511 . S
C221 C217 1.376 . S
C221 C220 1.392 . S
C221 H233 0.929 . S
C222 C218 1.531 . S
C222 H234 0.960 . S
C222 H235 0.962 . S
C222 H236 0.960 . S
C223 C220 1.511 . S
C223 H237 0.961 . S
C223 H238 0.961 . S
C223 H239 0.961 . S
C224 C225 1.370 . S
C224 C226 1.363 . S
C224 H240 0.931 . S
C225 C224 1.370 . S
C225 C229 1.408 . S
C226 C224 1.363 . S
C226 C227 1.370 . S
C226 C230 1.524 . S
C227 C219 1.503 . S
C227 C226 1.370 . S
C227 C228 1.403 . S
C228 C227 1.403 . S
C228 C229 1.404 . S
C228 C231 1.539 . S
C229 C225 1.408 . S
C229 C228 1.404 . S
C229 H241 0.930 . S
C230 C226 1.524 . S
C230 H242 0.956 . S
C230 H243 0.961 . S
C230 H244 0.961 . S
C231 C228 1.539 . S
C231 H245 0.958 . S
C231 H246 0.961 . S
C231 H247 0.960 . S
H232 C216 0.931 . S
H233 C221 0.929 . S
H234 C222 0.960 . S
H235 C222 0.962 . S
H236 C222 0.960 . S
H237 C223 0.961 . S
H238 C223 0.961 . S
H239 C223 0.961 . S
H240 C224 0.931 . S
H241 C229 0.930 . S
H242 C230 0.956 . S
H243 C230 0.961 . S
H244 C230 0.961 . S
H245 C231 0.958 . S
H246 C231 0.961 . S
H247 C231 0.960 . S
C248 C249 1.391 . S
C248 C250 1.394 . S
C248 H264 0.931 . S
C249 C248 1.391 . S
C249 C253 1.376 . S
C250 C248 1.394 . S
C250 C251 1.369 . S
C250 C254 1.531 . S
C251 C250 1.369 . S
C251 C252 1.410 . S
C251 C259 1.503 . S
C252 C251 1.410 . S
C252 C253 1.392 . S
C252 C255 1.511 . S
C253 C249 1.376 . S
C253 C252 1.392 . S
C253 H265 0.929 . S
C254 C250 1.531 . S
C254 H266 0.960 . S
C254 H267 0.962 . S
C254 H268 0.960 . S
C255 C252 1.511 . S
C255 H269 0.961 . S
C255 H270 0.961 . S
C255 H271 0.961 . S
C256 C257 1.370 . S
C256 C258 1.363 . S
C256 H272 0.931 . S
C257 C256 1.370 . S
C257 C261 1.408 . S
C258 C256 1.363 . S
C258 C259 1.370 . S
C258 C262 1.524 . S
C259 C251 1.503 . S
C259 C258 1.370 . S
C259 C260 1.403 . S
C260 C259 1.403 . S
C260 C261 1.404 . S
C260 C263 1.539 . S
C261 C257 1.408 . S
C261 C260 1.404 . S
C261 H273 0.930 . S
C262 C258 1.524 . S
C262 H274 0.956 . S
C262 H275 0.961 . S
C262 H276 0.961 1_655 S
C263 C260 1.539 . S
C263 H277 0.958 . S
C263 H278 0.961 . S
C263 H279 0.960 . S
H264 C248 0.931 . S
H265 C253 0.929 . S
H266 C254 0.960 . S
H267 C254 0.962 . S
H268 C254 0.960 . S
H269 C255 0.961 . S
H270 C255 0.961 . S
H271 C255 0.961 . S
H272 C256 0.931 . S
H273 C261 0.930 . S
H274 C262 0.956 . S
H275 C262 0.961 . S
H276 C262 0.961 1_455 S
H277 C263 0.958 . S
H278 C263 0.961 . S
H279 C263 0.960 . S
C280 C281 1.391 . S
C280 C282 1.394 . S
C280 H296 0.931 . S
C281 C280 1.391 . S
C281 C285 1.376 . S
C282 C280 1.394 . S
C282 C283 1.369 . S
C282 C286 1.531 . S
C283 C282 1.369 . S
C283 C284 1.410 . S
C283 C291 1.503 . S
C284 C283 1.410 . S
C284 C285 1.392 . S
C284 C287 1.511 . S
C285 C281 1.376 . S
C285 C284 1.392 . S
C285 H297 0.929 . S
C286 C282 1.531 . S
C286 H298 0.960 . S
C286 H299 0.962 . S
C286 H300 0.960 . S
C287 C284 1.511 . S
C287 H301 0.961 . S
C287 H302 0.961 . S
C287 H303 0.961 . S
C288 C289 1.370 . S
C288 C290 1.363 . S
C288 H304 0.931 . S
C289 C288 1.370 . S
C289 C293 1.408 . S
C290 C288 1.363 . S
C290 C291 1.370 . S
C290 C294 1.524 . S
C291 C283 1.503 . S
C291 C290 1.370 . S
C291 C292 1.403 . S
C292 C291 1.403 . S
C292 C293 1.404 . S
C292 C295 1.539 . S
C293 C289 1.408 . S
C293 C292 1.404 . S
C293 H305 0.930 . S
C294 C290 1.524 . S
C294 H306 0.956 . S
C294 H307 0.961 . S
C294 H308 0.961 . S
C295 C292 1.539 . S
C295 H309 0.958 . S
C295 H310 0.961 . S
C295 H311 0.960 . S
H296 C280 0.931 . S
H297 C285 0.929 . S
H298 C286 0.960 . S
H299 C286 0.962 . S
H300 C286 0.960 . S
H301 C287 0.961 . S
H302 C287 0.961 . S
H303 C287 0.961 . S
H304 C288 0.931 . S
H305 C293 0.930 . S
H306 C294 0.956 . S
H307 C294 0.961 . S
H308 C294 0.961 . S
H309 C295 0.958 . S
H310 C295 0.961 . S
H311 C295 0.960 . S
C312 C313 1.391 . S
C312 C314 1.394 . S
C312 H328 0.931 . S
C313 C312 1.391 . S
C313 C317 1.376 . S
C314 C312 1.394 . S
C314 C315 1.369 . S
C314 C318 1.531 . S
C315 C314 1.369 . S
C315 C316 1.410 . S
C315 C323 1.503 . S
C316 C315 1.410 . S
C316 C317 1.392 . S
C316 C319 1.511 . S
C317 C313 1.376 . S
C317 C316 1.392 . S
C317 H329 0.929 . S
C318 C314 1.531 . S
C318 H330 0.960 . S
C318 H331 0.962 . S
C318 H332 0.960 . S
C319 C316 1.511 . S
C319 H333 0.961 . S
C319 H334 0.961 . S
C319 H335 0.961 . S
C320 C321 1.370 . S
C320 C322 1.363 . S
C320 H336 0.931 . S
C321 C320 1.370 . S
C321 C325 1.408 . S
C322 C320 1.363 . S
C322 C323 1.370 . S
C322 C326 1.524 . S
C323 C315 1.503 . S
C323 C322 1.370 . S
C323 C324 1.403 . S
C324 C323 1.403 . S
C324 C325 1.404 . S
C324 C327 1.539 . S
C325 C321 1.408 . S
C325 C324 1.404 . S
C325 H337 0.930 . S
C326 C322 1.524 . S
C326 H338 0.956 . S
C326 H339 0.961 . S
C326 H340 0.961 . S
C327 C324 1.539 . S
C327 H341 0.958 . S
C327 H342 0.961 . S
C327 H343 0.960 . S
H328 C312 0.931 . S
H329 C317 0.929 . S
H330 C318 0.960 . S
H331 C318 0.962 . S
H332 C318 0.960 . S
H333 C319 0.961 . S
H334 C319 0.961 . S
H335 C319 0.961 . S
H336 C320 0.931 . S
H337 C325 0.930 . S
H338 C326 0.956 . S
H339 C326 0.961 . S
H340 C326 0.961 . S
H341 C327 0.958 . S
H342 C327 0.961 . S
H343 C327 0.960 . S
C344 C345 1.391 . S
C344 C346 1.394 . S
C344 H360 0.931 . S
C345 C344 1.391 . S
C345 C349 1.376 . S
C346 C344 1.394 . S
C346 C347 1.369 . S
C346 C350 1.531 . S
C347 C346 1.369 . S
C347 C348 1.410 . S
C347 C355 1.503 . S
C348 C347 1.410 . S
C348 C349 1.392 . S
C348 C351 1.511 . S
C349 C345 1.376 . S
C349 C348 1.392 . S
C349 H361 0.929 . S
C350 C346 1.531 . S
C350 H362 0.960 . S
C350 H363 0.962 . S
C350 H364 0.960 . S
C351 C348 1.511 . S
C351 H365 0.961 . S
C351 H366 0.961 . S
C351 H367 0.961 . S
C352 C353 1.370 . S
C352 C354 1.363 . S
C352 H368 0.931 . S
C353 C352 1.370 . S
C353 C357 1.408 . S
C354 C352 1.363 . S
C354 C355 1.370 . S
C354 C358 1.524 . S
C355 C347 1.503 . S
C355 C354 1.370 . S
C355 C356 1.403 . S
C356 C355 1.403 . S
C356 C357 1.404 . S
C356 C359 1.539 . S
C357 C353 1.408 . S
C357 C356 1.404 . S
C357 H369 0.930 . S
C358 C354 1.524 . S
C358 H370 0.956 . S
C358 H371 0.961 . S
C358 H372 0.961 . S
C359 C356 1.539 . S
C359 H373 0.958 . S
C359 H374 0.961 . S
C359 H375 0.960 . S
H360 C344 0.931 . S
H361 C349 0.929 . S
H362 C350 0.960 . S
H363 C350 0.962 . S
H364 C350 0.960 . S
H365 C351 0.961 . S
H366 C351 0.961 . S
H367 C351 0.961 . S
H368 C352 0.931 . S
H369 C357 0.930 . S
H370 C358 0.956 . S
H371 C358 0.961 . S
H372 C358 0.961 . S
H373 C359 0.958 . S
H374 C359 0.961 . S
H375 C359 0.960 . S
C376 C377 1.391 . S
C376 C378 1.394 . S
C376 H392 0.931 . S
C377 C376 1.391 . S
C377 C381 1.376 . S
C378 C376 1.394 . S
C378 C379 1.369 . S
C378 C382 1.531 . S
C379 C378 1.369 . S
C379 C380 1.410 . S
C379 C387 1.503 . S
C380 C379 1.410 . S
C380 C381 1.392 . S
C380 C383 1.511 . S
C381 C377 1.376 . S
C381 C380 1.392 . S
C381 H393 0.929 . S
C382 C378 1.531 . S
C382 H394 0.960 . S
C382 H395 0.962 . S
C382 H396 0.960 . S
C383 C380 1.511 . S
C383 H397 0.961 . S
C383 H398 0.961 . S
C383 H399 0.961 . S
C384 C385 1.370 . S
C384 C386 1.363 . S
C384 H400 0.931 . S
C385 C384 1.370 . S
C385 C389 1.408 . S
C386 C384 1.363 . S
C386 C387 1.370 . S
C386 C390 1.524 . S
C387 C379 1.503 . S
C387 C386 1.370 . S
C387 C388 1.403 . S
C388 C387 1.403 . S
C388 C389 1.404 . S
C388 C391 1.539 . S
C389 C385 1.408 . S
C389 C388 1.404 . S
C389 H401 0.930 . S
C390 C386 1.524 . S
C390 H402 0.956 . S
C390 H403 0.961 . S
C390 H404 0.961 . S
C391 C388 1.539 . S
C391 H405 0.958 . S
C391 H406 0.961 . S
C391 H407 0.960 . S
H392 C376 0.931 . S
H393 C381 0.929 . S
H394 C382 0.960 . S
H395 C382 0.962 . S
H396 C382 0.960 . S
H397 C383 0.961 . S
H398 C383 0.961 . S
H399 C383 0.961 . S
H400 C384 0.931 . S
H401 C389 0.930 . S
H402 C390 0.956 . S
H403 C390 0.961 . S
H404 C390 0.961 . S
H405 C391 0.958 . S
H406 C391 0.961 . S
H407 C391 0.960 . S
C408 C409 1.391 . S
C408 C410 1.394 . S
C408 H424 0.931 . S
C409 C408 1.391 . S
C409 C413 1.376 . S
C410 C408 1.394 . S
C410 C411 1.369 . S
C410 C414 1.531 . S
C411 C410 1.369 . S
C411 C412 1.410 . S
C411 C419 1.503 . S
C412 C411 1.410 . S
C412 C413 1.392 . S
C412 C415 1.511 . S
C413 C409 1.376 . S
C413 C412 1.392 . S
C413 H425 0.929 . S
C414 C410 1.531 . S
C414 H426 0.960 . S
C414 H427 0.962 . S
C414 H428 0.960 . S
C415 C412 1.511 . S
C415 H429 0.961 . S
C415 H430 0.961 . S
C415 H431 0.961 . S
C416 C417 1.370 . S
C416 C418 1.363 . S
C416 H432 0.931 . S
C417 C416 1.370 . S
C417 C421 1.408 . S
C418 C416 1.363 . S
C418 C419 1.370 . S
C418 C422 1.524 . S
C419 C411 1.503 . S
C419 C418 1.370 . S
C419 C420 1.403 . S
C420 C419 1.403 . S
C420 C421 1.404 . S
C420 C423 1.539 . S
C421 C417 1.408 . S
C421 C420 1.404 . S
C421 H433 0.930 . S
C422 C418 1.524 . S
C422 H434 0.956 . S
C422 H435 0.961 . S
C422 H436 0.961 . S
C423 C420 1.539 . S
C423 H437 0.958 . S
C423 H438 0.961 . S
C423 H439 0.960 . S
H424 C408 0.931 . S
H425 C413 0.929 . S
H426 C414 0.960 . S
H427 C414 0.962 . S
H428 C414 0.960 . S
H429 C415 0.961 . S
H430 C415 0.961 . S
H431 C415 0.961 . S
H432 C416 0.931 . S
H433 C421 0.930 . S
H434 C422 0.956 . S
H435 C422 0.961 . S
H436 C422 0.961 . S
H437 C423 0.958 . S
H438 C423 0.961 . S
H439 C423 0.960 . S
C440 C441 1.391 . S
C440 C442 1.394 . S
C440 H456 0.931 . S
C441 C440 1.391 . S
C441 C445 1.376 . S
C442 C440 1.394 . S
C442 C443 1.369 . S
C442 C446 1.531 . S
C443 C442 1.369 . S
C443 C444 1.410 . S
C443 C451 1.503 . S
C444 C443 1.410 . S
C444 C445 1.392 . S
C444 C447 1.511 . S
C445 C441 1.376 . S
C445 C444 1.392 . S
C445 H457 0.929 . S
C446 C442 1.531 . S
C446 H458 0.960 . S
C446 H459 0.962 . S
C446 H460 0.960 . S
C447 C444 1.511 . S
C447 H461 0.961 . S
C447 H462 0.961 . S
C447 H463 0.961 . S
C448 C449 1.370 . S
C448 C450 1.363 . S
C448 H464 0.931 . S
C449 C448 1.370 . S
C449 C453 1.408 . S
C450 C448 1.363 . S
C450 C451 1.370 . S
C450 C454 1.524 . S
C451 C443 1.503 . S
C451 C450 1.370 . S
C451 C452 1.403 . S
C452 C451 1.403 . S
C452 C453 1.404 . S
C452 C455 1.539 . S
C453 C449 1.408 . S
C453 C452 1.404 . S
C453 H465 0.930 . S
C454 C450 1.524 . S
C454 H466 0.956 . S
C454 H467 0.961 . S
C454 H468 0.961 . S
C455 C452 1.539 . S
C455 H469 0.958 1_556 S
C455 H470 0.961 . S
C455 H471 0.960 . S
H456 C440 0.931 . S
H457 C445 0.929 . S
H458 C446 0.960 . S
H459 C446 0.962 . S
H460 C446 0.960 . S
H461 C447 0.961 . S
H462 C447 0.961 . S
H463 C447 0.961 . S
H464 C448 0.931 . S
H465 C453 0.930 . S
H466 C454 0.956 . S
H467 C454 0.961 . S
H468 C454 0.961 . S
H469 C455 0.958 1_554 S
H470 C455 0.961 . S
H471 C455 0.960 . S
C472 C473 1.391 . S
C472 C474 1.394 . S
C472 H488 0.931 . S
C473 C472 1.391 . S
C473 C477 1.376 . S
C474 C472 1.394 . S
C474 C475 1.369 . S
C474 C478 1.531 . S
C475 C474 1.369 . S
C475 C476 1.410 . S
C475 C483 1.503 . S
C476 C475 1.410 . S
C476 C477 1.392 . S
C476 C479 1.511 . S
C477 C473 1.376 . S
C477 C476 1.392 . S
C477 H489 0.929 . S
C478 C474 1.531 . S
C478 H490 0.960 . S
C478 H491 0.962 . S
C478 H492 0.960 . S
C479 C476 1.511 . S
C479 H493 0.961 . S
C479 H494 0.961 . S
C479 H495 0.961 . S
C480 C481 1.370 . S
C480 C482 1.363 . S
C480 H496 0.931 . S
C481 C480 1.370 . S
C481 C485 1.408 . S
C482 C480 1.363 . S
C482 C483 1.370 . S
C482 C486 1.524 . S
C483 C475 1.503 . S
C483 C482 1.370 . S
C483 C484 1.403 . S
C484 C483 1.403 . S
C484 C485 1.404 . S
C484 C487 1.539 . S
C485 C481 1.408 . S
C485 C484 1.404 . S
C485 H497 0.930 . S
C486 C482 1.524 . S
C486 H498 0.956 . S
C486 H499 0.961 . S
C486 H500 0.961 . S
C487 C484 1.539 . S
C487 H501 0.958 . S
C487 H502 0.961 . S
C487 H503 0.960 . S
H488 C472 0.931 . S
H489 C477 0.929 . S
H490 C478 0.960 . S
H491 C478 0.962 . S
H492 C478 0.960 . S
H493 C479 0.961 . S
H494 C479 0.961 . S
H495 C479 0.961 . S
H496 C480 0.931 . S
H497 C485 0.930 . S
H498 C486 0.956 . S
H499 C486 0.961 . S
H500 C486 0.961 . S
H501 C487 0.958 . S
H502 C487 0.961 . S
H503 C487 0.960 . S
C504 C505 1.391 . S
C504 C506 1.394 . S
C504 H520 0.931 . S
C505 C504 1.391 . S
C505 C509 1.376 . S
C506 C504 1.394 . S
C506 C507 1.369 . S
C506 C510 1.531 . S
C507 C506 1.369 . S
C507 C508 1.410 . S
C507 C515 1.503 . S
C508 C507 1.410 . S
C508 C509 1.392 . S
C508 C511 1.511 . S
C509 C505 1.376 . S
C509 C508 1.392 . S
C509 H521 0.929 . S
C510 C506 1.531 . S
C510 H522 0.960 . S
C510 H523 0.962 . S
C510 H524 0.960 . S
C511 C508 1.511 . S
C511 H525 0.961 . S
C511 H526 0.961 . S
C511 H527 0.961 . S
C512 C513 1.370 . S
C512 C514 1.363 . S
C512 H528 0.931 . S
C513 C512 1.370 . S
C513 C517 1.408 . S
C514 C512 1.363 . S
C514 C515 1.370 . S
C514 C518 1.524 . S
C515 C507 1.503 . S
C515 C514 1.370 . S
C515 C516 1.403 . S
C516 C515 1.403 . S
C516 C517 1.404 . S
C516 C519 1.539 . S
C517 C513 1.408 . S
C517 C516 1.404 . S
C517 H529 0.930 . S
C518 C514 1.524 . S
C518 H530 0.956 . S
C518 H531 0.961 . S
C518 H532 0.961 . S
C519 C516 1.539 . S
C519 H533 0.958 . S
C519 H534 0.961 . S
C519 H535 0.960 . S
H520 C504 0.931 . S
H521 C509 0.929 . S
H522 C510 0.960 . S
H523 C510 0.962 . S
H524 C510 0.960 . S
H525 C511 0.961 . S
H526 C511 0.961 . S
H527 C511 0.961 . S
H528 C512 0.931 . S
H529 C517 0.930 . S
H530 C518 0.956 . S
H531 C518 0.961 . S
H532 C518 0.961 . S
H533 C519 0.958 . S
H534 C519 0.961 . S
H535 C519 0.960 . S
C536 C537 1.391 . S
C536 C538 1.394 . S
C536 H552 0.931 . S
C537 C536 1.391 . S
C537 C541 1.376 . S
C538 C536 1.394 . S
C538 C539 1.369 . S
C538 C542 1.531 . S
C539 C538 1.369 . S
C539 C540 1.410 . S
C539 C547 1.503 . S
C540 C539 1.410 . S
C540 C541 1.392 . S
C540 C543 1.511 . S
C541 C537 1.376 . S
C541 C540 1.392 . S
C541 H553 0.929 . S
C542 C538 1.531 . S
C542 H554 0.960 . S
C542 H555 0.962 . S
C542 H556 0.960 . S
C543 C540 1.511 . S
C543 H557 0.961 . S
C543 H558 0.961 . S
C543 H559 0.961 . S
C544 C545 1.370 . S
C544 C546 1.363 . S
C544 H560 0.931 . S
C545 C544 1.370 . S
C545 C549 1.408 . S
C546 C544 1.363 . S
C546 C547 1.370 . S
C546 C550 1.524 . S
C547 C539 1.503 . S
C547 C546 1.370 . S
C547 C548 1.403 . S
C548 C547 1.403 . S
C548 C549 1.404 . S
C548 C551 1.539 . S
C549 C545 1.408 . S
C549 C548 1.404 . S
C549 H561 0.930 . S
C550 C546 1.524 . S
C550 H562 0.956 . S
C550 H563 0.961 . S
C550 H564 0.961 . S
C551 C548 1.539 . S
C551 H565 0.958 . S
C551 H566 0.961 . S
C551 H567 0.960 . S
H552 C536 0.931 . S
H553 C541 0.929 . S
H554 C542 0.960 . S
H555 C542 0.962 . S
H556 C542 0.960 . S
H557 C543 0.961 . S
H558 C543 0.961 . S
H559 C543 0.961 . S
H560 C544 0.931 . S
H561 C549 0.930 . S
H562 C550 0.956 . S
H563 C550 0.961 . S
H564 C550 0.961 . S
H565 C551 0.958 . S
H566 C551 0.961 . S
H567 C551 0.960 . S
C568 C569 1.391 . S
C568 C570 1.394 . S
C568 H584 0.931 . S
C569 C568 1.391 . S
C569 C573 1.376 . S
C570 C568 1.394 . S
C570 C571 1.369 . S
C570 C574 1.531 . S
C571 C570 1.369 . S
C571 C572 1.410 . S
C571 C579 1.503 . S
C572 C571 1.410 . S
C572 C573 1.392 . S
C572 C575 1.511 . S
C573 C569 1.376 . S
C573 C572 1.392 . S
C573 H585 0.929 . S
C574 C570 1.531 . S
C574 H586 0.960 . S
C574 H587 0.962 . S
C574 H588 0.960 . S
C575 C572 1.511 . S
C575 H589 0.961 . S
C575 H590 0.961 . S
C575 H591 0.961 . S
C576 C577 1.370 . S
C576 C578 1.363 . S
C576 H592 0.931 . S
C577 C576 1.370 . S
C577 C581 1.408 . S
C578 C576 1.363 . S
C578 C579 1.370 . S
C578 C582 1.524 . S
C579 C571 1.503 . S
C579 C578 1.370 . S
C579 C580 1.403 . S
C580 C579 1.403 . S
C580 C581 1.404 . S
C580 C583 1.539 . S
C581 C577 1.408 . S
C581 C580 1.404 . S
C581 H593 0.930 . S
C582 C578 1.524 . S
C582 H594 0.956 . S
C582 H595 0.961 . S
C582 H596 0.961 . S
C583 C580 1.539 . S
C583 H597 0.958 . S
C583 H598 0.961 . S
C583 H599 0.960 . S
H584 C568 0.931 . S
H585 C573 0.929 . S
H586 C574 0.960 . S
H587 C574 0.962 . S
H588 C574 0.960 . S
H589 C575 0.961 . S
H590 C575 0.961 . S
H591 C575 0.961 . S
H592 C576 0.931 . S
H593 C581 0.930 . S
H594 C582 0.956 . S
H595 C582 0.961 . S
H596 C582 0.961 . S
H597 C583 0.958 . S
H598 C583 0.961 . S
H599 C583 0.960 . S
C600 C601 1.391 . S
C600 C602 1.394 . S
C600 H616 0.931 . S
C601 C600 1.391 . S
C601 C605 1.376 . S
C602 C600 1.394 . S
C602 C603 1.369 . S
C602 C606 1.531 . S
C603 C602 1.369 . S
C603 C604 1.410 . S
C603 C611 1.503 . S
C604 C603 1.410 . S
C604 C605 1.392 . S
C604 C607 1.511 . S
C605 C601 1.376 . S
C605 C604 1.392 . S
C605 H617 0.929 . S
C606 C602 1.531 . S
C606 H618 0.960 . S
C606 H619 0.962 . S
C606 H620 0.960 . S
C607 C604 1.511 . S
C607 H621 0.961 . S
C607 H622 0.961 . S
C607 H623 0.961 . S
C608 C609 1.370 . S
C608 C610 1.363 . S
C608 H624 0.931 . S
C609 C608 1.370 . S
C609 C613 1.408 . S
C610 C608 1.363 . S
C610 C611 1.370 . S
C610 C614 1.524 . S
C611 C603 1.503 . S
C611 C610 1.370 . S
C611 C612 1.403 . S
C612 C611 1.403 . S
C612 C613 1.404 . S
C612 C615 1.539 . S
C613 C609 1.408 . S
C613 C612 1.404 . S
C613 H625 0.930 . S
C614 C610 1.524 . S
C614 H626 0.956 . S
C614 H627 0.961 . S
C614 H628 0.961 . S
C615 C612 1.539 . S
C615 H629 0.958 . S
C615 H630 0.961 . S
C615 H631 0.960 . S
H616 C600 0.931 . S
H617 C605 0.929 . S
H618 C606 0.960 . S
H619 C606 0.962 . S
H620 C606 0.960 . S
H621 C607 0.961 . S
H622 C607 0.961 . S
H623 C607 0.961 . S
H624 C608 0.931 . S
H625 C613 0.930 . S
H626 C614 0.956 . S
H627 C614 0.961 . S
H628 C614 0.961 . S
H629 C615 0.958 . S
H630 C615 0.961 . S
H631 C615 0.960 . S
C632 C633 1.391 . S
C632 C634 1.394 . S
C632 H648 0.931 . S
C633 C632 1.391 . S
C633 C637 1.376 . S
C634 C632 1.394 . S
C634 C635 1.369 . S
C634 C638 1.531 . S
C635 C634 1.369 . S
C635 C636 1.410 . S
C635 C643 1.503 . S
C636 C635 1.410 . S
C636 C637 1.392 . S
C636 C639 1.511 . S
C637 C633 1.376 . S
C637 C636 1.392 . S
C637 H649 0.929 . S
C638 C634 1.531 . S
C638 H650 0.960 . S
C638 H651 0.962 . S
C638 H652 0.960 . S
C639 C636 1.511 . S
C639 H653 0.961 . S
C639 H654 0.961 . S
C639 H655 0.961 . S
C640 C641 1.370 . S
C640 C642 1.363 . S
C640 H656 0.931 . S
C641 C640 1.370 . S
C641 C645 1.408 . S
C642 C640 1.363 . S
C642 C643 1.370 . S
C642 C646 1.524 . S
C643 C635 1.503 . S
C643 C642 1.370 . S
C643 C644 1.403 . S
C644 C643 1.403 . S
C644 C645 1.404 . S
C644 C647 1.539 . S
C645 C641 1.408 . S
C645 C644 1.404 . S
C645 H657 0.930 . S
C646 C642 1.524 . S
C646 H658 0.956 . S
C646 H659 0.961 . S
C646 H660 0.961 . S
C647 C644 1.539 . S
C647 H661 0.958 . S
C647 H662 0.961 . S
C647 H663 0.960 . S
H648 C632 0.931 . S
H649 C637 0.929 . S
H650 C638 0.960 . S
H651 C638 0.962 . S
H652 C638 0.960 . S
H653 C639 0.961 . S
H654 C639 0.961 . S
H655 C639 0.961 . S
H656 C640 0.931 . S
H657 C645 0.930 . S
H658 C646 0.956 . S
H659 C646 0.961 . S
H660 C646 0.961 . S
H661 C647 0.958 . S
H662 C647 0.961 . S
H663 C647 0.960 . S
C664 C665 1.391 . S
C664 C666 1.394 . S
C664 H680 0.931 . S
C665 C664 1.391 . S
C665 C669 1.376 . S
C666 C664 1.394 . S
C666 C667 1.369 . S
C666 C670 1.531 . S
C667 C666 1.369 . S
C667 C668 1.410 . S
C667 C675 1.503 . S
C668 C667 1.410 . S
C668 C669 1.392 . S
C668 C671 1.511 . S
C669 C665 1.376 . S
C669 C668 1.392 . S
C669 H681 0.929 . S
C670 C666 1.531 . S
C670 H682 0.960 . S
C670 H683 0.962 . S
C670 H684 0.960 . S
C671 C668 1.511 . S
C671 H685 0.961 . S
C671 H686 0.961 . S
C671 H687 0.961 . S
C672 C673 1.370 . S
C672 C674 1.363 . S
C672 H688 0.931 . S
C673 C672 1.370 . S
C673 C677 1.408 . S
C674 C672 1.363 . S
C674 C675 1.370 . S
C674 C678 1.524 . S
C675 C667 1.503 . S
C675 C674 1.370 . S
C675 C676 1.403 . S
C676 C675 1.403 . S
C676 C677 1.404 . S
C676 C679 1.539 . S
C677 C673 1.408 . S
C677 C676 1.404 . S
C677 H689 0.930 . S
C678 C674 1.524 . S
C678 H690 0.956 . S
C678 H691 0.961 . S
C678 H692 0.961 . S
C679 C676 1.539 . S
C679 H693 0.958 . S
C679 H694 0.961 . S
C679 H695 0.960 . S
H680 C664 0.931 . S
H681 C669 0.929 . S
H682 C670 0.960 . S
H683 C670 0.962 . S
H684 C670 0.960 . S
H685 C671 0.961 . S
H686 C671 0.961 . S
H687 C671 0.961 . S
H688 C672 0.931 . S
H689 C677 0.930 . S
H690 C678 0.956 . S
H691 C678 0.961 . S
H692 C678 0.961 . S
H693 C679 0.958 . S
H694 C679 0.961 . S
H695 C679 0.960 . S
C696 C697 1.391 . S
C696 C698 1.394 . S
C696 H712 0.931 . S
C697 C696 1.391 . S
C697 C701 1.376 . S
C698 C696 1.394 . S
C698 C699 1.369 . S
C698 C702 1.531 . S
C699 C698 1.369 . S
C699 C700 1.410 . S
C699 C707 1.503 . S
C700 C699 1.410 . S
C700 C701 1.392 . S
C700 C703 1.511 . S
C701 C697 1.376 . S
C701 C700 1.392 . S
C701 H713 0.929 . S
C702 C698 1.531 . S
C702 H714 0.960 . S
C702 H715 0.962 . S
C702 H716 0.960 . S
C703 C700 1.511 . S
C703 H717 0.961 . S
C703 H718 0.961 . S
C703 H719 0.961 . S
C704 C705 1.370 . S
C704 C706 1.363 . S
C704 H720 0.931 . S
C705 C704 1.370 . S
C705 C709 1.408 . S
C706 C704 1.363 . S
C706 C707 1.370 . S
C706 C710 1.524 . S
C707 C699 1.503 . S
C707 C706 1.370 . S
C707 C708 1.403 . S
C708 C707 1.403 . S
C708 C709 1.404 . S
C708 C711 1.539 . S
C709 C705 1.408 . S
C709 C708 1.404 . S
C709 H721 0.930 . S
C710 C706 1.524 . S
C710 H722 0.956 . S
C710 H723 0.961 . S
C710 H724 0.961 . S
C711 C708 1.539 . S
C711 H725 0.958 . S
C711 H726 0.961 . S
C711 H727 0.960 . S
H712 C696 0.931 . S
H713 C701 0.929 . S
H714 C702 0.960 . S
H715 C702 0.962 . S
H716 C702 0.960 . S
H717 C703 0.961 . S
H718 C703 0.961 . S
H719 C703 0.961 . S
H720 C704 0.931 . S
H721 C709 0.930 . S
H722 C710 0.956 . S
H723 C710 0.961 . S
H724 C710 0.961 . S
H725 C711 0.958 . S
H726 C711 0.961 . S
H727 C711 0.960 . S
C728 C729 1.391 . S
C728 C730 1.394 . S
C728 H744 0.931 . S
C729 C728 1.391 . S
C729 C733 1.376 . S
C730 C728 1.394 . S
C730 C731 1.369 . S
C730 C734 1.531 . S
C731 C730 1.369 . S
C731 C732 1.410 . S
C731 C739 1.503 . S
C732 C731 1.410 . S
C732 C733 1.392 . S
C732 C735 1.511 . S
C733 C729 1.376 . S
C733 C732 1.392 . S
C733 H745 0.929 . S
C734 C730 1.531 . S
C734 H746 0.960 . S
C734 H747 0.962 . S
C734 H748 0.960 . S
C735 C732 1.511 . S
C735 H749 0.961 . S
C735 H750 0.961 . S
C735 H751 0.961 . S
C736 C737 1.370 . S
C736 C738 1.363 . S
C736 H752 0.931 . S
C737 C736 1.370 . S
C737 C741 1.408 . S
C738 C736 1.363 . S
C738 C739 1.370 . S
C738 C742 1.524 . S
C739 C731 1.503 . S
C739 C738 1.370 . S
C739 C740 1.403 . S
C740 C739 1.403 . S
C740 C741 1.404 . S
C740 C743 1.539 . S
C741 C737 1.408 . S
C741 C740 1.404 . S
C741 H753 0.930 1_554 S
C742 C738 1.524 . S
C742 H754 0.956 . S
C742 H755 0.961 . S
C742 H756 0.961 . S
C743 C740 1.539 . S
C743 H757 0.958 . S
C743 H758 0.961 1_554 S
C743 H759 0.960 . S
H744 C728 0.931 . S
H745 C733 0.929 . S
H746 C734 0.960 . S
H747 C734 0.962 . S
H748 C734 0.960 . S
H749 C735 0.961 . S
H750 C735 0.961 . S
H751 C735 0.961 . S
H752 C736 0.931 . S
H753 C741 0.930 1_556 S
H754 C742 0.956 . S
H755 C742 0.961 . S
H756 C742 0.961 . S
H757 C743 0.958 . S
H758 C743 0.961 1_556 S
H759 C743 0.960 . S
C760 C761 1.391 . S
C760 C762 1.394 . S
C760 H776 0.931 . S
C761 C760 1.391 . S
C761 C765 1.376 . S
C762 C760 1.394 . S
C762 C763 1.369 . S
C762 C766 1.531 . S
C763 C762 1.369 . S
C763 C764 1.410 . S
C763 C771 1.503 . S
C764 C763 1.410 . S
C764 C765 1.392 . S
C764 C767 1.511 . S
C765 C761 1.376 . S
C765 C764 1.392 . S
C765 H777 0.929 . S
C766 C762 1.531 . S
C766 H778 0.960 . S
C766 H779 0.962 . S
C766 H780 0.960 . S
C767 C764 1.511 . S
C767 H781 0.961 . S
C767 H782 0.961 . S
C767 H783 0.961 . S
C768 C769 1.370 . S
C768 C770 1.363 . S
C768 H784 0.931 . S
C769 C768 1.370 . S
C769 C773 1.408 . S
C770 C768 1.363 . S
C770 C771 1.370 . S
C770 C774 1.524 . S
C771 C763 1.503 . S
C771 C770 1.370 . S
C771 C772 1.403 . S
C772 C771 1.403 . S
C772 C773 1.404 . S
C772 C775 1.539 . S
C773 C769 1.408 . S
C773 C772 1.404 . S
C773 H785 0.930 . S
C774 C770 1.524 . S
C774 H786 0.956 . S
C774 H787 0.961 . S
C774 H788 0.961 . S
C775 C772 1.539 . S
C775 H789 0.958 . S
C775 H790 0.961 . S
C775 H791 0.960 . S
H776 C760 0.931 . S
H777 C765 0.929 . S
H778 C766 0.960 . S
H779 C766 0.962 . S
H780 C766 0.960 . S
H781 C767 0.961 . S
H782 C767 0.961 . S
H783 C767 0.961 . S
H784 C768 0.931 . S
H785 C773 0.930 . S
H786 C774 0.956 . S
H787 C774 0.961 . S
H788 C774 0.961 . S
H789 C775 0.958 . S
H790 C775 0.961 . S
H791 C775 0.960 . S
C792 C793 1.391 . S
C792 C794 1.394 . S
C792 H808 0.931 . S
C793 C792 1.391 . S
C793 C797 1.376 . S
C794 C792 1.394 . S
C794 C795 1.369 . S
C794 C798 1.531 . S
C795 C794 1.369 . S
C795 C796 1.410 . S
C795 C803 1.503 . S
C796 C795 1.410 . S
C796 C797 1.392 . S
C796 C799 1.511 . S
C797 C793 1.376 . S
C797 C796 1.392 . S
C797 H809 0.929 . S
C798 C794 1.531 . S
C798 H810 0.960 . S
C798 H811 0.962 . S
C798 H812 0.960 . S
C799 C796 1.511 . S
C799 H813 0.961 . S
C799 H814 0.961 . S
C799 H815 0.961 . S
C800 C801 1.370 . S
C800 C802 1.363 . S
C800 H816 0.931 . S
C801 C800 1.370 . S
C801 C805 1.408 . S
C802 C800 1.363 . S
C802 C803 1.370 . S
C802 C806 1.524 . S
C803 C795 1.503 . S
C803 C802 1.370 . S
C803 C804 1.403 . S
C804 C803 1.403 . S
C804 C805 1.404 . S
C804 C807 1.539 . S
C805 C801 1.408 . S
C805 C804 1.404 . S
C805 H817 0.930 . S
C806 C802 1.524 . S
C806 H818 0.956 . S
C806 H819 0.961 . S
C806 H820 0.961 . S
C807 C804 1.539 . S
C807 H821 0.958 . S
C807 H822 0.961 . S
C807 H823 0.960 . S
H808 C792 0.931 . S
H809 C797 0.929 . S
H810 C798 0.960 . S
H811 C798 0.962 . S
H812 C798 0.960 . S
H813 C799 0.961 . S
H814 C799 0.961 . S
H815 C799 0.961 . S
H816 C800 0.931 . S
H817 C805 0.930 . S
H818 C806 0.956 . S
H819 C806 0.961 . S
H820 C806 0.961 . S
H821 C807 0.958 . S
H822 C807 0.961 . S
H823 C807 0.960 . S
C824 C825 1.391 . S
C824 C826 1.394 . S
C824 H840 0.931 . S
C825 C824 1.391 . S
C825 C829 1.376 . S
C826 C824 1.394 . S
C826 C827 1.369 . S
C826 C830 1.531 . S
C827 C826 1.369 . S
C827 C828 1.410 . S
C827 C835 1.503 . S
C828 C827 1.410 . S
C828 C829 1.392 . S
C828 C831 1.511 . S
C829 C825 1.376 . S
C829 C828 1.392 . S
C829 H841 0.929 . S
C830 C826 1.531 . S
C830 H842 0.960 . S
C830 H843 0.962 . S
C830 H844 0.960 . S
C831 C828 1.511 . S
C831 H845 0.961 . S
C831 H846 0.961 . S
C831 H847 0.961 . S
C832 C833 1.370 . S
C832 C834 1.363 . S
C832 H848 0.931 . S
C833 C832 1.370 . S
C833 C837 1.408 . S
C834 C832 1.363 . S
C834 C835 1.370 . S
C834 C838 1.524 . S
C835 C827 1.503 . S
C835 C834 1.370 . S
C835 C836 1.403 . S
C836 C835 1.403 . S
C836 C837 1.404 . S
C836 C839 1.539 . S
C837 C833 1.408 . S
C837 C836 1.404 . S
C837 H849 0.930 1_554 S
C838 C834 1.524 . S
C838 H850 0.956 . S
C838 H851 0.961 . S
C838 H852 0.961 . S
C839 C836 1.539 . S
C839 H853 0.958 1_554 S
C839 H854 0.961 1_554 S
C839 H855 0.960 . S
H840 C824 0.931 . S
H841 C829 0.929 . S
H842 C830 0.960 . S
H843 C830 0.962 . S
H844 C830 0.960 . S
H845 C831 0.961 . S
H846 C831 0.961 . S
H847 C831 0.961 . S
H848 C832 0.931 . S
H849 C837 0.930 1_556 S
H850 C838 0.956 . S
H851 C838 0.961 . S
H852 C838 0.961 . S
H853 C839 0.958 1_556 S
H854 C839 0.961 1_556 S
H855 C839 0.960 . S
C856 C857 1.391 . S
C856 C858 1.394 . S
C856 H872 0.931 . S
C857 C856 1.391 . S
C857 C861 1.376 . S
C858 C856 1.394 . S
C858 C859 1.369 . S
C858 C862 1.531 . S
C859 C858 1.369 . S
C859 C860 1.410 . S
C859 C867 1.503 . S
C860 C859 1.410 . S
C860 C861 1.392 . S
C860 C863 1.511 . S
C861 C857 1.376 . S
C861 C860 1.392 . S
C861 H873 0.929 . S
C862 C858 1.531 . S
C862 H874 0.960 . S
C862 H875 0.962 . S
C862 H876 0.960 . S
C863 C860 1.511 . S
C863 H877 0.961 . S
C863 H878 0.961 . S
C863 H879 0.961 . S
C864 C865 1.370 . S
C864 C866 1.363 . S
C864 H880 0.931 . S
C865 C864 1.370 . S
C865 C869 1.408 . S
C866 C864 1.363 . S
C866 C867 1.370 . S
C866 C870 1.524 . S
C867 C859 1.503 . S
C867 C866 1.370 . S
C867 C868 1.403 . S
C868 C867 1.403 . S
C868 C869 1.404 . S
C868 C871 1.539 . S
C869 C865 1.408 . S
C869 C868 1.404 . S
C869 H881 0.930 . S
C870 C866 1.524 . S
C870 H882 0.956 . S
C870 H883 0.961 . S
C870 H884 0.961 . S
C871 C868 1.539 . S
C871 H885 0.958 . S
C871 H886 0.961 . S
C871 H887 0.960 . S
H872 C856 0.931 . S
H873 C861 0.929 . S
H874 C862 0.960 . S
H875 C862 0.962 . S
H876 C862 0.960 . S
H877 C863 0.961 . S
H878 C863 0.961 . S
H879 C863 0.961 . S
H880 C864 0.931 . S
H881 C869 0.930 . S
H882 C870 0.956 . S
H883 C870 0.961 . S
H884 C870 0.961 . S
H885 C871 0.958 . S
H886 C871 0.961 . S
H887 C871 0.960 . S
C888 C889 1.391 . S
C888 C890 1.394 . S
C888 H904 0.931 . S
C889 C888 1.391 . S
C889 C893 1.376 . S
C890 C888 1.394 . S
C890 C891 1.369 . S
C890 C894 1.531 . S
C891 C890 1.369 . S
C891 C892 1.410 . S
C891 C899 1.503 . S
C892 C891 1.410 . S
C892 C893 1.392 . S
C892 C895 1.511 . S
C893 C889 1.376 . S
C893 C892 1.392 . S
C893 H905 0.929 . S
C894 C890 1.531 . S
C894 H906 0.960 . S
C894 H907 0.962 . S
C894 H908 0.960 . S
C895 C892 1.511 . S
C895 H909 0.961 . S
C895 H910 0.961 . S
C895 H911 0.961 . S
C896 C897 1.370 . S
C896 C898 1.363 . S
C896 H912 0.931 . S
C897 C896 1.370 . S
C897 C901 1.408 . S
C898 C896 1.363 . S
C898 C899 1.370 . S
C898 C902 1.524 . S
C899 C891 1.503 . S
C899 C898 1.370 . S
C899 C900 1.403 . S
C900 C899 1.403 . S
C900 C901 1.404 . S
C900 C903 1.539 . S
C901 C897 1.408 . S
C901 C900 1.404 . S
C901 H913 0.930 . S
C902 C898 1.524 . S
C902 H914 0.956 . S
C902 H915 0.961 . S
C902 H916 0.961 . S
C903 C900 1.539 . S
C903 H917 0.958 . S
C903 H918 0.961 . S
C903 H919 0.960 . S
H904 C888 0.931 . S
H905 C893 0.929 . S
H906 C894 0.960 . S
H907 C894 0.962 . S
H908 C894 0.960 . S
H909 C895 0.961 . S
H910 C895 0.961 . S
H911 C895 0.961 . S
H912 C896 0.931 . S
H913 C901 0.930 . S
H914 C902 0.956 . S
H915 C902 0.961 . S
H916 C902 0.961 . S
H917 C903 0.958 . S
H918 C903 0.961 . S
H919 C903 0.960 . S
C153 C5 1.390 . S
C161 C74 1.377 . S
C185 C14 1.303 . S
C193 C93 1.302 . S
C225 C130 1.761 . S
C217 C25 1.772 . S
C249 C34 1.715 . S
C257 C140 1.680 . S
C289 C110 1.775 . S
C281 C7 1.746 . S
C321 C80 1.355 . S
C313 C13 1.434 . S
C353 C151 1.518 . S
C345 C23 1.548 . S
C385 C121 1.439 . S
C377 C31 1.452 . S
C409 C4 1.579 . S
C417 C134 1.579 . S
C449 C101 1.702 . S
C441 C22 1.752 . S
C473 C32 1.730 . S
C481 C91 1.730 . S
C505 C16 1.214 . S
C513 C113 1.204 . S
C545 C73 1.369 . S
C537 C41 1.350 . S
C569 C50 1.313 . S
C577 C94 1.295 . S
C601 C61 1.767 . S
C609 C131 1.756 . S
C633 C67 1.721 . S
C641 C141 1.695 . S
C665 C40 1.767 . S
C673 C111 1.792 . S
C705 C81 1.365 . S
C697 C52 1.390 . S
C737 C150 1.535 . S
C729 C59 1.555 . S
C769 C120 1.442 . S
C761 C70 1.458 . S
C793 C43 1.552 . S
C801 C133 1.569 . S
C833 C100 1.720 . S
C825 C58 1.760 . S
C865 C90 1.720 . S
C857 C68 1.722 . S
C889 C49 1.202 . S
C897 C114 1.194 . S
