# Generated by pormake.
# Topology anh, (6,3)-cn, num edge types: 1
# Building blocks:
#     Node 0, Type 0, BuildingBlock: HISSIN_clean_sbu_0, # of connection points: 6
#     Node 1, Type 0, BuildingBlock: HISSIN_clean_sbu_0, # of connection points: 6
#     Node 2, Type 0, BuildingBlock: HISSIN_clean_sbu_0, # of connection points: 6
#     Node 3, Type 1, BuildingBlock: MIDCAF_clean_linker_0, # of connection points: 3
#     Node 4, Type 1, BuildingBlock: MIDCAF_clean_linker_0, # of connection points: 3
#     Node 5, Type 1, BuildingBlock: MIDCAF_clean_linker_0, # of connection points: 3
#     Node 6, Type 1, BuildingBlock: MIDCAF_clean_linker_0, # of connection points: 3
#     Node 7, Type 1, BuildingBlock: MIDCAF_clean_linker_0, # of connection points: 3
#     Node 8, Type 1, BuildingBlock: MIDCAF_clean_linker_0, # of connection points: 3
#     Edge 9, Type (0, 1), BuildingBlock: MIFKUJ_clean_linker_0, # of connection points: 2
#     Edge 10, Type (0, 1), BuildingBlock: MIFKUJ_clean_linker_0, # of connection points: 2
#     Edge 11, Type (0, 1), BuildingBlock: MIFKUJ_clean_linker_0, # of connection points: 2
#     Edge 12, Type (0, 1), BuildingBlock: MIFKUJ_clean_linker_0, # of connection points: 2
#     Edge 13, Type (0, 1), BuildingBlock: MIFKUJ_clean_linker_0, # of connection points: 2
#     Edge 14, Type (0, 1), BuildingBlock: MIFKUJ_clean_linker_0, # of connection points: 2
#     Edge 15, Type (0, 1), BuildingBlock: MIFKUJ_clean_linker_0, # of connection points: 2
#     Edge 16, Type (0, 1), BuildingBlock: MIFKUJ_clean_linker_0, # of connection points: 2
#     Edge 17, Type (0, 1), BuildingBlock: MIFKUJ_clean_linker_0, # of connection points: 2
#     Edge 18, Type (0, 1), BuildingBlock: MIFKUJ_clean_linker_0, # of connection points: 2
#     Edge 19, Type (0, 1), BuildingBlock: MIFKUJ_clean_linker_0, # of connection points: 2
#     Edge 20, Type (0, 1), BuildingBlock: MIFKUJ_clean_linker_0, # of connection points: 2
#     Edge 21, Type (0, 1), BuildingBlock: MIFKUJ_clean_linker_0, # of connection points: 2
#     Edge 22, Type (0, 1), BuildingBlock: MIFKUJ_clean_linker_0, # of connection points: 2
#     Edge 23, Type (0, 1), BuildingBlock: MIFKUJ_clean_linker_0, # of connection points: 2
#     Edge 24, Type (0, 1), BuildingBlock: MIFKUJ_clean_linker_0, # of connection points: 2
#     Edge 25, Type (0, 1), BuildingBlock: MIFKUJ_clean_linker_0, # of connection points: 2
#     Edge 26, Type (0, 1), BuildingBlock: MIFKUJ_clean_linker_0, # of connection points: 2
# Relax obj value: 0.202
# Max RMSD: 0.183
# Mean RMSD: 0.150
data_MOF--net-anh--node1-HISSIN_clean_sbu_0--node2-MIDCAF_clean_linker_0--edge1-MIFKUJ_clean_linker_0
_symmetry_space_group_name_H-M    P1
_symmetry_Int_Tables_number       1
_symmetry_cell_setting            triclinic
loop_
_symmetry_equiv_pos_as_xyz
'x, y, z'
_cell_length_a     45.082372
_cell_length_b     45.043636
_cell_length_c     82.250142
_cell_angle_alpha  92.984238
_cell_angle_beta   89.745695
_cell_angle_gamma 120.02638
loop_
_atom_site_label
_atom_site_type_symbol
_atom_site_fract_x
_atom_site_fract_y
_atom_site_fract_z
_atom_type_partial_charge
Eu0 Eu 1.06602 0.52574 0.16881 0.0
Eu1 Eu 0.10842 0.60918 0.17482 0.0
C2 C 0.08337 0.56135 0.2051 0.0
C3 C 0.99433 0.44244 0.15372 0.0
C4 C 0.98074 0.462 0.14784 0.0
C5 C 0.93994 0.39064 0.14774 0.0
C6 C 0.94658 0.44615 0.14256 0.0
C7 C 0.97408 0.40663 0.15328 0.0
C8 C 0.92569 0.41042 0.14284 0.0
C9 C 1.0283 0.46016 0.16173 0.0
O10 O 0.14968 0.59434 0.17713 0.0
O11 O 0.12139 0.53911 0.16572 0.0
C12 C 0.14985 0.56669 0.17111 0.0
O13 O 1.06434 0.54881 0.14546 0.0
O14 O 0.14659 0.65735 0.18725 0.0
O15 O 0.11757 0.6581 0.16649 0.0
O16 O 0.11673 0.59616 0.14918 0.0
C17 C 0.09161 0.57419 0.13948 0.0
O18 O 1.02391 0.53864 0.17291 0.0
O19 O 1.05356 0.59679 0.16994 0.0
O20 O 0.08686 0.58942 0.19918 0.0
O21 O 1.05333 0.48074 0.1527 0.0
O22 O 1.02935 0.47439 0.17611 0.0
O23 O 0.08182 0.53627 0.19551 0.0
C24 C 0.17585 0.69792 0.16777 0.0
C25 C 0.18578 0.73212 0.16521 0.0
C26 C 0.22417 0.7036 0.15233 0.0
C27 C 0.21512 0.75218 0.15636 0.0
C28 C 0.19494 0.68368 0.16109 0.0
C29 C 0.23474 0.73815 0.14992 0.0
C30 C 0.14421 0.6759 0.17618 0.0
C31 C 1.02446 0.56773 0.17106 0.0
H32 H 0.99614 0.48973 0.14802 0.0
H33 H 0.92412 0.36304 0.14825 0.0
H34 H 0.93613 0.46187 0.13885 0.0
H35 H 0.98418 0.39122 0.15783 0.0
H36 H 0.17086 0.74324 0.17002 0.0
H37 H 0.23903 0.69214 0.14788 0.0
H38 H 0.22256 0.77867 0.15465 0.0
H39 H 0.1873 0.65709 0.16269 0.0
Eu40 Eu 0.58971 1.02918 0.50476 0.0
Eu41 Eu 0.54741 0.06993 0.5078 0.0
C42 C 0.57187 0.05014 0.53949 0.0
C43 C 0.61918 0.96489 0.49348 0.0
C44 C 0.59006 0.93307 0.49614 0.0
C45 C 0.64151 0.93592 0.47604 0.0
C46 C 0.58724 0.90278 0.48919 0.0
C47 C 0.64446 0.96613 0.48311 0.0
C48 C 0.61336 0.90383 0.47938 0.0
C49 C 0.62411 0.99699 0.50156 0.0
O50 O 0.60341 0.11216 0.51114 0.0
O51 O 0.62828 0.08379 0.49869 0.0
C52 C 0.63004 0.11253 0.50427 0.0
O53 O 0.56302 1.02098 0.48064 0.0
O54 O 0.53586 0.10631 0.52072 0.0
O55 O 0.51042 0.08198 0.49752 0.0
O56 O 0.56543 0.0726 0.48205 0.0
C57 C 0.56299 1.04615 0.47344 0.0
O58 O 0.53478 0.98574 0.50698 0.0
O59 O 0.50501 1.01431 0.50355 0.0
O60 O 0.54557 0.04963 0.53244 0.0
O61 O 0.62735 1.02051 0.49195 0.0
O62 O 0.60522 0.9945 0.51409 0.0
O63 O 0.59655 0.05077 0.53073 0.0
C64 C 0.53061 0.14117 0.50228 0.0
C65 C 0.5499 0.15026 0.48806 0.0
C66 C 0.54771 0.20094 0.50821 0.0
C67 C 0.56871 0.18455 0.4842 0.0
C68 C 0.5287 0.16656 0.51201 0.0
C69 C 0.56892 0.21041 0.49459 0.0
C70 C 0.51797 0.10697 0.50845 0.0
C71 C 0.50571 0.98558 0.50482 0.0
H72 H 0.56992 0.93145 0.50393 0.0
H73 H 0.6618 0.93762 0.46834 0.0
H74 H 0.56541 0.8785 0.49216 0.0
H75 H 0.6669 0.99048 0.48074 0.0
H76 H 0.55208 0.13116 0.4804 0.0
H77 H 0.54758 0.22023 0.51659 0.0
H78 H 0.58439 0.19098 0.47351 0.0
H79 H 0.51433 0.16009 0.52313 0.0
Eu80 Eu 0.54229 0.53127 0.83733 0.0
Eu81 Eu 0.62524 0.57139 0.83892 0.0
C82 C 0.58349 0.55485 0.87171 0.0
C83 C 0.4542 0.51241 0.82626 0.0
C84 C 0.46741 0.53614 0.81407 0.0
C85 C 0.40326 0.51756 0.8268 0.0
C86 C 0.44891 0.55096 0.80849 0.0
C87 C 0.42172 0.50259 0.83231 0.0
C88 C 0.41709 0.54263 0.81515 0.0
C89 C 0.47592 0.50123 0.83398 0.0
O90 O 0.61112 0.51635 0.84289 0.0
O91 O 0.55473 0.48817 0.8342 0.0
C92 C 0.58271 0.48778 0.83843 0.0
O93 O 0.56206 0.55145 0.81266 0.0
O94 O 0.67522 0.58422 0.84897 0.0
O95 O 0.6719 0.60741 0.82709 0.0
O96 O 0.60659 0.54223 0.8148 0.0
C97 C 0.58513 0.5459 0.80574 0.0
O98 O 0.55629 0.58719 0.84099 0.0
O99 O 0.6123 0.61268 0.83335 0.0
O100 O 0.61009 0.57845 0.8643 0.0
O101 O 0.49502 0.49459 0.82421 0.0
O102 O 0.49276 0.5196 0.84705 0.0
O103 O 0.55721 0.5299 0.86338 0.0
C104 C 0.71228 0.58969 0.82773 0.0
C105 C 0.74674 0.61265 0.8248 0.0
C106 C 0.71675 0.54384 0.8132 0.0
C107 C 0.7663 0.60116 0.81628 0.0
C108 C 0.6972 0.55538 0.82164 0.0
C109 C 0.75155 0.56657 0.81056 0.0
C110 C 0.69143 0.60154 0.83645 0.0
C111 C 0.58461 0.61443 0.83672 0.0
H112 H 0.49265 0.54428 0.80934 0.0
H113 H 0.37908 0.51095 0.83239 0.0
H114 H 0.46009 0.56989 0.79939 0.0
H115 H 0.41136 0.48459 0.84185 0.0
H116 H 0.75855 0.6393 0.82924 0.0
H117 H 0.70484 0.5171 0.80891 0.0
H118 H 0.79323 0.61907 0.81459 0.0
H119 H 0.67037 0.53746 0.82356 0.0
C120 C 0.54631 0.93149 0.20725 0.0
C121 C 0.54286 0.93228 0.1903 0.0
C122 C 0.55418 0.96413 0.18355 0.0
C123 C 0.56664 0.99409 0.19353 0.0
H124 H 0.59631 0.09276 0.19078 0.0
H125 H 0.61839 0.14643 0.17766 0.0
H126 H 0.63474 0.20073 0.2246 0.0
H127 H 0.61329 0.14679 0.23792 0.0
H128 H 0.62214 0.10466 0.26935 0.0
H129 H 0.61921 0.10348 0.29905 0.0
H130 H 0.53925 0.99717 0.29473 0.0
H131 H 0.54267 0.99788 0.26499 0.0
H132 H 0.55976 0.95985 0.23033 0.0
H133 H 0.53818 0.90742 0.21282 0.0
H134 H 0.5514 0.9658 0.17061 0.0
H135 H 0.57382 1.01785 0.18784 0.0
N136 N 0.58598 0.05422 0.21414 0.0
N137 N 0.59299 0.08205 0.23984 0.0
N138 N 0.57601 1.02341 0.23755 0.0
C139 C 0.59375 0.08313 0.22338 0.0
C140 C 0.58403 0.05227 0.24699 0.0
C141 C 0.57726 1.02434 0.22106 0.0
C142 C 0.6036 0.11546 0.21545 0.0
C143 C 0.60417 0.11598 0.19837 0.0
C144 C 0.61641 0.1468 0.19079 0.0
C145 C 0.62827 0.17787 0.20009 0.0
C146 C 0.62598 0.17719 0.21713 0.0
C147 C 0.61375 0.14628 0.22475 0.0
C148 C 0.58264 0.05134 0.26489 0.0
C149 C 0.604 0.08101 0.27474 0.0
C150 C 0.60246 0.08035 0.29168 0.0
C151 C 0.57897 0.05028 0.29903 0.0
C152 C 0.55746 1.02066 0.28924 0.0
C153 C 0.55956 1.02105 0.27229 0.0
C154 C 0.56792 0.99302 0.21056 0.0
C155 C 0.55863 0.96155 0.21729 0.0
C156 C 0.77764 0.53863 0.55798 0.0
C157 C 0.78859 0.54642 0.5419 0.0
C158 C 0.79623 0.57848 0.53648 0.0
C159 C 0.78856 0.60011 0.54607 0.0
H160 H 0.70596 0.61309 0.53229 0.0
H161 H 0.68015 0.63391 0.51316 0.0
H162 H 0.67337 0.69872 0.55176 0.0
H163 H 0.69855 0.67739 0.57111 0.0
H164 H 0.67397 0.62123 0.60457 0.0
H165 H 0.6554 0.6122 0.63248 0.0
H166 H 0.73834 0.59438 0.64433 0.0
H167 H 0.75616 0.60207 0.61611 0.0
H168 H 0.75868 0.55216 0.57933 0.0
H169 H 0.77141 0.51411 0.56256 0.0
H170 H 0.80538 0.58552 0.5243 0.0
H171 H 0.79199 0.62334 0.54101 0.0
N172 N 0.7415 0.62016 0.55871 0.0
N173 N 0.71348 0.62983 0.58057 0.0
N174 N 0.74723 0.60444 0.58473 0.0
C175 C 0.72077 0.63172 0.56452 0.0
C176 C 0.72666 0.6163 0.59078 0.0
C177 C 0.75507 0.60677 0.56868 0.0
C178 C 0.70452 0.6439 0.55316 0.0
C179 C 0.69887 0.63171 0.53672 0.0
C180 C 0.68387 0.64331 0.52581 0.0
C181 C 0.67491 0.66779 0.53107 0.0
C182 C 0.6802 0.6798 0.5475 0.0
C183 C 0.69454 0.66763 0.55852 0.0
C184 C 0.71659 0.61237 0.60806 0.0
C185 C 0.68843 0.61556 0.61312 0.0
C186 C 0.67784 0.61055 0.6292 0.0
C187 C 0.69538 0.60264 0.64074 0.0
C188 C 0.72386 0.5999 0.63574 0.0
C189 C 0.73424 0.60453 0.61956 0.0
C190 C 0.7734 0.59019 0.56128 0.0
C191 C 0.77019 0.56043 0.56762 0.0
C192 C 1.02146 0.56567 0.87279 0.0
C193 C 1.02464 0.57362 0.85634 0.0
C194 C 1.05617 0.59983 0.85106 0.0
C195 C 0.08372 0.61808 0.86201 0.0
H196 H 0.18275 0.71035 0.86869 0.0
H197 H 0.23321 0.73134 0.85186 0.0
H198 H 0.2798 0.69636 0.88622 0.0
H199 H 0.23006 0.67687 0.90326 0.0
H200 H 0.18486 0.6532 0.93875 0.0
H201 H 0.17825 0.64244 0.96776 0.0
H202 H 1.06985 0.60555 0.96286 0.0
H203 H 0.07618 0.61592 0.9339 0.0
H204 H 1.04573 0.57741 0.8964 0.0
H205 H 0.99749 0.54548 0.8772 0.0
H206 H 1.05926 0.60714 0.83856 0.0
H207 H 0.10745 0.6384 0.85748 0.0
N208 N 0.14084 0.65318 0.88428 0.0
N209 N 0.16584 0.66393 0.91042 0.0
N210 N 0.10696 0.62493 0.90618 0.0
C211 C 0.16879 0.67009 0.89432 0.0
C212 C 0.13474 0.64175 0.91646 0.0
C213 C 0.10993 0.63038 0.89003 0.0
C214 C 0.20238 0.69146 0.88708 0.0
C215 C 0.20442 0.70838 0.87289 0.0
C216 C 0.23325 0.72029 0.86324 0.0
C217 C 0.26023 0.71479 0.86743 0.0
C218 C 0.25968 0.7013 0.88259 0.0
C219 C 0.23104 0.68991 0.89239 0.0
C220 C 0.13105 0.63543 0.93402 0.0
C221 C 0.15963 0.64283 0.94386 0.0
C222 C 0.15585 0.63648 0.96042 0.0
C223 C 0.12355 0.62321 0.96749 0.0
C224 C 0.09505 0.616 0.9577 0.0
C225 C 0.0987 0.62179 0.94111 0.0
C226 C 0.08043 0.61069 0.87854 0.0
C227 C 1.04907 0.58404 0.8838 0.0
C228 C 0.18808 0.63474 0.46704 0.0
C229 C 0.18682 0.65757 0.47901 0.0
C230 C 0.15456 0.64851 0.48564 0.0
C231 C 0.12448 0.61811 0.48009 0.0
H232 H 1.02581 0.49853 0.48943 0.0
H233 H 0.97531 0.44738 0.49939 0.0
H234 H 0.93234 0.41913 0.45052 0.0
H235 H 0.98154 0.46886 0.44071 0.0
H236 H 1.02405 0.49329 0.41074 0.0
H237 H 1.02508 0.4938 0.38118 0.0
H238 H 0.11241 0.59672 0.38459 0.0
H239 H 0.11215 0.59572 0.41413 0.0
H240 H 0.16028 0.58895 0.45163 0.0
H241 H 0.21205 0.6407 0.46141 0.0
H242 H 0.15245 0.6652 0.49495 0.0
H243 H 0.10001 0.61268 0.48494 0.0
N244 N 1.06676 0.54307 0.46629 0.0
N245 N 1.04063 0.51892 0.44055 0.0
N246 N 0.09443 0.56844 0.44219 0.0
C247 C 1.0395 0.51783 0.45707 0.0
C248 C 1.06766 0.54397 0.433 0.0
C249 C 0.0945 0.56852 0.45872 0.0
C250 C 1.00846 0.48816 0.46417 0.0
C251 C 1.00552 0.48145 0.48085 0.0
C252 C 0.97645 0.45207 0.48657 0.0
C253 C 0.94973 0.42848 0.47574 0.0
C254 C 0.95251 0.43588 0.45924 0.0
C255 C 0.98107 0.46494 0.4536 0.0
C256 C 1.06805 0.54444 0.41491 0.0
C257 C 1.04351 0.51607 0.40521 0.0
C258 C 1.04397 0.51645 0.3882 0.0
C259 C 1.06879 0.54533 0.38037 0.0
C260 C 0.09323 0.57376 0.39009 0.0
C261 C 0.09296 0.57327 0.40711 0.0
C262 C 0.12589 0.59629 0.46761 0.0
C263 C 0.15821 0.60488 0.4614 0.0
C264 C 0.55832 0.1424 0.79955 0.0
C265 C 0.57802 0.16204 0.81336 0.0
C266 C 0.59727 0.15006 0.82152 0.0
C267 C 0.59739 0.11995 0.81573 0.0
H268 H 0.57184 0.99787 0.8227 0.0
H269 H 0.57343 0.94804 0.83269 0.0
H270 H 0.61656 0.93722 0.78731 0.0
H271 H 0.61587 0.98653 0.77772 0.0
H272 H 0.59499 1.00529 0.74561 0.0
H273 H 0.59355 1.00459 0.71594 0.0
H274 H 0.57475 0.08975 0.71862 0.0
H275 H 0.5756 0.09021 0.74818 0.0
H276 H 0.54379 0.09927 0.7828 0.0
H277 H 0.54355 0.15061 0.79267 0.0
H278 H 0.61257 0.16416 0.83229 0.0
H279 H 0.61338 0.11222 0.82191 0.0
N280 N 0.58664 0.04927 0.80085 0.0
N281 N 0.58971 1.02456 0.77533 0.0
N282 N 0.58234 0.07226 0.77644 0.0
C283 C 0.59006 1.02448 0.79189 0.0
C284 C 0.58589 1.0482 0.7675 0.0
C285 C 0.58274 0.0734 0.79298 0.0
C286 C 0.59364 0.99654 0.79935 0.0
C287 C 0.58217 0.98514 0.81501 0.0
C288 C 0.58277 0.95625 0.82066 0.0
C289 C 0.5952 0.93822 0.81088 0.0
C290 C 0.60733 0.95035 0.79543 0.0
C291 C 0.60661 0.97881 0.78983 0.0
C292 C 0.58535 1.04776 0.74938 0.0
C293 C 0.5905 1.02387 0.7399 0.0
C294 C 0.58988 1.02358 0.72286 0.0
C295 C 0.58396 1.04706 0.71487 0.0
C296 C 0.57888 0.07096 0.72435 0.0
C297 C 0.5796 0.07134 0.74135 0.0
C298 C 0.57858 0.10132 0.80153 0.0
C299 C 0.55861 0.11277 0.79378 0.0
C300 C 0.68191 0.53921 0.12973 0.0
C301 C 0.69928 0.5574 0.14427 0.0
C302 C 0.68548 0.57504 0.15336 0.0
C303 C 0.65565 0.57489 0.14785 0.0
H304 H 0.55053 0.58543 0.1561 0.0
H305 H 0.49917 0.58599 0.16629 0.0
H306 H 0.44525 0.53494 0.12106 0.0
H307 H 0.49512 0.53372 0.11128 0.0
H308 H 0.53663 0.5596 0.07959 0.0
H309 H 0.53671 0.55938 0.04999 0.0
H310 H 0.63568 0.56613 0.05003 0.0
H311 H 0.63594 0.56678 0.07969 0.0
H312 H 0.64086 0.52563 0.11271 0.0
H313 H 0.69162 0.5257 0.12218 0.0
H314 H 0.69787 0.58919 0.16468 0.0
H315 H 0.64633 0.58944 0.15486 0.0
N316 N 0.58459 0.56109 0.1335 0.0
N317 N 0.55995 0.56266 0.10856 0.0
N318 N 0.61113 0.56171 0.1086 0.0
C319 C 0.5586 0.56174 0.12505 0.0
C320 C 0.58599 0.56287 0.10022 0.0
C321 C 0.611 0.56079 0.12511 0.0
C322 C 0.52731 0.55959 0.13282 0.0
C323 C 0.52746 0.57384 0.14851 0.0
C324 C 0.49805 0.57447 0.15426 0.0
C325 C 0.46762 0.56041 0.14457 0.0
C326 C 0.4676 0.54554 0.1291 0.0
C327 C 0.49667 0.54513 0.12339 0.0
C328 C 0.58628 0.5632 0.08213 0.0
C329 C 0.55851 0.56113 0.07335 0.0
C330 C 0.55842 0.56078 0.05632 0.0
C331 C 0.58616 0.56266 0.04761 0.0
C332 C 0.61406 0.56501 0.05636 0.0
C333 C 0.61409 0.56519 0.0734 0.0
C334 C 0.63921 0.55754 0.13298 0.0
C335 C 0.65265 0.53936 0.12421 0.0
H336 H 0.1615 0.51643 0.15742 0.0
H337 H 0.21568 0.51688 0.15483 0.0
H338 H 0.26882 0.61725 0.17963 0.0
H339 H 0.21465 0.61742 0.1818 0.0
H340 H 0.30617 0.61638 0.15561 0.0
H341 H 0.25143 0.53999 0.19807 0.0
H342 H 0.20485 0.49049 0.21115 0.0
H343 H 0.2083 0.42178 0.17399 0.0
H344 H 0.2546 0.47091 0.16057 0.0
H345 H 0.46295 0.61213 0.16228 0.0
H346 H 0.41122 0.61485 0.16894 0.0
H347 H 0.34868 0.51444 0.1452 0.0
H348 H 0.39982 0.51094 0.13923 0.0
H349 H 0.31759 0.51754 0.17077 0.0
H350 H 0.37051 0.59569 0.12763 0.0
H351 H 0.41597 0.64603 0.11453 0.0
H352 H 0.41591 0.71263 0.15381 0.0
H353 H 0.37066 0.66265 0.16721 0.0
C354 C 0.18461 0.53863 0.16242 0.0
C355 C 0.18327 0.56677 0.16996 0.0
C356 C 0.2158 0.53878 0.161 0.0
C357 C 0.24677 0.56684 0.16727 0.0
C358 C 0.24556 0.59513 0.1747 0.0
C359 C 0.21435 0.59512 0.17601 0.0
C360 C 0.28027 0.56687 0.1658 0.0
C361 C 0.30871 0.59501 0.15924 0.0
C362 C 0.28402 0.53879 0.17016 0.0
C363 C 0.25629 0.50917 0.17824 0.0
C364 C 0.2421 0.51434 0.19263 0.0
C365 C 0.21577 0.48635 0.20012 0.0
C366 C 0.20357 0.45302 0.19339 0.0
C367 C 0.21775 0.44761 0.17918 0.0
C368 C 0.24406 0.47552 0.17164 0.0
C369 C 0.43819 0.59038 0.15868 0.0
C370 C 0.43601 0.56147 0.15 0.0
C371 C 0.40844 0.59216 0.16231 0.0
C372 C 0.37558 0.56517 0.1573 0.0
C373 C 0.3734 0.53587 0.14916 0.0
C374 C 0.40296 0.53402 0.1456 0.0
C375 C 0.34339 0.567 0.1604 0.0
C376 C 0.31513 0.53912 0.16728 0.0
C377 C 0.3399 0.59545 0.15642 0.0
C378 C 0.36756 0.62539 0.14853 0.0
C379 C 0.38045 0.62104 0.13355 0.0
C380 C 0.40611 0.64952 0.12605 0.0
C381 C 0.41892 0.68249 0.13337 0.0
C382 C 0.4061 0.68706 0.1482 0.0
C383 C 0.38043 0.65868 0.15574 0.0
H384 H 0.43871 0.70452 0.12752 0.0
H385 H 0.18318 0.43138 0.1992 0.0
H386 H 0.68156 0.12599 0.48291 0.0
H387 H 0.73478 0.17971 0.47957 0.0
H388 H 0.70712 0.22906 0.51822 0.0
H389 H 0.65261 0.17547 0.52094 0.0
H390 H 0.73788 0.27406 0.49798 0.0
H391 H 0.7704 0.20081 0.5222 0.0
H392 H 0.77346 0.14837 0.52573 0.0
H393 H 0.82133 0.15943 0.47946 0.0
H394 H 0.81815 0.21171 0.47555 0.0
H395 H 0.91112 0.41847 0.5035 0.0
H396 H 0.85841 0.36626 0.51058 0.0
H397 H 0.86563 0.31277 0.46712 0.0
H398 H 0.91834 0.3642 0.46023 0.0
H399 H 0.84617 0.27153 0.49238 0.0
H400 H 0.81487 0.35073 0.47078 0.0
H401 H 0.81837 0.40718 0.47206 0.0
H402 H 0.76976 0.38645 0.51839 0.0
H403 H 0.76755 0.33071 0.51778 0.0
C404 C 0.68672 0.14819 0.49076 0.0
C405 C 0.66271 0.14599 0.50237 0.0
C406 C 0.71754 0.17912 0.48892 0.0
C407 C 0.72611 0.2088 0.49895 0.0
C408 C 0.70174 0.20684 0.51033 0.0
C409 C 0.67045 0.17598 0.51194 0.0
C410 C 0.76029 0.24151 0.49752 0.0
C411 C 0.76151 0.27335 0.49699 0.0
C412 C 0.79173 0.24141 0.49622 0.0
C413 C 0.79375 0.21 0.49852 0.0
C414 C 0.78138 0.19193 0.51273 0.0
C415 C 0.78316 0.16225 0.5148 0.0
C416 C 0.7975 0.15053 0.50281 0.0
C417 C 0.81018 0.16851 0.48873 0.0
C418 C 0.80843 0.19819 0.48658 0.0
C419 C 0.90176 0.39547 0.49556 0.0
C420 C 0.91905 0.39601 0.48114 0.0
C421 C 0.87134 0.36557 0.49956 0.0
C422 C 0.85733 0.33535 0.48926 0.0
C423 C 0.87541 0.33553 0.47527 0.0
C424 C 0.9056 0.36527 0.47126 0.0
C425 C 0.82358 0.30375 0.4926 0.0
C426 C 0.82247 0.27211 0.49344 0.0
C427 C 0.79252 0.30428 0.49464 0.0
C428 C 0.79166 0.33677 0.49438 0.0
C429 C 0.80524 0.35835 0.48132 0.0
C430 C 0.80726 0.39038 0.48199 0.0
C431 C 0.79475 0.40065 0.4954 0.0
C432 C 0.77982 0.37872 0.50808 0.0
C433 C 0.77834 0.34696 0.50762 0.0
H434 H 0.79645 0.4255 0.4959 0.0
H435 H 0.79886 0.12754 0.50444 0.0
H436 H 0.63452 0.67352 0.8237 0.0
H437 H 0.63536 0.72759 0.82084 0.0
H438 H 0.53735 0.68632 0.84372 0.0
H439 H 0.53581 0.63155 0.84607 0.0
H440 H 0.53676 0.722 0.82051 0.0
H441 H 0.61827 0.74784 0.8636 0.0
H442 H 0.66852 0.75096 0.87715 0.0
H443 H 0.73389 0.81597 0.84072 0.0
H444 H 0.68395 0.81288 0.82682 0.0
H445 H 0.54706 0.88585 0.82899 0.0
H446 H 0.54497 0.83242 0.83557 0.0
H447 H 0.63981 0.86391 0.81086 0.0
H448 H 0.64296 0.91789 0.80499 0.0
H449 H 0.64028 0.83308 0.8368 0.0
H450 H 0.55659 0.80278 0.79286 0.0
H451 H 0.50648 0.80256 0.78076 0.0
H452 H 0.44522 0.74779 0.8207 0.0
H453 H 0.49498 0.74766 0.83299 0.0
C454 C 0.61313 0.67585 0.82821 0.0
C455 C 0.58523 0.64792 0.83526 0.0
C456 C 0.61372 0.7071 0.82664 0.0
C457 C 0.58678 0.71185 0.83236 0.0
C458 C 0.55865 0.6838 0.83923 0.0
C459 C 0.55786 0.65235 0.84064 0.0
C460 C 0.58784 0.74576 0.83101 0.0
C461 C 0.55932 0.74616 0.82432 0.0
C462 C 0.61721 0.77783 0.83574 0.0
C463 C 0.64732 0.77987 0.8441 0.0
C464 C 0.64333 0.76262 0.85842 0.0
C465 C 0.67176 0.7644 0.86617 0.0
C466 C 0.70436 0.78358 0.85978 0.0
C467 C 0.70861 0.80109 0.84565 0.0
C468 C 0.68026 0.79936 0.83784 0.0
C469 C 0.56781 0.88177 0.82517 0.0
C470 C 0.59495 0.90644 0.81622 0.0
C471 C 0.56635 0.85078 0.82877 0.0
C472 C 0.59181 0.8433 0.82341 0.0
C473 C 0.61957 0.8685 0.81506 0.0
C474 C 0.62114 0.89946 0.81155 0.0
C475 C 0.58948 0.80925 0.82612 0.0
C476 C 0.61775 0.80885 0.83305 0.0
C477 C 0.55986 0.77722 0.82174 0.0
C478 C 0.5295 0.77546 0.81389 0.0
C479 C 0.53238 0.79063 0.79902 0.0
C480 C 0.50408 0.79059 0.79214 0.0
C481 C 0.47276 0.77538 0.80001 0.0
C482 C 0.46953 0.75968 0.81464 0.0
C483 C 0.49772 0.7595 0.82153 0.0
H484 H 0.45097 0.77566 0.79473 0.0
H485 H 0.72634 0.78493 0.8658 0.0
H486 H 1.01269 0.62233 0.17371 0.0
H487 H 0.95805 0.62132 0.17055 0.0
H488 H 0.90579 0.51149 0.16132 0.0
H489 H 0.96003 0.51217 0.16483 0.0
H490 H 0.88798 0.54582 0.13859 0.0
H491 H 0.89664 0.54239 0.19671 0.0
H492 H 0.92522 0.56331 0.22374 0.0
H493 H 0.92757 0.65898 0.21917 0.0
H494 H 0.89948 0.63883 0.19199 0.0
H495 H 0.71483 0.50537 0.14168 0.0
H496 H 0.76952 0.50842 0.14704 0.0
H497 H 0.8137 0.61475 0.16365 0.0
H498 H 0.75883 0.61193 0.15822 0.0
H499 H 0.83737 0.58471 0.18252 0.0
H500 H 0.82686 0.58906 0.12559 0.0
H501 H 0.80176 0.57172 0.0978 0.0
H502 H 0.80748 0.4795 0.09858 0.0
H503 H 0.83189 0.49585 0.12654 0.0
C504 C 0.98958 0.59791 0.17109 0.0
C505 C 0.99104 0.56734 0.16957 0.0
C506 C 0.95824 0.59736 0.16931 0.0
C507 C 0.92752 0.56631 0.16572 0.0
C508 C 0.92896 0.53582 0.16408 0.0
C509 C 0.96013 0.53626 0.16615 0.0
C510 C 0.89405 0.56559 0.16342 0.0
C511 C 0.87663 0.55381 0.14827 0.0
C512 C 0.87971 0.57722 0.17583 0.0
C513 C 0.89627 0.58923 0.19224 0.0
C514 C 0.9035 0.568 0.20141 0.0
C515 C 0.91957 0.57969 0.21677 0.0
C516 C 0.92828 0.61248 0.22315 0.0
C517 C 0.92085 0.6336 0.2142 0.0
C518 C 0.90483 0.62205 0.19882 0.0
C519 C 0.7361 0.52955 0.14643 0.0
C520 C 0.73212 0.55853 0.14928 0.0
C521 C 0.76759 0.53124 0.14951 0.0
C522 C 0.79638 0.56203 0.15546 0.0
C523 C 0.79217 0.59065 0.15899 0.0
C524 C 0.76056 0.58896 0.15593 0.0
C525 C 0.83075 0.56433 0.15768 0.0
C526 C 0.84849 0.57656 0.1728 0.0
C527 C 0.84567 0.55351 0.14513 0.0
C528 C 0.8306 0.54339 0.12834 0.0
C529 C 0.8223 0.56482 0.11996 0.0
C530 C 0.80827 0.5552 0.10414 0.0
C531 C 0.80283 0.52442 0.09647 0.0
C532 C 0.81156 0.50326 0.10457 0.0
C533 C 0.82548 0.51269 0.12041 0.0
H534 H 0.79201 0.51704 0.08422 0.0
H535 H 0.94072 0.6215 0.23504 0.0
H536 H 0.43967 0.97397 0.50241 0.0
H537 H 0.38606 0.91906 0.49909 0.0
H538 H 0.44242 0.86512 0.50019 0.0
H539 H 0.49624 0.92 0.50341 0.0
H540 H 0.39428 0.83717 0.47632 0.0
H541 H 0.39512 0.86841 0.53303 0.0
H542 H 0.39896 0.90621 0.55669 0.0
H543 H 0.31051 0.90791 0.5388 0.0
H544 H 0.30642 0.87047 0.5149 0.0
H545 H 0.25264 0.6697 0.48362 0.0
H546 H 0.30542 0.72452 0.48884 0.0
H547 H 0.24756 0.7771 0.49023 0.0
H548 H 0.19444 0.72207 0.48511 0.0
H549 H 0.29638 0.80617 0.51284 0.0
H550 H 0.29539 0.77581 0.45616 0.0
H551 H 0.29162 0.73904 0.43206 0.0
H552 H 0.38026 0.73686 0.44927 0.0
H553 H 0.38428 0.77325 0.4736 0.0
C554 C 0.4408 0.95049 0.50203 0.0
C555 C 0.47262 0.95177 0.50327 0.0
C556 C 0.40991 0.91891 0.50018 0.0
C557 C 0.40976 0.88753 0.49953 0.0
C558 C 0.44152 0.88873 0.50067 0.0
C559 C 0.47242 0.92031 0.50259 0.0
C560 C 0.37671 0.85361 0.49742 0.0
C561 C 0.37312 0.83027 0.48448 0.0
C562 C 0.34839 0.84456 0.5077 0.0
C563 C 0.35066 0.8669 0.5221 0.0
C564 C 0.37664 0.87705 0.53408 0.0
C565 C 0.37883 0.89838 0.54754 0.0
C566 C 0.35504 0.90953 0.54923 0.0
C567 C 0.32894 0.89929 0.53747 0.0
C568 C 0.32666 0.87799 0.52397 0.0
C569 C 0.25098 0.69286 0.485 0.0
C570 C 0.21893 0.69112 0.48376 0.0
C571 C 0.28141 0.72443 0.48797 0.0
C572 C 0.28102 0.75551 0.4896 0.0
C573 C 0.24894 0.75377 0.48897 0.0
C574 C 0.21839 0.7221 0.48609 0.0
C575 C 0.31397 0.78961 0.49176 0.0
C576 C 0.31754 0.81302 0.50468 0.0
C577 C 0.34225 0.79883 0.4814 0.0
C578 C 0.33992 0.77696 0.46679 0.0
C579 C 0.31392 0.76727 0.45487 0.0
C580 C 0.31176 0.74653 0.44116 0.0
C581 C 0.33562 0.73554 0.43916 0.0
C582 C 0.36175 0.74534 0.45085 0.0
C583 C 0.364 0.76604 0.4646 0.0
H584 H 0.33391 0.71949 0.42853 0.0
H585 H 0.35679 0.92604 0.55966 0.0
H586 H 0.52966 0.42317 0.8291 0.0
H587 H 0.5302 0.36916 0.82643 0.0
H588 H 0.63606 0.42181 0.84266 0.0
H589 H 0.63591 0.47616 0.84504 0.0
H590 H 0.62799 0.3785 0.81813 0.0
H591 H 0.56777 0.36775 0.86756 0.0
H592 H 0.52335 0.36816 0.88502 0.0
H593 H 0.44472 0.28698 0.85437 0.0
H594 H 0.48867 0.2864 0.8366 0.0
H595 H 0.63282 0.22342 0.82591 0.0
H596 H 0.635 0.2783 0.83204 0.0
H597 H 0.52832 0.23182 0.81789 0.0
H598 H 0.52553 0.17674 0.81258 0.0
H599 H 0.53893 0.27315 0.8427 0.0
H600 H 0.59921 0.28577 0.79259 0.0
H601 H 0.64372 0.28619 0.77488 0.0
H602 H 0.72222 0.3642 0.80679 0.0
H603 H 0.67823 0.36399 0.82475 0.0
C604 C 0.55308 0.42337 0.83221 0.0
C605 C 0.58267 0.45432 0.83742 0.0
C606 C 0.55331 0.39223 0.83074 0.0
C607 C 0.58303 0.39088 0.83456 0.0
C608 C 0.61268 0.4218 0.83966 0.0
C609 C 0.6125 0.453 0.84111 0.0
C610 C 0.58331 0.35747 0.83297 0.0
C611 C 0.60877 0.35564 0.82374 0.0
C612 C 0.55799 0.32711 0.83995 0.0
C613 C 0.53151 0.32724 0.85067 0.0
C614 C 0.541 0.35014 0.86448 0.0
C615 C 0.51591 0.35038 0.87445 0.0
C616 C 0.48123 0.32767 0.87079 0.0
C617 C 0.47158 0.30459 0.85718 0.0
C618 C 0.49658 0.30426 0.84717 0.0
C619 C 0.60962 0.22463 0.82435 0.0
C620 C 0.57908 0.19529 0.81853 0.0
C621 C 0.61102 0.25636 0.82765 0.0
C622 C 0.58202 0.25987 0.8251 0.0
C623 C 0.55126 0.23031 0.81988 0.0
C624 C 0.54979 0.19865 0.81667 0.0
C625 C 0.58343 0.29403 0.82771 0.0
C626 C 0.55826 0.29602 0.83714 0.0
C627 C 0.609 0.32452 0.8209 0.0
C628 C 0.63544 0.32458 0.81011 0.0
C629 C 0.62598 0.30283 0.79588 0.0
C630 C 0.65113 0.30308 0.78578 0.0
C631 C 0.68581 0.32516 0.78972 0.0
C632 C 0.6954 0.3471 0.80374 0.0
C633 C 0.67037 0.34694 0.81388 0.0
H634 H 0.70524 0.3253 0.78189 0.0
H635 H 0.46184 0.3279 0.87851 0.0
H636 H 0.66756 0.89322 0.48003 0.0
H637 H 0.66653 0.83909 0.47712 0.0
H638 H 0.55817 0.78653 0.46533 0.0
H639 H 0.55905 0.84145 0.46828 0.0
H640 H 0.56918 0.75852 0.48936 0.0
H641 H 0.6156 0.78138 0.43773 0.0
H642 H 0.65134 0.81439 0.4153 0.0
H643 H 0.74205 0.83416 0.44161 0.0
H644 H 0.707 0.80179 0.46432 0.0
H645 H 0.61836 0.6336 0.5109 0.0
H646 H 0.59669 0.65904 0.4917 0.0
H647 H 0.68182 0.75963 0.50529 0.0
H648 H 0.70287 0.73456 0.52464 0.0
H649 H 0.66457 0.74235 0.46965 0.0
H650 H 0.61374 0.73907 0.52399 0.0
H651 H 0.57745 0.70672 0.54648 0.0
H652 H 0.49291 0.64805 0.51277 0.0
H653 H 0.52894 0.67985 0.49006 0.0
C654 C 0.6437 0.87048 0.47618 0.0
C655 C 0.61335 0.87169 0.47445 0.0
C656 C 0.64316 0.83935 0.47444 0.0
C657 C 0.61234 0.80864 0.47078 0.0
C658 C 0.58228 0.80992 0.46807 0.0
C659 C 0.58279 0.84124 0.46986 0.0
C660 C 0.61121 0.77558 0.4728 0.0
C661 C 0.58918 0.75416 0.4845 0.0
C662 C 0.63704 0.7695 0.46642 0.0
C663 C 0.65853 0.78897 0.45275 0.0
C664 C 0.64318 0.79287 0.43878 0.0
C665 C 0.66334 0.81149 0.42601 0.0
C666 C 0.69894 0.82632 0.42702 0.0
C667 C 0.71446 0.82256 0.44082 0.0
C668 C 0.69442 0.80397 0.45363 0.0
C669 C 0.63237 0.6611 0.50964 0.0
C670 C 0.66201 0.68233 0.51925 0.0
C671 C 0.62014 0.67548 0.49869 0.0
C672 C 0.63792 0.71107 0.49704 0.0
C673 C 0.66802 0.73205 0.50631 0.0
C674 C 0.6798 0.71783 0.51744 0.0
C675 C 0.62423 0.72764 0.48686 0.0
C676 C 0.64345 0.74571 0.4737 0.0
C677 C 0.5956 0.7304 0.49171 0.0
C678 C 0.57409 0.71143 0.50534 0.0
C679 C 0.5875 0.71905 0.52138 0.0
C680 C 0.56698 0.70088 0.53416 0.0
C681 C 0.53293 0.67525 0.53105 0.0
C682 C 0.51932 0.66783 0.51516 0.0
C683 C 0.53976 0.6859 0.50233 0.0
H684 H 0.51707 0.66122 0.54096 0.0
H685 H 0.7145 0.84075 0.41712 0.0
H686 H 0.79805 0.59346 0.78638 0.0
H687 H 0.84348 0.58035 0.77995 0.0
H688 H 0.8008 0.4991 0.81349 0.0
H689 H 0.75505 0.51126 0.81934 0.0
H690 H 0.88736 0.59418 0.80164 0.0
H691 H 0.8312 0.44607 0.8113 0.0
H692 H 0.78385 0.39084 0.80019 0.0
H693 H 0.77567 0.43932 0.75822 0.0
H694 H 0.82385 0.49474 0.76876 0.0
H695 H 0.95985 0.55969 0.8628 0.0
H696 H 0.91361 0.54469 0.84316 0.0
H697 H 0.97484 0.53755 0.80443 0.0
H698 H 1.02149 0.55202 0.82418 0.0
H699 H 0.89014 0.48605 0.80548 0.0
H700 H 0.98414 0.60158 0.80026 0.0
H701 H 1.03232 0.65627 0.81163 0.0
H702 H 0.96325 0.67195 0.84214 0.0
H703 H 0.91477 0.61701 0.83116 0.0
C704 C 0.7978 0.572 0.79187 0.0
C705 C 0.77348 0.5537 0.80354 0.0
C706 C 0.82362 0.56439 0.78814 0.0
C707 C 0.82582 0.53883 0.79627 0.0
C708 C 0.79952 0.51846 0.80675 0.0
C709 C 0.77342 0.52566 0.81025 0.0
C710 C 0.85879 0.53901 0.7972 0.0
C711 C 0.88806 0.57048 0.80186 0.0
C712 C 0.86026 0.50829 0.79734 0.0
C713 C 0.83129 0.47478 0.79088 0.0
C714 C 0.81964 0.44501 0.79961 0.0
C715 C 0.79253 0.41361 0.79342 0.0
C716 C 0.77663 0.41158 0.77855 0.0
C717 C 0.78794 0.44094 0.76977 0.0
C718 C 0.81519 0.47238 0.77585 0.0
C719 C 0.96313 0.55363 0.85025 0.0
C720 C 0.99448 0.55744 0.84501 0.0
C721 C 0.93667 0.54509 0.83903 0.0
C722 C 0.94107 0.54023 0.82242 0.0
C723 C 0.9711 0.54112 0.81725 0.0
C724 C 0.99775 0.54974 0.8285 0.0
C725 C 0.91672 0.54061 0.81068 0.0
C726 C 0.8894 0.50952 0.80426 0.0
C727 C 0.917 0.57162 0.80859 0.0
C728 C 0.94589 0.60514 0.81492 0.0
C729 C 0.97928 0.61661 0.80946 0.0
C730 C 1.00664 0.64765 0.81583 0.0
C731 C 1.00086 0.66756 0.82761 0.0
C732 C 0.96769 0.65651 0.83301 0.0
C733 C 0.94026 0.62544 0.8267 0.0
H734 H 1.02207 0.69158 0.83254 0.0
H735 H 0.75558 0.38726 0.7738 0.0
H736 H 0.26202 0.72189 0.12329 0.0
H737 H 0.32271 0.75085 0.11648 0.0
H738 H 0.34345 0.83225 0.15259 0.0
H739 H 0.28342 0.80349 0.15961 0.0
H740 H 0.38991 0.85421 0.12661 0.0
H741 H 0.34258 0.76372 0.16799 0.0
H742 H 0.29615 0.70507 0.17298 0.0
H743 H 0.32474 0.66533 0.13094 0.0
H744 H 0.37118 0.7239 0.12567 0.0
H745 H 0.48468 0.87457 0.19842 0.0
H746 H 0.44175 0.83156 0.17962 0.0
H747 H 0.51004 0.87428 0.1397 0.0
H748 H 0.5539 0.91754 0.15866 0.0
H749 H 0.4266 0.78277 0.15496 0.0
H750 H 0.4643 0.88801 0.11176 0.0
H751 H 0.50222 0.9507 0.11042 0.0
H752 H 0.48748 0.96517 0.16122 0.0
H753 H 0.44918 0.90266 0.16276 0.0
C754 C 0.2794 0.74649 0.12943 0.0
C755 C 0.26814 0.75995 0.14232 0.0
C756 C 0.31396 0.76313 0.1254 0.0
C757 C 0.33756 0.79332 0.13423 0.0
C758 C 0.3256 0.80898 0.14559 0.0
C759 C 0.29116 0.7924 0.14964 0.0
C760 C 0.37437 0.80414 0.13496 0.0
C761 C 0.39838 0.83826 0.13212 0.0
C762 C 0.38522 0.7834 0.14238 0.0
C763 C 0.36025 0.74795 0.14649 0.0
C764 C 0.3392 0.74234 0.15997 0.0
C765 C 0.3128 0.70922 0.16278 0.0
C766 C 0.30742 0.68156 0.15223 0.0
C767 C 0.32885 0.68684 0.13904 0.0
C768 C 0.35527 0.71997 0.13616 0.0
C769 C 0.49146 0.87396 0.18581 0.0
C770 C 0.52243 0.90016 0.17999 0.0
C771 C 0.46673 0.84916 0.17501 0.0
C772 C 0.47241 0.85024 0.15821 0.0
C773 C 0.50501 0.87334 0.15261 0.0
C774 C 0.52991 0.8982 0.16345 0.0
C775 C 0.44212 0.83328 0.14701 0.0
C776 C 0.41912 0.79805 0.14812 0.0
C777 C 0.43202 0.85324 0.13828 0.0
C778 C 0.45431 0.8908 0.13739 0.0
C779 C 0.46913 0.90465 0.1226 0.0
C780 C 0.49065 0.94011 0.12181 0.0
C781 C 0.49734 0.96189 0.13574 0.0
C782 C 0.48233 0.94829 0.15045 0.0
C783 C 0.4607 0.91288 0.15128 0.0
H784 H 0.51409 0.98931 0.13511 0.0
H785 H 0.28646 0.6561 0.15423 0.0
H786 H 0.55977 0.266 0.49897 0.0
H787 H 0.60455 0.32654 0.50078 0.0
H788 H 0.68016 0.29827 0.48751 0.0
H789 H 0.63589 0.23775 0.4861 0.0
H790 H 0.65843 0.34898 0.5234 0.0
H791 H 0.74376 0.36828 0.46784 0.0
H792 H 0.73752 0.34787 0.43899 0.0
H793 H 0.63477 0.33043 0.43744 0.0
H794 H 0.6407 0.35117 0.46625 0.0
H795 H 0.80507 0.49607 0.54583 0.0
H796 H 0.77801 0.44025 0.53079 0.0
H797 H 0.73369 0.477 0.49639 0.0
H798 H 0.76035 0.53254 0.51128 0.0
H799 H 0.74067 0.42243 0.48271 0.0
H800 H 0.69261 0.45075 0.52998 0.0
H801 H 0.6954 0.47286 0.55835 0.0
H802 H 0.71539 0.39584 0.57533 0.0
H803 H 0.71319 0.3736 0.547 0.0
C804 C 0.58584 0.2727 0.49621 0.0
C805 C 0.59429 0.24705 0.49254 0.0
C806 C 0.61131 0.30724 0.49717 0.0
C807 C 0.64553 0.31669 0.49429 0.0
C808 C 0.65378 0.29142 0.48958 0.0
C809 C 0.62836 0.25684 0.48873 0.0
C810 C 0.67303 0.35229 0.49829 0.0
C811 C 0.67647 0.36494 0.5145 0.0
C812 C 0.69633 0.37305 0.48664 0.0
C813 C 0.6927 0.36109 0.46924 0.0
C814 C 0.71998 0.36029 0.46133 0.0
C815 C 0.71645 0.34861 0.44498 0.0
C816 C 0.68573 0.33778 0.43639 0.0
C817 C 0.65852 0.33871 0.44412 0.0
C818 C 0.66195 0.35038 0.46047 0.0
C819 C 0.79073 0.49269 0.53468 0.0
C820 C 0.78412 0.51843 0.53002 0.0
C821 C 0.77545 0.46083 0.52602 0.0
C822 C 0.75314 0.4543 0.51272 0.0
C823 C 0.75069 0.48148 0.50665 0.0
C824 C 0.76604 0.51335 0.51525 0.0
C825 C 0.72641 0.41868 0.50789 0.0
C826 C 0.72291 0.40615 0.4916 0.0
C827 C 0.70247 0.39797 0.51938 0.0
C828 C 0.70301 0.41073 0.53642 0.0
C829 C 0.69771 0.43863 0.53978 0.0
C830 C 0.69918 0.45117 0.55584 0.0
C831 C 0.70563 0.4358 0.56864 0.0
C832 C 0.71046 0.40775 0.5654 0.0
C833 C 0.70908 0.39515 0.54935 0.0
H834 H 0.70683 0.44559 0.58106 0.0
H835 H 0.68302 0.32872 0.42374 0.0
H836 H 0.3485 0.51947 0.81076 0.0
H837 H 0.32108 0.55459 0.81099 0.0
H838 H 0.42037 0.64648 0.81184 0.0
H839 H 0.44793 0.61182 0.81199 0.0
H840 H 0.33185 0.59729 0.83743 0.0
H841 H 0.40889 0.71194 0.79561 0.0
H842 H 0.43694 0.72169 0.76906 0.0
H843 H 0.37127 0.61541 0.75408 0.0
H844 H 0.34273 0.60521 0.78047 0.0
H845 H 0.32836 0.73462 0.87145 0.0
H846 H 0.35921 0.71444 0.85385 0.0
H847 H 0.27818 0.67683 0.81745 0.0
H848 H 0.24667 0.69573 0.83499 0.0
H849 H 0.35043 0.69587 0.80575 0.0
H850 H 0.25779 0.62329 0.84134 0.0
H851 H 0.22854 0.61406 0.86757 0.0
H852 H 0.31955 0.63077 0.89254 0.0
H853 H 0.34954 0.64083 0.86644 0.0
C854 C 0.36447 0.54713 0.81069 0.0
C855 C 0.40037 0.56285 0.81159 0.0
C856 C 0.34877 0.56711 0.8107 0.0
C857 C 0.36873 0.60307 0.81144 0.0
C858 C 0.40451 0.61874 0.81103 0.0
C859 C 0.42023 0.59881 0.8111 0.0
C860 C 0.3528 0.62418 0.81557 0.0
C861 C 0.33564 0.61853 0.83033 0.0
C862 C 0.35767 0.65188 0.80632 0.0
C863 C 0.37414 0.65778 0.7902 0.0
C864 C 0.40053 0.6907 0.78666 0.0
C865 C 0.41647 0.69629 0.77162 0.0
C866 C 0.40602 0.66913 0.75991 0.0
C867 C 0.3795 0.63639 0.7632 0.0
C868 C 0.36351 0.63069 0.77824 0.0
C869 C 0.31767 0.72321 0.85945 0.0
C870 C 0.28453 0.71579 0.85489 0.0
C871 C 0.33553 0.71208 0.84933 0.0
C872 C 0.32054 0.69365 0.83453 0.0
C873 C 0.29012 0.69108 0.82883 0.0
C874 C 0.27209 0.70195 0.83898 0.0
C875 C 0.33082 0.66932 0.8277 0.0
C876 C 0.34662 0.67433 0.81259 0.0
C877 C 0.32428 0.64049 0.8364 0.0
C878 C 0.30595 0.63308 0.85199 0.0
C879 C 0.27158 0.62515 0.85244 0.0
C880 C 0.25488 0.61977 0.86727 0.0
C881 C 0.27219 0.62186 0.88171 0.0
C882 C 0.30619 0.62919 0.88134 0.0
C883 C 0.32305 0.63473 0.86654 0.0
H884 H 0.25924 0.61779 0.89319 0.0
H885 H 0.41839 0.67349 0.74827 0.0
H886 H 0.88365 0.35491 0.1226 0.0
H887 H 0.82103 0.32124 0.12332 0.0
H888 H 0.82158 0.3947 0.15943 0.0
H889 H 0.88359 0.42906 0.15798 0.0
H890 H 0.7945 0.29039 0.14801 0.0
H891 H 0.74552 0.38566 0.16707 0.0
H892 H 0.74852 0.43826 0.15784 0.0
H893 H 0.77535 0.41804 0.11006 0.0
H894 H 0.77215 0.36508 0.11891 0.0
H895 H 0.68817 0.234 0.2106 0.0
H896 H 0.72774 0.28047 0.19423 0.0
H897 H 0.65318 0.24226 0.15467 0.0
H898 H 0.61276 0.19564 0.17117 0.0
H899 H 0.7061 0.32283 0.15991 0.0
H900 H 0.6935 0.21021 0.14907 0.0
H901 H 0.68554 0.15532 0.15802 0.0
H902 H 0.7798 0.20946 0.18602 0.0
H903 H 0.78789 0.26474 0.17752 0.0
C904 C 0.87011 0.36437 0.13019 0.0
C905 C 0.88825 0.39426 0.14035 0.0
C906 C 0.83439 0.34524 0.1306 0.0
C907 C 0.81638 0.35523 0.14149 0.0
C908 C 0.83448 0.38663 0.15066 0.0
C909 C 0.87009 0.40616 0.14995 0.0
C910 C 0.78096 0.32986 0.14602 0.0
C911 C 0.77501 0.29746 0.15013 0.0
C912 C 0.75519 0.3387 0.14893 0.0
C913 C 0.75858 0.3713 0.14368 0.0
C914 C 0.75198 0.39234 0.15458 0.0
C915 C 0.75375 0.42226 0.14942 0.0
C916 C 0.76196 0.43138 0.13337 0.0
C917 C 0.76896 0.41091 0.12249 0.0
C918 C 0.76729 0.38098 0.12759 0.0
C919 C 0.67941 0.23627 0.19874 0.0
C920 C 0.64754 0.2108 0.19207 0.0
C921 C 0.70213 0.26288 0.18938 0.0
C922 C 0.69337 0.2644 0.17324 0.0
C923 C 0.66024 0.2414 0.16714 0.0
C924 C 0.63739 0.21464 0.17651 0.0
C925 C 0.72106 0.28482 0.16212 0.0
C926 C 0.72547 0.31593 0.15707 0.0
C927 C 0.74535 0.27481 0.15802 0.0
C928 C 0.74115 0.24159 0.16275 0.0
C929 C 0.7124 0.2104 0.15723 0.0
C930 C 0.70787 0.17923 0.16221 0.0
C931 C 0.73213 0.1789 0.1726 0.0
C932 C 0.76102 0.20975 0.17798 0.0
C933 C 0.76559 0.24101 0.17308 0.0
H934 H 0.72858 0.15474 0.17645 0.0
H935 H 0.76271 0.45422 0.12935 0.0
H936 H 0.1361 0.63114 0.1239 0.0
H937 H 0.14015 0.63866 0.09467 0.0
H938 H 1.05818 0.53403 0.08573 0.0
H939 H 1.05308 0.5268 0.11507 0.0
H940 H 0.15648 0.61136 0.07088 0.0
H941 H 1.01328 0.52627 0.05149 0.0
H942 H 0.95626 0.50715 0.06298 0.0
H943 H 0.99874 0.59725 0.09552 0.0
H944 H 1.05589 0.61712 0.08407 0.0
H945 H 0.14622 0.58834 0.98499 0.0
H946 H 0.13946 0.57838 0.01411 0.0
H947 H 0.08604 0.63547 0.01869 0.0
H948 H 0.0917 0.64432 0.98949 0.0
H949 H 1.05537 0.58276 0.03581 0.0
H950 H 0.1725 0.67036 0.03075 0.0
H951 H 0.23097 0.69685 0.02009 0.0
H952 H 0.24314 0.6155 0.03784 0.0
H953 H 0.18454 0.58826 0.04843 0.0
C954 C 0.11885 0.60974 0.11572 0.0
C955 C 0.09414 0.57842 0.12177 0.0
C956 C 0.12126 0.61405 0.099 0.0
C957 C 0.09926 0.58705 0.08798 0.0
C958 C 0.07496 0.55549 0.09399 0.0
C959 C 1.07215 0.55133 0.11076 0.0
C960 C 0.10202 0.59205 0.07022 0.0
C961 C 0.13434 0.60507 0.06321 0.0
C962 C 0.07328 0.58442 0.06024 0.0
C963 C 1.03891 0.57297 0.06703 0.0
C964 C 1.01041 0.54206 0.06105 0.0
C965 C 0.97808 0.53108 0.06756 0.0
C966 C 0.97391 0.55091 0.08001 0.0
C967 C 1.00203 0.58185 0.08592 0.0
C968 C 1.0344 0.59296 0.07943 0.0
C969 C 0.13311 0.59877 0.99227 0.0
C970 C 0.11959 0.6172 0.98507 0.0
C971 C 0.1293 0.59315 0.00888 0.0
C972 C 0.11267 0.60661 0.01867 0.0
C973 C 0.0989 0.62477 0.01141 0.0
C974 C 0.10219 0.62988 0.99476 0.0
C975 C 0.10984 0.60208 0.03647 0.0
C976 C 0.07749 0.589 0.04347 0.0
C977 C 0.13874 0.61076 0.04656 0.0
C978 C 0.17401 0.6271 0.04024 0.0
C979 C 0.18756 0.65799 0.03228 0.0
C980 C 0.22073 0.67316 0.02626 0.0
C981 C 0.24072 0.65782 0.02825 0.0
C982 C 0.2276 0.62732 0.03629 0.0
C983 C 0.19442 0.61202 0.04231 0.0
H984 H 0.2664 0.6696 0.02358 0.0
H985 H 0.94887 0.54235 0.08505 0.0
H986 H 0.5614 0.99702 0.45197 0.0
H987 H 0.56348 0.99763 0.42233 0.0
H988 H 0.56463 0.09412 0.42454 0.0
H989 H 0.56313 0.09405 0.45425 0.0
H990 H 0.5221 0.99733 0.39944 0.0
H991 H 0.61621 0.14321 0.39483 0.0
H992 H 0.66323 0.19121 0.41108 0.0
H993 H 0.68396 0.12029 0.43451 0.0
H994 H 0.63746 0.07196 0.41823 0.0
H995 H 0.52349 1.03616 0.31723 0.0
H996 H 0.5201 1.0362 0.34696 0.0
H997 H 0.62606 0.06212 0.35057 0.0
H998 H 0.62983 0.06397 0.32088 0.0
H999 H 0.61596 0.09662 0.37302 0.0
H1000 H 0.55516 0.97749 0.35474 0.0
H1001 H 0.51171 0.92606 0.33881 0.0
H1002 H 0.43146 0.93706 0.36146 0.0
H1003 H 0.47446 0.98881 0.37737 0.0
C1004 C 0.56197 1.01834 0.44617 0.0
C1005 C 0.56232 1.04561 0.45547 0.0
C1006 C 0.56305 1.01857 0.42922 0.0
C1007 C 0.56457 1.04607 0.42126 0.0
C1008 C 0.56398 0.07289 0.43047 0.0
C1009 C 0.563 0.07274 0.44744 0.0
C1010 C 0.56746 1.04694 0.40333 0.0
C1011 C 0.54257 1.01904 0.39364 0.0
C1012 C 0.5946 0.07496 0.39581 0.0
C1013 C 0.62308 0.10395 0.40544 0.0
C1014 C 0.6309 0.13789 0.4034 0.0
C1015 C 0.65746 0.16515 0.41262 0.0
C1016 C 0.67648 0.15879 0.42386 0.0
C1017 C 0.66912 0.12517 0.42585 0.0
C1018 C 0.64265 0.09784 0.41664 0.0
C1019 C 0.54595 1.04185 0.32445 0.0
C1020 C 0.57685 0.04987 0.31691 0.0
C1021 C 0.54401 1.04171 0.34139 0.0
C1022 C 0.57265 1.04852 0.35103 0.0
C1023 C 0.60362 0.05679 0.34343 0.0
C1024 C 0.60577 0.05772 0.3265 0.0
C1025 C 0.57041 1.04702 0.36902 0.0
C1026 C 0.5954 0.07488 0.37876 0.0
C1027 C 0.54394 1.01845 0.3766 0.0
C1028 C 0.51804 0.98718 0.36713 0.0
C1029 C 0.52825 0.96905 0.35625 0.0
C1030 C 0.5037 0.93983 0.34723 0.0
C1031 C 0.46885 0.92835 0.34909 0.0
C1032 C 0.45847 0.946 0.36001 0.0
C1033 C 0.48291 0.97525 0.36904 0.0
H1034 H 0.44988 0.90573 0.3421 0.0
H1035 H 0.69698 0.17992 0.43101 0.0
H1036 H 0.61362 0.51539 0.78745 0.0
H1037 H 0.62867 0.52303 0.75887 0.0
H1038 H 0.58405 0.58792 0.75555 0.0
H1039 H 0.56758 0.57909 0.78414 0.0
H1040 H 0.57236 0.55043 0.7281 0.0
H1041 H 0.67106 0.622 0.76187 0.0
H1042 H 0.71343 0.63596 0.78404 0.0
H1043 H 0.744 0.56824 0.76082 0.0
H1044 H 0.70139 0.55342 0.7386 0.0
H1045 H 0.66937 0.63633 0.65934 0.0
H1046 H 0.64743 0.62466 0.68686 0.0
H1047 H 0.6736 0.54501 0.68869 0.0
H1048 H 0.69437 0.55544 0.66091 0.0
H1049 H 0.69479 0.59179 0.71676 0.0
H1050 H 0.59398 0.52125 0.68267 0.0
H1051 H 0.55223 0.51052 0.66067 0.0
H1052 H 0.52733 0.58175 0.68488 0.0
H1053 H 0.56933 0.59329 0.70692 0.0
C1054 C 0.60656 0.53088 0.78056 0.0
C1055 C 0.58977 0.54697 0.78801 0.0
C1056 C 0.61534 0.53539 0.76425 0.0
C1057 C 0.60839 0.55686 0.7552 0.0
C1058 C 0.58991 0.57146 0.76235 0.0
C1059 C 0.5805 0.5664 0.77865 0.0
C1060 C 0.62191 0.56524 0.73857 0.0
C1061 C 0.59921 0.55991 0.72566 0.0
C1062 C 0.65695 0.57738 0.73535 0.0
C1063 C 0.68285 0.58642 0.74862 0.0
C1064 C 0.68665 0.60991 0.76153 0.0
C1065 C 0.71072 0.61799 0.7741 0.0
C1066 C 0.73137 0.603 0.77382 0.0
C1067 C 0.72797 0.57984 0.76099 0.0
C1068 C 0.70389 0.57161 0.7484 0.0
C1069 C 0.67012 0.61602 0.66547 0.0
C1070 C 0.68351 0.59671 0.65781 0.0
C1071 C 0.65772 0.60954 0.68125 0.0
C1072 C 0.65871 0.58384 0.68972 0.0
C1073 C 0.67269 0.56501 0.68232 0.0
C1074 C 0.68475 0.57119 0.66647 0.0
C1075 C 0.64517 0.57661 0.70634 0.0
C1076 C 0.66796 0.58232 0.71924 0.0
C1077 C 0.61039 0.56541 0.70957 0.0
C1078 C 0.58506 0.5584 0.69635 0.0
C1079 C 0.57983 0.53486 0.68323 0.0
C1080 C 0.55607 0.52859 0.67077 0.0
C1081 C 0.53721 0.54552 0.67135 0.0
C1082 C 0.542 0.5687 0.68443 0.0
C1083 C 0.56575 0.57509 0.69691 0.0
H1084 H 0.51882 0.54062 0.6617 0.0
H1085 H 0.75014 0.6095 0.78349 0.0
H1086 H 0.61921 1.04512 0.55817 0.0
H1087 H 0.62189 1.04454 0.58784 0.0
H1088 H 0.53169 0.05438 0.59135 0.0
H1089 H 0.52887 0.05514 0.5617 0.0
H1090 H 0.58154 0.09751 0.61363 0.0
H1091 H 0.52604 0.97791 0.59592 0.0
H1092 H 0.52017 0.92717 0.58006 0.0
H1093 H 0.61309 0.94239 0.60233 0.0
H1094 H 0.61978 0.99354 0.61816 0.0
H1095 H 0.53933 0.05447 0.6953 0.0
H1096 H 0.53852 0.05528 0.66564 0.0
H1097 H 0.62532 1.03954 0.66359 0.0
H1098 H 0.62628 1.03868 0.69333 0.0
H1099 H 0.57886 1.00011 0.64049 0.0
H1100 H 0.63457 0.11882 0.65842 0.0
H1101 H 0.64163 0.17013 0.67419 0.0
H1102 H 0.55023 0.15766 0.65144 0.0
H1103 H 0.54234 0.10596 0.6357 0.0
C1104 C 0.59993 1.0472 0.56523 0.0
C1105 C 0.57376 0.05009 0.55751 0.0
C1106 C 0.60143 1.04672 0.58221 0.0
C1107 C 0.57681 0.04911 0.59183 0.0
C1108 C 0.55094 0.05246 0.58418 0.0
C1109 C 0.54931 0.05278 0.56721 0.0
C1110 C 0.57802 1.04818 0.60987 0.0
C1111 C 0.58051 0.07601 0.61951 0.0
C1112 C 0.57765 1.02058 0.61755 0.0
C1113 C 0.5736 0.98976 0.6081 0.0
C1114 C 0.54538 0.9706 0.59733 0.0
C1115 C 0.54187 0.94174 0.58837 0.0
C1116 C 0.56629 0.93162 0.59015 0.0
C1117 C 0.59422 0.95029 0.60094 0.0
C1118 C 0.59787 0.9792 0.60992 0.0
C1119 C 0.55845 0.05145 0.68856 0.0
C1120 C 0.58302 1.04674 0.69673 0.0
C1121 C 0.55793 0.0519 0.67158 0.0
C1122 C 0.58218 1.04798 0.66235 0.0
C1123 C 0.60637 1.04265 0.67043 0.0
C1124 C 0.60682 1.04207 0.68744 0.0
C1125 C 0.58218 0.04937 0.64429 0.0
C1126 C 0.57996 1.02165 0.63463 0.0
C1127 C 0.58299 0.07718 0.63659 0.0
C1128 C 0.58769 0.10832 0.646 0.0
C1129 C 0.61582 0.12686 0.65688 0.0
C1130 C 0.62 0.15604 0.66579 0.0
C1131 C 0.59634 0.1671 0.66385 0.0
C1132 C 0.5685 0.14904 0.65295 0.0
C1133 C 0.56419 0.11981 0.64401 0.0
H1134 H 0.59962 0.1897 0.67076 0.0
H1135 H 0.56353 0.90926 0.58321 0.0
H1136 H 0.53138 0.51378 0.89152 0.0
H1137 H 0.53185 0.51553 0.92129 0.0
H1138 H 0.63586 0.6001 0.92272 0.0
H1139 H 0.63572 0.59847 0.89297 0.0
H1140 H 0.62739 0.55157 0.94366 0.0
H1141 H 0.57066 0.61419 0.93132 0.0
H1142 H 0.52717 0.62331 0.91802 0.0
H1143 H 0.44711 0.53646 0.94087 0.0
H1144 H 0.49013 0.52653 0.95413 0.0
H1145 H 0.63896 0.60192 0.02773 0.0
H1146 H 0.63835 0.60059 0.99796 0.0
H1147 H 0.53219 0.52056 0.99662 0.0
H1148 H 0.53259 0.52192 0.02639 0.0
H1149 H 0.54169 0.56667 0.97552 0.0
H1150 H 0.59752 0.50344 0.98777 0.0
H1151 H 0.64042 0.49334 0.00098 0.0
H1152 H 0.72135 0.57973 0.97825 0.0
H1153 H 0.67893 0.59064 0.96506 0.0
C1154 C 0.55437 0.53281 0.89814 0.0
C1155 C 0.58349 0.55604 0.8898 0.0
C1156 C 0.55454 0.53384 0.91519 0.0
C1157 C 0.5838 0.55813 0.92427 0.0
C1158 C 0.61298 0.58115 0.91598 0.0
C1159 C 0.61279 0.58025 0.89895 0.0
C1160 C 0.5841 0.55937 0.94239 0.0
C1161 C 0.60894 0.55533 0.95064 0.0
C1162 C 0.55951 0.56342 0.9515 0.0
C1163 C 0.5336 0.56941 0.94359 0.0
C1164 C 0.54377 0.59686 0.9334 0.0
C1165 C 0.51921 0.60221 0.92589 0.0
C1166 C 0.4844 0.58042 0.92856 0.0
C1167 C 0.47408 0.55329 0.93879 0.0
C1168 C 0.49854 0.5478 0.94632 0.0
C1169 C 0.61556 0.58384 0.0211 0.0
C1170 C 0.58586 0.56195 0.02946 0.0
C1171 C 0.61523 0.5831 0.00406 0.0
C1172 C 0.58533 0.56016 0.99499 0.0
C1173 C 0.55556 0.53852 0.00332 0.0
C1174 C 0.55582 0.53937 0.02035 0.0
C1175 C 0.585 0.55886 0.97684 0.0
C1176 C 0.56015 0.56289 0.96857 0.0
C1177 C 0.60949 0.55464 0.9677 0.0
C1178 C 0.63506 0.54805 0.97556 0.0
C1179 C 0.62448 0.52044 0.98568 0.0
C1180 C 0.6487 0.51454 0.99315 0.0
C1181 C 0.68359 0.53593 0.99049 0.0
C1182 C 0.69432 0.56321 0.98031 0.0
C1183 C 0.67019 0.56925 0.97283 0.0
H1184 H 0.70231 0.53132 0.99628 0.0
H1185 H 0.46542 0.58461 0.92274 0.0
H1186 H 1.06878 0.50486 0.2221 0.0
H1187 H 1.06394 0.49958 0.25159 0.0
H1188 H 0.08903 0.60532 0.2582 0.0
H1189 H 0.0931 0.61057 0.22881 0.0
H1190 H 0.10707 0.52905 0.27629 0.0
H1191 H 1.04834 0.61646 0.29033 0.0
H1192 H 1.01075 0.63343 0.27684 0.0
H1193 H 0.96508 0.53945 0.24697 0.0
H1194 H 1.00202 0.52169 0.26044 0.0
H1195 H 0.12469 0.57417 0.36064 0.0
H1196 H 0.12525 0.57523 0.33103 0.0
H1197 H 1.01476 0.51709 0.32901 0.0
H1198 H 1.01389 0.51764 0.3587 0.0
H1199 H 1.03499 0.56414 0.30828 0.0
H1200 H 1.06542 0.47983 0.31955 0.0
H1201 H 0.09796 0.4564 0.3325 0.0
H1202 H 0.19036 0.53199 0.31101 0.0
H1203 H 0.15845 0.55618 0.2981 0.0
C1204 C 0.07323 0.52699 0.22982 0.0
C1205 C 0.08112 0.55808 0.22303 0.0
C1206 C 1.07052 0.52395 0.24671 0.0
C1207 C 0.07565 0.55189 0.25716 0.0
C1208 C 0.08423 0.58314 0.25041 0.0
C1209 C 0.08669 0.58614 0.23356 0.0
C1210 C 1.07222 0.54853 0.27512 0.0
C1211 C 0.09129 0.53671 0.28327 0.0
C1212 C 1.05103 0.55775 0.28426 0.0
C1213 C 1.02821 0.56792 0.2763 0.0
C1214 C 1.03016 0.59934 0.28094 0.0
C1215 C 1.00898 0.60911 0.27329 0.0
C1216 C 0.98562 0.58758 0.26102 0.0
C1217 C 0.98327 0.55616 0.25643 0.0
C1218 C 1.00435 0.54625 0.26406 0.0
C1219 C 0.10043 0.56197 0.35396 0.0
C1220 C 1.06923 0.54573 0.36219 0.0
C1221 C 0.10082 0.56221 0.33695 0.0
C1222 C 1.07006 0.54575 0.32768 0.0
C1223 C 1.03888 0.52984 0.33583 0.0
C1224 C 1.03845 0.52985 0.35286 0.0
C1225 C 1.07041 0.54532 0.30951 0.0
C1226 C 1.05076 0.55645 0.30131 0.0
C1227 C 0.09033 0.53455 0.30028 0.0
C1228 C 0.10959 0.52 0.30797 0.0
C1229 C 0.09272 0.49161 0.31767 0.0
C1230 C 0.11105 0.47817 0.325 0.0
C1231 C 0.14622 0.49275 0.32261 0.0
C1232 C 0.16312 0.52075 0.31286 0.0
C1233 C 0.14493 0.53431 0.30552 0.0
H1234 H 0.16036 0.48231 0.32829 0.0
H1235 H 0.96929 0.59521 0.25509 0.0
loop_
_geom_bond_atom_site_label_1
_geom_bond_atom_site_label_2
_geom_bond_distance
_geom_bond_site_symmetry_2
_ccdc_geom_bond_type
Eu0 C9 2.828 . S
Eu0 O11 2.392 1_655 S
Eu0 O13 2.418 . S
Eu0 O18 2.373 . S
Eu0 O21 2.488 . S
Eu0 O22 2.471 . S
Eu0 O23 2.349 . S
Eu1 O10 2.373 . S
Eu1 O14 2.488 . S
Eu1 O15 2.471 . S
Eu1 O16 2.349 . S
Eu1 O19 2.392 1_455 S
Eu1 O20 2.418 . S
Eu1 C30 2.828 . S
C2 O20 1.244 . S
C2 O23 1.265 1_455 S
C3 C4 1.379 . S
C3 C7 1.373 . S
C3 C9 1.505 . S
C4 C3 1.379 . S
C4 C6 1.369 . S
C4 H32 0.930 . S
C5 C7 1.383 . S
C5 C8 1.382 . S
C5 H33 0.930 . S
C6 C4 1.369 . S
C6 C8 1.392 . S
C6 H34 0.930 . S
C7 C3 1.373 . S
C7 C5 1.383 . S
C7 H35 0.931 . S
C8 C5 1.382 . S
C8 C6 1.392 . S
C9 Eu0 2.828 . S
C9 C3 1.505 . S
C9 O21 1.249 . S
C9 O22 1.244 . S
O10 Eu1 2.373 . S
O10 C12 1.258 . S
O11 Eu0 2.392 1_455 S
O11 C12 1.242 . S
C12 O10 1.258 . S
C12 O11 1.242 . S
O13 Eu0 2.418 . S
O13 C17 1.244 1_655 S
O14 Eu1 2.488 . S
O14 C30 1.249 . S
O15 Eu1 2.471 . S
O15 C30 1.244 . S
O16 Eu1 2.349 . S
O16 C17 1.265 . S
C17 O13 1.244 1_455 S
C17 O16 1.265 . S
O18 Eu0 2.373 . S
O18 C31 1.258 . S
O19 Eu1 2.392 1_655 S
O19 C31 1.242 . S
O20 Eu1 2.418 . S
O20 C2 1.244 . S
O21 Eu0 2.488 . S
O21 C9 1.249 . S
O22 Eu0 2.471 . S
O22 C9 1.244 . S
O23 Eu0 2.349 . S
O23 C2 1.265 1_655 S
C24 C25 1.379 . S
C24 C28 1.373 . S
C24 C30 1.505 . S
C25 C24 1.379 . S
C25 C27 1.369 . S
C25 H36 0.930 . S
C26 C28 1.383 . S
C26 C29 1.382 . S
C26 H37 0.930 . S
C27 C25 1.369 . S
C27 C29 1.392 . S
C27 H38 0.930 . S
C28 C24 1.373 . S
C28 C26 1.383 . S
C28 H39 0.931 . S
C29 C26 1.382 . S
C29 C27 1.392 . S
C30 Eu1 2.828 . S
C30 O14 1.249 . S
C30 O15 1.244 . S
C30 C24 1.505 . S
C31 O18 1.258 . S
C31 O19 1.242 . S
H32 C4 0.930 . S
H33 C5 0.930 . S
H34 C6 0.930 . S
H35 C7 0.931 . S
H36 C25 0.930 . S
H37 C26 0.930 . S
H38 C27 0.930 . S
H39 C28 0.931 . S
Eu40 C49 2.828 . S
Eu40 O51 2.392 1_565 S
Eu40 O53 2.418 . S
Eu40 O58 2.373 . S
Eu40 O61 2.488 . S
Eu40 O62 2.471 . S
Eu40 O63 2.349 1_565 S
Eu41 O50 2.373 . S
Eu41 O54 2.488 . S
Eu41 O55 2.471 . S
Eu41 O56 2.349 . S
Eu41 O59 2.392 1_545 S
Eu41 O60 2.418 . S
Eu41 C70 2.828 . S
C42 O60 1.244 . S
C42 O63 1.265 . S
C43 C44 1.379 . S
C43 C47 1.373 . S
C43 C49 1.505 . S
C44 C43 1.379 . S
C44 C46 1.369 . S
C44 H72 0.930 . S
C45 C47 1.383 . S
C45 C48 1.382 . S
C45 H73 0.930 . S
C46 C44 1.369 . S
C46 C48 1.392 . S
C46 H74 0.930 . S
C47 C43 1.373 . S
C47 C45 1.383 . S
C47 H75 0.931 . S
C48 C45 1.382 . S
C48 C46 1.392 . S
C49 Eu40 2.828 . S
C49 C43 1.505 . S
C49 O61 1.249 . S
C49 O62 1.244 . S
O50 Eu41 2.373 . S
O50 C52 1.258 . S
O51 Eu40 2.392 1_545 S
O51 C52 1.242 . S
C52 O50 1.258 . S
C52 O51 1.242 . S
O53 Eu40 2.418 . S
O53 C57 1.244 1_565 S
O54 Eu41 2.488 . S
O54 C70 1.249 . S
O55 Eu41 2.471 . S
O55 C70 1.244 . S
O56 Eu41 2.349 . S
O56 C57 1.265 . S
C57 O53 1.244 1_545 S
C57 O56 1.265 . S
O58 Eu40 2.373 . S
O58 C71 1.258 . S
O59 Eu41 2.392 1_565 S
O59 C71 1.242 . S
O60 Eu41 2.418 . S
O60 C42 1.244 . S
O61 Eu40 2.488 . S
O61 C49 1.249 . S
O62 Eu40 2.471 . S
O62 C49 1.244 . S
O63 Eu40 2.349 1_545 S
O63 C42 1.265 . S
C64 C65 1.379 . S
C64 C68 1.373 . S
C64 C70 1.505 . S
C65 C64 1.379 . S
C65 C67 1.369 . S
C65 H76 0.930 . S
C66 C68 1.383 . S
C66 C69 1.382 . S
C66 H77 0.930 . S
C67 C65 1.369 . S
C67 C69 1.392 . S
C67 H78 0.930 . S
C68 C64 1.373 . S
C68 C66 1.383 . S
C68 H79 0.931 . S
C69 C66 1.382 . S
C69 C67 1.392 . S
C70 Eu41 2.828 . S
C70 O54 1.249 . S
C70 O55 1.244 . S
C70 C64 1.505 . S
C71 O58 1.258 . S
C71 O59 1.242 . S
H72 C44 0.930 . S
H73 C45 0.930 . S
H74 C46 0.930 . S
H75 C47 0.931 . S
H76 C65 0.930 . S
H77 C66 0.930 . S
H78 C67 0.930 . S
H79 C68 0.931 . S
Eu80 C89 2.828 . S
Eu80 O91 2.392 . S
Eu80 O93 2.418 . S
Eu80 O98 2.373 . S
Eu80 O101 2.488 . S
Eu80 O102 2.471 . S
Eu80 O103 2.349 . S
Eu81 O90 2.373 . S
Eu81 O94 2.488 . S
Eu81 O95 2.471 . S
Eu81 O96 2.349 . S
Eu81 O99 2.392 . S
Eu81 O100 2.418 . S
Eu81 C110 2.828 . S
C82 O100 1.244 . S
C82 O103 1.265 . S
C83 C84 1.379 . S
C83 C87 1.373 . S
C83 C89 1.505 . S
C84 C83 1.379 . S
C84 C86 1.369 . S
C84 H112 0.930 . S
C85 C87 1.383 . S
C85 C88 1.382 . S
C85 H113 0.930 . S
C86 C84 1.369 . S
C86 C88 1.392 . S
C86 H114 0.930 . S
C87 C83 1.373 . S
C87 C85 1.383 . S
C87 H115 0.931 . S
C88 C85 1.382 . S
C88 C86 1.392 . S
C89 Eu80 2.828 . S
C89 C83 1.505 . S
C89 O101 1.249 . S
C89 O102 1.244 . S
O90 Eu81 2.373 . S
O90 C92 1.258 . S
O91 Eu80 2.392 . S
O91 C92 1.242 . S
C92 O90 1.258 . S
C92 O91 1.242 . S
O93 Eu80 2.418 . S
O93 C97 1.244 . S
O94 Eu81 2.488 . S
O94 C110 1.249 . S
O95 Eu81 2.471 . S
O95 C110 1.244 . S
O96 Eu81 2.349 . S
O96 C97 1.265 . S
C97 O93 1.244 . S
C97 O96 1.265 . S
O98 Eu80 2.373 . S
O98 C111 1.258 . S
O99 Eu81 2.392 . S
O99 C111 1.242 . S
O100 Eu81 2.418 . S
O100 C82 1.244 . S
O101 Eu80 2.488 . S
O101 C89 1.249 . S
O102 Eu80 2.471 . S
O102 C89 1.244 . S
O103 Eu80 2.349 . S
O103 C82 1.265 . S
C104 C105 1.379 . S
C104 C108 1.373 . S
C104 C110 1.505 . S
C105 C104 1.379 . S
C105 C107 1.369 . S
C105 H116 0.930 . S
C106 C108 1.383 . S
C106 C109 1.382 . S
C106 H117 0.930 . S
C107 C105 1.369 . S
C107 C109 1.392 . S
C107 H118 0.930 . S
C108 C104 1.373 . S
C108 C106 1.383 . S
C108 H119 0.931 . S
C109 C106 1.382 . S
C109 C107 1.392 . S
C110 Eu81 2.828 . S
C110 O94 1.249 . S
C110 O95 1.244 . S
C110 C104 1.505 . S
C111 O98 1.258 . S
C111 O99 1.242 . S
H112 C84 0.930 . S
H113 C85 0.930 . S
H114 C86 0.930 . S
H115 C87 0.931 . S
H116 C105 0.930 . S
H117 C106 0.930 . S
H118 C107 0.930 . S
H119 C108 0.931 . S
C120 C121 1.384 . S
C120 H133 0.947 . S
C120 C155 1.382 . S
C121 C120 1.384 . S
C121 C122 1.378 . S
C122 C121 1.378 . S
C122 C123 1.378 . S
C122 H134 0.952 . S
C123 C122 1.378 . S
C123 H135 0.950 . S
C123 C154 1.383 . S
H124 C143 0.947 . S
H125 C144 0.946 . S
H126 C146 0.953 . S
H127 C147 0.945 . S
H128 C149 0.952 . S
H129 C150 0.949 . S
H130 C152 0.950 . S
H131 C153 0.948 . S
H132 C155 0.951 . S
H133 C120 0.947 . S
H134 C122 0.952 . S
H135 C123 0.950 . S
N136 C139 1.382 . S
N136 C141 1.363 1_545 S
N137 C139 1.371 . S
N137 C140 1.372 . S
N138 C140 1.361 1_565 S
N138 C141 1.377 . S
C139 N136 1.382 . S
C139 N137 1.371 . S
C139 C142 1.480 . S
C140 N137 1.372 . S
C140 N138 1.361 1_545 S
C140 C148 1.457 . S
C141 N136 1.363 1_565 S
C141 N138 1.377 . S
C141 C154 1.479 . S
C142 C139 1.480 . S
C142 C143 1.383 . S
C142 C147 1.385 . S
C143 H124 0.947 . S
C143 C142 1.383 . S
C143 C144 1.388 . S
C144 H125 0.946 . S
C144 C143 1.388 . S
C144 C145 1.384 . S
C145 C144 1.384 . S
C145 C146 1.377 . S
C146 H126 0.953 . S
C146 C145 1.377 . S
C146 C147 1.369 . S
C147 H127 0.945 . S
C147 C142 1.385 . S
C147 C146 1.369 . S
C148 C140 1.457 . S
C148 C149 1.372 . S
C148 C153 1.364 1_545 S
C149 H128 0.952 . S
C149 C148 1.372 . S
C149 C150 1.389 . S
C150 H129 0.949 . S
C150 C149 1.389 . S
C150 C151 1.387 . S
C151 C150 1.387 . S
C151 C152 1.372 1_545 S
C152 H130 0.950 . S
C152 C151 1.372 1_565 S
C152 C153 1.379 . S
C153 H131 0.948 . S
C153 C148 1.364 1_565 S
C153 C152 1.379 . S
C154 C123 1.383 . S
C154 C141 1.479 . S
C154 C155 1.398 . S
C155 C120 1.382 . S
C155 H132 0.951 . S
C155 C154 1.398 . S
C156 C157 1.384 . S
C156 H169 0.947 . S
C156 C191 1.382 . S
C157 C156 1.384 . S
C157 C158 1.378 . S
C158 C157 1.378 . S
C158 C159 1.378 . S
C158 H170 0.952 . S
C159 C158 1.378 . S
C159 H171 0.950 . S
C159 C190 1.383 . S
H160 C179 0.947 . S
H161 C180 0.946 . S
H162 C182 0.953 . S
H163 C183 0.945 . S
H164 C185 0.952 . S
H165 C186 0.949 . S
H166 C188 0.950 . S
H167 C189 0.948 . S
H168 C191 0.951 . S
H169 C156 0.947 . S
H170 C158 0.952 . S
H171 C159 0.950 . S
N172 C175 1.382 . S
N172 C177 1.363 . S
N173 C175 1.371 . S
N173 C176 1.372 . S
N174 C176 1.361 . S
N174 C177 1.377 . S
C175 N172 1.382 . S
C175 N173 1.371 . S
C175 C178 1.480 . S
C176 N173 1.372 . S
C176 N174 1.361 . S
C176 C184 1.457 . S
C177 N172 1.363 . S
C177 N174 1.377 . S
C177 C190 1.479 . S
C178 C175 1.480 . S
C178 C179 1.383 . S
C178 C183 1.385 . S
C179 H160 0.947 . S
C179 C178 1.383 . S
C179 C180 1.388 . S
C180 H161 0.946 . S
C180 C179 1.388 . S
C180 C181 1.384 . S
C181 C180 1.384 . S
C181 C182 1.377 . S
C182 H162 0.953 . S
C182 C181 1.377 . S
C182 C183 1.369 . S
C183 H163 0.945 . S
C183 C178 1.385 . S
C183 C182 1.369 . S
C184 C176 1.457 . S
C184 C185 1.372 . S
C184 C189 1.364 . S
C185 H164 0.952 . S
C185 C184 1.372 . S
C185 C186 1.389 . S
C186 H165 0.949 . S
C186 C185 1.389 . S
C186 C187 1.387 . S
C187 C186 1.387 . S
C187 C188 1.372 . S
C188 H166 0.950 . S
C188 C187 1.372 . S
C188 C189 1.379 . S
C189 H167 0.948 . S
C189 C184 1.364 . S
C189 C188 1.379 . S
C190 C159 1.383 . S
C190 C177 1.479 . S
C190 C191 1.398 . S
C191 C156 1.382 . S
C191 H168 0.951 . S
C191 C190 1.398 . S
C192 C193 1.384 . S
C192 H205 0.947 . S
C192 C227 1.382 . S
C193 C192 1.384 . S
C193 C194 1.378 . S
C194 C193 1.378 . S
C194 C195 1.378 . S
C194 H206 0.952 . S
C195 C194 1.378 . S
C195 H207 0.950 . S
C195 C226 1.383 . S
H196 C215 0.947 . S
H197 C216 0.946 . S
H198 C218 0.953 . S
H199 C219 0.945 . S
H200 C221 0.952 . S
H201 C222 0.949 . S
H202 C224 0.950 1_655 S
H203 C225 0.948 1_655 S
H204 C227 0.951 . S
H205 C192 0.947 . S
H206 C194 0.952 . S
H207 C195 0.950 . S
N208 C211 1.382 . S
N208 C213 1.363 . S
N209 C211 1.371 . S
N209 C212 1.372 . S
N210 C212 1.361 . S
N210 C213 1.377 . S
C211 N208 1.382 . S
C211 N209 1.371 . S
C211 C214 1.480 . S
C212 N209 1.372 . S
C212 N210 1.361 . S
C212 C220 1.457 . S
C213 N208 1.363 . S
C213 N210 1.377 . S
C213 C226 1.479 1_455 S
C214 C211 1.480 . S
C214 C215 1.383 . S
C214 C219 1.385 . S
C215 H196 0.947 . S
C215 C214 1.383 . S
C215 C216 1.388 . S
C216 H197 0.946 . S
C216 C215 1.388 . S
C216 C217 1.384 . S
C217 C216 1.384 . S
C217 C218 1.377 . S
C218 H198 0.953 . S
C218 C217 1.377 . S
C218 C219 1.369 . S
C219 H199 0.945 . S
C219 C214 1.385 . S
C219 C218 1.369 . S
C220 C212 1.457 . S
C220 C221 1.372 . S
C220 C225 1.364 . S
C221 H200 0.952 . S
C221 C220 1.372 . S
C221 C222 1.389 . S
C222 H201 0.949 . S
C222 C221 1.389 . S
C222 C223 1.387 . S
C223 C222 1.387 . S
C223 C224 1.372 . S
C224 H202 0.950 1_455 S
C224 C223 1.372 . S
C224 C225 1.379 . S
C225 H203 0.948 1_455 S
C225 C220 1.364 . S
C225 C224 1.379 . S
C226 C195 1.383 . S
C226 C213 1.479 1_655 S
C226 C227 1.398 . S
C227 C192 1.382 . S
C227 H204 0.951 . S
C227 C226 1.398 . S
C228 C229 1.384 . S
C228 H241 0.947 . S
C228 C263 1.382 . S
C229 C228 1.384 . S
C229 C230 1.378 . S
C230 C229 1.378 . S
C230 C231 1.378 . S
C230 H242 0.952 . S
C231 C230 1.378 . S
C231 H243 0.950 . S
C231 C262 1.383 . S
H232 C251 0.947 . S
H233 C252 0.946 . S
H234 C254 0.953 . S
H235 C255 0.945 . S
H236 C257 0.952 . S
H237 C258 0.949 . S
H238 C260 0.950 . S
H239 C261 0.948 . S
H240 C263 0.951 . S
H241 C228 0.947 . S
H242 C230 0.952 . S
H243 C231 0.950 . S
N244 C247 1.382 . S
N244 C249 1.363 . S
N245 C247 1.367 1_655 S
N245 C248 1.359 1_655 S
N246 C248 1.361 . S
N246 C249 1.377 . S
C247 N244 1.382 . S
C247 N245 1.367 1_455 S
C247 C250 1.480 1_455 S
C248 N245 1.359 1_455 S
C248 N246 1.361 . S
C248 C256 1.457 . S
C249 N244 1.363 . S
C249 N246 1.377 . S
C249 C262 1.479 . S
C250 C247 1.480 1_655 S
C250 C251 1.383 . S
C250 C255 1.385 . S
C251 H232 0.947 . S
C251 C250 1.383 . S
C251 C252 1.388 . S
C252 H233 0.946 . S
C252 C251 1.388 . S
C252 C253 1.384 . S
C253 C252 1.384 . S
C253 C254 1.377 . S
C254 H234 0.953 . S
C254 C253 1.377 . S
C254 C255 1.369 . S
C255 H235 0.945 . S
C255 C250 1.385 . S
C255 C254 1.369 . S
C256 C248 1.457 . S
C256 C257 1.372 1_455 S
C256 C261 1.364 . S
C257 H236 0.952 . S
C257 C256 1.372 1_655 S
C257 C258 1.389 . S
C258 H237 0.949 . S
C258 C257 1.389 . S
C258 C259 1.387 1_655 S
C259 C258 1.387 1_455 S
C259 C260 1.372 . S
C260 H238 0.950 . S
C260 C259 1.372 . S
C260 C261 1.379 . S
C261 H239 0.948 . S
C261 C256 1.364 . S
C261 C260 1.379 . S
C262 C231 1.383 . S
C262 C249 1.479 . S
C262 C263 1.398 . S
C263 C228 1.382 . S
C263 H240 0.951 . S
C263 C262 1.398 . S
C264 C265 1.384 . S
C264 H277 0.947 . S
C264 C299 1.382 . S
C265 C264 1.384 . S
C265 C266 1.378 . S
C266 C265 1.378 . S
C266 C267 1.378 . S
C266 H278 0.952 . S
C267 C266 1.378 . S
C267 H279 0.950 . S
C267 C298 1.383 . S
H268 C287 0.947 . S
H269 C288 0.946 . S
H270 C290 0.953 . S
H271 C291 0.945 . S
H272 C293 0.952 . S
H273 C294 0.949 . S
H274 C296 0.950 . S
H275 C297 0.948 . S
H276 C299 0.951 . S
H277 C264 0.947 . S
H278 C266 0.952 . S
H279 C267 0.950 . S
N280 C283 1.382 1_545 S
N280 C285 1.363 . S
N281 C283 1.371 . S
N281 C284 1.372 1_565 S
N282 C284 1.361 . S
N282 C285 1.377 . S
C283 N280 1.382 1_565 S
C283 N281 1.371 . S
C283 C286 1.480 . S
C284 N281 1.372 1_545 S
C284 N282 1.361 . S
C284 C292 1.457 . S
C285 N280 1.363 . S
C285 N282 1.377 . S
C285 C298 1.479 . S
C286 C283 1.480 . S
C286 C287 1.383 . S
C286 C291 1.385 . S
C287 H268 0.947 . S
C287 C286 1.383 . S
C287 C288 1.388 . S
C288 H269 0.946 . S
C288 C287 1.388 . S
C288 C289 1.384 . S
C289 C288 1.384 . S
C289 C290 1.377 . S
C290 H270 0.953 . S
C290 C289 1.377 . S
C290 C291 1.369 . S
C291 H271 0.945 . S
C291 C286 1.385 . S
C291 C290 1.369 . S
C292 C284 1.457 . S
C292 C293 1.372 1_545 S
C292 C297 1.364 . S
C293 H272 0.952 . S
C293 C292 1.372 1_565 S
C293 C294 1.389 . S
C294 H273 0.949 . S
C294 C293 1.389 . S
C294 C295 1.387 1_565 S
C295 C294 1.387 1_545 S
C295 C296 1.372 . S
C296 H274 0.950 . S
C296 C295 1.372 . S
C296 C297 1.379 . S
C297 H275 0.948 . S
C297 C292 1.364 . S
C297 C296 1.379 . S
C298 C267 1.383 . S
C298 C285 1.479 . S
C298 C299 1.398 . S
C299 C264 1.382 . S
C299 H276 0.951 . S
C299 C298 1.398 . S
C300 C301 1.384 . S
C300 H313 0.947 . S
C300 C335 1.382 . S
C301 C300 1.384 . S
C301 C302 1.378 . S
C302 C301 1.378 . S
C302 C303 1.378 . S
C302 H314 0.952 . S
C303 C302 1.378 . S
C303 H315 0.950 . S
C303 C334 1.383 . S
H304 C323 0.947 . S
H305 C324 0.946 . S
H306 C326 0.953 . S
H307 C327 0.945 . S
H308 C329 0.952 . S
H309 C330 0.949 . S
H310 C332 0.950 . S
H311 C333 0.948 . S
H312 C335 0.951 . S
H313 C300 0.947 . S
H314 C302 0.952 . S
H315 C303 0.950 . S
N316 C319 1.382 . S
N316 C321 1.363 . S
N317 C319 1.371 . S
N317 C320 1.372 . S
N318 C320 1.361 . S
N318 C321 1.377 . S
C319 N316 1.382 . S
C319 N317 1.371 . S
C319 C322 1.480 . S
C320 N317 1.372 . S
C320 N318 1.361 . S
C320 C328 1.457 . S
C321 N316 1.363 . S
C321 N318 1.377 . S
C321 C334 1.479 . S
C322 C319 1.480 . S
C322 C323 1.383 . S
C322 C327 1.385 . S
C323 H304 0.947 . S
C323 C322 1.383 . S
C323 C324 1.388 . S
C324 H305 0.946 . S
C324 C323 1.388 . S
C324 C325 1.384 . S
C325 C324 1.384 . S
C325 C326 1.377 . S
C326 H306 0.953 . S
C326 C325 1.377 . S
C326 C327 1.369 . S
C327 H307 0.945 . S
C327 C322 1.385 . S
C327 C326 1.369 . S
C328 C320 1.457 . S
C328 C329 1.372 . S
C328 C333 1.364 . S
C329 H308 0.952 . S
C329 C328 1.372 . S
C329 C330 1.389 . S
C330 H309 0.949 . S
C330 C329 1.389 . S
C330 C331 1.387 . S
C331 C330 1.387 . S
C331 C332 1.372 . S
C332 H310 0.950 . S
C332 C331 1.372 . S
C332 C333 1.379 . S
C333 H311 0.948 . S
C333 C328 1.364 . S
C333 C332 1.379 . S
C334 C303 1.383 . S
C334 C321 1.479 . S
C334 C335 1.398 . S
C335 C300 1.382 . S
C335 H312 0.951 . S
C335 C334 1.398 . S
H336 C354 0.951 . S
H337 C356 0.951 . S
H338 C358 0.950 . S
H339 C359 0.950 . S
H340 C361 0.950 . S
H341 C364 0.950 . S
H342 C365 0.950 . S
H343 C367 0.950 . S
H344 C368 0.950 . S
H345 C369 0.951 . S
H346 C371 0.951 . S
H347 C373 0.950 . S
H348 C374 0.950 . S
H349 C376 0.950 . S
H350 C379 0.950 . S
H351 C380 0.950 . S
H352 C382 0.950 . S
H353 C383 0.950 . S
C354 H336 0.951 . S
C354 C355 1.366 . S
C354 C356 1.388 . S
C355 C354 1.366 . S
C355 C359 1.385 . S
C356 H337 0.951 . S
C356 C354 1.388 . S
C356 C357 1.366 . S
C357 C356 1.366 . S
C357 C358 1.414 . S
C357 C360 1.499 . S
C358 H338 0.950 . S
C358 C357 1.414 . S
C358 C359 1.374 . S
C359 H339 0.950 . S
C359 C355 1.385 . S
C359 C358 1.374 . S
C360 C357 1.499 . S
C360 C361 1.373 . S
C360 C362 1.389 . S
C361 H340 0.950 . S
C361 C360 1.373 . S
C361 C377 1.377 . S
C362 C360 1.389 . S
C362 C363 1.524 . S
C362 C376 1.377 . S
C363 C362 1.524 . S
C363 C364 1.397 . S
C363 C368 1.363 . S
C364 H341 0.950 . S
C364 C363 1.397 . S
C364 C365 1.334 . S
C365 H342 0.950 . S
C365 C364 1.334 . S
C365 C366 1.287 . S
C366 C365 1.287 . S
C366 C367 1.524 . S
C366 H385 0.913 . S
C367 H343 0.950 . S
C367 C366 1.524 . S
C367 C368 1.415 . S
C368 H344 0.950 . S
C368 C363 1.363 . S
C368 C367 1.415 . S
C369 H345 0.951 . S
C369 C370 1.366 . S
C369 C371 1.388 . S
C370 C369 1.366 . S
C370 C374 1.385 . S
C371 H346 0.951 . S
C371 C369 1.388 . S
C371 C372 1.366 . S
C372 C371 1.366 . S
C372 C373 1.414 . S
C372 C375 1.499 . S
C373 H347 0.950 . S
C373 C372 1.414 . S
C373 C374 1.374 . S
C374 H348 0.950 . S
C374 C370 1.385 . S
C374 C373 1.374 . S
C375 C372 1.499 . S
C375 C376 1.373 . S
C375 C377 1.389 . S
C376 H349 0.950 . S
C376 C362 1.377 . S
C376 C375 1.373 . S
C377 C361 1.377 . S
C377 C375 1.389 . S
C377 C378 1.524 . S
C378 C377 1.524 . S
C378 C379 1.397 . S
C378 C383 1.363 . S
C379 H350 0.950 . S
C379 C378 1.397 . S
C379 C380 1.334 . S
C380 H351 0.950 . S
C380 C379 1.334 . S
C380 C381 1.287 . S
C381 C380 1.287 . S
C381 C382 1.524 . S
C381 H384 0.999 . S
C382 H352 0.950 . S
C382 C381 1.524 . S
C382 C383 1.415 . S
C383 H353 0.950 . S
C383 C378 1.363 . S
C383 C382 1.415 . S
H384 C381 0.999 . S
H385 C366 0.913 . S
H386 C404 0.951 . S
H387 C406 0.951 . S
H388 C408 0.950 . S
H389 C409 0.950 . S
H390 C411 0.950 . S
H391 C414 0.950 . S
H392 C415 0.950 . S
H393 C417 0.950 . S
H394 C418 0.950 . S
H395 C419 0.951 . S
H396 C421 0.951 . S
H397 C423 0.950 . S
H398 C424 0.950 . S
H399 C426 0.950 . S
H400 C429 0.950 . S
H401 C430 0.950 . S
H402 C432 0.950 . S
H403 C433 0.950 . S
C404 H386 0.951 . S
C404 C405 1.366 . S
C404 C406 1.388 . S
C405 C404 1.366 . S
C405 C409 1.385 . S
C406 H387 0.951 . S
C406 C404 1.388 . S
C406 C407 1.366 . S
C407 C406 1.366 . S
C407 C408 1.414 . S
C407 C410 1.499 . S
C408 H388 0.950 . S
C408 C407 1.414 . S
C408 C409 1.374 . S
C409 H389 0.950 . S
C409 C405 1.385 . S
C409 C408 1.374 . S
C410 C407 1.499 . S
C410 C411 1.373 . S
C410 C412 1.389 . S
C411 H390 0.950 . S
C411 C410 1.373 . S
C411 C427 1.377 . S
C412 C410 1.389 . S
C412 C413 1.524 . S
C412 C426 1.377 . S
C413 C412 1.524 . S
C413 C414 1.397 . S
C413 C418 1.363 . S
C414 H391 0.950 . S
C414 C413 1.397 . S
C414 C415 1.334 . S
C415 H392 0.950 . S
C415 C414 1.334 . S
C415 C416 1.287 . S
C416 C415 1.287 . S
C416 C417 1.524 . S
C416 H435 0.913 . S
C417 H393 0.950 . S
C417 C416 1.524 . S
C417 C418 1.415 . S
C418 H394 0.950 . S
C418 C413 1.363 . S
C418 C417 1.415 . S
C419 H395 0.951 . S
C419 C420 1.366 . S
C419 C421 1.388 . S
C420 C419 1.366 . S
C420 C424 1.385 . S
C421 H396 0.951 . S
C421 C419 1.388 . S
C421 C422 1.366 . S
C422 C421 1.366 . S
C422 C423 1.414 . S
C422 C425 1.499 . S
C423 H397 0.950 . S
C423 C422 1.414 . S
C423 C424 1.374 . S
C424 H398 0.950 . S
C424 C420 1.385 . S
C424 C423 1.374 . S
C425 C422 1.499 . S
C425 C426 1.373 . S
C425 C427 1.389 . S
C426 H399 0.950 . S
C426 C412 1.377 . S
C426 C425 1.373 . S
C427 C411 1.377 . S
C427 C425 1.389 . S
C427 C428 1.524 . S
C428 C427 1.524 . S
C428 C429 1.397 . S
C428 C433 1.363 . S
C429 H400 0.950 . S
C429 C428 1.397 . S
C429 C430 1.334 . S
C430 H401 0.950 . S
C430 C429 1.334 . S
C430 C431 1.287 . S
C431 C430 1.287 . S
C431 C432 1.524 . S
C431 H434 0.999 . S
C432 H402 0.950 . S
C432 C431 1.524 . S
C432 C433 1.415 . S
C433 H403 0.950 . S
C433 C428 1.363 . S
C433 C432 1.415 . S
H434 C431 0.999 . S
H435 C416 0.913 . S
H436 C454 0.951 . S
H437 C456 0.951 . S
H438 C458 0.950 . S
H439 C459 0.950 . S
H440 C461 0.950 . S
H441 C464 0.950 . S
H442 C465 0.950 . S
H443 C467 0.950 . S
H444 C468 0.950 . S
H445 C469 0.951 . S
H446 C471 0.951 . S
H447 C473 0.950 . S
H448 C474 0.950 . S
H449 C476 0.950 . S
H450 C479 0.950 . S
H451 C480 0.950 . S
H452 C482 0.950 . S
H453 C483 0.950 . S
C454 H436 0.951 . S
C454 C455 1.366 . S
C454 C456 1.388 . S
C455 C454 1.366 . S
C455 C459 1.385 . S
C456 H437 0.951 . S
C456 C454 1.388 . S
C456 C457 1.366 . S
C457 C456 1.366 . S
C457 C458 1.414 . S
C457 C460 1.499 . S
C458 H438 0.950 . S
C458 C457 1.414 . S
C458 C459 1.374 . S
C459 H439 0.950 . S
C459 C455 1.385 . S
C459 C458 1.374 . S
C460 C457 1.499 . S
C460 C461 1.373 . S
C460 C462 1.389 . S
C461 H440 0.950 . S
C461 C460 1.373 . S
C461 C477 1.377 . S
C462 C460 1.389 . S
C462 C463 1.524 . S
C462 C476 1.377 . S
C463 C462 1.524 . S
C463 C464 1.397 . S
C463 C468 1.363 . S
C464 H441 0.950 . S
C464 C463 1.397 . S
C464 C465 1.334 . S
C465 H442 0.950 . S
C465 C464 1.334 . S
C465 C466 1.287 . S
C466 C465 1.287 . S
C466 C467 1.524 . S
C466 H485 0.913 . S
C467 H443 0.950 . S
C467 C466 1.524 . S
C467 C468 1.415 . S
C468 H444 0.950 . S
C468 C463 1.363 . S
C468 C467 1.415 . S
C469 H445 0.951 . S
C469 C470 1.366 . S
C469 C471 1.388 . S
C470 C469 1.366 . S
C470 C474 1.385 . S
C471 H446 0.951 . S
C471 C469 1.388 . S
C471 C472 1.366 . S
C472 C471 1.366 . S
C472 C473 1.414 . S
C472 C475 1.499 . S
C473 H447 0.950 . S
C473 C472 1.414 . S
C473 C474 1.374 . S
C474 H448 0.950 . S
C474 C470 1.385 . S
C474 C473 1.374 . S
C475 C472 1.499 . S
C475 C476 1.373 . S
C475 C477 1.389 . S
C476 H449 0.950 . S
C476 C462 1.377 . S
C476 C475 1.373 . S
C477 C461 1.377 . S
C477 C475 1.389 . S
C477 C478 1.524 . S
C478 C477 1.524 . S
C478 C479 1.397 . S
C478 C483 1.363 . S
C479 H450 0.950 . S
C479 C478 1.397 . S
C479 C480 1.334 . S
C480 H451 0.950 . S
C480 C479 1.334 . S
C480 C481 1.287 . S
C481 C480 1.287 . S
C481 C482 1.524 . S
C481 H484 0.999 . S
C482 H452 0.950 . S
C482 C481 1.524 . S
C482 C483 1.415 . S
C483 H453 0.950 . S
C483 C478 1.363 . S
C483 C482 1.415 . S
H484 C481 0.999 . S
H485 C466 0.913 . S
H486 C504 0.951 . S
H487 C506 0.951 . S
H488 C508 0.950 . S
H489 C509 0.950 . S
H490 C511 0.950 . S
H491 C514 0.950 . S
H492 C515 0.950 . S
H493 C517 0.950 . S
H494 C518 0.950 . S
H495 C519 0.951 . S
H496 C521 0.951 . S
H497 C523 0.950 . S
H498 C524 0.950 . S
H499 C526 0.950 . S
H500 C529 0.950 . S
H501 C530 0.950 . S
H502 C532 0.950 . S
H503 C533 0.950 . S
C504 H486 0.951 . S
C504 C505 1.366 . S
C504 C506 1.388 . S
C505 C504 1.366 . S
C505 C509 1.385 . S
C506 H487 0.951 . S
C506 C504 1.388 . S
C506 C507 1.366 . S
C507 C506 1.366 . S
C507 C508 1.414 . S
C507 C510 1.499 . S
C508 H488 0.950 . S
C508 C507 1.414 . S
C508 C509 1.374 . S
C509 H489 0.950 . S
C509 C505 1.385 . S
C509 C508 1.374 . S
C510 C507 1.499 . S
C510 C511 1.373 . S
C510 C512 1.389 . S
C511 H490 0.950 . S
C511 C510 1.373 . S
C511 C527 1.377 . S
C512 C510 1.389 . S
C512 C513 1.524 . S
C512 C526 1.377 . S
C513 C512 1.524 . S
C513 C514 1.397 . S
C513 C518 1.363 . S
C514 H491 0.950 . S
C514 C513 1.397 . S
C514 C515 1.334 . S
C515 H492 0.950 . S
C515 C514 1.334 . S
C515 C516 1.287 . S
C516 C515 1.287 . S
C516 C517 1.524 . S
C516 H535 0.913 . S
C517 H493 0.950 . S
C517 C516 1.524 . S
C517 C518 1.415 . S
C518 H494 0.950 . S
C518 C513 1.363 . S
C518 C517 1.415 . S
C519 H495 0.951 . S
C519 C520 1.366 . S
C519 C521 1.388 . S
C520 C519 1.366 . S
C520 C524 1.385 . S
C521 H496 0.951 . S
C521 C519 1.388 . S
C521 C522 1.366 . S
C522 C521 1.366 . S
C522 C523 1.414 . S
C522 C525 1.499 . S
C523 H497 0.950 . S
C523 C522 1.414 . S
C523 C524 1.374 . S
C524 H498 0.950 . S
C524 C520 1.385 . S
C524 C523 1.374 . S
C525 C522 1.499 . S
C525 C526 1.373 . S
C525 C527 1.389 . S
C526 H499 0.950 . S
C526 C512 1.377 . S
C526 C525 1.373 . S
C527 C511 1.377 . S
C527 C525 1.389 . S
C527 C528 1.524 . S
C528 C527 1.524 . S
C528 C529 1.397 . S
C528 C533 1.363 . S
C529 H500 0.950 . S
C529 C528 1.397 . S
C529 C530 1.334 . S
C530 H501 0.950 . S
C530 C529 1.334 . S
C530 C531 1.287 . S
C531 C530 1.287 . S
C531 C532 1.524 . S
C531 H534 0.999 . S
C532 H502 0.950 . S
C532 C531 1.524 . S
C532 C533 1.415 . S
C533 H503 0.950 . S
C533 C528 1.363 . S
C533 C532 1.415 . S
H534 C531 0.999 . S
H535 C516 0.913 . S
H536 C554 0.951 . S
H537 C556 0.951 . S
H538 C558 0.950 . S
H539 C559 0.950 . S
H540 C561 0.950 . S
H541 C564 0.950 . S
H542 C565 0.950 . S
H543 C567 0.950 . S
H544 C568 0.950 . S
H545 C569 0.951 . S
H546 C571 0.951 . S
H547 C573 0.950 . S
H548 C574 0.950 . S
H549 C576 0.950 . S
H550 C579 0.950 . S
H551 C580 0.950 . S
H552 C582 0.950 . S
H553 C583 0.950 . S
C554 H536 0.951 . S
C554 C555 1.366 . S
C554 C556 1.388 . S
C555 C554 1.366 . S
C555 C559 1.385 . S
C556 H537 0.951 . S
C556 C554 1.388 . S
C556 C557 1.366 . S
C557 C556 1.366 . S
C557 C558 1.414 . S
C557 C560 1.499 . S
C558 H538 0.950 . S
C558 C557 1.414 . S
C558 C559 1.374 . S
C559 H539 0.950 . S
C559 C555 1.385 . S
C559 C558 1.374 . S
C560 C557 1.499 . S
C560 C561 1.373 . S
C560 C562 1.389 . S
C561 H540 0.950 . S
C561 C560 1.373 . S
C561 C577 1.377 . S
C562 C560 1.389 . S
C562 C563 1.524 . S
C562 C576 1.377 . S
C563 C562 1.524 . S
C563 C564 1.397 . S
C563 C568 1.363 . S
C564 H541 0.950 . S
C564 C563 1.397 . S
C564 C565 1.334 . S
C565 H542 0.950 . S
C565 C564 1.334 . S
C565 C566 1.287 . S
C566 C565 1.287 . S
C566 C567 1.524 . S
C566 H585 0.913 . S
C567 H543 0.950 . S
C567 C566 1.524 . S
C567 C568 1.415 . S
C568 H544 0.950 . S
C568 C563 1.363 . S
C568 C567 1.415 . S
C569 H545 0.951 . S
C569 C570 1.366 . S
C569 C571 1.388 . S
C570 C569 1.366 . S
C570 C574 1.385 . S
C571 H546 0.951 . S
C571 C569 1.388 . S
C571 C572 1.366 . S
C572 C571 1.366 . S
C572 C573 1.414 . S
C572 C575 1.499 . S
C573 H547 0.950 . S
C573 C572 1.414 . S
C573 C574 1.374 . S
C574 H548 0.950 . S
C574 C570 1.385 . S
C574 C573 1.374 . S
C575 C572 1.499 . S
C575 C576 1.373 . S
C575 C577 1.389 . S
C576 H549 0.950 . S
C576 C562 1.377 . S
C576 C575 1.373 . S
C577 C561 1.377 . S
C577 C575 1.389 . S
C577 C578 1.524 . S
C578 C577 1.524 . S
C578 C579 1.397 . S
C578 C583 1.363 . S
C579 H550 0.950 . S
C579 C578 1.397 . S
C579 C580 1.334 . S
C580 H551 0.950 . S
C580 C579 1.334 . S
C580 C581 1.287 . S
C581 C580 1.287 . S
C581 C582 1.524 . S
C581 H584 0.999 . S
C582 H552 0.950 . S
C582 C581 1.524 . S
C582 C583 1.415 . S
C583 H553 0.950 . S
C583 C578 1.363 . S
C583 C582 1.415 . S
H584 C581 0.999 . S
H585 C566 0.913 . S
H586 C604 0.951 . S
H587 C606 0.951 . S
H588 C608 0.950 . S
H589 C609 0.950 . S
H590 C611 0.950 . S
H591 C614 0.950 . S
H592 C615 0.950 . S
H593 C617 0.950 . S
H594 C618 0.950 . S
H595 C619 0.951 . S
H596 C621 0.951 . S
H597 C623 0.950 . S
H598 C624 0.950 . S
H599 C626 0.950 . S
H600 C629 0.950 . S
H601 C630 0.950 . S
H602 C632 0.950 . S
H603 C633 0.950 . S
C604 H586 0.951 . S
C604 C605 1.366 . S
C604 C606 1.388 . S
C605 C604 1.366 . S
C605 C609 1.385 . S
C606 H587 0.951 . S
C606 C604 1.388 . S
C606 C607 1.366 . S
C607 C606 1.366 . S
C607 C608 1.414 . S
C607 C610 1.499 . S
C608 H588 0.950 . S
C608 C607 1.414 . S
C608 C609 1.374 . S
C609 H589 0.950 . S
C609 C605 1.385 . S
C609 C608 1.374 . S
C610 C607 1.499 . S
C610 C611 1.373 . S
C610 C612 1.389 . S
C611 H590 0.950 . S
C611 C610 1.373 . S
C611 C627 1.377 . S
C612 C610 1.389 . S
C612 C613 1.524 . S
C612 C626 1.377 . S
C613 C612 1.524 . S
C613 C614 1.397 . S
C613 C618 1.363 . S
C614 H591 0.950 . S
C614 C613 1.397 . S
C614 C615 1.334 . S
C615 H592 0.950 . S
C615 C614 1.334 . S
C615 C616 1.287 . S
C616 C615 1.287 . S
C616 C617 1.524 . S
C616 H635 0.913 . S
C617 H593 0.950 . S
C617 C616 1.524 . S
C617 C618 1.415 . S
C618 H594 0.950 . S
C618 C613 1.363 . S
C618 C617 1.415 . S
C619 H595 0.951 . S
C619 C620 1.366 . S
C619 C621 1.388 . S
C620 C619 1.366 . S
C620 C624 1.385 . S
C621 H596 0.951 . S
C621 C619 1.388 . S
C621 C622 1.366 . S
C622 C621 1.366 . S
C622 C623 1.414 . S
C622 C625 1.499 . S
C623 H597 0.950 . S
C623 C622 1.414 . S
C623 C624 1.374 . S
C624 H598 0.950 . S
C624 C620 1.385 . S
C624 C623 1.374 . S
C625 C622 1.499 . S
C625 C626 1.373 . S
C625 C627 1.389 . S
C626 H599 0.950 . S
C626 C612 1.377 . S
C626 C625 1.373 . S
C627 C611 1.377 . S
C627 C625 1.389 . S
C627 C628 1.524 . S
C628 C627 1.524 . S
C628 C629 1.397 . S
C628 C633 1.363 . S
C629 H600 0.950 . S
C629 C628 1.397 . S
C629 C630 1.334 . S
C630 H601 0.950 . S
C630 C629 1.334 . S
C630 C631 1.287 . S
C631 C630 1.287 . S
C631 C632 1.524 . S
C631 H634 0.999 . S
C632 H602 0.950 . S
C632 C631 1.524 . S
C632 C633 1.415 . S
C633 H603 0.950 . S
C633 C628 1.363 . S
C633 C632 1.415 . S
H634 C631 0.999 . S
H635 C616 0.913 . S
H636 C654 0.951 . S
H637 C656 0.951 . S
H638 C658 0.950 . S
H639 C659 0.950 . S
H640 C661 0.950 . S
H641 C664 0.950 . S
H642 C665 0.950 . S
H643 C667 0.950 . S
H644 C668 0.950 . S
H645 C669 0.951 . S
H646 C671 0.951 . S
H647 C673 0.950 . S
H648 C674 0.950 . S
H649 C676 0.950 . S
H650 C679 0.950 . S
H651 C680 0.950 . S
H652 C682 0.950 . S
H653 C683 0.950 . S
C654 H636 0.951 . S
C654 C655 1.366 . S
C654 C656 1.388 . S
C655 C654 1.366 . S
C655 C659 1.385 . S
C656 H637 0.951 . S
C656 C654 1.388 . S
C656 C657 1.366 . S
C657 C656 1.366 . S
C657 C658 1.414 . S
C657 C660 1.499 . S
C658 H638 0.950 . S
C658 C657 1.414 . S
C658 C659 1.374 . S
C659 H639 0.950 . S
C659 C655 1.385 . S
C659 C658 1.374 . S
C660 C657 1.499 . S
C660 C661 1.373 . S
C660 C662 1.389 . S
C661 H640 0.950 . S
C661 C660 1.373 . S
C661 C677 1.377 . S
C662 C660 1.389 . S
C662 C663 1.524 . S
C662 C676 1.377 . S
C663 C662 1.524 . S
C663 C664 1.397 . S
C663 C668 1.363 . S
C664 H641 0.950 . S
C664 C663 1.397 . S
C664 C665 1.334 . S
C665 H642 0.950 . S
C665 C664 1.334 . S
C665 C666 1.287 . S
C666 C665 1.287 . S
C666 C667 1.524 . S
C666 H685 0.913 . S
C667 H643 0.950 . S
C667 C666 1.524 . S
C667 C668 1.415 . S
C668 H644 0.950 . S
C668 C663 1.363 . S
C668 C667 1.415 . S
C669 H645 0.951 . S
C669 C670 1.366 . S
C669 C671 1.388 . S
C670 C669 1.366 . S
C670 C674 1.385 . S
C671 H646 0.951 . S
C671 C669 1.388 . S
C671 C672 1.366 . S
C672 C671 1.366 . S
C672 C673 1.414 . S
C672 C675 1.499 . S
C673 H647 0.950 . S
C673 C672 1.414 . S
C673 C674 1.374 . S
C674 H648 0.950 . S
C674 C670 1.385 . S
C674 C673 1.374 . S
C675 C672 1.499 . S
C675 C676 1.373 . S
C675 C677 1.389 . S
C676 H649 0.950 . S
C676 C662 1.377 . S
C676 C675 1.373 . S
C677 C661 1.377 . S
C677 C675 1.389 . S
C677 C678 1.524 . S
C678 C677 1.524 . S
C678 C679 1.397 . S
C678 C683 1.363 . S
C679 H650 0.950 . S
C679 C678 1.397 . S
C679 C680 1.334 . S
C680 H651 0.950 . S
C680 C679 1.334 . S
C680 C681 1.287 . S
C681 C680 1.287 . S
C681 C682 1.524 . S
C681 H684 0.999 . S
C682 H652 0.950 . S
C682 C681 1.524 . S
C682 C683 1.415 . S
C683 H653 0.950 . S
C683 C678 1.363 . S
C683 C682 1.415 . S
H684 C681 0.999 . S
H685 C666 0.913 . S
H686 C704 0.951 . S
H687 C706 0.951 . S
H688 C708 0.950 . S
H689 C709 0.950 . S
H690 C711 0.950 . S
H691 C714 0.950 . S
H692 C715 0.950 . S
H693 C717 0.950 . S
H694 C718 0.950 . S
H695 C719 0.951 . S
H696 C721 0.951 . S
H697 C723 0.950 . S
H698 C724 0.950 . S
H699 C726 0.950 . S
H700 C729 0.950 . S
H701 C730 0.950 . S
H702 C732 0.950 . S
H703 C733 0.950 . S
C704 H686 0.951 . S
C704 C705 1.366 . S
C704 C706 1.388 . S
C705 C704 1.366 . S
C705 C709 1.385 . S
C706 H687 0.951 . S
C706 C704 1.388 . S
C706 C707 1.366 . S
C707 C706 1.366 . S
C707 C708 1.414 . S
C707 C710 1.499 . S
C708 H688 0.950 . S
C708 C707 1.414 . S
C708 C709 1.374 . S
C709 H689 0.950 . S
C709 C705 1.385 . S
C709 C708 1.374 . S
C710 C707 1.499 . S
C710 C711 1.373 . S
C710 C712 1.389 . S
C711 H690 0.950 . S
C711 C710 1.373 . S
C711 C727 1.377 . S
C712 C710 1.389 . S
C712 C713 1.524 . S
C712 C726 1.377 . S
C713 C712 1.524 . S
C713 C714 1.397 . S
C713 C718 1.363 . S
C714 H691 0.950 . S
C714 C713 1.397 . S
C714 C715 1.334 . S
C715 H692 0.950 . S
C715 C714 1.334 . S
C715 C716 1.287 . S
C716 C715 1.287 . S
C716 C717 1.524 . S
C716 H735 0.913 . S
C717 H693 0.950 . S
C717 C716 1.524 . S
C717 C718 1.415 . S
C718 H694 0.950 . S
C718 C713 1.363 . S
C718 C717 1.415 . S
C719 H695 0.951 . S
C719 C720 1.366 . S
C719 C721 1.388 . S
C720 C719 1.366 . S
C720 C724 1.385 . S
C721 H696 0.951 . S
C721 C719 1.388 . S
C721 C722 1.366 . S
C722 C721 1.366 . S
C722 C723 1.414 . S
C722 C725 1.499 . S
C723 H697 0.950 . S
C723 C722 1.414 . S
C723 C724 1.374 . S
C724 H698 0.950 . S
C724 C720 1.385 . S
C724 C723 1.374 . S
C725 C722 1.499 . S
C725 C726 1.373 . S
C725 C727 1.389 . S
C726 H699 0.950 . S
C726 C712 1.377 . S
C726 C725 1.373 . S
C727 C711 1.377 . S
C727 C725 1.389 . S
C727 C728 1.524 . S
C728 C727 1.524 . S
C728 C729 1.397 . S
C728 C733 1.363 . S
C729 H700 0.950 . S
C729 C728 1.397 . S
C729 C730 1.334 . S
C730 H701 0.950 . S
C730 C729 1.334 . S
C730 C731 1.287 . S
C731 C730 1.287 . S
C731 C732 1.524 . S
C731 H734 0.999 . S
C732 H702 0.950 . S
C732 C731 1.524 . S
C732 C733 1.415 . S
C733 H703 0.950 . S
C733 C728 1.363 . S
C733 C732 1.415 . S
H734 C731 0.999 . S
H735 C716 0.913 . S
H736 C754 0.951 . S
H737 C756 0.951 . S
H738 C758 0.950 . S
H739 C759 0.950 . S
H740 C761 0.950 . S
H741 C764 0.950 . S
H742 C765 0.950 . S
H743 C767 0.950 . S
H744 C768 0.950 . S
H745 C769 0.951 . S
H746 C771 0.951 . S
H747 C773 0.950 . S
H748 C774 0.950 . S
H749 C776 0.950 . S
H750 C779 0.950 . S
H751 C780 0.950 . S
H752 C782 0.950 . S
H753 C783 0.950 . S
C754 H736 0.951 . S
C754 C755 1.366 . S
C754 C756 1.388 . S
C755 C754 1.366 . S
C755 C759 1.385 . S
C756 H737 0.951 . S
C756 C754 1.388 . S
C756 C757 1.366 . S
C757 C756 1.366 . S
C757 C758 1.414 . S
C757 C760 1.499 . S
C758 H738 0.950 . S
C758 C757 1.414 . S
C758 C759 1.374 . S
C759 H739 0.950 . S
C759 C755 1.385 . S
C759 C758 1.374 . S
C760 C757 1.499 . S
C760 C761 1.373 . S
C760 C762 1.389 . S
C761 H740 0.950 . S
C761 C760 1.373 . S
C761 C777 1.377 . S
C762 C760 1.389 . S
C762 C763 1.524 . S
C762 C776 1.377 . S
C763 C762 1.524 . S
C763 C764 1.397 . S
C763 C768 1.363 . S
C764 H741 0.950 . S
C764 C763 1.397 . S
C764 C765 1.334 . S
C765 H742 0.950 . S
C765 C764 1.334 . S
C765 C766 1.287 . S
C766 C765 1.287 . S
C766 C767 1.524 . S
C766 H785 0.913 . S
C767 H743 0.950 . S
C767 C766 1.524 . S
C767 C768 1.415 . S
C768 H744 0.950 . S
C768 C763 1.363 . S
C768 C767 1.415 . S
C769 H745 0.951 . S
C769 C770 1.366 . S
C769 C771 1.388 . S
C770 C769 1.366 . S
C770 C774 1.385 . S
C771 H746 0.951 . S
C771 C769 1.388 . S
C771 C772 1.366 . S
C772 C771 1.366 . S
C772 C773 1.414 . S
C772 C775 1.499 . S
C773 H747 0.950 . S
C773 C772 1.414 . S
C773 C774 1.374 . S
C774 H748 0.950 . S
C774 C770 1.385 . S
C774 C773 1.374 . S
C775 C772 1.499 . S
C775 C776 1.373 . S
C775 C777 1.389 . S
C776 H749 0.950 . S
C776 C762 1.377 . S
C776 C775 1.373 . S
C777 C761 1.377 . S
C777 C775 1.389 . S
C777 C778 1.524 . S
C778 C777 1.524 . S
C778 C779 1.397 . S
C778 C783 1.363 . S
C779 H750 0.950 . S
C779 C778 1.397 . S
C779 C780 1.334 . S
C780 H751 0.950 . S
C780 C779 1.334 . S
C780 C781 1.287 . S
C781 C780 1.287 . S
C781 C782 1.524 . S
C781 H784 0.999 . S
C782 H752 0.950 . S
C782 C781 1.524 . S
C782 C783 1.415 . S
C783 H753 0.950 . S
C783 C778 1.363 . S
C783 C782 1.415 . S
H784 C781 0.999 . S
H785 C766 0.913 . S
H786 C804 0.951 . S
H787 C806 0.951 . S
H788 C808 0.950 . S
H789 C809 0.950 . S
H790 C811 0.950 . S
H791 C814 0.950 . S
H792 C815 0.950 . S
H793 C817 0.950 . S
H794 C818 0.950 . S
H795 C819 0.951 . S
H796 C821 0.951 . S
H797 C823 0.950 . S
H798 C824 0.950 . S
H799 C826 0.950 . S
H800 C829 0.950 . S
H801 C830 0.950 . S
H802 C832 0.950 . S
H803 C833 0.950 . S
C804 H786 0.951 . S
C804 C805 1.366 . S
C804 C806 1.388 . S
C805 C804 1.366 . S
C805 C809 1.385 . S
C806 H787 0.951 . S
C806 C804 1.388 . S
C806 C807 1.366 . S
C807 C806 1.366 . S
C807 C808 1.414 . S
C807 C810 1.499 . S
C808 H788 0.950 . S
C808 C807 1.414 . S
C808 C809 1.374 . S
C809 H789 0.950 . S
C809 C805 1.385 . S
C809 C808 1.374 . S
C810 C807 1.499 . S
C810 C811 1.373 . S
C810 C812 1.389 . S
C811 H790 0.950 . S
C811 C810 1.373 . S
C811 C827 1.377 . S
C812 C810 1.389 . S
C812 C813 1.524 . S
C812 C826 1.377 . S
C813 C812 1.524 . S
C813 C814 1.397 . S
C813 C818 1.363 . S
C814 H791 0.950 . S
C814 C813 1.397 . S
C814 C815 1.334 . S
C815 H792 0.950 . S
C815 C814 1.334 . S
C815 C816 1.287 . S
C816 C815 1.287 . S
C816 C817 1.524 . S
C816 H835 0.913 . S
C817 H793 0.950 . S
C817 C816 1.524 . S
C817 C818 1.415 . S
C818 H794 0.950 . S
C818 C813 1.363 . S
C818 C817 1.415 . S
C819 H795 0.951 . S
C819 C820 1.366 . S
C819 C821 1.388 . S
C820 C819 1.366 . S
C820 C824 1.385 . S
C821 H796 0.951 . S
C821 C819 1.388 . S
C821 C822 1.366 . S
C822 C821 1.366 . S
C822 C823 1.414 . S
C822 C825 1.499 . S
C823 H797 0.950 . S
C823 C822 1.414 . S
C823 C824 1.374 . S
C824 H798 0.950 . S
C824 C820 1.385 . S
C824 C823 1.374 . S
C825 C822 1.499 . S
C825 C826 1.373 . S
C825 C827 1.389 . S
C826 H799 0.950 . S
C826 C812 1.377 . S
C826 C825 1.373 . S
C827 C811 1.377 . S
C827 C825 1.389 . S
C827 C828 1.524 . S
C828 C827 1.524 . S
C828 C829 1.397 . S
C828 C833 1.363 . S
C829 H800 0.950 . S
C829 C828 1.397 . S
C829 C830 1.334 . S
C830 H801 0.950 . S
C830 C829 1.334 . S
C830 C831 1.287 . S
C831 C830 1.287 . S
C831 C832 1.524 . S
C831 H834 0.999 . S
C832 H802 0.950 . S
C832 C831 1.524 . S
C832 C833 1.415 . S
C833 H803 0.950 . S
C833 C828 1.363 . S
C833 C832 1.415 . S
H834 C831 0.999 . S
H835 C816 0.913 . S
H836 C854 0.951 . S
H837 C856 0.951 . S
H838 C858 0.950 . S
H839 C859 0.950 . S
H840 C861 0.950 . S
H841 C864 0.950 . S
H842 C865 0.950 . S
H843 C867 0.950 . S
H844 C868 0.950 . S
H845 C869 0.951 . S
H846 C871 0.951 . S
H847 C873 0.950 . S
H848 C874 0.950 . S
H849 C876 0.950 . S
H850 C879 0.950 . S
H851 C880 0.950 . S
H852 C882 0.950 . S
H853 C883 0.950 . S
C854 H836 0.951 . S
C854 C855 1.366 . S
C854 C856 1.388 . S
C855 C854 1.366 . S
C855 C859 1.385 . S
C856 H837 0.951 . S
C856 C854 1.388 . S
C856 C857 1.366 . S
C857 C856 1.366 . S
C857 C858 1.414 . S
C857 C860 1.499 . S
C858 H838 0.950 . S
C858 C857 1.414 . S
C858 C859 1.374 . S
C859 H839 0.950 . S
C859 C855 1.385 . S
C859 C858 1.374 . S
C860 C857 1.499 . S
C860 C861 1.373 . S
C860 C862 1.389 . S
C861 H840 0.950 . S
C861 C860 1.373 . S
C861 C877 1.377 . S
C862 C860 1.389 . S
C862 C863 1.524 . S
C862 C876 1.377 . S
C863 C862 1.524 . S
C863 C864 1.397 . S
C863 C868 1.363 . S
C864 H841 0.950 . S
C864 C863 1.397 . S
C864 C865 1.334 . S
C865 H842 0.950 . S
C865 C864 1.334 . S
C865 C866 1.287 . S
C866 C865 1.287 . S
C866 C867 1.524 . S
C866 H885 0.913 . S
C867 H843 0.950 . S
C867 C866 1.524 . S
C867 C868 1.415 . S
C868 H844 0.950 . S
C868 C863 1.363 . S
C868 C867 1.415 . S
C869 H845 0.951 . S
C869 C870 1.366 . S
C869 C871 1.388 . S
C870 C869 1.366 . S
C870 C874 1.385 . S
C871 H846 0.951 . S
C871 C869 1.388 . S
C871 C872 1.366 . S
C872 C871 1.366 . S
C872 C873 1.414 . S
C872 C875 1.499 . S
C873 H847 0.950 . S
C873 C872 1.414 . S
C873 C874 1.374 . S
C874 H848 0.950 . S
C874 C870 1.385 . S
C874 C873 1.374 . S
C875 C872 1.499 . S
C875 C876 1.373 . S
C875 C877 1.389 . S
C876 H849 0.950 . S
C876 C862 1.377 . S
C876 C875 1.373 . S
C877 C861 1.377 . S
C877 C875 1.389 . S
C877 C878 1.524 . S
C878 C877 1.524 . S
C878 C879 1.397 . S
C878 C883 1.363 . S
C879 H850 0.950 . S
C879 C878 1.397 . S
C879 C880 1.334 . S
C880 H851 0.950 . S
C880 C879 1.334 . S
C880 C881 1.287 . S
C881 C880 1.287 . S
C881 C882 1.524 . S
C881 H884 0.999 . S
C882 H852 0.950 . S
C882 C881 1.524 . S
C882 C883 1.415 . S
C883 H853 0.950 . S
C883 C878 1.363 . S
C883 C882 1.415 . S
H884 C881 0.999 . S
H885 C866 0.913 . S
H886 C904 0.951 . S
H887 C906 0.951 . S
H888 C908 0.950 . S
H889 C909 0.950 . S
H890 C911 0.950 . S
H891 C914 0.950 . S
H892 C915 0.950 . S
H893 C917 0.950 . S
H894 C918 0.950 . S
H895 C919 0.951 . S
H896 C921 0.951 . S
H897 C923 0.950 . S
H898 C924 0.950 . S
H899 C926 0.950 . S
H900 C929 0.950 . S
H901 C930 0.950 . S
H902 C932 0.950 . S
H903 C933 0.950 . S
C904 H886 0.951 . S
C904 C905 1.366 . S
C904 C906 1.388 . S
C905 C904 1.366 . S
C905 C909 1.385 . S
C906 H887 0.951 . S
C906 C904 1.388 . S
C906 C907 1.366 . S
C907 C906 1.366 . S
C907 C908 1.414 . S
C907 C910 1.499 . S
C908 H888 0.950 . S
C908 C907 1.414 . S
C908 C909 1.374 . S
C909 H889 0.950 . S
C909 C905 1.385 . S
C909 C908 1.374 . S
C910 C907 1.499 . S
C910 C911 1.373 . S
C910 C912 1.389 . S
C911 H890 0.950 . S
C911 C910 1.373 . S
C911 C927 1.377 . S
C912 C910 1.389 . S
C912 C913 1.524 . S
C912 C926 1.377 . S
C913 C912 1.524 . S
C913 C914 1.397 . S
C913 C918 1.363 . S
C914 H891 0.950 . S
C914 C913 1.397 . S
C914 C915 1.334 . S
C915 H892 0.950 . S
C915 C914 1.334 . S
C915 C916 1.287 . S
C916 C915 1.287 . S
C916 C917 1.524 . S
C916 H935 0.913 . S
C917 H893 0.950 . S
C917 C916 1.524 . S
C917 C918 1.415 . S
C918 H894 0.950 . S
C918 C913 1.363 . S
C918 C917 1.415 . S
C919 H895 0.951 . S
C919 C920 1.366 . S
C919 C921 1.388 . S
C920 C919 1.366 . S
C920 C924 1.385 . S
C921 H896 0.951 . S
C921 C919 1.388 . S
C921 C922 1.366 . S
C922 C921 1.366 . S
C922 C923 1.414 . S
C922 C925 1.499 . S
C923 H897 0.950 . S
C923 C922 1.414 . S
C923 C924 1.374 . S
C924 H898 0.950 . S
C924 C920 1.385 . S
C924 C923 1.374 . S
C925 C922 1.499 . S
C925 C926 1.373 . S
C925 C927 1.389 . S
C926 H899 0.950 . S
C926 C912 1.377 . S
C926 C925 1.373 . S
C927 C911 1.377 . S
C927 C925 1.389 . S
C927 C928 1.524 . S
C928 C927 1.524 . S
C928 C929 1.397 . S
C928 C933 1.363 . S
C929 H900 0.950 . S
C929 C928 1.397 . S
C929 C930 1.334 . S
C930 H901 0.950 . S
C930 C929 1.334 . S
C930 C931 1.287 . S
C931 C930 1.287 . S
C931 C932 1.524 . S
C931 H934 0.999 . S
C932 H902 0.950 . S
C932 C931 1.524 . S
C932 C933 1.415 . S
C933 H903 0.950 . S
C933 C928 1.363 . S
C933 C932 1.415 . S
H934 C931 0.999 . S
H935 C916 0.913 . S
H936 C954 0.924 1_655 S
H937 C956 0.937 1_655 S
H938 C958 0.950 . S
H939 C959 0.950 . S
H940 C961 0.950 . S
H941 C964 0.950 . S
H942 C965 0.950 . S
H943 C967 0.950 . S
H944 C968 0.950 . S
H945 C969 0.951 . S
H946 C971 0.951 . S
H947 C973 0.950 . S
H948 C974 0.950 . S
H949 C976 0.950 . S
H950 C979 0.950 . S
H951 C980 0.950 . S
H952 C982 0.950 . S
H953 C983 0.950 . S
C954 H936 0.924 1_455 S
C954 C955 1.392 . S
C954 C956 1.390 . S
C955 C954 1.392 . S
C955 C959 1.385 . S
C956 H937 0.937 1_455 S
C956 C954 1.390 . S
C956 C957 1.366 . S
C957 C956 1.366 . S
C957 C958 1.414 . S
C957 C960 1.499 . S
C958 H938 0.950 . S
C958 C957 1.414 . S
C958 C959 1.374 . S
C959 H939 0.950 . S
C959 C955 1.385 . S
C959 C958 1.374 . S
C960 C957 1.499 . S
C960 C961 1.373 . S
C960 C962 1.389 1_455 S
C961 H940 0.950 . S
C961 C960 1.373 . S
C961 C977 1.377 . S
C962 C960 1.389 1_655 S
C962 C963 1.524 . S
C962 C976 1.377 . S
C963 C962 1.524 . S
C963 C964 1.397 . S
C963 C968 1.363 . S
C964 H941 0.950 . S
C964 C963 1.397 . S
C964 C965 1.334 . S
C965 H942 0.950 . S
C965 C964 1.334 . S
C965 C966 1.287 . S
C966 C965 1.287 . S
C966 C967 1.524 . S
C966 H985 0.913 . S
C967 H943 0.950 . S
C967 C966 1.524 . S
C967 C968 1.415 . S
C968 H944 0.950 . S
C968 C963 1.363 . S
C968 C967 1.415 . S
C969 H945 0.951 . S
C969 C970 1.366 . S
C969 C971 1.388 1_556 S
C970 C969 1.366 . S
C970 C974 1.385 . S
C971 H946 0.951 . S
C971 C969 1.388 1_554 S
C971 C972 1.366 . S
C972 C971 1.366 . S
C972 C973 1.414 . S
C972 C975 1.499 . S
C973 H947 0.950 . S
C973 C972 1.414 . S
C973 C974 1.374 1_554 S
C974 H948 0.950 . S
C974 C970 1.385 . S
C974 C973 1.374 1_556 S
C975 C972 1.499 . S
C975 C976 1.373 1_455 S
C975 C977 1.389 . S
C976 H949 0.950 . S
C976 C962 1.377 . S
C976 C975 1.373 1_655 S
C977 C961 1.377 . S
C977 C975 1.389 . S
C977 C978 1.524 . S
C978 C977 1.524 . S
C978 C979 1.397 . S
C978 C983 1.363 . S
C979 H950 0.950 . S
C979 C978 1.397 . S
C979 C980 1.334 . S
C980 H951 0.950 . S
C980 C979 1.334 . S
C980 C981 1.287 . S
C981 C980 1.287 . S
C981 C982 1.524 . S
C981 H984 0.999 . S
C982 H952 0.950 . S
C982 C981 1.524 . S
C982 C983 1.415 . S
C983 H953 0.950 . S
C983 C978 1.363 . S
C983 C982 1.415 . S
H984 C981 0.999 . S
H985 C966 0.913 . S
H986 C1004 0.951 . S
H987 C1006 0.951 . S
H988 C1008 0.950 . S
H989 C1009 0.950 . S
H990 C1011 0.950 . S
H991 C1014 0.950 . S
H992 C1015 0.950 . S
H993 C1017 0.950 . S
H994 C1018 0.950 . S
H995 C1019 0.951 . S
H996 C1021 0.951 . S
H997 C1023 0.950 . S
H998 C1024 0.950 . S
H999 C1026 0.950 . S
H1000 C1029 0.950 . S
H1001 C1030 0.950 . S
H1002 C1032 0.950 . S
H1003 C1033 0.950 . S
C1004 H986 0.951 . S
C1004 C1005 1.366 . S
C1004 C1006 1.388 . S
C1005 C1004 1.366 . S
C1005 C1009 1.385 . S
C1006 H987 0.951 . S
C1006 C1004 1.388 . S
C1006 C1007 1.366 . S
C1007 C1006 1.366 . S
C1007 C1008 1.414 . S
C1007 C1010 1.499 . S
C1008 H988 0.950 . S
C1008 C1007 1.414 . S
C1008 C1009 1.374 . S
C1009 H989 0.950 . S
C1009 C1005 1.385 . S
C1009 C1008 1.374 . S
C1010 C1007 1.499 . S
C1010 C1011 1.373 1_545 S
C1010 C1012 1.389 . S
C1011 H990 0.950 . S
C1011 C1010 1.373 1_565 S
C1011 C1027 1.377 . S
C1012 C1010 1.389 . S
C1012 C1013 1.524 . S
C1012 C1026 1.377 . S
C1013 C1012 1.524 . S
C1013 C1014 1.397 . S
C1013 C1018 1.363 . S
C1014 H991 0.950 . S
C1014 C1013 1.397 . S
C1014 C1015 1.334 . S
C1015 H992 0.950 . S
C1015 C1014 1.334 . S
C1015 C1016 1.287 . S
C1016 C1015 1.287 . S
C1016 C1017 1.524 . S
C1016 H1035 0.913 . S
C1017 H993 0.950 . S
C1017 C1016 1.524 . S
C1017 C1018 1.415 . S
C1018 H994 0.950 . S
C1018 C1013 1.363 . S
C1018 C1017 1.415 . S
C1019 H995 0.951 . S
C1019 C1020 1.366 . S
C1019 C1021 1.388 . S
C1020 C1019 1.366 . S
C1020 C1024 1.385 . S
C1021 H996 0.951 . S
C1021 C1019 1.388 . S
C1021 C1022 1.366 . S
C1022 C1021 1.366 . S
C1022 C1023 1.414 . S
C1022 C1025 1.499 . S
C1023 H997 0.950 . S
C1023 C1022 1.414 . S
C1023 C1024 1.374 . S
C1024 H998 0.950 . S
C1024 C1020 1.385 . S
C1024 C1023 1.374 . S
C1025 C1022 1.499 . S
C1025 C1026 1.373 . S
C1025 C1027 1.389 1_545 S
C1026 H999 0.950 . S
C1026 C1012 1.377 . S
C1026 C1025 1.373 . S
C1027 C1011 1.377 . S
C1027 C1025 1.389 1_565 S
C1027 C1028 1.524 . S
C1028 C1027 1.524 . S
C1028 C1029 1.397 . S
C1028 C1033 1.363 . S
C1029 H1000 0.950 . S
C1029 C1028 1.397 . S
C1029 C1030 1.334 . S
C1030 H1001 0.950 . S
C1030 C1029 1.334 . S
C1030 C1031 1.287 . S
C1031 C1030 1.287 . S
C1031 C1032 1.524 . S
C1031 H1034 0.999 . S
C1032 H1002 0.950 . S
C1032 C1031 1.524 . S
C1032 C1033 1.415 . S
C1033 H1003 0.950 . S
C1033 C1028 1.363 . S
C1033 C1032 1.415 . S
H1034 C1031 0.999 . S
H1035 C1016 0.913 . S
H1036 C1054 0.951 . S
H1037 C1056 0.951 . S
H1038 C1058 0.950 . S
H1039 C1059 0.950 . S
H1040 C1061 0.950 . S
H1041 C1064 0.950 . S
H1042 C1065 0.950 . S
H1043 C1067 0.950 . S
H1044 C1068 0.950 . S
H1045 C1069 0.951 . S
H1046 C1071 0.951 . S
H1047 C1073 0.950 . S
H1048 C1074 0.950 . S
H1049 C1076 0.950 . S
H1050 C1079 0.950 . S
H1051 C1080 0.950 . S
H1052 C1082 0.950 . S
H1053 C1083 0.950 . S
C1054 H1036 0.951 . S
C1054 C1055 1.366 . S
C1054 C1056 1.388 . S
C1055 C1054 1.366 . S
C1055 C1059 1.385 . S
C1056 H1037 0.951 . S
C1056 C1054 1.388 . S
C1056 C1057 1.366 . S
C1057 C1056 1.366 . S
C1057 C1058 1.414 . S
C1057 C1060 1.499 . S
C1058 H1038 0.950 . S
C1058 C1057 1.414 . S
C1058 C1059 1.374 . S
C1059 H1039 0.950 . S
C1059 C1055 1.385 . S
C1059 C1058 1.374 . S
C1060 C1057 1.499 . S
C1060 C1061 1.373 . S
C1060 C1062 1.389 . S
C1061 H1040 0.950 . S
C1061 C1060 1.373 . S
C1061 C1077 1.377 . S
C1062 C1060 1.389 . S
C1062 C1063 1.524 . S
C1062 C1076 1.377 . S
C1063 C1062 1.524 . S
C1063 C1064 1.397 . S
C1063 C1068 1.363 . S
C1064 H1041 0.950 . S
C1064 C1063 1.397 . S
C1064 C1065 1.334 . S
C1065 H1042 0.950 . S
C1065 C1064 1.334 . S
C1065 C1066 1.287 . S
C1066 C1065 1.287 . S
C1066 C1067 1.524 . S
C1066 H1085 0.913 . S
C1067 H1043 0.950 . S
C1067 C1066 1.524 . S
C1067 C1068 1.415 . S
C1068 H1044 0.950 . S
C1068 C1063 1.363 . S
C1068 C1067 1.415 . S
C1069 H1045 0.951 . S
C1069 C1070 1.366 . S
C1069 C1071 1.388 . S
C1070 C1069 1.366 . S
C1070 C1074 1.385 . S
C1071 H1046 0.951 . S
C1071 C1069 1.388 . S
C1071 C1072 1.366 . S
C1072 C1071 1.366 . S
C1072 C1073 1.414 . S
C1072 C1075 1.499 . S
C1073 H1047 0.950 . S
C1073 C1072 1.414 . S
C1073 C1074 1.374 . S
C1074 H1048 0.950 . S
C1074 C1070 1.385 . S
C1074 C1073 1.374 . S
C1075 C1072 1.499 . S
C1075 C1076 1.373 . S
C1075 C1077 1.389 . S
C1076 H1049 0.950 . S
C1076 C1062 1.377 . S
C1076 C1075 1.373 . S
C1077 C1061 1.377 . S
C1077 C1075 1.389 . S
C1077 C1078 1.524 . S
C1078 C1077 1.524 . S
C1078 C1079 1.397 . S
C1078 C1083 1.363 . S
C1079 H1050 0.950 . S
C1079 C1078 1.397 . S
C1079 C1080 1.334 . S
C1080 H1051 0.950 . S
C1080 C1079 1.334 . S
C1080 C1081 1.287 . S
C1081 C1080 1.287 . S
C1081 C1082 1.524 . S
C1081 H1084 0.999 . S
C1082 H1052 0.950 . S
C1082 C1081 1.524 . S
C1082 C1083 1.415 . S
C1083 H1053 0.950 . S
C1083 C1078 1.363 . S
C1083 C1082 1.415 . S
H1084 C1081 0.999 . S
H1085 C1066 0.913 . S
H1086 C1104 0.951 . S
H1087 C1106 0.951 . S
H1088 C1108 0.950 . S
H1089 C1109 0.950 . S
H1090 C1111 0.950 . S
H1091 C1114 0.950 . S
H1092 C1115 0.950 . S
H1093 C1117 0.950 . S
H1094 C1118 0.950 . S
H1095 C1119 0.951 . S
H1096 C1121 0.951 . S
H1097 C1123 0.950 1_565 S
H1098 C1124 0.950 1_565 S
H1099 C1126 0.950 . S
H1100 C1129 0.950 . S
H1101 C1130 0.950 . S
H1102 C1132 0.950 . S
H1103 C1133 0.950 . S
C1104 H1086 0.951 . S
C1104 C1105 1.366 1_565 S
C1104 C1106 1.388 . S
C1105 C1104 1.366 1_545 S
C1105 C1109 1.385 . S
C1106 H1087 0.951 . S
C1106 C1104 1.388 . S
C1106 C1107 1.366 1_565 S
C1107 C1106 1.366 1_545 S
C1107 C1108 1.414 . S
C1107 C1110 1.499 . S
C1108 H1088 0.950 . S
C1108 C1107 1.414 . S
C1108 C1109 1.374 . S
C1109 H1089 0.950 . S
C1109 C1105 1.385 . S
C1109 C1108 1.374 . S
C1110 C1107 1.499 . S
C1110 C1111 1.373 . S
C1110 C1112 1.389 1_545 S
C1111 H1090 0.950 . S
C1111 C1110 1.373 . S
C1111 C1127 1.377 . S
C1112 C1110 1.389 1_565 S
C1112 C1113 1.524 . S
C1112 C1126 1.377 . S
C1113 C1112 1.524 . S
C1113 C1114 1.397 . S
C1113 C1118 1.363 . S
C1114 H1091 0.950 . S
C1114 C1113 1.397 . S
C1114 C1115 1.334 . S
C1115 H1092 0.950 . S
C1115 C1114 1.334 . S
C1115 C1116 1.287 . S
C1116 C1115 1.287 . S
C1116 C1117 1.524 . S
C1116 H1135 0.913 . S
C1117 H1093 0.950 . S
C1117 C1116 1.524 . S
C1117 C1118 1.415 . S
C1118 H1094 0.950 . S
C1118 C1113 1.363 . S
C1118 C1117 1.415 . S
C1119 H1095 0.951 . S
C1119 C1120 1.366 . S
C1119 C1121 1.388 . S
C1120 C1119 1.366 . S
C1120 C1124 1.385 . S
C1121 H1096 0.951 . S
C1121 C1119 1.388 . S
C1121 C1122 1.366 . S
C1122 C1121 1.366 . S
C1122 C1123 1.414 . S
C1122 C1125 1.499 . S
C1123 H1097 0.950 1_545 S
C1123 C1122 1.414 . S
C1123 C1124 1.374 . S
C1124 H1098 0.950 1_545 S
C1124 C1120 1.385 . S
C1124 C1123 1.374 . S
C1125 C1122 1.499 . S
C1125 C1126 1.373 1_545 S
C1125 C1127 1.389 . S
C1126 H1099 0.950 . S
C1126 C1112 1.377 . S
C1126 C1125 1.373 1_565 S
C1127 C1111 1.377 . S
C1127 C1125 1.389 . S
C1127 C1128 1.524 . S
C1128 C1127 1.524 . S
C1128 C1129 1.397 . S
C1128 C1133 1.363 . S
C1129 H1100 0.950 . S
C1129 C1128 1.397 . S
C1129 C1130 1.334 . S
C1130 H1101 0.950 . S
C1130 C1129 1.334 . S
C1130 C1131 1.287 . S
C1131 C1130 1.287 . S
C1131 C1132 1.524 . S
C1131 H1134 0.999 . S
C1132 H1102 0.950 . S
C1132 C1131 1.524 . S
C1132 C1133 1.415 . S
C1133 H1103 0.950 . S
C1133 C1128 1.363 . S
C1133 C1132 1.415 . S
H1134 C1131 0.999 . S
H1135 C1116 0.913 . S
H1136 C1154 0.951 . S
H1137 C1156 0.951 . S
H1138 C1158 0.950 . S
H1139 C1159 0.950 . S
H1140 C1161 0.950 . S
H1141 C1164 0.950 . S
H1142 C1165 0.950 . S
H1143 C1167 0.950 . S
H1144 C1168 0.950 . S
H1145 C1169 0.951 . S
H1146 C1171 0.951 . S
H1147 C1173 0.950 . S
H1148 C1174 0.950 . S
H1149 C1176 0.950 . S
H1150 C1179 0.950 . S
H1151 C1180 0.950 . S
H1152 C1182 0.950 . S
H1153 C1183 0.950 . S
C1154 H1136 0.951 . S
C1154 C1155 1.366 . S
C1154 C1156 1.388 . S
C1155 C1154 1.366 . S
C1155 C1159 1.385 . S
C1156 H1137 0.951 . S
C1156 C1154 1.388 . S
C1156 C1157 1.366 . S
C1157 C1156 1.366 . S
C1157 C1158 1.414 . S
C1157 C1160 1.499 . S
C1158 H1138 0.950 . S
C1158 C1157 1.414 . S
C1158 C1159 1.374 . S
C1159 H1139 0.950 . S
C1159 C1155 1.385 . S
C1159 C1158 1.374 . S
C1160 C1157 1.499 . S
C1160 C1161 1.373 . S
C1160 C1162 1.389 . S
C1161 H1140 0.950 . S
C1161 C1160 1.373 . S
C1161 C1177 1.377 . S
C1162 C1160 1.389 . S
C1162 C1163 1.524 . S
C1162 C1176 1.377 . S
C1163 C1162 1.524 . S
C1163 C1164 1.397 . S
C1163 C1168 1.363 . S
C1164 H1141 0.950 . S
C1164 C1163 1.397 . S
C1164 C1165 1.334 . S
C1165 H1142 0.950 . S
C1165 C1164 1.334 . S
C1165 C1166 1.287 . S
C1166 C1165 1.287 . S
C1166 C1167 1.524 . S
C1166 H1185 0.913 . S
C1167 H1143 0.950 . S
C1167 C1166 1.524 . S
C1167 C1168 1.415 . S
C1168 H1144 0.950 . S
C1168 C1163 1.363 . S
C1168 C1167 1.415 . S
C1169 H1145 0.951 . S
C1169 C1170 1.366 . S
C1169 C1171 1.388 1_554 S
C1170 C1169 1.366 . S
C1170 C1174 1.385 . S
C1171 H1146 0.951 . S
C1171 C1169 1.388 1_556 S
C1171 C1172 1.366 . S
C1172 C1171 1.366 . S
C1172 C1173 1.414 . S
C1172 C1175 1.499 . S
C1173 H1147 0.950 . S
C1173 C1172 1.414 . S
C1173 C1174 1.374 1_556 S
C1174 H1148 0.950 . S
C1174 C1170 1.385 . S
C1174 C1173 1.374 1_554 S
C1175 C1172 1.499 . S
C1175 C1176 1.373 . S
C1175 C1177 1.389 . S
C1176 H1149 0.950 . S
C1176 C1162 1.377 . S
C1176 C1175 1.373 . S
C1177 C1161 1.377 . S
C1177 C1175 1.389 . S
C1177 C1178 1.524 . S
C1178 C1177 1.524 . S
C1178 C1179 1.397 . S
C1178 C1183 1.363 . S
C1179 H1150 0.950 . S
C1179 C1178 1.397 . S
C1179 C1180 1.334 . S
C1180 H1151 0.950 . S
C1180 C1179 1.334 . S
C1180 C1181 1.287 . S
C1181 C1180 1.287 . S
C1181 C1182 1.524 . S
C1181 H1184 0.999 . S
C1182 H1152 0.950 . S
C1182 C1181 1.524 . S
C1182 C1183 1.415 . S
C1183 H1153 0.950 . S
C1183 C1178 1.363 . S
C1183 C1182 1.415 . S
H1184 C1181 0.999 . S
H1185 C1166 0.913 . S
H1186 C1204 0.951 . S
H1187 C1206 0.951 . S
H1188 C1208 0.950 . S
H1189 C1209 0.950 . S
H1190 C1211 0.950 . S
H1191 C1214 0.950 1_455 S
H1192 C1215 0.950 . S
H1193 C1217 0.950 . S
H1194 C1218 0.950 . S
H1195 C1219 0.951 . S
H1196 C1221 0.951 . S
H1197 C1223 0.950 . S
H1198 C1224 0.950 . S
H1199 C1226 0.950 . S
H1200 C1229 0.950 . S
H1201 C1230 0.950 . S
H1202 C1232 0.950 . S
H1203 C1233 0.950 . S
C1204 H1186 0.951 . S
C1204 C1205 1.366 1_655 S
C1204 C1206 1.388 . S
C1205 C1204 1.366 1_455 S
C1205 C1209 1.385 . S
C1206 H1187 0.951 . S
C1206 C1204 1.388 . S
C1206 C1207 1.366 1_655 S
C1207 C1206 1.366 1_455 S
C1207 C1208 1.414 . S
C1207 C1210 1.499 . S
C1208 H1188 0.950 . S
C1208 C1207 1.414 . S
C1208 C1209 1.374 . S
C1209 H1189 0.950 . S
C1209 C1205 1.385 . S
C1209 C1208 1.374 . S
C1210 C1207 1.499 . S
C1210 C1211 1.373 . S
C1210 C1212 1.389 1_455 S
C1211 H1190 0.950 . S
C1211 C1210 1.373 . S
C1211 C1227 1.377 . S
C1212 C1210 1.389 1_655 S
C1212 C1213 1.524 . S
C1212 C1226 1.377 . S
C1213 C1212 1.524 . S
C1213 C1214 1.397 . S
C1213 C1218 1.363 . S
C1214 H1191 0.950 1_655 S
C1214 C1213 1.397 . S
C1214 C1215 1.334 . S
C1215 H1192 0.950 . S
C1215 C1214 1.334 . S
C1215 C1216 1.287 . S
C1216 C1215 1.287 . S
C1216 C1217 1.524 . S
C1216 H1235 0.913 . S
C1217 H1193 0.950 . S
C1217 C1216 1.524 . S
C1217 C1218 1.415 . S
C1218 H1194 0.950 . S
C1218 C1213 1.363 . S
C1218 C1217 1.415 . S
C1219 H1195 0.951 . S
C1219 C1220 1.366 . S
C1219 C1221 1.388 . S
C1220 C1219 1.366 . S
C1220 C1224 1.385 1_455 S
C1221 H1196 0.951 . S
C1221 C1219 1.388 . S
C1221 C1222 1.366 . S
C1222 C1221 1.366 . S
C1222 C1223 1.414 1_455 S
C1222 C1225 1.499 . S
C1223 H1197 0.950 . S
C1223 C1222 1.414 1_655 S
C1223 C1224 1.374 . S
C1224 H1198 0.950 . S
C1224 C1220 1.385 1_655 S
C1224 C1223 1.374 . S
C1225 C1222 1.499 . S
C1225 C1226 1.373 1_455 S
C1225 C1227 1.389 . S
C1226 H1199 0.950 . S
C1226 C1212 1.377 . S
C1226 C1225 1.373 1_655 S
C1227 C1211 1.377 . S
C1227 C1225 1.389 . S
C1227 C1228 1.524 . S
C1228 C1227 1.524 . S
C1228 C1229 1.397 . S
C1228 C1233 1.363 . S
C1229 H1200 0.950 . S
C1229 C1228 1.397 . S
C1229 C1230 1.334 . S
C1230 H1201 0.950 . S
C1230 C1229 1.334 . S
C1230 C1231 1.287 . S
C1231 C1230 1.287 . S
C1231 C1232 1.524 . S
C1231 H1234 0.999 . S
C1232 H1202 0.950 . S
C1232 C1231 1.524 . S
C1232 C1233 1.415 . S
C1233 H1203 0.950 . S
C1233 C1228 1.363 . S
C1233 C1232 1.415 . S
H1234 C1231 0.999 . S
H1235 C1216 0.913 . S
C355 C12 2.860 . S
C370 C325 2.797 . S
C405 C52 2.849 . S
C420 C253 2.790 . S
C455 C111 2.914 . S
C470 C289 2.849 . S
C505 C31 3.077 . S
C520 C301 3.036 . S
C570 C229 3.044 . S
C555 C71 3.088 . S
C620 C265 2.978 . S
C605 C92 3.017 . S
C655 C48 0.398 . S
C670 C181 0.376 . S
C705 C109 0.426 . S
C720 C193 0.339 . S
C755 C29 0.404 . S
C770 C121 0.315 . S
C820 C157 0.226 . S
C805 C69 0.339 . S
C870 C217 0.328 . S
C855 C88 0.247 . S
C905 C8 0.253 . S
C920 C145 0.311 . S
C970 C223 1.095 . S
C955 C17 1.084 . S
C1005 C57 1.083 . S
C1020 C151 1.093 . S
C1055 C97 1.087 . S
C1070 C187 1.107 . S
C1120 C295 1.770 . S
C1105 C42 1.712 . S
C1170 C331 1.765 . S
C1155 C82 1.720 . S
C1205 C2 1.725 . S
C1220 C259 1.769 . S
