# Generated by pormake.
# Topology rtl, (3,6)-cn, num edge types: 1
# Building blocks:
#     Node 0, Type 0, BuildingBlock: MIDCAF_clean_linker_0, # of connection points: 3
#     Node 1, Type 0, BuildingBlock: MIDCAF_clean_linker_0, # of connection points: 3
#     Node 2, Type 0, BuildingBlock: MIDCAF_clean_linker_0, # of connection points: 3
#     Node 3, Type 0, BuildingBlock: MIDCAF_clean_linker_0, # of connection points: 3
#     Node 4, Type 1, BuildingBlock: LEVNOQ01_clean_sbu_1, # of connection points: 6
#     Node 5, Type 1, BuildingBlock: LEVNOQ01_clean_sbu_1, # of connection points: 6
#     Edge 6, Type (0, 1), BuildingBlock: ZUJKAS_clean_linker_0, # of connection points: 2
#     Edge 7, Type (0, 1), BuildingBlock: ZUJKAS_clean_linker_0, # of connection points: 2
#     Edge 8, Type (0, 1), BuildingBlock: ZUJKAS_clean_linker_0, # of connection points: 2
#     Edge 9, Type (0, 1), BuildingBlock: ZUJKAS_clean_linker_0, # of connection points: 2
#     Edge 10, Type (0, 1), BuildingBlock: ZUJKAS_clean_linker_0, # of connection points: 2
#     Edge 11, Type (0, 1), BuildingBlock: ZUJKAS_clean_linker_0, # of connection points: 2
#     Edge 12, Type (0, 1), BuildingBlock: ZUJKAS_clean_linker_0, # of connection points: 2
#     Edge 13, Type (0, 1), BuildingBlock: ZUJKAS_clean_linker_0, # of connection points: 2
#     Edge 14, Type (0, 1), BuildingBlock: ZUJKAS_clean_linker_0, # of connection points: 2
#     Edge 15, Type (0, 1), BuildingBlock: ZUJKAS_clean_linker_0, # of connection points: 2
#     Edge 16, Type (0, 1), BuildingBlock: ZUJKAS_clean_linker_0, # of connection points: 2
#     Edge 17, Type (0, 1), BuildingBlock: ZUJKAS_clean_linker_0, # of connection points: 2
# Relax obj value: 0.026
# Max RMSD: 0.061
# Mean RMSD: 0.047
data_MOF--net-rtl--node1-LEVNOQ01_clean_sbu_1--node2-MIDCAF_clean_linker_0--edge1-ZUJKAS_clean_linker_0
_symmetry_space_group_name_H-M    P1
_symmetry_Int_Tables_number       1
_symmetry_cell_setting            triclinic
loop_
_symmetry_equiv_pos_as_xyz
'x, y, z'
_cell_length_a     46.27457
_cell_length_b     52.630712
_cell_length_c     36.947469
_cell_angle_alpha  89.846993
_cell_angle_beta   97.938198
_cell_angle_gamma 89.856095
loop_
_atom_site_label
_atom_site_type_symbol
_atom_site_fract_x
_atom_site_fract_y
_atom_site_fract_z
_atom_type_partial_charge
C0 C 0.21199 0.93685 0.18055 0.0
C1 C 0.22355 0.92883 0.21593 0.0
C2 C 0.24487 0.9096 0.21992 0.0
C3 C 0.25396 0.89822 0.18929 0.0
H4 H 0.29691 0.8351 0.15979 0.0
H5 H 0.32839 0.79786 0.16763 0.0
H6 H 0.33935 0.80146 0.05343 0.0
H7 H 0.307 0.83813 0.04527 0.0
H8 H 0.2623 0.87264 0.99196 0.0
H9 H 0.2376 0.88193 0.9307 0.0
H10 H 0.17243 0.92542 0.97679 0.0
H11 H 0.19697 0.91615 0.03815 0.0
H12 H 0.2113 0.93179 0.12299 0.0
H13 H 0.19532 0.95146 0.17655 0.0
H14 H 0.25449 0.90323 0.24682 0.0
H15 H 0.27021 0.88328 0.19357 0.0
N16 N 0.27054 0.87356 0.12582 0.0
N17 N 0.26605 0.86804 0.06239 0.0
N18 N 0.23831 0.89928 0.08708 0.0
C19 C 0.27841 0.86114 0.09651 0.0
C20 C 0.24593 0.88705 0.05741 0.0
C21 C 0.25066 0.89275 0.1214 0.0
C22 C 0.29921 0.83953 0.10181 0.0
C23 C 0.30616 0.82805 0.13636 0.0
C24 C 0.32438 0.80672 0.14093 0.0
C25 C 0.33633 0.79647 0.11114 0.0
C26 C 0.33006 0.80845 0.07684 0.0
C27 C 0.3116 0.82961 0.07218 0.0
C28 C 0.23162 0.89359 0.02009 0.0
C29 C 0.24274 0.88424 0.98913 0.0
C30 C 0.22869 0.88966 0.95397 0.0
C31 C 0.20303 0.90431 0.94897 0.0
C32 C 0.192 0.91383 0.97983 0.0
C33 C 0.20621 0.90865 0.01499 0.0
C34 C 0.24191 0.90576 0.15383 0.0
C35 C 0.22104 0.92543 0.14983 0.0
C36 C 0.68246 0.61371 0.47094 0.0
C37 C 0.68585 0.62968 0.44123 0.0
C38 C 0.70327 0.6515 0.44763 0.0
C39 C 0.71678 0.65728 0.48285 0.0
H40 H 0.77199 0.70847 0.5394 0.0
H41 H 0.80311 0.74568 0.54973 0.0
H42 H 0.81864 0.72849 0.66514 0.0
H43 H 0.78783 0.69101 0.65493 0.0
H44 H 0.75388 0.64693 0.68626 0.0
H45 H 0.7381 0.62593 0.73885 0.0
H46 H 0.67689 0.58105 0.6669 0.0
H47 H 0.693 0.60165 0.61414 0.0
H48 H 0.69268 0.60678 0.52832 0.0
H49 H 0.66966 0.5965 0.46696 0.0
H50 H 0.70608 0.66439 0.4255 0.0
H51 H 0.72982 0.67437 0.4867 0.0
N52 N 0.7454 0.66798 0.55589 0.0
N53 N 0.75113 0.66045 0.61902 0.0
N54 N 0.72057 0.63425 0.57937 0.0
C55 C 0.75768 0.67434 0.59021 0.0
C56 C 0.73262 0.64038 0.6139 0.0
C57 C 0.7269 0.64792 0.55019 0.0
C58 C 0.77727 0.69668 0.59632 0.0
C59 C 0.78206 0.71251 0.567 0.0
C60 C 0.79977 0.73398 0.57294 0.0
C61 C 0.8132 0.74014 0.60829 0.0
C62 C 0.80877 0.72417 0.63754 0.0
C63 C 0.79096 0.70273 0.63166 0.0
C64 C 0.72455 0.6262 0.64583 0.0
C65 C 0.73722 0.63244 0.68151 0.0
C66 C 0.7281 0.62046 0.71176 0.0
C67 C 0.70608 0.60194 0.70713 0.0
C68 C 0.69411 0.59505 0.67146 0.0
C69 C 0.70324 0.60702 0.64116 0.0
C70 C 0.71313 0.64145 0.51262 0.0
C71 C 0.69586 0.61954 0.50618 0.0
C72 C 0.80418 0.09471 0.90583 0.0
C73 C 0.79729 0.10452 0.87024 0.0
C74 C 0.78018 0.12669 0.86501 0.0
C75 C 0.77084 0.13911 0.89478 0.0
H76 H 0.72141 0.19933 0.92191 0.0
H77 H 0.6917 0.23769 0.91306 0.0
H78 H 0.6961 0.24564 0.03001 0.0
H79 H 0.72624 0.20764 0.03904 0.0
H80 H 0.76613 0.17088 0.09186 0.0
H81 H 0.78746 0.15769 0.15312 0.0
H82 H 0.83209 0.09604 0.10705 0.0
H83 H 0.81048 0.10877 0.04608 0.0
H84 H 0.80101 0.09913 0.96259 0.0
H85 H 0.81687 0.07742 0.91078 0.0
H86 H 0.77473 0.13491 0.83803 0.0
H87 H 0.75819 0.15641 0.88979 0.0
N88 N 0.75241 0.16431 0.95759 0.0
N89 N 0.75626 0.16968 0.0211 0.0
N90 N 0.78074 0.13607 0.9969 0.0
C91 C 0.74532 0.17745 0.98678 0.0
C92 C 0.77399 0.14899 0.02641 0.0
C93 C 0.77006 0.14355 0.96242 0.0
C94 C 0.72642 0.20037 0.98123 0.0
C95 C 0.71605 0.2092 0.9458 0.0
C96 C 0.69885 0.23115 0.94066 0.0
C97 C 0.69163 0.24482 0.97081 0.0
C98 C 0.70168 0.23581 0.00619 0.0
C99 C 0.71885 0.21389 0.01135 0.0
C100 C 0.7865 0.1409 0.06388 0.0
C101 C 0.7804 0.15445 0.09475 0.0
C102 C 0.79276 0.14699 0.12991 0.0
C103 C 0.81143 0.12578 0.13502 0.0
C104 C 0.81744 0.11222 0.10417 0.0
C105 C 0.80514 0.11966 0.0691 0.0
C106 C 0.77845 0.12967 0.93051 0.0
C107 C 0.79495 0.10714 0.93557 0.0
C108 C 0.31335 0.40921 0.59939 0.0
C109 C 0.30143 0.40134 0.63053 0.0
C110 C 0.27486 0.38813 0.62604 0.0
C111 C 0.26068 0.38255 0.59107 0.0
H112 H 0.20698 0.32801 0.53715 0.0
H113 H 0.17485 0.29142 0.52878 0.0
H114 H 0.16241 0.304 0.41207 0.0
H115 H 0.19508 0.34036 0.42022 0.0
H116 H 0.23106 0.38158 0.38694 0.0
H117 H 0.24607 0.40169 0.33326 0.0
H118 H 0.30631 0.44911 0.40253 0.0
H119 H 0.29108 0.42928 0.45651 0.0
H120 H 0.30881 0.41024 0.54099 0.0
H121 H 0.33368 0.41964 0.60211 0.0
H122 H 0.26526 0.38175 0.6496 0.0
H123 H 0.24034 0.37214 0.58856 0.0
N124 N 0.23775 0.36515 0.51822 0.0
N125 N 0.23187 0.37138 0.45482 0.0
N126 N 0.26486 0.39655 0.49294 0.0
C127 C 0.22469 0.35864 0.48431 0.0
C128 C 0.25183 0.39041 0.45885 0.0
C129 C 0.25784 0.38406 0.52278 0.0
C130 C 0.20379 0.33716 0.47937 0.0
C131 C 0.19733 0.32312 0.50967 0.0
C132 C 0.17873 0.30217 0.50489 0.0
C133 C 0.16604 0.29476 0.46973 0.0
C134 C 0.17212 0.30901 0.43947 0.0
C135 C 0.19074 0.32997 0.44423 0.0
C136 C 0.25999 0.40363 0.4262 0.0
C137 C 0.24739 0.39639 0.3909 0.0
C138 C 0.25606 0.40785 0.36003 0.0
C139 C 0.27749 0.42688 0.36363 0.0
C140 C 0.28955 0.43465 0.39885 0.0
C141 C 0.28093 0.42314 0.4298 0.0
C142 C 0.27258 0.39041 0.55984 0.0
C143 C 0.29898 0.40397 0.56441 0.0
O144 O -0.00255 0.03491 0.62224 0.0
Mg145 Mg 0.03175 0.03806 0.59024 0.0
O146 O 0.96869 0.01891 0.57566 0.0
Mg147 Mg 0.0046 0.00772 0.53977 0.0
O148 O 0.02335 0.04987 0.53703 0.0
O149 O 0.04107 0.07485 0.58431 0.0
O150 O 0.0414 0.99707 0.50424 0.0
O151 O 0.97326 0.0222 0.48836 0.0
Mg152 Mg 0.98766 0.96282 0.48538 0.0
O153 O 0.9837 0.96785 0.53911 0.0
O154 O 0.03139 0.96024 0.47664 0.0
O155 O 0.96064 0.98892 0.45303 0.0
O156 O 0.96916 0.93262 0.5083 0.0
C157 C 0.06028 0.995 0.60807 0.0
C158 C 0.97239 0.02767 0.6081 0.0
C159 C 0.03363 0.07163 0.54971 0.0
C160 C 0.0486 0.97865 0.48482 0.0
C161 C 0.959 0.01249 0.45959 0.0
C162 C 0.97202 0.94543 0.53829 0.0
O163 O 0.06985 0.0172 0.60556 0.0
O164 O 0.03529 0.98949 0.5907 0.0
O165 O 0.5319 0.49707 0.12598 0.0
Mg166 Mg 0.50921 0.4716 0.0888 0.0
O167 O 0.52338 0.5296 0.08813 0.0
Mg168 Mg 0.4925 0.51296 0.03785 0.0
O169 O 0.51872 0.47454 0.03644 0.0
O170 O 0.53352 0.44241 0.07499 0.0
O171 O 0.46178 0.49528 0.98805 0.0
O172 O 0.52574 0.52749 0.99975 0.0
Mg173 Mg 0.46271 0.55314 0.98297 0.0
O174 O 0.4681 0.55147 0.03857 0.0
O175 O 0.43423 0.52526 0.95869 0.0
O176 O 0.5033 0.55742 0.96387 0.0
O177 O 0.44488 0.5833 0.00634 0.0
C178 C 0.44955 0.48047 0.09102 0.0
C179 C 0.53512 0.52033 0.11869 0.0
C180 C 0.53229 0.45295 0.04325 0.0
C181 C 0.44087 0.50207 0.96362 0.0
C182 C 0.52582 0.54415 0.97449 0.0
C183 C 0.45428 0.57303 0.0375 0.0
O184 O 0.46669 0.46172 0.09577 0.0
O185 O 0.45699 0.50024 0.07453 0.0
H186 H 0.1244 0.27971 0.51106 0.0
H187 H 0.0964 0.2403 0.5061 0.0
H188 H 0.13595 0.21892 0.41155 0.0
H189 H 0.16493 0.25794 0.41711 0.0
H190 H 0.05662 0.21967 0.44866 0.0
H191 H 0.15581 0.15914 0.48211 0.0
H192 H 0.15665 0.19307 0.48891 0.0
H193 H 0.155 0.18026 0.44369 0.0
C194 C 0.12727 0.2666 0.48929 0.0
C195 C 0.14719 0.27184 0.46477 0.0
C196 C 0.11104 0.24419 0.48628 0.0
C197 C 0.11438 0.22655 0.45874 0.0
C198 C 0.13336 0.23213 0.43331 0.0
H199 H 0.04957 0.07055 0.48079 0.0
H200 H 0.06488 0.10731 0.44662 0.0
C201 C 0.14969 0.25455 0.43635 0.0
C202 C 0.09897 0.20188 0.45826 0.0
H203 H 0.11051 0.13905 0.47856 0.0
C204 C 0.06837 0.20195 0.45451 0.0
C205 C 0.11434 0.17873 0.46555 0.0
C206 C 0.14726 0.17762 0.47055 0.0
C207 C 0.05281 0.17972 0.45993 0.0
C208 C 0.06829 0.15699 0.46979 0.0
C209 C 0.09871 0.15651 0.47086 0.0
C210 C 0.05432 0.13516 0.48581 0.0
C211 C 0.01999 0.18099 0.45655 0.0
C212 C 0.04302 0.13874 0.51872 0.0
C213 C 0.03473 0.11798 0.53825 0.0
C214 C 0.03741 0.09317 0.52523 0.0
C215 C 0.04708 0.08954 0.4912 0.0
C216 C 0.05586 0.11046 0.47178 0.0
H217 H 0.01113 0.19603 0.43689 0.0
H218 H 0.00992 0.16253 0.44754 0.0
H219 H 0.01353 0.18578 0.48355 0.0
H220 H 0.04222 0.15752 0.53048 0.0
H221 H 0.0273 0.12129 0.5644 0.0
H222 H 0.37674 0.78194 0.16952 0.0
H223 H 0.40532 0.74248 0.17644 0.0
H224 H 0.3659 0.7185 0.06955 0.0
H225 H 0.33654 0.75718 0.0628 0.0
H226 H 0.38025 0.68786 0.1662 0.0
H227 H 0.45915 0.71615 0.07324 0.0
H228 H 0.43901 0.739 0.09643 0.0
H229 H 0.42156 0.72294 0.05647 0.0
C230 C 0.37392 0.76818 0.14759 0.0
C231 C 0.35439 0.77289 0.11547 0.0
C232 C 0.39039 0.74572 0.15158 0.0
C233 C 0.38783 0.72779 0.12338 0.0
C234 C 0.36838 0.73233 0.09143 0.0
H235 H 0.40239 0.58217 0.05953 0.0
H236 H 0.3914 0.61856 0.09589 0.0
C237 C 0.35178 0.75457 0.08753 0.0
C238 C 0.40513 0.70404 0.12676 0.0
H239 H 0.45467 0.67169 0.08437 0.0
C240 C 0.39705 0.6844 0.14903 0.0
C241 C 0.42734 0.69978 0.10484 0.0
C242 C 0.43754 0.72063 0.08158 0.0
C243 C 0.40902 0.6599 0.14761 0.0
C244 C 0.42929 0.65504 0.12307 0.0
C245 C 0.43912 0.67532 0.10321 0.0
C246 C 0.43658 0.62888 0.11232 0.0
C247 C 0.39897 0.63925 0.17127 0.0
C248 C 0.46571 0.62175 0.11074 0.0
C249 C 0.47198 0.60068 0.09003 0.0
C250 C 0.44918 0.58677 0.07048 0.0
C251 C 0.42028 0.59238 0.07504 0.0
C252 C 0.41402 0.61322 0.09588 0.0
H253 H 0.39338 0.64719 0.19727 0.0
H254 H 0.37897 0.63035 0.1567 0.0
H255 H 0.41589 0.62429 0.17766 0.0
H256 H 0.48345 0.6337 0.12292 0.0
H257 H 0.4944 0.59698 0.08618 0.0
H258 H 0.80216 0.78745 0.57889 0.0
H259 H 0.83361 0.82487 0.58649 0.0
H260 H 0.89694 0.78288 0.66 0.0
H261 H 0.86585 0.74509 0.65195 0.0
H262 H 0.85894 0.85183 0.65333 0.0
H263 H 0.94136 0.80802 0.57574 0.0
H264 H 0.90483 0.79563 0.57359 0.0
H265 H 0.93089 0.79037 0.61358 0.0
C266 C 0.82282 0.78612 0.59659 0.0
C267 C 0.83165 0.76321 0.61451 0.0
C268 C 0.84061 0.80759 0.60119 0.0
C269 C 0.86763 0.80656 0.62363 0.0
C270 C 0.87622 0.78398 0.64239 0.0
H271 H 0.00059 0.91823 0.59474 0.0
H272 H 0.97752 0.88635 0.62993 0.0
C273 C 0.85838 0.76247 0.63789 0.0
C274 C 0.88733 0.82879 0.62538 0.0
H275 H 0.94792 0.85056 0.59241 0.0
C276 C 0.87868 0.85153 0.64056 0.0
C277 C 0.91318 0.82823 0.60904 0.0
C278 C 0.9232 0.80436 0.59183 0.0
C279 C 0.89465 0.87404 0.63852 0.0
C280 C 0.91948 0.87388 0.62003 0.0
C281 C 0.92899 0.85075 0.60675 0.0
C282 C 0.93331 0.89761 0.60895 0.0
C283 C 0.88439 0.89784 0.65554 0.0
C284 C 0.91622 0.91544 0.5871 0.0
C285 C 0.9294 0.93379 0.56755 0.0
C286 C 0.95983 0.93455 0.56939 0.0
C287 C 0.97707 0.91833 0.59368 0.0
C288 C 0.96388 0.89999 0.61347 0.0
H289 H 0.87404 0.89319 0.68014 0.0
H290 H 0.90261 0.91129 0.66344 0.0
H291 H 0.86766 0.9074 0.63565 0.0
H292 H 0.89269 0.91369 0.58224 0.0
H293 H 0.91574 0.9457 0.54817 0.0
H294 H 0.70004 0.28906 0.00931 0.0
H295 H 0.67001 0.32744 0.00266 0.0
H296 H 0.61406 0.29335 0.91295 0.0
H297 H 0.64353 0.25442 0.92016 0.0
H298 H 0.65527 0.3602 0.94111 0.0
H299 H 0.55764 0.31374 0.98504 0.0
H300 H 0.59327 0.29908 0.99231 0.0
H301 H 0.57266 0.29964 0.94744 0.0
C302 C 0.68121 0.2896 0.98834 0.0
C303 C 0.674 0.26855 0.96554 0.0
C304 C 0.66425 0.31165 0.98433 0.0
C305 C 0.63967 0.31315 0.95754 0.0
C306 C 0.63275 0.29247 0.93408 0.0
H307 H 0.51059 0.43321 0.97665 0.0
H308 H 0.53568 0.40179 0.94257 0.0
C309 C 0.64975 0.27033 0.93807 0.0
C310 C 0.62099 0.33617 0.9555 0.0
H311 H 0.55597 0.35781 0.97713 0.0
C312 C 0.63334 0.35967 0.94832 0.0
C313 C 0.59226 0.3354 0.9645 0.0
C314 C 0.57808 0.31069 0.973 0.0
C315 C 0.61833 0.38255 0.9519 0.0
C316 C 0.59048 0.38188 0.96353 0.0
C317 C 0.57729 0.3583 0.9681 0.0
C318 C 0.57708 0.40482 0.97761 0.0
C319 C 0.6329 0.40725 0.94448 0.0
C320 C 0.59223 0.41742 0.00784 0.0
C321 C 0.57799 0.43508 0.02717 0.0
C322 C 0.54839 0.44064 0.01654 0.0
C323 C 0.53362 0.42954 0.9848 0.0
C324 C 0.54787 0.41152 0.96555 0.0
H325 H 0.6475 0.40477 0.92326 0.0
H326 H 0.61664 0.42232 0.93543 0.0
H327 H 0.64655 0.41366 0.96986 0.0
H328 H 0.61447 0.41215 0.01832 0.0
H329 H 0.58959 0.44315 0.05196 0.0
H330 H 0.21148 0.97872 0.22989 0.0
H331 H 0.19103 0.99567 0.28273 0.0
H332 H 0.1894 0.92004 0.32767 0.0
H333 H 0.20984 0.90309 0.27536 0.0
H334 H 0.139 0.98471 0.30346 0.0
H335 H 0.22514 0.95896 0.41622 0.0
H336 H 0.23119 0.95851 0.36897 0.0
H337 H 0.21432 0.93185 0.38842 0.0
C338 C 0.20693 0.96576 0.2512 0.0
C339 C 0.21247 0.93958 0.24856 0.0
C340 C 0.19542 0.97549 0.28145 0.0
C341 C 0.18932 0.95922 0.30961 0.0
C342 C 0.19486 0.93311 0.30697 0.0
H343 H 0.07884 0.93839 0.46369 0.0
H344 H 0.1178 0.93914 0.4255 0.0
C345 C 0.20645 0.92341 0.27692 0.0
C346 C 0.17474 0.96889 0.34019 0.0
H347 H 0.17634 0.96434 0.43269 0.0
C348 C 0.14751 0.98091 0.33181 0.0
C349 C 0.18593 0.96406 0.3772 0.0
C350 C 0.21591 0.95288 0.38824 0.0
C351 C 0.13019 0.98638 0.35916 0.0
C352 C 0.14052 0.97984 0.39582 0.0
C353 C 0.16849 0.9693 0.40452 0.0
C354 C 0.12081 0.98012 0.42411 0.0
C355 C 0.10009 0.99744 0.34841 0.0
C356 C 0.11046 0.00296 0.4372 0.0
C357 C 0.08821 0.00259 0.45941 0.0
C358 C 0.07592 0.97937 0.46833 0.0
C359 C 0.08772 0.95657 0.45702 0.0
C360 C 0.11004 0.95696 0.43528 0.0
H361 H 0.09444 -0.00051 0.31832 0.0
H362 H 0.08348 0.9852 0.35874 0.0
H363 H 0.09889 0.01647 0.36098 0.0
H364 H 0.11869 0.02102 0.42898 0.0
H365 H 0.07947 0.02045 0.46766 0.0
H366 H 0.69073 0.55245 0.71865 0.0
H367 H 0.66714 0.53579 0.76922 0.0
H368 H 0.67117 0.61005 0.81863 0.0
H369 H 0.69452 0.62685 0.76833 0.0
H370 H 0.68467 0.56943 0.86958 0.0
H371 H 0.58133 0.55395 0.77558 0.0
H372 H 0.6133 0.53843 0.76357 0.0
H373 H 0.61098 0.57249 0.76252 0.0
C374 C 0.68668 0.5652 0.74036 0.0
C375 C 0.69434 0.59103 0.7393 0.0
C376 C 0.67329 0.55563 0.76926 0.0
C377 C 0.66715 0.57176 0.79744 0.0
C378 C 0.67583 0.59726 0.79722 0.0
H379 H 0.53727 0.58409 0.93215 0.0
H380 H 0.57502 0.5873 0.8926 0.0
C381 C 0.68924 0.60682 0.76844 0.0
C382 C 0.64973 0.56285 0.82576 0.0
H383 H 0.58052 0.54599 0.83783 0.0
C384 C 0.66203 0.56388 0.8627 0.0
C385 C 0.62013 0.55583 0.81661 0.0
C386 C 0.60546 0.55524 0.77749 0.0
C387 C 0.64517 0.55883 0.89078 0.0
C388 C 0.61543 0.5526 0.88155 0.0
C389 C 0.60345 0.55063 0.84467 0.0
C390 C 0.59526 0.5513 0.90926 0.0
C391 C 0.65871 0.56142 0.9301 0.0
C392 C 0.59462 0.53018 0.93245 0.0
C393 C 0.57291 0.52825 0.95537 0.0
C394 C 0.55152 0.54735 0.95504 0.0
C395 C 0.55321 0.56892 0.93288 0.0
C396 C 0.5748 0.57083 0.91024 0.0
H397 H 0.68192 0.56738 0.93273 0.0
H398 H 0.64631 0.57558 0.94409 0.0
H399 H 0.65746 0.54296 0.9444 0.0
H400 H 0.61019 0.51484 0.93183 0.0
H401 H 0.5721 0.51136 0.972 0.0
H402 H 0.81868 0.07747 0.16217 0.0
H403 H 0.84356 0.06412 0.22182 0.0
H404 H 0.85946 0.14243 0.25201 0.0
H405 H 0.83485 0.15603 0.19203 0.0
H406 H 0.9027 0.07604 0.2492 0.0
H407 H 0.82493 0.11112 0.34026 0.0
H408 H 0.81444 0.10676 0.29175 0.0
H409 H 0.83636 0.13348 0.30818 0.0
C410 C 0.82747 0.09189 0.18143 0.0
C411 C 0.8249 0.11782 0.17223 0.0
C412 C 0.84153 0.08423 0.21558 0.0
C413 C 0.85314 0.10229 0.24139 0.0
C414 C 0.85021 0.12821 0.23268 0.0
H415 H 0.95883 0.06474 0.45323 0.0
H416 H 0.93365 0.09017 0.40229 0.0
C417 C 0.83614 0.13593 0.19841 0.0
C418 C 0.86966 0.09365 0.27647 0.0
H419 H 0.86723 0.08998 0.3684 0.0
C420 C 0.8951 0.07931 0.27529 0.0
C421 C 0.85978 0.09812 0.31047 0.0
C422 C 0.83229 0.11307 0.31301 0.0
C423 C 0.91047 0.06866 0.30707 0.0
C424 C 0.89995 0.07222 0.34083 0.0
C425 C 0.8752 0.0874 0.34239 0.0
C426 C 0.9127 0.05789 0.37367 0.0
C427 C 0.93748 0.05308 0.30425 0.0
C428 C 0.90847 0.0316 0.37475 0.0
C429 C 0.92265 0.01715 0.40349 0.0
C430 C 0.94141 0.02869 0.43193 0.0
C431 C 0.94454 0.05529 0.43175 0.0
C432 C 0.93024 0.06982 0.40273 0.0
H433 H 0.94646 0.05697 0.27841 0.0
H434 H 0.95465 0.05695 0.32768 0.0
H435 H 0.93193 0.03259 0.30489 0.0
H436 H 0.89477 0.02213 0.3527 0.0
H437 H 0.91945 0.99676 0.40287 0.0
H438 H 0.27827 0.4216 0.68812 0.0
H439 H 0.30388 0.43239 0.74859 0.0
H440 H 0.38425 0.40357 0.71742 0.0
H441 H 0.35887 0.39352 0.65655 0.0
H442 H 0.3332 0.40478 0.80275 0.0
H443 H 0.40882 0.47348 0.75115 0.0
H444 H 0.37797 0.4603 0.72223 0.0
H445 H 0.41114 0.44218 0.73269 0.0
C446 C 0.30139 0.41754 0.69426 0.0
C447 C 0.31668 0.40699 0.66759 0.0
C448 C 0.316 0.42369 0.72878 0.0
C449 C 0.34612 0.41924 0.73735 0.0
C450 C 0.3612 0.40786 0.71112 0.0
H451 H 0.4631 0.45871 0.93725 0.0
H452 H 0.44054 0.43355 0.88486 0.0
C453 C 0.34669 0.40205 0.67642 0.0
C454 C 0.36166 0.4269 0.77353 0.0
H455 H 0.41649 0.46474 0.81447 0.0
C456 C 0.35151 0.41779 0.80528 0.0
C457 C 0.38549 0.44399 0.77686 0.0
C458 C 0.39634 0.45577 0.74395 0.0
C459 C 0.36431 0.42558 0.84017 0.0
C460 C 0.38794 0.44267 0.84332 0.0
C461 C 0.39861 0.45128 0.81179 0.0
C462 C 0.39975 0.45432 0.87858 0.0
C463 C 0.35226 0.41593 0.8735 0.0
C464 C 0.38397 0.47385 0.8926 0.0
C465 C 0.39686 0.48836 0.92197 0.0
C466 C 0.42565 0.48342 0.93806 0.0
C467 C 0.44078 0.46274 0.92556 0.0
C468 C 0.428 0.44846 0.89563 0.0
H469 H 0.33733 0.39957 0.86705 0.0
H470 H 0.37031 0.41013 0.89495 0.0
H471 H 0.33996 0.43145 0.88485 0.0
H472 H 0.36226 0.47878 0.87953 0.0
H473 H 0.38472 0.50419 0.9311 0.0
H474 H 0.70747 0.63512 0.37605 0.0
H475 H 0.68347 0.62446 0.31483 0.0
H476 H 0.60787 0.59853 0.36058 0.0
H477 H 0.63104 0.61027 0.42151 0.0
H478 H 0.66681 0.57911 0.28896 0.0
H479 H 0.56968 0.6413 0.2771 0.0
H480 H 0.60044 0.6455 0.31234 0.0
H481 H 0.57263 0.62247 0.31795 0.0
C482 C 0.68548 0.62766 0.37303 0.0
C483 C 0.67118 0.62362 0.40379 0.0
C484 C 0.67185 0.62145 0.338 0.0
C485 C 0.64363 0.61115 0.33296 0.0
C486 C 0.62933 0.60709 0.36359 0.0
H487 H 0.56363 0.50483 0.18428 0.0
H488 H 0.59155 0.53013 0.23136 0.0
C489 C 0.64284 0.61341 0.39856 0.0
C490 C 0.62997 0.60276 0.29621 0.0
H491 H 0.5661 0.60446 0.2375 0.0
C492 C 0.645 0.58504 0.2774 0.0
C493 C 0.60175 0.61085 0.28061 0.0
C494 C 0.58535 0.6313 0.29789 0.0
C495 C 0.63187 0.57396 0.24477 0.0
C496 C 0.60269 0.58035 0.23097 0.0
C497 C 0.58834 0.59932 0.24836 0.0
C498 C 0.58581 0.5655 0.20125 0.0
C499 C 0.64917 0.55502 0.22585 0.0
C500 C 0.5724 0.57713 0.16891 0.0
C501 C 0.55599 0.56261 0.14163 0.0
C502 C 0.5526 0.53631 0.14657 0.0
C503 C 0.56587 0.52497 0.17925 0.0
C504 C 0.5821 0.53939 0.20625 0.0
H505 H 0.67296 0.55881 0.23184 0.0
H506 H 0.64527 0.53564 0.236 0.0
H507 H 0.64264 0.5554 0.19578 0.0
H508 H 0.57472 0.59736 0.16475 0.0
H509 H 0.54589 0.57195 0.11691 0.0
H510 H 0.7696 0.09704 0.80026 0.0
H511 H 0.79006 0.07809 0.74874 0.0
H512 H 0.87177 0.06567 0.81809 0.0
H513 H 0.85177 0.08472 0.86932 0.0
H514 H 0.83831 0.09439 0.71784 0.0
H515 H 0.8561 0.99639 0.7704 0.0
H516 H 0.83254 0.01867 0.78937 0.0
H517 H 0.87141 0.01946 0.80316 0.0
C518 C 0.79192 0.09024 0.80452 0.0
C519 C 0.80897 0.09223 0.83904 0.0
C520 C 0.80349 0.07929 0.77512 0.0
C521 C 0.83222 0.06997 0.77979 0.0
C522 C 0.84927 0.07203 0.81413 0.0
H523 H 0.9762 0.03545 0.68112 0.0
H524 H 0.93679 0.04263 0.71717 0.0
C525 C 0.83778 0.08295 0.84343 0.0
C526 C 0.84535 0.05957 0.74854 0.0
H527 H 0.88588 0.0096 0.72474 0.0
C528 C 0.84807 0.0756 0.71877 0.0
C529 C 0.85786 0.03497 0.7497 0.0
C530 C 0.85407 0.01629 0.77971 0.0
C531 C 0.86499 0.06844 0.69167 0.0
C532 C 0.87927 0.0446 0.69439 0.0
C533 C 0.87493 0.02791 0.7228 0.0
C534 C 0.90231 0.03841 0.67176 0.0
C535 C 0.86922 0.08706 0.66175 0.0
C536 C 0.89591 0.03321 0.63424 0.0
C537 C 0.91857 0.02895 0.61333 0.0
C538 C 0.94786 0.03008 0.62972 0.0
C539 C 0.95393 0.03466 0.6675 0.0
C540 C 0.93143 0.03868 0.68824 0.0
H541 H 0.85803 0.10547 0.66484 0.0
H542 H 0.89285 0.09068 0.66168 0.0
H543 H 0.86049 0.07883 0.63484 0.0
H544 H 0.87349 0.03276 0.62113 0.0
H545 H 0.91323 0.02542 0.58431 0.0
H546 H 0.28944 0.47671 0.34935 0.0
H547 H 0.3095 0.49366 0.29616 0.0
H548 H 0.31064 0.41812 0.25135 0.0
H549 H 0.29052 0.4012 0.30397 0.0
H550 H 0.36115 0.48263 0.27521 0.0
H551 H 0.2749 0.4573 0.16277 0.0
H552 H 0.26898 0.4567 0.21007 0.0
H553 H 0.2859 0.43008 0.19058 0.0
C554 C 0.29377 0.46379 0.32797 0.0
C555 C 0.28821 0.43763 0.33074 0.0
C556 C 0.30507 0.4735 0.29753 0.0
C557 C 0.31094 0.45726 0.26933 0.0
C558 C 0.30535 0.43118 0.27208 0.0
H559 H 0.42123 0.43913 0.1127 0.0
H560 H 0.38297 0.43846 0.152 0.0
C561 C 0.29395 0.42149 0.30231 0.0
C562 C 0.32544 0.46692 0.23863 0.0
H563 H 0.32355 0.46287 0.14607 0.0
C564 C 0.35259 0.47893 0.24689 0.0
C565 C 0.31418 0.46222 0.20165 0.0
C566 C 0.28423 0.45111 0.19075 0.0
C567 C 0.36973 0.48463 0.21944 0.0
C568 C 0.35931 0.47829 0.1828 0.0
C569 C 0.33147 0.46764 0.17423 0.0
C570 C 0.37871 0.47933 0.1542 0.0
C571 C 0.39967 0.49588 0.23001 0.0
C572 C 0.38814 0.50258 0.14131 0.0
C573 C 0.40996 0.50304 0.11853 0.0
C574 C 0.42279 0.48024 0.10876 0.0
C575 C 0.41195 0.45701 0.11999 0.0
C576 C 0.39003 0.45658 0.14236 0.0
H577 H 0.40553 0.49754 0.2601 0.0
H578 H 0.41639 0.484 0.2192 0.0
H579 H 0.40039 0.51511 0.21779 0.0
H580 H 0.37946 0.52033 0.15004 0.0
H581 H 0.4179 0.52122 0.11033 0.0
H582 H 0.14459 0.90089 0.92512 0.0
H583 H 0.11924 0.90961 0.86371 0.0
H584 H 0.20126 0.92877 0.8276 0.0
H585 H 0.22675 0.91956 0.88873 0.0
H586 H 0.11497 0.95281 0.82644 0.0
H587 H 0.16821 0.88168 0.74738 0.0
H588 H 0.17202 0.88111 0.79665 0.0
H589 H 0.19425 0.90199 0.77345 0.0
C590 C 0.15721 0.90689 0.90402 0.0
C591 C 0.18767 0.90946 0.91167 0.0
C592 C 0.14272 0.91176 0.86892 0.0
C593 C 0.15838 0.91934 0.84078 0.0
C594 C 0.18879 0.92215 0.84848 0.0
H595 H 0.1172 0.99691 0.63855 0.0
H596 H 0.13992 0.97442 0.69317 0.0
C597 C 0.20333 0.91704 0.88349 0.0
C598 C 0.14272 0.92581 0.80406 0.0
H599 H 0.14186 0.91519 0.71263 0.0
C600 C 0.12055 0.94426 0.80163 0.0
C601 C 0.14993 0.91461 0.77161 0.0
C602 C 0.17219 0.89356 0.77238 0.0
C603 C 0.1062 0.95249 0.76768 0.0
C604 C 0.1142 0.94198 0.73534 0.0
C605 C 0.13583 0.92315 0.7376 0.0
C606 C 0.10178 0.952 0.69911 0.0
C607 C 0.08328 0.97304 0.7664 0.0
C608 C 0.07317 0.94605 0.68371 0.0
C609 C 0.06015 0.95872 0.65222 0.0
C610 C 0.07552 0.97774 0.63611 0.0
C611 C 0.10477 0.98247 0.65047 0.0
C612 C 0.1178 0.96963 0.68162 0.0
H613 H 0.08102 0.98049 0.79398 0.0
H614 H 0.0888 0.98904 0.74896 0.0
H615 H 0.06188 0.96537 0.75398 0.0
H616 H 0.06054 0.93243 0.69695 0.0
H617 H 0.03757 0.95474 0.64187 0.0
loop_
_geom_bond_atom_site_label_1
_geom_bond_atom_site_label_2
_geom_bond_distance
_geom_bond_site_symmetry_2
_ccdc_geom_bond_type
C0 C1 1.384 . S
C0 H13 0.947 . S
C0 C35 1.382 . S
C1 C0 1.384 . S
C1 C2 1.378 . S
C2 C1 1.378 . S
C2 C3 1.378 . S
C2 H14 0.952 . S
C3 C2 1.378 . S
C3 H15 0.950 . S
C3 C34 1.383 . S
H4 C23 0.947 . S
H5 C24 0.946 . S
H6 C26 0.953 . S
H7 C27 0.945 . S
H8 C29 0.952 . S
H9 C30 0.949 . S
H10 C32 0.950 . S
H11 C33 0.948 . S
H12 C35 0.951 . S
H13 C0 0.947 . S
H14 C2 0.952 . S
H15 C3 0.950 . S
N16 C19 1.382 . S
N16 C21 1.363 . S
N17 C19 1.371 . S
N17 C20 1.372 . S
N18 C20 1.361 . S
N18 C21 1.377 . S
C19 N16 1.382 . S
C19 N17 1.371 . S
C19 C22 1.480 . S
C20 N17 1.372 . S
C20 N18 1.361 . S
C20 C28 1.457 . S
C21 N16 1.363 . S
C21 N18 1.377 . S
C21 C34 1.479 . S
C22 C19 1.480 . S
C22 C23 1.383 . S
C22 C27 1.385 . S
C23 H4 0.947 . S
C23 C22 1.383 . S
C23 C24 1.388 . S
C24 H5 0.946 . S
C24 C23 1.388 . S
C24 C25 1.384 . S
C25 C24 1.384 . S
C25 C26 1.377 . S
C26 H6 0.953 . S
C26 C25 1.377 . S
C26 C27 1.369 . S
C27 H7 0.945 . S
C27 C22 1.385 . S
C27 C26 1.369 . S
C28 C20 1.457 . S
C28 C29 1.372 1_554 S
C28 C33 1.364 . S
C29 H8 0.952 . S
C29 C28 1.372 1_556 S
C29 C30 1.389 . S
C30 H9 0.949 . S
C30 C29 1.389 . S
C30 C31 1.387 . S
C31 C30 1.387 . S
C31 C32 1.372 . S
C32 H10 0.950 . S
C32 C31 1.372 . S
C32 C33 1.379 1_556 S
C33 H11 0.948 . S
C33 C28 1.364 . S
C33 C32 1.379 1_554 S
C34 C3 1.383 . S
C34 C21 1.479 . S
C34 C35 1.398 . S
C35 C0 1.382 . S
C35 H12 0.951 . S
C35 C34 1.398 . S
C36 C37 1.384 . S
C36 H49 0.947 . S
C36 C71 1.382 . S
C37 C36 1.384 . S
C37 C38 1.378 . S
C38 C37 1.378 . S
C38 C39 1.378 . S
C38 H50 0.952 . S
C39 C38 1.378 . S
C39 H51 0.950 . S
C39 C70 1.383 . S
H40 C59 0.947 . S
H41 C60 0.946 . S
H42 C62 0.953 . S
H43 C63 0.945 . S
H44 C65 0.952 . S
H45 C66 0.949 . S
H46 C68 0.950 . S
H47 C69 0.948 . S
H48 C71 0.951 . S
H49 C36 0.947 . S
H50 C38 0.952 . S
H51 C39 0.950 . S
N52 C55 1.382 . S
N52 C57 1.363 . S
N53 C55 1.371 . S
N53 C56 1.372 . S
N54 C56 1.361 . S
N54 C57 1.377 . S
C55 N52 1.382 . S
C55 N53 1.371 . S
C55 C58 1.480 . S
C56 N53 1.372 . S
C56 N54 1.361 . S
C56 C64 1.457 . S
C57 N52 1.363 . S
C57 N54 1.377 . S
C57 C70 1.479 . S
C58 C55 1.480 . S
C58 C59 1.383 . S
C58 C63 1.385 . S
C59 H40 0.947 . S
C59 C58 1.383 . S
C59 C60 1.388 . S
C60 H41 0.946 . S
C60 C59 1.388 . S
C60 C61 1.384 . S
C61 C60 1.384 . S
C61 C62 1.377 . S
C62 H42 0.953 . S
C62 C61 1.377 . S
C62 C63 1.369 . S
C63 H43 0.945 . S
C63 C58 1.385 . S
C63 C62 1.369 . S
C64 C56 1.457 . S
C64 C65 1.372 . S
C64 C69 1.364 . S
C65 H44 0.952 . S
C65 C64 1.372 . S
C65 C66 1.389 . S
C66 H45 0.949 . S
C66 C65 1.389 . S
C66 C67 1.387 . S
C67 C66 1.387 . S
C67 C68 1.372 . S
C68 H46 0.950 . S
C68 C67 1.372 . S
C68 C69 1.379 . S
C69 H47 0.948 . S
C69 C64 1.364 . S
C69 C68 1.379 . S
C70 C39 1.383 . S
C70 C57 1.479 . S
C70 C71 1.398 . S
C71 C36 1.382 . S
C71 H48 0.951 . S
C71 C70 1.398 . S
C72 C73 1.384 . S
C72 H85 0.947 . S
C72 C107 1.382 . S
C73 C72 1.384 . S
C73 C74 1.378 . S
C74 C73 1.378 . S
C74 C75 1.378 . S
C74 H86 0.952 . S
C75 C74 1.378 . S
C75 H87 0.950 . S
C75 C106 1.383 . S
H76 C95 0.947 . S
H77 C96 0.946 . S
H78 C98 0.953 . S
H79 C99 0.945 . S
H80 C101 0.952 . S
H81 C102 0.949 . S
H82 C104 0.950 . S
H83 C105 0.948 . S
H84 C107 0.951 . S
H85 C72 0.947 . S
H86 C74 0.952 . S
H87 C75 0.950 . S
N88 C91 1.361 1_556 S
N88 C93 1.363 . S
N89 C91 1.391 . S
N89 C92 1.372 . S
N90 C92 1.361 . S
N90 C93 1.377 1_554 S
C91 N88 1.361 1_554 S
C91 N89 1.391 . S
C91 C94 1.482 1_554 S
C92 N89 1.372 . S
C92 N90 1.361 . S
C92 C100 1.457 . S
C93 N88 1.363 . S
C93 N90 1.377 1_556 S
C93 C106 1.479 . S
C94 C91 1.482 1_556 S
C94 C95 1.387 . S
C94 C99 1.381 1_556 S
C95 H76 0.947 . S
C95 C94 1.387 . S
C95 C96 1.388 . S
C96 H77 0.946 . S
C96 C95 1.388 . S
C96 C97 1.384 . S
C97 C96 1.384 . S
C97 C98 1.377 1_556 S
C98 H78 0.953 . S
C98 C97 1.377 1_554 S
C98 C99 1.369 . S
C99 H79 0.945 . S
C99 C94 1.381 1_554 S
C99 C98 1.369 . S
C100 C92 1.457 . S
C100 C101 1.372 . S
C100 C105 1.364 . S
C101 H80 0.952 . S
C101 C100 1.372 . S
C101 C102 1.389 . S
C102 H81 0.949 . S
C102 C101 1.389 . S
C102 C103 1.387 . S
C103 C102 1.387 . S
C103 C104 1.372 . S
C104 H82 0.950 . S
C104 C103 1.372 . S
C104 C105 1.379 . S
C105 H83 0.948 . S
C105 C100 1.364 . S
C105 C104 1.379 . S
C106 C75 1.383 . S
C106 C93 1.479 . S
C106 C107 1.398 . S
C107 C72 1.382 . S
C107 H84 0.951 . S
C107 C106 1.398 . S
C108 C109 1.384 . S
C108 H121 0.947 . S
C108 C143 1.382 . S
C109 C108 1.384 . S
C109 C110 1.378 . S
C110 C109 1.378 . S
C110 C111 1.378 . S
C110 H122 0.952 . S
C111 C110 1.378 . S
C111 H123 0.950 . S
C111 C142 1.383 . S
H112 C131 0.947 . S
H113 C132 0.946 . S
H114 C134 0.953 . S
H115 C135 0.945 . S
H116 C137 0.952 . S
H117 C138 0.949 . S
H118 C140 0.950 . S
H119 C141 0.948 . S
H120 C143 0.951 . S
H121 C108 0.947 . S
H122 C110 0.952 . S
H123 C111 0.950 . S
N124 C127 1.382 . S
N124 C129 1.363 . S
N125 C127 1.371 . S
N125 C128 1.372 . S
N126 C128 1.361 . S
N126 C129 1.377 . S
C127 N124 1.382 . S
C127 N125 1.371 . S
C127 C130 1.480 . S
C128 N125 1.372 . S
C128 N126 1.361 . S
C128 C136 1.457 . S
C129 N124 1.363 . S
C129 N126 1.377 . S
C129 C142 1.479 . S
C130 C127 1.480 . S
C130 C131 1.383 . S
C130 C135 1.385 . S
C131 H112 0.947 . S
C131 C130 1.383 . S
C131 C132 1.388 . S
C132 H113 0.946 . S
C132 C131 1.388 . S
C132 C133 1.384 . S
C133 C132 1.384 . S
C133 C134 1.377 . S
C134 H114 0.953 . S
C134 C133 1.377 . S
C134 C135 1.369 . S
C135 H115 0.945 . S
C135 C130 1.385 . S
C135 C134 1.369 . S
C136 C128 1.457 . S
C136 C137 1.372 . S
C136 C141 1.364 . S
C137 H116 0.952 . S
C137 C136 1.372 . S
C137 C138 1.389 . S
C138 H117 0.949 . S
C138 C137 1.389 . S
C138 C139 1.387 . S
C139 C138 1.387 . S
C139 C140 1.372 . S
C140 H118 0.950 . S
C140 C139 1.372 . S
C140 C141 1.379 . S
C141 H119 0.948 . S
C141 C136 1.364 . S
C141 C140 1.379 . S
C142 C111 1.383 . S
C142 C129 1.479 . S
C142 C143 1.398 . S
C143 C108 1.382 . S
C143 H120 0.951 . S
C143 C142 1.398 . S
O144 Mg145 1.990 1_655 S
O144 C158 1.253 . S
Mg145 O144 1.990 1_455 S
Mg145 O148 2.180 . S
Mg145 O149 2.117 . S
Mg145 O163 2.030 . S
O146 Mg147 2.072 1_655 S
O146 C158 1.260 . S
Mg147 O146 2.072 1_455 S
Mg147 O148 2.099 . S
Mg147 O150 2.065 1_545 S
Mg147 O151 2.072 1_455 S
Mg147 O153 2.099 1_445 S
Mg147 O164 2.079 1_545 S
O148 Mg145 2.180 . S
O148 Mg147 2.099 . S
O148 C159 1.279 . S
O149 Mg145 2.117 . S
O149 C159 1.250 . S
O150 Mg147 2.065 1_565 S
O150 C160 1.280 . S
O151 Mg147 2.072 1_655 S
O151 C161 1.260 . S
Mg152 O153 2.180 . S
Mg152 O154 2.030 1_655 S
Mg152 O155 1.990 1_565 S
Mg152 O156 2.117 . S
O153 Mg147 2.099 1_665 S
O153 Mg152 2.180 . S
O153 C162 1.279 . S
O154 Mg152 2.030 1_455 S
O154 C160 1.248 . S
O155 Mg152 1.990 1_545 S
O155 C161 1.253 . S
O156 Mg152 2.117 . S
O156 C162 1.250 . S
C157 O163 1.232 1_565 S
C157 O164 1.268 . S
C158 O144 1.253 . S
C158 O146 1.260 . S
C159 O148 1.279 . S
C159 O149 1.250 . S
C160 O150 1.280 . S
C160 O154 1.248 . S
C161 O151 1.260 . S
C161 O155 1.253 . S
C162 O153 1.279 . S
C162 O156 1.250 . S
O163 Mg145 2.030 . S
O163 C157 1.232 1_545 S
O164 Mg147 2.079 1_565 S
O164 C157 1.268 . S
O165 Mg166 1.990 . S
O165 C179 1.253 . S
Mg166 O165 1.990 . S
Mg166 O169 2.180 . S
Mg166 O170 2.117 . S
Mg166 O184 2.030 . S
O167 Mg168 2.072 . S
O167 C179 1.260 . S
Mg168 O167 2.072 . S
Mg168 O169 2.099 . S
Mg168 O171 2.079 1_554 S
Mg168 O172 2.072 . S
Mg168 O174 2.099 . S
Mg168 O185 2.079 . S
O169 Mg166 2.180 . S
O169 Mg168 2.099 . S
O169 C180 1.279 . S
O170 Mg166 2.117 . S
O170 C180 1.250 . S
O171 Mg168 2.079 1_556 S
O171 C181 1.264 . S
O172 Mg168 2.072 . S
O172 C182 1.260 1_554 S
Mg173 O174 2.180 1_556 S
Mg173 O175 2.030 . S
Mg173 O176 1.990 . S
Mg173 O177 2.117 1_556 S
O174 Mg168 2.099 . S
O174 Mg173 2.180 1_554 S
O174 C183 1.279 . S
O175 Mg173 2.030 . S
O175 C181 1.248 . S
O176 Mg173 1.990 . S
O176 C182 1.253 . S
O177 Mg173 2.117 1_554 S
O177 C183 1.250 . S
C178 O184 1.248 . S
C178 O185 1.264 . S
C179 O165 1.253 . S
C179 O167 1.260 . S
C180 O169 1.279 . S
C180 O170 1.250 . S
C181 O171 1.264 . S
C181 O175 1.248 . S
C182 O172 1.260 1_556 S
C182 O176 1.253 . S
C183 O174 1.279 . S
C183 O177 1.250 . S
O184 Mg166 2.030 . S
O184 C178 1.248 . S
O185 Mg168 2.079 . S
O185 C178 1.264 . S
H186 C194 0.929 . S
H187 C196 0.930 . S
H188 C198 0.930 . S
H189 C201 0.929 . S
H190 C204 0.930 . S
H191 C206 0.960 . S
H192 C206 0.960 . S
H193 C206 0.960 . S
C194 H186 0.929 . S
C194 C195 1.377 . S
C194 C196 1.384 . S
C195 C194 1.377 . S
C195 C201 1.390 . S
C196 H187 0.930 . S
C196 C194 1.384 . S
C196 C197 1.372 . S
C197 C196 1.372 . S
C197 C198 1.400 . S
C197 C202 1.490 . S
C198 H188 0.930 . S
C198 C197 1.400 . S
C198 C201 1.386 . S
H199 C215 0.930 . S
H200 C216 0.931 . S
C201 H189 0.929 . S
C201 C195 1.390 . S
C201 C198 1.386 . S
C202 C197 1.490 . S
C202 C204 1.395 . S
C202 C205 1.403 . S
H203 C209 0.930 . S
C204 H190 0.930 . S
C204 C202 1.395 . S
C204 C207 1.403 . S
C205 C202 1.403 . S
C205 C206 1.524 . S
C205 C209 1.400 . S
C206 H191 0.960 . S
C206 H192 0.960 . S
C206 H193 0.960 . S
C206 C205 1.524 . S
C207 C204 1.403 . S
C207 C208 1.392 . S
C207 C211 1.495 . S
C208 C207 1.392 . S
C208 C209 1.385 . S
C208 C210 1.478 . S
C209 H203 0.930 . S
C209 C205 1.400 . S
C209 C208 1.385 . S
C210 C208 1.478 . S
C210 C212 1.381 . S
C210 C216 1.383 . S
C211 C207 1.495 . S
C211 H217 0.959 . S
C211 H218 0.961 . S
C211 H219 0.960 . S
C212 C210 1.381 . S
C212 C213 1.394 . S
C212 H220 0.930 . S
C213 C212 1.394 . S
C213 C214 1.383 . S
C213 H221 0.929 . S
C214 C213 1.383 . S
C214 C215 1.377 . S
C215 H199 0.930 . S
C215 C214 1.377 . S
C215 C216 1.379 . S
C216 H200 0.931 . S
C216 C210 1.383 . S
C216 C215 1.379 . S
H217 C211 0.959 . S
H218 C211 0.961 . S
H219 C211 0.960 . S
H220 C212 0.930 . S
H221 C213 0.929 . S
H222 C230 0.929 . S
H223 C232 0.930 . S
H224 C234 0.930 . S
H225 C237 0.929 . S
H226 C240 0.930 . S
H227 C242 0.960 1_556 S
H228 C242 0.960 . S
H229 C242 0.960 . S
C230 H222 0.929 . S
C230 C231 1.377 . S
C230 C232 1.384 . S
C231 C230 1.377 . S
C231 C237 1.390 . S
C232 H223 0.930 . S
C232 C230 1.384 . S
C232 C233 1.372 . S
C233 C232 1.372 . S
C233 C234 1.400 . S
C233 C238 1.490 . S
C234 H224 0.930 . S
C234 C233 1.400 . S
C234 C237 1.386 . S
H235 C251 0.930 . S
H236 C252 0.931 . S
C237 H225 0.929 . S
C237 C231 1.390 . S
C237 C234 1.386 . S
C238 C233 1.490 . S
C238 C240 1.395 . S
C238 C241 1.403 . S
H239 C245 0.930 . S
C240 H226 0.930 . S
C240 C238 1.395 . S
C240 C243 1.403 . S
C241 C238 1.403 . S
C241 C242 1.524 . S
C241 C245 1.400 . S
C242 H227 0.960 1_554 S
C242 H228 0.960 . S
C242 H229 0.960 . S
C242 C241 1.524 . S
C243 C240 1.403 . S
C243 C244 1.392 . S
C243 C247 1.495 . S
C244 C243 1.392 . S
C244 C245 1.385 . S
C244 C246 1.478 . S
C245 H239 0.930 . S
C245 C241 1.400 . S
C245 C244 1.385 . S
C246 C244 1.478 . S
C246 C248 1.381 . S
C246 C252 1.383 . S
C247 C243 1.495 . S
C247 H253 0.959 . S
C247 H254 0.961 . S
C247 H255 0.960 . S
C248 C246 1.381 . S
C248 C249 1.394 . S
C248 H256 0.930 . S
C249 C248 1.394 . S
C249 C250 1.383 . S
C249 H257 0.929 . S
C250 C249 1.383 . S
C250 C251 1.377 . S
C251 H235 0.930 . S
C251 C250 1.377 . S
C251 C252 1.379 . S
C252 H236 0.931 . S
C252 C246 1.383 . S
C252 C251 1.379 . S
H253 C247 0.959 . S
H254 C247 0.961 . S
H255 C247 0.960 . S
H256 C248 0.930 . S
H257 C249 0.929 . S
H258 C266 0.929 . S
H259 C268 0.930 . S
H260 C270 0.930 . S
H261 C273 0.929 . S
H262 C276 0.930 . S
H263 C278 0.960 . S
H264 C278 0.960 . S
H265 C278 0.960 . S
C266 H258 0.929 . S
C266 C267 1.377 . S
C266 C268 1.384 . S
C267 C266 1.377 . S
C267 C273 1.390 . S
C268 H259 0.930 . S
C268 C266 1.384 . S
C268 C269 1.372 . S
C269 C268 1.372 . S
C269 C270 1.400 . S
C269 C274 1.490 . S
C270 H260 0.930 . S
C270 C269 1.400 . S
C270 C273 1.386 . S
H271 C287 0.930 . S
H272 C288 0.931 . S
C273 H261 0.929 . S
C273 C267 1.390 . S
C273 C270 1.386 . S
C274 C269 1.490 . S
C274 C276 1.395 . S
C274 C277 1.403 . S
H275 C281 0.930 . S
C276 H262 0.930 . S
C276 C274 1.395 . S
C276 C279 1.403 . S
C277 C274 1.403 . S
C277 C278 1.524 . S
C277 C281 1.400 . S
C278 H263 0.960 . S
C278 H264 0.960 . S
C278 H265 0.960 . S
C278 C277 1.524 . S
C279 C276 1.403 . S
C279 C280 1.392 . S
C279 C283 1.495 . S
C280 C279 1.392 . S
C280 C281 1.385 . S
C280 C282 1.478 . S
C281 H275 0.930 . S
C281 C277 1.400 . S
C281 C280 1.385 . S
C282 C280 1.478 . S
C282 C284 1.381 . S
C282 C288 1.383 . S
C283 C279 1.495 . S
C283 H289 0.959 . S
C283 H290 0.961 . S
C283 H291 0.960 . S
C284 C282 1.381 . S
C284 C285 1.394 . S
C284 H292 0.930 . S
C285 C284 1.394 . S
C285 C286 1.383 . S
C285 H293 0.929 . S
C286 C285 1.383 . S
C286 C287 1.377 . S
C287 H271 0.930 . S
C287 C286 1.377 . S
C287 C288 1.379 . S
C288 H272 0.931 . S
C288 C282 1.383 . S
C288 C287 1.379 . S
H289 C283 0.959 . S
H290 C283 0.961 . S
H291 C283 0.960 . S
H292 C284 0.930 . S
H293 C285 0.929 . S
H294 C302 0.929 . S
H295 C304 0.930 . S
H296 C306 0.930 . S
H297 C309 0.929 . S
H298 C312 0.935 . S
H299 C314 0.960 . S
H300 C314 0.960 . S
H301 C314 0.960 . S
C302 H294 0.929 . S
C302 C303 1.377 1_554 S
C302 C304 1.384 . S
C303 C302 1.377 1_556 S
C303 C309 1.390 . S
C304 H295 0.930 . S
C304 C302 1.384 . S
C304 C305 1.372 . S
C305 C304 1.372 . S
C305 C306 1.400 1_554 S
C305 C310 1.490 . S
C306 H296 0.930 . S
C306 C305 1.400 1_556 S
C306 C309 1.386 . S
H307 C323 0.930 . S
H308 C324 0.931 . S
C309 H297 0.929 . S
C309 C303 1.390 . S
C309 C306 1.386 . S
C310 C305 1.490 . S
C310 C312 1.391 1_554 S
C310 C313 1.403 . S
H311 C317 0.930 . S
C312 H298 0.935 . S
C312 C310 1.391 1_556 S
C312 C315 1.402 1_556 S
C313 C310 1.403 . S
C313 C314 1.524 . S
C313 C317 1.400 . S
C314 H299 0.960 . S
C314 H300 0.960 . S
C314 H301 0.960 . S
C314 C313 1.524 . S
C315 C312 1.402 1_554 S
C315 C316 1.392 . S
C315 C319 1.495 1_554 S
C316 C315 1.392 . S
C316 C317 1.385 . S
C316 C318 1.478 . S
C317 H311 0.930 . S
C317 C313 1.400 . S
C317 C316 1.385 . S
C318 C316 1.478 . S
C318 C320 1.381 . S
C318 C324 1.383 1_554 S
C319 C315 1.495 1_556 S
C319 H325 0.959 . S
C319 H326 0.961 . S
C319 H327 0.960 1_556 S
C320 C318 1.381 . S
C320 C321 1.394 . S
C320 H328 0.930 . S
C321 C320 1.394 . S
C321 C322 1.383 . S
C321 H329 0.929 . S
C322 C321 1.383 . S
C322 C323 1.377 1_554 S
C323 H307 0.930 . S
C323 C322 1.377 1_556 S
C323 C324 1.379 . S
C324 H308 0.931 . S
C324 C318 1.383 1_556 S
C324 C323 1.379 . S
H325 C319 0.959 . S
H326 C319 0.961 . S
H327 C319 0.960 1_554 S
H328 C320 0.930 . S
H329 C321 0.929 . S
H330 C338 0.929 . S
H331 C340 0.930 . S
H332 C342 0.930 . S
H333 C345 0.929 . S
H334 C348 0.930 . S
H335 C350 0.960 . S
H336 C350 0.960 . S
H337 C350 0.960 . S
C338 H330 0.929 . S
C338 C339 1.377 . S
C338 C340 1.384 . S
C339 C338 1.377 . S
C339 C345 1.390 . S
C340 H331 0.930 . S
C340 C338 1.384 . S
C340 C341 1.372 . S
C341 C340 1.372 . S
C341 C342 1.400 . S
C341 C346 1.490 . S
C342 H332 0.930 . S
C342 C341 1.400 . S
C342 C345 1.386 . S
H343 C359 0.930 . S
H344 C360 0.931 . S
C345 H333 0.929 . S
C345 C339 1.390 . S
C345 C342 1.386 . S
C346 C341 1.490 . S
C346 C348 1.395 . S
C346 C349 1.403 . S
H347 C353 0.930 . S
C348 H334 0.930 . S
C348 C346 1.395 . S
C348 C351 1.403 . S
C349 C346 1.403 . S
C349 C350 1.524 . S
C349 C353 1.400 . S
C350 H335 0.960 . S
C350 H336 0.960 . S
C350 H337 0.960 . S
C350 C349 1.524 . S
C351 C348 1.403 . S
C351 C352 1.392 . S
C351 C355 1.495 . S
C352 C351 1.392 . S
C352 C353 1.385 . S
C352 C354 1.478 . S
C353 H347 0.930 . S
C353 C349 1.400 . S
C353 C352 1.385 . S
C354 C352 1.478 . S
C354 C356 1.381 1_565 S
C354 C360 1.383 . S
C355 C351 1.495 . S
C355 H361 0.959 . S
C355 H362 0.961 . S
C355 H363 0.960 1_565 S
C356 C354 1.381 1_545 S
C356 C357 1.394 . S
C356 H364 0.930 . S
C357 C356 1.394 . S
C357 C358 1.383 1_545 S
C357 H365 0.929 . S
C358 C357 1.383 1_565 S
C358 C359 1.377 . S
C359 H343 0.930 . S
C359 C358 1.377 . S
C359 C360 1.379 . S
C360 H344 0.931 . S
C360 C354 1.383 . S
C360 C359 1.379 . S
H361 C355 0.959 . S
H362 C355 0.961 . S
H363 C355 0.960 1_545 S
H364 C356 0.930 . S
H365 C357 0.929 . S
H366 C374 0.929 . S
H367 C376 0.930 . S
H368 C378 0.930 . S
H369 C381 0.929 . S
H370 C384 0.930 . S
H371 C386 0.960 . S
H372 C386 0.960 . S
H373 C386 0.960 . S
C374 H366 0.929 . S
C374 C375 1.377 . S
C374 C376 1.384 . S
C375 C374 1.377 . S
C375 C381 1.390 . S
C376 H367 0.930 . S
C376 C374 1.384 . S
C376 C377 1.372 . S
C377 C376 1.372 . S
C377 C378 1.400 . S
C377 C382 1.490 . S
C378 H368 0.930 . S
C378 C377 1.400 . S
C378 C381 1.386 . S
H379 C395 0.930 . S
H380 C396 0.931 . S
C381 H369 0.929 . S
C381 C375 1.390 . S
C381 C378 1.386 . S
C382 C377 1.490 . S
C382 C384 1.395 . S
C382 C385 1.403 . S
H383 C389 0.930 . S
C384 H370 0.930 . S
C384 C382 1.395 . S
C384 C387 1.403 . S
C385 C382 1.403 . S
C385 C386 1.524 . S
C385 C389 1.400 . S
C386 H371 0.960 . S
C386 H372 0.960 . S
C386 H373 0.960 . S
C386 C385 1.524 . S
C387 C384 1.403 . S
C387 C388 1.392 . S
C387 C391 1.495 . S
C388 C387 1.392 . S
C388 C389 1.385 . S
C388 C390 1.478 . S
C389 H383 0.930 . S
C389 C385 1.400 . S
C389 C388 1.385 . S
C390 C388 1.478 . S
C390 C392 1.381 . S
C390 C396 1.383 . S
C391 C387 1.495 . S
C391 H397 0.959 . S
C391 H398 0.961 . S
C391 H399 0.960 . S
C392 C390 1.381 . S
C392 C393 1.394 . S
C392 H400 0.930 . S
C393 C392 1.394 . S
C393 C394 1.383 . S
C393 H401 0.929 . S
C394 C393 1.383 . S
C394 C395 1.377 . S
C395 H379 0.930 . S
C395 C394 1.377 . S
C395 C396 1.379 . S
C396 H380 0.931 . S
C396 C390 1.383 . S
C396 C395 1.379 . S
H397 C391 0.959 . S
H398 C391 0.961 . S
H399 C391 0.960 . S
H400 C392 0.930 . S
H401 C393 0.929 . S
H402 C410 0.929 . S
H403 C412 0.930 . S
H404 C414 0.930 . S
H405 C417 0.929 . S
H406 C420 0.930 . S
H407 C422 0.960 . S
H408 C422 0.960 . S
H409 C422 0.960 . S
C410 H402 0.929 . S
C410 C411 1.377 . S
C410 C412 1.384 . S
C411 C410 1.377 . S
C411 C417 1.390 . S
C412 H403 0.930 . S
C412 C410 1.384 . S
C412 C413 1.372 . S
C413 C412 1.372 . S
C413 C414 1.400 . S
C413 C418 1.490 . S
C414 H404 0.930 . S
C414 C413 1.400 . S
C414 C417 1.386 . S
H415 C431 0.930 . S
H416 C432 0.931 . S
C417 H405 0.929 . S
C417 C411 1.390 . S
C417 C414 1.386 . S
C418 C413 1.490 . S
C418 C420 1.395 . S
C418 C421 1.403 . S
H419 C425 0.930 . S
C420 H406 0.930 . S
C420 C418 1.395 . S
C420 C423 1.403 . S
C421 C418 1.403 . S
C421 C422 1.524 . S
C421 C425 1.400 . S
C422 H407 0.960 . S
C422 H408 0.960 . S
C422 H409 0.960 . S
C422 C421 1.524 . S
C423 C420 1.403 . S
C423 C424 1.392 . S
C423 C427 1.495 . S
C424 C423 1.392 . S
C424 C425 1.385 . S
C424 C426 1.478 . S
C425 H419 0.930 . S
C425 C421 1.400 . S
C425 C424 1.385 . S
C426 C424 1.478 . S
C426 C428 1.381 . S
C426 C432 1.383 . S
C427 C423 1.495 . S
C427 H433 0.959 . S
C427 H434 0.961 . S
C427 H435 0.960 . S
C428 C426 1.381 . S
C428 C429 1.394 . S
C428 H436 0.930 . S
C429 C428 1.394 . S
C429 C430 1.383 . S
C429 H437 0.929 . S
C430 C429 1.383 . S
C430 C431 1.377 . S
C431 H415 0.930 . S
C431 C430 1.377 . S
C431 C432 1.379 . S
C432 H416 0.931 . S
C432 C426 1.383 . S
C432 C431 1.379 . S
H433 C427 0.959 . S
H434 C427 0.961 . S
H435 C427 0.960 . S
H436 C428 0.930 . S
H437 C429 0.929 . S
H438 C446 0.929 . S
H439 C448 0.930 . S
H440 C450 0.930 . S
H441 C453 0.929 . S
H442 C456 0.930 . S
H443 C458 0.960 . S
H444 C458 0.960 . S
H445 C458 0.960 . S
C446 H438 0.929 . S
C446 C447 1.377 . S
C446 C448 1.384 . S
C447 C446 1.377 . S
C447 C453 1.390 . S
C448 H439 0.930 . S
C448 C446 1.384 . S
C448 C449 1.372 . S
C449 C448 1.372 . S
C449 C450 1.400 . S
C449 C454 1.490 . S
C450 H440 0.930 . S
C450 C449 1.400 . S
C450 C453 1.386 . S
H451 C467 0.930 . S
H452 C468 0.931 . S
C453 H441 0.929 . S
C453 C447 1.390 . S
C453 C450 1.386 . S
C454 C449 1.490 . S
C454 C456 1.395 . S
C454 C457 1.403 . S
H455 C461 0.930 . S
C456 H442 0.930 . S
C456 C454 1.395 . S
C456 C459 1.403 . S
C457 C454 1.403 . S
C457 C458 1.524 . S
C457 C461 1.400 . S
C458 H443 0.960 . S
C458 H444 0.960 . S
C458 H445 0.960 . S
C458 C457 1.524 . S
C459 C456 1.403 . S
C459 C460 1.392 . S
C459 C463 1.495 . S
C460 C459 1.392 . S
C460 C461 1.385 . S
C460 C462 1.478 . S
C461 H455 0.930 . S
C461 C457 1.400 . S
C461 C460 1.385 . S
C462 C460 1.478 . S
C462 C464 1.381 . S
C462 C468 1.383 . S
C463 C459 1.495 . S
C463 H469 0.959 . S
C463 H470 0.961 . S
C463 H471 0.960 . S
C464 C462 1.381 . S
C464 C465 1.394 . S
C464 H472 0.930 . S
C465 C464 1.394 . S
C465 C466 1.383 . S
C465 H473 0.929 . S
C466 C465 1.383 . S
C466 C467 1.377 . S
C467 H451 0.930 . S
C467 C466 1.377 . S
C467 C468 1.379 . S
C468 H452 0.931 . S
C468 C462 1.383 . S
C468 C467 1.379 . S
H469 C463 0.959 . S
H470 C463 0.961 . S
H471 C463 0.960 . S
H472 C464 0.930 . S
H473 C465 0.929 . S
H474 C482 0.929 . S
H475 C484 0.930 . S
H476 C486 0.930 . S
H477 C489 0.929 . S
H478 C492 0.930 . S
H479 C494 0.960 . S
H480 C494 0.960 . S
H481 C494 0.960 . S
C482 H474 0.929 . S
C482 C483 1.377 . S
C482 C484 1.384 . S
C483 C482 1.377 . S
C483 C489 1.390 . S
C484 H475 0.930 . S
C484 C482 1.384 . S
C484 C485 1.372 . S
C485 C484 1.372 . S
C485 C486 1.400 . S
C485 C490 1.490 . S
C486 H476 0.930 . S
C486 C485 1.400 . S
C486 C489 1.386 . S
H487 C503 0.930 . S
H488 C504 0.931 . S
C489 H477 0.929 . S
C489 C483 1.390 . S
C489 C486 1.386 . S
C490 C485 1.490 . S
C490 C492 1.395 . S
C490 C493 1.403 . S
H491 C497 0.930 . S
C492 H478 0.930 . S
C492 C490 1.395 . S
C492 C495 1.403 . S
C493 C490 1.403 . S
C493 C494 1.524 . S
C493 C497 1.400 . S
C494 H479 0.960 . S
C494 H480 0.960 . S
C494 H481 0.960 . S
C494 C493 1.524 . S
C495 C492 1.403 . S
C495 C496 1.392 . S
C495 C499 1.495 . S
C496 C495 1.392 . S
C496 C497 1.385 . S
C496 C498 1.478 . S
C497 H491 0.930 . S
C497 C493 1.400 . S
C497 C496 1.385 . S
C498 C496 1.478 . S
C498 C500 1.381 . S
C498 C504 1.383 . S
C499 C495 1.495 . S
C499 H505 0.959 . S
C499 H506 0.961 . S
C499 H507 0.960 . S
C500 C498 1.381 . S
C500 C501 1.394 . S
C500 H508 0.930 . S
C501 C500 1.394 . S
C501 C502 1.383 . S
C501 H509 0.929 . S
C502 C501 1.383 . S
C502 C503 1.377 . S
C503 H487 0.930 . S
C503 C502 1.377 . S
C503 C504 1.379 . S
C504 H488 0.931 . S
C504 C498 1.383 . S
C504 C503 1.379 . S
H505 C499 0.959 . S
H506 C499 0.961 . S
H507 C499 0.960 . S
H508 C500 0.930 . S
H509 C501 0.929 . S
H510 C518 0.929 . S
H511 C520 0.930 . S
H512 C522 0.930 . S
H513 C525 0.929 . S
H514 C528 0.930 . S
H515 C530 0.960 . S
H516 C530 0.960 . S
H517 C530 0.960 . S
C518 H510 0.929 . S
C518 C519 1.377 . S
C518 C520 1.384 . S
C519 C518 1.377 . S
C519 C525 1.390 . S
C520 H511 0.930 . S
C520 C518 1.384 . S
C520 C521 1.372 . S
C521 C520 1.372 . S
C521 C522 1.400 . S
C521 C526 1.490 . S
C522 H512 0.930 . S
C522 C521 1.400 . S
C522 C525 1.386 . S
H523 C539 0.930 . S
H524 C540 0.931 . S
C525 H513 0.929 . S
C525 C519 1.390 . S
C525 C522 1.386 . S
C526 C521 1.490 . S
C526 C528 1.395 . S
C526 C529 1.403 . S
H527 C533 0.930 . S
C528 H514 0.930 . S
C528 C526 1.395 . S
C528 C531 1.403 . S
C529 C526 1.403 . S
C529 C530 1.524 . S
C529 C533 1.400 . S
C530 H515 0.960 . S
C530 H516 0.960 . S
C530 H517 0.960 . S
C530 C529 1.524 . S
C531 C528 1.403 . S
C531 C532 1.392 . S
C531 C535 1.495 . S
C532 C531 1.392 . S
C532 C533 1.385 . S
C532 C534 1.478 . S
C533 H527 0.930 . S
C533 C529 1.400 . S
C533 C532 1.385 . S
C534 C532 1.478 . S
C534 C536 1.381 . S
C534 C540 1.383 . S
C535 C531 1.495 . S
C535 H541 0.959 . S
C535 H542 0.961 . S
C535 H543 0.960 . S
C536 C534 1.381 . S
C536 C537 1.394 . S
C536 H544 0.930 . S
C537 C536 1.394 . S
C537 C538 1.383 . S
C537 H545 0.929 . S
C538 C537 1.383 . S
C538 C539 1.377 . S
C539 H523 0.930 . S
C539 C538 1.377 . S
C539 C540 1.379 . S
C540 H524 0.931 . S
C540 C534 1.383 . S
C540 C539 1.379 . S
H541 C535 0.959 . S
H542 C535 0.961 . S
H543 C535 0.960 . S
H544 C536 0.930 . S
H545 C537 0.929 . S
H546 C554 0.929 . S
H547 C556 0.930 . S
H548 C558 0.930 . S
H549 C561 0.929 . S
H550 C564 0.930 . S
H551 C566 0.960 . S
H552 C566 0.960 . S
H553 C566 0.960 . S
C554 H546 0.929 . S
C554 C555 1.377 . S
C554 C556 1.384 . S
C555 C554 1.377 . S
C555 C561 1.390 . S
C556 H547 0.930 . S
C556 C554 1.384 . S
C556 C557 1.372 . S
C557 C556 1.372 . S
C557 C558 1.400 . S
C557 C562 1.490 . S
C558 H548 0.930 . S
C558 C557 1.400 . S
C558 C561 1.386 . S
H559 C575 0.930 . S
H560 C576 0.931 . S
C561 H549 0.929 . S
C561 C555 1.390 . S
C561 C558 1.386 . S
C562 C557 1.490 . S
C562 C564 1.395 . S
C562 C565 1.403 . S
H563 C569 0.930 . S
C564 H550 0.930 . S
C564 C562 1.395 . S
C564 C567 1.403 . S
C565 C562 1.403 . S
C565 C566 1.524 . S
C565 C569 1.400 . S
C566 H551 0.960 . S
C566 H552 0.960 . S
C566 H553 0.960 . S
C566 C565 1.524 . S
C567 C564 1.403 . S
C567 C568 1.392 . S
C567 C571 1.495 . S
C568 C567 1.392 . S
C568 C569 1.385 . S
C568 C570 1.478 . S
C569 H563 0.930 . S
C569 C565 1.400 . S
C569 C568 1.385 . S
C570 C568 1.478 . S
C570 C572 1.381 . S
C570 C576 1.383 . S
C571 C567 1.495 . S
C571 H577 0.959 . S
C571 H578 0.961 . S
C571 H579 0.960 . S
C572 C570 1.381 . S
C572 C573 1.394 . S
C572 H580 0.930 . S
C573 C572 1.394 . S
C573 C574 1.383 . S
C573 H581 0.929 . S
C574 C573 1.383 . S
C574 C575 1.377 . S
C575 H559 0.930 . S
C575 C574 1.377 . S
C575 C576 1.379 . S
C576 H560 0.931 . S
C576 C570 1.383 . S
C576 C575 1.379 . S
H577 C571 0.959 . S
H578 C571 0.961 . S
H579 C571 0.960 . S
H580 C572 0.930 . S
H581 C573 0.929 . S
H582 C590 0.929 . S
H583 C592 0.930 . S
H584 C594 0.930 . S
H585 C597 0.929 . S
H586 C600 0.930 . S
H587 C602 0.960 . S
H588 C602 0.960 . S
H589 C602 0.960 . S
C590 H582 0.929 . S
C590 C591 1.377 . S
C590 C592 1.384 . S
C591 C590 1.377 . S
C591 C597 1.390 . S
C592 H583 0.930 . S
C592 C590 1.384 . S
C592 C593 1.372 . S
C593 C592 1.372 . S
C593 C594 1.400 . S
C593 C598 1.490 . S
C594 H584 0.930 . S
C594 C593 1.400 . S
C594 C597 1.386 . S
H595 C611 0.930 . S
H596 C612 0.931 . S
C597 H585 0.929 . S
C597 C591 1.390 . S
C597 C594 1.386 . S
C598 C593 1.490 . S
C598 C600 1.395 . S
C598 C601 1.403 . S
H599 C605 0.930 . S
C600 H586 0.930 . S
C600 C598 1.395 . S
C600 C603 1.403 . S
C601 C598 1.403 . S
C601 C602 1.524 . S
C601 C605 1.400 . S
C602 H587 0.960 . S
C602 H588 0.960 . S
C602 H589 0.960 . S
C602 C601 1.524 . S
C603 C600 1.403 . S
C603 C604 1.392 . S
C603 C607 1.495 1_565 S
C604 C603 1.392 . S
C604 C605 1.385 . S
C604 C606 1.478 . S
C605 H599 0.930 . S
C605 C601 1.400 . S
C605 C604 1.385 . S
C606 C604 1.478 . S
C606 C608 1.381 . S
C606 C612 1.383 . S
C607 C603 1.495 1_545 S
C607 H613 0.959 . S
C607 H614 0.961 . S
C607 H615 0.960 . S
C608 C606 1.381 . S
C608 C609 1.394 . S
C608 H616 0.930 . S
C609 C608 1.394 . S
C609 C610 1.383 . S
C609 H617 0.929 . S
C610 C609 1.383 . S
C610 C611 1.377 . S
C611 H595 0.930 . S
C611 C610 1.377 . S
C611 C612 1.379 . S
C612 H596 0.931 . S
C612 C606 1.383 . S
C612 C611 1.379 . S
H613 C607 0.959 . S
H614 C607 0.961 . S
H615 C607 0.960 . S
H616 C608 0.930 . S
H617 C609 0.929 . S
C214 C159 1.343 . S
C195 C133 1.476 . S
C231 C25 1.503 . S
C250 C183 1.363 . S
C267 C61 1.685 . S
C286 C162 1.489 . S
C303 C97 1.644 . S
C322 C180 1.485 . S
C358 C160 1.573 . S
C339 C1 1.619 . S
C394 C182 1.580 . S
C375 C67 1.604 . S
C411 C103 1.562 . S
C430 C161 1.490 . S
C447 C109 1.576 . S
C466 C181 1.547 . S
C502 C179 1.484 . S
C483 C37 1.585 . S
C538 C158 1.545 . S
C519 C73 1.595 . S
C574 C178 1.576 . S
C555 C139 1.583 . S
C591 C31 1.600 . S
C610 C157 1.507 . S
