# Generated by pormake.
# Topology wbl, (4,4)-cn, num edge types: 1
# Building blocks:
#     Node 0, Type 0, BuildingBlock: NAWXER_clean_linker_0, # of connection points: 4
#     Node 1, Type 0, BuildingBlock: NAWXER_clean_linker_0, # of connection points: 4
#     Node 2, Type 0, BuildingBlock: NAWXER_clean_linker_0, # of connection points: 4
#     Node 3, Type 0, BuildingBlock: NAWXER_clean_linker_0, # of connection points: 4
#     Node 4, Type 0, BuildingBlock: NAWXER_clean_linker_0, # of connection points: 4
#     Node 5, Type 0, BuildingBlock: NAWXER_clean_linker_0, # of connection points: 4
#     Node 6, Type 0, BuildingBlock: NAWXER_clean_linker_0, # of connection points: 4
#     Node 7, Type 0, BuildingBlock: NAWXER_clean_linker_0, # of connection points: 4
#     Node 8, Type 1, BuildingBlock: NAHDIM_clean_sbu_0, # of connection points: 4
#     Node 9, Type 1, BuildingBlock: NAHDIM_clean_sbu_0, # of connection points: 4
#     Node 10, Type 1, BuildingBlock: NAHDIM_clean_sbu_0, # of connection points: 4
#     Node 11, Type 1, BuildingBlock: NAHDIM_clean_sbu_0, # of connection points: 4
#     Node 12, Type 1, BuildingBlock: NAHDIM_clean_sbu_0, # of connection points: 4
#     Node 13, Type 1, BuildingBlock: NAHDIM_clean_sbu_0, # of connection points: 4
#     Node 14, Type 1, BuildingBlock: NAHDIM_clean_sbu_0, # of connection points: 4
#     Node 15, Type 1, BuildingBlock: NAHDIM_clean_sbu_0, # of connection points: 4
#     Edge 16, Type (0, 1), BuildingBlock: XIVTED_clean_linker_0, # of connection points: 2
#     Edge 17, Type (0, 1), BuildingBlock: XIVTED_clean_linker_0, # of connection points: 2
#     Edge 18, Type (0, 1), BuildingBlock: XIVTED_clean_linker_0, # of connection points: 2
#     Edge 19, Type (0, 1), BuildingBlock: XIVTED_clean_linker_0, # of connection points: 2
#     Edge 20, Type (0, 1), BuildingBlock: XIVTED_clean_linker_0, # of connection points: 2
#     Edge 21, Type (0, 1), BuildingBlock: XIVTED_clean_linker_0, # of connection points: 2
#     Edge 22, Type (0, 1), BuildingBlock: XIVTED_clean_linker_0, # of connection points: 2
#     Edge 23, Type (0, 1), BuildingBlock: XIVTED_clean_linker_0, # of connection points: 2
#     Edge 24, Type (0, 1), BuildingBlock: XIVTED_clean_linker_0, # of connection points: 2
#     Edge 25, Type (0, 1), BuildingBlock: XIVTED_clean_linker_0, # of connection points: 2
#     Edge 26, Type (0, 1), BuildingBlock: XIVTED_clean_linker_0, # of connection points: 2
#     Edge 27, Type (0, 1), BuildingBlock: XIVTED_clean_linker_0, # of connection points: 2
#     Edge 28, Type (0, 1), BuildingBlock: XIVTED_clean_linker_0, # of connection points: 2
#     Edge 29, Type (0, 1), BuildingBlock: XIVTED_clean_linker_0, # of connection points: 2
#     Edge 30, Type (0, 1), BuildingBlock: XIVTED_clean_linker_0, # of connection points: 2
#     Edge 31, Type (0, 1), BuildingBlock: XIVTED_clean_linker_0, # of connection points: 2
#     Edge 32, Type (0, 1), BuildingBlock: XIVTED_clean_linker_0, # of connection points: 2
#     Edge 33, Type (0, 1), BuildingBlock: XIVTED_clean_linker_0, # of connection points: 2
#     Edge 34, Type (0, 1), BuildingBlock: XIVTED_clean_linker_0, # of connection points: 2
#     Edge 35, Type (0, 1), BuildingBlock: XIVTED_clean_linker_0, # of connection points: 2
#     Edge 36, Type (0, 1), BuildingBlock: XIVTED_clean_linker_0, # of connection points: 2
#     Edge 37, Type (0, 1), BuildingBlock: XIVTED_clean_linker_0, # of connection points: 2
#     Edge 38, Type (0, 1), BuildingBlock: XIVTED_clean_linker_0, # of connection points: 2
#     Edge 39, Type (0, 1), BuildingBlock: XIVTED_clean_linker_0, # of connection points: 2
#     Edge 40, Type (0, 1), BuildingBlock: XIVTED_clean_linker_0, # of connection points: 2
#     Edge 41, Type (0, 1), BuildingBlock: XIVTED_clean_linker_0, # of connection points: 2
#     Edge 42, Type (0, 1), BuildingBlock: XIVTED_clean_linker_0, # of connection points: 2
#     Edge 43, Type (0, 1), BuildingBlock: XIVTED_clean_linker_0, # of connection points: 2
#     Edge 44, Type (0, 1), BuildingBlock: XIVTED_clean_linker_0, # of connection points: 2
#     Edge 45, Type (0, 1), BuildingBlock: XIVTED_clean_linker_0, # of connection points: 2
#     Edge 46, Type (0, 1), BuildingBlock: XIVTED_clean_linker_0, # of connection points: 2
#     Edge 47, Type (0, 1), BuildingBlock: XIVTED_clean_linker_0, # of connection points: 2
# Relax obj value: 0.156
# Max RMSD: 0.154
# Mean RMSD: 0.137
data_MOF--net-wbl--node1-NAHDIM_clean_sbu_0--node2-NAWXER_clean_linker_0--edge1-XIVTED_clean_linker_0
_symmetry_space_group_name_H-M    P1
_symmetry_Int_Tables_number       1
_symmetry_cell_setting            triclinic
loop_
_symmetry_equiv_pos_as_xyz
'x, y, z'
_cell_length_a     46.376735
_cell_length_b     44.803964
_cell_length_c     76.373441
_cell_angle_alpha  89.957238
_cell_angle_beta   90.037351
_cell_angle_gamma 90.024278
loop_
_atom_site_label
_atom_site_type_symbol
_atom_site_fract_x
_atom_site_fract_y
_atom_site_fract_z
_atom_type_partial_charge
C0 C 0.05603 0.91205 0.37291 0.0
C1 C 0.07153 0.92549 0.38661 0.0
C2 C 0.03942 0.92944 0.36152 0.0
C3 C 0.0386 0.96066 0.36336 0.0
C4 C 0.07061 0.95666 0.38847 0.0
C5 C 0.05431 0.97404 0.37697 0.0
C6 C 0.01994 0.9795 0.35212 0.0
C7 C 0.08285 0.93857 0.3139 0.0
C8 C 0.0698 0.91575 0.3041 0.0
C9 C 0.06601 0.95807 0.32379 0.0
C10 C 0.03591 0.95524 0.32379 0.0
C11 C 0.03969 0.9128 0.3042 0.0
C12 C 0.0228 0.93276 0.3138 0.0
C13 C 0.01802 0.97634 0.33375 0.0
C14 C 0.95416 0.08773 0.31363 0.0
C15 C 0.93448 0.07684 0.30116 0.0
C16 C 0.97062 0.06805 0.32365 0.0
C17 C 0.96761 0.0371 0.3215 0.0
C18 C 0.93235 0.04582 0.29856 0.0
C19 C 0.94893 0.02613 0.30858 0.0
C20 C 0.98423 0.01624 0.33256 0.0
C21 C 0.91852 0.05697 0.36832 0.0
C22 C 0.93025 0.07615 0.38101 0.0
C23 C 0.93646 0.03864 0.35836 0.0
C24 C 0.96644 0.03915 0.36091 0.0
C25 C 0.96029 0.07678 0.38347 0.0
C26 C 0.97821 0.0582 0.37361 0.0
C27 C 0.98536 0.01879 0.35096 0.0
H28 H 0.05597 0.88802 0.37137 0.0
H29 H 0.0266 0.91832 0.35164 0.0
H30 H 0.08251 0.96761 0.39885 0.0
H31 H 0.05388 -0.00198 0.37877 0.0
H32 H 0.10609 0.94109 0.31401 0.0
H33 H 0.07642 0.97552 0.33131 0.0
H34 H 0.02928 0.89538 0.29667 0.0
H35 H -0.00046 0.93045 0.3136 0.0
H36 H 0.95679 0.11149 0.31568 0.0
H37 H 0.98563 0.07704 0.33316 0.0
H38 H 0.91722 0.03669 0.28918 0.0
H39 H 0.94654 0.00232 0.3066 0.0
H40 H 0.89545 0.0561 0.36614 0.0
H41 H 0.92686 0.02369 0.34886 0.0
H42 H 0.96984 0.09109 0.39332 0.0
H43 H 0.00127 0.0587 0.37588 0.0
N44 N 0.00341 0.0006 0.36002 0.0
N45 N 0.00032 0.99485 0.32464 0.0
C46 C 0.93504 0.42277 0.61967 0.0
C47 C 0.94597 0.40423 0.63297 0.0
C48 C 0.95354 0.44079 0.60984 0.0
C49 C 0.98341 0.44035 0.61294 0.0
C50 C 0.97588 0.40391 0.63607 0.0
C51 C 0.99437 0.42188 0.6262 0.0
C52 C 0.00312 0.46034 0.60317 0.0
C53 C 0.97047 0.39547 0.56365 0.0
C54 C 0.95054 0.40781 0.55184 0.0
C55 C 0.98705 0.41386 0.57437 0.0
C56 C 0.98404 0.44497 0.57348 0.0
C57 C 0.9476 0.43899 0.55088 0.0
C58 C 0.96453 0.45748 0.56149 0.0
C59 C 0.0018 0.46423 0.58484 0.0
C60 C 0.10589 0.53999 0.56951 0.0
C61 C 0.09394 0.5601 0.55737 0.0
C62 C 0.08814 0.52069 0.57903 0.0
C63 C 0.05808 0.52143 0.57675 0.0
C64 C 0.06389 0.56034 0.55489 0.0
C65 C 0.04618 0.54108 0.56442 0.0
C66 C 0.03897 0.50087 0.58647 0.0
C67 C 0.0774 0.56021 0.62855 0.0
C68 C 0.09505 0.5447 0.6405 0.0
C69 C 0.06029 0.54467 0.61654 0.0
C70 C 0.06051 0.51335 0.61625 0.0
C71 C 0.09564 0.51332 0.63983 0.0
C72 C 0.07833 0.49784 0.62796 0.0
C73 C 0.04075 0.49648 0.60476 0.0
H74 H 0.91214 0.42347 0.6169 0.0
H75 H 0.94438 0.45549 0.60005 0.0
H76 H 0.98497 0.39032 0.64642 0.0
H77 H 0.01728 0.42143 0.62897 0.0
H78 H 0.97299 0.3715 0.56477 0.0
H79 H 0.00232 0.40379 0.58334 0.0
H80 H 0.93249 0.44902 0.54179 0.0
H81 H 0.96212 0.48147 0.56055 0.0
H82 H 0.12899 0.53892 0.57151 0.0
H83 H 0.09795 0.50498 0.58802 0.0
H84 H 0.05395 0.57581 0.54581 0.0
H85 H 0.02307 0.54183 0.56234 0.0
H86 H 0.07601 0.58433 0.62886 0.0
H87 H 0.04623 0.55708 0.60785 0.0
H88 H 0.10935 0.50062 0.64856 0.0
H89 H 0.07877 0.47366 0.62795 0.0
N90 N 0.02275 0.47641 0.61239 0.0
N91 N 0.01953 0.48454 0.5772 0.0
C92 C 0.55614 0.42875 0.87518 0.0
C93 C 0.571 0.44108 0.88951 0.0
C94 C 0.5396 0.4469 0.86418 0.0
C95 C 0.53791 0.47779 0.86717 0.0
C96 C 0.5693 0.47202 0.89242 0.0
C97 C 0.55281 0.49014 0.88142 0.0
C98 C 0.5193 0.49715 0.85625 0.0
C99 C 0.58957 0.46666 0.8202 0.0
C100 C 0.58008 0.44693 0.80712 0.0
C101 C 0.56973 0.48238 0.83033 0.0
C102 C 0.54005 0.47867 0.82755 0.0
C103 C 0.55034 0.4431 0.80439 0.0
C104 C 0.53046 0.45916 0.81442 0.0
C105 C 0.51913 0.49626 0.83776 0.0
C106 C 0.44651 0.60313 0.8199 0.0
C107 C 0.42836 0.59151 0.80683 0.0
C108 C 0.46435 0.58427 0.8296 0.0
C109 C 0.46422 0.55338 0.82652 0.0
C110 C 0.42912 0.56069 0.80332 0.0
C111 C 0.44703 0.54182 0.81303 0.0
C112 C 0.48223 0.53319 0.83721 0.0
C113 C 0.413 0.56607 0.87369 0.0
C114 C 0.42349 0.58595 0.88641 0.0
C115 C 0.43213 0.54949 0.86346 0.0
C116 C 0.46201 0.55237 0.86589 0.0
C117 C 0.45341 0.58903 0.88868 0.0
C118 C 0.47251 0.5721 0.87863 0.0
C119 C 0.48231 0.53398 0.85567 0.0
H120 H 0.55658 0.40493 0.87276 0.0
H121 H 0.52759 0.43666 0.85361 0.0
H122 H 0.58076 0.48228 0.90321 0.0
H123 H 0.55171 0.51388 0.88403 0.0
H124 H 0.61238 0.46985 0.82264 0.0
H125 H 0.57758 0.49776 0.84019 0.0
H126 H 0.54252 0.42819 0.7943 0.0
H127 H 0.50762 0.45625 0.81199 0.0
H128 H 0.44689 0.62683 0.82267 0.0
H129 H 0.47819 0.59382 0.83956 0.0
H130 H 0.41523 0.55098 0.79344 0.0
H131 H 0.44685 0.51808 0.81034 0.0
H132 H 0.39003 0.56333 0.8717 0.0
H133 H 0.42359 0.53404 0.85386 0.0
H134 H 0.46199 0.60395 0.89855 0.0
H135 H 0.4955 0.57445 0.88077 0.0
N136 N 0.50092 0.51608 0.8645 0.0
N137 N 0.50052 0.51422 0.82891 0.0
C138 C 0.42641 0.91055 0.07944 0.0
C139 C 0.41133 0.92255 0.06515 0.0
C140 C 0.44636 0.92788 0.08856 0.0
C141 C 0.45085 0.95792 0.08398 0.0
C142 C 0.4164 0.95223 0.06014 0.0
C143 C 0.43593 0.96982 0.06955 0.0
C144 C 0.47224 0.97647 0.09347 0.0
C145 C 0.40672 0.95077 0.13401 0.0
C146 C 0.41737 0.93092 0.14672 0.0
C147 C 0.42559 0.96537 0.12261 0.0
C148 C 0.45543 0.96034 0.12371 0.0
C149 C 0.44727 0.92619 0.1479 0.0
C150 C 0.46615 0.94098 0.13659 0.0
C151 C 0.47559 0.97593 0.11185 0.0
C152 C 0.56088 0.07331 0.12695 0.0
C153 C 0.57811 0.05865 0.13948 0.0
C154 C 0.54058 0.05744 0.11712 0.0
C155 C 0.53763 0.02645 0.11927 0.0
C156 C 0.57471 0.02767 0.14174 0.0
C157 C 0.55471 0.01181 0.13175 0.0
C158 C 0.51556 0.00924 0.10958 0.0
C159 C 0.574 0.05272 0.07037 0.0
C160 C 0.55924 0.07125 0.05847 0.0
C161 C 0.5589 0.03204 0.0806 0.0
C162 C 0.5287 0.03013 0.07946 0.0
C163 C 0.52932 0.06751 0.05643 0.0
C164 C 0.51424 0.04728 0.06685 0.0
C165 C 0.51159 0.01068 0.09121 0.0
H166 H 0.42337 0.88746 0.08323 0.0
H167 H 0.45858 0.91755 0.09901 0.0
H168 H 0.40515 0.96181 0.04905 0.0
H169 H 0.43934 0.99276 0.06555 0.0
H170 H 0.38378 0.95479 0.13278 0.0
H171 H 0.4169 0.98069 0.11298 0.0
H172 H 0.45611 0.91135 0.15774 0.0
H173 H 0.48912 0.93708 0.13778 0.0
H174 H 0.56298 0.09708 0.12475 0.0
H175 H 0.52703 0.06945 0.10796 0.0
H176 H 0.58698 0.01568 0.15154 0.0
H177 H 0.55243 0.988 0.13387 0.0
H178 H 0.59704 0.05487 0.07226 0.0
H179 H 0.57075 0.01816 0.08971 0.0
H180 H 0.51735 0.08065 0.047 0.0
H181 H 0.49104 0.04573 0.0654 0.0
N182 N 0.49012 0.99416 0.08393 0.0
N183 N 0.49737 0.99191 0.11913 0.0
C184 C 0.05056 0.57201 0.8875 0.0
C185 C 0.06395 0.55986 0.87263 0.0
C186 C 0.03647 0.55341 0.89949 0.0
C187 C 0.03612 0.5223 0.89699 0.0
C188 C 0.06416 0.52877 0.87038 0.0
C189 C 0.05042 0.51022 0.88243 0.0
C190 C 0.0182 0.50239 0.90802 0.0
C191 C 0.08271 0.53923 0.94653 0.0
C192 C 0.07041 0.56003 0.95806 0.0
C193 C 0.06516 0.52153 0.93592 0.0
C194 C 0.03506 0.52411 0.93688 0.0
C195 C 0.04031 0.56292 0.95884 0.0
C196 C 0.02272 0.54473 0.94848 0.0
C197 C 0.01651 0.50423 0.92644 0.0
C198 C 0.94943 0.39293 0.94405 0.0
C199 C 0.93044 0.40386 0.95686 0.0
C200 C 0.96672 0.41251 0.93446 0.0
C201 C 0.96509 0.44343 0.93735 0.0
C202 C 0.92976 0.43472 0.96023 0.0
C203 C 0.94704 0.4543 0.95061 0.0
C204 C 0.98234 0.46443 0.92672 0.0
C205 C 0.91827 0.42505 0.88849 0.0
C206 C 0.93081 0.40917 0.87456 0.0
C207 C 0.93544 0.44188 0.89985 0.0
C208 C 0.96548 0.44288 0.89758 0.0
C209 C 0.96096 0.40974 0.87259 0.0
C210 C 0.97806 0.42657 0.88392 0.0
C211 C 0.98367 0.46292 0.90828 0.0
H212 H 0.04981 0.59595 0.88941 0.0
H213 H 0.02477 0.56353 0.91021 0.0
H214 H 0.07457 0.51883 0.85911 0.0
H215 H 0.05036 0.48635 0.88013 0.0
H216 H 0.1059 0.53675 0.94571 0.0
H217 H 0.07504 0.50545 0.9272 0.0
H218 H 0.03045 0.57875 0.96772 0.0
H219 H -0.0005 0.54682 0.94946 0.0
H220 H 0.95086 0.36924 0.94139 0.0
H221 H 0.98125 0.4035 0.9247 0.0
H222 H 0.91519 0.44387 0.96991 0.0
H223 H 0.94569 0.47804 0.95317 0.0
H224 H 0.89509 0.42545 0.8902 0.0
H225 H 0.92513 0.45491 0.91001 0.0
H226 H 0.97134 0.39741 0.86216 0.0
H227 H 0.00118 0.42713 0.88189 0.0
N228 N 0.00167 0.48179 0.89971 0.0
N229 N -0.00137 0.48523 0.93511 0.0
C230 C 0.41609 0.54473 0.13942 0.0
C231 C 0.42546 0.56551 0.12686 0.0
C232 C 0.43591 0.53094 0.1506 0.0
C233 C 0.46543 0.53761 0.14933 0.0
C234 C 0.45496 0.57244 0.1258 0.0
C235 C 0.47479 0.55839 0.13683 0.0
C236 C 0.48686 0.52146 0.16007 0.0
C237 C 0.44306 0.58184 0.199 0.0
C238 C 0.42443 0.56632 0.21026 0.0
C239 C 0.46207 0.56629 0.18821 0.0
C240 C 0.46298 0.53502 0.18872 0.0
C241 C 0.42485 0.53502 0.21051 0.0
C242 C 0.44436 0.51945 0.19997 0.0
C243 C 0.48472 0.51883 0.17841 0.0
C244 C 0.59897 0.46311 0.19719 0.0
C245 C 0.59 0.44189 0.20962 0.0
C246 C 0.57868 0.47905 0.18743 0.0
C247 C 0.54908 0.47374 0.18974 0.0
C248 C 0.56031 0.43767 0.21246 0.0
C249 C 0.54006 0.45355 0.20266 0.0
C250 C 0.52735 0.48921 0.17888 0.0
C251 C 0.57664 0.42982 0.14211 0.0
C252 C 0.58991 0.44439 0.12791 0.0
C253 C 0.55712 0.44498 0.1528 0.0
C254 C 0.55103 0.47529 0.14985 0.0
C255 C 0.58365 0.47471 0.12495 0.0
C256 C 0.56441 0.48995 0.13579 0.0
C257 C 0.52918 0.49128 0.16043 0.0
H258 H 0.39346 0.53903 0.14053 0.0
H259 H 0.42826 0.51449 0.1599 0.0
H260 H 0.46282 0.58808 0.11609 0.0
H261 H 0.49751 0.56362 0.13553 0.0
H262 H 0.44297 0.60602 0.19863 0.0
H263 H 0.47658 0.57868 0.17979 0.0
H264 H 0.41067 0.52274 0.21918 0.0
H265 H 0.44498 0.4953 0.2006 0.0
H266 H 0.62168 0.46722 0.19493 0.0
H267 H 0.58613 0.49527 0.17793 0.0
H268 H 0.55269 0.42128 0.22181 0.0
H269 H 0.51732 0.44936 0.20479 0.0
H270 H 0.58107 0.40658 0.14489 0.0
H271 H 0.54639 0.43278 0.16316 0.0
H272 H 0.59293 0.48652 0.11394 0.0
H273 H 0.55973 0.51319 0.13307 0.0
N274 N 0.50899 0.50758 0.15178 0.0
N275 N 0.50502 0.50284 0.18715 0.0
C276 C 0.43302 0.92846 0.38279 0.0
C277 C 0.42079 0.93829 0.36699 0.0
C278 C 0.44725 0.94857 0.3938 0.0
C279 C 0.44883 0.97904 0.38942 0.0
C280 C 0.42225 0.96872 0.36265 0.0
C281 C 0.4361 0.98888 0.37376 0.0
C282 C 0.46606 0.00027 0.40004 0.0
C283 C 0.39619 0.96991 0.43617 0.0
C284 C 0.40584 0.952 0.4501 0.0
C285 C 0.41584 0.98555 0.42583 0.0
C286 C 0.44552 0.98352 0.4292 0.0
C287 C 0.43557 0.95001 0.45349 0.0
C288 C 0.45524 0.96594 0.44322 0.0
C289 C 0.46624 0.00066 0.41851 0.0
C290 C 0.54763 0.10371 0.43484 0.0
C291 C 0.56067 0.09133 0.44984 0.0
C292 C 0.52836 0.08696 0.42473 0.0
C293 C 0.52266 0.05696 0.42889 0.0
C294 C 0.55341 0.06187 0.45455 0.0
C295 C 0.53494 0.04489 0.44413 0.0
C296 C 0.50303 0.03807 0.41822 0.0
C297 C 0.56633 0.07269 0.37672 0.0
C298 C 0.55259 0.09096 0.36422 0.0
C299 C 0.55006 0.0562 0.38876 0.0
C300 C 0.51984 0.05785 0.38852 0.0
C301 C 0.52235 0.09309 0.36444 0.0
C302 C 0.50617 0.07648 0.37634 0.0
C303 C 0.50196 0.03845 0.3997 0.0
H304 H 0.43259 0.90503 0.38629 0.0
H305 H 0.45784 0.94004 0.4054 0.0
H306 H 0.41285 0.9769 0.35058 0.0
H307 H 0.43722 0.01216 0.36999 0.0
H308 H 0.37342 0.97169 0.43319 0.0
H309 H 0.40782 -0.00056 0.41528 0.0
H310 H 0.44353 0.93657 0.46425 0.0
H311 H 0.47806 0.96434 0.44612 0.0
H312 H 0.55249 0.12622 0.43064 0.0
H313 H 0.51797 0.0977 0.41373 0.0
H314 H 0.56193 0.0517 0.46632 0.0
H315 H 0.53041 0.02208 0.44799 0.0
H316 H 0.58956 0.07029 0.37679 0.0
H317 H 0.56096 0.04153 0.3979 0.0
H318 H 0.51107 0.10737 0.35528 0.0
H319 H 0.48286 0.07799 0.37594 0.0
N320 N 0.48363 0.01951 0.39142 0.0
N321 N 0.48494 0.01918 0.42685 0.0
C322 C 0.0547 0.92301 0.64304 0.0
C323 C 0.0445 0.90321 0.63017 0.0
C324 C 0.03545 0.94046 0.65268 0.0
C325 C 0.00562 0.93821 0.64975 0.0
C326 C 0.01461 0.90099 0.62732 0.0
C327 C 0.9954 0.91842 0.63696 0.0
C328 C 0.98504 0.9578 0.65903 0.0
C329 C 0.0221 0.89806 0.70066 0.0
C330 C 0.04266 0.91335 0.71075 0.0
C331 C 0.00333 0.91379 0.68975 0.0
C332 C 0.00461 0.94502 0.68899 0.0
C333 C 0.04387 0.94462 0.71003 0.0
C334 C 0.02464 0.9604 0.69939 0.0
C335 C 0.98511 0.96166 0.67733 0.0
C336 C 0.87779 0.03722 0.68826 0.0
C337 C 0.88764 0.05427 0.70255 0.0
C338 C 0.89632 0.01755 0.67961 0.0
C339 C 0.92547 0.01548 0.68453 0.0
C340 C 0.91625 0.05023 0.70828 0.0
C341 C 0.93495 0.03134 0.69927 0.0
C342 C 0.94618 0.99622 0.67497 0.0
C343 C 0.91036 0.0583 0.63374 0.0
C344 C 0.89657 0.04398 0.61963 0.0
C345 C 0.92656 0.0419 0.64582 0.0
C346 C 0.9287 0.01074 0.64431 0.0
C347 C 0.89919 0.01282 0.61803 0.0
C348 C 0.91509 0.99642 0.63022 0.0
C349 C 0.9467 0.99303 0.6565 0.0
H350 H 0.07759 0.92519 0.64558 0.0
H351 H 0.04397 0.95622 0.66209 0.0
H352 H 0.00606 0.88639 0.61728 0.0
H353 H 0.9725 0.91662 0.63433 0.0
H354 H 0.02094 0.87391 0.70097 0.0
H355 H 0.98782 0.90161 0.6819 0.0
H356 H 0.05954 0.95679 0.71776 0.0
H357 H 0.02581 0.98454 0.69897 0.0
H358 H 0.856 0.03951 0.68338 0.0
H359 H 0.88785 0.00435 0.66892 0.0
H360 H 0.92447 0.06187 0.71964 0.0
H361 H 0.95707 0.02954 0.70372 0.0
H362 H 0.90869 0.08222 0.63549 0.0
H363 H 0.9376 0.05363 0.65625 0.0
H364 H 0.88952 0.00105 0.60713 0.0
H365 H 0.91687 0.97247 0.62859 0.0
N366 N 0.96585 0.97362 0.64934 0.0
N367 N 0.96571 0.98061 0.6846 0.0
C368 C 0.22439 0.67425 0.01766 0.0
O369 O 0.23716 0.66424 0.03185 0.0
O370 O 0.29773 0.67964 0.03111 0.0
Zn371 Zn 0.28075 0.69958 0.00984 0.0
O372 O 0.30054 0.68216 0.98874 0.0
C373 C 0.31395 0.75299 0.00846 0.0
O374 O 0.33297 0.73431 0.00199 0.0
O375 O 0.23832 0.69094 0.00719 0.0
C376 C 0.3031 0.69492 0.97396 0.0
O377 O 0.29268 0.72191 0.97171 0.0
C378 C 0.30235 0.65171 0.03177 0.0
O379 O 0.2946 0.63488 0.01849 0.0
O380 O 0.28892 0.74348 0.01233 0.0
C381 C 0.22463 0.79567 0.25101 0.0
O382 O 0.23537 0.79971 0.23528 0.0
O383 O 0.29759 0.7979 0.23803 0.0
Zn384 Zn 0.28288 0.77738 0.25974 0.0
O385 O 0.30419 0.79557 0.28016 0.0
C386 C 0.30711 0.71957 0.26834 0.0
O387 O 0.31591 0.73326 0.28257 0.0
O388 O 0.24057 0.78513 0.26306 0.0
C389 C 0.33056 0.80268 0.27838 0.0
O390 O 0.34374 0.79645 0.2636 0.0
C391 C 0.29755 0.82618 0.23677 0.0
O392 O 0.2862 0.84213 0.24944 0.0
O393 O 0.29163 0.73363 0.25736 0.0
C394 C 0.24489 0.84213 0.50782 0.0
O395 O 0.22154 0.85704 0.5121 0.0
O396 O 0.18786 0.81388 0.53357 0.0
Zn397 Zn 0.20402 0.79709 0.51123 0.0
O398 O 0.1783 0.81172 0.49181 0.0
C399 C 0.18815 0.73577 0.50363 0.0
O400 O 0.17432 0.74786 0.4904 0.0
O401 O 0.24356 0.81383 0.50698 0.0
C402 C 0.18615 0.81219 0.47587 0.0
O403 O 0.21148 0.80132 0.47158 0.0
C404 C 0.16531 0.80185 0.53986 0.0
O405 O 0.15408 0.77865 0.53184 0.0
O406 O 0.20358 0.75225 0.51342 0.0
C407 C 0.26148 0.69609 0.75332 0.0
O408 O 0.25314 0.68919 0.73739 0.0
O409 O 0.19081 0.68572 0.73729 0.0
Zn410 Zn 0.2009 0.70969 0.75877 0.0
O411 O 0.17952 0.69186 0.77924 0.0
C412 C 0.17264 0.76586 0.76587 0.0
O413 O 0.16664 0.75303 0.7809 0.0
O414 O 0.2432 0.70652 0.76409 0.0
C415 C 0.15369 0.6828 0.77762 0.0
O416 O 0.14058 0.68587 0.76247 0.0
C417 C 0.1906 0.65737 0.73795 0.0
O418 O 0.19813 0.64402 0.75258 0.0
O419 O 0.18816 0.7521 0.75479 0.0
C420 C 0.72684 0.19073 0.50763 0.0
O421 O 0.73767 0.18215 0.5227 0.0
O422 O 0.79933 0.18124 0.52079 0.0
Zn423 Zn 0.78651 0.20404 0.49942 0.0
O424 O 0.80438 0.18365 0.47859 0.0
C425 C 0.83019 0.24558 0.50232 0.0
O426 O 0.84394 0.22009 0.50066 0.0
O427 O 0.74332 0.20264 0.49631 0.0
C428 C 0.81352 0.19724 0.46508 0.0
O429 O 0.81096 0.22639 0.46407 0.0
C430 C 0.79752 0.153 0.52188 0.0
O431 O 0.78563 0.13795 0.509 0.0
O432 O 0.80279 0.24549 0.50187 0.0
C433 C 0.742 0.33656 0.75139 0.0
O434 O 0.76414 0.35245 0.74605 0.0
O435 O 0.80193 0.30958 0.72753 0.0
Zn436 Zn 0.78596 0.29459 0.75039 0.0
O437 O 0.81035 0.31224 0.76942 0.0
C438 C 0.77796 0.23206 0.7411 0.0
O439 O 0.75864 0.24208 0.72996 0.0
O440 O 0.74537 0.30874 0.75385 0.0
C441 C 0.80367 0.30989 0.78549 0.0
O442 O 0.78011 0.29539 0.78986 0.0
C443 C 0.82544 0.29852 0.72198 0.0
O444 O 0.83767 0.27687 0.73091 0.0
O445 O 0.79038 0.25024 0.75137 0.0
C446 C 0.76415 0.30187 0.01201 0.0
O447 O 0.75734 0.30592 0.02853 0.0
O448 O 0.69391 0.31318 0.03004 0.0
Zn449 Zn 0.70242 0.29321 0.0071 0.0
O450 O 0.68065 0.31604 0.98871 0.0
C451 C 0.65972 0.24998 0.00943 0.0
O452 O 0.64483 0.27484 0.00822 0.0
O453 O 0.74454 0.29501 0.0011 0.0
C454 C 0.68239 0.3106 0.97243 0.0
O455 O 0.69907 0.28879 0.967 0.0
C456 C 0.6976 0.341 0.0323 0.0
O457 O 0.70904 0.35699 0.01966 0.0
O458 O 0.68706 0.25137 0.00868 0.0
C459 C 0.7759 0.19062 0.24464 0.0
O460 O 0.76776 0.1864 0.22835 0.0
O461 O 0.702 0.19001 0.22931 0.0
Zn462 Zn 0.71681 0.21131 0.25068 0.0
O463 O 0.69351 0.19708 0.27128 0.0
C464 C 0.69989 0.27234 0.25822 0.0
O465 O 0.69335 0.2616 0.27373 0.0
O466 O 0.75821 0.20157 0.25558 0.0
C467 C 0.66666 0.19226 0.26958 0.0
O468 O 0.65427 0.19765 0.25443 0.0
C469 C 0.70291 0.16181 0.22768 0.0
O470 O 0.71547 0.14574 0.23989 0.0
O471 O 0.71103 0.25521 0.24684 0.0
H472 H 0.07286 0.85518 0.30694 0.0
H473 H 0.19474 0.83914 0.23372 0.0
H474 H 0.1075 0.92977 0.27813 0.0
H475 H 0.19051 0.7816 0.279 0.0
H476 H 0.15232 0.86601 0.24445 0.0
H477 H 0.1063 0.82183 0.29139 0.0
C478 C 0.08725 0.86437 0.29715 0.0
C479 C 0.08779 0.89512 0.29382 0.0
C480 C 0.16048 0.84719 0.25185 0.0
C481 C 0.12541 0.85745 0.27598 0.0
C482 C 0.18452 0.83174 0.24571 0.0
C483 C 0.19631 0.80836 0.25562 0.0
C484 C 0.14795 0.83886 0.26784 0.0
C485 C 0.18225 0.79975 0.27109 0.0
C486 C 0.10627 0.84545 0.28836 0.0
C487 C 0.10676 0.90615 0.28111 0.0
N488 N 0.15885 0.81513 0.2768 0.0
N489 N 0.12489 0.8873 0.27262 0.0
H490 H 0.09013 0.57667 0.52286 0.0
H491 H 0.20772 0.70586 0.53261 0.0
H492 H 0.14012 0.59202 0.5697 0.0
H493 H 0.15226 0.69569 0.48757 0.0
H494 H 0.18923 0.65886 0.54425 0.0
H495 H 0.11807 0.61524 0.50791 0.0
C496 C 0.10705 0.58809 0.52999 0.0
C497 C 0.11253 0.58137 0.54764 0.0
C498 C 0.18136 0.66672 0.53171 0.0
C499 C 0.14478 0.62538 0.53054 0.0
C500 C 0.192 0.69352 0.52501 0.0
C501 C 0.18119 0.70498 0.5092 0.0
C502 C 0.15972 0.65129 0.52256 0.0
C503 C 0.16097 0.68789 0.4999 0.0
C504 C 0.12311 0.60998 0.52141 0.0
C505 C 0.13518 0.59638 0.55608 0.0
N506 N 0.15063 0.66209 0.50682 0.0
N507 N 0.15028 0.61788 0.54751 0.0
H508 H 0.41367 0.59108 0.77195 0.0
H509 H 0.28625 0.70878 0.78495 0.0
H510 H 0.39579 0.63669 0.82051 0.0
H511 H 0.30227 0.66271 0.73628 0.0
H512 H 0.33043 0.6875 0.79691 0.0
H513 H 0.3766 0.62125 0.75757 0.0
C514 C 0.40203 0.60751 0.77957 0.0
C515 C 0.40771 0.6112 0.7975 0.0
C516 C 0.32448 0.68226 0.78355 0.0
C517 C 0.36544 0.64593 0.78111 0.0
C518 C 0.29925 0.69447 0.77669 0.0
C519 C 0.29034 0.6872 0.75966 0.0
C520 C 0.34085 0.66244 0.77337 0.0
C521 C 0.3082 0.66876 0.74952 0.0
C522 C 0.381 0.62484 0.77133 0.0
C523 C 0.39234 0.63321 0.80665 0.0
N524 N 0.33244 0.6567 0.75661 0.0
N525 N 0.37178 0.64954 0.79839 0.0
H526 H 0.3661 0.8901 0.07759 0.0
H527 H 0.35964 0.78483 0.99592 0.0
H528 H 0.41198 0.91111 0.03008 0.0
H529 H 0.28943 0.78974 0.03286 0.0
H530 H 0.37896 0.83142 0.00779 0.0
H531 H 0.33732 0.85342 0.06144 0.0
C532 C 0.36978 0.88718 0.06368 0.0
C533 C 0.39142 0.90339 0.05511 0.0
C534 C 0.35905 0.82258 0.01308 0.0
C535 C 0.3591 0.86135 0.03667 0.0
C536 C 0.34808 0.79596 0.00636 0.0
C537 C 0.32308 0.7833 0.01355 0.0
C538 C 0.34528 0.83621 0.02735 0.0
C539 C 0.30882 0.79872 0.02698 0.0
C540 C 0.35333 0.86641 0.05447 0.0
C541 C 0.3954 0.899 0.0371 0.0
N542 N 0.32043 0.82411 0.03369 0.0
N543 N 0.37971 0.87798 0.0285 0.0
H544 H 0.1106 0.54033 0.98123 0.0
H545 H 0.18784 0.69508 0.99226 0.0
H546 H 0.07276 0.62082 0.96054 0.0
H547 H 0.19771 0.62419 0.0301 0.0
H548 H 0.14609 0.66894 0.97997 0.0
H549 H 0.14392 0.57064 0.99863 0.0
C550 C 0.10929 0.56444 0.98047 0.0
C551 C 0.08916 0.57823 0.96945 0.0
C552 C 0.15713 0.65941 0.99115 0.0
C553 C 0.1272 0.61294 0.98907 0.0
C554 C 0.18094 0.67427 0.99816 0.0
C555 C 0.19642 0.66164 0.01212 0.0
C556 C 0.14918 0.63147 0.99793 0.0
C557 C 0.18649 0.6347 0.01931 0.0
C558 C 0.12811 0.5817 0.99045 0.0
C559 C 0.08805 0.60949 0.96894 0.0
N560 N 0.1638 0.62023 0.01192 0.0
N561 N 0.10716 0.62588 0.97843 0.0
H562 H 0.44021 0.60445 0.23605 0.0
H563 H 0.28914 0.68153 0.24249 0.0
H564 H 0.36558 0.5665 0.21085 0.0
H565 H 0.35392 0.69171 0.28267 0.0
H566 H 0.31554 0.63849 0.23106 0.0
H567 H 0.40855 0.6363 0.25358 0.0
C568 C 0.41706 0.6027 0.2344 0.0
C569 C 0.40531 0.58312 0.22203 0.0
C570 C 0.32365 0.64981 0.24258 0.0
C571 C 0.36908 0.61959 0.24172 0.0
C572 C 0.30864 0.6744 0.24909 0.0
C573 C 0.31958 0.69047 0.2634 0.0
C574 C 0.35002 0.64167 0.25024 0.0
C575 C 0.34481 0.68012 0.27153 0.0
C576 C 0.39902 0.6207 0.24442 0.0
C577 C 0.37528 0.58143 0.22032 0.0
N578 N 0.35949 0.65671 0.26462 0.0
N579 N 0.35811 0.59987 0.22986 0.0
H580 H 0.40766 0.89358 0.46079 0.0
H581 H 0.25351 0.90232 0.50754 0.0
H582 H 0.35609 0.97346 0.4643 0.0
H583 H 0.29593 0.81905 0.49553 0.0
H584 H 0.29481 0.92926 0.49579 0.0
H585 H 0.37063 0.86654 0.47739 0.0
C586 C 0.38868 0.90546 0.46522 0.0
C587 C 0.38474 0.9357 0.46105 0.0
C588 C 0.2952 0.90509 0.4958 0.0
C589 C 0.34247 0.90505 0.47995 0.0
C590 C 0.27162 0.88966 0.50255 0.0
C591 C 0.27112 0.85836 0.50235 0.0
C592 C 0.31853 0.88916 0.48878 0.0
C593 C 0.29534 0.84319 0.49584 0.0
C594 C 0.36754 0.89002 0.47459 0.0
C595 C 0.35973 0.95004 0.467 0.0
N596 N 0.31802 0.85876 0.48918 0.0
N597 N 0.33953 0.93457 0.4761 0.0
H598 H 0.03016 0.87259 0.73606 0.0
H599 H 0.18553 0.8035 0.73871 0.0
H600 H 0.10143 0.91546 0.70997 0.0
H601 H 0.12474 0.79042 0.78081 0.0
H602 H 0.15553 0.84427 0.72756 0.0
H603 H 0.06435 0.84129 0.75222 0.0
C604 C 0.05307 0.87551 0.73389 0.0
C605 C 0.06313 0.89641 0.7217 0.0
C606 C 0.14905 0.83277 0.7394 0.0
C607 C 0.10221 0.86063 0.73984 0.0
C608 C 0.1661 0.80949 0.74575 0.0
C609 C 0.15745 0.79338 0.7606 0.0
C610 C 0.12292 0.8395 0.74778 0.0
C611 C 0.13217 0.80217 0.76927 0.0
C612 C 0.07255 0.85783 0.74315 0.0
C613 C 0.09296 0.89956 0.71934 0.0
N614 N 0.11551 0.8243 0.76255 0.0
N615 N 0.11152 0.88148 0.72814 0.0
H616 H 0.62714 0.46995 0.79065 0.0
H617 H 0.6929 0.31163 0.76528 0.0
H618 H 0.5813 0.38737 0.79897 0.0
H619 H 0.72949 0.39588 0.7491 0.0
H620 H 0.65074 0.3383 0.77656 0.0
H621 H 0.66406 0.44276 0.77446 0.0
C622 C 0.62487 0.44604 0.78901 0.0
C623 C 0.60135 0.43079 0.79627 0.0
C624 C 0.66788 0.35087 0.77036 0.0
C625 C 0.6435 0.39945 0.77778 0.0
C626 C 0.69194 0.33568 0.76392 0.0
C627 C 0.7149 0.35159 0.75641 0.0
C628 C 0.66694 0.38217 0.76938 0.0
C629 C 0.71244 0.3827 0.75492 0.0
C630 C 0.64585 0.43053 0.77969 0.0
C631 C 0.59915 0.39991 0.79354 0.0
N632 N 0.68906 0.39697 0.76151 0.0
N633 N 0.62017 0.38515 0.78466 0.0
H634 H 0.61427 0.07142 0.04451 0.0
H635 H 0.60185 0.24058 0.01183 0.0
H636 H 0.5391 0.12722 0.05111 0.0
H637 H 0.68349 0.19494 0.01647 0.0
H638 H 0.57737 0.19557 0.02163 0.0
H639 H 0.639 0.11337 0.03036 0.0
C640 C 0.60292 0.09237 0.04298 0.0
C641 C 0.57445 0.09566 0.04901 0.0
C642 C 0.60064 0.19529 0.02043 0.0
C643 C 0.60249 0.14346 0.0326 0.0
C644 C 0.61466 0.221 0.01478 0.0
C645 C 0.64482 0.22166 0.01352 0.0
C646 C 0.61681 0.16992 0.02488 0.0
C647 C 0.66021 0.19546 0.01738 0.0
C648 C 0.61702 0.11622 0.03482 0.0
C649 C 0.56076 0.12327 0.0464 0.0
N650 N 0.64603 0.17065 0.02302 0.0
N651 N 0.5749 0.146 0.03843 0.0
H652 H 0.90704 0.12615 0.31403 0.0
H653 H 0.81406 0.15408 0.22747 0.0
H654 H 0.91765 0.07489 0.26662 0.0
H655 H 0.80114 0.20041 0.27639 0.0
H656 H 0.85658 0.12973 0.24002 0.0
H657 H 0.87284 0.15826 0.29889 0.0
C658 C 0.9025 0.12188 0.30035 0.0
C659 C 0.91518 0.09766 0.29161 0.0
C660 C 0.84459 0.14547 0.24792 0.0
C661 C 0.87546 0.13414 0.27424 0.0
C662 C 0.82039 0.15947 0.24075 0.0
C663 C 0.80382 0.17901 0.25098 0.0
C664 C 0.85223 0.15114 0.26541 0.0
C665 C 0.81306 0.18521 0.26809 0.0
C666 C 0.88278 0.14014 0.29173 0.0
C667 C 0.90804 0.09299 0.27395 0.0
N668 N 0.83647 0.17114 0.2748 0.0
N669 N 0.8885 0.11095 0.26587 0.0
H670 H 0.96882 0.36065 0.53235 0.0
H671 H 0.80985 0.30032 0.51303 0.0
H672 H 0.89212 0.40949 0.54633 0.0
H673 H 0.88817 0.25344 0.49982 0.0
H674 H 0.8389 0.34349 0.52198 0.0
H675 H 0.93907 0.32421 0.51701 0.0
C676 C 0.94565 0.36375 0.53207 0.0
C677 C 0.93283 0.38783 0.54078 0.0
C678 C 0.84965 0.32384 0.51694 0.0
C679 C 0.89851 0.34612 0.52334 0.0
C680 C 0.8331 0.29924 0.51181 0.0
C681 C 0.84665 0.27312 0.5059 0.0
C682 C 0.87989 0.3222 0.51611 0.0
C683 C 0.87681 0.27295 0.50453 0.0
C684 C 0.92865 0.34299 0.52328 0.0
C685 C 0.90279 0.39116 0.53977 0.0
N686 N 0.89237 0.29698 0.50972 0.0
N687 N 0.88655 0.37027 0.5314 0.0
H688 H 0.56422 0.15255 0.45503 0.0
H689 H 0.69573 0.14469 0.52131 0.0
H690 H 0.607 0.06989 0.46866 0.0
H691 H 0.69237 0.21321 0.48159 0.0
H692 H 0.65204 0.12244 0.50896 0.0
H693 H 0.60169 0.17985 0.47094 0.0
C694 C 0.58128 0.13999 0.46129 0.0
C695 C 0.58222 0.1086 0.46031 0.0
C696 C 0.66067 0.14264 0.50318 0.0
C697 C 0.62425 0.13993 0.47919 0.0
C698 C 0.68543 0.15549 0.51026 0.0
C699 C 0.69781 0.18068 0.50234 0.0
C700 C 0.64789 0.15544 0.48833 0.0
C701 C 0.68361 0.19362 0.48797 0.0
C702 C 0.60246 0.1557 0.4705 0.0
C703 C 0.60466 0.09387 0.46923 0.0
N704 N 0.65936 0.18077 0.48135 0.0
N705 N 0.62464 0.10964 0.47833 0.0
H706 H 0.82812 0.05421 0.7065 0.0
H707 H 0.82496 0.20862 0.7576 0.0
H708 H 0.90385 0.1074 0.7176 0.0
H709 H 0.75805 0.18602 0.72052 0.0
H710 H 0.84934 0.16193 0.75071 0.0
H711 H 0.79815 0.0944 0.71837 0.0
C712 C 0.83858 0.0741 0.71142 0.0
C713 C 0.8688 0.07718 0.71092 0.0
C714 C 0.82909 0.16705 0.74429 0.0
C715 C 0.83452 0.1225 0.72513 0.0
C716 C 0.81506 0.19362 0.74824 0.0
C717 C 0.78964 0.20151 0.73938 0.0
C718 C 0.8175 0.14801 0.73156 0.0
C719 C 0.77779 0.18098 0.72748 0.0
C720 C 0.82139 0.09686 0.71832 0.0
C721 C 0.88088 0.10336 0.71797 0.0
N722 N 0.79199 0.15516 0.72378 0.0
N723 N 0.86373 0.12488 0.72479 0.0
H724 H 0.89958 0.35763 0.94287 0.0
H725 H 0.80791 0.32956 0.0299 0.0
H726 H 0.91513 0.40365 0.99161 0.0
H727 H 0.78623 0.29319 0.97923 0.0
H728 H 0.85244 0.34976 0.0175 0.0
H729 H 0.86331 0.327 0.95743 0.0
C730 C 0.89569 0.36099 0.95671 0.0
C731 C 0.91027 0.38341 0.96601 0.0
C732 C 0.83808 0.33706 0.00916 0.0
C733 C 0.86839 0.34867 0.98271 0.0
C734 C 0.81271 0.3254 0.01624 0.0
C735 C 0.79312 0.31002 0.00553 0.0
C736 C 0.8439 0.33321 0.99125 0.0
C737 C 0.80053 0.30523 0.98793 0.0
C738 C 0.87482 0.34361 0.96499 0.0
C739 C 0.90403 0.38698 0.98387 0.0
N740 N 0.82519 0.31703 0.98132 0.0
N741 N 0.88341 0.36994 0.99162 0.0
H742 H 0.59033 0.42443 0.2441 0.0
H743 H 0.71233 0.30237 0.22798 0.0
H744 H 0.63801 0.41539 0.19588 0.0
H745 H 0.66548 0.31101 0.27655 0.0
H746 H 0.69043 0.34862 0.21768 0.0
H747 H 0.62221 0.38766 0.25772 0.0
C748 C 0.60765 0.41488 0.23642 0.0
C749 C 0.61131 0.42273 0.21877 0.0
C750 C 0.68517 0.34062 0.23068 0.0
C751 C 0.64789 0.38073 0.23426 0.0
C752 C 0.6977 0.31419 0.23658 0.0
C753 C 0.69037 0.30255 0.25305 0.0
C754 C 0.66496 0.35542 0.24125 0.0
C755 C 0.67155 0.31902 0.26369 0.0
C756 C 0.62593 0.39401 0.24423 0.0
C757 C 0.63444 0.41011 0.20954 0.0
N758 N 0.65917 0.34442 0.25751 0.0
N759 N 0.65163 0.38949 0.21734 0.0
H760 H 0.10878 0.87933 0.37994 0.0
H761 H 0.13701 0.84455 0.48123 0.0
H762 H 0.07098 0.92966 0.42223 0.0
H763 H 0.19313 0.8128 0.44018 0.0
H764 H 0.10819 0.87064 0.45932 0.0
H765 H 0.13575 0.84969 0.40148 0.0
C766 C 0.10609 0.88402 0.39376 0.0
C767 C 0.08779 0.90706 0.39934 0.0
C768 C 0.12677 0.85791 0.45509 0.0
C769 C 0.11832 0.8733 0.42394 0.0
C770 C 0.14319 0.84289 0.46759 0.0
C771 C 0.16763 0.82657 0.46254 0.0
C772 C 0.13465 0.85644 0.43737 0.0
C773 C 0.17455 0.82525 0.44466 0.0
C774 C 0.12154 0.86723 0.40601 0.0
C775 C 0.08516 0.91236 0.41737 0.0
N776 N 0.15814 0.84002 0.4327 0.0
N777 N 0.10019 0.89557 0.42902 0.0
H778 H 0.12329 0.59867 0.63768 0.0
H779 H 0.17887 0.59759 0.73689 0.0
H780 H 0.1047 0.52815 0.6746 0.0
H781 H 0.17747 0.67706 0.70489 0.0
H782 H 0.15787 0.56953 0.71263 0.0
H783 H 0.14875 0.62571 0.66083 0.0
C784 C 0.1245 0.58884 0.65061 0.0
C785 C 0.11174 0.56102 0.65413 0.0
C786 C 0.16225 0.59309 0.71089 0.0
C787 C 0.14128 0.59168 0.68059 0.0
C788 C 0.17435 0.60911 0.72472 0.0
C789 C 0.17978 0.63977 0.72295 0.0
C790 C 0.15569 0.60775 0.69513 0.0
C791 C 0.17348 0.65349 0.70686 0.0
C792 C 0.13917 0.60424 0.66379 0.0
C793 C 0.11454 0.54923 0.67111 0.0
N794 N 0.16171 0.63739 0.69357 0.0
N795 N 0.12896 0.56461 0.68367 0.0
H796 H 0.37798 0.5636 0.90479 0.0
H797 H 0.32861 0.71978 0.94505 0.0
H798 H 0.42341 0.64562 0.89408 0.0
H799 H 0.31301 0.63526 0.97051 0.0
H800 H 0.35635 0.69367 0.92237 0.0
H801 H 0.34646 0.59061 0.92504 0.0
C802 C 0.38107 0.58737 0.90658 0.0
C803 C 0.40331 0.60245 0.89784 0.0
C804 C 0.34672 0.68093 0.93291 0.0
C805 C 0.36745 0.63338 0.92088 0.0
C806 C 0.33083 0.69574 0.94578 0.0
C807 C 0.31865 0.67964 0.9597 0.0
C808 C 0.34993 0.64981 0.93384 0.0
C809 C 0.32223 0.64855 0.96007 0.0
C810 C 0.36324 0.6027 0.91819 0.0
C811 C 0.40662 0.6332 0.90071 0.0
N812 N 0.33748 0.63463 0.9473 0.0
N813 N 0.38882 0.64772 0.91198 0.0
H814 H 0.37183 0.95457 0.16481 0.0
H815 H 0.33035 0.80021 0.21121 0.0
H816 H 0.41759 0.87206 0.15622 0.0
H817 H 0.29872 0.88577 0.22868 0.0
H818 H 0.35764 0.82534 0.18819 0.0
H819 H 0.34017 0.92878 0.18554 0.0
C820 C 0.37505 0.93097 0.1672 0.0
C821 C 0.39743 0.91543 0.15886 0.0
C822 C 0.34463 0.83861 0.19701 0.0
C823 C 0.3614 0.88585 0.18254 0.0
C824 C 0.32894 0.82427 0.21013 0.0
C825 C 0.31234 0.84094 0.22197 0.0
C826 C 0.34361 0.86983 0.19564 0.0
C827 C 0.31136 0.87206 0.21991 0.0
C828 C 0.35709 0.91632 0.17908 0.0
C829 C 0.40083 0.88495 0.16254 0.0
N830 N 0.32685 0.88552 0.20702 0.0
N831 N 0.383 0.87115 0.1741 0.0
H832 H 0.05439 0.55689 0.83752 0.0
H833 H 0.17056 0.68017 0.81198 0.0
H834 H 0.10077 0.6074 0.87649 0.0
H835 H 0.1041 0.64989 0.77659 0.0
H836 H 0.14764 0.65184 0.83563 0.0
H837 H 0.07499 0.58859 0.81471 0.0
C838 C 0.06903 0.57464 0.84124 0.0
C839 C 0.07609 0.57945 0.85887 0.0
C840 C 0.138 0.6516 0.82271 0.0
C841 C 0.09969 0.61586 0.83286 0.0
C842 C 0.15109 0.66767 0.8092 0.0
C843 C 0.13926 0.66729 0.79227 0.0
C844 C 0.11317 0.63471 0.81918 0.0
C845 C 0.11396 0.65083 0.78943 0.0
C846 C 0.08061 0.59285 0.82824 0.0
C847 C 0.09478 0.60304 0.86303 0.0
N848 N 0.1019 0.635 0.80271 0.0
N849 N 0.10617 0.62026 0.85008 0.0
H850 H 0.42086 0.62414 0.11723 0.0
H851 H 0.30996 0.59256 0.03966 0.0
H852 H 0.38341 0.53745 0.10788 0.0
H853 H 0.32974 0.68114 0.05838 0.0
H854 H 0.33774 0.57165 0.06399 0.0
H855 H 0.38871 0.64537 0.09507 0.0
C856 C 0.40578 0.60962 0.11053 0.0
C857 C 0.40481 0.57901 0.11434 0.0
C858 C 0.33581 0.59566 0.06283 0.0
C859 C 0.36809 0.60304 0.08895 0.0
C860 C 0.32002 0.60761 0.04893 0.0
C861 C 0.31762 0.63864 0.04694 0.0
C862 C 0.34959 0.61488 0.07472 0.0
C863 C 0.33103 0.65708 0.05939 0.0
C864 C 0.38735 0.62174 0.09796 0.0
C865 C 0.38469 0.56122 0.10542 0.0
N866 N 0.34663 0.64492 0.07265 0.0
N867 N 0.36729 0.57344 0.09301 0.0
H868 H 0.38168 0.8939 0.3739 0.0
H869 H 0.38221 0.83162 0.27587 0.0
H870 H 0.43086 0.93349 0.33196 0.0
H871 H 0.31292 0.81344 0.31208 0.0
H872 H 0.40506 0.86317 0.29793 0.0
H873 H 0.36063 0.85862 0.35285 0.0
C874 C 0.38808 0.89507 0.36027 0.0
C875 C 0.40784 0.91672 0.35459 0.0
C876 C 0.3849 0.85219 0.30106 0.0
C877 C 0.38419 0.87649 0.33061 0.0
C878 C 0.3719 0.83405 0.28851 0.0
C879 C 0.34553 0.82 0.29211 0.0
C880 C 0.37161 0.8561 0.31741 0.0
C881 C 0.33317 0.82401 0.30873 0.0
C882 C 0.37602 0.87507 0.34829 0.0
C883 C 0.41539 0.91739 0.33681 0.0
N884 N 0.34632 0.84172 0.32078 0.0
N885 N 0.40363 0.89751 0.32547 0.0
H886 H 0.03982 0.84511 0.61925 0.0
H887 H 0.17907 0.8532 0.55753 0.0
H888 H 0.09552 0.92211 0.61579 0.0
H889 H 0.11801 0.78042 0.5571 0.0
H890 H 0.15206 0.87625 0.58145 0.0
H891 H 0.07147 0.81866 0.59897 0.0
C892 C 0.05875 0.85644 0.61426 0.0
C893 C 0.06487 0.88598 0.61912 0.0
C894 C 0.14468 0.85515 0.57618 0.0
C895 C 0.10132 0.85575 0.59597 0.0
C896 C 0.16012 0.84194 0.56255 0.0
C897 C 0.15063 0.81496 0.5552 0.0
C898 C 0.11961 0.84124 0.58253 0.0
C899 C 0.12599 0.80135 0.56227 0.0
C900 C 0.07688 0.84128 0.60273 0.0
C901 C 0.09004 0.89931 0.61251 0.0
N902 N 0.11126 0.81471 0.57547 0.0
N903 N 0.10722 0.88417 0.60118 0.0
H904 H 0.57299 0.44423 0.92525 0.0
H905 H 0.68084 0.30593 0.93657 0.0
H906 H 0.60623 0.39359 0.88165 0.0
H907 H 0.64653 0.3574 0.97955 0.0
H908 H 0.65372 0.33735 0.91613 0.0
H909 H 0.60009 0.41242 0.94523 0.0
C910 C 0.58617 0.42654 0.91986 0.0
C911 C 0.58744 0.4217 0.90173 0.0
C912 C 0.65214 0.34172 0.93004 0.0
C913 C 0.61833 0.3848 0.92461 0.0
C914 C 0.6676 0.32379 0.94172 0.0
C915 C 0.66598 0.32904 0.95981 0.0
C916 C 0.63495 0.36506 0.93651 0.0
C917 C 0.64848 0.3525 0.96573 0.0
C918 C 0.60152 0.40822 0.9313 0.0
C919 C 0.60443 0.39799 0.89554 0.0
N920 N 0.6337 0.36962 0.95412 0.0
N921 N 0.61926 0.38045 0.90697 0.0
H922 H 0.57187 0.11509 0.15311 0.0
H923 H 0.70616 0.10339 0.21724 0.0
H924 H 0.63134 0.04092 0.15166 0.0
H925 H 0.66464 0.18699 0.2048 0.0
H926 H 0.67782 0.07915 0.19422 0.0
H927 H 0.60457 0.14121 0.17284 0.0
C928 C 0.59193 0.10439 0.15671 0.0
C929 C 0.59868 0.0756 0.15069 0.0
C930 C 0.67513 0.10285 0.19644 0.0
C931 C 0.63596 0.10525 0.17372 0.0
C932 C 0.69123 0.11668 0.2096 0.0
C933 C 0.68768 0.14723 0.21299 0.0
C934 C 0.65504 0.11961 0.1868 0.0
C935 C 0.6681 0.16339 0.20264 0.0
C936 C 0.61054 0.1193 0.16809 0.0
C937 C 0.62484 0.06277 0.15621 0.0
N938 N 0.65231 0.14932 0.19014 0.0
N939 N 0.64238 0.07757 0.16752 0.0
H940 H 0.88132 0.05868 0.39801 0.0
H941 H 0.84791 0.21918 0.43889 0.0
H942 H 0.93581 0.13534 0.38936 0.0
H943 H 0.81363 0.13696 0.4598 0.0
H944 H 0.87503 0.19031 0.41721 0.0
H945 H 0.8509 0.08881 0.41728 0.0
C946 C 0.8867 0.08195 0.40006 0.0
C947 C 0.91112 0.09456 0.39214 0.0
C948 C 0.86147 0.17866 0.42652 0.0
C949 C 0.87652 0.12908 0.41416 0.0
C950 C 0.84589 0.1951 0.43883 0.0
C951 C 0.8286 0.18042 0.45121 0.0
C952 C 0.85941 0.14739 0.42647 0.0
C953 C 0.82685 0.14917 0.45057 0.0
C954 C 0.86947 0.09906 0.41112 0.0
C955 C 0.91732 0.12472 0.39537 0.0
N956 N 0.84205 0.1337 0.4384 0.0
N957 N 0.90009 0.14101 0.40613 0.0
H958 H 0.95375 0.34713 0.64514 0.0
H959 H 0.8096 0.3476 0.70278 0.0
H960 H 0.89323 0.42029 0.64621 0.0
H961 H 0.8753 0.27962 0.70643 0.0
H962 H 0.837 0.37152 0.67932 0.0
H963 H 0.92251 0.31933 0.66508 0.0
C964 C 0.93389 0.35735 0.64955 0.0
C965 C 0.92624 0.38621 0.64408 0.0
C966 C 0.84532 0.35126 0.68518 0.0
C967 C 0.89022 0.35437 0.6668 0.0
C968 C 0.82965 0.33754 0.69855 0.0
C969 C 0.8403 0.3117 0.70669 0.0
C970 C 0.87181 0.33904 0.67989 0.0
C971 C 0.86637 0.29963 0.70062 0.0
C972 C 0.91599 0.3414 0.66087 0.0
C973 C 0.89992 0.39804 0.64994 0.0
N974 N 0.8813 0.31349 0.68766 0.0
N975 N 0.88296 0.38215 0.66106 0.0
H976 H 0.53851 0.09811 0.32968 0.0
H977 H 0.68454 0.1812 0.30322 0.0
H978 H 0.60517 0.1193 0.36718 0.0
H979 H 0.61064 0.17331 0.26912 0.0
H980 H 0.65687 0.15735 0.32666 0.0
H981 H 0.56571 0.12422 0.30717 0.0
C982 C 0.55876 0.10851 0.33325 0.0
C983 C 0.56939 0.1067 0.35044 0.0
C984 C 0.6467 0.16098 0.31407 0.0
C985 C 0.60105 0.13627 0.32449 0.0
C986 C 0.66248 0.17456 0.30067 0.0
C987 C 0.6499 0.17919 0.28416 0.0
C988 C 0.61824 0.15177 0.31087 0.0
C989 C 0.62123 0.1702 0.28162 0.0
C990 C 0.57438 0.1233 0.32033 0.0
C991 C 0.59621 0.11992 0.35409 0.0
N992 N 0.60644 0.1568 0.2948 0.0
N993 N 0.61114 0.13415 0.34122 0.0
H994 H 0.90921 0.0996 0.60642 0.0
H995 H 0.79023 0.09449 0.53138 0.0
H996 H 0.84689 0.02826 0.60217 0.0
H997 H 0.83308 0.17572 0.54714 0.0
H998 H 0.81276 0.06858 0.55608 0.0
H999 H 0.88333 0.12691 0.5837 0.0
C1000 C 0.88992 0.08976 0.6009 0.0
C1001 C 0.88032 0.06145 0.60628 0.0
C1002 C 0.81706 0.09212 0.55418 0.0
C1003 C 0.85096 0.09246 0.57987 0.0
C1004 C 0.80429 0.1069 0.54006 0.0
C1005 C 0.80983 0.13729 0.53718 0.0
C1006 C 0.83581 0.10776 0.56533 0.0
C1007 C 0.82816 0.15228 0.54888 0.0
C1008 C 0.87524 0.10535 0.58782 0.0
C1009 C 0.85548 0.04971 0.59826 0.0
N1010 N 0.84067 0.13731 0.56236 0.0
N1011 N 0.84178 0.06516 0.5854 0.0
H1012 H 0.93749 0.40769 0.83901 0.0
H1013 H 0.79615 0.30967 0.82115 0.0
H1014 H 0.88221 0.37528 0.88032 0.0
H1015 H 0.85352 0.34135 0.78068 0.0
H1016 H 0.82724 0.33301 0.84315 0.0
H1017 H 0.90702 0.3827 0.81761 0.0
C1018 C 0.91909 0.39505 0.84361 0.0
C1019 C 0.91252 0.39346 0.86153 0.0
C1020 C 0.83301 0.3348 0.82945 0.0
C1021 C 0.87711 0.3651 0.83696 0.0
C1022 C 0.81528 0.32149 0.81688 0.0
C1023 C 0.82222 0.32358 0.79903 0.0
C1024 C 0.85784 0.3503 0.82412 0.0
C1025 C 0.84728 0.33916 0.79428 0.0
C1026 C 0.90154 0.38094 0.83135 0.0
C1027 C 0.88796 0.37731 0.86664 0.0
N1028 N 0.86412 0.35192 0.80673 0.0
N1029 N 0.87113 0.36374 0.85441 0.0
H1030 H 0.58428 0.38651 0.11662 0.0
H1031 H 0.70371 0.39938 0.04248 0.0
H1032 H 0.63884 0.46411 0.111 0.0
H1033 H 0.66522 0.31585 0.05832 0.0
H1034 H 0.68044 0.42383 0.06739 0.0
H1035 H 0.61391 0.36041 0.09529 0.0
C1036 C 0.60272 0.39799 0.11112 0.0
C1037 C 0.60895 0.42769 0.11566 0.0
C1038 C 0.67735 0.40009 0.0655 0.0
C1039 C 0.64266 0.39796 0.09078 0.0
C1040 C 0.69059 0.38613 0.05127 0.0
C1041 C 0.68622 0.35557 0.04823 0.0
C1042 C 0.65937 0.38344 0.07662 0.0
C1043 C 0.66911 0.33948 0.0601 0.0
C1044 C 0.61956 0.38307 0.09883 0.0
C1045 C 0.63284 0.44146 0.10771 0.0
N1046 N 0.65608 0.35367 0.07365 0.0
N1047 N 0.64867 0.42657 0.09555 0.0
loop_
_geom_bond_atom_site_label_1
_geom_bond_atom_site_label_2
_geom_bond_distance
_geom_bond_site_symmetry_2
_ccdc_geom_bond_type
C0 C1 1.384 . S
C0 C2 1.384 . S
C0 H28 0.931 . S
C1 C0 1.384 . S
C1 C4 1.382 . S
C2 C0 1.384 . S
C2 C3 1.381 . S
C2 H29 0.930 . S
C3 C2 1.381 . S
C3 C5 1.381 . S
C3 C6 1.487 . S
C4 C1 1.382 . S
C4 C5 1.387 . S
C4 H30 0.930 . S
C5 C3 1.381 . S
C5 C4 1.387 . S
C5 H31 0.931 1_565 S
C6 C3 1.487 . S
C6 C13 1.399 . S
C6 N44 1.343 1_565 S
C7 C8 1.384 . S
C7 C9 1.384 . S
C7 H32 0.931 . S
C8 C7 1.384 . S
C8 C11 1.382 . S
C9 C7 1.384 . S
C9 C10 1.381 . S
C9 H33 0.930 . S
C10 C9 1.381 . S
C10 C12 1.381 . S
C10 C13 1.487 . S
C11 C8 1.382 . S
C11 C12 1.387 . S
C11 H34 0.930 . S
C12 C10 1.381 . S
C12 C11 1.387 . S
C12 H35 0.931 . S
C13 C6 1.399 . S
C13 C10 1.487 . S
C13 N45 1.343 1_455 S
C14 C15 1.384 . S
C14 C16 1.384 . S
C14 H36 0.931 . S
C15 C14 1.384 . S
C15 C18 1.382 . S
C16 C14 1.384 . S
C16 C17 1.381 . S
C16 H37 0.930 . S
C17 C16 1.381 . S
C17 C19 1.381 . S
C17 C20 1.487 . S
C18 C15 1.382 . S
C18 C19 1.387 . S
C18 H38 0.930 . S
C19 C17 1.381 . S
C19 C18 1.387 . S
C19 H39 0.931 1_545 S
C20 C17 1.487 . S
C20 C27 1.399 . S
C20 N45 1.343 1_545 S
C21 C22 1.384 . S
C21 C23 1.384 . S
C21 H40 0.931 . S
C22 C21 1.384 . S
C22 C25 1.382 . S
C23 C21 1.384 . S
C23 C24 1.381 . S
C23 H41 0.930 . S
C24 C23 1.381 . S
C24 C26 1.381 . S
C24 C27 1.487 . S
C25 C22 1.382 . S
C25 C26 1.387 . S
C25 H42 0.930 . S
C26 C24 1.381 . S
C26 C25 1.387 . S
C26 H43 0.931 . S
C27 C20 1.399 . S
C27 C24 1.487 . S
C27 N44 1.343 1_655 S
H28 C0 0.931 . S
H29 C2 0.930 . S
H30 C4 0.930 . S
H31 C5 0.931 1_545 S
H32 C7 0.931 . S
H33 C9 0.930 . S
H34 C11 0.930 . S
H35 C12 0.931 . S
H36 C14 0.931 . S
H37 C16 0.930 . S
H38 C18 0.930 . S
H39 C19 0.931 1_565 S
H40 C21 0.931 . S
H41 C23 0.930 . S
H42 C25 0.930 . S
H43 C26 0.931 . S
N44 C6 1.343 1_545 S
N44 C27 1.343 1_455 S
N45 C13 1.343 1_655 S
N45 C20 1.343 1_565 S
C46 C47 1.384 . S
C46 C48 1.384 . S
C46 H74 0.931 . S
C47 C46 1.384 . S
C47 C50 1.382 . S
C48 C46 1.384 . S
C48 C49 1.381 . S
C48 H75 0.930 . S
C49 C48 1.381 . S
C49 C51 1.381 . S
C49 C52 1.487 . S
C50 C47 1.382 . S
C50 C51 1.387 . S
C50 H76 0.930 . S
C51 C49 1.381 . S
C51 C50 1.387 . S
C51 H77 0.931 1_655 S
C52 C49 1.487 . S
C52 C59 1.399 . S
C52 N90 1.343 1_655 S
C53 C54 1.384 . S
C53 C55 1.384 . S
C53 H78 0.931 . S
C54 C53 1.384 . S
C54 C57 1.382 . S
C55 C53 1.384 . S
C55 C56 1.381 . S
C55 H79 0.930 . S
C56 C55 1.381 . S
C56 C58 1.381 . S
C56 C59 1.487 . S
C57 C54 1.382 . S
C57 C58 1.387 . S
C57 H80 0.930 . S
C58 C56 1.381 . S
C58 C57 1.387 . S
C58 H81 0.931 . S
C59 C52 1.399 . S
C59 C56 1.487 . S
C59 N91 1.343 . S
C60 C61 1.384 . S
C60 C62 1.384 . S
C60 H82 0.931 . S
C61 C60 1.384 . S
C61 C64 1.382 . S
C62 C60 1.384 . S
C62 C63 1.381 . S
C62 H83 0.930 . S
C63 C62 1.381 . S
C63 C65 1.381 . S
C63 C66 1.487 . S
C64 C61 1.382 . S
C64 C65 1.387 . S
C64 H84 0.930 . S
C65 C63 1.381 . S
C65 C64 1.387 . S
C65 H85 0.931 1_455 S
C66 C63 1.487 . S
C66 C73 1.399 . S
C66 N91 1.343 1_455 S
C67 C68 1.384 . S
C67 C69 1.384 . S
C67 H86 0.931 . S
C68 C67 1.384 . S
C68 C71 1.382 . S
C69 C67 1.384 . S
C69 C70 1.381 . S
C69 H87 0.930 . S
C70 C69 1.381 . S
C70 C72 1.381 . S
C70 C73 1.487 . S
C71 C68 1.382 . S
C71 C72 1.387 . S
C71 H88 0.930 . S
C72 C70 1.381 . S
C72 C71 1.387 . S
C72 H89 0.931 . S
C73 C66 1.399 . S
C73 C70 1.487 . S
C73 N90 1.343 . S
H74 C46 0.931 . S
H75 C48 0.930 . S
H76 C50 0.930 . S
H77 C51 0.931 1_455 S
H78 C53 0.931 . S
H79 C55 0.930 . S
H80 C57 0.930 . S
H81 C58 0.931 . S
H82 C60 0.931 . S
H83 C62 0.930 . S
H84 C64 0.930 . S
H85 C65 0.931 1_655 S
H86 C67 0.931 . S
H87 C69 0.930 . S
H88 C71 0.930 . S
H89 C72 0.931 . S
N90 C52 1.343 1_455 S
N90 C73 1.343 . S
N91 C59 1.343 . S
N91 C66 1.343 1_655 S
C92 C93 1.384 . S
C92 C94 1.384 . S
C92 H120 0.931 . S
C93 C92 1.384 . S
C93 C96 1.382 . S
C94 C92 1.384 . S
C94 C95 1.381 . S
C94 H121 0.930 . S
C95 C94 1.381 . S
C95 C97 1.381 . S
C95 C98 1.487 . S
C96 C93 1.382 . S
C96 C97 1.387 . S
C96 H122 0.930 . S
C97 C95 1.381 . S
C97 C96 1.387 . S
C97 H123 0.931 . S
C98 C95 1.487 . S
C98 C105 1.399 . S
C98 N136 1.343 . S
C99 C100 1.384 . S
C99 C101 1.384 . S
C99 H124 0.931 . S
C100 C99 1.384 . S
C100 C103 1.382 . S
C101 C99 1.384 . S
C101 C102 1.381 . S
C101 H125 0.930 . S
C102 C101 1.381 . S
C102 C104 1.381 . S
C102 C105 1.487 . S
C103 C100 1.382 . S
C103 C104 1.387 . S
C103 H126 0.930 . S
C104 C102 1.381 . S
C104 C103 1.387 . S
C104 H127 0.931 . S
C105 C98 1.399 . S
C105 C102 1.487 . S
C105 N137 1.343 . S
C106 C107 1.384 . S
C106 C108 1.384 . S
C106 H128 0.931 . S
C107 C106 1.384 . S
C107 C110 1.382 . S
C108 C106 1.384 . S
C108 C109 1.381 . S
C108 H129 0.930 . S
C109 C108 1.381 . S
C109 C111 1.381 . S
C109 C112 1.487 . S
C110 C107 1.382 . S
C110 C111 1.387 . S
C110 H130 0.930 . S
C111 C109 1.381 . S
C111 C110 1.387 . S
C111 H131 0.931 . S
C112 C109 1.487 . S
C112 C119 1.399 . S
C112 N137 1.343 . S
C113 C114 1.384 . S
C113 C115 1.384 . S
C113 H132 0.931 . S
C114 C113 1.384 . S
C114 C117 1.382 . S
C115 C113 1.384 . S
C115 C116 1.381 . S
C115 H133 0.930 . S
C116 C115 1.381 . S
C116 C118 1.381 . S
C116 C119 1.487 . S
C117 C114 1.382 . S
C117 C118 1.387 . S
C117 H134 0.930 . S
C118 C116 1.381 . S
C118 C117 1.387 . S
C118 H135 0.931 . S
C119 C112 1.399 . S
C119 C116 1.487 . S
C119 N136 1.343 . S
H120 C92 0.931 . S
H121 C94 0.930 . S
H122 C96 0.930 . S
H123 C97 0.931 . S
H124 C99 0.931 . S
H125 C101 0.930 . S
H126 C103 0.930 . S
H127 C104 0.931 . S
H128 C106 0.931 . S
H129 C108 0.930 . S
H130 C110 0.930 . S
H131 C111 0.931 . S
H132 C113 0.931 . S
H133 C115 0.930 . S
H134 C117 0.930 . S
H135 C118 0.931 . S
N136 C98 1.343 . S
N136 C119 1.343 . S
N137 C105 1.343 . S
N137 C112 1.343 . S
C138 C139 1.384 . S
C138 C140 1.384 . S
C138 H166 0.931 . S
C139 C138 1.384 . S
C139 C142 1.382 . S
C140 C138 1.384 . S
C140 C141 1.381 . S
C140 H167 0.930 . S
C141 C140 1.381 . S
C141 C143 1.381 . S
C141 C144 1.487 . S
C142 C139 1.382 . S
C142 C143 1.387 . S
C142 H168 0.930 . S
C143 C141 1.381 . S
C143 C142 1.387 . S
C143 H169 0.931 . S
C144 C141 1.487 . S
C144 C151 1.399 . S
C144 N182 1.343 1_565 S
C145 C146 1.384 . S
C145 C147 1.384 . S
C145 H170 0.931 . S
C146 C145 1.384 . S
C146 C149 1.382 . S
C147 C145 1.384 . S
C147 C148 1.381 . S
C147 H171 0.930 . S
C148 C147 1.381 . S
C148 C150 1.381 . S
C148 C151 1.487 . S
C149 C146 1.382 . S
C149 C150 1.387 . S
C149 H172 0.930 . S
C150 C148 1.381 . S
C150 C149 1.387 . S
C150 H173 0.931 . S
C151 C144 1.399 . S
C151 C148 1.487 . S
C151 N183 1.343 . S
C152 C153 1.384 . S
C152 C154 1.384 . S
C152 H174 0.931 . S
C153 C152 1.384 . S
C153 C156 1.382 . S
C154 C152 1.384 . S
C154 C155 1.381 . S
C154 H175 0.930 . S
C155 C154 1.381 . S
C155 C157 1.381 . S
C155 C158 1.487 . S
C156 C153 1.382 . S
C156 C157 1.387 . S
C156 H176 0.930 . S
C157 C155 1.381 . S
C157 C156 1.387 . S
C157 H177 0.931 . S
C158 C155 1.487 . S
C158 C165 1.399 . S
C158 N183 1.343 1_545 S
C159 C160 1.384 . S
C159 C161 1.384 . S
C159 H178 0.931 . S
C160 C159 1.384 . S
C160 C163 1.382 . S
C161 C159 1.384 . S
C161 C162 1.381 . S
C161 H179 0.930 . S
C162 C161 1.381 . S
C162 C164 1.381 . S
C162 C165 1.487 . S
C163 C160 1.382 . S
C163 C164 1.387 . S
C163 H180 0.930 . S
C164 C162 1.381 . S
C164 C163 1.387 . S
C164 H181 0.931 . S
C165 C158 1.399 . S
C165 C162 1.487 . S
C165 N182 1.343 . S
H166 C138 0.931 . S
H167 C140 0.930 . S
H168 C142 0.930 . S
H169 C143 0.931 . S
H170 C145 0.931 . S
H171 C147 0.930 . S
H172 C149 0.930 . S
H173 C150 0.931 . S
H174 C152 0.931 . S
H175 C154 0.930 . S
H176 C156 0.930 . S
H177 C157 0.931 . S
H178 C159 0.931 . S
H179 C161 0.930 . S
H180 C163 0.930 . S
H181 C164 0.931 . S
N182 C144 1.343 1_545 S
N182 C165 1.343 . S
N183 C151 1.343 . S
N183 C158 1.343 1_565 S
C184 C185 1.384 . S
C184 C186 1.384 . S
C184 H212 0.931 . S
C185 C184 1.384 . S
C185 C188 1.382 . S
C186 C184 1.384 . S
C186 C187 1.381 . S
C186 H213 0.930 . S
C187 C186 1.381 . S
C187 C189 1.381 . S
C187 C190 1.487 . S
C188 C185 1.382 . S
C188 C189 1.387 . S
C188 H214 0.930 . S
C189 C187 1.381 . S
C189 C188 1.387 . S
C189 H215 0.931 . S
C190 C187 1.487 . S
C190 C197 1.399 . S
C190 N228 1.343 . S
C191 C192 1.384 . S
C191 C193 1.384 . S
C191 H216 0.931 . S
C192 C191 1.384 . S
C192 C195 1.382 . S
C193 C191 1.384 . S
C193 C194 1.381 . S
C193 H217 0.930 . S
C194 C193 1.381 . S
C194 C196 1.381 . S
C194 C197 1.487 . S
C195 C192 1.382 . S
C195 C196 1.387 . S
C195 H218 0.930 . S
C196 C194 1.381 . S
C196 C195 1.387 . S
C196 H219 0.931 . S
C197 C190 1.399 . S
C197 C194 1.487 . S
C197 N229 1.343 1_455 S
C198 C199 1.384 . S
C198 C200 1.384 . S
C198 H220 0.931 . S
C199 C198 1.384 . S
C199 C202 1.382 . S
C200 C198 1.384 . S
C200 C201 1.381 . S
C200 H221 0.930 . S
C201 C200 1.381 . S
C201 C203 1.381 . S
C201 C204 1.487 . S
C202 C199 1.382 . S
C202 C203 1.387 . S
C202 H222 0.930 . S
C203 C201 1.381 . S
C203 C202 1.387 . S
C203 H223 0.931 . S
C204 C201 1.487 . S
C204 C211 1.399 . S
C204 N229 1.343 . S
C205 C206 1.384 . S
C205 C207 1.384 . S
C205 H224 0.931 . S
C206 C205 1.384 . S
C206 C209 1.382 . S
C207 C205 1.384 . S
C207 C208 1.381 . S
C207 H225 0.930 . S
C208 C207 1.381 . S
C208 C210 1.381 . S
C208 C211 1.487 . S
C209 C206 1.382 . S
C209 C210 1.387 . S
C209 H226 0.930 . S
C210 C208 1.381 . S
C210 C209 1.387 . S
C210 H227 0.931 . S
C211 C204 1.399 . S
C211 C208 1.487 . S
C211 N228 1.343 1_655 S
H212 C184 0.931 . S
H213 C186 0.930 . S
H214 C188 0.930 . S
H215 C189 0.931 . S
H216 C191 0.931 . S
H217 C193 0.930 . S
H218 C195 0.930 . S
H219 C196 0.931 . S
H220 C198 0.931 . S
H221 C200 0.930 . S
H222 C202 0.930 . S
H223 C203 0.931 . S
H224 C205 0.931 . S
H225 C207 0.930 . S
H226 C209 0.930 . S
H227 C210 0.931 . S
N228 C190 1.343 . S
N228 C211 1.343 1_455 S
N229 C197 1.343 1_655 S
N229 C204 1.343 . S
C230 C231 1.384 . S
C230 C232 1.384 . S
C230 H258 0.931 . S
C231 C230 1.384 . S
C231 C234 1.382 . S
C232 C230 1.384 . S
C232 C233 1.381 . S
C232 H259 0.930 . S
C233 C232 1.381 . S
C233 C235 1.381 . S
C233 C236 1.487 . S
C234 C231 1.382 . S
C234 C235 1.387 . S
C234 H260 0.930 . S
C235 C233 1.381 . S
C235 C234 1.387 . S
C235 H261 0.931 . S
C236 C233 1.487 . S
C236 C243 1.399 . S
C236 N274 1.343 . S
C237 C238 1.384 . S
C237 C239 1.384 . S
C237 H262 0.931 . S
C238 C237 1.384 . S
C238 C241 1.382 . S
C239 C237 1.384 . S
C239 C240 1.381 . S
C239 H263 0.930 . S
C240 C239 1.381 . S
C240 C242 1.381 . S
C240 C243 1.487 . S
C241 C238 1.382 . S
C241 C242 1.387 . S
C241 H264 0.930 . S
C242 C240 1.381 . S
C242 C241 1.387 . S
C242 H265 0.931 . S
C243 C236 1.399 . S
C243 C240 1.487 . S
C243 N275 1.343 . S
C244 C245 1.384 . S
C244 C246 1.384 . S
C244 H266 0.931 . S
C245 C244 1.384 . S
C245 C248 1.382 . S
C246 C244 1.384 . S
C246 C247 1.381 . S
C246 H267 0.930 . S
C247 C246 1.381 . S
C247 C249 1.381 . S
C247 C250 1.487 . S
C248 C245 1.382 . S
C248 C249 1.387 . S
C248 H268 0.930 . S
C249 C247 1.381 . S
C249 C248 1.387 . S
C249 H269 0.931 . S
C250 C247 1.487 . S
C250 C257 1.399 . S
C250 N275 1.343 . S
C251 C252 1.384 . S
C251 C253 1.384 . S
C251 H270 0.931 . S
C252 C251 1.384 . S
C252 C255 1.382 . S
C253 C251 1.384 . S
C253 C254 1.381 . S
C253 H271 0.930 . S
C254 C253 1.381 . S
C254 C256 1.381 . S
C254 C257 1.487 . S
C255 C252 1.382 . S
C255 C256 1.387 . S
C255 H272 0.930 . S
C256 C254 1.381 . S
C256 C255 1.387 . S
C256 H273 0.931 . S
C257 C250 1.399 . S
C257 C254 1.487 . S
C257 N274 1.343 . S
H258 C230 0.931 . S
H259 C232 0.930 . S
H260 C234 0.930 . S
H261 C235 0.931 . S
H262 C237 0.931 . S
H263 C239 0.930 . S
H264 C241 0.930 . S
H265 C242 0.931 . S
H266 C244 0.931 . S
H267 C246 0.930 . S
H268 C248 0.930 . S
H269 C249 0.931 . S
H270 C251 0.931 . S
H271 C253 0.930 . S
H272 C255 0.930 . S
H273 C256 0.931 . S
N274 C236 1.343 . S
N274 C257 1.343 . S
N275 C243 1.343 . S
N275 C250 1.343 . S
C276 C277 1.384 . S
C276 C278 1.384 . S
C276 H304 0.931 . S
C277 C276 1.384 . S
C277 C280 1.382 . S
C278 C276 1.384 . S
C278 C279 1.381 . S
C278 H305 0.930 . S
C279 C278 1.381 . S
C279 C281 1.381 . S
C279 C282 1.487 . S
C280 C277 1.382 . S
C280 C281 1.387 . S
C280 H306 0.930 . S
C281 C279 1.381 . S
C281 C280 1.387 . S
C281 H307 0.931 1_565 S
C282 C279 1.487 . S
C282 C289 1.399 . S
C282 N320 1.343 1_565 S
C283 C284 1.384 . S
C283 C285 1.384 . S
C283 H308 0.931 . S
C284 C283 1.384 . S
C284 C287 1.382 . S
C285 C283 1.384 . S
C285 C286 1.381 . S
C285 H309 0.930 . S
C286 C285 1.381 . S
C286 C288 1.381 . S
C286 C289 1.487 . S
C287 C284 1.382 . S
C287 C288 1.387 . S
C287 H310 0.930 . S
C288 C286 1.381 . S
C288 C287 1.387 . S
C288 H311 0.931 . S
C289 C282 1.399 . S
C289 C286 1.487 . S
C289 N321 1.343 . S
C290 C291 1.384 . S
C290 C292 1.384 . S
C290 H312 0.931 . S
C291 C290 1.384 . S
C291 C294 1.382 . S
C292 C290 1.384 . S
C292 C293 1.381 . S
C292 H313 0.930 . S
C293 C292 1.381 . S
C293 C295 1.381 . S
C293 C296 1.487 . S
C294 C291 1.382 . S
C294 C295 1.387 . S
C294 H314 0.930 . S
C295 C293 1.381 . S
C295 C294 1.387 . S
C295 H315 0.931 1_545 S
C296 C293 1.487 . S
C296 C303 1.399 . S
C296 N321 1.343 1_545 S
C297 C298 1.384 . S
C297 C299 1.384 . S
C297 H316 0.931 . S
C298 C297 1.384 . S
C298 C301 1.382 . S
C299 C297 1.384 . S
C299 C300 1.381 . S
C299 H317 0.930 . S
C300 C299 1.381 . S
C300 C302 1.381 . S
C300 C303 1.487 . S
C301 C298 1.382 . S
C301 C302 1.387 . S
C301 H318 0.930 . S
C302 C300 1.381 . S
C302 C301 1.387 . S
C302 H319 0.931 . S
C303 C296 1.399 . S
C303 C300 1.487 . S
C303 N320 1.343 . S
H304 C276 0.931 . S
H305 C278 0.930 . S
H306 C280 0.930 . S
H307 C281 0.931 1_545 S
H308 C283 0.931 . S
H309 C285 0.930 . S
H310 C287 0.930 . S
H311 C288 0.931 . S
H312 C290 0.931 . S
H313 C292 0.930 . S
H314 C294 0.930 . S
H315 C295 0.931 1_565 S
H316 C297 0.931 . S
H317 C299 0.930 . S
H318 C301 0.930 . S
H319 C302 0.931 . S
N320 C282 1.343 1_545 S
N320 C303 1.343 . S
N321 C289 1.343 . S
N321 C296 1.343 1_565 S
C322 C323 1.384 . S
C322 C324 1.384 . S
C322 H350 0.931 . S
C323 C322 1.384 . S
C323 C326 1.382 . S
C324 C322 1.384 . S
C324 C325 1.381 . S
C324 H351 0.930 . S
C325 C324 1.381 . S
C325 C327 1.381 . S
C325 C328 1.487 . S
C326 C323 1.382 . S
C326 C327 1.387 . S
C326 H352 0.930 . S
C327 C325 1.381 . S
C327 C326 1.387 . S
C327 H353 0.931 1_455 S
C328 C325 1.487 . S
C328 C335 1.399 . S
C328 N366 1.343 1_455 S
C329 C330 1.384 . S
C329 C331 1.384 . S
C329 H354 0.931 . S
C330 C329 1.384 . S
C330 C333 1.382 . S
C331 C329 1.384 . S
C331 C332 1.381 . S
C331 H355 0.930 . S
C332 C331 1.381 . S
C332 C334 1.381 . S
C332 C335 1.487 . S
C333 C330 1.382 . S
C333 C334 1.387 . S
C333 H356 0.930 . S
C334 C332 1.381 . S
C334 C333 1.387 . S
C334 H357 0.931 . S
C335 C328 1.399 . S
C335 C332 1.487 . S
C335 N367 1.343 1_565 S
C336 C337 1.384 . S
C336 C338 1.384 . S
C336 H358 0.931 . S
C337 C336 1.384 . S
C337 C340 1.382 . S
C338 C336 1.384 . S
C338 C339 1.381 . S
C338 H359 0.930 . S
C339 C338 1.381 . S
C339 C341 1.381 . S
C339 C342 1.487 . S
C340 C337 1.382 . S
C340 C341 1.387 . S
C340 H360 0.930 . S
C341 C339 1.381 . S
C341 C340 1.387 . S
C341 H361 0.931 1_655 S
C342 C339 1.487 . S
C342 C349 1.399 . S
C342 N367 1.343 1_655 S
C343 C344 1.384 . S
C343 C345 1.384 . S
C343 H362 0.931 . S
C344 C343 1.384 . S
C344 C347 1.382 . S
C345 C343 1.384 . S
C345 C346 1.381 . S
C345 H363 0.930 . S
C346 C345 1.381 . S
C346 C348 1.381 . S
C346 C349 1.487 . S
C347 C344 1.382 . S
C347 C348 1.387 . S
C347 H364 0.930 . S
C348 C346 1.381 . S
C348 C347 1.387 . S
C348 H365 0.931 . S
C349 C342 1.399 . S
C349 C346 1.487 . S
C349 N366 1.343 1_545 S
H350 C322 0.931 . S
H351 C324 0.930 . S
H352 C326 0.930 . S
H353 C327 0.931 1_655 S
H354 C329 0.931 . S
H355 C331 0.930 . S
H356 C333 0.930 . S
H357 C334 0.931 . S
H358 C336 0.931 . S
H359 C338 0.930 . S
H360 C340 0.930 . S
H361 C341 0.931 1_455 S
H362 C343 0.931 . S
H363 C345 0.930 . S
H364 C347 0.930 . S
H365 C348 0.931 . S
N366 C328 1.343 1_655 S
N366 C349 1.343 1_565 S
N367 C335 1.343 1_545 S
N367 C342 1.343 1_455 S
C368 O369 1.179 . S
C368 O375 1.181 1_554 S
O369 C368 1.179 . S
O370 Zn371 1.899 . S
O370 C378 1.284 . S
Zn371 O370 1.899 . S
Zn371 O372 2.032 1_554 S
Zn371 O375 2.074 1_554 S
Zn371 O380 1.977 . S
O372 Zn371 2.032 1_556 S
O372 C376 1.278 . S
C373 O374 1.203 . S
C373 O380 1.267 . S
O374 C373 1.203 . S
O375 C368 1.181 1_556 S
O375 Zn371 2.074 1_556 S
C376 O372 1.278 . S
C376 O377 1.211 . S
O377 C376 1.211 . S
C378 O370 1.284 . S
C378 O379 1.273 . S
O379 C378 1.273 . S
O380 Zn371 1.977 . S
O380 C373 1.267 . S
C381 O382 1.160 . S
C381 O388 1.185 . S
O382 C381 1.160 . S
O383 Zn384 1.899 . S
O383 C391 1.284 . S
Zn384 O383 1.899 . S
Zn384 O385 2.032 . S
Zn384 O388 2.086 . S
Zn384 O393 1.977 . S
O385 Zn384 2.032 . S
O385 C389 1.278 . S
C386 O387 1.203 . S
C386 O393 1.267 . S
O387 C386 1.203 . S
O388 C381 1.185 . S
O388 Zn384 2.086 . S
C389 O385 1.278 . S
C389 O390 1.211 . S
O390 C389 1.211 . S
C391 O383 1.284 . S
C391 O392 1.273 . S
O392 C391 1.273 . S
O393 Zn384 1.977 . S
O393 C386 1.267 . S
C394 O395 1.160 . S
C394 O401 1.185 . S
O395 C394 1.160 . S
O396 Zn397 1.899 . S
O396 C404 1.284 . S
Zn397 O396 1.899 . S
Zn397 O398 2.032 . S
Zn397 O401 2.086 . S
Zn397 O406 1.977 . S
O398 Zn397 2.032 . S
O398 C402 1.278 . S
C399 O400 1.203 . S
C399 O406 1.267 . S
O400 C399 1.203 . S
O401 C394 1.185 . S
O401 Zn397 2.086 . S
C402 O398 1.278 . S
C402 O403 1.211 . S
O403 C402 1.211 . S
C404 O396 1.284 . S
C404 O405 1.273 . S
O405 C404 1.273 . S
O406 Zn397 1.977 . S
O406 C399 1.267 . S
C407 O408 1.160 . S
C407 O414 1.185 . S
O408 C407 1.160 . S
O409 Zn410 1.899 . S
O409 C417 1.284 . S
Zn410 O409 1.899 . S
Zn410 O411 2.032 . S
Zn410 O414 2.086 . S
Zn410 O419 1.977 . S
O411 Zn410 2.032 . S
O411 C415 1.278 . S
C412 O413 1.203 . S
C412 O419 1.267 . S
O413 C412 1.203 . S
O414 C407 1.185 . S
O414 Zn410 2.086 . S
C415 O411 1.278 . S
C415 O416 1.211 . S
O416 C415 1.211 . S
C417 O409 1.284 . S
C417 O418 1.273 . S
O418 C417 1.273 . S
O419 Zn410 1.977 . S
O419 C412 1.267 . S
C420 O421 1.160 . S
C420 O427 1.185 . S
O421 C420 1.160 . S
O422 Zn423 1.899 . S
O422 C430 1.284 . S
Zn423 O422 1.899 . S
Zn423 O424 2.032 . S
Zn423 O427 2.086 . S
Zn423 O432 1.977 . S
O424 Zn423 2.032 . S
O424 C428 1.278 . S
C425 O426 1.203 . S
C425 O432 1.267 . S
O426 C425 1.203 . S
O427 C420 1.185 . S
O427 Zn423 2.086 . S
C428 O424 1.278 . S
C428 O429 1.211 . S
O429 C428 1.211 . S
C430 O422 1.284 . S
C430 O431 1.273 . S
O431 C430 1.273 . S
O432 Zn423 1.977 . S
O432 C425 1.267 . S
C433 O434 1.160 . S
C433 O440 1.185 . S
O434 C433 1.160 . S
O435 Zn436 1.899 . S
O435 C443 1.284 . S
Zn436 O435 1.899 . S
Zn436 O437 2.032 . S
Zn436 O440 2.086 . S
Zn436 O445 1.977 . S
O437 Zn436 2.032 . S
O437 C441 1.278 . S
C438 O439 1.203 . S
C438 O445 1.267 . S
O439 C438 1.203 . S
O440 C433 1.185 . S
O440 Zn436 2.086 . S
C441 O437 1.278 . S
C441 O442 1.211 . S
O442 C441 1.211 . S
C443 O435 1.284 . S
C443 O444 1.273 . S
O444 C443 1.273 . S
O445 Zn436 1.977 . S
O445 C438 1.267 . S
C446 O447 1.179 . S
C446 O453 1.181 1_554 S
O447 C446 1.179 . S
O448 Zn449 1.899 . S
O448 C456 1.284 . S
Zn449 O448 1.899 . S
Zn449 O450 2.032 1_554 S
Zn449 O453 2.074 1_554 S
Zn449 O458 1.977 . S
O450 Zn449 2.032 1_556 S
O450 C454 1.278 . S
C451 O452 1.203 . S
C451 O458 1.267 . S
O452 C451 1.203 . S
O453 C446 1.181 1_556 S
O453 Zn449 2.074 1_556 S
C454 O450 1.278 . S
C454 O455 1.211 . S
O455 C454 1.211 . S
C456 O448 1.284 . S
C456 O457 1.273 . S
O457 C456 1.273 . S
O458 Zn449 1.977 . S
O458 C451 1.267 . S
C459 O460 1.160 . S
C459 O466 1.185 . S
O460 C459 1.160 . S
O461 Zn462 1.899 . S
O461 C469 1.284 . S
Zn462 O461 1.899 . S
Zn462 O463 2.032 . S
Zn462 O466 2.086 . S
Zn462 O471 1.977 . S
O463 Zn462 2.032 . S
O463 C467 1.278 . S
C464 O465 1.203 . S
C464 O471 1.267 . S
O465 C464 1.203 . S
O466 C459 1.185 . S
O466 Zn462 2.086 . S
C467 O463 1.278 . S
C467 O468 1.211 . S
O468 C467 1.211 . S
C469 O461 1.284 . S
C469 O470 1.273 . S
O470 C469 1.273 . S
O471 Zn462 1.977 . S
O471 C464 1.267 . S
H472 C478 0.930 . S
H473 C482 0.930 . S
H474 C487 0.929 . S
H475 C485 0.929 . S
H476 C480 0.929 . S
H477 C486 0.929 . S
C478 H472 0.930 . S
C478 C479 1.367 . S
C478 C486 1.378 . S
C479 C478 1.367 . S
C479 C487 1.433 . S
C480 H476 0.929 . S
C480 C482 1.378 . S
C480 C484 1.350 . S
C481 C484 1.463 . S
C481 C486 1.350 . S
C481 N489 1.427 . S
C482 H473 0.930 . S
C482 C480 1.378 . S
C482 C483 1.367 . S
C483 C482 1.367 . S
C483 C485 1.433 . S
C484 C480 1.350 . S
C484 C481 1.463 . S
C484 N488 1.427 . S
C485 H475 0.929 . S
C485 C483 1.433 . S
C485 N488 1.384 . S
C486 H477 0.929 . S
C486 C478 1.378 . S
C486 C481 1.350 . S
C487 H474 0.929 . S
C487 C479 1.433 . S
C487 N489 1.384 . S
N488 C484 1.427 . S
N488 C485 1.384 . S
N489 C481 1.427 . S
N489 C487 1.384 . S
H490 C496 0.930 . S
H491 C500 0.930 . S
H492 C505 0.929 . S
H493 C503 0.929 . S
H494 C498 0.929 . S
H495 C504 0.929 . S
C496 H490 0.930 . S
C496 C497 1.367 . S
C496 C504 1.378 . S
C497 C496 1.367 . S
C497 C505 1.433 . S
C498 H494 0.929 . S
C498 C500 1.378 . S
C498 C502 1.350 . S
C499 C502 1.463 . S
C499 C504 1.350 . S
C499 N507 1.427 . S
C500 H491 0.930 . S
C500 C498 1.378 . S
C500 C501 1.367 . S
C501 C500 1.367 . S
C501 C503 1.433 . S
C502 C498 1.350 . S
C502 C499 1.463 . S
C502 N506 1.427 . S
C503 H493 0.929 . S
C503 C501 1.433 . S
C503 N506 1.384 . S
C504 H495 0.929 . S
C504 C496 1.378 . S
C504 C499 1.350 . S
C505 H492 0.929 . S
C505 C497 1.433 . S
C505 N507 1.384 . S
N506 C502 1.427 . S
N506 C503 1.384 . S
N507 C499 1.427 . S
N507 C505 1.384 . S
H508 C514 0.930 . S
H509 C518 0.930 . S
H510 C523 0.929 . S
H511 C521 0.929 . S
H512 C516 0.929 . S
H513 C522 0.929 . S
C514 H508 0.930 . S
C514 C515 1.367 . S
C514 C522 1.378 . S
C515 C514 1.367 . S
C515 C523 1.433 . S
C516 H512 0.929 . S
C516 C518 1.378 . S
C516 C520 1.350 . S
C517 C520 1.463 . S
C517 C522 1.350 . S
C517 N525 1.427 . S
C518 H509 0.930 . S
C518 C516 1.378 . S
C518 C519 1.367 . S
C519 C518 1.367 . S
C519 C521 1.433 . S
C520 C516 1.350 . S
C520 C517 1.463 . S
C520 N524 1.427 . S
C521 H511 0.929 . S
C521 C519 1.433 . S
C521 N524 1.384 . S
C522 H513 0.929 . S
C522 C514 1.378 . S
C522 C517 1.350 . S
C523 H510 0.929 . S
C523 C515 1.433 . S
C523 N525 1.384 . S
N524 C520 1.427 . S
N524 C521 1.384 . S
N525 C517 1.427 . S
N525 C523 1.384 . S
H526 C532 0.930 . S
H527 C536 0.930 1_556 S
H528 C541 0.929 . S
H529 C539 0.929 . S
H530 C534 0.929 1_556 S
H531 C540 0.929 . S
C532 H526 0.930 . S
C532 C533 1.367 . S
C532 C540 1.378 . S
C533 C532 1.367 . S
C533 C541 1.433 . S
C534 H530 0.929 1_554 S
C534 C536 1.378 . S
C534 C538 1.350 . S
C535 C538 1.463 . S
C535 C540 1.350 . S
C535 N543 1.427 . S
C536 H527 0.930 1_554 S
C536 C534 1.378 . S
C536 C537 1.367 . S
C537 C536 1.367 . S
C537 C539 1.433 . S
C538 C534 1.350 . S
C538 C535 1.463 . S
C538 N542 1.427 . S
C539 H529 0.929 . S
C539 C537 1.433 . S
C539 N542 1.384 . S
C540 H531 0.929 . S
C540 C532 1.378 . S
C540 C535 1.350 . S
C541 H528 0.929 . S
C541 C533 1.433 . S
C541 N543 1.384 . S
N542 C538 1.427 . S
N542 C539 1.384 . S
N543 C535 1.427 . S
N543 C541 1.384 . S
H544 C550 0.930 . S
H545 C554 0.930 . S
H546 C559 0.929 . S
H547 C557 0.950 . S
H548 C552 0.929 . S
H549 C558 0.929 . S
C550 H544 0.930 . S
C550 C551 1.367 . S
C550 C558 1.378 . S
C551 C550 1.367 . S
C551 C559 1.433 . S
C552 H548 0.929 . S
C552 C554 1.378 . S
C552 C556 1.350 . S
C553 C556 1.463 . S
C553 C558 1.350 . S
C553 N561 1.427 . S
C554 H545 0.930 . S
C554 C552 1.378 . S
C554 C555 1.367 . S
C555 C554 1.367 . S
C555 C557 1.421 1_556 S
C556 C552 1.350 . S
C556 C553 1.463 . S
C556 N560 1.427 . S
C557 H547 0.950 . S
C557 C555 1.421 1_554 S
C557 N560 1.375 1_554 S
C558 H549 0.929 . S
C558 C550 1.378 . S
C558 C553 1.350 . S
C559 H546 0.929 . S
C559 C551 1.433 . S
C559 N561 1.384 . S
N560 C556 1.427 . S
N560 C557 1.375 1_556 S
N561 C553 1.427 . S
N561 C559 1.384 . S
H562 C568 0.930 . S
H563 C572 0.930 . S
H564 C577 0.929 . S
H565 C575 0.929 . S
H566 C570 0.929 . S
H567 C576 0.929 . S
C568 H562 0.930 . S
C568 C569 1.367 . S
C568 C576 1.378 . S
C569 C568 1.367 . S
C569 C577 1.433 . S
C570 H566 0.929 . S
C570 C572 1.378 . S
C570 C574 1.350 . S
C571 C574 1.463 . S
C571 C576 1.350 . S
C571 N579 1.427 . S
C572 H563 0.930 . S
C572 C570 1.378 . S
C572 C573 1.367 . S
C573 C572 1.367 . S
C573 C575 1.433 . S
C574 C570 1.350 . S
C574 C571 1.463 . S
C574 N578 1.427 . S
C575 H565 0.929 . S
C575 C573 1.433 . S
C575 N578 1.384 . S
C576 H567 0.929 . S
C576 C568 1.378 . S
C576 C571 1.350 . S
C577 H564 0.929 . S
C577 C569 1.433 . S
C577 N579 1.384 . S
N578 C574 1.427 . S
N578 C575 1.384 . S
N579 C571 1.427 . S
N579 C577 1.384 . S
H580 C586 0.930 . S
H581 C590 0.930 . S
H582 C595 0.929 . S
H583 C593 0.929 . S
H584 C588 0.929 . S
H585 C594 0.929 . S
C586 H580 0.930 . S
C586 C587 1.367 . S
C586 C594 1.378 . S
C587 C586 1.367 . S
C587 C595 1.433 . S
C588 H584 0.929 . S
C588 C590 1.378 . S
C588 C592 1.350 . S
C589 C592 1.463 . S
C589 C594 1.350 . S
C589 N597 1.427 . S
C590 H581 0.930 . S
C590 C588 1.378 . S
C590 C591 1.367 . S
C591 C590 1.367 . S
C591 C593 1.433 . S
C592 C588 1.350 . S
C592 C589 1.463 . S
C592 N596 1.427 . S
C593 H583 0.929 . S
C593 C591 1.433 . S
C593 N596 1.384 . S
C594 H585 0.929 . S
C594 C586 1.378 . S
C594 C589 1.350 . S
C595 H582 0.929 . S
C595 C587 1.433 . S
C595 N597 1.384 . S
N596 C592 1.427 . S
N596 C593 1.384 . S
N597 C589 1.427 . S
N597 C595 1.384 . S
H598 C604 0.930 . S
H599 C608 0.930 . S
H600 C613 0.929 . S
H601 C611 0.929 . S
H602 C606 0.929 . S
H603 C612 0.929 . S
C604 H598 0.930 . S
C604 C605 1.367 . S
C604 C612 1.378 . S
C605 C604 1.367 . S
C605 C613 1.433 . S
C606 H602 0.929 . S
C606 C608 1.378 . S
C606 C610 1.350 . S
C607 C610 1.463 . S
C607 C612 1.350 . S
C607 N615 1.427 . S
C608 H599 0.930 . S
C608 C606 1.378 . S
C608 C609 1.367 . S
C609 C608 1.367 . S
C609 C611 1.433 . S
C610 C606 1.350 . S
C610 C607 1.463 . S
C610 N614 1.427 . S
C611 H601 0.929 . S
C611 C609 1.433 . S
C611 N614 1.384 . S
C612 H603 0.929 . S
C612 C604 1.378 . S
C612 C607 1.350 . S
C613 H600 0.929 . S
C613 C605 1.433 . S
C613 N615 1.384 . S
N614 C610 1.427 . S
N614 C611 1.384 . S
N615 C607 1.427 . S
N615 C613 1.384 . S
H616 C622 0.930 . S
H617 C626 0.930 . S
H618 C631 0.929 . S
H619 C629 0.929 . S
H620 C624 0.929 . S
H621 C630 0.929 . S
C622 H616 0.930 . S
C622 C623 1.367 . S
C622 C630 1.378 . S
C623 C622 1.367 . S
C623 C631 1.433 . S
C624 H620 0.929 . S
C624 C626 1.378 . S
C624 C628 1.350 . S
C625 C628 1.463 . S
C625 C630 1.350 . S
C625 N633 1.427 . S
C626 H617 0.930 . S
C626 C624 1.378 . S
C626 C627 1.367 . S
C627 C626 1.367 . S
C627 C629 1.433 . S
C628 C624 1.350 . S
C628 C625 1.463 . S
C628 N632 1.427 . S
C629 H619 0.929 . S
C629 C627 1.433 . S
C629 N632 1.384 . S
C630 H621 0.929 . S
C630 C622 1.378 . S
C630 C625 1.350 . S
C631 H618 0.929 . S
C631 C623 1.433 . S
C631 N633 1.384 . S
N632 C628 1.427 . S
N632 C629 1.384 . S
N633 C625 1.427 . S
N633 C631 1.384 . S
H634 C640 0.930 . S
H635 C644 0.930 . S
H636 C649 0.929 . S
H637 C647 0.929 . S
H638 C642 0.929 . S
H639 C648 0.929 . S
C640 H634 0.930 . S
C640 C641 1.367 . S
C640 C648 1.378 . S
C641 C640 1.367 . S
C641 C649 1.433 . S
C642 H638 0.929 . S
C642 C644 1.378 . S
C642 C646 1.350 . S
C643 C646 1.463 . S
C643 C648 1.350 . S
C643 N651 1.427 . S
C644 H635 0.930 . S
C644 C642 1.378 . S
C644 C645 1.367 . S
C645 C644 1.367 . S
C645 C647 1.433 . S
C646 C642 1.350 . S
C646 C643 1.463 . S
C646 N650 1.427 . S
C647 H637 0.929 . S
C647 C645 1.433 . S
C647 N650 1.384 . S
C648 H639 0.929 . S
C648 C640 1.378 . S
C648 C643 1.350 . S
C649 H636 0.929 . S
C649 C641 1.433 . S
C649 N651 1.384 . S
N650 C646 1.427 . S
N650 C647 1.384 . S
N651 C643 1.427 . S
N651 C649 1.384 . S
H652 C658 0.930 . S
H653 C662 0.930 . S
H654 C667 0.929 . S
H655 C665 0.929 . S
H656 C660 0.929 . S
H657 C666 0.929 . S
C658 H652 0.930 . S
C658 C659 1.367 . S
C658 C666 1.378 . S
C659 C658 1.367 . S
C659 C667 1.433 . S
C660 H656 0.929 . S
C660 C662 1.378 . S
C660 C664 1.350 . S
C661 C664 1.463 . S
C661 C666 1.350 . S
C661 N669 1.427 . S
C662 H653 0.930 . S
C662 C660 1.378 . S
C662 C663 1.367 . S
C663 C662 1.367 . S
C663 C665 1.433 . S
C664 C660 1.350 . S
C664 C661 1.463 . S
C664 N668 1.427 . S
C665 H655 0.929 . S
C665 C663 1.433 . S
C665 N668 1.384 . S
C666 H657 0.929 . S
C666 C658 1.378 . S
C666 C661 1.350 . S
C667 H654 0.929 . S
C667 C659 1.433 . S
C667 N669 1.384 . S
N668 C664 1.427 . S
N668 C665 1.384 . S
N669 C661 1.427 . S
N669 C667 1.384 . S
H670 C676 0.930 . S
H671 C680 0.930 . S
H672 C685 0.929 . S
H673 C683 0.929 . S
H674 C678 0.929 . S
H675 C684 0.929 . S
C676 H670 0.930 . S
C676 C677 1.367 . S
C676 C684 1.378 . S
C677 C676 1.367 . S
C677 C685 1.433 . S
C678 H674 0.929 . S
C678 C680 1.378 . S
C678 C682 1.350 . S
C679 C682 1.463 . S
C679 C684 1.350 . S
C679 N687 1.427 . S
C680 H671 0.930 . S
C680 C678 1.378 . S
C680 C681 1.367 . S
C681 C680 1.367 . S
C681 C683 1.433 . S
C682 C678 1.350 . S
C682 C679 1.463 . S
C682 N686 1.427 . S
C683 H673 0.929 . S
C683 C681 1.433 . S
C683 N686 1.384 . S
C684 H675 0.929 . S
C684 C676 1.378 . S
C684 C679 1.350 . S
C685 H672 0.929 . S
C685 C677 1.433 . S
C685 N687 1.384 . S
N686 C682 1.427 . S
N686 C683 1.384 . S
N687 C679 1.427 . S
N687 C685 1.384 . S
H688 C694 0.930 . S
H689 C698 0.930 . S
H690 C703 0.929 . S
H691 C701 0.929 . S
H692 C696 0.929 . S
H693 C702 0.929 . S
C694 H688 0.930 . S
C694 C695 1.367 . S
C694 C702 1.378 . S
C695 C694 1.367 . S
C695 C703 1.433 . S
C696 H692 0.929 . S
C696 C698 1.378 . S
C696 C700 1.350 . S
C697 C700 1.463 . S
C697 C702 1.350 . S
C697 N705 1.427 . S
C698 H689 0.930 . S
C698 C696 1.378 . S
C698 C699 1.367 . S
C699 C698 1.367 . S
C699 C701 1.433 . S
C700 C696 1.350 . S
C700 C697 1.463 . S
C700 N704 1.427 . S
C701 H691 0.929 . S
C701 C699 1.433 . S
C701 N704 1.384 . S
C702 H693 0.929 . S
C702 C694 1.378 . S
C702 C697 1.350 . S
C703 H690 0.929 . S
C703 C695 1.433 . S
C703 N705 1.384 . S
N704 C700 1.427 . S
N704 C701 1.384 . S
N705 C697 1.427 . S
N705 C703 1.384 . S
H706 C712 0.930 . S
H707 C716 0.930 . S
H708 C721 0.929 . S
H709 C719 0.929 . S
H710 C714 0.929 . S
H711 C720 0.929 . S
C712 H706 0.930 . S
C712 C713 1.367 . S
C712 C720 1.378 . S
C713 C712 1.367 . S
C713 C721 1.433 . S
C714 H710 0.929 . S
C714 C716 1.378 . S
C714 C718 1.350 . S
C715 C718 1.463 . S
C715 C720 1.350 . S
C715 N723 1.427 . S
C716 H707 0.930 . S
C716 C714 1.378 . S
C716 C717 1.367 . S
C717 C716 1.367 . S
C717 C719 1.433 . S
C718 C714 1.350 . S
C718 C715 1.463 . S
C718 N722 1.427 . S
C719 H709 0.929 . S
C719 C717 1.433 . S
C719 N722 1.384 . S
C720 H711 0.929 . S
C720 C712 1.378 . S
C720 C715 1.350 . S
C721 H708 0.929 . S
C721 C713 1.433 . S
C721 N723 1.384 . S
N722 C718 1.427 . S
N722 C719 1.384 . S
N723 C715 1.427 . S
N723 C721 1.384 . S
H724 C730 0.930 . S
H725 C734 0.930 . S
H726 C739 0.929 . S
H727 C737 0.929 . S
H728 C732 0.929 . S
H729 C738 0.929 . S
C730 H724 0.930 . S
C730 C731 1.367 . S
C730 C738 1.378 . S
C731 C730 1.367 . S
C731 C739 1.433 . S
C732 H728 0.929 . S
C732 C734 1.378 . S
C732 C736 1.350 1_554 S
C733 C736 1.463 . S
C733 C738 1.350 . S
C733 N741 1.427 . S
C734 H725 0.930 . S
C734 C732 1.378 . S
C734 C735 1.367 1_554 S
C735 C734 1.367 1_556 S
C735 C737 1.433 . S
C736 C732 1.350 1_556 S
C736 C733 1.463 . S
C736 N740 1.427 . S
C737 H727 0.929 . S
C737 C735 1.433 . S
C737 N740 1.384 . S
C738 H729 0.929 . S
C738 C730 1.378 . S
C738 C733 1.350 . S
C739 H726 0.929 . S
C739 C731 1.433 . S
C739 N741 1.384 . S
N740 C736 1.427 . S
N740 C737 1.384 . S
N741 C733 1.427 . S
N741 C739 1.384 . S
H742 C748 0.930 . S
H743 C752 0.930 . S
H744 C757 0.929 . S
H745 C755 0.929 . S
H746 C750 0.929 . S
H747 C756 0.929 . S
C748 H742 0.930 . S
C748 C749 1.367 . S
C748 C756 1.378 . S
C749 C748 1.367 . S
C749 C757 1.433 . S
C750 H746 0.929 . S
C750 C752 1.378 . S
C750 C754 1.350 . S
C751 C754 1.463 . S
C751 C756 1.350 . S
C751 N759 1.427 . S
C752 H743 0.930 . S
C752 C750 1.378 . S
C752 C753 1.367 . S
C753 C752 1.367 . S
C753 C755 1.433 . S
C754 C750 1.350 . S
C754 C751 1.463 . S
C754 N758 1.427 . S
C755 H745 0.929 . S
C755 C753 1.433 . S
C755 N758 1.384 . S
C756 H747 0.929 . S
C756 C748 1.378 . S
C756 C751 1.350 . S
C757 H744 0.929 . S
C757 C749 1.433 . S
C757 N759 1.384 . S
N758 C754 1.427 . S
N758 C755 1.384 . S
N759 C751 1.427 . S
N759 C757 1.384 . S
H760 C766 0.930 . S
H761 C770 0.930 . S
H762 C775 0.929 . S
H763 C773 0.929 . S
H764 C768 0.929 . S
H765 C774 0.929 . S
C766 H760 0.930 . S
C766 C767 1.367 . S
C766 C774 1.378 . S
C767 C766 1.367 . S
C767 C775 1.433 . S
C768 H764 0.929 . S
C768 C770 1.378 . S
C768 C772 1.350 . S
C769 C772 1.463 . S
C769 C774 1.350 . S
C769 N777 1.427 . S
C770 H761 0.930 . S
C770 C768 1.378 . S
C770 C771 1.367 . S
C771 C770 1.367 . S
C771 C773 1.433 . S
C772 C768 1.350 . S
C772 C769 1.463 . S
C772 N776 1.427 . S
C773 H763 0.929 . S
C773 C771 1.433 . S
C773 N776 1.384 . S
C774 H765 0.929 . S
C774 C766 1.378 . S
C774 C769 1.350 . S
C775 H762 0.929 . S
C775 C767 1.433 . S
C775 N777 1.384 . S
N776 C772 1.427 . S
N776 C773 1.384 . S
N777 C769 1.427 . S
N777 C775 1.384 . S
H778 C784 0.930 . S
H779 C788 0.930 . S
H780 C793 0.929 . S
H781 C791 0.929 . S
H782 C786 0.929 . S
H783 C792 0.929 . S
C784 H778 0.930 . S
C784 C785 1.367 . S
C784 C792 1.378 . S
C785 C784 1.367 . S
C785 C793 1.433 . S
C786 H782 0.929 . S
C786 C788 1.378 . S
C786 C790 1.350 . S
C787 C790 1.463 . S
C787 C792 1.350 . S
C787 N795 1.427 . S
C788 H779 0.930 . S
C788 C786 1.378 . S
C788 C789 1.367 . S
C789 C788 1.367 . S
C789 C791 1.433 . S
C790 C786 1.350 . S
C790 C787 1.463 . S
C790 N794 1.427 . S
C791 H781 0.929 . S
C791 C789 1.433 . S
C791 N794 1.384 . S
C792 H783 0.929 . S
C792 C784 1.378 . S
C792 C787 1.350 . S
C793 H780 0.929 . S
C793 C785 1.433 . S
C793 N795 1.384 . S
N794 C790 1.427 . S
N794 C791 1.384 . S
N795 C787 1.427 . S
N795 C793 1.384 . S
H796 C802 0.930 . S
H797 C806 0.930 . S
H798 C811 0.929 . S
H799 C809 0.929 . S
H800 C804 0.929 . S
H801 C810 0.929 . S
C802 H796 0.930 . S
C802 C803 1.367 . S
C802 C810 1.378 . S
C803 C802 1.367 . S
C803 C811 1.433 . S
C804 H800 0.929 . S
C804 C806 1.378 . S
C804 C808 1.350 . S
C805 C808 1.463 . S
C805 C810 1.350 . S
C805 N813 1.427 . S
C806 H797 0.930 . S
C806 C804 1.378 . S
C806 C807 1.367 . S
C807 C806 1.367 . S
C807 C809 1.433 . S
C808 C804 1.350 . S
C808 C805 1.463 . S
C808 N812 1.427 . S
C809 H799 0.929 . S
C809 C807 1.433 . S
C809 N812 1.384 . S
C810 H801 0.929 . S
C810 C802 1.378 . S
C810 C805 1.350 . S
C811 H798 0.929 . S
C811 C803 1.433 . S
C811 N813 1.384 . S
N812 C808 1.427 . S
N812 C809 1.384 . S
N813 C805 1.427 . S
N813 C811 1.384 . S
H814 C820 0.930 . S
H815 C824 0.930 . S
H816 C829 0.929 . S
H817 C827 0.929 . S
H818 C822 0.929 . S
H819 C828 0.929 . S
C820 H814 0.930 . S
C820 C821 1.367 . S
C820 C828 1.378 . S
C821 C820 1.367 . S
C821 C829 1.433 . S
C822 H818 0.929 . S
C822 C824 1.378 . S
C822 C826 1.350 . S
C823 C826 1.463 . S
C823 C828 1.350 . S
C823 N831 1.427 . S
C824 H815 0.930 . S
C824 C822 1.378 . S
C824 C825 1.367 . S
C825 C824 1.367 . S
C825 C827 1.433 . S
C826 C822 1.350 . S
C826 C823 1.463 . S
C826 N830 1.427 . S
C827 H817 0.929 . S
C827 C825 1.433 . S
C827 N830 1.384 . S
C828 H819 0.929 . S
C828 C820 1.378 . S
C828 C823 1.350 . S
C829 H816 0.929 . S
C829 C821 1.433 . S
C829 N831 1.384 . S
N830 C826 1.427 . S
N830 C827 1.384 . S
N831 C823 1.427 . S
N831 C829 1.384 . S
H832 C838 0.930 . S
H833 C842 0.930 . S
H834 C847 0.929 . S
H835 C845 0.929 . S
H836 C840 0.929 . S
H837 C846 0.929 . S
C838 H832 0.930 . S
C838 C839 1.367 . S
C838 C846 1.378 . S
C839 C838 1.367 . S
C839 C847 1.433 . S
C840 H836 0.929 . S
C840 C842 1.378 . S
C840 C844 1.350 . S
C841 C844 1.463 . S
C841 C846 1.350 . S
C841 N849 1.427 . S
C842 H833 0.930 . S
C842 C840 1.378 . S
C842 C843 1.367 . S
C843 C842 1.367 . S
C843 C845 1.433 . S
C844 C840 1.350 . S
C844 C841 1.463 . S
C844 N848 1.427 . S
C845 H835 0.929 . S
C845 C843 1.433 . S
C845 N848 1.384 . S
C846 H837 0.929 . S
C846 C838 1.378 . S
C846 C841 1.350 . S
C847 H834 0.929 . S
C847 C839 1.433 . S
C847 N849 1.384 . S
N848 C844 1.427 . S
N848 C845 1.384 . S
N849 C841 1.427 . S
N849 C847 1.384 . S
H850 C856 0.930 . S
H851 C860 0.930 . S
H852 C865 0.929 . S
H853 C863 0.929 . S
H854 C858 0.929 . S
H855 C864 0.929 . S
C856 H850 0.930 . S
C856 C857 1.367 . S
C856 C864 1.378 . S
C857 C856 1.367 . S
C857 C865 1.433 . S
C858 H854 0.929 . S
C858 C860 1.378 . S
C858 C862 1.350 . S
C859 C862 1.463 . S
C859 C864 1.350 . S
C859 N867 1.427 . S
C860 H851 0.930 . S
C860 C858 1.378 . S
C860 C861 1.367 . S
C861 C860 1.367 . S
C861 C863 1.433 . S
C862 C858 1.350 . S
C862 C859 1.463 . S
C862 N866 1.427 . S
C863 H853 0.929 . S
C863 C861 1.433 . S
C863 N866 1.384 . S
C864 H855 0.929 . S
C864 C856 1.378 . S
C864 C859 1.350 . S
C865 H852 0.929 . S
C865 C857 1.433 . S
C865 N867 1.384 . S
N866 C862 1.427 . S
N866 C863 1.384 . S
N867 C859 1.427 . S
N867 C865 1.384 . S
H868 C874 0.930 . S
H869 C878 0.930 . S
H870 C883 0.929 . S
H871 C881 0.929 . S
H872 C876 0.929 . S
H873 C882 0.929 . S
C874 H868 0.930 . S
C874 C875 1.367 . S
C874 C882 1.378 . S
C875 C874 1.367 . S
C875 C883 1.433 . S
C876 H872 0.929 . S
C876 C878 1.378 . S
C876 C880 1.350 . S
C877 C880 1.463 . S
C877 C882 1.350 . S
C877 N885 1.427 . S
C878 H869 0.930 . S
C878 C876 1.378 . S
C878 C879 1.367 . S
C879 C878 1.367 . S
C879 C881 1.433 . S
C880 C876 1.350 . S
C880 C877 1.463 . S
C880 N884 1.427 . S
C881 H871 0.929 . S
C881 C879 1.433 . S
C881 N884 1.384 . S
C882 H873 0.929 . S
C882 C874 1.378 . S
C882 C877 1.350 . S
C883 H870 0.929 . S
C883 C875 1.433 . S
C883 N885 1.384 . S
N884 C880 1.427 . S
N884 C881 1.384 . S
N885 C877 1.427 . S
N885 C883 1.384 . S
H886 C892 0.930 . S
H887 C896 0.930 . S
H888 C901 0.929 . S
H889 C899 0.929 . S
H890 C894 0.929 . S
H891 C900 0.929 . S
C892 H886 0.930 . S
C892 C893 1.367 . S
C892 C900 1.378 . S
C893 C892 1.367 . S
C893 C901 1.433 . S
C894 H890 0.929 . S
C894 C896 1.378 . S
C894 C898 1.350 . S
C895 C898 1.463 . S
C895 C900 1.350 . S
C895 N903 1.427 . S
C896 H887 0.930 . S
C896 C894 1.378 . S
C896 C897 1.367 . S
C897 C896 1.367 . S
C897 C899 1.433 . S
C898 C894 1.350 . S
C898 C895 1.463 . S
C898 N902 1.427 . S
C899 H889 0.929 . S
C899 C897 1.433 . S
C899 N902 1.384 . S
C900 H891 0.929 . S
C900 C892 1.378 . S
C900 C895 1.350 . S
C901 H888 0.929 . S
C901 C893 1.433 . S
C901 N903 1.384 . S
N902 C898 1.427 . S
N902 C899 1.384 . S
N903 C895 1.427 . S
N903 C901 1.384 . S
H904 C910 0.930 . S
H905 C914 0.930 . S
H906 C919 0.929 . S
H907 C917 0.929 . S
H908 C912 0.929 . S
H909 C918 0.929 . S
C910 H904 0.930 . S
C910 C911 1.367 . S
C910 C918 1.378 . S
C911 C910 1.367 . S
C911 C919 1.433 . S
C912 H908 0.929 . S
C912 C914 1.378 . S
C912 C916 1.350 . S
C913 C916 1.463 . S
C913 C918 1.350 . S
C913 N921 1.427 . S
C914 H905 0.930 . S
C914 C912 1.378 . S
C914 C915 1.367 . S
C915 C914 1.367 . S
C915 C917 1.433 . S
C916 C912 1.350 . S
C916 C913 1.463 . S
C916 N920 1.427 . S
C917 H907 0.929 . S
C917 C915 1.433 . S
C917 N920 1.384 . S
C918 H909 0.929 . S
C918 C910 1.378 . S
C918 C913 1.350 . S
C919 H906 0.929 . S
C919 C911 1.433 . S
C919 N921 1.384 . S
N920 C916 1.427 . S
N920 C917 1.384 . S
N921 C913 1.427 . S
N921 C919 1.384 . S
H922 C928 0.930 . S
H923 C932 0.930 . S
H924 C937 0.929 . S
H925 C935 0.929 . S
H926 C930 0.929 . S
H927 C936 0.929 . S
C928 H922 0.930 . S
C928 C929 1.367 . S
C928 C936 1.378 . S
C929 C928 1.367 . S
C929 C937 1.433 . S
C930 H926 0.929 . S
C930 C932 1.378 . S
C930 C934 1.350 . S
C931 C934 1.463 . S
C931 C936 1.350 . S
C931 N939 1.427 . S
C932 H923 0.930 . S
C932 C930 1.378 . S
C932 C933 1.367 . S
C933 C932 1.367 . S
C933 C935 1.433 . S
C934 C930 1.350 . S
C934 C931 1.463 . S
C934 N938 1.427 . S
C935 H925 0.929 . S
C935 C933 1.433 . S
C935 N938 1.384 . S
C936 H927 0.929 . S
C936 C928 1.378 . S
C936 C931 1.350 . S
C937 H924 0.929 . S
C937 C929 1.433 . S
C937 N939 1.384 . S
N938 C934 1.427 . S
N938 C935 1.384 . S
N939 C931 1.427 . S
N939 C937 1.384 . S
H940 C946 0.930 . S
H941 C950 0.930 . S
H942 C955 0.929 . S
H943 C953 0.929 . S
H944 C948 0.929 . S
H945 C954 0.929 . S
C946 H940 0.930 . S
C946 C947 1.367 . S
C946 C954 1.378 . S
C947 C946 1.367 . S
C947 C955 1.433 . S
C948 H944 0.929 . S
C948 C950 1.378 . S
C948 C952 1.350 . S
C949 C952 1.463 . S
C949 C954 1.350 . S
C949 N957 1.427 . S
C950 H941 0.930 . S
C950 C948 1.378 . S
C950 C951 1.367 . S
C951 C950 1.367 . S
C951 C953 1.433 . S
C952 C948 1.350 . S
C952 C949 1.463 . S
C952 N956 1.427 . S
C953 H943 0.929 . S
C953 C951 1.433 . S
C953 N956 1.384 . S
C954 H945 0.929 . S
C954 C946 1.378 . S
C954 C949 1.350 . S
C955 H942 0.929 . S
C955 C947 1.433 . S
C955 N957 1.384 . S
N956 C952 1.427 . S
N956 C953 1.384 . S
N957 C949 1.427 . S
N957 C955 1.384 . S
H958 C964 0.930 . S
H959 C968 0.930 . S
H960 C973 0.929 . S
H961 C971 0.929 . S
H962 C966 0.929 . S
H963 C972 0.929 . S
C964 H958 0.930 . S
C964 C965 1.367 . S
C964 C972 1.378 . S
C965 C964 1.367 . S
C965 C973 1.433 . S
C966 H962 0.929 . S
C966 C968 1.378 . S
C966 C970 1.350 . S
C967 C970 1.463 . S
C967 C972 1.350 . S
C967 N975 1.427 . S
C968 H959 0.930 . S
C968 C966 1.378 . S
C968 C969 1.367 . S
C969 C968 1.367 . S
C969 C971 1.433 . S
C970 C966 1.350 . S
C970 C967 1.463 . S
C970 N974 1.427 . S
C971 H961 0.929 . S
C971 C969 1.433 . S
C971 N974 1.384 . S
C972 H963 0.929 . S
C972 C964 1.378 . S
C972 C967 1.350 . S
C973 H960 0.929 . S
C973 C965 1.433 . S
C973 N975 1.384 . S
N974 C970 1.427 . S
N974 C971 1.384 . S
N975 C967 1.427 . S
N975 C973 1.384 . S
H976 C982 0.930 . S
H977 C986 0.930 . S
H978 C991 0.929 . S
H979 C989 0.929 . S
H980 C984 0.929 . S
H981 C990 0.929 . S
C982 H976 0.930 . S
C982 C983 1.367 . S
C982 C990 1.378 . S
C983 C982 1.367 . S
C983 C991 1.433 . S
C984 H980 0.929 . S
C984 C986 1.378 . S
C984 C988 1.350 . S
C985 C988 1.463 . S
C985 C990 1.350 . S
C985 N993 1.427 . S
C986 H977 0.930 . S
C986 C984 1.378 . S
C986 C987 1.367 . S
C987 C986 1.367 . S
C987 C989 1.433 . S
C988 C984 1.350 . S
C988 C985 1.463 . S
C988 N992 1.427 . S
C989 H979 0.929 . S
C989 C987 1.433 . S
C989 N992 1.384 . S
C990 H981 0.929 . S
C990 C982 1.378 . S
C990 C985 1.350 . S
C991 H978 0.929 . S
C991 C983 1.433 . S
C991 N993 1.384 . S
N992 C988 1.427 . S
N992 C989 1.384 . S
N993 C985 1.427 . S
N993 C991 1.384 . S
H994 C1000 0.930 . S
H995 C1004 0.930 . S
H996 C1009 0.929 . S
H997 C1007 0.929 . S
H998 C1002 0.929 . S
H999 C1008 0.929 . S
C1000 H994 0.930 . S
C1000 C1001 1.367 . S
C1000 C1008 1.378 . S
C1001 C1000 1.367 . S
C1001 C1009 1.433 . S
C1002 H998 0.929 . S
C1002 C1004 1.378 . S
C1002 C1006 1.350 . S
C1003 C1006 1.463 . S
C1003 C1008 1.350 . S
C1003 N1011 1.427 . S
C1004 H995 0.930 . S
C1004 C1002 1.378 . S
C1004 C1005 1.367 . S
C1005 C1004 1.367 . S
C1005 C1007 1.433 . S
C1006 C1002 1.350 . S
C1006 C1003 1.463 . S
C1006 N1010 1.427 . S
C1007 H997 0.929 . S
C1007 C1005 1.433 . S
C1007 N1010 1.384 . S
C1008 H999 0.929 . S
C1008 C1000 1.378 . S
C1008 C1003 1.350 . S
C1009 H996 0.929 . S
C1009 C1001 1.433 . S
C1009 N1011 1.384 . S
N1010 C1006 1.427 . S
N1010 C1007 1.384 . S
N1011 C1003 1.427 . S
N1011 C1009 1.384 . S
H1012 C1018 0.930 . S
H1013 C1022 0.930 . S
H1014 C1027 0.929 . S
H1015 C1025 0.929 . S
H1016 C1020 0.929 . S
H1017 C1026 0.929 . S
C1018 H1012 0.930 . S
C1018 C1019 1.367 . S
C1018 C1026 1.378 . S
C1019 C1018 1.367 . S
C1019 C1027 1.433 . S
C1020 H1016 0.929 . S
C1020 C1022 1.378 . S
C1020 C1024 1.350 . S
C1021 C1024 1.463 . S
C1021 C1026 1.350 . S
C1021 N1029 1.427 . S
C1022 H1013 0.930 . S
C1022 C1020 1.378 . S
C1022 C1023 1.367 . S
C1023 C1022 1.367 . S
C1023 C1025 1.433 . S
C1024 C1020 1.350 . S
C1024 C1021 1.463 . S
C1024 N1028 1.427 . S
C1025 H1015 0.929 . S
C1025 C1023 1.433 . S
C1025 N1028 1.384 . S
C1026 H1017 0.929 . S
C1026 C1018 1.378 . S
C1026 C1021 1.350 . S
C1027 H1014 0.929 . S
C1027 C1019 1.433 . S
C1027 N1029 1.384 . S
N1028 C1024 1.427 . S
N1028 C1025 1.384 . S
N1029 C1021 1.427 . S
N1029 C1027 1.384 . S
H1030 C1036 0.930 . S
H1031 C1040 0.930 . S
H1032 C1045 0.929 . S
H1033 C1043 0.929 . S
H1034 C1038 0.929 . S
H1035 C1044 0.929 . S
C1036 H1030 0.930 . S
C1036 C1037 1.367 . S
C1036 C1044 1.378 . S
C1037 C1036 1.367 . S
C1037 C1045 1.433 . S
C1038 H1034 0.929 . S
C1038 C1040 1.378 . S
C1038 C1042 1.350 . S
C1039 C1042 1.463 . S
C1039 C1044 1.350 . S
C1039 N1047 1.427 . S
C1040 H1031 0.930 . S
C1040 C1038 1.378 . S
C1040 C1041 1.367 . S
C1041 C1040 1.367 . S
C1041 C1043 1.433 . S
C1042 C1038 1.350 . S
C1042 C1039 1.463 . S
C1042 N1046 1.427 . S
C1043 H1033 0.929 . S
C1043 C1041 1.433 . S
C1043 N1046 1.384 . S
C1044 H1035 0.929 . S
C1044 C1036 1.378 . S
C1044 C1039 1.350 . S
C1045 H1032 0.929 . S
C1045 C1037 1.433 . S
C1045 N1047 1.384 . S
N1046 C1042 1.427 . S
N1046 C1043 1.384 . S
N1047 C1039 1.427 . S
N1047 C1045 1.384 . S
C483 C381 1.302 . S
C479 C8 1.341 . S
C501 C399 1.295 . S
C497 C61 1.347 . S
C519 C407 1.318 . S
C515 C107 1.353 . S
C533 C139 1.337 . S
C537 C373 1.304 . S
C551 C192 1.351 . S
C555 C368 1.298 1_556 S
C569 C238 1.350 . S
C573 C386 1.300 . S
C591 C394 1.302 . S
C587 C284 1.344 . S
C609 C412 1.307 . S
C605 C330 1.345 . S
C623 C100 1.353 . S
C627 C433 1.320 . S
C645 C451 1.289 . S
C641 C160 1.337 . S
C659 C15 1.339 . S
C663 C459 1.309 . S
C681 C425 1.302 . S
C677 C54 1.352 . S
C695 C291 1.344 . S
C699 C420 1.301 . S
C713 C337 1.343 . S
C717 C438 1.284 . S
C735 C446 1.286 1_556 S
C731 C199 1.344 . S
C749 C245 1.347 . S
C753 C464 1.302 . S
C771 C402 1.497 . S
C767 C1 1.489 . S
C789 C417 1.461 . S
C785 C68 1.485 . S
C803 C114 1.483 . S
C807 C376 1.495 . S
C821 C146 1.488 . S
C825 C391 1.460 . S
C839 C185 1.485 . S
C843 C415 1.495 . S
C861 C378 1.466 . S
C857 C231 1.493 . S
C879 C389 1.495 . S
C875 C277 1.493 . S
C897 C404 1.468 . S
C893 C323 1.491 . S
C915 C454 1.496 . S
C911 C93 1.487 . S
C933 C469 1.466 . S
C929 C153 1.485 . S
C947 C22 1.481 . S
C951 C428 1.495 . S
C969 C443 1.466 . S
C965 C47 1.495 . S
C987 C467 1.497 . S
C983 C298 1.475 . S
C1001 C344 1.487 . S
C1005 C430 1.465 . S
C1023 C441 1.496 . S
C1019 C206 1.481 . S
C1041 C456 1.465 . S
C1037 C252 1.487 . S
