# Generated by pormake.
# Topology pyr, (3,6)-cn, num edge types: 1
# Building blocks:
#     Node 0, Type 0, BuildingBlock: BETDAH_clean_linker_0, # of connection points: 3
#     Node 1, Type 0, BuildingBlock: BETDAH_clean_linker_0, # of connection points: 3
#     Node 2, Type 0, BuildingBlock: BETDAH_clean_linker_0, # of connection points: 3
#     Node 3, Type 0, BuildingBlock: BETDAH_clean_linker_0, # of connection points: 3
#     Node 4, Type 0, BuildingBlock: BETDAH_clean_linker_0, # of connection points: 3
#     Node 5, Type 0, BuildingBlock: BETDAH_clean_linker_0, # of connection points: 3
#     Node 6, Type 0, BuildingBlock: BETDAH_clean_linker_0, # of connection points: 3
#     Node 7, Type 0, BuildingBlock: BETDAH_clean_linker_0, # of connection points: 3
#     Node 8, Type 1, BuildingBlock: BETDEL_clean_sbu_0, # of connection points: 6
#     Node 9, Type 1, BuildingBlock: BETDEL_clean_sbu_0, # of connection points: 6
#     Node 10, Type 1, BuildingBlock: BETDEL_clean_sbu_0, # of connection points: 6
#     Node 11, Type 1, BuildingBlock: BETDEL_clean_sbu_0, # of connection points: 6
#     Edge 12, Type (0, 1), BuildingBlock: XUDNAN_clean_linker_2, # of connection points: 2
#     Edge 13, Type (0, 1), BuildingBlock: XUDNAN_clean_linker_2, # of connection points: 2
#     Edge 14, Type (0, 1), BuildingBlock: XUDNAN_clean_linker_2, # of connection points: 2
#     Edge 15, Type (0, 1), BuildingBlock: XUDNAN_clean_linker_2, # of connection points: 2
#     Edge 16, Type (0, 1), BuildingBlock: XUDNAN_clean_linker_2, # of connection points: 2
#     Edge 17, Type (0, 1), BuildingBlock: XUDNAN_clean_linker_2, # of connection points: 2
#     Edge 18, Type (0, 1), BuildingBlock: XUDNAN_clean_linker_2, # of connection points: 2
#     Edge 19, Type (0, 1), BuildingBlock: XUDNAN_clean_linker_2, # of connection points: 2
#     Edge 20, Type (0, 1), BuildingBlock: XUDNAN_clean_linker_2, # of connection points: 2
#     Edge 21, Type (0, 1), BuildingBlock: XUDNAN_clean_linker_2, # of connection points: 2
#     Edge 22, Type (0, 1), BuildingBlock: XUDNAN_clean_linker_2, # of connection points: 2
#     Edge 23, Type (0, 1), BuildingBlock: XUDNAN_clean_linker_2, # of connection points: 2
#     Edge 24, Type (0, 1), BuildingBlock: XUDNAN_clean_linker_2, # of connection points: 2
#     Edge 25, Type (0, 1), BuildingBlock: XUDNAN_clean_linker_2, # of connection points: 2
#     Edge 26, Type (0, 1), BuildingBlock: XUDNAN_clean_linker_2, # of connection points: 2
#     Edge 27, Type (0, 1), BuildingBlock: XUDNAN_clean_linker_2, # of connection points: 2
#     Edge 28, Type (0, 1), BuildingBlock: XUDNAN_clean_linker_2, # of connection points: 2
#     Edge 29, Type (0, 1), BuildingBlock: XUDNAN_clean_linker_2, # of connection points: 2
#     Edge 30, Type (0, 1), BuildingBlock: XUDNAN_clean_linker_2, # of connection points: 2
#     Edge 31, Type (0, 1), BuildingBlock: XUDNAN_clean_linker_2, # of connection points: 2
#     Edge 32, Type (0, 1), BuildingBlock: XUDNAN_clean_linker_2, # of connection points: 2
#     Edge 33, Type (0, 1), BuildingBlock: XUDNAN_clean_linker_2, # of connection points: 2
#     Edge 34, Type (0, 1), BuildingBlock: XUDNAN_clean_linker_2, # of connection points: 2
#     Edge 35, Type (0, 1), BuildingBlock: XUDNAN_clean_linker_2, # of connection points: 2
# Relax obj value: 0.072
# Max RMSD: 0.185
# Mean RMSD: 0.133
data_MOF--net-pyr--node1-BETDEL_clean_sbu_0--node2-BETDAH_clean_linker_0--edge1-XUDNAN_clean_linker_2
_symmetry_space_group_name_H-M    P1
_symmetry_Int_Tables_number       1
_symmetry_cell_setting            triclinic
loop_
_symmetry_equiv_pos_as_xyz
'x, y, z'
_cell_length_a     35.569536
_cell_length_b     38.071165
_cell_length_c     36.199487
_cell_angle_alpha  92.000903
_cell_angle_beta   90.017939
_cell_angle_gamma 101.53426
loop_
_atom_site_label
_atom_site_type_symbol
_atom_site_fract_x
_atom_site_fract_y
_atom_site_fract_z
_atom_type_partial_charge
H0 H 0.21544 0.13505 0.21786 0.0
H1 H 0.26955 0.22852 0.16046 0.0
H2 H 0.17081 0.23221 0.22788 0.0
C3 C 0.21652 0.16266 0.21072 0.0
C4 C 0.18971 0.18155 0.22609 0.0
C5 C 0.24536 0.17922 0.18692 0.0
C6 C 0.24759 0.21535 0.17892 0.0
C7 C 0.22035 0.23425 0.19281 0.0
C8 C 0.19149 0.21741 0.21662 0.0
N9 N 0.22335 0.2704 0.18289 0.0
C10 C 0.1921 0.28512 0.17329 0.0
H11 H 0.38013 0.83555 0.74363 0.0
H12 H 0.2855 0.888 0.7229 0.0
H13 H 0.29219 0.78901 0.66521 0.0
C14 C 0.35374 0.83679 0.7292 0.0
C15 C 0.33842 0.80925 0.70355 0.0
C16 C 0.33467 0.8653 0.73688 0.0
C17 C 0.30079 0.86656 0.71706 0.0
C18 C 0.28566 0.83915 0.69091 0.0
C19 C 0.3043 0.81046 0.68485 0.0
N20 N 0.25118 0.83868 0.67096 0.0
C21 C 0.23312 0.86765 0.66806 0.0
H22 H 0.71814 0.35518 0.94492 0.0
H23 H 0.68737 0.42612 0.86489 0.0
H24 H 0.6098 0.32766 0.88793 0.0
C25 C 0.69837 0.3614 0.92453 0.0
C26 C 0.66342 0.33733 0.91818 0.0
C27 C 0.70728 0.39382 0.90584 0.0
C28 C 0.68073 0.40156 0.8799 0.0
C29 C 0.64541 0.37774 0.87366 0.0
C30 C 0.63686 0.34609 0.89321 0.0
N31 N 0.61753 0.38471 0.84831 0.0
C32 C 0.62459 0.40966 0.8207 0.0
H33 H 0.7964 0.73357 0.43575 0.0
H34 H 0.90517 0.7529 0.38079 0.0
H35 H 0.82717 0.65199 0.36306 0.0
C36 C 0.81678 0.72452 0.41732 0.0
C37 C 0.80795 0.68955 0.40153 0.0
C38 C 0.85187 0.74758 0.41055 0.0
C39 C 0.87738 0.73604 0.38568 0.0
C40 C 0.86819 0.70235 0.36755 0.0
C41 C 0.83338 0.67884 0.37548 0.0
N42 N 0.89646 0.69246 0.34399 0.0
C43 C 0.88993 0.66741 0.31473 0.0
H44 H 0.93981 0.86598 0.89971 0.0
H45 H 0.89127 0.88802 1.00469 0.0
H46 H 0.86858 0.94522 0.9101 0.0
C47 C 0.92176 0.88011 0.91618 0.0
C48 C 0.90455 0.90621 0.89986 0.0
C49 C 0.9171 0.87302 0.95396 0.0
C50 C 0.89553 0.893 0.97556 0.0
C51 C 0.878 0.91875 0.95998 0.0
C52 C 0.88218 0.92518 0.92205 0.0
N53 N 0.85775 0.93865 0.98383 0.0
C54 C 0.82515 0.95106 0.97386 0.0
H55 H 0.76527 0.15516 0.35835 0.0
H56 H 0.77952 0.21795 0.46079 0.0
H57 H 0.7006 0.23804 0.37867 0.0
C58 C 0.758 0.17613 0.37631 0.0
C59 C 0.7313 0.19609 0.364 0.0
C60 C 0.77566 0.18351 0.41143 0.0
C61 C 0.76574 0.21095 0.43411 0.0
C62 C 0.73876 0.23045 0.4227 0.0
C63 C 0.72163 0.22305 0.3876 0.0
N64 N 0.72991 0.25742 0.44737 0.0
C65 C 0.7046 0.2797 0.43962 0.0
H66 H 0.32733 0.75117 0.14994 0.0
H67 H 0.33915 0.69115 0.24657 0.0
H68 H 0.41647 0.79126 0.22983 0.0
C69 C 0.34195 0.74826 0.17559 0.0
C70 C 0.37329 0.77499 0.18725 0.0
C71 C 0.32922 0.71794 0.19688 0.0
C72 C 0.34889 0.7142 0.22983 0.0
C73 C 0.38031 0.74084 0.24174 0.0
C74 C 0.39199 0.77107 0.22056 0.0
N75 N 0.40071 0.73855 0.27501 0.0
C76 C 0.39719 0.70801 0.29571 0.0
H77 H 0.22004 0.36273 0.65044 0.0
H78 H 0.19606 0.44941 0.72137 0.0
H79 H 0.11721 0.34791 0.7143 0.0
C80 C 0.20209 0.37351 0.67024 0.0
C81 C 0.1681 0.35138 0.68141 0.0
C82 C 0.21291 0.40908 0.6845 0.0
C83 C 0.18846 0.42219 0.71005 0.0
C84 C 0.15365 0.40011 0.72039 0.0
C85 C 0.14378 0.36498 0.70589 0.0
N86 N 0.12673 0.4125 0.74378 0.0
C87 C 0.13564 0.43655 0.77375 0.0
Dy88 Dy 0.03491 0.05373 0.51385 0.0
C89 C 0.97758 0.00308 0.65552 0.0
C90 C 0.05635 0.07797 0.44504 0.0
Dy91 Dy 0.99866 0.03753 0.59139 0.0
O92 O 0.05201 0.04506 0.45504 0.0
O93 O 0.04907 0.09814 0.47279 0.0
O94 O 0.07425 0.015 0.5212 0.0
O95 O 0.05541 0.04044 0.56754 0.0
C96 C 0.07248 0.01601 0.557 0.0
C97 C 0.96055 0.07399 0.54685 0.0
O98 O 0.04546 0.08398 0.60594 0.0
O99 O 0.05568 0.10602 0.54679 0.0
O100 O 0.97485 0.03603 0.64956 0.0
O101 O 0.99206 0.98955 0.62679 0.0
O102 O 0.95799 0.07553 0.58271 0.0
O103 O 0.97851 0.04997 0.53754 0.0
O104 O 0.98792 0.00562 0.50007 0.0
O105 O 0.97878 0.98584 0.55986 0.0
C106 C 0.06005 0.10986 0.58338 0.0
C107 C 0.97382 0.98049 0.52377 0.0
Dy108 Dy 0.54116 0.07061 0.08162 0.0
C109 C 0.45099 0.00875 0.95403 0.0
C110 C 0.58997 0.10727 0.13477 0.0
Dy111 Dy 0.49808 0.03942 0.01105 0.0
O112 O 0.578 0.07274 0.13267 0.0
O113 O 0.5755 0.12182 0.10762 0.0
O114 O 0.50135 0.0319 0.11584 0.0
O115 O 0.51391 0.01644 0.06165 0.0
C116 C 0.49353 0.00732 0.08961 0.0
C117 C 0.54781 0.10144 1.00392 0.0
O118 O 0.45113 0.05341 0.04666 0.0
O119 O 0.48798 0.09314 0.08891 0.0
O120 O 0.4603 0.04286 0.96208 0.0
O121 O 0.46694 0.99113 0.97759 0.0
O122 O 0.54138 0.07636 0.97828 0.0
O123 O 0.52572 0.0935 0.03088 0.0
O124 O 0.58731 0.05177 0.04769 0.0
O125 O 0.54876 0.0138 1.00509 0.0
C126 C 0.45436 0.07811 0.07387 0.0
C127 C 0.58269 0.02684 0.02046 0.0
Dy128 Dy 0.51988 0.51058 0.52283 0.0
C129 C 0.47302 0.62367 0.6112 0.0
C130 C 0.55071 0.4596 0.48565 0.0
Dy131 Dy 0.50751 0.578 0.56958 0.0
O132 O 0.52955 0.45423 0.51493 0.0
O133 O 0.55463 0.49278 0.47632 0.0
O134 O 0.45773 0.48442 0.52851 0.0
O135 O 0.48517 0.52071 0.56982 0.0
C136 C 0.45322 0.50327 0.55824 0.0
C137 C 0.57339 0.58569 0.53187 0.0
O138 O 0.53611 0.55106 0.61209 0.0
O139 O 0.56113 0.51368 0.57074 0.0
O140 O 0.50031 0.63381 0.58761 0.0
O141 O 0.46522 0.58897 0.61216 0.0
O142 O 0.57013 0.60327 0.56292 0.0
O143 O 0.54105 0.56804 0.52172 0.0
O144 O 0.4908 0.53652 0.47988 0.0
O145 O 0.47035 0.57889 0.51915 0.0
C146 C 0.55869 0.52803 0.60442 0.0
C147 C 0.47092 0.56213 0.4863 0.0
Dy148 Dy 0.02272 0.51261 0.05757 0.0
C149 C 0.99914 0.65432 0.03098 0.0
C150 C 0.04431 0.44872 0.06969 0.0
Dy151 Dy 0.01859 0.5891 0.04 0.0
O152 O 0.01164 0.45659 0.07883 0.0
O153 O 0.06486 0.47543 0.05282 0.0
O154 O 0.97129 0.50836 0.09396 0.0
O155 O 0.00878 0.55808 0.08983 0.0
C156 C 0.97716 0.54232 0.1027 0.0
C157 C 0.06444 0.55896 0.99527 0.0
O158 O 0.06852 0.60218 0.0785 0.0
O159 O 0.07791 0.54385 0.08288 0.0
O160 O 1.00262 0.63144 1.00441 0.0
O161 O 0.00617 0.64156 0.06248 0.0
O162 O 0.07087 0.59289 1.00464 0.0
O163 O 0.03249 0.54353 0.00775 0.0
O164 O 0.9772 0.50191 0.01363 0.0
O165 O 0.96066 0.55732 0.02295 0.0
C166 C 0.0889 0.57893 0.08953 0.0
C167 C 0.95298 0.52385 0.0093 0.0
H168 H 0.17002 0.20644 0.29443 0.0
H169 H 0.14455 0.11493 0.21726 0.0
H170 H 0.103 0.08067 0.26356 0.0
H171 H 0.17772 0.15842 0.37296 0.0
H172 H 0.15534 0.18562 0.4044 0.0
H173 H 0.17921 0.20495 0.36391 0.0
H174 H 0.11712 0.2247 0.34323 0.0
H175 H 0.09309 0.20567 0.3839 0.0
H176 H 0.07304 0.19187 0.33872 0.0
H177 H 0.07158 0.05376 0.31981 0.0
H178 H 0.04869 0.03661 0.3822 0.0
H179 H 0.09149 0.14552 0.4237 0.0
C180 C 0.15475 0.17957 0.28698 0.0
C181 C 0.1605 0.16331 0.25222 0.0
C182 C 0.14074 0.1278 0.24377 0.0
C183 C 0.11695 0.10819 0.26984 0.0
C184 C 0.11284 0.1245 0.30423 0.0
C185 C 0.13075 0.15951 0.31282 0.0
C186 C 0.12334 0.16967 0.35276 0.0
C187 C 0.16115 0.18028 0.37479 0.0
C188 C 0.10027 0.19977 0.35476 0.0
C189 C 0.09954 0.13455 0.3655 0.0
C190 C 0.09373 0.10898 0.33688 0.0
C191 C 0.07525 0.0737 0.34226 0.0
C192 C 0.0625 0.06417 0.37781 0.0
C193 C 0.06797 0.08982 0.40756 0.0
C194 C 0.08628 0.1256 0.40122 0.0
H195 H 0.36595 0.85489 0.80417 0.0
H196 H 0.33646 0.93794 0.73704 0.0
H197 H 0.3598 0.98306 0.78682 0.0
H198 H 0.34109 0.88988 0.89238 0.0
H199 H 0.38082 0.87791 0.91646 0.0
H200 H 0.36045 0.85189 0.87616 0.0
H201 H 0.42729 0.86244 0.84524 0.0
H202 H 0.44791 0.88825 0.88553 0.0
H203 H 0.45379 0.90766 0.84067 0.0
H204 H 0.38761 0.01932 0.84348 0.0
H205 H 0.42006 0.0444 0.90174 0.0
H206 H 0.43309 0.93793 0.93101 0.0
C207 C 0.36468 0.8826 0.79966 0.0
C208 C 0.34927 0.89278 0.76655 0.0
C209 C 0.3476 0.92931 0.76227 0.0
C210 C 0.36094 0.95518 0.79035 0.0
C211 C 0.37592 0.94414 0.82256 0.0
C212 C 0.37801 0.90874 0.82728 0.0
C213 C 0.39631 0.90399 0.8641 0.0
C214 C 0.36797 0.87947 0.88872 0.0
C215 C 0.43354 0.88975 0.85854 0.0
C216 C 0.4045 0.94234 0.8793 0.0
C217 C 0.39226 0.96504 0.85501 0.0
C218 C 0.39721 0.00179 0.86273 0.0
C219 C 0.4156 0.01576 0.89589 0.0
C220 C 0.42895 0.99307 0.92082 0.0
C221 C 0.42296 0.95585 0.91252 0.0
H222 H 0.5788 0.45593 0.80533 0.0
H223 H 0.67474 0.41202 0.76449 0.0
H224 H 0.67301 0.44364 0.70593 0.0
H225 H 0.52715 0.44568 0.72341 0.0
H226 H 0.50907 0.48655 0.72851 0.0
H227 H 0.52137 0.46483 0.76882 0.0
H228 H 0.56776 0.52331 0.79072 0.0
H229 H 0.55541 0.54533 0.75048 0.0
H230 H 0.6049 0.54442 0.76019 0.0
H231 H 0.65487 0.47301 0.64921 0.0
H232 H 0.62364 0.4999 0.59944 0.0
H233 H 0.54056 0.52641 0.67791 0.0
C234 C 0.60013 0.45401 0.7844 0.0
C235 C 0.62732 0.43223 0.78923 0.0
C236 C 0.65416 0.42918 0.76119 0.0
C237 C 0.65331 0.44698 0.72795 0.0
C238 C 0.62557 0.4678 0.72352 0.0
C239 C 0.59971 0.47172 0.75117 0.0
C240 C 0.57096 0.49334 0.73847 0.0
C241 C 0.52972 0.47127 0.73988 0.0
C242 C 0.57502 0.5287 0.76133 0.0
C243 C 0.58388 0.50003 0.69902 0.0
C244 C 0.61555 0.48526 0.69097 0.0
C245 C 0.63059 0.48533 0.6554 0.0
C246 C 0.61258 0.50055 0.62728 0.0
C247 C 0.58 0.51567 0.6349 0.0
C248 C 0.56599 0.51588 0.67142 0.0
H249 H 0.94301 0.68163 0.2622 0.0
H250 H 0.84331 0.60385 0.29441 0.0
H251 H 0.85189 0.56493 0.2397 0.0
H252 H 0.92843 0.66924 0.16126 0.0
H253 H 0.97907 0.67443 0.15241 0.0
H254 H 0.96273 0.69733 0.19182 0.0
H255 H 0.00483 0.66807 0.23505 0.0
H256 H 0.02126 0.64513 0.19584 0.0
H257 H 0.99919 0.61991 0.23411 0.0
H258 H 0.87462 0.53306 0.18427 0.0
H259 H 0.90967 0.50994 0.13295 0.0
H260 H 0.99488 0.60896 0.13724 0.0
C261 C 0.92264 0.65666 0.2572 0.0
C262 C 0.89231 0.64555 0.28187 0.0
C263 C 0.86646 0.61265 0.27532 0.0
C264 C 0.87115 0.59055 0.24441 0.0
C265 C 0.90173 0.60206 0.2206 0.0
C266 C 0.92696 0.63444 0.2266 0.0
C267 C 0.95879 0.63971 0.19828 0.0
C268 C 0.95714 0.6721 0.17454 0.0
C269 C 0.99834 0.64341 0.21695 0.0
C270 C 0.94812 0.60487 0.17582 0.0
C271 C 0.91492 0.58367 0.1889 0.0
C272 C 0.90039 0.54957 0.17361 0.0
C273 C 0.92053 0.53666 0.14454 0.0
C274 C 0.95489 0.55772 0.13118 0.0
C275 C 0.96849 0.59245 0.1467 0.0
H276 H 0.32405 0.19816 0.18018 0.0
H277 H 0.22634 0.11297 0.15304 0.0
H278 H 0.2693 0.07808 0.12173 0.0
H279 H 0.37552 0.19184 0.09561 0.0
H280 H 0.42216 0.2001 0.11744 0.0
H281 H 0.38389 0.21847 0.13808 0.0
H282 H 0.39279 0.18757 0.19921 0.0
H283 H 0.43113 0.16915 0.17877 0.0
H284 H 0.3906 0.13983 0.19854 0.0
H285 H 0.3219 0.05351 0.09134 0.0
H286 H 0.38161 0.03889 0.06657 0.0
H287 H 0.44644 0.13875 0.11491 0.0
C288 C 0.31178 0.17217 0.16759 0.0
C289 C 0.27184 0.15821 0.16908 0.0
C290 C 0.25687 0.12398 0.15258 0.0
C291 C 0.28101 0.10406 0.13458 0.0
C292 C 0.32016 0.11857 0.13353 0.0
C293 C 0.33559 0.15168 0.14982 0.0
C294 C 0.37881 0.16076 0.14498 0.0
C295 C 0.39079 0.19481 0.12269 0.0
C296 C 0.39955 0.16454 0.18262 0.0
C297 C 0.38515 0.12771 0.12315 0.0
C298 C 0.35084 0.10387 0.11671 0.0
C299 C 0.34898 0.07186 0.09637 0.0
C300 C 0.3831 0.06388 0.08227 0.0
C301 C 0.41876 0.08763 0.08881 0.0
C302 C 0.41969 0.11993 0.10967 0.0
H303 H 0.21533 0.88606 0.60046 0.0
H304 H 0.20082 0.9083 0.7171 0.0
H305 H 0.15841 0.95045 0.70178 0.0
H306 H 0.2159 0.97653 0.56955 0.0
H307 H 0.1899 0.96042 0.52756 0.0
H308 H 0.22063 0.93414 0.54824 0.0
H309 H 0.16349 0.87996 0.55004 0.0
H310 H 0.13254 0.90616 0.5297 0.0
H311 H 0.11991 0.8852 0.57308 0.0
H312 H 0.11515 0.98824 0.67271 0.0
H313 H 0.07634 0.01923 0.63281 0.0
H314 H 0.11928 0.97073 0.53558 0.0
C315 C 0.20362 0.90031 0.62267 0.0
C316 C 0.2113 0.89454 0.65985 0.0
C317 C 0.19529 0.91292 0.68843 0.0
C318 C 0.17121 0.93673 0.67994 0.0
C319 C 0.16364 0.9416 0.6428 0.0
C320 C 0.1796 0.924 0.61465 0.0
C321 C 0.16623 0.93287 0.57707 0.0
C322 C 0.20019 0.95214 0.55427 0.0
C323 C 0.14423 0.89903 0.55627 0.0
C324 C 0.13984 0.95789 0.58831 0.0
C325 C 0.13876 0.96281 0.6263 0.0
C326 C 0.11596 0.98467 0.64295 0.0
C327 C 0.09397 0.00208 0.62013 0.0
C328 C 0.09489 0.99733 0.5812 0.0
C329 C 0.11804 0.97486 0.56528 0.0
H330 H 0.77881 0.37987 0.92112 0.0
H331 H 0.71746 0.46714 0.91243 0.0
H332 H 0.77556 0.51017 0.93306 0.0
H333 H 0.82669 0.41161 1.00419 0.0
H334 H 0.87071 0.39737 0.9925 0.0
H335 H 0.82598 0.37378 0.97263 0.0
H336 H 0.8537 0.38447 0.90686 0.0
H337 H 0.89864 0.40803 0.92655 0.0
H338 H 0.87362 0.42953 0.89353 0.0
H339 H 0.83793 0.54302 0.95978 0.0
H340 H 0.9007 0.56383 0.99014 0.0
H341 H 0.92146 0.45514 0.98357 0.0
C342 C 0.77758 0.40805 0.92328 0.0
C343 C 0.74343 0.42004 0.91492 0.0
C344 C 0.74334 0.45725 0.91791 0.0
C345 C 0.77618 0.48193 0.92985 0.0
C346 C 0.80897 0.46906 0.93865 0.0
C347 C 0.81002 0.43303 0.93538 0.0
C348 C 0.84815 0.42598 0.94879 0.0
C349 C 0.84253 0.40069 0.98147 0.0
C350 C 0.86981 0.41113 0.91703 0.0
C351 C 0.86804 0.4636 0.96093 0.0
C352 C 0.84501 0.48804 0.95449 0.0
C353 C 0.85637 0.5242 0.96464 0.0
C354 C 0.89211 0.53571 0.98202 0.0
C355 C 0.91615 0.51115 0.98927 0.0
C356 C 0.90395 0.47465 0.9782 0.0
H357 H 0.78261 0.68203 0.47257 0.0
H358 H 0.7545 0.64077 0.36059 0.0
H359 H 0.69334 0.60473 0.38302 0.0
H360 H 0.73799 0.60145 0.52131 0.0
H361 H 0.72135 0.62735 0.55822 0.0
H362 H 0.76472 0.64563 0.53398 0.0
H363 H 0.73691 0.70139 0.51858 0.0
H364 H 0.69348 0.68328 0.54259 0.0
H365 H 0.69128 0.69531 0.49504 0.0
H366 H 0.63232 0.57802 0.41737 0.0
H367 H 0.57741 0.56323 0.45974 0.0
H368 H 0.64536 0.62425 0.54853 0.0
C369 C 0.76377 0.66525 0.45265 0.0
C370 C 0.77323 0.66447 0.41468 0.0
C371 C 0.74801 0.64165 0.38979 0.0
C372 C 0.71318 0.6212 0.40231 0.0
C373 C 0.70422 0.62373 0.43979 0.0
C374 C 0.72901 0.6451 0.46458 0.0
C375 C 0.71186 0.64542 0.50285 0.0
C376 C 0.73538 0.62897 0.53073 0.0
C377 C 0.70816 0.68361 0.51548 0.0
C378 C 0.67297 0.62155 0.49573 0.0
C379 C 0.66925 0.60887 0.45933 0.0
C380 C 0.63519 0.58747 0.44597 0.0
C381 C 0.60417 0.57914 0.47029 0.0
C382 C 0.60727 0.59238 0.50749 0.0
C383 C 0.64228 0.61355 0.52033 0.0
H384 H 0.2042 0.34161 0.12921 0.0
H385 H 0.11551 0.26925 0.18639 0.0
H386 H 0.06648 0.30096 0.16219 0.0
H387 H 0.1668 0.42071 0.14573 0.0
H388 H 0.1803 0.43892 0.10125 0.0
H389 H 0.20748 0.40945 0.12181 0.0
H390 H 0.19626 0.3676 0.06313 0.0
H391 H 0.16879 0.39686 0.04249 0.0
H392 H 0.14794 0.35002 0.04711 0.0
H393 H 0.02799 0.34248 0.13354 0.0
H394 H 1.00316 0.3913 0.10466 0.0
H395 H 0.11732 0.436 0.06552 0.0
C396 C 0.17436 0.33245 0.13641 0.0
C397 C 0.16323 0.3032 0.15951 0.0
C398 C 0.12424 0.29174 0.16866 0.0
C399 C 0.09635 0.3095 0.15495 0.0
C400 C 0.10817 0.33842 0.13209 0.0
C401 C 0.14629 0.34983 0.12293 0.0
C402 C 0.15175 0.38225 0.09891 0.0
C403 C 0.17813 0.41475 0.11808 0.0
C404 C 0.16709 0.37365 0.06064 0.0
C405 C 0.11084 0.38772 0.09634 0.0
C406 C 0.08607 0.36204 0.11546 0.0
C407 C 0.04708 0.3625 0.11825 0.0
C408 C 0.03322 0.39027 0.1017 0.0
C409 C 0.05826 0.41718 0.08261 0.0
C410 C 0.09742 0.41547 0.07945 0.0
H411 H 0.59762 0.30624 0.95397 0.0
H412 H 0.71057 0.28935 0.92284 0.0
H413 H 0.6956 0.2289 0.94852 0.0
H414 H 0.59135 0.2561 0.04107 0.0
H415 H 0.54078 0.23827 0.03478 0.0
H416 H 0.56174 0.28156 0.01738 0.0
H417 H 0.53536 0.2603 0.95188 0.0
H418 H 0.51434 0.21707 0.96908 0.0
H419 H 0.54707 0.22028 0.93077 0.0
H420 H 0.66525 0.16783 0.96869 0.0
H421 H 0.62261 0.11115 0.98583 0.0
H422 H 0.53096 0.1683 0.00856 0.0
C423 C 0.61933 0.28994 0.95309 0.0
C424 C 0.65528 0.3024 0.93651 0.0
C425 C 0.68303 0.28041 0.9358 0.0
C426 C 0.67477 0.24607 0.95027 0.0
C427 C 0.63887 0.23436 0.96595 0.0
C428 C 0.61176 0.25577 0.96795 0.0
C429 C 0.57474 0.23607 0.98466 0.0
C430 C 0.56669 0.25408 0.02168 0.0
C431 C 0.5409 0.23326 0.95747 0.0
C432 C 0.58476 0.19976 0.99036 0.0
C433 C 0.62197 0.19942 0.97946 0.0
C434 C 0.63648 0.16799 0.97829 0.0
C435 C 0.61216 0.136 0.988 0.0
C436 C 0.57414 0.13589 0.99932 0.0
C437 C 0.56046 0.16818 1.00123 0.0
H438 H 0.89421 0.81207 0.38703 0.0
H439 H 0.83644 0.76138 0.48305 0.0
H440 H 0.8569 0.81732 0.5197 0.0
H441 H 0.97635 0.8583 0.43647 0.0
H442 H 0.98309 0.898 0.40956 0.0
H443 H 0.96036 0.85529 0.38899 0.0
H444 H 0.90123 0.88159 0.37151 0.0
H445 H 0.92381 0.92443 0.39205 0.0
H446 H 0.87684 0.90264 0.40698 0.0
H447 H 0.88644 0.8758 0.54738 0.0
H448 H 0.92504 0.93452 0.56573 0.0
H449 H 0.96701 0.94863 0.45334 0.0
C450 C 0.88566 0.81276 0.4157 0.0
C451 C 0.86305 0.78228 0.43184 0.0
C452 C 0.85265 0.78448 0.46954 0.0
C453 C 0.86438 0.81612 0.49077 0.0
C454 C 0.88677 0.8454 0.47411 0.0
C455 C 0.89749 0.84416 0.43753 0.0
C456 C 0.92389 0.87895 0.42738 0.0
C457 C 0.96325 0.87222 0.41487 0.0
C458 C 0.90532 0.89803 0.39772 0.0
C459 C 0.92679 0.89956 0.46425 0.0
C460 C 0.90477 0.87961 0.49056 0.0
C461 C 0.90362 0.89184 0.52704 0.0
C462 C 0.92589 0.92526 0.53716 0.0
C463 C 0.9492 0.94623 0.51097 0.0
C464 C 0.94924 0.93336 0.47386 0.0
H465 H 0.40563 0.8067 0.66751 0.0
H466 H 0.31105 0.7415 0.72455 0.0
H467 H 0.33824 0.68753 0.71085 0.0
H468 H 0.4092 0.74379 0.59409 0.0
H469 H 0.46069 0.75359 0.58978 0.0
H470 H 0.43626 0.78769 0.60737 0.0
H471 H 0.47841 0.79569 0.66662 0.0
H472 H 0.50308 0.76164 0.64915 0.0
H473 H 0.4804 0.75727 0.69374 0.0
H474 H 0.37318 0.64066 0.68834 0.0
H475 H 0.41269 0.60276 0.65656 0.0
H476 H 0.48415 0.69747 0.61179 0.0
C477 C 0.39124 0.78108 0.67763 0.0
C478 C 0.35663 0.77797 0.69745 0.0
C479 C 0.3378 0.74414 0.70961 0.0
C480 C 0.35305 0.71349 0.70201 0.0
C481 C 0.387 0.71721 0.682 0.0
C482 C 0.40589 0.75007 0.66985 0.0
C483 C 0.44044 0.74608 0.64667 0.0
C484 C 0.43638 0.75852 0.60714 0.0
C485 C 0.4778 0.76637 0.66516 0.0
C486 C 0.43762 0.70582 0.64722 0.0
C487 C 0.40682 0.68983 0.66816 0.0
C488 C 0.39756 0.65287 0.67211 0.0
C489 C 0.42017 0.63157 0.65395 0.0
C490 C 0.45152 0.64723 0.63189 0.0
C491 C 0.46051 0.68487 0.62872 0.0
H492 H 0.91668 0.97198 0.86685 0.0
H493 H 0.90722 0.85803 0.84224 0.0
H494 H 0.9236 0.8708 0.77734 0.0
H495 H 0.87493 0.99153 0.7785 0.0
H496 H 0.90644 0.03477 0.7758 0.0
H497 H 0.89256 0.01665 0.82024 0.0
H498 H 0.96419 0.02382 0.83846 0.0
H499 H 0.97829 0.04164 0.79401 0.0
H500 H 0.99543 0.00312 0.80946 0.0
H501 H 0.94551 0.89575 0.71654 0.0
H502 H 0.96713 0.93116 0.662 0.0
H503 H 0.95899 0.02896 0.72397 0.0
C504 C 0.91729 0.94961 0.8477 0.0
C505 C 0.91098 0.91395 0.85994 0.0
C506 C 0.91266 0.88561 0.8339 0.0
C507 C 0.9217 0.89256 0.79684 0.0
C508 C 0.92854 0.92798 0.78596 0.0
C509 C 0.92596 0.95604 0.81042 0.0
C510 C 0.9352 0.99168 0.79145 0.0
C511 C 0.90019 0.00972 0.7915 0.0
C512 C 0.97037 0.01652 0.80942 0.0
C513 C 0.94405 0.97927 0.7527 0.0
C514 C 0.94007 0.94238 0.75028 0.0
C515 C 0.94827 0.92459 0.71795 0.0
C516 C 0.96068 0.94497 0.68717 0.0
C517 C 0.96452 0.98273 0.68874 0.0
C518 C 0.95593 1.00008 0.72193 0.0
H519 H 0.70151 0.13112 0.32861 0.0
H520 H 0.7212 0.24606 0.31441 0.0
H521 H 0.68953 0.23574 0.25322 0.0
H522 H 0.71686 0.10615 0.23199 0.0
H523 H 0.67962 0.06636 0.23224 0.0
H524 H 0.70547 0.08271 0.27423 0.0
H525 H 0.6413 0.08511 0.30712 0.0
H526 H 0.61528 0.06885 0.26526 0.0
H527 H 0.60889 0.11036 0.28745 0.0
H528 H 0.65364 0.21316 0.19452 0.0
H529 H 0.61542 0.17968 0.14277 0.0
H530 H 0.61918 0.07947 0.19473 0.0
C531 C 0.69967 0.15408 0.31238 0.0
C532 C 0.71379 0.18942 0.32638 0.0
C533 C 0.71022 0.21876 0.30448 0.0
C534 C 0.69249 0.21318 0.26957 0.0
C535 C 0.6785 0.17806 0.25678 0.0
C536 C 0.68192 0.14899 0.27745 0.0
C537 C 0.66323 0.11403 0.25778 0.0
C538 C 0.69308 0.09096 0.24851 0.0
C539 C 0.63021 0.09339 0.28078 0.0
C540 C 0.64836 0.12803 0.22309 0.0
C541 C 0.65771 0.16504 0.22295 0.0
C542 C 0.64635 0.18416 0.19422 0.0
C543 C 0.62466 0.16496 0.16496 0.0
C544 C 0.61448 0.12707 0.16474 0.0
C545 C 0.62675 0.10845 0.19409 0.0
H546 H 0.40382 0.71171 0.36979 0.0
H547 H 0.3959 0.63902 0.27417 0.0
H548 H 0.40712 0.59049 0.31432 0.0
H549 H 0.47973 0.6844 0.41237 0.0
H550 H 0.4632 0.68877 0.45905 0.0
H551 H 0.44934 0.71582 0.42373 0.0
H552 H 0.37763 0.69191 0.4383 0.0
H553 H 0.39133 0.66483 0.47385 0.0
H554 H 0.35907 0.64421 0.4373 0.0
H555 H 0.42714 0.55274 0.36384 0.0
H556 H 0.4529 0.52823 0.41858 0.0
H557 H 0.44645 0.62567 0.48206 0.0
C558 C 0.40338 0.68522 0.35764 0.0
C559 C 0.39852 0.67855 0.31927 0.0
C560 C 0.39908 0.64414 0.30376 0.0
C561 C 0.40543 0.61656 0.32632 0.0
C562 C 0.4109 0.62405 0.3642 0.0
C563 C 0.40958 0.65749 0.37978 0.0
C564 C 0.41925 0.65954 0.42064 0.0
C565 C 0.455 0.68885 0.42944 0.0
C566 C 0.38476 0.66546 0.4439 0.0
C567 C 0.42732 0.62241 0.42548 0.0
C568 C 0.42209 0.60222 0.39271 0.0
C569 C 0.43067 0.56807 0.38979 0.0
C570 C 0.4454 0.55441 0.42102 0.0
C571 C 0.45139 0.57486 0.45474 0.0
C572 C 0.44151 0.60902 0.45697 0.0
H573 H 0.087 0.42158 0.82999 0.0
H574 H 0.18403 0.49959 0.79264 0.0
H575 H 0.17997 0.5377 0.84916 0.0
H576 H 0.03346 0.48301 0.86432 0.0
H577 H 0.01436 0.45727 0.90335 0.0
H578 H 0.0277 0.43483 0.86231 0.0
H579 H 0.07296 0.40487 0.9012 0.0
H580 H 0.05969 0.42724 0.94243 0.0
H581 H 0.10949 0.43248 0.92991 0.0
H582 H 0.16155 0.56899 0.90735 0.0
H583 H 0.13018 0.5916 0.96165 0.0
H584 H 0.04495 0.49264 0.96057 0.0
C585 C 0.10781 0.44641 0.83421 0.0
C586 C 0.13608 0.45779 0.80758 0.0
C587 C 0.16248 0.49053 0.81321 0.0
C588 C 0.16033 0.51218 0.84514 0.0
C589 C 0.13171 0.50043 0.87091 0.0
C590 C 0.106 0.46819 0.8658 0.0
C591 C 0.07645 0.46261 0.8963 0.0
C592 C 0.03559 0.45925 0.88062 0.0
C593 C 0.07987 0.42985 0.91879 0.0
C594 C 0.08885 0.49714 0.91897 0.0
C595 C 0.12101 0.51845 0.90413 0.0
C596 C 0.13662 0.55236 0.91937 0.0
C597 C 0.1186 0.56498 0.95017 0.0
C598 C 0.08521 0.54384 0.96527 0.0
C599 C 0.07062 0.50926 0.94978 0.0
H600 H 0.79998 1.00006 0.01742 0.0
H601 H 0.76885 0.92599 0.92379 0.0
H602 H 0.7035 0.93977 0.92346 0.0
H603 H 0.71323 0.97765 0.06447 0.0
H604 H 0.71218 0.0225 0.08148 0.0
H605 H 0.7574 0.00987 0.07184 0.0
H606 H 0.77525 0.0625 0.02744 0.0
H607 H 0.73019 0.07556 0.03728 0.0
H608 H 0.74296 0.06667 0.99018 0.0
H609 H 0.64048 0.95785 0.93703 0.0
H610 H 0.58476 0.98034 0.96139 0.0
H611 H 0.65718 0.04301 0.04663 0.0
C612 C 0.77957 0.98754 0.99631 0.0
C613 C 0.78913 0.96248 0.97021 0.0
C614 C 0.76184 0.94571 0.94354 0.0
C615 C 0.72479 0.95331 0.94328 0.0
C616 C 0.71584 0.97774 0.96989 0.0
C617 C 0.74256 0.99486 0.99571 0.0
C618 C 0.72514 0.01854 0.02248 0.0
C619 C 0.72711 0.00639 0.06242 0.0
C620 C 0.74454 0.05817 0.01913 0.0
C621 C 0.6842 0.01149 0.00823 0.0
C622 C 0.6795 0.98804 0.97778 0.0
C623 C 0.64393 0.97651 0.96062 0.0
C624 C 0.61238 0.98937 0.97482 0.0
C625 C 0.61648 0.01352 0.00599 0.0
C626 C 0.65302 0.02473 0.02271 0.0
H627 H 0.78831 0.16392 0.48238 0.0
H628 H 0.83091 0.15876 0.37023 0.0
H629 H 0.88214 0.12954 0.39261 0.0
H630 H 0.88069 0.18797 0.52545 0.0
H631 H 0.86674 0.16242 0.56596 0.0
H632 H 0.8316 0.18034 0.54077 0.0
H633 H 0.78913 0.11673 0.533 0.0
H634 H 0.82403 0.09862 0.55834 0.0
H635 H 0.80927 0.08079 0.51266 0.0
H636 H 0.92942 0.10142 0.42756 0.0
H637 H 0.96926 0.07726 0.47238 0.0
H638 H 0.89917 0.10579 0.56218 0.0
C639 C 0.80845 0.15692 0.46238 0.0
C640 C 0.80528 0.16376 0.42437 0.0
C641 C 0.83204 0.15334 0.39932 0.0
C642 C 0.86154 0.13698 0.41184 0.0
C643 C 0.86417 0.13144 0.44954 0.0
C644 C 0.83837 0.14117 0.47444 0.0
C645 C 0.84818 0.13339 0.51369 0.0
C646 C 0.85735 0.1681 0.53788 0.0
C647 C 0.81572 0.10574 0.53039 0.0
C648 C 0.88369 0.11784 0.50706 0.0
C649 C 0.89224 0.11665 0.46981 0.0
C650 C 0.92312 0.10245 0.45678 0.0
C651 C 0.94564 0.0889 0.48243 0.0
C652 C 0.93754 0.09009 0.5207 0.0
C653 C 0.90631 0.105 0.53312 0.0
H654 H 0.26151 0.72959 0.16843 0.0
H655 H 0.31974 0.64452 0.19784 0.0
H656 H 0.26339 0.59933 0.17612 0.0
H657 H 0.16585 0.68514 0.19401 0.0
H658 H 0.14324 0.70229 0.1559 0.0
H659 H 0.18744 0.72769 0.17533 0.0
H660 H 0.21891 0.7292 0.11066 0.0
H661 H 0.17482 0.70389 0.09104 0.0
H662 H 0.21877 0.68766 0.08513 0.0
H663 H 0.2014 0.56351 0.14848 0.0
H664 H 0.13901 0.54007 0.11766 0.0
H665 H 0.12221 0.64911 0.10623 0.0
C666 C 0.26252 0.70146 0.17021 0.0
C667 C 0.2951 0.69059 0.18477 0.0
C668 C 0.29496 0.65348 0.18714 0.0
C669 C 0.26315 0.62763 0.17474 0.0
C670 C 0.23167 0.63934 0.16023 0.0
C671 C 0.23111 0.67539 0.15804 0.0
C672 C 0.19418 0.68105 0.14065 0.0
C673 C 0.17133 0.70017 0.16812 0.0
C674 C 0.20216 0.70166 0.10474 0.0
C675 C 0.1742 0.64254 0.13289 0.0
C676 C 0.19614 0.61883 0.14451 0.0
C677 C 0.18389 0.58184 0.13946 0.0
C678 C 0.14838 0.56879 0.1219 0.0
C679 C 0.12555 0.59269 0.10953 0.0
C680 C 0.13875 0.63003 0.11544 0.0
H681 H 0.28161 0.38908 0.66937 0.0
H682 H 0.22646 0.48106 0.66951 0.0
H683 H 0.28443 0.51696 0.64161 0.0
H684 H 0.38029 0.43775 0.68569 0.0
H685 H 0.39988 0.40815 0.65459 0.0
H686 H 0.35633 0.39151 0.67928 0.0
H687 H 0.32145 0.36994 0.61724 0.0
H688 H 0.36475 0.38666 0.59237 0.0
H689 H 0.32118 0.40158 0.58138 0.0
H690 H 0.34686 0.54133 0.60858 0.0
H691 H 0.4075 0.55137 0.57307 0.0
H692 H 0.41919 0.4423 0.59141 0.0
C693 C 0.28159 0.41682 0.66375 0.0
C694 C 0.24922 0.43212 0.67165 0.0
C695 C 0.25096 0.46875 0.66429 0.0
C696 C 0.28373 0.48933 0.64821 0.0
C697 C 0.31454 0.47293 0.63965 0.0
C698 C 0.3137 0.43748 0.64729 0.0
C699 C 0.34914 0.42522 0.63302 0.0
C700 C 0.37281 0.41507 0.66506 0.0
C701 C 0.33847 0.39402 0.6043 0.0
C702 C 0.36976 0.45905 0.61534 0.0
C703 C 0.34972 0.48651 0.61994 0.0
C704 C 0.36291 0.52011 0.60521 0.0
C705 C 0.39738 0.52566 0.58528 0.0
C706 C 0.41791 0.49772 0.58016 0.0
C707 C 0.40392 0.46407 0.59526 0.0
H708 H 0.92344 0.80683 0.92374 0.0
H709 H 0.94983 0.87482 0.02302 0.0
H710 H 0.97328 0.8263 0.0533 0.0
H711 H 0.89156 0.72467 0.96765 0.0
H712 H 0.91321 0.69804 0.93498 0.0
H713 H 0.89896 0.73827 0.92056 0.0
H714 H 0.96798 0.763 0.898 0.0
H715 H 0.98239 0.72269 0.91206 0.0
H716 H 0.00784 0.76584 0.92948 0.0
H717 H 0.99037 0.76924 0.07426 0.0
H718 H 0.00494 0.70911 0.08248 0.0
H719 H 0.97163 0.67952 0.96856 0.0
C720 C 0.93475 0.81183 0.95162 0.0
C721 C 0.93429 0.84469 0.97105 0.0
C722 C 0.94898 0.84972 0.00772 0.0
C723 C 0.96264 0.82237 0.02514 0.0
C724 C 0.96196 0.79018 0.00546 0.0
C725 C 0.9489 0.78493 0.96934 0.0
C726 C 0.95138 0.74775 0.95439 0.0
C727 C 0.9114 0.7259 0.94378 0.0
C728 C 0.97905 0.74996 0.92154 0.0
C729 C 0.96752 0.73285 0.98787 0.0
C730 C 0.97318 0.75771 0.01712 0.0
C731 C 0.98648 0.7497 0.05144 0.0
C732 C 0.99456 0.71549 0.05589 0.0
C733 C 0.98967 0.6899 0.02609 0.0
C734 C 0.97597 0.69875 0.99169 0.0
H735 H 0.39396 0.84528 0.21133 0.0
H736 H 0.38394 0.77659 0.11219 0.0
H737 H 0.41016 0.82928 0.07522 0.0
H738 H 0.36923 0.92309 0.16853 0.0
H739 H 0.4032 0.95457 0.19639 0.0
H740 H 0.38143 0.91178 0.21436 0.0
H741 H 0.44885 0.89841 0.22693 0.0
H742 H 0.4708 0.9411 0.20901 0.0
H743 H 0.4827 0.90048 0.18962 0.0
H744 H 0.44242 0.88916 0.05003 0.0
H745 H 0.4759 0.9514 0.03868 0.0
H746 H 0.46307 0.98045 0.15421 0.0
C747 C 0.39714 0.84133 0.18181 0.0
C748 C 0.38693 0.80683 0.16463 0.0
C749 C 0.39119 0.80284 0.12587 0.0
C750 C 0.40619 0.83258 0.10469 0.0
C751 C 0.41645 0.86615 0.12263 0.0
C752 C 0.41182 0.87067 0.1603 0.0
C753 C 0.42601 0.9093 0.17317 0.0
C754 C 0.39299 0.92564 0.18904 0.0
C755 C 0.45905 0.91249 0.20134 0.0
C756 C 0.43999 0.92576 0.13699 0.0
C757 C 0.43423 0.90052 0.10809 0.0
C758 C 0.44662 0.90922 0.07237 0.0
C759 C 0.46559 0.94458 0.06616 0.0
C760 C 0.47176 0.9707 0.09548 0.0
C761 C 0.45838 0.96113 0.13117 0.0
H762 H 0.13899 0.32104 0.61481 0.0
H763 H 0.17618 0.29616 0.72311 0.0
H764 H 0.15796 0.23134 0.70691 0.0
H765 H 0.05648 0.25213 0.60963 0.0
H766 H 0.05985 0.24177 0.56092 0.0
H767 H 0.07969 0.28619 0.57917 0.0
H768 H 0.14587 0.2819 0.55155 0.0
H769 H 0.12618 0.2374 0.53316 0.0
H770 H 0.16784 0.24487 0.56295 0.0
H771 H 0.1317 0.1706 0.68169 0.0
H772 H 0.09721 0.11585 0.64934 0.0
H773 H 0.07554 0.17839 0.55643 0.0
C774 C 0.14384 0.30174 0.63465 0.0
C775 C 0.15923 0.31311 0.67003 0.0
C776 C 0.16462 0.28757 0.69583 0.0
C777 C 0.15449 0.25086 0.68682 0.0
C778 C 0.13896 0.24029 0.65189 0.0
C779 C 0.13359 0.26482 0.62613 0.0
C780 C 0.11376 0.24597 0.59162 0.0
C781 C 0.07516 0.25718 0.58496 0.0
C782 C 0.13999 0.25295 0.55782 0.0
C783 C 0.10804 0.20711 0.60247 0.0
C784 C 0.12325 0.20465 0.63722 0.0
C785 C 0.11998 0.17208 0.65432 0.0
C786 C 0.10014 0.14114 0.63573 0.0
C787 C 0.08367 0.14285 0.60035 0.0
C788 C 0.08827 0.17624 0.58322 0.0
H789 H 0.64673 0.28854 0.48452 0.0
H790 H 0.70812 0.32818 0.38633 0.0
H791 H 0.67028 0.37623 0.38362 0.0
H792 H 0.55243 0.30882 0.45828 0.0
H793 H 0.5426 0.32174 0.50511 0.0
H794 H 0.57123 0.28829 0.49644 0.0
H795 H 0.626 0.32567 0.53699 0.0
H796 H 0.59768 0.35925 0.54561 0.0
H797 H 0.64495 0.3717 0.52624 0.0
H798 H 0.631 0.42368 0.39616 0.0
H799 H 0.5923 0.46594 0.4219 0.0
H800 H 0.55572 0.39424 0.51123 0.0
C801 C 0.65136 0.30687 0.46197 0.0
C802 C 0.67971 0.30481 0.43533 0.0
C803 C 0.68601 0.32942 0.40664 0.0
C804 C 0.6647 0.35667 0.40494 0.0
C805 C 0.63723 0.35854 0.43208 0.0
C806 C 0.63029 0.33408 0.45988 0.0
C807 C 0.60116 0.34333 0.4871 0.0
C808 C 0.56469 0.31379 0.48669 0.0
C809 C 0.6185 0.35042 0.52628 0.0
C810 C 0.59354 0.37737 0.47092 0.0
C811 C 0.61439 0.38561 0.43905 0.0
C812 C 0.61403 0.41716 0.4207 0.0
C813 C 0.59205 0.441 0.43551 0.0
C814 C 0.5708 0.43307 0.46825 0.0
C815 C 0.57119 0.40063 0.48578 0.0
loop_
_geom_bond_atom_site_label_1
_geom_bond_atom_site_label_2
_geom_bond_distance
_geom_bond_site_symmetry_2
_ccdc_geom_bond_type
H0 C3 0.929 . S
H1 C6 0.929 . S
H2 C8 0.930 . S
C3 H0 0.929 . S
C3 C4 1.398 . S
C3 C5 1.396 . S
C4 C3 1.398 . S
C4 C8 1.407 . S
C5 C3 1.396 . S
C5 C6 1.394 . S
C6 H1 0.929 . S
C6 C5 1.394 . S
C6 C7 1.382 . S
C7 C6 1.382 . S
C7 C8 1.392 . S
C7 N9 1.420 . S
C8 H2 0.930 . S
C8 C4 1.407 . S
C8 C7 1.392 . S
N9 C7 1.420 . S
N9 C10 1.244 . S
C10 N9 1.244 . S
H11 C14 0.929 . S
H12 C17 0.929 . S
H13 C19 0.930 . S
C14 H11 0.929 . S
C14 C15 1.398 . S
C14 C16 1.396 . S
C15 C14 1.398 . S
C15 C19 1.407 . S
C16 C14 1.396 . S
C16 C17 1.394 . S
C17 H12 0.929 . S
C17 C16 1.394 . S
C17 C18 1.382 . S
C18 C17 1.382 . S
C18 C19 1.392 . S
C18 N20 1.420 . S
C19 H13 0.930 . S
C19 C15 1.407 . S
C19 C18 1.392 . S
N20 C18 1.420 . S
N20 C21 1.244 . S
C21 N20 1.244 . S
H22 C25 0.929 . S
H23 C28 0.929 . S
H24 C30 0.930 . S
C25 H22 0.929 . S
C25 C26 1.398 . S
C25 C27 1.396 . S
C26 C25 1.398 . S
C26 C30 1.407 . S
C27 C25 1.396 . S
C27 C28 1.394 . S
C28 H23 0.929 . S
C28 C27 1.394 . S
C28 C29 1.382 . S
C29 C28 1.382 . S
C29 C30 1.392 . S
C29 N31 1.420 . S
C30 H24 0.930 . S
C30 C26 1.407 . S
C30 C29 1.392 . S
N31 C29 1.420 . S
N31 C32 1.244 . S
C32 N31 1.244 . S
H33 C36 0.929 . S
H34 C39 0.929 . S
H35 C41 0.930 . S
C36 H33 0.929 . S
C36 C37 1.398 . S
C36 C38 1.396 . S
C37 C36 1.398 . S
C37 C41 1.407 . S
C38 C36 1.396 . S
C38 C39 1.394 . S
C39 H34 0.929 . S
C39 C38 1.394 . S
C39 C40 1.382 . S
C40 C39 1.382 . S
C40 C41 1.392 . S
C40 N42 1.420 . S
C41 H35 0.930 . S
C41 C37 1.407 . S
C41 C40 1.392 . S
N42 C40 1.420 . S
N42 C43 1.244 . S
C43 N42 1.244 . S
H44 C47 0.929 . S
H45 C50 0.929 . S
H46 C52 0.930 . S
C47 H44 0.929 . S
C47 C48 1.398 . S
C47 C49 1.396 . S
C48 C47 1.398 . S
C48 C52 1.407 . S
C49 C47 1.396 . S
C49 C50 1.394 . S
C50 H45 0.929 . S
C50 C49 1.394 . S
C50 C51 1.382 . S
C51 C50 1.382 . S
C51 C52 1.392 . S
C51 N53 1.420 . S
C52 H46 0.930 . S
C52 C48 1.407 . S
C52 C51 1.392 . S
N53 C51 1.420 . S
N53 C54 1.244 . S
C54 N53 1.244 . S
H55 C58 0.929 . S
H56 C61 0.929 . S
H57 C63 0.930 . S
C58 H55 0.929 . S
C58 C59 1.398 . S
C58 C60 1.396 . S
C59 C58 1.398 . S
C59 C63 1.407 . S
C60 C58 1.396 . S
C60 C61 1.394 . S
C61 H56 0.929 . S
C61 C60 1.394 . S
C61 C62 1.382 . S
C62 C61 1.382 . S
C62 C63 1.392 . S
C62 N64 1.420 . S
C63 H57 0.930 . S
C63 C59 1.407 . S
C63 C62 1.392 . S
N64 C62 1.420 . S
N64 C65 1.244 . S
C65 N64 1.244 . S
H66 C69 0.929 . S
H67 C72 0.929 . S
H68 C74 0.930 . S
C69 H66 0.929 . S
C69 C70 1.398 . S
C69 C71 1.396 . S
C70 C69 1.398 . S
C70 C74 1.407 . S
C71 C69 1.396 . S
C71 C72 1.394 . S
C72 H67 0.929 . S
C72 C71 1.394 . S
C72 C73 1.382 . S
C73 C72 1.382 . S
C73 C74 1.392 . S
C73 N75 1.420 . S
C74 H68 0.930 . S
C74 C70 1.407 . S
C74 C73 1.392 . S
N75 C73 1.420 . S
N75 C76 1.244 . S
C76 N75 1.244 . S
H77 C80 0.929 . S
H78 C83 0.929 . S
H79 C85 0.930 . S
C80 H77 0.929 . S
C80 C81 1.398 . S
C80 C82 1.396 . S
C81 C80 1.398 . S
C81 C85 1.407 . S
C82 C80 1.396 . S
C82 C83 1.394 . S
C83 H78 0.929 . S
C83 C82 1.394 . S
C83 C84 1.382 . S
C84 C83 1.382 . S
C84 C85 1.392 . S
C84 N86 1.420 . S
C85 H79 0.930 . S
C85 C81 1.407 . S
C85 C84 1.392 . S
N86 C84 1.420 . S
N86 C87 1.244 . S
C87 N86 1.244 . S
Dy88 O92 2.398 . S
Dy88 O93 2.491 . S
Dy88 O94 2.403 . S
Dy88 O95 2.664 . S
Dy88 O99 2.326 . S
Dy88 O103 2.310 1_455 S
Dy88 O104 2.360 1_545 S
C89 O100 1.185 . S
C89 O101 1.355 . S
C90 O92 1.185 . S
C90 O93 1.355 . S
Dy91 O95 2.310 1_655 S
Dy91 O98 2.351 1_655 S
Dy91 O100 2.398 1_545 S
Dy91 O101 2.491 1_545 S
Dy91 O102 2.403 . S
Dy91 O103 2.664 . S
Dy91 O105 2.326 1_545 S
O92 Dy88 2.398 . S
O92 C90 1.185 . S
O93 Dy88 2.491 . S
O93 C90 1.355 . S
O94 Dy88 2.403 . S
O94 C96 1.254 . S
O95 Dy88 2.664 . S
O95 Dy91 2.310 1_455 S
O95 C96 1.268 . S
C96 O94 1.254 . S
C96 O95 1.268 . S
C97 O102 1.254 . S
C97 O103 1.268 . S
O98 Dy91 2.351 1_455 S
O98 C106 1.249 . S
O99 Dy88 2.326 . S
O99 C106 1.267 . S
O100 C89 1.185 . S
O100 Dy91 2.398 1_565 S
O101 C89 1.355 . S
O101 Dy91 2.491 1_565 S
O102 Dy91 2.403 . S
O102 C97 1.254 . S
O103 Dy88 2.310 1_655 S
O103 Dy91 2.664 . S
O103 C97 1.268 . S
O104 Dy88 2.360 1_565 S
O104 C107 1.237 1_455 S
O105 Dy91 2.326 1_565 S
O105 C107 1.267 . S
C106 O98 1.249 . S
C106 O99 1.267 . S
C107 O104 1.237 1_655 S
C107 O105 1.267 . S
Dy108 O112 2.398 . S
Dy108 O113 2.491 . S
Dy108 O114 2.403 1_545 S
Dy108 O115 2.664 1_545 S
Dy108 O119 2.326 . S
Dy108 O123 2.310 . S
Dy108 O124 2.351 . S
C109 O120 1.185 1_565 S
C109 O121 1.355 . S
C110 O112 1.185 . S
C110 O113 1.355 . S
Dy111 O115 2.310 1_545 S
Dy111 O118 2.351 . S
Dy111 O120 2.398 1_554 S
Dy111 O121 2.491 1_544 S
Dy111 O122 2.403 1_554 S
Dy111 O123 2.664 . S
Dy111 O125 2.326 . S
O112 Dy108 2.398 . S
O112 C110 1.185 . S
O113 Dy108 2.491 . S
O113 C110 1.355 . S
O114 Dy108 2.403 1_565 S
O114 C116 1.254 . S
O115 Dy108 2.664 1_565 S
O115 Dy111 2.310 1_565 S
O115 C116 1.268 . S
C116 O114 1.254 . S
C116 O115 1.268 . S
C117 O122 1.254 1_554 S
C117 O123 1.268 . S
O118 Dy111 2.351 . S
O118 C126 1.249 . S
O119 Dy108 2.326 . S
O119 C126 1.267 . S
O120 C109 1.185 1_545 S
O120 Dy111 2.398 1_556 S
O121 C109 1.355 . S
O121 Dy111 2.491 1_566 S
O122 Dy111 2.403 1_556 S
O122 C117 1.254 1_556 S
O123 Dy108 2.310 . S
O123 Dy111 2.664 . S
O123 C117 1.268 . S
O124 Dy108 2.351 . S
O124 C127 1.250 . S
O125 Dy111 2.326 . S
O125 C127 1.273 . S
C126 O118 1.249 . S
C126 O119 1.267 . S
C127 O124 1.250 . S
C127 O125 1.273 . S
Dy128 O132 2.398 . S
Dy128 O133 2.491 . S
Dy128 O134 2.403 . S
Dy128 O135 2.664 . S
Dy128 O139 2.326 . S
Dy128 O143 2.310 . S
Dy128 O144 2.351 . S
C129 O140 1.185 . S
C129 O141 1.355 . S
C130 O132 1.185 . S
C130 O133 1.355 . S
Dy131 O135 2.310 . S
Dy131 O138 2.351 . S
Dy131 O140 2.398 . S
Dy131 O141 2.491 . S
Dy131 O142 2.403 . S
Dy131 O143 2.664 . S
Dy131 O145 2.326 . S
O132 Dy128 2.398 . S
O132 C130 1.185 . S
O133 Dy128 2.491 . S
O133 C130 1.355 . S
O134 Dy128 2.403 . S
O134 C136 1.254 . S
O135 Dy128 2.664 . S
O135 Dy131 2.310 . S
O135 C136 1.268 . S
C136 O134 1.254 . S
C136 O135 1.268 . S
C137 O142 1.254 . S
C137 O143 1.268 . S
O138 Dy131 2.351 . S
O138 C146 1.249 . S
O139 Dy128 2.326 . S
O139 C146 1.267 . S
O140 C129 1.185 . S
O140 Dy131 2.398 . S
O141 C129 1.355 . S
O141 Dy131 2.491 . S
O142 Dy131 2.403 . S
O142 C137 1.254 . S
O143 Dy128 2.310 . S
O143 Dy131 2.664 . S
O143 C137 1.268 . S
O144 Dy128 2.351 . S
O144 C147 1.249 . S
O145 Dy131 2.326 . S
O145 C147 1.267 . S
C146 O138 1.249 . S
C146 O139 1.267 . S
C147 O144 1.249 . S
C147 O145 1.267 . S
Dy148 O152 2.398 . S
Dy148 O153 2.491 . S
Dy148 O154 2.410 . S
Dy148 O155 2.663 1_455 S
Dy148 O159 2.326 . S
Dy148 O163 2.288 1_554 S
Dy148 O164 2.351 1_455 S
C149 O160 1.185 . S
C149 O161 1.355 1_556 S
C150 O152 1.185 . S
C150 O153 1.355 . S
Dy151 O155 2.309 1_455 S
Dy151 O158 2.351 . S
Dy151 O160 2.398 1_454 S
Dy151 O161 2.491 1_455 S
Dy151 O162 2.403 1_554 S
Dy151 O163 2.664 1_554 S
Dy151 O165 2.326 1_454 S
O152 Dy148 2.398 . S
O152 C150 1.185 . S
O153 Dy148 2.491 . S
O153 C150 1.355 . S
O154 Dy148 2.410 . S
O154 C156 1.249 1_455 S
O155 Dy148 2.663 1_655 S
O155 Dy151 2.309 1_655 S
O155 C156 1.268 . S
C156 O154 1.249 1_655 S
C156 O155 1.268 . S
C157 O162 1.254 . S
C157 O163 1.292 . S
O158 Dy151 2.351 . S
O158 C166 1.249 . S
O159 Dy148 2.326 . S
O159 C166 1.267 . S
O160 C149 1.185 . S
O160 Dy151 2.398 1_656 S
O161 C149 1.355 1_554 S
O161 Dy151 2.491 1_655 S
O162 Dy151 2.403 1_556 S
O162 C157 1.254 . S
O163 Dy148 2.288 1_556 S
O163 Dy151 2.664 1_556 S
O163 C157 1.292 . S
O164 Dy148 2.351 1_655 S
O164 C167 1.249 1_554 S
O165 Dy151 2.326 1_656 S
O165 C167 1.267 . S
C166 O158 1.249 . S
C166 O159 1.267 . S
C167 O164 1.249 1_556 S
C167 O165 1.267 . S
H168 C180 0.930 . S
H169 C182 0.930 . S
H170 C183 0.930 . S
H171 C187 0.959 . S
H172 C187 0.959 . S
H173 C187 0.961 . S
H174 C188 0.960 . S
H175 C188 0.961 . S
H176 C188 0.959 . S
H177 C191 0.929 . S
H178 C192 0.931 . S
H179 C194 0.930 . S
C180 H168 0.930 . S
C180 C181 1.399 . S
C180 C185 1.399 . S
C181 C180 1.399 . S
C181 C182 1.376 . S
C182 H169 0.930 . S
C182 C181 1.376 . S
C182 C183 1.388 . S
C183 H170 0.930 . S
C183 C182 1.388 . S
C183 C184 1.390 . S
C184 C183 1.390 . S
C184 C185 1.394 . S
C184 C190 1.465 . S
C185 C180 1.399 . S
C185 C184 1.394 . S
C185 C186 1.516 . S
C186 C185 1.516 . S
C186 C187 1.502 . S
C186 C188 1.561 . S
C186 C189 1.526 . S
C187 H171 0.959 . S
C187 H172 0.959 . S
C187 H173 0.961 . S
C187 C186 1.502 . S
C188 H174 0.960 . S
C188 H175 0.961 . S
C188 H176 0.959 . S
C188 C186 1.561 . S
C189 C186 1.526 . S
C189 C190 1.396 . S
C189 C194 1.390 . S
C190 C184 1.465 . S
C190 C189 1.396 . S
C190 C191 1.399 . S
C191 H177 0.929 . S
C191 C190 1.399 . S
C191 C192 1.385 . S
C192 H178 0.931 . S
C192 C191 1.385 . S
C192 C193 1.389 . S
C193 C192 1.389 . S
C193 C194 1.387 . S
C194 H179 0.930 . S
C194 C189 1.390 . S
C194 C193 1.387 . S
H195 C207 0.930 . S
H196 C209 0.930 . S
H197 C210 0.930 1_545 S
H198 C214 0.959 . S
H199 C214 0.959 . S
H200 C214 0.961 . S
H201 C215 0.960 . S
H202 C215 0.961 . S
H203 C215 0.959 . S
H204 C218 0.949 . S
H205 C219 0.931 . S
H206 C221 0.930 . S
C207 H195 0.930 . S
C207 C208 1.399 . S
C207 C212 1.399 . S
C208 C207 1.399 . S
C208 C209 1.376 . S
C209 H196 0.930 . S
C209 C208 1.376 . S
C209 C210 1.388 . S
C210 H197 0.930 1_565 S
C210 C209 1.388 . S
C210 C211 1.390 . S
C211 C210 1.390 . S
C211 C212 1.394 . S
C211 C217 1.465 . S
C212 C207 1.399 . S
C212 C211 1.394 . S
C212 C213 1.516 . S
C213 C212 1.516 . S
C213 C214 1.502 . S
C213 C215 1.561 . S
C213 C216 1.526 . S
C214 H198 0.959 . S
C214 H199 0.959 . S
C214 H200 0.961 . S
C214 C213 1.502 . S
C215 H201 0.960 . S
C215 H202 0.961 . S
C215 H203 0.959 . S
C215 C213 1.561 . S
C216 C213 1.526 . S
C216 C217 1.396 . S
C216 C221 1.390 . S
C217 C211 1.465 . S
C217 C216 1.396 . S
C217 C218 1.380 1_565 S
C218 H204 0.949 . S
C218 C217 1.380 1_545 S
C218 C219 1.385 . S
C219 H205 0.931 . S
C219 C218 1.385 . S
C219 C220 1.389 1_545 S
C220 C219 1.389 1_565 S
C220 C221 1.387 . S
C221 H206 0.930 . S
C221 C216 1.390 . S
C221 C220 1.387 . S
H222 C234 0.930 . S
H223 C236 0.930 . S
H224 C237 0.930 . S
H225 C241 0.959 . S
H226 C241 0.959 . S
H227 C241 0.961 . S
H228 C242 0.960 . S
H229 C242 0.961 . S
H230 C242 0.959 . S
H231 C245 0.929 . S
H232 C246 0.931 . S
H233 C248 0.930 . S
C234 H222 0.930 . S
C234 C235 1.399 . S
C234 C239 1.399 . S
C235 C234 1.399 . S
C235 C236 1.376 . S
C236 H223 0.930 . S
C236 C235 1.376 . S
C236 C237 1.388 . S
C237 H224 0.930 . S
C237 C236 1.388 . S
C237 C238 1.390 . S
C238 C237 1.390 . S
C238 C239 1.394 . S
C238 C244 1.465 . S
C239 C234 1.399 . S
C239 C238 1.394 . S
C239 C240 1.516 . S
C240 C239 1.516 . S
C240 C241 1.502 . S
C240 C242 1.561 . S
C240 C243 1.526 . S
C241 H225 0.959 . S
C241 H226 0.959 . S
C241 H227 0.961 . S
C241 C240 1.502 . S
C242 H228 0.960 . S
C242 H229 0.961 . S
C242 H230 0.959 . S
C242 C240 1.561 . S
C243 C240 1.526 . S
C243 C244 1.396 . S
C243 C248 1.390 . S
C244 C238 1.465 . S
C244 C243 1.396 . S
C244 C245 1.399 . S
C245 H231 0.929 . S
C245 C244 1.399 . S
C245 C246 1.385 . S
C246 H232 0.931 . S
C246 C245 1.385 . S
C246 C247 1.389 . S
C247 C246 1.389 . S
C247 C248 1.387 . S
C248 H233 0.930 . S
C248 C243 1.390 . S
C248 C247 1.387 . S
H249 C261 0.930 . S
H250 C263 0.930 . S
H251 C264 0.930 . S
H252 C268 0.959 1_655 S
H253 C268 0.959 . S
H254 C268 0.961 . S
H255 C269 0.960 . S
H256 C269 0.961 . S
H257 C269 0.959 1_655 S
H258 C272 0.929 . S
H259 C273 0.931 . S
H260 C275 0.930 1_455 S
C261 H249 0.930 . S
C261 C262 1.399 . S
C261 C266 1.399 . S
C262 C261 1.399 . S
C262 C263 1.376 . S
C263 H250 0.930 . S
C263 C262 1.376 . S
C263 C264 1.388 . S
C264 H251 0.930 . S
C264 C263 1.388 . S
C264 C265 1.390 . S
C265 C264 1.390 . S
C265 C266 1.394 . S
C265 C271 1.465 . S
C266 C261 1.399 . S
C266 C265 1.394 . S
C266 C267 1.516 . S
C267 C266 1.516 . S
C267 C268 1.502 1_655 S
C267 C269 1.561 1_655 S
C267 C270 1.526 . S
C268 H252 0.959 1_455 S
C268 H253 0.959 . S
C268 H254 0.961 . S
C268 C267 1.502 1_455 S
C269 H255 0.960 . S
C269 H256 0.961 . S
C269 H257 0.959 1_455 S
C269 C267 1.561 1_455 S
C270 C267 1.526 . S
C270 C271 1.396 . S
C270 C275 1.390 . S
C271 C265 1.465 . S
C271 C270 1.396 . S
C271 C272 1.399 . S
C272 H258 0.929 . S
C272 C271 1.399 . S
C272 C273 1.385 . S
C273 H259 0.931 . S
C273 C272 1.385 . S
C273 C274 1.389 . S
C274 C273 1.389 . S
C274 C275 1.387 . S
C275 H260 0.930 1_655 S
C275 C270 1.390 . S
C275 C274 1.387 . S
H276 C288 0.930 . S
H277 C290 0.930 . S
H278 C291 0.930 . S
H279 C295 0.959 . S
H280 C295 0.959 . S
H281 C295 0.961 . S
H282 C296 0.960 . S
H283 C296 0.961 . S
H284 C296 0.959 . S
H285 C299 0.929 . S
H286 C300 0.931 . S
H287 C302 0.930 . S
C288 H276 0.930 . S
C288 C289 1.399 . S
C288 C293 1.399 . S
C289 C288 1.399 . S
C289 C290 1.376 . S
C290 H277 0.930 . S
C290 C289 1.376 . S
C290 C291 1.388 . S
C291 H278 0.930 . S
C291 C290 1.388 . S
C291 C292 1.390 . S
C292 C291 1.390 . S
C292 C293 1.394 . S
C292 C298 1.465 . S
C293 C288 1.399 . S
C293 C292 1.394 . S
C293 C294 1.516 . S
C294 C293 1.516 . S
C294 C295 1.502 . S
C294 C296 1.561 . S
C294 C297 1.526 . S
C295 H279 0.959 . S
C295 H280 0.959 . S
C295 H281 0.961 . S
C295 C294 1.502 . S
C296 H282 0.960 . S
C296 H283 0.961 . S
C296 H284 0.959 . S
C296 C294 1.561 . S
C297 C294 1.526 . S
C297 C298 1.396 . S
C297 C302 1.390 . S
C298 C292 1.465 . S
C298 C297 1.396 . S
C298 C299 1.399 . S
C299 H285 0.929 . S
C299 C298 1.399 . S
C299 C300 1.385 . S
C300 H286 0.931 . S
C300 C299 1.385 . S
C300 C301 1.389 . S
C301 C300 1.389 . S
C301 C302 1.387 . S
C302 H287 0.930 . S
C302 C297 1.390 . S
C302 C301 1.387 . S
H303 C315 0.930 . S
H304 C317 0.930 . S
H305 C318 0.930 . S
H306 C322 0.959 . S
H307 C322 0.959 . S
H308 C322 0.961 . S
H309 C323 0.960 . S
H310 C323 0.961 . S
H311 C323 0.959 . S
H312 C326 0.929 . S
H313 C327 0.931 . S
H314 C329 0.930 . S
C315 H303 0.930 . S
C315 C316 1.399 . S
C315 C320 1.399 . S
C316 C315 1.399 . S
C316 C317 1.376 . S
C317 H304 0.930 . S
C317 C316 1.376 . S
C317 C318 1.388 . S
C318 H305 0.930 . S
C318 C317 1.388 . S
C318 C319 1.390 . S
C319 C318 1.390 . S
C319 C320 1.394 . S
C319 C325 1.465 . S
C320 C315 1.399 . S
C320 C319 1.394 . S
C320 C321 1.516 1_565 S
C321 C320 1.516 1_545 S
C321 C322 1.502 . S
C321 C323 1.561 . S
C321 C324 1.526 1_545 S
C322 H306 0.959 . S
C322 H307 0.959 . S
C322 H308 0.961 . S
C322 C321 1.502 . S
C323 H309 0.960 . S
C323 H310 0.961 . S
C323 H311 0.959 . S
C323 C321 1.561 . S
C324 C321 1.526 1_565 S
C324 C325 1.396 . S
C324 C329 1.390 1_565 S
C325 C319 1.465 . S
C325 C324 1.396 . S
C325 C326 1.399 . S
C326 H312 0.929 . S
C326 C325 1.399 . S
C326 C327 1.385 . S
C327 H313 0.931 . S
C327 C326 1.385 . S
C327 C328 1.389 . S
C328 C327 1.389 . S
C328 C329 1.387 1_565 S
C329 H314 0.930 . S
C329 C324 1.390 1_545 S
C329 C328 1.387 1_545 S
H330 C342 0.930 . S
H331 C344 0.930 . S
H332 C345 0.930 . S
H333 C349 0.959 . S
H334 C349 0.959 . S
H335 C349 0.961 . S
H336 C350 0.960 . S
H337 C350 0.961 . S
H338 C350 0.959 . S
H339 C353 0.929 1_554 S
H340 C354 0.931 . S
H341 C356 0.930 . S
C342 H330 0.930 . S
C342 C343 1.399 . S
C342 C347 1.399 . S
C343 C342 1.399 . S
C343 C344 1.376 . S
C344 H331 0.930 . S
C344 C343 1.376 . S
C344 C345 1.388 . S
C345 H332 0.930 . S
C345 C344 1.388 . S
C345 C346 1.390 . S
C346 C345 1.390 . S
C346 C347 1.394 . S
C346 C352 1.465 . S
C347 C342 1.399 . S
C347 C346 1.394 . S
C347 C348 1.516 . S
C348 C347 1.516 . S
C348 C349 1.502 . S
C348 C350 1.561 . S
C348 C351 1.526 . S
C349 H333 0.959 . S
C349 H334 0.959 . S
C349 H335 0.961 . S
C349 C348 1.502 . S
C350 H336 0.960 . S
C350 H337 0.961 . S
C350 H338 0.959 . S
C350 C348 1.561 . S
C351 C348 1.526 . S
C351 C352 1.396 . S
C351 C356 1.390 . S
C352 C346 1.465 . S
C352 C351 1.396 . S
C352 C353 1.399 . S
C353 H339 0.929 1_556 S
C353 C352 1.399 . S
C353 C354 1.385 1_556 S
C354 H340 0.931 . S
C354 C353 1.385 1_554 S
C354 C355 1.389 1_554 S
C355 C354 1.389 1_556 S
C355 C356 1.387 . S
C356 H341 0.930 . S
C356 C351 1.390 . S
C356 C355 1.387 . S
H357 C369 0.930 . S
H358 C371 0.930 . S
H359 C372 0.930 . S
H360 C376 0.959 . S
H361 C376 0.959 . S
H362 C376 0.961 . S
H363 C377 0.960 . S
H364 C377 0.961 . S
H365 C377 0.959 . S
H366 C380 0.929 . S
H367 C381 0.931 . S
H368 C383 0.930 . S
C369 H357 0.930 . S
C369 C370 1.399 . S
C369 C374 1.399 . S
C370 C369 1.399 . S
C370 C371 1.376 . S
C371 H358 0.930 . S
C371 C370 1.376 . S
C371 C372 1.388 . S
C372 H359 0.930 . S
C372 C371 1.388 . S
C372 C373 1.390 . S
C373 C372 1.390 . S
C373 C374 1.394 . S
C373 C379 1.465 . S
C374 C369 1.399 . S
C374 C373 1.394 . S
C374 C375 1.516 . S
C375 C374 1.516 . S
C375 C376 1.502 . S
C375 C377 1.561 . S
C375 C378 1.526 . S
C376 H360 0.959 . S
C376 H361 0.959 . S
C376 H362 0.961 . S
C376 C375 1.502 . S
C377 H363 0.960 . S
C377 H364 0.961 . S
C377 H365 0.959 . S
C377 C375 1.561 . S
C378 C375 1.526 . S
C378 C379 1.396 . S
C378 C383 1.390 . S
C379 C373 1.465 . S
C379 C378 1.396 . S
C379 C380 1.399 . S
C380 H366 0.929 . S
C380 C379 1.399 . S
C380 C381 1.385 . S
C381 H367 0.931 . S
C381 C380 1.385 . S
C381 C382 1.389 . S
C382 C381 1.389 . S
C382 C383 1.387 . S
C383 H368 0.930 . S
C383 C378 1.390 . S
C383 C382 1.387 . S
H384 C396 0.930 . S
H385 C398 0.930 . S
H386 C399 0.930 . S
H387 C403 0.959 . S
H388 C403 0.959 . S
H389 C403 0.961 . S
H390 C404 0.960 . S
H391 C404 0.961 . S
H392 C404 0.959 . S
H393 C407 0.929 . S
H394 C408 0.931 . S
H395 C410 0.930 . S
C396 H384 0.930 . S
C396 C397 1.399 . S
C396 C401 1.399 . S
C397 C396 1.399 . S
C397 C398 1.376 . S
C398 H385 0.930 . S
C398 C397 1.376 . S
C398 C399 1.388 . S
C399 H386 0.930 . S
C399 C398 1.388 . S
C399 C400 1.390 . S
C400 C399 1.390 . S
C400 C401 1.394 . S
C400 C406 1.465 . S
C401 C396 1.399 . S
C401 C400 1.394 . S
C401 C402 1.516 . S
C402 C401 1.516 . S
C402 C403 1.502 . S
C402 C404 1.561 . S
C402 C405 1.526 . S
C403 H387 0.959 . S
C403 H388 0.959 . S
C403 H389 0.961 . S
C403 C402 1.502 . S
C404 H390 0.960 . S
C404 H391 0.961 . S
C404 H392 0.959 . S
C404 C402 1.561 . S
C405 C402 1.526 . S
C405 C406 1.396 . S
C405 C410 1.390 . S
C406 C400 1.465 . S
C406 C405 1.396 . S
C406 C407 1.399 . S
C407 H393 0.929 . S
C407 C406 1.399 . S
C407 C408 1.385 . S
C408 H394 0.931 . S
C408 C407 1.385 . S
C408 C409 1.389 . S
C409 C408 1.389 . S
C409 C410 1.387 . S
C410 H395 0.930 . S
C410 C405 1.390 . S
C410 C409 1.387 . S
H411 C423 0.930 . S
H412 C425 0.930 . S
H413 C426 0.930 . S
H414 C430 0.959 . S
H415 C430 0.959 . S
H416 C430 0.961 . S
H417 C431 0.960 . S
H418 C431 0.961 . S
H419 C431 0.959 . S
H420 C434 0.929 . S
H421 C435 0.931 . S
H422 C437 0.930 . S
C423 H411 0.930 . S
C423 C424 1.399 . S
C423 C428 1.399 . S
C424 C423 1.399 . S
C424 C425 1.376 . S
C425 H412 0.930 . S
C425 C424 1.376 . S
C425 C426 1.388 . S
C426 H413 0.930 . S
C426 C425 1.388 . S
C426 C427 1.390 . S
C427 C426 1.390 . S
C427 C428 1.394 . S
C427 C433 1.465 . S
C428 C423 1.399 . S
C428 C427 1.394 . S
C428 C429 1.516 1_556 S
C429 C428 1.516 1_554 S
C429 C430 1.502 . S
C429 C431 1.561 . S
C429 C432 1.526 . S
C430 H414 0.959 . S
C430 H415 0.959 . S
C430 H416 0.961 . S
C430 C429 1.502 . S
C431 H417 0.960 . S
C431 H418 0.961 . S
C431 H419 0.959 . S
C431 C429 1.561 . S
C432 C429 1.526 . S
C432 C433 1.396 1_554 S
C432 C437 1.390 . S
C433 C427 1.465 . S
C433 C432 1.396 1_556 S
C433 C434 1.399 . S
C434 H420 0.929 . S
C434 C433 1.399 . S
C434 C435 1.385 . S
C435 H421 0.931 . S
C435 C434 1.385 . S
C435 C436 1.389 1_556 S
C436 C435 1.389 1_554 S
C436 C437 1.387 . S
C437 H422 0.930 . S
C437 C432 1.390 . S
C437 C436 1.387 . S
H438 C450 0.930 . S
H439 C452 0.930 . S
H440 C453 0.930 . S
H441 C457 0.959 . S
H442 C457 0.959 . S
H443 C457 0.961 . S
H444 C458 0.960 . S
H445 C458 0.961 . S
H446 C458 0.959 . S
H447 C461 0.929 . S
H448 C462 0.931 . S
H449 C464 0.930 . S
C450 H438 0.930 . S
C450 C451 1.399 . S
C450 C455 1.399 . S
C451 C450 1.399 . S
C451 C452 1.376 . S
C452 H439 0.930 . S
C452 C451 1.376 . S
C452 C453 1.388 . S
C453 H440 0.930 . S
C453 C452 1.388 . S
C453 C454 1.390 . S
C454 C453 1.390 . S
C454 C455 1.394 . S
C454 C460 1.465 . S
C455 C450 1.399 . S
C455 C454 1.394 . S
C455 C456 1.516 . S
C456 C455 1.516 . S
C456 C457 1.502 . S
C456 C458 1.561 . S
C456 C459 1.526 . S
C457 H441 0.959 . S
C457 H442 0.959 . S
C457 H443 0.961 . S
C457 C456 1.502 . S
C458 H444 0.960 . S
C458 H445 0.961 . S
C458 H446 0.959 . S
C458 C456 1.561 . S
C459 C456 1.526 . S
C459 C460 1.396 . S
C459 C464 1.390 . S
C460 C454 1.465 . S
C460 C459 1.396 . S
C460 C461 1.399 . S
C461 H447 0.929 . S
C461 C460 1.399 . S
C461 C462 1.385 . S
C462 H448 0.931 . S
C462 C461 1.385 . S
C462 C463 1.389 . S
C463 C462 1.389 . S
C463 C464 1.387 . S
C464 H449 0.930 . S
C464 C459 1.390 . S
C464 C463 1.387 . S
H465 C477 0.930 . S
H466 C479 0.930 . S
H467 C480 0.930 . S
H468 C484 0.959 . S
H469 C484 0.959 . S
H470 C484 0.961 . S
H471 C485 0.960 . S
H472 C485 0.961 . S
H473 C485 0.959 . S
H474 C488 0.929 . S
H475 C489 0.931 . S
H476 C491 0.930 . S
C477 H465 0.930 . S
C477 C478 1.399 . S
C477 C482 1.399 . S
C478 C477 1.399 . S
C478 C479 1.376 . S
C479 H466 0.930 . S
C479 C478 1.376 . S
C479 C480 1.388 . S
C480 H467 0.930 . S
C480 C479 1.388 . S
C480 C481 1.390 . S
C481 C480 1.390 . S
C481 C482 1.394 . S
C481 C487 1.465 . S
C482 C477 1.399 . S
C482 C481 1.394 . S
C482 C483 1.516 . S
C483 C482 1.516 . S
C483 C484 1.502 . S
C483 C485 1.561 . S
C483 C486 1.526 . S
C484 H468 0.959 . S
C484 H469 0.959 . S
C484 H470 0.961 . S
C484 C483 1.502 . S
C485 H471 0.960 . S
C485 H472 0.961 . S
C485 H473 0.959 . S
C485 C483 1.561 . S
C486 C483 1.526 . S
C486 C487 1.396 . S
C486 C491 1.390 . S
C487 C481 1.465 . S
C487 C486 1.396 . S
C487 C488 1.399 . S
C488 H474 0.929 . S
C488 C487 1.399 . S
C488 C489 1.385 . S
C489 H475 0.931 . S
C489 C488 1.385 . S
C489 C490 1.389 . S
C490 C489 1.389 . S
C490 C491 1.387 . S
C491 H476 0.930 . S
C491 C486 1.390 . S
C491 C490 1.387 . S
H492 C504 0.930 . S
H493 C506 0.930 . S
H494 C507 0.930 . S
H495 C511 0.959 . S
H496 C511 0.959 . S
H497 C511 0.961 . S
H498 C512 0.960 . S
H499 C512 0.961 . S
H500 C512 0.959 . S
H501 C515 0.929 . S
H502 C516 0.931 . S
H503 C518 0.930 . S
C504 H492 0.930 . S
C504 C505 1.399 . S
C504 C509 1.399 . S
C505 C504 1.399 . S
C505 C506 1.376 . S
C506 H493 0.930 . S
C506 C505 1.376 . S
C506 C507 1.388 . S
C507 H494 0.930 . S
C507 C506 1.388 . S
C507 C508 1.390 . S
C508 C507 1.390 . S
C508 C509 1.394 . S
C508 C514 1.465 . S
C509 C504 1.399 . S
C509 C508 1.394 . S
C509 C510 1.516 . S
C510 C509 1.516 . S
C510 C511 1.502 . S
C510 C512 1.561 . S
C510 C513 1.526 . S
C511 H495 0.959 . S
C511 H496 0.959 . S
C511 H497 0.961 . S
C511 C510 1.502 . S
C512 H498 0.960 . S
C512 H499 0.961 . S
C512 H500 0.959 . S
C512 C510 1.561 . S
C513 C510 1.526 . S
C513 C514 1.396 . S
C513 C518 1.390 . S
C514 C508 1.465 . S
C514 C513 1.396 . S
C514 C515 1.399 . S
C515 H501 0.929 . S
C515 C514 1.399 . S
C515 C516 1.385 . S
C516 H502 0.931 . S
C516 C515 1.385 . S
C516 C517 1.389 . S
C517 C516 1.389 . S
C517 C518 1.387 . S
C518 H503 0.930 . S
C518 C513 1.390 . S
C518 C517 1.387 . S
H519 C531 0.930 . S
H520 C533 0.930 . S
H521 C534 0.930 . S
H522 C538 0.959 . S
H523 C538 0.959 . S
H524 C538 0.961 . S
H525 C539 0.960 . S
H526 C539 0.961 . S
H527 C539 0.959 . S
H528 C542 0.929 . S
H529 C543 0.931 . S
H530 C545 0.930 . S
C531 H519 0.930 . S
C531 C532 1.399 . S
C531 C536 1.399 . S
C532 C531 1.399 . S
C532 C533 1.376 . S
C533 H520 0.930 . S
C533 C532 1.376 . S
C533 C534 1.388 . S
C534 H521 0.930 . S
C534 C533 1.388 . S
C534 C535 1.390 . S
C535 C534 1.390 . S
C535 C536 1.394 . S
C535 C541 1.465 . S
C536 C531 1.399 . S
C536 C535 1.394 . S
C536 C537 1.516 . S
C537 C536 1.516 . S
C537 C538 1.502 . S
C537 C539 1.561 . S
C537 C540 1.526 . S
C538 H522 0.959 . S
C538 H523 0.959 . S
C538 H524 0.961 . S
C538 C537 1.502 . S
C539 H525 0.960 . S
C539 H526 0.961 . S
C539 H527 0.959 . S
C539 C537 1.561 . S
C540 C537 1.526 . S
C540 C541 1.396 . S
C540 C545 1.390 . S
C541 C535 1.465 . S
C541 C540 1.396 . S
C541 C542 1.399 . S
C542 H528 0.929 . S
C542 C541 1.399 . S
C542 C543 1.385 . S
C543 H529 0.931 . S
C543 C542 1.385 . S
C543 C544 1.389 . S
C544 C543 1.389 . S
C544 C545 1.387 . S
C545 H530 0.930 . S
C545 C540 1.390 . S
C545 C544 1.387 . S
H546 C558 0.930 . S
H547 C560 0.930 . S
H548 C561 0.930 . S
H549 C565 0.959 . S
H550 C565 0.959 . S
H551 C565 0.961 . S
H552 C566 0.960 . S
H553 C566 0.961 . S
H554 C566 0.959 . S
H555 C569 0.929 . S
H556 C570 0.931 . S
H557 C572 0.930 . S
C558 H546 0.930 . S
C558 C559 1.399 . S
C558 C563 1.399 . S
C559 C558 1.399 . S
C559 C560 1.376 . S
C560 H547 0.930 . S
C560 C559 1.376 . S
C560 C561 1.388 . S
C561 H548 0.930 . S
C561 C560 1.388 . S
C561 C562 1.390 . S
C562 C561 1.390 . S
C562 C563 1.394 . S
C562 C568 1.465 . S
C563 C558 1.399 . S
C563 C562 1.394 . S
C563 C564 1.516 . S
C564 C563 1.516 . S
C564 C565 1.502 . S
C564 C566 1.561 . S
C564 C567 1.526 . S
C565 H549 0.959 . S
C565 H550 0.959 . S
C565 H551 0.961 . S
C565 C564 1.502 . S
C566 H552 0.960 . S
C566 H553 0.961 . S
C566 H554 0.959 . S
C566 C564 1.561 . S
C567 C564 1.526 . S
C567 C568 1.396 . S
C567 C572 1.390 . S
C568 C562 1.465 . S
C568 C567 1.396 . S
C568 C569 1.399 . S
C569 H555 0.929 . S
C569 C568 1.399 . S
C569 C570 1.385 . S
C570 H556 0.931 . S
C570 C569 1.385 . S
C570 C571 1.389 . S
C571 C570 1.389 . S
C571 C572 1.387 . S
C572 H557 0.930 . S
C572 C567 1.390 . S
C572 C571 1.387 . S
H573 C585 0.930 . S
H574 C587 0.930 . S
H575 C588 0.930 . S
H576 C592 0.959 . S
H577 C592 0.959 . S
H578 C592 0.961 . S
H579 C593 0.960 . S
H580 C593 0.961 . S
H581 C593 0.959 . S
H582 C596 0.929 . S
H583 C597 0.931 . S
H584 C599 0.930 . S
C585 H573 0.930 . S
C585 C586 1.399 . S
C585 C590 1.399 . S
C586 C585 1.399 . S
C586 C587 1.376 . S
C587 H574 0.930 . S
C587 C586 1.376 . S
C587 C588 1.388 . S
C588 H575 0.930 . S
C588 C587 1.388 . S
C588 C589 1.390 . S
C589 C588 1.390 . S
C589 C590 1.394 . S
C589 C595 1.465 . S
C590 C585 1.399 . S
C590 C589 1.394 . S
C590 C591 1.516 . S
C591 C590 1.516 . S
C591 C592 1.502 . S
C591 C593 1.561 . S
C591 C594 1.526 . S
C592 H576 0.959 . S
C592 H577 0.959 . S
C592 H578 0.961 . S
C592 C591 1.502 . S
C593 H579 0.960 . S
C593 H580 0.961 . S
C593 H581 0.959 . S
C593 C591 1.561 . S
C594 C591 1.526 . S
C594 C595 1.396 . S
C594 C599 1.390 . S
C595 C589 1.465 . S
C595 C594 1.396 . S
C595 C596 1.399 . S
C596 H582 0.929 . S
C596 C595 1.399 . S
C596 C597 1.385 . S
C597 H583 0.931 . S
C597 C596 1.385 . S
C597 C598 1.389 . S
C598 C597 1.389 . S
C598 C599 1.387 . S
C599 H584 0.930 . S
C599 C594 1.390 . S
C599 C598 1.387 . S
H600 C612 0.930 . S
H601 C614 0.930 . S
H602 C615 0.930 . S
H603 C619 0.959 . S
H604 C619 0.959 . S
H605 C619 0.961 1_556 S
H606 C620 0.960 . S
H607 C620 0.961 . S
H608 C620 0.959 . S
H609 C623 0.929 . S
H610 C624 0.931 . S
H611 C626 0.930 1_554 S
C612 H600 0.930 . S
C612 C613 1.399 . S
C612 C617 1.399 . S
C613 C612 1.399 . S
C613 C614 1.376 . S
C614 H601 0.930 . S
C614 C613 1.376 . S
C614 C615 1.388 . S
C615 H602 0.930 . S
C615 C614 1.388 . S
C615 C616 1.390 . S
C616 C615 1.390 . S
C616 C617 1.394 . S
C616 C622 1.465 . S
C617 C612 1.399 . S
C617 C616 1.394 . S
C617 C618 1.516 . S
C618 C617 1.516 . S
C618 C619 1.502 1_556 S
C618 C620 1.561 . S
C618 C621 1.526 . S
C619 H603 0.959 . S
C619 H604 0.959 . S
C619 H605 0.961 1_554 S
C619 C618 1.502 1_554 S
C620 H606 0.960 . S
C620 H607 0.961 . S
C620 H608 0.959 . S
C620 C618 1.561 . S
C621 C618 1.526 . S
C621 C622 1.396 . S
C621 C626 1.390 . S
C622 C616 1.465 . S
C622 C621 1.396 . S
C622 C623 1.399 . S
C623 H609 0.929 . S
C623 C622 1.399 . S
C623 C624 1.385 . S
C624 H610 0.931 . S
C624 C623 1.385 . S
C624 C625 1.389 . S
C625 C624 1.389 . S
C625 C626 1.387 . S
C626 H611 0.930 1_556 S
C626 C621 1.390 . S
C626 C625 1.387 . S
H627 C639 0.930 . S
H628 C641 0.930 . S
H629 C642 0.930 . S
H630 C646 0.959 . S
H631 C646 0.959 . S
H632 C646 0.961 . S
H633 C647 0.960 . S
H634 C647 0.961 . S
H635 C647 0.959 . S
H636 C650 0.929 . S
H637 C651 0.931 . S
H638 C653 0.930 . S
C639 H627 0.930 . S
C639 C640 1.399 . S
C639 C644 1.399 . S
C640 C639 1.399 . S
C640 C641 1.376 . S
C641 H628 0.930 . S
C641 C640 1.376 . S
C641 C642 1.388 . S
C642 H629 0.930 . S
C642 C641 1.388 . S
C642 C643 1.390 . S
C643 C642 1.390 . S
C643 C644 1.394 . S
C643 C649 1.465 . S
C644 C639 1.399 . S
C644 C643 1.394 . S
C644 C645 1.516 . S
C645 C644 1.516 . S
C645 C646 1.502 . S
C645 C647 1.561 . S
C645 C648 1.526 . S
C646 H630 0.959 . S
C646 H631 0.959 . S
C646 H632 0.961 . S
C646 C645 1.502 . S
C647 H633 0.960 . S
C647 H634 0.961 . S
C647 H635 0.959 . S
C647 C645 1.561 . S
C648 C645 1.526 . S
C648 C649 1.396 . S
C648 C653 1.390 . S
C649 C643 1.465 . S
C649 C648 1.396 . S
C649 C650 1.399 . S
C650 H636 0.929 . S
C650 C649 1.399 . S
C650 C651 1.385 . S
C651 H637 0.931 . S
C651 C650 1.385 . S
C651 C652 1.389 . S
C652 C651 1.389 . S
C652 C653 1.387 . S
C653 H638 0.930 . S
C653 C648 1.390 . S
C653 C652 1.387 . S
H654 C666 0.930 . S
H655 C668 0.930 . S
H656 C669 0.930 . S
H657 C673 0.959 . S
H658 C673 0.959 . S
H659 C673 0.961 . S
H660 C674 0.960 . S
H661 C674 0.961 . S
H662 C674 0.959 . S
H663 C677 0.929 . S
H664 C678 0.931 . S
H665 C680 0.930 . S
C666 H654 0.930 . S
C666 C667 1.399 . S
C666 C671 1.399 . S
C667 C666 1.399 . S
C667 C668 1.376 . S
C668 H655 0.930 . S
C668 C667 1.376 . S
C668 C669 1.388 . S
C669 H656 0.930 . S
C669 C668 1.388 . S
C669 C670 1.390 . S
C670 C669 1.390 . S
C670 C671 1.394 . S
C670 C676 1.465 . S
C671 C666 1.399 . S
C671 C670 1.394 . S
C671 C672 1.516 . S
C672 C671 1.516 . S
C672 C673 1.502 . S
C672 C674 1.561 . S
C672 C675 1.526 . S
C673 H657 0.959 . S
C673 H658 0.959 . S
C673 H659 0.961 . S
C673 C672 1.502 . S
C674 H660 0.960 . S
C674 H661 0.961 . S
C674 H662 0.959 . S
C674 C672 1.561 . S
C675 C672 1.526 . S
C675 C676 1.396 . S
C675 C680 1.390 . S
C676 C670 1.465 . S
C676 C675 1.396 . S
C676 C677 1.399 . S
C677 H663 0.929 . S
C677 C676 1.399 . S
C677 C678 1.385 . S
C678 H664 0.931 . S
C678 C677 1.385 . S
C678 C679 1.389 . S
C679 C678 1.389 . S
C679 C680 1.387 . S
C680 H665 0.930 . S
C680 C675 1.390 . S
C680 C679 1.387 . S
H681 C693 0.930 . S
H682 C695 0.930 . S
H683 C696 0.930 . S
H684 C700 0.959 . S
H685 C700 0.959 . S
H686 C700 0.961 . S
H687 C701 0.960 . S
H688 C701 0.961 . S
H689 C701 0.959 . S
H690 C704 0.929 . S
H691 C705 0.931 . S
H692 C707 0.930 . S
C693 H681 0.930 . S
C693 C694 1.399 . S
C693 C698 1.399 . S
C694 C693 1.399 . S
C694 C695 1.376 . S
C695 H682 0.930 . S
C695 C694 1.376 . S
C695 C696 1.388 . S
C696 H683 0.930 . S
C696 C695 1.388 . S
C696 C697 1.390 . S
C697 C696 1.390 . S
C697 C698 1.394 . S
C697 C703 1.465 . S
C698 C693 1.399 . S
C698 C697 1.394 . S
C698 C699 1.516 . S
C699 C698 1.516 . S
C699 C700 1.502 . S
C699 C701 1.561 . S
C699 C702 1.526 . S
C700 H684 0.959 . S
C700 H685 0.959 . S
C700 H686 0.961 . S
C700 C699 1.502 . S
C701 H687 0.960 . S
C701 H688 0.961 . S
C701 H689 0.959 . S
C701 C699 1.561 . S
C702 C699 1.526 . S
C702 C703 1.396 . S
C702 C707 1.390 . S
C703 C697 1.465 . S
C703 C702 1.396 . S
C703 C704 1.399 . S
C704 H690 0.929 . S
C704 C703 1.399 . S
C704 C705 1.385 . S
C705 H691 0.931 . S
C705 C704 1.385 . S
C705 C706 1.389 . S
C706 C705 1.389 . S
C706 C707 1.387 . S
C707 H692 0.930 . S
C707 C702 1.390 . S
C707 C706 1.387 . S
H708 C720 0.930 . S
H709 C722 0.930 . S
H710 C723 0.930 . S
H711 C727 0.959 . S
H712 C727 0.959 . S
H713 C727 0.961 . S
H714 C728 0.960 . S
H715 C728 0.961 . S
H716 C728 0.959 . S
H717 C731 0.929 . S
H718 C732 0.931 . S
H719 C734 0.930 . S
C720 H708 0.930 . S
C720 C721 1.399 . S
C720 C725 1.399 . S
C721 C720 1.399 . S
C721 C722 1.376 . S
C722 H709 0.930 . S
C722 C721 1.376 . S
C722 C723 1.388 . S
C723 H710 0.930 . S
C723 C722 1.388 . S
C723 C724 1.390 . S
C724 C723 1.390 . S
C724 C725 1.394 . S
C724 C730 1.465 . S
C725 C720 1.399 . S
C725 C724 1.394 . S
C725 C726 1.516 . S
C726 C725 1.516 . S
C726 C727 1.502 . S
C726 C728 1.561 . S
C726 C729 1.526 . S
C727 H711 0.959 . S
C727 H712 0.959 . S
C727 H713 0.961 . S
C727 C726 1.502 . S
C728 H714 0.960 . S
C728 H715 0.961 . S
C728 H716 0.959 . S
C728 C726 1.561 . S
C729 C726 1.526 . S
C729 C730 1.396 . S
C729 C734 1.390 . S
C730 C724 1.465 . S
C730 C729 1.396 . S
C730 C731 1.399 . S
C731 H717 0.929 . S
C731 C730 1.399 . S
C731 C732 1.385 . S
C732 H718 0.931 . S
C732 C731 1.385 . S
C732 C733 1.389 . S
C733 C732 1.389 . S
C733 C734 1.387 . S
C734 H719 0.930 . S
C734 C729 1.390 . S
C734 C733 1.387 . S
H735 C747 0.930 . S
H736 C749 0.930 . S
H737 C750 0.930 . S
H738 C754 0.959 . S
H739 C754 0.959 . S
H740 C754 0.961 . S
H741 C755 0.960 . S
H742 C755 0.961 . S
H743 C755 0.959 . S
H744 C758 0.929 . S
H745 C759 0.931 . S
H746 C761 0.930 . S
C747 H735 0.930 . S
C747 C748 1.399 . S
C747 C752 1.399 . S
C748 C747 1.399 . S
C748 C749 1.376 . S
C749 H736 0.930 . S
C749 C748 1.376 . S
C749 C750 1.388 . S
C750 H737 0.930 . S
C750 C749 1.388 . S
C750 C751 1.390 . S
C751 C750 1.390 . S
C751 C752 1.394 . S
C751 C757 1.465 . S
C752 C747 1.399 . S
C752 C751 1.394 . S
C752 C753 1.516 . S
C753 C752 1.516 . S
C753 C754 1.502 . S
C753 C755 1.561 . S
C753 C756 1.526 . S
C754 H738 0.959 . S
C754 H739 0.959 . S
C754 H740 0.961 . S
C754 C753 1.502 . S
C755 H741 0.960 . S
C755 H742 0.961 . S
C755 H743 0.959 . S
C755 C753 1.561 . S
C756 C753 1.526 . S
C756 C757 1.396 . S
C756 C761 1.390 . S
C757 C751 1.465 . S
C757 C756 1.396 . S
C757 C758 1.399 . S
C758 H744 0.929 . S
C758 C757 1.399 . S
C758 C759 1.385 . S
C759 H745 0.931 . S
C759 C758 1.385 . S
C759 C760 1.389 . S
C760 C759 1.389 . S
C760 C761 1.387 . S
C761 H746 0.930 . S
C761 C756 1.390 . S
C761 C760 1.387 . S
H762 C774 0.930 . S
H763 C776 0.930 . S
H764 C777 0.930 . S
H765 C781 0.959 . S
H766 C781 0.959 . S
H767 C781 0.961 . S
H768 C782 0.960 . S
H769 C782 0.961 . S
H770 C782 0.959 . S
H771 C785 0.929 . S
H772 C786 0.931 . S
H773 C788 0.930 . S
C774 H762 0.930 . S
C774 C775 1.399 . S
C774 C779 1.399 . S
C775 C774 1.399 . S
C775 C776 1.376 . S
C776 H763 0.930 . S
C776 C775 1.376 . S
C776 C777 1.388 . S
C777 H764 0.930 . S
C777 C776 1.388 . S
C777 C778 1.390 . S
C778 C777 1.390 . S
C778 C779 1.394 . S
C778 C784 1.465 . S
C779 C774 1.399 . S
C779 C778 1.394 . S
C779 C780 1.516 . S
C780 C779 1.516 . S
C780 C781 1.502 . S
C780 C782 1.561 . S
C780 C783 1.526 . S
C781 H765 0.959 . S
C781 H766 0.959 . S
C781 H767 0.961 . S
C781 C780 1.502 . S
C782 H768 0.960 . S
C782 H769 0.961 . S
C782 H770 0.959 . S
C782 C780 1.561 . S
C783 C780 1.526 . S
C783 C784 1.396 . S
C783 C788 1.390 . S
C784 C778 1.465 . S
C784 C783 1.396 . S
C784 C785 1.399 . S
C785 H771 0.929 . S
C785 C784 1.399 . S
C785 C786 1.385 . S
C786 H772 0.931 . S
C786 C785 1.385 . S
C786 C787 1.389 . S
C787 C786 1.389 . S
C787 C788 1.387 . S
C788 H773 0.930 . S
C788 C783 1.390 . S
C788 C787 1.387 . S
H789 C801 0.930 . S
H790 C803 0.930 . S
H791 C804 0.930 . S
H792 C808 0.959 . S
H793 C808 0.959 . S
H794 C808 0.961 . S
H795 C809 0.960 . S
H796 C809 0.961 . S
H797 C809 0.959 . S
H798 C812 0.929 . S
H799 C813 0.931 . S
H800 C815 0.930 . S
C801 H789 0.930 . S
C801 C802 1.399 . S
C801 C806 1.399 . S
C802 C801 1.399 . S
C802 C803 1.376 . S
C803 H790 0.930 . S
C803 C802 1.376 . S
C803 C804 1.388 . S
C804 H791 0.930 . S
C804 C803 1.388 . S
C804 C805 1.390 . S
C805 C804 1.390 . S
C805 C806 1.394 . S
C805 C811 1.465 . S
C806 C801 1.399 . S
C806 C805 1.394 . S
C806 C807 1.516 . S
C807 C806 1.516 . S
C807 C808 1.502 . S
C807 C809 1.561 . S
C807 C810 1.526 . S
C808 H792 0.959 . S
C808 H793 0.959 . S
C808 H794 0.961 . S
C808 C807 1.502 . S
C809 H795 0.960 . S
C809 H796 0.961 . S
C809 H797 0.959 . S
C809 C807 1.561 . S
C810 C807 1.526 . S
C810 C811 1.396 . S
C810 C815 1.390 . S
C811 C805 1.465 . S
C811 C810 1.396 . S
C811 C812 1.399 . S
C812 H798 0.929 . S
C812 C811 1.399 . S
C812 C813 1.385 . S
C813 H799 0.931 . S
C813 C812 1.385 . S
C813 C814 1.389 . S
C814 C813 1.389 . S
C814 C815 1.387 . S
C815 H800 0.930 . S
C815 C810 1.390 . S
C815 C814 1.387 . S
C181 C4 1.475 . S
C193 C90 1.471 . S
C208 C16 1.595 . S
C220 C109 1.542 . S
C247 C146 1.382 . S
C235 C32 1.399 . S
C262 C43 1.576 . S
C274 C156 1.515 . S
C301 C126 2.251 . S
C289 C5 2.191 . S
C328 C96 1.198 1_565 S
C316 C21 1.231 . S
C355 C167 1.471 . S
C343 C27 1.470 . S
C382 C137 1.320 . S
C370 C37 1.333 . S
C397 C10 1.604 . S
C409 C150 1.601 . S
C436 C117 1.789 . S
C424 C26 1.876 . S
C451 C38 1.543 . S
C463 C107 1.555 . S
C478 C15 1.351 . S
C490 C129 1.346 . S
C517 C89 1.638 . S
C505 C48 1.626 . S
C532 C59 1.419 . S
C544 C110 1.433 . S
C559 C76 1.675 . S
C571 C147 1.669 . S
C586 C87 1.425 . S
C598 C157 1.389 . S
C613 C54 1.679 . S
C625 C127 1.681 1_566 S
C652 C97 1.855 . S
C640 C60 1.878 . S
C679 C166 1.378 . S
C667 C71 1.385 . S
C706 C136 1.274 . S
C694 C82 1.315 . S
C721 C49 1.801 . S
C733 C149 1.849 . S
C760 C116 1.450 . S
C748 C70 1.467 . S
C787 C106 1.856 . S
C775 C81 1.873 . S
C802 C65 1.275 . S
C814 C130 1.246 . S
