# Generated by pormake.
# Topology llk, (3,12)-cn, num edge types: 1
# Building blocks:
#     Node 0, Type 0, BuildingBlock: BETDAH_clean_linker_0, # of connection points: 3
#     Node 1, Type 0, BuildingBlock: BETDAH_clean_linker_0, # of connection points: 3
#     Node 2, Type 0, BuildingBlock: BETDAH_clean_linker_0, # of connection points: 3
#     Node 3, Type 0, BuildingBlock: BETDAH_clean_linker_0, # of connection points: 3
#     Node 4, Type 0, BuildingBlock: BETDAH_clean_linker_0, # of connection points: 3
#     Node 5, Type 0, BuildingBlock: BETDAH_clean_linker_0, # of connection points: 3
#     Node 6, Type 0, BuildingBlock: BETDAH_clean_linker_0, # of connection points: 3
#     Node 7, Type 0, BuildingBlock: BETDAH_clean_linker_0, # of connection points: 3
#     Node 8, Type 0, BuildingBlock: BETDAH_clean_linker_0, # of connection points: 3
#     Node 9, Type 0, BuildingBlock: BETDAH_clean_linker_0, # of connection points: 3
#     Node 10, Type 0, BuildingBlock: BETDAH_clean_linker_0, # of connection points: 3
#     Node 11, Type 0, BuildingBlock: BETDAH_clean_linker_0, # of connection points: 3
#     Node 12, Type 0, BuildingBlock: BETDAH_clean_linker_0, # of connection points: 3
#     Node 13, Type 0, BuildingBlock: BETDAH_clean_linker_0, # of connection points: 3
#     Node 14, Type 0, BuildingBlock: BETDAH_clean_linker_0, # of connection points: 3
#     Node 15, Type 0, BuildingBlock: BETDAH_clean_linker_0, # of connection points: 3
#     Node 16, Type 0, BuildingBlock: BETDAH_clean_linker_0, # of connection points: 3
#     Node 17, Type 0, BuildingBlock: BETDAH_clean_linker_0, # of connection points: 3
#     Node 18, Type 0, BuildingBlock: BETDAH_clean_linker_0, # of connection points: 3
#     Node 19, Type 0, BuildingBlock: BETDAH_clean_linker_0, # of connection points: 3
#     Node 20, Type 0, BuildingBlock: BETDAH_clean_linker_0, # of connection points: 3
#     Node 21, Type 0, BuildingBlock: BETDAH_clean_linker_0, # of connection points: 3
#     Node 22, Type 0, BuildingBlock: BETDAH_clean_linker_0, # of connection points: 3
#     Node 23, Type 0, BuildingBlock: BETDAH_clean_linker_0, # of connection points: 3
#     Node 24, Type 1, BuildingBlock: QEWDON_clean_sbu_0, # of connection points: 12
#     Node 25, Type 1, BuildingBlock: QEWDON_clean_sbu_0, # of connection points: 12
#     Node 26, Type 1, BuildingBlock: QEWDON_clean_sbu_0, # of connection points: 12
#     Node 27, Type 1, BuildingBlock: QEWDON_clean_sbu_0, # of connection points: 12
#     Node 28, Type 1, BuildingBlock: QEWDON_clean_sbu_0, # of connection points: 12
#     Node 29, Type 1, BuildingBlock: QEWDON_clean_sbu_0, # of connection points: 12
#     Edge 30, Type (0, 1), BuildingBlock: CIFDUS_clean_linker_0, # of connection points: 2
#     Edge 31, Type (0, 1), BuildingBlock: CIFDUS_clean_linker_0, # of connection points: 2
#     Edge 32, Type (0, 1), BuildingBlock: CIFDUS_clean_linker_0, # of connection points: 2
#     Edge 33, Type (0, 1), BuildingBlock: CIFDUS_clean_linker_0, # of connection points: 2
#     Edge 34, Type (0, 1), BuildingBlock: CIFDUS_clean_linker_0, # of connection points: 2
#     Edge 35, Type (0, 1), BuildingBlock: CIFDUS_clean_linker_0, # of connection points: 2
#     Edge 36, Type (0, 1), BuildingBlock: CIFDUS_clean_linker_0, # of connection points: 2
#     Edge 37, Type (0, 1), BuildingBlock: CIFDUS_clean_linker_0, # of connection points: 2
#     Edge 38, Type (0, 1), BuildingBlock: CIFDUS_clean_linker_0, # of connection points: 2
#     Edge 39, Type (0, 1), BuildingBlock: CIFDUS_clean_linker_0, # of connection points: 2
#     Edge 40, Type (0, 1), BuildingBlock: CIFDUS_clean_linker_0, # of connection points: 2
#     Edge 41, Type (0, 1), BuildingBlock: CIFDUS_clean_linker_0, # of connection points: 2
#     Edge 42, Type (0, 1), BuildingBlock: CIFDUS_clean_linker_0, # of connection points: 2
#     Edge 43, Type (0, 1), BuildingBlock: CIFDUS_clean_linker_0, # of connection points: 2
#     Edge 44, Type (0, 1), BuildingBlock: CIFDUS_clean_linker_0, # of connection points: 2
#     Edge 45, Type (0, 1), BuildingBlock: CIFDUS_clean_linker_0, # of connection points: 2
#     Edge 46, Type (0, 1), BuildingBlock: CIFDUS_clean_linker_0, # of connection points: 2
#     Edge 47, Type (0, 1), BuildingBlock: CIFDUS_clean_linker_0, # of connection points: 2
#     Edge 48, Type (0, 1), BuildingBlock: CIFDUS_clean_linker_0, # of connection points: 2
#     Edge 49, Type (0, 1), BuildingBlock: CIFDUS_clean_linker_0, # of connection points: 2
#     Edge 50, Type (0, 1), BuildingBlock: CIFDUS_clean_linker_0, # of connection points: 2
#     Edge 51, Type (0, 1), BuildingBlock: CIFDUS_clean_linker_0, # of connection points: 2
#     Edge 52, Type (0, 1), BuildingBlock: CIFDUS_clean_linker_0, # of connection points: 2
#     Edge 53, Type (0, 1), BuildingBlock: CIFDUS_clean_linker_0, # of connection points: 2
#     Edge 54, Type (0, 1), BuildingBlock: CIFDUS_clean_linker_0, # of connection points: 2
#     Edge 55, Type (0, 1), BuildingBlock: CIFDUS_clean_linker_0, # of connection points: 2
#     Edge 56, Type (0, 1), BuildingBlock: CIFDUS_clean_linker_0, # of connection points: 2
#     Edge 57, Type (0, 1), BuildingBlock: CIFDUS_clean_linker_0, # of connection points: 2
#     Edge 58, Type (0, 1), BuildingBlock: CIFDUS_clean_linker_0, # of connection points: 2
#     Edge 59, Type (0, 1), BuildingBlock: CIFDUS_clean_linker_0, # of connection points: 2
#     Edge 60, Type (0, 1), BuildingBlock: CIFDUS_clean_linker_0, # of connection points: 2
#     Edge 61, Type (0, 1), BuildingBlock: CIFDUS_clean_linker_0, # of connection points: 2
#     Edge 62, Type (0, 1), BuildingBlock: CIFDUS_clean_linker_0, # of connection points: 2
#     Edge 63, Type (0, 1), BuildingBlock: CIFDUS_clean_linker_0, # of connection points: 2
#     Edge 64, Type (0, 1), BuildingBlock: CIFDUS_clean_linker_0, # of connection points: 2
#     Edge 65, Type (0, 1), BuildingBlock: CIFDUS_clean_linker_0, # of connection points: 2
#     Edge 66, Type (0, 1), BuildingBlock: CIFDUS_clean_linker_0, # of connection points: 2
#     Edge 67, Type (0, 1), BuildingBlock: CIFDUS_clean_linker_0, # of connection points: 2
#     Edge 68, Type (0, 1), BuildingBlock: CIFDUS_clean_linker_0, # of connection points: 2
#     Edge 69, Type (0, 1), BuildingBlock: CIFDUS_clean_linker_0, # of connection points: 2
#     Edge 70, Type (0, 1), BuildingBlock: CIFDUS_clean_linker_0, # of connection points: 2
#     Edge 71, Type (0, 1), BuildingBlock: CIFDUS_clean_linker_0, # of connection points: 2
#     Edge 72, Type (0, 1), BuildingBlock: CIFDUS_clean_linker_0, # of connection points: 2
#     Edge 73, Type (0, 1), BuildingBlock: CIFDUS_clean_linker_0, # of connection points: 2
#     Edge 74, Type (0, 1), BuildingBlock: CIFDUS_clean_linker_0, # of connection points: 2
#     Edge 75, Type (0, 1), BuildingBlock: CIFDUS_clean_linker_0, # of connection points: 2
#     Edge 76, Type (0, 1), BuildingBlock: CIFDUS_clean_linker_0, # of connection points: 2
#     Edge 77, Type (0, 1), BuildingBlock: CIFDUS_clean_linker_0, # of connection points: 2
#     Edge 78, Type (0, 1), BuildingBlock: CIFDUS_clean_linker_0, # of connection points: 2
#     Edge 79, Type (0, 1), BuildingBlock: CIFDUS_clean_linker_0, # of connection points: 2
#     Edge 80, Type (0, 1), BuildingBlock: CIFDUS_clean_linker_0, # of connection points: 2
#     Edge 81, Type (0, 1), BuildingBlock: CIFDUS_clean_linker_0, # of connection points: 2
#     Edge 82, Type (0, 1), BuildingBlock: CIFDUS_clean_linker_0, # of connection points: 2
#     Edge 83, Type (0, 1), BuildingBlock: CIFDUS_clean_linker_0, # of connection points: 2
#     Edge 84, Type (0, 1), BuildingBlock: CIFDUS_clean_linker_0, # of connection points: 2
#     Edge 85, Type (0, 1), BuildingBlock: CIFDUS_clean_linker_0, # of connection points: 2
#     Edge 86, Type (0, 1), BuildingBlock: CIFDUS_clean_linker_0, # of connection points: 2
#     Edge 87, Type (0, 1), BuildingBlock: CIFDUS_clean_linker_0, # of connection points: 2
#     Edge 88, Type (0, 1), BuildingBlock: CIFDUS_clean_linker_0, # of connection points: 2
#     Edge 89, Type (0, 1), BuildingBlock: CIFDUS_clean_linker_0, # of connection points: 2
#     Edge 90, Type (0, 1), BuildingBlock: CIFDUS_clean_linker_0, # of connection points: 2
#     Edge 91, Type (0, 1), BuildingBlock: CIFDUS_clean_linker_0, # of connection points: 2
#     Edge 92, Type (0, 1), BuildingBlock: CIFDUS_clean_linker_0, # of connection points: 2
#     Edge 93, Type (0, 1), BuildingBlock: CIFDUS_clean_linker_0, # of connection points: 2
#     Edge 94, Type (0, 1), BuildingBlock: CIFDUS_clean_linker_0, # of connection points: 2
#     Edge 95, Type (0, 1), BuildingBlock: CIFDUS_clean_linker_0, # of connection points: 2
#     Edge 96, Type (0, 1), BuildingBlock: CIFDUS_clean_linker_0, # of connection points: 2
#     Edge 97, Type (0, 1), BuildingBlock: CIFDUS_clean_linker_0, # of connection points: 2
#     Edge 98, Type (0, 1), BuildingBlock: CIFDUS_clean_linker_0, # of connection points: 2
#     Edge 99, Type (0, 1), BuildingBlock: CIFDUS_clean_linker_0, # of connection points: 2
#     Edge 100, Type (0, 1), BuildingBlock: CIFDUS_clean_linker_0, # of connection points: 2
#     Edge 101, Type (0, 1), BuildingBlock: CIFDUS_clean_linker_0, # of connection points: 2
# Relax obj value: 0.094
# Max RMSD: 0.166
# Mean RMSD: 0.132
data_MOF--net-llk--node1-QEWDON_clean_sbu_0--node2-BETDAH_clean_linker_0--edge1-CIFDUS_clean_linker_0
_symmetry_space_group_name_H-M    P1
_symmetry_Int_Tables_number       1
_symmetry_cell_setting            triclinic
loop_
_symmetry_equiv_pos_as_xyz
'x, y, z'
_cell_length_a     41.016645
_cell_length_b     42.622385
_cell_length_c     42.430147
_cell_angle_alpha  90.092668
_cell_angle_beta   90.143252
_cell_angle_gamma 89.610816
loop_
_atom_site_label
_atom_site_type_symbol
_atom_site_fract_x
_atom_site_fract_y
_atom_site_fract_z
_atom_type_partial_charge
H0 H 0.06558 0.25351 0.37925 0.0
H1 H 0.08062 0.30721 0.29494 0.0
H2 H 0.08021 0.20663 0.29031 0.0
C3 C 0.07046 0.25439 0.3542 0.0
C4 C 0.07235 0.22628 0.33679 0.0
C5 C 0.07368 0.28374 0.3394 0.0
C6 C 0.07902 0.28474 0.30667 0.0
C7 C 0.08133 0.25691 0.28894 0.0
C8 C 0.07839 0.22793 0.30419 0.0
N9 N 0.08575 0.25722 0.25569 0.0
C10 C 0.08444 0.28424 0.23732 0.0
H11 H 0.65469 0.09434 0.19493 0.0
H12 H 0.72216 0.1294 0.26278 0.0
H13 H 0.73901 0.14593 0.16398 0.0
C14 C 0.67616 0.1082 0.19998 0.0
C15 C 0.69498 0.12048 0.1753 0.0
C16 C 0.68609 0.11144 0.23123 0.0
C17 C 0.71478 0.12735 0.23834 0.0
C18 C 0.7341 0.13987 0.21415 0.0
C19 C 0.72387 0.13674 0.18266 0.0
N20 N 0.76467 0.1539 0.221 0.0
C21 C 0.78088 0.14788 0.24923 0.0
H22 H 0.03336 0.66694 0.24881 0.0
H23 H 0.02883 0.75352 0.30118 0.0
H24 H 0.01635 0.7541 0.20054 0.0
C25 C 0.03026 0.69221 0.24943 0.0
C26 C 0.02429 0.70847 0.22127 0.0
C27 C 0.03229 0.70819 0.27837 0.0
C28 C 0.02746 0.74096 0.279 0.0
C29 C 0.02189 0.75749 0.25075 0.0
C30 C 0.02076 0.74118 0.22215 0.0
N31 N 0.01796 0.79057 0.24987 0.0
C32 C 0.00846 0.80905 0.27525 0.0
H33 H 0.23599 0.01511 0.31561 0.0
H34 H 0.29792 0.96091 0.2537 0.0
H35 H 0.19443 0.96216 0.23957 0.0
C36 C 0.2393 0.99987 0.29541 0.0
C37 C 0.21169 0.98999 0.27865 0.0
C38 C 0.27067 0.98894 0.28749 0.0
C39 C 0.27422 0.97003 0.26034 0.0
C40 C 0.24676 0.96099 0.24268 0.0
C41 C 0.21561 0.97018 0.25253 0.0
N42 N 0.24966 0.9413 0.21586 0.0
C43 C 0.27468 0.94416 0.19407 0.0
H44 H 0.01427 0.74077 0.67851 0.0
H45 H 0.02791 0.69175 0.76573 0.0
H46 H 0.02215 0.79241 0.76564 0.0
C47 C 0.01605 0.74131 0.70399 0.0
C48 C 0.0169 0.77031 0.71987 0.0
C49 C 0.02013 0.71298 0.72043 0.0
C50 C 0.0246 0.71364 0.75321 0.0
C51 C 0.02561 0.74232 0.76956 0.0
C52 C 0.02142 0.77042 0.75283 0.0
N53 N 0.03194 0.74366 0.80254 0.0
C54 C 0.0367 0.71718 0.82121 0.0
H55 H 0.27949 0.01245 0.69687 0.0
H56 H 0.31423 0.99053 0.78949 0.0
H57 H 0.21851 0.96076 0.7606 0.0
C58 C 0.275 0.00263 0.72 0.0
C59 C 0.24571 0.98693 0.72584 0.0
C60 C 0.2996 0.00402 0.74293 0.0
C61 C 0.2948 0.98973 0.77219 0.0
C62 C 0.26536 0.97419 0.77876 0.0
C63 C 0.24107 0.97277 0.75546 0.0
N64 N 0.25982 0.95959 0.80837 0.0
C65 C 0.28101 0.96347 0.83366 0.0
H66 H 0.01104 0.33972 0.73014 0.0
H67 H 0.98081 0.25812 0.67874 0.0
H68 H 0.97099 0.26091 0.77979 0.0
C69 C 0.0013 0.31612 0.73017 0.0
C70 C 0.99244 0.30203 0.75872 0.0
C71 C -0.0029 0.30047 0.70142 0.0
C72 C 0.98424 0.27008 0.70104 0.0
C73 C 0.97443 0.25591 0.72945 0.0
C74 C 0.97832 0.27209 0.75804 0.0
N75 N 0.96 0.22576 0.73005 0.0
C76 C 0.96559 0.20307 0.70712 0.0
H77 H 0.78208 0.08483 0.70805 0.0
H78 H 0.7217 0.10605 0.78813 0.0
H79 H 0.8263 0.10397 0.79768 0.0
C80 C 0.77946 0.09161 0.73258 0.0
C81 C 0.80748 0.09467 0.75114 0.0
C82 C 0.74833 0.09553 0.74557 0.0
C83 C 0.74558 0.10264 0.77787 0.0
C84 C 0.7737 0.1058 0.79678 0.0
C85 C 0.80462 0.102 0.78318 0.0
N86 N 0.77159 0.11231 0.82953 0.0
C87 C 0.74477 0.10431 0.84772 0.0
H88 H 0.34826 0.264 0.06645 0.0
H89 H 0.25983 0.31404 0.08689 0.0
H90 H 0.26041 0.21283 0.08548 0.0
C91 C 0.32251 0.26374 0.07228 0.0
C92 C 0.30645 0.23506 0.0754 0.0
C93 C 0.3059 0.29213 0.07651 0.0
C94 C 0.27273 0.29194 0.08412 0.0
C95 C 0.25607 0.26327 0.08717 0.0
C96 C 0.27327 0.23488 0.08363 0.0
N97 N 0.22177 0.26264 0.09155 0.0
C98 C 0.20208 0.28624 0.07913 0.0
H99 H 0.30578 0.7654 0.96158 0.0
H100 H 0.22342 0.72215 0.00531 0.0
H101 H 0.22896 0.82297 9e-05 0.0
C102 C 0.28202 0.7676 0.97257 0.0
C103 C 0.2692 0.79752 0.97908 0.0
C104 C 0.26577 0.74045 0.98222 0.0
C105 C 0.23574 0.74321 0.99769 0.0
C106 C 0.22204 0.77306 0.0037 0.0
C107 C 0.2392 0.80004 0.99488 0.0
N108 N 0.19135 0.77658 0.01883 0.0
C109 C 0.16909 0.75222 0.02079 0.0
H110 H 0.82269 0.35025 0.00968 0.0
H111 H 0.76728 0.26573 0.02051 0.0
H112 H 0.87128 0.26066 0.00712 0.0
C113 C 0.82149 0.32484 0.01017 0.0
C114 C 0.85029 0.30718 0.00733 0.0
C115 C 0.7915 0.31013 0.01537 0.0
C116 C 0.79046 0.27718 0.01686 0.0
C117 C 0.81926 0.25919 0.01343 0.0
C118 C 0.84905 0.27441 0.00917 0.0
N119 N 0.81923 0.22588 0.01428 0.0
C120 C 0.79108 0.20814 0.01658 0.0
H121 H 0.78163 0.66523 0.97279 0.0
H122 H 0.74087 0.74621 0.92734 0.0
H123 H 0.84422 0.72897 0.92291 0.0
C124 C 0.78494 0.68627 0.9589 0.0
C125 C 0.81637 0.69467 0.94887 0.0
C126 C 0.75763 0.70463 0.95094 0.0
C127 C 0.76198 0.732 0.93329 0.0
C128 C 0.79324 0.74103 0.92335 0.0
C129 C 0.82024 0.72212 0.93092 0.0
N130 N 0.79797 0.76915 0.90605 0.0
C131 C 0.77431 0.79263 0.90523 0.0
H132 H 0.55509 0.76902 0.83022 0.0
H133 H 0.55259 0.81363 0.73978 0.0
H134 H 0.55387 0.71266 0.7461 0.0
C135 C 0.55571 0.76737 0.80472 0.0
C136 C 0.55576 0.73766 0.79044 0.0
C137 C 0.55409 0.79483 0.7866 0.0
C138 C 0.55349 0.79237 0.75366 0.0
C139 C 0.5535 0.76277 0.73881 0.0
C140 C 0.55431 0.73549 0.75739 0.0
N141 N 0.55207 0.75993 0.7054 0.0
C142 C 0.55204 0.78581 0.6854 0.0
H143 H 0.22367 0.54054 0.73688 0.0
H144 H 0.30062 0.56237 0.80193 0.0
H145 H 0.31498 0.57503 0.70213 0.0
C146 C 0.24817 0.54888 0.74141 0.0
C147 C 0.268 0.55735 0.71603 0.0
C148 C 0.25964 0.5509 0.77246 0.0
C149 C 0.29175 0.56084 0.77794 0.0
C150 C 0.3119 0.56964 0.7526 0.0
C151 C 0.29962 0.56834 0.72171 0.0
N152 N 0.34452 0.57969 0.75747 0.0
C153 C 0.36151 0.57452 0.78541 0.0
H154 H 0.44567 0.14803 0.76314 0.0
H155 H 0.45329 0.22963 0.8222 0.0
H156 H 0.45026 0.23993 0.72153 0.0
C157 C 0.44655 0.17331 0.76567 0.0
C158 C 0.4475 0.19221 0.73854 0.0
C159 C 0.44871 0.18657 0.796 0.0
C160 C 0.45077 0.21935 0.79902 0.0
C161 C 0.45117 0.23871 0.7722 0.0
C162 C 0.44936 0.22499 0.74215 0.0
N163 N 0.45464 0.27185 0.77461 0.0
C164 C 0.46303 0.28751 0.80232 0.0
H165 H 0.71298 0.54443 0.8423 0.0
H166 H 0.78219 0.57035 0.7715 0.0
H167 H 0.67933 0.57333 0.75063 0.0
C168 C 0.7182 0.55166 0.81834 0.0
C169 C 0.6924 0.55762 0.79739 0.0
C170 C 0.75053 0.55674 0.80931 0.0
C171 C 0.75712 0.56681 0.77853 0.0
C172 C 0.73151 0.57242 0.75706 0.0
C173 C 0.69915 0.56842 0.76687 0.0
N174 N 0.73765 0.58224 0.72565 0.0
C175 C 0.76853 0.58135 0.71218 0.0
H176 H 0.4622 0.26849 0.17198 0.0
H177 H 0.48165 0.21371 0.25444 0.0
H178 H 0.49927 0.31283 0.25615 0.0
C179 C 0.47004 0.26749 0.1963 0.0
C180 C 0.48077 0.29491 0.21164 0.0
C181 C 0.47158 0.23807 0.2111 0.0
C182 C 0.48056 0.23638 0.24298 0.0
C183 C 0.48956 0.2636 0.25954 0.0
C184 C 0.49029 0.29252 0.24359 0.0
N185 N 0.49968 0.26236 0.29166 0.0
C186 C 0.49606 0.23612 0.31092 0.0
H187 H 0.75863 0.49072 0.17201 0.0
H188 H 0.79547 0.49784 0.2664 0.0
H189 H 0.69641 0.46854 0.25033 0.0
C190 C 0.75494 0.48796 0.19715 0.0
C191 C 0.72454 0.47814 0.20846 0.0
C192 C 0.78049 0.4951 0.21793 0.0
C193 C 0.77567 0.49215 0.25049 0.0
C194 C 0.74513 0.48279 0.26231 0.0
C195 C 0.71985 0.47568 0.24117 0.0
N196 N 0.73883 0.48101 0.2952 0.0
C197 C 0.76103 0.49054 0.31803 0.0
H198 H 0.56859 0.85696 0.23995 0.0
H199 H 0.55834 0.76923 0.19203 0.0
H200 H 0.56171 0.77102 0.29315 0.0
C201 C 0.56581 0.83175 0.24115 0.0
C202 C 0.56419 0.81666 0.27058 0.0
C203 C 0.56241 0.81502 0.21289 0.0
C204 C 0.5611 0.7822 0.21382 0.0
C205 C 0.562 0.76619 0.24276 0.0
C206 C 0.56315 0.78352 0.27102 0.0
N207 N 0.56014 0.73284 0.24405 0.0
C208 C 0.55138 0.71448 0.21818 0.0
H209 H 0.31818 0.58187 0.18173 0.0
H210 H 0.26011 0.61239 0.25968 0.0
H211 H 0.36493 0.61931 0.26436 0.0
C212 C 0.31641 0.59268 0.20484 0.0
C213 C 0.34496 0.60129 0.22081 0.0
C214 C 0.28586 0.59616 0.21893 0.0
C215 C 0.28391 0.60899 0.24925 0.0
C216 C 0.31234 0.61723 0.266 0.0
C217 C 0.34292 0.61334 0.25158 0.0
N218 N 0.31057 0.62846 0.29754 0.0
C219 C 0.2821 0.626 0.31509 0.0
H220 H 0.87259 0.75939 0.5038 0.0
H221 H 0.78945 0.81709 0.4815 0.0
H222 H 0.78818 0.71871 0.45955 0.0
C223 C 0.84853 0.76197 0.49346 0.0
C224 C 0.83263 0.73549 0.48114 0.0
C225 C 0.83298 0.79145 0.49399 0.0
C226 C 0.80123 0.7943 0.48172 0.0
C227 C 0.78492 0.76803 0.46948 0.0
C228 C 0.80082 0.73886 0.46911 0.0
N229 N 0.75247 0.7701 0.45772 0.0
C230 C 0.73344 0.79719 0.45946 0.0
H231 H 0.84908 0.28124 0.44963 0.0
H232 H 0.77053 0.22194 0.47958 0.0
H233 H 0.76752 0.32054 0.49969 0.0
C234 C 0.82545 0.27822 0.46055 0.0
C235 C 0.81004 0.30429 0.47435 0.0
C236 C 0.81169 0.24816 0.46255 0.0
C237 C 0.78086 0.24504 0.47673 0.0
C238 C 0.76454 0.27131 0.48954 0.0
C239 C 0.77934 0.30072 0.48832 0.0
N240 N 0.73435 0.26854 0.50565 0.0
C241 C 0.71562 0.24156 0.50456 0.0
H242 H 0.24821 0.87304 0.55915 0.0
H243 H 0.186 0.79379 0.57462 0.0
H244 H 0.28999 0.78374 0.58435 0.0
C245 C 0.2452 0.84852 0.56514 0.0
C246 C 0.27289 0.83001 0.57134 0.0
C247 C 0.21373 0.83584 0.56657 0.0
C248 C 0.21016 0.80382 0.5735 0.0
C249 C 0.23772 0.785 0.58 0.0
C250 C 0.26886 0.79836 0.5795 0.0
N251 N 0.23484 0.75257 0.58695 0.0
C252 C 0.20901 0.7345 0.57618 0.0
H253 H 0.24558 0.14969 0.52434 0.0
H254 H 0.18244 0.23105 0.52443 0.0
H255 H 0.28592 0.24155 0.51322 0.0
C256 C 0.24208 0.17486 0.52284 0.0
C257 C 0.2694 0.19393 0.51867 0.0
C258 C 0.21054 0.18781 0.52542 0.0
C259 C 0.20649 0.22061 0.5225 0.0
C260 C 0.23376 0.23998 0.5178 0.0
C261 C 0.26499 0.2265 0.51644 0.0
N262 N 0.23116 0.27311 0.51485 0.0
C263 C 0.20244 0.29023 0.51076 0.0
Zn264 Zn 0.90195 0.9948 0.40457 0.0
Zn265 Zn 0.91994 0.06311 0.43125 0.0
O266 O 0.93301 0.01809 0.43268 0.0
H267 H 0.95001 0.00897 0.44562 0.0
C268 C 0.8916 0.95337 0.56952 0.0
O269 O 0.87338 0.97557 0.58203 0.0
Zn270 Zn 0.06017 0.0384 0.55322 0.0
Zn271 Zn 0.05157 0.9651 0.57261 0.0
O272 O 0.02669 0.00445 0.5597 0.0
H273 H 0.00382 0.00567 0.55431 0.0
Zn274 Zn 0.93767 0.0051 0.56768 0.0
O275 O 0.93607 0.03122 0.52743 0.0
Zn276 Zn 0.94948 0.07224 0.54528 0.0
H277 H 0.94119 0.02335 0.50664 0.0
Zn278 Zn 0.02677 0.96413 0.44643 0.0
O279 O 0.0206 0.00546 0.4698 0.0
H280 H 0.0085 0.00833 0.48911 0.0
Zn281 Zn 0.03261 0.03926 0.43952 0.0
C282 C 0.06675 0.93499 0.49453 0.0
O283 O 0.06991 0.96473 0.50209 0.0
O284 O 0.86808 0.02448 0.38374 0.0
O285 O 0.87647 0.06983 0.40882 0.0
O286 O 0.09659 0.97688 0.5891 0.0
O287 O 0.1038 0.02628 0.57397 0.0
O288 O 0.92633 0.03033 0.60829 0.0
O289 O 0.93025 0.07835 0.58848 0.0
C290 C 0.98172 0.08046 0.40707 0.0
O291 O 0.04768 0.96999 0.40263 0.0
O292 O 0.05569 0.02155 0.40115 0.0
O293 O 0.03119 0.93049 0.60093 0.0
C294 C 0.86067 0.05318 0.38894 0.0
O295 O 0.92194 0.95719 0.37977 0.0
C296 C 0.01471 0.0851 0.57102 0.0
O297 O 0.92091 0.95955 0.56233 0.0
C298 C 0.11384 0.00154 0.58812 0.0
O299 O 0.048 0.92774 0.47182 0.0
C300 C 0.92517 0.10487 0.48893 0.0
O301 O 0.95158 0.08653 0.40458 0.0
O302 O 0.99059 0.05946 0.42656 0.0
C303 C 0.9237 0.06004 0.61128 0.0
O304 O 0.04398 0.07656 0.57574 0.0
O305 O -0.00195 0.07076 0.55028 0.0
C306 C 0.06833 0.07103 0.4898 0.0
O307 O 0.93445 0.10765 0.5174 0.0
O308 O 0.92503 0.07787 0.47624 0.0
C309 C 0.0589 0.99426 0.38903 0.0
O310 O 0.06048 0.07147 0.4608 0.0
O311 O 0.06049 0.0474 0.5064 0.0
C312 C 0.01212 0.90851 0.59281 0.0
O313 O 0.00132 0.90731 0.56365 0.0
C314 C 0.95112 0.95974 0.37007 0.0
O315 O 0.96677 0.98605 0.37531 0.0
Zn316 Zn 0.45734 0.03833 0.04582 0.0
Zn317 Zn 0.4632 0.05744 0.97178 0.0
O318 O 0.47133 0.0225 0.00285 0.0
H319 H 0.48736 0.00604 3e-05 0.0
C320 C 0.52208 0.11036 0.08711 0.0
O321 O 0.50325 0.11092 0.06201 0.0
Zn322 Zn 0.5818 0.95291 0.94717 0.0
Zn323 Zn 0.62307 0.98213 0.98677 0.0
O324 O 0.57585 0.96881 0.9913 0.0
H325 H 0.55768 0.98163 0.9982 0.0
Zn326 Zn 0.57274 0.08678 0.0426 0.0
O327 O 0.54876 0.06342 0.00844 0.0
Zn328 Zn 0.57715 0.06734 0.97013 0.0
H329 H 0.53365 0.04658 0.01231 0.0
Zn330 Zn 0.46238 0.95227 0.02186 0.0
O331 O 0.49449 0.94412 0.98659 0.0
H332 H 0.51468 0.93245 0.98833 0.0
Zn333 Zn 0.46579 0.94883 0.9491 0.0
C334 C 0.49647 0.9138 0.06654 0.0
O335 O 0.50353 0.89951 0.03995 0.0
O336 O 0.43298 0.08029 0.04307 0.0
O337 O 0.4379 0.09324 0.99247 0.0
O338 O 0.65304 0.94586 0.9737 0.0
O339 O 0.61665 0.91839 0.94667 0.0
O340 O 0.61365 0.10983 0.02798 0.0
O341 O 0.61818 0.09315 0.97846 0.0
C342 C 0.43745 0.01122 0.93064 0.0
O343 O 0.41634 0.93747 0.00975 0.0
O344 O 0.42154 0.92884 0.95824 0.0
O345 O 0.64032 0.01642 0.01682 0.0
C346 C 0.42733 0.09888 0.02023 0.0
O347 O 0.43832 0.00814 0.07936 0.0
C348 C 0.60063 0.01587 0.92942 0.0
O349 O 0.55123 0.10042 0.08459 0.0
C350 C 0.64531 0.92141 0.95815 0.0
O351 O 0.47856 0.93823 0.06585 0.0
C352 C 0.52118 0.08446 0.93441 0.0
O353 O 0.4357 0.04042 0.93642 0.0
O354 O 0.4599 0.99531 0.94386 0.0
C355 C 0.6288 0.10906 0.00184 0.0
O356 O 0.60081 0.98736 0.92074 0.0
O357 O 0.58625 0.02355 0.95479 0.0
C358 C 0.52004 0.92739 0.91157 0.0
O359 O 0.55195 0.08724 0.93489 0.0
O360 O 0.50745 0.07154 0.95778 0.0
C361 C 0.40482 0.92763 0.98363 0.0
O362 O 0.48901 0.92786 0.9125 0.0
O363 O 0.53576 0.94241 0.93254 0.0
C364 C 0.66987 0.02513 0.01777 0.0
O365 O 0.69108 0.01229 -0.00158 0.0
C366 C 0.41061 0.99625 0.07359 0.0
O367 O 0.39721 0.00124 0.04586 0.0
Zn368 Zn 0.94312 0.4595 0.94789 0.0
Zn369 Zn 0.95351 0.53267 0.95461 0.0
O370 O 0.97902 0.49295 0.94819 0.0
H371 H 0.00159 0.48945 0.95385 0.0
C372 C -0.00609 0.41835 0.04736 0.0
O373 O 0.00066 0.43908 0.02549 0.0
Zn374 Zn 0.08876 0.54948 0.05989 0.0
Zn375 Zn 0.08167 0.4962 0.10906 0.0
O376 O 0.06653 0.50786 0.06491 0.0
H377 H 0.04746 0.50051 0.05381 0.0
Zn378 Zn -0.00593 0.47457 0.08627 0.0
O379 O 0.97902 0.50124 0.04887 0.0
Zn380 Zn 0.9727 0.54201 0.07084 0.0
H381 H 0.96556 0.493 0.03212 0.0
Zn382 Zn 0.10329 0.47943 0.95593 0.0
O383 O 0.07368 0.51062 0.97722 0.0
H384 H 0.05813 0.50576 0.99354 0.0
Zn385 Zn 0.07011 0.54667 0.94745 0.0
C386 C 0.10728 0.4322 0.00647 0.0
O387 O 0.08186 0.44781 0.01713 0.0
O388 O 0.89791 0.47709 0.935 0.0
O389 O 0.90858 0.52803 0.936 0.0
O390 O 0.12269 0.52021 0.12282 0.0
O391 O 0.13349 0.5486 0.08021 0.0
O392 O 0.9667 0.48594 0.12578 0.0
O393 O 0.94897 0.53329 0.11178 0.0
C394 C 0.00384 0.57254 0.92966 0.0
O395 O 0.12754 0.49699 0.91732 0.0
O396 O 0.09853 0.54055 0.90842 0.0
O397 O 0.07632 0.4511 0.12744 0.0
C398 C 0.88938 0.50542 0.93003 0.0
O399 O 0.95213 0.41738 0.9249 0.0
C400 C 0.03396 0.58129 0.08814 0.0
O401 O 0.99299 0.42714 0.07598 0.0
C402 C 0.14129 0.53853 0.10754 0.0
O403 O 0.12068 0.44097 0.98097 0.0
C404 C 0.93974 0.5659 0.01481 0.0
O405 O 0.97328 0.56942 0.93239 0.0
O406 O 0.02227 0.55042 0.93904 0.0
C407 C 0.94911 0.51019 0.13091 0.0
O408 O 0.06448 0.58248 0.08377 0.0
O409 O 0.01823 0.55887 0.07564 0.0
C410 C 0.0916 0.58619 0.99822 0.0
O411 O 0.94453 0.57073 0.04404 0.0
O412 O 0.9539 0.54296 0.00128 0.0
C413 C 0.12124 0.52128 0.90081 0.0
O414 O 0.08536 0.5859 0.9689 0.0
O415 O 0.08786 0.56097 0.0138 0.0
C416 C 0.0546 0.44584 0.14806 0.0
O417 O 0.03449 0.46866 0.15593 0.0
C418 C 0.97795 0.41165 0.90944 0.0
O419 O 0.00159 0.4323 0.90977 0.0
Zn420 Zn 0.46457 0.47383 0.98845 0.0
Zn421 Zn 0.4756 0.47214 0.06408 0.0
O422 O 0.48739 0.49527 0.02474 0.0
H423 H 0.50584 0.50907 0.02284 0.0
C424 C 0.53568 0.39504 0.93885 0.0
O425 O 0.53013 0.3831 0.96684 0.0
Zn426 Zn 0.56557 0.56737 0.04896 0.0
Zn427 Zn 0.55338 0.57422 0.98007 0.0
O428 O 0.56156 0.53884 0.01161 0.0
H429 H 0.57473 0.52047 0.00727 0.0
Zn430 Zn 0.5746 0.44014 0.97662 0.0
O431 O 0.54815 0.44544 0.01663 0.0
Zn432 Zn 0.58011 0.4509 0.0524 0.0
H433 H 0.52554 0.4395 0.01847 0.0
Zn434 Zn 0.45282 0.58181 0.95815 0.0
O435 O 0.48202 0.57443 0.99643 0.0
H436 H 0.50078 0.5607 0.9957 0.0
Zn437 Zn 0.45432 0.58013 0.03492 0.0
C438 C 0.49863 0.61256 0.91481 0.0
O439 O 0.51417 0.61786 0.94139 0.0
O440 O 0.43558 0.43734 0.00277 0.0
O441 O 0.44191 0.43873 0.055 0.0
O442 O 0.58339 0.61161 0.98931 0.0
O443 O 0.59815 0.6013 0.03852 0.0
O444 O 0.62202 0.42764 0.98684 0.0
O445 O 0.62455 0.43248 0.03926 0.0
C446 C 0.45076 0.53108 0.0872 0.0
O447 O 0.40798 0.6002 0.96983 0.0
O448 O 0.40902 0.5968 0.02211 0.0
O449 O 0.55668 0.56261 0.93289 0.0
C450 C 0.42883 0.42723 0.03023 0.0
O451 O 0.44862 0.50023 0.95015 0.0
C452 C 0.58633 0.51346 0.0871 0.0
O453 O 0.55323 0.41947 0.93674 0.0
C454 C 0.601 0.61736 0.01336 0.0
O455 O 0.4723 0.59703 0.9155 0.0
C456 C 0.53201 0.4308 0.09383 0.0
O457 O 0.45774 0.50322 0.0958 0.0
O458 O 0.45478 0.5384 0.05831 0.0
C459 C 0.63747 0.42498 0.01284 0.0
O460 O 0.58131 0.54296 0.08684 0.0
O461 O 0.58002 0.49753 0.06246 0.0
C462 C 0.50546 0.60709 0.071 0.0
O463 O 0.56223 0.42642 0.08902 0.0
O464 O 0.51802 0.45262 0.07837 0.0
C465 C 0.39441 0.60417 0.99652 0.0
O466 O 0.47537 0.61085 0.06482 0.0
O467 O 0.52083 0.58625 0.05532 0.0
C468 C 0.55892 0.53478 0.92239 0.0
O469 O 0.55533 0.5112 0.94197 0.0
C470 C 0.42301 0.51699 0.95281 0.0
O471 O 0.40797 0.518 0.9801 0.0
Zn472 Zn 0.97026 0.482 0.46279 0.0
Zn473 Zn 0.96285 0.55474 0.45409 0.0
O474 O -0.00355 0.52066 0.45128 0.0
H475 H 0.01986 0.52242 0.45199 0.0
C476 C 0.91904 0.4448 0.53558 0.0
O477 O 0.90772 0.47262 0.52769 0.0
Zn478 Zn 0.08831 0.54956 0.55612 0.0
Zn479 Zn 0.09165 0.47331 0.55584 0.0
O480 O 0.06206 0.51118 0.5479 0.0
H481 H 0.04156 0.51089 0.53663 0.0
Zn482 Zn 0.95736 0.48419 0.57583 0.0
O483 O 0.96696 0.51732 0.5434 0.0
Zn484 Zn 0.96955 0.55646 0.56877 0.0
H485 H 0.97823 0.51309 0.52386 0.0
Zn486 Zn 0.09292 0.50349 0.42697 0.0
O487 O 0.08153 0.53145 0.46436 0.0
H488 H 0.07203 0.52401 0.48374 0.0
Zn489 Zn 0.07672 0.5746 0.44555 0.0
C490 C 0.1034 0.44135 0.4597 0.0
O491 O 0.08751 0.45446 0.48319 0.0
O492 O 0.92239 0.48696 0.44868 0.0
O493 O 0.91933 0.53802 0.43789 0.0
O494 O 0.13636 0.48558 0.57498 0.0
O495 O 0.13336 0.53763 0.57246 0.0
O496 O 0.93201 0.50187 0.61391 0.0
O497 O 0.94257 0.55276 0.60894 0.0
C498 C 0.00679 0.59873 0.42493 0.0
O499 O 0.11863 0.52854 0.39375 0.0
O500 O 0.1061 0.57773 0.40708 0.0
O501 O 0.0698 0.43342 0.57439 0.0
C502 C 0.90668 0.51067 0.43819 0.0
O503 O 0.99041 0.43815 0.4528 0.0
C504 C 0.03618 0.57818 0.5933 0.0
O505 O 0.94115 0.44279 0.5565 0.0
C506 C 0.14883 0.51255 0.57958 0.0
O507 O 0.10801 0.45701 0.4346 0.0
C508 C 0.94757 0.59021 0.51401 0.0
O509 O 0.97686 0.59206 0.42859 0.0
O510 O 0.02815 0.58103 0.43774 0.0
C511 C 0.92868 0.53015 0.62325 0.0
O512 O 0.06684 0.57578 0.5898 0.0
O513 O 0.01776 0.56293 0.57479 0.0
C514 C 0.09797 0.60077 0.50537 0.0
O515 O 0.94932 0.59148 0.54382 0.0
O516 O 0.96003 0.56683 0.49976 0.0
C517 C 0.12139 0.55805 0.38971 0.0
O518 O 0.09354 0.60693 0.47637 0.0
O519 O 0.0895 0.57384 0.51523 0.0
C520 C 0.03943 0.43417 0.58022 0.0
O521 O 0.02265 0.45954 0.57307 0.0
C522 C 0.01522 0.43519 0.43511 0.0
O523 O 0.02943 0.46053 0.42435 0.0
Zn524 Zn 0.47108 0.98508 0.43789 0.0
Zn525 Zn 0.44609 0.05267 0.46692 0.0
O526 O 0.48395 0.02195 0.46548 0.0
H527 H 0.50237 0.02213 0.47971 0.0
C528 C 0.4254 0.94171 0.54974 0.0
O529 O 0.42717 0.9658 0.53055 0.0
Zn530 Zn 0.57107 0.07587 0.55735 0.0
Zn531 Zn 0.55095 0.0261 0.60604 0.0
O532 O 0.54648 0.03535 0.55962 0.0
H533 H 0.54432 0.02026 0.54273 0.0
Zn534 Zn 0.47275 0.97899 0.58573 0.0
O535 O 0.47169 0.01596 0.55529 0.0
Zn536 Zn 0.46272 0.0547 0.58056 0.0
H537 H 0.47958 0.0154 0.53388 0.0
Zn538 Zn 0.57316 0.99594 0.41929 0.0
O539 O 0.56601 0.02405 0.45762 0.0
H540 H 0.56842 0.01843 0.47956 0.0
Zn541 Zn 0.55733 0.06706 0.44017 0.0
C542 C 0.61756 0.94649 0.44347 0.0
O543 O 0.62601 0.96883 0.46318 0.0
O544 O 0.42605 0.99264 0.41857 0.0
O545 O 0.40646 0.03522 0.44291 0.0
O546 O 0.59159 0.04721 0.62473 0.0
O547 O 0.61237 0.07361 0.58424 0.0
O548 O 0.46331 0.99236 0.63151 0.0
O549 O 0.45045 0.04274 0.62515 0.0
C550 C 0.48831 0.09659 0.43557 0.0
O551 O 0.5835 0.0209 0.37913 0.0
O552 O 0.56906 0.06912 0.39401 0.0
O553 O 0.53823 0.9822 0.62371 0.0
C554 C 0.40337 0.01257 0.42335 0.0
O555 O 0.50243 0.9631 0.40598 0.0
C556 C 0.51633 0.10625 0.58693 0.0
O557 O 0.44377 0.94094 0.57388 0.0
C558 C 0.6142 0.0637 0.61269 0.0
O559 O 0.59525 0.95198 0.42334 0.0
C560 C 0.42126 0.07971 0.53093 0.0
O561 O 0.45881 0.0922 0.4435 0.0
O562 O 0.50959 0.07723 0.44585 0.0
C563 C 0.45269 0.01833 0.64244 0.0
O564 O 0.54539 0.1108 0.57801 0.0
O565 O 0.50326 0.08049 0.57888 0.0
C566 C 0.5919 0.10082 0.49152 0.0
O567 O 0.42654 0.07977 0.56049 0.0
O568 O 0.43868 0.06199 0.51347 0.0
C569 C 0.57968 0.05 0.37328 0.0
O570 O 0.58672 0.09771 0.46214 0.0
O571 O 0.57625 0.08355 0.51054 0.0
C572 C 0.55176 0.95745 0.61305 0.0
O573 O 0.57304 0.95996 0.59011 0.0
C574 C 0.51513 0.93593 0.40902 0.0
O575 O 0.5122 0.92105 0.43595 0.0
H576 H 0.14962 0.19292 0.49967 0.0
H577 H 0.20745 0.13446 0.56157 0.0
H578 H 0.16595 0.0939 0.55964 0.0
H579 H 0.11707 0.07194 0.53372 0.0
H580 H 0.05844 0.1317 0.47424 0.0
H581 H 0.09577 0.17512 0.48276 0.0
C582 C 0.15282 0.17179 0.51356 0.0
C583 C 0.18224 0.16645 0.5298 0.0
C584 C 0.12867 0.14859 0.51269 0.0
C585 C 0.18565 0.13878 0.54775 0.0
C586 C 0.16178 0.11558 0.54691 0.0
C587 C 0.11192 0.09477 0.52362 0.0
C588 C 0.08556 0.09845 0.50278 0.0
C589 C 0.13375 0.11969 0.52843 0.0
C590 C 0.07917 0.12813 0.48967 0.0
C591 C 0.10048 0.15299 0.49455 0.0
H592 H 0.87701 0.24001 0.4705 0.0
H593 H 0.79116 0.1918 0.43739 0.0
H594 H 0.82174 0.14237 0.43628 0.0
H595 H 0.86978 0.11201 0.45473 0.0
H596 H 0.95435 0.16128 0.48853 0.0
H597 H 0.9277 0.21149 0.47796 0.0
C598 C 0.86506 0.21911 0.4618 0.0
C599 C 0.83151 0.21973 0.45466 0.0
C600 C 0.88265 0.19085 0.46142 0.0
C601 C 0.81669 0.19196 0.44392 0.0
C602 C 0.83421 0.16366 0.44314 0.0
C603 C 0.88284 0.13376 0.45825 0.0
C604 C 0.91388 0.13314 0.47233 0.0
C605 C 0.8668 0.16261 0.45327 0.0
C606 C 0.9304 0.16138 0.47768 0.0
C607 C 0.91505 0.19005 0.47193 0.0
H608 H 0.80681 0.83603 0.53248 0.0
H609 H 0.89659 0.80904 0.48673 0.0
H610 H 0.9234 0.8555 0.50813 0.0
H611 H 0.92048 0.90522 0.53743 0.0
H612 H 0.83001 0.9329 0.58165 0.0
H613 H 0.80436 0.88478 0.56313 0.0
C614 C 0.83219 0.84041 0.52701 0.0
C615 C 0.84957 0.8192 0.50782 0.0
C616 C 0.84733 0.86732 0.53907 0.0
C617 C 0.88267 0.82487 0.50158 0.0
C618 C 0.89798 0.85152 0.51368 0.0
C619 C 0.89522 0.90064 0.54325 0.0
C620 C 0.87716 0.92279 0.56075 0.0
C621 C 0.88045 0.87308 0.53217 0.0
C622 C 0.84448 0.91637 0.56812 0.0
C623 C 0.82974 0.88887 0.55748 0.0
H624 H 0.15992 0.82253 0.53104 0.0
H625 H 0.20304 0.89534 0.58806 0.0
H626 H 0.16001 0.9318 0.5723 0.0
H627 H 0.11304 0.94425 0.53909 0.0
H628 H 0.06893 0.87178 0.4825 0.0
H629 H 0.10908 0.83376 0.50189 0.0
C630 C 0.15949 0.84617 0.54056 0.0
C631 C 0.185 0.85633 0.56025 0.0
C632 C 0.13455 0.86709 0.53148 0.0
C633 C 0.18413 0.88711 0.57227 0.0
C634 C 0.15942 0.90795 0.56345 0.0
C635 C 0.11171 0.92002 0.53148 0.0
C636 C 0.08809 0.91098 0.50929 0.0
C637 C 0.13496 0.8984 0.54253 0.0
C638 C 0.08696 0.87946 0.49948 0.0
C639 C 0.10997 0.8577 0.51051 0.0
H640 H 0.51328 0.18877 0.2114 0.0
H641 H 0.4262 0.22341 0.16571 0.0
H642 H 0.43179 0.18328 0.12472 0.0
H643 H 0.46634 0.14409 0.09781 0.0
H644 H 0.55469 0.11149 0.14312 0.0
H645 H 0.54325 0.1446 0.18862 0.0
C646 C 0.49486 0.18689 0.19311 0.0
C647 C 0.46956 0.20925 0.19143 0.0
C648 C 0.49876 0.1644 0.16924 0.0
C649 C 0.44614 0.20669 0.16729 0.0
C650 C 0.4494 0.18384 0.1438 0.0
C651 C 0.48277 0.14377 0.11789 0.0
C652 C 0.51167 0.1258 0.11674 0.0
C653 C 0.47643 0.16347 0.14381 0.0
C654 C 0.53251 0.12544 0.14313 0.0
C655 C 0.52602 0.14441 0.1692 0.0
H656 H 0.84093 0.47007 0.22707 0.0
H657 H 0.78976 0.54506 0.17969 0.0
H658 H 0.83973 0.55991 0.15241 0.0
H659 H 0.89563 0.5474 0.1371 0.0
H660 H 0.94609 0.46964 0.18092 0.0
H661 H 0.89915 0.46051 0.21504 0.0
C662 C 0.84104 0.49 0.21122 0.0
C663 C 0.81183 0.50635 0.20512 0.0
C664 C 0.86968 0.49781 0.19489 0.0
C665 C 0.812 0.53202 0.18442 0.0
C666 C 0.84053 0.5405 0.16887 0.0
C667 C 0.89675 0.52889 0.1546 0.0
C668 C 0.92427 0.50907 0.15621 0.0
C669 C 0.86923 0.52297 0.17319 0.0
C670 C 0.92513 0.48514 0.17901 0.0
C671 C 0.89822 0.47978 0.19842 0.0
H672 H 0.52427 0.86644 0.20436 0.0
H673 H 0.58642 0.80151 0.15399 0.0
H674 H 0.57206 0.82707 0.10424 0.0
H675 H 0.5401 0.86642 0.07509 0.0
H676 H 0.47862 0.93166 0.12592 0.0
H677 H 0.49515 0.90771 0.17573 0.0
C678 C 0.5353 0.85826 0.18262 0.0
C679 C 0.55646 0.83211 0.18292 0.0
C680 C 0.52699 0.87304 0.15424 0.0
C681 C 0.56985 0.8214 0.15438 0.0
C682 C 0.56172 0.83605 0.12596 0.0
C683 C 0.53042 0.8755 0.09707 0.0
C684 C 0.50799 0.90063 0.09678 0.0
C685 C 0.53997 0.86161 0.1256 0.0
C686 C 0.49588 0.91231 0.12548 0.0
C687 C 0.50527 0.8986 0.15396 0.0
H688 H 0.26929 0.60359 0.15723 0.0
H689 H 0.2366 0.56185 0.24414 0.0
H690 H 0.18966 0.5396 0.21698 0.0
H691 H 0.1585 0.53135 0.16873 0.0
H692 H 0.19044 0.57319 0.08153 0.0
H693 H 0.23764 0.59545 0.10858 0.0
C694 C 0.25191 0.58953 0.17016 0.0
C695 C 0.25637 0.58442 0.20264 0.0
C696 C 0.22515 0.57653 0.15433 0.0
C697 C 0.23347 0.56652 0.21923 0.0
C698 C 0.2068 0.55353 0.20366 0.0
C699 C 0.17588 0.54511 0.15548 0.0
C700 C 0.17106 0.55037 0.12309 0.0
C701 C 0.20254 0.55824 0.17122 0.0
C702 C 0.19366 0.56861 0.10646 0.0
C703 C 0.22058 0.58146 0.12193 0.0
H704 H 0.58629 0.81677 0.83824 0.0
H705 H 0.51188 0.84199 0.77059 0.0
H706 H 0.49815 0.88857 0.80138 0.0
H707 H 0.5019 0.91778 0.85121 0.0
H708 H 0.57259 0.88973 0.9209 0.0
H709 H 0.59368 0.8491 0.88565 0.0
C710 C 0.5673 0.83266 0.8301 0.0
C711 C 0.54987 0.82569 0.8024 0.0
C712 C 0.55893 0.85897 0.84835 0.0
C713 C 0.52578 0.84682 0.79177 0.0
C714 C 0.5177 0.87335 0.8095 0.0
C715 C 0.52246 0.90321 0.85826 0.0
C716 C 0.53645 0.90723 0.88822 0.0
C717 C 0.53334 0.87903 0.83835 0.0
C718 C 0.56269 0.88806 0.89739 0.0
C719 C 0.57418 0.86435 0.87747 0.0
H720 H 0.19722 0.57017 0.78153 0.0
H721 H 0.27329 0.51296 0.82262 0.0
H722 H 0.23656 0.49761 0.86518 0.0
H723 H 0.18292 0.50046 0.89054 0.0
H724 H 0.10751 0.55953 0.85076 0.0
H725 H 0.14377 0.57382 0.80751 0.0
C726 C 0.20566 0.55422 0.79976 0.0
C727 C 0.23782 0.54256 0.79892 0.0
C728 C 0.18449 0.5457 0.82418 0.0
C729 C 0.24869 0.52237 0.82292 0.0
C730 C 0.22765 0.51346 0.84711 0.0
C731 C 0.17428 0.51621 0.87223 0.0
C732 C 0.14244 0.52865 0.87368 0.0
C733 C 0.19549 0.5249 0.8479 0.0
C734 C 0.13185 0.54952 0.85011 0.0
C735 C 0.15259 0.55775 0.82543 0.0
H736 H 0.48547 0.13377 0.80089 0.0
H737 H 0.42165 0.19399 0.85488 0.0
H738 H 0.43468 0.16432 0.90273 0.0
H739 H 0.4694 0.12481 0.93011 0.0
H740 H 0.53485 0.06723 0.87522 0.0
H741 H 0.51507 0.09142 0.8267 0.0
C742 C 0.47361 0.13993 0.82288 0.0
C743 C 0.4527 0.16616 0.82424 0.0
C744 C 0.48153 0.12311 0.85023 0.0
C745 C 0.43819 0.17414 0.85323 0.0
C746 C 0.44555 0.15712 0.88059 0.0
C747 C 0.4785 0.11708 0.90738 0.0
C748 C 0.50339 0.09433 0.90599 0.0
C749 C 0.4679 0.13205 0.87954 0.0
C750 C 0.51559 0.08472 0.87663 0.0
C751 C 0.50446 0.09866 0.84894 0.0
H752 H 0.76111 0.50708 0.84812 0.0
H753 H 0.7994 0.59751 0.82257 0.0
H754 H 0.84376 0.59103 0.86063 0.0
H755 H 0.87309 0.5586 0.89883 0.0
H756 H 0.83694 0.46669 0.92237 0.0
H757 H 0.78976 0.47513 0.88797 0.0
C758 C 0.7791 0.5254 0.8511 0.0
C759 C 0.77724 0.55261 0.83248 0.0
C760 C 0.80471 0.52133 0.87273 0.0
C761 C 0.80071 0.57615 0.83634 0.0
C762 C 0.8259 0.57255 0.85821 0.0
C763 C 0.85468 0.54055 0.89685 0.0
C764 C 0.85856 0.51203 0.9131 0.0
C765 C 0.82833 0.5451 0.87625 0.0
C766 C 0.83456 0.48883 0.91005 0.0
C767 C 0.80767 0.49358 0.89028 0.0
H768 H 0.73742 0.68302 0.00801 0.0
H769 H 0.70335 0.70353 0.9139 0.0
H770 H 0.64983 0.6826 0.92677 0.0
H771 H 0.61492 0.65346 0.9626 0.0
H772 H 0.64933 0.63047 0.0561 0.0
H773 H 0.70029 0.6579 0.04577 0.0
C774 C 0.7182 0.68298 0.9904 0.0
C775 C 0.72443 0.6945 0.95997 0.0
C776 C 0.68758 0.67049 0.99782 0.0
C777 C 0.69915 0.69491 0.93754 0.0
C778 C 0.66858 0.68282 0.94482 0.0
C779 C 0.63329 0.65484 0.98098 0.0
C780 C 0.62846 0.63947 0.00991 0.0
C781 C 0.6628 0.66988 0.97463 0.0
C782 C 0.65244 0.64188 0.03353 0.0
C783 C 0.68171 0.65739 0.02757 0.0
H784 H 0.28099 0.69858 0.02793 0.0
H785 H 0.28827 0.71438 0.92792 0.0
H786 H 0.32509 0.66927 0.92279 0.0
H787 H 0.36115 0.63083 0.94785 0.0
H788 H 0.35755 0.61776 0.04871 0.0
H789 H 0.31286 0.65572 0.05234 0.0
C790 C 0.28999 0.69151 0.00495 0.0
C791 C 0.28214 0.70966 0.97833 0.0
C792 C 0.31209 0.6663 0.00242 0.0
C793 C 0.29418 0.70069 0.94869 0.0
C794 C 0.31528 0.67503 0.9458 0.0
C795 C 0.35026 0.63579 0.9706 0.0
C796 C 0.36316 0.62183 0.99802 0.0
C797 C 0.32538 0.65846 0.97268 0.0
C798 C 0.34841 0.62839 0.02723 0.0
C799 C 0.3229 0.65022 0.02936 0.0
H800 H 0.33795 0.30909 0.02424 0.0
H801 H 0.31369 0.34053 0.11789 0.0
H802 H 0.34978 0.38583 0.11179 0.0
H803 H 0.39079 0.41429 0.08077 0.0
H804 H 0.4136 0.383 0.98649 0.0
H805 H 0.37558 0.33956 0.99189 0.0
C806 C 0.34039 0.32613 0.04313 0.0
C807 C 0.32359 0.32165 0.07151 0.0
C808 C 0.36112 0.35177 0.03945 0.0
C809 C 0.32645 0.34379 0.09582 0.0
C810 C 0.34721 0.36944 0.0924 0.0
C811 C 0.38739 0.39793 0.06144 0.0
C812 C 0.40518 0.40158 0.03341 0.0
C813 C 0.36514 0.37329 0.06453 0.0
C814 C 0.4002 0.38061 0.00832 0.0
C815 C 0.3785 0.35578 0.01137 0.0
H816 H 0.77085 0.35931 0.97988 0.0
H817 H 0.74546 0.30452 0.06143 0.0
H818 H 0.69723 0.3376 0.07002 0.0
H819 H 0.66131 0.3812 0.0532 0.0
H820 H 0.68512 0.43344 0.96955 0.0
H821 H 0.73543 0.40294 0.96338 0.0
C822 C 0.75483 0.35475 -0.00037 0.0
C823 C 0.76165 0.32951 0.01996 0.0
C824 C 0.7271 0.37367 0.00423 0.0
C825 C 0.74049 0.32359 0.04523 0.0
C826 C 0.71308 0.34264 0.0503 0.0
C827 C 0.6779 0.38624 0.03402 0.0
C828 C 0.66985 0.40972 0.01206 0.0
C829 C 0.70608 0.3677 0.02989 0.0
C830 C 0.69103 0.41559 0.98683 0.0
C831 C 0.71965 0.39804 0.98319 0.0
H832 H 0.98086 0.69039 0.67362 0.0
H833 H 0.06734 0.6687 0.72775 0.0
H834 H 0.07739 0.62248 0.69527 0.0
H835 H 0.06516 0.59175 0.64828 0.0
H836 H 0.97947 0.61278 0.59312 0.0
H837 H 0.96508 0.65537 0.62949 0.0
C838 C 0.00168 0.6753 0.67841 0.0
C839 C 0.02345 0.68304 0.70288 0.0
C840 C 0.00745 0.64874 0.65947 0.0
C841 C 0.05012 0.66314 0.70918 0.0
C842 C 0.05601 0.63681 0.69052 0.0
C843 C 0.04304 0.60535 0.6445 0.0
C844 C 0.02353 0.59942 0.61793 0.0
C845 C 0.03532 0.62989 0.66517 0.0
C846 C -0.00526 0.61685 0.61348 0.0
C847 C 0.98674 0.64139 0.63412 0.0
H848 H 0.35873 0.97598 0.74716 0.0
H849 H 0.3111 0.06188 0.71874 0.0
H850 H 0.36008 0.07802 0.69057 0.0
H851 H 0.40976 0.06138 0.66404 0.0
H852 H 0.45605 0.97367 0.68884 0.0
H853 H 0.41456 0.96469 0.72896 0.0
C854 C 0.35961 0.99873 0.73576 0.0
C855 C 0.3314 0.01755 0.73443 0.0
C856 C 0.38734 0.00718 0.71854 0.0
C857 C 0.33256 0.04692 0.71958 0.0
C858 C 0.36045 0.05605 0.70341 0.0
C859 C 0.41179 0.04107 0.6792 0.0
C860 C 0.43565 0.01806 0.6731 0.0
C861 C 0.38716 0.03549 0.7012 0.0
C862 C 0.4376 0.99156 0.69274 0.0
C863 C 0.41375 0.98631 0.71555 0.0
H864 H 0.96475 0.34949 0.67679 0.0
H865 H 0.04828 0.28966 0.66199 0.0
H866 H 0.06784 0.3248 0.62037 0.0
H867 H 0.06405 0.37583 0.59297 0.0
H868 H 0.9803 0.43562 0.60909 0.0
H869 H 0.95763 0.39706 0.64498 0.0
C870 C 0.98679 0.34387 0.66381 0.0
C871 C 0.00514 0.31725 0.67214 0.0
C872 C -0.00204 0.36433 0.64044 0.0
C873 C 0.03376 0.31001 0.65557 0.0
C874 C 0.04501 0.33021 0.63206 0.0
C875 C 0.04065 0.38021 0.60405 0.0
C876 C 0.02408 0.40874 0.59857 0.0
C877 C 0.02782 0.35797 0.62501 0.0
C878 C 0.99359 0.41391 0.61281 0.0
C879 C 0.98064 0.39192 0.63351 0.0
H880 H 0.73873 0.1136 0.68455 0.0
H881 H 0.69246 0.0647 0.7613 0.0
H882 H 0.64709 0.05087 0.72683 0.0
H883 H 0.62204 0.05034 0.67469 0.0
H884 H 0.66841 0.09797 0.59716 0.0
H885 H 0.71291 0.11385 0.63213 0.0
C886 C 0.71876 0.09983 0.69374 0.0
C887 C 0.71914 0.09009 0.72549 0.0
C888 C 0.6931 0.09131 0.67358 0.0
C889 C 0.6927 0.07285 0.73713 0.0
C890 C 0.6669 0.06462 0.71733 0.0
C891 C 0.64188 0.06411 0.66525 0.0
C892 C 0.64197 0.07268 0.63318 0.0
C893 C 0.66713 0.07332 0.68546 0.0
C894 C 0.66782 0.0908 0.62163 0.0
C895 C 0.69319 0.1 0.64166 0.0
H896 H 0.02968 0.29635 0.38595 0.0
H897 H 0.10863 0.33804 0.33396 0.0
H898 H 0.09888 0.3881 0.36049 0.0
H899 H 0.06556 0.42086 0.39574 0.0
H900 H 0.98747 0.37867 0.44858 0.0
H901 H -0.0001 0.32779 0.42495 0.0
C902 C 0.04525 0.31615 0.38084 0.0
C903 C 0.06966 0.3134 0.35769 0.0
C904 C 0.03963 0.34484 0.39629 0.0
C905 C 0.08923 0.33959 0.35117 0.0
C906 C 0.08379 0.36821 0.36646 0.0
C907 C 0.0515 0.40049 0.40242 0.0
C908 C 0.0254 0.40373 0.42368 0.0
C909 C 0.05865 0.37126 0.38862 0.0
C910 C 0.00757 0.37697 0.43214 0.0
C911 C 0.0146 0.34783 0.41857 0.0
H912 H 0.62892 0.12891 0.25768 0.0
H913 H 0.70405 0.05786 0.26009 0.0
H914 H 0.67521 0.03017 0.30204 0.0
H915 H 0.6304 0.02791 0.33972 0.0
H916 H 0.55773 0.10152 0.34128 0.0
H917 H 0.58341 0.12644 0.29575 0.0
C918 C 0.63869 0.10731 0.26749 0.0
C919 C 0.6683 0.0952 0.25623 0.0
C920 C 0.62237 0.09204 0.29203 0.0
C921 C 0.6812 0.06737 0.26879 0.0
C922 C 0.66474 0.0516 0.2926 0.0
C923 C 0.61983 0.04908 0.32969 0.0
C924 C 0.59212 0.06275 0.34349 0.0
C925 C 0.63547 0.06387 0.30456 0.0
C926 C 0.57904 0.09056 0.33083 0.0
C927 C 0.59377 0.10486 0.30495 0.0
H928 H -0.0003 0.71319 0.3337 0.0
H929 H 0.07758 0.66185 0.28857 0.0
H930 H 0.08046 0.62559 0.33313 0.0
H931 H 0.05495 0.60405 0.38113 0.0
H932 H 0.97508 0.65425 0.42394 0.0
H933 H 0.97923 0.6956 0.38475 0.0
C934 C 0.01787 0.69458 0.33401 0.0
C935 C 0.03804 0.68995 0.30772 0.0
C936 C 0.01889 0.67343 0.35935 0.0
C937 C 0.06133 0.66553 0.30834 0.0
C938 C 0.06302 0.64481 0.33382 0.0
C939 C 0.03941 0.62464 0.3825 0.0
C940 C 0.01502 0.6263 0.4056 0.0
C941 C 0.04111 0.64785 0.35896 0.0
C942 C -0.00578 0.65262 0.40654 0.0
C943 C -0.0036 0.67618 0.38395 0.0
H944 H 0.27031 0.99625 0.35186 0.0
H945 H 0.33533 0.99629 0.27169 0.0
H946 H 0.38166 0.00299 0.30696 0.0
H947 H 0.40393 0.00781 0.36051 0.0
H948 H 0.33891 0.01429 0.43988 0.0
H949 H 0.29187 0.00731 0.40459 0.0
C950 C 0.29436 0.9986 0.34171 0.0
C951 C 0.29895 0.9955 0.30881 0.0
C952 C 0.32087 0.00373 0.36201 0.0
C953 C 0.33079 0.99776 0.29676 0.0
C954 C 0.35739 0.00191 0.31693 0.0
C955 C 0.37938 0.00783 0.36998 0.0
C956 C 0.37464 0.01107 0.40262 0.0
C957 C 0.35271 0.00461 0.34955 0.0
C958 C 0.34292 0.0117 0.41478 0.0
C959 C 0.31618 0.00761 0.39463 0.0
H960 H 0.03746 0.1775 0.31287 0.0
H961 H 0.0907 0.20604 0.39586 0.0
H962 H 0.07131 0.15989 0.42396 0.0
H963 H 0.03273 0.11545 0.42705 0.0
H964 H 0.9794 0.08806 0.34417 0.0
H965 H 0.00602 0.12905 0.31362 0.0
C966 C 0.04569 0.17326 0.3368 0.0
C967 C 0.06515 0.19564 0.35227 0.0
C968 C 0.03434 0.14672 0.3529 0.0
C969 C 0.07508 0.18971 0.38351 0.0
C970 C 0.06412 0.16318 0.39962 0.0
C971 C 0.02823 0.11763 0.40203 0.0
C972 C 0.00465 0.09856 0.38772 0.0
C973 C 0.04288 0.14203 0.38487 0.0
C974 C -0.00221 0.10234 0.35551 0.0
C975 C 0.01277 0.12595 0.33814 0.0
H976 H 0.77156 0.09188 0.27495 0.0
H977 H 0.82118 0.17958 0.28852 0.0
H978 H 0.84683 0.15921 0.33682 0.0
H979 H 0.85867 0.11469 0.37212 0.0
H980 H 0.81093 0.02607 0.35633 0.0
H981 H 0.78017 0.04876 0.31248 0.0
C982 C 0.78781 0.10652 0.28874 0.0
C983 C 0.79488 0.13694 0.27844 0.0
C984 C 0.80254 0.09452 0.31609 0.0
C985 C 0.81575 0.15596 0.29618 0.0
C986 C 0.83028 0.14433 0.32373 0.0
C987 C 0.84096 0.10055 0.35957 0.0
C988 C 0.83715 0.06868 0.36741 0.0
C989 C 0.8243 0.11343 0.33359 0.0
C990 C 0.81436 0.05061 0.35069 0.0
C991 C 0.79694 0.0635 0.32548 0.0
H992 H 0.03354 0.86556 0.28661 0.0
H993 H 0.95608 0.80323 0.3129 0.0
H994 H 0.93149 0.84451 0.34573 0.0
H995 H 0.93054 0.89932 0.36422 0.0
H996 H 0.0082 0.96165 0.33741 0.0
H997 H 0.03422 0.9195 0.30748 0.0
C998 C 0.01157 0.86102 0.30002 0.0
C999 C -0.00342 0.83166 0.29778 0.0
C1000 C -0.00251 0.88494 0.31838 0.0
C1001 C 0.96801 0.82578 0.31472 0.0
C1002 C 0.95392 0.84938 0.33326 0.0
C1003 C 0.9532 0.90366 0.3519 0.0
C1004 C 0.96724 0.93369 0.35285 0.0
C1005 C 0.96814 0.87924 0.33481 0.0
C1006 C -0.0032 0.93881 0.33702 0.0
C1007 C 0.01173 0.91471 0.31989 0.0
H1008 H 0.1626 0.94973 0.29042 0.0
H1009 H 0.18801 0.04758 0.29551 0.0
H1010 H 0.13903 0.05855 0.32651 0.0
H1011 H 0.09409 0.03882 0.35861 0.0
H1012 H 0.0711 0.94009 0.35639 0.0
H1013 H 0.11338 0.93114 0.31713 0.0
C1014 C 0.15685 0.97359 0.29753 0.0
C1015 C 0.1789 0.99778 0.291 0.0
C1016 C 0.12925 0.9795 0.31614 0.0
C1017 C 0.17145 0.02856 0.3006 0.0
C1018 C 0.14354 0.03481 0.31836 0.0
C1019 C 0.09786 0.01543 0.34912 0.0
C1020 C 0.07973 0.99011 0.36085 0.0
C1021 C 0.12301 0.01022 0.32734 0.0
C1022 C 0.08484 0.96001 0.34803 0.0
C1023 C 0.10916 0.95481 0.32565 0.0
H1024 H 0.98004 0.78443 0.66768 0.0
H1025 H 0.05225 0.8236 0.73043 0.0
H1026 H 0.0546 0.87075 0.6983 0.0
H1027 H 0.03969 0.89918 0.65035 0.0
H1028 H 0.97018 0.85916 0.58543 0.0
H1029 H 0.96359 0.81397 0.62027 0.0
C1030 C -0.00365 0.80324 0.67434 0.0
C1031 C 0.01595 0.80023 0.70157 0.0
C1032 C -0.0017 0.8301 0.6552 0.0
C1033 C 0.03645 0.82524 0.71002 0.0
C1034 C 0.03809 0.85219 0.69143 0.0
C1035 C 0.0228 0.88077 0.64389 0.0
C1036 C 0.00559 0.88255 0.61517 0.0
C1037 C 0.01957 0.85463 0.66372 0.0
C1038 C 0.98388 0.85837 0.60728 0.0
C1039 C 0.98012 0.83248 0.62719 0.0
H1040 H 0.22679 0.0321 0.68392 0.0
H1041 H 0.20929 0.93577 0.70994 0.0
H1042 H 0.16944 0.93107 0.66743 0.0
H1043 H 0.13836 0.95465 0.62448 0.0
H1044 H 0.15515 0.05106 0.59825 0.0
H1045 H 0.19768 0.05491 0.63854 0.0
C1046 C 0.21451 0.00996 0.68012 0.0
C1047 C 0.22088 0.98439 0.70034 0.0
C1048 C 0.19189 0.00729 0.65539 0.0
C1049 C 0.2044 0.95602 0.69524 0.0
C1050 C 0.18187 0.9532 0.67071 0.0
C1051 C 0.15158 0.97645 0.62711 0.0
C1052 C 0.14343 0.00257 0.60827 0.0
C1053 C 0.1753 0.97873 0.65081 0.0
C1054 C 0.16094 0.03054 0.61224 0.0
C1055 C 0.18506 0.03284 0.63551 0.0
H1056 H 0.95222 0.19933 0.64487 0.0
H1057 H -0.00234 0.15073 0.72254 0.0
H1058 H 0.01559 0.10869 0.68713 0.0
H1059 H 0.02095 0.08737 0.63381 0.0
H1060 H 0.97602 0.13522 0.55551 0.0
H1061 H 0.95491 0.17592 0.59121 0.0
C1062 C 0.96585 0.17934 0.65385 0.0
C1063 C 0.97394 0.17786 0.68597 0.0
C1064 C 0.97614 0.15532 0.63327 0.0
C1065 C 0.99142 0.1521 0.69773 0.0
C1066 C 0.00166 0.12817 0.67755 0.0
C1067 C 0.00637 0.10667 0.62467 0.0
C1068 C -0.00015 0.10844 0.59226 0.0
C1069 C -0.00541 0.1298 0.64525 0.0
C1070 C 0.98082 0.13329 0.58052 0.0
C1071 C 0.96904 0.15662 0.60088 0.0
H1072 H 0.84136 0.13198 0.71232 0.0
H1073 H 0.84201 0.0406 0.75532 0.0
H1074 H 0.88269 0.02219 0.71724 0.0
H1075 H 0.90973 0.02973 0.66618 0.0
H1076 H 0.90784 0.1213 0.6227 0.0
H1077 H 0.87672 0.14222 0.6668 0.0
C1078 C 0.85154 0.10847 0.71402 0.0
C1079 C 0.83909 0.08761 0.7364 0.0
C1080 C 0.87412 0.09792 0.69156 0.0
C1081 C 0.85177 0.05703 0.73838 0.0
C1082 C 0.87463 0.04645 0.71638 0.0
C1083 C 0.90297 0.05437 0.66658 0.0
C1084 C 0.91028 0.07363 0.64069 0.0
C1085 C 0.88469 0.06626 0.69192 0.0
C1086 C 0.90202 0.10572 0.64198 0.0
C1087 C 0.88415 0.11776 0.66721 0.0
H1088 H 0.33884 0.95689 0.19879 0.0
H1089 H 0.26076 0.94138 0.13263 0.0
H1090 H 0.29718 0.95315 0.08862 0.0
H1091 H 0.34972 0.97205 0.06952 0.0
H1092 H 0.42821 0.98815 0.13542 0.0
H1093 H 0.39342 0.97154 0.1789 0.0
C1094 C 0.33012 0.95578 0.17466 0.0
C1095 C 0.29741 0.94847 0.16862 0.0
C1096 C 0.35118 0.96278 0.14953 0.0
C1097 C 0.286 0.94705 0.13752 0.0
C1098 C 0.30675 0.9538 0.11244 0.0
C1099 C 0.35943 0.9715 0.09331 0.0
C1100 C 0.39142 0.98168 0.09918 0.0
C1101 C 0.33921 0.96228 0.11821 0.0
C1102 C 0.4036 0.98064 0.1302 0.0
C1103 C 0.38368 0.97126 0.15514 0.0
H1104 H 0.03899 0.32971 0.2394 0.0
H1105 H 0.12609 0.2999 0.19113 0.0
H1106 H 0.12369 0.34673 0.1576 0.0
H1107 H 0.09767 0.39697 0.14339 0.0
H1108 H 0.01049 0.42688 0.19206 0.0
H1109 H 0.01185 0.37922 0.22385 0.0
C1110 C 0.05734 0.33361 0.22147 0.0
C1111 C 0.08276 0.3118 0.21762 0.0
C1112 C 0.05574 0.36054 0.20239 0.0
C1113 C 0.10643 0.31669 0.19441 0.0
C1114 C 0.10501 0.34337 0.17528 0.0
C1115 C 0.07879 0.39295 0.16074 0.0
C1116 C 0.05409 0.4156 0.16536 0.0
C1117 C 0.07988 0.36558 0.1792 0.0
C1118 C 0.02987 0.40996 0.18804 0.0
C1119 C 0.03065 0.38271 0.20632 0.0
H1120 H 0.73533 0.10185 0.1275 0.0
H1121 H 0.63416 0.12041 0.14904 0.0
H1122 H 0.61755 0.09293 0.10134 0.0
H1123 H 0.63139 0.05775 0.05791 0.0
H1124 H 0.7322 0.04268 0.03297 0.0
H1125 H 0.74934 0.07497 0.07771 0.0
C1126 C 0.70971 0.10082 0.12128 0.0
C1127 C 0.68599 0.11233 0.14236 0.0
C1128 C 0.70023 0.08509 0.09363 0.0
C1129 C 0.65288 0.1109 0.13372 0.0
C1130 C 0.64332 0.09512 0.1065 0.0
C1131 C 0.65713 0.06196 0.06183 0.0
C1132 C 0.68046 0.04753 0.04234 0.0
C1133 C 0.66674 0.08098 0.08708 0.0
C1134 C 0.7137 0.05334 0.04777 0.0
C1135 C 0.72353 0.07181 0.07333 0.0
H1136 H 0.99126 0.65475 0.20829 0.0
H1137 H 0.05416 0.72366 0.16616 0.0
H1138 H 0.05724 0.69242 0.11798 0.0
H1139 H 0.0484 0.64239 0.09103 0.0
H1140 H 0.989 0.5717 0.13428 0.0
H1141 H 0.97722 0.60698 0.17839 0.0
C1142 C 0.00541 0.66299 0.18843 0.0
C1143 C 0.02284 0.69123 0.19091 0.0
C1144 C 0.00744 0.64467 0.16095 0.0
C1145 C 0.04053 0.70202 0.16482 0.0
C1146 C 0.04241 0.68411 0.13732 0.0
C1147 C 0.03206 0.63514 0.10971 0.0
C1148 C 0.01913 0.60469 0.10931 0.0
C1149 C 0.02677 0.65501 0.13553 0.0
C1150 C -0.00174 0.59534 0.1336 0.0
C1151 C 0.99216 0.61531 0.15915 0.0
H1152 H 0.34141 0.93961 0.83938 0.0
H1153 H 0.27392 0.00659 0.8791 0.0
H1154 H 0.3167 0.02669 0.91394 0.0
H1155 H 0.37404 0.02762 0.93014 0.0
H1156 H 0.44214 0.96123 0.89042 0.0
H1157 H 0.39846 0.93803 0.85869 0.0
C1158 C 0.33611 0.95815 0.8562 0.0
C1159 C 0.30483 0.97161 0.85716 0.0
C1160 C 0.36094 0.96975 0.87582 0.0
C1161 C 0.29794 0.99585 0.87844 0.0
C1162 C 0.32238 0.00742 0.89813 0.0
C1163 C 0.37926 0.00801 0.91457 0.0
C1164 C 0.4112 0.99609 0.91247 0.0
C1165 C 0.3541 0.99499 0.89651 0.0
C1166 C 0.41765 0.97046 0.89262 0.0
C1167 C 0.39272 0.95738 0.87437 0.0
H1168 H 0.95036 0.30715 0.80821 0.0
H1169 H 0.04552 0.33593 0.77674 0.0
H1170 H 0.05086 0.37026 0.82248 0.0
H1171 H 0.02633 0.39588 0.8685 0.0
H1172 H 0.93113 0.36719 0.90013 0.0
H1173 H 0.92842 0.32852 0.85777 0.0
C1174 C 0.97254 0.32042 0.81171 0.0
C1175 C -0.00276 0.31937 0.78879 0.0
C1176 C 0.97542 0.34026 0.83805 0.0
C1177 C 0.0258 0.33686 0.79365 0.0
C1178 C 0.02895 0.35641 0.81987 0.0
C1179 C 0.00519 0.38087 0.86644 0.0
C1180 C 0.97879 0.38484 0.88717 0.0
C1181 C 0.00355 0.35894 0.84176 0.0
C1182 C 0.9517 0.36492 0.88431 0.0
C1183 C 0.95006 0.34282 0.86001 0.0
H1184 H 0.68463 0.08705 0.82951 0.0
H1185 H 0.74762 0.09655 0.91031 0.0
H1186 H 0.70611 0.07292 0.94405 0.0
H1187 H 0.65349 0.04629 0.94964 0.0
H1188 H 0.59199 0.03335 0.8684 0.0
H1189 H 0.63059 0.06258 0.83572 0.0
C1190 C 0.68886 0.08444 0.85461 0.0
C1191 C 0.71879 0.09351 0.86768 0.0
C1192 C 0.66496 0.07065 0.87372 0.0
C1193 C 0.72451 0.08975 0.90001 0.0
C1194 C 0.70086 0.07624 0.91922 0.0
C1195 C 0.64818 0.05083 0.92501 0.0
C1196 C 0.61977 0.03858 0.91144 0.0
C1197 C 0.67112 0.06636 0.90628 0.0
C1198 C 0.61352 0.04326 0.87928 0.0
C1199 C 0.63569 0.05968 0.86063 0.0
H1200 H 0.01369 0.70958 0.87946 0.0
H1201 H 0.06621 0.66261 0.80522 0.0
H1202 H 0.06593 0.61347 0.83538 0.0
H1203 H 0.04457 0.5826 0.88025 0.0
H1204 H 0.98886 0.62971 0.95236 0.0
H1205 H -0.00278 0.68012 0.92644 0.0
C1206 C 0.02548 0.68862 0.87024 0.0
C1207 C 0.03977 0.68932 0.84033 0.0
C1208 C 0.02468 0.66053 0.88747 0.0
C1209 C 0.05496 0.66229 0.8283 0.0
C1210 C 0.05478 0.63428 0.84551 0.0
C1211 C 0.03523 0.60411 0.89066 0.0
C1212 C 0.01633 0.60269 0.91817 0.0
C1213 C 0.03895 0.6329 0.8748 0.0
C1214 C 0.00366 0.63047 0.93125 0.0
C1215 C 0.00819 0.65921 0.9163 0.0
H1216 H 0.15033 0.3215 0.09738 0.0
H1217 H 0.22021 0.30725 0.02298 0.0
H1218 H 0.19674 0.35118 0.99343 0.0
H1219 H 0.1572 0.39398 0.9892 0.0
H1220 H 0.08684 0.40904 0.0633 0.0
H1221 H 0.10944 0.36443 0.09248 0.0
C1222 C 0.16011 0.32807 0.07461 0.0
C1223 C 0.18667 0.31143 0.06204 0.0
C1224 C 0.14651 0.35345 0.05782 0.0
C1225 C 0.19955 0.3199 0.03277 0.0
C1226 C 0.18623 0.34498 0.01597 0.0
C1227 C 0.14674 0.38756 0.01172 0.0
C1228 C 0.12045 0.40491 0.02404 0.0
C1229 C 0.15982 0.362 0.02832 0.0
C1230 C 0.10714 0.39612 0.05324 0.0
C1231 C 0.12006 0.37062 0.06999 0.0
H1232 H 0.17595 0.69704 0.05054 0.0
H1233 H 0.11419 0.74885 0.98666 0.0
H1234 H 0.08116 0.70203 0.97731 0.0
H1235 H 0.07409 0.64519 0.98266 0.0
H1236 H 0.13776 0.59264 0.04396 0.0
H1237 H 0.16517 0.6408 0.06004 0.0
C1238 C 0.1548 0.69805 0.03514 0.0
C1239 C 0.14722 0.72599 0.01925 0.0
C1240 C 0.13629 0.67095 0.02962 0.0
C1241 C 0.12015 0.72738 -0.00088 0.0
C1242 C 0.1014 0.70067 0.99374 0.0
C1243 C 0.0935 0.64445 9e-05 0.0
C1244 C 0.10359 0.61546 0.01264 0.0
C1245 C 0.10982 0.67214 0.00819 0.0
C1246 C 0.12882 0.61472 0.03499 0.0
C1247 C 0.1449 0.64225 0.04365 0.0
H1248 H 0.34323 0.22308 0.02416 0.0
H1249 H 0.3107 0.18196 0.11127 0.0
H1250 H 0.346 0.13619 0.10205 0.0
H1251 H 0.3874 0.10919 0.07012 0.0
H1252 H 0.41934 0.15037 0.9826 0.0
H1253 H 0.38322 0.19534 0.9914 0.0
C1254 C 0.34385 0.20402 0.04108 0.0
C1255 C 0.32468 0.20583 0.06847 0.0
C1256 C 0.3643 0.17815 0.03573 0.0
C1257 C 0.32517 0.18089 0.08998 0.0
C1258 C 0.34552 0.15493 0.08482 0.0
C1259 C 0.38663 0.12807 0.05302 0.0
C1260 C 0.40626 0.12657 0.02585 0.0
C1261 C 0.36548 0.15356 0.05798 0.0
C1262 C 0.40457 0.15101 0.00373 0.0
C1263 C 0.38389 0.17666 0.00871 0.0
H1264 H 0.90151 0.30306 0.04716 0.0
H1265 H 0.86835 0.34874 0.96232 0.0
H1266 H 0.91534 0.38366 0.96381 0.0
H1267 H 0.96028 0.4065 0.9939 0.0
H1268 H 0.98958 0.36486 0.08222 0.0
H1269 H 0.95056 0.3224 0.0743 0.0
C1270 C 0.90525 0.3201 0.02857 0.0
C1271 C 0.88171 0.32357 0.00473 0.0
C1272 C 0.9316 0.34087 0.03033 0.0
C1273 C 0.88629 0.34589 0.98091 0.0
C1274 C 0.9131 0.36583 0.9818 0.0
C1275 C 0.95886 0.38761 0.01094 0.0
C1276 C 0.97755 0.38886 0.03872 0.0
C1277 C 0.93517 0.36434 0.00706 0.0
C1278 C 0.97525 0.3644 0.06073 0.0
C1279 C 0.95281 0.34028 0.05632 0.0
H1280 H 0.76905 0.83332 0.95226 0.0
H1281 H 0.7213 0.80092 0.86798 0.0
H1282 H 0.67535 0.83702 0.8777 0.0
H1283 H 0.64926 0.87829 0.91047 0.0
H1284 H 0.69856 0.9105 0.99441 0.0
H1285 H 0.74319 0.87382 0.98484 0.0
C1286 C 0.74866 0.83451 0.93594 0.0
C1287 C 0.74841 0.81519 0.90929 0.0
C1288 C 0.72253 0.85503 0.94183 0.0
C1289 C 0.7219 0.81618 0.88842 0.0
C1290 C 0.69566 0.83661 0.89409 0.0
C1291 C 0.66964 0.87699 0.92676 0.0
C1292 C 0.6706 0.89709 0.95308 0.0
C1293 C 0.69568 0.85614 0.92081 0.0
C1294 C 0.69731 0.8954 0.97388 0.0
C1295 C 0.7229 0.87447 0.96843 0.0
H1296 H 0.8204 0.63103 0.94854 0.0
H1297 H 0.87643 0.71381 0.96957 0.0
H1298 H 0.92106 0.68106 0.98961 0.0
H1299 H 0.94219 0.6288 0.00543 0.0
H1300 H 0.88368 0.54705 0.98833 0.0
H1301 H 0.8419 0.57929 0.96261 0.0
C1302 C 0.84234 0.64195 0.95757 0.0
C1303 C 0.84487 0.67485 0.9579 0.0
C1304 C 0.86745 0.62307 0.96979 0.0
C1305 C 0.87386 0.68855 0.96891 0.0
C1306 C 0.89929 0.66985 0.98062 0.0
C1307 C 0.92041 0.61821 0.99565 0.0
C1308 C 0.91625 0.58561 0.99761 0.0
C1309 C 0.89607 0.63711 0.98181 0.0
C1310 C 0.88781 0.57197 0.98566 0.0
C1311 C 0.86379 0.59044 0.97141 0.0
H1312 H 0.28253 0.84693 0.01737 0.0
H1313 H 0.30086 0.81062 0.92413 0.0
H1314 H 0.34189 0.85101 0.91544 0.0
H1315 H 0.3776 0.89185 0.93713 0.0
H1316 H 0.36042 0.92651 0.03137 0.0
H1317 H 0.31353 0.89222 0.03651 0.0
C1318 C 0.29486 0.8484 0.99484 0.0
C1319 C 0.28895 0.82562 0.97158 0.0
C1320 C 0.31893 0.87125 0.99028 0.0
C1321 C 0.30535 0.82766 0.94258 0.0
C1322 C 0.32882 0.85073 0.93761 0.0
C1323 C 0.36324 0.89235 0.95856 0.0
C1324 C 0.37296 0.91135 0.98401 0.0
C1325 C 0.33667 0.87192 0.96173 0.0
C1326 C 0.35384 0.91183 0.01152 0.0
C1327 C 0.327 0.89213 0.01456 0.0
H1328 H 0.7577 0.18261 0.96879 0.0
H1329 H 0.75947 0.19335 0.06974 0.0
H1330 H 0.70902 0.16312 0.07417 0.0
H1331 H 0.66409 0.13516 0.0491 0.0
H1332 H 0.66181 0.12409 0.94806 0.0
H1333 H 0.71279 0.15318 0.94366 0.0
C1334 C 0.7469 0.17818 0.99166 0.0
C1335 C 0.76179 0.18996 0.01894 0.0
C1336 C 0.71797 0.1609 0.99391 0.0
C1337 C 0.74805 0.18434 0.04854 0.0
C1338 C 0.71932 0.16717 0.05103 0.0
C1339 C 0.67484 0.13877 0.02612 0.0
C1340 C 0.6595 0.12685 -0.00102 0.0
C1341 C 0.704 0.15552 0.02385 0.0
C1342 C 0.67352 0.13239 0.96935 0.0
C1343 C 0.70255 0.1492 0.96682 0.0
H1344 H 0.51164 0.69028 0.78955 0.0
H1345 H 0.59749 0.72284 0.83802 0.0
H1346 H 0.58962 0.6837 0.87929 0.0
H1347 H 0.55409 0.64571 0.90521 0.0
H1348 H 0.46688 0.61427 0.85795 0.0
H1349 H 0.47975 0.64699 0.8125 0.0
C1350 C 0.52908 0.68813 0.8087 0.0
C1351 C 0.55495 0.70949 0.81093 0.0
C1352 C 0.52385 0.66612 0.83285 0.0
C1353 C 0.57726 0.70673 0.83599 0.0
C1354 C 0.57269 0.68447 0.85964 0.0
C1355 C 0.53808 0.64568 0.88481 0.0
C1356 C 0.50919 0.62811 0.88533 0.0
C1357 C 0.54535 0.66492 0.85895 0.0
C1358 C 0.48908 0.6279 0.85841 0.0
C1359 C 0.49638 0.64667 0.83239 0.0
H1360 H 0.33881 0.57909 0.84451 0.0
H1361 H 0.42281 0.55232 0.78976 0.0
H1362 H 0.45077 0.5341 0.83758 0.0
H1363 H 0.44942 0.5222 0.89421 0.0
H1364 H 0.3646 0.54791 0.94878 0.0
H1365 H 0.33897 0.57037 0.90196 0.0
C1366 C 0.36334 0.56949 0.84325 0.0
C1367 C 0.37887 0.56677 0.81398 0.0
C1368 C 0.37896 0.55872 0.87073 0.0
C1369 C 0.41058 0.55449 0.81228 0.0
C1370 C 0.42646 0.54402 0.83953 0.0
C1371 C 0.42539 0.53285 0.89592 0.0
C1372 C 0.40883 0.533 0.92493 0.0
C1373 C 0.4106 0.54543 0.86879 0.0
C1374 C 0.37785 0.54724 0.92674 0.0
C1375 C 0.36311 0.56007 0.89995 0.0
H1376 H 0.49704 0.34099 0.80468 0.0
H1377 H 0.45077 0.27146 0.86261 0.0
H1378 H 0.46858 0.29907 0.91031 0.0
H1379 H 0.49827 0.34246 0.93542 0.0
H1380 H 0.54458 0.41222 0.87734 0.0
H1381 H 0.52568 0.38527 0.82992 0.0
C1382 C 0.49085 0.33206 0.82783 0.0
C1383 C 0.47281 0.30432 0.83039 0.0
C1384 C 0.50117 0.34811 0.85507 0.0
C1385 C 0.46478 0.29278 0.86026 0.0
C1386 C 0.47494 0.30857 0.88748 0.0
C1387 C 0.50417 0.35187 0.91242 0.0
C1388 C 0.52296 0.37932 0.91006 0.0
C1389 C 0.4933 0.33618 0.88517 0.0
C1390 C 0.53023 0.39114 0.87996 0.0
C1391 C 0.51946 0.37571 0.85277 0.0
H1392 H 0.66459 0.50609 0.82226 0.0
H1393 H 0.64555 0.60301 0.79964 0.0
H1394 H 0.59656 0.6025 0.83251 0.0
H1395 H 0.56655 0.57754 0.87563 0.0
H1396 H 0.58729 0.48107 0.89983 0.0
H1397 H 0.62748 0.47796 0.85766 0.0
C1398 C 0.64905 0.52674 0.82383 0.0
C1399 C 0.65867 0.55465 0.80905 0.0
C1400 C 0.6215 0.52642 0.84331 0.0
C1401 C 0.63847 0.5813 0.81088 0.0
C1402 C 0.61067 0.58106 0.82988 0.0
C1403 C 0.57924 0.55557 0.87114 0.0
C1404 C 0.57469 0.52988 0.89146 0.0
C1405 C 0.60299 0.55422 0.84744 0.0
C1406 C 0.59069 0.50136 0.88488 0.0
C1407 C 0.61389 0.49962 0.8609 0.0
H1408 H 0.4933 0.30186 0.1484 0.0
H1409 H 0.47792 0.35662 0.23305 0.0
H1410 H 0.48955 0.40443 0.20365 0.0
H1411 H 0.50816 0.43036 0.15412 0.0
H1412 H 0.51809 0.37463 0.06984 0.0
H1413 H 0.50227 0.32768 0.09865 0.0
C1414 C 0.49101 0.32405 0.16065 0.0
C1415 C 0.48467 0.32495 0.19335 0.0
C1416 C 0.49639 0.35158 0.14341 0.0
C1417 C 0.48347 0.35458 0.20821 0.0
C1418 C 0.48977 0.38216 0.19129 0.0
C1419 C 0.50571 0.40807 0.14201 0.0
C1420 C 0.51391 0.40582 0.10989 0.0
C1421 C 0.49679 0.38093 0.15892 0.0
C1422 C 0.51144 0.37683 0.09446 0.0
C1423 C 0.50275 0.34996 0.11101 0.0
H1424 H 0.66241 0.50001 0.21294 0.0
H1425 H 0.72586 0.4455 0.15291 0.0
H1426 H 0.6847 0.44619 0.11111 0.0
H1427 H 0.63486 0.47008 0.08886 0.0
H1428 H 0.57354 0.52754 0.14803 0.0
H1429 H 0.609 0.51715 0.1932 0.0
C1430 C 0.66684 0.4875 0.19107 0.0
C1431 C 0.6973 0.47312 0.18586 0.0
C1432 C 0.6434 0.48866 0.1669 0.0
C1433 C 0.70278 0.45722 0.15725 0.0
C1434 C 0.67925 0.45757 0.13337 0.0
C1435 C 0.62863 0.47921 0.11194 0.0
C1436 C 0.60171 0.49947 0.11522 0.0
C1437 C 0.65001 0.47431 0.13747 0.0
C1438 C 0.59422 0.51185 0.14506 0.0
C1439 C 0.61462 0.50614 0.1708 0.0
H1440 H 0.58435 0.67244 0.18206 0.0
H1441 H 0.49145 0.71871 0.1939 0.0
H1442 H 0.46946 0.69033 0.14847 0.0
H1443 H 0.47623 0.65195 0.10633 0.0
H1444 H 0.56854 0.60448 0.09398 0.0
H1445 H 0.59136 0.63385 0.13837 0.0
C1446 C 0.55934 0.67618 0.17452 0.0
C1447 C 0.53932 0.69738 0.19114 0.0
C1448 C 0.54688 0.65972 0.14829 0.0
C1449 C 0.50708 0.70233 0.18137 0.0
C1450 C 0.49457 0.68617 0.15543 0.0
C1451 C 0.50146 0.64808 0.11307 0.0
C1452 C 0.52068 0.62605 0.09653 0.0
C1453 C 0.5142 0.66477 0.13879 0.0
C1454 C 0.55323 0.62138 0.10595 0.0
C1455 C 0.56625 0.63812 0.13151 0.0
H1456 H 0.36429 0.62403 0.16516 0.0
H1457 H 0.39426 0.5626 0.24041 0.0
H1458 H 0.43485 0.53791 0.20581 0.0
H1459 H 0.45326 0.52713 0.15139 0.0
H1460 H 0.41712 0.5851 0.07595 0.0
H1461 H 0.38809 0.61811 0.11295 0.0
C1462 C 0.38062 0.60602 0.17421 0.0
C1463 C 0.37633 0.59491 0.20501 0.0
C1464 C 0.40239 0.59092 0.1538 0.0
C1465 C 0.39738 0.57157 0.21674 0.0
C1466 C 0.42018 0.55716 0.1968 0.0
C1467 C 0.43953 0.54735 0.14313 0.0
C1468 C 0.43759 0.55374 0.11058 0.0
C1469 C 0.42156 0.5655 0.1648 0.0
C1470 C 0.41971 0.58001 0.1005 0.0
C1471 C 0.40273 0.59876 0.12183 0.0
H1472 H 0.80788 0.53117 0.71423 0.0
H1473 H 0.79993 0.62553 0.67883 0.0
H1474 H 0.85223 0.6195 0.65144 0.0
H1475 H 0.89727 0.58558 0.63369 0.0
H1476 H 0.90355 0.49005 0.66693 0.0
H1477 H 0.85534 0.49845 0.69962 0.0
C1478 C 0.81793 0.55041 0.70073 0.0
C1479 C 0.80039 0.57863 0.69816 0.0
C1480 C 0.84767 0.54654 0.68479 0.0
C1481 C 0.81325 0.60358 0.68084 0.0
C1482 C 0.84307 0.60011 0.66526 0.0
C1483 C 0.88856 0.56679 0.64862 0.0
C1484 C 0.90395 0.53717 0.64773 0.0
C1485 C 0.86017 0.57147 0.66655 0.0
C1486 C 0.89211 0.51303 0.66706 0.0
C1487 C 0.86442 0.51776 0.68564 0.0
H1488 H 0.51746 0.83849 0.69528 0.0
H1489 H 0.58936 0.79625 0.63446 0.0
H1490 H 0.59441 0.84559 0.60523 0.0
H1491 H 0.58036 0.90136 0.59891 0.0
H1492 H 0.50912 0.94402 0.6606 0.0
H1493 H 0.50164 0.89395 0.68745 0.0
C1494 C 0.53397 0.84017 0.67541 0.0
C1495 C 0.55302 0.81409 0.66678 0.0
C1496 C 0.53693 0.86867 0.65904 0.0
C1497 C 0.57445 0.81622 0.64125 0.0
C1498 C 0.57737 0.84439 0.62466 0.0
C1499 C 0.56301 0.8997 0.61807 0.0
C1500 C 0.5455 0.92653 0.62781 0.0
C1501 C 0.55903 0.87088 0.63361 0.0
C1502 C 0.52306 0.92383 0.65267 0.0
C1503 C 0.51877 0.89519 0.66809 0.0
H1504 H 0.25428 0.50362 0.68577 0.0
H1505 H 0.25107 0.60406 0.67547 0.0
H1506 H 0.21716 0.59879 0.62803 0.0
H1507 H 0.18181 0.5658 0.59509 0.0
H1508 H 0.18425 0.4651 0.60668 0.0
H1509 H 0.22581 0.4702 0.64745 0.0
C1510 C 0.24685 0.52422 0.67249 0.0
C1511 C 0.25486 0.55414 0.68383 0.0
C1512 C 0.22704 0.52095 0.64574 0.0
C1513 C 0.24521 0.58083 0.66683 0.0
C1514 C 0.22567 0.57779 0.63995 0.0
C1515 C 0.1919 0.54488 0.60602 0.0
C1516 C 0.17932 0.51514 0.59826 0.0
C1517 C 0.21539 0.54799 0.62995 0.0
C1518 C 0.19312 0.48831 0.61238 0.0
C1519 C 0.21681 0.49119 0.63586 0.0
H1520 H 0.48931 0.20718 0.69138 0.0
H1521 H 0.41226 0.143 0.71468 0.0
H1522 H 0.42318 0.11316 0.66657 0.0
H1523 H 0.45998 0.10088 0.62189 0.0
H1524 H 0.53783 0.16483 0.60032 0.0
H1525 H 0.52086 0.19911 0.64311 0.0
C1526 C 0.4744 0.18704 0.68563 0.0
C1527 C 0.45027 0.17718 0.70687 0.0
C1528 C 0.48135 0.16944 0.65836 0.0
C1529 C 0.4314 0.15082 0.69906 0.0
C1530 C 0.4377 0.13362 0.67157 0.0
C1531 C 0.47292 0.12245 0.62628 0.0
C1532 C 0.50068 0.12963 0.6083 0.0
C1533 C 0.46347 0.14196 0.65164 0.0
C1534 C 0.5167 0.15824 0.61401 0.0
C1535 C 0.5071 0.17794 0.63863 0.0
H1536 H 0.78308 0.45817 0.36786 0.0
H1537 H 0.79286 0.54535 0.31777 0.0
H1538 H 0.83689 0.56137 0.35344 0.0
H1539 H 0.87534 0.5485 0.3961 0.0
H1540 H 0.86698 0.46 0.44466 0.0
H1541 H 0.81933 0.44678 0.41295 0.0
C1542 C 0.79473 0.48079 0.36514 0.0
C1543 C 0.78513 0.50067 0.34051 0.0
C1544 C 0.82019 0.48955 0.38546 0.0
C1545 C 0.80013 0.52984 0.33679 0.0
C1546 C 0.82523 0.53894 0.35711 0.0
C1547 C 0.86273 0.5266 0.40017 0.0
C1548 C 0.87482 0.50525 0.42266 0.0
C1549 C 0.83584 0.51874 0.38121 0.0
C1550 C 0.85828 0.47683 0.42743 0.0
C1551 C 0.83109 0.46917 0.4092 0.0
H1552 H 0.53544 0.87444 0.27656 0.0
H1553 H 0.58362 0.80266 0.3319 0.0
H1554 H 0.57367 0.83345 0.37965 0.0
H1555 H 0.54908 0.88021 0.40584 0.0
H1556 H 0.50725 0.95355 0.34797 0.0
H1557 H 0.51865 0.92309 0.30084 0.0
C1558 C 0.54504 0.86562 0.29866 0.0
C1559 C 0.56052 0.83596 0.30006 0.0
C1560 C 0.54046 0.88389 0.32576 0.0
C1561 C 0.57115 0.825 0.32972 0.0
C1562 C 0.56571 0.84277 0.35714 0.0
C1563 C 0.54291 0.88969 0.38286 0.0
C1564 C 0.52699 0.91906 0.3806 0.0
C1565 C 0.55003 0.87215 0.35547 0.0
C1566 C 0.51943 0.93107 0.3506 0.0
C1567 C 0.52578 0.91357 0.32353 0.0
H1568 H 0.24513 0.57599 0.30491 0.0
H1569 H 0.24999 0.66243 0.35732 0.0
H1570 H 0.19745 0.65085 0.38233 0.0
H1571 H 0.15234 0.61423 0.39165 0.0
H1572 H 0.14887 0.52687 0.34013 0.0
H1573 H 0.19816 0.54114 0.3115 0.0
C1574 C 0.23445 0.59231 0.32168 0.0
C1575 C 0.25111 0.61981 0.32966 0.0
C1576 C 0.20445 0.58544 0.33578 0.0
C1577 C 0.23741 0.64098 0.35122 0.0
C1578 C 0.20742 0.6344 0.36534 0.0
C1579 C 0.16195 0.5986 0.37368 0.0
C1580 C 0.14699 0.56945 0.36811 0.0
C1581 C 0.19092 0.6065 0.35806 0.0
C1582 C 0.15996 0.54938 0.34494 0.0
C1583 C 0.18827 0.55742 0.32871 0.0
H1584 H 0.54072 0.20401 0.34539 0.0
H1585 H 0.43838 0.20979 0.32289 0.0
H1586 H 0.42701 0.16692 0.35955 0.0
H1587 H 0.44592 0.12864 0.39848 0.0
H1588 H 0.5481 0.1224 0.42178 0.0
H1589 H 0.55997 0.1643 0.38427 0.0
C1590 C 0.51602 0.19566 0.34853 0.0
C1591 C 0.4903 0.20982 0.33168 0.0
C1592 C 0.50971 0.17099 0.36975 0.0
C1593 C 0.45842 0.19907 0.33574 0.0
C1594 C 0.45195 0.17464 0.35669 0.0
C1595 C 0.47085 0.13642 0.3955 0.0
C1596 C 0.49615 0.12216 0.41299 0.0
C1597 C 0.47736 0.16059 0.37397 0.0
C1598 C 0.52823 0.13257 0.4085 0.0
C1599 C 0.53498 0.15671 0.3871 0.0
H1600 H 0.68466 0.81426 0.42084 0.0
H1601 H 0.73901 0.84296 0.50283 0.0
H1602 H 0.70714 0.89173 0.50581 0.0
H1603 H 0.66463 0.92658 0.4843 0.0
H1604 H 0.61051 0.89798 0.40186 0.0
H1605 H 0.64104 0.84871 0.40002 0.0
C1606 C 0.68932 0.83127 0.43934 0.0
C1607 C 0.71402 0.82544 0.4615 0.0
C1608 C 0.67088 0.85914 0.44086 0.0
C1609 C 0.72008 0.84729 0.48547 0.0
C1610 C 0.70187 0.87508 0.48718 0.0
C1611 C 0.65941 0.90954 0.466 0.0
C1612 C 0.6352 0.916 0.44332 0.0
C1613 C 0.67733 0.88134 0.46489 0.0
C1614 C 0.62878 0.89357 0.41978 0.0
C1615 C 0.64637 0.86541 0.4186 0.0
H1616 H 0.67606 0.21251 0.54614 0.0
H1617 H 0.71389 0.20845 0.45151 0.0
H1618 H 0.68044 0.16257 0.44016 0.0
H1619 H 0.63867 0.126 0.45592 0.0
H1620 H 0.59897 0.12914 0.5499 0.0
H1621 H 0.63542 0.17267 0.56318 0.0
C1622 C 0.67696 0.20127 0.5232 0.0
C1623 C 0.697 0.21356 0.4995 0.0
C1624 C 0.65748 0.17493 0.51684 0.0
C1625 C 0.6984 0.19916 0.46989 0.0
C1626 C 0.67934 0.17303 0.46344 0.0
C1627 C 0.63794 0.13606 0.47942 0.0
C1628 C 0.61579 0.12461 0.5018 0.0
C1629 C 0.65849 0.16108 0.48656 0.0
C1630 C 0.61571 0.13755 0.53226 0.0
C1631 C 0.63643 0.16255 0.53975 0.0
H1632 H 0.89574 0.72023 0.46731 0.0
H1633 H 0.80526 0.68019 0.49912 0.0
H1634 H 0.83233 0.62973 0.5074 0.0
H1635 H 0.88297 0.59881 0.51163 0.0
H1636 H 0.97394 0.6391 0.48259 0.0
H1637 H 0.94563 0.68765 0.46711 0.0
C1638 C 0.88194 0.70039 0.47587 0.0
C1639 C 0.84857 0.70407 0.4828 0.0
C1640 C 0.8978 0.67151 0.48105 0.0
C1641 C 0.83089 0.67799 0.49338 0.0
C1642 C 0.8464 0.64915 0.49831 0.0
C1643 C 0.89629 0.61794 0.50091 0.0
C1644 C 0.9302 0.61544 0.49746 0.0
C1645 C 0.87995 0.64585 0.49292 0.0
C1646 C 0.94763 0.64044 0.48453 0.0
C1647 C 0.9315 0.66824 0.4761 0.0
H1648 H 0.2961 0.86707 0.52475 0.0
H1649 H 0.32334 0.82487 0.61337 0.0
H1650 H 0.37497 0.85335 0.61282 0.0
H1651 H 0.40965 0.89412 0.58969 0.0
H1652 H 0.38114 0.93749 0.50182 0.0
H1653 H 0.33277 0.90459 0.49952 0.0
C1654 C 0.31342 0.86404 0.54389 0.0
C1655 C 0.30575 0.84425 0.56928 0.0
C1656 C 0.34272 0.88082 0.54362 0.0
C1657 C 0.3287 0.83996 0.59355 0.0
C1658 C 0.35811 0.85638 0.59333 0.0
C1659 C 0.39312 0.89609 0.56979 0.0
C1660 C 0.39887 0.91854 0.54614 0.0
C1661 C 0.36502 0.87743 0.56885 0.0
C1662 C 0.37723 0.92062 0.52047 0.0
C1663 C 0.34949 0.90186 0.51916 0.0
H1664 H 0.18646 0.31627 0.45554 0.0
H1665 H 0.163 0.31657 0.55437 0.0
H1666 H 0.12715 0.36233 0.54679 0.0
H1667 H 0.10735 0.40543 0.51289 0.0
H1668 H 0.13274 0.4058 0.4142 0.0
H1669 H 0.16247 0.35649 0.42068 0.0
C1670 C 0.17285 0.32602 0.47519 0.0
C1671 C 0.17698 0.31323 0.50539 0.0
C1672 C 0.15296 0.35266 0.4707 0.0
C1673 C 0.15978 0.32606 0.53088 0.0
C1674 C 0.13952 0.3523 0.52656 0.0
C1675 C 0.11907 0.39456 0.49272 0.0
C1676 C 0.1182 0.40963 0.46319 0.0
C1677 C 0.13665 0.36634 0.49672 0.0
C1678 C 0.13336 0.39501 0.43729 0.0
C1679 C 0.1504 0.36676 0.44096 0.0
H1680 H 0.2906 0.14273 0.48562 0.0
H1681 H 0.3224 0.21292 0.55212 0.0
H1682 H 0.3744 0.18541 0.55853 0.0
H1683 H 0.40786 0.13833 0.5502 0.0
H1684 H 0.37613 0.06713 0.4851 0.0
H1685 H 0.32727 0.09823 0.47266 0.0
C1686 C 0.30911 0.15213 0.50124 0.0
C1687 C 0.30255 0.17964 0.51865 0.0
C1688 C 0.33887 0.13598 0.50505 0.0
C1689 C 0.32689 0.19188 0.53839 0.0
C1690 C 0.35654 0.17605 0.54223 0.0
C1691 C 0.39052 0.12996 0.5328 0.0
C1692 C 0.39552 0.10059 0.51842 0.0
C1693 C 0.36237 0.14767 0.52638 0.0
C1694 C 0.37307 0.08994 0.4959 0.0
C1695 C 0.34494 0.10755 0.48918 0.0
H1696 H 0.87112 0.31049 0.49672 0.0
H1697 H 0.78893 0.36429 0.46267 0.0
H1698 H 0.81698 0.41315 0.47621 0.0
H1699 H 0.86283 0.43994 0.502 0.0
H1700 H 0.94354 0.38533 0.53843 0.0
H1701 H 0.91816 0.33725 0.51942 0.0
C1702 C 0.85964 0.33294 0.49164 0.0
C1703 C 0.82813 0.33392 0.47861 0.0
C1704 C 0.87548 0.36067 0.50025 0.0
C1705 C 0.81319 0.36309 0.47276 0.0
C1706 C 0.82917 0.39093 0.48055 0.0
C1707 C 0.87504 0.41756 0.50542 0.0
C1708 C 0.90489 0.41615 0.52179 0.0
C1709 C 0.86001 0.38994 0.49498 0.0
C1710 C 0.92039 0.38699 0.52617 0.0
C1711 C 0.90593 0.3595 0.51528 0.0
H1712 H 0.18626 0.67973 0.59809 0.0
H1713 H 0.17663 0.74672 0.52269 0.0
H1714 H 0.13852 0.71204 0.49517 0.0
H1715 H 0.11172 0.66111 0.49075 0.0
H1716 H 0.12174 0.5937 0.56576 0.0
H1717 H 0.15541 0.63006 0.59554 0.0
C1718 C 0.17534 0.68676 0.57585 0.0
C1719 C 0.18398 0.71544 0.56217 0.0
C1720 C 0.1537 0.66659 0.56013 0.0
C1721 C 0.17008 0.72459 0.53343 0.0
C1722 C 0.14842 0.70478 0.51774 0.0
C1723 C 0.12093 0.65439 0.51377 0.0
C1724 C 0.11442 0.62428 0.52577 0.0
C1725 C 0.14059 0.67546 0.53058 0.0
C1726 C 0.12636 0.61637 0.55579 0.0
C1727 C 0.1458 0.63726 0.57284 0.0
loop_
_geom_bond_atom_site_label_1
_geom_bond_atom_site_label_2
_geom_bond_distance
_geom_bond_site_symmetry_2
_ccdc_geom_bond_type
H0 C3 0.929 . S
H1 C6 0.929 . S
H2 C8 0.930 . S
C3 H0 0.929 . S
C3 C4 1.398 . S
C3 C5 1.396 . S
C4 C3 1.398 . S
C4 C8 1.407 . S
C5 C3 1.396 . S
C5 C6 1.394 . S
C6 H1 0.929 . S
C6 C5 1.394 . S
C6 C7 1.382 . S
C7 C6 1.382 . S
C7 C8 1.392 . S
C7 N9 1.420 . S
C8 H2 0.930 . S
C8 C4 1.407 . S
C8 C7 1.392 . S
N9 C7 1.420 . S
N9 C10 1.244 . S
C10 N9 1.244 . S
H11 C14 0.929 . S
H12 C17 0.929 . S
H13 C19 0.930 . S
C14 H11 0.929 . S
C14 C15 1.398 . S
C14 C16 1.396 . S
C15 C14 1.398 . S
C15 C19 1.407 . S
C16 C14 1.396 . S
C16 C17 1.394 . S
C17 H12 0.929 . S
C17 C16 1.394 . S
C17 C18 1.382 . S
C18 C17 1.382 . S
C18 C19 1.392 . S
C18 N20 1.420 . S
C19 H13 0.930 . S
C19 C15 1.407 . S
C19 C18 1.392 . S
N20 C18 1.420 . S
N20 C21 1.244 . S
C21 N20 1.244 . S
H22 C25 0.929 . S
H23 C28 0.929 . S
H24 C30 0.930 . S
C25 H22 0.929 . S
C25 C26 1.398 . S
C25 C27 1.396 . S
C26 C25 1.398 . S
C26 C30 1.407 . S
C27 C25 1.396 . S
C27 C28 1.394 . S
C28 H23 0.929 . S
C28 C27 1.394 . S
C28 C29 1.382 . S
C29 C28 1.382 . S
C29 C30 1.392 . S
C29 N31 1.420 . S
C30 H24 0.930 . S
C30 C26 1.407 . S
C30 C29 1.392 . S
N31 C29 1.420 . S
N31 C32 1.244 . S
C32 N31 1.244 . S
H33 C36 0.929 . S
H34 C39 0.929 . S
H35 C41 0.930 . S
C36 H33 0.929 . S
C36 C37 1.400 . S
C36 C38 1.399 . S
C37 C36 1.400 . S
C37 C41 1.405 1_545 S
C38 C36 1.399 . S
C38 C39 1.389 1_545 S
C39 H34 0.929 . S
C39 C38 1.389 1_565 S
C39 C40 1.382 . S
C40 C39 1.382 . S
C40 C41 1.392 . S
C40 N42 1.420 . S
C41 H35 0.930 . S
C41 C37 1.405 1_565 S
C41 C40 1.392 . S
N42 C40 1.420 . S
N42 C43 1.244 1_565 S
C43 N42 1.244 1_545 S
H44 C47 0.935 . S
H45 C50 0.929 . S
H46 C52 0.930 . S
C47 H44 0.935 . S
C47 C48 1.395 1_655 S
C47 C49 1.394 1_655 S
C48 C47 1.395 1_455 S
C48 C52 1.407 . S
C49 C47 1.394 1_455 S
C49 C50 1.394 . S
C50 H45 0.929 . S
C50 C49 1.394 . S
C50 C51 1.382 . S
C51 C50 1.382 . S
C51 C52 1.392 . S
C51 N53 1.420 . S
C52 H46 0.930 . S
C52 C48 1.407 . S
C52 C51 1.392 . S
N53 C51 1.420 . S
N53 C54 1.244 1_455 S
C54 N53 1.244 1_655 S
H55 C58 0.929 1_565 S
H56 C61 0.929 . S
H57 C63 0.930 . S
C58 H55 0.929 1_545 S
C58 C59 1.398 . S
C58 C60 1.396 . S
C59 C58 1.398 . S
C59 C63 1.407 . S
C60 C58 1.396 . S
C60 C61 1.394 . S
C61 H56 0.929 . S
C61 C60 1.394 . S
C61 C62 1.382 . S
C62 C61 1.382 . S
C62 C63 1.392 . S
C62 N64 1.420 . S
C63 H57 0.930 . S
C63 C59 1.407 . S
C63 C62 1.392 . S
N64 C62 1.420 . S
N64 C65 1.244 . S
C65 N64 1.244 . S
H66 C69 0.929 . S
H67 C72 0.929 . S
H68 C74 0.930 . S
C69 H66 0.929 . S
C69 C70 1.398 . S
C69 C71 1.396 . S
C70 C69 1.398 . S
C70 C74 1.407 . S
C71 C69 1.396 . S
C71 C72 1.394 . S
C72 H67 0.929 . S
C72 C71 1.394 . S
C72 C73 1.382 . S
C73 C72 1.382 . S
C73 C74 1.392 . S
C73 N75 1.420 . S
C74 H68 0.930 . S
C74 C70 1.407 . S
C74 C73 1.392 . S
N75 C73 1.420 . S
N75 C76 1.244 . S
C76 N75 1.244 . S
H77 C80 0.929 . S
H78 C83 0.929 . S
H79 C85 0.930 . S
C80 H77 0.929 . S
C80 C81 1.398 . S
C80 C82 1.396 . S
C81 C80 1.398 . S
C81 C85 1.407 . S
C82 C80 1.396 . S
C82 C83 1.394 . S
C83 H78 0.929 . S
C83 C82 1.394 . S
C83 C84 1.382 . S
C84 C83 1.382 . S
C84 C85 1.392 . S
C84 N86 1.420 . S
C85 H79 0.930 . S
C85 C81 1.407 . S
C85 C84 1.392 . S
N86 C84 1.420 . S
N86 C87 1.244 . S
C87 N86 1.244 . S
H88 C91 0.929 . S
H89 C94 0.929 . S
H90 C96 0.930 . S
C91 H88 0.929 . S
C91 C92 1.398 . S
C91 C93 1.396 . S
C92 C91 1.398 . S
C92 C96 1.407 . S
C93 C91 1.396 . S
C93 C94 1.394 . S
C94 H89 0.929 . S
C94 C93 1.394 . S
C94 C95 1.382 . S
C95 C94 1.382 . S
C95 C96 1.392 . S
C95 N97 1.420 . S
C96 H90 0.930 . S
C96 C92 1.407 . S
C96 C95 1.392 . S
N97 C95 1.420 . S
N97 C98 1.244 . S
C98 N97 1.244 . S
H99 C102 0.929 . S
H100 C105 0.929 . S
H101 C107 0.930 . S
C102 H99 0.929 . S
C102 C103 1.398 . S
C102 C104 1.396 . S
C103 C102 1.398 . S
C103 C107 1.407 . S
C104 C102 1.396 . S
C104 C105 1.394 . S
C105 H100 0.929 . S
C105 C104 1.394 . S
C105 C106 1.382 . S
C106 C105 1.382 . S
C106 C107 1.392 . S
C106 N108 1.420 . S
C107 H101 0.930 . S
C107 C103 1.407 . S
C107 C106 1.392 . S
N108 C106 1.420 . S
N108 C109 1.244 . S
C109 N108 1.244 . S
H110 C113 0.929 . S
H111 C116 0.929 . S
H112 C118 0.930 . S
C113 H110 0.929 . S
C113 C114 1.395 1_554 S
C113 C115 1.396 . S
C114 C113 1.395 1_556 S
C114 C118 1.413 . S
C115 C113 1.396 . S
C115 C116 1.394 1_554 S
C116 H111 0.929 . S
C116 C115 1.394 1_556 S
C116 C117 1.382 . S
C117 C116 1.382 . S
C117 C118 1.392 . S
C117 N119 1.420 . S
C118 H112 0.930 . S
C118 C114 1.413 . S
C118 C117 1.392 . S
N119 C117 1.420 . S
N119 C120 1.244 1_556 S
C120 N119 1.244 1_554 S
H121 C124 0.935 . S
H122 C127 0.929 . S
H123 C129 0.930 . S
C124 H121 0.935 . S
C124 C125 1.396 1_556 S
C124 C126 1.393 1_556 S
C125 C124 1.396 1_554 S
C125 C129 1.407 . S
C126 C124 1.393 1_554 S
C126 C127 1.394 . S
C127 H122 0.929 . S
C127 C126 1.394 . S
C127 C128 1.382 . S
C128 C127 1.382 . S
C128 C129 1.392 . S
C128 N130 1.420 . S
C129 H123 0.930 . S
C129 C125 1.407 . S
C129 C128 1.392 . S
N130 C128 1.420 . S
N130 C131 1.244 . S
C131 N130 1.244 . S
H132 C135 0.929 . S
H133 C138 0.929 . S
H134 C140 0.930 . S
C135 H132 0.929 . S
C135 C136 1.398 . S
C135 C137 1.396 . S
C136 C135 1.398 . S
C136 C140 1.407 . S
C137 C135 1.396 . S
C137 C138 1.394 . S
C138 H133 0.929 . S
C138 C137 1.394 . S
C138 C139 1.382 . S
C139 C138 1.382 . S
C139 C140 1.392 . S
C139 N141 1.420 . S
C140 H134 0.930 . S
C140 C136 1.407 . S
C140 C139 1.392 . S
N141 C139 1.420 . S
N141 C142 1.244 . S
C142 N141 1.244 . S
H143 C146 0.929 . S
H144 C149 0.929 . S
H145 C151 0.930 . S
C146 H143 0.929 . S
C146 C147 1.398 . S
C146 C148 1.396 . S
C147 C146 1.398 . S
C147 C151 1.407 . S
C148 C146 1.396 . S
C148 C149 1.394 . S
C149 H144 0.929 . S
C149 C148 1.394 . S
C149 C150 1.382 . S
C150 C149 1.382 . S
C150 C151 1.392 . S
C150 N152 1.420 . S
C151 H145 0.930 . S
C151 C147 1.407 . S
C151 C150 1.392 . S
N152 C150 1.420 . S
N152 C153 1.244 . S
C153 N152 1.244 . S
H154 C157 0.929 . S
H155 C160 0.929 . S
H156 C162 0.930 . S
C157 H154 0.929 . S
C157 C158 1.398 . S
C157 C159 1.396 . S
C158 C157 1.398 . S
C158 C162 1.407 . S
C159 C157 1.396 . S
C159 C160 1.394 . S
C160 H155 0.929 . S
C160 C159 1.394 . S
C160 C161 1.382 . S
C161 C160 1.382 . S
C161 C162 1.392 . S
C161 N163 1.420 . S
C162 H156 0.930 . S
C162 C158 1.407 . S
C162 C161 1.392 . S
N163 C161 1.420 . S
N163 C164 1.244 . S
C164 N163 1.244 . S
H165 C168 0.929 . S
H166 C171 0.929 . S
H167 C173 0.930 . S
C168 H165 0.929 . S
C168 C169 1.398 . S
C168 C170 1.396 . S
C169 C168 1.398 . S
C169 C173 1.407 . S
C170 C168 1.396 . S
C170 C171 1.394 . S
C171 H166 0.929 . S
C171 C170 1.394 . S
C171 C172 1.382 . S
C172 C171 1.382 . S
C172 C173 1.392 . S
C172 N174 1.420 . S
C173 H167 0.930 . S
C173 C169 1.407 . S
C173 C172 1.392 . S
N174 C172 1.420 . S
N174 C175 1.244 . S
C175 N174 1.244 . S
H176 C179 0.929 . S
H177 C182 0.929 . S
H178 C184 0.930 . S
C179 H176 0.929 . S
C179 C180 1.398 . S
C179 C181 1.396 . S
C180 C179 1.398 . S
C180 C184 1.407 . S
C181 C179 1.396 . S
C181 C182 1.394 . S
C182 H177 0.929 . S
C182 C181 1.394 . S
C182 C183 1.382 . S
C183 C182 1.382 . S
C183 C184 1.392 . S
C183 N185 1.420 . S
C184 H178 0.930 . S
C184 C180 1.407 . S
C184 C183 1.392 . S
N185 C183 1.420 . S
N185 C186 1.244 . S
C186 N185 1.244 . S
H187 C190 0.929 . S
H188 C193 0.929 . S
H189 C195 0.930 . S
C190 H187 0.929 . S
C190 C191 1.398 . S
C190 C192 1.396 . S
C191 C190 1.398 . S
C191 C195 1.407 . S
C192 C190 1.396 . S
C192 C193 1.394 . S
C193 H188 0.929 . S
C193 C192 1.394 . S
C193 C194 1.382 . S
C194 C193 1.382 . S
C194 C195 1.392 . S
C194 N196 1.420 . S
C195 H189 0.930 . S
C195 C191 1.407 . S
C195 C194 1.392 . S
N196 C194 1.420 . S
N196 C197 1.244 . S
C197 N196 1.244 . S
H198 C201 0.929 . S
H199 C204 0.929 . S
H200 C206 0.930 . S
C201 H198 0.929 . S
C201 C202 1.398 . S
C201 C203 1.396 . S
C202 C201 1.398 . S
C202 C206 1.407 . S
C203 C201 1.396 . S
C203 C204 1.394 . S
C204 H199 0.929 . S
C204 C203 1.394 . S
C204 C205 1.382 . S
C205 C204 1.382 . S
C205 C206 1.392 . S
C205 N207 1.420 . S
C206 H200 0.930 . S
C206 C202 1.407 . S
C206 C205 1.392 . S
N207 C205 1.420 . S
N207 C208 1.244 . S
C208 N207 1.244 . S
H209 C212 0.929 . S
H210 C215 0.929 . S
H211 C217 0.930 . S
C212 H209 0.929 . S
C212 C213 1.398 . S
C212 C214 1.396 . S
C213 C212 1.398 . S
C213 C217 1.407 . S
C214 C212 1.396 . S
C214 C215 1.394 . S
C215 H210 0.929 . S
C215 C214 1.394 . S
C215 C216 1.382 . S
C216 C215 1.382 . S
C216 C217 1.392 . S
C216 N218 1.420 . S
C217 H211 0.930 . S
C217 C213 1.407 . S
C217 C216 1.392 . S
N218 C216 1.420 . S
N218 C219 1.244 . S
C219 N218 1.244 . S
H220 C223 0.929 . S
H221 C226 0.929 . S
H222 C228 0.930 . S
C223 H220 0.929 . S
C223 C224 1.398 . S
C223 C225 1.396 . S
C224 C223 1.398 . S
C224 C228 1.407 . S
C225 C223 1.396 . S
C225 C226 1.394 . S
C226 H221 0.929 . S
C226 C225 1.394 . S
C226 C227 1.382 . S
C227 C226 1.382 . S
C227 C228 1.392 . S
C227 N229 1.420 . S
C228 H222 0.930 . S
C228 C224 1.407 . S
C228 C227 1.392 . S
N229 C227 1.420 . S
N229 C230 1.244 . S
C230 N229 1.244 . S
H231 C234 0.929 . S
H232 C237 0.929 . S
H233 C239 0.930 . S
C234 H231 0.929 . S
C234 C235 1.398 . S
C234 C236 1.396 . S
C235 C234 1.398 . S
C235 C239 1.407 . S
C236 C234 1.396 . S
C236 C237 1.394 . S
C237 H232 0.929 . S
C237 C236 1.394 . S
C237 C238 1.382 . S
C238 C237 1.382 . S
C238 C239 1.392 . S
C238 N240 1.420 . S
C239 H233 0.930 . S
C239 C235 1.407 . S
C239 C238 1.392 . S
N240 C238 1.420 . S
N240 C241 1.244 . S
C241 N240 1.244 . S
H242 C245 0.929 . S
H243 C248 0.929 . S
H244 C250 0.930 . S
C245 H242 0.929 . S
C245 C246 1.398 . S
C245 C247 1.396 . S
C246 C245 1.398 . S
C246 C250 1.407 . S
C247 C245 1.396 . S
C247 C248 1.394 . S
C248 H243 0.929 . S
C248 C247 1.394 . S
C248 C249 1.382 . S
C249 C248 1.382 . S
C249 C250 1.392 . S
C249 N251 1.420 . S
C250 H244 0.930 . S
C250 C246 1.407 . S
C250 C249 1.392 . S
N251 C249 1.420 . S
N251 C252 1.244 . S
C252 N251 1.244 . S
H253 C256 0.929 . S
H254 C259 0.929 . S
H255 C261 0.930 . S
C256 H253 0.929 . S
C256 C257 1.398 . S
C256 C258 1.396 . S
C257 C256 1.398 . S
C257 C261 1.407 . S
C258 C256 1.396 . S
C258 C259 1.394 . S
C259 H254 0.929 . S
C259 C258 1.394 . S
C259 C260 1.382 . S
C260 C259 1.382 . S
C260 C261 1.392 . S
C260 N262 1.420 . S
C261 H255 0.930 . S
C261 C257 1.407 . S
C261 C260 1.392 . S
N262 C260 1.420 . S
N262 C263 1.244 . S
C263 N262 1.244 . S
Zn264 O266 1.933 1_665 S
Zn264 O284 1.985 . S
Zn264 O295 1.955 1_655 S
Zn265 O266 1.911 1_655 S
Zn265 O285 1.970 . S
Zn265 O301 1.945 1_655 S
Zn265 O308 1.981 . S
O266 Zn264 1.933 1_445 S
O266 Zn265 1.911 1_455 S
O266 H267 0.841 . S
H267 O266 0.841 . S
C268 O269 1.246 . S
C268 O297 1.276 . S
O269 C268 1.246 . S
Zn270 O272 1.911 . S
Zn270 O287 1.970 . S
Zn270 O304 1.945 . S
Zn270 O311 1.981 . S
Zn271 O272 1.933 1_565 S
Zn271 O286 1.985 . S
Zn271 O293 1.955 . S
O272 Zn270 1.911 . S
O272 Zn271 1.933 1_545 S
O272 H273 0.841 . S
H273 O272 0.841 . S
Zn274 O275 1.933 1_565 S
Zn274 O288 1.985 . S
Zn274 O297 1.955 . S
O275 Zn274 1.933 1_545 S
O275 Zn276 1.911 . S
O275 H277 0.841 . S
Zn276 O275 1.911 . S
Zn276 O289 1.970 . S
Zn276 O305 1.981 1_655 S
Zn276 O307 1.945 . S
H277 O275 0.841 . S
Zn278 O279 1.933 1_565 S
Zn278 O291 1.985 . S
Zn278 O299 1.955 . S
O279 Zn278 1.933 1_545 S
O279 H280 0.841 . S
O279 Zn281 1.911 . S
H280 O279 0.841 . S
Zn281 O279 1.911 . S
Zn281 O292 1.970 . S
Zn281 O302 1.981 . S
Zn281 O310 1.945 . S
C282 O283 1.246 . S
C282 O299 1.276 . S
O283 C282 1.246 . S
O284 Zn264 1.985 . S
O284 C294 1.245 1_565 S
O285 Zn265 1.970 . S
O285 C294 1.263 . S
O286 Zn271 1.985 . S
O286 C298 1.245 1_565 S
O287 Zn270 1.970 . S
O287 C298 1.263 . S
O288 Zn274 1.985 . S
O288 C303 1.245 1_565 S
O289 Zn276 1.970 . S
O289 C303 1.263 . S
C290 O301 1.262 . S
C290 O302 1.245 . S
O291 Zn278 1.985 . S
O291 C309 1.245 1_565 S
O292 Zn281 1.970 . S
O292 C309 1.263 . S
O293 Zn271 1.955 . S
O293 C312 1.276 . S
C294 O284 1.245 1_545 S
C294 O285 1.263 . S
O295 Zn264 1.955 1_455 S
O295 C314 1.276 . S
C296 O304 1.262 . S
C296 O305 1.245 . S
O297 C268 1.276 . S
O297 Zn274 1.955 . S
C298 O286 1.245 1_545 S
C298 O287 1.263 . S
O299 Zn278 1.955 . S
O299 C282 1.276 . S
C300 O307 1.262 . S
C300 O308 1.245 . S
O301 Zn265 1.945 1_455 S
O301 C290 1.262 . S
O302 Zn281 1.981 . S
O302 C290 1.245 . S
C303 O288 1.245 1_545 S
C303 O289 1.263 . S
O304 Zn270 1.945 . S
O304 C296 1.262 . S
O305 Zn276 1.981 1_455 S
O305 C296 1.245 . S
C306 O310 1.262 . S
C306 O311 1.245 . S
O307 Zn276 1.945 . S
O307 C300 1.262 . S
O308 Zn265 1.981 . S
O308 C300 1.245 . S
C309 O291 1.245 1_545 S
C309 O292 1.263 . S
O310 Zn281 1.945 . S
O310 C306 1.262 . S
O311 Zn270 1.981 . S
O311 C306 1.245 . S
C312 O293 1.276 . S
C312 O313 1.246 . S
O313 C312 1.246 . S
C314 O295 1.276 . S
C314 O315 1.246 . S
O315 C314 1.246 . S
Zn316 O318 1.933 . S
Zn316 O336 1.985 . S
Zn316 O347 1.955 . S
Zn317 O318 1.911 1_556 S
Zn317 O337 1.970 . S
Zn317 O353 1.945 . S
Zn317 O360 1.981 . S
O318 Zn316 1.933 . S
O318 Zn317 1.911 1_554 S
O318 H319 0.841 . S
H319 O318 0.841 . S
C320 O321 1.246 . S
C320 O349 1.276 . S
O321 C320 1.246 . S
Zn322 O324 1.911 1_556 S
Zn322 O339 1.970 . S
Zn322 O356 1.945 . S
Zn322 O363 1.981 . S
Zn323 O324 1.933 . S
Zn323 O338 1.985 . S
Zn323 O345 1.955 . S
O324 Zn322 1.911 1_554 S
O324 Zn323 1.933 . S
O324 H325 0.841 1_565 S
H325 O324 0.841 1_545 S
Zn326 O327 1.933 . S
Zn326 O340 1.985 . S
Zn326 O349 1.955 . S
O327 Zn326 1.933 . S
O327 Zn328 1.911 1_554 S
O327 H329 0.841 . S
Zn328 O327 1.911 1_556 S
Zn328 O341 1.970 . S
Zn328 O357 1.981 . S
Zn328 O359 1.945 . S
H329 O327 0.841 . S
Zn330 O331 1.933 . S
Zn330 O343 1.985 . S
Zn330 O351 1.955 . S
O331 Zn330 1.933 . S
O331 H332 0.841 . S
O331 Zn333 1.911 1_554 S
H332 O331 0.841 . S
Zn333 O331 1.911 1_556 S
Zn333 O344 1.970 . S
Zn333 O354 1.981 1_565 S
Zn333 O362 1.945 . S
C334 O335 1.246 . S
C334 O351 1.276 . S
O335 C334 1.246 . S
O336 Zn316 1.985 . S
O336 C346 1.245 . S
O337 Zn317 1.970 . S
O337 C346 1.263 1_556 S
O338 Zn323 1.985 . S
O338 C350 1.245 . S
O339 Zn322 1.970 . S
O339 C350 1.263 1_556 S
O340 Zn326 1.985 . S
O340 C355 1.245 . S
O341 Zn328 1.970 . S
O341 C355 1.263 1_556 S
C342 O353 1.262 . S
C342 O354 1.245 . S
O343 Zn330 1.985 . S
O343 C361 1.245 . S
O344 Zn333 1.970 . S
O344 C361 1.263 1_556 S
O345 Zn323 1.955 . S
O345 C364 1.276 1_565 S
C346 O336 1.245 . S
C346 O337 1.263 1_554 S
O347 Zn316 1.955 . S
O347 C366 1.276 . S
C348 O356 1.262 1_545 S
C348 O357 1.245 . S
O349 C320 1.276 . S
O349 Zn326 1.955 . S
C350 O338 1.245 . S
C350 O339 1.263 1_554 S
O351 Zn330 1.955 . S
O351 C334 1.276 . S
C352 O359 1.262 . S
C352 O360 1.245 . S
O353 Zn317 1.945 . S
O353 C342 1.262 . S
O354 Zn333 1.981 1_545 S
O354 C342 1.245 . S
C355 O340 1.245 . S
C355 O341 1.263 1_554 S
O356 Zn322 1.945 . S
O356 C348 1.262 1_565 S
O357 Zn328 1.981 . S
O357 C348 1.245 . S
C358 O362 1.262 . S
C358 O363 1.245 . S
O359 Zn328 1.945 . S
O359 C352 1.262 . S
O360 Zn317 1.981 . S
O360 C352 1.245 . S
C361 O343 1.245 . S
C361 O344 1.263 1_554 S
O362 Zn333 1.945 . S
O362 C358 1.262 . S
O363 Zn322 1.981 . S
O363 C358 1.245 . S
C364 O345 1.276 1_545 S
C364 O365 1.246 . S
O365 C364 1.246 . S
C366 O347 1.276 . S
C366 O367 1.244 1_545 S
O367 C366 1.244 1_565 S
Zn368 O370 1.933 . S
Zn368 O388 1.985 . S
Zn368 O399 1.955 . S
Zn369 O370 1.911 . S
Zn369 O389 1.970 . S
Zn369 O405 1.945 . S
Zn369 O412 1.981 . S
O370 Zn368 1.933 . S
O370 Zn369 1.911 . S
O370 H371 0.841 1_655 S
H371 O370 0.841 1_455 S
C372 O373 1.246 1_554 S
C372 O401 1.276 . S
O373 C372 1.246 1_556 S
Zn374 O376 1.911 . S
Zn374 O391 1.970 . S
Zn374 O408 1.945 . S
Zn374 O415 1.981 . S
Zn375 O376 1.933 . S
Zn375 O390 1.985 . S
Zn375 O397 1.955 . S
O376 Zn374 1.911 . S
O376 Zn375 1.933 . S
O376 H377 0.841 . S
H377 O376 0.841 . S
Zn378 O379 1.933 . S
Zn378 O392 1.985 . S
Zn378 O401 1.955 . S
O379 Zn378 1.933 . S
O379 Zn380 1.911 . S
O379 H381 0.841 . S
Zn380 O379 1.911 . S
Zn380 O393 1.970 . S
Zn380 O409 1.981 . S
Zn380 O411 1.945 . S
H381 O379 0.841 . S
Zn382 O383 1.933 . S
Zn382 O395 1.985 . S
Zn382 O403 1.955 . S
O383 Zn382 1.933 . S
O383 H384 0.841 . S
O383 Zn385 1.911 . S
H384 O383 0.841 . S
Zn385 O383 1.911 . S
Zn385 O396 1.970 . S
Zn385 O406 1.981 . S
Zn385 O414 1.945 . S
C386 O387 1.246 . S
C386 O403 1.276 1_554 S
O387 C386 1.246 . S
O388 Zn368 1.985 . S
O388 C398 1.245 . S
O389 Zn369 1.970 . S
O389 C398 1.263 . S
O390 Zn375 1.985 . S
O390 C402 1.245 . S
O391 Zn374 1.970 . S
O391 C402 1.263 . S
O392 Zn378 1.985 . S
O392 C407 1.245 . S
O393 Zn380 1.970 . S
O393 C407 1.263 . S
C394 O405 1.262 1_455 S
C394 O406 1.245 . S
O395 Zn382 1.985 . S
O395 C413 1.245 . S
O396 Zn385 1.970 . S
O396 C413 1.263 . S
O397 Zn375 1.955 . S
O397 C416 1.276 . S
C398 O388 1.245 . S
C398 O389 1.263 . S
O399 Zn368 1.955 . S
O399 C418 1.276 1_655 S
C400 O408 1.262 . S
C400 O409 1.245 1_455 S
O401 C372 1.276 . S
O401 Zn378 1.955 . S
C402 O390 1.245 . S
C402 O391 1.263 . S
O403 Zn382 1.955 . S
O403 C386 1.276 1_556 S
C404 O411 1.262 . S
C404 O412 1.245 1_554 S
O405 Zn369 1.945 . S
O405 C394 1.262 1_655 S
O406 Zn385 1.981 . S
O406 C394 1.245 . S
C407 O392 1.245 . S
C407 O393 1.263 . S
O408 Zn374 1.945 . S
O408 C400 1.262 . S
O409 Zn380 1.981 . S
O409 C400 1.245 1_655 S
C410 O414 1.262 1_554 S
C410 O415 1.245 . S
O411 Zn380 1.945 . S
O411 C404 1.262 . S
O412 Zn369 1.981 . S
O412 C404 1.245 1_556 S
C413 O395 1.245 . S
C413 O396 1.263 . S
O414 Zn385 1.945 . S
O414 C410 1.262 1_556 S
O415 Zn374 1.981 . S
O415 C410 1.245 . S
C416 O397 1.276 . S
C416 O417 1.246 1_455 S
O417 C416 1.246 1_655 S
C418 O399 1.276 1_455 S
C418 O419 1.246 . S
O419 C418 1.246 . S
Zn420 O422 1.933 1_556 S
Zn420 O440 1.985 . S
Zn420 O451 1.955 . S
Zn421 O422 1.911 . S
Zn421 O441 1.970 . S
Zn421 O457 1.945 . S
Zn421 O464 1.981 . S
O422 Zn420 1.933 1_554 S
O422 Zn421 1.911 . S
O422 H423 0.841 . S
H423 O422 0.841 . S
C424 O425 1.246 . S
C424 O453 1.276 . S
O425 C424 1.246 . S
Zn426 O428 1.911 . S
Zn426 O443 1.970 . S
Zn426 O460 1.945 . S
Zn426 O467 1.981 . S
Zn427 O428 1.933 1_556 S
Zn427 O442 1.985 . S
Zn427 O449 1.955 . S
O428 Zn426 1.911 . S
O428 Zn427 1.933 1_554 S
O428 H429 0.841 . S
H429 O428 0.841 . S
Zn430 O431 1.933 1_556 S
Zn430 O444 1.985 . S
Zn430 O453 1.955 . S
O431 Zn430 1.933 1_554 S
O431 Zn432 1.911 . S
O431 H433 0.841 . S
Zn432 O431 1.911 . S
Zn432 O445 1.970 . S
Zn432 O461 1.981 . S
Zn432 O463 1.945 . S
H433 O431 0.841 . S
Zn434 O435 1.933 1_556 S
Zn434 O447 1.985 . S
Zn434 O455 1.955 . S
O435 Zn434 1.933 1_554 S
O435 H436 0.841 . S
O435 Zn437 1.911 . S
H436 O435 0.841 . S
Zn437 O435 1.911 . S
Zn437 O448 1.970 . S
Zn437 O458 1.981 . S
Zn437 O466 1.945 . S
C438 O439 1.246 . S
C438 O455 1.276 . S
O439 C438 1.246 . S
O440 Zn420 1.985 . S
O440 C450 1.245 1_556 S
O441 Zn421 1.970 . S
O441 C450 1.263 . S
O442 Zn427 1.985 . S
O442 C454 1.245 1_556 S
O443 Zn426 1.970 . S
O443 C454 1.263 . S
O444 Zn430 1.985 . S
O444 C459 1.245 1_556 S
O445 Zn432 1.970 . S
O445 C459 1.263 . S
C446 O457 1.262 . S
C446 O458 1.245 . S
O447 Zn434 1.985 . S
O447 C465 1.245 1_556 S
O448 Zn437 1.970 . S
O448 C465 1.263 . S
O449 Zn427 1.955 . S
O449 C468 1.276 . S
C450 O440 1.245 1_554 S
C450 O441 1.263 . S
O451 Zn420 1.955 . S
O451 C470 1.276 . S
C452 O460 1.262 . S
C452 O461 1.245 . S
O453 C424 1.276 . S
O453 Zn430 1.955 . S
C454 O442 1.245 1_554 S
C454 O443 1.263 . S
O455 Zn434 1.955 . S
O455 C438 1.276 . S
C456 O463 1.262 . S
C456 O464 1.245 . S
O457 Zn421 1.945 . S
O457 C446 1.262 . S
O458 Zn437 1.981 . S
O458 C446 1.245 . S
C459 O444 1.245 1_554 S
C459 O445 1.263 . S
O460 Zn426 1.945 . S
O460 C452 1.262 . S
O461 Zn432 1.981 . S
O461 C452 1.245 . S
C462 O466 1.262 . S
C462 O467 1.245 . S
O463 Zn432 1.945 . S
O463 C456 1.262 . S
O464 Zn421 1.981 . S
O464 C456 1.245 . S
C465 O447 1.245 1_554 S
C465 O448 1.263 . S
O466 Zn437 1.945 . S
O466 C462 1.262 . S
O467 Zn426 1.981 . S
O467 C462 1.245 . S
C468 O449 1.276 . S
C468 O469 1.246 . S
O469 C468 1.246 . S
C470 O451 1.276 . S
C470 O471 1.246 . S
O471 C470 1.246 . S
Zn472 O474 1.933 . S
Zn472 O492 1.985 . S
Zn472 O503 1.955 . S
Zn473 O474 1.911 . S
Zn473 O493 1.970 . S
Zn473 O509 1.945 . S
Zn473 O516 1.981 . S
O474 Zn472 1.933 . S
O474 Zn473 1.911 . S
O474 H475 0.841 1_655 S
H475 O474 0.841 1_455 S
C476 O477 1.246 . S
C476 O505 1.276 . S
O477 C476 1.246 . S
Zn478 O480 1.911 . S
Zn478 O495 1.970 . S
Zn478 O512 1.945 . S
Zn478 O519 1.981 . S
Zn479 O480 1.933 . S
Zn479 O494 1.985 . S
Zn479 O501 1.955 . S
O480 Zn478 1.911 . S
O480 Zn479 1.933 . S
O480 H481 0.841 . S
H481 O480 0.841 . S
Zn482 O483 1.933 . S
Zn482 O496 1.985 . S
Zn482 O505 1.955 . S
O483 Zn482 1.933 . S
O483 Zn484 1.911 . S
O483 H485 0.841 . S
Zn484 O483 1.911 . S
Zn484 O497 1.970 . S
Zn484 O513 1.981 1_655 S
Zn484 O515 1.945 . S
H485 O483 0.841 . S
Zn486 O487 1.933 . S
Zn486 O499 1.985 . S
Zn486 O507 1.955 . S
O487 Zn486 1.933 . S
O487 H488 0.841 . S
O487 Zn489 1.911 . S
H488 O487 0.841 . S
Zn489 O487 1.911 . S
Zn489 O500 1.970 . S
Zn489 O510 1.981 . S
Zn489 O518 1.945 . S
C490 O491 1.246 . S
C490 O507 1.276 . S
O491 C490 1.246 . S
O492 Zn472 1.985 . S
O492 C502 1.245 . S
O493 Zn473 1.970 . S
O493 C502 1.263 . S
O494 Zn479 1.985 . S
O494 C506 1.245 . S
O495 Zn478 1.970 . S
O495 C506 1.263 . S
O496 Zn482 1.985 . S
O496 C511 1.245 . S
O497 Zn484 1.970 . S
O497 C511 1.263 . S
C498 O509 1.262 1_455 S
C498 O510 1.245 . S
O499 Zn486 1.985 . S
O499 C517 1.245 . S
O500 Zn489 1.970 . S
O500 C517 1.263 . S
O501 Zn479 1.955 . S
O501 C520 1.276 . S
C502 O492 1.245 . S
C502 O493 1.263 . S
O503 Zn472 1.955 . S
O503 C522 1.276 1_655 S
C504 O512 1.262 . S
C504 O513 1.245 . S
O505 C476 1.276 . S
O505 Zn482 1.955 . S
C506 O494 1.245 . S
C506 O495 1.263 . S
O507 Zn486 1.955 . S
O507 C490 1.276 . S
C508 O515 1.262 . S
C508 O516 1.245 . S
O509 Zn473 1.945 . S
O509 C498 1.262 1_655 S
O510 Zn489 1.981 . S
O510 C498 1.245 . S
C511 O496 1.245 . S
C511 O497 1.263 . S
O512 Zn478 1.945 . S
O512 C504 1.262 . S
O513 Zn484 1.981 1_455 S
O513 C504 1.245 . S
C514 O518 1.262 . S
C514 O519 1.245 . S
O515 Zn484 1.945 . S
O515 C508 1.262 . S
O516 Zn473 1.981 . S
O516 C508 1.245 . S
C517 O499 1.245 . S
C517 O500 1.263 . S
O518 Zn489 1.945 . S
O518 C514 1.262 . S
O519 Zn478 1.981 . S
O519 C514 1.245 . S
C520 O501 1.276 . S
C520 O521 1.246 . S
O521 C520 1.246 . S
C522 O503 1.276 1_455 S
C522 O523 1.246 . S
O523 C522 1.246 . S
Zn524 O526 1.933 1_565 S
Zn524 O544 1.985 . S
Zn524 O555 1.955 . S
Zn525 O526 1.911 . S
Zn525 O545 1.970 . S
Zn525 O561 1.945 . S
Zn525 O568 1.981 . S
O526 Zn524 1.933 1_545 S
O526 Zn525 1.911 . S
O526 H527 0.841 . S
H527 O526 0.841 . S
C528 O529 1.246 . S
C528 O557 1.276 . S
O529 C528 1.246 . S
Zn530 O532 1.911 . S
Zn530 O547 1.970 . S
Zn530 O564 1.945 . S
Zn530 O571 1.981 . S
Zn531 O532 1.933 1_565 S
Zn531 O546 1.985 . S
Zn531 O553 1.955 . S
O532 Zn530 1.911 . S
O532 Zn531 1.933 1_545 S
O532 H533 0.841 . S
H533 O532 0.841 . S
Zn534 O535 1.933 1_565 S
Zn534 O548 1.985 . S
Zn534 O557 1.955 . S
O535 Zn534 1.933 1_545 S
O535 Zn536 1.911 . S
O535 H537 0.841 . S
Zn536 O535 1.911 . S
Zn536 O549 1.970 . S
Zn536 O565 1.981 . S
Zn536 O567 1.945 . S
H537 O535 0.841 . S
Zn538 O539 1.933 1_565 S
Zn538 O551 1.985 . S
Zn538 O559 1.955 . S
O539 Zn538 1.933 1_545 S
O539 H540 0.841 . S
O539 Zn541 1.911 . S
H540 O539 0.841 . S
Zn541 O539 1.911 . S
Zn541 O552 1.970 . S
Zn541 O562 1.981 . S
Zn541 O570 1.945 . S
C542 O543 1.246 . S
C542 O559 1.276 . S
O543 C542 1.246 . S
O544 Zn524 1.985 . S
O544 C554 1.245 1_565 S
O545 Zn525 1.970 . S
O545 C554 1.263 . S
O546 Zn531 1.985 . S
O546 C558 1.245 1_565 S
O547 Zn530 1.970 . S
O547 C558 1.263 . S
O548 Zn534 1.985 . S
O548 C563 1.245 1_565 S
O549 Zn536 1.970 . S
O549 C563 1.263 . S
C550 O561 1.262 . S
C550 O562 1.245 . S
O551 Zn538 1.985 . S
O551 C569 1.245 1_565 S
O552 Zn541 1.970 . S
O552 C569 1.263 . S
O553 Zn531 1.955 . S
O553 C572 1.276 . S
C554 O544 1.245 1_545 S
C554 O545 1.263 . S
O555 Zn524 1.955 . S
O555 C574 1.276 . S
C556 O564 1.262 . S
C556 O565 1.245 . S
O557 C528 1.276 . S
O557 Zn534 1.955 . S
C558 O546 1.245 1_545 S
C558 O547 1.263 . S
O559 Zn538 1.955 . S
O559 C542 1.276 . S
C560 O567 1.262 . S
C560 O568 1.245 . S
O561 Zn525 1.945 . S
O561 C550 1.262 . S
O562 Zn541 1.981 . S
O562 C550 1.245 . S
C563 O548 1.245 1_545 S
C563 O549 1.263 . S
O564 Zn530 1.945 . S
O564 C556 1.262 . S
O565 Zn536 1.981 . S
O565 C556 1.245 . S
C566 O570 1.262 . S
C566 O571 1.245 . S
O567 Zn536 1.945 . S
O567 C560 1.262 . S
O568 Zn525 1.981 . S
O568 C560 1.245 . S
C569 O551 1.245 1_545 S
C569 O552 1.263 . S
O570 Zn541 1.945 . S
O570 C566 1.262 . S
O571 Zn530 1.981 . S
O571 C566 1.245 . S
C572 O553 1.276 . S
C572 O573 1.246 . S
O573 C572 1.246 . S
C574 O555 1.276 . S
C574 O575 1.246 . S
O575 C574 1.246 . S
H576 C582 0.930 . S
H577 C585 0.930 . S
H578 C586 0.930 . S
H579 C587 0.930 . S
H580 C590 0.930 . S
H581 C591 0.930 . S
C582 H576 0.930 . S
C582 C583 1.355 . S
C582 C584 1.415 . S
C583 C582 1.355 . S
C583 C585 1.419 . S
C584 C582 1.415 . S
C584 C589 1.425 . S
C584 C591 1.409 . S
C585 H577 0.930 . S
C585 C583 1.419 . S
C585 C586 1.362 . S
C586 H578 0.930 . S
C586 C585 1.362 . S
C586 C589 1.409 . S
C587 H579 0.930 . S
C587 C588 1.355 . S
C587 C589 1.415 . S
C588 C587 1.355 . S
C588 C590 1.419 . S
C589 C584 1.425 . S
C589 C586 1.409 . S
C589 C587 1.415 . S
C590 H580 0.930 . S
C590 C588 1.419 . S
C590 C591 1.362 . S
C591 H581 0.930 . S
C591 C584 1.409 . S
C591 C590 1.362 . S
H592 C598 0.930 . S
H593 C601 0.930 . S
H594 C602 0.930 . S
H595 C603 0.930 . S
H596 C606 0.930 . S
H597 C607 0.930 . S
C598 H592 0.930 . S
C598 C599 1.355 . S
C598 C600 1.415 . S
C599 C598 1.355 . S
C599 C601 1.419 . S
C600 C598 1.415 . S
C600 C605 1.425 . S
C600 C607 1.409 . S
C601 H593 0.930 . S
C601 C599 1.419 . S
C601 C602 1.362 . S
C602 H594 0.930 . S
C602 C601 1.362 . S
C602 C605 1.409 . S
C603 H595 0.930 . S
C603 C604 1.355 . S
C603 C605 1.415 . S
C604 C603 1.355 . S
C604 C606 1.419 . S
C605 C600 1.425 . S
C605 C602 1.409 . S
C605 C603 1.415 . S
C606 H596 0.930 . S
C606 C604 1.419 . S
C606 C607 1.362 . S
C607 H597 0.930 . S
C607 C600 1.409 . S
C607 C606 1.362 . S
H608 C614 0.930 . S
H609 C617 0.930 . S
H610 C618 0.930 . S
H611 C619 0.930 . S
H612 C622 0.930 . S
H613 C623 0.930 . S
C614 H608 0.930 . S
C614 C615 1.355 . S
C614 C616 1.415 . S
C615 C614 1.355 . S
C615 C617 1.419 . S
C616 C614 1.415 . S
C616 C621 1.425 . S
C616 C623 1.409 . S
C617 H609 0.930 . S
C617 C615 1.419 . S
C617 C618 1.362 . S
C618 H610 0.930 . S
C618 C617 1.362 . S
C618 C621 1.409 . S
C619 H611 0.930 . S
C619 C620 1.355 . S
C619 C621 1.415 . S
C620 C619 1.355 . S
C620 C622 1.419 . S
C621 C616 1.425 . S
C621 C618 1.409 . S
C621 C619 1.415 . S
C622 H612 0.930 . S
C622 C620 1.419 . S
C622 C623 1.362 . S
C623 H613 0.930 . S
C623 C616 1.409 . S
C623 C622 1.362 . S
H624 C630 0.930 . S
H625 C633 0.930 . S
H626 C634 0.930 . S
H627 C635 0.930 . S
H628 C638 0.930 . S
H629 C639 0.930 . S
C630 H624 0.930 . S
C630 C631 1.355 . S
C630 C632 1.415 . S
C631 C630 1.355 . S
C631 C633 1.419 . S
C632 C630 1.415 . S
C632 C637 1.425 . S
C632 C639 1.409 . S
C633 H625 0.930 . S
C633 C631 1.419 . S
C633 C634 1.362 . S
C634 H626 0.930 . S
C634 C633 1.362 . S
C634 C637 1.409 . S
C635 H627 0.930 . S
C635 C636 1.355 . S
C635 C637 1.415 . S
C636 C635 1.355 . S
C636 C638 1.419 . S
C637 C632 1.425 . S
C637 C634 1.409 . S
C637 C635 1.415 . S
C638 H628 0.930 . S
C638 C636 1.419 . S
C638 C639 1.362 . S
C639 H629 0.930 . S
C639 C632 1.409 . S
C639 C638 1.362 . S
H640 C646 0.930 . S
H641 C649 0.930 . S
H642 C650 0.930 . S
H643 C651 0.930 . S
H644 C654 0.930 . S
H645 C655 0.930 . S
C646 H640 0.930 . S
C646 C647 1.355 . S
C646 C648 1.415 . S
C647 C646 1.355 . S
C647 C649 1.419 . S
C648 C646 1.415 . S
C648 C653 1.425 . S
C648 C655 1.409 . S
C649 H641 0.930 . S
C649 C647 1.419 . S
C649 C650 1.362 . S
C650 H642 0.930 . S
C650 C649 1.362 . S
C650 C653 1.409 . S
C651 H643 0.930 . S
C651 C652 1.355 . S
C651 C653 1.415 . S
C652 C651 1.355 . S
C652 C654 1.419 . S
C653 C648 1.425 . S
C653 C650 1.409 . S
C653 C651 1.415 . S
C654 H644 0.930 . S
C654 C652 1.419 . S
C654 C655 1.362 . S
C655 H645 0.930 . S
C655 C648 1.409 . S
C655 C654 1.362 . S
H656 C662 0.930 . S
H657 C665 0.930 . S
H658 C666 0.930 . S
H659 C667 0.930 . S
H660 C670 0.930 . S
H661 C671 0.930 . S
C662 H656 0.930 . S
C662 C663 1.355 . S
C662 C664 1.415 . S
C663 C662 1.355 . S
C663 C665 1.419 . S
C664 C662 1.415 . S
C664 C669 1.425 . S
C664 C671 1.409 . S
C665 H657 0.930 . S
C665 C663 1.419 . S
C665 C666 1.362 . S
C666 H658 0.930 . S
C666 C665 1.362 . S
C666 C669 1.409 . S
C667 H659 0.930 . S
C667 C668 1.355 . S
C667 C669 1.415 . S
C668 C667 1.355 . S
C668 C670 1.419 . S
C669 C664 1.425 . S
C669 C666 1.409 . S
C669 C667 1.415 . S
C670 H660 0.930 . S
C670 C668 1.419 . S
C670 C671 1.362 . S
C671 H661 0.930 . S
C671 C664 1.409 . S
C671 C670 1.362 . S
H672 C678 0.930 . S
H673 C681 0.930 . S
H674 C682 0.930 . S
H675 C683 0.930 . S
H676 C686 0.930 . S
H677 C687 0.930 . S
C678 H672 0.930 . S
C678 C679 1.355 . S
C678 C680 1.415 . S
C679 C678 1.355 . S
C679 C681 1.419 . S
C680 C678 1.415 . S
C680 C685 1.425 . S
C680 C687 1.409 . S
C681 H673 0.930 . S
C681 C679 1.419 . S
C681 C682 1.362 . S
C682 H674 0.930 . S
C682 C681 1.362 . S
C682 C685 1.409 . S
C683 H675 0.930 . S
C683 C684 1.355 . S
C683 C685 1.415 . S
C684 C683 1.355 . S
C684 C686 1.419 . S
C685 C680 1.425 . S
C685 C682 1.409 . S
C685 C683 1.415 . S
C686 H676 0.930 . S
C686 C684 1.419 . S
C686 C687 1.362 . S
C687 H677 0.930 . S
C687 C680 1.409 . S
C687 C686 1.362 . S
H688 C694 0.930 . S
H689 C697 0.930 . S
H690 C698 0.930 . S
H691 C699 0.930 . S
H692 C702 0.930 . S
H693 C703 0.930 . S
C694 H688 0.930 . S
C694 C695 1.355 . S
C694 C696 1.415 . S
C695 C694 1.355 . S
C695 C697 1.419 . S
C696 C694 1.415 . S
C696 C701 1.425 . S
C696 C703 1.409 . S
C697 H689 0.930 . S
C697 C695 1.419 . S
C697 C698 1.362 . S
C698 H690 0.930 . S
C698 C697 1.362 . S
C698 C701 1.409 . S
C699 H691 0.930 . S
C699 C700 1.355 . S
C699 C701 1.415 . S
C700 C699 1.355 . S
C700 C702 1.419 . S
C701 C696 1.425 . S
C701 C698 1.409 . S
C701 C699 1.415 . S
C702 H692 0.930 . S
C702 C700 1.419 . S
C702 C703 1.362 . S
C703 H693 0.930 . S
C703 C696 1.409 . S
C703 C702 1.362 . S
H704 C710 0.930 . S
H705 C713 0.930 . S
H706 C714 0.930 . S
H707 C715 0.930 . S
H708 C718 0.930 . S
H709 C719 0.930 . S
C710 H704 0.930 . S
C710 C711 1.355 . S
C710 C712 1.415 . S
C711 C710 1.355 . S
C711 C713 1.419 . S
C712 C710 1.415 . S
C712 C717 1.425 . S
C712 C719 1.409 . S
C713 H705 0.930 . S
C713 C711 1.419 . S
C713 C714 1.362 . S
C714 H706 0.930 . S
C714 C713 1.362 . S
C714 C717 1.409 . S
C715 H707 0.930 . S
C715 C716 1.355 . S
C715 C717 1.415 . S
C716 C715 1.355 . S
C716 C718 1.419 . S
C717 C712 1.425 . S
C717 C714 1.409 . S
C717 C715 1.415 . S
C718 H708 0.930 . S
C718 C716 1.419 . S
C718 C719 1.362 . S
C719 H709 0.930 . S
C719 C712 1.409 . S
C719 C718 1.362 . S
H720 C726 0.930 . S
H721 C729 0.930 . S
H722 C730 0.930 . S
H723 C731 0.930 . S
H724 C734 0.930 . S
H725 C735 0.930 . S
C726 H720 0.930 . S
C726 C727 1.355 . S
C726 C728 1.415 . S
C727 C726 1.355 . S
C727 C729 1.419 . S
C728 C726 1.415 . S
C728 C733 1.425 . S
C728 C735 1.409 . S
C729 H721 0.930 . S
C729 C727 1.419 . S
C729 C730 1.362 . S
C730 H722 0.930 . S
C730 C729 1.362 . S
C730 C733 1.409 . S
C731 H723 0.930 . S
C731 C732 1.355 . S
C731 C733 1.415 . S
C732 C731 1.355 . S
C732 C734 1.419 . S
C733 C728 1.425 . S
C733 C730 1.409 . S
C733 C731 1.415 . S
C734 H724 0.930 . S
C734 C732 1.419 . S
C734 C735 1.362 . S
C735 H725 0.930 . S
C735 C728 1.409 . S
C735 C734 1.362 . S
H736 C742 0.930 . S
H737 C745 0.930 . S
H738 C746 0.930 . S
H739 C747 0.930 . S
H740 C750 0.930 . S
H741 C751 0.930 . S
C742 H736 0.930 . S
C742 C743 1.355 . S
C742 C744 1.415 . S
C743 C742 1.355 . S
C743 C745 1.419 . S
C744 C742 1.415 . S
C744 C749 1.425 . S
C744 C751 1.409 . S
C745 H737 0.930 . S
C745 C743 1.419 . S
C745 C746 1.362 . S
C746 H738 0.930 . S
C746 C745 1.362 . S
C746 C749 1.409 . S
C747 H739 0.930 . S
C747 C748 1.355 . S
C747 C749 1.415 . S
C748 C747 1.355 . S
C748 C750 1.419 . S
C749 C744 1.425 . S
C749 C746 1.409 . S
C749 C747 1.415 . S
C750 H740 0.930 . S
C750 C748 1.419 . S
C750 C751 1.362 . S
C751 H741 0.930 . S
C751 C744 1.409 . S
C751 C750 1.362 . S
H752 C758 0.930 . S
H753 C761 0.930 . S
H754 C762 0.930 . S
H755 C763 0.930 . S
H756 C766 0.930 . S
H757 C767 0.930 . S
C758 H752 0.930 . S
C758 C759 1.355 . S
C758 C760 1.415 . S
C759 C758 1.355 . S
C759 C761 1.419 . S
C760 C758 1.415 . S
C760 C765 1.425 . S
C760 C767 1.409 . S
C761 H753 0.930 . S
C761 C759 1.419 . S
C761 C762 1.362 . S
C762 H754 0.930 . S
C762 C761 1.362 . S
C762 C765 1.409 . S
C763 H755 0.930 . S
C763 C764 1.355 . S
C763 C765 1.415 . S
C764 C763 1.355 . S
C764 C766 1.419 . S
C765 C760 1.425 . S
C765 C762 1.409 . S
C765 C763 1.415 . S
C766 H756 0.930 . S
C766 C764 1.419 . S
C766 C767 1.362 . S
C767 H757 0.930 . S
C767 C760 1.409 . S
C767 C766 1.362 . S
H768 C774 0.930 . S
H769 C777 0.930 . S
H770 C778 0.930 . S
H771 C779 0.930 . S
H772 C782 0.930 . S
H773 C783 0.930 . S
C774 H768 0.930 . S
C774 C775 1.349 1_554 S
C774 C776 1.415 . S
C775 C774 1.349 1_556 S
C775 C777 1.426 . S
C776 C774 1.415 . S
C776 C781 1.425 1_554 S
C776 C783 1.409 . S
C777 H769 0.930 . S
C777 C775 1.426 . S
C777 C778 1.362 . S
C778 H770 0.930 . S
C778 C777 1.362 . S
C778 C781 1.409 . S
C779 H771 0.930 . S
C779 C780 1.355 1_556 S
C779 C781 1.415 . S
C780 C779 1.355 1_554 S
C780 C782 1.419 . S
C781 C776 1.425 1_556 S
C781 C778 1.409 . S
C781 C779 1.415 . S
C782 H772 0.930 . S
C782 C780 1.419 . S
C782 C783 1.362 . S
C783 H773 0.930 . S
C783 C776 1.409 . S
C783 C782 1.362 . S
H784 C790 0.930 . S
H785 C793 0.930 . S
H786 C794 0.930 . S
H787 C795 0.942 . S
H788 C798 0.930 . S
H789 C799 0.930 . S
C790 H784 0.930 . S
C790 C791 1.355 . S
C790 C792 1.415 . S
C791 C790 1.355 . S
C791 C793 1.419 1_554 S
C792 C790 1.415 . S
C792 C797 1.425 . S
C792 C799 1.409 . S
C793 H785 0.930 . S
C793 C791 1.419 1_556 S
C793 C794 1.362 . S
C794 H786 0.930 . S
C794 C793 1.362 . S
C794 C797 1.409 1_556 S
C795 H787 0.942 . S
C795 C796 1.346 1_556 S
C795 C797 1.412 1_556 S
C796 C795 1.346 1_554 S
C796 C798 1.419 . S
C797 C792 1.425 . S
C797 C794 1.409 1_554 S
C797 C795 1.412 1_554 S
C798 H788 0.930 . S
C798 C796 1.419 . S
C798 C799 1.362 . S
C799 H789 0.930 . S
C799 C792 1.409 . S
C799 C798 1.362 . S
H800 C806 0.930 . S
H801 C809 0.930 . S
H802 C810 0.930 . S
H803 C811 0.930 . S
H804 C814 0.930 . S
H805 C815 0.930 . S
C806 H800 0.930 . S
C806 C807 1.355 1_556 S
C806 C808 1.412 1_556 S
C807 C806 1.355 1_554 S
C807 C809 1.419 . S
C808 C806 1.412 1_554 S
C808 C813 1.451 . S
C808 C815 1.389 1_554 S
C809 H801 0.930 . S
C809 C807 1.419 . S
C809 C810 1.362 . S
C810 H802 0.930 . S
C810 C809 1.362 . S
C810 C813 1.409 . S
C811 H803 0.930 . S
C811 C812 1.355 . S
C811 C813 1.415 . S
C812 C811 1.355 . S
C812 C814 1.419 1_554 S
C813 C808 1.451 . S
C813 C810 1.409 . S
C813 C811 1.415 . S
C814 H804 0.930 . S
C814 C812 1.419 1_556 S
C814 C815 1.362 . S
C815 H805 0.930 . S
C815 C808 1.389 1_556 S
C815 C814 1.362 . S
H816 C822 0.930 . S
H817 C825 0.930 . S
H818 C826 0.930 . S
H819 C827 0.930 . S
H820 C830 0.930 . S
H821 C831 0.930 . S
C822 H816 0.930 . S
C822 C823 1.355 1_556 S
C822 C824 1.417 . S
C823 C822 1.355 1_554 S
C823 C825 1.419 . S
C824 C822 1.417 . S
C824 C829 1.418 1_556 S
C824 C831 1.415 . S
C825 H817 0.930 . S
C825 C823 1.419 . S
C825 C826 1.362 . S
C826 H818 0.930 . S
C826 C825 1.362 . S
C826 C829 1.409 . S
C827 H819 0.930 . S
C827 C828 1.355 . S
C827 C829 1.415 . S
C828 C827 1.355 . S
C828 C830 1.419 1_554 S
C829 C824 1.418 1_554 S
C829 C826 1.409 . S
C829 C827 1.415 . S
C830 H820 0.930 . S
C830 C828 1.419 1_556 S
C830 C831 1.362 . S
C831 H821 0.930 . S
C831 C824 1.415 . S
C831 C830 1.362 . S
H832 C838 0.930 . S
H833 C841 0.930 . S
H834 C842 0.930 . S
H835 C843 0.930 . S
H836 C846 0.930 . S
H837 C847 0.930 . S
C838 H832 0.930 . S
C838 C839 1.355 1_655 S
C838 C840 1.415 . S
C839 C838 1.355 1_455 S
C839 C841 1.419 . S
C840 C838 1.415 . S
C840 C845 1.425 1_655 S
C840 C847 1.409 . S
C841 H833 0.930 . S
C841 C839 1.419 . S
C841 C842 1.362 . S
C842 H834 0.930 . S
C842 C841 1.362 . S
C842 C845 1.409 . S
C843 H835 0.930 . S
C843 C844 1.355 . S
C843 C845 1.415 . S
C844 C843 1.355 . S
C844 C846 1.419 1_455 S
C845 C840 1.425 1_455 S
C845 C842 1.409 . S
C845 C843 1.415 . S
C846 H836 0.930 . S
C846 C844 1.419 1_655 S
C846 C847 1.362 . S
C847 H837 0.930 . S
C847 C840 1.409 . S
C847 C846 1.362 . S
H848 C854 0.930 . S
H849 C857 0.930 . S
H850 C858 0.930 . S
H851 C859 0.930 . S
H852 C862 0.930 . S
H853 C863 0.930 . S
C854 H848 0.930 . S
C854 C855 1.355 . S
C854 C856 1.415 . S
C855 C854 1.355 . S
C855 C857 1.419 . S
C856 C854 1.415 . S
C856 C861 1.425 . S
C856 C863 1.409 . S
C857 H849 0.930 . S
C857 C855 1.419 . S
C857 C858 1.362 . S
C858 H850 0.930 . S
C858 C857 1.362 . S
C858 C861 1.409 . S
C859 H851 0.930 . S
C859 C860 1.355 . S
C859 C861 1.415 . S
C860 C859 1.355 . S
C860 C862 1.419 . S
C861 C856 1.425 . S
C861 C858 1.409 . S
C861 C859 1.415 . S
C862 H852 0.930 . S
C862 C860 1.419 . S
C862 C863 1.362 . S
C863 H853 0.930 . S
C863 C856 1.409 . S
C863 C862 1.362 . S
H864 C870 0.930 1_655 S
H865 C873 0.930 . S
H866 C874 0.930 . S
H867 C875 0.930 . S
H868 C878 0.930 . S
H869 C879 0.930 . S
C870 H864 0.930 1_455 S
C870 C871 1.355 . S
C870 C872 1.415 . S
C871 C870 1.355 . S
C871 C873 1.419 . S
C872 C870 1.415 . S
C872 C877 1.425 . S
C872 C879 1.409 1_455 S
C873 H865 0.930 . S
C873 C871 1.419 . S
C873 C874 1.362 . S
C874 H866 0.930 . S
C874 C873 1.362 . S
C874 C877 1.409 . S
C875 H867 0.930 . S
C875 C876 1.355 . S
C875 C877 1.415 . S
C876 C875 1.355 . S
C876 C878 1.419 1_455 S
C877 C872 1.425 . S
C877 C874 1.409 . S
C877 C875 1.415 . S
C878 H868 0.930 . S
C878 C876 1.419 1_655 S
C878 C879 1.362 . S
C879 H869 0.930 . S
C879 C872 1.409 1_655 S
C879 C878 1.362 . S
H880 C886 0.930 . S
H881 C889 0.930 . S
H882 C890 0.930 . S
H883 C891 0.930 . S
H884 C894 0.930 . S
H885 C895 0.930 . S
C886 H880 0.930 . S
C886 C887 1.355 . S
C886 C888 1.415 . S
C887 C886 1.355 . S
C887 C889 1.419 . S
C888 C886 1.415 . S
C888 C893 1.425 . S
C888 C895 1.409 . S
C889 H881 0.930 . S
C889 C887 1.419 . S
C889 C890 1.362 . S
C890 H882 0.930 . S
C890 C889 1.362 . S
C890 C893 1.409 . S
C891 H883 0.930 . S
C891 C892 1.355 . S
C891 C893 1.415 . S
C892 C891 1.355 . S
C892 C894 1.419 . S
C893 C888 1.425 . S
C893 C890 1.409 . S
C893 C891 1.415 . S
C894 H884 0.930 . S
C894 C892 1.419 . S
C894 C895 1.362 . S
C895 H885 0.930 . S
C895 C888 1.409 . S
C895 C894 1.362 . S
H896 C902 0.930 . S
H897 C905 0.930 . S
H898 C906 0.930 . S
H899 C907 0.930 . S
H900 C910 0.930 . S
H901 C911 0.930 . S
C902 H896 0.930 . S
C902 C903 1.355 . S
C902 C904 1.415 . S
C903 C902 1.355 . S
C903 C905 1.419 . S
C904 C902 1.415 . S
C904 C909 1.425 . S
C904 C911 1.409 . S
C905 H897 0.930 . S
C905 C903 1.419 . S
C905 C906 1.362 . S
C906 H898 0.930 . S
C906 C905 1.362 . S
C906 C909 1.409 . S
C907 H899 0.930 . S
C907 C908 1.355 . S
C907 C909 1.415 . S
C908 C907 1.355 . S
C908 C910 1.419 . S
C909 C904 1.425 . S
C909 C906 1.409 . S
C909 C907 1.415 . S
C910 H900 0.930 . S
C910 C908 1.419 . S
C910 C911 1.362 . S
C911 H901 0.930 . S
C911 C904 1.409 . S
C911 C910 1.362 . S
H912 C918 0.930 . S
H913 C921 0.930 1_565 S
H914 C922 0.930 1_565 S
H915 C923 0.930 1_565 S
H916 C926 0.930 . S
H917 C927 0.930 . S
C918 H912 0.930 . S
C918 C919 1.355 . S
C918 C920 1.415 . S
C919 C918 1.355 . S
C919 C921 1.419 . S
C920 C918 1.415 . S
C920 C925 1.425 . S
C920 C927 1.409 . S
C921 H913 0.930 1_545 S
C921 C919 1.419 . S
C921 C922 1.362 . S
C922 H914 0.930 1_545 S
C922 C921 1.362 . S
C922 C925 1.409 . S
C923 H915 0.930 1_545 S
C923 C924 1.355 . S
C923 C925 1.415 . S
C924 C923 1.355 . S
C924 C926 1.419 . S
C925 C920 1.425 . S
C925 C922 1.409 . S
C925 C923 1.415 . S
C926 H916 0.930 . S
C926 C924 1.419 . S
C926 C927 1.362 . S
C927 H917 0.930 . S
C927 C920 1.409 . S
C927 C926 1.362 . S
H928 C934 0.930 . S
H929 C937 0.930 . S
H930 C938 0.930 . S
H931 C939 0.930 . S
H932 C942 0.930 . S
H933 C943 0.930 . S
C934 H928 0.930 . S
C934 C935 1.355 . S
C934 C936 1.415 . S
C935 C934 1.355 . S
C935 C937 1.419 . S
C936 C934 1.415 . S
C936 C941 1.425 . S
C936 C943 1.409 . S
C937 H929 0.930 . S
C937 C935 1.419 . S
C937 C938 1.362 . S
C938 H930 0.930 . S
C938 C937 1.362 . S
C938 C941 1.409 . S
C939 H931 0.930 . S
C939 C940 1.355 . S
C939 C941 1.415 . S
C940 C939 1.355 . S
C940 C942 1.419 . S
C941 C936 1.425 . S
C941 C938 1.409 . S
C941 C939 1.415 . S
C942 H932 0.930 . S
C942 C940 1.419 . S
C942 C943 1.362 . S
C943 H933 0.930 . S
C943 C936 1.409 . S
C943 C942 1.362 . S
H944 C950 0.930 . S
H945 C953 0.930 . S
H946 C954 0.930 . S
H947 C955 0.930 . S
H948 C958 0.930 . S
H949 C959 0.930 . S
C950 H944 0.930 . S
C950 C951 1.355 1_565 S
C950 C952 1.415 1_565 S
C951 C950 1.355 1_545 S
C951 C953 1.419 . S
C952 C950 1.415 1_545 S
C952 C957 1.425 . S
C952 C959 1.409 1_545 S
C953 H945 0.930 . S
C953 C951 1.419 . S
C953 C954 1.362 . S
C954 H946 0.930 . S
C954 C953 1.362 . S
C954 C957 1.409 . S
C955 H947 0.930 . S
C955 C956 1.355 . S
C955 C957 1.415 . S
C956 C955 1.355 . S
C956 C958 1.419 1_545 S
C957 C952 1.425 . S
C957 C954 1.409 . S
C957 C955 1.415 . S
C958 H948 0.930 . S
C958 C956 1.419 1_565 S
C958 C959 1.362 . S
C959 H949 0.930 . S
C959 C952 1.409 1_565 S
C959 C958 1.362 . S
H960 C966 0.930 . S
H961 C969 0.930 . S
H962 C970 0.930 . S
H963 C971 0.930 . S
H964 C974 0.930 . S
H965 C975 0.930 . S
C966 H960 0.930 . S
C966 C967 1.355 . S
C966 C968 1.415 . S
C967 C966 1.355 . S
C967 C969 1.419 . S
C968 C966 1.415 . S
C968 C973 1.425 . S
C968 C975 1.409 . S
C969 H961 0.930 . S
C969 C967 1.419 . S
C969 C970 1.362 . S
C970 H962 0.930 . S
C970 C969 1.362 . S
C970 C973 1.409 . S
C971 H963 0.930 . S
C971 C972 1.355 . S
C971 C973 1.415 . S
C972 C971 1.355 . S
C972 C974 1.419 . S
C973 C968 1.425 . S
C973 C970 1.409 . S
C973 C971 1.415 . S
C974 H964 0.930 . S
C974 C972 1.419 . S
C974 C975 1.362 . S
C975 H965 0.930 . S
C975 C968 1.409 . S
C975 C974 1.362 . S
H976 C982 0.930 . S
H977 C985 0.930 . S
H978 C986 0.930 . S
H979 C987 0.930 . S
H980 C990 0.930 . S
H981 C991 0.930 . S
C982 H976 0.930 . S
C982 C983 1.355 . S
C982 C984 1.415 . S
C983 C982 1.355 . S
C983 C985 1.419 . S
C984 C982 1.415 . S
C984 C989 1.425 . S
C984 C991 1.409 . S
C985 H977 0.930 . S
C985 C983 1.419 . S
C985 C986 1.362 . S
C986 H978 0.930 . S
C986 C985 1.362 . S
C986 C989 1.409 . S
C987 H979 0.930 . S
C987 C988 1.355 . S
C987 C989 1.415 . S
C988 C987 1.355 . S
C988 C990 1.419 . S
C989 C984 1.425 . S
C989 C986 1.409 . S
C989 C987 1.415 . S
C990 H980 0.930 . S
C990 C988 1.419 . S
C990 C991 1.362 . S
C991 H981 0.930 . S
C991 C984 1.409 . S
C991 C990 1.362 . S
H992 C998 0.930 . S
H993 C1001 0.930 1_655 S
H994 C1002 0.930 1_655 S
H995 C1003 0.930 . S
H996 C1006 0.930 . S
H997 C1007 0.930 . S
C998 H992 0.930 . S
C998 C999 1.355 . S
C998 C1000 1.415 . S
C999 C998 1.355 . S
C999 C1001 1.419 . S
C1000 C998 1.415 . S
C1000 C1005 1.425 . S
C1000 C1007 1.409 . S
C1001 H993 0.930 1_455 S
C1001 C999 1.419 . S
C1001 C1002 1.362 . S
C1002 H994 0.930 1_455 S
C1002 C1001 1.362 . S
C1002 C1005 1.409 . S
C1003 H995 0.930 . S
C1003 C1004 1.355 . S
C1003 C1005 1.415 . S
C1004 C1003 1.355 . S
C1004 C1006 1.419 . S
C1005 C1000 1.425 . S
C1005 C1002 1.409 . S
C1005 C1003 1.415 . S
C1006 H996 0.930 . S
C1006 C1004 1.419 . S
C1006 C1007 1.362 . S
C1007 H997 0.930 . S
C1007 C1000 1.409 . S
C1007 C1006 1.362 . S
H1008 C1014 0.930 . S
H1009 C1017 0.930 . S
H1010 C1018 0.930 . S
H1011 C1019 0.930 . S
H1012 C1022 0.930 . S
H1013 C1023 0.930 . S
C1014 H1008 0.930 . S
C1014 C1015 1.355 1_565 S
C1014 C1016 1.415 . S
C1015 C1014 1.355 1_545 S
C1015 C1017 1.419 . S
C1016 C1014 1.415 . S
C1016 C1021 1.425 1_565 S
C1016 C1023 1.409 . S
C1017 H1009 0.930 . S
C1017 C1015 1.419 . S
C1017 C1018 1.362 . S
C1018 H1010 0.930 . S
C1018 C1017 1.362 . S
C1018 C1021 1.409 . S
C1019 H1011 0.930 . S
C1019 C1020 1.355 . S
C1019 C1021 1.415 . S
C1020 C1019 1.355 . S
C1020 C1022 1.419 1_545 S
C1021 C1016 1.425 1_545 S
C1021 C1018 1.409 . S
C1021 C1019 1.415 . S
C1022 H1012 0.930 . S
C1022 C1020 1.419 1_565 S
C1022 C1023 1.362 . S
C1023 H1013 0.930 . S
C1023 C1016 1.409 . S
C1023 C1022 1.362 . S
H1024 C1030 0.930 . S
H1025 C1033 0.930 . S
H1026 C1034 0.930 . S
H1027 C1035 0.930 . S
H1028 C1038 0.930 . S
H1029 C1039 0.930 . S
C1030 H1024 0.930 . S
C1030 C1031 1.355 1_655 S
C1030 C1032 1.415 . S
C1031 C1030 1.355 1_455 S
C1031 C1033 1.419 . S
C1032 C1030 1.415 . S
C1032 C1037 1.425 1_655 S
C1032 C1039 1.409 . S
C1033 H1025 0.930 . S
C1033 C1031 1.419 . S
C1033 C1034 1.362 . S
C1034 H1026 0.930 . S
C1034 C1033 1.362 . S
C1034 C1037 1.409 . S
C1035 H1027 0.930 . S
C1035 C1036 1.355 . S
C1035 C1037 1.415 . S
C1036 C1035 1.355 . S
C1036 C1038 1.419 1_455 S
C1037 C1032 1.425 1_455 S
C1037 C1034 1.409 . S
C1037 C1035 1.415 . S
C1038 H1028 0.930 . S
C1038 C1036 1.419 1_655 S
C1038 C1039 1.362 . S
C1039 H1029 0.930 . S
C1039 C1032 1.409 . S
C1039 C1038 1.362 . S
H1040 C1046 0.930 . S
H1041 C1049 0.930 . S
H1042 C1050 0.930 . S
H1043 C1051 0.930 1_565 S
H1044 C1054 0.930 . S
H1045 C1055 0.930 . S
C1046 H1040 0.930 . S
C1046 C1047 1.355 . S
C1046 C1048 1.415 . S
C1047 C1046 1.355 . S
C1047 C1049 1.419 1_545 S
C1048 C1046 1.415 . S
C1048 C1053 1.425 . S
C1048 C1055 1.409 . S
C1049 H1041 0.930 . S
C1049 C1047 1.419 1_565 S
C1049 C1050 1.362 . S
C1050 H1042 0.930 . S
C1050 C1049 1.362 . S
C1050 C1053 1.409 1_565 S
C1051 H1043 0.930 1_545 S
C1051 C1052 1.355 . S
C1051 C1053 1.415 . S
C1052 C1051 1.355 . S
C1052 C1054 1.419 . S
C1053 C1048 1.425 . S
C1053 C1050 1.409 1_545 S
C1053 C1051 1.415 . S
C1054 H1044 0.930 . S
C1054 C1052 1.419 . S
C1054 C1055 1.362 . S
C1055 H1045 0.930 . S
C1055 C1048 1.409 . S
C1055 C1054 1.362 . S
H1056 C1062 0.930 . S
H1057 C1065 0.930 . S
H1058 C1066 0.930 . S
H1059 C1067 0.930 1_655 S
H1060 C1070 0.930 . S
H1061 C1071 0.930 . S
C1062 H1056 0.930 . S
C1062 C1063 1.355 . S
C1062 C1064 1.415 . S
C1063 C1062 1.355 . S
C1063 C1065 1.419 1_455 S
C1064 C1062 1.415 . S
C1064 C1069 1.425 . S
C1064 C1071 1.409 . S
C1065 H1057 0.930 . S
C1065 C1063 1.419 1_655 S
C1065 C1066 1.362 . S
C1066 H1058 0.930 . S
C1066 C1065 1.362 . S
C1066 C1069 1.409 1_655 S
C1067 H1059 0.930 1_455 S
C1067 C1068 1.355 . S
C1067 C1069 1.415 . S
C1068 C1067 1.355 . S
C1068 C1070 1.419 . S
C1069 C1064 1.425 . S
C1069 C1066 1.409 1_455 S
C1069 C1067 1.415 . S
C1070 H1060 0.930 . S
C1070 C1068 1.419 . S
C1070 C1071 1.362 . S
C1071 H1061 0.930 . S
C1071 C1064 1.409 . S
C1071 C1070 1.362 . S
H1072 C1078 0.930 . S
H1073 C1081 0.948 . S
H1074 C1082 0.930 . S
H1075 C1083 0.930 1_565 S
H1076 C1086 0.930 . S
H1077 C1087 0.930 . S
C1078 H1072 0.930 . S
C1078 C1079 1.355 . S
C1078 C1080 1.415 . S
C1079 C1078 1.355 . S
C1079 C1081 1.394 1_545 S
C1080 C1078 1.415 . S
C1080 C1085 1.425 . S
C1080 C1087 1.409 . S
C1081 H1073 0.948 . S
C1081 C1079 1.394 1_565 S
C1081 C1082 1.369 . S
C1082 H1074 0.930 . S
C1082 C1081 1.369 . S
C1082 C1085 1.409 1_565 S
C1083 H1075 0.930 1_545 S
C1083 C1084 1.355 . S
C1083 C1085 1.415 . S
C1084 C1083 1.355 . S
C1084 C1086 1.419 . S
C1085 C1080 1.425 . S
C1085 C1082 1.409 1_545 S
C1085 C1083 1.415 . S
C1086 H1076 0.930 . S
C1086 C1084 1.419 . S
C1086 C1087 1.362 . S
C1087 H1077 0.930 . S
C1087 C1080 1.409 . S
C1087 C1086 1.362 . S
H1088 C1094 0.930 . S
H1089 C1097 0.930 . S
H1090 C1098 0.930 . S
H1091 C1099 0.930 . S
H1092 C1102 0.930 . S
H1093 C1103 0.931 . S
C1094 H1088 0.930 . S
C1094 C1095 1.355 . S
C1094 C1096 1.415 . S
C1095 C1094 1.355 . S
C1095 C1097 1.419 . S
C1096 C1094 1.415 . S
C1096 C1101 1.425 . S
C1096 C1103 1.409 1_545 S
C1097 H1089 0.930 . S
C1097 C1095 1.419 . S
C1097 C1098 1.362 . S
C1098 H1090 0.930 . S
C1098 C1097 1.362 . S
C1098 C1101 1.409 . S
C1099 H1091 0.930 . S
C1099 C1100 1.355 . S
C1099 C1101 1.415 . S
C1100 C1099 1.355 . S
C1100 C1102 1.419 . S
C1101 C1096 1.425 . S
C1101 C1098 1.409 . S
C1101 C1099 1.415 . S
C1102 H1092 0.930 . S
C1102 C1100 1.419 . S
C1102 C1103 1.362 1_545 S
C1103 H1093 0.931 . S
C1103 C1096 1.409 1_565 S
C1103 C1102 1.362 1_565 S
H1104 C1110 0.930 . S
H1105 C1113 0.930 1_655 S
H1106 C1114 0.930 . S
H1107 C1115 0.935 . S
H1108 C1118 0.930 . S
H1109 C1119 0.930 . S
C1110 H1104 0.930 . S
C1110 C1111 1.355 . S
C1110 C1112 1.415 . S
C1111 C1110 1.355 . S
C1111 C1113 1.419 . S
C1112 C1110 1.415 . S
C1112 C1117 1.425 . S
C1112 C1119 1.409 . S
C1113 H1105 0.930 1_455 S
C1113 C1111 1.419 . S
C1113 C1114 1.362 1_455 S
C1114 H1106 0.930 . S
C1114 C1113 1.362 1_655 S
C1114 C1117 1.409 1_655 S
C1115 H1107 0.935 . S
C1115 C1116 1.352 1_655 S
C1115 C1117 1.412 1_655 S
C1116 C1115 1.352 1_455 S
C1116 C1118 1.419 . S
C1117 C1112 1.425 . S
C1117 C1114 1.409 1_455 S
C1117 C1115 1.412 1_455 S
C1118 H1108 0.930 . S
C1118 C1116 1.419 . S
C1118 C1119 1.362 . S
C1119 H1109 0.930 . S
C1119 C1112 1.409 . S
C1119 C1118 1.362 . S
H1120 C1126 0.930 . S
H1121 C1129 0.930 . S
H1122 C1130 0.930 . S
H1123 C1131 0.930 . S
H1124 C1134 0.930 . S
H1125 C1135 0.930 . S
C1126 H1120 0.930 . S
C1126 C1127 1.355 . S
C1126 C1128 1.415 . S
C1127 C1126 1.355 . S
C1127 C1129 1.419 . S
C1128 C1126 1.415 . S
C1128 C1133 1.425 . S
C1128 C1135 1.409 . S
C1129 H1121 0.930 . S
C1129 C1127 1.419 . S
C1129 C1130 1.362 . S
C1130 H1122 0.930 . S
C1130 C1129 1.362 . S
C1130 C1133 1.409 . S
C1131 H1123 0.930 . S
C1131 C1132 1.355 . S
C1131 C1133 1.415 . S
C1132 C1131 1.355 . S
C1132 C1134 1.419 . S
C1133 C1128 1.425 . S
C1133 C1130 1.409 . S
C1133 C1131 1.415 . S
C1134 H1124 0.930 . S
C1134 C1132 1.419 . S
C1134 C1135 1.362 . S
C1135 H1125 0.930 . S
C1135 C1128 1.409 . S
C1135 C1134 1.362 . S
H1136 C1142 0.930 1_655 S
H1137 C1145 0.930 . S
H1138 C1146 0.930 . S
H1139 C1147 0.930 . S
H1140 C1150 0.930 . S
H1141 C1151 0.930 . S
C1142 H1136 0.930 1_455 S
C1142 C1143 1.355 . S
C1142 C1144 1.415 . S
C1143 C1142 1.355 . S
C1143 C1145 1.419 . S
C1144 C1142 1.415 . S
C1144 C1149 1.425 . S
C1144 C1151 1.409 1_455 S
C1145 H1137 0.930 . S
C1145 C1143 1.419 . S
C1145 C1146 1.362 . S
C1146 H1138 0.930 . S
C1146 C1145 1.362 . S
C1146 C1149 1.409 . S
C1147 H1139 0.930 . S
C1147 C1148 1.355 . S
C1147 C1149 1.415 . S
C1148 C1147 1.355 . S
C1148 C1150 1.419 1_455 S
C1149 C1144 1.425 . S
C1149 C1146 1.409 . S
C1149 C1147 1.415 . S
C1150 H1140 0.930 . S
C1150 C1148 1.419 1_655 S
C1150 C1151 1.362 . S
C1151 H1141 0.930 . S
C1151 C1144 1.409 1_655 S
C1151 C1150 1.362 . S
H1152 C1158 0.930 . S
H1153 C1161 0.930 . S
H1154 C1162 0.930 . S
H1155 C1163 0.930 . S
H1156 C1166 0.930 . S
H1157 C1167 0.930 . S
C1158 H1152 0.930 . S
C1158 C1159 1.355 1_565 S
C1158 C1160 1.415 . S
C1159 C1158 1.355 1_545 S
C1159 C1161 1.419 . S
C1160 C1158 1.415 . S
C1160 C1165 1.425 1_565 S
C1160 C1167 1.409 . S
C1161 H1153 0.930 . S
C1161 C1159 1.419 . S
C1161 C1162 1.362 . S
C1162 H1154 0.930 . S
C1162 C1161 1.362 . S
C1162 C1165 1.409 . S
C1163 H1155 0.930 . S
C1163 C1164 1.355 . S
C1163 C1165 1.415 . S
C1164 C1163 1.355 . S
C1164 C1166 1.419 1_545 S
C1165 C1160 1.425 1_545 S
C1165 C1162 1.409 . S
C1165 C1163 1.415 . S
C1166 H1156 0.930 . S
C1166 C1164 1.419 1_565 S
C1166 C1167 1.362 . S
C1167 H1157 0.930 . S
C1167 C1160 1.409 . S
C1167 C1166 1.362 . S
H1168 C1174 0.938 . S
H1169 C1177 0.930 . S
H1170 C1178 0.930 . S
H1171 C1179 0.930 . S
H1172 C1182 0.930 . S
H1173 C1183 0.930 . S
C1174 H1168 0.938 . S
C1174 C1175 1.348 1_655 S
C1174 C1176 1.413 1_655 S
C1175 C1174 1.348 1_455 S
C1175 C1177 1.419 . S
C1176 C1174 1.413 1_455 S
C1176 C1181 1.425 . S
C1176 C1183 1.409 1_455 S
C1177 H1169 0.930 . S
C1177 C1175 1.419 . S
C1177 C1178 1.362 . S
C1178 H1170 0.930 . S
C1178 C1177 1.362 . S
C1178 C1181 1.409 . S
C1179 H1171 0.930 . S
C1179 C1180 1.355 . S
C1179 C1181 1.415 . S
C1180 C1179 1.355 . S
C1180 C1182 1.419 1_455 S
C1181 C1176 1.425 . S
C1181 C1178 1.409 . S
C1181 C1179 1.415 . S
C1182 H1172 0.930 . S
C1182 C1180 1.419 1_655 S
C1182 C1183 1.362 . S
C1183 H1173 0.930 . S
C1183 C1176 1.409 1_655 S
C1183 C1182 1.362 . S
H1184 C1190 0.930 . S
H1185 C1193 0.930 . S
H1186 C1194 0.930 . S
H1187 C1195 0.930 . S
H1188 C1198 0.930 . S
H1189 C1199 0.930 . S
C1190 H1184 0.930 . S
C1190 C1191 1.355 . S
C1190 C1192 1.415 . S
C1191 C1190 1.355 . S
C1191 C1193 1.419 . S
C1192 C1190 1.415 . S
C1192 C1197 1.425 . S
C1192 C1199 1.409 . S
C1193 H1185 0.930 . S
C1193 C1191 1.419 . S
C1193 C1194 1.362 . S
C1194 H1186 0.930 . S
C1194 C1193 1.362 . S
C1194 C1197 1.409 . S
C1195 H1187 0.930 . S
C1195 C1196 1.355 . S
C1195 C1197 1.415 . S
C1196 C1195 1.355 . S
C1196 C1198 1.419 . S
C1197 C1192 1.425 . S
C1197 C1194 1.409 . S
C1197 C1195 1.415 . S
C1198 H1188 0.930 . S
C1198 C1196 1.419 . S
C1198 C1199 1.362 . S
C1199 H1189 0.930 . S
C1199 C1192 1.409 . S
C1199 C1198 1.362 . S
H1200 C1206 0.930 . S
H1201 C1209 0.930 . S
H1202 C1210 0.930 . S
H1203 C1211 0.930 . S
H1204 C1214 0.930 . S
H1205 C1215 0.930 . S
C1206 H1200 0.930 . S
C1206 C1207 1.355 1_655 S
C1206 C1208 1.415 . S
C1207 C1206 1.355 1_455 S
C1207 C1209 1.419 . S
C1208 C1206 1.415 . S
C1208 C1213 1.425 1_655 S
C1208 C1215 1.409 . S
C1209 H1201 0.930 . S
C1209 C1207 1.419 . S
C1209 C1210 1.362 . S
C1210 H1202 0.930 . S
C1210 C1209 1.362 . S
C1210 C1213 1.409 . S
C1211 H1203 0.930 . S
C1211 C1212 1.355 . S
C1211 C1213 1.415 . S
C1212 C1211 1.355 . S
C1212 C1214 1.419 1_455 S
C1213 C1208 1.425 1_455 S
C1213 C1210 1.409 . S
C1213 C1211 1.415 . S
C1214 H1204 0.930 . S
C1214 C1212 1.419 1_655 S
C1214 C1215 1.362 . S
C1215 H1205 0.930 . S
C1215 C1208 1.409 . S
C1215 C1214 1.362 . S
H1216 C1222 0.930 . S
H1217 C1225 0.930 . S
H1218 C1226 0.930 . S
H1219 C1227 0.930 . S
H1220 C1230 0.930 . S
H1221 C1231 0.930 . S
C1222 H1216 0.930 . S
C1222 C1223 1.355 . S
C1222 C1224 1.415 . S
C1223 C1222 1.355 . S
C1223 C1225 1.419 1_554 S
C1224 C1222 1.415 . S
C1224 C1229 1.425 1_554 S
C1224 C1231 1.409 . S
C1225 H1217 0.930 . S
C1225 C1223 1.419 1_556 S
C1225 C1226 1.362 . S
C1226 H1218 0.930 . S
C1226 C1225 1.362 . S
C1226 C1229 1.409 . S
C1227 H1219 0.930 . S
C1227 C1228 1.355 1_556 S
C1227 C1229 1.415 . S
C1228 C1227 1.355 1_554 S
C1228 C1230 1.419 . S
C1229 C1224 1.425 1_556 S
C1229 C1226 1.409 . S
C1229 C1227 1.415 . S
C1230 H1220 0.930 . S
C1230 C1228 1.419 . S
C1230 C1231 1.362 . S
C1231 H1221 0.930 . S
C1231 C1224 1.409 . S
C1231 C1230 1.362 . S
H1232 C1238 0.930 . S
H1233 C1241 0.930 . S
H1234 C1242 0.930 . S
H1235 C1243 0.930 . S
H1236 C1246 0.930 . S
H1237 C1247 0.930 . S
C1238 H1232 0.930 . S
C1238 C1239 1.355 . S
C1238 C1240 1.415 . S
C1239 C1238 1.355 . S
C1239 C1241 1.419 . S
C1240 C1238 1.415 . S
C1240 C1245 1.425 . S
C1240 C1247 1.409 . S
C1241 H1233 0.930 . S
C1241 C1239 1.419 . S
C1241 C1242 1.362 . S
C1242 H1234 0.930 . S
C1242 C1241 1.362 . S
C1242 C1245 1.409 . S
C1243 H1235 0.930 . S
C1243 C1244 1.355 . S
C1243 C1245 1.415 . S
C1244 C1243 1.355 . S
C1244 C1246 1.419 . S
C1245 C1240 1.425 . S
C1245 C1242 1.409 . S
C1245 C1243 1.415 . S
C1246 H1236 0.930 . S
C1246 C1244 1.419 . S
C1246 C1247 1.362 . S
C1247 H1237 0.930 . S
C1247 C1240 1.409 . S
C1247 C1246 1.362 . S
H1248 C1254 0.930 . S
H1249 C1257 0.930 . S
H1250 C1258 0.930 . S
H1251 C1259 0.930 . S
H1252 C1262 0.930 . S
H1253 C1263 0.930 . S
C1254 H1248 0.930 . S
C1254 C1255 1.355 1_556 S
C1254 C1256 1.411 1_556 S
C1255 C1254 1.355 1_554 S
C1255 C1257 1.419 . S
C1256 C1254 1.411 1_554 S
C1256 C1261 1.451 . S
C1256 C1263 1.388 1_554 S
C1257 H1249 0.930 . S
C1257 C1255 1.419 . S
C1257 C1258 1.362 . S
C1258 H1250 0.930 . S
C1258 C1257 1.362 . S
C1258 C1261 1.409 . S
C1259 H1251 0.930 . S
C1259 C1260 1.355 . S
C1259 C1261 1.415 . S
C1260 C1259 1.355 . S
C1260 C1262 1.419 1_554 S
C1261 C1256 1.451 . S
C1261 C1258 1.409 . S
C1261 C1259 1.415 . S
C1262 H1252 0.930 . S
C1262 C1260 1.419 1_556 S
C1262 C1263 1.362 . S
C1263 H1253 0.930 . S
C1263 C1256 1.388 1_556 S
C1263 C1262 1.362 . S
H1264 C1270 0.933 . S
H1265 C1273 0.930 . S
H1266 C1274 0.930 . S
H1267 C1275 0.930 . S
H1268 C1278 0.930 . S
H1269 C1279 0.930 . S
C1270 H1264 0.933 . S
C1270 C1271 1.354 . S
C1270 C1272 1.413 1_554 S
C1271 C1270 1.354 . S
C1271 C1273 1.419 1_554 S
C1272 C1270 1.413 1_556 S
C1272 C1277 1.425 . S
C1272 C1279 1.409 . S
C1273 H1265 0.930 . S
C1273 C1271 1.419 1_556 S
C1273 C1274 1.362 . S
C1274 H1266 0.930 . S
C1274 C1273 1.362 . S
C1274 C1277 1.409 . S
C1275 H1267 0.930 . S
C1275 C1276 1.355 . S
C1275 C1277 1.415 . S
C1276 C1275 1.355 . S
C1276 C1278 1.419 . S
C1277 C1272 1.425 . S
C1277 C1274 1.409 . S
C1277 C1275 1.415 . S
C1278 H1268 0.930 . S
C1278 C1276 1.419 . S
C1278 C1279 1.362 . S
C1279 H1269 0.930 . S
C1279 C1272 1.409 . S
C1279 C1278 1.362 . S
H1280 C1286 0.930 . S
H1281 C1289 0.930 . S
H1282 C1290 0.930 . S
H1283 C1291 0.930 . S
H1284 C1294 0.930 . S
H1285 C1295 0.930 . S
C1286 H1280 0.930 . S
C1286 C1287 1.355 . S
C1286 C1288 1.415 . S
C1287 C1286 1.355 . S
C1287 C1289 1.419 . S
C1288 C1286 1.415 . S
C1288 C1293 1.425 . S
C1288 C1295 1.409 . S
C1289 H1281 0.930 . S
C1289 C1287 1.419 . S
C1289 C1290 1.362 . S
C1290 H1282 0.930 . S
C1290 C1289 1.362 . S
C1290 C1293 1.409 . S
C1291 H1283 0.930 . S
C1291 C1292 1.355 . S
C1291 C1293 1.415 . S
C1292 C1291 1.355 . S
C1292 C1294 1.419 . S
C1293 C1288 1.425 . S
C1293 C1290 1.409 . S
C1293 C1291 1.415 . S
C1294 H1284 0.930 . S
C1294 C1292 1.419 . S
C1294 C1295 1.362 . S
C1295 H1285 0.930 . S
C1295 C1288 1.409 . S
C1295 C1294 1.362 . S
H1296 C1302 0.930 . S
H1297 C1305 0.930 . S
H1298 C1306 0.930 . S
H1299 C1307 0.930 . S
H1300 C1310 0.930 . S
H1301 C1311 0.930 . S
C1302 H1296 0.930 . S
C1302 C1303 1.355 1_556 S
C1302 C1304 1.415 . S
C1303 C1302 1.355 1_554 S
C1303 C1305 1.419 . S
C1304 C1302 1.415 . S
C1304 C1309 1.425 1_556 S
C1304 C1311 1.409 . S
C1305 H1297 0.930 . S
C1305 C1303 1.419 . S
C1305 C1306 1.362 . S
C1306 H1298 0.930 . S
C1306 C1305 1.362 . S
C1306 C1309 1.409 . S
C1307 H1299 0.930 . S
C1307 C1308 1.355 1_554 S
C1307 C1309 1.415 . S
C1308 C1307 1.355 1_556 S
C1308 C1310 1.419 . S
C1309 C1304 1.425 1_554 S
C1309 C1306 1.409 . S
C1309 C1307 1.415 . S
C1310 H1300 0.930 . S
C1310 C1308 1.419 . S
C1310 C1311 1.362 . S
C1311 H1301 0.930 . S
C1311 C1304 1.409 . S
C1311 C1310 1.362 . S
H1312 C1318 0.930 . S
H1313 C1321 0.930 . S
H1314 C1322 0.930 . S
H1315 C1323 0.930 1_556 S
H1316 C1326 0.930 . S
H1317 C1327 0.930 . S
C1318 H1312 0.930 . S
C1318 C1319 1.355 . S
C1318 C1320 1.415 . S
C1319 C1318 1.355 . S
C1319 C1321 1.419 1_554 S
C1320 C1318 1.415 . S
C1320 C1325 1.425 . S
C1320 C1327 1.409 . S
C1321 H1313 0.930 . S
C1321 C1319 1.419 1_556 S
C1321 C1322 1.362 . S
C1322 H1314 0.930 . S
C1322 C1321 1.362 . S
C1322 C1325 1.409 1_556 S
C1323 H1315 0.930 1_554 S
C1323 C1324 1.355 . S
C1323 C1325 1.415 . S
C1324 C1323 1.355 . S
C1324 C1326 1.419 . S
C1325 C1320 1.425 . S
C1325 C1322 1.409 1_554 S
C1325 C1323 1.415 . S
C1326 H1316 0.930 . S
C1326 C1324 1.419 . S
C1326 C1327 1.362 . S
C1327 H1317 0.930 . S
C1327 C1320 1.409 . S
C1327 C1326 1.362 . S
H1328 C1334 0.930 . S
H1329 C1337 0.930 . S
H1330 C1338 0.930 . S
H1331 C1339 0.930 . S
H1332 C1342 0.930 . S
H1333 C1343 0.930 . S
C1334 H1328 0.930 . S
C1334 C1335 1.355 1_556 S
C1334 C1336 1.415 . S
C1335 C1334 1.355 1_554 S
C1335 C1337 1.419 . S
C1336 C1334 1.415 . S
C1336 C1341 1.425 1_556 S
C1336 C1343 1.409 . S
C1337 H1329 0.930 . S
C1337 C1335 1.419 . S
C1337 C1338 1.362 . S
C1338 H1330 0.930 . S
C1338 C1337 1.362 . S
C1338 C1341 1.409 . S
C1339 H1331 0.930 . S
C1339 C1340 1.355 . S
C1339 C1341 1.415 . S
C1340 C1339 1.355 . S
C1340 C1342 1.419 1_554 S
C1341 C1336 1.425 1_554 S
C1341 C1338 1.409 . S
C1341 C1339 1.415 . S
C1342 H1332 0.930 . S
C1342 C1340 1.419 1_556 S
C1342 C1343 1.362 . S
C1343 H1333 0.930 . S
C1343 C1336 1.409 . S
C1343 C1342 1.362 . S
H1344 C1350 0.930 . S
H1345 C1353 0.930 . S
H1346 C1354 0.930 . S
H1347 C1355 0.930 . S
H1348 C1358 0.930 . S
H1349 C1359 0.930 . S
C1350 H1344 0.930 . S
C1350 C1351 1.355 . S
C1350 C1352 1.415 . S
C1351 C1350 1.355 . S
C1351 C1353 1.419 . S
C1352 C1350 1.415 . S
C1352 C1357 1.425 . S
C1352 C1359 1.409 . S
C1353 H1345 0.930 . S
C1353 C1351 1.419 . S
C1353 C1354 1.362 . S
C1354 H1346 0.930 . S
C1354 C1353 1.362 . S
C1354 C1357 1.409 . S
C1355 H1347 0.930 . S
C1355 C1356 1.355 . S
C1355 C1357 1.415 . S
C1356 C1355 1.355 . S
C1356 C1358 1.419 . S
C1357 C1352 1.425 . S
C1357 C1354 1.409 . S
C1357 C1355 1.415 . S
C1358 H1348 0.930 . S
C1358 C1356 1.419 . S
C1358 C1359 1.362 . S
C1359 H1349 0.930 . S
C1359 C1352 1.409 . S
C1359 C1358 1.362 . S
H1360 C1366 0.930 . S
H1361 C1369 0.930 . S
H1362 C1370 0.930 . S
H1363 C1371 0.930 . S
H1364 C1374 0.930 . S
H1365 C1375 0.930 . S
C1366 H1360 0.930 . S
C1366 C1367 1.355 . S
C1366 C1368 1.415 . S
C1367 C1366 1.355 . S
C1367 C1369 1.419 . S
C1368 C1366 1.415 . S
C1368 C1373 1.425 . S
C1368 C1375 1.409 . S
C1369 H1361 0.930 . S
C1369 C1367 1.419 . S
C1369 C1370 1.362 . S
C1370 H1362 0.930 . S
C1370 C1369 1.362 . S
C1370 C1373 1.409 . S
C1371 H1363 0.930 . S
C1371 C1372 1.355 . S
C1371 C1373 1.415 . S
C1372 C1371 1.355 . S
C1372 C1374 1.419 . S
C1373 C1368 1.425 . S
C1373 C1370 1.409 . S
C1373 C1371 1.415 . S
C1374 H1364 0.930 . S
C1374 C1372 1.419 . S
C1374 C1375 1.362 . S
C1375 H1365 0.930 . S
C1375 C1368 1.409 . S
C1375 C1374 1.362 . S
H1376 C1382 0.930 . S
H1377 C1385 0.930 . S
H1378 C1386 0.930 . S
H1379 C1387 0.930 . S
H1380 C1390 0.930 . S
H1381 C1391 0.930 . S
C1382 H1376 0.930 . S
C1382 C1383 1.355 . S
C1382 C1384 1.415 . S
C1383 C1382 1.355 . S
C1383 C1385 1.419 . S
C1384 C1382 1.415 . S
C1384 C1389 1.425 . S
C1384 C1391 1.409 . S
C1385 H1377 0.930 . S
C1385 C1383 1.419 . S
C1385 C1386 1.362 . S
C1386 H1378 0.930 . S
C1386 C1385 1.362 . S
C1386 C1389 1.409 . S
C1387 H1379 0.930 . S
C1387 C1388 1.355 . S
C1387 C1389 1.415 . S
C1388 C1387 1.355 . S
C1388 C1390 1.419 . S
C1389 C1384 1.425 . S
C1389 C1386 1.409 . S
C1389 C1387 1.415 . S
C1390 H1380 0.930 . S
C1390 C1388 1.419 . S
C1390 C1391 1.362 . S
C1391 H1381 0.930 . S
C1391 C1384 1.409 . S
C1391 C1390 1.362 . S
H1392 C1398 0.930 . S
H1393 C1401 0.930 . S
H1394 C1402 0.930 . S
H1395 C1403 0.930 . S
H1396 C1406 0.930 . S
H1397 C1407 0.930 . S
C1398 H1392 0.930 . S
C1398 C1399 1.355 . S
C1398 C1400 1.415 . S
C1399 C1398 1.355 . S
C1399 C1401 1.419 . S
C1400 C1398 1.415 . S
C1400 C1405 1.425 . S
C1400 C1407 1.409 . S
C1401 H1393 0.930 . S
C1401 C1399 1.419 . S
C1401 C1402 1.362 . S
C1402 H1394 0.930 . S
C1402 C1401 1.362 . S
C1402 C1405 1.409 . S
C1403 H1395 0.930 . S
C1403 C1404 1.355 . S
C1403 C1405 1.415 . S
C1404 C1403 1.355 . S
C1404 C1406 1.419 . S
C1405 C1400 1.425 . S
C1405 C1402 1.409 . S
C1405 C1403 1.415 . S
C1406 H1396 0.930 . S
C1406 C1404 1.419 . S
C1406 C1407 1.362 . S
C1407 H1397 0.930 . S
C1407 C1400 1.409 . S
C1407 C1406 1.362 . S
H1408 C1414 0.930 . S
H1409 C1417 0.930 . S
H1410 C1418 0.930 . S
H1411 C1419 0.930 . S
H1412 C1422 0.930 . S
H1413 C1423 0.930 . S
C1414 H1408 0.930 . S
C1414 C1415 1.355 . S
C1414 C1416 1.415 . S
C1415 C1414 1.355 . S
C1415 C1417 1.419 . S
C1416 C1414 1.415 . S
C1416 C1421 1.425 . S
C1416 C1423 1.409 . S
C1417 H1409 0.930 . S
C1417 C1415 1.419 . S
C1417 C1418 1.362 . S
C1418 H1410 0.930 . S
C1418 C1417 1.362 . S
C1418 C1421 1.409 . S
C1419 H1411 0.930 . S
C1419 C1420 1.355 . S
C1419 C1421 1.415 . S
C1420 C1419 1.355 . S
C1420 C1422 1.419 . S
C1421 C1416 1.425 . S
C1421 C1418 1.409 . S
C1421 C1419 1.415 . S
C1422 H1412 0.930 . S
C1422 C1420 1.419 . S
C1422 C1423 1.362 . S
C1423 H1413 0.930 . S
C1423 C1416 1.409 . S
C1423 C1422 1.362 . S
H1424 C1430 0.930 . S
H1425 C1433 0.930 . S
H1426 C1434 0.930 . S
H1427 C1435 0.930 . S
H1428 C1438 0.930 . S
H1429 C1439 0.930 . S
C1430 H1424 0.930 . S
C1430 C1431 1.355 . S
C1430 C1432 1.415 . S
C1431 C1430 1.355 . S
C1431 C1433 1.419 . S
C1432 C1430 1.415 . S
C1432 C1437 1.425 . S
C1432 C1439 1.409 . S
C1433 H1425 0.930 . S
C1433 C1431 1.419 . S
C1433 C1434 1.362 . S
C1434 H1426 0.930 . S
C1434 C1433 1.362 . S
C1434 C1437 1.409 . S
C1435 H1427 0.930 . S
C1435 C1436 1.355 . S
C1435 C1437 1.415 . S
C1436 C1435 1.355 . S
C1436 C1438 1.419 . S
C1437 C1432 1.425 . S
C1437 C1434 1.409 . S
C1437 C1435 1.415 . S
C1438 H1428 0.930 . S
C1438 C1436 1.419 . S
C1438 C1439 1.362 . S
C1439 H1429 0.930 . S
C1439 C1432 1.409 . S
C1439 C1438 1.362 . S
H1440 C1446 0.930 . S
H1441 C1449 0.930 . S
H1442 C1450 0.930 . S
H1443 C1451 0.930 . S
H1444 C1454 0.930 . S
H1445 C1455 0.930 . S
C1446 H1440 0.930 . S
C1446 C1447 1.355 . S
C1446 C1448 1.415 . S
C1447 C1446 1.355 . S
C1447 C1449 1.419 . S
C1448 C1446 1.415 . S
C1448 C1453 1.425 . S
C1448 C1455 1.409 . S
C1449 H1441 0.930 . S
C1449 C1447 1.419 . S
C1449 C1450 1.362 . S
C1450 H1442 0.930 . S
C1450 C1449 1.362 . S
C1450 C1453 1.409 . S
C1451 H1443 0.930 . S
C1451 C1452 1.355 . S
C1451 C1453 1.415 . S
C1452 C1451 1.355 . S
C1452 C1454 1.419 . S
C1453 C1448 1.425 . S
C1453 C1450 1.409 . S
C1453 C1451 1.415 . S
C1454 H1444 0.930 . S
C1454 C1452 1.419 . S
C1454 C1455 1.362 . S
C1455 H1445 0.930 . S
C1455 C1448 1.409 . S
C1455 C1454 1.362 . S
H1456 C1462 0.930 . S
H1457 C1465 0.930 . S
H1458 C1466 0.930 . S
H1459 C1467 0.930 . S
H1460 C1470 0.930 . S
H1461 C1471 0.930 . S
C1462 H1456 0.930 . S
C1462 C1463 1.355 . S
C1462 C1464 1.415 . S
C1463 C1462 1.355 . S
C1463 C1465 1.419 . S
C1464 C1462 1.415 . S
C1464 C1469 1.425 . S
C1464 C1471 1.409 . S
C1465 H1457 0.930 . S
C1465 C1463 1.419 . S
C1465 C1466 1.362 . S
C1466 H1458 0.930 . S
C1466 C1465 1.362 . S
C1466 C1469 1.409 . S
C1467 H1459 0.930 . S
C1467 C1468 1.355 . S
C1467 C1469 1.415 . S
C1468 C1467 1.355 . S
C1468 C1470 1.419 . S
C1469 C1464 1.425 . S
C1469 C1466 1.409 . S
C1469 C1467 1.415 . S
C1470 H1460 0.930 . S
C1470 C1468 1.419 . S
C1470 C1471 1.362 . S
C1471 H1461 0.930 . S
C1471 C1464 1.409 . S
C1471 C1470 1.362 . S
H1472 C1478 0.930 . S
H1473 C1481 0.930 . S
H1474 C1482 0.930 . S
H1475 C1483 0.930 . S
H1476 C1486 0.930 . S
H1477 C1487 0.930 . S
C1478 H1472 0.930 . S
C1478 C1479 1.355 . S
C1478 C1480 1.415 . S
C1479 C1478 1.355 . S
C1479 C1481 1.419 . S
C1480 C1478 1.415 . S
C1480 C1485 1.425 . S
C1480 C1487 1.409 . S
C1481 H1473 0.930 . S
C1481 C1479 1.419 . S
C1481 C1482 1.362 . S
C1482 H1474 0.930 . S
C1482 C1481 1.362 . S
C1482 C1485 1.409 . S
C1483 H1475 0.930 . S
C1483 C1484 1.355 . S
C1483 C1485 1.415 . S
C1484 C1483 1.355 . S
C1484 C1486 1.419 . S
C1485 C1480 1.425 . S
C1485 C1482 1.409 . S
C1485 C1483 1.415 . S
C1486 H1476 0.930 . S
C1486 C1484 1.419 . S
C1486 C1487 1.362 . S
C1487 H1477 0.930 . S
C1487 C1480 1.409 . S
C1487 C1486 1.362 . S
H1488 C1494 0.930 . S
H1489 C1497 0.930 . S
H1490 C1498 0.930 . S
H1491 C1499 0.930 . S
H1492 C1502 0.930 . S
H1493 C1503 0.930 . S
C1494 H1488 0.930 . S
C1494 C1495 1.355 . S
C1494 C1496 1.415 . S
C1495 C1494 1.355 . S
C1495 C1497 1.419 . S
C1496 C1494 1.415 . S
C1496 C1501 1.425 . S
C1496 C1503 1.409 . S
C1497 H1489 0.930 . S
C1497 C1495 1.419 . S
C1497 C1498 1.362 . S
C1498 H1490 0.930 . S
C1498 C1497 1.362 . S
C1498 C1501 1.409 . S
C1499 H1491 0.930 . S
C1499 C1500 1.355 . S
C1499 C1501 1.415 . S
C1500 C1499 1.355 . S
C1500 C1502 1.419 . S
C1501 C1496 1.425 . S
C1501 C1498 1.409 . S
C1501 C1499 1.415 . S
C1502 H1492 0.930 . S
C1502 C1500 1.419 . S
C1502 C1503 1.362 . S
C1503 H1493 0.930 . S
C1503 C1496 1.409 . S
C1503 C1502 1.362 . S
H1504 C1510 0.930 . S
H1505 C1513 0.930 . S
H1506 C1514 0.930 . S
H1507 C1515 0.930 . S
H1508 C1518 0.930 . S
H1509 C1519 0.930 . S
C1510 H1504 0.930 . S
C1510 C1511 1.355 . S
C1510 C1512 1.415 . S
C1511 C1510 1.355 . S
C1511 C1513 1.419 . S
C1512 C1510 1.415 . S
C1512 C1517 1.425 . S
C1512 C1519 1.409 . S
C1513 H1505 0.930 . S
C1513 C1511 1.419 . S
C1513 C1514 1.362 . S
C1514 H1506 0.930 . S
C1514 C1513 1.362 . S
C1514 C1517 1.409 . S
C1515 H1507 0.930 . S
C1515 C1516 1.355 . S
C1515 C1517 1.415 . S
C1516 C1515 1.355 . S
C1516 C1518 1.419 . S
C1517 C1512 1.425 . S
C1517 C1514 1.409 . S
C1517 C1515 1.415 . S
C1518 H1508 0.930 . S
C1518 C1516 1.419 . S
C1518 C1519 1.362 . S
C1519 H1509 0.930 . S
C1519 C1512 1.409 . S
C1519 C1518 1.362 . S
H1520 C1526 0.930 . S
H1521 C1529 0.930 . S
H1522 C1530 0.930 . S
H1523 C1531 0.930 . S
H1524 C1534 0.930 . S
H1525 C1535 0.930 . S
C1526 H1520 0.930 . S
C1526 C1527 1.355 . S
C1526 C1528 1.415 . S
C1527 C1526 1.355 . S
C1527 C1529 1.419 . S
C1528 C1526 1.415 . S
C1528 C1533 1.425 . S
C1528 C1535 1.409 . S
C1529 H1521 0.930 . S
C1529 C1527 1.419 . S
C1529 C1530 1.362 . S
C1530 H1522 0.930 . S
C1530 C1529 1.362 . S
C1530 C1533 1.409 . S
C1531 H1523 0.930 . S
C1531 C1532 1.355 . S
C1531 C1533 1.415 . S
C1532 C1531 1.355 . S
C1532 C1534 1.419 . S
C1533 C1528 1.425 . S
C1533 C1530 1.409 . S
C1533 C1531 1.415 . S
C1534 H1524 0.930 . S
C1534 C1532 1.419 . S
C1534 C1535 1.362 . S
C1535 H1525 0.930 . S
C1535 C1528 1.409 . S
C1535 C1534 1.362 . S
H1536 C1542 0.930 . S
H1537 C1545 0.930 . S
H1538 C1546 0.930 . S
H1539 C1547 0.930 . S
H1540 C1550 0.930 . S
H1541 C1551 0.930 . S
C1542 H1536 0.930 . S
C1542 C1543 1.355 . S
C1542 C1544 1.415 . S
C1543 C1542 1.355 . S
C1543 C1545 1.419 . S
C1544 C1542 1.415 . S
C1544 C1549 1.425 . S
C1544 C1551 1.409 . S
C1545 H1537 0.930 . S
C1545 C1543 1.419 . S
C1545 C1546 1.362 . S
C1546 H1538 0.930 . S
C1546 C1545 1.362 . S
C1546 C1549 1.409 . S
C1547 H1539 0.930 . S
C1547 C1548 1.355 . S
C1547 C1549 1.415 . S
C1548 C1547 1.355 . S
C1548 C1550 1.419 . S
C1549 C1544 1.425 . S
C1549 C1546 1.409 . S
C1549 C1547 1.415 . S
C1550 H1540 0.930 . S
C1550 C1548 1.419 . S
C1550 C1551 1.362 . S
C1551 H1541 0.930 . S
C1551 C1544 1.409 . S
C1551 C1550 1.362 . S
H1552 C1558 0.930 . S
H1553 C1561 0.930 . S
H1554 C1562 0.930 . S
H1555 C1563 0.930 . S
H1556 C1566 0.930 . S
H1557 C1567 0.930 . S
C1558 H1552 0.930 . S
C1558 C1559 1.355 . S
C1558 C1560 1.415 . S
C1559 C1558 1.355 . S
C1559 C1561 1.419 . S
C1560 C1558 1.415 . S
C1560 C1565 1.425 . S
C1560 C1567 1.409 . S
C1561 H1553 0.930 . S
C1561 C1559 1.419 . S
C1561 C1562 1.362 . S
C1562 H1554 0.930 . S
C1562 C1561 1.362 . S
C1562 C1565 1.409 . S
C1563 H1555 0.930 . S
C1563 C1564 1.355 . S
C1563 C1565 1.415 . S
C1564 C1563 1.355 . S
C1564 C1566 1.419 . S
C1565 C1560 1.425 . S
C1565 C1562 1.409 . S
C1565 C1563 1.415 . S
C1566 H1556 0.930 . S
C1566 C1564 1.419 . S
C1566 C1567 1.362 . S
C1567 H1557 0.930 . S
C1567 C1560 1.409 . S
C1567 C1566 1.362 . S
H1568 C1574 0.930 . S
H1569 C1577 0.930 . S
H1570 C1578 0.930 . S
H1571 C1579 0.930 . S
H1572 C1582 0.930 . S
H1573 C1583 0.930 . S
C1574 H1568 0.930 . S
C1574 C1575 1.355 . S
C1574 C1576 1.415 . S
C1575 C1574 1.355 . S
C1575 C1577 1.419 . S
C1576 C1574 1.415 . S
C1576 C1581 1.425 . S
C1576 C1583 1.409 . S
C1577 H1569 0.930 . S
C1577 C1575 1.419 . S
C1577 C1578 1.362 . S
C1578 H1570 0.930 . S
C1578 C1577 1.362 . S
C1578 C1581 1.409 . S
C1579 H1571 0.930 . S
C1579 C1580 1.355 . S
C1579 C1581 1.415 . S
C1580 C1579 1.355 . S
C1580 C1582 1.419 . S
C1581 C1576 1.425 . S
C1581 C1578 1.409 . S
C1581 C1579 1.415 . S
C1582 H1572 0.930 . S
C1582 C1580 1.419 . S
C1582 C1583 1.362 . S
C1583 H1573 0.930 . S
C1583 C1576 1.409 . S
C1583 C1582 1.362 . S
H1584 C1590 0.930 . S
H1585 C1593 0.930 . S
H1586 C1594 0.930 . S
H1587 C1595 0.930 . S
H1588 C1598 0.930 . S
H1589 C1599 0.930 . S
C1590 H1584 0.930 . S
C1590 C1591 1.355 . S
C1590 C1592 1.415 . S
C1591 C1590 1.355 . S
C1591 C1593 1.419 . S
C1592 C1590 1.415 . S
C1592 C1597 1.425 . S
C1592 C1599 1.409 . S
C1593 H1585 0.930 . S
C1593 C1591 1.419 . S
C1593 C1594 1.362 . S
C1594 H1586 0.930 . S
C1594 C1593 1.362 . S
C1594 C1597 1.409 . S
C1595 H1587 0.930 . S
C1595 C1596 1.355 . S
C1595 C1597 1.415 . S
C1596 C1595 1.355 . S
C1596 C1598 1.419 . S
C1597 C1592 1.425 . S
C1597 C1594 1.409 . S
C1597 C1595 1.415 . S
C1598 H1588 0.930 . S
C1598 C1596 1.419 . S
C1598 C1599 1.362 . S
C1599 H1589 0.930 . S
C1599 C1592 1.409 . S
C1599 C1598 1.362 . S
H1600 C1606 0.930 . S
H1601 C1609 0.930 . S
H1602 C1610 0.930 . S
H1603 C1611 0.930 . S
H1604 C1614 0.930 . S
H1605 C1615 0.930 . S
C1606 H1600 0.930 . S
C1606 C1607 1.355 . S
C1606 C1608 1.415 . S
C1607 C1606 1.355 . S
C1607 C1609 1.419 . S
C1608 C1606 1.415 . S
C1608 C1613 1.425 . S
C1608 C1615 1.409 . S
C1609 H1601 0.930 . S
C1609 C1607 1.419 . S
C1609 C1610 1.362 . S
C1610 H1602 0.930 . S
C1610 C1609 1.362 . S
C1610 C1613 1.409 . S
C1611 H1603 0.930 . S
C1611 C1612 1.355 . S
C1611 C1613 1.415 . S
C1612 C1611 1.355 . S
C1612 C1614 1.419 . S
C1613 C1608 1.425 . S
C1613 C1610 1.409 . S
C1613 C1611 1.415 . S
C1614 H1604 0.930 . S
C1614 C1612 1.419 . S
C1614 C1615 1.362 . S
C1615 H1605 0.930 . S
C1615 C1608 1.409 . S
C1615 C1614 1.362 . S
H1616 C1622 0.930 . S
H1617 C1625 0.930 . S
H1618 C1626 0.930 . S
H1619 C1627 0.930 . S
H1620 C1630 0.930 . S
H1621 C1631 0.930 . S
C1622 H1616 0.930 . S
C1622 C1623 1.355 . S
C1622 C1624 1.415 . S
C1623 C1622 1.355 . S
C1623 C1625 1.419 . S
C1624 C1622 1.415 . S
C1624 C1629 1.425 . S
C1624 C1631 1.409 . S
C1625 H1617 0.930 . S
C1625 C1623 1.419 . S
C1625 C1626 1.362 . S
C1626 H1618 0.930 . S
C1626 C1625 1.362 . S
C1626 C1629 1.409 . S
C1627 H1619 0.930 . S
C1627 C1628 1.355 . S
C1627 C1629 1.415 . S
C1628 C1627 1.355 . S
C1628 C1630 1.419 . S
C1629 C1624 1.425 . S
C1629 C1626 1.409 . S
C1629 C1627 1.415 . S
C1630 H1620 0.930 . S
C1630 C1628 1.419 . S
C1630 C1631 1.362 . S
C1631 H1621 0.930 . S
C1631 C1624 1.409 . S
C1631 C1630 1.362 . S
H1632 C1638 0.930 . S
H1633 C1641 0.930 . S
H1634 C1642 0.930 . S
H1635 C1643 0.930 . S
H1636 C1646 0.930 . S
H1637 C1647 0.930 . S
C1638 H1632 0.930 . S
C1638 C1639 1.355 . S
C1638 C1640 1.415 . S
C1639 C1638 1.355 . S
C1639 C1641 1.419 . S
C1640 C1638 1.415 . S
C1640 C1645 1.425 . S
C1640 C1647 1.409 . S
C1641 H1633 0.930 . S
C1641 C1639 1.419 . S
C1641 C1642 1.362 . S
C1642 H1634 0.930 . S
C1642 C1641 1.362 . S
C1642 C1645 1.409 . S
C1643 H1635 0.930 . S
C1643 C1644 1.355 . S
C1643 C1645 1.415 . S
C1644 C1643 1.355 . S
C1644 C1646 1.419 . S
C1645 C1640 1.425 . S
C1645 C1642 1.409 . S
C1645 C1643 1.415 . S
C1646 H1636 0.930 . S
C1646 C1644 1.419 . S
C1646 C1647 1.362 . S
C1647 H1637 0.930 . S
C1647 C1640 1.409 . S
C1647 C1646 1.362 . S
H1648 C1654 0.930 . S
H1649 C1657 0.930 . S
H1650 C1658 0.930 . S
H1651 C1659 0.930 . S
H1652 C1662 0.930 . S
H1653 C1663 0.930 . S
C1654 H1648 0.930 . S
C1654 C1655 1.355 . S
C1654 C1656 1.415 . S
C1655 C1654 1.355 . S
C1655 C1657 1.419 . S
C1656 C1654 1.415 . S
C1656 C1661 1.425 . S
C1656 C1663 1.409 . S
C1657 H1649 0.930 . S
C1657 C1655 1.419 . S
C1657 C1658 1.362 . S
C1658 H1650 0.930 . S
C1658 C1657 1.362 . S
C1658 C1661 1.409 . S
C1659 H1651 0.930 . S
C1659 C1660 1.355 . S
C1659 C1661 1.415 . S
C1660 C1659 1.355 . S
C1660 C1662 1.419 . S
C1661 C1656 1.425 . S
C1661 C1658 1.409 . S
C1661 C1659 1.415 . S
C1662 H1652 0.930 . S
C1662 C1660 1.419 . S
C1662 C1663 1.362 . S
C1663 H1653 0.930 . S
C1663 C1656 1.409 . S
C1663 C1662 1.362 . S
H1664 C1670 0.930 . S
H1665 C1673 0.930 . S
H1666 C1674 0.930 . S
H1667 C1675 0.930 . S
H1668 C1678 0.930 . S
H1669 C1679 0.930 . S
C1670 H1664 0.930 . S
C1670 C1671 1.355 . S
C1670 C1672 1.415 . S
C1671 C1670 1.355 . S
C1671 C1673 1.419 . S
C1672 C1670 1.415 . S
C1672 C1677 1.425 . S
C1672 C1679 1.409 . S
C1673 H1665 0.930 . S
C1673 C1671 1.419 . S
C1673 C1674 1.362 . S
C1674 H1666 0.930 . S
C1674 C1673 1.362 . S
C1674 C1677 1.409 . S
C1675 H1667 0.930 . S
C1675 C1676 1.355 . S
C1675 C1677 1.415 . S
C1676 C1675 1.355 . S
C1676 C1678 1.419 . S
C1677 C1672 1.425 . S
C1677 C1674 1.409 . S
C1677 C1675 1.415 . S
C1678 H1668 0.930 . S
C1678 C1676 1.419 . S
C1678 C1679 1.362 . S
C1679 H1669 0.930 . S
C1679 C1672 1.409 . S
C1679 C1678 1.362 . S
H1680 C1686 0.930 . S
H1681 C1689 0.930 . S
H1682 C1690 0.930 . S
H1683 C1691 0.930 . S
H1684 C1694 0.930 . S
H1685 C1695 0.930 . S
C1686 H1680 0.930 . S
C1686 C1687 1.355 . S
C1686 C1688 1.415 . S
C1687 C1686 1.355 . S
C1687 C1689 1.419 . S
C1688 C1686 1.415 . S
C1688 C1693 1.425 . S
C1688 C1695 1.409 . S
C1689 H1681 0.930 . S
C1689 C1687 1.419 . S
C1689 C1690 1.362 . S
C1690 H1682 0.930 . S
C1690 C1689 1.362 . S
C1690 C1693 1.409 . S
C1691 H1683 0.930 . S
C1691 C1692 1.355 . S
C1691 C1693 1.415 . S
C1692 C1691 1.355 . S
C1692 C1694 1.419 . S
C1693 C1688 1.425 . S
C1693 C1690 1.409 . S
C1693 C1691 1.415 . S
C1694 H1684 0.930 . S
C1694 C1692 1.419 . S
C1694 C1695 1.362 . S
C1695 H1685 0.930 . S
C1695 C1688 1.409 . S
C1695 C1694 1.362 . S
H1696 C1702 0.930 . S
H1697 C1705 0.930 . S
H1698 C1706 0.930 . S
H1699 C1707 0.930 . S
H1700 C1710 0.930 . S
H1701 C1711 0.930 . S
C1702 H1696 0.930 . S
C1702 C1703 1.355 . S
C1702 C1704 1.415 . S
C1703 C1702 1.355 . S
C1703 C1705 1.419 . S
C1704 C1702 1.415 . S
C1704 C1709 1.425 . S
C1704 C1711 1.409 . S
C1705 H1697 0.930 . S
C1705 C1703 1.419 . S
C1705 C1706 1.362 . S
C1706 H1698 0.930 . S
C1706 C1705 1.362 . S
C1706 C1709 1.409 . S
C1707 H1699 0.930 . S
C1707 C1708 1.355 . S
C1707 C1709 1.415 . S
C1708 C1707 1.355 . S
C1708 C1710 1.419 . S
C1709 C1704 1.425 . S
C1709 C1706 1.409 . S
C1709 C1707 1.415 . S
C1710 H1700 0.930 . S
C1710 C1708 1.419 . S
C1710 C1711 1.362 . S
C1711 H1701 0.930 . S
C1711 C1704 1.409 . S
C1711 C1710 1.362 . S
H1712 C1718 0.930 . S
H1713 C1721 0.930 . S
H1714 C1722 0.930 . S
H1715 C1723 0.930 . S
H1716 C1726 0.930 . S
H1717 C1727 0.930 . S
C1718 H1712 0.930 . S
C1718 C1719 1.355 . S
C1718 C1720 1.415 . S
C1719 C1718 1.355 . S
C1719 C1721 1.419 . S
C1720 C1718 1.415 . S
C1720 C1725 1.425 . S
C1720 C1727 1.409 . S
C1721 H1713 0.930 . S
C1721 C1719 1.419 . S
C1721 C1722 1.362 . S
C1722 H1714 0.930 . S
C1722 C1721 1.362 . S
C1722 C1725 1.409 . S
C1723 H1715 0.930 . S
C1723 C1724 1.355 . S
C1723 C1725 1.415 . S
C1724 C1723 1.355 . S
C1724 C1726 1.419 . S
C1725 C1720 1.425 . S
C1725 C1722 1.409 . S
C1725 C1723 1.415 . S
C1726 H1716 0.930 . S
C1726 C1724 1.419 . S
C1726 C1727 1.362 . S
C1727 H1717 0.930 . S
C1727 C1720 1.409 . S
C1727 C1726 1.362 . S
C588 C306 1.266 . S
C583 C258 1.313 . S
C599 C236 1.637 . S
C604 C300 1.553 . S
C620 C268 1.624 . S
C615 C225 1.748 . S
C631 C247 1.490 . S
C636 C282 1.426 . S
C652 C320 1.874 . S
C647 C181 1.979 . S
C668 C407 1.366 . S
C663 C192 1.401 . S
C679 C203 1.989 . S
C684 C334 1.927 . S
C700 C402 1.322 . S
C695 C214 1.351 . S
C711 C137 2.086 . S
C716 C358 2.004 . S
C732 C413 1.589 . S
C727 C148 1.631 . S
C743 C159 2.020 . S
C748 C352 1.958 . S
C759 C170 1.059 . S
C764 C398 1.016 . S
C780 C454 1.066 . S
C775 C126 1.106 1_556 S
C791 C104 1.681 . S
C796 C465 1.673 . S
C807 C93 1.427 . S
C812 C450 1.387 . S
C828 C459 1.456 . S
C823 C115 1.467 . S
C839 C49 1.567 . S
C844 C504 1.542 . S
C855 C60 0.767 . S
C860 C563 0.826 . S
C871 C71 1.709 . S
C876 C520 1.550 . S
C887 C82 1.335 . S
C892 C558 1.297 . S
C908 C522 1.735 . S
C903 C5 1.807 . S
C924 C569 0.937 . S
C919 C16 0.914 . S
C935 C27 1.659 . S
C940 C498 1.577 . S
C956 C554 1.012 . S
C951 C38 1.017 . S
C972 C290 1.599 . S
C967 C4 1.648 . S
C983 C21 1.258 . S
C988 C294 1.295 . S
C999 C32 1.442 . S
C1004 C314 1.444 . S
C1015 C37 1.034 . S
C1020 C309 1.006 . S
C1031 C48 1.710 . S
C1036 C312 1.700 . S
C1052 C298 1.262 . S
C1047 C59 1.247 . S
C1063 C76 1.395 . S
C1068 C296 1.393 . S
C1084 C303 1.286 . S
C1079 C81 1.278 . S
C1100 C366 1.427 . S
C1095 C43 1.416 . S
C1111 C10 1.772 . S
C1116 C416 1.700 . S
C1132 C364 1.352 . S
C1127 C15 1.417 . S
C1148 C400 1.879 . S
C1143 C26 1.944 . S
C1159 C65 1.156 . S
C1164 C342 1.179 . S
C1180 C418 1.783 . S
C1175 C70 1.877 . S
C1196 C348 1.458 . S
C1191 C87 1.455 . S
C1212 C394 1.561 . S
C1207 C54 1.573 1_455 S
C1228 C386 1.464 . S
C1223 C98 1.394 . S
C1239 C109 1.298 . S
C1244 C410 1.307 . S
C1260 C346 1.369 . S
C1255 C92 1.359 . S
C1276 C372 1.348 1_556 S
C1271 C114 1.261 1_554 S
C1287 C131 1.064 . S
C1292 C350 1.088 . S
C1303 C125 1.354 . S
C1308 C404 1.413 1_556 S
C1324 C361 1.553 . S
C1319 C103 1.494 . S
C1340 C355 1.317 . S
C1335 C120 1.250 . S
C1356 C438 1.887 . S
C1351 C136 1.945 . S
C1372 C470 1.452 . S
C1367 C153 1.451 . S
C1383 C164 1.666 . S
C1388 C424 1.743 . S
C1404 C468 1.142 . S
C1399 C169 1.217 . S
C1420 C456 1.859 . S
C1415 C180 1.930 . S
C1431 C191 1.346 . S
C1436 C452 1.403 . S
C1447 C208 1.645 . S
C1452 C462 1.783 . S
C1468 C446 1.358 . S
C1463 C213 1.475 . S
C1484 C511 1.276 . S
C1479 C175 1.200 . S
C1495 C142 1.596 . S
C1500 C572 1.557 . S
C1516 C506 1.267 . S
C1511 C147 1.303 . S
C1532 C556 1.710 . S
C1527 C158 1.708 . S
C1548 C502 1.053 . S
C1543 C197 1.071 . S
C1559 C202 1.651 . S
C1564 C574 1.586 . S
C1580 C517 1.287 . S
C1575 C219 1.207 . S
C1596 C550 1.436 . S
C1591 C186 1.285 . S
C1612 C542 1.576 . S
C1607 C230 1.505 . S
C1623 C241 1.657 . S
C1628 C566 1.594 . S
C1644 C508 1.574 . S
C1639 C224 1.613 . S
C1655 C246 1.745 . S
C1660 C528 1.632 . S
C1676 C490 1.349 . S
C1671 C263 1.352 . S
C1692 C560 1.469 . S
C1687 C257 1.551 . S
C1708 C476 1.528 . S
C1703 C235 1.614 . S
C1719 C252 1.195 . S
C1724 C514 1.210 . S
