# Generated by pormake.
# Topology hwx, (6,3)-cn, num edge types: 1
# Building blocks:
#     Node 0, Type 0, BuildingBlock: OJICUG_clean_sbu_0, # of connection points: 6
#     Node 1, Type 0, BuildingBlock: OJICUG_clean_sbu_0, # of connection points: 6
#     Node 2, Type 0, BuildingBlock: OJICUG_clean_sbu_0, # of connection points: 6
#     Node 3, Type 0, BuildingBlock: OJICUG_clean_sbu_0, # of connection points: 6
#     Node 4, Type 1, BuildingBlock: BELTOD_clean_linker_0, # of connection points: 3
#     Node 5, Type 1, BuildingBlock: BELTOD_clean_linker_0, # of connection points: 3
#     Node 6, Type 1, BuildingBlock: BELTOD_clean_linker_0, # of connection points: 3
#     Node 7, Type 1, BuildingBlock: BELTOD_clean_linker_0, # of connection points: 3
#     Node 8, Type 1, BuildingBlock: BELTOD_clean_linker_0, # of connection points: 3
#     Node 9, Type 1, BuildingBlock: BELTOD_clean_linker_0, # of connection points: 3
#     Node 10, Type 1, BuildingBlock: BELTOD_clean_linker_0, # of connection points: 3
#     Node 11, Type 1, BuildingBlock: BELTOD_clean_linker_0, # of connection points: 3
#     Edge 12, Type (0, 1), BuildingBlock: OJICUG_clean_linker_0, # of connection points: 2
#     Edge 13, Type (0, 1), BuildingBlock: OJICUG_clean_linker_0, # of connection points: 2
#     Edge 14, Type (0, 1), BuildingBlock: OJICUG_clean_linker_0, # of connection points: 2
#     Edge 15, Type (0, 1), BuildingBlock: OJICUG_clean_linker_0, # of connection points: 2
#     Edge 16, Type (0, 1), BuildingBlock: OJICUG_clean_linker_0, # of connection points: 2
#     Edge 17, Type (0, 1), BuildingBlock: OJICUG_clean_linker_0, # of connection points: 2
#     Edge 18, Type (0, 1), BuildingBlock: OJICUG_clean_linker_0, # of connection points: 2
#     Edge 19, Type (0, 1), BuildingBlock: OJICUG_clean_linker_0, # of connection points: 2
#     Edge 20, Type (0, 1), BuildingBlock: OJICUG_clean_linker_0, # of connection points: 2
#     Edge 21, Type (0, 1), BuildingBlock: OJICUG_clean_linker_0, # of connection points: 2
#     Edge 22, Type (0, 1), BuildingBlock: OJICUG_clean_linker_0, # of connection points: 2
#     Edge 23, Type (0, 1), BuildingBlock: OJICUG_clean_linker_0, # of connection points: 2
#     Edge 24, Type (0, 1), BuildingBlock: OJICUG_clean_linker_0, # of connection points: 2
#     Edge 25, Type (0, 1), BuildingBlock: OJICUG_clean_linker_0, # of connection points: 2
#     Edge 26, Type (0, 1), BuildingBlock: OJICUG_clean_linker_0, # of connection points: 2
#     Edge 27, Type (0, 1), BuildingBlock: OJICUG_clean_linker_0, # of connection points: 2
#     Edge 28, Type (0, 1), BuildingBlock: OJICUG_clean_linker_0, # of connection points: 2
#     Edge 29, Type (0, 1), BuildingBlock: OJICUG_clean_linker_0, # of connection points: 2
#     Edge 30, Type (0, 1), BuildingBlock: OJICUG_clean_linker_0, # of connection points: 2
#     Edge 31, Type (0, 1), BuildingBlock: OJICUG_clean_linker_0, # of connection points: 2
#     Edge 32, Type (0, 1), BuildingBlock: OJICUG_clean_linker_0, # of connection points: 2
#     Edge 33, Type (0, 1), BuildingBlock: OJICUG_clean_linker_0, # of connection points: 2
#     Edge 34, Type (0, 1), BuildingBlock: OJICUG_clean_linker_0, # of connection points: 2
#     Edge 35, Type (0, 1), BuildingBlock: OJICUG_clean_linker_0, # of connection points: 2
# Relax obj value: 0.068
# Max RMSD: 0.096
# Mean RMSD: 0.087
data_MOF--net-hwx--node1-OJICUG_clean_sbu_0--node2-BELTOD_clean_linker_0--edge1-OJICUG_clean_linker_0
_symmetry_space_group_name_H-M    P1
_symmetry_Int_Tables_number       1
_symmetry_cell_setting            triclinic
loop_
_symmetry_equiv_pos_as_xyz
'x, y, z'
_cell_length_a     43.733399
_cell_length_b     43.718797
_cell_length_c     19.456887
_cell_angle_alpha  89.372648
_cell_angle_beta   90.74344
_cell_angle_gamma 89.854559
loop_
_atom_site_label
_atom_site_type_symbol
_atom_site_fract_x
_atom_site_fract_y
_atom_site_fract_z
_atom_type_partial_charge
Sc0 Sc 0.21022 0.21232 0.09742 0.0
Sc1 Sc 0.16133 0.161 0.00921 0.0
Sc2 Sc 0.21071 0.21067 0.91834 0.0
O3 O 0.19405 0.19458 0.00834 0.0
C4 C 0.2065 0.27228 0.00423 0.0
C5 C 0.13907 0.20495 0.12822 0.0
C6 C 0.13949 0.20417 0.88477 0.0
C7 C 0.20579 0.14113 0.13339 0.0
C8 C 0.27129 0.20985 0.00992 0.0
C9 C 0.2051 0.13909 0.88946 0.0
O10 O 0.20608 0.25895 0.06254 0.0
O11 O 0.13378 0.18442 0.08383 0.0
O12 O 0.16575 0.21569 0.87582 0.0
O13 O 0.21679 0.16772 0.14114 0.0
O14 O 0.25759 0.20833 0.9521 0.0
O15 O 0.18498 0.13362 0.93455 0.0
O16 O 0.25715 0.21126 0.06639 0.0
O17 O 0.18497 0.13498 0.08933 0.0
O18 O 0.21591 0.16558 0.87838 0.0
O19 O 0.16535 0.21638 0.13842 0.0
O20 O 0.20811 0.25777 0.94818 0.0
O21 O 0.13409 0.18343 0.92937 0.0
Sc22 Sc 0.27467 0.70432 0.40114 0.0
Sc23 Sc 0.33817 0.6731 0.49143 0.0
Sc24 Sc 0.27574 0.7033 0.58182 0.0
O25 O 0.29616 0.69346 0.49144 0.0
C26 C 0.26211 0.76326 0.49128 0.0
C27 C 0.34428 0.72011 0.36666 0.0
C28 C 0.34554 0.71996 0.61443 0.0
C29 C 0.30272 0.63873 0.37003 0.0
C30 C 0.21776 0.68371 0.49217 0.0
C31 C 0.30507 0.63775 0.61404 0.0
O32 O 0.26528 0.75022 0.4337 0.0
O33 O 0.35591 0.70367 0.41447 0.0
O34 O 0.31702 0.72188 0.625 0.0
O35 O 0.28255 0.65943 0.36036 0.0
O36 O 0.23158 0.68696 0.54942 0.0
O37 O 0.32544 0.64007 0.56832 0.0
O38 O 0.2305 0.68898 0.43493 0.0
O39 O 0.32426 0.64092 0.41427 0.0
O40 O 0.2853 0.65854 0.62451 0.0
O41 O 0.31566 0.72199 0.35542 0.0
O42 O 0.26457 0.74908 0.54851 0.0
O43 O 0.35689 0.7031 0.56844 0.0
Sc44 Sc 0.76787 0.76484 0.90765 0.0
Sc45 Sc 0.81528 0.81647 -0.00377 0.0
Sc46 Sc 0.7659 0.76803 0.08852 0.0
O47 O 0.78305 0.78312 -0.00249 0.0
C48 C 0.70625 0.77085 0.99143 0.0
C49 C 0.77443 0.83544 0.86623 0.0
C50 C 0.77019 0.8398 0.11293 0.0
C51 C 0.83925 0.77083 0.88098 0.0
C52 C 0.77208 0.70594 0.00623 0.0
C53 C 0.83653 0.777 0.12692 0.0
O54 O 0.72068 0.77059 0.93512 0.0
O55 O 0.79206 0.84212 0.91621 0.0
O56 O 0.75832 0.81378 0.12486 0.0
O57 O 0.81369 0.75762 0.8713 0.0
O58 O 0.77218 0.72066 0.06221 0.0
O59 O 0.84223 0.79463 0.07635 0.0
O60 O 0.7693 0.71891 0.94775 0.0
O61 O 0.84279 0.79282 0.9226 0.0
O62 O 0.81006 0.76631 0.13839 0.0
O63 O 0.7648 0.80847 0.85585 0.0
O64 O 0.71956 0.76864 0.04978 0.0
O65 O 0.79122 0.8439 0.06929 0.0
Sc66 Sc 0.7042 0.27524 0.58852 0.0
Sc67 Sc 0.67154 0.33701 0.49472 0.0
Sc68 Sc 0.70495 0.27504 0.40798 0.0
O69 O 0.69341 0.29572 0.49707 0.0
C70 C 0.76391 0.26212 0.50192 0.0
C71 C 0.7184 0.34533 0.6201 0.0
C72 C 0.72004 0.34501 0.37494 0.0
C73 C 0.63788 0.30232 0.61717 0.0
C74 C 0.68454 0.21762 0.49867 0.0
C75 C 0.63914 0.30244 0.37007 0.0
O76 O 0.75009 0.26519 0.55839 0.0
O77 O 0.70082 0.35616 0.57325 0.0
O78 O 0.72318 0.31649 0.36561 0.0
O79 O 0.65966 0.28366 0.62946 0.0
O80 O 0.68888 0.23089 0.44117 0.0
O81 O 0.63969 0.32273 0.41634 0.0
O82 O 0.68872 0.23089 0.55587 0.0
O83 O 0.63874 0.32263 0.56998 0.0
O84 O 0.6609 0.28364 0.36109 0.0
O85 O 0.72175 0.31684 0.63124 0.0
O86 O 0.75053 0.26473 0.44383 0.0
O87 O 0.70196 0.35611 0.41891 0.0
P88 P 0.3206 0.47381 -0.00362 0.0
H89 H 0.33813 0.47105 0.14153 0.0
H90 H 0.33069 0.50641 0.23663 0.0
H91 H 0.28094 0.56772 0.09939 0.0
H92 H 0.28735 0.53195 0.00631 0.0
H93 H 0.31561 0.42051 0.91073 0.0
H94 H 0.28051 0.37726 0.9092 0.0
H95 H 0.2299 0.41721 0.07538 0.0
H96 H 0.26539 0.46034 0.07702 0.0
H97 H 0.36552 0.50972 0.92198 0.0
H98 H 0.27005 0.48675 0.90023 0.0
O99 O 0.35556 0.45876 0.00485 0.0
H100 H 0.36081 0.54535 0.82473 0.0
H101 H 0.26522 0.52217 0.80256 0.0
C102 C 0.31402 0.49924 0.06657 0.0
C103 C 0.32554 0.49208 0.13227 0.0
C104 C 0.32132 0.51234 0.18644 0.0
C105 C 0.30543 0.54006 0.17555 0.0
C106 C 0.293 0.54649 0.10996 0.0
C107 C 0.29703 0.52615 0.05618 0.0
C108 C 0.29337 0.44326 0.99457 0.0
C109 C 0.29684 0.42001 0.94652 0.0
C110 C 0.27653 0.39552 0.94521 0.0
C111 C 0.25234 0.39391 0.99205 0.0
C112 C 0.24843 0.41777 0.039 0.0
C113 C 0.26876 0.44238 0.04005 0.0
C114 C 0.31831 0.49524 0.91734 0.0
C115 C 0.34377 0.51174 0.89503 0.0
C116 C 0.34104 0.53206 0.83948 0.0
C117 C 0.31264 0.53647 0.80609 0.0
C118 C 0.28733 0.51929 0.82757 0.0
C119 C 0.29015 0.49884 0.88289 0.0
P120 P 0.00046 0.7539 0.51153 0.0
H121 H 0.01051 0.76221 0.65856 0.0
H122 H 0.97582 0.75933 0.75584 0.0
H123 H 0.90545 0.72265 0.62209 0.0
H124 H 0.9408 0.7238 0.52694 0.0
H125 H 0.04682 0.75303 0.40736 0.0
H126 H 0.09521 0.72593 0.39887 0.0
H127 H 0.07296 0.67219 0.57924 0.0
H128 H 0.02453 0.70001 0.58791 0.0
H129 H 0.95127 0.79597 0.47997 0.0
H130 H 0.99338 0.71842 0.38322 0.0
O131 O 0.01518 0.78851 0.52516 0.0
H132 H 0.91327 0.79898 0.38669 0.0
H133 H 0.95589 0.72217 0.2883 0.0
C134 C 0.97791 0.74413 0.58525 0.0
C135 C 0.98785 0.75281 0.65084 0.0
C136 C 0.96786 0.7514 0.70623 0.0
C137 C 0.93745 0.74162 0.69658 0.0
C138 C 0.9286 0.73034 0.63183 0.0
C139 C 0.94878 0.7313 0.57685 0.0
C140 C 0.03214 0.72853 0.4981 0.0
C141 C 0.052 0.73484 0.44399 0.0
C142 C 0.07963 0.71912 0.439 0.0
C143 C 0.08807 0.69685 0.48849 0.0
C144 C 0.06726 0.6894 0.54067 0.0
C145 C 0.03951 0.70521 0.54553 0.0
C146 C 0.97536 0.75731 0.43795 0.0
C147 C 0.95267 0.77998 0.43798 0.0
C148 C 0.93094 0.78159 0.38507 0.0
C149 C 0.93187 0.76082 0.33074 0.0
C150 C 0.95501 0.73852 0.32968 0.0
C151 C 0.97644 0.73649 0.38363 0.0
P152 P 0.82384 0.47397 -0.00345 0.0
H153 H 0.84839 0.45208 0.86582 0.0
H154 H 0.82486 0.4239 0.77035 0.0
H155 H 0.73759 0.42789 0.87107 0.0
H156 H 0.76127 0.45507 0.96708 0.0
H157 H 0.85323 0.52614 0.0615 0.0
H158 H 0.83969 0.58045 0.06759 0.0
H159 H 0.75802 0.56337 0.94685 0.0
H160 H 0.77179 0.50969 0.94001 0.0
H161 H 0.821 0.40941 0.02958 0.0
H162 H 0.79776 0.49406 0.12839 0.0
O163 O 0.86179 0.47048 0.99309 0.0
H164 H 0.79867 0.38069 0.12399 0.0
H165 H 0.77663 0.46546 0.22508 0.0
C166 C 0.80651 0.45572 0.92331 0.0
C167 C 0.82418 0.44705 0.86712 0.0
C168 C 0.81077 0.43099 0.81274 0.0
C169 C 0.77943 0.424 0.81342 0.0
C170 C 0.76171 0.4334 0.86898 0.0
C171 C 0.77522 0.44884 0.9238 0.0
C172 C 0.81392 0.51391 -0.00085 0.0
C173 C 0.83254 0.53419 0.03596 0.0
C174 C 0.82461 0.56511 0.04002 0.0
C175 C 0.79786 0.57616 0.00737 0.0
C176 C 0.77901 0.55561 0.97162 0.0
C177 C 0.78691 0.52477 0.9678 0.0
C178 C 0.81072 0.4538 0.0715 0.0
C179 C 0.81153 0.42181 0.0723 0.0
C180 C 0.79894 0.40541 0.12678 0.0
C181 C 0.78575 0.42072 0.1824 0.0
C182 C 0.7861 0.45292 0.18262 0.0
C183 C 0.79842 0.46933 0.12747 0.0
P184 P -0.00254 0.288 0.49898 0.0
H185 H 0.01252 0.31428 0.36486 0.0
H186 H 0.04105 0.29417 0.2678 0.0
H187 H 0.0493 0.20677 0.37231 0.0
H188 H 0.02067 0.22701 0.46914 0.0
H189 H 0.94833 0.31074 0.58247 0.0
H190 H 0.89373 0.29931 0.58656 0.0
H191 H 0.90522 0.23094 0.43009 0.0
H192 H 0.95965 0.24278 0.42556 0.0
H193 H 0.0591 0.29938 0.54586 0.0
H194 H 0.98223 0.24581 0.6134 0.0
O195 O 0.00012 0.32606 0.49587 0.0
H196 H 0.08972 0.27962 0.64182 0.0
H197 H 0.0124 0.22674 0.71163 0.0
C198 C 0.01518 0.27229 0.42456 0.0
C199 C 0.02024 0.29073 0.36659 0.0
C200 C 0.03646 0.27922 0.3112 0.0
C201 C 0.04754 0.249 0.31289 0.0
C202 C 0.04084 0.23007 0.36948 0.0
C203 C 0.02479 0.24168 0.42502 0.0
C204 C 0.95783 0.278 0.50304 0.0
C205 C 0.93905 0.29324 0.54924 0.0
C206 C 0.90797 0.28646 0.55199 0.0
C207 C 0.89526 0.26423 0.50854 0.0
C208 C 0.91438 0.24839 0.46359 0.0
C209 C 0.94551 0.25516 0.46105 0.0
C210 C 0.01834 0.27452 0.57329 0.0
C211 C 0.04867 0.28377 0.58223 0.0
C212 C 0.06607 0.27254 0.63741 0.0
C213 C 0.05338 0.2519 0.68514 0.0
C214 C 0.02288 0.24253 0.67576 0.0
C215 C 0.00551 0.25366 0.61996 0.0
P216 P 0.75712 0.00064 0.48464 0.0
H217 H 0.79411 0.99544 0.36122 0.0
H218 H 0.7916 0.96029 0.26556 0.0
H219 H 0.70376 0.92798 0.33526 0.0
H220 H 0.70715 0.96266 0.43298 0.0
H221 H 0.75865 0.0498 0.58241 0.0
H222 H 0.73076 0.09778 0.59025 0.0
H223 H 0.67352 0.07157 0.41803 0.0
H224 H 0.70186 0.02343 0.41022 0.0
H225 H 0.77804 0.93789 0.49391 0.0
H226 H 0.73059 0.00111 0.62433 0.0
O227 O 0.79301 0.0135 0.48727 0.0
H228 H 0.77744 0.89942 0.58532 0.0
H229 H 0.7306 0.96266 0.71679 0.0
C230 C 0.75091 0.98147 0.40436 0.0
C231 C 0.77397 0.98134 0.35515 0.0
C232 C 0.77239 0.96125 0.30002 0.0
C233 C 0.7476 0.94099 0.29295 0.0
C234 C 0.72343 0.94285 0.33983 0.0
C235 C 0.72516 0.96287 0.39526 0.0
C236 C 0.73244 0.03311 0.49574 0.0
C237 C 0.73964 0.05405 0.54731 0.0
C238 C 0.72346 0.08141 0.55205 0.0
C239 C 0.69982 0.08851 0.50479 0.0
C240 C 0.6917 0.0668 0.45496 0.0
C241 C 0.70788 0.03923 0.45055 0.0
C242 C 0.75396 0.97226 0.55173 0.0
C243 C 0.76708 0.94339 0.54184 0.0
C244 C 0.76671 0.92138 0.59408 0.0
C245 C 0.75377 0.92804 0.65783 0.0
C246 C 0.74071 0.95702 0.66799 0.0
C247 C 0.74069 0.97897 0.6151 0.0
P248 P 0.47378 0.32554 0.98885 0.0
H249 H 0.48635 0.36086 0.86301 0.0
H250 H 0.52285 0.35306 0.77105 0.0
H251 H 0.54644 0.26452 0.85861 0.0
H252 H 0.51176 0.27372 0.9529 0.0
H253 H 0.41925 0.32715 0.07195 0.0
H254 H 0.37513 0.29331 0.0818 0.0
H255 H 0.41427 0.23321 0.93141 0.0
H256 H 0.45767 0.26729 0.92042 0.0
H257 H 0.53589 0.34655 0.00995 0.0
H258 H 0.46859 0.29719 0.12756 0.0
O259 O 0.46067 0.3614 0.98501 0.0
H260 H 0.57339 0.33868 0.10262 0.0
H261 H 0.50596 0.29023 0.22134 0.0
C262 C 0.49623 0.31774 0.91432 0.0
C263 C 0.49916 0.33965 0.86184 0.0
C264 C 0.51993 0.33502 0.80894 0.0
C265 C 0.53784 0.30821 0.80745 0.0
C266 C 0.53362 0.28574 0.85872 0.0
C267 C 0.51344 0.29074 0.91222 0.0
C268 C 0.44183 0.29989 0.9956 0.0
C269 C 0.41835 0.30663 0.04129 0.0
C270 C 0.39336 0.28708 0.04744 0.0
C271 C 0.3914 0.26045 0.00772 0.0
C272 C 0.41514 0.25359 0.96253 0.0
C273 C 0.44015 0.27314 0.95652 0.0
C274 C 0.4996 0.32201 0.06118 0.0
C275 C 0.52909 0.33418 0.05577 0.0
C276 C 0.5505 0.32966 0.10854 0.0
C277 C 0.54249 0.31357 0.16836 0.0
C278 C 0.51255 0.30261 0.17535 0.0
C279 C 0.49123 0.30662 0.12176 0.0
P280 P 0.28765 -0.00314 0.51898 0.0
H281 H 0.31458 0.01279 0.65226 0.0
H282 H 0.29476 0.04174 0.74898 0.0
H283 H 0.20616 0.04668 0.64864 0.0
H284 H 0.22615 0.01769 0.55195 0.0
H285 H 0.31226 0.94908 0.43416 0.0
H286 H 0.30105 0.89463 0.42379 0.0
H287 H 0.22976 0.9033 0.57424 0.0
H288 H 0.24142 0.95766 0.58507 0.0
H289 H 0.29523 0.06045 0.48258 0.0
H290 H 0.24962 0.98198 0.39679 0.0
O291 O 0.32569 -0.00025 0.5224 0.0
H292 H 0.27607 0.09214 0.38773 0.0
H293 H 0.23131 0.01332 0.29984 0.0
C294 C 0.27192 0.01361 0.59466 0.0
C295 C 0.2908 0.01973 0.65149 0.0
C296 C 0.27947 0.03625 0.70666 0.0
C297 C 0.24901 0.04663 0.70595 0.0
C298 C 0.22966 0.03878 0.65074 0.0
C299 C 0.24109 0.02244 0.59534 0.0
C300 C 0.27806 0.9572 0.51113 0.0
C301 C 0.2942 0.93922 0.46482 0.0
C302 C 0.28754 0.90822 0.45842 0.0
C303 C 0.26451 0.89472 0.49824 0.0
C304 C 0.24783 0.91304 0.54345 0.0
C305 C 0.25449 0.94413 0.54963 0.0
C306 C 0.27418 0.01888 0.44628 0.0
C307 C 0.28143 0.04997 0.44266 0.0
C308 C 0.27059 0.068 0.38809 0.0
C309 C 0.25245 0.05519 0.33557 0.0
C310 C 0.24509 0.02392 0.33955 0.0
C311 C 0.2558 0.00591 0.39471 0.0
P312 P 0.47452 0.82497 0.99247 0.0
H313 H 0.44875 0.85071 0.11848 0.0
H314 H 0.41925 0.82754 0.21211 0.0
H315 H 0.42843 0.73905 0.11818 0.0
H316 H 0.45694 0.76232 0.02388 0.0
H317 H 0.52659 0.85004 0.91935 0.0
H318 H 0.5808 0.83595 0.91657 0.0
H319 H 0.56389 0.76184 0.05973 0.0
H320 H 0.51039 0.77632 0.06357 0.0
H321 H 0.41012 0.82337 0.95776 0.0
H322 H 0.49455 0.79756 0.86169 0.0
O323 O 0.47167 0.863 0.9953 0.0
H324 H 0.38125 0.80069 0.864 0.0
H325 H 0.46585 0.77634 0.76514 0.0
C326 C 0.45523 0.80814 0.06469 0.0
C327 C 0.44458 0.82632 0.1183 0.0
C328 C 0.42772 0.81313 0.17156 0.0
C329 C 0.42186 0.78155 0.17229 0.0
C330 C 0.43302 0.76338 0.11912 0.0
C331 C 0.44925 0.77665 0.06536 0.0
C332 C 0.51438 0.81447 0.99198 0.0
C333 C 0.53465 0.83085 0.95034 0.0
C334 C 0.56553 0.8226 0.9483 0.0
C335 C 0.57662 0.79779 0.98803 0.0
C336 C 0.55614 0.7813 0.02921 0.0
C337 C 0.52533 0.78953 0.03109 0.0
C338 C 0.45442 0.81188 0.91719 0.0
C339 C 0.42245 0.81331 0.91566 0.0
C340 C 0.40595 0.80052 0.86145 0.0
C341 C 0.42113 0.78654 0.80664 0.0
C342 C 0.45335 0.78636 0.80698 0.0
C343 C 0.46985 0.79879 0.86202 0.0
C344 C 0.11599 0.24615 0.19775 0.0
C345 C 0.11386 0.21665 0.17022 0.0
H346 H 0.09656 0.27942 0.26383 0.0
C347 C 0.0884 0.19845 0.18589 0.0
H348 H 0.13521 0.26083 0.18608 0.0
C349 C 0.06619 0.20916 0.231 0.0
C350 C 0.06889 0.2384 0.25984 0.0
H351 H 0.08622 0.17563 0.16533 0.0
H352 H 0.04718 0.19447 0.2441 0.0
C353 C 0.0937 0.25695 0.24176 0.0
C354 C 0.28267 0.60587 0.70866 0.0
C355 C 0.30542 0.61027 0.65915 0.0
H356 H 0.26718 0.57904 0.79392 0.0
C357 C 0.32941 0.58887 0.65536 0.0
H358 H 0.26381 0.62182 0.71289 0.0
C359 C 0.33127 0.56435 0.70175 0.0
C360 C 0.30908 0.56057 0.75257 0.0
H361 H 0.34727 0.59143 0.61769 0.0
H362 H 0.35032 0.54856 0.69848 0.0
C363 C 0.28446 0.58123 0.7548 0.0
C364 C 0.89219 0.77289 0.15892 0.0
C365 C 0.86128 0.77016 0.17721 0.0
H366 H 0.93902 0.77137 0.19362 0.0
C367 C 0.85408 0.76239 0.2454 0.0
H368 H 0.89841 0.77871 0.10669 0.0
C369 C 0.87719 0.75872 0.29487 0.0
C370 C 0.90793 0.76211 0.27684 0.0
H371 H 0.83051 0.76023 0.2612 0.0
H372 H 0.87105 0.75366 0.34756 0.0
C373 C 0.91538 0.76859 0.20832 0.0
C374 C 0.76277 0.35734 0.69727 0.0
C375 C 0.73529 0.36665 0.66496 0.0
H376 H 0.79858 0.36863 0.76875 0.0
C377 C 0.72355 0.3959 0.6783 0.0
H378 H 0.77247 0.335 0.68755 0.0
C379 C 0.73831 0.41493 0.72543 0.0
C380 C 0.76539 0.4053 0.75875 0.0
H381 H 0.7024 0.40364 0.65422 0.0
H382 H 0.72837 0.43702 0.73662 0.0
C383 C 0.77783 0.37662 0.74327 0.0
C384 C 0.61669 0.29048 0.25494 0.0
C385 C 0.61303 0.3023 0.32121 0.0
H386 H 0.59706 0.28515 0.15437 0.0
C387 C 0.585 0.31591 0.33834 0.0
H388 H 0.63804 0.27997 0.24009 0.0
C389 C 0.56142 0.31845 0.2894 0.0
C390 C 0.56579 0.30795 0.22239 0.0
H391 H 0.58149 0.32508 0.38914 0.0
H392 H 0.54026 0.32967 0.30304 0.0
C393 C 0.59337 0.29356 0.2058 0.0
C394 C 0.19913 0.08775 0.83398 0.0
C395 C 0.21686 0.11384 0.84738 0.0
H396 H 0.19542 0.04581 0.77801 0.0
C397 C 0.24585 0.11645 0.81763 0.0
H398 H 0.17669 0.08517 0.8562 0.0
C399 C 0.2566 0.09395 0.77393 0.0
C400 C 0.2385 0.06843 0.75834 0.0
H401 H 0.26017 0.13616 0.8274 0.0
H402 H 0.27867 0.09713 0.75027 0.0
C403 C 0.20976 0.06534 0.78919 0.0
C404 C 0.39493 0.72681 0.31027 0.0
C405 C 0.36492 0.73718 0.3207 0.0
H406 H 0.43647 0.73276 0.25434 0.0
C407 C 0.35448 0.7634 0.28496 0.0
H408 H 0.40358 0.70664 0.33697 0.0
C409 C 0.37349 0.77859 0.23871 0.0
C410 C 0.40303 0.76749 0.22648 0.0
H411 H 0.33153 0.77203 0.29236 0.0
H412 H 0.36475 0.79838 0.21071 0.0
C413 C 0.41371 0.74165 0.263 0.0
C414 C 0.77252 0.8906 0.82932 0.0
C415 C 0.76605 0.85972 0.81579 0.0
H416 H 0.77334 0.93655 0.78983 0.0
C417 C 0.75295 0.85204 0.75191 0.0
H418 H 0.7824 0.89733 0.87818 0.0
C419 C 0.74788 0.87447 0.70149 0.0
C420 C 0.75549 0.90509 0.71411 0.0
H421 H 0.74755 0.82852 0.73981 0.0
H422 H 0.73862 0.86779 0.65199 0.0
C423 C 0.76713 0.9131 0.77901 0.0
C424 C 0.86512 0.73412 0.80181 0.0
C425 C 0.86575 0.76137 0.83951 0.0
H426 H 0.88777 0.70576 0.72923 0.0
C427 C 0.89148 0.78042 0.83468 0.0
H428 H 0.84582 0.71871 0.80508 0.0
C429 C 0.91525 0.77326 0.79051 0.0
C430 C 0.91418 0.74663 0.75059 0.0
H431 H 0.89275 0.80162 0.86286 0.0
H432 H 0.93376 0.7895 0.78539 0.0
C433 C 0.88915 0.72674 0.75814 0.0
C434 C 0.72717 0.39514 0.31355 0.0
C435 C 0.73813 0.36589 0.33152 0.0
H436 H 0.73318 0.43517 0.25106 0.0
C437 C 0.76608 0.35594 0.30484 0.0
H438 H 0.70564 0.40335 0.33333 0.0
C439 C 0.78222 0.37436 0.25909 0.0
C440 C 0.77051 0.40296 0.23783 0.0
H441 H 0.77538 0.33369 0.31882 0.0
H442 H 0.80367 0.3659 0.23951 0.0
C443 C 0.74308 0.41342 0.2667 0.0
C444 C 0.11456 0.24764 0.82359 0.0
C445 C 0.11446 0.21645 0.84132 0.0
H446 H 0.09458 0.28347 0.76278 0.0
C447 C 0.092 0.19735 0.81289 0.0
H448 H 0.13134 0.26296 0.84584 0.0
C449 C 0.07124 0.209 0.76371 0.0
C450 C 0.07245 0.23998 0.74322 0.0
H451 H 0.09156 0.17319 0.82585 0.0
H452 H 0.05525 0.19345 0.73954 0.0
C453 C 0.09362 0.25933 0.77568 0.0
C454 C 0.2764 0.60531 0.28389 0.0
C455 C 0.30212 0.61159 0.32535 0.0
H456 H 0.25685 0.57715 0.20575 0.0
C457 C 0.32797 0.59255 0.3211 0.0
H458 H 0.25597 0.61929 0.28655 0.0
C459 C 0.32863 0.56868 0.27413 0.0
C460 C 0.30335 0.56311 0.23076 0.0
H461 H 0.34821 0.59675 0.35221 0.0
H462 H 0.34947 0.55546 0.26988 0.0
C463 C 0.27695 0.58123 0.23738 0.0
C464 C 0.35604 0.76603 0.68504 0.0
C465 C 0.36617 0.73814 0.65836 0.0
H466 H 0.36595 0.80392 0.74972 0.0
C467 C 0.39549 0.72738 0.67628 0.0
H468 H 0.33372 0.77513 0.67104 0.0
C469 C 0.41374 0.74348 0.723 0.0
C470 C 0.40323 0.77097 0.75164 0.0
H471 H 0.4038 0.70588 0.65648 0.0
H472 H 0.43554 0.73368 0.73857 0.0
C473 C 0.37449 0.78243 0.73047 0.0
C474 C 0.74525 0.86162 0.21678 0.0
C475 C 0.7605 0.86621 0.15441 0.0
H476 H 0.7296 0.88149 0.30974 0.0
C477 C 0.76825 0.89617 0.13437 0.0
H478 H 0.73895 0.83884 0.23376 0.0
C479 C 0.76235 0.92078 0.17745 0.0
C480 C 0.7489 0.91596 0.2419 0.0
H481 H 0.77957 0.90056 0.08608 0.0
H482 H 0.76917 0.94349 0.16108 0.0
C483 C 0.73966 0.88619 0.2602 0.0
C484 C 0.58335 0.3152 0.64295 0.0
C485 C 0.61129 0.30168 0.66305 0.0
H486 H 0.53779 0.32693 0.67179 0.0
C487 C 0.6143 0.28898 0.72935 0.0
H488 H 0.58032 0.32499 0.59191 0.0
C489 C 0.59032 0.29072 0.7755 0.0
C490 C 0.56245 0.30469 0.75614 0.0
H491 H 0.63565 0.27869 0.74669 0.0
H492 H 0.59415 0.28202 0.82721 0.0
C493 C 0.55908 0.31648 0.68888 0.0
C494 C 0.19982 0.09252 0.20181 0.0
C495 C 0.2182 0.11668 0.17855 0.0
H496 H 0.196 0.05434 0.27118 0.0
C497 C 0.24855 0.11872 0.20246 0.0
H498 H 0.17633 0.0905 0.18414 0.0
C499 C 0.25994 0.09789 0.25098 0.0
C500 C 0.24112 0.07479 0.27778 0.0
H501 H 0.26343 0.1368 0.18438 0.0
H502 H 0.28342 0.10029 0.26849 0.0
C503 C 0.21113 0.07182 0.25144 0.0
C504 C 0.21281 0.32126 0.93832 0.0
C505 C 0.21029 0.3059 0.00188 0.0
H506 H 0.2276 0.36165 0.88543 0.0
C507 C 0.21638 0.32208 0.06262 0.0
H508 H 0.20782 0.30969 0.89054 0.0
C509 C 0.22792 0.35179 0.05953 0.0
C510 C 0.23342 0.36591 0.9957 0.0
H511 H 0.21445 0.31107 0.11252 0.0
H512 H 0.23471 0.36271 0.10702 0.0
C513 C 0.22429 0.35098 0.93529 0.0
C514 C 0.16805 0.68034 0.55428 0.0
C515 C 0.18426 0.67847 0.49247 0.0
H516 H 0.12491 0.68781 0.60148 0.0
C517 C 0.16765 0.67654 0.43028 0.0
H518 H 0.18001 0.68162 0.60327 0.0
C519 C 0.13584 0.67972 0.42938 0.0
C520 C 0.12 0.68506 0.49056 0.0
H521 H 0.17932 0.67456 0.38175 0.0
H522 H 0.12386 0.67985 0.38031 0.0
C523 C 0.13628 0.68372 0.55332 0.0
C524 C 0.78639 0.65738 0.0692 0.0
C525 C 0.77688 0.6724 0.00827 0.0
H526 H 0.80046 0.61507 0.11677 0.0
C527 C 0.7735 0.65528 0.94788 0.0
H528 H 0.7893 0.66988 0.11658 0.0
C529 C 0.77996 0.62405 0.94805 0.0
C530 C 0.79005 0.60915 0.00852 0.0
H531 H 0.76623 0.66605 0.89998 0.0
H532 H 0.77776 0.6117 0.90028 0.0
C533 C 0.79303 0.62606 0.06924 0.0
C534 C 0.81349 0.25773 0.56701 0.0
C535 C 0.79747 0.25805 0.50385 0.0
H536 H 0.8571 0.25897 0.61798 0.0
C537 C 0.81407 0.25716 0.44249 0.0
H538 H 0.80146 0.25816 0.61529 0.0
C539 C 0.84595 0.25775 0.44419 0.0
C540 C 0.86185 0.25922 0.50723 0.0
H541 H 0.80248 0.25729 0.39292 0.0
H542 H 0.85806 0.25859 0.39601 0.0
C543 C 0.84536 0.25835 0.56864 0.0
C544 C 0.67823 0.1678 0.56187 0.0
C545 C 0.67944 0.18409 0.49922 0.0
H546 H 0.68295 0.12435 0.61272 0.0
C547 C 0.68093 0.16757 0.43769 0.0
H548 H 0.67656 0.1797 0.61023 0.0
C549 C 0.6848 0.13585 0.43927 0.0
C550 C 0.68709 0.12002 0.50237 0.0
H551 H 0.68156 0.17927 0.38837 0.0
H552 H 0.68861 0.12421 0.39127 0.0
C553 C 0.68201 0.13607 0.56339 0.0
C554 C 0.31984 0.22235 0.07281 0.0
C555 C 0.30463 0.21545 0.01074 0.0
H556 H 0.35954 0.24179 0.12052 0.0
C557 C 0.3204 0.21897 0.94863 0.0
H558 H 0.30856 0.21958 0.1217 0.0
C559 C 0.34953 0.23189 0.94809 0.0
C560 C 0.36348 0.24142 0.00963 0.0
H561 H 0.30951 0.21369 0.89988 0.0
H562 H 0.36015 0.23631 0.89902 0.0
C563 C 0.34896 0.2353 0.0722 0.0
C564 C 0.25592 0.81231 0.55493 0.0
C565 C 0.25811 0.79687 0.49214 0.0
H566 H 0.25638 0.85535 0.60599 0.0
C567 C 0.25921 0.81408 0.43073 0.0
H568 H 0.25493 0.79981 0.60324 0.0
C569 C 0.25991 0.84598 0.43246 0.0
C570 C 0.25944 0.8613 0.49551 0.0
H571 H 0.26071 0.80298 0.38142 0.0
H572 H 0.26162 0.85864 0.38449 0.0
C573 C 0.25658 0.84419 0.55658 0.0
C574 C 0.6573 0.78252 0.92726 0.0
C575 C 0.6727 0.77575 0.98955 0.0
H576 H 0.61483 0.79463 0.87787 0.0
C577 C 0.65598 0.77537 0.0508 0.0
H578 H 0.66943 0.78304 0.87911 0.0
C579 C 0.6248 0.78218 0.05003 0.0
C580 C 0.60954 0.78955 0.98803 0.0
H581 H 0.66704 0.77033 0.09978 0.0
H582 H 0.61279 0.78241 0.09836 0.0
C583 C 0.62606 0.78942 0.92656 0.0
loop_
_geom_bond_atom_site_label_1
_geom_bond_atom_site_label_2
_geom_bond_distance
_geom_bond_site_symmetry_2
_ccdc_geom_bond_type
Sc0 O3 2.025 . S
Sc0 O10 2.105 . S
Sc0 O13 2.105 . S
Sc0 O16 2.105 . S
Sc0 O19 2.105 . S
Sc1 O3 2.025 . S
Sc1 O11 2.105 . S
Sc1 O15 2.105 1_554 S
Sc1 O17 2.105 . S
Sc1 O21 2.105 1_554 S
Sc2 O3 2.025 1_556 S
Sc2 O12 2.105 . S
Sc2 O14 2.105 . S
Sc2 O18 2.105 . S
Sc2 O20 2.105 . S
O3 Sc0 2.025 . S
O3 Sc1 2.025 . S
O3 Sc2 2.025 1_554 S
C4 O10 1.268 . S
C4 O20 1.268 1_554 S
C5 O11 1.268 . S
C5 O19 1.268 . S
C6 O12 1.268 . S
C6 O21 1.268 . S
C7 O13 1.268 . S
C7 O17 1.268 . S
C8 O14 1.268 1_554 S
C8 O16 1.268 . S
C9 O15 1.268 . S
C9 O18 1.268 . S
O10 Sc0 2.105 . S
O10 C4 1.268 . S
O11 Sc1 2.105 . S
O11 C5 1.268 . S
O12 Sc2 2.105 . S
O12 C6 1.268 . S
O13 Sc0 2.105 . S
O13 C7 1.268 . S
O14 Sc2 2.105 . S
O14 C8 1.268 1_556 S
O15 Sc1 2.105 1_556 S
O15 C9 1.268 . S
O16 Sc0 2.105 . S
O16 C8 1.268 . S
O17 Sc1 2.105 . S
O17 C7 1.268 . S
O18 Sc2 2.105 . S
O18 C9 1.268 . S
O19 Sc0 2.105 . S
O19 C5 1.268 . S
O20 Sc2 2.105 . S
O20 C4 1.268 1_556 S
O21 Sc1 2.105 1_556 S
O21 C6 1.268 . S
Sc22 O25 2.025 . S
Sc22 O32 2.105 . S
Sc22 O35 2.105 . S
Sc22 O38 2.105 . S
Sc22 O41 2.105 . S
Sc23 O25 2.025 . S
Sc23 O33 2.105 . S
Sc23 O37 2.105 . S
Sc23 O39 2.105 . S
Sc23 O43 2.105 . S
Sc24 O25 2.025 . S
Sc24 O34 2.105 . S
Sc24 O36 2.105 . S
Sc24 O40 2.105 . S
Sc24 O42 2.105 . S
O25 Sc22 2.025 . S
O25 Sc23 2.025 . S
O25 Sc24 2.025 . S
C26 O32 1.268 . S
C26 O42 1.268 . S
C27 O33 1.268 . S
C27 O41 1.268 . S
C28 O34 1.268 . S
C28 O43 1.268 . S
C29 O35 1.268 . S
C29 O39 1.268 . S
C30 O36 1.268 . S
C30 O38 1.268 . S
C31 O37 1.268 . S
C31 O40 1.268 . S
O32 Sc22 2.105 . S
O32 C26 1.268 . S
O33 Sc23 2.105 . S
O33 C27 1.268 . S
O34 Sc24 2.105 . S
O34 C28 1.268 . S
O35 Sc22 2.105 . S
O35 C29 1.268 . S
O36 Sc24 2.105 . S
O36 C30 1.268 . S
O37 Sc23 2.105 . S
O37 C31 1.268 . S
O38 Sc22 2.105 . S
O38 C30 1.268 . S
O39 Sc23 2.105 . S
O39 C29 1.268 . S
O40 Sc24 2.105 . S
O40 C31 1.268 . S
O41 Sc22 2.105 . S
O41 C27 1.268 . S
O42 Sc24 2.105 . S
O42 C26 1.268 . S
O43 Sc23 2.105 . S
O43 C28 1.268 . S
Sc44 O47 2.025 1_556 S
Sc44 O54 2.105 . S
Sc44 O57 2.105 . S
Sc44 O60 2.105 . S
Sc44 O63 2.105 . S
Sc45 O47 2.025 . S
Sc45 O55 2.105 1_554 S
Sc45 O59 2.105 . S
Sc45 O61 2.105 1_554 S
Sc45 O65 2.105 . S
Sc46 O47 2.025 . S
Sc46 O56 2.105 . S
Sc46 O58 2.105 . S
Sc46 O62 2.105 . S
Sc46 O64 2.105 . S
O47 Sc44 2.025 1_554 S
O47 Sc45 2.025 . S
O47 Sc46 2.025 . S
C48 O54 1.268 1_554 S
C48 O64 1.268 . S
C49 O55 1.268 . S
C49 O63 1.268 . S
C50 O56 1.268 . S
C50 O65 1.268 . S
C51 O57 1.268 . S
C51 O61 1.268 . S
C52 O58 1.268 . S
C52 O60 1.268 1_554 S
C53 O59 1.268 . S
C53 O62 1.268 . S
O54 Sc44 2.105 . S
O54 C48 1.268 1_556 S
O55 Sc45 2.105 1_556 S
O55 C49 1.268 . S
O56 Sc46 2.105 . S
O56 C50 1.268 . S
O57 Sc44 2.105 . S
O57 C51 1.268 . S
O58 Sc46 2.105 . S
O58 C52 1.268 . S
O59 Sc45 2.105 . S
O59 C53 1.268 . S
O60 Sc44 2.105 . S
O60 C52 1.268 1_556 S
O61 Sc45 2.105 1_556 S
O61 C51 1.268 . S
O62 Sc46 2.105 . S
O62 C53 1.268 . S
O63 Sc44 2.105 . S
O63 C49 1.268 . S
O64 Sc46 2.105 . S
O64 C48 1.268 . S
O65 Sc45 2.105 . S
O65 C50 1.268 . S
Sc66 O69 2.025 . S
Sc66 O76 2.105 . S
Sc66 O79 2.105 . S
Sc66 O82 2.105 . S
Sc66 O85 2.105 . S
Sc67 O69 2.025 . S
Sc67 O77 2.105 . S
Sc67 O81 2.105 . S
Sc67 O83 2.105 . S
Sc67 O87 2.105 . S
Sc68 O69 2.025 . S
Sc68 O78 2.105 . S
Sc68 O80 2.105 . S
Sc68 O84 2.105 . S
Sc68 O86 2.105 . S
O69 Sc66 2.025 . S
O69 Sc67 2.025 . S
O69 Sc68 2.025 . S
C70 O76 1.268 . S
C70 O86 1.268 . S
C71 O77 1.268 . S
C71 O85 1.268 . S
C72 O78 1.268 . S
C72 O87 1.268 . S
C73 O79 1.268 . S
C73 O83 1.268 . S
C74 O80 1.268 . S
C74 O82 1.268 . S
C75 O81 1.268 . S
C75 O84 1.268 . S
O76 Sc66 2.105 . S
O76 C70 1.268 . S
O77 Sc67 2.105 . S
O77 C71 1.268 . S
O78 Sc68 2.105 . S
O78 C72 1.268 . S
O79 Sc66 2.105 . S
O79 C73 1.268 . S
O80 Sc68 2.105 . S
O80 C74 1.268 . S
O81 Sc67 2.105 . S
O81 C75 1.268 . S
O82 Sc66 2.105 . S
O82 C74 1.268 . S
O83 Sc67 2.105 . S
O83 C73 1.268 . S
O84 Sc68 2.105 . S
O84 C75 1.268 . S
O85 Sc66 2.105 . S
O85 C71 1.268 . S
O86 Sc68 2.105 . S
O86 C70 1.268 . S
O87 Sc67 2.105 . S
O87 C72 1.268 . S
P88 O99 1.490 . S
P88 C102 1.812 . S
P88 C108 1.803 . S
P88 C114 1.819 1_554 S
H89 C103 0.941 . S
H90 C104 0.939 . S
H91 C106 0.940 . S
H92 C107 0.940 . S
H93 C109 0.939 . S
H94 C110 0.942 . S
H95 C112 0.940 . S
H96 C113 0.939 . S
H97 C115 0.941 . S
H98 C119 0.939 . S
O99 P88 1.490 . S
H100 C116 0.939 . S
H101 C118 0.940 . S
C102 P88 1.812 . S
C102 C103 1.389 . S
C102 C107 1.391 . S
C103 H89 0.941 . S
C103 C102 1.389 . S
C103 C104 1.397 . S
C104 H90 0.939 . S
C104 C103 1.397 . S
C104 C105 1.378 . S
C105 C104 1.378 . S
C105 C106 1.378 . S
C106 H91 0.940 . S
C106 C105 1.378 . S
C106 C107 1.396 . S
C107 H92 0.940 . S
C107 C102 1.391 . S
C107 C106 1.396 . S
C108 P88 1.803 . S
C108 C109 1.378 1_554 S
C108 C113 1.400 . S
C109 H93 0.939 . S
C109 C108 1.378 1_556 S
C109 C110 1.361 . S
C110 H94 0.942 . S
C110 C109 1.361 . S
C110 C111 1.369 1_556 S
C111 C110 1.369 1_554 S
C111 C112 1.404 . S
C112 H95 0.940 . S
C112 C111 1.404 . S
C112 C113 1.389 . S
C113 H96 0.939 . S
C113 C108 1.400 . S
C113 C112 1.389 . S
C114 P88 1.819 1_556 S
C114 C115 1.391 . S
C114 C119 1.391 . S
C115 H97 0.941 . S
C115 C114 1.391 . S
C115 C116 1.396 . S
C116 H100 0.939 . S
C116 C115 1.396 . S
C116 C117 1.397 . S
C117 C116 1.397 . S
C117 C118 1.385 . S
C118 H101 0.940 . S
C118 C117 1.385 . S
C118 C119 1.388 . S
C119 H98 0.939 . S
C119 C114 1.391 . S
C119 C118 1.388 . S
P120 O131 1.490 . S
P120 C134 1.812 . S
P120 C140 1.803 1_655 S
P120 C146 1.819 . S
H121 C135 0.941 . S
H122 C136 0.939 . S
H123 C138 0.940 . S
H124 C139 0.940 . S
H125 C141 0.939 . S
H126 C142 0.942 . S
H127 C144 0.940 . S
H128 C145 0.939 . S
H129 C147 0.941 . S
H130 C151 0.939 . S
O131 P120 1.490 . S
H132 C148 0.939 . S
H133 C150 0.940 . S
C134 P120 1.812 . S
C134 C135 1.389 . S
C134 C139 1.391 . S
C135 H121 0.941 . S
C135 C134 1.389 . S
C135 C136 1.397 . S
C136 H122 0.939 . S
C136 C135 1.397 . S
C136 C137 1.378 . S
C137 C136 1.378 . S
C137 C138 1.378 . S
C138 H123 0.940 . S
C138 C137 1.378 . S
C138 C139 1.396 . S
C139 H124 0.940 . S
C139 C134 1.391 . S
C139 C138 1.396 . S
C140 P120 1.803 1_455 S
C140 C141 1.378 . S
C140 C145 1.400 . S
C141 H125 0.939 . S
C141 C140 1.378 . S
C141 C142 1.361 . S
C142 H126 0.942 . S
C142 C141 1.361 . S
C142 C143 1.369 . S
C143 C142 1.369 . S
C143 C144 1.404 . S
C144 H127 0.940 . S
C144 C143 1.404 . S
C144 C145 1.389 . S
C145 H128 0.939 . S
C145 C140 1.400 . S
C145 C144 1.389 . S
C146 P120 1.819 . S
C146 C147 1.391 . S
C146 C151 1.391 . S
C147 H129 0.941 . S
C147 C146 1.391 . S
C147 C148 1.396 . S
C148 H132 0.939 . S
C148 C147 1.396 . S
C148 C149 1.397 . S
C149 C148 1.397 . S
C149 C150 1.385 . S
C150 H133 0.940 . S
C150 C149 1.385 . S
C150 C151 1.388 . S
C151 H130 0.939 . S
C151 C146 1.391 . S
C151 C150 1.388 . S
P152 O163 1.490 . S
P152 C166 1.812 . S
P152 C172 1.803 . S
P152 C178 1.819 1_556 S
H153 C167 0.941 . S
H154 C168 0.939 . S
H155 C170 0.940 . S
H156 C171 0.940 . S
H157 C173 0.939 . S
H158 C174 0.942 . S
H159 C176 0.940 . S
H160 C177 0.939 . S
H161 C179 0.941 . S
H162 C183 0.939 . S
O163 P152 1.490 . S
H164 C180 0.939 . S
H165 C182 0.940 . S
C166 P152 1.812 . S
C166 C167 1.389 . S
C166 C171 1.391 . S
C167 H153 0.941 . S
C167 C166 1.389 . S
C167 C168 1.397 . S
C168 H154 0.939 . S
C168 C167 1.397 . S
C168 C169 1.378 . S
C169 C168 1.378 . S
C169 C170 1.378 . S
C170 H155 0.940 . S
C170 C169 1.378 . S
C170 C171 1.396 . S
C171 H156 0.940 . S
C171 C166 1.391 . S
C171 C170 1.396 . S
C172 P152 1.803 . S
C172 C173 1.378 1_556 S
C172 C177 1.400 . S
C173 H157 0.939 . S
C173 C172 1.378 1_554 S
C173 C174 1.361 . S
C174 H158 0.942 . S
C174 C173 1.361 . S
C174 C175 1.369 . S
C175 C174 1.369 . S
C175 C176 1.404 1_554 S
C176 H159 0.940 . S
C176 C175 1.404 1_556 S
C176 C177 1.389 . S
C177 H160 0.939 . S
C177 C172 1.400 . S
C177 C176 1.389 . S
C178 P152 1.819 1_554 S
C178 C179 1.391 . S
C178 C183 1.391 . S
C179 H161 0.941 . S
C179 C178 1.391 . S
C179 C180 1.396 . S
C180 H164 0.939 . S
C180 C179 1.396 . S
C180 C181 1.397 . S
C181 C180 1.397 . S
C181 C182 1.385 . S
C182 H165 0.940 . S
C182 C181 1.385 . S
C182 C183 1.388 . S
C183 H162 0.939 . S
C183 C178 1.391 . S
C183 C182 1.388 . S
P184 O195 1.490 . S
P184 C198 1.812 . S
P184 C204 1.803 1_455 S
P184 C210 1.819 . S
H185 C199 0.941 . S
H186 C200 0.939 . S
H187 C202 0.940 . S
H188 C203 0.940 . S
H189 C205 0.939 . S
H190 C206 0.942 . S
H191 C208 0.940 . S
H192 C209 0.939 . S
H193 C211 0.941 . S
H194 C215 0.939 . S
O195 P184 1.490 . S
H196 C212 0.939 . S
H197 C214 0.940 . S
C198 P184 1.812 . S
C198 C199 1.389 . S
C198 C203 1.391 . S
C199 H185 0.941 . S
C199 C198 1.389 . S
C199 C200 1.397 . S
C200 H186 0.939 . S
C200 C199 1.397 . S
C200 C201 1.378 . S
C201 C200 1.378 . S
C201 C202 1.378 . S
C202 H187 0.940 . S
C202 C201 1.378 . S
C202 C203 1.396 . S
C203 H188 0.940 . S
C203 C198 1.391 . S
C203 C202 1.396 . S
C204 P184 1.803 1_655 S
C204 C205 1.378 . S
C204 C209 1.400 . S
C205 H189 0.939 . S
C205 C204 1.378 . S
C205 C206 1.361 . S
C206 H190 0.942 . S
C206 C205 1.361 . S
C206 C207 1.369 . S
C207 C206 1.369 . S
C207 C208 1.404 . S
C208 H191 0.940 . S
C208 C207 1.404 . S
C208 C209 1.389 . S
C209 H192 0.939 . S
C209 C204 1.400 . S
C209 C208 1.389 . S
C210 P184 1.819 . S
C210 C211 1.391 . S
C210 C215 1.391 . S
C211 H193 0.941 . S
C211 C210 1.391 . S
C211 C212 1.396 . S
C212 H196 0.939 . S
C212 C211 1.396 . S
C212 C213 1.397 . S
C213 C212 1.397 . S
C213 C214 1.385 . S
C214 H197 0.940 . S
C214 C213 1.385 . S
C214 C215 1.388 . S
C215 H194 0.939 . S
C215 C210 1.391 . S
C215 C214 1.388 . S
P216 O227 1.490 . S
P216 C230 1.812 . S
P216 C236 1.803 1_565 S
P216 C242 1.819 . S
H217 C231 0.941 . S
H218 C232 0.939 . S
H219 C234 0.940 . S
H220 C235 0.940 . S
H221 C237 0.939 . S
H222 C238 0.942 . S
H223 C240 0.940 . S
H224 C241 0.939 . S
H225 C243 0.941 . S
H226 C247 0.939 . S
O227 P216 1.490 . S
H228 C244 0.939 . S
H229 C246 0.940 . S
C230 P216 1.812 . S
C230 C231 1.389 . S
C230 C235 1.391 . S
C231 H217 0.941 . S
C231 C230 1.389 . S
C231 C232 1.397 . S
C232 H218 0.939 . S
C232 C231 1.397 . S
C232 C233 1.378 . S
C233 C232 1.378 . S
C233 C234 1.378 . S
C234 H219 0.940 . S
C234 C233 1.378 . S
C234 C235 1.396 . S
C235 H220 0.940 . S
C235 C230 1.391 . S
C235 C234 1.396 . S
C236 P216 1.803 1_545 S
C236 C237 1.378 . S
C236 C241 1.400 . S
C237 H221 0.939 . S
C237 C236 1.378 . S
C237 C238 1.361 . S
C238 H222 0.942 . S
C238 C237 1.361 . S
C238 C239 1.369 . S
C239 C238 1.369 . S
C239 C240 1.404 . S
C240 H223 0.940 . S
C240 C239 1.404 . S
C240 C241 1.389 . S
C241 H224 0.939 . S
C241 C236 1.400 . S
C241 C240 1.389 . S
C242 P216 1.819 . S
C242 C243 1.391 . S
C242 C247 1.391 . S
C243 H225 0.941 . S
C243 C242 1.391 . S
C243 C244 1.396 . S
C244 H228 0.939 . S
C244 C243 1.396 . S
C244 C245 1.397 . S
C245 C244 1.397 . S
C245 C246 1.385 . S
C246 H229 0.940 . S
C246 C245 1.385 . S
C246 C247 1.388 . S
C247 H226 0.939 . S
C247 C242 1.391 . S
C247 C246 1.388 . S
P248 O259 1.490 . S
P248 C262 1.812 . S
P248 C268 1.803 . S
P248 C274 1.819 1_556 S
H249 C263 0.941 . S
H250 C264 0.939 . S
H251 C266 0.940 . S
H252 C267 0.940 . S
H253 C269 0.939 . S
H254 C270 0.942 . S
H255 C272 0.940 . S
H256 C273 0.939 . S
H257 C275 0.941 . S
H258 C279 0.939 . S
O259 P248 1.490 . S
H260 C276 0.939 . S
H261 C278 0.940 . S
C262 P248 1.812 . S
C262 C263 1.389 . S
C262 C267 1.391 . S
C263 H249 0.941 . S
C263 C262 1.389 . S
C263 C264 1.397 . S
C264 H250 0.939 . S
C264 C263 1.397 . S
C264 C265 1.378 . S
C265 C264 1.378 . S
C265 C266 1.378 . S
C266 H251 0.940 . S
C266 C265 1.378 . S
C266 C267 1.396 . S
C267 H252 0.940 . S
C267 C262 1.391 . S
C267 C266 1.396 . S
C268 P248 1.803 . S
C268 C269 1.378 1_556 S
C268 C273 1.400 . S
C269 H253 0.939 . S
C269 C268 1.378 1_554 S
C269 C270 1.361 . S
C270 H254 0.942 . S
C270 C269 1.361 . S
C270 C271 1.369 . S
C271 C270 1.369 . S
C271 C272 1.404 1_554 S
C272 H255 0.940 . S
C272 C271 1.404 1_556 S
C272 C273 1.389 . S
C273 H256 0.939 . S
C273 C268 1.400 . S
C273 C272 1.389 . S
C274 P248 1.819 1_554 S
C274 C275 1.391 . S
C274 C279 1.391 . S
C275 H257 0.941 . S
C275 C274 1.391 . S
C275 C276 1.396 . S
C276 H260 0.939 . S
C276 C275 1.396 . S
C276 C277 1.397 . S
C277 C276 1.397 . S
C277 C278 1.385 . S
C278 H261 0.940 . S
C278 C277 1.385 . S
C278 C279 1.388 . S
C279 H258 0.939 . S
C279 C274 1.391 . S
C279 C278 1.388 . S
P280 O291 1.490 . S
P280 C294 1.812 . S
P280 C300 1.803 1_545 S
P280 C306 1.819 . S
H281 C295 0.941 . S
H282 C296 0.939 . S
H283 C298 0.940 . S
H284 C299 0.940 . S
H285 C301 0.939 . S
H286 C302 0.942 . S
H287 C304 0.940 . S
H288 C305 0.939 . S
H289 C307 0.941 . S
H290 C311 0.939 . S
O291 P280 1.490 . S
H292 C308 0.939 . S
H293 C310 0.940 . S
C294 P280 1.812 . S
C294 C295 1.389 . S
C294 C299 1.391 . S
C295 H281 0.941 . S
C295 C294 1.389 . S
C295 C296 1.397 . S
C296 H282 0.939 . S
C296 C295 1.397 . S
C296 C297 1.378 . S
C297 C296 1.378 . S
C297 C298 1.378 . S
C298 H283 0.940 . S
C298 C297 1.378 . S
C298 C299 1.396 . S
C299 H284 0.940 . S
C299 C294 1.391 . S
C299 C298 1.396 . S
C300 P280 1.803 1_565 S
C300 C301 1.378 . S
C300 C305 1.400 . S
C301 H285 0.939 . S
C301 C300 1.378 . S
C301 C302 1.361 . S
C302 H286 0.942 . S
C302 C301 1.361 . S
C302 C303 1.369 . S
C303 C302 1.369 . S
C303 C304 1.404 . S
C304 H287 0.940 . S
C304 C303 1.404 . S
C304 C305 1.389 . S
C305 H288 0.939 . S
C305 C300 1.400 . S
C305 C304 1.389 . S
C306 P280 1.819 . S
C306 C307 1.391 . S
C306 C311 1.391 . S
C307 H289 0.941 . S
C307 C306 1.391 . S
C307 C308 1.396 . S
C308 H292 0.939 . S
C308 C307 1.396 . S
C308 C309 1.397 . S
C309 C308 1.397 . S
C309 C310 1.385 . S
C310 H293 0.940 . S
C310 C309 1.385 . S
C310 C311 1.388 . S
C311 H290 0.939 . S
C311 C306 1.391 . S
C311 C310 1.388 . S
P312 O323 1.490 . S
P312 C326 1.812 . S
P312 C332 1.803 . S
P312 C338 1.819 1_554 S
H313 C327 0.941 . S
H314 C328 0.939 . S
H315 C330 0.940 . S
H316 C331 0.940 . S
H317 C333 0.939 . S
H318 C334 0.942 . S
H319 C336 0.940 . S
H320 C337 0.939 . S
H321 C339 0.941 . S
H322 C343 0.939 . S
O323 P312 1.490 . S
H324 C340 0.939 . S
H325 C342 0.940 . S
C326 P312 1.812 . S
C326 C327 1.389 . S
C326 C331 1.391 . S
C327 H313 0.941 . S
C327 C326 1.389 . S
C327 C328 1.397 . S
C328 H314 0.939 . S
C328 C327 1.397 . S
C328 C329 1.378 . S
C329 C328 1.378 . S
C329 C330 1.378 . S
C330 H315 0.940 . S
C330 C329 1.378 . S
C330 C331 1.396 . S
C331 H316 0.940 . S
C331 C326 1.391 . S
C331 C330 1.396 . S
C332 P312 1.803 . S
C332 C333 1.378 1_554 S
C332 C337 1.400 . S
C333 H317 0.939 . S
C333 C332 1.378 1_556 S
C333 C334 1.361 . S
C334 H318 0.942 . S
C334 C333 1.361 . S
C334 C335 1.369 1_556 S
C335 C334 1.369 1_554 S
C335 C336 1.404 . S
C336 H319 0.940 . S
C336 C335 1.404 . S
C336 C337 1.389 . S
C337 H320 0.939 . S
C337 C332 1.400 . S
C337 C336 1.389 . S
C338 P312 1.819 1_556 S
C338 C339 1.391 . S
C338 C343 1.391 . S
C339 H321 0.941 . S
C339 C338 1.391 . S
C339 C340 1.396 . S
C340 H324 0.939 . S
C340 C339 1.396 . S
C340 C341 1.397 . S
C341 C340 1.397 . S
C341 C342 1.385 . S
C342 H325 0.940 . S
C342 C341 1.385 . S
C342 C343 1.388 . S
C343 H322 0.939 . S
C343 C338 1.391 . S
C343 C342 1.388 . S
C344 C345 1.387 . S
C344 H348 0.950 . S
C344 C353 1.390 . S
C345 C344 1.387 . S
C345 C347 1.387 . S
H346 C353 0.950 . S
C347 C345 1.387 . S
C347 C349 1.390 . S
C347 H351 0.950 . S
H348 C344 0.950 . S
C349 C347 1.390 . S
C349 C350 1.387 . S
C349 H352 0.950 . S
C350 C349 1.387 . S
C350 C353 1.387 . S
H351 C347 0.950 . S
H352 C349 0.950 . S
C353 C344 1.390 . S
C353 H346 0.950 . S
C353 C350 1.387 . S
C354 C355 1.387 . S
C354 H358 0.950 . S
C354 C363 1.390 . S
C355 C354 1.387 . S
C355 C357 1.387 . S
H356 C363 0.950 . S
C357 C355 1.387 . S
C357 C359 1.390 . S
C357 H361 0.950 . S
H358 C354 0.950 . S
C359 C357 1.390 . S
C359 C360 1.387 . S
C359 H362 0.950 . S
C360 C359 1.387 . S
C360 C363 1.387 . S
H361 C357 0.950 . S
H362 C359 0.950 . S
C363 C354 1.390 . S
C363 H356 0.950 . S
C363 C360 1.387 . S
C364 C365 1.387 . S
C364 H368 0.950 . S
C364 C373 1.390 . S
C365 C364 1.387 . S
C365 C367 1.387 . S
H366 C373 0.950 . S
C367 C365 1.387 . S
C367 C369 1.390 . S
C367 H371 0.950 . S
H368 C364 0.950 . S
C369 C367 1.390 . S
C369 C370 1.387 . S
C369 H372 0.950 . S
C370 C369 1.387 . S
C370 C373 1.387 . S
H371 C367 0.950 . S
H372 C369 0.950 . S
C373 C364 1.390 . S
C373 H366 0.950 . S
C373 C370 1.387 . S
C374 C375 1.387 . S
C374 H378 0.950 . S
C374 C383 1.390 . S
C375 C374 1.387 . S
C375 C377 1.387 . S
H376 C383 0.950 . S
C377 C375 1.387 . S
C377 C379 1.390 . S
C377 H381 0.950 . S
H378 C374 0.950 . S
C379 C377 1.390 . S
C379 C380 1.387 . S
C379 H382 0.950 . S
C380 C379 1.387 . S
C380 C383 1.387 . S
H381 C377 0.950 . S
H382 C379 0.950 . S
C383 C374 1.390 . S
C383 H376 0.950 . S
C383 C380 1.387 . S
C384 C385 1.387 . S
C384 H388 0.950 . S
C384 C393 1.390 . S
C385 C384 1.387 . S
C385 C387 1.387 . S
H386 C393 0.950 . S
C387 C385 1.387 . S
C387 C389 1.390 . S
C387 H391 0.950 . S
H388 C384 0.950 . S
C389 C387 1.390 . S
C389 C390 1.387 . S
C389 H392 0.950 . S
C390 C389 1.387 . S
C390 C393 1.387 . S
H391 C387 0.950 . S
H392 C389 0.950 . S
C393 C384 1.390 . S
C393 H386 0.950 . S
C393 C390 1.387 . S
C394 C395 1.387 . S
C394 H398 0.950 . S
C394 C403 1.390 . S
C395 C394 1.387 . S
C395 C397 1.387 . S
H396 C403 0.950 . S
C397 C395 1.387 . S
C397 C399 1.390 . S
C397 H401 0.950 . S
H398 C394 0.950 . S
C399 C397 1.390 . S
C399 C400 1.387 . S
C399 H402 0.950 . S
C400 C399 1.387 . S
C400 C403 1.387 . S
H401 C397 0.950 . S
H402 C399 0.950 . S
C403 C394 1.390 . S
C403 H396 0.950 . S
C403 C400 1.387 . S
C404 C405 1.387 . S
C404 H408 0.950 . S
C404 C413 1.390 . S
C405 C404 1.387 . S
C405 C407 1.387 . S
H406 C413 0.950 . S
C407 C405 1.387 . S
C407 C409 1.390 . S
C407 H411 0.950 . S
H408 C404 0.950 . S
C409 C407 1.390 . S
C409 C410 1.387 . S
C409 H412 0.950 . S
C410 C409 1.387 . S
C410 C413 1.387 . S
H411 C407 0.950 . S
H412 C409 0.950 . S
C413 C404 1.390 . S
C413 H406 0.950 . S
C413 C410 1.387 . S
C414 C415 1.387 . S
C414 H418 0.950 . S
C414 C423 1.390 . S
C415 C414 1.387 . S
C415 C417 1.387 . S
H416 C423 0.950 . S
C417 C415 1.387 . S
C417 C419 1.390 . S
C417 H421 0.950 . S
H418 C414 0.950 . S
C419 C417 1.390 . S
C419 C420 1.387 . S
C419 H422 0.950 . S
C420 C419 1.387 . S
C420 C423 1.387 . S
H421 C417 0.950 . S
H422 C419 0.950 . S
C423 C414 1.390 . S
C423 H416 0.950 . S
C423 C420 1.387 . S
C424 C425 1.387 . S
C424 H428 0.950 . S
C424 C433 1.390 . S
C425 C424 1.387 . S
C425 C427 1.387 . S
H426 C433 0.950 . S
C427 C425 1.387 . S
C427 C429 1.390 . S
C427 H431 0.950 . S
H428 C424 0.950 . S
C429 C427 1.390 . S
C429 C430 1.387 . S
C429 H432 0.950 . S
C430 C429 1.387 . S
C430 C433 1.387 . S
H431 C427 0.950 . S
H432 C429 0.950 . S
C433 C424 1.390 . S
C433 H426 0.950 . S
C433 C430 1.387 . S
C434 C435 1.387 . S
C434 H438 0.950 . S
C434 C443 1.390 . S
C435 C434 1.387 . S
C435 C437 1.387 . S
H436 C443 0.950 . S
C437 C435 1.387 . S
C437 C439 1.390 . S
C437 H441 0.950 . S
H438 C434 0.950 . S
C439 C437 1.390 . S
C439 C440 1.387 . S
C439 H442 0.950 . S
C440 C439 1.387 . S
C440 C443 1.387 . S
H441 C437 0.950 . S
H442 C439 0.950 . S
C443 C434 1.390 . S
C443 H436 0.950 . S
C443 C440 1.387 . S
C444 C445 1.387 . S
C444 H448 0.950 . S
C444 C453 1.390 . S
C445 C444 1.387 . S
C445 C447 1.387 . S
H446 C453 0.950 . S
C447 C445 1.387 . S
C447 C449 1.390 . S
C447 H451 0.950 . S
H448 C444 0.950 . S
C449 C447 1.390 . S
C449 C450 1.387 . S
C449 H452 0.950 . S
C450 C449 1.387 . S
C450 C453 1.387 . S
H451 C447 0.950 . S
H452 C449 0.950 . S
C453 C444 1.390 . S
C453 H446 0.950 . S
C453 C450 1.387 . S
C454 C455 1.387 . S
C454 H458 0.950 . S
C454 C463 1.390 . S
C455 C454 1.387 . S
C455 C457 1.387 . S
H456 C463 0.950 . S
C457 C455 1.387 . S
C457 C459 1.390 . S
C457 H461 0.950 . S
H458 C454 0.950 . S
C459 C457 1.390 . S
C459 C460 1.387 . S
C459 H462 0.950 . S
C460 C459 1.387 . S
C460 C463 1.387 . S
H461 C457 0.950 . S
H462 C459 0.950 . S
C463 C454 1.390 . S
C463 H456 0.950 . S
C463 C460 1.387 . S
C464 C465 1.387 . S
C464 H468 0.950 . S
C464 C473 1.390 . S
C465 C464 1.387 . S
C465 C467 1.387 . S
H466 C473 0.950 . S
C467 C465 1.387 . S
C467 C469 1.390 . S
C467 H471 0.950 . S
H468 C464 0.950 . S
C469 C467 1.390 . S
C469 C470 1.387 . S
C469 H472 0.950 . S
C470 C469 1.387 . S
C470 C473 1.387 . S
H471 C467 0.950 . S
H472 C469 0.950 . S
C473 C464 1.390 . S
C473 H466 0.950 . S
C473 C470 1.387 . S
C474 C475 1.387 . S
C474 H478 0.950 . S
C474 C483 1.390 . S
C475 C474 1.387 . S
C475 C477 1.387 . S
H476 C483 0.950 . S
C477 C475 1.387 . S
C477 C479 1.390 . S
C477 H481 0.950 . S
H478 C474 0.950 . S
C479 C477 1.390 . S
C479 C480 1.387 . S
C479 H482 0.950 . S
C480 C479 1.387 . S
C480 C483 1.387 . S
H481 C477 0.950 . S
H482 C479 0.950 . S
C483 C474 1.390 . S
C483 H476 0.950 . S
C483 C480 1.387 . S
C484 C485 1.387 . S
C484 H488 0.950 . S
C484 C493 1.390 . S
C485 C484 1.387 . S
C485 C487 1.387 . S
H486 C493 0.950 . S
C487 C485 1.387 . S
C487 C489 1.390 . S
C487 H491 0.950 . S
H488 C484 0.950 . S
C489 C487 1.390 . S
C489 C490 1.387 . S
C489 H492 0.950 . S
C490 C489 1.387 . S
C490 C493 1.387 . S
H491 C487 0.950 . S
H492 C489 0.950 . S
C493 C484 1.390 . S
C493 H486 0.950 . S
C493 C490 1.387 . S
C494 C495 1.387 . S
C494 H498 0.950 . S
C494 C503 1.390 . S
C495 C494 1.387 . S
C495 C497 1.387 . S
H496 C503 0.950 . S
C497 C495 1.387 . S
C497 C499 1.390 . S
C497 H501 0.950 . S
H498 C494 0.950 . S
C499 C497 1.390 . S
C499 C500 1.387 . S
C499 H502 0.950 . S
C500 C499 1.387 . S
C500 C503 1.387 . S
H501 C497 0.950 . S
H502 C499 0.950 . S
C503 C494 1.390 . S
C503 H496 0.950 . S
C503 C500 1.387 . S
C504 C505 1.379 1_556 S
C504 H508 0.950 . S
C504 C513 1.390 . S
C505 C504 1.379 1_554 S
C505 C507 1.396 . S
H506 C513 0.950 . S
C507 C505 1.396 . S
C507 C509 1.390 . S
C507 H511 0.950 . S
H508 C504 0.950 . S
C509 C507 1.390 . S
C509 C510 1.386 1_554 S
C509 H512 0.950 . S
C510 C509 1.386 1_556 S
C510 C513 1.389 . S
H511 C507 0.950 . S
H512 C509 0.950 . S
C513 C504 1.390 . S
C513 H506 0.950 . S
C513 C510 1.389 . S
C514 C515 1.387 . S
C514 H518 0.950 . S
C514 C523 1.390 . S
C515 C514 1.387 . S
C515 C517 1.387 . S
H516 C523 0.950 . S
C517 C515 1.387 . S
C517 C519 1.390 . S
C517 H521 0.950 . S
H518 C514 0.950 . S
C519 C517 1.390 . S
C519 C520 1.387 . S
C519 H522 0.950 . S
C520 C519 1.387 . S
C520 C523 1.387 . S
H521 C517 0.950 . S
H522 C519 0.950 . S
C523 C514 1.390 . S
C523 H516 0.950 . S
C523 C520 1.387 . S
C524 C525 1.387 . S
C524 H528 0.950 . S
C524 C533 1.390 . S
C525 C524 1.387 . S
C525 C527 1.387 1_554 S
H526 C533 0.950 . S
C527 C525 1.387 1_556 S
C527 C529 1.390 . S
C527 H531 0.950 . S
H528 C524 0.950 . S
C529 C527 1.390 . S
C529 C530 1.387 1_556 S
C529 H532 0.950 . S
C530 C529 1.387 1_554 S
C530 C533 1.387 . S
H531 C527 0.950 . S
H532 C529 0.950 . S
C533 C524 1.390 . S
C533 H526 0.950 . S
C533 C530 1.387 . S
C534 C535 1.387 . S
C534 H538 0.950 . S
C534 C543 1.390 . S
C535 C534 1.387 . S
C535 C537 1.387 . S
H536 C543 0.950 . S
C537 C535 1.387 . S
C537 C539 1.390 . S
C537 H541 0.950 . S
H538 C534 0.950 . S
C539 C537 1.390 . S
C539 C540 1.387 . S
C539 H542 0.950 . S
C540 C539 1.387 . S
C540 C543 1.387 . S
H541 C537 0.950 . S
H542 C539 0.950 . S
C543 C534 1.390 . S
C543 H536 0.950 . S
C543 C540 1.387 . S
C544 C545 1.387 . S
C544 H548 0.950 . S
C544 C553 1.390 . S
C545 C544 1.387 . S
C545 C547 1.387 . S
H546 C553 0.950 . S
C547 C545 1.387 . S
C547 C549 1.390 . S
C547 H551 0.950 . S
H548 C544 0.950 . S
C549 C547 1.390 . S
C549 C550 1.387 . S
C549 H552 0.950 . S
C550 C549 1.387 . S
C550 C553 1.387 . S
H551 C547 0.950 . S
H552 C549 0.950 . S
C553 C544 1.390 . S
C553 H546 0.950 . S
C553 C550 1.387 . S
C554 C555 1.387 . S
C554 H558 0.950 . S
C554 C563 1.390 . S
C555 C554 1.387 . S
C555 C557 1.387 1_554 S
H556 C563 0.950 . S
C557 C555 1.387 1_556 S
C557 C559 1.390 . S
C557 H561 0.950 . S
H558 C554 0.950 . S
C559 C557 1.390 . S
C559 C560 1.387 1_556 S
C559 H562 0.950 . S
C560 C559 1.387 1_554 S
C560 C563 1.387 . S
H561 C557 0.950 . S
H562 C559 0.950 . S
C563 C554 1.390 . S
C563 H556 0.950 . S
C563 C560 1.387 . S
C564 C565 1.387 . S
C564 H568 0.950 . S
C564 C573 1.390 . S
C565 C564 1.387 . S
C565 C567 1.387 . S
H566 C573 0.950 . S
C567 C565 1.387 . S
C567 C569 1.390 . S
C567 H571 0.950 . S
H568 C564 0.950 . S
C569 C567 1.390 . S
C569 C570 1.387 . S
C569 H572 0.950 . S
C570 C569 1.387 . S
C570 C573 1.387 . S
H571 C567 0.950 . S
H572 C569 0.950 . S
C573 C564 1.390 . S
C573 H566 0.950 . S
C573 C570 1.387 . S
C574 C575 1.379 1_556 S
C574 H578 0.950 . S
C574 C583 1.390 . S
C575 C574 1.379 1_554 S
C575 C577 1.396 . S
H576 C583 0.950 . S
C577 C575 1.396 . S
C577 C579 1.390 . S
C577 H581 0.950 . S
H578 C574 0.950 . S
C579 C577 1.390 . S
C579 C580 1.386 1_554 S
C579 H582 0.950 . S
C580 C579 1.386 1_556 S
C580 C583 1.389 . S
H581 C577 0.950 . S
H582 C579 0.950 . S
C583 C574 1.390 . S
C583 H576 0.950 . S
C583 C580 1.389 . S
C345 C5 1.500 . S
C350 C201 1.509 . S
C355 C31 1.514 . S
C360 C117 1.432 . S
C370 C149 1.428 . S
C365 C53 1.507 . S
C375 C71 1.492 . S
C380 C169 1.502 . S
C390 C277 1.433 . S
C385 C75 1.513 . S
C400 C297 1.508 . S
C395 C9 1.501 . S
C410 C329 1.501 . S
C405 C27 1.494 . S
C420 C245 1.426 . S
C415 C49 1.507 . S
C425 C51 1.501 . S
C430 C137 1.436 . S
C435 C72 1.513 . S
C440 C181 1.518 . S
C445 C6 1.507 . S
C450 C213 1.510 . S
C460 C105 1.431 . S
C455 C29 1.494 . S
C465 C28 1.514 . S
C470 C341 1.517 . S
C480 C233 1.434 . S
C475 C50 1.501 . S
C490 C265 1.432 . S
C485 C73 1.493 . S
C495 C7 1.506 . S
C500 C309 1.511 . S
C510 C111 1.446 1_556 S
C505 C4 1.519 . S
C520 C143 1.443 . S
C515 C30 1.520 . S
C525 C52 1.520 . S
C530 C175 1.521 . S
C535 C70 1.520 . S
C540 C207 1.521 . S
C550 C239 1.446 . S
C545 C74 1.520 . S
C555 C8 1.519 . S
C560 C271 1.446 . S
C565 C26 1.519 . S
C570 C303 1.520 . S
C575 C48 1.520 . S
C580 C335 1.521 1_556 S
