# Generated by pormake.
# Topology ssa, (4,4)-cn, num edge types: 1
# Building blocks:
#     Node 0, Type 0, BuildingBlock: NAWXER_clean_sbu_0, # of connection points: 4
#     Node 1, Type 0, BuildingBlock: NAWXER_clean_sbu_0, # of connection points: 4
#     Node 2, Type 0, BuildingBlock: NAWXER_clean_sbu_0, # of connection points: 4
#     Node 3, Type 0, BuildingBlock: NAWXER_clean_sbu_0, # of connection points: 4
#     Node 4, Type 0, BuildingBlock: NAWXER_clean_sbu_0, # of connection points: 4
#     Node 5, Type 0, BuildingBlock: NAWXER_clean_sbu_0, # of connection points: 4
#     Node 6, Type 1, BuildingBlock: NAHDIM_clean_linker_0, # of connection points: 4
#     Node 7, Type 1, BuildingBlock: NAHDIM_clean_linker_0, # of connection points: 4
#     Node 8, Type 1, BuildingBlock: NAHDIM_clean_linker_0, # of connection points: 4
#     Node 9, Type 1, BuildingBlock: NAHDIM_clean_linker_0, # of connection points: 4
#     Node 10, Type 1, BuildingBlock: NAHDIM_clean_linker_0, # of connection points: 4
#     Node 11, Type 1, BuildingBlock: NAHDIM_clean_linker_0, # of connection points: 4
#     Edge 12, Type (0, 1), BuildingBlock: TEMPAE_clean_linker_10, # of connection points: 2
#     Edge 13, Type (0, 1), BuildingBlock: TEMPAE_clean_linker_10, # of connection points: 2
#     Edge 14, Type (0, 1), BuildingBlock: TEMPAE_clean_linker_10, # of connection points: 2
#     Edge 15, Type (0, 1), BuildingBlock: TEMPAE_clean_linker_10, # of connection points: 2
#     Edge 16, Type (0, 1), BuildingBlock: TEMPAE_clean_linker_10, # of connection points: 2
#     Edge 17, Type (0, 1), BuildingBlock: TEMPAE_clean_linker_10, # of connection points: 2
#     Edge 18, Type (0, 1), BuildingBlock: TEMPAE_clean_linker_10, # of connection points: 2
#     Edge 19, Type (0, 1), BuildingBlock: TEMPAE_clean_linker_10, # of connection points: 2
#     Edge 20, Type (0, 1), BuildingBlock: TEMPAE_clean_linker_10, # of connection points: 2
#     Edge 21, Type (0, 1), BuildingBlock: TEMPAE_clean_linker_10, # of connection points: 2
#     Edge 22, Type (0, 1), BuildingBlock: TEMPAE_clean_linker_10, # of connection points: 2
#     Edge 23, Type (0, 1), BuildingBlock: TEMPAE_clean_linker_10, # of connection points: 2
#     Edge 24, Type (0, 1), BuildingBlock: TEMPAE_clean_linker_10, # of connection points: 2
#     Edge 25, Type (0, 1), BuildingBlock: TEMPAE_clean_linker_10, # of connection points: 2
#     Edge 26, Type (0, 1), BuildingBlock: TEMPAE_clean_linker_10, # of connection points: 2
#     Edge 27, Type (0, 1), BuildingBlock: TEMPAE_clean_linker_10, # of connection points: 2
#     Edge 28, Type (0, 1), BuildingBlock: TEMPAE_clean_linker_10, # of connection points: 2
#     Edge 29, Type (0, 1), BuildingBlock: TEMPAE_clean_linker_10, # of connection points: 2
#     Edge 30, Type (0, 1), BuildingBlock: TEMPAE_clean_linker_10, # of connection points: 2
#     Edge 31, Type (0, 1), BuildingBlock: TEMPAE_clean_linker_10, # of connection points: 2
#     Edge 32, Type (0, 1), BuildingBlock: TEMPAE_clean_linker_10, # of connection points: 2
#     Edge 33, Type (0, 1), BuildingBlock: TEMPAE_clean_linker_10, # of connection points: 2
#     Edge 34, Type (0, 1), BuildingBlock: TEMPAE_clean_linker_10, # of connection points: 2
#     Edge 35, Type (0, 1), BuildingBlock: TEMPAE_clean_linker_10, # of connection points: 2
# Relax obj value: 0.028
# Max RMSD: 0.056
# Mean RMSD: 0.044
data_MOF--net-ssa--node1-NAWXER_clean_sbu_0--node2-NAHDIM_clean_linker_0--edge1-TEMPAE_clean_linker_10
_symmetry_space_group_name_H-M    P1
_symmetry_Int_Tables_number       1
_symmetry_cell_setting            triclinic
loop_
_symmetry_equiv_pos_as_xyz
'x, y, z'
_cell_length_a     61.178426
_cell_length_b     61.183148
_cell_length_c     52.272031
_cell_angle_alpha  89.77705
_cell_angle_beta   90.487115
_cell_angle_gamma 120.00438
loop_
_atom_site_label
_atom_site_type_symbol
_atom_site_fract_x
_atom_site_fract_y
_atom_site_fract_z
_atom_type_partial_charge
C0 C 0.05382 0.54504 0.01651 0.0
C1 C 0.01842 0.46907 0.96379 0.0
O2 O 0.03219 0.52747 0.02399 0.0
Zn3 Zn 0.00455 0.48973 0.01368 0.0
O4 O 0.06434 0.54119 0.99751 0.0
Zn5 Zn 0.03724 0.50705 0.99032 0.0
O6 O 0.00685 0.51368 0.97907 0.0
O7 O 0.97606 0.49403 0.00698 0.0
O8 O 0.0401 0.48857 0.96171 0.0
O9 O 0.00374 0.46748 0.98191 0.0
O10 O 0.00382 0.47021 0.04321 0.0
O11 O 0.03991 0.48683 0.02264 0.0
C12 C 0.98487 0.50791 0.98729 0.0
C13 C 0.026 0.47364 0.04126 0.0
C14 C 0.47211 0.00049 0.55723 0.0
C15 C 0.51412 0.97395 0.49592 0.0
O16 O 0.47158 0.97946 0.55712 0.0
Zn17 Zn 0.49294 0.98638 0.52731 0.0
O18 O 0.48487 0.01731 0.54047 0.0
Zn19 Zn 0.50853 0.02243 0.50866 0.0
O20 O 0.48991 0.02732 0.48114 0.0
O21 O 0.47041 0.98873 0.49711 0.0
O22 O 0.51826 0.99644 0.49215 0.0
O23 O 0.50021 0.96105 0.51443 0.0
O24 O 0.52904 0.01449 0.54097 0.0
O25 O 0.54118 0.04997 0.51983 0.0
C26 C 0.47105 0.005 0.48115 0.0
C27 C 0.54549 0.03765 0.53684 0.0
C28 C 0.48636 0.46971 0.98358 0.0
C29 C 0.52373 0.54744 0.03422 0.0
O30 O 0.48592 0.48975 0.97797 0.0
Zn31 Zn 0.50489 0.509 0.00774 0.0
O32 O 0.49839 0.46909 0.00353 0.0
Zn33 Zn 0.52035 0.49346 0.0344 0.0
O34 O 0.50102 0.47465 0.06394 0.0
O35 O 0.48022 0.48665 0.03793 0.0
O36 O 0.52839 0.53061 0.04298 0.0
O37 O 0.51018 0.54278 0.01417 0.0
O38 O 0.54181 0.51587 0.99895 0.0
O39 O 0.55374 0.49824 0.0287 0.0
C40 C 0.4809 0.47476 0.0579 0.0
C41 C 0.55835 0.51094 0.00815 0.0
C42 C 0.01473 0.53766 0.48165 0.0
C43 C 0.96983 0.45929 0.53038 0.0
O44 O 0.02725 0.53685 0.50105 0.0
Zn45 Zn 0.0232 0.5113 0.53093 0.0
O46 O 0.99318 0.51878 0.4766 0.0
Zn47 Zn 0.99171 0.49794 0.50545 0.0
O48 O 0.99061 0.51868 0.53818 0.0
O49 O 0.02531 0.53039 0.56095 0.0
O50 O 0.962 0.46521 0.51034 0.0
O51 O 0.99175 0.47471 0.53956 0.0
O52 O 0.04999 0.50397 0.5242 0.0
O53 O 0.01887 0.48706 0.49596 0.0
C54 C 0.00448 0.52998 0.55775 0.0
C55 C 0.04002 0.49037 0.50449 0.0
C56 C 0.55342 0.01898 0.05979 0.0
C57 C 0.51245 0.04775 0.99879 0.0
O58 O 0.55673 0.04115 0.05787 0.0
Zn59 Zn 0.53397 0.03427 0.02912 0.0
O60 O 0.5388 0.00176 0.04402 0.0
Zn61 Zn 0.51569 0.99789 0.01145 0.0
O62 O 0.53254 0.99116 0.98372 0.0
O63 O 0.55447 0.02991 0.99875 0.0
O64 O 0.50671 0.02474 0.99527 0.0
O65 O 0.52802 0.06061 0.01642 0.0
O66 O 0.49776 0.00734 0.04444 0.0
O67 O 0.48296 0.97165 0.02289 0.0
C68 C 0.55223 0.01287 0.98306 0.0
C69 C 0.48033 0.98441 0.04054 0.0
C70 C 0.5644 0.50963 0.53122 0.0
C71 C 0.48697 0.47355 0.48022 0.0
O72 O 0.54823 0.51515 0.54003 0.0
Zn73 Zn 0.51086 0.50803 0.53041 0.0
O74 O 0.55909 0.49601 0.51128 0.0
Zn75 Zn 0.52585 0.49132 0.50557 0.0
O76 O 0.53469 0.52871 0.49564 0.0
O77 O 0.5166 0.5417 0.52333 0.0
O78 O 0.50646 0.47169 0.47648 0.0
O79 O 0.48644 0.48631 0.4994 0.0
O80 O 0.49183 0.49011 0.56036 0.0
O81 O 0.50511 0.46864 0.53756 0.0
C82 C 0.53027 0.54586 0.5037 0.0
C83 C 0.49319 0.47029 0.5568 0.0
C84 C 0.0886 0.38467 0.38301 0.0
C85 C 0.11162 0.40373 0.3986 0.0
C86 C 0.14745 0.41769 0.369 0.0
C87 C 0.16543 0.4384 0.35522 0.0
C88 C 0.18382 0.4369 0.34078 0.0
C89 C 0.18382 0.41379 0.33965 0.0
C90 C 0.16563 0.39265 0.35351 0.0
C91 C 0.14773 0.39486 0.36826 0.0
C92 C 0.20331 0.46009 0.32684 0.0
C93 C 0.16508 0.36773 0.35265 0.0
C94 C 0.35838 0.41988 0.40442 0.0
C95 C 0.33407 0.40927 0.39016 0.0
C96 C 0.30824 0.42383 0.3679 0.0
C97 C 0.28954 0.39979 0.35951 0.0
C98 C 0.26859 0.39676 0.34534 0.0
C99 C 0.26651 0.41819 0.33915 0.0
C100 C 0.28545 0.4424 0.34735 0.0
C101 C 0.30603 0.44486 0.36171 0.0
C102 C 0.24864 0.37066 0.33697 0.0
C103 C 0.28393 0.46568 0.34092 0.0
C104 C 0.30873 0.4232 0.17822 0.0
C105 C 0.28877 0.39883 0.18371 0.0
C106 C 0.26645 0.39536 0.19485 0.0
C107 C 0.26411 0.41665 0.20072 0.0
C108 C 0.28383 0.44112 0.19445 0.0
C109 C 0.30589 0.44404 0.18325 0.0
C110 C 0.24566 0.36901 0.20115 0.0
C111 C 0.28191 0.46422 0.20037 0.0
C112 C 0.07636 0.38592 0.19037 0.0
C113 C 0.09831 0.40757 0.17616 0.0
C114 C 0.13509 0.4021 0.1768 0.0
C115 C 0.13867 0.38133 0.17855 0.0
C116 C 0.16005 0.38326 0.1909 0.0
C117 C 0.17854 0.40679 0.20113 0.0
C118 C 0.1757 0.42824 0.19802 0.0
C119 C 0.15391 0.42564 0.18598 0.0
C120 C 0.16259 0.36007 0.19357 0.0
C121 C 0.19549 0.45384 0.20777 0.0
C122 C 0.20326 0.41207 0.32442 0.0
C123 C 0.22434 0.41429 0.33738 0.0
C124 C 0.24454 0.41531 0.32409 0.0
C125 C 0.24396 0.41444 0.29706 0.0
C126 C 0.26442 0.4165 0.28307 0.0
C127 C 0.26387 0.41611 0.25648 0.0
C128 C 0.2428 0.41357 0.24281 0.0
C129 C 0.24227 0.41357 0.21576 0.0
C130 C 0.22113 0.4112 0.20272 0.0
C131 C 0.20025 0.40872 0.21605 0.0
C132 C 0.20042 0.40858 0.24315 0.0
C133 C 0.17973 0.40596 0.25722 0.0
C134 C 0.18049 0.40683 0.28384 0.0
C135 C 0.20187 0.41014 0.29743 0.0
C136 C 0.2225 0.41177 0.28369 0.0
C137 C 0.22186 0.4112 0.25653 0.0
C138 C 0.36121 0.41966 0.14742 0.0
C139 C 0.33733 0.40933 0.16209 0.0
O140 O 0.13027 0.42077 0.38247 0.0
O141 O 0.1135 0.399 0.16588 0.0
O142 O 0.33101 0.42748 0.16833 0.0
O143 O 0.3286 0.42761 0.38202 0.0
H144 H 0.11905 0.39356 0.41022 0.0
H145 H 0.09375 0.37367 0.37004 0.0
H146 H 0.08097 0.3945 0.37119 0.0
H147 H 0.07357 0.37118 0.396 0.0
H148 H 0.16509 0.45593 0.35598 0.0
H149 H 0.13404 0.37865 0.37892 0.0
H150 H 0.22256 0.46335 0.33092 0.0
H151 H 0.20262 0.47728 0.33226 0.0
H152 H 0.19998 0.45721 0.30591 0.0
H153 H 0.1483 0.35245 0.36242 0.0
H154 H 0.18234 0.36977 0.36208 0.0
H155 H 0.16509 0.36209 0.33248 0.0
H156 H 0.31783 0.39285 0.39958 0.0
H157 H 0.35293 0.41198 0.42431 0.0
H158 H 0.36367 0.43968 0.41006 0.0
H159 H 0.38098 0.41187 0.38084 0.0
H160 H 0.2911 0.38334 0.36397 0.0
H161 H 0.32058 0.46331 0.3682 0.0
H162 H 0.2298 0.36675 0.34351 0.0
H163 H 0.25224 0.35575 0.34457 0.0
H164 H 0.24801 0.3696 0.31576 0.0
H165 H 0.30096 0.48329 0.34737 0.0
H166 H 0.26711 0.4645 0.35018 0.0
H167 H 0.28163 0.46676 0.31993 0.0
H168 H 0.33564 0.39691 0.17852 0.0
H169 H 0.29061 0.38248 0.17973 0.0
H170 H 0.3213 0.46273 0.17877 0.0
H171 H 0.24363 0.36681 0.22223 0.0
H172 H 0.24944 0.35431 0.19351 0.0
H173 H 0.22741 0.36585 0.19319 0.0
H174 H 0.29834 0.48182 0.19311 0.0
H175 H 0.28075 0.46592 0.22139 0.0
H176 H 0.26438 0.46228 0.19174 0.0
H177 H 0.10901 0.4228 0.19042 0.0
H178 H 0.06389 0.39239 0.19867 0.0
H179 H 0.08377 0.37927 0.20623 0.0
H180 H 0.06505 0.3698 0.17727 0.0
H181 H 0.12422 0.36335 0.17093 0.0
H182 H 0.15166 0.442 0.1836 0.0
H183 H 0.16479 0.35668 0.21407 0.0
H184 H 0.1798 0.36312 0.18352 0.0
H185 H 0.14603 0.34295 0.18554 0.0
H186 H 0.19215 0.46913 0.20087 0.0
H187 H 0.21455 0.45806 0.20166 0.0
H188 H 0.19535 0.45383 0.229 0.0
H189 H 0.22528 0.41577 0.35809 0.0
H190 H 0.28119 0.41862 0.29252 0.0
H191 H 0.28027 0.41792 0.24681 0.0
H192 H 0.22098 0.41145 0.18196 0.0
H193 H 0.16278 0.40343 0.24783 0.0
H194 H 0.16411 0.40495 0.29365 0.0
H195 H 0.34942 0.40233 0.11153 0.0
H196 H 0.37444 0.41676 0.16022 0.0
H197 H 0.37145 0.44078 0.15003 0.0
C198 C 0.94317 0.28143 0.89676 0.0
C199 C 0.93664 0.29832 0.88035 0.0
C200 C 0.8928 0.27136 0.86526 0.0
C201 C 0.89717 0.25516 0.84985 0.0
C202 C 0.87765 0.23626 0.83504 0.0
C203 C 0.85354 0.23421 0.83469 0.0
C204 C 0.84918 0.25072 0.84993 0.0
C205 C 0.86879 0.26878 0.86531 0.0
C206 C 0.88288 0.21848 0.81979 0.0
C207 C 0.82389 0.24942 0.84989 0.0
C208 C 0.69935 0.05178 0.84481 0.0
C209 C 0.70256 0.06902 0.86747 0.0
C210 C 0.72889 0.11216 0.85023 0.0
C211 C 0.7285 0.13399 0.84318 0.0
C212 C 0.74987 0.15489 0.83296 0.0
C213 C 0.77217 0.15375 0.8293 0.0
C214 C 0.77302 0.13201 0.83709 0.0
C215 C 0.7514 0.11144 0.84765 0.0
C216 C 0.74836 0.17795 0.82544 0.0
C217 C 0.79655 0.13027 0.83355 0.0
C218 C 0.73459 0.12556 0.66221 0.0
C219 C 0.7297 0.14314 0.67419 0.0
C220 C 0.74846 0.16294 0.68878 0.0
C221 C 0.77247 0.16502 0.69151 0.0
C222 C 0.77766 0.1478 0.67868 0.0
C223 C 0.75866 0.12844 0.66388 0.0
C224 C 0.74257 0.18146 0.70154 0.0
C225 C 0.8031 0.14959 0.681 0.0
C226 C 0.91509 0.33767 0.61587 0.0
C227 C 0.90657 0.3143 0.63118 0.0
C228 C 0.87887 0.29269 0.66728 0.0
C229 C 0.86053 0.29272 0.68295 0.0
C230 C 0.84438 0.27145 0.69751 0.0
C231 C 0.84739 0.24996 0.69705 0.0
C232 C 0.86658 0.25017 0.68193 0.0
C233 C 0.88192 0.27141 0.66694 0.0
C234 C 0.82372 0.27176 0.71282 0.0
C235 C 0.87058 0.22776 0.68118 0.0
C236 C 0.83299 0.21497 0.81825 0.0
C237 C 0.81357 0.19348 0.83001 0.0
C238 C 0.79379 0.17462 0.81563 0.0
C239 C 0.79375 0.17668 0.78868 0.0
C240 C 0.7749 0.15739 0.77355 0.0
C241 C 0.77453 0.15987 0.74713 0.0
C242 C 0.79275 0.18191 0.73483 0.0
C243 C 0.79205 0.18494 0.70807 0.0
C244 C 0.81016 0.20724 0.6965 0.0
C245 C 0.82936 0.22667 0.71087 0.0
C246 C 0.83071 0.22382 0.73762 0.0
C247 C 0.85004 0.24274 0.75264 0.0
C248 C 0.85081 0.23995 0.77903 0.0
C249 C 0.83244 0.21801 0.79141 0.0
C250 C 0.81286 0.19866 0.77659 0.0
C251 C 0.81214 0.20145 0.74966 0.0
C252 C 0.68676 0.06392 0.66169 0.0
C253 C 0.69171 0.09067 0.65671 0.0
O254 O 0.91088 0.28939 0.8806 0.0
O255 O 0.89297 0.31338 0.65264 0.0
O256 O 0.71647 0.10566 0.64891 0.0
O257 O 0.70699 0.09234 0.85889 0.0
H258 H 0.94291 0.29834 0.86041 0.0
H259 H 0.96396 0.28955 0.89774 0.0
H260 H 0.93579 0.27943 0.91648 0.0
H261 H 0.93482 0.26226 0.88842 0.0
H262 H 0.9156 0.25685 0.84943 0.0
H263 H 0.86554 0.28131 0.87725 0.0
H264 H 0.86724 0.19871 0.82194 0.0
H265 H 0.90083 0.21947 0.82576 0.0
H266 H 0.88425 0.22345 0.79921 0.0
H267 H 0.82459 0.26571 0.85999 0.0
H268 H 0.80981 0.2318 0.85952 0.0
H269 H 0.81721 0.2489 0.82995 0.0
H270 H 0.71871 0.0715 0.87956 0.0
H271 H 0.69497 0.03286 0.85182 0.0
H272 H 0.71697 0.05974 0.83353 0.0
H273 H 0.68388 0.0496 0.83188 0.0
H274 H 0.71115 0.13447 0.84544 0.0
H275 H 0.75218 0.09483 0.85332 0.0
H276 H 0.74852 0.17948 0.80427 0.0
H277 H 0.76503 0.19529 0.83296 0.0
H278 H 0.73095 0.17718 0.83261 0.0
H279 H 0.7942 0.11202 0.84044 0.0
H280 H 0.81254 0.14588 0.84409 0.0
H281 H 0.80161 0.13249 0.81298 0.0
H282 H 0.68838 0.09755 0.67517 0.0
H283 H 0.71128 0.14143 0.67206 0.0
H284 H 0.76228 0.11495 0.65419 0.0
H285 H 0.74287 0.17939 0.72262 0.0
H286 H 0.72378 0.17856 0.69576 0.0
H287 H 0.75722 0.20109 0.69671 0.0
H288 H 0.80365 0.13387 0.67101 0.0
H289 H 0.80799 0.14942 0.70148 0.0
H290 H 0.81777 0.16772 0.67269 0.0
H291 H 0.92146 0.3093 0.63522 0.0
H292 H 0.9363 0.34764 0.61702 0.0
H293 H 0.91334 0.35152 0.62859 0.0
H294 H 0.8952 0.32465 0.58128 0.0
H295 H 0.85837 0.30926 0.68309 0.0
H296 H 0.89624 0.27124 0.65507 0.0
H297 H 0.82758 0.27135 0.73354 0.0
H298 H 0.80526 0.25473 0.70845 0.0
H299 H 0.82221 0.28881 0.70889 0.0
H300 H 0.88892 0.23253 0.67239 0.0
H301 H 0.85523 0.21248 0.66972 0.0
H302 H 0.86988 0.22035 0.70077 0.0
H303 H 0.81363 0.19159 0.85065 0.0
H304 H 0.76023 0.14009 0.78195 0.0
H305 H 0.75958 0.14438 0.7365 0.0
H306 H 0.80924 0.20952 0.67599 0.0
H307 H 0.86472 0.25998 0.74415 0.0
H308 H 0.86594 0.25531 0.78961 0.0
H309 H 0.69008 0.05583 0.64413 0.0
H310 H 0.667 0.0515 0.66802 0.0
H311 H 0.69966 0.06433 0.67701 0.0
C312 C 0.62957 0.69465 0.37666 0.0
C313 C 0.60962 0.69881 0.38974 0.0
C314 C 0.59545 0.7186 0.35739 0.0
C315 C 0.57465 0.71501 0.34287 0.0
C316 C 0.57538 0.7347 0.3284 0.0
C317 C 0.59777 0.7585 0.3281 0.0
C318 C 0.6192 0.7621 0.34212 0.0
C319 C 0.61782 0.74216 0.35674 0.0
C320 C 0.55202 0.73025 0.31398 0.0
C321 C 0.64343 0.78718 0.342 0.0
C322 C 0.57225 0.90321 0.41869 0.0
C323 C 0.58514 0.89228 0.40387 0.0
C324 C 0.57505 0.85906 0.37228 0.0
C325 C 0.60028 0.86696 0.36615 0.0
C326 C 0.60608 0.85361 0.34823 0.0
C327 C 0.58628 0.83205 0.33616 0.0
C328 C 0.5609 0.82439 0.34191 0.0
C329 C 0.55564 0.83802 0.35993 0.0
C330 C 0.63334 0.86222 0.34251 0.0
C331 C 0.53934 0.80148 0.32936 0.0
C332 C 0.59905 0.89246 0.17465 0.0
C333 C 0.62075 0.89787 0.18885 0.0
C334 C 0.6231 0.8784 0.20049 0.0
C335 C 0.60284 0.85318 0.19878 0.0
C336 C 0.58095 0.84779 0.18445 0.0
C337 C 0.57964 0.8675 0.17211 0.0
C338 C 0.64725 0.88484 0.21452 0.0
C339 C 0.55881 0.82128 0.18226 0.0
C340 C 0.62111 0.69173 0.16239 0.0
C341 C 0.59956 0.6956 0.15288 0.0
C342 C 0.60868 0.73858 0.15897 0.0
C343 C 0.631 0.76134 0.16329 0.0
C344 C 0.6313 0.77999 0.17914 0.0
C345 C 0.60854 0.77585 0.19031 0.0
C346 C 0.58566 0.7533 0.18486 0.0
C347 C 0.58603 0.73484 0.16934 0.0
C348 C 0.65594 0.80386 0.18435 0.0
C349 C 0.56083 0.7486 0.19556 0.0
C350 C 0.59801 0.78016 0.31496 0.0
C351 C 0.59352 0.79636 0.32987 0.0
C352 C 0.59209 0.81645 0.31893 0.0
C353 C 0.59534 0.82073 0.29229 0.0
C354 C 0.59359 0.84053 0.2806 0.0
C355 C 0.59651 0.84438 0.2543 0.0
C356 C 0.60146 0.82868 0.23869 0.0
C357 C 0.60444 0.83241 0.2119 0.0
C358 C 0.60782 0.8155 0.19684 0.0
C359 C 0.60843 0.79492 0.20775 0.0
C360 C 0.60685 0.79167 0.23461 0.0
C361 C 0.6087 0.77192 0.24635 0.0
C362 C 0.60621 0.76832 0.27271 0.0
C363 C 0.60152 0.78419 0.28829 0.0
C364 C 0.6001 0.80454 0.27692 0.0
C365 C 0.60302 0.80843 0.25008 0.0
C366 C 0.59809 0.94998 0.15494 0.0
C367 C 0.60671 0.9355 0.17085 0.0
O368 O 0.59292 0.69885 0.37167 0.0
O369 O 0.60941 0.72039 0.14487 0.0
O370 O 0.5963 0.91069 0.16277 0.0
O371 O 0.56861 0.87099 0.39001 0.0
H372 H 0.61906 0.71713 0.40017 0.0
H373 H 0.64044 0.70991 0.36267 0.0
H374 H 0.62051 0.67632 0.36631 0.0
H375 H 0.64304 0.6947 0.39109 0.0
H376 H 0.55755 0.69674 0.34337 0.0
H377 H 0.63423 0.74524 0.36761 0.0
H378 H 0.54659 0.74427 0.31999 0.0
H379 H 0.53579 0.71099 0.31715 0.0
H380 H 0.55602 0.73287 0.29318 0.0
H381 H 0.65928 0.78611 0.35127 0.0
H382 H 0.64057 0.80134 0.35238 0.0
H383 H 0.64877 0.794 0.32205 0.0
H384 H 0.59958 0.88991 0.41477 0.0
H385 H 0.57634 0.90116 0.43933 0.0
H386 H 0.55171 0.88824 0.41968 0.0
H387 H 0.58465 0.93843 0.40144 0.0
H388 H 0.61553 0.88332 0.37545 0.0
H389 H 0.53626 0.83215 0.36469 0.0
H390 H 0.63758 0.84714 0.34788 0.0
H391 H 0.64657 0.87976 0.35297 0.0
H392 H 0.63673 0.86563 0.32166 0.0
H393 H 0.52066 0.79896 0.33463 0.0
H394 H 0.53999 0.78434 0.33517 0.0
H395 H 0.54126 0.80311 0.30823 0.0
H396 H 0.60547 0.93726 0.19196 0.0
H397 H 0.63607 0.91717 0.19045 0.0
H398 H 0.56307 0.86357 0.16091 0.0
H399 H 0.64403 0.88396 0.23544 0.0
H400 H 0.66276 0.9041 0.20978 0.0
H401 H 0.65339 0.87104 0.20985 0.0
H402 H 0.5418 0.82093 0.17411 0.0
H403 H 0.55401 0.81199 0.2013 0.0
H404 H 0.5639 0.81001 0.1696 0.0
H405 H 0.58663 0.69147 0.16936 0.0
H406 H 0.61363 0.67194 0.16888 0.0
H407 H 0.63087 0.70448 0.17883 0.0
H408 H 0.63512 0.69599 0.14702 0.0
H409 H 0.64833 0.76412 0.15488 0.0
H410 H 0.56863 0.7175 0.16521 0.0
H411 H 0.65925 0.80669 0.20531 0.0
H412 H 0.65499 0.82029 0.17663 0.0
H413 H 0.67223 0.8035 0.17556 0.0
H414 H 0.54448 0.73169 0.18697 0.0
H415 H 0.55846 0.76524 0.19217 0.0
H416 H 0.56067 0.74573 0.21655 0.0
H417 H 0.59066 0.79302 0.3503 0.0
H418 H 0.58984 0.8532 0.29166 0.0
H419 H 0.5947 0.85977 0.24636 0.0
H420 H 0.60925 0.81796 0.17624 0.0
H421 H 0.61208 0.75901 0.23526 0.0
H422 H 0.60776 0.7528 0.28072 0.0
H423 H 0.63113 0.97757 0.1376 0.0
H424 H 0.58677 0.95472 0.16838 0.0
H425 H 0.5812 0.93576 0.14363 0.0
C426 C 0.74556 0.59428 0.93049 0.0
C427 C 0.72421 0.59314 0.91385 0.0
C428 C 0.73934 0.58752 0.87232 0.0
C429 C 0.7581 0.61275 0.86831 0.0
C430 C 0.77704 0.61893 0.8501 0.0
C431 C 0.77743 0.59948 0.8359 0.0
C432 C 0.75787 0.57417 0.8391 0.0
C433 C 0.73881 0.56864 0.85698 0.0
C434 C 0.79725 0.64618 0.8468 0.0
C435 C 0.75777 0.55278 0.82469 0.0
C436 C 0.90299 0.62069 0.94113 0.0
C437 C 0.90102 0.60279 0.91966 0.0
C438 C 0.89677 0.6152 0.87676 0.0
C439 C 0.87863 0.59191 0.86651 0.0
C440 C 0.86192 0.59067 0.84728 0.0
C441 C 0.86343 0.61322 0.83824 0.0
C442 C 0.88284 0.63682 0.84736 0.0
C443 C 0.89954 0.63751 0.86638 0.0
C444 C 0.84188 0.5652 0.83752 0.0
C445 C 0.88508 0.66119 0.83798 0.0
C446 C 0.91286 0.62354 0.67897 0.0
C447 C 0.89499 0.5992 0.68711 0.0
C448 C 0.87179 0.59435 0.69719 0.0
C449 C 0.86658 0.61436 0.6994 0.0
C450 C 0.88398 0.63854 0.68978 0.0
C451 C 0.90682 0.64272 0.67935 0.0
C452 C 0.85323 0.56809 0.70631 0.0
C453 C 0.87886 0.66019 0.6914 0.0
C454 C 0.68753 0.57632 0.61735 0.0
C455 C 0.71144 0.59086 0.63217 0.0
C456 C 0.73501 0.58418 0.66646 0.0
C457 C 0.73606 0.56571 0.68129 0.0
C458 C 0.75752 0.5713 0.69601 0.0
C459 C 0.77813 0.59636 0.69665 0.0
C460 C 0.77707 0.61528 0.68191 0.0
C461 C 0.75566 0.60894 0.6667 0.0
C462 C 0.75813 0.55031 0.71071 0.0
C463 C 0.79854 0.64223 0.68218 0.0
C464 C 0.80006 0.60507 0.82075 0.0
C465 C 0.82116 0.60823 0.8344 0.0
C466 C 0.84279 0.61182 0.82196 0.0
C467 C 0.84362 0.6124 0.79497 0.0
C468 C 0.86508 0.61596 0.78184 0.0
C469 C 0.86546 0.61588 0.75524 0.0
C470 C 0.84421 0.61173 0.74075 0.0
C471 C 0.84409 0.6106 0.71372 0.0
C472 C 0.82243 0.6058 0.69996 0.0
C473 C 0.80087 0.60263 0.71245 0.0
C474 C 0.80094 0.6045 0.73946 0.0
C475 C 0.78001 0.6024 0.75266 0.0
C476 C 0.77981 0.603 0.77929 0.0
C477 C 0.80051 0.60572 0.79371 0.0
C478 C 0.82227 0.60906 0.78078 0.0
C479 C 0.82251 0.60853 0.75363 0.0
C480 C 0.97533 0.64313 0.69228 0.0
C481 C 0.95102 0.62054 0.68213 0.0
O482 O 0.72187 0.58046 0.89113 0.0
O483 O 0.71382 0.57731 0.65227 0.0
O484 O 0.93611 0.62915 0.67087 0.0
O485 O 0.91098 0.61649 0.89738 0.0
H486 H 0.72832 0.61264 0.90954 0.0
H487 H 0.76401 0.6053 0.92079 0.0
H488 H 0.74221 0.57496 0.9343 0.0
H489 H 0.74679 0.60369 0.94902 0.0
H490 H 0.75836 0.62766 0.87958 0.0
H491 H 0.72406 0.54927 0.86002 0.0
H492 H 0.8149 0.64934 0.8563 0.0
H493 H 0.79176 0.65931 0.85535 0.0
H494 H 0.80136 0.65078 0.82619 0.0
H495 H 0.74225 0.53402 0.83083 0.0
H496 H 0.77602 0.55328 0.82757 0.0
H497 H 0.75554 0.55491 0.80391 0.0
H498 H 0.88041 0.58923 0.91739 0.0
H499 H 0.89678 0.61036 0.95958 0.0
H500 H 0.89057 0.62862 0.93658 0.0
H501 H 0.92257 0.63671 0.94326 0.0
H502 H 0.87714 0.5747 0.87404 0.0
H503 H 0.9139 0.65541 0.87422 0.0
H504 H 0.84121 0.56521 0.81629 0.0
H505 H 0.82314 0.56119 0.84452 0.0
H506 H 0.84519 0.54977 0.84403 0.0
H507 H 0.90206 0.67801 0.84584 0.0
H508 H 0.86806 0.66202 0.84365 0.0
H509 H 0.88595 0.66193 0.81676 0.0
H510 H 0.94144 0.60845 0.69903 0.0
H511 H 0.89925 0.58405 0.68577 0.0
H512 H 0.92057 0.6613 0.6725 0.0
H513 H 0.85269 0.56791 0.72753 0.0
H514 H 0.85839 0.55397 0.69993 0.0
H515 H 0.83395 0.56237 0.69918 0.0
H516 H 0.89446 0.67793 0.68333 0.0
H517 H 0.87611 0.66355 0.71168 0.0
H518 H 0.86118 0.65531 0.68085 0.0
H519 H 0.71602 0.61031 0.63762 0.0
H520 H 0.67706 0.58687 0.62025 0.0
H521 H 0.67446 0.5598 0.62965 0.0
H522 H 0.69959 0.57199 0.58131 0.0
H523 H 0.72008 0.54665 0.68091 0.0
H524 H 0.75511 0.62347 0.65533 0.0
H525 H 0.75576 0.55245 0.7314 0.0
H526 H 0.77657 0.5512 0.70824 0.0
H527 H 0.74284 0.53139 0.70454 0.0
H528 H 0.79323 0.65534 0.67298 0.0
H529 H 0.81477 0.64339 0.67167 0.0
H530 H 0.80485 0.64861 0.70211 0.0
H531 H 0.82052 0.60729 0.85515 0.0
H532 H 0.8818 0.61882 0.792 0.0
H533 H 0.88257 0.61879 0.74621 0.0
H534 H 0.82231 0.60439 0.67927 0.0
H535 H 0.76346 0.60005 0.74254 0.0
H536 H 0.76312 0.60105 0.78848 0.0
H537 H 0.98582 0.6566 0.67663 0.0
H538 H 0.98766 0.63668 0.70126 0.0
H539 H 0.97069 0.6532 0.707 0.0
C540 C 0.11816 0.72092 0.41188 0.0
C541 C 0.10456 0.70405 0.38868 0.0
C542 C 0.13812 0.72607 0.35679 0.0
C543 C 0.13466 0.7469 0.35282 0.0
C544 C 0.15208 0.76781 0.33851 0.0
C545 C 0.17344 0.76797 0.32811 0.0
C546 C 0.1769 0.74699 0.33201 0.0
C547 C 0.15898 0.72619 0.34602 0.0
C548 C 0.14771 0.78977 0.33453 0.0
C549 C 0.19963 0.7466 0.32157 0.0
C550 C 0.31189 0.95523 0.35313 0.0
C551 C 0.31267 0.93743 0.37343 0.0
C552 C 0.29045 0.89549 0.35262 0.0
C553 C 0.29388 0.87628 0.34267 0.0
C554 C 0.27386 0.85482 0.33128 0.0
C555 C 0.24984 0.85282 0.32924 0.0
C556 C 0.24592 0.87172 0.34013 0.0
C557 C 0.26622 0.89278 0.35196 0.0
C558 C 0.27865 0.83466 0.32074 0.0
C559 C 0.22047 0.87 0.33859 0.0
C560 C 0.29375 0.89415 0.16667 0.0
C561 C 0.29751 0.87498 0.17677 0.0
C562 C 0.27784 0.85405 0.18908 0.0
C563 C 0.25396 0.85229 0.19124 0.0
C564 C 0.24984 0.87103 0.18006 0.0
C565 C 0.2698 0.89164 0.16766 0.0
C566 C 0.28264 0.83398 0.20012 0.0
C567 C 0.22452 0.86953 0.18174 0.0
C568 C 0.09129 0.69129 0.14106 0.0
C569 C 0.11589 0.69956 0.12648 0.0
C570 C 0.14932 0.72452 0.15809 0.0
C571 C 0.16874 0.72504 0.17279 0.0
C572 C 0.18434 0.74585 0.18827 0.0
C573 C 0.17998 0.76645 0.18948 0.0
C574 C 0.16017 0.76599 0.17488 0.0
C575 C 0.14519 0.74515 0.15913 0.0
C576 C 0.20567 0.7459 0.20307 0.0
C577 C 0.15495 0.78761 0.1758 0.0
C578 C 0.19222 0.79009 0.31322 0.0
C579 C 0.2108 0.81093 0.32675 0.0
C580 C 0.22956 0.83202 0.31394 0.0
C581 C 0.22984 0.8325 0.28688 0.0
C582 C 0.24817 0.85359 0.27338 0.0
C583 C 0.24921 0.85337 0.24684 0.0
C584 C 0.23193 0.83208 0.23273 0.0
C585 C 0.23356 0.83123 0.20583 0.0
C586 C 0.21617 0.80976 0.19239 0.0
C587 C 0.19689 0.78898 0.20506 0.0
C588 C 0.19475 0.78955 0.23195 0.0
C589 C 0.17533 0.76918 0.2453 0.0
C590 C 0.17416 0.76949 0.27189 0.0
C591 C 0.19242 0.79013 0.28614 0.0
C592 C 0.21152 0.81128 0.27298 0.0
C593 C 0.21264 0.81103 0.24586 0.0
C594 C 0.34347 0.9544 0.17371 0.0
C595 C 0.3375 0.92825 0.16457 0.0
O596 O 0.12206 0.70564 0.37095 0.0
O597 O 0.13519 0.70376 0.14338 0.0
O598 O 0.31275 0.91519 0.15579 0.0
O599 O 0.31116 0.91629 0.36205 0.0
H600 H 0.09192 0.71009 0.37965 0.0
H601 H 0.12951 0.74098 0.40604 0.0
H602 H 0.13099 0.71514 0.42096 0.0
H603 H 0.10428 0.71957 0.42627 0.0
H604 H 0.11844 0.747 0.36075 0.0
H605 H 0.16146 0.71003 0.34911 0.0
H606 H 0.16293 0.80673 0.34426 0.0
H607 H 0.12924 0.78598 0.34216 0.0
H608 H 0.14848 0.7942 0.31382 0.0
H609 H 0.20088 0.73007 0.32852 0.0
H610 H 0.2172 0.76412 0.3271 0.0
H611 H 0.19859 0.7459 0.30036 0.0
H612 H 0.29656 0.93156 0.38672 0.0
H613 H 0.31422 0.97261 0.36237 0.0
H614 H 0.29355 0.94606 0.34278 0.0
H615 H 0.3271 0.96062 0.33887 0.0
H616 H 0.31253 0.87836 0.34355 0.0
H617 H 0.26306 0.90719 0.36008 0.0
H618 H 0.27949 0.83597 0.29955 0.0
H619 H 0.26303 0.81559 0.32588 0.0
H620 H 0.29673 0.83672 0.32792 0.0
H621 H 0.22066 0.88665 0.34724 0.0
H622 H 0.20627 0.85275 0.34867 0.0
H623 H 0.21434 0.86835 0.31829 0.0
H624 H 0.34021 0.91871 0.18149 0.0
H625 H 0.31576 0.87631 0.17498 0.0
H626 H 0.26702 0.90635 0.15938 0.0
H627 H 0.28108 0.83381 0.22128 0.0
H628 H 0.30163 0.83715 0.19518 0.0
H629 H 0.26813 0.81509 0.19301 0.0
H630 H 0.22449 0.88586 0.1724 0.0
H631 H 0.21923 0.86883 0.20212 0.0
H632 H 0.20986 0.85189 0.17249 0.0
H633 H 0.12108 0.71715 0.1156 0.0
H634 H 0.0758 0.6877 0.12744 0.0
H635 H 0.09346 0.70617 0.15459 0.0
H636 H 0.08584 0.6738 0.15217 0.0
H637 H 0.17181 0.70908 0.17185 0.0
H638 H 0.13035 0.74521 0.14783 0.0
H639 H 0.20183 0.74501 0.22387 0.0
H640 H 0.22365 0.76366 0.19944 0.0
H641 H 0.20813 0.72965 0.19798 0.0
H642 H 0.13702 0.78306 0.1659 0.0
H643 H 0.17063 0.8044 0.16647 0.0
H644 H 0.15401 0.79273 0.19596 0.0
H645 H 0.21091 0.81053 0.3475 0.0
H646 H 0.26211 0.87047 0.28318 0.0
H647 H 0.26393 0.87004 0.23754 0.0
H648 H 0.21785 0.8091 0.17179 0.0
H649 H 0.16096 0.75268 0.23534 0.0
H650 H 0.15892 0.75319 0.28115 0.0
H651 H 0.36328 0.96529 0.18077 0.0
H652 H 0.33072 0.95244 0.18965 0.0
H653 H 0.34075 0.96509 0.15796 0.0
C654 C 0.36926 0.08079 0.62162 0.0
C655 C 0.39338 0.09039 0.63766 0.0
C656 C 0.39067 0.10908 0.67709 0.0
C657 C 0.41468 0.13025 0.68032 0.0
C658 C 0.41779 0.15178 0.69306 0.0
C659 C 0.39631 0.1522 0.70232 0.0
C660 C 0.37211 0.13049 0.69974 0.0
C661 C 0.36965 0.109 0.68739 0.0
C662 C 0.44397 0.17419 0.69626 0.0
C663 C 0.34887 0.13021 0.70958 0.0
C664 C 0.44371 0.3364 0.61702 0.0
C665 C 0.44026 0.31147 0.62508 0.0
C666 C 0.41519 0.27682 0.65442 0.0
C667 C 0.39263 0.26366 0.66794 0.0
C668 C 0.3881 0.24338 0.68406 0.0
C669 C 0.40711 0.23682 0.68747 0.0
C670 C 0.42975 0.24971 0.67337 0.0
C671 C 0.4333 0.26914 0.65665 0.0
C672 C 0.3632 0.22938 0.69777 0.0
C673 C 0.45042 0.24315 0.67589 0.0
C674 C 0.42783 0.30635 0.84487 0.0
C675 C 0.40371 0.2848 0.84309 0.0
C676 C 0.40046 0.26221 0.83278 0.0
C677 C 0.42174 0.26111 0.82411 0.0
C678 C 0.44603 0.28276 0.82585 0.0
C679 C 0.44871 0.30516 0.83608 0.0
C680 C 0.37428 0.23949 0.83105 0.0
C681 C 0.46911 0.28221 0.81685 0.0
C682 C 0.40265 0.08169 0.86762 0.0
C683 C 0.42569 0.10692 0.87508 0.0
C684 C 0.41797 0.1419 0.86972 0.0
C685 C 0.39624 0.14392 0.86862 0.0
C686 C 0.39509 0.16194 0.85283 0.0
C687 C 0.41648 0.17865 0.83835 0.0
C688 C 0.43903 0.17763 0.84062 0.0
C689 C 0.43951 0.15918 0.85625 0.0
C690 C 0.37086 0.1627 0.85108 0.0
C691 C 0.46247 0.19572 0.82616 0.0
C692 C 0.39914 0.17568 0.71379 0.0
C693 C 0.39962 0.19394 0.69724 0.0
C694 C 0.404 0.21725 0.70641 0.0
C695 C 0.40752 0.22241 0.73298 0.0
C696 C 0.41233 0.24576 0.74292 0.0
C697 C 0.41555 0.25057 0.76906 0.0
C698 C 0.41485 0.23252 0.78627 0.0
C699 C 0.41845 0.2374 0.81285 0.0
C700 C 0.41868 0.21946 0.82932 0.0
C701 C 0.41502 0.19646 0.82001 0.0
C702 C 0.41057 0.19091 0.79358 0.0
C703 C 0.40618 0.16771 0.78364 0.0
C704 C 0.40233 0.16262 0.75756 0.0
C705 C 0.40258 0.18049 0.74039 0.0
C706 C 0.40671 0.20391 0.75 0.0
C707 C 0.41065 0.20909 0.77664 0.0
C708 C 0.42595 0.35495 0.88498 0.0
C709 C 0.4143 0.33185 0.86872 0.0
O710 O 0.38748 0.08892 0.66339 0.0
O711 O 0.4177 0.12312 0.88383 0.0
O712 O 0.43179 0.32843 0.85518 0.0
O713 O 0.41905 0.29696 0.63984 0.0
H714 H 0.4062 0.11044 0.63204 0.0
H715 H 0.36058 0.09266 0.62523 0.0
H716 H 0.35536 0.06094 0.62665 0.0
H717 H 0.37364 0.08185 0.60091 0.0
H718 H 0.43091 0.12991 0.67265 0.0
H719 H 0.3512 0.0924 0.68488 0.0
H720 H 0.44572 0.19003 0.68439 0.0
H721 H 0.45885 0.1699 0.69044 0.0
H722 H 0.44731 0.18058 0.7165 0.0
H723 H 0.33141 0.11186 0.70604 0.0
H724 H 0.34686 0.14542 0.70016 0.0
H725 H 0.35087 0.13406 0.73045 0.0
H726 H 0.44254 0.30026 0.60961 0.0
H727 H 0.44171 0.33523 0.59557 0.0
H728 H 0.47728 0.36252 0.63569 0.0
H729 H 0.4251 0.33552 0.6203 0.0
H730 H 0.37856 0.26938 0.66589 0.0
H731 H 0.45056 0.2785 0.64576 0.0
H732 H 0.35612 0.20875 0.69777 0.0
H733 H 0.34867 0.23287 0.68889 0.0
H734 H 0.36581 0.23575 0.71798 0.0
H735 H 0.46859 0.25814 0.66794 0.0
H736 H 0.44471 0.22547 0.66516 0.0
H737 H 0.45352 0.23999 0.6962 0.0
H738 H 0.3979 0.329 0.85676 0.0
H739 H 0.38733 0.28551 0.84962 0.0
H740 H 0.46724 0.32186 0.83754 0.0
H741 H 0.36979 0.23309 0.81085 0.0
H742 H 0.3596 0.24348 0.83825 0.0
H743 H 0.37352 0.22371 0.84234 0.0
H744 H 0.48678 0.30037 0.82036 0.0
H745 H 0.46737 0.27804 0.79604 0.0
H746 H 0.47051 0.26687 0.8268 0.0
H747 H 0.4373 0.11456 0.85752 0.0
H748 H 0.40866 0.06838 0.86066 0.0
H749 H 0.39199 0.08468 0.85201 0.0
H750 H 0.38987 0.0731 0.88419 0.0
H751 H 0.37987 0.13072 0.87948 0.0
H752 H 0.45667 0.15821 0.85796 0.0
H753 H 0.36433 0.1603 0.83086 0.0
H754 H 0.37426 0.1814 0.85762 0.0
H755 H 0.35562 0.14781 0.86286 0.0
H756 H 0.47919 0.19431 0.83217 0.0
H757 H 0.46667 0.21542 0.82909 0.0
H758 H 0.45924 0.1916 0.80537 0.0
H759 H 0.3973 0.19023 0.67682 0.0
H760 H 0.41358 0.26061 0.73065 0.0
H761 H 0.41889 0.26878 0.77557 0.0
H762 H 0.42184 0.22348 0.84965 0.0
H763 H 0.40574 0.1532 0.79592 0.0
H764 H 0.39919 0.1445 0.751 0.0
H765 H 0.41867 0.36718 0.87681 0.0
H766 H 0.44578 0.36729 0.87785 0.0
H767 H 0.418 0.34071 0.92241 0.0
C768 C 0.06175 0.46982 0.05984 0.0
C769 C 0.0362 0.46311 0.06049 0.0
C770 C 0.07203 0.46063 0.07817 0.0
C771 C 0.05639 0.44418 0.09756 0.0
C772 C 0.03052 0.43708 0.09818 0.0
C773 C 0.02075 0.4467 0.07969 0.0
C774 C 0.09974 0.46878 0.07695 0.0
C775 C 0.01321 0.41945 0.11848 0.0
C776 C 0.07834 0.40382 0.13246 0.0
C777 C 0.08838 0.41752 0.15517 0.0
C778 C 0.06784 0.41225 0.11354 0.0
C779 C 0.06727 0.43485 0.11748 0.0
C780 C 0.07732 0.44871 0.14039 0.0
C781 C 0.08764 0.43981 0.15899 0.0
C782 C 0.05724 0.39692 0.0894 0.0
C783 C 0.07711 0.47291 0.14529 0.0
H784 H 0.07389 0.48254 0.04514 0.0
H785 H 0.00099 0.44137 0.08029 0.0
H786 H 0.10939 0.47881 0.09483 0.0
H787 H 0.1021 0.45201 0.07541 0.0
H788 H 0.10928 0.48145 0.06047 0.0
H789 H 0.99344 0.41528 0.11595 0.0
H790 H 0.01339 0.40141 0.11807 0.0
H791 H 0.02002 0.42789 0.1377 0.0
H792 H 0.07852 0.38637 0.12964 0.0
H793 H 0.09504 0.45024 0.17667 0.0
H794 H 0.06714 0.40858 0.07247 0.0
H795 H 0.03698 0.39109 0.08727 0.0
H796 H 0.05908 0.37975 0.08931 0.0
H797 H 0.08754 0.48678 0.12996 0.0
H798 H 0.08578 0.4815 0.16403 0.0
H799 H 0.05743 0.46926 0.14486 0.0
C800 C 0.57493 0.03373 0.56711 0.0
C801 C 0.56926 0.04925 0.55195 0.0
C802 C 0.5967 0.04384 0.58237 0.0
C803 C 0.61332 0.07024 0.58267 0.0
C804 C 0.60808 0.08609 0.56707 0.0
C805 C 0.58607 0.07538 0.55179 0.0
C806 C 0.60164 0.0262 0.59855 0.0
C807 C 0.62545 0.11431 0.56693 0.0
C808 C 0.6517 0.09026 0.64388 0.0
C809 C 0.67362 0.09019 0.6365 0.0
C810 C 0.63266 0.08577 0.62603 0.0
C811 C 0.63555 0.08085 0.6002 0.0
C812 C 0.6583 0.08224 0.59233 0.0
C813 C 0.67703 0.08676 0.61062 0.0
C814 C 0.60869 0.08443 0.63522 0.0
C815 C 0.66212 0.07712 0.56498 0.0
H816 H 0.56223 0.01349 0.56719 0.0
H817 H 0.58184 0.08747 0.54009 0.0
H818 H 0.62045 0.0287 0.59407 0.0
H819 H 0.60181 0.03073 0.61911 0.0
H820 H 0.58721 0.00606 0.59551 0.0
H821 H 0.61948 0.12388 0.55271 0.0
H822 H 0.62585 0.12209 0.58617 0.0
H823 H 0.64502 0.11891 0.56257 0.0
H824 H 0.64894 0.09274 0.66389 0.0
H825 H 0.69388 0.08649 0.60488 0.0
H826 H 0.5932 0.06447 0.63521 0.0
H827 H 0.60296 0.09505 0.62217 0.0
H828 H 0.61076 0.09206 0.6549 0.0
H829 H 0.65032 0.05663 0.56098 0.0
H830 H 0.68213 0.08291 0.56113 0.0
H831 H 0.65608 0.08718 0.5515 0.0
C832 C 0.55341 0.57799 0.06633 0.0
C833 C 0.53446 0.57192 0.04784 0.0
C834 C 0.56315 0.60016 0.08077 0.0
C835 C 0.55368 0.6168 0.0768 0.0
C836 C 0.53505 0.61125 0.05768 0.0
C837 C 0.52567 0.58884 0.04332 0.0
C838 C 0.58315 0.60539 0.10081 0.0
C839 C 0.52457 0.62859 0.05293 0.0
C840 C 0.56242 0.65537 0.1363 0.0
C841 C 0.58533 0.67742 0.13127 0.0
C842 C 0.55082 0.63625 0.11788 0.0
C843 C 0.56255 0.63911 0.09389 0.0
C844 C 0.58491 0.66196 0.08814 0.0
C845 C 0.59609 0.68083 0.10695 0.0
C846 C 0.52699 0.61221 0.12482 0.0
C847 C 0.59799 0.66577 0.06281 0.0
H848 H 0.56057 0.56522 0.06978 0.0
H849 H 0.51107 0.58429 0.02904 0.0
H850 H 0.59993 0.62427 0.09766 0.0
H851 H 0.57577 0.60553 0.12009 0.0
H852 H 0.58929 0.59109 0.10069 0.0
H853 H 0.51168 0.62267 0.03607 0.0
H854 H 0.514 0.6288 0.06998 0.0
H855 H 0.54015 0.6482 0.04989 0.0
H856 H 0.5541 0.65259 0.15511 0.0
H857 H 0.61388 0.69778 0.10305 0.0
H858 H 0.53136 0.5968 0.12756 0.0
H859 H 0.51283 0.60641 0.10916 0.0
H860 H 0.51849 0.61424 0.14272 0.0
H861 H 0.60716 0.65406 0.06221 0.0
H862 H 0.61269 0.6858 0.05974 0.0
H863 H 0.58418 0.65962 0.04677 0.0
C864 C 0.97119 0.53786 0.57536 0.0
C865 C 0.99609 0.54251 0.57624 0.0
C866 C 0.96291 0.54979 0.59243 0.0
C867 C 0.98003 0.56701 0.61065 0.0
C868 C 0.00518 0.57176 0.6117 0.0
C869 C 0.01288 0.55933 0.59457 0.0
C870 C 0.93587 0.54401 0.59091 0.0
C871 C 0.02402 0.59017 0.63076 0.0
C872 C 0.96645 0.61613 0.63871 0.0
C873 C 0.95704 0.60591 0.6629 0.0
C874 C 0.97383 0.60357 0.62144 0.0
C875 C 0.97167 0.58021 0.62851 0.0
C876 C 0.9618 0.5696 0.65274 0.0
C877 C 0.95473 0.58266 0.6697 0.0
C878 C 0.98435 0.61551 0.5958 0.0
C879 C 0.959 0.54462 0.66086 0.0
H880 H 0.95804 0.52476 0.56135 0.0
H881 H 0.03217 0.56309 0.59531 0.0
H882 H 0.92654 0.53692 0.60964 0.0
H883 H 0.93533 0.5615 0.58659 0.0
H884 H 0.9248 0.52973 0.576 0.0
H885 H 0.04285 0.59174 0.62913 0.0
H886 H 0.02623 0.60914 0.62781 0.0
H887 H 0.01704 0.58421 0.65051 0.0
H888 H 0.96841 0.63419 0.63351 0.0
H889 H 0.94762 0.57481 0.68845 0.0
H890 H 0.97302 0.60242 0.58015 0.0
H891 H 0.00395 0.61915 0.59394 0.0
H892 H 0.98447 0.63359 0.59311 0.0
H893 H 0.94726 0.52978 0.64672 0.0
H894 H 0.95022 0.53858 0.68 0.0
H895 H 0.97779 0.54601 0.66143 0.0
C896 C 0.43866 0.94787 0.05437 0.0
C897 C 0.45757 0.97327 0.05685 0.0
C898 C 0.41736 0.9374 0.07028 0.0
C899 C 0.41497 0.95272 0.08902 0.0
C900 C 0.43388 0.97838 0.09143 0.0
C901 C 0.45489 0.9883 0.07537 0.0
C902 C 0.39754 0.90996 0.06723 0.0
C903 C 0.43204 0.9954 0.11113 0.0
C904 C 0.35305 0.93858 0.11896 0.0
C905 C 0.35543 0.93067 0.14354 0.0
C906 C 0.37157 0.9443 0.10037 0.0
C907 C 0.39301 0.94219 0.10658 0.0
C908 C 0.39485 0.93297 0.13092 0.0
C909 C 0.37609 0.92746 0.14916 0.0
C910 C 0.36893 0.95409 0.07465 0.0
C911 C 0.41737 0.93039 0.13827 0.0
H912 H 0.44058 0.93613 0.04012 0.0
H913 H 0.46931 0.00795 0.07744 0.0
H914 H 0.39595 0.89963 0.08525 0.0
H915 H 0.37884 0.90817 0.06344 0.0
H916 H 0.40192 0.90073 0.0514 0.0
H917 H 0.4482 0.01502 0.11026 0.0
H918 H 0.41432 0.99592 0.10824 0.0
H919 H 0.43141 0.98786 0.13062 0.0
H920 H 0.33718 0.94124 0.11463 0.0
H921 H 0.37804 0.92147 0.16817 0.0
H922 H 0.37276 0.94431 0.059 0.0
H923 H 0.38302 0.97449 0.07318 0.0
H924 H 0.34981 0.95162 0.0717 0.0
H925 H 0.42142 0.9203 0.1231 0.0
H926 H 0.41449 0.92011 0.15662 0.0
H927 H 0.43428 0.94942 0.14028 0.0
C928 C 0.46066 0.42723 0.57006 0.0
C929 C 0.48302 0.44971 0.57547 0.0
C930 C 0.45386 0.40536 0.58449 0.0
C931 C 0.47017 0.40606 0.60419 0.0
C932 C 0.49205 0.42913 0.61056 0.0
C933 C 0.49819 0.4508 0.59612 0.0
C934 C 0.43022 0.38114 0.57753 0.0
C935 C 0.51011 0.43049 0.63118 0.0
C936 C 0.45093 0.34409 0.66045 0.0
C937 C 0.46191 0.32676 0.63979 0.0
C938 C 0.45175 0.37105 0.64538 0.0
C939 C 0.46705 0.38239 0.6149 0.0
C940 C 0.48347 0.36866 0.59914 0.0
C941 C 0.48375 0.34174 0.61257 0.0
C942 C 0.44005 0.38427 0.65837 0.0
C943 C 0.49708 0.37981 0.57479 0.0
H944 H 0.44917 0.42647 0.55379 0.0
H945 H 0.51574 0.46816 0.59986 0.0
H946 H 0.43546 0.36834 0.56779 0.0
H947 H 0.41963 0.37143 0.59506 0.0
H948 H 0.41768 0.38445 0.56457 0.0
H949 H 0.52461 0.45026 0.63583 0.0
H950 H 0.49969 0.42106 0.64886 0.0
H951 H 0.51986 0.42035 0.62466 0.0
H952 H 0.4403 0.3359 0.67773 0.0
H953 H 0.49161 0.33204 0.60219 0.0
H954 H 0.42665 0.38572 0.645 0.0
H955 H 0.45495 0.40374 0.66333 0.0
H956 H 0.43015 0.37402 0.67596 0.0
H957 H 0.48395 0.38096 0.5608 0.0
H958 H 0.5048 0.36828 0.56685 0.0
H959 H 0.51265 0.39932 0.57846 0.0
C960 C 0.52331 0.9398 0.48298 0.0
C961 C 0.52602 0.9637 0.47878 0.0
C962 C 0.53521 0.93054 0.46696 0.0
C963 C 0.55006 0.9455 0.44638 0.0
C964 C 0.55272 0.96948 0.44193 0.0
C965 C 0.54068 0.97829 0.45814 0.0
C966 C 0.53206 0.90485 0.47209 0.0
C967 C 0.56848 0.98595 0.42013 0.0
C968 C 0.6131 0.93689 0.41595 0.0
C969 C 0.59415 0.91473 0.38984 0.0
C970 C 0.59537 0.94527 0.43712 0.0
C971 C 0.56311 0.93649 0.42958 0.0
C972 C 0.5479 0.92081 0.40004 0.0
C973 C 0.56405 0.91166 0.37759 0.0
C974 C 0.60749 0.95972 0.46095 0.0
C975 C 0.5218 0.91543 0.39413 0.0
H976 H 0.51205 0.9284 0.49886 0.0
H977 H 0.54292 0.99677 0.45464 0.0
H978 H 0.52397 0.89273 0.45491 0.0
H979 H 0.55081 0.90674 0.47593 0.0
H980 H 0.5196 0.89533 0.48866 0.0
H981 H 0.56852 0.00411 0.41913 0.0
H982 H 0.58824 0.99006 0.42235 0.0
H983 H 0.56118 0.97583 0.4017 0.0
H984 H 0.63162 0.94013 0.42124 0.0
H985 H 0.55457 0.90062 0.36076 0.0
H986 H 0.59594 0.94913 0.47766 0.0
H987 H 0.60798 0.97808 0.46025 0.0
H988 H 0.62694 0.96292 0.46306 0.0
H989 H 0.50922 0.90481 0.41025 0.0
H990 H 0.51474 0.90444 0.37614 0.0
H991 H 0.5218 0.93349 0.39228 0.0
C992 C 0.58512 0.52973 0.96967 0.0
C993 C 0.58272 0.52069 0.9948 0.0
C994 C 0.60824 0.54041 0.95692 0.0
C995 C 0.62963 0.54237 0.96966 0.0
C996 C 0.62732 0.53291 0.99488 0.0
C997 C 0.6038 0.52202 0.00713 0.0
C998 C 0.60985 0.55 0.92992 0.0
C999 C 0.6498 0.53487 0.00911 0.0
C1000 C 0.68454 0.55328 0.92768 0.0
C1001 C 0.69965 0.57969 0.92845 0.0
C1002 C 0.66188 0.54081 0.94135 0.0
C1003 C 0.65449 0.55501 0.95666 0.0
C1004 C 0.67018 0.58154 0.95834 0.0
C1005 C 0.69256 0.59355 0.9442 0.0
C1006 C 0.64557 0.51251 0.93896 0.0
C1007 C 0.66311 0.59729 0.97474 0.0
H1008 H 0.56887 0.52858 0.95991 0.0
H1009 H 0.60208 0.51515 0.02657 0.0
H1010 H 0.62299 0.57068 0.92935 0.0
H1011 H 0.61752 0.54114 0.91702 0.0
H1012 H 0.59121 0.54607 0.92234 0.0
H1013 H 0.64466 0.52574 0.02822 0.0
H1014 H 0.65856 0.52596 0.99785 0.0
H1015 H 0.66431 0.55503 0.01169 0.0
H1016 H 0.69031 0.54239 0.91615 0.0
H1017 H 0.70456 0.61387 0.94535 0.0
H1018 H 0.62711 0.50774 0.93023 0.0
H1019 H 0.6417 0.50362 0.95815 0.0
H1020 H 0.65446 0.50414 0.92703 0.0
H1021 H 0.64548 0.59602 0.96729 0.0
H1022 H 0.67811 0.61747 0.97521 0.0
H1023 H 0.65938 0.58994 0.99462 0.0
C1024 C 0.01704 0.5606 0.44083 0.0
C1025 C 0.02557 0.56085 0.46588 0.0
C1026 C 0.02815 0.58261 0.42576 0.0
C1027 C 0.04786 0.60539 0.43621 0.0
C1028 C 0.05612 0.60578 0.46165 0.0
C1029 C 0.04504 0.58351 0.47606 0.0
C1030 C 0.01914 0.58143 0.39856 0.0
C1031 C 0.07679 0.62974 0.4737 0.0
C1032 C 0.09696 0.65963 0.39675 0.0
C1033 C 0.0883 0.67698 0.3977 0.0
C1034 C 0.08302 0.63554 0.40768 0.0
C1035 C 0.06034 0.62892 0.42069 0.0
C1036 C 0.05119 0.64608 0.42123 0.0
C1037 C 0.06519 0.66981 0.40957 0.0
C1038 C 0.09321 0.61762 0.40634 0.0
C1039 C 0.0274 0.63999 0.4354 0.0
H1040 H 0.00207 0.54311 0.43285 0.0
H1041 H 0.05157 0.58391 0.49549 0.0
H1042 H 0.01265 0.59527 0.39575 0.0
H1043 H 0.035 0.58664 0.3852 0.0
H1044 H 0.00345 0.56236 0.39338 0.0
H1045 H 0.08031 0.62705 0.49404 0.0
H1046 H 0.09462 0.63651 0.463 0.0
H1047 H 0.07175 0.64481 0.47268 0.0
H1048 H 0.11495 0.66501 0.38799 0.0
H1049 H 0.05861 0.68327 0.41064 0.0
H1050 H 0.07811 0.59855 0.40042 0.0
H1051 H 0.09996 0.6158 0.42556 0.0
H1052 H 0.10914 0.6242 0.39274 0.0
H1053 H 0.01166 0.62127 0.4295 0.0
H1054 H 0.02165 0.65437 0.43211 0.0
H1055 H 0.03048 0.63903 0.45624 0.0
C1056 C 0.48068 0.04309 0.96583 0.0
C1057 C 0.50058 0.05878 0.98235 0.0
C1058 C 0.46925 0.05289 0.94974 0.0
C1059 C 0.47801 0.07912 0.94998 0.0
C1060 C 0.49792 0.0951 0.96676 0.0
C1061 C 0.50893 0.08472 0.98285 0.0
C1062 C 0.44794 0.03516 0.93226 0.0
C1063 C 0.50778 0.12316 0.96743 0.0
C1064 C 0.46306 0.10271 0.88886 0.0
C1065 C 0.44104 0.10296 0.89553 0.0
C1066 C 0.47605 0.09626 0.90682 0.0
C1067 C 0.46663 0.08963 0.93201 0.0
C1068 C 0.44489 0.09067 0.93912 0.0
C1069 C 0.4323 0.09727 0.92076 0.0
C1070 C 0.49916 0.09537 0.89848 0.0
C1071 C 0.43419 0.08361 0.96574 0.0
H1072 H 0.47393 0.02299 0.96543 0.0
H1073 H 0.52429 0.09696 0.99556 0.0
H1074 H 0.43093 0.03676 0.93576 0.0
H1075 H 0.45336 0.04041 0.91201 0.0
H1076 H 0.44287 0.01515 0.93497 0.0
H1077 H 0.52285 0.1329 0.98209 0.0
H1078 H 0.51547 0.1315 0.94844 0.0
H1079 H 0.49217 0.12689 0.97151 0.0
H1080 H 0.46974 0.10689 0.86933 0.0
H1081 H 0.41514 0.09721 0.9259 0.0
H1082 H 0.49499 0.07551 0.89837 0.0
H1083 H 0.51496 0.10592 0.91217 0.0
H1084 H 0.50543 0.10339 0.87905 0.0
H1085 H 0.42659 0.06312 0.96883 0.0
H1086 H 0.41879 0.08788 0.96895 0.0
H1087 H 0.44923 0.09381 0.98028 0.0
C1088 C 0.46615 0.45015 0.43973 0.0
C1089 C 0.46495 0.4614 0.46262 0.0
C1090 C 0.44545 0.43919 0.42276 0.0
C1091 C 0.42306 0.43934 0.42893 0.0
C1092 C 0.42165 0.45039 0.45208 0.0
C1093 C 0.4426 0.46134 0.46861 0.0
C1094 C 0.44759 0.42766 0.39811 0.0
C1095 C 0.39806 0.45079 0.45939 0.0
C1096 C 0.37357 0.43573 0.36406 0.0
C1097 C 0.34726 0.40356 0.37199 0.0
C1098 C 0.39961 0.44822 0.38644 0.0
C1099 C 0.4014 0.42833 0.41106 0.0
C1100 C 0.37856 0.39504 0.41327 0.0
C1101 C 0.35178 0.38076 0.3918 0.0
C1102 C 0.41967 0.47525 0.38479 0.0
C1103 C 0.38162 0.37935 0.43328 0.0
H1104 H 0.48334 0.45015 0.4349 0.0
H1105 H 0.44142 0.46987 0.48629 0.0
H1106 H 0.43257 0.40753 0.39712 0.0
H1107 H 0.44472 0.43746 0.38161 0.0
H1108 H 0.46623 0.42887 0.39618 0.0
H1109 H 0.39991 0.45986 0.47827 0.0
H1110 H 0.39373 0.46125 0.44471 0.0
H1111 H 0.38189 0.4312 0.46015 0.0
H1112 H 0.3712 0.44783 0.35054 0.0
H1113 H 0.33681 0.36146 0.39441 0.0
H1114 H 0.43822 0.4765 0.38207 0.0
H1115 H 0.42059 0.48479 0.4031 0.0
H1116 H 0.41573 0.48474 0.36874 0.0
H1117 H 0.39995 0.38009 0.43064 0.0
H1118 H 0.36593 0.35953 0.4322 0.0
H1119 H 0.38206 0.38737 0.4524 0.0
C1120 C 0.98713 0.43849 0.93306 0.0
C1121 C 0.01001 0.44757 0.94631 0.0
C1122 C 0.97661 0.41569 0.91947 0.0
C1123 C 0.9888 0.40118 0.92013 0.0
C1124 C 0.01239 0.41076 0.93285 0.0
C1125 C 0.02293 0.43412 0.94553 0.0
C1126 C 0.95185 0.40657 0.90548 0.0
C1127 C 0.02565 0.39559 0.93459 0.0
C1128 C 0.94558 0.33027 0.91539 0.0
C1129 C 0.95023 0.32515 0.89051 0.0
C1130 C 0.95836 0.35484 0.92533 0.0
C1131 C 0.97565 0.37501 0.90976 0.0
C1132 C 0.97999 0.37013 0.88441 0.0
C1133 C 0.96738 0.34521 0.87515 0.0
C1134 C 0.95338 0.35919 0.95258 0.0
C1135 C 0.99775 0.39123 0.86702 0.0
H1136 H 0.97719 0.449 0.93383 0.0
H1137 H 0.04045 0.44108 0.95619 0.0
H1138 H 0.95273 0.39987 0.88603 0.0
H1139 H 0.93656 0.39038 0.91591 0.0
H1140 H 0.94674 0.42158 0.90375 0.0
H1141 H 0.04474 0.40652 0.94339 0.0
H1142 H 0.01424 0.37847 0.94633 0.0
H1143 H 0.02749 0.38916 0.91533 0.0
H1144 H 0.93201 0.31493 0.92718 0.0
H1145 H 0.97084 0.34143 0.85582 0.0
H1146 H 0.94509 0.37168 0.95283 0.0
H1147 H 0.97139 0.36885 0.96354 0.0
H1148 H 0.94029 0.34132 0.96252 0.0
H1149 H 0.99153 0.40537 0.86504 0.0
H1150 H 0.99873 0.38434 0.84768 0.0
H1151 H 0.017 0.40109 0.87549 0.0
C1152 C 0.95394 0.52313 0.98921 0.0
C1153 C 0.97094 0.51913 0.97499 0.0
C1154 C 0.94263 0.53624 0.97868 0.0
C1155 C 0.94798 0.54499 0.95311 0.0
C1156 C 0.96435 0.5401 0.93832 0.0
C1157 C 0.97591 0.52751 0.94956 0.0
C1158 C 0.92565 0.54149 0.99522 0.0
C1159 C 0.96998 0.54853 0.9108 0.0
C1160 C 0.90154 0.56187 0.92335 0.0
C1161 C 0.91426 0.58817 0.92647 0.0
C1162 C 0.91271 0.54765 0.93096 0.0
C1163 C 0.93705 0.55999 0.94228 0.0
C1164 C 0.95044 0.58663 0.94447 0.0
C1165 C 0.93908 0.60044 0.93605 0.0
C1166 C 0.89818 0.51936 0.9275 0.0
C1167 C 0.97638 0.60049 0.95661 0.0
H1168 H 0.95024 0.51691 0.00894 0.0
H1169 H 0.98896 0.52433 0.93847 0.0
H1170 H 0.93366 0.56218 0.99714 0.0
H1171 H 0.90678 0.53375 0.9861 0.0
H1172 H 0.92324 0.53321 0.01465 0.0
H1173 H 0.98138 0.5414 0.90133 0.0
H1174 H 0.95214 0.54187 0.89985 0.0
H1175 H 0.98048 0.56944 0.90985 0.0
H1176 H 0.88261 0.55234 0.91534 0.0
H1177 H 0.94939 0.62081 0.93768 0.0
H1178 H 0.89309 0.51001 0.94647 0.0
H1179 H 0.91005 0.51295 0.9178 0.0
H1180 H 0.88058 0.51296 0.91614 0.0
H1181 H 0.97534 0.59431 0.97677 0.0
H1182 H 0.9845 0.62129 0.95633 0.0
H1183 H 0.98944 0.59587 0.94653 0.0
C1184 C 0.43237 0.97165 0.45946 0.0
C1185 C 0.44941 0.9974 0.46347 0.0
C1186 C 0.41086 0.96362 0.44407 0.0
C1187 C 0.40606 0.98176 0.43252 0.0
C1188 C 0.42333 0.00782 0.43615 0.0
C1189 C 0.44494 0.01536 0.45151 0.0
C1190 C 0.3931 0.93565 0.44043 0.0
C1191 C 0.41871 0.02766 0.42421 0.0
C1192 C 0.36011 0.95695 0.37661 0.0
C1193 C 0.33723 0.95084 0.38843 0.0
C1194 C 0.38287 0.96809 0.39048 0.0
C1195 C 0.38275 0.97315 0.41685 0.0
C1196 C 0.35987 0.9678 0.42872 0.0
C1197 C 0.33737 0.95677 0.41433 0.0
C1198 C 0.40687 0.97353 0.37712 0.0
C1199 C 0.35899 0.97285 0.45684 0.0
H1200 H 0.4358 0.95764 0.46847 0.0
H1201 H 0.45798 0.03527 0.45465 0.0
H1202 H 0.37419 0.93036 0.44798 0.0
H1203 H 0.39075 0.93091 0.41976 0.0
H1204 H 0.39992 0.92402 0.45025 0.0
H1205 H 0.43432 0.04711 0.42825 0.0
H1206 H 0.41644 0.02494 0.40319 0.0
H1207 H 0.40089 0.02573 0.43164 0.0
H1208 H 0.36007 0.95245 0.35657 0.0
H1209 H 0.31977 0.95224 0.4235 0.0
H1210 H 0.41359 0.961 0.38484 0.0
H1211 H 0.42195 0.99327 0.38079 0.0
H1212 H 0.40415 0.97057 0.35612 0.0
H1213 H 0.36361 0.9604 0.46834 0.0
H1214 H 0.34014 0.96948 0.4627 0.0
H1215 H 0.37333 0.99262 0.46153 0.0
C1216 C 0.46149 0.42305 0.98086 0.0
C1217 C 0.47215 0.44643 0.96836 0.0
C1218 C 0.44881 0.40041 0.96713 0.0
C1219 C 0.44739 0.40116 0.94019 0.0
C1220 C 0.45768 0.42464 0.92742 0.0
C1221 C 0.46973 0.44715 0.94174 0.0
C1222 C 0.43701 0.3757 0.98151 0.0
C1223 C 0.45657 0.42593 0.89867 0.0
C1224 C 0.44061 0.33147 0.90627 0.0
C1225 C 0.40841 0.31974 0.89261 0.0
C1226 C 0.45453 0.3623 0.92064 0.0
C1227 C 0.4359 0.37731 0.92572 0.0
C1228 C 0.40253 0.36169 0.91841 0.0
C1229 C 0.38688 0.33087 0.90386 0.0
C1230 C 0.48169 0.37551 0.92828 0.0
C1231 C 0.38763 0.374 0.92524 0.0
H1232 H 0.46295 0.42246 0.00152 0.0
H1233 H 0.47798 0.46523 0.93208 0.0
H1234 H 0.41694 0.36376 0.97564 0.0
H1235 H 0.44688 0.36521 0.97674 0.0
H1236 H 0.43789 0.37843 0.00257 0.0
H1237 H 0.46509 0.44565 0.89159 0.0
H1238 H 0.46675 0.41702 0.89007 0.0
H1239 H 0.43666 0.41514 0.89199 0.0
H1240 H 0.45194 0.32308 0.90135 0.0
H1241 H 0.36742 0.32214 0.89755 0.0
H1242 H 0.48319 0.37502 0.9494 0.0
H1243 H 0.49084 0.39559 0.92233 0.0
H1244 H 0.49137 0.36617 0.91954 0.0
H1245 H 0.39 0.37853 0.94596 0.0
H1246 H 0.36736 0.36146 0.92053 0.0
H1247 H 0.39504 0.39203 0.91463 0.0
C1248 C 0.07797 0.48665 0.49384 0.0
C1249 C 0.05201 0.47767 0.49149 0.0
C1250 C 0.08935 0.47516 0.48035 0.0
C1251 C 0.07428 0.45398 0.46459 0.0
C1252 C 0.04793 0.44436 0.46291 0.0
C1253 C 0.03717 0.45644 0.47619 0.0
C1254 C 0.11754 0.48607 0.48236 0.0
C1255 C 0.03112 0.42157 0.44665 0.0
C1256 C 0.1015 0.43838 0.4073 0.0
C1257 C 0.10385 0.41805 0.41645 0.0
C1258 C 0.09292 0.4509 0.42315 0.0
C1259 C 0.08601 0.44259 0.44865 0.0
C1260 C 0.08846 0.4222 0.45809 0.0
C1261 C 0.09731 0.41012 0.44184 0.0
C1262 C 0.09052 0.47255 0.41233 0.0
C1263 C 0.08095 0.4126 0.48506 0.0
H1264 H 0.08949 0.50306 0.50565 0.0
H1265 H 0.01702 0.44919 0.47459 0.0
H1266 H 0.12194 0.47121 0.48812 0.0
H1267 H 0.12623 0.4932 0.46338 0.0
H1268 H 0.12642 0.50181 0.49637 0.0
H1269 H 0.01082 0.41553 0.44871 0.0
H1270 H 0.03627 0.42592 0.42622 0.0
H1271 H 0.03387 0.40552 0.45194 0.0
H1272 H 0.10604 0.44427 0.38754 0.0
H1273 H 0.09871 0.39415 0.44882 0.0
H1274 H 0.10029 0.48929 0.42499 0.0
H1275 H 0.07033 0.46721 0.41143 0.0
H1276 H 0.09853 0.47794 0.39281 0.0
H1277 H 0.09048 0.42834 0.49894 0.0
H1278 H 0.0857 0.39778 0.49004 0.0
H1279 H 0.06032 0.4046 0.48731 0.0
C1280 C 0.59311 0.04375 0.96309 0.0
C1281 C 0.57291 0.01888 0.9648 0.0
C1282 C 0.61335 0.0501 0.94661 0.0
C1283 C 0.61355 0.03112 0.93141 0.0
C1284 C 0.59319 0.00598 0.93285 0.0
C1285 C 0.57304 0.00014 0.94952 0.0
C1286 C 0.6346 0.07718 0.94555 0.0
C1287 C 0.5928 0.98527 0.91692 0.0
C1288 C 0.65673 0.05624 0.87401 0.0
C1289 C 0.67878 0.05725 0.88342 0.0
C1290 C 0.63495 0.04669 0.88901 0.0
C1291 C 0.63519 0.03794 0.91406 0.0
C1292 C 0.65705 0.03798 0.9233 0.0
C1293 C 0.67857 0.04758 0.90784 0.0
C1294 C 0.61202 0.04692 0.87842 0.0
C1295 C 0.65803 0.02881 0.94991 0.0
H1296 H 0.59319 0.05842 0.97471 0.0
H1297 H 0.55754 0.98088 0.95076 0.0
H1298 H 0.65269 0.07824 0.95095 0.0
H1299 H 0.63666 0.08451 0.92575 0.0
H1300 H 0.63149 0.0897 0.95852 0.0
H1301 H 0.57547 0.96675 0.92002 0.0
H1302 H 0.59401 0.99014 0.89632 0.0
H1303 H 0.6095 0.98338 0.92165 0.0
H1304 H 0.65676 0.06349 0.85504 0.0
H1305 H 0.69546 0.04806 0.91507 0.0
H1306 H 0.60888 0.06064 0.88929 0.0
H1307 H 0.59493 0.0281 0.88069 0.0
H1308 H 0.6141 0.05221 0.85786 0.0
H1309 H 0.657 0.04159 0.96425 0.0
H1310 H 0.6756 0.02811 0.95344 0.0
H1311 H 0.64157 0.00972 0.95306 0.0
C1312 C 0.53122 0.58612 0.49157 0.0
C1313 C 0.54154 0.57023 0.48998 0.0
C1314 C 0.54115 0.6084 0.47699 0.0
C1315 C 0.56204 0.615 0.46085 0.0
C1316 C 0.57303 0.59944 0.45995 0.0
C1317 C 0.56255 0.57721 0.47437 0.0
C1318 C 0.52886 0.62447 0.47824 0.0
C1319 C 0.59556 0.60596 0.4433 0.0
C1320 C 0.57493 0.65465 0.40108 0.0
C1321 C 0.59528 0.67792 0.40896 0.0
C1322 C 0.56295 0.63447 0.41826 0.0
C1323 C 0.57189 0.63741 0.4438 0.0
C1324 C 0.59207 0.66098 0.45203 0.0
C1325 C 0.60357 0.68094 0.43447 0.0
C1326 C 0.54146 0.60964 0.40874 0.0
C1327 C 0.60233 0.66474 0.47901 0.0
H1328 H 0.51496 0.58076 0.50359 0.0
H1329 H 0.57083 0.56518 0.47332 0.0
H1330 H 0.54315 0.6443 0.48281 0.0
H1331 H 0.52059 0.62456 0.45928 0.0
H1332 H 0.51369 0.61753 0.49278 0.0
H1333 H 0.6027 0.59259 0.44589 0.0
H1334 H 0.59036 0.6057 0.42287 0.0
H1335 H 0.61111 0.6253 0.4477 0.0
H1336 H 0.56873 0.65203 0.38128 0.0
H1337 H 0.61954 0.69877 0.44051 0.0
H1338 H 0.5252 0.60256 0.42192 0.0
H1339 H 0.54756 0.59535 0.40828 0.0
H1340 H 0.53505 0.61123 0.38923 0.0
H1341 H 0.58677 0.6581 0.49302 0.0
H1342 H 0.61627 0.68483 0.48312 0.0
H1343 H 0.61167 0.65336 0.48199 0.0
C1344 C 0.43522 0.00525 0.56585 0.0
C1345 C 0.45692 0.00566 0.57511 0.0
C1346 C 0.42378 0.0163 0.57979 0.0
C1347 C 0.43461 0.02835 0.60338 0.0
C1348 C 0.45561 0.0273 0.61358 0.0
C1349 C 0.46664 0.016 0.59919 0.0
C1350 C 0.40139 0.01691 0.5682 0.0
C1351 C 0.46766 0.03984 0.63866 0.0
C1352 C 0.42676 0.08505 0.61533 0.0
C1353 C 0.4061 0.07517 0.63191 0.0
C1354 C 0.43697 0.07033 0.60696 0.0
C1355 C 0.42613 0.04494 0.6152 0.0
C1356 C 0.40589 0.03509 0.63273 0.0
C1357 C 0.39602 0.05031 0.64081 0.0
C1358 C 0.4586 0.08162 0.5883 0.0
C1359 C 0.39391 0.00818 0.642 0.0
H1360 H 0.42807 0.99757 0.54696 0.0
H1361 H 0.48377 0.01669 0.60601 0.0
H1362 H 0.38631 0.01144 0.58258 0.0
H1363 H 0.40727 0.03641 0.56187 0.0
H1364 H 0.39344 0.00412 0.55143 0.0
H1365 H 0.48086 0.03372 0.64596 0.0
H1366 H 0.47839 0.06061 0.63597 0.0
H1367 H 0.45307 0.03564 0.65332 0.0
H1368 H 0.43447 0.10416 0.60824 0.0
H1369 H 0.37989 0.04253 0.65344 0.0
H1370 H 0.45222 0.07187 0.56957 0.0
H1371 H 0.47424 0.07887 0.59526 0.0
H1372 H 0.46604 0.10211 0.58525 0.0
H1373 H 0.38354 0.99515 0.62596 0.0
H1374 H 0.38048 0.00434 0.65785 0.0
H1375 H 0.40861 0.00384 0.64862 0.0
C1376 C 0.43533 0.44363 0.05859 0.0
C1377 C 0.45743 0.4597 0.07218 0.0
C1378 C 0.4121 0.43049 0.07104 0.0
C1379 C 0.41086 0.43429 0.0975 0.0
C1380 C 0.43322 0.45001 0.11149 0.0
C1381 C 0.45647 0.46234 0.09866 0.0
C1382 C 0.38882 0.41285 0.05576 0.0
C1383 C 0.4324 0.45462 0.13968 0.0
C1384 C 0.33599 0.4246 0.11732 0.0
C1385 C 0.32666 0.39705 0.13885 0.0
C1386 C 0.36764 0.43858 0.10523 0.0
C1387 C 0.386 0.42313 0.1098 0.0
C1388 C 0.37312 0.39255 0.12487 0.0
C1389 C 0.34165 0.37706 0.13773 0.0
C1390 C 0.37879 0.46324 0.09158 0.0
C1391 C 0.38837 0.37973 0.12617 0.0
H1392 H 0.43625 0.44142 0.0381 0.0
H1393 H 0.47364 0.4749 0.10905 0.0
H1394 H 0.37842 0.39429 0.06553 0.0
H1395 H 0.37599 0.42072 0.05446 0.0
H1396 H 0.39346 0.40983 0.03605 0.0
H1397 H 0.45155 0.46659 0.14803 0.0
H1398 H 0.42117 0.46408 0.14272 0.0
H1399 H 0.42288 0.43638 0.15008 0.0
H1400 H 0.3255 0.43452 0.11648 0.0
H1401 H 0.33445 0.35977 0.14861 0.0
H1402 H 0.37997 0.46013 0.07088 0.0
H1403 H 0.39826 0.47588 0.09877 0.0
H1404 H 0.36698 0.47211 0.09429 0.0
H1405 H 0.39501 0.37882 0.10673 0.0
H1406 H 0.37707 0.36047 0.13422 0.0
H1407 H 0.40529 0.39102 0.13833 0.0
C1408 C 0.96057 0.43091 0.56791 0.0
C1409 C 0.95456 0.43449 0.54287 0.0
C1410 C 0.94784 0.40718 0.57966 0.0
C1411 C 0.92881 0.38643 0.56596 0.0
C1412 C 0.92222 0.38995 0.54089 0.0
C1413 C 0.93507 0.41404 0.52964 0.0
C1414 C 0.95515 0.40433 0.60656 0.0
C1415 C 0.90215 0.3681 0.52568 0.0
C1416 C 0.91705 0.31053 0.58639 0.0
C1417 C 0.89128 0.30301 0.60952 0.0
C1418 C 0.93087 0.34163 0.57258 0.0
C1419 C 0.91664 0.36101 0.57739 0.0
C1420 C 0.88731 0.34967 0.59435 0.0
C1421 C 0.87198 0.31883 0.60885 0.0
C1422 C 0.95441 0.35154 0.55732 0.0
C1423 C 0.87597 0.36616 0.5969 0.0
H1424 H 0.97546 0.44669 0.57835 0.0
H1425 H 0.93042 0.41666 0.51024 0.0
H1426 H 0.93822 0.39588 0.61891 0.0
H1427 H 0.96306 0.3915 0.60652 0.0
H1428 H 0.96945 0.42264 0.61504 0.0
H1429 H 0.89867 0.37405 0.50669 0.0
H1430 H 0.90797 0.35377 0.52278 0.0
H1431 H 0.88419 0.35887 0.53648 0.0
H1432 H 0.9266 0.2997 0.58563 0.0
H1433 H 0.85556 0.31262 0.62082 0.0
H1434 H 0.96958 0.36879 0.56667 0.0
H1435 H 0.95114 0.35698 0.53801 0.0
H1436 H 0.96032 0.33715 0.55573 0.0
H1437 H 0.88999 0.38432 0.6058 0.0
H1438 H 0.85865 0.35681 0.60867 0.0
H1439 H 0.87138 0.37044 0.57762 0.0
C1440 C 0.59246 0.02698 0.08316 0.0
C1441 C 0.56629 0.01251 0.07974 0.0
C1442 C 0.60523 0.01831 0.09901 0.0
C1443 C 0.5913 0.99519 0.1123 0.0
C1444 C 0.56467 0.98152 0.11019 0.0
C1445 C 0.55253 0.99009 0.09351 0.0
C1446 C 0.63368 0.0331 0.10035 0.0
C1447 C 0.54894 0.95756 0.12509 0.0
C1448 C 0.62297 0.94449 0.12535 0.0
C1449 C 0.63015 0.95219 0.15988 0.0
C1450 C 0.60758 0.95953 0.10981 0.0
C1451 C 0.60451 0.98396 0.12599 0.0
C1452 C 0.6183 0.99566 0.1573 0.0
C1453 C 0.63413 0.98177 0.17438 0.0
C1454 C 0.59767 0.95189 0.08323 0.0
C1455 C 0.616 0.0163 0.16972 0.0
H1456 H 0.60304 0.04422 0.07226 0.0
H1457 H 0.53222 0.97905 0.09093 0.0
H1458 H 0.6399 0.03908 0.12035 0.0
H1459 H 0.64145 0.02096 0.09435 0.0
H1460 H 0.64178 0.05015 0.08799 0.0
H1461 H 0.52848 0.95123 0.12401 0.0
H1462 H 0.55173 0.94229 0.11737 0.0
H1463 H 0.55488 0.96045 0.14549 0.0
H1464 H 0.62337 0.92866 0.11667 0.0
H1465 H 0.64031 0.98692 0.194 0.0
H1466 H 0.60035 0.96854 0.07216 0.0
H1467 H 0.57717 0.93809 0.08399 0.0
H1468 H 0.60729 0.94285 0.07371 0.0
H1469 H 0.63441 0.03407 0.16857 0.0
H1470 H 0.61151 0.01183 0.19026 0.0
H1471 H 0.60127 0.01899 0.16014 0.0
C1472 C 0.59272 0.5288 0.56914 0.0
C1473 C 0.58938 0.52002 0.54386 0.0
C1474 C 0.61655 0.54007 0.58102 0.0
C1475 C 0.63758 0.54299 0.56716 0.0
C1476 C 0.63432 0.53397 0.54175 0.0
C1477 C 0.61018 0.52233 0.53045 0.0
C1478 C 0.61924 0.54907 0.60829 0.0
C1479 C 0.6565 0.53739 0.52621 0.0
C1480 C 0.713 0.60748 0.5886 0.0
C1481 C 0.72214 0.58856 0.60939 0.0
C1482 C 0.68146 0.59023 0.5756 0.0
C1483 C 0.66302 0.55631 0.57877 0.0
C1484 C 0.67574 0.53809 0.59321 0.0
C1485 C 0.70714 0.55358 0.60674 0.0
C1486 C 0.67055 0.60408 0.56201 0.0
C1487 C 0.65998 0.51007 0.59448 0.0
H1488 H 0.57668 0.52692 0.57968 0.0
H1489 H 0.60775 0.51577 0.51083 0.0
H1490 H 0.62819 0.54053 0.62011 0.0
H1491 H 0.63169 0.56987 0.60898 0.0
H1492 H 0.6008 0.54419 0.61688 0.0
H1493 H 0.6508 0.52914 0.50673 0.0
H1494 H 0.67043 0.55782 0.52439 0.0
H1495 H 0.66611 0.52844 0.53614 0.0
H1496 H 0.72338 0.6279 0.58879 0.0
H1497 H 0.71422 0.54312 0.61727 0.0
H1498 H 0.65357 0.60125 0.57235 0.0
H1499 H 0.66444 0.59613 0.54251 0.0
H1500 H 0.68458 0.62452 0.56089 0.0
H1501 H 0.64117 0.50479 0.6023 0.0
H1502 H 0.66932 0.50213 0.60656 0.0
H1503 H 0.65705 0.50216 0.57489 0.0
C1504 C 0.09156 0.58695 0.02801 0.0
C1505 C 0.06567 0.56959 0.02999 0.0
C1506 C 0.10266 0.60967 0.04199 0.0
C1507 C 0.08741 0.61513 0.05798 0.0
C1508 C 0.06117 0.59796 0.05942 0.0
C1509 C 0.05069 0.57541 0.04553 0.0
C1510 C 0.13072 0.62753 0.04013 0.0
C1511 C 0.04415 0.60317 0.07599 0.0
C1512 C 0.11206 0.65736 0.11629 0.0
C1513 C 0.11197 0.67908 0.10773 0.0
C1514 C 0.10565 0.63699 0.09977 0.0
C1515 C 0.09864 0.63822 0.07415 0.0
C1516 C 0.09937 0.66043 0.06514 0.0
C1517 C 0.1059 0.68055 0.08209 0.0
C1518 C 0.10502 0.61362 0.11016 0.0
C1519 C 0.09189 0.6624 0.038 0.0
H1520 H 0.10321 0.58254 0.01603 0.0
H1521 H 0.0306 0.56225 0.04692 0.0
H1522 H 0.13453 0.64667 0.03474 0.0
H1523 H 0.13973 0.62918 0.05908 0.0
H1524 H 0.13974 0.62115 0.02592 0.0
H1525 H 0.02399 0.58832 0.07415 0.0
H1526 H 0.04991 0.60436 0.09636 0.0
H1527 H 0.04597 0.6216 0.07078 0.0
H1528 H 0.11637 0.65598 0.13619 0.0
H1529 H 0.10551 0.69717 0.0755 0.0
H1530 H 0.11506 0.60738 0.09714 0.0
H1531 H 0.08516 0.59804 0.11133 0.0
H1532 H 0.1137 0.61673 0.12952 0.0
H1533 H 0.10154 0.65631 0.02428 0.0
H1534 H 0.09646 0.68192 0.03311 0.0
H1535 H 0.07128 0.64965 0.03545 0.0
loop_
_geom_bond_atom_site_label_1
_geom_bond_atom_site_label_2
_geom_bond_distance
_geom_bond_site_symmetry_2
_ccdc_geom_bond_type
C0 O2 1.247 . S
C0 O4 1.258 . S
C1 O8 1.247 . S
C1 O9 1.258 1_455 S
O2 C0 1.247 . S
O2 Zn3 2.028 . S
Zn3 O2 2.028 . S
Zn3 O7 2.035 1_454 S
Zn3 O9 2.035 1_454 S
Zn3 O10 2.028 . S
O4 C0 1.258 . S
O4 Zn5 2.035 1_554 S
Zn5 O4 2.035 1_556 S
Zn5 O6 2.028 . S
Zn5 O8 2.028 . S
Zn5 O11 2.035 1_556 S
O6 Zn5 2.028 . S
O6 C12 1.247 . S
O7 Zn3 2.035 1_656 S
O7 C12 1.258 1_655 S
O8 C1 1.247 . S
O8 Zn5 2.028 . S
O9 C1 1.258 1_655 S
O9 Zn3 2.035 1_656 S
O10 Zn3 2.028 . S
O10 C13 1.247 . S
O11 Zn5 2.035 1_554 S
O11 C13 1.258 . S
C12 O6 1.247 . S
C12 O7 1.258 1_455 S
C13 O10 1.247 . S
C13 O11 1.258 . S
C14 O16 1.247 . S
C14 O18 1.258 . S
C15 O22 1.247 1_565 S
C15 O23 1.258 . S
O16 C14 1.247 . S
O16 Zn17 2.028 1_545 S
Zn17 O16 2.028 1_565 S
Zn17 O21 2.035 . S
Zn17 O23 2.035 . S
Zn17 O24 2.028 1_565 S
O18 C14 1.258 . S
O18 Zn19 2.035 . S
Zn19 O18 2.035 . S
Zn19 O20 2.028 . S
Zn19 O22 2.028 . S
Zn19 O25 2.035 . S
O20 Zn19 2.028 . S
O20 C26 1.247 1_545 S
O21 Zn17 2.035 . S
O21 C26 1.258 . S
O22 C15 1.247 1_545 S
O22 Zn19 2.028 . S
O23 C15 1.258 . S
O23 Zn17 2.035 . S
O24 Zn17 2.028 1_545 S
O24 C27 1.247 . S
O25 Zn19 2.035 . S
O25 C27 1.258 . S
C26 O20 1.247 1_565 S
C26 O21 1.258 . S
C27 O24 1.247 . S
C27 O25 1.258 . S
C28 O30 1.247 . S
C28 O32 1.258 1_556 S
C29 O36 1.247 . S
C29 O37 1.258 . S
O30 C28 1.247 . S
O30 Zn31 2.023 1_556 S
Zn31 O30 2.023 1_554 S
Zn31 O35 2.042 . S
Zn31 O37 2.042 . S
Zn31 O38 2.023 1_554 S
O32 C28 1.258 1_554 S
O32 Zn33 2.035 . S
Zn33 O32 2.035 . S
Zn33 O34 2.028 . S
Zn33 O36 2.028 . S
Zn33 O39 2.035 . S
O34 Zn33 2.028 . S
O34 C40 1.247 . S
O35 Zn31 2.042 . S
O35 C40 1.258 . S
O36 C29 1.247 . S
O36 Zn33 2.028 . S
O37 C29 1.258 . S
O37 Zn31 2.042 . S
O38 Zn31 2.023 1_556 S
O38 C41 1.247 . S
O39 Zn33 2.035 . S
O39 C41 1.258 1_554 S
C40 O34 1.247 . S
C40 O35 1.258 . S
C41 O38 1.247 . S
C41 O39 1.258 1_556 S
C42 O44 1.247 . S
C42 O46 1.258 . S
C43 O50 1.247 . S
C43 O51 1.258 1_655 S
O44 C42 1.247 . S
O44 Zn45 2.028 . S
Zn45 O44 2.028 . S
Zn45 O49 2.035 . S
Zn45 O51 2.035 . S
Zn45 O52 2.028 . S
O46 C42 1.258 . S
O46 Zn47 2.035 1_455 S
Zn47 O46 2.035 1_655 S
Zn47 O48 2.028 . S
Zn47 O50 2.028 . S
Zn47 O53 2.035 1_655 S
O48 Zn47 2.028 . S
O48 C54 1.247 . S
O49 Zn45 2.035 . S
O49 C54 1.258 1_455 S
O50 C43 1.247 . S
O50 Zn47 2.028 . S
O51 C43 1.258 1_455 S
O51 Zn45 2.035 . S
O52 Zn45 2.028 . S
O52 C55 1.247 . S
O53 Zn47 2.035 1_455 S
O53 C55 1.258 . S
C54 O48 1.247 . S
C54 O49 1.258 1_655 S
C55 O52 1.247 . S
C55 O53 1.258 . S
C56 O58 1.247 1_565 S
C56 O60 1.258 . S
C57 O64 1.247 . S
C57 O65 1.258 1_556 S
O58 C56 1.247 1_545 S
O58 Zn59 2.028 . S
Zn59 O58 2.028 . S
Zn59 O63 2.035 . S
Zn59 O65 2.035 . S
Zn59 O66 2.028 . S
O60 C56 1.258 . S
O60 Zn61 2.026 1_554 S
Zn61 O60 2.026 1_556 S
Zn61 O62 2.034 1_565 S
Zn61 O64 2.034 1_565 S
Zn61 O67 2.026 1_556 S
O62 Zn61 2.034 1_545 S
O62 C68 1.247 . S
O63 Zn59 2.035 . S
O63 C68 1.258 1_554 S
O64 C57 1.247 . S
O64 Zn61 2.034 1_545 S
O65 C57 1.258 1_554 S
O65 Zn59 2.035 . S
O66 Zn59 2.028 . S
O66 C69 1.247 1_545 S
O67 Zn61 2.026 1_554 S
O67 C69 1.258 . S
C68 O62 1.247 . S
C68 O63 1.258 1_556 S
C69 O66 1.247 1_565 S
C69 O67 1.258 . S
C70 O72 1.247 . S
C70 O74 1.258 . S
C71 O78 1.247 . S
C71 O79 1.258 . S
O72 C70 1.247 . S
O72 Zn73 2.028 . S
Zn73 O72 2.028 . S
Zn73 O77 2.035 . S
Zn73 O79 2.035 . S
Zn73 O80 2.028 . S
O74 C70 1.258 . S
O74 Zn75 2.035 . S
Zn75 O74 2.035 . S
Zn75 O76 2.028 . S
Zn75 O78 2.028 . S
Zn75 O81 2.035 . S
O76 Zn75 2.028 . S
O76 C82 1.247 . S
O77 Zn73 2.035 . S
O77 C82 1.258 . S
O78 C71 1.247 . S
O78 Zn75 2.028 . S
O79 C71 1.258 . S
O79 Zn73 2.035 . S
O80 Zn73 2.028 . S
O80 C83 1.247 . S
O81 Zn75 2.035 . S
O81 C83 1.258 . S
C82 O76 1.247 . S
C82 O77 1.258 . S
C83 O80 1.247 . S
C83 O81 1.258 . S
C84 C85 1.560 . S
C84 H145 0.959 . S
C84 H146 0.959 . S
C84 H147 0.960 . S
C85 C84 1.560 . S
C85 O140 1.426 . S
C85 H144 0.980 . S
C86 C87 1.407 . S
C86 C91 1.418 . S
C86 O140 1.334 . S
C87 C86 1.407 . S
C87 C88 1.360 . S
C87 H148 0.929 . S
C88 C87 1.360 . S
C88 C89 1.401 . S
C88 C92 1.527 . S
C89 C88 1.401 . S
C89 C90 1.405 . S
C89 C122 1.587 . S
C90 C89 1.405 . S
C90 C91 1.332 . S
C90 C93 1.496 . S
C91 C86 1.418 . S
C91 C90 1.332 . S
C91 H149 0.929 . S
C92 C88 1.527 . S
C92 H150 0.959 . S
C92 H151 0.961 . S
C92 H152 0.961 . S
C93 C90 1.496 . S
C93 H153 0.960 . S
C93 H154 0.960 . S
C93 H155 0.961 . S
C94 C95 1.517 . S
C94 H157 0.961 . S
C94 H158 0.960 . S
C94 H159 0.959 . S
C95 C94 1.517 . S
C95 O143 1.468 . S
C95 H156 0.980 . S
C96 C97 1.349 . S
C96 C101 1.367 . S
C96 O143 1.408 . S
C97 C96 1.349 . S
C97 C98 1.407 . S
C97 H160 0.930 . S
C98 C97 1.407 . S
C98 C99 1.449 . S
C98 C102 1.535 . S
C99 C98 1.449 . S
C99 C100 1.384 . S
C99 C124 1.553 . S
C100 C99 1.384 . S
C100 C101 1.364 . S
C100 C103 1.450 . S
C101 C96 1.367 . S
C101 C100 1.364 . S
C101 H161 0.931 . S
C102 C98 1.535 . S
C102 H162 0.959 . S
C102 H163 0.961 . S
C102 H164 0.959 . S
C103 C100 1.450 . S
C103 H165 0.960 . S
C103 H166 0.960 . S
C103 H167 0.960 . S
C104 C105 1.309 . S
C104 C109 1.304 . S
C104 O142 1.435 . S
C105 C104 1.309 . S
C105 C106 1.476 . S
C105 H169 0.930 . S
C106 C105 1.476 . S
C106 C107 1.400 . S
C106 C110 1.567 . S
C107 C106 1.400 . S
C107 C108 1.373 . S
C107 C129 1.432 . S
C108 C107 1.373 . S
C108 C109 1.339 . S
C108 C111 1.530 . S
C109 C104 1.304 . S
C109 C108 1.339 . S
C109 H170 0.930 . S
C110 C106 1.567 . S
C110 H171 0.961 . S
C110 H172 0.960 . S
C110 H173 0.958 . S
C111 C108 1.530 . S
C111 H174 0.961 . S
C111 H175 0.960 . S
C111 H176 0.960 . S
C112 C113 1.530 . S
C112 H178 0.961 . S
C112 H179 0.961 . S
C112 H180 0.959 . S
C113 C112 1.530 . S
C113 O141 1.412 . S
C113 H177 0.980 . S
C114 C115 1.288 . S
C114 C119 1.377 . S
C114 O141 1.393 . S
C115 C114 1.288 . S
C115 C116 1.369 . S
C115 H181 0.932 . S
C116 C115 1.369 . S
C116 C117 1.398 . S
C116 C120 1.527 . S
C117 C116 1.398 . S
C117 C118 1.380 . S
C117 C131 1.497 . S
C118 C117 1.380 . S
C118 C119 1.383 . S
C118 C121 1.603 . S
C119 C114 1.377 . S
C119 C118 1.383 . S
C119 H182 0.929 . S
C120 C116 1.527 . S
C120 H183 0.961 . S
C120 H184 0.959 . S
C120 H185 0.959 . S
C121 C118 1.603 . S
C121 H186 0.960 . S
C121 H187 0.962 . S
C121 H188 0.961 . S
C122 C89 1.587 . S
C122 C123 1.360 . S
C122 C135 1.412 . S
C123 C122 1.360 . S
C123 C124 1.365 . S
C123 H189 0.929 . S
C124 C99 1.553 . S
C124 C123 1.365 . S
C124 C125 1.404 . S
C125 C124 1.404 . S
C125 C126 1.395 . S
C125 C136 1.451 . S
C126 C125 1.395 . S
C126 C127 1.322 . S
C126 H190 0.930 . S
C127 C126 1.322 . S
C127 C128 1.459 . S
C127 H191 0.929 . S
C128 C127 1.459 . S
C128 C129 1.445 . S
C128 C137 1.395 . S
C129 C107 1.432 . S
C129 C128 1.445 . S
C129 C130 1.370 . S
C130 C129 1.370 . S
C130 C131 1.438 . S
C130 H192 0.930 . S
C131 C117 1.497 . S
C131 C130 1.438 . S
C131 C132 1.360 . S
C132 C131 1.360 . S
C132 C133 1.401 . S
C132 C137 1.446 . S
C133 C132 1.401 . S
C133 C134 1.347 . S
C133 H193 0.929 . S
C134 C133 1.347 . S
C134 C135 1.455 . S
C134 H194 0.930 . S
C135 C122 1.412 . S
C135 C134 1.455 . S
C135 C136 1.331 . S
C136 C125 1.451 . S
C136 C135 1.331 . S
C136 C137 1.497 . S
C137 C128 1.395 . S
C137 C132 1.446 . S
C137 C136 1.497 . S
C138 C139 1.582 . S
C138 H195 0.962 . S
C138 H196 0.959 . S
C138 H197 0.958 . S
C139 C138 1.582 . S
C139 O142 1.458 . S
C139 H168 0.980 . S
O140 C85 1.426 . S
O140 C86 1.334 . S
O141 C113 1.412 . S
O141 C114 1.393 . S
O142 C104 1.435 . S
O142 C139 1.458 . S
O143 C95 1.468 . S
O143 C96 1.408 . S
H144 C85 0.980 . S
H145 C84 0.959 . S
H146 C84 0.959 . S
H147 C84 0.960 . S
H148 C87 0.929 . S
H149 C91 0.929 . S
H150 C92 0.959 . S
H151 C92 0.961 . S
H152 C92 0.961 . S
H153 C93 0.960 . S
H154 C93 0.960 . S
H155 C93 0.961 . S
H156 C95 0.980 . S
H157 C94 0.961 . S
H158 C94 0.960 . S
H159 C94 0.959 . S
H160 C97 0.930 . S
H161 C101 0.931 . S
H162 C102 0.959 . S
H163 C102 0.961 . S
H164 C102 0.959 . S
H165 C103 0.960 . S
H166 C103 0.960 . S
H167 C103 0.960 . S
H168 C139 0.980 . S
H169 C105 0.930 . S
H170 C109 0.930 . S
H171 C110 0.961 . S
H172 C110 0.960 . S
H173 C110 0.958 . S
H174 C111 0.961 . S
H175 C111 0.960 . S
H176 C111 0.960 . S
H177 C113 0.980 . S
H178 C112 0.961 . S
H179 C112 0.961 . S
H180 C112 0.959 . S
H181 C115 0.932 . S
H182 C119 0.929 . S
H183 C120 0.961 . S
H184 C120 0.959 . S
H185 C120 0.959 . S
H186 C121 0.960 . S
H187 C121 0.962 . S
H188 C121 0.961 . S
H189 C123 0.929 . S
H190 C126 0.930 . S
H191 C127 0.929 . S
H192 C130 0.930 . S
H193 C133 0.929 . S
H194 C134 0.930 . S
H195 C138 0.962 . S
H196 C138 0.959 . S
H197 C138 0.958 . S
C198 C199 1.560 . S
C198 H259 0.959 . S
C198 H260 0.959 . S
C198 H261 0.960 . S
C199 C198 1.560 . S
C199 O254 1.426 . S
C199 H258 0.980 . S
C200 C201 1.407 . S
C200 C205 1.418 . S
C200 O254 1.334 . S
C201 C200 1.407 . S
C201 C202 1.360 . S
C201 H262 0.929 . S
C202 C201 1.360 . S
C202 C203 1.401 . S
C202 C206 1.527 . S
C203 C202 1.401 . S
C203 C204 1.405 . S
C203 C236 1.587 . S
C204 C203 1.405 . S
C204 C205 1.332 . S
C204 C207 1.496 . S
C205 C200 1.418 . S
C205 C204 1.332 . S
C205 H263 0.929 . S
C206 C202 1.527 . S
C206 H264 0.959 . S
C206 H265 0.961 . S
C206 H266 0.961 . S
C207 C204 1.496 . S
C207 H267 0.960 . S
C207 H268 0.960 . S
C207 H269 0.961 . S
C208 C209 1.517 . S
C208 H271 0.961 . S
C208 H272 0.960 . S
C208 H273 0.959 . S
C209 C208 1.517 . S
C209 O257 1.468 . S
C209 H270 0.980 . S
C210 C211 1.349 . S
C210 C215 1.367 . S
C210 O257 1.408 . S
C211 C210 1.349 . S
C211 C212 1.407 . S
C211 H274 0.930 . S
C212 C211 1.407 . S
C212 C213 1.449 . S
C212 C216 1.535 . S
C213 C212 1.449 . S
C213 C214 1.384 . S
C213 C238 1.553 . S
C214 C213 1.384 . S
C214 C215 1.364 . S
C214 C217 1.450 . S
C215 C210 1.367 . S
C215 C214 1.364 . S
C215 H275 0.931 . S
C216 C212 1.535 . S
C216 H276 0.959 . S
C216 H277 0.961 . S
C216 H278 0.959 . S
C217 C214 1.450 . S
C217 H279 0.960 . S
C217 H280 0.960 . S
C217 H281 0.960 . S
C218 C219 1.309 . S
C218 C223 1.304 . S
C218 O256 1.435 . S
C219 C218 1.309 . S
C219 C220 1.476 . S
C219 H283 0.930 . S
C220 C219 1.476 . S
C220 C221 1.400 . S
C220 C224 1.567 . S
C221 C220 1.400 . S
C221 C222 1.373 . S
C221 C243 1.432 . S
C222 C221 1.373 . S
C222 C223 1.339 . S
C222 C225 1.530 . S
C223 C218 1.304 . S
C223 C222 1.339 . S
C223 H284 0.930 . S
C224 C220 1.567 . S
C224 H285 0.961 . S
C224 H286 0.960 . S
C224 H287 0.958 . S
C225 C222 1.530 . S
C225 H288 0.961 . S
C225 H289 0.960 . S
C225 H290 0.960 . S
C226 C227 1.530 . S
C226 H292 0.961 . S
C226 H293 0.961 . S
C226 H294 0.959 . S
C227 C226 1.530 . S
C227 O255 1.412 . S
C227 H291 0.980 . S
C228 C229 1.288 . S
C228 C233 1.377 . S
C228 O255 1.393 . S
C229 C228 1.288 . S
C229 C230 1.369 . S
C229 H295 0.932 . S
C230 C229 1.369 . S
C230 C231 1.398 . S
C230 C234 1.527 . S
C231 C230 1.398 . S
C231 C232 1.380 . S
C231 C245 1.497 . S
C232 C231 1.380 . S
C232 C233 1.383 . S
C232 C235 1.603 . S
C233 C228 1.377 . S
C233 C232 1.383 . S
C233 H296 0.929 . S
C234 C230 1.527 . S
C234 H297 0.961 . S
C234 H298 0.959 . S
C234 H299 0.959 . S
C235 C232 1.603 . S
C235 H300 0.960 . S
C235 H301 0.962 . S
C235 H302 0.961 . S
C236 C203 1.587 . S
C236 C237 1.360 . S
C236 C249 1.412 . S
C237 C236 1.360 . S
C237 C238 1.365 . S
C237 H303 0.929 . S
C238 C213 1.553 . S
C238 C237 1.365 . S
C238 C239 1.404 . S
C239 C238 1.404 . S
C239 C240 1.395 . S
C239 C250 1.451 . S
C240 C239 1.395 . S
C240 C241 1.322 . S
C240 H304 0.930 . S
C241 C240 1.322 . S
C241 C242 1.459 . S
C241 H305 0.929 . S
C242 C241 1.459 . S
C242 C243 1.445 . S
C242 C251 1.395 . S
C243 C221 1.432 . S
C243 C242 1.445 . S
C243 C244 1.370 . S
C244 C243 1.370 . S
C244 C245 1.438 . S
C244 H306 0.930 . S
C245 C231 1.497 . S
C245 C244 1.438 . S
C245 C246 1.360 . S
C246 C245 1.360 . S
C246 C247 1.401 . S
C246 C251 1.446 . S
C247 C246 1.401 . S
C247 C248 1.347 . S
C247 H307 0.929 . S
C248 C247 1.347 . S
C248 C249 1.455 . S
C248 H308 0.930 . S
C249 C236 1.412 . S
C249 C248 1.455 . S
C249 C250 1.331 . S
C250 C239 1.451 . S
C250 C249 1.331 . S
C250 C251 1.497 . S
C251 C242 1.395 . S
C251 C246 1.446 . S
C251 C250 1.497 . S
C252 C253 1.582 . S
C252 H309 0.962 . S
C252 H310 0.959 . S
C252 H311 0.958 . S
C253 C252 1.582 . S
C253 O256 1.458 . S
C253 H282 0.980 . S
O254 C199 1.426 . S
O254 C200 1.334 . S
O255 C227 1.412 . S
O255 C228 1.393 . S
O256 C218 1.435 . S
O256 C253 1.458 . S
O257 C209 1.468 . S
O257 C210 1.408 . S
H258 C199 0.980 . S
H259 C198 0.959 . S
H260 C198 0.959 . S
H261 C198 0.960 . S
H262 C201 0.929 . S
H263 C205 0.929 . S
H264 C206 0.959 . S
H265 C206 0.961 . S
H266 C206 0.961 . S
H267 C207 0.960 . S
H268 C207 0.960 . S
H269 C207 0.961 . S
H270 C209 0.980 . S
H271 C208 0.961 . S
H272 C208 0.960 . S
H273 C208 0.959 . S
H274 C211 0.930 . S
H275 C215 0.931 . S
H276 C216 0.959 . S
H277 C216 0.961 . S
H278 C216 0.959 . S
H279 C217 0.960 . S
H280 C217 0.960 . S
H281 C217 0.960 . S
H282 C253 0.980 . S
H283 C219 0.930 . S
H284 C223 0.930 . S
H285 C224 0.961 . S
H286 C224 0.960 . S
H287 C224 0.958 . S
H288 C225 0.961 . S
H289 C225 0.960 . S
H290 C225 0.960 . S
H291 C227 0.980 . S
H292 C226 0.961 . S
H293 C226 0.961 . S
H294 C226 0.959 . S
H295 C229 0.932 . S
H296 C233 0.929 . S
H297 C234 0.961 . S
H298 C234 0.959 . S
H299 C234 0.959 . S
H300 C235 0.960 . S
H301 C235 0.962 . S
H302 C235 0.961 . S
H303 C237 0.929 . S
H304 C240 0.930 . S
H305 C241 0.929 . S
H306 C244 0.930 . S
H307 C247 0.929 . S
H308 C248 0.930 . S
H309 C252 0.962 . S
H310 C252 0.959 . S
H311 C252 0.958 . S
C312 C313 1.560 . S
C312 H373 0.959 . S
C312 H374 0.959 . S
C312 H375 0.960 . S
C313 C312 1.560 . S
C313 O368 1.426 . S
C313 H372 0.980 . S
C314 C315 1.407 . S
C314 C319 1.418 . S
C314 O368 1.334 . S
C315 C314 1.407 . S
C315 C316 1.360 . S
C315 H376 0.929 . S
C316 C315 1.360 . S
C316 C317 1.401 . S
C316 C320 1.527 . S
C317 C316 1.401 . S
C317 C318 1.405 . S
C317 C350 1.587 . S
C318 C317 1.405 . S
C318 C319 1.332 . S
C318 C321 1.496 . S
C319 C314 1.418 . S
C319 C318 1.332 . S
C319 H377 0.929 . S
C320 C316 1.527 . S
C320 H378 0.959 . S
C320 H379 0.961 . S
C320 H380 0.961 . S
C321 C318 1.496 . S
C321 H381 0.960 . S
C321 H382 0.960 . S
C321 H383 0.961 . S
C322 C323 1.517 . S
C322 H385 0.961 . S
C322 H386 0.960 . S
C322 H387 0.959 . S
C323 C322 1.517 . S
C323 O371 1.468 . S
C323 H384 0.980 . S
C324 C325 1.349 . S
C324 C329 1.367 . S
C324 O371 1.408 . S
C325 C324 1.349 . S
C325 C326 1.407 . S
C325 H388 0.930 . S
C326 C325 1.407 . S
C326 C327 1.449 . S
C326 C330 1.535 . S
C327 C326 1.449 . S
C327 C328 1.384 . S
C327 C352 1.553 . S
C328 C327 1.384 . S
C328 C329 1.364 . S
C328 C331 1.450 . S
C329 C324 1.367 . S
C329 C328 1.364 . S
C329 H389 0.931 . S
C330 C326 1.535 . S
C330 H390 0.959 . S
C330 H391 0.961 . S
C330 H392 0.959 . S
C331 C328 1.450 . S
C331 H393 0.960 . S
C331 H394 0.960 . S
C331 H395 0.960 . S
C332 C333 1.309 . S
C332 C337 1.304 . S
C332 O370 1.435 . S
C333 C332 1.309 . S
C333 C334 1.476 . S
C333 H397 0.930 . S
C334 C333 1.476 . S
C334 C335 1.400 . S
C334 C338 1.567 . S
C335 C334 1.400 . S
C335 C336 1.373 . S
C335 C357 1.432 . S
C336 C335 1.373 . S
C336 C337 1.339 . S
C336 C339 1.530 . S
C337 C332 1.304 . S
C337 C336 1.339 . S
C337 H398 0.930 . S
C338 C334 1.567 . S
C338 H399 0.961 . S
C338 H400 0.960 . S
C338 H401 0.958 . S
C339 C336 1.530 . S
C339 H402 0.961 . S
C339 H403 0.960 . S
C339 H404 0.960 . S
C340 C341 1.530 . S
C340 H406 0.961 . S
C340 H407 0.961 . S
C340 H408 0.959 . S
C341 C340 1.530 . S
C341 O369 1.412 . S
C341 H405 0.980 . S
C342 C343 1.288 . S
C342 C347 1.377 . S
C342 O369 1.393 . S
C343 C342 1.288 . S
C343 C344 1.369 . S
C343 H409 0.932 . S
C344 C343 1.369 . S
C344 C345 1.398 . S
C344 C348 1.527 . S
C345 C344 1.398 . S
C345 C346 1.380 . S
C345 C359 1.497 . S
C346 C345 1.380 . S
C346 C347 1.383 . S
C346 C349 1.603 . S
C347 C342 1.377 . S
C347 C346 1.383 . S
C347 H410 0.929 . S
C348 C344 1.527 . S
C348 H411 0.961 . S
C348 H412 0.959 . S
C348 H413 0.959 . S
C349 C346 1.603 . S
C349 H414 0.960 . S
C349 H415 0.962 . S
C349 H416 0.961 . S
C350 C317 1.587 . S
C350 C351 1.360 . S
C350 C363 1.412 . S
C351 C350 1.360 . S
C351 C352 1.365 . S
C351 H417 0.929 . S
C352 C327 1.553 . S
C352 C351 1.365 . S
C352 C353 1.404 . S
C353 C352 1.404 . S
C353 C354 1.395 . S
C353 C364 1.451 . S
C354 C353 1.395 . S
C354 C355 1.322 . S
C354 H418 0.930 . S
C355 C354 1.322 . S
C355 C356 1.459 . S
C355 H419 0.929 . S
C356 C355 1.459 . S
C356 C357 1.445 . S
C356 C365 1.395 . S
C357 C335 1.432 . S
C357 C356 1.445 . S
C357 C358 1.370 . S
C358 C357 1.370 . S
C358 C359 1.438 . S
C358 H420 0.930 . S
C359 C345 1.497 . S
C359 C358 1.438 . S
C359 C360 1.360 . S
C360 C359 1.360 . S
C360 C361 1.401 . S
C360 C365 1.446 . S
C361 C360 1.401 . S
C361 C362 1.347 . S
C361 H421 0.929 . S
C362 C361 1.347 . S
C362 C363 1.455 . S
C362 H422 0.930 . S
C363 C350 1.412 . S
C363 C362 1.455 . S
C363 C364 1.331 . S
C364 C353 1.451 . S
C364 C363 1.331 . S
C364 C365 1.497 . S
C365 C356 1.395 . S
C365 C360 1.446 . S
C365 C364 1.497 . S
C366 C367 1.582 . S
C366 H423 0.962 . S
C366 H424 0.959 . S
C366 H425 0.958 . S
C367 C366 1.582 . S
C367 O370 1.458 . S
C367 H396 0.980 . S
O368 C313 1.426 . S
O368 C314 1.334 . S
O369 C341 1.412 . S
O369 C342 1.393 . S
O370 C332 1.435 . S
O370 C367 1.458 . S
O371 C323 1.468 . S
O371 C324 1.408 . S
H372 C313 0.980 . S
H373 C312 0.959 . S
H374 C312 0.959 . S
H375 C312 0.960 . S
H376 C315 0.929 . S
H377 C319 0.929 . S
H378 C320 0.959 . S
H379 C320 0.961 . S
H380 C320 0.961 . S
H381 C321 0.960 . S
H382 C321 0.960 . S
H383 C321 0.961 . S
H384 C323 0.980 . S
H385 C322 0.961 . S
H386 C322 0.960 . S
H387 C322 0.959 . S
H388 C325 0.930 . S
H389 C329 0.931 . S
H390 C330 0.959 . S
H391 C330 0.961 . S
H392 C330 0.959 . S
H393 C331 0.960 . S
H394 C331 0.960 . S
H395 C331 0.960 . S
H396 C367 0.980 . S
H397 C333 0.930 . S
H398 C337 0.930 . S
H399 C338 0.961 . S
H400 C338 0.960 . S
H401 C338 0.958 . S
H402 C339 0.961 . S
H403 C339 0.960 . S
H404 C339 0.960 . S
H405 C341 0.980 . S
H406 C340 0.961 . S
H407 C340 0.961 . S
H408 C340 0.959 . S
H409 C343 0.932 . S
H410 C347 0.929 . S
H411 C348 0.961 . S
H412 C348 0.959 . S
H413 C348 0.959 . S
H414 C349 0.960 . S
H415 C349 0.962 . S
H416 C349 0.961 . S
H417 C351 0.929 . S
H418 C354 0.930 . S
H419 C355 0.929 . S
H420 C358 0.930 . S
H421 C361 0.929 . S
H422 C362 0.930 . S
H423 C366 0.962 . S
H424 C366 0.959 . S
H425 C366 0.958 . S
C426 C427 1.560 . S
C426 H487 0.959 . S
C426 H488 0.959 . S
C426 H489 0.960 . S
C427 C426 1.560 . S
C427 O482 1.426 . S
C427 H486 0.980 . S
C428 C429 1.407 . S
C428 C433 1.418 . S
C428 O482 1.334 . S
C429 C428 1.407 . S
C429 C430 1.360 . S
C429 H490 0.929 . S
C430 C429 1.360 . S
C430 C431 1.401 . S
C430 C434 1.527 . S
C431 C430 1.401 . S
C431 C432 1.405 . S
C431 C464 1.587 . S
C432 C431 1.405 . S
C432 C433 1.332 . S
C432 C435 1.496 . S
C433 C428 1.418 . S
C433 C432 1.332 . S
C433 H491 0.929 . S
C434 C430 1.527 . S
C434 H492 0.959 . S
C434 H493 0.961 . S
C434 H494 0.961 . S
C435 C432 1.496 . S
C435 H495 0.960 . S
C435 H496 0.960 . S
C435 H497 0.961 . S
C436 C437 1.517 . S
C436 H499 0.961 . S
C436 H500 0.960 . S
C436 H501 0.959 . S
C437 C436 1.517 . S
C437 O485 1.468 . S
C437 H498 0.980 . S
C438 C439 1.349 . S
C438 C443 1.367 . S
C438 O485 1.408 . S
C439 C438 1.349 . S
C439 C440 1.407 . S
C439 H502 0.930 . S
C440 C439 1.407 . S
C440 C441 1.449 . S
C440 C444 1.535 . S
C441 C440 1.449 . S
C441 C442 1.384 . S
C441 C466 1.553 . S
C442 C441 1.384 . S
C442 C443 1.364 . S
C442 C445 1.450 . S
C443 C438 1.367 . S
C443 C442 1.364 . S
C443 H503 0.931 . S
C444 C440 1.535 . S
C444 H504 0.959 . S
C444 H505 0.961 . S
C444 H506 0.959 . S
C445 C442 1.450 . S
C445 H507 0.960 . S
C445 H508 0.960 . S
C445 H509 0.960 . S
C446 C447 1.309 . S
C446 C451 1.304 . S
C446 O484 1.435 . S
C447 C446 1.309 . S
C447 C448 1.476 . S
C447 H511 0.930 . S
C448 C447 1.476 . S
C448 C449 1.400 . S
C448 C452 1.567 . S
C449 C448 1.400 . S
C449 C450 1.373 . S
C449 C471 1.432 . S
C450 C449 1.373 . S
C450 C451 1.339 . S
C450 C453 1.530 . S
C451 C446 1.304 . S
C451 C450 1.339 . S
C451 H512 0.930 . S
C452 C448 1.567 . S
C452 H513 0.961 . S
C452 H514 0.960 . S
C452 H515 0.958 . S
C453 C450 1.530 . S
C453 H516 0.961 . S
C453 H517 0.960 . S
C453 H518 0.960 . S
C454 C455 1.530 . S
C454 H520 0.961 . S
C454 H521 0.961 . S
C454 H522 0.959 . S
C455 C454 1.530 . S
C455 O483 1.412 . S
C455 H519 0.980 . S
C456 C457 1.288 . S
C456 C461 1.377 . S
C456 O483 1.393 . S
C457 C456 1.288 . S
C457 C458 1.369 . S
C457 H523 0.932 . S
C458 C457 1.369 . S
C458 C459 1.398 . S
C458 C462 1.527 . S
C459 C458 1.398 . S
C459 C460 1.380 . S
C459 C473 1.497 . S
C460 C459 1.380 . S
C460 C461 1.383 . S
C460 C463 1.603 . S
C461 C456 1.377 . S
C461 C460 1.383 . S
C461 H524 0.929 . S
C462 C458 1.527 . S
C462 H525 0.961 . S
C462 H526 0.959 . S
C462 H527 0.959 . S
C463 C460 1.603 . S
C463 H528 0.960 . S
C463 H529 0.962 . S
C463 H530 0.961 . S
C464 C431 1.587 . S
C464 C465 1.360 . S
C464 C477 1.412 . S
C465 C464 1.360 . S
C465 C466 1.365 . S
C465 H531 0.929 . S
C466 C441 1.553 . S
C466 C465 1.365 . S
C466 C467 1.404 . S
C467 C466 1.404 . S
C467 C468 1.395 . S
C467 C478 1.451 . S
C468 C467 1.395 . S
C468 C469 1.322 . S
C468 H532 0.930 . S
C469 C468 1.322 . S
C469 C470 1.459 . S
C469 H533 0.929 . S
C470 C469 1.459 . S
C470 C471 1.445 . S
C470 C479 1.395 . S
C471 C449 1.432 . S
C471 C470 1.445 . S
C471 C472 1.370 . S
C472 C471 1.370 . S
C472 C473 1.438 . S
C472 H534 0.930 . S
C473 C459 1.497 . S
C473 C472 1.438 . S
C473 C474 1.360 . S
C474 C473 1.360 . S
C474 C475 1.401 . S
C474 C479 1.446 . S
C475 C474 1.401 . S
C475 C476 1.347 . S
C475 H535 0.929 . S
C476 C475 1.347 . S
C476 C477 1.455 . S
C476 H536 0.930 . S
C477 C464 1.412 . S
C477 C476 1.455 . S
C477 C478 1.331 . S
C478 C467 1.451 . S
C478 C477 1.331 . S
C478 C479 1.497 . S
C479 C470 1.395 . S
C479 C474 1.446 . S
C479 C478 1.497 . S
C480 C481 1.582 . S
C480 H537 0.962 . S
C480 H538 0.959 . S
C480 H539 0.958 . S
C481 C480 1.582 . S
C481 O484 1.458 . S
C481 H510 0.980 . S
O482 C427 1.426 . S
O482 C428 1.334 . S
O483 C455 1.412 . S
O483 C456 1.393 . S
O484 C446 1.435 . S
O484 C481 1.458 . S
O485 C437 1.468 . S
O485 C438 1.408 . S
H486 C427 0.980 . S
H487 C426 0.959 . S
H488 C426 0.959 . S
H489 C426 0.960 . S
H490 C429 0.929 . S
H491 C433 0.929 . S
H492 C434 0.959 . S
H493 C434 0.961 . S
H494 C434 0.961 . S
H495 C435 0.960 . S
H496 C435 0.960 . S
H497 C435 0.961 . S
H498 C437 0.980 . S
H499 C436 0.961 . S
H500 C436 0.960 . S
H501 C436 0.959 . S
H502 C439 0.930 . S
H503 C443 0.931 . S
H504 C444 0.959 . S
H505 C444 0.961 . S
H506 C444 0.959 . S
H507 C445 0.960 . S
H508 C445 0.960 . S
H509 C445 0.960 . S
H510 C481 0.980 . S
H511 C447 0.930 . S
H512 C451 0.930 . S
H513 C452 0.961 . S
H514 C452 0.960 . S
H515 C452 0.958 . S
H516 C453 0.961 . S
H517 C453 0.960 . S
H518 C453 0.960 . S
H519 C455 0.980 . S
H520 C454 0.961 . S
H521 C454 0.961 . S
H522 C454 0.959 . S
H523 C457 0.932 . S
H524 C461 0.929 . S
H525 C462 0.961 . S
H526 C462 0.959 . S
H527 C462 0.959 . S
H528 C463 0.960 . S
H529 C463 0.962 . S
H530 C463 0.961 . S
H531 C465 0.929 . S
H532 C468 0.930 . S
H533 C469 0.929 . S
H534 C472 0.930 . S
H535 C475 0.929 . S
H536 C476 0.930 . S
H537 C480 0.962 . S
H538 C480 0.959 . S
H539 C480 0.958 . S
C540 C541 1.560 . S
C540 H601 0.959 . S
C540 H602 0.959 . S
C540 H603 0.960 . S
C541 C540 1.560 . S
C541 O596 1.426 . S
C541 H600 0.980 . S
C542 C543 1.407 . S
C542 C547 1.418 . S
C542 O596 1.334 . S
C543 C542 1.407 . S
C543 C544 1.360 . S
C543 H604 0.929 . S
C544 C543 1.360 . S
C544 C545 1.401 . S
C544 C548 1.527 . S
C545 C544 1.401 . S
C545 C546 1.405 . S
C545 C578 1.587 . S
C546 C545 1.405 . S
C546 C547 1.332 . S
C546 C549 1.496 . S
C547 C542 1.418 . S
C547 C546 1.332 . S
C547 H605 0.929 . S
C548 C544 1.527 . S
C548 H606 0.959 . S
C548 H607 0.961 . S
C548 H608 0.961 . S
C549 C546 1.496 . S
C549 H609 0.960 . S
C549 H610 0.960 . S
C549 H611 0.961 . S
C550 C551 1.517 . S
C550 H613 0.961 . S
C550 H614 0.960 . S
C550 H615 0.959 . S
C551 C550 1.517 . S
C551 O599 1.468 . S
C551 H612 0.980 . S
C552 C553 1.349 . S
C552 C557 1.367 . S
C552 O599 1.408 . S
C553 C552 1.349 . S
C553 C554 1.407 . S
C553 H616 0.930 . S
C554 C553 1.407 . S
C554 C555 1.449 . S
C554 C558 1.535 . S
C555 C554 1.449 . S
C555 C556 1.384 . S
C555 C580 1.553 . S
C556 C555 1.384 . S
C556 C557 1.364 . S
C556 C559 1.450 . S
C557 C552 1.367 . S
C557 C556 1.364 . S
C557 H617 0.931 . S
C558 C554 1.535 . S
C558 H618 0.959 . S
C558 H619 0.961 . S
C558 H620 0.959 . S
C559 C556 1.450 . S
C559 H621 0.960 . S
C559 H622 0.960 . S
C559 H623 0.960 . S
C560 C561 1.309 . S
C560 C565 1.304 . S
C560 O598 1.435 . S
C561 C560 1.309 . S
C561 C562 1.476 . S
C561 H625 0.930 . S
C562 C561 1.476 . S
C562 C563 1.400 . S
C562 C566 1.567 . S
C563 C562 1.400 . S
C563 C564 1.373 . S
C563 C585 1.432 . S
C564 C563 1.373 . S
C564 C565 1.339 . S
C564 C567 1.530 . S
C565 C560 1.304 . S
C565 C564 1.339 . S
C565 H626 0.930 . S
C566 C562 1.567 . S
C566 H627 0.961 . S
C566 H628 0.960 . S
C566 H629 0.958 . S
C567 C564 1.530 . S
C567 H630 0.961 . S
C567 H631 0.960 . S
C567 H632 0.960 . S
C568 C569 1.530 . S
C568 H634 0.961 . S
C568 H635 0.961 . S
C568 H636 0.959 . S
C569 C568 1.530 . S
C569 O597 1.412 . S
C569 H633 0.980 . S
C570 C571 1.288 . S
C570 C575 1.377 . S
C570 O597 1.393 . S
C571 C570 1.288 . S
C571 C572 1.369 . S
C571 H637 0.932 . S
C572 C571 1.369 . S
C572 C573 1.398 . S
C572 C576 1.527 . S
C573 C572 1.398 . S
C573 C574 1.380 . S
C573 C587 1.497 . S
C574 C573 1.380 . S
C574 C575 1.383 . S
C574 C577 1.603 . S
C575 C570 1.377 . S
C575 C574 1.383 . S
C575 H638 0.929 . S
C576 C572 1.527 . S
C576 H639 0.961 . S
C576 H640 0.959 . S
C576 H641 0.959 . S
C577 C574 1.603 . S
C577 H642 0.960 . S
C577 H643 0.962 . S
C577 H644 0.961 . S
C578 C545 1.587 . S
C578 C579 1.360 . S
C578 C591 1.412 . S
C579 C578 1.360 . S
C579 C580 1.365 . S
C579 H645 0.929 . S
C580 C555 1.553 . S
C580 C579 1.365 . S
C580 C581 1.404 . S
C581 C580 1.404 . S
C581 C582 1.395 . S
C581 C592 1.451 . S
C582 C581 1.395 . S
C582 C583 1.322 . S
C582 H646 0.930 . S
C583 C582 1.322 . S
C583 C584 1.459 . S
C583 H647 0.929 . S
C584 C583 1.459 . S
C584 C585 1.445 . S
C584 C593 1.395 . S
C585 C563 1.432 . S
C585 C584 1.445 . S
C585 C586 1.370 . S
C586 C585 1.370 . S
C586 C587 1.438 . S
C586 H648 0.930 . S
C587 C573 1.497 . S
C587 C586 1.438 . S
C587 C588 1.360 . S
C588 C587 1.360 . S
C588 C589 1.401 . S
C588 C593 1.446 . S
C589 C588 1.401 . S
C589 C590 1.347 . S
C589 H649 0.929 . S
C590 C589 1.347 . S
C590 C591 1.455 . S
C590 H650 0.930 . S
C591 C578 1.412 . S
C591 C590 1.455 . S
C591 C592 1.331 . S
C592 C581 1.451 . S
C592 C591 1.331 . S
C592 C593 1.497 . S
C593 C584 1.395 . S
C593 C588 1.446 . S
C593 C592 1.497 . S
C594 C595 1.582 . S
C594 H651 0.962 . S
C594 H652 0.959 . S
C594 H653 0.958 . S
C595 C594 1.582 . S
C595 O598 1.458 . S
C595 H624 0.980 . S
O596 C541 1.426 . S
O596 C542 1.334 . S
O597 C569 1.412 . S
O597 C570 1.393 . S
O598 C560 1.435 . S
O598 C595 1.458 . S
O599 C551 1.468 . S
O599 C552 1.408 . S
H600 C541 0.980 . S
H601 C540 0.959 . S
H602 C540 0.959 . S
H603 C540 0.960 . S
H604 C543 0.929 . S
H605 C547 0.929 . S
H606 C548 0.959 . S
H607 C548 0.961 . S
H608 C548 0.961 . S
H609 C549 0.960 . S
H610 C549 0.960 . S
H611 C549 0.961 . S
H612 C551 0.980 . S
H613 C550 0.961 . S
H614 C550 0.960 . S
H615 C550 0.959 . S
H616 C553 0.930 . S
H617 C557 0.931 . S
H618 C558 0.959 . S
H619 C558 0.961 . S
H620 C558 0.959 . S
H621 C559 0.960 . S
H622 C559 0.960 . S
H623 C559 0.960 . S
H624 C595 0.980 . S
H625 C561 0.930 . S
H626 C565 0.930 . S
H627 C566 0.961 . S
H628 C566 0.960 . S
H629 C566 0.958 . S
H630 C567 0.961 . S
H631 C567 0.960 . S
H632 C567 0.960 . S
H633 C569 0.980 . S
H634 C568 0.961 . S
H635 C568 0.961 . S
H636 C568 0.959 . S
H637 C571 0.932 . S
H638 C575 0.929 . S
H639 C576 0.961 . S
H640 C576 0.959 . S
H641 C576 0.959 . S
H642 C577 0.960 . S
H643 C577 0.962 . S
H644 C577 0.961 . S
H645 C579 0.929 . S
H646 C582 0.930 . S
H647 C583 0.929 . S
H648 C586 0.930 . S
H649 C589 0.929 . S
H650 C590 0.930 . S
H651 C594 0.962 . S
H652 C594 0.959 . S
H653 C594 0.958 . S
C654 C655 1.560 . S
C654 H715 0.959 . S
C654 H716 0.959 . S
C654 H717 0.960 . S
C655 C654 1.560 . S
C655 O710 1.426 . S
C655 H714 0.980 . S
C656 C657 1.407 . S
C656 C661 1.418 . S
C656 O710 1.334 . S
C657 C656 1.407 . S
C657 C658 1.360 . S
C657 H718 0.929 . S
C658 C657 1.360 . S
C658 C659 1.401 . S
C658 C662 1.527 . S
C659 C658 1.401 . S
C659 C660 1.405 . S
C659 C692 1.587 . S
C660 C659 1.405 . S
C660 C661 1.332 . S
C660 C663 1.496 . S
C661 C656 1.418 . S
C661 C660 1.332 . S
C661 H719 0.929 . S
C662 C658 1.527 . S
C662 H720 0.959 . S
C662 H721 0.961 . S
C662 H722 0.961 . S
C663 C660 1.496 . S
C663 H723 0.960 . S
C663 H724 0.960 . S
C663 H725 0.961 . S
C664 C665 1.517 . S
C664 H727 0.961 . S
C664 H728 0.960 . S
C664 H729 0.959 . S
C665 C664 1.517 . S
C665 O713 1.468 . S
C665 H726 0.980 . S
C666 C667 1.349 . S
C666 C671 1.367 . S
C666 O713 1.408 . S
C667 C666 1.349 . S
C667 C668 1.407 . S
C667 H730 0.930 . S
C668 C667 1.407 . S
C668 C669 1.449 . S
C668 C672 1.535 . S
C669 C668 1.449 . S
C669 C670 1.384 . S
C669 C694 1.553 . S
C670 C669 1.384 . S
C670 C671 1.364 . S
C670 C673 1.450 . S
C671 C666 1.367 . S
C671 C670 1.364 . S
C671 H731 0.931 . S
C672 C668 1.535 . S
C672 H732 0.959 . S
C672 H733 0.961 . S
C672 H734 0.959 . S
C673 C670 1.450 . S
C673 H735 0.960 . S
C673 H736 0.960 . S
C673 H737 0.960 . S
C674 C675 1.309 . S
C674 C679 1.304 . S
C674 O712 1.435 . S
C675 C674 1.309 . S
C675 C676 1.476 . S
C675 H739 0.930 . S
C676 C675 1.476 . S
C676 C677 1.400 . S
C676 C680 1.567 . S
C677 C676 1.400 . S
C677 C678 1.373 . S
C677 C699 1.432 . S
C678 C677 1.373 . S
C678 C679 1.339 . S
C678 C681 1.530 . S
C679 C674 1.304 . S
C679 C678 1.339 . S
C679 H740 0.930 . S
C680 C676 1.567 . S
C680 H741 0.961 . S
C680 H742 0.960 . S
C680 H743 0.958 . S
C681 C678 1.530 . S
C681 H744 0.961 . S
C681 H745 0.960 . S
C681 H746 0.960 . S
C682 C683 1.530 . S
C682 H748 0.961 . S
C682 H749 0.961 . S
C682 H750 0.959 . S
C683 C682 1.530 . S
C683 O711 1.412 . S
C683 H747 0.980 . S
C684 C685 1.288 . S
C684 C689 1.377 . S
C684 O711 1.393 . S
C685 C684 1.288 . S
C685 C686 1.369 . S
C685 H751 0.932 . S
C686 C685 1.369 . S
C686 C687 1.398 . S
C686 C690 1.527 . S
C687 C686 1.398 . S
C687 C688 1.380 . S
C687 C701 1.497 . S
C688 C687 1.380 . S
C688 C689 1.383 . S
C688 C691 1.603 . S
C689 C684 1.377 . S
C689 C688 1.383 . S
C689 H752 0.929 . S
C690 C686 1.527 . S
C690 H753 0.961 . S
C690 H754 0.959 . S
C690 H755 0.959 . S
C691 C688 1.603 . S
C691 H756 0.960 . S
C691 H757 0.962 . S
C691 H758 0.961 . S
C692 C659 1.587 . S
C692 C693 1.360 . S
C692 C705 1.412 . S
C693 C692 1.360 . S
C693 C694 1.365 . S
C693 H759 0.929 . S
C694 C669 1.553 . S
C694 C693 1.365 . S
C694 C695 1.404 . S
C695 C694 1.404 . S
C695 C696 1.395 . S
C695 C706 1.451 . S
C696 C695 1.395 . S
C696 C697 1.322 . S
C696 H760 0.930 . S
C697 C696 1.322 . S
C697 C698 1.459 . S
C697 H761 0.929 . S
C698 C697 1.459 . S
C698 C699 1.445 . S
C698 C707 1.395 . S
C699 C677 1.432 . S
C699 C698 1.445 . S
C699 C700 1.370 . S
C700 C699 1.370 . S
C700 C701 1.438 . S
C700 H762 0.930 . S
C701 C687 1.497 . S
C701 C700 1.438 . S
C701 C702 1.360 . S
C702 C701 1.360 . S
C702 C703 1.401 . S
C702 C707 1.446 . S
C703 C702 1.401 . S
C703 C704 1.347 . S
C703 H763 0.929 . S
C704 C703 1.347 . S
C704 C705 1.455 . S
C704 H764 0.930 . S
C705 C692 1.412 . S
C705 C704 1.455 . S
C705 C706 1.331 . S
C706 C695 1.451 . S
C706 C705 1.331 . S
C706 C707 1.497 . S
C707 C698 1.395 . S
C707 C702 1.446 . S
C707 C706 1.497 . S
C708 C709 1.582 . S
C708 H765 0.962 . S
C708 H766 0.959 . S
C708 H767 0.958 . S
C709 C708 1.582 . S
C709 O712 1.458 . S
C709 H738 0.980 . S
O710 C655 1.426 . S
O710 C656 1.334 . S
O711 C683 1.412 . S
O711 C684 1.393 . S
O712 C674 1.435 . S
O712 C709 1.458 . S
O713 C665 1.468 . S
O713 C666 1.408 . S
H714 C655 0.980 . S
H715 C654 0.959 . S
H716 C654 0.959 . S
H717 C654 0.960 . S
H718 C657 0.929 . S
H719 C661 0.929 . S
H720 C662 0.959 . S
H721 C662 0.961 . S
H722 C662 0.961 . S
H723 C663 0.960 . S
H724 C663 0.960 . S
H725 C663 0.961 . S
H726 C665 0.980 . S
H727 C664 0.961 . S
H728 C664 0.960 . S
H729 C664 0.959 . S
H730 C667 0.930 . S
H731 C671 0.931 . S
H732 C672 0.959 . S
H733 C672 0.961 . S
H734 C672 0.959 . S
H735 C673 0.960 . S
H736 C673 0.960 . S
H737 C673 0.960 . S
H738 C709 0.980 . S
H739 C675 0.930 . S
H740 C679 0.930 . S
H741 C680 0.961 . S
H742 C680 0.960 . S
H743 C680 0.958 . S
H744 C681 0.961 . S
H745 C681 0.960 . S
H746 C681 0.960 . S
H747 C683 0.980 . S
H748 C682 0.961 . S
H749 C682 0.961 . S
H750 C682 0.959 . S
H751 C685 0.932 . S
H752 C689 0.929 . S
H753 C690 0.961 . S
H754 C690 0.959 . S
H755 C690 0.959 . S
H756 C691 0.960 . S
H757 C691 0.962 . S
H758 C691 0.961 . S
H759 C693 0.929 . S
H760 C696 0.930 . S
H761 C697 0.929 . S
H762 C700 0.930 . S
H763 C703 0.929 . S
H764 C704 0.930 . S
H765 C708 0.962 . S
H766 C708 0.959 . S
H767 C708 0.958 . S
C768 C769 1.391 . S
C768 C770 1.394 . S
C768 H784 0.931 . S
C769 C768 1.391 . S
C769 C773 1.376 . S
C770 C768 1.394 . S
C770 C771 1.369 . S
C770 C774 1.531 . S
C771 C770 1.369 . S
C771 C772 1.410 . S
C771 C779 1.503 . S
C772 C771 1.410 . S
C772 C773 1.392 . S
C772 C775 1.511 . S
C773 C769 1.376 . S
C773 C772 1.392 . S
C773 H785 0.929 . S
C774 C770 1.531 . S
C774 H786 0.960 . S
C774 H787 0.962 . S
C774 H788 0.960 . S
C775 C772 1.511 . S
C775 H789 0.961 . S
C775 H790 0.961 . S
C775 H791 0.961 . S
C776 C777 1.370 . S
C776 C778 1.363 . S
C776 H792 0.931 . S
C777 C776 1.370 . S
C777 C781 1.408 . S
C778 C776 1.363 . S
C778 C779 1.370 . S
C778 C782 1.524 . S
C779 C771 1.503 . S
C779 C778 1.370 . S
C779 C780 1.403 . S
C780 C779 1.403 . S
C780 C781 1.404 . S
C780 C783 1.539 . S
C781 C777 1.408 . S
C781 C780 1.404 . S
C781 H793 0.930 . S
C782 C778 1.524 . S
C782 H794 0.956 . S
C782 H795 0.961 . S
C782 H796 0.961 . S
C783 C780 1.539 . S
C783 H797 0.958 . S
C783 H798 0.961 . S
C783 H799 0.960 . S
H784 C768 0.931 . S
H785 C773 0.929 . S
H786 C774 0.960 . S
H787 C774 0.962 . S
H788 C774 0.960 . S
H789 C775 0.961 . S
H790 C775 0.961 . S
H791 C775 0.961 . S
H792 C776 0.931 . S
H793 C781 0.930 . S
H794 C782 0.956 . S
H795 C782 0.961 . S
H796 C782 0.961 . S
H797 C783 0.958 . S
H798 C783 0.961 . S
H799 C783 0.960 . S
C800 C801 1.391 . S
C800 C802 1.394 . S
C800 H816 0.931 . S
C801 C800 1.391 . S
C801 C805 1.376 . S
C802 C800 1.394 . S
C802 C803 1.369 . S
C802 C806 1.531 . S
C803 C802 1.369 . S
C803 C804 1.410 . S
C803 C811 1.503 . S
C804 C803 1.410 . S
C804 C805 1.392 . S
C804 C807 1.511 . S
C805 C801 1.376 . S
C805 C804 1.392 . S
C805 H817 0.929 . S
C806 C802 1.531 . S
C806 H818 0.960 . S
C806 H819 0.962 . S
C806 H820 0.960 . S
C807 C804 1.511 . S
C807 H821 0.961 . S
C807 H822 0.961 . S
C807 H823 0.961 . S
C808 C809 1.370 . S
C808 C810 1.363 . S
C808 H824 0.931 . S
C809 C808 1.370 . S
C809 C813 1.408 . S
C810 C808 1.363 . S
C810 C811 1.370 . S
C810 C814 1.524 . S
C811 C803 1.503 . S
C811 C810 1.370 . S
C811 C812 1.403 . S
C812 C811 1.403 . S
C812 C813 1.404 . S
C812 C815 1.539 . S
C813 C809 1.408 . S
C813 C812 1.404 . S
C813 H825 0.930 . S
C814 C810 1.524 . S
C814 H826 0.956 . S
C814 H827 0.961 . S
C814 H828 0.961 . S
C815 C812 1.539 . S
C815 H829 0.958 . S
C815 H830 0.961 . S
C815 H831 0.960 . S
H816 C800 0.931 . S
H817 C805 0.929 . S
H818 C806 0.960 . S
H819 C806 0.962 . S
H820 C806 0.960 . S
H821 C807 0.961 . S
H822 C807 0.961 . S
H823 C807 0.961 . S
H824 C808 0.931 . S
H825 C813 0.930 . S
H826 C814 0.956 . S
H827 C814 0.961 . S
H828 C814 0.961 . S
H829 C815 0.958 . S
H830 C815 0.961 . S
H831 C815 0.960 . S
C832 C833 1.391 . S
C832 C834 1.394 . S
C832 H848 0.931 . S
C833 C832 1.391 . S
C833 C837 1.376 . S
C834 C832 1.394 . S
C834 C835 1.369 . S
C834 C838 1.531 . S
C835 C834 1.369 . S
C835 C836 1.410 . S
C835 C843 1.503 . S
C836 C835 1.410 . S
C836 C837 1.392 . S
C836 C839 1.511 . S
C837 C833 1.376 . S
C837 C836 1.392 . S
C837 H849 0.929 . S
C838 C834 1.531 . S
C838 H850 0.960 . S
C838 H851 0.962 . S
C838 H852 0.960 . S
C839 C836 1.511 . S
C839 H853 0.961 . S
C839 H854 0.961 . S
C839 H855 0.961 . S
C840 C841 1.370 . S
C840 C842 1.363 . S
C840 H856 0.931 . S
C841 C840 1.370 . S
C841 C845 1.408 . S
C842 C840 1.363 . S
C842 C843 1.370 . S
C842 C846 1.524 . S
C843 C835 1.503 . S
C843 C842 1.370 . S
C843 C844 1.403 . S
C844 C843 1.403 . S
C844 C845 1.404 . S
C844 C847 1.539 . S
C845 C841 1.408 . S
C845 C844 1.404 . S
C845 H857 0.930 . S
C846 C842 1.524 . S
C846 H858 0.956 . S
C846 H859 0.961 . S
C846 H860 0.961 . S
C847 C844 1.539 . S
C847 H861 0.958 . S
C847 H862 0.961 . S
C847 H863 0.960 . S
H848 C832 0.931 . S
H849 C837 0.929 . S
H850 C838 0.960 . S
H851 C838 0.962 . S
H852 C838 0.960 . S
H853 C839 0.961 . S
H854 C839 0.961 . S
H855 C839 0.961 . S
H856 C840 0.931 . S
H857 C845 0.930 . S
H858 C846 0.956 . S
H859 C846 0.961 . S
H860 C846 0.961 . S
H861 C847 0.958 . S
H862 C847 0.961 . S
H863 C847 0.960 . S
C864 C865 1.391 . S
C864 C866 1.394 . S
C864 H880 0.931 . S
C865 C864 1.391 . S
C865 C869 1.376 . S
C866 C864 1.394 . S
C866 C867 1.369 . S
C866 C870 1.531 . S
C867 C866 1.369 . S
C867 C868 1.410 . S
C867 C875 1.503 . S
C868 C867 1.410 . S
C868 C869 1.392 . S
C868 C871 1.511 1_655 S
C869 C865 1.376 . S
C869 C868 1.392 . S
C869 H881 0.929 1_655 S
C870 C866 1.531 . S
C870 H882 0.960 . S
C870 H883 0.962 . S
C870 H884 0.960 . S
C871 C868 1.511 1_455 S
C871 H885 0.961 . S
C871 H886 0.961 1_455 S
C871 H887 0.961 . S
C872 C873 1.370 . S
C872 C874 1.363 . S
C872 H888 0.931 . S
C873 C872 1.370 . S
C873 C877 1.408 . S
C874 C872 1.363 . S
C874 C875 1.370 . S
C874 C878 1.524 . S
C875 C867 1.503 . S
C875 C874 1.370 . S
C875 C876 1.403 . S
C876 C875 1.403 . S
C876 C877 1.404 . S
C876 C879 1.539 . S
C877 C873 1.408 . S
C877 C876 1.404 . S
C877 H889 0.930 . S
C878 C874 1.524 . S
C878 H890 0.956 . S
C878 H891 0.961 . S
C878 H892 0.961 . S
C879 C876 1.539 . S
C879 H893 0.958 . S
C879 H894 0.961 . S
C879 H895 0.960 . S
H880 C864 0.931 . S
H881 C869 0.929 1_455 S
H882 C870 0.960 . S
H883 C870 0.962 . S
H884 C870 0.960 . S
H885 C871 0.961 . S
H886 C871 0.961 1_655 S
H887 C871 0.961 . S
H888 C872 0.931 . S
H889 C877 0.930 . S
H890 C878 0.956 . S
H891 C878 0.961 . S
H892 C878 0.961 . S
H893 C879 0.958 . S
H894 C879 0.961 . S
H895 C879 0.960 . S
C896 C897 1.391 . S
C896 C898 1.394 . S
C896 H912 0.931 . S
C897 C896 1.391 . S
C897 C901 1.376 . S
C898 C896 1.394 . S
C898 C899 1.369 . S
C898 C902 1.531 . S
C899 C898 1.369 . S
C899 C900 1.410 . S
C899 C907 1.503 . S
C900 C899 1.410 . S
C900 C901 1.392 . S
C900 C903 1.511 . S
C901 C897 1.376 . S
C901 C900 1.392 . S
C901 H913 0.934 . S
C902 C898 1.531 . S
C902 H914 0.960 . S
C902 H915 0.962 . S
C902 H916 0.960 . S
C903 C900 1.511 . S
C903 H917 0.961 1_565 S
C903 H918 0.961 . S
C903 H919 0.961 . S
C904 C905 1.370 . S
C904 C906 1.363 . S
C904 H920 0.931 . S
C905 C904 1.370 . S
C905 C909 1.408 . S
C906 C904 1.363 . S
C906 C907 1.370 . S
C906 C910 1.524 . S
C907 C899 1.503 . S
C907 C906 1.370 . S
C907 C908 1.403 . S
C908 C907 1.403 . S
C908 C909 1.404 . S
C908 C911 1.539 . S
C909 C905 1.408 . S
C909 C908 1.404 . S
C909 H921 0.930 . S
C910 C906 1.524 . S
C910 H922 0.956 . S
C910 H923 0.961 . S
C910 H924 0.961 . S
C911 C908 1.539 . S
C911 H925 0.958 . S
C911 H926 0.961 . S
C911 H927 0.960 . S
H912 C896 0.931 . S
H913 C901 0.934 . S
H914 C902 0.960 . S
H915 C902 0.962 . S
H916 C902 0.960 . S
H917 C903 0.961 1_545 S
H918 C903 0.961 . S
H919 C903 0.961 . S
H920 C904 0.931 . S
H921 C909 0.930 . S
H922 C910 0.956 . S
H923 C910 0.961 . S
H924 C910 0.961 . S
H925 C911 0.958 . S
H926 C911 0.961 . S
H927 C911 0.960 . S
C928 C929 1.391 . S
C928 C930 1.394 . S
C928 H944 0.931 . S
C929 C928 1.391 . S
C929 C933 1.376 . S
C930 C928 1.394 . S
C930 C931 1.369 . S
C930 C934 1.531 . S
C931 C930 1.369 . S
C931 C932 1.410 . S
C931 C939 1.503 . S
C932 C931 1.410 . S
C932 C933 1.392 . S
C932 C935 1.511 . S
C933 C929 1.376 . S
C933 C932 1.392 . S
C933 H945 0.929 . S
C934 C930 1.531 . S
C934 H946 0.960 . S
C934 H947 0.962 . S
C934 H948 0.960 . S
C935 C932 1.511 . S
C935 H949 0.961 . S
C935 H950 0.961 . S
C935 H951 0.961 . S
C936 C937 1.370 . S
C936 C938 1.363 . S
C936 H952 0.931 . S
C937 C936 1.370 . S
C937 C941 1.408 . S
C938 C936 1.363 . S
C938 C939 1.370 . S
C938 C942 1.524 . S
C939 C931 1.503 . S
C939 C938 1.370 . S
C939 C940 1.403 . S
C940 C939 1.403 . S
C940 C941 1.404 . S
C940 C943 1.539 . S
C941 C937 1.408 . S
C941 C940 1.404 . S
C941 H953 0.930 . S
C942 C938 1.524 . S
C942 H954 0.956 . S
C942 H955 0.961 . S
C942 H956 0.961 . S
C943 C940 1.539 . S
C943 H957 0.958 . S
C943 H958 0.961 . S
C943 H959 0.960 . S
H944 C928 0.931 . S
H945 C933 0.929 . S
H946 C934 0.960 . S
H947 C934 0.962 . S
H948 C934 0.960 . S
H949 C935 0.961 . S
H950 C935 0.961 . S
H951 C935 0.961 . S
H952 C936 0.931 . S
H953 C941 0.930 . S
H954 C942 0.956 . S
H955 C942 0.961 . S
H956 C942 0.961 . S
H957 C943 0.958 . S
H958 C943 0.961 . S
H959 C943 0.960 . S
C960 C961 1.391 . S
C960 C962 1.394 . S
C960 H976 0.931 . S
C961 C960 1.391 . S
C961 C965 1.376 . S
C962 C960 1.394 . S
C962 C963 1.369 . S
C962 C966 1.531 . S
C963 C962 1.369 . S
C963 C964 1.410 . S
C963 C971 1.503 . S
C964 C963 1.410 . S
C964 C965 1.392 . S
C964 C967 1.511 . S
C965 C961 1.376 . S
C965 C964 1.392 . S
C965 H977 0.929 . S
C966 C962 1.531 . S
C966 H978 0.960 . S
C966 H979 0.962 . S
C966 H980 0.960 . S
C967 C964 1.511 . S
C967 H981 0.961 . S
C967 H982 0.961 . S
C967 H983 0.961 . S
C968 C969 1.370 . S
C968 C970 1.363 . S
C968 H984 0.931 . S
C969 C968 1.370 . S
C969 C973 1.408 . S
C970 C968 1.363 . S
C970 C971 1.370 . S
C970 C974 1.524 . S
C971 C963 1.503 . S
C971 C970 1.370 . S
C971 C972 1.403 . S
C972 C971 1.403 . S
C972 C973 1.404 . S
C972 C975 1.539 . S
C973 C969 1.408 . S
C973 C972 1.404 . S
C973 H985 0.930 . S
C974 C970 1.524 . S
C974 H986 0.956 . S
C974 H987 0.961 . S
C974 H988 0.961 . S
C975 C972 1.539 . S
C975 H989 0.958 . S
C975 H990 0.961 . S
C975 H991 0.960 . S
H976 C960 0.931 . S
H977 C965 0.929 . S
H978 C966 0.960 . S
H979 C966 0.962 . S
H980 C966 0.960 . S
H981 C967 0.961 . S
H982 C967 0.961 . S
H983 C967 0.961 . S
H984 C968 0.931 . S
H985 C973 0.930 . S
H986 C974 0.956 . S
H987 C974 0.961 . S
H988 C974 0.961 . S
H989 C975 0.958 . S
H990 C975 0.961 . S
H991 C975 0.960 . S
C992 C993 1.391 . S
C992 C994 1.394 . S
C992 H1008 0.931 . S
C993 C992 1.391 . S
C993 C997 1.376 . S
C994 C992 1.394 . S
C994 C995 1.369 . S
C994 C998 1.531 . S
C995 C994 1.369 . S
C995 C996 1.410 . S
C995 C1003 1.503 . S
C996 C995 1.410 . S
C996 C997 1.392 . S
C996 C999 1.511 . S
C997 C993 1.376 . S
C997 C996 1.392 . S
C997 H1009 0.929 . S
C998 C994 1.531 . S
C998 H1010 0.960 . S
C998 H1011 0.962 . S
C998 H1012 0.960 . S
C999 C996 1.511 . S
C999 H1013 0.961 . S
C999 H1014 0.961 . S
C999 H1015 0.961 . S
C1000 C1001 1.370 . S
C1000 C1002 1.363 . S
C1000 H1016 0.931 . S
C1001 C1000 1.370 . S
C1001 C1005 1.408 . S
C1002 C1000 1.363 . S
C1002 C1003 1.370 . S
C1002 C1006 1.524 . S
C1003 C995 1.503 . S
C1003 C1002 1.370 . S
C1003 C1004 1.403 . S
C1004 C1003 1.403 . S
C1004 C1005 1.404 . S
C1004 C1007 1.539 . S
C1005 C1001 1.408 . S
C1005 C1004 1.404 . S
C1005 H1017 0.930 . S
C1006 C1002 1.524 . S
C1006 H1018 0.956 . S
C1006 H1019 0.961 . S
C1006 H1020 0.961 . S
C1007 C1004 1.539 . S
C1007 H1021 0.958 . S
C1007 H1022 0.961 . S
C1007 H1023 0.960 . S
H1008 C992 0.931 . S
H1009 C997 0.929 . S
H1010 C998 0.960 . S
H1011 C998 0.962 . S
H1012 C998 0.960 . S
H1013 C999 0.961 . S
H1014 C999 0.961 . S
H1015 C999 0.961 . S
H1016 C1000 0.931 . S
H1017 C1005 0.930 . S
H1018 C1006 0.956 . S
H1019 C1006 0.961 . S
H1020 C1006 0.961 . S
H1021 C1007 0.958 . S
H1022 C1007 0.961 . S
H1023 C1007 0.960 . S
C1024 C1025 1.391 . S
C1024 C1026 1.394 . S
C1024 H1040 0.931 . S
C1025 C1024 1.391 . S
C1025 C1029 1.376 . S
C1026 C1024 1.394 . S
C1026 C1027 1.369 . S
C1026 C1030 1.531 . S
C1027 C1026 1.369 . S
C1027 C1028 1.410 . S
C1027 C1035 1.503 . S
C1028 C1027 1.410 . S
C1028 C1029 1.392 . S
C1028 C1031 1.511 . S
C1029 C1025 1.376 . S
C1029 C1028 1.392 . S
C1029 H1041 0.929 . S
C1030 C1026 1.531 . S
C1030 H1042 0.960 . S
C1030 H1043 0.962 . S
C1030 H1044 0.960 1_455 S
C1031 C1028 1.511 . S
C1031 H1045 0.961 . S
C1031 H1046 0.961 . S
C1031 H1047 0.961 . S
C1032 C1033 1.370 . S
C1032 C1034 1.363 . S
C1032 H1048 0.931 . S
C1033 C1032 1.370 . S
C1033 C1037 1.408 . S
C1034 C1032 1.363 . S
C1034 C1035 1.370 . S
C1034 C1038 1.524 . S
C1035 C1027 1.503 . S
C1035 C1034 1.370 . S
C1035 C1036 1.403 . S
C1036 C1035 1.403 . S
C1036 C1037 1.404 . S
C1036 C1039 1.539 . S
C1037 C1033 1.408 . S
C1037 C1036 1.404 . S
C1037 H1049 0.930 . S
C1038 C1034 1.524 . S
C1038 H1050 0.956 . S
C1038 H1051 0.961 . S
C1038 H1052 0.961 . S
C1039 C1036 1.539 . S
C1039 H1053 0.958 . S
C1039 H1054 0.961 . S
C1039 H1055 0.960 . S
H1040 C1024 0.931 . S
H1041 C1029 0.929 . S
H1042 C1030 0.960 . S
H1043 C1030 0.962 . S
H1044 C1030 0.960 1_655 S
H1045 C1031 0.961 . S
H1046 C1031 0.961 . S
H1047 C1031 0.961 . S
H1048 C1032 0.931 . S
H1049 C1037 0.930 . S
H1050 C1038 0.956 . S
H1051 C1038 0.961 . S
H1052 C1038 0.961 . S
H1053 C1039 0.958 . S
H1054 C1039 0.961 . S
H1055 C1039 0.960 . S
C1056 C1057 1.391 . S
C1056 C1058 1.394 . S
C1056 H1072 0.931 . S
C1057 C1056 1.391 . S
C1057 C1061 1.376 . S
C1058 C1056 1.394 . S
C1058 C1059 1.369 . S
C1058 C1062 1.531 . S
C1059 C1058 1.369 . S
C1059 C1060 1.410 . S
C1059 C1067 1.503 . S
C1060 C1059 1.410 . S
C1060 C1061 1.392 . S
C1060 C1063 1.511 . S
C1061 C1057 1.376 . S
C1061 C1060 1.392 . S
C1061 H1073 0.929 . S
C1062 C1058 1.531 . S
C1062 H1074 0.960 . S
C1062 H1075 0.962 . S
C1062 H1076 0.960 . S
C1063 C1060 1.511 . S
C1063 H1077 0.961 . S
C1063 H1078 0.961 . S
C1063 H1079 0.961 . S
C1064 C1065 1.370 . S
C1064 C1066 1.363 . S
C1064 H1080 0.931 . S
C1065 C1064 1.370 . S
C1065 C1069 1.408 . S
C1066 C1064 1.363 . S
C1066 C1067 1.370 . S
C1066 C1070 1.524 . S
C1067 C1059 1.503 . S
C1067 C1066 1.370 . S
C1067 C1068 1.403 . S
C1068 C1067 1.403 . S
C1068 C1069 1.404 . S
C1068 C1071 1.539 . S
C1069 C1065 1.408 . S
C1069 C1068 1.404 . S
C1069 H1081 0.930 . S
C1070 C1066 1.524 . S
C1070 H1082 0.956 . S
C1070 H1083 0.961 . S
C1070 H1084 0.961 . S
C1071 C1068 1.539 . S
C1071 H1085 0.958 . S
C1071 H1086 0.961 . S
C1071 H1087 0.960 . S
H1072 C1056 0.931 . S
H1073 C1061 0.929 . S
H1074 C1062 0.960 . S
H1075 C1062 0.962 . S
H1076 C1062 0.960 . S
H1077 C1063 0.961 . S
H1078 C1063 0.961 . S
H1079 C1063 0.961 . S
H1080 C1064 0.931 . S
H1081 C1069 0.930 . S
H1082 C1070 0.956 . S
H1083 C1070 0.961 . S
H1084 C1070 0.961 . S
H1085 C1071 0.958 . S
H1086 C1071 0.961 . S
H1087 C1071 0.960 . S
C1088 C1089 1.391 . S
C1088 C1090 1.394 . S
C1088 H1104 0.931 . S
C1089 C1088 1.391 . S
C1089 C1093 1.376 . S
C1090 C1088 1.394 . S
C1090 C1091 1.369 . S
C1090 C1094 1.531 . S
C1091 C1090 1.369 . S
C1091 C1092 1.410 . S
C1091 C1099 1.503 . S
C1092 C1091 1.410 . S
C1092 C1093 1.392 . S
C1092 C1095 1.511 . S
C1093 C1089 1.376 . S
C1093 C1092 1.392 . S
C1093 H1105 0.929 . S
C1094 C1090 1.531 . S
C1094 H1106 0.960 . S
C1094 H1107 0.962 . S
C1094 H1108 0.960 . S
C1095 C1092 1.511 . S
C1095 H1109 0.961 . S
C1095 H1110 0.961 . S
C1095 H1111 0.961 . S
C1096 C1097 1.370 . S
C1096 C1098 1.363 . S
C1096 H1112 0.931 . S
C1097 C1096 1.370 . S
C1097 C1101 1.408 . S
C1098 C1096 1.363 . S
C1098 C1099 1.370 . S
C1098 C1102 1.524 . S
C1099 C1091 1.503 . S
C1099 C1098 1.370 . S
C1099 C1100 1.403 . S
C1100 C1099 1.403 . S
C1100 C1101 1.404 . S
C1100 C1103 1.539 . S
C1101 C1097 1.408 . S
C1101 C1100 1.404 . S
C1101 H1113 0.930 . S
C1102 C1098 1.524 . S
C1102 H1114 0.956 . S
C1102 H1115 0.961 . S
C1102 H1116 0.961 . S
C1103 C1100 1.539 . S
C1103 H1117 0.958 . S
C1103 H1118 0.961 . S
C1103 H1119 0.960 . S
H1104 C1088 0.931 . S
H1105 C1093 0.929 . S
H1106 C1094 0.960 . S
H1107 C1094 0.962 . S
H1108 C1094 0.960 . S
H1109 C1095 0.961 . S
H1110 C1095 0.961 . S
H1111 C1095 0.961 . S
H1112 C1096 0.931 . S
H1113 C1101 0.930 . S
H1114 C1102 0.956 . S
H1115 C1102 0.961 . S
H1116 C1102 0.961 . S
H1117 C1103 0.958 . S
H1118 C1103 0.961 . S
H1119 C1103 0.960 . S
C1120 C1121 1.391 . S
C1120 C1122 1.394 . S
C1120 H1136 0.931 . S
C1121 C1120 1.391 . S
C1121 C1125 1.376 1_655 S
C1122 C1120 1.394 . S
C1122 C1123 1.369 . S
C1122 C1126 1.531 . S
C1123 C1122 1.369 . S
C1123 C1124 1.410 . S
C1123 C1131 1.503 . S
C1124 C1123 1.410 . S
C1124 C1125 1.392 1_655 S
C1124 C1127 1.511 1_655 S
C1125 C1121 1.376 1_455 S
C1125 C1124 1.392 1_455 S
C1125 H1137 0.929 . S
C1126 C1122 1.531 . S
C1126 H1138 0.960 . S
C1126 H1139 0.962 . S
C1126 H1140 0.960 . S
C1127 C1124 1.511 1_455 S
C1127 H1141 0.961 . S
C1127 H1142 0.961 1_455 S
C1127 H1143 0.961 . S
C1128 C1129 1.370 . S
C1128 C1130 1.363 . S
C1128 H1144 0.931 . S
C1129 C1128 1.370 . S
C1129 C1133 1.408 . S
C1130 C1128 1.363 . S
C1130 C1131 1.370 . S
C1130 C1134 1.524 . S
C1131 C1123 1.503 . S
C1131 C1130 1.370 . S
C1131 C1132 1.403 . S
C1132 C1131 1.403 . S
C1132 C1133 1.404 . S
C1132 C1135 1.532 1_655 S
C1133 C1129 1.408 . S
C1133 C1132 1.404 . S
C1133 H1145 0.930 . S
C1134 C1130 1.524 . S
C1134 H1146 0.956 . S
C1134 H1147 0.961 . S
C1134 H1148 0.961 . S
C1135 C1132 1.532 1_455 S
C1135 H1149 0.952 1_455 S
C1135 H1150 0.972 . S
C1135 H1151 0.962 . S
H1136 C1120 0.931 . S
H1137 C1125 0.929 . S
H1138 C1126 0.960 . S
H1139 C1126 0.962 . S
H1140 C1126 0.960 . S
H1141 C1127 0.961 . S
H1142 C1127 0.961 1_655 S
H1143 C1127 0.961 . S
H1144 C1128 0.931 . S
H1145 C1133 0.930 . S
H1146 C1134 0.956 . S
H1147 C1134 0.961 . S
H1148 C1134 0.961 . S
H1149 C1135 0.952 1_655 S
H1150 C1135 0.972 . S
H1151 C1135 0.962 . S
C1152 C1153 1.391 . S
C1152 C1154 1.394 . S
C1152 H1168 0.931 . S
C1153 C1152 1.391 . S
C1153 C1157 1.376 1_655 S
C1154 C1152 1.394 . S
C1154 C1155 1.369 . S
C1154 C1158 1.531 . S
C1155 C1154 1.369 . S
C1155 C1156 1.410 . S
C1155 C1163 1.503 . S
C1156 C1155 1.410 . S
C1156 C1157 1.392 1_655 S
C1156 C1159 1.511 1_655 S
C1157 C1153 1.376 1_455 S
C1157 C1156 1.392 1_455 S
C1157 H1169 0.929 . S
C1158 C1154 1.531 . S
C1158 H1170 0.960 . S
C1158 H1171 0.962 . S
C1158 H1172 0.960 . S
C1159 C1156 1.511 1_455 S
C1159 H1173 0.961 . S
C1159 H1174 0.961 1_455 S
C1159 H1175 0.961 . S
C1160 C1161 1.370 . S
C1160 C1162 1.363 . S
C1160 H1176 0.931 . S
C1161 C1160 1.370 . S
C1161 C1165 1.408 . S
C1162 C1160 1.363 . S
C1162 C1163 1.370 . S
C1162 C1166 1.524 . S
C1163 C1155 1.503 . S
C1163 C1162 1.370 . S
C1163 C1164 1.403 . S
C1164 C1163 1.403 . S
C1164 C1165 1.404 . S
C1164 C1167 1.539 1_655 S
C1165 C1161 1.408 . S
C1165 C1164 1.404 . S
C1165 H1177 0.930 . S
C1166 C1162 1.524 . S
C1166 H1178 0.956 . S
C1166 H1179 0.961 . S
C1166 H1180 0.961 . S
C1167 C1164 1.539 1_455 S
C1167 H1181 0.959 . S
C1167 H1182 0.961 . S
C1167 H1183 0.960 . S
H1168 C1152 0.931 . S
H1169 C1157 0.929 . S
H1170 C1158 0.960 . S
H1171 C1158 0.962 . S
H1172 C1158 0.960 . S
H1173 C1159 0.961 . S
H1174 C1159 0.961 1_655 S
H1175 C1159 0.961 . S
H1176 C1160 0.931 . S
H1177 C1165 0.930 . S
H1178 C1166 0.956 . S
H1179 C1166 0.961 . S
H1180 C1166 0.961 . S
H1181 C1167 0.959 . S
H1182 C1167 0.961 . S
H1183 C1167 0.960 . S
C1184 C1185 1.391 . S
C1184 C1186 1.394 . S
C1184 H1200 0.931 . S
C1185 C1184 1.391 . S
C1185 C1189 1.376 . S
C1186 C1184 1.394 . S
C1186 C1187 1.369 . S
C1186 C1190 1.531 . S
C1187 C1186 1.369 . S
C1187 C1188 1.410 . S
C1187 C1195 1.503 . S
C1188 C1187 1.410 . S
C1188 C1189 1.392 . S
C1188 C1191 1.511 . S
C1189 C1185 1.376 . S
C1189 C1188 1.392 . S
C1189 H1201 0.929 . S
C1190 C1186 1.531 . S
C1190 H1202 0.960 . S
C1190 H1203 0.962 . S
C1190 H1204 0.960 . S
C1191 C1188 1.511 . S
C1191 H1205 0.961 1_565 S
C1191 H1206 0.961 . S
C1191 H1207 0.961 . S
C1192 C1193 1.370 . S
C1192 C1194 1.363 . S
C1192 H1208 0.931 . S
C1193 C1192 1.370 . S
C1193 C1197 1.408 . S
C1194 C1192 1.363 . S
C1194 C1195 1.370 . S
C1194 C1198 1.524 . S
C1195 C1187 1.503 . S
C1195 C1194 1.370 . S
C1195 C1196 1.403 . S
C1196 C1195 1.403 . S
C1196 C1197 1.404 . S
C1196 C1199 1.539 . S
C1197 C1193 1.408 . S
C1197 C1196 1.404 . S
C1197 H1209 0.930 . S
C1198 C1194 1.524 . S
C1198 H1210 0.956 . S
C1198 H1211 0.961 . S
C1198 H1212 0.961 . S
C1199 C1196 1.539 . S
C1199 H1213 0.958 . S
C1199 H1214 0.961 . S
C1199 H1215 0.960 . S
H1200 C1184 0.931 . S
H1201 C1189 0.929 . S
H1202 C1190 0.960 . S
H1203 C1190 0.962 . S
H1204 C1190 0.960 . S
H1205 C1191 0.961 1_545 S
H1206 C1191 0.961 . S
H1207 C1191 0.961 . S
H1208 C1192 0.931 . S
H1209 C1197 0.930 . S
H1210 C1198 0.956 . S
H1211 C1198 0.961 . S
H1212 C1198 0.961 . S
H1213 C1199 0.958 . S
H1214 C1199 0.961 . S
H1215 C1199 0.960 . S
C1216 C1217 1.391 . S
C1216 C1218 1.394 . S
C1216 H1232 0.931 . S
C1217 C1216 1.391 . S
C1217 C1221 1.376 . S
C1218 C1216 1.394 . S
C1218 C1219 1.369 . S
C1218 C1222 1.531 . S
C1219 C1218 1.369 . S
C1219 C1220 1.410 . S
C1219 C1227 1.503 . S
C1220 C1219 1.410 . S
C1220 C1221 1.392 . S
C1220 C1223 1.511 . S
C1221 C1217 1.376 . S
C1221 C1220 1.392 . S
C1221 H1233 0.929 . S
C1222 C1218 1.531 . S
C1222 H1234 0.960 . S
C1222 H1235 0.962 . S
C1222 H1236 0.960 . S
C1223 C1220 1.511 . S
C1223 H1237 0.961 . S
C1223 H1238 0.961 . S
C1223 H1239 0.961 . S
C1224 C1225 1.370 . S
C1224 C1226 1.363 . S
C1224 H1240 0.931 . S
C1225 C1224 1.370 . S
C1225 C1229 1.408 . S
C1226 C1224 1.363 . S
C1226 C1227 1.370 . S
C1226 C1230 1.524 . S
C1227 C1219 1.503 . S
C1227 C1226 1.370 . S
C1227 C1228 1.403 . S
C1228 C1227 1.403 . S
C1228 C1229 1.404 . S
C1228 C1231 1.539 . S
C1229 C1225 1.408 . S
C1229 C1228 1.404 . S
C1229 H1241 0.930 . S
C1230 C1226 1.524 . S
C1230 H1242 0.956 . S
C1230 H1243 0.961 . S
C1230 H1244 0.961 . S
C1231 C1228 1.539 . S
C1231 H1245 0.958 . S
C1231 H1246 0.961 . S
C1231 H1247 0.960 . S
H1232 C1216 0.931 . S
H1233 C1221 0.929 . S
H1234 C1222 0.960 . S
H1235 C1222 0.962 . S
H1236 C1222 0.960 . S
H1237 C1223 0.961 . S
H1238 C1223 0.961 . S
H1239 C1223 0.961 . S
H1240 C1224 0.931 . S
H1241 C1229 0.930 . S
H1242 C1230 0.956 . S
H1243 C1230 0.961 . S
H1244 C1230 0.961 . S
H1245 C1231 0.958 . S
H1246 C1231 0.961 . S
H1247 C1231 0.960 . S
C1248 C1249 1.391 . S
C1248 C1250 1.394 . S
C1248 H1264 0.931 . S
C1249 C1248 1.391 . S
C1249 C1253 1.376 . S
C1250 C1248 1.394 . S
C1250 C1251 1.369 . S
C1250 C1254 1.531 . S
C1251 C1250 1.369 . S
C1251 C1252 1.410 . S
C1251 C1259 1.503 . S
C1252 C1251 1.410 . S
C1252 C1253 1.392 . S
C1252 C1255 1.511 . S
C1253 C1249 1.376 . S
C1253 C1252 1.392 . S
C1253 H1265 0.929 . S
C1254 C1250 1.531 . S
C1254 H1266 0.960 . S
C1254 H1267 0.962 . S
C1254 H1268 0.960 . S
C1255 C1252 1.511 . S
C1255 H1269 0.961 . S
C1255 H1270 0.961 . S
C1255 H1271 0.961 . S
C1256 C1257 1.370 . S
C1256 C1258 1.363 . S
C1256 H1272 0.931 . S
C1257 C1256 1.370 . S
C1257 C1261 1.408 . S
C1258 C1256 1.363 . S
C1258 C1259 1.370 . S
C1258 C1262 1.524 . S
C1259 C1251 1.503 . S
C1259 C1258 1.370 . S
C1259 C1260 1.403 . S
C1260 C1259 1.403 . S
C1260 C1261 1.404 . S
C1260 C1263 1.539 . S
C1261 C1257 1.408 . S
C1261 C1260 1.404 . S
C1261 H1273 0.930 . S
C1262 C1258 1.524 . S
C1262 H1274 0.956 . S
C1262 H1275 0.961 . S
C1262 H1276 0.961 . S
C1263 C1260 1.539 . S
C1263 H1277 0.958 . S
C1263 H1278 0.961 . S
C1263 H1279 0.960 . S
H1264 C1248 0.931 . S
H1265 C1253 0.929 . S
H1266 C1254 0.960 . S
H1267 C1254 0.962 . S
H1268 C1254 0.960 . S
H1269 C1255 0.961 . S
H1270 C1255 0.961 . S
H1271 C1255 0.961 . S
H1272 C1256 0.931 . S
H1273 C1261 0.930 . S
H1274 C1262 0.956 . S
H1275 C1262 0.961 . S
H1276 C1262 0.961 . S
H1277 C1263 0.958 . S
H1278 C1263 0.961 . S
H1279 C1263 0.960 . S
C1280 C1281 1.391 . S
C1280 C1282 1.394 . S
C1280 H1296 0.931 . S
C1281 C1280 1.391 . S
C1281 C1285 1.376 . S
C1282 C1280 1.394 . S
C1282 C1283 1.369 . S
C1282 C1286 1.531 . S
C1283 C1282 1.369 . S
C1283 C1284 1.410 . S
C1283 C1291 1.503 . S
C1284 C1283 1.410 . S
C1284 C1285 1.392 . S
C1284 C1287 1.511 . S
C1285 C1281 1.376 . S
C1285 C1284 1.392 . S
C1285 H1297 0.929 . S
C1286 C1282 1.531 . S
C1286 H1298 0.960 . S
C1286 H1299 0.962 . S
C1286 H1300 0.960 . S
C1287 C1284 1.511 . S
C1287 H1301 0.961 1_545 S
C1287 H1302 0.961 . S
C1287 H1303 0.961 . S
C1288 C1289 1.370 . S
C1288 C1290 1.363 . S
C1288 H1304 0.931 . S
C1289 C1288 1.370 . S
C1289 C1293 1.408 . S
C1290 C1288 1.363 . S
C1290 C1291 1.370 . S
C1290 C1294 1.524 . S
C1291 C1283 1.503 . S
C1291 C1290 1.370 . S
C1291 C1292 1.403 . S
C1292 C1291 1.403 . S
C1292 C1293 1.404 . S
C1292 C1295 1.539 . S
C1293 C1289 1.408 . S
C1293 C1292 1.404 . S
C1293 H1305 0.930 . S
C1294 C1290 1.524 . S
C1294 H1306 0.956 . S
C1294 H1307 0.961 . S
C1294 H1308 0.961 . S
C1295 C1292 1.539 . S
C1295 H1309 0.958 . S
C1295 H1310 0.961 . S
C1295 H1311 0.960 . S
H1296 C1280 0.931 . S
H1297 C1285 0.929 . S
H1298 C1286 0.960 . S
H1299 C1286 0.962 . S
H1300 C1286 0.960 . S
H1301 C1287 0.961 1_565 S
H1302 C1287 0.961 . S
H1303 C1287 0.961 . S
H1304 C1288 0.931 . S
H1305 C1293 0.930 . S
H1306 C1294 0.956 . S
H1307 C1294 0.961 . S
H1308 C1294 0.961 . S
H1309 C1295 0.958 . S
H1310 C1295 0.961 . S
H1311 C1295 0.960 . S
C1312 C1313 1.391 . S
C1312 C1314 1.394 . S
C1312 H1328 0.931 . S
C1313 C1312 1.391 . S
C1313 C1317 1.376 . S
C1314 C1312 1.394 . S
C1314 C1315 1.369 . S
C1314 C1318 1.531 . S
C1315 C1314 1.369 . S
C1315 C1316 1.410 . S
C1315 C1323 1.503 . S
C1316 C1315 1.410 . S
C1316 C1317 1.392 . S
C1316 C1319 1.511 . S
C1317 C1313 1.376 . S
C1317 C1316 1.392 . S
C1317 H1329 0.929 . S
C1318 C1314 1.531 . S
C1318 H1330 0.960 . S
C1318 H1331 0.962 . S
C1318 H1332 0.960 . S
C1319 C1316 1.511 . S
C1319 H1333 0.961 . S
C1319 H1334 0.961 . S
C1319 H1335 0.961 . S
C1320 C1321 1.370 . S
C1320 C1322 1.363 . S
C1320 H1336 0.931 . S
C1321 C1320 1.370 . S
C1321 C1325 1.408 . S
C1322 C1320 1.363 . S
C1322 C1323 1.370 . S
C1322 C1326 1.524 . S
C1323 C1315 1.503 . S
C1323 C1322 1.370 . S
C1323 C1324 1.403 . S
C1324 C1323 1.403 . S
C1324 C1325 1.404 . S
C1324 C1327 1.539 . S
C1325 C1321 1.408 . S
C1325 C1324 1.404 . S
C1325 H1337 0.930 . S
C1326 C1322 1.524 . S
C1326 H1338 0.956 . S
C1326 H1339 0.961 . S
C1326 H1340 0.961 . S
C1327 C1324 1.539 . S
C1327 H1341 0.958 . S
C1327 H1342 0.961 . S
C1327 H1343 0.960 . S
H1328 C1312 0.931 . S
H1329 C1317 0.929 . S
H1330 C1318 0.960 . S
H1331 C1318 0.962 . S
H1332 C1318 0.960 . S
H1333 C1319 0.961 . S
H1334 C1319 0.961 . S
H1335 C1319 0.961 . S
H1336 C1320 0.931 . S
H1337 C1325 0.930 . S
H1338 C1326 0.956 . S
H1339 C1326 0.961 . S
H1340 C1326 0.961 . S
H1341 C1327 0.958 . S
H1342 C1327 0.961 . S
H1343 C1327 0.960 . S
C1344 C1345 1.391 . S
C1344 C1346 1.394 . S
C1344 H1360 0.931 . S
C1345 C1344 1.391 . S
C1345 C1349 1.376 . S
C1346 C1344 1.394 . S
C1346 C1347 1.369 . S
C1346 C1350 1.531 . S
C1347 C1346 1.369 . S
C1347 C1348 1.410 . S
C1347 C1355 1.503 . S
C1348 C1347 1.410 . S
C1348 C1349 1.392 . S
C1348 C1351 1.511 . S
C1349 C1345 1.376 . S
C1349 C1348 1.392 . S
C1349 H1361 0.929 . S
C1350 C1346 1.531 . S
C1350 H1362 0.960 . S
C1350 H1363 0.962 . S
C1350 H1364 0.960 . S
C1351 C1348 1.511 . S
C1351 H1365 0.961 . S
C1351 H1366 0.961 . S
C1351 H1367 0.961 . S
C1352 C1353 1.370 . S
C1352 C1354 1.363 . S
C1352 H1368 0.931 . S
C1353 C1352 1.370 . S
C1353 C1357 1.408 . S
C1354 C1352 1.363 . S
C1354 C1355 1.370 . S
C1354 C1358 1.524 . S
C1355 C1347 1.503 . S
C1355 C1354 1.370 . S
C1355 C1356 1.403 . S
C1356 C1355 1.403 . S
C1356 C1357 1.404 . S
C1356 C1359 1.539 . S
C1357 C1353 1.408 . S
C1357 C1356 1.404 . S
C1357 H1369 0.930 . S
C1358 C1354 1.524 . S
C1358 H1370 0.956 . S
C1358 H1371 0.961 . S
C1358 H1372 0.961 . S
C1359 C1356 1.539 . S
C1359 H1373 0.947 1_545 S
C1359 H1374 0.961 . S
C1359 H1375 0.960 . S
H1360 C1344 0.931 . S
H1361 C1349 0.929 . S
H1362 C1350 0.960 . S
H1363 C1350 0.962 . S
H1364 C1350 0.960 . S
H1365 C1351 0.961 . S
H1366 C1351 0.961 . S
H1367 C1351 0.961 . S
H1368 C1352 0.931 . S
H1369 C1357 0.930 . S
H1370 C1358 0.956 . S
H1371 C1358 0.961 . S
H1372 C1358 0.961 . S
H1373 C1359 0.947 1_565 S
H1374 C1359 0.961 . S
H1375 C1359 0.960 . S
C1376 C1377 1.391 . S
C1376 C1378 1.394 . S
C1376 H1392 0.931 . S
C1377 C1376 1.391 . S
C1377 C1381 1.376 . S
C1378 C1376 1.394 . S
C1378 C1379 1.369 . S
C1378 C1382 1.531 . S
C1379 C1378 1.369 . S
C1379 C1380 1.410 . S
C1379 C1387 1.503 . S
C1380 C1379 1.410 . S
C1380 C1381 1.392 . S
C1380 C1383 1.511 . S
C1381 C1377 1.376 . S
C1381 C1380 1.392 . S
C1381 H1393 0.929 . S
C1382 C1378 1.531 . S
C1382 H1394 0.960 . S
C1382 H1395 0.962 . S
C1382 H1396 0.960 . S
C1383 C1380 1.511 . S
C1383 H1397 0.961 . S
C1383 H1398 0.961 . S
C1383 H1399 0.961 . S
C1384 C1385 1.370 . S
C1384 C1386 1.363 . S
C1384 H1400 0.931 . S
C1385 C1384 1.370 . S
C1385 C1389 1.408 . S
C1386 C1384 1.363 . S
C1386 C1387 1.370 . S
C1386 C1390 1.524 . S
C1387 C1379 1.503 . S
C1387 C1386 1.370 . S
C1387 C1388 1.403 . S
C1388 C1387 1.403 . S
C1388 C1389 1.404 . S
C1388 C1391 1.539 . S
C1389 C1385 1.408 . S
C1389 C1388 1.404 . S
C1389 H1401 0.930 . S
C1390 C1386 1.524 . S
C1390 H1402 0.956 . S
C1390 H1403 0.961 . S
C1390 H1404 0.961 . S
C1391 C1388 1.539 . S
C1391 H1405 0.958 . S
C1391 H1406 0.961 . S
C1391 H1407 0.960 . S
H1392 C1376 0.931 . S
H1393 C1381 0.929 . S
H1394 C1382 0.960 . S
H1395 C1382 0.962 . S
H1396 C1382 0.960 . S
H1397 C1383 0.961 . S
H1398 C1383 0.961 . S
H1399 C1383 0.961 . S
H1400 C1384 0.931 . S
H1401 C1389 0.930 . S
H1402 C1390 0.956 . S
H1403 C1390 0.961 . S
H1404 C1390 0.961 . S
H1405 C1391 0.958 . S
H1406 C1391 0.961 . S
H1407 C1391 0.960 . S
C1408 C1409 1.391 . S
C1408 C1410 1.394 . S
C1408 H1424 0.931 . S
C1409 C1408 1.391 . S
C1409 C1413 1.376 . S
C1410 C1408 1.394 . S
C1410 C1411 1.369 . S
C1410 C1414 1.531 . S
C1411 C1410 1.369 . S
C1411 C1412 1.410 . S
C1411 C1419 1.503 . S
C1412 C1411 1.410 . S
C1412 C1413 1.392 . S
C1412 C1415 1.511 . S
C1413 C1409 1.376 . S
C1413 C1412 1.392 . S
C1413 H1425 0.929 . S
C1414 C1410 1.531 . S
C1414 H1426 0.960 . S
C1414 H1427 0.962 1_655 S
C1414 H1428 0.960 1_655 S
C1415 C1412 1.511 . S
C1415 H1429 0.961 . S
C1415 H1430 0.961 . S
C1415 H1431 0.961 . S
C1416 C1417 1.370 . S
C1416 C1418 1.363 . S
C1416 H1432 0.931 . S
C1417 C1416 1.370 . S
C1417 C1421 1.408 . S
C1418 C1416 1.363 . S
C1418 C1419 1.370 . S
C1418 C1422 1.524 . S
C1419 C1411 1.503 . S
C1419 C1418 1.370 . S
C1419 C1420 1.403 . S
C1420 C1419 1.403 . S
C1420 C1421 1.404 . S
C1420 C1423 1.539 . S
C1421 C1417 1.408 . S
C1421 C1420 1.404 . S
C1421 H1433 0.930 . S
C1422 C1418 1.524 . S
C1422 H1434 0.956 . S
C1422 H1435 0.961 . S
C1422 H1436 0.961 . S
C1423 C1420 1.539 . S
C1423 H1437 0.958 . S
C1423 H1438 0.961 . S
C1423 H1439 0.960 . S
H1424 C1408 0.931 . S
H1425 C1413 0.929 . S
H1426 C1414 0.960 . S
H1427 C1414 0.962 1_455 S
H1428 C1414 0.960 1_455 S
H1429 C1415 0.961 . S
H1430 C1415 0.961 . S
H1431 C1415 0.961 . S
H1432 C1416 0.931 . S
H1433 C1421 0.930 . S
H1434 C1422 0.956 . S
H1435 C1422 0.961 . S
H1436 C1422 0.961 . S
H1437 C1423 0.958 . S
H1438 C1423 0.961 . S
H1439 C1423 0.960 . S
C1440 C1441 1.391 . S
C1440 C1442 1.394 . S
C1440 H1456 0.931 1_565 S
C1441 C1440 1.391 . S
C1441 C1445 1.376 . S
C1442 C1440 1.394 . S
C1442 C1443 1.369 . S
C1442 C1446 1.531 . S
C1443 C1442 1.369 . S
C1443 C1444 1.410 . S
C1443 C1451 1.503 . S
C1444 C1443 1.410 . S
C1444 C1445 1.392 . S
C1444 C1447 1.511 . S
C1445 C1441 1.376 . S
C1445 C1444 1.392 . S
C1445 H1457 0.929 . S
C1446 C1442 1.531 . S
C1446 H1458 0.960 . S
C1446 H1459 0.962 . S
C1446 H1460 0.960 1_565 S
C1447 C1444 1.511 . S
C1447 H1461 0.961 . S
C1447 H1462 0.961 . S
C1447 H1463 0.961 . S
C1448 C1449 1.370 . S
C1448 C1450 1.363 . S
C1448 H1464 0.931 . S
C1449 C1448 1.370 . S
C1449 C1453 1.408 . S
C1450 C1448 1.363 . S
C1450 C1451 1.370 . S
C1450 C1454 1.524 . S
C1451 C1443 1.503 . S
C1451 C1450 1.370 . S
C1451 C1452 1.403 . S
C1452 C1451 1.403 . S
C1452 C1453 1.404 . S
C1452 C1455 1.539 . S
C1453 C1449 1.408 . S
C1453 C1452 1.404 . S
C1453 H1465 0.930 . S
C1454 C1450 1.524 . S
C1454 H1466 0.956 . S
C1454 H1467 0.961 . S
C1454 H1468 0.961 . S
C1455 C1452 1.539 . S
C1455 H1469 0.958 . S
C1455 H1470 0.961 . S
C1455 H1471 0.960 . S
H1456 C1440 0.931 1_545 S
H1457 C1445 0.929 . S
H1458 C1446 0.960 . S
H1459 C1446 0.962 . S
H1460 C1446 0.960 1_545 S
H1461 C1447 0.961 . S
H1462 C1447 0.961 . S
H1463 C1447 0.961 . S
H1464 C1448 0.931 . S
H1465 C1453 0.930 . S
H1466 C1454 0.956 . S
H1467 C1454 0.961 . S
H1468 C1454 0.961 . S
H1469 C1455 0.958 . S
H1470 C1455 0.961 . S
H1471 C1455 0.960 . S
C1472 C1473 1.391 . S
C1472 C1474 1.394 . S
C1472 H1488 0.931 . S
C1473 C1472 1.391 . S
C1473 C1477 1.376 . S
C1474 C1472 1.394 . S
C1474 C1475 1.369 . S
C1474 C1478 1.531 . S
C1475 C1474 1.369 . S
C1475 C1476 1.410 . S
C1475 C1483 1.503 . S
C1476 C1475 1.410 . S
C1476 C1477 1.392 . S
C1476 C1479 1.511 . S
C1477 C1473 1.376 . S
C1477 C1476 1.392 . S
C1477 H1489 0.929 . S
C1478 C1474 1.531 . S
C1478 H1490 0.960 . S
C1478 H1491 0.962 . S
C1478 H1492 0.960 . S
C1479 C1476 1.511 . S
C1479 H1493 0.961 . S
C1479 H1494 0.961 . S
C1479 H1495 0.961 . S
C1480 C1481 1.370 . S
C1480 C1482 1.363 . S
C1480 H1496 0.931 . S
C1481 C1480 1.370 . S
C1481 C1485 1.408 . S
C1482 C1480 1.363 . S
C1482 C1483 1.370 . S
C1482 C1486 1.524 . S
C1483 C1475 1.503 . S
C1483 C1482 1.370 . S
C1483 C1484 1.403 . S
C1484 C1483 1.403 . S
C1484 C1485 1.404 . S
C1484 C1487 1.539 . S
C1485 C1481 1.408 . S
C1485 C1484 1.404 . S
C1485 H1497 0.930 . S
C1486 C1482 1.524 . S
C1486 H1498 0.956 . S
C1486 H1499 0.961 . S
C1486 H1500 0.961 . S
C1487 C1484 1.539 . S
C1487 H1501 0.958 . S
C1487 H1502 0.961 . S
C1487 H1503 0.960 . S
H1488 C1472 0.931 . S
H1489 C1477 0.929 . S
H1490 C1478 0.960 . S
H1491 C1478 0.962 . S
H1492 C1478 0.960 . S
H1493 C1479 0.961 . S
H1494 C1479 0.961 . S
H1495 C1479 0.961 . S
H1496 C1480 0.931 . S
H1497 C1485 0.930 . S
H1498 C1486 0.956 . S
H1499 C1486 0.961 . S
H1500 C1486 0.961 . S
H1501 C1487 0.958 . S
H1502 C1487 0.961 . S
H1503 C1487 0.960 . S
C1504 C1505 1.391 . S
C1504 C1506 1.394 . S
C1504 H1520 0.931 . S
C1505 C1504 1.391 . S
C1505 C1509 1.376 . S
C1506 C1504 1.394 . S
C1506 C1507 1.369 . S
C1506 C1510 1.531 . S
C1507 C1506 1.369 . S
C1507 C1508 1.410 . S
C1507 C1515 1.503 . S
C1508 C1507 1.410 . S
C1508 C1509 1.392 . S
C1508 C1511 1.511 . S
C1509 C1505 1.376 . S
C1509 C1508 1.392 . S
C1509 H1521 0.929 . S
C1510 C1506 1.531 . S
C1510 H1522 0.960 . S
C1510 H1523 0.962 . S
C1510 H1524 0.960 . S
C1511 C1508 1.511 . S
C1511 H1525 0.961 . S
C1511 H1526 0.961 . S
C1511 H1527 0.961 . S
C1512 C1513 1.370 . S
C1512 C1514 1.363 . S
C1512 H1528 0.931 . S
C1513 C1512 1.370 . S
C1513 C1517 1.408 . S
C1514 C1512 1.363 . S
C1514 C1515 1.370 . S
C1514 C1518 1.524 . S
C1515 C1507 1.503 . S
C1515 C1514 1.370 . S
C1515 C1516 1.403 . S
C1516 C1515 1.403 . S
C1516 C1517 1.404 . S
C1516 C1519 1.539 . S
C1517 C1513 1.408 . S
C1517 C1516 1.404 . S
C1517 H1529 0.930 . S
C1518 C1514 1.524 . S
C1518 H1530 0.956 . S
C1518 H1531 0.961 . S
C1518 H1532 0.961 . S
C1519 C1516 1.539 . S
C1519 H1533 0.958 . S
C1519 H1534 0.961 . S
C1519 H1535 0.960 . S
H1520 C1504 0.931 . S
H1521 C1509 0.929 . S
H1522 C1510 0.960 . S
H1523 C1510 0.962 . S
H1524 C1510 0.960 . S
H1525 C1511 0.961 . S
H1526 C1511 0.961 . S
H1527 C1511 0.961 . S
H1528 C1512 0.931 . S
H1529 C1517 0.930 . S
H1530 C1518 0.956 . S
H1531 C1518 0.961 . S
H1532 C1518 0.961 . S
H1533 C1519 0.958 . S
H1534 C1519 0.961 . S
H1535 C1519 0.960 . S
C769 C13 1.933 . S
C777 C113 1.769 . S
C801 C27 1.934 . S
C809 C253 1.731 . S
C841 C341 1.713 . S
C833 C29 1.868 . S
C873 C481 1.720 . S
C865 C54 1.951 . S
C905 C595 1.690 . S
C897 C69 1.931 . S
C937 C665 0.989 . S
C929 C83 1.927 . S
C961 C15 1.940 . S
C969 C323 1.022 . S
C993 C41 1.815 . S
C1001 C427 1.288 . S
C1033 C541 1.311 . S
C1025 C42 1.845 . S
C1065 C683 1.731 . S
C1057 C57 1.873 . S
C1089 C71 1.991 . S
C1097 C95 1.112 . S
C1129 C199 1.321 . S
C1121 C1 1.789 1_655 S
C1161 C437 1.609 . S
C1153 C12 2.033 1_655 S
C1185 C26 2.057 . S
C1193 C551 1.626 . S
C1225 C709 1.350 . S
C1217 C28 2.118 . S
C1249 C55 1.939 . S
C1257 C85 1.717 . S
C1281 C68 2.157 . S
C1289 C209 1.688 . S
C1313 C82 1.908 . S
C1321 C313 1.706 . S
C1345 C14 1.979 . S
C1353 C655 1.780 . S
C1385 C139 1.274 . S
C1377 C40 2.043 . S
C1409 C43 2.021 . S
C1417 C227 1.350 . S
C1441 C56 2.065 . S
C1449 C367 1.233 . S
C1473 C70 1.983 . S
C1481 C455 1.341 . S
C1505 C0 2.028 . S
C1513 C569 1.446 . S
