# Generated by pormake.
# Topology anh, (6,3)-cn, num edge types: 1
# Building blocks:
#     Node 0, Type 0, BuildingBlock: INOVEN_clean_sbu_0, # of connection points: 6
#     Node 1, Type 0, BuildingBlock: INOVEN_clean_sbu_0, # of connection points: 6
#     Node 2, Type 0, BuildingBlock: INOVEN_clean_sbu_0, # of connection points: 6
#     Node 3, Type 1, BuildingBlock: QEWDON_clean_linker_0, # of connection points: 3
#     Node 4, Type 1, BuildingBlock: QEWDON_clean_linker_0, # of connection points: 3
#     Node 5, Type 1, BuildingBlock: QEWDON_clean_linker_0, # of connection points: 3
#     Node 6, Type 1, BuildingBlock: QEWDON_clean_linker_0, # of connection points: 3
#     Node 7, Type 1, BuildingBlock: QEWDON_clean_linker_0, # of connection points: 3
#     Node 8, Type 1, BuildingBlock: QEWDON_clean_linker_0, # of connection points: 3
#     Edge 9, Type (0, 1), BuildingBlock: UVAHIK_clean_linker_0, # of connection points: 2
#     Edge 10, Type (0, 1), BuildingBlock: UVAHIK_clean_linker_0, # of connection points: 2
#     Edge 11, Type (0, 1), BuildingBlock: UVAHIK_clean_linker_0, # of connection points: 2
#     Edge 12, Type (0, 1), BuildingBlock: UVAHIK_clean_linker_0, # of connection points: 2
#     Edge 13, Type (0, 1), BuildingBlock: UVAHIK_clean_linker_0, # of connection points: 2
#     Edge 14, Type (0, 1), BuildingBlock: UVAHIK_clean_linker_0, # of connection points: 2
#     Edge 15, Type (0, 1), BuildingBlock: UVAHIK_clean_linker_0, # of connection points: 2
#     Edge 16, Type (0, 1), BuildingBlock: UVAHIK_clean_linker_0, # of connection points: 2
#     Edge 17, Type (0, 1), BuildingBlock: UVAHIK_clean_linker_0, # of connection points: 2
#     Edge 18, Type (0, 1), BuildingBlock: UVAHIK_clean_linker_0, # of connection points: 2
#     Edge 19, Type (0, 1), BuildingBlock: UVAHIK_clean_linker_0, # of connection points: 2
#     Edge 20, Type (0, 1), BuildingBlock: UVAHIK_clean_linker_0, # of connection points: 2
#     Edge 21, Type (0, 1), BuildingBlock: UVAHIK_clean_linker_0, # of connection points: 2
#     Edge 22, Type (0, 1), BuildingBlock: UVAHIK_clean_linker_0, # of connection points: 2
#     Edge 23, Type (0, 1), BuildingBlock: UVAHIK_clean_linker_0, # of connection points: 2
#     Edge 24, Type (0, 1), BuildingBlock: UVAHIK_clean_linker_0, # of connection points: 2
#     Edge 25, Type (0, 1), BuildingBlock: UVAHIK_clean_linker_0, # of connection points: 2
#     Edge 26, Type (0, 1), BuildingBlock: UVAHIK_clean_linker_0, # of connection points: 2
# Relax obj value: 0.104
# Max RMSD: 0.161
# Mean RMSD: 0.123
data_MOF--net-anh--node1-INOVEN_clean_sbu_0--node2-QEWDON_clean_linker_0--edge1-UVAHIK_clean_linker_0
_symmetry_space_group_name_H-M    P1
_symmetry_Int_Tables_number       1
_symmetry_cell_setting            triclinic
loop_
_symmetry_equiv_pos_as_xyz
'x, y, z'
_cell_length_a     40.869692
_cell_length_b     48.454784
_cell_length_c     61.915295
_cell_angle_alpha  97.210453
_cell_angle_beta   91.572025
_cell_angle_gamma 127.5219
loop_
_atom_site_label
_atom_site_type_symbol
_atom_site_fract_x
_atom_site_fract_y
_atom_site_fract_z
_atom_type_partial_charge
Gd0 Gd 0.08973 0.50216 0.14532 0.0
Gd1 Gd 1.0466 0.52899 0.16801 0.0
C2 C 0.13865 0.58783 0.15937 0.0
C3 C 0.13313 0.49258 0.12077 0.0
C4 C 0.17836 0.51235 0.12055 0.0
C5 C 0.19801 0.49965 0.12915 0.0
C6 C 0.20272 0.54496 0.11324 0.0
C7 C 0.26582 0.55302 0.12485 0.0
C8 C 0.24601 0.56506 0.11535 0.0
C9 C 0.24121 0.51984 0.13144 0.0
C10 C 0.0974 0.50988 0.18959 0.0
C11 C 0.99726 0.44391 0.15323 0.0
C12 C 1.0049 0.53741 0.19473 0.0
C13 C 0.96183 0.51385 0.19951 0.0
C14 C 0.92949 0.48806 0.18281 0.0
C15 C 0.95289 0.51673 0.22097 0.0
C16 C 0.8788 0.47129 0.20845 0.0
C17 C 0.91173 0.49551 0.22545 0.0
C18 C 0.88837 0.46715 0.18719 0.0
C19 C 1.04126 0.52417 0.12402 0.0
O20 O 0.13563 0.56189 0.14677 0.0
O21 O 0.10983 0.58124 0.17192 0.0
O22 O 0.11821 0.47701 0.1377 0.0
O23 O 0.11742 0.50793 0.11526 0.0
O24 O 0.0937 0.48446 0.17693 0.0
O25 O 0.09917 0.53045 0.17836 0.0
O26 O 1.0018 0.46972 0.16682 0.0
O27 O 1.02506 0.45062 0.13991 0.0
O28 O 1.00994 0.54659 0.17534 0.0
O29 O 1.02849 0.52913 0.20054 0.0
O30 O 1.04368 0.54847 0.13736 0.0
O31 O 1.03836 0.50218 0.13444 0.0
H32 H 0.18003 0.47457 0.13483 0.0
H33 H 0.18853 0.5554 0.10634 0.0
H34 H 0.26396 0.59019 0.10975 0.0
H35 H 0.25531 0.5099 0.13914 0.0
H36 H 0.93587 0.48482 0.1662 0.0
H37 H 0.97765 0.53593 0.23417 0.0
H38 H 0.90562 0.49891 0.24209 0.0
H39 H 0.86403 0.44919 0.17359 0.0
Gd40 Gd 0.66284 0.07078 0.4891 0.0
Gd41 Gd 0.60563 0.08871 0.47862 0.0
C42 C 0.56218 0.00835 0.47914 0.0
C43 C 0.69821 0.04671 0.50507 0.0
C44 C 0.68657 0.01192 0.50747 0.0
C45 C 0.71157 1.00288 0.50006 0.0
C46 C 0.65083 0.98746 0.51678 0.0
C47 C 0.6652 0.9453 0.51091 0.0
C48 C 0.64037 0.95451 0.51857 0.0
C49 C 0.70094 0.96988 0.50167 0.0
C50 C 0.64919 0.0714 0.4463 0.0
C51 C 0.70693 0.15102 0.48712 0.0
C52 C 0.5702 0.11329 0.46358 0.0
C53 C 0.57821 0.14759 0.46771 0.0
C54 C 0.60189 0.17173 0.48723 0.0
C55 C 0.56185 0.15628 0.45215 0.0
C56 C 0.59131 0.21251 0.47601 0.0
C57 C 0.5684 0.18847 0.45622 0.0
C58 C 0.60823 0.20381 0.49139 0.0
C59 C 0.61894 0.08804 0.52138 0.0
O60 O 0.59803 0.01972 0.48976 0.0
O61 O 0.55921 0.02975 0.46953 0.0
O62 O 0.70013 0.05296 0.48502 0.0
O63 O 0.68139 0.05818 0.51699 0.0
O64 O 0.68472 0.0822 0.45588 0.0
O65 O 0.62237 0.05906 0.45933 0.0
O66 O 0.67007 0.14003 0.47832 0.0
O67 O 0.71149 0.1297 0.49562 0.0
O68 O 0.5584 0.09587 0.4799 0.0
O69 O 0.59772 0.11269 0.45372 0.0
O70 O 0.58371 0.07755 0.5117 0.0
O71 O 0.64601 0.10053 0.50849 0.0
H72 H 0.7393 0.02135 0.49289 0.0
H73 H 0.63081 0.99364 0.52253 0.0
H74 H 0.61242 0.93596 0.52555 0.0
H75 H 0.72088 0.96367 0.49583 0.0
H76 H 0.61499 0.16555 0.4994 0.0
H77 H 0.54381 0.13806 0.4369 0.0
H78 H 0.55556 0.19452 0.44382 0.0
H79 H 0.62557 0.22137 0.50691 0.0
Gd80 Gd 0.65446 0.59513 0.84212 0.0
Gd81 Gd 0.59682 0.51865 0.84673 0.0
C82 C 0.55573 0.55704 0.84715 0.0
C83 C 0.68933 0.65591 0.83052 0.0
C84 C 0.6784 0.67893 0.8265 0.0
C85 C 0.70585 0.71497 0.83577 0.0
C86 C 0.64126 0.66567 0.81357 0.0
C87 C 0.65963 0.72456 0.81904 0.0
C88 C 0.63206 0.68829 0.80981 0.0
C89 C 0.69654 0.73752 0.83217 0.0
C90 C 0.65429 0.58308 0.88337 0.0
C91 C 0.69615 0.55695 0.84254 0.0
C92 C 0.56427 0.458 0.85788 0.0
C93 C 0.57429 0.43343 0.85479 0.0
C94 C 0.59927 0.43591 0.83883 0.0
C95 C 0.55919 0.40751 0.86793 0.0
C96 C 0.59284 0.3858 0.84867 0.0
C97 C 0.5684 0.38391 0.86493 0.0
C98 C 0.60836 0.41228 0.83575 0.0
C99 C 0.59755 0.53055 0.80534 0.0
O100 O 0.59001 0.58209 0.83948 0.0
O101 O 0.55316 0.53125 0.85435 0.0
O102 O 0.69199 0.65219 0.8509 0.0
O103 O 0.67147 0.6264 0.81648 0.0
O104 O 0.68773 0.6069 0.87562 0.0
O105 O 0.62263 0.56788 0.86938 0.0
O106 O 0.66031 0.53031 0.84807 0.0
O107 O 0.70059 0.58449 0.83706 0.0
O108 O 0.55051 0.46169 0.84 0.0
O109 O 0.59169 0.48812 0.87109 0.0
O110 O 0.56419 0.50621 0.81286 0.0
O111 O 0.6289 0.54587 0.81955 0.0
H112 H 0.73456 0.72569 0.84589 0.0
H113 H 0.61941 0.63789 0.80628 0.0
H114 H 0.60358 0.67739 0.79942 0.0
H115 H 0.71813 0.76508 0.83992 0.0
H116 H 0.61142 0.45594 0.82859 0.0
H117 H 0.54022 0.40547 0.88048 0.0
H118 H 0.55653 0.3643 0.87544 0.0
H119 H 0.62681 0.41432 0.82291 0.0
H120 H 0.58258 0.05725 0.20303 0.0
C121 C 0.55843 0.02906 0.19791 0.0
C122 C 0.5395 0.00811 0.2141 0.0
C123 C 0.5449 0.01399 0.17539 0.0
H124 H 0.4921 0.95569 0.22023 0.0
C125 C 0.50658 0.97191 0.20774 0.0
C126 C 0.49253 0.95619 0.18554 0.0
C127 C 0.51248 0.97714 0.16948 0.0
C128 C 0.56278 0.03672 0.1581 0.0
H129 H 0.50189 0.96467 0.15236 0.0
C130 C 0.60446 0.06815 0.16123 0.0
C131 C 0.6204 0.08951 0.14492 0.0
C132 C 0.53752 0.02753 0.13838 0.0
H133 H 0.50501 0.00461 0.13553 0.0
C134 C 0.55346 0.04828 0.12211 0.0
H135 H 0.62483 0.07592 0.1761 0.0
C136 C 0.59455 0.07898 0.12529 0.0
H137 H 0.60581 0.09505 0.11259 0.0
H138 H 0.5336 0.0408 0.10708 0.0
H139 H 0.57353 0.57311 0.56972 0.0
C140 C 0.58118 0.5564 0.56258 0.0
C141 C 0.59706 0.545 0.57635 0.0
C142 C 0.57363 0.54517 0.53969 0.0
H143 H 0.6164 0.51253 0.57764 0.0
C144 C 0.60585 0.52256 0.56701 0.0
C145 C 0.59802 0.51074 0.54423 0.0
C146 C 0.58238 0.52251 0.5307 0.0
C147 C 0.55424 0.55513 0.52514 0.0
H148 H 0.57672 0.51378 0.51307 0.0
C149 C 0.56858 0.59031 0.52734 0.0
C150 C 0.55106 0.59951 0.51271 0.0
C151 C 0.52135 0.52916 0.50861 0.0
H152 H 0.50918 0.5018 0.50678 0.0
C153 C 0.50354 0.53811 0.49435 0.0
H154 H 0.59421 0.61065 0.53984 0.0
C155 C 0.51837 0.57303 0.49627 0.0
H156 H 0.50403 0.57933 0.48499 0.0
H157 H 0.4782 0.51789 0.48172 0.0
H158 H 0.14419 0.56106 0.89166 0.0
C159 C 0.11722 0.55746 0.88428 0.0
C160 C 0.08736 0.55236 0.89764 0.0
C161 C 0.1137 0.56018 0.86204 0.0
H162 H 1.03051 0.54563 0.89935 0.0
C163 C 1.05308 0.54919 0.88877 0.0
C164 C 1.04779 0.55123 0.86673 0.0
C165 C 0.07825 0.55671 0.85342 0.0
C166 C 0.14835 0.56925 0.84848 0.0
H167 H 0.07382 0.55784 0.83634 0.0
C168 C 0.17501 0.55996 0.85233 0.0
C169 C 0.20772 0.56985 0.83941 0.0
C170 C 0.15621 0.58917 0.83185 0.0
H171 H 0.1384 0.59832 0.82879 0.0
C172 C 0.1881 0.59877 0.8192 0.0
H173 H 0.17003 0.54459 0.86489 0.0
C174 C 0.21344 0.58923 0.82286 0.0
H175 H 0.23831 0.59771 0.81287 0.0
H176 H 0.19355 0.61417 0.80656 0.0
H177 H 0.08771 0.54963 0.43446 0.0
C178 C 0.1174 0.57561 0.43927 0.0
C179 C 0.13941 0.59452 0.42276 0.0
C180 C 0.13264 0.59071 0.4617 0.0
H181 H 0.19377 0.64374 0.41604 0.0
C182 C 0.1766 0.6291 0.42872 0.0
C183 C 0.1924 0.64491 0.45081 0.0
C184 C 0.17098 0.62527 0.46718 0.0
C185 C 0.10783 0.57132 0.47932 0.0
H186 H 0.18401 0.63745 0.48418 0.0
C187 C 0.08023 0.53386 0.47614 0.0
C188 C 1.0566 0.51616 0.49273 0.0
C189 C 0.11072 0.59037 0.49946 0.0
H190 H 0.12984 0.61892 0.50245 0.0
C191 C 0.08807 0.57288 0.51604 0.0
H192 H 0.07726 0.51825 0.46099 0.0
C193 C 1.06129 0.53609 0.51277 0.0
H194 H 1.04327 0.52315 0.52571 0.0
H195 H 0.09075 0.58796 0.53139 0.0
H196 H 0.59974 0.02188 0.7508 0.0
C197 C 0.60734 0.04625 0.7597 0.0
C198 C 0.62572 0.07583 0.74932 0.0
C199 C 0.59718 0.04758 0.78112 0.0
H200 H 0.64615 0.1291 0.75214 0.0
C201 C 0.63397 0.10694 0.76054 0.0
C202 C 0.62341 0.10859 0.78179 0.0
C203 C 0.60593 0.07908 0.7921 0.0
C204 C 0.57456 0.01551 0.79153 0.0
H205 H 0.59847 0.0805 0.80867 0.0
C206 C 0.58525 0.99265 0.78982 0.0
C207 C 0.56334 0.96232 0.79974 0.0
C208 C 0.54144 0.00744 0.80313 0.0
H209 H 0.53177 0.02395 0.80435 0.0
C210 C 0.51993 0.97769 0.81308 0.0
H211 H 0.6105 0.99844 0.7808 0.0
C212 C 0.5308 0.95536 0.8115 0.0
H213 H 0.51393 0.93279 0.81974 0.0
H214 H 0.49468 0.97191 0.82207 0.0
H215 H 0.682 0.62823 0.1199 0.0
C216 C 0.67964 0.60805 0.12727 0.0
C217 C 0.67204 0.57846 0.11393 0.0
C218 C 0.68443 0.61203 0.15022 0.0
H219 H 0.66417 0.5302 0.11403 0.0
C220 C 0.66831 0.55236 0.12405 0.0
C221 C 0.67155 0.55537 0.14706 0.0
C222 C 0.67974 0.58548 0.15997 0.0
C223 C 0.6933 0.64361 0.16408 0.0
H224 H 0.68169 0.58812 0.17769 0.0
C225 C 0.66758 0.65307 0.16054 0.0
C226 C 0.67397 0.68173 0.17435 0.0
C227 C 0.72639 0.66361 0.18132 0.0
H228 H 0.7467 0.65679 0.18431 0.0
C229 C 0.7335 0.69264 0.19481 0.0
H230 H 0.64118 0.63687 0.14771 0.0
C231 C 0.70724 0.70154 0.1915 0.0
H232 H 0.71266 0.72364 0.2024 0.0
H233 H 0.75906 0.70795 0.20807 0.0
C234 C 0.33629 0.61227 0.13613 0.0
C235 C 0.31194 0.57544 0.12894 0.0
C236 C 0.37927 0.6327 0.1421 0.0
C237 C 0.45451 0.62523 0.16549 0.0
H238 H 0.53909 0.70452 0.13923 0.0
C239 C 0.62448 0.69013 0.19021 0.0
C240 C 0.64302 0.68803 0.17196 0.0
C241 C 0.5885 0.68732 0.18726 0.0
C242 C 0.51574 0.68274 0.1469 0.0
H243 H 0.31425 0.53175 0.12107 0.0
H244 H 0.38885 0.56724 0.13224 0.0
H245 H 0.46518 0.67582 0.12843 0.0
H246 H 0.64144 0.68532 0.13672 0.0
H247 H 0.57844 0.6802 0.13154 0.0
H248 H 0.50428 0.63101 0.1834 0.0
C249 C 0.37449 0.58011 0.13334 0.0
C250 C 0.47367 0.66644 0.14076 0.0
C251 C 0.33179 0.55982 0.12706 0.0
C252 C 0.62739 0.68659 0.15101 0.0
C253 C 0.59156 0.68398 0.14808 0.0
C254 C 0.49636 0.64175 0.17183 0.0
C255 C 0.3984 0.61653 0.14127 0.0
C256 C 0.44282 0.6369 0.14955 0.0
C257 C 0.57067 0.68257 0.16606 0.0
C258 C 0.52737 0.67005 0.16218 0.0
H259 H 0.32201 0.62514 0.138 0.0
H260 H 0.39726 0.6608 0.1482 0.0
H261 H 0.43114 0.60263 0.17258 0.0
H262 H 0.63584 0.69115 0.20654 0.0
H263 H 0.57317 0.68665 0.20141 0.0
C264 C 0.78141 0.20369 0.50047 0.0
C265 C 0.74386 0.1881 0.48708 0.0
C266 C 0.81626 0.23854 0.50007 0.0
C267 C 0.84714 0.32134 0.48179 0.0
H268 H 0.95804 0.34827 0.49098 0.0
C269 C 0.99399 0.45881 0.47097 0.0
C270 C 1.02531 0.47701 0.4891 0.0
C271 C 0.96098 0.4227 0.46926 0.0
C272 C 0.92723 0.3411 0.48841 0.0
H273 H 0.71373 0.19679 0.46248 0.0
H274 H 0.77451 0.25675 0.46116 0.0
H275 H 0.89757 0.28721 0.49101 0.0
H276 H 1.04783 0.47145 0.51905 0.0
H277 H 0.99071 0.40819 0.51579 0.0
H278 H 0.87708 0.37524 0.47878 0.0
C279 C 0.77699 0.24269 0.47254 0.0
C280 C 0.89248 0.30613 0.48859 0.0
C281 C 0.74203 0.20808 0.47319 0.0
C282 C 1.02405 0.45805 0.50491 0.0
C283 C 0.99146 0.42186 0.50301 0.0
C284 C 0.88185 0.35613 0.48128 0.0
C285 C 0.81465 0.25855 0.48601 0.0
C286 C 0.85187 0.29575 0.48544 0.0
C287 C 0.95905 0.40397 0.48544 0.0
C288 C 0.92228 0.36646 0.48474 0.0
H289 H 0.78381 0.18909 0.51144 0.0
H290 H 0.84431 0.24988 0.51101 0.0
H291 H 0.81662 0.3148 0.47976 0.0
H292 H 0.99403 0.47284 0.45865 0.0
H293 H 0.93657 0.40951 0.45545 0.0
C294 C 0.68171 0.78377 0.81265 0.0
C295 C 0.64991 0.74878 0.81517 0.0
C296 C 0.67282 0.80682 0.80968 0.0
C297 C 0.5922 0.81879 0.81781 0.0
H298 H 0.65135 0.88819 0.77991 0.0
C299 C 0.54268 0.90121 0.79576 0.0
C300 C 0.57426 0.93795 0.79828 0.0
C301 C 0.55252 0.87833 0.79646 0.0
C302 C 0.63481 0.86909 0.79065 0.0
H303 H 0.58359 0.71071 0.81636 0.0
H304 H 0.56787 0.75032 0.81031 0.0
H305 H 0.66671 0.84739 0.78358 0.0
H306 H 0.64113 0.9792 0.80268 0.0
H307 H 0.6583 0.93895 0.8035 0.0
H308 H 0.55991 0.84017 0.8246 0.0
C309 C 0.59992 0.76026 0.81111 0.0
C310 C 0.64365 0.84575 0.79283 0.0
C311 C 0.60886 0.73731 0.81426 0.0
C312 C 0.61603 0.95106 0.80052 0.0
C313 C 0.62588 0.92804 0.80105 0.0
C314 C 0.58311 0.84184 0.81546 0.0
C315 C 0.63182 0.79544 0.80898 0.0
C316 C 0.62242 0.82025 0.80644 0.0
C317 C 0.59419 0.89151 0.79948 0.0
C318 C 0.60425 0.86721 0.80184 0.0
H319 H 0.71361 0.79343 0.8129 0.0
H320 H 0.69829 0.83377 0.80833 0.0
H321 H 0.57588 0.80014 0.82883 0.0
H322 H 0.51018 0.89008 0.79346 0.0
H323 H 0.52742 0.85023 0.79476 0.0
C324 C 0.80175 0.42152 0.19948 0.0
C325 C 0.8349 0.45462 0.21185 0.0
C326 C 0.76127 0.41101 0.1977 0.0
C327 C 0.70484 0.42425 0.17786 0.0
H328 H 0.66979 0.46612 0.2187 0.0
C329 C 0.69334 0.53788 0.17752 0.0
C330 C 0.66812 0.52793 0.1577 0.0
C331 C 0.69233 0.51279 0.18693 0.0
C332 C 0.67835 0.45353 0.20711 0.0
H333 H 0.85026 0.50026 0.2344 0.0
H334 H 0.78069 0.48207 0.2315 0.0
H335 H 0.70679 0.44583 0.23271 0.0
H336 H 0.62039 0.48311 0.13288 0.0
H337 H 0.62046 0.43944 0.14888 0.0
H338 H 0.67944 0.43457 0.15234 0.0
C339 C 0.78541 0.464 0.22307 0.0
C340 C 0.69956 0.44194 0.21511 0.0
C341 C 0.82575 0.4746 0.22471 0.0
C342 C 0.64088 0.49188 0.14791 0.0
C343 C 0.64043 0.46677 0.15719 0.0
C344 C 0.68334 0.43555 0.16987 0.0
C345 C 0.75327 0.43331 0.20839 0.0
C346 C 0.71616 0.43007 0.2006 0.0
C347 C 0.66661 0.47713 0.17664 0.0
C348 C 0.67296 0.45288 0.18449 0.0
H349 H 0.80752 0.40492 0.18991 0.0
H350 H 0.73697 0.38682 0.18662 0.0
H351 H 0.71692 0.41509 0.16614 0.0
H352 H 0.71538 0.56535 0.18536 0.0
H353 H 0.71373 0.52178 0.20162 0.0
C354 C 0.52607 0.94809 0.48907 0.0
C355 C 0.52491 0.97089 0.47766 0.0
C356 C 0.49056 0.91297 0.48799 0.0
C357 C 0.37539 0.85424 0.47376 0.0
H358 H 0.38441 0.77861 0.46939 0.0
C359 C 0.23414 0.70794 0.44564 0.0
C360 C 0.23039 0.68251 0.45648 0.0
C361 C 0.27004 0.74314 0.45018 0.0
C362 C 0.38143 0.79948 0.4709 0.0
H363 H 0.48547 0.97433 0.4559 0.0
H364 H 0.42407 0.91323 0.45368 0.0
H365 H 0.44732 0.83985 0.47318 0.0
H366 H 0.26134 0.67418 0.48076 0.0
H367 H 0.32452 0.73604 0.48872 0.0
H368 H 0.3095 0.81384 0.47101 0.0
C369 C 0.4521 0.92257 0.46387 0.0
C370 C 0.4175 0.83463 0.47308 0.0
C371 C 0.4875 0.95764 0.46501 0.0
C372 C 0.26329 0.69323 0.47221 0.0
C373 C 0.29954 0.72853 0.47662 0.0
C374 C 0.33941 0.81917 0.47147 0.0
C375 C 0.45302 0.89977 0.47543 0.0
C376 C 0.41492 0.86245 0.47425 0.0
C377 C 0.30331 0.75388 0.46561 0.0
C378 C 0.34191 0.79131 0.46972 0.0
H379 H 0.55431 0.95741 0.49904 0.0
H380 H 0.49238 0.89635 0.49729 0.0
H381 H 0.37217 0.87495 0.47514 0.0
H382 H 0.20917 0.70059 0.43359 0.0
H383 H 0.27205 0.76186 0.44124 0.0
C384 C 0.63991 0.37007 0.83923 0.0
C385 C 0.60118 0.35974 0.84479 0.0
C386 C 0.64696 0.3452 0.83465 0.0
C387 C 0.60826 0.25607 0.84261 0.0
H388 H 0.65727 0.25545 0.78999 0.0
C389 C 0.59371 0.13469 0.8026 0.0
C390 C 0.62675 0.13971 0.79229 0.0
C391 C 0.59497 0.16348 0.81103 0.0
C392 C 0.64424 0.25557 0.80496 0.0
H393 H 0.53955 0.3149 0.84986 0.0
H394 H 0.55212 0.27179 0.84223 0.0
H395 H 0.65157 0.30231 0.8011 0.0
H396 H 0.68762 0.1791 0.78334 0.0
H397 H 0.69009 0.22959 0.79831 0.0
H398 H 0.60063 0.20927 0.84644 0.0
C399 C 0.57715 0.29922 0.84161 0.0
C400 C 0.6409 0.28243 0.8113 0.0
C401 C 0.56999 0.324 0.84603 0.0
C402 C 0.66152 0.17435 0.79102 0.0
C403 C 0.66286 0.20324 0.79954 0.0
C404 C 0.61181 0.22935 0.83635 0.0
C405 C 0.61559 0.30947 0.8357 0.0
C406 C 0.62222 0.28262 0.82998 0.0
C407 C 0.62937 0.19812 0.80945 0.0
C408 C 0.62916 0.22838 0.81723 0.0
H409 H 0.66491 0.39745 0.83847 0.0
H410 H 0.67707 0.35397 0.8304 0.0
H411 H 0.59435 0.25585 0.85729 0.0
H412 H 0.56607 0.10833 0.80347 0.0
H413 H 0.56825 0.1584 0.81814 0.0
C414 C 0.64141 0.89572 0.53146 0.0
C415 C 0.65362 0.91 0.51215 0.0
C416 C 0.63101 0.86259 0.53257 0.0
C417 C 0.5941 0.77922 0.49768 0.0
H418 H 0.6397 0.76532 0.54715 0.0
C419 C 0.57517 0.65146 0.49496 0.0
C420 C 0.56688 0.63662 0.51408 0.0
C421 C 0.58702 0.68536 0.49566 0.0
C422 C 0.62624 0.76859 0.53335 0.0
H423 H 0.66388 0.90055 0.47878 0.0
H424 H 0.64554 0.84272 0.48066 0.0
H425 H 0.65666 0.82312 0.54673 0.0
H426 H 0.56545 0.64592 0.54905 0.0
H427 H 0.58539 0.70512 0.55028 0.0
H428 H 0.56312 0.72485 0.48437 0.0
C429 C 0.6441 0.85715 0.49496 0.0
C430 C 0.63603 0.80173 0.53311 0.0
C431 C 0.65492 0.89037 0.49394 0.0
C432 C 0.57187 0.65683 0.53409 0.0
C433 C 0.58335 0.69074 0.53477 0.0
C434 C 0.58402 0.74609 0.498 0.0
C435 C 0.63207 0.8429 0.51428 0.0
C436 C 0.62042 0.80747 0.51514 0.0
C437 C 0.59044 0.70522 0.51547 0.0
C438 C 0.60035 0.7404 0.51569 0.0
H439 H 0.64039 0.91037 0.54579 0.0
H440 H 0.6216 0.85216 0.54762 0.0
H441 H 0.581 0.78266 0.48379 0.0
H442 H 0.57228 0.6367 0.47938 0.0
H443 H 0.59335 0.69594 0.48059 0.0
C444 C 0.72854 0.52719 0.84911 0.0
C445 C 0.73202 0.55563 0.84258 0.0
C446 C 0.76228 0.52621 0.84961 0.0
C447 C 0.87866 0.58392 0.85002 0.0
H448 H 0.85823 0.49389 0.83751 0.0
C449 C 1.01522 0.57484 0.8483 0.0
C450 C 1.01073 0.54863 0.85863 0.0
C451 C 0.98134 0.57523 0.84422 0.0
C452 C 0.86468 0.51933 0.84123 0.0
H453 H 0.77446 0.60526 0.8312 0.0
H454 H 0.83275 0.60331 0.8317 0.0
H455 H 0.79999 0.49566 0.83488 0.0
H456 H 0.96623 0.50136 0.87177 0.0
H457 H 0.90766 0.50177 0.86455 0.0
H458 H 0.94345 0.60752 0.85636 0.0
C459 C 0.80412 0.58191 0.83686 0.0
C460 C 0.83101 0.52036 0.83978 0.0
C461 C 0.77038 0.58293 0.83641 0.0
C462 C 0.97097 0.52199 0.8638 0.0
C463 C 0.93717 0.52217 0.85956 0.0
C464 C 0.91237 0.58289 0.85138 0.0
C465 C 0.80082 0.55358 0.84354 0.0
C466 C 0.83724 0.55264 0.84436 0.0
C467 C 0.94183 0.54916 0.85009 0.0
C468 C 0.90599 0.55054 0.84722 0.0
H469 H 0.69973 0.50565 0.85406 0.0
H470 H 0.75822 0.50413 0.8552 0.0
H471 H 0.88516 0.60936 0.85402 0.0
H472 H 1.04537 0.59596 0.84427 0.0
H473 H 0.98626 0.59624 0.83665 0.0
C474 C 0.20739 0.63361 0.14697 0.0
C475 C 0.17557 0.62514 0.15983 0.0
C476 C 0.24176 0.66897 0.14731 0.0
C477 C 0.27545 0.76031 0.16185 0.0
H478 H 0.38719 0.78862 0.16445 0.0
C479 C 0.42048 0.90462 0.19026 0.0
C480 C 0.45583 0.91814 0.17944 0.0
C481 C 0.3863 0.86878 0.1854 0.0
C482 C 0.35614 0.78108 0.1634 0.0
H483 H 0.15536 0.64741 0.18327 0.0
H484 H 0.21511 0.70859 0.18403 0.0
H485 H 0.32767 0.72601 0.16078 0.0
H486 H 0.4828 0.90462 0.1548 0.0
H487 H 0.42271 0.84159 0.14622 0.0
H488 H 0.30382 0.8153 0.16488 0.0
C489 C 0.21331 0.68805 0.17339 0.0
C490 C 0.322 0.74518 0.1613 0.0
C491 C 0.17909 0.65283 0.17307 0.0
C492 C 0.45593 0.89498 0.16335 0.0
C493 C 0.4217 0.85889 0.15858 0.0
C494 C 0.30948 0.79609 0.16399 0.0
C495 C 0.24502 0.69665 0.16044 0.0
C496 C 0.28126 0.73442 0.16092 0.0
C497 C 0.38651 0.84539 0.1696 0.0
C498 C 0.3503 0.80701 0.1652 0.0
H499 H 0.20571 0.61297 0.13655 0.0
H500 H 0.26546 0.67462 0.13703 0.0
H501 H 0.2445 0.75295 0.16106 0.0
H502 H 0.41924 0.92184 0.20258 0.0
H503 H 0.35997 0.85926 0.19439 0.0
C504 C 0.56371 0.24672 0.4747 0.0
C505 C 0.59655 0.24602 0.48088 0.0
C506 C 0.56794 0.27774 0.47998 0.0
C507 C 0.62513 0.3606 0.51973 0.0
H508 H 0.5836 0.38915 0.47786 0.0
C509 C 0.63779 0.48653 0.542 0.0
C510 C 0.60288 0.48384 0.53481 0.0
C511 C 0.64081 0.4599 0.5341 0.0
C512 C 0.59502 0.38139 0.48983 0.0
H513 H 0.66014 0.27799 0.49698 0.0
H514 H 0.66713 0.33193 0.50655 0.0
H515 H 0.58146 0.33795 0.46654 0.0
H516 H 0.54372 0.45104 0.51374 0.0
H517 H 0.54862 0.40451 0.5002 0.0
H518 H 0.63756 0.40326 0.54322 0.0
C519 C 0.63801 0.30829 0.49772 0.0
C520 C 0.59387 0.3521 0.4833 0.0
C521 C 0.63392 0.27732 0.49229 0.0
C522 C 0.57137 0.45421 0.51931 0.0
C523 C 0.57424 0.42752 0.51153 0.0
C524 C 0.62599 0.38974 0.52631 0.0
C525 C 0.60499 0.30878 0.49172 0.0
C526 C 0.60852 0.34116 0.49824 0.0
C527 C 0.60882 0.42983 0.51894 0.0
C528 C 0.61052 0.4003 0.51151 0.0
H529 H 0.53422 0.22304 0.46626 0.0
H530 H 0.54172 0.27715 0.4754 0.0
H531 H 0.63621 0.35257 0.53169 0.0
H532 H 0.66275 0.50923 0.55379 0.0
H533 H 0.66821 0.46287 0.53991 0.0
C534 C 0.48358 0.53258 0.85661 0.0
C535 C 0.51961 0.558 0.84777 0.0
C536 C 0.44949 0.53309 0.85691 0.0
C537 C 0.40143 0.56817 0.83025 0.0
H538 H 0.3353 0.54116 0.87844 0.0
C539 C 0.2465 0.54824 0.82407 0.0
C540 C 0.23704 0.56114 0.84254 0.0
C541 C 0.27928 0.5462 0.82571 0.0
C542 C 0.35346 0.54898 0.86486 0.0
H543 H 0.54745 0.60423 0.83245 0.0
H544 H 0.48849 0.60526 0.83306 0.0
H545 H 0.39606 0.54238 0.87951 0.0
H546 H 0.25415 0.58052 0.87757 0.0
H547 H 0.31142 0.57679 0.88057 0.0
H548 H 0.35945 0.57531 0.81572 0.0
C549 C 0.48625 0.58453 0.83958 0.0
C550 C 0.38827 0.54933 0.86536 0.0
C551 C 0.52041 0.58409 0.83935 0.0
C552 C 0.26016 0.57015 0.86303 0.0
C553 C 0.29322 0.56813 0.86469 0.0
C554 C 0.36663 0.56766 0.8297 0.0
C555 C 0.45004 0.55896 0.8483 0.0
C556 C 0.41291 0.55891 0.84803 0.0
C557 C 0.30411 0.55705 0.84591 0.0
C558 C 0.34179 0.5579 0.84693 0.0
H559 H 0.48151 0.512 0.86325 0.0
H560 H 0.42227 0.51264 0.86354 0.0
H561 H 0.419 0.57536 0.81643 0.0
H562 H 0.2292 0.54067 0.80804 0.0
H563 H 0.28551 0.53653 0.81094 0.0
C564 C 0.95029 0.37896 0.13698 0.0
C565 C 0.95985 0.40694 0.15305 0.0
C566 C 0.91498 0.34417 0.13708 0.0
C567 C 0.81399 0.29246 0.15995 0.0
H568 H 0.81666 0.21429 0.14217 0.0
C569 C 0.67717 0.14897 0.16754 0.0
C570 C 0.66323 0.12368 0.14843 0.0
C571 C 0.71515 0.18296 0.16945 0.0
C572 C 0.81543 0.23586 0.14712 0.0
H573 H 0.93986 0.4201 0.182 0.0
H574 H 0.87935 0.35972 0.18252 0.0
H575 H 0.87893 0.27477 0.14258 0.0
H576 H 0.67906 0.11352 0.11687 0.0
H577 H 0.74555 0.17264 0.12032 0.0
H578 H 0.75057 0.25344 0.16467 0.0
C579 C 0.89838 0.36453 0.16947 0.0
C580 C 0.85106 0.27056 0.14724 0.0
C581 C 0.93338 0.39927 0.16926 0.0
C582 C 0.68894 0.13254 0.13175 0.0
C583 C 0.7271 0.16633 0.13377 0.0
C584 C 0.77856 0.25781 0.16004 0.0
C585 C 0.88854 0.33644 0.15336 0.0
C586 C 0.85078 0.29938 0.15352 0.0
C587 C 0.74022 0.19219 0.15242 0.0
C588 C 0.77876 0.22909 0.1535 0.0
H589 H 0.96989 0.38393 0.1242 0.0
H590 H 0.90815 0.32341 0.12417 0.0
H591 H 0.81215 0.31376 0.16449 0.0
H592 H 0.65787 0.14296 0.18059 0.0
H593 H 0.72464 0.20222 0.18412 0.0
C594 C 1.04577 0.49885 0.08736 0.0
C595 C 1.04724 0.52538 0.10064 0.0
C596 C 1.05416 0.5015 0.06561 0.0
C597 C 0.10379 0.5674 0.02827 0.0
H598 H 1.0396 0.4847 0.98205 0.0
C599 C 0.09129 0.575 0.93684 0.0
C600 C 0.0922 0.55178 0.92134 0.0
C601 C 0.0912 0.57233 0.95902 0.0
C602 C 1.05824 0.50794 0.99483 0.0
H603 H 1.0572 0.57485 0.10147 0.0
H604 H 0.07049 0.57901 0.06349 0.0
H605 H 1.02714 0.47815 0.02008 0.0
H606 H 0.09475 0.50814 0.91677 0.0
H607 H 0.09407 0.50307 0.95581 0.0
H608 H 0.13379 0.5973 0.00287 0.0
C609 C 0.06418 0.55664 0.06992 0.0
C610 C 1.05111 0.50422 0.01665 0.0
C611 C 1.0561 0.55409 0.09165 0.0
C612 C 0.09424 0.52643 0.92849 0.0
C613 C 0.09353 0.52339 0.95072 0.0
C614 C 0.11064 0.57113 0.00647 0.0
C615 C 1.06383 0.53063 0.05666 0.0
C616 C 0.0733 0.53401 0.03361 0.0
C617 C 0.09153 0.54609 0.96617 0.0
C618 C 0.08748 0.54154 0.98948 0.0
H619 H 1.03876 0.4763 0.09386 0.0
H620 H 1.05383 0.48107 0.05596 0.0
H621 H 0.12225 0.59082 0.04093 0.0
H622 H 0.08976 0.5948 0.9317 0.0
H623 H 0.08926 0.58998 0.97046 0.0
C624 C 0.6712 0.08286 0.40903 0.0
C625 C 0.64008 0.07045 0.42288 0.0
C626 C 0.66184 0.08048 0.38663 0.0
C627 C 0.57293 0.02897 0.34268 0.0
H628 H 0.64731 0.10267 0.30991 0.0
C629 C 0.52394 0.01537 0.25222 0.0
C630 C 0.55344 0.02348 0.23782 0.0
C631 C 0.53586 0.02544 0.27488 0.0
C632 C 0.62637 0.08176 0.31881 0.0
H633 H 0.57522 0.04694 0.42443 0.0
H634 H 0.55893 0.04302 0.38547 0.0
H635 H 0.66574 0.11182 0.3495 0.0
H636 H 0.61883 0.05002 0.23573 0.0
H637 H 0.6398 0.06733 0.27552 0.0
H638 H 0.53388 0.99862 0.31218 0.0
C639 C 0.59039 0.05406 0.39175 0.0
C640 C 0.63692 0.087 0.34148 0.0
C641 C 0.59975 0.05645 0.41409 0.0
C642 C 0.59552 0.04355 0.2465 0.0
C643 C 0.60747 0.05346 0.26927 0.0
C644 C 0.56245 0.02373 0.32011 0.0
C645 C 0.62116 0.06559 0.37768 0.0
C646 C 0.61023 0.06065 0.35366 0.0
C647 C 0.57754 0.04363 0.28373 0.0
C648 C 0.58893 0.05005 0.30788 0.0
H649 H 0.7026 0.09388 0.41543 0.0
H650 H 0.68616 0.08935 0.37621 0.0
H651 H 0.55209 0.00781 0.35145 0.0
H652 H 0.49138 1.00042 0.24593 0.0
H653 H 0.51218 0.01825 0.28551 0.0
C654 C 0.63654 0.55708 0.77402 0.0
C655 C 0.59878 0.53764 0.78281 0.0
C656 C 0.63718 0.56228 0.75226 0.0
C657 C 0.56682 0.52477 0.69955 0.0
H658 H 0.66114 0.60877 0.68104 0.0
C659 C 0.56655 0.54683 0.61048 0.0
C660 C 0.60057 0.55326 0.60058 0.0
C661 C 0.56733 0.54946 0.63326 0.0
C662 C 0.63462 0.5852 0.68603 0.0
H663 H 0.53242 0.50981 0.77628 0.0
H664 H 0.53352 0.51997 0.73869 0.0
H665 H 0.65998 0.6047 0.72 0.0
H666 H 0.6629 0.56937 0.60672 0.0
H667 H 0.66452 0.57453 0.64666 0.0
H668 H 0.54136 0.50555 0.66559 0.0
C669 C 0.56256 0.53015 0.74816 0.0
C670 C 0.634 0.58271 0.70832 0.0
C671 C 0.56189 0.52448 0.76977 0.0
C672 C 0.63623 0.56417 0.61397 0.0
C673 C 0.63723 0.56729 0.63679 0.0
C674 C 0.5672 0.52752 0.67737 0.0
C675 C 0.6001 0.54859 0.73895 0.0
C676 C 0.60023 0.55228 0.71537 0.0
C677 C 0.60235 0.55903 0.64659 0.0
C678 C 0.60122 0.55759 0.67035 0.0
H679 H 0.66545 0.5675 0.78378 0.0
H680 H 0.66662 0.57618 0.74575 0.0
H681 H 0.54071 0.50056 0.70416 0.0
H682 H 0.53854 0.53807 0.60054 0.0
H683 H 0.54015 0.54319 0.64043 0.0
C684 C 0.5912 0.06207 0.55475 0.0
C685 C 0.62562 0.08489 0.54416 0.0
C686 C 0.59682 0.05922 0.57647 0.0
C687 C 0.66526 0.10931 0.6274 0.0
H688 H 0.60631 0.01822 0.64579 0.0
C689 C 0.67008 0.10029 0.7192 0.0
C690 C 0.63239 0.07342 0.72596 0.0
C691 C 0.67459 0.10005 0.69688 0.0
C692 C 0.62271 0.0439 0.64101 0.0
H693 H 0.6929 0.12239 0.54772 0.0
H694 H 0.70276 0.11822 0.58619 0.0
H695 H 0.60379 0.02102 0.60676 0.0
H696 H 0.57009 0.02499 0.71477 0.0
H697 H 0.57724 0.02498 0.67591 0.0
H698 H 0.68225 0.13231 0.66146 0.0
C699 C 0.6715 0.10231 0.57752 0.0
C700 C 0.62146 0.04544 0.61863 0.0
C701 C 0.66588 0.10466 0.55559 0.0
C702 C 0.5997 0.04576 0.71002 0.0
C703 C 0.60395 0.04577 0.68771 0.0
C704 C 0.66598 0.10778 0.6498 0.0
C705 C 0.63696 0.07958 0.58814 0.0
C706 C 0.64216 0.07812 0.61164 0.0
C707 C 0.64122 0.07323 0.68078 0.0
C708 C 0.64408 0.075 0.65694 0.0
H709 H 0.55983 0.04641 0.54625 0.0
H710 H 0.56967 0.04176 0.58433 0.0
H711 H 0.68114 0.13483 0.62243 0.0
H712 H 0.69586 0.1218 0.73121 0.0
H713 H 0.70405 0.12123 0.69227 0.0
C714 C 0.68958 0.58921 0.91916 0.0
C715 C 0.65303 0.57703 0.90614 0.0
C716 C 0.68874 0.58466 0.94104 0.0
C717 C 0.63711 0.58154 0.98758 0.0
H718 H 0.68187 0.5396 0.01274 0.0
C719 C 0.69251 0.6055 0.07978 0.0
C720 C 0.66854 0.57518 0.08953 0.0
C721 C 0.68821 0.60272 0.057 0.0
C722 C 0.66915 0.55119 0.00582 0.0
H723 H 0.58687 0.55008 0.90548 0.0
H724 H 0.58574 0.54328 0.94409 0.0
H725 H 0.67858 0.53959 0.973 0.0
H726 H 0.62154 0.51796 0.08258 0.0
H727 H 0.61581 0.51326 0.04263 0.0
H728 H 0.62943 0.59455 0.02049 0.0
C729 C 0.61482 0.55591 0.93724 0.0
C730 C 0.66739 0.5513 0.98323 0.0
C731 C 0.61549 0.55977 0.91522 0.0
C732 C 0.64098 0.54187 0.07576 0.0
C733 C 0.6374 0.53909 0.0529 0.0
C734 C 0.63974 0.58214 0.01019 0.0
C735 C 0.65149 0.56849 0.95034 0.0
C736 C 0.65147 0.56658 0.97397 0.0
C737 C 0.66064 0.56955 0.04344 0.0
C738 C 0.6559 0.56709 0.01945 0.0
H739 H 0.71885 0.60242 0.91246 0.0
H740 H 0.71742 0.59475 0.9509 0.0
H741 H 0.62502 0.59371 0.9808 0.0
H742 H 0.71488 0.6315 0.08969 0.0
H743 H 0.7067 0.62649 0.04993 0.0
C744 C 0.08852 0.48683 0.2248 0.0
C745 C 0.09753 0.51373 0.21361 0.0
C746 C 0.08702 0.49035 0.24749 0.0
C747 C 0.07362 0.53919 0.29249 0.0
H748 H 0.13059 0.51892 0.33064 0.0
C749 C 0.12467 0.59861 0.38428 0.0
C750 C 0.12393 0.57865 0.39914 0.0
C751 C 0.1145 0.58547 0.36176 0.0
C752 C 0.11383 0.52407 0.3202 0.0
H753 H 0.1132 0.56576 0.21732 0.0
H754 H 0.11056 0.57192 0.25673 0.0
H755 H 0.12692 0.50584 0.29085 0.0
H756 H 0.11041 0.52866 0.40214 0.0
H757 H 0.09218 0.5054 0.3626 0.0
H758 H 1.0612 0.55805 0.32175 0.0
C759 C 0.10393 0.54784 0.24804 0.0
C760 C 0.11181 0.51663 0.2974 0.0
C761 C 0.10569 0.5444 0.22549 0.0
C762 C 0.11113 0.54458 0.39106 0.0
C763 C 0.1011 0.53144 0.36843 0.0
C764 C 0.07554 0.54653 0.31523 0.0
C765 C 0.09429 0.52078 0.2593 0.0
C766 C 0.09258 0.52494 0.28333 0.0
C767 C 0.10332 0.552 0.35351 0.0
C768 C 0.09654 0.53987 0.32938 0.0
H769 H 0.08211 0.46291 0.21598 0.0
H770 H 0.07945 0.46905 0.25572 0.0
H771 H 1.0578 0.54519 0.28205 0.0
H772 H 0.13397 0.62481 0.39006 0.0
H773 H 0.11696 0.60219 0.35076 0.0
loop_
_geom_bond_atom_site_label_1
_geom_bond_atom_site_label_2
_geom_bond_distance
_geom_bond_site_symmetry_2
_ccdc_geom_bond_type
Gd0 C3 2.818 . S
Gd0 O20 2.377 . S
Gd0 O22 2.448 . S
Gd0 O23 2.506 . S
Gd0 O24 2.435 . S
Gd0 O25 2.717 . S
Gd0 O27 2.395 . S
Gd0 O31 2.327 . S
Gd1 C12 2.818 1_455 S
Gd1 O21 2.395 . S
Gd1 O25 2.327 . S
Gd1 O26 2.377 1_455 S
Gd1 O28 2.448 1_455 S
Gd1 O29 2.506 1_455 S
Gd1 O30 2.435 . S
Gd1 O31 2.717 . S
C2 O20 1.240 . S
C2 O21 1.240 . S
C3 Gd0 2.818 . S
C3 C4 1.510 . S
C3 O22 1.249 . S
C3 O23 1.252 . S
C4 C3 1.510 . S
C4 C5 1.404 . S
C4 C6 1.352 . S
C5 C4 1.404 . S
C5 C9 1.389 . S
C5 H32 0.930 . S
C6 C4 1.352 . S
C6 C8 1.374 . S
C6 H33 0.931 . S
C7 C8 1.359 . S
C7 C9 1.364 . S
C8 C6 1.374 . S
C8 C7 1.359 . S
C8 H34 0.931 . S
C9 C5 1.389 . S
C9 C7 1.364 . S
C9 H35 0.931 . S
C10 O24 1.256 . S
C10 O25 1.257 . S
C11 O26 1.240 . S
C11 O27 1.241 1_655 S
C12 Gd1 2.818 1_655 S
C12 C13 1.510 . S
C12 O28 1.249 . S
C12 O29 1.252 . S
C13 C12 1.510 . S
C13 C14 1.404 . S
C13 C15 1.352 . S
C14 C13 1.404 . S
C14 C18 1.389 . S
C14 H36 0.930 . S
C15 C13 1.352 . S
C15 C17 1.374 . S
C15 H37 0.931 . S
C16 C17 1.359 . S
C16 C18 1.364 . S
C17 C15 1.374 . S
C17 C16 1.359 . S
C17 H38 0.931 . S
C18 C14 1.389 . S
C18 C16 1.364 . S
C18 H39 0.931 . S
C19 O30 1.256 . S
C19 O31 1.257 . S
O20 Gd0 2.377 . S
O20 C2 1.240 . S
O21 Gd1 2.395 . S
O21 C2 1.240 . S
O22 Gd0 2.448 . S
O22 C3 1.249 . S
O23 Gd0 2.506 . S
O23 C3 1.252 . S
O24 Gd0 2.435 . S
O24 C10 1.256 . S
O25 Gd0 2.717 . S
O25 Gd1 2.327 . S
O25 C10 1.257 . S
O26 Gd1 2.377 1_655 S
O26 C11 1.240 . S
O27 Gd0 2.395 . S
O27 C11 1.241 1_455 S
O28 Gd1 2.448 1_655 S
O28 C12 1.249 . S
O29 Gd1 2.506 1_655 S
O29 C12 1.252 . S
O30 Gd1 2.435 . S
O30 C19 1.256 . S
O31 Gd0 2.327 . S
O31 Gd1 2.717 . S
O31 C19 1.257 . S
H32 C5 0.930 . S
H33 C6 0.931 . S
H34 C8 0.931 . S
H35 C9 0.931 . S
H36 C14 0.930 . S
H37 C15 0.931 . S
H38 C17 0.931 . S
H39 C18 0.931 . S
Gd40 C43 2.818 1_545 S
Gd40 O60 2.377 1_545 S
Gd40 O62 2.448 1_545 S
Gd40 O63 2.506 1_545 S
Gd40 O64 2.435 . S
Gd40 O65 2.717 . S
Gd40 O67 2.395 . S
Gd40 O71 2.327 . S
Gd41 C52 2.818 . S
Gd41 O61 2.395 . S
Gd41 O65 2.327 . S
Gd41 O66 2.377 . S
Gd41 O68 2.448 . S
Gd41 O69 2.506 . S
Gd41 O70 2.435 . S
Gd41 O71 2.717 . S
C42 O60 1.240 . S
C42 O61 1.240 1_565 S
C43 Gd40 2.818 1_565 S
C43 C44 1.510 . S
C43 O62 1.249 . S
C43 O63 1.252 . S
C44 C43 1.510 . S
C44 C45 1.404 . S
C44 C46 1.352 . S
C45 C44 1.404 . S
C45 C49 1.389 . S
C45 H72 0.930 . S
C46 C44 1.352 . S
C46 C48 1.374 . S
C46 H73 0.931 . S
C47 C48 1.359 . S
C47 C49 1.364 . S
C48 C46 1.374 . S
C48 C47 1.359 . S
C48 H74 0.931 . S
C49 C45 1.389 . S
C49 C47 1.364 . S
C49 H75 0.931 . S
C50 O64 1.256 . S
C50 O65 1.257 . S
C51 O66 1.240 . S
C51 O67 1.240 . S
C52 Gd41 2.818 . S
C52 C53 1.510 . S
C52 O68 1.249 . S
C52 O69 1.252 . S
C53 C52 1.510 . S
C53 C54 1.404 . S
C53 C55 1.352 . S
C54 C53 1.404 . S
C54 C58 1.389 . S
C54 H76 0.930 . S
C55 C53 1.352 . S
C55 C57 1.374 . S
C55 H77 0.931 . S
C56 C57 1.359 . S
C56 C58 1.364 . S
C57 C55 1.374 . S
C57 C56 1.359 . S
C57 H78 0.931 . S
C58 C54 1.389 . S
C58 C56 1.364 . S
C58 H79 0.931 . S
C59 O70 1.256 . S
C59 O71 1.257 . S
O60 Gd40 2.377 1_565 S
O60 C42 1.240 . S
O61 Gd41 2.395 . S
O61 C42 1.240 1_545 S
O62 Gd40 2.448 1_565 S
O62 C43 1.249 . S
O63 Gd40 2.506 1_565 S
O63 C43 1.252 . S
O64 Gd40 2.435 . S
O64 C50 1.256 . S
O65 Gd40 2.717 . S
O65 Gd41 2.327 . S
O65 C50 1.257 . S
O66 Gd41 2.377 . S
O66 C51 1.240 . S
O67 Gd40 2.395 . S
O67 C51 1.240 . S
O68 Gd41 2.448 . S
O68 C52 1.249 . S
O69 Gd41 2.506 . S
O69 C52 1.252 . S
O70 Gd41 2.435 . S
O70 C59 1.256 . S
O71 Gd40 2.327 . S
O71 Gd41 2.717 . S
O71 C59 1.257 . S
H72 C45 0.930 . S
H73 C46 0.931 . S
H74 C48 0.931 . S
H75 C49 0.931 . S
H76 C54 0.930 . S
H77 C55 0.931 . S
H78 C57 0.931 . S
H79 C58 0.931 . S
Gd80 C83 2.818 . S
Gd80 O100 2.377 . S
Gd80 O102 2.448 . S
Gd80 O103 2.506 . S
Gd80 O104 2.435 . S
Gd80 O105 2.717 . S
Gd80 O107 2.395 . S
Gd80 O111 2.327 . S
Gd81 C92 2.818 . S
Gd81 O101 2.395 . S
Gd81 O105 2.327 . S
Gd81 O106 2.377 . S
Gd81 O108 2.448 . S
Gd81 O109 2.506 . S
Gd81 O110 2.435 . S
Gd81 O111 2.717 . S
C82 O100 1.240 . S
C82 O101 1.240 . S
C83 Gd80 2.818 . S
C83 C84 1.510 . S
C83 O102 1.249 . S
C83 O103 1.252 . S
C84 C83 1.510 . S
C84 C85 1.404 . S
C84 C86 1.352 . S
C85 C84 1.404 . S
C85 C89 1.389 . S
C85 H112 0.930 . S
C86 C84 1.352 . S
C86 C88 1.374 . S
C86 H113 0.931 . S
C87 C88 1.359 . S
C87 C89 1.364 . S
C88 C86 1.374 . S
C88 C87 1.359 . S
C88 H114 0.931 . S
C89 C85 1.389 . S
C89 C87 1.364 . S
C89 H115 0.931 . S
C90 O104 1.256 . S
C90 O105 1.257 . S
C91 O106 1.240 . S
C91 O107 1.240 . S
C92 Gd81 2.818 . S
C92 C93 1.510 . S
C92 O108 1.249 . S
C92 O109 1.252 . S
C93 C92 1.510 . S
C93 C94 1.404 . S
C93 C95 1.352 . S
C94 C93 1.404 . S
C94 C98 1.389 . S
C94 H116 0.930 . S
C95 C93 1.352 . S
C95 C97 1.374 . S
C95 H117 0.931 . S
C96 C97 1.359 . S
C96 C98 1.364 . S
C97 C95 1.374 . S
C97 C96 1.359 . S
C97 H118 0.931 . S
C98 C94 1.389 . S
C98 C96 1.364 . S
C98 H119 0.931 . S
C99 O110 1.256 . S
C99 O111 1.257 . S
O100 Gd80 2.377 . S
O100 C82 1.240 . S
O101 Gd81 2.395 . S
O101 C82 1.240 . S
O102 Gd80 2.448 . S
O102 C83 1.249 . S
O103 Gd80 2.506 . S
O103 C83 1.252 . S
O104 Gd80 2.435 . S
O104 C90 1.256 . S
O105 Gd80 2.717 . S
O105 Gd81 2.327 . S
O105 C90 1.257 . S
O106 Gd81 2.377 . S
O106 C91 1.240 . S
O107 Gd80 2.395 . S
O107 C91 1.240 . S
O108 Gd81 2.448 . S
O108 C92 1.249 . S
O109 Gd81 2.506 . S
O109 C92 1.252 . S
O110 Gd81 2.435 . S
O110 C99 1.256 . S
O111 Gd80 2.327 . S
O111 Gd81 2.717 . S
O111 C99 1.257 . S
H112 C85 0.930 . S
H113 C86 0.931 . S
H114 C88 0.931 . S
H115 C89 0.931 . S
H116 C94 0.930 . S
H117 C95 0.931 . S
H118 C97 0.931 . S
H119 C98 0.931 . S
H120 C121 0.949 . S
C121 H120 0.949 . S
C121 C122 1.395 . S
C121 C123 1.391 . S
C122 C121 1.395 . S
C122 C125 1.390 . S
C123 C121 1.391 . S
C123 C127 1.387 . S
C123 C128 1.491 . S
H124 C125 0.950 . S
C125 C122 1.390 . S
C125 H124 0.950 . S
C125 C126 1.378 . S
C126 C125 1.378 . S
C126 C127 1.409 . S
C127 C123 1.387 . S
C127 C126 1.409 . S
C127 H129 0.951 . S
C128 C123 1.491 . S
C128 C130 1.382 . S
C128 C132 1.404 . S
H129 C127 0.951 . S
C130 C128 1.382 . S
C130 C131 1.390 . S
C130 H135 0.949 . S
C131 C130 1.390 . S
C131 C136 1.399 . S
C132 C128 1.404 . S
C132 H133 0.950 . S
C132 C134 1.375 . S
H133 C132 0.950 . S
C134 C132 1.375 . S
C134 C136 1.382 . S
C134 H138 0.950 . S
H135 C130 0.949 . S
C136 C131 1.399 . S
C136 C134 1.382 . S
C136 H137 0.952 . S
H137 C136 0.952 . S
H138 C134 0.950 . S
H139 C140 0.949 . S
C140 H139 0.949 . S
C140 C141 1.395 . S
C140 C142 1.391 . S
C141 C140 1.395 . S
C141 C144 1.390 . S
C142 C140 1.391 . S
C142 C146 1.387 . S
C142 C147 1.491 . S
H143 C144 0.950 . S
C144 C141 1.390 . S
C144 H143 0.950 . S
C144 C145 1.378 . S
C145 C144 1.378 . S
C145 C146 1.409 . S
C146 C142 1.387 . S
C146 C145 1.409 . S
C146 H148 0.951 . S
C147 C142 1.491 . S
C147 C149 1.382 . S
C147 C151 1.404 . S
H148 C146 0.951 . S
C149 C147 1.382 . S
C149 C150 1.390 . S
C149 H154 0.949 . S
C150 C149 1.390 . S
C150 C155 1.399 . S
C151 C147 1.404 . S
C151 H152 0.950 . S
C151 C153 1.375 . S
H152 C151 0.950 . S
C153 C151 1.375 . S
C153 C155 1.382 . S
C153 H157 0.950 . S
H154 C149 0.949 . S
C155 C150 1.399 . S
C155 C153 1.382 . S
C155 H156 0.952 . S
H156 C155 0.952 . S
H157 C153 0.950 . S
H158 C159 0.949 . S
C159 H158 0.949 . S
C159 C160 1.395 . S
C159 C161 1.391 . S
C160 C159 1.395 . S
C160 C163 1.390 . S
C161 C159 1.391 . S
C161 C165 1.387 . S
C161 C166 1.491 . S
H162 C163 0.950 . S
C163 C160 1.390 . S
C163 H162 0.950 . S
C163 C164 1.378 . S
C164 C163 1.378 . S
C164 C165 1.409 . S
C165 C161 1.387 . S
C165 C164 1.409 . S
C165 H167 0.951 . S
C166 C161 1.491 . S
C166 C168 1.382 . S
C166 C170 1.404 . S
H167 C165 0.951 . S
C168 C166 1.382 . S
C168 C169 1.390 . S
C168 H173 0.949 . S
C169 C168 1.390 . S
C169 C174 1.399 . S
C170 C166 1.404 . S
C170 H171 0.950 . S
C170 C172 1.375 . S
H171 C170 0.950 . S
C172 C170 1.375 . S
C172 C174 1.382 . S
C172 H176 0.950 . S
H173 C168 0.949 . S
C174 C169 1.399 . S
C174 C172 1.382 . S
C174 H175 0.952 . S
H175 C174 0.952 . S
H176 C172 0.950 . S
H177 C178 0.949 . S
C178 H177 0.949 . S
C178 C179 1.395 1_655 S
C178 C180 1.391 1_655 S
C179 C178 1.395 1_455 S
C179 C182 1.390 . S
C180 C178 1.391 1_455 S
C180 C184 1.387 . S
C180 C185 1.491 1_455 S
H181 C182 0.950 . S
C182 C179 1.390 . S
C182 H181 0.950 . S
C182 C183 1.378 . S
C183 C182 1.378 . S
C183 C184 1.409 . S
C184 C180 1.387 . S
C184 C183 1.409 . S
C184 H186 0.951 . S
C185 C180 1.491 1_655 S
C185 C187 1.382 . S
C185 C189 1.404 . S
H186 C184 0.951 . S
C187 C185 1.382 . S
C187 C188 1.390 . S
C187 H192 0.949 . S
C188 C187 1.390 . S
C188 C193 1.399 . S
C189 C185 1.404 . S
C189 H190 0.950 . S
C189 C191 1.375 . S
H190 C189 0.950 . S
C191 C189 1.375 . S
C191 C193 1.382 . S
C191 H195 0.950 . S
H192 C187 0.949 . S
C193 C188 1.399 . S
C193 C191 1.382 . S
C193 H194 0.952 . S
H194 C193 0.952 . S
H195 C191 0.950 . S
H196 C197 0.949 . S
C197 H196 0.949 . S
C197 C198 1.395 . S
C197 C199 1.391 . S
C198 C197 1.395 . S
C198 C201 1.390 . S
C199 C197 1.391 . S
C199 C203 1.387 . S
C199 C204 1.491 . S
H200 C201 0.950 . S
C201 C198 1.390 . S
C201 H200 0.950 . S
C201 C202 1.378 . S
C202 C201 1.378 . S
C202 C203 1.409 . S
C203 C199 1.387 . S
C203 C202 1.409 . S
C203 H205 0.951 . S
C204 C199 1.491 . S
C204 C206 1.382 1_545 S
C204 C208 1.404 . S
H205 C203 0.951 . S
C206 C204 1.382 1_565 S
C206 C207 1.390 . S
C206 H211 0.948 . S
C207 C206 1.390 . S
C207 C212 1.399 . S
C208 C204 1.404 . S
C208 H209 0.950 . S
C208 C210 1.375 1_545 S
H209 C208 0.950 . S
C210 C208 1.375 1_565 S
C210 C212 1.382 . S
C210 H214 0.950 . S
H211 C206 0.948 . S
C212 C207 1.399 . S
C212 C210 1.382 . S
C212 H213 0.952 . S
H213 C212 0.952 . S
H214 C210 0.950 . S
H215 C216 0.949 . S
C216 H215 0.949 . S
C216 C217 1.395 . S
C216 C218 1.391 . S
C217 C216 1.395 . S
C217 C220 1.390 . S
C218 C216 1.391 . S
C218 C222 1.387 . S
C218 C223 1.491 . S
H219 C220 0.950 . S
C220 C217 1.390 . S
C220 H219 0.950 . S
C220 C221 1.378 . S
C221 C220 1.378 . S
C221 C222 1.409 . S
C222 C218 1.387 . S
C222 C221 1.409 . S
C222 H224 0.951 . S
C223 C218 1.491 . S
C223 C225 1.382 . S
C223 C227 1.404 . S
H224 C222 0.951 . S
C225 C223 1.382 . S
C225 C226 1.390 . S
C225 H230 0.949 . S
C226 C225 1.390 . S
C226 C231 1.399 . S
C227 C223 1.404 . S
C227 H228 0.950 . S
C227 C229 1.375 . S
H228 C227 0.950 . S
C229 C227 1.375 . S
C229 C231 1.382 . S
C229 H233 0.950 . S
H230 C225 0.949 . S
C231 C226 1.399 . S
C231 C229 1.382 . S
C231 H232 0.952 . S
H232 C231 0.952 . S
H233 C229 0.950 . S
C234 C235 1.349 . S
C234 C236 1.327 . S
C234 H259 0.950 . S
C235 C234 1.349 . S
C235 C251 1.349 . S
C236 C234 1.327 . S
C236 C255 1.429 . S
C236 H260 0.950 . S
C237 C254 1.574 . S
C237 C256 1.368 . S
C237 H261 0.949 . S
H238 C242 0.949 . S
C239 C240 1.349 . S
C239 C241 1.327 . S
C239 H262 0.950 . S
C240 C239 1.349 . S
C240 C252 1.349 . S
C241 C239 1.327 . S
C241 C257 1.429 . S
C241 H263 0.950 . S
C242 H238 0.949 . S
C242 C250 1.574 . S
C242 C258 1.368 . S
H243 C251 0.950 . S
H244 C249 0.950 . S
H245 C250 0.949 . S
H246 C252 0.950 . S
H247 C253 0.950 . S
H248 C254 0.949 . S
C249 H244 0.950 . S
C249 C251 1.327 . S
C249 C255 1.429 . S
C250 C242 1.574 . S
C250 H245 0.949 . S
C250 C256 1.368 . S
C251 C235 1.349 . S
C251 H243 0.950 . S
C251 C249 1.327 . S
C252 C240 1.349 . S
C252 H246 0.950 . S
C252 C253 1.327 . S
C253 H247 0.950 . S
C253 C252 1.327 . S
C253 C257 1.429 . S
C254 C237 1.574 . S
C254 H248 0.949 . S
C254 C258 1.368 . S
C255 C236 1.429 . S
C255 C249 1.429 . S
C255 C256 1.523 . S
C256 C237 1.368 . S
C256 C250 1.368 . S
C256 C255 1.523 . S
C257 C241 1.429 . S
C257 C253 1.429 . S
C257 C258 1.523 . S
C258 C242 1.368 . S
C258 C254 1.368 . S
C258 C257 1.523 . S
H259 C234 0.950 . S
H260 C236 0.950 . S
H261 C237 0.949 . S
H262 C239 0.950 . S
H263 C241 0.950 . S
C264 C265 1.349 . S
C264 C266 1.327 . S
C264 H289 0.950 . S
C265 C264 1.349 . S
C265 C281 1.349 . S
C266 C264 1.327 . S
C266 C285 1.429 . S
C266 H290 0.950 . S
C267 C284 1.574 . S
C267 C286 1.368 . S
C267 H291 0.949 . S
H268 C272 0.949 . S
C269 C270 1.349 . S
C269 C271 1.327 . S
C269 H292 0.950 . S
C270 C269 1.349 . S
C270 C282 1.349 . S
C271 C269 1.327 . S
C271 C287 1.429 . S
C271 H293 0.950 . S
C272 H268 0.949 . S
C272 C280 1.574 . S
C272 C288 1.368 . S
H273 C281 0.950 . S
H274 C279 0.950 . S
H275 C280 0.949 . S
H276 C282 0.950 . S
H277 C283 0.950 . S
H278 C284 0.949 . S
C279 H274 0.950 . S
C279 C281 1.327 . S
C279 C285 1.429 . S
C280 C272 1.574 . S
C280 H275 0.949 . S
C280 C286 1.368 . S
C281 C265 1.349 . S
C281 H273 0.950 . S
C281 C279 1.327 . S
C282 C270 1.349 . S
C282 H276 0.950 . S
C282 C283 1.327 . S
C283 H277 0.950 . S
C283 C282 1.327 . S
C283 C287 1.429 . S
C284 C267 1.574 . S
C284 H278 0.949 . S
C284 C288 1.368 . S
C285 C266 1.429 . S
C285 C279 1.429 . S
C285 C286 1.523 . S
C286 C267 1.368 . S
C286 C280 1.368 . S
C286 C285 1.523 . S
C287 C271 1.429 . S
C287 C283 1.429 . S
C287 C288 1.523 . S
C288 C272 1.368 . S
C288 C284 1.368 . S
C288 C287 1.523 . S
H289 C264 0.950 . S
H290 C266 0.950 . S
H291 C267 0.949 . S
H292 C269 0.950 . S
H293 C271 0.950 . S
C294 C295 1.349 . S
C294 C296 1.327 . S
C294 H319 0.950 . S
C295 C294 1.349 . S
C295 C311 1.349 . S
C296 C294 1.327 . S
C296 C315 1.429 . S
C296 H320 0.950 . S
C297 C314 1.574 . S
C297 C316 1.368 . S
C297 H321 0.949 . S
H298 C302 0.949 . S
C299 C300 1.349 . S
C299 C301 1.327 . S
C299 H322 0.950 . S
C300 C299 1.349 . S
C300 C312 1.349 . S
C301 C299 1.327 . S
C301 C317 1.429 . S
C301 H323 0.950 . S
C302 H298 0.949 . S
C302 C310 1.574 . S
C302 C318 1.368 . S
H303 C311 0.950 . S
H304 C309 0.950 . S
H305 C310 0.949 . S
H306 C312 0.950 . S
H307 C313 0.950 . S
H308 C314 0.949 . S
C309 H304 0.950 . S
C309 C311 1.327 . S
C309 C315 1.429 . S
C310 C302 1.574 . S
C310 H305 0.949 . S
C310 C316 1.368 . S
C311 C295 1.349 . S
C311 H303 0.950 . S
C311 C309 1.327 . S
C312 C300 1.349 . S
C312 H306 0.950 . S
C312 C313 1.327 . S
C313 H307 0.950 . S
C313 C312 1.327 . S
C313 C317 1.429 . S
C314 C297 1.574 . S
C314 H308 0.949 . S
C314 C318 1.368 . S
C315 C296 1.429 . S
C315 C309 1.429 . S
C315 C316 1.523 . S
C316 C297 1.368 . S
C316 C310 1.368 . S
C316 C315 1.523 . S
C317 C301 1.429 . S
C317 C313 1.429 . S
C317 C318 1.523 . S
C318 C302 1.368 . S
C318 C314 1.368 . S
C318 C317 1.523 . S
H319 C294 0.950 . S
H320 C296 0.950 . S
H321 C297 0.949 . S
H322 C299 0.950 . S
H323 C301 0.950 . S
C324 C325 1.349 . S
C324 C326 1.327 . S
C324 H349 0.950 . S
C325 C324 1.349 . S
C325 C341 1.349 . S
C326 C324 1.327 . S
C326 C345 1.429 . S
C326 H350 0.950 . S
C327 C344 1.574 . S
C327 C346 1.368 . S
C327 H351 0.949 . S
H328 C332 0.949 . S
C329 C330 1.349 . S
C329 C331 1.327 . S
C329 H352 0.950 . S
C330 C329 1.349 . S
C330 C342 1.349 . S
C331 C329 1.327 . S
C331 C347 1.429 . S
C331 H353 0.950 . S
C332 H328 0.949 . S
C332 C340 1.574 . S
C332 C348 1.368 . S
H333 C341 0.950 . S
H334 C339 0.950 . S
H335 C340 0.949 . S
H336 C342 0.950 . S
H337 C343 0.950 . S
H338 C344 0.949 . S
C339 H334 0.950 . S
C339 C341 1.327 . S
C339 C345 1.429 . S
C340 C332 1.574 . S
C340 H335 0.949 . S
C340 C346 1.368 . S
C341 C325 1.349 . S
C341 H333 0.950 . S
C341 C339 1.327 . S
C342 C330 1.349 . S
C342 H336 0.950 . S
C342 C343 1.327 . S
C343 H337 0.950 . S
C343 C342 1.327 . S
C343 C347 1.429 . S
C344 C327 1.574 . S
C344 H338 0.949 . S
C344 C348 1.368 . S
C345 C326 1.429 . S
C345 C339 1.429 . S
C345 C346 1.523 . S
C346 C327 1.368 . S
C346 C340 1.368 . S
C346 C345 1.523 . S
C347 C331 1.429 . S
C347 C343 1.429 . S
C347 C348 1.523 . S
C348 C332 1.368 . S
C348 C344 1.368 . S
C348 C347 1.523 . S
H349 C324 0.950 . S
H350 C326 0.950 . S
H351 C327 0.949 . S
H352 C329 0.950 . S
H353 C331 0.950 . S
C354 C355 1.349 . S
C354 C356 1.327 . S
C354 H379 0.950 . S
C355 C354 1.349 . S
C355 C371 1.349 . S
C356 C354 1.327 . S
C356 C375 1.429 . S
C356 H380 0.950 . S
C357 C374 1.574 . S
C357 C376 1.368 . S
C357 H381 0.949 . S
H358 C362 0.949 . S
C359 C360 1.349 . S
C359 C361 1.327 . S
C359 H382 0.950 . S
C360 C359 1.349 . S
C360 C372 1.349 . S
C361 C359 1.327 . S
C361 C377 1.429 . S
C361 H383 0.950 . S
C362 H358 0.949 . S
C362 C370 1.574 . S
C362 C378 1.368 . S
H363 C371 0.950 . S
H364 C369 0.950 . S
H365 C370 0.949 . S
H366 C372 0.950 . S
H367 C373 0.950 . S
H368 C374 0.949 . S
C369 H364 0.950 . S
C369 C371 1.327 . S
C369 C375 1.429 . S
C370 C362 1.574 . S
C370 H365 0.949 . S
C370 C376 1.368 . S
C371 C355 1.349 . S
C371 H363 0.950 . S
C371 C369 1.327 . S
C372 C360 1.349 . S
C372 H366 0.950 . S
C372 C373 1.327 . S
C373 H367 0.950 . S
C373 C372 1.327 . S
C373 C377 1.429 . S
C374 C357 1.574 . S
C374 H368 0.949 . S
C374 C378 1.368 . S
C375 C356 1.429 . S
C375 C369 1.429 . S
C375 C376 1.523 . S
C376 C357 1.368 . S
C376 C370 1.368 . S
C376 C375 1.523 . S
C377 C361 1.429 . S
C377 C373 1.429 . S
C377 C378 1.523 . S
C378 C362 1.368 . S
C378 C374 1.368 . S
C378 C377 1.523 . S
H379 C354 0.950 . S
H380 C356 0.950 . S
H381 C357 0.949 . S
H382 C359 0.950 . S
H383 C361 0.950 . S
C384 C385 1.349 . S
C384 C386 1.327 . S
C384 H409 0.950 . S
C385 C384 1.349 . S
C385 C401 1.349 . S
C386 C384 1.327 . S
C386 C405 1.429 . S
C386 H410 0.950 . S
C387 C404 1.574 . S
C387 C406 1.368 . S
C387 H411 0.949 . S
H388 C392 0.949 . S
C389 C390 1.349 . S
C389 C391 1.327 . S
C389 H412 0.950 . S
C390 C389 1.349 . S
C390 C402 1.349 . S
C391 C389 1.327 . S
C391 C407 1.429 . S
C391 H413 0.950 . S
C392 H388 0.949 . S
C392 C400 1.574 . S
C392 C408 1.368 . S
H393 C401 0.950 . S
H394 C399 0.950 . S
H395 C400 0.949 . S
H396 C402 0.950 . S
H397 C403 0.950 . S
H398 C404 0.949 . S
C399 H394 0.950 . S
C399 C401 1.327 . S
C399 C405 1.429 . S
C400 C392 1.574 . S
C400 H395 0.949 . S
C400 C406 1.368 . S
C401 C385 1.349 . S
C401 H393 0.950 . S
C401 C399 1.327 . S
C402 C390 1.349 . S
C402 H396 0.950 . S
C402 C403 1.327 . S
C403 H397 0.950 . S
C403 C402 1.327 . S
C403 C407 1.429 . S
C404 C387 1.574 . S
C404 H398 0.949 . S
C404 C408 1.368 . S
C405 C386 1.429 . S
C405 C399 1.429 . S
C405 C406 1.523 . S
C406 C387 1.368 . S
C406 C400 1.368 . S
C406 C405 1.523 . S
C407 C391 1.429 . S
C407 C403 1.429 . S
C407 C408 1.523 . S
C408 C392 1.368 . S
C408 C404 1.368 . S
C408 C407 1.523 . S
H409 C384 0.950 . S
H410 C386 0.950 . S
H411 C387 0.949 . S
H412 C389 0.950 . S
H413 C391 0.950 . S
C414 C415 1.349 . S
C414 C416 1.327 . S
C414 H439 0.950 . S
C415 C414 1.349 . S
C415 C431 1.349 . S
C416 C414 1.327 . S
C416 C435 1.429 . S
C416 H440 0.950 . S
C417 C434 1.574 . S
C417 C436 1.368 . S
C417 H441 0.949 . S
H418 C422 0.949 . S
C419 C420 1.349 . S
C419 C421 1.327 . S
C419 H442 0.950 . S
C420 C419 1.349 . S
C420 C432 1.349 . S
C421 C419 1.327 . S
C421 C437 1.429 . S
C421 H443 0.950 . S
C422 H418 0.949 . S
C422 C430 1.574 . S
C422 C438 1.368 . S
H423 C431 0.950 . S
H424 C429 0.950 . S
H425 C430 0.949 . S
H426 C432 0.950 . S
H427 C433 0.950 . S
H428 C434 0.949 . S
C429 H424 0.950 . S
C429 C431 1.327 . S
C429 C435 1.429 . S
C430 C422 1.574 . S
C430 H425 0.949 . S
C430 C436 1.368 . S
C431 C415 1.349 . S
C431 H423 0.950 . S
C431 C429 1.327 . S
C432 C420 1.349 . S
C432 H426 0.950 . S
C432 C433 1.327 . S
C433 H427 0.950 . S
C433 C432 1.327 . S
C433 C437 1.429 . S
C434 C417 1.574 . S
C434 H428 0.949 . S
C434 C438 1.368 . S
C435 C416 1.429 . S
C435 C429 1.429 . S
C435 C436 1.523 . S
C436 C417 1.368 . S
C436 C430 1.368 . S
C436 C435 1.523 . S
C437 C421 1.429 . S
C437 C433 1.429 . S
C437 C438 1.523 . S
C438 C422 1.368 . S
C438 C434 1.368 . S
C438 C437 1.523 . S
H439 C414 0.950 . S
H440 C416 0.950 . S
H441 C417 0.949 . S
H442 C419 0.950 . S
H443 C421 0.950 . S
C444 C445 1.349 . S
C444 C446 1.327 . S
C444 H469 0.950 . S
C445 C444 1.349 . S
C445 C461 1.349 . S
C446 C444 1.327 . S
C446 C465 1.429 . S
C446 H470 0.950 . S
C447 C464 1.574 . S
C447 C466 1.368 . S
C447 H471 0.949 . S
H448 C452 0.949 . S
C449 C450 1.349 . S
C449 C451 1.327 . S
C449 H472 0.950 . S
C450 C449 1.349 . S
C450 C462 1.349 . S
C451 C449 1.327 . S
C451 C467 1.429 . S
C451 H473 0.950 . S
C452 H448 0.949 . S
C452 C460 1.574 . S
C452 C468 1.368 . S
H453 C461 0.950 . S
H454 C459 0.950 . S
H455 C460 0.949 . S
H456 C462 0.950 . S
H457 C463 0.950 . S
H458 C464 0.949 . S
C459 H454 0.950 . S
C459 C461 1.327 . S
C459 C465 1.429 . S
C460 C452 1.574 . S
C460 H455 0.949 . S
C460 C466 1.368 . S
C461 C445 1.349 . S
C461 H453 0.950 . S
C461 C459 1.327 . S
C462 C450 1.349 . S
C462 H456 0.950 . S
C462 C463 1.327 . S
C463 H457 0.950 . S
C463 C462 1.327 . S
C463 C467 1.429 . S
C464 C447 1.574 . S
C464 H458 0.949 . S
C464 C468 1.368 . S
C465 C446 1.429 . S
C465 C459 1.429 . S
C465 C466 1.523 . S
C466 C447 1.368 . S
C466 C460 1.368 . S
C466 C465 1.523 . S
C467 C451 1.429 . S
C467 C463 1.429 . S
C467 C468 1.523 . S
C468 C452 1.368 . S
C468 C464 1.368 . S
C468 C467 1.523 . S
H469 C444 0.950 . S
H470 C446 0.950 . S
H471 C447 0.949 . S
H472 C449 0.950 . S
H473 C451 0.950 . S
C474 C475 1.349 . S
C474 C476 1.327 . S
C474 H499 0.950 . S
C475 C474 1.349 . S
C475 C491 1.349 . S
C476 C474 1.327 . S
C476 C495 1.429 . S
C476 H500 0.950 . S
C477 C494 1.574 . S
C477 C496 1.368 . S
C477 H501 0.949 . S
H478 C482 0.949 . S
C479 C480 1.349 . S
C479 C481 1.327 . S
C479 H502 0.950 . S
C480 C479 1.349 . S
C480 C492 1.349 . S
C481 C479 1.327 . S
C481 C497 1.429 . S
C481 H503 0.950 . S
C482 H478 0.949 . S
C482 C490 1.574 . S
C482 C498 1.368 . S
H483 C491 0.950 . S
H484 C489 0.950 . S
H485 C490 0.949 . S
H486 C492 0.950 . S
H487 C493 0.950 . S
H488 C494 0.949 . S
C489 H484 0.950 . S
C489 C491 1.327 . S
C489 C495 1.429 . S
C490 C482 1.574 . S
C490 H485 0.949 . S
C490 C496 1.368 . S
C491 C475 1.349 . S
C491 H483 0.950 . S
C491 C489 1.327 . S
C492 C480 1.349 . S
C492 H486 0.950 . S
C492 C493 1.327 . S
C493 H487 0.950 . S
C493 C492 1.327 . S
C493 C497 1.429 . S
C494 C477 1.574 . S
C494 H488 0.949 . S
C494 C498 1.368 . S
C495 C476 1.429 . S
C495 C489 1.429 . S
C495 C496 1.523 . S
C496 C477 1.368 . S
C496 C490 1.368 . S
C496 C495 1.523 . S
C497 C481 1.429 . S
C497 C493 1.429 . S
C497 C498 1.523 . S
C498 C482 1.368 . S
C498 C494 1.368 . S
C498 C497 1.523 . S
H499 C474 0.950 . S
H500 C476 0.950 . S
H501 C477 0.949 . S
H502 C479 0.950 . S
H503 C481 0.950 . S
C504 C505 1.349 . S
C504 C506 1.327 . S
C504 H529 0.950 . S
C505 C504 1.349 . S
C505 C521 1.349 . S
C506 C504 1.327 . S
C506 C525 1.429 . S
C506 H530 0.950 . S
C507 C524 1.574 . S
C507 C526 1.368 . S
C507 H531 0.949 . S
H508 C512 0.949 . S
C509 C510 1.349 . S
C509 C511 1.327 . S
C509 H532 0.950 . S
C510 C509 1.349 . S
C510 C522 1.349 . S
C511 C509 1.327 . S
C511 C527 1.429 . S
C511 H533 0.950 . S
C512 H508 0.949 . S
C512 C520 1.574 . S
C512 C528 1.368 . S
H513 C521 0.950 . S
H514 C519 0.950 . S
H515 C520 0.949 . S
H516 C522 0.950 . S
H517 C523 0.950 . S
H518 C524 0.949 . S
C519 H514 0.950 . S
C519 C521 1.327 . S
C519 C525 1.429 . S
C520 C512 1.574 . S
C520 H515 0.949 . S
C520 C526 1.368 . S
C521 C505 1.349 . S
C521 H513 0.950 . S
C521 C519 1.327 . S
C522 C510 1.349 . S
C522 H516 0.950 . S
C522 C523 1.327 . S
C523 H517 0.950 . S
C523 C522 1.327 . S
C523 C527 1.429 . S
C524 C507 1.574 . S
C524 H518 0.949 . S
C524 C528 1.368 . S
C525 C506 1.429 . S
C525 C519 1.429 . S
C525 C526 1.523 . S
C526 C507 1.368 . S
C526 C520 1.368 . S
C526 C525 1.523 . S
C527 C511 1.429 . S
C527 C523 1.429 . S
C527 C528 1.523 . S
C528 C512 1.368 . S
C528 C524 1.368 . S
C528 C527 1.523 . S
H529 C504 0.950 . S
H530 C506 0.950 . S
H531 C507 0.949 . S
H532 C509 0.950 . S
H533 C511 0.950 . S
C534 C535 1.349 . S
C534 C536 1.327 . S
C534 H559 0.950 . S
C535 C534 1.349 . S
C535 C551 1.349 . S
C536 C534 1.327 . S
C536 C555 1.429 . S
C536 H560 0.950 . S
C537 C554 1.574 . S
C537 C556 1.368 . S
C537 H561 0.949 . S
H538 C542 0.949 . S
C539 C540 1.349 . S
C539 C541 1.327 . S
C539 H562 0.950 . S
C540 C539 1.349 . S
C540 C552 1.349 . S
C541 C539 1.327 . S
C541 C557 1.429 . S
C541 H563 0.950 . S
C542 H538 0.949 . S
C542 C550 1.574 . S
C542 C558 1.368 . S
H543 C551 0.950 . S
H544 C549 0.950 . S
H545 C550 0.949 . S
H546 C552 0.950 . S
H547 C553 0.950 . S
H548 C554 0.949 . S
C549 H544 0.950 . S
C549 C551 1.327 . S
C549 C555 1.429 . S
C550 C542 1.574 . S
C550 H545 0.949 . S
C550 C556 1.368 . S
C551 C535 1.349 . S
C551 H543 0.950 . S
C551 C549 1.327 . S
C552 C540 1.349 . S
C552 H546 0.950 . S
C552 C553 1.327 . S
C553 H547 0.950 . S
C553 C552 1.327 . S
C553 C557 1.429 . S
C554 C537 1.574 . S
C554 H548 0.949 . S
C554 C558 1.368 . S
C555 C536 1.429 . S
C555 C549 1.429 . S
C555 C556 1.523 . S
C556 C537 1.368 . S
C556 C550 1.368 . S
C556 C555 1.523 . S
C557 C541 1.429 . S
C557 C553 1.429 . S
C557 C558 1.523 . S
C558 C542 1.368 . S
C558 C554 1.368 . S
C558 C557 1.523 . S
H559 C534 0.950 . S
H560 C536 0.950 . S
H561 C537 0.949 . S
H562 C539 0.950 . S
H563 C541 0.950 . S
C564 C565 1.349 . S
C564 C566 1.327 . S
C564 H589 0.950 . S
C565 C564 1.349 . S
C565 C581 1.349 . S
C566 C564 1.327 . S
C566 C585 1.429 . S
C566 H590 0.950 . S
C567 C584 1.574 . S
C567 C586 1.368 . S
C567 H591 0.949 . S
H568 C572 0.949 . S
C569 C570 1.349 . S
C569 C571 1.327 . S
C569 H592 0.950 . S
C570 C569 1.349 . S
C570 C582 1.349 . S
C571 C569 1.327 . S
C571 C587 1.429 . S
C571 H593 0.950 . S
C572 H568 0.949 . S
C572 C580 1.574 . S
C572 C588 1.368 . S
H573 C581 0.950 . S
H574 C579 0.950 . S
H575 C580 0.949 . S
H576 C582 0.950 . S
H577 C583 0.950 . S
H578 C584 0.949 . S
C579 H574 0.950 . S
C579 C581 1.327 . S
C579 C585 1.429 . S
C580 C572 1.574 . S
C580 H575 0.949 . S
C580 C586 1.368 . S
C581 C565 1.349 . S
C581 H573 0.950 . S
C581 C579 1.327 . S
C582 C570 1.349 . S
C582 H576 0.950 . S
C582 C583 1.327 . S
C583 H577 0.950 . S
C583 C582 1.327 . S
C583 C587 1.429 . S
C584 C567 1.574 . S
C584 H578 0.949 . S
C584 C588 1.368 . S
C585 C566 1.429 . S
C585 C579 1.429 . S
C585 C586 1.523 . S
C586 C567 1.368 . S
C586 C580 1.368 . S
C586 C585 1.523 . S
C587 C571 1.429 . S
C587 C583 1.429 . S
C587 C588 1.523 . S
C588 C572 1.368 . S
C588 C584 1.368 . S
C588 C587 1.523 . S
H589 C564 0.950 . S
H590 C566 0.950 . S
H591 C567 0.949 . S
H592 C569 0.950 . S
H593 C571 0.950 . S
C594 C595 1.349 . S
C594 C596 1.327 . S
C594 H619 0.950 1_455 S
C595 C594 1.349 . S
C595 C611 1.349 . S
C596 C594 1.327 . S
C596 C615 1.429 . S
C596 H620 0.950 1_455 S
C597 C614 1.574 . S
C597 C616 1.368 . S
C597 H621 0.949 . S
H598 C602 0.949 . S
C599 C600 1.349 . S
C599 C601 1.327 . S
C599 H622 0.950 . S
C600 C599 1.349 . S
C600 C612 1.349 . S
C601 C599 1.327 . S
C601 C617 1.429 . S
C601 H623 0.950 . S
C602 H598 0.949 . S
C602 C610 1.574 1_556 S
C602 C618 1.368 . S
H603 C611 0.950 . S
H604 C609 0.950 . S
H605 C610 0.944 1_655 S
H606 C612 0.950 . S
H607 C613 0.950 . S
H608 C614 0.949 . S
C609 H604 0.950 . S
C609 C611 1.327 . S
C609 C615 1.429 . S
C610 C602 1.574 1_554 S
C610 H605 0.944 1_455 S
C610 C616 1.368 . S
C611 C595 1.349 . S
C611 H603 0.950 . S
C611 C609 1.327 . S
C612 C600 1.349 . S
C612 H606 0.950 . S
C612 C613 1.327 . S
C613 H607 0.950 . S
C613 C612 1.327 . S
C613 C617 1.429 . S
C614 C597 1.574 . S
C614 H608 0.949 . S
C614 C618 1.368 1_554 S
C615 C596 1.429 . S
C615 C609 1.429 . S
C615 C616 1.523 . S
C616 C597 1.368 . S
C616 C610 1.368 . S
C616 C615 1.523 . S
C617 C601 1.429 . S
C617 C613 1.429 . S
C617 C618 1.523 . S
C618 C602 1.368 . S
C618 C614 1.368 1_556 S
C618 C617 1.523 . S
H619 C594 0.950 1_655 S
H620 C596 0.950 1_655 S
H621 C597 0.949 . S
H622 C599 0.950 . S
H623 C601 0.950 . S
C624 C625 1.349 . S
C624 C626 1.327 . S
C624 H649 0.950 . S
C625 C624 1.349 . S
C625 C641 1.349 . S
C626 C624 1.327 . S
C626 C645 1.429 . S
C626 H650 0.950 . S
C627 C644 1.574 . S
C627 C646 1.368 . S
C627 H651 0.949 . S
H628 C632 0.949 . S
C629 C630 1.349 . S
C629 C631 1.327 . S
C629 H652 0.950 . S
C630 C629 1.349 . S
C630 C642 1.349 . S
C631 C629 1.327 . S
C631 C647 1.429 . S
C631 H653 0.950 . S
C632 H628 0.949 . S
C632 C640 1.574 . S
C632 C648 1.368 . S
H633 C641 0.950 . S
H634 C639 0.950 . S
H635 C640 0.949 . S
H636 C642 0.950 . S
H637 C643 0.950 . S
H638 C644 0.949 . S
C639 H634 0.950 . S
C639 C641 1.327 . S
C639 C645 1.429 . S
C640 C632 1.574 . S
C640 H635 0.949 . S
C640 C646 1.368 . S
C641 C625 1.349 . S
C641 H633 0.950 . S
C641 C639 1.327 . S
C642 C630 1.349 . S
C642 H636 0.950 . S
C642 C643 1.327 . S
C643 H637 0.950 . S
C643 C642 1.327 . S
C643 C647 1.429 . S
C644 C627 1.574 . S
C644 H638 0.949 . S
C644 C648 1.368 . S
C645 C626 1.429 . S
C645 C639 1.429 . S
C645 C646 1.523 . S
C646 C627 1.368 . S
C646 C640 1.368 . S
C646 C645 1.523 . S
C647 C631 1.429 . S
C647 C643 1.429 . S
C647 C648 1.523 . S
C648 C632 1.368 . S
C648 C644 1.368 . S
C648 C647 1.523 . S
H649 C624 0.950 . S
H650 C626 0.950 . S
H651 C627 0.949 . S
H652 C629 0.950 . S
H653 C631 0.950 . S
C654 C655 1.349 . S
C654 C656 1.327 . S
C654 H679 0.950 . S
C655 C654 1.349 . S
C655 C671 1.349 . S
C656 C654 1.327 . S
C656 C675 1.429 . S
C656 H680 0.950 . S
C657 C674 1.574 . S
C657 C676 1.368 . S
C657 H681 0.949 . S
H658 C662 0.949 . S
C659 C660 1.349 . S
C659 C661 1.327 . S
C659 H682 0.950 . S
C660 C659 1.349 . S
C660 C672 1.349 . S
C661 C659 1.327 . S
C661 C677 1.429 . S
C661 H683 0.950 . S
C662 H658 0.949 . S
C662 C670 1.574 . S
C662 C678 1.368 . S
H663 C671 0.950 . S
H664 C669 0.950 . S
H665 C670 0.949 . S
H666 C672 0.950 . S
H667 C673 0.950 . S
H668 C674 0.949 . S
C669 H664 0.950 . S
C669 C671 1.327 . S
C669 C675 1.429 . S
C670 C662 1.574 . S
C670 H665 0.949 . S
C670 C676 1.368 . S
C671 C655 1.349 . S
C671 H663 0.950 . S
C671 C669 1.327 . S
C672 C660 1.349 . S
C672 H666 0.950 . S
C672 C673 1.327 . S
C673 H667 0.950 . S
C673 C672 1.327 . S
C673 C677 1.429 . S
C674 C657 1.574 . S
C674 H668 0.949 . S
C674 C678 1.368 . S
C675 C656 1.429 . S
C675 C669 1.429 . S
C675 C676 1.523 . S
C676 C657 1.368 . S
C676 C670 1.368 . S
C676 C675 1.523 . S
C677 C661 1.429 . S
C677 C673 1.429 . S
C677 C678 1.523 . S
C678 C662 1.368 . S
C678 C674 1.368 . S
C678 C677 1.523 . S
H679 C654 0.950 . S
H680 C656 0.950 . S
H681 C657 0.949 . S
H682 C659 0.950 . S
H683 C661 0.950 . S
C684 C685 1.349 . S
C684 C686 1.327 . S
C684 H709 0.952 . S
C685 C684 1.349 . S
C685 C701 1.349 . S
C686 C684 1.327 . S
C686 C705 1.429 . S
C686 H710 0.950 1_545 S
C687 C704 1.574 . S
C687 C706 1.368 . S
C687 H711 0.949 . S
H688 C692 0.949 1_565 S
C689 C690 1.349 . S
C689 C691 1.327 . S
C689 H712 0.950 . S
C690 C689 1.349 . S
C690 C702 1.349 . S
C691 C689 1.327 . S
C691 C707 1.429 . S
C691 H713 0.950 . S
C692 H688 0.949 1_545 S
C692 C700 1.574 . S
C692 C708 1.368 . S
H693 C701 0.950 . S
H694 C699 0.950 . S
H695 C700 0.949 1_565 S
H696 C702 0.950 1_565 S
H697 C703 0.950 1_565 S
H698 C704 0.949 . S
C699 H694 0.950 . S
C699 C701 1.327 . S
C699 C705 1.429 . S
C700 C692 1.574 . S
C700 H695 0.949 1_545 S
C700 C706 1.368 . S
C701 C685 1.349 . S
C701 H693 0.950 . S
C701 C699 1.327 . S
C702 C690 1.349 . S
C702 H696 0.950 1_545 S
C702 C703 1.327 . S
C703 H697 0.950 1_545 S
C703 C702 1.327 . S
C703 C707 1.429 . S
C704 C687 1.574 . S
C704 H698 0.949 . S
C704 C708 1.368 . S
C705 C686 1.429 . S
C705 C699 1.429 . S
C705 C706 1.523 . S
C706 C687 1.368 . S
C706 C700 1.368 . S
C706 C705 1.523 . S
C707 C691 1.429 . S
C707 C703 1.429 . S
C707 C708 1.523 . S
C708 C692 1.368 . S
C708 C704 1.368 . S
C708 C707 1.523 . S
H709 C684 0.952 . S
H710 C686 0.950 1_565 S
H711 C687 0.949 . S
H712 C689 0.950 . S
H713 C691 0.950 . S
C714 C715 1.349 . S
C714 C716 1.327 . S
C714 H739 0.950 . S
C715 C714 1.349 . S
C715 C731 1.349 . S
C716 C714 1.327 . S
C716 C735 1.429 . S
C716 H740 0.950 . S
C717 C734 1.527 1_556 S
C717 C736 1.368 . S
C717 H741 0.949 . S
H718 C722 0.949 1_554 S
C719 C720 1.349 . S
C719 C721 1.327 . S
C719 H742 0.950 . S
C720 C719 1.349 . S
C720 C732 1.349 . S
C721 C719 1.327 . S
C721 C737 1.429 . S
C721 H743 0.950 . S
C722 H718 0.949 1_556 S
C722 C730 1.574 . S
C722 C738 1.368 1_556 S
H723 C731 0.950 . S
H724 C729 0.950 . S
H725 C730 0.949 . S
H726 C732 0.950 . S
H727 C733 0.950 . S
H728 C734 0.973 . S
C729 H724 0.950 . S
C729 C731 1.327 . S
C729 C735 1.429 . S
C730 C722 1.574 . S
C730 H725 0.949 . S
C730 C736 1.368 . S
C731 C715 1.349 . S
C731 H723 0.950 . S
C731 C729 1.327 . S
C732 C720 1.349 . S
C732 H726 0.950 . S
C732 C733 1.327 . S
C733 H727 0.950 . S
C733 C732 1.327 . S
C733 C737 1.429 . S
C734 C717 1.527 1_554 S
C734 H728 0.973 . S
C734 C738 1.390 . S
C735 C716 1.429 . S
C735 C729 1.429 . S
C735 C736 1.523 . S
C736 C717 1.368 . S
C736 C730 1.368 . S
C736 C735 1.523 . S
C737 C721 1.429 . S
C737 C733 1.429 . S
C737 C738 1.523 . S
C738 C722 1.368 1_554 S
C738 C734 1.390 . S
C738 C737 1.523 . S
H739 C714 0.950 . S
H740 C716 0.950 . S
H741 C717 0.949 . S
H742 C719 0.950 . S
H743 C721 0.950 . S
C744 C745 1.349 . S
C744 C746 1.327 . S
C744 H769 0.950 . S
C745 C744 1.349 . S
C745 C761 1.349 . S
C746 C744 1.327 . S
C746 C765 1.429 . S
C746 H770 0.950 . S
C747 C764 1.574 . S
C747 C766 1.368 . S
C747 H771 0.949 . S
H748 C752 0.949 . S
C749 C750 1.349 . S
C749 C751 1.327 . S
C749 H772 0.950 . S
C750 C749 1.349 . S
C750 C762 1.349 . S
C751 C749 1.327 . S
C751 C767 1.429 . S
C751 H773 0.950 . S
C752 H748 0.949 . S
C752 C760 1.574 . S
C752 C768 1.368 . S
H753 C761 0.950 . S
H754 C759 0.950 . S
H755 C760 0.949 . S
H756 C762 0.950 . S
H757 C763 0.950 . S
H758 C764 0.949 . S
C759 H754 0.950 . S
C759 C761 1.327 . S
C759 C765 1.429 . S
C760 C752 1.574 . S
C760 H755 0.949 . S
C760 C766 1.368 . S
C761 C745 1.349 . S
C761 H753 0.950 . S
C761 C759 1.327 . S
C762 C750 1.349 . S
C762 H756 0.950 . S
C762 C763 1.327 . S
C763 H757 0.950 . S
C763 C762 1.327 . S
C763 C767 1.429 . S
C764 C747 1.574 . S
C764 H758 0.949 . S
C764 C768 1.368 . S
C765 C746 1.429 . S
C765 C759 1.429 . S
C765 C766 1.523 . S
C766 C747 1.368 . S
C766 C760 1.368 . S
C766 C765 1.523 . S
C767 C751 1.429 . S
C767 C763 1.429 . S
C767 C768 1.523 . S
C768 C752 1.368 . S
C768 C764 1.368 . S
C768 C767 1.523 . S
H769 C744 0.950 . S
H770 C746 0.950 . S
H771 C747 0.949 . S
H772 C749 0.950 . S
H773 C751 0.950 . S
C235 C7 0.684 . S
C240 C226 0.702 . S
C265 C51 1.980 . S
C270 C188 1.910 . S
C295 C87 1.267 . S
C300 C207 1.217 . S
C325 C16 0.159 . S
C330 C221 0.206 . S
C360 C183 1.851 . S
C355 C42 1.883 . S
C390 C202 1.096 . S
C385 C96 1.111 . S
C415 C47 1.322 . S
C420 C150 1.254 . S
C445 C91 3.035 . S
C450 C164 2.996 1_655 S
C475 C2 1.897 . S
C480 C126 1.873 1_565 S
C510 C145 1.086 . S
C505 C56 1.098 . S
C540 C169 2.995 . S
C535 C82 3.065 . S
C565 C11 1.985 . S
C570 C131 1.921 . S
C600 C160 1.703 . S
C595 C19 1.687 . S
C625 C50 1.482 . S
C630 C122 1.536 . S
C655 C99 1.563 . S
C660 C141 1.575 . S
C690 C198 1.566 . S
C685 C59 1.573 . S
C720 C217 1.412 . S
C715 C90 1.385 . S
C745 C10 1.452 . S
C750 C179 1.490 . S
