# Generated by pormake.
# Topology anh, (6,3)-cn, num edge types: 1
# Building blocks:
#     Node 0, Type 0, BuildingBlock: HISSIN_clean_sbu_0, # of connection points: 6
#     Node 1, Type 0, BuildingBlock: HISSIN_clean_sbu_0, # of connection points: 6
#     Node 2, Type 0, BuildingBlock: HISSIN_clean_sbu_0, # of connection points: 6
#     Node 3, Type 1, BuildingBlock: KAKCAD_clean_linker_0, # of connection points: 3
#     Node 4, Type 1, BuildingBlock: KAKCAD_clean_linker_0, # of connection points: 3
#     Node 5, Type 1, BuildingBlock: KAKCAD_clean_linker_0, # of connection points: 3
#     Node 6, Type 1, BuildingBlock: KAKCAD_clean_linker_0, # of connection points: 3
#     Node 7, Type 1, BuildingBlock: KAKCAD_clean_linker_0, # of connection points: 3
#     Node 8, Type 1, BuildingBlock: KAKCAD_clean_linker_0, # of connection points: 3
#     Edge 9, Type (0, 1), BuildingBlock: UVAHIK_clean_linker_0, # of connection points: 2
#     Edge 10, Type (0, 1), BuildingBlock: UVAHIK_clean_linker_0, # of connection points: 2
#     Edge 11, Type (0, 1), BuildingBlock: UVAHIK_clean_linker_0, # of connection points: 2
#     Edge 12, Type (0, 1), BuildingBlock: UVAHIK_clean_linker_0, # of connection points: 2
#     Edge 13, Type (0, 1), BuildingBlock: UVAHIK_clean_linker_0, # of connection points: 2
#     Edge 14, Type (0, 1), BuildingBlock: UVAHIK_clean_linker_0, # of connection points: 2
#     Edge 15, Type (0, 1), BuildingBlock: UVAHIK_clean_linker_0, # of connection points: 2
#     Edge 16, Type (0, 1), BuildingBlock: UVAHIK_clean_linker_0, # of connection points: 2
#     Edge 17, Type (0, 1), BuildingBlock: UVAHIK_clean_linker_0, # of connection points: 2
#     Edge 18, Type (0, 1), BuildingBlock: UVAHIK_clean_linker_0, # of connection points: 2
#     Edge 19, Type (0, 1), BuildingBlock: UVAHIK_clean_linker_0, # of connection points: 2
#     Edge 20, Type (0, 1), BuildingBlock: UVAHIK_clean_linker_0, # of connection points: 2
#     Edge 21, Type (0, 1), BuildingBlock: UVAHIK_clean_linker_0, # of connection points: 2
#     Edge 22, Type (0, 1), BuildingBlock: UVAHIK_clean_linker_0, # of connection points: 2
#     Edge 23, Type (0, 1), BuildingBlock: UVAHIK_clean_linker_0, # of connection points: 2
#     Edge 24, Type (0, 1), BuildingBlock: UVAHIK_clean_linker_0, # of connection points: 2
#     Edge 25, Type (0, 1), BuildingBlock: UVAHIK_clean_linker_0, # of connection points: 2
#     Edge 26, Type (0, 1), BuildingBlock: UVAHIK_clean_linker_0, # of connection points: 2
# Relax obj value: 0.201
# Max RMSD: 0.183
# Mean RMSD: 0.149
data_MOF--net-anh--node1-HISSIN_clean_sbu_0--node2-KAKCAD_clean_linker_0--edge1-UVAHIK_clean_linker_0
_symmetry_space_group_name_H-M    P1
_symmetry_Int_Tables_number       1
_symmetry_cell_setting            triclinic
loop_
_symmetry_equiv_pos_as_xyz
'x, y, z'
_cell_length_a     46.256585
_cell_length_b     46.428797
_cell_length_c     83.861757
_cell_angle_alpha  93.051324
_cell_angle_beta   90.375409
_cell_angle_gamma 119.98061
loop_
_atom_site_label
_atom_site_type_symbol
_atom_site_fract_x
_atom_site_fract_y
_atom_site_fract_z
_atom_type_partial_charge
Eu0 Eu 1.03825 0.4939 0.16102 0.0
Eu1 Eu 0.07736 0.57345 0.16503 0.0
C2 C 0.05681 0.53094 0.19625 0.0
C3 C 0.97352 0.40825 0.14589 0.0
C4 C 0.94821 0.41651 0.14565 0.0
C5 C 0.94005 0.36068 0.12732 0.0
C6 C 0.91869 0.39653 0.13667 0.0
C7 C 0.96956 0.38061 0.13646 0.0
C8 C 0.91399 0.36807 0.12757 0.0
C9 C 1.00478 0.42962 0.15518 0.0
O10 O 0.12119 0.56295 0.16477 0.0
O11 O 0.0928 0.50681 0.15785 0.0
C12 C 0.12135 0.53511 0.16054 0.0
O13 O 1.03472 0.51277 0.13724 0.0
O14 O 0.11485 0.6216 0.17621 0.0
O15 O 0.08173 0.61923 0.15709 0.0
O16 O 0.08521 0.55962 0.1401 0.0
C17 C 0.06065 0.53698 0.1309 0.0
O18 O 0.99492 0.50488 0.16325 0.0
O19 O 1.02342 0.5601 0.15835 0.0
O20 O 0.05914 0.55709 0.18972 0.0
O21 O 1.02984 0.44949 0.14682 0.0
O22 O 1.00245 0.44453 0.16837 0.0
O23 O 0.05493 0.50594 0.18725 0.0
C24 C 0.13718 0.66253 0.157 0.0
C25 C 0.13244 0.6832 0.14698 0.0
C26 C 0.19407 0.68579 0.14831 0.0
C27 C 0.15826 0.70495 0.13767 0.0
C28 C 0.16813 0.66377 0.15748 0.0
C29 C 0.1895 0.70674 0.13833 0.0
C30 C 0.10882 0.63817 0.16582 0.0
C31 C 0.99477 0.53233 0.1599 0.0
H32 H 0.95101 0.43817 0.15259 0.0
H33 H 0.9374 0.33919 0.1203 0.0
H34 H 0.89905 0.40273 0.13744 0.0
H35 H 0.9892 0.37435 0.13623 0.0
H36 H 0.10859 0.68228 0.14624 0.0
H37 H 0.21799 0.68696 0.1494 0.0
H38 H 0.15376 0.72045 0.12999 0.0
H39 H 0.17239 0.64779 0.16492 0.0
Eu40 Eu 0.58504 1.01824 0.4957 0.0
Eu41 Eu 0.54186 0.05506 0.49737 0.0
C42 C 0.56601 0.03813 0.5306 0.0
C43 C 0.60908 0.95375 0.48356 0.0
C44 C 0.57646 0.93065 0.47791 0.0
C45 C 0.62797 0.91647 0.47334 0.0
C46 C 0.56941 0.90006 0.47054 0.0
C47 C 0.63493 0.94695 0.48084 0.0
C48 C 0.59497 0.89235 0.46858 0.0
C49 C 0.61605 0.98435 0.49278 0.0
O50 O 0.59516 0.09544 0.49084 0.0
O51 O 0.62628 0.07309 0.4993 0.0
C52 C 0.62476 0.09878 0.49422 0.0
O53 O 0.58447 0.0332 0.4707 0.0
O54 O 0.53663 0.09683 0.50685 0.0
O55 O 0.50109 0.06176 0.48879 0.0
O56 O 0.53719 0.03682 0.47165 0.0
C57 C 0.56024 0.0349 0.46354 0.0
O58 O 0.53031 0.97633 0.4898 0.0
O59 O 0.50097 1.00072 0.49955 0.0
O60 O 0.54861 0.04954 0.52358 0.0
O61 O 0.62283 1.00973 0.48448 0.0
O62 O 0.59556 0.98075 0.50411 0.0
O63 O 0.5824 1.02639 0.52237 0.0
C64 C 0.52234 0.11869 0.48586 0.0
C65 C 0.54165 0.1217 0.47252 0.0
C66 C 0.53095 0.17384 0.48248 0.0
C67 C 0.55636 0.15098 0.4645 0.0
C68 C 0.51628 0.1445 0.49053 0.0
C69 C 0.55208 0.17777 0.46974 0.0
C70 C 0.51348 0.09117 0.49616 0.0
C71 C 0.50149 0.9739 0.4938 0.0
H72 H 0.55627 0.93579 0.47973 0.0
H73 H 0.64809 0.91101 0.4722 0.0
H74 H 0.54381 0.88193 0.46693 0.0
H75 H 0.66027 0.96467 0.48502 0.0
H76 H 0.54691 0.10211 0.46883 0.0
H77 H 0.52758 0.19427 0.48693 0.0
H78 H 0.57233 0.15324 0.45469 0.0
H79 H 0.50183 0.14272 0.50093 0.0
Eu80 Eu 0.52689 0.5145 0.8258 0.0
Eu81 Eu 0.60644 0.55676 0.83047 0.0
C82 C 0.56143 0.53867 0.86206 0.0
C83 C 0.44407 0.506 0.8202 0.0
C84 C 0.45421 0.53424 0.83068 0.0
C85 C 0.40702 0.51961 0.80603 0.0
C86 C 0.44107 0.55511 0.8288 0.0
C87 C 0.42011 0.49857 0.80798 0.0
C88 C 0.41783 0.54844 0.81626 0.0
C89 C 0.46305 0.48845 0.82014 0.0
O90 O 0.59433 0.50212 0.82481 0.0
O91 O 0.53791 0.47198 0.82831 0.0
C92 C 0.56662 0.47295 0.82593 0.0
O93 O 0.54727 0.50613 0.80273 0.0
O94 O 0.65281 0.56342 0.841 0.0
O95 O 0.65457 0.59644 0.82328 0.0
O96 O 0.59436 0.55658 0.80455 0.0
C97 C 0.57256 0.53017 0.79597 0.0
O98 O 0.54068 0.56893 0.82196 0.0
O99 O 0.59376 0.59873 0.8329 0.0
O100 O 0.59119 0.55262 0.85605 0.0
O101 O 0.48459 0.49683 0.80892 0.0
O102 O 0.47572 0.4873 0.83389 0.0
O103 O 0.53401 0.52381 0.85286 0.0
C104 C 0.69344 0.57781 0.82183 0.0
C105 C 0.68541 0.56569 0.80572 0.0
C106 C 0.73993 0.56778 0.82138 0.0
C107 C 0.70466 0.55472 0.79749 0.0
C108 C 0.721 0.5791 0.82953 0.0
C109 C 0.73166 0.55507 0.80538 0.0
C110 C 0.67128 0.58569 0.83116 0.0
C111 C 0.56695 0.59796 0.82676 0.0
H112 H 0.47326 0.54095 0.83999 0.0
H113 H 0.38929 0.5139 0.7962 0.0
H114 H 0.4494 0.57668 0.8371 0.0
H115 H 0.41264 0.47734 0.79953 0.0
H116 H 0.66383 0.56396 0.79961 0.0
H117 H 0.76104 0.56879 0.82763 0.0
H118 H 0.69792 0.54508 0.78516 0.0
H119 H 0.72736 0.58808 0.84196 0.0
C120 C 0.56312 0.09724 0.28806 0.0
C121 C 0.54862 0.06577 0.29433 0.0
C122 C 0.5608 0.09999 0.27164 0.0
C123 C 0.54441 0.07128 0.26114 0.0
C124 C 0.53034 0.0398 0.26752 0.0
C125 C 0.53216 0.0371 0.28394 0.0
C126 C 0.54227 0.07403 0.24361 0.0
C127 C 0.56927 0.09945 0.23587 0.0
C128 C 0.56779 0.10074 0.21925 0.0
C129 C 0.53928 0.07728 0.21038 0.0
C130 C 0.51244 0.05177 0.21775 0.0
C131 C 0.51384 0.05024 0.23437 0.0
C132 C 0.48532 1.02495 0.2075 0.0
C133 C 0.47073 0.03301 0.19504 0.0
C134 C 0.47843 0.99201 0.20825 0.0
C135 C 0.45908 0.96802 0.19611 0.0
C136 C 0.44616 0.97658 0.18312 0.0
C137 C 0.59665 0.12414 0.21044 0.0
C138 C 0.60632 0.15799 0.21078 0.0
C139 C 0.61051 0.1112 0.1994 0.0
C140 C 0.63228 0.13127 0.1882 0.0
C141 C 0.64076 0.16481 0.18785 0.0
C142 C 0.62829 0.17826 0.19953 0.0
C143 C 0.45123 1.009 0.18297 0.0
H144 H 0.57574 0.1197 0.29589 0.0
H145 H 0.57153 0.12462 0.26722 0.0
H146 H 0.51831 1.01712 0.25983 0.0
H147 H 0.52117 1.01255 0.28851 0.0
H148 H 0.59198 0.11717 0.24254 0.0
H149 H 0.4928 1.0304 0.23998 0.0
H150 H 0.53876 0.07794 0.19746 0.0
H151 H 0.47584 0.05834 0.19422 0.0
H152 H 0.48973 0.98533 0.21765 0.0
H153 H 0.45498 0.94299 0.19665 0.0
H154 H 0.5955 0.16823 0.21913 0.0
H155 H 0.60297 0.08498 0.19887 0.0
H156 H 0.44154 1.01627 0.17311 0.0
H157 H 0.63479 0.20415 0.19969 0.0
H158 H 0.64103 0.11996 0.17929 0.0
C159 C 0.61558 0.55365 0.61975 0.0
C160 C 0.63199 0.54072 0.62845 0.0
C161 C 0.62286 0.56072 0.60384 0.0
C162 C 0.64731 0.55573 0.59635 0.0
C163 C 0.66308 0.54189 0.60501 0.0
C164 C 0.6553 0.53423 0.62089 0.0
C165 C 0.6569 0.56585 0.57977 0.0
C166 C 0.65706 0.59425 0.5745 0.0
C167 C 0.6652 0.60352 0.55884 0.0
C168 C 0.67425 0.58502 0.54851 0.0
C169 C 0.67259 0.5557 0.55313 0.0
C170 C 0.66449 0.54652 0.56891 0.0
C171 C 0.6754 0.53315 0.54079 0.0
C172 C 0.66071 0.52878 0.52546 0.0
C173 C 0.6919 0.51551 0.5441 0.0
C174 C 0.69333 0.49374 0.53231 0.0
C175 C 0.67827 0.48927 0.51705 0.0
C176 C 0.65879 0.62854 0.55206 0.0
C177 C 0.62627 0.62354 0.55198 0.0
C178 C 0.68282 0.653 0.54283 0.0
C179 C 0.67386 0.67052 0.5328 0.0
C180 C 0.64057 0.66349 0.53164 0.0
C181 C 0.61717 0.64074 0.5418 0.0
C182 C 0.66247 0.50749 0.51372 0.0
H183 H 0.59721 0.55847 0.62532 0.0
H184 H 0.60937 0.5703 0.59745 0.0
H185 H 0.68219 0.53792 0.5997 0.0
H186 H 0.66837 0.52441 0.62745 0.0
H187 H 0.65054 0.60913 0.58244 0.0
H188 H 0.66229 0.52342 0.57245 0.0
H189 H 0.68031 0.59228 0.53636 0.0
H190 H 0.64711 0.5413 0.52254 0.0
H191 H 0.70355 0.51845 0.55577 0.0
H192 H 0.70536 0.47974 0.5353 0.0
H193 H 0.60719 0.60439 0.55882 0.0
H194 H 0.70807 0.65721 0.54273 0.0
H195 H 0.65095 0.50494 0.50205 0.0
H196 H 0.59129 0.63456 0.54118 0.0
H197 H 0.69273 0.6886 0.52549 0.0
C198 C 0.10891 0.62862 0.9593 0.0
C199 C 0.08203 0.59826 0.96363 0.0
C200 C 0.1128 0.6366 0.94333 0.0
C201 C 0.08963 0.61458 0.93144 0.0
C202 C 0.06281 0.58414 0.93576 0.0
C203 C 0.05918 0.57595 0.9517 0.0
C204 C 0.09325 0.62364 0.91461 0.0
C205 C 0.12414 0.63519 0.90731 0.0
C206 C 0.12752 0.64335 0.89126 0.0
C207 C 0.10034 0.64189 0.88301 0.0
C208 C 0.06912 0.62887 0.88981 0.0
C209 C 0.06555 0.61966 0.90563 0.0
C210 C 1.04007 0.62083 0.87927 0.0
C211 C 1.04134 0.64487 0.86939 0.0
C212 C 1.01439 0.58758 0.87668 0.0
C213 C 0.9917 0.57815 0.86371 0.0
C214 C 0.99424 0.60188 0.85322 0.0
C215 C 0.15739 0.64923 0.88227 0.0
C216 C 0.18988 0.66717 0.88923 0.0
C217 C 0.15304 0.63566 0.86645 0.0
C218 C 0.18019 0.64001 0.85777 0.0
C219 C 0.21256 0.65709 0.86476 0.0
C220 C 0.21727 0.67104 0.88054 0.0
C221 C 1.01858 0.6355 0.8565 0.0
H222 H 0.12703 0.64613 0.96826 0.0
H223 H 0.13361 0.66027 0.94032 0.0
H224 H 1.04476 0.56659 0.92679 0.0
H225 H 1.03818 0.55244 0.95475 0.0
H226 H 0.14484 0.63602 0.91386 0.0
H227 H 1.04131 0.60954 0.9109 0.0
H228 H 0.10278 0.6487 0.87072 0.0
H229 H 0.06112 0.67062 0.87112 0.0
H230 H 1.01322 0.56855 0.88402 0.0
H231 H 0.97275 0.55216 0.86162 0.0
H232 H 0.19411 0.67803 0.90137 0.0
H233 H 0.12843 0.62087 0.86075 0.0
H234 H 1.02115 0.65434 0.84862 0.0
H235 H 0.24193 0.68414 0.88631 0.0
H236 H 0.17565 0.62943 0.84556 0.0
C237 C 1.02744 0.52233 0.37874 0.0
C238 C 0.05525 0.52648 0.37018 0.0
C239 C 1.02784 0.52263 0.39552 0.0
C240 C 0.05626 0.52764 0.40426 0.0
C241 C 0.08408 0.53186 0.3957 0.0
C242 C 0.08349 0.53104 0.37892 0.0
C243 C 0.05717 0.529 0.42221 0.0
C244 C 1.03028 0.50496 0.43048 0.0
C245 C 1.03032 0.50528 0.44736 0.0
C246 C 0.05936 0.53185 0.45607 0.0
C247 C 0.08722 0.55697 0.44784 0.0
C248 C 0.08507 0.55447 0.43098 0.0
C249 C 0.11952 0.58635 0.45565 0.0
C250 C 0.1199 0.61108 0.46641 0.0
C251 C 0.15091 0.59315 0.44992 0.0
C252 C 0.18081 0.6234 0.45411 0.0
C253 C 0.1813 0.64894 0.46429 0.0
C254 C 0.99913 0.47715 0.45476 0.0
C255 C 0.96682 0.46797 0.44865 0.0
C256 C 1.00052 0.45597 0.46589 0.0
C257 C 0.97114 0.42643 0.47014 0.0
C258 C 0.93893 0.41658 0.46344 0.0
C259 C 0.93771 0.43873 0.45285 0.0
C260 C 0.15009 0.64161 0.47067 0.0
H261 H 1.00516 0.51852 0.37244 0.0
H262 H 1.00605 0.5195 0.40169 0.0
H263 H 0.10632 0.53556 0.402 0.0
H264 H 0.10545 0.53456 0.37279 0.0
H265 H 1.00923 0.48507 0.42355 0.0
H266 H 0.10531 0.57326 0.42448 0.0
H267 H 0.06025 0.53296 0.469 0.0
H268 H 0.09659 0.60762 0.47095 0.0
H269 H 0.15226 0.57519 0.44163 0.0
H270 H 0.20372 0.62674 0.44912 0.0
H271 H 0.96399 0.48326 0.44016 0.0
H272 H 1.02454 0.46135 0.4708 0.0
H273 H 0.14859 0.66006 0.47851 0.0
H274 H 0.91402 0.43353 0.44761 0.0
H275 H 0.97402 0.41067 0.4783 0.0
C276 C 0.55194 1.00227 0.712 0.0
C277 C 0.56978 0.03229 0.70439 0.0
C278 C 0.55185 1.00207 0.72877 0.0
C279 C 0.56996 0.03186 0.73848 0.0
C280 C 0.58831 0.06178 0.73077 0.0
C281 C 0.588 0.06201 0.71404 0.0
C282 C 0.56938 0.03194 0.75649 0.0
C283 C 0.56781 1.00533 0.76456 0.0
C284 C 0.56698 1.00451 0.7814 0.0
C285 C 0.56859 0.03278 0.79037 0.0
C286 C 0.57046 0.06048 0.78241 0.0
C287 C 0.57038 0.05882 0.76558 0.0
C288 C 0.57313 0.09231 0.79049 0.0
C289 C 0.54757 0.0923 0.79965 0.0
C290 C 0.59868 0.12387 0.7862 0.0
C291 C 0.5984 0.15371 0.7904 0.0
C292 C 0.57241 0.15394 0.79913 0.0
C293 C 0.56413 0.9732 0.7885 0.0
C294 C 0.54145 0.94116 0.78139 0.0
C295 C 0.5863 0.97429 0.80055 0.0
C296 C 0.58651 0.9449 0.80474 0.0
C297 C 0.56458 0.91297 0.79707 0.0
C298 C 0.54161 0.91204 0.78554 0.0
C299 C 0.54721 0.12236 0.80387 0.0
H300 H 0.53736 0.97892 0.70498 0.0
H301 H 0.53695 0.97853 0.73408 0.0
H302 H 0.60329 0.08522 0.73766 0.0
H303 H 0.60249 0.08554 0.70863 0.0
H304 H 0.56794 0.98507 0.75759 0.0
H305 H 0.57057 0.07884 0.75942 0.0
H306 H 0.56835 0.03319 0.80328 0.0
H307 H 0.52694 0.06882 0.80297 0.0
H308 H 0.61858 0.12539 0.77891 0.0
H309 H 0.61822 0.17657 0.7861 0.0
H310 H 0.52365 0.93857 0.77217 0.0
H311 H 0.60457 0.99811 0.80628 0.0
H312 H 0.52675 0.12062 0.81074 0.0
H313 H 0.52343 0.88857 0.77951 0.0
H314 H 0.60483 0.94756 0.81365 0.0
C315 C 0.56438 0.51698 0.0438 0.0
C316 C 0.5545 0.5371 0.03609 0.0
C317 C 0.5652 0.51669 0.06054 0.0
C318 C 0.55623 0.53655 0.07021 0.0
C319 C 0.54634 0.55669 0.06251 0.0
C320 C 0.54549 0.55695 0.04576 0.0
C321 C 0.55708 0.53611 0.08817 0.0
C322 C 0.58273 0.53409 0.09624 0.0
C323 C 0.58407 0.53255 0.11302 0.0
C324 C 0.55816 0.53403 0.12191 0.0
C325 C 0.53186 0.53668 0.11396 0.0
C326 C 0.53217 0.53748 0.09716 0.0
C327 C 0.50337 0.53901 0.12212 0.0
C328 C 0.4783 0.51273 0.13037 0.0
C329 C 0.49745 0.56527 0.11889 0.0
C330 C 0.46786 0.56512 0.12334 0.0
C331 C 0.44212 0.53845 0.13115 0.0
C332 C 0.61311 0.52924 0.12011 0.0
C333 C 0.62369 0.50888 0.11184 0.0
C334 C 0.63323 0.54868 0.13364 0.0
C335 C 0.66317 0.54874 0.13813 0.0
C336 C 0.67449 0.52959 0.12922 0.0
C337 C 0.65348 0.50921 0.11618 0.0
C338 C 0.44836 0.51242 0.13474 0.0
H339 H 0.57193 0.50162 0.03691 0.0
H340 H 0.57258 0.50051 0.0659 0.0
H341 H 0.53955 0.57262 0.06944 0.0
H342 H 0.53735 0.57253 0.04039 0.0
H343 H 0.60251 0.5344 0.08928 0.0
H344 H 0.51211 0.53849 0.09095 0.0
H345 H 0.55841 0.53312 0.13478 0.0
H346 H 0.48111 0.49158 0.13282 0.0
H347 H 0.51548 0.58573 0.1123 0.0
H348 H 0.46474 0.58561 0.11998 0.0
H349 H 0.60909 0.49285 0.10158 0.0
H350 H 0.62664 0.56495 0.1404 0.0
H351 H 0.4299 0.49139 0.14085 0.0
H352 H 0.66006 0.49325 0.10913 0.0
H353 H 0.67813 0.56485 0.14829 0.0
C354 C 0.18578 0.56546 0.15942 0.0
C355 C 0.15454 0.53558 0.15822 0.0
C356 C 0.21632 0.56575 0.1568 0.0
C357 C 0.25184 0.51133 0.13999 0.0
H358 H 0.33457 0.58147 0.16012 0.0
C359 C 0.37809 0.50766 0.1351 0.0
C360 C 0.4091 0.53776 0.13503 0.0
C361 C 0.34761 0.50727 0.13804 0.0
C362 C 0.31197 0.56171 0.15416 0.0
H363 H 0.13243 0.48231 0.15328 0.0
H364 H 0.18469 0.48262 0.14911 0.0
H365 H 0.28254 0.58117 0.16485 0.0
H366 H 0.4306 0.59132 0.13865 0.0
H367 H 0.37845 0.59066 0.1435 0.0
H368 H 0.28133 0.4918 0.12938 0.0
C369 C 0.18597 0.50628 0.15178 0.0
C370 C 0.28156 0.56154 0.15691 0.0
C371 C 0.15549 0.50603 0.15434 0.0
C372 C 0.40785 0.56739 0.13829 0.0
C373 C 0.37745 0.56699 0.14132 0.0
C374 C 0.28224 0.51143 0.1373 0.0
C375 C 0.21736 0.53615 0.15286 0.0
C376 C 0.25052 0.53636 0.1499 0.0
C377 C 0.34636 0.53694 0.14121 0.0
C378 C 0.31324 0.53665 0.14427 0.0
H379 H 0.18674 0.58896 0.16223 0.0
H380 H 0.23918 0.5896 0.15762 0.0
H381 H 0.22933 0.49161 0.13396 0.0
H382 H 0.37708 0.48407 0.13255 0.0
H383 H 0.3249 0.48333 0.13796 0.0
C384 C 0.65649 0.15989 0.48624 0.0
C385 C 0.65705 0.1318 0.49166 0.0
C386 C 0.68635 0.19016 0.48354 0.0
C387 C 0.7822 0.23647 0.49087 0.0
H388 H 0.78036 0.29566 0.46064 0.0
C389 C 0.90259 0.36843 0.48171 0.0
C390 C 0.90698 0.38361 0.46701 0.0
C391 C 0.8728 0.3384 0.48489 0.0
C392 C 0.78196 0.27961 0.46906 0.0
H393 H 0.69127 0.11503 0.49829 0.0
H394 H 0.74247 0.16663 0.49346 0.0
H395 H 0.72959 0.24406 0.46532 0.0
H396 H 0.88173 0.3762 0.44398 0.0
H397 H 0.83118 0.32507 0.44934 0.0
H398 H 0.8348 0.27168 0.49429 0.0
C399 C 0.71896 0.16586 0.49152 0.0
C400 C 0.75207 0.2496 0.47198 0.0
C401 C 0.6891 0.13565 0.49424 0.0
C402 C 0.87995 0.36667 0.45564 0.0
C403 C 0.85031 0.3367 0.45879 0.0
C404 C 0.81212 0.2665 0.48794 0.0
C405 C 0.71858 0.19411 0.48606 0.0
C406 C 0.75119 0.22699 0.48296 0.0
C407 C 0.84563 0.32163 0.47353 0.0
C408 C 0.813 0.28902 0.4769 0.0
H409 H 0.63276 0.1586 0.48404 0.0
H410 H 0.68387 0.21067 0.47963 0.0
H411 H 0.78358 0.22083 0.4996 0.0
H412 H 0.92201 0.38009 0.49103 0.0
H413 H 0.87101 0.32874 0.49652 0.0
C414 C 0.59502 0.6623 0.82801 0.0
C415 C 0.56652 0.63051 0.8246 0.0
C416 C 0.59486 0.69233 0.82547 0.0
C417 C 0.54427 0.72622 0.80478 0.0
H418 H 0.60539 0.80834 0.829 0.0
C419 C 0.55592 0.8544 0.78888 0.0
C420 C 0.56563 0.88102 0.80065 0.0
C421 C 0.55619 0.82473 0.79201 0.0
C422 C 0.58778 0.78582 0.82209 0.0
H423 H 0.51502 0.6069 0.81587 0.0
H424 H 0.51446 0.65826 0.81176 0.0
H425 H 0.60489 0.75695 0.83416 0.0
H426 H 0.58353 0.89531 0.82535 0.0
H427 H 0.58389 0.84428 0.83077 0.0
H428 H 0.52658 0.75483 0.79299 0.0
C429 C 0.53753 0.6604 0.81614 0.0
C430 C 0.58779 0.75583 0.82496 0.0
C431 C 0.53774 0.6304 0.81865 0.0
C432 C 0.57605 0.87622 0.81573 0.0
C433 C 0.57628 0.84642 0.81887 0.0
C434 C 0.54427 0.75617 0.80192 0.0
C435 C 0.56614 0.69235 0.81939 0.0
C436 C 0.56606 0.72506 0.81638 0.0
C437 C 0.5662 0.81965 0.80712 0.0
C438 C 0.56607 0.78698 0.81044 0.0
H439 H 0.61791 0.66412 0.83251 0.0
H440 H 0.61781 0.71566 0.82803 0.0
H441 H 0.52718 0.70392 0.79759 0.0
H442 H 0.54848 0.85649 0.77694 0.0
H443 H 0.54895 0.80589 0.78228 0.0
C444 C 0.9608 0.55947 0.15124 0.0
C445 C 0.96166 0.53205 0.15734 0.0
C446 C 0.93033 0.55926 0.14851 0.0
C447 C 0.83849 0.51624 0.15893 0.0
H448 H 0.82922 0.55967 0.12266 0.0
C449 C 0.72055 0.53389 0.14881 0.0
C450 C 0.7079 0.53093 0.13301 0.0
C451 C 0.75089 0.53394 0.15204 0.0
C452 C 0.83096 0.54721 0.13287 0.0
H453 H 0.92936 0.48266 0.16532 0.0
H454 H 0.87677 0.48248 0.16086 0.0
H455 H 0.88117 0.55936 0.12753 0.0
H456 H 0.7196 0.52675 0.10829 0.0
H457 H 0.77161 0.52715 0.11383 0.0
H458 H 0.7882 0.5042 0.16426 0.0
C459 C 0.89987 0.50443 0.15815 0.0
C460 C 0.86133 0.54731 0.13579 0.0
C461 C 0.93037 0.50446 0.16068 0.0
C462 C 0.72757 0.52866 0.12066 0.0
C463 C 0.75805 0.52923 0.12387 0.0
C464 C 0.80824 0.51658 0.15614 0.0
C465 C 0.89898 0.53178 0.1519 0.0
C466 C 0.86595 0.53172 0.14885 0.0
C467 C 0.77053 0.53169 0.13964 0.0
C468 C 0.80356 0.53192 0.14297 0.0
H469 H 0.98388 0.58133 0.14842 0.0
H470 H 0.93152 0.58114 0.14388 0.0
H471 H 0.84043 0.5041 0.16921 0.0
H472 H 0.70665 0.53557 0.1588 0.0
H473 H 0.75916 0.53618 0.16438 0.0
C474 C 0.46804 0.91068 0.48582 0.0
C475 C 0.46867 0.94035 0.49131 0.0
C476 C 0.43761 0.87981 0.48326 0.0
C477 C 0.3432 0.83617 0.49105 0.0
H478 H 0.33933 0.76833 0.46083 0.0
C479 C 0.22078 0.70224 0.48233 0.0
C480 C 0.2139 0.68277 0.46773 0.0
C481 C 0.25119 0.73305 0.48539 0.0
C482 C 0.3393 0.78679 0.46924 0.0
H483 H 0.43595 0.95929 0.49824 0.0
H484 H 0.38371 0.9066 0.4936 0.0
H485 H 0.39099 0.82106 0.46525 0.0
H486 H 0.23521 0.68318 0.44471 0.0
H487 H 0.28677 0.73573 0.44982 0.0
H488 H 0.29118 0.8022 0.49467 0.0
C489 C 0.40677 0.90664 0.4915 0.0
C490 C 0.36976 0.81752 0.47202 0.0
C491 C 0.43721 0.93746 0.49412 0.0
C492 C 0.23901 0.6962 0.4563 0.0
C493 C 0.26924 0.72697 0.45931 0.0
C494 C 0.31268 0.80545 0.48823 0.0
C495 C 0.40596 0.87681 0.48597 0.0
C496 C 0.37272 0.84323 0.48301 0.0
C497 C 0.27645 0.74634 0.47398 0.0
C498 C 0.30973 0.77977 0.4772 0.0
H499 H 0.49127 0.91118 0.48348 0.0
H500 H 0.43921 0.85812 0.4793 0.0
H501 H 0.34348 0.8543 0.49979 0.0
H502 H 0.20287 0.69339 0.49167 0.0
H503 H 0.25497 0.74611 0.49696 0.0
C504 C 0.59743 0.43978 0.82115 0.0
C505 C 0.56744 0.44024 0.82371 0.0
C506 C 0.59795 0.40944 0.81881 0.0
C507 C 0.54425 0.31445 0.82225 0.0
H508 H 0.61404 0.31237 0.79792 0.0
C509 C 0.54132 0.18704 0.80469 0.0
C510 C 0.57155 0.18662 0.80275 0.0
C511 C 0.5407 0.21729 0.80741 0.0
C512 C 0.5944 0.31213 0.80495 0.0
H513 H 0.51422 0.40735 0.82558 0.0
H514 H 0.51492 0.35533 0.82133 0.0
H515 H 0.61335 0.36428 0.80212 0.0
H516 H 0.62522 0.22007 0.80294 0.0
H517 H 0.62406 0.2716 0.80747 0.0
H518 H 0.5252 0.26216 0.82496 0.0
C519 C 0.53852 0.3784 0.82141 0.0
C520 C 0.594 0.3425 0.80742 0.0
C521 C 0.53803 0.40873 0.82379 0.0
C522 C 0.60108 0.2183 0.8039 0.0
C523 C 0.60044 0.24847 0.80656 0.0
C524 C 0.54459 0.28405 0.81973 0.0
C525 C 0.56848 0.37776 0.81883 0.0
C526 C 0.56894 0.34466 0.81616 0.0
C527 C 0.57024 0.24895 0.80832 0.0
C528 C 0.5697 0.28196 0.81102 0.0
H529 H 0.62081 0.46307 0.82097 0.0
H530 H 0.62188 0.41107 0.81717 0.0
H531 H 0.52462 0.31415 0.82931 0.0
H532 H 0.51772 0.1639 0.80374 0.0
H533 H 0.51664 0.21569 0.80845 0.0
C534 C 0.60733 0.85137 0.45405 0.0
C535 C 0.5869 0.8578 0.46419 0.0
C536 C 0.60543 0.82033 0.45352 0.0
C537 C 0.56252 0.73748 0.47207 0.0
H538 H 0.65396 0.75831 0.47957 0.0
C539 C 0.60556 0.68715 0.52216 0.0
C540 C 0.62982 0.67799 0.51912 0.0
C541 C 0.59539 0.70051 0.51029 0.0
C542 C 0.62825 0.75172 0.4772 0.0
H543 H 0.54619 0.83599 0.48041 0.0
H544 H 0.54354 0.78272 0.47996 0.0
H545 H 0.64313 0.79672 0.4659 0.0
H546 H 0.66126 0.67429 0.50093 0.0
H547 H 0.64448 0.69902 0.48047 0.0
H548 H 0.54823 0.69381 0.48486 0.0
C549 C 0.56062 0.80094 0.4721 0.0
C550 C 0.62191 0.77368 0.46922 0.0
C551 C 0.5622 0.83171 0.47244 0.0
C552 C 0.6432 0.68192 0.50383 0.0
C553 C 0.63332 0.69565 0.49203 0.0
C554 C 0.56895 0.71579 0.48031 0.0
C555 C 0.58358 0.79553 0.46339 0.0
C556 C 0.58906 0.7677 0.46728 0.0
C557 C 0.60949 0.70525 0.4952 0.0
C558 C 0.60196 0.72355 0.48353 0.0
H559 H 0.6262 0.87098 0.44735 0.0
H560 H 0.62278 0.81667 0.44629 0.0
H561 H 0.53687 0.73162 0.47039 0.0
H562 H 0.59495 0.68476 0.53382 0.0
H563 H 0.57745 0.70835 0.51312 0.0
C564 C 0.75903 0.52078 0.80492 0.0
C565 C 0.7517 0.54251 0.79721 0.0
C566 C 0.78465 0.51561 0.79972 0.0
C567 C 0.86468 0.57021 0.78375 0.0
H568 H 0.88077 0.50624 0.80401 0.0
C569 C 0.95769 0.61028 0.83425 0.0
C570 C 0.97231 0.59158 0.83864 0.0
C571 C 0.93631 0.60024 0.82079 0.0
C572 C 0.87722 0.52423 0.79787 0.0
H573 H 0.76163 0.57201 0.77667 0.0
H574 H 0.80656 0.56278 0.76735 0.0
H575 H 0.82613 0.4884 0.79196 0.0
H576 H 0.97753 0.5487 0.83191 0.0
H577 H 0.93979 0.53091 0.80832 0.0
H578 H 0.91551 0.60622 0.79003 0.0
C579 C 0.79307 0.55031 0.77767 0.0
C580 C 0.84567 0.51402 0.79106 0.0
C581 C 0.76731 0.55553 0.78295 0.0
C582 C 0.96602 0.56321 0.82896 0.0
C583 C 0.94465 0.55318 0.8154 0.0
C584 C 0.89641 0.58022 0.79018 0.0
C585 C 0.80364 0.53226 0.7867 0.0
C586 C 0.83813 0.53775 0.7856 0.0
C587 C 0.92912 0.57132 0.8113 0.0
C588 C 0.90191 0.55812 0.79877 0.0
H589 H 0.7467 0.50985 0.81576 0.0
H590 H 0.79169 0.50147 0.80707 0.0
H591 H 0.86034 0.58922 0.77928 0.0
H592 H 0.96185 0.63208 0.84155 0.0
H593 H 0.92412 0.61436 0.81834 0.0
C594 C 0.243 0.72631 0.12388 0.0
C595 C 0.21824 0.73253 0.12998 0.0
C596 C 0.2735 0.75259 0.11945 0.0
C597 C 0.32102 0.84498 0.11646 0.0
H598 H 0.3822 0.84003 0.14648 0.0
C599 C 0.39868 0.94831 0.16292 0.0
C600 C 0.42842 0.95209 0.1695 0.0
C601 C 0.381 0.92397 0.15067 0.0
C602 C 0.36616 0.84195 0.13764 0.0
H603 H 0.20478 0.77074 0.13451 0.0
H604 H 0.25737 0.8161 0.12678 0.0
H605 H 0.33379 0.78933 0.13589 0.0
H606 H 0.46438 0.93518 0.16768 0.0
H607 H 0.43333 0.8924 0.14627 0.0
H608 H 0.35232 0.89798 0.11929 0.0
C609 C 0.25344 0.79106 0.1253 0.0
C610 C 0.33828 0.81269 0.1315 0.0
C611 C 0.22315 0.76491 0.12983 0.0
C612 C 0.44105 0.93221 0.16306 0.0
C613 C 0.42345 0.90794 0.15074 0.0
C614 C 0.34902 0.87431 0.12258 0.0
C615 C 0.27961 0.78547 0.12094 0.0
C616 C 0.31418 0.81408 0.12179 0.0
C617 C 0.39278 0.90298 0.14468 0.0
C618 C 0.37051 0.8731 0.13413 0.0
H619 H 0.23958 0.70143 0.12341 0.0
H620 H 0.29309 0.74752 0.11592 0.0
H621 H 0.30318 0.84669 0.10871 0.0
H622 H 0.38834 0.96324 0.16769 0.0
H623 H 0.35713 0.92041 0.14655 0.0
C624 C 0.55979 0.23188 0.46111 0.0
C625 C 0.57309 0.21108 0.4636 0.0
C626 C 0.58096 0.26562 0.45892 0.0
C627 C 0.63093 0.33762 0.454 0.0
H628 H 0.69129 0.36952 0.49131 0.0
C629 C 0.70409 0.4592 0.5026 0.0
C630 C 0.6767 0.46404 0.50493 0.0
C631 C 0.7013 0.43382 0.49179 0.0
C632 C 0.67549 0.36146 0.48054 0.0
H633 H 0.61869 0.20854 0.46432 0.0
H634 H 0.65557 0.26744 0.46042 0.0
H635 H 0.66764 0.31219 0.48099 0.0
H636 H 0.6251 0.44628 0.4976 0.0
H637 H 0.62024 0.4024 0.479 0.0
H638 H 0.63718 0.38653 0.45427 0.0
C639 C 0.62884 0.25771 0.46024 0.0
C640 C 0.66186 0.32845 0.47459 0.0
C641 C 0.60766 0.22394 0.46238 0.0
C642 C 0.64692 0.44372 0.49589 0.0
C643 C 0.64418 0.41858 0.48511 0.0
C644 C 0.64472 0.37072 0.45991 0.0
C645 C 0.61581 0.27917 0.45927 0.0
C646 C 0.63788 0.3157 0.46188 0.0
C647 C 0.67108 0.41289 0.48313 0.0
C648 C 0.66544 0.38231 0.47386 0.0
H649 H 0.53321 0.22249 0.46179 0.0
H650 H 0.5701 0.28151 0.45833 0.0
H651 H 0.613 0.32858 0.444 0.0
H652 H 0.7275 0.47475 0.50925 0.0
H653 H 0.72248 0.43005 0.49048 0.0
C654 C 0.42556 0.60599 0.81691 0.0
C655 C 0.40463 0.5713 0.8142 0.0
C656 C 0.41221 0.62713 0.81718 0.0
C657 C 0.3702 0.6538 0.83274 0.0
H658 H 0.29186 0.63579 0.80741 0.0
C659 C 0.23515 0.63005 0.84621 0.0
C660 C 0.24054 0.65827 0.85572 0.0
C661 C 0.26069 0.63053 0.83741 0.0
C662 C 0.31405 0.64158 0.81446 0.0
H663 H 0.35371 0.53191 0.80857 0.0
H664 H 0.33051 0.56867 0.80892 0.0
H665 H 0.32866 0.61606 0.79722 0.0
H666 H 0.27727 0.70914 0.86355 0.0
H667 H 0.32277 0.70947 0.84844 0.0
H668 H 0.35413 0.67701 0.85051 0.0
C669 C 0.35726 0.57962 0.81074 0.0
C670 C 0.33504 0.63029 0.80864 0.0
C671 C 0.37054 0.55849 0.8106 0.0
C672 C 0.27241 0.68697 0.85638 0.0
C673 C 0.29829 0.68729 0.84766 0.0
C674 C 0.34915 0.66506 0.83857 0.0
C675 C 0.37776 0.61399 0.81456 0.0
C676 C 0.36215 0.63457 0.81816 0.0
C677 C 0.29251 0.65906 0.83803 0.0
C678 C 0.31982 0.65722 0.82989 0.0
H679 H 0.45212 0.6167 0.81932 0.0
H680 H 0.42858 0.65356 0.82 0.0
H681 H 0.3909 0.65741 0.84036 0.0
H682 H 0.21127 0.60717 0.84578 0.0
H683 H 0.25578 0.60801 0.83053 0.0
C684 C 0.86699 0.30992 0.12181 0.0
C685 C 0.8805 0.34421 0.12025 0.0
C686 C 0.83283 0.28815 0.11933 0.0
C687 C 0.76115 0.29448 0.12877 0.0
H688 H 0.71945 0.19841 0.12279 0.0
C689 C 0.65291 0.20622 0.16712 0.0
C690 C 0.66103 0.18477 0.17475 0.0
C691 C 0.67105 0.22352 0.15418 0.0
C692 C 0.73045 0.22523 0.1243 0.0
H693 H 0.86965 0.38172 0.11236 0.0
H694 H 0.80961 0.34363 0.10847 0.0
H695 H 0.76867 0.23366 0.10785 0.0
H696 H 0.69493 0.16521 0.17498 0.0
H697 H 0.72628 0.1951 0.15249 0.0
H698 H 0.7246 0.28607 0.14615 0.0
C699 C 0.82546 0.33375 0.11182 0.0
C700 C 0.7585 0.24536 0.11572 0.0
C701 C 0.85978 0.35556 0.11417 0.0
C702 C 0.68762 0.18104 0.1692 0.0
C703 C 0.70544 0.19798 0.15623 0.0
C704 C 0.73303 0.27433 0.1373 0.0
C705 C 0.81143 0.30024 0.11536 0.0
C706 C 0.77556 0.28012 0.11879 0.0
C707 C 0.69734 0.21934 0.14857 0.0
C708 C 0.71896 0.2396 0.13595 0.0
H709 H 0.88205 0.30021 0.12649 0.0
H710 H 0.82293 0.26253 0.12227 0.0
H711 H 0.77367 0.32117 0.13145 0.0
H712 H 0.63221 0.20923 0.17096 0.0
H713 H 0.66452 0.24006 0.14855 0.0
C714 C 1.03279 0.52287 0.10359 0.0
C715 C 0.06192 0.53989 0.11343 0.0
C716 C 1.03403 0.52759 0.08721 0.0
C717 C 0.08751 0.58769 0.05806 0.0
H718 H 1.03093 0.51641 0.02676 0.0
C719 C 0.07984 0.61374 -0.00757 0.0
C720 C 0.07772 0.59014 0.9806 0.0
C721 C 0.07637 0.60647 0.00848 0.0
C722 C 1.04716 0.53653 0.03532 0.0
H723 H 0.11537 0.57399 0.11377 0.0
H724 H 0.11777 0.58129 0.08526 0.0
H725 H 1.0289 0.50506 0.05489 0.0
H726 H 0.07024 0.54044 0.97621 0.0
H727 H 0.06516 0.52798 0.00431 0.0
H728 H 0.10683 0.61885 0.03854 0.0
C729 C 0.09373 0.56521 0.09017 0.0
C730 C 1.04565 0.53012 0.0515 0.0
C731 C 0.09241 0.56084 0.10653 0.0
C732 C 0.07174 0.55898 0.9851 0.0
C733 C 0.06869 0.55183 0.0012 0.0
C734 C 0.08927 0.594 0.04191 0.0
C735 C 0.0645 0.54913 0.08033 0.0
C736 C 0.06585 0.55564 0.06308 0.0
C737 C 0.07115 0.57557 0.01311 0.0
C738 C 0.06907 0.56857 0.03032 0.0
H739 H 1.0089 0.50665 0.10861 0.0
H740 H 1.01096 0.51506 0.08005 0.0
H741 H 0.10304 0.60815 0.06662 0.0
H742 H 0.0839 0.63776 0.98924 0.0
H743 H 0.07762 0.62509 0.01724 0.0
C744 C 0.52961 1.02766 0.43765 0.0
C745 C 0.55947 0.03594 0.446 0.0
C746 C 0.52909 1.02973 0.42111 0.0
C747 C 0.58051 0.07437 0.38885 0.0
H748 H 0.5161 0.99967 0.36114 0.0
C749 C 0.58138 0.07929 0.32019 0.0
C750 C 0.55052 0.06268 0.3117 0.0
C751 C 0.58319 0.07551 0.33653 0.0
C752 C 0.53391 1.02099 0.3687 0.0
H753 H 0.6122 0.05302 0.44366 0.0
H754 H 0.61135 0.0574 0.41472 0.0
H755 H 0.51754 0.99387 0.38981 0.0
H756 H 0.49732 1.02987 0.31352 0.0
H757 H 0.50009 1.02432 0.34213 0.0
H758 H 0.59611 0.10208 0.368 0.0
C759 C 0.58838 0.04899 0.421 0.0
C760 C 0.53483 1.01751 0.3851 0.0
C761 C 0.58879 0.04629 0.43751 0.0
C762 C 0.52145 0.04264 0.31982 0.0
C763 C 0.52314 0.03931 0.33619 0.0
C764 C 0.57922 0.07809 0.37248 0.0
C765 C 0.55853 0.04073 0.41269 0.0
C766 C 0.55812 0.04416 0.39529 0.0
C767 C 0.55407 0.05548 0.34476 0.0
C768 C 0.55585 0.05145 0.36218 0.0
H769 H 0.50663 1.01956 0.44388 0.0
H770 H 0.50582 1.02342 0.41494 0.0
H771 H 0.59846 0.09538 0.39655 0.0
H772 H 0.60418 0.09463 0.31412 0.0
H773 H 0.60751 0.08789 0.34262 0.0
C774 C 0.59876 0.55665 0.77097 0.0
C775 C 0.57732 0.52776 0.77866 0.0
C776 C 0.60458 0.55483 0.75477 0.0
C777 C 0.5715 0.50035 0.71742 0.0
H778 H 0.65918 0.56323 0.70295 0.0
C779 C 0.61562 0.50486 0.65182 0.0
C780 C 0.62612 0.53597 0.64564 0.0
C781 C 0.60964 0.50072 0.66812 0.0
C782 C 0.63465 0.54547 0.70686 0.0
H783 H 0.54512 0.47421 0.77544 0.0
H784 H 0.55607 0.47078 0.7471 0.0
H785 H 0.64892 0.5611 0.73142 0.0
H786 H 0.63927 0.58719 0.65146 0.0
H787 H 0.6298 0.58022 0.68001 0.0
H788 H 0.55774 0.48454 0.69264 0.0
C789 C 0.56783 0.49501 0.75354 0.0
C790 C 0.6286 0.54438 0.72315 0.0
C791 C 0.56161 0.49692 0.76977 0.0
C792 C 0.63102 0.56294 0.65597 0.0
C793 C 0.62577 0.559 0.67225 0.0
C794 C 0.57778 0.50106 0.7011 0.0
C795 C 0.5896 0.52397 0.74586 0.0
C796 C 0.5967 0.52247 0.72863 0.0
C797 C 0.61491 0.52787 0.67845 0.0
C798 C 0.60918 0.52418 0.6957 0.0
H799 H 0.61099 0.58085 0.77745 0.0
H800 H 0.62071 0.5778 0.74923 0.0
H801 H 0.54658 0.48333 0.72115 0.0
H802 H 0.61163 0.48374 0.64401 0.0
H803 H 0.60132 0.47652 0.67269 0.0
C804 C 0.5564 0.05679 0.55799 0.0
C805 C 0.56689 0.03807 0.54847 0.0
C806 C 0.55707 0.05651 0.57474 0.0
C807 C 0.59197 0.03187 0.60892 0.0
H808 H 0.52597 0.04225 0.63283 0.0
C809 C 0.57287 1.00908 0.6768 0.0
C810 C 0.56927 0.03274 0.68649 0.0
C811 C 0.57284 1.00987 0.66007 0.0
C812 C 0.54475 0.03955 0.62636 0.0
H813 H 0.58596 1.00397 0.54934 0.0
H814 H 0.58602 1.00248 0.57829 0.0
H815 H 0.52512 0.04297 0.6038 0.0
H816 H 0.56221 0.07544 0.68596 0.0
H817 H 0.56174 0.07654 0.65683 0.0
H818 H 0.61089 1.02755 0.63158 0.0
C819 C 0.57818 1.01831 0.57295 0.0
C820 C 0.54442 0.04013 0.60962 0.0
C821 C 0.57794 1.01896 0.55622 0.0
C822 C 0.56531 0.05698 0.67893 0.0
C823 C 0.56476 0.05745 0.66219 0.0
C824 C 0.59197 1.03083 0.62564 0.0
C825 C 0.56781 0.03712 0.58256 0.0
C826 C 0.56809 0.03641 0.60056 0.0
C827 C 0.56868 0.034 0.6525 0.0
C828 C 0.56844 0.03476 0.63462 0.0
H829 H 0.54794 0.07202 0.55251 0.0
H830 H 0.54949 0.07194 0.58154 0.0
H831 H 0.61113 1.0296 0.60261 0.0
H832 H 0.57619 0.99018 0.68218 0.0
H833 H 0.57569 0.99126 0.65302 0.0
C834 C 0.58837 0.55424 0.88982 0.0
C835 C 0.55914 0.53934 0.87991 0.0
C836 C 0.58672 0.55432 0.90652 0.0
C837 C 0.52952 0.51189 0.93948 0.0
H838 H 0.59705 0.58781 0.96548 0.0
C839 C 0.56267 0.567 0.01056 0.0
C840 C 0.55371 0.53743 0.01813 0.0
C841 C 0.56227 0.56738 -0.00619 0.0
C842 C 0.57773 0.56645 0.95848 0.0
H843 H 0.50506 0.51293 0.88014 0.0
H844 H 0.50217 0.51343 0.90926 0.0
H845 H 0.59761 0.58878 0.93651 0.0
H846 H 0.53664 0.48481 0.01358 0.0
H847 H 0.53678 0.48565 0.98457 0.0
H848 H 0.50925 0.48987 0.9615 0.0
C849 C 0.5265 0.52473 0.90407 0.0
C850 C 0.57832 0.56682 0.94174 0.0
C851 C 0.52814 0.52463 0.8873 0.0
C852 C 0.54416 0.50822 0.00833 0.0
C853 C 0.54378 0.5086 -0.00842 0.0
C854 C 0.52892 0.51153 0.95624 0.0
C855 C 0.55579 0.53955 0.91397 0.0
C856 C 0.55436 0.53948 0.93193 0.0
C857 C 0.55292 0.53821 0.98401 0.0
C858 C 0.55311 0.53876 0.96604 0.0
H859 H 0.61277 0.5657 0.88469 0.0
H860 H 0.60989 0.56549 0.91359 0.0
H861 H 0.51078 0.49018 0.93245 0.0
H862 H 0.57053 0.59015 0.01756 0.0
H863 H 0.56909 0.59064 0.98855 0.0
C864 C 0.0615 0.50651 0.22178 0.0
C865 C 0.05628 0.52982 0.21407 0.0
C866 C 0.06151 0.50596 0.23854 0.0
C867 C 0.06628 0.55736 0.27601 0.0
H868 H 1.03656 0.47415 0.29594 0.0
C869 C 1.04251 0.5439 0.34414 0.0
C870 C 0.05494 0.52632 0.35226 0.0
C871 C 1.0428 0.54428 0.32738 0.0
C872 C 1.04517 0.49767 0.29058 0.0
H873 H 1.04628 0.57045 0.21817 0.0
H874 H 1.04501 0.56877 0.2471 0.0
H875 H 1.03625 0.47464 0.26689 0.0
H876 H 0.07689 0.49481 0.34888 0.0
H877 H 0.07696 0.49508 0.3197 0.0
H878 H 0.0743 0.58009 0.29981 0.0
C879 C 1.05024 0.55147 0.24035 0.0
C880 C 1.04517 0.49804 0.27382 0.0
C881 C 0.0507 0.5523 0.22363 0.0
C882 C 0.06733 0.50882 0.34309 0.0
C883 C 0.06713 0.50876 0.32632 0.0
C884 C 0.06582 0.55688 0.29275 0.0
C885 C 0.05584 0.52842 0.24817 0.0
C886 C 0.05579 0.52792 0.26619 0.0
C887 C 0.05504 0.52664 0.31821 0.0
C888 C 0.05534 0.52705 0.3003 0.0
H889 H 0.06611 0.48892 0.21488 0.0
H890 H 0.06654 0.48816 0.24392 0.0
H891 H 0.0754 0.5811 0.27082 0.0
H892 H 1.033 0.55787 0.35077 0.0
H893 H 1.03306 0.55813 0.32159 0.0
loop_
_geom_bond_atom_site_label_1
_geom_bond_atom_site_label_2
_geom_bond_distance
_geom_bond_site_symmetry_2
_ccdc_geom_bond_type
Eu0 C9 2.828 . S
Eu0 O11 2.392 1_655 S
Eu0 O13 2.418 . S
Eu0 O18 2.373 . S
Eu0 O21 2.488 . S
Eu0 O22 2.471 . S
Eu0 O23 2.349 . S
Eu1 O10 2.373 . S
Eu1 O14 2.488 . S
Eu1 O15 2.471 . S
Eu1 O16 2.349 . S
Eu1 O19 2.392 1_455 S
Eu1 O20 2.418 . S
Eu1 C30 2.828 . S
C2 O20 1.244 . S
C2 O23 1.265 1_455 S
C3 C4 1.379 . S
C3 C7 1.373 . S
C3 C9 1.505 . S
C4 C3 1.379 . S
C4 C6 1.369 . S
C4 H32 0.930 . S
C5 C7 1.383 . S
C5 C8 1.382 . S
C5 H33 0.930 . S
C6 C4 1.369 . S
C6 C8 1.392 . S
C6 H34 0.930 . S
C7 C3 1.373 . S
C7 C5 1.383 . S
C7 H35 0.931 . S
C8 C5 1.382 . S
C8 C6 1.392 . S
C9 Eu0 2.828 . S
C9 C3 1.505 . S
C9 O21 1.249 . S
C9 O22 1.244 . S
O10 Eu1 2.373 . S
O10 C12 1.258 . S
O11 Eu0 2.392 1_455 S
O11 C12 1.242 . S
C12 O10 1.258 . S
C12 O11 1.242 . S
O13 Eu0 2.418 . S
O13 C17 1.244 1_655 S
O14 Eu1 2.488 . S
O14 C30 1.249 . S
O15 Eu1 2.471 . S
O15 C30 1.244 . S
O16 Eu1 2.349 . S
O16 C17 1.265 . S
C17 O13 1.244 1_455 S
C17 O16 1.265 . S
O18 Eu0 2.373 . S
O18 C31 1.258 . S
O19 Eu1 2.392 1_655 S
O19 C31 1.242 . S
O20 Eu1 2.418 . S
O20 C2 1.244 . S
O21 Eu0 2.488 . S
O21 C9 1.249 . S
O22 Eu0 2.471 . S
O22 C9 1.244 . S
O23 Eu0 2.349 . S
O23 C2 1.265 1_655 S
C24 C25 1.379 . S
C24 C28 1.373 . S
C24 C30 1.505 . S
C25 C24 1.379 . S
C25 C27 1.369 . S
C25 H36 0.930 . S
C26 C28 1.383 . S
C26 C29 1.382 . S
C26 H37 0.930 . S
C27 C25 1.369 . S
C27 C29 1.392 . S
C27 H38 0.930 . S
C28 C24 1.373 . S
C28 C26 1.383 . S
C28 H39 0.931 . S
C29 C26 1.382 . S
C29 C27 1.392 . S
C30 Eu1 2.828 . S
C30 O14 1.249 . S
C30 O15 1.244 . S
C30 C24 1.505 . S
C31 O18 1.258 . S
C31 O19 1.242 . S
H32 C4 0.930 . S
H33 C5 0.930 . S
H34 C6 0.930 . S
H35 C7 0.931 . S
H36 C25 0.930 . S
H37 C26 0.930 . S
H38 C27 0.930 . S
H39 C28 0.931 . S
Eu40 C49 2.828 . S
Eu40 O51 2.392 1_565 S
Eu40 O53 2.418 . S
Eu40 O58 2.373 . S
Eu40 O61 2.488 . S
Eu40 O62 2.471 . S
Eu40 O63 2.349 1_565 S
Eu41 O50 2.373 . S
Eu41 O54 2.488 . S
Eu41 O55 2.471 . S
Eu41 O56 2.349 . S
Eu41 O59 2.392 1_545 S
Eu41 O60 2.418 . S
Eu41 C70 2.828 . S
C42 O60 1.244 . S
C42 O63 1.265 . S
C43 C44 1.379 . S
C43 C47 1.373 . S
C43 C49 1.505 . S
C44 C43 1.379 . S
C44 C46 1.369 . S
C44 H72 0.930 . S
C45 C47 1.383 . S
C45 C48 1.382 . S
C45 H73 0.930 . S
C46 C44 1.369 . S
C46 C48 1.392 . S
C46 H74 0.930 . S
C47 C43 1.373 . S
C47 C45 1.383 . S
C47 H75 0.931 . S
C48 C45 1.382 . S
C48 C46 1.392 . S
C49 Eu40 2.828 . S
C49 C43 1.505 . S
C49 O61 1.249 . S
C49 O62 1.244 . S
O50 Eu41 2.373 . S
O50 C52 1.258 . S
O51 Eu40 2.392 1_545 S
O51 C52 1.242 . S
C52 O50 1.258 . S
C52 O51 1.242 . S
O53 Eu40 2.418 . S
O53 C57 1.244 1_565 S
O54 Eu41 2.488 . S
O54 C70 1.249 . S
O55 Eu41 2.471 . S
O55 C70 1.244 . S
O56 Eu41 2.349 . S
O56 C57 1.265 . S
C57 O53 1.244 1_545 S
C57 O56 1.265 . S
O58 Eu40 2.373 . S
O58 C71 1.258 . S
O59 Eu41 2.392 1_565 S
O59 C71 1.242 . S
O60 Eu41 2.418 . S
O60 C42 1.244 . S
O61 Eu40 2.488 . S
O61 C49 1.249 . S
O62 Eu40 2.471 . S
O62 C49 1.244 . S
O63 Eu40 2.349 1_545 S
O63 C42 1.265 . S
C64 C65 1.379 . S
C64 C68 1.373 . S
C64 C70 1.505 . S
C65 C64 1.379 . S
C65 C67 1.369 . S
C65 H76 0.930 . S
C66 C68 1.383 . S
C66 C69 1.382 . S
C66 H77 0.930 . S
C67 C65 1.369 . S
C67 C69 1.392 . S
C67 H78 0.930 . S
C68 C64 1.373 . S
C68 C66 1.383 . S
C68 H79 0.931 . S
C69 C66 1.382 . S
C69 C67 1.392 . S
C70 Eu41 2.828 . S
C70 O54 1.249 . S
C70 O55 1.244 . S
C70 C64 1.505 . S
C71 O58 1.258 . S
C71 O59 1.242 . S
H72 C44 0.930 . S
H73 C45 0.930 . S
H74 C46 0.930 . S
H75 C47 0.931 . S
H76 C65 0.930 . S
H77 C66 0.930 . S
H78 C67 0.930 . S
H79 C68 0.931 . S
Eu80 C89 2.828 . S
Eu80 O91 2.392 . S
Eu80 O93 2.418 . S
Eu80 O98 2.373 . S
Eu80 O101 2.488 . S
Eu80 O102 2.471 . S
Eu80 O103 2.349 . S
Eu81 O90 2.373 . S
Eu81 O94 2.488 . S
Eu81 O95 2.471 . S
Eu81 O96 2.349 . S
Eu81 O99 2.392 . S
Eu81 O100 2.418 . S
Eu81 C110 2.828 . S
C82 O100 1.244 . S
C82 O103 1.265 . S
C83 C84 1.379 . S
C83 C87 1.373 . S
C83 C89 1.505 . S
C84 C83 1.379 . S
C84 C86 1.369 . S
C84 H112 0.930 . S
C85 C87 1.383 . S
C85 C88 1.382 . S
C85 H113 0.930 . S
C86 C84 1.369 . S
C86 C88 1.392 . S
C86 H114 0.930 . S
C87 C83 1.373 . S
C87 C85 1.383 . S
C87 H115 0.931 . S
C88 C85 1.382 . S
C88 C86 1.392 . S
C89 Eu80 2.828 . S
C89 C83 1.505 . S
C89 O101 1.249 . S
C89 O102 1.244 . S
O90 Eu81 2.373 . S
O90 C92 1.258 . S
O91 Eu80 2.392 . S
O91 C92 1.242 . S
C92 O90 1.258 . S
C92 O91 1.242 . S
O93 Eu80 2.418 . S
O93 C97 1.244 . S
O94 Eu81 2.488 . S
O94 C110 1.249 . S
O95 Eu81 2.471 . S
O95 C110 1.244 . S
O96 Eu81 2.349 . S
O96 C97 1.265 . S
C97 O93 1.244 . S
C97 O96 1.265 . S
O98 Eu80 2.373 . S
O98 C111 1.258 . S
O99 Eu81 2.392 . S
O99 C111 1.242 . S
O100 Eu81 2.418 . S
O100 C82 1.244 . S
O101 Eu80 2.488 . S
O101 C89 1.249 . S
O102 Eu80 2.471 . S
O102 C89 1.244 . S
O103 Eu80 2.349 . S
O103 C82 1.265 . S
C104 C105 1.379 . S
C104 C108 1.373 . S
C104 C110 1.505 . S
C105 C104 1.379 . S
C105 C107 1.369 . S
C105 H116 0.930 . S
C106 C108 1.383 . S
C106 C109 1.382 . S
C106 H117 0.930 . S
C107 C105 1.369 . S
C107 C109 1.392 . S
C107 H118 0.930 . S
C108 C104 1.373 . S
C108 C106 1.383 . S
C108 H119 0.931 . S
C109 C106 1.382 . S
C109 C107 1.392 . S
C110 Eu81 2.828 . S
C110 O94 1.249 . S
C110 O95 1.244 . S
C110 C104 1.505 . S
C111 O98 1.258 . S
C111 O99 1.242 . S
H112 C84 0.930 . S
H113 C85 0.930 . S
H114 C86 0.930 . S
H115 C87 0.931 . S
H116 C105 0.930 . S
H117 C106 0.930 . S
H118 C107 0.930 . S
H119 C108 0.931 . S
C120 C121 1.386 . S
C120 C122 1.397 . S
C120 H144 0.931 . S
C121 C120 1.386 . S
C121 C125 1.389 1_545 S
C122 C120 1.397 . S
C122 C123 1.384 . S
C122 H145 0.930 . S
C123 C122 1.384 . S
C123 C124 1.378 . S
C123 C126 1.481 . S
C124 C123 1.378 . S
C124 C125 1.388 1_545 S
C124 H146 0.929 1_545 S
C125 C121 1.389 1_565 S
C125 C124 1.388 1_565 S
C125 H147 0.940 . S
C126 C123 1.481 . S
C126 C127 1.387 . S
C126 C131 1.390 . S
C127 C126 1.387 . S
C127 C128 1.401 . S
C127 H148 0.930 . S
C128 C127 1.401 . S
C128 C129 1.376 . S
C128 C137 1.511 . S
C129 C128 1.376 . S
C129 C130 1.392 . S
C129 H150 0.931 . S
C130 C129 1.392 . S
C130 C131 1.361 . S
C130 C132 1.500 1_545 S
C131 C126 1.390 . S
C131 C130 1.361 . S
C131 H149 0.931 1_545 S
C132 C130 1.500 1_565 S
C132 C133 1.371 . S
C132 C134 1.365 . S
C133 C132 1.371 . S
C133 C143 1.386 . S
C133 H151 0.931 . S
C134 C132 1.365 . S
C134 C135 1.409 . S
C134 H152 0.929 . S
C135 C134 1.409 . S
C135 C136 1.380 . S
C135 H153 0.930 . S
C136 C135 1.380 . S
C136 C143 1.357 . S
C137 C128 1.511 . S
C137 C138 1.341 . S
C137 C139 1.371 . S
C138 C137 1.341 . S
C138 C142 1.394 . S
C138 H154 0.930 . S
C139 C137 1.371 . S
C139 C140 1.392 . S
C139 H155 0.931 . S
C140 C139 1.392 . S
C140 C141 1.331 . S
C140 H158 0.932 . S
C141 C140 1.331 . S
C141 C142 1.336 . S
C142 C138 1.394 . S
C142 C141 1.336 . S
C142 H157 0.929 . S
C143 C133 1.386 . S
C143 C136 1.357 . S
C143 H156 0.928 . S
H144 C120 0.931 . S
H145 C122 0.930 . S
H146 C124 0.929 1_565 S
H147 C125 0.940 . S
H148 C127 0.930 . S
H149 C131 0.931 1_565 S
H150 C129 0.931 . S
H151 C133 0.931 . S
H152 C134 0.929 . S
H153 C135 0.930 . S
H154 C138 0.930 . S
H155 C139 0.931 . S
H156 C143 0.928 . S
H157 C142 0.929 . S
H158 C140 0.932 . S
C159 C160 1.386 . S
C159 C161 1.397 . S
C159 H183 0.931 . S
C160 C159 1.386 . S
C160 C164 1.397 . S
C161 C159 1.397 . S
C161 C162 1.384 . S
C161 H184 0.930 . S
C162 C161 1.384 . S
C162 C163 1.377 . S
C162 C165 1.481 . S
C163 C162 1.377 . S
C163 C164 1.389 . S
C163 H185 0.929 . S
C164 C160 1.397 . S
C164 C163 1.389 . S
C164 H186 0.931 . S
C165 C162 1.481 . S
C165 C166 1.387 . S
C165 C170 1.390 . S
C166 C165 1.387 . S
C166 C167 1.401 . S
C166 H187 0.930 . S
C167 C166 1.401 . S
C167 C168 1.376 . S
C167 C176 1.511 . S
C168 C167 1.376 . S
C168 C169 1.392 . S
C168 H189 0.931 . S
C169 C168 1.392 . S
C169 C170 1.361 . S
C169 C171 1.500 . S
C170 C165 1.390 . S
C170 C169 1.361 . S
C170 H188 0.931 . S
C171 C169 1.500 . S
C171 C172 1.371 . S
C171 C173 1.365 . S
C172 C171 1.371 . S
C172 C182 1.386 . S
C172 H190 0.931 . S
C173 C171 1.365 . S
C173 C174 1.409 . S
C173 H191 0.929 . S
C174 C173 1.409 . S
C174 C175 1.380 . S
C174 H192 0.930 . S
C175 C174 1.380 . S
C175 C182 1.357 . S
C176 C167 1.511 . S
C176 C177 1.341 . S
C176 C178 1.371 . S
C177 C176 1.341 . S
C177 C181 1.394 . S
C177 H193 0.930 . S
C178 C176 1.371 . S
C178 C179 1.392 . S
C178 H194 0.931 . S
C179 C178 1.392 . S
C179 C180 1.331 . S
C179 H197 0.932 . S
C180 C179 1.331 . S
C180 C181 1.336 . S
C181 C177 1.394 . S
C181 C180 1.336 . S
C181 H196 0.929 . S
C182 C172 1.386 . S
C182 C175 1.357 . S
C182 H195 0.928 . S
H183 C159 0.931 . S
H184 C161 0.930 . S
H185 C163 0.929 . S
H186 C164 0.931 . S
H187 C166 0.930 . S
H188 C170 0.931 . S
H189 C168 0.931 . S
H190 C172 0.931 . S
H191 C173 0.929 . S
H192 C174 0.930 . S
H193 C177 0.930 . S
H194 C178 0.931 . S
H195 C182 0.928 . S
H196 C181 0.929 . S
H197 C179 0.932 . S
C198 C199 1.386 . S
C198 C200 1.397 . S
C198 H222 0.931 . S
C199 C198 1.386 . S
C199 C203 1.397 . S
C200 C198 1.397 . S
C200 C201 1.384 . S
C200 H223 0.930 . S
C201 C200 1.384 . S
C201 C202 1.377 . S
C201 C204 1.481 . S
C202 C201 1.377 . S
C202 C203 1.389 . S
C202 H224 0.929 1_455 S
C203 C199 1.397 . S
C203 C202 1.389 . S
C203 H225 0.931 1_455 S
C204 C201 1.481 . S
C204 C205 1.387 . S
C204 C209 1.390 . S
C205 C204 1.387 . S
C205 C206 1.401 . S
C205 H226 0.930 . S
C206 C205 1.401 . S
C206 C207 1.376 . S
C206 C215 1.511 . S
C207 C206 1.376 . S
C207 C208 1.392 . S
C207 H228 0.931 . S
C208 C207 1.392 . S
C208 C209 1.361 . S
C208 C210 1.500 1_455 S
C209 C204 1.390 . S
C209 C208 1.361 . S
C209 H227 0.931 1_455 S
C210 C208 1.500 1_655 S
C210 C211 1.371 . S
C210 C212 1.365 . S
C211 C210 1.371 . S
C211 C221 1.386 . S
C211 H229 0.931 1_655 S
C212 C210 1.365 . S
C212 C213 1.409 . S
C212 H230 0.929 . S
C213 C212 1.409 . S
C213 C214 1.380 . S
C213 H231 0.930 . S
C214 C213 1.380 . S
C214 C221 1.357 . S
C215 C206 1.511 . S
C215 C216 1.341 . S
C215 C217 1.371 . S
C216 C215 1.341 . S
C216 C220 1.394 . S
C216 H232 0.930 . S
C217 C215 1.371 . S
C217 C218 1.392 . S
C217 H233 0.931 . S
C218 C217 1.392 . S
C218 C219 1.331 . S
C218 H236 0.932 . S
C219 C218 1.331 . S
C219 C220 1.336 . S
C220 C216 1.394 . S
C220 C219 1.336 . S
C220 H235 0.929 . S
C221 C211 1.386 . S
C221 C214 1.357 . S
C221 H234 0.928 . S
H222 C198 0.931 . S
H223 C200 0.930 . S
H224 C202 0.929 1_655 S
H225 C203 0.931 1_655 S
H226 C205 0.930 . S
H227 C209 0.931 1_655 S
H228 C207 0.931 . S
H229 C211 0.931 1_455 S
H230 C212 0.929 . S
H231 C213 0.930 . S
H232 C216 0.930 . S
H233 C217 0.931 . S
H234 C221 0.928 . S
H235 C220 0.929 . S
H236 C218 0.932 . S
C237 C238 1.386 1_655 S
C237 C239 1.397 . S
C237 H261 0.931 . S
C238 C237 1.386 1_455 S
C238 C242 1.397 . S
C239 C237 1.397 . S
C239 C240 1.384 1_655 S
C239 H262 0.930 . S
C240 C239 1.384 1_455 S
C240 C241 1.377 . S
C240 C243 1.481 . S
C241 C240 1.377 . S
C241 C242 1.389 . S
C241 H263 0.929 . S
C242 C238 1.397 . S
C242 C241 1.389 . S
C242 H264 0.931 . S
C243 C240 1.481 . S
C243 C244 1.387 1_455 S
C243 C248 1.390 . S
C244 C243 1.387 1_655 S
C244 C245 1.401 . S
C244 H265 0.930 . S
C245 C244 1.401 . S
C245 C246 1.376 1_655 S
C245 C254 1.511 . S
C246 C245 1.376 1_455 S
C246 C247 1.392 . S
C246 H267 0.931 . S
C247 C246 1.392 . S
C247 C248 1.361 . S
C247 C249 1.500 . S
C248 C243 1.390 . S
C248 C247 1.361 . S
C248 H266 0.931 . S
C249 C247 1.500 . S
C249 C250 1.371 . S
C249 C251 1.365 . S
C250 C249 1.371 . S
C250 C260 1.386 . S
C250 H268 0.931 . S
C251 C249 1.365 . S
C251 C252 1.409 . S
C251 H269 0.929 . S
C252 C251 1.409 . S
C252 C253 1.380 . S
C252 H270 0.930 . S
C253 C252 1.380 . S
C253 C260 1.357 . S
C254 C245 1.511 . S
C254 C255 1.341 . S
C254 C256 1.371 . S
C255 C254 1.341 . S
C255 C259 1.394 . S
C255 H271 0.930 . S
C256 C254 1.371 . S
C256 C257 1.392 . S
C256 H272 0.931 . S
C257 C256 1.392 . S
C257 C258 1.331 . S
C257 H275 0.932 . S
C258 C257 1.331 . S
C258 C259 1.336 . S
C259 C255 1.394 . S
C259 C258 1.336 . S
C259 H274 0.929 . S
C260 C250 1.386 . S
C260 C253 1.357 . S
C260 H273 0.928 . S
H261 C237 0.931 . S
H262 C239 0.930 . S
H263 C241 0.929 . S
H264 C242 0.931 . S
H265 C244 0.930 . S
H266 C248 0.931 . S
H267 C246 0.931 . S
H268 C250 0.931 . S
H269 C251 0.929 . S
H270 C252 0.930 . S
H271 C255 0.930 . S
H272 C256 0.931 . S
H273 C260 0.928 . S
H274 C259 0.929 . S
H275 C257 0.932 . S
C276 C277 1.386 1_565 S
C276 C278 1.397 . S
C276 H300 0.931 . S
C277 C276 1.386 1_545 S
C277 C281 1.397 . S
C278 C276 1.397 . S
C278 C279 1.384 1_565 S
C278 H301 0.930 . S
C279 C278 1.384 1_545 S
C279 C280 1.377 . S
C279 C282 1.481 . S
C280 C279 1.377 . S
C280 C281 1.389 . S
C280 H302 0.929 . S
C281 C277 1.397 . S
C281 C280 1.389 . S
C281 H303 0.931 . S
C282 C279 1.481 . S
C282 C283 1.387 1_545 S
C282 C287 1.390 . S
C283 C282 1.387 1_565 S
C283 C284 1.401 . S
C283 H304 0.930 . S
C284 C283 1.401 . S
C284 C285 1.376 1_565 S
C284 C293 1.511 . S
C285 C284 1.376 1_545 S
C285 C286 1.392 . S
C285 H306 0.931 . S
C286 C285 1.392 . S
C286 C287 1.361 . S
C286 C288 1.500 . S
C287 C282 1.390 . S
C287 C286 1.361 . S
C287 H305 0.931 . S
C288 C286 1.500 . S
C288 C289 1.371 . S
C288 C290 1.365 . S
C289 C288 1.371 . S
C289 C299 1.386 . S
C289 H307 0.931 . S
C290 C288 1.365 . S
C290 C291 1.409 . S
C290 H308 0.929 . S
C291 C290 1.409 . S
C291 C292 1.380 . S
C291 H309 0.930 . S
C292 C291 1.380 . S
C292 C299 1.357 . S
C293 C284 1.511 . S
C293 C294 1.341 . S
C293 C295 1.371 . S
C294 C293 1.341 . S
C294 C298 1.394 . S
C294 H310 0.930 . S
C295 C293 1.371 . S
C295 C296 1.392 . S
C295 H311 0.931 . S
C296 C295 1.392 . S
C296 C297 1.331 . S
C296 H314 0.932 . S
C297 C296 1.331 . S
C297 C298 1.336 . S
C298 C294 1.394 . S
C298 C297 1.336 . S
C298 H313 0.929 . S
C299 C289 1.386 . S
C299 C292 1.357 . S
C299 H312 0.928 . S
H300 C276 0.931 . S
H301 C278 0.930 . S
H302 C280 0.929 . S
H303 C281 0.931 . S
H304 C283 0.930 . S
H305 C287 0.931 . S
H306 C285 0.931 . S
H307 C289 0.931 . S
H308 C290 0.929 . S
H309 C291 0.930 . S
H310 C294 0.930 . S
H311 C295 0.931 . S
H312 C299 0.928 . S
H313 C298 0.929 . S
H314 C296 0.932 . S
C315 C316 1.386 . S
C315 C317 1.397 . S
C315 H339 0.931 . S
C316 C315 1.386 . S
C316 C320 1.397 . S
C317 C315 1.397 . S
C317 C318 1.384 . S
C317 H340 0.930 . S
C318 C317 1.384 . S
C318 C319 1.377 . S
C318 C321 1.481 . S
C319 C318 1.377 . S
C319 C320 1.389 . S
C319 H341 0.929 . S
C320 C316 1.397 . S
C320 C319 1.389 . S
C320 H342 0.931 . S
C321 C318 1.481 . S
C321 C322 1.387 . S
C321 C326 1.390 . S
C322 C321 1.387 . S
C322 C323 1.401 . S
C322 H343 0.930 . S
C323 C322 1.401 . S
C323 C324 1.376 . S
C323 C332 1.511 . S
C324 C323 1.376 . S
C324 C325 1.392 . S
C324 H345 0.931 . S
C325 C324 1.392 . S
C325 C326 1.361 . S
C325 C327 1.500 . S
C326 C321 1.390 . S
C326 C325 1.361 . S
C326 H344 0.931 . S
C327 C325 1.500 . S
C327 C328 1.371 . S
C327 C329 1.365 . S
C328 C327 1.371 . S
C328 C338 1.386 . S
C328 H346 0.931 . S
C329 C327 1.365 . S
C329 C330 1.409 . S
C329 H347 0.929 . S
C330 C329 1.409 . S
C330 C331 1.380 . S
C330 H348 0.930 . S
C331 C330 1.380 . S
C331 C338 1.357 . S
C332 C323 1.511 . S
C332 C333 1.341 . S
C332 C334 1.371 . S
C333 C332 1.341 . S
C333 C337 1.394 . S
C333 H349 0.930 . S
C334 C332 1.371 . S
C334 C335 1.392 . S
C334 H350 0.931 . S
C335 C334 1.392 . S
C335 C336 1.331 . S
C335 H353 0.932 . S
C336 C335 1.331 . S
C336 C337 1.336 . S
C337 C333 1.394 . S
C337 C336 1.336 . S
C337 H352 0.929 . S
C338 C328 1.386 . S
C338 C331 1.357 . S
C338 H351 0.928 . S
H339 C315 0.931 . S
H340 C317 0.930 . S
H341 C319 0.929 . S
H342 C320 0.931 . S
H343 C322 0.930 . S
H344 C326 0.931 . S
H345 C324 0.931 . S
H346 C328 0.931 . S
H347 C329 0.929 . S
H348 C330 0.930 . S
H349 C333 0.930 . S
H350 C334 0.931 . S
H351 C338 0.928 . S
H352 C337 0.929 . S
H353 C335 0.932 . S
C354 C355 1.349 . S
C354 C356 1.327 . S
C354 H379 0.950 . S
C355 C354 1.349 . S
C355 C371 1.349 . S
C356 C354 1.327 . S
C356 C375 1.429 . S
C356 H380 0.950 . S
C357 C374 1.574 . S
C357 C376 1.368 . S
C357 H381 0.949 . S
H358 C362 0.949 . S
C359 C360 1.349 . S
C359 C361 1.327 . S
C359 H382 0.950 . S
C360 C359 1.349 . S
C360 C372 1.349 . S
C361 C359 1.327 . S
C361 C377 1.429 . S
C361 H383 0.950 . S
C362 H358 0.949 . S
C362 C370 1.574 . S
C362 C378 1.368 . S
H363 C371 0.950 . S
H364 C369 0.950 . S
H365 C370 0.949 . S
H366 C372 0.950 . S
H367 C373 0.950 . S
H368 C374 0.949 . S
C369 H364 0.950 . S
C369 C371 1.327 . S
C369 C375 1.429 . S
C370 C362 1.574 . S
C370 H365 0.949 . S
C370 C376 1.368 . S
C371 C355 1.349 . S
C371 H363 0.950 . S
C371 C369 1.327 . S
C372 C360 1.349 . S
C372 H366 0.950 . S
C372 C373 1.327 . S
C373 H367 0.950 . S
C373 C372 1.327 . S
C373 C377 1.429 . S
C374 C357 1.574 . S
C374 H368 0.949 . S
C374 C378 1.368 . S
C375 C356 1.429 . S
C375 C369 1.429 . S
C375 C376 1.523 . S
C376 C357 1.368 . S
C376 C370 1.368 . S
C376 C375 1.523 . S
C377 C361 1.429 . S
C377 C373 1.429 . S
C377 C378 1.523 . S
C378 C362 1.368 . S
C378 C374 1.368 . S
C378 C377 1.523 . S
H379 C354 0.950 . S
H380 C356 0.950 . S
H381 C357 0.949 . S
H382 C359 0.950 . S
H383 C361 0.950 . S
C384 C385 1.349 . S
C384 C386 1.327 . S
C384 H409 0.950 . S
C385 C384 1.349 . S
C385 C401 1.349 . S
C386 C384 1.327 . S
C386 C405 1.429 . S
C386 H410 0.950 . S
C387 C404 1.574 . S
C387 C406 1.368 . S
C387 H411 0.949 . S
H388 C392 0.949 . S
C389 C390 1.349 . S
C389 C391 1.327 . S
C389 H412 0.950 . S
C390 C389 1.349 . S
C390 C402 1.349 . S
C391 C389 1.327 . S
C391 C407 1.429 . S
C391 H413 0.950 . S
C392 H388 0.949 . S
C392 C400 1.574 . S
C392 C408 1.368 . S
H393 C401 0.950 . S
H394 C399 0.950 . S
H395 C400 0.949 . S
H396 C402 0.950 . S
H397 C403 0.950 . S
H398 C404 0.949 . S
C399 H394 0.950 . S
C399 C401 1.327 . S
C399 C405 1.429 . S
C400 C392 1.574 . S
C400 H395 0.949 . S
C400 C406 1.368 . S
C401 C385 1.349 . S
C401 H393 0.950 . S
C401 C399 1.327 . S
C402 C390 1.349 . S
C402 H396 0.950 . S
C402 C403 1.327 . S
C403 H397 0.950 . S
C403 C402 1.327 . S
C403 C407 1.429 . S
C404 C387 1.574 . S
C404 H398 0.949 . S
C404 C408 1.368 . S
C405 C386 1.429 . S
C405 C399 1.429 . S
C405 C406 1.523 . S
C406 C387 1.368 . S
C406 C400 1.368 . S
C406 C405 1.523 . S
C407 C391 1.429 . S
C407 C403 1.429 . S
C407 C408 1.523 . S
C408 C392 1.368 . S
C408 C404 1.368 . S
C408 C407 1.523 . S
H409 C384 0.950 . S
H410 C386 0.950 . S
H411 C387 0.949 . S
H412 C389 0.950 . S
H413 C391 0.950 . S
C414 C415 1.349 . S
C414 C416 1.327 . S
C414 H439 0.950 . S
C415 C414 1.349 . S
C415 C431 1.349 . S
C416 C414 1.327 . S
C416 C435 1.429 . S
C416 H440 0.950 . S
C417 C434 1.574 . S
C417 C436 1.368 . S
C417 H441 0.949 . S
H418 C422 0.949 . S
C419 C420 1.349 . S
C419 C421 1.327 . S
C419 H442 0.950 . S
C420 C419 1.349 . S
C420 C432 1.349 . S
C421 C419 1.327 . S
C421 C437 1.429 . S
C421 H443 0.950 . S
C422 H418 0.949 . S
C422 C430 1.574 . S
C422 C438 1.368 . S
H423 C431 0.950 . S
H424 C429 0.950 . S
H425 C430 0.949 . S
H426 C432 0.950 . S
H427 C433 0.950 . S
H428 C434 0.949 . S
C429 H424 0.950 . S
C429 C431 1.327 . S
C429 C435 1.429 . S
C430 C422 1.574 . S
C430 H425 0.949 . S
C430 C436 1.368 . S
C431 C415 1.349 . S
C431 H423 0.950 . S
C431 C429 1.327 . S
C432 C420 1.349 . S
C432 H426 0.950 . S
C432 C433 1.327 . S
C433 H427 0.950 . S
C433 C432 1.327 . S
C433 C437 1.429 . S
C434 C417 1.574 . S
C434 H428 0.949 . S
C434 C438 1.368 . S
C435 C416 1.429 . S
C435 C429 1.429 . S
C435 C436 1.523 . S
C436 C417 1.368 . S
C436 C430 1.368 . S
C436 C435 1.523 . S
C437 C421 1.429 . S
C437 C433 1.429 . S
C437 C438 1.523 . S
C438 C422 1.368 . S
C438 C434 1.368 . S
C438 C437 1.523 . S
H439 C414 0.950 . S
H440 C416 0.950 . S
H441 C417 0.949 . S
H442 C419 0.950 . S
H443 C421 0.950 . S
C444 C445 1.349 . S
C444 C446 1.327 . S
C444 H469 0.950 . S
C445 C444 1.349 . S
C445 C461 1.349 . S
C446 C444 1.327 . S
C446 C465 1.429 . S
C446 H470 0.950 . S
C447 C464 1.574 . S
C447 C466 1.368 . S
C447 H471 0.949 . S
H448 C452 0.949 . S
C449 C450 1.349 . S
C449 C451 1.327 . S
C449 H472 0.950 . S
C450 C449 1.349 . S
C450 C462 1.349 . S
C451 C449 1.327 . S
C451 C467 1.429 . S
C451 H473 0.950 . S
C452 H448 0.949 . S
C452 C460 1.574 . S
C452 C468 1.368 . S
H453 C461 0.950 . S
H454 C459 0.950 . S
H455 C460 0.949 . S
H456 C462 0.950 . S
H457 C463 0.950 . S
H458 C464 0.949 . S
C459 H454 0.950 . S
C459 C461 1.327 . S
C459 C465 1.429 . S
C460 C452 1.574 . S
C460 H455 0.949 . S
C460 C466 1.368 . S
C461 C445 1.349 . S
C461 H453 0.950 . S
C461 C459 1.327 . S
C462 C450 1.349 . S
C462 H456 0.950 . S
C462 C463 1.327 . S
C463 H457 0.950 . S
C463 C462 1.327 . S
C463 C467 1.429 . S
C464 C447 1.574 . S
C464 H458 0.949 . S
C464 C468 1.368 . S
C465 C446 1.429 . S
C465 C459 1.429 . S
C465 C466 1.523 . S
C466 C447 1.368 . S
C466 C460 1.368 . S
C466 C465 1.523 . S
C467 C451 1.429 . S
C467 C463 1.429 . S
C467 C468 1.523 . S
C468 C452 1.368 . S
C468 C464 1.368 . S
C468 C467 1.523 . S
H469 C444 0.950 . S
H470 C446 0.950 . S
H471 C447 0.949 . S
H472 C449 0.950 . S
H473 C451 0.950 . S
C474 C475 1.349 . S
C474 C476 1.327 . S
C474 H499 0.950 . S
C475 C474 1.349 . S
C475 C491 1.349 . S
C476 C474 1.327 . S
C476 C495 1.429 . S
C476 H500 0.950 . S
C477 C494 1.574 . S
C477 C496 1.368 . S
C477 H501 0.949 . S
H478 C482 0.949 . S
C479 C480 1.349 . S
C479 C481 1.327 . S
C479 H502 0.950 . S
C480 C479 1.349 . S
C480 C492 1.349 . S
C481 C479 1.327 . S
C481 C497 1.429 . S
C481 H503 0.950 . S
C482 H478 0.949 . S
C482 C490 1.574 . S
C482 C498 1.368 . S
H483 C491 0.950 . S
H484 C489 0.950 . S
H485 C490 0.949 . S
H486 C492 0.950 . S
H487 C493 0.950 . S
H488 C494 0.949 . S
C489 H484 0.950 . S
C489 C491 1.327 . S
C489 C495 1.429 . S
C490 C482 1.574 . S
C490 H485 0.949 . S
C490 C496 1.368 . S
C491 C475 1.349 . S
C491 H483 0.950 . S
C491 C489 1.327 . S
C492 C480 1.349 . S
C492 H486 0.950 . S
C492 C493 1.327 . S
C493 H487 0.950 . S
C493 C492 1.327 . S
C493 C497 1.429 . S
C494 C477 1.574 . S
C494 H488 0.949 . S
C494 C498 1.368 . S
C495 C476 1.429 . S
C495 C489 1.429 . S
C495 C496 1.523 . S
C496 C477 1.368 . S
C496 C490 1.368 . S
C496 C495 1.523 . S
C497 C481 1.429 . S
C497 C493 1.429 . S
C497 C498 1.523 . S
C498 C482 1.368 . S
C498 C494 1.368 . S
C498 C497 1.523 . S
H499 C474 0.950 . S
H500 C476 0.950 . S
H501 C477 0.949 . S
H502 C479 0.950 . S
H503 C481 0.950 . S
C504 C505 1.349 . S
C504 C506 1.327 . S
C504 H529 0.950 . S
C505 C504 1.349 . S
C505 C521 1.349 . S
C506 C504 1.327 . S
C506 C525 1.429 . S
C506 H530 0.950 . S
C507 C524 1.574 . S
C507 C526 1.368 . S
C507 H531 0.949 . S
H508 C512 0.949 . S
C509 C510 1.349 . S
C509 C511 1.327 . S
C509 H532 0.950 . S
C510 C509 1.349 . S
C510 C522 1.349 . S
C511 C509 1.327 . S
C511 C527 1.429 . S
C511 H533 0.950 . S
C512 H508 0.949 . S
C512 C520 1.574 . S
C512 C528 1.368 . S
H513 C521 0.950 . S
H514 C519 0.950 . S
H515 C520 0.949 . S
H516 C522 0.950 . S
H517 C523 0.950 . S
H518 C524 0.949 . S
C519 H514 0.950 . S
C519 C521 1.327 . S
C519 C525 1.429 . S
C520 C512 1.574 . S
C520 H515 0.949 . S
C520 C526 1.368 . S
C521 C505 1.349 . S
C521 H513 0.950 . S
C521 C519 1.327 . S
C522 C510 1.349 . S
C522 H516 0.950 . S
C522 C523 1.327 . S
C523 H517 0.950 . S
C523 C522 1.327 . S
C523 C527 1.429 . S
C524 C507 1.574 . S
C524 H518 0.949 . S
C524 C528 1.368 . S
C525 C506 1.429 . S
C525 C519 1.429 . S
C525 C526 1.523 . S
C526 C507 1.368 . S
C526 C520 1.368 . S
C526 C525 1.523 . S
C527 C511 1.429 . S
C527 C523 1.429 . S
C527 C528 1.523 . S
C528 C512 1.368 . S
C528 C524 1.368 . S
C528 C527 1.523 . S
H529 C504 0.950 . S
H530 C506 0.950 . S
H531 C507 0.949 . S
H532 C509 0.950 . S
H533 C511 0.950 . S
C534 C535 1.349 . S
C534 C536 1.327 . S
C534 H559 0.950 . S
C535 C534 1.349 . S
C535 C551 1.349 . S
C536 C534 1.327 . S
C536 C555 1.429 . S
C536 H560 0.950 . S
C537 C554 1.574 . S
C537 C556 1.368 . S
C537 H561 0.949 . S
H538 C542 0.949 . S
C539 C540 1.349 . S
C539 C541 1.327 . S
C539 H562 0.950 . S
C540 C539 1.349 . S
C540 C552 1.349 . S
C541 C539 1.327 . S
C541 C557 1.429 . S
C541 H563 0.950 . S
C542 H538 0.949 . S
C542 C550 1.574 . S
C542 C558 1.368 . S
H543 C551 0.950 . S
H544 C549 0.950 . S
H545 C550 0.949 . S
H546 C552 0.950 . S
H547 C553 0.950 . S
H548 C554 0.949 . S
C549 H544 0.950 . S
C549 C551 1.327 . S
C549 C555 1.429 . S
C550 C542 1.574 . S
C550 H545 0.949 . S
C550 C556 1.368 . S
C551 C535 1.349 . S
C551 H543 0.950 . S
C551 C549 1.327 . S
C552 C540 1.349 . S
C552 H546 0.950 . S
C552 C553 1.327 . S
C553 H547 0.950 . S
C553 C552 1.327 . S
C553 C557 1.429 . S
C554 C537 1.574 . S
C554 H548 0.949 . S
C554 C558 1.368 . S
C555 C536 1.429 . S
C555 C549 1.429 . S
C555 C556 1.523 . S
C556 C537 1.368 . S
C556 C550 1.368 . S
C556 C555 1.523 . S
C557 C541 1.429 . S
C557 C553 1.429 . S
C557 C558 1.523 . S
C558 C542 1.368 . S
C558 C554 1.368 . S
C558 C557 1.523 . S
H559 C534 0.950 . S
H560 C536 0.950 . S
H561 C537 0.949 . S
H562 C539 0.950 . S
H563 C541 0.950 . S
C564 C565 1.349 . S
C564 C566 1.327 . S
C564 H589 0.950 . S
C565 C564 1.349 . S
C565 C581 1.349 . S
C566 C564 1.327 . S
C566 C585 1.429 . S
C566 H590 0.950 . S
C567 C584 1.574 . S
C567 C586 1.368 . S
C567 H591 0.949 . S
H568 C572 0.949 . S
C569 C570 1.349 . S
C569 C571 1.327 . S
C569 H592 0.950 . S
C570 C569 1.349 . S
C570 C582 1.349 . S
C571 C569 1.327 . S
C571 C587 1.429 . S
C571 H593 0.950 . S
C572 H568 0.949 . S
C572 C580 1.574 . S
C572 C588 1.368 . S
H573 C581 0.950 . S
H574 C579 0.950 . S
H575 C580 0.949 . S
H576 C582 0.950 . S
H577 C583 0.950 . S
H578 C584 0.949 . S
C579 H574 0.950 . S
C579 C581 1.327 . S
C579 C585 1.429 . S
C580 C572 1.574 . S
C580 H575 0.949 . S
C580 C586 1.368 . S
C581 C565 1.349 . S
C581 H573 0.950 . S
C581 C579 1.327 . S
C582 C570 1.349 . S
C582 H576 0.950 . S
C582 C583 1.327 . S
C583 H577 0.950 . S
C583 C582 1.327 . S
C583 C587 1.429 . S
C584 C567 1.574 . S
C584 H578 0.949 . S
C584 C588 1.368 . S
C585 C566 1.429 . S
C585 C579 1.429 . S
C585 C586 1.523 . S
C586 C567 1.368 . S
C586 C580 1.368 . S
C586 C585 1.523 . S
C587 C571 1.429 . S
C587 C583 1.429 . S
C587 C588 1.523 . S
C588 C572 1.368 . S
C588 C584 1.368 . S
C588 C587 1.523 . S
H589 C564 0.950 . S
H590 C566 0.950 . S
H591 C567 0.949 . S
H592 C569 0.950 . S
H593 C571 0.950 . S
C594 C595 1.349 . S
C594 C596 1.327 . S
C594 H619 0.950 . S
C595 C594 1.349 . S
C595 C611 1.349 . S
C596 C594 1.327 . S
C596 C615 1.429 . S
C596 H620 0.950 . S
C597 C614 1.574 . S
C597 C616 1.368 . S
C597 H621 0.949 . S
H598 C602 0.949 . S
C599 C600 1.349 . S
C599 C601 1.327 . S
C599 H622 0.950 . S
C600 C599 1.349 . S
C600 C612 1.349 . S
C601 C599 1.327 . S
C601 C617 1.429 . S
C601 H623 0.950 . S
C602 H598 0.949 . S
C602 C610 1.574 . S
C602 C618 1.368 . S
H603 C611 0.950 . S
H604 C609 0.950 . S
H605 C610 0.949 . S
H606 C612 0.950 . S
H607 C613 0.950 . S
H608 C614 0.949 . S
C609 H604 0.950 . S
C609 C611 1.327 . S
C609 C615 1.429 . S
C610 C602 1.574 . S
C610 H605 0.949 . S
C610 C616 1.368 . S
C611 C595 1.349 . S
C611 H603 0.950 . S
C611 C609 1.327 . S
C612 C600 1.349 . S
C612 H606 0.950 . S
C612 C613 1.327 . S
C613 H607 0.950 . S
C613 C612 1.327 . S
C613 C617 1.429 . S
C614 C597 1.574 . S
C614 H608 0.949 . S
C614 C618 1.368 . S
C615 C596 1.429 . S
C615 C609 1.429 . S
C615 C616 1.523 . S
C616 C597 1.368 . S
C616 C610 1.368 . S
C616 C615 1.523 . S
C617 C601 1.429 . S
C617 C613 1.429 . S
C617 C618 1.523 . S
C618 C602 1.368 . S
C618 C614 1.368 . S
C618 C617 1.523 . S
H619 C594 0.950 . S
H620 C596 0.950 . S
H621 C597 0.949 . S
H622 C599 0.950 . S
H623 C601 0.950 . S
C624 C625 1.349 . S
C624 C626 1.327 . S
C624 H649 0.950 . S
C625 C624 1.349 . S
C625 C641 1.349 . S
C626 C624 1.327 . S
C626 C645 1.429 . S
C626 H650 0.950 . S
C627 C644 1.574 . S
C627 C646 1.368 . S
C627 H651 0.949 . S
H628 C632 0.949 . S
C629 C630 1.349 . S
C629 C631 1.327 . S
C629 H652 0.950 . S
C630 C629 1.349 . S
C630 C642 1.349 . S
C631 C629 1.327 . S
C631 C647 1.429 . S
C631 H653 0.950 . S
C632 H628 0.949 . S
C632 C640 1.574 . S
C632 C648 1.368 . S
H633 C641 0.950 . S
H634 C639 0.950 . S
H635 C640 0.949 . S
H636 C642 0.950 . S
H637 C643 0.950 . S
H638 C644 0.949 . S
C639 H634 0.950 . S
C639 C641 1.327 . S
C639 C645 1.429 . S
C640 C632 1.574 . S
C640 H635 0.949 . S
C640 C646 1.368 . S
C641 C625 1.349 . S
C641 H633 0.950 . S
C641 C639 1.327 . S
C642 C630 1.349 . S
C642 H636 0.950 . S
C642 C643 1.327 . S
C643 H637 0.950 . S
C643 C642 1.327 . S
C643 C647 1.429 . S
C644 C627 1.574 . S
C644 H638 0.949 . S
C644 C648 1.368 . S
C645 C626 1.429 . S
C645 C639 1.429 . S
C645 C646 1.523 . S
C646 C627 1.368 . S
C646 C640 1.368 . S
C646 C645 1.523 . S
C647 C631 1.429 . S
C647 C643 1.429 . S
C647 C648 1.523 . S
C648 C632 1.368 . S
C648 C644 1.368 . S
C648 C647 1.523 . S
H649 C624 0.950 . S
H650 C626 0.950 . S
H651 C627 0.949 . S
H652 C629 0.950 . S
H653 C631 0.950 . S
C654 C655 1.349 . S
C654 C656 1.327 . S
C654 H679 0.950 . S
C655 C654 1.349 . S
C655 C671 1.349 . S
C656 C654 1.327 . S
C656 C675 1.429 . S
C656 H680 0.950 . S
C657 C674 1.574 . S
C657 C676 1.368 . S
C657 H681 0.949 . S
H658 C662 0.949 . S
C659 C660 1.349 . S
C659 C661 1.327 . S
C659 H682 0.950 . S
C660 C659 1.349 . S
C660 C672 1.349 . S
C661 C659 1.327 . S
C661 C677 1.429 . S
C661 H683 0.950 . S
C662 H658 0.949 . S
C662 C670 1.574 . S
C662 C678 1.368 . S
H663 C671 0.950 . S
H664 C669 0.950 . S
H665 C670 0.949 . S
H666 C672 0.950 . S
H667 C673 0.950 . S
H668 C674 0.949 . S
C669 H664 0.950 . S
C669 C671 1.327 . S
C669 C675 1.429 . S
C670 C662 1.574 . S
C670 H665 0.949 . S
C670 C676 1.368 . S
C671 C655 1.349 . S
C671 H663 0.950 . S
C671 C669 1.327 . S
C672 C660 1.349 . S
C672 H666 0.950 . S
C672 C673 1.327 . S
C673 H667 0.950 . S
C673 C672 1.327 . S
C673 C677 1.429 . S
C674 C657 1.574 . S
C674 H668 0.949 . S
C674 C678 1.368 . S
C675 C656 1.429 . S
C675 C669 1.429 . S
C675 C676 1.523 . S
C676 C657 1.368 . S
C676 C670 1.368 . S
C676 C675 1.523 . S
C677 C661 1.429 . S
C677 C673 1.429 . S
C677 C678 1.523 . S
C678 C662 1.368 . S
C678 C674 1.368 . S
C678 C677 1.523 . S
H679 C654 0.950 . S
H680 C656 0.950 . S
H681 C657 0.949 . S
H682 C659 0.950 . S
H683 C661 0.950 . S
C684 C685 1.349 . S
C684 C686 1.327 . S
C684 H709 0.950 . S
C685 C684 1.349 . S
C685 C701 1.349 . S
C686 C684 1.327 . S
C686 C705 1.429 . S
C686 H710 0.950 . S
C687 C704 1.574 . S
C687 C706 1.368 . S
C687 H711 0.949 . S
H688 C692 0.949 . S
C689 C690 1.349 . S
C689 C691 1.327 . S
C689 H712 0.950 . S
C690 C689 1.349 . S
C690 C702 1.349 . S
C691 C689 1.327 . S
C691 C707 1.429 . S
C691 H713 0.950 . S
C692 H688 0.949 . S
C692 C700 1.574 . S
C692 C708 1.368 . S
H693 C701 0.950 . S
H694 C699 0.950 . S
H695 C700 0.949 . S
H696 C702 0.950 . S
H697 C703 0.950 . S
H698 C704 0.949 . S
C699 H694 0.950 . S
C699 C701 1.327 . S
C699 C705 1.429 . S
C700 C692 1.574 . S
C700 H695 0.949 . S
C700 C706 1.368 . S
C701 C685 1.349 . S
C701 H693 0.950 . S
C701 C699 1.327 . S
C702 C690 1.349 . S
C702 H696 0.950 . S
C702 C703 1.327 . S
C703 H697 0.950 . S
C703 C702 1.327 . S
C703 C707 1.429 . S
C704 C687 1.574 . S
C704 H698 0.949 . S
C704 C708 1.368 . S
C705 C686 1.429 . S
C705 C699 1.429 . S
C705 C706 1.523 . S
C706 C687 1.368 . S
C706 C700 1.368 . S
C706 C705 1.523 . S
C707 C691 1.429 . S
C707 C703 1.429 . S
C707 C708 1.523 . S
C708 C692 1.368 . S
C708 C704 1.368 . S
C708 C707 1.523 . S
H709 C684 0.950 . S
H710 C686 0.950 . S
H711 C687 0.949 . S
H712 C689 0.950 . S
H713 C691 0.950 . S
C714 C715 1.349 1_655 S
C714 C716 1.327 . S
C714 H739 0.950 . S
C715 C714 1.349 1_455 S
C715 C731 1.349 . S
C716 C714 1.327 . S
C716 C735 1.429 1_655 S
C716 H740 0.950 . S
C717 C734 1.574 . S
C717 C736 1.368 . S
C717 H741 0.949 . S
H718 C722 0.949 . S
C719 C720 1.349 . S
C719 C721 1.327 1_556 S
C719 H742 0.950 . S
C720 C719 1.349 . S
C720 C732 1.349 . S
C721 C719 1.327 1_554 S
C721 C737 1.429 . S
C721 H743 0.950 . S
C722 H718 0.949 . S
C722 C730 1.574 . S
C722 C738 1.368 1_655 S
H723 C731 0.950 . S
H724 C729 0.950 . S
H725 C730 0.949 . S
H726 C732 0.950 1_655 S
H727 C733 0.950 1_655 S
H728 C734 0.949 . S
C729 H724 0.950 . S
C729 C731 1.327 . S
C729 C735 1.429 . S
C730 C722 1.574 . S
C730 H725 0.949 . S
C730 C736 1.368 1_655 S
C731 C715 1.349 . S
C731 H723 0.950 . S
C731 C729 1.327 . S
C732 C720 1.349 . S
C732 H726 0.950 1_455 S
C732 C733 1.327 1_556 S
C733 H727 0.950 1_455 S
C733 C732 1.327 1_554 S
C733 C737 1.429 . S
C734 C717 1.574 . S
C734 H728 0.949 . S
C734 C738 1.368 . S
C735 C716 1.429 1_455 S
C735 C729 1.429 . S
C735 C736 1.523 . S
C736 C717 1.368 . S
C736 C730 1.368 1_455 S
C736 C735 1.523 . S
C737 C721 1.429 . S
C737 C733 1.429 . S
C737 C738 1.523 . S
C738 C722 1.368 1_455 S
C738 C734 1.368 . S
C738 C737 1.523 . S
H739 C714 0.950 . S
H740 C716 0.950 . S
H741 C717 0.949 . S
H742 C719 0.950 . S
H743 C721 0.950 . S
C744 C745 1.349 1_565 S
C744 C746 1.327 . S
C744 H769 0.950 . S
C745 C744 1.349 1_545 S
C745 C761 1.349 . S
C746 C744 1.327 . S
C746 C765 1.429 1_565 S
C746 H770 0.950 . S
C747 C764 1.574 . S
C747 C766 1.368 . S
C747 H771 0.949 . S
H748 C752 0.949 . S
C749 C750 1.349 . S
C749 C751 1.327 . S
C749 H772 0.950 . S
C750 C749 1.349 . S
C750 C762 1.349 . S
C751 C749 1.327 . S
C751 C767 1.429 . S
C751 H773 0.950 . S
C752 H748 0.949 . S
C752 C760 1.574 . S
C752 C768 1.368 1_565 S
H753 C761 0.950 . S
H754 C759 0.950 . S
H755 C760 0.949 . S
H756 C762 0.950 1_565 S
H757 C763 0.952 . S
H758 C764 0.949 . S
C759 H754 0.950 . S
C759 C761 1.327 . S
C759 C765 1.429 . S
C760 C752 1.574 . S
C760 H755 0.949 . S
C760 C766 1.368 1_565 S
C761 C745 1.349 . S
C761 H753 0.950 . S
C761 C759 1.327 . S
C762 C750 1.349 . S
C762 H756 0.950 1_545 S
C762 C763 1.326 1_545 S
C763 H757 0.952 . S
C763 C762 1.326 1_565 S
C763 C767 1.427 1_565 S
C764 C747 1.574 . S
C764 H758 0.949 . S
C764 C768 1.368 . S
C765 C746 1.429 1_545 S
C765 C759 1.429 . S
C765 C766 1.523 . S
C766 C747 1.368 . S
C766 C760 1.368 1_545 S
C766 C765 1.523 . S
C767 C751 1.429 . S
C767 C763 1.427 1_545 S
C767 C768 1.523 . S
C768 C752 1.368 1_545 S
C768 C764 1.368 . S
C768 C767 1.523 . S
H769 C744 0.950 . S
H770 C746 0.950 . S
H771 C747 0.949 . S
H772 C749 0.950 . S
H773 C751 0.950 . S
C774 C775 1.349 . S
C774 C776 1.327 . S
C774 H799 0.950 . S
C775 C774 1.349 . S
C775 C791 1.349 . S
C776 C774 1.327 . S
C776 C795 1.429 . S
C776 H800 0.950 . S
C777 C794 1.574 . S
C777 C796 1.368 . S
C777 H801 0.949 . S
H778 C782 0.949 . S
C779 C780 1.349 . S
C779 C781 1.327 . S
C779 H802 0.950 . S
C780 C779 1.349 . S
C780 C792 1.349 . S
C781 C779 1.327 . S
C781 C797 1.429 . S
C781 H803 0.950 . S
C782 H778 0.949 . S
C782 C790 1.574 . S
C782 C798 1.368 . S
H783 C791 0.950 . S
H784 C789 0.950 . S
H785 C790 0.949 . S
H786 C792 0.950 . S
H787 C793 0.950 . S
H788 C794 0.949 . S
C789 H784 0.950 . S
C789 C791 1.327 . S
C789 C795 1.429 . S
C790 C782 1.574 . S
C790 H785 0.949 . S
C790 C796 1.368 . S
C791 C775 1.349 . S
C791 H783 0.950 . S
C791 C789 1.327 . S
C792 C780 1.349 . S
C792 H786 0.950 . S
C792 C793 1.327 . S
C793 H787 0.950 . S
C793 C792 1.327 . S
C793 C797 1.429 . S
C794 C777 1.574 . S
C794 H788 0.949 . S
C794 C798 1.368 . S
C795 C776 1.429 . S
C795 C789 1.429 . S
C795 C796 1.523 . S
C796 C777 1.368 . S
C796 C790 1.368 . S
C796 C795 1.523 . S
C797 C781 1.429 . S
C797 C793 1.429 . S
C797 C798 1.523 . S
C798 C782 1.368 . S
C798 C794 1.368 . S
C798 C797 1.523 . S
H799 C774 0.950 . S
H800 C776 0.950 . S
H801 C777 0.949 . S
H802 C779 0.950 . S
H803 C781 0.950 . S
C804 C805 1.349 . S
C804 C806 1.327 . S
C804 H829 0.950 . S
C805 C804 1.349 . S
C805 C821 1.349 1_545 S
C806 C804 1.327 . S
C806 C825 1.429 . S
C806 H830 0.950 . S
C807 C824 1.574 . S
C807 C826 1.368 1_565 S
C807 H831 0.949 . S
H808 C812 0.949 . S
C809 C810 1.349 1_565 S
C809 C811 1.327 . S
C809 H832 0.950 . S
C810 C809 1.349 1_545 S
C810 C822 1.349 . S
C811 C809 1.327 . S
C811 C827 1.429 1_565 S
C811 H833 0.950 . S
C812 H808 0.949 . S
C812 C820 1.574 . S
C812 C828 1.368 . S
H813 C821 0.950 . S
H814 C819 0.950 . S
H815 C820 0.949 . S
H816 C822 0.950 . S
H817 C823 0.950 . S
H818 C824 0.949 . S
C819 H814 0.950 . S
C819 C821 1.327 . S
C819 C825 1.429 1_565 S
C820 C812 1.574 . S
C820 H815 0.949 . S
C820 C826 1.368 . S
C821 C805 1.349 1_565 S
C821 H813 0.950 . S
C821 C819 1.327 . S
C822 C810 1.349 . S
C822 H816 0.950 . S
C822 C823 1.327 . S
C823 H817 0.950 . S
C823 C822 1.327 . S
C823 C827 1.429 . S
C824 C807 1.574 . S
C824 H818 0.949 . S
C824 C828 1.368 1_565 S
C825 C806 1.429 . S
C825 C819 1.429 1_545 S
C825 C826 1.523 . S
C826 C807 1.368 1_545 S
C826 C820 1.368 . S
C826 C825 1.523 . S
C827 C811 1.429 1_545 S
C827 C823 1.429 . S
C827 C828 1.523 . S
C828 C812 1.368 . S
C828 C824 1.368 1_545 S
C828 C827 1.523 . S
H829 C804 0.950 . S
H830 C806 0.950 . S
H831 C807 0.949 . S
H832 C809 0.950 . S
H833 C811 0.950 . S
C834 C835 1.349 . S
C834 C836 1.327 . S
C834 H859 0.950 . S
C835 C834 1.349 . S
C835 C851 1.349 . S
C836 C834 1.327 . S
C836 C855 1.429 . S
C836 H860 0.950 . S
C837 C854 1.574 . S
C837 C856 1.368 . S
C837 H861 0.949 . S
H838 C842 0.949 . S
C839 C840 1.349 . S
C839 C841 1.327 1_554 S
C839 H862 0.950 . S
C840 C839 1.349 . S
C840 C852 1.349 . S
C841 C839 1.327 1_556 S
C841 C857 1.429 . S
C841 H863 0.950 . S
C842 H838 0.949 . S
C842 C850 1.574 . S
C842 C858 1.368 . S
H843 C851 0.950 . S
H844 C849 0.950 . S
H845 C850 0.949 . S
H846 C852 0.950 . S
H847 C853 0.950 . S
H848 C854 0.949 . S
C849 H844 0.950 . S
C849 C851 1.327 . S
C849 C855 1.429 . S
C850 C842 1.574 . S
C850 H845 0.949 . S
C850 C856 1.368 . S
C851 C835 1.349 . S
C851 H843 0.950 . S
C851 C849 1.327 . S
C852 C840 1.349 . S
C852 H846 0.950 . S
C852 C853 1.327 1_554 S
C853 H847 0.950 . S
C853 C852 1.327 1_556 S
C853 C857 1.429 . S
C854 C837 1.574 . S
C854 H848 0.949 . S
C854 C858 1.368 . S
C855 C836 1.429 . S
C855 C849 1.429 . S
C855 C856 1.523 . S
C856 C837 1.368 . S
C856 C850 1.368 . S
C856 C855 1.523 . S
C857 C841 1.429 . S
C857 C853 1.429 . S
C857 C858 1.523 . S
C858 C842 1.368 . S
C858 C854 1.368 . S
C858 C857 1.523 . S
H859 C834 0.950 . S
H860 C836 0.950 . S
H861 C837 0.949 . S
H862 C839 0.950 . S
H863 C841 0.950 . S
C864 C865 1.349 . S
C864 C866 1.327 . S
C864 H889 0.950 . S
C865 C864 1.349 . S
C865 C881 1.349 . S
C866 C864 1.327 . S
C866 C885 1.429 . S
C866 H890 0.950 . S
C867 C884 1.574 . S
C867 C886 1.368 . S
C867 H891 0.949 . S
H868 C872 0.949 . S
C869 C870 1.349 . S
C869 C871 1.327 . S
C869 H892 0.950 . S
C870 C869 1.349 . S
C870 C882 1.349 . S
C871 C869 1.327 . S
C871 C887 1.429 . S
C871 H893 0.950 . S
C872 H868 0.949 . S
C872 C880 1.574 . S
C872 C888 1.368 . S
H873 C881 0.945 1_655 S
H874 C879 0.950 . S
H875 C880 0.949 . S
H876 C882 0.950 . S
H877 C883 0.950 . S
H878 C884 0.949 . S
C879 H874 0.950 . S
C879 C881 1.327 . S
C879 C885 1.429 . S
C880 C872 1.574 . S
C880 H875 0.949 . S
C880 C886 1.368 . S
C881 C865 1.349 . S
C881 H873 0.945 1_455 S
C881 C879 1.327 . S
C882 C870 1.349 . S
C882 H876 0.950 . S
C882 C883 1.327 . S
C883 H877 0.950 . S
C883 C882 1.327 . S
C883 C887 1.429 . S
C884 C867 1.574 . S
C884 H878 0.949 . S
C884 C888 1.368 . S
C885 C866 1.429 . S
C885 C879 1.429 . S
C885 C886 1.523 . S
C886 C867 1.368 . S
C886 C880 1.368 . S
C886 C885 1.523 . S
C887 C871 1.429 . S
C887 C883 1.429 . S
C887 C888 1.523 . S
C888 C872 1.368 . S
C888 C884 1.368 . S
C888 C887 1.523 . S
H889 C864 0.950 . S
H890 C866 0.950 . S
H891 C867 0.949 . S
H892 C869 0.950 . S
H893 C871 0.950 . S
C355 C12 2.877 . S
C360 C331 2.839 . S
C385 C52 2.860 . S
C390 C258 2.827 . S
C415 C111 2.926 . S
C420 C297 2.886 . S
C445 C31 3.074 . S
C450 C336 3.023 . S
C480 C253 3.035 . S
C475 C71 3.090 . S
C510 C292 2.968 . S
C505 C92 3.019 . S
C535 C48 0.409 . S
C540 C180 0.383 . S
C565 C109 0.437 . S
C570 C214 0.347 . S
C595 C29 0.399 . S
C600 C136 0.305 . S
C630 C175 0.250 . S
C625 C69 0.338 . S
C660 C219 0.254 . S
C655 C88 0.239 . S
C685 C8 0.258 . S
C690 C141 0.251 . S
C720 C199 1.102 . S
C715 C17 1.084 . S
C745 C57 1.083 . S
C750 C121 1.099 . S
C775 C97 1.090 . S
C780 C160 1.107 . S
C810 C277 1.773 . S
C805 C42 1.711 . S
C840 C316 1.770 . S
C835 C82 1.722 . S
C865 C2 1.724 . S
C870 C238 1.773 . S
