# Generated by pormake.
# Topology tsx, (6,3)-cn, num edge types: 1
# Building blocks:
#     Node 0, Type 0, BuildingBlock: LEVNOQ01_clean_sbu_1, # of connection points: 6
#     Node 1, Type 0, BuildingBlock: LEVNOQ01_clean_sbu_1, # of connection points: 6
#     Node 2, Type 1, BuildingBlock: BETDAH_clean_linker_0, # of connection points: 3
#     Node 3, Type 1, BuildingBlock: BETDAH_clean_linker_0, # of connection points: 3
#     Node 4, Type 1, BuildingBlock: BETDAH_clean_linker_0, # of connection points: 3
#     Node 5, Type 1, BuildingBlock: BETDAH_clean_linker_0, # of connection points: 3
#     Edge 6, Type (0, 1), BuildingBlock: UVAHIK_clean_linker_0, # of connection points: 2
#     Edge 7, Type (0, 1), BuildingBlock: UVAHIK_clean_linker_0, # of connection points: 2
#     Edge 8, Type (0, 1), BuildingBlock: UVAHIK_clean_linker_0, # of connection points: 2
#     Edge 9, Type (0, 1), BuildingBlock: UVAHIK_clean_linker_0, # of connection points: 2
#     Edge 10, Type (0, 1), BuildingBlock: UVAHIK_clean_linker_0, # of connection points: 2
#     Edge 11, Type (0, 1), BuildingBlock: UVAHIK_clean_linker_0, # of connection points: 2
#     Edge 12, Type (0, 1), BuildingBlock: UVAHIK_clean_linker_0, # of connection points: 2
#     Edge 13, Type (0, 1), BuildingBlock: UVAHIK_clean_linker_0, # of connection points: 2
#     Edge 14, Type (0, 1), BuildingBlock: UVAHIK_clean_linker_0, # of connection points: 2
#     Edge 15, Type (0, 1), BuildingBlock: UVAHIK_clean_linker_0, # of connection points: 2
#     Edge 16, Type (0, 1), BuildingBlock: UVAHIK_clean_linker_0, # of connection points: 2
#     Edge 17, Type (0, 1), BuildingBlock: UVAHIK_clean_linker_0, # of connection points: 2
# Relax obj value: 0.094
# Max RMSD: 0.148
# Mean RMSD: 0.110
data_MOF--net-tsx--node1-LEVNOQ01_clean_sbu_1--node2-BETDAH_clean_linker_0--edge1-UVAHIK_clean_linker_0
_symmetry_space_group_name_H-M    P1
_symmetry_Int_Tables_number       1
_symmetry_cell_setting            triclinic
loop_
_symmetry_equiv_pos_as_xyz
'x, y, z'
_cell_length_a     24.457175
_cell_length_b     29.271448
_cell_length_c     43.548134
_cell_angle_alpha  97.579505
_cell_angle_beta   99.708397
_cell_angle_gamma 91.21411
loop_
_atom_site_label
_atom_site_type_symbol
_atom_site_fract_x
_atom_site_fract_y
_atom_site_fract_z
_atom_type_partial_charge
O0 O 0.14445 0.01078 0.08437 0.0
Mg1 Mg 0.17982 0.02297 0.04489 0.0
O2 O 0.05652 0.00519 0.06008 0.0
Mg3 Mg 0.058 0.0121 0.00724 0.0
O4 O 0.13164 0.06586 0.01948 0.0
O5 O 0.21861 0.08531 0.04342 0.0
O6 O 0.06286 0.01991 0.95485 0.0
O7 O 1.00057 0.07501 0.01221 0.0
Mg8 Mg 0.94189 0.99028 0.96065 0.0
O9 O 0.98459 0.95859 0.99553 0.0
O10 O 0.98644 0.98944 0.92324 0.0
O11 O 0.9189 0.0547 0.98169 0.0
O12 O 0.90348 0.93021 0.96761 0.0
C13 C 0.16296 0.93676 0.00176 0.0
C14 C 0.09299 0.00498 0.08482 0.0
C15 C 0.17328 0.09578 0.02651 0.0
C16 C 0.03517 0.00732 0.92735 0.0
C17 C 0.95035 0.08368 0.00155 0.0
C18 C 0.94446 0.9274 0.99008 0.0
O19 O 0.20112 0.96537 0.01624 0.0
O20 O 0.11199 0.9469 -0.00044 0.0
O21 O 0.62951 0.49312 0.57223 0.0
Mg22 Mg 0.65872 0.51474 0.53284 0.0
O23 O 0.54326 0.51042 0.55514 0.0
Mg24 Mg 0.54881 0.51665 0.50303 0.0
O25 O 0.62311 0.572 0.51723 0.0
O26 O 0.71022 0.57154 0.54357 0.0
O27 O 0.55622 0.52316 0.45091 0.0
O28 O 0.49527 0.5817 0.50669 0.0
Mg29 Mg 0.42945 0.49803 0.45485 0.0
O30 O 0.47353 0.46732 0.48948 0.0
O31 O 0.47782 0.49755 0.41887 0.0
O32 O 0.41181 0.56367 0.47731 0.0
O33 O 0.3926 0.43721 0.46356 0.0
C34 C 0.64339 0.43624 0.49086 0.0
C35 C 0.57989 0.49816 0.57662 0.0
C36 C 0.6708 0.59331 0.52898 0.0
C37 C 0.52805 0.51241 0.42327 0.0
C38 C 0.44554 0.59196 0.49645 0.0
C39 C 0.43476 0.43548 0.48548 0.0
O40 O 0.68267 0.4662 0.49844 0.0
O41 O 0.59527 0.4464 0.49645 0.0
H42 H 0.12587 0.94676 0.4096 0.0
H43 H 0.95892 0.99229 0.40659 0.0
H44 H 0.0443 0.94299 0.48935 0.0
C45 C 0.08997 0.95338 0.42079 0.0
C46 C 0.09117 0.9428 0.45143 0.0
C47 C 0.04224 0.97062 0.40403 0.0
C48 C 0.99633 0.97967 0.41917 0.0
C49 C 0.99734 0.96983 0.45001 0.0
C50 C 0.04427 0.95085 0.46571 0.0
N51 N 0.951 0.97716 0.46543 0.0
C52 C 0.91534 0.01269 0.4603 0.0
H53 H 0.96219 0.99402 0.61269 0.0
H54 H 0.06617 0.10881 0.60218 0.0
H55 H 0.94393 0.04642 0.5241 0.0
C56 C 0.97507 0.01794 0.598 0.0
C57 C 0.94845 0.0154 0.56661 0.0
C58 C 0.01755 0.05133 0.61093 0.0
C59 C 0.0332 0.08312 0.59225 0.0
C60 C 0.00659 0.08124 0.56074 0.0
C61 C 0.96375 0.04795 0.54834 0.0
N62 N 0.02284 0.11155 0.54072 0.0
C63 C 0.07371 0.13591 0.54705 0.0
H64 H 0.65033 0.45581 0.9067 0.0
H65 H 0.48775 0.50798 0.90826 0.0
H66 H 0.57352 0.45253 0.98839 0.0
C67 C 0.61549 0.46253 0.91878 0.0
C68 C 0.61793 0.45082 0.94926 0.0
C69 C 0.56809 0.48171 0.90326 0.0
C70 C 0.52472 0.49349 0.91989 0.0
C71 C 0.5276 0.48396 0.95097 0.0
C72 C 0.57344 0.46183 0.96512 0.0
N73 N 0.48392 0.49413 0.96812 0.0
C74 C 0.4448 0.52655 0.96104 0.0
H75 H 0.42928 0.52345 0.12254 0.0
H76 H 0.56408 0.5988 0.09794 0.0
H77 H 0.4418 0.52405 0.02518 0.0
C78 C 0.44996 0.53492 0.1046 0.0
C79 C 0.42917 0.51987 0.07267 0.0
C80 C 0.49888 0.56285 0.1138 0.0
C81 C 0.52618 0.57749 0.09073 0.0
C82 C 0.5047 0.56435 0.05861 0.0
C83 C 0.45654 0.53558 0.04987 0.0
N84 N 0.53137 0.57813 0.03454 0.0
C85 C 0.5805 0.60501 0.04032 0.0
C86 C 0.21393 0.15759 0.00268 0.0
C87 C 0.1706 0.14174 0.01643 0.0
C88 C 0.2209 0.20438 0.00044 0.0
C89 C 0.22626 0.30631 0.99511 0.0
H90 H 0.23149 0.3737 0.07847 0.0
C91 C 0.34321 0.48475 0.03558 0.0
C92 C 0.38217 0.48472 0.06339 0.0
C93 C 0.30193 0.44936 0.02601 0.0
C94 C 0.22959 0.3556 0.05493 0.0
H95 H 0.0996 0.16137 0.03775 0.0
H96 H 0.11095 0.24376 0.03353 0.0
H97 H 0.18345 0.2982 0.06489 0.0
H98 H 0.40772 0.44692 0.10278 0.0
H99 H 0.33529 0.38675 0.0867 0.0
H100 H 0.27585 0.36267 0.98605 0.0
C101 C 0.13929 0.21995 0.02417 0.0
C102 C 0.20154 0.3125 0.04699 0.0
C103 C 0.13214 0.17285 0.02615 0.0
C104 C 0.37778 0.44909 0.08172 0.0
C105 C 0.33621 0.41433 0.07244 0.0
C106 C 0.25416 0.34961 0.00303 0.0
C107 C 0.18513 0.23643 0.01243 0.0
C108 C 0.20169 0.28642 0.01748 0.0
C109 C 0.29823 0.4137 0.04434 0.0
C110 C 0.25821 0.37367 0.03351 0.0
H111 H 0.24451 0.13413 0.99543 0.0
H112 H 0.25706 0.21576 0.99169 0.0
H113 H 0.22659 0.28727 0.97207 0.0
H114 H 0.3448 0.51192 0.02109 0.0
H115 H 0.27311 0.44973 0.00424 0.0
C116 C 0.14274 0.85187 0.98368 0.0
C117 C 0.1788 0.8911 0.98795 0.0
C118 C 0.16113 0.80816 0.97382 0.0
C119 C 0.27125 0.74941 0.9368 0.0
H120 H 0.25713 0.65681 0.99128 0.0
C121 C 0.42552 0.60585 0.95167 0.0
C122 C 0.40627 0.56246 0.95644 0.0
C123 C 0.38942 0.6421 0.94981 0.0
C124 C 0.26055 0.68182 0.97538 0.0
H125 H 0.26105 0.91573 0.98359 0.0
H126 H 0.2926 0.84014 0.96615 0.0
H127 H 0.20642 0.72745 0.99707 0.0
H128 H 0.3351 0.52173 0.96254 0.0
H129 H 0.27129 0.58514 0.95906 0.0
H130 H 0.32654 0.70453 0.91567 0.0
C131 C 0.25036 0.84281 0.97048 0.0
C132 C 0.23141 0.72229 0.97871 0.0
C133 C 0.2324 0.88612 0.98073 0.0
C134 C 0.35044 0.55519 0.95877 0.0
C135 C 0.31419 0.59147 0.95695 0.0
C136 C 0.30016 0.70893 0.93339 0.0
C137 C 0.21541 0.80323 0.96747 0.0
C138 C 0.23786 0.75711 0.96011 0.0
C139 C 0.33342 0.63552 0.95276 0.0
C140 C 0.29654 0.67529 0.9533 0.0
H141 H 0.10121 0.85472 0.98911 0.0
H142 H 0.13328 0.77819 0.9716 0.0
H143 H 0.27636 0.77539 0.92183 0.0
H144 H 0.46878 0.61202 0.95015 0.0
H145 H 0.40593 0.67571 0.94716 0.0
C146 C 0.93362 0.84434 0.99307 0.0
C147 C 0.94261 0.88948 0.00886 0.0
C148 C 0.91209 0.80965 0.00728 0.0
C149 C 0.81239 0.80225 0.05878 0.0
H150 H 0.83263 0.67098 0.04119 0.0
C151 C 0.64317 0.66828 0.07069 0.0
C152 C 0.63127 0.63287 0.04526 0.0
C153 C 0.6912 0.69677 0.07444 0.0
C154 C 0.82639 0.70752 0.04629 0.0
H155 H 0.94034 0.93352 0.05255 0.0
H156 H 0.902 0.87267 0.07762 0.0
H157 H 0.9053 0.72592 0.03511 0.0
H158 H 0.65933 0.59822 0.00415 0.0
H159 H 0.74275 0.6483 0.01015 0.0
H160 H 0.73227 0.78417 0.06814 0.0
C161 C 0.91195 0.86403 0.0543 0.0
C162 C 0.86819 0.73896 0.04301 0.0
C163 C 0.93444 0.89868 0.04015 0.0
C164 C 0.66814 0.62543 0.02399 0.0
C165 C 0.71607 0.65386 0.02765 0.0
C166 C 0.77051 0.77084 0.06194 0.0
C167 C 0.89809 0.81972 0.03739 0.0
C168 C 0.8608 0.78668 0.04813 0.0
C169 C 0.72795 0.69025 0.05273 0.0
C170 C 0.77614 0.72311 0.05462 0.0
H171 H 0.93899 0.83675 0.96874 0.0
H172 H 0.90156 0.77612 0.99346 0.0
H173 H 0.80496 0.83875 0.06249 0.0
H174 H 0.615 0.67435 0.08738 0.0
H175 H 0.69928 0.72415 0.09415 0.0
C176 C 0.96195 0.16936 0.01773 0.0
C177 C 0.92784 0.12886 0.01093 0.0
C178 C 0.93855 0.21258 0.02143 0.0
C179 C 0.80809 0.27132 0.03155 0.0
H180 H 0.84891 0.34824 0.97227 0.0
C181 C 0.68904 0.39093 0.94382 0.0
C182 C 0.66477 0.42397 0.96326 0.0
C183 C 0.73091 0.36394 0.95659 0.0
C184 C 0.8377 0.32753 0.98932 0.0
H185 H 0.843 0.10155 0.0047 0.0
H186 H 0.80232 0.17653 0.01128 0.0
H187 H 0.90507 0.2831 0.98493 0.0
H188 H 0.66701 0.45474 0.01172 0.0
H189 H 0.73866 0.40548 0.03411 0.0
H190 H 0.73887 0.31447 0.03451 0.0
C191 C 0.84708 0.1752 0.01389 0.0
C192 C 0.87002 0.29045 0.99675 0.0
C193 C 0.87035 0.13222 0.00983 0.0
C194 C 0.68402 0.42929 0.99598 0.0
C195 C 0.72534 0.40143 0.00885 0.0
C196 C 0.77608 0.30877 0.02437 0.0
C197 C 0.88069 0.2159 0.01879 0.0
C198 C 0.85424 0.26084 0.01694 0.0
C199 C 0.74902 0.36847 0.9892 0.0
C200 C 0.78937 0.336 0.0022 0.0
H201 H 0.00618 0.16777 0.01828 0.0
H202 H 0.96545 0.24341 0.02523 0.0
H203 H 0.79522 0.24923 0.04737 0.0
H204 H 0.67453 0.38457 0.91868 0.0
H205 H 0.74763 0.33807 0.94096 0.0
C206 C 0.64879 0.66578 0.50453 0.0
C207 C 0.68001 0.64302 0.52767 0.0
C208 C 0.66074 0.71258 0.5032 0.0
C209 C 0.72525 0.81778 0.55191 0.0
H210 H 0.7863 0.84828 0.48014 0.0
C211 C 0.9153 0.93304 0.5612 0.0
C212 C 0.90622 0.97759 0.55324 0.0
C213 C 0.87397 0.89819 0.55201 0.0
C214 C 0.76779 0.84071 0.49991 0.0
H215 H 0.7466 0.65168 0.56808 0.0
H216 H 0.7663 0.73263 0.56611 0.0
H217 H 0.73395 0.77447 0.47635 0.0
H218 H 0.84778 0.01959 0.52746 0.0
H219 H 0.77498 0.95749 0.51094 0.0
H220 H 0.76296 0.88201 0.57631 0.0
C221 C 0.73304 0.71457 0.5489 0.0
C222 C 0.73792 0.79865 0.49778 0.0
C223 C 0.72199 0.66805 0.54984 0.0
C224 C 0.85587 0.98566 0.53407 0.0
C225 C 0.81429 0.95036 0.52468 0.0
C226 C 0.75483 0.85962 0.554 0.0
C227 C 0.70293 0.73728 0.52552 0.0
C228 C 0.71888 0.78596 0.52431 0.0
C229 C 0.82285 0.9068 0.53431 0.0
C230 C 0.77833 0.87044 0.52849 0.0
H231 H 0.61622 0.64722 0.48712 0.0
H232 H 0.63718 0.72944 0.48488 0.0
H233 H 0.71086 0.80877 0.57264 0.0
H234 H 0.95411 0.92528 0.57517 0.0
H235 H 0.88141 0.8646 0.55942 0.0
C236 C 0.64045 0.35183 0.49424 0.0
C237 C 0.65578 0.38869 0.47946 0.0
C238 C 0.66161 0.30825 0.4875 0.0
C239 C 0.78115 0.25656 0.45493 0.0
H240 H 0.71131 0.14207 0.46753 0.0
C241 C 0.90775 0.09626 0.47021 0.0
C242 C 0.88258 0.05275 0.45838 0.0
C243 C 0.87633 0.13546 0.47013 0.0
C244 C 0.73117 0.17358 0.46344 0.0
H245 H 0.70092 0.4087 0.44439 0.0
H246 H 0.7344 0.33222 0.43076 0.0
H247 H 0.65949 0.21221 0.46944 0.0
H248 H 0.80571 0.015 0.43705 0.0
H249 H 0.75043 0.08392 0.43564 0.0
H250 H 0.85189 0.21791 0.44771 0.0
C251 C 0.70877 0.33697 0.44882 0.0
C252 C 0.70165 0.21409 0.465 0.0
C253 C 0.68906 0.38073 0.45626 0.0
C254 C 0.82571 0.04859 0.44614 0.0
C255 C 0.79416 0.08796 0.44567 0.0
C256 C 0.81016 0.2161 0.45284 0.0
C257 C 0.69743 0.30055 0.4653 0.0
C258 C 0.72653 0.25634 0.4612 0.0
C259 C 0.81911 0.13197 0.45772 0.0
C260 C 0.78608 0.1742 0.45768 0.0
H261 H 0.61514 0.35743 0.51245 0.0
H262 H 0.65215 0.28145 0.50096 0.0
H263 H 0.80254 0.28826 0.45246 0.0
H264 H 0.95166 0.0999 0.47994 0.0
H265 H 0.89691 0.16842 0.48031 0.0
C266 C 0.43682 0.40852 0.53754 0.0
C267 C 0.436 0.3983 0.50507 0.0
C268 C 0.41862 0.37489 0.55412 0.0
C269 C 0.36978 0.25133 0.5465 0.0
H270 H 0.24258 0.30263 0.57881 0.0
C271 C 0.16176 0.15148 0.5298 0.0
C272 C 0.12715 0.15978 0.55223 0.0
C273 C 0.21249 0.17616 0.53373 0.0
C274 C 0.27854 0.28758 0.57069 0.0
H275 H 0.42177 0.34466 0.46506 0.0
H276 H 0.39166 0.28587 0.49382 0.0
H277 H 0.31624 0.35399 0.57037 0.0
H278 H 0.11783 0.19841 0.59677 0.0
H279 H 0.20702 0.24195 0.60387 0.0
H280 H 0.33034 0.18492 0.54516 0.0
C281 C 0.40582 0.3194 0.50674 0.0
C282 C 0.32101 0.31713 0.56595 0.0
C283 C 0.42293 0.35307 0.49016 0.0
C284 C 0.14418 0.19192 0.57914 0.0
C285 C 0.19503 0.21673 0.58313 0.0
C286 C 0.32737 0.22175 0.55134 0.0
C287 C 0.40033 0.33063 0.53843 0.0
C288 C 0.3657 0.29942 0.55233 0.0
C289 C 0.22944 0.20959 0.56022 0.0
C290 C 0.27996 0.23968 0.56202 0.0
H291 H 0.44628 0.44342 0.54938 0.0
H292 H 0.41514 0.38439 0.57859 0.0
H293 H 0.40409 0.23668 0.53636 0.0
H294 H 0.14902 0.12666 0.50888 0.0
H295 H 0.23731 0.17034 0.51532 0.0
C296 C 0.37111 0.64213 0.5112 0.0
C297 C 0.42593 0.63803 0.50597 0.0
C298 C 0.34858 0.68535 0.5154 0.0
C299 C 0.35362 0.79439 0.4873 0.0
H300 H 0.25113 0.82709 0.54474 0.0
C301 C 0.13188 0.88254 0.48326 0.0
C302 C 0.13988 0.92029 0.46742 0.0
C303 C 0.17696 0.85806 0.49546 0.0
C304 C 0.27967 0.81857 0.52856 0.0
H305 H 0.50111 0.67568 0.50208 0.0
H306 H 0.46075 0.75197 0.50842 0.0
H307 H 0.31446 0.76502 0.55386 0.0
H308 H 0.20199 0.96358 0.45359 0.0
H309 H 0.28095 0.92065 0.47492 0.0
H310 H 0.31633 0.84553 0.4607 0.0
C311 C 0.43572 0.72157 0.5098 0.0
C312 C 0.31613 0.78326 0.53392 0.0
C313 C 0.4588 0.67811 0.50633 0.0
C314 C 0.19437 0.93417 0.46522 0.0
C315 C 0.23959 0.90963 0.47747 0.0
C316 C 0.31679 0.82949 0.48177 0.0
C317 C 0.38004 0.7254 0.51381 0.0
C318 C 0.3519 0.76963 0.51266 0.0
C319 C 0.2313 0.87072 0.49222 0.0
C320 C 0.27778 0.84065 0.50163 0.0
H321 H 0.345 0.61168 0.51101 0.0
H322 H 0.30539 0.68717 0.51805 0.0
H323 H 0.38044 0.78431 0.47039 0.0
H324 H 0.09048 0.87047 0.48497 0.0
H325 H 0.16876 0.82777 0.50609 0.0
C326 C 0.02973 0.01868 0.12472 0.0
C327 C 0.07649 -0.00183 0.11501 0.0
C328 C 0.02001 0.01752 0.15548 0.0
C329 C 0.09816 0.00042 0.23389 0.0
H330 H 0.95287 0.99022 0.25746 0.0
C331 C 0.0654 0.94493 0.35058 0.0
C332 C 0.03973 0.97649 0.3703 0.0
C333 C 0.06522 0.95074 0.31931 0.0
C334 C 0.99357 0.99356 0.2511 0.0
H335 H 0.14698 0.95723 0.12859 0.0
H336 H 0.1287 0.95303 0.18121 0.0
H337 H 0.96033 0.99213 0.2021 0.0
H338 H 0.99194 0.03821 0.37186 0.0
H339 H 0.99013 0.04724 0.31646 0.0
H340 H 0.13135 -0.00022 0.28254 0.0
C341 C 0.10092 0.97207 0.166 0.0
C342 C 0.99794 0.99473 0.21949 0.0
C343 C 0.11116 0.97403 0.1357 0.0
C344 C 0.0119 0.0131 0.3574 0.0
C345 C 0.01091 0.01841 0.32577 0.0
C346 C 0.09378 -0.00149 0.26517 0.0
C347 C 0.0565 0.99522 0.17677 0.0
C348 C 0.05045 -0.00281 0.21042 0.0
C349 C 0.03836 0.98762 0.30669 0.0
C350 C 0.0416 0.99434 0.27399 0.0
H351 H 0.00245 0.03759 0.10914 0.0
H352 H 0.98535 0.03568 0.16292 0.0
H353 H 0.13925 0.00398 0.22809 0.0
H354 H 0.08563 0.91544 0.35919 0.0
H355 H 0.08608 0.92625 0.30487 0.0
C356 C 0.06101 0.97484 0.87675 0.0
C357 C 0.05921 0.01319 0.89938 0.0
C358 C 0.07312 0.98061 0.84733 0.0
C359 C 0.11562 0.06614 0.79804 0.0
H360 H 0.01769 0.98597 0.73272 0.0
C361 C 0.04786 0.09238 0.66581 0.0
C362 C 0.04472 0.05202 0.64405 0.0
C363 C 0.06321 0.0903 0.69809 0.0
C364 C 0.04586 0.00824 0.75065 0.0
H365 H 0.07123 0.08735 0.91013 0.0
H366 H 0.08993 0.09801 0.85791 0.0
H367 H 0.01934 0.9767 0.78719 0.0
H368 H 0.06057 0.97912 0.63839 0.0
H369 H 0.08716 0.97549 0.69451 0.0
H370 H 0.13968 0.09897 0.76063 0.0
C371 C 0.0836 0.06329 0.86306 0.0
C372 C 0.04714 0.00278 0.78198 0.0
C373 C 0.0728 0.05731 0.89292 0.0
C374 C 0.0617 0.01054 0.65477 0.0
C375 C 0.07696 0.00848 0.68682 0.0
C376 C 0.11377 0.072 0.76641 0.0
C377 C 0.08168 0.02506 0.83951 0.0
C378 C 0.08238 0.03125 0.80617 0.0
C379 C 0.07556 0.04785 0.70884 0.0
C380 C 0.07918 0.0427 0.74247 0.0
H381 H 0.05101 0.94047 0.88145 0.0
H382 H 0.07322 0.95022 0.83021 0.0
H383 H 0.14323 0.08869 0.81605 0.0
H384 H 0.03493 0.12477 0.65807 0.0
H385 H 0.06171 0.12111 0.71465 0.0
C386 C 0.59779 0.46308 0.62616 0.0
C387 C 0.56658 0.49249 0.60779 0.0
C388 C 0.59166 0.46216 0.65732 0.0
C389 C 0.5049 0.50009 0.71787 0.0
H390 H 0.64338 0.48815 0.774 0.0
C391 C 0.53663 0.52291 0.85608 0.0
C392 C 0.56283 0.48575 0.86911 0.0
C393 C 0.53266 0.52592 0.82389 0.0
C394 C 0.60439 0.4915 0.75859 0.0
H395 H 0.50247 0.54245 0.60706 0.0
H396 H 0.49289 0.54209 0.66211 0.0
H397 H 0.64356 0.4883 0.71826 0.0
H398 H 0.60251 0.42138 0.85783 0.0
H399 H 0.59752 0.42781 0.80247 0.0
H400 H 0.46638 0.50423 0.759 0.0
C401 C 0.52151 0.51909 0.65226 0.0
C402 C 0.6043 0.49117 0.72656 0.0
C403 C 0.52699 0.51937 0.62074 0.0
C404 C 0.58378 0.45134 0.84903 0.0
C405 C 0.58053 0.45473 0.81718 0.0
C406 C 0.50517 0.50104 0.75019 0.0
C407 C 0.55502 0.49142 0.6712 0.0
C408 C 0.55444 0.49437 0.70559 0.0
C409 C 0.55539 0.49214 0.80432 0.0
C410 C 0.55484 0.49582 0.77068 0.0
H411 H 0.62799 0.44141 0.61663 0.0
H412 H 0.61673 0.43915 0.67076 0.0
H413 H 0.46573 0.50255 0.70246 0.0
H414 H 0.52014 0.55007 0.87081 0.0
H415 H 0.51317 0.55517 0.81446 0.0
C416 C 0.58827 0.55737 0.39565 0.0
C417 C 0.55266 0.51898 0.39543 0.0
C418 C 0.60335 0.56751 0.36756 0.0
C419 C 0.60652 0.51987 0.28498 0.0
H420 H 0.55431 0.63821 0.26447 0.0
C421 C 0.57826 0.56173 0.15819 0.0
C422 C 0.52336 0.573 0.14759 0.0
C423 C 0.59833 0.56354 0.19038 0.0
C424 C 0.56987 0.60536 0.27 0.0
H425 H 0.50839 0.45925 0.36651 0.0
H426 H 0.53579 0.47617 0.31784 0.0
H427 H 0.56337 0.62158 0.31864 0.0
H428 H 0.44773 0.59802 0.1621 0.0
H429 H 0.48283 0.60167 0.21832 0.0
H430 H 0.61006 0.5026 0.23609 0.0
C431 C 0.55167 0.49871 0.33945 0.0
C432 C 0.57549 0.59597 0.30101 0.0
C433 C 0.53567 0.48919 0.36725 0.0
C434 C 0.49014 0.58902 0.16972 0.0
C435 C 0.51041 0.59141 0.20187 0.0
C436 C 0.60154 0.52944 0.25407 0.0
C437 C 0.58418 0.53871 0.33911 0.0
C438 C 0.59166 0.55244 0.3085 0.0
C439 C 0.56408 0.5773 0.21249 0.0
C440 C 0.58099 0.57156 0.24605 0.0
H441 H 0.60171 0.58094 0.41711 0.0
H442 H 0.62846 0.59855 0.36786 0.0
H443 H 0.61924 0.48611 0.2902 0.0
H444 H 0.60457 0.54899 0.14156 0.0
H445 H 0.63991 0.55262 0.19796 0.0
loop_
_geom_bond_atom_site_label_1
_geom_bond_atom_site_label_2
_geom_bond_distance
_geom_bond_site_symmetry_2
_ccdc_geom_bond_type
O0 Mg1 1.990 . S
O0 C14 1.253 . S
Mg1 O0 1.990 . S
Mg1 O4 2.180 . S
Mg1 O5 2.117 . S
Mg1 O19 2.030 1_545 S
O2 Mg3 2.072 . S
O2 C14 1.260 . S
Mg3 O2 2.072 . S
Mg3 O4 2.099 . S
Mg3 O6 2.079 1_554 S
Mg3 O7 2.072 . S
Mg3 O9 2.099 1_444 S
Mg3 O20 2.079 1_545 S
O4 Mg1 2.180 . S
O4 Mg3 2.099 . S
O4 C15 1.279 . S
O5 Mg1 2.117 . S
O5 C15 1.250 . S
O6 Mg3 2.079 1_556 S
O6 C16 1.264 . S
O7 Mg3 2.072 . S
O7 C17 1.260 1_454 S
Mg8 O9 2.180 . S
Mg8 O10 2.030 1_565 S
Mg8 O11 1.990 1_565 S
Mg8 O12 2.117 . S
O9 Mg3 2.099 1_666 S
O9 Mg8 2.180 . S
O9 C18 1.285 . S
O10 Mg8 2.030 1_545 S
O10 C16 1.248 1_655 S
O11 Mg8 1.990 1_545 S
O11 C17 1.253 . S
O12 Mg8 2.117 . S
O12 C18 1.253 . S
C13 O19 1.248 . S
C13 O20 1.264 . S
C14 O0 1.253 . S
C14 O2 1.260 . S
C15 O4 1.279 . S
C15 O5 1.250 . S
C16 O6 1.264 . S
C16 O10 1.248 1_455 S
C17 O7 1.260 1_656 S
C17 O11 1.253 . S
C18 O9 1.285 . S
C18 O12 1.253 . S
O19 Mg1 2.030 1_565 S
O19 C13 1.248 . S
O20 Mg3 2.079 1_565 S
O20 C13 1.264 . S
O21 Mg22 1.990 . S
O21 C35 1.253 . S
Mg22 O21 1.990 . S
Mg22 O25 2.180 . S
Mg22 O26 2.117 . S
Mg22 O40 2.030 . S
O23 Mg24 2.072 . S
O23 C35 1.260 . S
Mg24 O23 2.072 . S
Mg24 O25 2.099 . S
Mg24 O27 2.079 . S
Mg24 O28 2.072 . S
Mg24 O30 2.099 . S
Mg24 O41 2.079 . S
O25 Mg22 2.180 . S
O25 Mg24 2.099 . S
O25 C36 1.279 . S
O26 Mg22 2.117 . S
O26 C36 1.250 . S
O27 Mg24 2.079 . S
O27 C37 1.264 . S
O28 Mg24 2.072 . S
O28 C38 1.260 . S
Mg29 O30 2.180 . S
Mg29 O31 2.030 . S
Mg29 O32 1.990 . S
Mg29 O33 2.117 . S
O30 Mg24 2.099 . S
O30 Mg29 2.180 . S
O30 C39 1.279 . S
O31 Mg29 2.030 . S
O31 C37 1.248 . S
O32 Mg29 1.990 . S
O32 C38 1.253 . S
O33 Mg29 2.117 . S
O33 C39 1.250 . S
C34 O40 1.248 . S
C34 O41 1.264 . S
C35 O21 1.253 . S
C35 O23 1.260 . S
C36 O25 1.279 . S
C36 O26 1.250 . S
C37 O27 1.264 . S
C37 O31 1.248 . S
C38 O28 1.260 . S
C38 O32 1.253 . S
C39 O30 1.279 . S
C39 O33 1.250 . S
O40 Mg22 2.030 . S
O40 C34 1.248 . S
O41 Mg24 2.079 . S
O41 C34 1.264 . S
H42 C45 0.929 . S
H43 C48 0.929 . S
H44 C50 0.930 . S
C45 H42 0.929 . S
C45 C46 1.398 . S
C45 C47 1.396 . S
C46 C45 1.398 . S
C46 C50 1.407 . S
C47 C45 1.396 . S
C47 C48 1.394 1_565 S
C48 H43 0.929 . S
C48 C47 1.394 1_545 S
C48 C49 1.382 . S
C49 C48 1.382 . S
C49 C50 1.392 1_545 S
C49 N51 1.420 . S
C50 H44 0.930 . S
C50 C46 1.407 . S
C50 C49 1.392 1_565 S
N51 C49 1.420 . S
N51 C52 1.244 1_455 S
C52 N51 1.244 1_655 S
H53 C56 0.929 . S
H54 C59 0.929 . S
H55 C61 0.930 . S
C56 H53 0.929 . S
C56 C57 1.398 . S
C56 C58 1.396 . S
C57 C56 1.398 . S
C57 C61 1.407 . S
C58 C56 1.396 . S
C58 C59 1.394 1_655 S
C59 H54 0.929 . S
C59 C58 1.394 1_455 S
C59 C60 1.382 . S
C60 C59 1.382 . S
C60 C61 1.392 1_455 S
C60 N62 1.420 . S
C61 H55 0.930 . S
C61 C57 1.407 . S
C61 C60 1.392 1_655 S
N62 C60 1.420 . S
N62 C63 1.244 . S
C63 N62 1.244 . S
H64 C67 0.929 . S
H65 C70 0.929 . S
H66 C72 0.930 . S
C67 H64 0.929 . S
C67 C68 1.398 . S
C67 C69 1.396 . S
C68 C67 1.398 . S
C68 C72 1.407 . S
C69 C67 1.396 . S
C69 C70 1.394 . S
C70 H65 0.929 . S
C70 C69 1.394 . S
C70 C71 1.382 . S
C71 C70 1.382 . S
C71 C72 1.392 . S
C71 N73 1.420 . S
C72 H66 0.930 . S
C72 C68 1.407 . S
C72 C71 1.392 . S
N73 C71 1.420 . S
N73 C74 1.244 . S
C74 N73 1.244 . S
H75 C78 0.929 . S
H76 C81 0.929 . S
H77 C83 0.930 . S
C78 H75 0.929 . S
C78 C79 1.398 . S
C78 C80 1.396 . S
C79 C78 1.398 . S
C79 C83 1.407 . S
C80 C78 1.396 . S
C80 C81 1.394 . S
C81 H76 0.929 . S
C81 C80 1.394 . S
C81 C82 1.382 . S
C82 C81 1.382 . S
C82 C83 1.392 . S
C82 N84 1.420 . S
C83 H77 0.930 . S
C83 C79 1.407 . S
C83 C82 1.392 . S
N84 C82 1.420 . S
N84 C85 1.244 . S
C85 N84 1.244 . S
C86 C87 1.349 . S
C86 C88 1.327 . S
C86 H111 0.950 . S
C87 C86 1.349 . S
C87 C103 1.349 1_554 S
C88 C86 1.327 . S
C88 C107 1.429 . S
C88 H112 0.950 . S
C89 C106 1.574 . S
C89 C108 1.368 . S
C89 H113 0.949 1_554 S
H90 C94 0.949 . S
C91 C92 1.349 . S
C91 C93 1.327 . S
C91 H114 0.950 . S
C92 C91 1.349 . S
C92 C104 1.349 . S
C93 C91 1.327 . S
C93 C109 1.429 . S
C93 H115 0.950 . S
C94 H90 0.949 . S
C94 C102 1.574 . S
C94 C110 1.368 . S
H95 C103 0.950 . S
H96 C101 0.950 1_556 S
H97 C102 0.949 . S
H98 C104 0.950 . S
H99 C105 0.950 . S
H100 C106 0.949 1_556 S
C101 H96 0.950 1_554 S
C101 C103 1.327 1_554 S
C101 C107 1.429 . S
C102 C94 1.574 . S
C102 H97 0.949 . S
C102 C108 1.368 . S
C103 C87 1.349 1_556 S
C103 H95 0.950 . S
C103 C101 1.327 1_556 S
C104 C92 1.349 . S
C104 H98 0.950 . S
C104 C105 1.327 . S
C105 H99 0.950 . S
C105 C104 1.327 . S
C105 C109 1.429 . S
C106 C89 1.574 . S
C106 H100 0.949 1_554 S
C106 C110 1.368 . S
C107 C88 1.429 . S
C107 C101 1.429 . S
C107 C108 1.523 . S
C108 C89 1.368 . S
C108 C102 1.368 . S
C108 C107 1.523 . S
C109 C93 1.429 . S
C109 C105 1.429 . S
C109 C110 1.523 . S
C110 C94 1.368 . S
C110 C106 1.368 . S
C110 C109 1.523 . S
H111 C86 0.950 . S
H112 C88 0.950 . S
H113 C89 0.949 1_556 S
H114 C91 0.950 . S
H115 C93 0.950 . S
C116 C117 1.349 . S
C116 C118 1.327 . S
C116 H141 0.950 . S
C117 C116 1.349 . S
C117 C133 1.349 1_554 S
C118 C116 1.327 . S
C118 C137 1.429 . S
C118 H142 0.950 . S
C119 C136 1.574 . S
C119 C138 1.363 1_556 S
C119 H143 0.949 . S
H120 C124 0.949 . S
C121 C122 1.349 . S
C121 C123 1.327 . S
C121 H144 0.950 . S
C122 C121 1.349 . S
C122 C134 1.349 1_556 S
C123 C121 1.327 . S
C123 C139 1.429 . S
C123 H145 0.950 . S
C124 H120 0.949 . S
C124 C132 1.574 . S
C124 C140 1.368 1_554 S
H125 C133 0.950 . S
H126 C131 0.950 . S
H127 C132 0.949 . S
H128 C134 0.950 . S
H129 C135 0.950 . S
H130 C136 0.949 . S
C131 H126 0.950 . S
C131 C133 1.327 . S
C131 C137 1.429 1_556 S
C132 C124 1.574 . S
C132 H127 0.949 . S
C132 C138 1.373 . S
C133 C117 1.349 1_556 S
C133 H125 0.950 . S
C133 C131 1.327 . S
C134 C122 1.349 1_554 S
C134 H128 0.950 . S
C134 C135 1.327 . S
C135 H129 0.950 . S
C135 C134 1.327 . S
C135 C139 1.429 1_554 S
C136 C119 1.574 . S
C136 H130 0.949 . S
C136 C140 1.368 . S
C137 C118 1.429 . S
C137 C131 1.429 1_554 S
C137 C138 1.524 . S
C138 C119 1.363 1_554 S
C138 C132 1.373 . S
C138 C137 1.524 . S
C139 C123 1.429 . S
C139 C135 1.429 1_556 S
C139 C140 1.523 . S
C140 C124 1.368 1_556 S
C140 C136 1.368 . S
C140 C139 1.523 . S
H141 C116 0.950 . S
H142 C118 0.950 . S
H143 C119 0.949 . S
H144 C121 0.950 . S
H145 C123 0.950 . S
C146 C147 1.349 1_556 S
C146 C148 1.324 1_556 S
C146 H171 0.950 . S
C147 C146 1.349 1_554 S
C147 C163 1.349 . S
C148 C146 1.324 1_554 S
C148 C167 1.435 . S
C148 H172 0.946 1_554 S
C149 C166 1.574 . S
C149 C168 1.368 . S
C149 H173 0.949 . S
H150 C154 0.949 . S
C151 C152 1.349 . S
C151 C153 1.327 . S
C151 H174 0.950 . S
C152 C151 1.349 . S
C152 C164 1.349 . S
C153 C151 1.327 . S
C153 C169 1.429 . S
C153 H175 0.950 . S
C154 H150 0.949 . S
C154 C162 1.574 . S
C154 C170 1.368 . S
H155 C163 0.950 . S
H156 C161 0.950 . S
H157 C162 0.949 1_556 S
H158 C164 0.950 . S
H159 C165 0.950 . S
H160 C166 0.949 . S
C161 H156 0.950 . S
C161 C163 1.327 . S
C161 C167 1.429 . S
C162 C154 1.574 . S
C162 H157 0.949 1_554 S
C162 C168 1.368 . S
C163 C147 1.349 . S
C163 H155 0.950 . S
C163 C161 1.327 . S
C164 C152 1.349 . S
C164 H158 0.950 . S
C164 C165 1.327 . S
C165 H159 0.950 . S
C165 C164 1.327 . S
C165 C169 1.429 . S
C166 C149 1.574 . S
C166 H160 0.949 . S
C166 C170 1.368 . S
C167 C148 1.435 . S
C167 C161 1.429 . S
C167 C168 1.523 . S
C168 C149 1.368 . S
C168 C162 1.368 . S
C168 C167 1.523 . S
C169 C153 1.429 . S
C169 C165 1.429 . S
C169 C170 1.523 . S
C170 C154 1.368 . S
C170 C166 1.368 . S
C170 C169 1.523 . S
H171 C146 0.950 . S
H172 C148 0.946 1_556 S
H173 C149 0.949 . S
H174 C151 0.950 . S
H175 C153 0.950 . S
C176 C177 1.349 1_554 S
C176 C178 1.327 . S
C176 H201 0.950 . S
C177 C176 1.349 1_556 S
C177 C193 1.349 . S
C178 C176 1.327 . S
C178 C197 1.429 1_554 S
C178 H202 0.950 . S
C179 C196 1.574 . S
C179 C198 1.368 . S
C179 H203 0.949 . S
H180 C184 0.949 . S
C181 C182 1.349 . S
C181 C183 1.327 . S
C181 H204 0.950 . S
C182 C181 1.349 . S
C182 C194 1.349 . S
C183 C181 1.327 . S
C183 C199 1.429 . S
C183 H205 0.950 . S
C184 H180 0.949 . S
C184 C192 1.574 . S
C184 C200 1.368 1_554 S
H185 C193 0.950 . S
H186 C191 0.950 . S
H187 C192 0.949 . S
H188 C194 0.949 . S
H189 C195 0.950 1_554 S
H190 C196 0.949 . S
C191 H186 0.950 . S
C191 C193 1.327 . S
C191 C197 1.429 . S
C192 C184 1.574 . S
C192 H187 0.949 . S
C192 C198 1.368 1_554 S
C193 C177 1.349 . S
C193 H185 0.950 . S
C193 C191 1.327 . S
C194 C182 1.349 . S
C194 H188 0.949 . S
C194 C195 1.327 . S
C195 H189 0.950 1_556 S
C195 C194 1.327 . S
C195 C199 1.429 . S
C196 C179 1.574 . S
C196 H190 0.949 . S
C196 C200 1.368 . S
C197 C178 1.429 1_556 S
C197 C191 1.429 . S
C197 C198 1.523 . S
C198 C179 1.368 . S
C198 C192 1.368 1_556 S
C198 C197 1.523 . S
C199 C183 1.429 . S
C199 C195 1.429 . S
C199 C200 1.523 . S
C200 C184 1.368 1_556 S
C200 C196 1.368 . S
C200 C199 1.523 . S
H201 C176 0.950 . S
H202 C178 0.950 . S
H203 C179 0.949 . S
H204 C181 0.950 . S
H205 C183 0.950 . S
C206 C207 1.349 . S
C206 C208 1.327 . S
C206 H231 0.950 . S
C207 C206 1.349 . S
C207 C223 1.349 . S
C208 C206 1.327 . S
C208 C227 1.429 . S
C208 H232 0.950 . S
C209 C226 1.574 . S
C209 C228 1.368 . S
C209 H233 0.949 . S
H210 C214 0.949 . S
C211 C212 1.349 . S
C211 C213 1.327 . S
C211 H234 0.950 . S
C212 C211 1.349 . S
C212 C224 1.349 . S
C213 C211 1.327 . S
C213 C229 1.429 . S
C213 H235 0.950 . S
C214 H210 0.949 . S
C214 C222 1.574 . S
C214 C230 1.368 . S
H215 C223 0.950 . S
H216 C221 0.950 . S
H217 C222 0.949 . S
H218 C224 0.950 . S
H219 C225 0.950 . S
H220 C226 0.949 . S
C221 H216 0.950 . S
C221 C223 1.327 . S
C221 C227 1.429 . S
C222 C214 1.574 . S
C222 H217 0.949 . S
C222 C228 1.368 . S
C223 C207 1.349 . S
C223 H215 0.950 . S
C223 C221 1.327 . S
C224 C212 1.349 . S
C224 H218 0.950 . S
C224 C225 1.327 . S
C225 H219 0.950 . S
C225 C224 1.327 . S
C225 C229 1.429 . S
C226 C209 1.574 . S
C226 H220 0.949 . S
C226 C230 1.368 . S
C227 C208 1.429 . S
C227 C221 1.429 . S
C227 C228 1.523 . S
C228 C209 1.368 . S
C228 C222 1.368 . S
C228 C227 1.523 . S
C229 C213 1.429 . S
C229 C225 1.429 . S
C229 C230 1.523 . S
C230 C214 1.368 . S
C230 C226 1.368 . S
C230 C229 1.523 . S
H231 C206 0.950 . S
H232 C208 0.950 . S
H233 C209 0.949 . S
H234 C211 0.950 . S
H235 C213 0.950 . S
C236 C237 1.349 . S
C236 C238 1.327 . S
C236 H261 0.950 . S
C237 C236 1.349 . S
C237 C253 1.349 . S
C238 C236 1.327 . S
C238 C257 1.429 . S
C238 H262 0.950 . S
C239 C256 1.574 . S
C239 C258 1.368 . S
C239 H263 0.949 . S
H240 C244 0.949 . S
C241 C242 1.349 . S
C241 C243 1.327 . S
C241 H264 0.950 . S
C242 C241 1.349 . S
C242 C254 1.349 . S
C243 C241 1.327 . S
C243 C259 1.429 . S
C243 H265 0.950 . S
C244 H240 0.949 . S
C244 C252 1.574 . S
C244 C260 1.368 . S
H245 C253 0.950 . S
H246 C251 0.950 . S
H247 C252 0.949 . S
H248 C254 0.950 . S
H249 C255 0.950 . S
H250 C256 0.949 . S
C251 H246 0.950 . S
C251 C253 1.327 . S
C251 C257 1.429 . S
C252 C244 1.574 . S
C252 H247 0.949 . S
C252 C258 1.368 . S
C253 C237 1.349 . S
C253 H245 0.950 . S
C253 C251 1.327 . S
C254 C242 1.349 . S
C254 H248 0.950 . S
C254 C255 1.327 . S
C255 H249 0.950 . S
C255 C254 1.327 . S
C255 C259 1.429 . S
C256 C239 1.574 . S
C256 H250 0.949 . S
C256 C260 1.368 . S
C257 C238 1.429 . S
C257 C251 1.429 . S
C257 C258 1.523 . S
C258 C239 1.368 . S
C258 C252 1.368 . S
C258 C257 1.523 . S
C259 C243 1.429 . S
C259 C255 1.429 . S
C259 C260 1.523 . S
C260 C244 1.368 . S
C260 C256 1.368 . S
C260 C259 1.523 . S
H261 C236 0.950 . S
H262 C238 0.950 . S
H263 C239 0.949 . S
H264 C241 0.950 . S
H265 C243 0.950 . S
C266 C267 1.349 . S
C266 C268 1.327 . S
C266 H291 0.950 . S
C267 C266 1.349 . S
C267 C283 1.349 . S
C268 C266 1.327 . S
C268 C287 1.429 . S
C268 H292 0.950 . S
C269 C286 1.574 . S
C269 C288 1.368 . S
C269 H293 0.949 . S
H270 C274 0.949 . S
C271 C272 1.349 . S
C271 C273 1.327 . S
C271 H294 0.950 . S
C272 C271 1.349 . S
C272 C284 1.349 . S
C273 C271 1.327 . S
C273 C289 1.429 . S
C273 H295 0.950 . S
C274 H270 0.949 . S
C274 C282 1.574 . S
C274 C290 1.368 . S
H275 C283 0.950 . S
H276 C281 0.950 . S
H277 C282 0.949 . S
H278 C284 0.950 . S
H279 C285 0.950 . S
H280 C286 0.949 . S
C281 H276 0.950 . S
C281 C283 1.327 . S
C281 C287 1.429 . S
C282 C274 1.574 . S
C282 H277 0.949 . S
C282 C288 1.368 . S
C283 C267 1.349 . S
C283 H275 0.950 . S
C283 C281 1.327 . S
C284 C272 1.349 . S
C284 H278 0.950 . S
C284 C285 1.327 . S
C285 H279 0.950 . S
C285 C284 1.327 . S
C285 C289 1.429 . S
C286 C269 1.574 . S
C286 H280 0.949 . S
C286 C290 1.368 . S
C287 C268 1.429 . S
C287 C281 1.429 . S
C287 C288 1.523 . S
C288 C269 1.368 . S
C288 C282 1.368 . S
C288 C287 1.523 . S
C289 C273 1.429 . S
C289 C285 1.429 . S
C289 C290 1.523 . S
C290 C274 1.368 . S
C290 C286 1.368 . S
C290 C289 1.523 . S
H291 C266 0.950 . S
H292 C268 0.950 . S
H293 C269 0.949 . S
H294 C271 0.950 . S
H295 C273 0.950 . S
C296 C297 1.349 . S
C296 C298 1.327 . S
C296 H321 0.950 . S
C297 C296 1.349 . S
C297 C313 1.349 . S
C298 C296 1.327 . S
C298 C317 1.429 . S
C298 H322 0.950 . S
C299 C316 1.574 . S
C299 C318 1.368 . S
C299 H323 0.949 . S
H300 C304 0.949 . S
C301 C302 1.349 . S
C301 C303 1.327 . S
C301 H324 0.950 . S
C302 C301 1.349 . S
C302 C314 1.349 . S
C303 C301 1.327 . S
C303 C319 1.429 . S
C303 H325 0.950 . S
C304 H300 0.949 . S
C304 C312 1.574 . S
C304 C320 1.368 . S
H305 C313 0.950 . S
H306 C311 0.950 . S
H307 C312 0.949 . S
H308 C314 0.950 . S
H309 C315 0.950 . S
H310 C316 0.949 . S
C311 H306 0.950 . S
C311 C313 1.327 . S
C311 C317 1.429 . S
C312 C304 1.574 . S
C312 H307 0.949 . S
C312 C318 1.368 . S
C313 C297 1.349 . S
C313 H305 0.950 . S
C313 C311 1.327 . S
C314 C302 1.349 . S
C314 H308 0.950 . S
C314 C315 1.327 . S
C315 H309 0.950 . S
C315 C314 1.327 . S
C315 C319 1.429 . S
C316 C299 1.574 . S
C316 H310 0.949 . S
C316 C320 1.368 . S
C317 C298 1.429 . S
C317 C311 1.429 . S
C317 C318 1.523 . S
C318 C299 1.368 . S
C318 C312 1.368 . S
C318 C317 1.523 . S
C319 C303 1.429 . S
C319 C315 1.429 . S
C319 C320 1.523 . S
C320 C304 1.368 . S
C320 C316 1.368 . S
C320 C319 1.523 . S
H321 C296 0.950 . S
H322 C298 0.950 . S
H323 C299 0.949 . S
H324 C301 0.950 . S
H325 C303 0.950 . S
C326 C327 1.349 . S
C326 C328 1.327 . S
C326 H351 0.950 . S
C327 C326 1.349 . S
C327 C343 1.349 1_545 S
C328 C326 1.327 . S
C328 C347 1.433 . S
C328 H352 0.950 . S
C329 C346 1.574 . S
C329 C348 1.386 . S
C329 H353 0.949 . S
H330 C334 0.949 . S
C331 C332 1.349 . S
C331 C333 1.327 . S
C331 H354 0.950 . S
C332 C331 1.349 . S
C332 C344 1.349 1_565 S
C333 C331 1.327 . S
C333 C349 1.429 . S
C333 H355 0.950 . S
C334 H330 0.949 . S
C334 C342 1.574 . S
C334 C350 1.368 1_545 S
H335 C343 0.950 . S
H336 C341 0.950 . S
H337 C342 0.949 . S
H338 C344 0.950 . S
H339 C345 0.950 . S
H340 C346 0.949 . S
C341 H336 0.950 . S
C341 C343 1.327 . S
C341 C347 1.425 1_565 S
C342 C334 1.574 . S
C342 H337 0.949 . S
C342 C348 1.353 1_545 S
C343 C327 1.349 1_565 S
C343 H335 0.950 . S
C343 C341 1.327 . S
C344 C332 1.349 1_545 S
C344 H338 0.950 . S
C344 C345 1.327 . S
C345 H339 0.950 . S
C345 C344 1.327 . S
C345 C349 1.429 1_545 S
C346 C329 1.574 . S
C346 H340 0.949 . S
C346 C350 1.368 . S
C347 C328 1.433 . S
C347 C341 1.425 1_545 S
C347 C348 1.519 1_545 S
C348 C329 1.386 . S
C348 C342 1.353 1_565 S
C348 C347 1.519 1_565 S
C349 C333 1.429 . S
C349 C345 1.429 1_565 S
C349 C350 1.523 . S
C350 C334 1.368 1_565 S
C350 C346 1.368 . S
C350 C349 1.523 . S
H351 C326 0.950 . S
H352 C328 0.950 . S
H353 C329 0.949 . S
H354 C331 0.950 . S
H355 C333 0.950 . S
C356 C357 1.349 1_565 S
C356 C358 1.327 . S
C356 H381 0.950 1_455 S
C357 C356 1.349 1_545 S
C357 C373 1.349 . S
C358 C356 1.327 . S
C358 C377 1.429 1_565 S
C358 H382 0.950 1_455 S
C359 C376 1.574 . S
C359 C378 1.368 . S
C359 H383 0.949 . S
H360 C364 0.949 1_565 S
C361 C362 1.349 1_455 S
C361 C363 1.327 . S
C361 H384 0.950 . S
C362 C361 1.349 1_655 S
C362 C374 1.349 . S
C363 C361 1.327 . S
C363 C379 1.429 . S
C363 H385 0.950 . S
C364 H360 0.949 1_545 S
C364 C372 1.576 . S
C364 C380 1.368 1_655 S
H365 C373 0.950 . S
H366 C371 0.950 . S
H367 C372 0.939 1_565 S
H368 C374 0.950 1_565 S
H369 C375 0.950 1_565 S
H370 C376 0.949 . S
C371 H366 0.950 . S
C371 C373 1.327 . S
C371 C377 1.429 . S
C372 C364 1.576 . S
C372 H367 0.939 1_545 S
C372 C378 1.377 1_655 S
C373 C357 1.349 . S
C373 H365 0.950 . S
C373 C371 1.327 . S
C374 C362 1.349 . S
C374 H368 0.950 1_545 S
C374 C375 1.327 . S
C375 H369 0.950 1_545 S
C375 C374 1.327 . S
C375 C379 1.429 1_655 S
C376 C359 1.574 . S
C376 H370 0.949 . S
C376 C380 1.368 . S
C377 C358 1.429 1_545 S
C377 C371 1.429 . S
C377 C378 1.523 . S
C378 C359 1.368 . S
C378 C372 1.377 1_455 S
C378 C377 1.523 . S
C379 C363 1.429 . S
C379 C375 1.429 1_455 S
C379 C380 1.523 . S
C380 C364 1.368 1_455 S
C380 C376 1.368 . S
C380 C379 1.523 . S
H381 C356 0.950 1_655 S
H382 C358 0.950 1_655 S
H383 C359 0.949 . S
H384 C361 0.950 . S
H385 C363 0.950 . S
C386 C387 1.349 . S
C386 C388 1.327 . S
C386 H411 0.950 . S
C387 C386 1.349 . S
C387 C403 1.349 . S
C388 C386 1.327 . S
C388 C407 1.429 . S
C388 H412 0.950 . S
C389 C406 1.574 . S
C389 C408 1.368 . S
C389 H413 0.949 . S
H390 C394 0.949 . S
C391 C392 1.349 . S
C391 C393 1.327 . S
C391 H414 0.950 . S
C392 C391 1.349 . S
C392 C404 1.349 . S
C393 C391 1.327 . S
C393 C409 1.429 . S
C393 H415 0.950 . S
C394 H390 0.949 . S
C394 C402 1.574 . S
C394 C410 1.368 . S
H395 C403 0.950 . S
H396 C401 0.950 . S
H397 C402 0.949 . S
H398 C404 0.950 . S
H399 C405 0.950 . S
H400 C406 0.949 . S
C401 H396 0.950 . S
C401 C403 1.327 . S
C401 C407 1.429 . S
C402 C394 1.574 . S
C402 H397 0.949 . S
C402 C408 1.368 . S
C403 C387 1.349 . S
C403 H395 0.950 . S
C403 C401 1.327 . S
C404 C392 1.349 . S
C404 H398 0.950 . S
C404 C405 1.327 . S
C405 H399 0.950 . S
C405 C404 1.327 . S
C405 C409 1.429 . S
C406 C389 1.574 . S
C406 H400 0.949 . S
C406 C410 1.368 . S
C407 C388 1.429 . S
C407 C401 1.429 . S
C407 C408 1.523 . S
C408 C389 1.368 . S
C408 C402 1.368 . S
C408 C407 1.523 . S
C409 C393 1.429 . S
C409 C405 1.429 . S
C409 C410 1.523 . S
C410 C394 1.368 . S
C410 C406 1.368 . S
C410 C409 1.523 . S
H411 C386 0.950 . S
H412 C388 0.950 . S
H413 C389 0.949 . S
H414 C391 0.950 . S
H415 C393 0.950 . S
C416 C417 1.349 . S
C416 C418 1.327 . S
C416 H441 0.950 . S
C417 C416 1.349 . S
C417 C433 1.349 . S
C418 C416 1.327 . S
C418 C437 1.429 . S
C418 H442 0.950 . S
C419 C436 1.574 . S
C419 C438 1.368 . S
C419 H443 0.949 . S
H420 C424 0.949 . S
C421 C422 1.349 . S
C421 C423 1.327 . S
C421 H444 0.950 . S
C422 C421 1.349 . S
C422 C434 1.349 . S
C423 C421 1.327 . S
C423 C439 1.429 . S
C423 H445 0.950 . S
C424 H420 0.949 . S
C424 C432 1.574 . S
C424 C440 1.368 . S
H425 C433 0.950 . S
H426 C431 0.950 . S
H427 C432 0.949 . S
H428 C434 0.950 . S
H429 C435 0.950 . S
H430 C436 0.949 . S
C431 H426 0.950 . S
C431 C433 1.327 . S
C431 C437 1.429 . S
C432 C424 1.574 . S
C432 H427 0.949 . S
C432 C438 1.368 . S
C433 C417 1.349 . S
C433 H425 0.950 . S
C433 C431 1.327 . S
C434 C422 1.349 . S
C434 H428 0.950 . S
C434 C435 1.327 . S
C435 H429 0.950 . S
C435 C434 1.327 . S
C435 C439 1.429 . S
C436 C419 1.574 . S
C436 H430 0.949 . S
C436 C440 1.368 . S
C437 C418 1.429 . S
C437 C431 1.429 . S
C437 C438 1.523 . S
C438 C419 1.368 . S
C438 C432 1.368 . S
C438 C437 1.523 . S
C439 C423 1.429 . S
C439 C435 1.429 . S
C439 C440 1.523 . S
C440 C424 1.368 . S
C440 C436 1.368 . S
C440 C439 1.523 . S
H441 C416 0.950 . S
H442 C418 0.950 . S
H443 C419 0.949 . S
H444 C421 0.950 . S
H445 C423 0.950 . S
C92 C79 1.430 . S
C87 C15 1.286 . S
C117 C13 1.373 . S
C122 C74 1.358 . S
C147 C18 1.247 1_554 S
C152 C85 1.404 . S
C177 C17 1.411 . S
C182 C68 1.447 . S
C207 C36 1.286 . S
C212 C57 1.430 1_565 S
C237 C34 1.373 . S
C242 C52 1.358 . S
C272 C63 1.404 . S
C267 C39 1.253 . S
C302 C46 1.447 . S
C297 C38 1.411 . S
C327 C14 1.579 . S
C332 C47 1.626 . S
C357 C16 1.381 . S
C362 C58 1.408 . S
C392 C69 1.625 . S
C387 C35 1.579 . S
C417 C37 1.381 . S
C422 C80 1.408 . S
